# Generated by pormake.
# Topology fng, (5)-cn, num edge types: 1
# Building blocks:
#     Node 0, Type 0, BuildingBlock: XOMCOT_clean_sbu_1, # of connection points: 5
#     Node 1, Type 0, BuildingBlock: XOMCOT_clean_sbu_1, # of connection points: 5
#     Node 2, Type 0, BuildingBlock: XOMCOT_clean_sbu_1, # of connection points: 5
#     Node 3, Type 0, BuildingBlock: XOMCOT_clean_sbu_1, # of connection points: 5
#     Node 4, Type 0, BuildingBlock: XOMCOT_clean_sbu_1, # of connection points: 5
#     Node 5, Type 0, BuildingBlock: XOMCOT_clean_sbu_1, # of connection points: 5
#     Node 6, Type 0, BuildingBlock: XOMCOT_clean_sbu_1, # of connection points: 5
#     Node 7, Type 0, BuildingBlock: XOMCOT_clean_sbu_1, # of connection points: 5
#     Node 8, Type 0, BuildingBlock: XOMCOT_clean_sbu_1, # of connection points: 5
#     Node 9, Type 0, BuildingBlock: XOMCOT_clean_sbu_1, # of connection points: 5
#     Node 10, Type 0, BuildingBlock: XOMCOT_clean_sbu_1, # of connection points: 5
#     Node 11, Type 0, BuildingBlock: XOMCOT_clean_sbu_1, # of connection points: 5
#     Node 12, Type 0, BuildingBlock: XOMCOT_clean_sbu_1, # of connection points: 5
#     Node 13, Type 0, BuildingBlock: XOMCOT_clean_sbu_1, # of connection points: 5
#     Node 14, Type 0, BuildingBlock: XOMCOT_clean_sbu_1, # of connection points: 5
#     Node 15, Type 0, BuildingBlock: XOMCOT_clean_sbu_1, # of connection points: 5
#     Node 16, Type 0, BuildingBlock: XOMCOT_clean_sbu_1, # of connection points: 5
#     Node 17, Type 0, BuildingBlock: XOMCOT_clean_sbu_1, # of connection points: 5
#     Edge 18, Type (0, 0), BuildingBlock: KIFKEQ_clean_linker_1, # of connection points: 2
#     Edge 19, Type (0, 0), BuildingBlock: KIFKEQ_clean_linker_1, # of connection points: 2
#     Edge 20, Type (0, 0), BuildingBlock: KIFKEQ_clean_linker_1, # of connection points: 2
#     Edge 21, Type (0, 0), BuildingBlock: KIFKEQ_clean_linker_1, # of connection points: 2
#     Edge 22, Type (0, 0), BuildingBlock: KIFKEQ_clean_linker_1, # of connection points: 2
#     Edge 23, Type (0, 0), BuildingBlock: KIFKEQ_clean_linker_1, # of connection points: 2
#     Edge 24, Type (0, 0), BuildingBlock: KIFKEQ_clean_linker_1, # of connection points: 2
#     Edge 25, Type (0, 0), BuildingBlock: KIFKEQ_clean_linker_1, # of connection points: 2
#     Edge 26, Type (0, 0), BuildingBlock: KIFKEQ_clean_linker_1, # of connection points: 2
#     Edge 27, Type (0, 0), BuildingBlock: KIFKEQ_clean_linker_1, # of connection points: 2
#     Edge 28, Type (0, 0), BuildingBlock: KIFKEQ_clean_linker_1, # of connection points: 2
#     Edge 29, Type (0, 0), BuildingBlock: KIFKEQ_clean_linker_1, # of connection points: 2
#     Edge 30, Type (0, 0), BuildingBlock: KIFKEQ_clean_linker_1, # of connection points: 2
#     Edge 31, Type (0, 0), BuildingBlock: KIFKEQ_clean_linker_1, # of connection points: 2
#     Edge 32, Type (0, 0), BuildingBlock: KIFKEQ_clean_linker_1, # of connection points: 2
#     Edge 33, Type (0, 0), BuildingBlock: KIFKEQ_clean_linker_1, # of connection points: 2
#     Edge 34, Type (0, 0), BuildingBlock: KIFKEQ_clean_linker_1, # of connection points: 2
#     Edge 35, Type (0, 0), BuildingBlock: KIFKEQ_clean_linker_1, # of connection points: 2
#     Edge 36, Type (0, 0), BuildingBlock: KIFKEQ_clean_linker_1, # of connection points: 2
#     Edge 37, Type (0, 0), BuildingBlock: KIFKEQ_clean_linker_1, # of connection points: 2
#     Edge 38, Type (0, 0), BuildingBlock: KIFKEQ_clean_linker_1, # of connection points: 2
#     Edge 39, Type (0, 0), BuildingBlock: KIFKEQ_clean_linker_1, # of connection points: 2
#     Edge 40, Type (0, 0), BuildingBlock: KIFKEQ_clean_linker_1, # of connection points: 2
#     Edge 41, Type (0, 0), BuildingBlock: KIFKEQ_clean_linker_1, # of connection points: 2
#     Edge 42, Type (0, 0), BuildingBlock: KIFKEQ_clean_linker_1, # of connection points: 2
#     Edge 43, Type (0, 0), BuildingBlock: KIFKEQ_clean_linker_1, # of connection points: 2
#     Edge 44, Type (0, 0), BuildingBlock: KIFKEQ_clean_linker_1, # of connection points: 2
#     Edge 45, Type (0, 0), BuildingBlock: KIFKEQ_clean_linker_1, # of connection points: 2
#     Edge 46, Type (0, 0), BuildingBlock: KIFKEQ_clean_linker_1, # of connection points: 2
#     Edge 47, Type (0, 0), BuildingBlock: KIFKEQ_clean_linker_1, # of connection points: 2
#     Edge 48, Type (0, 0), BuildingBlock: KIFKEQ_clean_linker_1, # of connection points: 2
#     Edge 49, Type (0, 0), BuildingBlock: KIFKEQ_clean_linker_1, # of connection points: 2
#     Edge 50, Type (0, 0), BuildingBlock: KIFKEQ_clean_linker_1, # of connection points: 2
#     Edge 51, Type (0, 0), BuildingBlock: KIFKEQ_clean_linker_1, # of connection points: 2
#     Edge 52, Type (0, 0), BuildingBlock: KIFKEQ_clean_linker_1, # of connection points: 2
#     Edge 53, Type (0, 0), BuildingBlock: KIFKEQ_clean_linker_1, # of connection points: 2
#     Edge 54, Type (0, 0), BuildingBlock: KIFKEQ_clean_linker_1, # of connection points: 2
#     Edge 55, Type (0, 0), BuildingBlock: KIFKEQ_clean_linker_1, # of connection points: 2
#     Edge 56, Type (0, 0), BuildingBlock: KIFKEQ_clean_linker_1, # of connection points: 2
#     Edge 57, Type (0, 0), BuildingBlock: KIFKEQ_clean_linker_1, # of connection points: 2
#     Edge 58, Type (0, 0), BuildingBlock: KIFKEQ_clean_linker_1, # of connection points: 2
#     Edge 59, Type (0, 0), BuildingBlock: KIFKEQ_clean_linker_1, # of connection points: 2
#     Edge 60, Type (0, 0), BuildingBlock: KIFKEQ_clean_linker_1, # of connection points: 2
#     Edge 61, Type (0, 0), BuildingBlock: KIFKEQ_clean_linker_1, # of connection points: 2
#     Edge 62, Type (0, 0), BuildingBlock: KIFKEQ_clean_linker_1, # of connection points: 2
# Relax obj value: 0.122
# Max RMSD: 0.144
# Mean RMSD: 0.144
data_MOF--net-fng--node1-XOMCOT_clean_sbu_1--edge1-KIFKEQ_clean_linker_1
_symmetry_space_group_name_H-M    P1
_symmetry_Int_Tables_number       1
_symmetry_cell_setting            triclinic
loop_
_symmetry_equiv_pos_as_xyz
'x, y, z'
_cell_length_a     80.567912
_cell_length_b     80.620426
_cell_length_c     17.510571
_cell_angle_alpha  90.036871
_cell_angle_beta   90.033629
_cell_angle_gamma 120.04236
loop_
_atom_site_label
_atom_site_type_symbol
_atom_site_fract_x
_atom_site_fract_y
_atom_site_fract_z
_atom_type_partial_charge
C0 C 0.15442 0.27566 0.03333 0.0
C1 C 0.15712 0.27954 0.95647 0.0
N2 N 0.16134 0.26696 0.92363 0.0
N3 N 0.15703 0.26079 0.04925 0.0
C4 C 0.16139 0.25591 0.98151 0.0
H5 H 0.15018 0.28283 0.0745 0.0
Co6 Co 0.15286 0.24909 0.14402 0.0
C7 C 0.1633 0.21867 0.12046 0.0
O8 O 0.14822 0.20632 0.15921 0.0
N9 N 0.14838 0.2374 0.24305 0.0
C10 C 0.13467 0.21876 0.34504 0.0
C11 C 0.13338 0.2206 0.26762 0.0
C12 C 0.15856 0.2453 0.3078 0.0
N13 N 0.15042 0.23446 0.37024 0.0
O14 O 0.17688 0.27054 0.1781 0.0
H15 H 0.12182 0.21022 0.2324 0.0
H16 H 0.17156 0.259 0.3106 0.0
O17 O 0.1665 0.23575 0.11083 0.0
C18 C 0.17514 0.28397 0.20865 0.0
O19 O 0.15789 0.28136 0.22006 0.0
N20 N 0.12871 0.22964 0.10853 0.0
C21 C 0.09126 0.20567 0.05685 0.0
C22 C 0.10665 0.20467 0.02446 0.0
C23 C 0.12532 0.21682 0.05102 0.0
C24 C 0.11396 0.23131 0.13813 0.0
C25 C 0.09508 0.21916 0.11455 0.0
H26 H 0.13695 0.21619 0.02352 0.0
H27 H 0.11692 0.24215 0.18086 0.0
H28 H 0.16358 0.24384 0.97406 0.0
H29 H 0.15559 0.2905 0.92711 0.0
H30 H 0.12423 0.20729 0.3806 0.0
H31 H 0.10426 0.19464 0.97879 0.0
H32 H 0.08362 0.22065 0.13971 0.0
C33 C 0.76916 0.87884 0.07382 0.0
C34 C 0.76535 0.87499 0.99733 0.0
N35 N 0.76975 0.89147 0.96147 0.0
N36 N 0.77605 0.89768 0.08617 0.0
C37 C 0.77594 0.90496 0.01681 0.0
H38 H 0.7679 0.86875 0.11732 0.0
Co39 Co 0.78587 0.9097 0.17974 0.0
C40 C 0.81838 0.94696 0.12647 0.0
O41 O 0.83014 0.94359 0.16682 0.0
N42 N 0.79463 0.92117 0.27615 0.0
C43 C 0.80408 0.94091 0.37597 0.0
C44 C 0.80435 0.93974 0.29796 0.0
C45 C 0.78786 0.91148 0.34242 0.0
N46 N 0.79356 0.92308 0.40447 0.0
O47 O 0.76413 0.91326 0.19335 0.0
H48 H 0.81005 0.95201 0.26082 0.0
H49 H 0.77803 0.8962 0.34404 0.0
O50 O 0.80034 0.9349 0.12797 0.0
C51 C 0.74876 0.89792 0.21101 0.0
O52 O 0.74899 0.88176 0.2143 0.0
N53 N 0.80654 0.9045 0.16823 0.0
C54 C 0.83102 0.88939 0.14436 0.0
C55 C 0.82765 0.89938 0.08631 0.0
C56 C 0.81551 0.90682 0.09937 0.0
C57 C 0.8098 0.89501 0.22555 0.0
C58 C 0.82224 0.88779 0.21549 0.0
H59 H 0.81273 0.91382 0.05259 0.0
H60 H 0.80214 0.89211 0.27867 0.0
H61 H 0.78154 0.92006 0.0061 0.0
H62 H 0.76035 0.86126 0.96989 0.0
H63 H 0.81055 0.95411 0.40824 0.0
H64 H 0.83357 0.90076 0.02969 0.0
H65 H 0.82446 0.88053 0.26295 0.0
C66 C 0.15665 0.89648 0.06452 0.0
C67 C 0.16018 0.89749 0.9872 0.0
N68 N 0.14321 0.88907 0.95039 0.0
N69 N 0.13758 0.8876 0.07608 0.0
C70 C 0.12977 0.8831 0.00562 0.0
H71 H 0.16728 0.90246 0.10943 0.0
Co72 Co 0.12612 0.88536 0.16993 0.0
C73 C 0.08631 0.87554 0.1319 0.0
O74 O 0.08816 0.88886 0.18016 0.0
N75 N 0.11485 0.8827 0.26703 0.0
C76 C 0.09616 0.86796 0.36716 0.0
C77 C 0.09797 0.86757 0.28946 0.0
C78 C 0.12332 0.89161 0.33323 0.0
N79 N 0.11222 0.88299 0.39475 0.0
O80 O 0.12483 0.86109 0.18564 0.0
H81 H 0.08826 0.85593 0.25284 0.0
H82 H 0.13796 0.90313 0.33753 0.0
O83 O 0.10032 0.87248 0.12205 0.0
C84 C 0.13795 0.86285 0.23138 0.0
O85 O 0.14992 0.87989 0.25912 0.0
N86 N 0.12955 0.91024 0.15509 0.0
C87 C 0.1428 0.9491 0.12462 0.0
C88 C 0.12815 0.93463 0.08049 0.0
C89 C 0.12207 0.91537 0.09541 0.0
C90 C 0.14417 0.92416 0.19694 0.0
C91 C 0.15074 0.94357 0.1838 0.0
H92 H 0.11208 0.90477 0.05608 0.0
H93 H 0.15186 0.92035 0.23698 0.0
H94 H 0.11457 0.87657 0.99443 0.0
H95 H 0.17414 0.90422 0.96023 0.0
H96 H 0.08474 0.85699 0.4013 0.0
H97 H 0.1218 0.93812 0.03314 0.0
H98 H 0.16275 0.95416 0.21693 0.0
C99 C 0.29045 0.16282 0.97038 0.0
C100 C 0.29334 0.16577 0.04775 0.0
N101 N 0.27644 0.16097 0.08098 0.0
N102 N 0.2718 0.15622 0.95449 0.0
C103 C 0.26366 0.15544 0.02301 0.0
H104 H 0.30111 0.16444 0.92906 0.0
Co105 Co 0.25991 0.14666 0.86024 0.0
C106 C 0.23259 0.16185 0.84133 0.0
O107 O 0.22477 0.15192 0.77899 0.0
N108 N 0.2483 0.13664 0.76368 0.0
C109 C 0.2356 0.11602 0.667 0.0
C110 C 0.23813 0.11787 0.74469 0.0
C111 C 0.25172 0.14586 0.69559 0.0
N112 N 0.24433 0.13364 0.63596 0.0
O113 O 0.28048 0.16871 0.81012 0.0
H114 H 0.23387 0.10605 0.78364 0.0
H115 H 0.26057 0.16122 0.68917 0.0
O116 O 0.24586 0.16043 0.87542 0.0
C117 C 0.29193 0.16469 0.77525 0.0
O118 O 0.28859 0.14698 0.77798 0.0
N119 N 0.2409 0.12447 0.90971 0.0
C120 C 0.21632 0.08857 0.97367 0.0
C121 C 0.20924 0.1004 0.94836 0.0
C122 C 0.2218 0.11838 0.91672 0.0
C123 C 0.24802 0.11328 0.93507 0.0
C124 C 0.23605 0.09539 0.96756 0.0
H125 H 0.21596 0.12694 0.89583 0.0
H126 H 0.26311 0.11814 0.928 0.0
H127 H 0.2484 0.14959 0.0308 0.0
H128 H 0.30673 0.17038 0.0775 0.0
H129 H 0.22872 0.10267 0.63551 0.0
H130 H 0.19411 0.09571 0.95223 0.0
H131 H 0.24213 0.08667 0.98506 0.0
C132 C 0.90072 0.14428 0.92174 0.0
C133 C 0.90144 0.1479 0.99888 0.0
N134 N 0.89266 0.13097 0.03586 0.0
N135 N 0.89166 0.1252 0.91036 0.0
C136 C 0.88667 0.11747 0.98076 0.0
H137 H 0.9071 0.15485 0.87689 0.0
Co138 Co 0.89003 0.11388 0.81661 0.0
C139 C 0.88118 0.07447 0.85243 0.0
O140 O 0.89512 0.07743 0.80536 0.0
N141 N 0.8879 0.10282 0.71908 0.0
C142 C 0.87345 0.08411 0.61844 0.0
C143 C 0.87305 0.08579 0.69616 0.0
C144 C 0.89657 0.11156 0.65293 0.0
N145 N 0.88815 0.10042 0.59114 0.0
O146 O 0.86566 0.11223 0.79896 0.0
H147 H 0.86147 0.07585 0.73238 0.0
H148 H 0.90763 0.12639 0.64887 0.0
O149 O 0.87731 0.08791 0.86365 0.0
C150 C 0.86744 0.12546 0.75391 0.0
O151 O 0.88456 0.1377 0.72766 0.0
N152 N 0.91505 0.1176 0.83414 0.0
C153 C 0.95352 0.13182 0.87497 0.0
C154 C 0.93868 0.1177 0.91904 0.0
C155 C 0.9196 0.11091 0.89813 0.0
C156 C 0.92942 0.13155 0.79142 0.0
C157 C 0.94871 0.13849 0.80955 0.0
H158 H 0.90859 0.10117 0.93664 0.0
H159 H 0.92609 0.1386 0.74688 0.0
H160 H 0.87993 0.10227 0.99201 0.0
H161 H 0.90833 0.16188 0.02565 0.0
H162 H 0.86264 0.07258 0.58412 0.0
H163 H 0.94179 0.11249 0.97101 0.0
H164 H 0.95975 0.14997 0.77579 0.0
C165 C 0.90028 0.74646 0.00154 0.0
C166 C 0.90211 0.74455 0.07852 0.0
N167 N 0.91762 0.7606 0.10425 0.0
N168 N 0.91462 0.7636 0.9782 0.0
C169 C 0.92498 0.77186 0.04191 0.0
H170 H 0.88858 0.73639 0.96612 0.0
Co171 Co 0.91673 0.77432 0.88222 0.0
C172 C 0.95757 0.8061 0.86961 0.0
O173 O 0.953 0.81547 0.82052 0.0
N174 N 0.91833 0.78482 0.78386 0.0
C175 C 0.91342 0.7982 0.68156 0.0
C176 C 0.91039 0.79513 0.75859 0.0
C177 C 0.92623 0.78199 0.72042 0.0
N178 N 0.92332 0.78983 0.65721 0.0
O179 O 0.92043 0.75451 0.83748 0.0
H180 H 0.90237 0.79983 0.79255 0.0
H181 H 0.93384 0.77412 0.72043 0.0
O182 O 0.9445 0.79023 0.89735 0.0
C183 C 0.90491 0.74004 0.81452 0.0
O184 O 0.88875 0.74016 0.82237 0.0
N185 N 0.91124 0.79231 0.92726 0.0
C186 C 0.89622 0.81413 0.98957 0.0
C187 C 0.91604 0.82071 0.99196 0.0
C188 C 0.92327 0.80956 0.96076 0.0
C189 C 0.89195 0.78527 0.92794 0.0
C190 C 0.88419 0.79602 0.95705 0.0
H191 H 0.93842 0.81477 0.96528 0.0
H192 H 0.88254 0.77136 0.90297 0.0
H193 H 0.93722 0.78621 0.0429 0.0
H194 H 0.892 0.7327 0.11337 0.0
H195 H 0.90787 0.80526 0.64586 0.0
H196 H 0.92592 0.83424 0.01867 0.0
H197 H 0.86887 0.79023 0.95242 0.0
C198 C 0.82118 0.61387 0.34896 0.0
C199 C 0.82278 0.61771 0.27224 0.0
N200 N 0.83116 0.6087 0.23913 0.0
N201 N 0.82872 0.60265 0.36498 0.0
C202 C 0.83494 0.59992 0.29683 0.0
H203 H 0.81352 0.6177 0.38939 0.0
Co204 Co 0.8249 0.59045 0.45945 0.0
C205 C 0.83012 0.55729 0.41098 0.0
O206 O 0.81227 0.54476 0.42718 0.0
N207 N 0.82079 0.57844 0.55677 0.0
C208 C 0.8088 0.55801 0.65441 0.0
C209 C 0.8086 0.56001 0.57671 0.0
C210 C 0.82797 0.58732 0.62455 0.0
N211 N 0.82097 0.57523 0.68459 0.0
O212 O 0.85017 0.61025 0.49236 0.0
H213 H 0.79877 0.54886 0.53898 0.0
H214 H 0.83715 0.60258 0.63078 0.0
O215 O 0.83639 0.57522 0.42077 0.0
C216 C 0.85094 0.62603 0.50938 0.0
O217 O 0.8352 0.62703 0.50514 0.0
N218 N 0.79955 0.57257 0.42794 0.0
C219 C 0.76095 0.55177 0.38344 0.0
C220 C 0.77541 0.55232 0.33697 0.0
C221 C 0.79463 0.56305 0.35958 0.0
C222 C 0.78572 0.57268 0.47248 0.0
C223 C 0.76638 0.56212 0.45222 0.0
H224 H 0.80554 0.56391 0.32139 0.0
H225 H 0.78975 0.58127 0.52392 0.0
H226 H 0.84025 0.59011 0.28826 0.0
H227 H 0.81699 0.62546 0.24241 0.0
H228 H 0.8 0.54501 0.6864 0.0
H229 H 0.77201 0.54506 0.2823 0.0
H230 H 0.75581 0.56222 0.49005 0.0
C231 C 0.43257 0.21323 0.36427 0.0
C232 C 0.42902 0.21008 0.28719 0.0
N233 N 0.43453 0.22705 0.25309 0.0
N234 N 0.44035 0.23209 0.37869 0.0
C235 C 0.44091 0.24006 0.31032 0.0
H236 H 0.43081 0.20267 0.40643 0.0
Co237 Co 0.4511 0.2436 0.47179 0.0
C238 C 0.48279 0.28146 0.41993 0.0
O239 O 0.49499 0.27805 0.45674 0.0
N240 N 0.46093 0.25468 0.56827 0.0
C241 C 0.46943 0.27449 0.66786 0.0
C242 C 0.46915 0.27326 0.58988 0.0
C243 C 0.45577 0.24493 0.63513 0.0
N244 N 0.46073 0.25664 0.69653 0.0
O245 O 0.4294 0.24667 0.49178 0.0
H246 H 0.47293 0.2853 0.55295 0.0
H247 H 0.44696 0.22951 0.63841 0.0
O248 O 0.4648 0.26922 0.42258 0.0
C249 C 0.41605 0.23175 0.52374 0.0
O250 O 0.41851 0.21706 0.53583 0.0
N251 N 0.47166 0.23874 0.45285 0.0
C252 C 0.49557 0.22387 0.4154 0.0
C253 C 0.49268 0.23548 0.36389 0.0
C254 C 0.48055 0.24252 0.38317 0.0
C255 C 0.47452 0.22764 0.50407 0.0
C256 C 0.48659 0.22029 0.48697 0.0
H257 H 0.47786 0.25056 0.34055 0.0
H258 H 0.4666 0.22342 0.55682 0.0
H259 H 0.44689 0.25528 0.30204 0.0
H260 H 0.42407 0.19655 0.25811 0.0
H261 H 0.47458 0.28756 0.70052 0.0
H262 H 0.49934 0.23871 0.30805 0.0
H263 H 0.488 0.211 0.52788 0.0
C264 C 0.80968 0.20257 0.38323 0.0
C265 C 0.80823 0.19913 0.30568 0.0
N266 N 0.79608 0.20439 0.27672 0.0
N267 N 0.79834 0.20978 0.40265 0.0
C268 C 0.79021 0.21064 0.3365 0.0
H269 H 0.81878 0.20039 0.42245 0.0
Co270 Co 0.79533 0.21791 0.49814 0.0
C271 C 0.75376 0.20675 0.50714 0.0
O272 O 0.75725 0.21977 0.55949 0.0
N273 N 0.7925 0.22626 0.59626 0.0
C274 C 0.79468 0.24405 0.69758 0.0
C275 C 0.79807 0.24426 0.62056 0.0
C276 C 0.78567 0.21544 0.66014 0.0
N277 N 0.78706 0.22593 0.72223 0.0
O278 O 0.79245 0.19458 0.54163 0.0
H279 H 0.80472 0.25702 0.58583 0.0
H280 H 0.78007 0.20015 0.66212 0.0
O281 O 0.76757 0.20518 0.47912 0.0
C282 C 0.80722 0.19718 0.57866 0.0
O283 O 0.8218 0.2147 0.58548 0.0
N284 N 0.8004 0.24135 0.45443 0.0
C285 C 0.81567 0.27812 0.39169 0.0
C286 C 0.79574 0.26529 0.39211 0.0
C287 C 0.78835 0.24693 0.42388 0.0
C288 C 0.8197 0.25345 0.45346 0.0
C289 C 0.8276 0.27188 0.42361 0.0
H290 H 0.7731 0.23726 0.42191 0.0
H291 H 0.82904 0.24877 0.47749 0.0
H292 H 0.78036 0.21601 0.33177 0.0
H293 H 0.81614 0.19402 0.27267 0.0
H294 H 0.79856 0.25641 0.7335 0.0
H295 H 0.78592 0.26922 0.36692 0.0
H296 H 0.84299 0.2812 0.42666 0.0
C297 C 0.94935 0.47249 0.28922 0.0
C298 C 0.9537 0.47447 0.36587 0.0
N299 N 0.94826 0.48636 0.39627 0.0
N300 N 0.94123 0.4831 0.27134 0.0
C301 C 0.94109 0.49166 0.33747 0.0
H302 H 0.95095 0.46304 0.24984 0.0
Co303 Co 0.9303 0.48272 0.17672 0.0
C304 C 0.89848 0.4882 0.23929 0.0
O305 O 0.88551 0.47061 0.22068 0.0
N306 N 0.92032 0.48287 0.07994 0.0
C307 C 0.90573 0.48655 0.97884 0.0
C308 C 0.90532 0.48473 0.05685 0.0
C309 C 0.92955 0.48354 0.01452 0.0
N310 N 0.92104 0.48587 0.95235 0.0
O311 O 0.95165 0.50787 0.15423 0.0
H312 H 0.89496 0.48549 0.093 0.0
H313 H 0.94274 0.48307 0.01295 0.0
O314 O 0.91616 0.49459 0.22285 0.0
C315 C 0.96734 0.50822 0.13953 0.0
O316 O 0.96786 0.49223 0.14406 0.0
N317 N 0.91011 0.45692 0.19648 0.0
C318 C 0.88521 0.41761 0.22535 0.0
C319 C 0.89045 0.43133 0.28363 0.0
C320 C 0.90282 0.45074 0.26819 0.0
C321 C 0.90532 0.44375 0.13928 0.0
C322 C 0.89265 0.42423 0.15197 0.0
H323 H 0.90657 0.4608 0.31464 0.0
H324 H 0.91174 0.44811 0.08352 0.0
H325 H 0.93487 0.50077 0.34352 0.0
H326 H 0.95912 0.46667 0.3977 0.0
H327 H 0.89567 0.48848 0.94433 0.0
H328 H 0.88561 0.42717 0.34177 0.0
H329 H 0.88905 0.41442 0.10445 0.0
C330 C 0.5624 0.48427 0.29031 0.0
C331 C 0.56077 0.48716 0.36645 0.0
N332 N 0.55071 0.46993 0.40059 0.0
N333 N 0.55326 0.46532 0.27573 0.0
C334 C 0.546 0.45691 0.34385 0.0
H335 H 0.57066 0.49529 0.2488 0.0
Co336 Co 0.5549 0.45548 0.18121 0.0
C337 C 0.55075 0.4184 0.24229 0.0
O338 O 0.56891 0.42407 0.23063 0.0
N339 N 0.5563 0.44621 0.08434 0.0
C340 C 0.55868 0.43096 0.98267 0.0
C341 C 0.56017 0.43254 0.06084 0.0
C342 C 0.55274 0.45283 0.01908 0.0
N343 N 0.55391 0.44371 0.95636 0.0
O344 O 0.52924 0.45004 0.1561 0.0
H345 H 0.56401 0.4242 0.09674 0.0
H346 H 0.54915 0.46406 0.01789 0.0
O347 O 0.54398 0.4293 0.22478 0.0
C348 C 0.52763 0.4647 0.14197 0.0
O349 O 0.54287 0.4818 0.1472 0.0
N350 N 0.58091 0.46268 0.20387 0.0
C351 C 0.62015 0.47988 0.23824 0.0
C352 C 0.60622 0.46929 0.29339 0.0
C353 C 0.5868 0.46108 0.27551 0.0
C354 C 0.59432 0.47309 0.14965 0.0
C355 C 0.61396 0.48154 0.16521 0.0
H356 H 0.57648 0.45334 0.3198 0.0
H357 H 0.58992 0.47562 0.09464 0.0
H358 H 0.53885 0.44159 0.35285 0.0
H359 H 0.56726 0.50093 0.3948 0.0
H360 H 0.56126 0.42137 0.948 0.0
H361 H 0.61028 0.46751 0.35046 0.0
H362 H 0.62418 0.49002 0.12138 0.0
C363 C 0.55529 0.08879 0.31111 0.0
C364 C 0.55172 0.08486 0.38768 0.0
N365 N 0.56865 0.09231 0.42461 0.0
N366 N 0.57438 0.09863 0.29953 0.0
C367 C 0.58214 0.10032 0.36951 0.0
H368 H 0.54466 0.08546 0.26706 0.0
Co369 Co 0.58571 0.10937 0.20614 0.0
C370 C 0.62353 0.14174 0.25411 0.0
O371 O 0.62003 0.15323 0.21261 0.0
N372 N 0.5966 0.11913 0.10956 0.0
C373 C 0.61614 0.12707 0.00928 0.0
C374 C 0.61503 0.12631 0.08737 0.0
C375 C 0.58674 0.11472 0.04293 0.0
N376 N 0.5983 0.11965 0.98112 0.0
O377 O 0.58945 0.08805 0.1858 0.0
H378 H 0.62685 0.12893 0.12408 0.0
H379 H 0.57126 0.10668 0.03982 0.0
O380 O 0.61127 0.12375 0.25558 0.0
C381 C 0.57444 0.0742 0.15612 0.0
O382 O 0.55921 0.07593 0.14706 0.0
N383 N 0.58019 0.12948 0.22462 0.0
C384 C 0.5647 0.15302 0.25971 0.0
C385 C 0.5772 0.15126 0.31049 0.0
C386 C 0.58456 0.13929 0.29241 0.0
C387 C 0.56803 0.13105 0.17474 0.0
C388 C 0.56041 0.14291 0.19046 0.0
H389 H 0.5932 0.13738 0.33473 0.0
H390 H 0.56323 0.12231 0.12419 0.0
H391 H 0.59737 0.10845 0.38063 0.0
H392 H 0.53771 0.07762 0.41411 0.0
H393 H 0.62892 0.1311 0.97595 0.0
H394 H 0.58056 0.15831 0.3656 0.0
H395 H 0.55079 0.14371 0.14936 0.0
C396 C 0.4747 0.93533 0.72136 0.0
C397 C 0.47447 0.9379 0.64393 0.0
N398 N 0.48569 0.93202 0.61062 0.0
N399 N 0.48603 0.92789 0.73702 0.0
C400 C 0.49266 0.92615 0.66827 0.0
H401 H 0.46605 0.93746 0.76312 0.0
Co402 Co 0.48645 0.9179 0.83228 0.0
C403 C 0.51557 0.90654 0.81141 0.0
O404 O 0.52478 0.91714 0.87083 0.0
N405 N 0.48639 0.90782 0.92785 0.0
C406 C 0.48234 0.88782 0.02252 0.0
C407 C 0.48205 0.88975 0.94455 0.0
C408 C 0.48932 0.91663 0.99616 0.0
N409 N 0.48697 0.90478 0.05471 0.0
O410 O 0.51044 0.94069 0.8568 0.0
H411 H 0.4785 0.87858 0.90273 0.0
H412 H 0.49239 0.93124 0.00304 0.0
O413 O 0.49991 0.90547 0.78984 0.0
C414 C 0.50949 0.95562 0.87278 0.0
O415 O 0.49282 0.9548 0.86887 0.0
N416 N 0.46238 0.89659 0.81057 0.0
C417 C 0.42422 0.86981 0.77573 0.0
C418 C 0.43941 0.87017 0.73468 0.0
C419 C 0.45844 0.88373 0.75288 0.0
C420 C 0.4479 0.89627 0.85181 0.0
C421 C 0.42877 0.88298 0.8357 0.0
H422 H 0.46988 0.88434 0.71868 0.0
H423 H 0.45124 0.9069 0.89585 0.0
H424 H 0.50107 0.91924 0.65969 0.0
H425 H 0.46591 0.94275 0.61407 0.0
H426 H 0.47924 0.87494 0.05321 0.0
H427 H 0.43663 0.86027 0.68807 0.0
H428 H 0.41765 0.88362 0.86797 0.0
C429 C 0.10399 0.55064 0.70675 0.0
C430 C 0.09989 0.54787 0.63 0.0
N431 N 0.10415 0.56482 0.5985 0.0
N432 N 0.11089 0.56925 0.72382 0.0
C433 C 0.1104 0.57744 0.65722 0.0
H434 H 0.10321 0.54004 0.74671 0.0
Co435 Co 0.12179 0.58052 0.81764 0.0
C436 C 0.15368 0.61774 0.75608 0.0
O437 O 0.16661 0.6141 0.78465 0.0
N438 N 0.13174 0.59128 0.91386 0.0
C439 C 0.14547 0.60992 0.01512 0.0
C440 C 0.14513 0.60906 0.93684 0.0
C441 C 0.12378 0.58186 0.97968 0.0
N442 N 0.13198 0.59282 0.04202 0.0
O443 O 0.10035 0.58418 0.83878 0.0
H444 H 0.1535 0.6212 0.90074 0.0
H445 H 0.112 0.56724 0.98154 0.0
O446 O 0.13581 0.60607 0.7679 0.0
C447 C 0.08496 0.56871 0.85529 0.0
O448 O 0.0849 0.55241 0.85228 0.0
N449 N 0.14209 0.57514 0.7993 0.0
C450 C 0.16702 0.56087 0.77017 0.0
C451 C 0.16245 0.57011 0.71284 0.0
C452 C 0.15002 0.57705 0.72839 0.0
C453 C 0.14629 0.5661 0.85563 0.0
C454 C 0.15893 0.55923 0.8428 0.0
H455 H 0.1465 0.58369 0.68246 0.0
H456 H 0.13934 0.56345 0.91044 0.0
H457 H 0.11552 0.59258 0.65122 0.0
H458 H 0.09548 0.53468 0.59916 0.0
H459 H 0.1543 0.62249 0.04948 0.0
H460 H 0.16781 0.57137 0.65521 0.0
H461 H 0.16199 0.55235 0.88941 0.0
C462 C 0.483 0.54653 0.6705 0.0
C463 C 0.48259 0.54291 0.59373 0.0
N464 N 0.46441 0.53551 0.56867 0.0
N465 N 0.46516 0.54133 0.69436 0.0
C466 C 0.45413 0.53463 0.6311 0.0
H467 H 0.49574 0.55372 0.70549 0.0
Co468 Co 0.45963 0.5469 0.79078 0.0
C469 C 0.41899 0.53834 0.78043 0.0
O470 O 0.42275 0.55308 0.82387 0.0
N471 N 0.45454 0.55292 0.89047 0.0
C472 C 0.4528 0.56827 0.99356 0.0
C473 C 0.45622 0.56952 0.91651 0.0
C474 C 0.44984 0.5418 0.95379 0.0
N475 N 0.44889 0.55082 0.01726 0.0
O476 O 0.45561 0.52254 0.82724 0.0
H477 H 0.45971 0.58201 0.88255 0.0
H478 H 0.44727 0.52735 0.95403 0.0
O479 O 0.43235 0.53479 0.76379 0.0
C480 C 0.4712 0.5231 0.84574 0.0
O481 O 0.48738 0.5394 0.83949 0.0
N482 N 0.4656 0.57115 0.75368 0.0
C483 C 0.48134 0.60879 0.70051 0.0
C484 C 0.46302 0.59444 0.67671 0.0
C485 C 0.4555 0.57558 0.70307 0.0
C486 C 0.48365 0.58471 0.77496 0.0
C487 C 0.49163 0.60362 0.75038 0.0
H488 H 0.44191 0.5646 0.68078 0.0
H489 H 0.49181 0.58078 0.81241 0.0
H490 H 0.43903 0.53005 0.63002 0.0
H491 H 0.495 0.54676 0.55835 0.0
H492 H 0.45388 0.57968 0.02958 0.0
H493 H 0.4548 0.5976 0.6363 0.0
H494 H 0.50575 0.6141 0.77077 0.0
C495 C 0.6091 0.80341 0.62041 0.0
C496 C 0.6134 0.80543 0.69705 0.0
N497 N 0.60875 0.818 0.72671 0.0
N498 N 0.60172 0.81461 0.60167 0.0
C499 C 0.60203 0.8236 0.6672 0.0
H500 H 0.61021 0.79356 0.58162 0.0
Co501 Co 0.59099 0.81445 0.50697 0.0
C502 C 0.5594 0.82067 0.57076 0.0
O503 O 0.54591 0.80304 0.55563 0.0
N504 N 0.58102 0.81468 0.41029 0.0
C505 C 0.56422 0.81488 0.30988 0.0
C506 C 0.56453 0.81378 0.38796 0.0
C507 C 0.59048 0.8164 0.34434 0.0
N508 N 0.58056 0.81652 0.28235 0.0
O509 O 0.61239 0.83962 0.48537 0.0
H510 H 0.5533 0.81253 0.42458 0.0
H511 H 0.60429 0.81723 0.34201 0.0
O512 O 0.57688 0.82628 0.55325 0.0
C513 C 0.62806 0.83985 0.47162 0.0
O514 O 0.62842 0.82378 0.47617 0.0
N515 N 0.5709 0.78875 0.52556 0.0
C516 C 0.54727 0.74926 0.55235 0.0
C517 C 0.55104 0.76271 0.61046 0.0
C518 C 0.56298 0.78229 0.59617 0.0
C519 C 0.56736 0.77582 0.46853 0.0
C520 C 0.55536 0.75617 0.48018 0.0
H521 H 0.56617 0.79223 0.64275 0.0
H522 H 0.57447 0.78053 0.41409 0.0
H523 H 0.59657 0.83338 0.67198 0.0
H524 H 0.61827 0.79721 0.72925 0.0
H525 H 0.55292 0.8148 0.27616 0.0
H526 H 0.54555 0.75817 0.66767 0.0
H527 H 0.55289 0.74647 0.43319 0.0
C528 C 0.2107 0.80216 0.61279 0.0
C529 C 0.20763 0.80207 0.69004 0.0
N530 N 0.21237 0.78995 0.72351 0.0
N531 N 0.21729 0.79011 0.59727 0.0
C532 C 0.21798 0.78273 0.66581 0.0
H533 H 0.2091 0.81117 0.57123 0.0
Co534 Co 0.2266 0.78763 0.50299 0.0
C535 C 0.21119 0.74502 0.48434 0.0
O536 O 0.22055 0.74706 0.42053 0.0
N537 N 0.23639 0.78593 0.40617 0.0
C538 C 0.25691 0.79374 0.30931 0.0
C539 C 0.25515 0.79451 0.38694 0.0
C540 C 0.22708 0.78008 0.33819 0.0
N541 N 0.23925 0.78485 0.27847 0.0
O542 O 0.20421 0.78588 0.45411 0.0
H543 H 0.26705 0.80215 0.42565 0.0
H544 H 0.21171 0.77358 0.3319 0.0
O545 O 0.21296 0.75977 0.51915 0.0
C546 C 0.20743 0.80074 0.41639 0.0
O547 O 0.22512 0.81514 0.41194 0.0
N548 N 0.24903 0.79107 0.55175 0.0
C549 C 0.28519 0.8027 0.61448 0.0
C550 C 0.27341 0.78378 0.58891 0.0
C551 C 0.25528 0.77819 0.55797 0.0
C552 C 0.26018 0.8094 0.57718 0.0
C553 C 0.2782 0.81547 0.60909 0.0
H554 H 0.24673 0.76378 0.53681 0.0
H555 H 0.2552 0.81954 0.57069 0.0
H556 H 0.22377 0.7733 0.67381 0.0
H557 H 0.20296 0.81081 0.71954 0.0
H558 H 0.27023 0.80019 0.27768 0.0
H559 H 0.27823 0.77345 0.59218 0.0
H560 H 0.28685 0.83027 0.62683 0.0
C561 C 0.22927 0.41572 0.61491 0.0
C562 C 0.22851 0.41242 0.69222 0.0
N563 N 0.24343 0.42768 0.72556 0.0
N564 N 0.24461 0.43297 0.59931 0.0
C565 C 0.25306 0.43984 0.66783 0.0
H566 H 0.21872 0.40655 0.57338 0.0
Co567 Co 0.24962 0.4453 0.50522 0.0
C568 C 0.29161 0.47435 0.50544 0.0
O569 O 0.28922 0.48459 0.45303 0.0
N570 N 0.25409 0.45768 0.4074 0.0
C571 C 0.25333 0.47531 0.31052 0.0
C572 C 0.2515 0.47251 0.38797 0.0
C573 C 0.25804 0.45218 0.33956 0.0
N574 N 0.25722 0.46236 0.27988 0.0
O575 O 0.25151 0.42445 0.45993 0.0
H576 H 0.24805 0.48078 0.42653 0.0
H577 H 0.26052 0.44028 0.33276 0.0
O578 O 0.27717 0.45886 0.52955 0.0
C579 C 0.23609 0.41277 0.42501 0.0
O580 O 0.22207 0.41663 0.42231 0.0
N581 N 0.24551 0.4641 0.55064 0.0
C582 C 0.23274 0.48807 0.60786 0.0
C583 C 0.25168 0.49232 0.62042 0.0
C584 C 0.25787 0.48014 0.591 0.0
C585 C 0.22682 0.45929 0.54182 0.0
C586 C 0.22022 0.47123 0.56865 0.0
H587 H 0.27243 0.4836 0.60159 0.0
H588 H 0.21711 0.44628 0.51153 0.0
H589 H 0.26527 0.45404 0.67601 0.0
H590 H 0.21739 0.40008 0.72189 0.0
H591 H 0.25133 0.48572 0.2789 0.0
H592 H 0.26166 0.5051 0.65149 0.0
H593 H 0.20541 0.46731 0.55902 0.0
H594 H 0.16464 0.26996 0.42856 0.0
H595 H 0.14666 0.21156 0.48959 0.0
H596 H 0.17049 0.27928 0.56254 0.0
H597 H 0.15193 0.22071 0.62472 0.0
H598 H 0.17759 0.24797 0.85698 0.0
H599 H 0.17734 0.24074 0.72158 0.0
H600 H 0.14838 0.27229 0.67132 0.0
H601 H 0.14821 0.2792 0.80586 0.0
C602 C 0.1624 0.25922 0.47055 0.0
C603 C 0.15541 0.24009 0.44866 0.0
C604 C 0.16547 0.26449 0.54738 0.0
C605 C 0.16159 0.25071 0.60411 0.0
C606 C 0.1552 0.23167 0.58216 0.0
C607 C 0.15205 0.22639 0.50509 0.0
C608 C 0.17112 0.25335 0.81727 0.0
C609 C 0.1628 0.2641 0.84301 0.0
C610 C 0.17103 0.24922 0.73963 0.0
C611 C 0.16284 0.25594 0.68595 0.0
C612 C 0.15505 0.26714 0.71123 0.0
C613 C 0.15499 0.27113 0.78871 0.0
H614 H 0.80013 0.94698 0.52585 0.0
H615 H 0.7753 0.88706 0.46599 0.0
H616 H 0.79284 0.93836 0.65821 0.0
H617 H 0.76702 0.87846 0.59881 0.0
H618 H 0.77769 0.87262 0.85278 0.0
H619 H 0.78191 0.87957 0.71687 0.0
H620 H 0.768 0.9244 0.74954 0.0
H621 H 0.76433 0.91768 0.88636 0.0
C622 C 0.79302 0.93194 0.54006 0.0
C623 C 0.78848 0.9178 0.48373 0.0
C624 C 0.78856 0.92697 0.61668 0.0
C625 C 0.77926 0.9077 0.63957 0.0
C626 C 0.77441 0.89349 0.5835 0.0
C627 C 0.77903 0.89846 0.50673 0.0
C628 C 0.77524 0.88376 0.83077 0.0
C629 C 0.7707 0.89463 0.88026 0.0
C630 C 0.77763 0.88774 0.75266 0.0
C631 C 0.77537 0.9026 0.72194 0.0
C632 C 0.77024 0.9131 0.7713 0.0
C633 C 0.76805 0.90923 0.84963 0.0
H634 H 0.1124 0.86212 0.87342 0.0
H635 H 0.16635 0.91455 0.84374 0.0
H636 H 0.10554 0.86196 0.73795 0.0
H637 H 0.15944 0.91453 0.70796 0.0
H638 H 0.14761 0.89539 0.45424 0.0
H639 H 0.1559 0.89737 0.58925 0.0
H640 H 0.09734 0.87971 0.64959 0.0
H641 H 0.08909 0.87752 0.51447 0.0
C642 C 0.12276 0.87366 0.83793 0.0
C643 C 0.13986 0.88839 0.86936 0.0
C644 C 0.11881 0.87362 0.76034 0.0
C645 C 0.13184 0.88836 0.71227 0.0
C646 C 0.14917 0.90288 0.74331 0.0
C647 C 0.15315 0.90288 0.82106 0.0
C648 C 0.13662 0.89231 0.49639 0.0
C649 C 0.11768 0.88628 0.47395 0.0
C650 C 0.14135 0.89339 0.57378 0.0
C651 C 0.12723 0.88849 0.6302 0.0
C652 C 0.10846 0.88315 0.60756 0.0
C653 C 0.10374 0.882 0.53032 0.0
H654 H 0.24824 0.16501 0.56206 0.0
H655 H 0.2496 0.11266 0.52855 0.0
H656 H 0.25608 0.17299 0.42638 0.0
H657 H 0.2573 0.12053 0.39438 0.0
H658 H 0.29451 0.15217 0.19024 0.0
H659 H 0.28654 0.14669 0.3253 0.0
H660 H 0.24073 0.15899 0.29138 0.0
H661 H 0.24883 0.16464 0.15501 0.0
C662 C 0.25015 0.15522 0.52573 0.0
C663 C 0.2482 0.13817 0.5559 0.0
C664 C 0.25451 0.15972 0.44822 0.0
C665 C 0.25737 0.14741 0.40002 0.0
C666 C 0.25532 0.13035 0.43027 0.0
C667 C 0.25071 0.12575 0.50704 0.0
C668 C 0.28293 0.15402 0.21148 0.0
C669 C 0.27231 0.15887 0.16177 0.0
C670 C 0.27826 0.1507 0.28882 0.0
C671 C 0.26295 0.15231 0.31874 0.0
C672 C 0.25264 0.15772 0.26981 0.0
C673 C 0.25718 0.16081 0.19185 0.0
H674 H 0.89966 0.13569 0.53233 0.0
H675 H 0.88302 0.07755 0.47081 0.0
H676 H 0.90113 0.14393 0.39745 0.0
H677 H 0.88461 0.08574 0.33593 0.0
H678 H 0.86588 0.1002 0.11341 0.0
H679 H 0.86603 0.09351 0.24892 0.0
H680 H 0.91838 0.14767 0.27802 0.0
H681 H 0.91817 0.15437 0.14232 0.0
C682 C 0.89674 0.12478 0.48995 0.0
C683 C 0.8912 0.10595 0.51201 0.0
C684 C 0.8975 0.12948 0.41266 0.0
C685 C 0.89276 0.11543 0.356 0.0
C686 C 0.88792 0.09679 0.37821 0.0
C687 C 0.88711 0.09211 0.45531 0.0
C688 C 0.87743 0.11066 0.14869 0.0
C689 C 0.89204 0.12776 0.11699 0.0
C690 C 0.87757 0.10681 0.2263 0.0
C691 C 0.89235 0.11997 0.27409 0.0
C692 C 0.90672 0.13731 0.24285 0.0
C693 C 0.90656 0.14117 0.1651 0.0
H694 H 0.93961 0.79638 0.16471 0.0
H695 H 0.9083 0.73631 0.22465 0.0
H696 H 0.9457 0.80476 0.29888 0.0
H697 H 0.91324 0.74475 0.35873 0.0
H698 H 0.93047 0.7627 0.5985 0.0
H699 H 0.93381 0.75701 0.46472 0.0
H700 H 0.92769 0.80557 0.40269 0.0
H701 H 0.92568 0.812 0.53641 0.0
C702 C 0.93414 0.7849 0.20606 0.0
C703 C 0.92313 0.76561 0.18321 0.0
C704 C 0.93746 0.78975 0.28346 0.0
C705 C 0.92971 0.77548 0.34009 0.0
C706 C 0.91956 0.75618 0.31708 0.0
C707 C 0.91644 0.75132 0.23977 0.0
C708 C 0.93032 0.77247 0.55672 0.0
C709 C 0.92749 0.78766 0.57876 0.0
C710 C 0.932 0.76905 0.47957 0.0
C711 C 0.93074 0.78064 0.42242 0.0
C712 C 0.92888 0.79639 0.44476 0.0
C713 C 0.92741 0.79992 0.52181 0.0
H714 H 0.80494 0.60523 0.13478 0.0
H715 H 0.85742 0.60366 0.16104 0.0
H716 H 0.80399 0.59769 -6e-05 0.0
H717 H 0.8564 0.59596 0.02437 0.0
H718 H 0.85317 0.60308 0.75306 0.0
H719 H 0.85722 0.61192 0.88899 0.0
H720 H 0.79901 0.56726 0.93206 0.0
H721 H 0.79495 0.55856 0.79748 0.0
C722 C 0.81647 0.60358 0.11149 0.0
C723 C 0.83135 0.60518 0.1585 0.0
C724 C 0.8158 0.59907 0.03433 0.0
C725 C 0.83007 0.59617 0.0019 0.0
C726 C 0.84527 0.59821 0.04808 0.0
C727 C 0.8458 0.60249 0.12605 0.0
C728 C 0.8413 0.59518 0.79179 0.0
C729 C 0.82375 0.58012 0.76459 0.0
C730 C 0.84367 0.60013 0.86943 0.0
C731 C 0.8284 0.5903 0.92076 0.0
C732 C 0.81098 0.57514 0.8936 0.0
C733 C 0.8087 0.57007 0.81659 0.0
H734 H 0.41474 0.20232 0.13781 0.0
H735 H 0.45953 0.26048 0.18346 0.0
H736 H 0.41988 0.20848 0.00062 0.0
H737 H 0.46431 0.26658 0.04765 0.0
H738 H 0.45452 0.27722 0.80358 0.0
H739 H 0.44673 0.26926 0.93711 0.0
H740 H 0.44582 0.21578 0.90265 0.0
H741 H 0.45391 0.22389 0.76776 0.0
C742 C 0.42562 0.2164 0.11886 0.0
C743 C 0.4366 0.23091 0.17209 0.0
C744 C 0.42856 0.2199 0.04032 0.0
C745 C 0.44244 0.23803 0.01347 0.0
C746 C 0.45327 0.25255 0.06656 0.0
C747 C 0.45043 0.24905 0.14474 0.0
C748 C 0.45291 0.26385 0.82421 0.0
C749 C 0.45524 0.25136 0.77507 0.0
C750 C 0.44832 0.25925 0.90087 0.0
C751 C 0.44587 0.24201 0.93054 0.0
C752 C 0.44754 0.22915 0.88118 0.0
C753 C 0.4522 0.2338 0.8041 0.0
H754 H 0.77107 0.23587 0.8351 0.0
H755 H 0.79824 0.20272 0.78546 0.0
H756 H 0.76998 0.22817 0.97049 0.0
H757 H 0.79852 0.19599 0.92063 0.0
H758 H 0.7889 0.17818 0.16677 0.0
H759 H 0.78308 0.18075 0.03143 0.0
H760 H 0.79024 0.23691 0.07353 0.0
H761 H 0.79475 0.23353 0.20855 0.0
C762 C 0.77676 0.22689 0.85361 0.0
C763 C 0.78471 0.21986 0.80042 0.0
C764 C 0.77635 0.2226 0.93113 0.0
C765 C 0.78442 0.21165 0.95735 0.0
C766 C 0.79187 0.20418 0.90317 0.0
C767 C 0.79181 0.20808 0.82554 0.0
C768 C 0.78901 0.19092 0.14651 0.0
C769 C 0.79218 0.20562 0.19759 0.0
C770 C 0.7858 0.19251 0.06903 0.0
C771 C 0.7862 0.20908 0.04078 0.0
C772 C 0.78931 0.22371 0.09272 0.0
C773 C 0.79205 0.22189 0.17023 0.0
H774 H 0.91802 0.50837 0.8458 0.0
H775 H 0.93855 0.46882 0.88262 0.0
H776 H 0.92701 0.51109 0.71179 0.0
H777 H 0.94709 0.47099 0.74764 0.0
H778 H 0.97203 0.48832 0.50959 0.0
H779 H 0.9676 0.49036 0.64674 0.0
H780 H 0.9157 0.49198 0.60076 0.0
H781 H 0.92042 0.49039 0.46476 0.0
C782 C 0.92436 0.50016 0.82492 0.0
C783 C 0.92737 0.4882 0.87429 0.0
C784 C 0.9295 0.50169 0.74809 0.0
C785 C 0.93757 0.49109 0.71844 0.0
C786 C 0.94111 0.47954 0.76852 0.0
C787 C 0.93616 0.4782 0.84578 0.0
C788 C 0.95981 0.4893 0.52914 0.0
C789 C 0.94665 0.4893 0.47643 0.0
C790 C 0.9572 0.49037 0.60761 0.0
C791 C 0.94127 0.4913 0.63504 0.0
C792 C 0.92834 0.49168 0.58194 0.0
C793 C 0.93105 0.49077 0.5037 0.0
H794 H 0.55682 0.4761 0.89582 0.0
H795 H 0.54404 0.41877 0.83782 0.0
H796 H 0.55315 0.48206 0.76246 0.0
H797 H 0.54121 0.42506 0.70397 0.0
H798 H 0.5239 0.43784 0.47341 0.0
H799 H 0.52231 0.43105 0.61015 0.0
H800 H 0.57184 0.48694 0.64803 0.0
H801 H 0.57348 0.49366 0.51288 0.0
C802 C 0.5531 0.4647 0.85495 0.0
C803 C 0.55093 0.447 0.8778 0.0
C804 C 0.55117 0.46819 0.77823 0.0
C805 C 0.54704 0.45409 0.72242 0.0
C806 C 0.54426 0.43619 0.74551 0.0
C807 C 0.54617 0.43269 0.82225 0.0
C808 C 0.53439 0.44867 0.51103 0.0
C809 C 0.54876 0.46631 0.48177 0.0
C810 C 0.53349 0.44479 0.58934 0.0
C811 C 0.54693 0.45847 0.64005 0.0
C812 C 0.56103 0.47621 0.61092 0.0
C813 C 0.56194 0.48008 0.53298 0.0
H814 H 0.60059 0.09829 0.50044 0.0
H815 H 0.54397 0.09044 0.53493 0.0
H816 H 0.60709 0.10431 0.63654 0.0
H817 H 0.55042 0.09614 0.67101 0.0
H818 H 0.56487 0.09068 0.9234 0.0
H819 H 0.55691 0.08264 0.78879 0.0
H820 H 0.61178 0.13056 0.72456 0.0
H821 H 0.61962 0.13878 0.85861 0.0
C822 C 0.58951 0.09781 0.53679 0.0
C823 C 0.57182 0.09404 0.50615 0.0
C824 C 0.59324 0.10125 0.61486 0.0
C825 C 0.57932 0.10086 0.66431 0.0
C826 C 0.56138 0.09639 0.63439 0.0
C827 C 0.55768 0.09307 0.5562 0.0
C828 C 0.57511 0.09968 0.88063 0.0
C829 C 0.59292 0.11537 0.90189 0.0
C830 C 0.57058 0.095 0.80351 0.0
C831 C 0.58381 0.10585 0.74621 0.0
C832 C 0.60145 0.12169 0.76747 0.0
C833 C 0.60593 0.12642 0.84428 0.0
H834 H 0.51671 0.9369 0.53199 0.0
H835 H 0.45698 0.91991 0.50805 0.0
H836 H 0.51809 0.9308 0.39501 0.0
H837 H 0.45826 0.9136 0.3724 0.0
H838 H 0.46414 0.88099 0.16499 0.0
H839 H 0.46476 0.88823 0.30098 0.0
H840 H 0.51238 0.94517 0.26244 0.0
H841 H 0.51159 0.93797 0.1256 0.0
C842 C 0.50395 0.93191 0.49734 0.0
C843 C 0.48679 0.929 0.53024 0.0
C844 C 0.50474 0.92852 0.4193 0.0
C845 C 0.48826 0.92172 0.37357 0.0
C846 C 0.47113 0.91878 0.40659 0.0
C847 C 0.47045 0.92253 0.48395 0.0
C848 C 0.47483 0.89498 0.18569 0.0
C849 C 0.48781 0.90893 0.13498 0.0
C850 C 0.47511 0.89915 0.26323 0.0
C851 C 0.48861 0.91724 0.29185 0.0
C852 C 0.5019 0.93109 0.24161 0.0
C853 C 0.50136 0.92704 0.16358 0.0
H854 H 0.12617 0.59948 0.53033 0.0
H855 H 0.08549 0.54002 0.48201 0.0
H856 H 0.13115 0.60597 0.39489 0.0
H857 H 0.09138 0.54638 0.34585 0.0
H858 H 0.0966 0.5689 0.09974 0.0
H859 H 0.08795 0.56227 0.23478 0.0
H860 H 0.14739 0.59906 0.29704 0.0
H861 H 0.15581 0.60584 0.1629 0.0
C862 C 0.11808 0.58777 0.49118 0.0
C863 C 0.10553 0.56912 0.51783 0.0
C864 C 0.12119 0.59147 0.41309 0.0
C865 C 0.11197 0.57663 0.35937 0.0
C866 C 0.09873 0.55817 0.38558 0.0
C867 C 0.09551 0.55447 0.46385 0.0
C868 C 0.10778 0.5754 0.14248 0.0
C869 C 0.12687 0.58796 0.12093 0.0
C870 C 0.10284 0.57164 0.21978 0.0
C871 C 0.11694 0.58032 0.27692 0.0
C872 C 0.13607 0.59254 0.25484 0.0
C873 C 0.14095 0.59637 0.17792 0.0
H874 H 0.48165 0.52894 0.44887 0.0
H875 H 0.43309 0.53533 0.50841 0.0
H876 H 0.47456 0.5293 0.31457 0.0
H877 H 0.42525 0.53442 0.37406 0.0
H878 H 0.4376 0.56378 0.13829 0.0
H879 H 0.43838 0.5563 0.27176 0.0
H880 H 0.45452 0.51449 0.20804 0.0
H881 H 0.45499 0.5229 0.07464 0.0
C882 C 0.4693 0.53015 0.43351 0.0
C883 C 0.45824 0.53253 0.4899 0.0
C884 C 0.46503 0.53006 0.3562 0.0
C885 C 0.44943 0.53211 0.33315 0.0
C886 C 0.43761 0.53321 0.38964 0.0
C887 C 0.442 0.53349 0.46704 0.0
C888 C 0.44134 0.553 0.15252 0.0
C889 C 0.44658 0.54425 0.09532 0.0
C890 C 0.44149 0.54847 0.22932 0.0
C891 C 0.44667 0.53488 0.25103 0.0
C892 C 0.4508 0.52528 0.19357 0.0
C893 C 0.45083 0.52996 0.11669 0.0
H894 H 0.55678 0.80259 0.16085 0.0
H895 H 0.61666 0.83361 0.22386 0.0
H896 H 0.56556 0.80556 0.02702 0.0
H897 H 0.62553 0.83657 0.08881 0.0
H898 H 0.62961 0.81534 0.84296 0.0
H899 H 0.62404 0.8164 0.97944 0.0
H900 H 0.57977 0.83008 0.92884 0.0
H901 H 0.58472 0.82823 0.79324 0.0
C902 C 0.57184 0.81024 0.14613 0.0
C903 C 0.586 0.81798 0.20316 0.0
C904 C 0.57689 0.81198 0.06925 0.0
C905 C 0.59624 0.82152 0.04717 0.0
C906 C 0.61048 0.82907 0.10407 0.0
C907 C 0.60541 0.82733 0.18138 0.0
C908 C 0.61875 0.81865 0.86099 0.0
C909 C 0.60747 0.82145 0.80682 0.0
C910 C 0.61569 0.81944 0.93922 0.0
C911 C 0.60127 0.82305 0.9649 0.0
C912 C 0.59075 0.8269 0.91084 0.0
C913 C 0.59378 0.82609 0.83283 0.0
H914 H 0.20781 0.75736 0.20451 0.0
H915 H 0.26017 0.81116 0.17136 0.0
H916 H 0.19978 0.75723 0.06879 0.0
H917 H 0.25226 0.81099 0.03724 0.0
H918 H 0.22076 0.81663 0.83326 0.0
H919 H 0.22597 0.81399 0.96848 0.0
H920 H 0.21396 0.75602 0.93373 0.0
H921 H 0.20856 0.7586 0.79719 0.0
C922 C 0.21759 0.76908 0.16826 0.0
C923 C 0.23466 0.7842 0.19849 0.0
C924 C 0.21306 0.76895 0.09076 0.0
C925 C 0.22537 0.78415 0.04271 0.0
C926 C 0.24244 0.79917 0.07304 0.0
C927 C 0.24706 0.79916 0.14977 0.0
C928 C 0.2189 0.80319 0.85434 0.0
C929 C 0.21423 0.78781 0.80435 0.0
C930 C 0.22206 0.80175 0.93178 0.0
C931 C 0.22048 0.78485 0.96147 0.0
C932 C 0.21521 0.76919 0.91229 0.0
C933 C 0.21226 0.77072 0.83425 0.0
H934 H 0.21617 0.41596 0.8348 0.0
H935 H 0.27736 0.44867 0.7993 0.0
H936 H 0.22079 0.4243 0.96988 0.0
H937 H 0.282 0.45707 0.93568 0.0
H938 H 0.27759 0.44849 0.2076 0.0
H939 H 0.27536 0.4396 0.07194 0.0
H940 H 0.23332 0.45709 0.03668 0.0
H941 H 0.23554 0.46591 0.17078 0.0
C942 C 0.23064 0.42468 0.85605 0.0
C943 C 0.24641 0.43164 0.80631 0.0
C944 C 0.23327 0.42959 0.93333 0.0
C945 C 0.25173 0.44139 0.96307 0.0
C946 C 0.26761 0.44789 0.91415 0.0
C947 C 0.26496 0.4432 0.83625 0.0
C948 C 0.26797 0.45049 0.17055 0.0
C949 C 0.25682 0.45799 0.19977 0.0
C950 C 0.26677 0.44551 0.0931 0.0
C951 C 0.2541 0.44759 0.04409 0.0
C952 C 0.24311 0.45522 0.07329 0.0
C953 C 0.24453 0.46045 0.14998 0.0
H954 H 0.2498 0.38879 0.46476 0.0
H955 H 0.21668 0.39799 0.29373 0.0
H956 H 0.24085 0.35765 0.40611 0.0
H957 H 0.20795 0.36734 0.23528 0.0
H958 H 0.19812 0.31477 0.12126 0.0
H959 H 0.21891 0.34761 0.16709 0.0
H960 H 0.20881 0.32705 0.39965 0.0
H961 H 0.18822 0.2944 0.35325 0.0
C962 C 0.24103 0.38437 0.41364 0.0
C963 C 0.23379 0.39568 0.3841 0.0
C964 C 0.23584 0.36655 0.38031 0.0
C965 C 0.22368 0.36 0.31597 0.0
C966 C 0.21751 0.37198 0.28406 0.0
C967 C 0.22238 0.38951 0.31801 0.0
C968 C 0.20104 0.31726 0.18187 0.0
C969 C 0.19176 0.30213 0.23386 0.0
C970 C 0.21277 0.33604 0.20824 0.0
C971 C 0.21539 0.33999 0.28713 0.0
C972 C 0.20729 0.32454 0.33861 0.0
C973 C 0.19545 0.30582 0.31216 0.0
H974 H 0.74536 0.91824 0.32836 0.0
H975 H 0.71289 0.8761 0.15598 0.0
H976 H 0.71542 0.91054 0.39432 0.0
H977 H 0.68307 0.86875 0.2201 0.0
H978 H 0.66392 0.85686 0.52912 0.0
H979 H 0.69351 0.87796 0.46062 0.0
H980 H 0.66041 0.88034 0.27133 0.0
H981 H 0.6307 0.85953 0.3415 0.0
C982 C 0.73178 0.90801 0.30272 0.0
C983 C 0.73133 0.89787 0.23684 0.0
C984 C 0.71468 0.9035 0.34068 0.0
C985 C 0.69689 0.88903 0.31238 0.0
C986 C 0.69648 0.88012 0.24283 0.0
C987 C 0.71355 0.88431 0.20607 0.0
C988 C 0.66304 0.86265 0.47441 0.0
C989 C 0.64512 0.85682 0.44088 0.0
C990 C 0.67996 0.87473 0.4351 0.0
C991 C 0.67931 0.88079 0.36047 0.0
C992 C 0.66135 0.87594 0.32885 0.0
C993 C 0.64438 0.86418 0.36913 0.0
H994 H 0.20923 0.81776 0.28125 0.0
H995 H 0.17111 0.78854 0.46933 0.0
H996 H 0.18654 0.82666 0.2307 0.0
H997 H 0.14838 0.79781 0.41935 0.0
H998 H 0.14237 0.85366 0.37476 0.0
H999 H 0.15415 0.83232 0.41344 0.0
H1000 H 0.15246 0.81521 0.17857 0.0
H1001 H 0.14016 0.83642 0.14012 0.0
C1002 C 0.19575 0.81287 0.31077 0.0
C1003 C 0.19194 0.80256 0.37934 0.0
C1004 C 0.18269 0.81784 0.28153 0.0
C1005 C 0.16569 0.81297 0.3211 0.0
C1006 C 0.16138 0.80175 0.38766 0.0
C1007 C 0.17431 0.79638 0.41608 0.0
C1008 C 0.14386 0.8448 0.33182 0.0
C1009 C 0.14034 0.84659 0.2546 0.0
C1010 C 0.15054 0.83253 0.35396 0.0
C1011 C 0.15429 0.82213 0.29904 0.0
C1012 C 0.14969 0.82307 0.2221 0.0
C1013 C 0.14255 0.83507 0.20012 0.0
H1014 H 0.40832 0.23809 0.66728 0.0
H1015 H 0.3835 0.22078 0.44302 0.0
H1016 H 0.37636 0.22592 0.72207 0.0
H1017 H 0.35144 0.20864 0.49724 0.0
H1018 H 0.30574 0.15787 0.64611 0.0
H1019 H 0.33491 0.17952 0.57783 0.0
H1020 H 0.3446 0.22536 0.73203 0.0
H1021 H 0.31492 0.2034 0.80069 0.0
C1022 C 0.39603 0.23249 0.6294 0.0
C1023 C 0.39826 0.23058 0.55101 0.0
C1024 C 0.37773 0.22549 0.66068 0.0
C1025 C 0.36134 0.21614 0.6141 0.0
C1026 C 0.36378 0.21564 0.53465 0.0
C1027 C 0.3821 0.22275 0.50342 0.0
C1028 C 0.31391 0.17265 0.66475 0.0
C1029 C 0.30818 0.17893 0.72905 0.0
C1030 C 0.33055 0.18514 0.62511 0.0
C1031 C 0.34209 0.2042 0.64934 0.0
C1032 C 0.336 0.21074 0.71208 0.0
C1033 C 0.31902 0.19824 0.75114 0.0
H1034 H 0.84075 0.12701 0.84557 0.0
H1035 H 0.85853 0.13066 0.61105 0.0
H1036 H 0.81975 0.13969 0.80889 0.0
H1037 H 0.83738 0.14282 0.57408 0.0
H1038 H 0.79434 0.16108 0.52155 0.0
H1039 H 0.80291 0.13757 0.56839 0.0
H1040 H 0.83205 0.17428 0.76076 0.0
H1041 H 0.82393 0.19775 0.7132 0.0
C1042 C 0.83954 0.12977 0.78588 0.0
C1043 C 0.85118 0.12789 0.73102 0.0
C1044 C 0.82765 0.13712 0.76492 0.0
C1045 C 0.82695 0.14228 0.6886 0.0
C1046 C 0.83742 0.13879 0.63308 0.0
C1047 C 0.84957 0.1319 0.65425 0.0
C1048 C 0.80209 0.16379 0.57492 0.0
C1049 C 0.80858 0.18123 0.61361 0.0
C1050 C 0.80705 0.15041 0.60156 0.0
C1051 C 0.81814 0.15409 0.66829 0.0
C1052 C 0.82331 0.1709 0.70977 0.0
C1053 C 0.81877 0.18441 0.68226 0.0
H1054 H 0.88047 0.70285 0.84602 0.0
H1055 H 0.9276 0.73958 0.69888 0.0
H1056 H 0.8747 0.67501 0.77038 0.0
H1057 H 0.92125 0.71165 0.62035 0.0
H1058 H 0.87076 0.62631 0.63681 0.0
H1059 H 0.89025 0.65455 0.71685 0.0
H1060 H 0.88834 0.69096 0.54073 0.0
H1061 H 0.8682 0.66276 0.46277 0.0
C1062 C 0.88989 0.70486 0.79844 0.0
C1063 C 0.90444 0.7233 0.77804 0.0
C1064 C 0.88666 0.68892 0.75538 0.0
C1065 C 0.89755 0.69116 0.68961 0.0
C1066 C 0.91274 0.70953 0.67113 0.0
C1067 C 0.91637 0.72547 0.7159 0.0
C1068 C 0.87515 0.6404 0.61413 0.0
C1069 C 0.86797 0.64241 0.54379 0.0
C1070 C 0.88624 0.65654 0.65998 0.0
C1071 C 0.89075 0.67492 0.63501 0.0
C1072 C 0.88527 0.67702 0.56113 0.0
C1073 C 0.87376 0.66089 0.51645 0.0
H1074 H 1.00391 0.52389 0.18826 0.0
H1075 H 0.96883 0.52953 0.01596 0.0
H1076 H 0.03274 0.54557 0.11687 0.0
H1077 H 0.99779 0.55101 0.94283 0.0
H1078 H 0.08328 0.58719 0.98274 0.0
H1079 H 0.05423 0.57877 0.05689 0.0
H1080 H 1.01954 0.54028 0.87717 0.0
H1081 H 0.04849 0.54837 0.80463 0.0
C1082 C 1.00247 0.5304 0.13642 0.0
C1083 C 0.98423 0.52524 0.10791 0.0
C1084 C 1.01897 0.54283 0.0955 0.0
C1085 C 1.01755 0.54998 0.02408 0.0
C1086 C 0.99931 0.54576 0.9978 0.0
C1087 C 0.98277 0.53362 0.03983 0.0
C1088 C 0.06937 0.5776 0.95791 0.0
C1089 C 0.06802 0.56857 0.88774 0.0
C1090 C 0.05277 0.57264 0.00052 0.0
C1091 C 0.03459 0.55885 0.97288 0.0
C1092 C 0.03327 0.55113 0.89964 0.0
C1093 C 0.04983 0.55575 0.85803 0.0
H1094 H 0.44831 0.49823 0.95765 0.0
H1095 H 0.49607 0.51125 0.80958 0.0
H1096 H 0.45538 0.47668 0.03217 0.0
H1097 H 0.50265 0.4893 0.88151 0.0
H1098 H 0.50761 0.4812 0.19166 0.0
H1099 H 0.48684 0.48841 0.11394 0.0
H1100 H 0.48994 0.45437 0.93015 0.0
H1101 H 0.51035 0.4467 0.00934 0.0
C1102 C 0.45984 0.49594 0.93936 0.0
C1103 C 0.47176 0.50648 0.87828 0.0
C1104 C 0.4639 0.48364 0.982 0.0
C1105 C 0.47955 0.48128 0.96256 0.0
C1106 C 0.49036 0.49061 0.89738 0.0
C1107 C 0.48665 0.50325 0.85636 0.0
C1108 C 0.50301 0.47446 0.13615 0.0
C1109 C 0.51037 0.46325 0.10667 0.0
C1110 C 0.49114 0.47859 0.09157 0.0
C1111 C 0.48685 0.47203 0.01582 0.0
C1112 C 0.49299 0.45956 0.98843 0.0
C1113 C 0.50453 0.45505 0.03387 0.0
H1114 H 0.55874 0.03824 0.21294 0.0
H1115 H 0.58781 0.07272 0.01642 0.0
H1116 H 0.5487 1.00909 0.13794 0.0
H1117 H 0.57763 0.04361 0.94065 0.0
H1118 H 0.53485 0.95858 0.98351 0.0
H1119 H 0.55718 0.98785 0.05371 0.0
H1120 H 0.54281 0.02117 0.90295 0.0
H1121 H 0.52036 0.99208 0.83483 0.0
C1122 C 0.56375 0.03952 0.15467 0.0
C1123 C 0.57434 0.05762 0.12069 0.0
C1124 C 0.55797 0.02285 0.11158 0.0
C1125 C 0.5623 0.02405 0.03324 0.0
C1126 C 0.57409 0.04224 0.00084 0.0
C1127 C 0.58008 0.05888 0.04428 0.0
C1128 C 0.537 0.97229 0.96416 0.0
C1129 C 0.52601 0.97317 0.90366 0.0
C1130 C 0.54964 0.98898 0.00454 0.0
C1131 C 0.5518 1.00683 0.98372 0.0
C1132 C 0.54171 1.00773 0.91982 0.0
C1133 C 0.5288 0.99107 0.88089 0.0
H1134 H 0.19941 0.2399 0.05844 0.0
H1135 H 0.15311 0.18175 0.08915 0.0
H1136 H 0.2177 0.22777 0.98879 0.0
H1137 H 0.1711 0.1699 0.01871 0.0
H1138 H 0.19857 0.15975 0.80681 0.0
H1139 H 0.18308 0.17495 0.87328 0.0
H1140 H 0.23162 0.20337 0.02487 0.0
H1141 H 0.24716 0.18782 0.95926 0.0
C1142 C 0.19316 0.2246 0.05042 0.0
C1143 C 0.17484 0.2118 0.07955 0.0
C1144 C 0.20363 0.21769 0.01085 0.0
C1145 C 0.19573 0.19792 0.99824 0.0
C1146 C 0.17745 0.18521 0.02725 0.0
C1147 C 0.16721 0.19203 0.06794 0.0
C1148 C 0.20609 0.16936 0.85378 0.0
C1149 C 0.22408 0.17249 0.87791 0.0
C1150 C 0.19717 0.17802 0.89189 0.0
C1151 C 0.20616 0.19028 0.95416 0.0
C1152 C 0.22446 0.19405 0.97669 0.0
C1153 C 0.23328 0.18509 0.93934 0.0
H1154 H 0.79886 0.96316 0.05871 0.0
H1155 H 0.85587 0.97274 0.10058 0.0
H1156 H 0.81279 0.99415 0.99231 0.0
H1157 H 0.86955 1.00332 0.03536 0.0
H1158 H 0.88675 0.04409 0.83724 0.0
H1159 H 0.87024 1.01334 0.90107 0.0
H1160 H 0.83439 0.03067 0.01946 0.0
H1161 H 0.85105 0.06189 0.95451 0.0
C1162 C 0.8143 0.97181 0.05372 0.0
C1163 C 0.82624 0.96542 0.08477 0.0
C1164 C 0.82226 0.98959 0.01626 0.0
C1165 C 0.84227 1.00113 0.00832 0.0
C1166 C 0.85408 0.99469 0.03965 0.0
C1167 C 0.8462 0.97713 0.07737 0.0
C1168 C 0.87535 0.04148 0.87669 0.0
C1169 C 0.87036 0.05559 0.8911 0.0
C1170 C 0.86589 0.02379 0.91348 0.0
C1171 C 0.85112 0.01961 0.96583 0.0
C1172 C 0.84568 0.03346 0.97912 0.0
C1173 C 0.85528 0.05135 0.94229 0.0
H1174 H 0.97317 0.7906 0.96594 0.0
H1175 H 0.98693 0.84246 0.84347 0.0
H1176 H 1.00521 0.80681 0.02361 0.0
H1177 H 1.01869 0.85854 0.90154 0.0
H1178 H 0.05922 0.88565 0.10899 0.0
H1179 H 0.02904 0.86817 0.04012 0.0
H1180 H 0.04179 0.82346 0.98688 0.0
H1181 H 0.07244 0.84121 0.05565 0.0
C1182 C 0.98305 0.80537 0.95076 0.0
C1183 C 0.97741 0.81526 0.90039 0.0
C1184 C 1.00141 0.8146 0.9835 0.0
C1185 C 1.01439 0.83396 0.96735 0.0
C1186 C 1.00892 0.84366 0.91554 0.0
C1187 C 0.99072 0.8344 0.88214 0.0
C1188 C 0.05568 0.87212 0.08255 0.0
C1189 C 0.06823 0.8648 0.08797 0.0
C1190 C 0.03841 0.86216 0.04268 0.0
C1191 C 0.03308 0.84448 0.00798 0.0
C1192 C 0.04554 0.83704 0.01338 0.0
C1193 C 0.06308 0.84722 0.05237 0.0
H1194 H 0.91267 0.85355 0.99219 0.0
H1195 H 0.86101 0.80164 0.05676 0.0
H1196 H 0.89878 0.8724 0.03767 0.0
H1197 H 0.84647 0.82023 0.09452 0.0
H1198 H 0.82686 0.85632 0.20944 0.0
H1199 H 0.84426 0.83989 0.18175 0.0
H1200 H 0.87719 0.8823 0.01015 0.0
H1201 H 0.86125 0.89998 0.04401 0.0
C1202 C 0.89837 0.84608 0.01609 0.0
C1203 C 0.88802 0.82592 0.01994 0.0
C1204 C 0.89021 0.85695 0.04107 0.0
C1205 C 0.87132 0.848 0.06961 0.0
C1206 C 0.86111 0.82786 0.07426 0.0
C1207 C 0.86939 0.81705 0.05082 0.0
C1208 C 0.83817 0.86259 0.16734 0.0
C1209 C 0.84244 0.87965 0.12915 0.0
C1210 C 0.84797 0.85281 0.15006 0.0
C1211 C 0.86205 0.85943 0.09252 0.0
C1212 C 0.86661 0.87669 0.05529 0.0
C1213 C 0.85712 0.88672 0.07386 0.0
H1214 H 0.22168 0.07077 0.09645 0.0
H1215 H 0.18159 0.06158 0.91522 0.0
H1216 H 0.20214 0.03736 0.13501 0.0
H1217 H 0.16175 0.02822 0.95499 0.0
H1218 H 0.14911 0.96549 0.98238 0.0
H1219 H 0.16476 0.99938 0.95048 0.0
H1220 H 0.1713 1.01372 0.19038 0.0
H1221 H 0.1554 0.97972 0.22258 0.0
C1222 C 0.20858 0.06165 0.06532 0.0
C1223 C 0.20326 0.06882 0.00247 0.0
C1224 C 0.19728 0.04253 0.08787 0.0
C1225 C 0.1804 0.03006 0.04791 0.0
C1226 C 0.17477 0.03738 0.98649 0.0
C1227 C 0.18603 0.05656 0.96421 0.0
C1228 C 0.15347 0.97579 0.0285 0.0
C1229 C 0.15097 0.96978 0.10518 0.0
C1230 C 0.1625 0.99528 0.01011 0.0
C1231 C 0.16936 1.0093 0.06784 0.0
C1232 C 0.16644 1.00331 0.1445 0.0
C1233 C 0.15734 0.98381 0.16293 0.0
H1234 H 0.98518 0.13776 0.79463 0.0
H1235 H 0.96738 0.14709 0.01491 0.0
H1236 H 1.01846 0.15384 0.83817 0.0
H1237 H 1.00054 0.16413 0.05754 0.0
H1238 H 0.05975 0.18194 0.14072 0.0
H1239 H 0.02677 0.16242 0.09672 0.0
H1240 H 0.0449 0.18313 0.86656 0.0
H1241 H 0.078 0.2016 0.91075 0.0
C1242 C 0.98846 0.14334 0.85234 0.0
C1243 C 0.97372 0.14104 0.90161 0.0
C1244 C 1.00756 0.15272 0.87732 0.0
C1245 C 1.01243 0.16041 0.95172 0.0
C1246 C 0.99752 0.15807 0.00064 0.0
C1247 C 0.97843 0.14837 0.97614 0.0
C1248 C 0.0566 0.18212 0.08066 0.0
C1249 C 0.07137 0.19324 0.02911 0.0
C1250 C 0.03766 0.17107 0.05528 0.0
C1251 C 0.0329 0.17121 0.97786 0.0
C1252 C 0.04786 0.18227 0.92627 0.0
C1253 C 0.06687 0.19299 0.95152 0.0
H1254 H 0.86711 0.47694 0.32679 0.0
H1255 H 0.91452 0.52749 0.22798 0.0
H1256 H 0.85283 0.49567 0.36866 0.0
H1257 H 0.89978 0.54644 0.26846 0.0
H1258 H 0.86967 0.5741 0.41545 0.0
H1259 H 0.88866 0.55914 0.37784 0.0
H1260 H 0.83696 0.50938 0.2979 0.0
H1261 H 0.81828 0.52389 0.33656 0.0
C1262 C 0.87454 0.49214 0.31428 0.0
C1263 C 0.89178 0.50068 0.27309 0.0
C1264 C 0.86629 0.50289 0.33791 0.0
C1265 C 0.87487 0.52247 0.32009 0.0
C1266 C 0.89276 0.53137 0.2828 0.0
C1267 C 0.9012 0.52054 0.25964 0.0
C1268 C 0.8625 0.56005 0.38912 0.0
C1269 C 0.84244 0.55003 0.38027 0.0
C1270 C 0.87334 0.5515 0.36759 0.0
C1271 C 0.86426 0.53284 0.33668 0.0
C1272 C 0.84438 0.52347 0.32388 0.0
C1273 C 0.83364 0.53186 0.34572 0.0
H1274 H 0.56164 0.39909 0.33622 0.0
H1275 H 0.51215 0.39361 0.21768 0.0
H1276 H 0.54339 0.36588 0.37558 0.0
H1277 H 0.49375 0.35968 0.25516 0.0
H1278 H 0.46463 0.30248 0.40142 0.0
H1279 H 0.47942 0.336 0.35932 0.0
H1280 H 0.53213 0.3361 0.31251 0.0
H1281 H 0.51769 0.30327 0.35694 0.0
C1282 C 0.54677 0.39072 0.31859 0.0
C1283 C 0.5384 0.39888 0.27307 0.0
C1284 C 0.53632 0.37158 0.34063 0.0
C1285 C 0.51723 0.35987 0.31671 0.0
C1286 C 0.50845 0.36826 0.27432 0.0
C1287 C 0.51895 0.38766 0.25289 0.0
C1288 C 0.47929 0.30969 0.38107 0.0
C1289 C 0.49013 0.3004 0.38347 0.0
C1290 C 0.48777 0.32886 0.35701 0.0
C1291 C 0.50715 0.33895 0.33439 0.0
C1292 C 0.51741 0.32907 0.33208 0.0
C1293 C 0.50909 0.31016 0.35695 0.0
H1294 H 0.74032 0.17769 0.40075 0.0
H1295 H 0.7225 0.21003 0.54157 0.0
H1296 H 0.70817 0.16046 0.34411 0.0
H1297 H 0.69066 0.19294 0.48495 0.0
H1298 H 0.64779 0.17915 0.2881 0.0
H1299 H 0.67865 0.19328 0.3525 0.0
H1300 H 0.67239 0.13721 0.37914 0.0
H1301 H 0.64112 0.12285 0.31444 0.0
C1302 C 0.72955 0.18103 0.42006 0.0
C1303 C 0.73407 0.19535 0.4754 0.0
C1304 C 0.71112 0.17109 0.3879 0.0
C1305 C 0.69694 0.17544 0.4098 0.0
C1306 C 0.70135 0.18942 0.46631 0.0
C1307 C 0.71963 0.19918 0.4989 0.0
C1308 C 0.6529 0.16975 0.30777 0.0
C1309 C 0.64198 0.14985 0.29603 0.0
C1310 C 0.67057 0.17788 0.34508 0.0
C1311 C 0.67794 0.16637 0.37106 0.0
C1312 C 0.66709 0.14644 0.35937 0.0
C1313 C 0.64917 0.13822 0.32279 0.0
H1314 H 0.5276 0.14392 0.23201 0.0
H1315 H 0.58005 0.18728 0.33742 0.0
H1316 H 0.51172 0.16158 0.26916 0.0
H1317 H 0.56397 0.20486 0.37551 0.0
H1318 H 0.5213 0.21863 0.5005 0.0
H1319 H 0.53842 0.202 0.46264 0.0
H1320 H 0.51215 0.19137 0.23951 0.0
H1321 H 0.49471 0.20743 0.27781 0.0
C1322 C 0.53586 0.15736 0.26216 0.0
C1323 C 0.5552 0.16421 0.28109 0.0
C1324 C 0.5267 0.16747 0.28374 0.0
C1325 C 0.53657 0.18468 0.32517 0.0
C1326 C 0.55588 0.19154 0.34439 0.0
C1327 C 0.5651 0.18145 0.32248 0.0
C1328 C 0.51916 0.21269 0.44346 0.0
C1329 C 0.50666 0.21443 0.39219 0.0
C1330 C 0.5291 0.20332 0.42152 0.0
C1331 C 0.52664 0.19532 0.34805 0.0
C1332 C 0.51424 0.19719 0.29676 0.0
C1333 C 0.50441 0.20661 0.31849 0.0
H1334 H 0.80076 0.30243 0.39122 0.0
H1335 H 0.85 0.29886 0.31653 0.0
H1336 H 0.81552 0.33504 0.3427 0.0
H1337 H 0.86543 0.33179 0.27497 0.0
H1338 H 0.88616 0.38727 0.15672 0.0
H1339 H 0.86744 0.35357 0.18685 0.0
H1340 H 0.83903 0.36629 0.36786 0.0
H1341 H 0.85634 0.39984 0.3324 0.0
C1342 C 0.8147 0.30851 0.3644 0.0
C1343 C 0.82418 0.29788 0.35883 0.0
C1344 C 0.82336 0.32742 0.33756 0.0
C1345 C 0.84185 0.33636 0.30517 0.0
C1346 C 0.85111 0.32554 0.29835 0.0
C1347 C 0.84234 0.3066 0.32386 0.0
C1348 C 0.87558 0.38296 0.20161 0.0
C1349 C 0.873 0.39661 0.24208 0.0
C1350 C 0.86502 0.36348 0.2201 0.0
C1351 C 0.85181 0.35697 0.28089 0.0
C1352 C 0.84889 0.37054 0.32028 0.0
C1353 C 0.85917 0.38999 0.30073 0.0
H1354 H 0.73396 0.56269 0.4001 0.0
H1355 H 0.74139 0.5168 0.31134 0.0
H1356 H 0.70029 0.54513 0.364 0.0
H1357 H 0.70758 0.49928 0.27441 0.0
H1358 H 0.65028 0.48331 0.15243 0.0
H1359 H 0.6844 0.50064 0.18523 0.0
H1360 H 0.67096 0.51628 0.40287 0.0
H1361 H 0.63709 0.49952 0.3694 0.0
C1362 C 0.72839 0.54877 0.37352 0.0
C1363 C 0.74042 0.54111 0.35939 0.0
C1364 C 0.70905 0.53871 0.35264 0.0
C1365 C 0.70118 0.52073 0.31674 0.0
C1366 C 0.71323 0.51317 0.30133 0.0
C1367 C 0.73262 0.52323 0.3225 0.0
C1368 C 0.65464 0.49054 0.20709 0.0
C1369 C 0.64092 0.48998 0.2583 0.0
C1370 C 0.67417 0.50032 0.22618 0.0
C1371 C 0.68042 0.50989 0.29662 0.0
C1372 C 0.66668 0.50925 0.3478 0.0
C1373 C 0.6472 0.49943 0.32894 0.0
H1374 H 0.58274 0.85825 0.61499 0.0
H1375 H 0.52333 0.81348 0.60358 0.0
H1376 H 0.5729 0.88001 0.66934 0.0
H1377 H 0.51365 0.83496 0.65848 0.0
H1378 H 0.54767 0.90456 0.84621 0.0
H1379 H 0.55895 0.88472 0.78612 0.0
H1380 H 0.51171 0.86318 0.62676 0.0
H1381 H 0.50024 0.88278 0.68754 0.0
C1382 C 0.56762 0.85304 0.62407 0.0
C1383 C 0.55385 0.83412 0.60461 0.0
C1384 C 0.56198 0.86547 0.65553 0.0
C1385 C 0.54245 0.85928 0.66784 0.0
C1386 C 0.52877 0.84035 0.64853 0.0
C1387 C 0.53438 0.82796 0.61749 0.0
C1388 C 0.53971 0.89565 0.79814 0.0
C1389 C 0.52293 0.89516 0.77219 0.0
C1390 C 0.54627 0.88436 0.76336 0.0
C1391 C 0.5362 0.87226 0.70183 0.0
C1392 C 0.51965 0.87209 0.67483 0.0
C1393 C 0.51311 0.88341 0.70952 0.0
H1394 H 0.18925 0.73458 0.61502 0.0
H1395 H 0.20857 0.7117 0.43455 0.0
H1396 H 0.17339 0.70312 0.67721 0.0
H1397 H 0.19289 0.68054 0.49683 0.0
H1398 H 0.1884 0.63949 0.68967 0.0
H1399 H 0.20033 0.6696 0.62154 0.0
H1400 H 0.14621 0.66737 0.65584 0.0
H1401 H 0.13402 0.63679 0.72418 0.0
C1402 C 0.18998 0.72285 0.58824 0.0
C1403 C 0.20032 0.72575 0.52 0.0
C1404 C 0.18081 0.70482 0.62368 0.0
C1405 C 0.182 0.68941 0.59209 0.0
C1406 C 0.19189 0.6922 0.52292 0.0
C1407 C 0.20084 0.71009 0.48717 0.0
C1408 C 0.17896 0.64533 0.68269 0.0
C1409 C 0.16026 0.63575 0.71256 0.0
C1410 C 0.18579 0.66256 0.6432 0.0
C1411 C 0.1742 0.67084 0.63318 0.0
C1412 C 0.15547 0.66134 0.66303 0.0
C1413 C 0.14848 0.64382 0.70171 0.0
H1414 H 0.32217 0.51048 0.49236 0.0
H1415 H 0.30392 0.45647 0.60597 0.0
H1416 H 0.35258 0.52461 0.56045 0.0
H1417 H 0.33481 0.47076 0.67346 0.0
H1418 H 0.40362 0.50404 0.70319 0.0
H1419 H 0.37256 0.48718 0.63715 0.0
H1420 H 0.36053 0.53145 0.70632 0.0
H1421 H 0.39116 0.54808 0.77299 0.0
C1422 C 0.32469 0.50153 0.53128 0.0
C1423 C 0.31054 0.48231 0.54375 0.0
C1424 C 0.34211 0.50969 0.57052 0.0
C1425 C 0.346 0.49881 0.62242 0.0
C1426 C 0.33217 0.47944 0.6335 0.0
C1427 C 0.31451 0.4713 0.59505 0.0
C1428 C 0.39426 0.51007 0.70477 0.0
C1429 C 0.39991 0.52743 0.74329 0.0
C1430 C 0.37649 0.50038 0.66726 0.0
C1431 C 0.36422 0.50808 0.66638 0.0
C1432 C 0.36978 0.52528 0.70562 0.0
C1433 C 0.38731 0.53475 0.74406 0.0
H1434 H 0.19729 0.57347 0.66943 0.0
H1435 H 0.16436 0.52805 0.83082 0.0
H1436 H 0.21485 0.55735 0.63254 0.0
H1437 H 0.18276 0.51269 0.79644 0.0
H1438 H 0.23275 0.50037 0.7535 0.0
H1439 H 0.21861 0.51954 0.79786 0.0
H1440 H 0.20318 0.52401 0.56581 0.0
H1441 H 0.21689 0.50458 0.52202 0.0
C1442 C 0.19377 0.56014 0.6974 0.0
C1443 C 0.17916 0.55208 0.75286 0.0
C1444 C 0.20399 0.551 0.67653 0.0
C1445 C 0.20016 0.53379 0.71166 0.0
C1446 C 0.18615 0.52607 0.76907 0.0
C1447 C 0.17567 0.535 0.78898 0.0
C1448 C 0.22651 0.50566 0.71216 0.0
C1449 C 0.22586 0.50103 0.63446 0.0
C1450 C 0.21836 0.51651 0.73746 0.0
C1451 C 0.20984 0.52326 0.68519 0.0
C1452 C 0.20979 0.51913 0.60722 0.0
C1453 C 0.21754 0.50796 0.58223 0.0
H1454 H 0.46368 0.63008 0.67637 0.0
H1455 H 0.51874 0.63329 0.66119 0.0
H1456 H 0.4784 0.66342 0.63492 0.0
H1457 H 0.53353 0.66667 0.62421 0.0
H1458 H 0.55343 0.72112 0.49476 0.0
H1459 H 0.53626 0.68714 0.52316 0.0
H1460 H 0.4995 0.69551 0.67884 0.0
H1461 H 0.51596 0.72949 0.64658 0.0
C1462 C 0.47889 0.63784 0.66399 0.0
C1463 C 0.49001 0.62895 0.67267 0.0
C1464 C 0.48739 0.65706 0.64113 0.0
C1465 C 0.5072 0.66785 0.62627 0.0
C1466 C 0.51821 0.65884 0.63405 0.0
C1467 C 0.50974 0.63968 0.65649 0.0
C1468 C 0.54142 0.71575 0.53378 0.0
C1469 C 0.53613 0.72821 0.56816 0.0
C1470 C 0.53173 0.6962 0.55108 0.0
C1471 C 0.51657 0.6885 0.60399 0.0
C1472 C 0.51099 0.70085 0.63738 0.0
C1473 C 0.52063 0.72043 0.61961 0.0
H1474 H 0.31259 0.79561 0.55549 0.0
H1475 H 0.30272 0.82558 0.73834 0.0
H1476 H 0.34596 0.8093 0.59651 0.0
H1477 H 0.33606 0.83956 0.77822 0.0
H1478 H 0.39308 0.85051 0.87002 0.0
H1479 H 0.35933 0.83213 0.83427 0.0
H1480 H 0.3751 0.84113 0.59595 0.0
H1481 H 0.40886 0.85966 0.6316 0.0
C1482 C 0.31746 0.80491 0.60504 0.0
C1483 C 0.30499 0.80954 0.64348 0.0
C1484 C 0.33664 0.81292 0.62805 0.0
C1485 C 0.34375 0.82561 0.6905 0.0
C1486 C 0.33108 0.82972 0.73035 0.0
C1487 C 0.31198 0.82184 0.70706 0.0
C1488 C 0.38938 0.84856 0.80995 0.0
C1489 C 0.40376 0.85675 0.75379 0.0
C1490 C 0.37 0.838 0.78945 0.0
C1491 C 0.36445 0.83526 0.71222 0.0
C1492 C 0.37884 0.84277 0.65598 0.0
C1493 C 0.39824 0.85339 0.67648 0.0
loop_
_geom_bond_atom_site_label_1
_geom_bond_atom_site_label_2
_geom_bond_distance
_geom_bond_site_symmetry_2
_ccdc_geom_bond_type
C0 C1 1.351 . S
C0 N3 1.368 1_556 S
C0 H5 0.931 1_556 S
C1 C0 1.351 . S
C1 N2 1.373 . S
C1 H29 0.930 . S
N2 C1 1.373 . S
N2 C4 1.340 . S
N3 C0 1.368 1_554 S
N3 C4 1.321 1_554 S
N3 Co6 2.135 . S
C4 N2 1.340 . S
C4 N3 1.321 1_556 S
C4 H28 0.930 . S
H5 C0 0.931 1_554 S
Co6 N3 2.135 . S
Co6 N9 2.121 . S
Co6 O14 2.055 . S
Co6 O17 2.039 . S
Co6 N20 2.140 . S
C7 O8 1.227 . S
C7 O17 1.265 . S
O8 C7 1.227 . S
N9 Co6 2.121 . S
N9 C11 1.375 . S
N9 C12 1.313 . S
C10 C11 1.338 . S
C10 N13 1.377 . S
C10 H30 0.930 . S
C11 N9 1.375 . S
C11 C10 1.338 . S
C11 H15 0.931 . S
C12 N9 1.313 . S
C12 N13 1.344 . S
C12 H16 0.930 . S
N13 C10 1.377 . S
N13 C12 1.344 . S
O14 Co6 2.055 . S
O14 C18 1.253 . S
H15 C11 0.931 . S
H16 C12 0.930 . S
O17 Co6 2.039 . S
O17 C7 1.265 . S
C18 O14 1.253 . S
C18 O19 1.227 . S
O19 C18 1.227 . S
N20 Co6 2.140 . S
N20 C23 1.346 . S
N20 C24 1.345 . S
C21 C22 1.387 . S
C21 C25 1.391 . S
C22 C21 1.387 . S
C22 C23 1.369 . S
C22 H31 0.929 1_554 S
C23 N20 1.346 . S
C23 C22 1.369 . S
C23 H26 0.930 1_554 S
C24 N20 1.345 . S
C24 C25 1.371 . S
C24 H27 0.931 . S
C25 C21 1.391 . S
C25 C24 1.371 . S
C25 H32 0.930 . S
H26 C23 0.930 1_556 S
H27 C24 0.931 . S
H28 C4 0.930 . S
H29 C1 0.930 . S
H30 C10 0.930 . S
H31 C22 0.929 1_556 S
H32 C25 0.930 . S
C33 C34 1.351 . S
C33 N36 1.368 1_556 S
C33 H38 0.931 1_556 S
C34 C33 1.351 . S
C34 N35 1.373 . S
C34 H62 0.930 . S
N35 C34 1.373 . S
N35 C37 1.340 . S
N36 C33 1.368 1_554 S
N36 C37 1.321 1_554 S
N36 Co39 2.135 . S
C37 N35 1.340 . S
C37 N36 1.321 1_556 S
C37 H61 0.930 . S
H38 C33 0.931 1_554 S
Co39 N36 2.135 . S
Co39 N42 2.121 . S
Co39 O47 2.055 . S
Co39 O50 2.039 . S
Co39 N53 2.140 . S
C40 O41 1.227 . S
C40 O50 1.265 . S
O41 C40 1.227 . S
N42 Co39 2.121 . S
N42 C44 1.375 . S
N42 C45 1.313 . S
C43 C44 1.338 . S
C43 N46 1.377 . S
C43 H63 0.930 . S
C44 N42 1.375 . S
C44 C43 1.338 . S
C44 H48 0.931 . S
C45 N42 1.313 . S
C45 N46 1.344 . S
C45 H49 0.930 . S
N46 C43 1.377 . S
N46 C45 1.344 . S
O47 Co39 2.055 . S
O47 C51 1.253 . S
H48 C44 0.931 . S
H49 C45 0.930 . S
O50 Co39 2.039 . S
O50 C40 1.265 . S
C51 O47 1.253 . S
C51 O52 1.227 . S
O52 C51 1.227 . S
N53 Co39 2.140 . S
N53 C56 1.346 . S
N53 C57 1.345 . S
C54 C55 1.387 . S
C54 C58 1.391 . S
C55 C54 1.387 . S
C55 C56 1.369 . S
C55 H64 0.929 1_554 S
C56 N53 1.346 . S
C56 C55 1.369 . S
C56 H59 0.929 1_554 S
C57 N53 1.345 . S
C57 C58 1.371 . S
C57 H60 0.931 . S
C58 C54 1.391 . S
C58 C57 1.371 . S
C58 H65 0.930 . S
H59 C56 0.929 1_556 S
H60 C57 0.931 . S
H61 C37 0.930 . S
H62 C34 0.930 . S
H63 C43 0.930 . S
H64 C55 0.929 1_556 S
H65 C58 0.930 . S
C66 C67 1.351 . S
C66 N69 1.368 1_556 S
C66 H71 0.931 1_556 S
C67 C66 1.351 . S
C67 N68 1.373 . S
C67 H95 0.930 . S
N68 C67 1.373 . S
N68 C70 1.340 . S
N69 C66 1.368 1_554 S
N69 C70 1.321 1_554 S
N69 Co72 2.135 . S
C70 N68 1.340 . S
C70 N69 1.321 1_556 S
C70 H94 0.930 . S
H71 C66 0.931 1_554 S
Co72 N69 2.135 . S
Co72 N75 2.121 . S
Co72 O80 2.055 . S
Co72 O83 2.039 . S
Co72 N86 2.140 . S
C73 O74 1.227 . S
C73 O83 1.265 . S
O74 C73 1.227 . S
N75 Co72 2.121 . S
N75 C77 1.375 . S
N75 C78 1.313 . S
C76 C77 1.338 . S
C76 N79 1.377 . S
C76 H96 0.930 . S
C77 N75 1.375 . S
C77 C76 1.338 . S
C77 H81 0.931 . S
C78 N75 1.313 . S
C78 N79 1.344 . S
C78 H82 0.930 . S
N79 C76 1.377 . S
N79 C78 1.344 . S
O80 Co72 2.055 . S
O80 C84 1.253 . S
H81 C77 0.931 . S
H82 C78 0.930 . S
O83 Co72 2.039 . S
O83 C73 1.265 . S
C84 O80 1.253 . S
C84 O85 1.227 . S
O85 C84 1.227 . S
N86 Co72 2.140 . S
N86 C89 1.346 . S
N86 C90 1.345 . S
C87 C88 1.387 . S
C87 C91 1.391 . S
C88 C87 1.387 . S
C88 C89 1.369 . S
C88 H97 0.929 1_554 S
C89 N86 1.346 . S
C89 C88 1.369 . S
C89 H92 0.929 1_554 S
C90 N86 1.345 . S
C90 C91 1.371 . S
C90 H93 0.931 . S
C91 C87 1.391 . S
C91 C90 1.371 . S
C91 H98 0.930 . S
H92 C89 0.929 1_556 S
H93 C90 0.931 . S
H94 C70 0.930 . S
H95 C67 0.930 . S
H96 C76 0.930 . S
H97 C88 0.929 1_556 S
H98 C91 0.930 . S
C99 C100 1.351 . S
C99 N102 1.368 1_554 S
C99 H104 0.931 1_554 S
C100 C99 1.351 . S
C100 N101 1.373 . S
C100 H128 0.930 . S
N101 C100 1.373 . S
N101 C103 1.340 . S
N102 C99 1.368 1_556 S
N102 C103 1.321 1_556 S
N102 Co105 2.135 . S
C103 N101 1.340 . S
C103 N102 1.321 1_554 S
C103 H127 0.930 . S
H104 C99 0.931 1_556 S
Co105 N102 2.135 . S
Co105 N108 2.121 . S
Co105 O113 2.055 . S
Co105 O116 2.039 . S
Co105 N119 2.140 . S
C106 O107 1.227 . S
C106 O116 1.265 . S
O107 C106 1.227 . S
N108 Co105 2.121 . S
N108 C110 1.375 . S
N108 C111 1.313 . S
C109 C110 1.338 . S
C109 N112 1.377 . S
C109 H129 0.930 . S
C110 N108 1.375 . S
C110 C109 1.338 . S
C110 H114 0.931 . S
C111 N108 1.313 . S
C111 N112 1.344 . S
C111 H115 0.930 . S
N112 C109 1.377 . S
N112 C111 1.344 . S
O113 Co105 2.055 . S
O113 C117 1.253 . S
H114 C110 0.931 . S
H115 C111 0.930 . S
O116 Co105 2.039 . S
O116 C106 1.265 . S
C117 O113 1.253 . S
C117 O118 1.227 . S
O118 C117 1.227 . S
N119 Co105 2.140 . S
N119 C122 1.346 . S
N119 C123 1.345 . S
C120 C121 1.387 . S
C120 C124 1.391 . S
C121 C120 1.387 . S
C121 C122 1.369 . S
C121 H130 0.929 1_556 S
C122 N119 1.346 . S
C122 C121 1.369 . S
C122 H125 0.930 1_556 S
C123 N119 1.345 . S
C123 C124 1.371 . S
C123 H126 0.931 . S
C124 C120 1.391 . S
C124 C123 1.371 . S
C124 H131 0.930 . S
H125 C122 0.930 1_554 S
H126 C123 0.931 . S
H127 C103 0.930 . S
H128 C100 0.930 . S
H129 C109 0.930 . S
H130 C121 0.929 1_554 S
H131 C124 0.930 . S
C132 C133 1.351 . S
C132 N135 1.368 1_554 S
C132 H137 0.931 1_554 S
C133 C132 1.351 . S
C133 N134 1.373 . S
C133 H161 0.930 . S
N134 C133 1.373 . S
N134 C136 1.340 . S
N135 C132 1.368 1_556 S
N135 C136 1.321 1_556 S
N135 Co138 2.135 . S
C136 N134 1.340 . S
C136 N135 1.321 1_554 S
C136 H160 0.930 . S
H137 C132 0.931 1_556 S
Co138 N135 2.135 . S
Co138 N141 2.121 . S
Co138 O146 2.055 . S
Co138 O149 2.039 . S
Co138 N152 2.140 . S
C139 O140 1.227 . S
C139 O149 1.265 . S
O140 C139 1.227 . S
N141 Co138 2.121 . S
N141 C143 1.375 . S
N141 C144 1.313 . S
C142 C143 1.338 . S
C142 N145 1.377 . S
C142 H162 0.930 . S
C143 N141 1.375 . S
C143 C142 1.338 . S
C143 H147 0.931 . S
C144 N141 1.313 . S
C144 N145 1.344 . S
C144 H148 0.930 . S
N145 C142 1.377 . S
N145 C144 1.344 . S
O146 Co138 2.055 . S
O146 C150 1.253 . S
H147 C143 0.931 . S
H148 C144 0.930 . S
O149 Co138 2.039 . S
O149 C139 1.265 . S
C150 O146 1.253 . S
C150 O151 1.227 . S
O151 C150 1.227 . S
N152 Co138 2.140 . S
N152 C155 1.346 . S
N152 C156 1.345 . S
C153 C154 1.387 . S
C153 C157 1.391 . S
C154 C153 1.387 . S
C154 C155 1.369 . S
C154 H163 0.929 1_556 S
C155 N152 1.346 . S
C155 C154 1.369 . S
C155 H158 0.929 1_556 S
C156 N152 1.345 . S
C156 C157 1.371 . S
C156 H159 0.931 . S
C157 C153 1.391 . S
C157 C156 1.371 . S
C157 H164 0.930 . S
H158 C155 0.929 1_554 S
H159 C156 0.931 . S
H160 C136 0.930 . S
H161 C133 0.930 . S
H162 C142 0.930 . S
H163 C154 0.929 1_554 S
H164 C157 0.930 . S
C165 C166 1.351 . S
C165 N168 1.368 1_554 S
C165 H170 0.931 1_554 S
C166 C165 1.351 . S
C166 N167 1.373 . S
C166 H194 0.930 . S
N167 C166 1.373 . S
N167 C169 1.340 . S
N168 C165 1.368 1_556 S
N168 C169 1.321 1_556 S
N168 Co171 2.135 . S
C169 N167 1.340 . S
C169 N168 1.321 1_554 S
C169 H193 0.930 . S
H170 C165 0.931 1_556 S
Co171 N168 2.135 . S
Co171 N174 2.121 . S
Co171 O179 2.055 . S
Co171 O182 2.039 . S
Co171 N185 2.140 . S
C172 O173 1.227 . S
C172 O182 1.265 . S
O173 C172 1.227 . S
N174 Co171 2.121 . S
N174 C176 1.375 . S
N174 C177 1.313 . S
C175 C176 1.338 . S
C175 N178 1.377 . S
C175 H195 0.930 . S
C176 N174 1.375 . S
C176 C175 1.338 . S
C176 H180 0.931 . S
C177 N174 1.313 . S
C177 N178 1.344 . S
C177 H181 0.930 . S
N178 C175 1.377 . S
N178 C177 1.344 . S
O179 Co171 2.055 . S
O179 C183 1.253 . S
H180 C176 0.931 . S
H181 C177 0.930 . S
O182 Co171 2.039 . S
O182 C172 1.265 . S
C183 O179 1.253 . S
C183 O184 1.227 . S
O184 C183 1.227 . S
N185 Co171 2.140 . S
N185 C188 1.346 . S
N185 C189 1.345 . S
C186 C187 1.387 . S
C186 C190 1.391 . S
C187 C186 1.387 . S
C187 C188 1.369 . S
C187 H196 0.929 1_556 S
C188 N185 1.346 . S
C188 C187 1.369 . S
C188 H191 0.929 1_556 S
C189 N185 1.345 . S
C189 C190 1.371 . S
C189 H192 0.931 . S
C190 C186 1.391 . S
C190 C189 1.371 . S
C190 H197 0.930 . S
H191 C188 0.929 1_554 S
H192 C189 0.931 . S
H193 C169 0.930 . S
H194 C166 0.930 . S
H195 C175 0.930 . S
H196 C187 0.929 1_554 S
H197 C190 0.930 . S
C198 C199 1.351 . S
C198 N201 1.368 . S
C198 H203 0.931 . S
C199 C198 1.351 . S
C199 N200 1.373 . S
C199 H227 0.930 . S
N200 C199 1.373 . S
N200 C202 1.340 . S
N201 C198 1.368 . S
N201 C202 1.321 . S
N201 Co204 2.135 . S
C202 N200 1.340 . S
C202 N201 1.321 . S
C202 H226 0.930 . S
H203 C198 0.931 . S
Co204 N201 2.135 . S
Co204 N207 2.121 . S
Co204 O212 2.055 . S
Co204 O215 2.039 . S
Co204 N218 2.140 . S
C205 O206 1.227 . S
C205 O215 1.265 . S
O206 C205 1.227 . S
N207 Co204 2.121 . S
N207 C209 1.375 . S
N207 C210 1.313 . S
C208 C209 1.338 . S
C208 N211 1.377 . S
C208 H228 0.930 . S
C209 N207 1.375 . S
C209 C208 1.338 . S
C209 H213 0.931 . S
C210 N207 1.313 . S
C210 N211 1.344 . S
C210 H214 0.930 . S
N211 C208 1.377 . S
N211 C210 1.344 . S
O212 Co204 2.055 . S
O212 C216 1.253 . S
H213 C209 0.931 . S
H214 C210 0.930 . S
O215 Co204 2.039 . S
O215 C205 1.265 . S
C216 O212 1.253 . S
C216 O217 1.227 . S
O217 C216 1.227 . S
N218 Co204 2.140 . S
N218 C221 1.346 . S
N218 C222 1.345 . S
C219 C220 1.387 . S
C219 C223 1.391 . S
C220 C219 1.387 . S
C220 C221 1.369 . S
C220 H229 0.929 . S
C221 N218 1.346 . S
C221 C220 1.369 . S
C221 H224 0.928 . S
C222 N218 1.345 . S
C222 C223 1.371 . S
C222 H225 0.931 . S
C223 C219 1.391 . S
C223 C222 1.371 . S
C223 H230 0.930 . S
H224 C221 0.928 . S
H225 C222 0.931 . S
H226 C202 0.930 . S
H227 C199 0.930 . S
H228 C208 0.930 . S
H229 C220 0.929 . S
H230 C223 0.930 . S
C231 C232 1.351 . S
C231 N234 1.368 . S
C231 H236 0.931 . S
C232 C231 1.351 . S
C232 N233 1.373 . S
C232 H260 0.930 . S
N233 C232 1.373 . S
N233 C235 1.340 . S
N234 C231 1.368 . S
N234 C235 1.321 . S
N234 Co237 2.135 . S
C235 N233 1.340 . S
C235 N234 1.321 . S
C235 H259 0.930 . S
H236 C231 0.931 . S
Co237 N234 2.135 . S
Co237 N240 2.121 . S
Co237 O245 2.055 . S
Co237 O248 2.039 . S
Co237 N251 2.140 . S
C238 O239 1.227 . S
C238 O248 1.265 . S
O239 C238 1.227 . S
N240 Co237 2.121 . S
N240 C242 1.375 . S
N240 C243 1.313 . S
C241 C242 1.338 . S
C241 N244 1.377 . S
C241 H261 0.930 . S
C242 N240 1.375 . S
C242 C241 1.338 . S
C242 H246 0.931 . S
C243 N240 1.313 . S
C243 N244 1.344 . S
C243 H247 0.930 . S
N244 C241 1.377 . S
N244 C243 1.344 . S
O245 Co237 2.055 . S
O245 C249 1.253 . S
H246 C242 0.931 . S
H247 C243 0.930 . S
O248 Co237 2.039 . S
O248 C238 1.265 . S
C249 O245 1.253 . S
C249 O250 1.227 . S
O250 C249 1.227 . S
N251 Co237 2.140 . S
N251 C254 1.346 . S
N251 C255 1.345 . S
C252 C253 1.387 . S
C252 C256 1.391 . S
C253 C252 1.387 . S
C253 C254 1.369 . S
C253 H262 0.929 . S
C254 N251 1.346 . S
C254 C253 1.369 . S
C254 H257 0.928 . S
C255 N251 1.345 . S
C255 C256 1.371 . S
C255 H258 0.931 . S
C256 C252 1.391 . S
C256 C255 1.371 . S
C256 H263 0.930 . S
H257 C254 0.928 . S
H258 C255 0.931 . S
H259 C235 0.930 . S
H260 C232 0.930 . S
H261 C241 0.930 . S
H262 C253 0.929 . S
H263 C256 0.930 . S
C264 C265 1.351 . S
C264 N267 1.368 . S
C264 H269 0.931 . S
C265 C264 1.351 . S
C265 N266 1.373 . S
C265 H293 0.930 . S
N266 C265 1.373 . S
N266 C268 1.340 . S
N267 C264 1.368 . S
N267 C268 1.321 . S
N267 Co270 2.135 . S
C268 N266 1.340 . S
C268 N267 1.321 . S
C268 H292 0.930 . S
H269 C264 0.931 . S
Co270 N267 2.135 . S
Co270 N273 2.121 . S
Co270 O278 2.055 . S
Co270 O281 2.039 . S
Co270 N284 2.140 . S
C271 O272 1.227 . S
C271 O281 1.265 . S
O272 C271 1.227 . S
N273 Co270 2.121 . S
N273 C275 1.375 . S
N273 C276 1.313 . S
C274 C275 1.338 . S
C274 N277 1.377 . S
C274 H294 0.930 . S
C275 N273 1.375 . S
C275 C274 1.338 . S
C275 H279 0.931 . S
C276 N273 1.313 . S
C276 N277 1.344 . S
C276 H280 0.930 . S
N277 C274 1.377 . S
N277 C276 1.344 . S
O278 Co270 2.055 . S
O278 C282 1.253 . S
H279 C275 0.931 . S
H280 C276 0.930 . S
O281 Co270 2.039 . S
O281 C271 1.265 . S
C282 O278 1.253 . S
C282 O283 1.227 . S
O283 C282 1.227 . S
N284 Co270 2.140 . S
N284 C287 1.346 . S
N284 C288 1.345 . S
C285 C286 1.387 . S
C285 C289 1.391 . S
C286 C285 1.387 . S
C286 C287 1.369 . S
C286 H295 0.929 . S
C287 N284 1.346 . S
C287 C286 1.369 . S
C287 H290 0.928 . S
C288 N284 1.345 . S
C288 C289 1.371 . S
C288 H291 0.931 . S
C289 C285 1.391 . S
C289 C288 1.371 . S
C289 H296 0.930 . S
H290 C287 0.928 . S
H291 C288 0.931 . S
H292 C268 0.930 . S
H293 C265 0.930 . S
H294 C274 0.930 . S
H295 C286 0.929 . S
H296 C289 0.930 . S
C297 C298 1.351 . S
C297 N300 1.368 . S
C297 H302 0.931 . S
C298 C297 1.351 . S
C298 N299 1.373 . S
C298 H326 0.930 . S
N299 C298 1.373 . S
N299 C301 1.340 . S
N300 C297 1.368 . S
N300 C301 1.321 . S
N300 Co303 2.135 . S
C301 N299 1.340 . S
C301 N300 1.321 . S
C301 H325 0.930 . S
H302 C297 0.931 . S
Co303 N300 2.135 . S
Co303 N306 2.121 . S
Co303 O311 2.055 . S
Co303 O314 2.039 . S
Co303 N317 2.140 . S
C304 O305 1.227 . S
C304 O314 1.265 . S
O305 C304 1.227 . S
N306 Co303 2.121 . S
N306 C308 1.375 . S
N306 C309 1.313 . S
C307 C308 1.338 . S
C307 N310 1.377 1_554 S
C307 H327 0.930 1_554 S
C308 N306 1.375 . S
C308 C307 1.338 . S
C308 H312 0.931 . S
C309 N306 1.313 . S
C309 N310 1.344 1_554 S
C309 H313 0.930 . S
N310 C307 1.377 1_556 S
N310 C309 1.344 1_556 S
O311 Co303 2.055 . S
O311 C315 1.253 . S
H312 C308 0.931 . S
H313 C309 0.930 . S
O314 Co303 2.039 . S
O314 C304 1.265 . S
C315 O311 1.253 . S
C315 O316 1.227 . S
O316 C315 1.227 . S
N317 Co303 2.140 . S
N317 C320 1.346 . S
N317 C321 1.345 . S
C318 C319 1.387 . S
C318 C322 1.391 . S
C319 C318 1.387 . S
C319 C320 1.369 . S
C319 H328 0.929 . S
C320 N317 1.346 . S
C320 C319 1.369 . S
C320 H323 0.928 . S
C321 N317 1.345 . S
C321 C322 1.371 . S
C321 H324 0.931 . S
C322 C318 1.391 . S
C322 C321 1.371 . S
C322 H329 0.930 . S
H323 C320 0.928 . S
H324 C321 0.931 . S
H325 C301 0.930 . S
H326 C298 0.930 . S
H327 C307 0.930 1_556 S
H328 C319 0.929 . S
H329 C322 0.930 . S
C330 C331 1.351 . S
C330 N333 1.368 . S
C330 H335 0.931 . S
C331 C330 1.351 . S
C331 N332 1.373 . S
C331 H359 0.930 . S
N332 C331 1.373 . S
N332 C334 1.340 . S
N333 C330 1.368 . S
N333 C334 1.321 . S
N333 Co336 2.135 . S
C334 N332 1.340 . S
C334 N333 1.321 . S
C334 H358 0.930 . S
H335 C330 0.931 . S
Co336 N333 2.135 . S
Co336 N339 2.121 . S
Co336 O344 2.055 . S
Co336 O347 2.039 . S
Co336 N350 2.140 . S
C337 O338 1.227 . S
C337 O347 1.265 . S
O338 C337 1.227 . S
N339 Co336 2.121 . S
N339 C341 1.375 . S
N339 C342 1.313 . S
C340 C341 1.338 . S
C340 N343 1.377 1_554 S
C340 H360 0.930 1_554 S
C341 N339 1.375 . S
C341 C340 1.338 . S
C341 H345 0.931 . S
C342 N339 1.313 . S
C342 N343 1.344 1_554 S
C342 H346 0.930 . S
N343 C340 1.377 1_556 S
N343 C342 1.344 1_556 S
O344 Co336 2.055 . S
O344 C348 1.253 . S
H345 C341 0.931 . S
H346 C342 0.930 . S
O347 Co336 2.039 . S
O347 C337 1.265 . S
C348 O344 1.253 . S
C348 O349 1.227 . S
O349 C348 1.227 . S
N350 Co336 2.140 . S
N350 C353 1.346 . S
N350 C354 1.345 . S
C351 C352 1.387 . S
C351 C355 1.391 . S
C352 C351 1.387 . S
C352 C353 1.369 . S
C352 H361 0.929 . S
C353 N350 1.346 . S
C353 C352 1.369 . S
C353 H356 0.928 . S
C354 N350 1.345 . S
C354 C355 1.371 . S
C354 H357 0.931 . S
C355 C351 1.391 . S
C355 C354 1.371 . S
C355 H362 0.930 . S
H356 C353 0.928 . S
H357 C354 0.931 . S
H358 C334 0.930 . S
H359 C331 0.930 . S
H360 C340 0.930 1_556 S
H361 C352 0.929 . S
H362 C355 0.930 . S
C363 C364 1.351 . S
C363 N366 1.368 . S
C363 H368 0.931 . S
C364 C363 1.351 . S
C364 N365 1.373 . S
C364 H392 0.930 . S
N365 C364 1.373 . S
N365 C367 1.340 . S
N366 C363 1.368 . S
N366 C367 1.321 . S
N366 Co369 2.135 . S
C367 N365 1.340 . S
C367 N366 1.321 . S
C367 H391 0.930 . S
H368 C363 0.931 . S
Co369 N366 2.135 . S
Co369 N372 2.121 . S
Co369 O377 2.055 . S
Co369 O380 2.039 . S
Co369 N383 2.140 . S
C370 O371 1.227 . S
C370 O380 1.265 . S
O371 C370 1.227 . S
N372 Co369 2.121 . S
N372 C374 1.375 . S
N372 C375 1.313 . S
C373 C374 1.338 . S
C373 N376 1.377 1_554 S
C373 H393 0.930 1_554 S
C374 N372 1.375 . S
C374 C373 1.338 . S
C374 H378 0.931 . S
C375 N372 1.313 . S
C375 N376 1.344 1_554 S
C375 H379 0.930 . S
N376 C373 1.377 1_556 S
N376 C375 1.344 1_556 S
O377 Co369 2.055 . S
O377 C381 1.253 . S
H378 C374 0.931 . S
H379 C375 0.930 . S
O380 Co369 2.039 . S
O380 C370 1.265 . S
C381 O377 1.253 . S
C381 O382 1.227 . S
O382 C381 1.227 . S
N383 Co369 2.140 . S
N383 C386 1.346 . S
N383 C387 1.345 . S
C384 C385 1.387 . S
C384 C388 1.391 . S
C385 C384 1.387 . S
C385 C386 1.369 . S
C385 H394 0.929 . S
C386 N383 1.346 . S
C386 C385 1.369 . S
C386 H389 0.928 . S
C387 N383 1.345 . S
C387 C388 1.371 . S
C387 H390 0.931 . S
C388 C384 1.391 . S
C388 C387 1.371 . S
C388 H395 0.930 . S
H389 C386 0.928 . S
H390 C387 0.931 . S
H391 C367 0.930 . S
H392 C364 0.930 . S
H393 C373 0.930 1_556 S
H394 C385 0.929 . S
H395 C388 0.930 . S
C396 C397 1.351 . S
C396 N399 1.368 . S
C396 H401 0.931 . S
C397 C396 1.351 . S
C397 N398 1.373 . S
C397 H425 0.930 . S
N398 C397 1.373 . S
N398 C400 1.340 . S
N399 C396 1.368 . S
N399 C400 1.321 . S
N399 Co402 2.135 . S
C400 N398 1.340 . S
C400 N399 1.321 . S
C400 H424 0.930 . S
H401 C396 0.931 . S
Co402 N399 2.135 . S
Co402 N405 2.121 . S
Co402 O410 2.055 . S
Co402 O413 2.039 . S
Co402 N416 2.140 . S
C403 O404 1.227 . S
C403 O413 1.265 . S
O404 C403 1.227 . S
N405 Co402 2.121 . S
N405 C407 1.375 . S
N405 C408 1.313 . S
C406 C407 1.338 . S
C406 N409 1.377 1_556 S
C406 H426 0.930 1_556 S
C407 N405 1.375 . S
C407 C406 1.338 . S
C407 H411 0.931 . S
C408 N405 1.313 . S
C408 N409 1.344 1_556 S
C408 H412 0.930 . S
N409 C406 1.377 1_554 S
N409 C408 1.344 1_554 S
O410 Co402 2.055 . S
O410 C414 1.253 . S
H411 C407 0.931 . S
H412 C408 0.930 . S
O413 Co402 2.039 . S
O413 C403 1.265 . S
C414 O410 1.253 . S
C414 O415 1.227 . S
O415 C414 1.227 . S
N416 Co402 2.140 . S
N416 C419 1.346 . S
N416 C420 1.345 . S
C417 C418 1.387 . S
C417 C421 1.391 . S
C418 C417 1.387 . S
C418 C419 1.369 . S
C418 H427 0.929 . S
C419 N416 1.346 . S
C419 C418 1.369 . S
C419 H422 0.928 . S
C420 N416 1.345 . S
C420 C421 1.371 . S
C420 H423 0.931 . S
C421 C417 1.391 . S
C421 C420 1.371 . S
C421 H428 0.930 . S
H422 C419 0.928 . S
H423 C420 0.931 . S
H424 C400 0.930 . S
H425 C397 0.930 . S
H426 C406 0.930 1_554 S
H427 C418 0.929 . S
H428 C421 0.930 . S
C429 C430 1.351 . S
C429 N432 1.368 . S
C429 H434 0.931 . S
C430 C429 1.351 . S
C430 N431 1.373 . S
C430 H458 0.930 . S
N431 C430 1.373 . S
N431 C433 1.340 . S
N432 C429 1.368 . S
N432 C433 1.321 . S
N432 Co435 2.135 . S
C433 N431 1.340 . S
C433 N432 1.321 . S
C433 H457 0.930 . S
H434 C429 0.931 . S
Co435 N432 2.135 . S
Co435 N438 2.121 . S
Co435 O443 2.055 . S
Co435 O446 2.039 . S
Co435 N449 2.140 . S
C436 O437 1.227 . S
C436 O446 1.265 . S
O437 C436 1.227 . S
N438 Co435 2.121 . S
N438 C440 1.375 . S
N438 C441 1.313 . S
C439 C440 1.338 . S
C439 N442 1.377 1_556 S
C439 H459 0.930 1_556 S
C440 N438 1.375 . S
C440 C439 1.338 . S
C440 H444 0.931 . S
C441 N438 1.313 . S
C441 N442 1.344 1_556 S
C441 H445 0.930 . S
N442 C439 1.377 1_554 S
N442 C441 1.344 1_554 S
O443 Co435 2.055 . S
O443 C447 1.253 . S
H444 C440 0.931 . S
H445 C441 0.930 . S
O446 Co435 2.039 . S
O446 C436 1.265 . S
C447 O443 1.253 . S
C447 O448 1.227 . S
O448 C447 1.227 . S
N449 Co435 2.140 . S
N449 C452 1.346 . S
N449 C453 1.345 . S
C450 C451 1.387 . S
C450 C454 1.391 . S
C451 C450 1.387 . S
C451 C452 1.369 . S
C451 H460 0.929 . S
C452 N449 1.346 . S
C452 C451 1.369 . S
C452 H455 0.928 . S
C453 N449 1.345 . S
C453 C454 1.371 . S
C453 H456 0.931 . S
C454 C450 1.391 . S
C454 C453 1.371 . S
C454 H461 0.930 . S
H455 C452 0.928 . S
H456 C453 0.931 . S
H457 C433 0.930 . S
H458 C430 0.930 . S
H459 C439 0.930 1_554 S
H460 C451 0.929 . S
H461 C454 0.930 . S
C462 C463 1.351 . S
C462 N465 1.368 . S
C462 H467 0.931 . S
C463 C462 1.351 . S
C463 N464 1.373 . S
C463 H491 0.930 . S
N464 C463 1.373 . S
N464 C466 1.340 . S
N465 C462 1.368 . S
N465 C466 1.321 . S
N465 Co468 2.135 . S
C466 N464 1.340 . S
C466 N465 1.321 . S
C466 H490 0.930 . S
H467 C462 0.931 . S
Co468 N465 2.135 . S
Co468 N471 2.121 . S
Co468 O476 2.055 . S
Co468 O479 2.039 . S
Co468 N482 2.140 . S
C469 O470 1.227 . S
C469 O479 1.265 . S
O470 C469 1.227 . S
N471 Co468 2.121 . S
N471 C473 1.375 . S
N471 C474 1.313 . S
C472 C473 1.338 . S
C472 N475 1.377 1_556 S
C472 H492 0.930 1_556 S
C473 N471 1.375 . S
C473 C472 1.338 . S
C473 H477 0.931 . S
C474 N471 1.313 . S
C474 N475 1.344 1_556 S
C474 H478 0.930 . S
N475 C472 1.377 1_554 S
N475 C474 1.344 1_554 S
O476 Co468 2.055 . S
O476 C480 1.253 . S
H477 C473 0.931 . S
H478 C474 0.930 . S
O479 Co468 2.039 . S
O479 C469 1.265 . S
C480 O476 1.253 . S
C480 O481 1.227 . S
O481 C480 1.227 . S
N482 Co468 2.140 . S
N482 C485 1.346 . S
N482 C486 1.345 . S
C483 C484 1.387 . S
C483 C487 1.391 . S
C484 C483 1.387 . S
C484 C485 1.369 . S
C484 H493 0.929 . S
C485 N482 1.346 . S
C485 C484 1.369 . S
C485 H488 0.928 . S
C486 N482 1.345 . S
C486 C487 1.371 . S
C486 H489 0.931 . S
C487 C483 1.391 . S
C487 C486 1.371 . S
C487 H494 0.930 . S
H488 C485 0.928 . S
H489 C486 0.931 . S
H490 C466 0.930 . S
H491 C463 0.930 . S
H492 C472 0.930 1_554 S
H493 C484 0.929 . S
H494 C487 0.930 . S
C495 C496 1.351 . S
C495 N498 1.368 . S
C495 H500 0.931 . S
C496 C495 1.351 . S
C496 N497 1.373 . S
C496 H524 0.930 . S
N497 C496 1.373 . S
N497 C499 1.340 . S
N498 C495 1.368 . S
N498 C499 1.321 . S
N498 Co501 2.135 . S
C499 N497 1.340 . S
C499 N498 1.321 . S
C499 H523 0.930 . S
H500 C495 0.931 . S
Co501 N498 2.135 . S
Co501 N504 2.121 . S
Co501 O509 2.055 . S
Co501 O512 2.039 . S
Co501 N515 2.140 . S
C502 O503 1.227 . S
C502 O512 1.265 . S
O503 C502 1.227 . S
N504 Co501 2.121 . S
N504 C506 1.375 . S
N504 C507 1.313 . S
C505 C506 1.338 . S
C505 N508 1.377 . S
C505 H525 0.930 . S
C506 N504 1.375 . S
C506 C505 1.338 . S
C506 H510 0.931 . S
C507 N504 1.313 . S
C507 N508 1.344 . S
C507 H511 0.930 . S
N508 C505 1.377 . S
N508 C507 1.344 . S
O509 Co501 2.055 . S
O509 C513 1.253 . S
H510 C506 0.931 . S
H511 C507 0.930 . S
O512 Co501 2.039 . S
O512 C502 1.265 . S
C513 O509 1.253 . S
C513 O514 1.227 . S
O514 C513 1.227 . S
N515 Co501 2.140 . S
N515 C518 1.346 . S
N515 C519 1.345 . S
C516 C517 1.387 . S
C516 C520 1.391 . S
C517 C516 1.387 . S
C517 C518 1.369 . S
C517 H526 0.929 . S
C518 N515 1.346 . S
C518 C517 1.369 . S
C518 H521 0.928 . S
C519 N515 1.345 . S
C519 C520 1.371 . S
C519 H522 0.931 . S
C520 C516 1.391 . S
C520 C519 1.371 . S
C520 H527 0.930 . S
H521 C518 0.928 . S
H522 C519 0.931 . S
H523 C499 0.930 . S
H524 C496 0.930 . S
H525 C505 0.930 . S
H526 C517 0.929 . S
H527 C520 0.930 . S
C528 C529 1.351 . S
C528 N531 1.368 . S
C528 H533 0.931 . S
C529 C528 1.351 . S
C529 N530 1.373 . S
C529 H557 0.930 . S
N530 C529 1.373 . S
N530 C532 1.340 . S
N531 C528 1.368 . S
N531 C532 1.321 . S
N531 Co534 2.135 . S
C532 N530 1.340 . S
C532 N531 1.321 . S
C532 H556 0.930 . S
H533 C528 0.931 . S
Co534 N531 2.135 . S
Co534 N537 2.121 . S
Co534 O542 2.055 . S
Co534 O545 2.039 . S
Co534 N548 2.140 . S
C535 O536 1.227 . S
C535 O545 1.265 . S
O536 C535 1.227 . S
N537 Co534 2.121 . S
N537 C539 1.375 . S
N537 C540 1.313 . S
C538 C539 1.338 . S
C538 N541 1.377 . S
C538 H558 0.930 . S
C539 N537 1.375 . S
C539 C538 1.338 . S
C539 H543 0.931 . S
C540 N537 1.313 . S
C540 N541 1.344 . S
C540 H544 0.930 . S
N541 C538 1.377 . S
N541 C540 1.344 . S
O542 Co534 2.055 . S
O542 C546 1.253 . S
H543 C539 0.931 . S
H544 C540 0.930 . S
O545 Co534 2.039 . S
O545 C535 1.265 . S
C546 O542 1.253 . S
C546 O547 1.227 . S
O547 C546 1.227 . S
N548 Co534 2.140 . S
N548 C551 1.346 . S
N548 C552 1.345 . S
C549 C550 1.387 . S
C549 C553 1.391 . S
C550 C549 1.387 . S
C550 C551 1.369 . S
C550 H559 0.929 . S
C551 N548 1.346 . S
C551 C550 1.369 . S
C551 H554 0.928 . S
C552 N548 1.345 . S
C552 C553 1.371 . S
C552 H555 0.931 . S
C553 C549 1.391 . S
C553 C552 1.371 . S
C553 H560 0.930 . S
H554 C551 0.928 . S
H555 C552 0.931 . S
H556 C532 0.930 . S
H557 C529 0.930 . S
H558 C538 0.930 . S
H559 C550 0.929 . S
H560 C553 0.930 . S
C561 C562 1.351 . S
C561 N564 1.368 . S
C561 H566 0.931 . S
C562 C561 1.351 . S
C562 N563 1.373 . S
C562 H590 0.930 . S
N563 C562 1.373 . S
N563 C565 1.340 . S
N564 C561 1.368 . S
N564 C565 1.321 . S
N564 Co567 2.135 . S
C565 N563 1.340 . S
C565 N564 1.321 . S
C565 H589 0.930 . S
H566 C561 0.931 . S
Co567 N564 2.135 . S
Co567 N570 2.121 . S
Co567 O575 2.055 . S
Co567 O578 2.039 . S
Co567 N581 2.140 . S
C568 O569 1.227 . S
C568 O578 1.265 . S
O569 C568 1.227 . S
N570 Co567 2.121 . S
N570 C572 1.375 . S
N570 C573 1.313 . S
C571 C572 1.338 . S
C571 N574 1.377 . S
C571 H591 0.930 . S
C572 N570 1.375 . S
C572 C571 1.338 . S
C572 H576 0.931 . S
C573 N570 1.313 . S
C573 N574 1.344 . S
C573 H577 0.930 . S
N574 C571 1.377 . S
N574 C573 1.344 . S
O575 Co567 2.055 . S
O575 C579 1.253 . S
H576 C572 0.931 . S
H577 C573 0.930 . S
O578 Co567 2.039 . S
O578 C568 1.265 . S
C579 O575 1.253 . S
C579 O580 1.227 . S
O580 C579 1.227 . S
N581 Co567 2.140 . S
N581 C584 1.346 . S
N581 C585 1.345 . S
C582 C583 1.387 . S
C582 C586 1.391 . S
C583 C582 1.387 . S
C583 C584 1.369 . S
C583 H592 0.929 . S
C584 N581 1.346 . S
C584 C583 1.369 . S
C584 H587 0.928 . S
C585 N581 1.345 . S
C585 C586 1.371 . S
C585 H588 0.931 . S
C586 C582 1.391 . S
C586 C585 1.371 . S
C586 H593 0.930 . S
H587 C584 0.928 . S
H588 C585 0.931 . S
H589 C565 0.930 . S
H590 C562 0.930 . S
H591 C571 0.930 . S
H592 C583 0.929 . S
H593 C586 0.930 . S
H594 C602 0.950 . S
H595 C607 0.950 . S
H596 C604 0.950 . S
H597 C606 0.950 . S
H598 C608 0.950 . S
H599 C610 0.950 . S
H600 C612 0.950 . S
H601 C613 0.950 . S
C602 H594 0.950 . S
C602 C603 1.386 . S
C602 C604 1.391 . S
C603 C602 1.386 . S
C603 C607 1.393 . S
C604 H596 0.950 . S
C604 C602 1.391 . S
C604 C605 1.400 . S
C605 C604 1.400 . S
C605 C606 1.398 . S
C605 C611 1.491 . S
C606 H597 0.950 . S
C606 C605 1.398 . S
C606 C607 1.391 . S
C607 H595 0.950 . S
C607 C603 1.393 . S
C607 C606 1.391 . S
C608 H598 0.950 . S
C608 C609 1.386 . S
C608 C610 1.391 . S
C609 C608 1.386 . S
C609 C613 1.393 . S
C610 H599 0.950 . S
C610 C608 1.391 . S
C610 C611 1.400 . S
C611 C605 1.491 . S
C611 C610 1.400 . S
C611 C612 1.398 . S
C612 H600 0.950 . S
C612 C611 1.398 . S
C612 C613 1.391 . S
C613 H601 0.950 . S
C613 C609 1.393 . S
C613 C612 1.391 . S
H614 C622 0.950 . S
H615 C627 0.950 . S
H616 C624 0.950 . S
H617 C626 0.950 . S
H618 C628 0.950 . S
H619 C630 0.950 . S
H620 C632 0.950 . S
H621 C633 0.950 . S
C622 H614 0.950 . S
C622 C623 1.386 . S
C622 C624 1.391 . S
C623 C622 1.386 . S
C623 C627 1.393 . S
C624 H616 0.950 . S
C624 C622 1.391 . S
C624 C625 1.400 . S
C625 C624 1.400 . S
C625 C626 1.398 . S
C625 C631 1.491 . S
C626 H617 0.950 . S
C626 C625 1.398 . S
C626 C627 1.391 . S
C627 H615 0.950 . S
C627 C623 1.393 . S
C627 C626 1.391 . S
C628 H618 0.950 . S
C628 C629 1.386 . S
C628 C630 1.391 . S
C629 C628 1.386 . S
C629 C633 1.393 . S
C630 H619 0.950 . S
C630 C628 1.391 . S
C630 C631 1.400 . S
C631 C625 1.491 . S
C631 C630 1.400 . S
C631 C632 1.398 . S
C632 H620 0.950 . S
C632 C631 1.398 . S
C632 C633 1.391 . S
C633 H621 0.950 . S
C633 C629 1.393 . S
C633 C632 1.391 . S
H634 C642 0.950 . S
H635 C647 0.950 . S
H636 C644 0.950 . S
H637 C646 0.950 . S
H638 C648 0.950 . S
H639 C650 0.950 . S
H640 C652 0.950 . S
H641 C653 0.950 . S
C642 H634 0.950 . S
C642 C643 1.386 . S
C642 C644 1.391 . S
C643 C642 1.386 . S
C643 C647 1.393 . S
C644 H636 0.950 . S
C644 C642 1.391 . S
C644 C645 1.400 . S
C645 C644 1.400 . S
C645 C646 1.398 . S
C645 C651 1.491 . S
C646 H637 0.950 . S
C646 C645 1.398 . S
C646 C647 1.391 . S
C647 H635 0.950 . S
C647 C643 1.393 . S
C647 C646 1.391 . S
C648 H638 0.950 . S
C648 C649 1.386 . S
C648 C650 1.391 . S
C649 C648 1.386 . S
C649 C653 1.393 . S
C650 H639 0.950 . S
C650 C648 1.391 . S
C650 C651 1.400 . S
C651 C645 1.491 . S
C651 C650 1.400 . S
C651 C652 1.398 . S
C652 H640 0.950 . S
C652 C651 1.398 . S
C652 C653 1.391 . S
C653 H641 0.950 . S
C653 C649 1.393 . S
C653 C652 1.391 . S
H654 C662 0.950 . S
H655 C667 0.950 . S
H656 C664 0.950 . S
H657 C666 0.950 . S
H658 C668 0.950 . S
H659 C670 0.950 . S
H660 C672 0.950 . S
H661 C673 0.950 . S
C662 H654 0.950 . S
C662 C663 1.386 . S
C662 C664 1.391 . S
C663 C662 1.386 . S
C663 C667 1.393 . S
C664 H656 0.950 . S
C664 C662 1.391 . S
C664 C665 1.400 . S
C665 C664 1.400 . S
C665 C666 1.398 . S
C665 C671 1.491 . S
C666 H657 0.950 . S
C666 C665 1.398 . S
C666 C667 1.391 . S
C667 H655 0.950 . S
C667 C663 1.393 . S
C667 C666 1.391 . S
C668 H658 0.950 . S
C668 C669 1.386 . S
C668 C670 1.391 . S
C669 C668 1.386 . S
C669 C673 1.393 . S
C670 H659 0.950 . S
C670 C668 1.391 . S
C670 C671 1.400 . S
C671 C665 1.491 . S
C671 C670 1.400 . S
C671 C672 1.398 . S
C672 H660 0.950 . S
C672 C671 1.398 . S
C672 C673 1.391 . S
C673 H661 0.950 . S
C673 C669 1.393 . S
C673 C672 1.391 . S
H674 C682 0.950 . S
H675 C687 0.950 . S
H676 C684 0.950 . S
H677 C686 0.950 . S
H678 C688 0.950 . S
H679 C690 0.950 . S
H680 C692 0.950 . S
H681 C693 0.950 . S
C682 H674 0.950 . S
C682 C683 1.386 . S
C682 C684 1.391 . S
C683 C682 1.386 . S
C683 C687 1.393 . S
C684 H676 0.950 . S
C684 C682 1.391 . S
C684 C685 1.400 . S
C685 C684 1.400 . S
C685 C686 1.398 . S
C685 C691 1.491 . S
C686 H677 0.950 . S
C686 C685 1.398 . S
C686 C687 1.391 . S
C687 H675 0.950 . S
C687 C683 1.393 . S
C687 C686 1.391 . S
C688 H678 0.950 . S
C688 C689 1.386 . S
C688 C690 1.391 . S
C689 C688 1.386 . S
C689 C693 1.393 . S
C690 H679 0.950 . S
C690 C688 1.391 . S
C690 C691 1.400 . S
C691 C685 1.491 . S
C691 C690 1.400 . S
C691 C692 1.398 . S
C692 H680 0.950 . S
C692 C691 1.398 . S
C692 C693 1.391 . S
C693 H681 0.950 . S
C693 C689 1.393 . S
C693 C692 1.391 . S
H694 C702 0.950 . S
H695 C707 0.950 . S
H696 C704 0.950 . S
H697 C706 0.950 . S
H698 C708 0.950 . S
H699 C710 0.950 . S
H700 C712 0.950 . S
H701 C713 0.950 . S
C702 H694 0.950 . S
C702 C703 1.386 . S
C702 C704 1.391 . S
C703 C702 1.386 . S
C703 C707 1.393 . S
C704 H696 0.950 . S
C704 C702 1.391 . S
C704 C705 1.400 . S
C705 C704 1.400 . S
C705 C706 1.398 . S
C705 C711 1.491 . S
C706 H697 0.950 . S
C706 C705 1.398 . S
C706 C707 1.391 . S
C707 H695 0.950 . S
C707 C703 1.393 . S
C707 C706 1.391 . S
C708 H698 0.950 . S
C708 C709 1.386 . S
C708 C710 1.391 . S
C709 C708 1.386 . S
C709 C713 1.393 . S
C710 H699 0.950 . S
C710 C708 1.391 . S
C710 C711 1.400 . S
C711 C705 1.491 . S
C711 C710 1.400 . S
C711 C712 1.398 . S
C712 H700 0.950 . S
C712 C711 1.398 . S
C712 C713 1.391 . S
C713 H701 0.950 . S
C713 C709 1.393 . S
C713 C712 1.391 . S
H714 C722 0.950 . S
H715 C727 0.950 . S
H716 C724 0.950 . S
H717 C726 0.950 1_556 S
H718 C728 0.950 . S
H719 C730 0.950 . S
H720 C732 0.950 . S
H721 C733 0.950 . S
C722 H714 0.950 . S
C722 C723 1.386 . S
C722 C724 1.391 . S
C723 C722 1.386 . S
C723 C727 1.393 . S
C724 H716 0.950 . S
C724 C722 1.391 . S
C724 C725 1.400 1_554 S
C725 C724 1.400 1_556 S
C725 C726 1.398 1_556 S
C725 C731 1.491 . S
C726 H717 0.950 1_554 S
C726 C725 1.398 1_554 S
C726 C727 1.391 . S
C727 H715 0.950 . S
C727 C723 1.393 . S
C727 C726 1.391 . S
C728 H718 0.950 . S
C728 C729 1.386 . S
C728 C730 1.391 . S
C729 C728 1.386 . S
C729 C733 1.393 . S
C730 H719 0.950 . S
C730 C728 1.391 . S
C730 C731 1.400 . S
C731 C725 1.491 . S
C731 C730 1.400 . S
C731 C732 1.398 . S
C732 H720 0.950 . S
C732 C731 1.398 . S
C732 C733 1.391 . S
C733 H721 0.950 . S
C733 C729 1.393 . S
C733 C732 1.391 . S
H734 C742 0.950 . S
H735 C747 0.950 . S
H736 C744 0.950 1_556 S
H737 C746 0.950 . S
H738 C748 0.950 . S
H739 C750 0.950 . S
H740 C752 0.950 . S
H741 C753 0.950 . S
C742 H734 0.950 . S
C742 C743 1.386 . S
C742 C744 1.391 . S
C743 C742 1.386 . S
C743 C747 1.393 . S
C744 H736 0.950 1_554 S
C744 C742 1.391 . S
C744 C745 1.400 1_554 S
C745 C744 1.400 1_556 S
C745 C746 1.398 1_556 S
C745 C751 1.491 . S
C746 H737 0.950 . S
C746 C745 1.398 1_554 S
C746 C747 1.391 . S
C747 H735 0.950 . S
C747 C743 1.393 . S
C747 C746 1.391 . S
C748 H738 0.950 . S
C748 C749 1.386 . S
C748 C750 1.391 . S
C749 C748 1.386 . S
C749 C753 1.393 . S
C750 H739 0.950 . S
C750 C748 1.391 . S
C750 C751 1.400 . S
C751 C745 1.491 . S
C751 C750 1.400 . S
C751 C752 1.398 . S
C752 H740 0.950 . S
C752 C751 1.398 . S
C752 C753 1.391 . S
C753 H741 0.950 . S
C753 C749 1.393 . S
C753 C752 1.391 . S
H754 C762 0.950 . S
H755 C767 0.950 . S
H756 C764 0.950 . S
H757 C766 0.950 . S
H758 C768 0.950 . S
H759 C770 0.950 1_556 S
H760 C772 0.950 . S
H761 C773 0.950 . S
C762 H754 0.950 . S
C762 C763 1.386 . S
C762 C764 1.391 . S
C763 C762 1.386 . S
C763 C767 1.393 . S
C764 H756 0.950 . S
C764 C762 1.391 . S
C764 C765 1.400 . S
C765 C764 1.400 . S
C765 C766 1.398 . S
C765 C771 1.491 . S
C766 H757 0.950 . S
C766 C765 1.398 . S
C766 C767 1.391 . S
C767 H755 0.950 . S
C767 C763 1.393 . S
C767 C766 1.391 . S
C768 H758 0.950 . S
C768 C769 1.386 . S
C768 C770 1.391 . S
C769 C768 1.386 . S
C769 C773 1.393 . S
C770 H759 0.950 1_554 S
C770 C768 1.391 . S
C770 C771 1.400 1_554 S
C771 C765 1.491 . S
C771 C770 1.400 1_556 S
C771 C772 1.398 1_556 S
C772 H760 0.950 . S
C772 C771 1.398 1_554 S
C772 C773 1.391 . S
C773 H761 0.950 . S
C773 C769 1.393 . S
C773 C772 1.391 . S
H774 C782 0.950 . S
H775 C787 0.950 . S
H776 C784 0.950 . S
H777 C786 0.950 . S
H778 C788 0.950 . S
H779 C790 0.950 . S
H780 C792 0.950 . S
H781 C793 0.950 . S
C782 H774 0.950 . S
C782 C783 1.386 . S
C782 C784 1.391 . S
C783 C782 1.386 . S
C783 C787 1.393 . S
C784 H776 0.950 . S
C784 C782 1.391 . S
C784 C785 1.400 . S
C785 C784 1.400 . S
C785 C786 1.398 . S
C785 C791 1.491 . S
C786 H777 0.950 . S
C786 C785 1.398 . S
C786 C787 1.391 . S
C787 H775 0.950 . S
C787 C783 1.393 . S
C787 C786 1.391 . S
C788 H778 0.950 . S
C788 C789 1.386 . S
C788 C790 1.391 . S
C789 C788 1.386 . S
C789 C793 1.393 . S
C790 H779 0.950 . S
C790 C788 1.391 . S
C790 C791 1.400 . S
C791 C785 1.491 . S
C791 C790 1.400 . S
C791 C792 1.398 . S
C792 H780 0.950 . S
C792 C791 1.398 . S
C792 C793 1.391 . S
C793 H781 0.950 . S
C793 C789 1.393 . S
C793 C792 1.391 . S
H794 C802 0.950 . S
H795 C807 0.950 . S
H796 C804 0.950 . S
H797 C806 0.950 . S
H798 C808 0.950 . S
H799 C810 0.950 . S
H800 C812 0.950 . S
H801 C813 0.950 . S
C802 H794 0.950 . S
C802 C803 1.386 . S
C802 C804 1.391 . S
C803 C802 1.386 . S
C803 C807 1.393 . S
C804 H796 0.950 . S
C804 C802 1.391 . S
C804 C805 1.400 . S
C805 C804 1.400 . S
C805 C806 1.398 . S
C805 C811 1.491 . S
C806 H797 0.950 . S
C806 C805 1.398 . S
C806 C807 1.391 . S
C807 H795 0.950 . S
C807 C803 1.393 . S
C807 C806 1.391 . S
C808 H798 0.950 . S
C808 C809 1.386 . S
C808 C810 1.391 . S
C809 C808 1.386 . S
C809 C813 1.393 . S
C810 H799 0.950 . S
C810 C808 1.391 . S
C810 C811 1.400 . S
C811 C805 1.491 . S
C811 C810 1.400 . S
C811 C812 1.398 . S
C812 H800 0.950 . S
C812 C811 1.398 . S
C812 C813 1.391 . S
C813 H801 0.950 . S
C813 C809 1.393 . S
C813 C812 1.391 . S
H814 C822 0.950 . S
H815 C827 0.950 . S
H816 C824 0.950 . S
H817 C826 0.950 . S
H818 C828 0.950 . S
H819 C830 0.950 . S
H820 C832 0.950 . S
H821 C833 0.950 . S
C822 H814 0.950 . S
C822 C823 1.386 . S
C822 C824 1.391 . S
C823 C822 1.386 . S
C823 C827 1.393 . S
C824 H816 0.950 . S
C824 C822 1.391 . S
C824 C825 1.400 . S
C825 C824 1.400 . S
C825 C826 1.398 . S
C825 C831 1.491 . S
C826 H817 0.950 . S
C826 C825 1.398 . S
C826 C827 1.391 . S
C827 H815 0.950 . S
C827 C823 1.393 . S
C827 C826 1.391 . S
C828 H818 0.950 . S
C828 C829 1.386 . S
C828 C830 1.391 . S
C829 C828 1.386 . S
C829 C833 1.393 . S
C830 H819 0.950 . S
C830 C828 1.391 . S
C830 C831 1.400 . S
C831 C825 1.491 . S
C831 C830 1.400 . S
C831 C832 1.398 . S
C832 H820 0.950 . S
C832 C831 1.398 . S
C832 C833 1.391 . S
C833 H821 0.950 . S
C833 C829 1.393 . S
C833 C832 1.391 . S
H834 C842 0.950 . S
H835 C847 0.950 . S
H836 C844 0.950 . S
H837 C846 0.950 . S
H838 C848 0.950 . S
H839 C850 0.950 . S
H840 C852 0.950 . S
H841 C853 0.950 . S
C842 H834 0.950 . S
C842 C843 1.386 . S
C842 C844 1.391 . S
C843 C842 1.386 . S
C843 C847 1.393 . S
C844 H836 0.950 . S
C844 C842 1.391 . S
C844 C845 1.400 . S
C845 C844 1.400 . S
C845 C846 1.398 . S
C845 C851 1.491 . S
C846 H837 0.950 . S
C846 C845 1.398 . S
C846 C847 1.391 . S
C847 H835 0.950 . S
C847 C843 1.393 . S
C847 C846 1.391 . S
C848 H838 0.950 . S
C848 C849 1.386 . S
C848 C850 1.391 . S
C849 C848 1.386 . S
C849 C853 1.393 . S
C850 H839 0.950 . S
C850 C848 1.391 . S
C850 C851 1.400 . S
C851 C845 1.491 . S
C851 C850 1.400 . S
C851 C852 1.398 . S
C852 H840 0.950 . S
C852 C851 1.398 . S
C852 C853 1.391 . S
C853 H841 0.950 . S
C853 C849 1.393 . S
C853 C852 1.391 . S
H854 C862 0.950 . S
H855 C867 0.950 . S
H856 C864 0.950 . S
H857 C866 0.950 . S
H858 C868 0.950 . S
H859 C870 0.950 . S
H860 C872 0.950 . S
H861 C873 0.950 . S
C862 H854 0.950 . S
C862 C863 1.386 . S
C862 C864 1.391 . S
C863 C862 1.386 . S
C863 C867 1.393 . S
C864 H856 0.950 . S
C864 C862 1.391 . S
C864 C865 1.400 . S
C865 C864 1.400 . S
C865 C866 1.398 . S
C865 C871 1.491 . S
C866 H857 0.950 . S
C866 C865 1.398 . S
C866 C867 1.391 . S
C867 H855 0.950 . S
C867 C863 1.393 . S
C867 C866 1.391 . S
C868 H858 0.950 . S
C868 C869 1.386 . S
C868 C870 1.391 . S
C869 C868 1.386 . S
C869 C873 1.393 . S
C870 H859 0.950 . S
C870 C868 1.391 . S
C870 C871 1.400 . S
C871 C865 1.491 . S
C871 C870 1.400 . S
C871 C872 1.398 . S
C872 H860 0.950 . S
C872 C871 1.398 . S
C872 C873 1.391 . S
C873 H861 0.950 . S
C873 C869 1.393 . S
C873 C872 1.391 . S
H874 C882 0.950 . S
H875 C887 0.950 . S
H876 C884 0.950 . S
H877 C886 0.950 . S
H878 C888 0.950 . S
H879 C890 0.950 . S
H880 C892 0.950 . S
H881 C893 0.950 . S
C882 H874 0.950 . S
C882 C883 1.386 . S
C882 C884 1.391 . S
C883 C882 1.386 . S
C883 C887 1.393 . S
C884 H876 0.950 . S
C884 C882 1.391 . S
C884 C885 1.400 . S
C885 C884 1.400 . S
C885 C886 1.398 . S
C885 C891 1.491 . S
C886 H877 0.950 . S
C886 C885 1.398 . S
C886 C887 1.391 . S
C887 H875 0.950 . S
C887 C883 1.393 . S
C887 C886 1.391 . S
C888 H878 0.950 . S
C888 C889 1.386 . S
C888 C890 1.391 . S
C889 C888 1.386 . S
C889 C893 1.393 . S
C890 H879 0.950 . S
C890 C888 1.391 . S
C890 C891 1.400 . S
C891 C885 1.491 . S
C891 C890 1.400 . S
C891 C892 1.398 . S
C892 H880 0.950 . S
C892 C891 1.398 . S
C892 C893 1.391 . S
C893 H881 0.950 . S
C893 C889 1.393 . S
C893 C892 1.391 . S
H894 C902 0.950 . S
H895 C907 0.950 . S
H896 C904 0.950 . S
H897 C906 0.950 . S
H898 C908 0.950 . S
H899 C910 0.950 1_554 S
H900 C912 0.950 . S
H901 C913 0.950 . S
C902 H894 0.950 . S
C902 C903 1.386 . S
C902 C904 1.391 . S
C903 C902 1.386 . S
C903 C907 1.393 . S
C904 H896 0.950 . S
C904 C902 1.391 . S
C904 C905 1.400 . S
C905 C904 1.400 . S
C905 C906 1.398 . S
C905 C911 1.491 . S
C906 H897 0.950 . S
C906 C905 1.398 . S
C906 C907 1.391 . S
C907 H895 0.950 . S
C907 C903 1.393 . S
C907 C906 1.391 . S
C908 H898 0.950 . S
C908 C909 1.386 . S
C908 C910 1.391 . S
C909 C908 1.386 . S
C909 C913 1.393 . S
C910 H899 0.950 1_556 S
C910 C908 1.391 . S
C910 C911 1.400 1_556 S
C911 C905 1.491 . S
C911 C910 1.400 1_554 S
C911 C912 1.398 1_554 S
C912 H900 0.950 . S
C912 C911 1.398 1_556 S
C912 C913 1.391 . S
C913 H901 0.950 . S
C913 C909 1.393 . S
C913 C912 1.391 . S
H914 C922 0.950 . S
H915 C927 0.950 . S
H916 C924 0.950 . S
H917 C926 0.950 . S
H918 C928 0.950 . S
H919 C930 0.950 . S
H920 C932 0.950 1_554 S
H921 C933 0.950 . S
C922 H914 0.950 . S
C922 C923 1.386 . S
C922 C924 1.391 . S
C923 C922 1.386 . S
C923 C927 1.393 . S
C924 H916 0.950 . S
C924 C922 1.391 . S
C924 C925 1.400 . S
C925 C924 1.400 . S
C925 C926 1.398 . S
C925 C931 1.491 . S
C926 H917 0.950 . S
C926 C925 1.398 . S
C926 C927 1.391 . S
C927 H915 0.950 . S
C927 C923 1.393 . S
C927 C926 1.391 . S
C928 H918 0.950 . S
C928 C929 1.386 . S
C928 C930 1.391 . S
C929 C928 1.386 . S
C929 C933 1.393 . S
C930 H919 0.950 . S
C930 C928 1.391 . S
C930 C931 1.400 1_556 S
C931 C925 1.491 . S
C931 C930 1.400 1_554 S
C931 C932 1.398 1_554 S
C932 H920 0.950 1_556 S
C932 C931 1.398 1_556 S
C932 C933 1.391 . S
C933 H921 0.950 . S
C933 C929 1.393 . S
C933 C932 1.391 . S
H934 C942 0.950 . S
H935 C947 0.950 . S
H936 C944 0.950 . S
H937 C946 0.950 1_554 S
H938 C948 0.950 . S
H939 C950 0.950 . S
H940 C952 0.950 . S
H941 C953 0.950 . S
C942 H934 0.950 . S
C942 C943 1.386 . S
C942 C944 1.391 . S
C943 C942 1.386 . S
C943 C947 1.393 . S
C944 H936 0.950 . S
C944 C942 1.391 . S
C944 C945 1.400 1_556 S
C945 C944 1.400 1_554 S
C945 C946 1.398 1_554 S
C945 C951 1.491 . S
C946 H937 0.950 1_556 S
C946 C945 1.398 1_556 S
C946 C947 1.391 . S
C947 H935 0.950 . S
C947 C943 1.393 . S
C947 C946 1.391 . S
C948 H938 0.950 . S
C948 C949 1.386 . S
C948 C950 1.391 . S
C949 C948 1.386 . S
C949 C953 1.393 . S
C950 H939 0.950 . S
C950 C948 1.391 . S
C950 C951 1.400 . S
C951 C945 1.491 . S
C951 C950 1.400 . S
C951 C952 1.398 . S
C952 H940 0.950 . S
C952 C951 1.398 . S
C952 C953 1.391 . S
C953 H941 0.950 . S
C953 C949 1.393 . S
C953 C952 1.391 . S
H954 C962 0.950 . S
H955 C967 0.950 . S
H956 C964 0.950 . S
H957 C966 0.950 . S
H958 C968 0.950 . S
H959 C970 0.950 . S
H960 C972 0.950 . S
H961 C973 0.950 . S
C962 H954 0.950 . S
C962 C963 1.386 . S
C962 C964 1.391 . S
C963 C962 1.386 . S
C963 C967 1.393 . S
C964 H956 0.950 . S
C964 C962 1.391 . S
C964 C965 1.400 . S
C965 C964 1.400 . S
C965 C966 1.398 . S
C965 C971 1.491 . S
C966 H957 0.950 . S
C966 C965 1.398 . S
C966 C967 1.391 . S
C967 H955 0.950 . S
C967 C963 1.393 . S
C967 C966 1.391 . S
C968 H958 0.950 . S
C968 C969 1.386 . S
C968 C970 1.391 . S
C969 C968 1.386 . S
C969 C973 1.393 . S
C970 H959 0.950 . S
C970 C968 1.391 . S
C970 C971 1.400 . S
C971 C965 1.491 . S
C971 C970 1.400 . S
C971 C972 1.398 . S
C972 H960 0.950 . S
C972 C971 1.398 . S
C972 C973 1.391 . S
C973 H961 0.950 . S
C973 C969 1.393 . S
C973 C972 1.391 . S
H974 C982 0.950 . S
H975 C987 0.950 . S
H976 C984 0.950 . S
H977 C986 0.950 . S
H978 C988 0.950 . S
H979 C990 0.950 . S
H980 C992 0.950 . S
H981 C993 0.950 . S
C982 H974 0.950 . S
C982 C983 1.386 . S
C982 C984 1.391 . S
C983 C982 1.386 . S
C983 C987 1.393 . S
C984 H976 0.950 . S
C984 C982 1.391 . S
C984 C985 1.400 . S
C985 C984 1.400 . S
C985 C986 1.398 . S
C985 C991 1.491 . S
C986 H977 0.950 . S
C986 C985 1.398 . S
C986 C987 1.391 . S
C987 H975 0.950 . S
C987 C983 1.393 . S
C987 C986 1.391 . S
C988 H978 0.950 . S
C988 C989 1.386 . S
C988 C990 1.391 . S
C989 C988 1.386 . S
C989 C993 1.393 . S
C990 H979 0.950 . S
C990 C988 1.391 . S
C990 C991 1.400 . S
C991 C985 1.491 . S
C991 C990 1.400 . S
C991 C992 1.398 . S
C992 H980 0.950 . S
C992 C991 1.398 . S
C992 C993 1.391 . S
C993 H981 0.950 . S
C993 C989 1.393 . S
C993 C992 1.391 . S
H994 C1002 0.950 . S
H995 C1007 0.950 . S
H996 C1004 0.950 . S
H997 C1006 0.950 . S
H998 C1008 0.950 . S
H999 C1010 0.950 . S
H1000 C1012 0.950 . S
H1001 C1013 0.950 . S
C1002 H994 0.950 . S
C1002 C1003 1.386 . S
C1002 C1004 1.391 . S
C1003 C1002 1.386 . S
C1003 C1007 1.393 . S
C1004 H996 0.950 . S
C1004 C1002 1.391 . S
C1004 C1005 1.400 . S
C1005 C1004 1.400 . S
C1005 C1006 1.398 . S
C1005 C1011 1.491 . S
C1006 H997 0.950 . S
C1006 C1005 1.398 . S
C1006 C1007 1.391 . S
C1007 H995 0.950 . S
C1007 C1003 1.393 . S
C1007 C1006 1.391 . S
C1008 H998 0.950 . S
C1008 C1009 1.386 . S
C1008 C1010 1.391 . S
C1009 C1008 1.386 . S
C1009 C1013 1.393 . S
C1010 H999 0.950 . S
C1010 C1008 1.391 . S
C1010 C1011 1.400 . S
C1011 C1005 1.491 . S
C1011 C1010 1.400 . S
C1011 C1012 1.398 . S
C1012 H1000 0.950 . S
C1012 C1011 1.398 . S
C1012 C1013 1.391 . S
C1013 H1001 0.950 . S
C1013 C1009 1.393 . S
C1013 C1012 1.391 . S
H1014 C1022 0.950 . S
H1015 C1027 0.950 . S
H1016 C1024 0.950 . S
H1017 C1026 0.950 . S
H1018 C1028 0.950 . S
H1019 C1030 0.950 . S
H1020 C1032 0.950 . S
H1021 C1033 0.950 . S
C1022 H1014 0.950 . S
C1022 C1023 1.386 . S
C1022 C1024 1.391 . S
C1023 C1022 1.386 . S
C1023 C1027 1.393 . S
C1024 H1016 0.950 . S
C1024 C1022 1.391 . S
C1024 C1025 1.400 . S
C1025 C1024 1.400 . S
C1025 C1026 1.398 . S
C1025 C1031 1.491 . S
C1026 H1017 0.950 . S
C1026 C1025 1.398 . S
C1026 C1027 1.391 . S
C1027 H1015 0.950 . S
C1027 C1023 1.393 . S
C1027 C1026 1.391 . S
C1028 H1018 0.950 . S
C1028 C1029 1.386 . S
C1028 C1030 1.391 . S
C1029 C1028 1.386 . S
C1029 C1033 1.393 . S
C1030 H1019 0.950 . S
C1030 C1028 1.391 . S
C1030 C1031 1.400 . S
C1031 C1025 1.491 . S
C1031 C1030 1.400 . S
C1031 C1032 1.398 . S
C1032 H1020 0.950 . S
C1032 C1031 1.398 . S
C1032 C1033 1.391 . S
C1033 H1021 0.950 . S
C1033 C1029 1.393 . S
C1033 C1032 1.391 . S
H1034 C1042 0.950 . S
H1035 C1047 0.950 . S
H1036 C1044 0.950 . S
H1037 C1046 0.950 . S
H1038 C1048 0.950 . S
H1039 C1050 0.950 . S
H1040 C1052 0.950 . S
H1041 C1053 0.950 . S
C1042 H1034 0.950 . S
C1042 C1043 1.386 . S
C1042 C1044 1.391 . S
C1043 C1042 1.386 . S
C1043 C1047 1.393 . S
C1044 H1036 0.950 . S
C1044 C1042 1.391 . S
C1044 C1045 1.400 . S
C1045 C1044 1.400 . S
C1045 C1046 1.398 . S
C1045 C1051 1.491 . S
C1046 H1037 0.950 . S
C1046 C1045 1.398 . S
C1046 C1047 1.391 . S
C1047 H1035 0.950 . S
C1047 C1043 1.393 . S
C1047 C1046 1.391 . S
C1048 H1038 0.950 . S
C1048 C1049 1.386 . S
C1048 C1050 1.391 . S
C1049 C1048 1.386 . S
C1049 C1053 1.393 . S
C1050 H1039 0.950 . S
C1050 C1048 1.391 . S
C1050 C1051 1.400 . S
C1051 C1045 1.491 . S
C1051 C1050 1.400 . S
C1051 C1052 1.398 . S
C1052 H1040 0.950 . S
C1052 C1051 1.398 . S
C1052 C1053 1.391 . S
C1053 H1041 0.950 . S
C1053 C1049 1.393 . S
C1053 C1052 1.391 . S
H1054 C1062 0.950 . S
H1055 C1067 0.950 . S
H1056 C1064 0.950 . S
H1057 C1066 0.950 . S
H1058 C1068 0.950 . S
H1059 C1070 0.950 . S
H1060 C1072 0.950 . S
H1061 C1073 0.950 . S
C1062 H1054 0.950 . S
C1062 C1063 1.386 . S
C1062 C1064 1.391 . S
C1063 C1062 1.386 . S
C1063 C1067 1.393 . S
C1064 H1056 0.950 . S
C1064 C1062 1.391 . S
C1064 C1065 1.400 . S
C1065 C1064 1.400 . S
C1065 C1066 1.398 . S
C1065 C1071 1.491 . S
C1066 H1057 0.950 . S
C1066 C1065 1.398 . S
C1066 C1067 1.391 . S
C1067 H1055 0.950 . S
C1067 C1063 1.393 . S
C1067 C1066 1.391 . S
C1068 H1058 0.950 . S
C1068 C1069 1.386 . S
C1068 C1070 1.391 . S
C1069 C1068 1.386 . S
C1069 C1073 1.393 . S
C1070 H1059 0.950 . S
C1070 C1068 1.391 . S
C1070 C1071 1.400 . S
C1071 C1065 1.491 . S
C1071 C1070 1.400 . S
C1071 C1072 1.398 . S
C1072 H1060 0.950 . S
C1072 C1071 1.398 . S
C1072 C1073 1.391 . S
C1073 H1061 0.950 . S
C1073 C1069 1.393 . S
C1073 C1072 1.391 . S
H1074 C1082 0.950 . S
H1075 C1087 0.950 . S
H1076 C1084 0.950 . S
H1077 C1086 0.950 1_556 S
H1078 C1088 0.950 . S
H1079 C1090 0.950 . S
H1080 C1092 0.950 1_554 S
H1081 C1093 0.950 . S
C1082 H1074 0.950 . S
C1082 C1083 1.386 . S
C1082 C1084 1.391 . S
C1083 C1082 1.386 . S
C1083 C1087 1.393 . S
C1084 H1076 0.950 . S
C1084 C1082 1.391 . S
C1084 C1085 1.400 . S
C1085 C1084 1.400 . S
C1085 C1086 1.398 . S
C1085 C1091 1.491 1_654 S
C1086 H1077 0.950 1_554 S
C1086 C1085 1.398 . S
C1086 C1087 1.391 . S
C1087 H1075 0.950 . S
C1087 C1083 1.393 . S
C1087 C1086 1.391 . S
C1088 H1078 0.950 . S
C1088 C1089 1.386 . S
C1088 C1090 1.391 . S
C1089 C1088 1.386 . S
C1089 C1093 1.393 . S
C1090 H1079 0.950 . S
C1090 C1088 1.391 . S
C1090 C1091 1.400 . S
C1091 C1085 1.491 1_456 S
C1091 C1090 1.400 . S
C1091 C1092 1.398 . S
C1092 H1080 0.950 1_556 S
C1092 C1091 1.398 . S
C1092 C1093 1.391 . S
C1093 H1081 0.950 . S
C1093 C1089 1.393 . S
C1093 C1092 1.391 . S
H1094 C1102 0.950 . S
H1095 C1107 0.950 . S
H1096 C1104 0.950 1_554 S
H1097 C1106 0.950 . S
H1098 C1108 0.950 . S
H1099 C1110 0.950 1_556 S
H1100 C1112 0.950 . S
H1101 C1113 0.950 . S
C1102 H1094 0.950 . S
C1102 C1103 1.386 . S
C1102 C1104 1.391 . S
C1103 C1102 1.386 . S
C1103 C1107 1.393 . S
C1104 H1096 0.950 1_556 S
C1104 C1102 1.391 . S
C1104 C1105 1.400 . S
C1105 C1104 1.400 . S
C1105 C1106 1.398 . S
C1105 C1111 1.491 1_556 S
C1106 H1097 0.950 . S
C1106 C1105 1.398 . S
C1106 C1107 1.391 . S
C1107 H1095 0.950 . S
C1107 C1103 1.393 . S
C1107 C1106 1.391 . S
C1108 H1098 0.950 . S
C1108 C1109 1.386 . S
C1108 C1110 1.391 . S
C1109 C1108 1.386 . S
C1109 C1113 1.393 . S
C1110 H1099 0.950 1_554 S
C1110 C1108 1.391 . S
C1110 C1111 1.400 . S
C1111 C1105 1.491 1_554 S
C1111 C1110 1.400 . S
C1111 C1112 1.398 . S
C1112 H1100 0.950 . S
C1112 C1111 1.398 . S
C1112 C1113 1.391 . S
C1113 H1101 0.950 . S
C1113 C1109 1.393 . S
C1113 C1112 1.391 . S
H1114 C1122 0.950 . S
H1115 C1127 0.950 . S
H1116 C1124 0.950 . S
H1117 C1126 0.950 . S
H1118 C1128 0.950 . S
H1119 C1130 0.950 . S
H1120 C1132 0.950 . S
H1121 C1133 0.950 . S
C1122 H1114 0.950 . S
C1122 C1123 1.386 . S
C1122 C1124 1.391 . S
C1123 C1122 1.386 . S
C1123 C1127 1.393 . S
C1124 H1116 0.950 . S
C1124 C1122 1.391 . S
C1124 C1125 1.400 . S
C1125 C1124 1.400 . S
C1125 C1126 1.398 . S
C1125 C1131 1.491 1_544 S
C1126 H1117 0.950 . S
C1126 C1125 1.398 . S
C1126 C1127 1.391 . S
C1127 H1115 0.950 . S
C1127 C1123 1.393 . S
C1127 C1126 1.391 . S
C1128 H1118 0.950 . S
C1128 C1129 1.386 . S
C1128 C1130 1.391 . S
C1129 C1128 1.386 . S
C1129 C1133 1.393 . S
C1130 H1119 0.950 . S
C1130 C1128 1.391 . S
C1130 C1131 1.400 . S
C1131 C1125 1.491 1_566 S
C1131 C1130 1.400 . S
C1131 C1132 1.398 . S
C1132 H1120 0.950 . S
C1132 C1131 1.398 . S
C1132 C1133 1.391 . S
C1133 H1121 0.950 . S
C1133 C1129 1.393 . S
C1133 C1132 1.391 . S
H1134 C1142 0.950 . S
H1135 C1147 0.950 . S
H1136 C1144 0.950 . S
H1137 C1146 0.950 . S
H1138 C1148 0.950 . S
H1139 C1150 0.950 . S
H1140 C1152 0.950 . S
H1141 C1153 0.950 . S
C1142 H1134 0.950 . S
C1142 C1143 1.386 . S
C1142 C1144 1.391 . S
C1143 C1142 1.386 . S
C1143 C1147 1.393 . S
C1144 H1136 0.950 . S
C1144 C1142 1.391 . S
C1144 C1145 1.400 . S
C1145 C1144 1.400 . S
C1145 C1146 1.398 . S
C1145 C1151 1.491 1_554 S
C1146 H1137 0.950 . S
C1146 C1145 1.398 . S
C1146 C1147 1.391 . S
C1147 H1135 0.950 . S
C1147 C1143 1.393 . S
C1147 C1146 1.391 . S
C1148 H1138 0.950 . S
C1148 C1149 1.386 . S
C1148 C1150 1.391 . S
C1149 C1148 1.386 . S
C1149 C1153 1.393 . S
C1150 H1139 0.950 . S
C1150 C1148 1.391 . S
C1150 C1151 1.400 . S
C1151 C1145 1.491 1_556 S
C1151 C1150 1.400 . S
C1151 C1152 1.398 . S
C1152 H1140 0.950 . S
C1152 C1151 1.398 . S
C1152 C1153 1.391 . S
C1153 H1141 0.950 . S
C1153 C1149 1.393 . S
C1153 C1152 1.391 . S
H1154 C1162 0.950 . S
H1155 C1167 0.950 . S
H1156 C1164 0.950 . S
H1157 C1166 0.950 . S
H1158 C1168 0.950 . S
H1159 C1170 0.950 . S
H1160 C1172 0.950 . S
H1161 C1173 0.950 . S
C1162 H1154 0.950 . S
C1162 C1163 1.386 1_556 S
C1162 C1164 1.391 . S
C1163 C1162 1.386 1_554 S
C1163 C1167 1.393 . S
C1164 H1156 0.950 . S
C1164 C1162 1.391 . S
C1164 C1165 1.400 1_556 S
C1165 C1164 1.400 1_554 S
C1165 C1166 1.398 . S
C1165 C1171 1.491 1_564 S
C1166 H1157 0.950 . S
C1166 C1165 1.398 . S
C1166 C1167 1.391 . S
C1167 H1155 0.950 . S
C1167 C1163 1.393 . S
C1167 C1166 1.391 . S
C1168 H1158 0.950 . S
C1168 C1169 1.386 1_554 S
C1168 C1170 1.391 . S
C1169 C1168 1.386 1_556 S
C1169 C1173 1.393 . S
C1170 H1159 0.950 . S
C1170 C1168 1.391 . S
C1170 C1171 1.400 1_554 S
C1171 C1165 1.491 1_546 S
C1171 C1170 1.400 1_556 S
C1171 C1172 1.398 . S
C1172 H1160 0.950 . S
C1172 C1171 1.398 . S
C1172 C1173 1.391 . S
C1173 H1161 0.950 . S
C1173 C1169 1.393 . S
C1173 C1172 1.391 . S
H1174 C1182 0.950 . S
H1175 C1187 0.950 . S
H1176 C1184 0.950 . S
H1177 C1186 0.950 . S
H1178 C1188 0.950 . S
H1179 C1190 0.950 . S
H1180 C1192 0.950 . S
H1181 C1193 0.950 . S
C1182 H1174 0.950 . S
C1182 C1183 1.386 . S
C1182 C1184 1.391 . S
C1183 C1182 1.386 . S
C1183 C1187 1.393 1_556 S
C1184 H1176 0.950 . S
C1184 C1182 1.391 . S
C1184 C1185 1.400 . S
C1185 C1184 1.400 . S
C1185 C1186 1.398 1_556 S
C1185 C1191 1.491 1_656 S
C1186 H1177 0.950 . S
C1186 C1185 1.398 1_554 S
C1186 C1187 1.391 . S
C1187 H1175 0.950 . S
C1187 C1183 1.393 1_554 S
C1187 C1186 1.391 . S
C1188 H1178 0.950 . S
C1188 C1189 1.386 . S
C1188 C1190 1.391 . S
C1189 C1188 1.386 . S
C1189 C1193 1.393 1_554 S
C1190 H1179 0.950 . S
C1190 C1188 1.391 . S
C1190 C1191 1.400 . S
C1191 C1185 1.491 1_454 S
C1191 C1190 1.400 . S
C1191 C1192 1.398 1_554 S
C1192 H1180 0.950 . S
C1192 C1191 1.398 1_556 S
C1192 C1193 1.391 . S
C1193 H1181 0.950 . S
C1193 C1189 1.393 1_556 S
C1193 C1192 1.391 . S
H1194 C1202 0.950 . S
H1195 C1207 0.950 . S
H1196 C1204 0.950 . S
H1197 C1206 0.950 1_554 S
H1198 C1208 0.950 . S
H1199 C1210 0.950 . S
H1200 C1212 0.950 1_556 S
H1201 C1213 0.950 . S
C1202 H1194 0.950 . S
C1202 C1203 1.386 . S
C1202 C1204 1.391 . S
C1203 C1202 1.386 . S
C1203 C1207 1.393 . S
C1204 H1196 0.950 . S
C1204 C1202 1.391 . S
C1204 C1205 1.400 . S
C1205 C1204 1.400 . S
C1205 C1206 1.398 . S
C1205 C1211 1.491 1_556 S
C1206 H1197 0.950 1_556 S
C1206 C1205 1.398 . S
C1206 C1207 1.391 . S
C1207 H1195 0.950 . S
C1207 C1203 1.393 . S
C1207 C1206 1.391 . S
C1208 H1198 0.950 . S
C1208 C1209 1.386 . S
C1208 C1210 1.391 . S
C1209 C1208 1.386 . S
C1209 C1213 1.393 . S
C1210 H1199 0.950 . S
C1210 C1208 1.391 . S
C1210 C1211 1.400 . S
C1211 C1205 1.491 1_554 S
C1211 C1210 1.400 . S
C1211 C1212 1.398 . S
C1212 H1200 0.950 1_554 S
C1212 C1211 1.398 . S
C1212 C1213 1.391 . S
C1213 H1201 0.950 . S
C1213 C1209 1.393 . S
C1213 C1212 1.391 . S
H1214 C1222 0.950 . S
H1215 C1227 0.950 . S
H1216 C1224 0.950 . S
H1217 C1226 0.950 . S
H1218 C1228 0.950 . S
H1219 C1230 0.950 . S
H1220 C1232 0.950 . S
H1221 C1233 0.950 . S
C1222 H1214 0.950 . S
C1222 C1223 1.386 1_554 S
C1222 C1224 1.391 . S
C1223 C1222 1.386 1_556 S
C1223 C1227 1.393 . S
C1224 H1216 0.950 . S
C1224 C1222 1.391 . S
C1224 C1225 1.400 1_554 S
C1225 C1224 1.400 1_556 S
C1225 C1226 1.398 . S
C1225 C1231 1.491 1_546 S
C1226 H1217 0.950 . S
C1226 C1225 1.398 . S
C1226 C1227 1.391 . S
C1227 H1215 0.950 . S
C1227 C1223 1.393 . S
C1227 C1226 1.391 . S
C1228 H1218 0.950 . S
C1228 C1229 1.386 1_556 S
C1228 C1230 1.391 . S
C1229 C1228 1.386 1_554 S
C1229 C1233 1.393 . S
C1230 H1219 0.950 . S
C1230 C1228 1.391 . S
C1230 C1231 1.400 1_556 S
C1231 C1225 1.491 1_564 S
C1231 C1230 1.400 1_554 S
C1231 C1232 1.398 . S
C1232 H1220 0.950 . S
C1232 C1231 1.398 . S
C1232 C1233 1.391 . S
C1233 H1221 0.950 . S
C1233 C1229 1.393 . S
C1233 C1232 1.391 . S
H1234 C1242 0.950 . S
H1235 C1247 0.950 . S
H1236 C1244 0.950 . S
H1237 C1246 0.950 . S
H1238 C1248 0.950 . S
H1239 C1250 0.950 . S
H1240 C1252 0.950 . S
H1241 C1253 0.950 . S
C1242 H1234 0.950 . S
C1242 C1243 1.386 . S
C1242 C1244 1.391 . S
C1243 C1242 1.386 . S
C1243 C1247 1.393 1_556 S
C1244 H1236 0.950 . S
C1244 C1242 1.391 . S
C1244 C1245 1.400 . S
C1245 C1244 1.400 . S
C1245 C1246 1.398 1_556 S
C1245 C1251 1.491 1_656 S
C1246 H1237 0.950 . S
C1246 C1245 1.398 1_554 S
C1246 C1247 1.391 . S
C1247 H1235 0.950 . S
C1247 C1243 1.393 1_554 S
C1247 C1246 1.391 . S
C1248 H1238 0.950 . S
C1248 C1249 1.386 . S
C1248 C1250 1.391 . S
C1249 C1248 1.386 . S
C1249 C1253 1.393 1_554 S
C1250 H1239 0.950 . S
C1250 C1248 1.391 . S
C1250 C1251 1.400 . S
C1251 C1245 1.491 1_454 S
C1251 C1250 1.400 . S
C1251 C1252 1.398 1_554 S
C1252 H1240 0.950 . S
C1252 C1251 1.398 1_556 S
C1252 C1253 1.391 . S
C1253 H1241 0.950 . S
C1253 C1249 1.393 1_556 S
C1253 C1252 1.391 . S
H1254 C1262 0.950 . S
H1255 C1267 0.950 . S
H1256 C1264 0.950 . S
H1257 C1266 0.950 . S
H1258 C1268 0.950 . S
H1259 C1270 0.950 . S
H1260 C1272 0.950 . S
H1261 C1273 0.950 . S
C1262 H1254 0.950 . S
C1262 C1263 1.386 . S
C1262 C1264 1.391 . S
C1263 C1262 1.386 . S
C1263 C1267 1.393 . S
C1264 H1256 0.950 . S
C1264 C1262 1.391 . S
C1264 C1265 1.400 . S
C1265 C1264 1.400 . S
C1265 C1266 1.398 . S
C1265 C1271 1.491 . S
C1266 H1257 0.950 . S
C1266 C1265 1.398 . S
C1266 C1267 1.391 . S
C1267 H1255 0.950 . S
C1267 C1263 1.393 . S
C1267 C1266 1.391 . S
C1268 H1258 0.950 . S
C1268 C1269 1.386 . S
C1268 C1270 1.391 . S
C1269 C1268 1.386 . S
C1269 C1273 1.393 . S
C1270 H1259 0.950 . S
C1270 C1268 1.391 . S
C1270 C1271 1.400 . S
C1271 C1265 1.491 . S
C1271 C1270 1.400 . S
C1271 C1272 1.398 . S
C1272 H1260 0.950 . S
C1272 C1271 1.398 . S
C1272 C1273 1.391 . S
C1273 H1261 0.950 . S
C1273 C1269 1.393 . S
C1273 C1272 1.391 . S
H1274 C1282 0.950 . S
H1275 C1287 0.950 . S
H1276 C1284 0.950 . S
H1277 C1286 0.950 . S
H1278 C1288 0.950 . S
H1279 C1290 0.950 . S
H1280 C1292 0.950 . S
H1281 C1293 0.950 . S
C1282 H1274 0.950 . S
C1282 C1283 1.386 . S
C1282 C1284 1.391 . S
C1283 C1282 1.386 . S
C1283 C1287 1.393 . S
C1284 H1276 0.950 . S
C1284 C1282 1.391 . S
C1284 C1285 1.400 . S
C1285 C1284 1.400 . S
C1285 C1286 1.398 . S
C1285 C1291 1.491 . S
C1286 H1277 0.950 . S
C1286 C1285 1.398 . S
C1286 C1287 1.391 . S
C1287 H1275 0.950 . S
C1287 C1283 1.393 . S
C1287 C1286 1.391 . S
C1288 H1278 0.950 . S
C1288 C1289 1.386 . S
C1288 C1290 1.391 . S
C1289 C1288 1.386 . S
C1289 C1293 1.393 . S
C1290 H1279 0.950 . S
C1290 C1288 1.391 . S
C1290 C1291 1.400 . S
C1291 C1285 1.491 . S
C1291 C1290 1.400 . S
C1291 C1292 1.398 . S
C1292 H1280 0.950 . S
C1292 C1291 1.398 . S
C1292 C1293 1.391 . S
C1293 H1281 0.950 . S
C1293 C1289 1.393 . S
C1293 C1292 1.391 . S
H1294 C1302 0.950 . S
H1295 C1307 0.950 . S
H1296 C1304 0.950 . S
H1297 C1306 0.950 . S
H1298 C1308 0.950 . S
H1299 C1310 0.950 . S
H1300 C1312 0.950 . S
H1301 C1313 0.950 . S
C1302 H1294 0.950 . S
C1302 C1303 1.386 . S
C1302 C1304 1.391 . S
C1303 C1302 1.386 . S
C1303 C1307 1.393 . S
C1304 H1296 0.950 . S
C1304 C1302 1.391 . S
C1304 C1305 1.400 . S
C1305 C1304 1.400 . S
C1305 C1306 1.398 . S
C1305 C1311 1.491 . S
C1306 H1297 0.950 . S
C1306 C1305 1.398 . S
C1306 C1307 1.391 . S
C1307 H1295 0.950 . S
C1307 C1303 1.393 . S
C1307 C1306 1.391 . S
C1308 H1298 0.950 . S
C1308 C1309 1.386 . S
C1308 C1310 1.391 . S
C1309 C1308 1.386 . S
C1309 C1313 1.393 . S
C1310 H1299 0.950 . S
C1310 C1308 1.391 . S
C1310 C1311 1.400 . S
C1311 C1305 1.491 . S
C1311 C1310 1.400 . S
C1311 C1312 1.398 . S
C1312 H1300 0.950 . S
C1312 C1311 1.398 . S
C1312 C1313 1.391 . S
C1313 H1301 0.950 . S
C1313 C1309 1.393 . S
C1313 C1312 1.391 . S
H1314 C1322 0.950 . S
H1315 C1327 0.950 . S
H1316 C1324 0.950 . S
H1317 C1326 0.950 . S
H1318 C1328 0.950 . S
H1319 C1330 0.950 . S
H1320 C1332 0.950 . S
H1321 C1333 0.950 . S
C1322 H1314 0.950 . S
C1322 C1323 1.386 . S
C1322 C1324 1.391 . S
C1323 C1322 1.386 . S
C1323 C1327 1.393 . S
C1324 H1316 0.950 . S
C1324 C1322 1.391 . S
C1324 C1325 1.400 . S
C1325 C1324 1.400 . S
C1325 C1326 1.398 . S
C1325 C1331 1.491 . S
C1326 H1317 0.950 . S
C1326 C1325 1.398 . S
C1326 C1327 1.391 . S
C1327 H1315 0.950 . S
C1327 C1323 1.393 . S
C1327 C1326 1.391 . S
C1328 H1318 0.950 . S
C1328 C1329 1.386 . S
C1328 C1330 1.391 . S
C1329 C1328 1.386 . S
C1329 C1333 1.393 . S
C1330 H1319 0.950 . S
C1330 C1328 1.391 . S
C1330 C1331 1.400 . S
C1331 C1325 1.491 . S
C1331 C1330 1.400 . S
C1331 C1332 1.398 . S
C1332 H1320 0.950 . S
C1332 C1331 1.398 . S
C1332 C1333 1.391 . S
C1333 H1321 0.950 . S
C1333 C1329 1.393 . S
C1333 C1332 1.391 . S
H1334 C1342 0.950 . S
H1335 C1347 0.950 . S
H1336 C1344 0.950 . S
H1337 C1346 0.950 . S
H1338 C1348 0.950 . S
H1339 C1350 0.950 . S
H1340 C1352 0.950 . S
H1341 C1353 0.950 . S
C1342 H1334 0.950 . S
C1342 C1343 1.386 . S
C1342 C1344 1.391 . S
C1343 C1342 1.386 . S
C1343 C1347 1.393 . S
C1344 H1336 0.950 . S
C1344 C1342 1.391 . S
C1344 C1345 1.400 . S
C1345 C1344 1.400 . S
C1345 C1346 1.398 . S
C1345 C1351 1.491 . S
C1346 H1337 0.950 . S
C1346 C1345 1.398 . S
C1346 C1347 1.391 . S
C1347 H1335 0.950 . S
C1347 C1343 1.393 . S
C1347 C1346 1.391 . S
C1348 H1338 0.950 . S
C1348 C1349 1.386 . S
C1348 C1350 1.391 . S
C1349 C1348 1.386 . S
C1349 C1353 1.393 . S
C1350 H1339 0.950 . S
C1350 C1348 1.391 . S
C1350 C1351 1.400 . S
C1351 C1345 1.491 . S
C1351 C1350 1.400 . S
C1351 C1352 1.398 . S
C1352 H1340 0.950 . S
C1352 C1351 1.398 . S
C1352 C1353 1.391 . S
C1353 H1341 0.950 . S
C1353 C1349 1.393 . S
C1353 C1352 1.391 . S
H1354 C1362 0.950 . S
H1355 C1367 0.950 . S
H1356 C1364 0.950 . S
H1357 C1366 0.950 . S
H1358 C1368 0.950 . S
H1359 C1370 0.950 . S
H1360 C1372 0.950 . S
H1361 C1373 0.950 . S
C1362 H1354 0.950 . S
C1362 C1363 1.386 . S
C1362 C1364 1.391 . S
C1363 C1362 1.386 . S
C1363 C1367 1.393 . S
C1364 H1356 0.950 . S
C1364 C1362 1.391 . S
C1364 C1365 1.400 . S
C1365 C1364 1.400 . S
C1365 C1366 1.398 . S
C1365 C1371 1.491 . S
C1366 H1357 0.950 . S
C1366 C1365 1.398 . S
C1366 C1367 1.391 . S
C1367 H1355 0.950 . S
C1367 C1363 1.393 . S
C1367 C1366 1.391 . S
C1368 H1358 0.950 . S
C1368 C1369 1.386 . S
C1368 C1370 1.391 . S
C1369 C1368 1.386 . S
C1369 C1373 1.393 . S
C1370 H1359 0.950 . S
C1370 C1368 1.391 . S
C1370 C1371 1.400 . S
C1371 C1365 1.491 . S
C1371 C1370 1.400 . S
C1371 C1372 1.398 . S
C1372 H1360 0.950 . S
C1372 C1371 1.398 . S
C1372 C1373 1.391 . S
C1373 H1361 0.950 . S
C1373 C1369 1.393 . S
C1373 C1372 1.391 . S
H1374 C1382 0.950 . S
H1375 C1387 0.950 . S
H1376 C1384 0.950 . S
H1377 C1386 0.950 . S
H1378 C1388 0.950 . S
H1379 C1390 0.950 . S
H1380 C1392 0.950 . S
H1381 C1393 0.950 . S
C1382 H1374 0.950 . S
C1382 C1383 1.386 . S
C1382 C1384 1.391 . S
C1383 C1382 1.386 . S
C1383 C1387 1.393 . S
C1384 H1376 0.950 . S
C1384 C1382 1.391 . S
C1384 C1385 1.400 . S
C1385 C1384 1.400 . S
C1385 C1386 1.398 . S
C1385 C1391 1.491 . S
C1386 H1377 0.950 . S
C1386 C1385 1.398 . S
C1386 C1387 1.391 . S
C1387 H1375 0.950 . S
C1387 C1383 1.393 . S
C1387 C1386 1.391 . S
C1388 H1378 0.950 . S
C1388 C1389 1.386 . S
C1388 C1390 1.391 . S
C1389 C1388 1.386 . S
C1389 C1393 1.393 . S
C1390 H1379 0.950 . S
C1390 C1388 1.391 . S
C1390 C1391 1.400 . S
C1391 C1385 1.491 . S
C1391 C1390 1.400 . S
C1391 C1392 1.398 . S
C1392 H1380 0.950 . S
C1392 C1391 1.398 . S
C1392 C1393 1.391 . S
C1393 H1381 0.950 . S
C1393 C1389 1.393 . S
C1393 C1392 1.391 . S
H1394 C1402 0.950 . S
H1395 C1407 0.950 . S
H1396 C1404 0.950 . S
H1397 C1406 0.950 . S
H1398 C1408 0.950 . S
H1399 C1410 0.950 . S
H1400 C1412 0.950 . S
H1401 C1413 0.950 . S
C1402 H1394 0.950 . S
C1402 C1403 1.386 . S
C1402 C1404 1.391 . S
C1403 C1402 1.386 . S
C1403 C1407 1.393 . S
C1404 H1396 0.950 . S
C1404 C1402 1.391 . S
C1404 C1405 1.400 . S
C1405 C1404 1.400 . S
C1405 C1406 1.398 . S
C1405 C1411 1.491 . S
C1406 H1397 0.950 . S
C1406 C1405 1.398 . S
C1406 C1407 1.391 . S
C1407 H1395 0.950 . S
C1407 C1403 1.393 . S
C1407 C1406 1.391 . S
C1408 H1398 0.950 . S
C1408 C1409 1.386 . S
C1408 C1410 1.391 . S
C1409 C1408 1.386 . S
C1409 C1413 1.393 . S
C1410 H1399 0.950 . S
C1410 C1408 1.391 . S
C1410 C1411 1.400 . S
C1411 C1405 1.491 . S
C1411 C1410 1.400 . S
C1411 C1412 1.398 . S
C1412 H1400 0.950 . S
C1412 C1411 1.398 . S
C1412 C1413 1.391 . S
C1413 H1401 0.950 . S
C1413 C1409 1.393 . S
C1413 C1412 1.391 . S
H1414 C1422 0.950 . S
H1415 C1427 0.950 . S
H1416 C1424 0.950 . S
H1417 C1426 0.950 . S
H1418 C1428 0.950 . S
H1419 C1430 0.950 . S
H1420 C1432 0.950 . S
H1421 C1433 0.950 . S
C1422 H1414 0.950 . S
C1422 C1423 1.386 . S
C1422 C1424 1.391 . S
C1423 C1422 1.386 . S
C1423 C1427 1.393 . S
C1424 H1416 0.950 . S
C1424 C1422 1.391 . S
C1424 C1425 1.400 . S
C1425 C1424 1.400 . S
C1425 C1426 1.398 . S
C1425 C1431 1.491 . S
C1426 H1417 0.950 . S
C1426 C1425 1.398 . S
C1426 C1427 1.391 . S
C1427 H1415 0.950 . S
C1427 C1423 1.393 . S
C1427 C1426 1.391 . S
C1428 H1418 0.950 . S
C1428 C1429 1.386 . S
C1428 C1430 1.391 . S
C1429 C1428 1.386 . S
C1429 C1433 1.393 . S
C1430 H1419 0.950 . S
C1430 C1428 1.391 . S
C1430 C1431 1.400 . S
C1431 C1425 1.491 . S
C1431 C1430 1.400 . S
C1431 C1432 1.398 . S
C1432 H1420 0.950 . S
C1432 C1431 1.398 . S
C1432 C1433 1.391 . S
C1433 H1421 0.950 . S
C1433 C1429 1.393 . S
C1433 C1432 1.391 . S
H1434 C1442 0.950 . S
H1435 C1447 0.950 . S
H1436 C1444 0.950 . S
H1437 C1446 0.950 . S
H1438 C1448 0.950 . S
H1439 C1450 0.950 . S
H1440 C1452 0.950 . S
H1441 C1453 0.950 . S
C1442 H1434 0.950 . S
C1442 C1443 1.386 . S
C1442 C1444 1.391 . S
C1443 C1442 1.386 . S
C1443 C1447 1.393 . S
C1444 H1436 0.950 . S
C1444 C1442 1.391 . S
C1444 C1445 1.400 . S
C1445 C1444 1.400 . S
C1445 C1446 1.398 . S
C1445 C1451 1.491 . S
C1446 H1437 0.950 . S
C1446 C1445 1.398 . S
C1446 C1447 1.391 . S
C1447 H1435 0.950 . S
C1447 C1443 1.393 . S
C1447 C1446 1.391 . S
C1448 H1438 0.950 . S
C1448 C1449 1.386 . S
C1448 C1450 1.391 . S
C1449 C1448 1.386 . S
C1449 C1453 1.393 . S
C1450 H1439 0.950 . S
C1450 C1448 1.391 . S
C1450 C1451 1.400 . S
C1451 C1445 1.491 . S
C1451 C1450 1.400 . S
C1451 C1452 1.398 . S
C1452 H1440 0.950 . S
C1452 C1451 1.398 . S
C1452 C1453 1.391 . S
C1453 H1441 0.950 . S
C1453 C1449 1.393 . S
C1453 C1452 1.391 . S
H1454 C1462 0.950 . S
H1455 C1467 0.950 . S
H1456 C1464 0.950 . S
H1457 C1466 0.950 . S
H1458 C1468 0.950 . S
H1459 C1470 0.950 . S
H1460 C1472 0.950 . S
H1461 C1473 0.950 . S
C1462 H1454 0.950 . S
C1462 C1463 1.386 . S
C1462 C1464 1.391 . S
C1463 C1462 1.386 . S
C1463 C1467 1.393 . S
C1464 H1456 0.950 . S
C1464 C1462 1.391 . S
C1464 C1465 1.400 . S
C1465 C1464 1.400 . S
C1465 C1466 1.398 . S
C1465 C1471 1.491 . S
C1466 H1457 0.950 . S
C1466 C1465 1.398 . S
C1466 C1467 1.391 . S
C1467 H1455 0.950 . S
C1467 C1463 1.393 . S
C1467 C1466 1.391 . S
C1468 H1458 0.950 . S
C1468 C1469 1.386 . S
C1468 C1470 1.391 . S
C1469 C1468 1.386 . S
C1469 C1473 1.393 . S
C1470 H1459 0.950 . S
C1470 C1468 1.391 . S
C1470 C1471 1.400 . S
C1471 C1465 1.491 . S
C1471 C1470 1.400 . S
C1471 C1472 1.398 . S
C1472 H1460 0.950 . S
C1472 C1471 1.398 . S
C1472 C1473 1.391 . S
C1473 H1461 0.950 . S
C1473 C1469 1.393 . S
C1473 C1472 1.391 . S
H1474 C1482 0.950 . S
H1475 C1487 0.950 . S
H1476 C1484 0.950 . S
H1477 C1486 0.950 . S
H1478 C1488 0.950 . S
H1479 C1490 0.950 . S
H1480 C1492 0.950 . S
H1481 C1493 0.950 . S
C1482 H1474 0.950 . S
C1482 C1483 1.386 . S
C1482 C1484 1.391 . S
C1483 C1482 1.386 . S
C1483 C1487 1.393 . S
C1484 H1476 0.950 . S
C1484 C1482 1.391 . S
C1484 C1485 1.400 . S
C1485 C1484 1.400 . S
C1485 C1486 1.398 . S
C1485 C1491 1.491 . S
C1486 H1477 0.950 . S
C1486 C1485 1.398 . S
C1486 C1487 1.391 . S
C1487 H1475 0.950 . S
C1487 C1483 1.393 . S
C1487 C1486 1.391 . S
C1488 H1478 0.950 . S
C1488 C1489 1.386 . S
C1488 C1490 1.391 . S
C1489 C1488 1.386 . S
C1489 C1493 1.393 . S
C1490 H1479 0.950 . S
C1490 C1488 1.391 . S
C1490 C1491 1.400 . S
C1491 C1485 1.491 . S
C1491 C1490 1.400 . S
C1491 C1492 1.398 . S
C1492 H1480 0.950 . S
C1492 C1491 1.398 . S
C1492 C1493 1.391 . S
C1493 H1481 0.950 . S
C1493 C1489 1.393 . S
C1493 C1492 1.391 . S
C603 N13 1.066 . S
C609 N2 1.065 . S
C623 N46 1.071 . S
C629 N35 1.072 . S
C643 N68 1.069 . S
C649 N79 1.069 . S
C663 N112 1.074 . S
C669 N101 1.074 . S
C683 N145 1.073 . S
C689 N134 1.073 . S
C703 N167 1.059 . S
C709 N178 1.060 . S
C723 N200 1.060 . S
C729 N211 1.060 . S
C743 N233 1.073 . S
C749 N244 1.073 . S
C763 N277 1.062 . S
C769 N266 1.062 . S
C783 N310 1.062 . S
C789 N299 1.061 . S
C803 N343 1.063 . S
C809 N332 1.062 . S
C823 N365 1.068 . S
C829 N376 1.068 . S
C843 N398 1.073 . S
C849 N409 1.073 . S
C863 N431 1.059 . S
C869 N442 1.060 . S
C883 N464 1.074 . S
C889 N475 1.074 . S
C903 N508 1.061 . S
C909 N497 1.060 . S
C923 N541 1.074 . S
C929 N530 1.074 . S
C943 N563 1.061 . S
C949 N574 1.062 . S
C963 C579 1.596 . S
C969 C18 1.596 . S
C983 C51 1.599 . S
C989 C513 1.599 . S
C1003 C546 1.589 . S
C1009 C84 1.589 . S
C1023 C249 1.598 . S
C1029 C117 1.598 . S
C1043 C150 1.596 . S
C1049 C282 1.596 . S
C1063 C183 1.581 . S
C1069 C216 1.581 . S
C1083 C315 1.582 . S
C1089 C447 1.582 . S
C1103 C480 1.599 . S
C1109 C348 1.599 . S
C1123 C381 1.581 . S
C1129 C414 1.581 . S
C1143 C7 1.509 . S
C1149 C106 1.509 . S
C1163 C40 1.507 . S
C1169 C139 1.505 . S
C1183 C172 1.506 . S
C1189 C73 1.507 . S
C1203 C186 1.546 . S
C1209 C54 1.546 . S
C1223 C120 1.541 . S
C1229 C87 1.541 . S
C1243 C153 1.539 . S
C1249 C21 1.540 . S
C1263 C304 1.499 . S
C1269 C205 1.498 . S
C1283 C337 1.499 . S
C1289 C238 1.498 . S
C1303 C271 1.509 . S
C1309 C370 1.509 . S
C1323 C384 1.538 . S
C1329 C252 1.538 . S
C1343 C285 1.546 . S
C1349 C318 1.546 . S
C1363 C219 1.538 . S
C1369 C351 1.539 . S
C1383 C502 1.506 . S
C1389 C403 1.508 . S
C1403 C535 1.509 . S
C1409 C436 1.510 . S
C1423 C568 1.499 . S
C1429 C469 1.501 . S
C1443 C450 1.544 . S
C1449 C582 1.544 . S
C1463 C483 1.546 . S
C1469 C516 1.546 . S
C1483 C549 1.539 . S
C1489 C417 1.540 . S
