# Generated by pormake.
# Topology wgb, (5)-cn, num edge types: 1
# Building blocks:
#     Node 0, Type 0, BuildingBlock: XOMCOT_clean_sbu_1, # of connection points: 5
#     Node 1, Type 0, BuildingBlock: XOMCOT_clean_sbu_1, # of connection points: 5
#     Node 2, Type 0, BuildingBlock: XOMCOT_clean_sbu_1, # of connection points: 5
#     Node 3, Type 0, BuildingBlock: XOMCOT_clean_sbu_1, # of connection points: 5
#     Node 4, Type 0, BuildingBlock: XOMCOT_clean_sbu_1, # of connection points: 5
#     Node 5, Type 0, BuildingBlock: XOMCOT_clean_sbu_1, # of connection points: 5
#     Node 6, Type 0, BuildingBlock: XOMCOT_clean_sbu_1, # of connection points: 5
#     Node 7, Type 0, BuildingBlock: XOMCOT_clean_sbu_1, # of connection points: 5
#     Node 8, Type 0, BuildingBlock: XOMCOT_clean_sbu_1, # of connection points: 5
#     Node 9, Type 0, BuildingBlock: XOMCOT_clean_sbu_1, # of connection points: 5
#     Node 10, Type 0, BuildingBlock: XOMCOT_clean_sbu_1, # of connection points: 5
#     Node 11, Type 0, BuildingBlock: XOMCOT_clean_sbu_1, # of connection points: 5
#     Node 12, Type 0, BuildingBlock: XOMCOT_clean_sbu_1, # of connection points: 5
#     Node 13, Type 0, BuildingBlock: XOMCOT_clean_sbu_1, # of connection points: 5
#     Node 14, Type 0, BuildingBlock: XOMCOT_clean_sbu_1, # of connection points: 5
#     Node 15, Type 0, BuildingBlock: XOMCOT_clean_sbu_1, # of connection points: 5
#     Edge 16, Type (0, 0), BuildingBlock: MIFKUJ_clean_linker_0, # of connection points: 2
#     Edge 17, Type (0, 0), BuildingBlock: MIFKUJ_clean_linker_0, # of connection points: 2
#     Edge 18, Type (0, 0), BuildingBlock: MIFKUJ_clean_linker_0, # of connection points: 2
#     Edge 19, Type (0, 0), BuildingBlock: MIFKUJ_clean_linker_0, # of connection points: 2
#     Edge 20, Type (0, 0), BuildingBlock: MIFKUJ_clean_linker_0, # of connection points: 2
#     Edge 21, Type (0, 0), BuildingBlock: MIFKUJ_clean_linker_0, # of connection points: 2
#     Edge 22, Type (0, 0), BuildingBlock: MIFKUJ_clean_linker_0, # of connection points: 2
#     Edge 23, Type (0, 0), BuildingBlock: MIFKUJ_clean_linker_0, # of connection points: 2
#     Edge 24, Type (0, 0), BuildingBlock: MIFKUJ_clean_linker_0, # of connection points: 2
#     Edge 25, Type (0, 0), BuildingBlock: MIFKUJ_clean_linker_0, # of connection points: 2
#     Edge 26, Type (0, 0), BuildingBlock: MIFKUJ_clean_linker_0, # of connection points: 2
#     Edge 27, Type (0, 0), BuildingBlock: MIFKUJ_clean_linker_0, # of connection points: 2
#     Edge 28, Type (0, 0), BuildingBlock: MIFKUJ_clean_linker_0, # of connection points: 2
#     Edge 29, Type (0, 0), BuildingBlock: MIFKUJ_clean_linker_0, # of connection points: 2
#     Edge 30, Type (0, 0), BuildingBlock: MIFKUJ_clean_linker_0, # of connection points: 2
#     Edge 31, Type (0, 0), BuildingBlock: MIFKUJ_clean_linker_0, # of connection points: 2
#     Edge 32, Type (0, 0), BuildingBlock: MIFKUJ_clean_linker_0, # of connection points: 2
#     Edge 33, Type (0, 0), BuildingBlock: MIFKUJ_clean_linker_0, # of connection points: 2
#     Edge 34, Type (0, 0), BuildingBlock: MIFKUJ_clean_linker_0, # of connection points: 2
#     Edge 35, Type (0, 0), BuildingBlock: MIFKUJ_clean_linker_0, # of connection points: 2
#     Edge 36, Type (0, 0), BuildingBlock: MIFKUJ_clean_linker_0, # of connection points: 2
#     Edge 37, Type (0, 0), BuildingBlock: MIFKUJ_clean_linker_0, # of connection points: 2
#     Edge 38, Type (0, 0), BuildingBlock: MIFKUJ_clean_linker_0, # of connection points: 2
#     Edge 39, Type (0, 0), BuildingBlock: MIFKUJ_clean_linker_0, # of connection points: 2
#     Edge 40, Type (0, 0), BuildingBlock: MIFKUJ_clean_linker_0, # of connection points: 2
#     Edge 41, Type (0, 0), BuildingBlock: MIFKUJ_clean_linker_0, # of connection points: 2
#     Edge 42, Type (0, 0), BuildingBlock: MIFKUJ_clean_linker_0, # of connection points: 2
#     Edge 43, Type (0, 0), BuildingBlock: MIFKUJ_clean_linker_0, # of connection points: 2
#     Edge 44, Type (0, 0), BuildingBlock: MIFKUJ_clean_linker_0, # of connection points: 2
#     Edge 45, Type (0, 0), BuildingBlock: MIFKUJ_clean_linker_0, # of connection points: 2
#     Edge 46, Type (0, 0), BuildingBlock: MIFKUJ_clean_linker_0, # of connection points: 2
#     Edge 47, Type (0, 0), BuildingBlock: MIFKUJ_clean_linker_0, # of connection points: 2
#     Edge 48, Type (0, 0), BuildingBlock: MIFKUJ_clean_linker_0, # of connection points: 2
#     Edge 49, Type (0, 0), BuildingBlock: MIFKUJ_clean_linker_0, # of connection points: 2
#     Edge 50, Type (0, 0), BuildingBlock: MIFKUJ_clean_linker_0, # of connection points: 2
#     Edge 51, Type (0, 0), BuildingBlock: MIFKUJ_clean_linker_0, # of connection points: 2
#     Edge 52, Type (0, 0), BuildingBlock: MIFKUJ_clean_linker_0, # of connection points: 2
#     Edge 53, Type (0, 0), BuildingBlock: MIFKUJ_clean_linker_0, # of connection points: 2
#     Edge 54, Type (0, 0), BuildingBlock: MIFKUJ_clean_linker_0, # of connection points: 2
#     Edge 55, Type (0, 0), BuildingBlock: MIFKUJ_clean_linker_0, # of connection points: 2
# Relax obj value: 0.110
# Max RMSD: 0.130
# Mean RMSD: 0.130
data_MOF--net-wgb--node1-XOMCOT_clean_sbu_1--edge1-MIFKUJ_clean_linker_0
_symmetry_space_group_name_H-M    P1
_symmetry_Int_Tables_number       1
_symmetry_cell_setting            triclinic
loop_
_symmetry_equiv_pos_as_xyz
'x, y, z'
_cell_length_a     74.244529
_cell_length_b     74.301127
_cell_length_c     33.40618
_cell_angle_alpha  89.979923
_cell_angle_beta   89.950324
_cell_angle_gamma 89.962067
loop_
_atom_site_label
_atom_site_type_symbol
_atom_site_fract_x
_atom_site_fract_y
_atom_site_fract_z
_atom_type_partial_charge
C0 C 0.36481 0.08279 0.14326 0.0
C1 C 0.3709 0.06535 0.14504 0.0
N2 N 0.3619 0.05688 0.17445 0.0
N3 N 0.35218 0.08533 0.17171 0.0
C4 C 0.35062 0.06923 0.1903 0.0
H5 H 0.36969 0.09321 0.12342 0.0
Co6 Co 0.34271 0.10788 0.18218 0.0
C7 C 0.30847 0.10159 0.22438 0.0
O8 O 0.30113 0.11281 0.19867 0.0
N9 N 0.33398 0.13138 0.19334 0.0
C10 C 0.32649 0.15542 0.22966 0.0
C11 C 0.32923 0.13718 0.23024 0.0
C12 C 0.33476 0.14668 0.17132 0.0
N13 N 0.33009 0.16147 0.19254 0.0
O14 O 0.36064 0.11125 0.22266 0.0
H15 H 0.3287 0.12883 0.25674 0.0
H16 H 0.3401 0.14734 0.14139 0.0
O17 O 0.32533 0.09787 0.22182 0.0
C18 C 0.37354 0.1204 0.20774 0.0
O19 O 0.37209 0.12594 0.17051 0.0
N20 N 0.32665 0.10458 0.13895 0.0
C21 C 0.30681 0.10003 0.06861 0.0
C22 C 0.30388 0.0888 0.10173 0.0
C23 C 0.31437 0.09091 0.13617 0.0
C24 C 0.33066 0.11451 0.10583 0.0
C25 C 0.32065 0.1128 0.07075 0.0
H26 H 0.31278 0.08135 0.16026 0.0
H27 H 0.34223 0.12326 0.10591 0.0
H28 H 0.34207 0.0668 0.216 0.0
H29 H 0.3814 0.0594 0.12681 0.0
H30 H 0.32275 0.16359 0.25513 0.0
H31 H 0.29396 0.07813 0.10061 0.0
H32 H 0.32384 0.12136 0.04546 0.0
C33 C 0.07196 0.65229 0.88422 0.0
C34 C 0.05368 0.65008 0.8807 0.0
N35 N 0.0492 0.65186 0.84182 0.0
N36 N 0.07904 0.65566 0.84781 0.0
C37 C 0.06487 0.65522 0.82249 0.0
H38 H 0.07969 0.65087 0.91145 0.0
Co39 Co 0.10352 0.65777 0.83676 0.0
C40 C 0.10729 0.69061 0.78841 0.0
O41 O 0.12105 0.69475 0.81139 0.0
N42 N 0.1284 0.65913 0.82486 0.0
C43 C 0.1531 0.65859 0.78687 0.0
C44 C 0.13464 0.6586 0.78681 0.0
C45 C 0.14352 0.65894 0.84756 0.0
N46 N 0.15867 0.6588 0.82512 0.0
O47 O 0.1018 0.63873 0.79836 0.0
H48 H 0.12624 0.65802 0.76041 0.0
H49 H 0.14368 0.65875 0.87979 0.0
O50 O 0.09853 0.67602 0.79492 0.0
C51 C 0.101 0.62319 0.81431 0.0
O52 O 0.09978 0.62198 0.85346 0.0
N53 N 0.10509 0.67536 0.8775 0.0
C54 C 0.10422 0.69662 0.94646 0.0
C55 C 0.09559 0.7023 0.91136 0.0
C56 C 0.09573 0.69123 0.87756 0.0
C57 C 0.11281 0.66932 0.91199 0.0
C58 C 0.11284 0.67985 0.94657 0.0
H59 H 0.08754 0.69508 0.85232 0.0
H60 H 0.11813 0.65579 0.91336 0.0
H61 H 0.06613 0.65688 0.79043 0.0
H62 H 0.04456 0.64652 0.9047 0.0
H63 H 0.16173 0.65796 0.76079 0.0
H64 H 0.08803 0.71477 0.91064 0.0
H65 H 0.11922 0.6747 0.97338 0.0
C66 C 0.64784 0.9286 0.12027 0.0
C67 C 0.64212 0.94617 0.12195 0.0
N68 N 0.64619 0.95281 0.15838 0.0
N69 N 0.65559 0.92416 0.15536 0.0
C70 C 0.65433 0.93913 0.17813 0.0
H71 H 0.64655 0.91959 0.09502 0.0
Co72 Co 0.66474 0.90141 0.16639 0.0
C73 C 0.69803 0.90996 0.21145 0.0
O74 O 0.70694 0.90047 0.18478 0.0
N75 N 0.67294 0.87779 0.17776 0.0
C76 C 0.68331 0.85313 0.20825 0.0
C77 C 0.68185 0.87152 0.21031 0.0
C78 C 0.66799 0.86263 0.1581 0.0
N79 N 0.67455 0.84759 0.17539 0.0
O80 O 0.64563 0.89768 0.20401 0.0
H81 H 0.68612 0.87943 0.23563 0.0
H82 H 0.65924 0.86253 0.13222 0.0
O83 O 0.68082 0.91136 0.20876 0.0
C84 C 0.63177 0.89228 0.18494 0.0
O85 O 0.63315 0.89005 0.14602 0.0
N86 N 0.68246 0.9051 0.12585 0.0
C87 C 0.70535 0.9115 0.06076 0.0
C88 C 0.70359 0.92424 0.0914 0.0
C89 C 0.69189 0.92091 0.12333 0.0
C90 C 0.68336 0.89306 0.09509 0.0
C91 C 0.69496 0.8958 0.06279 0.0
H92 H 0.69038 0.93114 0.14609 0.0
H93 H 0.67459 0.8816 0.09426 0.0
H94 H 0.65905 0.93989 0.20871 0.0
H95 H 0.63571 0.95354 0.09792 0.0
H96 H 0.68953 0.84441 0.23025 0.0
H97 H 0.71117 0.93668 0.09076 0.0
H98 H 0.6953 0.88596 0.03886 0.0
C99 C 0.93137 0.36657 0.85583 0.0
C100 C 0.9492 0.36918 0.84699 0.0
N101 N 0.95471 0.35567 0.82309 0.0
N102 N 0.9255 0.35152 0.83761 0.0
C103 C 0.94004 0.34511 0.81759 0.0
H104 H 0.92332 0.37481 0.8756 0.0
Co105 Co 0.90254 0.34295 0.84881 0.0
C106 C 0.89561 0.3108 0.79734 0.0
O107 O 0.88475 0.30452 0.82501 0.0
N108 N 0.87873 0.33507 0.86235 0.0
C109 C 0.85536 0.32302 0.89473 0.0
C110 C 0.87365 0.32522 0.8946 0.0
C111 C 0.8629 0.3388 0.84361 0.0
N112 N 0.84854 0.33159 0.86275 0.0
O113 O 0.89267 0.3611 0.81409 0.0
H114 H 0.88244 0.31963 0.91702 0.0
H115 H 0.86184 0.34654 0.81629 0.0
O116 O 0.90385 0.32576 0.80317 0.0
C117 C 0.88713 0.37506 0.83265 0.0
O118 O 0.88762 0.375 0.87198 0.0
N119 N 0.91292 0.32662 0.88513 0.0
C120 C 0.92454 0.30546 0.94909 0.0
C121 C 0.92524 0.29889 0.90971 0.0
C122 C 0.91969 0.30983 0.87794 0.0
C123 C 0.91386 0.33383 0.92259 0.0
C124 C 0.91939 0.32342 0.95512 0.0
H125 H 0.92081 0.30461 0.848 0.0
H126 H 0.90918 0.34744 0.92754 0.0
H127 H 0.94012 0.3326 0.801 0.0
H128 H 0.95756 0.38008 0.85773 0.0
H129 H 0.8476 0.31599 0.91729 0.0
H130 H 0.92987 0.28534 0.90354 0.0
H131 H 0.91873 0.32915 0.98488 0.0
C132 C 0.3574 0.42759 0.12677 0.0
C133 C 0.3625 0.44533 0.12619 0.0
N134 N 0.35881 0.45214 0.08969 0.0
N135 N 0.35035 0.42317 0.09099 0.0
C136 C 0.35141 0.43836 0.06885 0.0
H137 H 0.35879 0.41839 0.15168 0.0
Co138 Co 0.34276 0.40003 0.07892 0.0
C139 C 0.30944 0.40453 0.03233 0.0
O140 O 0.30213 0.39306 0.05753 0.0
N141 N 0.33606 0.37606 0.06638 0.0
C142 C 0.3304 0.3518 0.0292 0.0
C143 C 0.33217 0.37015 0.02908 0.0
C144 C 0.33755 0.36072 0.08809 0.0
N145 N 0.33385 0.3458 0.0664 0.0
O146 O 0.36217 0.39782 0.04127 0.0
H147 H 0.33147 0.37854 0.00269 0.0
H148 H 0.34265 0.3602 0.11822 0.0
O149 O 0.32605 0.40905 0.03652 0.0
C150 C 0.37611 0.39209 0.0596 0.0
O151 O 0.37469 0.38865 0.09808 0.0
N152 N 0.32486 0.40239 0.11946 0.0
C153 C 0.303 0.40817 0.18679 0.0
C154 C 0.30154 0.41923 0.15292 0.0
C155 C 0.31287 0.41641 0.12008 0.0
C156 C 0.32713 0.39223 0.15307 0.0
C157 C 0.31609 0.39454 0.18655 0.0
H158 H 0.31243 0.42597 0.09573 0.0
H159 H 0.33831 0.38309 0.15529 0.0
H160 H 0.34725 0.43914 0.03787 0.0
H161 H 0.36833 0.45265 0.15099 0.0
H162 H 0.32725 0.34355 0.00347 0.0
H163 H 0.29227 0.43049 0.15242 0.0
H164 H 0.31812 0.38597 0.21237 0.0
C165 C 0.42418 0.64368 0.86552 0.0
C166 C 0.44182 0.63805 0.86635 0.0
N167 N 0.44902 0.64281 0.90185 0.0
N168 N 0.42028 0.65208 0.90017 0.0
C169 C 0.43559 0.65125 0.92185 0.0
H170 H 0.41476 0.64186 0.84117 0.0
Co171 Co 0.39781 0.66145 0.91284 0.0
C172 C 0.40757 0.69573 0.95285 0.0
O173 O 0.39751 0.70425 0.92661 0.0
N174 N 0.37447 0.67003 0.92623 0.0
C175 C 0.35067 0.68081 0.95939 0.0
C176 C 0.36911 0.67961 0.95864 0.0
C177 C 0.35878 0.6646 0.90946 0.0
N178 N 0.34421 0.6713 0.92845 0.0
O179 O 0.39521 0.64354 0.95342 0.0
H180 H 0.37773 0.68439 0.9823 0.0
H181 H 0.35794 0.65521 0.88483 0.0
O182 O 0.4088 0.6785 0.95158 0.0
C183 C 0.38769 0.62981 0.93786 0.0
O184 O 0.38355 0.63037 0.89963 0.0
N185 N 0.40022 0.67788 0.86951 0.0
C186 C 0.40405 0.69826 0.79959 0.0
C187 C 0.41743 0.69853 0.82915 0.0
C188 C 0.41548 0.68789 0.86342 0.0
C189 C 0.3876 0.67685 0.83999 0.0
C190 C 0.38904 0.68715 0.8053 0.0
H191 H 0.42633 0.68757 0.88496 0.0
H192 H 0.37668 0.66745 0.84211 0.0
H193 H 0.43675 0.65647 0.95196 0.0
H194 H 0.44882 0.63121 0.84235 0.0
H195 H 0.3426 0.68722 0.98234 0.0
H196 H 0.42955 0.70646 0.82528 0.0
H197 H 0.37854 0.68624 0.78291 0.0
C198 C 0.64177 0.58133 0.12591 0.0
C199 C 0.63668 0.56357 0.12463 0.0
N200 N 0.64166 0.55666 0.08893 0.0
N201 N 0.65009 0.58564 0.09141 0.0
C202 C 0.64973 0.57043 0.06931 0.0
H203 H 0.63968 0.59055 0.15053 0.0
Co204 Co 0.65904 0.60836 0.07993 0.0
C205 C 0.69355 0.60069 0.03885 0.0
O206 O 0.70146 0.61138 0.06479 0.0
N207 N 0.66733 0.63197 0.06782 0.0
C208 C 0.67759 0.65581 0.034 0.0
C209 C 0.67507 0.63752 0.0332 0.0
C210 C 0.66408 0.64755 0.08775 0.0
N211 N 0.6706 0.66205 0.06831 0.0
O212 O 0.64123 0.61097 0.03919 0.0
H213 H 0.67788 0.62907 0.00766 0.0
H214 H 0.6563 0.64854 0.11496 0.0
O215 O 0.67647 0.59813 0.04082 0.0
C216 C 0.62769 0.61928 0.05366 0.0
O217 O 0.62841 0.62462 0.09113 0.0
N218 N 0.67532 0.60572 0.12329 0.0
C219 C 0.69534 0.60128 0.19344 0.0
C220 C 0.69718 0.58912 0.16163 0.0
C221 C 0.68662 0.59127 0.12732 0.0
C222 C 0.67256 0.61686 0.15511 0.0
C223 C 0.68267 0.61516 0.19004 0.0
H224 H 0.68733 0.58109 0.10428 0.0
H225 H 0.6618 0.62653 0.15456 0.0
H226 H 0.65505 0.5696 0.03923 0.0
H227 H 0.63005 0.5563 0.14851 0.0
H228 H 0.6832 0.66403 0.01031 0.0
H229 H 0.70623 0.57773 0.16379 0.0
H230 H 0.68038 0.62452 0.21438 0.0
C231 C 0.57864 0.36398 0.86618 0.0
C232 C 0.5607 0.36842 0.8681 0.0
N233 N 0.55399 0.36231 0.90307 0.0
N234 N 0.58331 0.35501 0.89962 0.0
C235 C 0.56806 0.35429 0.92178 0.0
H236 H 0.58781 0.36715 0.84201 0.0
Co237 Co 0.60664 0.34691 0.90862 0.0
C238 C 0.60197 0.31263 0.95204 0.0
O239 O 0.61293 0.30537 0.92566 0.0
N240 N 0.63093 0.33959 0.91795 0.0
C241 C 0.65597 0.33151 0.95036 0.0
C242 C 0.63763 0.33362 0.95323 0.0
C243 C 0.64585 0.34212 0.89508 0.0
N244 N 0.66111 0.33691 0.91374 0.0
O245 O 0.60965 0.36516 0.94828 0.0
H246 H 0.62988 0.3317 0.98027 0.0
H247 H 0.64585 0.34848 0.86611 0.0
O248 O 0.59805 0.32943 0.94959 0.0
C249 C 0.61747 0.37871 0.93266 0.0
O250 O 0.62212 0.37783 0.89473 0.0
N251 N 0.60348 0.33014 0.86646 0.0
C252 C 0.59868 0.3084 0.79911 0.0
C253 C 0.58717 0.30679 0.83217 0.0
C254 C 0.58955 0.31807 0.86523 0.0
C255 C 0.61356 0.33297 0.83295 0.0
C256 C 0.6118 0.32192 0.79948 0.0
H257 H 0.58004 0.31721 0.88965 0.0
H258 H 0.62234 0.34443 0.83111 0.0
H259 H 0.56728 0.34793 0.95087 0.0
H260 H 0.5533 0.37592 0.84574 0.0
H261 H 0.66494 0.32721 0.97405 0.0
H262 H 0.57641 0.29695 0.83246 0.0
H263 H 0.62019 0.32439 0.7735 0.0
C264 C 0.85321 0.56981 0.6124 0.0
C265 C 0.85514 0.55152 0.61627 0.0
N266 N 0.85059 0.54677 0.65394 0.0
N267 N 0.8474 0.57673 0.64733 0.0
C268 C 0.84599 0.56242 0.6722 0.0
H269 H 0.85627 0.57768 0.58602 0.0
Co270 Co 0.84436 0.6013 0.65627 0.0
C271 C 0.81164 0.60411 0.70597 0.0
O272 O 0.80616 0.617 0.6819 0.0
N273 N 0.84217 0.62644 0.66578 0.0
C274 C 0.84246 0.65186 0.70122 0.0
C275 C 0.84151 0.63346 0.70308 0.0
C276 C 0.8441 0.64108 0.64179 0.0
N277 N 0.84419 0.65672 0.66261 0.0
O278 O 0.86376 0.60093 0.69355 0.0
H279 H 0.84101 0.62563 0.73036 0.0
H280 H 0.84651 0.64044 0.61003 0.0
O281 O 0.82679 0.59634 0.6995 0.0
C282 C 0.87874 0.60247 0.6753 0.0
O283 O 0.87864 0.60308 0.63597 0.0
N284 N 0.82637 0.60144 0.61646 0.0
C285 C 0.80405 0.59952 0.5493 0.0
C286 C 0.7994 0.5906 0.58484 0.0
C287 C 0.811 0.5913 0.61772 0.0
C288 C 0.83157 0.6092 0.58136 0.0
C289 C 0.82046 0.6088 0.54775 0.0
H290 H 0.80792 0.5831 0.64349 0.0
H291 H 0.84487 0.6149 0.57867 0.0
H292 H 0.84189 0.56355 0.70317 0.0
H293 H 0.86015 0.54256 0.5933 0.0
H294 H 0.84218 0.6609 0.72659 0.0
H295 H 0.78729 0.58252 0.58667 0.0
H296 H 0.82488 0.61543 0.5206 0.0
C297 C 0.57988 0.14512 0.37791 0.0
C298 C 0.56211 0.14008 0.37782 0.0
N299 N 0.55452 0.14583 0.34344 0.0
N300 N 0.58357 0.15414 0.34395 0.0
C301 C 0.5679 0.15434 0.32336 0.0
H302 H 0.58958 0.14243 0.4013 0.0
Co303 Co 0.60646 0.16275 0.33291 0.0
C304 C 0.60099 0.19625 0.28728 0.0
O305 O 0.61216 0.20393 0.31255 0.0
N306 N 0.63031 0.1706 0.32159 0.0
C307 C 0.65482 0.17772 0.28619 0.0
C308 C 0.63653 0.17509 0.2848 0.0
C309 C 0.64543 0.16967 0.34424 0.0
N310 N 0.6604 0.17422 0.32362 0.0
O311 O 0.60947 0.14417 0.29399 0.0
H312 H 0.62844 0.17555 0.25792 0.0
H313 H 0.64584 0.16487 0.37464 0.0
O314 O 0.59702 0.17953 0.2915 0.0
C315 C 0.61837 0.13116 0.30904 0.0
O316 O 0.62402 0.1326 0.34618 0.0
N317 N 0.60333 0.17978 0.37441 0.0
C318 C 0.59783 0.20083 0.44274 0.0
C319 C 0.58685 0.20296 0.40892 0.0
C320 C 0.5895 0.19196 0.37549 0.0
C321 C 0.61309 0.1766 0.40819 0.0
C322 C 0.61097 0.18727 0.44219 0.0
H323 H 0.58008 0.19294 0.35098 0.0
H324 H 0.62186 0.16508 0.40977 0.0
H325 H 0.56645 0.16033 0.29402 0.0
H326 H 0.5553 0.13292 0.40162 0.0
H327 H 0.66349 0.18094 0.26111 0.0
H328 H 0.5759 0.21259 0.40875 0.0
H329 H 0.6194 0.18468 0.46798 0.0
C330 C 0.13137 0.4224 0.64457 0.0
C331 C 0.12607 0.43917 0.65693 0.0
N332 N 0.14016 0.44711 0.6749 0.0
N333 N 0.14865 0.41957 0.65531 0.0
C334 C 0.15379 0.43505 0.67339 0.0
H335 H 0.1231 0.4129 0.62844 0.0
Co336 Co 0.16033 0.398 0.64404 0.0
C337 C 0.1941 0.39764 0.69246 0.0
O338 O 0.20241 0.38979 0.66254 0.0
N339 N 0.1717 0.37541 0.63109 0.0
C340 C 0.18726 0.354 0.59931 0.0
C341 C 0.18397 0.37207 0.6019 0.0
C342 C 0.16802 0.35877 0.64594 0.0
N343 N 0.17703 0.34553 0.62661 0.0
O344 O 0.14377 0.38601 0.67974 0.0
H345 H 0.19053 0.38199 0.58341 0.0
H346 H 0.15839 0.35618 0.66946 0.0
O347 O 0.17744 0.40197 0.68897 0.0
C348 C 0.13066 0.37879 0.66095 0.0
O349 O 0.13121 0.37864 0.62161 0.0
N350 N 0.17456 0.41021 0.60638 0.0
C351 C 0.19375 0.42245 0.53998 0.0
C352 C 0.19952 0.4266 0.57899 0.0
C353 C 0.18947 0.42066 0.61197 0.0
C354 C 0.16769 0.40789 0.56895 0.0
C355 C 0.17719 0.41362 0.53529 0.0
H356 H 0.19396 0.42419 0.64163 0.0
H357 H 0.15536 0.40032 0.56518 0.0
H358 H 0.16712 0.43741 0.68543 0.0
H359 H 0.11296 0.44524 0.65249 0.0
H360 H 0.1964 0.3476 0.57844 0.0
H361 H 0.21183 0.43408 0.58397 0.0
H362 H 0.17206 0.41018 0.50595 0.0
C363 C 0.43262 0.85268 0.3832 0.0
C364 C 0.45093 0.85498 0.3812 0.0
N365 N 0.45628 0.85226 0.34309 0.0
N366 N 0.42631 0.84842 0.34662 0.0
C367 C 0.44101 0.84832 0.32269 0.0
H368 H 0.42432 0.85461 0.40947 0.0
Co369 Co 0.40194 0.84578 0.33452 0.0
C370 C 0.39966 0.81346 0.2838 0.0
O371 O 0.38595 0.80829 0.3059 0.0
N372 N 0.37711 0.84384 0.3218 0.0
C373 C 0.35256 0.84457 0.28341 0.0
C374 C 0.37103 0.84461 0.28369 0.0
C375 C 0.36185 0.84368 0.3442 0.0
N376 N 0.34675 0.84404 0.32153 0.0
O377 O 0.40349 0.86522 0.29707 0.0
H378 H 0.37955 0.84543 0.25748 0.0
H379 H 0.36158 0.84408 0.37642 0.0
O380 O 0.40774 0.82827 0.29183 0.0
C381 C 0.40491 0.88079 0.31267 0.0
O382 O 0.40648 0.88217 0.35171 0.0
N383 N 0.40056 0.82773 0.37417 0.0
C384 C 0.4015 0.80575 0.44197 0.0
C385 C 0.41044 0.80063 0.40683 0.0
C386 C 0.41028 0.81207 0.37365 0.0
C387 C 0.39253 0.83323 0.40876 0.0
C388 C 0.39254 0.82234 0.44278 0.0
H389 H 0.41871 0.80868 0.34844 0.0
H390 H 0.38692 0.84663 0.4107 0.0
H391 H 0.4404 0.84577 0.29085 0.0
H392 H 0.45947 0.85912 0.40574 0.0
H393 H 0.3441 0.84498 0.25707 0.0
H394 H 0.41824 0.78831 0.40568 0.0
H395 H 0.38593 0.82706 0.46974 0.0
C396 C 0.86957 0.92603 0.61861 0.0
C397 C 0.87469 0.94341 0.61123 0.0
N398 N 0.86534 0.94959 0.57947 0.0
N399 N 0.85697 0.92105 0.59193 0.0
C400 C 0.85456 0.9357 0.56833 0.0
H401 H 0.87455 0.91754 0.64247 0.0
Co402 Co 0.84725 0.89806 0.59557 0.0
C403 C 0.81233 0.89938 0.55185 0.0
O404 O 0.80482 0.89071 0.58167 0.0
N405 N 0.838 0.87381 0.60121 0.0
C406 C 0.8246 0.8496 0.6278 0.0
C407 C 0.82537 0.86799 0.62767 0.0
C408 C 0.84447 0.85822 0.58525 0.0
N409 N 0.83664 0.84345 0.60126 0.0
O410 O 0.86383 0.89031 0.55514 0.0
H411 H 0.81719 0.87637 0.64678 0.0
H412 H 0.85542 0.85746 0.56401 0.0
O413 O 0.82905 0.90361 0.55372 0.0
C414 C 0.87851 0.8848 0.57077 0.0
O415 O 0.87947 0.88367 0.60998 0.0
N416 N 0.83285 0.90631 0.63782 0.0
C417 C 0.81443 0.91507 0.7078 0.0
C418 C 0.80909 0.9224 0.67087 0.0
C419 C 0.81882 0.91819 0.63617 0.0
C420 C 0.83935 0.90074 0.67386 0.0
C421 C 0.83023 0.90473 0.70915 0.0
H422 H 0.81491 0.92429 0.60817 0.0
H423 H 0.85131 0.89242 0.67489 0.0
H424 H 0.8452 0.93615 0.54355 0.0
H425 H 0.88429 0.951 0.62874 0.0
H426 H 0.81629 0.84131 0.64702 0.0
H427 H 0.7973 0.93091 0.66858 0.0
H428 H 0.83536 0.89949 0.73717 0.0
C429 C 0.92503 0.13925 0.37628 0.0
C430 C 0.94209 0.13228 0.38015 0.0
N431 N 0.94906 0.13803 0.41514 0.0
N432 N 0.92124 0.14947 0.4085 0.0
C433 C 0.93603 0.14831 0.43195 0.0
H434 H 0.91598 0.1372 0.35135 0.0
Co435 Co 0.89962 0.16184 0.41501 0.0
C436 C 0.91653 0.19312 0.46125 0.0
O437 O 0.91795 0.20331 0.42937 0.0
N438 N 0.8773 0.17384 0.42187 0.0
C439 C 0.85623 0.19503 0.42783 0.0
C440 C 0.87436 0.19152 0.42899 0.0
C441 C 0.86057 0.16692 0.41674 0.0
N442 N 0.84757 0.17956 0.41997 0.0
O443 O 0.89266 0.14416 0.45417 0.0
H444 H 0.88459 0.20161 0.43276 0.0
H445 H 0.85794 0.15312 0.40852 0.0
O446 O 0.90993 0.17719 0.45848 0.0
C447 C 0.88562 0.13041 0.43744 0.0
O448 O 0.88337 0.13061 0.39843 0.0
N449 N 0.90621 0.17777 0.37241 0.0
C450 C 0.91453 0.19711 0.30268 0.0
C451 C 0.92791 0.1931 0.33087 0.0
C452 C 0.92358 0.18304 0.36495 0.0
C453 C 0.8933 0.18082 0.34406 0.0
C454 C 0.89706 0.19071 0.30955 0.0
H455 H 0.93423 0.17975 0.38571 0.0
H456 H 0.87998 0.17519 0.34734 0.0
H457 H 0.9374 0.15523 0.46027 0.0
H458 H 0.94879 0.12356 0.35888 0.0
H459 H 0.84993 0.20808 0.4315 0.0
H460 H 0.94172 0.19731 0.3262 0.0
H461 H 0.88634 0.19322 0.2883 0.0
C462 C 0.14644 0.0719 0.65389 0.0
C463 C 0.14332 0.05369 0.65212 0.0
N464 N 0.14749 0.04787 0.61502 0.0
N465 N 0.15268 0.07758 0.6182 0.0
C466 C 0.1531 0.0627 0.59502 0.0
H467 H 0.14393 0.08057 0.6793 0.0
Co468 Co 0.15738 0.10143 0.60563 0.0
C469 C 0.19011 0.1011 0.55604 0.0
O470 O 0.19612 0.11419 0.57887 0.0
N471 N 0.16136 0.1259 0.59222 0.0
C472 C 0.16286 0.14997 0.55257 0.0
C473 C 0.16108 0.13164 0.55382 0.0
C474 C 0.16295 0.14128 0.61384 0.0
N475 N 0.16406 0.15608 0.59037 0.0
O476 O 0.13774 0.10114 0.5685 0.0
H477 H 0.1593 0.123 0.52807 0.0
H478 H 0.16303 0.14185 0.64604 0.0
O479 O 0.17459 0.09417 0.56307 0.0
C480 C 0.12322 0.10558 0.58632 0.0
O481 O 0.124 0.10914 0.62483 0.0
N482 N 0.17539 0.10149 0.64547 0.0
C483 C 0.19748 0.09974 0.71309 0.0
C484 C 0.20158 0.0897 0.67872 0.0
C485 C 0.19007 0.09035 0.64565 0.0
C486 C 0.17064 0.11038 0.67954 0.0
C487 C 0.18166 0.11005 0.71333 0.0
H488 H 0.19266 0.08135 0.62095 0.0
H489 H 0.15779 0.11716 0.68114 0.0
H490 H 0.15725 0.06282 0.56397 0.0
H491 H 0.1378 0.04554 0.676 0.0
H492 H 0.16261 0.15819 0.52583 0.0
H493 H 0.21316 0.08083 0.678 0.0
H494 H 0.17767 0.11762 0.73958 0.0
C495 C 0.07894 0.85832 0.36694 0.0
C496 C 0.06111 0.86331 0.36804 0.0
N497 N 0.05445 0.85952 0.40472 0.0
N498 N 0.08357 0.85123 0.40255 0.0
C499 C 0.06847 0.85227 0.42508 0.0
H500 H 0.08795 0.85956 0.34163 0.0
Co501 Co 0.10642 0.84254 0.41536 0.0
C502 C 0.09679 0.80858 0.45747 0.0
O503 O 0.10665 0.79955 0.43168 0.0
N504 N 0.13 0.8346 0.42899 0.0
C505 C 0.15382 0.82416 0.46232 0.0
C506 C 0.1354 0.82515 0.46146 0.0
C507 C 0.14568 0.84013 0.41216 0.0
N508 N 0.16041 0.83363 0.43124 0.0
O509 O 0.10871 0.86088 0.45504 0.0
H510 H 0.1268 0.82012 0.48493 0.0
H511 H 0.14627 0.84961 0.38768 0.0
O512 O 0.09579 0.82578 0.45504 0.0
C513 C 0.11406 0.87532 0.43822 0.0
O514 O 0.11685 0.87507 0.39935 0.0
N515 N 0.10436 0.82558 0.37294 0.0
C516 C 0.10092 0.80445 0.30401 0.0
C517 C 0.08748 0.80433 0.33349 0.0
C518 C 0.08924 0.81532 0.36725 0.0
C519 C 0.11708 0.82639 0.34354 0.0
C520 C 0.11582 0.81574 0.30933 0.0
H521 H 0.07833 0.81574 0.38867 0.0
H522 H 0.12794 0.83589 0.34534 0.0
H523 H 0.06791 0.84792 0.45594 0.0
H524 H 0.05363 0.86897 0.34329 0.0
H525 H 0.16163 0.81727 0.48494 0.0
H526 H 0.07544 0.79627 0.32992 0.0
H527 H 0.12637 0.81653 0.28699 0.0
H528 H 0.31784 0.09455 0.30235 0.0
H529 H 0.29711 0.08871 0.35815 0.0
H530 H 0.25252 0.08705 0.27536 0.0
H531 H 0.27304 0.0936 0.22021 0.0
H532 H 0.24392 0.1079 0.33212 0.0
H533 H 0.26887 0.0491 0.32767 0.0
H534 H 0.29274 0.02615 0.32606 0.0
H535 H 0.31067 0.04264 0.4426 0.0
H536 H 0.28712 0.06606 0.44448 0.0
H537 H 0.17988 0.08648 0.48399 0.0
H538 H 0.19951 0.08034 0.42613 0.0
H539 H 0.24598 0.09518 0.49603 0.0
H540 H 0.22655 0.10158 0.55329 0.0
H541 H 0.25187 0.06479 0.44412 0.0
H542 H 0.22836 0.12597 0.44205 0.0
H543 H 0.20376 0.1483 0.44236 0.0
H544 H 0.18204 0.12509 0.33506 0.0
H545 H 0.20637 0.10242 0.33452 0.0
C546 C 0.30368 0.09251 0.29611 0.0
C547 C 0.29702 0.09458 0.25706 0.0
C548 C 0.2918 0.08916 0.32799 0.0
C549 C 0.27315 0.08742 0.32113 0.0
C550 C 0.26676 0.08849 0.28166 0.0
C551 C 0.27852 0.09214 0.25009 0.0
C552 C 0.26008 0.08603 0.355 0.0
C553 C 0.24554 0.09817 0.35607 0.0
C554 C 0.26218 0.07359 0.38684 0.0
C555 C 0.27631 0.05946 0.38605 0.0
C556 C 0.27799 0.04795 0.35283 0.0
C557 C 0.29147 0.03482 0.3519 0.0
C558 C 0.30324 0.03291 0.38423 0.0
C559 C 0.30155 0.04414 0.41757 0.0
C560 C 0.28814 0.05735 0.41858 0.0
C561 C 0.19431 0.08807 0.48713 0.0
C562 C 0.20169 0.09468 0.52293 0.0
C563 C 0.2055 0.08459 0.45413 0.0
C564 C 0.22421 0.08739 0.45679 0.0
C565 C 0.23163 0.09288 0.49334 0.0
C566 C 0.22047 0.09665 0.52594 0.0
C567 C 0.23592 0.08656 0.42075 0.0
C568 C 0.25022 0.0742 0.41956 0.0
C569 C 0.23352 0.09863 0.38847 0.0
C570 C 0.21904 0.11238 0.38852 0.0
C571 C 0.21825 0.12554 0.41872 0.0
C572 C 0.20437 0.13827 0.41891 0.0
C573 C 0.19132 0.13808 0.38882 0.0
C574 C 0.19214 0.12519 0.3584 0.0
C575 C 0.20597 0.1124 0.35814 0.0
H576 H 0.18058 0.14795 0.38901 0.0
H577 H 0.31364 0.0227 0.3835 0.0
H578 H 0.09517 0.82044 0.53486 0.0
H579 H 0.09114 0.80157 0.59456 0.0
H580 H 0.0794 0.75587 0.51953 0.0
H581 H 0.08387 0.77451 0.45989 0.0
H582 H 0.05886 0.75862 0.5984 0.0
H583 H 0.11896 0.75859 0.53855 0.0
H584 H 0.14545 0.77458 0.51173 0.0
H585 H 0.15324 0.80059 0.62516 0.0
H586 H 0.12651 0.78504 0.65237 0.0
H587 H 0.08642 0.68437 0.72173 0.0
H588 H 0.07978 0.70566 0.66743 0.0
H589 H 0.10878 0.74721 0.73054 0.0
H590 H 0.11592 0.726 0.78364 0.0
H591 H 0.11908 0.74755 0.65797 0.0
H592 H 0.06136 0.74635 0.72139 0.0
H593 H 0.03387 0.7326 0.7493 0.0
H594 H 0.02064 0.71099 0.63382 0.0
H595 H 0.04821 0.72441 0.6053 0.0
C596 C 0.09112 0.80653 0.53119 0.0
C597 C 0.08996 0.79886 0.49288 0.0
C598 C 0.08885 0.79577 0.56525 0.0
C599 C 0.08505 0.77732 0.56134 0.0
C600 C 0.08223 0.77008 0.52314 0.0
C601 C 0.08488 0.78072 0.48915 0.0
C602 C 0.08708 0.76505 0.59601 0.0
C603 C 0.07199 0.75606 0.61145 0.0
C604 C 0.1042 0.76198 0.6132 0.0
C605 C 0.12064 0.77081 0.59734 0.0
C606 C 0.12625 0.76782 0.55768 0.0
C607 C 0.1413 0.7768 0.5424 0.0
C608 C 0.15099 0.78864 0.56669 0.0
C609 C 0.14569 0.79145 0.60636 0.0
C610 C 0.13059 0.78256 0.62172 0.0
C611 C 0.09122 0.6981 0.72404 0.0
C612 C 0.10181 0.70346 0.75677 0.0
C613 C 0.08736 0.71029 0.69311 0.0
C614 C 0.09371 0.72814 0.69485 0.0
C615 C 0.10382 0.73354 0.7282 0.0
C616 C 0.10789 0.72135 0.75864 0.0
C617 C 0.09077 0.74103 0.66125 0.0
C618 C 0.10582 0.75009 0.64554 0.0
C619 C 0.07356 0.74428 0.64432 0.0
C620 C 0.05695 0.73623 0.6613 0.0
C621 C 0.05267 0.73854 0.70201 0.0
C622 C 0.03706 0.73083 0.71793 0.0
C623 C 0.02554 0.72088 0.69338 0.0
C624 C 0.02959 0.71868 0.65282 0.0
C625 C 0.0452 0.72635 0.63675 0.0
H626 H 0.01346 0.71492 0.70576 0.0
H627 H 0.16263 0.79559 0.5548 0.0
H628 H 0.82246 0.91207 0.47731 0.0
H629 H 0.8026 0.91829 0.42003 0.0
H630 H 0.75629 0.90503 0.49228 0.0
H631 H 0.77582 0.89851 0.54868 0.0
H632 H 0.75406 0.88837 0.42388 0.0
H633 H 0.7669 0.94899 0.4652 0.0
H634 H 0.78654 0.97463 0.48218 0.0
H635 H 0.80874 0.97398 0.36346 0.0
H636 H 0.78941 0.94815 0.34593 0.0
H637 H 0.6859 0.91324 0.28885 0.0
H638 H 0.70474 0.9167 0.34881 0.0
H639 H 0.75167 0.92351 0.27419 0.0
H640 H 0.73301 0.92003 0.21454 0.0
H641 H 0.7533 0.94458 0.3437 0.0
H642 H 0.74178 0.88321 0.30405 0.0
H643 H 0.72202 0.85779 0.28624 0.0
H644 H 0.69752 0.85994 0.40263 0.0
H645 H 0.7169 0.88565 0.42082 0.0
C646 C 0.80804 0.91064 0.48096 0.0
C647 C 0.80078 0.90465 0.5175 0.0
C648 C 0.79668 0.91425 0.44826 0.0
C649 C 0.77788 0.91215 0.45179 0.0
C650 C 0.7707 0.90663 0.4886 0.0
C651 C 0.78196 0.90292 0.52094 0.0
C652 C 0.76557 0.91484 0.41705 0.0
C653 C 0.75375 0.9008 0.40684 0.0
C654 C 0.76535 0.93087 0.39406 0.0
C655 C 0.77684 0.94652 0.40439 0.0
C656 C 0.77607 0.95423 0.4428 0.0
C657 C 0.78713 0.96881 0.45251 0.0
C658 C 0.79891 0.97589 0.42396 0.0
C659 C 0.79962 0.96845 0.38557 0.0
C660 C 0.7886 0.95385 0.37572 0.0
C661 C 0.70012 0.91605 0.28531 0.0
C662 C 0.70803 0.91619 0.24711 0.0
C663 C 0.7109 0.91794 0.31953 0.0
C664 C 0.72967 0.92012 0.31594 0.0
C665 C 0.73727 0.92182 0.27772 0.0
C666 C 0.72658 0.91974 0.24366 0.0
C667 C 0.7417 0.91825 0.35128 0.0
C668 C 0.75354 0.93229 0.36123 0.0
C669 C 0.74199 0.90222 0.37415 0.0
C670 C 0.73064 0.88648 0.36364 0.0
C671 C 0.73209 0.87834 0.32575 0.0
C672 C 0.72097 0.86388 0.31558 0.0
C673 C 0.70849 0.85728 0.34325 0.0
C674 C 0.70716 0.86509 0.3812 0.0
C675 C 0.71821 0.87961 0.39145 0.0
H676 H 0.69988 0.84609 0.33532 0.0
H677 H 0.80748 0.98717 0.43155 0.0
H678 H 0.88127 0.27795 0.78088 0.0
H679 H 0.88838 0.25773 0.72601 0.0
H680 H 0.92625 0.29629 0.67898 0.0
H681 H 0.9192 0.3169 0.73457 0.0
H682 H 0.90399 0.28123 0.62024 0.0
H683 H 0.94194 0.26014 0.72563 0.0
H684 H 0.94918 0.25023 0.79419 0.0
H685 H 0.91282 0.20566 0.78215 0.0
H686 H 0.90512 0.21546 0.7137 0.0
H687 H 0.93819 0.22154 0.47746 0.0
H688 H 0.93786 0.24054 0.53696 0.0
H689 H 0.89997 0.20455 0.59323 0.0
H690 H 0.9004 0.18523 0.53348 0.0
H691 H 0.92445 0.21879 0.64763 0.0
H692 H 0.88478 0.24078 0.54542 0.0
H693 H 0.87664 0.25055 0.47726 0.0
H694 H 0.91529 0.2934 0.48401 0.0
H695 H 0.92389 0.28369 0.55203 0.0
C696 C 0.89114 0.28227 0.75901 0.0
C697 C 0.89973 0.2991 0.76236 0.0
C698 C 0.89524 0.27057 0.72765 0.0
C699 C 0.90805 0.27533 0.69869 0.0
C700 C 0.9164 0.2923 0.70119 0.0
C701 C 0.91235 0.30406 0.73292 0.0
C702 C 0.91234 0.26251 0.66575 0.0
C703 C 0.90882 0.26771 0.62617 0.0
C704 C 0.91814 0.24467 0.67356 0.0
C705 C 0.92285 0.23862 0.71461 0.0
C706 C 0.93538 0.2483 0.73769 0.0
C707 C 0.93958 0.24269 0.77653 0.0
C708 C 0.93144 0.22735 0.79254 0.0
C709 C 0.91911 0.21755 0.76971 0.0
C710 C 0.91483 0.22312 0.73087 0.0
C711 C 0.93007 0.21742 0.50281 0.0
C712 C 0.91919 0.20196 0.50061 0.0
C713 C 0.92984 0.22836 0.53677 0.0
C714 C 0.91857 0.22423 0.56921 0.0
C715 C 0.9087 0.20807 0.56843 0.0
C716 C 0.909 0.19699 0.53436 0.0
C717 C 0.91607 0.23751 0.60216 0.0
C718 C 0.91982 0.23238 0.6417 0.0
C719 C 0.91038 0.25541 0.59439 0.0
C720 C 0.90511 0.26139 0.55365 0.0
C721 C 0.89164 0.25221 0.53226 0.0
C722 C 0.88693 0.25774 0.49366 0.0
C723 C 0.89547 0.27256 0.47627 0.0
C724 C 0.90871 0.28191 0.4975 0.0
C725 C 0.9135 0.2764 0.53608 0.0
H726 H 0.89181 0.27683 0.44639 0.0
H727 H 0.93471 0.22303 0.82262 0.0
H728 H 0.27403 0.41262 0.03411 0.0
H729 H 0.25381 0.41657 0.97724 0.0
H730 H 0.29904 0.41301 0.89644 0.0
H731 H 0.31951 0.40967 0.95391 0.0
H732 H 0.2741 0.43603 0.86755 0.0
H733 H 0.27361 0.37587 0.91902 0.0
H734 H 0.27085 0.35241 0.97089 0.0
H735 H 0.21634 0.36875 0.99406 0.0
H736 H 0.21887 0.39251 0.94271 0.0
H737 H 0.23056 0.39897 0.69833 0.0
H738 H 0.24883 0.40517 0.75708 0.0
H739 H 0.20077 0.41343 0.82725 0.0
H740 H 0.18213 0.40726 0.76782 0.0
H741 H 0.22568 0.39004 0.86298 0.0
H742 H 0.22623 0.44879 0.80444 0.0
H743 H 0.22995 0.47093 0.7501 0.0
H744 H 0.28541 0.45559 0.73696 0.0
H745 H 0.28196 0.43315 0.79083 0.0
C746 C 0.27972 0.41312 0.00425 0.0
C747 C 0.29831 0.41073 0.99834 0.0
C748 C 0.26813 0.41526 0.97173 0.0
C749 C 0.27479 0.41456 0.93242 0.0
C750 C 0.29355 0.41346 0.92647 0.0
C751 C 0.30526 0.41162 0.95927 0.0
C752 C 0.26204 0.41352 0.89799 0.0
C753 C 0.26362 0.42589 0.8664 0.0
C754 C 0.24811 0.40046 0.89665 0.0
C755 C 0.24649 0.38609 0.92731 0.0
C756 C 0.26107 0.37454 0.93537 0.0
C757 C 0.25955 0.36118 0.96465 0.0
C758 C 0.24344 0.35912 0.98583 0.0
C759 C 0.22881 0.37039 0.97768 0.0
C760 C 0.23028 0.3838 0.94847 0.0
C761 C 0.22377 0.40221 0.72611 0.0
C762 C 0.20483 0.40254 0.72837 0.0
C763 C 0.2343 0.40588 0.7597 0.0
C764 C 0.22622 0.40992 0.79654 0.0
C765 C 0.20729 0.41042 0.79903 0.0
C766 C 0.19667 0.40693 0.76509 0.0
C767 C 0.23771 0.41256 0.83258 0.0
C768 C 0.23599 0.40036 0.86439 0.0
C769 C 0.25163 0.4256 0.83376 0.0
C770 C 0.25379 0.43918 0.80152 0.0
C771 C 0.23919 0.45003 0.78977 0.0
C772 C 0.24126 0.46266 0.75908 0.0
C773 C 0.2579 0.46465 0.74004 0.0
C774 C 0.27252 0.45404 0.75172 0.0
C775 C 0.27053 0.44137 0.78238 0.0
H776 H 0.25947 0.47443 0.71628 0.0
H777 H 0.24228 0.34877 0.00849 0.0
H778 H 0.39543 0.77728 0.27861 0.0
H779 H 0.4033 0.75759 0.22275 0.0
H780 H 0.42525 0.80289 0.1585 0.0
H781 H 0.41772 0.82276 0.21507 0.0
H782 H 0.39835 0.7814 0.11643 0.0
H783 H 0.4537 0.77401 0.1883 0.0
H784 H 0.47236 0.76781 0.24772 0.0
H785 H 0.44972 0.71479 0.25649 0.0
H786 H 0.43069 0.72077 0.19746 0.0
H787 H 0.42067 0.72963 0.95099 0.0
H788 H 0.4258 0.74957 0.00793 0.0
H789 H 0.41396 0.70591 0.08898 0.0
H790 H 0.40954 0.68566 0.0317 0.0
H791 H 0.43839 0.72791 0.1218 0.0
H792 H 0.38103 0.73509 0.05886 0.0
H793 H 0.36006 0.74007 0.00275 0.0
H794 H 0.38339 0.79208 0.98153 0.0
H795 H 0.40471 0.78728 0.03716 0.0
C796 C 0.40212 0.78305 0.25279 0.0
C797 C 0.40589 0.80158 0.25108 0.0
C798 C 0.40669 0.77175 0.221 0.0
C799 C 0.41492 0.77876 0.18659 0.0
C800 C 0.41898 0.79722 0.18493 0.0
C801 C 0.41472 0.80853 0.21721 0.0
C802 C 0.41788 0.76693 0.15143 0.0
C803 C 0.40743 0.76995 0.11718 0.0
C804 C 0.42916 0.75158 0.15322 0.0
C805 C 0.44066 0.7479 0.18861 0.0
C806 C 0.45258 0.76108 0.20309 0.0
C807 C 0.46325 0.7576 0.23667 0.0
C808 C 0.4622 0.74093 0.25592 0.0
C809 C 0.45051 0.7277 0.24156 0.0
C810 C 0.43979 0.73112 0.20801 0.0
C811 C 0.41966 0.72417 0.98099 0.0
C812 C 0.41457 0.70617 0.98703 0.0
C813 C 0.42249 0.73559 0.01352 0.0
C814 C 0.41974 0.7294 0.05276 0.0
C815 C 0.41604 0.71104 0.05897 0.0
C816 C 0.41356 0.69946 0.02627 0.0
C817 C 0.41891 0.74244 0.08658 0.0
C818 C 0.42957 0.73954 0.1207 0.0
C819 C 0.4075 0.75774 0.08515 0.0
C820 C 0.3946 0.76074 0.05188 0.0
C821 C 0.38178 0.74754 0.04204 0.0
C822 C 0.36982 0.75033 0.01035 0.0
C823 C 0.37042 0.76636 0.98852 0.0
C824 C 0.38296 0.77966 0.99842 0.0
C825 C 0.39499 0.77691 0.03003 0.0
H826 H 0.36115 0.76851 0.96399 0.0
H827 H 0.47047 0.73826 0.28192 0.0
H828 H 0.72816 0.58951 0.04164 0.0
H829 H 0.74833 0.58403 0.98517 0.0
H830 H 0.70417 0.5923 0.90327 0.0
H831 H 0.6837 0.59699 0.9602 0.0
H832 H 0.72675 0.56811 0.87299 0.0
H833 H 0.73282 0.62691 0.92952 0.0
H834 H 0.7375 0.64922 0.98314 0.0
H835 H 0.79008 0.62743 0.00606 0.0
H836 H 0.78559 0.60479 0.95294 0.0
H837 H 0.77533 0.60778 0.71071 0.0
H838 H 0.75575 0.60108 0.76757 0.0
H839 H 0.8015 0.58184 0.83454 0.0
H840 H 0.82126 0.5882 0.77704 0.0
H841 H 0.77945 0.60919 0.87328 0.0
H842 H 0.77311 0.55209 0.80811 0.0
H843 H 0.76725 0.5319 0.75107 0.0
H844 H 0.71377 0.55335 0.73993 0.0
H845 H 0.71941 0.57388 0.79654 0.0
C846 C 0.72267 0.5897 0.0116 0.0
C847 C 0.70444 0.59381 0.00518 0.0
C848 C 0.73422 0.58668 0.97932 0.0
C849 C 0.72792 0.58829 0.93986 0.0
C850 C 0.70939 0.59111 0.93342 0.0
C851 C 0.6977 0.59375 0.96591 0.0
C852 C 0.7409 0.58865 0.90582 0.0
C853 C 0.7382 0.57717 0.87297 0.0
C854 C 0.75599 0.60036 0.90579 0.0
C855 C 0.75879 0.61403 0.93755 0.0
C856 C 0.74533 0.6268 0.94618 0.0
C857 C 0.74795 0.6395 0.97646 0.0
C858 C 0.76406 0.63971 0.99806 0.0
C859 C 0.77759 0.62723 0.98935 0.0
C860 C 0.77502 0.61446 0.95915 0.0
C861 C 0.78123 0.60193 0.73737 0.0
C862 C 0.79985 0.59859 0.73953 0.0
C863 C 0.76999 0.59803 0.76975 0.0
C864 C 0.77715 0.5909 0.80518 0.0
C865 C 0.79571 0.58726 0.80734 0.0
C866 C 0.80696 0.59086 0.77453 0.0
C867 C 0.76534 0.58862 0.84069 0.0
C868 C 0.76817 0.59991 0.87367 0.0
C869 C 0.75021 0.57704 0.84034 0.0
C870 C 0.74674 0.56464 0.8064 0.0
C871 C 0.76015 0.55262 0.79329 0.0
C872 C 0.75686 0.54109 0.76107 0.0
C873 C 0.74016 0.54137 0.74183 0.0
C874 C 0.7267 0.55315 0.75484 0.0
C875 C 0.72994 0.56473 0.78703 0.0
H876 H 0.73763 0.53243 0.71689 0.0
H877 H 0.76606 0.64956 0.02149 0.0
H878 H 0.59664 0.23242 0.28447 0.0
H879 H 0.59059 0.25107 0.22592 0.0
H880 H 0.5851 0.20339 0.15335 0.0
H881 H 0.59108 0.18451 0.21242 0.0
H882 H 0.60984 0.22808 0.12333 0.0
H883 H 0.54896 0.22904 0.16982 0.0
H884 H 0.52463 0.23286 0.21933 0.0
H885 H 0.53961 0.28818 0.23562 0.0
H886 H 0.56422 0.28463 0.18663 0.0
H887 H 0.59484 0.277 0.94882 0.0
H888 H 0.58868 0.25667 0.00449 0.0
H889 H 0.58889 0.30165 0.08613 0.0
H890 H 0.59443 0.32226 0.02977 0.0
H891 H 0.56464 0.27695 0.1098 0.0
H892 H 0.62677 0.27596 0.07128 0.0
H893 H 0.6524 0.27308 0.0247 0.0
H894 H 0.63668 0.21884 0.99748 0.0
H895 H 0.61078 0.2215 0.04347 0.0
C896 C 0.5938 0.22586 0.25621 0.0
C897 C 0.59439 0.207 0.25297 0.0
C898 C 0.59025 0.23656 0.22278 0.0
C899 C 0.58733 0.22865 0.18524 0.0
C900 C 0.58726 0.20977 0.1821 0.0
C901 C 0.59057 0.199 0.21583 0.0
C902 C 0.5862 0.24025 0.14902 0.0
C903 C 0.59969 0.23849 0.11989 0.0
C904 C 0.57339 0.2543 0.14537 0.0
C905 C 0.55854 0.25652 0.17473 0.0
C906 C 0.54717 0.24198 0.18418 0.0
C907 C 0.5333 0.24411 0.21212 0.0
C908 C 0.53059 0.26075 0.23067 0.0
C909 C 0.54172 0.2753 0.22124 0.0
C910 C 0.55562 0.27324 0.19334 0.0
C911 C 0.59326 0.28261 0.97855 0.0
C912 C 0.59532 0.30118 0.98509 0.0
C913 C 0.5898 0.27096 0.01039 0.0
C914 C 0.58882 0.27753 0.04972 0.0
C915 C 0.58971 0.29624 0.05609 0.0
C916 C 0.59286 0.30801 0.02392 0.0
C917 C 0.58826 0.26472 0.08406 0.0
C918 C 0.5746 0.26636 0.11294 0.0
C919 C 0.60109 0.25068 0.08795 0.0
C920 C 0.61673 0.24899 0.06049 0.0
C921 C 0.62871 0.26346 0.05514 0.0
C922 C 0.64329 0.26187 0.02888 0.0
C923 C 0.64614 0.24581 0.00806 0.0
C924 C 0.63444 0.23129 0.01357 0.0
C925 C 0.61981 0.23282 0.03974 0.0
H926 H 0.65743 0.2446 0.98774 0.0
H927 H 0.51985 0.26237 0.25229 0.0
H928 H 0.33789 0.31592 0.02004 0.0
H929 H 0.33759 0.28468 0.04197 0.0
H930 H 0.33153 0.30186 0.16446 0.0
H931 H 0.33127 0.33329 0.14277 0.0
H932 H 0.35762 0.27429 0.15322 0.0
H933 H 0.29594 0.28715 0.11837 0.0
H934 H 0.27166 0.29787 0.07401 0.0
H935 H 0.28602 0.258 0.98659 0.0
H936 H 0.31058 0.24721 0.0302 0.0
H937 H 0.33275 0.19141 0.23927 0.0
H938 H 0.33374 0.22254 0.21727 0.0
H939 H 0.33083 0.20528 0.09418 0.0
H940 H 0.3288 0.17399 0.11604 0.0
H941 H 0.30976 0.23307 0.10498 0.0
H942 H 0.37089 0.21964 0.13772 0.0
H943 H 0.39604 0.20886 0.17954 0.0
H944 H 0.38417 0.24931 0.26744 0.0
H945 H 0.35876 0.26018 0.22644 0.0
C946 C 0.33631 0.31318 0.05162 0.0
C947 C 0.33445 0.32727 0.07955 0.0
C948 C 0.33625 0.29525 0.06411 0.0
C949 C 0.3344 0.29098 0.10477 0.0
C950 C 0.333 0.30491 0.13291 0.0
C951 C 0.33292 0.32289 0.12043 0.0
C952 C 0.33358 0.27192 0.11769 0.0
C953 C 0.34704 0.2653 0.14317 0.0
C954 C 0.32006 0.26013 0.1035 0.0
C955 C 0.30521 0.2665 0.07739 0.0
C956 C 0.29402 0.28077 0.08955 0.0
C957 C 0.28019 0.28684 0.06457 0.0
C958 C 0.27733 0.27865 0.02746 0.0
C959 C 0.28827 0.26434 0.01532 0.0
C960 C 0.30213 0.25823 0.04017 0.0
C961 C 0.33209 0.19411 0.20752 0.0
C962 C 0.33073 0.18002 0.17948 0.0
C963 C 0.33291 0.212 0.19494 0.0
C964 C 0.3327 0.21627 0.15403 0.0
C965 C 0.33113 0.20231 0.12592 0.0
C966 C 0.33014 0.18439 0.13849 0.0
C967 C 0.33381 0.23532 0.1407 0.0
C968 C 0.32039 0.24198 0.11508 0.0
C969 C 0.3475 0.24709 0.15443 0.0
C970 C 0.36281 0.24062 0.17915 0.0
C971 C 0.37355 0.22615 0.16611 0.0
C972 C 0.38787 0.22004 0.18965 0.0
C973 C 0.39167 0.22837 0.22615 0.0
C974 C 0.38119 0.24286 0.23917 0.0
C975 C 0.36684 0.24901 0.21578 0.0
H976 H 0.40278 0.22365 0.24427 0.0
H977 H 0.26662 0.28337 0.00816 0.0
H978 H 0.1874 0.67351 0.78807 0.0
H979 H 0.21878 0.67218 0.80937 0.0
H980 H 0.20322 0.64188 0.91404 0.0
H981 H 0.17164 0.64335 0.89288 0.0
H982 H 0.22718 0.66625 0.93378 0.0
H983 H 0.22364 0.62091 0.83521 0.0
H984 H 0.21588 0.60713 0.77036 0.0
H985 H 0.25072 0.64435 0.70975 0.0
H986 H 0.25851 0.65853 0.7742 0.0
H987 H 0.32938 0.64034 0.9013 0.0
H988 H 0.29738 0.63472 0.88831 0.0
H989 H 0.28511 0.68957 0.92124 0.0
H990 H 0.31692 0.69492 0.93552 0.0
H991 H 0.27465 0.647 0.83824 0.0
H992 H 0.24459 0.69386 0.96176 0.0
H993 H 0.25207 0.70384 0.03016 0.0
H994 H 0.28404 0.65633 0.04789 0.0
H995 H 0.27655 0.64594 0.97983 0.0
C996 C 0.19067 0.66647 0.81548 0.0
C997 C 0.17707 0.65844 0.83866 0.0
C998 C 0.20861 0.66569 0.82762 0.0
C999 C 0.21341 0.65664 0.86292 0.0
C1000 C 0.19983 0.64889 0.88661 0.0
C1001 C 0.1818 0.64978 0.87459 0.0
C1002 C 0.2326 0.65559 0.87507 0.0
C1003 C 0.23756 0.66196 0.91301 0.0
C1004 C 0.24611 0.64941 0.84847 0.0
C1005 C 0.24157 0.64086 0.80956 0.0
C1006 C 0.22956 0.62624 0.80804 0.0
C1007 C 0.22516 0.61835 0.77135 0.0
C1008 C 0.23277 0.62488 0.73596 0.0
C1009 C 0.24483 0.6393 0.7372 0.0
C1010 C 0.24926 0.64726 0.77381 0.0
C1011 C 0.3198 0.65115 0.90565 0.0
C1012 C 0.32555 0.66804 0.91958 0.0
C1013 C 0.30154 0.64795 0.89833 0.0
C1014 C 0.28873 0.66162 0.90448 0.0
C1015 C 0.29459 0.67863 0.91741 0.0
C1016 C 0.31277 0.68173 0.92537 0.0
C1017 C 0.26931 0.65834 0.89644 0.0
C1018 C 0.26429 0.65113 0.85925 0.0
C1019 C 0.25573 0.66316 0.92431 0.0
C1020 C 0.2601 0.66919 0.96554 0.0
C1021 C 0.25313 0.68549 0.98033 0.0
C1022 C 0.25739 0.69123 0.01903 0.0
C1023 C 0.26856 0.68075 0.04332 0.0
C1024 C 0.27544 0.66447 0.029 0.0
C1025 C 0.2712 0.65866 0.99034 0.0
H1026 H 0.27185 0.68523 0.07325 0.0
H1027 H 0.22934 0.61876 0.70758 0.0
H1028 H 0.64434 0.83205 0.14608 0.0
H1029 H 0.64079 0.80034 0.12598 0.0
H1030 H 0.69655 0.79045 0.15459 0.0
H1031 H 0.69997 0.82189 0.17561 0.0
H1032 H 0.68063 0.77814 0.07193 0.0
H1033 H 0.67301 0.77639 0.21858 0.0
H1034 H 0.65766 0.78606 0.28047 0.0
H1035 H 0.60696 0.7684 0.2329 0.0
H1036 H 0.622 0.75884 0.17047 0.0
H1037 H 0.69749 0.68605 0.06797 0.0
H1038 H 0.69566 0.71796 0.0854 0.0
H1039 H 0.63884 0.71199 0.10998 0.0
H1040 H 0.64111 0.67968 0.09498 0.0
H1041 H 0.65106 0.73359 0.16107 0.0
H1042 H 0.6563 0.73198 0.02004 0.0
H1043 H 0.66849 0.72342 0.95406 0.0
H1044 H 0.71876 0.74886 0.98273 0.0
H1045 H 0.70696 0.75736 0.04913 0.0
C1046 C 0.6558 0.82307 0.14783 0.0
C1047 C 0.67242 0.82929 0.16237 0.0
C1048 C 0.65376 0.80503 0.13653 0.0
C1049 C 0.66843 0.79316 0.13889 0.0
C1050 C 0.6851 0.79946 0.15262 0.0
C1051 C 0.68702 0.81732 0.16473 0.0
C1052 C 0.66654 0.77406 0.12741 0.0
C1053 C 0.67428 0.76831 0.09138 0.0
C1054 C 0.65754 0.76152 0.15208 0.0
C1055 C 0.64859 0.76709 0.18975 0.0
C1056 C 0.65857 0.77473 0.22118 0.0
C1057 C 0.64993 0.78015 0.25639 0.0
C1058 C 0.63134 0.77788 0.26058 0.0
C1059 C 0.62135 0.77016 0.22959 0.0
C1060 C 0.62993 0.76472 0.19432 0.0
C1061 C 0.68468 0.69163 0.07731 0.0
C1062 C 0.66943 0.68059 0.08003 0.0
C1063 C 0.68356 0.70987 0.08692 0.0
C1064 C 0.66698 0.71761 0.09787 0.0
C1065 C 0.65177 0.70643 0.10141 0.0
C1066 C 0.65303 0.68802 0.09286 0.0
C1067 C 0.66569 0.73732 0.10577 0.0
C1068 C 0.65728 0.74328 0.14111 0.0
C1069 C 0.67362 0.75018 0.07973 0.0
C1070 C 0.68077 0.7452 0.0397 0.0
C1071 C 0.66999 0.73566 0.01238 0.0
C1072 C 0.67683 0.73082 0.97489 0.0
C1073 C 0.6944 0.73556 0.96424 0.0
C1074 C 0.70515 0.74519 0.99103 0.0
C1075 C 0.69839 0.75004 0.02858 0.0
H1076 H 0.69967 0.7318 0.9352 0.0
H1077 H 0.62469 0.78203 0.28789 0.0
H1078 H 0.82302 0.3065 0.87502 0.0
H1079 H 0.7906 0.31023 0.86865 0.0
H1080 H 0.79843 0.36395 0.82268 0.0
H1081 H 0.83123 0.36033 0.83011 0.0
H1082 H 0.77348 0.36398 0.88004 0.0
H1083 H 0.78184 0.33061 0.76174 0.0
H1084 H 0.79344 0.30667 0.71762 0.0
H1085 H 0.76597 0.26681 0.78788 0.0
H1086 H 0.75442 0.29047 0.83282 0.0
H1087 H 0.67585 0.3628 0.86662 0.0
H1088 H 0.70735 0.36454 0.84398 0.0
H1089 H 0.71887 0.31458 0.9045 0.0
H1090 H 0.68758 0.31291 0.92741 0.0
H1091 H 0.73306 0.31709 0.82447 0.0
H1092 H 0.72981 0.35161 0.94859 0.0
H1093 H 0.71827 0.37622 0.99099 0.0
H1094 H 0.73607 0.41507 0.9044 0.0
H1095 H 0.74749 0.39064 0.8612 0.0
C1096 C 0.81787 0.31905 0.86319 0.0
C1097 C 0.82966 0.33315 0.85329 0.0
C1098 C 0.7993 0.32112 0.85917 0.0
C1099 C 0.79199 0.33731 0.84478 0.0
C1100 C 0.80375 0.3513 0.83367 0.0
C1101 C 0.82246 0.34919 0.83761 0.0
C1102 C 0.77208 0.33976 0.84466 0.0
C1103 C 0.76463 0.35399 0.86691 0.0
C1104 C 0.76045 0.3267 0.82776 0.0
C1105 C 0.76732 0.31235 0.8008 0.0
C1106 C 0.77836 0.31673 0.76797 0.0
C1107 C 0.78492 0.30321 0.74278 0.0
C1108 C 0.78046 0.28523 0.74997 0.0
C1109 C 0.76941 0.28074 0.78234 0.0
C1110 C 0.76282 0.29422 0.80765 0.0
C1111 C 0.6851 0.35213 0.8747 0.0
C1112 C 0.67932 0.33773 0.89885 0.0
C1113 C 0.70306 0.35318 0.86192 0.0
C1114 C 0.71543 0.33969 0.87261 0.0
C1115 C 0.70954 0.3251 0.89585 0.0
C1116 C 0.69172 0.32422 0.90914 0.0
C1117 C 0.7347 0.34086 0.86097 0.0
C1118 C 0.74195 0.32731 0.83658 0.0
C1119 C 0.7461 0.35465 0.87542 0.0
C1120 C 0.73926 0.3693 0.90142 0.0
C1121 C 0.73109 0.36539 0.93841 0.0
C1122 C 0.72461 0.3793 0.96262 0.0
C1123 C 0.72637 0.39719 0.95032 0.0
C1124 C 0.73467 0.40121 0.91384 0.0
C1125 C 0.74115 0.38733 0.88948 0.0
H1126 H 0.72135 0.40795 0.96912 0.0
H1127 H 0.78555 0.27478 0.73043 0.0
H1128 H 0.84704 0.82174 0.66076 0.0
H1129 H 0.85259 0.78932 0.65702 0.0
H1130 H 0.84299 0.79063 0.52971 0.0
H1131 H 0.83774 0.82345 0.53357 0.0
H1132 H 0.82245 0.76417 0.57346 0.0
H1133 H 0.88352 0.7818 0.55649 0.0
H1134 H 0.91121 0.79889 0.57089 0.0
H1135 H 0.91355 0.77563 0.68845 0.0
H1136 H 0.8857 0.75861 0.67503 0.0
H1137 H 0.8368 0.66914 0.5876 0.0
H1138 H 0.83954 0.70017 0.5636 0.0
H1139 H 0.85903 0.71653 0.67963 0.0
H1140 H 0.85724 0.68562 0.70298 0.0
H1141 H 0.87712 0.73356 0.62501 0.0
H1142 H 0.81368 0.72174 0.64819 0.0
H1143 H 0.78495 0.70572 0.63797 0.0
H1144 H 0.78631 0.71892 0.51284 0.0
H1145 H 0.81518 0.73485 0.52229 0.0
C1146 C 0.84646 0.81512 0.63192 0.0
C1147 C 0.84204 0.82496 0.59743 0.0
C1148 C 0.84965 0.79665 0.62974 0.0
C1149 C 0.84828 0.78756 0.59306 0.0
C1150 C 0.84419 0.79742 0.55827 0.0
C1151 C 0.8413 0.81608 0.56038 0.0
C1152 C 0.84993 0.76763 0.59243 0.0
C1153 C 0.83456 0.75739 0.58366 0.0
C1154 C 0.86559 0.75887 0.60661 0.0
C1155 C 0.88245 0.76898 0.61478 0.0
C1156 C 0.88986 0.78041 0.58553 0.0
C1157 C 0.9056 0.79008 0.5935 0.0
C1158 C 0.91412 0.78836 0.63058 0.0
C1159 C 0.90693 0.77694 0.65973 0.0
C1160 C 0.89118 0.76726 0.65193 0.0
C1161 C 0.84192 0.67929 0.60781 0.0
C1162 C 0.84654 0.67482 0.64747 0.0
C1163 C 0.84333 0.69709 0.59414 0.0
C1164 C 0.84921 0.71083 0.61997 0.0
C1165 C 0.85439 0.70626 0.65908 0.0
C1166 C 0.85312 0.68852 0.67262 0.0
C1167 C 0.84943 0.73009 0.60736 0.0
C1168 C 0.86515 0.74023 0.61377 0.0
C1169 C 0.83401 0.7388 0.5915 0.0
C1170 C 0.81667 0.72926 0.58584 0.0
C1171 C 0.80791 0.7211 0.61845 0.0
C1172 C 0.7916 0.71206 0.61281 0.0
C1173 C 0.78385 0.71125 0.57475 0.0
C1174 C 0.79236 0.71952 0.54228 0.0
C1175 C 0.80869 0.72856 0.54776 0.0
H1176 H 0.77122 0.70425 0.57044 0.0
H1177 H 0.92631 0.79586 0.63669 0.0
H1178 H 0.82572 0.20347 0.38359 0.0
H1179 H 0.79342 0.2007 0.3723 0.0
H1180 H 0.79382 0.14841 0.42864 0.0
H1181 H 0.82651 0.15099 0.4389 0.0
H1182 H 0.77268 0.14744 0.3664 0.0
H1183 H 0.77741 0.18666 0.47786 0.0
H1184 H 0.78841 0.2124 0.51742 0.0
H1185 H 0.767 0.24907 0.43019 0.0
H1186 H 0.75609 0.22353 0.38978 0.0
H1187 H 0.67546 0.15084 0.37625 0.0
H1188 H 0.70707 0.15007 0.39781 0.0
H1189 H 0.71841 0.19624 0.32373 0.0
H1190 H 0.6869 0.19699 0.302 0.0
H1191 H 0.73253 0.19821 0.40351 0.0
H1192 H 0.73003 0.15709 0.29045 0.0
H1193 H 0.71844 0.13055 0.25443 0.0
H1194 H 0.73482 0.09638 0.35151 0.0
H1195 H 0.74628 0.12277 0.38837 0.0
C1196 C 0.81891 0.19143 0.39381 0.0
C1197 C 0.82857 0.17755 0.41262 0.0
C1198 C 0.80042 0.18986 0.38743 0.0
C1199 C 0.79103 0.17455 0.40056 0.0
C1200 C 0.80072 0.16042 0.41851 0.0
C1201 C 0.81936 0.16188 0.42436 0.0
C1202 C 0.77117 0.17342 0.39498 0.0
C1203 C 0.76388 0.1584 0.37524 0.0
C1204 C 0.75959 0.18772 0.40634 0.0
C1205 C 0.76604 0.20316 0.43065 0.0
C1206 C 0.77514 0.20021 0.46697 0.0
C1207 C 0.78135 0.21476 0.48957 0.0
C1208 C 0.77844 0.23236 0.47629 0.0
C1209 C 0.76926 0.23543 0.44043 0.0
C1210 C 0.76304 0.22092 0.41769 0.0
C1211 C 0.68468 0.16091 0.3649 0.0
C1212 C 0.67876 0.17399 0.33746 0.0
C1213 C 0.70272 0.16038 0.37702 0.0
C1214 C 0.71506 0.17306 0.36223 0.0
C1215 C 0.70909 0.18633 0.33546 0.0
C1216 C 0.69115 0.1867 0.32292 0.0
C1217 C 0.73427 0.17251 0.37416 0.0
C1218 C 0.74138 0.18719 0.39519 0.0
C1219 C 0.74558 0.15778 0.36465 0.0
C1220 C 0.73881 0.14192 0.34235 0.0
C1221 C 0.73101 0.14394 0.30427 0.0
C1222 C 0.7245 0.12892 0.28367 0.0
C1223 C 0.72584 0.1118 0.30073 0.0
C1224 C 0.73375 0.10965 0.33836 0.0
C1225 C 0.74027 0.12463 0.35911 0.0
H1226 H 0.72078 0.10018 0.28474 0.0
H1227 H 0.78326 0.24361 0.49382 0.0
H1228 H 0.16588 0.32673 0.69228 0.0
H1229 H 0.16097 0.29409 0.69669 0.0
H1230 H 0.17791 0.28829 0.57383 0.0
H1231 H 0.18224 0.32054 0.56883 0.0
H1232 H 0.14765 0.26988 0.5877 0.0
H1233 H 0.20574 0.27789 0.65298 0.0
H1234 H 0.22592 0.29012 0.70489 0.0
H1235 H 0.19359 0.26561 0.79653 0.0
H1236 H 0.17308 0.25341 0.74512 0.0
H1237 H 0.17787 0.18366 0.54735 0.0
H1238 H 0.1773 0.2155 0.56438 0.0
H1239 H 0.15286 0.20308 0.67816 0.0
H1240 H 0.15294 0.17098 0.6609 0.0
H1241 H 0.18135 0.23015 0.68073 0.0
H1242 H 0.126 0.21826 0.61355 0.0
H1243 H 0.10662 0.20557 0.56078 0.0
H1244 H 0.13392 0.23742 0.47231 0.0
H1245 H 0.15368 0.2501 0.52448 0.0
C1246 C 0.16848 0.31848 0.66622 0.0
C1247 C 0.17459 0.32631 0.63029 0.0
C1248 C 0.16578 0.29983 0.66886 0.0
C1249 C 0.16915 0.28874 0.63561 0.0
C1250 C 0.17521 0.29656 0.59987 0.0
C1251 C 0.17789 0.31506 0.59722 0.0
C1252 C 0.16631 0.26896 0.63702 0.0
C1253 C 0.15503 0.26122 0.60806 0.0
C1254 C 0.17543 0.25765 0.66447 0.0
C1255 C 0.18776 0.26495 0.69528 0.0
C1256 C 0.20285 0.27524 0.68422 0.0
C1257 C 0.21437 0.28214 0.71354 0.0
C1258 C 0.211 0.2787 0.75399 0.0
C1259 C 0.19615 0.2683 0.76519 0.0
C1260 C 0.18459 0.26139 0.73599 0.0
C1261 C 0.17227 0.18761 0.57594 0.0
C1262 C 0.16518 0.17472 0.60243 0.0
C1263 C 0.17207 0.20584 0.58573 0.0
C1264 C 0.16482 0.21164 0.62228 0.0
C1265 C 0.15848 0.19884 0.64975 0.0
C1266 C 0.15858 0.1805 0.63985 0.0
C1267 C 0.16332 0.2312 0.63032 0.0
C1268 C 0.17368 0.23886 0.66102 0.0
C1269 C 0.15337 0.24251 0.60443 0.0
C1270 C 0.1414 0.23506 0.57294 0.0
C1271 C 0.12796 0.22247 0.58281 0.0
C1272 C 0.11689 0.21529 0.553 0.0
C1273 C 0.11905 0.22066 0.51321 0.0
C1274 C 0.13227 0.23327 0.50315 0.0
C1275 C 0.14339 0.24048 0.53284 0.0
H1276 H 0.11047 0.21508 0.49017 0.0
H1277 H 0.21993 0.28404 0.77664 0.0
H1278 H 0.31813 0.85845 0.28258 0.0
H1279 H 0.28668 0.85786 0.30344 0.0
H1280 H 0.30164 0.83035 0.41218 0.0
H1281 H 0.33321 0.83038 0.39077 0.0
H1282 H 0.27295 0.8148 0.37861 0.0
H1283 H 0.28964 0.87479 0.41317 0.0
H1284 H 0.30239 0.90505 0.40267 0.0
H1285 H 0.26344 0.91536 0.31052 0.0
H1286 H 0.25061 0.88503 0.32006 0.0
H1287 H 0.1897 0.82719 0.47861 0.0
H1288 H 0.22123 0.83002 0.4604 0.0
H1289 H 0.2062 0.84984 0.34393 0.0
H1290 H 0.17439 0.84648 0.36114 0.0
H1291 H 0.2348 0.86965 0.38272 0.0
H1292 H 0.2188 0.80893 0.34813 0.0
H1293 H 0.20605 0.7788 0.36049 0.0
H1294 H 0.24402 0.77027 0.45551 0.0
H1295 H 0.25683 0.80048 0.44409 0.0
C1296 C 0.31478 0.85218 0.31083 0.0
C1297 C 0.32825 0.84439 0.33491 0.0
C1298 C 0.29677 0.85203 0.32296 0.0
C1299 C 0.29178 0.84423 0.35959 0.0
C1300 C 0.30518 0.83651 0.38384 0.0
C1301 C 0.32324 0.83666 0.37172 0.0
C1302 C 0.27252 0.84364 0.37179 0.0
C1303 C 0.26471 0.82685 0.38013 0.0
C1304 C 0.26161 0.8593 0.37291 0.0
C1305 C 0.26928 0.87756 0.36707 0.0
C1306 C 0.28389 0.88344 0.39042 0.0
C1307 C 0.29111 0.90062 0.38469 0.0
C1308 C 0.28376 0.9121 0.35587 0.0
C1309 C 0.26914 0.90644 0.33279 0.0
C1310 C 0.26187 0.88926 0.33837 0.0
C1311 C 0.19288 0.83202 0.44894 0.0
C1312 C 0.17922 0.83642 0.4213 0.0
C1313 C 0.21104 0.83373 0.43871 0.0
C1314 C 0.21604 0.84001 0.40075 0.0
C1315 C 0.20259 0.84498 0.37344 0.0
C1316 C 0.18436 0.84309 0.38346 0.0
C1317 C 0.23535 0.84086 0.38942 0.0
C1318 C 0.24312 0.85766 0.38125 0.0
C1319 C 0.24626 0.82524 0.3887 0.0
C1320 C 0.23864 0.80704 0.39554 0.0
C1321 C 0.22432 0.8007 0.3719 0.0
C1322 C 0.2171 0.78359 0.37869 0.0
C1323 C 0.22418 0.77265 0.40884 0.0
C1324 C 0.23853 0.77877 0.4322 0.0
C1325 C 0.24578 0.79588 0.42557 0.0
H1326 H 0.21858 0.75941 0.41404 0.0
H1327 H 0.28937 0.9254 0.35149 0.0
H1328 H 0.31853 0.10044 0.99092 0.0
H1329 H 0.30031 0.09915 0.93013 0.0
H1330 H 0.25217 0.09416 0.0017 0.0
H1331 H 0.27037 0.09538 0.06275 0.0
H1332 H 0.25111 0.07182 0.93859 0.0
H1333 H 0.26399 0.13438 0.95991 0.0
H1334 H 0.28336 0.16082 0.97144 0.0
H1335 H 0.31046 0.15124 0.85985 0.0
H1336 H 0.2914 0.12457 0.84792 0.0
H1337 H 0.18696 0.09674 0.79134 0.0
H1338 H 0.2061 0.09558 0.85074 0.0
H1339 H 0.25342 0.09883 0.77607 0.0
H1340 H 0.2343 0.10043 0.71642 0.0
H1341 H 0.25536 0.12155 0.83982 0.0
H1342 H 0.24153 0.05932 0.81786 0.0
H1343 H 0.22174 0.03317 0.80666 0.0
H1344 H 0.19588 0.0425 0.9198 0.0
H1345 H 0.21536 0.06887 0.93143 0.0
C1346 C 0.30406 0.09914 0.99374 0.0
C1347 C 0.29586 0.0982 0.03165 0.0
C1348 C 0.29366 0.09837 0.95896 0.0
C1349 C 0.27485 0.09686 0.96137 0.0
C1350 C 0.26667 0.09537 0.99914 0.0
C1351 C 0.27708 0.09604 0.03398 0.0
C1352 C 0.26369 0.09716 0.92452 0.0
C1353 C 0.25187 0.0828 0.91723 0.0
C1354 C 0.26497 0.1113 0.89621 0.0
C1355 C 0.27639 0.12738 0.90322 0.0
C1356 C 0.27417 0.13783 0.93798 0.0
C1357 C 0.28508 0.15287 0.94456 0.0
C1358 C 0.29816 0.15768 0.91645 0.0
C1359 C 0.30033 0.14748 0.88163 0.0
C1360 C 0.28948 0.13241 0.87493 0.0
C1361 C 0.20144 0.09735 0.78754 0.0
C1362 C 0.20912 0.09874 0.74916 0.0
C1363 C 0.21236 0.0965 0.8215 0.0
C1364 C 0.23118 0.09694 0.81779 0.0
C1365 C 0.23891 0.09841 0.77957 0.0
C1366 C 0.22799 0.09921 0.74554 0.0
C1367 C 0.24277 0.09622 0.85392 0.0
C1368 C 0.25464 0.11054 0.86111 0.0
C1369 C 0.24148 0.08208 0.88217 0.0
C1370 C 0.2298 0.06617 0.87534 0.0
C1371 C 0.23153 0.05588 0.84021 0.0
C1372 C 0.22038 0.04101 0.83381 0.0
C1373 C 0.20753 0.0362 0.86245 0.0
C1374 C 0.20583 0.04625 0.89761 0.0
C1375 C 0.21693 0.06115 0.90415 0.0
H1376 H 0.19891 0.02468 0.85744 0.0
H1377 H 0.30659 0.16932 0.9216 0.0
H1378 H 0.09012 0.76933 0.29796 0.0
H1379 H 0.08893 0.75073 0.23742 0.0
H1380 H 0.10704 0.79586 0.16682 0.0
H1381 H 0.10789 0.81458 0.22692 0.0
H1382 H 0.07995 0.77744 0.12986 0.0
H1383 H 0.13636 0.7638 0.19481 0.0
H1384 H 0.15551 0.75429 0.25128 0.0
H1385 H 0.12839 0.70329 0.25524 0.0
H1386 H 0.1089 0.7126 0.19911 0.0
H1387 H 0.10958 0.73284 0.95426 0.0
H1388 H 0.10761 0.7509 0.01537 0.0
H1389 H 0.09414 0.70328 0.08305 0.0
H1390 H 0.09642 0.68515 0.0222 0.0
H1391 H 0.1177 0.7224 0.12267 0.0
H1392 H 0.06197 0.73524 0.0564 0.0
H1393 H 0.04249 0.74457 0.00035 0.0
H1394 H 0.06752 0.79665 0.99926 0.0
H1395 H 0.08733 0.78754 0.05497 0.0
C1396 C 0.09364 0.77532 0.26945 0.0
C1397 C 0.09927 0.79336 0.26725 0.0
C1398 C 0.09307 0.76467 0.23497 0.0
C1399 C 0.09812 0.77187 0.19773 0.0
C1400 C 0.10317 0.79002 0.19528 0.0
C1401 C 0.1038 0.80065 0.22969 0.0
C1402 C 0.09865 0.76043 0.16139 0.0
C1403 C 0.08832 0.76549 0.12809 0.0
C1404 C 0.10926 0.74462 0.15949 0.0
C1405 C 0.12105 0.73897 0.19305 0.0
C1406 C 0.13439 0.75061 0.20792 0.0
C1407 C 0.14532 0.74525 0.23983 0.0
C1408 C 0.14313 0.72822 0.25691 0.0
C1409 C 0.13005 0.71649 0.24202 0.0
C1410 C 0.11906 0.7218 0.21015 0.0
C1411 C 0.10614 0.72626 0.98218 0.0
C1412 C 0.10318 0.70759 0.98349 0.0
C1413 C 0.10496 0.73659 0.01705 0.0
C1414 C 0.10047 0.72849 0.05376 0.0
C1415 C 0.09763 0.70982 0.05512 0.0
C1416 C 0.09899 0.69947 0.02035 0.0
C1417 C 0.09902 0.73941 0.09088 0.0
C1418 C 0.10921 0.73427 0.12438 0.0
C1419 C 0.08821 0.7551 0.093 0.0
C1420 C 0.07624 0.76065 0.05963 0.0
C1421 C 0.06341 0.74864 0.04403 0.0
C1422 C 0.05229 0.75389 0.01234 0.0
C1423 C 0.05379 0.77118 0.99619 0.0
C1424 C 0.06638 0.78326 0.01177 0.0
C1425 C 0.07754 0.77806 0.04343 0.0
H1426 H 0.04518 0.77522 0.97166 0.0
H1427 H 0.15161 0.72409 0.28161 0.0
H1428 H 0.72814 0.88749 0.02542 0.0
H1429 H 0.74733 0.89222 0.96695 0.0
H1430 H 0.72942 0.94737 0.9595 0.0
H1431 H 0.70985 0.94261 0.01776 0.0
H1432 H 0.72907 0.93046 0.8863 0.0
H1433 H 0.77075 0.93904 0.99285 0.0
H1434 H 0.78626 0.9319 0.05612 0.0
H1435 H 0.80674 0.88299 0.0049 0.0
H1436 H 0.79113 0.8897 0.94147 0.0
H1437 H 0.79649 0.94542 0.73378 0.0
H1438 H 0.7784 0.9487 0.79487 0.0
H1439 H 0.78943 0.8934 0.8257 0.0
H1440 H 0.80713 0.88993 0.76486 0.0
H1441 H 0.79424 0.91572 0.88919 0.0
H1442 H 0.74951 0.90533 0.78638 0.0
H1443 H 0.73358 0.91191 0.7233 0.0
H1444 H 0.71879 0.96409 0.76783 0.0
H1445 H 0.73486 0.95789 0.83101 0.0
C1446 C 0.72825 0.90062 0.01131 0.0
C1447 C 0.71751 0.91468 0.02621 0.0
C1448 C 0.73932 0.90335 0.9781 0.0
C1449 C 0.73993 0.9202 0.95916 0.0
C1450 C 0.7292 0.93429 0.97383 0.0
C1451 C 0.71815 0.93158 0.00725 0.0
C1452 C 0.75151 0.92281 0.92347 0.0
C1453 C 0.7434 0.92762 0.88705 0.0
C1454 C 0.77015 0.91888 0.92443 0.0
C1455 C 0.77966 0.91483 0.96246 0.0
C1456 C 0.77846 0.9267 0.99515 0.0
C1457 C 0.78728 0.92273 0.03104 0.0
C1458 C 0.79745 0.90699 0.03455 0.0
C1459 C 0.79885 0.89518 0.00214 0.0
C1460 C 0.79003 0.89907 0.96619 0.0
C1461 C 0.79494 0.93394 0.75345 0.0
C1462 C 0.80339 0.91745 0.74457 0.0
C1463 C 0.78466 0.93585 0.78838 0.0
C1464 C 0.78261 0.92129 0.81483 0.0
C1465 C 0.79098 0.90486 0.80593 0.0
C1466 C 0.80117 0.90293 0.77116 0.0
C1467 C 0.77171 0.92287 0.85186 0.0
C1468 C 0.77998 0.91887 0.88857 0.0
C1469 C 0.75323 0.92752 0.85112 0.0
C1470 C 0.74358 0.93125 0.81318 0.0
C1471 C 0.743 0.91827 0.78256 0.0
C1472 C 0.73392 0.92192 0.74683 0.0
C1473 C 0.72523 0.93843 0.7415 0.0
C1474 C 0.72556 0.95132 0.77196 0.0
C1475 C 0.73465 0.94775 0.80774 0.0
H1476 H 0.7182 0.94123 0.71382 0.0
H1477 H 0.80428 0.90394 0.06236 0.0
H1478 H 0.93529 0.22743 0.29605 0.0
H1479 H 0.94098 0.24539 0.23582 0.0
H1480 H 0.90877 0.20859 0.16634 0.0
H1481 H 0.90336 0.1904 0.22614 0.0
H1482 H 0.93938 0.21851 0.12649 0.0
H1483 H 0.89106 0.24756 0.19842 0.0
H1484 H 0.87678 0.26171 0.25719 0.0
H1485 H 0.91794 0.30228 0.25896 0.0
H1486 H 0.93261 0.2882 0.20048 0.0
H1487 H 0.91328 0.27078 0.95899 0.0
H1488 H 0.91581 0.25206 0.01871 0.0
H1489 H 0.94546 0.29419 0.07819 0.0
H1490 H 0.94293 0.31307 0.01836 0.0
H1491 H 0.91928 0.2822 0.12479 0.0
H1492 H 0.96611 0.25466 0.04844 0.0
H1493 H 0.98004 0.24054 0.98923 0.0
H1494 H 0.94185 0.19725 0.99517 0.0
H1495 H 0.92752 0.21124 0.0541 0.0
C1496 C 0.92962 0.22305 0.26784 0.0
C1497 C 0.91874 0.20758 0.26593 0.0
C1498 C 0.93278 0.23338 0.23352 0.0
C1499 C 0.92514 0.22843 0.19668 0.0
C1500 C 0.91476 0.21269 0.19446 0.0
C1501 C 0.91154 0.2024 0.22874 0.0
C1502 C 0.92735 0.23994 0.16068 0.0
C1503 C 0.93488 0.23241 0.12596 0.0
C1504 C 0.92189 0.25819 0.16035 0.0
C1505 C 0.91305 0.26671 0.19539 0.0
C1506 C 0.89715 0.25941 0.21155 0.0
C1507 C 0.88897 0.26743 0.24477 0.0
C1508 C 0.89648 0.28285 0.26188 0.0
C1509 C 0.91216 0.29031 0.24572 0.0
C1510 C 0.92041 0.28233 0.21253 0.0
C1511 C 0.92071 0.27592 0.98441 0.0
C1512 C 0.92792 0.29342 0.98386 0.0
C1513 C 0.92213 0.2652 0.01863 0.0
C1514 C 0.93096 0.27164 0.05291 0.0
C1515 C 0.93857 0.28894 0.05213 0.0
C1516 C 0.93709 0.29971 0.01794 0.0
C1517 C 0.93119 0.26076 0.09028 0.0
C1518 C 0.92404 0.26839 0.12532 0.0
C1519 C 0.93701 0.24261 0.09085 0.0
C1520 C 0.94566 0.23408 0.05553 0.0
C1521 C 0.9606 0.24219 0.03696 0.0
C1522 C 0.96858 0.2342 0.00347 0.0
C1523 C 0.96181 0.21803 0.9884 0.0
C1524 C 0.94707 0.20979 0.00686 0.0
C1525 C 0.93903 0.21773 0.04034 0.0
H1526 H 0.96801 0.21186 0.96246 0.0
H1527 H 0.89013 0.28905 0.28759 0.0
H1528 H 0.23029 0.41827 0.53426 0.0
H1529 H 0.24878 0.41939 0.47383 0.0
H1530 H 0.20222 0.43451 0.40445 0.0
H1531 H 0.18364 0.43373 0.46492 0.0
H1532 H 0.21975 0.40591 0.37214 0.0
H1533 H 0.23569 0.46445 0.42063 0.0
H1534 H 0.24632 0.48656 0.47029 0.0
H1535 H 0.29706 0.45902 0.4782 0.0
H1536 H 0.28664 0.43659 0.42899 0.0
H1537 H 0.2673 0.41763 0.18983 0.0
H1538 H 0.24885 0.42315 0.24921 0.0
H1539 H 0.2944 0.41129 0.32485 0.0
H1540 H 0.31312 0.4065 0.2657 0.0
H1541 H 0.27672 0.43968 0.35288 0.0
H1542 H 0.26077 0.38032 0.3091 0.0
H1543 H 0.25058 0.35727 0.26111 0.0
H1544 H 0.20038 0.38522 0.24642 0.0
H1545 H 0.21038 0.40859 0.29394 0.0
C1546 C 0.22405 0.42234 0.5064 0.0
C1547 C 0.20544 0.42583 0.50449 0.0
C1548 C 0.23465 0.4229 0.47179 0.0
C1549 C 0.22689 0.42702 0.43459 0.0
C1550 C 0.20847 0.4312 0.43281 0.0
C1551 C 0.19787 0.43071 0.46741 0.0
C1552 C 0.23768 0.42569 0.39723 0.0
C1553 C 0.23203 0.41355 0.36759 0.0
C1554 C 0.25399 0.43523 0.39185 0.0
C1555 C 0.26032 0.44874 0.42136 0.0
C1556 C 0.24906 0.46302 0.43319 0.0
C1557 C 0.25506 0.47563 0.46122 0.0
C1558 C 0.27234 0.47417 0.47746 0.0
C1559 C 0.28367 0.46012 0.46562 0.0
C1560 C 0.27773 0.44747 0.43763 0.0
C1561 C 0.27345 0.41636 0.21908 0.0
C1562 C 0.29168 0.41146 0.22291 0.0
C1563 C 0.26283 0.41938 0.25304 0.0
C1564 C 0.27016 0.41741 0.29156 0.0
C1565 C 0.28842 0.41282 0.29547 0.0
C1566 C 0.29906 0.40987 0.26156 0.0
C1567 C 0.25878 0.41989 0.32781 0.0
C1568 C 0.26435 0.43216 0.35728 0.0
C1569 C 0.24246 0.41035 0.33326 0.0
C1570 C 0.2364 0.3963 0.30473 0.0
C1571 C 0.24761 0.38163 0.29538 0.0
C1572 C 0.24187 0.36849 0.26831 0.0
C1573 C 0.22487 0.36981 0.25063 0.0
C1574 C 0.21356 0.38424 0.26008 0.0
C1575 C 0.21925 0.39742 0.2871 0.0
H1576 H 0.22044 0.35962 0.22969 0.0
H1577 H 0.27695 0.48395 0.49915 0.0
H1578 H 0.40939 0.81643 0.5181 0.0
H1579 H 0.41114 0.7977 0.57827 0.0
H1580 H 0.39783 0.75079 0.50828 0.0
H1581 H 0.39602 0.7695 0.44786 0.0
H1582 H 0.37784 0.75396 0.57944 0.0
H1583 H 0.43949 0.75593 0.53633 0.0
H1584 H 0.46771 0.7706 0.51518 0.0
H1585 H 0.47074 0.79819 0.6279 0.0
H1586 H 0.44237 0.78387 0.64951 0.0
H1587 H 0.39721 0.68747 0.723 0.0
H1588 H 0.39801 0.70568 0.66218 0.0
H1589 H 0.4158 0.7515 0.73082 0.0
H1590 H 0.41505 0.73328 0.79202 0.0
H1591 H 0.4337 0.74906 0.66025 0.0
H1592 H 0.37227 0.74793 0.7035 0.0
H1593 H 0.34381 0.73395 0.7254 0.0
H1594 H 0.33991 0.70585 0.61344 0.0
H1595 H 0.36851 0.71946 0.59109 0.0
C1596 C 0.40674 0.80214 0.5156 0.0
C1597 C 0.4025 0.7944 0.47838 0.0
C1598 C 0.40788 0.79145 0.54989 0.0
C1599 C 0.40473 0.77287 0.54761 0.0
C1600 C 0.40035 0.76512 0.51057 0.0
C1601 C 0.39939 0.77578 0.47615 0.0
C1602 C 0.40572 0.76159 0.58407 0.0
C1603 C 0.39011 0.75266 0.59681 0.0
C1604 C 0.42162 0.76037 0.60725 0.0
C1605 C 0.4387 0.76897 0.59437 0.0
C1606 C 0.44608 0.76525 0.55647 0.0
C1607 C 0.46212 0.77348 0.54442 0.0
C1608 C 0.47099 0.78536 0.57013 0.0
C1609 C 0.46384 0.789 0.60799 0.0
C1610 C 0.44779 0.78082 0.62017 0.0
C1611 C 0.40124 0.70144 0.72519 0.0
C1612 C 0.40583 0.70902 0.76237 0.0
C1613 C 0.40173 0.71182 0.6904 0.0
C1614 C 0.40665 0.73003 0.6921 0.0
C1615 C 0.41191 0.73748 0.7289 0.0
C1616 C 0.41149 0.72707 0.76378 0.0
C1617 C 0.40583 0.74134 0.65557 0.0
C1618 C 0.42143 0.75033 0.64286 0.0
C1619 C 0.38988 0.74273 0.63252 0.0
C1620 C 0.37263 0.73458 0.64578 0.0
C1621 C 0.36542 0.73866 0.68367 0.0
C1622 C 0.34925 0.73082 0.69615 0.0
C1623 C 0.34008 0.71899 0.67087 0.0
C1624 C 0.34704 0.715 0.63301 0.0
C1625 C 0.36323 0.72279 0.62041 0.0
H1626 H 0.32756 0.71293 0.68058 0.0
H1627 H 0.48341 0.79171 0.56076 0.0
H1628 H 0.68354 0.6036 0.27074 0.0
H1629 H 0.7015 0.60181 0.33187 0.0
H1630 H 0.74932 0.59252 0.26134 0.0
H1631 H 0.73135 0.59415 0.19997 0.0
H1632 H 0.74882 0.57112 0.32592 0.0
H1633 H 0.74001 0.63411 0.3002 0.0
H1634 H 0.72235 0.66156 0.28664 0.0
H1635 H 0.69447 0.65521 0.39842 0.0
H1636 H 0.71179 0.62756 0.41239 0.0
H1637 H 0.81428 0.59411 0.47154 0.0
H1638 H 0.79507 0.59302 0.4123 0.0
H1639 H 0.7481 0.60074 0.48646 0.0
H1640 H 0.76733 0.60235 0.54592 0.0
H1641 H 0.74759 0.62237 0.42113 0.0
H1642 H 0.7575 0.55974 0.44767 0.0
H1643 H 0.77563 0.53256 0.46089 0.0
H1644 H 0.80203 0.53858 0.34726 0.0
H1645 H 0.78424 0.56595 0.3336 0.0
C1646 C 0.69789 0.60124 0.26826 0.0
C1647 C 0.70609 0.59922 0.23056 0.0
C1648 C 0.70813 0.60019 0.3032 0.0
C1649 C 0.7268 0.59734 0.30114 0.0
C1650 C 0.73494 0.59477 0.26361 0.0
C1651 C 0.72467 0.59569 0.2286 0.0
C1652 C 0.73787 0.59741 0.33808 0.0
C1653 C 0.74872 0.58241 0.34651 0.0
C1654 C 0.73743 0.61199 0.36538 0.0
C1655 C 0.72707 0.62867 0.35715 0.0
C1656 C 0.73002 0.63849 0.32175 0.0
C1657 C 0.72008 0.6541 0.31401 0.0
C1658 C 0.70726 0.6601 0.3416 0.0
C1659 C 0.70439 0.65053 0.37705 0.0
C1660 C 0.71427 0.6349 0.38491 0.0
C1661 C 0.79987 0.59571 0.47526 0.0
C1662 C 0.79232 0.5984 0.51342 0.0
C1663 C 0.7889 0.59489 0.4414 0.0
C1664 C 0.77015 0.59661 0.44503 0.0
C1665 C 0.76255 0.59931 0.48305 0.0
C1666 C 0.77352 0.60011 0.51698 0.0
C1667 C 0.75855 0.59609 0.40895 0.0
C1668 C 0.74762 0.61104 0.40064 0.0
C1669 C 0.75899 0.58151 0.38172 0.0
C1670 C 0.76964 0.56499 0.38977 0.0
C1671 C 0.76727 0.55535 0.42563 0.0
C1672 C 0.77747 0.53989 0.43318 0.0
C1673 C 0.79 0.53387 0.40497 0.0
C1674 C 0.79233 0.54327 0.3691 0.0
C1675 C 0.78218 0.55874 0.36142 0.0
H1676 H 0.79788 0.5219 0.41087 0.0
H1677 H 0.69959 0.67219 0.33555 0.0
H1678 H 0.62519 0.29098 0.75831 0.0
H1679 H 0.6223 0.2731 0.69729 0.0
H1680 H 0.56482 0.28184 0.69799 0.0
H1681 H 0.56764 0.29947 0.75967 0.0
H1682 H 0.5718 0.24843 0.67706 0.0
H1683 H 0.59264 0.30621 0.6358 0.0
H1684 H 0.6123 0.33294 0.63642 0.0
H1685 H 0.65767 0.30014 0.60408 0.0
H1686 H 0.63832 0.27316 0.60383 0.0
H1687 H 0.59024 0.23689 0.44594 0.0
H1688 H 0.58675 0.25569 0.50551 0.0
H1689 H 0.59687 0.20954 0.58065 0.0
H1690 H 0.59948 0.19053 0.52149 0.0
H1691 H 0.61008 0.26414 0.56035 0.0
H1692 H 0.57558 0.21352 0.66911 0.0
H1693 H 0.55369 0.18859 0.66619 0.0
H1694 H 0.53119 0.21051 0.5583 0.0
H1695 H 0.55276 0.2357 0.56087 0.0
C1696 C 0.61194 0.28906 0.74545 0.0
C1697 C 0.59666 0.29671 0.76351 0.0
C1698 C 0.6103 0.27888 0.71056 0.0
C1699 C 0.59338 0.27643 0.69261 0.0
C1700 C 0.57801 0.2836 0.71125 0.0
C1701 C 0.57963 0.29364 0.74648 0.0
C1702 C 0.59186 0.26663 0.65406 0.0
C1703 C 0.58013 0.25188 0.6515 0.0
C1704 C 0.60239 0.27142 0.62032 0.0
C1705 C 0.61405 0.28764 0.62008 0.0
C1706 C 0.60683 0.30468 0.62906 0.0
C1707 C 0.61792 0.31988 0.62932 0.0
C1708 C 0.63623 0.31824 0.62036 0.0
C1709 C 0.64349 0.30139 0.61103 0.0
C1710 C 0.63246 0.28615 0.61078 0.0
C1711 C 0.5914 0.23068 0.47516 0.0
C1712 C 0.5952 0.2122 0.47889 0.0
C1713 C 0.58954 0.24147 0.50918 0.0
C1714 C 0.59141 0.23402 0.54758 0.0
C1715 C 0.59509 0.21557 0.55138 0.0
C1716 C 0.59684 0.20475 0.51745 0.0
C1717 C 0.59035 0.24563 0.58365 0.0
C1718 C 0.60164 0.26074 0.58577 0.0
C1719 C 0.57908 0.24142 0.61656 0.0
C1720 C 0.5659 0.22642 0.61503 0.0
C1721 C 0.56591 0.21307 0.64487 0.0
C1722 C 0.55356 0.19888 0.64325 0.0
C1723 C 0.54109 0.19794 0.61202 0.0
C1724 C 0.5409 0.21122 0.5824 0.0
C1725 C 0.5532 0.22544 0.58389 0.0
H1726 H 0.53156 0.18694 0.61081 0.0
H1727 H 0.6448 0.33002 0.62059 0.0
H1728 H 0.3385 0.02923 0.17576 0.0
H1729 H 0.34537 0.99779 0.19283 0.0
H1730 H 0.39986 0.0132 0.22266 0.0
H1731 H 0.39312 0.04421 0.20285 0.0
H1732 H 0.40229 0.98469 0.18494 0.0
H1733 H 0.3642 1.00218 0.29406 0.0
H1734 H 0.33717 0.01325 0.32925 0.0
H1735 H 0.30574 0.97069 0.27762 0.0
H1736 H 0.33252 0.95955 0.24156 0.0
H1737 H 0.42111 0.91297 0.32468 0.0
H1738 H 0.41374 0.94172 0.29266 0.0
H1739 H 0.37509 0.91494 0.21711 0.0
H1740 H 0.38286 0.88594 0.24824 0.0
H1741 H 0.36345 0.94701 0.27191 0.0
H1742 H 0.40511 0.92875 0.16835 0.0
H1743 H 0.43433 0.91723 0.14424 0.0
H1744 H 0.46138 0.96219 0.19799 0.0
H1745 H 0.43234 0.97384 0.22294 0.0
C1746 C 0.35184 0.02576 0.18636 0.0
C1747 C 0.3653 0.03894 0.18832 0.0
C1748 C 0.35579 0.00786 0.19626 0.0
C1749 C 0.37313 0.003 0.20958 0.0
C1750 C 0.38642 0.01643 0.21228 0.0
C1751 C 0.38259 0.03416 0.20131 0.0
C1752 C 0.37772 0.98396 0.21963 0.0
C1753 C 0.39379 0.97659 0.20426 0.0
C1754 C 0.36659 0.97306 0.24425 0.0
C1755 C 0.35033 0.98016 0.26473 0.0
C1756 C 0.35148 0.99532 0.28981 0.0
C1757 C 0.33621 1.00158 0.30999 0.0
C1758 C 0.31975 0.99268 0.30565 0.0
C1759 C 0.3185 0.97758 0.28091 0.0
C1760 C 0.33371 0.9713 0.26057 0.0
C1761 C 0.41136 0.91317 0.30056 0.0
C1762 C 0.40259 0.89729 0.28875 0.0
C1763 C 0.40716 0.92956 0.28238 0.0
C1764 C 0.39387 0.93039 0.25268 0.0
C1765 C 0.38543 0.91449 0.23994 0.0
C1766 C 0.38996 0.89797 0.25748 0.0
C1767 C 0.38791 0.94813 0.23759 0.0
C1768 C 0.37168 0.9552 0.25216 0.0
C1769 C 0.39911 0.95891 0.21332 0.0
C1770 C 0.41655 0.95209 0.19777 0.0
C1771 C 0.4173 0.93611 0.17529 0.0
C1772 C 0.43383 0.92957 0.16142 0.0
C1773 C 0.4497 0.93896 0.16963 0.0
C1774 C 0.44907 0.95494 0.19163 0.0
C1775 C 0.43258 0.96153 0.2056 0.0
H1776 H 0.46248 0.93386 0.15891 0.0
H1777 H 0.30799 0.99738 0.32162 0.0
H1778 H 0.88378 0.61239 0.75374 0.0
H1779 H 0.91247 0.6203 0.78583 0.0
H1780 H 0.94086 0.60697 0.67707 0.0
H1781 H 0.91247 0.599 0.64513 0.0
H1782 H 0.95876 0.59504 0.74281 0.0
H1783 H 0.93041 0.64971 0.69717 0.0
H1784 H 0.90555 0.67167 0.69301 0.0
H1785 H 0.90872 0.68057 0.8198 0.0
H1786 H 0.93341 0.65841 0.82481 0.0
H1787 H 0.04153 0.63981 0.76694 0.0
H1788 H 0.01189 0.63172 0.74083 0.0
H1789 H 0.98738 0.64796 0.85222 0.0
H1790 H 0.01689 0.65665 0.87801 0.0
H1791 H 0.96689 0.65795 0.78929 0.0
H1792 H 0.99629 0.60397 0.83414 0.0
H1793 H 0.02108 0.58192 0.83757 0.0
H1794 H 0.01593 0.57169 0.71159 0.0
H1795 H 0.99127 0.59389 0.7073 0.0
C1796 C 0.89619 0.61088 0.73698 0.0
C1797 C 0.89589 0.60519 0.69687 0.0
C1798 C 0.91253 0.6155 0.75522 0.0
C1799 C 0.92876 0.61442 0.73363 0.0
C1800 C 0.92851 0.60793 0.69425 0.0
C1801 C 0.91225 0.60345 0.676 0.0
C1802 C 0.94599 0.62081 0.75099 0.0
C1803 C 0.96058 0.60882 0.75273 0.0
C1804 C 0.94826 0.63872 0.76448 0.0
C1805 C 0.93362 0.65225 0.76144 0.0
C1806 C 0.92572 0.65625 0.72421 0.0
C1807 C 0.91167 0.66874 0.72169 0.0
C1808 C 0.90552 0.67746 0.75613 0.0
C1809 C 0.91347 0.67377 0.79315 0.0
C1810 C 0.92749 0.66125 0.79586 0.0
C1811 C 0.02983 0.64199 0.78562 0.0
C1812 C 0.03164 0.64869 0.82477 0.0
C1813 C 0.01289 0.63719 0.77079 0.0
C1814 C 0.99746 0.6389 0.79489 0.0
C1815 C 0.99911 0.64639 0.83322 0.0
C1816 C 0.01602 0.65121 0.84803 0.0
C1817 C 0.97972 0.63221 0.78078 0.0
C1818 C 0.96505 0.64413 0.77964 0.0
C1819 C 0.97736 0.61423 0.76775 0.0
C1820 C 0.99204 0.60071 0.77034 0.0
C1821 C 1.00052 0.5971 0.80712 0.0
C1822 C 0.01454 0.58457 0.80922 0.0
C1823 C 0.02011 0.57544 0.7748 0.0
C1824 C 0.01162 0.57879 0.73822 0.0
C1825 C 0.99761 0.59133 0.73595 0.0
H1826 H 0.03097 0.56575 0.77648 0.0
H1827 H 0.89464 0.68712 0.75412 0.0
H1828 H 0.61963 0.97538 0.13416 0.0
H1829 H 0.61444 0.00625 0.15631 0.0
H1830 H 0.65956 1.00215 0.23705 0.0
H1831 H 0.66488 0.97122 0.21488 0.0
H1832 H 0.63101 0.0176 0.27276 0.0
H1833 H 0.66281 0.02505 0.14797 0.0
H1834 H 0.66797 0.0206 0.07571 0.0
H1835 H 0.61702 0.04531 0.04961 0.0
H1836 H 0.61144 0.04969 0.12178 0.0
H1837 H 0.64503 0.10718 0.32318 0.0
H1838 H 0.64912 0.07756 0.29335 0.0
H1839 H 0.6035 0.08685 0.21613 0.0
H1840 H 0.5996 0.11699 0.24544 0.0
H1841 H 0.63016 0.06878 0.17724 0.0
H1842 H 0.59859 0.06224 0.30119 0.0
H1843 H 0.5931 0.06673 0.37331 0.0
H1844 H 0.6429 0.04006 0.40086 0.0
H1845 H 0.64882 0.03563 0.32886 0.0
C1846 C 0.62856 0.98107 0.15638 0.0
C1847 C 0.64276 0.97083 0.17255 0.0
C1848 C 0.62555 0.99874 0.16904 0.0
C1849 C 0.63676 0.00662 0.19791 0.0
C1850 C 0.65075 0.99635 0.21467 0.0
C1851 C 0.65374 0.97864 0.20209 0.0
C1852 C 0.6338 0.02548 0.21106 0.0
C1853 C 0.63105 0.0288 0.25192 0.0
C1854 C 0.63324 0.04006 0.18369 0.0
C1855 C 0.63663 0.03753 0.14029 0.0
C1856 C 0.65264 0.02941 0.12684 0.0
C1857 C 0.65566 0.02692 0.08589 0.0
C1858 C 0.64281 0.03263 0.05809 0.0
C1859 C 0.62694 0.04088 0.07118 0.0
C1860 C 0.62386 0.04338 0.11209 0.0
C1861 C 0.63595 0.10302 0.29956 0.0
C1862 C 0.62185 0.1143 0.28695 0.0
C1863 C 0.63827 0.08605 0.28263 0.0
C1864 C 0.62633 0.07979 0.25327 0.0
C1865 C 0.61278 0.09137 0.23901 0.0
C1866 C 0.61058 0.10856 0.2557 0.0
C1867 C 0.62769 0.0609 0.23903 0.0
C1868 C 0.63006 0.05756 0.19802 0.0
C1869 C 0.62782 0.04625 0.26622 0.0
C1870 C 0.62421 0.04872 0.3096 0.0
C1871 C 0.60843 0.05743 0.32262 0.0
C1872 C 0.60523 0.05995 0.36348 0.0
C1873 C 0.61766 0.05372 0.39165 0.0
C1874 C 0.63329 0.0449 0.37901 0.0
C1875 C 0.63656 0.04235 0.33818 0.0
H1876 H 0.61517 0.05569 0.42327 0.0
H1877 H 0.64516 0.03069 0.02641 0.0
H1878 H 0.10265 0.36072 0.62763 0.0
H1879 H 0.07374 0.35339 0.65788 0.0
H1880 H 0.09199 0.37456 0.77092 0.0
H1881 H 0.12125 0.38207 0.7406 0.0
H1882 H 0.07085 0.34243 0.77787 0.0
H1883 H 0.0675 0.40053 0.71677 0.0
H1884 H 0.07138 0.42272 0.66259 0.0
H1885 H 0.03517 0.39267 0.58802 0.0
H1886 H 0.03133 0.3701 0.64155 0.0
H1887 H 0.98533 0.36236 0.86359 0.0
H1888 H 0.016 0.36211 0.8372 0.0
H1889 H 0.9961 0.3434 0.72331 0.0
H1890 H 0.96513 0.34372 0.74993 0.0
H1891 H 0.01828 0.37317 0.71655 0.0
H1892 H 0.02056 0.31571 0.78065 0.0
H1893 H 0.01685 0.29409 0.83603 0.0
H1894 H 0.05489 0.32374 0.90677 0.0
H1895 H 0.05863 0.34571 0.85202 0.0
C1896 C 0.10068 0.36367 0.65908 0.0
C1897 C 0.11424 0.37218 0.6816 0.0
C1898 C 0.0841 0.35945 0.67631 0.0
C1899 C 0.0806 0.36366 0.71647 0.0
C1900 C 0.09441 0.37124 0.73981 0.0
C1901 C 0.1111 0.37553 0.72246 0.0
C1902 C 0.06213 0.3612 0.73282 0.0
C1903 C 0.05937 0.3493 0.76485 0.0
C1904 C 0.04711 0.3699 0.71522 0.0
C1905 C 0.04928 0.38351 0.68303 0.0
C1906 C 0.06049 0.39856 0.68869 0.0
C1907 C 0.06266 0.41122 0.65812 0.0
C1908 C 0.05356 0.40908 0.62185 0.0
C1909 C 0.04224 0.39429 0.61612 0.0
C1910 C 0.04005 0.38156 0.64657 0.0
C1911 C 0.98751 0.35802 0.83304 0.0
C1912 C 0.97285 0.35318 0.80868 0.0
C1913 C 0.00506 0.35776 0.81807 0.0
C1914 C 0.00839 0.35269 0.77831 0.0
C1915 C 0.99384 0.34733 0.75413 0.0
C1916 C 0.9762 0.3474 0.76934 0.0
C1917 C 0.0269 0.35429 0.76155 0.0
C1918 C 0.02971 0.36616 0.72946 0.0
C1919 C 0.04193 0.34566 0.77934 0.0
C1920 C 0.03975 0.33245 0.81232 0.0
C1921 C 0.02802 0.31771 0.80814 0.0
C1922 C 0.02594 0.30537 0.8394 0.0
C1923 C 0.0356 0.30756 0.87493 0.0
C1924 C 0.0474 0.32207 0.87924 0.0
C1925 C 0.04952 0.33446 0.84808 0.0
H1926 H 0.03397 0.29799 0.8991 0.0
H1927 H 0.05525 0.41891 0.59822 0.0
H1928 H 0.40278 0.61826 0.00873 0.0
H1929 H 0.39783 0.58903 0.04169 0.0
H1930 H 0.35896 0.57498 0.95103 0.0
H1931 H 0.36376 0.60386 0.91837 0.0
H1932 H 0.34765 0.56502 0.02542 0.0
H1933 H 0.40157 0.56041 0.94395 0.0
H1934 H 0.43219 0.56931 0.92324 0.0
H1935 H 0.45194 0.55795 0.04136 0.0
H1936 H 0.42135 0.54923 0.06293 0.0
H1937 H 0.34185 0.47027 0.02982 0.0
H1938 H 0.34704 0.50142 0.00926 0.0
H1939 H 0.38821 0.50671 0.09951 0.0
H1940 H 0.38366 0.47545 0.119 0.0
H1941 H 0.39892 0.52229 0.03291 0.0
H1942 H 0.34564 0.52439 0.11325 0.0
H1943 H 0.31504 0.51571 0.13451 0.0
H1944 H 0.29405 0.5321 0.02044 0.0
H1945 H 0.32457 0.54064 0.99828 0.0
C1946 C 0.39302 0.609 0.99627 0.0
C1947 C 0.38378 0.61326 0.96081 0.0
C1948 C 0.39026 0.59231 0.01496 0.0
C1949 C 0.37814 0.57977 0.99855 0.0
C1950 C 0.36837 0.58442 0.9642 0.0
C1951 C 0.37122 0.60091 0.94544 0.0
C1952 C 0.37608 0.56142 0.01548 0.0
C1953 C 0.35884 0.55564 0.02694 0.0
C1954 C 0.39075 0.54931 0.01823 0.0
C1955 C 0.40915 0.55438 0.00518 0.0
C1956 C 0.41242 0.55994 0.96559 0.0
C1957 C 0.42977 0.56494 0.95368 0.0
C1958 C 0.44399 0.56425 0.981 0.0
C1959 C 0.4409 0.55851 0.02026 0.0
C1960 C 0.42357 0.55354 0.03234 0.0
C1961 C 0.35214 0.47797 0.04499 0.0
C1962 C 0.36219 0.47033 0.07638 0.0
C1963 C 0.35497 0.49586 0.0335 0.0
C1964 C 0.36779 0.50654 0.05337 0.0
C1965 C 0.37815 0.49881 0.08395 0.0
C1966 C 0.37539 0.48094 0.09532 0.0
C1967 C 0.3704 0.52576 0.04232 0.0
C1968 C 0.38775 0.5317 0.03193 0.0
C1969 C 0.35582 0.53804 0.0407 0.0
C1970 C 0.33742 0.53301 0.05399 0.0
C1971 C 0.33452 0.52602 0.0926 0.0
C1972 C 0.31718 0.52114 0.10482 0.0
C1973 C 0.30261 0.52331 0.07881 0.0
C1974 C 0.30535 0.53041 0.04054 0.0
C1975 C 0.32266 0.53529 0.02815 0.0
H1976 H 0.2892 0.51953 0.08833 0.0
H1977 H 0.45741 0.56813 0.97173 0.0
H1978 H 0.60232 0.64458 0.06784 0.0
H1979 H 0.57275 0.64743 0.03708 0.0
H1980 H 0.58502 0.60323 0.95786 0.0
H1981 H 0.6151 0.60055 0.98829 0.0
H1982 H 0.56568 0.62971 0.91984 0.0
H1983 H 0.56015 0.59566 0.04023 0.0
H1984 H 0.56456 0.58883 0.11179 0.0
H1985 H 0.53526 0.63654 0.14393 0.0
H1986 H 0.5309 0.6438 0.07254 0.0
H1987 H 0.4721 0.61689 0.87584 0.0
H1988 H 0.50315 0.61207 0.89722 0.0
H1989 H 0.49854 0.65635 0.97998 0.0
H1990 H 0.46755 0.66149 0.95834 0.0
H1991 H 0.51406 0.62679 0.01416 0.0
H1992 H 0.52108 0.66129 0.89265 0.0
H1993 H 0.51675 0.66765 0.82085 0.0
H1994 H 0.54296 0.61795 0.79058 0.0
H1995 H 0.54724 0.61117 0.86227 0.0
C1996 C 0.59884 0.63557 0.04357 0.0
C1997 C 0.61093 0.62219 0.03077 0.0
C1998 C 0.58189 0.63718 0.02609 0.0
C1999 C 0.57649 0.62525 0.99589 0.0
C2000 C 0.58888 0.61249 0.98138 0.0
C2001 C 0.60603 0.61098 0.9987 0.0
C2002 C 0.55763 0.62579 0.98116 0.0
C2003 C 0.55437 0.62876 0.94032 0.0
C2004 C 0.54286 0.62475 0.00797 0.0
C2005 C 0.54531 0.62034 0.051 0.0
C2006 C 0.55475 0.60476 0.06255 0.0
C2007 C 0.55723 0.6008 0.10309 0.0
C2008 C 0.55022 0.61226 0.13239 0.0
C2009 C 0.54068 0.62768 0.1212 0.0
C2010 C 0.53819 0.63171 0.0807 0.0
C2011 C 0.47769 0.62575 0.89828 0.0
C2012 C 0.46726 0.63966 0.91519 0.0
C2013 C 0.49547 0.62293 0.91053 0.0
C2014 C 0.50323 0.63396 0.93989 0.0
C2015 C 0.49282 0.64767 0.95726 0.0
C2016 C 0.47505 0.65054 0.94497 0.0
C2017 C 0.52212 0.63111 0.95301 0.0
C2018 C 0.52535 0.62762 0.99361 0.0
C2019 C 0.5368 0.63154 0.92591 0.0
C2020 C 0.5343 0.63564 0.88282 0.0
C2021 C 0.52579 0.65165 0.87069 0.0
C2022 C 0.52337 0.65534 0.83001 0.0
C2023 C 0.52953 0.64318 0.80117 0.0
C2024 C 0.53817 0.62733 0.81295 0.0
C2025 C 0.54061 0.62357 0.8536 0.0
H2026 H 0.52764 0.64607 0.76969 0.0
H2027 H 0.55216 0.60918 0.16376 0.0
H2028 H 0.61738 0.53224 0.11693 0.0
H2029 H 0.61328 0.50131 0.09459 0.0
H2030 H 0.65513 0.50844 0.0065 0.0
H2031 H 0.65969 0.53932 0.02925 0.0
H2032 H 0.62456 0.49241 0.97566 0.0
H2033 H 0.66366 0.48501 0.0895 0.0
H2034 H 0.67275 0.48863 0.16001 0.0
H2035 H 0.62525 0.46049 0.19822 0.0
H2036 H 0.61574 0.45692 0.1279 0.0
H2037 H 0.64138 0.40483 0.91377 0.0
H2038 H 0.64495 0.43421 0.94489 0.0
H2039 H 0.60448 0.42061 0.03255 0.0
H2040 H 0.60108 0.39072 0.0017 0.0
H2041 H 0.63213 0.43982 0.06581 0.0
H2042 H 0.59325 0.44621 0.95313 0.0
H2043 H 0.5836 0.44254 0.883 0.0
H2044 H 0.62946 0.47286 0.84315 0.0
H2045 H 0.63954 0.47648 0.91303 0.0
C2046 C 0.62591 0.52727 0.09316 0.0
C2047 C 0.63896 0.53841 0.07511 0.0
C2048 C 0.62349 0.50953 0.08034 0.0
C2049 C 0.634 0.50252 0.04914 0.0
C2050 C 0.64686 0.5136 0.03066 0.0
C2051 C 0.64939 0.53132 0.04361 0.0
C2052 C 0.63137 0.48374 0.03522 0.0
C2053 C 0.62642 0.4809 0.99524 0.0
C2054 C 0.63318 0.46877 0.06118 0.0
C2055 C 0.63889 0.47087 0.10346 0.0
C2056 C 0.65507 0.47973 0.11295 0.0
C2057 C 0.66031 0.48175 0.15288 0.0
C2058 C 0.64955 0.47484 0.18358 0.0
C2059 C 0.63355 0.46586 0.1744 0.0
C2060 C 0.62824 0.46383 0.13452 0.0
C2061 C 0.63332 0.40798 0.93988 0.0
C2062 C 0.62078 0.39555 0.95501 0.0
C2063 C 0.63535 0.42483 0.95758 0.0
C2064 C 0.62467 0.42979 0.99043 0.0
C2065 C 0.61276 0.4171 0.00699 0.0
C2066 C 0.61083 0.40006 0.98941 0.0
C2067 C 0.62563 0.44849 0.00603 0.0
C2068 C 0.63018 0.45133 0.04629 0.0
C2069 C 0.62331 0.46352 0.98041 0.0
C2070 C 0.61722 0.4615 0.93832 0.0
C2071 C 0.60135 0.45199 0.9294 0.0
C2072 C 0.59579 0.44993 0.88969 0.0
C2073 C 0.60593 0.45743 0.85864 0.0
C2074 C 0.62162 0.46704 0.86724 0.0
C2075 C 0.62725 0.46912 0.90689 0.0
H2076 H 0.60161 0.45582 0.82791 0.0
H2077 H 0.65364 0.47641 0.21448 0.0
H2078 H 0.40806 0.38456 0.0952 0.0
H2079 H 0.43735 0.38023 0.06417 0.0
H2080 H 0.41407 0.38942 0.94773 0.0
H2081 H 0.38429 0.39384 0.97891 0.0
H2082 H 0.43764 0.35947 0.95056 0.0
H2083 H 0.43858 0.42158 0.98688 0.0
H2084 H 0.4346 0.44771 0.0315 0.0
H2085 H 0.47442 0.4264 0.11174 0.0
H2086 H 0.47843 0.39998 0.06792 0.0
H2087 H 0.52389 0.36621 0.8579 0.0
H2088 H 0.49325 0.37159 0.88135 0.0
H2089 H 0.51148 0.36818 0.00367 0.0
H2090 H 0.54238 0.36334 0.98031 0.0
H2091 H 0.48969 0.39663 0.99336 0.0
H2092 H 0.4876 0.33389 0.95976 0.0
H2093 H 0.49136 0.30728 0.91648 0.0
H2094 H 0.45372 0.32935 0.83217 0.0
H2095 H 0.44992 0.35623 0.87471 0.0
C2096 C 0.40905 0.3857 0.06295 0.0
C2097 C 0.39378 0.38961 0.03954 0.0
C2098 C 0.42588 0.38327 0.04527 0.0
C2099 C 0.42796 0.38469 0.00369 0.0
C2100 C 0.41276 0.38834 0.97994 0.0
C2101 C 0.39579 0.39092 0.99776 0.0
C2102 C 0.44613 0.3822 0.98569 0.0
C2103 C 0.44897 0.36781 0.95924 0.0
C2104 C 0.46099 0.39279 0.99789 0.0
C2105 C 0.4587 0.40872 0.02424 0.0
C2106 C 0.44639 0.42239 0.0142 0.0
C2107 C 0.44414 0.43727 0.03932 0.0
C2108 C 0.45423 0.4387 0.07447 0.0
C2109 C 0.46661 0.42527 0.08452 0.0
C2110 C 0.46889 0.41035 0.05952 0.0
C2111 C 0.52145 0.36668 0.88981 0.0
C2112 C 0.53569 0.36442 0.9172 0.0
C2113 C 0.50384 0.36958 0.90319 0.0
C2114 C 0.49998 0.37016 0.9443 0.0
C2115 C 0.51411 0.36777 0.97178 0.0
C2116 C 0.53177 0.36484 0.9584 0.0
C2117 C 0.4813 0.37374 0.95856 0.0
C2118 C 0.47836 0.38836 0.98436 0.0
C2119 C 0.46637 0.36332 0.94583 0.0
C2120 C 0.46862 0.34717 0.92022 0.0
C2121 C 0.48024 0.33314 0.93183 0.0
C2122 C 0.48236 0.318 0.90746 0.0
C2123 C 0.47283 0.31665 0.87154 0.0
C2124 C 0.46112 0.33043 0.85997 0.0
C2125 C 0.45896 0.34562 0.88421 0.0
H2126 H 0.47448 0.30491 0.85272 0.0
H2127 H 0.45247 0.45023 0.09388 0.0
H2128 H 0.8755 0.4064 0.86582 0.0
H2129 H 0.86696 0.43412 0.83218 0.0
H2130 H 0.87596 0.409 0.71749 0.0
H2131 H 0.885 0.38104 0.75131 0.0
H2132 H 0.89062 0.44157 0.71893 0.0
H2133 H 0.83311 0.41795 0.752 0.0
H2134 H 0.80969 0.40452 0.79501 0.0
H2135 H 0.81027 0.45137 0.87021 0.0
H2136 H 0.83393 0.46496 0.82807 0.0
H2137 H 0.85131 0.51487 0.61387 0.0
H2138 H 0.8555 0.48495 0.64201 0.0
H2139 H 0.8557 0.50733 0.76097 0.0
H2140 H 0.85205 0.53755 0.7331 0.0
H2141 H 0.83487 0.47514 0.75308 0.0
H2142 H 0.89429 0.49727 0.721 0.0
H2143 H 0.91748 0.51022 0.67668 0.0
H2144 H 0.91227 0.46523 0.59691 0.0
H2145 H 0.88884 0.45213 0.6405 0.0
C2146 C 0.87556 0.40664 0.83341 0.0
C2147 C 0.88092 0.39144 0.81127 0.0
C2148 C 0.87055 0.42254 0.81417 0.0
C2149 C 0.87054 0.42364 0.77224 0.0
C2150 C 0.87579 0.40846 0.74989 0.0
C2151 C 0.88089 0.39248 0.76923 0.0
C2152 C 0.86577 0.44092 0.75223 0.0
C2153 C 0.87825 0.44871 0.72583 0.0
C2154 C 0.84977 0.45048 0.76172 0.0
C2155 C 0.83541 0.44243 0.787 0.0
C2156 C 0.82834 0.42535 0.77787 0.0
C2157 C 0.81501 0.41771 0.80208 0.0
C2158 C 0.80852 0.42708 0.83535 0.0
C2159 C 0.81532 0.44412 0.84444 0.0
C2160 C 0.82868 0.45181 0.82038 0.0
C2161 C 0.85238 0.5136 0.64601 0.0
C2162 C 0.85161 0.52886 0.67103 0.0
C2163 C 0.85466 0.49637 0.66206 0.0
C2164 C 0.8561 0.49392 0.70354 0.0
C2165 C 0.85462 0.50894 0.72883 0.0
C2166 C 0.85249 0.52625 0.71277 0.0
C2167 C 0.85981 0.47575 0.72028 0.0
C2168 C 0.84713 0.46785 0.74601 0.0
C2169 C 0.87553 0.466 0.70991 0.0
C2170 C 0.88967 0.47382 0.68378 0.0
C2171 C 0.89797 0.49021 0.69383 0.0
C2172 C 0.91118 0.49757 0.66888 0.0
C2173 C 0.91631 0.48858 0.63394 0.0
C2174 C 0.90826 0.47219 0.62395 0.0
C2175 C 0.89503 0.46479 0.64878 0.0
H2176 H 0.92654 0.49429 0.61466 0.0
H2177 H 0.7982 0.42114 0.85406 0.0
H2178 H 0.53155 0.11981 0.36906 0.0
H2179 H 0.50003 0.11611 0.35127 0.0
H2180 H 0.50365 0.16155 0.27131 0.0
H2181 H 0.53518 0.16588 0.29041 0.0
H2182 H 0.47326 0.16312 0.31362 0.0
H2183 H 0.50329 0.1179 0.2363 0.0
H2184 H 0.52338 0.09201 0.22437 0.0
H2185 H 0.49104 0.05932 0.30231 0.0
H2186 H 0.47088 0.08511 0.31516 0.0
H2187 H 0.39785 0.14643 0.19098 0.0
H2188 H 0.42741 0.15094 0.22064 0.0
H2189 H 0.41744 0.1075 0.30344 0.0
H2190 H 0.38754 0.10279 0.27336 0.0
H2191 H 0.45021 0.10445 0.26469 0.0
H2192 H 0.41873 0.15021 0.33722 0.0
H2193 H 0.3985 0.17631 0.34503 0.0
H2194 H 0.43358 0.20828 0.27162 0.0
H2195 H 0.45391 0.1823 0.2629 0.0
C2196 C 0.52569 0.12918 0.34797 0.0
C2197 C 0.53601 0.14322 0.33132 0.0
C2198 C 0.50764 0.12689 0.33747 0.0
C2199 C 0.49947 0.13841 0.3096 0.0
C2200 C 0.50967 0.15246 0.29284 0.0
C2201 C 0.52776 0.15481 0.3035 0.0
C2202 C 0.48026 0.13584 0.29827 0.0
C2203 C 0.46827 0.15034 0.30251 0.0
C2204 C 0.4736 0.11903 0.28473 0.0
C2205 C 0.48569 0.1035 0.27704 0.0
C2206 C 0.50055 0.10524 0.25117 0.0
C2207 C 0.51193 0.09057 0.24419 0.0
C2208 C 0.50852 0.07405 0.26267 0.0
C2209 C 0.49368 0.07214 0.28808 0.0
C2210 C 0.48227 0.08677 0.2952 0.0
C2211 C 0.40181 0.13794 0.21585 0.0
C2212 C 0.39038 0.12422 0.2298 0.0
C2213 C 0.41871 0.14061 0.23292 0.0
C2214 C 0.42462 0.12965 0.26445 0.0
C2215 C 0.4131 0.11615 0.2792 0.0
C2216 C 0.39601 0.11355 0.26221 0.0
C2217 C 0.44327 0.13174 0.27987 0.0
C2218 C 0.45517 0.11715 0.27626 0.0
C2219 C 0.44987 0.14851 0.29358 0.0
C2220 C 0.43779 0.16426 0.29921 0.0
C2221 C 0.42208 0.16277 0.32254 0.0
C2222 C 0.4106 0.17755 0.32715 0.0
C2223 C 0.41473 0.19393 0.30878 0.0
C2224 C 0.43039 0.19558 0.28584 0.0
C2225 C 0.44192 0.18084 0.2811 0.0
H2226 H 0.40582 0.20535 0.31239 0.0
H2227 H 0.51735 0.06271 0.25721 0.0
H2228 H 0.11695 0.45983 0.72912 0.0
H2229 H 0.11252 0.49134 0.7478 0.0
H2230 H 0.15758 0.50654 0.67339 0.0
H2231 H 0.16243 0.47463 0.65615 0.0
H2232 H 0.15607 0.52786 0.73793 0.0
H2233 H 0.11444 0.5098 0.63809 0.0
H2234 H 0.09169 0.49046 0.60594 0.0
H2235 H 0.05535 0.49968 0.70387 0.0
H2236 H 0.078 0.51884 0.73697 0.0
H2237 H 0.12127 0.6187 0.74646 0.0
H2238 H 0.12972 0.58991 0.7152 0.0
H2239 H 0.09556 0.56166 0.79867 0.0
H2240 H 0.0874 0.59018 0.8303 0.0
H2241 H 0.09334 0.54916 0.71759 0.0
H2242 H 0.13792 0.56465 0.81947 0.0
H2243 H 0.16083 0.5848 0.84851 0.0
H2244 H 0.19182 0.58171 0.74013 0.0
H2245 H 0.16891 0.56174 0.71022 0.0
C2246 C 0.12615 0.4699 0.71765 0.0
C2247 C 0.13998 0.46496 0.69127 0.0
C2248 C 0.12354 0.48789 0.72796 0.0
C2249 C 0.13436 0.50141 0.71101 0.0
C2250 C 0.14896 0.49638 0.68657 0.0
C2251 C 0.15179 0.47821 0.67685 0.0
C2252 C 0.12955 0.52068 0.71716 0.0
C2253 C 0.14244 0.53259 0.73276 0.0
C2254 C 0.11178 0.52699 0.71019 0.0
C2255 C 0.09798 0.51568 0.69013 0.0
C2256 C 0.10164 0.50763 0.65289 0.0
C2257 C 0.08876 0.4967 0.63449 0.0
C2258 C 0.0721 0.49382 0.65288 0.0
C2259 C 0.06827 0.50191 0.68967 0.0
C2260 C 0.08112 0.51283 0.70825 0.0
C2261 C 0.11528 0.60636 0.75746 0.0
C2262 C 0.10369 0.60661 0.79075 0.0
C2263 C 0.12021 0.58995 0.73982 0.0
C2264 C 0.11336 0.57367 0.75489 0.0
C2265 C 0.101 0.57407 0.78664 0.0
C2266 C 0.09636 0.59035 0.80467 0.0
C2267 C 0.11966 0.55604 0.73952 0.0
C2268 C 0.10703 0.54446 0.72206 0.0
C2269 C 0.13769 0.55019 0.74417 0.0
C2270 C 0.15161 0.56188 0.76245 0.0
C2271 C 0.14955 0.56838 0.80173 0.0
C2272 C 0.16254 0.57975 0.81836 0.0
C2273 C 0.17774 0.58458 0.79614 0.0
C2274 C 0.18002 0.57798 0.75728 0.0
C2275 C 0.16704 0.56663 0.74048 0.0
H2276 H 0.18777 0.5934 0.80906 0.0
H2277 H 0.06215 0.48535 0.6386 0.0
H2278 H 0.62426 0.88853 0.26551 0.0
H2279 H 0.59479 0.88175 0.29587 0.0
H2280 H 0.57041 0.88167 0.17874 0.0
H2281 H 0.59945 0.88832 0.14851 0.0
H2282 H 0.55026 0.90049 0.23337 0.0
H2283 H 0.58018 0.84275 0.223 0.0
H2284 H 0.60497 0.82137 0.23565 0.0
H2285 H 0.5968 0.8267 0.36236 0.0
H2286 H 0.5721 0.84829 0.35045 0.0
H2287 H 0.46624 0.85914 0.26596 0.0
H2288 H 0.49658 0.8653 0.24142 0.0
H2289 H 0.51772 0.85791 0.36052 0.0
H2290 H 0.48765 0.85078 0.38485 0.0
H2291 H 0.54014 0.84391 0.30898 0.0
H2292 H 0.50953 0.90053 0.32032 0.0
H2293 H 0.48492 0.92221 0.30862 0.0
H2294 H 0.49464 0.91984 0.18202 0.0
H2295 H 0.51916 0.89795 0.19291 0.0
C2296 C 0.61258 0.88714 0.24638 0.0
C2297 C 0.61421 0.88888 0.20463 0.0
C2298 C 0.59579 0.88321 0.26369 0.0
C2299 C 0.58042 0.88112 0.23948 0.0
C2300 C 0.58204 0.88324 0.19798 0.0
C2301 C 0.59873 0.88697 0.18075 0.0
C2302 C 0.56258 0.87644 0.25674 0.0
C2303 C 0.54801 0.88807 0.2497 0.0
C2304 C 0.55973 0.86041 0.2787 0.0
C2305 C 0.57444 0.84729 0.28585 0.0
C2306 C 0.58376 0.83946 0.25356 0.0
C2307 C 0.59778 0.82729 0.26059 0.0
C2308 C 0.6025 0.82274 0.29979 0.0
C2309 C 0.59315 0.83027 0.33202 0.0
C2310 C 0.57914 0.84246 0.32515 0.0
C2311 C 0.47732 0.85851 0.28689 0.0
C2312 C 0.47433 0.85469 0.32761 0.0
C2313 C 0.4947 0.86225 0.27286 0.0
C2314 C 0.50943 0.8625 0.2993 0.0
C2315 C 0.50659 0.85798 0.33957 0.0
C2316 C 0.48928 0.85409 0.35353 0.0
C2317 C 0.5277 0.86788 0.28531 0.0
C2318 C 0.54237 0.85641 0.29294 0.0
C2319 C 0.53067 0.88413 0.26405 0.0
C2320 C 0.51609 0.89748 0.25742 0.0
C2321 C 0.50635 0.90455 0.28996 0.0
C2322 C 0.49243 0.91688 0.28348 0.0
C2323 C 0.48819 0.92236 0.2446 0.0
C2324 C 0.49792 0.91557 0.21212 0.0
C2325 C 0.51185 0.90321 0.21843 0.0
H2326 H 0.4774 0.9319 0.23966 0.0
H2327 H 0.61339 0.81337 0.3052 0.0
H2328 H 0.85777 0.1079 0.42319 0.0
H2329 H 0.85303 0.07775 0.45067 0.0
H2330 H 0.89943 0.0844 0.52677 0.0
H2331 H 0.90399 0.11494 0.49983 0.0
H2332 H 0.89923 0.0524 0.47579 0.0
H2333 H 0.86137 0.08318 0.57061 0.0
H2334 H 0.83695 0.10369 0.59117 0.0
H2335 H 0.79855 0.07147 0.5273 0.0
H2336 H 0.8228 0.0509 0.50584 0.0
H2337 H 0.89379 0.97231 0.58498 0.0
H2338 H 0.89547 0.00327 0.56272 0.0
H2339 H 0.84244 0.9989 0.51097 0.0
H2340 H 0.84018 0.96784 0.53567 0.0
H2341 H 0.84535 0.02998 0.54824 0.0
H2342 H 0.88159 0.99924 0.4529 0.0
H2343 H 0.90518 0.97839 0.42933 0.0
H2344 H 0.94559 0.01013 0.48799 0.0
H2345 H 0.92222 0.03102 0.51253 0.0
C2346 C 0.86671 0.1031 0.44648 0.0
C2347 C 0.88119 0.11376 0.45957 0.0
C2348 C 0.864 0.08587 0.46211 0.0
C2349 C 0.87589 0.07881 0.49068 0.0
C2350 C 0.89008 0.08963 0.50476 0.0
C2351 C 0.89259 0.10709 0.48967 0.0
C2352 C 0.87411 0.05973 0.50351 0.0
C2353 C 0.88761 0.04751 0.49225 0.0
C2354 C 0.85856 0.05327 0.52333 0.0
C2355 C 0.84394 0.0656 0.53628 0.0
C2356 C 0.84775 0.08056 0.56063 0.0
C2357 C 0.83393 0.09218 0.57251 0.0
C2358 C 0.81622 0.08891 0.56046 0.0
C2359 C 0.81228 0.07399 0.53657 0.0
C2360 C 0.82605 0.06234 0.52457 0.0
C2361 C 0.88234 0.97785 0.56925 0.0
C2362 C 0.86674 0.9675 0.56263 0.0
C2363 C 0.88345 0.9956 0.55595 0.0
C2364 C 0.8692 0.00346 0.53462 0.0
C2365 C 0.85365 0.99315 0.52731 0.0
C2366 C 0.85244 0.97532 0.54109 0.0
C2367 C 0.87061 0.02255 0.521 0.0
C2368 C 0.857 0.03478 0.53182 0.0
C2369 C 0.88595 0.029 0.5001 0.0
C2370 C 0.90011 0.01663 0.48484 0.0
C2371 C 0.8955 1.00172 0.46099 0.0
C2372 C 0.90883 0.9899 0.44744 0.0
C2373 C 0.92687 0.99292 0.45721 0.0
C2374 C 0.93161 0.00781 0.48047 0.0
C2375 C 0.91833 0.01965 0.49418 0.0
H2376 H 0.93716 0.98374 0.44672 0.0
H2377 H 0.80553 0.09793 0.5697 0.0
H2378 H 0.09047 0.11211 0.61947 0.0
H2379 H 0.0617 0.11597 0.58593 0.0
H2380 H 0.08719 0.10688 0.47164 0.0
H2381 H 0.11643 0.10313 0.50531 0.0
H2382 H 0.06414 0.13594 0.47027 0.0
H2383 H 0.06113 0.07458 0.51142 0.0
H2384 H 0.06363 0.04901 0.55814 0.0
H2385 H 0.02272 0.07225 0.63296 0.0
H2386 H 0.02016 0.09811 0.587 0.0
H2387 H 0.97908 0.13037 0.37204 0.0
H2388 H 0.00907 0.12354 0.39776 0.0
H2389 H 0.98983 0.13084 0.51852 0.0
H2390 H 0.95959 0.13724 0.49297 0.0
H2391 H 0.01044 0.10077 0.51159 0.0
H2392 H 0.015 0.16297 0.47303 0.0
H2393 H 0.01268 0.18881 0.42698 0.0
H2394 H 0.05076 0.16396 0.34746 0.0
H2395 H 0.05311 0.13784 0.3928 0.0
C2396 C 0.09005 0.11084 0.58719 0.0
C2397 C 0.10578 0.10725 0.56507 0.0
C2398 C 0.07351 0.11298 0.56806 0.0
C2399 C 0.07222 0.11149 0.52632 0.0
C2400 C 0.08788 0.108 0.50393 0.0
C2401 C 0.10454 0.10579 0.52318 0.0
C2402 C 0.05446 0.11403 0.50658 0.0
C2403 C 0.05247 0.12801 0.47867 0.0
C2404 C 0.03914 0.10396 0.51824 0.0
C2405 C 0.04055 0.08836 0.54588 0.0
C2406 C 0.05276 0.07431 0.53799 0.0
C2407 C 0.05417 0.05975 0.56431 0.0
C2408 C 0.04336 0.05902 0.59853 0.0
C2409 C 0.03109 0.07284 0.60645 0.0
C2410 C 0.02963 0.08744 0.58024 0.0
C2411 C 0.98115 0.13039 0.40409 0.0
C2412 C 0.96687 0.13433 0.43044 0.0
C2413 C 0.99838 0.12664 0.41874 0.0
C2414 C 1.00176 0.12682 0.46005 0.0
C2415 C 0.98754 0.13066 0.48649 0.0
C2416 C 0.97029 0.13446 0.47185 0.0
C2417 C 0.02007 0.12284 0.47572 0.0
C2418 C 0.02215 0.10858 0.50288 0.0
C2419 C 0.03546 0.13265 0.46335 0.0
C2420 C 0.03408 0.14836 0.43609 0.0
C2421 C 0.02276 0.16294 0.44556 0.0
C2422 C 0.02146 0.17765 0.41962 0.0
C2423 C 0.03153 0.178 0.38426 0.0
C2424 C 0.04295 0.16366 0.37483 0.0
C2425 C 0.04428 0.1489 0.40065 0.0
H2426 H 0.03051 0.18941 0.36422 0.0
H2427 H 0.04448 0.04774 0.61888 0.0
H2428 H 0.11605 0.88035 0.51993 0.0
H2429 H 0.12281 0.90859 0.5552 0.0
H2430 H 0.12558 0.93647 0.44201 0.0
H2431 H 0.11933 0.90854 0.40696 0.0
H2432 H 0.15292 0.94584 0.48614 0.0
H2433 H 0.08878 0.93987 0.50677 0.0
H2434 H 0.06111 0.92467 0.52973 0.0
H2435 H 0.08129 0.92401 0.65015 0.0
H2436 H 0.10919 0.93902 0.62779 0.0
H2437 H 0.14315 0.03769 0.53738 0.0
H2438 H 0.13871 0.00719 0.51218 0.0
H2439 H 0.1421 0.98637 0.63242 0.0
H2440 H 0.14683 0.01679 0.6579 0.0
H2441 H 0.11362 0.97199 0.59124 0.0
H2442 H 0.17685 0.98072 0.56994 0.0
H2443 H 0.20387 0.99666 0.54577 0.0
H2444 H 0.18476 0.99268 0.42482 0.0
H2445 H 0.15748 0.97694 0.44833 0.0
C2446 C 0.11803 0.89255 0.50272 0.0
C2447 C 0.11721 0.89219 0.46068 0.0
C2448 C 0.12185 0.90868 0.52286 0.0
C2449 C 0.12467 0.92471 0.50125 0.0
C2450 C 0.12361 0.9243 0.45937 0.0
C2451 C 0.11997 0.90828 0.43935 0.0
C2452 C 0.12895 0.94199 0.52158 0.0
C2453 C 0.14423 0.9516 0.5089 0.0
C2454 C 0.11792 0.94934 0.55206 0.0
C2455 C 0.10115 0.94037 0.56553 0.0
C2456 C 0.08737 0.93635 0.53809 0.0
C2457 C 0.07164 0.9278 0.551 0.0
C2458 C 0.06947 0.92332 0.59135 0.0
C2459 C 0.08301 0.92745 0.61889 0.0
C2460 C 0.09878 0.93599 0.60612 0.0
C2461 C 0.14321 0.02666 0.5585 0.0
C2462 C 0.14538 0.02979 0.59975 0.0
C2463 C 0.1406 0.0092 0.54402 0.0
C2464 C 0.14018 0.99448 0.57042 0.0
C2465 C 0.14231 0.99753 0.61155 0.0
C2466 C 0.14497 0.01497 0.62605 0.0
C2467 C 0.13731 0.97596 0.55501 0.0
C2468 C 0.12238 0.96613 0.56872 0.0
C2469 C 0.14857 0.96844 0.52524 0.0
C2470 C 0.16505 0.97777 0.51096 0.0
C2471 C 0.17834 0.98335 0.53822 0.0
C2472 C 0.19372 0.99234 0.52463 0.0
C2473 C 0.19601 0.99571 0.4838 0.0
C2474 C 0.18296 0.99007 0.45645 0.0
C2475 C 0.16755 0.98109 0.46989 0.0
H2476 H 0.20792 0.00268 0.47333 0.0
H2477 H 0.05728 0.9167 0.60129 0.0
H2478 H 0.03826 0.84459 0.4702 0.0
H2479 H 0.00733 0.84882 0.49234 0.0
H2480 H 0.99742 0.88415 0.39231 0.0
H2481 H 0.0286 0.88086 0.37113 0.0
H2482 H 0.9817 0.89734 0.45533 0.0
H2483 H 0.98252 0.83941 0.39379 0.0
H2484 H 0.99326 0.80852 0.38112 0.0
H2485 H 0.98135 0.79398 0.5027 0.0
H2486 H 0.97077 0.82486 0.51627 0.0
H2487 H 0.88652 0.8951 0.49365 0.0
H2488 H 0.91507 0.89016 0.45785 0.0
H2489 H 0.93513 0.85946 0.55797 0.0
H2490 H 0.90689 0.86428 0.59354 0.0
H2491 H 0.94405 0.84398 0.48637 0.0
H2492 H 0.94567 0.90322 0.54789 0.0
H2493 H 0.93419 0.93399 0.55896 0.0
H2494 H 0.94067 0.94582 0.43396 0.0
H2495 H 0.95194 0.915 0.42204 0.0
C2496 C 0.02967 0.85345 0.45302 0.0
C2497 C 0.03613 0.86224 0.41852 0.0
C2498 C 0.01182 0.85568 0.46553 0.0
C2499 C 0.99985 0.8665 0.44354 0.0
C2500 C 0.00631 0.87561 0.40965 0.0
C2501 C 0.02421 0.87354 0.39733 0.0
C2502 C 0.98065 0.86834 0.45599 0.0
C2503 C 0.97339 0.88565 0.46142 0.0
C2504 C 0.96974 0.85313 0.46422 0.0
C2505 C 0.97599 0.8345 0.45612 0.0
C2506 C 0.9823 0.82966 0.4179 0.0
C2507 C 0.98835 0.81214 0.41055 0.0
C2508 C 0.98802 0.7993 0.44111 0.0
C2509 C 0.98161 0.80394 0.47906 0.0
C2510 C 0.97557 0.82144 0.48659 0.0
C2511 C 0.89693 0.88706 0.50763 0.0
C2512 C 0.89452 0.88018 0.54648 0.0
C2513 C 0.91325 0.88433 0.4873 0.0
C2514 C 0.92731 0.8746 0.50546 0.0
C2515 C 0.92452 0.86703 0.5434 0.0
C2516 C 0.90836 0.86986 0.56376 0.0
C2517 C 0.94531 0.87291 0.48637 0.0
C2518 C 0.95233 0.85563 0.47971 0.0
C2519 C 0.95592 0.88814 0.47671 0.0
C2520 C 0.94945 0.90675 0.484 0.0
C2521 C 0.94453 0.91235 0.52271 0.0
C2522 C 0.93808 0.92979 0.52915 0.0
C2523 C 0.93665 0.94183 0.49716 0.0
C2524 C 0.94175 0.93647 0.45869 0.0
C2525 C 0.94818 0.91901 0.45208 0.0
H2526 H 0.93163 0.95532 0.5022 0.0
H2527 H 0.99271 0.78575 0.43535 0.0
loop_
_geom_bond_atom_site_label_1
_geom_bond_atom_site_label_2
_geom_bond_distance
_geom_bond_site_symmetry_2
_ccdc_geom_bond_type
C0 C1 1.351 . S
C0 N3 1.368 . S
C0 H5 0.931 . S
C1 C0 1.351 . S
C1 N2 1.373 . S
C1 H29 0.930 . S
N2 C1 1.373 . S
N2 C4 1.340 . S
N3 C0 1.368 . S
N3 C4 1.321 . S
N3 Co6 2.135 . S
C4 N2 1.340 . S
C4 N3 1.321 . S
C4 H28 0.930 . S
H5 C0 0.931 . S
Co6 N3 2.135 . S
Co6 N9 2.121 . S
Co6 O14 2.055 . S
Co6 O17 2.039 . S
Co6 N20 2.140 . S
C7 O8 1.227 . S
C7 O17 1.265 . S
O8 C7 1.227 . S
N9 Co6 2.121 . S
N9 C11 1.375 . S
N9 C12 1.313 . S
C10 C11 1.338 . S
C10 N13 1.377 . S
C10 H30 0.930 . S
C11 N9 1.375 . S
C11 C10 1.338 . S
C11 H15 0.931 . S
C12 N9 1.313 . S
C12 N13 1.344 . S
C12 H16 0.930 . S
N13 C10 1.377 . S
N13 C12 1.344 . S
O14 Co6 2.055 . S
O14 C18 1.253 . S
H15 C11 0.931 . S
H16 C12 0.930 . S
O17 Co6 2.039 . S
O17 C7 1.265 . S
C18 O14 1.253 . S
C18 O19 1.227 . S
O19 C18 1.227 . S
N20 Co6 2.140 . S
N20 C23 1.346 . S
N20 C24 1.345 . S
C21 C22 1.387 . S
C21 C25 1.391 . S
C22 C21 1.387 . S
C22 C23 1.369 . S
C22 H31 0.929 . S
C23 N20 1.346 . S
C23 C22 1.369 . S
C23 H26 0.928 . S
C24 N20 1.345 . S
C24 C25 1.371 . S
C24 H27 0.931 . S
C25 C21 1.391 . S
C25 C24 1.371 . S
C25 H32 0.930 . S
H26 C23 0.928 . S
H27 C24 0.931 . S
H28 C4 0.930 . S
H29 C1 0.930 . S
H30 C10 0.930 . S
H31 C22 0.929 . S
H32 C25 0.930 . S
C33 C34 1.351 . S
C33 N36 1.368 . S
C33 H38 0.931 . S
C34 C33 1.351 . S
C34 N35 1.373 . S
C34 H62 0.930 . S
N35 C34 1.373 . S
N35 C37 1.340 . S
N36 C33 1.368 . S
N36 C37 1.321 . S
N36 Co39 2.135 . S
C37 N35 1.340 . S
C37 N36 1.321 . S
C37 H61 0.930 . S
H38 C33 0.931 . S
Co39 N36 2.135 . S
Co39 N42 2.121 . S
Co39 O47 2.055 . S
Co39 O50 2.039 . S
Co39 N53 2.140 . S
C40 O41 1.227 . S
C40 O50 1.265 . S
O41 C40 1.227 . S
N42 Co39 2.121 . S
N42 C44 1.375 . S
N42 C45 1.313 . S
C43 C44 1.338 . S
C43 N46 1.377 . S
C43 H63 0.930 . S
C44 N42 1.375 . S
C44 C43 1.338 . S
C44 H48 0.931 . S
C45 N42 1.313 . S
C45 N46 1.344 . S
C45 H49 0.930 . S
N46 C43 1.377 . S
N46 C45 1.344 . S
O47 Co39 2.055 . S
O47 C51 1.253 . S
H48 C44 0.931 . S
H49 C45 0.930 . S
O50 Co39 2.039 . S
O50 C40 1.265 . S
C51 O47 1.253 . S
C51 O52 1.227 . S
O52 C51 1.227 . S
N53 Co39 2.140 . S
N53 C56 1.346 . S
N53 C57 1.345 . S
C54 C55 1.387 . S
C54 C58 1.391 . S
C55 C54 1.387 . S
C55 C56 1.369 . S
C55 H64 0.929 . S
C56 N53 1.346 . S
C56 C55 1.369 . S
C56 H59 0.928 . S
C57 N53 1.345 . S
C57 C58 1.371 . S
C57 H60 0.931 . S
C58 C54 1.391 . S
C58 C57 1.371 . S
C58 H65 0.930 . S
H59 C56 0.928 . S
H60 C57 0.931 . S
H61 C37 0.930 . S
H62 C34 0.930 . S
H63 C43 0.930 . S
H64 C55 0.929 . S
H65 C58 0.930 . S
C66 C67 1.351 . S
C66 N69 1.368 . S
C66 H71 0.931 . S
C67 C66 1.351 . S
C67 N68 1.373 . S
C67 H95 0.930 . S
N68 C67 1.373 . S
N68 C70 1.340 . S
N69 C66 1.368 . S
N69 C70 1.321 . S
N69 Co72 2.135 . S
C70 N68 1.340 . S
C70 N69 1.321 . S
C70 H94 0.930 . S
H71 C66 0.931 . S
Co72 N69 2.135 . S
Co72 N75 2.121 . S
Co72 O80 2.055 . S
Co72 O83 2.039 . S
Co72 N86 2.140 . S
C73 O74 1.227 . S
C73 O83 1.265 . S
O74 C73 1.227 . S
N75 Co72 2.121 . S
N75 C77 1.375 . S
N75 C78 1.313 . S
C76 C77 1.338 . S
C76 N79 1.377 . S
C76 H96 0.930 . S
C77 N75 1.375 . S
C77 C76 1.338 . S
C77 H81 0.931 . S
C78 N75 1.313 . S
C78 N79 1.344 . S
C78 H82 0.930 . S
N79 C76 1.377 . S
N79 C78 1.344 . S
O80 Co72 2.055 . S
O80 C84 1.253 . S
H81 C77 0.931 . S
H82 C78 0.930 . S
O83 Co72 2.039 . S
O83 C73 1.265 . S
C84 O80 1.253 . S
C84 O85 1.227 . S
O85 C84 1.227 . S
N86 Co72 2.140 . S
N86 C89 1.346 . S
N86 C90 1.345 . S
C87 C88 1.387 . S
C87 C91 1.391 . S
C88 C87 1.387 . S
C88 C89 1.369 . S
C88 H97 0.929 . S
C89 N86 1.346 . S
C89 C88 1.369 . S
C89 H92 0.928 . S
C90 N86 1.345 . S
C90 C91 1.371 . S
C90 H93 0.931 . S
C91 C87 1.391 . S
C91 C90 1.371 . S
C91 H98 0.930 . S
H92 C89 0.928 . S
H93 C90 0.931 . S
H94 C70 0.930 . S
H95 C67 0.930 . S
H96 C76 0.930 . S
H97 C88 0.929 . S
H98 C91 0.930 . S
C99 C100 1.351 . S
C99 N102 1.368 . S
C99 H104 0.931 . S
C100 C99 1.351 . S
C100 N101 1.373 . S
C100 H128 0.930 . S
N101 C100 1.373 . S
N101 C103 1.340 . S
N102 C99 1.368 . S
N102 C103 1.321 . S
N102 Co105 2.135 . S
C103 N101 1.340 . S
C103 N102 1.321 . S
C103 H127 0.930 . S
H104 C99 0.931 . S
Co105 N102 2.135 . S
Co105 N108 2.121 . S
Co105 O113 2.055 . S
Co105 O116 2.039 . S
Co105 N119 2.140 . S
C106 O107 1.227 . S
C106 O116 1.265 . S
O107 C106 1.227 . S
N108 Co105 2.121 . S
N108 C110 1.375 . S
N108 C111 1.313 . S
C109 C110 1.338 . S
C109 N112 1.377 . S
C109 H129 0.930 . S
C110 N108 1.375 . S
C110 C109 1.338 . S
C110 H114 0.931 . S
C111 N108 1.313 . S
C111 N112 1.344 . S
C111 H115 0.930 . S
N112 C109 1.377 . S
N112 C111 1.344 . S
O113 Co105 2.055 . S
O113 C117 1.253 . S
H114 C110 0.931 . S
H115 C111 0.930 . S
O116 Co105 2.039 . S
O116 C106 1.265 . S
C117 O113 1.253 . S
C117 O118 1.227 . S
O118 C117 1.227 . S
N119 Co105 2.140 . S
N119 C122 1.346 . S
N119 C123 1.345 . S
C120 C121 1.387 . S
C120 C124 1.391 . S
C121 C120 1.387 . S
C121 C122 1.369 . S
C121 H130 0.929 . S
C122 N119 1.346 . S
C122 C121 1.369 . S
C122 H125 0.928 . S
C123 N119 1.345 . S
C123 C124 1.371 . S
C123 H126 0.931 . S
C124 C120 1.391 . S
C124 C123 1.371 . S
C124 H131 0.930 . S
H125 C122 0.928 . S
H126 C123 0.931 . S
H127 C103 0.930 . S
H128 C100 0.930 . S
H129 C109 0.930 . S
H130 C121 0.929 . S
H131 C124 0.930 . S
C132 C133 1.351 . S
C132 N135 1.368 . S
C132 H137 0.931 . S
C133 C132 1.351 . S
C133 N134 1.373 . S
C133 H161 0.930 . S
N134 C133 1.373 . S
N134 C136 1.340 . S
N135 C132 1.368 . S
N135 C136 1.321 . S
N135 Co138 2.135 . S
C136 N134 1.340 . S
C136 N135 1.321 . S
C136 H160 0.930 . S
H137 C132 0.931 . S
Co138 N135 2.135 . S
Co138 N141 2.121 . S
Co138 O146 2.055 . S
Co138 O149 2.039 . S
Co138 N152 2.140 . S
C139 O140 1.227 . S
C139 O149 1.265 . S
O140 C139 1.227 . S
N141 Co138 2.121 . S
N141 C143 1.375 . S
N141 C144 1.313 . S
C142 C143 1.338 . S
C142 N145 1.377 . S
C142 H162 0.930 . S
C143 N141 1.375 . S
C143 C142 1.338 . S
C143 H147 0.931 . S
C144 N141 1.313 . S
C144 N145 1.344 . S
C144 H148 0.930 . S
N145 C142 1.377 . S
N145 C144 1.344 . S
O146 Co138 2.055 . S
O146 C150 1.253 . S
H147 C143 0.931 . S
H148 C144 0.930 . S
O149 Co138 2.039 . S
O149 C139 1.265 . S
C150 O146 1.253 . S
C150 O151 1.227 . S
O151 C150 1.227 . S
N152 Co138 2.140 . S
N152 C155 1.346 . S
N152 C156 1.345 . S
C153 C154 1.387 . S
C153 C157 1.391 . S
C154 C153 1.387 . S
C154 C155 1.369 . S
C154 H163 0.929 . S
C155 N152 1.346 . S
C155 C154 1.369 . S
C155 H158 0.928 . S
C156 N152 1.345 . S
C156 C157 1.371 . S
C156 H159 0.931 . S
C157 C153 1.391 . S
C157 C156 1.371 . S
C157 H164 0.930 . S
H158 C155 0.928 . S
H159 C156 0.931 . S
H160 C136 0.930 . S
H161 C133 0.930 . S
H162 C142 0.930 . S
H163 C154 0.929 . S
H164 C157 0.930 . S
C165 C166 1.351 . S
C165 N168 1.368 . S
C165 H170 0.931 . S
C166 C165 1.351 . S
C166 N167 1.373 . S
C166 H194 0.930 . S
N167 C166 1.373 . S
N167 C169 1.340 . S
N168 C165 1.368 . S
N168 C169 1.321 . S
N168 Co171 2.135 . S
C169 N167 1.340 . S
C169 N168 1.321 . S
C169 H193 0.930 . S
H170 C165 0.931 . S
Co171 N168 2.135 . S
Co171 N174 2.121 . S
Co171 O179 2.055 . S
Co171 O182 2.039 . S
Co171 N185 2.140 . S
C172 O173 1.227 . S
C172 O182 1.265 . S
O173 C172 1.227 . S
N174 Co171 2.121 . S
N174 C176 1.375 . S
N174 C177 1.313 . S
C175 C176 1.338 . S
C175 N178 1.377 . S
C175 H195 0.930 . S
C176 N174 1.375 . S
C176 C175 1.338 . S
C176 H180 0.931 . S
C177 N174 1.313 . S
C177 N178 1.344 . S
C177 H181 0.930 . S
N178 C175 1.377 . S
N178 C177 1.344 . S
O179 Co171 2.055 . S
O179 C183 1.253 . S
H180 C176 0.931 . S
H181 C177 0.930 . S
O182 Co171 2.039 . S
O182 C172 1.265 . S
C183 O179 1.253 . S
C183 O184 1.227 . S
O184 C183 1.227 . S
N185 Co171 2.140 . S
N185 C188 1.346 . S
N185 C189 1.345 . S
C186 C187 1.387 . S
C186 C190 1.391 . S
C187 C186 1.387 . S
C187 C188 1.369 . S
C187 H196 0.929 . S
C188 N185 1.346 . S
C188 C187 1.369 . S
C188 H191 0.928 . S
C189 N185 1.345 . S
C189 C190 1.371 . S
C189 H192 0.931 . S
C190 C186 1.391 . S
C190 C189 1.371 . S
C190 H197 0.930 . S
H191 C188 0.928 . S
H192 C189 0.931 . S
H193 C169 0.930 . S
H194 C166 0.930 . S
H195 C175 0.930 . S
H196 C187 0.929 . S
H197 C190 0.930 . S
C198 C199 1.351 . S
C198 N201 1.368 . S
C198 H203 0.931 . S
C199 C198 1.351 . S
C199 N200 1.373 . S
C199 H227 0.930 . S
N200 C199 1.373 . S
N200 C202 1.340 . S
N201 C198 1.368 . S
N201 C202 1.321 . S
N201 Co204 2.135 . S
C202 N200 1.340 . S
C202 N201 1.321 . S
C202 H226 0.930 . S
H203 C198 0.931 . S
Co204 N201 2.135 . S
Co204 N207 2.121 . S
Co204 O212 2.055 . S
Co204 O215 2.039 . S
Co204 N218 2.140 . S
C205 O206 1.227 . S
C205 O215 1.265 . S
O206 C205 1.227 . S
N207 Co204 2.121 . S
N207 C209 1.375 . S
N207 C210 1.313 . S
C208 C209 1.338 . S
C208 N211 1.377 . S
C208 H228 0.930 . S
C209 N207 1.375 . S
C209 C208 1.338 . S
C209 H213 0.931 . S
C210 N207 1.313 . S
C210 N211 1.344 . S
C210 H214 0.930 . S
N211 C208 1.377 . S
N211 C210 1.344 . S
O212 Co204 2.055 . S
O212 C216 1.253 . S
H213 C209 0.931 . S
H214 C210 0.930 . S
O215 Co204 2.039 . S
O215 C205 1.265 . S
C216 O212 1.253 . S
C216 O217 1.227 . S
O217 C216 1.227 . S
N218 Co204 2.140 . S
N218 C221 1.346 . S
N218 C222 1.345 . S
C219 C220 1.387 . S
C219 C223 1.391 . S
C220 C219 1.387 . S
C220 C221 1.369 . S
C220 H229 0.929 . S
C221 N218 1.346 . S
C221 C220 1.369 . S
C221 H224 0.928 . S
C222 N218 1.345 . S
C222 C223 1.371 . S
C222 H225 0.931 . S
C223 C219 1.391 . S
C223 C222 1.371 . S
C223 H230 0.930 . S
H224 C221 0.928 . S
H225 C222 0.931 . S
H226 C202 0.930 . S
H227 C199 0.930 . S
H228 C208 0.930 . S
H229 C220 0.929 . S
H230 C223 0.930 . S
C231 C232 1.351 . S
C231 N234 1.368 . S
C231 H236 0.931 . S
C232 C231 1.351 . S
C232 N233 1.373 . S
C232 H260 0.930 . S
N233 C232 1.373 . S
N233 C235 1.340 . S
N234 C231 1.368 . S
N234 C235 1.321 . S
N234 Co237 2.135 . S
C235 N233 1.340 . S
C235 N234 1.321 . S
C235 H259 0.930 . S
H236 C231 0.931 . S
Co237 N234 2.135 . S
Co237 N240 2.121 . S
Co237 O245 2.055 . S
Co237 O248 2.039 . S
Co237 N251 2.140 . S
C238 O239 1.227 . S
C238 O248 1.265 . S
O239 C238 1.227 . S
N240 Co237 2.121 . S
N240 C242 1.375 . S
N240 C243 1.313 . S
C241 C242 1.338 . S
C241 N244 1.377 . S
C241 H261 0.930 . S
C242 N240 1.375 . S
C242 C241 1.338 . S
C242 H246 0.931 . S
C243 N240 1.313 . S
C243 N244 1.344 . S
C243 H247 0.930 . S
N244 C241 1.377 . S
N244 C243 1.344 . S
O245 Co237 2.055 . S
O245 C249 1.253 . S
H246 C242 0.931 . S
H247 C243 0.930 . S
O248 Co237 2.039 . S
O248 C238 1.265 . S
C249 O245 1.253 . S
C249 O250 1.227 . S
O250 C249 1.227 . S
N251 Co237 2.140 . S
N251 C254 1.346 . S
N251 C255 1.345 . S
C252 C253 1.387 . S
C252 C256 1.391 . S
C253 C252 1.387 . S
C253 C254 1.369 . S
C253 H262 0.929 . S
C254 N251 1.346 . S
C254 C253 1.369 . S
C254 H257 0.928 . S
C255 N251 1.345 . S
C255 C256 1.371 . S
C255 H258 0.931 . S
C256 C252 1.391 . S
C256 C255 1.371 . S
C256 H263 0.930 . S
H257 C254 0.928 . S
H258 C255 0.931 . S
H259 C235 0.930 . S
H260 C232 0.930 . S
H261 C241 0.930 . S
H262 C253 0.929 . S
H263 C256 0.930 . S
C264 C265 1.351 . S
C264 N267 1.368 . S
C264 H269 0.931 . S
C265 C264 1.351 . S
C265 N266 1.373 . S
C265 H293 0.930 . S
N266 C265 1.373 . S
N266 C268 1.340 . S
N267 C264 1.368 . S
N267 C268 1.321 . S
N267 Co270 2.135 . S
C268 N266 1.340 . S
C268 N267 1.321 . S
C268 H292 0.930 . S
H269 C264 0.931 . S
Co270 N267 2.135 . S
Co270 N273 2.121 . S
Co270 O278 2.055 . S
Co270 O281 2.039 . S
Co270 N284 2.140 . S
C271 O272 1.227 . S
C271 O281 1.265 . S
O272 C271 1.227 . S
N273 Co270 2.121 . S
N273 C275 1.375 . S
N273 C276 1.313 . S
C274 C275 1.338 . S
C274 N277 1.377 . S
C274 H294 0.930 . S
C275 N273 1.375 . S
C275 C274 1.338 . S
C275 H279 0.931 . S
C276 N273 1.313 . S
C276 N277 1.344 . S
C276 H280 0.930 . S
N277 C274 1.377 . S
N277 C276 1.344 . S
O278 Co270 2.055 . S
O278 C282 1.253 . S
H279 C275 0.931 . S
H280 C276 0.930 . S
O281 Co270 2.039 . S
O281 C271 1.265 . S
C282 O278 1.253 . S
C282 O283 1.227 . S
O283 C282 1.227 . S
N284 Co270 2.140 . S
N284 C287 1.346 . S
N284 C288 1.345 . S
C285 C286 1.387 . S
C285 C289 1.391 . S
C286 C285 1.387 . S
C286 C287 1.369 . S
C286 H295 0.929 . S
C287 N284 1.346 . S
C287 C286 1.369 . S
C287 H290 0.928 . S
C288 N284 1.345 . S
C288 C289 1.371 . S
C288 H291 0.931 . S
C289 C285 1.391 . S
C289 C288 1.371 . S
C289 H296 0.930 . S
H290 C287 0.928 . S
H291 C288 0.931 . S
H292 C268 0.930 . S
H293 C265 0.930 . S
H294 C274 0.930 . S
H295 C286 0.929 . S
H296 C289 0.930 . S
C297 C298 1.351 . S
C297 N300 1.368 . S
C297 H302 0.931 . S
C298 C297 1.351 . S
C298 N299 1.373 . S
C298 H326 0.930 . S
N299 C298 1.373 . S
N299 C301 1.340 . S
N300 C297 1.368 . S
N300 C301 1.321 . S
N300 Co303 2.135 . S
C301 N299 1.340 . S
C301 N300 1.321 . S
C301 H325 0.930 . S
H302 C297 0.931 . S
Co303 N300 2.135 . S
Co303 N306 2.121 . S
Co303 O311 2.055 . S
Co303 O314 2.039 . S
Co303 N317 2.140 . S
C304 O305 1.227 . S
C304 O314 1.265 . S
O305 C304 1.227 . S
N306 Co303 2.121 . S
N306 C308 1.375 . S
N306 C309 1.313 . S
C307 C308 1.338 . S
C307 N310 1.377 . S
C307 H327 0.930 . S
C308 N306 1.375 . S
C308 C307 1.338 . S
C308 H312 0.931 . S
C309 N306 1.313 . S
C309 N310 1.344 . S
C309 H313 0.930 . S
N310 C307 1.377 . S
N310 C309 1.344 . S
O311 Co303 2.055 . S
O311 C315 1.253 . S
H312 C308 0.931 . S
H313 C309 0.930 . S
O314 Co303 2.039 . S
O314 C304 1.265 . S
C315 O311 1.253 . S
C315 O316 1.227 . S
O316 C315 1.227 . S
N317 Co303 2.140 . S
N317 C320 1.346 . S
N317 C321 1.345 . S
C318 C319 1.387 . S
C318 C322 1.391 . S
C319 C318 1.387 . S
C319 C320 1.369 . S
C319 H328 0.929 . S
C320 N317 1.346 . S
C320 C319 1.369 . S
C320 H323 0.928 . S
C321 N317 1.345 . S
C321 C322 1.371 . S
C321 H324 0.931 . S
C322 C318 1.391 . S
C322 C321 1.371 . S
C322 H329 0.930 . S
H323 C320 0.928 . S
H324 C321 0.931 . S
H325 C301 0.930 . S
H326 C298 0.930 . S
H327 C307 0.930 . S
H328 C319 0.929 . S
H329 C322 0.930 . S
C330 C331 1.351 . S
C330 N333 1.368 . S
C330 H335 0.931 . S
C331 C330 1.351 . S
C331 N332 1.373 . S
C331 H359 0.930 . S
N332 C331 1.373 . S
N332 C334 1.340 . S
N333 C330 1.368 . S
N333 C334 1.321 . S
N333 Co336 2.135 . S
C334 N332 1.340 . S
C334 N333 1.321 . S
C334 H358 0.930 . S
H335 C330 0.931 . S
Co336 N333 2.135 . S
Co336 N339 2.121 . S
Co336 O344 2.055 . S
Co336 O347 2.039 . S
Co336 N350 2.140 . S
C337 O338 1.227 . S
C337 O347 1.265 . S
O338 C337 1.227 . S
N339 Co336 2.121 . S
N339 C341 1.375 . S
N339 C342 1.313 . S
C340 C341 1.338 . S
C340 N343 1.377 . S
C340 H360 0.930 . S
C341 N339 1.375 . S
C341 C340 1.338 . S
C341 H345 0.931 . S
C342 N339 1.313 . S
C342 N343 1.344 . S
C342 H346 0.930 . S
N343 C340 1.377 . S
N343 C342 1.344 . S
O344 Co336 2.055 . S
O344 C348 1.253 . S
H345 C341 0.931 . S
H346 C342 0.930 . S
O347 Co336 2.039 . S
O347 C337 1.265 . S
C348 O344 1.253 . S
C348 O349 1.227 . S
O349 C348 1.227 . S
N350 Co336 2.140 . S
N350 C353 1.346 . S
N350 C354 1.345 . S
C351 C352 1.387 . S
C351 C355 1.391 . S
C352 C351 1.387 . S
C352 C353 1.369 . S
C352 H361 0.929 . S
C353 N350 1.346 . S
C353 C352 1.369 . S
C353 H356 0.928 . S
C354 N350 1.345 . S
C354 C355 1.371 . S
C354 H357 0.931 . S
C355 C351 1.391 . S
C355 C354 1.371 . S
C355 H362 0.930 . S
H356 C353 0.928 . S
H357 C354 0.931 . S
H358 C334 0.930 . S
H359 C331 0.930 . S
H360 C340 0.930 . S
H361 C352 0.929 . S
H362 C355 0.930 . S
C363 C364 1.351 . S
C363 N366 1.368 . S
C363 H368 0.931 . S
C364 C363 1.351 . S
C364 N365 1.373 . S
C364 H392 0.930 . S
N365 C364 1.373 . S
N365 C367 1.340 . S
N366 C363 1.368 . S
N366 C367 1.321 . S
N366 Co369 2.135 . S
C367 N365 1.340 . S
C367 N366 1.321 . S
C367 H391 0.930 . S
H368 C363 0.931 . S
Co369 N366 2.135 . S
Co369 N372 2.121 . S
Co369 O377 2.055 . S
Co369 O380 2.039 . S
Co369 N383 2.140 . S
C370 O371 1.227 . S
C370 O380 1.265 . S
O371 C370 1.227 . S
N372 Co369 2.121 . S
N372 C374 1.375 . S
N372 C375 1.313 . S
C373 C374 1.338 . S
C373 N376 1.377 . S
C373 H393 0.930 . S
C374 N372 1.375 . S
C374 C373 1.338 . S
C374 H378 0.931 . S
C375 N372 1.313 . S
C375 N376 1.344 . S
C375 H379 0.930 . S
N376 C373 1.377 . S
N376 C375 1.344 . S
O377 Co369 2.055 . S
O377 C381 1.253 . S
H378 C374 0.931 . S
H379 C375 0.930 . S
O380 Co369 2.039 . S
O380 C370 1.265 . S
C381 O377 1.253 . S
C381 O382 1.227 . S
O382 C381 1.227 . S
N383 Co369 2.140 . S
N383 C386 1.346 . S
N383 C387 1.345 . S
C384 C385 1.387 . S
C384 C388 1.391 . S
C385 C384 1.387 . S
C385 C386 1.369 . S
C385 H394 0.929 . S
C386 N383 1.346 . S
C386 C385 1.369 . S
C386 H389 0.928 . S
C387 N383 1.345 . S
C387 C388 1.371 . S
C387 H390 0.931 . S
C388 C384 1.391 . S
C388 C387 1.371 . S
C388 H395 0.930 . S
H389 C386 0.928 . S
H390 C387 0.931 . S
H391 C367 0.930 . S
H392 C364 0.930 . S
H393 C373 0.930 . S
H394 C385 0.929 . S
H395 C388 0.930 . S
C396 C397 1.351 . S
C396 N399 1.368 . S
C396 H401 0.931 . S
C397 C396 1.351 . S
C397 N398 1.373 . S
C397 H425 0.930 . S
N398 C397 1.373 . S
N398 C400 1.340 . S
N399 C396 1.368 . S
N399 C400 1.321 . S
N399 Co402 2.135 . S
C400 N398 1.340 . S
C400 N399 1.321 . S
C400 H424 0.930 . S
H401 C396 0.931 . S
Co402 N399 2.135 . S
Co402 N405 2.121 . S
Co402 O410 2.055 . S
Co402 O413 2.039 . S
Co402 N416 2.140 . S
C403 O404 1.227 . S
C403 O413 1.265 . S
O404 C403 1.227 . S
N405 Co402 2.121 . S
N405 C407 1.375 . S
N405 C408 1.313 . S
C406 C407 1.338 . S
C406 N409 1.377 . S
C406 H426 0.930 . S
C407 N405 1.375 . S
C407 C406 1.338 . S
C407 H411 0.931 . S
C408 N405 1.313 . S
C408 N409 1.344 . S
C408 H412 0.930 . S
N409 C406 1.377 . S
N409 C408 1.344 . S
O410 Co402 2.055 . S
O410 C414 1.253 . S
H411 C407 0.931 . S
H412 C408 0.930 . S
O413 Co402 2.039 . S
O413 C403 1.265 . S
C414 O410 1.253 . S
C414 O415 1.227 . S
O415 C414 1.227 . S
N416 Co402 2.140 . S
N416 C419 1.346 . S
N416 C420 1.345 . S
C417 C418 1.387 . S
C417 C421 1.391 . S
C418 C417 1.387 . S
C418 C419 1.369 . S
C418 H427 0.929 . S
C419 N416 1.346 . S
C419 C418 1.369 . S
C419 H422 0.928 . S
C420 N416 1.345 . S
C420 C421 1.371 . S
C420 H423 0.931 . S
C421 C417 1.391 . S
C421 C420 1.371 . S
C421 H428 0.930 . S
H422 C419 0.928 . S
H423 C420 0.931 . S
H424 C400 0.930 . S
H425 C397 0.930 . S
H426 C406 0.930 . S
H427 C418 0.929 . S
H428 C421 0.930 . S
C429 C430 1.351 . S
C429 N432 1.368 . S
C429 H434 0.931 . S
C430 C429 1.351 . S
C430 N431 1.373 . S
C430 H458 0.930 . S
N431 C430 1.373 . S
N431 C433 1.340 . S
N432 C429 1.368 . S
N432 C433 1.321 . S
N432 Co435 2.135 . S
C433 N431 1.340 . S
C433 N432 1.321 . S
C433 H457 0.930 . S
H434 C429 0.931 . S
Co435 N432 2.135 . S
Co435 N438 2.121 . S
Co435 O443 2.055 . S
Co435 O446 2.039 . S
Co435 N449 2.140 . S
C436 O437 1.227 . S
C436 O446 1.265 . S
O437 C436 1.227 . S
N438 Co435 2.121 . S
N438 C440 1.375 . S
N438 C441 1.313 . S
C439 C440 1.338 . S
C439 N442 1.377 . S
C439 H459 0.930 . S
C440 N438 1.375 . S
C440 C439 1.338 . S
C440 H444 0.931 . S
C441 N438 1.313 . S
C441 N442 1.344 . S
C441 H445 0.930 . S
N442 C439 1.377 . S
N442 C441 1.344 . S
O443 Co435 2.055 . S
O443 C447 1.253 . S
H444 C440 0.931 . S
H445 C441 0.930 . S
O446 Co435 2.039 . S
O446 C436 1.265 . S
C447 O443 1.253 . S
C447 O448 1.227 . S
O448 C447 1.227 . S
N449 Co435 2.140 . S
N449 C452 1.346 . S
N449 C453 1.345 . S
C450 C451 1.387 . S
C450 C454 1.391 . S
C451 C450 1.387 . S
C451 C452 1.369 . S
C451 H460 0.929 . S
C452 N449 1.346 . S
C452 C451 1.369 . S
C452 H455 0.928 . S
C453 N449 1.345 . S
C453 C454 1.371 . S
C453 H456 0.931 . S
C454 C450 1.391 . S
C454 C453 1.371 . S
C454 H461 0.930 . S
H455 C452 0.928 . S
H456 C453 0.931 . S
H457 C433 0.930 . S
H458 C430 0.930 . S
H459 C439 0.930 . S
H460 C451 0.929 . S
H461 C454 0.930 . S
C462 C463 1.351 . S
C462 N465 1.368 . S
C462 H467 0.931 . S
C463 C462 1.351 . S
C463 N464 1.373 . S
C463 H491 0.930 . S
N464 C463 1.373 . S
N464 C466 1.340 . S
N465 C462 1.368 . S
N465 C466 1.321 . S
N465 Co468 2.135 . S
C466 N464 1.340 . S
C466 N465 1.321 . S
C466 H490 0.930 . S
H467 C462 0.931 . S
Co468 N465 2.135 . S
Co468 N471 2.121 . S
Co468 O476 2.055 . S
Co468 O479 2.039 . S
Co468 N482 2.140 . S
C469 O470 1.227 . S
C469 O479 1.265 . S
O470 C469 1.227 . S
N471 Co468 2.121 . S
N471 C473 1.375 . S
N471 C474 1.313 . S
C472 C473 1.338 . S
C472 N475 1.377 . S
C472 H492 0.930 . S
C473 N471 1.375 . S
C473 C472 1.338 . S
C473 H477 0.931 . S
C474 N471 1.313 . S
C474 N475 1.344 . S
C474 H478 0.930 . S
N475 C472 1.377 . S
N475 C474 1.344 . S
O476 Co468 2.055 . S
O476 C480 1.253 . S
H477 C473 0.931 . S
H478 C474 0.930 . S
O479 Co468 2.039 . S
O479 C469 1.265 . S
C480 O476 1.253 . S
C480 O481 1.227 . S
O481 C480 1.227 . S
N482 Co468 2.140 . S
N482 C485 1.346 . S
N482 C486 1.345 . S
C483 C484 1.387 . S
C483 C487 1.391 . S
C484 C483 1.387 . S
C484 C485 1.369 . S
C484 H493 0.929 . S
C485 N482 1.346 . S
C485 C484 1.369 . S
C485 H488 0.928 . S
C486 N482 1.345 . S
C486 C487 1.371 . S
C486 H489 0.931 . S
C487 C483 1.391 . S
C487 C486 1.371 . S
C487 H494 0.930 . S
H488 C485 0.928 . S
H489 C486 0.931 . S
H490 C466 0.930 . S
H491 C463 0.930 . S
H492 C472 0.930 . S
H493 C484 0.929 . S
H494 C487 0.930 . S
C495 C496 1.351 . S
C495 N498 1.368 . S
C495 H500 0.931 . S
C496 C495 1.351 . S
C496 N497 1.373 . S
C496 H524 0.930 . S
N497 C496 1.373 . S
N497 C499 1.340 . S
N498 C495 1.368 . S
N498 C499 1.321 . S
N498 Co501 2.135 . S
C499 N497 1.340 . S
C499 N498 1.321 . S
C499 H523 0.930 . S
H500 C495 0.931 . S
Co501 N498 2.135 . S
Co501 N504 2.121 . S
Co501 O509 2.055 . S
Co501 O512 2.039 . S
Co501 N515 2.140 . S
C502 O503 1.227 . S
C502 O512 1.265 . S
O503 C502 1.227 . S
N504 Co501 2.121 . S
N504 C506 1.375 . S
N504 C507 1.313 . S
C505 C506 1.338 . S
C505 N508 1.377 . S
C505 H525 0.930 . S
C506 N504 1.375 . S
C506 C505 1.338 . S
C506 H510 0.931 . S
C507 N504 1.313 . S
C507 N508 1.344 . S
C507 H511 0.930 . S
N508 C505 1.377 . S
N508 C507 1.344 . S
O509 Co501 2.055 . S
O509 C513 1.253 . S
H510 C506 0.931 . S
H511 C507 0.930 . S
O512 Co501 2.039 . S
O512 C502 1.265 . S
C513 O509 1.253 . S
C513 O514 1.227 . S
O514 C513 1.227 . S
N515 Co501 2.140 . S
N515 C518 1.346 . S
N515 C519 1.345 . S
C516 C517 1.387 . S
C516 C520 1.391 . S
C517 C516 1.387 . S
C517 C518 1.369 . S
C517 H526 0.929 . S
C518 N515 1.346 . S
C518 C517 1.369 . S
C518 H521 0.928 . S
C519 N515 1.345 . S
C519 C520 1.371 . S
C519 H522 0.931 . S
C520 C516 1.391 . S
C520 C519 1.371 . S
C520 H527 0.930 . S
H521 C518 0.928 . S
H522 C519 0.931 . S
H523 C499 0.930 . S
H524 C496 0.930 . S
H525 C505 0.930 . S
H526 C517 0.929 . S
H527 C520 0.930 . S
H528 C546 0.951 . S
H529 C548 0.951 . S
H530 C550 0.950 . S
H531 C551 0.950 . S
H532 C553 0.950 . S
H533 C556 0.950 . S
H534 C557 0.950 . S
H535 C559 0.950 . S
H536 C560 0.950 . S
H537 C561 0.951 . S
H538 C563 0.951 . S
H539 C565 0.950 . S
H540 C566 0.950 . S
H541 C568 0.950 . S
H542 C571 0.950 . S
H543 C572 0.950 . S
H544 C574 0.950 . S
H545 C575 0.950 . S
C546 H528 0.951 . S
C546 C547 1.366 . S
C546 C548 1.388 . S
C547 C546 1.366 . S
C547 C551 1.385 . S
C548 H529 0.951 . S
C548 C546 1.388 . S
C548 C549 1.366 . S
C549 C548 1.366 . S
C549 C550 1.414 . S
C549 C552 1.499 . S
C550 H530 0.950 . S
C550 C549 1.414 . S
C550 C551 1.374 . S
C551 H531 0.950 . S
C551 C547 1.385 . S
C551 C550 1.374 . S
C552 C549 1.499 . S
C552 C553 1.373 . S
C552 C554 1.389 . S
C553 H532 0.950 . S
C553 C552 1.373 . S
C553 C569 1.377 . S
C554 C552 1.389 . S
C554 C555 1.524 . S
C554 C568 1.377 . S
C555 C554 1.524 . S
C555 C556 1.397 . S
C555 C560 1.363 . S
C556 H533 0.950 . S
C556 C555 1.397 . S
C556 C557 1.334 . S
C557 H534 0.950 . S
C557 C556 1.334 . S
C557 C558 1.287 . S
C558 C557 1.287 . S
C558 C559 1.524 . S
C558 H577 0.913 . S
C559 H535 0.950 . S
C559 C558 1.524 . S
C559 C560 1.415 . S
C560 H536 0.950 . S
C560 C555 1.363 . S
C560 C559 1.415 . S
C561 H537 0.951 . S
C561 C562 1.366 . S
C561 C563 1.388 . S
C562 C561 1.366 . S
C562 C566 1.385 . S
C563 H538 0.951 . S
C563 C561 1.388 . S
C563 C564 1.366 . S
C564 C563 1.366 . S
C564 C565 1.414 . S
C564 C567 1.499 . S
C565 H539 0.950 . S
C565 C564 1.414 . S
C565 C566 1.374 . S
C566 H540 0.950 . S
C566 C562 1.385 . S
C566 C565 1.374 . S
C567 C564 1.499 . S
C567 C568 1.373 . S
C567 C569 1.389 . S
C568 H541 0.950 . S
C568 C554 1.377 . S
C568 C567 1.373 . S
C569 C553 1.377 . S
C569 C567 1.389 . S
C569 C570 1.524 . S
C570 C569 1.524 . S
C570 C571 1.397 . S
C570 C575 1.363 . S
C571 H542 0.950 . S
C571 C570 1.397 . S
C571 C572 1.334 . S
C572 H543 0.950 . S
C572 C571 1.334 . S
C572 C573 1.287 . S
C573 C572 1.287 . S
C573 C574 1.524 . S
C573 H576 0.999 . S
C574 H544 0.950 . S
C574 C573 1.524 . S
C574 C575 1.415 . S
C575 H545 0.950 . S
C575 C570 1.363 . S
C575 C574 1.415 . S
H576 C573 0.999 . S
H577 C558 0.913 . S
H578 C596 0.951 . S
H579 C598 0.951 . S
H580 C600 0.950 . S
H581 C601 0.950 . S
H582 C603 0.950 . S
H583 C606 0.950 . S
H584 C607 0.950 . S
H585 C609 0.950 . S
H586 C610 0.950 . S
H587 C611 0.951 . S
H588 C613 0.951 . S
H589 C615 0.950 . S
H590 C616 0.950 . S
H591 C618 0.950 . S
H592 C621 0.950 . S
H593 C622 0.950 . S
H594 C624 0.950 . S
H595 C625 0.950 . S
C596 H578 0.951 . S
C596 C597 1.366 . S
C596 C598 1.388 . S
C597 C596 1.366 . S
C597 C601 1.385 . S
C598 H579 0.951 . S
C598 C596 1.388 . S
C598 C599 1.366 . S
C599 C598 1.366 . S
C599 C600 1.414 . S
C599 C602 1.499 . S
C600 H580 0.950 . S
C600 C599 1.414 . S
C600 C601 1.374 . S
C601 H581 0.950 . S
C601 C597 1.385 . S
C601 C600 1.374 . S
C602 C599 1.499 . S
C602 C603 1.373 . S
C602 C604 1.389 . S
C603 H582 0.950 . S
C603 C602 1.373 . S
C603 C619 1.377 . S
C604 C602 1.389 . S
C604 C605 1.524 . S
C604 C618 1.377 . S
C605 C604 1.524 . S
C605 C606 1.397 . S
C605 C610 1.363 . S
C606 H583 0.950 . S
C606 C605 1.397 . S
C606 C607 1.334 . S
C607 H584 0.950 . S
C607 C606 1.334 . S
C607 C608 1.287 . S
C608 C607 1.287 . S
C608 C609 1.524 . S
C608 H627 0.913 . S
C609 H585 0.950 . S
C609 C608 1.524 . S
C609 C610 1.415 . S
C610 H586 0.950 . S
C610 C605 1.363 . S
C610 C609 1.415 . S
C611 H587 0.951 . S
C611 C612 1.366 . S
C611 C613 1.388 . S
C612 C611 1.366 . S
C612 C616 1.385 . S
C613 H588 0.951 . S
C613 C611 1.388 . S
C613 C614 1.366 . S
C614 C613 1.366 . S
C614 C615 1.414 . S
C614 C617 1.499 . S
C615 H589 0.950 . S
C615 C614 1.414 . S
C615 C616 1.374 . S
C616 H590 0.950 . S
C616 C612 1.385 . S
C616 C615 1.374 . S
C617 C614 1.499 . S
C617 C618 1.373 . S
C617 C619 1.389 . S
C618 H591 0.950 . S
C618 C604 1.377 . S
C618 C617 1.373 . S
C619 C603 1.377 . S
C619 C617 1.389 . S
C619 C620 1.524 . S
C620 C619 1.524 . S
C620 C621 1.397 . S
C620 C625 1.363 . S
C621 H592 0.950 . S
C621 C620 1.397 . S
C621 C622 1.334 . S
C622 H593 0.950 . S
C622 C621 1.334 . S
C622 C623 1.287 . S
C623 C622 1.287 . S
C623 C624 1.524 . S
C623 H626 0.999 . S
C624 H594 0.950 . S
C624 C623 1.524 . S
C624 C625 1.415 . S
C625 H595 0.950 . S
C625 C620 1.363 . S
C625 C624 1.415 . S
H626 C623 0.999 . S
H627 C608 0.913 . S
H628 C646 0.951 . S
H629 C648 0.951 . S
H630 C650 0.950 . S
H631 C651 0.950 . S
H632 C653 0.950 . S
H633 C656 0.950 . S
H634 C657 0.950 . S
H635 C659 0.950 . S
H636 C660 0.950 . S
H637 C661 0.951 . S
H638 C663 0.951 . S
H639 C665 0.950 . S
H640 C666 0.950 . S
H641 C668 0.950 . S
H642 C671 0.950 . S
H643 C672 0.950 . S
H644 C674 0.950 . S
H645 C675 0.950 . S
C646 H628 0.951 . S
C646 C647 1.366 . S
C646 C648 1.388 . S
C647 C646 1.366 . S
C647 C651 1.385 . S
C648 H629 0.951 . S
C648 C646 1.388 . S
C648 C649 1.366 . S
C649 C648 1.366 . S
C649 C650 1.414 . S
C649 C652 1.499 . S
C650 H630 0.950 . S
C650 C649 1.414 . S
C650 C651 1.374 . S
C651 H631 0.950 . S
C651 C647 1.385 . S
C651 C650 1.374 . S
C652 C649 1.499 . S
C652 C653 1.373 . S
C652 C654 1.389 . S
C653 H632 0.950 . S
C653 C652 1.373 . S
C653 C669 1.377 . S
C654 C652 1.389 . S
C654 C655 1.524 . S
C654 C668 1.377 . S
C655 C654 1.524 . S
C655 C656 1.397 . S
C655 C660 1.363 . S
C656 H633 0.950 . S
C656 C655 1.397 . S
C656 C657 1.334 . S
C657 H634 0.950 . S
C657 C656 1.334 . S
C657 C658 1.287 . S
C658 C657 1.287 . S
C658 C659 1.524 . S
C658 H677 0.913 . S
C659 H635 0.950 . S
C659 C658 1.524 . S
C659 C660 1.415 . S
C660 H636 0.950 . S
C660 C655 1.363 . S
C660 C659 1.415 . S
C661 H637 0.951 . S
C661 C662 1.366 . S
C661 C663 1.388 . S
C662 C661 1.366 . S
C662 C666 1.385 . S
C663 H638 0.951 . S
C663 C661 1.388 . S
C663 C664 1.366 . S
C664 C663 1.366 . S
C664 C665 1.414 . S
C664 C667 1.499 . S
C665 H639 0.950 . S
C665 C664 1.414 . S
C665 C666 1.374 . S
C666 H640 0.950 . S
C666 C662 1.385 . S
C666 C665 1.374 . S
C667 C664 1.499 . S
C667 C668 1.373 . S
C667 C669 1.389 . S
C668 H641 0.950 . S
C668 C654 1.377 . S
C668 C667 1.373 . S
C669 C653 1.377 . S
C669 C667 1.389 . S
C669 C670 1.524 . S
C670 C669 1.524 . S
C670 C671 1.397 . S
C670 C675 1.363 . S
C671 H642 0.950 . S
C671 C670 1.397 . S
C671 C672 1.334 . S
C672 H643 0.950 . S
C672 C671 1.334 . S
C672 C673 1.287 . S
C673 C672 1.287 . S
C673 C674 1.524 . S
C673 H676 0.999 . S
C674 H644 0.950 . S
C674 C673 1.524 . S
C674 C675 1.415 . S
C675 H645 0.950 . S
C675 C670 1.363 . S
C675 C674 1.415 . S
H676 C673 0.999 . S
H677 C658 0.913 . S
H678 C696 0.951 . S
H679 C698 0.951 . S
H680 C700 0.950 . S
H681 C701 0.950 . S
H682 C703 0.950 . S
H683 C706 0.950 . S
H684 C707 0.950 . S
H685 C709 0.950 . S
H686 C710 0.950 . S
H687 C711 0.951 . S
H688 C713 0.951 . S
H689 C715 0.950 . S
H690 C716 0.950 . S
H691 C718 0.950 . S
H692 C721 0.950 . S
H693 C722 0.950 . S
H694 C724 0.950 . S
H695 C725 0.950 . S
C696 H678 0.951 . S
C696 C697 1.366 . S
C696 C698 1.388 . S
C697 C696 1.366 . S
C697 C701 1.385 . S
C698 H679 0.951 . S
C698 C696 1.388 . S
C698 C699 1.366 . S
C699 C698 1.366 . S
C699 C700 1.414 . S
C699 C702 1.499 . S
C700 H680 0.950 . S
C700 C699 1.414 . S
C700 C701 1.374 . S
C701 H681 0.950 . S
C701 C697 1.385 . S
C701 C700 1.374 . S
C702 C699 1.499 . S
C702 C703 1.373 . S
C702 C704 1.389 . S
C703 H682 0.950 . S
C703 C702 1.373 . S
C703 C719 1.377 . S
C704 C702 1.389 . S
C704 C705 1.524 . S
C704 C718 1.377 . S
C705 C704 1.524 . S
C705 C706 1.397 . S
C705 C710 1.363 . S
C706 H683 0.950 . S
C706 C705 1.397 . S
C706 C707 1.334 . S
C707 H684 0.950 . S
C707 C706 1.334 . S
C707 C708 1.287 . S
C708 C707 1.287 . S
C708 C709 1.524 . S
C708 H727 0.913 . S
C709 H685 0.950 . S
C709 C708 1.524 . S
C709 C710 1.415 . S
C710 H686 0.950 . S
C710 C705 1.363 . S
C710 C709 1.415 . S
C711 H687 0.951 . S
C711 C712 1.366 . S
C711 C713 1.388 . S
C712 C711 1.366 . S
C712 C716 1.385 . S
C713 H688 0.951 . S
C713 C711 1.388 . S
C713 C714 1.366 . S
C714 C713 1.366 . S
C714 C715 1.414 . S
C714 C717 1.499 . S
C715 H689 0.950 . S
C715 C714 1.414 . S
C715 C716 1.374 . S
C716 H690 0.950 . S
C716 C712 1.385 . S
C716 C715 1.374 . S
C717 C714 1.499 . S
C717 C718 1.373 . S
C717 C719 1.389 . S
C718 H691 0.950 . S
C718 C704 1.377 . S
C718 C717 1.373 . S
C719 C703 1.377 . S
C719 C717 1.389 . S
C719 C720 1.524 . S
C720 C719 1.524 . S
C720 C721 1.397 . S
C720 C725 1.363 . S
C721 H692 0.950 . S
C721 C720 1.397 . S
C721 C722 1.334 . S
C722 H693 0.950 . S
C722 C721 1.334 . S
C722 C723 1.287 . S
C723 C722 1.287 . S
C723 C724 1.524 . S
C723 H726 0.999 . S
C724 H694 0.950 . S
C724 C723 1.524 . S
C724 C725 1.415 . S
C725 H695 0.950 . S
C725 C720 1.363 . S
C725 C724 1.415 . S
H726 C723 0.999 . S
H727 C708 0.913 . S
H728 C746 0.968 . S
H729 C748 0.951 . S
H730 C750 0.950 . S
H731 C751 0.950 . S
H732 C753 0.950 . S
H733 C756 0.950 . S
H734 C757 0.950 . S
H735 C759 0.950 1_554 S
H736 C760 0.950 . S
H737 C761 0.951 . S
H738 C763 0.951 . S
H739 C765 0.950 . S
H740 C766 0.950 . S
H741 C768 0.950 . S
H742 C771 0.950 . S
H743 C772 0.950 . S
H744 C774 0.950 . S
H745 C775 0.950 . S
C746 H728 0.968 . S
C746 C747 1.369 . S
C746 C748 1.368 1_554 S
C747 C746 1.369 . S
C747 C751 1.385 1_554 S
C748 H729 0.951 . S
C748 C746 1.368 1_556 S
C748 C749 1.366 . S
C749 C748 1.366 . S
C749 C750 1.414 . S
C749 C752 1.499 . S
C750 H730 0.950 . S
C750 C749 1.414 . S
C750 C751 1.374 . S
C751 H731 0.950 . S
C751 C747 1.385 1_556 S
C751 C750 1.374 . S
C752 C749 1.499 . S
C752 C753 1.373 . S
C752 C754 1.389 . S
C753 H732 0.950 . S
C753 C752 1.373 . S
C753 C769 1.377 . S
C754 C752 1.389 . S
C754 C755 1.524 . S
C754 C768 1.377 . S
C755 C754 1.524 . S
C755 C756 1.397 . S
C755 C760 1.363 . S
C756 H733 0.950 . S
C756 C755 1.397 . S
C756 C757 1.334 1_556 S
C757 H734 0.950 . S
C757 C756 1.334 1_554 S
C757 C758 1.287 . S
C758 C757 1.287 . S
C758 C759 1.524 1_554 S
C758 H777 0.913 . S
C759 H735 0.950 1_556 S
C759 C758 1.524 1_556 S
C759 C760 1.415 . S
C760 H736 0.950 . S
C760 C755 1.363 . S
C760 C759 1.415 . S
C761 H737 0.951 . S
C761 C762 1.366 . S
C761 C763 1.388 . S
C762 C761 1.366 . S
C762 C766 1.385 . S
C763 H738 0.951 . S
C763 C761 1.388 . S
C763 C764 1.366 . S
C764 C763 1.366 . S
C764 C765 1.414 . S
C764 C767 1.499 . S
C765 H739 0.950 . S
C765 C764 1.414 . S
C765 C766 1.374 . S
C766 H740 0.950 . S
C766 C762 1.385 . S
C766 C765 1.374 . S
C767 C764 1.499 . S
C767 C768 1.373 . S
C767 C769 1.389 . S
C768 H741 0.950 . S
C768 C754 1.377 . S
C768 C767 1.373 . S
C769 C753 1.377 . S
C769 C767 1.389 . S
C769 C770 1.524 . S
C770 C769 1.524 . S
C770 C771 1.397 . S
C770 C775 1.363 . S
C771 H742 0.950 . S
C771 C770 1.397 . S
C771 C772 1.334 . S
C772 H743 0.950 . S
C772 C771 1.334 . S
C772 C773 1.287 . S
C773 C772 1.287 . S
C773 C774 1.524 . S
C773 H776 0.999 . S
C774 H744 0.950 . S
C774 C773 1.524 . S
C774 C775 1.415 . S
C775 H745 0.950 . S
C775 C770 1.363 . S
C775 C774 1.415 . S
H776 C773 0.999 . S
H777 C758 0.913 . S
H778 C796 0.951 . S
H779 C798 0.951 . S
H780 C800 0.950 . S
H781 C801 0.950 . S
H782 C803 0.950 . S
H783 C806 0.950 . S
H784 C807 0.950 . S
H785 C809 0.950 . S
H786 C810 0.950 . S
H787 C811 0.951 . S
H788 C813 0.951 . S
H789 C815 0.950 . S
H790 C816 0.950 . S
H791 C818 0.950 . S
H792 C821 0.950 . S
H793 C822 0.950 . S
H794 C824 0.950 . S
H795 C825 0.950 . S
C796 H778 0.951 . S
C796 C797 1.366 . S
C796 C798 1.388 . S
C797 C796 1.366 . S
C797 C801 1.385 . S
C798 H779 0.951 . S
C798 C796 1.388 . S
C798 C799 1.366 . S
C799 C798 1.366 . S
C799 C800 1.414 . S
C799 C802 1.499 . S
C800 H780 0.950 . S
C800 C799 1.414 . S
C800 C801 1.374 . S
C801 H781 0.950 . S
C801 C797 1.385 . S
C801 C800 1.374 . S
C802 C799 1.499 . S
C802 C803 1.373 . S
C802 C804 1.389 . S
C803 H782 0.950 . S
C803 C802 1.373 . S
C803 C819 1.377 . S
C804 C802 1.389 . S
C804 C805 1.524 . S
C804 C818 1.377 . S
C805 C804 1.524 . S
C805 C806 1.397 . S
C805 C810 1.363 . S
C806 H783 0.950 . S
C806 C805 1.397 . S
C806 C807 1.334 . S
C807 H784 0.950 . S
C807 C806 1.334 . S
C807 C808 1.287 . S
C808 C807 1.287 . S
C808 C809 1.524 . S
C808 H827 0.913 . S
C809 H785 0.950 . S
C809 C808 1.524 . S
C809 C810 1.415 . S
C810 H786 0.950 . S
C810 C805 1.363 . S
C810 C809 1.415 . S
C811 H787 0.951 . S
C811 C812 1.366 . S
C811 C813 1.388 1_556 S
C812 C811 1.366 . S
C812 C816 1.385 1_556 S
C813 H788 0.951 . S
C813 C811 1.388 1_554 S
C813 C814 1.366 . S
C814 C813 1.366 . S
C814 C815 1.414 . S
C814 C817 1.499 . S
C815 H789 0.950 . S
C815 C814 1.414 . S
C815 C816 1.374 . S
C816 H790 0.950 . S
C816 C812 1.385 1_554 S
C816 C815 1.374 . S
C817 C814 1.499 . S
C817 C818 1.373 . S
C817 C819 1.389 . S
C818 H791 0.950 . S
C818 C804 1.377 . S
C818 C817 1.373 . S
C819 C803 1.377 . S
C819 C817 1.389 . S
C819 C820 1.524 . S
C820 C819 1.524 . S
C820 C821 1.397 . S
C820 C825 1.363 . S
C821 H792 0.950 . S
C821 C820 1.397 . S
C821 C822 1.334 . S
C822 H793 0.950 . S
C822 C821 1.334 . S
C822 C823 1.287 . S
C823 C822 1.287 . S
C823 C824 1.524 . S
C823 H826 0.999 . S
C824 H794 0.950 . S
C824 C823 1.524 . S
C824 C825 1.415 . S
C825 H795 0.950 . S
C825 C820 1.363 . S
C825 C824 1.415 . S
H826 C823 0.999 . S
H827 C808 0.913 . S
H828 C846 0.951 . S
H829 C848 0.951 . S
H830 C850 0.950 . S
H831 C851 0.950 . S
H832 C853 0.950 . S
H833 C856 0.950 . S
H834 C857 0.950 . S
H835 C859 0.950 1_554 S
H836 C860 0.950 . S
H837 C861 0.951 . S
H838 C863 0.951 . S
H839 C865 0.950 . S
H840 C866 0.950 . S
H841 C868 0.950 . S
H842 C871 0.950 . S
H843 C872 0.950 . S
H844 C874 0.950 . S
H845 C875 0.950 . S
C846 H828 0.951 . S
C846 C847 1.366 . S
C846 C848 1.388 1_554 S
C847 C846 1.366 . S
C847 C851 1.385 1_554 S
C848 H829 0.951 . S
C848 C846 1.388 1_556 S
C848 C849 1.366 . S
C849 C848 1.366 . S
C849 C850 1.414 . S
C849 C852 1.499 . S
C850 H830 0.950 . S
C850 C849 1.414 . S
C850 C851 1.374 . S
C851 H831 0.950 . S
C851 C847 1.385 1_556 S
C851 C850 1.374 . S
C852 C849 1.499 . S
C852 C853 1.373 . S
C852 C854 1.389 . S
C853 H832 0.950 . S
C853 C852 1.373 . S
C853 C869 1.377 . S
C854 C852 1.389 . S
C854 C855 1.524 . S
C854 C868 1.377 . S
C855 C854 1.524 . S
C855 C856 1.397 . S
C855 C860 1.363 . S
C856 H833 0.950 . S
C856 C855 1.397 . S
C856 C857 1.334 . S
C857 H834 0.950 . S
C857 C856 1.334 . S
C857 C858 1.287 1_556 S
C858 C857 1.287 1_554 S
C858 C859 1.524 1_554 S
C858 H877 0.913 . S
C859 H835 0.950 1_556 S
C859 C858 1.524 1_556 S
C859 C860 1.415 . S
C860 H836 0.950 . S
C860 C855 1.363 . S
C860 C859 1.415 . S
C861 H837 0.951 . S
C861 C862 1.366 . S
C861 C863 1.388 . S
C862 C861 1.366 . S
C862 C866 1.385 . S
C863 H838 0.951 . S
C863 C861 1.388 . S
C863 C864 1.366 . S
C864 C863 1.366 . S
C864 C865 1.414 . S
C864 C867 1.499 . S
C865 H839 0.950 . S
C865 C864 1.414 . S
C865 C866 1.374 . S
C866 H840 0.950 . S
C866 C862 1.385 . S
C866 C865 1.374 . S
C867 C864 1.499 . S
C867 C868 1.373 . S
C867 C869 1.389 . S
C868 H841 0.950 . S
C868 C854 1.377 . S
C868 C867 1.373 . S
C869 C853 1.377 . S
C869 C867 1.389 . S
C869 C870 1.524 . S
C870 C869 1.524 . S
C870 C871 1.397 . S
C870 C875 1.363 . S
C871 H842 0.950 . S
C871 C870 1.397 . S
C871 C872 1.334 . S
C872 H843 0.950 . S
C872 C871 1.334 . S
C872 C873 1.287 . S
C873 C872 1.287 . S
C873 C874 1.524 . S
C873 H876 0.999 . S
C874 H844 0.950 . S
C874 C873 1.524 . S
C874 C875 1.415 . S
C875 H845 0.950 . S
C875 C870 1.363 . S
C875 C874 1.415 . S
H876 C873 0.999 . S
H877 C858 0.913 . S
H878 C896 0.951 . S
H879 C898 0.951 . S
H880 C900 0.950 . S
H881 C901 0.950 . S
H882 C903 0.950 . S
H883 C906 0.950 . S
H884 C907 0.950 . S
H885 C909 0.950 . S
H886 C910 0.950 . S
H887 C911 0.951 . S
H888 C913 0.951 . S
H889 C915 0.950 . S
H890 C916 0.950 . S
H891 C918 0.950 . S
H892 C921 0.950 . S
H893 C922 0.950 . S
H894 C924 0.950 . S
H895 C925 0.950 . S
C896 H878 0.951 . S
C896 C897 1.366 . S
C896 C898 1.388 . S
C897 C896 1.366 . S
C897 C901 1.385 . S
C898 H879 0.951 . S
C898 C896 1.388 . S
C898 C899 1.366 . S
C899 C898 1.366 . S
C899 C900 1.414 . S
C899 C902 1.499 . S
C900 H880 0.950 . S
C900 C899 1.414 . S
C900 C901 1.374 . S
C901 H881 0.950 . S
C901 C897 1.385 . S
C901 C900 1.374 . S
C902 C899 1.499 . S
C902 C903 1.373 . S
C902 C904 1.389 . S
C903 H882 0.950 . S
C903 C902 1.373 . S
C903 C919 1.377 . S
C904 C902 1.389 . S
C904 C905 1.524 . S
C904 C918 1.377 . S
C905 C904 1.524 . S
C905 C906 1.397 . S
C905 C910 1.363 . S
C906 H883 0.950 . S
C906 C905 1.397 . S
C906 C907 1.334 . S
C907 H884 0.950 . S
C907 C906 1.334 . S
C907 C908 1.287 . S
C908 C907 1.287 . S
C908 C909 1.524 . S
C908 H927 0.913 . S
C909 H885 0.950 . S
C909 C908 1.524 . S
C909 C910 1.415 . S
C910 H886 0.950 . S
C910 C905 1.363 . S
C910 C909 1.415 . S
C911 H887 0.951 . S
C911 C912 1.366 . S
C911 C913 1.388 1_556 S
C912 C911 1.366 . S
C912 C916 1.385 1_556 S
C913 H888 0.951 . S
C913 C911 1.388 1_554 S
C913 C914 1.366 . S
C914 C913 1.366 . S
C914 C915 1.414 . S
C914 C917 1.499 . S
C915 H889 0.950 . S
C915 C914 1.414 . S
C915 C916 1.374 . S
C916 H890 0.950 . S
C916 C912 1.385 1_554 S
C916 C915 1.374 . S
C917 C914 1.499 . S
C917 C918 1.373 . S
C917 C919 1.389 . S
C918 H891 0.950 . S
C918 C904 1.377 . S
C918 C917 1.373 . S
C919 C903 1.377 . S
C919 C917 1.389 . S
C919 C920 1.524 . S
C920 C919 1.524 . S
C920 C921 1.397 . S
C920 C925 1.363 . S
C921 H892 0.950 . S
C921 C920 1.397 . S
C921 C922 1.334 . S
C922 H893 0.950 . S
C922 C921 1.334 . S
C922 C923 1.287 . S
C923 C922 1.287 . S
C923 C924 1.524 . S
C923 H926 0.999 . S
C924 H894 0.950 . S
C924 C923 1.524 . S
C924 C925 1.415 . S
C925 H895 0.950 . S
C925 C920 1.363 . S
C925 C924 1.415 . S
H926 C923 0.999 . S
H927 C908 0.913 . S
H928 C946 0.951 . S
H929 C948 0.951 . S
H930 C950 0.950 . S
H931 C951 0.950 . S
H932 C953 0.950 . S
H933 C956 0.950 . S
H934 C957 0.950 . S
H935 C959 0.950 1_556 S
H936 C960 0.950 . S
H937 C961 0.951 . S
H938 C963 0.951 . S
H939 C965 0.950 . S
H940 C966 0.950 . S
H941 C968 0.950 . S
H942 C971 0.950 . S
H943 C972 0.950 . S
H944 C974 0.950 . S
H945 C975 0.950 . S
C946 H928 0.951 . S
C946 C947 1.366 . S
C946 C948 1.388 . S
C947 C946 1.366 . S
C947 C951 1.385 . S
C948 H929 0.951 . S
C948 C946 1.388 . S
C948 C949 1.366 . S
C949 C948 1.366 . S
C949 C950 1.414 . S
C949 C952 1.499 . S
C950 H930 0.950 . S
C950 C949 1.414 . S
C950 C951 1.374 . S
C951 H931 0.950 . S
C951 C947 1.385 . S
C951 C950 1.374 . S
C952 C949 1.499 . S
C952 C953 1.373 . S
C952 C954 1.389 . S
C953 H932 0.950 . S
C953 C952 1.373 . S
C953 C969 1.377 . S
C954 C952 1.389 . S
C954 C955 1.524 . S
C954 C968 1.377 . S
C955 C954 1.524 . S
C955 C956 1.397 . S
C955 C960 1.363 . S
C956 H933 0.950 . S
C956 C955 1.397 . S
C956 C957 1.334 . S
C957 H934 0.950 . S
C957 C956 1.334 . S
C957 C958 1.287 . S
C958 C957 1.287 . S
C958 C959 1.524 . S
C958 H977 0.913 . S
C959 H935 0.950 1_554 S
C959 C958 1.524 . S
C959 C960 1.415 . S
C960 H936 0.950 . S
C960 C955 1.363 . S
C960 C959 1.415 . S
C961 H937 0.951 . S
C961 C962 1.366 . S
C961 C963 1.388 . S
C962 C961 1.366 . S
C962 C966 1.385 . S
C963 H938 0.951 . S
C963 C961 1.388 . S
C963 C964 1.366 . S
C964 C963 1.366 . S
C964 C965 1.414 . S
C964 C967 1.499 . S
C965 H939 0.950 . S
C965 C964 1.414 . S
C965 C966 1.374 . S
C966 H940 0.950 . S
C966 C962 1.385 . S
C966 C965 1.374 . S
C967 C964 1.499 . S
C967 C968 1.373 . S
C967 C969 1.389 . S
C968 H941 0.950 . S
C968 C954 1.377 . S
C968 C967 1.373 . S
C969 C953 1.377 . S
C969 C967 1.389 . S
C969 C970 1.524 . S
C970 C969 1.524 . S
C970 C971 1.397 . S
C970 C975 1.363 . S
C971 H942 0.950 . S
C971 C970 1.397 . S
C971 C972 1.334 . S
C972 H943 0.950 . S
C972 C971 1.334 . S
C972 C973 1.287 . S
C973 C972 1.287 . S
C973 C974 1.524 . S
C973 H976 0.999 . S
C974 H944 0.950 . S
C974 C973 1.524 . S
C974 C975 1.415 . S
C975 H945 0.950 . S
C975 C970 1.363 . S
C975 C974 1.415 . S
H976 C973 0.999 . S
H977 C958 0.913 . S
H978 C996 0.951 . S
H979 C998 0.951 . S
H980 C1000 0.950 . S
H981 C1001 0.950 . S
H982 C1003 0.950 . S
H983 C1006 0.950 . S
H984 C1007 0.950 . S
H985 C1009 0.950 . S
H986 C1010 0.950 . S
H987 C1011 0.951 . S
H988 C1013 0.951 . S
H989 C1015 0.950 . S
H990 C1016 0.950 . S
H991 C1018 0.950 . S
H992 C1021 0.950 . S
H993 C1022 0.950 . S
H994 C1024 0.950 . S
H995 C1025 0.950 . S
C996 H978 0.951 . S
C996 C997 1.366 . S
C996 C998 1.388 . S
C997 C996 1.366 . S
C997 C1001 1.385 . S
C998 H979 0.951 . S
C998 C996 1.388 . S
C998 C999 1.366 . S
C999 C998 1.366 . S
C999 C1000 1.414 . S
C999 C1002 1.499 . S
C1000 H980 0.950 . S
C1000 C999 1.414 . S
C1000 C1001 1.374 . S
C1001 H981 0.950 . S
C1001 C997 1.385 . S
C1001 C1000 1.374 . S
C1002 C999 1.499 . S
C1002 C1003 1.373 . S
C1002 C1004 1.389 . S
C1003 H982 0.950 . S
C1003 C1002 1.373 . S
C1003 C1019 1.377 . S
C1004 C1002 1.389 . S
C1004 C1005 1.524 . S
C1004 C1018 1.377 . S
C1005 C1004 1.524 . S
C1005 C1006 1.397 . S
C1005 C1010 1.363 . S
C1006 H983 0.950 . S
C1006 C1005 1.397 . S
C1006 C1007 1.334 . S
C1007 H984 0.950 . S
C1007 C1006 1.334 . S
C1007 C1008 1.287 . S
C1008 C1007 1.287 . S
C1008 C1009 1.524 . S
C1008 H1027 0.913 . S
C1009 H985 0.950 . S
C1009 C1008 1.524 . S
C1009 C1010 1.415 . S
C1010 H986 0.950 . S
C1010 C1005 1.363 . S
C1010 C1009 1.415 . S
C1011 H987 0.951 . S
C1011 C1012 1.366 . S
C1011 C1013 1.388 . S
C1012 C1011 1.366 . S
C1012 C1016 1.385 . S
C1013 H988 0.951 . S
C1013 C1011 1.388 . S
C1013 C1014 1.366 . S
C1014 C1013 1.366 . S
C1014 C1015 1.414 . S
C1014 C1017 1.499 . S
C1015 H989 0.950 . S
C1015 C1014 1.414 . S
C1015 C1016 1.374 . S
C1016 H990 0.950 . S
C1016 C1012 1.385 . S
C1016 C1015 1.374 . S
C1017 C1014 1.499 . S
C1017 C1018 1.373 . S
C1017 C1019 1.389 . S
C1018 H991 0.950 . S
C1018 C1004 1.377 . S
C1018 C1017 1.373 . S
C1019 C1003 1.377 . S
C1019 C1017 1.389 . S
C1019 C1020 1.524 . S
C1020 C1019 1.524 . S
C1020 C1021 1.397 . S
C1020 C1025 1.363 . S
C1021 H992 0.950 . S
C1021 C1020 1.397 . S
C1021 C1022 1.334 . S
C1022 H993 0.950 . S
C1022 C1021 1.334 . S
C1022 C1023 1.287 1_556 S
C1023 C1022 1.287 1_554 S
C1023 C1024 1.524 . S
C1023 H1026 0.999 . S
C1024 H994 0.950 . S
C1024 C1023 1.524 . S
C1024 C1025 1.415 1_554 S
C1025 H995 0.950 . S
C1025 C1020 1.363 . S
C1025 C1024 1.415 1_556 S
H1026 C1023 0.999 . S
H1027 C1008 0.913 . S
H1028 C1046 0.951 . S
H1029 C1048 0.951 . S
H1030 C1050 0.950 . S
H1031 C1051 0.950 . S
H1032 C1053 0.950 . S
H1033 C1056 0.950 . S
H1034 C1057 0.950 . S
H1035 C1059 0.950 . S
H1036 C1060 0.950 . S
H1037 C1061 0.951 . S
H1038 C1063 0.951 . S
H1039 C1065 0.950 . S
H1040 C1066 0.950 . S
H1041 C1068 0.950 . S
H1042 C1071 0.950 . S
H1043 C1072 0.950 . S
H1044 C1074 0.950 . S
H1045 C1075 0.950 . S
C1046 H1028 0.951 . S
C1046 C1047 1.366 . S
C1046 C1048 1.388 . S
C1047 C1046 1.366 . S
C1047 C1051 1.385 . S
C1048 H1029 0.951 . S
C1048 C1046 1.388 . S
C1048 C1049 1.366 . S
C1049 C1048 1.366 . S
C1049 C1050 1.414 . S
C1049 C1052 1.499 . S
C1050 H1030 0.950 . S
C1050 C1049 1.414 . S
C1050 C1051 1.374 . S
C1051 H1031 0.950 . S
C1051 C1047 1.385 . S
C1051 C1050 1.374 . S
C1052 C1049 1.499 . S
C1052 C1053 1.373 . S
C1052 C1054 1.389 . S
C1053 H1032 0.950 . S
C1053 C1052 1.373 . S
C1053 C1069 1.377 . S
C1054 C1052 1.389 . S
C1054 C1055 1.524 . S
C1054 C1068 1.377 . S
C1055 C1054 1.524 . S
C1055 C1056 1.397 . S
C1055 C1060 1.363 . S
C1056 H1033 0.950 . S
C1056 C1055 1.397 . S
C1056 C1057 1.334 . S
C1057 H1034 0.950 . S
C1057 C1056 1.334 . S
C1057 C1058 1.287 . S
C1058 C1057 1.287 . S
C1058 C1059 1.524 . S
C1058 H1077 0.913 . S
C1059 H1035 0.950 . S
C1059 C1058 1.524 . S
C1059 C1060 1.415 . S
C1060 H1036 0.950 . S
C1060 C1055 1.363 . S
C1060 C1059 1.415 . S
C1061 H1037 0.951 . S
C1061 C1062 1.366 . S
C1061 C1063 1.388 . S
C1062 C1061 1.366 . S
C1062 C1066 1.385 . S
C1063 H1038 0.951 . S
C1063 C1061 1.388 . S
C1063 C1064 1.366 . S
C1064 C1063 1.366 . S
C1064 C1065 1.414 . S
C1064 C1067 1.499 . S
C1065 H1039 0.950 . S
C1065 C1064 1.414 . S
C1065 C1066 1.374 . S
C1066 H1040 0.950 . S
C1066 C1062 1.385 . S
C1066 C1065 1.374 . S
C1067 C1064 1.499 . S
C1067 C1068 1.373 . S
C1067 C1069 1.389 . S
C1068 H1041 0.950 . S
C1068 C1054 1.377 . S
C1068 C1067 1.373 . S
C1069 C1053 1.377 . S
C1069 C1067 1.389 . S
C1069 C1070 1.524 . S
C1070 C1069 1.524 . S
C1070 C1071 1.397 . S
C1070 C1075 1.363 . S
C1071 H1042 0.950 . S
C1071 C1070 1.397 . S
C1071 C1072 1.334 1_554 S
C1072 H1043 0.950 . S
C1072 C1071 1.334 1_556 S
C1072 C1073 1.287 . S
C1073 C1072 1.287 . S
C1073 C1074 1.524 1_556 S
C1073 H1076 0.999 . S
C1074 H1044 0.950 . S
C1074 C1073 1.524 1_554 S
C1074 C1075 1.415 . S
C1075 H1045 0.950 . S
C1075 C1070 1.363 . S
C1075 C1074 1.415 . S
H1076 C1073 0.999 . S
H1077 C1058 0.913 . S
H1078 C1096 0.951 . S
H1079 C1098 0.951 . S
H1080 C1100 0.950 . S
H1081 C1101 0.950 . S
H1082 C1103 0.950 . S
H1083 C1106 0.950 . S
H1084 C1107 0.950 . S
H1085 C1109 0.950 . S
H1086 C1110 0.950 . S
H1087 C1111 0.951 . S
H1088 C1113 0.951 . S
H1089 C1115 0.950 . S
H1090 C1116 0.950 . S
H1091 C1118 0.950 . S
H1092 C1121 0.950 . S
H1093 C1122 0.950 . S
H1094 C1124 0.950 . S
H1095 C1125 0.950 . S
C1096 H1078 0.951 . S
C1096 C1097 1.366 . S
C1096 C1098 1.388 . S
C1097 C1096 1.366 . S
C1097 C1101 1.385 . S
C1098 H1079 0.951 . S
C1098 C1096 1.388 . S
C1098 C1099 1.366 . S
C1099 C1098 1.366 . S
C1099 C1100 1.414 . S
C1099 C1102 1.499 . S
C1100 H1080 0.950 . S
C1100 C1099 1.414 . S
C1100 C1101 1.374 . S
C1101 H1081 0.950 . S
C1101 C1097 1.385 . S
C1101 C1100 1.374 . S
C1102 C1099 1.499 . S
C1102 C1103 1.373 . S
C1102 C1104 1.389 . S
C1103 H1082 0.950 . S
C1103 C1102 1.373 . S
C1103 C1119 1.377 . S
C1104 C1102 1.389 . S
C1104 C1105 1.524 . S
C1104 C1118 1.377 . S
C1105 C1104 1.524 . S
C1105 C1106 1.397 . S
C1105 C1110 1.363 . S
C1106 H1083 0.950 . S
C1106 C1105 1.397 . S
C1106 C1107 1.334 . S
C1107 H1084 0.950 . S
C1107 C1106 1.334 . S
C1107 C1108 1.287 . S
C1108 C1107 1.287 . S
C1108 C1109 1.524 . S
C1108 H1127 0.913 . S
C1109 H1085 0.950 . S
C1109 C1108 1.524 . S
C1109 C1110 1.415 . S
C1110 H1086 0.950 . S
C1110 C1105 1.363 . S
C1110 C1109 1.415 . S
C1111 H1087 0.951 . S
C1111 C1112 1.366 . S
C1111 C1113 1.388 . S
C1112 C1111 1.366 . S
C1112 C1116 1.385 . S
C1113 H1088 0.951 . S
C1113 C1111 1.388 . S
C1113 C1114 1.366 . S
C1114 C1113 1.366 . S
C1114 C1115 1.414 . S
C1114 C1117 1.499 . S
C1115 H1089 0.950 . S
C1115 C1114 1.414 . S
C1115 C1116 1.374 . S
C1116 H1090 0.950 . S
C1116 C1112 1.385 . S
C1116 C1115 1.374 . S
C1117 C1114 1.499 . S
C1117 C1118 1.373 . S
C1117 C1119 1.389 . S
C1118 H1091 0.950 . S
C1118 C1104 1.377 . S
C1118 C1117 1.373 . S
C1119 C1103 1.377 . S
C1119 C1117 1.389 . S
C1119 C1120 1.524 . S
C1120 C1119 1.524 . S
C1120 C1121 1.397 . S
C1120 C1125 1.363 . S
C1121 H1092 0.950 . S
C1121 C1120 1.397 . S
C1121 C1122 1.334 1_556 S
C1122 H1093 0.950 . S
C1122 C1121 1.334 1_554 S
C1122 C1123 1.287 . S
C1123 C1122 1.287 . S
C1123 C1124 1.524 . S
C1123 H1126 0.999 . S
C1124 H1094 0.950 . S
C1124 C1123 1.524 . S
C1124 C1125 1.415 1_554 S
C1125 H1095 0.950 . S
C1125 C1120 1.363 . S
C1125 C1124 1.415 1_556 S
H1126 C1123 0.999 . S
H1127 C1108 0.913 . S
H1128 C1146 0.951 . S
H1129 C1148 0.951 . S
H1130 C1150 0.950 . S
H1131 C1151 0.950 . S
H1132 C1153 0.950 . S
H1133 C1156 0.950 . S
H1134 C1157 0.950 . S
H1135 C1159 0.950 . S
H1136 C1160 0.950 . S
H1137 C1161 0.951 . S
H1138 C1163 0.951 . S
H1139 C1165 0.950 . S
H1140 C1166 0.950 . S
H1141 C1168 0.950 . S
H1142 C1171 0.950 . S
H1143 C1172 0.950 . S
H1144 C1174 0.950 . S
H1145 C1175 0.950 . S
C1146 H1128 0.951 . S
C1146 C1147 1.366 . S
C1146 C1148 1.388 . S
C1147 C1146 1.366 . S
C1147 C1151 1.385 . S
C1148 H1129 0.951 . S
C1148 C1146 1.388 . S
C1148 C1149 1.366 . S
C1149 C1148 1.366 . S
C1149 C1150 1.414 . S
C1149 C1152 1.499 . S
C1150 H1130 0.950 . S
C1150 C1149 1.414 . S
C1150 C1151 1.374 . S
C1151 H1131 0.950 . S
C1151 C1147 1.385 . S
C1151 C1150 1.374 . S
C1152 C1149 1.499 . S
C1152 C1153 1.373 . S
C1152 C1154 1.389 . S
C1153 H1132 0.950 . S
C1153 C1152 1.373 . S
C1153 C1169 1.377 . S
C1154 C1152 1.389 . S
C1154 C1155 1.524 . S
C1154 C1168 1.377 . S
C1155 C1154 1.524 . S
C1155 C1156 1.397 . S
C1155 C1160 1.363 . S
C1156 H1133 0.950 . S
C1156 C1155 1.397 . S
C1156 C1157 1.334 . S
C1157 H1134 0.950 . S
C1157 C1156 1.334 . S
C1157 C1158 1.287 . S
C1158 C1157 1.287 . S
C1158 C1159 1.524 . S
C1158 H1177 0.913 . S
C1159 H1135 0.950 . S
C1159 C1158 1.524 . S
C1159 C1160 1.415 . S
C1160 H1136 0.950 . S
C1160 C1155 1.363 . S
C1160 C1159 1.415 . S
C1161 H1137 0.951 . S
C1161 C1162 1.366 . S
C1161 C1163 1.388 . S
C1162 C1161 1.366 . S
C1162 C1166 1.385 . S
C1163 H1138 0.951 . S
C1163 C1161 1.388 . S
C1163 C1164 1.366 . S
C1164 C1163 1.366 . S
C1164 C1165 1.414 . S
C1164 C1167 1.499 . S
C1165 H1139 0.950 . S
C1165 C1164 1.414 . S
C1165 C1166 1.374 . S
C1166 H1140 0.950 . S
C1166 C1162 1.385 . S
C1166 C1165 1.374 . S
C1167 C1164 1.499 . S
C1167 C1168 1.373 . S
C1167 C1169 1.389 . S
C1168 H1141 0.950 . S
C1168 C1154 1.377 . S
C1168 C1167 1.373 . S
C1169 C1153 1.377 . S
C1169 C1167 1.389 . S
C1169 C1170 1.524 . S
C1170 C1169 1.524 . S
C1170 C1171 1.397 . S
C1170 C1175 1.363 . S
C1171 H1142 0.950 . S
C1171 C1170 1.397 . S
C1171 C1172 1.334 . S
C1172 H1143 0.950 . S
C1172 C1171 1.334 . S
C1172 C1173 1.287 . S
C1173 C1172 1.287 . S
C1173 C1174 1.524 . S
C1173 H1176 0.999 . S
C1174 H1144 0.950 . S
C1174 C1173 1.524 . S
C1174 C1175 1.415 . S
C1175 H1145 0.950 . S
C1175 C1170 1.363 . S
C1175 C1174 1.415 . S
H1176 C1173 0.999 . S
H1177 C1158 0.913 . S
H1178 C1196 0.951 . S
H1179 C1198 0.951 . S
H1180 C1200 0.950 . S
H1181 C1201 0.950 . S
H1182 C1203 0.950 . S
H1183 C1206 0.950 . S
H1184 C1207 0.950 . S
H1185 C1209 0.950 . S
H1186 C1210 0.950 . S
H1187 C1211 0.951 . S
H1188 C1213 0.951 . S
H1189 C1215 0.950 . S
H1190 C1216 0.950 . S
H1191 C1218 0.950 . S
H1192 C1221 0.950 . S
H1193 C1222 0.950 . S
H1194 C1224 0.950 . S
H1195 C1225 0.950 . S
C1196 H1178 0.951 . S
C1196 C1197 1.366 . S
C1196 C1198 1.388 . S
C1197 C1196 1.366 . S
C1197 C1201 1.385 . S
C1198 H1179 0.951 . S
C1198 C1196 1.388 . S
C1198 C1199 1.366 . S
C1199 C1198 1.366 . S
C1199 C1200 1.414 . S
C1199 C1202 1.499 . S
C1200 H1180 0.950 . S
C1200 C1199 1.414 . S
C1200 C1201 1.374 . S
C1201 H1181 0.950 . S
C1201 C1197 1.385 . S
C1201 C1200 1.374 . S
C1202 C1199 1.499 . S
C1202 C1203 1.373 . S
C1202 C1204 1.389 . S
C1203 H1182 0.950 . S
C1203 C1202 1.373 . S
C1203 C1219 1.377 . S
C1204 C1202 1.389 . S
C1204 C1205 1.524 . S
C1204 C1218 1.377 . S
C1205 C1204 1.524 . S
C1205 C1206 1.397 . S
C1205 C1210 1.363 . S
C1206 H1183 0.950 . S
C1206 C1205 1.397 . S
C1206 C1207 1.334 . S
C1207 H1184 0.950 . S
C1207 C1206 1.334 . S
C1207 C1208 1.287 . S
C1208 C1207 1.287 . S
C1208 C1209 1.524 . S
C1208 H1227 0.913 . S
C1209 H1185 0.950 . S
C1209 C1208 1.524 . S
C1209 C1210 1.415 . S
C1210 H1186 0.950 . S
C1210 C1205 1.363 . S
C1210 C1209 1.415 . S
C1211 H1187 0.951 . S
C1211 C1212 1.366 . S
C1211 C1213 1.388 . S
C1212 C1211 1.366 . S
C1212 C1216 1.385 . S
C1213 H1188 0.951 . S
C1213 C1211 1.388 . S
C1213 C1214 1.366 . S
C1214 C1213 1.366 . S
C1214 C1215 1.414 . S
C1214 C1217 1.499 . S
C1215 H1189 0.950 . S
C1215 C1214 1.414 . S
C1215 C1216 1.374 . S
C1216 H1190 0.950 . S
C1216 C1212 1.385 . S
C1216 C1215 1.374 . S
C1217 C1214 1.499 . S
C1217 C1218 1.373 . S
C1217 C1219 1.389 . S
C1218 H1191 0.950 . S
C1218 C1204 1.377 . S
C1218 C1217 1.373 . S
C1219 C1203 1.377 . S
C1219 C1217 1.389 . S
C1219 C1220 1.524 . S
C1220 C1219 1.524 . S
C1220 C1221 1.397 . S
C1220 C1225 1.363 . S
C1221 H1192 0.950 . S
C1221 C1220 1.397 . S
C1221 C1222 1.334 . S
C1222 H1193 0.950 . S
C1222 C1221 1.334 . S
C1222 C1223 1.287 . S
C1223 C1222 1.287 . S
C1223 C1224 1.524 . S
C1223 H1226 0.999 . S
C1224 H1194 0.950 . S
C1224 C1223 1.524 . S
C1224 C1225 1.415 . S
C1225 H1195 0.950 . S
C1225 C1220 1.363 . S
C1225 C1224 1.415 . S
H1226 C1223 0.999 . S
H1227 C1208 0.913 . S
H1228 C1246 0.951 . S
H1229 C1248 0.951 . S
H1230 C1250 0.950 . S
H1231 C1251 0.950 . S
H1232 C1253 0.950 . S
H1233 C1256 0.950 . S
H1234 C1257 0.950 . S
H1235 C1259 0.950 . S
H1236 C1260 0.950 . S
H1237 C1261 0.951 . S
H1238 C1263 0.951 . S
H1239 C1265 0.950 . S
H1240 C1266 0.950 . S
H1241 C1268 0.950 . S
H1242 C1271 0.950 . S
H1243 C1272 0.950 . S
H1244 C1274 0.950 . S
H1245 C1275 0.950 . S
C1246 H1228 0.951 . S
C1246 C1247 1.366 . S
C1246 C1248 1.388 . S
C1247 C1246 1.366 . S
C1247 C1251 1.385 . S
C1248 H1229 0.951 . S
C1248 C1246 1.388 . S
C1248 C1249 1.366 . S
C1249 C1248 1.366 . S
C1249 C1250 1.414 . S
C1249 C1252 1.499 . S
C1250 H1230 0.950 . S
C1250 C1249 1.414 . S
C1250 C1251 1.374 . S
C1251 H1231 0.950 . S
C1251 C1247 1.385 . S
C1251 C1250 1.374 . S
C1252 C1249 1.499 . S
C1252 C1253 1.373 . S
C1252 C1254 1.389 . S
C1253 H1232 0.950 . S
C1253 C1252 1.373 . S
C1253 C1269 1.377 . S
C1254 C1252 1.389 . S
C1254 C1255 1.524 . S
C1254 C1268 1.377 . S
C1255 C1254 1.524 . S
C1255 C1256 1.397 . S
C1255 C1260 1.363 . S
C1256 H1233 0.950 . S
C1256 C1255 1.397 . S
C1256 C1257 1.334 . S
C1257 H1234 0.950 . S
C1257 C1256 1.334 . S
C1257 C1258 1.287 . S
C1258 C1257 1.287 . S
C1258 C1259 1.524 . S
C1258 H1277 0.913 . S
C1259 H1235 0.950 . S
C1259 C1258 1.524 . S
C1259 C1260 1.415 . S
C1260 H1236 0.950 . S
C1260 C1255 1.363 . S
C1260 C1259 1.415 . S
C1261 H1237 0.951 . S
C1261 C1262 1.366 . S
C1261 C1263 1.388 . S
C1262 C1261 1.366 . S
C1262 C1266 1.385 . S
C1263 H1238 0.951 . S
C1263 C1261 1.388 . S
C1263 C1264 1.366 . S
C1264 C1263 1.366 . S
C1264 C1265 1.414 . S
C1264 C1267 1.499 . S
C1265 H1239 0.950 . S
C1265 C1264 1.414 . S
C1265 C1266 1.374 . S
C1266 H1240 0.950 . S
C1266 C1262 1.385 . S
C1266 C1265 1.374 . S
C1267 C1264 1.499 . S
C1267 C1268 1.373 . S
C1267 C1269 1.389 . S
C1268 H1241 0.950 . S
C1268 C1254 1.377 . S
C1268 C1267 1.373 . S
C1269 C1253 1.377 . S
C1269 C1267 1.389 . S
C1269 C1270 1.524 . S
C1270 C1269 1.524 . S
C1270 C1271 1.397 . S
C1270 C1275 1.363 . S
C1271 H1242 0.950 . S
C1271 C1270 1.397 . S
C1271 C1272 1.334 . S
C1272 H1243 0.950 . S
C1272 C1271 1.334 . S
C1272 C1273 1.287 . S
C1273 C1272 1.287 . S
C1273 C1274 1.524 . S
C1273 H1276 0.999 . S
C1274 H1244 0.950 . S
C1274 C1273 1.524 . S
C1274 C1275 1.415 . S
C1275 H1245 0.950 . S
C1275 C1270 1.363 . S
C1275 C1274 1.415 . S
H1276 C1273 0.999 . S
H1277 C1258 0.913 . S
H1278 C1296 0.951 . S
H1279 C1298 0.951 . S
H1280 C1300 0.950 . S
H1281 C1301 0.950 . S
H1282 C1303 0.950 . S
H1283 C1306 0.950 . S
H1284 C1307 0.950 . S
H1285 C1309 0.950 . S
H1286 C1310 0.950 . S
H1287 C1311 0.951 . S
H1288 C1313 0.951 . S
H1289 C1315 0.950 . S
H1290 C1316 0.950 . S
H1291 C1318 0.950 . S
H1292 C1321 0.950 . S
H1293 C1322 0.950 . S
H1294 C1324 0.950 . S
H1295 C1325 0.950 . S
C1296 H1278 0.951 . S
C1296 C1297 1.366 . S
C1296 C1298 1.388 . S
C1297 C1296 1.366 . S
C1297 C1301 1.385 . S
C1298 H1279 0.951 . S
C1298 C1296 1.388 . S
C1298 C1299 1.366 . S
C1299 C1298 1.366 . S
C1299 C1300 1.414 . S
C1299 C1302 1.499 . S
C1300 H1280 0.950 . S
C1300 C1299 1.414 . S
C1300 C1301 1.374 . S
C1301 H1281 0.950 . S
C1301 C1297 1.385 . S
C1301 C1300 1.374 . S
C1302 C1299 1.499 . S
C1302 C1303 1.373 . S
C1302 C1304 1.389 . S
C1303 H1282 0.950 . S
C1303 C1302 1.373 . S
C1303 C1319 1.377 . S
C1304 C1302 1.389 . S
C1304 C1305 1.524 . S
C1304 C1318 1.377 . S
C1305 C1304 1.524 . S
C1305 C1306 1.397 . S
C1305 C1310 1.363 . S
C1306 H1283 0.950 . S
C1306 C1305 1.397 . S
C1306 C1307 1.334 . S
C1307 H1284 0.950 . S
C1307 C1306 1.334 . S
C1307 C1308 1.287 . S
C1308 C1307 1.287 . S
C1308 C1309 1.524 . S
C1308 H1327 0.913 . S
C1309 H1285 0.950 . S
C1309 C1308 1.524 . S
C1309 C1310 1.415 . S
C1310 H1286 0.950 . S
C1310 C1305 1.363 . S
C1310 C1309 1.415 . S
C1311 H1287 0.951 . S
C1311 C1312 1.366 . S
C1311 C1313 1.388 . S
C1312 C1311 1.366 . S
C1312 C1316 1.385 . S
C1313 H1288 0.951 . S
C1313 C1311 1.388 . S
C1313 C1314 1.366 . S
C1314 C1313 1.366 . S
C1314 C1315 1.414 . S
C1314 C1317 1.499 . S
C1315 H1289 0.950 . S
C1315 C1314 1.414 . S
C1315 C1316 1.374 . S
C1316 H1290 0.950 . S
C1316 C1312 1.385 . S
C1316 C1315 1.374 . S
C1317 C1314 1.499 . S
C1317 C1318 1.373 . S
C1317 C1319 1.389 . S
C1318 H1291 0.950 . S
C1318 C1304 1.377 . S
C1318 C1317 1.373 . S
C1319 C1303 1.377 . S
C1319 C1317 1.389 . S
C1319 C1320 1.524 . S
C1320 C1319 1.524 . S
C1320 C1321 1.397 . S
C1320 C1325 1.363 . S
C1321 H1292 0.950 . S
C1321 C1320 1.397 . S
C1321 C1322 1.334 . S
C1322 H1293 0.950 . S
C1322 C1321 1.334 . S
C1322 C1323 1.287 . S
C1323 C1322 1.287 . S
C1323 C1324 1.524 . S
C1323 H1326 0.999 . S
C1324 H1294 0.950 . S
C1324 C1323 1.524 . S
C1324 C1325 1.415 . S
C1325 H1295 0.950 . S
C1325 C1320 1.363 . S
C1325 C1324 1.415 . S
H1326 C1323 0.999 . S
H1327 C1308 0.913 . S
H1328 C1346 0.951 . S
H1329 C1348 0.951 . S
H1330 C1350 0.950 . S
H1331 C1351 0.950 . S
H1332 C1353 0.950 . S
H1333 C1356 0.950 . S
H1334 C1357 0.950 . S
H1335 C1359 0.950 . S
H1336 C1360 0.950 . S
H1337 C1361 0.951 . S
H1338 C1363 0.951 . S
H1339 C1365 0.950 . S
H1340 C1366 0.950 . S
H1341 C1368 0.950 . S
H1342 C1371 0.950 . S
H1343 C1372 0.950 . S
H1344 C1374 0.950 . S
H1345 C1375 0.950 . S
C1346 H1328 0.951 . S
C1346 C1347 1.366 1_556 S
C1346 C1348 1.388 . S
C1347 C1346 1.366 1_554 S
C1347 C1351 1.385 . S
C1348 H1329 0.951 . S
C1348 C1346 1.388 . S
C1348 C1349 1.366 . S
C1349 C1348 1.366 . S
C1349 C1350 1.414 . S
C1349 C1352 1.499 . S
C1350 H1330 0.950 . S
C1350 C1349 1.414 . S
C1350 C1351 1.374 1_556 S
C1351 H1331 0.950 . S
C1351 C1347 1.385 . S
C1351 C1350 1.374 1_554 S
C1352 C1349 1.499 . S
C1352 C1353 1.373 . S
C1352 C1354 1.389 . S
C1353 H1332 0.950 . S
C1353 C1352 1.373 . S
C1353 C1369 1.377 . S
C1354 C1352 1.389 . S
C1354 C1355 1.524 . S
C1354 C1368 1.377 . S
C1355 C1354 1.524 . S
C1355 C1356 1.397 . S
C1355 C1360 1.363 . S
C1356 H1333 0.950 . S
C1356 C1355 1.397 . S
C1356 C1357 1.334 . S
C1357 H1334 0.950 . S
C1357 C1356 1.334 . S
C1357 C1358 1.287 . S
C1358 C1357 1.287 . S
C1358 C1359 1.524 . S
C1358 H1377 0.913 . S
C1359 H1335 0.950 . S
C1359 C1358 1.524 . S
C1359 C1360 1.415 . S
C1360 H1336 0.950 . S
C1360 C1355 1.363 . S
C1360 C1359 1.415 . S
C1361 H1337 0.951 . S
C1361 C1362 1.366 . S
C1361 C1363 1.388 . S
C1362 C1361 1.366 . S
C1362 C1366 1.385 . S
C1363 H1338 0.951 . S
C1363 C1361 1.388 . S
C1363 C1364 1.366 . S
C1364 C1363 1.366 . S
C1364 C1365 1.414 . S
C1364 C1367 1.499 . S
C1365 H1339 0.950 . S
C1365 C1364 1.414 . S
C1365 C1366 1.374 . S
C1366 H1340 0.950 . S
C1366 C1362 1.385 . S
C1366 C1365 1.374 . S
C1367 C1364 1.499 . S
C1367 C1368 1.373 . S
C1367 C1369 1.389 . S
C1368 H1341 0.950 . S
C1368 C1354 1.377 . S
C1368 C1367 1.373 . S
C1369 C1353 1.377 . S
C1369 C1367 1.389 . S
C1369 C1370 1.524 . S
C1370 C1369 1.524 . S
C1370 C1371 1.397 . S
C1370 C1375 1.363 . S
C1371 H1342 0.950 . S
C1371 C1370 1.397 . S
C1371 C1372 1.334 . S
C1372 H1343 0.950 . S
C1372 C1371 1.334 . S
C1372 C1373 1.287 . S
C1373 C1372 1.287 . S
C1373 C1374 1.524 . S
C1373 H1376 0.999 . S
C1374 H1344 0.950 . S
C1374 C1373 1.524 . S
C1374 C1375 1.415 . S
C1375 H1345 0.950 . S
C1375 C1370 1.363 . S
C1375 C1374 1.415 . S
H1376 C1373 0.999 . S
H1377 C1358 0.913 . S
H1378 C1396 0.951 . S
H1379 C1398 0.951 . S
H1380 C1400 0.950 . S
H1381 C1401 0.950 . S
H1382 C1403 0.950 . S
H1383 C1406 0.950 . S
H1384 C1407 0.950 . S
H1385 C1409 0.950 . S
H1386 C1410 0.950 . S
H1387 C1411 0.951 . S
H1388 C1413 0.951 . S
H1389 C1415 0.950 . S
H1390 C1416 0.950 . S
H1391 C1418 0.950 . S
H1392 C1421 0.950 . S
H1393 C1422 0.950 . S
H1394 C1424 0.950 1_556 S
H1395 C1425 0.950 . S
C1396 H1378 0.951 . S
C1396 C1397 1.366 . S
C1396 C1398 1.388 . S
C1397 C1396 1.366 . S
C1397 C1401 1.385 . S
C1398 H1379 0.951 . S
C1398 C1396 1.388 . S
C1398 C1399 1.366 . S
C1399 C1398 1.366 . S
C1399 C1400 1.414 . S
C1399 C1402 1.499 . S
C1400 H1380 0.950 . S
C1400 C1399 1.414 . S
C1400 C1401 1.374 . S
C1401 H1381 0.950 . S
C1401 C1397 1.385 . S
C1401 C1400 1.374 . S
C1402 C1399 1.499 . S
C1402 C1403 1.373 . S
C1402 C1404 1.389 . S
C1403 H1382 0.950 . S
C1403 C1402 1.373 . S
C1403 C1419 1.377 . S
C1404 C1402 1.389 . S
C1404 C1405 1.524 . S
C1404 C1418 1.377 . S
C1405 C1404 1.524 . S
C1405 C1406 1.397 . S
C1405 C1410 1.363 . S
C1406 H1383 0.950 . S
C1406 C1405 1.397 . S
C1406 C1407 1.334 . S
C1407 H1384 0.950 . S
C1407 C1406 1.334 . S
C1407 C1408 1.287 . S
C1408 C1407 1.287 . S
C1408 C1409 1.524 . S
C1408 H1427 0.913 . S
C1409 H1385 0.950 . S
C1409 C1408 1.524 . S
C1409 C1410 1.415 . S
C1410 H1386 0.950 . S
C1410 C1405 1.363 . S
C1410 C1409 1.415 . S
C1411 H1387 0.951 . S
C1411 C1412 1.366 . S
C1411 C1413 1.388 1_556 S
C1412 C1411 1.366 . S
C1412 C1416 1.385 1_556 S
C1413 H1388 0.951 . S
C1413 C1411 1.388 1_554 S
C1413 C1414 1.366 . S
C1414 C1413 1.366 . S
C1414 C1415 1.414 . S
C1414 C1417 1.499 . S
C1415 H1389 0.950 . S
C1415 C1414 1.414 . S
C1415 C1416 1.374 . S
C1416 H1390 0.950 . S
C1416 C1412 1.385 1_554 S
C1416 C1415 1.374 . S
C1417 C1414 1.499 . S
C1417 C1418 1.373 . S
C1417 C1419 1.389 . S
C1418 H1391 0.950 . S
C1418 C1404 1.377 . S
C1418 C1417 1.373 . S
C1419 C1403 1.377 . S
C1419 C1417 1.389 . S
C1419 C1420 1.524 . S
C1420 C1419 1.524 . S
C1420 C1421 1.397 . S
C1420 C1425 1.363 . S
C1421 H1392 0.950 . S
C1421 C1420 1.397 . S
C1421 C1422 1.334 1_554 S
C1422 H1393 0.950 . S
C1422 C1421 1.334 1_556 S
C1422 C1423 1.287 . S
C1423 C1422 1.287 . S
C1423 C1424 1.524 1_556 S
C1423 H1426 0.999 . S
C1424 H1394 0.950 1_554 S
C1424 C1423 1.524 1_554 S
C1424 C1425 1.414 . S
C1425 H1395 0.950 . S
C1425 C1420 1.363 . S
C1425 C1424 1.414 . S
H1426 C1423 0.999 . S
H1427 C1408 0.913 . S
H1428 C1446 0.951 1_554 S
H1429 C1448 0.951 . S
H1430 C1450 0.950 . S
H1431 C1451 0.950 . S
H1432 C1453 0.950 . S
H1433 C1456 0.950 . S
H1434 C1457 0.950 . S
H1435 C1459 0.950 . S
H1436 C1460 0.950 . S
H1437 C1461 0.951 . S
H1438 C1463 0.951 . S
H1439 C1465 0.950 . S
H1440 C1466 0.950 . S
H1441 C1468 0.950 . S
H1442 C1471 0.950 . S
H1443 C1472 0.950 . S
H1444 C1474 0.950 . S
H1445 C1475 0.950 . S
C1446 H1428 0.951 1_556 S
C1446 C1447 1.366 1_556 S
C1446 C1448 1.388 . S
C1447 C1446 1.366 1_554 S
C1447 C1451 1.385 1_554 S
C1448 H1429 0.951 . S
C1448 C1446 1.388 . S
C1448 C1449 1.366 . S
C1449 C1448 1.366 . S
C1449 C1450 1.414 . S
C1449 C1452 1.499 . S
C1450 H1430 0.950 . S
C1450 C1449 1.414 . S
C1450 C1451 1.374 . S
C1451 H1431 0.950 . S
C1451 C1447 1.385 1_556 S
C1451 C1450 1.374 . S
C1452 C1449 1.499 . S
C1452 C1453 1.373 . S
C1452 C1454 1.389 . S
C1453 H1432 0.950 . S
C1453 C1452 1.373 . S
C1453 C1469 1.377 . S
C1454 C1452 1.389 . S
C1454 C1455 1.524 . S
C1454 C1468 1.377 . S
C1455 C1454 1.524 . S
C1455 C1456 1.397 . S
C1455 C1460 1.363 . S
C1456 H1433 0.950 . S
C1456 C1455 1.397 . S
C1456 C1457 1.334 1_556 S
C1457 H1434 0.950 . S
C1457 C1456 1.334 1_554 S
C1457 C1458 1.287 . S
C1458 C1457 1.287 . S
C1458 C1459 1.524 1_554 S
C1458 H1477 0.913 . S
C1459 H1435 0.950 . S
C1459 C1458 1.524 1_556 S
C1459 C1460 1.415 . S
C1460 H1436 0.950 . S
C1460 C1455 1.363 . S
C1460 C1459 1.415 . S
C1461 H1437 0.951 . S
C1461 C1462 1.366 . S
C1461 C1463 1.388 . S
C1462 C1461 1.366 . S
C1462 C1466 1.385 . S
C1463 H1438 0.951 . S
C1463 C1461 1.388 . S
C1463 C1464 1.366 . S
C1464 C1463 1.366 . S
C1464 C1465 1.414 . S
C1464 C1467 1.499 . S
C1465 H1439 0.950 . S
C1465 C1464 1.414 . S
C1465 C1466 1.374 . S
C1466 H1440 0.950 . S
C1466 C1462 1.385 . S
C1466 C1465 1.374 . S
C1467 C1464 1.499 . S
C1467 C1468 1.373 . S
C1467 C1469 1.389 . S
C1468 H1441 0.950 . S
C1468 C1454 1.377 . S
C1468 C1467 1.373 . S
C1469 C1453 1.377 . S
C1469 C1467 1.389 . S
C1469 C1470 1.524 . S
C1470 C1469 1.524 . S
C1470 C1471 1.397 . S
C1470 C1475 1.363 . S
C1471 H1442 0.950 . S
C1471 C1470 1.397 . S
C1471 C1472 1.334 . S
C1472 H1443 0.950 . S
C1472 C1471 1.334 . S
C1472 C1473 1.287 . S
C1473 C1472 1.287 . S
C1473 C1474 1.524 . S
C1473 H1476 0.999 . S
C1474 H1444 0.950 . S
C1474 C1473 1.524 . S
C1474 C1475 1.415 . S
C1475 H1445 0.950 . S
C1475 C1470 1.363 . S
C1475 C1474 1.415 . S
H1476 C1473 0.999 . S
H1477 C1458 0.913 . S
H1478 C1496 0.951 . S
H1479 C1498 0.951 . S
H1480 C1500 0.950 . S
H1481 C1501 0.950 . S
H1482 C1503 0.950 . S
H1483 C1506 0.950 . S
H1484 C1507 0.950 . S
H1485 C1509 0.950 . S
H1486 C1510 0.950 . S
H1487 C1511 0.951 . S
H1488 C1513 0.951 . S
H1489 C1515 0.950 . S
H1490 C1516 0.950 . S
H1491 C1518 0.950 . S
H1492 C1521 0.950 . S
H1493 C1522 0.956 . S
H1494 C1524 0.943 1_556 S
H1495 C1525 0.950 . S
C1496 H1478 0.951 . S
C1496 C1497 1.366 . S
C1496 C1498 1.388 . S
C1497 C1496 1.366 . S
C1497 C1501 1.385 . S
C1498 H1479 0.951 . S
C1498 C1496 1.388 . S
C1498 C1499 1.366 . S
C1499 C1498 1.366 . S
C1499 C1500 1.414 . S
C1499 C1502 1.499 . S
C1500 H1480 0.950 . S
C1500 C1499 1.414 . S
C1500 C1501 1.374 . S
C1501 H1481 0.950 . S
C1501 C1497 1.385 . S
C1501 C1500 1.374 . S
C1502 C1499 1.499 . S
C1502 C1503 1.373 . S
C1502 C1504 1.389 . S
C1503 H1482 0.950 . S
C1503 C1502 1.373 . S
C1503 C1519 1.377 . S
C1504 C1502 1.389 . S
C1504 C1505 1.524 . S
C1504 C1518 1.377 . S
C1505 C1504 1.524 . S
C1505 C1506 1.397 . S
C1505 C1510 1.363 . S
C1506 H1483 0.950 . S
C1506 C1505 1.397 . S
C1506 C1507 1.334 . S
C1507 H1484 0.950 . S
C1507 C1506 1.334 . S
C1507 C1508 1.287 . S
C1508 C1507 1.287 . S
C1508 C1509 1.524 . S
C1508 H1527 0.913 . S
C1509 H1485 0.950 . S
C1509 C1508 1.524 . S
C1509 C1510 1.415 . S
C1510 H1486 0.950 . S
C1510 C1505 1.363 . S
C1510 C1509 1.415 . S
C1511 H1487 0.951 . S
C1511 C1512 1.366 . S
C1511 C1513 1.388 1_556 S
C1512 C1511 1.366 . S
C1512 C1516 1.385 1_556 S
C1513 H1488 0.951 . S
C1513 C1511 1.388 1_554 S
C1513 C1514 1.366 . S
C1514 C1513 1.366 . S
C1514 C1515 1.414 . S
C1514 C1517 1.499 . S
C1515 H1489 0.950 . S
C1515 C1514 1.414 . S
C1515 C1516 1.374 . S
C1516 H1490 0.950 . S
C1516 C1512 1.385 1_554 S
C1516 C1515 1.374 . S
C1517 C1514 1.499 . S
C1517 C1518 1.373 . S
C1517 C1519 1.389 . S
C1518 H1491 0.950 . S
C1518 C1504 1.377 . S
C1518 C1517 1.373 . S
C1519 C1503 1.377 . S
C1519 C1517 1.389 . S
C1519 C1520 1.524 . S
C1520 C1519 1.524 . S
C1520 C1521 1.397 . S
C1520 C1525 1.363 . S
C1521 H1492 0.950 . S
C1521 C1520 1.397 . S
C1521 C1522 1.324 1_554 S
C1522 H1493 0.956 . S
C1522 C1521 1.324 1_556 S
C1522 C1523 1.291 . S
C1523 C1522 1.291 . S
C1523 C1524 1.519 1_556 S
C1523 H1526 0.999 . S
C1524 H1494 0.943 1_554 S
C1524 C1523 1.519 1_554 S
C1524 C1525 1.428 . S
C1525 H1495 0.950 . S
C1525 C1520 1.363 . S
C1525 C1524 1.428 . S
H1526 C1523 0.999 . S
H1527 C1508 0.913 . S
H1528 C1546 0.951 . S
H1529 C1548 0.951 . S
H1530 C1550 0.950 . S
H1531 C1551 0.950 . S
H1532 C1553 0.950 . S
H1533 C1556 0.950 . S
H1534 C1557 0.950 . S
H1535 C1559 0.950 . S
H1536 C1560 0.950 . S
H1537 C1561 0.951 . S
H1538 C1563 0.951 . S
H1539 C1565 0.950 . S
H1540 C1566 0.950 . S
H1541 C1568 0.950 . S
H1542 C1571 0.950 . S
H1543 C1572 0.950 . S
H1544 C1574 0.950 . S
H1545 C1575 0.950 . S
C1546 H1528 0.951 . S
C1546 C1547 1.366 . S
C1546 C1548 1.388 . S
C1547 C1546 1.366 . S
C1547 C1551 1.385 . S
C1548 H1529 0.951 . S
C1548 C1546 1.388 . S
C1548 C1549 1.366 . S
C1549 C1548 1.366 . S
C1549 C1550 1.414 . S
C1549 C1552 1.499 . S
C1550 H1530 0.950 . S
C1550 C1549 1.414 . S
C1550 C1551 1.374 . S
C1551 H1531 0.950 . S
C1551 C1547 1.385 . S
C1551 C1550 1.374 . S
C1552 C1549 1.499 . S
C1552 C1553 1.373 . S
C1552 C1554 1.389 . S
C1553 H1532 0.950 . S
C1553 C1552 1.373 . S
C1553 C1569 1.377 . S
C1554 C1552 1.389 . S
C1554 C1555 1.524 . S
C1554 C1568 1.377 . S
C1555 C1554 1.524 . S
C1555 C1556 1.397 . S
C1555 C1560 1.363 . S
C1556 H1533 0.950 . S
C1556 C1555 1.397 . S
C1556 C1557 1.334 . S
C1557 H1534 0.950 . S
C1557 C1556 1.334 . S
C1557 C1558 1.287 . S
C1558 C1557 1.287 . S
C1558 C1559 1.524 . S
C1558 H1577 0.913 . S
C1559 H1535 0.950 . S
C1559 C1558 1.524 . S
C1559 C1560 1.415 . S
C1560 H1536 0.950 . S
C1560 C1555 1.363 . S
C1560 C1559 1.415 . S
C1561 H1537 0.951 . S
C1561 C1562 1.366 . S
C1561 C1563 1.388 . S
C1562 C1561 1.366 . S
C1562 C1566 1.385 . S
C1563 H1538 0.951 . S
C1563 C1561 1.388 . S
C1563 C1564 1.366 . S
C1564 C1563 1.366 . S
C1564 C1565 1.414 . S
C1564 C1567 1.499 . S
C1565 H1539 0.950 . S
C1565 C1564 1.414 . S
C1565 C1566 1.374 . S
C1566 H1540 0.950 . S
C1566 C1562 1.385 . S
C1566 C1565 1.374 . S
C1567 C1564 1.499 . S
C1567 C1568 1.373 . S
C1567 C1569 1.389 . S
C1568 H1541 0.950 . S
C1568 C1554 1.377 . S
C1568 C1567 1.373 . S
C1569 C1553 1.377 . S
C1569 C1567 1.389 . S
C1569 C1570 1.524 . S
C1570 C1569 1.524 . S
C1570 C1571 1.397 . S
C1570 C1575 1.363 . S
C1571 H1542 0.950 . S
C1571 C1570 1.397 . S
C1571 C1572 1.334 . S
C1572 H1543 0.950 . S
C1572 C1571 1.334 . S
C1572 C1573 1.287 . S
C1573 C1572 1.287 . S
C1573 C1574 1.524 . S
C1573 H1576 0.999 . S
C1574 H1544 0.950 . S
C1574 C1573 1.524 . S
C1574 C1575 1.415 . S
C1575 H1545 0.950 . S
C1575 C1570 1.363 . S
C1575 C1574 1.415 . S
H1576 C1573 0.999 . S
H1577 C1558 0.913 . S
H1578 C1596 0.951 . S
H1579 C1598 0.951 . S
H1580 C1600 0.950 . S
H1581 C1601 0.950 . S
H1582 C1603 0.950 . S
H1583 C1606 0.950 . S
H1584 C1607 0.950 . S
H1585 C1609 0.950 . S
H1586 C1610 0.950 . S
H1587 C1611 0.951 . S
H1588 C1613 0.951 . S
H1589 C1615 0.950 . S
H1590 C1616 0.950 . S
H1591 C1618 0.950 . S
H1592 C1621 0.950 . S
H1593 C1622 0.950 . S
H1594 C1624 0.950 . S
H1595 C1625 0.950 . S
C1596 H1578 0.951 . S
C1596 C1597 1.366 . S
C1596 C1598 1.388 . S
C1597 C1596 1.366 . S
C1597 C1601 1.385 . S
C1598 H1579 0.951 . S
C1598 C1596 1.388 . S
C1598 C1599 1.366 . S
C1599 C1598 1.366 . S
C1599 C1600 1.414 . S
C1599 C1602 1.499 . S
C1600 H1580 0.950 . S
C1600 C1599 1.414 . S
C1600 C1601 1.374 . S
C1601 H1581 0.950 . S
C1601 C1597 1.385 . S
C1601 C1600 1.374 . S
C1602 C1599 1.499 . S
C1602 C1603 1.373 . S
C1602 C1604 1.389 . S
C1603 H1582 0.950 . S
C1603 C1602 1.373 . S
C1603 C1619 1.377 . S
C1604 C1602 1.389 . S
C1604 C1605 1.524 . S
C1604 C1618 1.377 . S
C1605 C1604 1.524 . S
C1605 C1606 1.397 . S
C1605 C1610 1.363 . S
C1606 H1583 0.950 . S
C1606 C1605 1.397 . S
C1606 C1607 1.334 . S
C1607 H1584 0.950 . S
C1607 C1606 1.334 . S
C1607 C1608 1.287 . S
C1608 C1607 1.287 . S
C1608 C1609 1.524 . S
C1608 H1627 0.913 . S
C1609 H1585 0.950 . S
C1609 C1608 1.524 . S
C1609 C1610 1.415 . S
C1610 H1586 0.950 . S
C1610 C1605 1.363 . S
C1610 C1609 1.415 . S
C1611 H1587 0.951 . S
C1611 C1612 1.366 . S
C1611 C1613 1.388 . S
C1612 C1611 1.366 . S
C1612 C1616 1.385 . S
C1613 H1588 0.951 . S
C1613 C1611 1.388 . S
C1613 C1614 1.366 . S
C1614 C1613 1.366 . S
C1614 C1615 1.414 . S
C1614 C1617 1.499 . S
C1615 H1589 0.950 . S
C1615 C1614 1.414 . S
C1615 C1616 1.374 . S
C1616 H1590 0.950 . S
C1616 C1612 1.385 . S
C1616 C1615 1.374 . S
C1617 C1614 1.499 . S
C1617 C1618 1.373 . S
C1617 C1619 1.389 . S
C1618 H1591 0.950 . S
C1618 C1604 1.377 . S
C1618 C1617 1.373 . S
C1619 C1603 1.377 . S
C1619 C1617 1.389 . S
C1619 C1620 1.524 . S
C1620 C1619 1.524 . S
C1620 C1621 1.397 . S
C1620 C1625 1.363 . S
C1621 H1592 0.950 . S
C1621 C1620 1.397 . S
C1621 C1622 1.334 . S
C1622 H1593 0.950 . S
C1622 C1621 1.334 . S
C1622 C1623 1.287 . S
C1623 C1622 1.287 . S
C1623 C1624 1.524 . S
C1623 H1626 0.999 . S
C1624 H1594 0.950 . S
C1624 C1623 1.524 . S
C1624 C1625 1.415 . S
C1625 H1595 0.950 . S
C1625 C1620 1.363 . S
C1625 C1624 1.415 . S
H1626 C1623 0.999 . S
H1627 C1608 0.913 . S
H1628 C1646 0.951 . S
H1629 C1648 0.951 . S
H1630 C1650 0.950 . S
H1631 C1651 0.950 . S
H1632 C1653 0.950 . S
H1633 C1656 0.950 . S
H1634 C1657 0.950 . S
H1635 C1659 0.950 . S
H1636 C1660 0.950 . S
H1637 C1661 0.951 . S
H1638 C1663 0.951 . S
H1639 C1665 0.950 . S
H1640 C1666 0.950 . S
H1641 C1668 0.950 . S
H1642 C1671 0.950 . S
H1643 C1672 0.950 . S
H1644 C1674 0.950 . S
H1645 C1675 0.950 . S
C1646 H1628 0.951 . S
C1646 C1647 1.366 . S
C1646 C1648 1.388 . S
C1647 C1646 1.366 . S
C1647 C1651 1.385 . S
C1648 H1629 0.951 . S
C1648 C1646 1.388 . S
C1648 C1649 1.366 . S
C1649 C1648 1.366 . S
C1649 C1650 1.414 . S
C1649 C1652 1.499 . S
C1650 H1630 0.950 . S
C1650 C1649 1.414 . S
C1650 C1651 1.374 . S
C1651 H1631 0.950 . S
C1651 C1647 1.385 . S
C1651 C1650 1.374 . S
C1652 C1649 1.499 . S
C1652 C1653 1.373 . S
C1652 C1654 1.389 . S
C1653 H1632 0.950 . S
C1653 C1652 1.373 . S
C1653 C1669 1.377 . S
C1654 C1652 1.389 . S
C1654 C1655 1.524 . S
C1654 C1668 1.377 . S
C1655 C1654 1.524 . S
C1655 C1656 1.397 . S
C1655 C1660 1.363 . S
C1656 H1633 0.950 . S
C1656 C1655 1.397 . S
C1656 C1657 1.334 . S
C1657 H1634 0.950 . S
C1657 C1656 1.334 . S
C1657 C1658 1.287 . S
C1658 C1657 1.287 . S
C1658 C1659 1.524 . S
C1658 H1677 0.913 . S
C1659 H1635 0.950 . S
C1659 C1658 1.524 . S
C1659 C1660 1.415 . S
C1660 H1636 0.950 . S
C1660 C1655 1.363 . S
C1660 C1659 1.415 . S
C1661 H1637 0.951 . S
C1661 C1662 1.366 . S
C1661 C1663 1.388 . S
C1662 C1661 1.366 . S
C1662 C1666 1.385 . S
C1663 H1638 0.951 . S
C1663 C1661 1.388 . S
C1663 C1664 1.366 . S
C1664 C1663 1.366 . S
C1664 C1665 1.414 . S
C1664 C1667 1.499 . S
C1665 H1639 0.950 . S
C1665 C1664 1.414 . S
C1665 C1666 1.374 . S
C1666 H1640 0.950 . S
C1666 C1662 1.385 . S
C1666 C1665 1.374 . S
C1667 C1664 1.499 . S
C1667 C1668 1.373 . S
C1667 C1669 1.389 . S
C1668 H1641 0.950 . S
C1668 C1654 1.377 . S
C1668 C1667 1.373 . S
C1669 C1653 1.377 . S
C1669 C1667 1.389 . S
C1669 C1670 1.524 . S
C1670 C1669 1.524 . S
C1670 C1671 1.397 . S
C1670 C1675 1.363 . S
C1671 H1642 0.950 . S
C1671 C1670 1.397 . S
C1671 C1672 1.334 . S
C1672 H1643 0.950 . S
C1672 C1671 1.334 . S
C1672 C1673 1.287 . S
C1673 C1672 1.287 . S
C1673 C1674 1.524 . S
C1673 H1676 0.999 . S
C1674 H1644 0.950 . S
C1674 C1673 1.524 . S
C1674 C1675 1.415 . S
C1675 H1645 0.950 . S
C1675 C1670 1.363 . S
C1675 C1674 1.415 . S
H1676 C1673 0.999 . S
H1677 C1658 0.913 . S
H1678 C1696 0.951 . S
H1679 C1698 0.951 . S
H1680 C1700 0.950 . S
H1681 C1701 0.950 . S
H1682 C1703 0.950 . S
H1683 C1706 0.950 . S
H1684 C1707 0.950 . S
H1685 C1709 0.950 . S
H1686 C1710 0.950 . S
H1687 C1711 0.951 . S
H1688 C1713 0.951 . S
H1689 C1715 0.950 . S
H1690 C1716 0.950 . S
H1691 C1718 0.950 . S
H1692 C1721 0.950 . S
H1693 C1722 0.950 . S
H1694 C1724 0.950 . S
H1695 C1725 0.950 . S
C1696 H1678 0.951 . S
C1696 C1697 1.366 . S
C1696 C1698 1.388 . S
C1697 C1696 1.366 . S
C1697 C1701 1.385 . S
C1698 H1679 0.951 . S
C1698 C1696 1.388 . S
C1698 C1699 1.366 . S
C1699 C1698 1.366 . S
C1699 C1700 1.414 . S
C1699 C1702 1.499 . S
C1700 H1680 0.950 . S
C1700 C1699 1.414 . S
C1700 C1701 1.374 . S
C1701 H1681 0.950 . S
C1701 C1697 1.385 . S
C1701 C1700 1.374 . S
C1702 C1699 1.499 . S
C1702 C1703 1.373 . S
C1702 C1704 1.389 . S
C1703 H1682 0.950 . S
C1703 C1702 1.373 . S
C1703 C1719 1.377 . S
C1704 C1702 1.389 . S
C1704 C1705 1.524 . S
C1704 C1718 1.377 . S
C1705 C1704 1.524 . S
C1705 C1706 1.397 . S
C1705 C1710 1.363 . S
C1706 H1683 0.950 . S
C1706 C1705 1.397 . S
C1706 C1707 1.334 . S
C1707 H1684 0.950 . S
C1707 C1706 1.334 . S
C1707 C1708 1.287 . S
C1708 C1707 1.287 . S
C1708 C1709 1.524 . S
C1708 H1727 0.913 . S
C1709 H1685 0.950 . S
C1709 C1708 1.524 . S
C1709 C1710 1.415 . S
C1710 H1686 0.950 . S
C1710 C1705 1.363 . S
C1710 C1709 1.415 . S
C1711 H1687 0.951 . S
C1711 C1712 1.366 . S
C1711 C1713 1.388 . S
C1712 C1711 1.366 . S
C1712 C1716 1.385 . S
C1713 H1688 0.951 . S
C1713 C1711 1.388 . S
C1713 C1714 1.366 . S
C1714 C1713 1.366 . S
C1714 C1715 1.414 . S
C1714 C1717 1.499 . S
C1715 H1689 0.950 . S
C1715 C1714 1.414 . S
C1715 C1716 1.374 . S
C1716 H1690 0.950 . S
C1716 C1712 1.385 . S
C1716 C1715 1.374 . S
C1717 C1714 1.499 . S
C1717 C1718 1.373 . S
C1717 C1719 1.389 . S
C1718 H1691 0.950 . S
C1718 C1704 1.377 . S
C1718 C1717 1.373 . S
C1719 C1703 1.377 . S
C1719 C1717 1.389 . S
C1719 C1720 1.524 . S
C1720 C1719 1.524 . S
C1720 C1721 1.397 . S
C1720 C1725 1.363 . S
C1721 H1692 0.950 . S
C1721 C1720 1.397 . S
C1721 C1722 1.334 . S
C1722 H1693 0.950 . S
C1722 C1721 1.334 . S
C1722 C1723 1.287 . S
C1723 C1722 1.287 . S
C1723 C1724 1.524 . S
C1723 H1726 0.999 . S
C1724 H1694 0.950 . S
C1724 C1723 1.524 . S
C1724 C1725 1.415 . S
C1725 H1695 0.950 . S
C1725 C1720 1.363 . S
C1725 C1724 1.415 . S
H1726 C1723 0.999 . S
H1727 C1708 0.913 . S
H1728 C1746 0.951 . S
H1729 C1748 0.951 . S
H1730 C1750 0.950 . S
H1731 C1751 0.950 . S
H1732 C1753 0.950 . S
H1733 C1756 0.950 . S
H1734 C1757 0.950 1_545 S
H1735 C1759 0.950 . S
H1736 C1760 0.950 . S
H1737 C1761 0.951 . S
H1738 C1763 0.951 . S
H1739 C1765 0.950 . S
H1740 C1766 0.950 . S
H1741 C1768 0.950 . S
H1742 C1771 0.950 . S
H1743 C1772 0.950 . S
H1744 C1774 0.950 . S
H1745 C1775 0.950 . S
C1746 H1728 0.951 . S
C1746 C1747 1.366 . S
C1746 C1748 1.388 1_545 S
C1747 C1746 1.366 . S
C1747 C1751 1.385 . S
C1748 H1729 0.951 . S
C1748 C1746 1.388 1_565 S
C1748 C1749 1.366 . S
C1749 C1748 1.366 . S
C1749 C1750 1.414 1_565 S
C1749 C1752 1.499 . S
C1750 H1730 0.950 . S
C1750 C1749 1.414 1_545 S
C1750 C1751 1.374 . S
C1751 H1731 0.950 . S
C1751 C1747 1.385 . S
C1751 C1750 1.374 . S
C1752 C1749 1.499 . S
C1752 C1753 1.373 . S
C1752 C1754 1.389 . S
C1753 H1732 0.950 . S
C1753 C1752 1.373 . S
C1753 C1769 1.377 . S
C1754 C1752 1.389 . S
C1754 C1755 1.524 . S
C1754 C1768 1.377 . S
C1755 C1754 1.524 . S
C1755 C1756 1.397 . S
C1755 C1760 1.363 . S
C1756 H1733 0.950 . S
C1756 C1755 1.397 . S
C1756 C1757 1.334 . S
C1757 H1734 0.950 1_565 S
C1757 C1756 1.334 . S
C1757 C1758 1.287 . S
C1758 C1757 1.287 . S
C1758 C1759 1.524 . S
C1758 H1777 0.913 . S
C1759 H1735 0.950 . S
C1759 C1758 1.524 . S
C1759 C1760 1.415 . S
C1760 H1736 0.950 . S
C1760 C1755 1.363 . S
C1760 C1759 1.415 . S
C1761 H1737 0.951 . S
C1761 C1762 1.366 . S
C1761 C1763 1.388 . S
C1762 C1761 1.366 . S
C1762 C1766 1.385 . S
C1763 H1738 0.951 . S
C1763 C1761 1.388 . S
C1763 C1764 1.366 . S
C1764 C1763 1.366 . S
C1764 C1765 1.414 . S
C1764 C1767 1.499 . S
C1765 H1739 0.950 . S
C1765 C1764 1.414 . S
C1765 C1766 1.374 . S
C1766 H1740 0.950 . S
C1766 C1762 1.385 . S
C1766 C1765 1.374 . S
C1767 C1764 1.499 . S
C1767 C1768 1.373 . S
C1767 C1769 1.389 . S
C1768 H1741 0.950 . S
C1768 C1754 1.377 . S
C1768 C1767 1.373 . S
C1769 C1753 1.377 . S
C1769 C1767 1.389 . S
C1769 C1770 1.524 . S
C1770 C1769 1.524 . S
C1770 C1771 1.397 . S
C1770 C1775 1.363 . S
C1771 H1742 0.950 . S
C1771 C1770 1.397 . S
C1771 C1772 1.334 . S
C1772 H1743 0.950 . S
C1772 C1771 1.334 . S
C1772 C1773 1.287 . S
C1773 C1772 1.287 . S
C1773 C1774 1.524 . S
C1773 H1776 0.999 . S
C1774 H1744 0.950 . S
C1774 C1773 1.524 . S
C1774 C1775 1.415 . S
C1775 H1745 0.950 . S
C1775 C1770 1.363 . S
C1775 C1774 1.415 . S
H1776 C1773 0.999 . S
H1777 C1758 0.913 . S
H1778 C1796 0.951 . S
H1779 C1798 0.951 . S
H1780 C1800 0.950 . S
H1781 C1801 0.950 . S
H1782 C1803 0.950 . S
H1783 C1806 0.950 . S
H1784 C1807 0.950 . S
H1785 C1809 0.950 . S
H1786 C1810 0.950 . S
H1787 C1811 0.951 . S
H1788 C1813 0.951 . S
H1789 C1815 0.950 . S
H1790 C1816 0.950 . S
H1791 C1818 0.950 . S
H1792 C1821 0.950 . S
H1793 C1822 0.971 . S
H1794 C1824 0.950 . S
H1795 C1825 0.950 . S
C1796 H1778 0.951 . S
C1796 C1797 1.366 . S
C1796 C1798 1.388 . S
C1797 C1796 1.366 . S
C1797 C1801 1.385 . S
C1798 H1779 0.951 . S
C1798 C1796 1.388 . S
C1798 C1799 1.366 . S
C1799 C1798 1.366 . S
C1799 C1800 1.414 . S
C1799 C1802 1.499 . S
C1800 H1780 0.950 . S
C1800 C1799 1.414 . S
C1800 C1801 1.374 . S
C1801 H1781 0.950 . S
C1801 C1797 1.385 . S
C1801 C1800 1.374 . S
C1802 C1799 1.499 . S
C1802 C1803 1.373 . S
C1802 C1804 1.389 . S
C1803 H1782 0.950 . S
C1803 C1802 1.373 . S
C1803 C1819 1.377 . S
C1804 C1802 1.389 . S
C1804 C1805 1.524 . S
C1804 C1818 1.377 . S
C1805 C1804 1.524 . S
C1805 C1806 1.397 . S
C1805 C1810 1.363 . S
C1806 H1783 0.950 . S
C1806 C1805 1.397 . S
C1806 C1807 1.334 . S
C1807 H1784 0.950 . S
C1807 C1806 1.334 . S
C1807 C1808 1.287 . S
C1808 C1807 1.287 . S
C1808 C1809 1.524 . S
C1808 H1827 0.913 . S
C1809 H1785 0.950 . S
C1809 C1808 1.524 . S
C1809 C1810 1.415 . S
C1810 H1786 0.950 . S
C1810 C1805 1.363 . S
C1810 C1809 1.415 . S
C1811 H1787 0.951 . S
C1811 C1812 1.366 . S
C1811 C1813 1.388 . S
C1812 C1811 1.366 . S
C1812 C1816 1.385 . S
C1813 H1788 0.951 . S
C1813 C1811 1.388 . S
C1813 C1814 1.366 1_455 S
C1814 C1813 1.366 1_655 S
C1814 C1815 1.414 . S
C1814 C1817 1.499 . S
C1815 H1789 0.950 . S
C1815 C1814 1.414 . S
C1815 C1816 1.374 1_655 S
C1816 H1790 0.950 . S
C1816 C1812 1.385 . S
C1816 C1815 1.374 1_455 S
C1817 C1814 1.499 . S
C1817 C1818 1.373 . S
C1817 C1819 1.389 . S
C1818 H1791 0.950 . S
C1818 C1804 1.377 . S
C1818 C1817 1.373 . S
C1819 C1803 1.377 . S
C1819 C1817 1.389 . S
C1819 C1820 1.524 . S
C1820 C1819 1.524 . S
C1820 C1821 1.397 . S
C1820 C1825 1.363 . S
C1821 H1792 0.950 . S
C1821 C1820 1.397 . S
C1821 C1822 1.334 . S
C1822 H1793 0.971 . S
C1822 C1821 1.334 . S
C1822 C1823 1.287 . S
C1823 C1822 1.287 . S
C1823 C1824 1.524 . S
C1823 H1826 0.999 1_655 S
C1824 H1794 0.950 . S
C1824 C1823 1.524 . S
C1824 C1825 1.415 . S
C1825 H1795 0.950 . S
C1825 C1820 1.363 . S
C1825 C1824 1.415 . S
H1826 C1823 0.999 1_455 S
H1827 C1808 0.913 . S
H1828 C1846 0.951 . S
H1829 C1848 0.951 . S
H1830 C1850 0.950 . S
H1831 C1851 0.950 . S
H1832 C1853 0.950 . S
H1833 C1856 0.950 . S
H1834 C1857 0.950 . S
H1835 C1859 0.950 . S
H1836 C1860 0.950 . S
H1837 C1861 0.951 . S
H1838 C1863 0.951 . S
H1839 C1865 0.950 . S
H1840 C1866 0.950 . S
H1841 C1868 0.950 . S
H1842 C1871 0.950 . S
H1843 C1872 0.950 . S
H1844 C1874 0.950 . S
H1845 C1875 0.950 . S
C1846 H1828 0.951 . S
C1846 C1847 1.366 . S
C1846 C1848 1.388 . S
C1847 C1846 1.366 . S
C1847 C1851 1.385 . S
C1848 H1829 0.951 . S
C1848 C1846 1.388 . S
C1848 C1849 1.366 1_565 S
C1849 C1848 1.366 1_545 S
C1849 C1850 1.414 . S
C1849 C1852 1.499 . S
C1850 H1830 0.950 . S
C1850 C1849 1.414 . S
C1850 C1851 1.374 1_545 S
C1851 H1831 0.950 . S
C1851 C1847 1.385 . S
C1851 C1850 1.374 1_565 S
C1852 C1849 1.499 . S
C1852 C1853 1.373 . S
C1852 C1854 1.389 . S
C1853 H1832 0.950 . S
C1853 C1852 1.373 . S
C1853 C1869 1.377 . S
C1854 C1852 1.389 . S
C1854 C1855 1.524 . S
C1854 C1868 1.377 . S
C1855 C1854 1.524 . S
C1855 C1856 1.397 . S
C1855 C1860 1.363 . S
C1856 H1833 0.950 . S
C1856 C1855 1.397 . S
C1856 C1857 1.334 . S
C1857 H1834 0.950 . S
C1857 C1856 1.334 . S
C1857 C1858 1.287 . S
C1858 C1857 1.287 . S
C1858 C1859 1.524 . S
C1858 H1877 0.913 . S
C1859 H1835 0.950 . S
C1859 C1858 1.524 . S
C1859 C1860 1.415 . S
C1860 H1836 0.950 . S
C1860 C1855 1.363 . S
C1860 C1859 1.415 . S
C1861 H1837 0.951 . S
C1861 C1862 1.366 . S
C1861 C1863 1.388 . S
C1862 C1861 1.366 . S
C1862 C1866 1.385 . S
C1863 H1838 0.951 . S
C1863 C1861 1.388 . S
C1863 C1864 1.366 . S
C1864 C1863 1.366 . S
C1864 C1865 1.414 . S
C1864 C1867 1.499 . S
C1865 H1839 0.950 . S
C1865 C1864 1.414 . S
C1865 C1866 1.374 . S
C1866 H1840 0.950 . S
C1866 C1862 1.385 . S
C1866 C1865 1.374 . S
C1867 C1864 1.499 . S
C1867 C1868 1.373 . S
C1867 C1869 1.389 . S
C1868 H1841 0.950 . S
C1868 C1854 1.377 . S
C1868 C1867 1.373 . S
C1869 C1853 1.377 . S
C1869 C1867 1.389 . S
C1869 C1870 1.524 . S
C1870 C1869 1.524 . S
C1870 C1871 1.397 . S
C1870 C1875 1.363 . S
C1871 H1842 0.950 . S
C1871 C1870 1.397 . S
C1871 C1872 1.334 . S
C1872 H1843 0.950 . S
C1872 C1871 1.334 . S
C1872 C1873 1.287 . S
C1873 C1872 1.287 . S
C1873 C1874 1.524 . S
C1873 H1876 0.999 . S
C1874 H1844 0.950 . S
C1874 C1873 1.524 . S
C1874 C1875 1.415 . S
C1875 H1845 0.950 . S
C1875 C1870 1.363 . S
C1875 C1874 1.415 . S
H1876 C1873 0.999 . S
H1877 C1858 0.913 . S
H1878 C1896 0.951 . S
H1879 C1898 0.951 . S
H1880 C1900 0.950 . S
H1881 C1901 0.950 . S
H1882 C1903 0.950 . S
H1883 C1906 0.950 . S
H1884 C1907 0.950 . S
H1885 C1909 0.950 . S
H1886 C1910 0.950 . S
H1887 C1911 0.951 . S
H1888 C1913 0.951 . S
H1889 C1915 0.950 . S
H1890 C1916 0.950 . S
H1891 C1918 0.950 . S
H1892 C1921 0.950 . S
H1893 C1922 0.950 . S
H1894 C1924 0.950 . S
H1895 C1925 0.950 . S
C1896 H1878 0.951 . S
C1896 C1897 1.366 . S
C1896 C1898 1.388 . S
C1897 C1896 1.366 . S
C1897 C1901 1.385 . S
C1898 H1879 0.951 . S
C1898 C1896 1.388 . S
C1898 C1899 1.366 . S
C1899 C1898 1.366 . S
C1899 C1900 1.414 . S
C1899 C1902 1.499 . S
C1900 H1880 0.950 . S
C1900 C1899 1.414 . S
C1900 C1901 1.374 . S
C1901 H1881 0.950 . S
C1901 C1897 1.385 . S
C1901 C1900 1.374 . S
C1902 C1899 1.499 . S
C1902 C1903 1.373 . S
C1902 C1904 1.389 . S
C1903 H1882 0.950 . S
C1903 C1902 1.373 . S
C1903 C1919 1.377 . S
C1904 C1902 1.389 . S
C1904 C1905 1.524 . S
C1904 C1918 1.377 . S
C1905 C1904 1.524 . S
C1905 C1906 1.397 . S
C1905 C1910 1.363 . S
C1906 H1883 0.950 . S
C1906 C1905 1.397 . S
C1906 C1907 1.334 . S
C1907 H1884 0.950 . S
C1907 C1906 1.334 . S
C1907 C1908 1.287 . S
C1908 C1907 1.287 . S
C1908 C1909 1.524 . S
C1908 H1927 0.913 . S
C1909 H1885 0.950 . S
C1909 C1908 1.524 . S
C1909 C1910 1.415 . S
C1910 H1886 0.950 . S
C1910 C1905 1.363 . S
C1910 C1909 1.415 . S
C1911 H1887 0.951 . S
C1911 C1912 1.366 . S
C1911 C1913 1.388 1_655 S
C1912 C1911 1.366 . S
C1912 C1916 1.385 . S
C1913 H1888 0.951 . S
C1913 C1911 1.388 1_455 S
C1913 C1914 1.366 . S
C1914 C1913 1.366 . S
C1914 C1915 1.414 1_455 S
C1914 C1917 1.499 . S
C1915 H1889 0.950 . S
C1915 C1914 1.414 1_655 S
C1915 C1916 1.374 . S
C1916 H1890 0.950 . S
C1916 C1912 1.385 . S
C1916 C1915 1.374 . S
C1917 C1914 1.499 . S
C1917 C1918 1.373 . S
C1917 C1919 1.389 . S
C1918 H1891 0.950 . S
C1918 C1904 1.377 . S
C1918 C1917 1.373 . S
C1919 C1903 1.377 . S
C1919 C1917 1.389 . S
C1919 C1920 1.524 . S
C1920 C1919 1.524 . S
C1920 C1921 1.397 . S
C1920 C1925 1.363 . S
C1921 H1892 0.950 . S
C1921 C1920 1.397 . S
C1921 C1922 1.334 . S
C1922 H1893 0.950 . S
C1922 C1921 1.334 . S
C1922 C1923 1.287 . S
C1923 C1922 1.287 . S
C1923 C1924 1.524 . S
C1923 H1926 0.999 . S
C1924 H1894 0.950 . S
C1924 C1923 1.524 . S
C1924 C1925 1.415 . S
C1925 H1895 0.950 . S
C1925 C1920 1.363 . S
C1925 C1924 1.415 . S
H1926 C1923 0.999 . S
H1927 C1908 0.913 . S
H1928 C1946 0.951 . S
H1929 C1948 0.951 . S
H1930 C1950 0.950 . S
H1931 C1951 0.950 . S
H1932 C1953 0.950 . S
H1933 C1956 0.950 . S
H1934 C1957 0.950 . S
H1935 C1959 0.950 . S
H1936 C1960 0.950 . S
H1937 C1961 0.951 . S
H1938 C1963 0.951 1_556 S
H1939 C1965 0.950 . S
H1940 C1966 0.950 . S
H1941 C1968 0.950 . S
H1942 C1971 0.950 . S
H1943 C1972 0.950 . S
H1944 C1974 0.950 . S
H1945 C1975 0.950 1_556 S
C1946 H1928 0.951 . S
C1946 C1947 1.366 . S
C1946 C1948 1.388 . S
C1947 C1946 1.366 . S
C1947 C1951 1.385 . S
C1948 H1929 0.951 . S
C1948 C1946 1.388 . S
C1948 C1949 1.366 . S
C1949 C1948 1.366 . S
C1949 C1950 1.414 . S
C1949 C1952 1.499 . S
C1950 H1930 0.950 . S
C1950 C1949 1.414 . S
C1950 C1951 1.374 . S
C1951 H1931 0.950 . S
C1951 C1947 1.385 . S
C1951 C1950 1.374 . S
C1952 C1949 1.499 . S
C1952 C1953 1.373 . S
C1952 C1954 1.389 . S
C1953 H1932 0.950 . S
C1953 C1952 1.373 . S
C1953 C1969 1.377 1_556 S
C1954 C1952 1.389 . S
C1954 C1955 1.524 . S
C1954 C1968 1.377 . S
C1955 C1954 1.524 . S
C1955 C1956 1.397 . S
C1955 C1960 1.363 . S
C1956 H1933 0.950 . S
C1956 C1955 1.397 . S
C1956 C1957 1.334 . S
C1957 H1934 0.950 . S
C1957 C1956 1.334 . S
C1957 C1958 1.287 . S
C1958 C1957 1.287 . S
C1958 C1959 1.524 . S
C1958 H1977 0.913 . S
C1959 H1935 0.950 . S
C1959 C1958 1.524 . S
C1959 C1960 1.415 . S
C1960 H1936 0.950 . S
C1960 C1955 1.363 . S
C1960 C1959 1.415 . S
C1961 H1937 0.951 . S
C1961 C1962 1.366 . S
C1961 C1963 1.388 . S
C1962 C1961 1.366 . S
C1962 C1966 1.385 . S
C1963 H1938 0.951 1_554 S
C1963 C1961 1.388 . S
C1963 C1964 1.366 . S
C1964 C1963 1.366 . S
C1964 C1965 1.414 . S
C1964 C1967 1.499 . S
C1965 H1939 0.950 . S
C1965 C1964 1.414 . S
C1965 C1966 1.374 . S
C1966 H1940 0.950 . S
C1966 C1962 1.385 . S
C1966 C1965 1.374 . S
C1967 C1964 1.499 . S
C1967 C1968 1.373 1_554 S
C1967 C1969 1.389 . S
C1968 H1941 0.950 . S
C1968 C1954 1.377 . S
C1968 C1967 1.373 1_556 S
C1969 C1953 1.377 1_554 S
C1969 C1967 1.389 . S
C1969 C1970 1.524 . S
C1970 C1969 1.524 . S
C1970 C1971 1.397 . S
C1970 C1975 1.363 . S
C1971 H1942 0.950 . S
C1971 C1970 1.397 . S
C1971 C1972 1.334 . S
C1972 H1943 0.950 . S
C1972 C1971 1.334 . S
C1972 C1973 1.287 . S
C1973 C1972 1.287 . S
C1973 C1974 1.524 . S
C1973 H1976 0.999 . S
C1974 H1944 0.950 . S
C1974 C1973 1.524 . S
C1974 C1975 1.415 . S
C1975 H1945 0.950 1_554 S
C1975 C1970 1.363 . S
C1975 C1974 1.415 . S
H1976 C1973 0.999 . S
H1977 C1958 0.913 . S
H1978 C1996 0.951 . S
H1979 C1998 0.951 . S
H1980 C2000 0.950 . S
H1981 C2001 0.950 . S
H1982 C2003 0.950 . S
H1983 C2006 0.950 . S
H1984 C2007 0.950 . S
H1985 C2009 0.950 . S
H1986 C2010 0.950 . S
H1987 C2011 0.951 . S
H1988 C2013 0.951 . S
H1989 C2015 0.950 . S
H1990 C2016 0.950 . S
H1991 C2018 0.950 . S
H1992 C2021 0.950 . S
H1993 C2022 0.950 . S
H1994 C2024 0.950 . S
H1995 C2025 0.950 . S
C1996 H1978 0.951 . S
C1996 C1997 1.366 . S
C1996 C1998 1.388 . S
C1997 C1996 1.366 . S
C1997 C2001 1.385 . S
C1998 H1979 0.951 . S
C1998 C1996 1.388 . S
C1998 C1999 1.366 . S
C1999 C1998 1.366 . S
C1999 C2000 1.414 . S
C1999 C2002 1.499 . S
C2000 H1980 0.950 . S
C2000 C1999 1.414 . S
C2000 C2001 1.374 . S
C2001 H1981 0.950 . S
C2001 C1997 1.385 . S
C2001 C2000 1.374 . S
C2002 C1999 1.499 . S
C2002 C2003 1.373 1_554 S
C2002 C2004 1.389 . S
C2003 H1982 0.950 . S
C2003 C2002 1.373 1_556 S
C2003 C2019 1.377 . S
C2004 C2002 1.389 . S
C2004 C2005 1.524 . S
C2004 C2018 1.377 . S
C2005 C2004 1.524 . S
C2005 C2006 1.397 . S
C2005 C2010 1.363 . S
C2006 H1983 0.950 . S
C2006 C2005 1.397 . S
C2006 C2007 1.334 . S
C2007 H1984 0.950 . S
C2007 C2006 1.334 . S
C2007 C2008 1.287 . S
C2008 C2007 1.287 . S
C2008 C2009 1.524 . S
C2008 H2027 0.913 . S
C2009 H1985 0.950 . S
C2009 C2008 1.524 . S
C2009 C2010 1.415 . S
C2010 H1986 0.950 . S
C2010 C2005 1.363 . S
C2010 C2009 1.415 . S
C2011 H1987 0.951 . S
C2011 C2012 1.366 . S
C2011 C2013 1.388 . S
C2012 C2011 1.366 . S
C2012 C2016 1.385 . S
C2013 H1988 0.951 . S
C2013 C2011 1.388 . S
C2013 C2014 1.366 . S
C2014 C2013 1.366 . S
C2014 C2015 1.414 . S
C2014 C2017 1.499 . S
C2015 H1989 0.950 . S
C2015 C2014 1.414 . S
C2015 C2016 1.374 . S
C2016 H1990 0.950 . S
C2016 C2012 1.385 . S
C2016 C2015 1.374 . S
C2017 C2014 1.499 . S
C2017 C2018 1.373 1_556 S
C2017 C2019 1.389 . S
C2018 H1991 0.950 . S
C2018 C2004 1.377 . S
C2018 C2017 1.373 1_554 S
C2019 C2003 1.377 . S
C2019 C2017 1.389 . S
C2019 C2020 1.524 . S
C2020 C2019 1.524 . S
C2020 C2021 1.397 . S
C2020 C2025 1.363 . S
C2021 H1992 0.950 . S
C2021 C2020 1.397 . S
C2021 C2022 1.334 . S
C2022 H1993 0.950 . S
C2022 C2021 1.334 . S
C2022 C2023 1.287 . S
C2023 C2022 1.287 . S
C2023 C2024 1.524 . S
C2023 H2026 0.999 . S
C2024 H1994 0.950 . S
C2024 C2023 1.524 . S
C2024 C2025 1.415 . S
C2025 H1995 0.950 . S
C2025 C2020 1.363 . S
C2025 C2024 1.415 . S
H2026 C2023 0.999 . S
H2027 C2008 0.913 . S
H2028 C2046 0.951 . S
H2029 C2048 0.951 . S
H2030 C2050 0.950 1_556 S
H2031 C2051 0.950 . S
H2032 C2053 0.950 . S
H2033 C2056 0.950 . S
H2034 C2057 0.950 . S
H2035 C2059 0.950 . S
H2036 C2060 0.950 . S
H2037 C2061 0.951 . S
H2038 C2063 0.951 . S
H2039 C2065 0.950 . S
H2040 C2066 0.950 . S
H2041 C2068 0.950 . S
H2042 C2071 0.950 . S
H2043 C2072 0.950 . S
H2044 C2074 0.950 . S
H2045 C2075 0.950 . S
C2046 H2028 0.951 . S
C2046 C2047 1.366 . S
C2046 C2048 1.388 . S
C2047 C2046 1.366 . S
C2047 C2051 1.385 . S
C2048 H2029 0.951 . S
C2048 C2046 1.388 . S
C2048 C2049 1.366 . S
C2049 C2048 1.366 . S
C2049 C2050 1.414 . S
C2049 C2052 1.499 . S
C2050 H2030 0.950 1_554 S
C2050 C2049 1.414 . S
C2050 C2051 1.374 . S
C2051 H2031 0.950 . S
C2051 C2047 1.385 . S
C2051 C2050 1.374 . S
C2052 C2049 1.499 . S
C2052 C2053 1.373 1_554 S
C2052 C2054 1.389 . S
C2053 H2032 0.950 . S
C2053 C2052 1.373 1_556 S
C2053 C2069 1.377 . S
C2054 C2052 1.389 . S
C2054 C2055 1.524 . S
C2054 C2068 1.377 . S
C2055 C2054 1.524 . S
C2055 C2056 1.397 . S
C2055 C2060 1.363 . S
C2056 H2033 0.950 . S
C2056 C2055 1.397 . S
C2056 C2057 1.334 . S
C2057 H2034 0.950 . S
C2057 C2056 1.334 . S
C2057 C2058 1.287 . S
C2058 C2057 1.287 . S
C2058 C2059 1.524 . S
C2058 H2077 0.913 . S
C2059 H2035 0.950 . S
C2059 C2058 1.524 . S
C2059 C2060 1.415 . S
C2060 H2036 0.950 . S
C2060 C2055 1.363 . S
C2060 C2059 1.415 . S
C2061 H2037 0.951 . S
C2061 C2062 1.366 . S
C2061 C2063 1.388 . S
C2062 C2061 1.366 . S
C2062 C2066 1.385 . S
C2063 H2038 0.951 . S
C2063 C2061 1.388 . S
C2063 C2064 1.366 . S
C2064 C2063 1.366 . S
C2064 C2065 1.414 . S
C2064 C2067 1.499 . S
C2065 H2039 0.950 . S
C2065 C2064 1.414 . S
C2065 C2066 1.374 . S
C2066 H2040 0.950 . S
C2066 C2062 1.385 . S
C2066 C2065 1.374 . S
C2067 C2064 1.499 . S
C2067 C2068 1.373 1_556 S
C2067 C2069 1.389 . S
C2068 H2041 0.950 . S
C2068 C2054 1.377 . S
C2068 C2067 1.373 1_554 S
C2069 C2053 1.377 . S
C2069 C2067 1.389 . S
C2069 C2070 1.524 . S
C2070 C2069 1.524 . S
C2070 C2071 1.397 . S
C2070 C2075 1.363 . S
C2071 H2042 0.950 . S
C2071 C2070 1.397 . S
C2071 C2072 1.334 . S
C2072 H2043 0.950 . S
C2072 C2071 1.334 . S
C2072 C2073 1.287 . S
C2073 C2072 1.287 . S
C2073 C2074 1.524 . S
C2073 H2076 0.999 . S
C2074 H2044 0.950 . S
C2074 C2073 1.524 . S
C2074 C2075 1.415 . S
C2075 H2045 0.950 . S
C2075 C2070 1.363 . S
C2075 C2074 1.415 . S
H2076 C2073 0.999 . S
H2077 C2058 0.913 . S
H2078 C2096 0.951 . S
H2079 C2098 0.951 . S
H2080 C2100 0.950 1_556 S
H2081 C2101 0.950 . S
H2082 C2103 0.950 . S
H2083 C2106 0.950 1_556 S
H2084 C2107 0.950 . S
H2085 C2109 0.950 . S
H2086 C2110 0.950 . S
H2087 C2111 0.951 . S
H2088 C2113 0.951 . S
H2089 C2115 0.950 . S
H2090 C2116 0.950 1_554 S
H2091 C2118 0.950 . S
H2092 C2121 0.950 . S
H2093 C2122 0.950 . S
H2094 C2124 0.950 . S
H2095 C2125 0.950 . S
C2096 H2078 0.951 . S
C2096 C2097 1.366 . S
C2096 C2098 1.388 . S
C2097 C2096 1.366 . S
C2097 C2101 1.385 . S
C2098 H2079 0.951 . S
C2098 C2096 1.388 . S
C2098 C2099 1.366 . S
C2099 C2098 1.366 . S
C2099 C2100 1.414 . S
C2099 C2102 1.499 . S
C2100 H2080 0.950 1_554 S
C2100 C2099 1.414 . S
C2100 C2101 1.374 . S
C2101 H2081 0.950 . S
C2101 C2097 1.385 . S
C2101 C2100 1.374 . S
C2102 C2099 1.499 . S
C2102 C2103 1.373 . S
C2102 C2104 1.389 . S
C2103 H2082 0.950 . S
C2103 C2102 1.373 . S
C2103 C2119 1.377 1_554 S
C2104 C2102 1.389 . S
C2104 C2105 1.524 . S
C2104 C2118 1.377 . S
C2105 C2104 1.524 . S
C2105 C2106 1.397 . S
C2105 C2110 1.363 . S
C2106 H2083 0.950 1_554 S
C2106 C2105 1.397 . S
C2106 C2107 1.334 . S
C2107 H2084 0.950 . S
C2107 C2106 1.334 . S
C2107 C2108 1.287 . S
C2108 C2107 1.287 . S
C2108 C2109 1.524 . S
C2108 H2127 0.913 . S
C2109 H2085 0.950 . S
C2109 C2108 1.524 . S
C2109 C2110 1.415 . S
C2110 H2086 0.950 . S
C2110 C2105 1.363 . S
C2110 C2109 1.415 . S
C2111 H2087 0.951 . S
C2111 C2112 1.366 . S
C2111 C2113 1.388 . S
C2112 C2111 1.366 . S
C2112 C2116 1.385 . S
C2113 H2088 0.951 . S
C2113 C2111 1.388 . S
C2113 C2114 1.366 . S
C2114 C2113 1.366 . S
C2114 C2115 1.414 1_556 S
C2114 C2117 1.506 . S
C2115 H2089 0.950 . S
C2115 C2114 1.414 1_554 S
C2115 C2116 1.374 1_554 S
C2116 H2090 0.950 1_556 S
C2116 C2112 1.385 . S
C2116 C2115 1.374 1_556 S
C2117 C2114 1.506 . S
C2117 C2118 1.367 1_556 S
C2117 C2119 1.390 . S
C2118 H2091 0.950 . S
C2118 C2104 1.377 . S
C2118 C2117 1.367 1_554 S
C2119 C2103 1.377 1_556 S
C2119 C2117 1.390 . S
C2119 C2120 1.524 . S
C2120 C2119 1.524 . S
C2120 C2121 1.397 1_556 S
C2120 C2125 1.363 . S
C2121 H2092 0.950 . S
C2121 C2120 1.397 1_554 S
C2121 C2122 1.334 . S
C2122 H2093 0.950 . S
C2122 C2121 1.334 . S
C2122 C2123 1.287 1_554 S
C2123 C2122 1.287 1_556 S
C2123 C2124 1.524 . S
C2123 H2126 0.999 . S
C2124 H2094 0.950 . S
C2124 C2123 1.524 . S
C2124 C2125 1.415 . S
C2125 H2095 0.950 . S
C2125 C2120 1.363 . S
C2125 C2124 1.415 . S
H2126 C2123 0.999 . S
H2127 C2108 0.913 . S
H2128 C2146 0.951 . S
H2129 C2148 0.951 . S
H2130 C2150 0.950 . S
H2131 C2151 0.950 . S
H2132 C2153 0.950 . S
H2133 C2156 0.950 . S
H2134 C2157 0.950 . S
H2135 C2159 0.950 . S
H2136 C2160 0.950 . S
H2137 C2161 0.951 . S
H2138 C2163 0.951 . S
H2139 C2165 0.950 . S
H2140 C2166 0.950 . S
H2141 C2168 0.950 . S
H2142 C2171 0.950 . S
H2143 C2172 0.950 . S
H2144 C2174 0.950 . S
H2145 C2175 0.950 . S
C2146 H2128 0.951 . S
C2146 C2147 1.366 . S
C2146 C2148 1.388 . S
C2147 C2146 1.366 . S
C2147 C2151 1.385 . S
C2148 H2129 0.951 . S
C2148 C2146 1.388 . S
C2148 C2149 1.366 . S
C2149 C2148 1.366 . S
C2149 C2150 1.414 . S
C2149 C2152 1.499 . S
C2150 H2130 0.950 . S
C2150 C2149 1.414 . S
C2150 C2151 1.374 . S
C2151 H2131 0.950 . S
C2151 C2147 1.385 . S
C2151 C2150 1.374 . S
C2152 C2149 1.499 . S
C2152 C2153 1.373 . S
C2152 C2154 1.389 . S
C2153 H2132 0.950 . S
C2153 C2152 1.373 . S
C2153 C2169 1.377 . S
C2154 C2152 1.389 . S
C2154 C2155 1.524 . S
C2154 C2168 1.377 . S
C2155 C2154 1.524 . S
C2155 C2156 1.397 . S
C2155 C2160 1.363 . S
C2156 H2133 0.950 . S
C2156 C2155 1.397 . S
C2156 C2157 1.334 . S
C2157 H2134 0.950 . S
C2157 C2156 1.334 . S
C2157 C2158 1.287 . S
C2158 C2157 1.287 . S
C2158 C2159 1.524 . S
C2158 H2177 0.913 . S
C2159 H2135 0.950 . S
C2159 C2158 1.524 . S
C2159 C2160 1.415 . S
C2160 H2136 0.950 . S
C2160 C2155 1.363 . S
C2160 C2159 1.415 . S
C2161 H2137 0.951 . S
C2161 C2162 1.366 . S
C2161 C2163 1.388 . S
C2162 C2161 1.366 . S
C2162 C2166 1.385 . S
C2163 H2138 0.951 . S
C2163 C2161 1.388 . S
C2163 C2164 1.366 . S
C2164 C2163 1.366 . S
C2164 C2165 1.414 . S
C2164 C2167 1.499 . S
C2165 H2139 0.950 . S
C2165 C2164 1.414 . S
C2165 C2166 1.374 . S
C2166 H2140 0.950 . S
C2166 C2162 1.385 . S
C2166 C2165 1.374 . S
C2167 C2164 1.499 . S
C2167 C2168 1.373 . S
C2167 C2169 1.389 . S
C2168 H2141 0.950 . S
C2168 C2154 1.377 . S
C2168 C2167 1.373 . S
C2169 C2153 1.377 . S
C2169 C2167 1.389 . S
C2169 C2170 1.524 . S
C2170 C2169 1.524 . S
C2170 C2171 1.397 . S
C2170 C2175 1.363 . S
C2171 H2142 0.950 . S
C2171 C2170 1.397 . S
C2171 C2172 1.334 . S
C2172 H2143 0.950 . S
C2172 C2171 1.334 . S
C2172 C2173 1.287 . S
C2173 C2172 1.287 . S
C2173 C2174 1.524 . S
C2173 H2176 0.999 . S
C2174 H2144 0.950 . S
C2174 C2173 1.524 . S
C2174 C2175 1.415 . S
C2175 H2145 0.950 . S
C2175 C2170 1.363 . S
C2175 C2174 1.415 . S
H2176 C2173 0.999 . S
H2177 C2158 0.913 . S
H2178 C2196 0.951 . S
H2179 C2198 0.951 . S
H2180 C2200 0.950 . S
H2181 C2201 0.950 . S
H2182 C2203 0.950 . S
H2183 C2206 0.950 . S
H2184 C2207 0.950 . S
H2185 C2209 0.950 . S
H2186 C2210 0.950 . S
H2187 C2211 0.951 . S
H2188 C2213 0.951 . S
H2189 C2215 0.950 . S
H2190 C2216 0.950 . S
H2191 C2218 0.950 . S
H2192 C2221 0.950 . S
H2193 C2222 0.950 . S
H2194 C2224 0.950 . S
H2195 C2225 0.950 . S
C2196 H2178 0.951 . S
C2196 C2197 1.366 . S
C2196 C2198 1.388 . S
C2197 C2196 1.366 . S
C2197 C2201 1.385 . S
C2198 H2179 0.951 . S
C2198 C2196 1.388 . S
C2198 C2199 1.366 . S
C2199 C2198 1.366 . S
C2199 C2200 1.414 . S
C2199 C2202 1.499 . S
C2200 H2180 0.950 . S
C2200 C2199 1.414 . S
C2200 C2201 1.374 . S
C2201 H2181 0.950 . S
C2201 C2197 1.385 . S
C2201 C2200 1.374 . S
C2202 C2199 1.499 . S
C2202 C2203 1.373 . S
C2202 C2204 1.389 . S
C2203 H2182 0.950 . S
C2203 C2202 1.373 . S
C2203 C2219 1.377 . S
C2204 C2202 1.389 . S
C2204 C2205 1.524 . S
C2204 C2218 1.377 . S
C2205 C2204 1.524 . S
C2205 C2206 1.397 . S
C2205 C2210 1.363 . S
C2206 H2183 0.950 . S
C2206 C2205 1.397 . S
C2206 C2207 1.334 . S
C2207 H2184 0.950 . S
C2207 C2206 1.334 . S
C2207 C2208 1.287 . S
C2208 C2207 1.287 . S
C2208 C2209 1.524 . S
C2208 H2227 0.913 . S
C2209 H2185 0.950 . S
C2209 C2208 1.524 . S
C2209 C2210 1.415 . S
C2210 H2186 0.950 . S
C2210 C2205 1.363 . S
C2210 C2209 1.415 . S
C2211 H2187 0.951 . S
C2211 C2212 1.366 . S
C2211 C2213 1.388 . S
C2212 C2211 1.366 . S
C2212 C2216 1.385 . S
C2213 H2188 0.951 . S
C2213 C2211 1.388 . S
C2213 C2214 1.366 . S
C2214 C2213 1.366 . S
C2214 C2215 1.414 . S
C2214 C2217 1.499 . S
C2215 H2189 0.950 . S
C2215 C2214 1.414 . S
C2215 C2216 1.374 . S
C2216 H2190 0.950 . S
C2216 C2212 1.385 . S
C2216 C2215 1.374 . S
C2217 C2214 1.499 . S
C2217 C2218 1.373 . S
C2217 C2219 1.389 . S
C2218 H2191 0.950 . S
C2218 C2204 1.377 . S
C2218 C2217 1.373 . S
C2219 C2203 1.377 . S
C2219 C2217 1.389 . S
C2219 C2220 1.524 . S
C2220 C2219 1.524 . S
C2220 C2221 1.397 . S
C2220 C2225 1.363 . S
C2221 H2192 0.950 . S
C2221 C2220 1.397 . S
C2221 C2222 1.334 . S
C2222 H2193 0.950 . S
C2222 C2221 1.334 . S
C2222 C2223 1.287 . S
C2223 C2222 1.287 . S
C2223 C2224 1.524 . S
C2223 H2226 0.999 . S
C2224 H2194 0.950 . S
C2224 C2223 1.524 . S
C2224 C2225 1.415 . S
C2225 H2195 0.950 . S
C2225 C2220 1.363 . S
C2225 C2224 1.415 . S
H2226 C2223 0.999 . S
H2227 C2208 0.913 . S
H2228 C2246 0.951 . S
H2229 C2248 0.951 . S
H2230 C2250 0.950 . S
H2231 C2251 0.950 . S
H2232 C2253 0.950 . S
H2233 C2256 0.950 . S
H2234 C2257 0.950 . S
H2235 C2259 0.950 . S
H2236 C2260 0.950 . S
H2237 C2261 0.951 . S
H2238 C2263 0.951 . S
H2239 C2265 0.950 . S
H2240 C2266 0.950 . S
H2241 C2268 0.950 . S
H2242 C2271 0.950 . S
H2243 C2272 0.950 . S
H2244 C2274 0.950 . S
H2245 C2275 0.950 . S
C2246 H2228 0.951 . S
C2246 C2247 1.366 . S
C2246 C2248 1.388 . S
C2247 C2246 1.366 . S
C2247 C2251 1.385 . S
C2248 H2229 0.951 . S
C2248 C2246 1.388 . S
C2248 C2249 1.366 . S
C2249 C2248 1.366 . S
C2249 C2250 1.414 . S
C2249 C2252 1.499 . S
C2250 H2230 0.950 . S
C2250 C2249 1.414 . S
C2250 C2251 1.374 . S
C2251 H2231 0.950 . S
C2251 C2247 1.385 . S
C2251 C2250 1.374 . S
C2252 C2249 1.499 . S
C2252 C2253 1.373 . S
C2252 C2254 1.389 . S
C2253 H2232 0.950 . S
C2253 C2252 1.373 . S
C2253 C2269 1.377 . S
C2254 C2252 1.389 . S
C2254 C2255 1.524 . S
C2254 C2268 1.377 . S
C2255 C2254 1.524 . S
C2255 C2256 1.397 . S
C2255 C2260 1.363 . S
C2256 H2233 0.950 . S
C2256 C2255 1.397 . S
C2256 C2257 1.334 . S
C2257 H2234 0.950 . S
C2257 C2256 1.334 . S
C2257 C2258 1.287 . S
C2258 C2257 1.287 . S
C2258 C2259 1.524 . S
C2258 H2277 0.913 . S
C2259 H2235 0.950 . S
C2259 C2258 1.524 . S
C2259 C2260 1.415 . S
C2260 H2236 0.950 . S
C2260 C2255 1.363 . S
C2260 C2259 1.415 . S
C2261 H2237 0.951 . S
C2261 C2262 1.366 . S
C2261 C2263 1.388 . S
C2262 C2261 1.366 . S
C2262 C2266 1.385 . S
C2263 H2238 0.951 . S
C2263 C2261 1.388 . S
C2263 C2264 1.366 . S
C2264 C2263 1.366 . S
C2264 C2265 1.414 . S
C2264 C2267 1.499 . S
C2265 H2239 0.950 . S
C2265 C2264 1.414 . S
C2265 C2266 1.374 . S
C2266 H2240 0.950 . S
C2266 C2262 1.385 . S
C2266 C2265 1.374 . S
C2267 C2264 1.499 . S
C2267 C2268 1.373 . S
C2267 C2269 1.389 . S
C2268 H2241 0.950 . S
C2268 C2254 1.377 . S
C2268 C2267 1.373 . S
C2269 C2253 1.377 . S
C2269 C2267 1.389 . S
C2269 C2270 1.524 . S
C2270 C2269 1.524 . S
C2270 C2271 1.397 . S
C2270 C2275 1.363 . S
C2271 H2242 0.950 . S
C2271 C2270 1.397 . S
C2271 C2272 1.334 . S
C2272 H2243 0.950 . S
C2272 C2271 1.334 . S
C2272 C2273 1.287 . S
C2273 C2272 1.287 . S
C2273 C2274 1.524 . S
C2273 H2276 0.999 . S
C2274 H2244 0.950 . S
C2274 C2273 1.524 . S
C2274 C2275 1.415 . S
C2275 H2245 0.950 . S
C2275 C2270 1.363 . S
C2275 C2274 1.415 . S
H2276 C2273 0.999 . S
H2277 C2258 0.913 . S
H2278 C2296 0.951 . S
H2279 C2298 0.951 . S
H2280 C2300 0.950 . S
H2281 C2301 0.950 . S
H2282 C2303 0.950 . S
H2283 C2306 0.950 . S
H2284 C2307 0.950 . S
H2285 C2309 0.950 . S
H2286 C2310 0.950 . S
H2287 C2311 0.951 . S
H2288 C2313 0.951 . S
H2289 C2315 0.950 . S
H2290 C2316 0.950 . S
H2291 C2318 0.950 . S
H2292 C2321 0.950 . S
H2293 C2322 0.950 . S
H2294 C2324 0.950 . S
H2295 C2325 0.950 . S
C2296 H2278 0.951 . S
C2296 C2297 1.366 . S
C2296 C2298 1.388 . S
C2297 C2296 1.366 . S
C2297 C2301 1.385 . S
C2298 H2279 0.951 . S
C2298 C2296 1.388 . S
C2298 C2299 1.366 . S
C2299 C2298 1.366 . S
C2299 C2300 1.414 . S
C2299 C2302 1.499 . S
C2300 H2280 0.950 . S
C2300 C2299 1.414 . S
C2300 C2301 1.374 . S
C2301 H2281 0.950 . S
C2301 C2297 1.385 . S
C2301 C2300 1.374 . S
C2302 C2299 1.499 . S
C2302 C2303 1.373 . S
C2302 C2304 1.389 . S
C2303 H2282 0.950 . S
C2303 C2302 1.373 . S
C2303 C2319 1.377 . S
C2304 C2302 1.389 . S
C2304 C2305 1.524 . S
C2304 C2318 1.377 . S
C2305 C2304 1.524 . S
C2305 C2306 1.397 . S
C2305 C2310 1.363 . S
C2306 H2283 0.950 . S
C2306 C2305 1.397 . S
C2306 C2307 1.334 . S
C2307 H2284 0.950 . S
C2307 C2306 1.334 . S
C2307 C2308 1.287 . S
C2308 C2307 1.287 . S
C2308 C2309 1.524 . S
C2308 H2327 0.913 . S
C2309 H2285 0.950 . S
C2309 C2308 1.524 . S
C2309 C2310 1.415 . S
C2310 H2286 0.950 . S
C2310 C2305 1.363 . S
C2310 C2309 1.415 . S
C2311 H2287 0.951 . S
C2311 C2312 1.366 . S
C2311 C2313 1.388 . S
C2312 C2311 1.366 . S
C2312 C2316 1.385 . S
C2313 H2288 0.951 . S
C2313 C2311 1.388 . S
C2313 C2314 1.366 . S
C2314 C2313 1.366 . S
C2314 C2315 1.414 . S
C2314 C2317 1.499 . S
C2315 H2289 0.950 . S
C2315 C2314 1.414 . S
C2315 C2316 1.374 . S
C2316 H2290 0.950 . S
C2316 C2312 1.385 . S
C2316 C2315 1.374 . S
C2317 C2314 1.499 . S
C2317 C2318 1.373 . S
C2317 C2319 1.389 . S
C2318 H2291 0.950 . S
C2318 C2304 1.377 . S
C2318 C2317 1.373 . S
C2319 C2303 1.377 . S
C2319 C2317 1.389 . S
C2319 C2320 1.524 . S
C2320 C2319 1.524 . S
C2320 C2321 1.397 . S
C2320 C2325 1.363 . S
C2321 H2292 0.950 . S
C2321 C2320 1.397 . S
C2321 C2322 1.334 . S
C2322 H2293 0.950 . S
C2322 C2321 1.334 . S
C2322 C2323 1.287 . S
C2323 C2322 1.287 . S
C2323 C2324 1.524 . S
C2323 H2326 0.999 . S
C2324 H2294 0.950 . S
C2324 C2323 1.524 . S
C2324 C2325 1.415 . S
C2325 H2295 0.950 . S
C2325 C2320 1.363 . S
C2325 C2324 1.415 . S
H2326 C2323 0.999 . S
H2327 C2308 0.913 . S
H2328 C2346 0.951 . S
H2329 C2348 0.951 . S
H2330 C2350 0.950 . S
H2331 C2351 0.950 . S
H2332 C2353 0.950 . S
H2333 C2356 0.950 . S
H2334 C2357 0.950 . S
H2335 C2359 0.950 . S
H2336 C2360 0.950 . S
H2337 C2361 0.951 . S
H2338 C2363 0.951 . S
H2339 C2365 0.950 . S
H2340 C2366 0.950 . S
H2341 C2368 0.950 . S
H2342 C2371 0.950 . S
H2343 C2372 0.950 . S
H2344 C2374 0.950 . S
H2345 C2375 0.950 . S
C2346 H2328 0.951 . S
C2346 C2347 1.366 . S
C2346 C2348 1.388 . S
C2347 C2346 1.366 . S
C2347 C2351 1.385 . S
C2348 H2329 0.951 . S
C2348 C2346 1.388 . S
C2348 C2349 1.366 . S
C2349 C2348 1.366 . S
C2349 C2350 1.414 . S
C2349 C2352 1.499 . S
C2350 H2330 0.950 . S
C2350 C2349 1.414 . S
C2350 C2351 1.374 . S
C2351 H2331 0.950 . S
C2351 C2347 1.385 . S
C2351 C2350 1.374 . S
C2352 C2349 1.499 . S
C2352 C2353 1.373 . S
C2352 C2354 1.389 . S
C2353 H2332 0.950 . S
C2353 C2352 1.373 . S
C2353 C2369 1.377 . S
C2354 C2352 1.389 . S
C2354 C2355 1.524 . S
C2354 C2368 1.377 . S
C2355 C2354 1.524 . S
C2355 C2356 1.397 . S
C2355 C2360 1.363 . S
C2356 H2333 0.950 . S
C2356 C2355 1.397 . S
C2356 C2357 1.334 . S
C2357 H2334 0.950 . S
C2357 C2356 1.334 . S
C2357 C2358 1.287 . S
C2358 C2357 1.287 . S
C2358 C2359 1.524 . S
C2358 H2377 0.913 . S
C2359 H2335 0.950 . S
C2359 C2358 1.524 . S
C2359 C2360 1.415 . S
C2360 H2336 0.950 . S
C2360 C2355 1.363 . S
C2360 C2359 1.415 . S
C2361 H2337 0.951 . S
C2361 C2362 1.366 . S
C2361 C2363 1.388 . S
C2362 C2361 1.366 . S
C2362 C2366 1.385 . S
C2363 H2338 0.951 . S
C2363 C2361 1.388 . S
C2363 C2364 1.366 1_565 S
C2364 C2363 1.366 1_545 S
C2364 C2365 1.414 . S
C2364 C2367 1.499 . S
C2365 H2339 0.950 . S
C2365 C2364 1.414 . S
C2365 C2366 1.374 1_545 S
C2366 H2340 0.950 . S
C2366 C2362 1.385 . S
C2366 C2365 1.374 1_565 S
C2367 C2364 1.499 . S
C2367 C2368 1.373 . S
C2367 C2369 1.389 . S
C2368 H2341 0.950 . S
C2368 C2354 1.377 . S
C2368 C2367 1.373 . S
C2369 C2353 1.377 . S
C2369 C2367 1.389 . S
C2369 C2370 1.524 . S
C2370 C2369 1.524 . S
C2370 C2371 1.397 . S
C2370 C2375 1.363 . S
C2371 H2342 0.950 . S
C2371 C2370 1.397 . S
C2371 C2372 1.334 1_545 S
C2372 H2343 0.950 . S
C2372 C2371 1.334 1_565 S
C2372 C2373 1.287 . S
C2373 C2372 1.287 . S
C2373 C2374 1.524 . S
C2373 H2376 0.999 . S
C2374 H2344 0.950 . S
C2374 C2373 1.524 . S
C2374 C2375 1.415 1_565 S
C2375 H2345 0.950 . S
C2375 C2370 1.363 . S
C2375 C2374 1.415 1_545 S
H2376 C2373 0.999 . S
H2377 C2358 0.913 . S
H2378 C2396 0.951 . S
H2379 C2398 0.951 . S
H2380 C2400 0.950 . S
H2381 C2401 0.950 . S
H2382 C2403 0.950 . S
H2383 C2406 0.950 . S
H2384 C2407 0.950 . S
H2385 C2409 0.950 . S
H2386 C2410 0.950 . S
H2387 C2411 0.951 . S
H2388 C2413 0.951 . S
H2389 C2415 0.950 . S
H2390 C2416 0.950 . S
H2391 C2418 0.950 . S
H2392 C2421 0.950 . S
H2393 C2422 0.950 . S
H2394 C2424 0.950 . S
H2395 C2425 0.950 . S
C2396 H2378 0.951 . S
C2396 C2397 1.366 . S
C2396 C2398 1.388 . S
C2397 C2396 1.366 . S
C2397 C2401 1.385 . S
C2398 H2379 0.951 . S
C2398 C2396 1.388 . S
C2398 C2399 1.366 . S
C2399 C2398 1.366 . S
C2399 C2400 1.414 . S
C2399 C2402 1.499 . S
C2400 H2380 0.950 . S
C2400 C2399 1.414 . S
C2400 C2401 1.374 . S
C2401 H2381 0.950 . S
C2401 C2397 1.385 . S
C2401 C2400 1.374 . S
C2402 C2399 1.499 . S
C2402 C2403 1.373 . S
C2402 C2404 1.389 . S
C2403 H2382 0.950 . S
C2403 C2402 1.373 . S
C2403 C2419 1.377 . S
C2404 C2402 1.389 . S
C2404 C2405 1.524 . S
C2404 C2418 1.377 . S
C2405 C2404 1.524 . S
C2405 C2406 1.397 . S
C2405 C2410 1.363 . S
C2406 H2383 0.950 . S
C2406 C2405 1.397 . S
C2406 C2407 1.334 . S
C2407 H2384 0.950 . S
C2407 C2406 1.334 . S
C2407 C2408 1.287 . S
C2408 C2407 1.287 . S
C2408 C2409 1.524 . S
C2408 H2427 0.913 . S
C2409 H2385 0.950 . S
C2409 C2408 1.524 . S
C2409 C2410 1.415 . S
C2410 H2386 0.950 . S
C2410 C2405 1.363 . S
C2410 C2409 1.415 . S
C2411 H2387 0.951 . S
C2411 C2412 1.366 . S
C2411 C2413 1.388 1_655 S
C2412 C2411 1.366 . S
C2412 C2416 1.385 . S
C2413 H2388 0.951 . S
C2413 C2411 1.388 1_455 S
C2413 C2414 1.366 . S
C2414 C2413 1.366 . S
C2414 C2415 1.414 1_455 S
C2414 C2417 1.499 . S
C2415 H2389 0.950 . S
C2415 C2414 1.414 1_655 S
C2415 C2416 1.374 . S
C2416 H2390 0.950 . S
C2416 C2412 1.385 . S
C2416 C2415 1.374 . S
C2417 C2414 1.499 . S
C2417 C2418 1.373 . S
C2417 C2419 1.389 . S
C2418 H2391 0.950 . S
C2418 C2404 1.377 . S
C2418 C2417 1.373 . S
C2419 C2403 1.377 . S
C2419 C2417 1.389 . S
C2419 C2420 1.524 . S
C2420 C2419 1.524 . S
C2420 C2421 1.397 . S
C2420 C2425 1.363 . S
C2421 H2392 0.950 . S
C2421 C2420 1.397 . S
C2421 C2422 1.334 . S
C2422 H2393 0.950 . S
C2422 C2421 1.334 . S
C2422 C2423 1.287 . S
C2423 C2422 1.287 . S
C2423 C2424 1.524 . S
C2423 H2426 0.999 . S
C2424 H2394 0.950 . S
C2424 C2423 1.524 . S
C2424 C2425 1.415 . S
C2425 H2395 0.950 . S
C2425 C2420 1.363 . S
C2425 C2424 1.415 . S
H2426 C2423 0.999 . S
H2427 C2408 0.913 . S
H2428 C2446 0.951 . S
H2429 C2448 0.951 . S
H2430 C2450 0.950 . S
H2431 C2451 0.950 . S
H2432 C2453 0.950 . S
H2433 C2456 0.950 . S
H2434 C2457 0.950 . S
H2435 C2459 0.950 . S
H2436 C2460 0.950 . S
H2437 C2461 0.951 . S
H2438 C2463 0.951 . S
H2439 C2465 0.950 . S
H2440 C2466 0.950 . S
H2441 C2468 0.950 . S
H2442 C2471 0.950 . S
H2443 C2472 0.950 1_545 S
H2444 C2474 0.954 . S
H2445 C2475 0.950 . S
C2446 H2428 0.951 . S
C2446 C2447 1.366 . S
C2446 C2448 1.388 . S
C2447 C2446 1.366 . S
C2447 C2451 1.385 . S
C2448 H2429 0.951 . S
C2448 C2446 1.388 . S
C2448 C2449 1.366 . S
C2449 C2448 1.366 . S
C2449 C2450 1.414 . S
C2449 C2452 1.499 . S
C2450 H2430 0.950 . S
C2450 C2449 1.414 . S
C2450 C2451 1.374 . S
C2451 H2431 0.950 . S
C2451 C2447 1.385 . S
C2451 C2450 1.374 . S
C2452 C2449 1.499 . S
C2452 C2453 1.373 . S
C2452 C2454 1.389 . S
C2453 H2432 0.950 . S
C2453 C2452 1.373 . S
C2453 C2469 1.377 . S
C2454 C2452 1.389 . S
C2454 C2455 1.524 . S
C2454 C2468 1.377 . S
C2455 C2454 1.524 . S
C2455 C2456 1.397 . S
C2455 C2460 1.363 . S
C2456 H2433 0.950 . S
C2456 C2455 1.397 . S
C2456 C2457 1.334 . S
C2457 H2434 0.950 . S
C2457 C2456 1.334 . S
C2457 C2458 1.287 . S
C2458 C2457 1.287 . S
C2458 C2459 1.524 . S
C2458 H2477 0.913 . S
C2459 H2435 0.950 . S
C2459 C2458 1.524 . S
C2459 C2460 1.415 . S
C2460 H2436 0.950 . S
C2460 C2455 1.363 . S
C2460 C2459 1.415 . S
C2461 H2437 0.951 . S
C2461 C2462 1.366 . S
C2461 C2463 1.388 . S
C2462 C2461 1.366 . S
C2462 C2466 1.385 . S
C2463 H2438 0.951 . S
C2463 C2461 1.388 . S
C2463 C2464 1.366 1_545 S
C2464 C2463 1.366 1_565 S
C2464 C2465 1.414 . S
C2464 C2467 1.499 . S
C2465 H2439 0.950 . S
C2465 C2464 1.414 . S
C2465 C2466 1.374 1_565 S
C2466 H2440 0.950 . S
C2466 C2462 1.385 . S
C2466 C2465 1.374 1_545 S
C2467 C2464 1.499 . S
C2467 C2468 1.373 . S
C2467 C2469 1.389 . S
C2468 H2441 0.950 . S
C2468 C2454 1.377 . S
C2468 C2467 1.373 . S
C2469 C2453 1.377 . S
C2469 C2467 1.389 . S
C2469 C2470 1.524 . S
C2470 C2469 1.524 . S
C2470 C2471 1.397 . S
C2470 C2475 1.363 . S
C2471 H2442 0.950 . S
C2471 C2470 1.397 . S
C2471 C2472 1.334 . S
C2472 H2443 0.950 1_565 S
C2472 C2471 1.334 . S
C2472 C2473 1.287 1_565 S
C2473 C2472 1.287 1_545 S
C2473 C2474 1.524 1_545 S
C2473 H2476 0.999 . S
C2474 H2444 0.954 . S
C2474 C2473 1.524 1_565 S
C2474 C2475 1.415 . S
C2475 H2445 0.950 . S
C2475 C2470 1.363 . S
C2475 C2474 1.415 . S
H2476 C2473 0.999 . S
H2477 C2458 0.913 . S
H2478 C2496 0.951 . S
H2479 C2498 0.951 . S
H2480 C2500 0.950 1_655 S
H2481 C2501 0.950 . S
H2482 C2503 0.950 . S
H2483 C2506 0.950 . S
H2484 C2507 0.950 . S
H2485 C2509 0.950 . S
H2486 C2510 0.950 . S
H2487 C2511 0.951 . S
H2488 C2513 0.951 . S
H2489 C2515 0.950 . S
H2490 C2516 0.950 . S
H2491 C2518 0.950 . S
H2492 C2521 0.950 . S
H2493 C2522 0.950 . S
H2494 C2524 0.950 . S
H2495 C2525 0.950 . S
C2496 H2478 0.951 . S
C2496 C2497 1.366 . S
C2496 C2498 1.388 1_455 S
C2497 C2496 1.366 . S
C2497 C2501 1.385 . S
C2498 H2479 0.951 . S
C2498 C2496 1.388 1_655 S
C2498 C2499 1.366 . S
C2499 C2498 1.366 . S
C2499 C2500 1.414 1_655 S
C2499 C2502 1.499 . S
C2500 H2480 0.950 1_455 S
C2500 C2499 1.414 1_455 S
C2500 C2501 1.374 . S
C2501 H2481 0.950 . S
C2501 C2497 1.385 . S
C2501 C2500 1.374 . S
C2502 C2499 1.499 . S
C2502 C2503 1.373 . S
C2502 C2504 1.389 . S
C2503 H2482 0.950 . S
C2503 C2502 1.373 . S
C2503 C2519 1.377 . S
C2504 C2502 1.389 . S
C2504 C2505 1.524 . S
C2504 C2518 1.377 . S
C2505 C2504 1.524 . S
C2505 C2506 1.397 . S
C2505 C2510 1.363 . S
C2506 H2483 0.950 . S
C2506 C2505 1.397 . S
C2506 C2507 1.334 . S
C2507 H2484 0.950 . S
C2507 C2506 1.334 . S
C2507 C2508 1.287 . S
C2508 C2507 1.287 . S
C2508 C2509 1.524 . S
C2508 H2527 0.913 . S
C2509 H2485 0.950 . S
C2509 C2508 1.524 . S
C2509 C2510 1.415 . S
C2510 H2486 0.950 . S
C2510 C2505 1.363 . S
C2510 C2509 1.415 . S
C2511 H2487 0.951 . S
C2511 C2512 1.366 . S
C2511 C2513 1.388 . S
C2512 C2511 1.366 . S
C2512 C2516 1.385 . S
C2513 H2488 0.951 . S
C2513 C2511 1.388 . S
C2513 C2514 1.366 . S
C2514 C2513 1.366 . S
C2514 C2515 1.414 . S
C2514 C2517 1.499 . S
C2515 H2489 0.950 . S
C2515 C2514 1.414 . S
C2515 C2516 1.374 . S
C2516 H2490 0.950 . S
C2516 C2512 1.385 . S
C2516 C2515 1.374 . S
C2517 C2514 1.499 . S
C2517 C2518 1.373 . S
C2517 C2519 1.389 . S
C2518 H2491 0.950 . S
C2518 C2504 1.377 . S
C2518 C2517 1.373 . S
C2519 C2503 1.377 . S
C2519 C2517 1.389 . S
C2519 C2520 1.524 . S
C2520 C2519 1.524 . S
C2520 C2521 1.397 . S
C2520 C2525 1.363 . S
C2521 H2492 0.950 . S
C2521 C2520 1.397 . S
C2521 C2522 1.334 . S
C2522 H2493 0.950 . S
C2522 C2521 1.334 . S
C2522 C2523 1.287 . S
C2523 C2522 1.287 . S
C2523 C2524 1.524 . S
C2523 H2526 0.999 . S
C2524 H2494 0.950 . S
C2524 C2523 1.524 . S
C2524 C2525 1.415 . S
C2525 H2495 0.950 . S
C2525 C2520 1.363 . S
C2525 C2524 1.415 . S
H2526 C2523 0.999 . S
H2527 C2508 0.913 . S
C547 C7 0.671 . S
C562 C469 0.671 . S
C597 C502 0.671 . S
C612 C40 0.671 . S
C647 C403 0.671 . S
C662 C73 0.671 . S
C697 C106 0.671 . S
C712 C436 0.671 . S
C747 C139 0.671 . S
C762 C337 0.671 . S
C797 C370 0.671 . S
C812 C172 0.671 . S
C847 C205 0.671 . S
C862 C271 0.671 . S
C897 C304 0.671 . S
C912 C238 0.671 . S
C947 N145 1.375 . S
C962 N13 1.374 . S
C997 N46 1.374 . S
C1012 N178 1.375 . S
C1047 N79 1.374 . S
C1062 N211 1.374 . S
C1097 N112 1.374 . S
C1112 N244 1.374 . S
C1147 N409 1.374 . S
C1162 N277 1.374 . S
C1197 N442 1.375 . S
C1212 N310 1.374 . S
C1247 N343 1.374 . S
C1262 N475 1.374 . S
C1297 N376 1.374 . S
C1312 N508 1.374 . S
C1347 C21 1.507 . S
C1362 C483 1.506 . S
C1397 C516 1.507 . S
C1412 C54 1.507 . S
C1447 C87 1.507 . S
C1462 C417 1.507 . S
C1497 C450 1.507 . S
C1512 C120 1.507 . S
C1547 C351 1.506 . S
C1562 C153 1.507 . S
C1597 C384 1.507 . S
C1612 C186 1.507 . S
C1647 C219 1.507 . S
C1662 C285 1.506 . S
C1697 C252 1.507 . S
C1712 C318 1.506 . S
C1747 N2 1.496 . S
C1762 C381 1.574 . S
C1797 C282 1.574 . S
C1812 N35 1.496 . S
C1847 N68 1.496 . S
C1862 C315 1.574 . S
C1897 C348 1.574 . S
C1912 N101 1.495 . S
C1947 C183 1.574 . S
C1962 N134 1.495 . S
C1997 C216 1.574 . S
C2012 N167 1.496 . S
C2047 N200 1.496 . S
C2062 C249 1.574 . S
C2097 C150 1.574 . S
C2112 N233 1.495 . S
C2147 C117 1.574 . S
C2162 N266 1.497 . S
C2197 N299 1.496 . S
C2212 C18 1.574 . S
C2247 N332 1.496 . S
C2262 C51 1.574 . S
C2297 C84 1.574 . S
C2312 N365 1.497 . S
C2347 C447 1.574 . S
C2362 N398 1.496 . S
C2397 C480 1.574 . S
C2412 N431 1.495 . S
C2447 C513 1.574 . S
C2462 N464 1.496 . S
C2497 N497 1.495 . S
C2512 C414 1.574 . S
