# Generated by pormake.
# Topology whk, (6)-cn, num edge types: 1
# Building blocks:
#     Node 0, Type 0, BuildingBlock: UKALOJ_clean_sbu_0, # of connection points: 6
#     Node 1, Type 0, BuildingBlock: UKALOJ_clean_sbu_0, # of connection points: 6
#     Node 2, Type 0, BuildingBlock: UKALOJ_clean_sbu_0, # of connection points: 6
#     Node 3, Type 0, BuildingBlock: UKALOJ_clean_sbu_0, # of connection points: 6
#     Node 4, Type 0, BuildingBlock: UKALOJ_clean_sbu_0, # of connection points: 6
#     Node 5, Type 0, BuildingBlock: UKALOJ_clean_sbu_0, # of connection points: 6
#     Node 6, Type 0, BuildingBlock: UKALOJ_clean_sbu_0, # of connection points: 6
#     Node 7, Type 0, BuildingBlock: UKALOJ_clean_sbu_0, # of connection points: 6
#     Node 8, Type 0, BuildingBlock: UKALOJ_clean_sbu_0, # of connection points: 6
#     Node 9, Type 0, BuildingBlock: UKALOJ_clean_sbu_0, # of connection points: 6
#     Node 10, Type 0, BuildingBlock: UKALOJ_clean_sbu_0, # of connection points: 6
#     Node 11, Type 0, BuildingBlock: UKALOJ_clean_sbu_0, # of connection points: 6
#     Node 12, Type 0, BuildingBlock: UKALOJ_clean_sbu_0, # of connection points: 6
#     Node 13, Type 0, BuildingBlock: UKALOJ_clean_sbu_0, # of connection points: 6
#     Node 14, Type 0, BuildingBlock: UKALOJ_clean_sbu_0, # of connection points: 6
#     Node 15, Type 0, BuildingBlock: UKALOJ_clean_sbu_0, # of connection points: 6
#     Edge 16, Type (0, 0), BuildingBlock: OJICUG_clean_linker_0, # of connection points: 2
#     Edge 17, Type (0, 0), BuildingBlock: OJICUG_clean_linker_0, # of connection points: 2
#     Edge 18, Type (0, 0), BuildingBlock: OJICUG_clean_linker_0, # of connection points: 2
#     Edge 19, Type (0, 0), BuildingBlock: OJICUG_clean_linker_0, # of connection points: 2
#     Edge 20, Type (0, 0), BuildingBlock: OJICUG_clean_linker_0, # of connection points: 2
#     Edge 21, Type (0, 0), BuildingBlock: OJICUG_clean_linker_0, # of connection points: 2
#     Edge 22, Type (0, 0), BuildingBlock: OJICUG_clean_linker_0, # of connection points: 2
#     Edge 23, Type (0, 0), BuildingBlock: OJICUG_clean_linker_0, # of connection points: 2
#     Edge 24, Type (0, 0), BuildingBlock: OJICUG_clean_linker_0, # of connection points: 2
#     Edge 25, Type (0, 0), BuildingBlock: OJICUG_clean_linker_0, # of connection points: 2
#     Edge 26, Type (0, 0), BuildingBlock: OJICUG_clean_linker_0, # of connection points: 2
#     Edge 27, Type (0, 0), BuildingBlock: OJICUG_clean_linker_0, # of connection points: 2
#     Edge 28, Type (0, 0), BuildingBlock: OJICUG_clean_linker_0, # of connection points: 2
#     Edge 29, Type (0, 0), BuildingBlock: OJICUG_clean_linker_0, # of connection points: 2
#     Edge 30, Type (0, 0), BuildingBlock: OJICUG_clean_linker_0, # of connection points: 2
#     Edge 31, Type (0, 0), BuildingBlock: OJICUG_clean_linker_0, # of connection points: 2
#     Edge 32, Type (0, 0), BuildingBlock: OJICUG_clean_linker_0, # of connection points: 2
#     Edge 33, Type (0, 0), BuildingBlock: OJICUG_clean_linker_0, # of connection points: 2
#     Edge 34, Type (0, 0), BuildingBlock: OJICUG_clean_linker_0, # of connection points: 2
#     Edge 35, Type (0, 0), BuildingBlock: OJICUG_clean_linker_0, # of connection points: 2
#     Edge 36, Type (0, 0), BuildingBlock: OJICUG_clean_linker_0, # of connection points: 2
#     Edge 37, Type (0, 0), BuildingBlock: OJICUG_clean_linker_0, # of connection points: 2
#     Edge 38, Type (0, 0), BuildingBlock: OJICUG_clean_linker_0, # of connection points: 2
#     Edge 39, Type (0, 0), BuildingBlock: OJICUG_clean_linker_0, # of connection points: 2
#     Edge 40, Type (0, 0), BuildingBlock: OJICUG_clean_linker_0, # of connection points: 2
#     Edge 41, Type (0, 0), BuildingBlock: OJICUG_clean_linker_0, # of connection points: 2
#     Edge 42, Type (0, 0), BuildingBlock: OJICUG_clean_linker_0, # of connection points: 2
#     Edge 43, Type (0, 0), BuildingBlock: OJICUG_clean_linker_0, # of connection points: 2
#     Edge 44, Type (0, 0), BuildingBlock: OJICUG_clean_linker_0, # of connection points: 2
#     Edge 45, Type (0, 0), BuildingBlock: OJICUG_clean_linker_0, # of connection points: 2
#     Edge 46, Type (0, 0), BuildingBlock: OJICUG_clean_linker_0, # of connection points: 2
#     Edge 47, Type (0, 0), BuildingBlock: OJICUG_clean_linker_0, # of connection points: 2
#     Edge 48, Type (0, 0), BuildingBlock: OJICUG_clean_linker_0, # of connection points: 2
#     Edge 49, Type (0, 0), BuildingBlock: OJICUG_clean_linker_0, # of connection points: 2
#     Edge 50, Type (0, 0), BuildingBlock: OJICUG_clean_linker_0, # of connection points: 2
#     Edge 51, Type (0, 0), BuildingBlock: OJICUG_clean_linker_0, # of connection points: 2
#     Edge 52, Type (0, 0), BuildingBlock: OJICUG_clean_linker_0, # of connection points: 2
#     Edge 53, Type (0, 0), BuildingBlock: OJICUG_clean_linker_0, # of connection points: 2
#     Edge 54, Type (0, 0), BuildingBlock: OJICUG_clean_linker_0, # of connection points: 2
#     Edge 55, Type (0, 0), BuildingBlock: OJICUG_clean_linker_0, # of connection points: 2
#     Edge 56, Type (0, 0), BuildingBlock: OJICUG_clean_linker_0, # of connection points: 2
#     Edge 57, Type (0, 0), BuildingBlock: OJICUG_clean_linker_0, # of connection points: 2
#     Edge 58, Type (0, 0), BuildingBlock: OJICUG_clean_linker_0, # of connection points: 2
#     Edge 59, Type (0, 0), BuildingBlock: OJICUG_clean_linker_0, # of connection points: 2
#     Edge 60, Type (0, 0), BuildingBlock: OJICUG_clean_linker_0, # of connection points: 2
#     Edge 61, Type (0, 0), BuildingBlock: OJICUG_clean_linker_0, # of connection points: 2
#     Edge 62, Type (0, 0), BuildingBlock: OJICUG_clean_linker_0, # of connection points: 2
#     Edge 63, Type (0, 0), BuildingBlock: OJICUG_clean_linker_0, # of connection points: 2
# Relax obj value: 0.444
# Max RMSD: 0.279
# Mean RMSD: 0.279
data_MOF--net-whk--node1-UKALOJ_clean_sbu_0--edge1-OJICUG_clean_linker_0
_symmetry_space_group_name_H-M    P1
_symmetry_Int_Tables_number       1
_symmetry_cell_setting            triclinic
loop_
_symmetry_equiv_pos_as_xyz
'x, y, z'
_cell_length_a     28.878258
_cell_length_b     28.886926
_cell_length_c     39.990299
_cell_angle_alpha  90.007522
_cell_angle_beta   89.985326
_cell_angle_gamma 89.924292
loop_
_atom_site_label
_atom_site_type_symbol
_atom_site_fract_x
_atom_site_fract_y
_atom_site_fract_z
_atom_type_partial_charge
Zn0 Zn 0.55643 0.21044 0.37361 0.0
O1 O 0.57324 0.18494 0.32641 0.0
C2 C 0.48744 0.13333 0.37882 0.0
Zn3 Zn 0.58582 0.14736 0.39779 0.0
C4 C 0.59404 0.14643 0.32297 0.0
O5 O 0.60484 0.12279 0.34883 0.0
C6 C 0.54747 0.21419 0.4478 0.0
O7 O 0.64951 0.18077 0.40222 0.0
O8 O 0.62407 0.24283 0.37668 0.0
N9 N 0.61346 0.091 0.42188 0.0
C10 C 0.65804 0.07762 0.42523 0.0
C11 C 0.6205 0.04841 0.46576 0.0
N12 N 0.59011 0.07216 0.44685 0.0
N13 N 0.6637 0.05166 0.4531 0.0
C14 C 0.48972 0.29331 0.36164 0.0
C15 C 0.53017 0.33734 0.33053 0.0
N16 N 0.52879 0.26991 0.35371 0.0
N17 N 0.55364 0.29726 0.33412 0.0
N18 N 0.48982 0.33564 0.34742 0.0
H19 H 0.42063 0.27056 0.37142 0.0
H20 H 0.44585 0.30399 0.4044 0.0
H21 H 0.46272 0.24443 0.39834 0.0
C22 C 0.45312 0.2768 0.38549 0.0
C23 C 0.69464 0.08526 0.39922 0.0
H24 H 0.67894 0.08633 0.37396 0.0
H25 H 0.72093 0.05723 0.40029 0.0
H26 H 0.71243 0.11846 0.40349 0.0
O27 O 0.5661 0.17432 0.44619 0.0
O28 O 0.54016 0.23619 0.42098 0.0
C29 C 0.6572 0.22072 0.39049 0.0
O30 O 0.4912 0.17533 0.36954 0.0
O31 O 0.52181 0.11345 0.39258 0.0
Zn32 Zn 0.35485 0.59058 0.39085 0.0
O33 O 0.31807 0.65188 0.39006 0.0
C34 C 0.28897 0.55412 0.4417 0.0
Zn35 Zn 0.29366 0.55713 0.36669 0.0
C36 C 0.27854 0.65754 0.37736 0.0
O37 O 0.25727 0.62302 0.36495 0.0
C38 C 0.37463 0.49242 0.37737 0.0
O39 O 0.3195 0.5703 0.319 0.0
O40 O 0.37936 0.60609 0.3412 0.0
N41 N 0.23654 0.52444 0.34738 0.0
C42 C 0.2138 0.48608 0.35756 0.0
C43 C 0.17021 0.52082 0.3227 0.0
N44 N 0.20952 0.54564 0.32542 0.0
N45 N 0.17215 0.48312 0.34249 0.0
C46 C 0.40588 0.66184 0.43513 0.0
C47 C 0.47741 0.6504 0.42511 0.0
N48 N 0.40845 0.62684 0.41274 0.0
N49 N 0.453 0.61985 0.4065 0.0
N50 N 0.44841 0.67771 0.44269 0.0
H51 H 0.33346 0.65444 0.44996 0.0
H52 H 0.35148 0.71191 0.43916 0.0
H53 H 0.36853 0.68695 0.47829 0.0
C54 C 0.36225 0.67923 0.45149 0.0
C55 C 0.22997 0.45357 0.38438 0.0
H56 H 0.2336 0.41834 0.37366 0.0
H57 H 0.20346 0.45161 0.40442 0.0
H58 H 0.26354 0.46382 0.39521 0.0
O59 O 0.33287 0.49392 0.36704 0.0
O60 O 0.39284 0.52857 0.3899 0.0
C61 C 0.35706 0.59258 0.31539 0.0
O62 O 0.32826 0.57368 0.43973 0.0
O63 O 0.26747 0.54428 0.41502 0.0
Zn64 Zn 0.9474 0.29548 0.37393 0.0
O65 O 0.93002 0.32026 0.3263 0.0
C66 C 0.0149 0.37378 0.38017 0.0
Zn67 Zn 0.9159 0.35886 0.39641 0.0
C68 C 0.9105 0.35932 0.32207 0.0
O69 O 0.90006 0.3841 0.34744 0.0
C70 C 0.95345 0.2929 0.4479 0.0
O71 O 0.85277 0.32522 0.3974 0.0
O72 O 0.881 0.26064 0.37711 0.0
N73 N 0.88594 0.41449 0.42013 0.0
C74 C 0.84073 0.42394 0.42558 0.0
C75 C 0.87929 0.45908 0.46303 0.0
N76 N 0.90982 0.43696 0.4432 0.0
N77 N 0.83546 0.45106 0.4529 0.0
C78 C 0.01543 0.21344 0.36238 0.0
C79 C 0.97727 0.17083 0.32882 0.0
N80 N 0.97664 0.23691 0.35396 0.0
N81 N 0.95326 0.2105 0.33282 0.0
N82 N 0.01656 0.17196 0.34695 0.0
H83 H 0.08508 0.22939 0.37667 0.0
H84 H 0.051 0.20307 0.40878 0.0
H85 H 0.04248 0.26332 0.39823 0.0
C86 C 0.05009 0.22864 0.38808 0.0
C87 C 0.80227 0.41058 0.40228 0.0
H88 H 0.81569 0.40634 0.37645 0.0
H89 H 0.7747 0.43739 0.40258 0.0
H90 H 0.78655 0.37742 0.41021 0.0
O91 O 0.93195 0.3312 0.44537 0.0
O92 O 0.96442 0.27118 0.42158 0.0
C93 C 0.84663 0.28415 0.38764 0.0
O94 O 0.01139 0.33215 0.37005 0.0
O95 O 0.98022 0.3932 0.39394 0.0
Zn96 Zn 0.14975 0.91625 0.39007 0.0
O97 O 0.18707 0.85513 0.39009 0.0
C98 C 0.21728 0.95327 0.43932 0.0
Zn99 Zn 0.2106 0.94859 0.3647 0.0
C100 C 0.22584 0.84871 0.37633 0.0
O101 O 0.24649 0.88256 0.36246 0.0
C102 C 0.12999 0.01386 0.37604 0.0
O103 O 0.18323 0.93555 0.31771 0.0
O104 O 0.12447 0.89893 0.34082 0.0
N105 N 0.26724 0.98156 0.34468 0.0
C106 C 0.28971 0.02021 0.35467 0.0
C107 C 0.33319 0.98591 0.31952 0.0
N108 N 0.2942 0.96062 0.32254 0.0
N109 N 0.3311 0.02367 0.33927 0.0
C110 C 0.09974 0.84603 0.43611 0.0
C111 C 0.02802 0.85656 0.4263 0.0
N112 N 0.09668 0.88035 0.41321 0.0
N113 N 0.052 0.8868 0.40714 0.0
N114 N 0.05739 0.83004 0.44418 0.0
H115 H 0.17202 0.85471 0.45068 0.0
H116 H 0.15488 0.79683 0.43998 0.0
H117 H 0.13764 0.82152 0.47916 0.0
C118 C 0.14368 0.82934 0.45234 0.0
C119 C 0.27356 0.0527 0.38156 0.0
H120 H 0.26815 0.08751 0.37053 0.0
H121 H 0.3008 0.05613 0.40097 0.0
H122 H 0.24093 0.04155 0.39336 0.0
O123 O 0.17171 0.01201 0.36568 0.0
O124 O 0.11145 0.97786 0.38852 0.0
C125 C 0.14594 0.91267 0.31468 0.0
O126 O 0.17715 0.93529 0.4382 0.0
O127 O 0.2385 0.96102 0.41221 0.0
Zn128 Zn 0.05693 0.79466 0.12928 0.0
O129 O 0.07381 0.81944 0.17701 0.0
C130 C 0.98895 0.87275 0.12281 0.0
Zn131 Zn 0.08804 0.85799 0.10661 0.0
C132 C 0.09321 0.85853 0.18105 0.0
O133 O 0.10357 0.88308 0.15558 0.0
C134 C 0.05115 0.79209 0.05512 0.0
O135 O 0.15139 0.8245 0.10559 0.0
O136 O 0.12359 0.76014 0.12639 0.0
N137 N 0.11792 0.91375 0.08324 0.0
C138 C 0.16318 0.92361 0.07854 0.0
C139 C 0.12537 0.95853 0.04054 0.0
N140 N 0.09449 0.93609 0.05984 0.0
N141 N 0.16896 0.95087 0.05137 0.0
C142 C 0.98952 0.71224 0.14044 0.0
C143 C 0.0283 0.66929 0.17349 0.0
N144 N 0.0281 0.73585 0.14901 0.0
N145 N 0.05187 0.70922 0.16981 0.0
N146 N 0.98893 0.67043 0.15544 0.0
H147 H 0.91988 0.72956 0.12701 0.0
H148 H 0.95244 0.70184 0.09463 0.0
H149 H 0.96248 0.76207 0.1045 0.0
C150 C 0.95449 0.72774 0.11508 0.0
C151 C 0.20112 0.91037 0.10235 0.0
H152 H 0.18705 0.90585 0.12796 0.0
H153 H 0.22841 0.9374 0.10255 0.0
H154 H 0.21744 0.8774 0.09455 0.0
O155 O 0.07226 0.83054 0.0576 0.0
O156 O 0.04044 0.77033 0.08147 0.0
C157 C 0.15778 0.78361 0.11565 0.0
O158 O 0.99262 0.83112 0.13296 0.0
O159 O 0.02357 0.8922 0.10907 0.0
Zn160 Zn 0.71008 0.05705 0.13739 0.0
O161 O 0.68464 0.07034 0.18533 0.0
C162 C 0.62907 0.99251 0.12702 0.0
Zn163 Zn 0.64845 0.09083 0.11381 0.0
C164 C 0.64692 0.09243 0.18915 0.0
O165 O 0.62423 0.10581 0.16349 0.0
C166 C 0.71408 0.0549 0.06244 0.0
O167 O 0.68506 0.15211 0.11484 0.0
O168 O 0.74658 0.12272 0.13885 0.0
N169 N 0.59448 0.12719 0.09226 0.0
C170 C 0.59665 0.16259 0.0702 0.0
C171 C 0.52524 0.1502 0.07996 0.0
N172 N 0.54999 0.11961 0.09834 0.0
N173 N 0.55392 0.17811 0.06267 0.0
C174 C 0.79009 0.98575 0.1458 0.0
C175 C 0.83368 0.01966 0.18102 0.0
N176 N 0.76738 0.02401 0.15634 0.0
N177 N 0.7944 0.0447 0.17852 0.0
N178 N 0.8317 0.98232 0.16088 0.0
H179 H 0.77215 0.91811 0.12836 0.0
H180 H 0.79984 0.95393 0.09794 0.0
H181 H 0.73972 0.96357 0.10861 0.0
C182 C 0.77405 0.95395 0.11852 0.0
C183 C 0.6401 0.18069 0.05408 0.0
H184 H 0.6508 0.21291 0.06703 0.0
H185 H 0.63371 0.18937 0.02745 0.0
H186 H 0.66896 0.15582 0.05508 0.0
O187 O 0.67489 0.07469 0.06482 0.0
O188 O 0.73577 0.04425 0.08888 0.0
C189 C 0.72498 0.15745 0.12696 0.0
O190 O 0.67087 0.994 0.13722 0.0
O191 O 0.61069 0.02868 0.11456 0.0
Zn192 Zn 0.41899 0.64764 0.10683 0.0
O193 O 0.35559 0.68152 0.10213 0.0
C194 C 0.45796 0.71433 0.05723 0.0
Zn195 Zn 0.44826 0.71053 0.13131 0.0
C196 C 0.3477 0.72135 0.11404 0.0
O197 O 0.3806 0.74322 0.12825 0.0
C198 C 0.51722 0.63315 0.12587 0.0
O199 O 0.43135 0.6849 0.17836 0.0
O200 O 0.39946 0.62308 0.15575 0.0
N201 N 0.47591 0.76987 0.15136 0.0
C202 C 0.51493 0.79326 0.14342 0.0
C203 C 0.47431 0.83738 0.17445 0.0
N204 N 0.45097 0.79727 0.1709 0.0
N205 N 0.51467 0.83566 0.15756 0.0
C206 C 0.34652 0.57916 0.07823 0.0
C207 C 0.38486 0.54913 0.03836 0.0
N208 N 0.39122 0.59161 0.08236 0.0
N209 N 0.41503 0.57229 0.05779 0.0
N210 N 0.34132 0.55328 0.05026 0.0
H211 H 0.32429 0.58966 0.12906 0.0
H212 H 0.28314 0.55945 0.10269 0.0
H213 H 0.29134 0.62056 0.09848 0.0
C214 C 0.30924 0.5876 0.10362 0.0
C215 C 0.55164 0.77667 0.11964 0.0
H216 H 0.58406 0.77037 0.13379 0.0
H217 H 0.55898 0.80383 0.10076 0.0
H218 H 0.54213 0.74431 0.10679 0.0
O219 O 0.51349 0.67513 0.13526 0.0
O220 O 0.48279 0.61336 0.11219 0.0
C221 C 0.41036 0.64653 0.18169 0.0
O222 O 0.43936 0.67449 0.05865 0.0
O223 O 0.46471 0.73636 0.08411 0.0
Zn224 Zn 0.79528 0.44796 0.13674 0.0
O225 O 0.82165 0.4344 0.18413 0.0
C226 C 0.87614 0.51234 0.1259 0.0
Zn227 Zn 0.85646 0.41426 0.11244 0.0
C228 C 0.85911 0.41184 0.18773 0.0
O229 O 0.88133 0.39809 0.16193 0.0
C230 C 0.79029 0.45166 0.06202 0.0
O231 O 0.8193 0.3532 0.1131 0.0
O232 O 0.75873 0.38238 0.13849 0.0
N233 N 0.90976 0.37783 0.08996 0.0
C234 C 0.90687 0.34308 0.06739 0.0
C235 C 0.97854 0.35422 0.07689 0.0
N236 N 0.95441 0.38463 0.09586 0.0
N237 N 0.94929 0.32719 0.05936 0.0
C238 C 0.71591 0.51976 0.1469 0.0
C239 C 0.67333 0.48575 0.18271 0.0
N240 N 0.73862 0.4811 0.15667 0.0
N241 N 0.71224 0.46037 0.17923 0.0
N242 N 0.67493 0.52341 0.16286 0.0
H243 H 0.73468 0.58741 0.13003 0.0
H244 H 0.70454 0.55326 0.09983 0.0
H245 H 0.76489 0.54178 0.10869 0.0
C246 C 0.73135 0.55194 0.11968 0.0
C247 C 0.863 0.32598 0.05131 0.0
H248 H 0.83434 0.351 0.05307 0.0
H249 H 0.85226 0.29337 0.06371 0.0
H250 H 0.86892 0.31825 0.02447 0.0
O251 O 0.82953 0.43186 0.06384 0.0
O252 O 0.76875 0.46127 0.08873 0.0
C253 C 0.77977 0.34778 0.12588 0.0
O254 O 0.83442 0.51078 0.13624 0.0
O255 O 0.89462 0.47618 0.11349 0.0
Zn256 Zn 0.44851 0.79534 0.63223 0.0
O257 O 0.43254 0.82189 0.67947 0.0
C258 C 0.51445 0.87557 0.62282 0.0
Zn259 Zn 0.41593 0.85773 0.6091 0.0
C260 C 0.41251 0.86075 0.68324 0.0
O261 O 0.40102 0.88447 0.65763 0.0
C262 C 0.45332 0.78994 0.5585 0.0
O263 O 0.35315 0.82291 0.61144 0.0
O264 O 0.38291 0.75889 0.63134 0.0
N265 N 0.38098 0.91107 0.58582 0.0
C266 C 0.34584 0.90806 0.5636 0.0
C267 C 0.35927 0.97978 0.57113 0.0
N268 N 0.38922 0.95573 0.59052 0.0
N269 N 0.33113 0.95049 0.55458 0.0
C270 C 0.51785 0.71448 0.64377 0.0
C271 C 0.48059 0.67211 0.67803 0.0
N272 N 0.47951 0.73819 0.6529 0.0
N273 N 0.45673 0.71194 0.67448 0.0
N274 N 0.51919 0.67293 0.65912 0.0
H275 H 0.58689 0.73172 0.62897 0.0
H276 H 0.55349 0.70344 0.59741 0.0
H277 H 0.54332 0.76382 0.60697 0.0
C278 C 0.5519 0.72966 0.61765 0.0
C279 C 0.32726 0.86389 0.54879 0.0
H280 H 0.29495 0.85422 0.56207 0.0
H281 H 0.31863 0.86881 0.52199 0.0
H282 H 0.35183 0.83484 0.55066 0.0
O283 O 0.43267 0.82876 0.56064 0.0
O284 O 0.46399 0.7688 0.58509 0.0
C285 C 0.34784 0.78199 0.62168 0.0
O286 O 0.51191 0.83414 0.6337 0.0
O287 O 0.47903 0.89407 0.60933 0.0
Zn288 Zn 0.64581 0.4143 0.6145 0.0
O289 O 0.68065 0.35186 0.61779 0.0
C290 C 0.71105 0.45044 0.56183 0.0
Zn291 Zn 0.7091 0.44758 0.63573 0.0
C292 C 0.72247 0.34688 0.62607 0.0
O293 O 0.74639 0.38228 0.63385 0.0
C294 C 0.62847 0.51305 0.62704 0.0
O295 O 0.68508 0.43155 0.68404 0.0
O296 O 0.62074 0.40178 0.66378 0.0
N297 N 0.76655 0.47993 0.65495 0.0
C298 C 0.78921 0.51846 0.645 0.0
C299 C 0.83209 0.48439 0.68063 0.0
N300 N 0.79311 0.45914 0.67739 0.0
N301 N 0.83031 0.522 0.66075 0.0
C302 C 0.594 0.3423 0.57134 0.0
C303 C 0.52253 0.35687 0.57919 0.0
N304 N 0.59168 0.37836 0.59286 0.0
N305 N 0.54715 0.38728 0.59776 0.0
N306 N 0.55127 0.32772 0.56295 0.0
H307 H 0.64742 0.2908 0.57023 0.0
H308 H 0.63238 0.31332 0.52987 0.0
H309 H 0.66707 0.34701 0.55767 0.0
C310 C 0.63778 0.32275 0.55648 0.0
C311 C 0.77387 0.55018 0.61746 0.0
H312 H 0.77663 0.58666 0.62586 0.0
H313 H 0.79742 0.5459 0.59575 0.0
H314 H 0.73785 0.54357 0.60959 0.0
O315 O 0.66988 0.5102 0.63784 0.0
O316 O 0.60955 0.47769 0.61382 0.0
C317 C 0.6459 0.41261 0.68881 0.0
O318 O 0.67332 0.42828 0.56517 0.0
O319 O 0.73274 0.46329 0.58768 0.0
Zn320 Zn 0.0872 0.64614 0.6085 0.0
O321 O 0.15103 0.67939 0.60549 0.0
C322 C 0.05087 0.71455 0.55864 0.0
Zn323 Zn 0.05711 0.70876 0.63284 0.0
C324 C 0.15848 0.71906 0.61781 0.0
O325 O 0.12504 0.741 0.63141 0.0
C326 C 0.98811 0.63206 0.6254 0.0
O327 O 0.07224 0.682 0.67991 0.0
O328 O 0.10489 0.62023 0.65763 0.0
N329 N 0.02853 0.76748 0.65313 0.0
C330 C 0.98946 0.79066 0.64488 0.0
C331 C 0.028 0.83395 0.67773 0.0
N332 N 0.05218 0.79434 0.67381 0.0
N333 N 0.98833 0.83233 0.66003 0.0
C334 C 0.15913 0.57804 0.57843 0.0
C335 C 0.11933 0.54839 0.53921 0.0
N336 N 0.11457 0.59027 0.58362 0.0
N337 N 0.08987 0.57116 0.55945 0.0
N338 N 0.16333 0.55256 0.55016 0.0
H339 H 0.18267 0.58831 0.62895 0.0
H340 H 0.22259 0.55693 0.60212 0.0
H341 H 0.21563 0.61817 0.59785 0.0
C342 C 0.19714 0.58571 0.60332 0.0
C343 C 0.95412 0.77484 0.61982 0.0
H344 H 0.92087 0.76842 0.63291 0.0
H345 H 0.94793 0.80256 0.60113 0.0
H346 H 0.96427 0.74283 0.60674 0.0
O347 O 0.99169 0.67379 0.63529 0.0
O348 O 0.02295 0.61238 0.61217 0.0
C349 C 0.09308 0.64354 0.68348 0.0
O350 O 0.06915 0.67453 0.56019 0.0
O351 O 0.04258 0.736 0.58555 0.0
Zn352 Zn 0.85981 0.08764 0.60887 0.0
O353 O 0.82677 0.1514 0.60619 0.0
C354 C 0.79406 0.05088 0.55777 0.0
Zn355 Zn 0.79717 0.0562 0.63237 0.0
C356 C 0.78654 0.1581 0.61778 0.0
O357 O 0.76442 0.12401 0.63027 0.0
C358 C 0.87459 0.98832 0.62576 0.0
O359 O 0.82174 0.07166 0.68013 0.0
O360 O 0.884 0.10405 0.6585 0.0
N361 N 0.7373 0.02769 0.65117 0.0
C362 C 0.71405 0.98901 0.6422 0.0
C363 C 0.66924 0.02846 0.67348 0.0
N364 N 0.70944 0.05189 0.67086 0.0
N365 N 0.67132 0.98876 0.65585 0.0
C366 C 0.92937 0.16027 0.58218 0.0
C367 C 0.96001 0.12258 0.54225 0.0
N368 N 0.91655 0.11563 0.58568 0.0
N369 N 0.9363 0.09218 0.5611 0.0
N370 N 0.95585 0.16589 0.55455 0.0
H371 H 0.91816 0.18113 0.63323 0.0
H372 H 0.94975 0.22248 0.6078 0.0
H373 H 0.88862 0.2156 0.60283 0.0
C374 C 0.92108 0.19691 0.60804 0.0
C375 C 0.73105 0.9533 0.61782 0.0
H376 H 0.73584 0.91995 0.63111 0.0
H377 H 0.70466 0.94773 0.59806 0.0
H378 H 0.76427 0.9628 0.60612 0.0
O379 O 0.83274 0.99117 0.6356 0.0
O380 O 0.89359 0.02337 0.61237 0.0
C381 C 0.86014 0.09241 0.68409 0.0
O382 O 0.83306 0.07106 0.55978 0.0
O383 O 0.77253 0.04107 0.58438 0.0
Zn384 Zn 0.94866 0.20943 0.86978 0.0
O385 O 0.93199 0.18309 0.82252 0.0
C386 C 0.01628 0.13083 0.87739 0.0
Zn387 Zn 0.91726 0.14655 0.89309 0.0
C388 C 0.91173 0.14438 0.81864 0.0
O389 O 0.90056 0.12038 0.84426 0.0
C390 C 0.95453 0.21435 0.9436 0.0
O391 O 0.8543 0.18088 0.89411 0.0
O392 O 0.88215 0.24441 0.87195 0.0
N393 N 0.8874 0.09177 0.91808 0.0
C394 C 0.84239 0.083 0.92489 0.0
C395 C 0.88262 0.04777 0.96143 0.0
N396 N 0.91225 0.06928 0.94063 0.0
N397 N 0.83832 0.05624 0.95256 0.0
C398 C 0.01762 0.29021 0.8578 0.0
C399 C 0.98007 0.33335 0.8242 0.0
N400 N 0.9786 0.26725 0.84928 0.0
N401 N 0.9556 0.29399 0.82811 0.0
N402 N 0.01931 0.33168 0.8424 0.0
H403 H 0.08663 0.27097 0.87142 0.0
H404 H 0.05544 0.30121 0.90327 0.0
H405 H 0.0431 0.24106 0.89492 0.0
C406 C 0.0522 0.27453 0.88345 0.0
C407 C 0.803 0.0965 0.90245 0.0
H408 H 0.8152 0.09973 0.87623 0.0
H409 H 0.77498 0.07029 0.90383 0.0
H410 H 0.7884 0.13027 0.91028 0.0
O411 O 0.93439 0.17529 0.94154 0.0
O412 O 0.96457 0.23567 0.91697 0.0
C413 C 0.84799 0.22151 0.88342 0.0
O414 O 0.01289 0.17239 0.86706 0.0
O415 O 0.98131 0.11157 0.89077 0.0
Zn416 Zn 0.36088 0.9144 0.89147 0.0
O417 O 0.32627 0.85183 0.88795 0.0
C418 C 0.29538 0.9508 0.94388 0.0
Zn419 Zn 0.29798 0.9482 0.87003 0.0
C420 C 0.28452 0.84714 0.87942 0.0
O421 O 0.26081 0.88279 0.87172 0.0
C422 C 0.37864 0.01327 0.87896 0.0
O423 O 0.32238 0.93213 0.82193 0.0
O424 O 0.38642 0.90196 0.8425 0.0
N425 N 0.24039 0.98022 0.85053 0.0
C426 C 0.21701 0.01839 0.86045 0.0
C427 C 0.17492 0.98376 0.82464 0.0
N428 N 0.2143 0.95908 0.82799 0.0
N429 N 0.17591 0.02132 0.8446 0.0
C430 C 0.41302 0.84243 0.93433 0.0
C431 C 0.4844 0.85712 0.9263 0.0
N432 N 0.41509 0.87868 0.91301 0.0
N433 N 0.45955 0.88769 0.90798 0.0
N434 N 0.45585 0.82779 0.94245 0.0
H435 H 0.35987 0.79079 0.93546 0.0
H436 H 0.37495 0.81326 0.97583 0.0
H437 H 0.33999 0.84695 0.94813 0.0
C438 C 0.36939 0.82274 0.94924 0.0
C439 C 0.23173 0.05024 0.88806 0.0
H440 H 0.22798 0.08672 0.87987 0.0
H441 H 0.20852 0.04519 0.90986 0.0
H442 H 0.26801 0.04433 0.89569 0.0
O443 O 0.33725 0.01095 0.86799 0.0
O444 O 0.39702 0.9777 0.89233 0.0
C445 C 0.36156 0.91298 0.81738 0.0
O446 O 0.33297 0.92826 0.94069 0.0
O447 O 0.27404 0.964 0.91795 0.0
Zn448 Zn 0.58764 0.35896 0.89795 0.0
O449 O 0.6515 0.32549 0.90181 0.0
C450 C 0.54947 0.29192 0.94786 0.0
Zn451 Zn 0.55729 0.29648 0.87375 0.0
C452 C 0.65874 0.28565 0.88966 0.0
O453 O 0.62516 0.26398 0.87611 0.0
C454 C 0.48878 0.37377 0.87988 0.0
O455 O 0.57352 0.32255 0.8267 0.0
O456 O 0.60628 0.38409 0.84909 0.0
N457 N 0.52966 0.23714 0.85368 0.0
C458 C 0.49098 0.21341 0.86193 0.0
C459 C 0.53148 0.16968 0.83053 0.0
N460 N 0.55452 0.20998 0.83391 0.0
N461 N 0.49139 0.17103 0.84776 0.0
C462 C 0.6591 0.42817 0.92667 0.0
C463 C 0.62001 0.4576 0.96639 0.0
N464 N 0.61466 0.41511 0.92236 0.0
N465 N 0.59034 0.43411 0.9468 0.0
N466 N 0.6637 0.45403 0.95469 0.0
H467 H 0.68159 0.4191 0.87578 0.0
H468 H 0.72245 0.44894 0.90263 0.0
H469 H 0.71461 0.38767 0.90601 0.0
C470 C 0.69655 0.42064 0.90128 0.0
C471 C 0.45459 0.22958 0.8861 0.0
H472 H 0.42166 0.23501 0.87238 0.0
H473 H 0.44832 0.2025 0.90525 0.0
H474 H 0.4638 0.26229 0.8986 0.0
O475 O 0.49186 0.33182 0.8703 0.0
O476 O 0.52367 0.39297 0.89334 0.0
C477 C 0.59471 0.36079 0.82325 0.0
O478 O 0.56842 0.33157 0.94624 0.0
O479 O 0.54156 0.27018 0.92103 0.0
Zn480 Zn 0.20839 0.55665 0.86999 0.0
O481 O 0.18352 0.57196 0.82224 0.0
C482 C 0.13129 0.48851 0.87689 0.0
Zn483 Zn 0.14555 0.58793 0.89335 0.0
C484 C 0.14486 0.59226 0.81817 0.0
O485 O 0.12084 0.60385 0.84372 0.0
C486 C 0.21194 0.55181 0.94453 0.0
O487 O 0.17835 0.6519 0.89569 0.0
O488 O 0.24114 0.62451 0.87205 0.0
N489 N 0.08878 0.61571 0.91672 0.0
C490 C 0.07562 0.66027 0.92037 0.0
C491 C 0.04542 0.62219 0.96025 0.0
N492 N 0.06931 0.59203 0.94126 0.0
N493 N 0.04918 0.66559 0.94807 0.0
C494 C 0.29073 0.48862 0.85954 0.0
C495 C 0.33475 0.52667 0.8269 0.0
N496 N 0.26777 0.52763 0.85081 0.0
N497 N 0.29511 0.55096 0.83026 0.0
N498 N 0.33272 0.48722 0.84483 0.0
H499 H 0.26992 0.41977 0.8721 0.0
H500 H 0.30105 0.44915 0.90439 0.0
H501 H 0.24119 0.46329 0.89641 0.0
C502 C 0.27437 0.45369 0.88468 0.0
C503 C 0.08334 0.697 0.89451 0.0
H504 H 0.08621 0.68125 0.86931 0.0
H505 H 0.05444 0.72237 0.8949 0.0
H506 H 0.11567 0.71588 0.8996 0.0
O507 O 0.17283 0.57187 0.94242 0.0
O508 O 0.23344 0.54166 0.91795 0.0
C509 C 0.21875 0.65861 0.88441 0.0
O510 O 0.17302 0.49166 0.8669 0.0
O511 O 0.11204 0.52348 0.89026 0.0
C512 C 0.58454 0.15091 0.26091 0.0
C513 C 0.60565 0.13017 0.2889 0.0
H514 H 0.5805 0.15488 0.20752 0.0
C515 C 0.63867 0.09521 0.28379 0.0
H516 H 0.55867 0.17777 0.26401 0.0
C517 C 0.65144 0.08238 0.25133 0.0
C518 C 0.63099 0.10384 0.22335 0.0
H519 H 0.65551 0.0786 0.30481 0.0
H520 H 0.67774 0.05597 0.24818 0.0
C521 C 0.59686 0.1377 0.22851 0.0
C522 C 0.36573 0.59533 0.22078 0.0
C523 C 0.39869 0.63026 0.21574 0.0
H524 H 0.32664 0.55611 0.2563 0.0
C525 C 0.41968 0.65098 0.24377 0.0
H526 H 0.34899 0.57872 0.19972 0.0
C527 C 0.40728 0.63779 0.27616 0.0
C528 C 0.3732 0.60397 0.28124 0.0
H529 H 0.44552 0.67781 0.24073 0.0
H530 H 0.42352 0.65497 0.29718 0.0
C531 C 0.35291 0.58251 0.25322 0.0
C532 C 0.86816 0.41117 0.28221 0.0
C533 C 0.8996 0.37492 0.28773 0.0
H534 H 0.83071 0.45116 0.24624 0.0
C535 C 0.91966 0.3525 0.25999 0.0
H536 H 0.85215 0.4291 0.30302 0.0
C537 C 0.90776 0.36541 0.22741 0.0
C538 C 0.87512 0.4006 0.22191 0.0
H539 H 0.94429 0.32459 0.26343 0.0
H540 H 0.92315 0.34697 0.20659 0.0
C541 C 0.85583 0.42368 0.24965 0.0
C542 C 0.09717 0.86537 0.27568 0.0
C543 C 0.12933 0.90104 0.28074 0.0
H544 H 0.06076 0.82375 0.2401 0.0
C545 C 0.14777 0.92418 0.25277 0.0
H546 H 0.08245 0.84688 0.2967 0.0
C547 C 0.13517 0.91122 0.22039 0.0
C548 C 0.10425 0.87449 0.21526 0.0
H549 H 0.17249 0.95202 0.25585 0.0
H550 H 0.15057 0.92921 0.19939 0.0
C551 C 0.08497 0.85203 0.24324 0.0
C552 C 0.35497 0.9229 0.75541 0.0
C553 C 0.377 0.90229 0.78305 0.0
H554 H 0.34939 0.92641 0.70203 0.0
C555 C 0.41249 0.86997 0.7775 0.0
H556 H 0.32764 0.94816 0.75894 0.0
C557 C 0.42452 0.85722 0.74498 0.0
C558 C 0.40179 0.87702 0.71735 0.0
H559 H 0.43007 0.85352 0.79827 0.0
H560 H 0.45134 0.83141 0.7415 0.0
C561 C 0.3675 0.91063 0.72284 0.0
C562 C 0.58248 0.35804 0.76151 0.0
C563 C 0.60595 0.37695 0.78914 0.0
H564 H 0.57623 0.35488 0.70824 0.0
C565 C 0.64111 0.40954 0.78358 0.0
H566 H 0.55495 0.33306 0.76499 0.0
C567 C 0.65364 0.42167 0.75093 0.0
C568 C 0.63075 0.40196 0.72329 0.0
H569 H 0.6598 0.42464 0.80437 0.0
H570 H 0.68159 0.44615 0.74735 0.0
C571 C 0.59452 0.37064 0.72896 0.0
C572 C 0.13814 0.59375 0.7234 0.0
C573 C 0.10403 0.62745 0.71775 0.0
H574 H 0.17793 0.55642 0.75961 0.0
C575 C 0.08162 0.6477 0.74544 0.0
H576 H 0.15603 0.57758 0.70263 0.0
C577 C 0.09381 0.63536 0.77808 0.0
C578 C 0.1291 0.60292 0.78377 0.0
H579 H 0.05491 0.67361 0.74193 0.0
H580 H 0.07646 0.65217 0.79882 0.0
C581 C 0.15076 0.58184 0.75607 0.0
C582 C 0.85488 0.08193 0.74616 0.0
C583 C 0.87579 0.10353 0.71842 0.0
H584 H 0.85017 0.0774 0.79957 0.0
C585 C 0.91019 0.13689 0.72399 0.0
H586 H 0.8284 0.05584 0.7427 0.0
C587 C 0.92228 0.14951 0.7566 0.0
C588 C 0.9007 0.12858 0.78434 0.0
H589 H 0.9269 0.15415 0.7032 0.0
H590 H 0.94831 0.17605 0.76006 0.0
C591 C 0.86743 0.0941 0.77877 0.0
C592 C 0.40526 0.12723 0.35799 0.0
C593 C 0.44563 0.10594 0.3704 0.0
H594 H 0.3367 0.11721 0.33813 0.0
C595 C 0.44723 0.05733 0.37236 0.0
H596 H 0.40303 0.16456 0.356 0.0
C597 C 0.40987 0.03063 0.3616 0.0
C598 C 0.36976 0.05181 0.34914 0.0
H599 H 0.47782 0.03969 0.38153 0.0
H600 H 0.41201 0.99327 0.36328 0.0
C601 C 0.36745 0.10031 0.34768 0.0
C602 C 0.38393 0.40944 0.3593 0.0
C603 C 0.40348 0.45067 0.37162 0.0
H604 H 0.39655 0.34034 0.34148 0.0
C605 C 0.45178 0.453 0.37588 0.0
H606 H 0.3469 0.40663 0.35548 0.0
C607 C 0.47991 0.4154 0.36749 0.0
C608 C 0.46042 0.37442 0.35511 0.0
H609 H 0.46811 0.48426 0.38505 0.0
H610 H 0.517 0.4181 0.37092 0.0
C611 C 0.41219 0.37156 0.35125 0.0
C612 C 0.05567 0.44973 0.37518 0.0
C613 C 0.05698 0.40118 0.37266 0.0
H614 H 0.09143 0.51372 0.36687 0.0
C615 C 0.09739 0.37986 0.36031 0.0
H616 H 0.02506 0.46736 0.38433 0.0
C617 C 0.13544 0.40667 0.35045 0.0
C618 C 0.13342 0.45513 0.35235 0.0
H619 H 0.09939 0.34256 0.3579 0.0
H620 H 0.16611 0.38974 0.34078 0.0
C621 C 0.09335 0.47637 0.36488 0.0
C622 C 0.1216 0.09701 0.35828 0.0
C623 C 0.10162 0.05596 0.37056 0.0
H624 H 0.10964 0.16635 0.3407 0.0
C625 C 0.05335 0.05423 0.37515 0.0
H626 H 0.15862 0.09936 0.35425 0.0
C627 C 0.02565 0.09223 0.36706 0.0
C628 C 0.04556 0.13297 0.35465 0.0
H629 H 0.03672 0.02313 0.38433 0.0
H630 H 0.98854 0.09002 0.37065 0.0
C631 C 0.09375 0.13528 0.35052 0.0
C632 C 0.94793 0.94872 0.12767 0.0
C633 C 0.94679 0.90018 0.13035 0.0
H634 H 0.91207 0.01276 0.13597 0.0
C635 C 0.90653 0.87893 0.14291 0.0
H636 H 0.97843 0.9663 0.11835 0.0
C637 C 0.86848 0.90581 0.15285 0.0
C638 C 0.87037 0.95426 0.15082 0.0
H639 H 0.90464 0.84165 0.14545 0.0
H640 H 0.83794 0.88895 0.16272 0.0
C641 C 0.91026 0.97543 0.13804 0.0
C642 C 0.52413 0.9154 0.13737 0.0
C643 C 0.54386 0.87447 0.14974 0.0
H644 H 0.53555 0.98423 0.11966 0.0
C645 C 0.59212 0.8717 0.15343 0.0
H646 H 0.487 0.91804 0.13406 0.0
C647 C 0.62018 0.90958 0.14521 0.0
C648 C 0.60039 0.95075 0.13289 0.0
H649 H 0.60796 0.84054 0.1632 0.0
H650 H 0.65724 0.90682 0.1489 0.0
C651 C 0.55205 0.95301 0.12881 0.0
C652 C 0.59983 0.62701 0.14583 0.0
C653 C 0.55929 0.60578 0.13375 0.0
H654 H 0.6689 0.61691 0.16476 0.0
C655 C 0.55794 0.5572 0.13137 0.0
H656 H 0.60187 0.66432 0.14811 0.0
C657 C 0.59573 0.53047 0.14138 0.0
C658 C 0.636 0.55159 0.15351 0.0
H659 H 0.52725 0.5396 0.12241 0.0
H660 H 0.59377 0.49313 0.13941 0.0
C661 C 0.63805 0.60007 0.1554 0.0
C662 C 0.98032 0.59058 0.13541 0.0
C663 C 0.96015 0.63141 0.14758 0.0
H664 H 0.96957 0.52137 0.11822 0.0
C665 C 0.91191 0.63378 0.15134 0.0
H666 H 0.01747 0.5883 0.13211 0.0
C667 C 0.88425 0.59552 0.14344 0.0
C668 C 0.90446 0.55438 0.1314 0.0
H669 H 0.89581 0.66486 0.16102 0.0
H670 H 0.84718 0.59795 0.14719 0.0
C671 C 0.95279 0.55256 0.12718 0.0
C672 C 0.63503 0.91153 0.65071 0.0
C673 C 0.63268 0.95982 0.6471 0.0
H674 H 0.59948 0.8467 0.6457 0.0
C675 C 0.59225 0.97984 0.63413 0.0
H676 H 0.66582 0.89547 0.66091 0.0
C677 C 0.55466 0.95221 0.625 0.0
C678 C 0.55639 0.90387 0.62914 0.0
H679 H 0.58995 0.01699 0.63088 0.0
H680 H 0.5238 0.96896 0.61545 0.0
C681 C 0.59712 0.88377 0.64198 0.0
C682 C 0.55254 0.55472 0.62954 0.0
C683 C 0.60099 0.5556 0.633 0.0
H684 H 0.48862 0.59161 0.63578 0.0
C685 C 0.62224 0.59629 0.64482 0.0
H686 H 0.535 0.5239 0.62077 0.0
C687 C 0.59547 0.63502 0.65331 0.0
C688 C 0.5471 0.63352 0.65047 0.0
H689 H 0.65946 0.598 0.64793 0.0
H690 H 0.61237 0.66578 0.66275 0.0
C691 C 0.5259 0.59318 0.63843 0.0
C692 C 0.9465 0.55637 0.62825 0.0
C693 C 0.94577 0.60474 0.63241 0.0
H694 H 0.91017 0.49227 0.63463 0.0
C695 C 0.90574 0.62566 0.6457 0.0
H696 H 0.97677 0.539 0.61828 0.0
C697 C 0.86753 0.59858 0.65493 0.0
C698 C 0.86904 0.55028 0.65136 0.0
H699 H 0.90415 0.66278 0.64938 0.0
H700 H 0.83715 0.61513 0.6654 0.0
C701 C 0.90868 0.52947 0.63785 0.0
C702 C 0.9514 0.94884 0.62955 0.0
C703 C 0.90295 0.94673 0.63306 0.0
H704 H 0.01637 0.91406 0.63608 0.0
C705 C 0.88292 0.90606 0.6459 0.0
H706 H 0.96811 0.97969 0.62001 0.0
C707 C 0.9109 0.86841 0.65502 0.0
C708 C 0.95925 0.8711 0.65185 0.0
H709 H 0.84577 0.90347 0.64913 0.0
H710 H 0.89495 0.83742 0.66493 0.0
C711 C 0.97918 0.91158 0.63907 0.0
C712 C 0.09921 0.12456 0.85839 0.0
C713 C 0.05888 0.10349 0.87101 0.0
H714 H 0.16847 0.11437 0.83985 0.0
C715 C 0.05837 0.05514 0.87523 0.0
H716 H 0.10066 0.16168 0.8547 0.0
C717 C 0.09677 0.02841 0.86634 0.0
C718 C 0.13672 0.0494 0.85352 0.0
H719 H 0.02788 0.03769 0.88468 0.0
H720 H 0.09544 0.99121 0.86954 0.0
C721 C 0.13793 0.09768 0.84987 0.0
C722 C 0.38672 0.09609 0.8604 0.0
C723 C 0.40692 0.05526 0.87296 0.0
H724 H 0.39822 0.16511 0.84212 0.0
C725 C 0.45526 0.05358 0.87716 0.0
H726 H 0.34964 0.09841 0.85664 0.0
C727 C 0.48279 0.09142 0.86844 0.0
C728 C 0.46264 0.13199 0.8558 0.0
H729 H 0.47206 0.02262 0.88649 0.0
H730 H 0.51994 0.08923 0.8718 0.0
C731 C 0.41437 0.13421 0.85205 0.0
C732 C 0.40658 0.3819 0.85933 0.0
C733 C 0.4471 0.40198 0.8724 0.0
H734 H 0.33806 0.3938 0.83996 0.0
C735 C 0.44894 0.45041 0.8761 0.0
H736 H 0.40417 0.34477 0.85595 0.0
C737 C 0.41164 0.47811 0.86651 0.0
C738 C 0.37134 0.45814 0.85347 0.0
H739 H 0.47964 0.46718 0.88583 0.0
H740 H 0.41398 0.51528 0.86959 0.0
C741 C 0.36886 0.4098 0.85013 0.0
C742 C 0.12387 0.40618 0.85676 0.0
C743 C 0.10341 0.44661 0.86977 0.0
H744 H 0.1126 0.33755 0.8375 0.0
C745 C 0.05498 0.44817 0.87354 0.0
H746 H 0.16103 0.404 0.85335 0.0
C747 C 0.02762 0.41066 0.864 0.0
C748 C 0.04799 0.3705 0.85095 0.0
H749 H 0.03795 0.47879 0.88322 0.0
H750 H 0.99042 0.41274 0.8671 0.0
C751 C 0.09633 0.36829 0.84763 0.0
C752 C 0.71825 0.27661 0.37098 0.0
C753 C 0.70536 0.23867 0.39082 0.0
H754 H 0.77374 0.32032 0.35436 0.0
C755 C 0.73985 0.2156 0.40948 0.0
H756 H 0.69269 0.29522 0.3564 0.0
C757 C 0.78635 0.22873 0.4072 0.0
C758 C 0.79903 0.26622 0.38712 0.0
H759 H 0.73097 0.18751 0.42613 0.0
H760 H 0.8121 0.21063 0.42196 0.0
C761 C 0.76463 0.29054 0.36946 0.0
C762 C 0.25659 0.72967 0.40651 0.0
C763 C 0.26025 0.70497 0.37643 0.0
H764 H 0.24385 0.79523 0.42982 0.0
C765 C 0.25596 0.72873 0.34594 0.0
H766 H 0.26094 0.7122 0.43028 0.0
C767 C 0.2479 0.77667 0.34566 0.0
C768 C 0.24385 0.80114 0.37587 0.0
H769 H 0.26018 0.7105 0.32246 0.0
H770 H 0.24351 0.79434 0.32197 0.0
C771 C 0.24784 0.77716 0.40624 0.0
C772 C 0.28558 0.77562 0.13443 0.0
C773 C 0.29953 0.7393 0.11337 0.0
H774 H 0.22904 0.81766 0.15173 0.0
C775 C 0.26595 0.71751 0.09317 0.0
H776 H 0.31045 0.79319 0.15022 0.0
C777 C 0.21927 0.7302 0.09507 0.0
C778 C 0.20549 0.76593 0.11645 0.0
H779 H 0.27572 0.69072 0.07563 0.0
H780 H 0.19424 0.71313 0.07911 0.0
C781 C 0.23901 0.78911 0.13566 0.0
C782 C 0.756 0.27702 0.15725 0.0
C783 C 0.7612 0.30052 0.12674 0.0
H784 H 0.74229 0.21175 0.18127 0.0
C785 C 0.75776 0.27572 0.09669 0.0
H786 H 0.75993 0.29533 0.18072 0.0
C787 C 0.74841 0.22836 0.09701 0.0
C788 C 0.74369 0.20463 0.1274 0.0
H789 H 0.76261 0.29303 0.07291 0.0
H790 H 0.74443 0.21024 0.07345 0.0
C791 C 0.74737 0.22922 0.15758 0.0
C792 C 0.24067 0.71588 0.59782 0.0
C793 C 0.20667 0.73683 0.61816 0.0
H794 H 0.31255 0.71231 0.58412 0.0
C795 C 0.22014 0.77223 0.64014 0.0
H796 H 0.23125 0.69002 0.5795 0.0
C797 C 0.26665 0.78573 0.64203 0.0
C798 C 0.30057 0.76336 0.62262 0.0
H799 H 0.19492 0.78918 0.65604 0.0
H800 H 0.2762 0.81379 0.65864 0.0
C801 C 0.28725 0.72851 0.60038 0.0
C802 C 0.79088 0.24154 0.60092 0.0
C803 C 0.76849 0.20617 0.61907 0.0
H804 H 0.79537 0.31429 0.59021 0.0
C805 C 0.73147 0.21811 0.64013 0.0
H806 H 0.81808 0.23341 0.5833 0.0
C807 C 0.7177 0.2644 0.64323 0.0
C808 C 0.74141 0.29965 0.62606 0.0
H809 H 0.71342 0.19184 0.65438 0.0
H810 H 0.68838 0.27276 0.65904 0.0
C811 C 0.77803 0.28791 0.60482 0.0
C812 C 0.78828 0.27648 0.90456 0.0
C813 C 0.80048 0.23983 0.88348 0.0
H814 H 0.73339 0.31702 0.92512 0.0
C815 C 0.76561 0.21625 0.86584 0.0
H816 H 0.81438 0.29386 0.91941 0.0
C817 C 0.71927 0.23025 0.86827 0.0
C818 C 0.70687 0.26744 0.88906 0.0
H819 H 0.77433 0.18695 0.85011 0.0
H820 H 0.69333 0.21228 0.85366 0.0
C821 C 0.74185 0.28964 0.90773 0.0
C822 C 0.2897 0.76474 0.8618 0.0
C823 C 0.26546 0.79996 0.87872 0.0
H824 H 0.29385 0.69235 0.84994 0.0
C825 C 0.22756 0.78823 0.89872 0.0
H826 H 0.3199 0.77304 0.84688 0.0
C827 C 0.21407 0.74195 0.90172 0.0
C828 C 0.23703 0.70664 0.8838 0.0
H829 H 0.20965 0.81453 0.9131 0.0
H830 H 0.18596 0.73383 0.91855 0.0
C831 C 0.27527 0.71856 0.86394 0.0
C832 C 0.70545 0.00788 0.49637 0.0
C833 C 0.70493 0.04392 0.4728 0.0
H834 H 0.73475 0.98155 0.54169 0.0
C835 C 0.74031 0.0775 0.47419 0.0
H836 H 0.67866 0.98169 0.49603 0.0
C837 C 0.77297 0.07706 0.50011 0.0
C838 C 0.7702 0.04366 0.52549 0.0
H839 H 0.74039 0.10665 0.45731 0.0
H840 H 0.79743 0.10535 0.502 0.0
C841 C 0.73751 0.0079 0.52253 0.0
C842 C 0.48609 0.72487 0.52467 0.0
C843 C 0.46083 0.76662 0.52596 0.0
H844 H 0.50233 0.66384 0.49637 0.0
C845 C 0.43865 0.78236 0.49684 0.0
H846 H 0.50399 0.71194 0.54654 0.0
C847 C 0.43821 0.75476 0.46807 0.0
C848 C 0.45977 0.71109 0.46802 0.0
H849 H 0.41919 0.81444 0.49691 0.0
H850 H 0.41845 0.76604 0.44655 0.0
C851 C 0.48562 0.69742 0.49591 0.0
C852 C 0.79348 0.49454 0.49632 0.0
C853 C 0.79554 0.45669 0.47431 0.0
H854 H 0.76431 0.52255 0.54122 0.0
C855 C 0.76346 0.42039 0.47855 0.0
H856 H 0.81784 0.5228 0.49385 0.0
C857 C 0.73222 0.42063 0.50531 0.0
C858 C 0.73338 0.45647 0.52892 0.0
H859 H 0.76502 0.38966 0.46329 0.0
H860 H 0.7103 0.39071 0.50921 0.0
C861 C 0.76295 0.49431 0.52345 0.0
C862 C 0.01908 0.78094 0.52563 0.0
C863 C 0.04387 0.73889 0.5264 0.0
H864 H 0.00358 0.8429 0.49814 0.0
C865 C 0.06654 0.724 0.49723 0.0
H866 H 1.00086 0.79325 0.54759 0.0
C867 C 0.06784 0.75259 0.46897 0.0
C868 C 0.04641 0.79632 0.4694 0.0
H869 H 0.08577 0.69178 0.49693 0.0
H870 H 0.08785 0.74184 0.44742 0.0
C871 C 0.02022 0.80931 0.49732 0.0
C872 C 0.27332 0.92067 1.00008 0.0
C873 C 0.27267 0.95674 0.97666 0.0
H874 H 0.23957 0.8894 0.04155 0.0
C875 C 0.24312 0.9947 0.98205 0.0
H876 H 0.29522 0.89066 0.99622 0.0
C877 C 0.21202 0.99477 0.00883 0.0
C878 C 0.20941 0.95668 0.03056 0.0
H879 H 0.24219 0.02312 0.96442 0.0
H880 H 0.18763 0.02309 0.01119 0.0
C881 C 0.24154 0.92029 0.0265 0.0
C882 C 0.51714 0.19818 0.00934 0.0
C883 C 0.5422 0.21179 0.03762 0.0
H884 H 0.49955 0.21325 0.95861 0.0
C885 C 0.56283 0.25584 0.0382 0.0
H886 H 0.50116 0.16431 0.0084 0.0
C887 C 0.56234 0.28396 0.0097 0.0
C888 C 0.54117 0.26829 0.98018 0.0
H889 H 0.58203 0.26701 0.06 0.0
H890 H 0.5812 0.31634 0.01011 0.0
C891 C 0.5167 0.22611 0.98082 0.0
C892 C 0.23285 0.57878 0.00206 0.0
C893 C 0.23587 0.5451 0.97687 0.0
H894 H 0.26488 0.60876 0.0449 0.0
C895 C 0.26868 0.50941 0.98015 0.0
H896 H 0.20834 0.60706 0.9999 0.0
C897 C 0.3004 0.50958 0.00654 0.0
C898 C 0.30054 0.54575 0.03002 0.0
H899 H 0.27167 0.48287 0.96114 0.0
H900 H 0.32717 0.4833 0.00718 0.0
C901 C 0.26521 0.57944 0.02818 0.0
C902 C 0.9389 0.25016 0.03392 0.0
C903 C 0.96037 0.29382 0.0339 0.0
H904 H 0.92029 0.19022 0.00526 0.0
C905 C 0.98628 0.30732 0.00599 0.0
H906 H 0.91913 0.23898 0.05546 0.0
C907 C 0.98697 0.27967 0.97731 0.0
C908 C 0.96191 0.23785 0.97612 0.0
H909 H 0.00296 0.34087 0.00547 0.0
H910 H 0.00496 0.29245 0.95543 0.0
C911 C 0.93962 0.22233 0.00525 0.0
C912 C 0.31226 0.98475 0.50016 0.0
C913 C 0.29797 0.96123 0.52894 0.0
H914 H 0.29775 1.00068 0.4491 0.0
C915 C 0.25357 0.94135 0.52981 0.0
H916 H 0.34643 1.00007 0.49899 0.0
C917 C 0.22556 0.94133 0.50125 0.0
C918 C 0.24166 0.96123 0.47139 0.0
H919 H 0.24189 0.92331 0.55199 0.0
H920 H 0.19272 0.92327 0.502 0.0
C921 C 0.28445 0.98463 0.47159 0.0
C922 C 0.51533 0.30825 0.50918 0.0
C923 C 0.53978 0.29426 0.53766 0.0
H924 H 0.4983 0.29351 0.45831 0.0
C925 C 0.55981 0.24986 0.53836 0.0
H926 H 0.49974 0.34234 0.50813 0.0
C927 C 0.55944 0.2218 0.50981 0.0
C928 C 0.53894 0.23782 0.48013 0.0
H929 H 0.57843 0.23831 0.56033 0.0
H930 H 0.57788 0.18913 0.51034 0.0
C931 C 0.51497 0.28036 0.48063 0.0
C932 C 0.23283 0.51125 0.47753 0.0
C933 C 0.2654 0.54701 0.47414 0.0
H934 H 0.17575 0.48408 0.50552 0.0
C935 C 0.26941 0.57987 0.49981 0.0
H936 H 0.22923 0.48522 0.45824 0.0
C937 C 0.23823 0.57964 0.52668 0.0
C938 C 0.20317 0.54581 0.52881 0.0
H939 H 0.29388 0.60811 0.49767 0.0
H940 H 0.23925 0.6084 0.54387 0.0
C941 C 0.20234 0.51046 0.50468 0.0
C942 C 0.99885 0.20765 0.51096 0.0
C943 C 0.96261 0.20679 0.53438 0.0
H944 H 0.02459 0.2362 0.46521 0.0
C945 C 0.92786 0.24103 0.53222 0.0
H946 H 0.02592 0.1817 0.51187 0.0
C947 C 0.92743 0.27275 0.50572 0.0
C948 C 0.96111 0.27012 0.48052 0.0
H949 H 0.89851 0.24075 0.54892 0.0
H950 H 0.89834 0.29625 0.5033 0.0
C951 C 0.99796 0.23873 0.4842 0.0
C952 C 0.7998 0.01323 0.99792 0.0
C953 C 0.7993 0.04991 0.97481 0.0
H954 H 0.77287 0.98588 0.04375 0.0
C955 C 0.76511 0.08448 0.9784 0.0
H956 H 0.82571 0.98622 0.99603 0.0
C957 C 0.73411 0.08366 0.00532 0.0
C958 C 0.73757 0.04914 0.02984 0.0
H959 H 0.76442 0.11439 0.96232 0.0
H960 H 0.71021 0.11227 0.00846 0.0
C961 C 0.76961 0.01307 0.02528 0.0
C962 C 0.44774 0.74976 0.96657 0.0
C963 C 0.46752 0.79419 0.96756 0.0
H964 H 0.42923 0.68904 0.99437 0.0
C965 C 0.49135 0.80821 0.99628 0.0
H966 H 0.42955 0.73825 0.94441 0.0
C967 C 0.49117 0.78033 0.0248 0.0
C968 C 0.46727 0.73782 0.02502 0.0
H969 H 0.5067 0.84235 0.99753 0.0
H970 H 0.50727 0.79352 0.04732 0.0
C971 C 0.44756 0.72171 0.99511 0.0
C972 C 0.77057 0.42654 0.0039 0.0
C973 C 0.76679 0.45927 0.02967 0.0
H974 H 0.73989 0.39827 0.96001 0.0
C975 C 0.73436 0.49528 0.02651 0.0
H976 H 0.79498 0.39816 0.00586 0.0
C977 C 0.70357 0.49627 0.99958 0.0
C978 C 0.70401 0.46091 0.97547 0.0
H979 H 0.73103 0.52124 0.04587 0.0
H980 H 0.67696 0.52272 0.99896 0.0
C981 C 0.73911 0.42699 0.97725 0.0
C982 C 0.00702 0.73757 0.01893 0.0
C983 C 0.04353 0.76929 0.0225 0.0
H984 H 0.97939 0.6805 0.9912 0.0
C985 C 0.07688 0.7724 0.99711 0.0
H986 H 0.98063 0.73467 0.03806 0.0
C987 C 0.07652 0.74086 0.97049 0.0
C988 C 0.04216 0.70632 0.96841 0.0
H989 H 0.10569 0.79618 0.99944 0.0
H990 H 0.10567 0.74098 0.9536 0.0
C991 C 0.00617 0.70669 0.99205 0.0
loop_
_geom_bond_atom_site_label_1
_geom_bond_atom_site_label_2
_geom_bond_distance
_geom_bond_site_symmetry_2
_ccdc_geom_bond_type
Zn0 O1 2.055 . S
Zn0 O8 2.046 . S
Zn0 N16 2.036 . S
Zn0 O28 2.053 . S
Zn0 O30 2.066 . S
O1 Zn0 2.055 . S
O1 C4 1.259 . S
C2 O30 1.256 . S
C2 O31 1.244 . S
Zn3 O5 2.046 . S
Zn3 O7 2.055 . S
Zn3 N9 2.036 . S
Zn3 O27 2.066 . S
Zn3 O31 2.053 . S
C4 O1 1.259 . S
C4 O5 1.254 . S
O5 Zn3 2.046 . S
O5 C4 1.254 . S
C6 O27 1.256 . S
C6 O28 1.244 . S
O7 Zn3 2.055 . S
O7 C29 1.259 . S
O8 Zn0 2.046 . S
O8 C29 1.254 . S
N9 Zn3 2.036 . S
N9 C10 1.298 . S
N9 N12 1.398 . S
C10 N9 1.298 . S
C10 N13 1.367 . S
C10 C23 1.481 . S
C11 N12 1.299 . S
C11 N13 1.379 . S
N12 N9 1.398 . S
N12 C11 1.299 . S
N13 C10 1.367 . S
N13 C11 1.379 . S
C14 N16 1.298 . S
C14 N18 1.367 . S
C14 C22 1.481 . S
C15 N17 1.299 . S
C15 N18 1.379 . S
N16 Zn0 2.036 . S
N16 C14 1.298 . S
N16 N17 1.398 . S
N17 C15 1.299 . S
N17 N16 1.398 . S
N18 C14 1.367 . S
N18 C15 1.379 . S
H19 C22 0.980 . S
H20 C22 0.981 . S
H21 C22 0.981 . S
C22 C14 1.481 . S
C22 H19 0.980 . S
C22 H20 0.981 . S
C22 H21 0.981 . S
C23 C10 1.481 . S
C23 H24 0.980 . S
C23 H25 0.981 . S
C23 H26 0.981 . S
H24 C23 0.980 . S
H25 C23 0.981 . S
H26 C23 0.981 . S
O27 Zn3 2.066 . S
O27 C6 1.256 . S
O28 Zn0 2.053 . S
O28 C6 1.244 . S
C29 O7 1.259 . S
C29 O8 1.254 . S
O30 Zn0 2.066 . S
O30 C2 1.256 . S
O31 C2 1.244 . S
O31 Zn3 2.053 . S
Zn32 O33 2.055 . S
Zn32 O40 2.046 . S
Zn32 N48 2.036 . S
Zn32 O60 2.053 . S
Zn32 O62 2.066 . S
O33 Zn32 2.055 . S
O33 C36 1.259 . S
C34 O62 1.256 . S
C34 O63 1.244 . S
Zn35 O37 2.046 . S
Zn35 O39 2.055 . S
Zn35 N41 2.036 . S
Zn35 O59 2.066 . S
Zn35 O63 2.053 . S
C36 O33 1.259 . S
C36 O37 1.254 . S
O37 Zn35 2.046 . S
O37 C36 1.254 . S
C38 O59 1.256 . S
C38 O60 1.244 . S
O39 Zn35 2.055 . S
O39 C61 1.259 . S
O40 Zn32 2.046 . S
O40 C61 1.254 . S
N41 Zn35 2.036 . S
N41 C42 1.298 . S
N41 N44 1.398 . S
C42 N41 1.298 . S
C42 N45 1.367 . S
C42 C55 1.481 . S
C43 N44 1.299 . S
C43 N45 1.379 . S
N44 N41 1.398 . S
N44 C43 1.299 . S
N45 C42 1.367 . S
N45 C43 1.379 . S
C46 N48 1.298 . S
C46 N50 1.367 . S
C46 C54 1.481 . S
C47 N49 1.299 . S
C47 N50 1.379 . S
N48 Zn32 2.036 . S
N48 C46 1.298 . S
N48 N49 1.398 . S
N49 C47 1.299 . S
N49 N48 1.398 . S
N50 C46 1.367 . S
N50 C47 1.379 . S
H51 C54 0.980 . S
H52 C54 0.981 . S
H53 C54 0.981 . S
C54 C46 1.481 . S
C54 H51 0.980 . S
C54 H52 0.981 . S
C54 H53 0.981 . S
C55 C42 1.481 . S
C55 H56 0.980 . S
C55 H57 0.981 . S
C55 H58 0.981 . S
H56 C55 0.980 . S
H57 C55 0.981 . S
H58 C55 0.981 . S
O59 Zn35 2.066 . S
O59 C38 1.256 . S
O60 Zn32 2.053 . S
O60 C38 1.244 . S
C61 O39 1.259 . S
C61 O40 1.254 . S
O62 Zn32 2.066 . S
O62 C34 1.256 . S
O63 C34 1.244 . S
O63 Zn35 2.053 . S
Zn64 O65 2.055 . S
Zn64 O72 2.046 . S
Zn64 N80 2.036 . S
Zn64 O92 2.053 . S
Zn64 O94 2.082 . S
O65 Zn64 2.055 . S
O65 C68 1.259 . S
C66 O94 1.258 . S
C66 O95 1.244 . S
Zn67 O69 2.046 . S
Zn67 O71 2.055 . S
Zn67 N73 2.036 . S
Zn67 O91 2.066 . S
Zn67 O95 2.053 . S
C68 O65 1.259 . S
C68 O69 1.254 . S
O69 Zn67 2.046 . S
O69 C68 1.254 . S
C70 O91 1.256 . S
C70 O92 1.244 . S
O71 Zn67 2.055 . S
O71 C93 1.259 . S
O72 Zn64 2.046 . S
O72 C93 1.254 . S
N73 Zn67 2.036 . S
N73 C74 1.298 . S
N73 N76 1.398 . S
C74 N73 1.298 . S
C74 N77 1.367 . S
C74 C87 1.481 . S
C75 N76 1.299 . S
C75 N77 1.379 . S
N76 N73 1.398 . S
N76 C75 1.299 . S
N77 C74 1.367 . S
N77 C75 1.379 . S
C78 N80 1.298 1_455 S
C78 N82 1.367 . S
C78 C86 1.481 . S
C79 N81 1.299 1_455 S
C79 N82 1.379 . S
N80 Zn64 2.036 . S
N80 C78 1.298 1_655 S
N80 N81 1.398 . S
N81 C79 1.299 1_655 S
N81 N80 1.398 . S
N82 C78 1.367 . S
N82 C79 1.379 . S
H83 C86 0.980 1_655 S
H84 C86 0.981 . S
H85 C86 0.981 . S
C86 C78 1.481 . S
C86 H83 0.980 1_455 S
C86 H84 0.981 . S
C86 H85 0.981 . S
C87 C74 1.481 . S
C87 H88 0.980 . S
C87 H89 0.981 . S
C87 H90 0.981 . S
H88 C87 0.980 . S
H89 C87 0.981 . S
H90 C87 0.981 . S
O91 Zn67 2.066 . S
O91 C70 1.256 . S
O92 Zn64 2.053 . S
O92 C70 1.244 . S
C93 O71 1.259 . S
C93 O72 1.254 . S
O94 Zn64 2.082 . S
O94 C66 1.258 . S
O95 C66 1.244 . S
O95 Zn67 2.053 . S
Zn96 O97 2.055 . S
Zn96 O104 2.046 . S
Zn96 N112 2.036 . S
Zn96 O124 2.053 . S
Zn96 O126 2.066 . S
O97 Zn96 2.055 . S
O97 C100 1.259 . S
C98 O126 1.256 . S
C98 O127 1.244 . S
Zn99 O101 2.046 . S
Zn99 O103 2.055 . S
Zn99 N105 2.036 . S
Zn99 O123 2.082 . S
Zn99 O127 2.053 . S
C100 O97 1.259 . S
C100 O101 1.254 . S
O101 Zn99 2.046 . S
O101 C100 1.254 . S
C102 O123 1.258 . S
C102 O124 1.244 . S
O103 Zn99 2.055 . S
O103 C125 1.259 . S
O104 Zn96 2.046 . S
O104 C125 1.254 . S
N105 Zn99 2.036 . S
N105 C106 1.298 1_565 S
N105 N108 1.398 . S
C106 N105 1.298 1_545 S
C106 N109 1.367 . S
C106 C119 1.481 . S
C107 N108 1.299 1_545 S
C107 N109 1.379 . S
N108 N105 1.398 . S
N108 C107 1.299 1_565 S
N109 C106 1.367 . S
N109 C107 1.379 . S
C110 N112 1.298 . S
C110 N114 1.367 . S
C110 C118 1.481 . S
C111 N113 1.299 . S
C111 N114 1.379 . S
N112 Zn96 2.036 . S
N112 C110 1.298 . S
N112 N113 1.398 . S
N113 C111 1.299 . S
N113 N112 1.398 . S
N114 C110 1.367 . S
N114 C111 1.379 . S
H115 C118 0.980 . S
H116 C118 0.981 . S
H117 C118 0.981 . S
C118 C110 1.481 . S
C118 H115 0.980 . S
C118 H116 0.981 . S
C118 H117 0.981 . S
C119 C106 1.481 . S
C119 H120 0.980 1_545 S
C119 H121 0.981 . S
C119 H122 0.981 . S
H120 C119 0.980 1_565 S
H121 C119 0.981 . S
H122 C119 0.981 . S
O123 Zn99 2.082 . S
O123 C102 1.258 . S
O124 Zn96 2.053 . S
O124 C102 1.244 . S
C125 O103 1.259 . S
C125 O104 1.254 . S
O126 Zn96 2.066 . S
O126 C98 1.256 . S
O127 C98 1.244 . S
O127 Zn99 2.053 . S
Zn128 O129 2.055 . S
Zn128 O136 2.046 . S
Zn128 N144 2.036 . S
Zn128 O156 2.053 . S
Zn128 O158 2.082 . S
O129 Zn128 2.055 . S
O129 C132 1.259 . S
C130 O158 1.258 . S
C130 O159 1.244 . S
Zn131 O133 2.046 . S
Zn131 O135 2.055 . S
Zn131 N137 2.036 . S
Zn131 O155 2.066 . S
Zn131 O159 2.053 . S
C132 O129 1.259 . S
C132 O133 1.254 . S
O133 Zn131 2.046 . S
O133 C132 1.254 . S
C134 O155 1.256 . S
C134 O156 1.244 . S
O135 Zn131 2.055 . S
O135 C157 1.259 . S
O136 Zn128 2.046 . S
O136 C157 1.254 . S
N137 Zn131 2.036 . S
N137 C138 1.298 . S
N137 N140 1.398 . S
C138 N137 1.298 . S
C138 N141 1.367 . S
C138 C151 1.481 . S
C139 N140 1.299 . S
C139 N141 1.379 . S
N140 N137 1.398 . S
N140 C139 1.299 . S
N141 C138 1.367 . S
N141 C139 1.379 . S
C142 N144 1.298 1_655 S
C142 N146 1.367 . S
C142 C150 1.481 . S
C143 N145 1.299 1_655 S
C143 N146 1.379 . S
N144 Zn128 2.036 . S
N144 C142 1.298 1_455 S
N144 N145 1.398 . S
N145 C143 1.299 1_455 S
N145 N144 1.398 . S
N146 C142 1.367 . S
N146 C143 1.379 . S
H147 C150 0.980 1_455 S
H148 C150 0.981 . S
H149 C150 0.981 . S
C150 C142 1.481 . S
C150 H147 0.980 1_655 S
C150 H148 0.981 . S
C150 H149 0.981 . S
C151 C138 1.481 . S
C151 H152 0.980 . S
C151 H153 0.981 . S
C151 H154 0.981 . S
H152 C151 0.980 . S
H153 C151 0.981 . S
H154 C151 0.981 . S
O155 Zn131 2.066 . S
O155 C134 1.256 . S
O156 Zn128 2.053 . S
O156 C134 1.244 . S
C157 O135 1.259 . S
C157 O136 1.254 . S
O158 Zn128 2.082 . S
O158 C130 1.258 . S
O159 C130 1.244 . S
O159 Zn131 2.053 . S
Zn160 O161 2.055 . S
Zn160 O168 2.046 . S
Zn160 N176 2.036 . S
Zn160 O188 2.053 . S
Zn160 O190 2.082 . S
O161 Zn160 2.055 . S
O161 C164 1.259 . S
C162 O190 1.258 . S
C162 O191 1.244 . S
Zn163 O165 2.046 . S
Zn163 O167 2.055 . S
Zn163 N169 2.036 . S
Zn163 O187 2.066 . S
Zn163 O191 2.053 . S
C164 O161 1.259 . S
C164 O165 1.254 . S
O165 Zn163 2.046 . S
O165 C164 1.254 . S
C166 O187 1.256 . S
C166 O188 1.244 . S
O167 Zn163 2.055 . S
O167 C189 1.259 . S
O168 Zn160 2.046 . S
O168 C189 1.254 . S
N169 Zn163 2.036 . S
N169 C170 1.298 . S
N169 N172 1.398 . S
C170 N169 1.298 . S
C170 N173 1.367 . S
C170 C183 1.481 . S
C171 N172 1.299 . S
C171 N173 1.379 . S
N172 N169 1.398 . S
N172 C171 1.299 . S
N173 C170 1.367 . S
N173 C171 1.379 . S
C174 N176 1.298 1_565 S
C174 N178 1.367 . S
C174 C182 1.481 . S
C175 N177 1.299 1_565 S
C175 N178 1.379 . S
N176 Zn160 2.036 . S
N176 C174 1.298 1_545 S
N176 N177 1.398 . S
N177 C175 1.299 1_545 S
N177 N176 1.398 . S
N178 C174 1.367 . S
N178 C175 1.379 . S
H179 C182 0.980 1_545 S
H180 C182 0.981 . S
H181 C182 0.981 . S
C182 C174 1.481 . S
C182 H179 0.980 1_565 S
C182 H180 0.981 . S
C182 H181 0.981 . S
C183 C170 1.481 . S
C183 H184 0.980 . S
C183 H185 0.981 . S
C183 H186 0.981 . S
H184 C183 0.980 . S
H185 C183 0.981 . S
H186 C183 0.981 . S
O187 Zn163 2.066 . S
O187 C166 1.256 . S
O188 Zn160 2.053 . S
O188 C166 1.244 . S
C189 O167 1.259 . S
C189 O168 1.254 . S
O190 Zn160 2.082 . S
O190 C162 1.258 . S
O191 C162 1.244 . S
O191 Zn163 2.053 . S
Zn192 O193 2.055 . S
Zn192 O200 2.046 . S
Zn192 N208 2.036 . S
Zn192 O220 2.053 . S
Zn192 O222 2.066 . S
O193 Zn192 2.055 . S
O193 C196 1.259 . S
C194 O222 1.256 . S
C194 O223 1.244 . S
Zn195 O197 2.046 . S
Zn195 O199 2.055 . S
Zn195 N201 2.036 . S
Zn195 O219 2.066 . S
Zn195 O223 2.053 . S
C196 O193 1.259 . S
C196 O197 1.254 . S
O197 Zn195 2.046 . S
O197 C196 1.254 . S
C198 O219 1.256 . S
C198 O220 1.244 . S
O199 Zn195 2.055 . S
O199 C221 1.259 . S
O200 Zn192 2.046 . S
O200 C221 1.254 . S
N201 Zn195 2.036 . S
N201 C202 1.298 . S
N201 N204 1.398 . S
C202 N201 1.298 . S
C202 N205 1.367 . S
C202 C215 1.481 . S
C203 N204 1.299 . S
C203 N205 1.379 . S
N204 N201 1.398 . S
N204 C203 1.299 . S
N205 C202 1.367 . S
N205 C203 1.379 . S
C206 N208 1.298 . S
C206 N210 1.367 . S
C206 C214 1.481 . S
C207 N209 1.299 . S
C207 N210 1.379 . S
N208 Zn192 2.036 . S
N208 C206 1.298 . S
N208 N209 1.398 . S
N209 C207 1.299 . S
N209 N208 1.398 . S
N210 C206 1.367 . S
N210 C207 1.379 . S
H211 C214 0.980 . S
H212 C214 0.981 . S
H213 C214 0.981 . S
C214 C206 1.481 . S
C214 H211 0.980 . S
C214 H212 0.981 . S
C214 H213 0.981 . S
C215 C202 1.481 . S
C215 H216 0.980 . S
C215 H217 0.981 . S
C215 H218 0.981 . S
H216 C215 0.980 . S
H217 C215 0.981 . S
H218 C215 0.981 . S
O219 Zn195 2.066 . S
O219 C198 1.256 . S
O220 Zn192 2.053 . S
O220 C198 1.244 . S
C221 O199 1.259 . S
C221 O200 1.254 . S
O222 Zn192 2.066 . S
O222 C194 1.256 . S
O223 C194 1.244 . S
O223 Zn195 2.053 . S
Zn224 O225 2.055 . S
Zn224 O232 2.046 . S
Zn224 N240 2.036 . S
Zn224 O252 2.053 . S
Zn224 O254 2.066 . S
O225 Zn224 2.055 . S
O225 C228 1.259 . S
C226 O254 1.256 . S
C226 O255 1.244 . S
Zn227 O229 2.046 . S
Zn227 O231 2.055 . S
Zn227 N233 2.036 . S
Zn227 O251 2.066 . S
Zn227 O255 2.053 . S
C228 O225 1.259 . S
C228 O229 1.254 . S
O229 Zn227 2.046 . S
O229 C228 1.254 . S
C230 O251 1.256 . S
C230 O252 1.244 . S
O231 Zn227 2.055 . S
O231 C253 1.259 . S
O232 Zn224 2.046 . S
O232 C253 1.254 . S
N233 Zn227 2.036 . S
N233 C234 1.298 . S
N233 N236 1.398 . S
C234 N233 1.298 . S
C234 N237 1.367 . S
C234 C247 1.481 . S
C235 N236 1.299 . S
C235 N237 1.379 . S
N236 N233 1.398 . S
N236 C235 1.299 . S
N237 C234 1.367 . S
N237 C235 1.379 . S
C238 N240 1.298 . S
C238 N242 1.367 . S
C238 C246 1.481 . S
C239 N241 1.299 . S
C239 N242 1.379 . S
N240 Zn224 2.036 . S
N240 C238 1.298 . S
N240 N241 1.398 . S
N241 C239 1.299 . S
N241 N240 1.398 . S
N242 C238 1.367 . S
N242 C239 1.379 . S
H243 C246 0.980 . S
H244 C246 0.981 . S
H245 C246 0.981 . S
C246 C238 1.481 . S
C246 H243 0.980 . S
C246 H244 0.981 . S
C246 H245 0.981 . S
C247 C234 1.481 . S
C247 H248 0.980 . S
C247 H249 0.981 . S
C247 H250 0.981 . S
H248 C247 0.980 . S
H249 C247 0.981 . S
H250 C247 0.981 . S
O251 Zn227 2.066 . S
O251 C230 1.256 . S
O252 Zn224 2.053 . S
O252 C230 1.244 . S
C253 O231 1.259 . S
C253 O232 1.254 . S
O254 Zn224 2.066 . S
O254 C226 1.256 . S
O255 C226 1.244 . S
O255 Zn227 2.053 . S
Zn256 O257 2.055 . S
Zn256 O264 2.046 . S
Zn256 N272 2.036 . S
Zn256 O284 2.053 . S
Zn256 O286 2.066 . S
O257 Zn256 2.055 . S
O257 C260 1.259 . S
C258 O286 1.256 . S
C258 O287 1.244 . S
Zn259 O261 2.046 . S
Zn259 O263 2.055 . S
Zn259 N265 2.036 . S
Zn259 O283 2.066 . S
Zn259 O287 2.053 . S
C260 O257 1.259 . S
C260 O261 1.254 . S
O261 Zn259 2.046 . S
O261 C260 1.254 . S
C262 O283 1.256 . S
C262 O284 1.244 . S
O263 Zn259 2.055 . S
O263 C285 1.259 . S
O264 Zn256 2.046 . S
O264 C285 1.254 . S
N265 Zn259 2.036 . S
N265 C266 1.298 . S
N265 N268 1.398 . S
C266 N265 1.298 . S
C266 N269 1.367 . S
C266 C279 1.481 . S
C267 N268 1.299 . S
C267 N269 1.379 . S
N268 N265 1.398 . S
N268 C267 1.299 . S
N269 C266 1.367 . S
N269 C267 1.379 . S
C270 N272 1.298 . S
C270 N274 1.367 . S
C270 C278 1.481 . S
C271 N273 1.299 . S
C271 N274 1.379 . S
N272 Zn256 2.036 . S
N272 C270 1.298 . S
N272 N273 1.398 . S
N273 C271 1.299 . S
N273 N272 1.398 . S
N274 C270 1.367 . S
N274 C271 1.379 . S
H275 C278 0.980 . S
H276 C278 0.981 . S
H277 C278 0.981 . S
C278 C270 1.481 . S
C278 H275 0.980 . S
C278 H276 0.981 . S
C278 H277 0.981 . S
C279 C266 1.481 . S
C279 H280 0.980 . S
C279 H281 0.981 . S
C279 H282 0.981 . S
H280 C279 0.980 . S
H281 C279 0.981 . S
H282 C279 0.981 . S
O283 Zn259 2.066 . S
O283 C262 1.256 . S
O284 Zn256 2.053 . S
O284 C262 1.244 . S
C285 O263 1.259 . S
C285 O264 1.254 . S
O286 Zn256 2.066 . S
O286 C258 1.256 . S
O287 C258 1.244 . S
O287 Zn259 2.053 . S
Zn288 O289 2.055 . S
Zn288 O296 2.046 . S
Zn288 N304 2.036 . S
Zn288 O316 2.053 . S
Zn288 O318 2.066 . S
O289 Zn288 2.055 . S
O289 C292 1.259 . S
C290 O318 1.256 . S
C290 O319 1.244 . S
Zn291 O293 2.046 . S
Zn291 O295 2.055 . S
Zn291 N297 2.036 . S
Zn291 O315 2.066 . S
Zn291 O319 2.053 . S
C292 O289 1.259 . S
C292 O293 1.254 . S
O293 Zn291 2.046 . S
O293 C292 1.254 . S
C294 O315 1.256 . S
C294 O316 1.244 . S
O295 Zn291 2.055 . S
O295 C317 1.259 . S
O296 Zn288 2.046 . S
O296 C317 1.254 . S
N297 Zn291 2.036 . S
N297 C298 1.298 . S
N297 N300 1.398 . S
C298 N297 1.298 . S
C298 N301 1.367 . S
C298 C311 1.481 . S
C299 N300 1.299 . S
C299 N301 1.379 . S
N300 N297 1.398 . S
N300 C299 1.299 . S
N301 C298 1.367 . S
N301 C299 1.379 . S
C302 N304 1.298 . S
C302 N306 1.367 . S
C302 C310 1.481 . S
C303 N305 1.299 . S
C303 N306 1.379 . S
N304 Zn288 2.036 . S
N304 C302 1.298 . S
N304 N305 1.398 . S
N305 C303 1.299 . S
N305 N304 1.398 . S
N306 C302 1.367 . S
N306 C303 1.379 . S
H307 C310 0.980 . S
H308 C310 0.981 . S
H309 C310 0.981 . S
C310 C302 1.481 . S
C310 H307 0.980 . S
C310 H308 0.981 . S
C310 H309 0.981 . S
C311 C298 1.481 . S
C311 H312 0.980 . S
C311 H313 0.981 . S
C311 H314 0.981 . S
H312 C311 0.980 . S
H313 C311 0.981 . S
H314 C311 0.981 . S
O315 Zn291 2.066 . S
O315 C294 1.256 . S
O316 Zn288 2.053 . S
O316 C294 1.244 . S
C317 O295 1.259 . S
C317 O296 1.254 . S
O318 Zn288 2.066 . S
O318 C290 1.256 . S
O319 C290 1.244 . S
O319 Zn291 2.053 . S
Zn320 O321 2.055 . S
Zn320 O328 2.046 . S
Zn320 N336 2.036 . S
Zn320 O348 2.053 . S
Zn320 O350 2.066 . S
O321 Zn320 2.055 . S
O321 C324 1.259 . S
C322 O350 1.256 . S
C322 O351 1.244 . S
Zn323 O325 2.046 . S
Zn323 O327 2.055 . S
Zn323 N329 2.036 . S
Zn323 O347 2.082 . S
Zn323 O351 2.053 . S
C324 O321 1.259 . S
C324 O325 1.254 . S
O325 Zn323 2.046 . S
O325 C324 1.254 . S
C326 O347 1.258 . S
C326 O348 1.244 . S
O327 Zn323 2.055 . S
O327 C349 1.259 . S
O328 Zn320 2.046 . S
O328 C349 1.254 . S
N329 Zn323 2.036 . S
N329 C330 1.298 1_455 S
N329 N332 1.398 . S
C330 N329 1.298 1_655 S
C330 N333 1.367 . S
C330 C343 1.481 . S
C331 N332 1.299 1_655 S
C331 N333 1.379 . S
N332 N329 1.398 . S
N332 C331 1.299 1_455 S
N333 C330 1.367 . S
N333 C331 1.379 . S
C334 N336 1.298 . S
C334 N338 1.367 . S
C334 C342 1.481 . S
C335 N337 1.299 . S
C335 N338 1.379 . S
N336 Zn320 2.036 . S
N336 C334 1.298 . S
N336 N337 1.398 . S
N337 C335 1.299 . S
N337 N336 1.398 . S
N338 C334 1.367 . S
N338 C335 1.379 . S
H339 C342 0.980 . S
H340 C342 0.981 . S
H341 C342 0.981 . S
C342 C334 1.481 . S
C342 H339 0.980 . S
C342 H340 0.981 . S
C342 H341 0.981 . S
C343 C330 1.481 . S
C343 H344 0.980 1_655 S
C343 H345 0.981 . S
C343 H346 0.981 . S
H344 C343 0.980 1_455 S
H345 C343 0.981 . S
H346 C343 0.981 . S
O347 Zn323 2.082 . S
O347 C326 1.258 . S
O348 Zn320 2.053 . S
O348 C326 1.244 . S
C349 O327 1.259 . S
C349 O328 1.254 . S
O350 Zn320 2.066 . S
O350 C322 1.256 . S
O351 C322 1.244 . S
O351 Zn323 2.053 . S
Zn352 O353 2.055 . S
Zn352 O360 2.046 . S
Zn352 N368 2.036 . S
Zn352 O380 2.053 . S
Zn352 O382 2.066 . S
O353 Zn352 2.055 . S
O353 C356 1.259 . S
C354 O382 1.256 . S
C354 O383 1.244 . S
Zn355 O357 2.046 . S
Zn355 O359 2.055 . S
Zn355 N361 2.036 . S
Zn355 O379 2.082 . S
Zn355 O383 2.053 . S
C356 O353 1.259 . S
C356 O357 1.254 . S
O357 Zn355 2.046 . S
O357 C356 1.254 . S
C358 O379 1.258 . S
C358 O380 1.244 . S
O359 Zn355 2.055 . S
O359 C381 1.259 . S
O360 Zn352 2.046 . S
O360 C381 1.254 . S
N361 Zn355 2.036 . S
N361 C362 1.298 1_545 S
N361 N364 1.398 . S
C362 N361 1.298 1_565 S
C362 N365 1.367 . S
C362 C375 1.481 . S
C363 N364 1.299 1_565 S
C363 N365 1.379 . S
N364 N361 1.398 . S
N364 C363 1.299 1_545 S
N365 C362 1.367 . S
N365 C363 1.379 . S
C366 N368 1.298 . S
C366 N370 1.367 . S
C366 C374 1.481 . S
C367 N369 1.299 . S
C367 N370 1.379 . S
N368 Zn352 2.036 . S
N368 C366 1.298 . S
N368 N369 1.398 . S
N369 C367 1.299 . S
N369 N368 1.398 . S
N370 C366 1.367 . S
N370 C367 1.379 . S
H371 C374 0.980 . S
H372 C374 0.981 . S
H373 C374 0.981 . S
C374 C366 1.481 . S
C374 H371 0.980 . S
C374 H372 0.981 . S
C374 H373 0.981 . S
C375 C362 1.481 . S
C375 H376 0.980 1_565 S
C375 H377 0.981 . S
C375 H378 0.981 . S
H376 C375 0.980 1_545 S
H377 C375 0.981 . S
H378 C375 0.981 . S
O379 Zn355 2.082 . S
O379 C358 1.258 . S
O380 Zn352 2.053 . S
O380 C358 1.244 . S
C381 O359 1.259 . S
C381 O360 1.254 . S
O382 Zn352 2.066 . S
O382 C354 1.256 . S
O383 C354 1.244 . S
O383 Zn355 2.053 . S
Zn384 O385 2.055 . S
Zn384 O392 2.046 . S
Zn384 N400 2.036 . S
Zn384 O412 2.053 . S
Zn384 O414 2.082 . S
O385 Zn384 2.055 . S
O385 C388 1.259 . S
C386 O414 1.258 . S
C386 O415 1.244 . S
Zn387 O389 2.046 . S
Zn387 O391 2.055 . S
Zn387 N393 2.036 . S
Zn387 O411 2.066 . S
Zn387 O415 2.053 . S
C388 O385 1.259 . S
C388 O389 1.254 . S
O389 Zn387 2.046 . S
O389 C388 1.254 . S
C390 O411 1.256 . S
C390 O412 1.244 . S
O391 Zn387 2.055 . S
O391 C413 1.259 . S
O392 Zn384 2.046 . S
O392 C413 1.254 . S
N393 Zn387 2.036 . S
N393 C394 1.298 . S
N393 N396 1.398 . S
C394 N393 1.298 . S
C394 N397 1.367 . S
C394 C407 1.481 . S
C395 N396 1.299 . S
C395 N397 1.379 . S
N396 N393 1.398 . S
N396 C395 1.299 . S
N397 C394 1.367 . S
N397 C395 1.379 . S
C398 N400 1.298 1_455 S
C398 N402 1.367 . S
C398 C406 1.481 . S
C399 N401 1.299 1_455 S
C399 N402 1.379 . S
N400 Zn384 2.036 . S
N400 C398 1.298 1_655 S
N400 N401 1.398 . S
N401 C399 1.299 1_655 S
N401 N400 1.398 . S
N402 C398 1.367 . S
N402 C399 1.379 . S
H403 C406 0.980 1_655 S
H404 C406 0.981 . S
H405 C406 0.981 . S
C406 C398 1.481 . S
C406 H403 0.980 1_455 S
C406 H404 0.981 . S
C406 H405 0.981 . S
C407 C394 1.481 . S
C407 H408 0.980 . S
C407 H409 0.981 . S
C407 H410 0.981 . S
H408 C407 0.980 . S
H409 C407 0.981 . S
H410 C407 0.981 . S
O411 Zn387 2.066 . S
O411 C390 1.256 . S
O412 Zn384 2.053 . S
O412 C390 1.244 . S
C413 O391 1.259 . S
C413 O392 1.254 . S
O414 Zn384 2.082 . S
O414 C386 1.258 . S
O415 C386 1.244 . S
O415 Zn387 2.053 . S
Zn416 O417 2.055 . S
Zn416 O424 2.046 . S
Zn416 N432 2.036 . S
Zn416 O444 2.053 . S
Zn416 O446 2.066 . S
O417 Zn416 2.055 . S
O417 C420 1.259 . S
C418 O446 1.256 . S
C418 O447 1.244 . S
Zn419 O421 2.046 . S
Zn419 O423 2.055 . S
Zn419 N425 2.036 . S
Zn419 O443 2.082 . S
Zn419 O447 2.053 . S
C420 O417 1.259 . S
C420 O421 1.254 . S
O421 Zn419 2.046 . S
O421 C420 1.254 . S
C422 O443 1.258 . S
C422 O444 1.244 . S
O423 Zn419 2.055 . S
O423 C445 1.259 . S
O424 Zn416 2.046 . S
O424 C445 1.254 . S
N425 Zn419 2.036 . S
N425 C426 1.298 1_565 S
N425 N428 1.398 . S
C426 N425 1.298 1_545 S
C426 N429 1.367 . S
C426 C439 1.481 . S
C427 N428 1.299 1_545 S
C427 N429 1.379 . S
N428 N425 1.398 . S
N428 C427 1.299 1_565 S
N429 C426 1.367 . S
N429 C427 1.379 . S
C430 N432 1.298 . S
C430 N434 1.367 . S
C430 C438 1.481 . S
C431 N433 1.299 . S
C431 N434 1.379 . S
N432 Zn416 2.036 . S
N432 C430 1.298 . S
N432 N433 1.398 . S
N433 C431 1.299 . S
N433 N432 1.398 . S
N434 C430 1.367 . S
N434 C431 1.379 . S
H435 C438 0.980 . S
H436 C438 0.981 . S
H437 C438 0.981 . S
C438 C430 1.481 . S
C438 H435 0.980 . S
C438 H436 0.981 . S
C438 H437 0.981 . S
C439 C426 1.481 . S
C439 H440 0.980 1_545 S
C439 H441 0.981 . S
C439 H442 0.981 . S
H440 C439 0.980 1_565 S
H441 C439 0.981 . S
H442 C439 0.981 . S
O443 Zn419 2.082 . S
O443 C422 1.258 . S
O444 Zn416 2.053 . S
O444 C422 1.244 . S
C445 O423 1.259 . S
C445 O424 1.254 . S
O446 Zn416 2.066 . S
O446 C418 1.256 . S
O447 C418 1.244 . S
O447 Zn419 2.053 . S
Zn448 O449 2.055 . S
Zn448 O456 2.046 . S
Zn448 N464 2.036 . S
Zn448 O476 2.053 . S
Zn448 O478 2.066 . S
O449 Zn448 2.055 . S
O449 C452 1.259 . S
C450 O478 1.256 . S
C450 O479 1.244 . S
Zn451 O453 2.046 . S
Zn451 O455 2.055 . S
Zn451 N457 2.036 . S
Zn451 O475 2.066 . S
Zn451 O479 2.053 . S
C452 O449 1.259 . S
C452 O453 1.254 . S
O453 Zn451 2.046 . S
O453 C452 1.254 . S
C454 O475 1.256 . S
C454 O476 1.244 . S
O455 Zn451 2.055 . S
O455 C477 1.259 . S
O456 Zn448 2.046 . S
O456 C477 1.254 . S
N457 Zn451 2.036 . S
N457 C458 1.298 . S
N457 N460 1.398 . S
C458 N457 1.298 . S
C458 N461 1.367 . S
C458 C471 1.481 . S
C459 N460 1.299 . S
C459 N461 1.379 . S
N460 N457 1.398 . S
N460 C459 1.299 . S
N461 C458 1.367 . S
N461 C459 1.379 . S
C462 N464 1.298 . S
C462 N466 1.367 . S
C462 C470 1.481 . S
C463 N465 1.299 . S
C463 N466 1.379 . S
N464 Zn448 2.036 . S
N464 C462 1.298 . S
N464 N465 1.398 . S
N465 C463 1.299 . S
N465 N464 1.398 . S
N466 C462 1.367 . S
N466 C463 1.379 . S
H467 C470 0.980 . S
H468 C470 0.981 . S
H469 C470 0.981 . S
C470 C462 1.481 . S
C470 H467 0.980 . S
C470 H468 0.981 . S
C470 H469 0.981 . S
C471 C458 1.481 . S
C471 H472 0.980 . S
C471 H473 0.981 . S
C471 H474 0.981 . S
H472 C471 0.980 . S
H473 C471 0.981 . S
H474 C471 0.981 . S
O475 Zn451 2.066 . S
O475 C454 1.256 . S
O476 Zn448 2.053 . S
O476 C454 1.244 . S
C477 O455 1.259 . S
C477 O456 1.254 . S
O478 Zn448 2.066 . S
O478 C450 1.256 . S
O479 C450 1.244 . S
O479 Zn451 2.053 . S
Zn480 O481 2.055 . S
Zn480 O488 2.046 . S
Zn480 N496 2.036 . S
Zn480 O508 2.053 . S
Zn480 O510 2.066 . S
O481 Zn480 2.055 . S
O481 C484 1.259 . S
C482 O510 1.256 . S
C482 O511 1.244 . S
Zn483 O485 2.046 . S
Zn483 O487 2.055 . S
Zn483 N489 2.036 . S
Zn483 O507 2.066 . S
Zn483 O511 2.053 . S
C484 O481 1.259 . S
C484 O485 1.254 . S
O485 Zn483 2.046 . S
O485 C484 1.254 . S
C486 O507 1.256 . S
C486 O508 1.244 . S
O487 Zn483 2.055 . S
O487 C509 1.259 . S
O488 Zn480 2.046 . S
O488 C509 1.254 . S
N489 Zn483 2.036 . S
N489 C490 1.298 . S
N489 N492 1.398 . S
C490 N489 1.298 . S
C490 N493 1.367 . S
C490 C503 1.481 . S
C491 N492 1.299 . S
C491 N493 1.379 . S
N492 N489 1.398 . S
N492 C491 1.299 . S
N493 C490 1.367 . S
N493 C491 1.379 . S
C494 N496 1.298 . S
C494 N498 1.367 . S
C494 C502 1.481 . S
C495 N497 1.299 . S
C495 N498 1.379 . S
N496 Zn480 2.036 . S
N496 C494 1.298 . S
N496 N497 1.398 . S
N497 C495 1.299 . S
N497 N496 1.398 . S
N498 C494 1.367 . S
N498 C495 1.379 . S
H499 C502 0.980 . S
H500 C502 0.981 . S
H501 C502 0.981 . S
C502 C494 1.481 . S
C502 H499 0.980 . S
C502 H500 0.981 . S
C502 H501 0.981 . S
C503 C490 1.481 . S
C503 H504 0.980 . S
C503 H505 0.981 . S
C503 H506 0.981 . S
H504 C503 0.980 . S
H505 C503 0.981 . S
H506 C503 0.981 . S
O507 Zn483 2.066 . S
O507 C486 1.256 . S
O508 Zn480 2.053 . S
O508 C486 1.244 . S
C509 O487 1.259 . S
C509 O488 1.254 . S
O510 Zn480 2.066 . S
O510 C482 1.256 . S
O511 C482 1.244 . S
O511 Zn483 2.053 . S
C512 C513 1.387 . S
C512 H516 0.950 . S
C512 C521 1.390 . S
C513 C512 1.387 . S
C513 C515 1.387 . S
H514 C521 0.950 . S
C515 C513 1.387 . S
C515 C517 1.390 . S
C515 H519 0.950 . S
H516 C512 0.950 . S
C517 C515 1.390 . S
C517 C518 1.387 . S
C517 H520 0.950 . S
C518 C517 1.387 . S
C518 C521 1.387 . S
H519 C515 0.950 . S
H520 C517 0.950 . S
C521 C512 1.390 . S
C521 H514 0.950 . S
C521 C518 1.387 . S
C522 C523 1.387 . S
C522 H526 0.950 . S
C522 C531 1.390 . S
C523 C522 1.387 . S
C523 C525 1.387 . S
H524 C531 0.950 . S
C525 C523 1.387 . S
C525 C527 1.390 . S
C525 H529 0.950 . S
H526 C522 0.950 . S
C527 C525 1.390 . S
C527 C528 1.387 . S
C527 H530 0.950 . S
C528 C527 1.387 . S
C528 C531 1.387 . S
H529 C525 0.950 . S
H530 C527 0.950 . S
C531 C522 1.390 . S
C531 H524 0.950 . S
C531 C528 1.387 . S
C532 C533 1.387 . S
C532 H536 0.950 . S
C532 C541 1.390 . S
C533 C532 1.387 . S
C533 C535 1.387 . S
H534 C541 0.950 . S
C535 C533 1.387 . S
C535 C537 1.390 . S
C535 H539 0.950 . S
H536 C532 0.950 . S
C537 C535 1.390 . S
C537 C538 1.387 . S
C537 H540 0.950 . S
C538 C537 1.387 . S
C538 C541 1.387 . S
H539 C535 0.950 . S
H540 C537 0.950 . S
C541 C532 1.390 . S
C541 H534 0.950 . S
C541 C538 1.387 . S
C542 C543 1.387 . S
C542 H546 0.950 . S
C542 C551 1.390 . S
C543 C542 1.387 . S
C543 C545 1.387 . S
H544 C551 0.950 . S
C545 C543 1.387 . S
C545 C547 1.390 . S
C545 H549 0.950 . S
H546 C542 0.950 . S
C547 C545 1.390 . S
C547 C548 1.387 . S
C547 H550 0.950 . S
C548 C547 1.387 . S
C548 C551 1.387 . S
H549 C545 0.950 . S
H550 C547 0.950 . S
C551 C542 1.390 . S
C551 H544 0.950 . S
C551 C548 1.387 . S
C552 C553 1.387 . S
C552 H556 0.950 . S
C552 C561 1.390 . S
C553 C552 1.387 . S
C553 C555 1.387 . S
H554 C561 0.950 . S
C555 C553 1.387 . S
C555 C557 1.390 . S
C555 H559 0.950 . S
H556 C552 0.950 . S
C557 C555 1.390 . S
C557 C558 1.387 . S
C557 H560 0.950 . S
C558 C557 1.387 . S
C558 C561 1.387 . S
H559 C555 0.950 . S
H560 C557 0.950 . S
C561 C552 1.390 . S
C561 H554 0.950 . S
C561 C558 1.387 . S
C562 C563 1.387 . S
C562 H566 0.950 . S
C562 C571 1.390 . S
C563 C562 1.387 . S
C563 C565 1.387 . S
H564 C571 0.950 . S
C565 C563 1.387 . S
C565 C567 1.390 . S
C565 H569 0.950 . S
H566 C562 0.950 . S
C567 C565 1.390 . S
C567 C568 1.387 . S
C567 H570 0.950 . S
C568 C567 1.387 . S
C568 C571 1.387 . S
H569 C565 0.950 . S
H570 C567 0.950 . S
C571 C562 1.390 . S
C571 H564 0.950 . S
C571 C568 1.387 . S
C572 C573 1.387 . S
C572 H576 0.950 . S
C572 C581 1.390 . S
C573 C572 1.387 . S
C573 C575 1.387 . S
H574 C581 0.950 . S
C575 C573 1.387 . S
C575 C577 1.390 . S
C575 H579 0.950 . S
H576 C572 0.950 . S
C577 C575 1.390 . S
C577 C578 1.387 . S
C577 H580 0.950 . S
C578 C577 1.387 . S
C578 C581 1.387 . S
H579 C575 0.950 . S
H580 C577 0.950 . S
C581 C572 1.390 . S
C581 H574 0.950 . S
C581 C578 1.387 . S
C582 C583 1.387 . S
C582 H586 0.950 . S
C582 C591 1.390 . S
C583 C582 1.387 . S
C583 C585 1.387 . S
H584 C591 0.950 . S
C585 C583 1.387 . S
C585 C587 1.390 . S
C585 H589 0.950 . S
H586 C582 0.950 . S
C587 C585 1.390 . S
C587 C588 1.387 . S
C587 H590 0.950 . S
C588 C587 1.387 . S
C588 C591 1.387 . S
H589 C585 0.950 . S
H590 C587 0.950 . S
C591 C582 1.390 . S
C591 H584 0.950 . S
C591 C588 1.387 . S
C592 C593 1.387 . S
C592 H596 0.950 . S
C592 C601 1.390 . S
C593 C592 1.387 . S
C593 C595 1.387 . S
H594 C601 0.950 . S
C595 C593 1.387 . S
C595 C597 1.390 . S
C595 H599 0.950 . S
H596 C592 0.950 . S
C597 C595 1.390 . S
C597 C598 1.387 . S
C597 H600 0.950 . S
C598 C597 1.387 . S
C598 C601 1.387 . S
H599 C595 0.950 . S
H600 C597 0.950 . S
C601 C592 1.390 . S
C601 H594 0.950 . S
C601 C598 1.387 . S
C602 C603 1.387 . S
C602 H606 0.950 . S
C602 C611 1.390 . S
C603 C602 1.387 . S
C603 C605 1.387 . S
H604 C611 0.950 . S
C605 C603 1.387 . S
C605 C607 1.390 . S
C605 H609 0.950 . S
H606 C602 0.950 . S
C607 C605 1.390 . S
C607 C608 1.387 . S
C607 H610 0.950 . S
C608 C607 1.387 . S
C608 C611 1.387 . S
H609 C605 0.950 . S
H610 C607 0.950 . S
C611 C602 1.390 . S
C611 H604 0.950 . S
C611 C608 1.387 . S
C612 C613 1.387 . S
C612 H616 0.950 . S
C612 C621 1.390 . S
C613 C612 1.387 . S
C613 C615 1.387 . S
H614 C621 0.950 . S
C615 C613 1.387 . S
C615 C617 1.390 . S
C615 H619 0.950 . S
H616 C612 0.950 . S
C617 C615 1.390 . S
C617 C618 1.387 . S
C617 H620 0.950 . S
C618 C617 1.387 . S
C618 C621 1.387 . S
H619 C615 0.950 . S
H620 C617 0.950 . S
C621 C612 1.390 . S
C621 H614 0.950 . S
C621 C618 1.387 . S
C622 C623 1.387 . S
C622 H626 0.950 . S
C622 C631 1.390 . S
C623 C622 1.387 . S
C623 C625 1.387 . S
H624 C631 0.950 . S
C625 C623 1.387 . S
C625 C627 1.390 . S
C625 H629 0.950 . S
H626 C622 0.950 . S
C627 C625 1.390 . S
C627 C628 1.387 . S
C627 H630 0.950 . S
C628 C627 1.387 . S
C628 C631 1.387 . S
H629 C625 0.950 . S
H630 C627 0.950 . S
C631 C622 1.390 . S
C631 H624 0.950 . S
C631 C628 1.387 . S
C632 C633 1.387 . S
C632 H636 0.950 . S
C632 C641 1.390 . S
C633 C632 1.387 . S
C633 C635 1.387 . S
H634 C641 0.950 . S
C635 C633 1.387 . S
C635 C637 1.390 . S
C635 H639 0.950 . S
H636 C632 0.950 . S
C637 C635 1.390 . S
C637 C638 1.387 . S
C637 H640 0.950 . S
C638 C637 1.387 . S
C638 C641 1.387 . S
H639 C635 0.950 . S
H640 C637 0.950 . S
C641 C632 1.390 . S
C641 H634 0.950 . S
C641 C638 1.387 . S
C642 C643 1.387 . S
C642 H646 0.950 . S
C642 C651 1.390 . S
C643 C642 1.387 . S
C643 C645 1.387 . S
H644 C651 0.950 . S
C645 C643 1.387 . S
C645 C647 1.390 . S
C645 H649 0.950 . S
H646 C642 0.950 . S
C647 C645 1.390 . S
C647 C648 1.387 . S
C647 H650 0.950 . S
C648 C647 1.387 . S
C648 C651 1.387 . S
H649 C645 0.950 . S
H650 C647 0.950 . S
C651 C642 1.390 . S
C651 H644 0.950 . S
C651 C648 1.387 . S
C652 C653 1.387 . S
C652 H656 0.950 . S
C652 C661 1.390 . S
C653 C652 1.387 . S
C653 C655 1.387 . S
H654 C661 0.950 . S
C655 C653 1.387 . S
C655 C657 1.390 . S
C655 H659 0.950 . S
H656 C652 0.950 . S
C657 C655 1.390 . S
C657 C658 1.387 . S
C657 H660 0.950 . S
C658 C657 1.387 . S
C658 C661 1.387 . S
H659 C655 0.950 . S
H660 C657 0.950 . S
C661 C652 1.390 . S
C661 H654 0.950 . S
C661 C658 1.387 . S
C662 C663 1.387 . S
C662 H666 0.950 . S
C662 C671 1.390 . S
C663 C662 1.387 . S
C663 C665 1.387 . S
H664 C671 0.950 . S
C665 C663 1.387 . S
C665 C667 1.390 . S
C665 H669 0.950 . S
H666 C662 0.950 . S
C667 C665 1.390 . S
C667 C668 1.387 . S
C667 H670 0.950 . S
C668 C667 1.387 . S
C668 C671 1.387 . S
H669 C665 0.950 . S
H670 C667 0.950 . S
C671 C662 1.390 . S
C671 H664 0.950 . S
C671 C668 1.387 . S
C672 C673 1.387 . S
C672 H676 0.950 . S
C672 C681 1.390 . S
C673 C672 1.387 . S
C673 C675 1.387 . S
H674 C681 0.950 . S
C675 C673 1.387 . S
C675 C677 1.390 . S
C675 H679 0.950 . S
H676 C672 0.950 . S
C677 C675 1.390 . S
C677 C678 1.387 . S
C677 H680 0.950 . S
C678 C677 1.387 . S
C678 C681 1.387 . S
H679 C675 0.950 . S
H680 C677 0.950 . S
C681 C672 1.390 . S
C681 H674 0.950 . S
C681 C678 1.387 . S
C682 C683 1.387 . S
C682 H686 0.950 . S
C682 C691 1.390 . S
C683 C682 1.387 . S
C683 C685 1.387 . S
H684 C691 0.950 . S
C685 C683 1.387 . S
C685 C687 1.390 . S
C685 H689 0.950 . S
H686 C682 0.950 . S
C687 C685 1.390 . S
C687 C688 1.387 . S
C687 H690 0.950 . S
C688 C687 1.387 . S
C688 C691 1.387 . S
H689 C685 0.950 . S
H690 C687 0.950 . S
C691 C682 1.390 . S
C691 H684 0.950 . S
C691 C688 1.387 . S
C692 C693 1.387 . S
C692 H696 0.950 . S
C692 C701 1.390 . S
C693 C692 1.387 . S
C693 C695 1.387 . S
H694 C701 0.950 . S
C695 C693 1.387 . S
C695 C697 1.390 . S
C695 H699 0.950 . S
H696 C692 0.950 . S
C697 C695 1.390 . S
C697 C698 1.387 . S
C697 H700 0.950 . S
C698 C697 1.387 . S
C698 C701 1.387 . S
H699 C695 0.950 . S
H700 C697 0.950 . S
C701 C692 1.390 . S
C701 H694 0.950 . S
C701 C698 1.387 . S
C702 C703 1.387 . S
C702 H706 0.950 . S
C702 C711 1.390 . S
C703 C702 1.387 . S
C703 C705 1.387 . S
H704 C711 0.950 . S
C705 C703 1.387 . S
C705 C707 1.390 . S
C705 H709 0.950 . S
H706 C702 0.950 . S
C707 C705 1.390 . S
C707 C708 1.387 . S
C707 H710 0.950 . S
C708 C707 1.387 . S
C708 C711 1.387 . S
H709 C705 0.950 . S
H710 C707 0.950 . S
C711 C702 1.390 . S
C711 H704 0.950 . S
C711 C708 1.387 . S
C712 C713 1.387 . S
C712 H716 0.950 . S
C712 C721 1.390 . S
C713 C712 1.387 . S
C713 C715 1.387 . S
H714 C721 0.950 . S
C715 C713 1.387 . S
C715 C717 1.390 . S
C715 H719 0.950 . S
H716 C712 0.950 . S
C717 C715 1.390 . S
C717 C718 1.387 . S
C717 H720 0.950 . S
C718 C717 1.387 . S
C718 C721 1.387 . S
H719 C715 0.950 . S
H720 C717 0.950 . S
C721 C712 1.390 . S
C721 H714 0.950 . S
C721 C718 1.387 . S
C722 C723 1.387 . S
C722 H726 0.950 . S
C722 C731 1.390 . S
C723 C722 1.387 . S
C723 C725 1.387 . S
H724 C731 0.950 . S
C725 C723 1.387 . S
C725 C727 1.390 . S
C725 H729 0.950 . S
H726 C722 0.950 . S
C727 C725 1.390 . S
C727 C728 1.387 . S
C727 H730 0.950 . S
C728 C727 1.387 . S
C728 C731 1.387 . S
H729 C725 0.950 . S
H730 C727 0.950 . S
C731 C722 1.390 . S
C731 H724 0.950 . S
C731 C728 1.387 . S
C732 C733 1.387 . S
C732 H736 0.950 . S
C732 C741 1.390 . S
C733 C732 1.387 . S
C733 C735 1.387 . S
H734 C741 0.950 . S
C735 C733 1.387 . S
C735 C737 1.390 . S
C735 H739 0.950 . S
H736 C732 0.950 . S
C737 C735 1.390 . S
C737 C738 1.387 . S
C737 H740 0.950 . S
C738 C737 1.387 . S
C738 C741 1.387 . S
H739 C735 0.950 . S
H740 C737 0.950 . S
C741 C732 1.390 . S
C741 H734 0.950 . S
C741 C738 1.387 . S
C742 C743 1.387 . S
C742 H746 0.950 . S
C742 C751 1.390 . S
C743 C742 1.387 . S
C743 C745 1.387 . S
H744 C751 0.950 . S
C745 C743 1.387 . S
C745 C747 1.390 . S
C745 H749 0.950 . S
H746 C742 0.950 . S
C747 C745 1.390 . S
C747 C748 1.387 . S
C747 H750 0.950 . S
C748 C747 1.387 . S
C748 C751 1.387 . S
H749 C745 0.950 . S
H750 C747 0.950 . S
C751 C742 1.390 . S
C751 H744 0.950 . S
C751 C748 1.387 . S
C752 C753 1.387 . S
C752 H756 0.950 . S
C752 C761 1.390 . S
C753 C752 1.387 . S
C753 C755 1.387 . S
H754 C761 0.950 . S
C755 C753 1.387 . S
C755 C757 1.390 . S
C755 H759 0.950 . S
H756 C752 0.950 . S
C757 C755 1.390 . S
C757 C758 1.387 . S
C757 H760 0.950 . S
C758 C757 1.387 . S
C758 C761 1.387 . S
H759 C755 0.950 . S
H760 C757 0.950 . S
C761 C752 1.390 . S
C761 H754 0.950 . S
C761 C758 1.387 . S
C762 C763 1.387 . S
C762 H766 0.950 . S
C762 C771 1.390 . S
C763 C762 1.387 . S
C763 C765 1.387 . S
H764 C771 0.950 . S
C765 C763 1.387 . S
C765 C767 1.390 . S
C765 H769 0.950 . S
H766 C762 0.950 . S
C767 C765 1.390 . S
C767 C768 1.387 . S
C767 H770 0.950 . S
C768 C767 1.387 . S
C768 C771 1.387 . S
H769 C765 0.950 . S
H770 C767 0.950 . S
C771 C762 1.390 . S
C771 H764 0.950 . S
C771 C768 1.387 . S
C772 C773 1.387 . S
C772 H776 0.950 . S
C772 C781 1.390 . S
C773 C772 1.387 . S
C773 C775 1.387 . S
H774 C781 0.950 . S
C775 C773 1.387 . S
C775 C777 1.390 . S
C775 H779 0.950 . S
H776 C772 0.950 . S
C777 C775 1.390 . S
C777 C778 1.387 . S
C777 H780 0.950 . S
C778 C777 1.387 . S
C778 C781 1.387 . S
H779 C775 0.950 . S
H780 C777 0.950 . S
C781 C772 1.390 . S
C781 H774 0.950 . S
C781 C778 1.387 . S
C782 C783 1.387 . S
C782 H786 0.950 . S
C782 C791 1.390 . S
C783 C782 1.387 . S
C783 C785 1.387 . S
H784 C791 0.950 . S
C785 C783 1.387 . S
C785 C787 1.390 . S
C785 H789 0.950 . S
H786 C782 0.950 . S
C787 C785 1.390 . S
C787 C788 1.387 . S
C787 H790 0.950 . S
C788 C787 1.387 . S
C788 C791 1.387 . S
H789 C785 0.950 . S
H790 C787 0.950 . S
C791 C782 1.390 . S
C791 H784 0.950 . S
C791 C788 1.387 . S
C792 C793 1.387 . S
C792 H796 0.950 . S
C792 C801 1.390 . S
C793 C792 1.387 . S
C793 C795 1.387 . S
H794 C801 0.950 . S
C795 C793 1.387 . S
C795 C797 1.390 . S
C795 H799 0.950 . S
H796 C792 0.950 . S
C797 C795 1.390 . S
C797 C798 1.387 . S
C797 H800 0.950 . S
C798 C797 1.387 . S
C798 C801 1.387 . S
H799 C795 0.950 . S
H800 C797 0.950 . S
C801 C792 1.390 . S
C801 H794 0.950 . S
C801 C798 1.387 . S
C802 C803 1.387 . S
C802 H806 0.950 . S
C802 C811 1.390 . S
C803 C802 1.387 . S
C803 C805 1.387 . S
H804 C811 0.950 . S
C805 C803 1.387 . S
C805 C807 1.390 . S
C805 H809 0.950 . S
H806 C802 0.950 . S
C807 C805 1.390 . S
C807 C808 1.387 . S
C807 H810 0.950 . S
C808 C807 1.387 . S
C808 C811 1.387 . S
H809 C805 0.950 . S
H810 C807 0.950 . S
C811 C802 1.390 . S
C811 H804 0.950 . S
C811 C808 1.387 . S
C812 C813 1.387 . S
C812 H816 0.950 . S
C812 C821 1.390 . S
C813 C812 1.387 . S
C813 C815 1.387 . S
H814 C821 0.950 . S
C815 C813 1.387 . S
C815 C817 1.390 . S
C815 H819 0.950 . S
H816 C812 0.950 . S
C817 C815 1.390 . S
C817 C818 1.387 . S
C817 H820 0.950 . S
C818 C817 1.387 . S
C818 C821 1.387 . S
H819 C815 0.950 . S
H820 C817 0.950 . S
C821 C812 1.390 . S
C821 H814 0.950 . S
C821 C818 1.387 . S
C822 C823 1.387 . S
C822 H826 0.950 . S
C822 C831 1.390 . S
C823 C822 1.387 . S
C823 C825 1.387 . S
H824 C831 0.950 . S
C825 C823 1.387 . S
C825 C827 1.390 . S
C825 H829 0.950 . S
H826 C822 0.950 . S
C827 C825 1.390 . S
C827 C828 1.387 . S
C827 H830 0.950 . S
C828 C827 1.387 . S
C828 C831 1.387 . S
H829 C825 0.950 . S
H830 C827 0.950 . S
C831 C822 1.390 . S
C831 H824 0.950 . S
C831 C828 1.387 . S
C832 C833 1.387 . S
C832 H836 0.950 1_545 S
C832 C841 1.390 . S
C833 C832 1.387 . S
C833 C835 1.387 . S
H834 C841 0.950 . S
C835 C833 1.387 . S
C835 C837 1.390 . S
C835 H839 0.950 . S
H836 C832 0.950 1_565 S
C837 C835 1.390 . S
C837 C838 1.387 . S
C837 H840 0.950 . S
C838 C837 1.387 . S
C838 C841 1.387 . S
H839 C835 0.950 . S
H840 C837 0.950 . S
C841 C832 1.390 . S
C841 H834 0.950 . S
C841 C838 1.387 . S
C842 C843 1.387 . S
C842 H846 0.950 . S
C842 C851 1.390 . S
C843 C842 1.387 . S
C843 C845 1.387 . S
H844 C851 0.950 . S
C845 C843 1.387 . S
C845 C847 1.390 . S
C845 H849 0.950 . S
H846 C842 0.950 . S
C847 C845 1.390 . S
C847 C848 1.387 . S
C847 H850 0.950 . S
C848 C847 1.387 . S
C848 C851 1.387 . S
H849 C845 0.950 . S
H850 C847 0.950 . S
C851 C842 1.390 . S
C851 H844 0.950 . S
C851 C848 1.387 . S
C852 C853 1.387 . S
C852 H856 0.950 . S
C852 C861 1.390 . S
C853 C852 1.387 . S
C853 C855 1.387 . S
H854 C861 0.950 . S
C855 C853 1.387 . S
C855 C857 1.390 . S
C855 H859 0.950 . S
H856 C852 0.950 . S
C857 C855 1.390 . S
C857 C858 1.387 . S
C857 H860 0.950 . S
C858 C857 1.387 . S
C858 C861 1.387 . S
H859 C855 0.950 . S
H860 C857 0.950 . S
C861 C852 1.390 . S
C861 H854 0.950 . S
C861 C858 1.387 . S
C862 C863 1.387 . S
C862 H866 0.950 . S
C862 C871 1.390 . S
C863 C862 1.387 . S
C863 C865 1.387 . S
H864 C871 0.950 . S
C865 C863 1.387 . S
C865 C867 1.390 . S
C865 H869 0.950 . S
H866 C862 0.950 . S
C867 C865 1.390 . S
C867 C868 1.387 . S
C867 H870 0.950 . S
C868 C867 1.387 . S
C868 C871 1.387 . S
H869 C865 0.950 . S
H870 C867 0.950 . S
C871 C862 1.390 . S
C871 H864 0.950 . S
C871 C868 1.387 . S
C872 C873 1.387 . S
C872 H876 0.950 . S
C872 C881 1.390 1_556 S
C873 C872 1.387 . S
C873 C875 1.387 . S
H874 C881 0.950 . S
C875 C873 1.387 . S
C875 C877 1.390 1_556 S
C875 H879 0.950 . S
H876 C872 0.950 . S
C877 C875 1.390 1_554 S
C877 C878 1.387 . S
C877 H880 0.950 1_565 S
C878 C877 1.387 . S
C878 C881 1.387 . S
H879 C875 0.950 . S
H880 C877 0.950 1_545 S
C881 C872 1.390 1_554 S
C881 H874 0.950 . S
C881 C878 1.387 . S
C882 C883 1.387 1_556 S
C882 H886 0.950 . S
C882 C891 1.390 . S
C883 C882 1.387 1_554 S
C883 C885 1.387 . S
H884 C891 0.950 . S
C885 C883 1.387 . S
C885 C887 1.390 1_554 S
C885 H889 0.950 . S
H886 C882 0.950 . S
C887 C885 1.390 1_556 S
C887 C888 1.387 . S
C887 H890 0.950 . S
C888 C887 1.387 . S
C888 C891 1.387 . S
H889 C885 0.950 . S
H890 C887 0.950 . S
C891 C882 1.390 . S
C891 H884 0.950 . S
C891 C888 1.387 . S
C892 C893 1.387 . S
C892 H896 0.950 . S
C892 C901 1.390 1_556 S
C893 C892 1.387 . S
C893 C895 1.387 . S
H894 C901 0.950 . S
C895 C893 1.387 . S
C895 C897 1.390 1_556 S
C895 H899 0.950 . S
H896 C892 0.950 . S
C897 C895 1.390 1_554 S
C897 C898 1.387 . S
C897 H900 0.950 . S
C898 C897 1.387 . S
C898 C901 1.387 . S
H899 C895 0.950 . S
H900 C897 0.950 . S
C901 C892 1.390 1_554 S
C901 H894 0.950 . S
C901 C898 1.387 . S
C902 C903 1.387 . S
C902 H906 0.950 . S
C902 C911 1.390 1_554 S
C903 C902 1.387 . S
C903 C905 1.387 1_554 S
H904 C911 0.950 . S
C905 C903 1.387 1_556 S
C905 C907 1.390 . S
C905 H909 0.950 . S
H906 C902 0.950 . S
C907 C905 1.390 . S
C907 C908 1.387 . S
C907 H910 0.950 . S
C908 C907 1.387 . S
C908 C911 1.387 . S
H909 C905 0.950 . S
H910 C907 0.950 . S
C911 C902 1.390 1_556 S
C911 H904 0.950 . S
C911 C908 1.387 . S
C912 C913 1.387 . S
C912 H916 0.950 . S
C912 C921 1.390 . S
C913 C912 1.387 . S
C913 C915 1.387 . S
H914 C921 0.950 . S
C915 C913 1.387 . S
C915 C917 1.390 . S
C915 H919 0.950 1_565 S
H916 C912 0.950 . S
C917 C915 1.390 . S
C917 C918 1.387 . S
C917 H920 0.950 . S
C918 C917 1.387 . S
C918 C921 1.387 . S
H919 C915 0.950 1_545 S
H920 C917 0.950 . S
C921 C912 1.390 . S
C921 H914 0.950 . S
C921 C918 1.387 . S
C922 C923 1.387 . S
C922 H926 0.950 . S
C922 C931 1.390 . S
C923 C922 1.387 . S
C923 C925 1.387 . S
H924 C931 0.950 . S
C925 C923 1.387 . S
C925 C927 1.390 . S
C925 H929 0.950 . S
H926 C922 0.950 . S
C927 C925 1.390 . S
C927 C928 1.387 . S
C927 H930 0.950 . S
C928 C927 1.387 . S
C928 C931 1.387 . S
H929 C925 0.950 . S
H930 C927 0.950 . S
C931 C922 1.390 . S
C931 H924 0.950 . S
C931 C928 1.387 . S
C932 C933 1.387 . S
C932 H936 0.950 . S
C932 C941 1.390 . S
C933 C932 1.387 . S
C933 C935 1.387 . S
H934 C941 0.950 . S
C935 C933 1.387 . S
C935 C937 1.390 . S
C935 H939 0.950 . S
H936 C932 0.950 . S
C937 C935 1.390 . S
C937 C938 1.387 . S
C937 H940 0.950 . S
C938 C937 1.387 . S
C938 C941 1.387 . S
H939 C935 0.950 . S
H940 C937 0.950 . S
C941 C932 1.390 . S
C941 H934 0.950 . S
C941 C938 1.387 . S
C942 C943 1.387 . S
C942 H946 0.950 1_655 S
C942 C951 1.390 . S
C943 C942 1.387 . S
C943 C945 1.387 . S
H944 C951 0.950 . S
C945 C943 1.387 . S
C945 C947 1.390 . S
C945 H949 0.950 . S
H946 C942 0.950 1_455 S
C947 C945 1.390 . S
C947 C948 1.387 . S
C947 H950 0.950 . S
C948 C947 1.387 . S
C948 C951 1.387 . S
H949 C945 0.950 . S
H950 C947 0.950 . S
C951 C942 1.390 . S
C951 H944 0.950 . S
C951 C948 1.387 . S
C952 C953 1.387 . S
C952 H956 0.950 1_545 S
C952 C961 1.390 1_556 S
C953 C952 1.387 . S
C953 C955 1.387 . S
H954 C961 0.950 . S
C955 C953 1.387 . S
C955 C957 1.390 1_556 S
C955 H959 0.950 . S
H956 C952 0.950 1_565 S
C957 C955 1.390 1_554 S
C957 C958 1.387 . S
C957 H960 0.950 . S
C958 C957 1.387 . S
C958 C961 1.387 . S
H959 C955 0.950 . S
H960 C957 0.950 . S
C961 C952 1.390 1_554 S
C961 H954 0.950 . S
C961 C958 1.387 . S
C962 C963 1.387 . S
C962 H966 0.950 . S
C962 C971 1.390 1_556 S
C963 C962 1.387 . S
C963 C965 1.387 . S
H964 C971 0.950 . S
C965 C963 1.387 . S
C965 C967 1.390 1_556 S
C965 H969 0.950 . S
H966 C962 0.950 . S
C967 C965 1.390 1_554 S
C967 C968 1.387 . S
C967 H970 0.950 . S
C968 C967 1.387 . S
C968 C971 1.387 . S
H969 C965 0.950 . S
H970 C967 0.950 . S
C971 C962 1.390 1_554 S
C971 H964 0.950 . S
C971 C968 1.387 . S
C972 C973 1.387 . S
C972 H976 0.950 . S
C972 C981 1.390 1_554 S
C973 C972 1.387 . S
C973 C975 1.387 . S
H974 C981 0.950 . S
C975 C973 1.387 . S
C975 C977 1.412 . S
C975 H979 0.950 . S
H976 C972 0.950 . S
C977 C975 1.412 . S
C977 C978 1.370 1_554 S
C977 H980 0.945 1_554 S
C978 C977 1.370 1_556 S
C978 C981 1.387 . S
H979 C975 0.950 . S
H980 C977 0.945 1_556 S
C981 C972 1.390 1_556 S
C981 H974 0.950 . S
C981 C978 1.387 . S
C982 C983 1.387 . S
C982 H986 0.950 . S
C982 C991 1.390 . S
C983 C982 1.387 . S
C983 C985 1.387 . S
H984 C991 0.950 . S
C985 C983 1.387 . S
C985 C987 1.390 1_554 S
C985 H989 0.950 . S
H986 C982 0.950 . S
C987 C985 1.390 1_556 S
C987 C988 1.387 . S
C987 H990 0.950 . S
C988 C987 1.387 . S
C988 C991 1.387 1_556 S
H989 C985 0.950 . S
H990 C987 0.950 . S
C991 C982 1.390 . S
C991 H984 0.950 . S
C991 C988 1.387 1_554 S
C513 C4 1.600 . S
C518 C164 1.599 . S
C523 C221 1.598 . S
C528 C61 1.598 . S
C533 C68 1.597 . S
C538 C228 1.600 . S
C543 C125 1.597 . S
C548 C132 1.599 . S
C553 C445 1.598 . S
C558 C260 1.600 . S
C563 C477 1.598 . S
C568 C317 1.599 . S
C573 C349 1.600 . S
C578 C484 1.598 . S
C583 C381 1.598 . S
C588 C388 1.600 . S
C593 C2 2.107 . S
C598 N109 1.807 . S
C603 C38 2.108 . S
C608 N18 1.808 . S
C613 C66 2.106 1_455 S
C618 N45 1.808 . S
C623 C102 2.107 1_545 S
C628 N82 1.806 . S
C633 C130 2.106 1_655 S
C638 N178 1.808 . S
C643 N205 1.810 . S
C648 C162 2.107 1_565 S
C653 C198 2.107 . S
C658 N242 1.808 . S
C663 N146 1.809 . S
C668 C226 2.106 . S
C673 N365 1.808 . S
C678 C258 2.106 . S
C683 C294 2.107 . S
C688 N274 1.808 . S
C693 C326 2.107 1_655 S
C698 N301 1.808 . S
C703 C358 2.106 1_565 S
C708 N333 1.805 . S
C713 C386 2.106 1_455 S
C718 N429 1.808 . S
C723 C422 2.107 1_545 S
C728 N461 1.810 . S
C733 C454 2.108 . S
C738 N498 1.809 . S
C743 C482 2.107 . S
C748 N402 1.810 . S
C753 C29 1.309 . S
C758 C93 1.309 . S
C763 C36 1.313 . S
C768 C100 1.313 . S
C773 C196 1.309 . S
C778 C157 1.309 . S
C783 C253 1.309 . S
C788 C189 1.309 . S
C793 C324 1.309 . S
C798 C285 1.309 . S
C803 C356 1.309 . S
C808 C292 1.309 . S
C813 C413 1.309 . S
C818 C452 1.309 . S
C823 C420 1.313 . S
C828 C509 1.313 . S
C833 N13 1.503 . S
C838 C354 1.555 . S
C843 C262 1.555 . S
C848 N50 1.502 . S
C853 N77 1.503 . S
C858 C290 1.555 . S
C863 C322 1.555 . S
C868 N114 1.502 . S
C873 C418 1.556 . S
C878 N141 1.505 . S
C883 N173 1.502 . S
C888 C450 1.555 . S
C893 C486 1.556 . S
C898 N210 1.504 . S
C903 N237 1.505 . S
C908 C390 1.556 . S
C913 N269 1.503 . S
C918 C98 1.556 . S
C923 N306 1.505 . S
C928 C6 1.556 . S
C933 C34 1.556 . S
C938 N338 1.505 . S
C943 N370 1.504 . S
C948 C70 1.556 . S
C953 N397 1.504 . S
C958 C166 1.556 . S
C963 N434 1.503 . S
C968 C194 1.555 . S
C973 C230 1.555 . S
C978 N466 1.502 . S
C983 C134 1.556 . S
C988 N493 1.505 . S
