# Generated by pormake.
# Topology umj, (4)-cn, num edge types: 1
# Building blocks:
#     Node 0, Type 0, BuildingBlock: MUDLON_clean_sbu_0, # of connection points: 4
#     Node 1, Type 0, BuildingBlock: MUDLON_clean_sbu_0, # of connection points: 4
#     Node 2, Type 0, BuildingBlock: MUDLON_clean_sbu_0, # of connection points: 4
#     Node 3, Type 0, BuildingBlock: MUDLON_clean_sbu_0, # of connection points: 4
#     Node 4, Type 0, BuildingBlock: MUDLON_clean_sbu_0, # of connection points: 4
#     Node 5, Type 0, BuildingBlock: MUDLON_clean_sbu_0, # of connection points: 4
#     Node 6, Type 0, BuildingBlock: MUDLON_clean_sbu_0, # of connection points: 4
#     Node 7, Type 0, BuildingBlock: MUDLON_clean_sbu_0, # of connection points: 4
#     Node 8, Type 0, BuildingBlock: MUDLON_clean_sbu_0, # of connection points: 4
#     Node 9, Type 0, BuildingBlock: MUDLON_clean_sbu_0, # of connection points: 4
#     Node 10, Type 0, BuildingBlock: MUDLON_clean_sbu_0, # of connection points: 4
#     Node 11, Type 0, BuildingBlock: MUDLON_clean_sbu_0, # of connection points: 4
#     Edge 12, Type (0, 0), BuildingBlock: TEMPAE_clean_linker_10, # of connection points: 2
#     Edge 13, Type (0, 0), BuildingBlock: TEMPAE_clean_linker_10, # of connection points: 2
#     Edge 14, Type (0, 0), BuildingBlock: TEMPAE_clean_linker_10, # of connection points: 2
#     Edge 15, Type (0, 0), BuildingBlock: TEMPAE_clean_linker_10, # of connection points: 2
#     Edge 16, Type (0, 0), BuildingBlock: TEMPAE_clean_linker_10, # of connection points: 2
#     Edge 17, Type (0, 0), BuildingBlock: TEMPAE_clean_linker_10, # of connection points: 2
#     Edge 18, Type (0, 0), BuildingBlock: TEMPAE_clean_linker_10, # of connection points: 2
#     Edge 19, Type (0, 0), BuildingBlock: TEMPAE_clean_linker_10, # of connection points: 2
#     Edge 20, Type (0, 0), BuildingBlock: TEMPAE_clean_linker_10, # of connection points: 2
#     Edge 21, Type (0, 0), BuildingBlock: TEMPAE_clean_linker_10, # of connection points: 2
#     Edge 22, Type (0, 0), BuildingBlock: TEMPAE_clean_linker_10, # of connection points: 2
#     Edge 23, Type (0, 0), BuildingBlock: TEMPAE_clean_linker_10, # of connection points: 2
#     Edge 24, Type (0, 0), BuildingBlock: TEMPAE_clean_linker_10, # of connection points: 2
#     Edge 25, Type (0, 0), BuildingBlock: TEMPAE_clean_linker_10, # of connection points: 2
#     Edge 26, Type (0, 0), BuildingBlock: TEMPAE_clean_linker_10, # of connection points: 2
#     Edge 27, Type (0, 0), BuildingBlock: TEMPAE_clean_linker_10, # of connection points: 2
#     Edge 28, Type (0, 0), BuildingBlock: TEMPAE_clean_linker_10, # of connection points: 2
#     Edge 29, Type (0, 0), BuildingBlock: TEMPAE_clean_linker_10, # of connection points: 2
#     Edge 30, Type (0, 0), BuildingBlock: TEMPAE_clean_linker_10, # of connection points: 2
#     Edge 31, Type (0, 0), BuildingBlock: TEMPAE_clean_linker_10, # of connection points: 2
#     Edge 32, Type (0, 0), BuildingBlock: TEMPAE_clean_linker_10, # of connection points: 2
#     Edge 33, Type (0, 0), BuildingBlock: TEMPAE_clean_linker_10, # of connection points: 2
#     Edge 34, Type (0, 0), BuildingBlock: TEMPAE_clean_linker_10, # of connection points: 2
#     Edge 35, Type (0, 0), BuildingBlock: TEMPAE_clean_linker_10, # of connection points: 2
# Relax obj value: 0.017
# Max RMSD: 0.120
# Mean RMSD: 0.120
data_MOF--net-umj--node1-MUDLON_clean_sbu_0--edge1-TEMPAE_clean_linker_10
_symmetry_space_group_name_H-M    P1
_symmetry_Int_Tables_number       1
_symmetry_cell_setting            triclinic
loop_
_symmetry_equiv_pos_as_xyz
'x, y, z'
_cell_length_a     31.020962
_cell_length_b     31.073333
_cell_length_c     89.239038
_cell_angle_alpha  89.987116
_cell_angle_beta   90.00007
_cell_angle_gamma 119.9777
loop_
_atom_site_label
_atom_site_type_symbol
_atom_site_fract_x
_atom_site_fract_y
_atom_site_fract_z
_atom_type_partial_charge
Mg0 Mg 0.05241 0.28232 0.09277 0.0
C1 C 0.03361 0.28205 0.1248 0.0
O2 O 0.99291 0.27457 0.11798 0.0
C3 C 0.0919 0.32424 0.06295 0.0
O4 O 0.04873 0.32236 0.06369 0.0
C5 C 0.04415 0.36966 0.09515 0.0
O6 O 0.08813 0.3802 0.10022 0.0
O7 O 0.0145 0.32541 0.09077 0.0
O8 O 0.07053 0.2884 0.11682 0.0
O9 O 0.01811 0.20249 0.08903 0.0
C10 C 0.05294 0.192 0.08966 0.0
O11 O 0.09856 0.2286 0.0919 0.0
O12 O 0.10755 0.31203 0.07452 0.0
Mg13 Mg 0.76221 0.04181 0.42727 0.0
C14 C 0.74985 0.06146 0.46088 0.0
O15 O 0.71693 0.073 0.45605 0.0
C16 C 0.77377 0.08256 0.39743 0.0
O17 O 0.7349 0.03755 0.3971 0.0
C18 C 0.67356 0.05028 0.42349 0.0
O19 O 0.71185 0.09568 0.42347 0.0
O20 O 0.68192 0.01417 0.42483 0.0
O21 O 0.776 0.05361 0.45146 0.0
O22 O 0.80074 1.00016 0.42278 0.0
C23 C 0.84578 0.02807 0.42695 0.0
O24 O 0.85838 0.0721 0.43241 0.0
O25 O 0.79646 0.09911 0.40986 0.0
Mg26 Mg 0.73816 0.78099 0.76493 0.0
C27 C 0.70231 0.76447 0.79753 0.0
O28 O 0.66318 0.72559 0.79185 0.0
C29 C 0.72355 0.79201 0.73392 0.0
O30 O 0.74494 0.76486 0.73535 0.0
C31 C 0.65042 0.68434 0.75835 0.0
O32 O 0.63654 0.71695 0.75526 0.0
O33 O 0.69484 0.6999 0.76284 0.0
O34 O 0.73476 0.7965 0.7887 0.0
O35 O 0.81858 0.82286 0.76097 0.0
C36 C 0.8323 0.86833 0.7584 0.0
O37 O 0.79842 0.8819 0.75844 0.0
O38 O 0.7124 0.80696 0.74585 0.0
Mg39 Mg 0.96505 0.73905 0.09603 0.0
C40 C 0.93172 0.72806 0.13059 0.0
O41 O 0.89314 0.73257 0.12693 0.0
C42 C 0.89277 0.73547 0.07292 0.0
O43 O 0.91669 0.78322 0.07592 0.0
C44 C 0.96881 0.65012 0.09476 0.0
O45 O 0.92719 0.64126 0.1013 0.0
O46 O 0.9983 0.69407 0.0901 0.0
O47 O 0.96066 0.7286 0.1204 0.0
O48 O 0.00446 0.81929 0.09158 0.0
C49 C 0.9963 0.84489 0.10113 0.0
O50 O 0.97081 0.8227 0.11322 0.0
O51 O 0.90015 0.70651 0.08125 0.0
Mg52 Mg 0.22302 0.95661 0.42634 0.0
C53 C 0.24507 0.93447 0.45859 0.0
O54 O 0.27935 0.9278 0.45212 0.0
C55 C 0.22792 0.89178 0.402 0.0
O56 O 0.27485 0.91541 0.40609 0.0
C57 C 0.336 0.02427 0.43118 0.0
O58 O 0.32273 0.03154 0.4445 0.0
O59 O 0.3026 0.00162 0.42129 0.0
O60 O 0.21546 0.94151 0.45045 0.0
O61 O 0.17265 0.9857 0.42231 0.0
C62 C 0.12875 0.95456 0.42672 0.0
O63 O 0.1212 0.91274 0.43274 0.0
O64 O 0.19636 0.89599 0.41008 0.0
Mg65 Mg 0.28465 0.23129 0.76184 0.0
C66 C 0.25522 0.19308 0.79343 0.0
O67 O 0.21267 0.16557 0.78655 0.0
C68 C 0.31019 0.22926 0.73101 0.0
O69 O 0.29305 0.26016 0.73225 0.0
C70 C 0.37417 0.32676 0.75859 0.0
O71 O 0.3879 0.29309 0.75786 0.0
O72 O 0.32812 0.31236 0.76037 0.0
O73 O 0.29405 0.21915 0.78555 0.0
O74 O 0.20395 0.19072 0.75783 0.0
C75 C 0.1877 0.14821 0.75173 0.0
O76 O 0.21983 0.1349 0.74744 0.0
O77 O 0.31405 0.20866 0.74291 0.0
Mg78 Mg 0.73036 0.95479 0.6002 0.0
C79 C 0.69049 0.94008 0.56791 0.0
O80 O 0.65383 0.94323 0.57415 0.0
C81 C 0.73031 0.92522 0.63047 0.0
O82 O 0.75635 0.97395 0.6297 0.0
C83 C 0.64196 0.95851 0.60961 0.0
O84 O 0.63107 0.91247 0.61205 0.0
O85 O 0.68511 0.98936 0.60461 0.0
O86 O 0.72235 0.93726 0.57622 0.0
O87 O 0.81145 0.99493 0.60216 0.0
C88 C 0.82701 0.96643 0.59738 0.0
O89 O 0.79412 0.92237 0.59227 0.0
O90 O 0.71114 0.90098 0.61843 0.0
Mg91 Mg 0.76909 0.72312 0.9379 0.0
C92 C 0.76072 0.69606 0.90383 0.0
O93 O 0.72768 0.65087 0.90799 0.0
C94 C 0.77129 0.68694 0.96752 0.0
O95 O 0.73435 0.69619 0.96717 0.0
C96 C 0.67622 0.63108 0.93928 0.0
O97 O 0.71189 0.62008 0.93829 0.0
O98 O 0.68822 0.67676 0.9396 0.0
O99 O 0.78549 0.72864 0.91376 0.0
O100 O 0.81131 0.80155 0.94406 0.0
C101 C 0.857 0.81309 0.94426 0.0
O102 O 0.86772 0.77808 0.94126 0.0
O103 O 0.79581 0.69259 0.95548 0.0
Mg104 Mg 0.0578 0.77329 0.27032 0.0
C105 C 0.02588 0.74044 0.23964 0.0
O106 O 0.98923 0.70908 0.24826 0.0
C107 C 0.13076 0.84175 0.29383 0.0
O108 O 0.10894 0.86768 0.29085 0.0
C109 C 0.05798 0.68226 0.27245 0.0
O110 O 0.10129 0.7169 0.26732 0.0
O111 O 0.02549 0.69455 0.27563 0.0
O112 O 0.06535 0.77432 0.24585 0.0
O113 O 0.01889 0.81468 0.27438 0.0
C114 C 0.0353 0.85257 0.26583 0.0
O115 O 0.06936 0.85962 0.25586 0.0
O116 O 0.12167 0.80488 0.28552 0.0
Mg117 Mg 0.27645 0.04144 0.60009 0.0
C118 C 0.26373 0.00752 0.56988 0.0
O119 O 0.23995 0.96913 0.57885 0.0
C120 C 0.27873 0.08303 0.62887 0.0
O121 O 0.24591 0.03535 0.62934 0.0
C122 C 0.359 0.03001 0.61205 0.0
O123 O 0.37244 0.07627 0.61525 0.0
O124 O 0.31648 0.00249 0.60609 0.0
O125 O 0.28715 0.05064 0.57579 0.0
O126 O 0.19564 0.0071 0.60215 0.0
C127 C 0.18226 0.03688 0.59697 0.0
O128 O 0.21658 0.07907 0.59113 0.0
O129 O 0.30128 0.10152 0.61654 0.0
Mg130 Mg 0.22633 0.26148 0.93575 0.0
C131 C 0.22001 0.27948 0.90031 0.0
O132 O 0.2043 0.31098 0.9029 0.0
C133 C 0.15661 0.27264 0.95679 0.0
O134 O 0.12896 0.22527 0.95359 0.0
C135 C 0.32208 0.34806 0.93464 0.0
O136 O 0.2919 0.35552 0.92611 0.0
O137 O 0.30481 0.30647 0.94136 0.0
O138 O 0.22891 0.25878 0.91123 0.0
O139 O 0.18356 0.18337 0.94246 0.0
C140 C 0.14847 0.15712 0.93334 0.0
O141 O 0.14461 0.17793 0.921 0.0
O142 O 0.19542 0.29896 0.94896 0.0
Mg143 Mg 0.96622 0.22786 0.26873 0.0
C144 C 0.99817 0.24943 0.23765 0.0
O145 O 0.03785 0.27565 0.24596 0.0
C146 C 0.90147 0.22383 0.29484 0.0
O147 O 0.93064 0.27213 0.2939 0.0
C148 C 0.98409 0.32804 0.26566 0.0
O149 O 0.94599 0.29979 0.25701 0.0
O150 O 0.00514 0.30798 0.27279 0.0
O151 O 0.95677 0.22178 0.24424 0.0
O152 O 0.99941 0.18168 0.27327 0.0
C153 C 0.96611 0.13663 0.27087 0.0
O154 O 0.92188 0.12766 0.26653 0.0
O155 O 0.90378 0.19626 0.28465 0.0
C156 C 0.0442 0.29539 0.21472 0.0
C157 C 0.00306 0.25374 0.22106 0.0
C158 C 0.05121 0.30058 0.19914 0.0
C159 C 0.01675 0.26275 0.18955 0.0
C160 C 0.97526 0.22031 0.19586 0.0
C161 C 0.9686 0.21654 0.21155 0.0
C162 C 0.0952 0.34702 0.19294 0.0
C163 C 0.93799 0.17885 0.18604 0.0
C164 C 0.00508 0.29653 0.14935 0.0
C165 C 0.03395 0.281 0.14141 0.0
C166 C 0.99981 0.29139 0.16498 0.0
C167 C 0.02297 0.26898 0.17292 0.0
C168 C 0.05267 0.25363 0.16498 0.0
C169 C 0.05832 0.26038 0.14932 0.0
C170 C 0.96908 0.30969 0.17297 0.0
C171 C 0.0774 0.22894 0.173 0.0
H172 H 0.0709 0.32454 0.22196 0.0
H173 H 0.93698 0.1841 0.21637 0.0
H174 H 0.11858 0.33711 0.18598 0.0
H175 H 0.08198 0.36682 0.18557 0.0
H176 H 0.11878 0.37286 0.20191 0.0
H177 H 0.90923 0.14727 0.19267 0.0
H178 H 0.91918 0.19299 0.17861 0.0
H179 H 0.95736 0.16496 0.17873 0.0
H180 H 0.98628 0.31264 0.14329 0.0
H181 H 0.08008 0.2477 0.1432 0.0
H182 H 0.99165 0.33669 0.18182 0.0
H183 H 0.93683 0.27817 0.17856 0.0
H184 H 0.95497 0.32785 0.16522 0.0
H185 H 0.10288 0.25399 0.18178 0.0
H186 H 0.09894 0.21882 0.16524 0.0
H187 H 0.04881 0.19477 0.1787 0.0
C188 C 0.73658 0.06971 0.48821 0.0
C189 C 0.74836 0.04653 0.47675 0.0
C190 C 0.72999 0.05225 0.50307 0.0
C191 C 0.73317 0.00929 0.50643 0.0
C192 C 0.74537 0.98596 0.49488 0.0
C193 C 0.75369 0.00538 0.48025 0.0
C194 C 0.71889 0.07938 0.51514 0.0
C195 C 0.7475 0.9392 0.49781 0.0
C196 C 0.75074 0.98273 0.54703 0.0
C197 C 0.70141 0.95227 0.55178 0.0
C198 C 0.76165 0.00149 0.53232 0.0
C199 C 0.72242 0.98806 0.52194 0.0
C200 C 0.67268 0.95531 0.5265 0.0
C201 C 0.66271 0.93867 0.54145 0.0
C202 C 0.81499 0.03752 0.52812 0.0
C203 C 0.62987 0.93853 0.51567 0.0
H204 H 0.73234 0.10143 0.48554 0.0
H205 H 0.76194 0.98676 0.47138 0.0
H206 H 0.6806 0.05541 0.51945 0.0
H207 H 0.74478 0.08798 0.52471 0.0
H208 H 0.72214 0.11459 0.51098 0.0
H209 H 0.75819 0.92596 0.48768 0.0
H210 H 0.77456 0.94556 0.50685 0.0
H211 H 0.71055 0.90933 0.5017 0.0
H212 H 0.78077 0.99413 0.55504 0.0
H213 H 0.62456 0.91528 0.5451 0.0
H214 H 0.81875 0.07387 0.52506 0.0
H215 H 0.826 0.02391 0.51817 0.0
H216 H 0.84129 0.04345 0.53739 0.0
H217 H 0.62568 0.97065 0.51235 0.0
H218 H 0.59412 0.9095 0.52056 0.0
H219 H 0.63743 0.92362 0.50531 0.0
C220 C 0.76376 0.78114 0.81803 0.0
C221 C 0.71439 0.76407 0.81361 0.0
C222 C 0.77515 0.77311 0.83267 0.0
C223 C 0.73643 0.74882 0.84331 0.0
C224 C 0.68682 0.73395 0.8391 0.0
C225 C 0.6763 0.74089 0.82424 0.0
C226 C 0.82828 0.78827 0.8365 0.0
C227 C 0.64459 0.70946 0.8502 0.0
C228 C 0.74799 0.67727 0.87634 0.0
C229 C 0.76095 0.71154 0.88807 0.0
C230 C 0.74202 0.6897 0.86161 0.0
C231 C 0.74732 0.73695 0.85862 0.0
C232 C 0.76117 0.77197 0.8704 0.0
C233 C 0.76859 0.75913 0.88491 0.0
C234 C 0.72893 0.65181 0.84931 0.0
C235 C 0.76581 0.82215 0.86784 0.0
H236 H 0.79332 0.79831 0.8098 0.0
H237 H 0.6381 0.72752 0.82087 0.0
H238 H 0.84052 0.81205 0.84664 0.0
H239 H 0.83083 0.75467 0.83909 0.0
H240 H 0.85439 0.8087 0.82719 0.0
H241 H 0.60916 0.70469 0.84562 0.0
H242 H 0.63876 0.67236 0.85331 0.0
H243 H 0.65388 0.73185 0.86062 0.0
H244 H 0.742 0.64045 0.87871 0.0
H245 H 0.77782 0.78557 0.89397 0.0
H246 H 0.75456 0.66871 0.83966 0.0
H247 H 0.69069 0.63924 0.84522 0.0
H248 H 0.7308 0.61877 0.85316 0.0
H249 H 0.79223 0.84198 0.85859 0.0
H250 H 0.77866 0.84588 0.87802 0.0
H251 H 0.72915 0.81713 0.86445 0.0
C252 C 0.98379 0.71803 0.15023 0.0
C253 C 0.94551 0.7279 0.14654 0.0
C254 C 0.9996 0.72047 0.16511 0.0
C255 C 0.9769 0.73339 0.17666 0.0
C256 C 0.9381 0.74319 0.17305 0.0
C257 C 0.92272 0.7401 0.15806 0.0
C258 C 0.04059 0.70908 0.16848 0.0
C259 C 0.91297 0.75716 0.18504 0.0
C260 C 0.9805 0.69399 0.21675 0.0
C261 C 0.01794 0.73815 0.22319 0.0
C262 C 0.96767 0.69172 0.20158 0.0
C263 C 0.99245 0.73486 0.19259 0.0
C264 C 0.03125 0.77932 0.19891 0.0
C265 C 0.04379 0.78036 0.21413 0.0
C266 C 0.92672 0.64335 0.19527 0.0
C267 C 0.05841 0.82616 0.1897 0.0
H268 H 1.00162 0.70843 0.14144 0.0
H269 H 0.89339 0.74811 0.15533 0.0
H270 H 0.07213 0.7414 0.17404 0.0
H271 H 0.02682 0.67727 0.17635 0.0
H272 H 0.05465 0.69991 0.15822 0.0
H273 H 0.88428 0.76483 0.18037 0.0
H274 H 0.89498 0.72668 0.19336 0.0
H275 H 0.94105 0.79063 0.19113 0.0
H276 H 0.96054 0.6611 0.22366 0.0
H277 H 0.07244 0.81469 0.21908 0.0
H278 H 0.94027 0.63253 0.18525 0.0
H279 H 0.89509 0.648 0.19163 0.0
H280 H 0.91279 0.61258 0.20356 0.0
H281 H 0.07453 0.81912 0.17953 0.0
H282 H 0.08876 0.85715 0.1961 0.0
H283 H 0.03182 0.83793 0.18588 0.0
C284 C 0.28937 0.03771 0.54328 0.0
C285 C 0.26212 0.99895 0.55342 0.0
C286 C 0.28761 0.02838 0.52775 0.0
C287 C 0.25781 0.97923 0.52227 0.0
C288 C 0.23017 0.94017 0.53248 0.0
C289 C 0.2327 0.95046 0.54785 0.0
C290 C 0.31764 0.07103 0.5172 0.0
C291 C 0.19776 0.88729 0.52717 0.0
C292 C 0.21368 0.95612 0.4817 0.0
C293 C 0.24658 0.94301 0.47505 0.0
C294 C 0.21747 0.96878 0.49696 0.0
C295 C 0.25495 0.96821 0.50588 0.0
C296 C 0.28795 0.95456 0.49929 0.0
C297 C 0.2834 0.94216 0.48398 0.0
C298 C 0.18134 0.98282 0.50353 0.0
C299 C 0.32816 0.95308 0.50843 0.0
H300 H 0.3122 0.07521 0.54746 0.0
H301 H 0.2113 0.92011 0.55554 0.0
H302 H 0.34406 0.06388 0.51078 0.0
H303 H 0.29262 0.07426 0.50895 0.0
H304 H 0.33901 0.10699 0.52319 0.0
H305 H 0.1786 0.86111 0.53657 0.0
H306 H 0.16917 0.88519 0.51926 0.0
H307 H 0.22062 0.87479 0.52102 0.0
H308 H 0.18524 0.9572 0.47492 0.0
H309 H 0.30921 0.93242 0.47897 0.0
H310 H 0.20196 0.02038 0.50862 0.0
H311 H 0.15942 0.95648 0.5126 0.0
H312 H 0.15514 0.9827 0.49502 0.0
H313 H 0.35247 0.98988 0.51364 0.0
H314 H 0.3516 0.94286 0.50158 0.0
H315 H 0.31112 0.92574 0.51766 0.0
C316 C 0.29609 0.24167 0.81685 0.0
C317 C 0.25503 0.20187 0.80982 0.0
C318 C 0.293 0.255 0.83173 0.0
C319 C 0.24783 0.2279 0.83979 0.0
C320 C 0.20699 0.1865 0.83295 0.0
C321 C 0.21111 0.174 0.8181 0.0
C322 C 0.33753 0.29912 0.83867 0.0
C323 C 0.15828 0.15632 0.84114 0.0
C324 C 0.2462 0.23475 0.88235 0.0
C325 C 0.22809 0.26761 0.88475 0.0
C326 C 0.25368 0.2223 0.86783 0.0
C327 C 0.24273 0.24304 0.85529 0.0
C328 C 0.22498 0.27667 0.85759 0.0
C329 C 0.21791 0.28858 0.87228 0.0
C330 C 0.27267 0.18636 0.86591 0.0
C331 C 0.21279 0.29955 0.84451 0.0
H332 H 0.33011 0.26363 0.81056 0.0
H333 H 0.17915 0.14313 0.81282 0.0
H334 H 0.32845 0.32873 0.84107 0.0
H335 H 0.34709 0.28842 0.84949 0.0
H336 H 0.3707 0.31466 0.83124 0.0
H337 H 0.13067 0.12416 0.83445 0.0
H338 H 0.16454 0.1423 0.85188 0.0
H339 H 0.14216 0.18019 0.8439 0.0
H340 H 0.2544 0.21834 0.89187 0.0
H341 H 0.20404 0.31405 0.87398 0.0
H342 H 0.30679 0.20336 0.85891 0.0
H343 H 0.24443 0.15257 0.85998 0.0
H344 H 0.28128 0.17499 0.8768 0.0
H345 H 0.24571 0.31923 0.83709 0.0
H346 H 0.2009 0.32622 0.84815 0.0
H347 H 0.1825 0.26992 0.83774 0.0
C348 C 0.14344 0.30898 0.04426 0.0
C349 C 0.11576 0.33182 0.04803 0.0
C350 C 0.15567 0.30629 0.02921 0.0
C351 C 0.14008 0.32719 0.01775 0.0
C352 C 0.11576 0.35379 0.0217 0.0
C353 C 0.10381 0.35565 0.03676 0.0
C354 C 0.18199 0.27789 0.02549 0.0
C355 C 0.09892 0.37712 1.00993 0.0
C356 C 0.18816 0.33485 0.97787 0.0
C357 C 0.14984 0.29097 0.97151 0.0
C358 C 0.18542 0.34764 0.99284 0.0
C359 C 0.14335 0.3159 1.00165 0.0
C360 C 0.10373 0.2727 0.99508 0.0
C361 C 0.10744 0.26085 0.98014 0.0
C362 C 0.22826 0.39416 0.99939 0.0
C363 C 0.05788 0.23806 1.00399 0.0
H364 H 0.1526 0.29032 0.0529 0.0
H365 H 0.08279 0.3738 0.03962 0.0
H366 H 0.15546 0.24228 0.02 0.0
H367 H 0.21285 0.29918 0.01749 0.0
H368 H 0.19724 0.26951 0.03564 0.0
H369 H 0.0868 0.40211 1.01491 0.0
H370 H 0.12922 0.39866 1.00178 0.0
H371 H 0.0672 0.34747 1.00359 0.0
H372 H 0.22126 0.35824 0.97135 0.0
H373 H 0.0776 0.22694 0.97535 0.0
H374 H 0.24636 0.38401 1.00835 0.0
H375 H 0.21456 0.41747 1.00462 0.0
H376 H 0.25669 0.41663 0.99082 0.0
H377 H 0.06848 0.22287 1.01366 0.0
H378 H 0.02997 0.20651 0.99716 0.0
H379 H 0.04014 0.25868 1.00854 0.0
C380 C 0.75648 0.10125 0.37176 0.0
C381 C 0.79115 0.11056 0.38319 0.0
C382 C 0.77177 0.12134 0.35737 0.0
C383 C 0.82315 0.15071 0.35418 0.0
C384 C 0.85838 0.16163 0.36581 0.0
C385 C 0.8419 0.14179 0.38025 0.0
C386 C 0.7329 0.10974 0.34545 0.0
C387 C 0.91353 0.19239 0.36283 0.0
C388 C 0.86449 0.15481 0.31372 0.0
C389 C 0.87506 0.20231 0.30917 0.0
C390 C 0.84746 0.13754 0.32831 0.0
C391 C 0.83994 0.16813 0.33853 0.0
C392 C 0.84843 0.2152 0.33377 0.0
C393 C 0.86627 0.23187 0.31921 0.0
C394 C 0.83914 0.08722 0.33296 0.0
C395 C 0.83975 0.24845 0.34417 0.0
H396 H 0.71714 0.07731 0.37402 0.0
H397 H 0.8688 0.14863 0.38901 0.0
H398 H 0.73914 0.14448 0.33999 0.0
H399 H 0.73594 0.08626 0.33662 0.0
H400 H 0.69449 0.08987 0.35005 0.0
H401 H 0.93599 0.19928 0.37317 0.0
H402 H 0.92467 0.17299 0.35459 0.0
H403 H 0.9226 0.22866 0.35785 0.0
H404 H 0.87173 0.13197 0.3061 0.0
H405 H 0.87434 0.26863 0.31578 0.0
H406 H 0.80028 0.0634 0.33686 0.0
H407 H 0.86396 0.09147 0.34249 0.0
H408 H 0.84639 0.06786 0.32368 0.0
H409 H 0.8013 0.2282 0.34869 0.0
H410 H 0.84547 0.28275 0.3385 0.0
H411 H 0.86552 0.25928 0.35385 0.0
C412 C 0.69213 0.8338 0.71623 0.0
C413 C 0.71604 0.80622 0.71864 0.0
C414 C 0.68817 0.84928 0.70169 0.0
C415 C 0.70922 0.83747 0.68934 0.0
C416 C 0.73197 0.80835 0.6917 0.0
C417 C 0.7348 0.79291 0.70624 0.0
C418 C 0.66297 0.87968 0.69959 0.0
C419 C 0.75568 0.79554 0.67896 0.0
C420 C 0.68319 0.85434 0.64853 0.0
C421 C 0.72428 0.90099 0.64524 0.0
C422 C 0.67672 0.83368 0.663 0.0
C423 C 0.71271 0.85989 0.67427 0.0
C424 C 0.75443 0.90673 0.67089 0.0
C425 C 0.75942 0.92677 0.65651 0.0
C426 C 0.63141 0.78396 0.66625 0.0
C427 C 0.79439 0.93549 0.68241 0.0
H428 H 0.67721 0.84394 0.72571 0.0
H429 H 0.75323 0.77145 0.7079 0.0
H430 H 0.69111 0.91836 0.69657 0.0
H431 H 0.6358 0.86447 0.69025 0.0
H432 H 0.64334 0.88062 0.70989 0.0
H433 H 0.76882 0.76973 0.68247 0.0
H434 H 0.72892 0.77826 0.6696 0.0
H435 H 0.78797 0.83 0.67457 0.0
H436 H 0.65565 0.83456 0.63991 0.0
H437 H 0.79142 0.96277 0.65404 0.0
H438 H 0.61107 0.78709 0.67603 0.0
H439 H 0.64293 0.75651 0.66921 0.0
H440 H 0.6056 0.76952 0.65654 0.0
H441 H 0.77786 0.94251 0.69248 0.0
H442 H 0.82418 0.97172 0.67803 0.0
H443 H 0.81161 0.91334 0.68605 0.0
C444 C 0.8594 0.75082 0.0493 0.0
C445 C 0.86741 0.71826 0.0582 0.0
C446 C 0.84283 0.73893 0.03444 0.0
C447 C 0.83391 0.69322 0.02825 0.0
C448 C 0.84024 0.65934 0.03731 0.0
C449 C 0.85685 0.67221 0.0522 0.0
C450 C 0.83599 0.77595 0.02526 0.0
C451 C 0.83088 0.61018 0.03114 0.0
C452 C 0.75173 0.65784 0.99386 0.0
C453 C 0.78697 0.67775 0.98228 0.0
C454 C 0.76628 0.65919 1.00881 0.0
C455 C 0.81745 0.68137 1.01232 0.0
C456 C 0.85298 0.698 1.00055 0.0
C457 C 0.83727 0.69584 0.98561 0.0
C458 C 0.72705 0.64047 0.02092 0.0
C459 C 0.90789 0.72162 1.00381 0.0
H460 H 0.86737 0.78643 0.05382 0.0
H461 H 0.86329 0.64694 0.05893 0.0
H462 H 0.861 0.78764 0.01537 0.0
H463 H 0.79723 0.75848 0.02103 0.0
H464 H 0.84402 0.80959 0.03179 0.0
H465 H 0.83488 0.58683 0.03984 0.0
H466 H 0.79293 0.58927 0.0263 0.0
H467 H 0.85756 0.61671 0.02195 0.0
H468 H 0.7127 0.64339 0.99131 0.0
H469 H 0.86466 0.71151 0.97671 0.0
H470 H 0.72921 0.67256 0.02706 0.0
H471 H 0.73346 0.61755 0.02917 0.0
H472 H 0.68889 0.61804 0.01628 0.0
H473 H 0.92135 0.75877 1.00889 0.0
H474 H 0.92991 0.72627 0.9935 0.0
H475 H 0.91497 0.69897 1.01198 0.0
C476 C 0.15651 0.80782 0.31541 0.0
C477 C 0.1549 0.84782 0.30865 0.0
C478 C 0.17021 0.80986 0.33054 0.0
C479 C 0.1833 0.85318 0.33904 0.0
C480 C 0.18453 0.89467 0.33201 0.0
C481 C 0.17 0.89135 0.31696 0.0
C482 C 0.16809 0.76472 0.33763 0.0
C483 C 0.19921 0.94196 0.34056 0.0
C484 C 0.16563 0.85159 0.38124 0.0
C485 C 0.21475 0.87249 0.38643 0.0
C486 C 0.15446 0.84236 0.3659 0.0
C487 C 0.19338 0.85473 0.35545 0.0
C488 C 0.24251 0.8729 0.36071 0.0
C489 C 0.25254 0.88124 0.37612 0.0
C490 C 0.10137 0.822 0.3608 0.0
C491 C 0.28511 0.8867 0.34998 0.0
H492 H 0.14444 0.77382 0.30913 0.0
H493 H 0.16898 0.92244 0.31181 0.0
H494 H 0.20311 0.77524 0.34374 0.0
H495 H 0.13739 0.74844 0.34594 0.0
H496 H 0.16174 0.73577 0.32922 0.0
H497 H 0.20177 0.97201 0.33321 0.0
H498 H 0.17138 0.93462 0.34946 0.0
H499 H 0.23568 0.95529 0.34614 0.0
H500 H 0.13611 0.84441 0.3891 0.0
H501 H 0.29066 0.89728 0.37996 0.0
H502 H 0.09045 0.79051 0.35295 0.0
H503 H 0.09805 0.85128 0.35466 0.0
H504 H 0.07481 0.80914 0.37034 0.0
H505 H 0.27564 0.85633 0.34183 0.0
H506 H 0.31995 0.89496 0.35589 0.0
H507 H 0.29217 0.92009 0.3435 0.0
C508 C 0.25181 0.09769 0.65355 0.0
C509 C 0.28964 0.11221 0.64285 0.0
C510 C 0.26132 0.12027 0.66768 0.0
C511 C 0.31023 0.15786 0.67136 0.0
C512 C 0.34866 0.17318 0.66054 0.0
C513 C 0.33778 0.15044 0.6463 0.0
C514 C 0.2189 0.10354 0.6787 0.0
C515 C 0.40136 0.21263 0.66414 0.0
C516 C 0.31299 0.23949 0.70325 0.0
C517 C 0.31864 0.21543 0.7158 0.0
C518 C 0.31325 0.223 0.68865 0.0
C519 C 0.31992 0.18164 0.68645 0.0
C520 C 0.32914 0.15928 0.69898 0.0
C521 C 0.32815 0.17629 0.71355 0.0
C522 C 0.30279 0.2477 0.67568 0.0
C523 C 0.33723 0.11559 0.69707 0.0
H524 H 0.2145 0.06818 0.6509 0.0
H525 H 0.36724 0.16116 0.63812 0.0
H526 H 0.22686 0.08843 0.68893 0.0
H527 H 0.21492 0.13566 0.68218 0.0
H528 H 0.18286 0.07454 0.67395 0.0
H529 H 0.42682 0.22089 0.65446 0.0
H530 H 0.40246 0.24743 0.66763 0.0
H531 H 0.41541 0.20029 0.6737 0.0
H532 H 0.30618 0.27018 0.70482 0.0
H533 H 0.33289 0.15769 0.72315 0.0
H534 H 0.26531 0.22197 0.67107 0.0
H535 H 0.33008 0.2562 0.66653 0.0
H536 H 0.30394 0.28266 0.67907 0.0
H537 H 0.30158 0.08222 0.69393 0.0
H538 H 0.35115 0.10721 0.70751 0.0
H539 H 0.36416 0.12275 0.6879 0.0
C540 C 0.01578 0.61122 0.0835 0.0
C541 C 0.98041 0.6094 0.09364 0.0
C542 C 0.0254 0.57153 0.08249 0.0
C543 C 0.99974 0.52974 0.09204 0.0
C544 C 0.9641 0.52794 0.10228 0.0
C545 C 0.95464 0.5675 0.10286 0.0
C546 C 0.06323 0.57441 0.0713 0.0
C547 C 0.93672 0.48472 0.11291 0.0
C548 C 0.99382 0.406 0.08478 0.0
C549 C 0.03152 0.40968 0.09427 0.0
C550 C 0.98406 0.44551 0.08352 0.0
C551 C 0.01212 0.48919 0.09215 0.0
C552 C 0.05005 0.49285 0.10176 0.0
C553 C 0.05946 0.45327 0.10262 0.0
C554 C 0.94364 0.44052 0.07304 0.0
C555 C 0.08014 0.53823 0.1114 0.0
H556 H 0.0355 0.64332 0.07628 0.0
H557 H 0.92744 0.56588 0.11081 0.0
H558 H 0.09507 0.57541 0.07727 0.0
H559 H 0.04646 0.54079 0.0641 0.0
H560 H 0.07758 0.60782 0.06403 0.0
H561 H 0.90931 0.48853 0.11997 0.0
H562 H 0.91681 0.44944 0.10654 0.0
H563 H 0.96371 0.48178 0.12039 0.0
H564 H 0.97251 0.37262 0.07818 0.0
H565 H 0.08859 0.45635 0.11002 0.0
H566 H 0.95873 0.47247 0.06518 0.0
H567 H 0.91348 0.44115 0.07953 0.0
H568 H 0.92734 0.40556 0.06643 0.0
H569 H 0.09849 0.57203 0.10431 0.0
H570 H 0.10917 0.53573 0.118 0.0
H571 H 0.05516 0.54299 0.11928 0.0
C572 C 0.61663 0.08367 0.41861 0.0
C573 C 0.62258 0.04334 0.42278 0.0
C574 C 0.56998 0.08059 0.41909 0.0
C575 C 0.52786 0.03607 0.42391 0.0
C576 C 0.53317 0.99459 0.4277 0.0
C577 C 0.5805 0.99864 0.42705 0.0
C578 C 0.5661 0.1256 0.41483 0.0
C579 C 0.48912 0.94644 0.43289 0.0
C580 C 0.42101 0.04741 0.44069 0.0
C581 C 0.38683 0.03179 0.42881 0.0
C582 C 0.46675 0.04862 0.43926 0.0
C583 C 0.47892 0.03403 0.42559 0.0
C584 C 0.4451 0.01923 0.41344 0.0
C585 C 0.39957 0.01832 0.41518 0.0
C586 C 0.50183 0.06495 0.45248 0.0
C587 C 0.45676 0.00376 0.39864 0.0
H588 H 0.6488 0.11829 0.41515 0.0
H589 H 0.58478 0.96738 0.43031 0.0
H590 H 0.53715 0.11564 0.40611 0.0
H591 H 0.55465 0.13906 0.42474 0.0
H592 H 0.60185 0.15653 0.41055 0.0
H593 H 0.49875 0.91683 0.43462 0.0
H594 H 0.47477 0.95256 0.44359 0.0
H595 H 0.45853 0.93326 0.42457 0.0
H596 H 0.41156 0.0576 0.4513 0.0
H597 H 0.37347 0.00602 0.40592 0.0
H598 H 0.53797 0.09774 0.44937 0.0
H599 H 0.50938 0.03486 0.45572 0.0
H600 H 0.48671 0.07472 0.46237 0.0
H601 H 0.49165 0.03464 0.39393 0.0
H602 H 0.42646 0.99299 0.39031 0.0
H603 H 0.46291 0.97186 0.40035 0.0
C604 C 0.45644 0.39324 0.74947 0.0
C605 C 0.41275 0.37983 0.75756 0.0
C606 C 0.49577 0.4425 0.74917 0.0
C607 C 0.49191 0.4792 0.75747 0.0
C608 C 0.44767 0.46599 0.76559 0.0
C609 C 0.40825 0.41645 0.76539 0.0
C610 C 0.54156 0.45519 0.74 0.0
C611 C 0.44246 0.50395 0.77476 0.0
C612 C 0.61291 0.5967 0.76765 0.0
C613 C 0.61299 0.63091 0.75742 0.0
C614 C 0.57346 0.54721 0.76791 0.0
C615 C 0.53398 0.53149 0.75744 0.0
C616 C 0.53499 0.56563 0.74675 0.0
C617 C 0.57411 0.61501 0.74701 0.0
C618 C 0.57332 0.51207 0.77961 0.0
C619 C 0.49453 0.55014 0.73512 0.0
H620 H 0.45991 0.36502 0.74332 0.0
H621 H 0.37472 0.40605 0.77177 0.0
H622 H 0.54872 0.48505 0.73186 0.0
H623 H 0.57457 0.46948 0.74742 0.0
H624 H 0.53792 0.42263 0.73374 0.0
H625 H 0.40604 0.48761 0.78062 0.0
H626 H 0.47264 0.52058 0.78323 0.0
H627 H 0.44637 0.53456 0.76744 0.0
H628 H 0.64258 0.60912 0.77584 0.0
H629 H 0.57419 0.64142 0.73905 0.0
H630 H 0.57244 0.4796 0.77414 0.0
H631 H 0.5393 0.49773 0.78661 0.0
H632 H 0.60643 0.53016 0.78705 0.0
H633 H 0.49094 0.51813 0.72858 0.0
H634 H 0.5019 0.58073 0.72722 0.0
H635 H 0.45824 0.53785 0.74068 0.0
C636 C 0.43614 0.0388 0.62351 0.0
C637 C 0.39638 0.01391 0.61347 0.0
C638 C 0.47615 0.02976 0.62367 0.0
C639 C 0.47691 0.99556 0.61336 0.0
C640 C 0.43616 0.96921 0.60348 0.0
C641 C 0.39609 0.97839 0.60374 0.0
C642 C 0.51821 0.05776 0.63463 0.0
C643 C 0.43576 0.93267 0.59226 0.0
C644 C 0.6029 0.01009 0.60318 0.0
C645 C 0.60239 0.97151 0.61145 0.0
C646 C 0.56224 0.01834 0.60368 0.0
C647 C 0.5206 0.98781 0.61285 0.0
C648 C 0.52076 0.94991 0.62159 0.0
C649 C 0.56142 0.942 0.62069 0.0
C650 C 0.56326 0.0589 0.59411 0.0
C651 C 0.47769 0.91725 0.63175 0.0
H652 H 0.43644 0.0662 0.6311 0.0
H653 H 0.36573 0.9595 0.59585 0.0
H654 H 0.52478 0.03138 0.64127 0.0
H655 H 0.55305 0.08228 0.62844 0.0
H656 H 0.51061 0.08095 0.64247 0.0
H657 H 0.40087 0.91442 0.58558 0.0
H658 H 0.46772 0.95212 0.58447 0.0
H659 H 0.44017 0.90356 0.59808 0.0
H660 H 0.63423 0.03265 0.59592 0.0
H661 H 0.56093 0.91224 0.62717 0.0
H662 H 0.55897 0.08574 0.60125 0.0
H663 H 0.5315 0.04265 0.58616 0.0
H664 H 0.59836 0.07941 0.58761 0.0
H665 H 0.47073 0.94047 0.63973 0.0
H666 H 0.48442 0.89064 0.63823 0.0
H667 H 0.44334 0.89589 0.62501 0.0
C668 C 0.40267 0.39241 0.94888 0.0
C669 C 0.37444 0.38818 0.93614 0.0
C670 C 0.45137 0.43279 0.95052 0.0
C671 C 0.47241 0.46891 0.93899 0.0
C672 C 0.44415 0.46423 0.92603 0.0
C673 C 0.39546 0.42426 0.92484 0.0
C674 C 0.48022 0.43698 0.96459 0.0
C675 C 0.46554 0.50111 0.9133 0.0
C676 C 0.58553 0.59722 0.94508 0.0
C677 C 0.62384 0.59025 0.93953 0.0
C678 C 0.53612 0.55752 0.94552 0.0
C679 C 0.52487 0.51025 0.93997 0.0
C680 C 0.56353 0.50322 0.93435 0.0
C681 C 0.61247 0.54311 0.93432 0.0
C682 C 0.4959 0.56618 0.95178 0.0
C683 C 0.55307 0.45385 0.92799 0.0
H684 H 0.38633 0.36486 0.9577 0.0
H685 H 0.37387 0.42101 0.91491 0.0
H686 H 0.51399 0.43501 0.96174 0.0
H687 H 0.49285 0.47354 0.96999 0.0
H688 H 0.45781 0.40714 0.97279 0.0
H689 H 0.43853 0.49218 0.90401 0.0
H690 H 0.47724 0.53906 0.91741 0.0
H691 H 0.49916 0.50172 0.90877 0.0
H692 H 0.59424 0.63346 0.94924 0.0
H693 H 0.64186 0.53748 0.92993 0.0
H694 H 0.47478 0.53833 0.96061 0.0
H695 H 0.46912 0.56137 0.94281 0.0
H696 H 0.51119 0.60397 0.95662 0.0
H697 H 0.5338 0.42403 0.93643 0.0
H698 H 0.58754 0.4542 0.9244 0.0
H699 H 0.52794 0.44415 0.91817 0.0
C700 C 0.00318 0.59204 0.27938 0.0
C701 C 0.0479 0.63035 0.27351 0.0
C702 C 0.99352 0.54265 0.2796 0.0
C703 C 0.02916 0.53141 0.27364 0.0
C704 C 0.07477 0.57017 0.26805 0.0
C705 C 0.08364 0.61901 0.26813 0.0
C706 C 0.94466 0.5023 0.28581 0.0
C707 C 0.11351 0.55986 0.2614 0.0
C708 C 0.02247 0.40708 0.28069 0.0
C709 C 0.99837 0.3808 0.26767 0.0
C710 C 0.03177 0.45583 0.283 0.0
C711 C 0.01734 0.4789 0.27193 0.0
C712 C 0.99371 0.45265 0.25868 0.0
C713 C 0.98426 0.40394 0.25678 0.0
C714 C 0.05663 0.48254 0.29732 0.0
C715 C 0.97866 0.47612 0.24644 0.0
H716 H 0.97553 0.6005 0.28364 0.0
H717 H 0.11842 0.64825 0.26359 0.0
H718 H 0.92181 0.47726 0.27661 0.0
H719 H 0.95121 0.4794 0.29404 0.0
H720 H 0.92308 0.51758 0.29133 0.0
H721 H 0.14823 0.59447 0.25832 0.0
H722 H 0.12297 0.53859 0.26942 0.0
H723 H 0.09835 0.53673 0.25118 0.0
H724 H 0.03288 0.38911 0.28922 0.0
H725 H 0.96575 0.38387 0.24666 0.0
H726 H 0.03278 0.49443 0.30319 0.0
H727 H 0.09238 0.5166 0.29473 0.0
H728 H 0.0641 0.45894 0.30503 0.0
H729 H 0.95275 0.48775 0.25096 0.0
H730 H 0.9603 0.4505 0.23687 0.0
H731 H 0.01193 0.50999 0.24218 0.0
C732 C 0.99577 0.09931 0.08732 0.0
C733 C 0.04379 0.14033 0.08889 0.0
C734 C 0.98777 0.05049 0.08773 0.0
C735 C 0.02868 0.04268 0.08989 0.0
C736 C 0.07729 0.08402 0.09095 0.0
C737 C 0.08423 0.13213 0.09037 0.0
C738 C 0.9354 0.00728 0.0864 0.0
C739 C 0.12192 0.07753 0.0934 0.0
C740 C 0.00664 0.92559 0.10988 0.0
C741 C 0.00851 0.8967 0.09809 0.0
C742 C 0.01274 0.97281 0.1073 0.0
C743 C 0.02062 0.99177 0.09251 0.0
C744 C 0.02308 0.96308 0.08054 0.0
C745 C 0.01724 0.9159 0.08347 0.0
C746 C 0.01068 0.0024 0.12044 0.0
C747 C 0.03125 0.98201 0.06462 0.0
H748 H 0.96439 0.10527 0.08609 0.0
H749 H 0.12161 0.16345 0.0915 0.0
H750 H 0.93382 0.9804 0.07793 0.0
H751 H 0.92364 0.98738 0.09727 0.0
H752 H 0.90844 0.01935 0.08323 0.0
H753 H 0.15758 0.11336 0.09292 0.0
H754 H 0.11908 0.06038 0.10453 0.0
H755 H 0.12292 0.05213 0.08485 0.0
H756 H 0.99995 0.91105 0.12121 0.0
H757 H 0.01808 0.89352 0.07429 0.0
H758 H 0.98063 0.01137 0.11871 0.0
H759 H 0.04622 0.03813 0.12131 0.0
H760 H 0.00392 0.98215 0.13122 0.0
H761 H 1.00151 0.99009 0.06135 0.0
H762 H 0.03149 0.95494 0.05654 0.0
H763 H 0.06718 0.01733 0.06375 0.0
C764 C 0.92627 0.03729 0.43549 0.0
C765 C 0.88436 0.01315 0.42615 0.0
C766 C 0.9653 0.02694 0.43471 0.0
C767 C 0.96308 0.99194 0.42415 0.0
C768 C 0.92087 0.96725 0.41465 0.0
C769 C 0.88169 0.97781 0.41586 0.0
C770 C 0.00885 0.05335 0.4453 0.0
C771 C 0.91741 0.93009 0.40315 0.0
C772 C 0.08854 0.00143 0.41617 0.0
C773 C 0.08638 0.96402 0.42547 0.0
C774 C 0.04776 0.00951 0.41507 0.0
C775 C 0.00422 0.98009 0.42367 0.0
C776 C 1.00183 0.94204 0.43295 0.0
C777 C 0.04264 0.93429 0.43365 0.0
C778 C 0.05157 0.05008 0.4049 0.0
C779 C 0.95677 0.91052 0.44257 0.0
H780 H 0.92855 0.06443 0.44356 0.0
H781 H 0.84966 0.95937 0.40853 0.0
H782 H 0.01264 0.02578 0.45224 0.0
H783 H 0.04388 0.07455 0.43885 0.0
H784 H 0.0048 0.07944 0.45289 0.0
H785 H 0.8829 0.91509 0.39634 0.0
H786 H 0.95003 0.94777 0.39554 0.0
H787 H 0.91828 0.8987 0.40878 0.0
H788 H 0.12196 0.02424 0.40971 0.0
H789 H 0.04053 0.90532 0.4409 0.0
H790 H 0.05166 0.07999 0.41171 0.0
H791 H 0.01874 0.03526 0.39738 0.0
H792 H 0.08587 0.06659 0.39796 0.0
H793 H 0.95222 0.93431 0.45097 0.0
H794 H 0.95971 0.88081 0.44861 0.0
H795 H 0.92261 0.89301 0.4356 0.0
C796 C 0.11687 0.07196 0.74077 0.0
C797 C 0.13403 0.11073 0.75125 0.0
C798 C 0.06784 0.032 0.74123 0.0
C799 C 0.03529 0.03016 0.75264 0.0
C800 C 0.05206 0.06975 0.76308 0.0
C801 C 0.10116 0.10987 0.76217 0.0
C802 C 0.05116 0.99133 0.72964 0.0
C803 C 0.01862 0.06895 0.77549 0.0
C804 C 0.89555 0.9492 0.74752 0.0
C805 C 0.88492 0.90679 0.7559 0.0
C806 C 0.94434 0.98904 0.74612 0.0
C807 C 0.98357 0.98701 0.75354 0.0
C808 C 0.97327 0.94385 0.76181 0.0
C809 C 0.92402 0.90393 0.76276 0.0
C810 C 0.95375 0.03365 0.73688 0.0
C811 C 0.01405 0.94049 0.76999 0.0
H812 H 0.14216 0.07253 0.73228 0.0
H813 H 0.11445 0.1394 0.77042 0.0
H814 H 0.04138 0.95565 0.73519 0.0
H815 H 0.01723 0.98615 0.72385 0.0
H816 H 0.08033 0.99946 0.7211 0.0
H817 H 0.03721 0.10252 0.78271 0.0
H818 H 0.98443 0.06642 0.7707 0.0
H819 H 0.00681 0.03558 0.7826 0.0
H820 H 0.86544 0.95143 0.7421 0.0
H821 H 0.91585 0.87142 0.76935 0.0
H822 H 0.9824 0.04131 0.72823 0.0
H823 H 0.96836 0.06699 0.74414 0.0
H824 H 0.91953 0.02837 0.73123 0.0
H825 H 0.04361 0.94544 0.76202 0.0
H826 H 1.00005 0.90435 0.77584 0.0
H827 H 0.03149 0.97083 0.77837 0.0
C828 C 0.89635 0.95504 0.58823 0.0
C829 C 0.88018 0.98029 0.59767 0.0
C830 C 0.94545 0.96441 0.58871 0.0
C831 C 0.97939 0.99953 0.59903 0.0
C832 C 0.96346 0.02535 0.6086 0.0
C833 C 0.91403 0.01572 0.60772 0.0
C834 C 0.96101 0.9368 0.57807 0.0
C835 C 0.9985 0.06274 0.61984 0.0
C836 C 0.09479 0.98934 0.60707 0.0
C837 C 0.13009 0.02639 0.59769 0.0
C838 C 0.04593 0.98121 0.60803 0.0
C839 C 0.03198 0.01034 0.59924 0.0
C840 C 0.06756 0.04776 0.58978 0.0
C841 C 0.11608 0.05546 0.58919 0.0
C842 C 0.0091 0.94121 0.61834 0.0
C843 C 0.05413 0.07907 0.58002 0.0
H844 H 0.87047 0.92777 0.58037 0.0
H845 H 0.90158 0.03496 0.61513 0.0
H846 H 0.99212 0.96362 0.5709 0.0
H847 H 0.97472 0.91545 0.58448 0.0
H848 H 0.93005 0.91068 0.57071 0.0
H849 H 0.98011 0.07874 0.62673 0.0
H850 H 0.01338 0.04491 0.62741 0.0
H851 H 0.03072 0.09344 0.61397 0.0
H852 H 0.10547 0.96709 0.61378 0.0
H853 H 0.14304 0.08415 0.58187 0.0
H854 H 0.97833 0.91172 0.61168 0.0
H855 H 0.99239 0.95692 0.62603 0.0
H856 H 0.02651 0.92396 0.62512 0.0
H857 H 0.0248 0.05495 0.57192 0.0
H858 H 0.08659 0.10777 0.57365 0.0
H859 H 0.03877 0.09784 0.58697 0.0
C860 C 0.94735 0.87305 0.94746 0.0
C861 C 0.89855 0.86469 0.9464 0.0
C862 C 0.98856 0.92118 0.94732 0.0
C863 C 0.98105 0.96234 0.94625 0.0
C864 C 0.93186 0.95445 0.94621 0.0
C865 C 0.89105 0.90558 0.94623 0.0
C866 C 0.04021 0.92768 0.94728 0.0
C867 C 0.92239 0.99751 0.94531 0.0
C868 C 0.09486 0.09084 0.95188 0.0
C869 C 0.10855 0.10615 0.937 0.0
C870 C 0.05278 0.04447 0.95514 0.0
C871 C 0.02448 0.01258 0.94324 0.0
C872 C 0.03901 0.0276 0.92824 0.0
C873 C 0.08054 0.07424 0.92532 0.0
C874 C 0.03809 0.02994 0.97127 0.0
C875 C 0.01065 0.9944 0.91521 0.0
H876 H 0.95366 0.84177 0.94782 0.0
H877 H 0.85352 0.89948 0.94551 0.0
H878 H 0.05762 0.94144 0.93614 0.0
H879 H 0.06414 0.95574 0.9557 0.0
H880 H 0.03979 0.89238 0.94967 0.0
H881 H 0.88279 0.98584 0.94752 0.0
H882 H 0.94612 0.02681 0.95347 0.0
H883 H 0.9323 0.01426 0.93396 0.0
H884 H 0.11597 0.11577 0.96093 0.0
H885 H 0.09101 0.08594 0.9138 0.0
H886 H 0.03787 0.9949 0.97383 0.0
H887 H 0.99975 0.02291 0.97317 0.0
H888 H 0.06366 0.05908 0.97921 0.0
H889 H 0.01042 0.95866 0.91607 0.0
H890 H 0.02694 0.01163 0.90421 0.0
H891 H 0.97137 0.98573 0.9155 0.0
C892 C 1.00203 0.89745 0.28125 0.0
C893 C 0.02112 0.89127 0.26769 0.0
C894 C 0.99345 0.93754 0.28328 0.0
C895 C 0.00361 0.97166 0.27141 0.0
C896 C 0.02199 0.96488 0.25763 0.0
C897 C 0.03071 0.92502 0.25598 0.0
C898 C 0.97405 0.94373 0.29816 0.0
C899 C 0.03245 0.99972 0.24457 0.0
C900 C 0.93787 0.04642 0.26844 0.0
C901 C 0.97578 0.09453 0.27223 0.0
C902 C 0.94593 0.00591 0.2687 0.0
C903 C 0.99305 0.0133 0.27296 0.0
C904 C 0.03105 0.06137 0.27733 0.0
C905 C 0.02205 0.10154 0.27686 0.0
C906 C 0.90453 0.95552 0.26379 0.0
C907 C 0.08167 0.07059 0.28207 0.0
H908 H 0.9951 0.87181 0.29039 0.0
H909 H 0.0453 0.92039 0.24544 0.0
H910 H 1.00033 0.98065 0.30297 0.0
H911 H 0.93793 0.94238 0.29656 0.0
H912 H 0.9688 0.91455 0.30634 0.0
H913 H 0.04685 0.98936 0.23463 0.0
H914 H 0.99791 0.99968 0.2413 0.0
H915 H 0.06014 0.03826 0.24786 0.0
H916 H 0.90183 0.04037 0.26491 0.0
H917 H 0.05141 0.13846 0.27989 0.0
H918 H 0.89799 0.92705 0.27237 0.0
H919 H 0.9154 0.94436 0.25327 0.0
H920 H 0.86905 0.95525 0.26179 0.0
H921 H 0.07784 0.04344 0.29079 0.0
H922 H 0.10552 0.10876 0.28651 0.0
H923 H 0.10079 0.06526 0.27234 0.0
loop_
_geom_bond_atom_site_label_1
_geom_bond_atom_site_label_2
_geom_bond_distance
_geom_bond_site_symmetry_2
_ccdc_geom_bond_type
Mg0 O7 2.141 . S
Mg0 O8 2.048 . S
Mg0 O9 2.048 . S
Mg0 O12 2.141 . S
C1 O2 1.313 . S
C1 O8 1.195 . S
O2 C1 1.313 . S
C3 O4 1.245 . S
C3 O12 1.289 . S
O4 C3 1.245 . S
C5 O6 1.245 . S
C5 O7 1.289 . S
O6 C5 1.245 . S
O7 Mg0 2.141 . S
O7 C5 1.289 . S
O8 Mg0 2.048 . S
O8 C1 1.195 . S
O9 Mg0 2.048 . S
O9 C10 1.195 . S
C10 O9 1.195 . S
C10 O11 1.313 . S
O11 C10 1.313 . S
O12 Mg0 2.141 . S
O12 C3 1.289 . S
Mg13 O20 2.141 . S
Mg13 O21 2.048 . S
Mg13 O22 2.048 . S
Mg13 O25 2.141 . S
C14 O15 1.313 . S
C14 O21 1.195 . S
O15 C14 1.313 . S
C16 O17 1.245 . S
C16 O25 1.289 . S
O17 C16 1.245 . S
C18 O19 1.245 . S
C18 O20 1.289 . S
O19 C18 1.245 . S
O20 Mg13 2.141 . S
O20 C18 1.289 . S
O21 Mg13 2.048 . S
O21 C14 1.195 . S
O22 Mg13 2.048 . S
O22 C23 1.195 . S
C23 O22 1.195 . S
C23 O24 1.313 . S
O24 C23 1.313 . S
O25 Mg13 2.141 . S
O25 C16 1.289 . S
Mg26 O33 2.141 . S
Mg26 O34 2.048 . S
Mg26 O35 2.048 . S
Mg26 O38 2.141 . S
C27 O28 1.313 . S
C27 O34 1.195 . S
O28 C27 1.313 . S
C29 O30 1.245 . S
C29 O38 1.289 . S
O30 C29 1.245 . S
C31 O32 1.245 . S
C31 O33 1.289 . S
O32 C31 1.245 . S
O33 Mg26 2.141 . S
O33 C31 1.289 . S
O34 Mg26 2.048 . S
O34 C27 1.195 . S
O35 Mg26 2.048 . S
O35 C36 1.195 . S
C36 O35 1.195 . S
C36 O37 1.313 . S
O37 C36 1.313 . S
O38 Mg26 2.141 . S
O38 C29 1.289 . S
Mg39 O46 2.141 . S
Mg39 O47 2.048 . S
Mg39 O48 2.048 . S
Mg39 O51 2.141 . S
C40 O41 1.313 . S
C40 O47 1.195 . S
O41 C40 1.313 . S
C42 O43 1.245 . S
C42 O51 1.289 . S
O43 C42 1.245 . S
C44 O45 1.245 . S
C44 O46 1.289 . S
O45 C44 1.245 . S
O46 Mg39 2.141 . S
O46 C44 1.289 . S
O47 Mg39 2.048 . S
O47 C40 1.195 . S
O48 Mg39 2.048 . S
O48 C49 1.195 . S
C49 O48 1.195 . S
C49 O50 1.313 . S
O50 C49 1.313 . S
O51 Mg39 2.141 . S
O51 C42 1.289 . S
Mg52 O59 2.141 . S
Mg52 O60 2.048 . S
Mg52 O61 2.048 . S
Mg52 O64 2.141 . S
C53 O54 1.313 . S
C53 O60 1.195 . S
O54 C53 1.313 . S
C55 O56 1.245 . S
C55 O64 1.289 . S
O56 C55 1.245 . S
C57 O58 1.245 . S
C57 O59 1.289 . S
O58 C57 1.245 . S
O59 Mg52 2.141 . S
O59 C57 1.289 . S
O60 Mg52 2.048 . S
O60 C53 1.195 . S
O61 Mg52 2.048 . S
O61 C62 1.195 . S
C62 O61 1.195 . S
C62 O63 1.313 . S
O63 C62 1.313 . S
O64 Mg52 2.141 . S
O64 C55 1.289 . S
Mg65 O72 2.141 . S
Mg65 O73 2.048 . S
Mg65 O74 2.048 . S
Mg65 O77 2.141 . S
C66 O67 1.313 . S
C66 O73 1.195 . S
O67 C66 1.313 . S
C68 O69 1.245 . S
C68 O77 1.289 . S
O69 C68 1.245 . S
C70 O71 1.245 . S
C70 O72 1.289 . S
O71 C70 1.245 . S
O72 Mg65 2.141 . S
O72 C70 1.289 . S
O73 Mg65 2.048 . S
O73 C66 1.195 . S
O74 Mg65 2.048 . S
O74 C75 1.195 . S
C75 O74 1.195 . S
C75 O76 1.313 . S
O76 C75 1.313 . S
O77 Mg65 2.141 . S
O77 C68 1.289 . S
Mg78 O85 2.141 . S
Mg78 O86 2.048 . S
Mg78 O87 2.048 . S
Mg78 O90 2.141 . S
C79 O80 1.313 . S
C79 O86 1.195 . S
O80 C79 1.313 . S
C81 O82 1.245 . S
C81 O90 1.289 . S
O82 C81 1.245 . S
C83 O84 1.245 . S
C83 O85 1.289 . S
O84 C83 1.245 . S
O85 Mg78 2.141 . S
O85 C83 1.289 . S
O86 Mg78 2.048 . S
O86 C79 1.195 . S
O87 Mg78 2.048 . S
O87 C88 1.195 . S
C88 O87 1.195 . S
C88 O89 1.313 . S
O89 C88 1.313 . S
O90 Mg78 2.141 . S
O90 C81 1.289 . S
Mg91 O98 2.141 . S
Mg91 O99 2.048 . S
Mg91 O100 2.048 . S
Mg91 O103 2.141 . S
C92 O93 1.313 . S
C92 O99 1.195 . S
O93 C92 1.313 . S
C94 O95 1.245 . S
C94 O103 1.289 . S
O95 C94 1.245 . S
C96 O97 1.245 . S
C96 O98 1.289 . S
O97 C96 1.245 . S
O98 Mg91 2.141 . S
O98 C96 1.289 . S
O99 Mg91 2.048 . S
O99 C92 1.195 . S
O100 Mg91 2.048 . S
O100 C101 1.195 . S
C101 O100 1.195 . S
C101 O102 1.313 . S
O102 C101 1.313 . S
O103 Mg91 2.141 . S
O103 C94 1.289 . S
Mg104 O111 2.141 . S
Mg104 O112 2.048 . S
Mg104 O113 2.048 . S
Mg104 O116 2.141 . S
C105 O106 1.313 . S
C105 O112 1.195 . S
O106 C105 1.313 . S
C107 O108 1.245 . S
C107 O116 1.289 . S
O108 C107 1.245 . S
C109 O110 1.245 . S
C109 O111 1.289 . S
O110 C109 1.245 . S
O111 Mg104 2.141 . S
O111 C109 1.289 . S
O112 Mg104 2.048 . S
O112 C105 1.195 . S
O113 Mg104 2.048 . S
O113 C114 1.195 . S
C114 O113 1.195 . S
C114 O115 1.313 . S
O115 C114 1.313 . S
O116 Mg104 2.141 . S
O116 C107 1.289 . S
Mg117 O124 2.141 . S
Mg117 O125 2.048 . S
Mg117 O126 2.048 . S
Mg117 O129 2.141 . S
C118 O119 1.313 . S
C118 O125 1.195 . S
O119 C118 1.313 . S
C120 O121 1.245 . S
C120 O129 1.289 . S
O121 C120 1.245 . S
C122 O123 1.245 . S
C122 O124 1.289 . S
O123 C122 1.245 . S
O124 Mg117 2.141 . S
O124 C122 1.289 . S
O125 Mg117 2.048 . S
O125 C118 1.195 . S
O126 Mg117 2.048 . S
O126 C127 1.195 . S
C127 O126 1.195 . S
C127 O128 1.313 . S
O128 C127 1.313 . S
O129 Mg117 2.141 . S
O129 C120 1.289 . S
Mg130 O137 2.141 . S
Mg130 O138 2.048 . S
Mg130 O139 2.048 . S
Mg130 O142 2.141 . S
C131 O132 1.313 . S
C131 O138 1.195 . S
O132 C131 1.313 . S
C133 O134 1.245 . S
C133 O142 1.289 . S
O134 C133 1.245 . S
C135 O136 1.245 . S
C135 O137 1.289 . S
O136 C135 1.245 . S
O137 Mg130 2.141 . S
O137 C135 1.289 . S
O138 Mg130 2.048 . S
O138 C131 1.195 . S
O139 Mg130 2.048 . S
O139 C140 1.195 . S
C140 O139 1.195 . S
C140 O141 1.313 . S
O141 C140 1.313 . S
O142 Mg130 2.141 . S
O142 C133 1.289 . S
Mg143 O150 2.141 . S
Mg143 O151 2.048 . S
Mg143 O152 2.048 . S
Mg143 O155 2.141 . S
C144 O145 1.313 . S
C144 O151 1.195 . S
O145 C144 1.313 . S
C146 O147 1.245 . S
C146 O155 1.289 . S
O147 C146 1.245 . S
C148 O149 1.245 . S
C148 O150 1.289 . S
O149 C148 1.245 . S
O150 Mg143 2.141 . S
O150 C148 1.289 . S
O151 Mg143 2.048 . S
O151 C144 1.195 . S
O152 Mg143 2.048 . S
O152 C153 1.195 . S
C153 O152 1.195 . S
C153 O154 1.313 . S
O154 C153 1.313 . S
O155 Mg143 2.141 . S
O155 C146 1.289 . S
C156 C157 1.391 . S
C156 C158 1.394 . S
C156 H172 0.931 . S
C157 C156 1.391 . S
C157 C161 1.376 . S
C158 C156 1.394 . S
C158 C159 1.369 . S
C158 C162 1.531 . S
C159 C158 1.369 . S
C159 C160 1.410 . S
C159 C167 1.503 . S
C160 C159 1.410 . S
C160 C161 1.392 . S
C160 C163 1.511 . S
C161 C157 1.376 . S
C161 C160 1.392 . S
C161 H173 0.929 . S
C162 C158 1.531 . S
C162 H174 0.960 . S
C162 H175 0.962 1_655 S
C162 H176 0.960 . S
C163 C160 1.511 . S
C163 H177 0.961 . S
C163 H178 0.961 1_655 S
C163 H179 0.961 . S
C164 C165 1.370 . S
C164 C166 1.363 . S
C164 H180 0.931 . S
C165 C164 1.370 . S
C165 C169 1.408 1_455 S
C166 C164 1.363 . S
C166 C167 1.370 1_455 S
C166 C170 1.524 . S
C167 C159 1.503 . S
C167 C166 1.370 1_655 S
C167 C168 1.403 . S
C168 C167 1.403 . S
C168 C169 1.404 . S
C168 C171 1.539 . S
C169 C165 1.408 1_655 S
C169 C168 1.404 . S
C169 H181 0.930 . S
C170 C166 1.524 . S
C170 H182 0.956 . S
C170 H183 0.961 . S
C170 H184 0.961 . S
C171 C168 1.539 . S
C171 H185 0.958 . S
C171 H186 0.961 . S
C171 H187 0.960 . S
H172 C156 0.931 . S
H173 C161 0.929 . S
H174 C162 0.960 . S
H175 C162 0.962 1_455 S
H176 C162 0.960 . S
H177 C163 0.961 . S
H178 C163 0.961 1_455 S
H179 C163 0.961 . S
H180 C164 0.931 . S
H181 C169 0.930 . S
H182 C170 0.956 . S
H183 C170 0.961 . S
H184 C170 0.961 . S
H185 C171 0.958 . S
H186 C171 0.961 . S
H187 C171 0.960 . S
C188 C189 1.391 . S
C188 C190 1.394 . S
C188 H204 0.931 . S
C189 C188 1.391 . S
C189 C193 1.371 1_545 S
C190 C188 1.394 . S
C190 C191 1.369 1_545 S
C190 C194 1.531 . S
C191 C190 1.369 1_565 S
C191 C192 1.410 . S
C191 C199 1.503 . S
C192 C191 1.410 . S
C192 C193 1.394 . S
C192 C195 1.511 . S
C193 C189 1.371 1_565 S
C193 C192 1.394 . S
C193 H205 0.932 . S
C194 C190 1.531 . S
C194 H206 0.960 . S
C194 H207 0.962 . S
C194 H208 0.960 . S
C195 C192 1.511 . S
C195 H209 0.961 . S
C195 H210 0.961 . S
C195 H211 0.961 . S
C196 C197 1.370 1_545 S
C196 C198 1.363 . S
C196 H212 0.931 . S
C197 C196 1.370 1_565 S
C197 C201 1.408 . S
C198 C196 1.363 . S
C198 C199 1.370 1_545 S
C198 C202 1.524 . S
C199 C191 1.503 . S
C199 C198 1.370 1_565 S
C199 C200 1.403 . S
C200 C199 1.403 . S
C200 C201 1.404 . S
C200 C203 1.539 . S
C201 C197 1.408 . S
C201 C200 1.404 . S
C201 H213 0.930 . S
C202 C198 1.524 . S
C202 H214 0.956 . S
C202 H215 0.961 . S
C202 H216 0.961 . S
C203 C200 1.539 . S
C203 H217 0.958 . S
C203 H218 0.961 . S
C203 H219 0.960 . S
H204 C188 0.931 . S
H205 C193 0.932 . S
H206 C194 0.960 . S
H207 C194 0.962 . S
H208 C194 0.960 . S
H209 C195 0.961 . S
H210 C195 0.961 . S
H211 C195 0.961 . S
H212 C196 0.931 . S
H213 C201 0.930 . S
H214 C202 0.956 . S
H215 C202 0.961 . S
H216 C202 0.961 . S
H217 C203 0.958 . S
H218 C203 0.961 . S
H219 C203 0.960 . S
C220 C221 1.391 . S
C220 C222 1.394 . S
C220 H236 0.931 . S
C221 C220 1.391 . S
C221 C225 1.376 . S
C222 C220 1.394 . S
C222 C223 1.369 . S
C222 C226 1.531 . S
C223 C222 1.369 . S
C223 C224 1.410 . S
C223 C231 1.503 . S
C224 C223 1.410 . S
C224 C225 1.392 . S
C224 C227 1.511 . S
C225 C221 1.376 . S
C225 C224 1.392 . S
C225 H237 0.929 . S
C226 C222 1.531 . S
C226 H238 0.960 . S
C226 H239 0.962 . S
C226 H240 0.960 . S
C227 C224 1.511 . S
C227 H241 0.961 . S
C227 H242 0.961 . S
C227 H243 0.961 . S
C228 C229 1.370 . S
C228 C230 1.363 . S
C228 H244 0.931 . S
C229 C228 1.370 . S
C229 C233 1.408 . S
C230 C228 1.363 . S
C230 C231 1.370 . S
C230 C234 1.524 . S
C231 C223 1.503 . S
C231 C230 1.370 . S
C231 C232 1.403 . S
C232 C231 1.403 . S
C232 C233 1.404 . S
C232 C235 1.539 . S
C233 C229 1.408 . S
C233 C232 1.404 . S
C233 H245 0.930 . S
C234 C230 1.524 . S
C234 H246 0.956 . S
C234 H247 0.961 . S
C234 H248 0.961 . S
C235 C232 1.539 . S
C235 H249 0.958 . S
C235 H250 0.961 . S
C235 H251 0.960 . S
H236 C220 0.931 . S
H237 C225 0.929 . S
H238 C226 0.960 . S
H239 C226 0.962 . S
H240 C226 0.960 . S
H241 C227 0.961 . S
H242 C227 0.961 . S
H243 C227 0.961 . S
H244 C228 0.931 . S
H245 C233 0.930 . S
H246 C234 0.956 . S
H247 C234 0.961 . S
H248 C234 0.961 . S
H249 C235 0.958 . S
H250 C235 0.961 . S
H251 C235 0.960 . S
C252 C253 1.391 1_455 S
C252 C254 1.394 . S
C252 H268 0.931 . S
C253 C252 1.391 1_655 S
C253 C257 1.376 . S
C254 C252 1.394 . S
C254 C255 1.369 1_455 S
C254 C258 1.531 . S
C255 C254 1.369 1_655 S
C255 C256 1.410 . S
C255 C263 1.503 1_655 S
C256 C255 1.410 . S
C256 C257 1.392 . S
C256 C259 1.511 . S
C257 C253 1.376 . S
C257 C256 1.392 . S
C257 H269 0.929 . S
C258 C254 1.531 . S
C258 H270 0.960 . S
C258 H271 0.962 . S
C258 H272 0.960 . S
C259 C256 1.511 . S
C259 H273 0.961 . S
C259 H274 0.961 . S
C259 H275 0.961 . S
C260 C261 1.370 . S
C260 C262 1.363 . S
C260 H276 0.931 . S
C261 C260 1.370 . S
C261 C265 1.401 1_455 S
C262 C260 1.363 . S
C262 C263 1.370 . S
C262 C266 1.524 . S
C263 C255 1.503 1_455 S
C263 C262 1.370 . S
C263 C264 1.403 1_455 S
C264 C263 1.403 1_655 S
C264 C265 1.406 . S
C264 C267 1.539 . S
C265 C261 1.401 1_655 S
C265 C264 1.406 . S
C265 H277 0.935 . S
C266 C262 1.524 . S
C266 H278 0.956 . S
C266 H279 0.961 . S
C266 H280 0.961 . S
C267 C264 1.539 . S
C267 H281 0.958 . S
C267 H282 0.961 . S
C267 H283 0.960 . S
H268 C252 0.931 . S
H269 C257 0.929 . S
H270 C258 0.960 . S
H271 C258 0.962 . S
H272 C258 0.960 . S
H273 C259 0.961 . S
H274 C259 0.961 . S
H275 C259 0.961 . S
H276 C260 0.931 . S
H277 C265 0.935 . S
H278 C266 0.956 . S
H279 C266 0.961 . S
H280 C266 0.961 . S
H281 C267 0.958 . S
H282 C267 0.961 . S
H283 C267 0.960 . S
C284 C285 1.391 1_565 S
C284 C286 1.394 . S
C284 H300 0.931 . S
C285 C284 1.391 1_545 S
C285 C289 1.376 . S
C286 C284 1.394 . S
C286 C287 1.369 . S
C286 C290 1.531 . S
C287 C286 1.369 . S
C287 C288 1.410 1_565 S
C287 C295 1.503 . S
C288 C287 1.410 1_545 S
C288 C289 1.392 . S
C288 C291 1.511 . S
C289 C285 1.376 . S
C289 C288 1.392 . S
C289 H301 0.929 . S
C290 C286 1.531 . S
C290 H302 0.960 . S
C290 H303 0.962 . S
C290 H304 0.960 . S
C291 C288 1.511 . S
C291 H305 0.961 . S
C291 H306 0.961 . S
C291 H307 0.961 . S
C292 C293 1.370 1_545 S
C292 C294 1.363 . S
C292 H308 0.931 . S
C293 C292 1.370 1_565 S
C293 C297 1.408 . S
C294 C292 1.363 . S
C294 C295 1.370 1_545 S
C294 C298 1.524 . S
C295 C287 1.503 . S
C295 C294 1.370 1_565 S
C295 C296 1.403 . S
C296 C295 1.403 . S
C296 C297 1.404 . S
C296 C299 1.539 . S
C297 C293 1.408 . S
C297 C296 1.404 . S
C297 H309 0.930 . S
C298 C294 1.524 . S
C298 H310 0.956 . S
C298 H311 0.961 . S
C298 H312 0.961 . S
C299 C296 1.539 . S
C299 H313 0.958 . S
C299 H314 0.961 . S
C299 H315 0.960 . S
H300 C284 0.931 . S
H301 C289 0.929 . S
H302 C290 0.960 . S
H303 C290 0.962 . S
H304 C290 0.960 . S
H305 C291 0.961 . S
H306 C291 0.961 . S
H307 C291 0.961 . S
H308 C292 0.931 . S
H309 C297 0.930 . S
H310 C298 0.956 . S
H311 C298 0.961 . S
H312 C298 0.961 . S
H313 C299 0.958 . S
H314 C299 0.961 . S
H315 C299 0.960 . S
C316 C317 1.391 . S
C316 C318 1.394 . S
C316 H332 0.931 . S
C317 C316 1.391 . S
C317 C321 1.376 . S
C318 C316 1.394 . S
C318 C319 1.369 . S
C318 C322 1.531 . S
C319 C318 1.369 . S
C319 C320 1.410 . S
C319 C327 1.503 . S
C320 C319 1.410 . S
C320 C321 1.392 . S
C320 C323 1.511 . S
C321 C317 1.376 . S
C321 C320 1.392 . S
C321 H333 0.929 . S
C322 C318 1.531 . S
C322 H334 0.960 . S
C322 H335 0.962 . S
C322 H336 0.960 . S
C323 C320 1.511 . S
C323 H337 0.961 . S
C323 H338 0.961 . S
C323 H339 0.961 . S
C324 C325 1.370 . S
C324 C326 1.363 . S
C324 H340 0.931 . S
C325 C324 1.370 . S
C325 C329 1.408 . S
C326 C324 1.363 . S
C326 C327 1.370 . S
C326 C330 1.524 . S
C327 C319 1.503 . S
C327 C326 1.370 . S
C327 C328 1.403 . S
C328 C327 1.403 . S
C328 C329 1.404 . S
C328 C331 1.539 . S
C329 C325 1.408 . S
C329 C328 1.404 . S
C329 H341 0.930 . S
C330 C326 1.524 . S
C330 H342 0.956 . S
C330 H343 0.961 . S
C330 H344 0.961 . S
C331 C328 1.539 . S
C331 H345 0.958 . S
C331 H346 0.961 . S
C331 H347 0.960 . S
H332 C316 0.931 . S
H333 C321 0.929 . S
H334 C322 0.960 . S
H335 C322 0.962 . S
H336 C322 0.960 . S
H337 C323 0.961 . S
H338 C323 0.961 . S
H339 C323 0.961 . S
H340 C324 0.931 . S
H341 C329 0.930 . S
H342 C330 0.956 . S
H343 C330 0.961 . S
H344 C330 0.961 . S
H345 C331 0.958 . S
H346 C331 0.961 . S
H347 C331 0.960 . S
C348 C349 1.391 . S
C348 C350 1.394 . S
C348 H364 0.931 . S
C349 C348 1.391 . S
C349 C353 1.376 . S
C350 C348 1.394 . S
C350 C351 1.369 . S
C350 C354 1.531 . S
C351 C350 1.369 . S
C351 C352 1.410 . S
C351 C359 1.503 1_554 S
C352 C351 1.410 . S
C352 C353 1.392 . S
C352 C355 1.511 . S
C353 C349 1.376 . S
C353 C352 1.392 . S
C353 H365 0.929 . S
C354 C350 1.531 . S
C354 H366 0.960 . S
C354 H367 0.962 . S
C354 H368 0.960 . S
C355 C352 1.511 . S
C355 H369 0.961 . S
C355 H370 0.961 1_554 S
C355 H371 0.961 1_554 S
C356 C357 1.370 . S
C356 C358 1.363 . S
C356 H372 0.931 . S
C357 C356 1.370 . S
C357 C361 1.408 . S
C358 C356 1.363 . S
C358 C359 1.370 . S
C358 C362 1.524 1_556 S
C359 C351 1.503 1_556 S
C359 C358 1.370 . S
C359 C360 1.403 . S
C360 C359 1.403 . S
C360 C361 1.404 . S
C360 C363 1.539 . S
C361 C357 1.408 . S
C361 C360 1.404 . S
C361 H373 0.930 . S
C362 C358 1.524 1_554 S
C362 H374 0.956 . S
C362 H375 0.961 . S
C362 H376 0.961 1_554 S
C363 C360 1.539 . S
C363 H377 0.958 . S
C363 H378 0.961 . S
C363 H379 0.960 . S
H364 C348 0.931 . S
H365 C353 0.929 . S
H366 C354 0.960 . S
H367 C354 0.962 . S
H368 C354 0.960 . S
H369 C355 0.961 . S
H370 C355 0.961 1_556 S
H371 C355 0.961 1_556 S
H372 C356 0.931 . S
H373 C361 0.930 . S
H374 C362 0.956 . S
H375 C362 0.961 . S
H376 C362 0.961 1_556 S
H377 C363 0.958 . S
H378 C363 0.961 . S
H379 C363 0.960 . S
C380 C381 1.391 . S
C380 C382 1.394 . S
C380 H396 0.931 . S
C381 C380 1.391 . S
C381 C385 1.376 . S
C382 C380 1.394 . S
C382 C383 1.369 . S
C382 C386 1.531 . S
C383 C382 1.369 . S
C383 C384 1.410 . S
C383 C391 1.503 . S
C384 C383 1.410 . S
C384 C385 1.392 . S
C384 C387 1.511 . S
C385 C381 1.376 . S
C385 C384 1.392 . S
C385 H397 0.929 . S
C386 C382 1.531 . S
C386 H398 0.960 . S
C386 H399 0.962 . S
C386 H400 0.960 . S
C387 C384 1.511 . S
C387 H401 0.961 . S
C387 H402 0.961 . S
C387 H403 0.961 . S
C388 C389 1.370 . S
C388 C390 1.363 . S
C388 H404 0.931 . S
C389 C388 1.370 . S
C389 C393 1.408 . S
C390 C388 1.363 . S
C390 C391 1.370 . S
C390 C394 1.524 . S
C391 C383 1.503 . S
C391 C390 1.370 . S
C391 C392 1.403 . S
C392 C391 1.403 . S
C392 C393 1.404 . S
C392 C395 1.539 . S
C393 C389 1.408 . S
C393 C392 1.404 . S
C393 H405 0.930 . S
C394 C390 1.524 . S
C394 H406 0.956 . S
C394 H407 0.961 . S
C394 H408 0.961 . S
C395 C392 1.539 . S
C395 H409 0.958 . S
C395 H410 0.961 . S
C395 H411 0.960 . S
H396 C380 0.931 . S
H397 C385 0.929 . S
H398 C386 0.960 . S
H399 C386 0.962 . S
H400 C386 0.960 . S
H401 C387 0.961 . S
H402 C387 0.961 . S
H403 C387 0.961 . S
H404 C388 0.931 . S
H405 C393 0.930 . S
H406 C394 0.956 . S
H407 C394 0.961 . S
H408 C394 0.961 . S
H409 C395 0.958 . S
H410 C395 0.961 . S
H411 C395 0.960 . S
C412 C413 1.391 . S
C412 C414 1.394 . S
C412 H428 0.931 . S
C413 C412 1.391 . S
C413 C417 1.376 . S
C414 C412 1.394 . S
C414 C415 1.369 . S
C414 C418 1.531 . S
C415 C414 1.369 . S
C415 C416 1.410 . S
C415 C423 1.503 . S
C416 C415 1.410 . S
C416 C417 1.392 . S
C416 C419 1.511 . S
C417 C413 1.376 . S
C417 C416 1.392 . S
C417 H429 0.929 . S
C418 C414 1.531 . S
C418 H430 0.960 . S
C418 H431 0.962 . S
C418 H432 0.960 . S
C419 C416 1.511 . S
C419 H433 0.961 . S
C419 H434 0.961 . S
C419 H435 0.961 . S
C420 C421 1.370 . S
C420 C422 1.363 . S
C420 H436 0.931 . S
C421 C420 1.370 . S
C421 C425 1.408 . S
C422 C420 1.363 . S
C422 C423 1.370 . S
C422 C426 1.524 . S
C423 C415 1.503 . S
C423 C422 1.370 . S
C423 C424 1.403 . S
C424 C423 1.403 . S
C424 C425 1.404 . S
C424 C427 1.539 . S
C425 C421 1.408 . S
C425 C424 1.404 . S
C425 H437 0.930 . S
C426 C422 1.524 . S
C426 H438 0.956 . S
C426 H439 0.961 . S
C426 H440 0.961 . S
C427 C424 1.539 . S
C427 H441 0.958 . S
C427 H442 0.961 . S
C427 H443 0.960 . S
H428 C412 0.931 . S
H429 C417 0.929 . S
H430 C418 0.960 . S
H431 C418 0.962 . S
H432 C418 0.960 . S
H433 C419 0.961 . S
H434 C419 0.961 . S
H435 C419 0.961 . S
H436 C420 0.931 . S
H437 C425 0.930 . S
H438 C426 0.956 . S
H439 C426 0.961 . S
H440 C426 0.961 . S
H441 C427 0.958 . S
H442 C427 0.961 . S
H443 C427 0.960 . S
C444 C445 1.391 . S
C444 C446 1.394 . S
C444 H460 0.931 . S
C445 C444 1.391 . S
C445 C449 1.376 . S
C446 C444 1.394 . S
C446 C447 1.369 . S
C446 C450 1.531 . S
C447 C446 1.369 . S
C447 C448 1.410 . S
C447 C455 1.503 1_554 S
C448 C447 1.410 . S
C448 C449 1.392 . S
C448 C451 1.511 1_554 S
C449 C445 1.376 . S
C449 C448 1.392 . S
C449 H461 0.929 . S
C450 C446 1.531 . S
C450 H462 0.960 . S
C450 H463 0.962 . S
C450 H464 0.960 . S
C451 C448 1.511 1_556 S
C451 H465 0.961 1_556 S
C451 H466 0.961 . S
C451 H467 0.961 . S
C452 C453 1.370 . S
C452 C454 1.363 . S
C452 H468 0.931 . S
C453 C452 1.370 . S
C453 C457 1.408 . S
C454 C452 1.363 . S
C454 C455 1.370 . S
C454 C458 1.524 . S
C455 C447 1.503 1_556 S
C455 C454 1.370 . S
C455 C456 1.403 . S
C456 C455 1.403 . S
C456 C457 1.404 . S
C456 C459 1.539 . S
C457 C453 1.408 . S
C457 C456 1.404 . S
C457 H469 0.930 . S
C458 C454 1.524 . S
C458 H470 0.956 1_556 S
C458 H471 0.961 . S
C458 H472 0.961 . S
C459 C456 1.539 . S
C459 H473 0.958 . S
C459 H474 0.961 . S
C459 H475 0.960 . S
H460 C444 0.931 . S
H461 C449 0.929 . S
H462 C450 0.960 . S
H463 C450 0.962 . S
H464 C450 0.960 . S
H465 C451 0.961 1_554 S
H466 C451 0.961 . S
H467 C451 0.961 . S
H468 C452 0.931 . S
H469 C457 0.930 . S
H470 C458 0.956 1_554 S
H471 C458 0.961 . S
H472 C458 0.961 . S
H473 C459 0.958 . S
H474 C459 0.961 . S
H475 C459 0.960 . S
C476 C477 1.391 . S
C476 C478 1.394 . S
C476 H492 0.931 . S
C477 C476 1.391 . S
C477 C481 1.376 . S
C478 C476 1.394 . S
C478 C479 1.369 . S
C478 C482 1.531 . S
C479 C478 1.369 . S
C479 C480 1.410 . S
C479 C487 1.503 . S
C480 C479 1.410 . S
C480 C481 1.392 . S
C480 C483 1.511 . S
C481 C477 1.376 . S
C481 C480 1.392 . S
C481 H493 0.929 . S
C482 C478 1.531 . S
C482 H494 0.960 . S
C482 H495 0.962 . S
C482 H496 0.960 . S
C483 C480 1.511 . S
C483 H497 0.961 . S
C483 H498 0.961 . S
C483 H499 0.961 . S
C484 C485 1.370 . S
C484 C486 1.363 . S
C484 H500 0.931 . S
C485 C484 1.370 . S
C485 C489 1.408 . S
C486 C484 1.363 . S
C486 C487 1.370 . S
C486 C490 1.524 . S
C487 C479 1.503 . S
C487 C486 1.370 . S
C487 C488 1.403 . S
C488 C487 1.403 . S
C488 C489 1.404 . S
C488 C491 1.539 . S
C489 C485 1.408 . S
C489 C488 1.404 . S
C489 H501 0.930 . S
C490 C486 1.524 . S
C490 H502 0.956 . S
C490 H503 0.961 . S
C490 H504 0.961 . S
C491 C488 1.539 . S
C491 H505 0.958 . S
C491 H506 0.961 . S
C491 H507 0.960 . S
H492 C476 0.931 . S
H493 C481 0.929 . S
H494 C482 0.960 . S
H495 C482 0.962 . S
H496 C482 0.960 . S
H497 C483 0.961 . S
H498 C483 0.961 . S
H499 C483 0.961 . S
H500 C484 0.931 . S
H501 C489 0.930 . S
H502 C490 0.956 . S
H503 C490 0.961 . S
H504 C490 0.961 . S
H505 C491 0.958 . S
H506 C491 0.961 . S
H507 C491 0.960 . S
C508 C509 1.391 . S
C508 C510 1.394 . S
C508 H524 0.931 . S
C509 C508 1.391 . S
C509 C513 1.376 . S
C510 C508 1.394 . S
C510 C511 1.369 . S
C510 C514 1.531 . S
C511 C510 1.369 . S
C511 C512 1.410 . S
C511 C519 1.503 . S
C512 C511 1.410 . S
C512 C513 1.392 . S
C512 C515 1.511 . S
C513 C509 1.376 . S
C513 C512 1.392 . S
C513 H525 0.929 . S
C514 C510 1.531 . S
C514 H526 0.960 . S
C514 H527 0.962 . S
C514 H528 0.960 . S
C515 C512 1.511 . S
C515 H529 0.961 . S
C515 H530 0.961 . S
C515 H531 0.961 . S
C516 C517 1.370 . S
C516 C518 1.363 . S
C516 H532 0.931 . S
C517 C516 1.370 . S
C517 C521 1.408 . S
C518 C516 1.363 . S
C518 C519 1.370 . S
C518 C522 1.524 . S
C519 C511 1.503 . S
C519 C518 1.370 . S
C519 C520 1.403 . S
C520 C519 1.403 . S
C520 C521 1.404 . S
C520 C523 1.539 . S
C521 C517 1.408 . S
C521 C520 1.404 . S
C521 H533 0.930 . S
C522 C518 1.524 . S
C522 H534 0.956 . S
C522 H535 0.961 . S
C522 H536 0.961 . S
C523 C520 1.539 . S
C523 H537 0.958 . S
C523 H538 0.961 . S
C523 H539 0.960 . S
H524 C508 0.931 . S
H525 C513 0.929 . S
H526 C514 0.960 . S
H527 C514 0.962 . S
H528 C514 0.960 . S
H529 C515 0.961 . S
H530 C515 0.961 . S
H531 C515 0.961 . S
H532 C516 0.931 . S
H533 C521 0.930 . S
H534 C522 0.956 . S
H535 C522 0.961 . S
H536 C522 0.961 . S
H537 C523 0.958 . S
H538 C523 0.961 . S
H539 C523 0.960 . S
C540 C541 1.391 . S
C540 C542 1.394 . S
C540 H556 0.931 . S
C541 C540 1.391 . S
C541 C545 1.376 . S
C542 C540 1.394 . S
C542 C543 1.372 . S
C542 C546 1.531 1_655 S
C543 C542 1.372 . S
C543 C544 1.414 . S
C543 C551 1.497 1_655 S
C544 C543 1.414 . S
C544 C545 1.392 . S
C544 C547 1.511 . S
C545 C541 1.376 . S
C545 C544 1.392 . S
C545 H557 0.929 . S
C546 C542 1.531 1_455 S
C546 H558 0.960 . S
C546 H559 0.962 1_455 S
C546 H560 0.960 . S
C547 C544 1.511 . S
C547 H561 0.961 . S
C547 H562 0.961 . S
C547 H563 0.961 1_655 S
C548 C549 1.370 . S
C548 C550 1.363 1_455 S
C548 H564 0.931 1_455 S
C549 C548 1.370 . S
C549 C553 1.408 . S
C550 C548 1.363 1_655 S
C550 C551 1.370 1_655 S
C550 C554 1.524 . S
C551 C543 1.497 1_455 S
C551 C550 1.370 1_455 S
C551 C552 1.403 . S
C552 C551 1.403 . S
C552 C553 1.404 . S
C552 C555 1.539 . S
C553 C549 1.408 . S
C553 C552 1.404 . S
C553 H565 0.930 . S
C554 C550 1.524 . S
C554 H566 0.956 . S
C554 H567 0.961 . S
C554 H568 0.961 . S
C555 C552 1.539 . S
C555 H569 0.958 . S
C555 H570 0.961 . S
C555 H571 0.960 . S
H556 C540 0.931 . S
H557 C545 0.929 . S
H558 C546 0.960 . S
H559 C546 0.962 1_655 S
H560 C546 0.960 . S
H561 C547 0.961 . S
H562 C547 0.961 . S
H563 C547 0.961 1_455 S
H564 C548 0.931 1_655 S
H565 C553 0.930 . S
H566 C554 0.956 . S
H567 C554 0.961 . S
H568 C554 0.961 . S
H569 C555 0.958 . S
H570 C555 0.961 . S
H571 C555 0.960 . S
C572 C573 1.391 . S
C572 C574 1.394 . S
C572 H588 0.931 . S
C573 C572 1.391 . S
C573 C577 1.383 . S
C574 C572 1.394 . S
C574 C575 1.369 . S
C574 C578 1.531 . S
C575 C574 1.369 . S
C575 C576 1.410 1_545 S
C575 C583 1.503 1_545 S
C576 C575 1.410 1_565 S
C576 C577 1.393 1_565 S
C576 C579 1.511 . S
C577 C573 1.383 . S
C577 C576 1.393 1_545 S
C577 H589 0.921 1_545 S
C578 C574 1.531 . S
C578 H590 0.960 . S
C578 H591 0.962 . S
C578 H592 0.960 . S
C579 C576 1.511 . S
C579 H593 0.961 . S
C579 H594 0.961 . S
C579 H595 0.961 . S
C580 C581 1.370 . S
C580 C582 1.363 . S
C580 H596 0.931 . S
C581 C580 1.370 . S
C581 C585 1.408 . S
C582 C580 1.363 . S
C582 C583 1.370 . S
C582 C586 1.524 1_565 S
C583 C575 1.503 1_565 S
C583 C582 1.370 . S
C583 C584 1.403 . S
C584 C583 1.403 . S
C584 C585 1.404 . S
C584 C587 1.539 . S
C585 C581 1.408 . S
C585 C584 1.404 . S
C585 H597 0.930 . S
C586 C582 1.524 1_545 S
C586 H598 0.956 . S
C586 H599 0.961 1_545 S
C586 H600 0.961 1_545 S
C587 C584 1.539 . S
C587 H601 0.958 . S
C587 H602 0.961 . S
C587 H603 0.960 . S
H588 C572 0.931 . S
H589 C577 0.921 1_565 S
H590 C578 0.960 . S
H591 C578 0.962 . S
H592 C578 0.960 . S
H593 C579 0.961 . S
H594 C579 0.961 . S
H595 C579 0.961 . S
H596 C580 0.931 . S
H597 C585 0.930 . S
H598 C586 0.956 . S
H599 C586 0.961 1_565 S
H600 C586 0.961 1_565 S
H601 C587 0.958 . S
H602 C587 0.961 . S
H603 C587 0.960 . S
C604 C605 1.391 . S
C604 C606 1.394 . S
C604 H620 0.931 . S
C605 C604 1.391 . S
C605 C609 1.376 . S
C606 C604 1.394 . S
C606 C607 1.369 . S
C606 C610 1.531 . S
C607 C606 1.369 . S
C607 C608 1.410 . S
C607 C615 1.503 . S
C608 C607 1.410 . S
C608 C609 1.392 . S
C608 C611 1.511 . S
C609 C605 1.376 . S
C609 C608 1.392 . S
C609 H621 0.929 . S
C610 C606 1.531 . S
C610 H622 0.960 . S
C610 H623 0.962 . S
C610 H624 0.960 . S
C611 C608 1.511 . S
C611 H625 0.961 . S
C611 H626 0.961 . S
C611 H627 0.961 . S
C612 C613 1.370 . S
C612 C614 1.363 . S
C612 H628 0.931 . S
C613 C612 1.370 . S
C613 C617 1.408 . S
C614 C612 1.363 . S
C614 C615 1.370 . S
C614 C618 1.524 . S
C615 C607 1.503 . S
C615 C614 1.370 . S
C615 C616 1.403 . S
C616 C615 1.403 . S
C616 C617 1.404 . S
C616 C619 1.539 . S
C617 C613 1.408 . S
C617 C616 1.404 . S
C617 H629 0.930 . S
C618 C614 1.524 . S
C618 H630 0.956 . S
C618 H631 0.961 . S
C618 H632 0.961 . S
C619 C616 1.539 . S
C619 H633 0.958 . S
C619 H634 0.961 . S
C619 H635 0.960 . S
H620 C604 0.931 . S
H621 C609 0.929 . S
H622 C610 0.960 . S
H623 C610 0.962 . S
H624 C610 0.960 . S
H625 C611 0.961 . S
H626 C611 0.961 . S
H627 C611 0.961 . S
H628 C612 0.931 . S
H629 C617 0.930 . S
H630 C618 0.956 . S
H631 C618 0.961 . S
H632 C618 0.961 . S
H633 C619 0.958 . S
H634 C619 0.961 . S
H635 C619 0.960 . S
C636 C637 1.391 . S
C636 C638 1.394 . S
C636 H652 0.931 . S
C637 C636 1.391 . S
C637 C641 1.376 . S
C638 C636 1.394 . S
C638 C639 1.369 . S
C638 C642 1.531 . S
C639 C638 1.369 . S
C639 C640 1.410 1_545 S
C639 C647 1.503 1_545 S
C640 C639 1.410 1_565 S
C640 C641 1.392 1_565 S
C640 C643 1.511 . S
C641 C637 1.376 . S
C641 C640 1.392 1_545 S
C641 H653 0.929 . S
C642 C638 1.531 . S
C642 H654 0.960 . S
C642 H655 0.962 . S
C642 H656 0.960 . S
C643 C640 1.511 . S
C643 H657 0.961 . S
C643 H658 0.961 . S
C643 H659 0.961 . S
C644 C645 1.370 . S
C644 C646 1.363 1_565 S
C644 H660 0.931 1_565 S
C645 C644 1.370 . S
C645 C649 1.408 . S
C646 C644 1.363 1_545 S
C646 C647 1.370 1_545 S
C646 C650 1.524 . S
C647 C639 1.503 1_565 S
C647 C646 1.370 1_565 S
C647 C648 1.403 . S
C648 C647 1.403 . S
C648 C649 1.404 . S
C648 C651 1.539 . S
C649 C645 1.408 . S
C649 C648 1.404 . S
C649 H661 0.930 . S
C650 C646 1.524 . S
C650 H662 0.956 . S
C650 H663 0.961 . S
C650 H664 0.961 . S
C651 C648 1.539 . S
C651 H665 0.958 . S
C651 H666 0.961 . S
C651 H667 0.960 . S
H652 C636 0.931 . S
H653 C641 0.929 . S
H654 C642 0.960 . S
H655 C642 0.962 . S
H656 C642 0.960 . S
H657 C643 0.961 . S
H658 C643 0.961 . S
H659 C643 0.961 . S
H660 C644 0.931 1_545 S
H661 C649 0.930 . S
H662 C650 0.956 . S
H663 C650 0.961 . S
H664 C650 0.961 . S
H665 C651 0.958 . S
H666 C651 0.961 . S
H667 C651 0.960 . S
C668 C669 1.391 . S
C668 C670 1.394 . S
C668 H684 0.931 . S
C669 C668 1.391 . S
C669 C673 1.376 . S
C670 C668 1.394 . S
C670 C671 1.369 . S
C670 C674 1.531 . S
C671 C670 1.369 . S
C671 C672 1.410 . S
C671 C679 1.503 . S
C672 C671 1.410 . S
C672 C673 1.392 . S
C672 C675 1.511 . S
C673 C669 1.376 . S
C673 C672 1.392 . S
C673 H685 0.929 . S
C674 C670 1.531 . S
C674 H686 0.960 . S
C674 H687 0.962 . S
C674 H688 0.960 . S
C675 C672 1.511 . S
C675 H689 0.961 . S
C675 H690 0.961 . S
C675 H691 0.961 . S
C676 C677 1.370 . S
C676 C678 1.363 . S
C676 H692 0.931 . S
C677 C676 1.370 . S
C677 C681 1.408 . S
C678 C676 1.363 . S
C678 C679 1.370 . S
C678 C682 1.524 . S
C679 C671 1.503 . S
C679 C678 1.370 . S
C679 C680 1.403 . S
C680 C679 1.403 . S
C680 C681 1.404 . S
C680 C683 1.539 . S
C681 C677 1.408 . S
C681 C680 1.404 . S
C681 H693 0.930 . S
C682 C678 1.524 . S
C682 H694 0.956 . S
C682 H695 0.961 . S
C682 H696 0.961 . S
C683 C680 1.539 . S
C683 H697 0.958 . S
C683 H698 0.961 . S
C683 H699 0.960 . S
H684 C668 0.931 . S
H685 C673 0.929 . S
H686 C674 0.960 . S
H687 C674 0.962 . S
H688 C674 0.960 . S
H689 C675 0.961 . S
H690 C675 0.961 . S
H691 C675 0.961 . S
H692 C676 0.931 . S
H693 C681 0.930 . S
H694 C682 0.956 . S
H695 C682 0.961 . S
H696 C682 0.961 . S
H697 C683 0.958 . S
H698 C683 0.961 . S
H699 C683 0.960 . S
C700 C701 1.391 . S
C700 C702 1.394 1_455 S
C700 H716 0.931 . S
C701 C700 1.391 . S
C701 C705 1.376 . S
C702 C700 1.394 1_655 S
C702 C703 1.369 1_655 S
C702 C706 1.531 . S
C703 C702 1.369 1_455 S
C703 C704 1.410 . S
C703 C711 1.503 1_455 S
C704 C703 1.410 . S
C704 C705 1.392 . S
C704 C707 1.511 . S
C705 C701 1.376 . S
C705 C704 1.392 . S
C705 H717 0.929 . S
C706 C702 1.531 . S
C706 H718 0.960 . S
C706 H719 0.962 . S
C706 H720 0.960 . S
C707 C704 1.511 . S
C707 H721 0.961 . S
C707 H722 0.961 . S
C707 H723 0.961 . S
C708 C709 1.370 . S
C708 C710 1.363 1_655 S
C708 H724 0.931 1_655 S
C709 C708 1.370 . S
C709 C713 1.408 . S
C710 C708 1.363 1_455 S
C710 C711 1.370 1_455 S
C710 C714 1.524 . S
C711 C703 1.503 1_655 S
C711 C710 1.370 1_655 S
C711 C712 1.403 . S
C712 C711 1.403 . S
C712 C713 1.404 . S
C712 C715 1.539 . S
C713 C709 1.408 . S
C713 C712 1.404 . S
C713 H725 0.930 . S
C714 C710 1.524 . S
C714 H726 0.956 . S
C714 H727 0.961 . S
C714 H728 0.961 . S
C715 C712 1.539 . S
C715 H729 0.958 . S
C715 H730 0.961 . S
C715 H731 0.960 . S
H716 C700 0.931 . S
H717 C705 0.929 . S
H718 C706 0.960 . S
H719 C706 0.962 . S
H720 C706 0.960 . S
H721 C707 0.961 . S
H722 C707 0.961 . S
H723 C707 0.961 . S
H724 C708 0.931 1_455 S
H725 C713 0.930 . S
H726 C714 0.956 . S
H727 C714 0.961 . S
H728 C714 0.961 . S
H729 C715 0.958 . S
H730 C715 0.961 . S
H731 C715 0.960 . S
C732 C733 1.391 . S
C732 C734 1.394 1_455 S
C732 H748 0.931 1_455 S
C733 C732 1.391 . S
C733 C737 1.376 . S
C734 C732 1.394 1_655 S
C734 C735 1.369 1_655 S
C734 C738 1.531 . S
C735 C734 1.369 1_455 S
C735 C736 1.410 . S
C735 C743 1.503 1_445 S
C736 C735 1.410 . S
C736 C737 1.392 . S
C736 C739 1.511 . S
C737 C733 1.376 . S
C737 C736 1.392 . S
C737 H749 0.929 . S
C738 C734 1.531 . S
C738 H750 0.960 1_545 S
C738 H751 0.962 . S
C738 H752 0.960 . S
C739 C736 1.511 . S
C739 H753 0.961 . S
C739 H754 0.961 . S
C739 H755 0.961 . S
C740 C741 1.370 . S
C740 C742 1.363 . S
C740 H756 0.931 . S
C741 C740 1.370 . S
C741 C745 1.408 . S
C742 C740 1.363 . S
C742 C743 1.370 . S
C742 C746 1.524 . S
C743 C735 1.503 1_665 S
C743 C742 1.370 . S
C743 C744 1.403 . S
C744 C743 1.403 . S
C744 C745 1.404 . S
C744 C747 1.539 1_655 S
C745 C741 1.408 . S
C745 C744 1.404 . S
C745 H757 0.930 . S
C746 C742 1.524 . S
C746 H758 0.956 . S
C746 H759 0.961 1_665 S
C746 H760 0.961 . S
C747 C744 1.539 1_455 S
C747 H761 0.958 1_455 S
C747 H762 0.961 . S
C747 H763 0.960 1_565 S
H748 C732 0.931 1_655 S
H749 C737 0.929 . S
H750 C738 0.960 1_565 S
H751 C738 0.962 . S
H752 C738 0.960 . S
H753 C739 0.961 . S
H754 C739 0.961 . S
H755 C739 0.961 . S
H756 C740 0.931 . S
H757 C745 0.930 . S
H758 C746 0.956 . S
H759 C746 0.961 1_445 S
H760 C746 0.961 . S
H761 C747 0.958 1_655 S
H762 C747 0.961 . S
H763 C747 0.960 1_545 S
C764 C765 1.391 . S
C764 C766 1.394 1_655 S
C764 H780 0.931 . S
C765 C764 1.391 . S
C765 C769 1.376 . S
C766 C764 1.394 1_455 S
C766 C767 1.369 1_455 S
C766 C770 1.531 . S
C767 C766 1.369 1_655 S
C767 C768 1.410 1_545 S
C767 C775 1.503 1_645 S
C768 C767 1.410 1_565 S
C768 C769 1.392 1_565 S
C768 C771 1.511 . S
C769 C765 1.376 . S
C769 C768 1.392 1_545 S
C769 H781 0.929 1_545 S
C770 C766 1.531 . S
C770 H782 0.960 . S
C770 H783 0.962 . S
C770 H784 0.960 . S
C771 C768 1.511 . S
C771 H785 0.961 . S
C771 H786 0.961 . S
C771 H787 0.961 . S
C772 C773 1.370 . S
C772 C774 1.363 . S
C772 H788 0.931 . S
C773 C772 1.370 . S
C773 C777 1.408 . S
C774 C772 1.363 . S
C774 C775 1.370 . S
C774 C778 1.524 . S
C775 C767 1.503 1_465 S
C775 C774 1.370 . S
C775 C776 1.403 . S
C776 C775 1.403 . S
C776 C777 1.404 . S
C776 C779 1.539 . S
C777 C773 1.408 . S
C777 C776 1.404 . S
C777 H789 0.930 . S
C778 C774 1.524 . S
C778 H790 0.956 1_565 S
C778 H791 0.961 1_455 S
C778 H792 0.961 . S
C779 C776 1.539 . S
C779 H793 0.958 1_565 S
C779 H794 0.961 . S
C779 H795 0.960 1_455 S
H780 C764 0.931 . S
H781 C769 0.929 1_565 S
H782 C770 0.960 . S
H783 C770 0.962 . S
H784 C770 0.960 . S
H785 C771 0.961 . S
H786 C771 0.961 . S
H787 C771 0.961 . S
H788 C772 0.931 . S
H789 C777 0.930 . S
H790 C778 0.956 1_545 S
H791 C778 0.961 1_655 S
H792 C778 0.961 . S
H793 C779 0.958 1_545 S
H794 C779 0.961 . S
H795 C779 0.960 1_655 S
C796 C797 1.391 . S
C796 C798 1.394 . S
C796 H812 0.931 . S
C797 C796 1.391 . S
C797 C801 1.376 . S
C798 C796 1.394 . S
C798 C799 1.369 . S
C798 C802 1.531 1_545 S
C799 C798 1.369 . S
C799 C800 1.410 . S
C799 C807 1.503 1_445 S
C800 C799 1.410 . S
C800 C801 1.392 . S
C800 C803 1.511 . S
C801 C797 1.376 . S
C801 C800 1.392 . S
C801 H813 0.929 . S
C802 C798 1.531 1_565 S
C802 H814 0.960 . S
C802 H815 0.962 . S
C802 H816 0.960 . S
C803 C800 1.511 . S
C803 H817 0.961 . S
C803 H818 0.961 1_455 S
C803 H819 0.961 . S
C804 C805 1.370 . S
C804 C806 1.363 . S
C804 H820 0.931 . S
C805 C804 1.370 . S
C805 C809 1.408 . S
C806 C804 1.363 . S
C806 C807 1.370 . S
C806 C810 1.524 1_565 S
C807 C799 1.503 1_665 S
C807 C806 1.370 . S
C807 C808 1.403 . S
C808 C807 1.403 . S
C808 C809 1.404 . S
C808 C811 1.539 . S
C809 C805 1.408 . S
C809 C808 1.404 . S
C809 H821 0.930 . S
C810 C806 1.524 1_545 S
C810 H822 0.956 . S
C810 H823 0.961 . S
C810 H824 0.961 . S
C811 C808 1.539 . S
C811 H825 0.958 . S
C811 H826 0.961 . S
C811 H827 0.960 1_655 S
H812 C796 0.931 . S
H813 C801 0.929 . S
H814 C802 0.960 . S
H815 C802 0.962 . S
H816 C802 0.960 . S
H817 C803 0.961 . S
H818 C803 0.961 1_655 S
H819 C803 0.961 . S
H820 C804 0.931 . S
H821 C809 0.930 . S
H822 C810 0.956 . S
H823 C810 0.961 . S
H824 C810 0.961 . S
H825 C811 0.958 . S
H826 C811 0.961 . S
H827 C811 0.960 1_455 S
C828 C829 1.391 . S
C828 C830 1.394 . S
C828 H844 0.931 . S
C829 C828 1.391 . S
C829 C833 1.376 . S
C830 C828 1.394 . S
C830 C831 1.369 . S
C830 C834 1.531 . S
C831 C830 1.369 . S
C831 C832 1.410 1_565 S
C831 C839 1.503 1_665 S
C832 C831 1.410 1_545 S
C832 C833 1.392 1_545 S
C832 C835 1.511 . S
C833 C829 1.376 . S
C833 C832 1.392 1_565 S
C833 H845 0.929 . S
C834 C830 1.531 . S
C834 H846 0.960 1_655 S
C834 H847 0.962 . S
C834 H848 0.960 . S
C835 C832 1.511 . S
C835 H849 0.961 . S
C835 H850 0.961 1_655 S
C835 H851 0.961 . S
C836 C837 1.370 . S
C836 C838 1.363 1_545 S
C836 H852 0.931 1_545 S
C837 C836 1.370 . S
C837 C841 1.408 . S
C838 C836 1.363 1_565 S
C838 C839 1.370 1_565 S
C838 C842 1.524 . S
C839 C831 1.503 1_445 S
C839 C838 1.370 1_545 S
C839 C840 1.403 . S
C840 C839 1.403 . S
C840 C841 1.404 . S
C840 C843 1.539 . S
C841 C837 1.408 . S
C841 C840 1.404 . S
C841 H853 0.930 . S
C842 C838 1.524 . S
C842 H854 0.956 1_455 S
C842 H855 0.961 1_455 S
C842 H856 0.961 . S
C843 C840 1.539 . S
C843 H857 0.958 . S
C843 H858 0.961 . S
C843 H859 0.960 . S
H844 C828 0.931 . S
H845 C833 0.929 . S
H846 C834 0.960 1_455 S
H847 C834 0.962 . S
H848 C834 0.960 . S
H849 C835 0.961 . S
H850 C835 0.961 1_455 S
H851 C835 0.961 . S
H852 C836 0.931 1_565 S
H853 C841 0.930 . S
H854 C842 0.956 1_655 S
H855 C842 0.961 1_655 S
H856 C842 0.961 . S
H857 C843 0.958 . S
H858 C843 0.961 . S
H859 C843 0.960 . S
C860 C861 1.391 . S
C860 C862 1.394 1_655 S
C860 H876 0.931 . S
C861 C860 1.391 . S
C861 C865 1.376 . S
C862 C860 1.394 1_455 S
C862 C863 1.369 1_455 S
C862 C866 1.531 . S
C863 C862 1.369 1_655 S
C863 C864 1.410 . S
C863 C871 1.503 1_665 S
C864 C863 1.410 . S
C864 C865 1.392 . S
C864 C867 1.511 . S
C865 C861 1.376 . S
C865 C864 1.392 . S
C865 H877 0.929 . S
C866 C862 1.531 . S
C866 H878 0.960 . S
C866 H879 0.962 . S
C866 H880 0.960 . S
C867 C864 1.511 . S
C867 H881 0.961 . S
C867 H882 0.961 1_565 S
C867 H883 0.961 . S
C868 C869 1.370 . S
C868 C870 1.363 . S
C868 H884 0.931 . S
C869 C868 1.370 . S
C869 C873 1.408 . S
C870 C868 1.363 . S
C870 C871 1.370 . S
C870 C874 1.524 . S
C871 C863 1.503 1_445 S
C871 C870 1.370 . S
C871 C872 1.403 . S
C872 C871 1.403 . S
C872 C873 1.404 . S
C872 C875 1.539 . S
C873 C869 1.408 . S
C873 C872 1.404 . S
C873 H885 0.930 . S
C874 C870 1.524 . S
C874 H886 0.933 1_545 S
C874 H887 0.961 1_455 S
C874 H888 0.961 . S
C875 C872 1.539 . S
C875 H889 0.958 . S
C875 H890 0.961 . S
C875 H891 0.960 1_455 S
H876 C860 0.931 . S
H877 C865 0.929 . S
H878 C866 0.960 . S
H879 C866 0.962 . S
H880 C866 0.960 . S
H881 C867 0.961 . S
H882 C867 0.961 1_545 S
H883 C867 0.961 . S
H884 C868 0.931 . S
H885 C873 0.930 . S
H886 C874 0.933 1_565 S
H887 C874 0.961 1_655 S
H888 C874 0.961 . S
H889 C875 0.958 . S
H890 C875 0.961 . S
H891 C875 0.960 1_655 S
C892 C893 1.391 . S
C892 C894 1.394 1_455 S
C892 H908 0.931 1_455 S
C893 C892 1.391 . S
C893 C897 1.376 . S
C894 C892 1.394 1_655 S
C894 C895 1.369 1_655 S
C894 C898 1.531 . S
C895 C894 1.369 1_455 S
C895 C896 1.410 1_565 S
C895 C903 1.503 1_465 S
C896 C895 1.410 1_545 S
C896 C897 1.392 1_545 S
C896 C899 1.511 . S
C897 C893 1.376 . S
C897 C896 1.392 1_565 S
C897 H909 0.929 . S
C898 C894 1.531 . S
C898 H910 0.960 . S
C898 H911 0.962 . S
C898 H912 0.960 . S
C899 C896 1.511 . S
C899 H913 0.961 . S
C899 H914 0.961 . S
C899 H915 0.961 . S
C900 C901 1.370 . S
C900 C902 1.363 . S
C900 H916 0.931 . S
C901 C900 1.370 . S
C901 C905 1.408 . S
C902 C900 1.363 . S
C902 C903 1.370 . S
C902 C906 1.524 . S
C903 C895 1.503 1_645 S
C903 C902 1.370 . S
C903 C904 1.403 . S
C904 C903 1.403 . S
C904 C905 1.404 . S
C904 C907 1.539 1_655 S
C905 C901 1.408 . S
C905 C904 1.404 . S
C905 H917 0.930 . S
C906 C902 1.524 . S
C906 H918 0.956 1_545 S
C906 H919 0.961 1_655 S
C906 H920 0.961 . S
C907 C904 1.539 1_455 S
C907 H921 0.958 1_455 S
C907 H922 0.961 . S
C907 H923 0.960 . S
H908 C892 0.931 1_655 S
H909 C897 0.929 . S
H910 C898 0.960 . S
H911 C898 0.962 . S
H912 C898 0.960 . S
H913 C899 0.961 . S
H914 C899 0.961 . S
H915 C899 0.961 . S
H916 C900 0.931 . S
H917 C905 0.930 . S
H918 C906 0.956 1_565 S
H919 C906 0.961 1_455 S
H920 C906 0.961 . S
H921 C907 0.958 1_655 S
H922 C907 0.961 . S
H923 C907 0.960 . S
C157 C144 1.489 . S
C165 C1 1.510 . S
C189 C14 1.514 . S
C197 C79 1.501 . S
C221 C27 1.488 . S
C229 C92 1.507 . S
C253 C40 1.490 . S
C261 C105 1.507 . S
C285 C118 1.508 . S
C293 C53 1.500 . S
C317 C66 1.511 . S
C325 C131 1.499 . S
C349 C3 1.525 . S
C357 C133 1.506 . S
C381 C16 1.490 . S
C389 C146 1.518 . S
C413 C29 1.523 . S
C421 C81 1.507 . S
C445 C42 1.513 . S
C453 C94 1.512 . S
C477 C107 1.512 . S
C485 C55 1.509 . S
C509 C120 1.505 . S
C517 C68 1.515 . S
C541 C44 1.767 . S
C549 C5 1.784 . S
C573 C18 1.776 . S
C581 C57 1.783 . S
C605 C70 1.774 . S
C613 C31 1.783 . S
C637 C122 1.770 . S
C645 C83 1.784 . S
C669 C135 1.767 . S
C677 C96 1.783 . S
C701 C109 1.768 . S
C709 C148 1.783 . S
C733 C10 1.669 . S
C741 C49 1.665 . S
C765 C23 1.659 . S
C773 C62 1.665 . S
C797 C75 1.670 . S
C805 C36 1.661 . S
C829 C88 1.649 . S
C837 C127 1.671 . S
C861 C101 1.658 . S
C869 C140 1.665 . S
C893 C114 1.668 . S
C901 C153 1.666 . S
