# Generated by pormake.
# Topology ecm, (8)-cn, num edge types: 1
# Building blocks:
#     Node 0, Type 0, BuildingBlock: TAGTUT_clean_sbu_1, # of connection points: 8
#     Node 1, Type 0, BuildingBlock: TAGTUT_clean_sbu_1, # of connection points: 8
#     Node 2, Type 0, BuildingBlock: TAGTUT_clean_sbu_1, # of connection points: 8
#     Node 3, Type 0, BuildingBlock: TAGTUT_clean_sbu_1, # of connection points: 8
#     Node 4, Type 0, BuildingBlock: TAGTUT_clean_sbu_1, # of connection points: 8
#     Node 5, Type 0, BuildingBlock: TAGTUT_clean_sbu_1, # of connection points: 8
#     Node 6, Type 0, BuildingBlock: TAGTUT_clean_sbu_1, # of connection points: 8
#     Node 7, Type 0, BuildingBlock: TAGTUT_clean_sbu_1, # of connection points: 8
#     Edge 8, Type (0, 0), BuildingBlock: OJICUG_clean_linker_0, # of connection points: 2
#     Edge 9, Type (0, 0), BuildingBlock: OJICUG_clean_linker_0, # of connection points: 2
#     Edge 10, Type (0, 0), BuildingBlock: OJICUG_clean_linker_0, # of connection points: 2
#     Edge 11, Type (0, 0), BuildingBlock: OJICUG_clean_linker_0, # of connection points: 2
#     Edge 12, Type (0, 0), BuildingBlock: OJICUG_clean_linker_0, # of connection points: 2
#     Edge 13, Type (0, 0), BuildingBlock: OJICUG_clean_linker_0, # of connection points: 2
#     Edge 14, Type (0, 0), BuildingBlock: OJICUG_clean_linker_0, # of connection points: 2
#     Edge 15, Type (0, 0), BuildingBlock: OJICUG_clean_linker_0, # of connection points: 2
#     Edge 16, Type (0, 0), BuildingBlock: OJICUG_clean_linker_0, # of connection points: 2
#     Edge 17, Type (0, 0), BuildingBlock: OJICUG_clean_linker_0, # of connection points: 2
#     Edge 18, Type (0, 0), BuildingBlock: OJICUG_clean_linker_0, # of connection points: 2
#     Edge 19, Type (0, 0), BuildingBlock: OJICUG_clean_linker_0, # of connection points: 2
#     Edge 20, Type (0, 0), BuildingBlock: OJICUG_clean_linker_0, # of connection points: 2
#     Edge 21, Type (0, 0), BuildingBlock: OJICUG_clean_linker_0, # of connection points: 2
#     Edge 22, Type (0, 0), BuildingBlock: OJICUG_clean_linker_0, # of connection points: 2
#     Edge 23, Type (0, 0), BuildingBlock: OJICUG_clean_linker_0, # of connection points: 2
#     Edge 24, Type (0, 0), BuildingBlock: OJICUG_clean_linker_0, # of connection points: 2
#     Edge 25, Type (0, 0), BuildingBlock: OJICUG_clean_linker_0, # of connection points: 2
#     Edge 26, Type (0, 0), BuildingBlock: OJICUG_clean_linker_0, # of connection points: 2
#     Edge 27, Type (0, 0), BuildingBlock: OJICUG_clean_linker_0, # of connection points: 2
#     Edge 28, Type (0, 0), BuildingBlock: OJICUG_clean_linker_0, # of connection points: 2
#     Edge 29, Type (0, 0), BuildingBlock: OJICUG_clean_linker_0, # of connection points: 2
#     Edge 30, Type (0, 0), BuildingBlock: OJICUG_clean_linker_0, # of connection points: 2
#     Edge 31, Type (0, 0), BuildingBlock: OJICUG_clean_linker_0, # of connection points: 2
#     Edge 32, Type (0, 0), BuildingBlock: OJICUG_clean_linker_0, # of connection points: 2
#     Edge 33, Type (0, 0), BuildingBlock: OJICUG_clean_linker_0, # of connection points: 2
#     Edge 34, Type (0, 0), BuildingBlock: OJICUG_clean_linker_0, # of connection points: 2
#     Edge 35, Type (0, 0), BuildingBlock: OJICUG_clean_linker_0, # of connection points: 2
#     Edge 36, Type (0, 0), BuildingBlock: OJICUG_clean_linker_0, # of connection points: 2
#     Edge 37, Type (0, 0), BuildingBlock: OJICUG_clean_linker_0, # of connection points: 2
#     Edge 38, Type (0, 0), BuildingBlock: OJICUG_clean_linker_0, # of connection points: 2
#     Edge 39, Type (0, 0), BuildingBlock: OJICUG_clean_linker_0, # of connection points: 2
# Relax obj value: 0.269
# Max RMSD: 0.269
# Mean RMSD: 0.269
data_MOF--net-ecm--node1-TAGTUT_clean_sbu_1--edge1-OJICUG_clean_linker_0
_symmetry_space_group_name_H-M    P1
_symmetry_Int_Tables_number       1
_symmetry_cell_setting            triclinic
loop_
_symmetry_equiv_pos_as_xyz
'x, y, z'
_cell_length_a     31.716412
_cell_length_b     32.370732
_cell_length_c     12.007574
_cell_angle_alpha  89.936784
_cell_angle_beta   89.852979
_cell_angle_gamma 90.297214
loop_
_atom_site_label
_atom_site_type_symbol
_atom_site_fract_x
_atom_site_fract_y
_atom_site_fract_z
_atom_type_partial_charge
C0 C 0.59897 0.30717 0.986 0.0
C1 C 0.57193 0.21003 0.2445 0.0
C2 C 0.4581 0.14591 0.97013 0.0
Mg3 Mg 0.52785 0.29026 0.16258 0.0
O4 O 0.50788 0.26098 0.03741 0.0
Mg5 Mg 0.54325 0.21625 0.97235 0.0
Mg6 Mg 0.45241 0.23317 0.04856 0.0
O7 O 0.39276 0.20769 0.05279 0.0
Mg8 Mg 0.37728 0.18188 0.90224 0.0
Mg9 Mg 0.36064 0.26075 0.12341 0.0
C10 C 0.4335 0.32508 0.14523 0.0
C11 C 0.42744 0.23349 0.31566 0.0
O12 O 0.59372 0.27097 0.94201 0.0
O13 O 0.57778 0.3192 0.07082 0.0
O14 O 0.5719 0.19988 0.14188 0.0
O15 O 0.55351 0.24308 0.27751 0.0
O16 O 0.47107 0.32985 0.18412 0.0
O17 O 0.42289 0.2931 0.08894 0.0
C18 C 0.47582 0.23739 0.78031 0.0
O19 O 0.44765 0.24226 0.85598 0.0
O20 O 0.51371 0.22846 0.80514 0.0
O21 O 0.35784 0.19199 0.08005 0.0
O22 O 0.32097 0.15158 0.97325 0.0
O23 O 0.33926 0.27893 0.94761 0.0
C24 C 0.32301 0.17235 0.06311 0.0
O25 O 0.35629 0.23577 0.80847 0.0
O26 O 0.44104 0.15687 0.87857 0.0
C27 C 0.34073 0.26981 0.84402 0.0
O28 O 0.48539 0.1704 0.01417 0.0
O29 O 0.4555 0.22609 0.24084 0.0
O30 O 0.39 0.24488 0.29052 0.0
C31 C 0.20106 0.75255 0.9609 0.0
C32 C 0.29265 0.69464 0.18303 0.0
C33 C 0.34079 0.61154 0.87335 0.0
Mg34 Mg 0.20084 0.67482 0.11093 0.0
O35 O 0.22054 0.65356 0.96942 0.0
Mg36 Mg 0.27396 0.68056 0.91196 0.0
Mg37 Mg 0.24484 0.59572 0.97713 0.0
O38 O 0.27164 0.54157 0.9912 0.0
Mg39 Mg 0.30187 0.52122 0.8663 0.0
Mg40 Mg 0.22379 0.50938 0.05527 0.0
C41 C 0.15631 0.59739 0.05623 0.0
C42 C 0.24737 0.57518 0.24682 0.0
O43 O 0.23324 0.73717 0.91153 0.0
O44 O 0.18146 0.73448 0.04136 0.0
O45 O 0.30162 0.69793 0.08021 0.0
O46 O 0.25566 0.68482 0.21512 0.0
O47 O 0.16947 0.61489 0.14487 0.0
O48 O 0.1784 0.56773 0.01408 0.0
C49 C 0.242 0.61989 0.71332 0.0
O50 O 0.23784 0.59128 0.78674 0.0
O51 O 0.25152 0.65717 0.74022 0.0
O52 O 0.27686 0.45775 0.08531 0.0
O53 O 0.3279 0.4715 0.95878 0.0
O54 O 0.20704 0.48203 0.88419 0.0
C55 C 0.31372 0.4511 0.04238 0.0
O56 O 0.25386 0.49702 0.75126 0.0
O57 O 0.34573 0.57449 0.83698 0.0
C58 C 0.21875 0.48095 0.78238 0.0
O59 O 0.3084 0.62134 0.93027 0.0
O60 O 0.25304 0.60204 0.16963 0.0
O61 O 0.2378 0.53786 0.22399 0.0
C62 C 0.4622 0.73661 0.97716 0.0
C63 C 0.49002 0.83162 0.23875 0.0
C64 C 0.60609 0.89726 0.96943 0.0
Mg65 Mg 0.53308 0.75165 0.15334 0.0
O66 O 0.55249 0.78122 0.02657 0.0
Mg67 Mg 0.51851 0.82752 0.96566 0.0
Mg68 Mg 0.6072 0.80888 0.03988 0.0
O69 O 0.66521 0.83509 0.04874 0.0
Mg70 Mg 0.68797 0.86051 0.91467 0.0
Mg71 Mg 0.69435 0.78373 0.10177 0.0
C72 C 0.62606 0.7152 0.13779 0.0
C73 C 0.63147 0.80937 0.30355 0.0
O74 O 0.46772 0.77299 0.93386 0.0
O75 O 0.483 0.72407 0.06185 0.0
O76 O 0.49025 0.84255 0.13665 0.0
O77 O 0.50793 0.79813 0.27014 0.0
O78 O 0.58873 0.7106 0.17873 0.0
O79 O 0.63559 0.7465 0.07783 0.0
C80 C 0.58563 0.80724 0.77136 0.0
O81 O 0.61351 0.80133 0.84687 0.0
O82 O 0.54784 0.81647 0.79693 0.0
O83 O 0.74852 0.82731 0.11542 0.0
O84 O 0.74586 0.88173 0.99766 0.0
O85 O 0.71665 0.76438 0.92972 0.0
C86 C 0.76345 0.86119 0.07647 0.0
O87 O 0.70651 0.81221 0.80014 0.0
O88 O 0.62483 0.88616 0.88024 0.0
C89 C 0.71828 0.77614 0.82868 0.0
O90 O 0.57699 0.87336 1.00961 0.0
O91 O 0.6025 0.81535 0.23095 0.0
O92 O 0.66894 0.79936 0.27474 0.0
C93 C 0.86226 0.29058 0.95556 0.0
C94 C 0.77024 0.34793 0.17824 0.0
C95 C 0.72139 0.43147 0.87272 0.0
Mg96 Mg 0.86198 0.36823 0.10484 0.0
O97 O 0.84225 0.38927 0.96334 0.0
Mg98 Mg 0.78884 0.3622 0.907 0.0
Mg99 Mg 0.81808 0.44713 0.97106 0.0
O100 O 0.79138 0.50136 0.98512 0.0
Mg101 Mg 0.76056 0.52197 0.86165 0.0
Mg102 Mg 0.83908 0.5335 0.04884 0.0
C103 C 0.90668 0.44531 0.04789 0.0
C104 C 0.81586 0.46756 0.24082 0.0
O105 O 0.82996 0.30569 0.90631 0.0
O106 O 0.88168 0.30878 0.03566 0.0
O107 O 0.76131 0.34458 0.07556 0.0
O108 O 0.80716 0.35802 0.20977 0.0
O109 O 0.89352 0.42806 0.13717 0.0
O110 O 0.88467 0.47506 1.00575 0.0
C111 C 0.82074 0.42297 0.70756 0.0
O112 O 0.82492 0.45159 0.78072 0.0
O113 O 0.81117 0.38571 0.73482 0.0
O114 O 0.78563 0.58487 0.08107 0.0
O115 O 0.7342 0.57101 0.95644 0.0
O116 O 0.85531 0.56138 0.87809 0.0
C117 C 0.7485 0.59127 0.03979 0.0
O118 O 0.80836 0.54748 0.74545 0.0
O119 O 0.71633 0.46854 0.83617 0.0
C120 C 0.84354 0.56337 0.77663 0.0
O121 O 0.75438 0.42153 0.92651 0.0
O122 O 0.81006 0.44075 0.16385 0.0
O123 O 0.82547 0.50485 0.21761 0.0
C124 C 0.10294 0.80631 0.49034 0.0
C125 C 0.07286 0.71075 0.7505 0.0
C126 C 0.95845 0.64893 0.47154 0.0
Mg127 Mg 1.03147 0.79153 0.66645 0.0
O128 O 1.0117 0.76233 0.5404 0.0
Mg129 Mg 0.04586 0.7164 0.47711 0.0
Mg130 Mg 0.95585 0.73603 0.55108 0.0
O131 O 0.89517 0.71268 0.55519 0.0
Mg132 Mg 0.88128 0.69085 0.39956 0.0
Mg133 Mg 0.86521 0.76704 0.6278 0.0
C134 C 0.93888 0.82883 0.6482 0.0
C135 C 0.93168 0.736 0.81843 0.0
O136 O 0.09724 0.77012 0.4467 0.0
O137 O 0.08213 0.81876 0.57531 0.0
O138 O 0.07288 0.70047 0.64802 0.0
O139 O 0.05523 0.74425 0.78304 0.0
O140 O 0.97637 0.83332 0.68746 0.0
O141 O 0.92816 0.79676 0.59281 0.0
C142 C 0.98081 0.7389 0.28217 0.0
O143 O 0.95262 0.74556 0.35701 0.0
O144 O 1.01801 0.72812 0.30814 0.0
O145 O 0.85805 0.69947 0.57451 0.0
O146 O 0.82189 0.66274 0.45658 0.0
O147 O 0.84659 0.78999 0.45341 0.0
C148 C 0.82275 0.68206 0.54889 0.0
O149 O 0.86753 0.74871 0.31346 0.0
O150 O 0.94273 0.66085 0.37918 0.0
C151 C 0.85247 0.78289 0.3497 0.0
O152 O 0.9865 0.67212 0.51745 0.0
O153 O 0.95917 0.72824 0.74269 0.0
O154 O 0.89436 0.74839 0.7949 0.0
C155 C 0.70141 0.25242 0.45655 0.0
C156 C 0.79307 0.19523 0.68019 0.0
C157 C 0.84239 0.11167 0.37483 0.0
Mg158 Mg 0.70143 0.17495 0.60733 0.0
O159 O 0.72152 0.15369 0.4663 0.0
Mg160 Mg 0.77494 0.18081 0.40925 0.0
Mg161 Mg 0.7458 0.09584 0.47449 0.0
O162 O 0.77259 0.04165 0.48865 0.0
Mg163 Mg 0.80262 1.02144 0.36335 0.0
Mg164 Mg 0.72509 1.00928 0.55355 0.0
C165 C 0.65718 0.09756 0.55134 0.0
C166 C 0.74826 0.07545 0.74428 0.0
O167 O 0.73384 0.23727 0.40771 0.0
O168 O 0.68181 0.23431 0.5369 0.0
O169 O 0.80214 0.19851 0.57746 0.0
O170 O 0.75609 0.18523 0.71203 0.0
O171 O 0.67003 0.11503 0.64036 0.0
O172 O 0.6793 0.06765 0.51032 0.0
C173 C 0.74329 0.11992 0.21076 0.0
O174 O 0.73908 0.09132 0.28419 0.0
O175 O 0.75285 0.15718 0.23759 0.0
O176 O 0.7792 0.95816 0.5845 0.0
O177 O 0.82916 0.9719 0.45514 0.0
O178 O 0.70786 0.98123 0.38384 0.0
C179 C 0.81594 0.95176 0.54022 0.0
O180 O 0.75394 0.99684 0.24969 0.0
O181 O 0.84718 0.07469 0.3375 0.0
C182 C 0.71911 0.98031 0.28175 0.0
O183 O 0.80948 0.1216 0.42935 0.0
O184 O 0.75368 0.10232 0.66705 0.0
O185 O 0.73901 0.03807 0.72155 0.0
C186 C 0.96583 0.235 0.48732 0.0
C187 C 0.9928 0.33195 0.745 0.0
C188 C 0.10736 0.39597 0.47106 0.0
Mg189 Mg 0.03684 0.25159 0.66366 0.0
O190 O 0.05714 0.28092 0.53844 0.0
Mg191 Mg 1.02197 0.32575 0.47327 0.0
Mg192 Mg 0.11271 0.30862 0.54908 0.0
O193 O 0.17243 0.33396 0.55271 0.0
Mg194 Mg 0.1882 0.35997 0.40226 0.0
Mg195 Mg 0.20437 0.2808 0.62311 0.0
C196 C 0.1313 0.21667 0.64606 0.0
C197 C 0.13762 0.30813 0.81581 0.0
O198 O 0.9713 0.27121 0.44334 0.0
O199 O 0.98693 0.22278 0.57193 0.0
O200 O 0.99317 0.34204 0.64234 0.0
O201 O 1.01104 0.29887 0.77848 0.0
O202 O 0.09364 0.21195 0.68509 0.0
O203 O 0.14203 0.24861 0.58944 0.0
C204 C 0.08946 0.30455 0.28108 0.0
O205 O 0.11759 0.29962 0.35648 0.0
O206 O 0.05158 0.31352 0.30622 0.0
O207 O 0.20733 0.34958 0.57999 0.0
O208 O 0.24445 0.39009 0.47338 0.0
O209 O 0.22578 0.26275 0.44724 0.0
C210 C 0.24219 0.36922 0.5632 0.0
O211 O 0.20914 0.3061 0.30819 0.0
O212 O 0.12452 0.38514 0.37933 0.0
C213 C 0.22448 0.27196 0.34367 0.0
O214 O 0.07992 0.37147 0.51496 0.0
O215 O 0.10957 0.3156 0.74133 0.0
O216 O 0.17502 0.29665 0.79029 0.0
C217 C 0.36278 0.78906 0.45988 0.0
C218 C 0.27157 0.84721 0.68385 0.0
C219 C 0.22366 0.93083 0.37575 0.0
Mg220 Mg 0.36343 0.86666 0.60975 0.0
O221 O 0.34368 0.88807 0.46864 0.0
Mg222 Mg 0.29012 0.86137 0.41237 0.0
Mg223 Mg 0.31978 0.94612 0.47659 0.0
O224 O 0.29321 1.00037 0.49104 0.0
Mg225 Mg 0.26298 1.02088 0.36667 0.0
Mg226 Mg 0.34114 0.03237 0.55427 0.0
C227 C 0.40823 0.94381 0.55204 0.0
C228 C 0.31757 0.96654 0.74625 0.0
O229 O 0.33059 0.80454 0.41111 0.0
O230 O 0.38248 0.80701 0.53995 0.0
O231 O 0.26255 0.84402 0.58118 0.0
O232 O 0.30861 0.85692 0.71527 0.0
O233 O 0.39546 0.92634 0.64147 0.0
O234 O 0.38631 0.9739 0.51172 0.0
C235 C 0.32231 0.92192 0.21294 0.0
O236 O 0.32664 0.95054 0.28608 0.0
O237 O 0.31257 0.88471 0.24021 0.0
O238 O 0.28815 0.08409 0.58546 0.0
O239 O 0.23716 0.07062 0.45934 0.0
O240 O 0.35777 0.05976 0.38314 0.0
C241 C 0.25131 0.09086 0.54292 0.0
O242 O 0.31101 0.0449 0.25068 0.0
O243 O 0.21878 0.96788 0.33921 0.0
C244 C 0.34612 0.0609 0.28147 0.0
O245 O 0.25617 0.92086 0.4315 0.0
O246 O 0.31179 0.93974 0.66925 0.0
O247 O 0.32722 1.00384 0.72316 0.0
C248 C 0.48732 0.2141 0.58371 0.0
C249 C 0.46392 0.23742 0.66105 0.0
H250 H 0.49379 0.19382 0.41444 0.0
C251 C 0.42857 0.2591 0.6237 0.0
H252 H 0.51465 0.19673 0.61005 0.0
C253 C 0.4164 0.25702 0.51195 0.0
C254 C 0.43947 0.23336 0.43482 0.0
H255 H 0.4108 0.27823 0.68051 0.0
H256 H 0.38942 0.27481 0.48533 0.0
C257 C 0.47527 0.21214 0.47178 0.0
C258 C 0.22557 0.62338 0.40018 0.0
C259 C 0.24729 0.58784 0.36536 0.0
H260 H 0.20696 0.66174 0.53794 0.0
C261 C 0.26533 0.5622 0.44631 0.0
H262 H 0.20933 0.64252 0.3404 0.0
C263 C 0.26284 0.57251 0.55924 0.0
C264 C 0.24178 0.60837 0.59404 0.0
H265 H 0.28166 0.53428 0.42214 0.0
H266 H 0.27856 0.55303 0.61917 0.0
C267 C 0.2234 0.63393 0.51338 0.0
C268 C 0.64476 0.78769 0.50092 0.0
C269 C 0.62066 0.81025 0.42377 0.0
H270 H 0.65152 0.76754 0.67021 0.0
C271 C 0.58487 0.8313 0.46184 0.0
H272 H 0.67199 0.77031 0.47373 0.0
C273 C 0.57349 0.8299 0.57445 0.0
C274 C 0.59754 0.80728 0.65169 0.0
H275 H 0.56576 0.84903 0.40467 0.0
H276 H 0.54602 0.847 0.60124 0.0
C277 C 0.63317 0.78607 0.6135 0.0
C278 C 0.83714 0.41917 0.39428 0.0
C279 C 0.81589 0.45497 0.35947 0.0
H280 H 0.85516 0.38058 0.53208 0.0
C281 C 0.79834 0.48096 0.44049 0.0
H282 H 0.85316 0.39983 0.33448 0.0
C283 C 0.80076 0.47071 0.55347 0.0
C284 C 0.82116 0.43448 0.58822 0.0
H285 H 0.78245 0.50913 0.41634 0.0
H286 H 0.78548 0.49052 0.6135 0.0
C287 C 0.83914 0.40862 0.50752 0.0
C288 C 0.94381 0.76983 0.11852 0.0
C289 C 0.96958 0.73906 0.16262 0.0
H290 H 0.91183 0.79288 0.9742 0.0
C291 C 0.9847 0.70784 0.09135 0.0
H292 H 0.93361 0.79517 0.17062 0.0
C293 C 0.97261 0.70654 0.97909 0.0
C294 C 0.9449 0.73627 0.93656 0.0
H295 H 1.00529 0.68396 0.12298 0.0
H296 H 0.98432 0.68203 0.92619 0.0
C297 C 0.93148 0.76841 1.00663 0.0
C298 C 0.72464 0.13413 1.01106 0.0
C299 C 0.74292 0.10841 0.09154 0.0
H300 H 0.71049 0.14287 0.8382 0.0
C301 C 0.76368 0.07241 0.0566 0.0
H302 H 0.70837 0.16201 0.03579 0.0
C303 C 0.76612 0.0622 0.94363 0.0
C304 C 0.74825 0.08804 0.86283 0.0
H305 H 0.77922 0.05274 0.11644 0.0
H306 H 0.78227 0.0342 0.9193 0.0
C307 C 0.72669 0.12364 0.89783 0.0
C308 C 0.13675 0.28286 0.12412 0.0
C309 C 0.10134 0.30446 0.16171 0.0
H310 H 0.17589 0.26714 0.98535 0.0
C311 C 0.07778 0.32758 0.08444 0.0
H312 H 0.15462 0.26387 0.18091 0.0
C313 C 0.08975 0.32945 0.9723 0.0
C314 C 0.12562 0.30833 0.9351 0.0
H315 H 0.05037 0.34485 0.11094 0.0
H316 H 0.07111 0.34761 0.91501 0.0
C317 C 0.14885 0.28485 0.01216 0.0
C318 C 0.30194 0.96941 0.05871 0.0
C319 C 0.32268 0.9334 0.09359 0.0
H320 H 0.28349 1.00773 0.92149 0.0
C321 C 0.34092 0.90767 0.01298 0.0
H322 H 0.28634 0.98904 0.11862 0.0
C323 C 0.33892 0.9182 0.89972 0.0
C324 C 0.31749 0.95389 0.86484 0.0
H325 H 0.35714 0.87976 0.03764 0.0
H326 H 0.35507 0.89894 0.83994 0.0
C327 C 0.29959 0.9797 0.94574 0.0
C328 C 0.43698 0.12467 0.16468 0.0
C329 C 0.43096 0.12174 0.04899 0.0
H330 H 0.4148 0.1089 0.32713 0.0
C331 C 0.39767 0.09665 1.00972 0.0
H332 H 0.46253 0.14297 0.19874 0.0
C333 C 0.36993 0.07678 0.08425 0.0
C334 C 0.37512 0.08118 0.19986 0.0
H335 H 0.39244 0.09313 0.92113 0.0
H336 H 0.3443 0.0583 0.05128 0.0
C337 C 0.40939 0.10496 0.23873 0.0
C338 C 0.11118 0.65996 0.01887 0.0
C339 C 0.13252 0.6248 0.97822 0.0
H340 H 0.07624 0.71487 0.98029 0.0
C341 C 0.13269 0.61783 0.86287 0.0
H342 H 0.10999 0.66623 0.10742 0.0
C343 C 0.11344 0.64583 0.79029 0.0
C344 C 0.09303 0.68155 0.83054 0.0
H345 H 0.1485 0.59122 0.82805 0.0
H346 H 0.11497 0.63944 0.70186 0.0
C347 C 0.09186 0.68804 0.94606 0.0
C348 C 0.66775 0.94442 1.01102 0.0
C349 C 0.63301 0.92092 0.04991 0.0
H350 H 0.72237 0.98082 0.0521 0.0
C351 C 0.62627 0.91861 0.16546 0.0
H352 H 0.6738 0.94737 0.92253 0.0
C353 C 0.65427 0.93779 0.23964 0.0
C354 C 0.68974 0.96017 0.20081 0.0
H355 H 0.59989 0.90122 0.19907 0.0
H356 H 0.6482 0.93461 0.32805 0.0
C357 C 0.69584 0.96354 0.0853 0.0
C358 C 0.95166 0.38241 1.01167 0.0
C359 C 0.93066 0.41767 0.9703 0.0
H360 H 0.98678 0.32743 0.97457 0.0
C361 C 0.93131 0.4246 0.85487 0.0
H362 H 0.95218 0.37605 0.10023 0.0
C363 C 0.95128 0.39668 0.78307 0.0
C364 C 0.97155 0.36096 0.82413 0.0
H365 H 0.91573 0.45123 0.81941 0.0
H366 H 0.95053 0.40316 0.6946 0.0
C367 C 0.97155 0.35434 0.93966 0.0
C368 C 0.32995 0.38354 0.13988 0.0
C369 C 0.34342 0.42095 0.09222 0.0
H370 H 0.34835 0.32415 0.2012 0.0
C371 C 0.38708 0.42875 0.08336 0.0
H372 H 0.29664 0.37689 0.14964 0.0
C373 C 0.41651 0.39867 0.11199 0.0
C374 C 0.40312 0.35976 0.14919 0.0
H375 H 0.39864 0.45771 0.04937 0.0
H376 H 0.44965 0.40481 0.09668 0.0
C377 C 0.35964 0.35313 0.16787 0.0
C378 C 0.39532 0.71593 0.87516 0.0
C379 C 0.43361 0.70541 0.92577 0.0
H380 H 0.33619 0.69374 0.81194 0.0
C381 C 0.44387 0.66318 0.93586 0.0
H382 H 0.38677 0.74804 0.86443 0.0
C383 C 0.41514 0.63227 0.90602 0.0
C384 C 0.37518 0.64272 0.86625 0.0
H385 H 0.47361 0.65388 0.97204 0.0
H386 H 0.42292 0.60033 0.92309 0.0
C387 C 0.36628 0.68477 0.84598 0.0
C388 C 0.70105 0.6901 0.15468 0.0
C389 C 0.65753 0.68143 0.14453 0.0
H390 H 0.76455 0.66829 0.13094 0.0
C391 C 0.64507 0.64109 0.11792 0.0
H392 H 0.71178 0.72048 0.17872 0.0
C393 C 0.67522 0.61135 0.09085 0.0
C394 C 0.71865 0.62099 0.09113 0.0
H395 H 0.61196 0.63337 0.10907 0.0
H396 H 0.66434 0.58117 0.06411 0.0
C397 C 0.73141 0.66008 0.12865 0.0
C398 C 0.66558 0.32761 0.88119 0.0
C399 C 0.62796 0.33843 0.93538 0.0
H400 H 0.72439 0.34916 0.81315 0.0
C401 C 0.61859 0.38077 0.94776 0.0
H402 H 0.67352 0.29543 0.86889 0.0
C403 C 0.64735 0.4114 0.91511 0.0
C404 C 0.68658 0.40059 0.87046 0.0
H405 H 0.58944 0.39036 0.98698 0.0
H406 H 0.64022 0.44341 0.93318 0.0
C407 C 0.69474 0.35845 0.84971 0.0
C408 C 0.8951 0.6025 0.50726 0.0
C409 C 0.92972 0.62541 0.54839 0.0
H410 H 0.84034 0.56547 0.54576 0.0
C411 C 0.93595 0.62645 0.66423 0.0
H412 H 0.88951 0.60054 0.41847 0.0
C413 C 0.90783 0.60655 0.73663 0.0
C414 C 0.87262 0.58446 0.69612 0.0
H415 H 0.96231 0.64319 0.69978 0.0
H416 H 0.91376 0.60882 0.82521 0.0
C417 C 0.86676 0.58246 0.58019 0.0
C418 C 0.61247 0.16043 0.51274 0.0
C419 C 0.63345 0.12496 0.47265 0.0
H420 H 0.57764 0.21537 0.47374 0.0
C421 C 0.633 0.11757 0.35742 0.0
H422 H 0.61178 0.16715 0.60107 0.0
C423 C 0.61322 0.14527 0.2846 0.0
C424 C 0.59299 0.18119 0.32442 0.0
H425 H 0.64855 0.09075 0.32293 0.0
H426 H 0.61409 0.13845 0.19635 0.0
C427 C 0.59281 0.18826 0.43974 0.0
C428 C 0.12814 0.41708 0.66571 0.0
C429 C 0.13441 0.42003 0.54999 0.0
H430 H 0.14994 0.43289 0.82818 0.0
C431 C 0.16779 0.44512 0.51072 0.0
H432 H 0.10251 0.39877 0.69978 0.0
C433 C 0.19535 0.46501 0.58523 0.0
C434 C 0.18989 0.46064 0.70088 0.0
H435 H 0.17323 0.44867 0.42212 0.0
H436 H 0.22105 0.48348 0.55219 0.0
C437 C 0.15554 0.43683 0.73977 0.0
C438 C 0.4317 0.92465 0.35714 0.0
C439 C 0.43118 0.91638 0.47198 0.0
H440 H 0.44981 0.90453 0.19472 0.0
C441 C 0.45114 0.88007 0.51 0.0
H442 H 0.41693 0.95215 0.32425 0.0
C443 C 0.46979 0.85224 0.4352 0.0
C444 C 0.46971 0.86025 0.3203 0.0
H445 H 0.45175 0.87269 0.59798 0.0
H446 H 0.48414 0.82443 0.46748 0.0
C447 C 0.45054 0.89699 0.28259 0.0
C448 C 0.83485 0.8866 0.64749 0.0
C449 C 0.84688 0.92264 0.59027 0.0
H450 H 0.85523 0.82918 0.71827 0.0
C451 C 0.89031 0.93028 0.57342 0.0
H452 H 0.80188 0.88011 0.66378 0.0
C453 C 0.9206 0.90124 0.60371 0.0
C454 C 0.90844 0.86352 0.65105 0.0
H455 H 0.90099 0.95824 0.5322 0.0
H456 H 0.9533 0.90703 0.58209 0.0
C457 C 0.86545 0.85724 0.67742 0.0
C458 C 0.91659 0.13119 0.41654 0.0
C459 C 0.87742 0.14235 0.37264 0.0
H460 H 0.97471 0.1517 0.48762 0.0
C461 C 0.86953 0.18461 0.35263 0.0
H462 H 0.92351 0.0991 0.43412 0.0
C463 C 0.89896 0.21518 0.38379 0.0
C464 C 0.93656 0.20399 0.43709 0.0
H465 H 0.83991 0.19419 0.31682 0.0
H466 H 0.89123 0.24744 0.37197 0.0
C467 C 0.94561 0.16156 0.44899 0.0
C468 C 0.20512 0.18864 0.66895 0.0
C469 C 0.16167 0.18198 0.65031 0.0
H470 H 0.26818 0.16498 0.65043 0.0
C471 C 0.14838 0.14308 0.61329 0.0
H472 H 0.21633 0.21759 0.70228 0.0
C473 C 0.17789 0.11305 0.58463 0.0
C474 C 0.22154 0.1209 0.59322 0.0
H475 H 0.11527 0.13692 0.59807 0.0
H476 H 0.16641 0.08411 0.55072 0.0
C477 C 0.23489 0.15829 0.64084 0.0
C478 C 0.19753 0.8579 0.35046 0.0
C479 C 0.18904 0.89996 0.37146 0.0
H480 H 0.17705 0.79473 0.37109 0.0
C481 C 0.14977 0.91056 0.4159 0.0
H482 H 0.22717 0.84886 0.31339 0.0
C483 C 0.12141 0.87976 0.4492 0.0
C484 C 0.13135 0.83751 0.43789 0.0
H485 H 0.1424 0.94252 0.43383 0.0
H486 H 0.09222 0.88917 0.48855 0.0
C487 C 0.16882 0.82686 0.38296 0.0
C488 C 0.29842 0.3174 0.5782 0.0
C489 C 0.27953 0.35337 0.61954 0.0
H490 H 0.33077 0.26144 0.61796 0.0
C491 C 0.28553 0.3643 0.73112 0.0
H492 H 0.29342 0.30809 0.49266 0.0
C493 C 0.30764 0.3382 0.80246 0.0
C494 C 0.3232 0.30008 0.76398 0.0
H495 H 0.27017 0.39133 0.76532 0.0
H496 H 0.31019 0.34684 0.88934 0.0
C497 C 0.31952 0.29059 0.6502 0.0
C498 C 0.38739 0.7456 0.31247 0.0
C499 C 0.37322 0.74745 0.42315 0.0
H500 H 0.37055 0.72929 0.14579 0.0
C501 C 0.34376 0.71774 0.45891 0.0
H502 H 0.41155 0.7669 0.28358 0.0
C503 C 0.31853 0.69781 0.38009 0.0
C504 C 0.32554 0.7047 0.266 0.0
H505 H 0.33366 0.71708 0.54524 0.0
H506 H 0.2914 0.68046 0.40858 0.0
C507 C 0.36284 0.72513 0.23306 0.0
C508 C 0.77447 0.68379 0.7083 0.0
C509 C 0.7846 0.69795 0.60143 0.0
H510 H 0.74463 0.69704 0.8634 0.0
C511 C 0.76768 0.73534 0.56337 0.0
H512 H 0.7881 0.65547 0.73992 0.0
C513 C 0.74419 0.76023 0.63536 0.0
C514 C 0.73663 0.74754 0.74565 0.0
H515 H 0.77574 0.74697 0.48142 0.0
H516 H 0.73415 0.79033 0.60666 0.0
C517 C 0.75021 0.70809 0.77941 0.0
C518 C 0.6763 0.2956 0.3091 0.0
C519 C 0.69053 0.2939 0.41957 0.0
H520 H 0.69282 0.3123 0.14218 0.0
C521 C 0.71958 0.32397 0.45485 0.0
H522 H 0.65247 0.27396 0.2806 0.0
C523 C 0.74444 0.34437 0.37564 0.0
C524 C 0.73748 0.33747 0.26167 0.0
H525 H 0.72972 0.3247 0.54101 0.0
H526 H 0.77132 0.36209 0.40367 0.0
C527 C 0.70048 0.31652 0.22932 0.0
C528 C 0.27943 0.17729 0.23098 0.0
C529 C 0.28554 0.18817 0.11928 0.0
H530 H 0.25472 0.19484 0.38925 0.0
C531 C 0.26673 0.22415 0.07777 0.0
H532 H 0.29471 0.15024 0.26529 0.0
C533 C 0.24567 0.25105 0.14974 0.0
C534 C 0.24193 0.24162 0.26364 0.0
H535 H 0.27178 0.2334 0.99209 0.0
H536 H 0.23452 0.28022 0.11737 0.0
C537 C 0.25733 0.20346 0.30228 0.0
C538 C 0.17658 0.79646 0.81436 0.0
C539 C 0.19075 0.79429 0.92483 0.0
H540 H 0.19349 0.81302 0.6476 0.0
C541 C 0.22037 0.82379 0.96039 0.0
H542 H 0.15229 0.77536 0.78562 0.0
C543 C 0.24574 0.84374 0.88138 0.0
C544 C 0.23866 0.83713 0.76732 0.0
H545 H 0.23048 0.82424 0.04658 0.0
H546 H 0.27297 0.86088 0.90961 0.0
C547 C 0.20124 0.81695 0.73478 0.0
C548 C 0.84787 0.81025 0.15474 0.0
C549 C 0.84218 0.81621 0.26948 0.0
H550 H 0.83497 0.83172 0.99092 0.0
C551 C 0.82506 0.854 0.30586 0.0
H552 H 0.8596 0.7813 0.12335 0.0
C553 C 0.80761 0.88142 0.22844 0.0
C554 C 0.80595 0.87024 0.11553 0.0
H555 H 0.82158 0.86066 0.39376 0.0
H556 H 0.78826 0.90649 0.25906 0.0
C557 C 0.83401 0.8398 0.07855 0.0
C558 C 0.86309 0.22602 0.7302 0.0
C559 C 0.82582 0.20555 0.76324 0.0
H560 H 0.91153 0.26813 0.78015 0.0
C561 C 0.81867 0.19895 0.87739 0.0
H562 H 0.8709 0.22994 0.64293 0.0
C563 C 0.84373 0.2192 0.95598 0.0
C564 C 0.87307 0.24895 0.9198 0.0
H565 H 0.79156 0.18161 0.90597 0.0
H566 H 0.83349 0.21874 0.04221 0.0
C567 C 0.88745 0.24681 0.80938 0.0
loop_
_geom_bond_atom_site_label_1
_geom_bond_atom_site_label_2
_geom_bond_distance
_geom_bond_site_symmetry_2
_ccdc_geom_bond_type
C0 O12 1.241 . S
C0 O13 1.280 1_556 S
C1 O14 1.277 . S
C1 O15 1.245 . S
C2 O26 1.247 . S
C2 O28 1.289 . S
Mg3 O4 1.926 . S
Mg3 O13 1.984 . S
Mg3 O15 1.988 . S
Mg3 O16 2.061 . S
O4 Mg3 1.926 . S
O4 Mg5 1.986 . S
O4 Mg6 1.917 . S
Mg5 O4 1.986 . S
Mg5 O12 2.042 1_554 S
Mg5 O14 2.041 . S
Mg5 O20 2.038 1_554 S
Mg5 O28 2.238 . S
Mg6 O4 1.917 . S
Mg6 O7 1.917 . S
Mg6 O17 2.106 . S
Mg6 O19 2.079 1_554 S
Mg6 O28 2.106 . S
Mg6 O29 2.079 . S
O7 Mg6 1.917 . S
O7 Mg8 1.926 . S
O7 Mg9 1.986 . S
Mg8 O7 1.926 . S
Mg8 O22 1.984 . S
Mg8 O25 1.988 1_554 S
Mg8 O26 2.061 . S
Mg9 O7 1.986 . S
Mg9 O17 2.238 . S
Mg9 O21 2.042 . S
Mg9 O23 2.041 . S
Mg9 O30 2.038 . S
C10 O16 1.247 . S
C10 O17 1.289 . S
C11 O29 1.245 . S
C11 O30 1.274 . S
O12 C0 1.241 . S
O12 Mg5 2.042 1_556 S
O13 C0 1.280 1_554 S
O13 Mg3 1.984 . S
O14 C1 1.277 . S
O14 Mg5 2.041 . S
O15 C1 1.245 . S
O15 Mg3 1.988 . S
O16 Mg3 2.061 . S
O16 C10 1.247 . S
O17 Mg6 2.106 . S
O17 Mg9 2.238 . S
O17 C10 1.289 . S
C18 O19 1.245 . S
C18 O20 1.274 . S
O19 Mg6 2.079 1_556 S
O19 C18 1.245 . S
O20 Mg5 2.038 1_556 S
O20 C18 1.274 . S
O21 Mg9 2.042 . S
O21 C24 1.241 . S
O22 Mg8 1.984 . S
O22 C24 1.280 . S
O23 Mg9 2.041 . S
O23 C27 1.277 . S
C24 O21 1.241 . S
C24 O22 1.280 . S
O25 Mg8 1.988 1_556 S
O25 C27 1.245 1_556 S
O26 C2 1.247 . S
O26 Mg8 2.061 . S
C27 O23 1.277 . S
C27 O25 1.245 1_554 S
O28 C2 1.289 . S
O28 Mg5 2.238 . S
O28 Mg6 2.106 . S
O29 Mg6 2.079 . S
O29 C11 1.245 . S
O30 Mg9 2.038 . S
O30 C11 1.274 . S
C31 O43 1.241 . S
C31 O44 1.280 . S
C32 O45 1.277 . S
C32 O46 1.245 1_556 S
C33 O57 1.247 . S
C33 O59 1.289 . S
Mg34 O35 1.926 . S
Mg34 O44 1.984 . S
Mg34 O46 1.988 1_556 S
Mg34 O47 2.061 . S
O35 Mg34 1.926 . S
O35 Mg36 1.986 . S
O35 Mg37 1.917 . S
Mg36 O35 1.986 . S
Mg36 O43 2.042 . S
Mg36 O45 2.041 . S
Mg36 O51 2.038 . S
Mg36 O59 2.238 . S
Mg37 O35 1.917 . S
Mg37 O38 1.917 . S
Mg37 O48 2.106 . S
Mg37 O50 2.079 . S
Mg37 O59 2.106 . S
Mg37 O60 2.079 1_556 S
O38 Mg37 1.917 . S
O38 Mg39 1.926 . S
O38 Mg40 1.986 . S
Mg39 O38 1.926 . S
Mg39 O53 1.984 . S
Mg39 O56 1.988 . S
Mg39 O57 2.061 . S
Mg40 O38 1.986 . S
Mg40 O48 2.238 . S
Mg40 O52 2.042 1_556 S
Mg40 O54 2.041 . S
Mg40 O61 2.038 1_556 S
C41 O47 1.247 . S
C41 O48 1.289 . S
C42 O60 1.245 . S
C42 O61 1.274 . S
O43 C31 1.241 . S
O43 Mg36 2.042 . S
O44 C31 1.280 . S
O44 Mg34 1.984 . S
O45 C32 1.277 . S
O45 Mg36 2.041 . S
O46 C32 1.245 1_554 S
O46 Mg34 1.988 1_554 S
O47 Mg34 2.061 . S
O47 C41 1.247 . S
O48 Mg37 2.106 . S
O48 Mg40 2.238 . S
O48 C41 1.289 . S
C49 O50 1.245 . S
C49 O51 1.274 . S
O50 Mg37 2.079 . S
O50 C49 1.245 . S
O51 Mg36 2.038 . S
O51 C49 1.274 . S
O52 Mg40 2.042 1_554 S
O52 C55 1.241 . S
O53 Mg39 1.984 . S
O53 C55 1.280 1_556 S
O54 Mg40 2.041 . S
O54 C58 1.277 . S
C55 O52 1.241 . S
C55 O53 1.280 1_554 S
O56 Mg39 1.988 . S
O56 C58 1.245 . S
O57 C33 1.247 . S
O57 Mg39 2.061 . S
C58 O54 1.277 . S
C58 O56 1.245 . S
O59 C33 1.289 . S
O59 Mg36 2.238 . S
O59 Mg37 2.106 . S
O60 Mg37 2.079 1_554 S
O60 C42 1.245 . S
O61 Mg40 2.038 1_554 S
O61 C42 1.274 . S
C62 O74 1.241 . S
C62 O75 1.280 1_556 S
C63 O76 1.277 . S
C63 O77 1.245 . S
C64 O88 1.247 . S
C64 O90 1.289 . S
Mg65 O66 1.926 . S
Mg65 O75 1.984 . S
Mg65 O77 1.988 . S
Mg65 O78 2.061 . S
O66 Mg65 1.926 . S
O66 Mg67 1.986 . S
O66 Mg68 1.917 . S
Mg67 O66 1.986 . S
Mg67 O74 2.042 1_554 S
Mg67 O76 2.041 . S
Mg67 O82 2.038 1_554 S
Mg67 O90 2.238 . S
Mg68 O66 1.917 . S
Mg68 O69 1.917 . S
Mg68 O79 2.106 . S
Mg68 O81 2.079 1_554 S
Mg68 O90 2.106 . S
Mg68 O91 2.079 . S
O69 Mg68 1.917 . S
O69 Mg70 1.926 . S
O69 Mg71 1.986 . S
Mg70 O69 1.926 . S
Mg70 O84 1.984 . S
Mg70 O87 1.988 1_554 S
Mg70 O88 2.061 . S
Mg71 O69 1.986 . S
Mg71 O79 2.238 . S
Mg71 O83 2.042 . S
Mg71 O85 2.041 . S
Mg71 O92 2.038 . S
C72 O78 1.247 . S
C72 O79 1.289 . S
C73 O91 1.245 . S
C73 O92 1.274 . S
O74 C62 1.241 . S
O74 Mg67 2.042 1_556 S
O75 C62 1.280 1_554 S
O75 Mg65 1.984 . S
O76 C63 1.277 . S
O76 Mg67 2.041 . S
O77 C63 1.245 . S
O77 Mg65 1.988 . S
O78 Mg65 2.061 . S
O78 C72 1.247 . S
O79 Mg68 2.106 . S
O79 Mg71 2.238 . S
O79 C72 1.289 . S
C80 O81 1.245 . S
C80 O82 1.274 . S
O81 Mg68 2.079 1_556 S
O81 C80 1.245 . S
O82 Mg67 2.038 1_556 S
O82 C80 1.274 . S
O83 Mg71 2.042 . S
O83 C86 1.241 . S
O84 Mg70 1.984 . S
O84 C86 1.280 . S
O85 Mg71 2.041 . S
O85 C89 1.277 . S
C86 O83 1.241 . S
C86 O84 1.280 . S
O87 Mg70 1.988 1_556 S
O87 C89 1.245 1_556 S
O88 C64 1.247 . S
O88 Mg70 2.061 . S
C89 O85 1.277 . S
C89 O87 1.245 1_554 S
O90 C64 1.289 . S
O90 Mg67 2.238 . S
O90 Mg68 2.106 . S
O91 Mg68 2.079 . S
O91 C73 1.245 . S
O92 Mg71 2.038 . S
O92 C73 1.274 . S
C93 O105 1.241 . S
C93 O106 1.280 . S
C94 O107 1.277 . S
C94 O108 1.245 1_556 S
C95 O119 1.247 . S
C95 O121 1.289 . S
Mg96 O97 1.926 . S
Mg96 O106 1.984 . S
Mg96 O108 1.988 1_556 S
Mg96 O109 2.061 . S
O97 Mg96 1.926 . S
O97 Mg98 1.986 . S
O97 Mg99 1.917 . S
Mg98 O97 1.986 . S
Mg98 O105 2.042 . S
Mg98 O107 2.041 . S
Mg98 O113 2.038 . S
Mg98 O121 2.238 . S
Mg99 O97 1.917 . S
Mg99 O100 1.917 . S
Mg99 O110 2.106 . S
Mg99 O112 2.079 . S
Mg99 O121 2.106 . S
Mg99 O122 2.079 1_556 S
O100 Mg99 1.917 . S
O100 Mg101 1.926 . S
O100 Mg102 1.986 . S
Mg101 O100 1.926 . S
Mg101 O115 1.984 . S
Mg101 O118 1.988 . S
Mg101 O119 2.061 . S
Mg102 O100 1.986 . S
Mg102 O110 2.238 . S
Mg102 O114 2.042 1_556 S
Mg102 O116 2.041 . S
Mg102 O123 2.038 1_556 S
C103 O109 1.247 . S
C103 O110 1.289 . S
C104 O122 1.245 . S
C104 O123 1.274 . S
O105 C93 1.241 . S
O105 Mg98 2.042 . S
O106 C93 1.280 . S
O106 Mg96 1.984 . S
O107 C94 1.277 . S
O107 Mg98 2.041 . S
O108 C94 1.245 1_554 S
O108 Mg96 1.988 1_554 S
O109 Mg96 2.061 . S
O109 C103 1.247 . S
O110 Mg99 2.106 . S
O110 Mg102 2.238 . S
O110 C103 1.289 . S
C111 O112 1.245 . S
C111 O113 1.274 . S
O112 Mg99 2.079 . S
O112 C111 1.245 . S
O113 Mg98 2.038 . S
O113 C111 1.274 . S
O114 Mg102 2.042 1_554 S
O114 C117 1.241 . S
O115 Mg101 1.984 . S
O115 C117 1.280 1_556 S
O116 Mg102 2.041 . S
O116 C120 1.277 . S
C117 O114 1.241 . S
C117 O115 1.280 1_554 S
O118 Mg101 1.988 . S
O118 C120 1.245 . S
O119 C95 1.247 . S
O119 Mg101 2.061 . S
C120 O116 1.277 . S
C120 O118 1.245 . S
O121 C95 1.289 . S
O121 Mg98 2.238 . S
O121 Mg99 2.106 . S
O122 Mg99 2.079 1_554 S
O122 C104 1.245 . S
O123 Mg102 2.038 1_554 S
O123 C104 1.274 . S
C124 O136 1.241 . S
C124 O137 1.280 . S
C125 O138 1.277 . S
C125 O139 1.245 . S
C126 O150 1.247 . S
C126 O152 1.289 . S
Mg127 O128 1.926 . S
Mg127 O137 1.984 1_655 S
Mg127 O139 1.988 1_655 S
Mg127 O140 2.061 . S
O128 Mg127 1.926 . S
O128 Mg129 1.986 . S
O128 Mg130 1.917 . S
Mg129 O128 1.986 . S
Mg129 O136 2.042 1_655 S
Mg129 O138 2.041 1_655 S
Mg129 O144 2.038 . S
Mg129 O152 2.238 . S
Mg130 O128 1.917 . S
Mg130 O131 1.917 . S
Mg130 O141 2.106 . S
Mg130 O143 2.079 . S
Mg130 O152 2.106 . S
Mg130 O153 2.079 . S
O131 Mg130 1.917 . S
O131 Mg132 1.926 . S
O131 Mg133 1.986 . S
Mg132 O131 1.926 . S
Mg132 O146 1.984 . S
Mg132 O149 1.988 . S
Mg132 O150 2.061 . S
Mg133 O131 1.986 . S
Mg133 O141 2.238 . S
Mg133 O145 2.042 . S
Mg133 O147 2.041 . S
Mg133 O154 2.038 . S
C134 O140 1.247 . S
C134 O141 1.289 . S
C135 O153 1.245 . S
C135 O154 1.274 . S
O136 C124 1.241 . S
O136 Mg129 2.042 1_455 S
O137 C124 1.280 . S
O137 Mg127 1.984 1_455 S
O138 C125 1.277 . S
O138 Mg129 2.041 1_455 S
O139 C125 1.245 . S
O139 Mg127 1.988 1_455 S
O140 Mg127 2.061 . S
O140 C134 1.247 . S
O141 Mg130 2.106 . S
O141 Mg133 2.238 . S
O141 C134 1.289 . S
C142 O143 1.245 . S
C142 O144 1.274 . S
O143 Mg130 2.079 . S
O143 C142 1.245 . S
O144 Mg129 2.038 . S
O144 C142 1.274 . S
O145 Mg133 2.042 . S
O145 C148 1.241 . S
O146 Mg132 1.984 . S
O146 C148 1.280 . S
O147 Mg133 2.041 . S
O147 C151 1.277 . S
C148 O145 1.241 . S
C148 O146 1.280 . S
O149 Mg132 1.988 . S
O149 C151 1.245 . S
O150 C126 1.247 . S
O150 Mg132 2.061 . S
C151 O147 1.277 . S
C151 O149 1.245 . S
O152 C126 1.289 . S
O152 Mg129 2.238 . S
O152 Mg130 2.106 . S
O153 Mg130 2.079 . S
O153 C135 1.245 . S
O154 Mg133 2.038 . S
O154 C135 1.274 . S
C155 O167 1.241 . S
C155 O168 1.280 . S
C156 O169 1.277 . S
C156 O170 1.245 . S
C157 O181 1.247 . S
C157 O183 1.289 . S
Mg158 O159 1.926 . S
Mg158 O168 1.984 . S
Mg158 O170 1.988 . S
Mg158 O171 2.061 . S
O159 Mg158 1.926 . S
O159 Mg160 1.986 . S
O159 Mg161 1.917 . S
Mg160 O159 1.986 . S
Mg160 O167 2.042 . S
Mg160 O169 2.041 . S
Mg160 O175 2.038 . S
Mg160 O183 2.238 . S
Mg161 O159 1.917 . S
Mg161 O162 1.917 . S
Mg161 O172 2.106 . S
Mg161 O174 2.079 . S
Mg161 O183 2.106 . S
Mg161 O184 2.079 . S
O162 Mg161 1.917 . S
O162 Mg163 1.926 . S
O162 Mg164 1.986 . S
Mg163 O162 1.926 . S
Mg163 O177 1.984 1_545 S
Mg163 O180 1.988 1_545 S
Mg163 O181 2.061 . S
Mg164 O162 1.986 . S
Mg164 O172 2.238 . S
Mg164 O176 2.042 1_545 S
Mg164 O178 2.041 1_545 S
Mg164 O185 2.038 . S
C165 O171 1.247 . S
C165 O172 1.289 . S
C166 O184 1.245 . S
C166 O185 1.274 . S
O167 C155 1.241 . S
O167 Mg160 2.042 . S
O168 C155 1.280 . S
O168 Mg158 1.984 . S
O169 C156 1.277 . S
O169 Mg160 2.041 . S
O170 C156 1.245 . S
O170 Mg158 1.988 . S
O171 Mg158 2.061 . S
O171 C165 1.247 . S
O172 Mg161 2.106 . S
O172 Mg164 2.238 . S
O172 C165 1.289 . S
C173 O174 1.245 . S
C173 O175 1.274 . S
O174 Mg161 2.079 . S
O174 C173 1.245 . S
O175 Mg160 2.038 . S
O175 C173 1.274 . S
O176 Mg164 2.042 1_565 S
O176 C179 1.241 . S
O177 Mg163 1.984 1_565 S
O177 C179 1.280 . S
O178 Mg164 2.041 1_565 S
O178 C182 1.277 . S
C179 O176 1.241 . S
C179 O177 1.280 . S
O180 Mg163 1.988 1_565 S
O180 C182 1.245 . S
O181 C157 1.247 . S
O181 Mg163 2.061 . S
C182 O178 1.277 . S
C182 O180 1.245 . S
O183 C157 1.289 . S
O183 Mg160 2.238 . S
O183 Mg161 2.106 . S
O184 Mg161 2.079 . S
O184 C166 1.245 . S
O185 Mg164 2.038 . S
O185 C166 1.274 . S
C186 O198 1.241 . S
C186 O199 1.280 . S
C187 O200 1.277 . S
C187 O201 1.245 . S
C188 O212 1.247 . S
C188 O214 1.289 . S
Mg189 O190 1.926 . S
Mg189 O199 1.984 1_455 S
Mg189 O201 1.988 1_455 S
Mg189 O202 2.061 . S
O190 Mg189 1.926 . S
O190 Mg191 1.986 . S
O190 Mg192 1.917 . S
Mg191 O190 1.986 . S
Mg191 O198 2.042 1_455 S
Mg191 O200 2.041 1_455 S
Mg191 O206 2.038 . S
Mg191 O214 2.238 . S
Mg192 O190 1.917 . S
Mg192 O193 1.917 . S
Mg192 O203 2.106 . S
Mg192 O205 2.079 . S
Mg192 O214 2.106 . S
Mg192 O215 2.079 . S
O193 Mg192 1.917 . S
O193 Mg194 1.926 . S
O193 Mg195 1.986 . S
Mg194 O193 1.926 . S
Mg194 O208 1.984 . S
Mg194 O211 1.988 . S
Mg194 O212 2.061 . S
Mg195 O193 1.986 . S
Mg195 O203 2.238 . S
Mg195 O207 2.042 . S
Mg195 O209 2.041 . S
Mg195 O216 2.038 . S
C196 O202 1.247 . S
C196 O203 1.289 . S
C197 O215 1.245 . S
C197 O216 1.274 . S
O198 C186 1.241 . S
O198 Mg191 2.042 1_655 S
O199 C186 1.280 . S
O199 Mg189 1.984 1_655 S
O200 C187 1.277 . S
O200 Mg191 2.041 1_655 S
O201 C187 1.245 . S
O201 Mg189 1.988 1_655 S
O202 Mg189 2.061 . S
O202 C196 1.247 . S
O203 Mg192 2.106 . S
O203 Mg195 2.238 . S
O203 C196 1.289 . S
C204 O205 1.245 . S
C204 O206 1.274 . S
O205 Mg192 2.079 . S
O205 C204 1.245 . S
O206 Mg191 2.038 . S
O206 C204 1.274 . S
O207 Mg195 2.042 . S
O207 C210 1.241 . S
O208 Mg194 1.984 . S
O208 C210 1.280 . S
O209 Mg195 2.041 . S
O209 C213 1.277 . S
C210 O207 1.241 . S
C210 O208 1.280 . S
O211 Mg194 1.988 . S
O211 C213 1.245 . S
O212 C188 1.247 . S
O212 Mg194 2.061 . S
C213 O209 1.277 . S
C213 O211 1.245 . S
O214 C188 1.289 . S
O214 Mg191 2.238 . S
O214 Mg192 2.106 . S
O215 Mg192 2.079 . S
O215 C197 1.245 . S
O216 Mg195 2.038 . S
O216 C197 1.274 . S
C217 O229 1.241 . S
C217 O230 1.280 . S
C218 O231 1.277 . S
C218 O232 1.245 . S
C219 O243 1.247 . S
C219 O245 1.289 . S
Mg220 O221 1.926 . S
Mg220 O230 1.984 . S
Mg220 O232 1.988 . S
Mg220 O233 2.061 . S
O221 Mg220 1.926 . S
O221 Mg222 1.986 . S
O221 Mg223 1.917 . S
Mg222 O221 1.986 . S
Mg222 O229 2.042 . S
Mg222 O231 2.041 . S
Mg222 O237 2.038 . S
Mg222 O245 2.238 . S
Mg223 O221 1.917 . S
Mg223 O224 1.917 . S
Mg223 O234 2.106 . S
Mg223 O236 2.079 . S
Mg223 O245 2.106 . S
Mg223 O246 2.079 . S
O224 Mg223 1.917 . S
O224 Mg225 1.926 . S
O224 Mg226 1.986 . S
Mg225 O224 1.926 . S
Mg225 O239 1.984 1_565 S
Mg225 O242 1.988 1_565 S
Mg225 O243 2.061 . S
Mg226 O224 1.986 . S
Mg226 O234 2.238 . S
Mg226 O238 2.042 1_565 S
Mg226 O240 2.041 1_565 S
Mg226 O247 2.038 . S
C227 O233 1.247 . S
C227 O234 1.289 . S
C228 O246 1.245 . S
C228 O247 1.274 . S
O229 C217 1.241 . S
O229 Mg222 2.042 . S
O230 C217 1.280 . S
O230 Mg220 1.984 . S
O231 C218 1.277 . S
O231 Mg222 2.041 . S
O232 C218 1.245 . S
O232 Mg220 1.988 . S
O233 Mg220 2.061 . S
O233 C227 1.247 . S
O234 Mg223 2.106 . S
O234 Mg226 2.238 . S
O234 C227 1.289 . S
C235 O236 1.245 . S
C235 O237 1.274 . S
O236 Mg223 2.079 . S
O236 C235 1.245 . S
O237 Mg222 2.038 . S
O237 C235 1.274 . S
O238 Mg226 2.042 1_545 S
O238 C241 1.241 . S
O239 Mg225 1.984 1_545 S
O239 C241 1.280 . S
O240 Mg226 2.041 1_545 S
O240 C244 1.277 . S
C241 O238 1.241 . S
C241 O239 1.280 . S
O242 Mg225 1.988 1_545 S
O242 C244 1.245 . S
O243 C219 1.247 . S
O243 Mg225 2.061 . S
C244 O240 1.277 . S
C244 O242 1.245 . S
O245 C219 1.289 . S
O245 Mg222 2.238 . S
O245 Mg223 2.106 . S
O246 Mg223 2.079 . S
O246 C228 1.245 . S
O247 Mg226 2.038 . S
O247 C228 1.274 . S
C248 C249 1.387 . S
C248 H252 0.950 . S
C248 C257 1.390 . S
C249 C248 1.387 . S
C249 C251 1.387 . S
H250 C257 0.950 . S
C251 C249 1.387 . S
C251 C253 1.390 . S
C251 H255 0.950 . S
H252 C248 0.950 . S
C253 C251 1.390 . S
C253 C254 1.387 . S
C253 H256 0.950 . S
C254 C253 1.387 . S
C254 C257 1.387 . S
H255 C251 0.950 . S
H256 C253 0.950 . S
C257 C248 1.390 . S
C257 H250 0.950 . S
C257 C254 1.387 . S
C258 C259 1.387 . S
C258 H262 0.950 . S
C258 C267 1.390 . S
C259 C258 1.387 . S
C259 C261 1.387 . S
H260 C267 0.950 . S
C261 C259 1.387 . S
C261 C263 1.390 . S
C261 H265 0.950 . S
H262 C258 0.950 . S
C263 C261 1.390 . S
C263 C264 1.387 . S
C263 H266 0.950 . S
C264 C263 1.387 . S
C264 C267 1.387 . S
H265 C261 0.950 . S
H266 C263 0.950 . S
C267 C258 1.390 . S
C267 H260 0.950 . S
C267 C264 1.387 . S
C268 C269 1.387 . S
C268 H272 0.950 . S
C268 C277 1.390 . S
C269 C268 1.387 . S
C269 C271 1.387 . S
H270 C277 0.950 . S
C271 C269 1.387 . S
C271 C273 1.390 . S
C271 H275 0.950 . S
H272 C268 0.950 . S
C273 C271 1.390 . S
C273 C274 1.387 . S
C273 H276 0.950 . S
C274 C273 1.387 . S
C274 C277 1.387 . S
H275 C271 0.950 . S
H276 C273 0.950 . S
C277 C268 1.390 . S
C277 H270 0.950 . S
C277 C274 1.387 . S
C278 C279 1.387 . S
C278 H282 0.950 . S
C278 C287 1.390 . S
C279 C278 1.387 . S
C279 C281 1.387 . S
H280 C287 0.950 . S
C281 C279 1.387 . S
C281 C283 1.390 . S
C281 H285 0.950 . S
H282 C278 0.950 . S
C283 C281 1.390 . S
C283 C284 1.387 . S
C283 H286 0.950 . S
C284 C283 1.387 . S
C284 C287 1.387 . S
H285 C281 0.950 . S
H286 C283 0.950 . S
C287 C278 1.390 . S
C287 H280 0.950 . S
C287 C284 1.387 . S
C288 C289 1.387 . S
C288 H292 0.950 . S
C288 C297 1.390 . S
C289 C288 1.387 . S
C289 C291 1.387 . S
H290 C297 0.950 . S
C291 C289 1.387 . S
C291 C293 1.390 . S
C291 H295 0.950 . S
H292 C288 0.950 . S
C293 C291 1.390 . S
C293 C294 1.387 . S
C293 H296 0.950 . S
C294 C293 1.387 . S
C294 C297 1.387 . S
H295 C291 0.950 . S
H296 C293 0.950 . S
C297 C288 1.390 . S
C297 H290 0.950 . S
C297 C294 1.387 . S
C298 C299 1.387 . S
C298 H302 0.950 . S
C298 C307 1.390 . S
C299 C298 1.387 . S
C299 C301 1.387 . S
H300 C307 0.950 . S
C301 C299 1.387 . S
C301 C303 1.390 . S
C301 H305 0.950 . S
H302 C298 0.950 . S
C303 C301 1.390 . S
C303 C304 1.387 . S
C303 H306 0.950 . S
C304 C303 1.387 . S
C304 C307 1.387 . S
H305 C301 0.950 . S
H306 C303 0.950 . S
C307 C298 1.390 . S
C307 H300 0.950 . S
C307 C304 1.387 . S
C308 C309 1.387 . S
C308 H312 0.950 . S
C308 C317 1.390 . S
C309 C308 1.387 . S
C309 C311 1.387 . S
H310 C317 0.950 . S
C311 C309 1.387 . S
C311 C313 1.390 . S
C311 H315 0.950 . S
H312 C308 0.950 . S
C313 C311 1.390 . S
C313 C314 1.387 . S
C313 H316 0.950 . S
C314 C313 1.387 . S
C314 C317 1.387 . S
H315 C311 0.950 . S
H316 C313 0.950 . S
C317 C308 1.390 . S
C317 H310 0.950 . S
C317 C314 1.387 . S
C318 C319 1.387 . S
C318 H322 0.950 . S
C318 C327 1.390 . S
C319 C318 1.387 . S
C319 C321 1.387 . S
H320 C327 0.950 . S
C321 C319 1.387 . S
C321 C323 1.390 . S
C321 H325 0.950 . S
H322 C318 0.950 . S
C323 C321 1.390 . S
C323 C324 1.387 . S
C323 H326 0.950 . S
C324 C323 1.387 . S
C324 C327 1.387 . S
H325 C321 0.950 . S
H326 C323 0.950 . S
C327 C318 1.390 . S
C327 H320 0.950 . S
C327 C324 1.387 . S
C328 C329 1.387 . S
C328 H332 0.950 . S
C328 C337 1.390 . S
C329 C328 1.387 . S
C329 C331 1.387 . S
H330 C337 0.950 . S
C331 C329 1.387 . S
C331 C333 1.390 . S
C331 H335 0.950 . S
H332 C328 0.950 . S
C333 C331 1.390 . S
C333 C334 1.387 . S
C333 H336 0.950 . S
C334 C333 1.387 . S
C334 C337 1.387 . S
H335 C331 0.950 . S
H336 C333 0.950 . S
C337 C328 1.390 . S
C337 H330 0.950 . S
C337 C334 1.387 . S
C338 C339 1.387 . S
C338 H342 0.950 . S
C338 C347 1.390 . S
C339 C338 1.387 . S
C339 C341 1.387 . S
H340 C347 0.950 . S
C341 C339 1.387 . S
C341 C343 1.390 . S
C341 H345 0.950 . S
H342 C338 0.950 . S
C343 C341 1.390 . S
C343 C344 1.387 . S
C343 H346 0.950 . S
C344 C343 1.387 . S
C344 C347 1.387 . S
H345 C341 0.950 . S
H346 C343 0.950 . S
C347 C338 1.390 . S
C347 H340 0.950 . S
C347 C344 1.387 . S
C348 C349 1.387 . S
C348 H352 0.950 . S
C348 C357 1.390 . S
C349 C348 1.387 . S
C349 C351 1.387 . S
H350 C357 0.950 . S
C351 C349 1.387 . S
C351 C353 1.390 . S
C351 H355 0.950 . S
H352 C348 0.950 . S
C353 C351 1.390 . S
C353 C354 1.387 . S
C353 H356 0.950 . S
C354 C353 1.387 . S
C354 C357 1.387 . S
H355 C351 0.950 . S
H356 C353 0.950 . S
C357 C348 1.390 . S
C357 H350 0.950 . S
C357 C354 1.387 . S
C358 C359 1.387 . S
C358 H362 0.950 . S
C358 C367 1.390 . S
C359 C358 1.387 . S
C359 C361 1.387 . S
H360 C367 0.950 . S
C361 C359 1.387 . S
C361 C363 1.390 . S
C361 H365 0.950 . S
H362 C358 0.950 . S
C363 C361 1.390 . S
C363 C364 1.387 . S
C363 H366 0.950 . S
C364 C363 1.387 . S
C364 C367 1.387 . S
H365 C361 0.950 . S
H366 C363 0.950 . S
C367 C358 1.390 . S
C367 H360 0.950 . S
C367 C364 1.387 . S
C368 C369 1.387 . S
C368 H372 0.950 . S
C368 C377 1.390 . S
C369 C368 1.387 . S
C369 C371 1.387 1_554 S
H370 C377 0.950 . S
C371 C369 1.387 1_556 S
C371 C373 1.390 . S
C371 H375 0.950 . S
H372 C368 0.950 . S
C373 C371 1.390 . S
C373 C374 1.387 1_556 S
C373 H376 0.950 . S
C374 C373 1.387 1_554 S
C374 C377 1.387 . S
H375 C371 0.950 . S
H376 C373 0.950 . S
C377 C368 1.390 . S
C377 H370 0.950 . S
C377 C374 1.387 . S
C378 C379 1.387 . S
C378 H382 0.950 . S
C378 C387 1.390 . S
C379 C378 1.387 . S
C379 C381 1.387 1_556 S
H380 C387 0.950 . S
C381 C379 1.387 1_554 S
C381 C383 1.390 . S
C381 H385 0.950 . S
H382 C378 0.950 . S
C383 C381 1.390 . S
C383 C384 1.387 1_554 S
C383 H386 0.950 . S
C384 C383 1.387 1_556 S
C384 C387 1.387 . S
H385 C381 0.950 . S
H386 C383 0.950 . S
C387 C378 1.390 . S
C387 H380 0.950 . S
C387 C384 1.387 . S
C388 C389 1.387 . S
C388 H392 0.950 . S
C388 C397 1.390 . S
C389 C388 1.387 . S
C389 C391 1.387 1_554 S
H390 C397 0.950 . S
C391 C389 1.387 1_556 S
C391 C393 1.390 . S
C391 H395 0.950 . S
H392 C388 0.950 . S
C393 C391 1.390 . S
C393 C394 1.387 1_556 S
C393 H396 0.950 . S
C394 C393 1.387 1_554 S
C394 C397 1.387 . S
H395 C391 0.950 . S
H396 C393 0.950 . S
C397 C388 1.390 . S
C397 H390 0.950 . S
C397 C394 1.387 . S
C398 C399 1.387 . S
C398 H402 0.950 . S
C398 C407 1.390 . S
C399 C398 1.387 . S
C399 C401 1.387 1_556 S
H400 C407 0.950 . S
C401 C399 1.387 1_554 S
C401 C403 1.390 . S
C401 H405 0.950 . S
H402 C398 0.950 . S
C403 C401 1.390 . S
C403 C404 1.387 1_554 S
C403 H406 0.950 . S
C404 C403 1.387 1_556 S
C404 C407 1.387 . S
H405 C401 0.950 . S
H406 C403 0.950 . S
C407 C398 1.390 . S
C407 H400 0.950 . S
C407 C404 1.387 . S
C408 C409 1.387 . S
C408 H412 0.950 . S
C408 C417 1.390 . S
C409 C408 1.387 . S
C409 C411 1.387 . S
H410 C417 0.950 . S
C411 C409 1.387 . S
C411 C413 1.390 . S
C411 H415 0.950 . S
H412 C408 0.950 . S
C413 C411 1.390 . S
C413 C414 1.387 . S
C413 H416 0.950 . S
C414 C413 1.387 . S
C414 C417 1.387 . S
H415 C411 0.950 . S
H416 C413 0.950 . S
C417 C408 1.390 . S
C417 H410 0.950 . S
C417 C414 1.387 . S
C418 C419 1.387 . S
C418 H422 0.950 . S
C418 C427 1.390 . S
C419 C418 1.387 . S
C419 C421 1.387 . S
H420 C427 0.950 . S
C421 C419 1.387 . S
C421 C423 1.390 . S
C421 H425 0.950 . S
H422 C418 0.950 . S
C423 C421 1.390 . S
C423 C424 1.387 . S
C423 H426 0.950 . S
C424 C423 1.387 . S
C424 C427 1.387 . S
H425 C421 0.950 . S
H426 C423 0.950 . S
C427 C418 1.390 . S
C427 H420 0.950 . S
C427 C424 1.387 . S
C428 C429 1.387 . S
C428 H432 0.950 . S
C428 C437 1.390 . S
C429 C428 1.387 . S
C429 C431 1.387 . S
H430 C437 0.950 . S
C431 C429 1.387 . S
C431 C433 1.390 . S
C431 H435 0.950 . S
H432 C428 0.950 . S
C433 C431 1.390 . S
C433 C434 1.387 . S
C433 H436 0.950 . S
C434 C433 1.387 . S
C434 C437 1.387 . S
H435 C431 0.950 . S
H436 C433 0.950 . S
C437 C428 1.390 . S
C437 H430 0.950 . S
C437 C434 1.387 . S
C438 C439 1.387 . S
C438 H442 0.950 . S
C438 C447 1.390 . S
C439 C438 1.387 . S
C439 C441 1.387 . S
H440 C447 0.950 . S
C441 C439 1.387 . S
C441 C443 1.390 . S
C441 H445 0.950 . S
H442 C438 0.950 . S
C443 C441 1.390 . S
C443 C444 1.387 . S
C443 H446 0.950 . S
C444 C443 1.387 . S
C444 C447 1.387 . S
H445 C441 0.950 . S
H446 C443 0.950 . S
C447 C438 1.390 . S
C447 H440 0.950 . S
C447 C444 1.387 . S
C448 C449 1.387 . S
C448 H452 0.950 . S
C448 C457 1.390 . S
C449 C448 1.387 . S
C449 C451 1.387 . S
H450 C457 0.950 . S
C451 C449 1.387 . S
C451 C453 1.390 . S
C451 H455 0.950 . S
H452 C448 0.950 . S
C453 C451 1.390 . S
C453 C454 1.387 . S
C453 H456 0.950 . S
C454 C453 1.387 . S
C454 C457 1.387 . S
H455 C451 0.950 . S
H456 C453 0.950 . S
C457 C448 1.390 . S
C457 H450 0.950 . S
C457 C454 1.387 . S
C458 C459 1.387 . S
C458 H462 0.950 . S
C458 C467 1.390 . S
C459 C458 1.387 . S
C459 C461 1.387 . S
H460 C467 0.950 . S
C461 C459 1.387 . S
C461 C463 1.390 . S
C461 H465 0.950 . S
H462 C458 0.950 . S
C463 C461 1.390 . S
C463 C464 1.387 . S
C463 H466 0.950 . S
C464 C463 1.387 . S
C464 C467 1.387 . S
H465 C461 0.950 . S
H466 C463 0.950 . S
C467 C458 1.390 . S
C467 H460 0.950 . S
C467 C464 1.387 . S
C468 C469 1.387 . S
C468 H472 0.950 . S
C468 C477 1.390 . S
C469 C468 1.387 . S
C469 C471 1.387 . S
H470 C477 0.950 . S
C471 C469 1.387 . S
C471 C473 1.390 . S
C471 H475 0.950 . S
H472 C468 0.950 . S
C473 C471 1.390 . S
C473 C474 1.387 . S
C473 H476 0.950 . S
C474 C473 1.387 . S
C474 C477 1.387 . S
H475 C471 0.950 . S
H476 C473 0.950 . S
C477 C468 1.390 . S
C477 H470 0.950 . S
C477 C474 1.387 . S
C478 C479 1.387 . S
C478 H482 0.950 . S
C478 C487 1.390 . S
C479 C478 1.387 . S
C479 C481 1.387 . S
H480 C487 0.950 . S
C481 C479 1.387 . S
C481 C483 1.390 . S
C481 H485 0.950 . S
H482 C478 0.950 . S
C483 C481 1.390 . S
C483 C484 1.387 . S
C483 H486 0.950 . S
C484 C483 1.387 . S
C484 C487 1.387 . S
H485 C481 0.950 . S
H486 C483 0.950 . S
C487 C478 1.390 . S
C487 H480 0.950 . S
C487 C484 1.387 . S
C488 C489 1.387 . S
C488 H492 0.950 . S
C488 C497 1.390 . S
C489 C488 1.387 . S
C489 C491 1.387 . S
H490 C497 0.950 . S
C491 C489 1.387 . S
C491 C493 1.390 . S
C491 H495 0.950 . S
H492 C488 0.950 . S
C493 C491 1.390 . S
C493 C494 1.387 . S
C493 H496 0.950 . S
C494 C493 1.387 . S
C494 C497 1.387 . S
H495 C491 0.950 . S
H496 C493 0.950 . S
C497 C488 1.390 . S
C497 H490 0.950 . S
C497 C494 1.387 . S
C498 C499 1.387 . S
C498 H502 0.950 . S
C498 C507 1.390 . S
C499 C498 1.387 . S
C499 C501 1.387 . S
H500 C507 0.950 1_556 S
C501 C499 1.387 . S
C501 C503 1.390 . S
C501 H505 0.950 . S
H502 C498 0.950 . S
C503 C501 1.390 . S
C503 C504 1.387 . S
C503 H506 0.950 . S
C504 C503 1.387 . S
C504 C507 1.387 . S
H505 C501 0.950 . S
H506 C503 0.950 . S
C507 C498 1.390 . S
C507 H500 0.950 1_554 S
C507 C504 1.387 . S
C508 C509 1.387 . S
C508 H512 0.950 . S
C508 C517 1.390 . S
C509 C508 1.387 . S
C509 C511 1.387 . S
H510 C517 0.950 1_554 S
C511 C509 1.387 . S
C511 C513 1.390 . S
C511 H515 0.950 . S
H512 C508 0.950 . S
C513 C511 1.390 . S
C513 C514 1.387 . S
C513 H516 0.950 . S
C514 C513 1.387 . S
C514 C517 1.387 . S
H515 C511 0.950 . S
H516 C513 0.950 . S
C517 C508 1.390 . S
C517 H510 0.950 1_556 S
C517 C514 1.387 . S
C518 C519 1.387 . S
C518 H522 0.950 . S
C518 C527 1.390 1_554 S
C519 C518 1.387 . S
C519 C521 1.387 . S
H520 C527 0.950 . S
C521 C519 1.387 . S
C521 C523 1.390 . S
C521 H525 0.950 . S
H522 C518 0.950 . S
C523 C521 1.390 . S
C523 C524 1.387 . S
C523 H526 0.950 . S
C524 C523 1.387 . S
C524 C527 1.387 1_554 S
H525 C521 0.950 . S
H526 C523 0.950 . S
C527 C518 1.390 1_556 S
C527 H520 0.950 . S
C527 C524 1.387 1_556 S
C528 C529 1.387 . S
C528 H532 0.950 . S
C528 C537 1.390 . S
C529 C528 1.387 . S
C529 C531 1.387 . S
H530 C537 0.950 . S
C531 C529 1.387 . S
C531 C533 1.390 . S
C531 H535 0.950 . S
H532 C528 0.950 . S
C533 C531 1.390 . S
C533 C534 1.387 . S
C533 H536 0.950 . S
C534 C533 1.387 . S
C534 C537 1.387 . S
H535 C531 0.950 . S
H536 C533 0.950 . S
C537 C528 1.390 . S
C537 H530 0.950 . S
C537 C534 1.387 . S
C538 C539 1.387 . S
C538 H542 0.950 . S
C538 C547 1.390 . S
C539 C538 1.387 . S
C539 C541 1.387 . S
H540 C547 0.950 . S
C541 C539 1.387 . S
C541 C543 1.390 . S
C541 H545 0.950 . S
H542 C538 0.950 . S
C543 C541 1.390 . S
C543 C544 1.387 . S
C543 H546 0.950 . S
C544 C543 1.387 . S
C544 C547 1.387 . S
H545 C541 0.950 . S
H546 C543 0.950 . S
C547 C538 1.390 . S
C547 H540 0.950 . S
C547 C544 1.387 . S
C548 C549 1.387 . S
C548 H552 0.950 . S
C548 C557 1.390 . S
C549 C548 1.387 . S
C549 C551 1.387 . S
H550 C557 0.950 . S
C551 C549 1.387 . S
C551 C553 1.390 . S
C551 H555 0.950 . S
H552 C548 0.950 . S
C553 C551 1.390 . S
C553 C554 1.387 . S
C553 H556 0.950 . S
C554 C553 1.387 . S
C554 C557 1.387 . S
H555 C551 0.950 . S
H556 C553 0.950 . S
C557 C548 1.390 . S
C557 H550 0.950 . S
C557 C554 1.387 . S
C558 C559 1.387 . S
C558 H562 0.950 . S
C558 C567 1.390 . S
C559 C558 1.387 . S
C559 C561 1.387 . S
H560 C567 0.950 . S
C561 C559 1.387 . S
C561 C563 1.390 . S
C561 H565 0.950 . S
H562 C558 0.950 . S
C563 C561 1.390 . S
C563 C564 1.387 . S
C563 H566 0.950 . S
C564 C563 1.387 . S
C564 C567 1.387 . S
H565 C561 0.950 . S
H566 C563 0.950 . S
C567 C558 1.390 . S
C567 H560 0.950 . S
C567 C564 1.387 . S
C249 C18 1.895 . S
C254 C11 1.895 . S
C259 C42 1.895 . S
C264 C49 1.895 . S
C269 C73 1.894 . S
C274 C80 1.894 . S
C279 C104 1.895 . S
C284 C111 1.895 . S
C289 C142 1.895 . S
C294 C135 1.895 1_554 S
C299 C173 1.895 1_556 S
C304 C166 1.895 . S
C309 C204 1.895 . S
C314 C197 1.895 1_554 S
C319 C235 1.894 1_556 S
C324 C228 1.894 . S
C329 C2 1.634 . S
C334 C244 1.848 . S
C339 C41 1.634 . S
C344 C125 1.848 . S
C349 C64 1.629 . S
C354 C182 1.847 . S
C359 C103 1.633 . S
C364 C187 1.847 . S
C369 C55 1.968 . S
C374 C10 2.102 . S
C379 C62 1.968 . S
C384 C33 2.104 . S
C389 C72 2.102 . S
C394 C117 1.968 . S
C399 C0 1.968 . S
C404 C95 2.104 . S
C409 C126 1.629 . S
C414 C120 1.847 . S
C419 C165 1.634 . S
C424 C1 1.848 . S
C429 C188 1.634 . S
C434 C58 1.848 . S
C439 C227 1.629 . S
C444 C63 1.847 . S
C449 C179 1.968 . S
C454 C134 2.102 . S
C459 C157 2.102 . S
C464 C186 1.968 . S
C469 C196 2.102 . S
C474 C241 1.967 . S
C479 C219 2.104 . S
C484 C124 1.968 . S
C489 C210 0.506 . S
C494 C27 0.431 1_556 S
C499 C217 0.498 . S
C504 C32 0.428 1_554 S
C509 C148 0.501 . S
C514 C89 0.425 1_556 S
C519 C155 0.498 . S
C524 C94 0.430 1_554 S
C529 C24 0.501 . S
C534 C213 0.425 . S
C539 C31 0.498 . S
C544 C218 0.428 . S
C549 C151 0.428 . S
C554 C86 0.498 . S
C559 C156 0.428 . S
C564 C93 0.498 . S
