# Generated by pormake.
# Topology sxg, (6)-cn, num edge types: 1
# Building blocks:
#     Node 0, Type 0, BuildingBlock: VOLQOD_clean_sbu_1, # of connection points: 6
#     Node 1, Type 0, BuildingBlock: VOLQOD_clean_sbu_1, # of connection points: 6
#     Node 2, Type 0, BuildingBlock: VOLQOD_clean_sbu_1, # of connection points: 6
#     Node 3, Type 0, BuildingBlock: VOLQOD_clean_sbu_1, # of connection points: 6
#     Node 4, Type 0, BuildingBlock: VOLQOD_clean_sbu_1, # of connection points: 6
#     Node 5, Type 0, BuildingBlock: VOLQOD_clean_sbu_1, # of connection points: 6
#     Node 6, Type 0, BuildingBlock: VOLQOD_clean_sbu_1, # of connection points: 6
#     Node 7, Type 0, BuildingBlock: VOLQOD_clean_sbu_1, # of connection points: 6
#     Node 8, Type 0, BuildingBlock: VOLQOD_clean_sbu_1, # of connection points: 6
#     Node 9, Type 0, BuildingBlock: VOLQOD_clean_sbu_1, # of connection points: 6
#     Node 10, Type 0, BuildingBlock: VOLQOD_clean_sbu_1, # of connection points: 6
#     Node 11, Type 0, BuildingBlock: VOLQOD_clean_sbu_1, # of connection points: 6
#     Node 12, Type 0, BuildingBlock: VOLQOD_clean_sbu_1, # of connection points: 6
#     Node 13, Type 0, BuildingBlock: VOLQOD_clean_sbu_1, # of connection points: 6
#     Node 14, Type 0, BuildingBlock: VOLQOD_clean_sbu_1, # of connection points: 6
#     Node 15, Type 0, BuildingBlock: VOLQOD_clean_sbu_1, # of connection points: 6
#     Node 16, Type 0, BuildingBlock: VOLQOD_clean_sbu_1, # of connection points: 6
#     Node 17, Type 0, BuildingBlock: VOLQOD_clean_sbu_1, # of connection points: 6
#     Node 18, Type 0, BuildingBlock: VOLQOD_clean_sbu_1, # of connection points: 6
#     Node 19, Type 0, BuildingBlock: VOLQOD_clean_sbu_1, # of connection points: 6
#     Node 20, Type 0, BuildingBlock: VOLQOD_clean_sbu_1, # of connection points: 6
#     Node 21, Type 0, BuildingBlock: VOLQOD_clean_sbu_1, # of connection points: 6
#     Node 22, Type 0, BuildingBlock: VOLQOD_clean_sbu_1, # of connection points: 6
#     Node 23, Type 0, BuildingBlock: VOLQOD_clean_sbu_1, # of connection points: 6
#     Edge 24, Type (0, 0), BuildingBlock: AJUNOK_clean_linker_0, # of connection points: 2
#     Edge 25, Type (0, 0), BuildingBlock: AJUNOK_clean_linker_0, # of connection points: 2
#     Edge 26, Type (0, 0), BuildingBlock: AJUNOK_clean_linker_0, # of connection points: 2
#     Edge 27, Type (0, 0), BuildingBlock: AJUNOK_clean_linker_0, # of connection points: 2
#     Edge 28, Type (0, 0), BuildingBlock: AJUNOK_clean_linker_0, # of connection points: 2
#     Edge 29, Type (0, 0), BuildingBlock: AJUNOK_clean_linker_0, # of connection points: 2
#     Edge 30, Type (0, 0), BuildingBlock: AJUNOK_clean_linker_0, # of connection points: 2
#     Edge 31, Type (0, 0), BuildingBlock: AJUNOK_clean_linker_0, # of connection points: 2
#     Edge 32, Type (0, 0), BuildingBlock: AJUNOK_clean_linker_0, # of connection points: 2
#     Edge 33, Type (0, 0), BuildingBlock: AJUNOK_clean_linker_0, # of connection points: 2
#     Edge 34, Type (0, 0), BuildingBlock: AJUNOK_clean_linker_0, # of connection points: 2
#     Edge 35, Type (0, 0), BuildingBlock: AJUNOK_clean_linker_0, # of connection points: 2
#     Edge 36, Type (0, 0), BuildingBlock: AJUNOK_clean_linker_0, # of connection points: 2
#     Edge 37, Type (0, 0), BuildingBlock: AJUNOK_clean_linker_0, # of connection points: 2
#     Edge 38, Type (0, 0), BuildingBlock: AJUNOK_clean_linker_0, # of connection points: 2
#     Edge 39, Type (0, 0), BuildingBlock: AJUNOK_clean_linker_0, # of connection points: 2
#     Edge 40, Type (0, 0), BuildingBlock: AJUNOK_clean_linker_0, # of connection points: 2
#     Edge 41, Type (0, 0), BuildingBlock: AJUNOK_clean_linker_0, # of connection points: 2
#     Edge 42, Type (0, 0), BuildingBlock: AJUNOK_clean_linker_0, # of connection points: 2
#     Edge 43, Type (0, 0), BuildingBlock: AJUNOK_clean_linker_0, # of connection points: 2
#     Edge 44, Type (0, 0), BuildingBlock: AJUNOK_clean_linker_0, # of connection points: 2
#     Edge 45, Type (0, 0), BuildingBlock: AJUNOK_clean_linker_0, # of connection points: 2
#     Edge 46, Type (0, 0), BuildingBlock: AJUNOK_clean_linker_0, # of connection points: 2
#     Edge 47, Type (0, 0), BuildingBlock: AJUNOK_clean_linker_0, # of connection points: 2
#     Edge 48, Type (0, 0), BuildingBlock: AJUNOK_clean_linker_0, # of connection points: 2
#     Edge 49, Type (0, 0), BuildingBlock: AJUNOK_clean_linker_0, # of connection points: 2
#     Edge 50, Type (0, 0), BuildingBlock: AJUNOK_clean_linker_0, # of connection points: 2
#     Edge 51, Type (0, 0), BuildingBlock: AJUNOK_clean_linker_0, # of connection points: 2
#     Edge 52, Type (0, 0), BuildingBlock: AJUNOK_clean_linker_0, # of connection points: 2
#     Edge 53, Type (0, 0), BuildingBlock: AJUNOK_clean_linker_0, # of connection points: 2
#     Edge 54, Type (0, 0), BuildingBlock: AJUNOK_clean_linker_0, # of connection points: 2
#     Edge 55, Type (0, 0), BuildingBlock: AJUNOK_clean_linker_0, # of connection points: 2
#     Edge 56, Type (0, 0), BuildingBlock: AJUNOK_clean_linker_0, # of connection points: 2
#     Edge 57, Type (0, 0), BuildingBlock: AJUNOK_clean_linker_0, # of connection points: 2
#     Edge 58, Type (0, 0), BuildingBlock: AJUNOK_clean_linker_0, # of connection points: 2
#     Edge 59, Type (0, 0), BuildingBlock: AJUNOK_clean_linker_0, # of connection points: 2
#     Edge 60, Type (0, 0), BuildingBlock: AJUNOK_clean_linker_0, # of connection points: 2
#     Edge 61, Type (0, 0), BuildingBlock: AJUNOK_clean_linker_0, # of connection points: 2
#     Edge 62, Type (0, 0), BuildingBlock: AJUNOK_clean_linker_0, # of connection points: 2
#     Edge 63, Type (0, 0), BuildingBlock: AJUNOK_clean_linker_0, # of connection points: 2
#     Edge 64, Type (0, 0), BuildingBlock: AJUNOK_clean_linker_0, # of connection points: 2
#     Edge 65, Type (0, 0), BuildingBlock: AJUNOK_clean_linker_0, # of connection points: 2
#     Edge 66, Type (0, 0), BuildingBlock: AJUNOK_clean_linker_0, # of connection points: 2
#     Edge 67, Type (0, 0), BuildingBlock: AJUNOK_clean_linker_0, # of connection points: 2
#     Edge 68, Type (0, 0), BuildingBlock: AJUNOK_clean_linker_0, # of connection points: 2
#     Edge 69, Type (0, 0), BuildingBlock: AJUNOK_clean_linker_0, # of connection points: 2
#     Edge 70, Type (0, 0), BuildingBlock: AJUNOK_clean_linker_0, # of connection points: 2
#     Edge 71, Type (0, 0), BuildingBlock: AJUNOK_clean_linker_0, # of connection points: 2
#     Edge 72, Type (0, 0), BuildingBlock: AJUNOK_clean_linker_0, # of connection points: 2
#     Edge 73, Type (0, 0), BuildingBlock: AJUNOK_clean_linker_0, # of connection points: 2
#     Edge 74, Type (0, 0), BuildingBlock: AJUNOK_clean_linker_0, # of connection points: 2
#     Edge 75, Type (0, 0), BuildingBlock: AJUNOK_clean_linker_0, # of connection points: 2
#     Edge 76, Type (0, 0), BuildingBlock: AJUNOK_clean_linker_0, # of connection points: 2
#     Edge 77, Type (0, 0), BuildingBlock: AJUNOK_clean_linker_0, # of connection points: 2
#     Edge 78, Type (0, 0), BuildingBlock: AJUNOK_clean_linker_0, # of connection points: 2
#     Edge 79, Type (0, 0), BuildingBlock: AJUNOK_clean_linker_0, # of connection points: 2
#     Edge 80, Type (0, 0), BuildingBlock: AJUNOK_clean_linker_0, # of connection points: 2
#     Edge 81, Type (0, 0), BuildingBlock: AJUNOK_clean_linker_0, # of connection points: 2
#     Edge 82, Type (0, 0), BuildingBlock: AJUNOK_clean_linker_0, # of connection points: 2
#     Edge 83, Type (0, 0), BuildingBlock: AJUNOK_clean_linker_0, # of connection points: 2
#     Edge 84, Type (0, 0), BuildingBlock: AJUNOK_clean_linker_0, # of connection points: 2
#     Edge 85, Type (0, 0), BuildingBlock: AJUNOK_clean_linker_0, # of connection points: 2
#     Edge 86, Type (0, 0), BuildingBlock: AJUNOK_clean_linker_0, # of connection points: 2
#     Edge 87, Type (0, 0), BuildingBlock: AJUNOK_clean_linker_0, # of connection points: 2
#     Edge 88, Type (0, 0), BuildingBlock: AJUNOK_clean_linker_0, # of connection points: 2
#     Edge 89, Type (0, 0), BuildingBlock: AJUNOK_clean_linker_0, # of connection points: 2
#     Edge 90, Type (0, 0), BuildingBlock: AJUNOK_clean_linker_0, # of connection points: 2
#     Edge 91, Type (0, 0), BuildingBlock: AJUNOK_clean_linker_0, # of connection points: 2
#     Edge 92, Type (0, 0), BuildingBlock: AJUNOK_clean_linker_0, # of connection points: 2
#     Edge 93, Type (0, 0), BuildingBlock: AJUNOK_clean_linker_0, # of connection points: 2
#     Edge 94, Type (0, 0), BuildingBlock: AJUNOK_clean_linker_0, # of connection points: 2
#     Edge 95, Type (0, 0), BuildingBlock: AJUNOK_clean_linker_0, # of connection points: 2
# Relax obj value: 0.328
# Max RMSD: 0.256
# Mean RMSD: 0.256
data_MOF--net-sxg--node1-VOLQOD_clean_sbu_1--edge1-AJUNOK_clean_linker_0
_symmetry_space_group_name_H-M    P1
_symmetry_Int_Tables_number       1
_symmetry_cell_setting            triclinic
loop_
_symmetry_equiv_pos_as_xyz
'x, y, z'
_cell_length_a     36.507141
_cell_length_b     36.405973
_cell_length_c     36.542809
_cell_angle_alpha  90.053625
_cell_angle_beta   89.927193
_cell_angle_gamma 89.991755
loop_
_atom_site_label
_atom_site_type_symbol
_atom_site_fract_x
_atom_site_fract_y
_atom_site_fract_z
_atom_type_partial_charge
O0 O 0.0534 0.24891 0.25994 0.0
Zn1 Zn 0.03216 0.29953 0.25197 0.0
O2 O 0.02376 0.30548 0.20108 0.0
Zn3 Zn 0.04315 0.34925 0.17927 0.0
Zn4 Zn 0.03319 0.26338 0.1731 0.0
Zn5 Zn 0.97389 0.3114 0.19725 0.0
O6 O 0.0026 0.3879 0.1703 0.0
O7 O 0.96456 0.36194 0.20983 0.0
O8 O 0.06516 0.34063 0.26961 0.0
O9 O 0.07219 0.37302 0.21817 0.0
O10 O 0.07817 0.33465 0.1374 0.0
O11 O 0.07787 0.27375 0.14534 0.0
O12 O -0.00359 0.2576 0.132 0.0
O13 O 0.98359 0.30093 0.27872 0.0
O14 O 0.95923 0.30368 0.14567 0.0
O15 O 0.94652 0.28301 0.23403 0.0
C16 C 0.05293 0.21978 0.24037 0.0
C17 C 0.97595 0.39002 0.193 0.0
C18 C 0.0906 0.30249 0.13018 0.0
C19 C 0.07787 0.36823 0.25217 0.0
C20 C 0.97114 0.28002 0.12301 0.0
C21 C 0.95255 0.28918 0.26775 0.0
O22 O 0.04259 0.22043 0.20692 0.0
O23 O 0.42136 0.73982 0.76282 0.0
Zn24 Zn 0.44225 0.68959 0.75649 0.0
O25 O 0.45418 0.68357 0.70678 0.0
Zn26 Zn 0.43401 0.64201 0.68169 0.0
Zn27 Zn 0.45107 0.72653 0.67936 0.0
Zn28 Zn 0.5025 0.67039 0.70708 0.0
O29 O 0.47361 0.6025 0.67092 0.0
O30 O 0.5028 0.6191 0.72092 0.0
O31 O 0.40791 0.64917 0.77118 0.0
O32 O 0.40304 0.61776 0.71873 0.0
O33 O 0.40134 0.66049 0.63968 0.0
O34 O 0.40769 0.72087 0.64804 0.0
O35 O 0.49201 0.7278 0.64202 0.0
O36 O 0.48795 0.68848 0.78709 0.0
O37 O 0.52088 0.67612 0.65648 0.0
O38 O 0.53135 0.6951 0.74494 0.0
C39 C 0.42654 0.76956 0.74512 0.0
C40 C 0.49506 0.5948 0.69752 0.0
C41 C 0.39243 0.69372 0.63226 0.0
C42 C 0.39575 0.62219 0.75251 0.0
C43 C 0.51391 0.70165 0.63382 0.0
C44 C 0.52123 0.69425 0.7782 0.0
O45 O 0.44181 0.76969 0.71351 0.0
O46 O 0.55505 0.23157 0.72005 0.0
Zn47 Zn 0.53804 0.17932 0.72751 0.0
O48 O 0.52723 0.17387 0.77801 0.0
Zn49 Zn 0.54714 0.13192 0.80238 0.0
Zn50 Zn 0.53202 0.21668 0.80611 0.0
Zn51 Zn 0.47812 0.1638 0.77816 0.0
O52 O 0.50664 0.09225 0.81068 0.0
O53 O 0.47347 0.11257 0.76446 0.0
O54 O 0.57752 0.1422 0.71442 0.0
O55 O 0.58342 0.11176 0.76734 0.0
O56 O 0.57768 0.1494 0.84626 0.0
O57 O 0.57614 0.20995 0.83637 0.0
O58 O 0.49213 0.21963 0.84454 0.0
O59 O 0.49153 0.17429 0.69713 0.0
O60 O 0.45959 0.17063 0.82891 0.0
O61 O 0.45178 0.19102 0.73998 0.0
C62 C 0.5514 0.26084 0.73904 0.0
C63 C 0.48185 0.08716 0.78641 0.0
C64 C 0.58883 0.18207 0.8531 0.0
C65 C 0.5928 0.11774 0.7343 0.0
C66 C 0.46819 0.19524 0.85208 0.0
C67 C 0.45972 0.1856 0.70651 0.0
O68 O 0.53969 0.25985 0.77208 0.0
O69 O 0.91658 0.74519 0.21964 0.0
Zn70 Zn 0.93764 0.79534 0.22824 0.0
O71 O 0.95278 0.79925 0.27723 0.0
Zn72 Zn 0.93474 0.84016 0.30489 0.0
Zn73 Zn 0.94733 0.75472 0.30265 0.0
Zn74 Zn 0.00215 0.80953 0.27602 0.0
O75 O 0.97767 0.87468 0.31954 0.0
O76 O 0.00763 0.8624 0.26855 0.0
O77 O 0.90166 0.83578 0.21832 0.0
O78 O 0.90223 0.86771 0.27064 0.0
O79 O 0.9022 0.82031 0.34622 0.0
O80 O 0.90337 0.76042 0.3332 0.0
O81 O 0.98692 0.7491 0.34066 0.0
O82 O 0.98146 0.79718 0.19504 0.0
O83 O 0.02063 0.7978 0.32583 0.0
O84 O 0.02683 0.78582 0.23407 0.0
C85 C 0.92289 0.71462 0.23544 0.0
C86 C 0.00209 0.88303 0.29582 0.0
C87 C 0.89051 0.78749 0.35114 0.0
C88 C 0.89102 0.86279 0.23795 0.0
C89 C 0.01149 0.77272 0.34828 0.0
C90 C 0.01458 0.78821 0.20156 0.0
O91 O 0.93859 0.71327 0.26672 0.0
O92 O 0.25867 0.05827 0.2413 0.0
Zn93 Zn 0.25621 0.04338 0.29358 0.0
O94 O 0.2068 0.03088 0.30345 0.0
Zn95 Zn 0.18403 0.05634 0.34344 0.0
Zn96 Zn 0.17633 0.03002 0.26196 0.0
Zn97 Zn 0.20983 0.98337 0.32066 0.0
O98 O 0.17618 0.02085 0.38719 0.0
O99 O 0.22418 0.9874 0.37183 0.0
O100 O 0.27184 0.08426 0.32731 0.0
O101 O 0.22025 0.09371 0.35908 0.0
O102 O 0.1398 0.08544 0.32482 0.0
O103 O 0.14434 0.07382 0.26509 0.0
O104 O 0.14042 0.98769 0.26602 0.0
O105 O 0.28953 -0.00072 0.29666 0.0
O106 O 0.16051 0.96065 0.31664 0.0
O107 O 0.24854 0.95433 0.29666 0.0
C108 C 0.23936 0.05049 0.21327 0.0
C109 C 0.20124 -0.00224 0.39563 0.0
C110 C 0.13004 0.09129 0.2917 0.0
C111 C 0.25328 0.10174 0.35125 0.0
C112 C 0.13604 0.96488 0.29223 0.0
C113 C 0.28141 0.96536 0.29366 0.0
O114 O 0.20782 0.03536 0.21626 0.0
O115 O 0.21091 0.92716 0.7492 0.0
Zn116 Zn 0.21946 0.94624 0.79993 0.0
O117 O 0.2694 0.95846 0.80473 0.0
Zn118 Zn 0.29549 0.93793 0.84523 0.0
Zn119 Zn 0.29544 0.95387 0.7609 0.0
Zn120 Zn 0.27052 0.00745 0.81677 0.0
O121 O 0.30879 0.97824 0.8831 0.0
O122 O 0.2595 0.01004 0.8688 0.0
O123 O 0.20695 0.90882 0.83869 0.0
O124 O 0.25967 0.90488 0.86968 0.0
O125 O 0.3374 0.90618 0.82521 0.0
O126 O 0.32541 0.90916 0.76541 0.0
O127 O 0.33435 -0.00701 0.75755 0.0
O128 O 0.18872 -0.00772 0.80245 0.0
O129 O 0.32179 0.02478 0.80791 0.0
O130 O 0.23103 0.0352 0.79267 0.0
C131 C 0.22777 0.93326 0.71923 0.0
C132 C 0.28437 0.00203 0.89142 0.0
C133 C 0.34301 0.89556 0.79223 0.0
C134 C 0.22636 0.89572 0.86465 0.0
C135 C 0.34367 0.01606 0.78213 0.0
C136 C 0.19767 0.02527 0.79465 0.0
O137 O 0.25989 0.94742 0.71887 0.0
O138 O 0.75506 0.42029 0.73846 0.0
Zn139 Zn 0.74815 0.44131 0.68791 0.0
O140 O 0.69911 0.45683 0.6835 0.0
Zn141 Zn 0.6715 0.43946 0.64229 0.0
Zn142 Zn 0.67222 0.44988 0.72671 0.0
Zn143 Zn 0.70091 0.50686 0.67537 0.0
O144 O 0.65812 0.48366 0.60837 0.0
O145 O 0.70844 0.51381 0.62305 0.0
O146 O 0.75838 0.40527 0.64715 0.0
O147 O 0.70574 0.40626 0.61577 0.0
O148 O 0.6295 0.40616 0.66059 0.0
O149 O 0.64309 0.40514 0.72003 0.0
O150 O 0.63313 0.48839 0.73143 0.0
O151 O 0.78197 0.48495 0.68571 0.0
O152 O 0.65105 0.52594 0.68705 0.0
O153 O 0.74384 0.53099 0.69826 0.0
C154 C 0.73788 0.42597 0.76844 0.0
C155 C 0.68155 0.50904 0.60187 0.0
C156 C 0.62505 0.39304 0.69282 0.0
C157 C 0.73833 0.39465 0.62054 0.0
C158 C 0.62694 0.515 0.70972 0.0
C159 C 0.77618 0.51848 0.69405 0.0
O160 O 0.70652 0.44156 0.76889 0.0
O161 O 0.71297 0.55852 0.23457 0.0
Zn162 Zn 0.72148 0.53678 0.18435 0.0
O163 O 0.77119 0.52305 0.18038 0.0
Zn164 Zn 0.79769 0.53887 0.13824 0.0
Zn165 Zn 0.7975 0.53209 0.22351 0.0
Zn166 Zn 0.7711 0.47286 0.1753 0.0
O167 O 0.81043 0.49381 0.10555 0.0
O168 O 0.76248 0.46136 0.12375 0.0
O169 O 0.71069 0.57227 0.14339 0.0
O170 O 0.76258 0.57025 0.11072 0.0
O171 O 0.83993 0.5726 0.15523 0.0
O172 O 0.82624 0.57648 0.21473 0.0
O173 O 0.83734 0.49483 0.23094 0.0
O174 O 0.68944 0.49139 0.18313 0.0
O175 O 0.82185 0.45639 0.1864 0.0
O176 O 0.73039 0.45107 0.20366 0.0
C177 C 0.73051 0.55464 0.26456 0.0
C178 C 0.78767 0.46745 0.10073 0.0
C179 C 0.84456 0.58689 0.18698 0.0
C180 C 0.72999 0.58184 0.11579 0.0
C181 C 0.84501 0.46842 0.20945 0.0
C182 C 0.69733 0.46064 0.19791 0.0
O183 O 0.76281 0.54118 0.26515 0.0
O184 O 0.25012 0.26796 0.06154 0.0
Zn185 Zn 0.30106 0.25767 0.04374 0.0
O186 O 0.30258 0.20739 0.03141 0.0
Zn187 Zn 0.34165 0.17876 0.04997 0.0
Zn188 Zn 0.25787 0.18263 0.03257 0.0
Zn189 Zn 0.31452 0.20902 0.98324 0.0
O190 O 0.38085 0.17035 0.00952 0.0
O191 O 0.36624 0.2215 0.98075 0.0
O192 O 0.33909 0.2663 0.08305 0.0
O193 O 0.36367 0.2102 0.08832 0.0
O194 O 0.31978 0.13386 0.07578 0.0
O195 O 0.26049 0.14905 0.07462 0.0
O196 O 0.25471 0.14619 -0.00935 0.0
O197 O 0.30656 0.28958 -0.00172 0.0
O198 O 0.30712 0.15935 0.96306 0.0
O199 O 0.2871 0.24765 0.95867 0.0
C200 C 0.21943 0.25226 0.05562 0.0
C201 C 0.38887 0.19595 0.98684 0.0
C202 C 0.28651 0.12863 0.08574 0.0
C203 C 0.36102 0.24364 0.09833 0.0
C204 C 0.28061 0.13749 0.96878 0.0
C205 C 0.29316 0.2809 0.96719 0.0
O206 O 0.21758 0.22022 0.04108 0.0
O207 O 0.74999 0.21232 0.91547 0.0
Zn208 Zn 0.80244 0.21826 0.93141 0.0
O209 O 0.80803 0.26729 0.94818 0.0
Zn210 Zn 0.84656 0.29602 0.927 0.0
Zn211 Zn 0.76423 0.2941 0.95043 0.0
Zn212 Zn 0.82537 0.26281 -0.00482 0.0
O213 O 0.88707 0.30666 0.96536 0.0
O214 O 0.8778 0.25284 -0.00919 0.0
O215 O 0.83879 0.21006 0.89005 0.0
O216 O 0.86726 0.26455 0.88792 0.0
O217 O 0.82473 0.34018 0.90076 0.0
O218 O 0.76524 0.32914 0.90911 0.0
O219 O 0.76446 0.3274 -0.00524 0.0
O220 O 0.80798 0.18213 0.97344 0.0
O221 O 0.81678 0.31052 0.0207 0.0
O222 O 0.8044 0.22048 0.02061 0.0
C223 C 0.72064 0.22887 0.9251 0.0
C224 C 0.89823 0.28033 0.98564 0.0
C225 C 0.79107 0.34717 0.89412 0.0
C226 C 0.86218 0.23208 0.876 0.0
C227 C 0.79019 0.33298 0.01774 0.0
C228 C 0.80387 0.1881 0.00764 0.0
O229 O 0.72162 0.2593 0.94269 0.0
O230 O 0.72983 0.76059 0.41572 0.0
Zn231 Zn 0.6782 0.7577 0.43332 0.0
O232 O 0.67058 0.70944 0.45055 0.0
Zn233 Zn 0.62917 0.68355 0.43136 0.0
Zn234 Zn 0.71232 0.67965 0.45016 0.0
Zn235 Zn 0.65553 0.71551 0.49826 0.0
O236 O 0.59241 0.67223 0.4728 0.0
O237 O 0.60335 0.72708 0.49509 0.0
O238 O 0.64055 0.76852 0.39442 0.0
O239 O 0.60518 0.71847 0.39761 0.0
O240 O 0.64703 0.64042 0.40039 0.0
O241 O 0.7074 0.64628 0.40781 0.0
O242 O 0.71046 0.6451 0.4934 0.0
O243 O 0.67629 0.79458 0.47476 0.0
O244 O 0.66269 0.66774 0.52384 0.0
O245 O 0.67886 0.75744 0.52279 0.0
C246 C 0.75855 0.74284 0.42482 0.0
C247 C 0.58292 0.69916 0.49319 0.0
C248 C 0.67992 0.63122 0.39252 0.0
C249 C 0.61242 0.75011 0.38465 0.0
C250 C 0.6863 0.64252 0.51857 0.0
C251 C 0.68085 0.78937 0.50896 0.0
O252 O 0.7568 0.71218 0.44195 0.0
O253 O 0.23682 0.72643 0.55175 0.0
Zn254 Zn 0.18628 0.73513 0.53223 0.0
O255 O 0.18127 0.78618 0.52421 0.0
Zn256 Zn 0.13765 0.80755 0.54357 0.0
Zn257 Zn 0.22302 0.81415 0.53507 0.0
Zn258 Zn 0.17768 0.78968 0.47427 0.0
O259 O 0.09719 0.80982 0.5037 0.0
O260 O 0.12789 0.77728 0.46236 0.0
O261 O 0.14815 0.71839 0.56874 0.0
O262 O 0.11944 0.77155 0.57955 0.0
O263 O 0.15141 0.85304 0.57407 0.0
O264 O 0.21122 0.84097 0.58003 0.0
O265 O 0.22894 0.85664 0.49945 0.0
O266 O 0.1837 0.70833 0.48398 0.0
O267 O 0.18511 0.84141 0.46035 0.0
O268 O 0.20761 0.75221 0.4491 0.0
C269 C 0.26597 0.74568 0.55298 0.0
C270 C 0.09809 0.78995 0.47474 0.0
C271 C 0.18258 0.85868 0.58924 0.0
C272 C 0.1246 0.73765 0.58602 0.0
C273 C 0.20695 0.86501 0.47368 0.0
C274 C 0.1991 0.71872 0.45437 0.0
O275 O 0.26585 0.77982 0.54446 0.0
O276 O 0.9257 0.73143 0.70751 0.0
Zn277 Zn 0.94587 0.68074 0.71722 0.0
O278 O 0.95663 0.67747 0.76737 0.0
Zn279 Zn 0.94074 0.63557 0.79425 0.0
Zn280 Zn 0.95033 0.72127 0.79327 0.0
Zn281 Zn 0.00559 0.66899 0.76869 0.0
O282 O 0.98532 0.60139 0.80603 0.0
O283 O 0.01327 0.61769 0.75531 0.0
O284 O 0.90903 0.64043 0.70655 0.0
O285 O 0.90771 0.60943 0.75958 0.0
O286 O 0.9096 0.65456 0.83751 0.0
O287 O 0.90638 0.71415 0.82298 0.0
O288 O 0.98829 0.7268 0.83317 0.0
O289 O -0.00655 0.67831 0.68788 0.0
O290 O 0.02023 0.67658 0.82048 0.0
O291 O 0.03099 0.69784 0.73155 0.0
C292 C 0.9294 0.76174 0.72477 0.0
C293 C 0.00953 0.59531 0.78136 0.0
C294 C 0.89635 0.68687 0.84232 0.0
C295 C 0.89721 0.61416 0.72662 0.0
C296 C 0.01048 0.70155 0.84276 0.0
C297 C 0.02412 0.692 0.69794 0.0
O298 O 0.94198 0.76276 0.75745 0.0
O299 O 0.55747 0.25022 0.2222 0.0
Zn300 Zn 0.53415 0.29868 0.23635 0.0
O301 O 0.52361 0.29862 0.28705 0.0
Zn302 Zn 0.53451 0.34365 0.31136 0.0
Zn303 Zn 0.55186 0.26332 0.31059 0.0
Zn304 Zn 0.47474 0.28465 0.29405 0.0
O305 O 0.48706 0.37359 0.31662 0.0
O306 O 0.44695 0.33011 0.30131 0.0
O307 O 0.56794 0.34113 0.22504 0.0
O308 O 0.56899 0.3703 0.27885 0.0
O309 O 0.56401 0.33118 0.3576 0.0
O310 O 0.59598 0.28857 0.32793 0.0
O311 O 0.52651 0.24951 0.35717 0.0
O312 O 0.48623 0.30032 0.20982 0.0
O313 O 0.4684 0.25631 0.34088 0.0
O314 O 0.45473 0.26389 0.24756 0.0
C315 C 0.56491 0.22169 0.24102 0.0
C316 C 0.45426 0.36298 0.31028 0.0
C317 C 0.59183 0.30987 0.35525 0.0
C318 C 0.57974 0.36665 0.24589 0.0
C319 C 0.49258 0.24799 0.36459 0.0
C320 C 0.45874 0.27975 0.21663 0.0
O321 O 0.5627 0.22179 0.27591 0.0
O322 O 0.4154 0.74244 0.24802 0.0
Zn323 Zn 0.43495 0.79376 0.2439 0.0
O324 O 0.44953 0.80153 0.19517 0.0
Zn325 Zn 0.43058 0.84424 0.17091 0.0
Zn326 Zn 0.44686 0.75905 0.16616 0.0
Zn327 Zn 0.49803 0.81503 0.19739 0.0
O328 O 0.47287 0.88055 0.15858 0.0
O329 O 0.49872 0.86703 0.21099 0.0
O330 O 0.3984 0.83297 0.25759 0.0
O331 O 0.39881 0.86879 0.20789 0.0
O332 O 0.39793 0.827 0.12864 0.0
O333 O 0.40457 0.76623 0.13393 0.0
O334 O 0.48873 0.75784 0.13021 0.0
O335 O 0.47917 0.79515 0.27679 0.0
O336 O 0.51824 0.80858 0.14696 0.0
O337 O 0.52477 0.78997 0.23674 0.0
C338 C 0.42111 0.7133 0.2294 0.0
C339 C 0.49491 0.88884 0.18449 0.0
C340 C 0.38955 0.79413 0.11936 0.0
C341 C 0.38797 0.86158 0.24028 0.0
C342 C 0.51155 0.78354 0.12355 0.0
C343 C 0.51294 0.78987 0.26947 0.0
O344 O 0.43659 0.71437 0.19795 0.0
O345 O 0.05929 0.24303 0.74532 0.0
Zn346 Zn 0.04079 0.19165 0.73897 0.0
O347 O 0.03076 0.18434 0.68859 0.0
Zn348 Zn 0.05128 0.14076 0.66714 0.0
Zn349 Zn 0.03876 0.22637 0.65968 0.0
Zn350 Zn 0.98075 0.17777 0.68713 0.0
O351 O 0.01109 0.10071 0.66014 0.0
O352 O 0.97204 0.12673 0.69889 0.0
O353 O 0.07771 0.15416 0.7557 0.0
O354 O 0.08322 0.11947 0.70554 0.0
O355 O 0.08557 0.15606 0.62439 0.0
O356 O 0.08363 0.21696 0.63183 0.0
O357 O 0.0012 0.23077 0.61938 0.0
O358 O -0.00605 0.1884 0.76842 0.0
O359 O 0.96404 0.18568 0.63631 0.0
O360 O 0.95477 0.2061 0.7255 0.0
C361 C 0.05773 0.27181 0.72547 0.0
C362 C 0.98371 0.09866 0.68208 0.0
C363 C 0.09731 0.18848 0.61697 0.0
C364 C 0.09126 0.12675 0.73864 0.0
C365 C 0.97536 0.20833 0.61242 0.0
C366 C 0.96252 0.20034 0.75895 0.0
O367 O 0.04708 0.2704 0.69219 0.0
O368 O 0.72526 0.92146 0.72918 0.0
Zn369 Zn 0.73132 0.94336 0.67886 0.0
O370 O 0.78146 0.95512 0.67246 0.0
Zn371 Zn 0.80461 0.93748 0.62873 0.0
Zn372 Zn 0.81037 0.9473 0.71434 0.0
Zn373 Zn 0.78182 0.00507 0.66543 0.0
O374 O 0.81582 0.98054 0.59327 0.0
O375 O 0.76938 0.01341 0.61433 0.0
O376 O 0.71606 0.90917 0.63799 0.0
O377 O 0.76664 0.9078 0.60346 0.0
O378 O 0.84661 0.90255 0.64317 0.0
O379 O 0.84021 0.90357 0.70403 0.0
O380 O 0.8494 0.98653 0.71969 0.0
O381 O 0.70073 0.98985 0.67902 0.0
O382 O 0.833 0.02186 0.67296 0.0
O383 O 0.74356 0.0303 0.69451 0.0
C384 C 0.74461 0.92376 0.7582 0.0
C385 C 0.79182 0.00582 0.58903 0.0
C386 C 0.85488 0.89072 0.67513 0.0
C387 C 0.73344 0.89884 0.60941 0.0
C388 C 0.85654 0.0116 0.69643 0.0
C389 C 0.71002 0.0215 0.69082 0.0
O390 O 0.77729 0.93652 0.75747 0.0
O391 O 0.75495 0.0656 0.23377 0.0
Zn392 Zn 0.75304 0.04217 0.18411 0.0
O393 O 0.70427 0.02711 0.17553 0.0
Zn394 Zn 0.68035 0.04664 0.133 0.0
Zn395 Zn 0.67471 0.03117 0.21712 0.0
Zn396 Zn 0.70641 0.97796 0.16366 0.0
O397 O 0.66666 0.00433 0.09732 0.0
O398 O 0.71807 0.97606 0.11165 0.0
O399 O 0.76891 0.07506 0.14247 0.0
O400 O 0.71898 0.07482 0.10707 0.0
O401 O 0.64009 0.08297 0.14957 0.0
O402 O 0.64476 0.07516 0.20992 0.0
O403 O 0.63696 0.99067 0.21793 0.0
O404 O 0.78612 -0.00205 0.18789 0.0
O405 O 0.65671 0.95678 0.1714 0.0
O406 O 0.74629 0.95178 0.18868 0.0
C407 C 0.73645 0.05885 0.2627 0.0
C408 C 0.69222 0.98158 0.08937 0.0
C409 C 0.63134 0.09168 0.18242 0.0
C410 C 0.75211 0.08391 0.11312 0.0
C411 C 0.63192 0.96517 0.19449 0.0
C412 C 0.7787 0.964 0.19216 0.0
O413 O 0.7064 0.04076 0.26148 0.0
O414 O 0.21275 0.56046 0.24175 0.0
Zn415 Zn 0.21753 0.54718 0.29461 0.0
O416 O 0.26563 0.52886 0.30081 0.0
Zn417 Zn 0.29556 0.55129 0.33762 0.0
Zn418 Zn 0.29327 0.52356 0.25748 0.0
Zn419 Zn 0.25818 0.48399 0.3232 0.0
O420 O 0.30802 0.51372 0.37814 0.0
O421 O 0.25161 0.49352 0.37577 0.0
O422 O 0.211 0.59018 0.32896 0.0
O423 O 0.26486 0.59095 0.3583 0.0
O424 O 0.3387 0.5773 0.31415 0.0
O425 O 0.3284 0.56572 0.25538 0.0
O426 O 0.32533 0.4777 0.2632 0.0
O427 O 0.17903 0.50763 0.30231 0.0
O428 O 0.30287 0.45474 0.31511 0.0
O429 O 0.21437 0.45837 0.30624 0.0
C430 C 0.22846 0.54864 0.2128 0.0
C431 C 0.2817 0.49573 0.39266 0.0
C432 C 0.34555 0.58304 0.28036 0.0
C433 C 0.23301 0.60389 0.35245 0.0
C434 C 0.32688 0.45491 0.28985 0.0
C435 C 0.18297 0.47283 0.30284 0.0
O436 O 0.25824 0.52988 0.21412 0.0
O437 O 0.27291 0.4195 0.74638 0.0
Zn438 Zn 0.26347 0.4383 0.79715 0.0
O439 O 0.21417 0.45349 0.79909 0.0
Zn440 Zn 0.18361 0.43332 0.83667 0.0
Zn441 Zn 0.1902 0.4546 0.75392 0.0
Zn442 Zn 0.21703 0.50051 0.81665 0.0
O443 O 0.16848 0.47378 0.87379 0.0
O444 O 0.22407 0.49602 0.86939 0.0
O445 O 0.27126 0.4013 0.83715 0.0
O446 O 0.21561 0.39789 0.86287 0.0
O447 O 0.14212 0.40467 0.81283 0.0
O448 O 0.15578 0.41267 0.75385 0.0
O449 O 0.15548 0.49832 0.7527 0.0
O450 O 0.29784 0.48125 0.80276 0.0
O451 O 0.16968 0.52427 0.80594 0.0
O452 O 0.25893 0.52774 0.79795 0.0
C453 C 0.25874 0.42827 0.71566 0.0
C454 C 0.19445 0.49323 0.88699 0.0
C455 C 0.13677 0.39766 0.77895 0.0
C456 C 0.24915 0.38833 0.86096 0.0
C457 C 0.1484 0.52089 0.77861 0.0
C458 C 0.2914 0.51539 0.79871 0.0
O459 O 0.22832 0.4459 0.71382 0.0
O460 O 0.74231 0.71755 0.91886 0.0
Zn461 Zn 0.69139 0.72396 0.93724 0.0
O462 O 0.68631 0.77339 0.95174 0.0
Zn463 Zn 0.64583 0.80023 0.93211 0.0
Zn464 Zn 0.72929 0.80099 0.9488 0.0
Zn465 Zn 0.67316 0.77107 0.00016 0.0
O466 O 0.60742 0.81189 0.97218 0.0
O467 O 0.62113 0.76016 0.00019 0.0
O468 O 0.65295 0.71261 0.89935 0.0
O469 O 0.62129 0.76521 0.89917 0.0
O470 O 0.66504 0.84205 0.89981 0.0
O471 O 0.72498 0.8313 0.90418 0.0
O472 O 0.72888 0.83922 0.98928 0.0
O473 O 0.6878 0.69025 0.98095 0.0
O474 O 0.68053 0.82081 0.02132 0.0
O475 O 0.69587 0.72986 0.02657 0.0
C476 C 0.7721 0.7344 0.92591 0.0
C477 C 0.59872 0.78588 -0.00594 0.0
C478 C 0.69806 0.84788 0.88946 0.0
C479 C 0.62634 0.73241 0.88823 0.0
C480 C 0.70428 0.84519 0.0135 0.0
C481 C 0.69384 0.69708 0.01465 0.0
O482 O 0.77227 0.76596 0.94157 0.0
O483 O 0.22944 0.75866 0.05695 0.0
Zn484 Zn 0.17851 0.75156 0.03833 0.0
O485 O 0.17332 0.70227 0.02322 0.0
Zn486 Zn 0.13174 0.67584 0.0413 0.0
Zn487 Zn 0.21632 0.675 0.02757 0.0
Zn488 Zn 0.16394 0.70477 0.97386 0.0
O489 O 0.0933 0.66778 -0.00015 0.0
O490 O 0.1126 0.71681 0.97006 0.0
O491 O 0.13975 0.76257 0.07608 0.0
O492 O 0.10768 0.71022 0.07591 0.0
O493 O 0.15032 0.63173 0.07175 0.0
O494 O 0.21035 0.64344 0.07094 0.0
O495 O 0.21907 0.63785 0.98694 0.0
O496 O 0.17554 0.78535 -0.0053 0.0
O497 O 0.17213 0.65496 0.95251 0.0
O498 O 0.18875 0.74629 0.94971 0.0
C499 C 0.25914 0.7415 0.0501 0.0
C500 C 0.0877 0.6937 0.97681 0.0
C501 C 0.18298 0.62555 0.08318 0.0
C502 C 0.11298 0.74291 0.08714 0.0
C503 C 0.1961 0.63123 0.96152 0.0
C504 C 0.18459 0.77891 0.96157 0.0
O505 O 0.25898 0.70965 0.03524 0.0
O506 O 0.25831 0.21844 0.54521 0.0
Zn507 Zn 0.31004 0.2276 0.52879 0.0
O508 O 0.31586 0.27932 0.52208 0.0
Zn509 Zn 0.35749 0.2985 0.54742 0.0
Zn510 Zn 0.27296 0.30694 0.53026 0.0
Zn511 Zn 0.32446 0.28502 0.47247 0.0
O512 O 0.40388 0.29564 0.51422 0.0
O513 O 0.37537 0.27358 0.46516 0.0
O514 O 0.34488 0.20908 0.56799 0.0
O515 O 0.36844 0.26264 0.58609 0.0
O516 O 0.34232 0.34502 0.57594 0.0
O517 O 0.28178 0.33542 0.57524 0.0
O518 O 0.26739 0.3479 0.49272 0.0
O519 O 0.31495 0.20149 0.48014 0.0
O520 O 0.31525 0.33626 0.45733 0.0
O521 O 0.29769 0.24756 0.44416 0.0
C522 C 0.22921 0.2378 0.54573 0.0
C523 C 0.40445 0.2797 0.48294 0.0
C524 C 0.30987 0.35203 0.58762 0.0
C525 C 0.36391 0.2283 0.59014 0.0
C526 C 0.28999 0.35779 0.46792 0.0
C527 C 0.30294 0.21344 0.44958 0.0
O528 O 0.22991 0.27214 0.53805 0.0
O529 O 0.74162 0.2748 0.42904 0.0
Zn530 Zn 0.7942 0.26588 0.44123 0.0
O531 O 0.79817 0.21496 0.45088 0.0
Zn532 Zn 0.83637 0.18957 0.42664 0.0
Zn533 Zn 0.75442 0.18814 0.45028 0.0
Zn534 Zn 0.81299 0.21464 0.4985 0.0
O535 O 0.88019 0.18191 0.46145 0.0
O536 O 0.86454 0.22787 0.49792 0.0
O537 O 0.82817 0.27872 0.39913 0.0
O538 O 0.85296 0.22355 0.38826 0.0
O539 O 0.81519 0.14534 0.3997 0.0
O540 O 0.75558 0.15795 0.4052 0.0
O541 O 0.75542 0.14905 0.4899 0.0
O542 O 0.80224 0.29624 0.4872 0.0
O543 O 0.8075 0.16393 0.5173 0.0
O544 O 0.7866 0.25237 0.5264 0.0
C545 C 0.71196 0.25762 0.43609 0.0
C546 C 0.88855 0.20606 0.48554 0.0
C547 C 0.78172 0.13966 0.39094 0.0
C548 C 0.84863 0.25729 0.38041 0.0
C549 C 0.7819 0.14104 0.51128 0.0
C550 C 0.79073 0.28612 0.51858 0.0
O551 O 0.7121 0.2244 0.44775 0.0
C552 C 0.12776 0.38561 0.29505 0.0
C553 C 0.09974 0.39612 0.27109 0.0
C554 C 0.15349 0.41137 0.30715 0.0
C555 C 0.15157 0.44841 0.29606 0.0
H556 H 0.13124 0.35703 0.30252 0.0
H557 H 0.17598 0.40185 0.32399 0.0
S558 S 0.07938 0.49035 0.23828 0.0
N559 N 0.06858 0.44635 0.24021 0.0
N560 N 0.11679 0.4949 0.26322 0.0
C561 C 0.12174 0.45972 0.27466 0.0
C562 C 0.09585 0.43345 0.26203 0.0
C563 C 0.31706 0.57837 0.80178 0.0
C564 C 0.32161 0.54109 0.79251 0.0
C565 C 0.34273 0.60464 0.79094 0.0
C566 C 0.37317 0.59428 0.77002 0.0
H567 H 0.29284 0.58748 0.81637 0.0
H568 H 0.33758 0.63332 0.79699 0.0
S569 S 0.40003 0.50001 0.74253 0.0
N570 N 0.3608 0.4948 0.76448 0.0
N571 N 0.40887 0.54447 0.74361 0.0
C572 C 0.37931 0.55695 0.76259 0.0
C573 C 0.35353 0.53016 0.77405 0.0
C574 C 0.62013 0.07338 0.69023 0.0
C575 C 0.62408 0.0969 0.72035 0.0
C576 C 0.64832 0.04906 0.6806 0.0
C577 C 0.6814 0.04826 0.70039 0.0
H578 H 0.59463 0.07267 0.67509 0.0
H579 H 0.64412 0.03059 0.65771 0.0
S580 S 0.70522 0.10613 0.78046 0.0
N581 N 0.66331 0.11894 0.76928 0.0
N582 N 0.71676 0.07406 0.75061 0.0
C583 C 0.68601 0.07277 0.7297 0.0
C584 C 0.65714 0.0969 0.73986 0.0
C585 C 0.86403 0.92533 0.23542 0.0
C586 C 0.86385 0.88864 0.22335 0.0
C587 C 0.83685 0.94992 0.22434 0.0
C588 C 0.8082 0.93834 0.20152 0.0
H589 H 0.88518 0.93506 0.25382 0.0
H590 H 0.83767 0.97784 0.23462 0.0
S591 S 0.79608 0.84565 0.16108 0.0
N592 N 0.83357 0.84229 0.18611 0.0
N593 N 0.78194 0.88848 0.16577 0.0
C594 C 0.80804 0.90196 0.18864 0.0
C595 C 0.83609 0.8771 0.19939 0.0
C596 C 0.31181 0.1534 0.41809 0.0
C597 C 0.29306 0.18707 0.42083 0.0
C598 C 0.3005 0.12647 0.39319 0.0
C599 C 0.26974 0.13233 0.37104 0.0
H600 H 0.33479 0.14751 0.43588 0.0
H601 H 0.31454 0.10024 0.39275 0.0
S602 S 0.21257 0.21618 0.36615 0.0
N603 N 0.24365 0.22547 0.39762 0.0
N604 N 0.22188 0.17425 0.35163 0.0
C605 C 0.25166 0.16624 0.37247 0.0
C606 C 0.2635 0.19387 0.3972 0.0
C607 C 0.21991 0.86942 0.92669 0.0
C608 C 0.21091 0.86809 0.88934 0.0
C609 C 0.20995 0.84096 0.95026 0.0
C610 C 0.19156 0.80987 0.93695 0.0
H611 H 0.23543 0.89231 0.93761 0.0
H612 H 0.21805 0.84261 0.97874 0.0
S613 S 0.1598 0.79421 0.84187 0.0
N614 N 0.18069 0.83445 0.84046 0.0
N615 N 0.16274 0.78016 0.88475 0.0
C616 C 0.1814 0.80866 0.8999 0.0
C617 C 0.19082 0.83808 0.87605 0.0
C618 C 0.80035 0.34279 0.5556 0.0
C619 C 0.77772 0.31363 0.54462 0.0
C620 C 0.78785 0.3687 0.58114 0.0
C621 C 0.75209 0.36657 0.59529 0.0
H622 H 0.82788 0.34525 0.54478 0.0
H623 H 0.80587 0.3909 0.58925 0.0
S624 S 0.68238 0.29558 0.57422 0.0
N625 N 0.7184 0.28388 0.54947 0.0
N626 N 0.69441 0.33312 0.59657 0.0
C627 C 0.72925 0.33763 0.58415 0.0
C628 C 0.74223 0.31096 0.55897 0.0
C629 C 0.72629 0.60672 0.05281 0.0
C630 C 0.71581 0.60901 0.08978 0.0
C631 C 0.7178 0.63482 0.02825 0.0
C632 C 0.69933 0.66648 0.04014 0.0
H633 H 0.74191 0.58339 0.04297 0.0
H634 H 0.7271 0.63242 0.00018 0.0
S635 S 0.66369 0.68465 0.1335 0.0
N636 N 0.68399 0.64423 0.13662 0.0
N637 N 0.66862 0.69763 0.09048 0.0
C638 C 0.68755 0.66858 0.0767 0.0
C639 C 0.69558 0.6396 0.10156 0.0
C640 C 0.39096 0.22973 0.15731 0.0
C641 C 0.38355 0.25528 0.12945 0.0
C642 C 0.41451 0.23839 0.18603 0.0
C643 C 0.43202 0.27265 0.1875 0.0
H644 H 0.3787 0.20263 0.15676 0.0
H645 H 0.41992 0.21763 0.20657 0.0
S646 S 0.42017 0.34988 0.12238 0.0
N647 N 0.39392 0.31682 0.10592 0.0
N648 N 0.43904 0.33308 0.15987 0.0
C649 C 0.42419 0.29885 0.16034 0.0
C650 C 0.39962 0.2902 0.13133 0.0
C651 C 0.90766 0.19095 0.84631 0.0
C652 C 0.88373 0.22097 0.84414 0.0
C653 C 0.93306 0.18425 0.81832 0.0
C654 C 0.9346 0.20695 0.78718 0.0
H655 H 0.90789 0.17368 0.87044 0.0
H656 H 0.95183 0.16138 0.82122 0.0
S657 S 0.87591 0.2878 0.76814 0.0
N658 N 0.86197 0.2728 0.80845 0.0
N659 N 0.90894 0.25959 0.75525 0.0
C660 C 0.90964 0.2361 0.78414 0.0
C661 C 0.88437 0.2433 0.81287 0.0
C662 C 0.52592 0.76488 0.33108 0.0
C663 C 0.53853 0.78284 0.29954 0.0
C664 C 0.55004 0.75563 0.35913 0.0
C665 C 0.58741 0.76464 0.35689 0.0
H666 H 0.49746 0.75677 0.3336 0.0
H667 H 0.53943 0.7407 0.38251 0.0
S668 S 0.63339 0.81469 0.28149 0.0
N669 N 0.5902 0.81145 0.26847 0.0
N670 N 0.63564 0.79435 0.32182 0.0
C671 C 0.60011 0.78415 0.32633 0.0
C672 C 0.57562 0.79309 0.2974 0.0
C673 C 0.07689 0.69475 0.6086 0.0
C674 C 0.1034 0.72163 0.61579 0.0
C675 C 0.0514 0.68488 0.63556 0.0
C676 C 0.05214 0.70136 0.67045 0.0
H677 H 0.07474 0.68268 0.58158 0.0
H678 H 0.03071 0.66465 0.62884 0.0
S679 S 0.11839 0.77179 0.70263 0.0
N680 N 0.1303 0.76351 0.65983 0.0
N681 N 0.08306 0.74473 0.71089 0.0
C682 C 0.07974 0.72723 0.67816 0.0
C683 C 0.10522 0.73746 0.65066 0.0
C684 C 0.8696 0.55223 0.72226 0.0
C685 C 0.86838 0.58967 0.71304 0.0
C686 C 0.83993 0.52913 0.71501 0.0
C687 C 0.80771 0.54298 0.69924 0.0
H688 H 0.89338 0.5409 0.73594 0.0
H689 H 0.84173 0.50055 0.72307 0.0
S690 S 0.79149 0.63863 0.66841 0.0
N691 N 0.83329 0.63927 0.68568 0.0
N692 N 0.77689 0.5959 0.67278 0.0
C693 C 0.80647 0.58016 0.68899 0.0
C694 C 0.83705 0.60351 0.69564 0.0
C695 C 0.60835 0.40748 0.19907 0.0
C696 C 0.60972 0.39025 0.23339 0.0
C697 C 0.63674 0.4308 0.18775 0.0
C698 C 0.66766 0.43642 0.20999 0.0
H699 H 0.58497 0.40344 0.18129 0.0
H700 H 0.63477 0.44409 0.16131 0.0
S701 S 0.68459 0.39647 0.30161 0.0
N702 N 0.64435 0.37994 0.28928 0.0
N703 N 0.69816 0.42282 0.26745 0.0
C704 C 0.66954 0.4188 0.24402 0.0
C705 C 0.64039 0.3959 0.25588 0.0
C706 C 0.36523 0.92511 0.24887 0.0
C707 C 0.36259 0.88761 0.25766 0.0
C708 C 0.33966 0.95036 0.26204 0.0
C709 C 0.31015 0.93885 0.28387 0.0
H710 H 0.38697 0.93497 0.23121 0.0
H711 H 0.34222 0.97884 0.25382 0.0
S712 S 0.29235 0.8441 0.31673 0.0
N713 N 0.32961 0.84043 0.29131 0.0
N714 N 0.28086 0.88798 0.31566 0.0
C715 C 0.30782 0.90163 0.2939 0.0
C716 C 0.3343 0.87596 0.28095 0.0
C717 C 0.1384 0.03899 0.76492 0.0
C718 C 0.16891 0.0515 0.78464 0.0
C719 C 0.11275 0.06373 0.75111 0.0
C720 C 0.11633 0.10164 0.75732 0.0
H721 H 0.13516 0.01006 0.75868 0.0
H722 H 0.09028 0.05317 0.73484 0.0
S723 S 0.18943 0.14791 0.81024 0.0
N724 N 0.2003 0.10387 0.81164 0.0
N725 N 0.15115 0.1505 0.78631 0.0
C726 C 0.14558 0.1144 0.77863 0.0
C727 C 0.17221 0.08925 0.79208 0.0
C728 C 0.69315 0.8458 0.59482 0.0
C729 C 0.71567 0.87455 0.58272 0.0
C730 C 0.68092 0.81889 0.57037 0.0
C731 C 0.69024 0.82037 0.533 0.0
H732 H 0.68652 0.84299 0.62359 0.0
H733 H 0.66478 0.79629 0.58097 0.0
S734 S 0.74519 0.89268 0.48723 0.0
N735 N 0.74447 0.9048 0.53078 0.0
N736 N 0.72097 0.85447 0.48466 0.0
C737 C 0.71087 0.85028 0.52024 0.0
C738 C 0.72377 0.87733 0.5452 0.0
C739 C 0.80494 0.16141 0.07017 0.0
C740 C 0.79609 0.15762 0.03285 0.0
C741 C 0.79265 0.13592 0.09602 0.0
C742 C 0.77061 0.10628 0.08534 0.0
H743 H 0.82039 0.18496 0.07969 0.0
H744 H 0.79861 0.14067 0.12467 0.0
S745 S 0.74365 0.08137 -0.00933 0.0
N746 N 0.76718 0.11984 0.98614 0.0
N747 N 0.74364 0.0721 0.03489 0.0
C748 C 0.76352 0.10085 0.04791 0.0
C749 C 0.77645 0.12649 0.02155 0.0
C750 C 0.1823 0.66187 0.42074 0.0
C751 C 0.20649 0.69155 0.4257 0.0
C752 C 0.18977 0.63445 0.39495 0.0
C753 C 0.22199 0.63569 0.37412 0.0
H754 H 0.15769 0.6596 0.43719 0.0
H755 H 0.17123 0.61133 0.3926 0.0
S756 S 0.29303 0.70836 0.37527 0.0
N757 N 0.26274 0.72158 0.4062 0.0
N758 N 0.2773 0.66932 0.35843 0.0
C759 C 0.24578 0.6657 0.37797 0.0
C760 C 0.23786 0.69392 0.40362 0.0
C761 C 0.25026 0.305 0.92115 0.0
C762 C 0.28295 0.30928 0.94089 0.0
C763 C 0.23977 0.33078 0.89507 0.0
C764 C 0.26211 0.36111 0.88724 0.0
H765 H 0.23243 0.28175 0.92622 0.0
H766 H 0.21409 0.32683 0.88073 0.0
S767 S 0.3506 0.38442 0.931 0.0
N768 N 0.33762 0.34594 0.95119 0.0
N769 N 0.31825 0.39427 0.90096 0.0
C770 C 0.2951 0.36557 0.9064 0.0
C771 C 0.30541 0.33968 0.93368 0.0
C772 C 0.53737 0.71886 0.83909 0.0
C773 C 0.54823 0.70065 0.80705 0.0
C774 C 0.5629 0.72765 0.86598 0.0
C775 C 0.59992 0.71785 0.86199 0.0
H776 H 0.50923 0.72759 0.84284 0.0
H777 H 0.55374 0.74295 0.88975 0.0
S778 S 0.64143 0.66656 0.78486 0.0
N779 N 0.59778 0.67075 0.77372 0.0
N780 N 0.64593 0.68695 0.82502 0.0
C781 C 0.61086 0.69794 0.83104 0.0
C782 C 0.58493 0.6895 0.80325 0.0
C783 C 0.07629 0.7877 0.17265 0.0
C784 C 0.03878 0.77911 0.17085 0.0
C785 C 0.10014 0.77752 0.14439 0.0
C786 C 0.0872 0.75769 0.1141 0.0
H787 H 0.08729 0.80214 0.19614 0.0
H788 H 0.12902 0.78386 0.14697 0.0
S789 S -0.00874 0.72957 0.096 0.0
N790 N 0.98959 0.75095 0.13583 0.0
N791 N 0.03459 0.73109 0.08306 0.0
C792 C 0.04966 0.74964 0.11164 0.0
C793 C 0.02534 0.76056 0.13998 0.0
C794 C 0.43451 0.17625 0.64359 0.0
C795 C 0.43189 0.19304 0.67826 0.0
C796 C 0.40996 0.1852 0.61551 0.0
C797 C 0.38246 0.21146 0.62129 0.0
H798 H 0.45621 0.15679 0.63782 0.0
H799 H 0.41395 0.17331 0.5886 0.0
S800 S 0.36214 0.26147 0.70724 0.0
N801 N 0.3978 0.23545 0.71716 0.0
N802 N 0.35232 0.25257 0.66406 0.0
C803 C 0.37844 0.22713 0.65611 0.0
C804 C 0.40301 0.21782 0.68474 0.0
C805 C 0.89594 0.29813 0.35404 0.0
C806 C 0.86929 0.2709 0.34905 0.0
C807 C 0.92256 0.30435 0.32715 0.0
C808 C 0.92289 0.2838 0.29446 0.0
H809 H 0.89762 0.31298 0.37969 0.0
H810 H 0.94347 0.32481 0.33235 0.0
S811 S 0.85634 0.21166 0.26763 0.0
N812 N 0.84298 0.22493 0.30875 0.0
N813 N 0.8925 0.23704 0.25773 0.0
C814 C 0.89489 0.25805 0.28842 0.0
C815 C 0.86818 0.25147 0.31592 0.0
C816 C 0.10499 0.1543 0.30252 0.0
C817 C 0.10428 0.12125 0.28269 0.0
C818 C 0.08683 0.18564 0.28949 0.0
C819 C 0.06725 0.18502 0.2562 0.0
H820 H 0.12151 0.15665 0.32703 0.0
H821 H 0.08969 0.21095 0.30483 0.0
S822 S 0.05171 0.10297 0.19774 0.0
N823 N 0.07861 0.08822 0.23088 0.0
N824 N 0.04437 0.14685 0.20646 0.0
C825 C 0.06408 0.15124 0.2377 0.0
C826 C 0.08261 0.11945 0.25094 0.0
C827 C 0.38444 0.86426 0.74814 0.0
C828 C 0.36967 0.86621 0.78373 0.0
C829 C 0.4048 0.83389 0.7366 0.0
C830 C 0.41101 0.80405 0.76011 0.0
H831 H 0.37912 0.88584 0.72845 0.0
H832 H 0.41404 0.8331 0.70843 0.0
S833 S 0.38295 0.79806 0.85779 0.0
N834 N 0.36604 0.83765 0.84368 0.0
N835 N 0.40453 0.78031 0.82218 0.0
C836 C 0.39869 0.80682 0.79666 0.0
C837 C 0.37803 0.83799 0.80846 0.0
C838 C 0.5843 0.35927 0.73539 0.0
C839 C 0.59967 0.36226 0.70017 0.0
C840 C 0.56684 0.32716 0.74686 0.0
C841 C 0.56417 0.29644 0.72368 0.0
H842 H 0.58724 0.38144 0.75499 0.0
H843 H 0.55706 0.32595 0.77483 0.0
S844 S 0.59468 0.29237 0.62663 0.0
N845 N 0.60732 0.33361 0.64064 0.0
N846 N 0.57425 0.27287 0.66197 0.0
C847 C 0.57682 0.30009 0.6873 0.0
C848 C 0.59456 0.33311 0.67557 0.0
C849 C 0.89013 0.61654 0.22716 0.0
C850 C 0.87144 0.61632 0.19353 0.0
C851 C 0.90863 0.64776 0.23941 0.0
C852 C 0.90893 0.68022 0.21863 0.0
H853 H 0.88882 0.59292 0.24515 0.0
H854 H 0.921 0.6469 0.26632 0.0
S855 S 0.86906 0.69169 0.12569 0.0
N856 N 0.8579 0.64936 0.13755 0.0
N857 N 0.89296 0.70849 0.16022 0.0
C858 C 0.89294 0.67933 0.18342 0.0
C859 C 0.87417 0.64723 0.1709 0.0
C860 C 0.28945 0.07584 0.17409 0.0
C861 C 0.25319 0.06263 0.17709 0.0
C862 C 0.30139 0.09453 0.14283 0.0
C863 C 0.27744 0.10078 0.11355 0.0
H864 H 0.3083 0.07351 0.19684 0.0
H865 H 0.32859 0.10644 0.14279 0.0
S866 S 0.18262 0.06528 0.10412 0.0
N867 N 0.19546 0.05224 0.14542 0.0
N868 N 0.21803 0.08736 0.08662 0.0
C869 C 0.24241 0.08464 0.11458 0.0
C870 C 0.23025 0.0655 0.14636 0.0
C871 C 0.23154 0.92342 0.65178 0.0
C872 C 0.2111 0.92082 0.6843 0.0
C873 C 0.2199 0.906 0.61981 0.0
C874 C 0.18726 0.88553 0.61894 0.0
H875 H 0.25785 0.93717 0.65137 0.0
H876 H 0.23781 0.90662 0.59613 0.0
S877 S 0.12019 0.87567 0.69427 0.0
N878 N 0.15367 0.90045 0.71201 0.0
N879 N 0.13224 0.8674 0.65147 0.0
C880 C 0.16471 0.88557 0.64995 0.0
C881 C 0.17657 0.90326 0.6828 0.0
C882 C 0.7885 0.3947 0.8026 0.0
C883 C 0.75375 0.41168 0.80299 0.0
C884 C 0.80197 0.37619 0.83337 0.0
C885 C 0.78105 0.37383 0.86553 0.0
H886 H 0.80488 0.39426 0.77787 0.0
H887 H 0.82779 0.36167 0.83112 0.0
S888 S 0.69145 0.41849 0.88324 0.0
N889 N 0.70096 0.42873 0.84028 0.0
N890 N 0.7263 0.39365 0.89783 0.0
C891 C 0.74765 0.39293 0.86732 0.0
C892 C 0.734 0.41197 0.83614 0.0
C893 C 0.68188 0.59003 0.29798 0.0
C894 C 0.71398 0.56845 0.29906 0.0
C895 C 0.66882 0.60799 0.32936 0.0
C896 C 0.68751 0.60506 0.36276 0.0
H897 H 0.66772 0.59468 0.27238 0.0
H898 H 0.64552 0.62626 0.32683 0.0
S899 S 0.76826 0.54656 0.3822 0.0
N900 N 0.76071 0.54098 0.33802 0.0
N901 N 0.73633 0.57524 0.39661 0.0
C902 C 0.7177 0.58129 0.36498 0.0
C903 C 0.73091 0.56284 0.33322 0.0
C904 C 0.1517 0.25187 0.06494 0.0
C905 C 0.18531 0.27033 0.06864 0.0
C906 C 0.12019 0.26471 0.08244 0.0
C907 C 0.12087 0.29661 0.10418 0.0
H908 H 0.14997 0.22619 0.05006 0.0
H909 H 0.09549 0.24828 0.08066 0.0
S910 S 0.19992 0.35864 0.11795 0.0
N911 N 0.21603 0.32519 0.09194 0.0
N912 N 0.15632 0.34886 0.12507 0.0
C913 C 0.15317 0.31727 0.1055 0.0
C914 C 0.18555 0.30418 0.08771 0.0
C915 C 0.68381 0.18029 0.89306 0.0
C916 C 0.68486 0.21353 0.91305 0.0
C917 C 0.65147 0.16808 0.87627 0.0
C918 C 0.61916 0.18878 0.87878 0.0
H919 H 0.70852 0.16438 0.88879 0.0
H920 H 0.65249 0.14381 0.8591 0.0
S921 S 0.60516 0.27391 0.93277 0.0
N922 N 0.64894 0.26406 0.93823 0.0
N923 N 0.58854 0.24116 0.90631 0.0
C924 C 0.61898 0.22028 0.901 0.0
C925 C 0.65172 0.23265 0.91827 0.0
C926 C 0.82383 0.73254 0.40776 0.0
C927 C 0.79445 0.75697 0.4124 0.0
C928 C 0.85588 0.74363 0.39002 0.0
C929 C 0.85994 0.77963 0.37646 0.0
H930 H 0.82137 0.70406 0.41597 0.0
H931 H 0.87704 0.72325 0.38547 0.0
S932 S 0.79366 0.85596 0.38763 0.0
N933 N 0.77332 0.82022 0.40661 0.0
N934 N 0.83377 0.84092 0.37299 0.0
C935 C 0.83212 0.80522 0.38373 0.0
C936 C 0.79927 0.79388 0.40169 0.0
C937 C 0.36245 0.73745 0.58967 0.0
C938 C 0.36278 0.70248 0.60613 0.0
C939 C 0.33179 0.75033 0.57082 0.0
C940 C 0.30002 0.7288 0.5676 0.0
H941 H 0.38561 0.75583 0.59267 0.0
H942 H 0.3326 0.77804 0.5601 0.0
S943 S 0.28886 0.63295 0.60123 0.0
N944 N 0.33033 0.64492 0.6147 0.0
N945 N 0.27242 0.66876 0.57893 0.0
C946 C 0.301 0.69255 0.58149 0.0
C947 C 0.33246 0.67945 0.60077 0.0
C948 C 0.87502 0.82632 0.66375 0.0
C949 C 0.88109 0.86051 0.68037 0.0
C950 C 0.89245 0.79461 0.67699 0.0
C951 C 0.91636 0.79616 0.70732 0.0
H952 H 0.85467 0.82358 0.64236 0.0
H953 H 0.88536 0.76846 0.66473 0.0
S954 S 0.9463 0.88091 0.75534 0.0
N955 N 0.91611 0.89525 0.72494 0.0
N956 N 0.94916 0.836 0.74967 0.0
C957 C 0.92498 0.83089 0.72185 0.0
C958 C 0.90726 0.86298 0.70839 0.0
C959 C 0.61276 0.15734 0.17433 0.0
C960 C 0.60695 0.1229 0.19066 0.0
C961 C 0.59754 0.18932 0.18975 0.0
C962 C 0.57649 0.1877 0.22209 0.0
H963 H 0.63121 0.15992 0.15123 0.0
H964 H 0.60411 0.21562 0.17755 0.0
S965 S 0.54766 0.10316 0.27079 0.0
N966 N 0.57437 0.08841 0.23738 0.0
N967 N 0.54629 0.14828 0.2665 0.0
C968 C 0.56814 0.15306 0.23673 0.0
C969 C 0.58321 0.1207 0.2209 0.0
C970 C 0.39834 0.64916 0.21981 0.0
C971 C 0.40724 0.6779 0.24391 0.0
C972 C 0.38023 0.61761 0.23227 0.0
C973 C 0.37053 0.61337 0.2694 0.0
H974 H 0.40377 0.65175 0.19077 0.0
H975 H 0.37255 0.59702 0.21228 0.0
S976 S 0.3927 0.67845 0.34455 0.0
N977 N 0.40874 0.6984 0.30731 0.0
N978 N 0.37476 0.63921 0.33075 0.0
C979 C 0.3816 0.64081 0.29421 0.0
C980 C 0.39986 0.67305 0.28146 0.0
C981 C 0.086 0.30753 0.77671 0.0
C982 C 0.07175 0.30682 0.74082 0.0
C983 C 0.10485 0.33821 0.79005 0.0
C984 C 0.11026 0.36921 0.76793 0.0
H985 H 0.08414 0.28359 0.79419 0.0
H986 H 0.11716 0.33669 0.81697 0.0
S987 S 0.07265 0.38441 0.67488 0.0
N988 N 0.06003 0.34221 0.68548 0.0
N989 N 0.09562 0.39974 0.71064 0.0
C990 C 0.09366 0.37015 0.73324 0.0
C991 C 0.07433 0.339 0.71966 0.0
C992 C 0.74184 0.88728 0.8552 0.0
C993 C 0.70634 0.87251 0.85832 0.0
C994 C 0.7533 0.90524 0.82341 0.0
C995 C 0.72983 0.90904 0.79316 0.0
H996 H 0.76153 0.88388 0.8771 0.0
H997 H 0.78135 0.91486 0.82216 0.0
S998 S 0.63252 0.87907 0.78906 0.0
N999 N 0.64663 0.8657 0.82984 0.0
N1000 N 0.66796 0.89963 0.76983 0.0
C1001 C 0.69342 0.8964 0.79674 0.0
C1002 C 0.68171 0.87818 0.82939 0.0
C1003 C 0.78445 0.09071 0.29987 0.0
C1004 C 0.74943 0.07441 0.29791 0.0
C1005 C 0.79585 0.10981 0.33113 0.0
C1006 C 0.77253 0.11357 0.36145 0.0
H1007 H 0.80287 0.08983 0.27662 0.0
H1008 H 0.82225 0.12341 0.3307 0.0
S1009 S 0.6804 0.07199 0.37265 0.0
N1010 N 0.69316 0.06019 0.33091 0.0
N1011 N 0.71464 0.09626 0.3895 0.0
C1012 C 0.73847 0.09553 0.36088 0.0
C1013 C 0.72692 0.07587 0.32918 0.0
C1014 C 0.22593 0.58357 0.11554 0.0
C1015 C 0.19048 0.59873 0.11273 0.0
C1016 C 0.23721 0.56478 0.14697 0.0
C1017 C 0.21357 0.56069 0.17702 0.0
H1018 H 0.24585 0.58782 0.09395 0.0
H1019 H 0.2654 0.55561 0.14858 0.0
S1020 S 0.11589 0.58926 0.18095 0.0
N1021 N 0.1303 0.60398 0.14069 0.0
N1022 N 0.15134 0.56855 0.19993 0.0
C1023 C 0.17703 0.57282 0.17331 0.0
C1024 C 0.16548 0.59181 0.14109 0.0
C1025 C 0.25721 0.41668 0.64823 0.0
C1026 C 0.27649 0.41494 0.68146 0.0
C1027 C 0.27017 0.39874 0.61694 0.0
C1028 C 0.30308 0.37859 0.61742 0.0
H1029 H 0.23082 0.43021 0.64674 0.0
H1030 H 0.2532 0.39899 0.59263 0.0
S1031 S 0.36715 0.37034 0.69542 0.0
N1032 N 0.33289 0.39526 0.71148 0.0
N1033 N 0.35682 0.36129 0.65236 0.0
C1034 C 0.32431 0.37921 0.64932 0.0
C1035 C 0.31108 0.39739 0.68145 0.0
C1036 C 0.86742 0.72965 0.88642 0.0
C1037 C 0.86841 0.69442 0.87049 0.0
C1038 C 0.83724 0.74148 0.90677 0.0
C1039 C 0.80672 0.71858 0.91175 0.0
H1040 H 0.88942 0.74904 0.88156 0.0
H1041 H 0.83699 0.76956 0.9166 0.0
S1042 S 0.79875 0.62138 0.88128 0.0
N1043 N 0.83874 0.63503 0.86509 0.0
N1044 N 0.7817 0.65693 0.90367 0.0
C1045 C 0.80882 0.68203 0.8988 0.0
C1046 C 0.83981 0.66998 0.87813 0.0
C1047 C 0.29384 0.79131 0.08226 0.0
C1048 C 0.29421 0.75849 0.0616 0.0
C1049 C 0.32587 0.80522 0.09816 0.0
C1050 C 0.35928 0.78673 0.09394 0.0
H1051 H 0.26834 0.80545 0.08791 0.0
H1052 H 0.3239 0.82887 0.11607 0.0
S1053 S 0.37685 0.70445 0.03666 0.0
N1054 N 0.33228 0.71133 0.03334 0.0
N1055 N 0.3923 0.73746 0.0635 0.0
C1056 C 0.36075 0.75598 0.07072 0.0
C1057 C 0.32825 0.74182 0.05448 0.0
C1058 C 0.16157 0.24086 0.55577 0.0
C1059 C 0.1943 0.22069 0.55809 0.0
C1060 C 0.12939 0.22827 0.57228 0.0
C1061 C 0.12844 0.19498 0.59186 0.0
H1062 H 0.16104 0.26745 0.54248 0.0
H1063 H 0.10543 0.24583 0.57132 0.0
S1064 S 0.205 0.12911 0.60205 0.0
N1065 N 0.22259 0.16338 0.57821 0.0
N1066 N 0.16177 0.14018 0.60955 0.0
C1067 C 0.15996 0.173 0.59197 0.0
C1068 C 0.19298 0.18578 0.57507 0.0
C1069 C 0.61569 0.26646 0.40061 0.0
C1070 C 0.61539 0.30246 0.38675 0.0
C1071 C 0.64581 0.25303 0.41998 0.0
C1072 C 0.67684 0.27513 0.42571 0.0
H1073 H 0.59388 0.24753 0.39364 0.0
H1074 H 0.64593 0.22428 0.42756 0.0
S1075 S 0.68529 0.37414 0.40235 0.0
N1076 N 0.64524 0.36183 0.38528 0.0
N1077 N 0.70215 0.3371 0.42225 0.0
C1078 C 0.67482 0.31259 0.41582 0.0
C1079 C 0.64396 0.32617 0.3961 0.0
C1080 C 0.94001 0.3135 0.07212 0.0
C1081 C 0.95782 0.28152 0.08474 0.0
C1082 C 0.92493 0.31529 0.03693 0.0
C1083 C 0.92706 0.28509 0.0132 0.0
H1084 H 0.93661 0.33702 0.08995 0.0
H1085 H 0.90872 0.33912 0.02962 0.0
S1086 S 0.9759 0.19747 0.0302 0.0
N1087 N 0.98092 0.22093 0.06857 0.0
N1088 N 0.9521 0.22423 0.00257 0.0
C1089 C 0.94764 0.25435 0.02413 0.0
C1090 C 0.96307 0.25251 0.05991 0.0
C1091 C 0.54016 0.72757 0.53702 0.0
C1092 C 0.55668 0.69537 0.52346 0.0
C1093 C 0.52617 0.72925 0.57256 0.0
C1094 C 0.52824 0.69877 0.596 0.0
H1095 H 0.54029 0.75249 0.5208 0.0
H1096 H 0.5149 0.75507 0.5821 0.0
S1097 S 0.56291 0.6059 0.57108 0.0
N1098 N 0.57034 0.63107 0.53427 0.0
N1099 N 0.54345 0.63365 0.60114 0.0
C1100 C 0.54208 0.66544 0.58171 0.0
C1101 C 0.55622 0.6638 0.54532 0.0
C1102 C 0.43393 0.22485 0.94546 0.0
C1103 C 0.41827 0.19242 0.95952 0.0
C1104 C 0.45094 0.22539 0.91112 0.0
C1105 C 0.4524 0.1936 0.88937 0.0
H1106 H 0.43072 0.2506 0.96003 0.0
H1107 H 0.46131 0.25128 0.90083 0.0
S1108 S 0.42114 0.10036 0.91664 0.0
N1109 N 0.40952 0.1269 0.95141 0.0
N1110 N 0.44143 0.1276 0.88672 0.0
C1111 C 0.4395 0.16035 0.90447 0.0
C1112 C 0.42262 0.15979 0.9397 0.0
C1113 C 0.06392 0.74886 0.43353 0.0
C1114 C 0.06599 0.78315 0.45155 0.0
C1115 C 0.04421 0.7447 0.40099 0.0
C1116 C 0.02607 0.77475 0.38562 0.0
H1117 H 0.08033 0.72593 0.44295 0.0
H1118 H 0.04539 0.71873 0.38653 0.0
S1119 S 0.01512 0.86734 0.42676 0.0
N1120 N 0.0431 0.84563 0.45492 0.0
N1121 N 0.00467 0.83748 0.39431 0.0
C1122 C 0.02416 0.8078 0.40562 0.0
C1123 C 0.04439 0.81208 0.43867 0.0
C1124 C 0.06939 0.95793 0.27737 0.0
C1125 C 0.10057 0.94547 0.2964 0.0
C1126 C 0.03561 0.93987 0.28064 0.0
C1127 C 0.03164 0.90915 0.30347 0.0
H1128 H 0.0712 0.9813 0.25913 0.0
H1129 H 0.01298 0.94871 0.26361 0.0
S1130 S 0.10443 0.86488 0.35857 0.0
N1131 N 0.12488 0.90029 0.33911 0.0
N1132 N 0.06148 0.86655 0.34471 0.0
C1133 C 0.06213 0.89714 0.32349 0.0
C1134 C 0.09657 0.91525 0.32011 0.0
C1135 C 0.43291 0.05448 0.81951 0.0
C1136 C 0.45487 0.05731 0.78816 0.0
C1137 C 0.397 0.04099 0.81725 0.0
C1138 C 0.38208 0.02918 0.78362 0.0
H1139 H 0.44234 0.06577 0.84518 0.0
H1140 H 0.38054 0.04074 0.84193 0.0
S1141 S 0.43133 0.02515 0.69484 0.0
N1142 N 0.46121 0.04324 0.72355 0.0
N1143 N 0.39418 0.01678 0.71928 0.0
C1144 C 0.40518 0.02854 0.75282 0.0
C1145 C 0.44154 0.04264 0.75516 0.0
C1146 C 0.57617 0.53981 0.6715 0.0
C1147 C 0.58935 0.52947 0.70629 0.0
C1148 C 0.54179 0.55635 0.66736 0.0
C1149 C 0.51954 0.56289 0.69789 0.0
H1150 H 0.59287 0.53591 0.64735 0.0
H1151 H 0.53413 0.56696 0.64079 0.0
S1152 S 0.5374 0.53317 0.79328 0.0
N1153 N 0.57463 0.52101 0.77057 0.0
N1154 N 0.50984 0.55203 0.7628 0.0
C1155 C 0.53043 0.54854 0.73197 0.0
C1156 C 0.56548 0.53193 0.73623 0.0
C1157 C 0.93272 0.43448 0.16647 0.0
C1158 C 0.95264 0.42248 0.1969 0.0
C1159 C 0.89852 0.45124 0.17119 0.0
C1160 C 0.88315 0.45588 0.20628 0.0
H1161 H 0.94175 0.42766 0.13903 0.0
H1162 H 0.88332 0.45937 0.14714 0.0
S1163 S 0.92857 0.43657 0.29456 0.0
N1164 N 0.95797 0.42228 0.26322 0.0
N1165 N 0.89327 0.45345 0.27184 0.0
C1166 C 0.90479 0.44818 0.23686 0.0
C1167 C 0.93975 0.43152 0.23214 0.0
C1168 C 0.31423 0.08948 0.93308 0.0
C1169 C 0.28276 0.09994 0.95306 0.0
C1170 C 0.31737 0.05452 0.91743 0.0
C1171 C 0.28901 0.02884 0.92086 0.0
H1172 H 0.33621 0.10885 0.92831 0.0
H1173 H 0.34057 0.04884 0.89978 0.0
S1174 S 0.20312 0.04004 0.9738 0.0
N1175 N 0.22451 0.07971 0.97865 0.0
N1176 N 0.23013 0.01439 0.94803 0.0
C1177 C 0.25863 0.03781 0.94272 0.0
C1178 C 0.25548 0.0733 0.95898 0.0
C1179 C 0.76727 0.397 0.02882 0.0
C1180 C 0.79144 0.36826 0.03815 0.0
C1181 C 0.76849 0.43094 0.04698 0.0
C1182 C 0.79438 0.43769 0.07452 0.0
H1183 H 0.7468 0.39317 0.00774 0.0
H1184 H 0.74804 0.45151 0.04052 0.0
S1185 S 0.86298 0.37202 0.1103 0.0
N1186 N 0.84185 0.34921 0.07748 0.0
N1187 N 0.84384 0.41307 0.1111 0.0
C1188 C 0.8191 0.40971 0.08361 0.0
C1189 C 0.81774 0.375 0.06554 0.0
C1190 C 0.69388 0.57427 0.52357 0.0
C1191 C 0.68271 0.60786 0.53931 0.0
C1192 C 0.6897 0.54092 0.54247 0.0
C1193 C 0.67392 0.54009 0.57749 0.0
H1194 H 0.70631 0.57374 0.49664 0.0
H1195 H 0.70063 0.51599 0.53047 0.0
S1196 S 0.64175 0.62035 0.63136 0.0
N1197 N 0.65554 0.63802 0.59213 0.0
N1198 N 0.64843 0.57569 0.62759 0.0
C1199 C 0.66213 0.57337 0.59312 0.0
C1200 C 0.66629 0.60717 0.57403 0.0
C1201 C 0.23451 0.92626 0.4594 0.0
C1202 C 0.20363 0.90346 0.46132 0.0
C1203 C 0.23225 0.96084 0.44273 0.0
C1204 C 0.19902 0.97373 0.42781 0.0
H1205 H 0.26101 0.91634 0.46832 0.0
H1206 H 0.2574 0.97599 0.43817 0.0
S1207 S 0.10851 0.92858 0.43524 0.0
N1208 N 0.13739 0.8992 0.45399 0.0
N1209 N 0.13351 0.9641 0.42236 0.0
C1210 C 0.16716 0.95324 0.43395 0.0
C1211 C 0.16944 0.91792 0.45056 0.0
C1212 C 0.03077 0.73096 0.90098 0.0
C1213 C 0.0228 0.69906 0.88112 0.0
C1214 C 0.04738 0.72865 0.93537 0.0
C1215 C 0.05687 0.6944 0.95085 0.0
H1216 H 0.02638 0.75779 0.88895 0.0
H1217 H 0.05594 0.75397 0.94844 0.0
S1218 S 0.03145 0.60306 0.91443 0.0
N1219 N 0.01685 0.63243 0.88324 0.0
N1220 N 0.05048 0.62817 0.94693 0.0
C1221 C 0.04486 0.66243 0.93332 0.0
C1222 C 0.02741 0.66477 0.8985 0.0
C1223 C 0.4864 0.28223 0.42255 0.0
C1224 C 0.48133 0.24912 0.40312 0.0
C1225 C 0.46479 0.29071 0.45328 0.0
C1226 C 0.43809 0.26591 0.46549 0.0
H1227 H 0.50418 0.30337 0.41156 0.0
H1228 H 0.46603 0.31818 0.46463 0.0
S1229 S 0.42035 0.17247 0.4289 0.0
N1230 N 0.45194 0.18957 0.40135 0.0
N1231 N 0.4127 0.20434 0.4602 0.0
C1232 C 0.43672 0.23072 0.44932 0.0
C1233 C 0.45785 0.22263 0.41758 0.0
C1234 C 0.55392 0.75456 0.03374 0.0
C1235 C 0.56767 0.78786 0.01962 0.0
C1236 C 0.53482 0.75348 0.06686 0.0
C1237 C 0.52871 0.7857 0.087 0.0
H1238 H 0.56038 0.72874 0.02042 0.0
H1239 H 0.52651 0.72703 0.07761 0.0
S1240 S 0.55107 0.88073 0.0574 0.0
N1241 N 0.56893 0.85428 0.02526 0.0
N1242 N 0.53114 0.85258 0.08673 0.0
C1243 C 0.5387 0.81958 0.07115 0.0
C1244 C 0.55849 0.82062 0.03748 0.0
C1245 C 0.93723 0.23673 0.52065 0.0
C1246 C 0.92187 0.20369 0.50768 0.0
C1247 C 0.95636 0.23791 0.55381 0.0
C1248 C 0.96013 0.20614 0.57517 0.0
H1249 H 0.93142 0.26239 0.50681 0.0
H1250 H 0.96584 0.2642 0.56398 0.0
S1251 S 0.93197 0.11171 0.5491 0.0
N1252 N 0.91698 0.13778 0.5154 0.0
N1253 N 0.95288 0.13966 0.57791 0.0
C1254 C 0.94839 0.17233 0.56049 0.0
C1255 C 0.92945 0.17114 0.52648 0.0
C1256 C 0.91226 0.03943 0.72452 0.0
C1257 C 0.89393 0.02637 0.69353 0.0
C1258 C 0.94507 0.059 0.72079 0.0
C1259 C 0.96066 0.06574 0.68604 0.0
H1260 H 0.8999 0.0369 0.75138 0.0
H1261 H 0.95664 0.07175 0.74498 0.0
S1262 S 0.92816 0.02783 0.59794 0.0
N1263 N 0.89712 0.01459 0.62808 0.0
N1264 N 0.95896 0.05156 0.62118 0.0
C1265 C 0.94494 0.04876 0.6555 0.0
C1266 C 0.91133 0.02916 0.65922 0.0
C1267 C 0.5913 0.91718 0.16757 0.0
C1268 C 0.59535 0.94783 0.19071 0.0
C1269 C 0.55721 0.90054 0.16249 0.0
C1270 C 0.52555 0.91427 0.17947 0.0
H1271 H 0.61486 0.90501 0.15418 0.0
H1272 H 0.55626 0.87498 0.14752 0.0
S1273 S 0.52026 -0.00533 0.24131 0.0
N1274 N 0.56394 -0.00775 0.22972 0.0
N1275 N 0.49985 0.9603 0.21997 0.0
C1276 C 0.52876 0.94543 0.20177 0.0
C1277 C 0.5636 0.96242 0.20734 0.0
C1278 C 0.42546 0.42132 0.289 0.0
C1279 C 0.42338 0.38891 0.30974 0.0
C1280 C 0.39383 0.44196 0.28142 0.0
C1281 C 0.35925 0.43096 0.29465 0.0
H1282 H 0.45135 0.4299 0.27728 0.0
H1283 H 0.39655 0.46686 0.26544 0.0
S1284 S 0.33989 0.34846 0.35124 0.0
N1285 N 0.3845 0.3471 0.34399 0.0
N1286 N 0.32525 0.38576 0.33017 0.0
C1287 C 0.35716 0.39892 0.31609 0.0
C1288 C 0.38918 0.37797 0.32356 0.0
C1289 C 0.08196 0.52499 0.7616 0.0
C1290 C 0.11248 0.53968 0.78011 0.0
C1291 C 0.0471 0.541 0.76506 0.0
C1292 C 0.04147 0.57171 0.78768 0.0
H1293 H 0.08499 0.50108 0.74418 0.0
H1294 H 0.02474 0.53025 0.74878 0.0
S1295 S 0.11251 0.62214 0.83991 0.0
N1296 N 0.13476 0.58765 0.82081 0.0
N1297 N 0.06952 0.61736 0.82698 0.0
C1298 C 0.07164 0.58636 0.80644 0.0
C1299 C 0.10706 0.57044 0.80278 0.0
C1300 C 0.66812 0.89084 0.05014 0.0
C1301 C 0.69974 0.88256 0.02933 0.0
C1302 C 0.66279 0.92571 0.06556 0.0
C1303 C 0.68886 0.95357 0.06079 0.0
H1304 H 0.64768 0.86996 0.05554 0.0
H1305 H 0.63974 0.92986 0.08384 0.0
S1306 S 0.77395 0.94823 0.00573 0.0
N1307 N 0.75563 0.90692 0.00206 0.0
N1308 N 0.74564 0.97211 0.03178 0.0
C1309 C 0.71921 0.94661 0.03822 0.0
C1310 C 0.72472 0.91119 0.0224 0.0
C1311 C 0.16136 0.54871 0.90777 0.0
C1312 C 0.18843 0.52217 0.91427 0.0
C1313 C 0.16408 0.58389 0.92324 0.0
C1314 C 0.19401 0.59373 0.94564 0.0
H1315 H 0.13955 0.54328 0.88842 0.0
H1316 H 0.14297 0.60374 0.91681 0.0
S1317 S 0.26938 0.5316 0.97457 0.0
N1318 N 0.24384 0.50629 0.94715 0.0
N1319 N 0.24913 0.57211 0.97649 0.0
C1320 C 0.21981 0.56632 0.95431 0.0
C1321 C 0.21688 0.5306 0.93866 0.0
C1322 C 0.31885 0.40843 0.43166 0.0
C1323 C 0.28912 0.39566 0.45289 0.0
C1324 C 0.31842 0.44327 0.41544 0.0
C1325 C 0.2882 0.46666 0.41985 0.0
H1326 H 0.34235 0.391 0.42652 0.0
H1327 H 0.34057 0.45067 0.39711 0.0
S1328 S 0.20582 0.44911 0.47667 0.0
N1329 N 0.23045 0.41128 0.4806 0.0
N1330 N 0.22962 0.47665 0.44977 0.0
C1331 C 0.25957 0.45548 0.44309 0.0
C1332 C 0.25998 0.42002 0.45966 0.0
C1333 C 0.81866 0.09252 0.54296 0.0
C1334 C 0.78533 0.10345 0.52664 0.0
C1335 C 0.82265 0.05783 0.55902 0.0
C1336 C 0.79346 0.03286 0.55944 0.0
H1337 H 0.8416 0.11132 0.5445 0.0
H1338 H 0.84758 0.05182 0.5739 0.0
S1339 S 0.70226 0.04547 0.5169 0.0
N1340 N 0.72395 0.08442 0.50871 0.0
N1341 N 0.73147 0.01954 0.53971 0.0
C1342 C 0.761 0.04224 0.54111 0.0
C1343 C 0.75688 0.07746 0.52456 0.0
loop_
_geom_bond_atom_site_label_1
_geom_bond_atom_site_label_2
_geom_bond_distance
_geom_bond_site_symmetry_2
_ccdc_geom_bond_type
O0 Zn1 1.953 . S
O0 C16 1.225 . S
Zn1 O0 1.953 . S
Zn1 O2 1.949 . S
Zn1 O8 1.919 . S
Zn1 O13 1.924 . S
O2 Zn1 1.949 . S
O2 Zn3 1.923 . S
O2 Zn4 1.950 . S
O2 Zn5 1.945 1_455 S
Zn3 O2 1.923 . S
Zn3 O6 1.933 . S
Zn3 O9 1.941 . S
Zn3 O10 1.965 . S
Zn4 O2 1.950 . S
Zn4 O11 1.938 . S
Zn4 O12 1.906 . S
Zn4 O22 1.953 . S
Zn5 O2 1.945 1_655 S
Zn5 O7 1.932 . S
Zn5 O14 1.977 . S
Zn5 O15 1.910 . S
O6 Zn3 1.933 . S
O6 C17 1.207 1_455 S
O7 Zn5 1.932 . S
O7 C17 1.318 . S
O8 Zn1 1.919 . S
O8 C19 1.253 . S
O9 Zn3 1.941 . S
O9 C19 1.283 . S
O10 Zn3 1.965 . S
O10 C18 1.303 . S
O11 Zn4 1.938 . S
O11 C18 1.247 . S
O12 Zn4 1.906 . S
O12 C20 1.304 1_455 S
O13 Zn1 1.924 . S
O13 C21 1.311 1_455 S
O14 Zn5 1.977 . S
O14 C20 1.272 . S
O15 Zn5 1.910 . S
O15 C21 1.231 . S
C16 O0 1.225 . S
C16 O22 1.298 . S
C17 O6 1.207 1_655 S
C17 O7 1.318 . S
C18 O10 1.303 . S
C18 O11 1.247 . S
C19 O8 1.253 . S
C19 O9 1.283 . S
C20 O12 1.304 1_655 S
C20 O14 1.272 . S
C21 O13 1.311 1_655 S
C21 O15 1.231 . S
O22 Zn4 1.953 . S
O22 C16 1.298 . S
O23 Zn24 1.953 . S
O23 C39 1.225 . S
Zn24 O23 1.953 . S
Zn24 O25 1.949 . S
Zn24 O31 1.919 . S
Zn24 O36 1.924 . S
O25 Zn24 1.949 . S
O25 Zn26 1.923 . S
O25 Zn27 1.950 . S
O25 Zn28 1.945 . S
Zn26 O25 1.923 . S
Zn26 O29 1.933 . S
Zn26 O32 1.941 . S
Zn26 O33 1.965 . S
Zn27 O25 1.950 . S
Zn27 O34 1.938 . S
Zn27 O35 1.906 . S
Zn27 O45 1.953 . S
Zn28 O25 1.945 . S
Zn28 O30 1.932 . S
Zn28 O37 1.977 . S
Zn28 O38 1.910 . S
O29 Zn26 1.933 . S
O29 C40 1.226 . S
O30 Zn28 1.932 . S
O30 C40 1.307 . S
O31 Zn24 1.919 . S
O31 C42 1.253 . S
O32 Zn26 1.941 . S
O32 C42 1.283 . S
O33 Zn26 1.965 . S
O33 C41 1.303 . S
O34 Zn27 1.938 . S
O34 C41 1.247 . S
O35 Zn27 1.906 . S
O35 C43 1.304 . S
O36 Zn24 1.924 . S
O36 C44 1.311 . S
O37 Zn28 1.977 . S
O37 C43 1.272 . S
O38 Zn28 1.910 . S
O38 C44 1.231 . S
C39 O23 1.225 . S
C39 O45 1.298 . S
C40 O29 1.226 . S
C40 O30 1.307 . S
C41 O33 1.303 . S
C41 O34 1.247 . S
C42 O31 1.253 . S
C42 O32 1.283 . S
C43 O35 1.304 . S
C43 O37 1.272 . S
C44 O36 1.311 . S
C44 O38 1.231 . S
O45 Zn27 1.953 . S
O45 C39 1.298 . S
O46 Zn47 1.953 . S
O46 C62 1.225 . S
Zn47 O46 1.953 . S
Zn47 O48 1.949 . S
Zn47 O54 1.919 . S
Zn47 O59 1.924 . S
O48 Zn47 1.949 . S
O48 Zn49 1.923 . S
O48 Zn50 1.950 . S
O48 Zn51 1.945 . S
Zn49 O48 1.923 . S
Zn49 O52 1.933 . S
Zn49 O55 1.941 . S
Zn49 O56 1.965 . S
Zn50 O48 1.950 . S
Zn50 O57 1.938 . S
Zn50 O58 1.906 . S
Zn50 O68 1.953 . S
Zn51 O48 1.945 . S
Zn51 O53 1.932 . S
Zn51 O60 1.977 . S
Zn51 O61 1.910 . S
O52 Zn49 1.933 . S
O52 C63 1.226 . S
O53 Zn51 1.932 . S
O53 C63 1.307 . S
O54 Zn47 1.919 . S
O54 C65 1.253 . S
O55 Zn49 1.941 . S
O55 C65 1.283 . S
O56 Zn49 1.965 . S
O56 C64 1.303 . S
O57 Zn50 1.938 . S
O57 C64 1.247 . S
O58 Zn50 1.906 . S
O58 C66 1.304 . S
O59 Zn47 1.924 . S
O59 C67 1.311 . S
O60 Zn51 1.977 . S
O60 C66 1.272 . S
O61 Zn51 1.910 . S
O61 C67 1.231 . S
C62 O46 1.225 . S
C62 O68 1.298 . S
C63 O52 1.226 . S
C63 O53 1.307 . S
C64 O56 1.303 . S
C64 O57 1.247 . S
C65 O54 1.253 . S
C65 O55 1.283 . S
C66 O58 1.304 . S
C66 O60 1.272 . S
C67 O59 1.311 . S
C67 O61 1.231 . S
O68 Zn50 1.953 . S
O68 C62 1.298 . S
O69 Zn70 1.953 . S
O69 C85 1.225 . S
Zn70 O69 1.953 . S
Zn70 O71 1.949 . S
Zn70 O77 1.919 . S
Zn70 O82 1.924 . S
O71 Zn70 1.949 . S
O71 Zn72 1.923 . S
O71 Zn73 1.950 . S
O71 Zn74 1.945 1_655 S
Zn72 O71 1.923 . S
Zn72 O75 1.933 . S
Zn72 O78 1.941 . S
Zn72 O79 1.965 . S
Zn73 O71 1.950 . S
Zn73 O80 1.938 . S
Zn73 O81 1.906 . S
Zn73 O91 1.953 . S
Zn74 O71 1.945 1_455 S
Zn74 O76 1.932 . S
Zn74 O83 1.977 . S
Zn74 O84 1.910 . S
O75 Zn72 1.933 . S
O75 C86 1.207 1_655 S
O76 Zn74 1.932 . S
O76 C86 1.318 . S
O77 Zn70 1.919 . S
O77 C88 1.253 . S
O78 Zn72 1.941 . S
O78 C88 1.283 . S
O79 Zn72 1.965 . S
O79 C87 1.303 . S
O80 Zn73 1.938 . S
O80 C87 1.247 . S
O81 Zn73 1.906 . S
O81 C89 1.304 1_655 S
O82 Zn70 1.924 . S
O82 C90 1.311 1_655 S
O83 Zn74 1.977 . S
O83 C89 1.272 . S
O84 Zn74 1.910 . S
O84 C90 1.231 . S
C85 O69 1.225 . S
C85 O91 1.298 . S
C86 O75 1.207 1_455 S
C86 O76 1.318 . S
C87 O79 1.303 . S
C87 O80 1.247 . S
C88 O77 1.253 . S
C88 O78 1.283 . S
C89 O81 1.304 1_455 S
C89 O83 1.272 . S
C90 O82 1.311 1_455 S
C90 O84 1.231 . S
O91 Zn73 1.953 . S
O91 C85 1.298 . S
O92 Zn93 1.953 . S
O92 C108 1.225 . S
Zn93 O92 1.953 . S
Zn93 O94 1.949 . S
Zn93 O100 1.919 . S
Zn93 O105 1.924 . S
O94 Zn93 1.949 . S
O94 Zn95 1.923 . S
O94 Zn96 1.950 . S
O94 Zn97 1.945 1_545 S
Zn95 O94 1.923 . S
Zn95 O98 1.933 . S
Zn95 O101 1.941 . S
Zn95 O102 1.965 . S
Zn96 O94 1.950 . S
Zn96 O103 1.938 . S
Zn96 O104 1.906 . S
Zn96 O114 1.953 . S
Zn97 O94 1.945 1_565 S
Zn97 O99 1.932 . S
Zn97 O106 1.977 . S
Zn97 O107 1.910 . S
O98 Zn95 1.933 . S
O98 C109 1.207 1_545 S
O99 Zn97 1.932 . S
O99 C109 1.318 . S
O100 Zn93 1.919 . S
O100 C111 1.253 . S
O101 Zn95 1.941 . S
O101 C111 1.283 . S
O102 Zn95 1.965 . S
O102 C110 1.303 . S
O103 Zn96 1.938 . S
O103 C110 1.247 . S
O104 Zn96 1.906 . S
O104 C112 1.304 1_545 S
O105 Zn93 1.924 . S
O105 C113 1.311 1_545 S
O106 Zn97 1.977 . S
O106 C112 1.272 . S
O107 Zn97 1.910 . S
O107 C113 1.231 . S
C108 O92 1.225 . S
C108 O114 1.298 . S
C109 O98 1.207 1_565 S
C109 O99 1.318 . S
C110 O102 1.303 . S
C110 O103 1.247 . S
C111 O100 1.253 . S
C111 O101 1.283 . S
C112 O104 1.304 1_565 S
C112 O106 1.272 . S
C113 O105 1.311 1_565 S
C113 O107 1.231 . S
O114 Zn96 1.953 . S
O114 C108 1.298 . S
O115 Zn116 1.953 . S
O115 C131 1.225 . S
Zn116 O115 1.953 . S
Zn116 O117 1.949 . S
Zn116 O123 1.919 . S
Zn116 O128 1.924 . S
O117 Zn116 1.949 . S
O117 Zn118 1.923 . S
O117 Zn119 1.950 . S
O117 Zn120 1.945 1_565 S
Zn118 O117 1.923 . S
Zn118 O121 1.933 . S
Zn118 O124 1.941 . S
Zn118 O125 1.965 . S
Zn119 O117 1.950 . S
Zn119 O126 1.938 . S
Zn119 O127 1.906 . S
Zn119 O137 1.953 . S
Zn120 O117 1.945 1_545 S
Zn120 O122 1.932 . S
Zn120 O129 1.977 . S
Zn120 O130 1.910 . S
O121 Zn118 1.933 . S
O121 C132 1.207 1_565 S
O122 Zn120 1.932 . S
O122 C132 1.318 . S
O123 Zn116 1.919 . S
O123 C134 1.253 . S
O124 Zn118 1.941 . S
O124 C134 1.283 . S
O125 Zn118 1.965 . S
O125 C133 1.303 . S
O126 Zn119 1.938 . S
O126 C133 1.247 . S
O127 Zn119 1.906 . S
O127 C135 1.304 1_565 S
O128 Zn116 1.924 . S
O128 C136 1.311 1_565 S
O129 Zn120 1.977 . S
O129 C135 1.272 . S
O130 Zn120 1.910 . S
O130 C136 1.231 . S
C131 O115 1.225 . S
C131 O137 1.298 . S
C132 O121 1.207 1_545 S
C132 O122 1.318 . S
C133 O125 1.303 . S
C133 O126 1.247 . S
C134 O123 1.253 . S
C134 O124 1.283 . S
C135 O127 1.304 1_545 S
C135 O129 1.272 . S
C136 O128 1.311 1_545 S
C136 O130 1.231 . S
O137 Zn119 1.953 . S
O137 C131 1.298 . S
O138 Zn139 1.953 . S
O138 C154 1.225 . S
Zn139 O138 1.953 . S
Zn139 O140 1.949 . S
Zn139 O146 1.919 . S
Zn139 O151 1.924 . S
O140 Zn139 1.949 . S
O140 Zn141 1.923 . S
O140 Zn142 1.950 . S
O140 Zn143 1.945 . S
Zn141 O140 1.923 . S
Zn141 O144 1.933 . S
Zn141 O147 1.941 . S
Zn141 O148 1.965 . S
Zn142 O140 1.950 . S
Zn142 O149 1.938 . S
Zn142 O150 1.906 . S
Zn142 O160 1.953 . S
Zn143 O140 1.945 . S
Zn143 O145 1.932 . S
Zn143 O152 1.977 . S
Zn143 O153 1.910 . S
O144 Zn141 1.933 . S
O144 C155 1.226 . S
O145 Zn143 1.932 . S
O145 C155 1.307 . S
O146 Zn139 1.919 . S
O146 C157 1.253 . S
O147 Zn141 1.941 . S
O147 C157 1.283 . S
O148 Zn141 1.965 . S
O148 C156 1.303 . S
O149 Zn142 1.938 . S
O149 C156 1.247 . S
O150 Zn142 1.906 . S
O150 C158 1.304 . S
O151 Zn139 1.924 . S
O151 C159 1.311 . S
O152 Zn143 1.977 . S
O152 C158 1.272 . S
O153 Zn143 1.910 . S
O153 C159 1.231 . S
C154 O138 1.225 . S
C154 O160 1.298 . S
C155 O144 1.226 . S
C155 O145 1.307 . S
C156 O148 1.303 . S
C156 O149 1.247 . S
C157 O146 1.253 . S
C157 O147 1.283 . S
C158 O150 1.304 . S
C158 O152 1.272 . S
C159 O151 1.311 . S
C159 O153 1.231 . S
O160 Zn142 1.953 . S
O160 C154 1.298 . S
O161 Zn162 1.953 . S
O161 C177 1.225 . S
Zn162 O161 1.953 . S
Zn162 O163 1.949 . S
Zn162 O169 1.919 . S
Zn162 O174 1.924 . S
O163 Zn162 1.949 . S
O163 Zn164 1.923 . S
O163 Zn165 1.950 . S
O163 Zn166 1.945 . S
Zn164 O163 1.923 . S
Zn164 O167 1.933 . S
Zn164 O170 1.941 . S
Zn164 O171 1.965 . S
Zn165 O163 1.950 . S
Zn165 O172 1.938 . S
Zn165 O173 1.906 . S
Zn165 O183 1.953 . S
Zn166 O163 1.945 . S
Zn166 O168 1.932 . S
Zn166 O175 1.977 . S
Zn166 O176 1.910 . S
O167 Zn164 1.933 . S
O167 C178 1.226 . S
O168 Zn166 1.932 . S
O168 C178 1.307 . S
O169 Zn162 1.919 . S
O169 C180 1.253 . S
O170 Zn164 1.941 . S
O170 C180 1.283 . S
O171 Zn164 1.965 . S
O171 C179 1.303 . S
O172 Zn165 1.938 . S
O172 C179 1.247 . S
O173 Zn165 1.906 . S
O173 C181 1.304 . S
O174 Zn162 1.924 . S
O174 C182 1.311 . S
O175 Zn166 1.977 . S
O175 C181 1.272 . S
O176 Zn166 1.910 . S
O176 C182 1.231 . S
C177 O161 1.225 . S
C177 O183 1.298 . S
C178 O167 1.226 . S
C178 O168 1.307 . S
C179 O171 1.303 . S
C179 O172 1.247 . S
C180 O169 1.253 . S
C180 O170 1.283 . S
C181 O173 1.304 . S
C181 O175 1.272 . S
C182 O174 1.311 . S
C182 O176 1.231 . S
O183 Zn165 1.953 . S
O183 C177 1.298 . S
O184 Zn185 1.953 . S
O184 C200 1.225 . S
Zn185 O184 1.953 . S
Zn185 O186 1.949 . S
Zn185 O192 1.919 . S
Zn185 O197 1.924 . S
O186 Zn185 1.949 . S
O186 Zn187 1.923 . S
O186 Zn188 1.950 . S
O186 Zn189 1.945 1_554 S
Zn187 O186 1.923 . S
Zn187 O190 1.933 . S
Zn187 O193 1.941 . S
Zn187 O194 1.965 . S
Zn188 O186 1.950 . S
Zn188 O195 1.938 . S
Zn188 O196 1.906 . S
Zn188 O206 1.953 . S
Zn189 O186 1.945 1_556 S
Zn189 O191 1.932 . S
Zn189 O198 1.977 . S
Zn189 O199 1.910 . S
O190 Zn187 1.933 . S
O190 C201 1.207 1_554 S
O191 Zn189 1.932 . S
O191 C201 1.318 . S
O192 Zn185 1.919 . S
O192 C203 1.253 . S
O193 Zn187 1.941 . S
O193 C203 1.283 . S
O194 Zn187 1.965 . S
O194 C202 1.303 . S
O195 Zn188 1.938 . S
O195 C202 1.247 . S
O196 Zn188 1.906 . S
O196 C204 1.304 1_554 S
O197 Zn185 1.924 . S
O197 C205 1.311 1_554 S
O198 Zn189 1.977 . S
O198 C204 1.272 . S
O199 Zn189 1.910 . S
O199 C205 1.231 . S
C200 O184 1.225 . S
C200 O206 1.298 . S
C201 O190 1.207 1_556 S
C201 O191 1.318 . S
C202 O194 1.303 . S
C202 O195 1.247 . S
C203 O192 1.253 . S
C203 O193 1.283 . S
C204 O196 1.304 1_556 S
C204 O198 1.272 . S
C205 O197 1.311 1_556 S
C205 O199 1.231 . S
O206 Zn188 1.953 . S
O206 C200 1.298 . S
O207 Zn208 1.953 . S
O207 C223 1.225 . S
Zn208 O207 1.953 . S
Zn208 O209 1.949 . S
Zn208 O215 1.919 . S
Zn208 O220 1.924 . S
O209 Zn208 1.949 . S
O209 Zn210 1.923 . S
O209 Zn211 1.950 . S
O209 Zn212 1.945 1_556 S
Zn210 O209 1.923 . S
Zn210 O213 1.933 . S
Zn210 O216 1.941 . S
Zn210 O217 1.965 . S
Zn211 O209 1.950 . S
Zn211 O218 1.938 . S
Zn211 O219 1.906 . S
Zn211 O229 1.953 . S
Zn212 O209 1.945 1_554 S
Zn212 O214 1.932 . S
Zn212 O221 1.977 . S
Zn212 O222 1.910 . S
O213 Zn210 1.933 . S
O213 C224 1.207 1_556 S
O214 Zn212 1.932 . S
O214 C224 1.318 . S
O215 Zn208 1.919 . S
O215 C226 1.253 . S
O216 Zn210 1.941 . S
O216 C226 1.283 . S
O217 Zn210 1.965 . S
O217 C225 1.303 . S
O218 Zn211 1.938 . S
O218 C225 1.247 . S
O219 Zn211 1.906 . S
O219 C227 1.304 1_556 S
O220 Zn208 1.924 . S
O220 C228 1.311 1_556 S
O221 Zn212 1.977 . S
O221 C227 1.272 . S
O222 Zn212 1.910 . S
O222 C228 1.231 . S
C223 O207 1.225 . S
C223 O229 1.298 . S
C224 O213 1.207 1_554 S
C224 O214 1.318 . S
C225 O217 1.303 . S
C225 O218 1.247 . S
C226 O215 1.253 . S
C226 O216 1.283 . S
C227 O219 1.304 1_554 S
C227 O221 1.272 . S
C228 O220 1.311 1_554 S
C228 O222 1.231 . S
O229 Zn211 1.953 . S
O229 C223 1.298 . S
O230 Zn231 1.953 . S
O230 C246 1.225 . S
Zn231 O230 1.953 . S
Zn231 O232 1.949 . S
Zn231 O238 1.919 . S
Zn231 O243 1.924 . S
O232 Zn231 1.949 . S
O232 Zn233 1.923 . S
O232 Zn234 1.950 . S
O232 Zn235 1.945 . S
Zn233 O232 1.923 . S
Zn233 O236 1.933 . S
Zn233 O239 1.941 . S
Zn233 O240 1.965 . S
Zn234 O232 1.950 . S
Zn234 O241 1.938 . S
Zn234 O242 1.906 . S
Zn234 O252 1.953 . S
Zn235 O232 1.945 . S
Zn235 O237 1.932 . S
Zn235 O244 1.977 . S
Zn235 O245 1.910 . S
O236 Zn233 1.933 . S
O236 C247 1.226 . S
O237 Zn235 1.932 . S
O237 C247 1.307 . S
O238 Zn231 1.919 . S
O238 C249 1.253 . S
O239 Zn233 1.941 . S
O239 C249 1.283 . S
O240 Zn233 1.965 . S
O240 C248 1.303 . S
O241 Zn234 1.938 . S
O241 C248 1.247 . S
O242 Zn234 1.906 . S
O242 C250 1.304 . S
O243 Zn231 1.924 . S
O243 C251 1.311 . S
O244 Zn235 1.977 . S
O244 C250 1.272 . S
O245 Zn235 1.910 . S
O245 C251 1.231 . S
C246 O230 1.225 . S
C246 O252 1.298 . S
C247 O236 1.226 . S
C247 O237 1.307 . S
C248 O240 1.303 . S
C248 O241 1.247 . S
C249 O238 1.253 . S
C249 O239 1.283 . S
C250 O242 1.304 . S
C250 O244 1.272 . S
C251 O243 1.311 . S
C251 O245 1.231 . S
O252 Zn234 1.953 . S
O252 C246 1.298 . S
O253 Zn254 1.953 . S
O253 C269 1.225 . S
Zn254 O253 1.953 . S
Zn254 O255 1.949 . S
Zn254 O261 1.919 . S
Zn254 O266 1.924 . S
O255 Zn254 1.949 . S
O255 Zn256 1.923 . S
O255 Zn257 1.950 . S
O255 Zn258 1.945 . S
Zn256 O255 1.923 . S
Zn256 O259 1.933 . S
Zn256 O262 1.941 . S
Zn256 O263 1.965 . S
Zn257 O255 1.950 . S
Zn257 O264 1.938 . S
Zn257 O265 1.906 . S
Zn257 O275 1.953 . S
Zn258 O255 1.945 . S
Zn258 O260 1.932 . S
Zn258 O267 1.977 . S
Zn258 O268 1.910 . S
O259 Zn256 1.933 . S
O259 C270 1.226 . S
O260 Zn258 1.932 . S
O260 C270 1.307 . S
O261 Zn254 1.919 . S
O261 C272 1.253 . S
O262 Zn256 1.941 . S
O262 C272 1.283 . S
O263 Zn256 1.965 . S
O263 C271 1.303 . S
O264 Zn257 1.938 . S
O264 C271 1.247 . S
O265 Zn257 1.906 . S
O265 C273 1.304 . S
O266 Zn254 1.924 . S
O266 C274 1.311 . S
O267 Zn258 1.977 . S
O267 C273 1.272 . S
O268 Zn258 1.910 . S
O268 C274 1.231 . S
C269 O253 1.225 . S
C269 O275 1.298 . S
C270 O259 1.226 . S
C270 O260 1.307 . S
C271 O263 1.303 . S
C271 O264 1.247 . S
C272 O261 1.253 . S
C272 O262 1.283 . S
C273 O265 1.304 . S
C273 O267 1.272 . S
C274 O266 1.311 . S
C274 O268 1.231 . S
O275 Zn257 1.953 . S
O275 C269 1.298 . S
O276 Zn277 1.953 . S
O276 C292 1.225 . S
Zn277 O276 1.953 . S
Zn277 O278 1.949 . S
Zn277 O284 1.919 . S
Zn277 O289 1.924 . S
O278 Zn277 1.949 . S
O278 Zn279 1.923 . S
O278 Zn280 1.950 . S
O278 Zn281 1.945 1_655 S
Zn279 O278 1.923 . S
Zn279 O282 1.933 . S
Zn279 O285 1.941 . S
Zn279 O286 1.965 . S
Zn280 O278 1.950 . S
Zn280 O287 1.938 . S
Zn280 O288 1.906 . S
Zn280 O298 1.953 . S
Zn281 O278 1.945 1_455 S
Zn281 O283 1.932 . S
Zn281 O290 1.977 . S
Zn281 O291 1.910 . S
O282 Zn279 1.933 . S
O282 C293 1.207 1_655 S
O283 Zn281 1.932 . S
O283 C293 1.318 . S
O284 Zn277 1.919 . S
O284 C295 1.253 . S
O285 Zn279 1.941 . S
O285 C295 1.283 . S
O286 Zn279 1.965 . S
O286 C294 1.303 . S
O287 Zn280 1.938 . S
O287 C294 1.247 . S
O288 Zn280 1.906 . S
O288 C296 1.304 1_655 S
O289 Zn277 1.924 . S
O289 C297 1.311 1_655 S
O290 Zn281 1.977 . S
O290 C296 1.272 . S
O291 Zn281 1.910 . S
O291 C297 1.231 . S
C292 O276 1.225 . S
C292 O298 1.298 . S
C293 O282 1.207 1_455 S
C293 O283 1.318 . S
C294 O286 1.303 . S
C294 O287 1.247 . S
C295 O284 1.253 . S
C295 O285 1.283 . S
C296 O288 1.304 1_455 S
C296 O290 1.272 . S
C297 O289 1.311 1_455 S
C297 O291 1.231 . S
O298 Zn280 1.953 . S
O298 C292 1.298 . S
O299 Zn300 1.953 . S
O299 C315 1.225 . S
Zn300 O299 1.953 . S
Zn300 O301 1.949 . S
Zn300 O307 1.919 . S
Zn300 O312 1.924 . S
O301 Zn300 1.949 . S
O301 Zn302 1.923 . S
O301 Zn303 1.950 . S
O301 Zn304 1.945 . S
Zn302 O301 1.923 . S
Zn302 O305 1.933 . S
Zn302 O308 1.941 . S
Zn302 O309 1.965 . S
Zn303 O301 1.950 . S
Zn303 O310 1.938 . S
Zn303 O311 1.906 . S
Zn303 O321 1.953 . S
Zn304 O301 1.945 . S
Zn304 O306 1.932 . S
Zn304 O313 1.977 . S
Zn304 O314 1.910 . S
O305 Zn302 1.933 . S
O305 C316 1.226 . S
O306 Zn304 1.932 . S
O306 C316 1.307 . S
O307 Zn300 1.919 . S
O307 C318 1.253 . S
O308 Zn302 1.941 . S
O308 C318 1.283 . S
O309 Zn302 1.965 . S
O309 C317 1.303 . S
O310 Zn303 1.938 . S
O310 C317 1.247 . S
O311 Zn303 1.906 . S
O311 C319 1.304 . S
O312 Zn300 1.924 . S
O312 C320 1.311 . S
O313 Zn304 1.977 . S
O313 C319 1.272 . S
O314 Zn304 1.910 . S
O314 C320 1.231 . S
C315 O299 1.225 . S
C315 O321 1.298 . S
C316 O305 1.226 . S
C316 O306 1.307 . S
C317 O309 1.303 . S
C317 O310 1.247 . S
C318 O307 1.253 . S
C318 O308 1.283 . S
C319 O311 1.304 . S
C319 O313 1.272 . S
C320 O312 1.311 . S
C320 O314 1.231 . S
O321 Zn303 1.953 . S
O321 C315 1.298 . S
O322 Zn323 1.953 . S
O322 C338 1.225 . S
Zn323 O322 1.953 . S
Zn323 O324 1.949 . S
Zn323 O330 1.919 . S
Zn323 O335 1.924 . S
O324 Zn323 1.949 . S
O324 Zn325 1.923 . S
O324 Zn326 1.950 . S
O324 Zn327 1.945 . S
Zn325 O324 1.923 . S
Zn325 O328 1.933 . S
Zn325 O331 1.941 . S
Zn325 O332 1.965 . S
Zn326 O324 1.950 . S
Zn326 O333 1.938 . S
Zn326 O334 1.906 . S
Zn326 O344 1.953 . S
Zn327 O324 1.945 . S
Zn327 O329 1.932 . S
Zn327 O336 1.977 . S
Zn327 O337 1.910 . S
O328 Zn325 1.933 . S
O328 C339 1.226 . S
O329 Zn327 1.932 . S
O329 C339 1.307 . S
O330 Zn323 1.919 . S
O330 C341 1.253 . S
O331 Zn325 1.941 . S
O331 C341 1.283 . S
O332 Zn325 1.965 . S
O332 C340 1.303 . S
O333 Zn326 1.938 . S
O333 C340 1.247 . S
O334 Zn326 1.906 . S
O334 C342 1.304 . S
O335 Zn323 1.924 . S
O335 C343 1.311 . S
O336 Zn327 1.977 . S
O336 C342 1.272 . S
O337 Zn327 1.910 . S
O337 C343 1.231 . S
C338 O322 1.225 . S
C338 O344 1.298 . S
C339 O328 1.226 . S
C339 O329 1.307 . S
C340 O332 1.303 . S
C340 O333 1.247 . S
C341 O330 1.253 . S
C341 O331 1.283 . S
C342 O334 1.304 . S
C342 O336 1.272 . S
C343 O335 1.311 . S
C343 O337 1.231 . S
O344 Zn326 1.953 . S
O344 C338 1.298 . S
O345 Zn346 1.953 . S
O345 C361 1.225 . S
Zn346 O345 1.953 . S
Zn346 O347 1.949 . S
Zn346 O353 1.919 . S
Zn346 O358 1.924 . S
O347 Zn346 1.949 . S
O347 Zn348 1.923 . S
O347 Zn349 1.950 . S
O347 Zn350 1.945 1_455 S
Zn348 O347 1.923 . S
Zn348 O351 1.933 . S
Zn348 O354 1.941 . S
Zn348 O355 1.965 . S
Zn349 O347 1.950 . S
Zn349 O356 1.938 . S
Zn349 O357 1.906 . S
Zn349 O367 1.953 . S
Zn350 O347 1.945 1_655 S
Zn350 O352 1.932 . S
Zn350 O359 1.977 . S
Zn350 O360 1.910 . S
O351 Zn348 1.933 . S
O351 C362 1.207 1_455 S
O352 Zn350 1.932 . S
O352 C362 1.318 . S
O353 Zn346 1.919 . S
O353 C364 1.253 . S
O354 Zn348 1.941 . S
O354 C364 1.283 . S
O355 Zn348 1.965 . S
O355 C363 1.303 . S
O356 Zn349 1.938 . S
O356 C363 1.247 . S
O357 Zn349 1.906 . S
O357 C365 1.304 1_455 S
O358 Zn346 1.924 . S
O358 C366 1.311 1_455 S
O359 Zn350 1.977 . S
O359 C365 1.272 . S
O360 Zn350 1.910 . S
O360 C366 1.231 . S
C361 O345 1.225 . S
C361 O367 1.298 . S
C362 O351 1.207 1_655 S
C362 O352 1.318 . S
C363 O355 1.303 . S
C363 O356 1.247 . S
C364 O353 1.253 . S
C364 O354 1.283 . S
C365 O357 1.304 1_655 S
C365 O359 1.272 . S
C366 O358 1.311 1_655 S
C366 O360 1.231 . S
O367 Zn349 1.953 . S
O367 C361 1.298 . S
O368 Zn369 1.953 . S
O368 C384 1.225 . S
Zn369 O368 1.953 . S
Zn369 O370 1.949 . S
Zn369 O376 1.919 . S
Zn369 O381 1.924 . S
O370 Zn369 1.949 . S
O370 Zn371 1.923 . S
O370 Zn372 1.950 . S
O370 Zn373 1.945 1_565 S
Zn371 O370 1.923 . S
Zn371 O374 1.933 . S
Zn371 O377 1.941 . S
Zn371 O378 1.965 . S
Zn372 O370 1.950 . S
Zn372 O379 1.938 . S
Zn372 O380 1.906 . S
Zn372 O390 1.953 . S
Zn373 O370 1.945 1_545 S
Zn373 O375 1.932 . S
Zn373 O382 1.977 . S
Zn373 O383 1.910 . S
O374 Zn371 1.933 . S
O374 C385 1.207 1_565 S
O375 Zn373 1.932 . S
O375 C385 1.318 . S
O376 Zn369 1.919 . S
O376 C387 1.253 . S
O377 Zn371 1.941 . S
O377 C387 1.283 . S
O378 Zn371 1.965 . S
O378 C386 1.303 . S
O379 Zn372 1.938 . S
O379 C386 1.247 . S
O380 Zn372 1.906 . S
O380 C388 1.304 1_565 S
O381 Zn369 1.924 . S
O381 C389 1.311 1_565 S
O382 Zn373 1.977 . S
O382 C388 1.272 . S
O383 Zn373 1.910 . S
O383 C389 1.231 . S
C384 O368 1.225 . S
C384 O390 1.298 . S
C385 O374 1.207 1_545 S
C385 O375 1.318 . S
C386 O378 1.303 . S
C386 O379 1.247 . S
C387 O376 1.253 . S
C387 O377 1.283 . S
C388 O380 1.304 1_545 S
C388 O382 1.272 . S
C389 O381 1.311 1_545 S
C389 O383 1.231 . S
O390 Zn372 1.953 . S
O390 C384 1.298 . S
O391 Zn392 1.953 . S
O391 C407 1.225 . S
Zn392 O391 1.953 . S
Zn392 O393 1.949 . S
Zn392 O399 1.919 . S
Zn392 O404 1.924 . S
O393 Zn392 1.949 . S
O393 Zn394 1.923 . S
O393 Zn395 1.950 . S
O393 Zn396 1.945 1_545 S
Zn394 O393 1.923 . S
Zn394 O397 1.933 . S
Zn394 O400 1.941 . S
Zn394 O401 1.965 . S
Zn395 O393 1.950 . S
Zn395 O402 1.938 . S
Zn395 O403 1.906 . S
Zn395 O413 1.953 . S
Zn396 O393 1.945 1_565 S
Zn396 O398 1.932 . S
Zn396 O405 1.977 . S
Zn396 O406 1.910 . S
O397 Zn394 1.933 . S
O397 C408 1.207 1_545 S
O398 Zn396 1.932 . S
O398 C408 1.318 . S
O399 Zn392 1.919 . S
O399 C410 1.253 . S
O400 Zn394 1.941 . S
O400 C410 1.283 . S
O401 Zn394 1.965 . S
O401 C409 1.303 . S
O402 Zn395 1.938 . S
O402 C409 1.247 . S
O403 Zn395 1.906 . S
O403 C411 1.304 1_545 S
O404 Zn392 1.924 . S
O404 C412 1.311 1_545 S
O405 Zn396 1.977 . S
O405 C411 1.272 . S
O406 Zn396 1.910 . S
O406 C412 1.231 . S
C407 O391 1.225 . S
C407 O413 1.298 . S
C408 O397 1.207 1_565 S
C408 O398 1.318 . S
C409 O401 1.303 . S
C409 O402 1.247 . S
C410 O399 1.253 . S
C410 O400 1.283 . S
C411 O403 1.304 1_565 S
C411 O405 1.272 . S
C412 O404 1.311 1_565 S
C412 O406 1.231 . S
O413 Zn395 1.953 . S
O413 C407 1.298 . S
O414 Zn415 1.953 . S
O414 C430 1.225 . S
Zn415 O414 1.953 . S
Zn415 O416 1.949 . S
Zn415 O422 1.919 . S
Zn415 O427 1.924 . S
O416 Zn415 1.949 . S
O416 Zn417 1.923 . S
O416 Zn418 1.950 . S
O416 Zn419 1.945 . S
Zn417 O416 1.923 . S
Zn417 O420 1.933 . S
Zn417 O423 1.941 . S
Zn417 O424 1.965 . S
Zn418 O416 1.950 . S
Zn418 O425 1.938 . S
Zn418 O426 1.906 . S
Zn418 O436 1.953 . S
Zn419 O416 1.945 . S
Zn419 O421 1.932 . S
Zn419 O428 1.977 . S
Zn419 O429 1.910 . S
O420 Zn417 1.933 . S
O420 C431 1.226 . S
O421 Zn419 1.932 . S
O421 C431 1.307 . S
O422 Zn415 1.919 . S
O422 C433 1.253 . S
O423 Zn417 1.941 . S
O423 C433 1.283 . S
O424 Zn417 1.965 . S
O424 C432 1.303 . S
O425 Zn418 1.938 . S
O425 C432 1.247 . S
O426 Zn418 1.906 . S
O426 C434 1.304 . S
O427 Zn415 1.924 . S
O427 C435 1.311 . S
O428 Zn419 1.977 . S
O428 C434 1.272 . S
O429 Zn419 1.910 . S
O429 C435 1.231 . S
C430 O414 1.225 . S
C430 O436 1.298 . S
C431 O420 1.226 . S
C431 O421 1.307 . S
C432 O424 1.303 . S
C432 O425 1.247 . S
C433 O422 1.253 . S
C433 O423 1.283 . S
C434 O426 1.304 . S
C434 O428 1.272 . S
C435 O427 1.311 . S
C435 O429 1.231 . S
O436 Zn418 1.953 . S
O436 C430 1.298 . S
O437 Zn438 1.953 . S
O437 C453 1.225 . S
Zn438 O437 1.953 . S
Zn438 O439 1.949 . S
Zn438 O445 1.919 . S
Zn438 O450 1.924 . S
O439 Zn438 1.949 . S
O439 Zn440 1.923 . S
O439 Zn441 1.950 . S
O439 Zn442 1.945 . S
Zn440 O439 1.923 . S
Zn440 O443 1.933 . S
Zn440 O446 1.941 . S
Zn440 O447 1.965 . S
Zn441 O439 1.950 . S
Zn441 O448 1.938 . S
Zn441 O449 1.906 . S
Zn441 O459 1.953 . S
Zn442 O439 1.945 . S
Zn442 O444 1.932 . S
Zn442 O451 1.977 . S
Zn442 O452 1.910 . S
O443 Zn440 1.933 . S
O443 C454 1.226 . S
O444 Zn442 1.932 . S
O444 C454 1.307 . S
O445 Zn438 1.919 . S
O445 C456 1.253 . S
O446 Zn440 1.941 . S
O446 C456 1.283 . S
O447 Zn440 1.965 . S
O447 C455 1.303 . S
O448 Zn441 1.938 . S
O448 C455 1.247 . S
O449 Zn441 1.906 . S
O449 C457 1.304 . S
O450 Zn438 1.924 . S
O450 C458 1.311 . S
O451 Zn442 1.977 . S
O451 C457 1.272 . S
O452 Zn442 1.910 . S
O452 C458 1.231 . S
C453 O437 1.225 . S
C453 O459 1.298 . S
C454 O443 1.226 . S
C454 O444 1.307 . S
C455 O447 1.303 . S
C455 O448 1.247 . S
C456 O445 1.253 . S
C456 O446 1.283 . S
C457 O449 1.304 . S
C457 O451 1.272 . S
C458 O450 1.311 . S
C458 O452 1.231 . S
O459 Zn441 1.953 . S
O459 C453 1.298 . S
O460 Zn461 1.953 . S
O460 C476 1.225 . S
Zn461 O460 1.953 . S
Zn461 O462 1.949 . S
Zn461 O468 1.919 . S
Zn461 O473 1.924 . S
O462 Zn461 1.949 . S
O462 Zn463 1.923 . S
O462 Zn464 1.950 . S
O462 Zn465 1.945 1_556 S
Zn463 O462 1.923 . S
Zn463 O466 1.933 . S
Zn463 O469 1.941 . S
Zn463 O470 1.965 . S
Zn464 O462 1.950 . S
Zn464 O471 1.938 . S
Zn464 O472 1.906 . S
Zn464 O482 1.953 . S
Zn465 O462 1.945 1_554 S
Zn465 O467 1.932 . S
Zn465 O474 1.977 . S
Zn465 O475 1.910 . S
O466 Zn463 1.933 . S
O466 C477 1.207 1_556 S
O467 Zn465 1.932 . S
O467 C477 1.318 . S
O468 Zn461 1.919 . S
O468 C479 1.253 . S
O469 Zn463 1.941 . S
O469 C479 1.283 . S
O470 Zn463 1.965 . S
O470 C478 1.303 . S
O471 Zn464 1.938 . S
O471 C478 1.247 . S
O472 Zn464 1.906 . S
O472 C480 1.304 1_556 S
O473 Zn461 1.924 . S
O473 C481 1.311 1_556 S
O474 Zn465 1.977 . S
O474 C480 1.272 . S
O475 Zn465 1.910 . S
O475 C481 1.231 . S
C476 O460 1.225 . S
C476 O482 1.298 . S
C477 O466 1.207 1_554 S
C477 O467 1.318 . S
C478 O470 1.303 . S
C478 O471 1.247 . S
C479 O468 1.253 . S
C479 O469 1.283 . S
C480 O472 1.304 1_554 S
C480 O474 1.272 . S
C481 O473 1.311 1_554 S
C481 O475 1.231 . S
O482 Zn464 1.953 . S
O482 C476 1.298 . S
O483 Zn484 1.953 . S
O483 C499 1.225 . S
Zn484 O483 1.953 . S
Zn484 O485 1.949 . S
Zn484 O491 1.919 . S
Zn484 O496 1.924 . S
O485 Zn484 1.949 . S
O485 Zn486 1.923 . S
O485 Zn487 1.950 . S
O485 Zn488 1.945 1_554 S
Zn486 O485 1.923 . S
Zn486 O489 1.933 . S
Zn486 O492 1.941 . S
Zn486 O493 1.965 . S
Zn487 O485 1.950 . S
Zn487 O494 1.938 . S
Zn487 O495 1.906 . S
Zn487 O505 1.953 . S
Zn488 O485 1.945 1_556 S
Zn488 O490 1.932 . S
Zn488 O497 1.977 . S
Zn488 O498 1.910 . S
O489 Zn486 1.933 . S
O489 C500 1.207 1_554 S
O490 Zn488 1.932 . S
O490 C500 1.318 . S
O491 Zn484 1.919 . S
O491 C502 1.253 . S
O492 Zn486 1.941 . S
O492 C502 1.283 . S
O493 Zn486 1.965 . S
O493 C501 1.303 . S
O494 Zn487 1.938 . S
O494 C501 1.247 . S
O495 Zn487 1.906 . S
O495 C503 1.304 1_554 S
O496 Zn484 1.924 . S
O496 C504 1.311 1_554 S
O497 Zn488 1.977 . S
O497 C503 1.272 . S
O498 Zn488 1.910 . S
O498 C504 1.231 . S
C499 O483 1.225 . S
C499 O505 1.298 . S
C500 O489 1.207 1_556 S
C500 O490 1.318 . S
C501 O493 1.303 . S
C501 O494 1.247 . S
C502 O491 1.253 . S
C502 O492 1.283 . S
C503 O495 1.304 1_556 S
C503 O497 1.272 . S
C504 O496 1.311 1_556 S
C504 O498 1.231 . S
O505 Zn487 1.953 . S
O505 C499 1.298 . S
O506 Zn507 1.953 . S
O506 C522 1.225 . S
Zn507 O506 1.953 . S
Zn507 O508 1.949 . S
Zn507 O514 1.919 . S
Zn507 O519 1.924 . S
O508 Zn507 1.949 . S
O508 Zn509 1.923 . S
O508 Zn510 1.950 . S
O508 Zn511 1.945 . S
Zn509 O508 1.923 . S
Zn509 O512 1.933 . S
Zn509 O515 1.941 . S
Zn509 O516 1.965 . S
Zn510 O508 1.950 . S
Zn510 O517 1.938 . S
Zn510 O518 1.906 . S
Zn510 O528 1.953 . S
Zn511 O508 1.945 . S
Zn511 O513 1.932 . S
Zn511 O520 1.977 . S
Zn511 O521 1.910 . S
O512 Zn509 1.933 . S
O512 C523 1.226 . S
O513 Zn511 1.932 . S
O513 C523 1.307 . S
O514 Zn507 1.919 . S
O514 C525 1.253 . S
O515 Zn509 1.941 . S
O515 C525 1.283 . S
O516 Zn509 1.965 . S
O516 C524 1.303 . S
O517 Zn510 1.938 . S
O517 C524 1.247 . S
O518 Zn510 1.906 . S
O518 C526 1.304 . S
O519 Zn507 1.924 . S
O519 C527 1.311 . S
O520 Zn511 1.977 . S
O520 C526 1.272 . S
O521 Zn511 1.910 . S
O521 C527 1.231 . S
C522 O506 1.225 . S
C522 O528 1.298 . S
C523 O512 1.226 . S
C523 O513 1.307 . S
C524 O516 1.303 . S
C524 O517 1.247 . S
C525 O514 1.253 . S
C525 O515 1.283 . S
C526 O518 1.304 . S
C526 O520 1.272 . S
C527 O519 1.311 . S
C527 O521 1.231 . S
O528 Zn510 1.953 . S
O528 C522 1.298 . S
O529 Zn530 1.953 . S
O529 C545 1.225 . S
Zn530 O529 1.953 . S
Zn530 O531 1.949 . S
Zn530 O537 1.919 . S
Zn530 O542 1.924 . S
O531 Zn530 1.949 . S
O531 Zn532 1.923 . S
O531 Zn533 1.950 . S
O531 Zn534 1.945 . S
Zn532 O531 1.923 . S
Zn532 O535 1.933 . S
Zn532 O538 1.941 . S
Zn532 O539 1.965 . S
Zn533 O531 1.950 . S
Zn533 O540 1.938 . S
Zn533 O541 1.906 . S
Zn533 O551 1.953 . S
Zn534 O531 1.945 . S
Zn534 O536 1.932 . S
Zn534 O543 1.977 . S
Zn534 O544 1.910 . S
O535 Zn532 1.933 . S
O535 C546 1.226 . S
O536 Zn534 1.932 . S
O536 C546 1.307 . S
O537 Zn530 1.919 . S
O537 C548 1.253 . S
O538 Zn532 1.941 . S
O538 C548 1.283 . S
O539 Zn532 1.965 . S
O539 C547 1.303 . S
O540 Zn533 1.938 . S
O540 C547 1.247 . S
O541 Zn533 1.906 . S
O541 C549 1.304 . S
O542 Zn530 1.924 . S
O542 C550 1.311 . S
O543 Zn534 1.977 . S
O543 C549 1.272 . S
O544 Zn534 1.910 . S
O544 C550 1.231 . S
C545 O529 1.225 . S
C545 O551 1.298 . S
C546 O535 1.226 . S
C546 O536 1.307 . S
C547 O539 1.303 . S
C547 O540 1.247 . S
C548 O537 1.253 . S
C548 O538 1.283 . S
C549 O541 1.304 . S
C549 O543 1.272 . S
C550 O542 1.311 . S
C550 O544 1.231 . S
O551 Zn533 1.953 . S
O551 C545 1.298 . S
C552 C553 1.369 . S
C552 C554 1.419 . S
C552 H556 0.930 . S
C553 C552 1.369 . S
C553 C562 1.429 . S
C554 C552 1.419 . S
C554 C555 1.363 . S
C554 H557 0.929 . S
C555 C554 1.363 . S
C555 C561 1.428 . S
H556 C552 0.930 . S
H557 C554 0.929 . S
S558 N559 1.613 . S
S558 N560 1.610 . S
N559 S558 1.613 . S
N559 C562 1.350 . S
N560 S558 1.610 . S
N560 C561 1.351 . S
C561 C555 1.428 . S
C561 N560 1.351 . S
C561 C562 1.434 . S
C562 C553 1.429 . S
C562 N559 1.350 . S
C562 C561 1.434 . S
C563 C564 1.369 . S
C563 C565 1.419 . S
C563 H567 0.930 . S
C564 C563 1.369 . S
C564 C573 1.429 . S
C565 C563 1.419 . S
C565 C566 1.363 . S
C565 H568 0.929 . S
C566 C565 1.363 . S
C566 C572 1.428 . S
H567 C563 0.930 . S
H568 C565 0.929 . S
S569 N570 1.613 . S
S569 N571 1.610 . S
N570 S569 1.613 . S
N570 C573 1.350 . S
N571 S569 1.610 . S
N571 C572 1.351 . S
C572 C566 1.428 . S
C572 N571 1.351 . S
C572 C573 1.434 . S
C573 C564 1.429 . S
C573 N570 1.350 . S
C573 C572 1.434 . S
C574 C575 1.369 . S
C574 C576 1.419 . S
C574 H578 0.930 . S
C575 C574 1.369 . S
C575 C584 1.429 . S
C576 C574 1.419 . S
C576 C577 1.363 . S
C576 H579 0.929 . S
C577 C576 1.363 . S
C577 C583 1.428 . S
H578 C574 0.930 . S
H579 C576 0.929 . S
S580 N581 1.613 . S
S580 N582 1.610 . S
N581 S580 1.613 . S
N581 C584 1.350 . S
N582 S580 1.610 . S
N582 C583 1.351 . S
C583 C577 1.428 . S
C583 N582 1.351 . S
C583 C584 1.434 . S
C584 C575 1.429 . S
C584 N581 1.350 . S
C584 C583 1.434 . S
C585 C586 1.369 . S
C585 C587 1.419 . S
C585 H589 0.930 . S
C586 C585 1.369 . S
C586 C595 1.429 . S
C587 C585 1.419 . S
C587 C588 1.363 . S
C587 H590 0.929 . S
C588 C587 1.363 . S
C588 C594 1.428 . S
H589 C585 0.930 . S
H590 C587 0.929 . S
S591 N592 1.613 . S
S591 N593 1.610 . S
N592 S591 1.613 . S
N592 C595 1.350 . S
N593 S591 1.610 . S
N593 C594 1.351 . S
C594 C588 1.428 . S
C594 N593 1.351 . S
C594 C595 1.434 . S
C595 C586 1.429 . S
C595 N592 1.350 . S
C595 C594 1.434 . S
C596 C597 1.369 . S
C596 C598 1.419 . S
C596 H600 0.930 . S
C597 C596 1.369 . S
C597 C606 1.429 . S
C598 C596 1.419 . S
C598 C599 1.363 . S
C598 H601 0.929 . S
C599 C598 1.363 . S
C599 C605 1.428 . S
H600 C596 0.930 . S
H601 C598 0.929 . S
S602 N603 1.613 . S
S602 N604 1.610 . S
N603 S602 1.613 . S
N603 C606 1.350 . S
N604 S602 1.610 . S
N604 C605 1.351 . S
C605 C599 1.428 . S
C605 N604 1.351 . S
C605 C606 1.434 . S
C606 C597 1.429 . S
C606 N603 1.350 . S
C606 C605 1.434 . S
C607 C608 1.369 . S
C607 C609 1.419 . S
C607 H611 0.930 . S
C608 C607 1.369 . S
C608 C617 1.429 . S
C609 C607 1.419 . S
C609 C610 1.363 . S
C609 H612 0.929 . S
C610 C609 1.363 . S
C610 C616 1.428 . S
H611 C607 0.930 . S
H612 C609 0.929 . S
S613 N614 1.613 . S
S613 N615 1.610 . S
N614 S613 1.613 . S
N614 C617 1.350 . S
N615 S613 1.610 . S
N615 C616 1.351 . S
C616 C610 1.428 . S
C616 N615 1.351 . S
C616 C617 1.434 . S
C617 C608 1.429 . S
C617 N614 1.350 . S
C617 C616 1.434 . S
C618 C619 1.369 . S
C618 C620 1.419 . S
C618 H622 0.930 . S
C619 C618 1.369 . S
C619 C628 1.429 . S
C620 C618 1.419 . S
C620 C621 1.363 . S
C620 H623 0.929 . S
C621 C620 1.363 . S
C621 C627 1.428 . S
H622 C618 0.930 . S
H623 C620 0.929 . S
S624 N625 1.613 . S
S624 N626 1.610 . S
N625 S624 1.613 . S
N625 C628 1.350 . S
N626 S624 1.610 . S
N626 C627 1.351 . S
C627 C621 1.428 . S
C627 N626 1.351 . S
C627 C628 1.434 . S
C628 C619 1.429 . S
C628 N625 1.350 . S
C628 C627 1.434 . S
C629 C630 1.369 . S
C629 C631 1.419 . S
C629 H633 0.930 . S
C630 C629 1.369 . S
C630 C639 1.429 . S
C631 C629 1.419 . S
C631 C632 1.363 . S
C631 H634 0.929 . S
C632 C631 1.363 . S
C632 C638 1.428 . S
H633 C629 0.930 . S
H634 C631 0.929 . S
S635 N636 1.613 . S
S635 N637 1.610 . S
N636 S635 1.613 . S
N636 C639 1.350 . S
N637 S635 1.610 . S
N637 C638 1.351 . S
C638 C632 1.428 . S
C638 N637 1.351 . S
C638 C639 1.434 . S
C639 C630 1.429 . S
C639 N636 1.350 . S
C639 C638 1.434 . S
C640 C641 1.369 . S
C640 C642 1.419 . S
C640 H644 0.930 . S
C641 C640 1.369 . S
C641 C650 1.429 . S
C642 C640 1.419 . S
C642 C643 1.363 . S
C642 H645 0.929 . S
C643 C642 1.363 . S
C643 C649 1.428 . S
H644 C640 0.930 . S
H645 C642 0.929 . S
S646 N647 1.613 . S
S646 N648 1.610 . S
N647 S646 1.613 . S
N647 C650 1.350 . S
N648 S646 1.610 . S
N648 C649 1.351 . S
C649 C643 1.428 . S
C649 N648 1.351 . S
C649 C650 1.434 . S
C650 C641 1.429 . S
C650 N647 1.350 . S
C650 C649 1.434 . S
C651 C652 1.369 . S
C651 C653 1.419 . S
C651 H655 0.930 . S
C652 C651 1.369 . S
C652 C661 1.429 . S
C653 C651 1.419 . S
C653 C654 1.363 . S
C653 H656 0.929 . S
C654 C653 1.363 . S
C654 C660 1.428 . S
H655 C651 0.930 . S
H656 C653 0.929 . S
S657 N658 1.613 . S
S657 N659 1.610 . S
N658 S657 1.613 . S
N658 C661 1.350 . S
N659 S657 1.610 . S
N659 C660 1.351 . S
C660 C654 1.428 . S
C660 N659 1.351 . S
C660 C661 1.434 . S
C661 C652 1.429 . S
C661 N658 1.350 . S
C661 C660 1.434 . S
C662 C663 1.369 . S
C662 C664 1.419 . S
C662 H666 0.930 . S
C663 C662 1.369 . S
C663 C672 1.429 . S
C664 C662 1.419 . S
C664 C665 1.363 . S
C664 H667 0.929 . S
C665 C664 1.363 . S
C665 C671 1.428 . S
H666 C662 0.930 . S
H667 C664 0.929 . S
S668 N669 1.613 . S
S668 N670 1.610 . S
N669 S668 1.613 . S
N669 C672 1.350 . S
N670 S668 1.610 . S
N670 C671 1.351 . S
C671 C665 1.428 . S
C671 N670 1.351 . S
C671 C672 1.434 . S
C672 C663 1.429 . S
C672 N669 1.350 . S
C672 C671 1.434 . S
C673 C674 1.369 . S
C673 C675 1.419 . S
C673 H677 0.930 . S
C674 C673 1.369 . S
C674 C683 1.429 . S
C675 C673 1.419 . S
C675 C676 1.363 . S
C675 H678 0.929 . S
C676 C675 1.363 . S
C676 C682 1.428 . S
H677 C673 0.930 . S
H678 C675 0.929 . S
S679 N680 1.613 . S
S679 N681 1.610 . S
N680 S679 1.613 . S
N680 C683 1.350 . S
N681 S679 1.610 . S
N681 C682 1.351 . S
C682 C676 1.428 . S
C682 N681 1.351 . S
C682 C683 1.434 . S
C683 C674 1.429 . S
C683 N680 1.350 . S
C683 C682 1.434 . S
C684 C685 1.369 . S
C684 C686 1.419 . S
C684 H688 0.930 . S
C685 C684 1.369 . S
C685 C694 1.429 . S
C686 C684 1.419 . S
C686 C687 1.363 . S
C686 H689 0.929 . S
C687 C686 1.363 . S
C687 C693 1.428 . S
H688 C684 0.930 . S
H689 C686 0.929 . S
S690 N691 1.613 . S
S690 N692 1.610 . S
N691 S690 1.613 . S
N691 C694 1.350 . S
N692 S690 1.610 . S
N692 C693 1.351 . S
C693 C687 1.428 . S
C693 N692 1.351 . S
C693 C694 1.434 . S
C694 C685 1.429 . S
C694 N691 1.350 . S
C694 C693 1.434 . S
C695 C696 1.369 . S
C695 C697 1.419 . S
C695 H699 0.930 . S
C696 C695 1.369 . S
C696 C705 1.429 . S
C697 C695 1.419 . S
C697 C698 1.363 . S
C697 H700 0.929 . S
C698 C697 1.363 . S
C698 C704 1.428 . S
H699 C695 0.930 . S
H700 C697 0.929 . S
S701 N702 1.613 . S
S701 N703 1.610 . S
N702 S701 1.613 . S
N702 C705 1.350 . S
N703 S701 1.610 . S
N703 C704 1.351 . S
C704 C698 1.428 . S
C704 N703 1.351 . S
C704 C705 1.434 . S
C705 C696 1.429 . S
C705 N702 1.350 . S
C705 C704 1.434 . S
C706 C707 1.369 . S
C706 C708 1.419 . S
C706 H710 0.930 . S
C707 C706 1.369 . S
C707 C716 1.429 . S
C708 C706 1.419 . S
C708 C709 1.363 . S
C708 H711 0.929 . S
C709 C708 1.363 . S
C709 C715 1.428 . S
H710 C706 0.930 . S
H711 C708 0.929 . S
S712 N713 1.613 . S
S712 N714 1.610 . S
N713 S712 1.613 . S
N713 C716 1.350 . S
N714 S712 1.610 . S
N714 C715 1.351 . S
C715 C709 1.428 . S
C715 N714 1.351 . S
C715 C716 1.434 . S
C716 C707 1.429 . S
C716 N713 1.350 . S
C716 C715 1.434 . S
C717 C718 1.369 . S
C717 C719 1.419 . S
C717 H721 0.930 . S
C718 C717 1.369 . S
C718 C727 1.429 . S
C719 C717 1.419 . S
C719 C720 1.363 . S
C719 H722 0.929 . S
C720 C719 1.363 . S
C720 C726 1.428 . S
H721 C717 0.930 . S
H722 C719 0.929 . S
S723 N724 1.613 . S
S723 N725 1.610 . S
N724 S723 1.613 . S
N724 C727 1.350 . S
N725 S723 1.610 . S
N725 C726 1.351 . S
C726 C720 1.428 . S
C726 N725 1.351 . S
C726 C727 1.434 . S
C727 C718 1.429 . S
C727 N724 1.350 . S
C727 C726 1.434 . S
C728 C729 1.369 . S
C728 C730 1.419 . S
C728 H732 0.930 . S
C729 C728 1.369 . S
C729 C738 1.429 . S
C730 C728 1.419 . S
C730 C731 1.363 . S
C730 H733 0.929 . S
C731 C730 1.363 . S
C731 C737 1.428 . S
H732 C728 0.930 . S
H733 C730 0.929 . S
S734 N735 1.613 . S
S734 N736 1.610 . S
N735 S734 1.613 . S
N735 C738 1.350 . S
N736 S734 1.610 . S
N736 C737 1.351 . S
C737 C731 1.428 . S
C737 N736 1.351 . S
C737 C738 1.434 . S
C738 C729 1.429 . S
C738 N735 1.350 . S
C738 C737 1.434 . S
C739 C740 1.369 . S
C739 C741 1.419 . S
C739 H743 0.930 . S
C740 C739 1.369 . S
C740 C749 1.429 . S
C741 C739 1.419 . S
C741 C742 1.363 . S
C741 H744 0.929 . S
C742 C741 1.363 . S
C742 C748 1.428 . S
H743 C739 0.930 . S
H744 C741 0.929 . S
S745 N746 1.613 . S
S745 N747 1.610 1_556 S
N746 S745 1.613 . S
N746 C749 1.350 1_556 S
N747 S745 1.610 1_554 S
N747 C748 1.351 . S
C748 C742 1.428 . S
C748 N747 1.351 . S
C748 C749 1.434 . S
C749 C740 1.429 . S
C749 N746 1.350 1_554 S
C749 C748 1.434 . S
C750 C751 1.369 . S
C750 C752 1.419 . S
C750 H754 0.930 . S
C751 C750 1.369 . S
C751 C760 1.429 . S
C752 C750 1.419 . S
C752 C753 1.363 . S
C752 H755 0.929 . S
C753 C752 1.363 . S
C753 C759 1.428 . S
H754 C750 0.930 . S
H755 C752 0.929 . S
S756 N757 1.613 . S
S756 N758 1.610 . S
N757 S756 1.613 . S
N757 C760 1.350 . S
N758 S756 1.610 . S
N758 C759 1.351 . S
C759 C753 1.428 . S
C759 N758 1.351 . S
C759 C760 1.434 . S
C760 C751 1.429 . S
C760 N757 1.350 . S
C760 C759 1.434 . S
C761 C762 1.369 . S
C761 C763 1.419 . S
C761 H765 0.930 . S
C762 C761 1.369 . S
C762 C771 1.429 . S
C763 C761 1.419 . S
C763 C764 1.363 . S
C763 H766 0.929 . S
C764 C763 1.363 . S
C764 C770 1.428 . S
H765 C761 0.930 . S
H766 C763 0.929 . S
S767 N768 1.613 . S
S767 N769 1.610 . S
N768 S767 1.613 . S
N768 C771 1.350 . S
N769 S767 1.610 . S
N769 C770 1.351 . S
C770 C764 1.428 . S
C770 N769 1.351 . S
C770 C771 1.434 . S
C771 C762 1.429 . S
C771 N768 1.350 . S
C771 C770 1.434 . S
C772 C773 1.369 . S
C772 C774 1.419 . S
C772 H776 0.930 . S
C773 C772 1.369 . S
C773 C782 1.429 . S
C774 C772 1.419 . S
C774 C775 1.363 . S
C774 H777 0.929 . S
C775 C774 1.363 . S
C775 C781 1.428 . S
H776 C772 0.930 . S
H777 C774 0.929 . S
S778 N779 1.613 . S
S778 N780 1.610 . S
N779 S778 1.613 . S
N779 C782 1.350 . S
N780 S778 1.610 . S
N780 C781 1.351 . S
C781 C775 1.428 . S
C781 N780 1.351 . S
C781 C782 1.434 . S
C782 C773 1.429 . S
C782 N779 1.350 . S
C782 C781 1.434 . S
C783 C784 1.369 . S
C783 C785 1.419 . S
C783 H787 0.930 . S
C784 C783 1.369 . S
C784 C793 1.429 . S
C785 C783 1.419 . S
C785 C786 1.363 . S
C785 H788 0.929 . S
C786 C785 1.363 . S
C786 C792 1.428 . S
H787 C783 0.930 . S
H788 C785 0.929 . S
S789 N790 1.613 . S
S789 N791 1.610 1_655 S
N790 S789 1.613 . S
N790 C793 1.350 1_655 S
N791 S789 1.610 1_455 S
N791 C792 1.351 . S
C792 C786 1.428 . S
C792 N791 1.351 . S
C792 C793 1.434 . S
C793 C784 1.429 . S
C793 N790 1.350 1_455 S
C793 C792 1.434 . S
C794 C795 1.369 . S
C794 C796 1.419 . S
C794 H798 0.930 . S
C795 C794 1.369 . S
C795 C804 1.429 . S
C796 C794 1.419 . S
C796 C797 1.363 . S
C796 H799 0.929 . S
C797 C796 1.363 . S
C797 C803 1.428 . S
H798 C794 0.930 . S
H799 C796 0.929 . S
S800 N801 1.613 . S
S800 N802 1.610 . S
N801 S800 1.613 . S
N801 C804 1.350 . S
N802 S800 1.610 . S
N802 C803 1.351 . S
C803 C797 1.428 . S
C803 N802 1.351 . S
C803 C804 1.434 . S
C804 C795 1.429 . S
C804 N801 1.350 . S
C804 C803 1.434 . S
C805 C806 1.369 . S
C805 C807 1.419 . S
C805 H809 0.930 . S
C806 C805 1.369 . S
C806 C815 1.429 . S
C807 C805 1.419 . S
C807 C808 1.363 . S
C807 H810 0.929 . S
C808 C807 1.363 . S
C808 C814 1.428 . S
H809 C805 0.930 . S
H810 C807 0.929 . S
S811 N812 1.613 . S
S811 N813 1.610 . S
N812 S811 1.613 . S
N812 C815 1.350 . S
N813 S811 1.610 . S
N813 C814 1.351 . S
C814 C808 1.428 . S
C814 N813 1.351 . S
C814 C815 1.434 . S
C815 C806 1.429 . S
C815 N812 1.350 . S
C815 C814 1.434 . S
C816 C817 1.369 . S
C816 C818 1.419 . S
C816 H820 0.930 . S
C817 C816 1.369 . S
C817 C826 1.429 . S
C818 C816 1.419 . S
C818 C819 1.363 . S
C818 H821 0.929 . S
C819 C818 1.363 . S
C819 C825 1.428 . S
H820 C816 0.930 . S
H821 C818 0.929 . S
S822 N823 1.613 . S
S822 N824 1.610 . S
N823 S822 1.613 . S
N823 C826 1.350 . S
N824 S822 1.610 . S
N824 C825 1.351 . S
C825 C819 1.428 . S
C825 N824 1.351 . S
C825 C826 1.434 . S
C826 C817 1.429 . S
C826 N823 1.350 . S
C826 C825 1.434 . S
C827 C828 1.369 . S
C827 C829 1.419 . S
C827 H831 0.930 . S
C828 C827 1.369 . S
C828 C837 1.429 . S
C829 C827 1.419 . S
C829 C830 1.363 . S
C829 H832 0.929 . S
C830 C829 1.363 . S
C830 C836 1.428 . S
H831 C827 0.930 . S
H832 C829 0.929 . S
S833 N834 1.613 . S
S833 N835 1.610 . S
N834 S833 1.613 . S
N834 C837 1.350 . S
N835 S833 1.610 . S
N835 C836 1.351 . S
C836 C830 1.428 . S
C836 N835 1.351 . S
C836 C837 1.434 . S
C837 C828 1.429 . S
C837 N834 1.350 . S
C837 C836 1.434 . S
C838 C839 1.369 . S
C838 C840 1.419 . S
C838 H842 0.930 . S
C839 C838 1.369 . S
C839 C848 1.429 . S
C840 C838 1.419 . S
C840 C841 1.363 . S
C840 H843 0.929 . S
C841 C840 1.363 . S
C841 C847 1.428 . S
H842 C838 0.930 . S
H843 C840 0.929 . S
S844 N845 1.613 . S
S844 N846 1.610 . S
N845 S844 1.613 . S
N845 C848 1.350 . S
N846 S844 1.610 . S
N846 C847 1.351 . S
C847 C841 1.428 . S
C847 N846 1.351 . S
C847 C848 1.434 . S
C848 C839 1.429 . S
C848 N845 1.350 . S
C848 C847 1.434 . S
C849 C850 1.369 . S
C849 C851 1.419 . S
C849 H853 0.930 . S
C850 C849 1.369 . S
C850 C859 1.429 . S
C851 C849 1.419 . S
C851 C852 1.363 . S
C851 H854 0.929 . S
C852 C851 1.363 . S
C852 C858 1.428 . S
H853 C849 0.930 . S
H854 C851 0.929 . S
S855 N856 1.613 . S
S855 N857 1.610 . S
N856 S855 1.613 . S
N856 C859 1.350 . S
N857 S855 1.610 . S
N857 C858 1.351 . S
C858 C852 1.428 . S
C858 N857 1.351 . S
C858 C859 1.434 . S
C859 C850 1.429 . S
C859 N856 1.350 . S
C859 C858 1.434 . S
C860 C861 1.369 . S
C860 C862 1.419 . S
C860 H864 0.930 . S
C861 C860 1.369 . S
C861 C870 1.429 . S
C862 C860 1.419 . S
C862 C863 1.363 . S
C862 H865 0.929 . S
C863 C862 1.363 . S
C863 C869 1.428 . S
H864 C860 0.930 . S
H865 C862 0.929 . S
S866 N867 1.613 . S
S866 N868 1.610 . S
N867 S866 1.613 . S
N867 C870 1.350 . S
N868 S866 1.610 . S
N868 C869 1.351 . S
C869 C863 1.428 . S
C869 N868 1.351 . S
C869 C870 1.434 . S
C870 C861 1.429 . S
C870 N867 1.350 . S
C870 C869 1.434 . S
C871 C872 1.369 . S
C871 C873 1.419 . S
C871 H875 0.930 . S
C872 C871 1.369 . S
C872 C881 1.429 . S
C873 C871 1.419 . S
C873 C874 1.363 . S
C873 H876 0.929 . S
C874 C873 1.363 . S
C874 C880 1.428 . S
H875 C871 0.930 . S
H876 C873 0.929 . S
S877 N878 1.613 . S
S877 N879 1.610 . S
N878 S877 1.613 . S
N878 C881 1.350 . S
N879 S877 1.610 . S
N879 C880 1.351 . S
C880 C874 1.428 . S
C880 N879 1.351 . S
C880 C881 1.434 . S
C881 C872 1.429 . S
C881 N878 1.350 . S
C881 C880 1.434 . S
C882 C883 1.369 . S
C882 C884 1.419 . S
C882 H886 0.930 . S
C883 C882 1.369 . S
C883 C892 1.429 . S
C884 C882 1.419 . S
C884 C885 1.363 . S
C884 H887 0.929 . S
C885 C884 1.363 . S
C885 C891 1.428 . S
H886 C882 0.930 . S
H887 C884 0.929 . S
S888 N889 1.613 . S
S888 N890 1.610 . S
N889 S888 1.613 . S
N889 C892 1.350 . S
N890 S888 1.610 . S
N890 C891 1.351 . S
C891 C885 1.428 . S
C891 N890 1.351 . S
C891 C892 1.434 . S
C892 C883 1.429 . S
C892 N889 1.350 . S
C892 C891 1.434 . S
C893 C894 1.369 . S
C893 C895 1.419 . S
C893 H897 0.930 . S
C894 C893 1.369 . S
C894 C903 1.429 . S
C895 C893 1.419 . S
C895 C896 1.363 . S
C895 H898 0.929 . S
C896 C895 1.363 . S
C896 C902 1.428 . S
H897 C893 0.930 . S
H898 C895 0.929 . S
S899 N900 1.613 . S
S899 N901 1.610 . S
N900 S899 1.613 . S
N900 C903 1.350 . S
N901 S899 1.610 . S
N901 C902 1.351 . S
C902 C896 1.428 . S
C902 N901 1.351 . S
C902 C903 1.434 . S
C903 C894 1.429 . S
C903 N900 1.350 . S
C903 C902 1.434 . S
C904 C905 1.369 . S
C904 C906 1.419 . S
C904 H908 0.930 . S
C905 C904 1.369 . S
C905 C914 1.429 . S
C906 C904 1.419 . S
C906 C907 1.363 . S
C906 H909 0.929 . S
C907 C906 1.363 . S
C907 C913 1.428 . S
H908 C904 0.930 . S
H909 C906 0.929 . S
S910 N911 1.613 . S
S910 N912 1.610 . S
N911 S910 1.613 . S
N911 C914 1.350 . S
N912 S910 1.610 . S
N912 C913 1.351 . S
C913 C907 1.428 . S
C913 N912 1.351 . S
C913 C914 1.434 . S
C914 C905 1.429 . S
C914 N911 1.350 . S
C914 C913 1.434 . S
C915 C916 1.369 . S
C915 C917 1.419 . S
C915 H919 0.930 . S
C916 C915 1.369 . S
C916 C925 1.429 . S
C917 C915 1.419 . S
C917 C918 1.363 . S
C917 H920 0.929 . S
C918 C917 1.363 . S
C918 C924 1.428 . S
H919 C915 0.930 . S
H920 C917 0.929 . S
S921 N922 1.613 . S
S921 N923 1.610 . S
N922 S921 1.613 . S
N922 C925 1.350 . S
N923 S921 1.610 . S
N923 C924 1.351 . S
C924 C918 1.428 . S
C924 N923 1.351 . S
C924 C925 1.434 . S
C925 C916 1.429 . S
C925 N922 1.350 . S
C925 C924 1.434 . S
C926 C927 1.369 . S
C926 C928 1.419 . S
C926 H930 0.930 . S
C927 C926 1.369 . S
C927 C936 1.429 . S
C928 C926 1.419 . S
C928 C929 1.363 . S
C928 H931 0.929 . S
C929 C928 1.363 . S
C929 C935 1.428 . S
H930 C926 0.930 . S
H931 C928 0.929 . S
S932 N933 1.613 . S
S932 N934 1.610 . S
N933 S932 1.613 . S
N933 C936 1.350 . S
N934 S932 1.610 . S
N934 C935 1.351 . S
C935 C929 1.428 . S
C935 N934 1.351 . S
C935 C936 1.434 . S
C936 C927 1.429 . S
C936 N933 1.350 . S
C936 C935 1.434 . S
C937 C938 1.369 . S
C937 C939 1.419 . S
C937 H941 0.930 . S
C938 C937 1.369 . S
C938 C947 1.429 . S
C939 C937 1.419 . S
C939 C940 1.363 . S
C939 H942 0.929 . S
C940 C939 1.363 . S
C940 C946 1.428 . S
H941 C937 0.930 . S
H942 C939 0.929 . S
S943 N944 1.613 . S
S943 N945 1.610 . S
N944 S943 1.613 . S
N944 C947 1.350 . S
N945 S943 1.610 . S
N945 C946 1.351 . S
C946 C940 1.428 . S
C946 N945 1.351 . S
C946 C947 1.434 . S
C947 C938 1.429 . S
C947 N944 1.350 . S
C947 C946 1.434 . S
C948 C949 1.369 . S
C948 C950 1.419 . S
C948 H952 0.930 . S
C949 C948 1.369 . S
C949 C958 1.429 . S
C950 C948 1.419 . S
C950 C951 1.363 . S
C950 H953 0.929 . S
C951 C950 1.363 . S
C951 C957 1.428 . S
H952 C948 0.930 . S
H953 C950 0.929 . S
S954 N955 1.613 . S
S954 N956 1.610 . S
N955 S954 1.613 . S
N955 C958 1.350 . S
N956 S954 1.610 . S
N956 C957 1.351 . S
C957 C951 1.428 . S
C957 N956 1.351 . S
C957 C958 1.434 . S
C958 C949 1.429 . S
C958 N955 1.350 . S
C958 C957 1.434 . S
C959 C960 1.369 . S
C959 C961 1.419 . S
C959 H963 0.930 . S
C960 C959 1.369 . S
C960 C969 1.429 . S
C961 C959 1.419 . S
C961 C962 1.363 . S
C961 H964 0.929 . S
C962 C961 1.363 . S
C962 C968 1.428 . S
H963 C959 0.930 . S
H964 C961 0.929 . S
S965 N966 1.613 . S
S965 N967 1.610 . S
N966 S965 1.613 . S
N966 C969 1.350 . S
N967 S965 1.610 . S
N967 C968 1.351 . S
C968 C962 1.428 . S
C968 N967 1.351 . S
C968 C969 1.434 . S
C969 C960 1.429 . S
C969 N966 1.350 . S
C969 C968 1.434 . S
C970 C971 1.369 . S
C970 C972 1.419 . S
C970 H974 0.930 . S
C971 C970 1.369 . S
C971 C980 1.429 . S
C972 C970 1.419 . S
C972 C973 1.363 . S
C972 H975 0.929 . S
C973 C972 1.363 . S
C973 C979 1.428 . S
H974 C970 0.930 . S
H975 C972 0.929 . S
S976 N977 1.613 . S
S976 N978 1.610 . S
N977 S976 1.613 . S
N977 C980 1.350 . S
N978 S976 1.610 . S
N978 C979 1.351 . S
C979 C973 1.428 . S
C979 N978 1.351 . S
C979 C980 1.434 . S
C980 C971 1.429 . S
C980 N977 1.350 . S
C980 C979 1.434 . S
C981 C982 1.369 . S
C981 C983 1.419 . S
C981 H985 0.930 . S
C982 C981 1.369 . S
C982 C991 1.429 . S
C983 C981 1.419 . S
C983 C984 1.363 . S
C983 H986 0.929 . S
C984 C983 1.363 . S
C984 C990 1.428 . S
H985 C981 0.930 . S
H986 C983 0.929 . S
S987 N988 1.613 . S
S987 N989 1.610 . S
N988 S987 1.613 . S
N988 C991 1.350 . S
N989 S987 1.610 . S
N989 C990 1.351 . S
C990 C984 1.428 . S
C990 N989 1.351 . S
C990 C991 1.434 . S
C991 C982 1.429 . S
C991 N988 1.350 . S
C991 C990 1.434 . S
C992 C993 1.369 . S
C992 C994 1.419 . S
C992 H996 0.930 . S
C993 C992 1.369 . S
C993 C1002 1.429 . S
C994 C992 1.419 . S
C994 C995 1.363 . S
C994 H997 0.929 . S
C995 C994 1.363 . S
C995 C1001 1.428 . S
H996 C992 0.930 . S
H997 C994 0.929 . S
S998 N999 1.613 . S
S998 N1000 1.610 . S
N999 S998 1.613 . S
N999 C1002 1.350 . S
N1000 S998 1.610 . S
N1000 C1001 1.351 . S
C1001 C995 1.428 . S
C1001 N1000 1.351 . S
C1001 C1002 1.434 . S
C1002 C993 1.429 . S
C1002 N999 1.350 . S
C1002 C1001 1.434 . S
C1003 C1004 1.369 . S
C1003 C1005 1.419 . S
C1003 H1007 0.930 . S
C1004 C1003 1.369 . S
C1004 C1013 1.429 . S
C1005 C1003 1.419 . S
C1005 C1006 1.363 . S
C1005 H1008 0.929 . S
C1006 C1005 1.363 . S
C1006 C1012 1.428 . S
H1007 C1003 0.930 . S
H1008 C1005 0.929 . S
S1009 N1010 1.613 . S
S1009 N1011 1.610 . S
N1010 S1009 1.613 . S
N1010 C1013 1.350 . S
N1011 S1009 1.610 . S
N1011 C1012 1.351 . S
C1012 C1006 1.428 . S
C1012 N1011 1.351 . S
C1012 C1013 1.434 . S
C1013 C1004 1.429 . S
C1013 N1010 1.350 . S
C1013 C1012 1.434 . S
C1014 C1015 1.369 . S
C1014 C1016 1.419 . S
C1014 H1018 0.930 . S
C1015 C1014 1.369 . S
C1015 C1024 1.429 . S
C1016 C1014 1.419 . S
C1016 C1017 1.363 . S
C1016 H1019 0.929 . S
C1017 C1016 1.363 . S
C1017 C1023 1.428 . S
H1018 C1014 0.930 . S
H1019 C1016 0.929 . S
S1020 N1021 1.613 . S
S1020 N1022 1.610 . S
N1021 S1020 1.613 . S
N1021 C1024 1.350 . S
N1022 S1020 1.610 . S
N1022 C1023 1.351 . S
C1023 C1017 1.428 . S
C1023 N1022 1.351 . S
C1023 C1024 1.434 . S
C1024 C1015 1.429 . S
C1024 N1021 1.350 . S
C1024 C1023 1.434 . S
C1025 C1026 1.369 . S
C1025 C1027 1.419 . S
C1025 H1029 0.930 . S
C1026 C1025 1.369 . S
C1026 C1035 1.429 . S
C1027 C1025 1.419 . S
C1027 C1028 1.363 . S
C1027 H1030 0.929 . S
C1028 C1027 1.363 . S
C1028 C1034 1.428 . S
H1029 C1025 0.930 . S
H1030 C1027 0.929 . S
S1031 N1032 1.613 . S
S1031 N1033 1.610 . S
N1032 S1031 1.613 . S
N1032 C1035 1.350 . S
N1033 S1031 1.610 . S
N1033 C1034 1.351 . S
C1034 C1028 1.428 . S
C1034 N1033 1.351 . S
C1034 C1035 1.434 . S
C1035 C1026 1.429 . S
C1035 N1032 1.350 . S
C1035 C1034 1.434 . S
C1036 C1037 1.369 . S
C1036 C1038 1.419 . S
C1036 H1040 0.930 . S
C1037 C1036 1.369 . S
C1037 C1046 1.429 . S
C1038 C1036 1.419 . S
C1038 C1039 1.363 . S
C1038 H1041 0.929 . S
C1039 C1038 1.363 . S
C1039 C1045 1.428 . S
H1040 C1036 0.930 . S
H1041 C1038 0.929 . S
S1042 N1043 1.613 . S
S1042 N1044 1.610 . S
N1043 S1042 1.613 . S
N1043 C1046 1.350 . S
N1044 S1042 1.610 . S
N1044 C1045 1.351 . S
C1045 C1039 1.428 . S
C1045 N1044 1.351 . S
C1045 C1046 1.434 . S
C1046 C1037 1.429 . S
C1046 N1043 1.350 . S
C1046 C1045 1.434 . S
C1047 C1048 1.369 . S
C1047 C1049 1.419 . S
C1047 H1051 0.930 . S
C1048 C1047 1.369 . S
C1048 C1057 1.429 . S
C1049 C1047 1.419 . S
C1049 C1050 1.363 . S
C1049 H1052 0.929 . S
C1050 C1049 1.363 . S
C1050 C1056 1.428 . S
H1051 C1047 0.930 . S
H1052 C1049 0.929 . S
S1053 N1054 1.613 . S
S1053 N1055 1.610 . S
N1054 S1053 1.613 . S
N1054 C1057 1.350 . S
N1055 S1053 1.610 . S
N1055 C1056 1.351 . S
C1056 C1050 1.428 . S
C1056 N1055 1.351 . S
C1056 C1057 1.434 . S
C1057 C1048 1.429 . S
C1057 N1054 1.350 . S
C1057 C1056 1.434 . S
C1058 C1059 1.369 . S
C1058 C1060 1.419 . S
C1058 H1062 0.930 . S
C1059 C1058 1.369 . S
C1059 C1068 1.429 . S
C1060 C1058 1.419 . S
C1060 C1061 1.363 . S
C1060 H1063 0.929 . S
C1061 C1060 1.363 . S
C1061 C1067 1.428 . S
H1062 C1058 0.930 . S
H1063 C1060 0.929 . S
S1064 N1065 1.613 . S
S1064 N1066 1.610 . S
N1065 S1064 1.613 . S
N1065 C1068 1.350 . S
N1066 S1064 1.610 . S
N1066 C1067 1.351 . S
C1067 C1061 1.428 . S
C1067 N1066 1.351 . S
C1067 C1068 1.434 . S
C1068 C1059 1.429 . S
C1068 N1065 1.350 . S
C1068 C1067 1.434 . S
C1069 C1070 1.369 . S
C1069 C1071 1.419 . S
C1069 H1073 0.930 . S
C1070 C1069 1.369 . S
C1070 C1079 1.429 . S
C1071 C1069 1.419 . S
C1071 C1072 1.363 . S
C1071 H1074 0.929 . S
C1072 C1071 1.363 . S
C1072 C1078 1.428 . S
H1073 C1069 0.930 . S
H1074 C1071 0.929 . S
S1075 N1076 1.613 . S
S1075 N1077 1.610 . S
N1076 S1075 1.613 . S
N1076 C1079 1.350 . S
N1077 S1075 1.610 . S
N1077 C1078 1.351 . S
C1078 C1072 1.428 . S
C1078 N1077 1.351 . S
C1078 C1079 1.434 . S
C1079 C1070 1.429 . S
C1079 N1076 1.350 . S
C1079 C1078 1.434 . S
C1080 C1081 1.369 . S
C1080 C1082 1.419 . S
C1080 H1084 0.930 . S
C1081 C1080 1.369 . S
C1081 C1090 1.429 . S
C1082 C1080 1.419 . S
C1082 C1083 1.363 . S
C1082 H1085 0.929 . S
C1083 C1082 1.363 . S
C1083 C1089 1.428 . S
H1084 C1080 0.930 . S
H1085 C1082 0.929 . S
S1086 N1087 1.613 . S
S1086 N1088 1.610 . S
N1087 S1086 1.613 . S
N1087 C1090 1.350 1_455 S
N1088 S1086 1.610 . S
N1088 C1089 1.351 1_455 S
C1089 C1083 1.428 . S
C1089 N1088 1.351 1_655 S
C1089 C1090 1.434 . S
C1090 C1081 1.429 . S
C1090 N1087 1.350 1_655 S
C1090 C1089 1.434 . S
C1091 C1092 1.369 . S
C1091 C1093 1.419 . S
C1091 H1095 0.930 . S
C1092 C1091 1.369 . S
C1092 C1101 1.429 . S
C1093 C1091 1.419 . S
C1093 C1094 1.363 . S
C1093 H1096 0.929 . S
C1094 C1093 1.363 . S
C1094 C1100 1.428 . S
H1095 C1091 0.930 . S
H1096 C1093 0.929 . S
S1097 N1098 1.613 . S
S1097 N1099 1.610 . S
N1098 S1097 1.613 . S
N1098 C1101 1.350 . S
N1099 S1097 1.610 . S
N1099 C1100 1.351 . S
C1100 C1094 1.428 . S
C1100 N1099 1.351 . S
C1100 C1101 1.434 . S
C1101 C1092 1.429 . S
C1101 N1098 1.350 . S
C1101 C1100 1.434 . S
C1102 C1103 1.369 . S
C1102 C1104 1.419 . S
C1102 H1106 0.930 . S
C1103 C1102 1.369 . S
C1103 C1112 1.429 . S
C1104 C1102 1.419 . S
C1104 C1105 1.363 . S
C1104 H1107 0.929 . S
C1105 C1104 1.363 . S
C1105 C1111 1.428 . S
H1106 C1102 0.930 . S
H1107 C1104 0.929 . S
S1108 N1109 1.613 . S
S1108 N1110 1.610 . S
N1109 S1108 1.613 . S
N1109 C1112 1.350 . S
N1110 S1108 1.610 . S
N1110 C1111 1.351 . S
C1111 C1105 1.428 . S
C1111 N1110 1.351 . S
C1111 C1112 1.434 . S
C1112 C1103 1.429 . S
C1112 N1109 1.350 . S
C1112 C1111 1.434 . S
C1113 C1114 1.369 . S
C1113 C1115 1.419 . S
C1113 H1117 0.930 . S
C1114 C1113 1.369 . S
C1114 C1123 1.429 . S
C1115 C1113 1.419 . S
C1115 C1116 1.363 . S
C1115 H1118 0.929 . S
C1116 C1115 1.363 . S
C1116 C1122 1.428 . S
H1117 C1113 0.930 . S
H1118 C1115 0.929 . S
S1119 N1120 1.613 1_655 S
S1119 N1121 1.610 . S
N1120 S1119 1.613 1_455 S
N1120 C1123 1.350 . S
N1121 S1119 1.610 . S
N1121 C1122 1.351 1_655 S
C1122 C1116 1.428 . S
C1122 N1121 1.351 1_455 S
C1122 C1123 1.434 . S
C1123 C1114 1.429 . S
C1123 N1120 1.350 . S
C1123 C1122 1.434 . S
C1124 C1125 1.369 . S
C1124 C1126 1.419 . S
C1124 H1128 0.915 1_565 S
C1125 C1124 1.369 . S
C1125 C1134 1.429 . S
C1126 C1124 1.419 . S
C1126 C1127 1.363 . S
C1126 H1129 0.929 . S
C1127 C1126 1.363 . S
C1127 C1133 1.428 . S
H1128 C1124 0.915 1_545 S
H1129 C1126 0.929 . S
S1130 N1131 1.613 . S
S1130 N1132 1.610 . S
N1131 S1130 1.613 . S
N1131 C1134 1.350 . S
N1132 S1130 1.610 . S
N1132 C1133 1.351 . S
C1133 C1127 1.428 . S
C1133 N1132 1.351 . S
C1133 C1134 1.434 . S
C1134 C1125 1.429 . S
C1134 N1131 1.350 . S
C1134 C1133 1.434 . S
C1135 C1136 1.369 . S
C1135 C1137 1.419 . S
C1135 H1139 0.930 . S
C1136 C1135 1.369 . S
C1136 C1145 1.429 . S
C1137 C1135 1.419 . S
C1137 C1138 1.363 . S
C1137 H1140 0.929 . S
C1138 C1137 1.363 . S
C1138 C1144 1.428 . S
H1139 C1135 0.930 . S
H1140 C1137 0.929 . S
S1141 N1142 1.613 1_565 S
S1141 N1143 1.610 1_565 S
N1142 S1141 1.613 1_545 S
N1142 C1145 1.350 . S
N1143 S1141 1.610 1_545 S
N1143 C1144 1.351 . S
C1144 C1138 1.428 . S
C1144 N1143 1.351 . S
C1144 C1145 1.434 . S
C1145 C1136 1.429 . S
C1145 N1142 1.350 . S
C1145 C1144 1.434 . S
C1146 C1147 1.369 . S
C1146 C1148 1.419 . S
C1146 H1150 0.930 . S
C1147 C1146 1.369 . S
C1147 C1156 1.429 . S
C1148 C1146 1.419 . S
C1148 C1149 1.363 . S
C1148 H1151 0.929 . S
C1149 C1148 1.363 . S
C1149 C1155 1.428 . S
H1150 C1146 0.930 . S
H1151 C1148 0.929 . S
S1152 N1153 1.613 . S
S1152 N1154 1.610 . S
N1153 S1152 1.613 . S
N1153 C1156 1.350 . S
N1154 S1152 1.610 . S
N1154 C1155 1.351 . S
C1155 C1149 1.428 . S
C1155 N1154 1.351 . S
C1155 C1156 1.434 . S
C1156 C1147 1.429 . S
C1156 N1153 1.350 . S
C1156 C1155 1.434 . S
C1157 C1158 1.369 . S
C1157 C1159 1.419 . S
C1157 H1161 0.930 . S
C1158 C1157 1.369 . S
C1158 C1167 1.429 . S
C1159 C1157 1.419 . S
C1159 C1160 1.363 . S
C1159 H1162 0.929 . S
C1160 C1159 1.363 . S
C1160 C1166 1.428 . S
H1161 C1157 0.930 . S
H1162 C1159 0.929 . S
S1163 N1164 1.613 . S
S1163 N1165 1.610 . S
N1164 S1163 1.613 . S
N1164 C1167 1.350 . S
N1165 S1163 1.610 . S
N1165 C1166 1.351 . S
C1166 C1160 1.428 . S
C1166 N1165 1.351 . S
C1166 C1167 1.434 . S
C1167 C1158 1.429 . S
C1167 N1164 1.350 . S
C1167 C1166 1.434 . S
C1168 C1169 1.369 . S
C1168 C1170 1.419 . S
C1168 H1172 0.930 . S
C1169 C1168 1.369 . S
C1169 C1178 1.429 . S
C1170 C1168 1.419 . S
C1170 C1171 1.363 . S
C1170 H1173 0.929 . S
C1171 C1170 1.363 . S
C1171 C1177 1.428 . S
H1172 C1168 0.930 . S
H1173 C1170 0.929 . S
S1174 N1175 1.613 . S
S1174 N1176 1.610 . S
N1175 S1174 1.613 . S
N1175 C1178 1.350 1_554 S
N1176 S1174 1.610 . S
N1176 C1177 1.351 1_554 S
C1177 C1171 1.428 . S
C1177 N1176 1.351 1_556 S
C1177 C1178 1.434 . S
C1178 C1169 1.429 . S
C1178 N1175 1.350 1_556 S
C1178 C1177 1.434 . S
C1179 C1180 1.369 . S
C1179 C1181 1.419 . S
C1179 H1183 0.930 . S
C1180 C1179 1.369 . S
C1180 C1189 1.429 . S
C1181 C1179 1.419 . S
C1181 C1182 1.363 . S
C1181 H1184 0.929 . S
C1182 C1181 1.363 . S
C1182 C1188 1.428 . S
H1183 C1179 0.930 . S
H1184 C1181 0.929 . S
S1185 N1186 1.613 . S
S1185 N1187 1.610 . S
N1186 S1185 1.613 . S
N1186 C1189 1.350 . S
N1187 S1185 1.610 . S
N1187 C1188 1.351 . S
C1188 C1182 1.428 . S
C1188 N1187 1.351 . S
C1188 C1189 1.434 . S
C1189 C1180 1.429 . S
C1189 N1186 1.350 . S
C1189 C1188 1.434 . S
C1190 C1191 1.369 . S
C1190 C1192 1.419 . S
C1190 H1194 0.930 . S
C1191 C1190 1.369 . S
C1191 C1200 1.429 . S
C1192 C1190 1.419 . S
C1192 C1193 1.363 . S
C1192 H1195 0.929 . S
C1193 C1192 1.363 . S
C1193 C1199 1.428 . S
H1194 C1190 0.930 . S
H1195 C1192 0.929 . S
S1196 N1197 1.613 . S
S1196 N1198 1.610 . S
N1197 S1196 1.613 . S
N1197 C1200 1.350 . S
N1198 S1196 1.610 . S
N1198 C1199 1.351 . S
C1199 C1193 1.428 . S
C1199 N1198 1.351 . S
C1199 C1200 1.434 . S
C1200 C1191 1.429 . S
C1200 N1197 1.350 . S
C1200 C1199 1.434 . S
C1201 C1202 1.369 . S
C1201 C1203 1.419 . S
C1201 H1205 0.930 . S
C1202 C1201 1.369 . S
C1202 C1211 1.429 . S
C1203 C1201 1.419 . S
C1203 C1204 1.363 . S
C1203 H1206 0.929 . S
C1204 C1203 1.363 . S
C1204 C1210 1.428 . S
H1205 C1201 0.930 . S
H1206 C1203 0.929 . S
S1207 N1208 1.613 . S
S1207 N1209 1.610 . S
N1208 S1207 1.613 . S
N1208 C1211 1.350 . S
N1209 S1207 1.610 . S
N1209 C1210 1.351 . S
C1210 C1204 1.428 . S
C1210 N1209 1.351 . S
C1210 C1211 1.434 . S
C1211 C1202 1.429 . S
C1211 N1208 1.350 . S
C1211 C1210 1.434 . S
C1212 C1213 1.369 . S
C1212 C1214 1.419 . S
C1212 H1216 0.930 . S
C1213 C1212 1.369 . S
C1213 C1222 1.429 . S
C1214 C1212 1.419 . S
C1214 C1215 1.363 . S
C1214 H1217 0.929 . S
C1215 C1214 1.363 . S
C1215 C1221 1.428 . S
H1216 C1212 0.930 . S
H1217 C1214 0.929 . S
S1218 N1219 1.613 . S
S1218 N1220 1.610 . S
N1219 S1218 1.613 . S
N1219 C1222 1.350 . S
N1220 S1218 1.610 . S
N1220 C1221 1.351 . S
C1221 C1215 1.428 . S
C1221 N1220 1.351 . S
C1221 C1222 1.434 . S
C1222 C1213 1.429 . S
C1222 N1219 1.350 . S
C1222 C1221 1.434 . S
C1223 C1224 1.369 . S
C1223 C1225 1.419 . S
C1223 H1227 0.930 . S
C1224 C1223 1.369 . S
C1224 C1233 1.429 . S
C1225 C1223 1.419 . S
C1225 C1226 1.363 . S
C1225 H1228 0.929 . S
C1226 C1225 1.363 . S
C1226 C1232 1.428 . S
H1227 C1223 0.930 . S
H1228 C1225 0.929 . S
S1229 N1230 1.613 . S
S1229 N1231 1.610 . S
N1230 S1229 1.613 . S
N1230 C1233 1.350 . S
N1231 S1229 1.610 . S
N1231 C1232 1.351 . S
C1232 C1226 1.428 . S
C1232 N1231 1.351 . S
C1232 C1233 1.434 . S
C1233 C1224 1.429 . S
C1233 N1230 1.350 . S
C1233 C1232 1.434 . S
C1234 C1235 1.369 . S
C1234 C1236 1.419 . S
C1234 H1238 0.930 . S
C1235 C1234 1.369 . S
C1235 C1244 1.429 . S
C1236 C1234 1.419 . S
C1236 C1237 1.363 . S
C1236 H1239 0.929 . S
C1237 C1236 1.363 . S
C1237 C1243 1.428 . S
H1238 C1234 0.930 . S
H1239 C1236 0.929 . S
S1240 N1241 1.613 . S
S1240 N1242 1.610 . S
N1241 S1240 1.613 . S
N1241 C1244 1.350 . S
N1242 S1240 1.610 . S
N1242 C1243 1.351 . S
C1243 C1237 1.428 . S
C1243 N1242 1.351 . S
C1243 C1244 1.434 . S
C1244 C1235 1.429 . S
C1244 N1241 1.350 . S
C1244 C1243 1.434 . S
C1245 C1246 1.369 . S
C1245 C1247 1.419 . S
C1245 H1249 0.930 . S
C1246 C1245 1.369 . S
C1246 C1255 1.429 . S
C1247 C1245 1.419 . S
C1247 C1248 1.363 . S
C1247 H1250 0.929 . S
C1248 C1247 1.363 . S
C1248 C1254 1.428 . S
H1249 C1245 0.930 . S
H1250 C1247 0.929 . S
S1251 N1252 1.613 1_455 S
S1251 N1253 1.610 1_455 S
N1252 S1251 1.613 1_655 S
N1252 C1255 1.350 . S
N1253 S1251 1.610 1_655 S
N1253 C1254 1.351 . S
C1254 C1248 1.428 . S
C1254 N1253 1.351 . S
C1254 C1255 1.434 . S
C1255 C1246 1.429 . S
C1255 N1252 1.350 . S
C1255 C1254 1.434 . S
C1256 C1257 1.369 . S
C1256 C1258 1.419 . S
C1256 H1260 0.930 . S
C1257 C1256 1.369 . S
C1257 C1266 1.429 . S
C1258 C1256 1.419 . S
C1258 C1259 1.363 . S
C1258 H1261 0.929 . S
C1259 C1258 1.363 . S
C1259 C1265 1.428 . S
H1260 C1256 0.930 . S
H1261 C1258 0.929 . S
S1262 N1263 1.613 . S
S1262 N1264 1.610 . S
N1263 S1262 1.613 . S
N1263 C1266 1.350 . S
N1264 S1262 1.610 . S
N1264 C1265 1.351 . S
C1265 C1259 1.428 . S
C1265 N1264 1.351 . S
C1265 C1266 1.434 . S
C1266 C1257 1.429 . S
C1266 N1263 1.350 . S
C1266 C1265 1.434 . S
C1267 C1268 1.369 . S
C1267 C1269 1.419 . S
C1267 H1271 0.930 . S
C1268 C1267 1.369 . S
C1268 C1277 1.429 . S
C1269 C1267 1.419 . S
C1269 C1270 1.363 . S
C1269 H1272 0.929 . S
C1270 C1269 1.363 . S
C1270 C1276 1.428 . S
H1271 C1267 0.930 . S
H1272 C1269 0.929 . S
S1273 N1274 1.613 . S
S1273 N1275 1.610 1_545 S
N1274 S1273 1.613 . S
N1274 C1277 1.350 1_545 S
N1275 S1273 1.610 1_565 S
N1275 C1276 1.351 . S
C1276 C1270 1.428 . S
C1276 N1275 1.351 . S
C1276 C1277 1.434 . S
C1277 C1268 1.429 . S
C1277 N1274 1.350 1_565 S
C1277 C1276 1.434 . S
C1278 C1279 1.369 . S
C1278 C1280 1.419 . S
C1278 H1282 0.930 . S
C1279 C1278 1.369 . S
C1279 C1288 1.429 . S
C1280 C1278 1.419 . S
C1280 C1281 1.363 . S
C1280 H1283 0.929 . S
C1281 C1280 1.363 . S
C1281 C1287 1.428 . S
H1282 C1278 0.930 . S
H1283 C1280 0.929 . S
S1284 N1285 1.613 . S
S1284 N1286 1.610 . S
N1285 S1284 1.613 . S
N1285 C1288 1.350 . S
N1286 S1284 1.610 . S
N1286 C1287 1.351 . S
C1287 C1281 1.428 . S
C1287 N1286 1.351 . S
C1287 C1288 1.434 . S
C1288 C1279 1.429 . S
C1288 N1285 1.350 . S
C1288 C1287 1.434 . S
C1289 C1290 1.369 . S
C1289 C1291 1.419 . S
C1289 H1293 0.930 . S
C1290 C1289 1.369 . S
C1290 C1299 1.429 . S
C1291 C1289 1.419 . S
C1291 C1292 1.363 . S
C1291 H1294 0.929 . S
C1292 C1291 1.363 . S
C1292 C1298 1.428 . S
H1293 C1289 0.930 . S
H1294 C1291 0.929 . S
S1295 N1296 1.613 . S
S1295 N1297 1.610 . S
N1296 S1295 1.613 . S
N1296 C1299 1.350 . S
N1297 S1295 1.610 . S
N1297 C1298 1.351 . S
C1298 C1292 1.428 . S
C1298 N1297 1.351 . S
C1298 C1299 1.434 . S
C1299 C1290 1.429 . S
C1299 N1296 1.350 . S
C1299 C1298 1.434 . S
C1300 C1301 1.369 . S
C1300 C1302 1.419 . S
C1300 H1304 0.930 . S
C1301 C1300 1.369 . S
C1301 C1310 1.429 . S
C1302 C1300 1.419 . S
C1302 C1303 1.363 . S
C1302 H1305 0.929 . S
C1303 C1302 1.363 . S
C1303 C1309 1.428 . S
H1304 C1300 0.930 . S
H1305 C1302 0.929 . S
S1306 N1307 1.613 . S
S1306 N1308 1.610 . S
N1307 S1306 1.613 . S
N1307 C1310 1.350 . S
N1308 S1306 1.610 . S
N1308 C1309 1.351 . S
C1309 C1303 1.428 . S
C1309 N1308 1.351 . S
C1309 C1310 1.434 . S
C1310 C1301 1.429 . S
C1310 N1307 1.350 . S
C1310 C1309 1.434 . S
C1311 C1312 1.369 . S
C1311 C1313 1.419 . S
C1311 H1315 0.930 . S
C1312 C1311 1.369 . S
C1312 C1321 1.429 . S
C1313 C1311 1.419 . S
C1313 C1314 1.363 . S
C1313 H1316 0.929 . S
C1314 C1313 1.363 . S
C1314 C1320 1.428 . S
H1315 C1311 0.930 . S
H1316 C1313 0.929 . S
S1317 N1318 1.613 . S
S1317 N1319 1.610 . S
N1318 S1317 1.613 . S
N1318 C1321 1.350 1_554 S
N1319 S1317 1.610 . S
N1319 C1320 1.351 1_554 S
C1320 C1314 1.428 . S
C1320 N1319 1.351 1_556 S
C1320 C1321 1.434 . S
C1321 C1312 1.429 . S
C1321 N1318 1.350 1_556 S
C1321 C1320 1.434 . S
C1322 C1323 1.369 . S
C1322 C1324 1.419 . S
C1322 H1326 0.930 . S
C1323 C1322 1.369 . S
C1323 C1332 1.429 . S
C1324 C1322 1.419 . S
C1324 C1325 1.363 . S
C1324 H1327 0.929 . S
C1325 C1324 1.363 . S
C1325 C1331 1.428 . S
H1326 C1322 0.930 . S
H1327 C1324 0.929 . S
S1328 N1329 1.613 . S
S1328 N1330 1.610 . S
N1329 S1328 1.613 . S
N1329 C1332 1.350 . S
N1330 S1328 1.610 . S
N1330 C1331 1.351 . S
C1331 C1325 1.428 . S
C1331 N1330 1.351 . S
C1331 C1332 1.434 . S
C1332 C1323 1.429 . S
C1332 N1329 1.350 . S
C1332 C1331 1.434 . S
C1333 C1334 1.369 . S
C1333 C1335 1.419 . S
C1333 H1337 0.930 . S
C1334 C1333 1.369 . S
C1334 C1343 1.429 . S
C1335 C1333 1.419 . S
C1335 C1336 1.363 . S
C1335 H1338 0.929 . S
C1336 C1335 1.363 . S
C1336 C1342 1.428 . S
H1337 C1333 0.930 . S
H1338 C1335 0.929 . S
S1339 N1340 1.613 . S
S1339 N1341 1.610 . S
N1340 S1339 1.613 . S
N1340 C1343 1.350 . S
N1341 S1339 1.610 . S
N1341 C1342 1.351 . S
C1342 C1336 1.428 . S
C1342 N1341 1.351 . S
C1342 C1343 1.434 . S
C1343 C1334 1.429 . S
C1343 N1340 1.350 . S
C1343 C1342 1.434 . S
C553 C19 1.159 . S
C555 C435 1.200 . S
C564 C458 1.198 . S
C566 C42 1.162 . S
C575 C65 1.152 . S
C577 C389 1.198 . S
C586 C88 1.162 . S
C588 C412 1.194 . S
C597 C527 1.199 . S
C599 C111 1.153 . S
C608 C134 1.163 . S
C610 C504 1.194 . S
C619 C550 1.202 . S
C621 C157 1.155 . S
C630 C180 1.153 . S
C632 C481 1.198 . S
C641 C203 1.165 . S
C643 C320 1.197 . S
C652 C226 1.152 . S
C654 C366 1.198 . S
C663 C343 1.194 . S
C665 C249 1.157 . S
C674 C272 1.152 . S
C676 C297 1.198 . S
C685 C295 1.152 . S
C687 C159 1.199 . S
C696 C318 1.152 . S
C698 C182 1.200 . S
C707 C341 1.152 . S
C709 C113 1.199 . S
C718 C136 1.193 . S
C720 C364 1.160 . S
C729 C387 1.164 . S
C731 C251 1.198 . S
C740 C228 1.201 . S
C742 C410 1.159 . S
C751 C274 1.201 . S
C753 C433 1.154 . S
C762 C205 1.195 . S
C764 C456 1.164 . S
C773 C44 1.194 . S
C775 C479 1.157 . S
C784 C90 1.201 . S
C786 C502 1.159 . S
C795 C67 1.194 . S
C797 C525 1.156 . S
C806 C548 1.152 . S
C808 C21 1.200 . S
C817 C110 1.432 . S
C819 C16 1.468 . S
C828 C133 1.440 . S
C830 C39 1.465 . S
C839 C156 1.440 . S
C841 C62 1.465 . S
C850 C179 1.441 . S
C852 C85 1.465 . S
C861 C108 1.469 . S
C863 C202 1.433 . S
C872 C131 1.468 . S
C874 C271 1.435 . S
C883 C154 1.468 . S
C885 C225 1.434 . S
C894 C177 1.466 . S
C896 C248 1.437 . S
C905 C200 1.464 . S
C907 C18 1.440 . S
C916 C223 1.469 . S
C918 C64 1.433 . S
C927 C246 1.467 . S
C929 C87 1.437 . S
C938 C41 1.439 . S
C940 C269 1.465 . S
C949 C386 1.436 . S
C951 C292 1.466 . S
C960 C409 1.432 . S
C962 C315 1.468 . S
C971 C338 1.464 . S
C973 C432 1.440 . S
C982 C361 1.468 . S
C984 C455 1.434 . S
C993 C478 1.441 . S
C995 C384 1.464 . S
C1004 C407 1.465 . S
C1006 C547 1.438 . S
C1015 C501 1.439 . S
C1017 C430 1.466 . S
C1026 C453 1.464 . S
C1028 C524 1.440 . S
C1037 C294 1.434 . S
C1039 C476 1.468 . S
C1048 C499 1.467 . S
C1050 C340 1.436 . S
C1059 C522 1.465 . S
C1061 C363 1.438 . S
C1070 C317 1.433 . S
C1072 C545 1.468 . S
C1081 C20 1.751 . S
C1083 C224 1.652 . S
C1092 C247 1.633 . S
C1094 C43 1.753 . S
C1103 C201 1.653 . S
C1105 C66 1.752 . S
C1114 C270 1.638 . S
C1116 C89 1.752 . S
C1125 C112 1.757 . S
C1127 C86 1.644 . S
C1136 C63 1.631 . S
C1138 C135 1.755 . S
C1147 C158 1.754 . S
C1149 C40 1.633 . S
C1158 C17 1.644 . S
C1160 C181 1.756 . S
C1169 C204 1.751 . S
C1171 C132 1.652 . S
C1180 C227 1.756 . S
C1182 C178 1.628 . S
C1191 C250 1.758 . S
C1193 C155 1.627 . S
C1202 C273 1.751 . S
C1204 C109 1.651 . S
C1213 C296 1.753 . S
C1215 C500 1.647 . S
C1224 C319 1.757 . S
C1226 C523 1.629 . S
C1235 C477 1.650 . S
C1237 C342 1.752 . S
C1246 C546 1.636 . S
C1248 C365 1.752 . S
C1257 C388 1.753 . S
C1259 C362 1.648 . S
C1268 C411 1.755 . S
C1270 C339 1.632 . S
C1279 C316 1.628 . S
C1281 C434 1.755 . S
C1290 C457 1.755 . S
C1292 C293 1.645 . S
C1301 C480 1.756 . S
C1303 C408 1.647 . S
C1312 C454 1.638 . S
C1314 C503 1.752 . S
C1323 C526 1.756 . S
C1325 C431 1.631 . S
C1334 C549 1.756 . S
C1336 C385 1.647 . S
