# Generated by pormake.
# Topology dmp, (4)-cn, num edge types: 1
# Building blocks:
#     Node 0, Type 0, BuildingBlock: ICAMEG_clean_sbu_1, # of connection points: 4
#     Node 1, Type 0, BuildingBlock: ICAMEG_clean_sbu_1, # of connection points: 4
#     Node 2, Type 0, BuildingBlock: ICAMEG_clean_sbu_1, # of connection points: 4
#     Node 3, Type 0, BuildingBlock: ICAMEG_clean_sbu_1, # of connection points: 4
#     Edge 4, Type (0, 0), BuildingBlock: AJUNOK_clean_linker_0, # of connection points: 2
#     Edge 5, Type (0, 0), BuildingBlock: AJUNOK_clean_linker_0, # of connection points: 2
#     Edge 6, Type (0, 0), BuildingBlock: AJUNOK_clean_linker_0, # of connection points: 2
#     Edge 7, Type (0, 0), BuildingBlock: AJUNOK_clean_linker_0, # of connection points: 2
#     Edge 8, Type (0, 0), BuildingBlock: AJUNOK_clean_linker_0, # of connection points: 2
#     Edge 9, Type (0, 0), BuildingBlock: AJUNOK_clean_linker_0, # of connection points: 2
#     Edge 10, Type (0, 0), BuildingBlock: AJUNOK_clean_linker_0, # of connection points: 2
#     Edge 11, Type (0, 0), BuildingBlock: AJUNOK_clean_linker_0, # of connection points: 2
# Relax obj value: 0.007
# Max RMSD: 0.062
# Mean RMSD: 0.062
data_MOF--net-dmp--node1-ICAMEG_clean_sbu_1--edge1-AJUNOK_clean_linker_0
_symmetry_space_group_name_H-M    P1
_symmetry_Int_Tables_number       1
_symmetry_cell_setting            triclinic
loop_
_symmetry_equiv_pos_as_xyz
'x, y, z'
_cell_length_a     32.482368
_cell_length_b     14.332717
_cell_length_c     14.047488
_cell_angle_alpha  90.141595
_cell_angle_beta   90.060956
_cell_angle_gamma 90.086277
loop_
_atom_site_label
_atom_site_type_symbol
_atom_site_fract_x
_atom_site_fract_y
_atom_site_fract_z
_atom_type_partial_charge
Co0 Co 0.13334 0.23394 0.14936 0.0
Co1 Co 0.13229 0.25062 0.39231 0.0
O2 O 0.10375 0.24828 0.26918 0.0
C3 C 0.06993 0.08354 0.13062 0.0
O4 O 0.08332 0.04775 0.21078 0.0
C5 C 0.07209 0.40702 0.40742 0.0
O6 O 0.08531 0.43796 0.32502 0.0
O7 O 0.16539 0.35952 0.34902 0.0
O8 O 0.17981 0.31527 0.19841 0.0
H9 H 0.255 0.26845 0.61187 0.0
H10 H 0.04854 0.31018 0.15816 0.0
O11 O 0.08648 0.15731 0.09794 0.0
H12 H 0.12982 0.5429 0.98092 0.0
H13 H 0.1447 0.1438 0.80544 0.0
H14 H 0.22133 0.20925 0.10069 0.0
H15 H 0.16145 0.39558 0.03388 0.0
H16 H 0.10927 0.21112 0.94411 0.0
O17 O 0.08768 0.33378 0.44322 0.0
H18 H 0.22011 0.24005 0.45976 0.0
H19 H 0.10364 0.26993 0.59407 0.0
H20 H 0.25869 0.15289 0.95976 0.0
H21 H 0.0158 0.4573 0.10813 0.0
H22 H 0.22009 0.11619 0.81162 0.0
H23 H 0.05667 0.5753 0.01949 0.0
O24 O 0.16067 0.12022 0.1983 0.0
H25 H 0.00621 0.04888 0.40521 0.0
H26 H 0.15313 0.07288 0.49029 0.0
H27 H 0.11546 0.92708 0.52366 0.0
H28 H 0.04176 0.91353 0.4786 0.0
H29 H 0.04469 0.19443 0.37609 0.0
H30 H 0.1376 0.3114 0.74431 0.0
H31 H 0.21399 0.31078 0.7544 0.0
O32 O 0.17734 0.16718 0.34505 0.0
C33 C 0.18627 0.36656 0.27201 0.0
C34 C 0.22173 0.27019 0.60812 0.0
C35 C 0.15593 0.29443 0.68237 0.0
N36 N 0.15959 0.25681 0.51591 0.0
C37 C 0.20157 0.25268 0.52202 0.0
C38 C 0.13682 0.27249 0.59619 0.0
C39 C 0.19872 0.29381 0.68806 0.0
C40 C 0.06642 0.36097 0.11916 0.0
N41 N 0.10703 0.34503 0.10012 0.0
C42 C 0.04769 0.44404 0.09079 0.0
C43 C 0.07063 0.51023 0.0412 0.0
C44 C 0.11174 0.49229 0.01984 0.0
C45 C 0.12952 0.40882 0.0501 0.0
C46 C 0.16197 0.16091 0.86903 0.0
C47 C 0.20461 0.19922 0.03495 0.0
C48 C 0.14198 0.19829 0.94831 0.0
N49 N 0.16303 0.21384 0.03113 0.0
C50 C 0.22589 0.16555 0.95574 0.0
C51 C 0.20422 0.14473 0.8728 0.0
C52 C 0.18245 0.11455 0.27306 0.0
C53 C 0.03825 0.05409 0.42572 0.0
C54 C 0.12073 0.06852 0.4732 0.0
C55 C 0.09963 0.98558 0.49171 0.0
C56 C 0.05824 0.97812 0.46666 0.0
N57 N 0.10107 0.14214 0.43156 0.0
C58 C 0.06018 0.13638 0.4095 0.0
Co59 Co 0.38154 0.74537 0.35909 0.0
Co60 Co 0.37086 0.76049 0.11831 0.0
O61 O 0.40569 0.75107 0.23161 0.0
C62 C 0.44325 0.59117 0.37094 0.0
O63 O 0.42644 0.55275 0.29534 0.0
C64 C 0.43346 0.91046 0.08739 0.0
O65 O 0.42368 0.94512 0.17096 0.0
O66 O 0.34431 0.87324 0.17195 0.0
O67 O 0.3331 0.82369 0.32058 0.0
H68 H 0.23663 0.82117 0.95315 0.0
H69 H 0.46723 0.81209 0.33294 0.0
O70 O 0.42953 0.66841 0.40241 0.0
H71 H 0.39418 0.06962 0.49332 0.0
H72 H 0.38815 0.69388 0.71224 0.0
H73 H 0.29639 0.72718 0.4349 0.0
H74 H 0.35889 0.92051 0.46063 0.0
H75 H 0.41612 0.74061 0.55659 0.0
O76 O 0.41472 0.83857 0.05625 0.0
H77 H 0.28071 0.7752 0.0872 0.0
H78 H 0.38605 0.78233 0.90854 0.0
H79 H 0.26691 0.68706 0.59062 0.0
H80 H 0.50369 0.96036 0.36385 0.0
H81 H 0.31313 0.66347 0.72904 0.0
H82 H 0.46683 0.09096 0.44306 0.0
O83 O 0.35057 0.63221 0.32065 0.0
H84 H 0.48849 0.54227 0.05737 0.0
H85 H 0.33968 0.59333 0.01463 0.0
H86 H 0.37086 0.44707 0.95679 0.0
H87 H 0.44576 0.42026 0.97907 0.0
H88 H 0.45639 0.68915 0.11023 0.0
H89 H 0.34389 0.84241 0.7769 0.0
H90 H 0.26834 0.85781 0.7968 0.0
O91 O 0.32733 0.67786 0.1777 0.0
C92 C 0.32558 0.87794 0.25114 0.0
C93 C 0.26945 0.81309 0.94285 0.0
C94 C 0.32958 0.82414 0.84375 0.0
N95 N 0.33618 0.77598 0.00649 0.0
C96 C 0.2946 0.78546 0.01835 0.0
C97 C 0.35348 0.79171 0.91937 0.0
C98 C 0.28724 0.83379 0.8553 0.0
C99 C 0.4513 0.86801 0.36914 0.0
N100 N 0.41101 0.85777 0.39485 0.0
C101 C 0.47204 0.95188 0.38615 0.0
C102 C 0.45133 0.02514 0.43054 0.0
C103 C 0.41053 0.01332 0.45858 0.0
C104 C 0.39075 0.92864 0.44006 0.0
C105 C 0.36777 0.70189 0.65178 0.0
C106 C 0.3166 0.72287 0.49584 0.0
C107 C 0.38345 0.72816 0.56331 0.0
N108 N 0.35814 0.73462 0.4858 0.0
C109 C 0.29971 0.69864 0.58372 0.0
C110 C 0.32567 0.68548 0.66137 0.0
C111 C 0.32576 0.62432 0.25058 0.0
C112 C 0.45597 0.55354 0.04604 0.0
C113 C 0.37242 0.58299 0.02278 0.0
C114 C 0.38988 0.49987 0.99024 0.0
C115 C 0.43192 0.48495 0.00261 0.0
N116 N 0.39622 0.64971 0.06558 0.0
C117 C 0.43757 0.63639 0.07632 0.0
Co118 Co 0.87247 0.7664 0.87967 0.0
Co119 Co 0.87806 0.74621 0.63782 0.0
O120 O 0.90491 0.74987 0.76352 0.0
C121 C 0.93721 0.91422 0.90596 0.0
O122 O 0.92642 0.95189 0.82458 0.0
C123 C 0.94091 0.59333 0.62053 0.0
O124 O 0.92962 0.56142 0.70411 0.0
O125 O 0.84625 0.63488 0.6792 0.0
O126 O 0.82729 0.68435 0.82565 0.0
H127 H 0.76028 0.68841 0.41328 0.0
H128 H 0.95691 0.6883 0.88262 0.0
O129 O 0.9183 0.84253 0.9364 0.0
H130 H 0.87191 0.46662 0.06511 0.0
H131 H 0.85083 0.86214 0.2205 0.0
H132 H 0.78315 0.78768 0.91639 0.0
H133 H 0.84095 0.6077 0.99514 0.0
H134 H 0.89087 0.79643 0.08797 0.0
O135 O 0.92419 0.66655 0.58713 0.0
H136 H 0.79203 0.72546 0.56832 0.0
H137 H 0.9086 0.75658 0.4382 0.0
H138 H 0.74125 0.84036 0.05152 0.0
H139 H 0.98871 0.54596 0.94764 0.0
H140 H 0.77525 0.88047 0.20474 0.0
H141 H 0.94615 0.43421 0.04039 0.0
O142 O 0.84692 0.87996 0.82533 0.0
H143 H 1.00188 0.95533 0.63107 0.0
H144 H 0.85579 0.92402 0.54083 0.0
H145 H 0.89216 0.07196 0.50952 0.0
H146 H 0.96547 0.089 0.55673 0.0
H147 H 0.96464 0.80779 0.65866 0.0
H148 H 0.87924 0.71269 0.28254 0.0
H149 H 0.80438 0.67804 0.2693 0.0
O150 O 0.83089 0.82606 0.68099 0.0
C151 C 0.82374 0.62953 0.75375 0.0
C152 C 0.79301 0.70195 0.41818 0.0
C153 C 0.85968 0.71586 0.34478 0.0
N154 N 0.85241 0.73836 0.51313 0.0
C155 C 0.81106 0.72297 0.50592 0.0
C156 C 0.8763 0.73947 0.43326 0.0
C157 C 0.81774 0.69642 0.33744 0.0
C158 C 0.93815 0.63965 0.92222 0.0
N159 N 0.89712 0.65607 0.9348 0.0
C160 C 0.95639 0.55947 0.95946 0.0
C161 C 0.93249 0.49678 0.01131 0.0
C162 C 0.8908 0.51483 0.0251 0.0
C163 C 0.87348 0.59503 0.98561 0.0
C164 C 0.83556 0.84244 0.15505 0.0
C165 C 0.79803 0.79967 0.98393 0.0
C166 C 0.85823 0.8067 0.07885 0.0
N167 N 0.83966 0.78857 0.99341 0.0
C168 C 0.77412 0.83106 0.06004 0.0
C169 C 0.79318 0.85372 0.14581 0.0
C170 C 0.82563 0.88266 0.74969 0.0
C171 C 0.97001 0.94861 0.60963 0.0
C172 C 0.88798 0.93017 0.55947 0.0
C173 C 0.90836 0.01422 0.54191 0.0
C174 C 0.94953 0.02364 0.56818 0.0
N175 N 0.90814 0.85736 0.60137 0.0
C176 C 0.94879 0.8652 0.62497 0.0
Co177 Co 0.63685 0.26416 0.62142 0.0
Co178 Co 0.63016 0.23675 0.8602 0.0
O179 O 0.60345 0.24972 0.73603 0.0
C180 C 0.57312 0.412 0.59421 0.0
O181 O 0.58367 0.448 0.67679 0.0
C182 C 0.56594 0.08725 0.86931 0.0
O183 O 0.58028 0.0529 0.78923 0.0
O184 O 0.65888 0.12405 0.81216 0.0
O185 O 0.68235 0.18525 0.67584 0.0
H186 H 0.74761 0.15509 0.07711 0.0
H187 H 0.55207 0.1883 0.61265 0.0
O188 O 0.59158 0.34001 0.56299 0.0
H189 H 0.63954 0.95197 0.45717 0.0
H190 H 0.65938 0.33493 0.27491 0.0
H191 H 0.726 0.29442 0.58686 0.0
H192 H 0.66954 0.09932 0.51637 0.0
H193 H 0.61907 0.2812 0.41268 0.0
O194 O 0.58222 0.16015 0.90508 0.0
H195 H 0.71532 0.19596 0.92405 0.0
H196 H 0.59991 0.2324 0.06065 0.0
H197 H 0.76809 0.33724 0.44823 0.0
H198 H 0.52113 0.04045 0.55795 0.0
H199 H 0.73467 0.35916 0.29077 0.0
H200 H 0.56484 0.92138 0.47862 0.0
O201 O 0.66222 0.37654 0.67846 0.0
H202 H 0.51139 0.45889 0.88593 0.0
H203 H 0.65673 0.40426 0.97003 0.0
H204 H 0.62402 0.55324 0.01445 0.0
H205 H 0.55115 0.58216 0.97056 0.0
H206 H 0.54513 0.31015 0.84439 0.0
H207 H 0.63016 0.18472 0.21372 0.0
H208 H 0.70472 0.14723 0.22319 0.0
O209 O 0.67869 0.31636 0.82024 0.0
C210 C 0.68384 0.12475 0.74225 0.0
C211 C 0.71519 0.17218 0.07419 0.0
C212 C 0.6493 0.18883 0.15083 0.0
N213 N 0.65591 0.21791 0.98338 0.0
C214 C 0.69686 0.1967 0.98784 0.0
C215 C 0.6323 0.21554 0.06381 0.0
C216 C 0.6911 0.16755 0.15603 0.0
C217 C 0.57127 0.13696 0.57795 0.0
N218 N 0.61249 0.15253 0.56731 0.0
C219 C 0.55355 0.05349 0.54679 0.0
C220 C 0.57816 0.98652 0.50283 0.0
C221 C 0.62008 0.00358 0.49087 0.0
C222 C 0.63686 0.08732 0.52415 0.0
C223 C 0.67444 0.32276 0.34236 0.0
C224 C 0.71139 0.29954 0.51798 0.0
C225 C 0.65164 0.29384 0.42121 0.0
N226 N 0.67 0.28444 0.50823 0.0
C227 C 0.73539 0.32506 0.43983 0.0
C228 C 0.71664 0.33745 0.35159 0.0
C229 C 0.68406 0.3761 0.75381 0.0
C230 C 0.54313 0.44703 0.90576 0.0
C231 C 0.62472 0.41554 0.95244 0.0
C232 C 0.60641 0.50014 0.97753 0.0
C233 C 0.56545 0.51616 0.95313 0.0
N234 N 0.60279 0.34862 0.9048 0.0
C235 C 0.56237 0.36292 0.88252 0.0
C236 C 0.25003 0.90163 0.2464 0.0
C237 C 0.28971 0.93921 0.25838 0.0
C238 C 0.2151 0.9588 0.25101 0.0
C239 C 0.21895 0.0544 0.27084 0.0
H240 H 0.24604 0.82777 0.23256 0.0
H241 H 0.18496 0.92809 0.23998 0.0
S242 S 0.31614 0.1857 0.30806 0.0
N243 N 0.33107 0.07694 0.28965 0.0
N244 N 0.26535 0.18441 0.30156 0.0
C245 C 0.25848 0.09237 0.28419 0.0
C246 C 0.29399 0.0346 0.27726 0.0
C247 C 0.23399 0.47225 0.18137 0.0
C248 C 0.22138 0.43348 0.26865 0.0
C249 C 0.26776 0.5333 0.17597 0.0
C250 C 0.29148 0.55533 0.25703 0.0
H251 H 0.21737 0.45649 0.11662 0.0
H252 H 0.27533 0.56306 0.1074 0.0
S253 S 0.27329 0.46675 0.50186 0.0
N254 N 0.2354 0.42245 0.43798 0.0
N255 N 0.30131 0.52751 0.4264 0.0
C256 C 0.28012 0.51406 0.34407 0.0
C257 C 0.24449 0.4559 0.35027 0.0
C258 C 0.7595 0.09939 0.74349 0.0
C259 C 0.71941 0.06195 0.74461 0.0
C260 C 0.7941 0.041 0.7464 0.0
C261 C 0.78943 0.94371 0.74734 0.0
H262 H 0.76406 0.17428 0.74168 0.0
H263 H 0.82457 0.07188 0.74659 0.0
S264 S 0.69115 0.81191 0.74861 0.0
N265 N 0.677 0.9226 0.74746 0.0
N266 N 0.74202 0.81248 0.74828 0.0
C267 C 0.74955 0.90568 0.7471 0.0
C268 C 0.71444 0.96502 0.74698 0.0
C269 C 0.7533 0.58281 0.7019 0.0
C270 C 0.78914 0.56299 0.7539 0.0
C271 C 0.71929 0.52281 0.70374 0.0
C272 C 0.71961 0.44093 0.75871 0.0
H273 H 0.75099 0.64564 0.66037 0.0
H274 H 0.69245 0.5411 0.66195 0.0
S275 S 0.80692 0.3565 0.90615 0.0
N276 N 0.82363 0.45545 0.86011 0.0
N277 N 0.75957 0.34267 0.86564 0.0
C278 C 0.75534 0.42063 0.8118 0.0
C279 C 0.79013 0.48166 0.80892 0.0
C280 C 0.02018 0.08232 0.99348 0.0
C281 C 0.03592 0.03851 0.07569 0.0
C282 C 0.9886 0.04163 0.93904 0.0
C283 C 0.97122 0.95522 0.96423 0.0
H284 H 0.03225 0.1491 0.97064 0.0
H285 H 0.97764 0.07873 0.87692 0.0
S286 S 1.0022 0.8095 0.17124 0.0
N287 N 0.03196 0.90262 0.17859 0.0
N288 N 0.97322 0.82553 0.07618 0.0
C289 C 0.98689 0.91008 0.04592 0.0
C290 C 0.01898 0.95182 0.1016 0.0
C291 C 0.51729 0.07941 0.00792 0.0
C292 C 0.5315 0.04099 0.92139 0.0
C293 C 0.48573 0.03699 0.06054 0.0
C294 C 0.46674 0.95414 0.02919 0.0
H295 H 0.53073 0.14296 0.03603 0.0
H296 H 0.47625 0.0697 0.12656 0.0
S297 S 0.49233 0.82432 0.80717 0.0
N298 N 0.52374 0.91492 0.80652 0.0
N299 N 0.46491 0.83463 0.90544 0.0
C300 C 0.48055 0.91483 0.94258 0.0
C301 C 0.51271 0.95833 0.88877 0.0
C302 C 1.00258 0.48772 0.61022 0.0
C303 C 0.97372 0.54539 0.56445 0.0
C304 C 0.0343 0.44382 0.55901 0.0
C305 C 0.03861 0.45579 0.45984 0.0
H306 H 1.00101 0.47719 0.68647 0.0
H307 H 0.05588 0.40088 0.59793 0.0
S308 S 0.96878 0.59155 0.30408 0.0
N309 N 0.95 0.6059 0.41222 0.0
N310 N 0.00981 0.52508 0.3171 0.0
C311 C 0.00968 0.51196 0.41293 0.0
C312 C 0.97722 0.55616 0.46487 0.0
C313 C 0.49438 0.58782 0.50499 0.0
C314 C 0.47703 0.54397 0.42425 0.0
C315 C 0.52508 0.54458 0.55949 0.0
C316 C 0.54009 0.45563 0.53562 0.0
H317 H 0.48414 0.65642 0.52699 0.0
H318 H 0.53724 0.58172 0.62064 0.0
S319 S 0.50486 0.30933 0.33192 0.0
N320 N 0.47722 0.40553 0.32369 0.0
N321 N 0.53472 0.32413 0.42588 0.0
C322 C 0.52312 0.41072 0.45496 0.0
C323 C 0.49174 0.45486 0.39941 0.0
loop_
_geom_bond_atom_site_label_1
_geom_bond_atom_site_label_2
_geom_bond_distance
_geom_bond_site_symmetry_2
_ccdc_geom_bond_type
Co0 O2 2.143 . S
Co0 O8 2.074 . S
Co0 O11 2.093 . S
Co0 O24 2.097 . S
Co0 N41 2.151 . S
Co0 N49 2.214 1_554 S
Co1 O2 2.160 . S
Co1 O7 2.058 . S
Co1 O17 2.057 . S
Co1 O32 2.037 . S
Co1 N36 2.145 . S
Co1 N57 2.257 . S
O2 Co0 2.143 . S
O2 Co1 2.160 . S
C3 O4 1.278 . S
C3 O11 1.224 . S
O4 C3 1.278 . S
C5 O6 1.245 . S
C5 O17 1.232 . S
O6 C5 1.245 . S
O7 Co1 2.058 . S
O7 C33 1.269 . S
O8 Co0 2.074 . S
O8 C33 1.257 . S
H9 C34 0.930 . S
H10 C40 0.930 . S
O11 Co0 2.093 . S
O11 C3 1.224 . S
H12 C44 0.929 . S
H13 C46 0.930 . S
H14 C47 0.930 . S
H15 C45 0.929 . S
H16 C48 0.928 . S
O17 Co1 2.057 . S
O17 C5 1.232 . S
H18 C37 0.929 . S
H19 C38 0.929 . S
H20 C50 0.931 . S
H21 C42 0.929 . S
H22 C51 0.930 . S
H23 C43 0.931 . S
O24 Co0 2.097 . S
O24 C52 1.214 . S
H25 C53 0.929 . S
H26 C54 0.929 . S
H27 C55 0.930 . S
H28 C56 0.929 . S
H29 C58 0.930 . S
H30 C35 0.930 . S
H31 C39 0.930 . S
O32 Co1 2.037 . S
O32 C52 1.234 . S
C33 O7 1.269 . S
C33 O8 1.257 . S
C34 H9 0.930 . S
C34 C37 1.388 . S
C34 C39 1.418 . S
C35 H30 0.930 . S
C35 C38 1.404 . S
C35 C39 1.353 . S
N36 Co1 2.145 . S
N36 C37 1.397 . S
N36 C38 1.334 . S
C37 H18 0.929 . S
C37 C34 1.388 . S
C37 N36 1.397 . S
C38 H19 0.929 . S
C38 C35 1.404 . S
C38 N36 1.334 . S
C39 H31 0.930 . S
C39 C34 1.418 . S
C39 C35 1.353 . S
C40 H10 0.930 . S
C40 N41 1.330 . S
C40 C42 1.446 1_554 S
N41 Co0 2.151 . S
N41 C40 1.330 . S
N41 C45 1.418 1_554 S
C42 H21 0.929 . S
C42 C40 1.446 1_556 S
C42 C43 1.332 . S
C43 H23 0.931 . S
C43 C42 1.332 . S
C43 C44 1.267 . S
C44 H12 0.929 . S
C44 C43 1.267 . S
C44 C45 1.251 . S
C45 H15 0.929 . S
C45 N41 1.418 1_556 S
C45 C44 1.251 . S
C46 H13 0.930 . S
C46 C48 1.406 . S
C46 C51 1.261 . S
C47 H14 0.930 . S
C47 N49 1.325 1_554 S
C47 C50 1.357 1_554 S
C48 H16 0.928 . S
C48 C46 1.406 . S
C48 N49 1.261 . S
N49 Co0 2.214 1_556 S
N49 C47 1.325 1_556 S
N49 C48 1.261 . S
C50 H20 0.931 . S
C50 C47 1.357 1_556 S
C50 C51 1.312 . S
C51 H22 0.930 . S
C51 C46 1.261 . S
C51 C50 1.312 . S
C52 O24 1.214 . S
C52 O32 1.234 . S
C53 H25 0.929 . S
C53 C56 1.391 1_545 S
C53 C58 1.391 . S
C54 H26 0.929 . S
C54 C55 1.390 1_545 S
C54 N57 1.391 . S
C55 H27 0.930 . S
C55 C54 1.390 1_565 S
C55 C56 1.392 . S
C56 H28 0.929 . S
C56 C53 1.391 1_565 S
C56 C55 1.392 . S
N57 Co1 2.257 . S
N57 C54 1.391 . S
N57 C58 1.388 . S
C58 H29 0.930 . S
C58 C53 1.391 . S
C58 N57 1.388 . S
Co59 O61 2.143 . S
Co59 O67 2.074 . S
Co59 O70 2.093 . S
Co59 O83 2.097 . S
Co59 N100 2.151 . S
Co59 N108 2.214 . S
Co60 O61 2.160 . S
Co60 O66 2.058 . S
Co60 O76 2.057 . S
Co60 O91 2.037 . S
Co60 N95 2.145 1_554 S
Co60 N116 2.257 . S
O61 Co59 2.143 . S
O61 Co60 2.160 . S
C62 O63 1.278 . S
C62 O70 1.224 . S
O63 C62 1.278 . S
C64 O65 1.245 . S
C64 O76 1.232 . S
O65 C64 1.245 . S
O66 Co60 2.058 . S
O66 C92 1.269 . S
O67 Co59 2.074 . S
O67 C92 1.257 . S
H68 C93 0.930 . S
H69 C99 0.930 . S
O70 Co59 2.093 . S
O70 C62 1.224 . S
H71 C103 0.929 1_545 S
H72 C105 0.930 . S
H73 C106 0.930 . S
H74 C104 0.929 . S
H75 C107 0.928 . S
O76 Co60 2.057 . S
O76 C64 1.232 . S
H77 C96 0.929 1_554 S
H78 C97 0.929 . S
H79 C109 0.931 . S
H80 C101 0.929 . S
H81 C110 0.930 . S
H82 C102 0.931 1_545 S
O83 Co59 2.097 . S
O83 C111 1.214 . S
H84 C112 0.929 . S
H85 C113 0.929 . S
H86 C114 0.930 1_556 S
H87 C115 0.929 1_556 S
H88 C117 0.930 . S
H89 C94 0.930 . S
H90 C98 0.930 . S
O91 Co60 2.037 . S
O91 C111 1.234 . S
C92 O66 1.269 . S
C92 O67 1.257 . S
C93 H68 0.930 . S
C93 C96 1.388 . S
C93 C98 1.418 . S
C94 H89 0.930 . S
C94 C97 1.404 . S
C94 C98 1.353 . S
N95 Co60 2.145 1_556 S
N95 C96 1.397 . S
N95 C97 1.334 . S
C96 H77 0.929 1_556 S
C96 C93 1.388 . S
C96 N95 1.397 . S
C97 H78 0.929 . S
C97 C94 1.404 . S
C97 N95 1.334 . S
C98 H90 0.930 . S
C98 C93 1.418 . S
C98 C94 1.353 . S
C99 H69 0.930 . S
C99 N100 1.330 . S
C99 C101 1.446 . S
N100 Co59 2.151 . S
N100 C99 1.330 . S
N100 C104 1.418 . S
C101 H80 0.929 . S
C101 C99 1.446 . S
C101 C102 1.332 . S
C102 H82 0.931 1_565 S
C102 C101 1.332 . S
C102 C103 1.267 . S
C103 H71 0.929 1_565 S
C103 C102 1.267 . S
C103 C104 1.251 . S
C104 H74 0.929 . S
C104 N100 1.418 . S
C104 C103 1.251 . S
C105 H72 0.930 . S
C105 C107 1.406 . S
C105 C110 1.261 . S
C106 H73 0.930 . S
C106 N108 1.325 . S
C106 C109 1.357 . S
C107 H75 0.928 . S
C107 C105 1.406 . S
C107 N108 1.261 . S
N108 Co59 2.214 . S
N108 C106 1.325 . S
N108 C107 1.261 . S
C109 H79 0.931 . S
C109 C106 1.357 . S
C109 C110 1.312 . S
C110 H81 0.930 . S
C110 C105 1.261 . S
C110 C109 1.312 . S
C111 O83 1.214 . S
C111 O91 1.234 . S
C112 H84 0.929 . S
C112 C115 1.391 . S
C112 C117 1.391 . S
C113 H85 0.929 . S
C113 C114 1.390 . S
C113 N116 1.391 . S
C114 H86 0.930 1_554 S
C114 C113 1.390 . S
C114 C115 1.392 . S
C115 H87 0.929 1_554 S
C115 C112 1.391 . S
C115 C114 1.392 . S
N116 Co60 2.257 . S
N116 C113 1.391 . S
N116 C117 1.388 . S
C117 H88 0.930 . S
C117 C112 1.391 . S
C117 N116 1.388 . S
Co118 O120 2.143 . S
Co118 O126 2.074 . S
Co118 O129 2.093 . S
Co118 O142 2.097 . S
Co118 N159 2.151 . S
Co118 N167 2.214 1_556 S
Co119 O120 2.160 . S
Co119 O125 2.058 . S
Co119 O135 2.057 . S
Co119 O150 2.037 . S
Co119 N154 2.145 . S
Co119 N175 2.257 . S
O120 Co118 2.143 . S
O120 Co119 2.160 . S
C121 O122 1.278 . S
C121 O129 1.224 . S
O122 C121 1.278 . S
C123 O124 1.245 . S
C123 O135 1.232 . S
O124 C123 1.245 . S
O125 Co119 2.058 . S
O125 C151 1.269 . S
O126 Co118 2.074 . S
O126 C151 1.257 . S
H127 C152 0.930 . S
H128 C158 0.930 . S
O129 Co118 2.093 . S
O129 C121 1.224 . S
H130 C162 0.929 . S
H131 C164 0.930 . S
H132 C165 0.930 . S
H133 C163 0.929 . S
H134 C166 0.928 . S
O135 Co119 2.057 . S
O135 C123 1.232 . S
H136 C155 0.929 . S
H137 C156 0.929 . S
H138 C168 0.931 . S
H139 C160 0.929 . S
H140 C169 0.930 . S
H141 C161 0.931 . S
O142 Co118 2.097 . S
O142 C170 1.214 . S
H143 C171 0.929 . S
H144 C172 0.929 . S
H145 C173 0.930 . S
H146 C174 0.929 . S
H147 C176 0.930 . S
H148 C153 0.930 . S
H149 C157 0.930 . S
O150 Co119 2.037 . S
O150 C170 1.234 . S
C151 O125 1.269 . S
C151 O126 1.257 . S
C152 H127 0.930 . S
C152 C155 1.388 . S
C152 C157 1.418 . S
C153 H148 0.930 . S
C153 C156 1.404 . S
C153 C157 1.353 . S
N154 Co119 2.145 . S
N154 C155 1.397 . S
N154 C156 1.334 . S
C155 H136 0.929 . S
C155 C152 1.388 . S
C155 N154 1.397 . S
C156 H137 0.929 . S
C156 C153 1.404 . S
C156 N154 1.334 . S
C157 H149 0.930 . S
C157 C152 1.418 . S
C157 C153 1.353 . S
C158 H128 0.930 . S
C158 N159 1.330 . S
C158 C160 1.446 1_556 S
N159 Co118 2.151 . S
N159 C158 1.330 . S
N159 C163 1.418 1_556 S
C160 H139 0.929 . S
C160 C158 1.446 1_554 S
C160 C161 1.332 . S
C161 H141 0.931 . S
C161 C160 1.332 . S
C161 C162 1.267 . S
C162 H130 0.929 . S
C162 C161 1.267 . S
C162 C163 1.251 . S
C163 H133 0.929 . S
C163 N159 1.418 1_554 S
C163 C162 1.251 . S
C164 H131 0.930 . S
C164 C166 1.406 . S
C164 C169 1.261 . S
C165 H132 0.930 . S
C165 N167 1.325 1_556 S
C165 C168 1.357 1_556 S
C166 H134 0.928 . S
C166 C164 1.406 . S
C166 N167 1.261 . S
N167 Co118 2.214 1_554 S
N167 C165 1.325 1_554 S
N167 C166 1.261 . S
C168 H138 0.931 . S
C168 C165 1.357 1_554 S
C168 C169 1.312 . S
C169 H140 0.930 . S
C169 C164 1.261 . S
C169 C168 1.312 . S
C170 O142 1.214 . S
C170 O150 1.234 . S
C171 H143 0.929 . S
C171 C174 1.391 1_565 S
C171 C176 1.391 . S
C172 H144 0.929 . S
C172 C173 1.390 1_565 S
C172 N175 1.391 . S
C173 H145 0.930 . S
C173 C172 1.390 1_545 S
C173 C174 1.392 . S
C174 H146 0.929 . S
C174 C171 1.391 1_545 S
C174 C173 1.392 . S
N175 Co119 2.257 . S
N175 C172 1.391 . S
N175 C176 1.388 . S
C176 H147 0.930 . S
C176 C171 1.391 . S
C176 N175 1.388 . S
Co177 O179 2.143 . S
Co177 O185 2.074 . S
Co177 O188 2.093 . S
Co177 O201 2.097 . S
Co177 N218 2.151 . S
Co177 N226 2.214 . S
Co178 O179 2.160 . S
Co178 O184 2.058 . S
Co178 O194 2.057 . S
Co178 O209 2.037 . S
Co178 N213 2.145 1_556 S
Co178 N234 2.257 . S
O179 Co177 2.143 . S
O179 Co178 2.160 . S
C180 O181 1.278 . S
C180 O188 1.224 . S
O181 C180 1.278 . S
C182 O183 1.245 . S
C182 O194 1.232 . S
O183 C182 1.245 . S
O184 Co178 2.058 . S
O184 C210 1.269 . S
O185 Co177 2.074 . S
O185 C210 1.257 . S
H186 C211 0.930 . S
H187 C217 0.930 . S
O188 Co177 2.093 . S
O188 C180 1.224 . S
H189 C221 0.929 1_565 S
H190 C223 0.930 . S
H191 C224 0.930 . S
H192 C222 0.929 . S
H193 C225 0.928 . S
O194 Co178 2.057 . S
O194 C182 1.232 . S
H195 C214 0.929 1_556 S
H196 C215 0.929 . S
H197 C227 0.931 . S
H198 C219 0.929 . S
H199 C228 0.930 . S
H200 C220 0.931 1_565 S
O201 Co177 2.097 . S
O201 C229 1.214 . S
H202 C230 0.929 . S
H203 C231 0.929 . S
H204 C232 0.930 1_554 S
H205 C233 0.929 1_554 S
H206 C235 0.930 . S
H207 C212 0.930 . S
H208 C216 0.930 . S
O209 Co178 2.037 . S
O209 C229 1.234 . S
C210 O184 1.269 . S
C210 O185 1.257 . S
C211 H186 0.930 . S
C211 C214 1.388 . S
C211 C216 1.418 . S
C212 H207 0.930 . S
C212 C215 1.404 . S
C212 C216 1.353 . S
N213 Co178 2.145 1_554 S
N213 C214 1.397 . S
N213 C215 1.334 . S
C214 H195 0.929 1_554 S
C214 C211 1.388 . S
C214 N213 1.397 . S
C215 H196 0.929 . S
C215 C212 1.404 . S
C215 N213 1.334 . S
C216 H208 0.930 . S
C216 C211 1.418 . S
C216 C212 1.353 . S
C217 H187 0.930 . S
C217 N218 1.330 . S
C217 C219 1.446 . S
N218 Co177 2.151 . S
N218 C217 1.330 . S
N218 C222 1.418 . S
C219 H198 0.929 . S
C219 C217 1.446 . S
C219 C220 1.332 . S
C220 H200 0.931 1_545 S
C220 C219 1.332 . S
C220 C221 1.267 . S
C221 H189 0.929 1_545 S
C221 C220 1.267 . S
C221 C222 1.251 . S
C222 H192 0.929 . S
C222 N218 1.418 . S
C222 C221 1.251 . S
C223 H190 0.930 . S
C223 C225 1.406 . S
C223 C228 1.261 . S
C224 H191 0.930 . S
C224 N226 1.325 . S
C224 C227 1.357 . S
C225 H193 0.928 . S
C225 C223 1.406 . S
C225 N226 1.261 . S
N226 Co177 2.214 . S
N226 C224 1.325 . S
N226 C225 1.261 . S
C227 H197 0.931 . S
C227 C224 1.357 . S
C227 C228 1.312 . S
C228 H199 0.930 . S
C228 C223 1.261 . S
C228 C227 1.312 . S
C229 O201 1.214 . S
C229 O209 1.234 . S
C230 H202 0.929 . S
C230 C233 1.391 . S
C230 C235 1.391 . S
C231 H203 0.929 . S
C231 C232 1.390 . S
C231 N234 1.391 . S
C232 H204 0.930 1_556 S
C232 C231 1.390 . S
C232 C233 1.392 . S
C233 H205 0.929 1_556 S
C233 C230 1.391 . S
C233 C232 1.392 . S
N234 Co178 2.257 . S
N234 C231 1.391 . S
N234 C235 1.388 . S
C235 H206 0.930 . S
C235 C230 1.391 . S
C235 N234 1.388 . S
C236 C237 1.369 . S
C236 C238 1.419 . S
C236 H240 0.930 . S
C237 C236 1.369 . S
C237 C246 1.429 1_565 S
C238 C236 1.419 . S
C238 C239 1.363 1_565 S
C238 H241 0.929 . S
C239 C238 1.363 1_545 S
C239 C245 1.428 . S
H240 C236 0.930 . S
H241 C238 0.929 . S
S242 N243 1.613 . S
S242 N244 1.610 . S
N243 S242 1.613 . S
N243 C246 1.350 . S
N244 S242 1.610 . S
N244 C245 1.351 . S
C245 C239 1.428 . S
C245 N244 1.351 . S
C245 C246 1.434 . S
C246 C237 1.429 1_545 S
C246 N243 1.350 . S
C246 C245 1.434 . S
C247 C248 1.369 . S
C247 C249 1.419 . S
C247 H251 0.930 . S
C248 C247 1.369 . S
C248 C257 1.429 . S
C249 C247 1.419 . S
C249 C250 1.363 . S
C249 H252 0.929 . S
C250 C249 1.363 . S
C250 C256 1.428 . S
H251 C247 0.930 . S
H252 C249 0.929 . S
S253 N254 1.613 . S
S253 N255 1.610 . S
N254 S253 1.613 . S
N254 C257 1.350 . S
N255 S253 1.610 . S
N255 C256 1.351 . S
C256 C250 1.428 . S
C256 N255 1.351 . S
C256 C257 1.434 . S
C257 C248 1.429 . S
C257 N254 1.350 . S
C257 C256 1.434 . S
C258 C259 1.369 . S
C258 C260 1.419 . S
C258 H262 0.930 . S
C259 C258 1.369 . S
C259 C268 1.429 1_545 S
C260 C258 1.419 . S
C260 C261 1.363 1_545 S
C260 H263 0.929 . S
C261 C260 1.363 1_565 S
C261 C267 1.428 . S
H262 C258 0.930 . S
H263 C260 0.929 . S
S264 N265 1.613 . S
S264 N266 1.610 . S
N265 S264 1.613 . S
N265 C268 1.350 . S
N266 S264 1.610 . S
N266 C267 1.351 . S
C267 C261 1.428 . S
C267 N266 1.351 . S
C267 C268 1.434 . S
C268 C259 1.429 1_565 S
C268 N265 1.350 . S
C268 C267 1.434 . S
C269 C270 1.369 . S
C269 C271 1.419 . S
C269 H273 0.930 . S
C270 C269 1.369 . S
C270 C279 1.429 . S
C271 C269 1.419 . S
C271 C272 1.363 . S
C271 H274 0.929 . S
C272 C271 1.363 . S
C272 C278 1.428 . S
H273 C269 0.930 . S
H274 C271 0.929 . S
S275 N276 1.613 . S
S275 N277 1.610 . S
N276 S275 1.613 . S
N276 C279 1.350 . S
N277 S275 1.610 . S
N277 C278 1.351 . S
C278 C272 1.428 . S
C278 N277 1.351 . S
C278 C279 1.434 . S
C279 C270 1.429 . S
C279 N276 1.350 . S
C279 C278 1.434 . S
C280 C281 1.369 1_566 S
C280 C282 1.419 . S
C280 H284 0.930 . S
C281 C280 1.369 1_544 S
C281 C290 1.429 1_455 S
C282 C280 1.419 . S
C282 C283 1.363 1_455 S
C282 H285 0.929 . S
C283 C282 1.363 1_655 S
C283 C289 1.428 1_566 S
H284 C280 0.930 . S
H285 C282 0.929 . S
S286 N287 1.613 . S
S286 N288 1.610 . S
N287 S286 1.613 . S
N287 C290 1.350 . S
N288 S286 1.610 . S
N288 C289 1.351 . S
C289 C283 1.428 1_544 S
C289 N288 1.351 . S
C289 C290 1.434 . S
C290 C281 1.429 1_655 S
C290 N287 1.350 . S
C290 C289 1.434 . S
C291 C292 1.369 1_554 S
C291 C293 1.419 1_545 S
C291 H295 0.930 . S
C292 C291 1.369 1_556 S
C292 C301 1.429 . S
C293 C291 1.419 1_565 S
C293 C294 1.363 . S
C293 H296 0.929 . S
C294 C293 1.363 . S
C294 C300 1.428 1_554 S
H295 C291 0.930 . S
H296 C293 0.929 . S
S297 N298 1.613 . S
S297 N299 1.610 1_545 S
N298 S297 1.613 . S
N298 C301 1.350 . S
N299 S297 1.610 1_565 S
N299 C300 1.351 . S
C300 C294 1.428 1_556 S
C300 N299 1.351 . S
C300 C301 1.434 1_565 S
C301 C292 1.429 . S
C301 N298 1.350 . S
C301 C300 1.434 1_545 S
C302 C303 1.369 1_455 S
C302 C304 1.419 . S
C302 H306 0.930 . S
C303 C302 1.369 1_655 S
C303 C312 1.429 . S
C304 C302 1.419 . S
C304 C305 1.363 . S
C304 H307 0.929 . S
C305 C304 1.363 . S
C305 C311 1.428 1_455 S
H306 C302 0.930 . S
H307 C304 0.929 . S
S308 N309 1.613 . S
S308 N310 1.610 . S
N309 S308 1.613 . S
N309 C312 1.350 . S
N310 S308 1.610 . S
N310 C311 1.351 . S
C311 C305 1.428 1_655 S
C311 N310 1.351 . S
C311 C312 1.434 . S
C312 C303 1.429 . S
C312 N309 1.350 . S
C312 C311 1.434 . S
C313 C314 1.369 . S
C313 C315 1.419 . S
C313 H317 0.930 . S
C314 C313 1.369 . S
C314 C323 1.429 . S
C315 C313 1.419 . S
C315 C316 1.363 . S
C315 H318 0.929 . S
C316 C315 1.363 . S
C316 C322 1.428 . S
H317 C313 0.930 . S
H318 C315 0.929 . S
S319 N320 1.613 . S
S319 N321 1.610 . S
N320 S319 1.613 . S
N320 C323 1.350 . S
N321 S319 1.610 . S
N321 C322 1.351 . S
C322 C316 1.428 . S
C322 N321 1.351 . S
C322 C323 1.434 . S
C323 C314 1.429 . S
C323 N320 1.350 . S
C323 C322 1.434 . S
C237 C92 1.378 . S
C239 C52 1.382 . S
C248 C33 1.375 . S
C250 C111 1.381 . S
C259 C210 1.377 . S
C261 C170 1.381 . S
C270 C151 1.378 . S
C272 C229 1.381 . S
C281 C3 1.489 . S
C283 C121 1.487 . S
C292 C182 1.501 . S
C294 C64 1.499 . S
C303 C123 1.498 . S
C305 C5 1.501 . S
C314 C62 1.487 . S
C316 C180 1.489 . S
