# Generated by pormake.
# Topology ubt, (5)-cn, num edge types: 1
# Building blocks:
#     Node 0, Type 0, BuildingBlock: XOMCOT_clean_sbu_1, # of connection points: 5
#     Node 1, Type 0, BuildingBlock: XOMCOT_clean_sbu_1, # of connection points: 5
#     Node 2, Type 0, BuildingBlock: XOMCOT_clean_sbu_1, # of connection points: 5
#     Node 3, Type 0, BuildingBlock: XOMCOT_clean_sbu_1, # of connection points: 5
#     Node 4, Type 0, BuildingBlock: XOMCOT_clean_sbu_1, # of connection points: 5
#     Node 5, Type 0, BuildingBlock: XOMCOT_clean_sbu_1, # of connection points: 5
#     Node 6, Type 0, BuildingBlock: XOMCOT_clean_sbu_1, # of connection points: 5
#     Node 7, Type 0, BuildingBlock: XOMCOT_clean_sbu_1, # of connection points: 5
#     Node 8, Type 0, BuildingBlock: XOMCOT_clean_sbu_1, # of connection points: 5
#     Node 9, Type 0, BuildingBlock: XOMCOT_clean_sbu_1, # of connection points: 5
#     Node 10, Type 0, BuildingBlock: XOMCOT_clean_sbu_1, # of connection points: 5
#     Node 11, Type 0, BuildingBlock: XOMCOT_clean_sbu_1, # of connection points: 5
#     Node 12, Type 0, BuildingBlock: XOMCOT_clean_sbu_1, # of connection points: 5
#     Node 13, Type 0, BuildingBlock: XOMCOT_clean_sbu_1, # of connection points: 5
#     Node 14, Type 0, BuildingBlock: XOMCOT_clean_sbu_1, # of connection points: 5
#     Node 15, Type 0, BuildingBlock: XOMCOT_clean_sbu_1, # of connection points: 5
#     Node 16, Type 0, BuildingBlock: XOMCOT_clean_sbu_1, # of connection points: 5
#     Node 17, Type 0, BuildingBlock: XOMCOT_clean_sbu_1, # of connection points: 5
#     Node 18, Type 0, BuildingBlock: XOMCOT_clean_sbu_1, # of connection points: 5
#     Node 19, Type 0, BuildingBlock: XOMCOT_clean_sbu_1, # of connection points: 5
#     Node 20, Type 0, BuildingBlock: XOMCOT_clean_sbu_1, # of connection points: 5
#     Node 21, Type 0, BuildingBlock: XOMCOT_clean_sbu_1, # of connection points: 5
#     Node 22, Type 0, BuildingBlock: XOMCOT_clean_sbu_1, # of connection points: 5
#     Node 23, Type 0, BuildingBlock: XOMCOT_clean_sbu_1, # of connection points: 5
#     Node 24, Type 0, BuildingBlock: XOMCOT_clean_sbu_1, # of connection points: 5
#     Node 25, Type 0, BuildingBlock: XOMCOT_clean_sbu_1, # of connection points: 5
#     Node 26, Type 0, BuildingBlock: XOMCOT_clean_sbu_1, # of connection points: 5
#     Node 27, Type 0, BuildingBlock: XOMCOT_clean_sbu_1, # of connection points: 5
#     Node 28, Type 0, BuildingBlock: XOMCOT_clean_sbu_1, # of connection points: 5
#     Node 29, Type 0, BuildingBlock: XOMCOT_clean_sbu_1, # of connection points: 5
#     Node 30, Type 0, BuildingBlock: XOMCOT_clean_sbu_1, # of connection points: 5
#     Node 31, Type 0, BuildingBlock: XOMCOT_clean_sbu_1, # of connection points: 5
#     Node 32, Type 0, BuildingBlock: XOMCOT_clean_sbu_1, # of connection points: 5
#     Node 33, Type 0, BuildingBlock: XOMCOT_clean_sbu_1, # of connection points: 5
#     Node 34, Type 0, BuildingBlock: XOMCOT_clean_sbu_1, # of connection points: 5
#     Node 35, Type 0, BuildingBlock: XOMCOT_clean_sbu_1, # of connection points: 5
#     Node 36, Type 0, BuildingBlock: XOMCOT_clean_sbu_1, # of connection points: 5
#     Node 37, Type 0, BuildingBlock: XOMCOT_clean_sbu_1, # of connection points: 5
#     Node 38, Type 0, BuildingBlock: XOMCOT_clean_sbu_1, # of connection points: 5
#     Node 39, Type 0, BuildingBlock: XOMCOT_clean_sbu_1, # of connection points: 5
#     Node 40, Type 0, BuildingBlock: XOMCOT_clean_sbu_1, # of connection points: 5
#     Node 41, Type 0, BuildingBlock: XOMCOT_clean_sbu_1, # of connection points: 5
#     Node 42, Type 0, BuildingBlock: XOMCOT_clean_sbu_1, # of connection points: 5
#     Node 43, Type 0, BuildingBlock: XOMCOT_clean_sbu_1, # of connection points: 5
#     Node 44, Type 0, BuildingBlock: XOMCOT_clean_sbu_1, # of connection points: 5
#     Node 45, Type 0, BuildingBlock: XOMCOT_clean_sbu_1, # of connection points: 5
#     Node 46, Type 0, BuildingBlock: XOMCOT_clean_sbu_1, # of connection points: 5
#     Node 47, Type 0, BuildingBlock: XOMCOT_clean_sbu_1, # of connection points: 5
#     Edge 48, Type (0, 0), BuildingBlock: AJUNOK_clean_linker_0, # of connection points: 2
#     Edge 49, Type (0, 0), BuildingBlock: AJUNOK_clean_linker_0, # of connection points: 2
#     Edge 50, Type (0, 0), BuildingBlock: AJUNOK_clean_linker_0, # of connection points: 2
#     Edge 51, Type (0, 0), BuildingBlock: AJUNOK_clean_linker_0, # of connection points: 2
#     Edge 52, Type (0, 0), BuildingBlock: AJUNOK_clean_linker_0, # of connection points: 2
#     Edge 53, Type (0, 0), BuildingBlock: AJUNOK_clean_linker_0, # of connection points: 2
#     Edge 54, Type (0, 0), BuildingBlock: AJUNOK_clean_linker_0, # of connection points: 2
#     Edge 55, Type (0, 0), BuildingBlock: AJUNOK_clean_linker_0, # of connection points: 2
#     Edge 56, Type (0, 0), BuildingBlock: AJUNOK_clean_linker_0, # of connection points: 2
#     Edge 57, Type (0, 0), BuildingBlock: AJUNOK_clean_linker_0, # of connection points: 2
#     Edge 58, Type (0, 0), BuildingBlock: AJUNOK_clean_linker_0, # of connection points: 2
#     Edge 59, Type (0, 0), BuildingBlock: AJUNOK_clean_linker_0, # of connection points: 2
#     Edge 60, Type (0, 0), BuildingBlock: AJUNOK_clean_linker_0, # of connection points: 2
#     Edge 61, Type (0, 0), BuildingBlock: AJUNOK_clean_linker_0, # of connection points: 2
#     Edge 62, Type (0, 0), BuildingBlock: AJUNOK_clean_linker_0, # of connection points: 2
#     Edge 63, Type (0, 0), BuildingBlock: AJUNOK_clean_linker_0, # of connection points: 2
#     Edge 64, Type (0, 0), BuildingBlock: AJUNOK_clean_linker_0, # of connection points: 2
#     Edge 65, Type (0, 0), BuildingBlock: AJUNOK_clean_linker_0, # of connection points: 2
#     Edge 66, Type (0, 0), BuildingBlock: AJUNOK_clean_linker_0, # of connection points: 2
#     Edge 67, Type (0, 0), BuildingBlock: AJUNOK_clean_linker_0, # of connection points: 2
#     Edge 68, Type (0, 0), BuildingBlock: AJUNOK_clean_linker_0, # of connection points: 2
#     Edge 69, Type (0, 0), BuildingBlock: AJUNOK_clean_linker_0, # of connection points: 2
#     Edge 70, Type (0, 0), BuildingBlock: AJUNOK_clean_linker_0, # of connection points: 2
#     Edge 71, Type (0, 0), BuildingBlock: AJUNOK_clean_linker_0, # of connection points: 2
#     Edge 72, Type (0, 0), BuildingBlock: AJUNOK_clean_linker_0, # of connection points: 2
#     Edge 73, Type (0, 0), BuildingBlock: AJUNOK_clean_linker_0, # of connection points: 2
#     Edge 74, Type (0, 0), BuildingBlock: AJUNOK_clean_linker_0, # of connection points: 2
#     Edge 75, Type (0, 0), BuildingBlock: AJUNOK_clean_linker_0, # of connection points: 2
#     Edge 76, Type (0, 0), BuildingBlock: AJUNOK_clean_linker_0, # of connection points: 2
#     Edge 77, Type (0, 0), BuildingBlock: AJUNOK_clean_linker_0, # of connection points: 2
#     Edge 78, Type (0, 0), BuildingBlock: AJUNOK_clean_linker_0, # of connection points: 2
#     Edge 79, Type (0, 0), BuildingBlock: AJUNOK_clean_linker_0, # of connection points: 2
#     Edge 80, Type (0, 0), BuildingBlock: AJUNOK_clean_linker_0, # of connection points: 2
#     Edge 81, Type (0, 0), BuildingBlock: AJUNOK_clean_linker_0, # of connection points: 2
#     Edge 82, Type (0, 0), BuildingBlock: AJUNOK_clean_linker_0, # of connection points: 2
#     Edge 83, Type (0, 0), BuildingBlock: AJUNOK_clean_linker_0, # of connection points: 2
#     Edge 84, Type (0, 0), BuildingBlock: AJUNOK_clean_linker_0, # of connection points: 2
#     Edge 85, Type (0, 0), BuildingBlock: AJUNOK_clean_linker_0, # of connection points: 2
#     Edge 86, Type (0, 0), BuildingBlock: AJUNOK_clean_linker_0, # of connection points: 2
#     Edge 87, Type (0, 0), BuildingBlock: AJUNOK_clean_linker_0, # of connection points: 2
#     Edge 88, Type (0, 0), BuildingBlock: AJUNOK_clean_linker_0, # of connection points: 2
#     Edge 89, Type (0, 0), BuildingBlock: AJUNOK_clean_linker_0, # of connection points: 2
#     Edge 90, Type (0, 0), BuildingBlock: AJUNOK_clean_linker_0, # of connection points: 2
#     Edge 91, Type (0, 0), BuildingBlock: AJUNOK_clean_linker_0, # of connection points: 2
#     Edge 92, Type (0, 0), BuildingBlock: AJUNOK_clean_linker_0, # of connection points: 2
#     Edge 93, Type (0, 0), BuildingBlock: AJUNOK_clean_linker_0, # of connection points: 2
#     Edge 94, Type (0, 0), BuildingBlock: AJUNOK_clean_linker_0, # of connection points: 2
#     Edge 95, Type (0, 0), BuildingBlock: AJUNOK_clean_linker_0, # of connection points: 2
#     Edge 96, Type (0, 0), BuildingBlock: AJUNOK_clean_linker_0, # of connection points: 2
#     Edge 97, Type (0, 0), BuildingBlock: AJUNOK_clean_linker_0, # of connection points: 2
#     Edge 98, Type (0, 0), BuildingBlock: AJUNOK_clean_linker_0, # of connection points: 2
#     Edge 99, Type (0, 0), BuildingBlock: AJUNOK_clean_linker_0, # of connection points: 2
#     Edge 100, Type (0, 0), BuildingBlock: AJUNOK_clean_linker_0, # of connection points: 2
#     Edge 101, Type (0, 0), BuildingBlock: AJUNOK_clean_linker_0, # of connection points: 2
#     Edge 102, Type (0, 0), BuildingBlock: AJUNOK_clean_linker_0, # of connection points: 2
#     Edge 103, Type (0, 0), BuildingBlock: AJUNOK_clean_linker_0, # of connection points: 2
#     Edge 104, Type (0, 0), BuildingBlock: AJUNOK_clean_linker_0, # of connection points: 2
#     Edge 105, Type (0, 0), BuildingBlock: AJUNOK_clean_linker_0, # of connection points: 2
#     Edge 106, Type (0, 0), BuildingBlock: AJUNOK_clean_linker_0, # of connection points: 2
#     Edge 107, Type (0, 0), BuildingBlock: AJUNOK_clean_linker_0, # of connection points: 2
#     Edge 108, Type (0, 0), BuildingBlock: AJUNOK_clean_linker_0, # of connection points: 2
#     Edge 109, Type (0, 0), BuildingBlock: AJUNOK_clean_linker_0, # of connection points: 2
#     Edge 110, Type (0, 0), BuildingBlock: AJUNOK_clean_linker_0, # of connection points: 2
#     Edge 111, Type (0, 0), BuildingBlock: AJUNOK_clean_linker_0, # of connection points: 2
#     Edge 112, Type (0, 0), BuildingBlock: AJUNOK_clean_linker_0, # of connection points: 2
#     Edge 113, Type (0, 0), BuildingBlock: AJUNOK_clean_linker_0, # of connection points: 2
#     Edge 114, Type (0, 0), BuildingBlock: AJUNOK_clean_linker_0, # of connection points: 2
#     Edge 115, Type (0, 0), BuildingBlock: AJUNOK_clean_linker_0, # of connection points: 2
#     Edge 116, Type (0, 0), BuildingBlock: AJUNOK_clean_linker_0, # of connection points: 2
#     Edge 117, Type (0, 0), BuildingBlock: AJUNOK_clean_linker_0, # of connection points: 2
#     Edge 118, Type (0, 0), BuildingBlock: AJUNOK_clean_linker_0, # of connection points: 2
#     Edge 119, Type (0, 0), BuildingBlock: AJUNOK_clean_linker_0, # of connection points: 2
#     Edge 120, Type (0, 0), BuildingBlock: AJUNOK_clean_linker_0, # of connection points: 2
#     Edge 121, Type (0, 0), BuildingBlock: AJUNOK_clean_linker_0, # of connection points: 2
#     Edge 122, Type (0, 0), BuildingBlock: AJUNOK_clean_linker_0, # of connection points: 2
#     Edge 123, Type (0, 0), BuildingBlock: AJUNOK_clean_linker_0, # of connection points: 2
#     Edge 124, Type (0, 0), BuildingBlock: AJUNOK_clean_linker_0, # of connection points: 2
#     Edge 125, Type (0, 0), BuildingBlock: AJUNOK_clean_linker_0, # of connection points: 2
#     Edge 126, Type (0, 0), BuildingBlock: AJUNOK_clean_linker_0, # of connection points: 2
#     Edge 127, Type (0, 0), BuildingBlock: AJUNOK_clean_linker_0, # of connection points: 2
#     Edge 128, Type (0, 0), BuildingBlock: AJUNOK_clean_linker_0, # of connection points: 2
#     Edge 129, Type (0, 0), BuildingBlock: AJUNOK_clean_linker_0, # of connection points: 2
#     Edge 130, Type (0, 0), BuildingBlock: AJUNOK_clean_linker_0, # of connection points: 2
#     Edge 131, Type (0, 0), BuildingBlock: AJUNOK_clean_linker_0, # of connection points: 2
#     Edge 132, Type (0, 0), BuildingBlock: AJUNOK_clean_linker_0, # of connection points: 2
#     Edge 133, Type (0, 0), BuildingBlock: AJUNOK_clean_linker_0, # of connection points: 2
#     Edge 134, Type (0, 0), BuildingBlock: AJUNOK_clean_linker_0, # of connection points: 2
#     Edge 135, Type (0, 0), BuildingBlock: AJUNOK_clean_linker_0, # of connection points: 2
#     Edge 136, Type (0, 0), BuildingBlock: AJUNOK_clean_linker_0, # of connection points: 2
#     Edge 137, Type (0, 0), BuildingBlock: AJUNOK_clean_linker_0, # of connection points: 2
#     Edge 138, Type (0, 0), BuildingBlock: AJUNOK_clean_linker_0, # of connection points: 2
#     Edge 139, Type (0, 0), BuildingBlock: AJUNOK_clean_linker_0, # of connection points: 2
#     Edge 140, Type (0, 0), BuildingBlock: AJUNOK_clean_linker_0, # of connection points: 2
#     Edge 141, Type (0, 0), BuildingBlock: AJUNOK_clean_linker_0, # of connection points: 2
#     Edge 142, Type (0, 0), BuildingBlock: AJUNOK_clean_linker_0, # of connection points: 2
#     Edge 143, Type (0, 0), BuildingBlock: AJUNOK_clean_linker_0, # of connection points: 2
#     Edge 144, Type (0, 0), BuildingBlock: AJUNOK_clean_linker_0, # of connection points: 2
#     Edge 145, Type (0, 0), BuildingBlock: AJUNOK_clean_linker_0, # of connection points: 2
#     Edge 146, Type (0, 0), BuildingBlock: AJUNOK_clean_linker_0, # of connection points: 2
#     Edge 147, Type (0, 0), BuildingBlock: AJUNOK_clean_linker_0, # of connection points: 2
#     Edge 148, Type (0, 0), BuildingBlock: AJUNOK_clean_linker_0, # of connection points: 2
#     Edge 149, Type (0, 0), BuildingBlock: AJUNOK_clean_linker_0, # of connection points: 2
#     Edge 150, Type (0, 0), BuildingBlock: AJUNOK_clean_linker_0, # of connection points: 2
#     Edge 151, Type (0, 0), BuildingBlock: AJUNOK_clean_linker_0, # of connection points: 2
#     Edge 152, Type (0, 0), BuildingBlock: AJUNOK_clean_linker_0, # of connection points: 2
#     Edge 153, Type (0, 0), BuildingBlock: AJUNOK_clean_linker_0, # of connection points: 2
#     Edge 154, Type (0, 0), BuildingBlock: AJUNOK_clean_linker_0, # of connection points: 2
#     Edge 155, Type (0, 0), BuildingBlock: AJUNOK_clean_linker_0, # of connection points: 2
#     Edge 156, Type (0, 0), BuildingBlock: AJUNOK_clean_linker_0, # of connection points: 2
#     Edge 157, Type (0, 0), BuildingBlock: AJUNOK_clean_linker_0, # of connection points: 2
#     Edge 158, Type (0, 0), BuildingBlock: AJUNOK_clean_linker_0, # of connection points: 2
#     Edge 159, Type (0, 0), BuildingBlock: AJUNOK_clean_linker_0, # of connection points: 2
#     Edge 160, Type (0, 0), BuildingBlock: AJUNOK_clean_linker_0, # of connection points: 2
#     Edge 161, Type (0, 0), BuildingBlock: AJUNOK_clean_linker_0, # of connection points: 2
#     Edge 162, Type (0, 0), BuildingBlock: AJUNOK_clean_linker_0, # of connection points: 2
#     Edge 163, Type (0, 0), BuildingBlock: AJUNOK_clean_linker_0, # of connection points: 2
#     Edge 164, Type (0, 0), BuildingBlock: AJUNOK_clean_linker_0, # of connection points: 2
#     Edge 165, Type (0, 0), BuildingBlock: AJUNOK_clean_linker_0, # of connection points: 2
#     Edge 166, Type (0, 0), BuildingBlock: AJUNOK_clean_linker_0, # of connection points: 2
#     Edge 167, Type (0, 0), BuildingBlock: AJUNOK_clean_linker_0, # of connection points: 2
# Relax obj value: 0.234
# Max RMSD: 0.186
# Mean RMSD: 0.181
data_MOF--net-ubt--node1-XOMCOT_clean_sbu_1--edge1-AJUNOK_clean_linker_0
_symmetry_space_group_name_H-M    P1
_symmetry_Int_Tables_number       1
_symmetry_cell_setting            triclinic
loop_
_symmetry_equiv_pos_as_xyz
'x, y, z'
_cell_length_a     54.582892
_cell_length_b     54.978743
_cell_length_c     54.499269
_cell_angle_alpha  89.913387
_cell_angle_beta   90.483676
_cell_angle_gamma 91.676452
loop_
_atom_site_label
_atom_site_type_symbol
_atom_site_fract_x
_atom_site_fract_y
_atom_site_fract_z
_atom_type_partial_charge
C0 C 0.98955 0.20978 0.1565 0.0
C1 C 0.96875 0.21077 0.14194 0.0
N2 N 0.9658 0.18935 0.13007 0.0
N3 N 0.99926 0.18768 0.15397 0.0
C4 C 0.98429 0.17571 0.13794 0.0
H5 H 0.99737 0.22435 0.16765 0.0
Co6 Co 0.02807 0.1742 0.16517 0.0
C7 C 0.00904 0.13068 0.19252 0.0
O8 O 0.02597 0.13475 0.20942 0.0
N9 N 0.05689 0.15912 0.17497 0.0
C10 C 0.09532 0.14869 0.18281 0.0
C11 C 0.07893 0.16736 0.18354 0.0
C12 C 0.06062 0.13574 0.16873 0.0
N13 N 0.0835 0.1289 0.17362 0.0
O14 O 0.03496 0.1637 0.13242 0.0
H15 H 0.08343 0.18585 0.18886 0.0
H16 H 0.04708 0.1241 0.15959 0.0
O17 O 0.00826 0.14469 0.17375 0.0
C18 C 0.0447 0.18294 0.12293 0.0
O19 O 0.04389 0.20332 0.13544 0.0
N20 N 0.02405 0.18846 0.19632 0.0
C21 C 0.02425 0.21878 0.23756 0.0
C22 C 0.00695 0.1994 0.23526 0.0
C23 C 0.00681 0.18467 0.21411 0.0
C24 C 0.04018 0.20775 0.19807 0.0
C25 C 0.0409 0.2228 0.21855 0.0
H26 H 0.99243 0.17095 0.21182 0.0
H27 H 0.0523 0.21194 0.18299 0.0
H28 H 0.98705 0.15722 0.13199 0.0
H29 H 0.95705 0.2262 0.13978 0.0
H30 H 0.11445 0.14964 0.18826 0.0
H31 H 0.99308 0.19635 0.24911 0.0
H32 H 0.05414 0.23786 0.21924 0.0
C33 C 0.90136 0.03932 0.23234 0.0
C34 C 0.91917 0.05744 0.23503 0.0
N35 N 0.92839 0.06277 0.21273 0.0
N36 N 0.89929 0.03332 0.20841 0.0
C37 C 0.91584 0.04811 0.19693 0.0
H38 H 0.8915 0.03033 0.24706 0.0
Co39 Co 0.88218 0.00696 0.19384 0.0
C40 C 0.85361 0.02981 0.1537 0.0
O41 O 0.83503 0.01483 0.15833 0.0
N42 N 0.86584 0.98041 0.17815 0.0
C43 C 0.84209 0.94875 0.16658 0.0
C44 C 0.84744 0.96495 0.1852 0.0
C45 C 0.87144 0.97287 0.15525 0.0
N46 N 0.85728 0.9538 0.14789 0.0
O47 O 0.91194 0.99717 0.17849 0.0
H48 H 0.83805 0.96519 0.20249 0.0
H49 H 0.88518 0.98165 0.14379 0.0
O50 O 0.8734 0.02855 0.16636 0.0
C51 C 0.92363 0.98574 0.19509 0.0
O52 O 0.91514 0.98582 0.21757 0.0
N53 N 0.85398 0.01389 0.21238 0.0
C54 C 0.81538 0.01395 0.24604 0.0
C55 C 0.81664 0.0311 0.22683 0.0
C56 C 0.83648 0.03111 0.21039 0.0
C57 C 0.85361 0.9982 0.23176 0.0
C58 C 0.83434 0.99749 0.24832 0.0
H59 H 0.83769 0.04498 0.19639 0.0
H60 H 0.86805 0.98527 0.23374 0.0
H61 H 0.91973 0.04705 0.17752 0.0
H62 H 0.92535 0.06558 0.25216 0.0
H63 H 0.8281 0.93438 0.16671 0.0
H64 H 0.80271 0.0446 0.22482 0.0
H65 H 0.83419 0.98382 0.26265 0.0
C66 C 1.00212 0.8708 0.208 0.0
C67 C 0.98819 0.89046 0.21377 0.0
N68 N 0.98281 0.90236 0.19285 0.0
N69 N 1.00529 0.87021 0.18351 0.0
C70 C 0.99305 0.8895 0.17478 0.0
H71 H 0.01061 0.8587 0.22097 0.0
Co72 Co 0.02764 0.8524 0.16568 0.0
C73 C 0.99811 0.83112 0.12512 0.0
O74 O 0.01141 0.81166 0.12665 0.0
N75 N 0.05098 0.8355 0.14661 0.0
C76 C 0.0781 0.81033 0.13084 0.0
C77 C 0.0617 0.81377 0.14954 0.0
C78 C 0.06138 0.84475 0.12588 0.0
N79 N 0.07791 0.82993 0.11607 0.0
O80 O 0.04125 0.88244 0.15366 0.0
H81 H 0.05799 0.80088 0.16407 0.0
H82 H 0.05672 0.86197 0.11772 0.0
O83 O 1.0033 0.84932 0.13905 0.0
C84 C 0.05621 0.88825 0.17094 0.0
O85 O 0.05835 0.87346 0.18974 0.0
N86 N 0.01603 0.82363 0.18137 0.0
C87 C 1.00213 0.78844 0.21615 0.0
C88 C 0.98576 0.79524 0.19753 0.0
C89 C 0.99285 0.81342 0.18064 0.0
C90 C 0.03196 0.81716 0.19949 0.0
C91 C 0.02553 0.79949 0.21681 0.0
H92 H 0.97923 0.82009 0.16805 0.0
H93 H 0.04966 0.8264 0.20095 0.0
H94 H 0.9933 0.89515 0.15574 0.0
H95 H 0.98317 0.89606 0.23204 0.0
H96 H 0.08951 0.79474 0.12845 0.0
H97 H 0.96733 0.78741 0.19679 0.0
H98 H 0.03868 0.79479 0.23093 0.0
C99 C 0.15637 0.98521 0.20794 0.0
C100 C 0.13878 0.96688 0.21031 0.0
N101 N 0.12857 0.96265 0.18805 0.0
N102 N 0.15721 0.99227 0.18424 0.0
C103 C 0.14031 0.97799 0.17261 0.0
H104 H 0.16702 0.99349 0.22268 0.0
Co105 Co 0.17324 0.01864 0.16958 0.0
C106 C 0.1999 0.99563 0.12897 0.0
O107 O 0.21892 0.01031 0.13307 0.0
N108 N 0.18853 0.04524 0.1537 0.0
C109 C 0.20325 0.08217 0.14419 0.0
C110 C 0.20234 0.06439 0.16197 0.0
C111 C 0.18186 0.05171 0.1307 0.0
N112 N 0.1899 0.07425 0.12478 0.0
O113 O 0.14296 0.02843 0.15513 0.0
H114 H 0.20984 0.06652 0.18021 0.0
H115 H 0.16926 0.04102 0.11933 0.0
O116 O 0.18065 0.99736 0.14193 0.0
C117 C 0.12992 0.0383 0.17147 0.0
O118 O 0.13622 0.0358 0.19462 0.0
N119 N 0.20193 0.01162 0.1869 0.0
C120 C 0.23963 0.00902 0.22159 0.0
C121 C 0.23759 0.99188 0.20248 0.0
C122 C 0.21817 0.99322 0.18542 0.0
C123 C 0.20326 0.02757 0.20595 0.0
C124 C 0.22228 0.02715 0.22293 0.0
H125 H 0.21583 0.97914 0.17177 0.0
H126 H 0.18919 0.04087 0.20793 0.0
H127 H 0.13565 0.97981 0.15335 0.0
H128 H 0.13361 0.9577 0.22716 0.0
H129 H 0.21184 0.10008 0.146 0.0
H130 H 0.25028 0.97715 0.20132 0.0
H131 H 0.22307 0.0407 0.23735 0.0
C132 C 0.02017 0.87748 0.82164 0.0
C133 C 0.03573 0.89552 0.8126 0.0
N134 N 0.05012 0.90405 0.83116 0.0
N135 N 0.02465 0.87467 0.8458 0.0
C136 C 0.04289 0.89106 0.85101 0.0
H137 H 1.00563 0.86802 0.81159 0.0
Co138 Co 0.00631 0.85701 0.8691 0.0
C139 C 0.05003 0.8381 0.89661 0.0
O140 O 0.04536 0.81586 0.88896 0.0
N141 N 0.9881 0.8399 0.89394 0.0
C142 C 0.9755 0.81199 0.92111 0.0
C143 C 0.99102 0.81687 0.90199 0.0
C144 C 0.97037 0.84848 0.90867 0.0
N145 N 0.96252 0.83192 0.92545 0.0
O146 O 0.99658 0.88775 0.88244 0.0
H147 H 1.00322 0.80393 0.89428 0.0
H148 H 0.96301 0.86642 0.907 0.0
O149 O 0.03606 0.85547 0.8904 0.0
C150 C 0.97881 0.89132 0.8674 0.0
O151 O 0.97237 0.87364 0.85221 0.0
N152 N 0.01199 0.82777 0.85187 0.0
C153 C 0.01124 0.78993 0.81735 0.0
C154 C 0.03318 0.80289 0.82306 0.0
C155 C 0.03311 0.822 0.84015 0.0
C156 C 0.99051 0.8158 0.8458 0.0
C157 C 0.98983 0.79654 0.82925 0.0
H158 H 0.04973 0.8328 0.84321 0.0
H159 H 0.97338 0.82179 0.85315 0.0
H160 H 0.05003 0.89416 0.86934 0.0
H161 H 0.03527 0.90274 0.79414 0.0
H162 H 0.97405 0.79504 0.93119 0.0
H163 H 0.04998 0.79917 0.81353 0.0
H164 H 0.97241 0.78741 0.8252 0.0
C165 C 0.20042 0.9939 0.86526 0.0
C166 C 0.20738 0.97707 0.88266 0.0
N167 N 0.18725 0.96906 0.89486 0.0
N168 N 0.176 0.99642 0.86648 0.0
C169 C 0.16859 0.98102 0.88452 0.0
H170 H 0.21251 0.0046 0.85358 0.0
Co171 Co 0.15535 0.01967 0.85311 0.0
C172 C 0.11696 0.98803 0.83025 0.0
O173 O 0.11916 1.00071 0.80993 0.0
N174 N 0.13269 0.04284 0.84074 0.0
C175 C 0.10878 0.06647 0.81799 0.0
C176 C 0.12904 0.05216 0.81799 0.0
C177 C 0.1141 0.05194 0.85404 0.0
N178 N 0.0994 0.06619 0.8407 0.0
O179 O 0.14618 0.02746 0.88612 0.0
H180 H 0.13954 0.04817 0.80188 0.0
H181 H 0.11059 0.04764 0.87306 0.0
O182 O 0.12992 0.99391 0.8491 0.0
C183 C 0.16373 0.04279 0.89068 0.0
O184 O 0.1787 0.04896 0.87284 0.0
N185 N 0.16928 0.01511 0.82175 0.0
C186 C 0.20291 0.01509 0.78316 0.0
C187 C 0.18913 0.99387 0.78907 0.0
C188 C 0.17261 0.99412 0.80888 0.0
C189 C 0.18268 0.03565 0.81598 0.0
C190 C 0.19916 0.03615 0.79669 0.0
H191 H 0.16373 0.97728 0.81469 0.0
H192 H 0.18107 0.05186 0.82694 0.0
H193 H 0.15003 0.98026 0.89134 0.0
H194 H 0.22597 0.97188 0.88666 0.0
H195 H 0.10149 0.0763 0.80246 0.0
H196 H 0.19219 0.97699 0.7795 0.0
H197 H 0.20974 0.05273 0.79303 0.0
C198 C 0.97703 0.14855 0.82243 0.0
C199 C 0.96105 0.12962 0.81652 0.0
N200 N 0.95075 0.121 0.83736 0.0
N201 N 0.97701 0.15182 0.8469 0.0
C202 C 0.96084 0.13487 0.85548 0.0
H203 H 0.98924 0.15809 0.80993 0.0
Co204 Co 0.99991 0.17019 0.86492 0.0
C205 C 0.96885 0.19235 0.90332 0.0
O206 O 0.97862 0.21374 0.89789 0.0
N207 N 0.02401 0.18842 0.88377 0.0
C208 C 0.04774 0.21745 0.90114 0.0
C209 C 0.02862 0.21271 0.88513 0.0
C210 C 0.04102 0.17901 0.89915 0.0
N211 N 0.0556 0.19618 0.91003 0.0
O212 O 0.01203 0.14026 0.87793 0.0
H213 H 0.01866 0.22647 0.87541 0.0
H214 H 0.04323 0.15983 0.90195 0.0
O215 O 0.97574 0.1734 0.89187 0.0
C216 C 0.02697 0.1341 0.86123 0.0
O217 O 0.03043 0.14873 0.84242 0.0
N218 N 0.98997 0.19819 0.84804 0.0
C219 C 0.98039 0.23259 0.81168 0.0
C220 C 0.9619 0.22489 0.82795 0.0
C221 C 0.9669 0.20706 0.84571 0.0
C222 C 0.00789 0.20544 0.83211 0.0
C223 C 1.00358 0.2227 0.81402 0.0
H224 H 0.95208 0.19968 0.85671 0.0
H225 H 0.0256 0.19716 0.83305 0.0
H226 H 0.9576 0.13191 0.87482 0.0
H227 H 0.9588 0.12173 0.79845 0.0
H228 H 0.05511 0.23531 0.90599 0.0
H229 H 0.94358 0.2318 0.82625 0.0
H230 H 0.01824 0.22802 0.80165 0.0
C231 C 0.80879 0.03444 0.88751 0.0
C232 C 0.80376 0.0527 0.90387 0.0
N233 N 0.82503 0.06086 0.91418 0.0
N234 N 0.83312 0.03106 0.88752 0.0
C235 C 0.84247 0.04733 0.90394 0.0
H236 H 0.79547 0.0235 0.87728 0.0
Co237 Co 0.85063 0.00642 0.87281 0.0
C238 C 0.89096 0.03306 0.84819 0.0
O239 O 0.88814 0.01831 0.82937 0.0
N240 N 0.86957 0.9815 0.85915 0.0
C241 C 0.88417 0.9491 0.84049 0.0
C242 C 0.86424 0.96355 0.84289 0.0
C243 C 0.89289 0.97714 0.86657 0.0
N244 N 0.90221 0.9576 0.85544 0.0
O245 O 0.86277 0.99723 0.90436 0.0
H246 H 0.84699 0.9603 0.83359 0.0
H247 H 0.90285 0.98822 0.87991 0.0
O248 O 0.87759 0.03007 0.86718 0.0
C249 C 0.84544 0.98379 0.91306 0.0
O250 O 0.82503 0.98097 0.90031 0.0
N251 N 0.83523 0.01323 0.84229 0.0
C252 C 0.80666 0.01675 0.79965 0.0
C253 C 0.82268 0.03598 0.80675 0.0
C254 C 0.83663 0.03401 0.82845 0.0
C255 C 0.81789 0.99569 0.83676 0.0
C256 C 0.80405 0.99664 0.81519 0.0
H257 H 0.84798 0.04936 0.83431 0.0
H258 H 0.81486 0.98064 0.84927 0.0
H259 H 0.86169 0.04858 0.90897 0.0
H260 H 0.78566 0.05842 0.9088 0.0
H261 H 0.88504 0.93301 0.82913 0.0
H262 H 0.82428 0.05235 0.79572 0.0
H263 H 0.79098 0.982 0.81095 0.0
C264 C 0.21037 0.13332 0.99357 0.0
C265 C 0.21201 0.11213 0.98036 0.0
N266 N 0.19105 0.10853 0.96727 0.0
N267 N 0.18844 0.14299 0.98911 0.0
C268 C 0.17724 0.1277 0.97293 0.0
H269 H 0.22329 0.1399 0.00736 0.0
Co270 Co 0.1729 0.16437 0.00949 0.0
C271 C 0.13633 0.18792 0.97876 0.0
O272 O 0.14435 0.20872 0.9881 0.0
N273 N 0.15566 0.18487 0.03091 0.0
C274 C 0.14165 0.2094 0.0598 0.0
C275 C 0.16122 0.20467 0.04482 0.0
C276 C 0.13254 0.17834 0.03764 0.0
N277 N 0.12385 0.19251 0.05539 0.0
O278 O 0.15752 0.13686 0.02516 0.0
H279 H 0.17851 0.21466 0.04509 0.0
H280 H 0.12231 0.16292 0.03004 0.0
O281 O 0.14617 0.16805 0.98535 0.0
C282 C 0.17244 0.13424 0.04308 0.0
O283 O 0.19169 0.14902 0.0449 0.0
N284 N 0.19193 0.19029 0.9964 0.0
C285 C 0.22969 0.22281 0.98303 0.0
C286 C 0.21254 0.21442 0.96544 0.0
C287 C 0.19392 0.19761 0.97245 0.0
C288 C 0.20931 0.19757 0.01313 0.0
C289 C 0.22794 0.21413 0.00702 0.0
H290 H 0.18175 0.18994 0.95856 0.0
H291 H 0.20914 0.18994 0.03138 0.0
H292 H 0.15859 0.12976 0.96667 0.0
H293 H 0.22681 0.09963 0.98207 0.0
H294 H 0.14104 0.22338 0.07373 0.0
H295 H 0.2139 0.2203 0.94651 0.0
H296 H 0.24129 0.21974 0.02088 0.0
C297 C 0.22542 0.89174 0.03289 0.0
C298 C 0.23083 0.9091 0.05035 0.0
N299 N 0.20977 0.91571 0.06094 0.0
N300 N 0.20103 0.88744 0.03212 0.0
C301 C 0.19193 0.90235 0.04933 0.0
H302 H 0.23836 0.88367 0.02063 0.0
Co303 Co 0.18494 0.8683 0.00843 0.0
C304 C 0.14283 0.84415 0.03318 0.0
O305 O 0.14808 0.82482 0.02036 0.0
N306 N 0.16828 0.84984 0.98364 0.0
C307 C 0.15614 0.82484 0.95354 0.0
C308 C 0.17445 0.83024 0.97037 0.0
C309 C 0.14615 0.8559 0.9743 0.0
N310 N 0.13828 0.84107 0.95592 0.0
O311 O 0.17259 0.89732 0.99327 0.0
H312 H 0.19111 0.82036 0.97234 0.0
H313 H 0.13631 0.87141 0.98063 0.0
O314 O 0.15606 0.86369 0.03046 0.0
C315 C 0.18937 0.90475 0.97855 0.0
O316 O 0.21013 0.89325 0.97841 0.0
N317 N 0.20064 0.84069 0.02143 0.0
C318 C 0.23268 0.80469 0.03694 0.0
C319 C 0.21318 0.81157 0.05183 0.0
C320 C 0.19773 0.83015 0.04403 0.0
C321 C 0.22022 0.83495 0.00743 0.0
C322 C 0.23622 0.81689 0.01463 0.0
H323 H 0.1841 0.83645 0.05656 0.0
H324 H 0.22362 0.84477 0.99053 0.0
H325 H 0.17254 0.90392 0.05272 0.0
H326 H 0.24882 0.91719 0.05379 0.0
H327 H 0.1561 0.81 0.94052 0.0
H328 H 0.21036 0.80318 0.06962 0.0
H329 H 0.25124 0.81245 1.00273 0.0
C330 C 0.87089 0.20552 0.00918 0.0
C331 C 0.88633 0.21286 0.99048 0.0
N332 N 0.89479 0.19292 0.97926 0.0
N333 N 0.86959 0.18103 0.00987 0.0
C334 C 0.88451 0.17393 0.99162 0.0
H335 H 0.86175 0.21724 0.02188 0.0
Co336 Co 0.85361 0.1606 0.03285 0.0
C337 C 0.83139 0.12422 0.99861 0.0
O338 O 0.80996 0.12835 0.00816 0.0
N339 N 0.83826 0.13824 0.05624 0.0
C340 C 0.81224 0.11369 0.07674 0.0
C341 C 0.81434 0.13223 0.05991 0.0
C342 C 0.85012 0.12291 0.07168 0.0
N343 N 0.83483 0.10763 0.08423 0.0
O344 O 0.88532 0.15143 0.04448 0.0
H345 H 0.79899 0.14019 0.05058 0.0
H346 H 0.86972 0.12301 0.07387 0.0
O347 O 0.85073 0.13501 0.00724 0.0
C348 C 0.88764 0.16805 0.06099 0.0
O349 O 0.87006 0.18376 0.06302 0.0
N350 N 0.82339 0.17469 0.02464 0.0
C351 C 0.78592 0.20795 0.01894 0.0
C352 C 0.79638 0.19704 0.99835 0.0
C353 C 0.81525 0.18042 1.00159 0.0
C354 C 0.81372 0.1858 0.04459 0.0
C355 C 0.79458 0.20182 0.04224 0.0
H356 H 0.82431 0.17337 0.98564 0.0
H357 H 0.82153 0.18291 0.06261 0.0
H358 H 0.8881 0.15509 0.98767 0.0
H359 H 0.89162 0.2315 0.98624 0.0
H360 H 0.79521 0.10496 0.08243 0.0
H361 H 0.79063 0.20199 0.97999 0.0
H362 H 0.78766 0.21054 0.05848 0.0
C363 C 0.81408 0.88414 0.00949 0.0
C364 C 0.81154 0.90362 0.99378 0.0
N365 N 0.83406 0.91094 0.98631 0.0
N366 N 0.83808 0.87937 0.01178 0.0
C367 C 0.84973 0.89605 0.99755 0.0
H368 H 0.7995 0.87459 0.01918 0.0
Co369 Co 0.85338 0.85816 0.03301 0.0
C370 C 0.89096 0.83583 1.00303 0.0
O371 O 0.88438 0.81487 0.01297 0.0
N372 N 0.87021 0.83757 0.05495 0.0
C373 C 0.88456 0.80986 0.08089 0.0
C374 C 0.86461 0.81661 0.06697 0.0
C375 C 0.89354 0.8431 0.06212 0.0
N376 N 0.90268 0.82666 0.07774 0.0
O377 O 0.86862 0.88571 0.04916 0.0
H378 H 0.84736 0.80658 0.06592 0.0
H379 H 0.904 0.85878 0.05554 0.0
O380 O 0.88023 0.85516 0.00945 0.0
C381 C 0.85216 0.89182 0.06427 0.0
O382 O 0.83161 0.87876 0.0649 0.0
N383 N 0.83486 0.83214 0.01893 0.0
C384 C 0.79612 0.80218 1.00177 0.0
C385 C 0.815 0.80976 0.98595 0.0
C386 C 0.83398 0.82534 0.99476 0.0
C387 C 0.81648 0.82494 0.0343 0.0
C388 C 0.79728 0.80967 0.02629 0.0
H389 H 0.84696 0.83299 0.98183 0.0
H390 H 0.81608 0.83211 0.05275 0.0
H391 H 0.86948 0.89802 0.99635 0.0
H392 H 0.79456 0.91186 0.98837 0.0
H393 H 0.8855 0.79405 0.0927 0.0
H394 H 0.81437 0.8048 0.96672 0.0
H395 H 0.78295 0.80438 0.03904 0.0
C396 C 0.99123 0.71705 0.64478 0.0
C397 C 0.97434 0.71927 0.6259 0.0
N398 N 0.96906 0.69691 0.6167 0.0
N399 N 0.9965 0.6934 0.6473 0.0
C400 C 0.98269 0.68171 0.63005 0.0
H401 H 1.00012 0.73177 0.65494 0.0
Co402 Co 0.02102 0.67769 0.66429 0.0
C403 C 0.99392 0.63745 0.68859 0.0
O404 O 0.00727 0.64148 0.70842 0.0
N405 N 0.0457 0.6598 0.68024 0.0
C406 C 0.07459 0.64296 0.70331 0.0
C407 C 0.06039 0.66308 0.7002 0.0
C408 C 0.05162 0.63764 0.67163 0.0
N409 N 0.06895 0.62713 0.68523 0.0
O410 O 0.03281 0.66624 0.63339 0.0
H411 H 0.06093 0.67869 0.71213 0.0
H412 H 0.04286 0.6289 0.65594 0.0
O413 O 0.99786 0.65012 0.66924 0.0
C414 C 0.04882 0.6831 0.62899 0.0
O415 O 0.05082 0.70152 0.64424 0.0
N416 N 0.01217 0.69313 0.6937 0.0
C417 C 0.00806 0.7217 0.73569 0.0
C418 C 0.98866 0.70588 0.72833 0.0
C419 C 0.99095 0.69187 0.70689 0.0
C420 C 0.02983 0.71025 0.69948 0.0
C421 C 0.02848 0.7242 0.7206 0.0
H422 H 0.97573 0.68028 0.70093 0.0
H423 H 0.04573 0.71256 0.688 0.0
H424 H 0.98422 0.66255 0.62597 0.0
H425 H 0.96729 0.73611 0.61882 0.0
H426 H 0.08813 0.64023 0.71761 0.0
H427 H 0.97207 0.7043 0.73905 0.0
H428 H 0.04333 0.73702 0.72502 0.0
C429 C 0.88014 0.54997 0.71793 0.0
C430 C 0.89858 0.56721 0.72173 0.0
N431 N 0.9075 0.57455 0.69978 0.0
N432 N 0.87723 0.54636 0.69365 0.0
C433 C 0.89382 0.56178 0.68316 0.0
H434 H 0.87093 0.53944 0.73205 0.0
Co435 Co 0.86112 0.5207 0.67688 0.0
C436 C 0.8449 0.54424 0.62876 0.0
O437 O 0.83203 0.52525 0.62085 0.0
N438 N 0.84573 0.4946 0.65944 0.0
C439 C 0.82321 0.46164 0.64931 0.0
C440 C 0.82479 0.48175 0.66424 0.0
C441 C 0.85601 0.48217 0.64089 0.0
N442 N 0.84307 0.46182 0.6349 0.0
O443 O 0.89265 0.51049 0.66523 0.0
H444 H 0.81172 0.48585 0.67827 0.0
H445 H 0.87311 0.48743 0.63232 0.0
O446 O 0.85604 0.54338 0.64946 0.0
C447 C 0.90081 0.4984 0.6835 0.0
O448 O 0.88786 0.49772 0.70368 0.0
N449 N 0.83143 0.52795 0.692 0.0
C450 C 0.79055 0.52829 0.72266 0.0
C451 C 0.79145 0.54279 0.70127 0.0
C452 C 0.8123 0.54238 0.686 0.0
C453 C 0.83051 0.51391 0.7126 0.0
C454 C 0.81029 0.51345 0.72776 0.0
H455 H 0.81298 0.55344 0.6696 0.0
H456 H 0.84536 0.50209 0.71686 0.0
H457 H 0.89627 0.5626 0.66358 0.0
H458 H 0.90585 0.57261 0.73949 0.0
H459 H 0.80899 0.4475 0.64964 0.0
H460 H 0.77646 0.55447 0.69665 0.0
H461 H 0.81017 0.50141 0.74353 0.0
C462 C 0.97655 0.38652 0.71802 0.0
C463 C 0.96126 0.40599 0.71917 0.0
N464 N 0.96083 0.41695 0.69699 0.0
N465 N 0.98562 0.38519 0.69516 0.0
C466 C 0.97553 0.40378 0.68279 0.0
H467 H 0.98178 0.37507 0.73322 0.0
Co468 Co 0.01134 0.36731 0.68305 0.0
C469 C 0.98877 0.34057 0.64092 0.0
O470 O 1.0025 0.32191 0.64587 0.0
N471 N 0.03765 0.35076 0.66955 0.0
C472 C 0.07447 0.33599 0.66245 0.0
C473 C 0.05622 0.33834 0.67963 0.0
C474 C 0.04513 0.35567 0.64639 0.0
N475 N 0.06737 0.34711 0.64166 0.0
O476 O 0.02575 0.39661 0.66971 0.0
H477 H 0.05748 0.33274 0.69857 0.0
H478 H 0.03519 0.36698 0.63368 0.0
O479 O 0.99107 0.35999 0.65382 0.0
C480 C 0.03707 0.40588 0.68823 0.0
O481 O 0.03461 0.39513 0.70966 0.0
N482 N 0.99932 0.33941 0.69987 0.0
C483 C 0.98509 0.30442 0.73462 0.0
C484 C 0.97079 0.30805 0.71349 0.0
C485 C 0.97789 0.32621 0.69655 0.0
C486 C 0.01299 0.33623 0.72061 0.0
C487 C 0.00636 0.3188 0.73806 0.0
H488 H 0.96562 0.33018 0.68155 0.0
H489 H 0.02871 0.34812 0.72417 0.0
H490 H 0.98047 0.40869 0.6642 0.0
H491 H 0.95194 0.41217 0.73536 0.0
H492 H 0.09195 0.32758 0.66533 0.0
H493 H 0.9539 0.29758 0.71058 0.0
H494 H 0.01768 0.31675 0.75433 0.0
C495 C 0.15116 0.4926 0.71143 0.0
C496 C 0.13267 0.47575 0.71661 0.0
N497 N 0.12082 0.47008 0.69547 0.0
N498 N 0.15081 0.49735 0.68715 0.0
C499 C 0.13236 0.48313 0.67799 0.0
H500 H 0.16303 0.5018 0.72466 0.0
Co501 Co 0.16617 0.52183 0.66884 0.0
C502 C 0.18712 0.49413 0.62775 0.0
O503 O 0.20701 0.50817 0.62865 0.0
N504 N 0.18044 0.54647 0.64908 0.0
C505 C 0.19574 0.58165 0.6348 0.0
C506 C 0.19631 0.56525 0.6539 0.0
C507 C 0.17096 0.55177 0.6267 0.0
N508 N 0.17972 0.57306 0.61783 0.0
O509 O 0.13455 0.53209 0.65778 0.0
H510 H 0.20637 0.5682 0.67078 0.0
H511 H 0.15627 0.54124 0.61797 0.0
O512 O 0.1695 0.49814 0.64236 0.0
C513 C 0.12772 0.54491 0.6759 0.0
O514 O 0.14193 0.54629 0.69545 0.0
N515 N 0.19637 0.51453 0.68355 0.0
C516 C 0.23355 0.5087 0.71841 0.0
C517 C 0.22886 0.49078 0.70046 0.0
C518 C 0.20973 0.49386 0.68327 0.0
C519 C 0.20089 0.53179 0.70104 0.0
C520 C 0.21961 0.52956 0.71817 0.0
H521 H 0.20481 0.47908 0.67099 0.0
H522 H 0.18893 0.54701 0.70254 0.0
H523 H 0.12618 0.48382 0.65909 0.0
H524 H 0.12777 0.4689 0.73459 0.0
H525 H 0.205 0.59932 0.63419 0.0
H526 H 0.23882 0.47403 0.70066 0.0
H527 H 0.22231 0.5435 0.73205 0.0
C528 C 0.0367 0.3748 0.32465 0.0
C529 C 0.05437 0.39222 0.31906 0.0
N530 N 0.06129 0.40367 0.33993 0.0
N531 N 0.03258 0.37504 0.34903 0.0
C532 C 0.04797 0.39277 0.35786 0.0
H533 H 0.02701 0.36322 0.31159 0.0
Co534 Co 0.00838 0.35706 0.36614 0.0
C535 C 0.03612 0.3339 0.40655 0.0
O536 O 0.02284 0.31394 0.40289 0.0
N537 N 0.98372 0.33934 0.38409 0.0
C538 C 0.95675 0.31177 0.39856 0.0
C539 C 0.97423 0.31649 0.38113 0.0
C540 C 0.97168 0.34778 0.40389 0.0
N541 N 0.95475 0.33167 0.41265 0.0
O542 O 0.99589 0.3871 0.37903 0.0
H543 H 0.98007 0.30331 0.36794 0.0
H544 H 0.97542 0.36535 0.41206 0.0
O545 O 0.03214 0.35285 0.39354 0.0
C546 C 0.98206 0.39412 0.36142 0.0
O547 O 0.98244 0.38186 0.34076 0.0
N548 N 0.01754 0.32872 0.34947 0.0
C549 C 0.02278 0.29096 0.31578 0.0
C550 C 0.04091 0.29575 0.33381 0.0
C551 C 0.0382 0.31525 0.35025 0.0
C552 C 1.00038 0.3246 0.3315 0.0
C553 C 1.00246 0.30578 0.31478 0.0
H554 H 0.05292 0.31986 0.36291 0.0
H555 H 0.98465 0.33604 0.33032 0.0
H556 H 0.04863 0.3983 0.37692 0.0
H557 H 0.06139 0.39634 0.30096 0.0
H558 H 0.94698 0.29456 0.40109 0.0
H559 H 0.05733 0.28517 0.33453 0.0
H560 H 0.98828 0.30294 0.30096 0.0
C561 C 0.21563 0.47319 0.38385 0.0
C562 C 0.21972 0.4547 0.40038 0.0
N563 N 0.19877 0.44986 0.4126 0.0
N564 N 0.19219 0.48008 0.38574 0.0
C565 C 0.18242 0.46538 0.40325 0.0
H566 H 0.22928 0.48179 0.37221 0.0
Co567 Co 0.17618 0.50675 0.37188 0.0
C568 C 0.13352 0.48298 0.34621 0.0
O569 O 0.13629 0.49825 0.32781 0.0
N570 N 0.15887 0.5333 0.35867 0.0
C571 C 0.14654 0.56615 0.3386 0.0
C572 C 0.16592 0.5513 0.34307 0.0
C573 C 0.13519 0.53819 0.36384 0.0
N574 N 0.12731 0.55794 0.35176 0.0
O575 O 0.16373 0.51509 0.40339 0.0
H576 H 0.18381 0.55377 0.33509 0.0
H577 H 0.12371 0.52704 0.37574 0.0
O578 O 0.1483 0.48448 0.36451 0.0
C579 C 0.1815 0.52413 0.41622 0.0
O580 O 0.20391 0.52257 0.40792 0.0
N581 N 0.1921 0.50161 0.34193 0.0
C582 C 0.22594 0.50275 0.30364 0.0
C583 C 0.2062 0.48564 0.30361 0.0
C584 C 0.18955 0.48507 0.32331 0.0
C585 C 0.21151 0.51774 0.34229 0.0
C586 C 0.22819 0.51902 0.32325 0.0
H587 H 0.17528 0.47107 0.3238 0.0
H588 H 0.21393 0.52997 0.35771 0.0
H589 H 0.16407 0.46728 0.41024 0.0
H590 H 0.23702 0.44612 0.40378 0.0
H591 H 0.14648 0.58172 0.32641 0.0
H592 H 0.2042 0.47238 0.289 0.0
H593 H 0.24304 0.53252 0.32406 0.0
C594 C 0.97602 0.6303 0.30729 0.0
C595 C 0.95783 0.61256 0.30609 0.0
N596 N 0.95664 0.60109 0.32794 0.0
N597 N 0.98628 0.63029 0.32989 0.0
C598 C 0.97411 0.61224 0.34202 0.0
H599 H 0.98161 0.64199 0.2923 0.0
Co600 Co 0.013 0.64901 0.34193 0.0
C601 C 0.99278 0.67536 0.38481 0.0
O602 O 0.00711 0.69431 0.37984 0.0
N603 N 0.04025 0.66715 0.35459 0.0
C604 C 0.07409 0.69025 0.35983 0.0
C605 C 0.0544 0.68512 0.3446 0.0
C606 C 0.05177 0.66197 0.37602 0.0
N607 N 0.07244 0.67559 0.37956 0.0
O608 O 0.02637 0.62035 0.35679 0.0
H609 H 0.05147 0.69363 0.32706 0.0
H610 H 0.04566 0.64763 0.38831 0.0
O611 O 0.99352 0.65637 0.37127 0.0
C612 C 0.03842 0.61004 0.33993 0.0
O613 O 0.03598 0.6183 0.31742 0.0
N614 N 1.00203 0.6762 0.32408 0.0
C615 C 0.99291 0.71267 0.2896 0.0
C616 C 0.97929 0.71098 0.31136 0.0
C617 C 0.98376 0.69215 0.32823 0.0
C618 C 0.01452 0.67713 0.30252 0.0
C619 C 0.01037 0.69515 0.28517 0.0
H620 H 0.97234 0.69041 0.34422 0.0
H621 H 0.0282 0.66378 0.29895 0.0
H622 H 0.97881 0.60675 0.36049 0.0
H623 H 0.94651 0.60825 0.29019 0.0
H624 H 0.08885 0.70334 0.35632 0.0
H625 H 0.96519 0.72388 0.31513 0.0
H626 H 0.02123 0.6957 0.26861 0.0
C627 C 0.80636 0.53304 0.38408 0.0
C628 C 0.80297 0.55235 0.39978 0.0
N629 N 0.82498 0.55964 0.40896 0.0
N630 N 0.8304 0.52807 0.38357 0.0
C631 C 0.84122 0.54466 0.39884 0.0
H632 H 0.79206 0.52227 0.37506 0.0
Co633 Co 0.84553 0.50032 0.37158 0.0
C634 C 0.88986 0.51971 0.34684 0.0
O635 O 0.8865 0.50328 0.32955 0.0
N636 N 0.86203 0.47236 0.36084 0.0
C637 C 0.87628 0.43973 0.34212 0.0
C638 C 0.85701 0.45528 0.34352 0.0
C639 C 0.88421 0.46621 0.37006 0.0
N640 N 0.89327 0.44662 0.35892 0.0
O641 O 0.85577 0.49281 0.40436 0.0
H642 H 0.84093 0.45428 0.33192 0.0
H643 H 0.89424 0.47678 0.38378 0.0
O644 O 0.87488 0.52042 0.36475 0.0
C645 C 0.83707 0.48063 0.41209 0.0
O646 O 0.8178 0.47869 0.39752 0.0
N647 N 0.83163 0.50566 0.34002 0.0
C648 C 0.80288 0.5076 0.29718 0.0
C649 C 0.82244 0.52442 0.30111 0.0
C650 C 0.83631 0.52351 0.32302 0.0
C651 C 0.81208 0.48997 0.33674 0.0
C652 C 0.79789 0.49025 0.3154 0.0
H653 H 0.85023 0.53747 0.3264 0.0
H654 H 0.80763 0.47674 0.35081 0.0
H655 H 0.86035 0.54439 0.40416 0.0
H656 H 0.78558 0.55969 0.40497 0.0
H657 H 0.87798 0.42485 0.32932 0.0
H658 H 0.8264 0.5386 0.28779 0.0
H659 H 0.78294 0.477 0.31326 0.0
C660 C 0.20622 0.63573 0.50262 0.0
C661 C 0.21048 0.61338 0.49206 0.0
N662 N 0.19081 0.60711 0.47816 0.0
N663 N 0.18428 0.64365 0.49469 0.0
C664 C 0.17516 0.62525 0.48074 0.0
H665 H 0.21793 0.64518 0.51582 0.0
Co666 Co 0.16389 0.66786 0.50648 0.0
C667 C 0.14794 0.66791 0.45418 0.0
O668 O 0.17076 0.67117 0.44726 0.0
N669 N 0.14104 0.68964 0.5192 0.0
C670 C 0.10363 0.70444 0.523 0.0
C671 C 0.12214 0.6997 0.50692 0.0
C672 C 0.13383 0.68962 0.54284 0.0
N673 N 0.11093 0.69767 0.54553 0.0
O674 O 0.1464 0.64175 0.52291 0.0
H675 H 0.12083 0.70163 0.48722 0.0
H676 H 0.14387 0.68114 0.55748 0.0
O677 O 0.14313 0.66526 0.47695 0.0
C678 C 0.1591 0.63854 0.5424 0.0
O679 O 0.17794 0.65335 0.54689 0.0
N680 N 0.18437 0.69468 0.49224 0.0
C681 C 0.22178 0.73115 0.48781 0.0
C682 C 0.22539 0.70733 0.47997 0.0
C683 C 0.20643 0.68979 0.48157 0.0
C684 C 0.17978 0.71866 0.49702 0.0
C685 C 0.19787 0.73704 0.4943 0.0
H686 H 0.21048 0.67215 0.4746 0.0
H687 H 0.16268 0.72438 0.50421 0.0
H688 H 0.15643 0.62395 0.47429 0.0
H689 H 0.22646 0.60244 0.49477 0.0
H690 H 0.08553 0.71058 0.51822 0.0
H691 H 0.24312 0.70168 0.47373 0.0
H692 H 0.19323 0.75557 0.49844 0.0
C693 C 0.14231 0.30847 0.503 0.0
C694 C 0.12502 0.30326 0.48506 0.0
N695 N 0.11658 0.32437 0.47604 0.0
N696 N 0.14483 0.33277 0.50552 0.0
C697 C 0.12871 0.34189 0.48912 0.0
H698 H 0.15167 0.29531 0.51416 0.0
Co699 Co 0.1634 0.35056 0.52892 0.0
C700 C 0.18838 0.38964 0.49973 0.0
O701 O 0.20771 0.38812 0.51413 0.0
N702 N 0.18119 0.36949 0.55258 0.0
C703 C 0.20555 0.38451 0.58231 0.0
C704 C 0.20014 0.36453 0.56779 0.0
C705 C 0.17547 0.3926 0.55848 0.0
N706 N 0.18984 0.40205 0.57654 0.0
O707 O 0.13405 0.36501 0.54033 0.0
H708 H 0.20951 0.34757 0.56878 0.0
H709 H 0.16106 0.40246 0.54947 0.0
O710 O 0.16951 0.3759 0.50383 0.0
C711 C 0.12519 0.34934 0.55546 0.0
O712 O 0.13538 0.32806 0.55701 0.0
N713 N 0.19152 0.33309 0.52071 0.0
C714 C 0.22952 0.30013 0.51749 0.0
C715 C 0.22643 0.31803 0.49933 0.0
C716 C 0.20687 0.33413 0.501 0.0
C717 C 0.19396 0.31526 0.53787 0.0
C718 C 0.21292 0.29894 0.53687 0.0
H719 H 0.20393 0.34686 0.48626 0.0
H720 H 0.18114 0.31395 0.55286 0.0
H721 H 0.1254 0.36108 0.48739 0.0
H722 H 0.1184 0.2852 0.48007 0.0
H723 H 0.21957 0.38583 0.59645 0.0
H724 H 0.23853 0.31906 0.4837 0.0
H725 H 0.21453 0.28541 0.55122 0.0
C726 C 0.87868 0.70464 0.46791 0.0
C727 C 0.89557 0.70663 0.44936 0.0
N728 N 0.91135 0.68828 0.45139 0.0
N729 N 0.88345 0.68497 0.48178 0.0
C730 C 0.90347 0.67545 0.47123 0.0
H731 H 0.86394 0.71694 0.47089 0.0
Co732 Co 0.86702 0.67221 0.50986 0.0
C733 C 0.84146 0.62761 0.48935 0.0
O734 O 0.82309 0.6303 0.50446 0.0
N735 N 0.85161 0.65848 0.538 0.0
C736 C 0.83443 0.65289 0.57466 0.0
C737 C 0.83842 0.66911 0.5557 0.0
C738 C 0.85557 0.63584 0.54694 0.0
N739 N 0.84531 0.63198 0.56914 0.0
O740 O 0.89754 0.66101 0.52297 0.0
H741 H 0.83277 0.68774 0.55563 0.0
H742 H 0.86667 0.62269 0.53775 0.0
O743 O 0.85994 0.64248 0.49046 0.0
C744 C 0.90713 0.68036 0.53253 0.0
O745 O 0.89673 0.70117 0.52804 0.0
N746 N 0.8378 0.68724 0.49985 0.0
C747 C 0.80004 0.71974 0.49157 0.0
C748 C 0.8009 0.6979 0.47824 0.0
C749 C 0.8204 0.68203 0.48224 0.0
C750 C 0.8372 0.70863 0.51242 0.0
C751 C 0.81858 0.72496 0.50872 0.0
H752 H 0.82163 0.66615 0.47079 0.0
H753 H 0.8516 0.71319 0.52547 0.0
H754 H 0.91236 0.65969 0.47853 0.0
H755 H 0.89599 0.72057 0.43532 0.0
H756 H 0.82452 0.65632 0.59136 0.0
H757 H 0.787 0.69346 0.46453 0.0
H758 H 0.8186 0.74156 0.51942 0.0
C759 C 0.81743 0.38659 0.52003 0.0
C760 C 0.81231 0.40689 0.50636 0.0
N761 N 0.83199 0.41267 0.49246 0.0
N762 N 0.84011 0.37947 0.51458 0.0
C763 C 0.84852 0.39561 0.49773 0.0
H764 H 0.80578 0.37808 0.53372 0.0
Co765 Co 0.85723 0.35646 0.53172 0.0
C766 C 0.89302 0.33744 0.49768 0.0
O767 O 0.88687 0.31581 0.5063 0.0
N768 N 0.87567 0.33384 0.55025 0.0
C769 C 0.89002 0.30583 0.57592 0.0
C770 C 0.87051 0.31215 0.56115 0.0
C771 C 0.89856 0.33983 0.55838 0.0
N772 N 0.90753 0.32339 0.57407 0.0
O773 O 0.87256 0.38268 0.54987 0.0
H774 H 0.85338 0.30196 0.5598 0.0
H775 H 0.90813 0.35679 0.55402 0.0
O776 O 0.88294 0.35638 0.50626 0.0
C777 C 0.85982 0.38318 0.56941 0.0
O778 O 0.84255 0.36629 0.57239 0.0
N779 N 0.83837 0.33191 0.51563 0.0
C780 C 0.79947 0.30398 0.49575 0.0
C781 C 0.81717 0.31476 0.48041 0.0
C782 C 0.83612 0.32934 0.49072 0.0
C783 C 0.82096 0.32182 0.53058 0.0
C784 C 0.80169 0.30744 0.52112 0.0
H785 H 0.84782 0.33985 0.47858 0.0
H786 H 0.82117 0.32614 0.54992 0.0
H787 H 0.86647 0.39493 0.48961 0.0
H788 H 0.79556 0.41693 0.507 0.0
H789 H 0.89058 0.29048 0.58836 0.0
H790 H 0.8155 0.31315 0.46066 0.0
H791 H 0.78802 0.29986 0.5335 0.0
C792 C 0.48799 0.21535 0.64333 0.0
C793 C 0.47002 0.22111 0.62647 0.0
N794 N 0.46213 0.20044 0.61529 0.0
N795 N 0.49135 0.19114 0.64271 0.0
C796 C 0.47514 0.18263 0.62564 0.0
H797 H 0.49885 0.22815 0.65422 0.0
Co798 Co 0.51638 0.17251 0.6563 0.0
C799 C 0.48882 0.13275 0.68153 0.0
O800 O 0.50482 0.13387 0.69965 0.0
N801 N 0.54151 0.15239 0.66917 0.0
C802 C 0.56929 0.13365 0.69217 0.0
C803 C 0.55428 0.15326 0.69061 0.0
C804 C 0.54944 0.13194 0.65811 0.0
N805 N 0.56615 0.12028 0.67173 0.0
O806 O 0.52324 0.16078 0.62402 0.0
H807 H 0.55245 0.16658 0.70492 0.0
H808 H 0.54262 0.12511 0.64067 0.0
O809 O 0.49167 0.14683 0.66301 0.0
C810 C 0.53615 0.1786 0.61549 0.0
O811 O 0.54022 0.19779 0.62943 0.0
N812 N 0.51235 0.18798 0.68672 0.0
C813 C 0.51279 0.22119 0.72549 0.0
C814 C 0.49318 0.20424 0.72252 0.0
C815 C 0.49306 0.18796 0.70256 0.0
C816 C 0.53119 0.20462 0.68938 0.0
C817 C 0.53202 0.22098 0.70877 0.0
H818 H 0.47711 0.17627 0.69936 0.0
H819 H 0.54584 0.20519 0.67616 0.0
H820 H 0.4743 0.16393 0.61946 0.0
H821 H 0.46391 0.23918 0.62214 0.0
H822 H 0.58162 0.12954 0.70718 0.0
H823 H 0.47767 0.20437 0.73477 0.0
H824 H 0.54739 0.23383 0.71033 0.0
C825 C 0.3715 0.05072 0.71373 0.0
C826 C 0.38828 0.06968 0.71741 0.0
N827 N 0.40034 0.07381 0.69625 0.0
N828 N 0.37314 0.04292 0.69037 0.0
C829 C 0.39076 0.05738 0.68028 0.0
H830 H 0.35991 0.0424 0.72757 0.0
Co831 Co 0.35974 0.01554 0.67432 0.0
C832 C 0.33772 0.03728 0.62894 0.0
O833 O 0.31937 0.02129 0.62962 0.0
N834 N 0.34724 0.98804 0.65717 0.0
C835 C 0.32877 0.95329 0.64573 0.0
C836 C 0.32975 0.97125 0.66319 0.0
C837 C 0.35658 0.97969 0.63588 0.0
N838 N 0.34576 0.95849 0.62858 0.0
O839 O 0.39226 0.00666 0.6647 0.0
H840 H 0.31866 0.9713 0.67944 0.0
H841 H 0.37112 0.98905 0.62595 0.0
O842 O 0.35476 0.0365 0.64517 0.0
C843 C 0.40104 0.99685 0.68406 0.0
O844 O 0.38784 0.99673 0.7041 0.0
N845 N 0.32866 0.02152 0.68794 0.0
C846 C 0.28618 0.02118 0.71657 0.0
C847 C 0.28866 0.03691 0.69625 0.0
C848 C 0.31041 0.03719 0.68239 0.0
C849 C 0.3268 0.00718 0.70831 0.0
C850 C 0.30582 0.0065 0.7226 0.0
H851 H 0.3126 0.0502 0.66775 0.0
H852 H 0.34166 0.99549 0.71315 0.0
H853 H 0.39773 0.0546 0.662 0.0
H854 H 0.39198 0.07906 0.73455 0.0
H855 H 0.31699 0.9371 0.64612 0.0
H856 H 0.27426 0.04928 0.69156 0.0
H857 H 0.30491 0.99432 0.73824 0.0
C858 C 0.48538 0.89328 0.72477 0.0
C859 C 0.46977 0.91252 0.72558 0.0
N860 N 0.46869 0.92262 0.70304 0.0
N861 N 0.49385 0.89115 0.70174 0.0
C862 C 0.4832 0.90914 0.68892 0.0
H863 H 0.49096 0.88226 0.74016 0.0
Co864 Co 0.5191 0.87232 0.6903 0.0
C865 C 0.49829 0.84705 0.64714 0.0
O866 O 0.51044 0.82786 0.65399 0.0
N867 N 0.54537 0.85467 0.67747 0.0
C868 C 0.57953 0.83477 0.67012 0.0
C869 C 0.56143 0.8389 0.68705 0.0
C870 C 0.55434 0.85986 0.65486 0.0
N871 N 0.57497 0.84811 0.64994 0.0
O872 O 0.53571 0.90134 0.67898 0.0
H873 H 0.56086 0.83141 0.70533 0.0
H874 H 0.54628 0.87282 0.64242 0.0
O875 O 0.50043 0.86677 0.65963 0.0
C876 C 0.54855 0.9068 0.69805 0.0
O877 O 0.54454 0.89407 0.71811 0.0
N878 N 0.50445 0.84452 0.70534 0.0
C879 C 0.48565 0.80839 0.73682 0.0
C880 C 0.4723 0.81553 0.71601 0.0
C881 C 0.48176 0.83414 0.70078 0.0
C882 C 0.51697 0.83842 0.72607 0.0
C883 C 0.50815 0.82027 0.74181 0.0
H884 H 0.47041 0.84069 0.68602 0.0
H885 H 0.53366 0.84836 0.73097 0.0
H886 H 0.48715 0.91317 0.66988 0.0
H887 H 0.46026 0.91882 0.74161 0.0
H888 H 0.59497 0.82306 0.67257 0.0
H889 H 0.45441 0.80737 0.71201 0.0
H890 H 0.51888 0.81565 0.75788 0.0
C891 C 0.65598 0.00679 0.70874 0.0
C892 C 0.63799 0.99107 0.71763 0.0
N893 N 0.62779 0.97886 0.69849 0.0
N894 N 0.65709 0.00421 0.68419 0.0
C895 C 0.63966 0.98722 0.67855 0.0
H896 H 0.66679 0.01993 0.71927 0.0
Co897 Co 0.67387 0.02274 0.66113 0.0
C898 C 0.69562 0.98451 0.63003 0.0
O899 O 0.71696 0.99591 0.63228 0.0
N900 N 0.69019 0.04181 0.63648 0.0
C901 C 0.717 0.06254 0.61318 0.0
C902 C 0.71429 0.04721 0.63295 0.0
C903 C 0.67888 0.05392 0.61807 0.0
N904 N 0.69465 0.06666 0.60384 0.0
O905 O 0.64254 0.03064 0.64713 0.0
H906 H 0.72927 0.04074 0.64401 0.0
H907 H 0.65931 0.05457 0.61547 0.0
O908 O 0.67687 0.99328 0.64045 0.0
C909 C 0.63653 0.04874 0.66029 0.0
O910 O 0.65196 0.05674 0.67728 0.0
N911 N 0.7034 0.01777 0.67857 0.0
C912 C 0.74021 0.017 0.7149 0.0
C913 C 0.73044 0.99523 0.70465 0.0
C914 C 0.71192 0.99599 0.68657 0.0
C915 C 0.71224 0.03892 0.68881 0.0
C916 C 0.73101 0.03901 0.7063 0.0
H917 H 0.70339 0.97913 0.68023 0.0
H918 H 0.70418 0.05597 0.68373 0.0
H919 H 0.63514 0.98167 0.65999 0.0
H920 H 0.6322 0.98953 0.73653 0.0
H921 H 0.73403 0.0707 0.60664 0.0
H922 H 0.73601 0.97771 0.71144 0.0
H923 H 0.73771 0.05629 0.71359 0.0
C924 C 0.55688 0.86681 0.32753 0.0
C925 C 0.5753 0.88414 0.32449 0.0
N926 N 0.57586 0.89898 0.34416 0.0
N927 N 0.54565 0.87046 0.34914 0.0
C928 C 0.55774 0.89017 0.35883 0.0
H929 H 0.55197 0.85273 0.31446 0.0
Co930 Co 0.51823 0.85365 0.36318 0.0
C931 C 0.5389 0.82794 0.40633 0.0
O932 O 0.52324 0.8097 0.40267 0.0
N933 N 0.49093 0.83747 0.37823 0.0
C934 C 0.45937 0.81305 0.38876 0.0
C935 C 0.47702 0.8178 0.37136 0.0
C936 C 0.48118 0.84418 0.39996 0.0
N937 N 0.4619 0.82983 0.40658 0.0
O938 O 0.50753 0.88324 0.37741 0.0
H939 H 0.47937 0.80717 0.35499 0.0
H940 H 0.48852 0.85894 0.41116 0.0
O941 O 0.53903 0.84614 0.39165 0.0
C942 C 0.49669 0.89542 0.3608 0.0
O943 O 0.50087 0.89007 0.33777 0.0
N944 N 0.52564 0.82534 0.34583 0.0
C945 C 0.52578 0.78715 0.31203 0.0
C946 C 0.54118 0.78695 0.33291 0.0
C947 C 0.54111 0.80656 0.34957 0.0
C948 C 0.51135 0.82602 0.32524 0.0
C949 C 0.51099 0.80718 0.3083 0.0
H950 H 0.55347 0.80658 0.36513 0.0
H951 H 0.49955 0.84125 0.32234 0.0
H952 H 0.55259 0.89841 0.37594 0.0
H953 H 0.58731 0.88571 0.30883 0.0
H954 H 0.44569 0.79839 0.38835 0.0
H955 H 0.55339 0.77208 0.33605 0.0
H956 H 0.49893 0.80818 0.29246 0.0
C957 C 0.72203 0.97891 0.39845 0.0
C958 C 0.72589 0.95949 0.41391 0.0
N959 N 0.70396 0.9509 0.42185 0.0
N960 N 0.69776 0.98266 0.39681 0.0
C961 C 0.68727 0.96511 0.41103 0.0
H962 H 0.73612 0.99052 0.39037 0.0
Co963 Co 0.68181 0.00933 0.38341 0.0
C964 C 0.64141 0.98387 0.35421 0.0
O965 O 0.64411 0.99882 0.33552 0.0
N966 N 0.66498 0.03618 0.37077 0.0
C967 C 0.65532 0.07419 0.36125 0.0
C968 C 0.67416 0.05832 0.36412 0.0
C969 C 0.64046 0.03934 0.37217 0.0
N970 N 0.6342 0.06218 0.36638 0.0
O971 O 0.66605 0.01528 0.41428 0.0
H972 H 0.69332 0.06341 0.36282 0.0
H973 H 0.62753 0.02562 0.37884 0.0
O974 O 0.65513 0.98664 0.37318 0.0
C975 C 0.67929 0.02252 0.43248 0.0
O976 O 0.69878 0.01026 0.43827 0.0
N977 N 0.69983 0.00599 0.354 0.0
C978 C 0.73534 0.00739 0.317 0.0
C979 C 0.71627 0.98956 0.31674 0.0
C980 C 0.69881 0.9889 0.33575 0.0
C981 C 0.71857 0.02287 0.35453 0.0
C982 C 0.73599 0.02433 0.3361 0.0
H983 H 0.68531 0.97419 0.33617 0.0
H984 H 0.72058 0.0349 0.37002 0.0
H985 H 0.66794 0.9643 0.4153 0.0
H986 H 0.7435 0.95302 0.4199 0.0
H987 H 0.65703 0.09328 0.35642 0.0
H988 H 0.71546 0.97574 0.3026 0.0
H989 H 0.75034 0.03833 0.33722 0.0
C990 C 0.48913 0.12033 0.30925 0.0
C991 C 0.47375 0.10016 0.30738 0.0
N992 N 0.46791 0.09275 0.33019 0.0
N993 N 0.49281 0.12578 0.33316 0.0
C994 C 0.47956 0.10861 0.34548 0.0
H995 H 0.49775 0.12976 0.29407 0.0
Co996 Co 0.51476 0.14914 0.34619 0.0
C997 C 0.48739 0.17393 0.386 0.0
O998 O 0.49965 0.19425 0.3811 0.0
N999 N 0.5374 0.17221 0.35969 0.0
C1000 C 0.56401 0.20277 0.36726 0.0
C1001 C 0.54744 0.19306 0.35058 0.0
C1002 C 0.54807 0.16999 0.38204 0.0
N1003 N 0.56483 0.18791 0.38692 0.0
O1004 O 0.53118 0.12384 0.36436 0.0
H1005 H 0.5432 0.2011 0.33307 0.0
H1006 H 0.54368 0.15526 0.39454 0.0
O1007 O 0.49152 0.15481 0.37339 0.0
C1008 C 0.54507 0.1118 0.35038 0.0
O1009 O 0.54419 0.11595 0.32665 0.0
N1010 N 0.50106 0.17302 0.32562 0.0
C1011 C 0.4904 0.20789 0.28992 0.0
C1012 C 0.4752 0.2045 0.31044 0.0
C1013 C 0.48057 0.18653 0.32794 0.0
C1014 C 0.51494 0.17511 0.30501 0.0
C1015 C 0.51005 0.1924 0.28706 0.0
H1016 H 0.46831 0.18372 0.34315 0.0
H1017 H 0.53066 0.16375 0.30301 0.0
H1018 H 0.4795 0.10699 0.36525 0.0
H1019 H 0.46761 0.0914 0.29055 0.0
H1020 H 0.57432 0.21969 0.36499 0.0
H1021 H 0.4594 0.21568 0.31296 0.0
H1022 H 0.52223 0.19428 0.27153 0.0
C1023 C 0.3184 0.02636 0.38319 0.0
C1024 C 0.31561 0.04478 0.40004 0.0
N1025 N 0.33725 0.04875 0.41173 0.0
N1026 N 0.34172 0.01903 0.38429 0.0
C1027 C 0.35275 0.03321 0.40157 0.0
H1028 H 0.30408 0.01802 0.37193 0.0
Co1029 Co 0.35619 0.99177 0.37149 0.0
C1030 C 0.40131 0.01162 0.34859 0.0
O1031 O 0.39782 0.99603 0.33056 0.0
N1032 N 0.37207 0.9642 0.35974 0.0
C1033 C 0.38553 0.93117 0.34126 0.0
C1034 C 0.36689 0.94742 0.34217 0.0
C1035 C 0.3938 0.95743 0.3693 0.0
N1036 N 0.40235 0.93747 0.35849 0.0
O1037 O 0.36511 0.9823 0.40421 0.0
H1038 H 0.35106 0.94689 0.33023 0.0
H1039 H 0.40347 0.96728 0.38377 0.0
O1040 O 0.38613 0.01176 0.36635 0.0
C1041 C 0.34534 0.97114 0.41077 0.0
O1042 O 0.32692 0.97033 0.39511 0.0
N1043 N 0.34332 0.9989 0.34034 0.0
C1044 C 0.31284 0.00431 0.29948 0.0
C1045 C 0.33258 0.02083 0.30373 0.0
C1046 C 0.34751 0.01804 0.32471 0.0
C1047 C 0.32387 0.98328 0.33647 0.0
C1048 C 0.30896 0.98516 0.31594 0.0
H1049 H 0.36154 0.03172 0.32881 0.0
H1050 H 0.31978 0.96907 0.34963 0.0
H1051 H 0.37139 0.03092 0.40791 0.0
H1052 H 0.29883 0.05401 0.40386 0.0
H1053 H 0.38694 0.91641 0.32829 0.0
H1054 H 0.33567 0.03626 0.29166 0.0
H1055 H 0.2939 0.97209 0.3134 0.0
C1056 C 0.71031 0.1536 0.4832 0.0
C1057 C 0.71488 0.13265 0.47018 0.0
N1058 N 0.69321 0.12227 0.46314 0.0
N1059 N 0.6859 0.15631 0.48418 0.0
C1060 C 0.67613 0.13716 0.47165 0.0
H1061 H 0.72368 0.16482 0.49306 0.0
Co1062 Co 0.66679 0.17476 0.50463 0.0
C1063 C 0.62901 0.19287 0.47161 0.0
O1064 O 0.63332 0.21459 0.48093 0.0
N1065 N 0.64524 0.19206 0.52531 0.0
C1066 C 0.62333 0.21667 0.54854 0.0
C1067 C 0.64467 0.21454 0.53546 0.0
C1068 C 0.62375 0.1813 0.53234 0.0
N1069 N 0.61029 0.19565 0.54647 0.0
O1070 O 0.65602 0.14476 0.51993 0.0
H1071 H 0.6584 0.22889 0.53356 0.0
H1072 H 0.61765 0.16319 0.52692 0.0
O1073 O 0.64099 0.17465 0.47928 0.0
C1074 C 0.67225 0.14449 0.53704 0.0
O1075 O 0.68764 0.16326 0.53876 0.0
N1076 N 0.68219 0.20341 0.49265 0.0
C1077 C 0.71641 0.24047 0.48167 0.0
C1078 C 0.70334 0.22843 0.46274 0.0
C1079 C 0.68633 0.2096 0.46868 0.0
C1080 C 0.69593 0.2142 0.5108 0.0
C1081 C 0.71245 0.23315 0.50585 0.0
H1082 H 0.67768 0.19907 0.45414 0.0
H1083 H 0.6946 0.20761 0.52942 0.0
H1084 H 0.65664 0.13308 0.4706 0.0
H1085 H 0.73261 0.12463 0.46807 0.0
H1086 H 0.61811 0.23223 0.55925 0.0
H1087 H 0.70675 0.23302 0.44372 0.0
H1088 H 0.72293 0.24136 0.52083 0.0
C1089 C 0.64174 0.80255 0.50571 0.0
C1090 C 0.6235 0.79741 0.48877 0.0
N1091 N 0.61478 0.8186 0.48045 0.0
N1092 N 0.64476 0.82687 0.50787 0.0
C1093 C 0.62807 0.83618 0.49223 0.0
H1094 H 0.65183 0.78936 0.51614 0.0
Co1095 Co 0.66534 0.84331 0.53014 0.0
C1096 C 0.68973 0.88291 0.50213 0.0
O1097 O 0.70973 0.87831 0.51468 0.0
N1098 N 0.68528 0.86069 0.55349 0.0
C1099 C 0.71114 0.87384 0.58286 0.0
C1100 C 0.70503 0.85485 0.56723 0.0
C1101 C 0.67984 0.88331 0.56136 0.0
N1102 N 0.69504 0.89159 0.5793 0.0
O1103 O 0.63725 0.85737 0.54501 0.0
H1104 H 0.71445 0.83792 0.56648 0.0
H1105 H 0.66499 0.89371 0.55386 0.0
O1106 O 0.66997 0.8704 0.50632 0.0
C1107 C 0.63184 0.84272 0.5625 0.0
O1108 O 0.64389 0.82245 0.56432 0.0
N1109 N 0.69216 0.82626 0.51754 0.0
C1110 C 0.72541 0.79153 0.50229 0.0
C1111 C 0.71827 0.81022 0.48637 0.0
C1112 C 0.70113 0.82711 0.49416 0.0
C1113 C 0.69836 0.80771 0.53278 0.0
C1114 C 0.7151 0.79042 0.52571 0.0
H1115 H 0.69436 0.84003 0.481 0.0
H1116 H 0.6896 0.80587 0.55043 0.0
H1117 H 0.62507 0.85545 0.4902 0.0
H1118 H 0.61715 0.77946 0.48303 0.0
H1119 H 0.72596 0.87435 0.59618 0.0
H1120 H 0.72515 0.81121 0.46781 0.0
H1121 H 0.71981 0.77614 0.53848 0.0
C1122 C 0.31426 0.14272 0.53225 0.0
C1123 C 0.30854 0.12592 0.55018 0.0
N1124 N 0.32945 0.11871 0.56109 0.0
N1125 N 0.33874 0.14613 0.53136 0.0
C1126 C 0.3475 0.13129 0.54911 0.0
H1127 H 0.30145 0.15042 0.51937 0.0
Co1128 Co 0.35619 0.16171 0.50577 0.0
C1129 C 0.3977 0.18793 0.53067 0.0
O1130 O 0.39562 0.20574 0.5148 0.0
N1131 N 0.37452 0.17653 0.47944 0.0
C1132 C 0.38877 0.20045 0.44929 0.0
C1133 C 0.37071 0.19716 0.46651 0.0
C1134 C 0.39524 0.16775 0.46942 0.0
N1135 N 0.40415 0.18187 0.451 0.0
O1136 O 0.36887 0.13078 0.49692 0.0
H1137 H 0.3562 0.20968 0.46941 0.0
H1138 H 0.4041 0.15159 0.47594 0.0
O1139 O 0.38317 0.16927 0.52906 0.0
C1140 C 0.35124 0.12221 0.48362 0.0
O1141 O 0.33197 0.13555 0.48005 0.0
N1142 N 0.33977 0.19083 0.51218 0.0
C1143 C 0.30601 0.22805 0.51549 0.0
C1144 C 0.32492 0.22604 0.53303 0.0
C1145 C 0.34146 0.20687 0.53132 0.0
C1146 C 0.32121 0.19253 0.49541 0.0
C1147 C 0.3045 0.21108 0.49646 0.0
H1148 H 0.35487 0.20458 0.54574 0.0
H1149 H 0.31946 0.17936 0.48078 0.0
H1150 H 0.36686 0.12881 0.55221 0.0
H1151 H 0.29035 0.11834 0.5533 0.0
H1152 H 0.39043 0.21542 0.43642 0.0
H1153 H 0.32627 0.23852 0.54837 0.0
H1154 H 0.29021 0.21192 0.48259 0.0
C1155 C 0.32407 0.87391 0.51666 0.0
C1156 C 0.31734 0.89357 0.50278 0.0
N1157 N 0.33609 0.89998 0.48785 0.0
N1158 N 0.34704 0.8681 0.51073 0.0
C1159 C 0.35378 0.8841 0.49311 0.0
H1160 H 0.31377 0.86576 0.53158 0.0
Co1161 Co 0.36776 0.84965 0.52965 0.0
C1162 C 0.40323 0.83079 0.49475 0.0
O1163 O 0.399 0.8095 0.50504 0.0
N1164 N 0.3899 0.83176 0.54994 0.0
C1165 C 0.41052 0.80503 0.57258 0.0
C1166 C 0.3912 0.80799 0.5565 0.0
C1167 C 0.4091 0.8425 0.56208 0.0
N1168 N 0.42144 0.82692 0.57623 0.0
O1169 O 0.38023 0.87985 0.54328 0.0
H1170 H 0.37931 0.79335 0.54994 0.0
H1171 H 0.41439 0.86153 0.56067 0.0
O1172 O 0.39212 0.84935 0.50282 0.0
C1173 C 0.36562 0.88215 0.56131 0.0
O1174 O 0.35085 0.86364 0.56677 0.0
N1175 N 0.35113 0.82138 0.51817 0.0
C1176 C 0.31072 0.79105 0.50597 0.0
C1177 C 0.32496 0.80231 0.48755 0.0
C1178 C 0.34516 0.81744 0.49404 0.0
C1179 C 0.33779 0.81009 0.53612 0.0
C1180 C 0.31848 0.79395 0.53042 0.0
H1181 H 0.35438 0.8278 0.4798 0.0
H1182 H 0.34125 0.81465 0.55514 0.0
H1183 H 0.37185 0.88499 0.4853 0.0
H1184 H 0.30059 0.90329 0.50509 0.0
H1185 H 0.41579 0.78827 0.58132 0.0
H1186 H 0.31963 0.80079 0.46842 0.0
H1187 H 0.30889 0.78491 0.54532 0.0
C1188 C 0.48825 0.71098 0.151 0.0
C1189 C 0.46914 0.7166 0.13548 0.0
N1190 N 0.45867 0.69569 0.12684 0.0
N1191 N 0.49003 0.68663 0.15205 0.0
C1192 C 0.47169 0.67788 0.13741 0.0
H1193 H 0.50135 0.72381 0.15908 0.0
Co1194 Co 0.51664 0.66849 0.16262 0.0
C1195 C 0.49306 0.62745 0.18908 0.0
O1196 O 0.5094 0.63026 0.20674 0.0
N1197 N 0.54344 0.64887 0.17229 0.0
C1198 C 0.57383 0.63014 0.19159 0.0
C1199 C 0.55863 0.64963 0.19211 0.0
C1200 C 0.55009 0.62857 0.16008 0.0
N1201 N 0.56843 0.61703 0.17142 0.0
O1202 O 0.52095 0.65837 0.12933 0.0
H1203 H 0.5583 0.66262 0.20687 0.0
H1204 H 0.54102 0.62166 0.14369 0.0
O1205 O 0.49387 0.64132 0.17023 0.0
C1206 C 0.5329 0.67684 0.12086 0.0
O1207 O 0.53864 0.69489 0.13579 0.0
N1208 N 0.51468 0.6827 0.19404 0.0
C1209 C 0.51783 0.71359 0.23486 0.0
C1210 C 0.49791 0.69694 0.23198 0.0
C1211 C 0.49639 0.68191 0.21105 0.0
C1212 C 0.53344 0.69949 0.19625 0.0
C1213 C 0.53568 0.71458 0.21661 0.0
H1214 H 0.48021 0.67046 0.20815 0.0
H1215 H 0.54708 0.70101 0.18204 0.0
H1216 H 0.46914 0.65875 0.13321 0.0
H1217 H 0.4649 0.73476 0.12948 0.0
H1218 H 0.5875 0.62563 0.20525 0.0
H1219 H 0.48316 0.69632 0.24515 0.0
H1220 H 0.55119 0.72729 0.21782 0.0
C1221 C 0.39085 0.52714 0.22063 0.0
C1222 C 0.40773 0.54564 0.22557 0.0
N1223 N 0.41417 0.55649 0.20422 0.0
N1224 N 0.38675 0.52613 0.19626 0.0
C1225 C 0.40115 0.54416 0.1868 0.0
H1226 H 0.38324 0.51431 0.23378 0.0
Co1227 Co 0.36994 0.50186 0.17853 0.0
C1228 C 0.34406 0.52916 0.13949 0.0
O1229 O 0.32461 0.51499 0.14299 0.0
N1230 N 0.35362 0.47712 0.15959 0.0
C1231 C 0.32866 0.4483 0.14366 0.0
C1232 C 0.33195 0.4648 0.16241 0.0
C1233 C 0.36283 0.46774 0.1387 0.0
N1234 N 0.34816 0.45023 0.12885 0.0
O1235 O 0.40074 0.49209 0.16482 0.0
H1236 H 0.31892 0.46748 0.17683 0.0
H1237 H 0.37993 0.47372 0.13048 0.0
O1238 O 0.36355 0.52582 0.15217 0.0
C1239 C 0.40752 0.47642 0.18072 0.0
O1240 O 0.39521 0.4746 0.20126 0.0
N1241 N 0.34105 0.50839 0.1959 0.0
C1242 C 0.30258 0.509 0.22953 0.0
C1243 C 0.30595 0.52806 0.21248 0.0
C1244 C 0.32578 0.52769 0.19603 0.0
C1245 C 0.33834 0.49043 0.21302 0.0
C1246 C 0.31907 0.49006 0.22947 0.0
H1247 H 0.32903 0.54301 0.18395 0.0
H1248 H 0.35097 0.4757 0.21344 0.0
H1249 H 0.4028 0.54749 0.16732 0.0
H1250 H 0.41574 0.54953 0.24339 0.0
H1251 H 0.31335 0.43551 0.14138 0.0
H1252 H 0.29392 0.54337 0.21243 0.0
H1253 H 0.31719 0.47499 0.24222 0.0
C1254 C 0.49141 0.36884 0.20789 0.0
C1255 C 0.47342 0.38589 0.2089 0.0
N1256 N 0.47351 0.39841 0.18763 0.0
N1257 N 0.50241 0.37033 0.18585 0.0
C1258 C 0.49117 0.38865 0.17401 0.0
H1259 H 0.49606 0.35619 0.22229 0.0
Co1260 Co 0.52802 0.35268 0.17295 0.0
C1261 C 0.50593 0.32872 0.12946 0.0
O1262 O 0.51916 0.30971 0.13438 0.0
N1263 N 0.55434 0.33605 0.15856 0.0
C1264 C 0.58588 0.3135 0.14802 0.0
C1265 C 0.56846 0.31745 0.16568 0.0
C1266 C 0.56386 0.3431 0.13666 0.0
N1267 N 0.58305 0.32987 0.1299 0.0
O1268 O 0.54295 0.38254 0.1617 0.0
H1269 H 0.56657 0.30724 0.1825 0.0
H1270 H 0.55635 0.35741 0.12549 0.0
O1271 O 0.50826 0.34765 0.14303 0.0
C1272 C 0.55678 0.38804 0.18002 0.0
O1273 O 0.5553 0.37419 0.19966 0.0
N1274 N 0.51509 0.32393 0.18791 0.0
C1275 C 0.4994 0.28699 0.22011 0.0
C1276 C 0.48535 0.29269 0.19929 0.0
C1277 C 0.4932 0.31177 0.1837 0.0
C1278 C 0.5285 0.31876 0.20838 0.0
C1279 C 0.52122 0.30029 0.22447 0.0
H1280 H 0.48116 0.31726 0.16903 0.0
H1281 H 0.5449 0.32948 0.21257 0.0
H1282 H 0.49564 0.39452 0.15556 0.0
H1283 H 0.46129 0.38899 0.22412 0.0
H1284 H 0.5997 0.29977 0.14855 0.0
H1285 H 0.46808 0.28312 0.19564 0.0
H1286 H 0.53255 0.29655 0.24038 0.0
C1287 C 0.65762 0.49193 0.20063 0.0
C1288 C 0.64093 0.47357 0.20641 0.0
N1289 N 0.63084 0.46493 0.18537 0.0
N1290 N 0.65822 0.49449 0.17605 0.0
C1291 C 0.64183 0.47776 0.16731 0.0
H1292 H 0.66785 0.50326 0.21353 0.0
Co1293 Co 0.67319 0.51847 0.15703 0.0
C1294 C 0.69762 0.4905 0.11827 0.0
O1295 O 0.71694 0.50516 0.12064 0.0
N1296 N 0.68738 0.5429 0.13666 0.0
C1297 C 0.70492 0.57698 0.1222 0.0
C1298 C 0.70579 0.55955 0.14028 0.0
C1299 C 0.6765 0.55018 0.11554 0.0
N1300 N 0.68636 0.57105 0.10676 0.0
O1301 O 0.64131 0.52647 0.14424 0.0
H1302 H 0.71814 0.56038 0.1558 0.0
H1303 H 0.66013 0.54162 0.10775 0.0
O1304 O 0.67871 0.49392 0.1314 0.0
C1305 C 0.63289 0.54046 0.16066 0.0
O1306 O 0.64601 0.54447 0.18063 0.0
N1307 N 0.70318 0.5132 0.17358 0.0
C1308 C 0.73881 0.51009 0.21069 0.0
C1309 C 0.73559 0.49134 0.1933 0.0
C1310 C 0.71721 0.49301 0.17504 0.0
C1311 C 0.70624 0.53131 0.19049 0.0
C1312 C 0.72415 0.5304 0.20871 0.0
H1313 H 0.7134 0.47757 0.16326 0.0
H1314 H 0.69395 0.54637 0.19033 0.0
H1315 H 0.63771 0.47541 0.14799 0.0
H1316 H 0.63597 0.46761 0.2247 0.0
H1317 H 0.7157 0.59382 0.12163 0.0
H1318 H 0.74612 0.47499 0.19472 0.0
H1319 H 0.72579 0.54509 0.22192 0.0
C1320 C 0.53833 0.38113 0.81269 0.0
C1321 C 0.55481 0.39992 0.80792 0.0
N1322 N 0.55993 0.41165 0.8291 0.0
N1323 N 0.53313 0.38083 0.83687 0.0
C1324 C 0.54686 0.39952 0.8464 0.0
H1325 H 0.52994 0.36924 0.79908 0.0
Co1326 Co 0.50871 0.36229 0.85335 0.0
C1327 C 0.53691 0.33646 0.89178 0.0
O1328 O 0.5231 0.31672 0.88863 0.0
N1329 N 0.48409 0.34449 0.87065 0.0
C1330 C 0.45106 0.32254 0.88174 0.0
C1331 C 0.46621 0.32885 0.86261 0.0
C1332 C 0.47898 0.3476 0.89476 0.0
N1333 N 0.459 0.33447 0.90194 0.0
O1334 O 0.49835 0.39063 0.86995 0.0
H1335 H 0.46344 0.3228 0.84398 0.0
H1336 H 0.48977 0.3594 0.90679 0.0
O1337 O 0.53302 0.35546 0.87898 0.0
C1338 C 0.48624 0.40359 0.85499 0.0
O1339 O 0.487 0.39847 0.83149 0.0
N1340 N 0.51602 0.33488 0.83428 0.0
C1341 C 0.51712 0.29742 0.79973 0.0
C1342 C 0.53525 0.29952 0.81816 0.0
C1343 C 0.53472 0.31888 0.83503 0.0
C1344 C 0.49917 0.33361 0.81572 0.0
C1345 C 0.49909 0.31491 0.79859 0.0
H1346 H 0.54949 0.32112 0.84814 0.0
H1347 H 0.48533 0.34726 0.81446 0.0
H1348 H 0.54612 0.40507 0.86543 0.0
H1349 H 0.56195 0.40499 0.7901 0.0
H1350 H 0.43489 0.31068 0.88067 0.0
H1351 H 0.54998 0.28676 0.81907 0.0
H1352 H 0.48494 0.31415 0.78453 0.0
C1353 C 0.70421 0.49549 0.87892 0.0
C1354 C 0.70811 0.47743 0.89608 0.0
N1355 N 0.68632 0.47067 0.90587 0.0
N1356 N 0.68006 0.49991 0.87795 0.0
C1357 C 0.66973 0.48432 0.89433 0.0
H1358 H 0.71816 0.5056 0.86887 0.0
Co1359 Co 0.6627 0.5253 0.8639 0.0
C1360 C 0.62149 0.49897 0.83872 0.0
O1361 O 0.62346 0.51421 0.82022 0.0
N1362 N 0.64354 0.55059 0.85071 0.0
C1363 C 0.62575 0.57923 0.82836 0.0
C1364 C 0.64603 0.56518 0.83077 0.0
C1365 C 0.62151 0.55645 0.86006 0.0
N1366 N 0.61045 0.57375 0.84684 0.0
O1367 O 0.65123 0.5333 0.89616 0.0
H1368 H 0.66087 0.56529 0.81788 0.0
H1369 H 0.61307 0.54733 0.87557 0.0
O1370 O 0.63587 0.50164 0.8572 0.0
C1371 C 0.66995 0.54549 0.90421 0.0
O1372 O 0.68883 0.54864 0.88967 0.0
N1373 N 0.67834 0.52043 0.83359 0.0
C1374 C 0.71199 0.52164 0.79498 0.0
C1375 C 0.69474 0.50217 0.79726 0.0
C1376 C 0.67809 0.50175 0.81704 0.0
C1377 C 0.69537 0.53894 0.83164 0.0
C1378 C 0.7115 0.5404 0.8122 0.0
H1379 H 0.66583 0.48616 0.81947 0.0
H1380 H 0.69604 0.55328 0.84514 0.0
H1381 H 0.6505 0.48421 0.89905 0.0
H1382 H 0.72566 0.47027 0.90133 0.0
H1383 H 0.62225 0.59215 0.81382 0.0
H1384 H 0.6948 0.48706 0.78454 0.0
H1385 H 0.72405 0.55599 0.81105 0.0
C1386 C 0.46612 0.64126 0.81567 0.0
C1387 C 0.4503 0.62155 0.81251 0.0
N1388 N 0.44532 0.61201 0.83473 0.0
N1389 N 0.47114 0.6441 0.83981 0.0
C1390 C 0.45813 0.62599 0.85095 0.0
H1391 H 0.47452 0.65181 0.8011 0.0
Co1392 Co 0.49555 0.66418 0.85413 0.0
C1393 C 0.4717 0.68599 0.89786 0.0
O1394 O 0.48488 0.7061 0.8948 0.0
N1395 N 0.52086 0.68397 0.86888 0.0
C1396 C 0.54868 0.71301 0.87838 0.0
C1397 C 0.52925 0.70669 0.86328 0.0
C1398 C 0.53554 0.6772 0.88774 0.0
N1399 N 0.55298 0.69421 0.89352 0.0
O1400 O 0.51053 0.63567 0.86763 0.0
H1401 H 0.52167 0.71847 0.84951 0.0
H1402 H 0.53353 0.66004 0.8972 0.0
O1403 O 0.4743 0.66816 0.88308 0.0
C1404 C 0.5232 0.62774 0.84988 0.0
O1405 O 0.52158 0.63886 0.8286 0.0
N1406 N 0.48297 0.6911 0.83731 0.0
C1407 C 0.47261 0.72826 0.80411 0.0
C1408 C 0.45827 0.7247 0.82521 0.0
C1409 C 0.4634 0.70548 0.84143 0.0
C1410 C 0.4965 0.69412 0.81656 0.0
C1411 C 0.49173 0.7125 0.79985 0.0
H1412 H 0.45163 0.70226 0.85696 0.0
H1413 H 0.51161 0.68233 0.81324 0.0
H1414 H 0.45944 0.62207 0.87038 0.0
H1415 H 0.44366 0.61424 0.79518 0.0
H1416 H 0.55837 0.73045 0.8785 0.0
H1417 H 0.4432 0.73649 0.82896 0.0
H1418 H 0.50342 0.71478 0.78399 0.0
C1419 C 0.30836 0.53481 0.8854 0.0
C1420 C 0.30668 0.55433 0.9012 0.0
N1421 N 0.32752 0.55607 0.91464 0.0
N1422 N 0.33034 0.52468 0.88874 0.0
C1423 C 0.34145 0.53808 0.90661 0.0
H1424 H 0.29451 0.5285 0.87241 0.0
Co1425 Co 0.34546 0.49819 0.87469 0.0
C1426 C 0.3879 0.5232 0.84954 0.0
O1427 O 0.38669 0.50775 0.83115 0.0
N1428 N 0.36201 0.47177 0.86184 0.0
C1429 C 0.37345 0.43513 0.8498 0.0
C1430 C 0.35409 0.45061 0.85145 0.0
C1431 C 0.38599 0.46838 0.86673 0.0
N1432 N 0.39346 0.44656 0.85933 0.0
O1433 O 0.35834 0.48948 0.90609 0.0
H1434 H 0.33536 0.44596 0.8465 0.0
H1435 H 0.39758 0.48123 0.87685 0.0
O1436 O 0.37314 0.52052 0.86748 0.0
C1437 C 0.34077 0.47902 0.9177 0.0
O1438 O 0.31861 0.47938 0.90808 0.0
N1439 N 0.32982 0.5041 0.84439 0.0
C1440 C 0.29973 0.50488 0.80261 0.0
C1441 C 0.31858 0.52257 0.806 0.0
C1442 C 0.33321 0.52216 0.82736 0.0
C1443 C 0.3109 0.4876 0.84173 0.0
C1444 C 0.29608 0.48726 0.82086 0.0
H1445 H 0.34662 0.53668 0.83034 0.0
H1446 H 0.30721 0.47455 0.85619 0.0
H1447 H 0.35983 0.53495 0.91332 0.0
H1448 H 0.2913 0.56618 0.90283 0.0
H1449 H 0.37281 0.41678 0.84261 0.0
H1450 H 0.32145 0.53697 0.79266 0.0
H1451 H 0.28167 0.47338 0.81915 0.0
C1452 C 0.69772 0.64475 1.00515 0.0
C1453 C 0.70189 0.62259 0.99441 0.0
N1454 N 0.68502 0.61869 0.97645 0.0
N1455 N 0.67828 0.65473 0.99413 0.0
C1456 C 0.67135 0.63874 0.97646 0.0
H1457 H 0.70611 0.65147 0.02196 0.0
Co1458 Co 0.65728 0.67515 0.00985 0.0
C1459 C 0.62451 0.69346 0.97185 0.0
O1460 O 0.62916 0.71537 0.98062 0.0
N1461 N 0.63439 0.69465 0.02626 0.0
C1462 C 0.61347 0.71877 0.05072 0.0
C1463 C 0.63536 0.71591 0.03875 0.0
C1464 C 0.61147 0.68559 0.03037 0.0
N1465 N 0.59862 0.69944 0.04555 0.0
O1466 O 0.64248 0.64642 0.02414 0.0
H1467 H 0.65116 0.72802 0.04056 0.0
H1468 H 0.60464 0.6682 0.02353 0.0
O1469 O 0.6347 0.67499 0.98143 0.0
C1470 C 0.65147 0.64618 0.04585 0.0
O1471 O 0.66421 0.66543 0.05343 0.0
N1472 N 0.67577 0.70224 0.99856 0.0
C1473 C 0.71278 0.73715 0.98954 0.0
C1474 C 0.70008 0.72588 0.96994 0.0
C1475 C 0.6817 0.70807 0.97486 0.0
C1476 C 0.6891 0.71214 0.01748 0.0
C1477 C 0.7071 0.73005 0.01348 0.0
H1478 H 0.67307 0.69832 0.95974 0.0
H1479 H 0.68624 0.70549 0.03593 0.0
H1480 H 0.65513 0.64064 0.96526 0.0
H1481 H 0.71465 0.60949 1.00126 0.0
H1482 H 0.60962 0.73284 0.06389 0.0
H1483 H 0.70466 0.7304 0.95115 0.0
H1484 H 0.71717 0.73773 0.029 0.0
C1485 C 0.71747 0.38183 0.02482 0.0
C1486 C 0.72424 0.40006 0.04106 0.0
N1487 N 0.70407 0.40744 0.05283 0.0
N1488 N 0.69309 0.3777 0.02609 0.0
C1489 C 0.68546 0.3936 0.04318 0.0
H1490 H 0.72932 0.37317 0.01187 0.0
Co1491 Co 0.67343 0.3588 1.00458 0.0
C1492 C 0.63731 0.33491 0.03874 0.0
O1493 O 0.63978 0.31425 0.02719 0.0
N1494 N 0.65265 0.34006 0.98228 0.0
C1495 C 0.63353 0.30986 0.96172 0.0
C1496 C 0.65187 0.31577 0.97814 0.0
C1497 C 0.63449 0.34835 0.96749 0.0
N1498 N 0.6227 0.3304 0.95461 0.0
O1499 O 0.65903 0.38829 0.99327 0.0
H1500 H 0.66287 0.30252 0.98739 0.0
H1501 H 0.62972 0.36723 0.96621 0.0
O1502 O 0.64925 0.35393 0.03136 0.0
C1503 C 0.67429 0.39521 0.97678 0.0
O1504 O 0.69292 0.38143 0.97207 0.0
N1505 N 0.69127 0.33112 0.01297 0.0
C1506 C 0.72177 0.29114 0.01635 0.0
C1507 C 0.70873 0.29912 0.03693 0.0
C1508 C 0.69374 0.31944 0.03494 0.0
C1509 C 0.70534 0.32482 0.99357 0.0
C1510 C 0.72012 0.30465 0.99462 0.0
H1511 H 0.68442 0.32583 0.051 0.0
H1512 H 0.70426 0.33502 0.97664 0.0
H1513 H 0.66641 0.3957 0.04767 0.0
H1514 H 0.74245 0.40819 0.04274 0.0
H1515 H 0.62797 0.29154 0.95655 0.0
H1516 H 0.71043 0.29007 0.05449 0.0
H1517 H 0.72989 0.29951 0.9783 0.0
C1518 C 0.30957 0.63443 0.04698 0.0
C1519 C 0.30689 0.61603 0.06401 0.0
N1520 N 0.32922 0.61043 0.07291 0.0
N1521 N 0.33347 0.6407 0.04508 0.0
C1522 C 0.34498 0.6259 0.06111 0.0
H1523 H 0.29514 0.64184 0.03578 0.0
Co1524 Co 0.3476 0.6607 0.02084 0.0
C1525 C 0.38946 0.68584 0.04572 0.0
O1526 O 0.38451 0.7055 0.03311 0.0
N1527 N 0.36284 0.67989 0.99564 0.0
C1528 C 0.37205 0.7043 0.96411 0.0
C1529 C 0.3551 0.69883 0.98206 0.0
C1530 C 0.3846 0.67435 0.98543 0.0
N1531 N 0.39049 0.68867 0.96605 0.0
O1532 O 0.3602 0.63213 1.00547 0.0
H1533 H 0.33802 0.7079 0.98427 0.0
H1534 H 0.39591 0.65989 0.9921 0.0
O1535 O 0.37664 0.66624 0.04223 0.0
C1536 C 0.34326 0.62817 0.98943 0.0
O1537 O 0.3241 0.64204 0.98966 0.0
N1538 N 0.331 0.68781 0.03361 0.0
C1539 C 0.29882 0.72483 0.04507 0.0
C1540 C 0.31896 0.72015 0.06043 0.0
C1541 C 0.33445 0.70088 0.05479 0.0
C1542 C 0.31072 0.69153 0.01947 0.0
C1543 C 0.29464 0.70994 0.02466 0.0
H1544 H 0.34878 0.69642 0.06761 0.0
H1545 H 0.30712 0.68037 1.00353 0.0
H1546 H 0.36463 0.62622 0.06352 0.0
H1547 H 0.28978 0.60672 0.06851 0.0
H1548 H 0.37048 0.71819 0.95013 0.0
H1549 H 0.32239 0.73095 0.07677 0.0
H1550 H 0.27922 0.71282 0.01243 0.0
C1551 C 0.32431 0.36529 1.0012 0.0
C1552 C 0.31904 0.38536 0.98719 0.0
N1553 N 0.34027 0.39733 0.98192 0.0
N1554 N 0.34877 0.36461 1.00454 0.0
C1555 C 0.35794 0.38437 0.99271 0.0
H1556 H 0.31113 0.35257 0.00914 0.0
Co1557 Co 0.36676 0.34468 0.02482 0.0
C1558 C 0.4067 0.32792 0.99368 0.0
O1559 O 0.40363 0.30633 1.00377 0.0
N1560 N 0.3859 0.32537 0.04593 0.0
C1561 C 0.40234 0.29801 0.07092 0.0
C1562 C 0.38239 0.30319 0.05635 0.0
C1563 C 0.40811 0.33314 0.05458 0.0
N1564 N 0.41844 0.31696 0.06972 0.0
O1565 O 0.37915 0.37329 0.04136 0.0
H1566 H 0.36652 0.29129 0.05387 0.0
H1567 H 0.41681 0.35038 0.04966 0.0
O1568 O 0.39338 0.34539 1.00059 0.0
C1569 C 0.36221 0.37729 0.05671 0.0
O1570 O 0.34376 0.36148 0.05827 0.0
N1571 N 0.35089 0.31737 0.01027 0.0
C1572 C 0.31363 0.28622 0.99221 0.0
C1573 C 0.33224 0.29498 0.97665 0.0
C1574 C 0.35052 0.31109 0.98595 0.0
C1575 C 0.33294 0.30871 0.02545 0.0
C1576 C 0.31441 0.29295 0.01693 0.0
H1577 H 0.36304 0.31977 0.97322 0.0
H1578 H 0.33216 0.31531 0.0441 0.0
H1579 H 0.37713 0.38988 0.99329 0.0
H1580 H 0.30096 0.39092 0.98163 0.0
H1581 H 0.40455 0.28186 0.08201 0.0
H1582 H 0.33178 0.29063 0.95727 0.0
H1583 H 0.30016 0.28681 0.02942 0.0
C1584 C 0.02394 0.27886 0.27178 0.0
C1585 C 0.02518 0.272 0.29662 0.0
C1586 C 0.02344 0.26148 0.25303 0.0
C1587 C 0.02394 0.23642 0.25827 0.0
H1588 H 0.02307 0.29791 0.26681 0.0
H1589 H 0.02236 0.26774 0.2342 0.0
S1590 S 0.02739 0.20887 0.32031 0.0
N1591 N 0.02707 0.23847 0.32556 0.0
N1592 N 0.02613 0.20561 0.29017 0.0
C1593 C 0.02529 0.22924 0.28303 0.0
C1594 C 0.02603 0.24707 0.30222 0.0
C1595 C 0.7702 0.01192 0.25636 0.0
C1596 C 0.79492 0.0131 0.26415 0.0
C1597 C 0.75092 0.00924 0.27336 0.0
C1598 C 0.75567 0.00787 0.29877 0.0
H1599 H 0.76576 0.01269 0.23697 0.0
H1600 H 0.73218 0.00869 0.26663 0.0
S1601 S 0.81708 0.0101 0.32866 0.0
N1602 N 0.82286 0.01307 0.29912 0.0
N1603 N 0.78699 0.00734 0.33073 0.0
C1604 C 0.7803 0.0089 0.30669 0.0
C1605 C 0.79979 0.01173 0.28952 0.0
C1606 C 0.98704 0.72767 0.24647 0.0
C1607 C 0.99022 0.73288 0.27165 0.0
C1608 C 0.98929 0.74605 0.22859 0.0
C1609 C 0.99519 0.77022 0.23524 0.0
H1610 H 0.98378 0.70906 0.2405 0.0
H1611 H 0.98779 0.74109 0.20939 0.0
S1612 S 1.00331 0.79377 0.29862 0.0
N1613 N 0.99782 0.76428 0.30228 0.0
N1614 N 1.00224 0.79875 0.26873 0.0
C1615 C 0.99713 0.77587 0.26037 0.0
C1616 C 0.99455 0.75723 0.27857 0.0
C1617 C 0.30145 0.00695 0.25468 0.0
C1618 C 0.29462 0.00756 0.27951 0.0
C1619 C 0.2836 0.00684 0.23585 0.0
C1620 C 0.25845 0.00748 0.24133 0.0
H1621 H 0.3206 0.00593 0.24985 0.0
H1622 H 0.28948 0.00649 0.21692 0.0
S1623 S 0.23129 0.00926 0.30351 0.0
N1624 N 0.26115 0.00932 0.30851 0.0
N1625 N 0.22778 0.00828 0.27342 0.0
C1626 C 0.25154 0.00814 0.26612 0.0
C1627 C 0.26958 0.00847 0.28511 0.0
C1628 C 0.9906 0.77105 0.78024 0.0
C1629 C 0.0099 0.77105 0.79768 0.0
C1630 C 0.98927 0.75412 0.76098 0.0
C1631 C 0.00727 0.73664 0.7583 0.0
H1632 H 0.97677 0.78476 0.78099 0.0
H1633 H 0.97466 0.75539 0.74749 0.0
S1634 S 0.06015 0.72708 0.80005 0.0
N1635 N 0.04627 0.75058 0.81191 0.0
N1636 N 0.04405 0.71917 0.77538 0.0
C1637 C 0.02619 0.73587 0.77595 0.0
C1638 C 0.02748 0.75298 0.79566 0.0
C1639 C 0.26732 0.0226 0.75821 0.0
C1640 C 0.26415 0.02044 0.73263 0.0
C1641 C 0.24745 0.0202 0.77423 0.0
C1642 C 0.22352 0.01524 0.76546 0.0
H1643 H 0.28541 0.02625 0.76595 0.0
H1644 H 0.25082 0.02233 0.79375 0.0
S1645 S 0.20509 0.00785 0.70025 0.0
N1646 N 0.23505 0.01304 0.69926 0.0
N1647 N 0.19761 0.00846 0.72957 0.0
C1648 C 0.21996 0.01296 0.73999 0.0
C1649 C 0.24026 0.01567 0.72354 0.0
C1650 C 0.98079 0.26109 0.74826 0.0
C1651 C 0.97839 0.28593 0.75344 0.0
C1652 C 0.97985 0.24364 0.76713 0.0
C1653 C 0.97609 0.2504 0.79171 0.0
H1654 H 0.98494 0.25531 0.7298 0.0
H1655 H 0.98319 0.22484 0.76264 0.0
S1656 S 0.96664 0.31285 0.81439 0.0
N1657 N 0.97062 0.31626 0.78454 0.0
N1658 N 0.96839 0.28338 0.81988 0.0
C1659 C 0.97215 0.27496 0.79684 0.0
C1660 C 0.97345 0.29276 0.77772 0.0
C1661 C 0.77204 0.03405 0.77555 0.0
C1662 C 0.79139 0.01787 0.77702 0.0
C1663 C 0.75574 0.03359 0.75547 0.0
C1664 C 0.75828 0.01711 0.73581 0.0
H1665 H 0.76903 0.04665 0.79042 0.0
H1666 H 0.74063 0.04592 0.7557 0.0
S1667 S 0.8074 0.97212 0.7304 0.0
N1668 N 0.81287 0.98542 0.75713 0.0
N1669 N 0.78296 0.98513 0.71883 0.0
C1670 C 0.77806 1.00122 0.73691 0.0
C1671 C 0.79443 1.00149 0.75759 0.0
C1672 C 0.24775 0.26469 0.98384 0.0
C1673 C 0.25004 0.24017 0.97736 0.0
C1674 C 0.2685 0.28011 0.98664 0.0
C1675 C 0.29225 0.2715 0.9831 0.0
H1676 H 0.22997 0.2715 0.98859 0.0
H1677 H 0.26607 0.29849 0.99314 0.0
S1678 S 0.30783 0.20926 0.96404 0.0
N1679 N 0.2776 0.20835 0.96588 0.0
N1680 N 0.31671 0.23744 0.97097 0.0
C1681 C 0.29466 0.24751 0.97487 0.0
C1682 C 0.27349 0.23178 0.9721 0.0
C1683 C 0.27506 0.78882 0.04306 0.0
C1684 C 0.24944 0.78489 0.04408 0.0
C1685 C 0.29122 0.76949 0.04564 0.0
C1686 C 0.28232 0.74549 0.04904 0.0
H1687 H 0.28263 0.80685 0.03925 0.0
H1688 H 0.31068 0.77312 0.04335 0.0
S1689 S 0.21712 0.72564 0.0549 0.0
N1690 N 0.21614 0.75533 0.05045 0.0
N1691 N 0.24645 0.71904 0.05496 0.0
C1692 C 0.25687 0.74151 0.05141 0.0
C1693 C 0.24045 0.76119 0.04906 0.0
C1694 C 0.77542 0.24966 1.00487 0.0
C1695 C 0.76827 0.22789 0.01662 0.0
C1696 C 0.76047 0.27 1.00524 0.0
C1697 C 0.73756 0.26933 0.01714 0.0
H1698 H 0.79311 0.25127 0.99604 0.0
H1699 H 0.76717 0.28653 0.99645 0.0
S1700 S 0.70984 0.21575 0.04921 0.0
N1701 N 0.7367 0.2064 0.03989 0.0
N1702 N 0.70806 0.24423 0.03983 0.0
C1703 C 0.73003 0.24738 0.02853 0.0
C1704 C 0.74546 0.22677 0.02841 0.0
C1705 C 0.75657 0.74814 0.98023 0.0
C1706 C 0.73283 0.75552 0.98603 0.0
C1707 C 0.77709 0.76397 0.9836 0.0
C1708 C 0.77441 0.78754 0.99307 0.0
H1709 H 0.75946 0.72953 0.97468 0.0
H1710 H 0.79521 0.7572 0.98038 0.0
S1711 S 0.71579 0.81641 0.00792 0.0
N1712 N 0.70762 0.78852 0.99932 0.0
N1713 N 0.74593 0.8183 1.00545 0.0
C1714 C 0.75057 0.7956 0.99717 0.0
C1715 C 0.72983 0.77956 0.99374 0.0
C1716 C 0.72678 0.52016 0.75097 0.0
C1717 C 0.73189 0.52234 0.77629 0.0
C1718 C 0.74555 0.52318 0.73339 0.0
C1719 C 0.77 0.52847 0.74058 0.0
H1720 H 0.70816 0.51643 0.74471 0.0
H1721 H 0.74101 0.52082 0.71414 0.0
S1722 S 0.79294 0.53593 0.80455 0.0
N1723 N 0.76342 0.52941 0.80748 0.0
N1724 N 0.79799 0.53638 0.77475 0.0
C1725 C 0.77513 0.53095 0.76582 0.0
C1726 C 0.75632 0.52747 0.78355 0.0
C1727 C 0.27603 0.50573 0.73639 0.0
C1728 C 0.25046 0.50507 0.73946 0.0
C1729 C 0.29201 0.50593 0.75687 0.0
C1730 C 0.28287 0.50531 0.78099 0.0
H1731 H 0.28368 0.50681 0.71814 0.0
H1732 H 0.3116 0.50651 0.75383 0.0
S1733 S 0.21727 0.50369 0.79854 0.0
N1734 N 0.21677 0.50368 0.76825 0.0
N1735 N 0.24652 0.50436 0.80652 0.0
C1736 C 0.2573 0.50444 0.78412 0.0
C1737 C 0.24118 0.50422 0.76342 0.0
C1738 C 0.258 0.5094 0.24174 0.0
C1739 C 0.28297 0.5088 0.24841 0.0
C1740 C 0.23943 0.50658 0.25949 0.0
C1741 C 0.24528 0.50327 0.28448 0.0
H1742 H 0.25281 0.51157 0.22265 0.0
H1743 H 0.22044 0.50741 0.2537 0.0
S1744 S 0.30785 0.50052 0.31137 0.0
N1745 N 0.31242 0.50503 0.28179 0.0
N1746 N 0.27782 0.49924 0.31479 0.0
C1747 C 0.27018 0.50265 0.29126 0.0
C1748 C 0.28893 0.50558 0.27335 0.0
C1749 C 0.79631 0.50745 0.25114 0.0
C1750 C 0.78665 0.50858 0.27502 0.0
C1751 C 0.78081 0.50698 0.23025 0.0
C1752 C 0.75518 0.50793 0.23257 0.0
H1753 H 0.81593 0.50662 0.24862 0.0
H1754 H 0.78892 0.50639 0.2122 0.0
S1755 S 0.72078 0.51135 0.29082 0.0
N1756 N 0.7498 0.51092 0.29953 0.0
N1757 N 0.72093 0.50991 0.26057 0.0
C1758 C 0.7454 0.50904 0.25632 0.0
C1759 C 0.76105 0.50941 0.27744 0.0
C1760 C 0.26352 0.74803 0.47521 0.0
C1761 C 0.24315 0.74875 0.491 0.0
C1762 C 0.28506 0.76201 0.4798 0.0
C1763 C 0.28709 0.77768 0.50015 0.0
H1764 H 0.26309 0.73622 0.45934 0.0
H1765 H 0.30046 0.75997 0.46765 0.0
S1766 S 0.23826 0.78893 0.54557 0.0
N1767 N 0.22646 0.76751 0.52753 0.0
N1768 N 0.26564 0.7955 0.53441 0.0
C1769 C 0.26633 0.77985 0.51513 0.0
C1770 C 0.24472 0.76506 0.51098 0.0
C1771 C 0.29257 0.27162 0.51625 0.0
C1772 C 0.28669 0.24653 0.51731 0.0
C1773 C 0.27404 0.28898 0.51555 0.0
C1774 C 0.24905 0.2818 0.51617 0.0
H1775 H 0.31157 0.27781 0.51548 0.0
H1776 H 0.27927 0.30813 0.5149 0.0
S1777 S 0.22412 0.21836 0.51907 0.0
N1778 N 0.25415 0.2155 0.51911 0.0
N1779 N 0.21956 0.24789 0.51771 0.0
C1780 C 0.24306 0.25678 0.51731 0.0
C1781 C 0.26179 0.23923 0.51792 0.0
C1782 C 0.73806 0.74801 0.499 0.0
C1783 C 0.74334 0.77296 0.49493 0.0
C1784 C 0.75599 0.73044 0.49585 0.0
C1785 C 0.77991 0.73721 0.48873 0.0
H1786 H 0.72017 0.74213 0.50557 0.0
H1787 H 0.75152 0.71166 0.50047 0.0
S1788 S 0.80266 0.79967 0.4738 0.0
N1789 N 0.77384 0.80316 0.48172 0.0
N1790 N 0.80748 0.77022 0.47594 0.0
C1791 C 0.78504 0.76186 0.48329 0.0
C1792 C 0.76676 0.77971 0.48631 0.0
C1793 C 0.77997 0.26782 0.47439 0.0
C1794 C 0.77762 0.29054 0.48584 0.0
C1795 C 0.75931 0.25237 0.47028 0.0
C1796 C 0.73577 0.25934 0.47733 0.0
H1797 H 0.79799 0.26121 0.47034 0.0
H1798 H 0.76201 0.23415 0.46349 0.0
S1799 S 0.71965 0.31843 0.50444 0.0
N1800 N 0.74973 0.32037 0.50137 0.0
N1801 N 0.71108 0.29138 0.49371 0.0
C1802 C 0.73307 0.28283 0.48677 0.0
C1803 C 0.75397 0.29844 0.49102 0.0
C1804 C 0.51301 0.23476 0.76968 0.0
C1805 C 0.51284 0.24054 0.7445 0.0
C1806 C 0.51525 0.25318 0.7876 0.0
C1807 C 0.51711 0.27791 0.78088 0.0
H1808 H 0.51182 0.21592 0.77549 0.0
H1809 H 0.5151 0.24809 0.80681 0.0
S1810 S 0.5174 0.30244 0.71744 0.0
N1811 N 0.51456 0.27268 0.71387 0.0
N1812 N 0.51882 0.30706 0.74735 0.0
C1813 C 0.51691 0.2838 0.75578 0.0
C1814 C 0.51474 0.26518 0.73766 0.0
C1815 C 0.47706 0.7924 0.77917 0.0
C1816 C 0.47673 0.78867 0.75357 0.0
C1817 C 0.47337 0.77296 0.79562 0.0
C1818 C 0.46944 0.74906 0.78706 0.0
H1819 H 0.48136 0.81032 0.78655 0.0
H1820 H 0.47534 0.7764 0.81512 0.0
S1821 S 0.4642 0.72991 0.72196 0.0
N1822 N 0.46997 0.75954 0.72056 0.0
N1823 N 0.4631 0.72304 0.75145 0.0
C1824 C 0.46738 0.74536 0.76157 0.0
C1825 C 0.47097 0.76515 0.74483 0.0
C1826 C 0.52742 0.77373 0.26835 0.0
C1827 C 0.52524 0.76743 0.29328 0.0
C1828 C 0.52463 0.75624 0.24983 0.0
C1829 C 0.51951 0.73158 0.25533 0.0
H1830 H 0.53113 0.79247 0.26306 0.0
H1831 H 0.5263 0.76218 0.23094 0.0
S1832 S 0.51218 0.70545 0.31771 0.0
N1833 N 0.51763 0.73478 0.32259 0.0
N1834 N 0.51269 0.70168 0.28763 0.0
C1835 C 0.51738 0.72493 0.28018 0.0
C1836 C 0.52031 0.74285 0.29917 0.0
C1837 C 0.48805 0.22384 0.24669 0.0
C1838 C 0.48734 0.22827 0.27217 0.0
C1839 C 0.49011 0.24305 0.22969 0.0
C1840 C 0.49189 0.26737 0.23757 0.0
H1841 H 0.48804 0.20532 0.23993 0.0
H1842 H 0.49182 0.23878 0.21039 0.0
S1843 S 0.48881 0.28894 0.30189 0.0
N1844 N 0.48684 0.25898 0.30415 0.0
N1845 N 0.49081 0.29498 0.27226 0.0
C1846 C 0.48982 0.2721 0.26282 0.0
C1847 C 0.48748 0.25259 0.28009 0.0
C1848 C 0.12503 0.07954 0.15419 0.0
C1849 C 0.11435 0.05888 0.16559 0.0
C1850 C 0.11458 0.10242 0.1564 0.0
C1851 C 0.09292 0.10519 0.16962 0.0
H1852 H 0.14256 0.07847 0.1453 0.0
H1853 H 0.12376 0.11819 0.14839 0.0
S1854 S 0.0565 0.05647 0.20063 0.0
N1855 N 0.08019 0.04242 0.18919 0.0
N1856 N 0.05999 0.08531 0.19244 0.0
C1857 C 0.0811 0.08443 0.1795 0.0
C1858 C 0.09198 0.06128 0.1777 0.0
C1859 C 0.94835 0.0946 0.18693 0.0
C1860 C 0.94907 0.07875 0.20719 0.0
C1861 C 0.96803 0.11092 0.18188 0.0
C1862 C 0.9893 0.11182 0.19679 0.0
H1863 H 0.93218 0.09478 0.17529 0.0
H1864 H 0.96628 0.12326 0.16649 0.0
S1865 S 1.00144 0.07145 0.25006 0.0
N1866 N 0.97355 0.06326 0.24078 0.0
N1867 N 0.01049 0.09361 0.23147 0.0
C1868 C 0.99056 0.09522 0.21649 0.0
C1869 C 0.97048 0.07879 0.22166 0.0
C1870 C 0.93924 0.95026 0.17188 0.0
C1871 C 0.94308 0.96848 0.18971 0.0
C1872 C 0.95313 0.92904 0.17222 0.0
C1873 C 0.97103 0.92541 0.19053 0.0
H1874 H 0.92424 0.95149 0.15885 0.0
H1875 H 0.94883 0.91477 0.15907 0.0
S1876 S 0.9911 0.96987 0.23821 0.0
N1877 N 0.96823 0.98304 0.22387 0.0
N1878 N 0.9943 0.94345 0.22441 0.0
C1879 C 0.97634 0.94444 0.20706 0.0
C1880 C 0.96237 0.96593 0.20665 0.0
C1881 C 0.10846 0.93269 0.16016 0.0
C1882 C 0.10828 0.94646 0.18195 0.0
C1883 C 0.0899 0.91513 0.15509 0.0
C1884 C 0.07059 0.91114 0.17157 0.0
H1885 H 0.12373 0.9346 0.14768 0.0
H1886 H 0.09158 0.90352 0.13917 0.0
S1887 S 0.05943 0.94521 0.22878 0.0
N1888 N 0.08543 0.9571 0.21827 0.0
N1889 N 0.0508 0.92392 0.20891 0.0
C1890 C 0.06928 0.92598 0.1924 0.0
C1891 C 0.08809 0.94371 0.19758 0.0
C1892 C 0.0716 0.93889 0.85197 0.0
C1893 C 0.06753 0.92448 0.8308 0.0
C1894 C 0.08797 0.95911 0.85187 0.0
C1895 C 0.1006 0.96601 0.8305 0.0
H1896 H 0.06172 0.93489 0.86868 0.0
H1897 H 0.09027 0.96977 0.86848 0.0
S1898 S 0.09889 0.93311 0.77107 0.0
N1899 N 0.07955 0.91748 0.78858 0.0
N1900 N 0.10943 0.95593 0.78815 0.0
C1901 C 0.09717 0.95156 0.80939 0.0
C1902 C 0.08086 0.93074 0.80959 0.0
C1903 C 0.06115 0.10908 0.87674 0.0
C1904 C 0.04051 0.11136 0.86138 0.0
C1905 C 0.07976 0.09295 0.87077 0.0
C1906 C 0.0784 0.07902 0.84908 0.0
H1907 H 0.06394 0.12121 0.89222 0.0
H1908 H 0.09612 0.09271 0.88214 0.0
S1909 S 0.02624 0.07569 0.80519 0.0
N1910 N 0.01839 0.09629 0.82547 0.0
N1911 N 0.05327 0.06613 0.81426 0.0
C1912 C 0.05692 0.07974 0.83483 0.0
C1913 C 0.03799 0.09588 0.84101 0.0
C1914 C 0.93566 0.08558 0.86191 0.0
C1915 C 0.93507 0.09947 0.8401 0.0
C1916 C 0.92117 0.06421 0.8646 0.0
C1917 C 0.90603 0.05562 0.84537 0.0
H1918 H 0.94771 0.09093 0.87693 0.0
H1919 H 0.92222 0.05408 0.88162 0.0
S1920 S 0.8955 0.08616 0.78566 0.0
N1921 N 0.91587 0.10397 0.79992 0.0
N1922 N 0.88989 0.06319 0.8045 0.0
C1923 C 0.90491 0.06937 0.82366 0.0
C1924 C 0.91913 0.09142 0.82113 0.0
C1925 C 0.93675 0.93574 0.83864 0.0
C1926 C 0.92577 0.9467 0.85883 0.0
C1927 C 0.95603 0.9199 0.84175 0.0
C1928 C 0.96505 0.91403 0.86524 0.0
H1929 H 0.92941 0.93836 0.82033 0.0
H1930 H 0.96274 0.91076 0.82563 0.0
S1931 S 0.94694 0.94246 0.9236 0.0
N1932 N 0.9287 0.95447 0.90277 0.0
N1933 N 0.9646 0.92366 0.90867 0.0
C1934 C 0.95629 0.92692 0.88539 0.0
C1935 C 0.93668 0.94352 0.88216 0.0
C1936 C 0.18054 0.07835 0.08062 0.0
C1937 C 0.18136 0.08834 0.10439 0.0
C1938 C 0.17438 0.09266 0.06023 0.0
C1939 C 0.16844 0.11713 0.06325 0.0
H1940 H 0.18611 0.05984 0.07769 0.0
H1941 H 0.1762 0.08516 0.04198 0.0
S1942 S 0.16382 0.15056 0.12189 0.0
N1943 N 0.17248 0.12314 0.12997 0.0
N1944 N 0.16131 0.15002 0.09169 0.0
C1945 C 0.16724 0.12663 0.08705 0.0
C1946 C 0.17363 0.11223 0.10767 0.0
C1947 C 0.90366 0.18271 0.10111 0.0
C1948 C 0.90802 0.17016 0.07906 0.0
C1949 C 0.92256 0.18873 0.11759 0.0
C1950 C 0.94666 0.18223 0.11298 0.0
H1951 H 0.88542 0.18847 0.10558 0.0
H1952 H 0.9183 0.19862 0.13411 0.0
S1953 S 0.96809 0.14864 0.05848 0.0
N1954 N 0.93828 0.15088 0.0538 0.0
N1955 N 0.97412 0.16204 0.08507 0.0
C1956 C 0.95135 0.16891 0.09146 0.0
C1957 C 0.93195 0.16286 0.07447 0.0
C1958 C 0.8775 0.91555 0.09512 0.0
C1959 C 0.85538 0.9119 0.08201 0.0
C1960 C 0.87849 0.93046 0.11613 0.0
C1961 C 0.85738 0.94186 0.12451 0.0
H1962 H 0.89358 0.90563 0.09012 0.0
H1963 H 0.89536 0.93194 0.12667 0.0
S1964 S 0.7965 0.94153 0.09424 0.0
N1965 N 0.81297 0.9236 0.07705 0.0
N1966 N 0.81495 0.95112 0.11659 0.0
C1967 C 0.83583 0.93975 0.11055 0.0
C1968 C 0.83482 0.92489 0.08923 0.0
C1969 C 0.12167 0.85978 0.07101 0.0
C1970 C 0.12422 0.84154 0.05311 0.0
C1971 C 0.10595 0.85622 0.09122 0.0
C1972 C 0.09251 0.8342 0.09443 0.0
H1973 H 0.13232 0.87666 0.06979 0.0
H1974 H 0.10493 0.87044 0.10487 0.0
S1975 S 0.0901 0.78187 0.05177 0.0
N1976 N 0.10976 0.80142 0.03914 0.0
N1977 N 0.08105 0.7949 0.07726 0.0
C1978 C 0.09415 0.81628 0.07634 0.0
C1979 C 0.10975 0.81992 0.05566 0.0
C1980 C 0.20606 0.9396 0.95433 0.0
C1981 C 0.18598 0.92395 0.95982 0.0
C1982 C 0.20616 0.95445 0.93339 0.0
C1983 C 0.18629 0.95407 0.91676 0.0
H1984 H 0.22224 0.93984 0.966 0.0
H1985 H 0.22209 0.96615 0.9301 0.0
S1986 S 0.12934 0.91571 0.92243 0.0
N1987 N 0.1456 0.909 0.94709 0.0
N1988 N 0.14587 0.93635 0.9073 0.0
C1989 C 0.16579 0.93881 0.9223 0.0
C1990 C 0.16561 0.92391 0.94392 0.0
C1991 C 0.11501 0.20817 0.94416 0.0
C1992 C 0.1164 0.18825 0.96023 0.0
C1993 C 0.09542 0.21029 0.92762 0.0
C1994 C 0.07606 0.19279 0.92671 0.0
H1995 H 0.12922 0.22235 0.94436 0.0
H1996 H 0.09551 0.22585 0.91546 0.0
S1997 S 0.07071 0.13747 0.96596 0.0
N1998 N 0.09701 0.15062 0.97444 0.0
N1999 N 0.05945 0.15497 0.94422 0.0
C2000 C 0.07731 0.17262 0.94274 0.0
C2001 C 0.09764 0.17026 0.95928 0.0
C2002 C 0.84639 0.07524 0.95224 0.0
C2003 C 0.82814 0.07821 0.93401 0.0
C2004 C 0.84831 0.09087 0.97269 0.0
C2005 C 0.83189 0.10981 0.9757 0.0
H2006 H 0.8587 0.06021 0.9512 0.0
H2007 H 0.86198 0.08746 0.9867 0.0
S2008 S 0.78351 0.1278 0.9316 0.0
N2009 N 0.79549 0.1036 0.91908 0.0
N2010 N 0.79855 0.13228 0.95768 0.0
C2011 C 0.8144 0.11367 0.9571 0.0
C2012 C 0.81264 0.09805 0.93624 0.0
C2013 C 0.92992 0.81342 0.95101 0.0
C2014 C 0.94388 0.83414 0.94395 0.0
C2015 C 0.9129 0.81434 0.96997 0.0
C2016 C 0.90881 0.83609 0.98266 0.0
H2017 H 0.93216 0.79622 0.94179 0.0
H2018 H 0.90278 0.79775 0.97463 0.0
S2019 S 0.94043 0.89565 0.97159 0.0
N2020 N 0.95256 0.8772 0.95144 0.0
N2021 N 0.9199 0.87902 0.98673 0.0
C2022 C 0.92217 0.85716 0.97553 0.0
C2023 C 0.93982 0.85618 0.95627 0.0
C2024 C 0.06677 0.20532 0.08996 0.0
C2025 C 0.06101 0.18284 0.10137 0.0
C2026 C 0.08684 0.20814 0.07432 0.0
C2027 C 0.10162 0.18849 0.069 0.0
H2028 H 0.05651 0.22133 0.09425 0.0
H2029 H 0.09131 0.22598 0.06687 0.0
S2030 S 0.09346 0.1253 0.0923 0.0
N2031 N 0.07107 0.14022 0.10512 0.0
N2032 N 0.10831 0.1453 0.07483 0.0
C2033 C 0.09512 0.16547 0.0788 0.0
C2034 C 0.07485 0.16266 0.09514 0.0
C2035 C 0.09474 0.83316 0.90228 0.0
C2036 C 0.0728 0.84256 0.91098 0.0
C2037 C 0.11607 0.83349 0.91677 0.0
C2038 C 0.1163 0.84272 0.94089 0.0
H2039 H 0.0953 0.82506 0.88419 0.0
H2040 H 0.13244 0.82611 0.90902 0.0
S2041 S 0.06299 0.86912 0.97234 0.0
N2042 N 0.05234 0.86176 0.9448 0.0
N2043 N 0.09204 0.8615 0.97272 0.0
C2044 C 0.09441 0.85263 0.94966 0.0
C2045 C 0.07276 0.85272 0.93455 0.0
C2046 C 0.15882 0.08327 0.94581 0.0
C2047 C 0.18386 0.08819 0.95156 0.0
C2048 C 0.15164 0.06632 0.92763 0.0
C2049 C 0.16923 0.05338 0.91496 0.0
H2050 H 0.14456 0.09322 0.95462 0.0
H2051 H 0.1325 0.06471 0.92228 0.0
S2052 S 0.23645 0.05571 0.92538 0.0
N2053 N 0.22586 0.07626 0.94426 0.0
N2054 N 0.2121 0.0436 0.91148 0.0
C2055 C 0.19392 0.05615 0.92219 0.0
C2056 C 0.20134 0.07374 0.94014 0.0
C2057 C 0.94658 0.17242 0.93887 0.0
C2058 C 0.94852 0.19119 0.92137 0.0
C2059 C 0.92882 0.17288 0.95753 0.0
C2060 C 0.91216 0.192 0.95924 0.0
H2061 H 0.95942 0.15776 0.93869 0.0
H2062 H 0.92863 0.15851 0.97112 0.0
S2063 S 0.90722 0.24336 0.9153 0.0
N2064 N 0.93081 0.22811 0.90548 0.0
N2065 N 0.89717 0.22856 0.93977 0.0
C2066 C 0.91321 0.21015 0.941 0.0
C2067 C 0.93141 0.20983 0.92228 0.0
C2068 C 0.82789 0.95278 0.97167 0.0
C2069 C 0.84019 0.93075 0.97003 0.0
C2070 C 0.83179 0.97132 0.95434 0.0
C2071 C 0.84822 0.9685 0.93491 0.0
H2072 H 0.81457 0.95532 0.986 0.0
H2073 H 0.82083 0.98741 0.9553 0.0
S2074 S 0.88413 0.91395 0.92189 0.0
N2075 N 0.86936 0.90712 0.94742 0.0
N2076 N 0.87634 0.94189 0.91464 0.0
C2077 C 0.86121 0.94692 0.93351 0.0
C2078 C 0.85732 0.92805 0.95117 0.0
C2079 C 0.95998 0.85072 0.10937 0.0
C2080 C 0.97444 0.82996 0.11125 0.0
C2081 C 0.93669 0.84955 0.09819 0.0
C2082 C 0.92675 0.82752 0.08882 0.0
H2083 H 0.96654 0.86798 0.11684 0.0
H2084 H 0.9261 0.86589 0.09733 0.0
S2085 S 0.95723 0.76826 0.08762 0.0
N2086 N 0.97719 0.78681 0.10153 0.0
N2087 N 0.93338 0.78488 0.08093 0.0
C2088 C 0.94103 0.80678 0.09015 0.0
C2089 C 0.96487 0.80795 0.1012 0.0
C2090 C 0.18543 0.9484 0.07955 0.0
C2091 C 0.20694 0.93477 0.07897 0.0
C2092 C 0.18304 0.96788 0.096 0.0
C2093 C 0.20226 0.9748 0.11208 0.0
H2094 H 0.17051 0.94437 0.06687 0.0
H2095 H 0.16629 0.97799 0.09571 0.0
S2096 S 0.26085 0.9433 0.12055 0.0
N2097 N 0.24654 0.92806 0.09836 0.0
N2098 N 0.24252 0.9654 0.12803 0.0
C2099 C 0.22352 0.96103 0.11221 0.0
C2100 C 0.22574 0.94087 0.09597 0.0
C2101 C 0.82726 0.06144 0.13527 0.0
C2102 C 0.85001 0.05017 0.13625 0.0
C2103 C 0.82282 0.0804 0.11873 0.0
C2104 C 0.84071 0.08867 0.10187 0.0
H2105 H 0.81274 0.05574 0.14764 0.0
H2106 H 0.80509 0.08864 0.11935 0.0
S2107 S 0.90331 0.06398 0.09648 0.0
N2108 N 0.89078 0.04834 0.11926 0.0
N2109 N 0.88226 0.08291 0.08704 0.0
C2110 C 0.86368 0.07733 0.10265 0.0
C2111 C 0.86834 0.05836 0.12008 0.0
C2112 C 0.10407 0.57755 0.65549 0.0
C2113 C 0.10676 0.56112 0.67505 0.0
C2114 C 0.0904 0.59865 0.65843 0.0
C2115 C 0.07945 0.6039 0.68104 0.0
H2116 H 0.11417 0.57518 0.63867 0.0
H2117 H 0.08974 0.61173 0.64357 0.0
S2118 S 0.07723 0.56435 0.73595 0.0
N2119 N 0.09428 0.54966 0.71629 0.0
N2120 N 0.06913 0.58948 0.72178 0.0
C2121 C 0.08028 0.5866 0.69983 0.0
C2122 C 0.09377 0.5651 0.69678 0.0
C2123 C 0.95807 0.62133 0.7121 0.0
C2124 C 0.9717 0.62153 0.69036 0.0
C2125 C 0.93691 0.60655 0.71458 0.0
C2126 C 0.92868 0.59073 0.6957 0.0
H2127 H 0.96361 0.63301 0.72728 0.0
H2128 H 0.92696 0.60767 0.73159 0.0
S2129 S 0.95894 0.58431 0.63497 0.0
N2130 N 0.97575 0.60531 0.64938 0.0
N2131 N 0.93698 0.57621 0.65422 0.0
C2132 C 0.94237 0.59085 0.67367 0.0
C2133 C 0.96362 0.60654 0.671 0.0
C2134 C 0.94822 0.45783 0.70906 0.0
C2135 C 0.94976 0.43978 0.69099 0.0
C2136 C 0.93472 0.47869 0.70499 0.0
C2137 C 0.92202 0.48233 0.68276 0.0
H2138 H 0.95673 0.4554 0.72687 0.0
H2139 H 0.93268 0.49121 0.72013 0.0
S2140 S 0.92364 0.44271 0.62793 0.0
N2141 N 0.94027 0.42857 0.6487 0.0
N2142 N 0.91464 0.46785 0.64124 0.0
C2143 C 0.92538 0.46571 0.66365 0.0
C2144 C 0.93927 0.44435 0.66776 0.0
C2145 C 0.09574 0.43974 0.6722 0.0
C2146 C 0.09849 0.45587 0.69217 0.0
C2147 C 0.07451 0.42486 0.66941 0.0
C2148 C 0.05538 0.42593 0.68643 0.0
H2149 H 0.11058 0.43786 0.65934 0.0
H2150 H 0.07378 0.4114 0.65488 0.0
S2151 S 0.05185 0.46809 0.73922 0.0
N2152 N 0.07901 0.47422 0.72719 0.0
N2153 N 0.03929 0.44621 0.72215 0.0
C2154 C 0.05727 0.44315 0.70542 0.0
C2155 C 0.0788 0.45814 0.70828 0.0
C2156 C 0.09584 0.42523 0.36121 0.0
C2157 C 0.07829 0.42418 0.34216 0.0
C2158 C 0.11344 0.44443 0.36263 0.0
C2159 C 0.11402 0.46341 0.34514 0.0
H2160 H 0.09635 0.41077 0.37469 0.0
H2161 H 0.12692 0.44414 0.37731 0.0
S2162 S 0.06982 0.4705 0.29352 0.0
N2163 N 0.06113 0.44471 0.30681 0.0
N2164 N 0.0939 0.48069 0.30933 0.0
C2165 C 0.09587 0.46294 0.32657 0.0
C2166 C 0.07811 0.44337 0.32511 0.0
C2167 C 0.09163 0.56955 0.32737 0.0
C2168 C 0.10288 0.56703 0.35039 0.0
C2169 C 0.06967 0.5818 0.32472 0.0
C2170 C 0.05824 0.5926 0.34494 0.0
H2171 H 0.10039 0.56265 0.31115 0.0
H2172 H 0.06229 0.58383 0.30634 0.0
S2173 S 0.07953 0.58918 0.40969 0.0
N2174 N 0.10016 0.57421 0.39418 0.0
N2175 N 0.05917 0.59821 0.38925 0.0
C2176 C 0.06861 0.58897 0.36838 0.0
C2177 C 0.0909 0.57599 0.37108 0.0
C2178 C 0.93418 0.56355 0.31513 0.0
C2179 C 0.94117 0.58011 0.33377 0.0
C2180 C 0.91824 0.54372 0.31976 0.0
C2181 C 0.90846 0.53957 0.34324 0.0
H2182 H 0.94106 0.56593 0.29669 0.0
H2183 H 0.91311 0.53191 0.30456 0.0
S2184 S 0.9224 0.576 0.39899 0.0
N2185 N 0.93788 0.59021 0.37706 0.0
N2186 N 0.90826 0.55251 0.38579 0.0
C2187 C 0.9159 0.55539 0.36229 0.0
C2188 C 0.93219 0.57571 0.35758 0.0
C2189 C 0.95441 0.42327 0.34159 0.0
C2190 C 0.96304 0.41281 0.36356 0.0
C2191 C 0.93208 0.43506 0.34049 0.0
C2192 C 0.91756 0.43732 0.36139 0.0
H2193 H 0.96431 0.42104 0.32462 0.0
H2194 H 0.92564 0.44178 0.32296 0.0
S2195 S 0.93275 0.41609 0.42409 0.0
N2196 N 0.95613 0.40769 0.40732 0.0
N2197 N 0.91408 0.43028 0.4052 0.0
C2198 C 0.92669 0.42881 0.38392 0.0
C2199 C 0.94952 0.41652 0.38505 0.0
C2200 C 0.16661 0.59613 0.55447 0.0
C2201 C 0.15517 0.61818 0.55943 0.0
C2202 C 0.17339 0.58048 0.57365 0.0
C2203 C 0.16919 0.58674 0.59819 0.0
H2204 H 0.17238 0.59208 0.53597 0.0
H2205 H 0.18346 0.56435 0.56946 0.0
S2206 S 0.13673 0.64043 0.62048 0.0
N2207 N 0.13748 0.64391 0.59037 0.0
N2208 N 0.15039 0.6146 0.6263 0.0
C2209 C 0.15602 0.60763 0.60317 0.0
C2210 C 0.14894 0.62334 0.58376 0.0
C2211 C 0.94211 0.70148 0.55328 0.0
C2212 C 0.92667 0.68056 0.5515 0.0
C2213 C 0.95607 0.7065 0.57443 0.0
C2214 C 0.95524 0.69078 0.59474 0.0
H2215 H 0.94251 0.71477 0.53856 0.0
H2216 H 0.96733 0.72303 0.57503 0.0
S2217 S 0.91856 0.63297 0.59921 0.0
N2218 N 0.91206 0.64349 0.57157 0.0
N2219 N 0.93843 0.6528 0.61145 0.0
C2220 C 0.94079 0.66914 0.59284 0.0
C2221 C 0.92651 0.66403 0.57117 0.0
C2222 C 0.8593 0.44693 0.59554 0.0
C2223 C 0.85089 0.44235 0.6195 0.0
C2224 C 0.86438 0.42762 0.57957 0.0
C2225 C 0.86127 0.4033 0.5873 0.0
H2226 H 0.86073 0.46544 0.58878 0.0
H2227 H 0.86914 0.43171 0.56072 0.0
S2228 S 0.8445 0.3822 0.64982 0.0
N2229 N 0.84343 0.41213 0.65124 0.0
N2230 N 0.85245 0.37595 0.62141 0.0
C2231 C 0.85479 0.39874 0.61183 0.0
C2232 C 0.84971 0.41825 0.62791 0.0
C2233 C 0.08418 0.34893 0.57487 0.0
C2234 C 0.10914 0.35588 0.57577 0.0
C2235 C 0.07032 0.34704 0.59647 0.0
C2236 C 0.08123 0.35133 0.61962 0.0
H2237 H 0.07573 0.34351 0.55759 0.0
H2238 H 0.05133 0.34088 0.59522 0.0
S2239 S 0.14545 0.3719 0.63153 0.0
N2240 N 0.14377 0.36838 0.60146 0.0
N2241 N 0.11775 0.36501 0.64192 0.0
C2242 C 0.10581 0.35947 0.62059 0.0
C2243 C 0.11977 0.36166 0.59867 0.0
C2244 C 0.21192 0.41859 0.47255 0.0
C2245 C 0.18997 0.40532 0.47737 0.0
C2246 C 0.21472 0.43276 0.45129 0.0
C2247 C 0.19568 0.43446 0.43391 0.0
H2248 H 0.22726 0.41803 0.48525 0.0
H2249 H 0.23185 0.4428 0.44865 0.0
S2250 S 0.13467 0.4031 0.43704 0.0
N2251 N 0.14884 0.39481 0.46247 0.0
N2252 N 0.15429 0.42131 0.42249 0.0
C2253 C 0.17363 0.42138 0.43835 0.0
C2254 C 0.17074 0.40686 0.46003 0.0
C2255 C 0.11573 0.67524 0.39274 0.0
C2256 C 0.09074 0.67281 0.39854 0.0
C2257 C 0.13394 0.67297 0.41075 0.0
C2258 C 0.12799 0.66828 0.43544 0.0
H2259 H 0.1213 0.67882 0.37403 0.0
H2260 H 0.15287 0.67526 0.4052 0.0
S2261 S 0.06507 0.65977 0.46013 0.0
N2262 N 0.06084 0.66512 0.4306 0.0
N2263 N 0.09504 0.6605 0.46456 0.0
C2264 C 0.103 0.66527 0.44144 0.0
C2265 C 0.08441 0.6676 0.42299 0.0
C2266 C 0.81985 0.59151 0.46979 0.0
C2267 C 0.8387 0.60961 0.46891 0.0
C2268 C 0.81538 0.57542 0.45013 0.0
C2269 C 0.82967 0.57659 0.42881 0.0
H2270 H 0.80824 0.58982 0.48576 0.0
H2271 H 0.80076 0.56178 0.45169 0.0
S2272 S 0.87997 0.62139 0.41608 0.0
N2273 N 0.87103 0.62823 0.44404 0.0
N2274 N 0.86269 0.59773 0.40738 0.0
C2275 C 0.84855 0.59445 0.42756 0.0
C2276 C 0.85305 0.611 0.44751 0.0
C2277 C 0.92964 0.35201 0.47355 0.0
C2278 C 0.90742 0.33857 0.47489 0.0
C2279 C 0.94489 0.3501 0.45296 0.0
C2280 C 0.93822 0.33492 0.43294 0.0
H2281 H 0.93576 0.36317 0.48892 0.0
H2282 H 0.96236 0.35992 0.45311 0.0
S2283 S 0.87965 0.29931 0.42624 0.0
N2284 N 0.87844 0.31135 0.45388 0.0
N2285 N 0.90604 0.30902 0.41474 0.0
C2286 C 0.9152 0.32271 0.43361 0.0
C2287 C 0.90008 0.32422 0.4547 0.0
C2288 C 0.07165 0.68322 0.56366 0.0
C2289 C 0.0956 0.69327 0.5665 0.0
C2290 C 0.05682 0.67815 0.58411 0.0
C2291 C 0.06551 0.68314 0.60793 0.0
H2292 H 0.06438 0.67927 0.54552 0.0
H2293 H 0.03819 0.67134 0.58123 0.0
S2294 S 0.12714 0.70829 0.62517 0.0
N2295 N 0.12741 0.70718 0.59491 0.0
N2296 N 0.09986 0.69749 0.6333 0.0
C2297 C 0.08966 0.69243 0.61096 0.0
C2298 C 0.10463 0.69755 0.59026 0.0
C2299 C 0.06328 0.3507 0.44063 0.0
C2300 C 0.05792 0.33265 0.42298 0.0
C2301 C 0.08262 0.34809 0.4577 0.0
C2302 C 0.09758 0.32751 0.45751 0.0
H2303 H 0.05191 0.36647 0.44182 0.0
H2304 H 0.08538 0.36201 0.47153 0.0
S2305 S 0.09343 0.27726 0.41196 0.0
N2306 N 0.07037 0.29474 0.40479 0.0
N2307 N 0.10725 0.29045 0.4357 0.0
C2308 C 0.09312 0.3101 0.43892 0.0
C2309 C 0.07319 0.31253 0.42198 0.0
C2310 C 0.19416 0.56277 0.47173 0.0
C2311 C 0.18619 0.58555 0.46373 0.0
C2312 C 0.19022 0.54191 0.4572 0.0
C2313 C 0.17779 0.54315 0.43452 0.0
H2314 H 0.20392 0.56119 0.489 0.0
H2315 H 0.198 0.52495 0.46313 0.0
S2316 S 0.15502 0.59877 0.40462 0.0
N2317 N 0.16649 0.60825 0.43112 0.0
N2318 N 0.1585 0.56905 0.40444 0.0
C2319 C 0.16922 0.56568 0.42671 0.0
C2320 C 0.17359 0.5869 0.44117 0.0
C2321 C 0.94349 0.70413 0.42315 0.0
C2322 C 0.93248 0.68436 0.4359 0.0
C2323 C 0.9632 0.70102 0.40721 0.0
C2324 C 0.97285 0.67796 0.40304 0.0
H2325 H 0.93694 0.72234 0.42552 0.0
H2326 H 0.97059 0.71687 0.39767 0.0
S2327 S 0.95307 0.62052 0.43354 0.0
N2328 N 0.93428 0.64088 0.44424 0.0
N2329 N 0.97136 0.63527 0.41429 0.0
C2330 C 0.96267 0.6581 0.41606 0.0
C2331 C 0.9426 0.66124 0.43252 0.0
C2332 C 0.81282 0.43887 0.46172 0.0
C2333 C 0.83392 0.43189 0.47445 0.0
C2334 C 0.81415 0.45574 0.44263 0.0
C2335 C 0.8367 0.46635 0.43516 0.0
H2336 H 0.79514 0.43048 0.46581 0.0
H2337 H 0.79727 0.45979 0.43307 0.0
S2338 S 0.89701 0.45723 0.46497 0.0
N2339 N 0.87782 0.43925 0.48036 0.0
N2340 N 0.88039 0.47056 0.44364 0.0
C2341 C 0.85786 0.46069 0.44858 0.0
C2342 C 0.85648 0.44349 0.46833 0.0
C2343 C 0.94912 0.3144 0.58895 0.0
C2344 C 0.92773 0.32777 0.59065 0.0
C2345 C 0.96906 0.31911 0.60492 0.0
C2346 C 0.96822 0.33735 0.62308 0.0
H2347 H 0.95039 0.30035 0.57516 0.0
H2348 H 0.98523 0.30831 0.60307 0.0
S2349 S 0.91497 0.37569 0.63592 0.0
N2350 N 0.90612 0.35891 0.61219 0.0
N2351 N 0.94325 0.36778 0.64242 0.0
C2352 C 0.94666 0.35065 0.62494 0.0
C2353 C 0.92649 0.34582 0.60868 0.0
C2354 C 0.20933 0.46165 0.60556 0.0
C2355 C 0.18696 0.4714 0.61293 0.0
C2356 C 0.21007 0.43914 0.59352 0.0
C2357 C 0.18849 0.42567 0.58789 0.0
H2358 H 0.22655 0.47109 0.60975 0.0
H2359 H 0.22771 0.43214 0.58859 0.0
S2360 S 0.12512 0.44321 0.60239 0.0
N2361 N 0.14257 0.46584 0.61323 0.0
N2362 N 0.14405 0.42381 0.59018 0.0
C2363 C 0.16595 0.43543 0.59452 0.0
C2364 C 0.16518 0.45819 0.60717 0.0
C2365 C 0.84128 0.58725 0.57375 0.0
C2366 C 0.84628 0.61029 0.5841 0.0
C2367 C 0.84087 0.56606 0.5883 0.0
C2368 C 0.84596 0.567 0.61372 0.0
H2369 H 0.83709 0.5857 0.55435 0.0
H2370 H 0.83658 0.54878 0.5795 0.0
S2371 S 0.86169 0.62297 0.64932 0.0
N2372 N 0.85733 0.6328 0.62102 0.0
N2373 N 0.85691 0.59319 0.64831 0.0
C2374 C 0.8516 0.58997 0.62412 0.0
C2375 C 0.85163 0.61154 0.60935 0.0
C2376 C 0.59246 0.09727 0.64385 0.0
C2377 C 0.57893 0.09856 0.66567 0.0
C2378 C 0.6094 0.07874 0.64035 0.0
C2379 C 0.61286 0.0608 0.65839 0.0
H2380 H 0.59141 0.11174 0.63042 0.0
H2381 H 0.62131 0.07974 0.62456 0.0
S2382 S 0.57886 0.05396 0.71664 0.0
N2383 N 0.56788 0.07873 0.70395 0.0
N2384 N 0.59938 0.0439 0.6973 0.0
C2385 C 0.59774 0.06072 0.67909 0.0
C2386 C 0.58084 0.07962 0.68277 0.0
C2387 C 0.43947 0.09237 0.71105 0.0
C2388 C 0.42174 0.08935 0.69239 0.0
C2389 C 0.46115 0.10608 0.70715 0.0
C2390 C 0.46599 0.11754 0.68445 0.0
H2391 H 0.43684 0.0836 0.72867 0.0
H2392 H 0.47417 0.10775 0.72221 0.0
S2393 S 0.42493 0.11565 0.62973 0.0
N2394 N 0.41002 0.09936 0.65056 0.0
N2395 N 0.45085 0.1249 0.64303 0.0
C2396 C 0.44827 0.11476 0.66564 0.0
C2397 C 0.42617 0.10074 0.66965 0.0
C2398 C 0.44226 0.94428 0.67354 0.0
C2399 C 0.45557 0.94391 0.69579 0.0
C2400 C 0.42628 0.96325 0.66812 0.0
C2401 C 0.4235 0.98256 0.68462 0.0
H2402 H 0.44298 0.92906 0.66108 0.0
H2403 H 0.41459 0.96174 0.65208 0.0
S2404 S 0.45829 0.99278 0.74258 0.0
N2405 N 0.46788 0.96648 0.73235 0.0
N2406 N 0.43801 1.002 0.72219 0.0
C2407 C 0.43853 0.98352 0.70567 0.0
C2408 C 0.45453 0.96422 0.71128 0.0
C2409 C 0.57088 0.94298 0.67945 0.0
C2410 C 0.56886 0.92533 0.69806 0.0
C2411 C 0.59007 0.9606 0.67979 0.0
C2412 C 0.60787 0.96113 0.69872 0.0
H2413 H 0.55748 0.94332 0.66469 0.0
H2414 H 0.59087 0.97404 0.66527 0.0
S2415 S 0.61235 0.91765 0.75036 0.0
N2416 N 0.58742 0.90871 0.73518 0.0
N2417 N 0.62321 0.94169 0.73543 0.0
C2418 C 0.60629 0.9434 0.71711 0.0
C2419 C 0.58689 0.92551 0.71684 0.0
C2420 C 0.6001 0.9337 0.32684 0.0
C2421 C 0.59153 0.92057 0.34746 0.0
C2422 C 0.61576 0.95428 0.32926 0.0
C2423 C 0.62375 0.96271 0.35243 0.0
H2424 H 0.59456 0.92813 0.30854 0.0
H2425 H 0.62197 0.96342 0.31272 0.0
S2426 S 0.60557 0.93618 0.4125 0.0
N2427 N 0.5918 0.91821 0.39207 0.0
N2428 N 0.62072 0.95717 0.39657 0.0
C2429 C 0.61494 0.95017 0.37328 0.0
C2430 C 0.59895 0.92913 0.37083 0.0
C2431 C 0.59165 0.06233 0.35093 0.0
C2432 C 0.61013 0.07214 0.36635 0.0
C2433 C 0.56953 0.0744 0.34742 0.0
C2434 C 0.56486 0.09628 0.35977 0.0
H2435 H 0.595 0.04613 0.34035 0.0
H2436 H 0.55648 0.06722 0.334 0.0
S2437 S 0.60667 0.12764 0.40436 0.0
N2438 N 0.62188 0.10372 0.39546 0.0
N2439 N 0.58012 0.12601 0.38957 0.0
C2440 C 0.58258 0.10518 0.37664 0.0
C2441 C 0.6053 0.09321 0.37973 0.0
C2442 C 0.43469 0.07315 0.35437 0.0
C2443 C 0.45315 0.07161 0.33667 0.0
C2444 C 0.41856 0.05329 0.35903 0.0
C2445 C 0.42047 0.0312 0.34616 0.0
H2446 H 0.43207 0.09014 0.36387 0.0
H2447 H 0.40394 0.05563 0.37206 0.0
S2448 S 0.46849 0.0169 0.30094 0.0
N2449 N 0.47429 0.0456 0.30839 0.0
N2450 N 0.44425 0.00828 0.31703 0.0
C2451 C 0.43985 0.0291 0.32948 0.0
C2452 C 0.45611 0.0493 0.32473 0.0
C2453 C 0.47004 0.93061 0.36922 0.0
C2454 C 0.47262 0.90554 0.36575 0.0
C2455 C 0.44678 0.94093 0.36799 0.0
C2456 C 0.42554 0.92644 0.36305 0.0
H2457 H 0.48613 0.94242 0.37158 0.0
H2458 H 0.44556 0.96048 0.36956 0.0
S2459 S 0.42267 0.85967 0.35417 0.0
N2460 N 0.45211 0.86659 0.35759 0.0
N2461 N 0.40852 0.88561 0.357 0.0
C2462 C 0.42791 0.90124 0.36089 0.0
C2463 C 0.45144 0.89089 0.36175 0.0
C2464 C 0.70033 0.10808 0.58821 0.0
C2465 C 0.68843 0.08527 0.58653 0.0
C2466 C 0.6942 0.12697 0.57251 0.0
C2467 C 0.67603 0.1239 0.55409 0.0
H2468 H 0.71428 0.1115 0.60213 0.0
H2469 H 0.70412 0.14416 0.57491 0.0
S2470 S 0.63939 0.0673 0.54204 0.0
N2471 N 0.65742 0.06031 0.56538 0.0
N2472 N 0.64608 0.09603 0.53519 0.0
C2473 C 0.66375 0.10115 0.55224 0.0
C2474 C 0.6699 0.0818 0.56861 0.0
C2475 C 0.42848 0.17864 0.59307 0.0
C2476 C 0.44604 0.19785 0.59424 0.0
C2477 C 0.41317 0.17528 0.57238 0.0
C2478 C 0.41495 0.19096 0.55194 0.0
H2479 H 0.42641 0.16632 0.60845 0.0
H2480 H 0.39967 0.16045 0.57259 0.0
S2481 S 0.45985 0.24269 0.54508 0.0
N2482 N 0.4655 0.23175 0.57271 0.0
N2483 N 0.43698 0.22569 0.53386 0.0
C2484 C 0.4329 0.20997 0.55276 0.0
C2485 C 0.44835 0.21338 0.57388 0.0
C2486 C 0.33748 0.91061 0.58044 0.0
C2487 C 0.36167 0.90537 0.57403 0.0
C2488 C 0.33247 0.92913 0.59696 0.0
C2489 C 0.3514 0.94322 0.60794 0.0
H2490 H 0.32222 0.89954 0.57344 0.0
H2491 H 0.31358 0.93177 0.602 0.0
S2492 S 0.41777 0.9393 0.59426 0.0
N2493 N 0.40464 0.91749 0.57745 0.0
N2494 N 0.39532 0.95259 0.60877 0.0
C2495 C 0.37562 0.9396 0.60006 0.0
C2496 C 0.38073 0.92058 0.58303 0.0
C2497 C 0.59153 0.84889 0.58287 0.0
C2498 C 0.61727 0.84983 0.58383 0.0
C2499 C 0.57771 0.84922 0.60458 0.0
C2500 C 0.58925 0.85009 0.62784 0.0
H2501 H 0.58211 0.84651 0.56542 0.0
H2502 H 0.55793 0.84756 0.60327 0.0
S2503 S 0.65608 0.85604 0.63973 0.0
N2504 N 0.65364 0.8539 0.60959 0.0
N2505 N 0.62775 0.85469 0.65018 0.0
C2506 C 0.6149 0.85241 0.62882 0.0
C2507 C 0.62887 0.85222 0.60684 0.0
C2508 C 0.71072 0.91871 0.48235 0.0
C2509 C 0.69155 0.90096 0.4818 0.0
C2510 C 0.71468 0.93482 0.46272 0.0
C2511 C 0.69964 0.93393 0.44168 0.0
H2512 H 0.72295 0.92014 0.49807 0.0
H2513 H 0.72955 0.94824 0.4641 0.0
S2514 S 0.64799 0.89019 0.43008 0.0
N2515 N 0.65788 0.88303 0.45782 0.0
N2516 N 0.6654 0.9135 0.42096 0.0
C2517 C 0.68036 0.91644 0.44081 0.0
C2518 C 0.67629 0.89993 0.46084 0.0
C2519 C 0.59014 0.17889 0.45092 0.0
C2520 C 0.61319 0.19073 0.44972 0.0
C2521 C 0.57426 0.17846 0.4305 0.0
C2522 C 0.58109 0.18946 0.40802 0.0
H2523 H 0.58415 0.17042 0.46789 0.0
H2524 H 0.55644 0.16958 0.43245 0.0
S2525 S 0.64076 0.22132 0.3956 0.0
N2526 N 0.64243 0.21341 0.42476 0.0
N2527 N 0.61363 0.21119 0.38588 0.0
C2528 C 0.60451 0.20088 0.40668 0.0
C2529 C 0.62031 0.20182 0.42765 0.0
C2530 C 0.36932 0.09487 0.45272 0.0
C2531 C 0.35152 0.09887 0.47057 0.0
C2532 C 0.36492 0.07779 0.43389 0.0
C2533 C 0.34253 0.06438 0.43239 0.0
H2534 H 0.38578 0.10626 0.45222 0.0
H2535 H 0.37848 0.07604 0.41966 0.0
S2536 S 0.29238 0.06488 0.47778 0.0
N2537 N 0.3124 0.0858 0.48771 0.0
N2538 N 0.30428 0.05352 0.45266 0.0
C2539 C 0.32563 0.06677 0.45143 0.0
C2540 C 0.33015 0.08402 0.47049 0.0
C2541 C 0.42825 0.81005 0.46325 0.0
C2542 C 0.41902 0.83191 0.47252 0.0
C2543 C 0.4422 0.80962 0.44184 0.0
C2544 C 0.44786 0.83102 0.4288 0.0
H2545 H 0.42449 0.79288 0.47242 0.0
H2546 H 0.44877 0.79236 0.43547 0.0
S2547 S 0.42827 0.89308 0.44444 0.0
N2548 N 0.4167 0.87569 0.4665 0.0
N2549 N 0.44308 0.87471 0.42616 0.0
C2550 C 0.4391 0.85309 0.43775 0.0
C2551 C 0.42464 0.85357 0.45959 0.0
C2552 C 0.58658 0.1663 0.5719 0.0
C2553 C 0.58821 0.18866 0.55921 0.0
C2554 C 0.56727 0.16119 0.5882 0.0
C2555 C 0.549 0.17822 0.59196 0.0
H2556 H 0.6013 0.15359 0.5707 0.0
H2557 H 0.56797 0.14504 0.59958 0.0
S2558 S 0.54227 0.23683 0.55927 0.0
N2559 N 0.56801 0.226 0.54863 0.0
N2560 N 0.53167 0.2164 0.57906 0.0
C2561 C 0.54912 0.19935 0.57741 0.0
C2562 C 0.56881 0.20464 0.56112 0.0
C2563 C 0.57834 0.84208 0.4268 0.0
C2564 C 0.55746 0.82638 0.42642 0.0
C2565 C 0.59673 0.83978 0.44481 0.0
C2566 C 0.59504 0.82168 0.46302 0.0
H2567 H 0.5808 0.85593 0.41279 0.0
H2568 H 0.61274 0.85176 0.44412 0.0
S2569 S 0.54279 0.77812 0.4723 0.0
N2570 N 0.53529 0.79348 0.44744 0.0
N2571 N 0.56982 0.78938 0.48105 0.0
C2572 C 0.57389 0.80652 0.46344 0.0
C2573 C 0.55513 0.80883 0.44522 0.0
C2574 C 0.66848 0.08365 0.46182 0.0
C2575 C 0.68868 0.09804 0.45355 0.0
C2576 C 0.66469 0.05947 0.454 0.0
C2577 C 0.68102 0.04882 0.43778 0.0
H2578 H 0.656 0.09075 0.47517 0.0
H2579 H 0.64949 0.04878 0.46143 0.0
S2580 S 0.73532 0.07893 0.4091 0.0
N2581 N 0.7239 0.10019 0.42667 0.0
N2582 N 0.71737 0.05454 0.41285 0.0
C2583 C 0.70078 0.06313 0.42886 0.0
C2584 C 0.70449 0.08777 0.43654 0.0
C2585 C 0.46066 0.19713 0.41432 0.0
C2586 C 0.46688 0.17462 0.40401 0.0
C2587 C 0.44058 0.19915 0.42998 0.0
C2588 C 0.42585 0.17877 0.43637 0.0
H2589 H 0.47108 0.2136 0.40992 0.0
H2590 H 0.43643 0.21694 0.43708 0.0
S2591 S 0.43434 0.11544 0.41538 0.0
N2592 N 0.45678 0.13125 0.40213 0.0
N2593 N 0.41904 0.13522 0.43159 0.0
C2594 C 0.43212 0.15603 0.42685 0.0
C2595 C 0.45257 0.15393 0.41067 0.0
C2596 C 0.36124 0.93002 0.46406 0.0
C2597 C 0.33802 0.92023 0.47089 0.0
C2598 C 0.36369 0.94778 0.44563 0.0
C2599 C 0.34298 0.95665 0.43357 0.0
H2600 H 0.37782 0.92361 0.47257 0.0
H2601 H 0.38191 0.95372 0.44005 0.0
S2602 S 0.27791 0.93976 0.44655 0.0
N2603 N 0.29389 0.9223 0.46493 0.0
N2604 N 0.29838 0.95667 0.43174 0.0
C2605 C 0.31963 0.94847 0.44151 0.0
C2606 C 0.31715 0.93003 0.45979 0.0
C2607 C 0.462 0.81896 0.59417 0.0
C2608 C 0.44101 0.83303 0.59312 0.0
C2609 C 0.48093 0.82439 0.61101 0.0
C2610 C 0.47945 0.84399 0.62756 0.0
H2611 H 0.46372 0.80363 0.5819 0.0
H2612 H 0.49667 0.81284 0.61134 0.0
S2613 S 0.42716 0.88521 0.63311 0.0
N2614 N 0.41921 0.86672 0.6104 0.0
N2615 N 0.45464 0.87697 0.6422 0.0
C2616 C 0.45851 0.85829 0.62653 0.0
C2617 C 0.4393 0.85277 0.6093 0.0
C2618 C 0.71631 0.92798 0.5965 0.0
C2619 C 0.69444 0.91468 0.59187 0.0
C2620 C 0.71629 0.95051 0.60855 0.0
C2621 C 0.69438 0.96067 0.61684 0.0
H2622 H 0.73361 0.92102 0.59046 0.0
H2623 H 0.73377 0.95992 0.61147 0.0
S2624 S 0.63211 0.93213 0.61042 0.0
N2625 N 0.65029 0.91267 0.59714 0.0
N2626 N 0.65011 0.95494 0.61996 0.0
C2627 C 0.67231 0.94733 0.61254 0.0
C2628 C 0.67236 0.92441 0.60001 0.0
C2629 C 0.3538 0.08632 0.5814 0.0
C2630 C 0.33194 0.09941 0.57928 0.0
C2631 C 0.35589 0.0666 0.59784 0.0
C2632 C 0.33601 0.05872 0.61237 0.0
H2633 H 0.36933 0.0909 0.56993 0.0
H2634 H 0.37293 0.057 0.59867 0.0
S2635 S 0.27604 0.08832 0.61684 0.0
N2636 N 0.29119 0.10455 0.59613 0.0
N2637 N 0.29455 0.06656 0.62516 0.0
C2638 C 0.31437 0.07189 0.61099 0.0
C2639 C 0.31247 0.09242 0.59495 0.0
C2640 C 0.59433 0.59331 0.14384 0.0
C2641 C 0.57932 0.59454 0.16464 0.0
C2642 C 0.60983 0.57353 0.14045 0.0
C2643 C 0.61046 0.55448 0.15771 0.0
H2644 H 0.59557 0.60861 0.13132 0.0
H2645 H 0.62298 0.57436 0.12566 0.0
S2646 S 0.57164 0.5476 0.21286 0.0
N2647 N 0.56379 0.57388 0.20082 0.0
N2648 N 0.59261 0.53675 0.19449 0.0
C2649 C 0.59377 0.55456 0.17717 0.0
C2650 C 0.57828 0.57463 0.18068 0.0
C2651 C 0.44583 0.57654 0.17788 0.0
C2652 C 0.43306 0.57518 0.20032 0.0
C2653 C 0.46483 0.59391 0.17404 0.0
C2654 C 0.47215 0.6102 0.19267 0.0
H2655 H 0.4416 0.56377 0.16327 0.0
H2656 H 0.47434 0.59409 0.15667 0.0
S2657 S 0.44329 0.61656 0.25354 0.0
N2658 N 0.42779 0.5938 0.24039 0.0
N2659 N 0.46435 0.62531 0.23358 0.0
C2660 C 0.45936 0.60951 0.21491 0.0
C2661 C 0.43963 0.59228 0.21865 0.0
C2662 C 0.43186 0.41357 0.18384 0.0
C2663 C 0.45714 0.41739 0.18082 0.0
C2664 C 0.4157 0.43266 0.18098 0.0
C2665 C 0.42419 0.45645 0.17535 0.0
H2666 H 0.42468 0.39586 0.18941 0.0
H2667 H 0.39646 0.42908 0.18475 0.0
S2668 S 0.48865 0.47552 0.16368 0.0
N2669 N 0.48993 0.44613 0.16991 0.0
N2670 N 0.45941 0.48241 0.16523 0.0
C2671 C 0.44927 0.46025 0.17074 0.0
C2672 C 0.46581 0.44059 0.17335 0.0
C2673 C 0.61252 0.42601 0.19892 0.0
C2674 C 0.61225 0.44595 0.18291 0.0
C2675 C 0.59465 0.40741 0.19737 0.0
C2676 C 0.57564 0.40791 0.17972 0.0
H2677 H 0.62683 0.42468 0.21271 0.0
H2678 H 0.59588 0.39245 0.21024 0.0
S2679 S 0.56607 0.45658 0.13387 0.0
N2680 N 0.591 0.46559 0.14911 0.0
N2681 N 0.55744 0.43016 0.14599 0.0
C2682 C 0.57516 0.42762 0.16337 0.0
C2683 C 0.59345 0.44677 0.16502 0.0
C2684 C 0.59095 0.43687 0.85169 0.0
C2685 C 0.57421 0.43399 0.83208 0.0
C2686 C 0.60583 0.45811 0.85404 0.0
C2687 C 0.60435 0.47737 0.83698 0.0
H2688 H 0.59299 0.42233 0.8649 0.0
H2689 H 0.61891 0.45918 0.86909 0.0
S2690 S 0.56086 0.47986 0.78423 0.0
N2691 N 0.55535 0.4529 0.79669 0.0
N2692 N 0.583 0.49271 0.80097 0.0
C2693 C 0.58687 0.47499 0.81787 0.0
C2694 C 0.5719 0.45335 0.81545 0.0
C2695 C 0.57049 0.58412 0.82963 0.0
C2696 C 0.5863 0.58297 0.84996 0.0
C2697 C 0.54864 0.59663 0.83084 0.0
C2698 C 0.54184 0.60881 0.85236 0.0
H2699 H 0.57563 0.57612 0.81233 0.0
H2700 H 0.53772 0.59805 0.81423 0.0
S2701 S 0.57576 0.60872 0.91162 0.0
N2702 N 0.59282 0.5928 0.89297 0.0
N2703 N 0.55157 0.61661 0.89533 0.0
C2704 C 0.55652 0.6061 0.87348 0.0
C2705 C 0.57887 0.59315 0.87223 0.0
C2706 C 0.43479 0.56921 0.82469 0.0
C2707 C 0.43176 0.58971 0.83964 0.0
C2708 C 0.42115 0.54756 0.82861 0.0
C2709 C 0.40376 0.5456 0.84752 0.0
H2710 H 0.44784 0.56996 0.80984 0.0
H2711 H 0.42406 0.53237 0.81645 0.0
S2712 S 0.38847 0.59467 0.89121 0.0
N2713 N 0.4101 0.607 0.87379 0.0
N2714 N 0.38426 0.56652 0.88121 0.0
C2715 C 0.40082 0.56601 0.86278 0.0
C2716 C 0.41485 0.588 0.85883 0.0
C2717 C 0.42093 0.4134 0.87032 0.0
C2718 C 0.41766 0.43729 0.862 0.0
C2719 C 0.44429 0.4035 0.87117 0.0
C2720 C 0.46498 0.41698 0.8631 0.0
H2721 H 0.40522 0.40213 0.87554 0.0
H2722 H 0.44582 0.38454 0.87622 0.0
S2723 S 0.46622 0.48041 0.84019 0.0
N2724 N 0.43714 0.47455 0.84672 0.0
N2725 N 0.48092 0.45543 0.84716 0.0
C2726 C 0.46208 0.44111 0.85559 0.0
C2727 C 0.43842 0.45142 0.85531 0.0
C2728 C 0.66534 0.60941 0.1014 0.0
C2729 C 0.67376 0.58779 0.0913 0.0
C2730 C 0.65507 0.62717 0.08652 0.0
C2731 C 0.65302 0.62404 0.06096 0.0
H2732 H 0.66757 0.61291 0.12085 0.0
H2733 H 0.6503 0.64426 0.09488 0.0
S2734 S 0.6692 0.56892 0.02624 0.0
N2735 N 0.67678 0.56268 0.05497 0.0
N2736 N 0.6577 0.59641 0.0266 0.0
C2737 C 0.6594 0.60156 0.05092 0.0
C2738 C 0.66982 0.58334 0.06622 0.0
C2739 C 0.44003 0.67227 0.09189 0.0
C2740 C 0.44044 0.69291 0.10738 0.0
C2741 C 0.42321 0.66975 0.07228 0.0
C2742 C 0.40653 0.68802 0.06698 0.0
H2743 H 0.45313 0.6581 0.09448 0.0
H2744 H 0.42372 0.65371 0.06079 0.0
S2745 S 0.39775 0.74421 0.10312 0.0
N2746 N 0.42052 0.73066 0.1172 0.0
N2747 N 0.39011 0.72658 0.07963 0.0
C2748 C 0.40632 0.70846 0.08247 0.0
C2749 C 0.42297 0.71076 0.10279 0.0
C2750 C 0.37617 0.42448 0.10555 0.0
C2751 C 0.35318 0.43524 0.108 0.0
C2752 C 0.38003 0.40688 0.08736 0.0
C2753 C 0.36101 0.39978 0.07116 0.0
H2754 H 0.39071 0.42863 0.11867 0.0
H2755 H 0.39731 0.39768 0.08705 0.0
S2756 S 0.29919 0.42582 0.06721 0.0
N2757 N 0.31251 0.43993 0.09074 0.0
N2758 N 0.31964 0.40703 0.05663 0.0
C2759 C 0.33869 0.41184 0.07229 0.0
C2760 C 0.33478 0.42953 0.09073 0.0
C2761 C 0.60318 0.31079 0.09479 0.0
C2762 C 0.59668 0.33187 0.10735 0.0
C2763 C 0.61593 0.31217 0.0726 0.0
C2764 C 0.62308 0.33472 0.06204 0.0
H2765 H 0.59802 0.29303 0.10203 0.0
H2766 H 0.62039 0.29523 0.0638 0.0
S2767 S 0.61125 0.39549 0.08835 0.0
N2768 N 0.59879 0.37608 0.10813 0.0
N2769 N 0.6228 0.37876 0.06636 0.0
C2770 C 0.61685 0.35603 0.07457 0.0
C2771 C 0.60363 0.35459 0.09718 0.0
C2772 C 0.65662 0.42038 0.94338 0.0
C2773 C 0.67302 0.41829 0.96321 0.0
C2774 C 0.66065 0.4381 0.92507 0.0
C2775 C 0.68144 0.45396 0.92582 0.0
H2776 H 0.6416 0.40723 0.9411 0.0
H2777 H 0.64816 0.43857 0.90954 0.0
S2778 S 0.72792 0.45768 0.97576 0.0
N2779 N 0.70938 0.43482 0.98379 0.0
N2780 N 0.71685 0.46816 0.94962 0.0
C2781 C 0.69705 0.45292 0.94638 0.0
C2782 C 0.69285 0.43507 0.96501 0.0
C2783 C 0.586 0.67713 0.95204 0.0
C2784 C 0.60795 0.69096 0.95049 0.0
C2785 C 0.56826 0.67798 0.93321 0.0
C2786 C 0.57201 0.69249 0.91209 0.0
H2787 H 0.58202 0.66653 0.96838 0.0
H2788 H 0.55117 0.66784 0.93567 0.0
S2789 S 0.62859 0.72897 0.89805 0.0
N2790 N 0.63361 0.71782 0.92572 0.0
N2791 N 0.60111 0.71849 0.88977 0.0
C2792 C 0.59468 0.70523 0.90988 0.0
C2793 C 0.61243 0.70469 0.92923 0.0
C2794 C 0.32824 0.59838 0.92898 0.0
C2795 C 0.33421 0.57408 0.93285 0.0
C2796 C 0.33327 0.61603 0.94688 0.0
C2797 C 0.34428 0.61008 0.96951 0.0
H2798 H 0.31929 0.60372 0.91208 0.0
H2799 H 0.32757 0.63442 0.9433 0.0
S2800 S 0.36454 0.54914 0.98833 0.0
N2801 N 0.35282 0.54497 0.96054 0.0
N2802 N 0.36204 0.5784 0.99441 0.0
C2803 C 0.35147 0.58609 0.97324 0.0
C2804 C 0.34642 0.568 0.95486 0.0
C2805 C 0.43746 0.31113 0.93421 0.0
C2806 C 0.44775 0.33332 0.92582 0.0
C2807 C 0.42493 0.30957 0.95649 0.0
C2808 C 0.4218 0.33024 0.97123 0.0
H2809 H 0.43901 0.29479 0.92334 0.0
H2810 H 0.41702 0.29207 0.96181 0.0
S2811 S 0.44652 0.39246 0.95846 0.0
N2812 N 0.45493 0.37632 0.93458 0.0
N2813 N 0.43112 0.37341 0.9765 0.0
C2814 C 0.43242 0.3525 0.96338 0.0
C2815 C 0.44551 0.35403 0.94073 0.0
C2816 C 0.55954 0.66155 0.088 0.0
C2817 C 0.54263 0.67855 0.09589 0.0
C2818 C 0.57678 0.66787 0.06992 0.0
C2819 C 0.57762 0.69137 0.05942 0.0
H2820 H 0.56111 0.64435 0.09754 0.0
H2821 H 0.59083 0.65505 0.06572 0.0
S2822 S 0.53416 0.7404 0.07061 0.0
N2823 N 0.52529 0.71825 0.08934 0.0
N2824 N 0.55785 0.73009 0.05555 0.0
C2825 C 0.55926 0.70748 0.06546 0.0
C2826 C 0.54164 0.70101 0.0836 0.0
C2827 C 0.58565 0.35177 0.9401 0.0
C2828 C 0.60199 0.33244 0.93792 0.0
C2829 C 0.56482 0.35331 0.92483 0.0
C2830 C 0.55923 0.33528 0.90725 0.0
H2831 H 0.58864 0.36557 0.95401 0.0
H2832 H 0.55265 0.36833 0.92724 0.0
S2833 S 0.59718 0.28283 0.8916 0.0
N2834 N 0.61224 0.29659 0.91426 0.0
N2835 N 0.57232 0.29866 0.8871 0.0
C2836 C 0.57552 0.31625 0.90443 0.0
C2837 C 0.59707 0.31503 0.91937 0.0
C2838 C 0.65205 0.57291 0.93532 0.0
C2839 C 0.67119 0.55825 0.92795 0.0
C2840 C 0.65637 0.59173 0.95237 0.0
C2841 C 0.68007 0.59678 0.96227 0.0
H2842 H 0.63422 0.57113 0.9265 0.0
H2843 H 0.64114 0.60295 0.95696 0.0
S2844 S 0.7351 0.56016 0.95167 0.0
N2845 N 0.71344 0.54706 0.93456 0.0
N2846 N 0.722 0.58308 0.96538 0.0
C2847 C 0.6987 0.58064 0.95658 0.0
C2848 C 0.69412 0.56122 0.93972 0.0
C2849 C 0.42249 0.7087 0.94062 0.0
C2850 C 0.41141 0.68727 0.94999 0.0
C2851 C 0.44218 0.70797 0.92425 0.0
C2852 C 0.45149 0.68574 0.91616 0.0
H2853 H 0.41589 0.72626 0.94606 0.0
H2854 H 0.44982 0.7251 0.91752 0.0
S2855 S 0.42933 0.62428 0.93553 0.0
N2856 N 0.41145 0.64303 0.95018 0.0
N2857 N 0.4484 0.64167 0.91935 0.0
C2858 C 0.44072 0.66411 0.92551 0.0
C2859 C 0.42077 0.66486 0.94246 0.0
C2860 C 0.32577 0.45806 0.95505 0.0
C2861 C 0.34482 0.46208 0.93819 0.0
C2862 C 0.325 0.43742 0.97006 0.0
C2863 C 0.34317 0.4199 0.96865 0.0
H2864 H 0.31057 0.4703 0.95566 0.0
H2865 H 0.30961 0.43472 0.98226 0.0
S2866 S 0.39788 0.42289 0.92869 0.0
N2867 N 0.38323 0.44795 0.9222 0.0
N2868 N 0.38159 0.40869 0.95001 0.0
C2869 C 0.36317 0.42448 0.95297 0.0
C2870 C 0.36407 0.44573 0.93786 0.0
C2871 C 0.4686 0.34536 0.10884 0.0
C2872 C 0.48502 0.32623 0.11182 0.0
C2873 C 0.44719 0.3424 0.09457 0.0
C2874 C 0.44122 0.32014 0.08299 0.0
H2875 H 0.47194 0.36258 0.11809 0.0
H2876 H 0.43477 0.35737 0.09325 0.0
S2877 S 0.47886 0.26521 0.08259 0.0
N2878 N 0.49448 0.28475 0.10008 0.0
N2879 N 0.45408 0.2794 0.07368 0.0
C2880 C 0.45775 0.3012 0.08503 0.0
C2881 C 0.47969 0.30422 0.09928 0.0
C2882 C 0.68052 0.44056 0.07206 0.0
C2883 C 0.70234 0.42746 0.07011 0.0
C2884 C 0.67885 0.46058 0.08803 0.0
C2885 C 0.69903 0.46864 0.10234 0.0
H2886 H 0.66471 0.43569 0.06082 0.0
H2887 H 0.66184 0.47023 0.08866 0.0
S2888 S 0.75916 0.43915 0.10686 0.0
N2889 N 0.74361 0.42275 0.08636 0.0
N2890 N 0.74076 0.46089 0.11519 0.0
C2891 C 0.72066 0.45544 0.10112 0.0
C2892 C 0.72225 0.43478 0.08532 0.0
C2893 C 0.31934 0.56266 0.12208 0.0
C2894 C 0.34177 0.55077 0.12323 0.0
C2895 C 0.31583 0.58243 0.10626 0.0
C2896 C 0.33439 0.59102 0.09031 0.0
H2897 H 0.30426 0.55671 0.13365 0.0
H2898 H 0.29824 0.59097 0.10657 0.0
S2899 S 0.39669 0.5655 0.08598 0.0
N2900 N 0.38309 0.54901 0.10754 0.0
N2901 N 0.37635 0.58529 0.07676 0.0
C2902 C 0.35714 0.57929 0.09144 0.0
C2903 C 0.36083 0.55941 0.10811 0.0
loop_
_geom_bond_atom_site_label_1
_geom_bond_atom_site_label_2
_geom_bond_distance
_geom_bond_site_symmetry_2
_ccdc_geom_bond_type
C0 C1 1.351 . S
C0 N3 1.368 . S
C0 H5 0.931 1_655 S
C1 C0 1.351 . S
C1 N2 1.373 . S
C1 H29 0.930 . S
N2 C1 1.373 . S
N2 C4 1.340 . S
N3 C0 1.368 . S
N3 C4 1.321 . S
N3 Co6 2.135 1_655 S
C4 N2 1.340 . S
C4 N3 1.321 . S
C4 H28 0.930 . S
H5 C0 0.931 1_455 S
Co6 N3 2.135 1_455 S
Co6 N9 2.121 . S
Co6 O14 2.055 . S
Co6 O17 2.039 1_455 S
Co6 N20 2.140 . S
C7 O8 1.227 . S
C7 O17 1.265 . S
O8 C7 1.227 . S
N9 Co6 2.121 . S
N9 C11 1.375 . S
N9 C12 1.313 . S
C10 C11 1.338 . S
C10 N13 1.377 . S
C10 H30 0.930 . S
C11 N9 1.375 . S
C11 C10 1.338 . S
C11 H15 0.931 . S
C12 N9 1.313 . S
C12 N13 1.344 . S
C12 H16 0.930 . S
N13 C10 1.377 . S
N13 C12 1.344 . S
O14 Co6 2.055 . S
O14 C18 1.253 . S
H15 C11 0.931 . S
H16 C12 0.930 . S
O17 Co6 2.039 1_655 S
O17 C7 1.265 . S
C18 O14 1.253 . S
C18 O19 1.227 . S
O19 C18 1.227 . S
N20 Co6 2.140 . S
N20 C23 1.346 1_455 S
N20 C24 1.345 . S
C21 C22 1.387 1_455 S
C21 C25 1.391 . S
C22 C21 1.387 1_655 S
C22 C23 1.369 . S
C22 H31 0.929 . S
C23 N20 1.346 1_655 S
C23 C22 1.369 . S
C23 H26 0.928 . S
C24 N20 1.345 . S
C24 C25 1.371 . S
C24 H27 0.931 . S
C25 C21 1.391 . S
C25 C24 1.371 . S
C25 H32 0.930 . S
H26 C23 0.928 . S
H27 C24 0.931 . S
H28 C4 0.930 . S
H29 C1 0.930 . S
H30 C10 0.930 . S
H31 C22 0.929 . S
H32 C25 0.930 . S
C33 C34 1.351 . S
C33 N36 1.368 . S
C33 H38 0.931 . S
C34 C33 1.351 . S
C34 N35 1.373 . S
C34 H62 0.930 . S
N35 C34 1.373 . S
N35 C37 1.340 . S
N36 C33 1.368 . S
N36 C37 1.321 . S
N36 Co39 2.135 . S
C37 N35 1.340 . S
C37 N36 1.321 . S
C37 H61 0.930 . S
H38 C33 0.931 . S
Co39 N36 2.135 . S
Co39 N42 2.121 1_545 S
Co39 O47 2.055 1_545 S
Co39 O50 2.039 . S
Co39 N53 2.140 . S
C40 O41 1.227 . S
C40 O50 1.265 . S
O41 C40 1.227 . S
N42 Co39 2.121 1_565 S
N42 C44 1.375 . S
N42 C45 1.313 . S
C43 C44 1.338 . S
C43 N46 1.377 . S
C43 H63 0.930 . S
C44 N42 1.375 . S
C44 C43 1.338 . S
C44 H48 0.906 1_565 S
C45 N42 1.313 . S
C45 N46 1.344 . S
C45 H49 0.930 . S
N46 C43 1.377 . S
N46 C45 1.344 . S
O47 Co39 2.055 1_565 S
O47 C51 1.253 . S
H48 C44 0.906 1_545 S
H49 C45 0.930 . S
O50 Co39 2.039 . S
O50 C40 1.265 . S
C51 O47 1.253 . S
C51 O52 1.227 . S
O52 C51 1.227 . S
N53 Co39 2.140 . S
N53 C56 1.346 . S
N53 C57 1.345 1_545 S
C54 C55 1.387 . S
C54 C58 1.391 1_545 S
C55 C54 1.387 . S
C55 C56 1.369 . S
C55 H64 0.929 . S
C56 N53 1.346 . S
C56 C55 1.369 . S
C56 H59 0.928 . S
C57 N53 1.345 1_565 S
C57 C58 1.371 . S
C57 H60 0.931 . S
C58 C54 1.391 1_565 S
C58 C57 1.371 . S
C58 H65 0.930 . S
H59 C56 0.928 . S
H60 C57 0.931 . S
H61 C37 0.930 . S
H62 C34 0.930 . S
H63 C43 0.930 . S
H64 C55 0.929 . S
H65 C58 0.930 . S
C66 C67 1.351 . S
C66 N69 1.368 . S
C66 H71 0.931 1_655 S
C67 C66 1.351 . S
C67 N68 1.373 . S
C67 H95 0.930 . S
N68 C67 1.373 . S
N68 C70 1.340 . S
N69 C66 1.368 . S
N69 C70 1.321 . S
N69 Co72 2.135 1_655 S
C70 N68 1.340 . S
C70 N69 1.321 . S
C70 H94 0.930 . S
H71 C66 0.931 1_455 S
Co72 N69 2.135 1_455 S
Co72 N75 2.121 . S
Co72 O80 2.055 . S
Co72 O83 2.039 1_455 S
Co72 N86 2.140 . S
C73 O74 1.227 . S
C73 O83 1.265 . S
O74 C73 1.227 . S
N75 Co72 2.121 . S
N75 C77 1.375 . S
N75 C78 1.313 . S
C76 C77 1.338 . S
C76 N79 1.377 . S
C76 H96 0.930 . S
C77 N75 1.375 . S
C77 C76 1.338 . S
C77 H81 0.931 . S
C78 N75 1.313 . S
C78 N79 1.344 . S
C78 H82 0.930 . S
N79 C76 1.377 . S
N79 C78 1.344 . S
O80 Co72 2.055 . S
O80 C84 1.253 . S
H81 C77 0.931 . S
H82 C78 0.930 . S
O83 Co72 2.039 1_655 S
O83 C73 1.265 . S
C84 O80 1.253 . S
C84 O85 1.227 . S
O85 C84 1.227 . S
N86 Co72 2.140 . S
N86 C89 1.346 1_455 S
N86 C90 1.345 . S
C87 C88 1.387 1_455 S
C87 C91 1.391 . S
C88 C87 1.387 1_655 S
C88 C89 1.369 . S
C88 H97 0.929 . S
C89 N86 1.346 1_655 S
C89 C88 1.369 . S
C89 H92 0.928 . S
C90 N86 1.345 . S
C90 C91 1.371 . S
C90 H93 0.931 . S
C91 C87 1.391 . S
C91 C90 1.371 . S
C91 H98 0.930 . S
H92 C89 0.928 . S
H93 C90 0.931 . S
H94 C70 0.930 . S
H95 C67 0.930 . S
H96 C76 0.930 . S
H97 C88 0.929 . S
H98 C91 0.930 . S
C99 C100 1.351 . S
C99 N102 1.368 . S
C99 H104 0.931 1_565 S
C100 C99 1.351 . S
C100 N101 1.373 . S
C100 H128 0.930 . S
N101 C100 1.373 . S
N101 C103 1.340 . S
N102 C99 1.368 . S
N102 C103 1.321 . S
N102 Co105 2.135 1_565 S
C103 N101 1.340 . S
C103 N102 1.321 . S
C103 H127 0.930 . S
H104 C99 0.931 1_545 S
Co105 N102 2.135 1_545 S
Co105 N108 2.121 . S
Co105 O113 2.055 . S
Co105 O116 2.039 1_545 S
Co105 N119 2.140 . S
C106 O107 1.227 . S
C106 O116 1.265 . S
O107 C106 1.227 . S
N108 Co105 2.121 . S
N108 C110 1.375 . S
N108 C111 1.313 . S
C109 C110 1.338 . S
C109 N112 1.377 . S
C109 H129 0.930 . S
C110 N108 1.375 . S
C110 C109 1.338 . S
C110 H114 0.931 . S
C111 N108 1.313 . S
C111 N112 1.344 . S
C111 H115 0.930 . S
N112 C109 1.377 . S
N112 C111 1.344 . S
O113 Co105 2.055 . S
O113 C117 1.253 . S
H114 C110 0.931 . S
H115 C111 0.930 . S
O116 Co105 2.039 1_565 S
O116 C106 1.265 . S
C117 O113 1.253 . S
C117 O118 1.227 . S
O118 C117 1.227 . S
N119 Co105 2.140 . S
N119 C122 1.346 1_545 S
N119 C123 1.345 . S
C120 C121 1.387 1_545 S
C120 C124 1.391 . S
C121 C120 1.387 1_565 S
C121 C122 1.369 . S
C121 H130 0.929 . S
C122 N119 1.346 1_565 S
C122 C121 1.369 . S
C122 H125 0.928 . S
C123 N119 1.345 . S
C123 C124 1.371 . S
C123 H126 0.931 . S
C124 C120 1.391 . S
C124 C123 1.371 . S
C124 H131 0.930 . S
H125 C122 0.928 . S
H126 C123 0.931 . S
H127 C103 0.930 . S
H128 C100 0.930 . S
H129 C109 0.930 . S
H130 C121 0.929 . S
H131 C124 0.930 . S
C132 C133 1.351 . S
C132 N135 1.368 . S
C132 H137 0.931 . S
C133 C132 1.351 . S
C133 N134 1.373 . S
C133 H161 0.930 . S
N134 C133 1.373 . S
N134 C136 1.340 . S
N135 C132 1.368 . S
N135 C136 1.321 . S
N135 Co138 2.135 . S
C136 N134 1.340 . S
C136 N135 1.321 . S
C136 H160 0.930 . S
H137 C132 0.931 . S
Co138 N135 2.135 . S
Co138 N141 2.121 1_455 S
Co138 O146 2.055 1_455 S
Co138 O149 2.039 . S
Co138 N152 2.140 . S
C139 O140 1.227 . S
C139 O149 1.265 . S
O140 C139 1.227 . S
N141 Co138 2.121 1_655 S
N141 C143 1.375 . S
N141 C144 1.313 . S
C142 C143 1.338 . S
C142 N145 1.377 . S
C142 H162 0.930 . S
C143 N141 1.375 . S
C143 C142 1.338 . S
C143 H147 0.931 1_655 S
C144 N141 1.313 . S
C144 N145 1.344 . S
C144 H148 0.930 . S
N145 C142 1.377 . S
N145 C144 1.344 . S
O146 Co138 2.055 1_655 S
O146 C150 1.253 . S
H147 C143 0.931 1_455 S
H148 C144 0.930 . S
O149 Co138 2.039 . S
O149 C139 1.265 . S
C150 O146 1.253 . S
C150 O151 1.227 . S
O151 C150 1.227 . S
N152 Co138 2.140 . S
N152 C155 1.346 . S
N152 C156 1.345 1_455 S
C153 C154 1.387 . S
C153 C157 1.391 1_455 S
C154 C153 1.387 . S
C154 C155 1.369 . S
C154 H163 0.929 . S
C155 N152 1.346 . S
C155 C154 1.369 . S
C155 H158 0.928 . S
C156 N152 1.345 1_655 S
C156 C157 1.371 . S
C156 H159 0.931 . S
C157 C153 1.391 1_655 S
C157 C156 1.371 . S
C157 H164 0.930 . S
H158 C155 0.928 . S
H159 C156 0.931 . S
H160 C136 0.930 . S
H161 C133 0.930 . S
H162 C142 0.930 . S
H163 C154 0.929 . S
H164 C157 0.930 . S
C165 C166 1.351 . S
C165 N168 1.368 . S
C165 H170 0.931 1_565 S
C166 C165 1.351 . S
C166 N167 1.373 . S
C166 H194 0.930 . S
N167 C166 1.373 . S
N167 C169 1.340 . S
N168 C165 1.368 . S
N168 C169 1.321 . S
N168 Co171 2.135 1_565 S
C169 N167 1.340 . S
C169 N168 1.321 . S
C169 H193 0.930 . S
H170 C165 0.931 1_545 S
Co171 N168 2.135 1_545 S
Co171 N174 2.121 . S
Co171 O179 2.055 . S
Co171 O182 2.039 1_545 S
Co171 N185 2.140 . S
C172 O173 1.227 . S
C172 O182 1.265 . S
O173 C172 1.227 . S
N174 Co171 2.121 . S
N174 C176 1.375 . S
N174 C177 1.313 . S
C175 C176 1.338 . S
C175 N178 1.377 . S
C175 H195 0.930 . S
C176 N174 1.375 . S
C176 C175 1.338 . S
C176 H180 0.931 . S
C177 N174 1.313 . S
C177 N178 1.344 . S
C177 H181 0.930 . S
N178 C175 1.377 . S
N178 C177 1.344 . S
O179 Co171 2.055 . S
O179 C183 1.253 . S
H180 C176 0.931 . S
H181 C177 0.930 . S
O182 Co171 2.039 1_565 S
O182 C172 1.265 . S
C183 O179 1.253 . S
C183 O184 1.227 . S
O184 C183 1.227 . S
N185 Co171 2.140 . S
N185 C188 1.346 1_545 S
N185 C189 1.345 . S
C186 C187 1.387 1_545 S
C186 C190 1.391 . S
C187 C186 1.387 1_565 S
C187 C188 1.369 . S
C187 H196 0.929 . S
C188 N185 1.346 1_565 S
C188 C187 1.369 . S
C188 H191 0.928 . S
C189 N185 1.345 . S
C189 C190 1.371 . S
C189 H192 0.931 . S
C190 C186 1.391 . S
C190 C189 1.371 . S
C190 H197 0.930 . S
H191 C188 0.928 . S
H192 C189 0.931 . S
H193 C169 0.930 . S
H194 C166 0.930 . S
H195 C175 0.930 . S
H196 C187 0.929 . S
H197 C190 0.930 . S
C198 C199 1.351 . S
C198 N201 1.368 . S
C198 H203 0.931 1_655 S
C199 C198 1.351 . S
C199 N200 1.373 . S
C199 H227 0.930 . S
N200 C199 1.373 . S
N200 C202 1.340 . S
N201 C198 1.368 . S
N201 C202 1.321 . S
N201 Co204 2.135 1_655 S
C202 N200 1.340 . S
C202 N201 1.321 . S
C202 H226 0.930 . S
H203 C198 0.931 1_455 S
Co204 N201 2.135 1_455 S
Co204 N207 2.121 . S
Co204 O212 2.055 . S
Co204 O215 2.039 1_455 S
Co204 N218 2.140 . S
C205 O206 1.227 . S
C205 O215 1.265 . S
O206 C205 1.227 . S
N207 Co204 2.121 . S
N207 C209 1.375 . S
N207 C210 1.313 . S
C208 C209 1.338 . S
C208 N211 1.377 . S
C208 H228 0.930 . S
C209 N207 1.375 . S
C209 C208 1.338 . S
C209 H213 0.931 . S
C210 N207 1.313 . S
C210 N211 1.344 . S
C210 H214 0.930 . S
N211 C208 1.377 . S
N211 C210 1.344 . S
O212 Co204 2.055 . S
O212 C216 1.253 . S
H213 C209 0.931 . S
H214 C210 0.930 . S
O215 Co204 2.039 1_655 S
O215 C205 1.265 . S
C216 O212 1.253 . S
C216 O217 1.227 . S
O217 C216 1.227 . S
N218 Co204 2.140 . S
N218 C221 1.346 1_455 S
N218 C222 1.345 . S
C219 C220 1.380 1_455 S
C219 C223 1.399 . S
C220 C219 1.380 1_655 S
C220 C221 1.369 . S
C220 H229 0.929 . S
C221 N218 1.346 1_655 S
C221 C220 1.369 . S
C221 H224 0.928 . S
C222 N218 1.345 . S
C222 C223 1.371 . S
C222 H225 0.931 . S
C223 C219 1.399 . S
C223 C222 1.371 . S
C223 H230 0.930 . S
H224 C221 0.928 . S
H225 C222 0.931 . S
H226 C202 0.930 . S
H227 C199 0.930 . S
H228 C208 0.930 . S
H229 C220 0.929 . S
H230 C223 0.930 . S
C231 C232 1.351 . S
C231 N234 1.368 . S
C231 H236 0.931 . S
C232 C231 1.351 . S
C232 N233 1.373 . S
C232 H260 0.930 . S
N233 C232 1.373 . S
N233 C235 1.340 . S
N234 C231 1.368 . S
N234 C235 1.321 . S
N234 Co237 2.135 . S
C235 N233 1.340 . S
C235 N234 1.321 . S
C235 H259 0.930 . S
H236 C231 0.931 . S
Co237 N234 2.135 . S
Co237 N240 2.121 1_545 S
Co237 O245 2.055 1_545 S
Co237 O248 2.039 . S
Co237 N251 2.140 . S
C238 O239 1.227 . S
C238 O248 1.265 . S
O239 C238 1.227 . S
N240 Co237 2.121 1_565 S
N240 C242 1.375 . S
N240 C243 1.313 . S
C241 C242 1.338 . S
C241 N244 1.377 . S
C241 H261 0.930 . S
C242 N240 1.375 . S
C242 C241 1.338 . S
C242 H246 0.931 1_565 S
C243 N240 1.313 . S
C243 N244 1.344 . S
C243 H247 0.930 . S
N244 C241 1.377 . S
N244 C243 1.344 . S
O245 Co237 2.055 1_565 S
O245 C249 1.253 . S
H246 C242 0.931 1_545 S
H247 C243 0.930 . S
O248 Co237 2.039 . S
O248 C238 1.265 . S
C249 O245 1.253 . S
C249 O250 1.227 . S
O250 C249 1.227 . S
N251 Co237 2.140 . S
N251 C254 1.346 . S
N251 C255 1.345 1_545 S
C252 C253 1.387 . S
C252 C256 1.391 1_545 S
C253 C252 1.387 . S
C253 C254 1.369 . S
C253 H262 0.929 . S
C254 N251 1.346 . S
C254 C253 1.369 . S
C254 H257 0.928 . S
C255 N251 1.345 1_565 S
C255 C256 1.371 . S
C255 H258 0.931 . S
C256 C252 1.391 1_565 S
C256 C255 1.371 . S
C256 H263 0.930 . S
H257 C254 0.928 . S
H258 C255 0.931 . S
H259 C235 0.930 . S
H260 C232 0.930 . S
H261 C241 0.930 . S
H262 C253 0.929 . S
H263 C256 0.930 . S
C264 C265 1.351 . S
C264 N267 1.368 . S
C264 H269 0.931 1_556 S
C265 C264 1.351 . S
C265 N266 1.373 . S
C265 H293 0.930 . S
N266 C265 1.373 . S
N266 C268 1.340 . S
N267 C264 1.368 . S
N267 C268 1.321 . S
N267 Co270 2.135 1_556 S
C268 N266 1.340 . S
C268 N267 1.321 . S
C268 H292 0.930 . S
H269 C264 0.931 1_554 S
Co270 N267 2.135 1_554 S
Co270 N273 2.121 . S
Co270 O278 2.055 . S
Co270 O281 2.039 1_554 S
Co270 N284 2.140 . S
C271 O272 1.227 . S
C271 O281 1.265 . S
O272 C271 1.227 . S
N273 Co270 2.121 . S
N273 C275 1.375 . S
N273 C276 1.313 . S
C274 C275 1.338 . S
C274 N277 1.377 . S
C274 H294 0.930 . S
C275 N273 1.375 . S
C275 C274 1.338 . S
C275 H279 0.931 . S
C276 N273 1.313 . S
C276 N277 1.344 . S
C276 H280 0.930 . S
N277 C274 1.377 . S
N277 C276 1.344 . S
O278 Co270 2.055 . S
O278 C282 1.253 . S
H279 C275 0.931 . S
H280 C276 0.930 . S
O281 Co270 2.039 1_556 S
O281 C271 1.265 . S
C282 O278 1.253 . S
C282 O283 1.227 . S
O283 C282 1.227 . S
N284 Co270 2.140 . S
N284 C287 1.346 1_554 S
N284 C288 1.345 . S
C285 C286 1.387 1_554 S
C285 C289 1.391 . S
C286 C285 1.387 1_556 S
C286 C287 1.369 . S
C286 H295 0.929 . S
C287 N284 1.346 1_556 S
C287 C286 1.369 . S
C287 H290 0.928 . S
C288 N284 1.345 . S
C288 C289 1.371 . S
C288 H291 0.931 . S
C289 C285 1.391 . S
C289 C288 1.371 . S
C289 H296 0.930 . S
H290 C287 0.928 . S
H291 C288 0.931 . S
H292 C268 0.930 . S
H293 C265 0.930 . S
H294 C274 0.930 . S
H295 C286 0.929 . S
H296 C289 0.930 . S
C297 C298 1.351 . S
C297 N300 1.368 . S
C297 H302 0.931 . S
C298 C297 1.351 . S
C298 N299 1.373 . S
C298 H326 0.930 . S
N299 C298 1.373 . S
N299 C301 1.340 . S
N300 C297 1.368 . S
N300 C301 1.321 . S
N300 Co303 2.135 . S
C301 N299 1.340 . S
C301 N300 1.321 . S
C301 H325 0.930 . S
H302 C297 0.931 . S
Co303 N300 2.135 . S
Co303 N306 2.121 1_554 S
Co303 O311 2.055 1_554 S
Co303 O314 2.039 . S
Co303 N317 2.140 . S
C304 O305 1.227 . S
C304 O314 1.265 . S
O305 C304 1.227 . S
N306 Co303 2.121 1_556 S
N306 C308 1.375 . S
N306 C309 1.313 . S
C307 C308 1.338 . S
C307 N310 1.377 . S
C307 H327 0.930 . S
C308 N306 1.375 . S
C308 C307 1.338 . S
C308 H312 0.931 1_556 S
C309 N306 1.313 . S
C309 N310 1.344 . S
C309 H313 0.930 . S
N310 C307 1.377 . S
N310 C309 1.344 . S
O311 Co303 2.055 1_556 S
O311 C315 1.253 . S
H312 C308 0.931 1_554 S
H313 C309 0.930 . S
O314 Co303 2.039 . S
O314 C304 1.265 . S
C315 O311 1.253 . S
C315 O316 1.227 . S
O316 C315 1.227 . S
N317 Co303 2.140 . S
N317 C320 1.346 . S
N317 C321 1.345 1_554 S
C318 C319 1.387 . S
C318 C322 1.391 1_554 S
C319 C318 1.387 . S
C319 C320 1.369 . S
C319 H328 0.929 . S
C320 N317 1.346 . S
C320 C319 1.369 . S
C320 H323 0.928 . S
C321 N317 1.345 1_556 S
C321 C322 1.371 . S
C321 H324 0.931 . S
C322 C318 1.391 1_556 S
C322 C321 1.371 . S
C322 H329 0.930 . S
H323 C320 0.928 . S
H324 C321 0.931 . S
H325 C301 0.930 . S
H326 C298 0.930 . S
H327 C307 0.930 . S
H328 C319 0.929 . S
H329 C322 0.930 . S
C330 C331 1.351 . S
C330 N333 1.368 . S
C330 H335 0.931 1_556 S
C331 C330 1.351 . S
C331 N332 1.373 . S
C331 H359 0.930 . S
N332 C331 1.373 . S
N332 C334 1.340 . S
N333 C330 1.368 . S
N333 C334 1.321 . S
N333 Co336 2.135 1_556 S
C334 N332 1.340 . S
C334 N333 1.321 . S
C334 H358 0.930 . S
H335 C330 0.931 1_554 S
Co336 N333 2.135 1_554 S
Co336 N339 2.121 . S
Co336 O344 2.055 . S
Co336 O347 2.039 1_554 S
Co336 N350 2.140 . S
C337 O338 1.227 . S
C337 O347 1.265 . S
O338 C337 1.227 . S
N339 Co336 2.121 . S
N339 C341 1.375 . S
N339 C342 1.313 . S
C340 C341 1.338 . S
C340 N343 1.377 . S
C340 H360 0.930 . S
C341 N339 1.375 . S
C341 C340 1.338 . S
C341 H345 0.931 . S
C342 N339 1.313 . S
C342 N343 1.344 . S
C342 H346 0.930 . S
N343 C340 1.377 . S
N343 C342 1.344 . S
O344 Co336 2.055 . S
O344 C348 1.253 . S
H345 C341 0.931 . S
H346 C342 0.930 . S
O347 Co336 2.039 1_556 S
O347 C337 1.265 . S
C348 O344 1.253 . S
C348 O349 1.227 . S
O349 C348 1.227 . S
N350 Co336 2.140 . S
N350 C353 1.346 1_554 S
N350 C354 1.345 . S
C351 C352 1.387 1_554 S
C351 C355 1.391 . S
C352 C351 1.387 1_556 S
C352 C353 1.369 . S
C352 H361 0.929 . S
C353 N350 1.346 1_556 S
C353 C352 1.369 . S
C353 H356 0.928 . S
C354 N350 1.345 . S
C354 C355 1.371 . S
C354 H357 0.931 . S
C355 C351 1.391 . S
C355 C354 1.371 . S
C355 H362 0.930 . S
H356 C353 0.928 . S
H357 C354 0.931 . S
H358 C334 0.930 . S
H359 C331 0.930 . S
H360 C340 0.930 . S
H361 C352 0.929 . S
H362 C355 0.930 . S
C363 C364 1.351 . S
C363 N366 1.368 . S
C363 H368 0.931 1_556 S
C364 C363 1.351 . S
C364 N365 1.373 . S
C364 H392 0.930 . S
N365 C364 1.373 . S
N365 C367 1.340 . S
N366 C363 1.368 . S
N366 C367 1.321 . S
N366 Co369 2.135 1_556 S
C367 N365 1.340 . S
C367 N366 1.321 . S
C367 H391 0.930 . S
H368 C363 0.931 1_554 S
Co369 N366 2.135 1_554 S
Co369 N372 2.121 . S
Co369 O377 2.055 . S
Co369 O380 2.039 1_554 S
Co369 N383 2.140 . S
C370 O371 1.227 . S
C370 O380 1.265 . S
O371 C370 1.227 . S
N372 Co369 2.121 . S
N372 C374 1.375 . S
N372 C375 1.313 . S
C373 C374 1.338 . S
C373 N376 1.377 . S
C373 H393 0.930 . S
C374 N372 1.375 . S
C374 C373 1.338 . S
C374 H378 0.931 . S
C375 N372 1.313 . S
C375 N376 1.344 . S
C375 H379 0.930 . S
N376 C373 1.377 . S
N376 C375 1.344 . S
O377 Co369 2.055 . S
O377 C381 1.253 . S
H378 C374 0.931 . S
H379 C375 0.930 . S
O380 Co369 2.039 1_556 S
O380 C370 1.265 . S
C381 O377 1.253 . S
C381 O382 1.227 . S
O382 C381 1.227 . S
N383 Co369 2.140 . S
N383 C386 1.346 1_554 S
N383 C387 1.345 . S
C384 C385 1.387 1_554 S
C384 C388 1.391 . S
C385 C384 1.387 1_556 S
C385 C386 1.369 . S
C385 H394 0.929 . S
C386 N383 1.346 1_556 S
C386 C385 1.369 . S
C386 H389 0.928 . S
C387 N383 1.345 . S
C387 C388 1.371 . S
C387 H390 0.931 . S
C388 C384 1.391 . S
C388 C387 1.371 . S
C388 H395 0.930 . S
H389 C386 0.928 . S
H390 C387 0.931 . S
H391 C367 0.930 . S
H392 C364 0.930 . S
H393 C373 0.930 . S
H394 C385 0.929 . S
H395 C388 0.930 . S
C396 C397 1.351 . S
C396 N399 1.368 . S
C396 H401 0.931 1_655 S
C397 C396 1.351 . S
C397 N398 1.373 . S
C397 H425 0.930 . S
N398 C397 1.373 . S
N398 C400 1.340 . S
N399 C396 1.368 . S
N399 C400 1.321 . S
N399 Co402 2.135 1_655 S
C400 N398 1.340 . S
C400 N399 1.321 . S
C400 H424 0.930 . S
H401 C396 0.931 1_455 S
Co402 N399 2.135 1_455 S
Co402 N405 2.121 . S
Co402 O410 2.055 . S
Co402 O413 2.039 1_455 S
Co402 N416 2.140 . S
C403 O404 1.227 . S
C403 O413 1.265 . S
O404 C403 1.227 . S
N405 Co402 2.121 . S
N405 C407 1.375 . S
N405 C408 1.313 . S
C406 C407 1.338 . S
C406 N409 1.377 . S
C406 H426 0.930 . S
C407 N405 1.375 . S
C407 C406 1.338 . S
C407 H411 0.931 . S
C408 N405 1.313 . S
C408 N409 1.344 . S
C408 H412 0.930 . S
N409 C406 1.377 . S
N409 C408 1.344 . S
O410 Co402 2.055 . S
O410 C414 1.253 . S
H411 C407 0.931 . S
H412 C408 0.930 . S
O413 Co402 2.039 1_655 S
O413 C403 1.265 . S
C414 O410 1.253 . S
C414 O415 1.227 . S
O415 C414 1.227 . S
N416 Co402 2.140 . S
N416 C419 1.346 1_455 S
N416 C420 1.345 . S
C417 C418 1.387 1_455 S
C417 C421 1.391 . S
C418 C417 1.387 1_655 S
C418 C419 1.369 . S
C418 H427 0.929 . S
C419 N416 1.346 1_655 S
C419 C418 1.369 . S
C419 H422 0.928 . S
C420 N416 1.345 . S
C420 C421 1.371 . S
C420 H423 0.931 . S
C421 C417 1.391 . S
C421 C420 1.371 . S
C421 H428 0.930 . S
H422 C419 0.928 . S
H423 C420 0.931 . S
H424 C400 0.930 . S
H425 C397 0.930 . S
H426 C406 0.930 . S
H427 C418 0.929 . S
H428 C421 0.930 . S
C429 C430 1.351 . S
C429 N432 1.368 . S
C429 H434 0.931 . S
C430 C429 1.351 . S
C430 N431 1.373 . S
C430 H458 0.930 . S
N431 C430 1.373 . S
N431 C433 1.340 . S
N432 C429 1.368 . S
N432 C433 1.321 . S
N432 Co435 2.135 . S
C433 N431 1.340 . S
C433 N432 1.321 . S
C433 H457 0.930 . S
H434 C429 0.931 . S
Co435 N432 2.135 . S
Co435 N438 2.121 . S
Co435 O443 2.055 . S
Co435 O446 2.039 . S
Co435 N449 2.140 . S
C436 O437 1.227 . S
C436 O446 1.265 . S
O437 C436 1.227 . S
N438 Co435 2.121 . S
N438 C440 1.375 . S
N438 C441 1.313 . S
C439 C440 1.338 . S
C439 N442 1.377 . S
C439 H459 0.930 . S
C440 N438 1.375 . S
C440 C439 1.338 . S
C440 H444 0.931 . S
C441 N438 1.313 . S
C441 N442 1.344 . S
C441 H445 0.930 . S
N442 C439 1.377 . S
N442 C441 1.344 . S
O443 Co435 2.055 . S
O443 C447 1.253 . S
H444 C440 0.931 . S
H445 C441 0.930 . S
O446 Co435 2.039 . S
O446 C436 1.265 . S
C447 O443 1.253 . S
C447 O448 1.227 . S
O448 C447 1.227 . S
N449 Co435 2.140 . S
N449 C452 1.346 . S
N449 C453 1.345 . S
C450 C451 1.387 . S
C450 C454 1.391 . S
C451 C450 1.387 . S
C451 C452 1.369 . S
C451 H460 0.929 . S
C452 N449 1.346 . S
C452 C451 1.369 . S
C452 H455 0.928 . S
C453 N449 1.345 . S
C453 C454 1.371 . S
C453 H456 0.931 . S
C454 C450 1.391 . S
C454 C453 1.371 . S
C454 H461 0.930 . S
H455 C452 0.928 . S
H456 C453 0.931 . S
H457 C433 0.930 . S
H458 C430 0.930 . S
H459 C439 0.930 . S
H460 C451 0.929 . S
H461 C454 0.930 . S
C462 C463 1.351 . S
C462 N465 1.368 . S
C462 H467 0.931 1_655 S
C463 C462 1.351 . S
C463 N464 1.373 . S
C463 H491 0.930 . S
N464 C463 1.373 . S
N464 C466 1.340 . S
N465 C462 1.368 . S
N465 C466 1.321 . S
N465 Co468 2.135 1_655 S
C466 N464 1.340 . S
C466 N465 1.321 . S
C466 H490 0.930 . S
H467 C462 0.931 1_455 S
Co468 N465 2.135 1_455 S
Co468 N471 2.121 . S
Co468 O476 2.055 . S
Co468 O479 2.039 1_455 S
Co468 N482 2.140 . S
C469 O470 1.227 . S
C469 O479 1.265 . S
O470 C469 1.227 . S
N471 Co468 2.121 . S
N471 C473 1.375 . S
N471 C474 1.313 . S
C472 C473 1.338 . S
C472 N475 1.377 . S
C472 H492 0.930 . S
C473 N471 1.375 . S
C473 C472 1.338 . S
C473 H477 0.931 . S
C474 N471 1.313 . S
C474 N475 1.344 . S
C474 H478 0.930 . S
N475 C472 1.377 . S
N475 C474 1.344 . S
O476 Co468 2.055 . S
O476 C480 1.253 . S
H477 C473 0.931 . S
H478 C474 0.930 . S
O479 Co468 2.039 1_655 S
O479 C469 1.265 . S
C480 O476 1.253 . S
C480 O481 1.227 . S
O481 C480 1.227 . S
N482 Co468 2.140 . S
N482 C485 1.346 1_455 S
N482 C486 1.345 . S
C483 C484 1.387 1_455 S
C483 C487 1.391 . S
C484 C483 1.387 1_655 S
C484 C485 1.369 . S
C484 H493 0.929 . S
C485 N482 1.346 1_655 S
C485 C484 1.369 . S
C485 H488 0.928 . S
C486 N482 1.345 . S
C486 C487 1.371 . S
C486 H489 0.931 . S
C487 C483 1.391 . S
C487 C486 1.371 . S
C487 H494 0.930 . S
H488 C485 0.928 . S
H489 C486 0.931 . S
H490 C466 0.930 . S
H491 C463 0.930 . S
H492 C472 0.930 . S
H493 C484 0.929 . S
H494 C487 0.930 . S
C495 C496 1.351 . S
C495 N498 1.368 . S
C495 H500 0.931 . S
C496 C495 1.351 . S
C496 N497 1.373 . S
C496 H524 0.930 . S
N497 C496 1.373 . S
N497 C499 1.340 . S
N498 C495 1.368 . S
N498 C499 1.321 . S
N498 Co501 2.135 . S
C499 N497 1.340 . S
C499 N498 1.321 . S
C499 H523 0.930 . S
H500 C495 0.931 . S
Co501 N498 2.135 . S
Co501 N504 2.121 . S
Co501 O509 2.055 . S
Co501 O512 2.039 . S
Co501 N515 2.140 . S
C502 O503 1.227 . S
C502 O512 1.265 . S
O503 C502 1.227 . S
N504 Co501 2.121 . S
N504 C506 1.375 . S
N504 C507 1.313 . S
C505 C506 1.338 . S
C505 N508 1.377 . S
C505 H525 0.930 . S
C506 N504 1.375 . S
C506 C505 1.338 . S
C506 H510 0.931 . S
C507 N504 1.313 . S
C507 N508 1.344 . S
C507 H511 0.930 . S
N508 C505 1.377 . S
N508 C507 1.344 . S
O509 Co501 2.055 . S
O509 C513 1.253 . S
H510 C506 0.931 . S
H511 C507 0.930 . S
O512 Co501 2.039 . S
O512 C502 1.265 . S
C513 O509 1.253 . S
C513 O514 1.227 . S
O514 C513 1.227 . S
N515 Co501 2.140 . S
N515 C518 1.346 . S
N515 C519 1.345 . S
C516 C517 1.387 . S
C516 C520 1.391 . S
C517 C516 1.387 . S
C517 C518 1.369 . S
C517 H526 0.929 . S
C518 N515 1.346 . S
C518 C517 1.369 . S
C518 H521 0.928 . S
C519 N515 1.345 . S
C519 C520 1.371 . S
C519 H522 0.931 . S
C520 C516 1.391 . S
C520 C519 1.371 . S
C520 H527 0.930 . S
H521 C518 0.928 . S
H522 C519 0.931 . S
H523 C499 0.930 . S
H524 C496 0.930 . S
H525 C505 0.930 . S
H526 C517 0.929 . S
H527 C520 0.930 . S
C528 C529 1.351 . S
C528 N531 1.368 . S
C528 H533 0.931 . S
C529 C528 1.351 . S
C529 N530 1.373 . S
C529 H557 0.930 . S
N530 C529 1.373 . S
N530 C532 1.340 . S
N531 C528 1.368 . S
N531 C532 1.321 . S
N531 Co534 2.135 . S
C532 N530 1.340 . S
C532 N531 1.321 . S
C532 H556 0.930 . S
H533 C528 0.931 . S
Co534 N531 2.135 . S
Co534 N537 2.121 1_455 S
Co534 O542 2.055 1_455 S
Co534 O545 2.039 . S
Co534 N548 2.140 . S
C535 O536 1.227 . S
C535 O545 1.265 . S
O536 C535 1.227 . S
N537 Co534 2.121 1_655 S
N537 C539 1.375 . S
N537 C540 1.313 . S
C538 C539 1.338 . S
C538 N541 1.377 . S
C538 H558 0.930 . S
C539 N537 1.375 . S
C539 C538 1.338 . S
C539 H543 0.931 1_655 S
C540 N537 1.313 . S
C540 N541 1.344 . S
C540 H544 0.930 . S
N541 C538 1.377 . S
N541 C540 1.344 . S
O542 Co534 2.055 1_655 S
O542 C546 1.253 . S
H543 C539 0.931 1_455 S
H544 C540 0.930 . S
O545 Co534 2.039 . S
O545 C535 1.265 . S
C546 O542 1.253 . S
C546 O547 1.227 . S
O547 C546 1.227 . S
N548 Co534 2.140 . S
N548 C551 1.346 . S
N548 C552 1.345 1_455 S
C549 C550 1.387 . S
C549 C553 1.391 1_455 S
C550 C549 1.387 . S
C550 C551 1.369 . S
C550 H559 0.929 . S
C551 N548 1.346 . S
C551 C550 1.369 . S
C551 H554 0.928 . S
C552 N548 1.345 1_655 S
C552 C553 1.371 . S
C552 H555 0.931 . S
C553 C549 1.391 1_655 S
C553 C552 1.371 . S
C553 H560 0.930 . S
H554 C551 0.928 . S
H555 C552 0.931 . S
H556 C532 0.930 . S
H557 C529 0.930 . S
H558 C538 0.930 . S
H559 C550 0.929 . S
H560 C553 0.930 . S
C561 C562 1.351 . S
C561 N564 1.368 . S
C561 H566 0.931 . S
C562 C561 1.351 . S
C562 N563 1.373 . S
C562 H590 0.930 . S
N563 C562 1.373 . S
N563 C565 1.340 . S
N564 C561 1.368 . S
N564 C565 1.321 . S
N564 Co567 2.135 . S
C565 N563 1.340 . S
C565 N564 1.321 . S
C565 H589 0.930 . S
H566 C561 0.931 . S
Co567 N564 2.135 . S
Co567 N570 2.121 . S
Co567 O575 2.055 . S
Co567 O578 2.039 . S
Co567 N581 2.140 . S
C568 O569 1.227 . S
C568 O578 1.265 . S
O569 C568 1.227 . S
N570 Co567 2.121 . S
N570 C572 1.375 . S
N570 C573 1.313 . S
C571 C572 1.338 . S
C571 N574 1.377 . S
C571 H591 0.930 . S
C572 N570 1.375 . S
C572 C571 1.338 . S
C572 H576 0.931 . S
C573 N570 1.313 . S
C573 N574 1.344 . S
C573 H577 0.930 . S
N574 C571 1.377 . S
N574 C573 1.344 . S
O575 Co567 2.055 . S
O575 C579 1.253 . S
H576 C572 0.931 . S
H577 C573 0.930 . S
O578 Co567 2.039 . S
O578 C568 1.265 . S
C579 O575 1.253 . S
C579 O580 1.227 . S
O580 C579 1.227 . S
N581 Co567 2.140 . S
N581 C584 1.346 . S
N581 C585 1.345 . S
C582 C583 1.387 . S
C582 C586 1.391 . S
C583 C582 1.387 . S
C583 C584 1.369 . S
C583 H592 0.929 . S
C584 N581 1.346 . S
C584 C583 1.369 . S
C584 H587 0.928 . S
C585 N581 1.345 . S
C585 C586 1.371 . S
C585 H588 0.931 . S
C586 C582 1.391 . S
C586 C585 1.371 . S
C586 H593 0.930 . S
H587 C584 0.928 . S
H588 C585 0.931 . S
H589 C565 0.930 . S
H590 C562 0.930 . S
H591 C571 0.930 . S
H592 C583 0.929 . S
H593 C586 0.930 . S
C594 C595 1.351 . S
C594 N597 1.368 . S
C594 H599 0.931 1_655 S
C595 C594 1.351 . S
C595 N596 1.373 . S
C595 H623 0.930 . S
N596 C595 1.373 . S
N596 C598 1.340 . S
N597 C594 1.368 . S
N597 C598 1.321 . S
N597 Co600 2.135 1_655 S
C598 N596 1.340 . S
C598 N597 1.321 . S
C598 H622 0.930 . S
H599 C594 0.931 1_455 S
Co600 N597 2.135 1_455 S
Co600 N603 2.121 . S
Co600 O608 2.055 . S
Co600 O611 2.039 1_455 S
Co600 N614 2.140 . S
C601 O602 1.227 . S
C601 O611 1.265 . S
O602 C601 1.227 . S
N603 Co600 2.121 . S
N603 C605 1.375 . S
N603 C606 1.313 . S
C604 C605 1.338 . S
C604 N607 1.377 . S
C604 H624 0.930 . S
C605 N603 1.375 . S
C605 C604 1.338 . S
C605 H609 0.931 . S
C606 N603 1.313 . S
C606 N607 1.344 . S
C606 H610 0.930 . S
N607 C604 1.377 . S
N607 C606 1.344 . S
O608 Co600 2.055 . S
O608 C612 1.253 . S
H609 C605 0.931 . S
H610 C606 0.930 . S
O611 Co600 2.039 1_655 S
O611 C601 1.265 . S
C612 O608 1.253 . S
C612 O613 1.227 . S
O613 C612 1.227 . S
N614 Co600 2.140 . S
N614 C617 1.346 1_455 S
N614 C618 1.345 . S
C615 C616 1.387 1_455 S
C615 C619 1.391 . S
C616 C615 1.387 1_655 S
C616 C617 1.369 . S
C616 H625 0.929 . S
C617 N614 1.346 1_655 S
C617 C616 1.369 . S
C617 H620 0.928 . S
C618 N614 1.345 . S
C618 C619 1.371 . S
C618 H621 0.931 . S
C619 C615 1.391 . S
C619 C618 1.371 . S
C619 H626 0.930 . S
H620 C617 0.928 . S
H621 C618 0.931 . S
H622 C598 0.930 . S
H623 C595 0.930 . S
H624 C604 0.930 . S
H625 C616 0.929 . S
H626 C619 0.930 . S
C627 C628 1.351 . S
C627 N630 1.368 . S
C627 H632 0.931 . S
C628 C627 1.351 . S
C628 N629 1.373 . S
C628 H656 0.930 . S
N629 C628 1.373 . S
N629 C631 1.340 . S
N630 C627 1.368 . S
N630 C631 1.321 . S
N630 Co633 2.135 . S
C631 N629 1.340 . S
C631 N630 1.321 . S
C631 H655 0.930 . S
H632 C627 0.931 . S
Co633 N630 2.135 . S
Co633 N636 2.121 . S
Co633 O641 2.055 . S
Co633 O644 2.039 . S
Co633 N647 2.140 . S
C634 O635 1.227 . S
C634 O644 1.265 . S
O635 C634 1.227 . S
N636 Co633 2.121 . S
N636 C638 1.375 . S
N636 C639 1.313 . S
C637 C638 1.338 . S
C637 N640 1.377 . S
C637 H657 0.930 . S
C638 N636 1.375 . S
C638 C637 1.338 . S
C638 H642 0.931 . S
C639 N636 1.313 . S
C639 N640 1.344 . S
C639 H643 0.930 . S
N640 C637 1.377 . S
N640 C639 1.344 . S
O641 Co633 2.055 . S
O641 C645 1.253 . S
H642 C638 0.931 . S
H643 C639 0.930 . S
O644 Co633 2.039 . S
O644 C634 1.265 . S
C645 O641 1.253 . S
C645 O646 1.227 . S
O646 C645 1.227 . S
N647 Co633 2.140 . S
N647 C650 1.346 . S
N647 C651 1.345 . S
C648 C649 1.387 . S
C648 C652 1.391 . S
C649 C648 1.387 . S
C649 C650 1.369 . S
C649 H658 0.929 . S
C650 N647 1.346 . S
C650 C649 1.369 . S
C650 H653 0.928 . S
C651 N647 1.345 . S
C651 C652 1.371 . S
C651 H654 0.931 . S
C652 C648 1.391 . S
C652 C651 1.371 . S
C652 H659 0.930 . S
H653 C650 0.928 . S
H654 C651 0.931 . S
H655 C631 0.930 . S
H656 C628 0.930 . S
H657 C637 0.930 . S
H658 C649 0.929 . S
H659 C652 0.930 . S
C660 C661 1.351 . S
C660 N663 1.368 . S
C660 H665 0.931 . S
C661 C660 1.351 . S
C661 N662 1.373 . S
C661 H689 0.930 . S
N662 C661 1.373 . S
N662 C664 1.340 . S
N663 C660 1.368 . S
N663 C664 1.321 . S
N663 Co666 2.135 . S
C664 N662 1.340 . S
C664 N663 1.321 . S
C664 H688 0.930 . S
H665 C660 0.931 . S
Co666 N663 2.135 . S
Co666 N669 2.121 . S
Co666 O674 2.055 . S
Co666 O677 2.039 . S
Co666 N680 2.140 . S
C667 O668 1.227 . S
C667 O677 1.265 . S
O668 C667 1.227 . S
N669 Co666 2.121 . S
N669 C671 1.375 . S
N669 C672 1.313 . S
C670 C671 1.338 . S
C670 N673 1.377 . S
C670 H690 0.930 . S
C671 N669 1.375 . S
C671 C670 1.338 . S
C671 H675 0.931 . S
C672 N669 1.313 . S
C672 N673 1.344 . S
C672 H676 0.930 . S
N673 C670 1.377 . S
N673 C672 1.344 . S
O674 Co666 2.055 . S
O674 C678 1.253 . S
H675 C671 0.931 . S
H676 C672 0.930 . S
O677 Co666 2.039 . S
O677 C667 1.265 . S
C678 O674 1.253 . S
C678 O679 1.227 . S
O679 C678 1.227 . S
N680 Co666 2.140 . S
N680 C683 1.346 . S
N680 C684 1.345 . S
C681 C682 1.387 . S
C681 C685 1.391 . S
C682 C681 1.387 . S
C682 C683 1.369 . S
C682 H691 0.929 . S
C683 N680 1.346 . S
C683 C682 1.369 . S
C683 H686 0.928 . S
C684 N680 1.345 . S
C684 C685 1.371 . S
C684 H687 0.931 . S
C685 C681 1.391 . S
C685 C684 1.371 . S
C685 H692 0.930 . S
H686 C683 0.928 . S
H687 C684 0.931 . S
H688 C664 0.930 . S
H689 C661 0.930 . S
H690 C670 0.930 . S
H691 C682 0.929 . S
H692 C685 0.930 . S
C693 C694 1.351 . S
C693 N696 1.368 . S
C693 H698 0.931 . S
C694 C693 1.351 . S
C694 N695 1.373 . S
C694 H722 0.930 . S
N695 C694 1.373 . S
N695 C697 1.340 . S
N696 C693 1.368 . S
N696 C697 1.321 . S
N696 Co699 2.135 . S
C697 N695 1.340 . S
C697 N696 1.321 . S
C697 H721 0.930 . S
H698 C693 0.931 . S
Co699 N696 2.135 . S
Co699 N702 2.121 . S
Co699 O707 2.055 . S
Co699 O710 2.039 . S
Co699 N713 2.140 . S
C700 O701 1.227 . S
C700 O710 1.265 . S
O701 C700 1.227 . S
N702 Co699 2.121 . S
N702 C704 1.375 . S
N702 C705 1.313 . S
C703 C704 1.338 . S
C703 N706 1.377 . S
C703 H723 0.930 . S
C704 N702 1.375 . S
C704 C703 1.338 . S
C704 H708 0.931 . S
C705 N702 1.313 . S
C705 N706 1.344 . S
C705 H709 0.930 . S
N706 C703 1.377 . S
N706 C705 1.344 . S
O707 Co699 2.055 . S
O707 C711 1.253 . S
H708 C704 0.931 . S
H709 C705 0.930 . S
O710 Co699 2.039 . S
O710 C700 1.265 . S
C711 O707 1.253 . S
C711 O712 1.227 . S
O712 C711 1.227 . S
N713 Co699 2.140 . S
N713 C716 1.346 . S
N713 C717 1.345 . S
C714 C715 1.387 . S
C714 C718 1.391 . S
C715 C714 1.387 . S
C715 C716 1.369 . S
C715 H724 0.929 . S
C716 N713 1.346 . S
C716 C715 1.369 . S
C716 H719 0.928 . S
C717 N713 1.345 . S
C717 C718 1.371 . S
C717 H720 0.931 . S
C718 C714 1.391 . S
C718 C717 1.371 . S
C718 H725 0.930 . S
H719 C716 0.928 . S
H720 C717 0.931 . S
H721 C697 0.930 . S
H722 C694 0.930 . S
H723 C703 0.930 . S
H724 C715 0.929 . S
H725 C718 0.930 . S
C726 C727 1.351 . S
C726 N729 1.368 . S
C726 H731 0.931 . S
C727 C726 1.351 . S
C727 N728 1.373 . S
C727 H755 0.930 . S
N728 C727 1.373 . S
N728 C730 1.340 . S
N729 C726 1.368 . S
N729 C730 1.321 . S
N729 Co732 2.135 . S
C730 N728 1.340 . S
C730 N729 1.321 . S
C730 H754 0.930 . S
H731 C726 0.931 . S
Co732 N729 2.135 . S
Co732 N735 2.121 . S
Co732 O740 2.055 . S
Co732 O743 2.039 . S
Co732 N746 2.140 . S
C733 O734 1.227 . S
C733 O743 1.265 . S
O734 C733 1.227 . S
N735 Co732 2.121 . S
N735 C737 1.375 . S
N735 C738 1.313 . S
C736 C737 1.338 . S
C736 N739 1.377 . S
C736 H756 0.930 . S
C737 N735 1.375 . S
C737 C736 1.338 . S
C737 H741 0.931 . S
C738 N735 1.313 . S
C738 N739 1.344 . S
C738 H742 0.930 . S
N739 C736 1.377 . S
N739 C738 1.344 . S
O740 Co732 2.055 . S
O740 C744 1.253 . S
H741 C737 0.931 . S
H742 C738 0.930 . S
O743 Co732 2.039 . S
O743 C733 1.265 . S
C744 O740 1.253 . S
C744 O745 1.227 . S
O745 C744 1.227 . S
N746 Co732 2.140 . S
N746 C749 1.346 . S
N746 C750 1.345 . S
C747 C748 1.387 . S
C747 C751 1.391 . S
C748 C747 1.387 . S
C748 C749 1.369 . S
C748 H757 0.929 . S
C749 N746 1.346 . S
C749 C748 1.369 . S
C749 H752 0.928 . S
C750 N746 1.345 . S
C750 C751 1.371 . S
C750 H753 0.931 . S
C751 C747 1.391 . S
C751 C750 1.371 . S
C751 H758 0.930 . S
H752 C749 0.928 . S
H753 C750 0.931 . S
H754 C730 0.930 . S
H755 C727 0.930 . S
H756 C736 0.930 . S
H757 C748 0.929 . S
H758 C751 0.930 . S
C759 C760 1.351 . S
C759 N762 1.368 . S
C759 H764 0.931 . S
C760 C759 1.351 . S
C760 N761 1.373 . S
C760 H788 0.930 . S
N761 C760 1.373 . S
N761 C763 1.340 . S
N762 C759 1.368 . S
N762 C763 1.321 . S
N762 Co765 2.135 . S
C763 N761 1.340 . S
C763 N762 1.321 . S
C763 H787 0.930 . S
H764 C759 0.931 . S
Co765 N762 2.135 . S
Co765 N768 2.121 . S
Co765 O773 2.055 . S
Co765 O776 2.039 . S
Co765 N779 2.140 . S
C766 O767 1.227 . S
C766 O776 1.265 . S
O767 C766 1.227 . S
N768 Co765 2.121 . S
N768 C770 1.375 . S
N768 C771 1.313 . S
C769 C770 1.338 . S
C769 N772 1.377 . S
C769 H789 0.930 . S
C770 N768 1.375 . S
C770 C769 1.338 . S
C770 H774 0.931 . S
C771 N768 1.313 . S
C771 N772 1.344 . S
C771 H775 0.930 . S
N772 C769 1.377 . S
N772 C771 1.344 . S
O773 Co765 2.055 . S
O773 C777 1.253 . S
H774 C770 0.931 . S
H775 C771 0.930 . S
O776 Co765 2.039 . S
O776 C766 1.265 . S
C777 O773 1.253 . S
C777 O778 1.227 . S
O778 C777 1.227 . S
N779 Co765 2.140 . S
N779 C782 1.346 . S
N779 C783 1.345 . S
C780 C781 1.387 . S
C780 C784 1.391 . S
C781 C780 1.387 . S
C781 C782 1.369 . S
C781 H790 0.929 . S
C782 N779 1.346 . S
C782 C781 1.369 . S
C782 H785 0.928 . S
C783 N779 1.345 . S
C783 C784 1.371 . S
C783 H786 0.931 . S
C784 C780 1.391 . S
C784 C783 1.371 . S
C784 H791 0.930 . S
H785 C782 0.928 . S
H786 C783 0.931 . S
H787 C763 0.930 . S
H788 C760 0.930 . S
H789 C769 0.930 . S
H790 C781 0.929 . S
H791 C784 0.930 . S
C792 C793 1.351 . S
C792 N795 1.368 . S
C792 H797 0.931 . S
C793 C792 1.351 . S
C793 N794 1.373 . S
C793 H821 0.930 . S
N794 C793 1.373 . S
N794 C796 1.340 . S
N795 C792 1.368 . S
N795 C796 1.321 . S
N795 Co798 2.135 . S
C796 N794 1.340 . S
C796 N795 1.321 . S
C796 H820 0.930 . S
H797 C792 0.931 . S
Co798 N795 2.135 . S
Co798 N801 2.121 . S
Co798 O806 2.055 . S
Co798 O809 2.039 . S
Co798 N812 2.140 . S
C799 O800 1.227 . S
C799 O809 1.265 . S
O800 C799 1.227 . S
N801 Co798 2.121 . S
N801 C803 1.375 . S
N801 C804 1.313 . S
C802 C803 1.338 . S
C802 N805 1.377 . S
C802 H822 0.930 . S
C803 N801 1.375 . S
C803 C802 1.338 . S
C803 H807 0.931 . S
C804 N801 1.313 . S
C804 N805 1.344 . S
C804 H808 0.930 . S
N805 C802 1.377 . S
N805 C804 1.344 . S
O806 Co798 2.055 . S
O806 C810 1.253 . S
H807 C803 0.931 . S
H808 C804 0.930 . S
O809 Co798 2.039 . S
O809 C799 1.265 . S
C810 O806 1.253 . S
C810 O811 1.227 . S
O811 C810 1.227 . S
N812 Co798 2.140 . S
N812 C815 1.346 . S
N812 C816 1.345 . S
C813 C814 1.387 . S
C813 C817 1.391 . S
C814 C813 1.387 . S
C814 C815 1.369 . S
C814 H823 0.929 . S
C815 N812 1.346 . S
C815 C814 1.369 . S
C815 H818 0.928 . S
C816 N812 1.345 . S
C816 C817 1.371 . S
C816 H819 0.931 . S
C817 C813 1.391 . S
C817 C816 1.371 . S
C817 H824 0.930 . S
H818 C815 0.928 . S
H819 C816 0.931 . S
H820 C796 0.930 . S
H821 C793 0.930 . S
H822 C802 0.930 . S
H823 C814 0.929 . S
H824 C817 0.930 . S
C825 C826 1.351 . S
C825 N828 1.368 . S
C825 H830 0.931 . S
C826 C825 1.351 . S
C826 N827 1.373 . S
C826 H854 0.930 . S
N827 C826 1.373 . S
N827 C829 1.340 . S
N828 C825 1.368 . S
N828 C829 1.321 . S
N828 Co831 2.135 . S
C829 N827 1.340 . S
C829 N828 1.321 . S
C829 H853 0.930 . S
H830 C825 0.931 . S
Co831 N828 2.135 . S
Co831 N834 2.121 1_545 S
Co831 O839 2.055 1_545 S
Co831 O842 2.039 . S
Co831 N845 2.140 . S
C832 O833 1.227 . S
C832 O842 1.265 . S
O833 C832 1.227 . S
N834 Co831 2.121 1_565 S
N834 C836 1.375 . S
N834 C837 1.313 . S
C835 C836 1.338 . S
C835 N838 1.377 . S
C835 H855 0.930 . S
C836 N834 1.375 . S
C836 C835 1.338 . S
C836 H840 0.931 1_565 S
C837 N834 1.313 . S
C837 N838 1.344 . S
C837 H841 0.930 . S
N838 C835 1.377 . S
N838 C837 1.344 . S
O839 Co831 2.055 1_565 S
O839 C843 1.253 . S
H840 C836 0.931 1_545 S
H841 C837 0.930 . S
O842 Co831 2.039 . S
O842 C832 1.265 . S
C843 O839 1.253 . S
C843 O844 1.227 . S
O844 C843 1.227 . S
N845 Co831 2.140 . S
N845 C848 1.346 . S
N845 C849 1.345 1_545 S
C846 C847 1.387 . S
C846 C850 1.391 1_545 S
C847 C846 1.387 . S
C847 C848 1.369 . S
C847 H856 0.929 . S
C848 N845 1.346 . S
C848 C847 1.369 . S
C848 H851 0.928 . S
C849 N845 1.345 1_565 S
C849 C850 1.371 . S
C849 H852 0.931 . S
C850 C846 1.391 1_565 S
C850 C849 1.371 . S
C850 H857 0.930 . S
H851 C848 0.928 . S
H852 C849 0.931 . S
H853 C829 0.930 . S
H854 C826 0.930 . S
H855 C835 0.930 . S
H856 C847 0.929 . S
H857 C850 0.930 . S
C858 C859 1.351 . S
C858 N861 1.368 . S
C858 H863 0.931 . S
C859 C858 1.351 . S
C859 N860 1.373 . S
C859 H887 0.930 . S
N860 C859 1.373 . S
N860 C862 1.340 . S
N861 C858 1.368 . S
N861 C862 1.321 . S
N861 Co864 2.135 . S
C862 N860 1.340 . S
C862 N861 1.321 . S
C862 H886 0.930 . S
H863 C858 0.931 . S
Co864 N861 2.135 . S
Co864 N867 2.121 . S
Co864 O872 2.055 . S
Co864 O875 2.039 . S
Co864 N878 2.140 . S
C865 O866 1.227 . S
C865 O875 1.265 . S
O866 C865 1.227 . S
N867 Co864 2.121 . S
N867 C869 1.375 . S
N867 C870 1.313 . S
C868 C869 1.338 . S
C868 N871 1.377 . S
C868 H888 0.930 . S
C869 N867 1.375 . S
C869 C868 1.338 . S
C869 H873 0.931 . S
C870 N867 1.313 . S
C870 N871 1.344 . S
C870 H874 0.930 . S
N871 C868 1.377 . S
N871 C870 1.344 . S
O872 Co864 2.055 . S
O872 C876 1.253 . S
H873 C869 0.931 . S
H874 C870 0.930 . S
O875 Co864 2.039 . S
O875 C865 1.265 . S
C876 O872 1.253 . S
C876 O877 1.227 . S
O877 C876 1.227 . S
N878 Co864 2.140 . S
N878 C881 1.346 . S
N878 C882 1.345 . S
C879 C880 1.387 . S
C879 C883 1.391 . S
C880 C879 1.387 . S
C880 C881 1.369 . S
C880 H889 0.929 . S
C881 N878 1.346 . S
C881 C880 1.369 . S
C881 H884 0.928 . S
C882 N878 1.345 . S
C882 C883 1.371 . S
C882 H885 0.931 . S
C883 C879 1.391 . S
C883 C882 1.371 . S
C883 H890 0.930 . S
H884 C881 0.928 . S
H885 C882 0.931 . S
H886 C862 0.930 . S
H887 C859 0.930 . S
H888 C868 0.930 . S
H889 C880 0.929 . S
H890 C883 0.930 . S
C891 C892 1.351 . S
C891 N894 1.368 . S
C891 H896 0.931 1_565 S
C892 C891 1.351 . S
C892 N893 1.373 . S
C892 H920 0.930 . S
N893 C892 1.373 . S
N893 C895 1.340 . S
N894 C891 1.368 . S
N894 C895 1.321 . S
N894 Co897 2.135 1_565 S
C895 N893 1.340 . S
C895 N894 1.321 . S
C895 H919 0.930 . S
H896 C891 0.931 1_545 S
Co897 N894 2.135 1_545 S
Co897 N900 2.121 . S
Co897 O905 2.055 . S
Co897 O908 2.039 1_545 S
Co897 N911 2.140 . S
C898 O899 1.227 . S
C898 O908 1.265 . S
O899 C898 1.227 . S
N900 Co897 2.121 . S
N900 C902 1.375 . S
N900 C903 1.313 . S
C901 C902 1.338 . S
C901 N904 1.377 . S
C901 H921 0.930 . S
C902 N900 1.375 . S
C902 C901 1.338 . S
C902 H906 0.931 . S
C903 N900 1.313 . S
C903 N904 1.344 . S
C903 H907 0.930 . S
N904 C901 1.377 . S
N904 C903 1.344 . S
O905 Co897 2.055 . S
O905 C909 1.253 . S
H906 C902 0.931 . S
H907 C903 0.930 . S
O908 Co897 2.039 1_565 S
O908 C898 1.265 . S
C909 O905 1.253 . S
C909 O910 1.227 . S
O910 C909 1.227 . S
N911 Co897 2.140 . S
N911 C914 1.346 1_545 S
N911 C915 1.345 . S
C912 C913 1.387 1_545 S
C912 C916 1.391 . S
C913 C912 1.387 1_565 S
C913 C914 1.369 . S
C913 H922 0.929 . S
C914 N911 1.346 1_565 S
C914 C913 1.369 . S
C914 H917 0.928 . S
C915 N911 1.345 . S
C915 C916 1.371 . S
C915 H918 0.931 . S
C916 C912 1.391 . S
C916 C915 1.371 . S
C916 H923 0.930 . S
H917 C914 0.928 . S
H918 C915 0.931 . S
H919 C895 0.930 . S
H920 C892 0.930 . S
H921 C901 0.930 . S
H922 C913 0.929 . S
H923 C916 0.930 . S
C924 C925 1.351 . S
C924 N927 1.368 . S
C924 H929 0.931 . S
C925 C924 1.351 . S
C925 N926 1.373 . S
C925 H953 0.930 . S
N926 C925 1.373 . S
N926 C928 1.340 . S
N927 C924 1.368 . S
N927 C928 1.321 . S
N927 Co930 2.135 . S
C928 N926 1.340 . S
C928 N927 1.321 . S
C928 H952 0.930 . S
H929 C924 0.931 . S
Co930 N927 2.135 . S
Co930 N933 2.121 . S
Co930 O938 2.055 . S
Co930 O941 2.039 . S
Co930 N944 2.140 . S
C931 O932 1.227 . S
C931 O941 1.265 . S
O932 C931 1.227 . S
N933 Co930 2.121 . S
N933 C935 1.375 . S
N933 C936 1.313 . S
C934 C935 1.338 . S
C934 N937 1.377 . S
C934 H954 0.930 . S
C935 N933 1.375 . S
C935 C934 1.338 . S
C935 H939 0.931 . S
C936 N933 1.313 . S
C936 N937 1.344 . S
C936 H940 0.930 . S
N937 C934 1.377 . S
N937 C936 1.344 . S
O938 Co930 2.055 . S
O938 C942 1.253 . S
H939 C935 0.931 . S
H940 C936 0.930 . S
O941 Co930 2.039 . S
O941 C931 1.265 . S
C942 O938 1.253 . S
C942 O943 1.227 . S
O943 C942 1.227 . S
N944 Co930 2.140 . S
N944 C947 1.346 . S
N944 C948 1.345 . S
C945 C946 1.387 . S
C945 C949 1.391 . S
C946 C945 1.387 . S
C946 C947 1.369 . S
C946 H955 0.929 . S
C947 N944 1.346 . S
C947 C946 1.369 . S
C947 H950 0.928 . S
C948 N944 1.345 . S
C948 C949 1.371 . S
C948 H951 0.931 . S
C949 C945 1.391 . S
C949 C948 1.371 . S
C949 H956 0.930 . S
H950 C947 0.928 . S
H951 C948 0.931 . S
H952 C928 0.930 . S
H953 C925 0.930 . S
H954 C934 0.930 . S
H955 C946 0.929 . S
H956 C949 0.930 . S
C957 C958 1.351 . S
C957 N960 1.368 . S
C957 H962 0.931 1_565 S
C958 C957 1.351 . S
C958 N959 1.373 . S
C958 H986 0.930 . S
N959 C958 1.373 . S
N959 C961 1.340 . S
N960 C957 1.368 . S
N960 C961 1.321 . S
N960 Co963 2.135 1_565 S
C961 N959 1.340 . S
C961 N960 1.321 . S
C961 H985 0.930 . S
H962 C957 0.931 1_545 S
Co963 N960 2.135 1_545 S
Co963 N966 2.121 . S
Co963 O971 2.055 . S
Co963 O974 2.039 1_545 S
Co963 N977 2.140 . S
C964 O965 1.227 . S
C964 O974 1.265 . S
O965 C964 1.227 . S
N966 Co963 2.121 . S
N966 C968 1.375 . S
N966 C969 1.313 . S
C967 C968 1.338 . S
C967 N970 1.377 . S
C967 H987 0.930 . S
C968 N966 1.375 . S
C968 C967 1.338 . S
C968 H972 0.931 . S
C969 N966 1.313 . S
C969 N970 1.344 . S
C969 H973 0.930 . S
N970 C967 1.377 . S
N970 C969 1.344 . S
O971 Co963 2.055 . S
O971 C975 1.253 . S
H972 C968 0.931 . S
H973 C969 0.930 . S
O974 Co963 2.039 1_565 S
O974 C964 1.265 . S
C975 O971 1.253 . S
C975 O976 1.227 . S
O976 C975 1.227 . S
N977 Co963 2.140 . S
N977 C980 1.346 1_545 S
N977 C981 1.345 . S
C978 C979 1.387 1_545 S
C978 C982 1.391 . S
C979 C978 1.387 1_565 S
C979 C980 1.369 . S
C979 H988 0.929 . S
C980 N977 1.346 1_565 S
C980 C979 1.369 . S
C980 H983 0.928 . S
C981 N977 1.345 . S
C981 C982 1.371 . S
C981 H984 0.931 . S
C982 C978 1.391 . S
C982 C981 1.371 . S
C982 H989 0.930 . S
H983 C980 0.928 . S
H984 C981 0.931 . S
H985 C961 0.930 . S
H986 C958 0.930 . S
H987 C967 0.930 . S
H988 C979 0.929 . S
H989 C982 0.930 . S
C990 C991 1.351 . S
C990 N993 1.368 . S
C990 H995 0.931 . S
C991 C990 1.351 . S
C991 N992 1.373 . S
C991 H1019 0.930 . S
N992 C991 1.373 . S
N992 C994 1.340 . S
N993 C990 1.368 . S
N993 C994 1.321 . S
N993 Co996 2.135 . S
C994 N992 1.340 . S
C994 N993 1.321 . S
C994 H1018 0.930 . S
H995 C990 0.931 . S
Co996 N993 2.135 . S
Co996 N999 2.121 . S
Co996 O1004 2.055 . S
Co996 O1007 2.039 . S
Co996 N1010 2.140 . S
C997 O998 1.227 . S
C997 O1007 1.265 . S
O998 C997 1.227 . S
N999 Co996 2.121 . S
N999 C1001 1.375 . S
N999 C1002 1.313 . S
C1000 C1001 1.338 . S
C1000 N1003 1.377 . S
C1000 H1020 0.930 . S
C1001 N999 1.375 . S
C1001 C1000 1.338 . S
C1001 H1005 0.931 . S
C1002 N999 1.313 . S
C1002 N1003 1.344 . S
C1002 H1006 0.930 . S
N1003 C1000 1.377 . S
N1003 C1002 1.344 . S
O1004 Co996 2.055 . S
O1004 C1008 1.253 . S
H1005 C1001 0.931 . S
H1006 C1002 0.930 . S
O1007 Co996 2.039 . S
O1007 C997 1.265 . S
C1008 O1004 1.253 . S
C1008 O1009 1.227 . S
O1009 C1008 1.227 . S
N1010 Co996 2.140 . S
N1010 C1013 1.346 . S
N1010 C1014 1.345 . S
C1011 C1012 1.387 . S
C1011 C1015 1.391 . S
C1012 C1011 1.387 . S
C1012 C1013 1.369 . S
C1012 H1021 0.929 . S
C1013 N1010 1.346 . S
C1013 C1012 1.369 . S
C1013 H1016 0.928 . S
C1014 N1010 1.345 . S
C1014 C1015 1.371 . S
C1014 H1017 0.931 . S
C1015 C1011 1.391 . S
C1015 C1014 1.371 . S
C1015 H1022 0.930 . S
H1016 C1013 0.928 . S
H1017 C1014 0.931 . S
H1018 C994 0.930 . S
H1019 C991 0.930 . S
H1020 C1000 0.930 . S
H1021 C1012 0.929 . S
H1022 C1015 0.930 . S
C1023 C1024 1.351 . S
C1023 N1026 1.368 . S
C1023 H1028 0.931 . S
C1024 C1023 1.351 . S
C1024 N1025 1.373 . S
C1024 H1052 0.930 . S
N1025 C1024 1.373 . S
N1025 C1027 1.340 . S
N1026 C1023 1.368 . S
N1026 C1027 1.321 . S
N1026 Co1029 2.135 . S
C1027 N1025 1.340 . S
C1027 N1026 1.321 . S
C1027 H1051 0.930 . S
H1028 C1023 0.931 . S
Co1029 N1026 2.135 . S
Co1029 N1032 2.121 1_545 S
Co1029 O1037 2.055 1_545 S
Co1029 O1040 2.039 . S
Co1029 N1043 2.140 . S
C1030 O1031 1.227 . S
C1030 O1040 1.265 . S
O1031 C1030 1.227 . S
N1032 Co1029 2.121 1_565 S
N1032 C1034 1.375 . S
N1032 C1035 1.313 . S
C1033 C1034 1.338 . S
C1033 N1036 1.377 . S
C1033 H1053 0.930 . S
C1034 N1032 1.375 . S
C1034 C1033 1.338 . S
C1034 H1038 0.900 1_565 S
C1035 N1032 1.313 . S
C1035 N1036 1.344 . S
C1035 H1039 0.930 . S
N1036 C1033 1.377 . S
N1036 C1035 1.344 . S
O1037 Co1029 2.055 1_565 S
O1037 C1041 1.253 . S
H1038 C1034 0.900 1_545 S
H1039 C1035 0.930 . S
O1040 Co1029 2.039 . S
O1040 C1030 1.265 . S
C1041 O1037 1.253 . S
C1041 O1042 1.227 . S
O1042 C1041 1.227 . S
N1043 Co1029 2.140 . S
N1043 C1046 1.346 . S
N1043 C1047 1.345 1_545 S
C1044 C1045 1.387 . S
C1044 C1048 1.391 1_545 S
C1045 C1044 1.387 . S
C1045 C1046 1.369 . S
C1045 H1054 0.929 . S
C1046 N1043 1.346 . S
C1046 C1045 1.369 . S
C1046 H1049 0.928 . S
C1047 N1043 1.345 1_565 S
C1047 C1048 1.371 . S
C1047 H1050 0.931 . S
C1048 C1044 1.391 1_565 S
C1048 C1047 1.371 . S
C1048 H1055 0.930 . S
H1049 C1046 0.928 . S
H1050 C1047 0.931 . S
H1051 C1027 0.930 . S
H1052 C1024 0.930 . S
H1053 C1033 0.930 . S
H1054 C1045 0.929 . S
H1055 C1048 0.930 . S
C1056 C1057 1.351 . S
C1056 N1059 1.368 . S
C1056 H1061 0.931 . S
C1057 C1056 1.351 . S
C1057 N1058 1.373 . S
C1057 H1085 0.930 . S
N1058 C1057 1.373 . S
N1058 C1060 1.340 . S
N1059 C1056 1.368 . S
N1059 C1060 1.321 . S
N1059 Co1062 2.135 . S
C1060 N1058 1.340 . S
C1060 N1059 1.321 . S
C1060 H1084 0.930 . S
H1061 C1056 0.931 . S
Co1062 N1059 2.135 . S
Co1062 N1065 2.121 . S
Co1062 O1070 2.055 . S
Co1062 O1073 2.039 . S
Co1062 N1076 2.140 . S
C1063 O1064 1.227 . S
C1063 O1073 1.265 . S
O1064 C1063 1.227 . S
N1065 Co1062 2.121 . S
N1065 C1067 1.375 . S
N1065 C1068 1.313 . S
C1066 C1067 1.338 . S
C1066 N1069 1.377 . S
C1066 H1086 0.930 . S
C1067 N1065 1.375 . S
C1067 C1066 1.338 . S
C1067 H1071 0.931 . S
C1068 N1065 1.313 . S
C1068 N1069 1.344 . S
C1068 H1072 0.930 . S
N1069 C1066 1.377 . S
N1069 C1068 1.344 . S
O1070 Co1062 2.055 . S
O1070 C1074 1.253 . S
H1071 C1067 0.931 . S
H1072 C1068 0.930 . S
O1073 Co1062 2.039 . S
O1073 C1063 1.265 . S
C1074 O1070 1.253 . S
C1074 O1075 1.227 . S
O1075 C1074 1.227 . S
N1076 Co1062 2.140 . S
N1076 C1079 1.346 . S
N1076 C1080 1.345 . S
C1077 C1078 1.387 . S
C1077 C1081 1.391 . S
C1078 C1077 1.387 . S
C1078 C1079 1.369 . S
C1078 H1087 0.929 . S
C1079 N1076 1.346 . S
C1079 C1078 1.369 . S
C1079 H1082 0.928 . S
C1080 N1076 1.345 . S
C1080 C1081 1.371 . S
C1080 H1083 0.931 . S
C1081 C1077 1.391 . S
C1081 C1080 1.371 . S
C1081 H1088 0.930 . S
H1082 C1079 0.928 . S
H1083 C1080 0.931 . S
H1084 C1060 0.930 . S
H1085 C1057 0.930 . S
H1086 C1066 0.930 . S
H1087 C1078 0.929 . S
H1088 C1081 0.930 . S
C1089 C1090 1.351 . S
C1089 N1092 1.368 . S
C1089 H1094 0.931 . S
C1090 C1089 1.351 . S
C1090 N1091 1.373 . S
C1090 H1118 0.930 . S
N1091 C1090 1.373 . S
N1091 C1093 1.340 . S
N1092 C1089 1.368 . S
N1092 C1093 1.321 . S
N1092 Co1095 2.135 . S
C1093 N1091 1.340 . S
C1093 N1092 1.321 . S
C1093 H1117 0.930 . S
H1094 C1089 0.931 . S
Co1095 N1092 2.135 . S
Co1095 N1098 2.121 . S
Co1095 O1103 2.055 . S
Co1095 O1106 2.039 . S
Co1095 N1109 2.140 . S
C1096 O1097 1.227 . S
C1096 O1106 1.265 . S
O1097 C1096 1.227 . S
N1098 Co1095 2.121 . S
N1098 C1100 1.375 . S
N1098 C1101 1.313 . S
C1099 C1100 1.338 . S
C1099 N1102 1.377 . S
C1099 H1119 0.930 . S
C1100 N1098 1.375 . S
C1100 C1099 1.338 . S
C1100 H1104 0.931 . S
C1101 N1098 1.313 . S
C1101 N1102 1.344 . S
C1101 H1105 0.930 . S
N1102 C1099 1.377 . S
N1102 C1101 1.344 . S
O1103 Co1095 2.055 . S
O1103 C1107 1.253 . S
H1104 C1100 0.931 . S
H1105 C1101 0.930 . S
O1106 Co1095 2.039 . S
O1106 C1096 1.265 . S
C1107 O1103 1.253 . S
C1107 O1108 1.227 . S
O1108 C1107 1.227 . S
N1109 Co1095 2.140 . S
N1109 C1112 1.346 . S
N1109 C1113 1.345 . S
C1110 C1111 1.387 . S
C1110 C1114 1.391 . S
C1111 C1110 1.387 . S
C1111 C1112 1.369 . S
C1111 H1120 0.929 . S
C1112 N1109 1.346 . S
C1112 C1111 1.369 . S
C1112 H1115 0.928 . S
C1113 N1109 1.345 . S
C1113 C1114 1.371 . S
C1113 H1116 0.931 . S
C1114 C1110 1.391 . S
C1114 C1113 1.371 . S
C1114 H1121 0.930 . S
H1115 C1112 0.928 . S
H1116 C1113 0.931 . S
H1117 C1093 0.930 . S
H1118 C1090 0.930 . S
H1119 C1099 0.930 . S
H1120 C1111 0.929 . S
H1121 C1114 0.930 . S
C1122 C1123 1.351 . S
C1122 N1125 1.368 . S
C1122 H1127 0.931 . S
C1123 C1122 1.351 . S
C1123 N1124 1.373 . S
C1123 H1151 0.930 . S
N1124 C1123 1.373 . S
N1124 C1126 1.340 . S
N1125 C1122 1.368 . S
N1125 C1126 1.321 . S
N1125 Co1128 2.135 . S
C1126 N1124 1.340 . S
C1126 N1125 1.321 . S
C1126 H1150 0.930 . S
H1127 C1122 0.931 . S
Co1128 N1125 2.135 . S
Co1128 N1131 2.121 . S
Co1128 O1136 2.055 . S
Co1128 O1139 2.039 . S
Co1128 N1142 2.140 . S
C1129 O1130 1.227 . S
C1129 O1139 1.265 . S
O1130 C1129 1.227 . S
N1131 Co1128 2.121 . S
N1131 C1133 1.375 . S
N1131 C1134 1.313 . S
C1132 C1133 1.338 . S
C1132 N1135 1.377 . S
C1132 H1152 0.930 . S
C1133 N1131 1.375 . S
C1133 C1132 1.338 . S
C1133 H1137 0.931 . S
C1134 N1131 1.313 . S
C1134 N1135 1.344 . S
C1134 H1138 0.930 . S
N1135 C1132 1.377 . S
N1135 C1134 1.344 . S
O1136 Co1128 2.055 . S
O1136 C1140 1.253 . S
H1137 C1133 0.931 . S
H1138 C1134 0.930 . S
O1139 Co1128 2.039 . S
O1139 C1129 1.265 . S
C1140 O1136 1.253 . S
C1140 O1141 1.227 . S
O1141 C1140 1.227 . S
N1142 Co1128 2.140 . S
N1142 C1145 1.346 . S
N1142 C1146 1.345 . S
C1143 C1144 1.387 . S
C1143 C1147 1.391 . S
C1144 C1143 1.387 . S
C1144 C1145 1.369 . S
C1144 H1153 0.929 . S
C1145 N1142 1.346 . S
C1145 C1144 1.369 . S
C1145 H1148 0.928 . S
C1146 N1142 1.345 . S
C1146 C1147 1.371 . S
C1146 H1149 0.931 . S
C1147 C1143 1.391 . S
C1147 C1146 1.371 . S
C1147 H1154 0.930 . S
H1148 C1145 0.928 . S
H1149 C1146 0.931 . S
H1150 C1126 0.930 . S
H1151 C1123 0.930 . S
H1152 C1132 0.930 . S
H1153 C1144 0.929 . S
H1154 C1147 0.930 . S
C1155 C1156 1.351 . S
C1155 N1158 1.368 . S
C1155 H1160 0.931 . S
C1156 C1155 1.351 . S
C1156 N1157 1.373 . S
C1156 H1184 0.930 . S
N1157 C1156 1.373 . S
N1157 C1159 1.340 . S
N1158 C1155 1.368 . S
N1158 C1159 1.321 . S
N1158 Co1161 2.135 . S
C1159 N1157 1.340 . S
C1159 N1158 1.321 . S
C1159 H1183 0.930 . S
H1160 C1155 0.931 . S
Co1161 N1158 2.135 . S
Co1161 N1164 2.121 . S
Co1161 O1169 2.055 . S
Co1161 O1172 2.039 . S
Co1161 N1175 2.140 . S
C1162 O1163 1.227 . S
C1162 O1172 1.265 . S
O1163 C1162 1.227 . S
N1164 Co1161 2.121 . S
N1164 C1166 1.375 . S
N1164 C1167 1.313 . S
C1165 C1166 1.338 . S
C1165 N1168 1.377 . S
C1165 H1185 0.930 . S
C1166 N1164 1.375 . S
C1166 C1165 1.338 . S
C1166 H1170 0.931 . S
C1167 N1164 1.313 . S
C1167 N1168 1.344 . S
C1167 H1171 0.930 . S
N1168 C1165 1.377 . S
N1168 C1167 1.344 . S
O1169 Co1161 2.055 . S
O1169 C1173 1.253 . S
H1170 C1166 0.931 . S
H1171 C1167 0.930 . S
O1172 Co1161 2.039 . S
O1172 C1162 1.265 . S
C1173 O1169 1.253 . S
C1173 O1174 1.227 . S
O1174 C1173 1.227 . S
N1175 Co1161 2.140 . S
N1175 C1178 1.346 . S
N1175 C1179 1.345 . S
C1176 C1177 1.387 . S
C1176 C1180 1.391 . S
C1177 C1176 1.387 . S
C1177 C1178 1.369 . S
C1177 H1186 0.929 . S
C1178 N1175 1.346 . S
C1178 C1177 1.369 . S
C1178 H1181 0.928 . S
C1179 N1175 1.345 . S
C1179 C1180 1.371 . S
C1179 H1182 0.931 . S
C1180 C1176 1.391 . S
C1180 C1179 1.371 . S
C1180 H1187 0.930 . S
H1181 C1178 0.928 . S
H1182 C1179 0.931 . S
H1183 C1159 0.930 . S
H1184 C1156 0.930 . S
H1185 C1165 0.930 . S
H1186 C1177 0.929 . S
H1187 C1180 0.930 . S
C1188 C1189 1.351 . S
C1188 N1191 1.368 . S
C1188 H1193 0.931 . S
C1189 C1188 1.351 . S
C1189 N1190 1.373 . S
C1189 H1217 0.930 . S
N1190 C1189 1.373 . S
N1190 C1192 1.340 . S
N1191 C1188 1.368 . S
N1191 C1192 1.321 . S
N1191 Co1194 2.135 . S
C1192 N1190 1.340 . S
C1192 N1191 1.321 . S
C1192 H1216 0.930 . S
H1193 C1188 0.931 . S
Co1194 N1191 2.135 . S
Co1194 N1197 2.121 . S
Co1194 O1202 2.055 . S
Co1194 O1205 2.039 . S
Co1194 N1208 2.140 . S
C1195 O1196 1.227 . S
C1195 O1205 1.265 . S
O1196 C1195 1.227 . S
N1197 Co1194 2.121 . S
N1197 C1199 1.375 . S
N1197 C1200 1.313 . S
C1198 C1199 1.338 . S
C1198 N1201 1.377 . S
C1198 H1218 0.930 . S
C1199 N1197 1.375 . S
C1199 C1198 1.338 . S
C1199 H1203 0.931 . S
C1200 N1197 1.313 . S
C1200 N1201 1.344 . S
C1200 H1204 0.930 . S
N1201 C1198 1.377 . S
N1201 C1200 1.344 . S
O1202 Co1194 2.055 . S
O1202 C1206 1.253 . S
H1203 C1199 0.931 . S
H1204 C1200 0.930 . S
O1205 Co1194 2.039 . S
O1205 C1195 1.265 . S
C1206 O1202 1.253 . S
C1206 O1207 1.227 . S
O1207 C1206 1.227 . S
N1208 Co1194 2.140 . S
N1208 C1211 1.346 . S
N1208 C1212 1.345 . S
C1209 C1210 1.387 . S
C1209 C1213 1.391 . S
C1210 C1209 1.387 . S
C1210 C1211 1.369 . S
C1210 H1219 0.929 . S
C1211 N1208 1.346 . S
C1211 C1210 1.369 . S
C1211 H1214 0.928 . S
C1212 N1208 1.345 . S
C1212 C1213 1.371 . S
C1212 H1215 0.931 . S
C1213 C1209 1.391 . S
C1213 C1212 1.371 . S
C1213 H1220 0.930 . S
H1214 C1211 0.928 . S
H1215 C1212 0.931 . S
H1216 C1192 0.930 . S
H1217 C1189 0.930 . S
H1218 C1198 0.930 . S
H1219 C1210 0.929 . S
H1220 C1213 0.930 . S
C1221 C1222 1.351 . S
C1221 N1224 1.368 . S
C1221 H1226 0.931 . S
C1222 C1221 1.351 . S
C1222 N1223 1.373 . S
C1222 H1250 0.930 . S
N1223 C1222 1.373 . S
N1223 C1225 1.340 . S
N1224 C1221 1.368 . S
N1224 C1225 1.321 . S
N1224 Co1227 2.135 . S
C1225 N1223 1.340 . S
C1225 N1224 1.321 . S
C1225 H1249 0.930 . S
H1226 C1221 0.931 . S
Co1227 N1224 2.135 . S
Co1227 N1230 2.121 . S
Co1227 O1235 2.055 . S
Co1227 O1238 2.039 . S
Co1227 N1241 2.140 . S
C1228 O1229 1.227 . S
C1228 O1238 1.265 . S
O1229 C1228 1.227 . S
N1230 Co1227 2.121 . S
N1230 C1232 1.375 . S
N1230 C1233 1.313 . S
C1231 C1232 1.338 . S
C1231 N1234 1.377 . S
C1231 H1251 0.930 . S
C1232 N1230 1.375 . S
C1232 C1231 1.338 . S
C1232 H1236 0.931 . S
C1233 N1230 1.313 . S
C1233 N1234 1.344 . S
C1233 H1237 0.930 . S
N1234 C1231 1.377 . S
N1234 C1233 1.344 . S
O1235 Co1227 2.055 . S
O1235 C1239 1.253 . S
H1236 C1232 0.931 . S
H1237 C1233 0.930 . S
O1238 Co1227 2.039 . S
O1238 C1228 1.265 . S
C1239 O1235 1.253 . S
C1239 O1240 1.227 . S
O1240 C1239 1.227 . S
N1241 Co1227 2.140 . S
N1241 C1244 1.346 . S
N1241 C1245 1.345 . S
C1242 C1243 1.387 . S
C1242 C1246 1.391 . S
C1243 C1242 1.387 . S
C1243 C1244 1.369 . S
C1243 H1252 0.929 . S
C1244 N1241 1.346 . S
C1244 C1243 1.369 . S
C1244 H1247 0.928 . S
C1245 N1241 1.345 . S
C1245 C1246 1.371 . S
C1245 H1248 0.931 . S
C1246 C1242 1.391 . S
C1246 C1245 1.371 . S
C1246 H1253 0.930 . S
H1247 C1244 0.928 . S
H1248 C1245 0.931 . S
H1249 C1225 0.930 . S
H1250 C1222 0.930 . S
H1251 C1231 0.930 . S
H1252 C1243 0.929 . S
H1253 C1246 0.930 . S
C1254 C1255 1.351 . S
C1254 N1257 1.368 . S
C1254 H1259 0.931 . S
C1255 C1254 1.351 . S
C1255 N1256 1.373 . S
C1255 H1283 0.930 . S
N1256 C1255 1.373 . S
N1256 C1258 1.340 . S
N1257 C1254 1.368 . S
N1257 C1258 1.321 . S
N1257 Co1260 2.135 . S
C1258 N1256 1.340 . S
C1258 N1257 1.321 . S
C1258 H1282 0.930 . S
H1259 C1254 0.931 . S
Co1260 N1257 2.135 . S
Co1260 N1263 2.121 . S
Co1260 O1268 2.055 . S
Co1260 O1271 2.039 . S
Co1260 N1274 2.140 . S
C1261 O1262 1.227 . S
C1261 O1271 1.265 . S
O1262 C1261 1.227 . S
N1263 Co1260 2.121 . S
N1263 C1265 1.375 . S
N1263 C1266 1.313 . S
C1264 C1265 1.338 . S
C1264 N1267 1.377 . S
C1264 H1284 0.930 . S
C1265 N1263 1.375 . S
C1265 C1264 1.338 . S
C1265 H1269 0.931 . S
C1266 N1263 1.313 . S
C1266 N1267 1.344 . S
C1266 H1270 0.930 . S
N1267 C1264 1.377 . S
N1267 C1266 1.344 . S
O1268 Co1260 2.055 . S
O1268 C1272 1.253 . S
H1269 C1265 0.931 . S
H1270 C1266 0.930 . S
O1271 Co1260 2.039 . S
O1271 C1261 1.265 . S
C1272 O1268 1.253 . S
C1272 O1273 1.227 . S
O1273 C1272 1.227 . S
N1274 Co1260 2.140 . S
N1274 C1277 1.346 . S
N1274 C1278 1.345 . S
C1275 C1276 1.387 . S
C1275 C1279 1.391 . S
C1276 C1275 1.387 . S
C1276 C1277 1.369 . S
C1276 H1285 0.929 . S
C1277 N1274 1.346 . S
C1277 C1276 1.369 . S
C1277 H1280 0.928 . S
C1278 N1274 1.345 . S
C1278 C1279 1.371 . S
C1278 H1281 0.931 . S
C1279 C1275 1.391 . S
C1279 C1278 1.371 . S
C1279 H1286 0.930 . S
H1280 C1277 0.928 . S
H1281 C1278 0.931 . S
H1282 C1258 0.930 . S
H1283 C1255 0.930 . S
H1284 C1264 0.930 . S
H1285 C1276 0.929 . S
H1286 C1279 0.930 . S
C1287 C1288 1.351 . S
C1287 N1290 1.368 . S
C1287 H1292 0.931 . S
C1288 C1287 1.351 . S
C1288 N1289 1.373 . S
C1288 H1316 0.930 . S
N1289 C1288 1.373 . S
N1289 C1291 1.340 . S
N1290 C1287 1.368 . S
N1290 C1291 1.321 . S
N1290 Co1293 2.135 . S
C1291 N1289 1.340 . S
C1291 N1290 1.321 . S
C1291 H1315 0.930 . S
H1292 C1287 0.931 . S
Co1293 N1290 2.135 . S
Co1293 N1296 2.121 . S
Co1293 O1301 2.055 . S
Co1293 O1304 2.039 . S
Co1293 N1307 2.140 . S
C1294 O1295 1.227 . S
C1294 O1304 1.265 . S
O1295 C1294 1.227 . S
N1296 Co1293 2.121 . S
N1296 C1298 1.375 . S
N1296 C1299 1.313 . S
C1297 C1298 1.338 . S
C1297 N1300 1.377 . S
C1297 H1317 0.930 . S
C1298 N1296 1.375 . S
C1298 C1297 1.338 . S
C1298 H1302 0.931 . S
C1299 N1296 1.313 . S
C1299 N1300 1.344 . S
C1299 H1303 0.930 . S
N1300 C1297 1.377 . S
N1300 C1299 1.344 . S
O1301 Co1293 2.055 . S
O1301 C1305 1.253 . S
H1302 C1298 0.931 . S
H1303 C1299 0.930 . S
O1304 Co1293 2.039 . S
O1304 C1294 1.265 . S
C1305 O1301 1.253 . S
C1305 O1306 1.227 . S
O1306 C1305 1.227 . S
N1307 Co1293 2.140 . S
N1307 C1310 1.346 . S
N1307 C1311 1.345 . S
C1308 C1309 1.387 . S
C1308 C1312 1.391 . S
C1309 C1308 1.387 . S
C1309 C1310 1.369 . S
C1309 H1318 0.929 . S
C1310 N1307 1.346 . S
C1310 C1309 1.369 . S
C1310 H1313 0.928 . S
C1311 N1307 1.345 . S
C1311 C1312 1.371 . S
C1311 H1314 0.931 . S
C1312 C1308 1.391 . S
C1312 C1311 1.371 . S
C1312 H1319 0.930 . S
H1313 C1310 0.928 . S
H1314 C1311 0.931 . S
H1315 C1291 0.930 . S
H1316 C1288 0.930 . S
H1317 C1297 0.930 . S
H1318 C1309 0.929 . S
H1319 C1312 0.930 . S
C1320 C1321 1.351 . S
C1320 N1323 1.368 . S
C1320 H1325 0.931 . S
C1321 C1320 1.351 . S
C1321 N1322 1.373 . S
C1321 H1349 0.930 . S
N1322 C1321 1.373 . S
N1322 C1324 1.340 . S
N1323 C1320 1.368 . S
N1323 C1324 1.321 . S
N1323 Co1326 2.135 . S
C1324 N1322 1.340 . S
C1324 N1323 1.321 . S
C1324 H1348 0.930 . S
H1325 C1320 0.931 . S
Co1326 N1323 2.135 . S
Co1326 N1329 2.121 . S
Co1326 O1334 2.055 . S
Co1326 O1337 2.039 . S
Co1326 N1340 2.140 . S
C1327 O1328 1.227 . S
C1327 O1337 1.265 . S
O1328 C1327 1.227 . S
N1329 Co1326 2.121 . S
N1329 C1331 1.375 . S
N1329 C1332 1.313 . S
C1330 C1331 1.338 . S
C1330 N1333 1.377 . S
C1330 H1350 0.930 . S
C1331 N1329 1.375 . S
C1331 C1330 1.338 . S
C1331 H1335 0.931 . S
C1332 N1329 1.313 . S
C1332 N1333 1.344 . S
C1332 H1336 0.930 . S
N1333 C1330 1.377 . S
N1333 C1332 1.344 . S
O1334 Co1326 2.055 . S
O1334 C1338 1.253 . S
H1335 C1331 0.931 . S
H1336 C1332 0.930 . S
O1337 Co1326 2.039 . S
O1337 C1327 1.265 . S
C1338 O1334 1.253 . S
C1338 O1339 1.227 . S
O1339 C1338 1.227 . S
N1340 Co1326 2.140 . S
N1340 C1343 1.346 . S
N1340 C1344 1.345 . S
C1341 C1342 1.387 . S
C1341 C1345 1.391 . S
C1342 C1341 1.387 . S
C1342 C1343 1.369 . S
C1342 H1351 0.929 . S
C1343 N1340 1.346 . S
C1343 C1342 1.369 . S
C1343 H1346 0.928 . S
C1344 N1340 1.345 . S
C1344 C1345 1.371 . S
C1344 H1347 0.931 . S
C1345 C1341 1.391 . S
C1345 C1344 1.371 . S
C1345 H1352 0.930 . S
H1346 C1343 0.928 . S
H1347 C1344 0.931 . S
H1348 C1324 0.930 . S
H1349 C1321 0.930 . S
H1350 C1330 0.930 . S
H1351 C1342 0.929 . S
H1352 C1345 0.930 . S
C1353 C1354 1.351 . S
C1353 N1356 1.368 . S
C1353 H1358 0.931 . S
C1354 C1353 1.351 . S
C1354 N1355 1.373 . S
C1354 H1382 0.930 . S
N1355 C1354 1.373 . S
N1355 C1357 1.340 . S
N1356 C1353 1.368 . S
N1356 C1357 1.321 . S
N1356 Co1359 2.135 . S
C1357 N1355 1.340 . S
C1357 N1356 1.321 . S
C1357 H1381 0.930 . S
H1358 C1353 0.931 . S
Co1359 N1356 2.135 . S
Co1359 N1362 2.121 . S
Co1359 O1367 2.055 . S
Co1359 O1370 2.039 . S
Co1359 N1373 2.140 . S
C1360 O1361 1.227 . S
C1360 O1370 1.265 . S
O1361 C1360 1.227 . S
N1362 Co1359 2.121 . S
N1362 C1364 1.375 . S
N1362 C1365 1.313 . S
C1363 C1364 1.338 . S
C1363 N1366 1.377 . S
C1363 H1383 0.930 . S
C1364 N1362 1.375 . S
C1364 C1363 1.338 . S
C1364 H1368 0.931 . S
C1365 N1362 1.313 . S
C1365 N1366 1.344 . S
C1365 H1369 0.930 . S
N1366 C1363 1.377 . S
N1366 C1365 1.344 . S
O1367 Co1359 2.055 . S
O1367 C1371 1.253 . S
H1368 C1364 0.931 . S
H1369 C1365 0.930 . S
O1370 Co1359 2.039 . S
O1370 C1360 1.265 . S
C1371 O1367 1.253 . S
C1371 O1372 1.227 . S
O1372 C1371 1.227 . S
N1373 Co1359 2.140 . S
N1373 C1376 1.346 . S
N1373 C1377 1.345 . S
C1374 C1375 1.387 . S
C1374 C1378 1.391 . S
C1375 C1374 1.387 . S
C1375 C1376 1.369 . S
C1375 H1384 0.929 . S
C1376 N1373 1.346 . S
C1376 C1375 1.369 . S
C1376 H1379 0.928 . S
C1377 N1373 1.345 . S
C1377 C1378 1.371 . S
C1377 H1380 0.931 . S
C1378 C1374 1.391 . S
C1378 C1377 1.371 . S
C1378 H1385 0.930 . S
H1379 C1376 0.928 . S
H1380 C1377 0.931 . S
H1381 C1357 0.930 . S
H1382 C1354 0.930 . S
H1383 C1363 0.930 . S
H1384 C1375 0.929 . S
H1385 C1378 0.930 . S
C1386 C1387 1.351 . S
C1386 N1389 1.368 . S
C1386 H1391 0.931 . S
C1387 C1386 1.351 . S
C1387 N1388 1.373 . S
C1387 H1415 0.930 . S
N1388 C1387 1.373 . S
N1388 C1390 1.340 . S
N1389 C1386 1.368 . S
N1389 C1390 1.321 . S
N1389 Co1392 2.135 . S
C1390 N1388 1.340 . S
C1390 N1389 1.321 . S
C1390 H1414 0.930 . S
H1391 C1386 0.931 . S
Co1392 N1389 2.135 . S
Co1392 N1395 2.121 . S
Co1392 O1400 2.055 . S
Co1392 O1403 2.039 . S
Co1392 N1406 2.140 . S
C1393 O1394 1.227 . S
C1393 O1403 1.265 . S
O1394 C1393 1.227 . S
N1395 Co1392 2.121 . S
N1395 C1397 1.375 . S
N1395 C1398 1.313 . S
C1396 C1397 1.338 . S
C1396 N1399 1.377 . S
C1396 H1416 0.930 . S
C1397 N1395 1.375 . S
C1397 C1396 1.338 . S
C1397 H1401 0.931 . S
C1398 N1395 1.313 . S
C1398 N1399 1.344 . S
C1398 H1402 0.930 . S
N1399 C1396 1.377 . S
N1399 C1398 1.344 . S
O1400 Co1392 2.055 . S
O1400 C1404 1.253 . S
H1401 C1397 0.931 . S
H1402 C1398 0.930 . S
O1403 Co1392 2.039 . S
O1403 C1393 1.265 . S
C1404 O1400 1.253 . S
C1404 O1405 1.227 . S
O1405 C1404 1.227 . S
N1406 Co1392 2.140 . S
N1406 C1409 1.346 . S
N1406 C1410 1.345 . S
C1407 C1408 1.387 . S
C1407 C1411 1.391 . S
C1408 C1407 1.387 . S
C1408 C1409 1.369 . S
C1408 H1417 0.929 . S
C1409 N1406 1.346 . S
C1409 C1408 1.369 . S
C1409 H1412 0.928 . S
C1410 N1406 1.345 . S
C1410 C1411 1.371 . S
C1410 H1413 0.931 . S
C1411 C1407 1.391 . S
C1411 C1410 1.371 . S
C1411 H1418 0.930 . S
H1412 C1409 0.928 . S
H1413 C1410 0.931 . S
H1414 C1390 0.930 . S
H1415 C1387 0.930 . S
H1416 C1396 0.930 . S
H1417 C1408 0.929 . S
H1418 C1411 0.930 . S
C1419 C1420 1.351 . S
C1419 N1422 1.368 . S
C1419 H1424 0.931 . S
C1420 C1419 1.351 . S
C1420 N1421 1.373 . S
C1420 H1448 0.930 . S
N1421 C1420 1.373 . S
N1421 C1423 1.340 . S
N1422 C1419 1.368 . S
N1422 C1423 1.321 . S
N1422 Co1425 2.135 . S
C1423 N1421 1.340 . S
C1423 N1422 1.321 . S
C1423 H1447 0.930 . S
H1424 C1419 0.931 . S
Co1425 N1422 2.135 . S
Co1425 N1428 2.121 . S
Co1425 O1433 2.055 . S
Co1425 O1436 2.039 . S
Co1425 N1439 2.140 . S
C1426 O1427 1.227 . S
C1426 O1436 1.265 . S
O1427 C1426 1.227 . S
N1428 Co1425 2.121 . S
N1428 C1430 1.375 . S
N1428 C1431 1.313 . S
C1429 C1430 1.338 . S
C1429 N1432 1.377 . S
C1429 H1449 0.930 . S
C1430 N1428 1.375 . S
C1430 C1429 1.338 . S
C1430 H1434 0.931 . S
C1431 N1428 1.313 . S
C1431 N1432 1.344 . S
C1431 H1435 0.930 . S
N1432 C1429 1.377 . S
N1432 C1431 1.344 . S
O1433 Co1425 2.055 . S
O1433 C1437 1.253 . S
H1434 C1430 0.931 . S
H1435 C1431 0.930 . S
O1436 Co1425 2.039 . S
O1436 C1426 1.265 . S
C1437 O1433 1.253 . S
C1437 O1438 1.227 . S
O1438 C1437 1.227 . S
N1439 Co1425 2.140 . S
N1439 C1442 1.346 . S
N1439 C1443 1.345 . S
C1440 C1441 1.387 . S
C1440 C1444 1.391 . S
C1441 C1440 1.387 . S
C1441 C1442 1.369 . S
C1441 H1450 0.929 . S
C1442 N1439 1.346 . S
C1442 C1441 1.369 . S
C1442 H1445 0.928 . S
C1443 N1439 1.345 . S
C1443 C1444 1.371 . S
C1443 H1446 0.931 . S
C1444 C1440 1.391 . S
C1444 C1443 1.371 . S
C1444 H1451 0.930 . S
H1445 C1442 0.928 . S
H1446 C1443 0.931 . S
H1447 C1423 0.930 . S
H1448 C1420 0.930 . S
H1449 C1429 0.930 . S
H1450 C1441 0.929 . S
H1451 C1444 0.930 . S
C1452 C1453 1.351 . S
C1452 N1455 1.368 . S
C1452 H1457 0.931 1_556 S
C1453 C1452 1.351 . S
C1453 N1454 1.373 . S
C1453 H1481 0.930 . S
N1454 C1453 1.373 . S
N1454 C1456 1.340 . S
N1455 C1452 1.368 . S
N1455 C1456 1.321 . S
N1455 Co1458 2.135 1_556 S
C1456 N1454 1.340 . S
C1456 N1455 1.321 . S
C1456 H1480 0.930 . S
H1457 C1452 0.931 1_554 S
Co1458 N1455 2.135 1_554 S
Co1458 N1461 2.121 . S
Co1458 O1466 2.055 . S
Co1458 O1469 2.039 1_554 S
Co1458 N1472 2.140 . S
C1459 O1460 1.227 . S
C1459 O1469 1.265 . S
O1460 C1459 1.227 . S
N1461 Co1458 2.121 . S
N1461 C1463 1.375 . S
N1461 C1464 1.313 . S
C1462 C1463 1.338 . S
C1462 N1465 1.377 . S
C1462 H1482 0.930 . S
C1463 N1461 1.375 . S
C1463 C1462 1.338 . S
C1463 H1467 0.931 . S
C1464 N1461 1.313 . S
C1464 N1465 1.344 . S
C1464 H1468 0.930 . S
N1465 C1462 1.377 . S
N1465 C1464 1.344 . S
O1466 Co1458 2.055 . S
O1466 C1470 1.253 . S
H1467 C1463 0.931 . S
H1468 C1464 0.930 . S
O1469 Co1458 2.039 1_556 S
O1469 C1459 1.265 . S
C1470 O1466 1.253 . S
C1470 O1471 1.227 . S
O1471 C1470 1.227 . S
N1472 Co1458 2.140 . S
N1472 C1475 1.346 1_554 S
N1472 C1476 1.345 . S
C1473 C1474 1.387 1_554 S
C1473 C1477 1.391 . S
C1474 C1473 1.387 1_556 S
C1474 C1475 1.369 . S
C1474 H1483 0.929 . S
C1475 N1472 1.346 1_556 S
C1475 C1474 1.369 . S
C1475 H1478 0.928 . S
C1476 N1472 1.345 . S
C1476 C1477 1.371 . S
C1476 H1479 0.931 . S
C1477 C1473 1.391 . S
C1477 C1476 1.371 . S
C1477 H1484 0.930 . S
H1478 C1475 0.928 . S
H1479 C1476 0.931 . S
H1480 C1456 0.930 . S
H1481 C1453 0.930 . S
H1482 C1462 0.930 . S
H1483 C1474 0.929 . S
H1484 C1477 0.930 . S
C1485 C1486 1.351 . S
C1485 N1488 1.368 . S
C1485 H1490 0.931 . S
C1486 C1485 1.351 . S
C1486 N1487 1.373 . S
C1486 H1514 0.930 . S
N1487 C1486 1.373 . S
N1487 C1489 1.340 . S
N1488 C1485 1.368 . S
N1488 C1489 1.321 . S
N1488 Co1491 2.135 . S
C1489 N1487 1.340 . S
C1489 N1488 1.321 . S
C1489 H1513 0.930 . S
H1490 C1485 0.931 . S
Co1491 N1488 2.135 . S
Co1491 N1494 2.121 1_554 S
Co1491 O1499 2.055 1_554 S
Co1491 O1502 2.039 . S
Co1491 N1505 2.140 . S
C1492 O1493 1.227 . S
C1492 O1502 1.265 . S
O1493 C1492 1.227 . S
N1494 Co1491 2.121 1_556 S
N1494 C1496 1.375 . S
N1494 C1497 1.313 . S
C1495 C1496 1.338 . S
C1495 N1498 1.377 . S
C1495 H1515 0.930 . S
C1496 N1494 1.375 . S
C1496 C1495 1.338 . S
C1496 H1500 0.931 1_556 S
C1497 N1494 1.313 . S
C1497 N1498 1.344 . S
C1497 H1501 0.930 . S
N1498 C1495 1.377 . S
N1498 C1497 1.344 . S
O1499 Co1491 2.055 1_556 S
O1499 C1503 1.253 . S
H1500 C1496 0.931 1_554 S
H1501 C1497 0.930 . S
O1502 Co1491 2.039 . S
O1502 C1492 1.265 . S
C1503 O1499 1.253 . S
C1503 O1504 1.227 . S
O1504 C1503 1.227 . S
N1505 Co1491 2.140 . S
N1505 C1508 1.346 . S
N1505 C1509 1.345 1_554 S
C1506 C1507 1.387 . S
C1506 C1510 1.391 1_554 S
C1507 C1506 1.387 . S
C1507 C1508 1.369 . S
C1507 H1516 0.929 . S
C1508 N1505 1.346 . S
C1508 C1507 1.369 . S
C1508 H1511 0.928 . S
C1509 N1505 1.345 1_556 S
C1509 C1510 1.371 . S
C1509 H1512 0.931 . S
C1510 C1506 1.391 1_556 S
C1510 C1509 1.371 . S
C1510 H1517 0.930 . S
H1511 C1508 0.928 . S
H1512 C1509 0.931 . S
H1513 C1489 0.930 . S
H1514 C1486 0.930 . S
H1515 C1495 0.930 . S
H1516 C1507 0.929 . S
H1517 C1510 0.930 . S
C1518 C1519 1.351 . S
C1518 N1521 1.368 . S
C1518 H1523 0.931 . S
C1519 C1518 1.351 . S
C1519 N1520 1.373 . S
C1519 H1547 0.930 . S
N1520 C1519 1.373 . S
N1520 C1522 1.340 . S
N1521 C1518 1.368 . S
N1521 C1522 1.321 . S
N1521 Co1524 2.135 . S
C1522 N1520 1.340 . S
C1522 N1521 1.321 . S
C1522 H1546 0.930 . S
H1523 C1518 0.931 . S
Co1524 N1521 2.135 . S
Co1524 N1527 2.121 1_554 S
Co1524 O1532 2.055 1_554 S
Co1524 O1535 2.039 . S
Co1524 N1538 2.140 . S
C1525 O1526 1.227 . S
C1525 O1535 1.265 . S
O1526 C1525 1.227 . S
N1527 Co1524 2.121 1_556 S
N1527 C1529 1.375 . S
N1527 C1530 1.313 . S
C1528 C1529 1.338 . S
C1528 N1531 1.377 . S
C1528 H1548 0.930 . S
C1529 N1527 1.375 . S
C1529 C1528 1.338 . S
C1529 H1533 0.931 1_556 S
C1530 N1527 1.313 . S
C1530 N1531 1.344 . S
C1530 H1534 0.930 . S
N1531 C1528 1.377 . S
N1531 C1530 1.344 . S
O1532 Co1524 2.055 1_556 S
O1532 C1536 1.253 . S
H1533 C1529 0.931 1_554 S
H1534 C1530 0.930 . S
O1535 Co1524 2.039 . S
O1535 C1525 1.265 . S
C1536 O1532 1.253 . S
C1536 O1537 1.227 . S
O1537 C1536 1.227 . S
N1538 Co1524 2.140 . S
N1538 C1541 1.346 . S
N1538 C1542 1.345 1_554 S
C1539 C1540 1.387 . S
C1539 C1543 1.391 1_554 S
C1540 C1539 1.387 . S
C1540 C1541 1.369 . S
C1540 H1549 0.929 . S
C1541 N1538 1.346 . S
C1541 C1540 1.369 . S
C1541 H1544 0.928 . S
C1542 N1538 1.345 1_556 S
C1542 C1543 1.371 . S
C1542 H1545 0.931 . S
C1543 C1539 1.391 1_556 S
C1543 C1542 1.371 . S
C1543 H1550 0.930 . S
H1544 C1541 0.928 . S
H1545 C1542 0.931 . S
H1546 C1522 0.930 . S
H1547 C1519 0.930 . S
H1548 C1528 0.930 . S
H1549 C1540 0.929 . S
H1550 C1543 0.930 . S
C1551 C1552 1.351 . S
C1551 N1554 1.368 . S
C1551 H1556 0.931 1_556 S
C1552 C1551 1.351 . S
C1552 N1553 1.373 . S
C1552 H1580 0.930 . S
N1553 C1552 1.373 . S
N1553 C1555 1.340 . S
N1554 C1551 1.368 . S
N1554 C1555 1.321 . S
N1554 Co1557 2.135 1_556 S
C1555 N1553 1.340 . S
C1555 N1554 1.321 . S
C1555 H1579 0.930 . S
H1556 C1551 0.931 1_554 S
Co1557 N1554 2.135 1_554 S
Co1557 N1560 2.121 . S
Co1557 O1565 2.055 . S
Co1557 O1568 2.039 1_554 S
Co1557 N1571 2.140 . S
C1558 O1559 1.227 . S
C1558 O1568 1.265 . S
O1559 C1558 1.227 . S
N1560 Co1557 2.121 . S
N1560 C1562 1.375 . S
N1560 C1563 1.313 . S
C1561 C1562 1.338 . S
C1561 N1564 1.377 . S
C1561 H1581 0.930 . S
C1562 N1560 1.375 . S
C1562 C1561 1.338 . S
C1562 H1566 0.931 . S
C1563 N1560 1.313 . S
C1563 N1564 1.344 . S
C1563 H1567 0.930 . S
N1564 C1561 1.377 . S
N1564 C1563 1.344 . S
O1565 Co1557 2.055 . S
O1565 C1569 1.253 . S
H1566 C1562 0.931 . S
H1567 C1563 0.930 . S
O1568 Co1557 2.039 1_556 S
O1568 C1558 1.265 . S
C1569 O1565 1.253 . S
C1569 O1570 1.227 . S
O1570 C1569 1.227 . S
N1571 Co1557 2.140 . S
N1571 C1574 1.346 1_554 S
N1571 C1575 1.345 . S
C1572 C1573 1.387 1_554 S
C1572 C1576 1.391 . S
C1573 C1572 1.387 1_556 S
C1573 C1574 1.369 . S
C1573 H1582 0.929 . S
C1574 N1571 1.346 1_556 S
C1574 C1573 1.369 . S
C1574 H1577 0.928 . S
C1575 N1571 1.345 . S
C1575 C1576 1.371 . S
C1575 H1578 0.931 . S
C1576 C1572 1.391 . S
C1576 C1575 1.371 . S
C1576 H1583 0.930 . S
H1577 C1574 0.928 . S
H1578 C1575 0.931 . S
H1579 C1555 0.930 . S
H1580 C1552 0.930 . S
H1581 C1561 0.930 . S
H1582 C1573 0.929 . S
H1583 C1576 0.930 . S
C1584 C1585 1.369 . S
C1584 C1586 1.419 . S
C1584 H1588 0.930 . S
C1585 C1584 1.369 . S
C1585 C1594 1.429 . S
C1586 C1584 1.419 . S
C1586 C1587 1.363 . S
C1586 H1589 0.929 . S
C1587 C1586 1.363 . S
C1587 C1593 1.428 . S
H1588 C1584 0.930 . S
H1589 C1586 0.929 . S
S1590 N1591 1.613 . S
S1590 N1592 1.610 . S
N1591 S1590 1.613 . S
N1591 C1594 1.350 . S
N1592 S1590 1.610 . S
N1592 C1593 1.351 . S
C1593 C1587 1.428 . S
C1593 N1592 1.351 . S
C1593 C1594 1.434 . S
C1594 C1585 1.429 . S
C1594 N1591 1.350 . S
C1594 C1593 1.434 . S
C1595 C1596 1.369 . S
C1595 C1597 1.419 . S
C1595 H1599 0.930 . S
C1596 C1595 1.369 . S
C1596 C1605 1.429 1_545 S
C1597 C1595 1.419 . S
C1597 C1598 1.363 . S
C1597 H1600 0.929 . S
C1598 C1597 1.363 . S
C1598 C1604 1.428 1_545 S
H1599 C1595 0.930 . S
H1600 C1597 0.929 . S
S1601 N1602 1.613 . S
S1601 N1603 1.610 . S
N1602 S1601 1.613 . S
N1602 C1605 1.350 . S
N1603 S1601 1.610 . S
N1603 C1604 1.351 . S
C1604 C1598 1.428 1_565 S
C1604 N1603 1.351 . S
C1604 C1605 1.434 . S
C1605 C1596 1.429 1_565 S
C1605 N1602 1.350 . S
C1605 C1604 1.434 . S
C1606 C1607 1.369 1_655 S
C1606 C1608 1.419 . S
C1606 H1610 0.930 . S
C1607 C1606 1.369 1_455 S
C1607 C1616 1.429 . S
C1608 C1606 1.419 . S
C1608 C1609 1.363 1_655 S
C1608 H1611 0.929 . S
C1609 C1608 1.363 1_455 S
C1609 C1615 1.428 . S
H1610 C1606 0.930 . S
H1611 C1608 0.929 . S
S1612 N1613 1.613 . S
S1612 N1614 1.610 . S
N1613 S1612 1.613 . S
N1613 C1616 1.350 . S
N1614 S1612 1.610 . S
N1614 C1615 1.351 . S
C1615 C1609 1.428 . S
C1615 N1614 1.351 . S
C1615 C1616 1.434 . S
C1616 C1607 1.429 . S
C1616 N1613 1.350 . S
C1616 C1615 1.434 . S
C1617 C1618 1.369 1_565 S
C1617 C1619 1.419 . S
C1617 H1621 0.930 . S
C1618 C1617 1.369 1_545 S
C1618 C1627 1.429 . S
C1619 C1617 1.419 . S
C1619 C1620 1.363 1_565 S
C1619 H1622 0.929 . S
C1620 C1619 1.363 1_545 S
C1620 C1626 1.428 . S
H1621 C1617 0.930 . S
H1622 C1619 0.929 . S
S1623 N1624 1.613 . S
S1623 N1625 1.610 . S
N1624 S1623 1.613 . S
N1624 C1627 1.350 . S
N1625 S1623 1.610 . S
N1625 C1626 1.351 . S
C1626 C1620 1.428 . S
C1626 N1625 1.351 . S
C1626 C1627 1.434 . S
C1627 C1618 1.429 . S
C1627 N1624 1.350 . S
C1627 C1626 1.434 . S
C1628 C1629 1.369 . S
C1628 C1630 1.419 . S
C1628 H1632 0.930 . S
C1629 C1628 1.369 . S
C1629 C1638 1.429 . S
C1630 C1628 1.419 . S
C1630 C1631 1.363 . S
C1630 H1633 0.929 . S
C1631 C1630 1.363 . S
C1631 C1637 1.428 . S
H1632 C1628 0.930 . S
H1633 C1630 0.929 . S
S1634 N1635 1.613 . S
S1634 N1636 1.610 . S
N1635 S1634 1.613 . S
N1635 C1638 1.350 . S
N1636 S1634 1.610 . S
N1636 C1637 1.351 . S
C1637 C1631 1.428 . S
C1637 N1636 1.351 . S
C1637 C1638 1.434 . S
C1638 C1629 1.429 . S
C1638 N1635 1.350 . S
C1638 C1637 1.434 . S
C1639 C1640 1.369 . S
C1639 C1641 1.419 . S
C1639 H1643 0.930 . S
C1640 C1639 1.369 . S
C1640 C1649 1.429 . S
C1641 C1639 1.419 . S
C1641 C1642 1.363 . S
C1641 H1644 0.929 . S
C1642 C1641 1.363 . S
C1642 C1648 1.428 . S
H1643 C1639 0.930 . S
H1644 C1641 0.929 . S
S1645 N1646 1.613 . S
S1645 N1647 1.610 . S
N1646 S1645 1.613 . S
N1646 C1649 1.350 . S
N1647 S1645 1.610 . S
N1647 C1648 1.351 . S
C1648 C1642 1.428 . S
C1648 N1647 1.351 . S
C1648 C1649 1.434 . S
C1649 C1640 1.429 . S
C1649 N1646 1.350 . S
C1649 C1648 1.434 . S
C1650 C1651 1.369 . S
C1650 C1652 1.419 . S
C1650 H1654 0.930 . S
C1651 C1650 1.369 . S
C1651 C1660 1.429 1_455 S
C1652 C1650 1.419 . S
C1652 C1653 1.365 1_455 S
C1652 H1655 0.929 . S
C1653 C1652 1.365 1_655 S
C1653 C1659 1.427 . S
H1654 C1650 0.930 . S
H1655 C1652 0.929 . S
S1656 N1657 1.613 . S
S1656 N1658 1.610 . S
N1657 S1656 1.613 . S
N1657 C1660 1.350 . S
N1658 S1656 1.610 . S
N1658 C1659 1.351 . S
C1659 C1653 1.427 . S
C1659 N1658 1.351 . S
C1659 C1660 1.434 . S
C1660 C1651 1.429 1_655 S
C1660 N1657 1.350 . S
C1660 C1659 1.434 . S
C1661 C1662 1.369 . S
C1661 C1663 1.419 . S
C1661 H1665 0.930 . S
C1662 C1661 1.369 . S
C1662 C1671 1.429 1_545 S
C1663 C1661 1.419 . S
C1663 C1664 1.363 . S
C1663 H1666 0.929 . S
C1664 C1663 1.363 . S
C1664 C1670 1.428 1_545 S
H1665 C1661 0.930 . S
H1666 C1663 0.929 . S
S1667 N1668 1.613 . S
S1667 N1669 1.610 . S
N1668 S1667 1.613 . S
N1668 C1671 1.350 . S
N1669 S1667 1.610 . S
N1669 C1670 1.351 . S
C1670 C1664 1.428 1_565 S
C1670 N1669 1.351 . S
C1670 C1671 1.434 . S
C1671 C1662 1.429 1_565 S
C1671 N1668 1.350 . S
C1671 C1670 1.434 . S
C1672 C1673 1.369 1_556 S
C1672 C1674 1.419 . S
C1672 H1676 0.930 . S
C1673 C1672 1.369 1_554 S
C1673 C1682 1.429 . S
C1674 C1672 1.419 . S
C1674 C1675 1.363 1_556 S
C1674 H1677 0.929 . S
C1675 C1674 1.363 1_554 S
C1675 C1681 1.428 . S
H1676 C1672 0.930 . S
H1677 C1674 0.929 . S
S1678 N1679 1.613 . S
S1678 N1680 1.610 . S
N1679 S1678 1.613 . S
N1679 C1682 1.350 . S
N1680 S1678 1.610 . S
N1680 C1681 1.351 . S
C1681 C1675 1.428 . S
C1681 N1680 1.351 . S
C1681 C1682 1.434 . S
C1682 C1673 1.429 . S
C1682 N1679 1.350 . S
C1682 C1681 1.434 . S
C1683 C1684 1.369 . S
C1683 C1685 1.419 . S
C1683 H1687 0.930 1_554 S
C1684 C1683 1.369 . S
C1684 C1693 1.429 . S
C1685 C1683 1.419 . S
C1685 C1686 1.363 . S
C1685 H1688 0.929 1_554 S
C1686 C1685 1.363 . S
C1686 C1692 1.428 . S
H1687 C1683 0.930 1_556 S
H1688 C1685 0.929 1_556 S
S1689 N1690 1.613 . S
S1689 N1691 1.610 . S
N1690 S1689 1.613 . S
N1690 C1693 1.350 . S
N1691 S1689 1.610 . S
N1691 C1692 1.351 . S
C1692 C1686 1.428 . S
C1692 N1691 1.351 . S
C1692 C1693 1.434 . S
C1693 C1684 1.429 . S
C1693 N1690 1.350 . S
C1693 C1692 1.434 . S
C1694 C1695 1.369 . S
C1694 C1696 1.419 . S
C1694 H1698 0.930 1_554 S
C1695 C1694 1.369 . S
C1695 C1704 1.429 . S
C1696 C1694 1.419 . S
C1696 C1697 1.363 . S
C1696 H1699 0.929 1_554 S
C1697 C1696 1.363 . S
C1697 C1703 1.428 . S
H1698 C1694 0.930 1_556 S
H1699 C1696 0.929 1_556 S
S1700 N1701 1.613 . S
S1700 N1702 1.610 . S
N1701 S1700 1.613 . S
N1701 C1704 1.350 . S
N1702 S1700 1.610 . S
N1702 C1703 1.351 . S
C1703 C1697 1.428 . S
C1703 N1702 1.351 . S
C1703 C1704 1.434 . S
C1704 C1695 1.429 . S
C1704 N1701 1.350 . S
C1704 C1703 1.434 . S
C1705 C1706 1.369 . S
C1705 C1707 1.419 . S
C1705 H1709 0.930 . S
C1706 C1705 1.369 . S
C1706 C1715 1.429 . S
C1707 C1705 1.419 . S
C1707 C1708 1.363 . S
C1707 H1710 0.929 . S
C1708 C1707 1.363 . S
C1708 C1714 1.428 . S
H1709 C1705 0.930 . S
H1710 C1707 0.929 . S
S1711 N1712 1.613 . S
S1711 N1713 1.617 . S
N1712 S1711 1.613 . S
N1712 C1715 1.350 1_556 S
N1713 S1711 1.617 . S
N1713 C1714 1.346 1_556 S
C1714 C1708 1.428 . S
C1714 N1713 1.346 1_554 S
C1714 C1715 1.434 . S
C1715 C1706 1.429 . S
C1715 N1712 1.350 1_554 S
C1715 C1714 1.434 . S
C1716 C1717 1.369 . S
C1716 C1718 1.419 . S
C1716 H1720 0.930 . S
C1717 C1716 1.369 . S
C1717 C1726 1.429 . S
C1718 C1716 1.419 . S
C1718 C1719 1.363 . S
C1718 H1721 0.929 . S
C1719 C1718 1.363 . S
C1719 C1725 1.428 . S
H1720 C1716 0.930 . S
H1721 C1718 0.929 . S
S1722 N1723 1.613 . S
S1722 N1724 1.610 . S
N1723 S1722 1.613 . S
N1723 C1726 1.350 . S
N1724 S1722 1.610 . S
N1724 C1725 1.351 . S
C1725 C1719 1.428 . S
C1725 N1724 1.351 . S
C1725 C1726 1.434 . S
C1726 C1717 1.429 . S
C1726 N1723 1.350 . S
C1726 C1725 1.434 . S
C1727 C1728 1.369 . S
C1727 C1729 1.419 . S
C1727 H1731 0.930 . S
C1728 C1727 1.369 . S
C1728 C1737 1.429 . S
C1729 C1727 1.419 . S
C1729 C1730 1.363 . S
C1729 H1732 0.929 . S
C1730 C1729 1.363 . S
C1730 C1736 1.428 . S
H1731 C1727 0.930 . S
H1732 C1729 0.929 . S
S1733 N1734 1.613 . S
S1733 N1735 1.610 . S
N1734 S1733 1.613 . S
N1734 C1737 1.350 . S
N1735 S1733 1.610 . S
N1735 C1736 1.351 . S
C1736 C1730 1.428 . S
C1736 N1735 1.351 . S
C1736 C1737 1.434 . S
C1737 C1728 1.429 . S
C1737 N1734 1.350 . S
C1737 C1736 1.434 . S
C1738 C1739 1.369 . S
C1738 C1740 1.419 . S
C1738 H1742 0.930 . S
C1739 C1738 1.369 . S
C1739 C1748 1.429 . S
C1740 C1738 1.419 . S
C1740 C1741 1.363 . S
C1740 H1743 0.929 . S
C1741 C1740 1.363 . S
C1741 C1747 1.428 . S
H1742 C1738 0.930 . S
H1743 C1740 0.929 . S
S1744 N1745 1.613 . S
S1744 N1746 1.610 . S
N1745 S1744 1.613 . S
N1745 C1748 1.350 . S
N1746 S1744 1.610 . S
N1746 C1747 1.351 . S
C1747 C1741 1.428 . S
C1747 N1746 1.351 . S
C1747 C1748 1.434 . S
C1748 C1739 1.429 . S
C1748 N1745 1.350 . S
C1748 C1747 1.434 . S
C1749 C1750 1.369 . S
C1749 C1751 1.419 . S
C1749 H1753 0.930 . S
C1750 C1749 1.369 . S
C1750 C1759 1.429 . S
C1751 C1749 1.419 . S
C1751 C1752 1.363 . S
C1751 H1754 0.929 . S
C1752 C1751 1.363 . S
C1752 C1758 1.428 . S
H1753 C1749 0.930 . S
H1754 C1751 0.929 . S
S1755 N1756 1.613 . S
S1755 N1757 1.610 . S
N1756 S1755 1.613 . S
N1756 C1759 1.350 . S
N1757 S1755 1.610 . S
N1757 C1758 1.351 . S
C1758 C1752 1.428 . S
C1758 N1757 1.351 . S
C1758 C1759 1.434 . S
C1759 C1750 1.429 . S
C1759 N1756 1.350 . S
C1759 C1758 1.434 . S
C1760 C1761 1.369 . S
C1760 C1762 1.419 . S
C1760 H1764 0.930 . S
C1761 C1760 1.369 . S
C1761 C1770 1.429 . S
C1762 C1760 1.419 . S
C1762 C1763 1.363 . S
C1762 H1765 0.929 . S
C1763 C1762 1.363 . S
C1763 C1769 1.428 . S
H1764 C1760 0.930 . S
H1765 C1762 0.929 . S
S1766 N1767 1.613 . S
S1766 N1768 1.610 . S
N1767 S1766 1.613 . S
N1767 C1770 1.350 . S
N1768 S1766 1.610 . S
N1768 C1769 1.351 . S
C1769 C1763 1.428 . S
C1769 N1768 1.351 . S
C1769 C1770 1.434 . S
C1770 C1761 1.429 . S
C1770 N1767 1.350 . S
C1770 C1769 1.434 . S
C1771 C1772 1.369 . S
C1771 C1773 1.419 . S
C1771 H1775 0.930 . S
C1772 C1771 1.369 . S
C1772 C1781 1.429 . S
C1773 C1771 1.419 . S
C1773 C1774 1.363 . S
C1773 H1776 0.929 . S
C1774 C1773 1.363 . S
C1774 C1780 1.428 . S
H1775 C1771 0.930 . S
H1776 C1773 0.929 . S
S1777 N1778 1.613 . S
S1777 N1779 1.610 . S
N1778 S1777 1.613 . S
N1778 C1781 1.350 . S
N1779 S1777 1.610 . S
N1779 C1780 1.351 . S
C1780 C1774 1.428 . S
C1780 N1779 1.351 . S
C1780 C1781 1.434 . S
C1781 C1772 1.429 . S
C1781 N1778 1.350 . S
C1781 C1780 1.434 . S
C1782 C1783 1.369 . S
C1782 C1784 1.419 . S
C1782 H1786 0.930 . S
C1783 C1782 1.369 . S
C1783 C1792 1.429 . S
C1784 C1782 1.419 . S
C1784 C1785 1.363 . S
C1784 H1787 0.929 . S
C1785 C1784 1.363 . S
C1785 C1791 1.428 . S
H1786 C1782 0.930 . S
H1787 C1784 0.929 . S
S1788 N1789 1.613 . S
S1788 N1790 1.610 . S
N1789 S1788 1.613 . S
N1789 C1792 1.350 . S
N1790 S1788 1.610 . S
N1790 C1791 1.351 . S
C1791 C1785 1.428 . S
C1791 N1790 1.351 . S
C1791 C1792 1.434 . S
C1792 C1783 1.429 . S
C1792 N1789 1.350 . S
C1792 C1791 1.434 . S
C1793 C1794 1.369 . S
C1793 C1795 1.419 . S
C1793 H1797 0.930 . S
C1794 C1793 1.369 . S
C1794 C1803 1.429 . S
C1795 C1793 1.419 . S
C1795 C1796 1.363 . S
C1795 H1798 0.929 . S
C1796 C1795 1.363 . S
C1796 C1802 1.428 . S
H1797 C1793 0.930 . S
H1798 C1795 0.929 . S
S1799 N1800 1.613 . S
S1799 N1801 1.610 . S
N1800 S1799 1.613 . S
N1800 C1803 1.350 . S
N1801 S1799 1.610 . S
N1801 C1802 1.351 . S
C1802 C1796 1.428 . S
C1802 N1801 1.351 . S
C1802 C1803 1.434 . S
C1803 C1794 1.429 . S
C1803 N1800 1.350 . S
C1803 C1802 1.434 . S
C1804 C1805 1.369 . S
C1804 C1806 1.419 . S
C1804 H1808 0.930 . S
C1805 C1804 1.369 . S
C1805 C1814 1.429 . S
C1806 C1804 1.419 . S
C1806 C1807 1.363 . S
C1806 H1809 0.929 . S
C1807 C1806 1.363 . S
C1807 C1813 1.428 . S
H1808 C1804 0.930 . S
H1809 C1806 0.929 . S
S1810 N1811 1.613 . S
S1810 N1812 1.610 . S
N1811 S1810 1.613 . S
N1811 C1814 1.350 . S
N1812 S1810 1.610 . S
N1812 C1813 1.351 . S
C1813 C1807 1.428 . S
C1813 N1812 1.351 . S
C1813 C1814 1.434 . S
C1814 C1805 1.429 . S
C1814 N1811 1.350 . S
C1814 C1813 1.434 . S
C1815 C1816 1.369 . S
C1815 C1817 1.419 . S
C1815 H1819 0.930 . S
C1816 C1815 1.369 . S
C1816 C1825 1.429 . S
C1817 C1815 1.419 . S
C1817 C1818 1.363 . S
C1817 H1820 0.929 . S
C1818 C1817 1.363 . S
C1818 C1824 1.428 . S
H1819 C1815 0.930 . S
H1820 C1817 0.929 . S
S1821 N1822 1.613 . S
S1821 N1823 1.610 . S
N1822 S1821 1.613 . S
N1822 C1825 1.350 . S
N1823 S1821 1.610 . S
N1823 C1824 1.351 . S
C1824 C1818 1.428 . S
C1824 N1823 1.351 . S
C1824 C1825 1.434 . S
C1825 C1816 1.429 . S
C1825 N1822 1.350 . S
C1825 C1824 1.434 . S
C1826 C1827 1.369 . S
C1826 C1828 1.419 . S
C1826 H1830 0.930 . S
C1827 C1826 1.369 . S
C1827 C1836 1.429 . S
C1828 C1826 1.419 . S
C1828 C1829 1.363 . S
C1828 H1831 0.929 . S
C1829 C1828 1.363 . S
C1829 C1835 1.428 . S
H1830 C1826 0.930 . S
H1831 C1828 0.929 . S
S1832 N1833 1.613 . S
S1832 N1834 1.610 . S
N1833 S1832 1.613 . S
N1833 C1836 1.350 . S
N1834 S1832 1.610 . S
N1834 C1835 1.351 . S
C1835 C1829 1.428 . S
C1835 N1834 1.351 . S
C1835 C1836 1.434 . S
C1836 C1827 1.429 . S
C1836 N1833 1.350 . S
C1836 C1835 1.434 . S
C1837 C1838 1.369 . S
C1837 C1839 1.419 . S
C1837 H1841 0.930 . S
C1838 C1837 1.369 . S
C1838 C1847 1.429 . S
C1839 C1837 1.419 . S
C1839 C1840 1.363 . S
C1839 H1842 0.929 . S
C1840 C1839 1.363 . S
C1840 C1846 1.428 . S
H1841 C1837 0.930 . S
H1842 C1839 0.929 . S
S1843 N1844 1.613 . S
S1843 N1845 1.610 . S
N1844 S1843 1.613 . S
N1844 C1847 1.350 . S
N1845 S1843 1.610 . S
N1845 C1846 1.351 . S
C1846 C1840 1.428 . S
C1846 N1845 1.351 . S
C1846 C1847 1.434 . S
C1847 C1838 1.429 . S
C1847 N1844 1.350 . S
C1847 C1846 1.434 . S
C1848 C1849 1.369 . S
C1848 C1850 1.419 . S
C1848 H1852 0.930 . S
C1849 C1848 1.369 . S
C1849 C1858 1.429 . S
C1850 C1848 1.419 . S
C1850 C1851 1.363 . S
C1850 H1853 0.929 . S
C1851 C1850 1.363 . S
C1851 C1857 1.428 . S
H1852 C1848 0.930 . S
H1853 C1850 0.929 . S
S1854 N1855 1.613 . S
S1854 N1856 1.610 . S
N1855 S1854 1.613 . S
N1855 C1858 1.350 . S
N1856 S1854 1.610 . S
N1856 C1857 1.351 . S
C1857 C1851 1.428 . S
C1857 N1856 1.351 . S
C1857 C1858 1.434 . S
C1858 C1849 1.429 . S
C1858 N1855 1.350 . S
C1858 C1857 1.434 . S
C1859 C1860 1.369 . S
C1859 C1861 1.419 . S
C1859 H1863 0.930 . S
C1860 C1859 1.369 . S
C1860 C1869 1.429 . S
C1861 C1859 1.419 . S
C1861 C1862 1.363 . S
C1861 H1864 0.929 . S
C1862 C1861 1.363 . S
C1862 C1868 1.428 . S
H1863 C1859 0.930 . S
H1864 C1861 0.929 . S
S1865 N1866 1.613 . S
S1865 N1867 1.610 . S
N1866 S1865 1.613 . S
N1866 C1869 1.350 . S
N1867 S1865 1.610 . S
N1867 C1868 1.351 . S
C1868 C1862 1.428 . S
C1868 N1867 1.351 . S
C1868 C1869 1.434 . S
C1869 C1860 1.429 . S
C1869 N1866 1.350 . S
C1869 C1868 1.434 . S
C1870 C1871 1.369 . S
C1870 C1872 1.419 . S
C1870 H1874 0.930 . S
C1871 C1870 1.369 . S
C1871 C1880 1.429 . S
C1872 C1870 1.419 . S
C1872 C1873 1.363 . S
C1872 H1875 0.929 . S
C1873 C1872 1.363 . S
C1873 C1879 1.428 . S
H1874 C1870 0.930 . S
H1875 C1872 0.929 . S
S1876 N1877 1.613 . S
S1876 N1878 1.610 . S
N1877 S1876 1.613 . S
N1877 C1880 1.350 . S
N1878 S1876 1.610 . S
N1878 C1879 1.351 . S
C1879 C1873 1.428 . S
C1879 N1878 1.351 . S
C1879 C1880 1.434 . S
C1880 C1871 1.429 . S
C1880 N1877 1.350 . S
C1880 C1879 1.434 . S
C1881 C1882 1.369 . S
C1881 C1883 1.419 . S
C1881 H1885 0.930 . S
C1882 C1881 1.369 . S
C1882 C1891 1.429 . S
C1883 C1881 1.419 . S
C1883 C1884 1.363 . S
C1883 H1886 0.929 . S
C1884 C1883 1.363 . S
C1884 C1890 1.428 . S
H1885 C1881 0.930 . S
H1886 C1883 0.929 . S
S1887 N1888 1.613 . S
S1887 N1889 1.610 . S
N1888 S1887 1.613 . S
N1888 C1891 1.350 . S
N1889 S1887 1.610 . S
N1889 C1890 1.351 . S
C1890 C1884 1.428 . S
C1890 N1889 1.351 . S
C1890 C1891 1.434 . S
C1891 C1882 1.429 . S
C1891 N1888 1.350 . S
C1891 C1890 1.434 . S
C1892 C1893 1.369 . S
C1892 C1894 1.419 . S
C1892 H1896 0.930 . S
C1893 C1892 1.369 . S
C1893 C1902 1.429 . S
C1894 C1892 1.419 . S
C1894 C1895 1.363 . S
C1894 H1897 0.929 . S
C1895 C1894 1.363 . S
C1895 C1901 1.428 . S
H1896 C1892 0.930 . S
H1897 C1894 0.929 . S
S1898 N1899 1.613 . S
S1898 N1900 1.610 . S
N1899 S1898 1.613 . S
N1899 C1902 1.350 . S
N1900 S1898 1.610 . S
N1900 C1901 1.351 . S
C1901 C1895 1.428 . S
C1901 N1900 1.351 . S
C1901 C1902 1.434 . S
C1902 C1893 1.429 . S
C1902 N1899 1.350 . S
C1902 C1901 1.434 . S
C1903 C1904 1.369 . S
C1903 C1905 1.419 . S
C1903 H1907 0.930 . S
C1904 C1903 1.369 . S
C1904 C1913 1.429 . S
C1905 C1903 1.419 . S
C1905 C1906 1.363 . S
C1905 H1908 0.929 . S
C1906 C1905 1.363 . S
C1906 C1912 1.428 . S
H1907 C1903 0.930 . S
H1908 C1905 0.929 . S
S1909 N1910 1.613 . S
S1909 N1911 1.610 . S
N1910 S1909 1.613 . S
N1910 C1913 1.350 . S
N1911 S1909 1.610 . S
N1911 C1912 1.351 . S
C1912 C1906 1.428 . S
C1912 N1911 1.351 . S
C1912 C1913 1.434 . S
C1913 C1904 1.429 . S
C1913 N1910 1.350 . S
C1913 C1912 1.434 . S
C1914 C1915 1.369 . S
C1914 C1916 1.419 . S
C1914 H1918 0.930 . S
C1915 C1914 1.369 . S
C1915 C1924 1.429 . S
C1916 C1914 1.419 . S
C1916 C1917 1.363 . S
C1916 H1919 0.929 . S
C1917 C1916 1.363 . S
C1917 C1923 1.428 . S
H1918 C1914 0.930 . S
H1919 C1916 0.929 . S
S1920 N1921 1.613 . S
S1920 N1922 1.610 . S
N1921 S1920 1.613 . S
N1921 C1924 1.350 . S
N1922 S1920 1.610 . S
N1922 C1923 1.351 . S
C1923 C1917 1.428 . S
C1923 N1922 1.351 . S
C1923 C1924 1.434 . S
C1924 C1915 1.429 . S
C1924 N1921 1.350 . S
C1924 C1923 1.434 . S
C1925 C1926 1.369 . S
C1925 C1927 1.419 . S
C1925 H1929 0.930 . S
C1926 C1925 1.369 . S
C1926 C1935 1.429 . S
C1927 C1925 1.419 . S
C1927 C1928 1.363 . S
C1927 H1930 0.929 . S
C1928 C1927 1.363 . S
C1928 C1934 1.428 . S
H1929 C1925 0.930 . S
H1930 C1927 0.929 . S
S1931 N1932 1.613 . S
S1931 N1933 1.610 . S
N1932 S1931 1.613 . S
N1932 C1935 1.350 . S
N1933 S1931 1.610 . S
N1933 C1934 1.351 . S
C1934 C1928 1.428 . S
C1934 N1933 1.351 . S
C1934 C1935 1.434 . S
C1935 C1926 1.429 . S
C1935 N1932 1.350 . S
C1935 C1934 1.434 . S
C1936 C1937 1.369 . S
C1936 C1938 1.419 . S
C1936 H1940 0.930 . S
C1937 C1936 1.369 . S
C1937 C1946 1.429 . S
C1938 C1936 1.419 . S
C1938 C1939 1.363 . S
C1938 H1941 0.929 . S
C1939 C1938 1.363 . S
C1939 C1945 1.428 . S
H1940 C1936 0.930 . S
H1941 C1938 0.929 . S
S1942 N1943 1.613 . S
S1942 N1944 1.610 . S
N1943 S1942 1.613 . S
N1943 C1946 1.350 . S
N1944 S1942 1.610 . S
N1944 C1945 1.351 . S
C1945 C1939 1.428 . S
C1945 N1944 1.351 . S
C1945 C1946 1.434 . S
C1946 C1937 1.429 . S
C1946 N1943 1.350 . S
C1946 C1945 1.434 . S
C1947 C1948 1.369 . S
C1947 C1949 1.419 . S
C1947 H1951 0.930 . S
C1948 C1947 1.369 . S
C1948 C1957 1.429 . S
C1949 C1947 1.419 . S
C1949 C1950 1.363 . S
C1949 H1952 0.929 . S
C1950 C1949 1.363 . S
C1950 C1956 1.428 . S
H1951 C1947 0.930 . S
H1952 C1949 0.929 . S
S1953 N1954 1.613 . S
S1953 N1955 1.610 . S
N1954 S1953 1.613 . S
N1954 C1957 1.350 . S
N1955 S1953 1.610 . S
N1955 C1956 1.351 . S
C1956 C1950 1.428 . S
C1956 N1955 1.351 . S
C1956 C1957 1.434 . S
C1957 C1948 1.429 . S
C1957 N1954 1.350 . S
C1957 C1956 1.434 . S
C1958 C1959 1.369 . S
C1958 C1960 1.419 . S
C1958 H1962 0.930 . S
C1959 C1958 1.369 . S
C1959 C1968 1.429 . S
C1960 C1958 1.419 . S
C1960 C1961 1.363 . S
C1960 H1963 0.929 . S
C1961 C1960 1.363 . S
C1961 C1967 1.428 . S
H1962 C1958 0.930 . S
H1963 C1960 0.929 . S
S1964 N1965 1.613 . S
S1964 N1966 1.610 . S
N1965 S1964 1.613 . S
N1965 C1968 1.350 . S
N1966 S1964 1.610 . S
N1966 C1967 1.351 . S
C1967 C1961 1.428 . S
C1967 N1966 1.351 . S
C1967 C1968 1.434 . S
C1968 C1959 1.429 . S
C1968 N1965 1.350 . S
C1968 C1967 1.434 . S
C1969 C1970 1.369 . S
C1969 C1971 1.419 . S
C1969 H1973 0.930 . S
C1970 C1969 1.369 . S
C1970 C1979 1.429 . S
C1971 C1969 1.419 . S
C1971 C1972 1.363 . S
C1971 H1974 0.929 . S
C1972 C1971 1.363 . S
C1972 C1978 1.428 . S
H1973 C1969 0.930 . S
H1974 C1971 0.929 . S
S1975 N1976 1.613 . S
S1975 N1977 1.610 . S
N1976 S1975 1.613 . S
N1976 C1979 1.350 . S
N1977 S1975 1.610 . S
N1977 C1978 1.351 . S
C1978 C1972 1.428 . S
C1978 N1977 1.351 . S
C1978 C1979 1.434 . S
C1979 C1970 1.429 . S
C1979 N1976 1.350 . S
C1979 C1978 1.434 . S
C1980 C1981 1.369 . S
C1980 C1982 1.419 . S
C1980 H1984 0.930 . S
C1981 C1980 1.369 . S
C1981 C1990 1.429 . S
C1982 C1980 1.419 . S
C1982 C1983 1.363 . S
C1982 H1985 0.929 . S
C1983 C1982 1.363 . S
C1983 C1989 1.428 . S
H1984 C1980 0.930 . S
H1985 C1982 0.929 . S
S1986 N1987 1.613 . S
S1986 N1988 1.610 . S
N1987 S1986 1.613 . S
N1987 C1990 1.350 . S
N1988 S1986 1.610 . S
N1988 C1989 1.351 . S
C1989 C1983 1.428 . S
C1989 N1988 1.351 . S
C1989 C1990 1.434 . S
C1990 C1981 1.429 . S
C1990 N1987 1.350 . S
C1990 C1989 1.434 . S
C1991 C1992 1.369 . S
C1991 C1993 1.419 . S
C1991 H1995 0.930 . S
C1992 C1991 1.369 . S
C1992 C2001 1.429 . S
C1993 C1991 1.419 . S
C1993 C1994 1.363 . S
C1993 H1996 0.929 . S
C1994 C1993 1.363 . S
C1994 C2000 1.428 . S
H1995 C1991 0.930 . S
H1996 C1993 0.929 . S
S1997 N1998 1.613 . S
S1997 N1999 1.610 . S
N1998 S1997 1.613 . S
N1998 C2001 1.350 . S
N1999 S1997 1.610 . S
N1999 C2000 1.351 . S
C2000 C1994 1.428 . S
C2000 N1999 1.351 . S
C2000 C2001 1.434 . S
C2001 C1992 1.429 . S
C2001 N1998 1.350 . S
C2001 C2000 1.434 . S
C2002 C2003 1.369 . S
C2002 C2004 1.419 . S
C2002 H2006 0.930 . S
C2003 C2002 1.369 . S
C2003 C2012 1.429 . S
C2004 C2002 1.419 . S
C2004 C2005 1.363 . S
C2004 H2007 0.929 . S
C2005 C2004 1.363 . S
C2005 C2011 1.428 . S
H2006 C2002 0.930 . S
H2007 C2004 0.929 . S
S2008 N2009 1.613 . S
S2008 N2010 1.610 . S
N2009 S2008 1.613 . S
N2009 C2012 1.350 . S
N2010 S2008 1.610 . S
N2010 C2011 1.351 . S
C2011 C2005 1.428 . S
C2011 N2010 1.351 . S
C2011 C2012 1.434 . S
C2012 C2003 1.429 . S
C2012 N2009 1.350 . S
C2012 C2011 1.434 . S
C2013 C2014 1.369 . S
C2013 C2015 1.419 . S
C2013 H2017 0.930 . S
C2014 C2013 1.369 . S
C2014 C2023 1.429 . S
C2015 C2013 1.419 . S
C2015 C2016 1.363 . S
C2015 H2018 0.929 . S
C2016 C2015 1.363 . S
C2016 C2022 1.428 . S
H2017 C2013 0.930 . S
H2018 C2015 0.929 . S
S2019 N2020 1.613 . S
S2019 N2021 1.610 . S
N2020 S2019 1.613 . S
N2020 C2023 1.350 . S
N2021 S2019 1.610 . S
N2021 C2022 1.351 . S
C2022 C2016 1.428 . S
C2022 N2021 1.351 . S
C2022 C2023 1.434 . S
C2023 C2014 1.429 . S
C2023 N2020 1.350 . S
C2023 C2022 1.434 . S
C2024 C2025 1.369 . S
C2024 C2026 1.419 . S
C2024 H2028 0.930 . S
C2025 C2024 1.369 . S
C2025 C2034 1.429 . S
C2026 C2024 1.419 . S
C2026 C2027 1.363 . S
C2026 H2029 0.929 . S
C2027 C2026 1.363 . S
C2027 C2033 1.428 . S
H2028 C2024 0.930 . S
H2029 C2026 0.929 . S
S2030 N2031 1.613 . S
S2030 N2032 1.610 . S
N2031 S2030 1.613 . S
N2031 C2034 1.350 . S
N2032 S2030 1.610 . S
N2032 C2033 1.351 . S
C2033 C2027 1.428 . S
C2033 N2032 1.351 . S
C2033 C2034 1.434 . S
C2034 C2025 1.429 . S
C2034 N2031 1.350 . S
C2034 C2033 1.434 . S
C2035 C2036 1.369 . S
C2035 C2037 1.419 . S
C2035 H2039 0.930 . S
C2036 C2035 1.369 . S
C2036 C2045 1.429 . S
C2037 C2035 1.419 . S
C2037 C2038 1.363 . S
C2037 H2040 0.929 . S
C2038 C2037 1.363 . S
C2038 C2044 1.428 . S
H2039 C2035 0.930 . S
H2040 C2037 0.929 . S
S2041 N2042 1.613 . S
S2041 N2043 1.610 . S
N2042 S2041 1.613 . S
N2042 C2045 1.350 . S
N2043 S2041 1.610 . S
N2043 C2044 1.351 . S
C2044 C2038 1.428 . S
C2044 N2043 1.351 . S
C2044 C2045 1.434 . S
C2045 C2036 1.429 . S
C2045 N2042 1.350 . S
C2045 C2044 1.434 . S
C2046 C2047 1.369 . S
C2046 C2048 1.419 . S
C2046 H2050 0.930 . S
C2047 C2046 1.369 . S
C2047 C2056 1.429 . S
C2048 C2046 1.419 . S
C2048 C2049 1.363 . S
C2048 H2051 0.929 . S
C2049 C2048 1.363 . S
C2049 C2055 1.428 . S
H2050 C2046 0.930 . S
H2051 C2048 0.929 . S
S2052 N2053 1.613 . S
S2052 N2054 1.610 . S
N2053 S2052 1.613 . S
N2053 C2056 1.350 . S
N2054 S2052 1.610 . S
N2054 C2055 1.351 . S
C2055 C2049 1.428 . S
C2055 N2054 1.351 . S
C2055 C2056 1.434 . S
C2056 C2047 1.429 . S
C2056 N2053 1.350 . S
C2056 C2055 1.434 . S
C2057 C2058 1.369 . S
C2057 C2059 1.419 . S
C2057 H2061 0.930 . S
C2058 C2057 1.369 . S
C2058 C2067 1.429 . S
C2059 C2057 1.419 . S
C2059 C2060 1.363 . S
C2059 H2062 0.929 . S
C2060 C2059 1.363 . S
C2060 C2066 1.428 . S
H2061 C2057 0.930 . S
H2062 C2059 0.929 . S
S2063 N2064 1.613 . S
S2063 N2065 1.610 . S
N2064 S2063 1.613 . S
N2064 C2067 1.350 . S
N2065 S2063 1.610 . S
N2065 C2066 1.351 . S
C2066 C2060 1.428 . S
C2066 N2065 1.351 . S
C2066 C2067 1.434 . S
C2067 C2058 1.429 . S
C2067 N2064 1.350 . S
C2067 C2066 1.434 . S
C2068 C2069 1.369 . S
C2068 C2070 1.419 . S
C2068 H2072 0.930 . S
C2069 C2068 1.369 . S
C2069 C2078 1.429 . S
C2070 C2068 1.419 . S
C2070 C2071 1.363 . S
C2070 H2073 0.929 . S
C2071 C2070 1.363 . S
C2071 C2077 1.428 . S
H2072 C2068 0.930 . S
H2073 C2070 0.929 . S
S2074 N2075 1.613 . S
S2074 N2076 1.610 . S
N2075 S2074 1.613 . S
N2075 C2078 1.350 . S
N2076 S2074 1.610 . S
N2076 C2077 1.351 . S
C2077 C2071 1.428 . S
C2077 N2076 1.351 . S
C2077 C2078 1.434 . S
C2078 C2069 1.429 . S
C2078 N2075 1.350 . S
C2078 C2077 1.434 . S
C2079 C2080 1.369 . S
C2079 C2081 1.419 . S
C2079 H2083 0.930 . S
C2080 C2079 1.369 . S
C2080 C2089 1.429 . S
C2081 C2079 1.419 . S
C2081 C2082 1.363 . S
C2081 H2084 0.929 . S
C2082 C2081 1.363 . S
C2082 C2088 1.428 . S
H2083 C2079 0.930 . S
H2084 C2081 0.929 . S
S2085 N2086 1.613 . S
S2085 N2087 1.610 . S
N2086 S2085 1.613 . S
N2086 C2089 1.350 . S
N2087 S2085 1.610 . S
N2087 C2088 1.351 . S
C2088 C2082 1.428 . S
C2088 N2087 1.351 . S
C2088 C2089 1.434 . S
C2089 C2080 1.429 . S
C2089 N2086 1.350 . S
C2089 C2088 1.434 . S
C2090 C2091 1.369 . S
C2090 C2092 1.419 . S
C2090 H2094 0.930 . S
C2091 C2090 1.369 . S
C2091 C2100 1.429 . S
C2092 C2090 1.419 . S
C2092 C2093 1.363 . S
C2092 H2095 0.929 . S
C2093 C2092 1.363 . S
C2093 C2099 1.428 . S
H2094 C2090 0.930 . S
H2095 C2092 0.929 . S
S2096 N2097 1.613 . S
S2096 N2098 1.610 . S
N2097 S2096 1.613 . S
N2097 C2100 1.350 . S
N2098 S2096 1.610 . S
N2098 C2099 1.351 . S
C2099 C2093 1.428 . S
C2099 N2098 1.351 . S
C2099 C2100 1.434 . S
C2100 C2091 1.429 . S
C2100 N2097 1.350 . S
C2100 C2099 1.434 . S
C2101 C2102 1.369 . S
C2101 C2103 1.419 . S
C2101 H2105 0.930 . S
C2102 C2101 1.369 . S
C2102 C2111 1.429 . S
C2103 C2101 1.419 . S
C2103 C2104 1.363 . S
C2103 H2106 0.929 . S
C2104 C2103 1.363 . S
C2104 C2110 1.428 . S
H2105 C2101 0.930 . S
H2106 C2103 0.929 . S
S2107 N2108 1.613 . S
S2107 N2109 1.610 . S
N2108 S2107 1.613 . S
N2108 C2111 1.350 . S
N2109 S2107 1.610 . S
N2109 C2110 1.351 . S
C2110 C2104 1.428 . S
C2110 N2109 1.351 . S
C2110 C2111 1.434 . S
C2111 C2102 1.429 . S
C2111 N2108 1.350 . S
C2111 C2110 1.434 . S
C2112 C2113 1.369 . S
C2112 C2114 1.419 . S
C2112 H2116 0.930 . S
C2113 C2112 1.369 . S
C2113 C2122 1.429 . S
C2114 C2112 1.419 . S
C2114 C2115 1.363 . S
C2114 H2117 0.929 . S
C2115 C2114 1.363 . S
C2115 C2121 1.428 . S
H2116 C2112 0.930 . S
H2117 C2114 0.929 . S
S2118 N2119 1.613 . S
S2118 N2120 1.610 . S
N2119 S2118 1.613 . S
N2119 C2122 1.350 . S
N2120 S2118 1.610 . S
N2120 C2121 1.351 . S
C2121 C2115 1.428 . S
C2121 N2120 1.351 . S
C2121 C2122 1.434 . S
C2122 C2113 1.429 . S
C2122 N2119 1.350 . S
C2122 C2121 1.434 . S
C2123 C2124 1.369 . S
C2123 C2125 1.419 . S
C2123 H2127 0.930 . S
C2124 C2123 1.369 . S
C2124 C2133 1.429 . S
C2125 C2123 1.419 . S
C2125 C2126 1.363 . S
C2125 H2128 0.929 . S
C2126 C2125 1.363 . S
C2126 C2132 1.428 . S
H2127 C2123 0.930 . S
H2128 C2125 0.929 . S
S2129 N2130 1.613 . S
S2129 N2131 1.610 . S
N2130 S2129 1.613 . S
N2130 C2133 1.350 . S
N2131 S2129 1.610 . S
N2131 C2132 1.351 . S
C2132 C2126 1.428 . S
C2132 N2131 1.351 . S
C2132 C2133 1.434 . S
C2133 C2124 1.429 . S
C2133 N2130 1.350 . S
C2133 C2132 1.434 . S
C2134 C2135 1.369 . S
C2134 C2136 1.419 . S
C2134 H2138 0.930 . S
C2135 C2134 1.369 . S
C2135 C2144 1.429 . S
C2136 C2134 1.419 . S
C2136 C2137 1.363 . S
C2136 H2139 0.929 . S
C2137 C2136 1.363 . S
C2137 C2143 1.428 . S
H2138 C2134 0.930 . S
H2139 C2136 0.929 . S
S2140 N2141 1.613 . S
S2140 N2142 1.610 . S
N2141 S2140 1.613 . S
N2141 C2144 1.350 . S
N2142 S2140 1.610 . S
N2142 C2143 1.351 . S
C2143 C2137 1.428 . S
C2143 N2142 1.351 . S
C2143 C2144 1.434 . S
C2144 C2135 1.429 . S
C2144 N2141 1.350 . S
C2144 C2143 1.434 . S
C2145 C2146 1.369 . S
C2145 C2147 1.419 . S
C2145 H2149 0.930 . S
C2146 C2145 1.369 . S
C2146 C2155 1.429 . S
C2147 C2145 1.419 . S
C2147 C2148 1.363 . S
C2147 H2150 0.929 . S
C2148 C2147 1.363 . S
C2148 C2154 1.428 . S
H2149 C2145 0.930 . S
H2150 C2147 0.929 . S
S2151 N2152 1.613 . S
S2151 N2153 1.610 . S
N2152 S2151 1.613 . S
N2152 C2155 1.350 . S
N2153 S2151 1.610 . S
N2153 C2154 1.351 . S
C2154 C2148 1.428 . S
C2154 N2153 1.351 . S
C2154 C2155 1.434 . S
C2155 C2146 1.429 . S
C2155 N2152 1.350 . S
C2155 C2154 1.434 . S
C2156 C2157 1.369 . S
C2156 C2158 1.419 . S
C2156 H2160 0.930 . S
C2157 C2156 1.369 . S
C2157 C2166 1.429 . S
C2158 C2156 1.419 . S
C2158 C2159 1.363 . S
C2158 H2161 0.929 . S
C2159 C2158 1.363 . S
C2159 C2165 1.428 . S
H2160 C2156 0.930 . S
H2161 C2158 0.929 . S
S2162 N2163 1.613 . S
S2162 N2164 1.610 . S
N2163 S2162 1.613 . S
N2163 C2166 1.350 . S
N2164 S2162 1.610 . S
N2164 C2165 1.351 . S
C2165 C2159 1.428 . S
C2165 N2164 1.351 . S
C2165 C2166 1.434 . S
C2166 C2157 1.429 . S
C2166 N2163 1.350 . S
C2166 C2165 1.434 . S
C2167 C2168 1.369 . S
C2167 C2169 1.419 . S
C2167 H2171 0.930 . S
C2168 C2167 1.369 . S
C2168 C2177 1.429 . S
C2169 C2167 1.419 . S
C2169 C2170 1.363 . S
C2169 H2172 0.929 . S
C2170 C2169 1.363 . S
C2170 C2176 1.428 . S
H2171 C2167 0.930 . S
H2172 C2169 0.929 . S
S2173 N2174 1.613 . S
S2173 N2175 1.610 . S
N2174 S2173 1.613 . S
N2174 C2177 1.350 . S
N2175 S2173 1.610 . S
N2175 C2176 1.351 . S
C2176 C2170 1.428 . S
C2176 N2175 1.351 . S
C2176 C2177 1.434 . S
C2177 C2168 1.429 . S
C2177 N2174 1.350 . S
C2177 C2176 1.434 . S
C2178 C2179 1.369 . S
C2178 C2180 1.419 . S
C2178 H2182 0.930 . S
C2179 C2178 1.369 . S
C2179 C2188 1.429 . S
C2180 C2178 1.419 . S
C2180 C2181 1.363 . S
C2180 H2183 0.929 . S
C2181 C2180 1.363 . S
C2181 C2187 1.428 . S
H2182 C2178 0.930 . S
H2183 C2180 0.929 . S
S2184 N2185 1.613 . S
S2184 N2186 1.610 . S
N2185 S2184 1.613 . S
N2185 C2188 1.350 . S
N2186 S2184 1.610 . S
N2186 C2187 1.351 . S
C2187 C2181 1.428 . S
C2187 N2186 1.351 . S
C2187 C2188 1.434 . S
C2188 C2179 1.429 . S
C2188 N2185 1.350 . S
C2188 C2187 1.434 . S
C2189 C2190 1.369 . S
C2189 C2191 1.419 . S
C2189 H2193 0.930 . S
C2190 C2189 1.369 . S
C2190 C2199 1.429 . S
C2191 C2189 1.419 . S
C2191 C2192 1.363 . S
C2191 H2194 0.929 . S
C2192 C2191 1.363 . S
C2192 C2198 1.428 . S
H2193 C2189 0.930 . S
H2194 C2191 0.929 . S
S2195 N2196 1.613 . S
S2195 N2197 1.610 . S
N2196 S2195 1.613 . S
N2196 C2199 1.350 . S
N2197 S2195 1.610 . S
N2197 C2198 1.351 . S
C2198 C2192 1.428 . S
C2198 N2197 1.351 . S
C2198 C2199 1.434 . S
C2199 C2190 1.429 . S
C2199 N2196 1.350 . S
C2199 C2198 1.434 . S
C2200 C2201 1.369 . S
C2200 C2202 1.419 . S
C2200 H2204 0.930 . S
C2201 C2200 1.369 . S
C2201 C2210 1.429 . S
C2202 C2200 1.419 . S
C2202 C2203 1.363 . S
C2202 H2205 0.929 . S
C2203 C2202 1.363 . S
C2203 C2209 1.428 . S
H2204 C2200 0.930 . S
H2205 C2202 0.929 . S
S2206 N2207 1.613 . S
S2206 N2208 1.610 . S
N2207 S2206 1.613 . S
N2207 C2210 1.350 . S
N2208 S2206 1.610 . S
N2208 C2209 1.351 . S
C2209 C2203 1.428 . S
C2209 N2208 1.351 . S
C2209 C2210 1.434 . S
C2210 C2201 1.429 . S
C2210 N2207 1.350 . S
C2210 C2209 1.434 . S
C2211 C2212 1.369 . S
C2211 C2213 1.419 . S
C2211 H2215 0.930 . S
C2212 C2211 1.369 . S
C2212 C2221 1.429 . S
C2213 C2211 1.419 . S
C2213 C2214 1.363 . S
C2213 H2216 0.929 . S
C2214 C2213 1.363 . S
C2214 C2220 1.428 . S
H2215 C2211 0.930 . S
H2216 C2213 0.929 . S
S2217 N2218 1.613 . S
S2217 N2219 1.610 . S
N2218 S2217 1.613 . S
N2218 C2221 1.350 . S
N2219 S2217 1.610 . S
N2219 C2220 1.351 . S
C2220 C2214 1.428 . S
C2220 N2219 1.351 . S
C2220 C2221 1.434 . S
C2221 C2212 1.429 . S
C2221 N2218 1.350 . S
C2221 C2220 1.434 . S
C2222 C2223 1.369 . S
C2222 C2224 1.419 . S
C2222 H2226 0.930 . S
C2223 C2222 1.369 . S
C2223 C2232 1.429 . S
C2224 C2222 1.419 . S
C2224 C2225 1.363 . S
C2224 H2227 0.929 . S
C2225 C2224 1.363 . S
C2225 C2231 1.428 . S
H2226 C2222 0.930 . S
H2227 C2224 0.929 . S
S2228 N2229 1.613 . S
S2228 N2230 1.610 . S
N2229 S2228 1.613 . S
N2229 C2232 1.350 . S
N2230 S2228 1.610 . S
N2230 C2231 1.351 . S
C2231 C2225 1.428 . S
C2231 N2230 1.351 . S
C2231 C2232 1.434 . S
C2232 C2223 1.429 . S
C2232 N2229 1.350 . S
C2232 C2231 1.434 . S
C2233 C2234 1.369 . S
C2233 C2235 1.419 . S
C2233 H2237 0.930 . S
C2234 C2233 1.369 . S
C2234 C2243 1.429 . S
C2235 C2233 1.419 . S
C2235 C2236 1.363 . S
C2235 H2238 0.929 . S
C2236 C2235 1.363 . S
C2236 C2242 1.428 . S
H2237 C2233 0.930 . S
H2238 C2235 0.929 . S
S2239 N2240 1.613 . S
S2239 N2241 1.610 . S
N2240 S2239 1.613 . S
N2240 C2243 1.350 . S
N2241 S2239 1.610 . S
N2241 C2242 1.351 . S
C2242 C2236 1.428 . S
C2242 N2241 1.351 . S
C2242 C2243 1.434 . S
C2243 C2234 1.429 . S
C2243 N2240 1.350 . S
C2243 C2242 1.434 . S
C2244 C2245 1.369 . S
C2244 C2246 1.419 . S
C2244 H2248 0.930 . S
C2245 C2244 1.369 . S
C2245 C2254 1.429 . S
C2246 C2244 1.419 . S
C2246 C2247 1.363 . S
C2246 H2249 0.929 . S
C2247 C2246 1.363 . S
C2247 C2253 1.428 . S
H2248 C2244 0.930 . S
H2249 C2246 0.929 . S
S2250 N2251 1.613 . S
S2250 N2252 1.610 . S
N2251 S2250 1.613 . S
N2251 C2254 1.350 . S
N2252 S2250 1.610 . S
N2252 C2253 1.351 . S
C2253 C2247 1.428 . S
C2253 N2252 1.351 . S
C2253 C2254 1.434 . S
C2254 C2245 1.429 . S
C2254 N2251 1.350 . S
C2254 C2253 1.434 . S
C2255 C2256 1.369 . S
C2255 C2257 1.419 . S
C2255 H2259 0.930 . S
C2256 C2255 1.369 . S
C2256 C2265 1.429 . S
C2257 C2255 1.419 . S
C2257 C2258 1.363 . S
C2257 H2260 0.929 . S
C2258 C2257 1.363 . S
C2258 C2264 1.428 . S
H2259 C2255 0.930 . S
H2260 C2257 0.929 . S
S2261 N2262 1.613 . S
S2261 N2263 1.610 . S
N2262 S2261 1.613 . S
N2262 C2265 1.350 . S
N2263 S2261 1.610 . S
N2263 C2264 1.351 . S
C2264 C2258 1.428 . S
C2264 N2263 1.351 . S
C2264 C2265 1.434 . S
C2265 C2256 1.429 . S
C2265 N2262 1.350 . S
C2265 C2264 1.434 . S
C2266 C2267 1.369 . S
C2266 C2268 1.419 . S
C2266 H2270 0.930 . S
C2267 C2266 1.369 . S
C2267 C2276 1.429 . S
C2268 C2266 1.419 . S
C2268 C2269 1.363 . S
C2268 H2271 0.929 . S
C2269 C2268 1.363 . S
C2269 C2275 1.428 . S
H2270 C2266 0.930 . S
H2271 C2268 0.929 . S
S2272 N2273 1.613 . S
S2272 N2274 1.610 . S
N2273 S2272 1.613 . S
N2273 C2276 1.350 . S
N2274 S2272 1.610 . S
N2274 C2275 1.351 . S
C2275 C2269 1.428 . S
C2275 N2274 1.351 . S
C2275 C2276 1.434 . S
C2276 C2267 1.429 . S
C2276 N2273 1.350 . S
C2276 C2275 1.434 . S
C2277 C2278 1.369 . S
C2277 C2279 1.419 . S
C2277 H2281 0.930 . S
C2278 C2277 1.369 . S
C2278 C2287 1.429 . S
C2279 C2277 1.419 . S
C2279 C2280 1.363 . S
C2279 H2282 0.929 . S
C2280 C2279 1.363 . S
C2280 C2286 1.428 . S
H2281 C2277 0.930 . S
H2282 C2279 0.929 . S
S2283 N2284 1.613 . S
S2283 N2285 1.610 . S
N2284 S2283 1.613 . S
N2284 C2287 1.350 . S
N2285 S2283 1.610 . S
N2285 C2286 1.351 . S
C2286 C2280 1.428 . S
C2286 N2285 1.351 . S
C2286 C2287 1.434 . S
C2287 C2278 1.429 . S
C2287 N2284 1.350 . S
C2287 C2286 1.434 . S
C2288 C2289 1.369 . S
C2288 C2290 1.419 . S
C2288 H2292 0.930 . S
C2289 C2288 1.369 . S
C2289 C2298 1.429 . S
C2290 C2288 1.419 . S
C2290 C2291 1.363 . S
C2290 H2293 0.929 . S
C2291 C2290 1.363 . S
C2291 C2297 1.428 . S
H2292 C2288 0.930 . S
H2293 C2290 0.929 . S
S2294 N2295 1.613 . S
S2294 N2296 1.610 . S
N2295 S2294 1.613 . S
N2295 C2298 1.350 . S
N2296 S2294 1.610 . S
N2296 C2297 1.351 . S
C2297 C2291 1.428 . S
C2297 N2296 1.351 . S
C2297 C2298 1.434 . S
C2298 C2289 1.429 . S
C2298 N2295 1.350 . S
C2298 C2297 1.434 . S
C2299 C2300 1.369 . S
C2299 C2301 1.419 . S
C2299 H2303 0.930 . S
C2300 C2299 1.369 . S
C2300 C2309 1.429 . S
C2301 C2299 1.419 . S
C2301 C2302 1.363 . S
C2301 H2304 0.929 . S
C2302 C2301 1.363 . S
C2302 C2308 1.428 . S
H2303 C2299 0.930 . S
H2304 C2301 0.929 . S
S2305 N2306 1.613 . S
S2305 N2307 1.610 . S
N2306 S2305 1.613 . S
N2306 C2309 1.350 . S
N2307 S2305 1.610 . S
N2307 C2308 1.351 . S
C2308 C2302 1.428 . S
C2308 N2307 1.351 . S
C2308 C2309 1.434 . S
C2309 C2300 1.429 . S
C2309 N2306 1.350 . S
C2309 C2308 1.434 . S
C2310 C2311 1.369 . S
C2310 C2312 1.419 . S
C2310 H2314 0.930 . S
C2311 C2310 1.369 . S
C2311 C2320 1.429 . S
C2312 C2310 1.419 . S
C2312 C2313 1.363 . S
C2312 H2315 0.929 . S
C2313 C2312 1.363 . S
C2313 C2319 1.428 . S
H2314 C2310 0.930 . S
H2315 C2312 0.929 . S
S2316 N2317 1.613 . S
S2316 N2318 1.610 . S
N2317 S2316 1.613 . S
N2317 C2320 1.350 . S
N2318 S2316 1.610 . S
N2318 C2319 1.351 . S
C2319 C2313 1.428 . S
C2319 N2318 1.351 . S
C2319 C2320 1.434 . S
C2320 C2311 1.429 . S
C2320 N2317 1.350 . S
C2320 C2319 1.434 . S
C2321 C2322 1.369 . S
C2321 C2323 1.419 . S
C2321 H2325 0.930 . S
C2322 C2321 1.369 . S
C2322 C2331 1.429 . S
C2323 C2321 1.419 . S
C2323 C2324 1.363 . S
C2323 H2326 0.929 . S
C2324 C2323 1.363 . S
C2324 C2330 1.428 . S
H2325 C2321 0.930 . S
H2326 C2323 0.929 . S
S2327 N2328 1.613 . S
S2327 N2329 1.610 . S
N2328 S2327 1.613 . S
N2328 C2331 1.350 . S
N2329 S2327 1.610 . S
N2329 C2330 1.351 . S
C2330 C2324 1.428 . S
C2330 N2329 1.351 . S
C2330 C2331 1.434 . S
C2331 C2322 1.429 . S
C2331 N2328 1.350 . S
C2331 C2330 1.434 . S
C2332 C2333 1.369 . S
C2332 C2334 1.419 . S
C2332 H2336 0.930 . S
C2333 C2332 1.369 . S
C2333 C2342 1.429 . S
C2334 C2332 1.419 . S
C2334 C2335 1.363 . S
C2334 H2337 0.929 . S
C2335 C2334 1.363 . S
C2335 C2341 1.428 . S
H2336 C2332 0.930 . S
H2337 C2334 0.929 . S
S2338 N2339 1.613 . S
S2338 N2340 1.610 . S
N2339 S2338 1.613 . S
N2339 C2342 1.350 . S
N2340 S2338 1.610 . S
N2340 C2341 1.351 . S
C2341 C2335 1.428 . S
C2341 N2340 1.351 . S
C2341 C2342 1.434 . S
C2342 C2333 1.429 . S
C2342 N2339 1.350 . S
C2342 C2341 1.434 . S
C2343 C2344 1.369 . S
C2343 C2345 1.419 . S
C2343 H2347 0.930 . S
C2344 C2343 1.369 . S
C2344 C2353 1.429 . S
C2345 C2343 1.419 . S
C2345 C2346 1.363 . S
C2345 H2348 0.929 . S
C2346 C2345 1.363 . S
C2346 C2352 1.428 . S
H2347 C2343 0.930 . S
H2348 C2345 0.929 . S
S2349 N2350 1.613 . S
S2349 N2351 1.610 . S
N2350 S2349 1.613 . S
N2350 C2353 1.350 . S
N2351 S2349 1.610 . S
N2351 C2352 1.351 . S
C2352 C2346 1.428 . S
C2352 N2351 1.351 . S
C2352 C2353 1.434 . S
C2353 C2344 1.429 . S
C2353 N2350 1.350 . S
C2353 C2352 1.434 . S
C2354 C2355 1.369 . S
C2354 C2356 1.419 . S
C2354 H2358 0.930 . S
C2355 C2354 1.369 . S
C2355 C2364 1.429 . S
C2356 C2354 1.419 . S
C2356 C2357 1.363 . S
C2356 H2359 0.929 . S
C2357 C2356 1.363 . S
C2357 C2363 1.428 . S
H2358 C2354 0.930 . S
H2359 C2356 0.929 . S
S2360 N2361 1.613 . S
S2360 N2362 1.610 . S
N2361 S2360 1.613 . S
N2361 C2364 1.350 . S
N2362 S2360 1.610 . S
N2362 C2363 1.351 . S
C2363 C2357 1.428 . S
C2363 N2362 1.351 . S
C2363 C2364 1.434 . S
C2364 C2355 1.429 . S
C2364 N2361 1.350 . S
C2364 C2363 1.434 . S
C2365 C2366 1.369 . S
C2365 C2367 1.419 . S
C2365 H2369 0.930 . S
C2366 C2365 1.369 . S
C2366 C2375 1.429 . S
C2367 C2365 1.419 . S
C2367 C2368 1.363 . S
C2367 H2370 0.929 . S
C2368 C2367 1.363 . S
C2368 C2374 1.428 . S
H2369 C2365 0.930 . S
H2370 C2367 0.929 . S
S2371 N2372 1.613 . S
S2371 N2373 1.610 . S
N2372 S2371 1.613 . S
N2372 C2375 1.350 . S
N2373 S2371 1.610 . S
N2373 C2374 1.351 . S
C2374 C2368 1.428 . S
C2374 N2373 1.351 . S
C2374 C2375 1.434 . S
C2375 C2366 1.429 . S
C2375 N2372 1.350 . S
C2375 C2374 1.434 . S
C2376 C2377 1.369 . S
C2376 C2378 1.419 . S
C2376 H2380 0.930 . S
C2377 C2376 1.369 . S
C2377 C2386 1.429 . S
C2378 C2376 1.419 . S
C2378 C2379 1.363 . S
C2378 H2381 0.929 . S
C2379 C2378 1.363 . S
C2379 C2385 1.428 . S
H2380 C2376 0.930 . S
H2381 C2378 0.929 . S
S2382 N2383 1.613 . S
S2382 N2384 1.610 . S
N2383 S2382 1.613 . S
N2383 C2386 1.350 . S
N2384 S2382 1.610 . S
N2384 C2385 1.351 . S
C2385 C2379 1.428 . S
C2385 N2384 1.351 . S
C2385 C2386 1.434 . S
C2386 C2377 1.429 . S
C2386 N2383 1.350 . S
C2386 C2385 1.434 . S
C2387 C2388 1.369 . S
C2387 C2389 1.419 . S
C2387 H2391 0.930 . S
C2388 C2387 1.369 . S
C2388 C2397 1.429 . S
C2389 C2387 1.419 . S
C2389 C2390 1.363 . S
C2389 H2392 0.929 . S
C2390 C2389 1.363 . S
C2390 C2396 1.428 . S
H2391 C2387 0.930 . S
H2392 C2389 0.929 . S
S2393 N2394 1.613 . S
S2393 N2395 1.610 . S
N2394 S2393 1.613 . S
N2394 C2397 1.350 . S
N2395 S2393 1.610 . S
N2395 C2396 1.351 . S
C2396 C2390 1.428 . S
C2396 N2395 1.351 . S
C2396 C2397 1.434 . S
C2397 C2388 1.429 . S
C2397 N2394 1.350 . S
C2397 C2396 1.434 . S
C2398 C2399 1.369 . S
C2398 C2400 1.419 . S
C2398 H2402 0.930 . S
C2399 C2398 1.369 . S
C2399 C2408 1.429 . S
C2400 C2398 1.419 . S
C2400 C2401 1.363 . S
C2400 H2403 0.929 . S
C2401 C2400 1.363 . S
C2401 C2407 1.428 . S
H2402 C2398 0.930 . S
H2403 C2400 0.929 . S
S2404 N2405 1.613 . S
S2404 N2406 1.610 . S
N2405 S2404 1.613 . S
N2405 C2408 1.350 . S
N2406 S2404 1.610 . S
N2406 C2407 1.351 . S
C2407 C2401 1.428 . S
C2407 N2406 1.351 . S
C2407 C2408 1.434 . S
C2408 C2399 1.429 . S
C2408 N2405 1.350 . S
C2408 C2407 1.434 . S
C2409 C2410 1.369 . S
C2409 C2411 1.419 . S
C2409 H2413 0.930 . S
C2410 C2409 1.369 . S
C2410 C2419 1.429 . S
C2411 C2409 1.419 . S
C2411 C2412 1.363 . S
C2411 H2414 0.929 . S
C2412 C2411 1.363 . S
C2412 C2418 1.428 . S
H2413 C2409 0.930 . S
H2414 C2411 0.929 . S
S2415 N2416 1.613 . S
S2415 N2417 1.610 . S
N2416 S2415 1.613 . S
N2416 C2419 1.350 . S
N2417 S2415 1.610 . S
N2417 C2418 1.351 . S
C2418 C2412 1.428 . S
C2418 N2417 1.351 . S
C2418 C2419 1.434 . S
C2419 C2410 1.429 . S
C2419 N2416 1.350 . S
C2419 C2418 1.434 . S
C2420 C2421 1.369 . S
C2420 C2422 1.419 . S
C2420 H2424 0.930 . S
C2421 C2420 1.369 . S
C2421 C2430 1.429 . S
C2422 C2420 1.419 . S
C2422 C2423 1.363 . S
C2422 H2425 0.929 . S
C2423 C2422 1.363 . S
C2423 C2429 1.428 . S
H2424 C2420 0.930 . S
H2425 C2422 0.929 . S
S2426 N2427 1.613 . S
S2426 N2428 1.610 . S
N2427 S2426 1.613 . S
N2427 C2430 1.350 . S
N2428 S2426 1.610 . S
N2428 C2429 1.351 . S
C2429 C2423 1.428 . S
C2429 N2428 1.351 . S
C2429 C2430 1.434 . S
C2430 C2421 1.429 . S
C2430 N2427 1.350 . S
C2430 C2429 1.434 . S
C2431 C2432 1.369 . S
C2431 C2433 1.419 . S
C2431 H2435 0.930 . S
C2432 C2431 1.369 . S
C2432 C2441 1.429 . S
C2433 C2431 1.419 . S
C2433 C2434 1.363 . S
C2433 H2436 0.929 . S
C2434 C2433 1.363 . S
C2434 C2440 1.428 . S
H2435 C2431 0.930 . S
H2436 C2433 0.929 . S
S2437 N2438 1.613 . S
S2437 N2439 1.610 . S
N2438 S2437 1.613 . S
N2438 C2441 1.350 . S
N2439 S2437 1.610 . S
N2439 C2440 1.351 . S
C2440 C2434 1.428 . S
C2440 N2439 1.351 . S
C2440 C2441 1.434 . S
C2441 C2432 1.429 . S
C2441 N2438 1.350 . S
C2441 C2440 1.434 . S
C2442 C2443 1.369 . S
C2442 C2444 1.419 . S
C2442 H2446 0.930 . S
C2443 C2442 1.369 . S
C2443 C2452 1.429 . S
C2444 C2442 1.419 . S
C2444 C2445 1.363 . S
C2444 H2447 0.929 . S
C2445 C2444 1.363 . S
C2445 C2451 1.428 . S
H2446 C2442 0.930 . S
H2447 C2444 0.929 . S
S2448 N2449 1.613 . S
S2448 N2450 1.610 . S
N2449 S2448 1.613 . S
N2449 C2452 1.350 . S
N2450 S2448 1.610 . S
N2450 C2451 1.351 . S
C2451 C2445 1.428 . S
C2451 N2450 1.351 . S
C2451 C2452 1.434 . S
C2452 C2443 1.429 . S
C2452 N2449 1.350 . S
C2452 C2451 1.434 . S
C2453 C2454 1.369 . S
C2453 C2455 1.419 . S
C2453 H2457 0.930 . S
C2454 C2453 1.369 . S
C2454 C2463 1.429 . S
C2455 C2453 1.419 . S
C2455 C2456 1.363 . S
C2455 H2458 0.929 . S
C2456 C2455 1.363 . S
C2456 C2462 1.428 . S
H2457 C2453 0.930 . S
H2458 C2455 0.929 . S
S2459 N2460 1.613 . S
S2459 N2461 1.610 . S
N2460 S2459 1.613 . S
N2460 C2463 1.350 . S
N2461 S2459 1.610 . S
N2461 C2462 1.351 . S
C2462 C2456 1.428 . S
C2462 N2461 1.351 . S
C2462 C2463 1.434 . S
C2463 C2454 1.429 . S
C2463 N2460 1.350 . S
C2463 C2462 1.434 . S
C2464 C2465 1.369 . S
C2464 C2466 1.419 . S
C2464 H2468 0.930 . S
C2465 C2464 1.369 . S
C2465 C2474 1.429 . S
C2466 C2464 1.419 . S
C2466 C2467 1.363 . S
C2466 H2469 0.929 . S
C2467 C2466 1.363 . S
C2467 C2473 1.428 . S
H2468 C2464 0.930 . S
H2469 C2466 0.929 . S
S2470 N2471 1.613 . S
S2470 N2472 1.610 . S
N2471 S2470 1.613 . S
N2471 C2474 1.350 . S
N2472 S2470 1.610 . S
N2472 C2473 1.351 . S
C2473 C2467 1.428 . S
C2473 N2472 1.351 . S
C2473 C2474 1.434 . S
C2474 C2465 1.429 . S
C2474 N2471 1.350 . S
C2474 C2473 1.434 . S
C2475 C2476 1.369 . S
C2475 C2477 1.419 . S
C2475 H2479 0.930 . S
C2476 C2475 1.369 . S
C2476 C2485 1.429 . S
C2477 C2475 1.419 . S
C2477 C2478 1.363 . S
C2477 H2480 0.929 . S
C2478 C2477 1.363 . S
C2478 C2484 1.428 . S
H2479 C2475 0.930 . S
H2480 C2477 0.929 . S
S2481 N2482 1.613 . S
S2481 N2483 1.610 . S
N2482 S2481 1.613 . S
N2482 C2485 1.350 . S
N2483 S2481 1.610 . S
N2483 C2484 1.351 . S
C2484 C2478 1.428 . S
C2484 N2483 1.351 . S
C2484 C2485 1.434 . S
C2485 C2476 1.429 . S
C2485 N2482 1.350 . S
C2485 C2484 1.434 . S
C2486 C2487 1.369 . S
C2486 C2488 1.419 . S
C2486 H2490 0.930 . S
C2487 C2486 1.369 . S
C2487 C2496 1.429 . S
C2488 C2486 1.419 . S
C2488 C2489 1.363 . S
C2488 H2491 0.929 . S
C2489 C2488 1.363 . S
C2489 C2495 1.428 . S
H2490 C2486 0.930 . S
H2491 C2488 0.929 . S
S2492 N2493 1.613 . S
S2492 N2494 1.610 . S
N2493 S2492 1.613 . S
N2493 C2496 1.350 . S
N2494 S2492 1.610 . S
N2494 C2495 1.351 . S
C2495 C2489 1.428 . S
C2495 N2494 1.351 . S
C2495 C2496 1.434 . S
C2496 C2487 1.429 . S
C2496 N2493 1.350 . S
C2496 C2495 1.434 . S
C2497 C2498 1.369 . S
C2497 C2499 1.419 . S
C2497 H2501 0.930 . S
C2498 C2497 1.369 . S
C2498 C2507 1.429 . S
C2499 C2497 1.419 . S
C2499 C2500 1.363 . S
C2499 H2502 0.929 . S
C2500 C2499 1.363 . S
C2500 C2506 1.428 . S
H2501 C2497 0.930 . S
H2502 C2499 0.929 . S
S2503 N2504 1.613 . S
S2503 N2505 1.610 . S
N2504 S2503 1.613 . S
N2504 C2507 1.350 . S
N2505 S2503 1.610 . S
N2505 C2506 1.351 . S
C2506 C2500 1.428 . S
C2506 N2505 1.351 . S
C2506 C2507 1.434 . S
C2507 C2498 1.429 . S
C2507 N2504 1.350 . S
C2507 C2506 1.434 . S
C2508 C2509 1.369 . S
C2508 C2510 1.419 . S
C2508 H2512 0.930 . S
C2509 C2508 1.369 . S
C2509 C2518 1.429 . S
C2510 C2508 1.419 . S
C2510 C2511 1.363 . S
C2510 H2513 0.929 . S
C2511 C2510 1.363 . S
C2511 C2517 1.428 . S
H2512 C2508 0.930 . S
H2513 C2510 0.929 . S
S2514 N2515 1.613 . S
S2514 N2516 1.610 . S
N2515 S2514 1.613 . S
N2515 C2518 1.350 . S
N2516 S2514 1.610 . S
N2516 C2517 1.351 . S
C2517 C2511 1.428 . S
C2517 N2516 1.351 . S
C2517 C2518 1.434 . S
C2518 C2509 1.429 . S
C2518 N2515 1.350 . S
C2518 C2517 1.434 . S
C2519 C2520 1.369 . S
C2519 C2521 1.419 . S
C2519 H2523 0.930 . S
C2520 C2519 1.369 . S
C2520 C2529 1.429 . S
C2521 C2519 1.419 . S
C2521 C2522 1.363 . S
C2521 H2524 0.929 . S
C2522 C2521 1.363 . S
C2522 C2528 1.428 . S
H2523 C2519 0.930 . S
H2524 C2521 0.929 . S
S2525 N2526 1.613 . S
S2525 N2527 1.610 . S
N2526 S2525 1.613 . S
N2526 C2529 1.350 . S
N2527 S2525 1.610 . S
N2527 C2528 1.351 . S
C2528 C2522 1.428 . S
C2528 N2527 1.351 . S
C2528 C2529 1.434 . S
C2529 C2520 1.429 . S
C2529 N2526 1.350 . S
C2529 C2528 1.434 . S
C2530 C2531 1.369 . S
C2530 C2532 1.419 . S
C2530 H2534 0.930 . S
C2531 C2530 1.369 . S
C2531 C2540 1.429 . S
C2532 C2530 1.419 . S
C2532 C2533 1.363 . S
C2532 H2535 0.929 . S
C2533 C2532 1.363 . S
C2533 C2539 1.428 . S
H2534 C2530 0.930 . S
H2535 C2532 0.929 . S
S2536 N2537 1.613 . S
S2536 N2538 1.610 . S
N2537 S2536 1.613 . S
N2537 C2540 1.350 . S
N2538 S2536 1.610 . S
N2538 C2539 1.351 . S
C2539 C2533 1.428 . S
C2539 N2538 1.351 . S
C2539 C2540 1.434 . S
C2540 C2531 1.429 . S
C2540 N2537 1.350 . S
C2540 C2539 1.434 . S
C2541 C2542 1.369 . S
C2541 C2543 1.419 . S
C2541 H2545 0.930 . S
C2542 C2541 1.369 . S
C2542 C2551 1.429 . S
C2543 C2541 1.419 . S
C2543 C2544 1.363 . S
C2543 H2546 0.929 . S
C2544 C2543 1.363 . S
C2544 C2550 1.428 . S
H2545 C2541 0.930 . S
H2546 C2543 0.929 . S
S2547 N2548 1.613 . S
S2547 N2549 1.610 . S
N2548 S2547 1.613 . S
N2548 C2551 1.350 . S
N2549 S2547 1.610 . S
N2549 C2550 1.351 . S
C2550 C2544 1.428 . S
C2550 N2549 1.351 . S
C2550 C2551 1.434 . S
C2551 C2542 1.429 . S
C2551 N2548 1.350 . S
C2551 C2550 1.434 . S
C2552 C2553 1.369 . S
C2552 C2554 1.419 . S
C2552 H2556 0.930 . S
C2553 C2552 1.369 . S
C2553 C2562 1.429 . S
C2554 C2552 1.419 . S
C2554 C2555 1.363 . S
C2554 H2557 0.929 . S
C2555 C2554 1.363 . S
C2555 C2561 1.428 . S
H2556 C2552 0.930 . S
H2557 C2554 0.929 . S
S2558 N2559 1.613 . S
S2558 N2560 1.610 . S
N2559 S2558 1.613 . S
N2559 C2562 1.350 . S
N2560 S2558 1.610 . S
N2560 C2561 1.351 . S
C2561 C2555 1.428 . S
C2561 N2560 1.351 . S
C2561 C2562 1.434 . S
C2562 C2553 1.429 . S
C2562 N2559 1.350 . S
C2562 C2561 1.434 . S
C2563 C2564 1.369 . S
C2563 C2565 1.419 . S
C2563 H2567 0.930 . S
C2564 C2563 1.369 . S
C2564 C2573 1.429 . S
C2565 C2563 1.419 . S
C2565 C2566 1.363 . S
C2565 H2568 0.929 . S
C2566 C2565 1.363 . S
C2566 C2572 1.428 . S
H2567 C2563 0.930 . S
H2568 C2565 0.929 . S
S2569 N2570 1.613 . S
S2569 N2571 1.610 . S
N2570 S2569 1.613 . S
N2570 C2573 1.350 . S
N2571 S2569 1.610 . S
N2571 C2572 1.351 . S
C2572 C2566 1.428 . S
C2572 N2571 1.351 . S
C2572 C2573 1.434 . S
C2573 C2564 1.429 . S
C2573 N2570 1.350 . S
C2573 C2572 1.434 . S
C2574 C2575 1.369 . S
C2574 C2576 1.419 . S
C2574 H2578 0.930 . S
C2575 C2574 1.369 . S
C2575 C2584 1.429 . S
C2576 C2574 1.419 . S
C2576 C2577 1.363 . S
C2576 H2579 0.929 . S
C2577 C2576 1.363 . S
C2577 C2583 1.428 . S
H2578 C2574 0.930 . S
H2579 C2576 0.929 . S
S2580 N2581 1.613 . S
S2580 N2582 1.610 . S
N2581 S2580 1.613 . S
N2581 C2584 1.350 . S
N2582 S2580 1.610 . S
N2582 C2583 1.351 . S
C2583 C2577 1.428 . S
C2583 N2582 1.351 . S
C2583 C2584 1.434 . S
C2584 C2575 1.429 . S
C2584 N2581 1.350 . S
C2584 C2583 1.434 . S
C2585 C2586 1.369 . S
C2585 C2587 1.419 . S
C2585 H2589 0.930 . S
C2586 C2585 1.369 . S
C2586 C2595 1.429 . S
C2587 C2585 1.419 . S
C2587 C2588 1.363 . S
C2587 H2590 0.929 . S
C2588 C2587 1.363 . S
C2588 C2594 1.428 . S
H2589 C2585 0.930 . S
H2590 C2587 0.929 . S
S2591 N2592 1.613 . S
S2591 N2593 1.610 . S
N2592 S2591 1.613 . S
N2592 C2595 1.350 . S
N2593 S2591 1.610 . S
N2593 C2594 1.351 . S
C2594 C2588 1.428 . S
C2594 N2593 1.351 . S
C2594 C2595 1.434 . S
C2595 C2586 1.429 . S
C2595 N2592 1.350 . S
C2595 C2594 1.434 . S
C2596 C2597 1.369 . S
C2596 C2598 1.419 . S
C2596 H2600 0.930 . S
C2597 C2596 1.369 . S
C2597 C2606 1.429 . S
C2598 C2596 1.419 . S
C2598 C2599 1.363 . S
C2598 H2601 0.929 . S
C2599 C2598 1.363 . S
C2599 C2605 1.428 . S
H2600 C2596 0.930 . S
H2601 C2598 0.929 . S
S2602 N2603 1.613 . S
S2602 N2604 1.610 . S
N2603 S2602 1.613 . S
N2603 C2606 1.350 . S
N2604 S2602 1.610 . S
N2604 C2605 1.351 . S
C2605 C2599 1.428 . S
C2605 N2604 1.351 . S
C2605 C2606 1.434 . S
C2606 C2597 1.429 . S
C2606 N2603 1.350 . S
C2606 C2605 1.434 . S
C2607 C2608 1.369 . S
C2607 C2609 1.419 . S
C2607 H2611 0.930 . S
C2608 C2607 1.369 . S
C2608 C2617 1.429 . S
C2609 C2607 1.419 . S
C2609 C2610 1.363 . S
C2609 H2612 0.929 . S
C2610 C2609 1.363 . S
C2610 C2616 1.428 . S
H2611 C2607 0.930 . S
H2612 C2609 0.929 . S
S2613 N2614 1.613 . S
S2613 N2615 1.610 . S
N2614 S2613 1.613 . S
N2614 C2617 1.350 . S
N2615 S2613 1.610 . S
N2615 C2616 1.351 . S
C2616 C2610 1.428 . S
C2616 N2615 1.351 . S
C2616 C2617 1.434 . S
C2617 C2608 1.429 . S
C2617 N2614 1.350 . S
C2617 C2616 1.434 . S
C2618 C2619 1.369 . S
C2618 C2620 1.419 . S
C2618 H2622 0.930 . S
C2619 C2618 1.369 . S
C2619 C2628 1.429 . S
C2620 C2618 1.419 . S
C2620 C2621 1.363 . S
C2620 H2623 0.929 . S
C2621 C2620 1.363 . S
C2621 C2627 1.428 . S
H2622 C2618 0.930 . S
H2623 C2620 0.929 . S
S2624 N2625 1.613 . S
S2624 N2626 1.610 . S
N2625 S2624 1.613 . S
N2625 C2628 1.350 . S
N2626 S2624 1.610 . S
N2626 C2627 1.351 . S
C2627 C2621 1.428 . S
C2627 N2626 1.351 . S
C2627 C2628 1.434 . S
C2628 C2619 1.429 . S
C2628 N2625 1.350 . S
C2628 C2627 1.434 . S
C2629 C2630 1.369 . S
C2629 C2631 1.419 . S
C2629 H2633 0.930 . S
C2630 C2629 1.369 . S
C2630 C2639 1.429 . S
C2631 C2629 1.419 . S
C2631 C2632 1.363 . S
C2631 H2634 0.929 . S
C2632 C2631 1.363 . S
C2632 C2638 1.428 . S
H2633 C2629 0.930 . S
H2634 C2631 0.929 . S
S2635 N2636 1.613 . S
S2635 N2637 1.610 . S
N2636 S2635 1.613 . S
N2636 C2639 1.350 . S
N2637 S2635 1.610 . S
N2637 C2638 1.351 . S
C2638 C2632 1.428 . S
C2638 N2637 1.351 . S
C2638 C2639 1.434 . S
C2639 C2630 1.429 . S
C2639 N2636 1.350 . S
C2639 C2638 1.434 . S
C2640 C2641 1.369 . S
C2640 C2642 1.419 . S
C2640 H2644 0.930 . S
C2641 C2640 1.369 . S
C2641 C2650 1.429 . S
C2642 C2640 1.419 . S
C2642 C2643 1.363 . S
C2642 H2645 0.929 . S
C2643 C2642 1.363 . S
C2643 C2649 1.428 . S
H2644 C2640 0.930 . S
H2645 C2642 0.929 . S
S2646 N2647 1.613 . S
S2646 N2648 1.610 . S
N2647 S2646 1.613 . S
N2647 C2650 1.350 . S
N2648 S2646 1.610 . S
N2648 C2649 1.351 . S
C2649 C2643 1.428 . S
C2649 N2648 1.351 . S
C2649 C2650 1.434 . S
C2650 C2641 1.429 . S
C2650 N2647 1.350 . S
C2650 C2649 1.434 . S
C2651 C2652 1.369 . S
C2651 C2653 1.419 . S
C2651 H2655 0.930 . S
C2652 C2651 1.369 . S
C2652 C2661 1.429 . S
C2653 C2651 1.419 . S
C2653 C2654 1.363 . S
C2653 H2656 0.929 . S
C2654 C2653 1.363 . S
C2654 C2660 1.428 . S
H2655 C2651 0.930 . S
H2656 C2653 0.929 . S
S2657 N2658 1.613 . S
S2657 N2659 1.610 . S
N2658 S2657 1.613 . S
N2658 C2661 1.350 . S
N2659 S2657 1.610 . S
N2659 C2660 1.351 . S
C2660 C2654 1.428 . S
C2660 N2659 1.351 . S
C2660 C2661 1.434 . S
C2661 C2652 1.429 . S
C2661 N2658 1.350 . S
C2661 C2660 1.434 . S
C2662 C2663 1.369 . S
C2662 C2664 1.419 . S
C2662 H2666 0.930 . S
C2663 C2662 1.369 . S
C2663 C2672 1.429 . S
C2664 C2662 1.419 . S
C2664 C2665 1.363 . S
C2664 H2667 0.929 . S
C2665 C2664 1.363 . S
C2665 C2671 1.428 . S
H2666 C2662 0.930 . S
H2667 C2664 0.929 . S
S2668 N2669 1.613 . S
S2668 N2670 1.610 . S
N2669 S2668 1.613 . S
N2669 C2672 1.350 . S
N2670 S2668 1.610 . S
N2670 C2671 1.351 . S
C2671 C2665 1.428 . S
C2671 N2670 1.351 . S
C2671 C2672 1.434 . S
C2672 C2663 1.429 . S
C2672 N2669 1.350 . S
C2672 C2671 1.434 . S
C2673 C2674 1.369 . S
C2673 C2675 1.419 . S
C2673 H2677 0.930 . S
C2674 C2673 1.369 . S
C2674 C2683 1.429 . S
C2675 C2673 1.419 . S
C2675 C2676 1.363 . S
C2675 H2678 0.929 . S
C2676 C2675 1.363 . S
C2676 C2682 1.428 . S
H2677 C2673 0.930 . S
H2678 C2675 0.929 . S
S2679 N2680 1.613 . S
S2679 N2681 1.610 . S
N2680 S2679 1.613 . S
N2680 C2683 1.350 . S
N2681 S2679 1.610 . S
N2681 C2682 1.351 . S
C2682 C2676 1.428 . S
C2682 N2681 1.351 . S
C2682 C2683 1.434 . S
C2683 C2674 1.429 . S
C2683 N2680 1.350 . S
C2683 C2682 1.434 . S
C2684 C2685 1.369 . S
C2684 C2686 1.419 . S
C2684 H2688 0.930 . S
C2685 C2684 1.369 . S
C2685 C2694 1.429 . S
C2686 C2684 1.419 . S
C2686 C2687 1.363 . S
C2686 H2689 0.929 . S
C2687 C2686 1.363 . S
C2687 C2693 1.428 . S
H2688 C2684 0.930 . S
H2689 C2686 0.929 . S
S2690 N2691 1.613 . S
S2690 N2692 1.610 . S
N2691 S2690 1.613 . S
N2691 C2694 1.350 . S
N2692 S2690 1.610 . S
N2692 C2693 1.351 . S
C2693 C2687 1.428 . S
C2693 N2692 1.351 . S
C2693 C2694 1.434 . S
C2694 C2685 1.429 . S
C2694 N2691 1.350 . S
C2694 C2693 1.434 . S
C2695 C2696 1.369 . S
C2695 C2697 1.419 . S
C2695 H2699 0.930 . S
C2696 C2695 1.369 . S
C2696 C2705 1.429 . S
C2697 C2695 1.419 . S
C2697 C2698 1.363 . S
C2697 H2700 0.929 . S
C2698 C2697 1.363 . S
C2698 C2704 1.428 . S
H2699 C2695 0.930 . S
H2700 C2697 0.929 . S
S2701 N2702 1.613 . S
S2701 N2703 1.610 . S
N2702 S2701 1.613 . S
N2702 C2705 1.350 . S
N2703 S2701 1.610 . S
N2703 C2704 1.351 . S
C2704 C2698 1.428 . S
C2704 N2703 1.351 . S
C2704 C2705 1.434 . S
C2705 C2696 1.429 . S
C2705 N2702 1.350 . S
C2705 C2704 1.434 . S
C2706 C2707 1.369 . S
C2706 C2708 1.419 . S
C2706 H2710 0.930 . S
C2707 C2706 1.369 . S
C2707 C2716 1.429 . S
C2708 C2706 1.419 . S
C2708 C2709 1.363 . S
C2708 H2711 0.929 . S
C2709 C2708 1.363 . S
C2709 C2715 1.428 . S
H2710 C2706 0.930 . S
H2711 C2708 0.929 . S
S2712 N2713 1.613 . S
S2712 N2714 1.610 . S
N2713 S2712 1.613 . S
N2713 C2716 1.350 . S
N2714 S2712 1.610 . S
N2714 C2715 1.351 . S
C2715 C2709 1.428 . S
C2715 N2714 1.351 . S
C2715 C2716 1.434 . S
C2716 C2707 1.429 . S
C2716 N2713 1.350 . S
C2716 C2715 1.434 . S
C2717 C2718 1.369 . S
C2717 C2719 1.419 . S
C2717 H2721 0.930 . S
C2718 C2717 1.369 . S
C2718 C2727 1.429 . S
C2719 C2717 1.419 . S
C2719 C2720 1.363 . S
C2719 H2722 0.929 . S
C2720 C2719 1.363 . S
C2720 C2726 1.428 . S
H2721 C2717 0.930 . S
H2722 C2719 0.929 . S
S2723 N2724 1.613 . S
S2723 N2725 1.610 . S
N2724 S2723 1.613 . S
N2724 C2727 1.350 . S
N2725 S2723 1.610 . S
N2725 C2726 1.351 . S
C2726 C2720 1.428 . S
C2726 N2725 1.351 . S
C2726 C2727 1.434 . S
C2727 C2718 1.429 . S
C2727 N2724 1.350 . S
C2727 C2726 1.434 . S
C2728 C2729 1.369 . S
C2728 C2730 1.419 . S
C2728 H2732 0.930 . S
C2729 C2728 1.369 . S
C2729 C2738 1.429 . S
C2730 C2728 1.419 . S
C2730 C2731 1.363 . S
C2730 H2733 0.929 . S
C2731 C2730 1.363 . S
C2731 C2737 1.428 . S
H2732 C2728 0.930 . S
H2733 C2730 0.929 . S
S2734 N2735 1.613 . S
S2734 N2736 1.610 . S
N2735 S2734 1.613 . S
N2735 C2738 1.350 . S
N2736 S2734 1.610 . S
N2736 C2737 1.351 . S
C2737 C2731 1.428 . S
C2737 N2736 1.351 . S
C2737 C2738 1.434 . S
C2738 C2729 1.429 . S
C2738 N2735 1.350 . S
C2738 C2737 1.434 . S
C2739 C2740 1.369 . S
C2739 C2741 1.419 . S
C2739 H2743 0.930 . S
C2740 C2739 1.369 . S
C2740 C2749 1.429 . S
C2741 C2739 1.419 . S
C2741 C2742 1.363 . S
C2741 H2744 0.929 . S
C2742 C2741 1.363 . S
C2742 C2748 1.428 . S
H2743 C2739 0.930 . S
H2744 C2741 0.929 . S
S2745 N2746 1.613 . S
S2745 N2747 1.610 . S
N2746 S2745 1.613 . S
N2746 C2749 1.350 . S
N2747 S2745 1.610 . S
N2747 C2748 1.351 . S
C2748 C2742 1.428 . S
C2748 N2747 1.351 . S
C2748 C2749 1.434 . S
C2749 C2740 1.429 . S
C2749 N2746 1.350 . S
C2749 C2748 1.434 . S
C2750 C2751 1.369 . S
C2750 C2752 1.419 . S
C2750 H2754 0.930 . S
C2751 C2750 1.369 . S
C2751 C2760 1.429 . S
C2752 C2750 1.419 . S
C2752 C2753 1.363 . S
C2752 H2755 0.929 . S
C2753 C2752 1.363 . S
C2753 C2759 1.428 . S
H2754 C2750 0.930 . S
H2755 C2752 0.929 . S
S2756 N2757 1.613 . S
S2756 N2758 1.610 . S
N2757 S2756 1.613 . S
N2757 C2760 1.350 . S
N2758 S2756 1.610 . S
N2758 C2759 1.351 . S
C2759 C2753 1.428 . S
C2759 N2758 1.351 . S
C2759 C2760 1.434 . S
C2760 C2751 1.429 . S
C2760 N2757 1.350 . S
C2760 C2759 1.434 . S
C2761 C2762 1.369 . S
C2761 C2763 1.419 . S
C2761 H2765 0.930 . S
C2762 C2761 1.369 . S
C2762 C2771 1.429 . S
C2763 C2761 1.419 . S
C2763 C2764 1.363 . S
C2763 H2766 0.929 . S
C2764 C2763 1.363 . S
C2764 C2770 1.428 . S
H2765 C2761 0.930 . S
H2766 C2763 0.929 . S
S2767 N2768 1.613 . S
S2767 N2769 1.610 . S
N2768 S2767 1.613 . S
N2768 C2771 1.350 . S
N2769 S2767 1.610 . S
N2769 C2770 1.351 . S
C2770 C2764 1.428 . S
C2770 N2769 1.351 . S
C2770 C2771 1.434 . S
C2771 C2762 1.429 . S
C2771 N2768 1.350 . S
C2771 C2770 1.434 . S
C2772 C2773 1.369 . S
C2772 C2774 1.419 . S
C2772 H2776 0.930 . S
C2773 C2772 1.369 . S
C2773 C2782 1.429 . S
C2774 C2772 1.419 . S
C2774 C2775 1.363 . S
C2774 H2777 0.929 . S
C2775 C2774 1.363 . S
C2775 C2781 1.428 . S
H2776 C2772 0.930 . S
H2777 C2774 0.929 . S
S2778 N2779 1.613 . S
S2778 N2780 1.610 . S
N2779 S2778 1.613 . S
N2779 C2782 1.350 . S
N2780 S2778 1.610 . S
N2780 C2781 1.351 . S
C2781 C2775 1.428 . S
C2781 N2780 1.351 . S
C2781 C2782 1.434 . S
C2782 C2773 1.429 . S
C2782 N2779 1.350 . S
C2782 C2781 1.434 . S
C2783 C2784 1.369 . S
C2783 C2785 1.419 . S
C2783 H2787 0.930 . S
C2784 C2783 1.369 . S
C2784 C2793 1.429 . S
C2785 C2783 1.419 . S
C2785 C2786 1.363 . S
C2785 H2788 0.929 . S
C2786 C2785 1.363 . S
C2786 C2792 1.428 . S
H2787 C2783 0.930 . S
H2788 C2785 0.929 . S
S2789 N2790 1.613 . S
S2789 N2791 1.610 . S
N2790 S2789 1.613 . S
N2790 C2793 1.350 . S
N2791 S2789 1.610 . S
N2791 C2792 1.351 . S
C2792 C2786 1.428 . S
C2792 N2791 1.351 . S
C2792 C2793 1.434 . S
C2793 C2784 1.429 . S
C2793 N2790 1.350 . S
C2793 C2792 1.434 . S
C2794 C2795 1.369 . S
C2794 C2796 1.419 . S
C2794 H2798 0.930 . S
C2795 C2794 1.369 . S
C2795 C2804 1.429 . S
C2796 C2794 1.419 . S
C2796 C2797 1.363 . S
C2796 H2799 0.929 . S
C2797 C2796 1.363 . S
C2797 C2803 1.428 . S
H2798 C2794 0.930 . S
H2799 C2796 0.929 . S
S2800 N2801 1.613 . S
S2800 N2802 1.610 . S
N2801 S2800 1.613 . S
N2801 C2804 1.350 . S
N2802 S2800 1.610 . S
N2802 C2803 1.351 . S
C2803 C2797 1.428 . S
C2803 N2802 1.351 . S
C2803 C2804 1.434 . S
C2804 C2795 1.429 . S
C2804 N2801 1.350 . S
C2804 C2803 1.434 . S
C2805 C2806 1.369 . S
C2805 C2807 1.419 . S
C2805 H2809 0.930 . S
C2806 C2805 1.369 . S
C2806 C2815 1.429 . S
C2807 C2805 1.419 . S
C2807 C2808 1.363 . S
C2807 H2810 0.929 . S
C2808 C2807 1.363 . S
C2808 C2814 1.428 . S
H2809 C2805 0.930 . S
H2810 C2807 0.929 . S
S2811 N2812 1.613 . S
S2811 N2813 1.610 . S
N2812 S2811 1.613 . S
N2812 C2815 1.350 . S
N2813 S2811 1.610 . S
N2813 C2814 1.351 . S
C2814 C2808 1.428 . S
C2814 N2813 1.351 . S
C2814 C2815 1.434 . S
C2815 C2806 1.429 . S
C2815 N2812 1.350 . S
C2815 C2814 1.434 . S
C2816 C2817 1.369 . S
C2816 C2818 1.419 . S
C2816 H2820 0.930 . S
C2817 C2816 1.369 . S
C2817 C2826 1.429 . S
C2818 C2816 1.419 . S
C2818 C2819 1.363 . S
C2818 H2821 0.929 . S
C2819 C2818 1.363 . S
C2819 C2825 1.428 . S
H2820 C2816 0.930 . S
H2821 C2818 0.929 . S
S2822 N2823 1.613 . S
S2822 N2824 1.610 . S
N2823 S2822 1.613 . S
N2823 C2826 1.350 . S
N2824 S2822 1.610 . S
N2824 C2825 1.351 . S
C2825 C2819 1.428 . S
C2825 N2824 1.351 . S
C2825 C2826 1.434 . S
C2826 C2817 1.429 . S
C2826 N2823 1.350 . S
C2826 C2825 1.434 . S
C2827 C2828 1.369 . S
C2827 C2829 1.419 . S
C2827 H2831 0.930 . S
C2828 C2827 1.369 . S
C2828 C2837 1.429 . S
C2829 C2827 1.419 . S
C2829 C2830 1.363 . S
C2829 H2832 0.929 . S
C2830 C2829 1.363 . S
C2830 C2836 1.428 . S
H2831 C2827 0.930 . S
H2832 C2829 0.929 . S
S2833 N2834 1.613 . S
S2833 N2835 1.610 . S
N2834 S2833 1.613 . S
N2834 C2837 1.350 . S
N2835 S2833 1.610 . S
N2835 C2836 1.351 . S
C2836 C2830 1.428 . S
C2836 N2835 1.351 . S
C2836 C2837 1.434 . S
C2837 C2828 1.429 . S
C2837 N2834 1.350 . S
C2837 C2836 1.434 . S
C2838 C2839 1.369 . S
C2838 C2840 1.419 . S
C2838 H2842 0.930 . S
C2839 C2838 1.369 . S
C2839 C2848 1.429 . S
C2840 C2838 1.419 . S
C2840 C2841 1.363 . S
C2840 H2843 0.929 . S
C2841 C2840 1.363 . S
C2841 C2847 1.428 . S
H2842 C2838 0.930 . S
H2843 C2840 0.929 . S
S2844 N2845 1.613 . S
S2844 N2846 1.610 . S
N2845 S2844 1.613 . S
N2845 C2848 1.350 . S
N2846 S2844 1.610 . S
N2846 C2847 1.351 . S
C2847 C2841 1.428 . S
C2847 N2846 1.351 . S
C2847 C2848 1.434 . S
C2848 C2839 1.429 . S
C2848 N2845 1.350 . S
C2848 C2847 1.434 . S
C2849 C2850 1.369 . S
C2849 C2851 1.419 . S
C2849 H2853 0.930 . S
C2850 C2849 1.369 . S
C2850 C2859 1.429 . S
C2851 C2849 1.419 . S
C2851 C2852 1.363 . S
C2851 H2854 0.929 . S
C2852 C2851 1.363 . S
C2852 C2858 1.428 . S
H2853 C2849 0.930 . S
H2854 C2851 0.929 . S
S2855 N2856 1.613 . S
S2855 N2857 1.610 . S
N2856 S2855 1.613 . S
N2856 C2859 1.350 . S
N2857 S2855 1.610 . S
N2857 C2858 1.351 . S
C2858 C2852 1.428 . S
C2858 N2857 1.351 . S
C2858 C2859 1.434 . S
C2859 C2850 1.429 . S
C2859 N2856 1.350 . S
C2859 C2858 1.434 . S
C2860 C2861 1.369 . S
C2860 C2862 1.419 . S
C2860 H2864 0.930 . S
C2861 C2860 1.369 . S
C2861 C2870 1.429 . S
C2862 C2860 1.419 . S
C2862 C2863 1.363 . S
C2862 H2865 0.929 . S
C2863 C2862 1.363 . S
C2863 C2869 1.428 . S
H2864 C2860 0.930 . S
H2865 C2862 0.929 . S
S2866 N2867 1.613 . S
S2866 N2868 1.610 . S
N2867 S2866 1.613 . S
N2867 C2870 1.350 . S
N2868 S2866 1.610 . S
N2868 C2869 1.351 . S
C2869 C2863 1.428 . S
C2869 N2868 1.351 . S
C2869 C2870 1.434 . S
C2870 C2861 1.429 . S
C2870 N2867 1.350 . S
C2870 C2869 1.434 . S
C2871 C2872 1.369 . S
C2871 C2873 1.419 . S
C2871 H2875 0.930 . S
C2872 C2871 1.369 . S
C2872 C2881 1.429 . S
C2873 C2871 1.419 . S
C2873 C2874 1.363 . S
C2873 H2876 0.929 . S
C2874 C2873 1.363 . S
C2874 C2880 1.428 . S
H2875 C2871 0.930 . S
H2876 C2873 0.929 . S
S2877 N2878 1.613 . S
S2877 N2879 1.610 . S
N2878 S2877 1.613 . S
N2878 C2881 1.350 . S
N2879 S2877 1.610 . S
N2879 C2880 1.351 . S
C2880 C2874 1.428 . S
C2880 N2879 1.351 . S
C2880 C2881 1.434 . S
C2881 C2872 1.429 . S
C2881 N2878 1.350 . S
C2881 C2880 1.434 . S
C2882 C2883 1.369 . S
C2882 C2884 1.419 . S
C2882 H2886 0.930 . S
C2883 C2882 1.369 . S
C2883 C2892 1.429 . S
C2884 C2882 1.419 . S
C2884 C2885 1.363 . S
C2884 H2887 0.929 . S
C2885 C2884 1.363 . S
C2885 C2891 1.428 . S
H2886 C2882 0.930 . S
H2887 C2884 0.929 . S
S2888 N2889 1.613 . S
S2888 N2890 1.610 . S
N2889 S2888 1.613 . S
N2889 C2892 1.350 . S
N2890 S2888 1.610 . S
N2890 C2891 1.351 . S
C2891 C2885 1.428 . S
C2891 N2890 1.351 . S
C2891 C2892 1.434 . S
C2892 C2883 1.429 . S
C2892 N2889 1.350 . S
C2892 C2891 1.434 . S
C2893 C2894 1.369 . S
C2893 C2895 1.419 . S
C2893 H2897 0.930 . S
C2894 C2893 1.369 . S
C2894 C2903 1.429 . S
C2895 C2893 1.419 . S
C2895 C2896 1.363 . S
C2895 H2898 0.929 . S
C2896 C2895 1.363 . S
C2896 C2902 1.428 . S
H2897 C2893 0.930 . S
H2898 C2895 0.929 . S
S2899 N2900 1.613 . S
S2899 N2901 1.610 . S
N2900 S2899 1.613 . S
N2900 C2903 1.350 . S
N2901 S2899 1.610 . S
N2901 C2902 1.351 . S
C2902 C2896 1.428 . S
C2902 N2901 1.351 . S
C2902 C2903 1.434 . S
C2903 C2894 1.429 . S
C2903 N2900 1.350 . S
C2903 C2902 1.434 . S
C1585 C549 1.021 . S
C1587 C21 1.021 . S
C1596 C54 1.010 . S
C1598 C978 1.010 . S
C1607 C615 1.006 . S
C1609 C87 1.006 . S
C1618 C1044 0.942 . S
C1620 C120 0.940 . S
C1629 C153 1.026 . S
C1631 C417 1.026 . S
C1640 C846 1.044 . S
C1642 C186 1.045 . S
C1651 C483 1.005 . S
C1653 C219 1.005 1_655 S
C1662 C252 0.997 . S
C1664 C912 0.999 . S
C1673 C285 0.928 . S
C1675 C1572 0.928 . S
C1684 C318 1.104 . S
C1686 C1539 1.104 . S
C1695 C351 1.099 . S
C1697 C1506 1.098 . S
C1706 C1473 0.938 . S
C1708 C384 0.936 . S
C1717 C1374 1.009 . S
C1719 C450 1.010 . S
C1728 C516 0.944 . S
C1730 C1440 0.945 . S
C1739 C1242 1.045 . S
C1741 C582 1.044 . S
C1750 C648 0.995 . S
C1752 C1308 0.993 . S
C1761 C681 0.926 . S
C1763 C1176 0.926 . S
C1772 C1143 1.100 . S
C1774 C714 1.099 . S
C1783 C1110 1.102 . S
C1785 C747 1.100 . S
C1794 C780 0.935 . S
C1796 C1077 0.935 . S
C1805 C813 1.005 . S
C1807 C1341 1.004 . S
C1816 C879 1.024 . S
C1818 C1407 1.024 . S
C1827 C945 1.000 . S
C1829 C1209 1.001 . S
C1838 C1011 1.023 . S
C1840 C1275 1.023 . S
C1849 C117 1.720 . S
C1851 N13 1.582 . S
C1860 N35 1.510 . S
C1862 C7 1.678 . S
C1871 C51 1.705 . S
C1873 N68 1.530 . S
C1882 N101 1.510 . S
C1884 C84 1.686 . S
C1893 N134 1.533 . S
C1895 C172 1.688 . S
C1904 C216 1.773 . S
C1906 N178 1.632 . S
C1915 N200 1.549 . S
C1917 C238 1.711 . S
C1926 N244 1.600 . S
C1928 C150 1.731 . S
C1937 N112 1.567 . S
C1939 C282 1.692 . S
C1948 C348 1.717 . S
C1950 N2 1.533 . S
C1959 C381 1.722 . S
C1961 N46 1.586 . S
C1970 C304 1.695 . S
C1972 N79 1.585 . S
C1981 C315 1.736 . S
C1983 N167 1.562 . S
C1992 C271 1.665 . S
C1994 N211 1.551 . S
C2003 N233 1.578 . S
C2005 C337 1.733 . S
C2014 N145 1.534 . S
C2016 C370 1.651 . S
C2025 C18 1.679 . S
C2027 N277 1.559 . S
C2036 C139 1.739 . S
C2038 N310 1.620 . S
C2047 N266 1.489 . S
C2049 C183 1.659 . S
C2058 C205 1.719 . S
C2060 N332 1.567 . S
C2069 N365 1.509 . S
C2071 C249 1.677 . S
C2080 C73 1.654 . S
C2082 N376 1.544 . S
C2091 N299 1.531 . S
C2093 C106 1.693 . S
C2102 C40 1.769 . S
C2104 N343 1.650 . S
C2113 C513 1.688 . S
C2115 N409 1.557 . S
C2124 C403 1.684 . S
C2126 N431 1.507 . S
C2135 N464 1.504 . S
C2137 C447 1.693 . S
C2146 N497 1.485 . S
C2148 C480 1.666 . S
C2157 N530 1.546 . S
C2159 C568 1.712 . S
C2168 N574 1.648 . S
C2170 C612 1.788 . S
C2179 N596 1.544 . S
C2181 C634 1.709 . S
C2190 C546 1.757 . S
C2192 N640 1.632 . S
C2201 C678 1.672 . S
C2203 N508 1.548 . S
C2212 C744 1.723 . S
C2214 N398 1.549 . S
C2223 N442 1.597 . S
C2225 C777 1.721 . S
C2234 C711 1.718 . S
C2236 N475 1.600 . S
C2245 C700 1.712 . S
C2247 N563 1.553 . S
C2256 N607 1.546 . S
C2258 C667 1.662 . S
C2267 C733 1.721 . S
C2269 N629 1.567 . S
C2278 C766 1.663 . S
C2280 N541 1.561 . S
C2289 N673 1.560 . S
C2291 C414 1.674 . S
C2300 C535 1.723 . S
C2302 N695 1.565 . S
C2311 N662 1.480 . S
C2313 C579 1.664 . S
C2322 N728 1.560 . S
C2324 C601 1.735 . S
C2333 N761 1.497 . S
C2335 C645 1.686 . S
C2344 N772 1.549 . S
C2346 C469 1.648 . S
C2355 C502 1.704 . S
C2357 N706 1.592 . S
C2366 N739 1.650 . S
C2368 C436 1.752 . S
C2377 N805 1.589 . S
C2379 C909 1.709 . S
C2388 N827 1.532 . S
C2390 C799 1.694 . S
C2399 N860 1.551 . S
C2401 C843 1.734 . S
C2410 C876 1.648 . S
C2412 N893 1.479 . S
C2421 N926 1.554 . S
C2423 C964 1.723 . S
C2432 N970 1.631 . S
C2434 C1008 1.755 . S
C2443 N992 1.526 . S
C2445 C1030 1.702 . S
C2454 C942 1.717 . S
C2456 N1036 1.596 . S
C2465 N904 1.532 . S
C2467 C1074 1.672 . S
C2476 N794 1.550 . S
C2478 C1129 1.711 . S
C2487 C1173 1.737 . S
C2489 N838 1.610 . S
C2498 C1107 1.736 . S
C2500 N871 1.619 . S
C2509 C1096 1.675 . S
C2511 N959 1.521 . S
C2520 C1063 1.649 . S
C2522 N1003 1.543 . S
C2531 C1140 1.720 . S
C2533 N1025 1.541 . S
C2542 C1162 1.684 . S
C2544 N937 1.575 . S
C2553 N1069 1.548 . S
C2555 C810 1.665 . S
C2564 C931 1.698 . S
C2566 N1091 1.522 . S
C2575 N1058 1.506 . S
C2577 C975 1.679 . S
C2586 C997 1.722 . S
C2588 N1135 1.613 . S
C2597 N1157 1.518 . S
C2599 C1041 1.690 . S
C2608 N1168 1.532 . S
C2610 C865 1.635 . S
C2619 N1102 1.626 . S
C2621 C898 1.739 . S
C2630 N1124 1.611 . S
C2632 C832 1.770 . S
C2641 N1201 1.607 . S
C2643 C1305 1.741 . S
C2652 N1223 1.533 . S
C2654 C1195 1.691 . S
C2663 N1256 1.559 . S
C2665 C1239 1.753 . S
C2674 N1289 1.487 . S
C2676 C1272 1.675 . S
C2685 N1322 1.540 . S
C2687 C1360 1.700 . S
C2696 N1366 1.612 . S
C2698 C1404 1.741 . S
C2707 N1388 1.528 . S
C2709 C1426 1.704 . S
C2718 N1432 1.559 . S
C2720 C1338 1.693 . S
C2729 N1300 1.550 . S
C2731 C1470 1.692 . S
C2740 N1190 1.545 . S
C2742 C1525 1.699 . S
C2751 N1234 1.604 . S
C2753 C1569 1.735 . S
C2762 N1267 1.600 . S
C2764 C1492 1.715 . S
C2773 C1503 1.702 . S
C2775 N1355 1.525 . S
C2784 C1459 1.652 . S
C2786 N1399 1.545 . S
C2795 N1421 1.544 . S
C2797 C1536 1.733 . S
C2806 N1333 1.557 . S
C2808 C1558 1.668 . S
C2817 C1206 1.668 . S
C2819 N1465 1.549 . S
C2828 N1498 1.597 . S
C2830 C1327 1.705 . S
C2839 C1371 1.679 . S
C2841 N1454 1.499 . S
C2850 N1531 1.599 . S
C2852 C1393 1.713 . S
C2861 C1437 1.685 . S
C2863 N1553 1.512 . S
C2872 C1261 1.639 . S
C2874 N1564 1.531 . S
C2883 N1487 1.569 . S
C2885 C1294 1.730 . S
C2894 C1228 1.788 . S
C2896 N1520 1.605 . S
