# Generated by pormake.
# Topology uox, (4)-cn, num edge types: 1
# Building blocks:
#     Node 0, Type 0, BuildingBlock: ICAMEG_clean_sbu_1, # of connection points: 4
#     Node 1, Type 0, BuildingBlock: ICAMEG_clean_sbu_1, # of connection points: 4
#     Node 2, Type 0, BuildingBlock: ICAMEG_clean_sbu_1, # of connection points: 4
#     Node 3, Type 0, BuildingBlock: ICAMEG_clean_sbu_1, # of connection points: 4
#     Node 4, Type 0, BuildingBlock: ICAMEG_clean_sbu_1, # of connection points: 4
#     Node 5, Type 0, BuildingBlock: ICAMEG_clean_sbu_1, # of connection points: 4
#     Node 6, Type 0, BuildingBlock: ICAMEG_clean_sbu_1, # of connection points: 4
#     Node 7, Type 0, BuildingBlock: ICAMEG_clean_sbu_1, # of connection points: 4
#     Node 8, Type 0, BuildingBlock: ICAMEG_clean_sbu_1, # of connection points: 4
#     Node 9, Type 0, BuildingBlock: ICAMEG_clean_sbu_1, # of connection points: 4
#     Node 10, Type 0, BuildingBlock: ICAMEG_clean_sbu_1, # of connection points: 4
#     Node 11, Type 0, BuildingBlock: ICAMEG_clean_sbu_1, # of connection points: 4
#     Node 12, Type 0, BuildingBlock: ICAMEG_clean_sbu_1, # of connection points: 4
#     Node 13, Type 0, BuildingBlock: ICAMEG_clean_sbu_1, # of connection points: 4
#     Node 14, Type 0, BuildingBlock: ICAMEG_clean_sbu_1, # of connection points: 4
#     Node 15, Type 0, BuildingBlock: ICAMEG_clean_sbu_1, # of connection points: 4
#     Node 16, Type 0, BuildingBlock: ICAMEG_clean_sbu_1, # of connection points: 4
#     Node 17, Type 0, BuildingBlock: ICAMEG_clean_sbu_1, # of connection points: 4
#     Node 18, Type 0, BuildingBlock: ICAMEG_clean_sbu_1, # of connection points: 4
#     Node 19, Type 0, BuildingBlock: ICAMEG_clean_sbu_1, # of connection points: 4
#     Node 20, Type 0, BuildingBlock: ICAMEG_clean_sbu_1, # of connection points: 4
#     Node 21, Type 0, BuildingBlock: ICAMEG_clean_sbu_1, # of connection points: 4
#     Node 22, Type 0, BuildingBlock: ICAMEG_clean_sbu_1, # of connection points: 4
#     Node 23, Type 0, BuildingBlock: ICAMEG_clean_sbu_1, # of connection points: 4
#     Node 24, Type 0, BuildingBlock: ICAMEG_clean_sbu_1, # of connection points: 4
#     Node 25, Type 0, BuildingBlock: ICAMEG_clean_sbu_1, # of connection points: 4
#     Node 26, Type 0, BuildingBlock: ICAMEG_clean_sbu_1, # of connection points: 4
#     Node 27, Type 0, BuildingBlock: ICAMEG_clean_sbu_1, # of connection points: 4
#     Node 28, Type 0, BuildingBlock: ICAMEG_clean_sbu_1, # of connection points: 4
#     Node 29, Type 0, BuildingBlock: ICAMEG_clean_sbu_1, # of connection points: 4
#     Node 30, Type 0, BuildingBlock: ICAMEG_clean_sbu_1, # of connection points: 4
#     Node 31, Type 0, BuildingBlock: ICAMEG_clean_sbu_1, # of connection points: 4
#     Edge 32, Type (0, 0), BuildingBlock: KIFKEQ_clean_linker_1, # of connection points: 2
#     Edge 33, Type (0, 0), BuildingBlock: KIFKEQ_clean_linker_1, # of connection points: 2
#     Edge 34, Type (0, 0), BuildingBlock: KIFKEQ_clean_linker_1, # of connection points: 2
#     Edge 35, Type (0, 0), BuildingBlock: KIFKEQ_clean_linker_1, # of connection points: 2
#     Edge 36, Type (0, 0), BuildingBlock: KIFKEQ_clean_linker_1, # of connection points: 2
#     Edge 37, Type (0, 0), BuildingBlock: KIFKEQ_clean_linker_1, # of connection points: 2
#     Edge 38, Type (0, 0), BuildingBlock: KIFKEQ_clean_linker_1, # of connection points: 2
#     Edge 39, Type (0, 0), BuildingBlock: KIFKEQ_clean_linker_1, # of connection points: 2
#     Edge 40, Type (0, 0), BuildingBlock: KIFKEQ_clean_linker_1, # of connection points: 2
#     Edge 41, Type (0, 0), BuildingBlock: KIFKEQ_clean_linker_1, # of connection points: 2
#     Edge 42, Type (0, 0), BuildingBlock: KIFKEQ_clean_linker_1, # of connection points: 2
#     Edge 43, Type (0, 0), BuildingBlock: KIFKEQ_clean_linker_1, # of connection points: 2
#     Edge 44, Type (0, 0), BuildingBlock: KIFKEQ_clean_linker_1, # of connection points: 2
#     Edge 45, Type (0, 0), BuildingBlock: KIFKEQ_clean_linker_1, # of connection points: 2
#     Edge 46, Type (0, 0), BuildingBlock: KIFKEQ_clean_linker_1, # of connection points: 2
#     Edge 47, Type (0, 0), BuildingBlock: KIFKEQ_clean_linker_1, # of connection points: 2
#     Edge 48, Type (0, 0), BuildingBlock: KIFKEQ_clean_linker_1, # of connection points: 2
#     Edge 49, Type (0, 0), BuildingBlock: KIFKEQ_clean_linker_1, # of connection points: 2
#     Edge 50, Type (0, 0), BuildingBlock: KIFKEQ_clean_linker_1, # of connection points: 2
#     Edge 51, Type (0, 0), BuildingBlock: KIFKEQ_clean_linker_1, # of connection points: 2
#     Edge 52, Type (0, 0), BuildingBlock: KIFKEQ_clean_linker_1, # of connection points: 2
#     Edge 53, Type (0, 0), BuildingBlock: KIFKEQ_clean_linker_1, # of connection points: 2
#     Edge 54, Type (0, 0), BuildingBlock: KIFKEQ_clean_linker_1, # of connection points: 2
#     Edge 55, Type (0, 0), BuildingBlock: KIFKEQ_clean_linker_1, # of connection points: 2
#     Edge 56, Type (0, 0), BuildingBlock: KIFKEQ_clean_linker_1, # of connection points: 2
#     Edge 57, Type (0, 0), BuildingBlock: KIFKEQ_clean_linker_1, # of connection points: 2
#     Edge 58, Type (0, 0), BuildingBlock: KIFKEQ_clean_linker_1, # of connection points: 2
#     Edge 59, Type (0, 0), BuildingBlock: KIFKEQ_clean_linker_1, # of connection points: 2
#     Edge 60, Type (0, 0), BuildingBlock: KIFKEQ_clean_linker_1, # of connection points: 2
#     Edge 61, Type (0, 0), BuildingBlock: KIFKEQ_clean_linker_1, # of connection points: 2
#     Edge 62, Type (0, 0), BuildingBlock: KIFKEQ_clean_linker_1, # of connection points: 2
#     Edge 63, Type (0, 0), BuildingBlock: KIFKEQ_clean_linker_1, # of connection points: 2
#     Edge 64, Type (0, 0), BuildingBlock: KIFKEQ_clean_linker_1, # of connection points: 2
#     Edge 65, Type (0, 0), BuildingBlock: KIFKEQ_clean_linker_1, # of connection points: 2
#     Edge 66, Type (0, 0), BuildingBlock: KIFKEQ_clean_linker_1, # of connection points: 2
#     Edge 67, Type (0, 0), BuildingBlock: KIFKEQ_clean_linker_1, # of connection points: 2
#     Edge 68, Type (0, 0), BuildingBlock: KIFKEQ_clean_linker_1, # of connection points: 2
#     Edge 69, Type (0, 0), BuildingBlock: KIFKEQ_clean_linker_1, # of connection points: 2
#     Edge 70, Type (0, 0), BuildingBlock: KIFKEQ_clean_linker_1, # of connection points: 2
#     Edge 71, Type (0, 0), BuildingBlock: KIFKEQ_clean_linker_1, # of connection points: 2
#     Edge 72, Type (0, 0), BuildingBlock: KIFKEQ_clean_linker_1, # of connection points: 2
#     Edge 73, Type (0, 0), BuildingBlock: KIFKEQ_clean_linker_1, # of connection points: 2
#     Edge 74, Type (0, 0), BuildingBlock: KIFKEQ_clean_linker_1, # of connection points: 2
#     Edge 75, Type (0, 0), BuildingBlock: KIFKEQ_clean_linker_1, # of connection points: 2
#     Edge 76, Type (0, 0), BuildingBlock: KIFKEQ_clean_linker_1, # of connection points: 2
#     Edge 77, Type (0, 0), BuildingBlock: KIFKEQ_clean_linker_1, # of connection points: 2
#     Edge 78, Type (0, 0), BuildingBlock: KIFKEQ_clean_linker_1, # of connection points: 2
#     Edge 79, Type (0, 0), BuildingBlock: KIFKEQ_clean_linker_1, # of connection points: 2
#     Edge 80, Type (0, 0), BuildingBlock: KIFKEQ_clean_linker_1, # of connection points: 2
#     Edge 81, Type (0, 0), BuildingBlock: KIFKEQ_clean_linker_1, # of connection points: 2
#     Edge 82, Type (0, 0), BuildingBlock: KIFKEQ_clean_linker_1, # of connection points: 2
#     Edge 83, Type (0, 0), BuildingBlock: KIFKEQ_clean_linker_1, # of connection points: 2
#     Edge 84, Type (0, 0), BuildingBlock: KIFKEQ_clean_linker_1, # of connection points: 2
#     Edge 85, Type (0, 0), BuildingBlock: KIFKEQ_clean_linker_1, # of connection points: 2
#     Edge 86, Type (0, 0), BuildingBlock: KIFKEQ_clean_linker_1, # of connection points: 2
#     Edge 87, Type (0, 0), BuildingBlock: KIFKEQ_clean_linker_1, # of connection points: 2
#     Edge 88, Type (0, 0), BuildingBlock: KIFKEQ_clean_linker_1, # of connection points: 2
#     Edge 89, Type (0, 0), BuildingBlock: KIFKEQ_clean_linker_1, # of connection points: 2
#     Edge 90, Type (0, 0), BuildingBlock: KIFKEQ_clean_linker_1, # of connection points: 2
#     Edge 91, Type (0, 0), BuildingBlock: KIFKEQ_clean_linker_1, # of connection points: 2
#     Edge 92, Type (0, 0), BuildingBlock: KIFKEQ_clean_linker_1, # of connection points: 2
#     Edge 93, Type (0, 0), BuildingBlock: KIFKEQ_clean_linker_1, # of connection points: 2
#     Edge 94, Type (0, 0), BuildingBlock: KIFKEQ_clean_linker_1, # of connection points: 2
#     Edge 95, Type (0, 0), BuildingBlock: KIFKEQ_clean_linker_1, # of connection points: 2
# Relax obj value: 0.070
# Max RMSD: 0.115
# Mean RMSD: 0.115
data_MOF--net-uox--node1-ICAMEG_clean_sbu_1--edge1-KIFKEQ_clean_linker_1
_symmetry_space_group_name_H-M    P1
_symmetry_Int_Tables_number       1
_symmetry_cell_setting            triclinic
loop_
_symmetry_equiv_pos_as_xyz
'x, y, z'
_cell_length_a     48.885514
_cell_length_b     48.877519
_cell_length_c     85.503219
_cell_angle_alpha  89.971039
_cell_angle_beta   90.019904
_cell_angle_gamma 90.009743
loop_
_atom_site_label
_atom_site_type_symbol
_atom_site_fract_x
_atom_site_fract_y
_atom_site_fract_z
_atom_type_partial_charge
Co0 Co 0.42161 0.05277 0.14714 0.0
Co1 Co 0.42501 0.08936 0.18138 0.0
O2 O 0.41517 0.05606 0.16974 0.0
C3 C 0.36282 0.03497 0.1484 0.0
O4 O 0.35632 0.058 0.15538 0.0
C5 C 0.4423 0.04254 0.20236 0.0
O6 O 0.44517 0.02656 0.19016 0.0
O7 O 0.46354 0.08702 0.17363 0.0
O8 O 0.45604 0.07488 0.14871 0.0
H9 H 0.46843 0.18189 0.18764 0.0
H10 H 0.4115 1.00178 0.16507 0.0
O11 O 0.38761 0.03003 0.14478 0.0
H12 H 0.50348 0.99077 0.14226 0.0
H13 H 0.42388 1.00301 0.09558 0.0
H14 H 0.43894 0.09122 0.1222 0.0
H15 H 0.47669 0.03261 0.13734 0.0
H16 H 0.41673 0.00725 0.12402 0.0
O17 O 0.4351 0.06742 0.2006 0.0
H18 H 0.45534 0.14001 0.17342 0.0
H19 H 0.41606 0.10907 0.21407 0.0
H20 H 0.44652 0.08783 0.09376 0.0
H21 H 0.43741 0.95936 0.17004 0.0
H22 H 0.43899 0.04347 0.08026 0.0
H23 H 0.48381 0.95372 0.15867 0.0
O24 O 0.40037 0.08687 0.14315 0.0
H25 H 0.33784 0.05132 0.20368 0.0
H26 H 0.38346 0.13404 0.18346 0.0
H27 H 0.33544 0.13676 0.19209 0.0
H28 H 0.31232 0.09519 0.20234 0.0
H29 H 0.38577 0.04948 0.19478 0.0
H30 H 0.42894 0.15052 0.22875 0.0
H31 H 0.45522 0.18735 0.21552 0.0
O32 O 0.41483 0.11303 0.16302 0.0
C33 C 0.4715 0.0843 0.15948 0.0
C34 C 0.45692 0.16602 0.19353 0.0
C35 C 0.43479 0.14839 0.21661 0.0
N36 N 0.43482 0.12217 0.19287 0.0
C37 C 0.4494 0.14227 0.18553 0.0
C38 C 0.42762 0.12493 0.20824 0.0
C39 C 0.44952 0.16905 0.20917 0.0
C40 C 0.43156 0.99936 0.15994 0.0
N41 N 0.44257 0.01971 0.15097 0.0
C42 C 0.44619 0.97535 0.16286 0.0
C43 C 0.47224 0.97222 0.1565 0.0
C44 C 0.48331 0.99302 0.14732 0.0
C45 C 0.46809 0.01675 0.14465 0.0
C46 C 0.42728 0.02244 0.10133 0.0
C47 C 0.43574 0.07181 0.11643 0.0
C48 C 0.4232 0.02499 0.11743 0.0
N49 N 0.42759 0.04942 0.12479 0.0
C50 C 0.44001 0.07003 0.10031 0.0
C51 C 0.43576 0.04515 0.09274 0.0
C52 C 0.403 0.11008 0.14979 0.0
C53 C 0.34772 0.06959 0.19929 0.0
C54 C 0.37355 0.11585 0.18786 0.0
C55 C 0.34635 0.11753 0.19276 0.0
C56 C 0.3334 0.09421 0.19852 0.0
N57 N 0.3875 0.09166 0.18872 0.0
C58 C 0.3749 0.0687 0.1943 0.0
Co59 Co 0.20493 0.17511 0.39951 0.0
Co60 Co 0.16674 0.17825 0.43305 0.0
O61 O 0.20041 0.16836 0.42194 0.0
C62 C 0.22177 0.11613 0.40057 0.0
O63 O 0.19833 0.10985 0.40716 0.0
C64 C 0.21102 0.20014 0.45396 0.0
O65 O 0.22334 0.21029 0.44161 0.0
O66 O 0.16956 0.21697 0.4255 0.0
O67 O 0.18304 0.2096 0.40081 0.0
H68 H 0.07429 0.22211 0.43851 0.0
H69 H 0.25398 0.16479 0.41899 0.0
O70 O 0.22744 0.14096 0.39738 0.0
H71 H 0.26783 0.25658 0.39635 0.0
H72 H 0.2577 0.17796 0.34895 0.0
H73 H 0.16798 0.19273 0.37389 0.0
H74 H 0.22646 0.22988 0.39006 0.0
H75 H 0.25177 0.17051 0.37727 0.0
O76 O 0.18843 0.1874 0.45242 0.0
H77 H 0.11657 0.20905 0.42469 0.0
H78 H 0.14588 0.16884 0.46543 0.0
H79 H 0.17305 0.20063 0.34556 0.0
H80 H 0.29582 0.19067 0.42546 0.0
H81 H 0.21818 0.19324 0.3329 0.0
H82 H 0.30289 0.23695 0.41414 0.0
O83 O 0.17088 0.15424 0.39484 0.0
H84 H 0.20312 0.09056 0.45559 0.0
H85 H 0.12174 0.1369 0.43416 0.0
H86 H 0.11836 0.08872 0.44249 0.0
H87 H 0.15924 0.06524 0.45333 0.0
H88 H 0.20565 0.13867 0.44699 0.0
H89 H 0.10401 0.18168 0.47974 0.0
H90 H 0.0678 0.20842 0.46624 0.0
O91 O 0.14375 0.16864 0.41431 0.0
C92 C 0.17297 0.22499 0.4114 0.0
C93 C 0.08989 0.21042 0.44451 0.0
C94 C 0.10659 0.18776 0.46765 0.0
N95 N 0.13363 0.1881 0.44422 0.0
C96 C 0.11386 0.20291 0.43673 0.0
C97 C 0.1303 0.18062 0.45951 0.0
C98 C 0.08628 0.20274 0.46007 0.0
C99 C 0.25706 0.18481 0.4139 0.0
N100 N 0.23785 0.19576 0.40412 0.0
C101 C 0.28072 0.19941 0.41766 0.0
C102 C 0.28466 0.22539 0.41133 0.0
C103 C 0.26498 0.23643 0.40135 0.0
C104 C 0.24155 0.22125 0.39788 0.0
C105 C 0.23794 0.1813 0.35433 0.0
C106 C 0.18772 0.18961 0.36849 0.0
C107 C 0.23445 0.17706 0.37036 0.0
N108 N 0.2096 0.18139 0.37726 0.0
C109 C 0.19045 0.19406 0.35243 0.0
C110 C 0.21577 0.18988 0.34534 0.0
C111 C 0.14735 0.15691 0.40111 0.0
C112 C 0.18515 0.10059 0.45092 0.0
C113 C 0.13965 0.12681 0.4388 0.0
C114 C 0.13759 0.09954 0.44354 0.0
C115 C 0.16053 0.08638 0.44963 0.0
N116 N 0.16385 0.14063 0.44014 0.0
C117 C 0.18644 0.12785 0.44608 0.0
Co118 Co 0.08732 0.95764 0.64627 0.0
Co119 Co 0.08489 0.92141 0.68095 0.0
O120 O 0.09407 0.95447 0.66886 0.0
C121 C 0.14654 0.97379 0.64735 0.0
O122 O 0.15233 0.9512 0.65498 0.0
C123 C 0.06677 0.96882 0.70135 0.0
O124 O 0.06541 0.98495 0.68913 0.0
O125 O 0.04642 0.92183 0.67282 0.0
O126 O 0.05244 0.9367 0.64823 0.0
H127 H 0.04477 0.8276 0.68812 0.0
H128 H 0.09968 0.00847 0.66385 0.0
O129 O 0.12194 0.97913 0.64349 0.0
H130 H 0.00745 0.02234 0.64187 0.0
H131 H 0.08515 0.00689 0.59451 0.0
H132 H 0.06787 0.91956 0.62167 0.0
H133 H 0.03266 0.97957 0.6369 0.0
H134 H 0.09301 1.00273 0.6229 0.0
O135 O 0.07337 0.94374 0.69975 0.0
H136 H 0.05683 0.86931 0.67342 0.0
H137 H 0.09334 0.90351 0.71405 0.0
H138 H 0.05954 0.92289 0.59329 0.0
H139 H 0.0754 0.0518 0.66886 0.0
H140 H 0.06819 0.96681 0.57952 0.0
H141 H 0.02887 0.05889 0.65791 0.0
O142 O 0.10738 0.92286 0.64213 0.0
H143 H 0.17015 0.96388 0.70313 0.0
H144 H 0.12773 0.87831 0.68467 0.0
H145 H 0.17555 0.87776 0.69379 0.0
H146 H 0.19707 0.92078 0.70316 0.0
H147 H 0.1225 0.96352 0.69374 0.0
H148 H 0.08145 0.86227 0.72921 0.0
H149 H 0.05709 0.82389 0.71623 0.0
O150 O 0.09649 0.89746 0.66308 0.0
C151 C 0.03777 0.92582 0.65889 0.0
C152 C 0.05545 0.84415 0.6939 0.0
C153 C 0.07599 0.86363 0.71697 0.0
N154 N 0.0759 0.88877 0.69283 0.0
C155 C 0.06239 0.8678 0.68563 0.0
C156 C 0.0826 0.88697 0.70833 0.0
C157 C 0.06234 0.8421 0.70967 0.0
C158 C 0.07956 0.0115 0.6589 0.0
N159 N 0.06758 0.99143 0.65014 0.0
C160 C 0.06585 0.03604 0.66185 0.0
C161 C 0.03973 0.03998 0.65572 0.0
C162 C 0.02768 0.01946 0.64675 0.0
C163 C 0.04199 0.99519 0.64406 0.0
C164 C 0.08128 0.98765 0.60038 0.0
C165 C 0.07158 0.93878 0.61578 0.0
C166 C 0.08577 0.98515 0.61645 0.0
N167 N 0.0808 0.96095 0.62396 0.0
C168 C 0.06687 0.94052 0.5997 0.0
C169 C 0.07176 0.96516 0.59198 0.0
C170 C 0.10654 0.90006 0.64937 0.0
C171 C 0.16098 0.94498 0.69912 0.0
C172 C 0.13696 0.89712 0.68864 0.0
C173 C 0.16404 0.89668 0.69384 0.0
C174 C 0.17609 0.92081 0.69911 0.0
N175 N 0.12223 0.92088 0.68872 0.0
C176 C 0.13394 0.94463 0.69385 0.0
Co177 Co 0.30024 0.83728 0.89885 0.0
Co178 Co 0.33946 0.83349 0.93206 0.0
O179 O 0.30568 0.84394 0.92122 0.0
C180 C 0.28452 0.89676 0.89956 0.0
O181 O 0.30869 0.90321 0.90516 0.0
C182 C 0.2958 0.81123 0.95313 0.0
O183 O 0.28337 0.80108 0.94082 0.0
O184 O 0.33609 0.79492 0.92443 0.0
O185 O 0.32119 0.80224 0.89999 0.0
H186 H 0.43149 0.78844 0.93672 0.0
H187 H 0.25244 0.84875 0.91909 0.0
O188 O 0.27838 0.87185 0.89695 0.0
H189 H 0.23478 0.75774 0.89635 0.0
H190 H 0.24585 0.83586 0.8488 0.0
H191 H 0.33572 0.81808 0.87296 0.0
H192 H 0.27657 0.78331 0.8895 0.0
H193 H 0.25289 0.84335 0.87704 0.0
O194 O 0.31816 0.82431 0.95152 0.0
H195 H 0.38907 0.80221 0.92323 0.0
H196 H 0.36119 0.84228 0.96432 0.0
H197 H 0.3295 0.81011 0.84471 0.0
H198 H 0.21022 0.82401 0.92614 0.0
H199 H 0.28429 0.81902 0.83245 0.0
H200 H 0.20122 0.77813 0.91478 0.0
O201 O 0.33478 0.85725 0.89374 0.0
H202 H 0.30462 0.92128 0.95519 0.0
H203 H 0.38493 0.87433 0.93295 0.0
H204 H 0.38906 0.92236 0.94142 0.0
H205 H 0.34872 0.94614 0.95268 0.0
H206 H 0.30134 0.87331 0.94644 0.0
H207 H 0.40322 0.82876 0.97828 0.0
H208 H 0.43878 0.80173 0.96445 0.0
O209 O 0.362 0.84298 0.91323 0.0
C210 C 0.33156 0.78681 0.91046 0.0
C211 C 0.41617 0.80027 0.94286 0.0
C212 C 0.40029 0.82286 0.9662 0.0
N213 N 0.37272 0.82314 0.94295 0.0
C214 C 0.39213 0.80817 0.93528 0.0
C215 C 0.37649 0.83039 0.95824 0.0
C216 C 0.42024 0.80771 0.95842 0.0
C217 C 0.24855 0.82889 0.91399 0.0
N218 N 0.26694 0.81751 0.90387 0.0
C219 C 0.22465 0.81494 0.91807 0.0
C220 C 0.21964 0.78918 0.91171 0.0
C221 C 0.23848 0.77772 0.90139 0.0
C222 C 0.26216 0.79225 0.89759 0.0
C223 C 0.26563 0.83188 0.85401 0.0
C224 C 0.31595 0.82189 0.86773 0.0
C225 C 0.26977 0.83615 0.86999 0.0
N226 N 0.29466 0.83102 0.87666 0.0
C227 C 0.31257 0.81739 0.85172 0.0
C228 C 0.28721 0.82242 0.84484 0.0
C229 C 0.35838 0.8544 0.89995 0.0
C230 C 0.32236 0.91112 0.95034 0.0
C231 C 0.36725 0.88456 0.93777 0.0
C232 C 0.36973 0.91174 0.94259 0.0
C233 C 0.3471 0.92507 0.94891 0.0
N234 N 0.34293 0.87099 0.93925 0.0
C235 C 0.32064 0.88394 0.94541 0.0
Co236 Co 0.42118 0.95797 0.36845 0.0
Co237 Co 0.42471 0.92102 0.33428 0.0
O238 O 0.41452 0.95426 0.34589 0.0
C239 C 0.36188 0.97435 0.36768 0.0
O240 O 0.3555 0.95117 0.36082 0.0
C241 C 0.44213 0.9678 0.31335 0.0
O242 O 0.44542 0.98362 0.32559 0.0
O243 O 0.46324 0.92359 0.34204 0.0
O244 O 0.45609 0.93684 0.3668 0.0
H245 H 0.46883 0.82882 0.3281 0.0
H246 H 0.40942 0.00826 0.35025 0.0
O247 O 0.38671 0.9798 0.37095 0.0
H248 H 0.50122 0.02253 0.37273 0.0
H249 H 0.42311 0.00829 0.41986 0.0
H250 H 0.44002 0.92027 0.39341 0.0
H251 H 0.47572 0.98002 0.37801 0.0
H252 H 0.41557 1.0036 0.39147 0.0
O253 O 0.43463 0.943 0.31507 0.0
H254 H 0.45541 0.87062 0.34229 0.0
H255 H 0.41591 0.90117 0.30161 0.0
H256 H 0.44804 0.92413 0.4218 0.0
H257 H 0.434 0.05133 0.34491 0.0
H258 H 0.43956 0.9684 0.43521 0.0
H259 H 0.48031 0.05862 0.35612 0.0
O260 O 0.40086 0.92336 0.37271 0.0
H261 H 0.33731 0.95829 0.31184 0.0
H262 H 0.38347 0.87603 0.33228 0.0
H263 H 0.33546 0.87292 0.32363 0.0
H264 H 0.31207 0.91425 0.31328 0.0
H265 H 0.38523 0.96053 0.32076 0.0
H266 H 0.42909 0.85979 0.28695 0.0
H267 H 0.45566 0.8232 0.30022 0.0
O268 O 0.41475 0.89736 0.35264 0.0
C269 C 0.47142 0.92708 0.35609 0.0
C270 C 0.4572 0.84459 0.3222 0.0
C271 C 0.43493 0.86199 0.2991 0.0
N272 N 0.43476 0.88826 0.32282 0.0
C273 C 0.44949 0.86828 0.33018 0.0
C274 C 0.42758 0.88541 0.30745 0.0
C275 C 0.44982 0.84146 0.30655 0.0
C276 C 0.42945 0.01139 0.3553 0.0
N277 N 0.44114 0.99157 0.36438 0.0
C278 C 0.44332 0.03577 0.35218 0.0
C279 C 0.46932 0.03982 0.35845 0.0
C280 C 0.48108 0.01956 0.36774 0.0
C281 C 0.46661 0.99544 0.37061 0.0
C282 C 0.4269 0.9889 0.41414 0.0
C283 C 0.4364 0.93964 0.39914 0.0
C284 C 0.4226 0.9861 0.39807 0.0
N285 N 0.42747 0.96171 0.39076 0.0
C286 C 0.44092 0.94168 0.41523 0.0
C287 C 0.43615 0.96652 0.42275 0.0
C288 C 0.40336 0.90019 0.36599 0.0
C289 C 0.3473 0.94012 0.31628 0.0
C290 C 0.37343 0.89412 0.32784 0.0
C291 C 0.34625 0.89222 0.32292 0.0
C292 C 0.33314 0.91541 0.31711 0.0
N293 N 0.38722 0.9184 0.32693 0.0
C294 C 0.37448 0.94124 0.32129 0.0
Co295 Co 0.30409 0.17388 0.61613 0.0
Co296 Co 0.3428 0.17666 0.58267 0.0
O297 O 0.30921 0.16658 0.5938 0.0
C298 C 0.28872 0.11434 0.61572 0.0
O299 O 0.31257 0.10814 0.60961 0.0
C300 C 0.29858 0.19856 0.56176 0.0
O301 O 0.28651 0.20894 0.57412 0.0
O302 O 0.33979 0.21544 0.59003 0.0
O303 O 0.3248 0.209 0.61454 0.0
H304 H 0.43494 0.22112 0.57705 0.0
H305 H 0.25602 0.16144 0.59627 0.0
O306 O 0.28254 0.13919 0.61849 0.0
H307 H 0.2382 0.25307 0.61811 0.0
H308 H 0.25046 0.17654 0.6664 0.0
H309 H 0.33987 0.19403 0.64165 0.0
H310 H 0.28026 0.228 0.62502 0.0
H311 H 0.25711 0.16823 0.63821 0.0
O312 O 0.32102 0.18554 0.56327 0.0
H313 H 0.39277 0.20783 0.59093 0.0
H314 H 0.36369 0.16714 0.55031 0.0
H315 H 0.33404 0.20285 0.66985 0.0
H316 H 0.21352 0.18567 0.58918 0.0
H317 H 0.28907 0.19409 0.68241 0.0
H318 H 0.20444 0.23187 0.6001 0.0
O319 O 0.33876 0.15421 0.62128 0.0
H320 H 0.30696 0.08855 0.56041 0.0
H321 H 0.38803 0.13558 0.58173 0.0
H322 H 0.39171 0.08735 0.57358 0.0
H323 H 0.35098 0.06352 0.56279 0.0
H324 H 0.30414 0.13673 0.56883 0.0
H325 H 0.40546 0.18018 0.53595 0.0
H326 H 0.4415 0.20727 0.54936 0.0
O327 O 0.36577 0.16739 0.60144 0.0
C328 C 0.3352 0.22406 0.60389 0.0
C329 C 0.41942 0.20926 0.5711 0.0
C330 C 0.40285 0.18632 0.54802 0.0
N331 N 0.37584 0.18662 0.57147 0.0
C332 C 0.39552 0.20163 0.5789 0.0
C333 C 0.37921 0.17906 0.5562 0.0
C334 C 0.42307 0.20151 0.55555 0.0
C335 C 0.25209 0.18144 0.60117 0.0
N336 N 0.27059 0.19327 0.61106 0.0
C337 C 0.22804 0.1951 0.59707 0.0
C338 C 0.22298 0.22104 0.60318 0.0
C339 C 0.24193 0.23296 0.61327 0.0
C340 C 0.26577 0.21871 0.6171 0.0
C341 C 0.27014 0.18047 0.66106 0.0
C342 C 0.3202 0.19029 0.64701 0.0
C343 C 0.27406 0.17573 0.64511 0.0
N344 N 0.29882 0.18078 0.63827 0.0
C345 C 0.31704 0.19526 0.66299 0.0
C346 C 0.29181 0.19032 0.67003 0.0
C347 C 0.36226 0.15651 0.61489 0.0
C348 C 0.32487 0.09873 0.56506 0.0
C349 C 0.37019 0.12534 0.57711 0.0
C350 C 0.37242 0.09804 0.57247 0.0
C351 C 0.34956 0.08468 0.56641 0.0
N352 N 0.34591 0.13899 0.57571 0.0
C353 C 0.32341 0.12603 0.5698 0.0
Co354 Co 0.08419 0.05561 0.8679 0.0
Co355 Co 0.08323 0.09069 0.83311 0.0
O356 O 0.09171 0.05769 0.84535 0.0
C357 C 0.14232 0.03677 0.86707 0.0
O358 O 0.14862 0.0588 0.85903 0.0
C359 C 0.06654 0.04334 0.81228 0.0
O360 O 0.06393 0.02731 0.82449 0.0
O361 O 0.04431 0.08932 0.84023 0.0
O362 O 0.05054 0.07873 0.86555 0.0
H363 H 0.04236 0.18394 0.82502 0.0
H364 H 0.0938 1.00347 0.85105 0.0
O365 O 0.11761 0.03236 0.87109 0.0
H366 H 1.00032 0.99621 0.8723 0.0
H367 H 0.07857 0.0082 0.92012 0.0
H368 H 0.06659 0.09553 0.89203 0.0
H369 H 0.02805 0.03752 0.87702 0.0
H370 H 0.08699 0.01105 0.89173 0.0
O371 O 0.0735 0.0683 0.81401 0.0
H372 H 0.05372 0.14228 0.83995 0.0
H373 H 0.09418 0.10896 0.80033 0.0
H374 H 0.05777 0.09354 0.92039 0.0
H375 H 0.06695 0.96157 0.84629 0.0
H376 H 0.06375 0.04963 0.93463 0.0
H377 H 0.01979 0.95781 0.85689 0.0
O378 O 0.10611 0.08921 0.87171 0.0
H379 H 0.17062 0.05007 0.81269 0.0
H380 H 0.12582 0.13441 0.83119 0.0
H381 H 0.1743 0.13582 0.82331 0.0
H382 H 0.19701 0.09344 0.81393 0.0
H383 H 0.12225 0.04953 0.82083 0.0
H384 H 0.08303 0.15015 0.78495 0.0
H385 H 0.05704 0.18807 0.79731 0.0
O386 O 0.09303 0.1149 0.85134 0.0
C387 C 0.03589 0.08775 0.85432 0.0
C388 C 0.05374 0.16759 0.81951 0.0
C389 C 0.07654 0.1486 0.79702 0.0
N390 N 0.07471 0.12325 0.82106 0.0
C391 C 0.06028 0.14396 0.82792 0.0
C392 C 0.08272 0.12529 0.80578 0.0
C393 C 0.06197 0.16988 0.80396 0.0
C394 C 0.0734 1.00188 0.85583 0.0
N395 N 0.06251 0.02296 0.86426 0.0
C396 C 0.05825 0.97815 0.85304 0.0
C397 C 0.03177 0.97607 0.85897 0.0
C398 C 0.02082 0.99763 0.86759 0.0
C399 C 0.03658 0.02105 0.87015 0.0
C400 C 0.07585 0.02744 0.91404 0.0
C401 C 0.06911 0.07631 0.89812 0.0
C402 C 0.08065 0.0292 0.89797 0.0
N403 N 0.07714 0.0534 0.8902 0.0
C404 C 0.06414 0.07533 0.91419 0.0
C405 C 0.06753 0.05069 0.92218 0.0
C406 C 0.10423 0.1122 0.86477 0.0
C407 C 0.16092 0.06869 0.81669 0.0
C408 C 0.13555 0.11587 0.82716 0.0
C409 C 0.163 0.11681 0.82268 0.0
C410 C 0.17573 0.09303 0.81742 0.0
N411 N 0.12112 0.09195 0.82636 0.0
C412 C 0.13349 0.06854 0.82125 0.0
Co413 Co 0.20222 0.83566 0.1162 0.0
Co414 Co 0.16659 0.83746 0.08157 0.0
O415 O 0.1998 0.84414 0.09382 0.0
C416 C 0.22167 0.89361 0.11593 0.0
O417 O 0.19928 0.9004 0.10838 0.0
C418 C 0.21049 0.81315 0.06121 0.0
O419 O 0.22168 0.80176 0.07357 0.0
O420 O 0.16594 0.79825 0.08841 0.0
O421 O 0.17871 0.80242 0.11355 0.0
H422 H 0.07166 0.80111 0.07287 0.0
H423 H 0.25314 0.84503 0.09818 0.0
O424 O 0.22602 0.8687 0.11959 0.0
H425 H 0.26083 0.75105 0.11872 0.0
H426 H 0.25105 0.82737 0.16785 0.0
H427 H 0.1629 0.81706 0.14042 0.0
H428 H 0.22036 0.77927 0.12471 0.0
H429 H 0.24743 0.83714 0.13962 0.0
O430 O 0.18895 0.82759 0.06264 0.0
H431 H 0.11363 0.81019 0.08802 0.0
H432 H 0.14919 0.85011 0.04884 0.0
H433 H 0.16565 0.80689 0.16862 0.0
H434 H 0.29412 0.81761 0.09203 0.0
H435 H 0.20997 0.81203 0.18253 0.0
H436 H 0.2981 0.77023 0.1023 0.0
O437 O 0.16878 0.85766 0.1207 0.0
H438 H 0.21193 0.92305 0.06193 0.0
H439 H 0.12502 0.8822 0.07949 0.0
H440 H 0.12626 0.93089 0.072 0.0
H441 H 0.16997 0.95162 0.0631 0.0
H442 H 0.20977 0.87449 0.0697 0.0
H443 H 0.10772 0.8412 0.03322 0.0
H444 H 0.06853 0.81664 0.04526 0.0
O445 O 0.14284 0.84784 0.09979 0.0
C446 C 0.16831 0.78887 0.10228 0.0
C447 C 0.08858 0.81187 0.0675 0.0
C448 C 0.10884 0.83434 0.04524 0.0
N449 N 0.1338 0.83075 0.06935 0.0
C450 C 0.11238 0.81712 0.07603 0.0
C451 C 0.13231 0.83923 0.05413 0.0
C452 C 0.08685 0.82057 0.05201 0.0
C453 C 0.25486 0.82452 0.10281 0.0
N454 N 0.23445 0.81381 0.11185 0.0
C455 C 0.27806 0.80906 0.09924 0.0
C456 C 0.28026 0.78246 0.10498 0.0
C457 C 0.25934 0.77167 0.11419 0.0
C458 C 0.23644 0.78773 0.11751 0.0
C459 C 0.23163 0.82502 0.16192 0.0
C460 C 0.18229 0.81923 0.14636 0.0
C461 C 0.22944 0.8306 0.14594 0.0
N462 N 0.20501 0.82756 0.13836 0.0
C463 C 0.18371 0.81349 0.16235 0.0
C464 C 0.20858 0.81641 0.17015 0.0
C465 C 0.14584 0.85746 0.11358 0.0
C466 C 0.19275 0.91425 0.06578 0.0
C467 C 0.14413 0.89111 0.07577 0.0
C468 C 0.14469 0.91867 0.07146 0.0
C469 C 0.16921 0.93028 0.06646 0.0
N470 N 0.16729 0.87552 0.07508 0.0
C471 C 0.19139 0.88675 0.07016 0.0
Co472 Co 0.58647 0.95449 0.86488 0.0
Co473 Co 0.58271 0.91283 0.83278 0.0
O474 O 0.59356 0.94731 0.84275 0.0
C475 C 0.64617 0.96991 0.86495 0.0
O476 O 0.65294 0.94515 0.8604 0.0
C477 C 0.56137 0.9551 0.81058 0.0
O478 O 0.5503 0.96764 0.82259 0.0
O479 O 0.54403 0.91772 0.83985 0.0
O480 O 0.5513 0.93352 0.86409 0.0
H481 H 0.53556 0.82161 0.82993 0.0
H482 H 0.5983 1.0007 0.84354 0.0
O483 O 0.62109 0.97648 0.8665 0.0
H484 H 0.50702 0.02018 0.86539 0.0
H485 H 0.58412 0.01243 0.91357 0.0
H486 H 0.56694 0.92084 0.89149 0.0
H487 H 0.53242 0.97891 0.8734 0.0
H488 H 0.59207 1.00339 0.88558 0.0
O489 O 0.57471 0.93299 0.81268 0.0
H490 H 0.5499 0.8647 0.84249 0.0
H491 H 0.59202 0.88849 0.80123 0.0
H492 H 0.55847 0.92906 0.91952 0.0
H493 H 0.57374 0.04238 0.8353 0.0
H494 H 0.56708 0.97513 0.93074 0.0
H495 H 0.52772 0.05229 0.84622 0.0
O496 O 0.60641 0.92041 0.87078 0.0
H497 H 0.67209 0.94343 0.80963 0.0
H498 H 0.62245 0.86648 0.83387 0.0
H499 H 0.67064 0.86043 0.82608 0.0
H500 H 0.69577 0.89907 0.81384 0.0
H501 H 0.62393 0.94865 0.81771 0.0
H502 H 0.57796 0.84575 0.78817 0.0
H503 H 0.5496 0.81191 0.80257 0.0
O504 O 0.59096 0.89147 0.8524 0.0
C505 C 0.53577 0.92305 0.85368 0.0
C506 C 0.54797 0.83616 0.82355 0.0
C507 C 0.57174 0.84973 0.8001 0.0
N508 N 0.57192 0.87901 0.82264 0.0
C509 C 0.55621 0.86056 0.83061 0.0
C510 C 0.57958 0.87393 0.80754 0.0
C511 C 0.55584 0.83074 0.80819 0.0
C512 C 0.57838 0.005 0.84843 0.0
N513 N 0.56684 0.98741 0.85896 0.0
C514 C 0.56453 0.02858 0.84369 0.0
C515 C 0.53869 0.0341 0.8498 0.0
C516 C 0.52706 0.01608 0.86054 0.0
C517 C 0.5415 0.99269 0.865 0.0
C518 C 0.58027 0.99227 0.90882 0.0
C519 C 0.57063 0.94098 0.89626 0.0
C520 C 0.58482 0.98701 0.89298 0.0
N521 N 0.57986 0.96164 0.88688 0.0
C522 C 0.56584 0.94549 0.91216 0.0
C523 C 0.5707 0.97134 0.91845 0.0
C524 C 0.60292 0.89629 0.86541 0.0
C525 C 0.66133 0.92642 0.81492 0.0
C526 C 0.63326 0.88341 0.82858 0.0
C527 C 0.66053 0.87985 0.82417 0.0
C528 C 0.67461 0.90153 0.81729 0.0
N529 N 0.62034 0.90786 0.82616 0.0
C530 C 0.63404 0.92923 0.81946 0.0
Co531 Co 0.80146 0.83487 0.61886 0.0
Co532 Co 0.83768 0.83034 0.58429 0.0
O533 O 0.80493 0.84136 0.59621 0.0
C534 C 0.7857 0.89389 0.61586 0.0
O535 O 0.8049 0.8974 0.60532 0.0
C536 C 0.78984 0.81421 0.56368 0.0
O537 O 0.7737 0.8129 0.5759 0.0
O538 O 0.8348 0.79197 0.59227 0.0
O539 O 0.82086 0.79904 0.61691 0.0
H540 H 0.92899 0.78468 0.57753 0.0
H541 H 0.75137 0.84921 0.60116 0.0
O542 O 0.78167 0.87043 0.6219 0.0
H543 H 0.73333 0.75788 0.62341 0.0
H544 H 0.75258 0.83471 0.67073 0.0
H545 H 0.83894 0.81404 0.64339 0.0
H546 H 0.77712 0.78129 0.62843 0.0
H547 H 0.75681 0.84237 0.64233 0.0
O548 O 0.81505 0.82025 0.56534 0.0
H549 H 0.88781 0.799 0.59201 0.0
H550 H 0.85672 0.83821 0.55137 0.0
H551 H 0.83551 0.80587 0.67179 0.0
H552 H 0.70707 0.82674 0.59607 0.0
H553 H 0.79209 0.81623 0.68565 0.0
H554 H 0.69788 0.78068 0.60717 0.0
O555 O 0.83691 0.85371 0.62288 0.0
H556 H 0.80143 0.91749 0.56092 0.0
H557 H 0.88313 0.87098 0.58182 0.0
H558 H 0.88683 0.91862 0.5726 0.0
H559 H 0.8458 0.94218 0.562 0.0
H560 H 0.79856 0.86999 0.57047 0.0
H561 H 0.89747 0.82412 0.53642 0.0
H562 H 0.93402 0.79724 0.54952 0.0
O563 O 0.86203 0.8403 0.60234 0.0
C564 C 0.83066 0.78368 0.60623 0.0
C565 C 0.91324 0.79644 0.5717 0.0
C566 C 0.89553 0.81855 0.54862 0.0
N567 N 0.86994 0.81955 0.57258 0.0
C568 C 0.88989 0.80466 0.57985 0.0
C569 C 0.87246 0.82641 0.55714 0.0
C570 C 0.91603 0.80348 0.55598 0.0
C571 C 0.74741 0.82929 0.60616 0.0
N572 N 0.76686 0.81656 0.61504 0.0
C573 C 0.72234 0.81661 0.60318 0.0
C574 C 0.71722 0.79074 0.60939 0.0
C575 C 0.73712 0.77792 0.61848 0.0
C576 C 0.76196 0.79122 0.6212 0.0
C577 C 0.7716 0.83007 0.66482 0.0
C578 C 0.81993 0.81847 0.64932 0.0
C579 C 0.77414 0.83442 0.64874 0.0
N580 N 0.79805 0.82849 0.64118 0.0
C581 C 0.81813 0.81386 0.66541 0.0
C582 C 0.79377 0.8197 0.67318 0.0
C583 C 0.85977 0.85122 0.61585 0.0
C584 C 0.81948 0.90741 0.56545 0.0
C585 C 0.86514 0.8811 0.57731 0.0
C586 C 0.86739 0.90807 0.57205 0.0
C587 C 0.84437 0.92127 0.56609 0.0
N588 N 0.84067 0.86761 0.5766 0.0
C589 C 0.81801 0.88044 0.5708 0.0
Co590 Co 0.9222 0.05092 0.36654 0.0
Co591 Co 0.92599 0.08913 0.33295 0.0
O592 O 0.91549 0.05567 0.34412 0.0
C593 C 0.86272 0.03536 0.36588 0.0
O594 O 0.85649 0.05912 0.35963 0.0
C595 C 0.94722 0.04443 0.31218 0.0
O596 O 0.9569 0.03181 0.32456 0.0
O597 O 0.9646 0.08587 0.34058 0.0
O598 O 0.95727 0.07178 0.36517 0.0
H599 H 0.97134 0.18089 0.32739 0.0
H600 H 0.91044 1.0024 0.34693 0.0
O601 O 0.88756 0.02928 0.36873 0.0
H602 H 1.0016 0.98539 0.36966 0.0
H603 H 0.92382 0.99814 0.41716 0.0
H604 H 0.94144 0.08726 0.39204 0.0
H605 H 0.97621 0.0275 0.37604 0.0
H606 H 0.91625 0.00427 0.38886 0.0
O607 O 0.93496 0.06727 0.31367 0.0
H608 H 0.95748 0.13889 0.34128 0.0
H609 H 0.91709 0.11 0.30051 0.0
H610 H 0.94952 0.08195 0.42035 0.0
H611 H 0.93498 0.95983 0.34037 0.0
H612 H 0.94069 0.03713 0.43309 0.0
H613 H 0.98095 0.95116 0.35172 0.0
O614 O 0.90226 0.08559 0.37128 0.0
H615 H 0.83794 0.05389 0.31029 0.0
H616 H 0.88532 0.13472 0.33165 0.0
H617 H 0.83727 0.13876 0.3232 0.0
H618 H 0.81327 0.09815 0.31239 0.0
H619 H 0.88594 0.0507 0.31902 0.0
H620 H 0.9307 0.15159 0.28614 0.0
H621 H 0.95794 0.18744 0.29961 0.0
O622 O 0.91664 0.11226 0.35157 0.0
C623 C 0.97271 0.08181 0.3546 0.0
C624 C 0.95942 0.16544 0.3214 0.0
C625 C 0.93665 0.14898 0.29825 0.0
N626 N 0.9364 0.12206 0.32174 0.0
C627 C 0.95147 0.14163 0.32921 0.0
C628 C 0.92908 0.12543 0.30643 0.0
C629 C 0.95192 0.16909 0.30581 0.0
C630 C 0.93033 0.99865 0.35203 0.0
N631 N 0.94186 0.01741 0.36187 0.0
C632 C 0.94417 0.97456 0.34822 0.0
C633 C 0.96998 0.96973 0.35458 0.0
C634 C 0.98159 0.98894 0.36463 0.0
C635 C 0.96716 0.01281 0.36815 0.0
C636 C 0.92777 0.01776 0.41174 0.0
C637 C 0.93766 0.06765 0.39748 0.0
C638 C 0.92344 0.02138 0.39572 0.0
N639 N 0.92852 0.04607 0.38878 0.0
C640 C 0.94222 0.06479 0.41353 0.0
C641 C 0.93724 0.03965 0.42067 0.0
C642 C 0.90507 0.109 0.36484 0.0
C643 C 0.8482 0.07174 0.31495 0.0
C644 C 0.875 0.11693 0.32703 0.0
C645 C 0.84781 0.11936 0.32222 0.0
C646 C 0.83436 0.09658 0.31615 0.0
N647 N 0.88847 0.09252 0.32578 0.0
C648 C 0.8754 0.07008 0.31986 0.0
Co649 Co 0.70783 0.17675 0.1162 0.0
Co650 Co 0.66718 0.16932 0.08314 0.0
O651 O 0.7019 0.16528 0.09446 0.0
C652 C 0.72337 0.11757 0.11758 0.0
O653 O 0.70058 0.1114 0.11025 0.0
C654 C 0.70815 0.19626 0.06192 0.0
O655 O 0.71994 0.20736 0.07417 0.0
O656 O 0.66326 0.20838 0.09004 0.0
O657 O 0.68735 0.2114 0.11243 0.0
H658 H 0.56858 0.19645 0.07734 0.0
H659 H 0.75469 0.16025 0.09636 0.0
O660 O 0.72913 0.14246 0.12056 0.0
H661 H 0.77456 0.25502 0.11253 0.0
H662 H 0.76333 0.1886 0.16539 0.0
H663 H 0.67336 0.20266 0.14055 0.0
H664 H 0.73278 0.23166 0.12166 0.0
H665 H 0.75552 0.17476 0.13802 0.0
O666 O 0.68703 0.18127 0.06364 0.0
H667 H 0.61241 0.19097 0.09129 0.0
H668 H 0.64836 0.15583 0.05079 0.0
H669 H 0.68035 0.21703 0.16791 0.0
H670 H 0.79689 0.18269 0.08709 0.0
H671 H 0.7256 0.21001 0.18051 0.0
H672 H 0.80698 0.23046 0.09513 0.0
O673 O 0.67334 0.15836 0.12331 0.0
H674 H 0.71786 0.08793 0.06199 0.0
H675 H 0.62949 0.12131 0.08218 0.0
H676 H 0.63415 0.07289 0.07451 0.0
H677 H 0.67859 0.05593 0.06431 0.0
H678 H 0.71236 0.13612 0.06994 0.0
H679 H 0.605 0.16114 0.03636 0.0
H680 H 0.56469 0.18149 0.04966 0.0
O681 O 0.64649 0.15668 0.10193 0.0
C682 C 0.67159 0.22155 0.10205 0.0
C683 C 0.58599 0.18753 0.07142 0.0
C684 C 0.60644 0.16775 0.04841 0.0
N685 N 0.63292 0.17309 0.07188 0.0
C686 C 0.61085 0.18434 0.07926 0.0
C687 C 0.63098 0.1649 0.05663 0.0
C688 C 0.58383 0.17915 0.05589 0.0
C689 C 0.75904 0.18098 0.09999 0.0
N690 N 0.74123 0.19468 0.10948 0.0
C691 C 0.78293 0.1936 0.09467 0.0
C692 C 0.78856 0.22042 0.09917 0.0
C693 C 0.77036 0.23422 0.10891 0.0
C694 C 0.74666 0.22095 0.11398 0.0
C695 C 0.74352 0.19178 0.16003 0.0
C696 C 0.69315 0.19966 0.14592 0.0
C697 C 0.73896 0.18391 0.14455 0.0
N698 N 0.71404 0.18801 0.13767 0.0
C699 C 0.69697 0.20778 0.16143 0.0
C700 C 0.72235 0.20381 0.1685 0.0
C701 C 0.65085 0.15264 0.11645 0.0
C702 C 0.69838 0.09508 0.0664 0.0
C703 C 0.64893 0.11404 0.07783 0.0
C704 C 0.65142 0.08663 0.07346 0.0
C705 C 0.67635 0.07713 0.06772 0.0
N706 N 0.67063 0.13152 0.07651 0.0
C707 C 0.69513 0.12236 0.07088 0.0
Co708 Co 0.58688 0.04867 0.64752 0.0
Co709 Co 0.58518 0.08525 0.68214 0.0
O710 O 0.59412 0.0522 0.67005 0.0
C711 C 0.64584 0.03291 0.64983 0.0
O712 O 0.64971 0.05275 0.65993 0.0
C713 C 0.5623 0.03945 0.70197 0.0
O714 O 0.55426 0.02644 0.68936 0.0
O715 O 0.54654 0.08521 0.67412 0.0
O716 O 0.55151 0.0685 0.64985 0.0
H717 H 0.54567 0.1792 0.68967 0.0
H718 H 0.60093 0.99925 0.66586 0.0
O719 O 0.62213 0.02845 0.64422 0.0
H720 H 0.509 0.98136 0.64441 0.0
H721 H 0.58435 0.99893 0.59595 0.0
H722 H 0.56535 0.08591 0.62305 0.0
H723 H 0.53297 0.02453 0.6385 0.0
H724 H 0.59317 1.0036 0.62422 0.0
O725 O 0.57407 0.06263 0.7008 0.0
H726 H 0.55725 0.13752 0.67484 0.0
H727 H 0.59431 0.1029 0.71521 0.0
H728 H 0.55602 0.08205 0.59479 0.0
H729 H 0.57784 0.95563 0.67193 0.0
H730 H 0.56554 0.03831 0.58105 0.0
H731 H 0.53149 0.94651 0.66121 0.0
O732 O 0.60587 0.08398 0.643 0.0
H733 H 0.66957 0.04199 0.70482 0.0
H734 H 0.62869 0.12784 0.68563 0.0
H735 H 0.6765 0.12779 0.6948 0.0
H736 H 0.69724 0.08461 0.70453 0.0
H737 H 0.62195 0.04294 0.69533 0.0
H738 H 0.58289 0.14409 0.7305 0.0
H739 H 0.5585 0.18267 0.71771 0.0
O740 O 0.59674 0.10924 0.66429 0.0
C741 C 0.5373 0.08016 0.66042 0.0
C742 C 0.55634 0.16255 0.69537 0.0
C743 C 0.57719 0.14283 0.71829 0.0
N744 N 0.57652 0.11782 0.69413 0.0
C745 C 0.56301 0.13892 0.68703 0.0
C746 C 0.58351 0.11951 0.70958 0.0
C747 C 0.56353 0.16447 0.71111 0.0
C748 C 0.58087 0.9953 0.66104 0.0
N749 N 0.56834 0.01439 0.65182 0.0
C750 C 0.56785 0.97062 0.66457 0.0
C751 C 0.54183 0.96554 0.65857 0.0
C752 C 0.52919 0.9851 0.64916 0.0
C753 C 0.54281 0.00956 0.6459 0.0
C754 C 0.58009 0.01809 0.60181 0.0
C755 C 0.56943 0.06677 0.61717 0.0
C756 C 0.5851 0.02088 0.61781 0.0
N757 N 0.57964 0.04497 0.6253 0.0
C758 C 0.56416 0.06472 0.60116 0.0
C759 C 0.56953 0.04019 0.59346 0.0
C760 C 0.60583 0.10669 0.65036 0.0
C761 C 0.66077 0.06093 0.70061 0.0
C762 C 0.63764 0.10895 0.68967 0.0
C763 C 0.66468 0.10906 0.69494 0.0
C764 C 0.67629 0.08484 0.70043 0.0
N765 N 0.62255 0.08542 0.68986 0.0
C766 C 0.63378 0.06162 0.69527 0.0
Co767 Co 0.70625 0.83452 0.39751 0.0
Co768 Co 0.66897 0.83046 0.43155 0.0
O769 O 0.7023 0.84089 0.42009 0.0
C770 C 0.72218 0.89389 0.39855 0.0
O771 O 0.69901 0.89992 0.40552 0.0
C772 C 0.71559 0.81298 0.4526 0.0
O773 O 0.7315 0.80971 0.44041 0.0
O774 O 0.67173 0.79201 0.42367 0.0
O775 O 0.68526 0.7995 0.39899 0.0
H776 H 0.5769 0.78589 0.43733 0.0
H777 H 0.75628 0.84633 0.4159 0.0
O778 O 0.72787 0.86916 0.39518 0.0
H779 H 0.77121 0.75484 0.39319 0.0
H780 H 0.75706 0.83338 0.34626 0.0
H781 H 0.66886 0.81582 0.37238 0.0
H782 H 0.72864 0.78018 0.38786 0.0
H783 H 0.75207 0.84056 0.37466 0.0
O784 O 0.6908 0.82045 0.45081 0.0
H785 H 0.61877 0.79963 0.42331 0.0
H786 H 0.64878 0.83886 0.46419 0.0
H787 H 0.67302 0.80816 0.34398 0.0
H788 H 0.79941 0.82191 0.4213 0.0
H789 H 0.71738 0.81697 0.33073 0.0
H790 H 0.80703 0.77575 0.40997 0.0
O791 O 0.67162 0.85473 0.39323 0.0
H792 H 0.7057 0.91778 0.45437 0.0
H793 H 0.62383 0.87152 0.43351 0.0
H794 H 0.62047 0.91943 0.44228 0.0
H795 H 0.6616 0.94287 0.45285 0.0
H796 H 0.7082 0.86995 0.44533 0.0
H797 H 0.60732 0.82534 0.47868 0.0
H798 H 0.57097 0.79875 0.46523 0.0
O799 O 0.64547 0.84052 0.41316 0.0
C800 C 0.67536 0.78403 0.4096 0.0
C801 C 0.59256 0.79753 0.44332 0.0
C802 C 0.60965 0.81964 0.46653 0.0
N803 N 0.63615 0.82015 0.44288 0.0
C804 C 0.6163 0.80542 0.43543 0.0
C805 C 0.63312 0.82717 0.45827 0.0
C806 C 0.58926 0.80473 0.45897 0.0
C807 C 0.75956 0.82637 0.4108 0.0
N808 N 0.73989 0.81468 0.40162 0.0
C809 C 0.78397 0.81259 0.41396 0.0
C810 C 0.78821 0.78667 0.40762 0.0
C811 C 0.7681 0.77491 0.39823 0.0
C812 C 0.74394 0.78929 0.39533 0.0
C813 C 0.73764 0.82945 0.3519 0.0
C814 C 0.68827 0.81959 0.36672 0.0
C815 C 0.73466 0.83355 0.36798 0.0
N816 N 0.71023 0.8285 0.3752 0.0
C817 C 0.69048 0.81526 0.35062 0.0
C818 C 0.71537 0.82023 0.3432 0.0
C819 C 0.64842 0.85209 0.39987 0.0
C820 C 0.68761 0.90776 0.44985 0.0
C821 C 0.64184 0.88157 0.43805 0.0
C822 C 0.6398 0.9087 0.44304 0.0
C823 C 0.66287 0.92183 0.44897 0.0
N824 N 0.66615 0.86786 0.43901 0.0
C825 C 0.68888 0.88063 0.44476 0.0
Co826 Co 0.91926 0.95437 0.14957 0.0
Co827 Co 0.92142 0.91565 0.18274 0.0
O828 O 0.91213 0.94978 0.17193 0.0
C829 C 0.86115 0.97368 0.15084 0.0
O830 O 0.85407 0.95035 0.15731 0.0
C831 C 0.94385 0.95856 0.20415 0.0
O832 O 0.95524 0.97026 0.19195 0.0
O833 O 0.96027 0.91892 0.17575 0.0
O834 O 0.95281 0.93078 0.15076 0.0
H835 H 0.96507 0.823 0.1878 0.0
H836 H 0.91125 1.0035 0.1693 0.0
O837 O 0.88613 0.97844 0.14756 0.0
H838 H 1.00348 0.01356 0.14668 0.0
H839 H 0.92419 0.00758 0.0992 0.0
H840 H 0.93583 0.91712 0.12387 0.0
H841 H 0.97491 0.97356 0.14018 0.0
H842 H 0.91635 1.00158 0.12748 0.0
O843 O 0.92988 0.93674 0.2024 0.0
H844 H 0.95257 0.86575 0.17425 0.0
H845 H 0.91079 0.89373 0.21475 0.0
H846 H 0.94409 0.92227 0.09558 0.0
H847 H 0.93902 0.04399 0.17599 0.0
H848 H 0.93827 0.96776 0.08306 0.0
H849 H 0.98553 0.04916 0.16467 0.0
O850 O 0.89687 0.92137 0.14488 0.0
H851 H 0.8329 0.95098 0.20467 0.0
H852 H 0.88004 0.87068 0.1825 0.0
H853 H 0.83155 0.86692 0.19014 0.0
H854 H 0.80767 0.90725 0.20134 0.0
H855 H 0.88134 0.9539 0.19675 0.0
H856 H 0.92306 0.85138 0.22878 0.0
H857 H 0.9503 0.8156 0.21527 0.0
O858 O 0.91267 0.89323 0.16355 0.0
C859 C 0.96814 0.92141 0.1616 0.0
C860 C 0.95314 0.83841 0.1938 0.0
C861 C 0.9296 0.85435 0.21681 0.0
N862 N 0.93084 0.88216 0.19367 0.0
C863 C 0.94594 0.86264 0.18618 0.0
C864 C 0.92278 0.87833 0.20882 0.0
C865 C 0.94487 0.83428 0.20922 0.0
C866 C 0.93136 0.00575 0.16422 0.0
N867 N 0.94139 0.98625 0.15432 0.0
C868 C 0.94704 0.02866 0.1681 0.0
C869 C 0.97315 0.03152 0.16176 0.0
C870 C 0.98324 0.01154 0.15167 0.0
C871 C 0.967 0.9889 0.14807 0.0
C872 C 0.92682 0.98766 0.10452 0.0
C873 C 0.93338 0.93701 0.11853 0.0
C874 C 0.92235 0.98412 0.12053 0.0
N875 N 0.92578 0.95905 0.12735 0.0
C876 C 0.93803 0.93979 0.1025 0.0
C877 C 0.93474 0.96532 0.09547 0.0
C878 C 0.90015 0.89752 0.15064 0.0
C879 C 0.8431 0.93324 0.19984 0.0
C880 C 0.86978 0.88834 0.18734 0.0
C881 C 0.84233 0.88607 0.19167 0.0
C882 C 0.82895 0.90871 0.19796 0.0
N883 N 0.88355 0.91246 0.18927 0.0
C884 C 0.87055 0.93475 0.19539 0.0
Co885 Co 0.80021 0.172 0.8992 0.0
Co886 Co 0.83763 0.17375 0.93332 0.0
O887 O 0.80429 0.16455 0.92163 0.0
C888 C 0.78419 0.11267 0.89968 0.0
O889 O 0.80697 0.10662 0.90706 0.0
C890 C 0.79304 0.19677 0.95369 0.0
O891 O 0.78085 0.20664 0.94122 0.0
O892 O 0.83635 0.21259 0.92573 0.0
O893 O 0.82107 0.20691 0.90122 0.0
H894 H 0.93093 0.2152 0.94014 0.0
H895 H 0.75117 0.15956 0.91824 0.0
O896 O 0.77862 0.13744 0.89631 0.0
H897 H 0.73499 0.25171 0.89664 0.0
H898 H 0.74879 0.17594 0.84818 0.0
H899 H 0.83729 0.19213 0.87428 0.0
H900 H 0.77718 0.22646 0.89025 0.0
H901 H 0.75412 0.16725 0.87643 0.0
O902 O 0.81544 0.18367 0.95234 0.0
H903 H 0.88897 0.20311 0.92569 0.0
H904 H 0.85676 0.16397 0.96605 0.0
H905 H 0.83279 0.20132 0.84604 0.0
H906 H 0.70853 0.18396 0.92481 0.0
H907 H 0.78829 0.19321 0.8328 0.0
H908 H 0.70027 0.23042 0.91402 0.0
O909 O 0.83496 0.15217 0.89443 0.0
H910 H 0.79732 0.08731 0.95523 0.0
H911 H 0.88138 0.1312 0.93565 0.0
H912 H 0.88284 0.08301 0.94411 0.0
H913 H 0.84059 0.06075 0.95403 0.0
H914 H 0.79676 0.1354 0.94649 0.0
H915 H 0.89826 0.17585 0.98097 0.0
H916 H 0.93576 0.20156 0.968 0.0
O917 O 0.86111 0.16342 0.91503 0.0
C918 C 0.83194 0.22151 0.9119 0.0
C919 C 0.91475 0.20395 0.94592 0.0
C920 C 0.8964 0.1819 0.96884 0.0
N921 N 0.87048 0.18276 0.94499 0.0
C922 C 0.89097 0.197 0.93779 0.0
C923 C 0.8729 0.17531 0.96034 0.0
C924 C 0.91744 0.19631 0.96155 0.0
C925 C 0.7476 0.17967 0.91339 0.0
N926 N 0.76663 0.19154 0.90385 0.0
C927 C 0.72347 0.19343 0.9172 0.0
C928 C 0.71887 0.21952 0.91116 0.0
C929 C 0.73836 0.23149 0.90142 0.0
C930 C 0.76227 0.21713 0.89789 0.0
C931 C 0.76828 0.17957 0.85382 0.0
C932 C 0.81782 0.18864 0.86862 0.0
C933 C 0.77145 0.17459 0.8698 0.0
N934 N 0.79597 0.17925 0.87702 0.0
C935 C 0.81542 0.19384 0.85262 0.0
C936 C 0.79045 0.18927 0.8452 0.0
C937 C 0.85808 0.15338 0.90134 0.0
C938 C 0.81588 0.09678 0.95095 0.0
C939 C 0.86289 0.12162 0.93982 0.0
C940 C 0.86386 0.09435 0.94467 0.0
C941 C 0.84015 0.08188 0.95025 0.0
N942 N 0.83902 0.13611 0.94054 0.0
C943 C 0.8157 0.12403 0.94601 0.0
Co944 Co 0.92252 0.54985 0.65067 0.0
Co945 Co 0.92611 0.58958 0.68365 0.0
O946 O 0.91573 0.5556 0.673 0.0
C947 C 0.86303 0.53406 0.65095 0.0
O948 O 0.85631 0.55846 0.6561 0.0
C949 C 0.9479 0.54621 0.70516 0.0
O950 O 0.95816 0.53341 0.693 0.0
O951 O 0.96475 0.58603 0.67614 0.0
O952 O 0.95746 0.57095 0.65174 0.0
H953 H 0.97129 0.68164 0.68785 0.0
H954 H 0.91113 0.5023 0.67114 0.0
O955 O 0.88805 0.52783 0.64882 0.0
H956 H 1.00223 0.48459 0.64857 0.0
H957 H 0.92439 0.49477 0.60089 0.0
H958 H 0.94168 0.58507 0.62463 0.0
H959 H 0.97658 0.52621 0.64149 0.0
H960 H 0.91674 0.50217 0.62908 0.0
O961 O 0.93503 0.56864 0.70328 0.0
H962 H 0.95756 0.63899 0.6746 0.0
H963 H 0.91703 0.61194 0.71573 0.0
H964 H 0.94982 0.57849 0.59642 0.0
H965 H 0.93594 0.46024 0.67842 0.0
H966 H 0.94116 0.53308 0.58437 0.0
H967 H 0.98188 0.45121 0.66714 0.0
O968 O 0.90242 0.58423 0.64537 0.0
H969 H 0.83803 0.55526 0.7067 0.0
H970 H 0.88536 0.63514 0.68414 0.0
H971 H 0.83727 0.63949 0.69242 0.0
H972 H 0.81328 0.59937 0.70384 0.0
H973 H 0.88607 0.55176 0.69812 0.0
H974 H 0.9305 0.65421 0.72946 0.0
H975 H 0.95775 0.68946 0.71548 0.0
O976 O 0.91681 0.61181 0.66465 0.0
C977 C 0.97289 0.58141 0.66219 0.0
C978 C 0.95937 0.66646 0.69405 0.0
C979 C 0.93652 0.65104 0.71742 0.0
N980 N 0.93642 0.62304 0.69435 0.0
C981 C 0.9515 0.64228 0.6866 0.0
C982 C 0.92902 0.62711 0.70959 0.0
C983 C 0.95179 0.67082 0.70956 0.0
C984 C 0.93101 0.4984 0.66608 0.0
N985 N 0.94237 0.51669 0.65589 0.0
C986 C 0.94501 0.4746 0.67029 0.0
C987 C 0.97079 0.46957 0.66398 0.0
C988 C 0.98224 0.4883 0.65357 0.0
C989 C 0.96766 0.5119 0.64965 0.0
C990 C 0.92827 0.51465 0.60601 0.0
C991 C 0.93797 0.56521 0.61949 0.0
C992 C 0.9239 0.51899 0.62196 0.0
N993 N 0.92889 0.544 0.62852 0.0
C994 C 0.94257 0.56163 0.6035 0.0
C995 C 0.93769 0.53615 0.59675 0.0
C996 C 0.90522 0.60794 0.65144 0.0
C997 C 0.84827 0.57291 0.70178 0.0
C998 C 0.87505 0.61756 0.68903 0.0
C999 C 0.84783 0.62016 0.69374 0.0
C1000 C 0.83439 0.59765 0.70015 0.0
N1001 N 0.88856 0.59324 0.6907 0.0
C1002 C 0.8755 0.57107 0.69694 0.0
Co1003 Co 0.70934 0.67503 0.89691 0.0
Co1004 Co 0.67262 0.67151 0.93181 0.0
O1005 O 0.70585 0.66551 0.91923 0.0
C1006 C 0.72338 0.61557 0.89782 0.0
O1007 O 0.70393 0.61192 0.90819 0.0
C1008 C 0.71942 0.69165 0.95225 0.0
O1009 O 0.73605 0.69212 0.94023 0.0
O1010 O 0.669 0.71 0.92391 0.0
O1011 O 0.69098 0.71091 0.90077 0.0
H1012 H 0.5755 0.70187 0.94008 0.0
H1013 H 0.75874 0.65692 0.91417 0.0
O1014 O 0.7281 0.63932 0.89232 0.0
H1015 H 0.7799 0.75009 0.89562 0.0
H1016 H 0.75816 0.6807 0.84513 0.0
H1017 H 0.67284 0.7011 0.87358 0.0
H1018 H 0.73551 0.72862 0.88949 0.0
H1019 H 0.7536 0.66907 0.87308 0.0
O1020 O 0.69439 0.68495 0.95045 0.0
H1021 H 0.61762 0.69395 0.92489 0.0
H1022 H 0.65691 0.66148 0.96514 0.0
H1023 H 0.67661 0.71329 0.84567 0.0
H1024 H 0.80361 0.67735 0.92032 0.0
H1025 H 0.71951 0.70307 0.83125 0.0
H1026 H 0.81436 0.72434 0.9111 0.0
O1027 O 0.67331 0.65785 0.89173 0.0
H1028 H 0.7234 0.58998 0.95301 0.0
H1029 H 0.63368 0.62507 0.93601 0.0
H1030 H 0.63766 0.57729 0.94493 0.0
H1031 H 0.68279 0.55946 0.95357 0.0
H1032 H 0.71855 0.63745 0.94379 0.0
H1033 H 0.61531 0.66929 0.9808 0.0
H1034 H 0.57417 0.68952 0.96826 0.0
O1035 O 0.64945 0.65796 0.91417 0.0
C1036 C 0.67654 0.72218 0.91139 0.0
C1037 C 0.59328 0.69301 0.94568 0.0
C1038 C 0.61564 0.67476 0.96853 0.0
N1039 N 0.6397 0.67723 0.94409 0.0
C1040 C 0.61718 0.68843 0.93712 0.0
C1041 C 0.63918 0.67049 0.95961 0.0
C1042 C 0.59256 0.6861 0.96149 0.0
C1043 C 0.76336 0.67728 0.91001 0.0
N1044 N 0.74444 0.69166 0.90159 0.0
C1045 C 0.78876 0.68879 0.91358 0.0
C1046 C 0.79476 0.71517 0.90842 0.0
C1047 C 0.77541 0.72965 0.89977 0.0
C1048 C 0.75023 0.71748 0.89644 0.0
C1049 C 0.73937 0.68529 0.85129 0.0
C1050 C 0.69163 0.69674 0.86741 0.0
C1051 C 0.73665 0.67869 0.86711 0.0
N1052 N 0.71303 0.68455 0.87498 0.0
C1053 C 0.69362 0.70361 0.8516 0.0
C1054 C 0.71769 0.69785 0.84351 0.0
C1055 C 0.6516 0.65313 0.89956 0.0
C1056 C 0.7036 0.59754 0.94934 0.0
C1057 C 0.6534 0.61745 0.93965 0.0
C1058 C 0.65552 0.59039 0.94475 0.0
C1059 C 0.68082 0.58041 0.94962 0.0
N1060 N 0.6758 0.63418 0.93943 0.0
C1061 C 0.70069 0.6245 0.94418 0.0
Co1062 Co 0.58856 0.45632 0.1475 0.0
Co1063 Co 0.58383 0.4164 0.18052 0.0
O1064 O 0.59553 0.45022 0.16987 0.0
C1065 C 0.64769 0.47193 0.15071 0.0
O1066 O 0.65146 0.45175 0.16061 0.0
C1067 C 0.56677 0.46151 0.20236 0.0
O1068 O 0.56087 0.47691 0.19025 0.0
O1069 O 0.54536 0.42181 0.17333 0.0
O1070 O 0.55262 0.43673 0.14891 0.0
H1071 H 0.53461 0.32641 0.18458 0.0
H1072 H 0.60298 0.50398 0.16719 0.0
O1073 O 0.62409 0.47646 0.14497 0.0
H1074 H 0.51162 0.52486 0.14585 0.0
H1075 H 0.58756 0.51091 0.0975 0.0
H1076 H 0.56735 0.42163 0.12178 0.0
H1077 H 0.53501 0.48184 0.13897 0.0
H1078 H 0.59568 0.50352 0.12565 0.0
O1079 O 0.57574 0.43727 0.20037 0.0
H1080 H 0.54996 0.36863 0.17144 0.0
H1081 H 0.5925 0.39314 0.21244 0.0
H1082 H 0.55871 0.42822 0.09361 0.0
H1083 H 0.5805 0.54747 0.1742 0.0
H1084 H 0.56884 0.47313 0.08129 0.0
H1085 H 0.53443 0.55808 0.16355 0.0
O1086 O 0.60733 0.42138 0.14225 0.0
H1087 H 0.6731 0.44592 0.20426 0.0
H1088 H 0.62284 0.36937 0.18006 0.0
H1089 H 0.67068 0.36265 0.18835 0.0
H1090 H 0.69612 0.40108 0.20059 0.0
H1091 H 0.62533 0.45185 0.19561 0.0
H1092 H 0.57742 0.35128 0.22605 0.0
H1093 H 0.54835 0.31752 0.21209 0.0
O1094 O 0.59177 0.3939 0.16129 0.0
C1095 C 0.53706 0.4268 0.15947 0.0
C1096 C 0.54734 0.34093 0.19077 0.0
C1097 C 0.57134 0.3549 0.21406 0.0
N1098 N 0.57227 0.38325 0.19112 0.0
C1099 C 0.55616 0.36484 0.18338 0.0
C1100 C 0.57976 0.3786 0.2063 0.0
C1101 C 0.55503 0.33596 0.20621 0.0
C1102 C 0.58306 0.50859 0.16238 0.0
N1103 N 0.57034 0.49039 0.15269 0.0
C1104 C 0.57038 0.53319 0.16645 0.0
C1105 C 0.54451 0.5391 0.16049 0.0
C1106 C 0.53168 0.52046 0.15058 0.0
C1107 C 0.54497 0.49606 0.14678 0.0
C1108 C 0.58303 0.49126 0.10274 0.0
C1109 C 0.57169 0.44128 0.11653 0.0
C1110 C 0.58763 0.48693 0.11867 0.0
N1111 N 0.58183 0.46221 0.12538 0.0
C1112 C 0.56681 0.44487 0.10056 0.0
C1113 C 0.57251 0.47006 0.09365 0.0
C1114 C 0.60341 0.39768 0.14808 0.0
C1115 C 0.66221 0.42899 0.19898 0.0
C1116 C 0.6338 0.38624 0.1853 0.0
C1117 C 0.66087 0.38228 0.19002 0.0
C1118 C 0.67512 0.40384 0.1969 0.0
N1119 N 0.62126 0.41097 0.1874 0.0
C1120 C 0.63511 0.4322 0.19413 0.0
Co1121 Co 0.80297 0.33763 0.39678 0.0
Co1122 Co 0.84224 0.33337 0.43007 0.0
O1123 O 0.80854 0.34469 0.41918 0.0
C1124 C 0.78696 0.39662 0.3997 0.0
O1125 O 0.80702 0.40067 0.40965 0.0
C1126 C 0.7967 0.31594 0.45155 0.0
O1127 O 0.78164 0.31001 0.43932 0.0
O1128 O 0.83748 0.29483 0.42284 0.0
O1129 O 0.82285 0.30191 0.39834 0.0
H1130 H 0.93272 0.28529 0.4348 0.0
H1131 H 0.75476 0.35164 0.4161 0.0
O1132 O 0.78258 0.37292 0.39408 0.0
H1133 H 0.73519 0.26001 0.39474 0.0
H1134 H 0.74945 0.336 0.34642 0.0
H1135 H 0.83841 0.31677 0.37131 0.0
H1136 H 0.77812 0.2838 0.38813 0.0
H1137 H 0.75617 0.34423 0.37461 0.0
O1138 O 0.82097 0.32498 0.44976 0.0
H1139 H 0.89065 0.30017 0.42134 0.0
H1140 H 0.8646 0.34219 0.46218 0.0
H1141 H 0.83249 0.30802 0.34311 0.0
H1142 H 0.71133 0.32876 0.42283 0.0
H1143 H 0.78775 0.31766 0.33048 0.0
H1144 H 0.70138 0.28255 0.41217 0.0
O1145 O 0.8378 0.35679 0.39176 0.0
H1146 H 0.81106 0.42227 0.45353 0.0
H1147 H 0.88882 0.37294 0.43002 0.0
H1148 H 0.89476 0.42085 0.43837 0.0
H1149 H 0.85572 0.44582 0.45027 0.0
H1150 H 0.80591 0.37444 0.44484 0.0
H1151 H 0.9063 0.32759 0.47611 0.0
H1152 H 0.94076 0.29901 0.46239 0.0
O1153 O 0.86512 0.34168 0.41101 0.0
C1154 C 0.83274 0.28646 0.40896 0.0
C1155 C 0.9179 0.29781 0.44089 0.0
C1156 C 0.90305 0.32152 0.46408 0.0
N1157 N 0.87527 0.32219 0.44092 0.0
C1158 C 0.89407 0.30636 0.43332 0.0
C1159 C 0.87945 0.32967 0.45614 0.0
C1160 C 0.92238 0.30549 0.45637 0.0
C1161 C 0.75044 0.33165 0.41129 0.0
N1162 N 0.76897 0.31908 0.40175 0.0
C1163 C 0.72587 0.31875 0.4152 0.0
C1164 C 0.72033 0.2928 0.40924 0.0
C1165 C 0.7393 0.28013 0.39947 0.0
C1166 C 0.76366 0.29364 0.39584 0.0
C1167 C 0.76903 0.33168 0.35179 0.0
C1168 C 0.81883 0.32089 0.36592 0.0
C1169 C 0.77298 0.33635 0.36775 0.0
N1170 N 0.79762 0.33082 0.37463 0.0
C1171 C 0.81563 0.31595 0.34994 0.0
C1172 C 0.79052 0.32138 0.34286 0.0
C1173 C 0.86142 0.35333 0.39778 0.0
C1174 C 0.82825 0.41158 0.44841 0.0
C1175 C 0.87168 0.38369 0.43512 0.0
C1176 C 0.8752 0.4108 0.43987 0.0
C1177 C 0.8533 0.42479 0.44655 0.0
N1178 N 0.84706 0.37086 0.437 0.0
C1179 C 0.82549 0.38445 0.44354 0.0
Co1180 Co 0.92072 0.4573 0.86874 0.0
Co1181 Co 0.92402 0.4191 0.83499 0.0
O1182 O 0.91345 0.45246 0.84631 0.0
C1183 C 0.86183 0.47357 0.86575 0.0
O1184 O 0.85798 0.45377 0.85562 0.0
C1185 C 0.94543 0.46365 0.8141 0.0
O1186 O 0.95541 0.47618 0.82642 0.0
O1187 O 0.96271 0.4226 0.84234 0.0
O1188 O 0.95639 0.43757 0.86685 0.0
H1189 H 0.96996 0.32774 0.82907 0.0
H1190 H 0.90682 0.50544 0.84929 0.0
O1191 O 0.88539 0.47763 0.87165 0.0
H1192 H 0.9982 0.5252 0.87097 0.0
H1193 H 0.92269 0.50963 0.91947 0.0
H1194 H 0.9421 0.42136 0.89387 0.0
H1195 H 0.9743 0.48233 0.87765 0.0
H1196 H 0.91417 0.50354 0.89126 0.0
O1197 O 0.9327 0.44107 0.81569 0.0
H1198 H 0.95607 0.36959 0.84307 0.0
H1199 H 0.91462 0.39827 0.80259 0.0
H1200 H 0.95113 0.42665 0.92208 0.0
H1201 H 0.92987 0.54872 0.84242 0.0
H1202 H 0.94141 0.47105 0.93507 0.0
H1203 H 0.97593 0.55878 0.85325 0.0
O1204 O 0.90181 0.42215 0.87369 0.0
H1205 H 0.83605 0.45349 0.81181 0.0
H1206 H 0.88333 0.37348 0.83425 0.0
H1207 H 0.83533 0.36911 0.82577 0.0
H1208 H 0.81138 0.40929 0.8144 0.0
H1209 H 0.88395 0.45705 0.82065 0.0
H1210 H 0.92823 0.35684 0.78812 0.0
H1211 H 0.95602 0.32116 0.80138 0.0
O1212 O 0.91516 0.39577 0.85364 0.0
C1213 C 0.97145 0.42738 0.85615 0.0
C1214 C 0.9578 0.34311 0.82317 0.0
C1215 C 0.93441 0.35946 0.80018 0.0
N1216 N 0.93445 0.3863 0.82369 0.0
C1217 C 0.94983 0.36683 0.83105 0.0
C1218 C 0.92683 0.38292 0.80843 0.0
C1219 C 0.94999 0.33944 0.80763 0.0
C1220 C 0.92676 0.5098 0.85416 0.0
N1221 N 0.93916 0.49142 0.86389 0.0
C1222 C 0.93975 0.53428 0.85018 0.0
C1223 C 0.96561 0.53989 0.85624 0.0
C1224 C 0.97813 0.52105 0.86617 0.0
C1225 C 0.96454 0.49676 0.86987 0.0
C1226 C 0.92705 0.4902 0.91394 0.0
C1227 C 0.93794 0.44079 0.89942 0.0
C1228 C 0.92221 0.48661 0.89798 0.0
N1229 N 0.92779 0.46216 0.8909 0.0
C1230 C 0.94304 0.44364 0.91541 0.0
C1231 C 0.93756 0.46855 0.92269 0.0
C1232 C 0.90444 0.39882 0.86715 0.0
C1233 C 0.84628 0.43582 0.81671 0.0
C1234 C 0.87301 0.39111 0.82943 0.0
C1235 C 0.84585 0.38848 0.82458 0.0
C1236 C 0.83244 0.41103 0.81819 0.0
N1237 N 0.88645 0.4155 0.82794 0.0
C1238 C 0.87344 0.43768 0.82167 0.0
Co1239 Co 0.80023 0.67248 0.11917 0.0
Co1240 Co 0.83767 0.67179 0.08457 0.0
O1241 O 0.80449 0.66357 0.09681 0.0
C1242 C 0.78683 0.61271 0.11786 0.0
O1243 O 0.80614 0.60927 0.10738 0.0
C1244 C 0.7908 0.69051 0.06386 0.0
O1245 O 0.77464 0.69289 0.07602 0.0
O1246 O 0.83801 0.71055 0.09208 0.0
O1247 O 0.81788 0.70896 0.11575 0.0
H1248 H 0.93252 0.70912 0.07688 0.0
H1249 H 0.75193 0.65394 0.10111 0.0
O1250 O 0.78202 0.63637 0.12344 0.0
H1251 H 0.72774 0.74568 0.12066 0.0
H1252 H 0.75016 0.67601 0.17064 0.0
H1253 H 0.83574 0.69856 0.14297 0.0
H1254 H 0.77237 0.72501 0.12709 0.0
H1255 H 0.75552 0.66516 0.14265 0.0
O1256 O 0.81558 0.68296 0.06561 0.0
H1257 H 0.89061 0.69863 0.09176 0.0
H1258 H 0.85524 0.6617 0.05159 0.0
H1259 H 0.83115 0.70999 0.17094 0.0
H1260 H 0.70683 0.67354 0.09464 0.0
H1261 H 0.78811 0.69869 0.18496 0.0
H1262 H 0.69455 0.71982 0.10436 0.0
O1263 O 0.83648 0.65584 0.12445 0.0
H1264 H 0.7945 0.58679 0.06252 0.0
H1265 H 0.8798 0.62773 0.08251 0.0
H1266 H 0.87973 0.5796 0.07392 0.0
H1267 H 0.83686 0.55883 0.06379 0.0
H1268 H 0.79541 0.63474 0.07141 0.0
H1269 H 0.89669 0.67197 0.03626 0.0
H1270 H 0.93575 0.69577 0.04892 0.0
O1271 O 0.86125 0.66081 0.10258 0.0
C1272 C 0.8308 0.72162 0.10498 0.0
C1273 C 0.91564 0.69873 0.07123 0.0
C1274 C 0.89552 0.67791 0.04843 0.0
N1275 N 0.87047 0.6796 0.07257 0.0
C1276 C 0.89186 0.69273 0.0796 0.0
C1277 C 0.87206 0.67224 0.05717 0.0
C1278 C 0.91744 0.69125 0.05554 0.0
C1279 C 0.74665 0.674 0.10548 0.0
N1280 N 0.76488 0.68846 0.11433 0.0
C1281 C 0.72112 0.68503 0.10173 0.0
C1282 C 0.71427 0.71102 0.10717 0.0
C1283 C 0.7329 0.72556 0.11628 0.0
C1284 C 0.75824 0.71387 0.11978 0.0
C1285 C 0.769 0.68107 0.16465 0.0
C1286 C 0.81689 0.69373 0.14897 0.0
C1287 C 0.77218 0.67491 0.14881 0.0
N1288 N 0.79587 0.68138 0.14115 0.0
C1289 C 0.81444 0.70018 0.16481 0.0
C1290 C 0.7903 0.69381 0.17268 0.0
C1291 C 0.85897 0.65421 0.11695 0.0
C1292 C 0.81333 0.59564 0.06684 0.0
C1293 C 0.86104 0.61884 0.07817 0.0
C1294 C 0.86114 0.59158 0.07328 0.0
C1295 C 0.83709 0.57995 0.06758 0.0
N1296 N 0.83768 0.63414 0.07735 0.0
C1297 C 0.81401 0.62285 0.07181 0.0
Co1298 Co 0.58534 0.54809 0.36883 0.0
Co1299 Co 0.5811 0.58401 0.3341 0.0
O1300 O 0.59194 0.55137 0.34619 0.0
C1301 C 0.64446 0.5332 0.36614 0.0
O1302 O 0.64775 0.55293 0.35589 0.0
C1303 C 0.56623 0.53567 0.3135 0.0
O1304 O 0.56636 0.5193 0.32564 0.0
O1305 O 0.5427 0.58139 0.34206 0.0
O1306 O 0.54952 0.56749 0.36675 0.0
H1307 H 0.53579 0.67542 0.32688 0.0
H1308 H 0.59992 0.49768 0.3515 0.0
O1309 O 0.62097 0.52843 0.37195 0.0
H1310 H 0.50831 0.48004 0.37341 0.0
H1311 H 0.58513 0.49962 0.42085 0.0
H1312 H 0.56436 0.58573 0.39321 0.0
H1313 H 0.53165 0.52392 0.37827 0.0
H1314 H 0.59287 0.50365 0.39245 0.0
O1315 O 0.57096 0.56117 0.31521 0.0
H1316 H 0.54997 0.63437 0.34157 0.0
H1317 H 0.58907 0.60261 0.3011 0.0
H1318 H 0.5561 0.58251 0.42161 0.0
H1319 H 0.57752 0.45329 0.34658 0.0
H1320 H 0.56651 0.53921 0.43562 0.0
H1321 H 0.53131 0.4443 0.35751 0.0
O1322 O 0.6041 0.58356 0.37277 0.0
H1323 H 0.66847 0.54724 0.31129 0.0
H1324 H 0.62173 0.62938 0.3314 0.0
H1325 H 0.66941 0.63293 0.32227 0.0
H1326 H 0.69309 0.59167 0.31207 0.0
H1327 H 0.62093 0.54453 0.32072 0.0
H1328 H 0.57512 0.64321 0.28595 0.0
H1329 H 0.54838 0.68003 0.29886 0.0
O1330 O 0.59111 0.60855 0.35207 0.0
C1331 C 0.53432 0.5774 0.35602 0.0
C1332 C 0.5475 0.65955 0.32113 0.0
C1333 C 0.56954 0.64145 0.29816 0.0
N1334 N 0.57045 0.61617 0.32224 0.0
C1335 C 0.55563 0.63628 0.3294 0.0
C1336 C 0.57731 0.61847 0.30679 0.0
C1337 C 0.55454 0.66211 0.30541 0.0
C1338 C 0.57993 0.49382 0.35642 0.0
N1339 N 0.56708 0.51343 0.36511 0.0
C1340 C 0.56729 0.46869 0.35354 0.0
C1341 C 0.54135 0.46368 0.35965 0.0
C1342 C 0.52841 0.48374 0.36855 0.0
C1343 C 0.54166 0.50864 0.37118 0.0
C1344 C 0.58047 0.51858 0.41487 0.0
C1345 C 0.5688 0.56677 0.39921 0.0
C1346 C 0.58486 0.52101 0.39879 0.0
N1347 N 0.5789 0.54485 0.39115 0.0
C1348 C 0.56415 0.56509 0.4153 0.0
C1349 C 0.57001 0.5408 0.42315 0.0
C1350 C 0.60184 0.60635 0.36564 0.0
C1351 C 0.65833 0.56539 0.31563 0.0
C1352 C 0.63189 0.6113 0.32703 0.0
C1353 C 0.65889 0.61346 0.32184 0.0
C1354 C 0.67215 0.59031 0.31611 0.0
N1355 N 0.61841 0.58681 0.32647 0.0
C1356 C 0.63133 0.56402 0.32091 0.0
Co1357 Co 0.70573 0.33351 0.61773 0.0
Co1358 Co 0.67144 0.33174 0.58269 0.0
O1359 O 0.70413 0.34053 0.59512 0.0
C1360 C 0.72476 0.39157 0.61667 0.0
O1361 O 0.70295 0.39782 0.60844 0.0
C1362 C 0.71981 0.31662 0.56212 0.0
O1363 O 0.73612 0.31672 0.57428 0.0
O1364 O 0.67255 0.29298 0.59019 0.0
O1365 O 0.68248 0.29996 0.61551 0.0
H1366 H 0.57831 0.29076 0.57433 0.0
H1367 H 0.75843 0.34256 0.60134 0.0
O1368 O 0.72904 0.36689 0.62082 0.0
H1369 H 0.7645 0.2494 0.62321 0.0
H1370 H 0.75203 0.32885 0.67029 0.0
H1371 H 0.66518 0.31691 0.64176 0.0
H1372 H 0.72323 0.27743 0.62737 0.0
H1373 H 0.74983 0.33655 0.64182 0.0
O1374 O 0.69431 0.32143 0.56379 0.0
H1375 H 0.61961 0.30258 0.58945 0.0
H1376 H 0.65399 0.34162 0.54964 0.0
H1377 H 0.66652 0.30881 0.67021 0.0
H1378 H 0.80029 0.31539 0.59714 0.0
H1379 H 0.71019 0.31478 0.68468 0.0
H1380 H 0.80345 0.26839 0.60805 0.0
O1381 O 0.67221 0.35565 0.62108 0.0
H1382 H 0.71242 0.41895 0.56204 0.0
H1383 H 0.62766 0.37403 0.57984 0.0
H1384 H 0.62624 0.42227 0.57147 0.0
H1385 H 0.66883 0.44504 0.56243 0.0
H1386 H 0.71297 0.37086 0.57066 0.0
H1387 H 0.61317 0.32998 0.53406 0.0
H1388 H 0.57491 0.30447 0.54642 0.0
O1389 O 0.6468 0.34215 0.60067 0.0
C1390 C 0.67356 0.28501 0.6044 0.0
C1391 C 0.59482 0.30193 0.56882 0.0
C1392 C 0.61441 0.32391 0.54622 0.0
N1393 N 0.63915 0.32289 0.57048 0.0
C1394 C 0.61824 0.30873 0.57734 0.0
C1395 C 0.63751 0.33036 0.55509 0.0
C1396 C 0.59294 0.30961 0.55316 0.0
C1397 C 0.75975 0.32222 0.60624 0.0
N1398 N 0.73834 0.31158 0.61451 0.0
C1399 C 0.78346 0.30689 0.60377 0.0
C1400 C 0.7852 0.2805 0.60987 0.0
C1401 C 0.76333 0.26982 0.61836 0.0
C1402 C 0.73994 0.28574 0.62059 0.0
C1403 C 0.7329 0.32613 0.66412 0.0
C1404 C 0.6843 0.31939 0.64794 0.0
C1405 C 0.73151 0.33051 0.64799 0.0
N1406 N 0.70743 0.327 0.6401 0.0
C1407 C 0.68491 0.31485 0.66407 0.0
C1408 C 0.70941 0.31823 0.67218 0.0
C1409 C 0.64935 0.35371 0.61401 0.0
C1410 C 0.6937 0.40922 0.56587 0.0
C1411 C 0.64629 0.38377 0.57594 0.0
C1412 C 0.64535 0.4111 0.5712 0.0
C1413 C 0.66924 0.42386 0.56612 0.0
N1414 N 0.67032 0.36947 0.57557 0.0
C1415 C 0.69385 0.38191 0.57069 0.0
Co1416 Co 0.08197 0.46081 0.3666 0.0
Co1417 Co 0.08902 0.42064 0.33325 0.0
O1418 O 0.09327 0.45519 0.34475 0.0
C1419 C 0.14117 0.47573 0.36678 0.0
O1420 O 0.14586 0.45524 0.35724 0.0
C1421 C 0.06272 0.46248 0.31208 0.0
O1422 O 0.05271 0.47516 0.32434 0.0
O1423 O 0.05008 0.4166 0.34039 0.0
O1424 O 0.04687 0.44127 0.36256 0.0
H1425 H 0.06168 0.32212 0.32722 0.0
H1426 H 0.09997 0.50793 0.34738 0.0
O1427 O 0.11691 0.48084 0.37138 0.0
H1428 H 0.00542 0.5295 0.36321 0.0
H1429 H 0.07134 0.51516 0.41627 0.0
H1430 H 0.05488 0.42636 0.39056 0.0
H1431 H 0.02755 0.4868 0.37197 0.0
H1432 H 0.08519 0.50776 0.38886 0.0
O1433 O 0.07671 0.44068 0.31384 0.0
H1434 H 0.06745 0.36578 0.3413 0.0
H1435 H 0.10202 0.4022 0.30076 0.0
H1436 H 0.04048 0.43296 0.41795 0.0
H1437 H 0.07877 0.55103 0.33849 0.0
H1438 H 0.04871 0.47762 0.43098 0.0
H1439 H 0.03111 0.56198 0.34636 0.0
O1440 O 0.09946 0.42577 0.37348 0.0
H1441 H 0.16985 0.47159 0.31156 0.0
H1442 H 0.13706 0.38304 0.33188 0.0
H1443 H 0.18529 0.38783 0.32387 0.0
H1444 H 0.20195 0.43237 0.3136 0.0
H1445 H 0.12187 0.46597 0.31988 0.0
H1446 H 0.09642 0.35903 0.2862 0.0
H1447 H 0.07621 0.31856 0.29945 0.0
O1448 O 0.10202 0.39965 0.35187 0.0
C1449 C 0.0368 0.42526 0.35229 0.0
C1450 C 0.07053 0.3396 0.32131 0.0
C1451 C 0.08999 0.36033 0.29829 0.0
N1452 N 0.08505 0.38652 0.32187 0.0
C1453 C 0.07388 0.36436 0.32923 0.0
C1454 C 0.09301 0.38476 0.30658 0.0
C1455 C 0.07867 0.33763 0.30574 0.0
C1456 C 0.0793 0.51267 0.35095 0.0
N1457 N 0.06498 0.49486 0.36015 0.0
C1458 C 0.06737 0.53705 0.34584 0.0
C1459 C 0.04062 0.54317 0.35024 0.0
C1460 C 0.02618 0.52494 0.35968 0.0
C1461 C 0.03876 0.50073 0.36454 0.0
C1462 C 0.06761 0.49562 0.41071 0.0
C1463 C 0.05839 0.4459 0.39613 0.0
C1464 C 0.07547 0.49128 0.39521 0.0
N1465 N 0.07071 0.4667 0.38809 0.0
C1466 C 0.05026 0.4495 0.41165 0.0
C1467 C 0.0549 0.47455 0.41896 0.0
C1468 C 0.10557 0.40356 0.36647 0.0
C1469 C 0.16283 0.45207 0.316 0.0
C1470 C 0.14421 0.40252 0.32752 0.0
C1471 C 0.17151 0.40509 0.32294 0.0
C1472 C 0.18084 0.43007 0.31716 0.0
N1473 N 0.12668 0.42421 0.32637 0.0
C1474 C 0.13566 0.44874 0.32067 0.0
Co1475 Co 0.30078 0.33858 0.11733 0.0
Co1476 Co 0.33872 0.33465 0.08352 0.0
O1477 O 0.30533 0.34538 0.09482 0.0
C1478 C 0.2845 0.39756 0.11457 0.0
O1479 O 0.30443 0.40167 0.10457 0.0
C1480 C 0.29416 0.31343 0.06238 0.0
O1481 O 0.281 0.30379 0.07459 0.0
O1482 O 0.33525 0.29602 0.09109 0.0
O1483 O 0.3208 0.30305 0.11563 0.0
H1484 H 0.43003 0.28855 0.07782 0.0
H1485 H 0.25233 0.3517 0.09801 0.0
O1486 O 0.2802 0.37379 0.12015 0.0
H1487 H 0.23353 0.2606 0.12037 0.0
H1488 H 0.24909 0.33708 0.16829 0.0
H1489 H 0.33725 0.31815 0.14246 0.0
H1490 H 0.27629 0.28496 0.12671 0.0
H1491 H 0.25474 0.34506 0.14 0.0
O1492 O 0.31689 0.32578 0.06419 0.0
H1493 H 0.38819 0.30264 0.09174 0.0
H1494 H 0.35969 0.34377 0.05111 0.0
H1495 H 0.33241 0.30965 0.17076 0.0
H1496 H 0.20914 0.3282 0.09147 0.0
H1497 H 0.28807 0.31914 0.18386 0.0
H1498 H 0.19956 0.28227 0.10266 0.0
O1499 O 0.3358 0.35793 0.12199 0.0
H1500 H 0.30408 0.42246 0.06024 0.0
H1501 H 0.38438 0.37532 0.08242 0.0
H1502 H 0.38865 0.42325 0.07379 0.0
H1503 H 0.34832 0.44714 0.06256 0.0
H1504 H 0.30063 0.37462 0.06921 0.0
H1505 H 0.40113 0.32993 0.03671 0.0
H1506 H 0.43671 0.30221 0.05009 0.0
O1507 O 0.36207 0.34382 0.10208 0.0
C1508 C 0.33085 0.28769 0.10503 0.0
C1509 C 0.4147 0.30067 0.07187 0.0
C1510 C 0.39846 0.32386 0.04879 0.0
N1511 N 0.37154 0.32409 0.07227 0.0
C1512 C 0.39098 0.30875 0.0797 0.0
C1513 C 0.37499 0.33156 0.05699 0.0
C1514 C 0.41842 0.30832 0.05631 0.0
C1515 C 0.24818 0.33182 0.10302 0.0
N1516 N 0.26677 0.31975 0.11275 0.0
C1517 C 0.22375 0.31857 0.09923 0.0
C1518 C 0.21841 0.29278 0.10549 0.0
C1519 C 0.23747 0.2806 0.11542 0.0
C1520 C 0.2617 0.29445 0.11893 0.0
C1521 C 0.2685 0.33282 0.16272 0.0
C1522 C 0.31785 0.3222 0.14806 0.0
C1523 C 0.27184 0.33737 0.1467 0.0
N1524 N 0.29626 0.33192 0.13956 0.0
C1525 C 0.31525 0.31741 0.1641 0.0
C1526 C 0.29038 0.32275 0.17144 0.0
C1527 C 0.35907 0.35515 0.11543 0.0
C1528 C 0.32182 0.41226 0.06508 0.0
C1529 C 0.36669 0.3856 0.07765 0.0
C1530 C 0.36926 0.41273 0.07272 0.0
C1531 C 0.34663 0.42611 0.06641 0.0
N1532 N 0.34228 0.37215 0.07631 0.0
C1533 C 0.32002 0.38514 0.07012 0.0
Co1534 Co 0.42393 0.5543 0.86635 0.0
Co1535 Co 0.4257 0.59125 0.83226 0.0
O1536 O 0.41679 0.55766 0.84382 0.0
C1537 C 0.36609 0.53527 0.86409 0.0
O1538 O 0.361 0.55573 0.85457 0.0
C1539 C 0.44809 0.5472 0.81118 0.0
O1540 O 0.4586 0.5347 0.82338 0.0
O1541 O 0.46463 0.58933 0.83951 0.0
O1542 O 0.45783 0.57709 0.8645 0.0
H1543 H 0.46761 0.68442 0.82564 0.0
H1544 H 0.41433 0.50416 0.84777 0.0
O1545 O 0.39021 0.53139 0.86927 0.0
H1546 H 0.50696 0.49358 0.86983 0.0
H1547 H 0.42913 0.50396 0.91769 0.0
H1548 H 0.44095 0.5929 0.8913 0.0
H1549 H 0.47943 0.53459 0.87569 0.0
H1550 H 0.42097 0.5084 0.88933 0.0
O1551 O 0.43488 0.56945 0.81296 0.0
H1552 H 0.45581 0.64219 0.83991 0.0
H1553 H 0.41486 0.61126 0.79982 0.0
H1554 H 0.44957 0.58933 0.91964 0.0
H1555 H 0.44105 0.46265 0.84172 0.0
H1556 H 0.44366 0.5446 0.93303 0.0
H1557 H 0.48775 0.45722 0.85276 0.0
O1558 O 0.40225 0.58793 0.87063 0.0
H1559 H 0.33862 0.55264 0.8102 0.0
H1560 H 0.38323 0.63524 0.83129 0.0
H1561 H 0.33489 0.6374 0.82318 0.0
H1562 H 0.31227 0.5959 0.8125 0.0
H1563 H 0.38686 0.55132 0.81863 0.0
H1564 H 0.42644 0.65305 0.78508 0.0
H1565 H 0.4529 0.69005 0.79802 0.0
O1566 O 0.41612 0.6146 0.85084 0.0
C1567 C 0.47273 0.58704 0.85365 0.0
C1568 C 0.45604 0.66846 0.81988 0.0
C1569 C 0.43296 0.65084 0.79711 0.0
N1570 N 0.43459 0.6243 0.82073 0.0
C1571 C 0.44925 0.64451 0.82791 0.0
C1572 C 0.42655 0.62717 0.8055 0.0
C1573 C 0.4478 0.6716 0.80438 0.0
C1574 C 0.43454 0.50179 0.85272 0.0
N1575 N 0.44526 0.52169 0.86212 0.0
C1576 C 0.44962 0.47831 0.84921 0.0
C1577 C 0.47583 0.4753 0.85539 0.0
C1578 C 0.48663 0.4957 0.86496 0.0
C1579 C 0.47098 0.51892 0.8682 0.0
C1580 C 0.43186 0.52355 0.91198 0.0
C1581 C 0.43855 0.57332 0.89701 0.0
C1582 C 0.42724 0.5262 0.89593 0.0
N1583 N 0.43077 0.55084 0.88863 0.0
C1584 C 0.44336 0.57144 0.91307 0.0
C1585 C 0.44001 0.54635 0.92058 0.0
C1586 C 0.40458 0.61128 0.86412 0.0
C1587 C 0.34826 0.57088 0.81479 0.0
C1588 C 0.37351 0.61706 0.82675 0.0
C1589 C 0.34615 0.61843 0.82212 0.0
C1590 C 0.33348 0.59515 0.81611 0.0
N1591 N 0.38789 0.59318 0.82541 0.0
C1592 C 0.3756 0.57028 0.81953 0.0
Co1593 Co 0.20506 0.67351 0.61716 0.0
Co1594 Co 0.16839 0.67325 0.58295 0.0
O1595 O 0.2019 0.6652 0.59475 0.0
C1596 C 0.22429 0.61576 0.61553 0.0
O1597 O 0.20382 0.61044 0.60607 0.0
C1598 C 0.21212 0.69569 0.56178 0.0
O1599 O 0.22395 0.70723 0.57389 0.0
O1600 O 0.17002 0.71247 0.58954 0.0
O1601 O 0.18216 0.70723 0.6147 0.0
H1602 H 0.075 0.71409 0.5754 0.0
H1603 H 0.2553 0.66323 0.59877 0.0
O1604 O 0.22804 0.63997 0.6206 0.0
H1605 H 0.26548 0.75689 0.61939 0.0
H1606 H 0.2549 0.68088 0.66854 0.0
H1607 H 0.1664 0.69236 0.64164 0.0
H1608 H 0.22457 0.72947 0.62566 0.0
H1609 H 0.25068 0.67135 0.64032 0.0
O1610 O 0.19034 0.68174 0.56362 0.0
H1611 H 0.11718 0.7033 0.58997 0.0
H1612 H 0.14882 0.66076 0.55063 0.0
H1613 H 0.16976 0.7023 0.66984 0.0
H1614 H 0.29669 0.68985 0.59232 0.0
H1615 H 0.21426 0.69657 0.68349 0.0
H1616 H 0.30193 0.73706 0.60264 0.0
O1617 O 0.17149 0.65193 0.62176 0.0
H1618 H 0.20777 0.58552 0.56226 0.0
H1619 H 0.12476 0.63037 0.58261 0.0
H1620 H 0.12302 0.58165 0.57523 0.0
H1621 H 0.16473 0.55892 0.56493 0.0
H1622 H 0.20868 0.63415 0.56996 0.0
H1623 H 0.10709 0.67131 0.53558 0.0
H1624 H 0.06976 0.69807 0.54799 0.0
O1625 O 0.14494 0.66438 0.60161 0.0
C1626 C 0.17242 0.72143 0.60349 0.0
C1627 C 0.09111 0.70238 0.56987 0.0
C1628 C 0.10913 0.6784 0.54752 0.0
N1629 N 0.13541 0.68134 0.57118 0.0
C1630 C 0.11502 0.69617 0.57807 0.0
C1631 C 0.13276 0.67257 0.55608 0.0
C1632 C 0.08819 0.6934 0.55449 0.0
C1633 C 0.25757 0.68367 0.60341 0.0
N1634 N 0.23762 0.69473 0.61263 0.0
C1635 C 0.28099 0.69868 0.59968 0.0
C1636 C 0.2839 0.72519 0.60545 0.0
C1637 C 0.26344 0.73633 0.61484 0.0
C1638 C 0.24029 0.72073 0.61831 0.0
C1639 C 0.23541 0.6835 0.66272 0.0
C1640 C 0.18587 0.68996 0.64746 0.0
C1641 C 0.23288 0.67809 0.64675 0.0
N1642 N 0.20836 0.68147 0.63931 0.0
C1643 C 0.18764 0.69556 0.66345 0.0
C1644 C 0.2126 0.69231 0.6711 0.0
C1645 C 0.1482 0.65369 0.61513 0.0
C1646 C 0.18945 0.59521 0.56669 0.0
C1647 C 0.14304 0.6206 0.57823 0.0
C1648 C 0.1419 0.59302 0.57402 0.0
C1649 C 0.1653 0.58029 0.56822 0.0
N1650 N 0.1668 0.63511 0.5767 0.0
C1651 C 0.18981 0.62277 0.57101 0.0
Co1652 Co 0.08696 0.55266 0.14844 0.0
Co1653 Co 0.08533 0.59054 0.18255 0.0
O1654 O 0.09497 0.55727 0.17082 0.0
C1655 C 0.14628 0.53717 0.15035 0.0
O1656 O 0.15045 0.55672 0.16059 0.0
C1657 C 0.06322 0.54567 0.20319 0.0
O1658 O 0.05348 0.53313 0.1908 0.0
O1659 O 0.04641 0.5887 0.17517 0.0
O1660 O 0.0512 0.57183 0.15093 0.0
H1661 H 0.04262 0.68325 0.1894 0.0
H1662 H 0.10245 0.50459 0.16754 0.0
O1663 O 0.12243 0.5329 0.14489 0.0
H1664 H 0.01059 0.48344 0.14699 0.0
H1665 H 0.0835 0.50099 0.0975 0.0
H1666 H 0.06389 0.58858 0.1238 0.0
H1667 H 0.0335 0.52673 0.14011 0.0
H1668 H 0.0932 0.50683 0.12561 0.0
O1669 O 0.07594 0.56828 0.20168 0.0
H1670 H 0.05508 0.6414 0.17497 0.0
H1671 H 0.09535 0.60998 0.21518 0.0
H1672 H 0.05366 0.58354 0.09571 0.0
H1673 H 0.08042 0.46088 0.1746 0.0
H1674 H 0.06348 0.53949 0.08237 0.0
H1675 H 0.03411 0.45012 0.16433 0.0
O1676 O 0.10512 0.58818 0.1433 0.0
H1677 H 0.17218 0.55206 0.205 0.0
H1678 H 0.12748 0.63478 0.18413 0.0
H1679 H 0.17562 0.63712 0.19259 0.0
H1680 H 0.19828 0.59555 0.20317 0.0
H1681 H 0.12415 0.55058 0.19619 0.0
H1682 H 0.08313 0.65139 0.23008 0.0
H1683 H 0.05666 0.68844 0.21717 0.0
O1684 O 0.09502 0.61412 0.16416 0.0
C1685 C 0.03693 0.58314 0.1616 0.0
C1686 C 0.0542 0.66727 0.19515 0.0
C1687 C 0.0769 0.64937 0.21799 0.0
N1688 N 0.076 0.6233 0.1942 0.0
C1689 C 0.06136 0.64355 0.18703 0.0
C1690 C 0.08368 0.62593 0.2095 0.0
C1691 C 0.06206 0.67016 0.21073 0.0
C1692 C 0.08239 0.49994 0.16293 0.0
N1693 N 0.06929 0.51819 0.15341 0.0
C1694 C 0.06998 0.47521 0.16701 0.0
C1695 C 0.04398 0.4692 0.16126 0.0
C1696 C 0.03076 0.4879 0.15155 0.0
C1697 C 0.04379 0.51245 0.14774 0.0
C1698 C 0.0791 0.52027 0.10319 0.0
C1699 C 0.0681 0.5693 0.1181 0.0
C1700 C 0.08461 0.52373 0.11909 0.0
N1701 N 0.07898 0.54798 0.12637 0.0
C1702 C 0.06231 0.56659 0.10218 0.0
C1703 C 0.06785 0.54188 0.0947 0.0
C1704 C 0.10414 0.61126 0.15026 0.0
C1705 C 0.16252 0.57033 0.20044 0.0
C1706 C 0.13724 0.61657 0.18858 0.0
C1707 C 0.16448 0.61804 0.19343 0.0
C1708 C 0.17717 0.59472 0.19938 0.0
N1709 N 0.123 0.59257 0.18964 0.0
C1710 C 0.1353 0.56964 0.19549 0.0
Co1711 Co 0.2082 0.33935 0.89762 0.0
Co1712 Co 0.17034 0.33567 0.93148 0.0
O1713 O 0.20378 0.3462 0.92015 0.0
C1714 C 0.2258 0.398 0.90056 0.0
O1715 O 0.2066 0.40238 0.91099 0.0
C1716 C 0.2147 0.31403 0.95261 0.0
O1717 O 0.22771 0.30419 0.94041 0.0
O1718 O 0.17351 0.29702 0.92392 0.0
O1719 O 0.18785 0.30406 0.89936 0.0
H1720 H 0.07869 0.2902 0.93723 0.0
H1721 H 0.25678 0.35199 0.91694 0.0
O1722 O 0.22913 0.3743 0.89472 0.0
H1723 H 0.27473 0.26079 0.89455 0.0
H1724 H 0.25969 0.33728 0.84659 0.0
H1725 H 0.17143 0.31926 0.87255 0.0
H1726 H 0.23221 0.28554 0.88822 0.0
H1727 H 0.25423 0.34535 0.87489 0.0
O1728 O 0.19213 0.32665 0.9508 0.0
H1729 H 0.12063 0.30399 0.92329 0.0
H1730 H 0.14946 0.34492 0.96389 0.0
H1731 H 0.17608 0.3107 0.84425 0.0
H1732 H 0.29975 0.32808 0.92348 0.0
H1733 H 0.22046 0.31973 0.83109 0.0
H1734 H 0.30889 0.2821 0.91228 0.0
O1735 O 0.17333 0.35901 0.89299 0.0
H1736 H 0.20547 0.42317 0.95487 0.0
H1737 H 0.12497 0.37665 0.9325 0.0
H1738 H 0.12098 0.42457 0.94116 0.0
H1739 H 0.16141 0.44814 0.95249 0.0
H1740 H 0.20864 0.37535 0.94585 0.0
H1741 H 0.10794 0.33138 0.97831 0.0
H1742 H 0.07214 0.30391 0.96495 0.0
O1743 O 0.14705 0.34494 0.91291 0.0
C1744 C 0.17774 0.28874 0.90996 0.0
C1745 C 0.09412 0.30221 0.94317 0.0
C1746 C 0.11055 0.32529 0.96623 0.0
N1747 N 0.13746 0.32531 0.94274 0.0
C1748 C 0.1179 0.31012 0.93533 0.0
C1749 C 0.13407 0.33282 0.95802 0.0
C1750 C 0.09047 0.30989 0.95873 0.0
C1751 C 0.26074 0.33208 0.91193 0.0
N1752 N 0.24204 0.32021 0.90219 0.0
C1753 C 0.28505 0.3186 0.91571 0.0
C1754 C 0.29015 0.29279 0.90944 0.0
C1755 C 0.27098 0.28081 0.89951 0.0
C1756 C 0.24688 0.29488 0.89601 0.0
C1757 C 0.24026 0.33323 0.8522 0.0
C1758 C 0.19085 0.32312 0.86692 0.0
C1759 C 0.23702 0.33782 0.86821 0.0
N1760 N 0.21257 0.33263 0.87539 0.0
C1761 C 0.19334 0.31828 0.85089 0.0
C1762 C 0.21824 0.32337 0.84351 0.0
C1763 C 0.15005 0.35625 0.89955 0.0
C1764 C 0.18769 0.4131 0.94998 0.0
C1765 C 0.14271 0.3868 0.93729 0.0
C1766 C 0.1403 0.41392 0.94225 0.0
C1767 C 0.16298 0.42711 0.94862 0.0
N1768 N 0.16702 0.37319 0.93867 0.0
C1769 C 0.18934 0.38599 0.94491 0.0
Co1770 Co 0.42297 0.45991 0.64706 0.0
Co1771 Co 0.42675 0.42156 0.68077 0.0
O1772 O 0.41622 0.45512 0.66957 0.0
C1773 C 0.36431 0.47691 0.65024 0.0
O1774 O 0.36024 0.45726 0.66045 0.0
C1775 C 0.44834 0.46596 0.70184 0.0
O1776 O 0.4578 0.47907 0.68958 0.0
O1777 O 0.46533 0.42469 0.67311 0.0
O1778 O 0.45831 0.43962 0.64865 0.0
H1779 H 0.47189 0.32968 0.68617 0.0
H1780 H 0.41019 0.50824 0.66655 0.0
O1781 O 0.38791 0.48071 0.64436 0.0
H1782 H 0.50138 0.52666 0.64426 0.0
H1783 H 0.42458 0.51228 0.5963 0.0
H1784 H 0.44311 0.42365 0.62177 0.0
H1785 H 0.47673 0.48414 0.63778 0.0
H1786 H 0.41665 0.50629 0.62458 0.0
O1787 O 0.43598 0.44321 0.70012 0.0
H1788 H 0.45814 0.37179 0.67236 0.0
H1789 H 0.41777 0.40048 0.71317 0.0
H1790 H 0.45153 0.42883 0.59349 0.0
H1791 H 0.43399 0.5512 0.67322 0.0
H1792 H 0.44224 0.47341 0.58057 0.0
H1793 H 0.47997 0.56058 0.66208 0.0
O1794 O 0.40344 0.42504 0.64227 0.0
H1795 H 0.33953 0.45664 0.7045 0.0
H1796 H 0.38566 0.37629 0.68174 0.0
H1797 H 0.3378 0.37231 0.69051 0.0
H1798 H 0.31443 0.41267 0.70204 0.0
H1799 H 0.38729 0.45982 0.69537 0.0
H1800 H 0.43127 0.35877 0.72745 0.0
H1801 H 0.45844 0.32296 0.71392 0.0
O1802 O 0.41727 0.39848 0.66215 0.0
C1803 C 0.47358 0.42916 0.65916 0.0
C1804 C 0.46001 0.34511 0.69219 0.0
C1805 C 0.43724 0.36145 0.71536 0.0
N1806 N 0.43709 0.38855 0.69193 0.0
C1807 C 0.45212 0.36899 0.68442 0.0
C1808 C 0.42974 0.38507 0.70722 0.0
C1809 C 0.45248 0.34136 0.70776 0.0
C1810 C 0.43009 0.51231 0.66155 0.0
N1811 N 0.44202 0.49374 0.65176 0.0
C1812 C 0.44351 0.53661 0.66541 0.0
C1813 C 0.46932 0.54184 0.65918 0.0
C1814 C 0.48136 0.52281 0.64919 0.0
C1815 C 0.46734 0.49871 0.6456 0.0
C1816 C 0.42874 0.49277 0.6018 0.0
C1817 C 0.43914 0.44315 0.61625 0.0
C1818 C 0.42424 0.48923 0.6178 0.0
N1819 N 0.42957 0.46468 0.62484 0.0
C1820 C 0.44389 0.44595 0.60022 0.0
C1821 C 0.43866 0.47095 0.59298 0.0
C1822 C 0.40615 0.40167 0.64875 0.0
C1823 C 0.34951 0.4389 0.69953 0.0
C1824 C 0.3756 0.394 0.68663 0.0
C1825 C 0.34851 0.39159 0.69164 0.0
C1826 C 0.33543 0.41423 0.69812 0.0
N1827 N 0.38929 0.41826 0.68805 0.0
C1828 C 0.37659 0.44054 0.6944 0.0
Co1829 Co 0.30028 0.67168 0.39796 0.0
Co1830 Co 0.33841 0.67523 0.43173 0.0
O1831 O 0.30484 0.66491 0.42048 0.0
C1832 C 0.28256 0.6132 0.40129 0.0
O1833 O 0.30197 0.60905 0.41163 0.0
C1834 C 0.29392 0.69684 0.45268 0.0
O1835 O 0.28084 0.70617 0.44036 0.0
O1836 O 0.33543 0.71384 0.42411 0.0
O1837 O 0.32082 0.70696 0.39958 0.0
H1838 H 0.43041 0.72004 0.43729 0.0
H1839 H 0.25167 0.65935 0.41733 0.0
O1840 O 0.27918 0.63677 0.39525 0.0
H1841 H 0.23416 0.75059 0.39483 0.0
H1842 H 0.24839 0.67357 0.34705 0.0
H1843 H 0.33691 0.69148 0.37276 0.0
H1844 H 0.27656 0.72561 0.38853 0.0
H1845 H 0.25406 0.66566 0.37535 0.0
O1846 O 0.31671 0.68455 0.45103 0.0
H1847 H 0.38832 0.70646 0.42341 0.0
H1848 H 0.35928 0.66611 0.46417 0.0
H1849 H 0.33206 0.69988 0.34445 0.0
H1850 H 0.20883 0.68348 0.42382 0.0
H1851 H 0.28754 0.69091 0.33141 0.0
H1852 H 0.1999 0.72948 0.41257 0.0
O1853 O 0.33497 0.65179 0.39331 0.0
H1854 H 0.30276 0.58815 0.45542 0.0
H1855 H 0.38347 0.63393 0.43281 0.0
H1856 H 0.38716 0.58603 0.4416 0.0
H1857 H 0.34662 0.56284 0.45305 0.0
H1858 H 0.29989 0.63593 0.44627 0.0
H1859 H 0.40096 0.67944 0.47852 0.0
H1860 H 0.43694 0.70652 0.46505 0.0
O1861 O 0.36158 0.66561 0.41315 0.0
C1862 C 0.33106 0.72221 0.41017 0.0
C1863 C 0.41491 0.7082 0.44328 0.0
C1864 C 0.39836 0.68544 0.46642 0.0
N1865 N 0.3714 0.68542 0.44294 0.0
C1866 C 0.39105 0.7004 0.43547 0.0
C1867 C 0.37476 0.67803 0.45825 0.0
C1868 C 0.41855 0.70062 0.45885 0.0
C1869 C 0.24781 0.67926 0.41229 0.0
N1870 N 0.26656 0.69102 0.40254 0.0
C1871 C 0.22357 0.69286 0.41605 0.0
C1872 C 0.21859 0.71869 0.40975 0.0
C1873 C 0.23782 0.73056 0.39981 0.0
C1874 C 0.26184 0.71636 0.39633 0.0
C1875 C 0.26788 0.6776 0.3526 0.0
C1876 C 0.31743 0.68766 0.36719 0.0
C1877 C 0.27123 0.67311 0.36862 0.0
N1878 N 0.29575 0.67827 0.37573 0.0
C1879 C 0.31483 0.6924 0.35115 0.0
C1880 C 0.28985 0.68734 0.34384 0.0
C1881 C 0.35832 0.65425 0.39983 0.0
C1882 C 0.32059 0.59805 0.45049 0.0
C1883 C 0.36568 0.62394 0.43766 0.0
C1884 C 0.36793 0.59684 0.44269 0.0
C1885 C 0.34519 0.58385 0.44913 0.0
N1886 N 0.34148 0.63774 0.43903 0.0
C1887 C 0.31911 0.62514 0.44535 0.0
H1888 H 0.45543 0.9403 0.28662 0.0
H1889 H 0.43495 0.0207 0.30371 0.0
H1890 H 0.45846 0.95811 0.26012 0.0
H1891 H 0.43581 0.03839 0.27712 0.0
H1892 H 0.45597 0.07001 0.22907 0.0
H1893 H 0.4589 0.05222 0.25559 0.0
H1894 H 0.43534 0.97215 0.23866 0.0
H1895 H 0.43457 0.98977 0.21207 0.0
C1896 C 0.45141 0.96183 0.28466 0.0
C1897 C 0.44505 0.9791 0.29728 0.0
C1898 C 0.45283 0.9721 0.26937 0.0
C1899 C 0.44717 0.99985 0.26614 0.0
C1900 C 0.44092 0.01708 0.27891 0.0
C1901 C 0.44022 0.00692 0.29426 0.0
C1902 C 0.45174 0.04852 0.23105 0.0
C1903 C 0.44516 0.03129 0.21844 0.0
C1904 C 0.4531 0.03827 0.24635 0.0
C1905 C 0.44718 0.01058 0.2496 0.0
C1906 C 0.44068 0.99339 0.23685 0.0
C1907 C 0.44003 1.00353 0.2215 0.0
H1908 H 0.24731 0.21754 0.55413 0.0
H1909 H 0.32106 0.18504 0.53346 0.0
H1910 H 0.22628 0.21997 0.5282 0.0
H1911 H 0.30001 0.1873 0.50766 0.0
H1912 H 0.26266 0.21803 0.46168 0.0
H1913 H 0.28373 0.21962 0.48762 0.0
H1914 H 0.20922 0.1884 0.50803 0.0
H1915 H 0.18815 0.18698 0.48222 0.0
C1916 C 0.2591 0.21103 0.54408 0.0
C1917 C 0.2859 0.20106 0.54595 0.0
C1918 C 0.24698 0.21228 0.5292 0.0
C1919 C 0.26141 0.20382 0.51578 0.0
C1920 C 0.28836 0.19429 0.51766 0.0
C1921 C 0.30039 0.19283 0.53252 0.0
C1922 C 0.2507 0.21168 0.47171 0.0
C1923 C 0.22368 0.20235 0.46979 0.0
C1924 C 0.26285 0.21243 0.48659 0.0
C1925 C 0.24822 0.20411 0.49997 0.0
C1926 C 0.22104 0.19526 0.49806 0.0
C1927 C 0.20899 0.19429 0.48319 0.0
H1928 H 0.0735 0.99043 0.80258 0.0
H1929 H 0.05327 0.071 0.78556 0.0
H1930 H 0.07242 0.97286 0.77598 0.0
H1931 H 0.05014 0.05329 0.75904 0.0
H1932 H 0.07479 0.02153 0.71108 0.0
H1933 H 0.07372 0.03912 0.73767 0.0
H1934 H 0.04875 0.95939 0.75445 0.0
H1935 H 0.05185 0.94159 0.72795 0.0
C1936 C 0.06825 0.00429 0.79315 0.0
C1937 C 0.06354 0.03212 0.7962 0.0
C1938 C 0.06743 0.99418 0.7778 0.0
C1939 C 0.06123 0.01149 0.76506 0.0
C1940 C 0.05571 0.03925 0.7683 0.0
C1941 C 0.0572 0.04945 0.78359 0.0
C1942 C 0.0689 0.00784 0.72047 0.0
C1943 C 0.06344 0.98015 0.71738 0.0
C1944 C 0.06811 0.01796 0.73581 0.0
C1945 C 0.06118 1.00084 0.74852 0.0
C1946 C 0.05487 0.97326 0.74524 0.0
C1947 C 0.05633 0.96301 0.72994 0.0
H1948 H 0.3195 0.82353 0.98126 0.0
H1949 H 0.24442 0.79304 0.9611 0.0
H1950 H 0.29908 0.82155 1.00723 0.0
H1951 H 0.22401 0.79093 0.98719 0.0
H1952 H 0.18802 0.82676 0.033 0.0
H1953 H 0.20864 0.82389 1.00716 0.0
H1954 H 0.2819 0.78966 0.02749 0.0
H1955 H 0.26123 0.79267 0.05353 0.0
C1956 C 0.29867 0.81622 0.98236 0.0
C1957 C 0.28359 0.80854 0.96902 0.0
C1958 C 0.28702 0.81491 0.9973 0.0
C1959 C 0.25988 0.80611 0.99935 0.0
C1960 C 0.24489 0.79805 0.98604 0.0
C1961 C 0.25664 0.79913 0.97108 0.0
C1962 C 0.2085 0.8185 0.03202 0.0
C1963 C 0.22297 0.81003 0.04542 0.0
C1964 C 0.22026 0.81666 0.01713 0.0
C1965 C 0.24694 0.80653 0.01519 0.0
C1966 C 0.26138 0.79778 0.02856 0.0
C1967 C 0.24948 0.79937 0.04349 0.0
H1968 H 0.53946 0.00456 0.80183 0.0
H1969 H 0.57833 0.93247 0.78288 0.0
H1970 H 0.53723 0.02436 0.77562 0.0
H1971 H 0.57635 0.95239 0.75675 0.0
H1972 H 0.54745 0.98666 0.70952 0.0
H1973 H 0.54514 0.96595 0.73558 0.0
H1974 H 0.56861 0.04306 0.75623 0.0
H1975 H 0.57062 0.06372 0.73038 0.0
C1976 C 0.54745 0.99287 0.79209 0.0
C1977 C 0.55913 0.96691 0.79454 0.0
C1978 C 0.54631 0.0043 0.77704 0.0
C1979 C 0.55666 0.99004 0.76401 0.0
C1980 C 0.56789 0.96387 0.76644 0.0
C1981 C 0.56919 0.95251 0.78149 0.0
C1982 C 0.55188 0.99924 0.71963 0.0
C1983 C 0.55926 0.02688 0.71778 0.0
C1984 C 0.55074 0.98732 0.73458 0.0
C1985 C 0.55671 1.00279 0.74807 0.0
C1986 C 0.56355 0.03055 0.74619 0.0
C1987 C 0.56488 0.04238 0.73129 0.0
H1988 H 0.68771 0.80076 0.4794 0.0
H1989 H 0.76858 0.81934 0.46229 0.0
H1990 H 0.70531 0.79808 0.50596 0.0
H1991 H 0.78609 0.81872 0.48892 0.0
H1992 H 0.81693 0.79873 0.53717 0.0
H1993 H 0.79919 0.79548 0.51066 0.0
H1994 H 0.71978 0.82185 0.52719 0.0
H1995 H 0.73731 0.82307 0.5538 0.0
C1996 C 0.70931 0.80442 0.48135 0.0
C1997 C 0.72675 0.81016 0.46871 0.0
C1998 C 0.71945 0.80319 0.49668 0.0
C1999 C 0.74728 0.80839 0.49991 0.0
C2000 C 0.76471 0.81399 0.48712 0.0
C2001 C 0.75464 0.81454 0.47175 0.0
C2002 C 0.79559 0.80353 0.53512 0.0
C2003 C 0.77852 0.81105 0.54763 0.0
C2004 C 0.78538 0.80197 0.51982 0.0
C2005 C 0.7579 0.80859 0.51646 0.0
C2006 C 0.74085 0.81599 0.52911 0.0
C2007 C 0.75094 0.81688 0.54447 0.0
H2008 H 0.93581 0.06816 0.28395 0.0
H2009 H 0.9631 0.99214 0.30446 0.0
H2010 H 0.93683 0.04733 0.25809 0.0
H2011 H 0.96427 0.97128 0.27845 0.0
H2012 H 0.92841 0.93637 0.23221 0.0
H2013 H 0.93128 0.95687 0.25814 0.0
H2014 H 0.96831 0.02907 0.23817 0.0
H2015 H 0.9653 0.00861 0.21214 0.0
C2016 C 0.94221 0.04702 0.28295 0.0
C2017 C 0.94933 0.03184 0.29635 0.0
C2018 C 0.94296 0.03511 0.26807 0.0
C2019 C 0.95062 0.0076 0.26614 0.0
C2020 C 0.95802 0.99245 0.27951 0.0
C2021 C 0.95752 0.00446 0.29443 0.0
C2022 C 0.93727 0.95659 0.23331 0.0
C2023 C 0.94656 0.97084 0.22002 0.0
C2024 C 0.93909 0.96827 0.24824 0.0
C2025 C 0.95002 0.99464 0.25029 0.0
C2026 C 0.95953 0.00883 0.23702 0.0
C2027 C 0.95793 0.99703 0.22208 0.0
H2028 H 0.81653 0.18569 0.98202 0.0
H2029 H 0.74126 0.21448 0.9613 0.0
H2030 H 0.79588 0.18817 0.00788 0.0
H2031 H 0.72056 0.21713 0.98734 0.0
H2032 H 0.68509 0.18237 0.03386 0.0
H2033 H 0.70534 0.18502 0.00787 0.0
H2034 H 0.77848 0.22042 0.02766 0.0
H2035 H 0.75825 0.2176 0.05378 0.0
C2036 C 0.7956 0.19273 0.98297 0.0
C2037 C 0.78056 0.1998 0.96951 0.0
C2038 C 0.7838 0.19434 0.99786 0.0
C2039 C 0.75653 0.20285 0.99975 0.0
C2040 C 0.74155 0.21025 0.98631 0.0
C2041 C 0.75346 0.20888 0.97138 0.0
C2042 C 0.70543 0.1909 0.0327 0.0
C2043 C 0.72004 0.19969 0.04598 0.0
C2044 C 0.71699 0.19258 0.01774 0.0
C2045 C 0.74359 0.20289 0.01562 0.0
C2046 C 0.75805 0.21212 0.02886 0.0
C2047 C 0.74638 0.21066 0.04384 0.0
H2048 H 0.96641 0.4952 0.71373 0.0
H2049 H 0.93434 0.57033 0.73297 0.0
H2050 H 0.96806 0.47545 0.74001 0.0
H2051 H 0.93578 0.55056 0.7591 0.0
H2052 H 0.96419 0.51482 0.80596 0.0
H2053 H 0.9671 0.53475 0.77974 0.0
H2054 H 0.93551 0.45984 0.76 0.0
H2055 H 0.93281 0.43991 0.78604 0.0
C2056 C 0.95985 0.50757 0.72354 0.0
C2057 C 0.95019 0.53435 0.72117 0.0
C2058 C 0.96065 0.49619 0.73862 0.0
C2059 C 0.95202 0.51138 0.75172 0.0
C2060 C 0.94288 0.53834 0.74935 0.0
C2061 C 0.94188 0.54962 0.7343 0.0
C2062 C 0.95802 0.50255 0.79601 0.0
C2063 C 0.94821 0.47576 0.79817 0.0
C2064 C 0.95955 0.51402 0.78098 0.0
C2065 C 0.95154 0.49891 0.76771 0.0
C2066 C 0.94218 0.47198 0.76988 0.0
C2067 C 0.94045 0.46061 0.78488 0.0
H2068 H 0.81909 0.70451 0.03751 0.0
H2069 H 0.73799 0.68444 0.05369 0.0
H2070 H 0.8021 0.70833 0.01087 0.0
H2071 H 0.7211 0.68623 0.02693 0.0
H2072 H 0.69139 0.70693 0.97854 0.0
H2073 H 0.70835 0.71001 1.00525 0.0
H2074 H 0.78855 0.68497 0.98932 0.0
H2075 H 0.77182 0.6839 0.96257 0.0
C2076 C 0.79757 0.70078 0.03533 0.0
C2077 C 0.7799 0.69423 0.04774 0.0
C2078 C 0.78778 0.70267 0.01996 0.0
C2079 C 0.76009 0.69734 0.01642 0.0
C2080 C 0.7424 0.69104 0.02898 0.0
C2081 C 0.75211 0.68983 0.04442 0.0
C2082 C 0.71275 0.70247 0.98076 0.0
C2083 C 0.73026 0.69532 0.96839 0.0
C2084 C 0.7225 0.70391 0.99617 0.0
C2085 C 0.74996 0.69755 0.99976 0.0
C2086 C 0.76747 0.69064 0.98724 0.0
C2087 C 0.75784 0.68985 0.97179 0.0
H2088 H 0.54854 0.56186 0.28708 0.0
H2089 H 0.5784 0.48396 0.3035 0.0
H2090 H 0.54601 0.54399 0.26056 0.0
H2091 H 0.57796 0.46649 0.27691 0.0
H2092 H 0.55801 0.43293 0.22934 0.0
H2093 H 0.55498 0.45038 0.25589 0.0
H2094 H 0.56922 0.53239 0.23858 0.0
H2095 H 0.57011 0.51485 0.21195 0.0
C2096 C 0.55469 0.54088 0.28498 0.0
C2097 C 0.56351 0.5243 0.29743 0.0
C2098 C 0.55356 0.53062 0.26967 0.0
C2099 C 0.56193 0.50364 0.26626 0.0
C2100 C 0.57069 0.48711 0.27885 0.0
C2101 C 0.57114 0.49718 0.29421 0.0
C2102 C 0.56025 0.45473 0.23124 0.0
C2103 C 0.56424 0.4725 0.21852 0.0
C2104 C 0.5588 0.46482 0.24656 0.0
C2105 C 0.56207 0.49298 0.24971 0.0
C2106 C 0.56601 0.51071 0.23685 0.0
C2107 C 0.56673 0.50065 0.22148 0.0
H2108 H 0.69383 0.29936 0.5355 0.0
H2109 H 0.77176 0.32826 0.55241 0.0
H2110 H 0.71226 0.29649 0.5091 0.0
H2111 H 0.7898 0.3275 0.52597 0.0
H2112 H 0.82441 0.30699 0.4788 0.0
H2113 H 0.80617 0.30423 0.50519 0.0
H2114 H 0.72481 0.31914 0.48709 0.0
H2115 H 0.74313 0.31971 0.46063 0.0
C2116 C 0.71493 0.30524 0.53354 0.0
C2117 C 0.73136 0.31387 0.54609 0.0
C2118 C 0.72552 0.3039 0.5183 0.0
C2119 C 0.75271 0.31187 0.51507 0.0
C2120 C 0.76904 0.32051 0.52777 0.0
C2121 C 0.75863 0.32115 0.54304 0.0
C2122 C 0.80258 0.30943 0.4805 0.0
C2123 C 0.78523 0.31352 0.46761 0.0
C2124 C 0.79203 0.30814 0.49572 0.0
C2125 C 0.76382 0.31171 0.49861 0.0
C2126 C 0.7465 0.31571 0.48558 0.0
C2127 C 0.75702 0.31626 0.4703 0.0
H2128 H 0.04313 0.51319 0.30365 0.0
H2129 H 0.07531 0.43838 0.28409 0.0
H2130 H 0.04076 0.53303 0.27741 0.0
H2131 H 0.07317 0.45824 0.25798 0.0
H2132 H 0.0448 0.49427 0.21121 0.0
H2133 H 0.04199 0.47408 0.23738 0.0
H2134 H 0.07276 0.54913 0.25735 0.0
H2135 H 0.07535 0.5693 0.23137 0.0
C2136 C 0.0495 0.50088 0.29377 0.0
C2137 C 0.05948 0.47418 0.29606 0.0
C2138 C 0.04832 0.51233 0.27871 0.0
C2139 C 0.05685 0.4973 0.26552 0.0
C2140 C 0.06616 0.47036 0.26779 0.0
C2141 C 0.06755 0.45902 0.28283 0.0
C2142 C 0.05079 0.50652 0.2212 0.0
C2143 C 0.06035 0.53342 0.21911 0.0
C2144 C 0.04932 0.49489 0.23621 0.0
C2145 C 0.05714 0.50994 0.24954 0.0
C2146 C 0.06623 0.537 0.24744 0.0
C2147 C 0.0679 0.54852 0.23246 0.0
H2148 H 0.31901 0.3259 0.03462 0.0
H2149 H 0.24306 0.29528 0.05358 0.0
H2150 H 0.29994 0.32387 0.00836 0.0
H2151 H 0.22399 0.29298 0.02714 0.0
H2152 H 0.19009 0.32695 0.98037 0.0
H2153 H 0.20913 0.32461 1.00662 0.0
H2154 H 0.28455 0.2925 0.98786 0.0
H2155 H 0.26552 0.2951 0.96141 0.0
C2156 C 0.29826 0.31855 0.03321 0.0
C2157 C 0.28257 0.31084 0.04631 0.0
C2158 C 0.28738 0.31719 0.01807 0.0
C2159 C 0.2604 0.30826 0.01556 0.0
C2160 C 0.24476 0.30023 0.02863 0.0
C2161 C 0.25574 0.3014 0.04381 0.0
C2162 C 0.21071 0.31926 0.98178 0.0
C2163 C 0.22627 0.3113 0.96869 0.0
C2164 C 0.22158 0.31774 0.99691 0.0
C2165 C 0.24841 0.30836 0.99943 0.0
C2166 C 0.26391 0.30008 0.98636 0.0
C2167 C 0.25294 0.30143 0.97119 0.0
H2168 H 0.43423 0.57108 0.78333 0.0
H2169 H 0.46769 0.49654 0.8026 0.0
H2170 H 0.43644 0.55157 0.75719 0.0
H2171 H 0.47012 0.47704 0.77627 0.0
H2172 H 0.43652 0.44129 0.72978 0.0
H2173 H 0.43858 0.46079 0.75594 0.0
H2174 H 0.46824 0.53687 0.73667 0.0
H2175 H 0.46596 0.51737 0.71034 0.0
C2176 C 0.44223 0.55055 0.78201 0.0
C2177 C 0.4507 0.53538 0.79516 0.0
C2178 C 0.44368 0.53942 0.76694 0.0
C2179 C 0.45347 0.5127 0.76454 0.0
C2180 C 0.46222 0.49759 0.77767 0.0
C2181 C 0.46097 0.50883 0.79278 0.0
C2182 C 0.44362 0.46215 0.73107 0.0
C2183 C 0.45099 0.47776 0.71787 0.0
C2184 C 0.44498 0.47329 0.74614 0.0
C2185 C 0.45357 0.50044 0.74849 0.0
C2186 C 0.46127 0.51597 0.73531 0.0
C2187 C 0.46011 0.50474 0.7202 0.0
H2188 H 0.18903 0.68033 0.53399 0.0
H2189 H 0.26216 0.71681 0.55322 0.0
H2190 H 0.20863 0.68287 0.50787 0.0
H2191 H 0.28176 0.71951 0.52692 0.0
H2192 H 0.31879 0.6861 0.48068 0.0
H2193 H 0.29911 0.68792 0.5068 0.0
H2194 H 0.22238 0.71532 0.48729 0.0
H2195 H 0.24208 0.71331 0.461 0.0
C2196 C 0.20927 0.68904 0.53267 0.0
C2197 C 0.22403 0.69829 0.54579 0.0
C2198 C 0.22043 0.69068 0.51762 0.0
C2199 C 0.24678 0.70142 0.51523 0.0
C2200 C 0.2615 0.7109 0.52833 0.0
C2201 C 0.25021 0.70948 0.54341 0.0
C2202 C 0.29774 0.69266 0.48191 0.0
C2203 C 0.28202 0.69947 0.46866 0.0
C2204 C 0.2865 0.69388 0.49695 0.0
C2205 C 0.25913 0.70175 0.49921 0.0
C2206 C 0.24346 0.70892 0.48599 0.0
C2207 C 0.2548 0.70792 0.47091 0.0
H2208 H 0.3704 0.98444 0.13555 0.0
H2209 H 0.30681 0.03925 0.15134 0.0
H2210 H 0.33605 0.95133 0.12767 0.0
H2211 H 0.2722 0.00561 0.1436 0.0
H2212 H 0.2187 0.94943 0.1119 0.0
H2213 H 0.25208 0.98392 0.12007 0.0
H2214 H 0.30333 0.92025 0.13925 0.0
H2215 H 0.27041 0.88593 0.13095 0.0
C2216 C 0.34906 0.98943 0.13743 0.0
C2217 C 0.34144 0.0146 0.14412 0.0
C2218 C 0.32932 0.97029 0.13296 0.0
C2219 C 0.3013 0.97569 0.13503 0.0
C2220 C 0.29358 1.00088 0.1417 0.0
C2221 C 0.31343 0.02008 0.14625 0.0
C2222 C 0.23712 0.9428 0.11783 0.0
C2223 C 0.24185 0.91484 0.1207 0.0
C2224 C 0.25617 0.96261 0.12262 0.0
C2225 C 0.28047 0.9549 0.13029 0.0
C2226 C 0.28507 0.92695 0.13318 0.0
C2227 C 0.26606 0.90723 0.12846 0.0
H2228 H 0.27154 0.12303 0.38675 0.0
H2229 H 0.21702 0.06016 0.40383 0.0
H2230 H 0.30382 0.08834 0.37845 0.0
H2231 H 0.24998 0.02512 0.39574 0.0
H2232 H 0.30583 0.97034 0.3643 0.0
H2233 H 0.2712 1.00378 0.37239 0.0
H2234 H 0.33504 0.05646 0.39007 0.0
H2235 H 0.36929 0.02378 0.38178 0.0
C2236 C 0.26645 0.10178 0.38884 0.0
C2237 C 0.24163 0.09447 0.39604 0.0
C2238 C 0.28511 0.08181 0.38413 0.0
C2239 C 0.27965 0.05387 0.3865 0.0
C2240 C 0.25475 0.04644 0.39362 0.0
C2241 C 0.23596 0.06653 0.39837 0.0
C2242 C 0.31241 0.98912 0.36986 0.0
C2243 C 0.3404 0.99435 0.37229 0.0
C2244 C 0.29256 0.00819 0.3746 0.0
C2245 C 0.30031 0.03292 0.38182 0.0
C2246 C 0.32828 0.03792 0.38432 0.0
C2247 C 0.34799 0.01899 0.37961 0.0
H2248 H 0.14044 0.02169 0.63142 0.0
H2249 H 0.20221 0.97027 0.65251 0.0
H2250 H 0.17536 0.0539 0.62339 0.0
H2251 H 0.23748 1.00323 0.64464 0.0
H2252 H 0.29441 0.05824 0.6137 0.0
H2253 H 0.26099 0.02327 0.62137 0.0
H2254 H 0.20496 0.08679 0.6357 0.0
H2255 H 0.23768 0.12136 0.62784 0.0
C2256 C 0.16149 0.01724 0.63442 0.0
C2257 C 0.16842 0.99334 0.6427 0.0
C2258 C 0.18158 0.03588 0.62986 0.0
C2259 C 0.20926 0.03133 0.63347 0.0
C2260 C 0.21637 0.00727 0.64158 0.0
C2261 C 0.19614 0.98848 0.64618 0.0
C2262 C 0.2749 0.06467 0.61843 0.0
C2263 C 0.26875 0.09266 0.62006 0.0
C2264 C 0.25584 0.04464 0.62294 0.0
C2265 C 0.2302 0.05219 0.62908 0.0
C2266 C 0.22427 0.08017 0.63077 0.0
C2267 C 0.24319 0.10006 0.62631 0.0
H2268 H 0.19774 0.03875 0.86128 0.0
H2269 H 0.13574 0.99015 0.88423 0.0
H2270 H 0.23265 0.00587 0.86959 0.0
H2271 H 0.17043 0.95789 0.89271 0.0
H2272 H 0.23238 0.88928 0.88911 0.0
H2273 H 0.19929 0.92354 0.88126 0.0
H2274 H 0.25676 0.98755 0.89282 0.0
H2275 H 0.29048 0.9529 0.90047 0.0
C2276 C 0.19154 0.02115 0.86811 0.0
C2277 C 0.16386 0.01706 0.87198 0.0
C2278 C 0.21159 1.00241 0.87298 0.0
C2279 C 0.20438 0.97913 0.88177 0.0
C2280 C 0.17673 0.9753 0.88574 0.0
C2281 C 0.15678 0.99394 0.88091 0.0
C2282 C 0.2381 0.91062 0.89004 0.0
C2283 C 0.26419 0.91826 0.89547 0.0
C2284 C 0.21897 0.93035 0.8856 0.0
C2285 C 0.22524 0.95837 0.88646 0.0
C2286 C 0.25133 0.96613 0.89188 0.0
C2287 C 0.27058 0.94628 0.89638 0.0
H2288 H 0.7378 0.11887 0.88235 0.0
H2289 H 0.78688 0.05701 0.90509 0.0
H2290 H 0.70629 0.08406 0.87338 0.0
H2291 H 0.75451 0.02186 0.89637 0.0
H2292 H 0.70235 0.96391 0.8651 0.0
H2293 H 0.73658 0.99758 0.8734 0.0
H2294 H 0.67197 0.05502 0.88382 0.0
H2295 H 0.6382 0.0221 0.8752 0.0
C2296 C 0.74184 0.09782 0.88555 0.0
C2297 C 0.76492 0.09086 0.89455 0.0
C2298 C 0.72358 0.07778 0.88044 0.0
C2299 C 0.72762 0.05008 0.88424 0.0
C2300 C 0.75085 0.04295 0.89311 0.0
C2301 C 0.76931 0.06313 0.89821 0.0
C2302 C 0.69552 0.98382 0.86906 0.0
C2303 C 0.66747 0.99026 0.86939 0.0
C2304 C 0.71514 1.00304 0.87394 0.0
C2305 C 0.70712 0.02913 0.87923 0.0
C2306 C 0.67905 0.0354 0.87956 0.0
C2307 C 0.65957 0.01634 0.87467 0.0
H2308 H 0.69335 0.02102 0.66554 0.0
H2309 H 0.65028 0.00512 0.62238 0.0
H2310 H 0.7298 0.98955 0.65731 0.0
H2311 H 0.68686 0.97435 0.61409 0.0
H2312 H 0.77189 0.94022 0.59948 0.0
H2313 H 0.74007 0.97643 0.60761 0.0
H2314 H 0.72874 0.93598 0.652 0.0
H2315 H 0.75984 0.89962 0.64382 0.0
C2316 C 0.69185 0.01111 0.65424 0.0
C2317 C 0.66889 0.01541 0.64465 0.0
C2318 C 0.71263 0.99309 0.64956 0.0
C2319 C 0.71116 0.97962 0.63504 0.0
C2320 C 0.68865 0.98464 0.62526 0.0
C2321 C 0.66763 1.00211 0.63008 0.0
C2322 C 0.76277 0.93923 0.61101 0.0
C2323 C 0.76823 0.91701 0.62097 0.0
C2324 C 0.74454 0.95988 0.61564 0.0
C2325 C 0.73202 0.95901 0.63046 0.0
C2326 C 0.73826 0.93729 0.64059 0.0
C2327 C 0.75593 0.91639 0.63584 0.0
H2328 H 0.71806 0.94979 0.4027 0.0
H2329 H 0.77089 0.8873 0.38358 0.0
H2330 H 0.75105 0.98489 0.39461 0.0
H2331 H 0.80307 0.92201 0.37528 0.0
H2332 H 0.86976 0.985 0.37891 0.0
H2333 H 0.83526 0.95253 0.38712 0.0
H2334 H 0.7717 0.00735 0.37132 0.0
H2335 H 0.80663 0.04059 0.36333 0.0
C2336 C 0.73661 0.94352 0.39677 0.0
C2337 C 0.74183 0.91565 0.3939 0.0
C2338 C 0.7554 0.96364 0.39203 0.0
C2339 C 0.77983 0.95629 0.38438 0.0
C2340 C 0.78477 0.92845 0.38139 0.0
C2341 C 0.76614 0.90847 0.38612 0.0
C2342 C 0.84848 0.9903 0.37713 0.0
C2343 C 0.84106 0.01548 0.37037 0.0
C2344 C 0.82861 0.97151 0.3818 0.0
C2345 C 0.80064 0.97716 0.37979 0.0
C2346 C 0.79306 1.00242 0.37314 0.0
C2347 C 0.81308 0.02138 0.36845 0.0
H2348 H 0.71887 0.06174 0.11383 0.0
H2349 H 0.77175 0.12409 0.13307 0.0
H2350 H 0.75137 0.02652 0.12223 0.0
H2351 H 0.80366 0.08915 0.14162 0.0
H2352 H 0.86965 0.02422 0.13817 0.0
H2353 H 0.83588 0.05779 0.13014 0.0
H2354 H 0.77104 0.00427 0.14569 0.0
H2355 H 0.80508 0.97014 0.15354 0.0
C2356 C 0.73732 0.06795 0.11988 0.0
C2357 C 0.74269 0.09581 0.12269 0.0
C2358 C 0.75587 0.04775 0.12479 0.0
C2359 C 0.78024 0.05497 0.13255 0.0
C2360 C 0.78537 0.08281 0.13546 0.0
C2361 C 0.76691 0.10291 0.1306 0.0
C2362 C 0.84822 0.01951 0.13994 0.0
C2363 C 0.84015 0.99441 0.14656 0.0
C2364 C 0.8288 0.0389 0.13539 0.0
C2365 C 0.80069 0.03385 0.13731 0.0
C2366 C 0.79251 0.00874 0.14391 0.0
C2367 C 0.81204 0.98926 0.14852 0.0
H2368 H 0.77052 0.38512 0.63455 0.0
H2369 H 0.72312 0.44693 0.61062 0.0
H2370 H 0.80229 0.41988 0.64349 0.0
H2371 H 0.75557 0.48192 0.61937 0.0
H2372 H 0.8069 0.54006 0.65088 0.0
H2373 H 0.77266 0.50627 0.64275 0.0
H2374 H 0.83721 0.44859 0.63265 0.0
H2375 H 0.87103 0.48172 0.64101 0.0
C2376 C 0.76691 0.40614 0.6311 0.0
C2377 C 0.74426 0.41315 0.62178 0.0
C2378 C 0.78527 0.42612 0.6362 0.0
C2379 C 0.78165 0.45374 0.63208 0.0
C2380 C 0.75885 0.46089 0.62287 0.0
C2381 C 0.74037 0.44079 0.61776 0.0
C2382 C 0.81371 0.52008 0.64702 0.0
C2383 C 0.84175 0.51365 0.64666 0.0
C2384 C 0.7941 0.5008 0.64224 0.0
C2385 C 0.80214 0.47464 0.63708 0.0
C2386 C 0.83018 0.46832 0.63679 0.0
C2387 C 0.84966 0.48748 0.64152 0.0
H2388 H 0.8158 0.48713 0.84905 0.0
H2389 H 0.85644 0.50123 0.89317 0.0
H2390 H 0.77989 0.51977 0.85656 0.0
H2391 H 0.82033 0.53311 0.90076 0.0
H2392 H 0.73482 0.56823 0.91372 0.0
H2393 H 0.76634 0.53164 0.90588 0.0
H2394 H 0.78231 0.57378 0.86249 0.0
H2395 H 0.75146 0.61063 0.87043 0.0
C2396 C 0.81686 0.4969 0.8604 0.0
C2397 C 0.83898 0.49172 0.87048 0.0
C2398 C 0.7964 0.5156 0.86467 0.0
C2399 C 0.79732 0.52887 0.87926 0.0
C2400 C 0.81899 0.52301 0.88951 0.0
C2401 C 0.83972 0.50488 0.88511 0.0
C2402 C 0.74488 0.56954 0.90246 0.0
C2403 C 0.74075 0.59235 0.89272 0.0
C2404 C 0.76294 0.54866 0.898 0.0
C2405 C 0.77668 0.54988 0.88356 0.0
C2406 C 0.77182 0.57222 0.87362 0.0
C2407 C 0.75429 0.59337 0.87822 0.0
H2408 H 0.7747 0.56559 0.10188 0.0
H2409 H 0.75989 0.60733 0.14557 0.0
H2410 H 0.74313 0.52909 0.1099 0.0
H2411 H 0.72902 0.57061 0.15367 0.0
H2412 H 0.69439 0.48453 0.16708 0.0
H2413 H 0.7307 0.51661 0.15935 0.0
H2414 H 0.68939 0.53109 0.11553 0.0
H2415 H 0.65293 0.49979 0.12334 0.0
C2416 C 0.76506 0.56675 0.11327 0.0
C2417 C 0.76968 0.58938 0.12306 0.0
C2418 C 0.74697 0.54594 0.11783 0.0
C2419 C 0.73371 0.54702 0.13242 0.0
C2420 C 0.73912 0.56914 0.14242 0.0
C2421 C 0.75667 0.59022 0.13773 0.0
C2422 C 0.69322 0.49443 0.15577 0.0
C2423 C 0.67075 0.48976 0.14586 0.0
C2424 C 0.71392 0.5128 0.15137 0.0
C2425 C 0.71287 0.52624 0.13681 0.0
C2426 C 0.69085 0.52086 0.12674 0.0
C2427 C 0.66989 0.50307 0.13127 0.0
H2428 H 0.75976 0.40131 0.37212 0.0
H2429 H 0.77359 0.44334 0.41582 0.0
H2430 H 0.72805 0.43721 0.36401 0.0
H2431 H 0.74111 0.4791 0.40778 0.0
H2432 H 0.65014 0.50619 0.39378 0.0
H2433 H 0.68741 0.47613 0.40197 0.0
H2434 H 0.72878 0.49086 0.35821 0.0
H2435 H 0.69167 0.52164 0.35009 0.0
C2436 C 0.7561 0.4183 0.37997 0.0
C2437 C 0.76908 0.41946 0.39465 0.0
C2438 C 0.73809 0.43893 0.37527 0.0
C2439 C 0.73217 0.46092 0.38525 0.0
C2440 C 0.74535 0.46232 0.39987 0.0
C2441 C 0.76394 0.44195 0.40445 0.0
C2442 C 0.66729 0.50323 0.38594 0.0
C2443 C 0.66792 0.51619 0.37125 0.0
C2444 C 0.6887 0.48618 0.3907 0.0
C2445 C 0.71097 0.48122 0.38074 0.0
C2446 C 0.71182 0.49437 0.3661 0.0
C2447 C 0.69065 0.51199 0.36148 0.0
H2448 H 0.14351 0.50569 0.39363 0.0
H2449 H 0.19011 0.48579 0.35227 0.0
H2450 H 0.18005 0.53638 0.40229 0.0
H2451 H 0.22637 0.5172 0.36079 0.0
H2452 H 0.25677 0.60775 0.3733 0.0
H2453 H 0.2248 0.57205 0.36517 0.0
H2454 H 0.23403 0.5324 0.40994 0.0
H2455 H 0.26683 0.56786 0.418 0.0
C2456 C 0.1616 0.50782 0.38641 0.0
C2457 C 0.16392 0.49338 0.37224 0.0
C2458 C 0.18255 0.52525 0.39143 0.0
C2459 C 0.20601 0.5291 0.38222 0.0
C2460 C 0.20847 0.51455 0.3681 0.0
C2461 C 0.18778 0.49658 0.36326 0.0
C2462 C 0.25219 0.5913 0.38138 0.0
C2463 C 0.26427 0.59063 0.39631 0.0
C2464 C 0.23401 0.57081 0.37668 0.0
C2465 C 0.22699 0.54949 0.38692 0.0
C2466 C 0.23913 0.54865 0.40183 0.0
C2467 C 0.25792 0.56884 0.40642 0.0
H2468 H 0.2716 0.44494 0.09892 0.0
H2469 H 0.25751 0.40185 0.14228 0.0
H2470 H 0.24012 0.48119 0.10748 0.0
H2471 H 0.22682 0.43826 0.15091 0.0
H2472 H 0.19361 0.52373 0.16587 0.0
H2473 H 0.22943 0.49188 0.1572 0.0
H2474 H 0.18638 0.47964 0.11371 0.0
H2475 H 0.15037 0.51073 0.12245 0.0
C2476 C 0.26207 0.44338 0.11032 0.0
C2477 C 0.26689 0.42048 0.11987 0.0
C2478 C 0.24406 0.46406 0.1152 0.0
C2479 C 0.23114 0.46255 0.12988 0.0
C2480 C 0.23666 0.44007 0.1396 0.0
C2481 C 0.25409 0.41915 0.13459 0.0
C2482 C 0.19196 0.5144 0.15442 0.0
C2483 C 0.16911 0.51961 0.14489 0.0
C2484 C 0.21238 0.49615 0.14948 0.0
C2485 C 0.21068 0.48338 0.13476 0.0
C2486 C 0.18833 0.48935 0.12504 0.0
C2487 C 0.16764 0.50702 0.13011 0.0
H2488 H 0.31752 0.52369 0.84941 0.0
H2489 H 0.3641 0.50577 0.8911 0.0
H2490 H 0.28148 0.4923 0.8583 0.0
H2491 H 0.32786 0.47512 0.90009 0.0
H2492 H 0.24191 0.44394 0.91662 0.0
H2493 H 0.27449 0.47911 0.90788 0.0
H2494 H 0.28243 0.43802 0.86347 0.0
H2495 H 0.25066 0.40265 0.87227 0.0
C2496 C 0.31995 0.51326 0.8605 0.0
C2497 C 0.34372 0.51706 0.86949 0.0
C2498 C 0.29937 0.49532 0.86557 0.0
C2499 C 0.30186 0.48142 0.87992 0.0
C2500 C 0.32531 0.48576 0.88907 0.0
C2501 C 0.34613 0.50314 0.88384 0.0
C2502 C 0.25049 0.44258 0.90497 0.0
C2503 C 0.24386 0.42048 0.89517 0.0
C2504 C 0.26914 0.46261 0.89999 0.0
C2505 C 0.28089 0.46127 0.88498 0.0
C2506 C 0.27354 0.43966 0.87504 0.0
C2507 C 0.25548 0.41935 0.88013 0.0
H2508 H 0.31837 0.49174 0.66666 0.0
H2509 H 0.35906 0.50286 0.62229 0.0
H2510 H 0.28258 0.52404 0.65842 0.0
H2511 H 0.32305 0.53432 0.61398 0.0
H2512 H 0.23622 0.56756 0.60064 0.0
H2513 H 0.26841 0.53195 0.60915 0.0
H2514 H 0.28578 0.57806 0.65099 0.0
H2515 H 0.25431 0.61393 0.64237 0.0
C2516 C 0.31947 0.50079 0.65511 0.0
C2517 C 0.34157 0.49489 0.64516 0.0
C2518 C 0.29909 0.51928 0.65042 0.0
C2519 C 0.30007 0.53157 0.63555 0.0
C2520 C 0.3217 0.52499 0.62545 0.0
C2521 C 0.34237 0.50711 0.63026 0.0
C2522 C 0.24684 0.57001 0.61168 0.0
C2523 C 0.24287 0.59361 0.62079 0.0
C2524 C 0.26524 0.54969 0.61652 0.0
C2525 C 0.27944 0.55225 0.63076 0.0
C2526 C 0.27492 0.57548 0.64004 0.0
C2527 C 0.25707 0.59608 0.63504 0.0
H2528 H 0.40246 0.16225 0.1612 0.0
H2529 H 0.37961 0.11507 0.12047 0.0
H2530 H 0.38438 0.20322 0.14906 0.0
H2531 H 0.36132 0.1567 0.10825 0.0
H2532 H 0.32095 0.26282 0.133 0.0
H2533 H 0.33763 0.21925 0.14239 0.0
H2534 H 0.37666 0.20438 0.09794 0.0
H2535 H 0.35963 0.24859 0.08826 0.0
C2536 C 0.39351 0.16049 0.14966 0.0
C2537 C 0.39224 0.1351 0.14194 0.0
C2538 C 0.38306 0.18411 0.1427 0.0
C2539 C 0.37112 0.1832 0.12775 0.0
C2540 C 0.37042 0.15805 0.11977 0.0
C2541 C 0.38075 0.13419 0.12683 0.0
C2542 C 0.33285 0.25036 0.12505 0.0
C2543 C 0.33906 0.25953 0.10984 0.0
C2544 C 0.34256 0.22531 0.13053 0.0
C2545 C 0.35882 0.20851 0.12101 0.0
C2546 C 0.36414 0.2169 0.10555 0.0
C2547 C 0.35442 0.24223 0.10002 0.0
H2548 H 0.0946 0.15662 0.41159 0.0
H2549 H 0.14397 0.1332 0.37182 0.0
H2550 H 0.05439 0.13793 0.39892 0.0
H2551 H 0.10309 0.11435 0.35906 0.0
H2552 H 0.99714 0.07241 0.38273 0.0
H2553 H 0.04005 0.09012 0.39243 0.0
H2554 H 0.05521 0.12931 0.34804 0.0
H2555 H 0.0116 0.11128 0.33803 0.0
C2556 C 0.09699 0.14747 0.40014 0.0
C2557 C 0.12277 0.14614 0.39286 0.0
C2558 C 0.07383 0.13669 0.39287 0.0
C2559 C 0.0756 0.12438 0.37806 0.0
C2560 C 0.10111 0.12374 0.37048 0.0
C2561 C 0.12452 0.13439 0.37784 0.0
C2562 C 0.00953 0.08455 0.37485 0.0
C2563 C 1.00061 0.09054 0.35956 0.0
C2564 C 0.03419 0.09484 0.38051 0.0
C2565 C 0.05083 0.11146 0.37111 0.0
C2566 C 0.04276 0.11654 0.35556 0.0
C2567 C 0.0178 0.10624 0.34985 0.0
H2568 H 0.11894 0.89216 0.61819 0.0
H2569 H 0.11773 0.85071 0.66282 0.0
H2570 H 0.13334 0.8496 0.60555 0.0
H2571 H 0.13352 0.80923 0.65054 0.0
H2572 H 0.13431 0.73055 0.6254 0.0
H2573 H 0.1175 0.77411 0.63507 0.0
H2574 H 0.16865 0.81654 0.60164 0.0
H2575 H 0.18418 0.77222 0.59135 0.0
C2576 C 0.1221 0.87414 0.62535 0.0
C2577 C 0.11707 0.87496 0.64156 0.0
C2578 C 0.13047 0.84973 0.6181 0.0
C2579 C 0.13425 0.82566 0.62692 0.0
C2580 C 0.13005 0.82693 0.64319 0.0
C2581 C 0.12129 0.85102 0.65034 0.0
C2582 C 0.14162 0.74923 0.61999 0.0
C2583 C 0.16054 0.74815 0.6077 0.0
C2584 C 0.13227 0.77429 0.62564 0.0
C2585 C 0.1422 0.7991 0.61946 0.0
C2586 C 0.16044 0.79795 0.60669 0.0
C2587 C 0.16941 0.77264 0.60078 0.0
H2588 H 0.51115 0.93431 0.88153 0.0
H2589 H 0.49625 0.89431 0.83723 0.0
H2590 H 0.46731 0.91862 0.89108 0.0
H2591 H 0.45176 0.87834 0.84708 0.0
H2592 H 0.36239 0.87779 0.87051 0.0
H2593 H 0.40389 0.89541 0.85774 0.0
H2594 H 0.4517 0.87115 0.89784 0.0
H2595 H 0.41103 0.85368 0.91047 0.0
C2596 C 0.49848 0.92235 0.87371 0.0
C2597 C 0.50754 0.91541 0.8586 0.0
C2598 C 0.47328 0.91326 0.87927 0.0
C2599 C 0.45623 0.89693 0.86993 0.0
C2600 C 0.46449 0.89094 0.85454 0.0
C2601 C 0.48998 0.90003 0.84893 0.0
C2602 C 0.38178 0.87622 0.87657 0.0
C2603 C 0.38316 0.86461 0.89164 0.0
C2604 C 0.40553 0.88617 0.86921 0.0
C2605 C 0.43098 0.88496 0.87687 0.0
C2606 C 0.43234 0.87284 0.89174 0.0
C2607 C 0.40888 0.86276 0.89898 0.0
H2608 H 0.35968 0.76119 0.42713 0.0
H2609 H 0.32173 0.74712 0.38214 0.0
H2610 H 0.37681 0.80547 0.41762 0.0
H2611 H 0.3385 0.79078 0.37293 0.0
H2612 H 0.37984 0.89496 0.39527 0.0
H2613 H 0.36156 0.85317 0.40734 0.0
H2614 H 0.38527 0.80697 0.36655 0.0
H2615 H 0.40332 0.84806 0.35456 0.0
C2616 C 0.35467 0.76759 0.41534 0.0
C2617 C 0.33947 0.75033 0.40541 0.0
C2618 C 0.36444 0.79297 0.40992 0.0
C2619 C 0.35933 0.80144 0.39444 0.0
C2620 C 0.34326 0.78465 0.3848 0.0
C2621 C 0.3335 0.75956 0.39017 0.0
C2622 C 0.38115 0.87586 0.38889 0.0
C2623 C 0.39278 0.87508 0.37382 0.0
C2624 C 0.37082 0.85193 0.39586 0.0
C2625 C 0.37167 0.82683 0.38783 0.0
C2626 C 0.38382 0.82604 0.37294 0.0
C2627 C 0.39425 0.84973 0.36607 0.0
H2628 H 0.41483 0.15537 0.60413 0.0
H2629 H 0.36612 0.13417 0.64457 0.0
H2630 H 0.45508 0.13658 0.61671 0.0
H2631 H 0.40713 0.11532 0.65728 0.0
H2632 H 0.50024 0.11193 0.67703 0.0
H2633 H 0.45653 0.13052 0.66743 0.0
H2634 H 0.46789 0.08792 0.62374 0.0
H2635 H 0.51078 0.06953 0.63305 0.0
C2636 C 0.41259 0.14672 0.61572 0.0
C2637 C 0.38695 0.14598 0.62319 0.0
C2638 C 0.4358 0.13591 0.62294 0.0
C2639 C 0.43425 0.12419 0.63792 0.0
C2640 C 0.40893 0.12424 0.64572 0.0
C2641 C 0.38545 0.13489 0.6384 0.0
C2642 C 0.49318 0.10625 0.66547 0.0
C2643 C 0.50932 0.08936 0.65582 0.0
C2644 C 0.46815 0.11687 0.66 0.0
C2645 C 0.459 0.11097 0.64475 0.0
C2646 C 0.47459 0.09324 0.63544 0.0
C2647 C 0.49926 0.08258 0.64087 0.0
H2648 H 0.10614 0.16416 0.85303 0.0
H2649 H 0.12631 0.11726 0.89435 0.0
H2650 H 0.12431 0.20505 0.86527 0.0
H2651 H 0.14473 0.15869 0.90663 0.0
H2652 H 0.18791 0.26381 0.88207 0.0
H2653 H 0.17068 0.22063 0.87252 0.0
H2654 H 0.13022 0.20631 0.91662 0.0
H2655 H 0.14787 0.25013 0.9265 0.0
C2656 C 0.11451 0.16246 0.86472 0.0
C2657 C 0.11502 0.13719 0.87258 0.0
C2658 C 0.12501 0.186 0.87173 0.0
C2659 C 0.13625 0.18509 0.88686 0.0
C2660 C 0.13617 0.16005 0.89497 0.0
C2661 C 0.12578 0.1363 0.88788 0.0
C2662 C 0.17559 0.25154 0.88992 0.0
C2663 C 0.16919 0.26074 0.90509 0.0
C2664 C 0.16554 0.22673 0.88433 0.0
C2665 C 0.14871 0.21022 0.89369 0.0
C2666 C 0.14317 0.21862 0.90913 0.0
C2667 C 0.15325 0.24372 0.91477 0.0
H2668 H 0.1383 0.868 0.14502 0.0
H2669 H 0.09669 0.87039 0.10046 0.0
H2670 H 0.09597 0.882 0.15804 0.0
H2671 H 0.05552 0.88596 0.11311 0.0
H2672 H 0.97689 0.88568 0.13831 0.0
H2673 H 0.02022 0.86943 0.12808 0.0
H2674 H 0.06323 0.91691 0.16301 0.0
H2675 H 0.01912 0.93176 0.17385 0.0
C2676 C 0.12032 0.87192 0.13796 0.0
C2677 C 0.12101 0.86797 0.12165 0.0
C2678 C 0.09603 0.88006 0.14543 0.0
C2679 C 0.07198 0.88476 0.13672 0.0
C2680 C 0.07318 0.88173 0.12037 0.0
C2681 C 0.09711 0.87313 0.11301 0.0
C2682 C 0.99564 0.89237 0.14389 0.0
C2683 C 0.99478 0.91006 0.15677 0.0
C2684 C 0.02059 0.88332 0.13794 0.0
C2685 C 0.04551 0.89238 0.14439 0.0
C2686 C 0.04457 0.9094 0.15772 0.0
C2687 C 0.01937 0.91799 0.16393 0.0
H2688 H 0.62649 0.7442 0.91834 0.0
H2689 H 0.70393 0.76356 0.89679 0.0
H2690 H 0.6079 0.788 0.90913 0.0
H2691 H 0.68561 0.80745 0.88798 0.0
H2692 H 0.64598 0.89428 0.88598 0.0
H2693 H 0.66404 0.85387 0.89961 0.0
H2694 H 0.60009 0.8044 0.8794 0.0
H2695 H 0.58249 0.84438 0.86548 0.0
C2696 C 0.63973 0.75806 0.91199 0.0
C2697 C 0.66665 0.75036 0.90823 0.0
C2698 C 0.62905 0.78302 0.90664 0.0
C2699 C 0.64532 0.80107 0.89781 0.0
C2700 C 0.67266 0.79402 0.89483 0.0
C2701 C 0.6831 0.76883 0.89982 0.0
C2702 C 0.63566 0.87482 0.88457 0.0
C2703 C 0.61288 0.87251 0.8746 0.0
C2704 C 0.64602 0.85173 0.89233 0.0
C2705 C 0.63337 0.82606 0.89061 0.0
C2706 C 0.61008 0.82397 0.88106 0.0
C2707 C 0.60014 0.84684 0.87302 0.0
H2708 H 0.9996 0.8966 0.67613 0.0
H2709 H 0.01264 0.93353 0.63076 0.0
H2710 H 0.95561 0.87834 0.66687 0.0
H2711 H 0.96932 0.91564 0.6218 0.0
H2712 H 0.91171 0.85087 0.60405 0.0
H2713 H 0.95312 0.8689 0.61574 0.0
H2714 H 0.90783 0.8928 0.65683 0.0
H2715 H 0.86581 0.87452 0.6451 0.0
C2716 C 0.99305 0.90111 0.66431 0.0
C2717 C 0.00991 0.91644 0.65421 0.0
C2718 C 0.96785 0.89069 0.65902 0.0
C2719 C 0.95917 0.89523 0.64352 0.0
C2720 C 0.97561 0.9113 0.63369 0.0
C2721 C 1.00052 0.92171 0.63893 0.0
C2722 C 0.91034 0.85995 0.61557 0.0
C2723 C 0.88517 0.86152 0.6235 0.0
C2724 C 0.93419 0.87036 0.62227 0.0
C2725 C 0.93374 0.88259 0.63715 0.0
C2726 C 0.90883 0.88347 0.64536 0.0
C2727 C 0.88475 0.87314 0.63858 0.0
H2728 H 0.86065 0.24728 0.42608 0.0
H2729 H 0.82301 0.26146 0.38101 0.0
H2730 H 0.87755 0.20289 0.41669 0.0
H2731 H 0.83966 0.21766 0.37189 0.0
H2732 H 0.90601 0.16147 0.35398 0.0
H2733 H 0.88745 0.20222 0.36602 0.0
H2734 H 0.86174 0.15496 0.40604 0.0
H2735 H 0.88045 0.11342 0.39388 0.0
C2736 C 0.85563 0.24086 0.41431 0.0
C2737 C 0.84065 0.25819 0.4043 0.0
C2738 C 0.86526 0.21542 0.40895 0.0
C2739 C 0.86024 0.20699 0.39348 0.0
C2740 C 0.84429 0.22379 0.38378 0.0
C2741 C 0.83463 0.24895 0.38908 0.0
C2742 C 0.8964 0.15947 0.36533 0.0
C2743 C 0.89445 0.1339 0.37282 0.0
C2744 C 0.88568 0.18297 0.37223 0.0
C2745 C 0.87282 0.18177 0.38689 0.0
C2746 C 0.87154 0.15648 0.39471 0.0
C2747 C 0.88213 0.13271 0.38771 0.0
H2748 H 0.62692 0.17064 0.14359 0.0
H2749 H 0.62412 0.10596 0.1094 0.0
H2750 H 0.58466 0.15312 0.15551 0.0
H2751 H 0.583 0.08772 0.1215 0.0
H2752 H 0.49262 0.08601 0.13004 0.0
H2753 H 0.53711 0.10121 0.12165 0.0
H2754 H 0.55959 0.1179 0.16959 0.0
H2755 H 0.51387 0.10339 0.1781 0.0
C2756 C 0.61758 0.1523 0.13889 0.0
C2757 C 0.62843 0.13986 0.12544 0.0
C2758 C 0.59342 0.14221 0.1457 0.0
C2759 C 0.57993 0.11931 0.13927 0.0
C2760 C 0.59214 0.10591 0.12648 0.0
C2761 C 0.61585 0.11624 0.11956 0.0
C2762 C 0.5069 0.09278 0.13891 0.0
C2763 C 0.4995 0.09324 0.15481 0.0
C2764 C 0.53273 0.10134 0.13406 0.0
C2765 C 0.55234 0.1104 0.14492 0.0
C2766 C 0.54503 0.11111 0.16087 0.0
C2767 C 0.51887 0.10264 0.16576 0.0
H2768 H 0.63826 0.276 0.6279 0.0
H2769 H 0.68175 0.23427 0.59113 0.0
H2770 H 0.62092 0.23272 0.63756 0.0
H2771 H 0.66575 0.19008 0.6014 0.0
H2772 H 0.61524 0.11552 0.61889 0.0
H2773 H 0.63007 0.15805 0.60633 0.0
H2774 H 0.63669 0.19624 0.65177 0.0
H2775 H 0.62029 0.15498 0.66399 0.0
C2776 C 0.64419 0.25737 0.62193 0.0
C2777 C 0.66151 0.25841 0.60888 0.0
C2778 C 0.63449 0.23242 0.62755 0.0
C2779 C 0.64248 0.20757 0.62059 0.0
C2780 C 0.65908 0.20869 0.60709 0.0
C2781 C 0.66833 0.23395 0.60121 0.0
C2782 C 0.61989 0.13307 0.62616 0.0
C2783 C 0.61647 0.13172 0.64249 0.0
C2784 C 0.62852 0.15747 0.61895 0.0
C2785 C 0.63425 0.18096 0.62794 0.0
C2786 C 0.63167 0.17908 0.64431 0.0
C2787 C 0.62257 0.15507 0.65141 0.0
H2788 H 0.49587 0.93446 0.38443 0.0
H2789 H 0.51043 0.89923 0.33879 0.0
H2790 H 0.53927 0.91691 0.39351 0.0
H2791 H 0.55446 0.88127 0.34817 0.0
H2792 H 0.64362 0.87696 0.37093 0.0
H2793 H 0.60202 0.8958 0.35895 0.0
H2794 H 0.55516 0.86973 0.39905 0.0
H2795 H 0.59608 0.85116 0.41096 0.0
C2796 C 0.50836 0.92312 0.37623 0.0
C2797 C 0.49936 0.91816 0.36084 0.0
C2798 C 0.5333 0.91291 0.38152 0.0
C2799 C 0.55014 0.89736 0.37165 0.0
C2800 C 0.5419 0.89323 0.35605 0.0
C2801 C 0.51667 0.90347 0.3507 0.0
C2802 C 0.62442 0.87523 0.37717 0.0
C2803 C 0.6234 0.86282 0.39204 0.0
C2804 C 0.60059 0.88589 0.37025 0.0
C2805 C 0.57537 0.88455 0.37814 0.0
C2806 C 0.57434 0.87156 0.39279 0.0
C2807 C 0.59792 0.86083 0.39961 0.0
H2808 H 0.80317 0.76025 0.12176 0.0
H2809 H 0.87822 0.7473 0.09624 0.0
H2810 H 0.81995 0.80469 0.13061 0.0
H2811 H 0.89536 0.79157 0.10556 0.0
H2812 H 0.92218 0.84639 0.15006 0.0
H2813 H 0.9051 0.806 0.13628 0.0
H2814 H 0.83803 0.8534 0.11784 0.0
H2815 H 0.85559 0.89425 0.13127 0.0
C2816 C 0.8231 0.767 0.11789 0.0
C2817 C 0.83938 0.75014 0.10835 0.0
C2818 C 0.83265 0.79251 0.12291 0.0
C2819 C 0.85896 0.80145 0.11881 0.0
C2820 C 0.87499 0.78507 0.10889 0.0
C2821 C 0.86513 0.75982 0.10352 0.0
C2822 C 0.9039 0.84827 0.14297 0.0
C2823 C 0.89014 0.87346 0.14179 0.0
C2824 C 0.89428 0.82522 0.135 0.0
C2825 C 0.87034 0.82666 0.12597 0.0
C2826 C 0.85659 0.85183 0.1247 0.0
C2827 C 0.86663 0.87513 0.13236 0.0
H2828 H 0.98484 0.07467 0.84306 0.0
H2829 H 0.0271 0.1273 0.87547 0.0
H2830 H 0.94072 0.09042 0.85351 0.0
H2831 H 0.98369 0.14432 0.88524 0.0
H2832 H 0.90836 0.14428 0.91411 0.0
H2833 H 0.94954 0.12869 0.90151 0.0
H2834 H 0.90717 0.12548 0.85716 0.0
H2835 H 0.86486 0.13969 0.87019 0.0
C2836 C 0.98458 0.09009 0.85215 0.0
C2837 C 0.0092 0.09967 0.85859 0.0
C2838 C 0.95937 0.09918 0.85814 0.0
C2839 C 0.95846 0.11828 0.87051 0.0
C2840 C 0.98336 0.12891 0.87615 0.0
C2841 C 0.00833 0.11943 0.87044 0.0
C2842 C 0.90752 0.14002 0.90171 0.0
C2843 C 0.88307 0.14321 0.89324 0.0
C2844 C 0.93145 0.13139 0.89436 0.0
C2845 C 0.93208 0.12627 0.87817 0.0
C2846 C 0.90754 0.12908 0.86965 0.0
C2847 C 0.88327 0.13734 0.87711 0.0
H2848 H 0.8218 0.75885 0.63433 0.0
H2849 H 0.85868 0.74456 0.58909 0.0
H2850 H 0.83912 0.71541 0.64355 0.0
H2851 H 0.87627 0.70045 0.5986 0.0
H2852 H 0.90673 0.66089 0.66142 0.0
H2853 H 0.88778 0.7011 0.64898 0.0
H2854 H 0.86072 0.65218 0.60994 0.0
H2855 H 0.87982 0.61113 0.62252 0.0
C2856 C 0.83338 0.74638 0.62623 0.0
C2857 C 0.83898 0.75552 0.61094 0.0
C2858 C 0.84342 0.72141 0.6316 0.0
C2859 C 0.85938 0.70467 0.62188 0.0
C2860 C 0.86399 0.71295 0.60634 0.0
C2861 C 0.85395 0.73822 0.60092 0.0
C2862 C 0.89677 0.6584 0.6502 0.0
C2863 C 0.89452 0.6325 0.64312 0.0
C2864 C 0.88584 0.6816 0.64307 0.0
C2865 C 0.87244 0.67978 0.62858 0.0
C2866 C 0.87093 0.65416 0.62113 0.0
C2867 C 0.88175 0.63068 0.62837 0.0
H2868 H 0.63869 0.65508 0.86813 0.0
H2869 H 0.60902 0.62543 0.91256 0.0
H2870 H 0.59613 0.63986 0.85564 0.0
H2871 H 0.56767 0.60926 0.90019 0.0
H2872 H 0.48409 0.61289 0.88068 0.0
H2873 H 0.52774 0.62884 0.89033 0.0
H2874 H 0.56662 0.60224 0.84756 0.0
H2875 H 0.52186 0.58714 0.83754 0.0
C2876 C 0.62332 0.64498 0.87519 0.0
C2877 C 0.62718 0.64182 0.89142 0.0
C2878 C 0.59895 0.63617 0.86803 0.0
C2879 C 0.57808 0.62379 0.87693 0.0
C2880 C 0.58274 0.61951 0.89299 0.0
C2881 C 0.6067 0.62863 0.90012 0.0
C2882 C 0.5019 0.61041 0.87328 0.0
C2883 C 0.4996 0.59831 0.85846 0.0
C2884 C 0.52709 0.61944 0.87887 0.0
C2885 C 0.55103 0.61617 0.86995 0.0
C2886 C 0.54866 0.60504 0.85478 0.0
C2887 C 0.52309 0.59633 0.84904 0.0
H2888 H 0.58422 0.34537 0.15065 0.0
H2889 H 0.6427 0.3945 0.12522 0.0
H2890 H 0.59974 0.30468 0.13666 0.0
H2891 H 0.65859 0.35347 0.11145 0.0
H2892 H 0.70084 0.26512 0.11262 0.0
H2893 H 0.68332 0.30916 0.12163 0.0
H2894 H 0.60181 0.28533 0.10786 0.0
H2895 H 0.61953 0.24124 0.09853 0.0
C2896 C 0.60034 0.34752 0.14204 0.0
C2897 C 0.6123 0.37321 0.13911 0.0
C2898 C 0.60905 0.32422 0.13395 0.0
C2899 C 0.6303 0.32592 0.12293 0.0
C2900 C 0.64216 0.35159 0.11988 0.0
C2901 C 0.63304 0.37505 0.12775 0.0
C2902 C 0.67927 0.26946 0.11124 0.0
C2903 C 0.66155 0.24971 0.1049 0.0
C2904 C 0.66927 0.29473 0.11634 0.0
C2905 C 0.64119 0.30062 0.11553 0.0
C2906 C 0.62354 0.28126 0.10868 0.0
C2907 C 0.6337 0.25615 0.10324 0.0
H2908 H 0.91399 0.33479 0.40028 0.0
H2909 H 0.86427 0.39363 0.3755 0.0
H2910 H 0.95458 0.35145 0.38657 0.0
H2911 H 0.90517 0.4107 0.36206 0.0
H2912 H 0.99352 0.45366 0.36402 0.0
H2913 H 0.94972 0.4354 0.37302 0.0
H2914 H 0.97328 0.35496 0.35726 0.0
H2915 H 0.01702 0.37342 0.34787 0.0
C2916 C 0.9117 0.35124 0.39188 0.0
C2917 C 0.88587 0.36293 0.38903 0.0
C2918 C 0.93493 0.36062 0.38395 0.0
C2919 C 0.93301 0.38229 0.37321 0.0
C2920 C 0.90722 0.39394 0.37027 0.0
C2921 C 0.88383 0.38414 0.37795 0.0
C2922 C 0.98915 0.43219 0.36219 0.0
C2923 C 0.00872 0.41498 0.35524 0.0
C2924 C 0.96404 0.42176 0.3673 0.0
C2925 C 0.95816 0.39375 0.36592 0.0
C2926 C 0.97734 0.37663 0.35852 0.0
C2927 C 1.00226 0.38722 0.35304 0.0
H2928 H 0.90541 0.3463 0.85634 0.0
H2929 H 0.88151 0.39409 0.89664 0.0
H2930 H 0.88778 0.30537 0.86871 0.0
H2931 H 0.86371 0.35241 0.90912 0.0
H2932 H 0.86181 0.25961 0.92891 0.0
H2933 H 0.87955 0.30381 0.9195 0.0
H2934 H 0.83987 0.29062 0.87507 0.0
H2935 H 0.82244 0.24722 0.88416 0.0
C2936 C 0.8964 0.3482 0.86786 0.0
C2937 C 0.89457 0.37376 0.87535 0.0
C2938 C 0.88624 0.3246 0.87496 0.0
C2939 C 0.87405 0.32568 0.88982 0.0
C2940 C 0.87301 0.35096 0.89765 0.0
C2941 C 0.88306 0.37482 0.89045 0.0
C2942 C 0.85663 0.26635 0.91721 0.0
C2943 C 0.84083 0.24958 0.9073 0.0
C2944 C 0.86675 0.29166 0.91185 0.0
C2945 C 0.86142 0.30048 0.89646 0.0
C2946 C 0.84477 0.28421 0.88687 0.0
C2947 C 0.83466 0.25924 0.89218 0.0
H2948 H 1.0006 0.61653 0.17764 0.0
H2949 H 0.00872 0.56854 0.13542 0.0
H2950 H 0.95623 0.63362 0.1682 0.0
H2951 H 0.96497 0.58506 0.12636 0.0
H2952 H 0.90994 0.64784 0.10448 0.0
H2953 H 0.95083 0.63036 0.11686 0.0
H2954 H 0.90694 0.61995 0.16025 0.0
H2955 H 0.86532 0.63789 0.14778 0.0
C2956 C 0.99282 0.60924 0.16653 0.0
C2957 C 0.0085 0.59128 0.15728 0.0
C2958 C 0.9674 0.619 0.16114 0.0
C2959 C 0.95729 0.61104 0.1464 0.0
C2960 C 0.97238 0.59209 0.1376 0.0
C2961 C 0.99754 0.58244 0.14291 0.0
C2962 C 0.90872 0.64186 0.11666 0.0
C2963 C 0.88403 0.64402 0.12503 0.0
C2964 C 0.9323 0.63171 0.12376 0.0
C2965 C 0.9321 0.62337 0.13949 0.0
C2966 C 0.90773 0.6262 0.1481 0.0
C2967 C 0.88388 0.63633 0.14092 0.0
H2968 H 0.62496 0.61223 0.39491 0.0
H2969 H 0.6018 0.6583 0.3538 0.0
H2970 H 0.64321 0.65411 0.40673 0.0
H2971 H 0.61972 0.69967 0.36561 0.0
H2972 H 0.64694 0.74498 0.42657 0.0
H2973 H 0.62904 0.70113 0.41696 0.0
H2974 H 0.66572 0.71659 0.3719 0.0
H2975 H 0.68317 0.75988 0.38122 0.0
C2976 C 0.62368 0.6312 0.3884 0.0
C2977 C 0.61218 0.6317 0.37328 0.0
C2978 C 0.63399 0.65521 0.39523 0.0
C2979 C 0.63321 0.68017 0.38705 0.0
C2980 C 0.62114 0.68071 0.37212 0.0
C2981 C 0.61076 0.65689 0.36535 0.0
C2982 C 0.6514 0.73885 0.41467 0.0
C2983 C 0.6664 0.75618 0.40469 0.0
C2984 C 0.64118 0.71372 0.40918 0.0
C2985 C 0.64562 0.70557 0.39359 0.0
C2986 C 0.66142 0.72248 0.38386 0.0
C2987 C 0.67161 0.74734 0.3893 0.0
H2988 H 0.64415 0.37577 0.64353 0.0
H2989 H 0.59758 0.35646 0.60197 0.0
H2990 H 0.60287 0.39465 0.65566 0.0
H2991 H 0.55674 0.37515 0.61408 0.0
H2992 H 0.51191 0.39872 0.67553 0.0
H2993 H 0.55538 0.38058 0.66552 0.0
H2994 H 0.5413 0.42149 0.6215 0.0
H2995 H 0.49842 0.43928 0.63122 0.0
C2996 C 0.6252 0.37553 0.63697 0.0
C2997 C 0.62437 0.36485 0.62166 0.0
C2998 C 0.60152 0.38619 0.64398 0.0
C2999 C 0.57659 0.38664 0.63578 0.0
C3000 C 0.57572 0.37555 0.62062 0.0
C3001 C 0.59921 0.36475 0.61368 0.0
C3002 C 0.51829 0.4041 0.66379 0.0
C3003 C 0.50143 0.42035 0.65419 0.0
C3004 C 0.54319 0.39372 0.65807 0.0
C3005 C 0.55156 0.39926 0.64263 0.0
C3006 C 0.5352 0.41635 0.63333 0.0
C3007 C 0.51058 0.42672 0.639 0.0
H3008 H 0.08839 0.38125 0.39427 0.0
H3009 H 0.15085 0.37485 0.3589 0.0
H3010 H 0.10555 0.33923 0.40664 0.0
H3011 H 0.16885 0.33409 0.37145 0.0
H3012 H 0.16992 0.24463 0.38171 0.0
H3013 H 0.15476 0.28872 0.37279 0.0
H3014 H 0.14065 0.31393 0.42054 0.0
H3015 H 0.15502 0.26844 0.42963 0.0
C3016 C 0.10615 0.37115 0.38936 0.0
C3017 C 0.11801 0.38091 0.37547 0.0
C3018 C 0.11605 0.34713 0.39645 0.0
C3019 C 0.13824 0.33275 0.38987 0.0
C3020 C 0.15113 0.3439 0.37658 0.0
C3021 C 0.14093 0.3674 0.36938 0.0
C3022 C 0.16374 0.25941 0.39045 0.0
C3023 C 0.16397 0.25283 0.40647 0.0
C3024 C 0.1552 0.28503 0.38527 0.0
C3025 C 0.14693 0.30532 0.39591 0.0
C3026 C 0.14684 0.29884 0.41199 0.0
C3027 C 0.15522 0.27281 0.41722 0.0
H3028 H 0.36395 0.3795 0.14451 0.0
H3029 H 0.41142 0.35419 0.10436 0.0
H3030 H 0.40565 0.39807 0.15655 0.0
H3031 H 0.45236 0.37264 0.11629 0.0
H3032 H 0.49771 0.39907 0.17651 0.0
H3033 H 0.45332 0.38232 0.16707 0.0
H3034 H 0.46836 0.42009 0.12227 0.0
H3035 H 0.5122 0.43663 0.13146 0.0
C3036 C 0.38315 0.37784 0.13826 0.0
C3037 C 0.38412 0.36563 0.12334 0.0
C3038 C 0.40701 0.38837 0.1452 0.0
C3039 C 0.43221 0.38714 0.13728 0.0
C3040 C 0.43319 0.37439 0.12257 0.0
C3041 C 0.40959 0.36373 0.11574 0.0
C3042 C 0.49136 0.4041 0.16472 0.0
C3043 C 0.50878 0.41902 0.15474 0.0
C3044 C 0.46591 0.39455 0.15934 0.0
C3045 C 0.45753 0.39957 0.14385 0.0
C3046 C 0.47443 0.41545 0.13416 0.0
C3047 C 0.49961 0.42504 0.13951 0.0
H3048 H 0.32124 0.76231 0.88247 0.0
H3049 H 0.36132 0.74792 0.92683 0.0
H3050 H 0.33831 0.71917 0.87273 0.0
H3051 H 0.37875 0.70414 0.91678 0.0
H3052 H 0.40362 0.66372 0.85314 0.0
H3053 H 0.38545 0.70423 0.86572 0.0
H3054 H 0.36341 0.65642 0.90625 0.0
H3055 H 0.38179 0.61527 0.89359 0.0
C3056 C 0.33353 0.7499 0.89026 0.0
C3057 C 0.34003 0.75888 0.90546 0.0
C3058 C 0.34345 0.72511 0.88458 0.0
C3059 C 0.36022 0.70843 0.89388 0.0
C3060 C 0.36584 0.7166 0.90934 0.0
C3061 C 0.35589 0.74168 0.91508 0.0
C3062 C 0.39489 0.6616 0.86471 0.0
C3063 C 0.39388 0.636 0.87223 0.0
C3064 C 0.38441 0.68492 0.87193 0.0
C3065 C 0.37271 0.68349 0.88691 0.0
C3066 C 0.37233 0.65814 0.8947 0.0
C3067 C 0.3827 0.63458 0.8874 0.0
H3068 H 0.01161 0.6118 0.67831 0.0
H3069 H 0.99752 0.57041 0.63434 0.0
H3070 H 0.05532 0.6292 0.6681 0.0
H3071 H 0.04057 0.5874 0.62446 0.0
H3072 H 0.14418 0.63215 0.64492 0.0
H3073 H 0.10309 0.61405 0.65778 0.0
H3074 H 0.05534 0.63421 0.61691 0.0
H3075 H 0.0958 0.65206 0.60412 0.0
C3076 C 0.01791 0.60607 0.66662 0.0
C3077 C 1.0008 0.58985 0.65715 0.0
C3078 C 0.04294 0.616 0.66079 0.0
C3079 C 0.05116 0.61 0.64539 0.0
C3080 C 0.03459 0.59286 0.63625 0.0
C3081 C 0.00985 0.58297 0.64202 0.0
C3082 C 0.1249 0.63271 0.63869 0.0
C3083 C 0.12349 0.64325 0.62336 0.0
C3084 C 0.10136 0.6225 0.64611 0.0
C3085 C 0.07605 0.62242 0.63829 0.0
C3086 C 0.07462 0.63352 0.62315 0.0
C3087 C 0.09792 0.64382 0.61582 0.0
H3088 H 0.11191 0.66217 0.16259 0.0
H3089 H 0.11761 0.61768 0.11905 0.0
H3090 H 0.1266 0.70343 0.1496 0.0
H3091 H 0.13116 0.6599 0.10568 0.0
H3092 H 0.1821 0.73774 0.09153 0.0
H3093 H 0.16633 0.69373 0.10216 0.0
H3094 H 0.11062 0.73693 0.13271 0.0
H3095 H 0.12752 0.78032 0.12268 0.0
C3096 C 0.1162 0.66112 0.15019 0.0
C3097 C 0.11359 0.63637 0.14194 0.0
C3098 C 0.12435 0.68507 0.14263 0.0
C3099 C 0.12968 0.68536 0.12645 0.0
C3100 C 0.12739 0.66055 0.11815 0.0
C3101 C 0.11951 0.63632 0.12582 0.0
C3102 C 0.16618 0.73756 0.10034 0.0
C3103 C 0.15599 0.76225 0.10634 0.0
C3104 C 0.15711 0.71241 0.10645 0.0
C3105 C 0.13752 0.71161 0.11857 0.0
C3106 C 0.12633 0.73655 0.12379 0.0
C3107 C 0.13572 0.76148 0.11791 0.0
H3108 H 0.14498 0.38033 0.87037 0.0
H3109 H 0.09777 0.35512 0.91065 0.0
H3110 H 0.10311 0.39856 0.8583 0.0
H3111 H 0.05671 0.37321 0.89871 0.0
H3112 H 0.99719 0.4375 0.88383 0.0
H3113 H 0.0412 0.42103 0.8927 0.0
H3114 H 0.0548 0.38231 0.84804 0.0
H3115 H 0.01014 0.39904 0.83889 0.0
C3116 C 0.12581 0.37862 0.87664 0.0
C3117 C 0.12495 0.36657 0.89161 0.0
C3118 C 0.10185 0.38894 0.86969 0.0
C3119 C 0.0767 0.38763 0.87765 0.0
C3120 C 0.07584 0.37499 0.89239 0.0
C3121 C 0.09952 0.36456 0.89924 0.0
C3122 C 0.00947 0.42572 0.87573 0.0
C3123 C 0.99981 0.41944 0.86064 0.0
C3124 C 0.03476 0.41618 0.88089 0.0
C3125 C 0.05131 0.40005 0.87116 0.0
C3126 C 0.04247 0.39473 0.85579 0.0
C3127 C 0.01688 0.40427 0.85058 0.0
H3128 H 0.32497 0.24943 0.63164 0.0
H3129 H 0.36436 0.26275 0.58698 0.0
H3130 H 0.34161 0.29312 0.64081 0.0
H3131 H 0.38132 0.30715 0.59647 0.0
H3132 H 0.40695 0.34918 0.65961 0.0
H3133 H 0.3893 0.3083 0.64725 0.0
H3134 H 0.36504 0.35542 0.60687 0.0
H3135 H 0.38288 0.39708 0.61934 0.0
C3136 C 0.33701 0.26172 0.62366 0.0
C3137 C 0.34346 0.25226 0.60855 0.0
C3138 C 0.34666 0.28684 0.629 0.0
C3139 C 0.3631 0.30342 0.61946 0.0
C3140 C 0.36865 0.29477 0.60408 0.0
C3141 C 0.35899 0.26934 0.59868 0.0
C3142 C 0.39786 0.35112 0.64811 0.0
C3143 C 0.39603 0.37669 0.64061 0.0
C3144 C 0.38769 0.32754 0.64102 0.0
C3145 C 0.37547 0.32866 0.62616 0.0
C3146 C 0.37436 0.35396 0.61834 0.0
C3147 C 0.38443 0.3778 0.62553 0.0
H3148 H 0.49568 0.60577 0.33871 0.0
H3149 H 0.50924 0.56918 0.38412 0.0
H3150 H 0.4518 0.62408 0.34804 0.0
H3151 H 0.46599 0.58722 0.39318 0.0
H3152 H 0.41084 0.65465 0.41069 0.0
H3153 H 0.45132 0.63524 0.39875 0.0
H3154 H 0.40371 0.60981 0.35881 0.0
H3155 H 0.3625 0.62938 0.37086 0.0
C3156 C 0.48923 0.60128 0.35055 0.0
C3157 C 0.50625 0.58614 0.36066 0.0
C3158 C 0.46409 0.61173 0.35587 0.0
C3159 C 0.45564 0.60741 0.37142 0.0
C3160 C 0.47213 0.59134 0.38124 0.0
C3161 C 0.49698 0.58087 0.37596 0.0
C3162 C 0.40873 0.64494 0.39937 0.0
C3163 C 0.38314 0.6433 0.39188 0.0
C3164 C 0.43206 0.63373 0.39253 0.0
C3165 C 0.43068 0.62067 0.37792 0.0
C3166 C 0.40538 0.61975 0.37009 0.0
C3167 C 0.38179 0.63084 0.37704 0.0
loop_
_geom_bond_atom_site_label_1
_geom_bond_atom_site_label_2
_geom_bond_distance
_geom_bond_site_symmetry_2
_ccdc_geom_bond_type
Co0 O2 2.143 . S
Co0 O8 2.074 . S
Co0 O11 2.093 . S
Co0 O24 2.097 . S
Co0 N41 2.151 . S
Co0 N49 2.214 . S
Co1 O2 2.160 . S
Co1 O7 2.058 . S
Co1 O17 2.057 . S
Co1 O32 2.037 . S
Co1 N36 2.145 . S
Co1 N57 2.257 . S
O2 Co0 2.143 . S
O2 Co1 2.160 . S
C3 O4 1.278 . S
C3 O11 1.224 . S
O4 C3 1.278 . S
C5 O6 1.245 . S
C5 O17 1.232 . S
O6 C5 1.245 . S
O7 Co1 2.058 . S
O7 C33 1.269 . S
O8 Co0 2.074 . S
O8 C33 1.257 . S
H9 C34 0.930 . S
H10 C40 0.930 . S
O11 Co0 2.093 . S
O11 C3 1.224 . S
H12 C44 0.929 . S
H13 C46 0.930 . S
H14 C47 0.930 . S
H15 C45 0.929 . S
H16 C48 0.928 . S
O17 Co1 2.057 . S
O17 C5 1.232 . S
H18 C37 0.929 . S
H19 C38 0.929 . S
H20 C50 0.931 . S
H21 C42 0.929 . S
H22 C51 0.930 . S
H23 C43 0.931 . S
O24 Co0 2.097 . S
O24 C52 1.214 . S
H25 C53 0.929 . S
H26 C54 0.929 . S
H27 C55 0.930 . S
H28 C56 0.929 . S
H29 C58 0.930 . S
H30 C35 0.930 . S
H31 C39 0.930 . S
O32 Co1 2.037 . S
O32 C52 1.234 . S
C33 O7 1.269 . S
C33 O8 1.257 . S
C34 H9 0.930 . S
C34 C37 1.388 . S
C34 C39 1.418 . S
C35 H30 0.930 . S
C35 C38 1.404 . S
C35 C39 1.353 . S
N36 Co1 2.145 . S
N36 C37 1.397 . S
N36 C38 1.334 . S
C37 H18 0.929 . S
C37 C34 1.388 . S
C37 N36 1.397 . S
C38 H19 0.929 . S
C38 C35 1.404 . S
C38 N36 1.334 . S
C39 H31 0.930 . S
C39 C34 1.418 . S
C39 C35 1.353 . S
C40 H10 0.930 . S
C40 N41 1.330 1_565 S
C40 C42 1.446 . S
N41 Co0 2.151 . S
N41 C40 1.330 1_545 S
N41 C45 1.418 . S
C42 H21 0.929 . S
C42 C40 1.446 . S
C42 C43 1.332 . S
C43 H23 0.931 . S
C43 C42 1.332 . S
C43 C44 1.267 . S
C44 H12 0.929 . S
C44 C43 1.267 . S
C44 C45 1.251 1_565 S
C45 H15 0.929 . S
C45 N41 1.418 . S
C45 C44 1.251 1_545 S
C46 H13 0.930 . S
C46 C48 1.406 . S
C46 C51 1.261 . S
C47 H14 0.930 . S
C47 N49 1.325 . S
C47 C50 1.357 . S
C48 H16 0.928 . S
C48 C46 1.406 . S
C48 N49 1.261 . S
N49 Co0 2.214 . S
N49 C47 1.325 . S
N49 C48 1.261 . S
C50 H20 0.931 . S
C50 C47 1.357 . S
C50 C51 1.312 . S
C51 H22 0.930 . S
C51 C46 1.261 . S
C51 C50 1.312 . S
C52 O24 1.214 . S
C52 O32 1.234 . S
C53 H25 0.929 . S
C53 C56 1.391 . S
C53 C58 1.391 . S
C54 H26 0.929 . S
C54 C55 1.390 . S
C54 N57 1.391 . S
C55 H27 0.930 . S
C55 C54 1.390 . S
C55 C56 1.392 . S
C56 H28 0.929 . S
C56 C53 1.391 . S
C56 C55 1.392 . S
N57 Co1 2.257 . S
N57 C54 1.391 . S
N57 C58 1.388 . S
C58 H29 0.930 . S
C58 C53 1.391 . S
C58 N57 1.388 . S
Co59 O61 2.143 . S
Co59 O67 2.074 . S
Co59 O70 2.093 . S
Co59 O83 2.097 . S
Co59 N100 2.151 . S
Co59 N108 2.214 . S
Co60 O61 2.160 . S
Co60 O66 2.058 . S
Co60 O76 2.057 . S
Co60 O91 2.037 . S
Co60 N95 2.145 . S
Co60 N116 2.257 . S
O61 Co59 2.143 . S
O61 Co60 2.160 . S
C62 O63 1.278 . S
C62 O70 1.224 . S
O63 C62 1.278 . S
C64 O65 1.245 . S
C64 O76 1.232 . S
O65 C64 1.245 . S
O66 Co60 2.058 . S
O66 C92 1.269 . S
O67 Co59 2.074 . S
O67 C92 1.257 . S
H68 C93 0.930 . S
H69 C99 0.930 . S
O70 Co59 2.093 . S
O70 C62 1.224 . S
H71 C103 0.929 . S
H72 C105 0.930 . S
H73 C106 0.930 . S
H74 C104 0.929 . S
H75 C107 0.928 . S
O76 Co60 2.057 . S
O76 C64 1.232 . S
H77 C96 0.929 . S
H78 C97 0.929 . S
H79 C109 0.931 . S
H80 C101 0.929 . S
H81 C110 0.930 . S
H82 C102 0.931 . S
O83 Co59 2.097 . S
O83 C111 1.214 . S
H84 C112 0.929 . S
H85 C113 0.929 . S
H86 C114 0.930 . S
H87 C115 0.929 . S
H88 C117 0.930 . S
H89 C94 0.930 . S
H90 C98 0.930 . S
O91 Co60 2.037 . S
O91 C111 1.234 . S
C92 O66 1.269 . S
C92 O67 1.257 . S
C93 H68 0.930 . S
C93 C96 1.388 . S
C93 C98 1.418 . S
C94 H89 0.930 . S
C94 C97 1.404 . S
C94 C98 1.353 . S
N95 Co60 2.145 . S
N95 C96 1.397 . S
N95 C97 1.334 . S
C96 H77 0.929 . S
C96 C93 1.388 . S
C96 N95 1.397 . S
C97 H78 0.929 . S
C97 C94 1.404 . S
C97 N95 1.334 . S
C98 H90 0.930 . S
C98 C93 1.418 . S
C98 C94 1.353 . S
C99 H69 0.930 . S
C99 N100 1.330 . S
C99 C101 1.446 . S
N100 Co59 2.151 . S
N100 C99 1.330 . S
N100 C104 1.418 . S
C101 H80 0.929 . S
C101 C99 1.446 . S
C101 C102 1.332 . S
C102 H82 0.931 . S
C102 C101 1.332 . S
C102 C103 1.267 . S
C103 H71 0.929 . S
C103 C102 1.267 . S
C103 C104 1.251 . S
C104 H74 0.929 . S
C104 N100 1.418 . S
C104 C103 1.251 . S
C105 H72 0.930 . S
C105 C107 1.406 . S
C105 C110 1.261 . S
C106 H73 0.930 . S
C106 N108 1.325 . S
C106 C109 1.357 . S
C107 H75 0.928 . S
C107 C105 1.406 . S
C107 N108 1.261 . S
N108 Co59 2.214 . S
N108 C106 1.325 . S
N108 C107 1.261 . S
C109 H79 0.931 . S
C109 C106 1.357 . S
C109 C110 1.312 . S
C110 H81 0.930 . S
C110 C105 1.261 . S
C110 C109 1.312 . S
C111 O83 1.214 . S
C111 O91 1.234 . S
C112 H84 0.929 . S
C112 C115 1.391 . S
C112 C117 1.391 . S
C113 H85 0.929 . S
C113 C114 1.390 . S
C113 N116 1.391 . S
C114 H86 0.930 . S
C114 C113 1.390 . S
C114 C115 1.392 . S
C115 H87 0.929 . S
C115 C112 1.391 . S
C115 C114 1.392 . S
N116 Co60 2.257 . S
N116 C113 1.391 . S
N116 C117 1.388 . S
C117 H88 0.930 . S
C117 C112 1.391 . S
C117 N116 1.388 . S
Co118 O120 2.143 . S
Co118 O126 2.074 . S
Co118 O129 2.093 . S
Co118 O142 2.097 . S
Co118 N159 2.151 . S
Co118 N167 2.214 . S
Co119 O120 2.160 . S
Co119 O125 2.058 . S
Co119 O135 2.057 . S
Co119 O150 2.037 . S
Co119 N154 2.145 . S
Co119 N175 2.257 . S
O120 Co118 2.143 . S
O120 Co119 2.160 . S
C121 O122 1.278 . S
C121 O129 1.224 . S
O122 C121 1.278 . S
C123 O124 1.245 . S
C123 O135 1.232 . S
O124 C123 1.245 . S
O125 Co119 2.058 . S
O125 C151 1.269 . S
O126 Co118 2.074 . S
O126 C151 1.257 . S
H127 C152 0.930 . S
H128 C158 0.930 . S
O129 Co118 2.093 . S
O129 C121 1.224 . S
H130 C162 0.929 1_655 S
H131 C164 0.930 . S
H132 C165 0.930 . S
H133 C163 0.929 . S
H134 C166 0.928 . S
O135 Co119 2.057 . S
O135 C123 1.232 . S
H136 C155 0.929 . S
H137 C156 0.929 . S
H138 C168 0.931 . S
H139 C160 0.929 . S
H140 C169 0.930 . S
H141 C161 0.931 . S
O142 Co118 2.097 . S
O142 C170 1.214 . S
H143 C171 0.929 . S
H144 C172 0.929 . S
H145 C173 0.930 . S
H146 C174 0.929 . S
H147 C176 0.930 . S
H148 C153 0.930 . S
H149 C157 0.930 . S
O150 Co119 2.037 . S
O150 C170 1.234 . S
C151 O125 1.269 . S
C151 O126 1.257 . S
C152 H127 0.930 . S
C152 C155 1.388 . S
C152 C157 1.418 . S
C153 H148 0.930 . S
C153 C156 1.404 . S
C153 C157 1.353 . S
N154 Co119 2.145 . S
N154 C155 1.397 . S
N154 C156 1.334 . S
C155 H136 0.929 . S
C155 C152 1.388 . S
C155 N154 1.397 . S
C156 H137 0.929 . S
C156 C153 1.404 . S
C156 N154 1.334 . S
C157 H149 0.930 . S
C157 C152 1.418 . S
C157 C153 1.353 . S
C158 H128 0.930 . S
C158 N159 1.330 1_545 S
C158 C160 1.446 . S
N159 Co118 2.151 . S
N159 C158 1.330 1_565 S
N159 C163 1.418 . S
C160 H139 0.929 . S
C160 C158 1.446 . S
C160 C161 1.332 . S
C161 H141 0.931 . S
C161 C160 1.332 . S
C161 C162 1.267 . S
C162 H130 0.929 1_455 S
C162 C161 1.267 . S
C162 C163 1.251 1_545 S
C163 H133 0.929 . S
C163 N159 1.418 . S
C163 C162 1.251 1_565 S
C164 H131 0.930 . S
C164 C166 1.406 . S
C164 C169 1.261 . S
C165 H132 0.930 . S
C165 N167 1.325 . S
C165 C168 1.357 . S
C166 H134 0.928 . S
C166 C164 1.406 . S
C166 N167 1.261 . S
N167 Co118 2.214 . S
N167 C165 1.325 . S
N167 C166 1.261 . S
C168 H138 0.931 . S
C168 C165 1.357 . S
C168 C169 1.312 . S
C169 H140 0.930 . S
C169 C164 1.261 . S
C169 C168 1.312 . S
C170 O142 1.214 . S
C170 O150 1.234 . S
C171 H143 0.929 . S
C171 C174 1.391 . S
C171 C176 1.391 . S
C172 H144 0.929 . S
C172 C173 1.390 . S
C172 N175 1.391 . S
C173 H145 0.930 . S
C173 C172 1.390 . S
C173 C174 1.392 . S
C174 H146 0.929 . S
C174 C171 1.391 . S
C174 C173 1.392 . S
N175 Co119 2.257 . S
N175 C172 1.391 . S
N175 C176 1.388 . S
C176 H147 0.930 . S
C176 C171 1.391 . S
C176 N175 1.388 . S
Co177 O179 2.143 . S
Co177 O185 2.074 . S
Co177 O188 2.093 . S
Co177 O201 2.097 . S
Co177 N218 2.151 . S
Co177 N226 2.214 . S
Co178 O179 2.160 . S
Co178 O184 2.058 . S
Co178 O194 2.057 . S
Co178 O209 2.037 . S
Co178 N213 2.145 . S
Co178 N234 2.257 . S
O179 Co177 2.143 . S
O179 Co178 2.160 . S
C180 O181 1.278 . S
C180 O188 1.224 . S
O181 C180 1.278 . S
C182 O183 1.245 . S
C182 O194 1.232 . S
O183 C182 1.245 . S
O184 Co178 2.058 . S
O184 C210 1.269 . S
O185 Co177 2.074 . S
O185 C210 1.257 . S
H186 C211 0.930 . S
H187 C217 0.930 . S
O188 Co177 2.093 . S
O188 C180 1.224 . S
H189 C221 0.929 . S
H190 C223 0.930 . S
H191 C224 0.930 . S
H192 C222 0.929 . S
H193 C225 0.928 . S
O194 Co178 2.057 . S
O194 C182 1.232 . S
H195 C214 0.929 . S
H196 C215 0.929 . S
H197 C227 0.931 . S
H198 C219 0.929 . S
H199 C228 0.930 . S
H200 C220 0.931 . S
O201 Co177 2.097 . S
O201 C229 1.214 . S
H202 C230 0.929 . S
H203 C231 0.929 . S
H204 C232 0.930 . S
H205 C233 0.929 . S
H206 C235 0.930 . S
H207 C212 0.930 . S
H208 C216 0.930 . S
O209 Co178 2.037 . S
O209 C229 1.234 . S
C210 O184 1.269 . S
C210 O185 1.257 . S
C211 H186 0.930 . S
C211 C214 1.388 . S
C211 C216 1.418 . S
C212 H207 0.930 . S
C212 C215 1.404 . S
C212 C216 1.353 . S
N213 Co178 2.145 . S
N213 C214 1.397 . S
N213 C215 1.334 . S
C214 H195 0.929 . S
C214 C211 1.388 . S
C214 N213 1.397 . S
C215 H196 0.929 . S
C215 C212 1.404 . S
C215 N213 1.334 . S
C216 H208 0.930 . S
C216 C211 1.418 . S
C216 C212 1.353 . S
C217 H187 0.930 . S
C217 N218 1.330 . S
C217 C219 1.446 . S
N218 Co177 2.151 . S
N218 C217 1.330 . S
N218 C222 1.418 . S
C219 H198 0.929 . S
C219 C217 1.446 . S
C219 C220 1.332 . S
C220 H200 0.931 . S
C220 C219 1.332 . S
C220 C221 1.267 . S
C221 H189 0.929 . S
C221 C220 1.267 . S
C221 C222 1.251 . S
C222 H192 0.929 . S
C222 N218 1.418 . S
C222 C221 1.251 . S
C223 H190 0.930 . S
C223 C225 1.406 . S
C223 C228 1.261 . S
C224 H191 0.930 . S
C224 N226 1.325 . S
C224 C227 1.357 . S
C225 H193 0.928 . S
C225 C223 1.406 . S
C225 N226 1.261 . S
N226 Co177 2.214 . S
N226 C224 1.325 . S
N226 C225 1.261 . S
C227 H197 0.931 . S
C227 C224 1.357 . S
C227 C228 1.312 . S
C228 H199 0.930 . S
C228 C223 1.261 . S
C228 C227 1.312 . S
C229 O201 1.214 . S
C229 O209 1.234 . S
C230 H202 0.929 . S
C230 C233 1.391 . S
C230 C235 1.391 . S
C231 H203 0.929 . S
C231 C232 1.390 . S
C231 N234 1.391 . S
C232 H204 0.930 . S
C232 C231 1.390 . S
C232 C233 1.392 . S
C233 H205 0.929 . S
C233 C230 1.391 . S
C233 C232 1.392 . S
N234 Co178 2.257 . S
N234 C231 1.391 . S
N234 C235 1.388 . S
C235 H206 0.930 . S
C235 C230 1.391 . S
C235 N234 1.388 . S
Co236 O238 2.143 . S
Co236 O244 2.074 . S
Co236 O247 2.093 . S
Co236 O260 2.097 . S
Co236 N277 2.151 . S
Co236 N285 2.214 . S
Co237 O238 2.160 . S
Co237 O243 2.058 . S
Co237 O253 2.057 . S
Co237 O268 2.037 . S
Co237 N272 2.145 . S
Co237 N293 2.257 . S
O238 Co236 2.143 . S
O238 Co237 2.160 . S
C239 O240 1.278 . S
C239 O247 1.224 . S
O240 C239 1.278 . S
C241 O242 1.245 . S
C241 O253 1.232 . S
O242 C241 1.245 . S
O243 Co237 2.058 . S
O243 C269 1.269 . S
O244 Co236 2.074 . S
O244 C269 1.257 . S
H245 C270 0.930 . S
H246 C276 0.930 . S
O247 Co236 2.093 . S
O247 C239 1.224 . S
H248 C280 0.929 . S
H249 C282 0.930 . S
H250 C283 0.930 . S
H251 C281 0.929 . S
H252 C284 0.928 . S
O253 Co237 2.057 . S
O253 C241 1.232 . S
H254 C273 0.929 . S
H255 C274 0.929 . S
H256 C286 0.931 . S
H257 C278 0.929 . S
H258 C287 0.930 . S
H259 C279 0.931 . S
O260 Co236 2.097 . S
O260 C288 1.214 . S
H261 C289 0.929 . S
H262 C290 0.929 . S
H263 C291 0.930 . S
H264 C292 0.929 . S
H265 C294 0.930 . S
H266 C271 0.930 . S
H267 C275 0.930 . S
O268 Co237 2.037 . S
O268 C288 1.234 . S
C269 O243 1.269 . S
C269 O244 1.257 . S
C270 H245 0.930 . S
C270 C273 1.388 . S
C270 C275 1.418 . S
C271 H266 0.930 . S
C271 C274 1.404 . S
C271 C275 1.353 . S
N272 Co237 2.145 . S
N272 C273 1.397 . S
N272 C274 1.334 . S
C273 H254 0.929 . S
C273 C270 1.388 . S
C273 N272 1.397 . S
C274 H255 0.929 . S
C274 C271 1.404 . S
C274 N272 1.334 . S
C275 H267 0.930 . S
C275 C270 1.418 . S
C275 C271 1.353 . S
C276 H246 0.930 . S
C276 N277 1.330 1_545 S
C276 C278 1.446 . S
N277 Co236 2.151 . S
N277 C276 1.330 1_565 S
N277 C281 1.418 . S
C278 H257 0.929 . S
C278 C276 1.446 . S
C278 C279 1.332 . S
C279 H259 0.931 . S
C279 C278 1.332 . S
C279 C280 1.267 . S
C280 H248 0.929 . S
C280 C279 1.267 . S
C280 C281 1.251 1_545 S
C281 H251 0.929 . S
C281 N277 1.418 . S
C281 C280 1.251 1_565 S
C282 H249 0.930 . S
C282 C284 1.406 . S
C282 C287 1.261 . S
C283 H250 0.930 . S
C283 N285 1.325 . S
C283 C286 1.357 . S
C284 H252 0.928 . S
C284 C282 1.406 . S
C284 N285 1.261 . S
N285 Co236 2.214 . S
N285 C283 1.325 . S
N285 C284 1.261 . S
C286 H256 0.931 . S
C286 C283 1.357 . S
C286 C287 1.312 . S
C287 H258 0.930 . S
C287 C282 1.261 . S
C287 C286 1.312 . S
C288 O260 1.214 . S
C288 O268 1.234 . S
C289 H261 0.929 . S
C289 C292 1.391 . S
C289 C294 1.391 . S
C290 H262 0.929 . S
C290 C291 1.390 . S
C290 N293 1.391 . S
C291 H263 0.930 . S
C291 C290 1.390 . S
C291 C292 1.392 . S
C292 H264 0.929 . S
C292 C289 1.391 . S
C292 C291 1.392 . S
N293 Co237 2.257 . S
N293 C290 1.391 . S
N293 C294 1.388 . S
C294 H265 0.930 . S
C294 C289 1.391 . S
C294 N293 1.388 . S
Co295 O297 2.143 . S
Co295 O303 2.074 . S
Co295 O306 2.093 . S
Co295 O319 2.097 . S
Co295 N336 2.151 . S
Co295 N344 2.214 . S
Co296 O297 2.160 . S
Co296 O302 2.058 . S
Co296 O312 2.057 . S
Co296 O327 2.037 . S
Co296 N331 2.145 . S
Co296 N352 2.257 . S
O297 Co295 2.143 . S
O297 Co296 2.160 . S
C298 O299 1.278 . S
C298 O306 1.224 . S
O299 C298 1.278 . S
C300 O301 1.245 . S
C300 O312 1.232 . S
O301 C300 1.245 . S
O302 Co296 2.058 . S
O302 C328 1.269 . S
O303 Co295 2.074 . S
O303 C328 1.257 . S
H304 C329 0.930 . S
H305 C335 0.930 . S
O306 Co295 2.093 . S
O306 C298 1.224 . S
H307 C339 0.929 . S
H308 C341 0.930 . S
H309 C342 0.930 . S
H310 C340 0.929 . S
H311 C343 0.928 . S
O312 Co296 2.057 . S
O312 C300 1.232 . S
H313 C332 0.929 . S
H314 C333 0.929 . S
H315 C345 0.931 . S
H316 C337 0.929 . S
H317 C346 0.930 . S
H318 C338 0.931 . S
O319 Co295 2.097 . S
O319 C347 1.214 . S
H320 C348 0.929 . S
H321 C349 0.929 . S
H322 C350 0.930 . S
H323 C351 0.929 . S
H324 C353 0.930 . S
H325 C330 0.930 . S
H326 C334 0.930 . S
O327 Co296 2.037 . S
O327 C347 1.234 . S
C328 O302 1.269 . S
C328 O303 1.257 . S
C329 H304 0.930 . S
C329 C332 1.388 . S
C329 C334 1.418 . S
C330 H325 0.930 . S
C330 C333 1.404 . S
C330 C334 1.353 . S
N331 Co296 2.145 . S
N331 C332 1.397 . S
N331 C333 1.334 . S
C332 H313 0.929 . S
C332 C329 1.388 . S
C332 N331 1.397 . S
C333 H314 0.929 . S
C333 C330 1.404 . S
C333 N331 1.334 . S
C334 H326 0.930 . S
C334 C329 1.418 . S
C334 C330 1.353 . S
C335 H305 0.930 . S
C335 N336 1.330 . S
C335 C337 1.446 . S
N336 Co295 2.151 . S
N336 C335 1.330 . S
N336 C340 1.418 . S
C337 H316 0.929 . S
C337 C335 1.446 . S
C337 C338 1.332 . S
C338 H318 0.931 . S
C338 C337 1.332 . S
C338 C339 1.267 . S
C339 H307 0.929 . S
C339 C338 1.267 . S
C339 C340 1.251 . S
C340 H310 0.929 . S
C340 N336 1.418 . S
C340 C339 1.251 . S
C341 H308 0.930 . S
C341 C343 1.406 . S
C341 C346 1.261 . S
C342 H309 0.930 . S
C342 N344 1.325 . S
C342 C345 1.357 . S
C343 H311 0.928 . S
C343 C341 1.406 . S
C343 N344 1.261 . S
N344 Co295 2.214 . S
N344 C342 1.325 . S
N344 C343 1.261 . S
C345 H315 0.931 . S
C345 C342 1.357 . S
C345 C346 1.312 . S
C346 H317 0.930 . S
C346 C341 1.261 . S
C346 C345 1.312 . S
C347 O319 1.214 . S
C347 O327 1.234 . S
C348 H320 0.929 . S
C348 C351 1.391 . S
C348 C353 1.391 . S
C349 H321 0.929 . S
C349 C350 1.390 . S
C349 N352 1.391 . S
C350 H322 0.930 . S
C350 C349 1.390 . S
C350 C351 1.392 . S
C351 H323 0.929 . S
C351 C348 1.391 . S
C351 C350 1.392 . S
N352 Co296 2.257 . S
N352 C349 1.391 . S
N352 C353 1.388 . S
C353 H324 0.930 . S
C353 C348 1.391 . S
C353 N352 1.388 . S
Co354 O356 2.143 . S
Co354 O362 2.074 . S
Co354 O365 2.093 . S
Co354 O378 2.097 . S
Co354 N395 2.151 . S
Co354 N403 2.214 . S
Co355 O356 2.160 . S
Co355 O361 2.058 . S
Co355 O371 2.057 . S
Co355 O386 2.037 . S
Co355 N390 2.145 . S
Co355 N411 2.257 . S
O356 Co354 2.143 . S
O356 Co355 2.160 . S
C357 O358 1.278 . S
C357 O365 1.224 . S
O358 C357 1.278 . S
C359 O360 1.245 . S
C359 O371 1.232 . S
O360 C359 1.245 . S
O361 Co355 2.058 . S
O361 C387 1.269 . S
O362 Co354 2.074 . S
O362 C387 1.257 . S
H363 C388 0.930 . S
H364 C394 0.930 . S
O365 Co354 2.093 . S
O365 C357 1.224 . S
H366 C398 0.929 1_655 S
H367 C400 0.930 . S
H368 C401 0.930 . S
H369 C399 0.929 . S
H370 C402 0.928 . S
O371 Co355 2.057 . S
O371 C359 1.232 . S
H372 C391 0.929 . S
H373 C392 0.929 . S
H374 C404 0.931 . S
H375 C396 0.929 . S
H376 C405 0.930 . S
H377 C397 0.931 . S
O378 Co354 2.097 . S
O378 C406 1.214 . S
H379 C407 0.929 . S
H380 C408 0.929 . S
H381 C409 0.930 . S
H382 C410 0.929 . S
H383 C412 0.930 . S
H384 C389 0.930 . S
H385 C393 0.930 . S
O386 Co355 2.037 . S
O386 C406 1.234 . S
C387 O361 1.269 . S
C387 O362 1.257 . S
C388 H363 0.930 . S
C388 C391 1.388 . S
C388 C393 1.418 . S
C389 H384 0.930 . S
C389 C392 1.404 . S
C389 C393 1.353 . S
N390 Co355 2.145 . S
N390 C391 1.397 . S
N390 C392 1.334 . S
C391 H372 0.929 . S
C391 C388 1.388 . S
C391 N390 1.397 . S
C392 H373 0.929 . S
C392 C389 1.404 . S
C392 N390 1.334 . S
C393 H385 0.930 . S
C393 C388 1.418 . S
C393 C389 1.353 . S
C394 H364 0.930 . S
C394 N395 1.330 1_565 S
C394 C396 1.446 . S
N395 Co354 2.151 . S
N395 C394 1.330 1_545 S
N395 C399 1.418 . S
C396 H375 0.929 . S
C396 C394 1.446 . S
C396 C397 1.332 . S
C397 H377 0.931 . S
C397 C396 1.332 . S
C397 C398 1.267 . S
C398 H366 0.929 1_455 S
C398 C397 1.267 . S
C398 C399 1.251 1_565 S
C399 H369 0.929 . S
C399 N395 1.418 . S
C399 C398 1.251 1_545 S
C400 H367 0.930 . S
C400 C402 1.406 . S
C400 C405 1.261 . S
C401 H368 0.930 . S
C401 N403 1.325 . S
C401 C404 1.357 . S
C402 H370 0.928 . S
C402 C400 1.406 . S
C402 N403 1.261 . S
N403 Co354 2.214 . S
N403 C401 1.325 . S
N403 C402 1.261 . S
C404 H374 0.931 . S
C404 C401 1.357 . S
C404 C405 1.312 . S
C405 H376 0.930 . S
C405 C400 1.261 . S
C405 C404 1.312 . S
C406 O378 1.214 . S
C406 O386 1.234 . S
C407 H379 0.929 . S
C407 C410 1.391 . S
C407 C412 1.391 . S
C408 H380 0.929 . S
C408 C409 1.390 . S
C408 N411 1.391 . S
C409 H381 0.930 . S
C409 C408 1.390 . S
C409 C410 1.392 . S
C410 H382 0.929 . S
C410 C407 1.391 . S
C410 C409 1.392 . S
N411 Co355 2.257 . S
N411 C408 1.391 . S
N411 C412 1.388 . S
C412 H383 0.930 . S
C412 C407 1.391 . S
C412 N411 1.388 . S
Co413 O415 2.143 . S
Co413 O421 2.074 . S
Co413 O424 2.093 . S
Co413 O437 2.097 . S
Co413 N454 2.151 . S
Co413 N462 2.214 . S
Co414 O415 2.160 . S
Co414 O420 2.058 . S
Co414 O430 2.057 . S
Co414 O445 2.037 . S
Co414 N449 2.145 . S
Co414 N470 2.257 . S
O415 Co413 2.143 . S
O415 Co414 2.160 . S
C416 O417 1.278 . S
C416 O424 1.224 . S
O417 C416 1.278 . S
C418 O419 1.245 . S
C418 O430 1.232 . S
O419 C418 1.245 . S
O420 Co414 2.058 . S
O420 C446 1.269 . S
O421 Co413 2.074 . S
O421 C446 1.257 . S
H422 C447 0.930 . S
H423 C453 0.930 . S
O424 Co413 2.093 . S
O424 C416 1.224 . S
H425 C457 0.929 . S
H426 C459 0.930 . S
H427 C460 0.930 . S
H428 C458 0.929 . S
H429 C461 0.928 . S
O430 Co414 2.057 . S
O430 C418 1.232 . S
H431 C450 0.929 . S
H432 C451 0.929 . S
H433 C463 0.931 . S
H434 C455 0.929 . S
H435 C464 0.930 . S
H436 C456 0.931 . S
O437 Co413 2.097 . S
O437 C465 1.214 . S
H438 C466 0.929 . S
H439 C467 0.929 . S
H440 C468 0.930 . S
H441 C469 0.929 . S
H442 C471 0.930 . S
H443 C448 0.930 . S
H444 C452 0.930 . S
O445 Co414 2.037 . S
O445 C465 1.234 . S
C446 O420 1.269 . S
C446 O421 1.257 . S
C447 H422 0.930 . S
C447 C450 1.388 . S
C447 C452 1.418 . S
C448 H443 0.930 . S
C448 C451 1.404 . S
C448 C452 1.353 . S
N449 Co414 2.145 . S
N449 C450 1.397 . S
N449 C451 1.334 . S
C450 H431 0.929 . S
C450 C447 1.388 . S
C450 N449 1.397 . S
C451 H432 0.929 . S
C451 C448 1.404 . S
C451 N449 1.334 . S
C452 H444 0.930 . S
C452 C447 1.418 . S
C452 C448 1.353 . S
C453 H423 0.930 . S
C453 N454 1.330 . S
C453 C455 1.446 . S
N454 Co413 2.151 . S
N454 C453 1.330 . S
N454 C458 1.418 . S
C455 H434 0.929 . S
C455 C453 1.446 . S
C455 C456 1.332 . S
C456 H436 0.931 . S
C456 C455 1.332 . S
C456 C457 1.267 . S
C457 H425 0.929 . S
C457 C456 1.267 . S
C457 C458 1.251 . S
C458 H428 0.929 . S
C458 N454 1.418 . S
C458 C457 1.251 . S
C459 H426 0.930 . S
C459 C461 1.406 . S
C459 C464 1.261 . S
C460 H427 0.930 . S
C460 N462 1.325 . S
C460 C463 1.357 . S
C461 H429 0.928 . S
C461 C459 1.406 . S
C461 N462 1.261 . S
N462 Co413 2.214 . S
N462 C460 1.325 . S
N462 C461 1.261 . S
C463 H433 0.931 . S
C463 C460 1.357 . S
C463 C464 1.312 . S
C464 H435 0.930 . S
C464 C459 1.261 . S
C464 C463 1.312 . S
C465 O437 1.214 . S
C465 O445 1.234 . S
C466 H438 0.929 . S
C466 C469 1.391 . S
C466 C471 1.391 . S
C467 H439 0.929 . S
C467 C468 1.390 . S
C467 N470 1.391 . S
C468 H440 0.930 . S
C468 C467 1.390 . S
C468 C469 1.392 . S
C469 H441 0.929 . S
C469 C466 1.391 . S
C469 C468 1.392 . S
N470 Co414 2.257 . S
N470 C467 1.391 . S
N470 C471 1.388 . S
C471 H442 0.930 . S
C471 C466 1.391 . S
C471 N470 1.388 . S
Co472 O474 2.143 . S
Co472 O480 2.074 . S
Co472 O483 2.093 . S
Co472 O496 2.097 . S
Co472 N513 2.151 . S
Co472 N521 2.214 . S
Co473 O474 2.160 . S
Co473 O479 2.058 . S
Co473 O489 2.057 . S
Co473 O504 2.037 . S
Co473 N508 2.145 . S
Co473 N529 2.257 . S
O474 Co472 2.143 . S
O474 Co473 2.160 . S
C475 O476 1.278 . S
C475 O483 1.224 . S
O476 C475 1.278 . S
C477 O478 1.245 . S
C477 O489 1.232 . S
O478 C477 1.245 . S
O479 Co473 2.058 . S
O479 C505 1.269 . S
O480 Co472 2.074 . S
O480 C505 1.257 . S
H481 C506 0.930 . S
H482 C512 0.930 . S
O483 Co472 2.093 . S
O483 C475 1.224 . S
H484 C516 0.929 . S
H485 C518 0.930 . S
H486 C519 0.930 . S
H487 C517 0.929 . S
H488 C520 0.928 . S
O489 Co473 2.057 . S
O489 C477 1.232 . S
H490 C509 0.929 . S
H491 C510 0.929 . S
H492 C522 0.931 . S
H493 C514 0.929 . S
H494 C523 0.930 . S
H495 C515 0.931 . S
O496 Co472 2.097 . S
O496 C524 1.214 . S
H497 C525 0.929 . S
H498 C526 0.929 . S
H499 C527 0.930 . S
H500 C528 0.929 . S
H501 C530 0.930 . S
H502 C507 0.930 . S
H503 C511 0.930 . S
O504 Co473 2.037 . S
O504 C524 1.234 . S
C505 O479 1.269 . S
C505 O480 1.257 . S
C506 H481 0.930 . S
C506 C509 1.388 . S
C506 C511 1.418 . S
C507 H502 0.930 . S
C507 C510 1.404 . S
C507 C511 1.353 . S
N508 Co473 2.145 . S
N508 C509 1.397 . S
N508 C510 1.334 . S
C509 H490 0.929 . S
C509 C506 1.388 . S
C509 N508 1.397 . S
C510 H491 0.929 . S
C510 C507 1.404 . S
C510 N508 1.334 . S
C511 H503 0.930 . S
C511 C506 1.418 . S
C511 C507 1.353 . S
C512 H482 0.930 . S
C512 N513 1.330 1_545 S
C512 C514 1.446 . S
N513 Co472 2.151 . S
N513 C512 1.330 1_565 S
N513 C517 1.418 . S
C514 H493 0.929 . S
C514 C512 1.446 . S
C514 C515 1.332 . S
C515 H495 0.931 . S
C515 C514 1.332 . S
C515 C516 1.267 . S
C516 H484 0.929 . S
C516 C515 1.267 . S
C516 C517 1.251 1_545 S
C517 H487 0.929 . S
C517 N513 1.418 . S
C517 C516 1.251 1_565 S
C518 H485 0.930 . S
C518 C520 1.406 . S
C518 C523 1.261 . S
C519 H486 0.930 . S
C519 N521 1.325 . S
C519 C522 1.357 . S
C520 H488 0.928 . S
C520 C518 1.406 . S
C520 N521 1.261 . S
N521 Co472 2.214 . S
N521 C519 1.325 . S
N521 C520 1.261 . S
C522 H492 0.931 . S
C522 C519 1.357 . S
C522 C523 1.312 . S
C523 H494 0.930 . S
C523 C518 1.261 . S
C523 C522 1.312 . S
C524 O496 1.214 . S
C524 O504 1.234 . S
C525 H497 0.929 . S
C525 C528 1.391 . S
C525 C530 1.391 . S
C526 H498 0.929 . S
C526 C527 1.390 . S
C526 N529 1.391 . S
C527 H499 0.930 . S
C527 C526 1.390 . S
C527 C528 1.392 . S
C528 H500 0.929 . S
C528 C525 1.391 . S
C528 C527 1.392 . S
N529 Co473 2.257 . S
N529 C526 1.391 . S
N529 C530 1.388 . S
C530 H501 0.930 . S
C530 C525 1.391 . S
C530 N529 1.388 . S
Co531 O533 2.143 . S
Co531 O539 2.074 . S
Co531 O542 2.093 . S
Co531 O555 2.097 . S
Co531 N572 2.151 . S
Co531 N580 2.214 . S
Co532 O533 2.160 . S
Co532 O538 2.058 . S
Co532 O548 2.057 . S
Co532 O563 2.037 . S
Co532 N567 2.145 . S
Co532 N588 2.257 . S
O533 Co531 2.143 . S
O533 Co532 2.160 . S
C534 O535 1.278 . S
C534 O542 1.224 . S
O535 C534 1.278 . S
C536 O537 1.245 . S
C536 O548 1.232 . S
O537 C536 1.245 . S
O538 Co532 2.058 . S
O538 C564 1.269 . S
O539 Co531 2.074 . S
O539 C564 1.257 . S
H540 C565 0.930 . S
H541 C571 0.930 . S
O542 Co531 2.093 . S
O542 C534 1.224 . S
H543 C575 0.929 . S
H544 C577 0.930 . S
H545 C578 0.930 . S
H546 C576 0.929 . S
H547 C579 0.928 . S
O548 Co532 2.057 . S
O548 C536 1.232 . S
H549 C568 0.929 . S
H550 C569 0.929 . S
H551 C581 0.931 . S
H552 C573 0.929 . S
H553 C582 0.930 . S
H554 C574 0.931 . S
O555 Co531 2.097 . S
O555 C583 1.214 . S
H556 C584 0.929 . S
H557 C585 0.929 . S
H558 C586 0.930 . S
H559 C587 0.929 . S
H560 C589 0.930 . S
H561 C566 0.930 . S
H562 C570 0.930 . S
O563 Co532 2.037 . S
O563 C583 1.234 . S
C564 O538 1.269 . S
C564 O539 1.257 . S
C565 H540 0.930 . S
C565 C568 1.388 . S
C565 C570 1.418 . S
C566 H561 0.930 . S
C566 C569 1.404 . S
C566 C570 1.353 . S
N567 Co532 2.145 . S
N567 C568 1.397 . S
N567 C569 1.334 . S
C568 H549 0.929 . S
C568 C565 1.388 . S
C568 N567 1.397 . S
C569 H550 0.929 . S
C569 C566 1.404 . S
C569 N567 1.334 . S
C570 H562 0.930 . S
C570 C565 1.418 . S
C570 C566 1.353 . S
C571 H541 0.930 . S
C571 N572 1.330 . S
C571 C573 1.446 . S
N572 Co531 2.151 . S
N572 C571 1.330 . S
N572 C576 1.418 . S
C573 H552 0.929 . S
C573 C571 1.446 . S
C573 C574 1.332 . S
C574 H554 0.931 . S
C574 C573 1.332 . S
C574 C575 1.267 . S
C575 H543 0.929 . S
C575 C574 1.267 . S
C575 C576 1.251 . S
C576 H546 0.929 . S
C576 N572 1.418 . S
C576 C575 1.251 . S
C577 H544 0.930 . S
C577 C579 1.406 . S
C577 C582 1.261 . S
C578 H545 0.930 . S
C578 N580 1.325 . S
C578 C581 1.357 . S
C579 H547 0.928 . S
C579 C577 1.406 . S
C579 N580 1.261 . S
N580 Co531 2.214 . S
N580 C578 1.325 . S
N580 C579 1.261 . S
C581 H551 0.931 . S
C581 C578 1.357 . S
C581 C582 1.312 . S
C582 H553 0.930 . S
C582 C577 1.261 . S
C582 C581 1.312 . S
C583 O555 1.214 . S
C583 O563 1.234 . S
C584 H556 0.929 . S
C584 C587 1.391 . S
C584 C589 1.391 . S
C585 H557 0.929 . S
C585 C586 1.390 . S
C585 N588 1.391 . S
C586 H558 0.930 . S
C586 C585 1.390 . S
C586 C587 1.392 . S
C587 H559 0.929 . S
C587 C584 1.391 . S
C587 C586 1.392 . S
N588 Co532 2.257 . S
N588 C585 1.391 . S
N588 C589 1.388 . S
C589 H560 0.930 . S
C589 C584 1.391 . S
C589 N588 1.388 . S
Co590 O592 2.143 . S
Co590 O598 2.074 . S
Co590 O601 2.093 . S
Co590 O614 2.097 . S
Co590 N631 2.151 . S
Co590 N639 2.214 . S
Co591 O592 2.160 . S
Co591 O597 2.058 . S
Co591 O607 2.057 . S
Co591 O622 2.037 . S
Co591 N626 2.145 . S
Co591 N647 2.257 . S
O592 Co590 2.143 . S
O592 Co591 2.160 . S
C593 O594 1.278 . S
C593 O601 1.224 . S
O594 C593 1.278 . S
C595 O596 1.245 . S
C595 O607 1.232 . S
O596 C595 1.245 . S
O597 Co591 2.058 . S
O597 C623 1.269 . S
O598 Co590 2.074 . S
O598 C623 1.257 . S
H599 C624 0.930 . S
H600 C630 0.930 . S
O601 Co590 2.093 . S
O601 C593 1.224 . S
H602 C634 0.929 1_455 S
H603 C636 0.930 . S
H604 C637 0.930 . S
H605 C635 0.929 . S
H606 C638 0.928 . S
O607 Co591 2.057 . S
O607 C595 1.232 . S
H608 C627 0.929 . S
H609 C628 0.929 . S
H610 C640 0.931 . S
H611 C632 0.929 . S
H612 C641 0.930 . S
H613 C633 0.931 . S
O614 Co590 2.097 . S
O614 C642 1.214 . S
H615 C643 0.929 . S
H616 C644 0.929 . S
H617 C645 0.930 . S
H618 C646 0.929 . S
H619 C648 0.930 . S
H620 C625 0.930 . S
H621 C629 0.930 . S
O622 Co591 2.037 . S
O622 C642 1.234 . S
C623 O597 1.269 . S
C623 O598 1.257 . S
C624 H599 0.930 . S
C624 C627 1.388 . S
C624 C629 1.418 . S
C625 H620 0.930 . S
C625 C628 1.404 . S
C625 C629 1.353 . S
N626 Co591 2.145 . S
N626 C627 1.397 . S
N626 C628 1.334 . S
C627 H608 0.929 . S
C627 C624 1.388 . S
C627 N626 1.397 . S
C628 H609 0.929 . S
C628 C625 1.404 . S
C628 N626 1.334 . S
C629 H621 0.930 . S
C629 C624 1.418 . S
C629 C625 1.353 . S
C630 H600 0.930 . S
C630 N631 1.330 1_565 S
C630 C632 1.446 . S
N631 Co590 2.151 . S
N631 C630 1.330 1_545 S
N631 C635 1.418 . S
C632 H611 0.929 . S
C632 C630 1.446 . S
C632 C633 1.332 . S
C633 H613 0.931 . S
C633 C632 1.332 . S
C633 C634 1.267 . S
C634 H602 0.929 1_655 S
C634 C633 1.267 . S
C634 C635 1.251 1_565 S
C635 H605 0.929 . S
C635 N631 1.418 . S
C635 C634 1.251 1_545 S
C636 H603 0.930 . S
C636 C638 1.406 . S
C636 C641 1.261 . S
C637 H604 0.930 . S
C637 N639 1.325 . S
C637 C640 1.357 . S
C638 H606 0.928 . S
C638 C636 1.406 . S
C638 N639 1.261 . S
N639 Co590 2.214 . S
N639 C637 1.325 . S
N639 C638 1.261 . S
C640 H610 0.931 . S
C640 C637 1.357 . S
C640 C641 1.312 . S
C641 H612 0.930 . S
C641 C636 1.261 . S
C641 C640 1.312 . S
C642 O614 1.214 . S
C642 O622 1.234 . S
C643 H615 0.929 . S
C643 C646 1.391 . S
C643 C648 1.391 . S
C644 H616 0.929 . S
C644 C645 1.390 . S
C644 N647 1.391 . S
C645 H617 0.930 . S
C645 C644 1.390 . S
C645 C646 1.392 . S
C646 H618 0.929 . S
C646 C643 1.391 . S
C646 C645 1.392 . S
N647 Co591 2.257 . S
N647 C644 1.391 . S
N647 C648 1.388 . S
C648 H619 0.930 . S
C648 C643 1.391 . S
C648 N647 1.388 . S
Co649 O651 2.143 . S
Co649 O657 2.074 . S
Co649 O660 2.093 . S
Co649 O673 2.097 . S
Co649 N690 2.151 . S
Co649 N698 2.214 . S
Co650 O651 2.160 . S
Co650 O656 2.058 . S
Co650 O666 2.057 . S
Co650 O681 2.037 . S
Co650 N685 2.145 . S
Co650 N706 2.257 . S
O651 Co649 2.143 . S
O651 Co650 2.160 . S
C652 O653 1.278 . S
C652 O660 1.224 . S
O653 C652 1.278 . S
C654 O655 1.245 . S
C654 O666 1.232 . S
O655 C654 1.245 . S
O656 Co650 2.058 . S
O656 C682 1.269 . S
O657 Co649 2.074 . S
O657 C682 1.257 . S
H658 C683 0.930 . S
H659 C689 0.930 . S
O660 Co649 2.093 . S
O660 C652 1.224 . S
H661 C693 0.929 . S
H662 C695 0.930 . S
H663 C696 0.930 . S
H664 C694 0.929 . S
H665 C697 0.928 . S
O666 Co650 2.057 . S
O666 C654 1.232 . S
H667 C686 0.929 . S
H668 C687 0.929 . S
H669 C699 0.931 . S
H670 C691 0.929 . S
H671 C700 0.930 . S
H672 C692 0.931 . S
O673 Co649 2.097 . S
O673 C701 1.214 . S
H674 C702 0.929 . S
H675 C703 0.929 . S
H676 C704 0.930 . S
H677 C705 0.929 . S
H678 C707 0.930 . S
H679 C684 0.930 . S
H680 C688 0.930 . S
O681 Co650 2.037 . S
O681 C701 1.234 . S
C682 O656 1.269 . S
C682 O657 1.257 . S
C683 H658 0.930 . S
C683 C686 1.388 . S
C683 C688 1.418 . S
C684 H679 0.930 . S
C684 C687 1.404 . S
C684 C688 1.353 . S
N685 Co650 2.145 . S
N685 C686 1.397 . S
N685 C687 1.334 . S
C686 H667 0.929 . S
C686 C683 1.388 . S
C686 N685 1.397 . S
C687 H668 0.929 . S
C687 C684 1.404 . S
C687 N685 1.334 . S
C688 H680 0.930 . S
C688 C683 1.418 . S
C688 C684 1.353 . S
C689 H659 0.930 . S
C689 N690 1.330 . S
C689 C691 1.446 . S
N690 Co649 2.151 . S
N690 C689 1.330 . S
N690 C694 1.418 . S
C691 H670 0.929 . S
C691 C689 1.446 . S
C691 C692 1.332 . S
C692 H672 0.931 . S
C692 C691 1.332 . S
C692 C693 1.267 . S
C693 H661 0.929 . S
C693 C692 1.267 . S
C693 C694 1.251 . S
C694 H664 0.929 . S
C694 N690 1.418 . S
C694 C693 1.251 . S
C695 H662 0.930 . S
C695 C697 1.406 . S
C695 C700 1.261 . S
C696 H663 0.930 . S
C696 N698 1.325 . S
C696 C699 1.357 . S
C697 H665 0.928 . S
C697 C695 1.406 . S
C697 N698 1.261 . S
N698 Co649 2.214 . S
N698 C696 1.325 . S
N698 C697 1.261 . S
C699 H669 0.931 . S
C699 C696 1.357 . S
C699 C700 1.312 . S
C700 H671 0.930 . S
C700 C695 1.261 . S
C700 C699 1.312 . S
C701 O673 1.214 . S
C701 O681 1.234 . S
C702 H674 0.929 . S
C702 C705 1.391 . S
C702 C707 1.391 . S
C703 H675 0.929 . S
C703 C704 1.390 . S
C703 N706 1.391 . S
C704 H676 0.930 . S
C704 C703 1.390 . S
C704 C705 1.392 . S
C705 H677 0.929 . S
C705 C702 1.391 . S
C705 C704 1.392 . S
N706 Co650 2.257 . S
N706 C703 1.391 . S
N706 C707 1.388 . S
C707 H678 0.930 . S
C707 C702 1.391 . S
C707 N706 1.388 . S
Co708 O710 2.143 . S
Co708 O716 2.074 . S
Co708 O719 2.093 . S
Co708 O732 2.097 . S
Co708 N749 2.151 . S
Co708 N757 2.214 . S
Co709 O710 2.160 . S
Co709 O715 2.058 . S
Co709 O725 2.057 . S
Co709 O740 2.037 . S
Co709 N744 2.145 . S
Co709 N765 2.257 . S
O710 Co708 2.143 . S
O710 Co709 2.160 . S
C711 O712 1.278 . S
C711 O719 1.224 . S
O712 C711 1.278 . S
C713 O714 1.245 . S
C713 O725 1.232 . S
O714 C713 1.245 . S
O715 Co709 2.058 . S
O715 C741 1.269 . S
O716 Co708 2.074 . S
O716 C741 1.257 . S
H717 C742 0.930 . S
H718 C748 0.930 . S
O719 Co708 2.093 . S
O719 C711 1.224 . S
H720 C752 0.929 . S
H721 C754 0.930 . S
H722 C755 0.930 . S
H723 C753 0.929 . S
H724 C756 0.928 . S
O725 Co709 2.057 . S
O725 C713 1.232 . S
H726 C745 0.929 . S
H727 C746 0.929 . S
H728 C758 0.931 . S
H729 C750 0.929 . S
H730 C759 0.930 . S
H731 C751 0.931 . S
O732 Co708 2.097 . S
O732 C760 1.214 . S
H733 C761 0.929 . S
H734 C762 0.929 . S
H735 C763 0.930 . S
H736 C764 0.929 . S
H737 C766 0.930 . S
H738 C743 0.930 . S
H739 C747 0.930 . S
O740 Co709 2.037 . S
O740 C760 1.234 . S
C741 O715 1.269 . S
C741 O716 1.257 . S
C742 H717 0.930 . S
C742 C745 1.388 . S
C742 C747 1.418 . S
C743 H738 0.930 . S
C743 C746 1.404 . S
C743 C747 1.353 . S
N744 Co709 2.145 . S
N744 C745 1.397 . S
N744 C746 1.334 . S
C745 H726 0.929 . S
C745 C742 1.388 . S
C745 N744 1.397 . S
C746 H727 0.929 . S
C746 C743 1.404 . S
C746 N744 1.334 . S
C747 H739 0.930 . S
C747 C742 1.418 . S
C747 C743 1.353 . S
C748 H718 0.930 . S
C748 N749 1.330 1_565 S
C748 C750 1.446 . S
N749 Co708 2.151 . S
N749 C748 1.330 1_545 S
N749 C753 1.418 . S
C750 H729 0.929 . S
C750 C748 1.446 . S
C750 C751 1.332 . S
C751 H731 0.931 . S
C751 C750 1.332 . S
C751 C752 1.267 . S
C752 H720 0.929 . S
C752 C751 1.267 . S
C752 C753 1.251 1_565 S
C753 H723 0.929 . S
C753 N749 1.418 . S
C753 C752 1.251 1_545 S
C754 H721 0.930 . S
C754 C756 1.406 . S
C754 C759 1.261 . S
C755 H722 0.930 . S
C755 N757 1.325 . S
C755 C758 1.357 . S
C756 H724 0.928 . S
C756 C754 1.406 . S
C756 N757 1.261 . S
N757 Co708 2.214 . S
N757 C755 1.325 . S
N757 C756 1.261 . S
C758 H728 0.931 . S
C758 C755 1.357 . S
C758 C759 1.312 . S
C759 H730 0.930 . S
C759 C754 1.261 . S
C759 C758 1.312 . S
C760 O732 1.214 . S
C760 O740 1.234 . S
C761 H733 0.929 . S
C761 C764 1.391 . S
C761 C766 1.391 . S
C762 H734 0.929 . S
C762 C763 1.390 . S
C762 N765 1.391 . S
C763 H735 0.930 . S
C763 C762 1.390 . S
C763 C764 1.392 . S
C764 H736 0.929 . S
C764 C761 1.391 . S
C764 C763 1.392 . S
N765 Co709 2.257 . S
N765 C762 1.391 . S
N765 C766 1.388 . S
C766 H737 0.930 . S
C766 C761 1.391 . S
C766 N765 1.388 . S
Co767 O769 2.143 . S
Co767 O775 2.074 . S
Co767 O778 2.093 . S
Co767 O791 2.097 . S
Co767 N808 2.151 . S
Co767 N816 2.214 . S
Co768 O769 2.160 . S
Co768 O774 2.058 . S
Co768 O784 2.057 . S
Co768 O799 2.037 . S
Co768 N803 2.145 . S
Co768 N824 2.257 . S
O769 Co767 2.143 . S
O769 Co768 2.160 . S
C770 O771 1.278 . S
C770 O778 1.224 . S
O771 C770 1.278 . S
C772 O773 1.245 . S
C772 O784 1.232 . S
O773 C772 1.245 . S
O774 Co768 2.058 . S
O774 C800 1.269 . S
O775 Co767 2.074 . S
O775 C800 1.257 . S
H776 C801 0.930 . S
H777 C807 0.930 . S
O778 Co767 2.093 . S
O778 C770 1.224 . S
H779 C811 0.929 . S
H780 C813 0.930 . S
H781 C814 0.930 . S
H782 C812 0.929 . S
H783 C815 0.928 . S
O784 Co768 2.057 . S
O784 C772 1.232 . S
H785 C804 0.929 . S
H786 C805 0.929 . S
H787 C817 0.931 . S
H788 C809 0.929 . S
H789 C818 0.930 . S
H790 C810 0.931 . S
O791 Co767 2.097 . S
O791 C819 1.214 . S
H792 C820 0.929 . S
H793 C821 0.929 . S
H794 C822 0.930 . S
H795 C823 0.929 . S
H796 C825 0.930 . S
H797 C802 0.930 . S
H798 C806 0.930 . S
O799 Co768 2.037 . S
O799 C819 1.234 . S
C800 O774 1.269 . S
C800 O775 1.257 . S
C801 H776 0.930 . S
C801 C804 1.388 . S
C801 C806 1.418 . S
C802 H797 0.930 . S
C802 C805 1.404 . S
C802 C806 1.353 . S
N803 Co768 2.145 . S
N803 C804 1.397 . S
N803 C805 1.334 . S
C804 H785 0.929 . S
C804 C801 1.388 . S
C804 N803 1.397 . S
C805 H786 0.929 . S
C805 C802 1.404 . S
C805 N803 1.334 . S
C806 H798 0.930 . S
C806 C801 1.418 . S
C806 C802 1.353 . S
C807 H777 0.930 . S
C807 N808 1.330 . S
C807 C809 1.446 . S
N808 Co767 2.151 . S
N808 C807 1.330 . S
N808 C812 1.418 . S
C809 H788 0.929 . S
C809 C807 1.446 . S
C809 C810 1.332 . S
C810 H790 0.931 . S
C810 C809 1.332 . S
C810 C811 1.267 . S
C811 H779 0.929 . S
C811 C810 1.267 . S
C811 C812 1.251 . S
C812 H782 0.929 . S
C812 N808 1.418 . S
C812 C811 1.251 . S
C813 H780 0.930 . S
C813 C815 1.406 . S
C813 C818 1.261 . S
C814 H781 0.930 . S
C814 N816 1.325 . S
C814 C817 1.357 . S
C815 H783 0.928 . S
C815 C813 1.406 . S
C815 N816 1.261 . S
N816 Co767 2.214 . S
N816 C814 1.325 . S
N816 C815 1.261 . S
C817 H787 0.931 . S
C817 C814 1.357 . S
C817 C818 1.312 . S
C818 H789 0.930 . S
C818 C813 1.261 . S
C818 C817 1.312 . S
C819 O791 1.214 . S
C819 O799 1.234 . S
C820 H792 0.929 . S
C820 C823 1.391 . S
C820 C825 1.391 . S
C821 H793 0.929 . S
C821 C822 1.390 . S
C821 N824 1.391 . S
C822 H794 0.930 . S
C822 C821 1.390 . S
C822 C823 1.392 . S
C823 H795 0.929 . S
C823 C820 1.391 . S
C823 C822 1.392 . S
N824 Co768 2.257 . S
N824 C821 1.391 . S
N824 C825 1.388 . S
C825 H796 0.930 . S
C825 C820 1.391 . S
C825 N824 1.388 . S
Co826 O828 2.143 . S
Co826 O834 2.074 . S
Co826 O837 2.093 . S
Co826 O850 2.097 . S
Co826 N867 2.151 . S
Co826 N875 2.214 . S
Co827 O828 2.160 . S
Co827 O833 2.058 . S
Co827 O843 2.057 . S
Co827 O858 2.037 . S
Co827 N862 2.145 . S
Co827 N883 2.257 . S
O828 Co826 2.143 . S
O828 Co827 2.160 . S
C829 O830 1.278 . S
C829 O837 1.224 . S
O830 C829 1.278 . S
C831 O832 1.245 . S
C831 O843 1.232 . S
O832 C831 1.245 . S
O833 Co827 2.058 . S
O833 C859 1.269 . S
O834 Co826 2.074 . S
O834 C859 1.257 . S
H835 C860 0.930 . S
H836 C866 0.930 . S
O837 Co826 2.093 . S
O837 C829 1.224 . S
H838 C870 0.929 1_455 S
H839 C872 0.930 . S
H840 C873 0.930 . S
H841 C871 0.929 . S
H842 C874 0.928 . S
O843 Co827 2.057 . S
O843 C831 1.232 . S
H844 C863 0.929 . S
H845 C864 0.929 . S
H846 C876 0.931 . S
H847 C868 0.929 . S
H848 C877 0.930 . S
H849 C869 0.931 . S
O850 Co826 2.097 . S
O850 C878 1.214 . S
H851 C879 0.929 . S
H852 C880 0.929 . S
H853 C881 0.930 . S
H854 C882 0.929 . S
H855 C884 0.930 . S
H856 C861 0.930 . S
H857 C865 0.930 . S
O858 Co827 2.037 . S
O858 C878 1.234 . S
C859 O833 1.269 . S
C859 O834 1.257 . S
C860 H835 0.930 . S
C860 C863 1.388 . S
C860 C865 1.418 . S
C861 H856 0.930 . S
C861 C864 1.404 . S
C861 C865 1.353 . S
N862 Co827 2.145 . S
N862 C863 1.397 . S
N862 C864 1.334 . S
C863 H844 0.929 . S
C863 C860 1.388 . S
C863 N862 1.397 . S
C864 H845 0.929 . S
C864 C861 1.404 . S
C864 N862 1.334 . S
C865 H857 0.930 . S
C865 C860 1.418 . S
C865 C861 1.353 . S
C866 H836 0.930 . S
C866 N867 1.330 1_545 S
C866 C868 1.446 . S
N867 Co826 2.151 . S
N867 C866 1.330 1_565 S
N867 C871 1.418 . S
C868 H847 0.929 . S
C868 C866 1.446 . S
C868 C869 1.332 . S
C869 H849 0.931 . S
C869 C868 1.332 . S
C869 C870 1.267 . S
C870 H838 0.929 1_655 S
C870 C869 1.267 . S
C870 C871 1.251 1_545 S
C871 H841 0.929 . S
C871 N867 1.418 . S
C871 C870 1.251 1_565 S
C872 H839 0.930 . S
C872 C874 1.406 . S
C872 C877 1.261 . S
C873 H840 0.930 . S
C873 N875 1.325 . S
C873 C876 1.357 . S
C874 H842 0.928 . S
C874 C872 1.406 . S
C874 N875 1.261 . S
N875 Co826 2.214 . S
N875 C873 1.325 . S
N875 C874 1.261 . S
C876 H846 0.931 . S
C876 C873 1.357 . S
C876 C877 1.312 . S
C877 H848 0.930 . S
C877 C872 1.261 . S
C877 C876 1.312 . S
C878 O850 1.214 . S
C878 O858 1.234 . S
C879 H851 0.929 . S
C879 C882 1.391 . S
C879 C884 1.391 . S
C880 H852 0.929 . S
C880 C881 1.390 . S
C880 N883 1.391 . S
C881 H853 0.930 . S
C881 C880 1.390 . S
C881 C882 1.392 . S
C882 H854 0.929 . S
C882 C879 1.391 . S
C882 C881 1.392 . S
N883 Co827 2.257 . S
N883 C880 1.391 . S
N883 C884 1.388 . S
C884 H855 0.930 . S
C884 C879 1.391 . S
C884 N883 1.388 . S
Co885 O887 2.143 . S
Co885 O893 2.074 . S
Co885 O896 2.093 . S
Co885 O909 2.097 . S
Co885 N926 2.151 . S
Co885 N934 2.214 . S
Co886 O887 2.160 . S
Co886 O892 2.058 . S
Co886 O902 2.057 . S
Co886 O917 2.037 . S
Co886 N921 2.145 . S
Co886 N942 2.257 . S
O887 Co885 2.143 . S
O887 Co886 2.160 . S
C888 O889 1.278 . S
C888 O896 1.224 . S
O889 C888 1.278 . S
C890 O891 1.245 . S
C890 O902 1.232 . S
O891 C890 1.245 . S
O892 Co886 2.058 . S
O892 C918 1.269 . S
O893 Co885 2.074 . S
O893 C918 1.257 . S
H894 C919 0.930 . S
H895 C925 0.930 . S
O896 Co885 2.093 . S
O896 C888 1.224 . S
H897 C929 0.929 . S
H898 C931 0.930 . S
H899 C932 0.930 . S
H900 C930 0.929 . S
H901 C933 0.928 . S
O902 Co886 2.057 . S
O902 C890 1.232 . S
H903 C922 0.929 . S
H904 C923 0.929 . S
H905 C935 0.931 . S
H906 C927 0.929 . S
H907 C936 0.930 . S
H908 C928 0.931 . S
O909 Co885 2.097 . S
O909 C937 1.214 . S
H910 C938 0.929 . S
H911 C939 0.929 . S
H912 C940 0.930 . S
H913 C941 0.929 . S
H914 C943 0.930 . S
H915 C920 0.930 . S
H916 C924 0.930 . S
O917 Co886 2.037 . S
O917 C937 1.234 . S
C918 O892 1.269 . S
C918 O893 1.257 . S
C919 H894 0.930 . S
C919 C922 1.388 . S
C919 C924 1.418 . S
C920 H915 0.930 . S
C920 C923 1.404 . S
C920 C924 1.353 . S
N921 Co886 2.145 . S
N921 C922 1.397 . S
N921 C923 1.334 . S
C922 H903 0.929 . S
C922 C919 1.388 . S
C922 N921 1.397 . S
C923 H904 0.929 . S
C923 C920 1.404 . S
C923 N921 1.334 . S
C924 H916 0.930 . S
C924 C919 1.418 . S
C924 C920 1.353 . S
C925 H895 0.930 . S
C925 N926 1.330 . S
C925 C927 1.446 . S
N926 Co885 2.151 . S
N926 C925 1.330 . S
N926 C930 1.418 . S
C927 H906 0.929 . S
C927 C925 1.446 . S
C927 C928 1.332 . S
C928 H908 0.931 . S
C928 C927 1.332 . S
C928 C929 1.267 . S
C929 H897 0.929 . S
C929 C928 1.267 . S
C929 C930 1.251 . S
C930 H900 0.929 . S
C930 N926 1.418 . S
C930 C929 1.251 . S
C931 H898 0.930 . S
C931 C933 1.406 . S
C931 C936 1.261 . S
C932 H899 0.930 . S
C932 N934 1.325 . S
C932 C935 1.357 . S
C933 H901 0.928 . S
C933 C931 1.406 . S
C933 N934 1.261 . S
N934 Co885 2.214 . S
N934 C932 1.325 . S
N934 C933 1.261 . S
C935 H905 0.931 . S
C935 C932 1.357 . S
C935 C936 1.312 . S
C936 H907 0.930 . S
C936 C931 1.261 . S
C936 C935 1.312 . S
C937 O909 1.214 . S
C937 O917 1.234 . S
C938 H910 0.929 . S
C938 C941 1.391 . S
C938 C943 1.391 . S
C939 H911 0.929 . S
C939 C940 1.390 . S
C939 N942 1.391 . S
C940 H912 0.930 . S
C940 C939 1.390 . S
C940 C941 1.392 . S
C941 H913 0.929 . S
C941 C938 1.391 . S
C941 C940 1.392 . S
N942 Co886 2.257 . S
N942 C939 1.391 . S
N942 C943 1.388 . S
C943 H914 0.930 . S
C943 C938 1.391 . S
C943 N942 1.388 . S
Co944 O946 2.143 . S
Co944 O952 2.074 . S
Co944 O955 2.093 . S
Co944 O968 2.097 . S
Co944 N985 2.151 . S
Co944 N993 2.214 . S
Co945 O946 2.160 . S
Co945 O951 2.058 . S
Co945 O961 2.057 . S
Co945 O976 2.037 . S
Co945 N980 2.145 . S
Co945 N1001 2.257 . S
O946 Co944 2.143 . S
O946 Co945 2.160 . S
C947 O948 1.278 . S
C947 O955 1.224 . S
O948 C947 1.278 . S
C949 O950 1.245 . S
C949 O961 1.232 . S
O950 C949 1.245 . S
O951 Co945 2.058 . S
O951 C977 1.269 . S
O952 Co944 2.074 . S
O952 C977 1.257 . S
H953 C978 0.930 . S
H954 C984 0.930 . S
O955 Co944 2.093 . S
O955 C947 1.224 . S
H956 C988 0.929 1_455 S
H957 C990 0.930 . S
H958 C991 0.930 . S
H959 C989 0.929 . S
H960 C992 0.928 . S
O961 Co945 2.057 . S
O961 C949 1.232 . S
H962 C981 0.929 . S
H963 C982 0.929 . S
H964 C994 0.931 . S
H965 C986 0.929 . S
H966 C995 0.930 . S
H967 C987 0.931 . S
O968 Co944 2.097 . S
O968 C996 1.214 . S
H969 C997 0.929 . S
H970 C998 0.929 . S
H971 C999 0.930 . S
H972 C1000 0.929 . S
H973 C1002 0.930 . S
H974 C979 0.930 . S
H975 C983 0.930 . S
O976 Co945 2.037 . S
O976 C996 1.234 . S
C977 O951 1.269 . S
C977 O952 1.257 . S
C978 H953 0.930 . S
C978 C981 1.388 . S
C978 C983 1.418 . S
C979 H974 0.930 . S
C979 C982 1.404 . S
C979 C983 1.353 . S
N980 Co945 2.145 . S
N980 C981 1.397 . S
N980 C982 1.334 . S
C981 H962 0.929 . S
C981 C978 1.388 . S
C981 N980 1.397 . S
C982 H963 0.929 . S
C982 C979 1.404 . S
C982 N980 1.334 . S
C983 H975 0.930 . S
C983 C978 1.418 . S
C983 C979 1.353 . S
C984 H954 0.930 . S
C984 N985 1.330 . S
C984 C986 1.446 . S
N985 Co944 2.151 . S
N985 C984 1.330 . S
N985 C989 1.418 . S
C986 H965 0.929 . S
C986 C984 1.446 . S
C986 C987 1.332 . S
C987 H967 0.931 . S
C987 C986 1.332 . S
C987 C988 1.267 . S
C988 H956 0.929 1_655 S
C988 C987 1.267 . S
C988 C989 1.251 . S
C989 H959 0.929 . S
C989 N985 1.418 . S
C989 C988 1.251 . S
C990 H957 0.930 . S
C990 C992 1.406 . S
C990 C995 1.261 . S
C991 H958 0.930 . S
C991 N993 1.325 . S
C991 C994 1.357 . S
C992 H960 0.928 . S
C992 C990 1.406 . S
C992 N993 1.261 . S
N993 Co944 2.214 . S
N993 C991 1.325 . S
N993 C992 1.261 . S
C994 H964 0.931 . S
C994 C991 1.357 . S
C994 C995 1.312 . S
C995 H966 0.930 . S
C995 C990 1.261 . S
C995 C994 1.312 . S
C996 O968 1.214 . S
C996 O976 1.234 . S
C997 H969 0.929 . S
C997 C1000 1.391 . S
C997 C1002 1.391 . S
C998 H970 0.929 . S
C998 C999 1.390 . S
C998 N1001 1.391 . S
C999 H971 0.930 . S
C999 C998 1.390 . S
C999 C1000 1.392 . S
C1000 H972 0.929 . S
C1000 C997 1.391 . S
C1000 C999 1.392 . S
N1001 Co945 2.257 . S
N1001 C998 1.391 . S
N1001 C1002 1.388 . S
C1002 H973 0.930 . S
C1002 C997 1.391 . S
C1002 N1001 1.388 . S
Co1003 O1005 2.143 . S
Co1003 O1011 2.074 . S
Co1003 O1014 2.093 . S
Co1003 O1027 2.097 . S
Co1003 N1044 2.151 . S
Co1003 N1052 2.214 . S
Co1004 O1005 2.160 . S
Co1004 O1010 2.058 . S
Co1004 O1020 2.057 . S
Co1004 O1035 2.037 . S
Co1004 N1039 2.145 . S
Co1004 N1060 2.257 . S
O1005 Co1003 2.143 . S
O1005 Co1004 2.160 . S
C1006 O1007 1.278 . S
C1006 O1014 1.224 . S
O1007 C1006 1.278 . S
C1008 O1009 1.245 . S
C1008 O1020 1.232 . S
O1009 C1008 1.245 . S
O1010 Co1004 2.058 . S
O1010 C1036 1.269 . S
O1011 Co1003 2.074 . S
O1011 C1036 1.257 . S
H1012 C1037 0.930 . S
H1013 C1043 0.930 . S
O1014 Co1003 2.093 . S
O1014 C1006 1.224 . S
H1015 C1047 0.929 . S
H1016 C1049 0.930 . S
H1017 C1050 0.930 . S
H1018 C1048 0.929 . S
H1019 C1051 0.928 . S
O1020 Co1004 2.057 . S
O1020 C1008 1.232 . S
H1021 C1040 0.929 . S
H1022 C1041 0.929 . S
H1023 C1053 0.931 . S
H1024 C1045 0.929 . S
H1025 C1054 0.930 . S
H1026 C1046 0.931 . S
O1027 Co1003 2.097 . S
O1027 C1055 1.214 . S
H1028 C1056 0.929 . S
H1029 C1057 0.929 . S
H1030 C1058 0.930 . S
H1031 C1059 0.929 . S
H1032 C1061 0.930 . S
H1033 C1038 0.930 . S
H1034 C1042 0.930 . S
O1035 Co1004 2.037 . S
O1035 C1055 1.234 . S
C1036 O1010 1.269 . S
C1036 O1011 1.257 . S
C1037 H1012 0.930 . S
C1037 C1040 1.388 . S
C1037 C1042 1.418 . S
C1038 H1033 0.930 . S
C1038 C1041 1.404 . S
C1038 C1042 1.353 . S
N1039 Co1004 2.145 . S
N1039 C1040 1.397 . S
N1039 C1041 1.334 . S
C1040 H1021 0.929 . S
C1040 C1037 1.388 . S
C1040 N1039 1.397 . S
C1041 H1022 0.929 . S
C1041 C1038 1.404 . S
C1041 N1039 1.334 . S
C1042 H1034 0.930 . S
C1042 C1037 1.418 . S
C1042 C1038 1.353 . S
C1043 H1013 0.930 . S
C1043 N1044 1.330 . S
C1043 C1045 1.446 . S
N1044 Co1003 2.151 . S
N1044 C1043 1.330 . S
N1044 C1048 1.418 . S
C1045 H1024 0.929 . S
C1045 C1043 1.446 . S
C1045 C1046 1.332 . S
C1046 H1026 0.931 . S
C1046 C1045 1.332 . S
C1046 C1047 1.267 . S
C1047 H1015 0.929 . S
C1047 C1046 1.267 . S
C1047 C1048 1.251 . S
C1048 H1018 0.929 . S
C1048 N1044 1.418 . S
C1048 C1047 1.251 . S
C1049 H1016 0.930 . S
C1049 C1051 1.406 . S
C1049 C1054 1.261 . S
C1050 H1017 0.930 . S
C1050 N1052 1.325 . S
C1050 C1053 1.357 . S
C1051 H1019 0.928 . S
C1051 C1049 1.406 . S
C1051 N1052 1.261 . S
N1052 Co1003 2.214 . S
N1052 C1050 1.325 . S
N1052 C1051 1.261 . S
C1053 H1023 0.931 . S
C1053 C1050 1.357 . S
C1053 C1054 1.312 . S
C1054 H1025 0.930 . S
C1054 C1049 1.261 . S
C1054 C1053 1.312 . S
C1055 O1027 1.214 . S
C1055 O1035 1.234 . S
C1056 H1028 0.929 . S
C1056 C1059 1.391 . S
C1056 C1061 1.391 . S
C1057 H1029 0.929 . S
C1057 C1058 1.390 . S
C1057 N1060 1.391 . S
C1058 H1030 0.930 . S
C1058 C1057 1.390 . S
C1058 C1059 1.392 . S
C1059 H1031 0.929 . S
C1059 C1056 1.391 . S
C1059 C1058 1.392 . S
N1060 Co1004 2.257 . S
N1060 C1057 1.391 . S
N1060 C1061 1.388 . S
C1061 H1032 0.930 . S
C1061 C1056 1.391 . S
C1061 N1060 1.388 . S
Co1062 O1064 2.143 . S
Co1062 O1070 2.074 . S
Co1062 O1073 2.093 . S
Co1062 O1086 2.097 . S
Co1062 N1103 2.151 . S
Co1062 N1111 2.214 . S
Co1063 O1064 2.160 . S
Co1063 O1069 2.058 . S
Co1063 O1079 2.057 . S
Co1063 O1094 2.037 . S
Co1063 N1098 2.145 . S
Co1063 N1119 2.257 . S
O1064 Co1062 2.143 . S
O1064 Co1063 2.160 . S
C1065 O1066 1.278 . S
C1065 O1073 1.224 . S
O1066 C1065 1.278 . S
C1067 O1068 1.245 . S
C1067 O1079 1.232 . S
O1068 C1067 1.245 . S
O1069 Co1063 2.058 . S
O1069 C1095 1.269 . S
O1070 Co1062 2.074 . S
O1070 C1095 1.257 . S
H1071 C1096 0.930 . S
H1072 C1102 0.930 . S
O1073 Co1062 2.093 . S
O1073 C1065 1.224 . S
H1074 C1106 0.929 . S
H1075 C1108 0.930 . S
H1076 C1109 0.930 . S
H1077 C1107 0.929 . S
H1078 C1110 0.928 . S
O1079 Co1063 2.057 . S
O1079 C1067 1.232 . S
H1080 C1099 0.929 . S
H1081 C1100 0.929 . S
H1082 C1112 0.931 . S
H1083 C1104 0.929 . S
H1084 C1113 0.930 . S
H1085 C1105 0.931 . S
O1086 Co1062 2.097 . S
O1086 C1114 1.214 . S
H1087 C1115 0.929 . S
H1088 C1116 0.929 . S
H1089 C1117 0.930 . S
H1090 C1118 0.929 . S
H1091 C1120 0.930 . S
H1092 C1097 0.930 . S
H1093 C1101 0.930 . S
O1094 Co1063 2.037 . S
O1094 C1114 1.234 . S
C1095 O1069 1.269 . S
C1095 O1070 1.257 . S
C1096 H1071 0.930 . S
C1096 C1099 1.388 . S
C1096 C1101 1.418 . S
C1097 H1092 0.930 . S
C1097 C1100 1.404 . S
C1097 C1101 1.353 . S
N1098 Co1063 2.145 . S
N1098 C1099 1.397 . S
N1098 C1100 1.334 . S
C1099 H1080 0.929 . S
C1099 C1096 1.388 . S
C1099 N1098 1.397 . S
C1100 H1081 0.929 . S
C1100 C1097 1.404 . S
C1100 N1098 1.334 . S
C1101 H1093 0.930 . S
C1101 C1096 1.418 . S
C1101 C1097 1.353 . S
C1102 H1072 0.930 . S
C1102 N1103 1.330 . S
C1102 C1104 1.446 . S
N1103 Co1062 2.151 . S
N1103 C1102 1.330 . S
N1103 C1107 1.418 . S
C1104 H1083 0.929 . S
C1104 C1102 1.446 . S
C1104 C1105 1.332 . S
C1105 H1085 0.931 . S
C1105 C1104 1.332 . S
C1105 C1106 1.267 . S
C1106 H1074 0.929 . S
C1106 C1105 1.267 . S
C1106 C1107 1.251 . S
C1107 H1077 0.929 . S
C1107 N1103 1.418 . S
C1107 C1106 1.251 . S
C1108 H1075 0.930 . S
C1108 C1110 1.406 . S
C1108 C1113 1.261 . S
C1109 H1076 0.930 . S
C1109 N1111 1.325 . S
C1109 C1112 1.357 . S
C1110 H1078 0.928 . S
C1110 C1108 1.406 . S
C1110 N1111 1.261 . S
N1111 Co1062 2.214 . S
N1111 C1109 1.325 . S
N1111 C1110 1.261 . S
C1112 H1082 0.931 . S
C1112 C1109 1.357 . S
C1112 C1113 1.312 . S
C1113 H1084 0.930 . S
C1113 C1108 1.261 . S
C1113 C1112 1.312 . S
C1114 O1086 1.214 . S
C1114 O1094 1.234 . S
C1115 H1087 0.929 . S
C1115 C1118 1.391 . S
C1115 C1120 1.391 . S
C1116 H1088 0.929 . S
C1116 C1117 1.390 . S
C1116 N1119 1.391 . S
C1117 H1089 0.930 . S
C1117 C1116 1.390 . S
C1117 C1118 1.392 . S
C1118 H1090 0.929 . S
C1118 C1115 1.391 . S
C1118 C1117 1.392 . S
N1119 Co1063 2.257 . S
N1119 C1116 1.391 . S
N1119 C1120 1.388 . S
C1120 H1091 0.930 . S
C1120 C1115 1.391 . S
C1120 N1119 1.388 . S
Co1121 O1123 2.143 . S
Co1121 O1129 2.074 . S
Co1121 O1132 2.093 . S
Co1121 O1145 2.097 . S
Co1121 N1162 2.151 . S
Co1121 N1170 2.214 . S
Co1122 O1123 2.160 . S
Co1122 O1128 2.058 . S
Co1122 O1138 2.057 . S
Co1122 O1153 2.037 . S
Co1122 N1157 2.145 . S
Co1122 N1178 2.257 . S
O1123 Co1121 2.143 . S
O1123 Co1122 2.160 . S
C1124 O1125 1.278 . S
C1124 O1132 1.224 . S
O1125 C1124 1.278 . S
C1126 O1127 1.245 . S
C1126 O1138 1.232 . S
O1127 C1126 1.245 . S
O1128 Co1122 2.058 . S
O1128 C1154 1.269 . S
O1129 Co1121 2.074 . S
O1129 C1154 1.257 . S
H1130 C1155 0.930 . S
H1131 C1161 0.930 . S
O1132 Co1121 2.093 . S
O1132 C1124 1.224 . S
H1133 C1165 0.929 . S
H1134 C1167 0.930 . S
H1135 C1168 0.930 . S
H1136 C1166 0.929 . S
H1137 C1169 0.928 . S
O1138 Co1122 2.057 . S
O1138 C1126 1.232 . S
H1139 C1158 0.929 . S
H1140 C1159 0.929 . S
H1141 C1171 0.931 . S
H1142 C1163 0.929 . S
H1143 C1172 0.930 . S
H1144 C1164 0.931 . S
O1145 Co1121 2.097 . S
O1145 C1173 1.214 . S
H1146 C1174 0.929 . S
H1147 C1175 0.929 . S
H1148 C1176 0.930 . S
H1149 C1177 0.929 . S
H1150 C1179 0.930 . S
H1151 C1156 0.930 . S
H1152 C1160 0.930 . S
O1153 Co1122 2.037 . S
O1153 C1173 1.234 . S
C1154 O1128 1.269 . S
C1154 O1129 1.257 . S
C1155 H1130 0.930 . S
C1155 C1158 1.388 . S
C1155 C1160 1.418 . S
C1156 H1151 0.930 . S
C1156 C1159 1.404 . S
C1156 C1160 1.353 . S
N1157 Co1122 2.145 . S
N1157 C1158 1.397 . S
N1157 C1159 1.334 . S
C1158 H1139 0.929 . S
C1158 C1155 1.388 . S
C1158 N1157 1.397 . S
C1159 H1140 0.929 . S
C1159 C1156 1.404 . S
C1159 N1157 1.334 . S
C1160 H1152 0.930 . S
C1160 C1155 1.418 . S
C1160 C1156 1.353 . S
C1161 H1131 0.930 . S
C1161 N1162 1.330 . S
C1161 C1163 1.446 . S
N1162 Co1121 2.151 . S
N1162 C1161 1.330 . S
N1162 C1166 1.418 . S
C1163 H1142 0.929 . S
C1163 C1161 1.446 . S
C1163 C1164 1.332 . S
C1164 H1144 0.931 . S
C1164 C1163 1.332 . S
C1164 C1165 1.267 . S
C1165 H1133 0.929 . S
C1165 C1164 1.267 . S
C1165 C1166 1.251 . S
C1166 H1136 0.929 . S
C1166 N1162 1.418 . S
C1166 C1165 1.251 . S
C1167 H1134 0.930 . S
C1167 C1169 1.406 . S
C1167 C1172 1.261 . S
C1168 H1135 0.930 . S
C1168 N1170 1.325 . S
C1168 C1171 1.357 . S
C1169 H1137 0.928 . S
C1169 C1167 1.406 . S
C1169 N1170 1.261 . S
N1170 Co1121 2.214 . S
N1170 C1168 1.325 . S
N1170 C1169 1.261 . S
C1171 H1141 0.931 . S
C1171 C1168 1.357 . S
C1171 C1172 1.312 . S
C1172 H1143 0.930 . S
C1172 C1167 1.261 . S
C1172 C1171 1.312 . S
C1173 O1145 1.214 . S
C1173 O1153 1.234 . S
C1174 H1146 0.929 . S
C1174 C1177 1.391 . S
C1174 C1179 1.391 . S
C1175 H1147 0.929 . S
C1175 C1176 1.390 . S
C1175 N1178 1.391 . S
C1176 H1148 0.930 . S
C1176 C1175 1.390 . S
C1176 C1177 1.392 . S
C1177 H1149 0.929 . S
C1177 C1174 1.391 . S
C1177 C1176 1.392 . S
N1178 Co1122 2.257 . S
N1178 C1175 1.391 . S
N1178 C1179 1.388 . S
C1179 H1150 0.930 . S
C1179 C1174 1.391 . S
C1179 N1178 1.388 . S
Co1180 O1182 2.143 . S
Co1180 O1188 2.074 . S
Co1180 O1191 2.093 . S
Co1180 O1204 2.097 . S
Co1180 N1221 2.151 . S
Co1180 N1229 2.214 . S
Co1181 O1182 2.160 . S
Co1181 O1187 2.058 . S
Co1181 O1197 2.057 . S
Co1181 O1212 2.037 . S
Co1181 N1216 2.145 . S
Co1181 N1237 2.257 . S
O1182 Co1180 2.143 . S
O1182 Co1181 2.160 . S
C1183 O1184 1.278 . S
C1183 O1191 1.224 . S
O1184 C1183 1.278 . S
C1185 O1186 1.245 . S
C1185 O1197 1.232 . S
O1186 C1185 1.245 . S
O1187 Co1181 2.058 . S
O1187 C1213 1.269 . S
O1188 Co1180 2.074 . S
O1188 C1213 1.257 . S
H1189 C1214 0.930 . S
H1190 C1220 0.930 . S
O1191 Co1180 2.093 . S
O1191 C1183 1.224 . S
H1192 C1224 0.929 1_455 S
H1193 C1226 0.930 . S
H1194 C1227 0.930 . S
H1195 C1225 0.929 . S
H1196 C1228 0.928 . S
O1197 Co1181 2.057 . S
O1197 C1185 1.232 . S
H1198 C1217 0.929 . S
H1199 C1218 0.929 . S
H1200 C1230 0.931 . S
H1201 C1222 0.929 . S
H1202 C1231 0.930 . S
H1203 C1223 0.931 . S
O1204 Co1180 2.097 . S
O1204 C1232 1.214 . S
H1205 C1233 0.929 . S
H1206 C1234 0.929 . S
H1207 C1235 0.930 . S
H1208 C1236 0.929 . S
H1209 C1238 0.930 . S
H1210 C1215 0.930 . S
H1211 C1219 0.930 . S
O1212 Co1181 2.037 . S
O1212 C1232 1.234 . S
C1213 O1187 1.269 . S
C1213 O1188 1.257 . S
C1214 H1189 0.930 . S
C1214 C1217 1.388 . S
C1214 C1219 1.418 . S
C1215 H1210 0.930 . S
C1215 C1218 1.404 . S
C1215 C1219 1.353 . S
N1216 Co1181 2.145 . S
N1216 C1217 1.397 . S
N1216 C1218 1.334 . S
C1217 H1198 0.929 . S
C1217 C1214 1.388 . S
C1217 N1216 1.397 . S
C1218 H1199 0.929 . S
C1218 C1215 1.404 . S
C1218 N1216 1.334 . S
C1219 H1211 0.930 . S
C1219 C1214 1.418 . S
C1219 C1215 1.353 . S
C1220 H1190 0.930 . S
C1220 N1221 1.330 . S
C1220 C1222 1.446 . S
N1221 Co1180 2.151 . S
N1221 C1220 1.330 . S
N1221 C1225 1.418 . S
C1222 H1201 0.929 . S
C1222 C1220 1.446 . S
C1222 C1223 1.332 . S
C1223 H1203 0.931 . S
C1223 C1222 1.332 . S
C1223 C1224 1.267 . S
C1224 H1192 0.929 1_655 S
C1224 C1223 1.267 . S
C1224 C1225 1.251 . S
C1225 H1195 0.929 . S
C1225 N1221 1.418 . S
C1225 C1224 1.251 . S
C1226 H1193 0.930 . S
C1226 C1228 1.406 . S
C1226 C1231 1.261 . S
C1227 H1194 0.930 . S
C1227 N1229 1.325 . S
C1227 C1230 1.357 . S
C1228 H1196 0.928 . S
C1228 C1226 1.406 . S
C1228 N1229 1.261 . S
N1229 Co1180 2.214 . S
N1229 C1227 1.325 . S
N1229 C1228 1.261 . S
C1230 H1200 0.931 . S
C1230 C1227 1.357 . S
C1230 C1231 1.312 . S
C1231 H1202 0.930 . S
C1231 C1226 1.261 . S
C1231 C1230 1.312 . S
C1232 O1204 1.214 . S
C1232 O1212 1.234 . S
C1233 H1205 0.929 . S
C1233 C1236 1.391 . S
C1233 C1238 1.391 . S
C1234 H1206 0.929 . S
C1234 C1235 1.390 . S
C1234 N1237 1.391 . S
C1235 H1207 0.930 . S
C1235 C1234 1.390 . S
C1235 C1236 1.392 . S
C1236 H1208 0.929 . S
C1236 C1233 1.391 . S
C1236 C1235 1.392 . S
N1237 Co1181 2.257 . S
N1237 C1234 1.391 . S
N1237 C1238 1.388 . S
C1238 H1209 0.930 . S
C1238 C1233 1.391 . S
C1238 N1237 1.388 . S
Co1239 O1241 2.143 . S
Co1239 O1247 2.074 . S
Co1239 O1250 2.093 . S
Co1239 O1263 2.097 . S
Co1239 N1280 2.151 . S
Co1239 N1288 2.214 . S
Co1240 O1241 2.160 . S
Co1240 O1246 2.058 . S
Co1240 O1256 2.057 . S
Co1240 O1271 2.037 . S
Co1240 N1275 2.145 . S
Co1240 N1296 2.257 . S
O1241 Co1239 2.143 . S
O1241 Co1240 2.160 . S
C1242 O1243 1.278 . S
C1242 O1250 1.224 . S
O1243 C1242 1.278 . S
C1244 O1245 1.245 . S
C1244 O1256 1.232 . S
O1245 C1244 1.245 . S
O1246 Co1240 2.058 . S
O1246 C1272 1.269 . S
O1247 Co1239 2.074 . S
O1247 C1272 1.257 . S
H1248 C1273 0.930 . S
H1249 C1279 0.930 . S
O1250 Co1239 2.093 . S
O1250 C1242 1.224 . S
H1251 C1283 0.929 . S
H1252 C1285 0.930 . S
H1253 C1286 0.930 . S
H1254 C1284 0.929 . S
H1255 C1287 0.928 . S
O1256 Co1240 2.057 . S
O1256 C1244 1.232 . S
H1257 C1276 0.929 . S
H1258 C1277 0.929 . S
H1259 C1289 0.931 . S
H1260 C1281 0.929 . S
H1261 C1290 0.930 . S
H1262 C1282 0.931 . S
O1263 Co1239 2.097 . S
O1263 C1291 1.214 . S
H1264 C1292 0.929 . S
H1265 C1293 0.929 . S
H1266 C1294 0.930 . S
H1267 C1295 0.929 . S
H1268 C1297 0.930 . S
H1269 C1274 0.930 . S
H1270 C1278 0.930 . S
O1271 Co1240 2.037 . S
O1271 C1291 1.234 . S
C1272 O1246 1.269 . S
C1272 O1247 1.257 . S
C1273 H1248 0.930 . S
C1273 C1276 1.388 . S
C1273 C1278 1.418 . S
C1274 H1269 0.930 . S
C1274 C1277 1.404 . S
C1274 C1278 1.353 . S
N1275 Co1240 2.145 . S
N1275 C1276 1.397 . S
N1275 C1277 1.334 . S
C1276 H1257 0.929 . S
C1276 C1273 1.388 . S
C1276 N1275 1.397 . S
C1277 H1258 0.929 . S
C1277 C1274 1.404 . S
C1277 N1275 1.334 . S
C1278 H1270 0.930 . S
C1278 C1273 1.418 . S
C1278 C1274 1.353 . S
C1279 H1249 0.930 . S
C1279 N1280 1.330 . S
C1279 C1281 1.446 . S
N1280 Co1239 2.151 . S
N1280 C1279 1.330 . S
N1280 C1284 1.418 . S
C1281 H1260 0.929 . S
C1281 C1279 1.446 . S
C1281 C1282 1.332 . S
C1282 H1262 0.931 . S
C1282 C1281 1.332 . S
C1282 C1283 1.267 . S
C1283 H1251 0.929 . S
C1283 C1282 1.267 . S
C1283 C1284 1.251 . S
C1284 H1254 0.929 . S
C1284 N1280 1.418 . S
C1284 C1283 1.251 . S
C1285 H1252 0.930 . S
C1285 C1287 1.406 . S
C1285 C1290 1.261 . S
C1286 H1253 0.930 . S
C1286 N1288 1.325 . S
C1286 C1289 1.357 . S
C1287 H1255 0.928 . S
C1287 C1285 1.406 . S
C1287 N1288 1.261 . S
N1288 Co1239 2.214 . S
N1288 C1286 1.325 . S
N1288 C1287 1.261 . S
C1289 H1259 0.931 . S
C1289 C1286 1.357 . S
C1289 C1290 1.312 . S
C1290 H1261 0.930 . S
C1290 C1285 1.261 . S
C1290 C1289 1.312 . S
C1291 O1263 1.214 . S
C1291 O1271 1.234 . S
C1292 H1264 0.929 . S
C1292 C1295 1.391 . S
C1292 C1297 1.391 . S
C1293 H1265 0.929 . S
C1293 C1294 1.390 . S
C1293 N1296 1.391 . S
C1294 H1266 0.930 . S
C1294 C1293 1.390 . S
C1294 C1295 1.392 . S
C1295 H1267 0.929 . S
C1295 C1292 1.391 . S
C1295 C1294 1.392 . S
N1296 Co1240 2.257 . S
N1296 C1293 1.391 . S
N1296 C1297 1.388 . S
C1297 H1268 0.930 . S
C1297 C1292 1.391 . S
C1297 N1296 1.388 . S
Co1298 O1300 2.143 . S
Co1298 O1306 2.074 . S
Co1298 O1309 2.093 . S
Co1298 O1322 2.097 . S
Co1298 N1339 2.151 . S
Co1298 N1347 2.214 . S
Co1299 O1300 2.160 . S
Co1299 O1305 2.058 . S
Co1299 O1315 2.057 . S
Co1299 O1330 2.037 . S
Co1299 N1334 2.145 . S
Co1299 N1355 2.257 . S
O1300 Co1298 2.143 . S
O1300 Co1299 2.160 . S
C1301 O1302 1.278 . S
C1301 O1309 1.224 . S
O1302 C1301 1.278 . S
C1303 O1304 1.245 . S
C1303 O1315 1.232 . S
O1304 C1303 1.245 . S
O1305 Co1299 2.058 . S
O1305 C1331 1.269 . S
O1306 Co1298 2.074 . S
O1306 C1331 1.257 . S
H1307 C1332 0.930 . S
H1308 C1338 0.930 . S
O1309 Co1298 2.093 . S
O1309 C1301 1.224 . S
H1310 C1342 0.929 . S
H1311 C1344 0.930 . S
H1312 C1345 0.930 . S
H1313 C1343 0.929 . S
H1314 C1346 0.928 . S
O1315 Co1299 2.057 . S
O1315 C1303 1.232 . S
H1316 C1335 0.929 . S
H1317 C1336 0.929 . S
H1318 C1348 0.931 . S
H1319 C1340 0.929 . S
H1320 C1349 0.930 . S
H1321 C1341 0.931 . S
O1322 Co1298 2.097 . S
O1322 C1350 1.214 . S
H1323 C1351 0.929 . S
H1324 C1352 0.929 . S
H1325 C1353 0.930 . S
H1326 C1354 0.929 . S
H1327 C1356 0.930 . S
H1328 C1333 0.930 . S
H1329 C1337 0.930 . S
O1330 Co1299 2.037 . S
O1330 C1350 1.234 . S
C1331 O1305 1.269 . S
C1331 O1306 1.257 . S
C1332 H1307 0.930 . S
C1332 C1335 1.388 . S
C1332 C1337 1.418 . S
C1333 H1328 0.930 . S
C1333 C1336 1.404 . S
C1333 C1337 1.353 . S
N1334 Co1299 2.145 . S
N1334 C1335 1.397 . S
N1334 C1336 1.334 . S
C1335 H1316 0.929 . S
C1335 C1332 1.388 . S
C1335 N1334 1.397 . S
C1336 H1317 0.929 . S
C1336 C1333 1.404 . S
C1336 N1334 1.334 . S
C1337 H1329 0.930 . S
C1337 C1332 1.418 . S
C1337 C1333 1.353 . S
C1338 H1308 0.930 . S
C1338 N1339 1.330 . S
C1338 C1340 1.446 . S
N1339 Co1298 2.151 . S
N1339 C1338 1.330 . S
N1339 C1343 1.418 . S
C1340 H1319 0.929 . S
C1340 C1338 1.446 . S
C1340 C1341 1.332 . S
C1341 H1321 0.931 . S
C1341 C1340 1.332 . S
C1341 C1342 1.267 . S
C1342 H1310 0.929 . S
C1342 C1341 1.267 . S
C1342 C1343 1.251 . S
C1343 H1313 0.929 . S
C1343 N1339 1.418 . S
C1343 C1342 1.251 . S
C1344 H1311 0.930 . S
C1344 C1346 1.406 . S
C1344 C1349 1.261 . S
C1345 H1312 0.930 . S
C1345 N1347 1.325 . S
C1345 C1348 1.357 . S
C1346 H1314 0.928 . S
C1346 C1344 1.406 . S
C1346 N1347 1.261 . S
N1347 Co1298 2.214 . S
N1347 C1345 1.325 . S
N1347 C1346 1.261 . S
C1348 H1318 0.931 . S
C1348 C1345 1.357 . S
C1348 C1349 1.312 . S
C1349 H1320 0.930 . S
C1349 C1344 1.261 . S
C1349 C1348 1.312 . S
C1350 O1322 1.214 . S
C1350 O1330 1.234 . S
C1351 H1323 0.929 . S
C1351 C1354 1.391 . S
C1351 C1356 1.391 . S
C1352 H1324 0.929 . S
C1352 C1353 1.390 . S
C1352 N1355 1.391 . S
C1353 H1325 0.930 . S
C1353 C1352 1.390 . S
C1353 C1354 1.392 . S
C1354 H1326 0.929 . S
C1354 C1351 1.391 . S
C1354 C1353 1.392 . S
N1355 Co1299 2.257 . S
N1355 C1352 1.391 . S
N1355 C1356 1.388 . S
C1356 H1327 0.930 . S
C1356 C1351 1.391 . S
C1356 N1355 1.388 . S
Co1357 O1359 2.143 . S
Co1357 O1365 2.074 . S
Co1357 O1368 2.093 . S
Co1357 O1381 2.097 . S
Co1357 N1398 2.151 . S
Co1357 N1406 2.214 . S
Co1358 O1359 2.160 . S
Co1358 O1364 2.058 . S
Co1358 O1374 2.057 . S
Co1358 O1389 2.037 . S
Co1358 N1393 2.145 . S
Co1358 N1414 2.257 . S
O1359 Co1357 2.143 . S
O1359 Co1358 2.160 . S
C1360 O1361 1.278 . S
C1360 O1368 1.224 . S
O1361 C1360 1.278 . S
C1362 O1363 1.245 . S
C1362 O1374 1.232 . S
O1363 C1362 1.245 . S
O1364 Co1358 2.058 . S
O1364 C1390 1.269 . S
O1365 Co1357 2.074 . S
O1365 C1390 1.257 . S
H1366 C1391 0.930 . S
H1367 C1397 0.930 . S
O1368 Co1357 2.093 . S
O1368 C1360 1.224 . S
H1369 C1401 0.929 . S
H1370 C1403 0.930 . S
H1371 C1404 0.930 . S
H1372 C1402 0.929 . S
H1373 C1405 0.928 . S
O1374 Co1358 2.057 . S
O1374 C1362 1.232 . S
H1375 C1394 0.929 . S
H1376 C1395 0.929 . S
H1377 C1407 0.931 . S
H1378 C1399 0.929 . S
H1379 C1408 0.930 . S
H1380 C1400 0.931 . S
O1381 Co1357 2.097 . S
O1381 C1409 1.214 . S
H1382 C1410 0.929 . S
H1383 C1411 0.929 . S
H1384 C1412 0.930 . S
H1385 C1413 0.929 . S
H1386 C1415 0.930 . S
H1387 C1392 0.930 . S
H1388 C1396 0.930 . S
O1389 Co1358 2.037 . S
O1389 C1409 1.234 . S
C1390 O1364 1.269 . S
C1390 O1365 1.257 . S
C1391 H1366 0.930 . S
C1391 C1394 1.388 . S
C1391 C1396 1.418 . S
C1392 H1387 0.930 . S
C1392 C1395 1.404 . S
C1392 C1396 1.353 . S
N1393 Co1358 2.145 . S
N1393 C1394 1.397 . S
N1393 C1395 1.334 . S
C1394 H1375 0.929 . S
C1394 C1391 1.388 . S
C1394 N1393 1.397 . S
C1395 H1376 0.929 . S
C1395 C1392 1.404 . S
C1395 N1393 1.334 . S
C1396 H1388 0.930 . S
C1396 C1391 1.418 . S
C1396 C1392 1.353 . S
C1397 H1367 0.930 . S
C1397 N1398 1.330 . S
C1397 C1399 1.446 . S
N1398 Co1357 2.151 . S
N1398 C1397 1.330 . S
N1398 C1402 1.418 . S
C1399 H1378 0.929 . S
C1399 C1397 1.446 . S
C1399 C1400 1.332 . S
C1400 H1380 0.931 . S
C1400 C1399 1.332 . S
C1400 C1401 1.267 . S
C1401 H1369 0.929 . S
C1401 C1400 1.267 . S
C1401 C1402 1.251 . S
C1402 H1372 0.929 . S
C1402 N1398 1.418 . S
C1402 C1401 1.251 . S
C1403 H1370 0.930 . S
C1403 C1405 1.406 . S
C1403 C1408 1.261 . S
C1404 H1371 0.930 . S
C1404 N1406 1.325 . S
C1404 C1407 1.357 . S
C1405 H1373 0.928 . S
C1405 C1403 1.406 . S
C1405 N1406 1.261 . S
N1406 Co1357 2.214 . S
N1406 C1404 1.325 . S
N1406 C1405 1.261 . S
C1407 H1377 0.931 . S
C1407 C1404 1.357 . S
C1407 C1408 1.312 . S
C1408 H1379 0.930 . S
C1408 C1403 1.261 . S
C1408 C1407 1.312 . S
C1409 O1381 1.214 . S
C1409 O1389 1.234 . S
C1410 H1382 0.929 . S
C1410 C1413 1.391 . S
C1410 C1415 1.391 . S
C1411 H1383 0.929 . S
C1411 C1412 1.390 . S
C1411 N1414 1.391 . S
C1412 H1384 0.930 . S
C1412 C1411 1.390 . S
C1412 C1413 1.392 . S
C1413 H1385 0.929 . S
C1413 C1410 1.391 . S
C1413 C1412 1.392 . S
N1414 Co1358 2.257 . S
N1414 C1411 1.391 . S
N1414 C1415 1.388 . S
C1415 H1386 0.930 . S
C1415 C1410 1.391 . S
C1415 N1414 1.388 . S
Co1416 O1418 2.143 . S
Co1416 O1424 2.074 . S
Co1416 O1427 2.093 . S
Co1416 O1440 2.097 . S
Co1416 N1457 2.151 . S
Co1416 N1465 2.214 . S
Co1417 O1418 2.160 . S
Co1417 O1423 2.058 . S
Co1417 O1433 2.057 . S
Co1417 O1448 2.037 . S
Co1417 N1452 2.145 . S
Co1417 N1473 2.257 . S
O1418 Co1416 2.143 . S
O1418 Co1417 2.160 . S
C1419 O1420 1.278 . S
C1419 O1427 1.224 . S
O1420 C1419 1.278 . S
C1421 O1422 1.245 . S
C1421 O1433 1.232 . S
O1422 C1421 1.245 . S
O1423 Co1417 2.058 . S
O1423 C1449 1.269 . S
O1424 Co1416 2.074 . S
O1424 C1449 1.257 . S
H1425 C1450 0.930 . S
H1426 C1456 0.930 . S
O1427 Co1416 2.093 . S
O1427 C1419 1.224 . S
H1428 C1460 0.929 1_655 S
H1429 C1462 0.930 . S
H1430 C1463 0.930 . S
H1431 C1461 0.929 . S
H1432 C1464 0.928 . S
O1433 Co1417 2.057 . S
O1433 C1421 1.232 . S
H1434 C1453 0.929 . S
H1435 C1454 0.929 . S
H1436 C1466 0.931 . S
H1437 C1458 0.929 . S
H1438 C1467 0.930 . S
H1439 C1459 0.931 . S
O1440 Co1416 2.097 . S
O1440 C1468 1.214 . S
H1441 C1469 0.929 . S
H1442 C1470 0.929 . S
H1443 C1471 0.930 . S
H1444 C1472 0.929 . S
H1445 C1474 0.930 . S
H1446 C1451 0.930 . S
H1447 C1455 0.930 . S
O1448 Co1417 2.037 . S
O1448 C1468 1.234 . S
C1449 O1423 1.269 . S
C1449 O1424 1.257 . S
C1450 H1425 0.930 . S
C1450 C1453 1.388 . S
C1450 C1455 1.418 . S
C1451 H1446 0.930 . S
C1451 C1454 1.404 . S
C1451 C1455 1.353 . S
N1452 Co1417 2.145 . S
N1452 C1453 1.397 . S
N1452 C1454 1.334 . S
C1453 H1434 0.929 . S
C1453 C1450 1.388 . S
C1453 N1452 1.397 . S
C1454 H1435 0.929 . S
C1454 C1451 1.404 . S
C1454 N1452 1.334 . S
C1455 H1447 0.930 . S
C1455 C1450 1.418 . S
C1455 C1451 1.353 . S
C1456 H1426 0.930 . S
C1456 N1457 1.330 . S
C1456 C1458 1.446 . S
N1457 Co1416 2.151 . S
N1457 C1456 1.330 . S
N1457 C1461 1.418 . S
C1458 H1437 0.929 . S
C1458 C1456 1.446 . S
C1458 C1459 1.332 . S
C1459 H1439 0.931 . S
C1459 C1458 1.332 . S
C1459 C1460 1.267 . S
C1460 H1428 0.929 1_455 S
C1460 C1459 1.267 . S
C1460 C1461 1.251 . S
C1461 H1431 0.929 . S
C1461 N1457 1.418 . S
C1461 C1460 1.251 . S
C1462 H1429 0.930 . S
C1462 C1464 1.406 . S
C1462 C1467 1.261 . S
C1463 H1430 0.930 . S
C1463 N1465 1.325 . S
C1463 C1466 1.357 . S
C1464 H1432 0.928 . S
C1464 C1462 1.406 . S
C1464 N1465 1.261 . S
N1465 Co1416 2.214 . S
N1465 C1463 1.325 . S
N1465 C1464 1.261 . S
C1466 H1436 0.931 . S
C1466 C1463 1.357 . S
C1466 C1467 1.312 . S
C1467 H1438 0.930 . S
C1467 C1462 1.261 . S
C1467 C1466 1.312 . S
C1468 O1440 1.214 . S
C1468 O1448 1.234 . S
C1469 H1441 0.929 . S
C1469 C1472 1.391 . S
C1469 C1474 1.391 . S
C1470 H1442 0.929 . S
C1470 C1471 1.390 . S
C1470 N1473 1.391 . S
C1471 H1443 0.930 . S
C1471 C1470 1.390 . S
C1471 C1472 1.392 . S
C1472 H1444 0.929 . S
C1472 C1469 1.391 . S
C1472 C1471 1.392 . S
N1473 Co1417 2.257 . S
N1473 C1470 1.391 . S
N1473 C1474 1.388 . S
C1474 H1445 0.930 . S
C1474 C1469 1.391 . S
C1474 N1473 1.388 . S
Co1475 O1477 2.143 . S
Co1475 O1483 2.074 . S
Co1475 O1486 2.093 . S
Co1475 O1499 2.097 . S
Co1475 N1516 2.151 . S
Co1475 N1524 2.214 . S
Co1476 O1477 2.160 . S
Co1476 O1482 2.058 . S
Co1476 O1492 2.057 . S
Co1476 O1507 2.037 . S
Co1476 N1511 2.145 . S
Co1476 N1532 2.257 . S
O1477 Co1475 2.143 . S
O1477 Co1476 2.160 . S
C1478 O1479 1.278 . S
C1478 O1486 1.224 . S
O1479 C1478 1.278 . S
C1480 O1481 1.245 . S
C1480 O1492 1.232 . S
O1481 C1480 1.245 . S
O1482 Co1476 2.058 . S
O1482 C1508 1.269 . S
O1483 Co1475 2.074 . S
O1483 C1508 1.257 . S
H1484 C1509 0.930 . S
H1485 C1515 0.930 . S
O1486 Co1475 2.093 . S
O1486 C1478 1.224 . S
H1487 C1519 0.929 . S
H1488 C1521 0.930 . S
H1489 C1522 0.930 . S
H1490 C1520 0.929 . S
H1491 C1523 0.928 . S
O1492 Co1476 2.057 . S
O1492 C1480 1.232 . S
H1493 C1512 0.929 . S
H1494 C1513 0.929 . S
H1495 C1525 0.931 . S
H1496 C1517 0.929 . S
H1497 C1526 0.930 . S
H1498 C1518 0.931 . S
O1499 Co1475 2.097 . S
O1499 C1527 1.214 . S
H1500 C1528 0.929 . S
H1501 C1529 0.929 . S
H1502 C1530 0.930 . S
H1503 C1531 0.929 . S
H1504 C1533 0.930 . S
H1505 C1510 0.930 . S
H1506 C1514 0.930 . S
O1507 Co1476 2.037 . S
O1507 C1527 1.234 . S
C1508 O1482 1.269 . S
C1508 O1483 1.257 . S
C1509 H1484 0.930 . S
C1509 C1512 1.388 . S
C1509 C1514 1.418 . S
C1510 H1505 0.930 . S
C1510 C1513 1.404 . S
C1510 C1514 1.353 . S
N1511 Co1476 2.145 . S
N1511 C1512 1.397 . S
N1511 C1513 1.334 . S
C1512 H1493 0.929 . S
C1512 C1509 1.388 . S
C1512 N1511 1.397 . S
C1513 H1494 0.929 . S
C1513 C1510 1.404 . S
C1513 N1511 1.334 . S
C1514 H1506 0.930 . S
C1514 C1509 1.418 . S
C1514 C1510 1.353 . S
C1515 H1485 0.930 . S
C1515 N1516 1.330 . S
C1515 C1517 1.446 . S
N1516 Co1475 2.151 . S
N1516 C1515 1.330 . S
N1516 C1520 1.418 . S
C1517 H1496 0.929 . S
C1517 C1515 1.446 . S
C1517 C1518 1.332 . S
C1518 H1498 0.931 . S
C1518 C1517 1.332 . S
C1518 C1519 1.267 . S
C1519 H1487 0.929 . S
C1519 C1518 1.267 . S
C1519 C1520 1.251 . S
C1520 H1490 0.929 . S
C1520 N1516 1.418 . S
C1520 C1519 1.251 . S
C1521 H1488 0.930 . S
C1521 C1523 1.406 . S
C1521 C1526 1.261 . S
C1522 H1489 0.930 . S
C1522 N1524 1.325 . S
C1522 C1525 1.357 . S
C1523 H1491 0.928 . S
C1523 C1521 1.406 . S
C1523 N1524 1.261 . S
N1524 Co1475 2.214 . S
N1524 C1522 1.325 . S
N1524 C1523 1.261 . S
C1525 H1495 0.931 . S
C1525 C1522 1.357 . S
C1525 C1526 1.312 . S
C1526 H1497 0.930 . S
C1526 C1521 1.261 . S
C1526 C1525 1.312 . S
C1527 O1499 1.214 . S
C1527 O1507 1.234 . S
C1528 H1500 0.929 . S
C1528 C1531 1.391 . S
C1528 C1533 1.391 . S
C1529 H1501 0.929 . S
C1529 C1530 1.390 . S
C1529 N1532 1.391 . S
C1530 H1502 0.930 . S
C1530 C1529 1.390 . S
C1530 C1531 1.392 . S
C1531 H1503 0.929 . S
C1531 C1528 1.391 . S
C1531 C1530 1.392 . S
N1532 Co1476 2.257 . S
N1532 C1529 1.391 . S
N1532 C1533 1.388 . S
C1533 H1504 0.930 . S
C1533 C1528 1.391 . S
C1533 N1532 1.388 . S
Co1534 O1536 2.143 . S
Co1534 O1542 2.074 . S
Co1534 O1545 2.093 . S
Co1534 O1558 2.097 . S
Co1534 N1575 2.151 . S
Co1534 N1583 2.214 . S
Co1535 O1536 2.160 . S
Co1535 O1541 2.058 . S
Co1535 O1551 2.057 . S
Co1535 O1566 2.037 . S
Co1535 N1570 2.145 . S
Co1535 N1591 2.257 . S
O1536 Co1534 2.143 . S
O1536 Co1535 2.160 . S
C1537 O1538 1.278 . S
C1537 O1545 1.224 . S
O1538 C1537 1.278 . S
C1539 O1540 1.245 . S
C1539 O1551 1.232 . S
O1540 C1539 1.245 . S
O1541 Co1535 2.058 . S
O1541 C1567 1.269 . S
O1542 Co1534 2.074 . S
O1542 C1567 1.257 . S
H1543 C1568 0.930 . S
H1544 C1574 0.930 . S
O1545 Co1534 2.093 . S
O1545 C1537 1.224 . S
H1546 C1578 0.929 . S
H1547 C1580 0.930 . S
H1548 C1581 0.930 . S
H1549 C1579 0.929 . S
H1550 C1582 0.928 . S
O1551 Co1535 2.057 . S
O1551 C1539 1.232 . S
H1552 C1571 0.929 . S
H1553 C1572 0.929 . S
H1554 C1584 0.931 . S
H1555 C1576 0.929 . S
H1556 C1585 0.930 . S
H1557 C1577 0.931 . S
O1558 Co1534 2.097 . S
O1558 C1586 1.214 . S
H1559 C1587 0.929 . S
H1560 C1588 0.929 . S
H1561 C1589 0.930 . S
H1562 C1590 0.929 . S
H1563 C1592 0.930 . S
H1564 C1569 0.930 . S
H1565 C1573 0.930 . S
O1566 Co1535 2.037 . S
O1566 C1586 1.234 . S
C1567 O1541 1.269 . S
C1567 O1542 1.257 . S
C1568 H1543 0.930 . S
C1568 C1571 1.388 . S
C1568 C1573 1.418 . S
C1569 H1564 0.930 . S
C1569 C1572 1.404 . S
C1569 C1573 1.353 . S
N1570 Co1535 2.145 . S
N1570 C1571 1.397 . S
N1570 C1572 1.334 . S
C1571 H1552 0.929 . S
C1571 C1568 1.388 . S
C1571 N1570 1.397 . S
C1572 H1553 0.929 . S
C1572 C1569 1.404 . S
C1572 N1570 1.334 . S
C1573 H1565 0.930 . S
C1573 C1568 1.418 . S
C1573 C1569 1.353 . S
C1574 H1544 0.930 . S
C1574 N1575 1.330 . S
C1574 C1576 1.446 . S
N1575 Co1534 2.151 . S
N1575 C1574 1.330 . S
N1575 C1579 1.418 . S
C1576 H1555 0.929 . S
C1576 C1574 1.446 . S
C1576 C1577 1.332 . S
C1577 H1557 0.931 . S
C1577 C1576 1.332 . S
C1577 C1578 1.267 . S
C1578 H1546 0.929 . S
C1578 C1577 1.267 . S
C1578 C1579 1.251 . S
C1579 H1549 0.929 . S
C1579 N1575 1.418 . S
C1579 C1578 1.251 . S
C1580 H1547 0.930 . S
C1580 C1582 1.406 . S
C1580 C1585 1.261 . S
C1581 H1548 0.930 . S
C1581 N1583 1.325 . S
C1581 C1584 1.357 . S
C1582 H1550 0.928 . S
C1582 C1580 1.406 . S
C1582 N1583 1.261 . S
N1583 Co1534 2.214 . S
N1583 C1581 1.325 . S
N1583 C1582 1.261 . S
C1584 H1554 0.931 . S
C1584 C1581 1.357 . S
C1584 C1585 1.312 . S
C1585 H1556 0.930 . S
C1585 C1580 1.261 . S
C1585 C1584 1.312 . S
C1586 O1558 1.214 . S
C1586 O1566 1.234 . S
C1587 H1559 0.929 . S
C1587 C1590 1.391 . S
C1587 C1592 1.391 . S
C1588 H1560 0.929 . S
C1588 C1589 1.390 . S
C1588 N1591 1.391 . S
C1589 H1561 0.930 . S
C1589 C1588 1.390 . S
C1589 C1590 1.392 . S
C1590 H1562 0.929 . S
C1590 C1587 1.391 . S
C1590 C1589 1.392 . S
N1591 Co1535 2.257 . S
N1591 C1588 1.391 . S
N1591 C1592 1.388 . S
C1592 H1563 0.930 . S
C1592 C1587 1.391 . S
C1592 N1591 1.388 . S
Co1593 O1595 2.143 . S
Co1593 O1601 2.074 . S
Co1593 O1604 2.093 . S
Co1593 O1617 2.097 . S
Co1593 N1634 2.151 . S
Co1593 N1642 2.214 . S
Co1594 O1595 2.160 . S
Co1594 O1600 2.058 . S
Co1594 O1610 2.057 . S
Co1594 O1625 2.037 . S
Co1594 N1629 2.145 . S
Co1594 N1650 2.257 . S
O1595 Co1593 2.143 . S
O1595 Co1594 2.160 . S
C1596 O1597 1.278 . S
C1596 O1604 1.224 . S
O1597 C1596 1.278 . S
C1598 O1599 1.245 . S
C1598 O1610 1.232 . S
O1599 C1598 1.245 . S
O1600 Co1594 2.058 . S
O1600 C1626 1.269 . S
O1601 Co1593 2.074 . S
O1601 C1626 1.257 . S
H1602 C1627 0.930 . S
H1603 C1633 0.930 . S
O1604 Co1593 2.093 . S
O1604 C1596 1.224 . S
H1605 C1637 0.929 . S
H1606 C1639 0.930 . S
H1607 C1640 0.930 . S
H1608 C1638 0.929 . S
H1609 C1641 0.928 . S
O1610 Co1594 2.057 . S
O1610 C1598 1.232 . S
H1611 C1630 0.929 . S
H1612 C1631 0.929 . S
H1613 C1643 0.931 . S
H1614 C1635 0.929 . S
H1615 C1644 0.930 . S
H1616 C1636 0.931 . S
O1617 Co1593 2.097 . S
O1617 C1645 1.214 . S
H1618 C1646 0.929 . S
H1619 C1647 0.929 . S
H1620 C1648 0.930 . S
H1621 C1649 0.929 . S
H1622 C1651 0.930 . S
H1623 C1628 0.930 . S
H1624 C1632 0.930 . S
O1625 Co1594 2.037 . S
O1625 C1645 1.234 . S
C1626 O1600 1.269 . S
C1626 O1601 1.257 . S
C1627 H1602 0.930 . S
C1627 C1630 1.388 . S
C1627 C1632 1.418 . S
C1628 H1623 0.930 . S
C1628 C1631 1.404 . S
C1628 C1632 1.353 . S
N1629 Co1594 2.145 . S
N1629 C1630 1.397 . S
N1629 C1631 1.334 . S
C1630 H1611 0.929 . S
C1630 C1627 1.388 . S
C1630 N1629 1.397 . S
C1631 H1612 0.929 . S
C1631 C1628 1.404 . S
C1631 N1629 1.334 . S
C1632 H1624 0.930 . S
C1632 C1627 1.418 . S
C1632 C1628 1.353 . S
C1633 H1603 0.930 . S
C1633 N1634 1.330 . S
C1633 C1635 1.446 . S
N1634 Co1593 2.151 . S
N1634 C1633 1.330 . S
N1634 C1638 1.418 . S
C1635 H1614 0.929 . S
C1635 C1633 1.446 . S
C1635 C1636 1.332 . S
C1636 H1616 0.931 . S
C1636 C1635 1.332 . S
C1636 C1637 1.267 . S
C1637 H1605 0.929 . S
C1637 C1636 1.267 . S
C1637 C1638 1.251 . S
C1638 H1608 0.929 . S
C1638 N1634 1.418 . S
C1638 C1637 1.251 . S
C1639 H1606 0.930 . S
C1639 C1641 1.406 . S
C1639 C1644 1.261 . S
C1640 H1607 0.930 . S
C1640 N1642 1.325 . S
C1640 C1643 1.357 . S
C1641 H1609 0.928 . S
C1641 C1639 1.406 . S
C1641 N1642 1.261 . S
N1642 Co1593 2.214 . S
N1642 C1640 1.325 . S
N1642 C1641 1.261 . S
C1643 H1613 0.931 . S
C1643 C1640 1.357 . S
C1643 C1644 1.312 . S
C1644 H1615 0.930 . S
C1644 C1639 1.261 . S
C1644 C1643 1.312 . S
C1645 O1617 1.214 . S
C1645 O1625 1.234 . S
C1646 H1618 0.929 . S
C1646 C1649 1.391 . S
C1646 C1651 1.391 . S
C1647 H1619 0.929 . S
C1647 C1648 1.390 . S
C1647 N1650 1.391 . S
C1648 H1620 0.930 . S
C1648 C1647 1.390 . S
C1648 C1649 1.392 . S
C1649 H1621 0.929 . S
C1649 C1646 1.391 . S
C1649 C1648 1.392 . S
N1650 Co1594 2.257 . S
N1650 C1647 1.391 . S
N1650 C1651 1.388 . S
C1651 H1622 0.930 . S
C1651 C1646 1.391 . S
C1651 N1650 1.388 . S
Co1652 O1654 2.143 . S
Co1652 O1660 2.074 . S
Co1652 O1663 2.093 . S
Co1652 O1676 2.097 . S
Co1652 N1693 2.151 . S
Co1652 N1701 2.214 . S
Co1653 O1654 2.160 . S
Co1653 O1659 2.058 . S
Co1653 O1669 2.057 . S
Co1653 O1684 2.037 . S
Co1653 N1688 2.145 . S
Co1653 N1709 2.257 . S
O1654 Co1652 2.143 . S
O1654 Co1653 2.160 . S
C1655 O1656 1.278 . S
C1655 O1663 1.224 . S
O1656 C1655 1.278 . S
C1657 O1658 1.245 . S
C1657 O1669 1.232 . S
O1658 C1657 1.245 . S
O1659 Co1653 2.058 . S
O1659 C1685 1.269 . S
O1660 Co1652 2.074 . S
O1660 C1685 1.257 . S
H1661 C1686 0.930 . S
H1662 C1692 0.930 . S
O1663 Co1652 2.093 . S
O1663 C1655 1.224 . S
H1664 C1696 0.929 1_655 S
H1665 C1698 0.930 . S
H1666 C1699 0.930 . S
H1667 C1697 0.929 . S
H1668 C1700 0.928 . S
O1669 Co1653 2.057 . S
O1669 C1657 1.232 . S
H1670 C1689 0.929 . S
H1671 C1690 0.929 . S
H1672 C1702 0.931 . S
H1673 C1694 0.929 . S
H1674 C1703 0.930 . S
H1675 C1695 0.931 . S
O1676 Co1652 2.097 . S
O1676 C1704 1.214 . S
H1677 C1705 0.929 . S
H1678 C1706 0.929 . S
H1679 C1707 0.930 . S
H1680 C1708 0.929 . S
H1681 C1710 0.930 . S
H1682 C1687 0.930 . S
H1683 C1691 0.930 . S
O1684 Co1653 2.037 . S
O1684 C1704 1.234 . S
C1685 O1659 1.269 . S
C1685 O1660 1.257 . S
C1686 H1661 0.930 . S
C1686 C1689 1.388 . S
C1686 C1691 1.418 . S
C1687 H1682 0.930 . S
C1687 C1690 1.404 . S
C1687 C1691 1.353 . S
N1688 Co1653 2.145 . S
N1688 C1689 1.397 . S
N1688 C1690 1.334 . S
C1689 H1670 0.929 . S
C1689 C1686 1.388 . S
C1689 N1688 1.397 . S
C1690 H1671 0.929 . S
C1690 C1687 1.404 . S
C1690 N1688 1.334 . S
C1691 H1683 0.930 . S
C1691 C1686 1.418 . S
C1691 C1687 1.353 . S
C1692 H1662 0.930 . S
C1692 N1693 1.330 . S
C1692 C1694 1.446 . S
N1693 Co1652 2.151 . S
N1693 C1692 1.330 . S
N1693 C1697 1.418 . S
C1694 H1673 0.929 . S
C1694 C1692 1.446 . S
C1694 C1695 1.332 . S
C1695 H1675 0.931 . S
C1695 C1694 1.332 . S
C1695 C1696 1.267 . S
C1696 H1664 0.929 1_455 S
C1696 C1695 1.267 . S
C1696 C1697 1.251 . S
C1697 H1667 0.929 . S
C1697 N1693 1.418 . S
C1697 C1696 1.251 . S
C1698 H1665 0.930 . S
C1698 C1700 1.406 . S
C1698 C1703 1.261 . S
C1699 H1666 0.930 . S
C1699 N1701 1.325 . S
C1699 C1702 1.357 . S
C1700 H1668 0.928 . S
C1700 C1698 1.406 . S
C1700 N1701 1.261 . S
N1701 Co1652 2.214 . S
N1701 C1699 1.325 . S
N1701 C1700 1.261 . S
C1702 H1672 0.931 . S
C1702 C1699 1.357 . S
C1702 C1703 1.312 . S
C1703 H1674 0.930 . S
C1703 C1698 1.261 . S
C1703 C1702 1.312 . S
C1704 O1676 1.214 . S
C1704 O1684 1.234 . S
C1705 H1677 0.929 . S
C1705 C1708 1.391 . S
C1705 C1710 1.391 . S
C1706 H1678 0.929 . S
C1706 C1707 1.390 . S
C1706 N1709 1.391 . S
C1707 H1679 0.930 . S
C1707 C1706 1.390 . S
C1707 C1708 1.392 . S
C1708 H1680 0.929 . S
C1708 C1705 1.391 . S
C1708 C1707 1.392 . S
N1709 Co1653 2.257 . S
N1709 C1706 1.391 . S
N1709 C1710 1.388 . S
C1710 H1681 0.930 . S
C1710 C1705 1.391 . S
C1710 N1709 1.388 . S
Co1711 O1713 2.143 . S
Co1711 O1719 2.074 . S
Co1711 O1722 2.093 . S
Co1711 O1735 2.097 . S
Co1711 N1752 2.151 . S
Co1711 N1760 2.214 . S
Co1712 O1713 2.160 . S
Co1712 O1718 2.058 . S
Co1712 O1728 2.057 . S
Co1712 O1743 2.037 . S
Co1712 N1747 2.145 . S
Co1712 N1768 2.257 . S
O1713 Co1711 2.143 . S
O1713 Co1712 2.160 . S
C1714 O1715 1.278 . S
C1714 O1722 1.224 . S
O1715 C1714 1.278 . S
C1716 O1717 1.245 . S
C1716 O1728 1.232 . S
O1717 C1716 1.245 . S
O1718 Co1712 2.058 . S
O1718 C1744 1.269 . S
O1719 Co1711 2.074 . S
O1719 C1744 1.257 . S
H1720 C1745 0.930 . S
H1721 C1751 0.930 . S
O1722 Co1711 2.093 . S
O1722 C1714 1.224 . S
H1723 C1755 0.929 . S
H1724 C1757 0.930 . S
H1725 C1758 0.930 . S
H1726 C1756 0.929 . S
H1727 C1759 0.928 . S
O1728 Co1712 2.057 . S
O1728 C1716 1.232 . S
H1729 C1748 0.929 . S
H1730 C1749 0.929 . S
H1731 C1761 0.931 . S
H1732 C1753 0.929 . S
H1733 C1762 0.930 . S
H1734 C1754 0.931 . S
O1735 Co1711 2.097 . S
O1735 C1763 1.214 . S
H1736 C1764 0.929 . S
H1737 C1765 0.929 . S
H1738 C1766 0.930 . S
H1739 C1767 0.929 . S
H1740 C1769 0.930 . S
H1741 C1746 0.930 . S
H1742 C1750 0.930 . S
O1743 Co1712 2.037 . S
O1743 C1763 1.234 . S
C1744 O1718 1.269 . S
C1744 O1719 1.257 . S
C1745 H1720 0.930 . S
C1745 C1748 1.388 . S
C1745 C1750 1.418 . S
C1746 H1741 0.930 . S
C1746 C1749 1.404 . S
C1746 C1750 1.353 . S
N1747 Co1712 2.145 . S
N1747 C1748 1.397 . S
N1747 C1749 1.334 . S
C1748 H1729 0.929 . S
C1748 C1745 1.388 . S
C1748 N1747 1.397 . S
C1749 H1730 0.929 . S
C1749 C1746 1.404 . S
C1749 N1747 1.334 . S
C1750 H1742 0.930 . S
C1750 C1745 1.418 . S
C1750 C1746 1.353 . S
C1751 H1721 0.930 . S
C1751 N1752 1.330 . S
C1751 C1753 1.446 . S
N1752 Co1711 2.151 . S
N1752 C1751 1.330 . S
N1752 C1756 1.418 . S
C1753 H1732 0.929 . S
C1753 C1751 1.446 . S
C1753 C1754 1.332 . S
C1754 H1734 0.931 . S
C1754 C1753 1.332 . S
C1754 C1755 1.267 . S
C1755 H1723 0.929 . S
C1755 C1754 1.267 . S
C1755 C1756 1.251 . S
C1756 H1726 0.929 . S
C1756 N1752 1.418 . S
C1756 C1755 1.251 . S
C1757 H1724 0.930 . S
C1757 C1759 1.406 . S
C1757 C1762 1.261 . S
C1758 H1725 0.930 . S
C1758 N1760 1.325 . S
C1758 C1761 1.357 . S
C1759 H1727 0.928 . S
C1759 C1757 1.406 . S
C1759 N1760 1.261 . S
N1760 Co1711 2.214 . S
N1760 C1758 1.325 . S
N1760 C1759 1.261 . S
C1761 H1731 0.931 . S
C1761 C1758 1.357 . S
C1761 C1762 1.312 . S
C1762 H1733 0.930 . S
C1762 C1757 1.261 . S
C1762 C1761 1.312 . S
C1763 O1735 1.214 . S
C1763 O1743 1.234 . S
C1764 H1736 0.929 . S
C1764 C1767 1.391 . S
C1764 C1769 1.391 . S
C1765 H1737 0.929 . S
C1765 C1766 1.390 . S
C1765 N1768 1.391 . S
C1766 H1738 0.930 . S
C1766 C1765 1.390 . S
C1766 C1767 1.392 . S
C1767 H1739 0.929 . S
C1767 C1764 1.391 . S
C1767 C1766 1.392 . S
N1768 Co1712 2.257 . S
N1768 C1765 1.391 . S
N1768 C1769 1.388 . S
C1769 H1740 0.930 . S
C1769 C1764 1.391 . S
C1769 N1768 1.388 . S
Co1770 O1772 2.143 . S
Co1770 O1778 2.074 . S
Co1770 O1781 2.093 . S
Co1770 O1794 2.097 . S
Co1770 N1811 2.151 . S
Co1770 N1819 2.214 . S
Co1771 O1772 2.160 . S
Co1771 O1777 2.058 . S
Co1771 O1787 2.057 . S
Co1771 O1802 2.037 . S
Co1771 N1806 2.145 . S
Co1771 N1827 2.257 . S
O1772 Co1770 2.143 . S
O1772 Co1771 2.160 . S
C1773 O1774 1.278 . S
C1773 O1781 1.224 . S
O1774 C1773 1.278 . S
C1775 O1776 1.245 . S
C1775 O1787 1.232 . S
O1776 C1775 1.245 . S
O1777 Co1771 2.058 . S
O1777 C1803 1.269 . S
O1778 Co1770 2.074 . S
O1778 C1803 1.257 . S
H1779 C1804 0.930 . S
H1780 C1810 0.930 . S
O1781 Co1770 2.093 . S
O1781 C1773 1.224 . S
H1782 C1814 0.929 . S
H1783 C1816 0.930 . S
H1784 C1817 0.930 . S
H1785 C1815 0.929 . S
H1786 C1818 0.928 . S
O1787 Co1771 2.057 . S
O1787 C1775 1.232 . S
H1788 C1807 0.929 . S
H1789 C1808 0.929 . S
H1790 C1820 0.931 . S
H1791 C1812 0.929 . S
H1792 C1821 0.930 . S
H1793 C1813 0.931 . S
O1794 Co1770 2.097 . S
O1794 C1822 1.214 . S
H1795 C1823 0.929 . S
H1796 C1824 0.929 . S
H1797 C1825 0.930 . S
H1798 C1826 0.929 . S
H1799 C1828 0.930 . S
H1800 C1805 0.930 . S
H1801 C1809 0.930 . S
O1802 Co1771 2.037 . S
O1802 C1822 1.234 . S
C1803 O1777 1.269 . S
C1803 O1778 1.257 . S
C1804 H1779 0.930 . S
C1804 C1807 1.388 . S
C1804 C1809 1.418 . S
C1805 H1800 0.930 . S
C1805 C1808 1.404 . S
C1805 C1809 1.353 . S
N1806 Co1771 2.145 . S
N1806 C1807 1.397 . S
N1806 C1808 1.334 . S
C1807 H1788 0.929 . S
C1807 C1804 1.388 . S
C1807 N1806 1.397 . S
C1808 H1789 0.929 . S
C1808 C1805 1.404 . S
C1808 N1806 1.334 . S
C1809 H1801 0.930 . S
C1809 C1804 1.418 . S
C1809 C1805 1.353 . S
C1810 H1780 0.930 . S
C1810 N1811 1.330 . S
C1810 C1812 1.446 . S
N1811 Co1770 2.151 . S
N1811 C1810 1.330 . S
N1811 C1815 1.418 . S
C1812 H1791 0.929 . S
C1812 C1810 1.446 . S
C1812 C1813 1.332 . S
C1813 H1793 0.931 . S
C1813 C1812 1.332 . S
C1813 C1814 1.267 . S
C1814 H1782 0.929 . S
C1814 C1813 1.267 . S
C1814 C1815 1.251 . S
C1815 H1785 0.929 . S
C1815 N1811 1.418 . S
C1815 C1814 1.251 . S
C1816 H1783 0.930 . S
C1816 C1818 1.406 . S
C1816 C1821 1.261 . S
C1817 H1784 0.930 . S
C1817 N1819 1.325 . S
C1817 C1820 1.357 . S
C1818 H1786 0.928 . S
C1818 C1816 1.406 . S
C1818 N1819 1.261 . S
N1819 Co1770 2.214 . S
N1819 C1817 1.325 . S
N1819 C1818 1.261 . S
C1820 H1790 0.931 . S
C1820 C1817 1.357 . S
C1820 C1821 1.312 . S
C1821 H1792 0.930 . S
C1821 C1816 1.261 . S
C1821 C1820 1.312 . S
C1822 O1794 1.214 . S
C1822 O1802 1.234 . S
C1823 H1795 0.929 . S
C1823 C1826 1.391 . S
C1823 C1828 1.391 . S
C1824 H1796 0.929 . S
C1824 C1825 1.390 . S
C1824 N1827 1.391 . S
C1825 H1797 0.930 . S
C1825 C1824 1.390 . S
C1825 C1826 1.392 . S
C1826 H1798 0.929 . S
C1826 C1823 1.391 . S
C1826 C1825 1.392 . S
N1827 Co1771 2.257 . S
N1827 C1824 1.391 . S
N1827 C1828 1.388 . S
C1828 H1799 0.930 . S
C1828 C1823 1.391 . S
C1828 N1827 1.388 . S
Co1829 O1831 2.143 . S
Co1829 O1837 2.074 . S
Co1829 O1840 2.093 . S
Co1829 O1853 2.097 . S
Co1829 N1870 2.151 . S
Co1829 N1878 2.214 . S
Co1830 O1831 2.160 . S
Co1830 O1836 2.058 . S
Co1830 O1846 2.057 . S
Co1830 O1861 2.037 . S
Co1830 N1865 2.145 . S
Co1830 N1886 2.257 . S
O1831 Co1829 2.143 . S
O1831 Co1830 2.160 . S
C1832 O1833 1.278 . S
C1832 O1840 1.224 . S
O1833 C1832 1.278 . S
C1834 O1835 1.245 . S
C1834 O1846 1.232 . S
O1835 C1834 1.245 . S
O1836 Co1830 2.058 . S
O1836 C1862 1.269 . S
O1837 Co1829 2.074 . S
O1837 C1862 1.257 . S
H1838 C1863 0.930 . S
H1839 C1869 0.930 . S
O1840 Co1829 2.093 . S
O1840 C1832 1.224 . S
H1841 C1873 0.929 . S
H1842 C1875 0.930 . S
H1843 C1876 0.930 . S
H1844 C1874 0.929 . S
H1845 C1877 0.928 . S
O1846 Co1830 2.057 . S
O1846 C1834 1.232 . S
H1847 C1866 0.929 . S
H1848 C1867 0.929 . S
H1849 C1879 0.931 . S
H1850 C1871 0.929 . S
H1851 C1880 0.930 . S
H1852 C1872 0.931 . S
O1853 Co1829 2.097 . S
O1853 C1881 1.214 . S
H1854 C1882 0.929 . S
H1855 C1883 0.929 . S
H1856 C1884 0.930 . S
H1857 C1885 0.929 . S
H1858 C1887 0.930 . S
H1859 C1864 0.930 . S
H1860 C1868 0.930 . S
O1861 Co1830 2.037 . S
O1861 C1881 1.234 . S
C1862 O1836 1.269 . S
C1862 O1837 1.257 . S
C1863 H1838 0.930 . S
C1863 C1866 1.388 . S
C1863 C1868 1.418 . S
C1864 H1859 0.930 . S
C1864 C1867 1.404 . S
C1864 C1868 1.353 . S
N1865 Co1830 2.145 . S
N1865 C1866 1.397 . S
N1865 C1867 1.334 . S
C1866 H1847 0.929 . S
C1866 C1863 1.388 . S
C1866 N1865 1.397 . S
C1867 H1848 0.929 . S
C1867 C1864 1.404 . S
C1867 N1865 1.334 . S
C1868 H1860 0.930 . S
C1868 C1863 1.418 . S
C1868 C1864 1.353 . S
C1869 H1839 0.930 . S
C1869 N1870 1.330 . S
C1869 C1871 1.446 . S
N1870 Co1829 2.151 . S
N1870 C1869 1.330 . S
N1870 C1874 1.418 . S
C1871 H1850 0.929 . S
C1871 C1869 1.446 . S
C1871 C1872 1.332 . S
C1872 H1852 0.931 . S
C1872 C1871 1.332 . S
C1872 C1873 1.267 . S
C1873 H1841 0.929 . S
C1873 C1872 1.267 . S
C1873 C1874 1.251 . S
C1874 H1844 0.929 . S
C1874 N1870 1.418 . S
C1874 C1873 1.251 . S
C1875 H1842 0.930 . S
C1875 C1877 1.406 . S
C1875 C1880 1.261 . S
C1876 H1843 0.930 . S
C1876 N1878 1.325 . S
C1876 C1879 1.357 . S
C1877 H1845 0.928 . S
C1877 C1875 1.406 . S
C1877 N1878 1.261 . S
N1878 Co1829 2.214 . S
N1878 C1876 1.325 . S
N1878 C1877 1.261 . S
C1879 H1849 0.931 . S
C1879 C1876 1.357 . S
C1879 C1880 1.312 . S
C1880 H1851 0.930 . S
C1880 C1875 1.261 . S
C1880 C1879 1.312 . S
C1881 O1853 1.214 . S
C1881 O1861 1.234 . S
C1882 H1854 0.929 . S
C1882 C1885 1.391 . S
C1882 C1887 1.391 . S
C1883 H1855 0.929 . S
C1883 C1884 1.390 . S
C1883 N1886 1.391 . S
C1884 H1856 0.930 . S
C1884 C1883 1.390 . S
C1884 C1885 1.392 . S
C1885 H1857 0.929 . S
C1885 C1882 1.391 . S
C1885 C1884 1.392 . S
N1886 Co1830 2.257 . S
N1886 C1883 1.391 . S
N1886 C1887 1.388 . S
C1887 H1858 0.930 . S
C1887 C1882 1.391 . S
C1887 N1886 1.388 . S
H1888 C1896 0.950 . S
H1889 C1901 0.950 . S
H1890 C1898 0.950 . S
H1891 C1900 0.950 . S
H1892 C1902 0.950 . S
H1893 C1904 0.950 . S
H1894 C1906 0.950 . S
H1895 C1907 0.950 . S
C1896 H1888 0.950 . S
C1896 C1897 1.386 . S
C1896 C1898 1.391 . S
C1897 C1896 1.386 . S
C1897 C1901 1.393 1_565 S
C1898 H1890 0.950 . S
C1898 C1896 1.391 . S
C1898 C1899 1.400 . S
C1899 C1898 1.400 . S
C1899 C1900 1.398 1_565 S
C1899 C1905 1.491 1_565 S
C1900 H1891 0.950 . S
C1900 C1899 1.398 1_545 S
C1900 C1901 1.391 . S
C1901 H1889 0.950 . S
C1901 C1897 1.393 1_545 S
C1901 C1900 1.391 . S
C1902 H1892 0.950 . S
C1902 C1903 1.386 . S
C1902 C1904 1.391 . S
C1903 C1902 1.386 . S
C1903 C1907 1.393 1_545 S
C1904 H1893 0.950 . S
C1904 C1902 1.391 . S
C1904 C1905 1.400 . S
C1905 C1899 1.491 1_545 S
C1905 C1904 1.400 . S
C1905 C1906 1.398 1_545 S
C1906 H1894 0.950 . S
C1906 C1905 1.398 1_565 S
C1906 C1907 1.391 . S
C1907 H1895 0.950 . S
C1907 C1903 1.393 1_565 S
C1907 C1906 1.391 . S
H1908 C1916 0.950 . S
H1909 C1921 0.950 . S
H1910 C1918 0.950 . S
H1911 C1920 0.950 . S
H1912 C1922 0.950 . S
H1913 C1924 0.950 . S
H1914 C1926 0.950 . S
H1915 C1927 0.950 . S
C1916 H1908 0.950 . S
C1916 C1917 1.386 . S
C1916 C1918 1.391 . S
C1917 C1916 1.386 . S
C1917 C1921 1.393 . S
C1918 H1910 0.950 . S
C1918 C1916 1.391 . S
C1918 C1919 1.400 . S
C1919 C1918 1.400 . S
C1919 C1920 1.398 . S
C1919 C1925 1.491 . S
C1920 H1911 0.950 . S
C1920 C1919 1.398 . S
C1920 C1921 1.391 . S
C1921 H1909 0.950 . S
C1921 C1917 1.393 . S
C1921 C1920 1.391 . S
C1922 H1912 0.950 . S
C1922 C1923 1.386 . S
C1922 C1924 1.391 . S
C1923 C1922 1.386 . S
C1923 C1927 1.393 . S
C1924 H1913 0.950 . S
C1924 C1922 1.391 . S
C1924 C1925 1.400 . S
C1925 C1919 1.491 . S
C1925 C1924 1.400 . S
C1925 C1926 1.398 . S
C1926 H1914 0.950 . S
C1926 C1925 1.398 . S
C1926 C1927 1.391 . S
C1927 H1915 0.950 . S
C1927 C1923 1.393 . S
C1927 C1926 1.391 . S
H1928 C1936 0.950 . S
H1929 C1941 0.950 . S
H1930 C1938 0.950 1_565 S
H1931 C1940 0.950 . S
H1932 C1942 0.950 . S
H1933 C1944 0.950 1_545 S
H1934 C1946 0.950 . S
H1935 C1947 0.950 . S
C1936 H1928 0.950 . S
C1936 C1937 1.386 . S
C1936 C1938 1.391 . S
C1937 C1936 1.386 . S
C1937 C1941 1.393 . S
C1938 H1930 0.950 1_545 S
C1938 C1936 1.391 . S
C1938 C1939 1.400 . S
C1939 C1938 1.400 . S
C1939 C1940 1.398 . S
C1939 C1945 1.491 1_545 S
C1940 H1931 0.950 . S
C1940 C1939 1.398 . S
C1940 C1941 1.391 . S
C1941 H1929 0.950 . S
C1941 C1937 1.393 . S
C1941 C1940 1.391 . S
C1942 H1932 0.950 . S
C1942 C1943 1.386 . S
C1942 C1944 1.391 . S
C1943 C1942 1.386 . S
C1943 C1947 1.393 . S
C1944 H1933 0.950 1_565 S
C1944 C1942 1.391 . S
C1944 C1945 1.400 . S
C1945 C1939 1.491 1_565 S
C1945 C1944 1.400 . S
C1945 C1946 1.398 . S
C1946 H1934 0.950 . S
C1946 C1945 1.398 . S
C1946 C1947 1.391 . S
C1947 H1935 0.950 . S
C1947 C1943 1.393 . S
C1947 C1946 1.391 . S
H1948 C1956 0.950 . S
H1949 C1961 0.950 . S
H1950 C1958 0.950 . S
H1951 C1960 0.950 . S
H1952 C1962 0.950 . S
H1953 C1964 0.950 . S
H1954 C1966 0.950 . S
H1955 C1967 0.950 . S
C1956 H1948 0.950 . S
C1956 C1957 1.386 . S
C1956 C1958 1.391 . S
C1957 C1956 1.386 . S
C1957 C1961 1.393 . S
C1958 H1950 0.950 . S
C1958 C1956 1.391 . S
C1958 C1959 1.400 . S
C1959 C1958 1.400 . S
C1959 C1960 1.398 . S
C1959 C1965 1.491 1_556 S
C1960 H1951 0.950 . S
C1960 C1959 1.398 . S
C1960 C1961 1.391 . S
C1961 H1949 0.950 . S
C1961 C1957 1.393 . S
C1961 C1960 1.391 . S
C1962 H1952 0.950 . S
C1962 C1963 1.386 . S
C1962 C1964 1.391 . S
C1963 C1962 1.386 . S
C1963 C1967 1.393 . S
C1964 H1953 0.950 . S
C1964 C1962 1.391 . S
C1964 C1965 1.400 . S
C1965 C1959 1.491 1_554 S
C1965 C1964 1.400 . S
C1965 C1966 1.398 . S
C1966 H1954 0.950 . S
C1966 C1965 1.398 . S
C1966 C1967 1.391 . S
C1967 H1955 0.950 . S
C1967 C1963 1.393 . S
C1967 C1966 1.391 . S
H1968 C1976 0.950 . S
H1969 C1981 0.950 . S
H1970 C1978 0.950 . S
H1971 C1980 0.950 . S
H1972 C1982 0.950 . S
H1973 C1984 0.950 . S
H1974 C1986 0.950 . S
H1975 C1987 0.950 . S
C1976 H1968 0.950 . S
C1976 C1977 1.386 1_545 S
C1976 C1978 1.391 . S
C1977 C1976 1.386 1_565 S
C1977 C1981 1.393 . S
C1978 H1970 0.950 . S
C1978 C1976 1.391 . S
C1978 C1979 1.400 1_545 S
C1979 C1978 1.400 1_565 S
C1979 C1980 1.398 . S
C1979 C1985 1.491 1_565 S
C1980 H1971 0.950 . S
C1980 C1979 1.398 . S
C1980 C1981 1.391 . S
C1981 H1969 0.950 . S
C1981 C1977 1.393 . S
C1981 C1980 1.391 . S
C1982 H1972 0.950 . S
C1982 C1983 1.386 1_565 S
C1982 C1984 1.391 . S
C1983 C1982 1.386 1_545 S
C1983 C1987 1.393 . S
C1984 H1973 0.950 . S
C1984 C1982 1.391 . S
C1984 C1985 1.400 1_565 S
C1985 C1979 1.491 1_545 S
C1985 C1984 1.400 1_545 S
C1985 C1986 1.398 . S
C1986 H1974 0.950 . S
C1986 C1985 1.398 . S
C1986 C1987 1.391 . S
C1987 H1975 0.950 . S
C1987 C1983 1.393 . S
C1987 C1986 1.391 . S
H1988 C1996 0.950 . S
H1989 C2001 0.950 . S
H1990 C1998 0.950 . S
H1991 C2000 0.950 . S
H1992 C2002 0.950 . S
H1993 C2004 0.950 . S
H1994 C2006 0.950 . S
H1995 C2007 0.950 . S
C1996 H1988 0.950 . S
C1996 C1997 1.386 . S
C1996 C1998 1.391 . S
C1997 C1996 1.386 . S
C1997 C2001 1.393 . S
C1998 H1990 0.950 . S
C1998 C1996 1.391 . S
C1998 C1999 1.400 . S
C1999 C1998 1.400 . S
C1999 C2000 1.398 . S
C1999 C2005 1.491 . S
C2000 H1991 0.950 . S
C2000 C1999 1.398 . S
C2000 C2001 1.391 . S
C2001 H1989 0.950 . S
C2001 C1997 1.393 . S
C2001 C2000 1.391 . S
C2002 H1992 0.950 . S
C2002 C2003 1.386 . S
C2002 C2004 1.391 . S
C2003 C2002 1.386 . S
C2003 C2007 1.393 . S
C2004 H1993 0.950 . S
C2004 C2002 1.391 . S
C2004 C2005 1.400 . S
C2005 C1999 1.491 . S
C2005 C2004 1.400 . S
C2005 C2006 1.398 . S
C2006 H1994 0.950 . S
C2006 C2005 1.398 . S
C2006 C2007 1.391 . S
C2007 H1995 0.950 . S
C2007 C2003 1.393 . S
C2007 C2006 1.391 . S
H2008 C2016 0.950 . S
H2009 C2021 0.950 . S
H2010 C2018 0.950 . S
H2011 C2020 0.950 . S
H2012 C2022 0.950 . S
H2013 C2024 0.950 . S
H2014 C2026 0.950 . S
H2015 C2027 0.950 . S
C2016 H2008 0.950 . S
C2016 C2017 1.386 . S
C2016 C2018 1.391 . S
C2017 C2016 1.386 . S
C2017 C2021 1.393 1_545 S
C2018 H2010 0.950 . S
C2018 C2016 1.391 . S
C2018 C2019 1.400 . S
C2019 C2018 1.400 . S
C2019 C2020 1.398 1_545 S
C2019 C2025 1.491 1_545 S
C2020 H2011 0.950 . S
C2020 C2019 1.398 1_565 S
C2020 C2021 1.391 . S
C2021 H2009 0.950 . S
C2021 C2017 1.393 1_565 S
C2021 C2020 1.391 . S
C2022 H2012 0.950 . S
C2022 C2023 1.386 . S
C2022 C2024 1.391 . S
C2023 C2022 1.386 . S
C2023 C2027 1.393 1_565 S
C2024 H2013 0.950 . S
C2024 C2022 1.391 . S
C2024 C2025 1.400 . S
C2025 C2019 1.491 1_565 S
C2025 C2024 1.400 . S
C2025 C2026 1.398 1_565 S
C2026 H2014 0.950 . S
C2026 C2025 1.398 1_545 S
C2026 C2027 1.391 . S
C2027 H2015 0.950 . S
C2027 C2023 1.393 1_545 S
C2027 C2026 1.391 . S
H2028 C2036 0.950 . S
H2029 C2041 0.950 . S
H2030 C2038 0.950 . S
H2031 C2040 0.950 . S
H2032 C2042 0.950 . S
H2033 C2044 0.950 . S
H2034 C2046 0.950 . S
H2035 C2047 0.950 . S
C2036 H2028 0.950 . S
C2036 C2037 1.386 . S
C2036 C2038 1.391 . S
C2037 C2036 1.386 . S
C2037 C2041 1.393 . S
C2038 H2030 0.950 . S
C2038 C2036 1.391 . S
C2038 C2039 1.400 . S
C2039 C2038 1.400 . S
C2039 C2040 1.398 . S
C2039 C2045 1.491 1_556 S
C2040 H2031 0.950 . S
C2040 C2039 1.398 . S
C2040 C2041 1.391 . S
C2041 H2029 0.950 . S
C2041 C2037 1.393 . S
C2041 C2040 1.391 . S
C2042 H2032 0.950 . S
C2042 C2043 1.386 . S
C2042 C2044 1.391 . S
C2043 C2042 1.386 . S
C2043 C2047 1.393 . S
C2044 H2033 0.950 . S
C2044 C2042 1.391 . S
C2044 C2045 1.400 . S
C2045 C2039 1.491 1_554 S
C2045 C2044 1.400 . S
C2045 C2046 1.398 . S
C2046 H2034 0.950 . S
C2046 C2045 1.398 . S
C2046 C2047 1.391 . S
C2047 H2035 0.950 . S
C2047 C2043 1.393 . S
C2047 C2046 1.391 . S
H2048 C2056 0.950 . S
H2049 C2061 0.950 . S
H2050 C2058 0.950 . S
H2051 C2060 0.950 . S
H2052 C2062 0.950 . S
H2053 C2064 0.950 . S
H2054 C2066 0.950 . S
H2055 C2067 0.950 . S
C2056 H2048 0.950 . S
C2056 C2057 1.386 . S
C2056 C2058 1.391 . S
C2057 C2056 1.386 . S
C2057 C2061 1.393 . S
C2058 H2050 0.950 . S
C2058 C2056 1.391 . S
C2058 C2059 1.400 . S
C2059 C2058 1.400 . S
C2059 C2060 1.398 . S
C2059 C2065 1.491 . S
C2060 H2051 0.950 . S
C2060 C2059 1.398 . S
C2060 C2061 1.391 . S
C2061 H2049 0.950 . S
C2061 C2057 1.393 . S
C2061 C2060 1.391 . S
C2062 H2052 0.950 . S
C2062 C2063 1.386 . S
C2062 C2064 1.391 . S
C2063 C2062 1.386 . S
C2063 C2067 1.393 . S
C2064 H2053 0.950 . S
C2064 C2062 1.391 . S
C2064 C2065 1.400 . S
C2065 C2059 1.491 . S
C2065 C2064 1.400 . S
C2065 C2066 1.398 . S
C2066 H2054 0.950 . S
C2066 C2065 1.398 . S
C2066 C2067 1.391 . S
C2067 H2055 0.950 . S
C2067 C2063 1.393 . S
C2067 C2066 1.391 . S
H2068 C2076 0.950 . S
H2069 C2081 0.950 . S
H2070 C2078 0.950 . S
H2071 C2080 0.950 . S
H2072 C2082 0.950 . S
H2073 C2084 0.950 . S
H2074 C2086 0.950 . S
H2075 C2087 0.950 . S
C2076 H2068 0.950 . S
C2076 C2077 1.386 . S
C2076 C2078 1.391 . S
C2077 C2076 1.386 . S
C2077 C2081 1.393 . S
C2078 H2070 0.950 . S
C2078 C2076 1.391 . S
C2078 C2079 1.400 . S
C2079 C2078 1.400 . S
C2079 C2080 1.398 . S
C2079 C2085 1.491 1_554 S
C2080 H2071 0.950 . S
C2080 C2079 1.398 . S
C2080 C2081 1.391 . S
C2081 H2069 0.950 . S
C2081 C2077 1.393 . S
C2081 C2080 1.391 . S
C2082 H2072 0.950 . S
C2082 C2083 1.386 . S
C2082 C2084 1.391 . S
C2083 C2082 1.386 . S
C2083 C2087 1.393 . S
C2084 H2073 0.950 . S
C2084 C2082 1.391 . S
C2084 C2085 1.400 . S
C2085 C2079 1.491 1_556 S
C2085 C2084 1.400 . S
C2085 C2086 1.398 . S
C2086 H2074 0.950 . S
C2086 C2085 1.398 . S
C2086 C2087 1.391 . S
C2087 H2075 0.950 . S
C2087 C2083 1.393 . S
C2087 C2086 1.391 . S
H2088 C2096 0.950 . S
H2089 C2101 0.950 . S
H2090 C2098 0.950 . S
H2091 C2100 0.950 . S
H2092 C2102 0.950 . S
H2093 C2104 0.950 . S
H2094 C2106 0.950 . S
H2095 C2107 0.950 . S
C2096 H2088 0.950 . S
C2096 C2097 1.386 . S
C2096 C2098 1.391 . S
C2097 C2096 1.386 . S
C2097 C2101 1.393 . S
C2098 H2090 0.950 . S
C2098 C2096 1.391 . S
C2098 C2099 1.400 . S
C2099 C2098 1.400 . S
C2099 C2100 1.398 . S
C2099 C2105 1.491 . S
C2100 H2091 0.950 . S
C2100 C2099 1.398 . S
C2100 C2101 1.391 . S
C2101 H2089 0.950 . S
C2101 C2097 1.393 . S
C2101 C2100 1.391 . S
C2102 H2092 0.950 . S
C2102 C2103 1.386 . S
C2102 C2104 1.391 . S
C2103 C2102 1.386 . S
C2103 C2107 1.393 . S
C2104 H2093 0.950 . S
C2104 C2102 1.391 . S
C2104 C2105 1.400 . S
C2105 C2099 1.491 . S
C2105 C2104 1.400 . S
C2105 C2106 1.398 . S
C2106 H2094 0.950 . S
C2106 C2105 1.398 . S
C2106 C2107 1.391 . S
C2107 H2095 0.950 . S
C2107 C2103 1.393 . S
C2107 C2106 1.391 . S
H2108 C2116 0.950 . S
H2109 C2121 0.950 . S
H2110 C2118 0.950 . S
H2111 C2120 0.950 . S
H2112 C2122 0.950 . S
H2113 C2124 0.950 . S
H2114 C2126 0.950 . S
H2115 C2127 0.950 . S
C2116 H2108 0.950 . S
C2116 C2117 1.386 . S
C2116 C2118 1.391 . S
C2117 C2116 1.386 . S
C2117 C2121 1.393 . S
C2118 H2110 0.950 . S
C2118 C2116 1.391 . S
C2118 C2119 1.400 . S
C2119 C2118 1.400 . S
C2119 C2120 1.398 . S
C2119 C2125 1.491 . S
C2120 H2111 0.950 . S
C2120 C2119 1.398 . S
C2120 C2121 1.391 . S
C2121 H2109 0.950 . S
C2121 C2117 1.393 . S
C2121 C2120 1.391 . S
C2122 H2112 0.950 . S
C2122 C2123 1.386 . S
C2122 C2124 1.391 . S
C2123 C2122 1.386 . S
C2123 C2127 1.393 . S
C2124 H2113 0.950 . S
C2124 C2122 1.391 . S
C2124 C2125 1.400 . S
C2125 C2119 1.491 . S
C2125 C2124 1.400 . S
C2125 C2126 1.398 . S
C2126 H2114 0.950 . S
C2126 C2125 1.398 . S
C2126 C2127 1.391 . S
C2127 H2115 0.950 . S
C2127 C2123 1.393 . S
C2127 C2126 1.391 . S
H2128 C2136 0.950 . S
H2129 C2141 0.950 . S
H2130 C2138 0.950 . S
H2131 C2140 0.950 . S
H2132 C2142 0.950 . S
H2133 C2144 0.950 . S
H2134 C2146 0.950 . S
H2135 C2147 0.950 . S
C2136 H2128 0.950 . S
C2136 C2137 1.386 . S
C2136 C2138 1.391 . S
C2137 C2136 1.386 . S
C2137 C2141 1.393 . S
C2138 H2130 0.950 . S
C2138 C2136 1.391 . S
C2138 C2139 1.400 . S
C2139 C2138 1.400 . S
C2139 C2140 1.398 . S
C2139 C2145 1.491 . S
C2140 H2131 0.950 . S
C2140 C2139 1.398 . S
C2140 C2141 1.391 . S
C2141 H2129 0.950 . S
C2141 C2137 1.393 . S
C2141 C2140 1.391 . S
C2142 H2132 0.950 . S
C2142 C2143 1.386 . S
C2142 C2144 1.391 . S
C2143 C2142 1.386 . S
C2143 C2147 1.393 . S
C2144 H2133 0.950 . S
C2144 C2142 1.391 . S
C2144 C2145 1.400 . S
C2145 C2139 1.491 . S
C2145 C2144 1.400 . S
C2145 C2146 1.398 . S
C2146 H2134 0.950 . S
C2146 C2145 1.398 . S
C2146 C2147 1.391 . S
C2147 H2135 0.950 . S
C2147 C2143 1.393 . S
C2147 C2146 1.391 . S
H2148 C2156 0.950 . S
H2149 C2161 0.950 . S
H2150 C2158 0.950 . S
H2151 C2160 0.950 . S
H2152 C2162 0.950 . S
H2153 C2164 0.950 . S
H2154 C2166 0.950 . S
H2155 C2167 0.950 . S
C2156 H2148 0.950 . S
C2156 C2157 1.386 . S
C2156 C2158 1.391 . S
C2157 C2156 1.386 . S
C2157 C2161 1.393 . S
C2158 H2150 0.950 . S
C2158 C2156 1.391 . S
C2158 C2159 1.400 . S
C2159 C2158 1.400 . S
C2159 C2160 1.398 . S
C2159 C2165 1.491 1_554 S
C2160 H2151 0.950 . S
C2160 C2159 1.398 . S
C2160 C2161 1.391 . S
C2161 H2149 0.950 . S
C2161 C2157 1.393 . S
C2161 C2160 1.391 . S
C2162 H2152 0.950 . S
C2162 C2163 1.386 . S
C2162 C2164 1.391 . S
C2163 C2162 1.386 . S
C2163 C2167 1.393 . S
C2164 H2153 0.950 . S
C2164 C2162 1.391 . S
C2164 C2165 1.400 . S
C2165 C2159 1.491 1_556 S
C2165 C2164 1.400 . S
C2165 C2166 1.398 . S
C2166 H2154 0.950 . S
C2166 C2165 1.398 . S
C2166 C2167 1.391 . S
C2167 H2155 0.950 . S
C2167 C2163 1.393 . S
C2167 C2166 1.391 . S
H2168 C2176 0.950 . S
H2169 C2181 0.950 . S
H2170 C2178 0.950 . S
H2171 C2180 0.950 . S
H2172 C2182 0.950 . S
H2173 C2184 0.950 . S
H2174 C2186 0.950 . S
H2175 C2187 0.950 . S
C2176 H2168 0.950 . S
C2176 C2177 1.386 . S
C2176 C2178 1.391 . S
C2177 C2176 1.386 . S
C2177 C2181 1.393 . S
C2178 H2170 0.950 . S
C2178 C2176 1.391 . S
C2178 C2179 1.400 . S
C2179 C2178 1.400 . S
C2179 C2180 1.398 . S
C2179 C2185 1.491 . S
C2180 H2171 0.950 . S
C2180 C2179 1.398 . S
C2180 C2181 1.391 . S
C2181 H2169 0.950 . S
C2181 C2177 1.393 . S
C2181 C2180 1.391 . S
C2182 H2172 0.950 . S
C2182 C2183 1.386 . S
C2182 C2184 1.391 . S
C2183 C2182 1.386 . S
C2183 C2187 1.393 . S
C2184 H2173 0.950 . S
C2184 C2182 1.391 . S
C2184 C2185 1.400 . S
C2185 C2179 1.491 . S
C2185 C2184 1.400 . S
C2185 C2186 1.398 . S
C2186 H2174 0.950 . S
C2186 C2185 1.398 . S
C2186 C2187 1.391 . S
C2187 H2175 0.950 . S
C2187 C2183 1.393 . S
C2187 C2186 1.391 . S
H2188 C2196 0.950 . S
H2189 C2201 0.950 . S
H2190 C2198 0.950 . S
H2191 C2200 0.950 . S
H2192 C2202 0.950 . S
H2193 C2204 0.950 . S
H2194 C2206 0.950 . S
H2195 C2207 0.950 . S
C2196 H2188 0.950 . S
C2196 C2197 1.386 . S
C2196 C2198 1.391 . S
C2197 C2196 1.386 . S
C2197 C2201 1.393 . S
C2198 H2190 0.950 . S
C2198 C2196 1.391 . S
C2198 C2199 1.400 . S
C2199 C2198 1.400 . S
C2199 C2200 1.398 . S
C2199 C2205 1.491 . S
C2200 H2191 0.950 . S
C2200 C2199 1.398 . S
C2200 C2201 1.391 . S
C2201 H2189 0.950 . S
C2201 C2197 1.393 . S
C2201 C2200 1.391 . S
C2202 H2192 0.950 . S
C2202 C2203 1.386 . S
C2202 C2204 1.391 . S
C2203 C2202 1.386 . S
C2203 C2207 1.393 . S
C2204 H2193 0.950 . S
C2204 C2202 1.391 . S
C2204 C2205 1.400 . S
C2205 C2199 1.491 . S
C2205 C2204 1.400 . S
C2205 C2206 1.398 . S
C2206 H2194 0.950 . S
C2206 C2205 1.398 . S
C2206 C2207 1.391 . S
C2207 H2195 0.950 . S
C2207 C2203 1.393 . S
C2207 C2206 1.391 . S
H2208 C2216 0.950 . S
H2209 C2221 0.950 1_545 S
H2210 C2218 0.950 . S
H2211 C2220 0.950 . S
H2212 C2222 0.950 . S
H2213 C2224 0.950 . S
H2214 C2226 0.950 . S
H2215 C2227 0.950 . S
C2216 H2208 0.950 . S
C2216 C2217 1.386 . S
C2216 C2218 1.391 . S
C2217 C2216 1.386 . S
C2217 C2221 1.393 . S
C2218 H2210 0.950 . S
C2218 C2216 1.391 . S
C2218 C2219 1.400 . S
C2219 C2218 1.400 . S
C2219 C2220 1.398 . S
C2219 C2225 1.491 . S
C2220 H2211 0.950 . S
C2220 C2219 1.398 . S
C2220 C2221 1.391 . S
C2221 H2209 0.950 1_565 S
C2221 C2217 1.393 . S
C2221 C2220 1.391 . S
C2222 H2212 0.950 . S
C2222 C2223 1.386 . S
C2222 C2224 1.391 . S
C2223 C2222 1.386 . S
C2223 C2227 1.393 . S
C2224 H2213 0.950 . S
C2224 C2222 1.391 . S
C2224 C2225 1.400 . S
C2225 C2219 1.491 . S
C2225 C2224 1.400 . S
C2225 C2226 1.398 . S
C2226 H2214 0.950 . S
C2226 C2225 1.398 . S
C2226 C2227 1.391 . S
C2227 H2215 0.950 . S
C2227 C2223 1.393 . S
C2227 C2226 1.391 . S
H2228 C2236 0.950 . S
H2229 C2241 0.950 . S
H2230 C2238 0.950 . S
H2231 C2240 0.950 . S
H2232 C2242 0.950 1_565 S
H2233 C2244 0.950 . S
H2234 C2246 0.950 . S
H2235 C2247 0.950 . S
C2236 H2228 0.950 . S
C2236 C2237 1.386 . S
C2236 C2238 1.391 . S
C2237 C2236 1.386 . S
C2237 C2241 1.393 . S
C2238 H2230 0.950 . S
C2238 C2236 1.391 . S
C2238 C2239 1.400 . S
C2239 C2238 1.400 . S
C2239 C2240 1.398 . S
C2239 C2245 1.491 . S
C2240 H2231 0.950 . S
C2240 C2239 1.398 . S
C2240 C2241 1.391 . S
C2241 H2229 0.950 . S
C2241 C2237 1.393 . S
C2241 C2240 1.391 . S
C2242 H2232 0.950 1_545 S
C2242 C2243 1.386 . S
C2242 C2244 1.391 . S
C2243 C2242 1.386 . S
C2243 C2247 1.393 . S
C2244 H2233 0.950 . S
C2244 C2242 1.391 . S
C2244 C2245 1.400 . S
C2245 C2239 1.491 . S
C2245 C2244 1.400 . S
C2245 C2246 1.398 . S
C2246 H2234 0.950 . S
C2246 C2245 1.398 . S
C2246 C2247 1.391 . S
C2247 H2235 0.950 . S
C2247 C2243 1.393 . S
C2247 C2246 1.391 . S
H2248 C2256 0.950 . S
H2249 C2261 0.950 1_565 S
H2250 C2258 0.950 . S
H2251 C2260 0.950 . S
H2252 C2262 0.950 . S
H2253 C2264 0.950 . S
H2254 C2266 0.950 . S
H2255 C2267 0.950 . S
C2256 H2248 0.950 . S
C2256 C2257 1.386 . S
C2256 C2258 1.391 . S
C2257 C2256 1.386 . S
C2257 C2261 1.393 . S
C2258 H2250 0.950 . S
C2258 C2256 1.391 . S
C2258 C2259 1.400 . S
C2259 C2258 1.400 . S
C2259 C2260 1.398 . S
C2259 C2265 1.491 . S
C2260 H2251 0.950 . S
C2260 C2259 1.398 . S
C2260 C2261 1.391 . S
C2261 H2249 0.950 1_545 S
C2261 C2257 1.393 . S
C2261 C2260 1.391 . S
C2262 H2252 0.950 . S
C2262 C2263 1.386 . S
C2262 C2264 1.391 . S
C2263 C2262 1.386 . S
C2263 C2267 1.393 . S
C2264 H2253 0.950 . S
C2264 C2262 1.391 . S
C2264 C2265 1.400 . S
C2265 C2259 1.491 . S
C2265 C2264 1.400 . S
C2265 C2266 1.398 . S
C2266 H2254 0.950 . S
C2266 C2265 1.398 . S
C2266 C2267 1.391 . S
C2267 H2255 0.950 . S
C2267 C2263 1.393 . S
C2267 C2266 1.391 . S
H2268 C2276 0.950 1_545 S
H2269 C2281 0.950 . S
H2270 C2278 0.950 . S
H2271 C2280 0.950 . S
H2272 C2282 0.950 . S
H2273 C2284 0.950 . S
H2274 C2286 0.950 . S
H2275 C2287 0.950 . S
C2276 H2268 0.950 1_565 S
C2276 C2277 1.386 . S
C2276 C2278 1.391 . S
C2277 C2276 1.386 . S
C2277 C2281 1.393 . S
C2278 H2270 0.950 . S
C2278 C2276 1.391 . S
C2278 C2279 1.400 . S
C2279 C2278 1.400 . S
C2279 C2280 1.398 . S
C2279 C2285 1.491 . S
C2280 H2271 0.950 . S
C2280 C2279 1.398 . S
C2280 C2281 1.391 . S
C2281 H2269 0.950 . S
C2281 C2277 1.393 . S
C2281 C2280 1.391 . S
C2282 H2272 0.950 . S
C2282 C2283 1.386 . S
C2282 C2284 1.391 . S
C2283 C2282 1.386 . S
C2283 C2287 1.393 . S
C2284 H2273 0.950 . S
C2284 C2282 1.391 . S
C2284 C2285 1.400 . S
C2285 C2279 1.491 . S
C2285 C2284 1.400 . S
C2285 C2286 1.398 . S
C2286 H2274 0.950 . S
C2286 C2285 1.398 . S
C2286 C2287 1.391 . S
C2287 H2275 0.950 . S
C2287 C2283 1.393 . S
C2287 C2286 1.391 . S
H2288 C2296 0.950 . S
H2289 C2301 0.950 . S
H2290 C2298 0.950 . S
H2291 C2300 0.950 . S
H2292 C2302 0.950 1_565 S
H2293 C2304 0.950 . S
H2294 C2306 0.950 . S
H2295 C2307 0.950 . S
C2296 H2288 0.950 . S
C2296 C2297 1.386 . S
C2296 C2298 1.391 . S
C2297 C2296 1.386 . S
C2297 C2301 1.393 . S
C2298 H2290 0.950 . S
C2298 C2296 1.391 . S
C2298 C2299 1.400 . S
C2299 C2298 1.400 . S
C2299 C2300 1.398 . S
C2299 C2305 1.491 . S
C2300 H2291 0.950 . S
C2300 C2299 1.398 . S
C2300 C2301 1.391 . S
C2301 H2289 0.950 . S
C2301 C2297 1.393 . S
C2301 C2300 1.391 . S
C2302 H2292 0.950 1_545 S
C2302 C2303 1.386 . S
C2302 C2304 1.391 . S
C2303 C2302 1.386 . S
C2303 C2307 1.393 . S
C2304 H2293 0.950 . S
C2304 C2302 1.391 . S
C2304 C2305 1.400 . S
C2305 C2299 1.491 . S
C2305 C2304 1.400 . S
C2305 C2306 1.398 . S
C2306 H2294 0.950 . S
C2306 C2305 1.398 . S
C2306 C2307 1.391 . S
C2307 H2295 0.950 . S
C2307 C2303 1.393 . S
C2307 C2306 1.391 . S
H2308 C2316 0.950 . S
H2309 C2321 0.950 . S
H2310 C2318 0.950 . S
H2311 C2320 0.950 . S
H2312 C2322 0.950 . S
H2313 C2324 0.950 . S
H2314 C2326 0.950 . S
H2315 C2327 0.950 . S
C2316 H2308 0.950 . S
C2316 C2317 1.386 . S
C2316 C2318 1.391 . S
C2317 C2316 1.386 . S
C2317 C2321 1.393 . S
C2318 H2310 0.950 . S
C2318 C2316 1.391 . S
C2318 C2319 1.400 . S
C2319 C2318 1.400 . S
C2319 C2320 1.398 . S
C2319 C2325 1.491 . S
C2320 H2311 0.950 . S
C2320 C2319 1.398 . S
C2320 C2321 1.391 . S
C2321 H2309 0.950 . S
C2321 C2317 1.393 . S
C2321 C2320 1.391 . S
C2322 H2312 0.950 . S
C2322 C2323 1.386 . S
C2322 C2324 1.391 . S
C2323 C2322 1.386 . S
C2323 C2327 1.393 . S
C2324 H2313 0.950 . S
C2324 C2322 1.391 . S
C2324 C2325 1.400 . S
C2325 C2319 1.491 . S
C2325 C2324 1.400 . S
C2325 C2326 1.398 . S
C2326 H2314 0.950 . S
C2326 C2325 1.398 . S
C2326 C2327 1.391 . S
C2327 H2315 0.950 . S
C2327 C2323 1.393 . S
C2327 C2326 1.391 . S
H2328 C2336 0.950 . S
H2329 C2341 0.950 . S
H2330 C2338 0.950 . S
H2331 C2340 0.950 . S
H2332 C2342 0.950 . S
H2333 C2344 0.950 . S
H2334 C2346 0.950 . S
H2335 C2347 0.950 1_545 S
C2336 H2328 0.950 . S
C2336 C2337 1.386 . S
C2336 C2338 1.391 . S
C2337 C2336 1.386 . S
C2337 C2341 1.393 . S
C2338 H2330 0.950 . S
C2338 C2336 1.391 . S
C2338 C2339 1.400 . S
C2339 C2338 1.400 . S
C2339 C2340 1.398 . S
C2339 C2345 1.491 . S
C2340 H2331 0.950 . S
C2340 C2339 1.398 . S
C2340 C2341 1.391 . S
C2341 H2329 0.950 . S
C2341 C2337 1.393 . S
C2341 C2340 1.391 . S
C2342 H2332 0.950 . S
C2342 C2343 1.386 . S
C2342 C2344 1.391 . S
C2343 C2342 1.386 . S
C2343 C2347 1.393 . S
C2344 H2333 0.950 . S
C2344 C2342 1.391 . S
C2344 C2345 1.400 . S
C2345 C2339 1.491 . S
C2345 C2344 1.400 . S
C2345 C2346 1.398 . S
C2346 H2334 0.950 . S
C2346 C2345 1.398 . S
C2346 C2347 1.391 . S
C2347 H2335 0.950 1_565 S
C2347 C2343 1.393 . S
C2347 C2346 1.391 . S
H2348 C2356 0.950 . S
H2349 C2361 0.950 . S
H2350 C2358 0.950 . S
H2351 C2360 0.950 . S
H2352 C2362 0.950 . S
H2353 C2364 0.950 . S
H2354 C2366 0.950 . S
H2355 C2367 0.950 1_565 S
C2356 H2348 0.950 . S
C2356 C2357 1.386 . S
C2356 C2358 1.391 . S
C2357 C2356 1.386 . S
C2357 C2361 1.393 . S
C2358 H2350 0.950 . S
C2358 C2356 1.391 . S
C2358 C2359 1.400 . S
C2359 C2358 1.400 . S
C2359 C2360 1.398 . S
C2359 C2365 1.491 . S
C2360 H2351 0.950 . S
C2360 C2359 1.398 . S
C2360 C2361 1.391 . S
C2361 H2349 0.950 . S
C2361 C2357 1.393 . S
C2361 C2360 1.391 . S
C2362 H2352 0.950 . S
C2362 C2363 1.386 . S
C2362 C2364 1.391 . S
C2363 C2362 1.386 . S
C2363 C2367 1.393 . S
C2364 H2353 0.950 . S
C2364 C2362 1.391 . S
C2364 C2365 1.400 . S
C2365 C2359 1.491 . S
C2365 C2364 1.400 . S
C2365 C2366 1.398 . S
C2366 H2354 0.950 . S
C2366 C2365 1.398 . S
C2366 C2367 1.391 . S
C2367 H2355 0.950 1_545 S
C2367 C2363 1.393 . S
C2367 C2366 1.391 . S
H2368 C2376 0.950 . S
H2369 C2381 0.950 . S
H2370 C2378 0.950 . S
H2371 C2380 0.950 . S
H2372 C2382 0.950 . S
H2373 C2384 0.950 . S
H2374 C2386 0.950 . S
H2375 C2387 0.950 . S
C2376 H2368 0.950 . S
C2376 C2377 1.386 . S
C2376 C2378 1.391 . S
C2377 C2376 1.386 . S
C2377 C2381 1.393 . S
C2378 H2370 0.950 . S
C2378 C2376 1.391 . S
C2378 C2379 1.400 . S
C2379 C2378 1.400 . S
C2379 C2380 1.398 . S
C2379 C2385 1.491 . S
C2380 H2371 0.950 . S
C2380 C2379 1.398 . S
C2380 C2381 1.391 . S
C2381 H2369 0.950 . S
C2381 C2377 1.393 . S
C2381 C2380 1.391 . S
C2382 H2372 0.950 . S
C2382 C2383 1.386 . S
C2382 C2384 1.391 . S
C2383 C2382 1.386 . S
C2383 C2387 1.393 . S
C2384 H2373 0.950 . S
C2384 C2382 1.391 . S
C2384 C2385 1.400 . S
C2385 C2379 1.491 . S
C2385 C2384 1.400 . S
C2385 C2386 1.398 . S
C2386 H2374 0.950 . S
C2386 C2385 1.398 . S
C2386 C2387 1.391 . S
C2387 H2375 0.950 . S
C2387 C2383 1.393 . S
C2387 C2386 1.391 . S
H2388 C2396 0.950 . S
H2389 C2401 0.950 . S
H2390 C2398 0.950 . S
H2391 C2400 0.950 . S
H2392 C2402 0.950 . S
H2393 C2404 0.950 . S
H2394 C2406 0.950 . S
H2395 C2407 0.950 . S
C2396 H2388 0.950 . S
C2396 C2397 1.386 . S
C2396 C2398 1.391 . S
C2397 C2396 1.386 . S
C2397 C2401 1.393 . S
C2398 H2390 0.950 . S
C2398 C2396 1.391 . S
C2398 C2399 1.400 . S
C2399 C2398 1.400 . S
C2399 C2400 1.398 . S
C2399 C2405 1.491 . S
C2400 H2391 0.950 . S
C2400 C2399 1.398 . S
C2400 C2401 1.391 . S
C2401 H2389 0.950 . S
C2401 C2397 1.393 . S
C2401 C2400 1.391 . S
C2402 H2392 0.950 . S
C2402 C2403 1.386 . S
C2402 C2404 1.391 . S
C2403 C2402 1.386 . S
C2403 C2407 1.393 . S
C2404 H2393 0.950 . S
C2404 C2402 1.391 . S
C2404 C2405 1.400 . S
C2405 C2399 1.491 . S
C2405 C2404 1.400 . S
C2405 C2406 1.398 . S
C2406 H2394 0.950 . S
C2406 C2405 1.398 . S
C2406 C2407 1.391 . S
C2407 H2395 0.950 . S
C2407 C2403 1.393 . S
C2407 C2406 1.391 . S
H2408 C2416 0.950 . S
H2409 C2421 0.950 . S
H2410 C2418 0.950 . S
H2411 C2420 0.950 . S
H2412 C2422 0.950 . S
H2413 C2424 0.950 . S
H2414 C2426 0.950 . S
H2415 C2427 0.950 . S
C2416 H2408 0.950 . S
C2416 C2417 1.386 . S
C2416 C2418 1.391 . S
C2417 C2416 1.386 . S
C2417 C2421 1.393 . S
C2418 H2410 0.950 . S
C2418 C2416 1.391 . S
C2418 C2419 1.400 . S
C2419 C2418 1.400 . S
C2419 C2420 1.398 . S
C2419 C2425 1.491 . S
C2420 H2411 0.950 . S
C2420 C2419 1.398 . S
C2420 C2421 1.391 . S
C2421 H2409 0.950 . S
C2421 C2417 1.393 . S
C2421 C2420 1.391 . S
C2422 H2412 0.950 . S
C2422 C2423 1.386 . S
C2422 C2424 1.391 . S
C2423 C2422 1.386 . S
C2423 C2427 1.393 . S
C2424 H2413 0.950 . S
C2424 C2422 1.391 . S
C2424 C2425 1.400 . S
C2425 C2419 1.491 . S
C2425 C2424 1.400 . S
C2425 C2426 1.398 . S
C2426 H2414 0.950 . S
C2426 C2425 1.398 . S
C2426 C2427 1.391 . S
C2427 H2415 0.950 . S
C2427 C2423 1.393 . S
C2427 C2426 1.391 . S
H2428 C2436 0.950 . S
H2429 C2441 0.950 . S
H2430 C2438 0.950 . S
H2431 C2440 0.950 . S
H2432 C2442 0.950 . S
H2433 C2444 0.950 . S
H2434 C2446 0.950 . S
H2435 C2447 0.950 . S
C2436 H2428 0.950 . S
C2436 C2437 1.386 . S
C2436 C2438 1.391 . S
C2437 C2436 1.386 . S
C2437 C2441 1.393 . S
C2438 H2430 0.950 . S
C2438 C2436 1.391 . S
C2438 C2439 1.400 . S
C2439 C2438 1.400 . S
C2439 C2440 1.398 . S
C2439 C2445 1.491 . S
C2440 H2431 0.950 . S
C2440 C2439 1.398 . S
C2440 C2441 1.391 . S
C2441 H2429 0.950 . S
C2441 C2437 1.393 . S
C2441 C2440 1.391 . S
C2442 H2432 0.950 . S
C2442 C2443 1.386 . S
C2442 C2444 1.391 . S
C2443 C2442 1.386 . S
C2443 C2447 1.393 . S
C2444 H2433 0.950 . S
C2444 C2442 1.391 . S
C2444 C2445 1.400 . S
C2445 C2439 1.491 . S
C2445 C2444 1.400 . S
C2445 C2446 1.398 . S
C2446 H2434 0.950 . S
C2446 C2445 1.398 . S
C2446 C2447 1.391 . S
C2447 H2435 0.950 . S
C2447 C2443 1.393 . S
C2447 C2446 1.391 . S
H2448 C2456 0.950 . S
H2449 C2461 0.950 . S
H2450 C2458 0.950 . S
H2451 C2460 0.950 . S
H2452 C2462 0.950 . S
H2453 C2464 0.950 . S
H2454 C2466 0.950 . S
H2455 C2467 0.950 . S
C2456 H2448 0.950 . S
C2456 C2457 1.386 . S
C2456 C2458 1.391 . S
C2457 C2456 1.386 . S
C2457 C2461 1.393 . S
C2458 H2450 0.950 . S
C2458 C2456 1.391 . S
C2458 C2459 1.400 . S
C2459 C2458 1.400 . S
C2459 C2460 1.398 . S
C2459 C2465 1.491 . S
C2460 H2451 0.950 . S
C2460 C2459 1.398 . S
C2460 C2461 1.391 . S
C2461 H2449 0.950 . S
C2461 C2457 1.393 . S
C2461 C2460 1.391 . S
C2462 H2452 0.950 . S
C2462 C2463 1.386 . S
C2462 C2464 1.391 . S
C2463 C2462 1.386 . S
C2463 C2467 1.393 . S
C2464 H2453 0.950 . S
C2464 C2462 1.391 . S
C2464 C2465 1.400 . S
C2465 C2459 1.491 . S
C2465 C2464 1.400 . S
C2465 C2466 1.398 . S
C2466 H2454 0.950 . S
C2466 C2465 1.398 . S
C2466 C2467 1.391 . S
C2467 H2455 0.950 . S
C2467 C2463 1.393 . S
C2467 C2466 1.391 . S
H2468 C2476 0.950 . S
H2469 C2481 0.950 . S
H2470 C2478 0.950 . S
H2471 C2480 0.950 . S
H2472 C2482 0.950 . S
H2473 C2484 0.950 . S
H2474 C2486 0.950 . S
H2475 C2487 0.950 . S
C2476 H2468 0.950 . S
C2476 C2477 1.386 . S
C2476 C2478 1.391 . S
C2477 C2476 1.386 . S
C2477 C2481 1.393 . S
C2478 H2470 0.950 . S
C2478 C2476 1.391 . S
C2478 C2479 1.400 . S
C2479 C2478 1.400 . S
C2479 C2480 1.398 . S
C2479 C2485 1.491 . S
C2480 H2471 0.950 . S
C2480 C2479 1.398 . S
C2480 C2481 1.391 . S
C2481 H2469 0.950 . S
C2481 C2477 1.393 . S
C2481 C2480 1.391 . S
C2482 H2472 0.950 . S
C2482 C2483 1.386 . S
C2482 C2484 1.391 . S
C2483 C2482 1.386 . S
C2483 C2487 1.393 . S
C2484 H2473 0.950 . S
C2484 C2482 1.391 . S
C2484 C2485 1.400 . S
C2485 C2479 1.491 . S
C2485 C2484 1.400 . S
C2485 C2486 1.398 . S
C2486 H2474 0.950 . S
C2486 C2485 1.398 . S
C2486 C2487 1.391 . S
C2487 H2475 0.950 . S
C2487 C2483 1.393 . S
C2487 C2486 1.391 . S
H2488 C2496 0.950 . S
H2489 C2501 0.950 . S
H2490 C2498 0.950 . S
H2491 C2500 0.950 . S
H2492 C2502 0.950 . S
H2493 C2504 0.950 . S
H2494 C2506 0.950 . S
H2495 C2507 0.950 . S
C2496 H2488 0.950 . S
C2496 C2497 1.386 . S
C2496 C2498 1.391 . S
C2497 C2496 1.386 . S
C2497 C2501 1.393 . S
C2498 H2490 0.950 . S
C2498 C2496 1.391 . S
C2498 C2499 1.400 . S
C2499 C2498 1.400 . S
C2499 C2500 1.398 . S
C2499 C2505 1.491 . S
C2500 H2491 0.950 . S
C2500 C2499 1.398 . S
C2500 C2501 1.391 . S
C2501 H2489 0.950 . S
C2501 C2497 1.393 . S
C2501 C2500 1.391 . S
C2502 H2492 0.950 . S
C2502 C2503 1.386 . S
C2502 C2504 1.391 . S
C2503 C2502 1.386 . S
C2503 C2507 1.393 . S
C2504 H2493 0.950 . S
C2504 C2502 1.391 . S
C2504 C2505 1.400 . S
C2505 C2499 1.491 . S
C2505 C2504 1.400 . S
C2505 C2506 1.398 . S
C2506 H2494 0.950 . S
C2506 C2505 1.398 . S
C2506 C2507 1.391 . S
C2507 H2495 0.950 . S
C2507 C2503 1.393 . S
C2507 C2506 1.391 . S
H2508 C2516 0.950 . S
H2509 C2521 0.950 . S
H2510 C2518 0.950 . S
H2511 C2520 0.950 . S
H2512 C2522 0.950 . S
H2513 C2524 0.950 . S
H2514 C2526 0.950 . S
H2515 C2527 0.950 . S
C2516 H2508 0.950 . S
C2516 C2517 1.386 . S
C2516 C2518 1.391 . S
C2517 C2516 1.386 . S
C2517 C2521 1.393 . S
C2518 H2510 0.950 . S
C2518 C2516 1.391 . S
C2518 C2519 1.400 . S
C2519 C2518 1.400 . S
C2519 C2520 1.398 . S
C2519 C2525 1.491 . S
C2520 H2511 0.950 . S
C2520 C2519 1.398 . S
C2520 C2521 1.391 . S
C2521 H2509 0.950 . S
C2521 C2517 1.393 . S
C2521 C2520 1.391 . S
C2522 H2512 0.950 . S
C2522 C2523 1.386 . S
C2522 C2524 1.391 . S
C2523 C2522 1.386 . S
C2523 C2527 1.393 . S
C2524 H2513 0.950 . S
C2524 C2522 1.391 . S
C2524 C2525 1.400 . S
C2525 C2519 1.491 . S
C2525 C2524 1.400 . S
C2525 C2526 1.398 . S
C2526 H2514 0.950 . S
C2526 C2525 1.398 . S
C2526 C2527 1.391 . S
C2527 H2515 0.950 . S
C2527 C2523 1.393 . S
C2527 C2526 1.391 . S
H2528 C2536 0.950 . S
H2529 C2541 0.950 . S
H2530 C2538 0.950 . S
H2531 C2540 0.950 . S
H2532 C2542 0.950 . S
H2533 C2544 0.950 . S
H2534 C2546 0.950 . S
H2535 C2547 0.950 . S
C2536 H2528 0.950 . S
C2536 C2537 1.386 . S
C2536 C2538 1.391 . S
C2537 C2536 1.386 . S
C2537 C2541 1.393 . S
C2538 H2530 0.950 . S
C2538 C2536 1.391 . S
C2538 C2539 1.400 . S
C2539 C2538 1.400 . S
C2539 C2540 1.398 . S
C2539 C2545 1.491 . S
C2540 H2531 0.950 . S
C2540 C2539 1.398 . S
C2540 C2541 1.391 . S
C2541 H2529 0.950 . S
C2541 C2537 1.393 . S
C2541 C2540 1.391 . S
C2542 H2532 0.950 . S
C2542 C2543 1.386 . S
C2542 C2544 1.391 . S
C2543 C2542 1.386 . S
C2543 C2547 1.393 . S
C2544 H2533 0.950 . S
C2544 C2542 1.391 . S
C2544 C2545 1.400 . S
C2545 C2539 1.491 . S
C2545 C2544 1.400 . S
C2545 C2546 1.398 . S
C2546 H2534 0.950 . S
C2546 C2545 1.398 . S
C2546 C2547 1.391 . S
C2547 H2535 0.950 . S
C2547 C2543 1.393 . S
C2547 C2546 1.391 . S
H2548 C2556 0.950 . S
H2549 C2561 0.950 . S
H2550 C2558 0.950 . S
H2551 C2560 0.950 . S
H2552 C2562 0.950 . S
H2553 C2564 0.950 . S
H2554 C2566 0.950 . S
H2555 C2567 0.950 . S
C2556 H2548 0.950 . S
C2556 C2557 1.386 . S
C2556 C2558 1.391 . S
C2557 C2556 1.386 . S
C2557 C2561 1.393 . S
C2558 H2550 0.950 . S
C2558 C2556 1.391 . S
C2558 C2559 1.400 . S
C2559 C2558 1.400 . S
C2559 C2560 1.398 . S
C2559 C2565 1.491 . S
C2560 H2551 0.950 . S
C2560 C2559 1.398 . S
C2560 C2561 1.391 . S
C2561 H2549 0.950 . S
C2561 C2557 1.393 . S
C2561 C2560 1.391 . S
C2562 H2552 0.950 . S
C2562 C2563 1.386 . S
C2562 C2564 1.391 . S
C2563 C2562 1.386 . S
C2563 C2567 1.393 . S
C2564 H2553 0.950 . S
C2564 C2562 1.391 . S
C2564 C2565 1.400 . S
C2565 C2559 1.491 . S
C2565 C2564 1.400 . S
C2565 C2566 1.398 . S
C2566 H2554 0.950 . S
C2566 C2565 1.398 . S
C2566 C2567 1.391 . S
C2567 H2555 0.950 . S
C2567 C2563 1.393 . S
C2567 C2566 1.391 . S
H2568 C2576 0.950 . S
H2569 C2581 0.950 . S
H2570 C2578 0.950 . S
H2571 C2580 0.950 . S
H2572 C2582 0.950 . S
H2573 C2584 0.950 . S
H2574 C2586 0.950 . S
H2575 C2587 0.950 . S
C2576 H2568 0.950 . S
C2576 C2577 1.386 . S
C2576 C2578 1.391 . S
C2577 C2576 1.386 . S
C2577 C2581 1.393 . S
C2578 H2570 0.950 . S
C2578 C2576 1.391 . S
C2578 C2579 1.400 . S
C2579 C2578 1.400 . S
C2579 C2580 1.398 . S
C2579 C2585 1.491 . S
C2580 H2571 0.950 . S
C2580 C2579 1.398 . S
C2580 C2581 1.391 . S
C2581 H2569 0.950 . S
C2581 C2577 1.393 . S
C2581 C2580 1.391 . S
C2582 H2572 0.950 . S
C2582 C2583 1.386 . S
C2582 C2584 1.391 . S
C2583 C2582 1.386 . S
C2583 C2587 1.393 . S
C2584 H2573 0.950 . S
C2584 C2582 1.391 . S
C2584 C2585 1.400 . S
C2585 C2579 1.491 . S
C2585 C2584 1.400 . S
C2585 C2586 1.398 . S
C2586 H2574 0.950 . S
C2586 C2585 1.398 . S
C2586 C2587 1.391 . S
C2587 H2575 0.950 . S
C2587 C2583 1.393 . S
C2587 C2586 1.391 . S
H2588 C2596 0.950 . S
H2589 C2601 0.950 . S
H2590 C2598 0.950 . S
H2591 C2600 0.950 . S
H2592 C2602 0.950 . S
H2593 C2604 0.950 . S
H2594 C2606 0.950 . S
H2595 C2607 0.950 . S
C2596 H2588 0.950 . S
C2596 C2597 1.386 . S
C2596 C2598 1.391 . S
C2597 C2596 1.386 . S
C2597 C2601 1.393 . S
C2598 H2590 0.950 . S
C2598 C2596 1.391 . S
C2598 C2599 1.400 . S
C2599 C2598 1.400 . S
C2599 C2600 1.398 . S
C2599 C2605 1.491 . S
C2600 H2591 0.950 . S
C2600 C2599 1.398 . S
C2600 C2601 1.391 . S
C2601 H2589 0.950 . S
C2601 C2597 1.393 . S
C2601 C2600 1.391 . S
C2602 H2592 0.950 . S
C2602 C2603 1.386 . S
C2602 C2604 1.391 . S
C2603 C2602 1.386 . S
C2603 C2607 1.393 . S
C2604 H2593 0.950 . S
C2604 C2602 1.391 . S
C2604 C2605 1.400 . S
C2605 C2599 1.491 . S
C2605 C2604 1.400 . S
C2605 C2606 1.398 . S
C2606 H2594 0.950 . S
C2606 C2605 1.398 . S
C2606 C2607 1.391 . S
C2607 H2595 0.950 . S
C2607 C2603 1.393 . S
C2607 C2606 1.391 . S
H2608 C2616 0.950 . S
H2609 C2621 0.950 . S
H2610 C2618 0.950 . S
H2611 C2620 0.950 . S
H2612 C2622 0.950 . S
H2613 C2624 0.950 . S
H2614 C2626 0.950 . S
H2615 C2627 0.950 . S
C2616 H2608 0.950 . S
C2616 C2617 1.386 . S
C2616 C2618 1.391 . S
C2617 C2616 1.386 . S
C2617 C2621 1.393 . S
C2618 H2610 0.950 . S
C2618 C2616 1.391 . S
C2618 C2619 1.400 . S
C2619 C2618 1.400 . S
C2619 C2620 1.398 . S
C2619 C2625 1.491 . S
C2620 H2611 0.950 . S
C2620 C2619 1.398 . S
C2620 C2621 1.391 . S
C2621 H2609 0.950 . S
C2621 C2617 1.393 . S
C2621 C2620 1.391 . S
C2622 H2612 0.950 . S
C2622 C2623 1.386 . S
C2622 C2624 1.391 . S
C2623 C2622 1.386 . S
C2623 C2627 1.393 . S
C2624 H2613 0.950 . S
C2624 C2622 1.391 . S
C2624 C2625 1.400 . S
C2625 C2619 1.491 . S
C2625 C2624 1.400 . S
C2625 C2626 1.398 . S
C2626 H2614 0.950 . S
C2626 C2625 1.398 . S
C2626 C2627 1.391 . S
C2627 H2615 0.950 . S
C2627 C2623 1.393 . S
C2627 C2626 1.391 . S
H2628 C2636 0.950 . S
H2629 C2641 0.950 . S
H2630 C2638 0.950 . S
H2631 C2640 0.950 . S
H2632 C2642 0.950 . S
H2633 C2644 0.950 . S
H2634 C2646 0.950 . S
H2635 C2647 0.950 . S
C2636 H2628 0.950 . S
C2636 C2637 1.386 . S
C2636 C2638 1.391 . S
C2637 C2636 1.386 . S
C2637 C2641 1.393 . S
C2638 H2630 0.950 . S
C2638 C2636 1.391 . S
C2638 C2639 1.400 . S
C2639 C2638 1.400 . S
C2639 C2640 1.398 . S
C2639 C2645 1.491 . S
C2640 H2631 0.950 . S
C2640 C2639 1.398 . S
C2640 C2641 1.391 . S
C2641 H2629 0.950 . S
C2641 C2637 1.393 . S
C2641 C2640 1.391 . S
C2642 H2632 0.950 . S
C2642 C2643 1.386 . S
C2642 C2644 1.391 . S
C2643 C2642 1.386 . S
C2643 C2647 1.393 . S
C2644 H2633 0.950 . S
C2644 C2642 1.391 . S
C2644 C2645 1.400 . S
C2645 C2639 1.491 . S
C2645 C2644 1.400 . S
C2645 C2646 1.398 . S
C2646 H2634 0.950 . S
C2646 C2645 1.398 . S
C2646 C2647 1.391 . S
C2647 H2635 0.950 . S
C2647 C2643 1.393 . S
C2647 C2646 1.391 . S
H2648 C2656 0.950 . S
H2649 C2661 0.950 . S
H2650 C2658 0.950 . S
H2651 C2660 0.950 . S
H2652 C2662 0.950 . S
H2653 C2664 0.950 . S
H2654 C2666 0.950 . S
H2655 C2667 0.950 . S
C2656 H2648 0.950 . S
C2656 C2657 1.386 . S
C2656 C2658 1.391 . S
C2657 C2656 1.386 . S
C2657 C2661 1.393 . S
C2658 H2650 0.950 . S
C2658 C2656 1.391 . S
C2658 C2659 1.400 . S
C2659 C2658 1.400 . S
C2659 C2660 1.398 . S
C2659 C2665 1.491 . S
C2660 H2651 0.950 . S
C2660 C2659 1.398 . S
C2660 C2661 1.391 . S
C2661 H2649 0.950 . S
C2661 C2657 1.393 . S
C2661 C2660 1.391 . S
C2662 H2652 0.950 . S
C2662 C2663 1.386 . S
C2662 C2664 1.391 . S
C2663 C2662 1.386 . S
C2663 C2667 1.393 . S
C2664 H2653 0.950 . S
C2664 C2662 1.391 . S
C2664 C2665 1.400 . S
C2665 C2659 1.491 . S
C2665 C2664 1.400 . S
C2665 C2666 1.398 . S
C2666 H2654 0.950 . S
C2666 C2665 1.398 . S
C2666 C2667 1.391 . S
C2667 H2655 0.950 . S
C2667 C2663 1.393 . S
C2667 C2666 1.391 . S
H2668 C2676 0.950 . S
H2669 C2681 0.950 . S
H2670 C2678 0.950 . S
H2671 C2680 0.950 . S
H2672 C2682 0.950 . S
H2673 C2684 0.950 . S
H2674 C2686 0.950 . S
H2675 C2687 0.950 . S
C2676 H2668 0.950 . S
C2676 C2677 1.386 . S
C2676 C2678 1.391 . S
C2677 C2676 1.386 . S
C2677 C2681 1.393 . S
C2678 H2670 0.950 . S
C2678 C2676 1.391 . S
C2678 C2679 1.400 . S
C2679 C2678 1.400 . S
C2679 C2680 1.398 . S
C2679 C2685 1.491 . S
C2680 H2671 0.950 . S
C2680 C2679 1.398 . S
C2680 C2681 1.391 . S
C2681 H2669 0.950 . S
C2681 C2677 1.393 . S
C2681 C2680 1.391 . S
C2682 H2672 0.950 . S
C2682 C2683 1.386 . S
C2682 C2684 1.391 . S
C2683 C2682 1.386 . S
C2683 C2687 1.393 . S
C2684 H2673 0.950 . S
C2684 C2682 1.391 . S
C2684 C2685 1.400 . S
C2685 C2679 1.491 . S
C2685 C2684 1.400 . S
C2685 C2686 1.398 . S
C2686 H2674 0.950 . S
C2686 C2685 1.398 . S
C2686 C2687 1.391 . S
C2687 H2675 0.950 . S
C2687 C2683 1.393 . S
C2687 C2686 1.391 . S
H2688 C2696 0.950 . S
H2689 C2701 0.950 . S
H2690 C2698 0.950 . S
H2691 C2700 0.950 . S
H2692 C2702 0.950 . S
H2693 C2704 0.950 . S
H2694 C2706 0.950 . S
H2695 C2707 0.950 . S
C2696 H2688 0.950 . S
C2696 C2697 1.386 . S
C2696 C2698 1.391 . S
C2697 C2696 1.386 . S
C2697 C2701 1.393 . S
C2698 H2690 0.950 . S
C2698 C2696 1.391 . S
C2698 C2699 1.400 . S
C2699 C2698 1.400 . S
C2699 C2700 1.398 . S
C2699 C2705 1.491 . S
C2700 H2691 0.950 . S
C2700 C2699 1.398 . S
C2700 C2701 1.391 . S
C2701 H2689 0.950 . S
C2701 C2697 1.393 . S
C2701 C2700 1.391 . S
C2702 H2692 0.950 . S
C2702 C2703 1.386 . S
C2702 C2704 1.391 . S
C2703 C2702 1.386 . S
C2703 C2707 1.393 . S
C2704 H2693 0.950 . S
C2704 C2702 1.391 . S
C2704 C2705 1.400 . S
C2705 C2699 1.491 . S
C2705 C2704 1.400 . S
C2705 C2706 1.398 . S
C2706 H2694 0.950 . S
C2706 C2705 1.398 . S
C2706 C2707 1.391 . S
C2707 H2695 0.950 . S
C2707 C2703 1.393 . S
C2707 C2706 1.391 . S
H2708 C2716 0.950 . S
H2709 C2721 0.950 1_455 S
H2710 C2718 0.950 . S
H2711 C2720 0.950 . S
H2712 C2722 0.950 . S
H2713 C2724 0.950 . S
H2714 C2726 0.950 . S
H2715 C2727 0.950 . S
C2716 H2708 0.950 . S
C2716 C2717 1.386 . S
C2716 C2718 1.391 . S
C2717 C2716 1.386 . S
C2717 C2721 1.393 . S
C2718 H2710 0.950 . S
C2718 C2716 1.391 . S
C2718 C2719 1.400 . S
C2719 C2718 1.400 . S
C2719 C2720 1.398 . S
C2719 C2725 1.491 . S
C2720 H2711 0.950 . S
C2720 C2719 1.398 . S
C2720 C2721 1.391 . S
C2721 H2709 0.950 1_655 S
C2721 C2717 1.393 . S
C2721 C2720 1.391 . S
C2722 H2712 0.950 . S
C2722 C2723 1.386 . S
C2722 C2724 1.391 . S
C2723 C2722 1.386 . S
C2723 C2727 1.393 . S
C2724 H2713 0.950 . S
C2724 C2722 1.391 . S
C2724 C2725 1.400 . S
C2725 C2719 1.491 . S
C2725 C2724 1.400 . S
C2725 C2726 1.398 . S
C2726 H2714 0.950 . S
C2726 C2725 1.398 . S
C2726 C2727 1.391 . S
C2727 H2715 0.950 . S
C2727 C2723 1.393 . S
C2727 C2726 1.391 . S
H2728 C2736 0.950 . S
H2729 C2741 0.950 . S
H2730 C2738 0.950 . S
H2731 C2740 0.950 . S
H2732 C2742 0.950 . S
H2733 C2744 0.950 . S
H2734 C2746 0.950 . S
H2735 C2747 0.950 . S
C2736 H2728 0.950 . S
C2736 C2737 1.386 . S
C2736 C2738 1.391 . S
C2737 C2736 1.386 . S
C2737 C2741 1.393 . S
C2738 H2730 0.950 . S
C2738 C2736 1.391 . S
C2738 C2739 1.400 . S
C2739 C2738 1.400 . S
C2739 C2740 1.398 . S
C2739 C2745 1.491 . S
C2740 H2731 0.950 . S
C2740 C2739 1.398 . S
C2740 C2741 1.391 . S
C2741 H2729 0.950 . S
C2741 C2737 1.393 . S
C2741 C2740 1.391 . S
C2742 H2732 0.950 . S
C2742 C2743 1.386 . S
C2742 C2744 1.391 . S
C2743 C2742 1.386 . S
C2743 C2747 1.393 . S
C2744 H2733 0.950 . S
C2744 C2742 1.391 . S
C2744 C2745 1.400 . S
C2745 C2739 1.491 . S
C2745 C2744 1.400 . S
C2745 C2746 1.398 . S
C2746 H2734 0.950 . S
C2746 C2745 1.398 . S
C2746 C2747 1.391 . S
C2747 H2735 0.950 . S
C2747 C2743 1.393 . S
C2747 C2746 1.391 . S
H2748 C2756 0.950 . S
H2749 C2761 0.950 . S
H2750 C2758 0.950 . S
H2751 C2760 0.950 . S
H2752 C2762 0.950 . S
H2753 C2764 0.950 . S
H2754 C2766 0.950 . S
H2755 C2767 0.950 . S
C2756 H2748 0.950 . S
C2756 C2757 1.386 . S
C2756 C2758 1.391 . S
C2757 C2756 1.386 . S
C2757 C2761 1.393 . S
C2758 H2750 0.950 . S
C2758 C2756 1.391 . S
C2758 C2759 1.400 . S
C2759 C2758 1.400 . S
C2759 C2760 1.398 . S
C2759 C2765 1.491 . S
C2760 H2751 0.950 . S
C2760 C2759 1.398 . S
C2760 C2761 1.391 . S
C2761 H2749 0.950 . S
C2761 C2757 1.393 . S
C2761 C2760 1.391 . S
C2762 H2752 0.950 . S
C2762 C2763 1.386 . S
C2762 C2764 1.391 . S
C2763 C2762 1.386 . S
C2763 C2767 1.393 . S
C2764 H2753 0.950 . S
C2764 C2762 1.391 . S
C2764 C2765 1.400 . S
C2765 C2759 1.491 . S
C2765 C2764 1.400 . S
C2765 C2766 1.398 . S
C2766 H2754 0.950 . S
C2766 C2765 1.398 . S
C2766 C2767 1.391 . S
C2767 H2755 0.950 . S
C2767 C2763 1.393 . S
C2767 C2766 1.391 . S
H2768 C2776 0.950 . S
H2769 C2781 0.950 . S
H2770 C2778 0.950 . S
H2771 C2780 0.950 . S
H2772 C2782 0.950 . S
H2773 C2784 0.950 . S
H2774 C2786 0.950 . S
H2775 C2787 0.950 . S
C2776 H2768 0.950 . S
C2776 C2777 1.386 . S
C2776 C2778 1.391 . S
C2777 C2776 1.386 . S
C2777 C2781 1.393 . S
C2778 H2770 0.950 . S
C2778 C2776 1.391 . S
C2778 C2779 1.400 . S
C2779 C2778 1.400 . S
C2779 C2780 1.398 . S
C2779 C2785 1.491 . S
C2780 H2771 0.950 . S
C2780 C2779 1.398 . S
C2780 C2781 1.391 . S
C2781 H2769 0.950 . S
C2781 C2777 1.393 . S
C2781 C2780 1.391 . S
C2782 H2772 0.950 . S
C2782 C2783 1.386 . S
C2782 C2784 1.391 . S
C2783 C2782 1.386 . S
C2783 C2787 1.393 . S
C2784 H2773 0.950 . S
C2784 C2782 1.391 . S
C2784 C2785 1.400 . S
C2785 C2779 1.491 . S
C2785 C2784 1.400 . S
C2785 C2786 1.398 . S
C2786 H2774 0.950 . S
C2786 C2785 1.398 . S
C2786 C2787 1.391 . S
C2787 H2775 0.950 . S
C2787 C2783 1.393 . S
C2787 C2786 1.391 . S
H2788 C2796 0.950 . S
H2789 C2801 0.950 . S
H2790 C2798 0.950 . S
H2791 C2800 0.950 . S
H2792 C2802 0.950 . S
H2793 C2804 0.950 . S
H2794 C2806 0.950 . S
H2795 C2807 0.950 . S
C2796 H2788 0.950 . S
C2796 C2797 1.386 . S
C2796 C2798 1.391 . S
C2797 C2796 1.386 . S
C2797 C2801 1.393 . S
C2798 H2790 0.950 . S
C2798 C2796 1.391 . S
C2798 C2799 1.400 . S
C2799 C2798 1.400 . S
C2799 C2800 1.398 . S
C2799 C2805 1.491 . S
C2800 H2791 0.950 . S
C2800 C2799 1.398 . S
C2800 C2801 1.391 . S
C2801 H2789 0.950 . S
C2801 C2797 1.393 . S
C2801 C2800 1.391 . S
C2802 H2792 0.950 . S
C2802 C2803 1.386 . S
C2802 C2804 1.391 . S
C2803 C2802 1.386 . S
C2803 C2807 1.393 . S
C2804 H2793 0.950 . S
C2804 C2802 1.391 . S
C2804 C2805 1.400 . S
C2805 C2799 1.491 . S
C2805 C2804 1.400 . S
C2805 C2806 1.398 . S
C2806 H2794 0.950 . S
C2806 C2805 1.398 . S
C2806 C2807 1.391 . S
C2807 H2795 0.950 . S
C2807 C2803 1.393 . S
C2807 C2806 1.391 . S
H2808 C2816 0.950 . S
H2809 C2821 0.950 . S
H2810 C2818 0.950 . S
H2811 C2820 0.950 . S
H2812 C2822 0.950 . S
H2813 C2824 0.950 . S
H2814 C2826 0.950 . S
H2815 C2827 0.950 . S
C2816 H2808 0.950 . S
C2816 C2817 1.386 . S
C2816 C2818 1.391 . S
C2817 C2816 1.386 . S
C2817 C2821 1.393 . S
C2818 H2810 0.950 . S
C2818 C2816 1.391 . S
C2818 C2819 1.400 . S
C2819 C2818 1.400 . S
C2819 C2820 1.398 . S
C2819 C2825 1.491 . S
C2820 H2811 0.950 . S
C2820 C2819 1.398 . S
C2820 C2821 1.391 . S
C2821 H2809 0.950 . S
C2821 C2817 1.393 . S
C2821 C2820 1.391 . S
C2822 H2812 0.950 . S
C2822 C2823 1.386 . S
C2822 C2824 1.391 . S
C2823 C2822 1.386 . S
C2823 C2827 1.393 . S
C2824 H2813 0.950 . S
C2824 C2822 1.391 . S
C2824 C2825 1.400 . S
C2825 C2819 1.491 . S
C2825 C2824 1.400 . S
C2825 C2826 1.398 . S
C2826 H2814 0.950 . S
C2826 C2825 1.398 . S
C2826 C2827 1.391 . S
C2827 H2815 0.950 . S
C2827 C2823 1.393 . S
C2827 C2826 1.391 . S
H2828 C2836 0.950 . S
H2829 C2841 0.950 1_455 S
H2830 C2838 0.950 . S
H2831 C2840 0.950 . S
H2832 C2842 0.950 . S
H2833 C2844 0.950 . S
H2834 C2846 0.950 . S
H2835 C2847 0.950 . S
C2836 H2828 0.950 . S
C2836 C2837 1.386 . S
C2836 C2838 1.391 . S
C2837 C2836 1.386 . S
C2837 C2841 1.393 . S
C2838 H2830 0.950 . S
C2838 C2836 1.391 . S
C2838 C2839 1.400 . S
C2839 C2838 1.400 . S
C2839 C2840 1.398 . S
C2839 C2845 1.491 . S
C2840 H2831 0.950 . S
C2840 C2839 1.398 . S
C2840 C2841 1.391 . S
C2841 H2829 0.950 1_655 S
C2841 C2837 1.393 . S
C2841 C2840 1.391 . S
C2842 H2832 0.950 . S
C2842 C2843 1.386 . S
C2842 C2844 1.391 . S
C2843 C2842 1.386 . S
C2843 C2847 1.393 . S
C2844 H2833 0.950 . S
C2844 C2842 1.391 . S
C2844 C2845 1.400 . S
C2845 C2839 1.491 . S
C2845 C2844 1.400 . S
C2845 C2846 1.398 . S
C2846 H2834 0.950 . S
C2846 C2845 1.398 . S
C2846 C2847 1.391 . S
C2847 H2835 0.950 . S
C2847 C2843 1.393 . S
C2847 C2846 1.391 . S
H2848 C2856 0.950 . S
H2849 C2861 0.950 . S
H2850 C2858 0.950 . S
H2851 C2860 0.950 . S
H2852 C2862 0.950 . S
H2853 C2864 0.950 . S
H2854 C2866 0.950 . S
H2855 C2867 0.950 . S
C2856 H2848 0.950 . S
C2856 C2857 1.386 . S
C2856 C2858 1.391 . S
C2857 C2856 1.386 . S
C2857 C2861 1.393 . S
C2858 H2850 0.950 . S
C2858 C2856 1.391 . S
C2858 C2859 1.400 . S
C2859 C2858 1.400 . S
C2859 C2860 1.398 . S
C2859 C2865 1.491 . S
C2860 H2851 0.950 . S
C2860 C2859 1.398 . S
C2860 C2861 1.391 . S
C2861 H2849 0.950 . S
C2861 C2857 1.393 . S
C2861 C2860 1.391 . S
C2862 H2852 0.950 . S
C2862 C2863 1.386 . S
C2862 C2864 1.391 . S
C2863 C2862 1.386 . S
C2863 C2867 1.393 . S
C2864 H2853 0.950 . S
C2864 C2862 1.391 . S
C2864 C2865 1.400 . S
C2865 C2859 1.491 . S
C2865 C2864 1.400 . S
C2865 C2866 1.398 . S
C2866 H2854 0.950 . S
C2866 C2865 1.398 . S
C2866 C2867 1.391 . S
C2867 H2855 0.950 . S
C2867 C2863 1.393 . S
C2867 C2866 1.391 . S
H2868 C2876 0.950 . S
H2869 C2881 0.950 . S
H2870 C2878 0.950 . S
H2871 C2880 0.950 . S
H2872 C2882 0.950 . S
H2873 C2884 0.950 . S
H2874 C2886 0.950 . S
H2875 C2887 0.950 . S
C2876 H2868 0.950 . S
C2876 C2877 1.386 . S
C2876 C2878 1.391 . S
C2877 C2876 1.386 . S
C2877 C2881 1.393 . S
C2878 H2870 0.950 . S
C2878 C2876 1.391 . S
C2878 C2879 1.400 . S
C2879 C2878 1.400 . S
C2879 C2880 1.398 . S
C2879 C2885 1.491 . S
C2880 H2871 0.950 . S
C2880 C2879 1.398 . S
C2880 C2881 1.391 . S
C2881 H2869 0.950 . S
C2881 C2877 1.393 . S
C2881 C2880 1.391 . S
C2882 H2872 0.950 . S
C2882 C2883 1.386 . S
C2882 C2884 1.391 . S
C2883 C2882 1.386 . S
C2883 C2887 1.393 . S
C2884 H2873 0.950 . S
C2884 C2882 1.391 . S
C2884 C2885 1.400 . S
C2885 C2879 1.491 . S
C2885 C2884 1.400 . S
C2885 C2886 1.398 . S
C2886 H2874 0.950 . S
C2886 C2885 1.398 . S
C2886 C2887 1.391 . S
C2887 H2875 0.950 . S
C2887 C2883 1.393 . S
C2887 C2886 1.391 . S
H2888 C2896 0.950 . S
H2889 C2901 0.950 . S
H2890 C2898 0.950 . S
H2891 C2900 0.950 . S
H2892 C2902 0.950 . S
H2893 C2904 0.950 . S
H2894 C2906 0.950 . S
H2895 C2907 0.950 . S
C2896 H2888 0.950 . S
C2896 C2897 1.386 . S
C2896 C2898 1.391 . S
C2897 C2896 1.386 . S
C2897 C2901 1.393 . S
C2898 H2890 0.950 . S
C2898 C2896 1.391 . S
C2898 C2899 1.400 . S
C2899 C2898 1.400 . S
C2899 C2900 1.398 . S
C2899 C2905 1.491 . S
C2900 H2891 0.950 . S
C2900 C2899 1.398 . S
C2900 C2901 1.391 . S
C2901 H2889 0.950 . S
C2901 C2897 1.393 . S
C2901 C2900 1.391 . S
C2902 H2892 0.950 . S
C2902 C2903 1.386 . S
C2902 C2904 1.391 . S
C2903 C2902 1.386 . S
C2903 C2907 1.393 . S
C2904 H2893 0.950 . S
C2904 C2902 1.391 . S
C2904 C2905 1.400 . S
C2905 C2899 1.491 . S
C2905 C2904 1.400 . S
C2905 C2906 1.398 . S
C2906 H2894 0.950 . S
C2906 C2905 1.398 . S
C2906 C2907 1.391 . S
C2907 H2895 0.950 . S
C2907 C2903 1.393 . S
C2907 C2906 1.391 . S
H2908 C2916 0.950 . S
H2909 C2921 0.950 . S
H2910 C2918 0.950 . S
H2911 C2920 0.950 . S
H2912 C2922 0.950 . S
H2913 C2924 0.950 . S
H2914 C2926 0.950 . S
H2915 C2927 0.950 . S
C2916 H2908 0.950 . S
C2916 C2917 1.386 . S
C2916 C2918 1.391 . S
C2917 C2916 1.386 . S
C2917 C2921 1.393 . S
C2918 H2910 0.950 . S
C2918 C2916 1.391 . S
C2918 C2919 1.400 . S
C2919 C2918 1.400 . S
C2919 C2920 1.398 . S
C2919 C2925 1.491 . S
C2920 H2911 0.950 . S
C2920 C2919 1.398 . S
C2920 C2921 1.391 . S
C2921 H2909 0.950 . S
C2921 C2917 1.393 . S
C2921 C2920 1.391 . S
C2922 H2912 0.950 . S
C2922 C2923 1.386 . S
C2922 C2924 1.391 . S
C2923 C2922 1.386 . S
C2923 C2927 1.393 . S
C2924 H2913 0.950 . S
C2924 C2922 1.391 . S
C2924 C2925 1.400 . S
C2925 C2919 1.491 . S
C2925 C2924 1.400 . S
C2925 C2926 1.398 . S
C2926 H2914 0.950 . S
C2926 C2925 1.398 . S
C2926 C2927 1.391 . S
C2927 H2915 0.950 . S
C2927 C2923 1.393 . S
C2927 C2926 1.391 . S
H2928 C2936 0.950 . S
H2929 C2941 0.950 . S
H2930 C2938 0.950 . S
H2931 C2940 0.950 . S
H2932 C2942 0.950 . S
H2933 C2944 0.950 . S
H2934 C2946 0.950 . S
H2935 C2947 0.950 . S
C2936 H2928 0.950 . S
C2936 C2937 1.386 . S
C2936 C2938 1.391 . S
C2937 C2936 1.386 . S
C2937 C2941 1.393 . S
C2938 H2930 0.950 . S
C2938 C2936 1.391 . S
C2938 C2939 1.400 . S
C2939 C2938 1.400 . S
C2939 C2940 1.398 . S
C2939 C2945 1.491 . S
C2940 H2931 0.950 . S
C2940 C2939 1.398 . S
C2940 C2941 1.391 . S
C2941 H2929 0.950 . S
C2941 C2937 1.393 . S
C2941 C2940 1.391 . S
C2942 H2932 0.950 . S
C2942 C2943 1.386 . S
C2942 C2944 1.391 . S
C2943 C2942 1.386 . S
C2943 C2947 1.393 . S
C2944 H2933 0.950 . S
C2944 C2942 1.391 . S
C2944 C2945 1.400 . S
C2945 C2939 1.491 . S
C2945 C2944 1.400 . S
C2945 C2946 1.398 . S
C2946 H2934 0.950 . S
C2946 C2945 1.398 . S
C2946 C2947 1.391 . S
C2947 H2935 0.950 . S
C2947 C2943 1.393 . S
C2947 C2946 1.391 . S
H2948 C2956 0.950 . S
H2949 C2961 0.950 1_455 S
H2950 C2958 0.950 . S
H2951 C2960 0.950 . S
H2952 C2962 0.950 . S
H2953 C2964 0.950 . S
H2954 C2966 0.950 . S
H2955 C2967 0.950 . S
C2956 H2948 0.950 . S
C2956 C2957 1.386 . S
C2956 C2958 1.391 . S
C2957 C2956 1.386 . S
C2957 C2961 1.393 . S
C2958 H2950 0.950 . S
C2958 C2956 1.391 . S
C2958 C2959 1.400 . S
C2959 C2958 1.400 . S
C2959 C2960 1.398 . S
C2959 C2965 1.491 . S
C2960 H2951 0.950 . S
C2960 C2959 1.398 . S
C2960 C2961 1.391 . S
C2961 H2949 0.950 1_655 S
C2961 C2957 1.393 . S
C2961 C2960 1.391 . S
C2962 H2952 0.950 . S
C2962 C2963 1.386 . S
C2962 C2964 1.391 . S
C2963 C2962 1.386 . S
C2963 C2967 1.393 . S
C2964 H2953 0.950 . S
C2964 C2962 1.391 . S
C2964 C2965 1.400 . S
C2965 C2959 1.491 . S
C2965 C2964 1.400 . S
C2965 C2966 1.398 . S
C2966 H2954 0.950 . S
C2966 C2965 1.398 . S
C2966 C2967 1.391 . S
C2967 H2955 0.950 . S
C2967 C2963 1.393 . S
C2967 C2966 1.391 . S
H2968 C2976 0.950 . S
H2969 C2981 0.950 . S
H2970 C2978 0.950 . S
H2971 C2980 0.950 . S
H2972 C2982 0.950 . S
H2973 C2984 0.950 . S
H2974 C2986 0.950 . S
H2975 C2987 0.950 . S
C2976 H2968 0.950 . S
C2976 C2977 1.386 . S
C2976 C2978 1.391 . S
C2977 C2976 1.386 . S
C2977 C2981 1.393 . S
C2978 H2970 0.950 . S
C2978 C2976 1.391 . S
C2978 C2979 1.400 . S
C2979 C2978 1.400 . S
C2979 C2980 1.398 . S
C2979 C2985 1.491 . S
C2980 H2971 0.950 . S
C2980 C2979 1.398 . S
C2980 C2981 1.391 . S
C2981 H2969 0.950 . S
C2981 C2977 1.393 . S
C2981 C2980 1.391 . S
C2982 H2972 0.950 . S
C2982 C2983 1.386 . S
C2982 C2984 1.391 . S
C2983 C2982 1.386 . S
C2983 C2987 1.393 . S
C2984 H2973 0.950 . S
C2984 C2982 1.391 . S
C2984 C2985 1.400 . S
C2985 C2979 1.491 . S
C2985 C2984 1.400 . S
C2985 C2986 1.398 . S
C2986 H2974 0.950 . S
C2986 C2985 1.398 . S
C2986 C2987 1.391 . S
C2987 H2975 0.950 . S
C2987 C2983 1.393 . S
C2987 C2986 1.391 . S
H2988 C2996 0.950 . S
H2989 C3001 0.950 . S
H2990 C2998 0.950 . S
H2991 C3000 0.950 . S
H2992 C3002 0.950 . S
H2993 C3004 0.950 . S
H2994 C3006 0.950 . S
H2995 C3007 0.950 . S
C2996 H2988 0.950 . S
C2996 C2997 1.386 . S
C2996 C2998 1.391 . S
C2997 C2996 1.386 . S
C2997 C3001 1.393 . S
C2998 H2990 0.950 . S
C2998 C2996 1.391 . S
C2998 C2999 1.400 . S
C2999 C2998 1.400 . S
C2999 C3000 1.398 . S
C2999 C3005 1.491 . S
C3000 H2991 0.950 . S
C3000 C2999 1.398 . S
C3000 C3001 1.391 . S
C3001 H2989 0.950 . S
C3001 C2997 1.393 . S
C3001 C3000 1.391 . S
C3002 H2992 0.950 . S
C3002 C3003 1.386 . S
C3002 C3004 1.391 . S
C3003 C3002 1.386 . S
C3003 C3007 1.393 . S
C3004 H2993 0.950 . S
C3004 C3002 1.391 . S
C3004 C3005 1.400 . S
C3005 C2999 1.491 . S
C3005 C3004 1.400 . S
C3005 C3006 1.398 . S
C3006 H2994 0.950 . S
C3006 C3005 1.398 . S
C3006 C3007 1.391 . S
C3007 H2995 0.950 . S
C3007 C3003 1.393 . S
C3007 C3006 1.391 . S
H3008 C3016 0.950 . S
H3009 C3021 0.950 . S
H3010 C3018 0.950 . S
H3011 C3020 0.950 . S
H3012 C3022 0.950 . S
H3013 C3024 0.950 . S
H3014 C3026 0.950 . S
H3015 C3027 0.950 . S
C3016 H3008 0.950 . S
C3016 C3017 1.386 . S
C3016 C3018 1.391 . S
C3017 C3016 1.386 . S
C3017 C3021 1.393 . S
C3018 H3010 0.950 . S
C3018 C3016 1.391 . S
C3018 C3019 1.400 . S
C3019 C3018 1.400 . S
C3019 C3020 1.398 . S
C3019 C3025 1.491 . S
C3020 H3011 0.950 . S
C3020 C3019 1.398 . S
C3020 C3021 1.391 . S
C3021 H3009 0.950 . S
C3021 C3017 1.393 . S
C3021 C3020 1.391 . S
C3022 H3012 0.950 . S
C3022 C3023 1.386 . S
C3022 C3024 1.391 . S
C3023 C3022 1.386 . S
C3023 C3027 1.393 . S
C3024 H3013 0.950 . S
C3024 C3022 1.391 . S
C3024 C3025 1.400 . S
C3025 C3019 1.491 . S
C3025 C3024 1.400 . S
C3025 C3026 1.398 . S
C3026 H3014 0.950 . S
C3026 C3025 1.398 . S
C3026 C3027 1.391 . S
C3027 H3015 0.950 . S
C3027 C3023 1.393 . S
C3027 C3026 1.391 . S
H3028 C3036 0.950 . S
H3029 C3041 0.950 . S
H3030 C3038 0.950 . S
H3031 C3040 0.950 . S
H3032 C3042 0.950 . S
H3033 C3044 0.950 . S
H3034 C3046 0.950 . S
H3035 C3047 0.950 . S
C3036 H3028 0.950 . S
C3036 C3037 1.386 . S
C3036 C3038 1.391 . S
C3037 C3036 1.386 . S
C3037 C3041 1.393 . S
C3038 H3030 0.950 . S
C3038 C3036 1.391 . S
C3038 C3039 1.400 . S
C3039 C3038 1.400 . S
C3039 C3040 1.398 . S
C3039 C3045 1.491 . S
C3040 H3031 0.950 . S
C3040 C3039 1.398 . S
C3040 C3041 1.391 . S
C3041 H3029 0.950 . S
C3041 C3037 1.393 . S
C3041 C3040 1.391 . S
C3042 H3032 0.950 . S
C3042 C3043 1.386 . S
C3042 C3044 1.391 . S
C3043 C3042 1.386 . S
C3043 C3047 1.393 . S
C3044 H3033 0.950 . S
C3044 C3042 1.391 . S
C3044 C3045 1.400 . S
C3045 C3039 1.491 . S
C3045 C3044 1.400 . S
C3045 C3046 1.398 . S
C3046 H3034 0.950 . S
C3046 C3045 1.398 . S
C3046 C3047 1.391 . S
C3047 H3035 0.950 . S
C3047 C3043 1.393 . S
C3047 C3046 1.391 . S
H3048 C3056 0.950 . S
H3049 C3061 0.950 . S
H3050 C3058 0.950 . S
H3051 C3060 0.950 . S
H3052 C3062 0.950 . S
H3053 C3064 0.950 . S
H3054 C3066 0.950 . S
H3055 C3067 0.950 . S
C3056 H3048 0.950 . S
C3056 C3057 1.386 . S
C3056 C3058 1.391 . S
C3057 C3056 1.386 . S
C3057 C3061 1.393 . S
C3058 H3050 0.950 . S
C3058 C3056 1.391 . S
C3058 C3059 1.400 . S
C3059 C3058 1.400 . S
C3059 C3060 1.398 . S
C3059 C3065 1.491 . S
C3060 H3051 0.950 . S
C3060 C3059 1.398 . S
C3060 C3061 1.391 . S
C3061 H3049 0.950 . S
C3061 C3057 1.393 . S
C3061 C3060 1.391 . S
C3062 H3052 0.950 . S
C3062 C3063 1.386 . S
C3062 C3064 1.391 . S
C3063 C3062 1.386 . S
C3063 C3067 1.393 . S
C3064 H3053 0.950 . S
C3064 C3062 1.391 . S
C3064 C3065 1.400 . S
C3065 C3059 1.491 . S
C3065 C3064 1.400 . S
C3065 C3066 1.398 . S
C3066 H3054 0.950 . S
C3066 C3065 1.398 . S
C3066 C3067 1.391 . S
C3067 H3055 0.950 . S
C3067 C3063 1.393 . S
C3067 C3066 1.391 . S
H3068 C3076 0.950 . S
H3069 C3081 0.950 . S
H3070 C3078 0.950 . S
H3071 C3080 0.950 . S
H3072 C3082 0.950 . S
H3073 C3084 0.950 . S
H3074 C3086 0.950 . S
H3075 C3087 0.950 . S
C3076 H3068 0.950 . S
C3076 C3077 1.386 . S
C3076 C3078 1.391 . S
C3077 C3076 1.386 . S
C3077 C3081 1.393 . S
C3078 H3070 0.950 . S
C3078 C3076 1.391 . S
C3078 C3079 1.400 . S
C3079 C3078 1.400 . S
C3079 C3080 1.398 . S
C3079 C3085 1.491 . S
C3080 H3071 0.950 . S
C3080 C3079 1.398 . S
C3080 C3081 1.391 . S
C3081 H3069 0.950 . S
C3081 C3077 1.393 . S
C3081 C3080 1.391 . S
C3082 H3072 0.950 . S
C3082 C3083 1.386 . S
C3082 C3084 1.391 . S
C3083 C3082 1.386 . S
C3083 C3087 1.393 . S
C3084 H3073 0.950 . S
C3084 C3082 1.391 . S
C3084 C3085 1.400 . S
C3085 C3079 1.491 . S
C3085 C3084 1.400 . S
C3085 C3086 1.398 . S
C3086 H3074 0.950 . S
C3086 C3085 1.398 . S
C3086 C3087 1.391 . S
C3087 H3075 0.950 . S
C3087 C3083 1.393 . S
C3087 C3086 1.391 . S
H3088 C3096 0.950 . S
H3089 C3101 0.950 . S
H3090 C3098 0.950 . S
H3091 C3100 0.950 . S
H3092 C3102 0.950 . S
H3093 C3104 0.950 . S
H3094 C3106 0.950 . S
H3095 C3107 0.950 . S
C3096 H3088 0.950 . S
C3096 C3097 1.386 . S
C3096 C3098 1.391 . S
C3097 C3096 1.386 . S
C3097 C3101 1.393 . S
C3098 H3090 0.950 . S
C3098 C3096 1.391 . S
C3098 C3099 1.400 . S
C3099 C3098 1.400 . S
C3099 C3100 1.398 . S
C3099 C3105 1.491 . S
C3100 H3091 0.950 . S
C3100 C3099 1.398 . S
C3100 C3101 1.391 . S
C3101 H3089 0.950 . S
C3101 C3097 1.393 . S
C3101 C3100 1.391 . S
C3102 H3092 0.950 . S
C3102 C3103 1.386 . S
C3102 C3104 1.391 . S
C3103 C3102 1.386 . S
C3103 C3107 1.393 . S
C3104 H3093 0.950 . S
C3104 C3102 1.391 . S
C3104 C3105 1.400 . S
C3105 C3099 1.491 . S
C3105 C3104 1.400 . S
C3105 C3106 1.398 . S
C3106 H3094 0.950 . S
C3106 C3105 1.398 . S
C3106 C3107 1.391 . S
C3107 H3095 0.950 . S
C3107 C3103 1.393 . S
C3107 C3106 1.391 . S
H3108 C3116 0.950 . S
H3109 C3121 0.950 . S
H3110 C3118 0.950 . S
H3111 C3120 0.950 . S
H3112 C3122 0.950 1_655 S
H3113 C3124 0.950 . S
H3114 C3126 0.950 . S
H3115 C3127 0.950 . S
C3116 H3108 0.950 . S
C3116 C3117 1.386 . S
C3116 C3118 1.391 . S
C3117 C3116 1.386 . S
C3117 C3121 1.393 . S
C3118 H3110 0.950 . S
C3118 C3116 1.391 . S
C3118 C3119 1.400 . S
C3119 C3118 1.400 . S
C3119 C3120 1.398 . S
C3119 C3125 1.491 . S
C3120 H3111 0.950 . S
C3120 C3119 1.398 . S
C3120 C3121 1.391 . S
C3121 H3109 0.950 . S
C3121 C3117 1.393 . S
C3121 C3120 1.391 . S
C3122 H3112 0.950 1_455 S
C3122 C3123 1.386 . S
C3122 C3124 1.391 . S
C3123 C3122 1.386 . S
C3123 C3127 1.393 . S
C3124 H3113 0.950 . S
C3124 C3122 1.391 . S
C3124 C3125 1.400 . S
C3125 C3119 1.491 . S
C3125 C3124 1.400 . S
C3125 C3126 1.398 . S
C3126 H3114 0.950 . S
C3126 C3125 1.398 . S
C3126 C3127 1.391 . S
C3127 H3115 0.950 . S
C3127 C3123 1.393 . S
C3127 C3126 1.391 . S
H3128 C3136 0.950 . S
H3129 C3141 0.950 . S
H3130 C3138 0.950 . S
H3131 C3140 0.950 . S
H3132 C3142 0.950 . S
H3133 C3144 0.950 . S
H3134 C3146 0.950 . S
H3135 C3147 0.950 . S
C3136 H3128 0.950 . S
C3136 C3137 1.386 . S
C3136 C3138 1.391 . S
C3137 C3136 1.386 . S
C3137 C3141 1.393 . S
C3138 H3130 0.950 . S
C3138 C3136 1.391 . S
C3138 C3139 1.400 . S
C3139 C3138 1.400 . S
C3139 C3140 1.398 . S
C3139 C3145 1.491 . S
C3140 H3131 0.950 . S
C3140 C3139 1.398 . S
C3140 C3141 1.391 . S
C3141 H3129 0.950 . S
C3141 C3137 1.393 . S
C3141 C3140 1.391 . S
C3142 H3132 0.950 . S
C3142 C3143 1.386 . S
C3142 C3144 1.391 . S
C3143 C3142 1.386 . S
C3143 C3147 1.393 . S
C3144 H3133 0.950 . S
C3144 C3142 1.391 . S
C3144 C3145 1.400 . S
C3145 C3139 1.491 . S
C3145 C3144 1.400 . S
C3145 C3146 1.398 . S
C3146 H3134 0.950 . S
C3146 C3145 1.398 . S
C3146 C3147 1.391 . S
C3147 H3135 0.950 . S
C3147 C3143 1.393 . S
C3147 C3146 1.391 . S
H3148 C3156 0.950 . S
H3149 C3161 0.950 . S
H3150 C3158 0.950 . S
H3151 C3160 0.950 . S
H3152 C3162 0.950 . S
H3153 C3164 0.950 . S
H3154 C3166 0.950 . S
H3155 C3167 0.950 . S
C3156 H3148 0.950 . S
C3156 C3157 1.386 . S
C3156 C3158 1.391 . S
C3157 C3156 1.386 . S
C3157 C3161 1.393 . S
C3158 H3150 0.950 . S
C3158 C3156 1.391 . S
C3158 C3159 1.400 . S
C3159 C3158 1.400 . S
C3159 C3160 1.398 . S
C3159 C3165 1.491 . S
C3160 H3151 0.950 . S
C3160 C3159 1.398 . S
C3160 C3161 1.391 . S
C3161 H3149 0.950 . S
C3161 C3157 1.393 . S
C3161 C3160 1.391 . S
C3162 H3152 0.950 . S
C3162 C3163 1.386 . S
C3162 C3164 1.391 . S
C3163 C3162 1.386 . S
C3163 C3167 1.393 . S
C3164 H3153 0.950 . S
C3164 C3162 1.391 . S
C3164 C3165 1.400 . S
C3165 C3159 1.491 . S
C3165 C3164 1.400 . S
C3165 C3166 1.398 . S
C3166 H3154 0.950 . S
C3166 C3165 1.398 . S
C3166 C3167 1.391 . S
C3167 H3155 0.950 . S
C3167 C3163 1.393 . S
C3167 C3166 1.391 . S
C1897 C241 1.604 . S
C1903 C5 1.609 . S
C1917 C300 1.610 . S
C1923 C64 1.608 . S
C1937 C359 1.604 . S
C1943 C123 1.604 . S
C1957 C182 1.607 . S
C1963 C418 1.611 . S
C1977 C477 1.603 . S
C1983 C713 1.606 . S
C1997 C772 1.610 . S
C2003 C536 1.609 . S
C2017 C595 1.608 . S
C2023 C831 1.603 . S
C2037 C890 1.611 . S
C2043 C654 1.607 . S
C2057 C949 1.605 . S
C2063 C1185 1.604 . S
C2077 C1244 1.604 . S
C2083 C1008 1.609 . S
C2097 C1303 1.605 . S
C2103 C1067 1.610 . S
C2117 C1362 1.604 . S
C2123 C1126 1.609 . S
C2137 C1421 1.607 . S
C2143 C1657 1.611 . S
C2157 C1480 1.609 . S
C2163 C1716 1.604 . S
C2177 C1539 1.610 . S
C2183 C1775 1.609 . S
C2197 C1598 1.606 . S
C2203 C1834 1.603 . S
C2217 C3 1.408 1_565 S
C2223 C416 1.405 . S
C2237 C62 1.407 . S
C2243 C239 1.406 1_545 S
C2257 C121 1.406 1_545 S
C2263 C298 1.407 . S
C2277 C357 1.404 1_565 S
C2283 C180 1.399 . S
C2297 C888 1.402 . S
C2303 C475 1.400 1_545 S
C2317 C711 1.409 1_565 S
C2323 C534 1.401 . S
C2337 C770 1.408 . S
C2343 C593 1.405 1_565 S
C2357 C652 1.408 . S
C2363 C829 1.405 1_545 S
C2377 C1360 1.407 . S
C2383 C947 1.406 . S
C2397 C1183 1.399 . S
C2403 C1006 1.403 . S
C2417 C1242 1.399 . S
C2423 C1065 1.407 . S
C2437 C1124 1.407 . S
C2443 C1301 1.399 . S
C2457 C1419 1.399 . S
C2463 C1832 1.408 . S
C2477 C1478 1.409 . S
C2483 C1655 1.401 . S
C2497 C1537 1.409 . S
C2503 C1714 1.401 . S
C2517 C1773 1.409 . S
C2523 C1596 1.400 . S
C2537 C52 1.597 . S
C2543 C1508 1.590 . S
C2557 C111 1.596 . S
C2563 C623 1.590 1_455 S
C2577 C170 1.595 . S
C2583 C1626 1.590 . S
C2597 C505 1.597 . S
C2603 C229 1.599 . S
C2617 C1862 1.591 . S
C2623 C288 1.598 . S
C2637 C347 1.600 . S
C2643 C741 1.595 . S
C2657 C406 1.598 . S
C2663 C1744 1.591 . S
C2677 C465 1.594 . S
C2683 C859 1.590 1_455 S
C2697 C1036 1.597 . S
C2703 C524 1.593 . S
C2717 C151 1.593 1_655 S
C2723 C583 1.599 . S
C2737 C1154 1.598 . S
C2743 C642 1.598 . S
C2757 C701 1.597 . S
C2763 C33 1.598 . S
C2777 C1390 1.590 . S
C2783 C760 1.595 . S
C2797 C269 1.595 . S
C2803 C819 1.592 . S
C2817 C1272 1.592 . S
C2823 C878 1.599 . S
C2837 C387 1.592 1_655 S
C2843 C937 1.599 . S
C2857 C564 1.598 . S
C2863 C996 1.595 . S
C2877 C1055 1.595 . S
C2883 C1567 1.590 . S
C2897 C1114 1.597 . S
C2903 C682 1.590 . S
C2917 C1173 1.596 . S
C2923 C1449 1.590 1_655 S
C2937 C1232 1.599 . S
C2943 C918 1.593 . S
C2957 C1685 1.591 1_655 S
C2963 C1291 1.593 . S
C2977 C1350 1.595 . S
C2983 C800 1.598 . S
C2997 C1409 1.595 . S
C3003 C1803 1.598 . S
C3017 C1468 1.596 . S
C3023 C92 1.598 . S
C3037 C1527 1.598 . S
C3043 C1095 1.591 . S
C3057 C210 1.590 . S
C3063 C1586 1.596 . S
C3077 C977 1.598 1_455 S
C3083 C1645 1.597 . S
C3097 C1704 1.592 . S
C3103 C446 1.592 . S
C3117 C1763 1.599 . S
C3123 C1213 1.596 1_455 S
C3137 C328 1.590 . S
C3143 C1822 1.597 . S
C3157 C1331 1.597 . S
C3163 C1881 1.599 . S
