# Generated by pormake.
# Topology wip, (6)-cn, num edge types: 1
# Building blocks:
#     Node 0, Type 0, BuildingBlock: GEDQOX_clean_sbu_0, # of connection points: 6
#     Node 1, Type 0, BuildingBlock: GEDQOX_clean_sbu_0, # of connection points: 6
#     Node 2, Type 0, BuildingBlock: GEDQOX_clean_sbu_0, # of connection points: 6
#     Node 3, Type 0, BuildingBlock: GEDQOX_clean_sbu_0, # of connection points: 6
#     Node 4, Type 0, BuildingBlock: GEDQOX_clean_sbu_0, # of connection points: 6
#     Node 5, Type 0, BuildingBlock: GEDQOX_clean_sbu_0, # of connection points: 6
#     Node 6, Type 0, BuildingBlock: GEDQOX_clean_sbu_0, # of connection points: 6
#     Node 7, Type 0, BuildingBlock: GEDQOX_clean_sbu_0, # of connection points: 6
#     Node 8, Type 0, BuildingBlock: GEDQOX_clean_sbu_0, # of connection points: 6
#     Node 9, Type 0, BuildingBlock: GEDQOX_clean_sbu_0, # of connection points: 6
#     Node 10, Type 0, BuildingBlock: GEDQOX_clean_sbu_0, # of connection points: 6
#     Node 11, Type 0, BuildingBlock: GEDQOX_clean_sbu_0, # of connection points: 6
#     Node 12, Type 0, BuildingBlock: GEDQOX_clean_sbu_0, # of connection points: 6
#     Node 13, Type 0, BuildingBlock: GEDQOX_clean_sbu_0, # of connection points: 6
#     Node 14, Type 0, BuildingBlock: GEDQOX_clean_sbu_0, # of connection points: 6
#     Node 15, Type 0, BuildingBlock: GEDQOX_clean_sbu_0, # of connection points: 6
#     Node 16, Type 0, BuildingBlock: GEDQOX_clean_sbu_0, # of connection points: 6
#     Node 17, Type 0, BuildingBlock: GEDQOX_clean_sbu_0, # of connection points: 6
#     Node 18, Type 0, BuildingBlock: GEDQOX_clean_sbu_0, # of connection points: 6
#     Node 19, Type 0, BuildingBlock: GEDQOX_clean_sbu_0, # of connection points: 6
#     Node 20, Type 0, BuildingBlock: GEDQOX_clean_sbu_0, # of connection points: 6
#     Node 21, Type 0, BuildingBlock: GEDQOX_clean_sbu_0, # of connection points: 6
#     Node 22, Type 0, BuildingBlock: GEDQOX_clean_sbu_0, # of connection points: 6
#     Node 23, Type 0, BuildingBlock: GEDQOX_clean_sbu_0, # of connection points: 6
#     Node 24, Type 0, BuildingBlock: GEDQOX_clean_sbu_0, # of connection points: 6
#     Node 25, Type 0, BuildingBlock: GEDQOX_clean_sbu_0, # of connection points: 6
#     Node 26, Type 0, BuildingBlock: GEDQOX_clean_sbu_0, # of connection points: 6
#     Node 27, Type 0, BuildingBlock: GEDQOX_clean_sbu_0, # of connection points: 6
#     Node 28, Type 0, BuildingBlock: GEDQOX_clean_sbu_0, # of connection points: 6
#     Node 29, Type 0, BuildingBlock: GEDQOX_clean_sbu_0, # of connection points: 6
#     Node 30, Type 0, BuildingBlock: GEDQOX_clean_sbu_0, # of connection points: 6
#     Node 31, Type 0, BuildingBlock: GEDQOX_clean_sbu_0, # of connection points: 6
#     Edge 32, Type (0, 0), BuildingBlock: KIFKEQ_clean_linker_1, # of connection points: 2
#     Edge 33, Type (0, 0), BuildingBlock: KIFKEQ_clean_linker_1, # of connection points: 2
#     Edge 34, Type (0, 0), BuildingBlock: KIFKEQ_clean_linker_1, # of connection points: 2
#     Edge 35, Type (0, 0), BuildingBlock: KIFKEQ_clean_linker_1, # of connection points: 2
#     Edge 36, Type (0, 0), BuildingBlock: KIFKEQ_clean_linker_1, # of connection points: 2
#     Edge 37, Type (0, 0), BuildingBlock: KIFKEQ_clean_linker_1, # of connection points: 2
#     Edge 38, Type (0, 0), BuildingBlock: KIFKEQ_clean_linker_1, # of connection points: 2
#     Edge 39, Type (0, 0), BuildingBlock: KIFKEQ_clean_linker_1, # of connection points: 2
#     Edge 40, Type (0, 0), BuildingBlock: KIFKEQ_clean_linker_1, # of connection points: 2
#     Edge 41, Type (0, 0), BuildingBlock: KIFKEQ_clean_linker_1, # of connection points: 2
#     Edge 42, Type (0, 0), BuildingBlock: KIFKEQ_clean_linker_1, # of connection points: 2
#     Edge 43, Type (0, 0), BuildingBlock: KIFKEQ_clean_linker_1, # of connection points: 2
#     Edge 44, Type (0, 0), BuildingBlock: KIFKEQ_clean_linker_1, # of connection points: 2
#     Edge 45, Type (0, 0), BuildingBlock: KIFKEQ_clean_linker_1, # of connection points: 2
#     Edge 46, Type (0, 0), BuildingBlock: KIFKEQ_clean_linker_1, # of connection points: 2
#     Edge 47, Type (0, 0), BuildingBlock: KIFKEQ_clean_linker_1, # of connection points: 2
#     Edge 48, Type (0, 0), BuildingBlock: KIFKEQ_clean_linker_1, # of connection points: 2
#     Edge 49, Type (0, 0), BuildingBlock: KIFKEQ_clean_linker_1, # of connection points: 2
#     Edge 50, Type (0, 0), BuildingBlock: KIFKEQ_clean_linker_1, # of connection points: 2
#     Edge 51, Type (0, 0), BuildingBlock: KIFKEQ_clean_linker_1, # of connection points: 2
#     Edge 52, Type (0, 0), BuildingBlock: KIFKEQ_clean_linker_1, # of connection points: 2
#     Edge 53, Type (0, 0), BuildingBlock: KIFKEQ_clean_linker_1, # of connection points: 2
#     Edge 54, Type (0, 0), BuildingBlock: KIFKEQ_clean_linker_1, # of connection points: 2
#     Edge 55, Type (0, 0), BuildingBlock: KIFKEQ_clean_linker_1, # of connection points: 2
#     Edge 56, Type (0, 0), BuildingBlock: KIFKEQ_clean_linker_1, # of connection points: 2
#     Edge 57, Type (0, 0), BuildingBlock: KIFKEQ_clean_linker_1, # of connection points: 2
#     Edge 58, Type (0, 0), BuildingBlock: KIFKEQ_clean_linker_1, # of connection points: 2
#     Edge 59, Type (0, 0), BuildingBlock: KIFKEQ_clean_linker_1, # of connection points: 2
#     Edge 60, Type (0, 0), BuildingBlock: KIFKEQ_clean_linker_1, # of connection points: 2
#     Edge 61, Type (0, 0), BuildingBlock: KIFKEQ_clean_linker_1, # of connection points: 2
#     Edge 62, Type (0, 0), BuildingBlock: KIFKEQ_clean_linker_1, # of connection points: 2
#     Edge 63, Type (0, 0), BuildingBlock: KIFKEQ_clean_linker_1, # of connection points: 2
#     Edge 64, Type (0, 0), BuildingBlock: KIFKEQ_clean_linker_1, # of connection points: 2
#     Edge 65, Type (0, 0), BuildingBlock: KIFKEQ_clean_linker_1, # of connection points: 2
#     Edge 66, Type (0, 0), BuildingBlock: KIFKEQ_clean_linker_1, # of connection points: 2
#     Edge 67, Type (0, 0), BuildingBlock: KIFKEQ_clean_linker_1, # of connection points: 2
#     Edge 68, Type (0, 0), BuildingBlock: KIFKEQ_clean_linker_1, # of connection points: 2
#     Edge 69, Type (0, 0), BuildingBlock: KIFKEQ_clean_linker_1, # of connection points: 2
#     Edge 70, Type (0, 0), BuildingBlock: KIFKEQ_clean_linker_1, # of connection points: 2
#     Edge 71, Type (0, 0), BuildingBlock: KIFKEQ_clean_linker_1, # of connection points: 2
#     Edge 72, Type (0, 0), BuildingBlock: KIFKEQ_clean_linker_1, # of connection points: 2
#     Edge 73, Type (0, 0), BuildingBlock: KIFKEQ_clean_linker_1, # of connection points: 2
#     Edge 74, Type (0, 0), BuildingBlock: KIFKEQ_clean_linker_1, # of connection points: 2
#     Edge 75, Type (0, 0), BuildingBlock: KIFKEQ_clean_linker_1, # of connection points: 2
#     Edge 76, Type (0, 0), BuildingBlock: KIFKEQ_clean_linker_1, # of connection points: 2
#     Edge 77, Type (0, 0), BuildingBlock: KIFKEQ_clean_linker_1, # of connection points: 2
#     Edge 78, Type (0, 0), BuildingBlock: KIFKEQ_clean_linker_1, # of connection points: 2
#     Edge 79, Type (0, 0), BuildingBlock: KIFKEQ_clean_linker_1, # of connection points: 2
#     Edge 80, Type (0, 0), BuildingBlock: KIFKEQ_clean_linker_1, # of connection points: 2
#     Edge 81, Type (0, 0), BuildingBlock: KIFKEQ_clean_linker_1, # of connection points: 2
#     Edge 82, Type (0, 0), BuildingBlock: KIFKEQ_clean_linker_1, # of connection points: 2
#     Edge 83, Type (0, 0), BuildingBlock: KIFKEQ_clean_linker_1, # of connection points: 2
#     Edge 84, Type (0, 0), BuildingBlock: KIFKEQ_clean_linker_1, # of connection points: 2
#     Edge 85, Type (0, 0), BuildingBlock: KIFKEQ_clean_linker_1, # of connection points: 2
#     Edge 86, Type (0, 0), BuildingBlock: KIFKEQ_clean_linker_1, # of connection points: 2
#     Edge 87, Type (0, 0), BuildingBlock: KIFKEQ_clean_linker_1, # of connection points: 2
#     Edge 88, Type (0, 0), BuildingBlock: KIFKEQ_clean_linker_1, # of connection points: 2
#     Edge 89, Type (0, 0), BuildingBlock: KIFKEQ_clean_linker_1, # of connection points: 2
#     Edge 90, Type (0, 0), BuildingBlock: KIFKEQ_clean_linker_1, # of connection points: 2
#     Edge 91, Type (0, 0), BuildingBlock: KIFKEQ_clean_linker_1, # of connection points: 2
#     Edge 92, Type (0, 0), BuildingBlock: KIFKEQ_clean_linker_1, # of connection points: 2
#     Edge 93, Type (0, 0), BuildingBlock: KIFKEQ_clean_linker_1, # of connection points: 2
#     Edge 94, Type (0, 0), BuildingBlock: KIFKEQ_clean_linker_1, # of connection points: 2
#     Edge 95, Type (0, 0), BuildingBlock: KIFKEQ_clean_linker_1, # of connection points: 2
#     Edge 96, Type (0, 0), BuildingBlock: KIFKEQ_clean_linker_1, # of connection points: 2
#     Edge 97, Type (0, 0), BuildingBlock: KIFKEQ_clean_linker_1, # of connection points: 2
#     Edge 98, Type (0, 0), BuildingBlock: KIFKEQ_clean_linker_1, # of connection points: 2
#     Edge 99, Type (0, 0), BuildingBlock: KIFKEQ_clean_linker_1, # of connection points: 2
#     Edge 100, Type (0, 0), BuildingBlock: KIFKEQ_clean_linker_1, # of connection points: 2
#     Edge 101, Type (0, 0), BuildingBlock: KIFKEQ_clean_linker_1, # of connection points: 2
#     Edge 102, Type (0, 0), BuildingBlock: KIFKEQ_clean_linker_1, # of connection points: 2
#     Edge 103, Type (0, 0), BuildingBlock: KIFKEQ_clean_linker_1, # of connection points: 2
#     Edge 104, Type (0, 0), BuildingBlock: KIFKEQ_clean_linker_1, # of connection points: 2
#     Edge 105, Type (0, 0), BuildingBlock: KIFKEQ_clean_linker_1, # of connection points: 2
#     Edge 106, Type (0, 0), BuildingBlock: KIFKEQ_clean_linker_1, # of connection points: 2
#     Edge 107, Type (0, 0), BuildingBlock: KIFKEQ_clean_linker_1, # of connection points: 2
#     Edge 108, Type (0, 0), BuildingBlock: KIFKEQ_clean_linker_1, # of connection points: 2
#     Edge 109, Type (0, 0), BuildingBlock: KIFKEQ_clean_linker_1, # of connection points: 2
#     Edge 110, Type (0, 0), BuildingBlock: KIFKEQ_clean_linker_1, # of connection points: 2
#     Edge 111, Type (0, 0), BuildingBlock: KIFKEQ_clean_linker_1, # of connection points: 2
#     Edge 112, Type (0, 0), BuildingBlock: KIFKEQ_clean_linker_1, # of connection points: 2
#     Edge 113, Type (0, 0), BuildingBlock: KIFKEQ_clean_linker_1, # of connection points: 2
#     Edge 114, Type (0, 0), BuildingBlock: KIFKEQ_clean_linker_1, # of connection points: 2
#     Edge 115, Type (0, 0), BuildingBlock: KIFKEQ_clean_linker_1, # of connection points: 2
#     Edge 116, Type (0, 0), BuildingBlock: KIFKEQ_clean_linker_1, # of connection points: 2
#     Edge 117, Type (0, 0), BuildingBlock: KIFKEQ_clean_linker_1, # of connection points: 2
#     Edge 118, Type (0, 0), BuildingBlock: KIFKEQ_clean_linker_1, # of connection points: 2
#     Edge 119, Type (0, 0), BuildingBlock: KIFKEQ_clean_linker_1, # of connection points: 2
#     Edge 120, Type (0, 0), BuildingBlock: KIFKEQ_clean_linker_1, # of connection points: 2
#     Edge 121, Type (0, 0), BuildingBlock: KIFKEQ_clean_linker_1, # of connection points: 2
#     Edge 122, Type (0, 0), BuildingBlock: KIFKEQ_clean_linker_1, # of connection points: 2
#     Edge 123, Type (0, 0), BuildingBlock: KIFKEQ_clean_linker_1, # of connection points: 2
#     Edge 124, Type (0, 0), BuildingBlock: KIFKEQ_clean_linker_1, # of connection points: 2
#     Edge 125, Type (0, 0), BuildingBlock: KIFKEQ_clean_linker_1, # of connection points: 2
#     Edge 126, Type (0, 0), BuildingBlock: KIFKEQ_clean_linker_1, # of connection points: 2
#     Edge 127, Type (0, 0), BuildingBlock: KIFKEQ_clean_linker_1, # of connection points: 2
# Relax obj value: 0.277
# Max RMSD: 0.256
# Mean RMSD: 0.232
data_MOF--net-wip--node1-GEDQOX_clean_sbu_0--edge1-KIFKEQ_clean_linker_1
_symmetry_space_group_name_H-M    P1
_symmetry_Int_Tables_number       1
_symmetry_cell_setting            triclinic
loop_
_symmetry_equiv_pos_as_xyz
'x, y, z'
_cell_length_a     65.968852
_cell_length_b     65.927909
_cell_length_c     35.945731
_cell_angle_alpha  90.039931
_cell_angle_beta   90.069948
_cell_angle_gamma 90.113497
loop_
_atom_site_label
_atom_site_type_symbol
_atom_site_fract_x
_atom_site_fract_y
_atom_site_fract_z
_atom_type_partial_charge
Nd0 Nd 0.08081 0.44348 0.08359 0.0
Nd1 Nd 0.05324 0.41655 0.1319 0.0
C2 C 0.09749 0.46876 0.03475 0.0
C3 C 0.09761 0.47535 0.9954 0.0
C4 C 0.08158 0.47092 0.9709 0.0
C5 C 0.08182 0.47842 0.93427 0.0
C6 C 0.09804 0.49055 0.92156 0.0
C7 C 0.11423 0.49445 0.94612 0.0
C8 C 0.11399 0.48694 0.98253 0.0
C9 C 0.09838 0.4087 0.11057 0.0
C10 C 0.04646 0.41344 0.04478 0.0
C11 C 0.0367 0.39355 0.18435 0.0
C12 C 0.03077 0.39563 0.22409 0.0
C13 C 0.04366 0.38858 0.25245 0.0
C14 C 0.03799 0.39005 0.28989 0.0
C15 C 0.0192 0.3985 0.29996 0.0
C16 C 0.00634 0.40561 0.27157 0.0
C17 C 0.01203 0.40417 0.23415 0.0
C18 C 0.03678 0.45366 0.11374 0.0
C19 C 0.08449 0.44946 0.17271 0.0
O20 O 0.08155 0.47324 0.05477 0.0
O21 O 0.10487 0.45084 0.04237 0.0
O22 O 0.10792 0.42579 0.10631 0.0
O23 O 0.0806 0.41001 0.09766 0.0
O24 O 0.05725 0.43032 0.04264 0.0
O25 O 0.04521 0.40275 0.0757 0.0
O26 O 0.05607 0.39363 0.17684 0.0
O27 O 0.02613 0.40361 0.15975 0.0
O28 O 0.02695 0.43663 0.11287 0.0
O29 O 0.05493 0.45026 0.12243 0.0
O30 O 0.07368 0.43258 0.17528 0.0
O31 O 0.08774 0.45835 0.1402 0.0
H32 H 0.06878 0.46197 0.98024 0.0
H33 H 0.06903 0.47522 0.91628 0.0
H34 H 0.12712 0.50341 0.93725 0.0
H35 H 0.12656 0.49045 1.00089 0.0
H36 H 0.05811 0.38176 0.24567 0.0
H37 H 0.04816 0.38415 0.31091 0.0
H38 H 0.99188 0.41243 0.27828 0.0
H39 H 0.00166 0.4097 0.21311 0.0
Nd40 Nd 0.79732 0.82669 0.345 0.0
Nd41 Nd 0.82917 0.80511 0.39235 0.0
C42 C 0.77077 0.83981 0.29485 0.0
C43 C 0.76313 0.83751 0.2561 0.0
C44 C 0.74308 0.83106 0.25013 0.0
C45 C 0.73474 0.83079 0.21427 0.0
C46 C 0.7462 0.8371 0.18331 0.0
C47 C 0.7664 0.84328 0.18922 0.0
C48 C 0.77477 0.84348 0.22515 0.0
C49 C 0.82728 0.85087 0.37534 0.0
C50 C 0.83223 0.79788 0.30553 0.0
C51 C 0.85503 0.79534 0.44584 0.0
C52 C 0.8527 0.7903 0.48566 0.0
C53 C 0.86795 0.79553 0.51111 0.0
C54 C 0.86594 0.79061 0.54885 0.0
C55 C 0.8486 0.78032 0.56196 0.0
C56 C 0.83318 0.77546 0.53632 0.0
C57 C 0.83517 0.78046 0.49865 0.0
C58 C 0.79752 0.78032 0.37212 0.0
C59 C 0.78944 0.82751 0.43314 0.0
O60 O 0.76669 0.82544 0.31889 0.0
O61 O 0.78874 0.84784 0.29979 0.0
O62 O 0.80844 0.8562 0.37224 0.0
O63 O 0.82985 0.83381 0.36011 0.0
O64 O 0.81355 0.80503 0.3045 0.0
O65 O 0.84363 0.79928 0.33565 0.0
O66 O 0.85112 0.81407 0.43649 0.0
O67 O 0.84764 0.78223 0.42211 0.0
O68 O 0.81639 0.77487 0.37275 0.0
O69 O 0.79601 0.79873 0.38153 0.0
O70 O 0.80781 0.81959 0.436 0.0
O71 O 0.78063 0.83016 0.40046 0.0
H72 H 0.73362 0.82669 0.27341 0.0
H73 H 0.71907 0.82621 0.211 0.0
H74 H 0.77576 0.848 0.16606 0.0
H75 H 0.79024 0.84866 0.22869 0.0
H76 H 0.88145 0.8034 0.50178 0.0
H77 H 0.87794 0.79501 0.5678 0.0
H78 H 0.8197 0.7674 0.54514 0.0
H79 H 0.82305 0.77649 0.4796 0.0
Nd80 Nd 0.40103 0.54505 0.58802 0.0
Nd81 Nd 0.42915 0.57283 0.63407 0.0
C82 C 0.3837 0.51988 0.53948 0.0
C83 C 0.38463 0.51216 0.50079 0.0
C84 C 0.4005 0.51725 0.47648 0.0
C85 C 0.40092 0.50937 0.44008 0.0
C86 C 0.38554 0.49616 0.42737 0.0
C87 C 0.36959 0.49139 0.45188 0.0
C88 C 0.36916 0.4993 0.48805 0.0
C89 C 0.38309 0.57924 0.61691 0.0
C90 C 0.43503 0.57452 0.5467 0.0
C91 C 0.44588 0.59657 0.68537 0.0
C92 C 0.45119 0.59525 0.72543 0.0
C93 C 0.44368 0.60985 0.75027 0.0
C94 C 0.44879 0.60918 0.78808 0.0
C95 C 0.46165 0.59392 0.80204 0.0
C96 C 0.46892 0.57913 0.77712 0.0
C97 C 0.46373 0.57976 0.73931 0.0
C98 C 0.44591 0.53588 0.61557 0.0
C99 C 0.39921 0.53953 0.67731 0.0
O100 O 0.39815 0.51446 0.56239 0.0
O101 O 0.37806 0.53872 0.5442 0.0
O102 O 0.37395 0.56192 0.61278 0.0
O103 O 0.40058 0.5785 0.60249 0.0
O104 O 0.42459 0.55737 0.54639 0.0
O105 O 0.43619 0.58598 0.57678 0.0
O106 O 0.42661 0.5969 0.67718 0.0
O107 O 0.45636 0.58556 0.66208 0.0
O108 O 0.45548 0.55306 0.61402 0.0
O109 O 0.42786 0.53905 0.62516 0.0
O110 O 0.41006 0.55644 0.67885 0.0
O111 O 0.39518 0.53046 0.64521 0.0
H112 H 0.41262 0.52715 0.48574 0.0
H113 H 0.41354 0.51327 0.4222 0.0
H114 H 0.3573 0.48157 0.44307 0.0
H115 H 0.35669 0.49526 0.50622 0.0
H116 H 0.43385 0.62185 0.74037 0.0
H117 H 0.44255 0.6206 0.80641 0.0
H118 H 0.47899 0.56726 0.78664 0.0
H119 H 0.46969 0.56819 0.72094 0.0
Nd120 Nd 0.69364 0.15969 0.83606 0.0
Nd121 Nd 0.67026 0.1864 0.89129 0.0
C122 C 0.71458 0.14207 0.78209 0.0
C123 C 0.72302 0.14466 0.74398 0.0
C124 C 0.74349 0.14997 0.73897 0.0
C125 C 0.75211 0.15023 0.70337 0.0
C126 C 0.74056 0.14502 0.67178 0.0
C127 C 0.71997 0.14009 0.67676 0.0
C128 C 0.71134 0.13985 0.71237 0.0
C129 C 0.66124 0.14138 0.87139 0.0
C130 C 0.66667 0.19764 0.80272 0.0
C131 C 0.64614 0.20581 0.93831 0.0
C132 C 0.64694 0.21155 0.97803 0.0
C133 C 0.66258 0.20458 1.00126 0.0
C134 C 0.66314 0.21014 0.03894 0.0
C135 C 0.64804 0.22274 0.05419 0.0
C136 C 0.63245 0.22969 0.03061 0.0
C137 C 0.63193 0.22416 0.99297 0.0
C138 C 0.71014 0.19688 0.88183 0.0
C139 C 0.70252 0.15372 0.92373 0.0
O140 O 0.7231 0.15199 0.80968 0.0
O141 O 0.69485 0.14052 0.78553 0.0
O142 O 0.67807 0.1323 0.86337 0.0
O143 O 0.66155 0.15913 0.85841 0.0
O144 O 0.67928 0.18255 0.79607 0.0
O145 O 0.66008 0.20176 0.83666 0.0
O146 O 0.64464 0.1864 0.93116 0.0
O147 O 0.65896 0.21505 0.9163 0.0
O148 O 0.70086 0.19626 0.91355 0.0
O149 O 0.69822 0.19201 0.85586 0.0
O150 O 0.68464 0.1623 0.9291 0.0
O151 O 0.71117 0.15358 0.89048 0.0
H152 H 0.753 0.15354 0.76267 0.0
H153 H 0.76792 0.15443 0.70065 0.0
H154 H 0.71063 0.13577 0.65325 0.0
H155 H 0.69561 0.13537 0.71515 0.0
H156 H 0.67431 0.1948 0.99026 0.0
H157 H 0.67524 0.2043 0.05624 0.0
H158 H 0.62074 0.23965 0.04113 0.0
H159 H 0.61978 0.22977 0.97549 0.0
Nd160 Nd 0.06998 0.55896 0.5832 0.0
Nd161 Nd 0.04064 0.58416 0.63353 0.0
C162 C 0.09542 0.54772 0.52992 0.0
C163 C 0.09518 0.53839 0.49228 0.0
C164 C 0.09947 0.55023 0.46072 0.0
C165 C 0.10015 0.54141 0.42525 0.0
C166 C 0.09671 0.52048 0.42057 0.0
C167 C 0.09232 0.50869 0.45217 0.0
C168 C 0.09159 0.51751 0.48755 0.0
C169 C 0.04027 0.53635 0.61484 0.0
C170 C 0.02778 0.58015 0.54736 0.0
C171 C 0.01776 0.6001 0.68663 0.0
C172 C 0.013 0.59808 0.72686 0.0
C173 C 0.00293 0.58096 0.74125 0.0
C174 C -0.00265 0.58017 0.77891 0.0
C175 C 0.00168 0.59647 0.80305 0.0
C176 C 0.01216 0.61334 0.78863 0.0
C177 C 0.01765 0.61415 0.75107 0.0
C178 C 0.07007 0.60516 0.595 0.0
C179 C 0.0766 0.55681 0.67198 0.0
O180 O 0.08835 0.56616 0.53307 0.0
O181 O 0.09052 0.53621 0.55816 0.0
O182 O 0.05774 0.52896 0.60539 0.0
O183 O 0.03807 0.55428 0.60334 0.0
O184 O 0.04566 0.57135 0.54164 0.0
O185 O 0.02134 0.58493 0.58106 0.0
O186 O 0.01142 0.58589 0.66391 0.0
O187 O 0.03574 0.60706 0.67793 0.0
O188 O 0.05169 0.61169 0.59969 0.0
O189 O 0.07241 0.58869 0.61219 0.0
O190 O 0.05815 0.56433 0.67458 0.0
O191 O 0.08641 0.55599 0.63982 0.0
H192 H 0.1025 0.56632 0.4635 0.0
H193 H 0.10376 0.55091 0.4016 0.0
H194 H 0.08929 0.4926 0.44957 0.0
H195 H 0.0883 0.50788 0.51119 0.0
H196 H -0.00097 0.56831 0.72336 0.0
H197 H 0.98915 0.567 0.78882 0.0
H198 H 0.01613 0.62603 0.80638 0.0
H199 H 0.02535 0.62756 0.7408 0.0
Nd200 Nd 0.68586 0.82066 0.84276 0.0
Nd201 Nd 0.6546 0.79291 0.88569 0.0
C202 C 0.70692 0.84302 0.79546 0.0
C203 C 0.7083 0.84648 0.75505 0.0
C204 C 0.71822 0.86383 0.74183 0.0
C205 C 0.72341 0.86544 0.70421 0.0
C206 C 0.71896 0.84959 0.67916 0.0
C207 C 0.70771 0.83285 0.69216 0.0
C208 C 0.7024 0.83134 0.72974 0.0
C209 C 0.7023 0.79262 0.88905 0.0
C210 C 0.66564 0.77975 0.80235 0.0
C211 C 0.63593 0.7699 0.93537 0.0
C212 C 0.63783 0.76471 0.97527 0.0
C213 C 0.65681 0.76341 0.99293 0.0
C214 C 0.65816 0.75788 0.03057 0.0
C215 C 0.64055 0.75359 0.05137 0.0
C216 C 0.62159 0.75536 0.03356 0.0
C217 C 0.62028 0.7608 0.996 0.0
C218 C 0.63765 0.8198 0.83635 0.0
C219 C 0.67997 0.82919 0.93063 0.0
O220 O 0.69111 0.85012 0.81327 0.0
O221 O 0.71233 0.82492 0.80657 0.0
O222 O 0.71048 0.81022 0.88328 0.0
O223 O 0.68706 0.78979 0.86867 0.0
O224 O 0.67341 0.7982 0.79808 0.0
O225 O 0.65978 0.77275 0.83506 0.0
O226 O 0.65012 0.76317 0.91308 0.0
O227 O 0.6302 0.78842 0.9275 0.0
O228 O 0.62944 0.80249 0.84483 0.0
O229 O 0.65288 0.82331 0.85684 0.0
O230 O 0.66947 0.81212 0.93151 0.0
O231 O 0.68603 0.83755 0.89898 0.0
H232 H 0.72284 0.8757 0.76091 0.0
H233 H 0.73161 0.87877 0.69506 0.0
H234 H 0.70409 0.82029 0.6739 0.0
H235 H 0.6947 0.81781 0.73937 0.0
H236 H 0.67061 0.76648 0.97758 0.0
H237 H 0.67303 0.75656 0.04311 0.0
H238 H 0.60767 0.75265 0.0487 0.0
H239 H 0.60548 0.76187 0.98306 0.0
Nd240 Nd 0.41468 0.4283 0.08751 0.0
Nd241 Nd 0.44384 0.40324 0.13764 0.0
C242 C 0.38951 0.43938 0.03357 0.0
C243 C 0.38999 0.44958 0.99682 0.0
C244 C 0.38422 0.4388 0.96477 0.0
C245 C 0.38427 0.4482 0.92984 0.0
C246 C 0.38999 0.46868 0.92613 0.0
C247 C 0.39567 0.47947 0.95835 0.0
C248 C 0.3957 0.47004 0.99323 0.0
C249 C 0.4441 0.45127 0.11914 0.0
C250 C 0.45698 0.40731 0.05177 0.0
C251 C 0.46676 0.38736 0.19086 0.0
C252 C 0.4718 0.38954 0.23092 0.0
C253 C 0.47917 0.40781 0.24604 0.0
C254 C 0.48494 0.4089 0.28362 0.0
C255 C 0.48347 0.39175 0.3069 0.0
C256 C 0.47564 0.37367 0.29171 0.0
C257 C 0.46996 0.37258 0.25425 0.0
C258 C 0.41402 0.38197 0.10028 0.0
C259 C 0.40823 0.43077 0.17639 0.0
O260 O 0.39779 0.42142 0.0355 0.0
O261 O 0.39313 0.45041 0.06314 0.0
O262 O 0.42661 0.45842 0.10924 0.0
O263 O 0.44659 0.4333 0.10784 0.0
O264 O 0.43913 0.41614 0.04608 0.0
O265 O 0.46329 0.40228 0.08542 0.0
O266 O 0.47314 0.40138 0.16785 0.0
O267 O 0.44862 0.38064 0.18261 0.0
O268 O 0.43241 0.3754 0.10463 0.0
O269 O 0.41187 0.3987 0.11677 0.0
O270 O 0.42669 0.42328 0.17879 0.0
O271 O 0.3983 0.43147 0.14426 0.0
H272 H 0.37967 0.42303 0.96674 0.0
H273 H 0.38004 0.43932 0.90568 0.0
H274 H 0.39985 0.49533 0.95677 0.0
H275 H 0.40012 0.47885 1.01736 0.0
H276 H 0.48077 0.42118 0.22877 0.0
H277 H 0.49103 0.42305 0.29414 0.0
H278 H 0.47386 0.36026 0.30879 0.0
H279 H 0.46429 0.35832 0.24334 0.0
Nd280 Nd 0.80232 0.17168 0.33346 0.0
Nd281 Nd 0.83257 0.19862 0.38081 0.0
C282 C 0.78314 0.14887 0.28402 0.0
C283 C 0.78286 0.14442 0.24379 0.0
C284 C 0.77675 0.12518 0.23151 0.0
C285 C 0.77256 0.12175 0.19384 0.0
C286 C 0.7742 0.1376 0.16773 0.0
C287 C 0.78172 0.15649 0.17989 0.0
C288 C 0.78608 0.15984 0.2175 0.0
C289 C 0.78419 0.19905 0.3791 0.0
C290 C 0.82369 0.21316 0.29673 0.0
C291 C 0.85034 0.22074 0.43336 0.0
C292 C 0.84743 0.22673 0.47292 0.0
C293 C 0.85 0.24711 0.48326 0.0
C294 C 0.84828 0.25311 0.52057 0.0
C295 C 0.84396 0.23887 0.54871 0.0
C296 C 0.84099 0.21847 0.53813 0.0
C297 C 0.84271 0.21248 0.50073 0.0
C298 C 0.85044 0.17186 0.33198 0.0
C299 C 0.80599 0.16186 0.42129 0.0
O300 O 0.79825 0.14196 0.30404 0.0
O301 O 0.77742 0.16713 0.29364 0.0
O302 O 0.77619 0.18169 0.3705 0.0
O303 O 0.80035 0.20222 0.36129 0.0
O304 O 0.81521 0.19511 0.29106 0.0
O305 O 0.82949 0.21929 0.33018 0.0
O306 O 0.8377 0.2283 0.40894 0.0
O307 O 0.85508 0.20181 0.42637 0.0
O308 O 0.85873 0.18892 0.34179 0.0
O309 O 0.83467 0.16861 0.35098 0.0
O310 O 0.81625 0.17901 0.42423 0.0
O311 O 0.80076 0.15407 0.38868 0.0
H312 H 0.77428 0.11304 0.25131 0.0
H313 H 0.7673 0.10686 0.18543 0.0
H314 H 0.78309 0.16913 0.16084 0.0
H315 H 0.7909 0.17481 0.22628 0.0
H316 H 0.85355 0.25844 0.46242 0.0
H317 H 0.85028 0.269 0.5273 0.0
H318 H 0.83781 0.20699 0.55885 0.0
H319 H 0.84061 0.19665 0.49367 0.0
Nd320 Nd 0.92847 0.57806 0.24173 0.0
Nd321 Nd 0.90401 0.54689 0.28563 0.0
C322 C 0.94223 0.60364 0.19052 0.0
C323 C 0.94757 0.60197 0.15073 0.0
C324 C 0.94774 0.61933 0.12826 0.0
C325 C 0.95279 0.61794 0.09049 0.0
C326 C 0.95781 0.59912 0.07438 0.0
C327 C 0.95744 0.5817 0.09703 0.0
C328 C 0.9523 0.5831 0.13478 0.0
C329 C 0.95092 0.54517 0.26336 0.0
C330 C 0.90469 0.54034 0.19712 0.0
C331 C 0.88912 0.52028 0.33404 0.0
C332 C 0.89089 0.51248 0.37279 0.0
C333 C 0.89736 0.49246 0.37878 0.0
C334 C 0.8975 0.48411 0.4146 0.0
C335 C 0.89103 0.4955 0.44554 0.0
C336 C 0.88471 0.51563 0.4396 0.0
C337 C 0.88466 0.52403 0.4037 0.0
C338 C 0.8822 0.57877 0.25642 0.0
C339 C 0.93302 0.5804 0.32924 0.0
O340 O 0.92307 0.60159 0.1986 0.0
O341 O 0.95393 0.59403 0.21393 0.0
O342 O 0.95702 0.56384 0.2653 0.0
O343 O 0.93284 0.54451 0.25174 0.0
O344 O 0.9133 0.55849 0.19593 0.0
O345 O 0.90101 0.53114 0.22907 0.0
O346 O 0.90366 0.51598 0.31057 0.0
O347 O 0.88167 0.53846 0.32906 0.0
O348 O 0.87564 0.5602 0.25766 0.0
O349 O 0.89921 0.58003 0.27234 0.0
O350 O 0.92506 0.56198 0.32872 0.0
O351 O 0.93303 0.59206 0.29934 0.0
H352 H 0.94404 0.63401 0.13998 0.0
H353 H 0.95308 0.63169 0.07403 0.0
H354 H 0.96092 0.56693 0.0855 0.0
H355 H 0.95201 0.56944 0.15152 0.0
H356 H 0.90194 0.48305 0.35554 0.0
H357 H 0.90218 0.46847 0.41788 0.0
H358 H 0.87985 0.52495 0.46274 0.0
H359 H 0.87945 0.53948 0.40016 0.0
Nd360 Nd 0.15978 0.18289 0.99151 0.0
Nd361 Nd 0.1905 0.15874 0.03629 0.0
C362 C 0.13452 0.19645 0.93931 0.0
C363 C 0.13582 0.20264 0.89942 0.0
C364 C 0.12814 0.1899 0.87129 0.0
C365 C 0.12895 0.19572 0.83375 0.0
C366 C 0.13737 0.21453 0.82322 0.0
C367 C 0.14508 0.22724 0.85144 0.0
C368 C 0.14431 0.2214 0.88895 0.0
C369 C 0.19346 0.20529 1.0094 0.0
C370 C 0.19714 0.15779 0.94834 0.0
C371 C 0.2158 0.14309 0.08644 0.0
C372 C 0.22463 0.14521 0.12453 0.0
C373 C 0.24555 0.14856 0.12875 0.0
C374 C 0.25464 0.14838 0.16407 0.0
C375 C 0.24308 0.1447 0.19634 0.0
C376 C 0.22205 0.14164 0.19214 0.0
C377 C 0.21295 0.14189 0.15675 0.0
C378 C 0.15817 0.13687 1.0078 0.0
C379 C 0.16017 0.19122 0.07808 0.0
O380 O 0.13703 0.17726 0.94685 0.0
O381 O 0.1432 0.20813 0.96402 0.0
O382 O 0.17497 0.21168 1.01173 0.0
O383 O 0.19361 0.18681 0.99994 0.0
O384 O 0.17898 0.16631 0.9466 0.0
O385 O 0.20653 0.155 0.98041 0.0
O386 O 0.22157 0.15576 0.06045 0.0
O387 O 0.19669 0.13799 0.08346 0.0
O388 O 0.17664 0.13025 1.00951 0.0
O389 O 0.15711 0.15407 1.02322 0.0
O390 O 0.17828 0.18284 0.07627 0.0
O391 O 0.14718 0.18952 0.05011 0.0
H392 H 0.12136 0.17542 0.87835 0.0
H393 H 0.12261 0.1856 0.81304 0.0
H394 H 0.15194 0.24169 0.84456 0.0
H395 H 0.15038 0.23166 0.90972 0.0
H396 H 0.25505 0.15082 0.10452 0.0
H397 H 0.27088 0.15052 0.16593 0.0
H398 H 0.21257 0.13903 0.21624 0.0
H399 H 0.1968 0.13911 0.15468 0.0
Nd400 Nd 0.55633 0.41291 0.74617 0.0
Nd401 Nd 0.57973 0.44477 0.79033 0.0
C402 C 0.54336 0.38705 0.69464 0.0
C403 C 0.53791 0.38862 0.65482 0.0
C404 C 0.5403 0.37181 0.63134 0.0
C405 C 0.5352 0.37309 0.59355 0.0
C406 C 0.52754 0.39123 0.57842 0.0
C407 C 0.52536 0.40814 0.60204 0.0
C408 C 0.53058 0.40688 0.63979 0.0
C409 C 0.53304 0.44551 0.76637 0.0
C410 C 0.57915 0.4511 0.70177 0.0
C411 C 0.59417 0.47243 0.83741 0.0
C412 C 0.59495 0.47931 0.87662 0.0
C413 C 0.57956 0.47479 0.90233 0.0
C414 C 0.58049 0.48254 0.93879 0.0
C415 C 0.59678 0.49501 0.95015 0.0
C416 C 0.61233 0.49902 0.92437 0.0
C417 C 0.6114 0.49127 0.88814 0.0
C418 C 0.60258 0.41349 0.76151 0.0
C419 C 0.5519 0.41027 0.83396 0.0
O420 O 0.56246 0.38966 0.70278 0.0
O421 O 0.53138 0.39616 0.71822 0.0
O422 O 0.52738 0.42673 0.76888 0.0
O423 O 0.5512 0.44645 0.75535 0.0
O424 O 0.57147 0.43255 0.70055 0.0
O425 O 0.58193 0.46063 0.73374 0.0
O426 O 0.57707 0.47444 0.81927 0.0
O427 O 0.60378 0.45574 0.82892 0.0
O428 O 0.60854 0.43224 0.76291 0.0
O429 O 0.58554 0.41169 0.7772 0.0
O430 O 0.55988 0.42868 0.83397 0.0
O431 O 0.55178 0.39884 0.80371 0.0
H432 H 0.54605 0.35763 0.64229 0.0
H433 H 0.53693 0.35972 0.57631 0.0
H434 H 0.51981 0.42242 0.59127 0.0
H435 H 0.52888 0.42017 0.65726 0.0
H436 H 0.56672 0.46554 0.8941 0.0
H437 H 0.56817 0.47922 0.95772 0.0
H438 H 0.62528 0.50821 0.93215 0.0
H439 H 0.6235 0.49486 0.86886 0.0
Nd440 Nd 0.32493 0.79394 0.49423 0.0
Nd441 Nd 0.29325 0.81746 0.53952 0.0
C442 C 0.35057 0.78095 0.44268 0.0
C443 C 0.34998 0.77706 0.40207 0.0
C444 C 0.34328 0.79179 0.37656 0.0
C445 C 0.34212 0.78728 0.33845 0.0
C446 C 0.34761 0.76796 0.32501 0.0
C447 C 0.35439 0.75337 0.35074 0.0
C448 C 0.3556 0.75789 0.3887 0.0
C449 C 0.29335 0.77035 0.51871 0.0
C450 C 0.28567 0.81563 0.45147 0.0
C451 C 0.267 0.83244 0.58829 0.0
C452 C 0.2607 0.83199 0.6279 0.0
C453 C 0.25772 0.81372 0.64728 0.0
C454 C 0.25033 0.8139 0.68389 0.0
C455 C 0.2458 0.83234 0.70198 0.0
C456 C 0.24935 0.85058 0.68272 0.0
C457 C 0.25666 0.85038 0.64614 0.0
C458 C 0.3229 0.84019 0.50538 0.0
C459 C 0.32869 0.79018 0.58175 0.0
O460 O 0.34982 0.79978 0.454 0.0
O461 O 0.33962 0.76884 0.46322 0.0
O462 O 0.31226 0.76505 0.51975 0.0
O463 O 0.29183 0.78827 0.50661 0.0
O464 O 0.30435 0.80841 0.44938 0.0
O465 O 0.27643 0.81827 0.48374 0.0
O466 O 0.26333 0.81643 0.56769 0.0
O467 O 0.28435 0.84107 0.58056 0.0
O468 O 0.30413 0.84581 0.50829 0.0
O469 O 0.32557 0.82381 0.52285 0.0
O470 O 0.31023 0.79792 0.58257 0.0
O471 O 0.3397 0.78992 0.55109 0.0
H472 H 0.33881 0.80673 0.38602 0.0
H473 H 0.33707 0.799 0.31951 0.0
H474 H 0.35841 0.73823 0.34169 0.0
H475 H 0.36069 0.74625 0.40779 0.0
H476 H 0.26083 0.79931 0.63401 0.0
H477 H 0.24807 0.79957 0.69799 0.0
H478 H 0.24584 0.86504 0.69544 0.0
H479 H 0.25876 0.86467 0.63176 0.0
Nd480 Nd 0.9404 0.40762 0.74011 0.0
Nd481 Nd 0.90806 0.43162 0.7861 0.0
C482 C 0.96598 0.39353 0.68966 0.0
C483 C 0.97012 0.39536 0.64938 0.0
C484 C 0.96914 0.41411 0.63084 0.0
C485 C 0.97358 0.41539 0.59276 0.0
C486 C 0.97892 0.39792 0.57243 0.0
C487 C 0.97966 0.37919 0.59113 0.0
C488 C 0.97534 0.37795 0.62915 0.0
C489 C 0.91301 0.38499 0.78028 0.0
C490 C 0.90205 0.42987 0.69743 0.0
C491 C 0.88249 0.44362 0.83847 0.0
C492 C 0.88416 0.4528 0.87611 0.0
C493 C 0.87987 0.44122 0.908 0.0
C494 C 0.88169 0.44974 0.94361 0.0
C495 C 0.88785 0.47005 0.94811 0.0
C496 C 0.89186 0.48166 0.91613 0.0
C497 C 0.89003 0.47317 0.88064 0.0
C498 C 0.93613 0.45508 0.75145 0.0
C499 C 0.9514 0.41558 0.82568 0.0
O500 O 0.96977 0.40941 0.71052 0.0
O501 O 0.94931 0.38405 0.6991 0.0
O502 O 0.93196 0.38012 0.77618 0.0
O503 O 0.90897 0.40061 0.76139 0.0
O504 O 0.921 0.42355 0.69624 0.0
O505 O 0.89184 0.43131 0.72912 0.0
O506 O 0.88843 0.42481 0.83484 0.0
O507 O 0.88782 0.45492 0.81021 0.0
O508 O 0.91771 0.4611 0.75728 0.0
O509 O 0.93957 0.43834 0.76692 0.0
O510 O 0.93247 0.42205 0.82995 0.0
O511 O 0.95911 0.41119 0.79279 0.0
H512 H 0.96498 0.42777 0.64576 0.0
H513 H 0.97265 0.43001 0.57915 0.0
H514 H 0.98395 0.36549 0.57651 0.0
H515 H 0.97622 0.36335 0.64288 0.0
H516 H 0.87525 0.4255 0.90542 0.0
H517 H 0.8786 0.44031 0.96762 0.0
H518 H 0.89625 0.49745 0.91846 0.0
H519 H 0.89329 0.48265 0.85678 0.0
Nd520 Nd 0.33547 0.19086 0.48697 0.0
Nd521 Nd 0.30085 0.16738 0.53149 0.0
C522 C 0.35519 0.2163 0.44267 0.0
C523 C 0.35388 0.22227 0.40257 0.0
C524 C 0.34229 0.23914 0.39142 0.0
C525 C 0.3411 0.2448 0.35381 0.0
C526 C 0.35148 0.23379 0.32615 0.0
C527 C 0.36312 0.21697 0.33738 0.0
C528 C 0.36434 0.21134 0.37498 0.0
C529 C 0.34798 0.15964 0.53308 0.0
C530 C 0.31139 0.1533 0.44672 0.0
C531 C 0.27804 0.14769 0.57985 0.0
C532 C 0.27311 0.14565 0.61962 0.0
C533 C 0.28648 0.15188 0.64781 0.0
C534 C 0.28054 0.15087 0.68526 0.0
C535 C 0.26105 0.14383 0.69508 0.0
C536 C 0.24786 0.13757 0.66646 0.0
C537 C 0.25386 0.13841 0.62927 0.0
C538 C 0.28742 0.19048 0.47408 0.0
C539 C 0.32237 0.20855 0.56913 0.0
O540 O 0.34032 0.22189 0.46447 0.0
O541 O 0.36163 0.19797 0.45026 0.0
O542 O 0.35784 0.1646 0.50308 0.0
O543 O 0.33392 0.17195 0.53814 0.0
O544 O 0.32101 0.17072 0.44259 0.0
O545 O 0.30573 0.14652 0.48002 0.0
O546 O 0.29553 0.14069 0.56797 0.0
O547 O 0.27267 0.1648 0.56415 0.0
O548 O 0.27829 0.17413 0.48517 0.0
O549 O 0.30186 0.19508 0.49552 0.0
O550 O 0.30786 0.19453 0.57048 0.0
O551 O 0.33541 0.20988 0.54104 0.0
H552 H 0.33407 0.248 0.41179 0.0
H553 H 0.3318 0.25769 0.34638 0.0
H554 H 0.3716 0.20828 0.31715 0.0
H555 H 0.37358 0.19839 0.38239 0.0
H556 H 0.30132 0.15777 0.64093 0.0
H557 H 0.29121 0.15566 0.70644 0.0
H558 H 0.23259 0.13254 0.67257 0.0
H559 H 0.24323 0.13379 0.60785 0.0
Nd560 Nd 0.54293 0.58438 0.24278 0.0
Nd561 Nd 0.57389 0.5596 0.28992 0.0
C562 C 0.51833 0.59941 0.19145 0.0
C563 C 0.51369 0.59763 0.15125 0.0
C564 C 0.51191 0.57872 0.13341 0.0
C565 C 0.50658 0.57761 0.09564 0.0
C566 C 0.50295 0.59539 0.07489 0.0
C567 C 0.50522 0.61426 0.09283 0.0
C568 C 0.51046 0.61534 0.13051 0.0
C569 C 0.57049 0.60627 0.28424 0.0
C570 C 0.58079 0.56078 0.20139 0.0
C571 C 0.59905 0.54752 0.34297 0.0
C572 C 0.59736 0.53847 0.38067 0.0
C573 C 0.6013 0.55025 0.41252 0.0
C574 C 0.59962 0.54179 0.44815 0.0
C575 C 0.594 0.52133 0.45272 0.0
C576 C 0.59033 0.50954 0.42078 0.0
C577 C 0.592 0.51797 0.38526 0.0
C578 C 0.54612 0.5366 0.25355 0.0
C579 C 0.53044 0.57663 0.32802 0.0
O580 O 0.51354 0.58406 0.21289 0.0
O581 O 0.53564 0.60784 0.20047 0.0
O582 O 0.55171 0.61158 0.2796 0.0
O583 O 0.5743 0.5906 0.26535 0.0
O584 O 0.56208 0.56771 0.19947 0.0
O585 O 0.59062 0.5592 0.23348 0.0
O586 O 0.59323 0.56636 0.33915 0.0
O587 O 0.59368 0.53616 0.31478 0.0
O588 O 0.56434 0.53034 0.26069 0.0
O589 O 0.54249 0.55339 0.26889 0.0
O590 O 0.54882 0.56874 0.33272 0.0
O591 O 0.52367 0.58219 0.29497 0.0
H592 H 0.5144 0.56479 0.14872 0.0
H593 H 0.50486 0.56281 0.08295 0.0
H594 H 0.503 0.62829 0.07774 0.0
H595 H 0.51184 0.63009 0.14359 0.0
H596 H 0.60559 0.56606 0.40988 0.0
H597 H 0.60243 0.55135 0.47212 0.0
H598 H 0.58637 0.49364 0.42316 0.0
H599 H 0.58907 0.50834 0.36143 0.0
Nd600 Nd 0.14951 0.78761 0.99217 0.0
Nd601 Nd 0.18311 0.80851 0.04116 0.0
C602 C 0.12925 0.76354 0.94616 0.0
C603 C 0.13115 0.7574 0.90637 0.0
C604 C 0.14959 0.75036 0.89155 0.0
C605 C 0.15106 0.74468 0.85396 0.0
C606 C 0.13415 0.74593 0.83003 0.0
C607 C 0.11577 0.75315 0.845 0.0
C608 C 0.11431 0.75876 0.88259 0.0
C609 C 0.13682 0.81875 0.03849 0.0
C610 C 0.17832 0.82168 0.95223 0.0
C611 C 0.2043 0.83306 0.08429 0.0
C612 C 0.20965 0.8347 0.12398 0.0
C613 C 0.19574 0.82983 0.15218 0.0
C614 C 0.20176 0.83021 0.18958 0.0
C615 C 0.22182 0.83529 0.19942 0.0
C616 C 0.23556 0.84034 0.17091 0.0
C617 C 0.2295 0.8401 0.13368 0.0
C618 C 0.19481 0.77464 1.00468 0.0
C619 C 0.15911 0.77001 0.0773 0.0
O620 O 0.14312 0.75698 0.96937 0.0
O621 O 0.124 0.78238 0.95265 0.0
O622 O 0.12837 0.81529 1.00637 0.0
O623 O 0.14971 0.80542 0.04483 0.0
O624 O 0.16566 0.80636 0.94792 0.0
O625 O 0.18557 0.82674 0.98549 0.0
O626 O 0.18539 0.8366 0.07485 0.0
O627 O 0.21225 0.81762 0.06664 0.0
O628 O 0.20168 0.77943 0.03751 0.0
O629 O 0.18352 0.78824 0.99146 0.0
O630 O 0.16983 0.78662 0.08418 0.0
O631 O 0.15127 0.76617 0.04384 0.0
H632 H 0.16292 0.74915 0.90902 0.0
H633 H 0.16543 0.73901 0.84386 0.0
H634 H 0.10247 0.75473 0.82756 0.0
H635 H 0.09994 0.76425 0.89311 0.0
H636 H 0.18034 0.82546 0.14531 0.0
H637 H 0.1907 0.82644 0.21073 0.0
H638 H 0.25122 0.8439 0.17718 0.0
H639 H 0.24051 0.8437 0.11231 0.0
Nd640 Nd 0.57408 0.93582 0.58985 0.0
Nd641 Nd 0.551 0.90428 0.63662 0.0
C642 C 0.58647 0.9635 0.54093 0.0
C643 C 0.58807 0.9691 0.50092 0.0
C644 C 0.57153 0.96775 0.47629 0.0
C645 C 0.57314 0.97508 0.43963 0.0
C646 C 0.59129 0.984 0.42679 0.0
C647 C 0.60794 0.98472 0.45133 0.0
C648 C 0.60633 0.9774 0.48781 0.0
C649 C 0.59673 0.90376 0.61584 0.0
C650 C 0.54583 0.90058 0.54864 0.0
C651 C 0.5388 0.87925 0.69012 0.0
C652 C 0.5332 0.88087 0.73017 0.0
C653 C 0.54258 0.86824 0.75646 0.0
C654 C 0.53724 0.8692 0.79421 0.0
C655 C 0.52222 0.88277 0.80679 0.0
C656 C 0.513 0.89558 0.78033 0.0
C657 C 0.51845 0.8947 0.74261 0.0
C658 C 0.52814 0.93742 0.61768 0.0
C659 C 0.57546 0.94247 0.6785 0.0
O660 O 0.56854 0.96363 0.55654 0.0
O661 O 0.59809 0.94897 0.55342 0.0
O662 O 0.60346 0.92223 0.6133 0.0
O663 O 0.57907 0.90256 0.60245 0.0
O664 O 0.55446 0.91866 0.54715 0.0
O665 O 0.54506 0.88984 0.57969 0.0
O666 O 0.55786 0.88209 0.68168 0.0
O667 O 0.52656 0.88747 0.66582 0.0
O668 O 0.52189 0.91879 0.61595 0.0
O669 O 0.54655 0.93781 0.62728 0.0
O670 O 0.56758 0.92402 0.68047 0.0
O671 O 0.57773 0.95183 0.64623 0.0
H672 H 0.55722 0.96146 0.48557 0.0
H673 H 0.55993 0.97435 0.42178 0.0
H674 H 0.62228 0.9911 0.44244 0.0
H675 H 0.61932 0.97864 0.50616 0.0
H676 H 0.55406 0.85752 0.74774 0.0
H677 H 0.54504 0.85935 0.81357 0.0
H678 H 0.50122 0.90607 0.78854 0.0
H679 H 0.51095 0.90474 0.72316 0.0
Nd680 Nd 0.29565 0.33518 0.83854 0.0
Nd681 Nd 0.32293 0.30486 0.8824 0.0
C682 C 0.27195 0.35428 0.79006 0.0
C683 C 0.2636 0.35273 0.75183 0.0
C684 C 0.26299 0.33424 0.73243 0.0
C685 C 0.25455 0.33322 0.69655 0.0
C686 C 0.24647 0.35066 0.67926 0.0
C687 C 0.24735 0.36916 0.69887 0.0
C688 C 0.25581 0.37015 0.73463 0.0
C689 C 0.32923 0.35152 0.87287 0.0
C690 C 0.32372 0.30095 0.79389 0.0
C691 C 0.3469 0.28844 0.93366 0.0
C692 C 0.34647 0.28367 0.97425 0.0
C693 C 0.34654 0.29899 1.0016 0.0
C694 C 0.34673 0.29402 0.03965 0.0
C695 C 0.34689 0.27361 0.05142 0.0
C696 C 0.34665 0.25838 1.0239 0.0
C697 C 0.3465 0.26334 0.98597 0.0
C698 C 0.28665 0.28879 0.85855 0.0
C699 C 0.28738 0.33228 0.92705 0.0
O700 O 0.26518 0.3414 0.8149 0.0
O701 O 0.29142 0.35776 0.79326 0.0
O702 O 0.31217 0.36101 0.86858 0.0
O703 O 0.32864 0.33481 0.8556 0.0
O704 O 0.30718 0.31225 0.79517 0.0
O705 O 0.33526 0.29829 0.8237 0.0
O706 O 0.34795 0.30751 0.92365 0.0
O707 O 0.33496 0.27781 0.91204 0.0
O708 O 0.30372 0.27894 0.85857 0.0
O709 O 0.28964 0.30652 0.87048 0.0
O710 O 0.30338 0.3201 0.9284 0.0
O711 O 0.2802 0.33943 0.89522 0.0
H712 H 0.26895 0.32059 0.7451 0.0
H713 H 0.25444 0.31875 0.68229 0.0
H714 H 0.24106 0.38286 0.68698 0.0
H715 H 0.25607 0.38457 0.74909 0.0
H716 H 0.34662 0.31484 0.9937 0.0
H717 H 0.34715 0.30622 0.05981 0.0
H718 H 0.34641 0.2425 0.03161 0.0
H719 H 0.34649 0.25118 0.96568 0.0
Nd720 Nd 0.90971 0.05192 0.08718 0.0
Nd721 Nd 0.93445 0.08253 0.13151 0.0
C722 C 0.8945 0.02522 0.039 0.0
C723 C 0.89548 0.01864 0.99963 0.0
C724 C 0.91231 0.02295 0.97707 0.0
C725 C 0.91299 0.01596 0.94016 0.0
C726 C 0.89683 0.00456 0.92497 0.0
C727 C 0.8799 0.0006 0.94767 0.0
C728 C 0.87927 0.00755 0.98451 0.0
C729 C 0.88856 0.08488 0.11368 0.0
C730 C 0.94017 0.08415 0.04408 0.0
C731 C 0.94871 0.10796 0.18255 0.0
C732 C 0.95369 0.10684 0.22279 0.0
C733 C 0.93913 0.10117 0.24946 0.0
C734 C 0.94442 0.09957 0.28715 0.0
C735 C 0.96435 0.1037 0.29911 0.0
C736 C 0.9788 0.1095 0.27233 0.0
C737 C 0.97352 0.11106 0.23471 0.0
C738 C 0.95595 0.04845 0.11273 0.0
C739 C 0.90853 0.04627 0.17575 0.0
O740 O 0.91028 0.02162 0.06009 0.0
O741 O 0.88629 0.04287 0.04574 0.0
O742 O 0.88139 0.06654 0.11263 0.0
O743 O 0.90592 0.08545 0.09899 0.0
O744 O 0.93134 0.06616 0.04442 0.0
O745 O 0.94051 0.09589 0.07389 0.0
O746 O 0.92961 0.10696 0.17308 0.0
O747 O 0.96032 0.09757 0.16019 0.0
O748 O 0.96264 0.06686 0.10963 0.0
O749 O 0.9377 0.04866 0.12339 0.0
O750 O 0.91755 0.06422 0.17695 0.0
O751 O 0.90535 0.03678 0.14387 0.0
H752 H 0.92495 0.03161 0.98804 0.0
H753 H 0.92615 0.01958 0.92346 0.0
H754 H 0.8673 0.99171 0.93727 0.0
H755 H 0.86614 0.00404 1.00142 0.0
H756 H 0.92367 0.0979 0.24125 0.0
H757 H 0.93282 0.09531 0.30697 0.0
H758 H -0.00565 0.11253 0.28032 0.0
H759 H 0.98504 0.11541 0.21478 0.0
Nd760 Nd 0.19076 0.64248 0.3388 0.0
Nd761 Nd 0.16428 0.67152 0.38656 0.0
C762 C 0.21526 0.62531 0.28911 0.0
C763 C 0.22209 0.62621 0.24976 0.0
C764 C 0.22169 0.6443 0.22911 0.0
C765 C 0.22951 0.64488 0.19272 0.0
C766 C 0.23788 0.62738 0.17608 0.0
C767 C 0.23776 0.60923 0.19673 0.0
C768 C 0.22999 0.60868 0.23304 0.0
C769 C 0.15559 0.62616 0.36688 0.0
C770 C 0.16144 0.67705 0.29849 0.0
C771 C 0.14141 0.68861 0.43893 0.0
C772 C 0.14196 0.69338 0.4794 0.0
C773 C 0.12456 0.69015 0.50105 0.0
C774 C 0.12427 0.69536 0.5389 0.0
C775 C 0.14141 0.70402 0.55626 0.0
C776 C 0.15902 0.70685 0.53459 0.0
C777 C 0.15929 0.70159 0.49666 0.0
C778 C 0.20156 0.68692 0.3666 0.0
C779 C 0.19704 0.64007 0.42801 0.0
O780 O 0.22076 0.64013 0.31123 0.0
O781 O 0.19679 0.61898 0.29559 0.0
O782 O 0.17238 0.61606 0.36312 0.0
O783 O 0.15747 0.64372 0.35325 0.0
O784 O 0.17817 0.66602 0.29737 0.0
O785 O 0.15078 0.6791 0.32946 0.0
O786 O 0.14006 0.66951 0.42957 0.0
O787 O 0.1535 0.6988 0.417 0.0
O788 O 0.18479 0.69719 0.36598 0.0
O789 O 0.19775 0.66897 0.37617 0.0
O790 O 0.18053 0.65145 0.43033 0.0
O791 O 0.20554 0.63582 0.39553 0.0
H792 H 0.21558 0.65803 0.24126 0.0
H793 H 0.229 0.65908 0.17765 0.0
H794 H 0.24426 0.5955 0.18531 0.0
H795 H 0.23053 0.59456 0.24842 0.0
H796 H 0.11105 0.6837 0.48855 0.0
H797 H 0.11057 0.6925 0.55459 0.0
H798 H 0.17248 0.71358 0.54666 0.0
H799 H 0.173 0.70418 0.48076 0.0
Nd800 Nd 0.56969 0.05085 0.08618 0.0
Nd801 Nd 0.5486 0.08383 0.13753 0.0
C802 C 0.59373 0.0302 0.04129 0.0
C803 C 0.59422 0.02609 1.00102 0.0
C804 C 0.57802 0.03203 0.9782 0.0
C805 C 0.57718 0.02581 0.94101 0.0
C806 C 0.5926 0.0136 0.92589 0.0
C807 C 0.60928 0.00848 0.94845 0.0
C808 C 0.61003 0.01462 0.98575 0.0
C809 C 0.53516 0.03902 0.1198 0.0
C810 C 0.53138 0.07587 0.05195 0.0
C811 C 0.52413 0.10424 0.18245 0.0
C812 C 0.51742 0.10249 0.22161 0.0
C813 C 0.52433 0.08668 0.24449 0.0
C814 C 0.51816 0.08544 0.2818 0.0
C815 C 0.50493 0.10002 0.29708 0.0
C816 C 0.49794 0.11572 0.27376 0.0
C817 C 0.50414 0.11693 0.23652 0.0
C818 C 0.58001 0.09715 0.09252 0.0
C819 C 0.58143 0.05325 0.1767 0.0
O820 O 0.59771 0.04883 0.05198 0.0
O821 O 0.57836 0.02214 0.059 0.0
O822 O 0.54035 0.03271 0.08683 0.0
O823 O 0.54872 0.04982 0.13467 0.0
O824 O 0.5482 0.06581 0.044 0.0
O825 O 0.52721 0.08254 0.086 0.0
O826 O 0.51781 0.09008 0.15958 0.0
O827 O 0.5432 0.10903 0.17725 0.0
O828 O 0.57609 0.10556 0.12444 0.0
O829 O 0.56676 0.08425 0.08568 0.0
O830 O 0.56663 0.06645 0.18131 0.0
O831 O 0.5867 0.04654 0.14309 0.0
H832 H 0.56567 0.04091 0.98949 0.0
H833 H 0.56426 0.03022 0.92427 0.0
H834 H 0.6213 -0.00105 0.93776 0.0
H835 H 0.62261 0.00981 1.00301 0.0
H836 H 0.53463 0.07536 0.23357 0.0
H837 H 0.52408 0.07327 0.29883 0.0
H838 H 0.48751 0.12703 0.28417 0.0
H839 H 0.49856 0.12921 0.21933 0.0
Nd840 Nd 0.18127 0.32709 0.33966 0.0
Nd841 Nd 0.15125 0.29894 0.38329 0.0
C842 C 0.2014 0.34927 0.2904 0.0
C843 C 0.20411 0.34921 0.24948 0.0
C844 C 0.20662 0.36748 0.23002 0.0
C845 C 0.21211 0.36735 0.19229 0.0
C846 C 0.21546 0.34891 0.17329 0.0
C847 C 0.21202 0.33066 0.19272 0.0
C848 C 0.20628 0.33082 0.23013 0.0
C849 C 0.19905 0.29742 0.38038 0.0
C850 C 0.1597 0.28627 0.29833 0.0
C851 C 0.13415 0.27543 0.43434 0.0
C852 C 0.13634 0.26995 0.47438 0.0
C853 C 0.13987 0.24966 0.48435 0.0
C854 C 0.14095 0.24386 0.52183 0.0
C855 C 0.13841 0.25818 0.55057 0.0
C856 C 0.13518 0.2786 0.5405 0.0
C857 C 0.13416 0.2844 0.50294 0.0
C858 C 0.13297 0.32707 0.33786 0.0
C859 C 0.17781 0.33456 0.42808 0.0
O860 O 0.18392 0.35501 0.30404 0.0
O861 O 0.20898 0.33367 0.30787 0.0
O862 O 0.20635 0.31562 0.37749 0.0
O863 O 0.18306 0.29526 0.36154 0.0
O864 O 0.16992 0.3036 0.29546 0.0
O865 O 0.1524 0.27979 0.33045 0.0
O866 O 0.14825 0.26906 0.41151 0.0
O867 O 0.12768 0.2937 0.42622 0.0
O868 O 0.12494 0.30963 0.34589 0.0
O869 O 0.14885 0.32996 0.35703 0.0
O870 O 0.16757 0.31733 0.42879 0.0
O871 O 0.18286 0.34348 0.39635 0.0
H872 H 0.20495 0.38186 0.24428 0.0
H873 H 0.2141 0.38174 0.17828 0.0
H874 H 0.21464 0.3161 0.17968 0.0
H875 H 0.20442 0.31646 0.24437 0.0
H876 H 0.14162 0.23817 0.46303 0.0
H877 H 0.14385 0.22808 0.52823 0.0
H878 H 0.13293 0.29008 0.56162 0.0
H879 H 0.13139 0.30018 0.49636 0.0
Nd880 Nd 0.91575 0.93468 0.58225 0.0
Nd881 Nd 0.94477 0.90937 0.63189 0.0
C882 C 0.88981 0.94561 0.52963 0.0
C883 C 0.89023 0.95606 0.49324 0.0
C884 C 0.88268 0.94609 0.46157 0.0
C885 C 0.88311 0.95558 0.42675 0.0
C886 C 0.89096 0.97532 0.42296 0.0
C887 C 0.89844 0.9853 0.45476 0.0
C888 C 0.89814 0.97577 0.4895 0.0
C889 C 0.94667 0.95719 0.60986 0.0
C890 C 0.95698 0.91215 0.54545 0.0
C891 C 0.96693 0.8922 0.68474 0.0
C892 C 0.97387 0.89505 0.72343 0.0
C893 C 0.97599 0.91437 0.73952 0.0
C894 C 0.98255 0.91636 0.77655 0.0
C895 C 0.98708 0.89907 0.79809 0.0
C896 C 0.9847 0.87981 0.78169 0.0
C897 C 0.97821 0.87786 0.74485 0.0
C898 C 0.91359 0.88866 0.59708 0.0
C899 C 0.9129 0.94074 0.67056 0.0
O900 O 0.89836 0.92776 0.53089 0.0
O901 O 0.89344 0.95648 0.55938 0.0
O902 O 0.92944 0.96495 0.5999 0.0
O903 O 0.9481 0.93881 0.60031 0.0
O904 O 0.93923 0.92129 0.5402 0.0
O905 O 0.96361 0.90735 0.57902 0.0
O906 O 0.97453 0.90411 0.65914 0.0
O907 O 0.9476 0.88855 0.68002 0.0
O908 O 0.93184 0.88165 0.60064 0.0
O909 O 0.91225 0.90564 0.61301 0.0
O910 O 0.93123 0.9329 0.67121 0.0
O911 O 0.90128 0.93951 0.64046 0.0
H912 H 0.87647 0.93091 0.46376 0.0
H913 H 0.87708 0.94755 0.40288 0.0
H914 H 0.90484 0.0004 0.45269 0.0
H915 H 0.9042 0.98381 0.51334 0.0
H916 H 0.97261 0.92787 0.7235 0.0
H917 H 0.98431 0.93143 0.78812 0.0
H918 H 0.98759 0.86614 0.7975 0.0
H919 H 0.9765 0.86282 0.73305 0.0
Nd920 Nd 0.30612 0.65033 0.83606 0.0
Nd921 Nd 0.32494 0.68494 0.88465 0.0
C922 C 0.2986 0.62361 0.78253 0.0
C923 C 0.28856 0.62387 0.74551 0.0
C924 C 0.29934 0.61791 0.71365 0.0
C925 C 0.29002 0.61796 0.67855 0.0
C926 C 0.26963 0.62388 0.67456 0.0
C927 C 0.25893 0.62996 0.70652 0.0
C928 C 0.26827 0.63 0.7415 0.0
C929 C 0.27852 0.67633 0.8648 0.0
C930 C 0.32022 0.69487 0.79812 0.0
C931 C 0.33492 0.71243 0.93547 0.0
C932 C 0.33464 0.71625 0.97629 0.0
C933 C 0.3201 0.72933 0.99183 0.0
C934 C 0.32081 0.73449 0.02966 0.0
C935 C 0.33621 0.72685 0.05286 0.0
C936 C 0.35052 0.71347 0.03742 0.0
C937 C 0.34976 0.70826 0.99966 0.0
C938 C 0.35149 0.65922 0.84871 0.0
C939 C 0.30511 0.6448 0.92563 0.0
O940 O 0.31579 0.63336 0.78549 0.0
O941 O 0.28703 0.62602 0.81171 0.0
O942 O 0.27449 0.65745 0.85801 0.0
O943 O 0.29572 0.68137 0.85281 0.0
O944 O 0.31604 0.6753 0.7933 0.0
O945 O 0.32171 0.70314 0.83144 0.0
O946 O 0.31756 0.71247 0.91769 0.0
O947 O 0.34749 0.69872 0.92282 0.0
O948 O 0.35447 0.67859 0.85272 0.0
O949 O 0.33556 0.65403 0.86564 0.0
O950 O 0.31006 0.66415 0.92742 0.0
O951 O 0.30538 0.63452 0.89379 0.0
H952 H 0.315 0.61315 0.71592 0.0
H953 H 0.29869 0.61306 0.65462 0.0
H954 H 0.24334 0.63497 0.70446 0.0
H955 H 0.25954 0.63488 0.76537 0.0
H956 H 0.3084 0.73597 0.97454 0.0
H957 H 0.30967 0.74499 0.04045 0.0
H958 H 0.36241 0.70706 0.05453 0.0
H959 H 0.3613 0.69823 0.98871 0.0
Nd960 Nd 0.4337 0.07239 0.74186 0.0
Nd961 Nd 0.40538 0.04605 0.7924 0.0
C962 C 0.45022 0.09496 0.68852 0.0
C963 C 0.45491 0.09424 0.64808 0.0
C964 C 0.43983 0.091 0.62095 0.0
C965 C 0.44475 0.09116 0.58291 0.0
C966 C 0.46484 0.09462 0.57107 0.0
C967 C 0.47986 0.0976 0.59843 0.0
C968 C 0.47494 0.09746 0.63632 0.0
C969 C 0.45033 0.03642 0.76611 0.0
C970 C 0.40337 0.03755 0.70366 0.0
C971 C 0.38867 0.02221 0.84366 0.0
C972 C 0.39049 0.01412 0.88228 0.0
C973 C 0.39247 0.99311 0.88763 0.0
C974 C 0.39252 0.98475 0.92347 0.0
C975 C 0.3905 -0.00287 0.95521 0.0
C976 C 0.38866 0.01823 0.94988 0.0
C977 C 0.38866 0.02663 0.91389 0.0
C978 C 0.38768 0.07886 0.75833 0.0
C979 C 0.43939 0.07722 0.82951 0.0
O980 O 0.43124 0.09632 0.69859 0.0
O981 O 0.46069 0.08304 0.71026 0.0
O982 O 0.46019 0.05343 0.76394 0.0
O983 O 0.43226 0.03925 0.75628 0.0
O984 O 0.41429 0.0543 0.69956 0.0
O985 O 0.39951 0.02966 0.73683 0.0
O986 O 0.40155 0.0157 0.81864 0.0
O987 O 0.38384 0.04132 0.83909 0.0
O988 O 0.37825 0.06199 0.76552 0.0
O989 O 0.40512 0.0786 0.77295 0.0
O990 O 0.42875 0.06027 0.83246 0.0
O991 O 0.44113 0.08719 0.79776 0.0
H992 H 0.4242 0.08851 0.62905 0.0
H993 H 0.43271 0.089 0.56278 0.0
H994 H 0.49554 0.09994 0.59062 0.0
H995 H 0.48687 0.1 0.65656 0.0
H996 H 0.39357 0.98303 0.86391 0.0
H997 H 0.39363 0.96843 0.92619 0.0
H998 H 0.38729 0.02831 0.97354 0.0
H999 H 0.38699 0.04288 0.91087 0.0
Nd1000 Nd 0.66336 0.67909 0.49315 0.0
Nd1001 Nd 0.68961 0.65097 0.54184 0.0
C1002 C 0.64027 0.69508 0.44018 0.0
C1003 C 0.64179 0.70045 0.40017 0.0
C1004 C 0.62739 0.69279 0.37503 0.0
C1005 C 0.62805 0.69812 0.33734 0.0
C1006 C 0.64312 0.71136 0.32376 0.0
C1007 C 0.65777 0.71874 0.34896 0.0
C1008 C 0.65713 0.71334 0.38668 0.0
C1009 C 0.70024 0.69554 0.51282 0.0
C1010 C 0.69682 0.648 0.45306 0.0
C1011 C 0.71314 0.63405 0.59339 0.0
C1012 C 0.72076 0.63645 0.63229 0.0
C1013 C 0.73496 0.65154 0.64184 0.0
C1014 C 0.74302 0.65262 0.67797 0.0
C1015 C 0.73716 0.63863 0.70565 0.0
C1016 C 0.72285 0.62363 0.69602 0.0
C1017 C 0.71483 0.62253 0.65987 0.0
C1018 C 0.65492 0.63381 0.51272 0.0
C1019 C 0.66094 0.68653 0.57995 0.0
O1020 O 0.64029 0.67579 0.44836 0.0
O1021 O 0.65074 0.7059 0.46392 0.0
O1022 O 0.68331 0.70549 0.51227 0.0
O1023 O 0.69696 0.67731 0.50416 0.0
O1024 O 0.68043 0.65948 0.45012 0.0
O1025 O 0.70489 0.64365 0.48587 0.0
O1026 O 0.71985 0.64655 0.56786 0.0
O1027 O 0.69401 0.62938 0.58877 0.0
O1028 O 0.67191 0.62416 0.517 0.0
O1029 O 0.65635 0.65142 0.52646 0.0
O1030 O 0.67784 0.67583 0.58157 0.0
O1031 O 0.64985 0.6875 0.54943 0.0
H1032 H 0.61549 0.68272 0.38463 0.0
H1033 H 0.61675 0.69177 0.3188 0.0
H1034 H 0.6695 0.72909 0.33975 0.0
H1035 H 0.66855 0.71943 0.4053 0.0
H1036 H 0.74011 0.66239 0.6213 0.0
H1037 H 0.7542 0.66422 0.68394 0.0
H1038 H 0.71769 0.61275 0.71649 0.0
H1039 H 0.70408 0.6106 0.65338 0.0
Nd1040 Nd 0.05772 0.91705 0.23993 0.0
Nd1041 Nd 0.08619 0.94412 0.28628 0.0
C1042 C 0.04207 0.89349 0.18745 0.0
C1043 C 0.03715 0.89572 0.14738 0.0
C1044 C 0.04532 0.88207 0.12144 0.0
C1045 C 0.04076 0.88387 0.08351 0.0
C1046 C 0.02783 0.89933 0.07064 0.0
C1047 C 0.01983 0.91311 0.09666 0.0
C1048 C 0.02448 0.91138 0.13455 0.0
C1049 C 0.04068 0.95348 0.26032 0.0
C1050 C 0.08691 0.95165 0.19775 0.0
C1051 C 0.10465 0.96778 0.33591 0.0
C1052 C 0.10385 0.97456 0.37522 0.0
C1053 C 0.08594 0.97353 0.39621 0.0
C1054 C 0.08559 0.98062 0.43309 0.0
C1055 C 0.10314 0.98888 0.44985 0.0
C1056 C 0.12107 0.98962 0.42865 0.0
C1057 C 0.12139 0.98255 0.39185 0.0
C1058 C 0.10326 0.91026 0.25411 0.0
C1059 C 0.0522 0.91448 0.32727 0.0
O1060 O 0.0613 0.89342 0.19623 0.0
O1061 O 0.03109 0.90375 0.21113 0.0
O1062 O 0.03117 0.93623 0.26061 0.0
O1063 O 0.05882 0.9507 0.2507 0.0
O1064 O 0.07588 0.93487 0.19543 0.0
O1065 O 0.09144 0.95999 0.23026 0.0
O1066 O 0.09031 0.9741 0.31352 0.0
O1067 O 0.10978 0.94892 0.32973 0.0
O1068 O 0.11242 0.92763 0.25719 0.0
O1069 O 0.08636 0.91097 0.27051 0.0
O1070 O 0.06272 0.93158 0.32797 0.0
O1071 O 0.05086 0.90334 0.29681 0.0
H1072 H 0.05519 0.86993 0.13057 0.0
H1073 H 0.04706 0.87289 0.06434 0.0
H1074 H 0.01009 0.92537 0.08769 0.0
H1075 H 0.01813 0.92232 0.15373 0.0
H1076 H 0.0722 0.96742 0.384 0.0
H1077 H 0.07141 0.97999 0.44819 0.0
H1078 H 0.13497 -0.00448 0.44056 0.0
H1079 H 0.13541 0.98342 0.37624 0.0
Nd1080 Nd 0.82195 0.31611 0.99097 0.0
Nd1081 Nd 0.79504 0.34384 0.03806 0.0
C1082 C 0.84453 0.29916 0.93809 0.0
C1083 C 0.84272 0.29379 0.89791 0.0
C1084 C 0.85626 0.30224 0.87203 0.0
C1085 C 0.85538 0.29678 0.83431 0.0
C1086 C 0.84096 0.28262 0.82138 0.0
C1087 C 0.82724 0.27436 0.84732 0.0
C1088 C 0.82808 0.27988 0.88503 0.0
C1089 C 0.78503 0.29934 1.00874 0.0
C1090 C 0.7893 0.34749 0.94948 0.0
C1091 C 0.77069 0.36055 0.08848 0.0
C1092 C 0.7627 0.35843 0.12717 0.0
C1093 C 0.74414 0.34853 0.13377 0.0
C1094 C 0.7355 0.3483 0.16941 0.0
C1095 C 0.74507 0.35808 0.19958 0.0
C1096 C 0.76385 0.36765 0.19312 0.0
C1097 C 0.77249 0.3679 0.15742 0.0
C1098 C 0.82998 0.36132 1.01079 0.0
C1099 C 0.82379 0.30891 0.07805 0.0
O1100 O 0.84537 0.31842 0.94651 0.0
O1101 O 0.83367 0.28882 0.96185 0.0
O1102 O 0.80226 0.29011 1.01176 0.0
O1103 O 0.78808 0.31754 0.99968 0.0
O1104 O 0.80599 0.33641 0.94734 0.0
O1105 O 0.78034 0.35107 0.98172 0.0
O1106 O 0.7645 0.3476 0.06322 0.0
O1107 O 0.78971 0.36571 0.08414 0.0
O1108 O 0.81283 0.37079 1.01415 0.0
O1109 O 0.82853 0.34376 1.02457 0.0
O1110 O 0.80668 0.31933 0.07846 0.0
O1111 O 0.83527 0.30808 0.04795 0.0
H1112 H 0.86774 0.31295 0.88109 0.0
H1113 H 0.86636 0.30334 0.81542 0.0
H1114 H 0.81572 0.26367 0.83846 0.0
H1115 H 0.81729 0.27314 0.90408 0.0
H1116 H 0.73602 0.34125 0.11119 0.0
H1117 H 0.72121 0.34047 0.17325 0.0
H1118 H 0.77162 0.37553 0.21543 0.0
H1119 H 0.78665 0.37595 0.15338 0.0
Nd1120 Nd 0.43656 0.90121 0.24233 0.0
Nd1121 Nd 0.41289 0.9307 0.29582 0.0
C1122 C 0.46188 0.88267 0.1961 0.0
C1123 C 0.46771 0.88356 0.15624 0.0
C1124 C 0.46563 0.90142 0.13522 0.0
C1125 C 0.47127 0.90184 0.09752 0.0
C1126 C 0.47889 0.88435 0.07985 0.0
C1127 C 0.48079 0.86649 0.10107 0.0
C1128 C 0.47531 0.86613 0.13876 0.0
C1129 C 0.40647 0.88441 0.28664 0.0
C1130 C 0.40106 0.92881 0.20526 0.0
C1131 C 0.38696 0.94847 0.34137 0.0
C1132 C 0.3856 0.95497 0.38072 0.0
C1133 C 0.38914 0.94161 0.41051 0.0
C1134 C 0.38847 0.94867 0.44736 0.0
C1135 C 0.38436 0.96923 0.45515 0.0
C1136 C 0.38074 0.98242 0.42509 0.0
C1137 C 0.38126 0.97535 0.38847 0.0
C1138 C 0.44599 0.9472 0.26405 0.0
C1139 C 0.45361 0.9087 0.32814 0.0
O1140 O 0.46714 0.89802 0.21723 0.0
O1141 O 0.44363 0.87596 0.20344 0.0
O1142 O 0.41012 0.87768 0.25333 0.0
O1143 O 0.41892 0.89789 0.29436 0.0
O1144 O 0.41728 0.91762 0.19958 0.0
O1145 O 0.39511 0.93401 0.23937 0.0
O1146 O 0.38634 0.92898 0.33377 0.0
O1147 O 0.40002 0.95843 0.32093 0.0
O1148 O 0.4401 0.95141 0.29773 0.0
O1149 O 0.43381 0.93533 0.24755 0.0
O1150 O 0.43624 0.91761 0.33689 0.0
O1151 O 0.45798 0.90282 0.2937 0.0
H1152 H 0.45957 0.91502 0.14788 0.0
H1153 H 0.46934 0.9158 0.08204 0.0
H1154 H 0.4868 0.85279 0.08867 0.0
H1155 H 0.47703 0.85218 0.15433 0.0
H1156 H 0.39257 0.92579 0.40538 0.0
H1157 H 0.39113 0.93799 0.4697 0.0
H1158 H 0.37796 -0.0016 0.42968 0.0
H1159 H 0.37857 0.98596 0.36599 0.0
Nd1160 Nd 0.82724 0.69358 0.99949 0.0
Nd1161 Nd 0.80672 0.66056 0.0488 0.0
C1162 C 0.84075 0.71919 0.94827 0.0
C1163 C 0.83971 0.72448 0.90825 0.0
C1164 C 0.82142 0.72955 0.89043 0.0
C1165 C 0.82137 0.73561 0.85296 0.0
C1166 C 0.83961 0.73677 0.83265 0.0
C1167 C 0.85776 0.73125 0.85054 0.0
C1168 C 0.8578 0.72527 0.88782 0.0
C1169 C 0.85199 0.66481 0.03198 0.0
C1170 C 0.80032 0.65764 0.96028 0.0
C1171 C 0.79921 0.63316 0.10097 0.0
C1172 C 0.78972 0.63352 0.13816 0.0
C1173 C 0.79785 0.62186 0.16721 0.0
C1174 C 0.78915 0.62242 0.20277 0.0
C1175 C 0.77212 0.63468 0.20994 0.0
C1176 C 0.76404 0.64628 0.18056 0.0
C1177 C 0.77281 0.6458 0.14521 0.0
C1178 C 0.78072 0.6898 0.02559 0.0
C1179 C 0.82555 0.70354 0.08673 0.0
O1180 O 0.82503 0.72295 0.96942 0.0
O1181 O 0.84989 0.70224 0.95686 0.0
O1182 O 0.85656 0.68389 0.02914 0.0
O1183 O 0.83524 0.66151 1.01616 0.0
O1184 O 0.80597 0.67681 0.95972 0.0
O1185 O 0.80293 0.64614 0.99021 0.0
O1186 O 0.81656 0.6426 0.09794 0.0
O1187 O 0.78725 0.63642 0.07254 0.0
O1188 O 0.77494 0.67144 0.03302 0.0
O1189 O 0.79894 0.69267 0.03461 0.0
O1190 O 0.8195 0.68442 0.09151 0.0
O1191 O 0.82745 0.71169 0.05333 0.0
H1192 H 0.80721 0.7291 0.90548 0.0
H1193 H 0.80712 0.73986 0.84021 0.0
H1194 H 0.87204 0.73152 0.83572 0.0
H1195 H 0.8721 0.72144 0.90088 0.0
H1196 H 0.81102 0.61242 0.16244 0.0
H1197 H 0.79595 0.61349 0.22473 0.0
H1198 H 0.75076 0.65562 0.1847 0.0
H1199 H 0.76632 0.65507 0.12337 0.0
Nd1200 Nd 0.04658 0.08452 0.73975 0.0
Nd1201 Nd 0.07717 0.06027 0.78861 0.0
C1202 C 0.02297 0.09981 0.68707 0.0
C1203 C 0.01799 0.09756 0.64691 0.0
C1204 C 0.00584 0.08153 0.63357 0.0
C1205 C 0.00038 0.08053 0.59584 0.0
C1206 C 0.00697 0.09547 0.57059 0.0
C1207 C 0.01924 0.11135 0.58403 0.0
C1208 C 0.02459 0.11241 0.62164 0.0
C1209 C 0.07566 0.10655 0.77768 0.0
C1210 C 0.08119 0.056 0.69993 0.0
C1211 C 0.10328 0.04957 0.84119 0.0
C1212 C 0.10285 0.04029 0.87879 0.0
C1213 C 0.10745 0.05204 0.91037 0.0
C1214 C 0.10749 0.04329 0.94591 0.0
C1215 C 0.1031 0.02255 0.95059 0.0
C1216 C 0.09846 0.01086 0.91895 0.0
C1217 C 0.09835 0.01959 0.88353 0.0
C1218 C 0.0476 0.03689 0.75826 0.0
C1219 C 0.03468 0.08034 0.82593 0.0
O1220 O 0.017 0.08561 0.71017 0.0
O1221 O 0.04094 0.10705 0.69526 0.0
O1222 O 0.05706 0.1124 0.7731 0.0
O1223 O 0.07855 0.09019 0.76024 0.0
O1224 O 0.06273 0.06356 0.69897 0.0
O1225 O 0.09238 0.05682 0.73065 0.0
O1226 O 0.09608 0.06795 0.83795 0.0
O1227 O 0.09843 0.03798 0.81299 0.0
O1228 O 0.06548 0.03 0.76634 0.0
O1229 O 0.04515 0.05469 0.77025 0.0
O1230 O 0.05282 0.0719 0.83105 0.0
O1231 O 0.02775 0.08489 0.79246 0.0
H1232 H 0.00039 0.06987 0.65227 0.0
H1233 H 0.99105 0.068 0.58643 0.0
H1234 H 0.02432 0.12332 0.56562 0.0
H1235 H 0.0337 0.12511 0.63108 0.0
H1236 H 0.11115 0.06799 0.90756 0.0
H1237 H 0.1113 0.0527 0.96963 0.0
H1238 H 0.09469 -0.00507 0.92157 0.0
H1239 H 0.09474 0.01005 0.85989 0.0
Nd1240 Nd 0.65679 0.30231 0.49552 0.0
Nd1241 Nd 0.68061 0.33515 0.54061 0.0
C1242 C 0.64312 0.2762 0.44526 0.0
C1243 C 0.64486 0.27187 0.40492 0.0
C1244 C 0.66347 0.27319 0.38601 0.0
C1245 C 0.66462 0.26864 0.34788 0.0
C1246 C 0.64716 0.26286 0.32783 0.0
C1247 C 0.62858 0.26176 0.34694 0.0
C1248 C 0.62747 0.26618 0.38498 0.0
C1249 C 0.63404 0.33041 0.53363 0.0
C1250 C 0.67981 0.33981 0.45146 0.0
C1251 C 0.69192 0.36205 0.59145 0.0
C1252 C 0.70139 0.36182 0.62897 0.0
C1253 C 0.6896 0.36507 0.66101 0.0
C1254 C 0.69852 0.36477 0.69643 0.0
C1255 C 0.71944 0.36124 0.70059 0.0
C1256 C 0.73122 0.35834 0.66845 0.0
C1257 C 0.72234 0.35864 0.63315 0.0
C1258 C 0.70418 0.30622 0.50908 0.0
C1259 C 0.66356 0.29248 0.5824 0.0
O1260 O 0.65906 0.2728 0.46615 0.0
O1261 O 0.63339 0.29273 0.45458 0.0
O1262 O 0.62893 0.31148 0.52977 0.0
O1263 O 0.64986 0.3341 0.51506 0.0
O1264 O 0.67337 0.32087 0.45115 0.0
O1265 O 0.681 0.35047 0.48272 0.0
O1266 O 0.67337 0.35513 0.58867 0.0
O1267 O 0.70328 0.35663 0.56337 0.0
O1268 O 0.7103 0.32475 0.51383 0.0
O1269 O 0.68718 0.30316 0.52384 0.0
O1270 O 0.67143 0.31104 0.5855 0.0
O1271 O 0.65832 0.2847 0.54985 0.0
H1272 H 0.67712 0.27771 0.40065 0.0
H1273 H 0.67913 0.26987 0.33402 0.0
H1274 H 0.61487 0.25713 0.33262 0.0
H1275 H 0.61297 0.26503 0.39895 0.0
H1276 H 0.67344 0.36775 0.6587 0.0
H1277 H 0.68897 0.36695 0.72058 0.0
H1278 H 0.74743 0.35599 0.6705 0.0
H1279 H 0.73198 0.35636 0.60914 0.0
H1280 H 0.08453 0.43353 0.24268 0.0
H1281 H 0.09717 0.48886 0.18262 0.0
H1282 H 0.08941 0.45124 0.30125 0.0
H1283 H 0.10251 0.5066 0.24164 0.0
H1284 H 0.08192 0.53506 0.35432 0.0
H1285 H 0.08186 0.51829 0.29373 0.0
H1286 H 0.11389 0.4674 0.34119 0.0
H1287 H 0.11385 0.48411 0.40167 0.0
C1288 C 0.08869 0.44943 0.24192 0.0
C1289 C 0.0904 0.45977 0.20785 0.0
C1290 C 0.09161 0.45959 0.27563 0.0
C1291 C 0.0963 0.48041 0.2763 0.0
C1292 C 0.09867 0.49063 0.24218 0.0
C1293 C 0.09582 0.48041 0.20832 0.0
C1294 C 0.08918 0.52042 0.35171 0.0
C1295 C 0.0977 0.51086 0.38301 0.0
C1296 C 0.0892 0.51081 0.31691 0.0
C1297 C 0.09777 0.49141 0.31253 0.0
C1298 C 0.10681 0.48215 0.34363 0.0
C1299 C 0.10676 0.49173 0.37837 0.0
H1300 H 0.70181 0.83567 0.61388 0.0
H1301 H 0.75652 0.86279 0.65786 0.0
H1302 H 0.7183 0.83164 0.55352 0.0
H1303 H 0.77252 0.85969 0.59739 0.0
H1304 H 0.75035 0.8414 0.44103 0.0
H1305 H 0.73244 0.84891 0.499 0.0
H1306 H 0.78569 0.83192 0.56165 0.0
H1307 H 0.8036 0.8249 0.50426 0.0
C1308 C 0.71724 0.84099 0.61063 0.0
C1309 C 0.72782 0.84946 0.64096 0.0
C1310 C 0.72663 0.83887 0.57588 0.0
C1311 C 0.74682 0.84515 0.57066 0.0
C1312 C 0.75707 0.85437 0.60055 0.0
C1313 C 0.74774 0.85643 0.6352 0.0
C1314 C 0.75825 0.8394 0.46719 0.0
C1315 C 0.77843 0.83257 0.4679 0.0
C1316 C 0.74794 0.84359 0.50042 0.0
C1317 C 0.75764 0.84113 0.53503 0.0
C1318 C 0.77784 0.83437 0.53556 0.0
C1319 C 0.78809 0.83018 0.50251 0.0
H1320 H 0.40105 0.55602 0.74676 0.0
H1321 H 0.3863 0.50033 0.68921 0.0
H1322 H 0.39758 0.5388 0.80616 0.0
H1323 H 0.38294 0.48299 0.74912 0.0
H1324 H 0.36285 0.46408 0.86839 0.0
H1325 H 0.36306 0.48107 0.80798 0.0
H1326 H 0.41756 0.51323 0.83926 0.0
H1327 H 0.41757 0.49613 0.89918 0.0
C1328 C 0.39688 0.54011 0.74673 0.0
C1329 C 0.39411 0.52952 0.7131 0.0
C1330 C 0.39502 0.53021 0.78088 0.0
C1331 C 0.3903 0.50943 0.78243 0.0
C1332 C 0.38654 0.49902 0.7489 0.0
C1333 C 0.38845 0.50896 0.71456 0.0
C1334 C 0.37501 0.47461 0.86227 0.0
C1335 C 0.39014 0.47878 0.88892 0.0
C1336 C 0.37508 0.48438 0.82763 0.0
C1337 C 0.39021 0.49865 0.81888 0.0
C1338 C 0.40542 0.50265 0.84535 0.0
C1339 C 0.40541 0.49284 0.87982 0.0
H1340 H 0.7406 0.11627 0.14544 0.0
H1341 H 0.78901 0.15375 0.10238 0.0
H1342 H 0.72479 0.11574 0.08447 0.0
H1343 H 0.77246 0.15418 0.04172 0.0
H1344 H 0.68755 0.14745 0.99333 0.0
H1345 H 0.70631 0.1403 0.0498 0.0
H1346 H 0.76174 0.13605 0.98635 0.0
H1347 H 0.74287 0.14383 0.92948 0.0
C1348 C 0.74812 0.12413 0.12289 0.0
C1349 C 0.76608 0.13519 0.12914 0.0
C1350 C 0.73884 0.12406 0.08792 0.0
C1351 C 0.74713 0.13518 0.05823 0.0
C1352 C 0.76565 0.14537 0.06386 0.0
C1353 C 0.77503 0.14534 0.09885 0.0
C1354 C 0.7037 0.14477 0.99122 0.0
C1355 C 0.71372 0.14636 0.95685 0.0
C1356 C 0.71449 0.14049 1.0237 0.0
C1357 C 0.7356 0.13762 1.02277 0.0
C1358 C 0.74554 0.13841 0.98815 0.0
C1359 C 0.73469 0.14269 0.9555 0.0
H1360 H 0.89142 0.50118 0.18601 0.0
H1361 H 0.90893 0.55554 0.12694 0.0
H1362 H 0.88721 0.48347 0.12667 0.0
H1363 H 0.90442 0.53802 0.06809 0.0
H1364 H 0.91794 0.4954 0.97249 0.0
H1365 H 0.92117 0.5118 0.03284 0.0
H1366 H 0.86649 0.48195 0.06999 0.0
H1367 H 0.86324 0.46545 1.00931 0.0
C1368 C 0.89417 0.50942 0.16044 0.0
C1369 C 0.90061 0.52977 0.16136 0.0
C1370 C 0.8917 0.49927 0.12641 0.0
C1371 C 0.89566 0.50924 0.09255 0.0
C1372 C 0.90163 0.52972 0.09357 0.0
C1373 C 0.90408 0.53983 0.12745 0.0
C1374 C 0.9065 0.49241 0.99339 0.0
C1375 C 0.89021 0.47924 0.98583 0.0
C1376 C 0.90836 0.50184 0.02806 0.0
C1377 C 0.89397 0.4984 0.05622 0.0
C1378 C 0.87793 0.48484 0.04905 0.0
C1379 C 0.87607 0.47537 1.01425 0.0
H1380 H 0.17996 0.14864 0.88149 0.0
H1381 H 0.23798 0.1568 0.93531 0.0
H1382 H 0.19703 0.14355 0.82192 0.0
H1383 H 0.25506 0.15197 0.8754 0.0
H1384 H 0.26972 0.17137 0.75061 0.0
H1385 H 0.25571 0.17261 0.81342 0.0
H1386 H 0.22169 0.11793 0.79174 0.0
H1387 H 0.23626 0.11606 0.72956 0.0
C1388 C 0.19638 0.14919 0.88061 0.0
C1389 C 0.20765 0.15306 0.91305 0.0
C1390 C 0.20614 0.1462 0.84656 0.0
C1391 C 0.22737 0.14738 0.84405 0.0
C1392 C 0.23868 0.15105 0.87655 0.0
C1393 C 0.22892 0.15366 0.91082 0.0
C1394 C 0.25965 0.15931 0.7594 0.0
C1395 C 0.25401 0.14372 0.73462 0.0
C1396 C 0.25157 0.16009 0.7954 0.0
C1397 C 0.23748 0.14546 0.80731 0.0
C1398 C 0.2323 0.12957 0.78309 0.0
C1399 C 0.24059 0.1286 0.74735 0.0
H1400 H 0.61839 0.52689 0.51405 0.0
H1401 H 0.56473 0.49507 0.47702 0.0
H1402 H 0.61562 0.51044 0.5748 0.0
H1403 H 0.56202 0.47868 0.53741 0.0
H1404 H 0.57596 0.43552 0.63164 0.0
H1405 H 0.57998 0.45307 0.57275 0.0
H1406 H 0.59457 0.50846 0.63129 0.0
H1407 H 0.59083 0.49074 0.69068 0.0
C1408 C 0.60589 0.51657 0.51896 0.0
C1409 C 0.5919 0.51217 0.49046 0.0
C1410 C 0.60431 0.50713 0.55378 0.0
C1411 C 0.58873 0.49306 0.56088 0.0
C1412 C 0.57449 0.48906 0.53266 0.0
C1413 C 0.57604 0.49849 0.49797 0.0
C1414 C 0.58014 0.45142 0.63214 0.0
C1415 C 0.583 0.46172 0.66603 0.0
C1416 C 0.5823 0.46153 0.59825 0.0
C1417 C 0.58738 0.48225 0.59723 0.0
C1418 C 0.59076 0.49247 0.63107 0.0
C1419 C 0.58856 0.48232 0.66512 0.0
H1420 H 0.24468 0.8181 0.43908 0.0
H1421 H 0.30267 0.82361 0.3842 0.0
H1422 H 0.2275 0.82439 0.37959 0.0
H1423 H 0.28558 0.83002 0.32532 0.0
H1424 H 0.24862 0.8608 0.23466 0.0
H1425 H 0.26291 0.85734 0.29687 0.0
H1426 H 0.22487 0.80515 0.31668 0.0
H1427 H 0.21099 0.80807 0.25391 0.0
C1428 C 0.25373 0.82084 0.41446 0.0
C1429 C 0.27501 0.82035 0.4163 0.0
C1430 C 0.24391 0.82432 0.38046 0.0
C1431 C 0.25522 0.82776 0.34791 0.0
C1432 C 0.27647 0.82764 0.35 0.0
C1433 C 0.28625 0.82383 0.38372 0.0
C1434 C 0.24331 0.84851 0.25211 0.0
C1435 C 0.2288 0.83456 0.23891 0.0
C1436 C 0.25145 0.84662 0.28784 0.0
C1437 C 0.24509 0.83091 0.31148 0.0
C1438 C 0.22993 0.81751 0.29911 0.0
C1439 C 0.22194 0.81925 0.26315 0.0
H1440 H 0.62162 0.01051 0.87128 0.0
H1441 H 0.55887 -0.00323 0.89455 0.0
H1442 H 0.61836 -0.00599 0.81036 0.0
H1443 H 0.55562 0.98055 0.83388 0.0
H1444 H 0.56565 0.93026 0.74864 0.0
H1445 H 0.57026 0.94854 0.8067 0.0
H1446 H 0.59923 -0.00235 0.74772 0.0
H1447 H 0.59452 0.97931 0.68887 0.0
C1448 C 0.60713 0.00409 0.86331 0.0
C1449 C 0.59051 0.00495 0.88777 0.0
C1450 C 0.60523 -0.00522 0.82837 0.0
C1451 C 0.58677 0.98588 0.81746 0.0
C1452 C 0.57009 0.98709 0.84165 0.0
C1453 C 0.57191 -0.00344 0.87628 0.0
C1454 C 0.57313 0.94489 0.74782 0.0
C1455 C 0.57968 0.95332 0.71392 0.0
C1456 C 0.57564 0.95543 0.78119 0.0
C1457 C 0.58494 0.9746 0.78175 0.0
C1458 C 0.59204 0.98287 0.74811 0.0
C1459 C 0.5893 0.97239 0.71445 0.0
H1460 H 0.28526 0.30777 0.98769 0.0
H1461 H 0.26403 0.36526 0.9455 0.0
H1462 H 0.2661 0.3131 0.04496 0.0
H1463 H 0.24525 0.37084 1.00376 0.0
H1464 H 0.24177 0.37598 0.13981 0.0
H1465 H 0.25763 0.37335 0.07867 0.0
H1466 H 0.22509 0.31775 0.05785 0.0
H1467 H 0.20813 0.32083 0.11778 0.0
C1468 C 0.27664 0.32164 0.99077 0.0
C1469 C 0.27617 0.33613 0.96209 0.0
C1470 C 0.26558 0.32461 1.02348 0.0
C1471 C 0.25417 0.34233 0.02867 0.0
C1472 C 0.25395 0.35704 1.00036 0.0
C1473 C 0.26463 0.35383 0.9671 0.0
C1474 C 0.23744 0.36347 0.12196 0.0
C1475 C 0.22369 0.34851 0.13436 0.0
C1476 C 0.24668 0.36195 0.08696 0.0
C1477 C 0.2427 0.34527 0.06378 0.0
C1478 C 0.22858 0.33066 0.07543 0.0
C1479 C 0.219 0.33238 0.11001 0.0
H1480 H 0.91435 0.06087 0.24606 0.0
H1481 H 0.89178 0.00851 0.18652 0.0
H1482 H 0.90882 0.04358 0.30468 0.0
H1483 H 0.88569 0.99129 0.24563 0.0
H1484 H 0.90214 0.95898 0.35597 0.0
H1485 H 0.90459 0.97604 0.29592 0.0
H1486 H 0.88324 0.03157 0.34626 0.0
H1487 H 0.88109 0.01456 0.4063 0.0
C1488 C 0.90795 0.04574 0.24542 0.0
C1489 C 0.90356 0.03609 0.21143 0.0
C1490 C 0.90465 0.03584 0.2792 0.0
C1491 C 0.89679 0.016 0.28002 0.0
C1492 C 0.89202 0.00646 0.24605 0.0
C1493 C 0.89536 0.01639 0.21214 0.0
C1494 C 0.89776 0.97478 0.35409 0.0
C1495 C 0.89155 0.98545 0.38597 0.0
C1496 C 0.89911 0.98456 0.31963 0.0
C1497 C 0.8942 0.00524 0.31618 0.0
C1498 C 0.88753 0.01575 0.34797 0.0
C1499 C 0.88628 0.006 0.38242 0.0
H1500 H 0.23532 0.62433 0.43761 0.0
H1501 H 0.18229 0.64339 0.49868 0.0
H1502 H 0.25314 0.61842 0.49632 0.0
H1503 H 0.20014 0.63798 0.5569 0.0
H1504 H 0.23111 0.61133 0.65749 0.0
H1505 H 0.21381 0.61275 0.59765 0.0
H1506 H 0.26773 0.63783 0.54729 0.0
H1507 H 0.2851 0.63626 0.60726 0.0
C1508 C 0.22737 0.62704 0.46348 0.0
C1509 C 0.20734 0.63432 0.4633 0.0
C1510 C 0.23767 0.62385 0.49718 0.0
C1511 C 0.22814 0.62777 0.53149 0.0
C1512 C 0.20793 0.63452 0.53117 0.0
C1513 C 0.19769 0.63774 0.49762 0.0
C1514 C 0.23928 0.61721 0.6337 0.0
C1515 C 0.25947 0.62384 0.63737 0.0
C1516 C 0.22935 0.61802 0.5993 0.0
C1517 C 0.23928 0.62553 0.56753 0.0
C1518 C 0.25965 0.63171 0.57098 0.0
C1519 C 0.26962 0.63085 0.60543 0.0
H1520 H 0.39601 0.05379 0.63547 0.0
H1521 H 0.39716 -0.00327 0.69435 0.0
H1522 H 0.3893 0.03586 0.57733 0.0
H1523 H 0.39062 0.9787 0.63578 0.0
H1524 H 0.40914 0.95826 0.51355 0.0
H1525 H 0.41101 0.9735 0.5754 0.0
H1526 H 0.36217 0.01405 0.54684 0.0
H1527 H 0.35972 -0.00155 0.48553 0.0
C1528 C 0.39461 0.03741 0.63603 0.0
C1529 C 0.39707 0.02666 0.66948 0.0
C1530 C 0.39069 0.02715 0.60274 0.0
C1531 C 0.38947 0.00586 0.60196 0.0
C1532 C 0.39158 -0.0049 0.63553 0.0
C1533 C 0.39515 0.00542 0.66906 0.0
C1534 C 0.39846 0.9701 0.52062 0.0
C1535 C 0.38442 0.97722 0.49414 0.0
C1536 C 0.39959 0.97886 0.55612 0.0
C1537 C 0.38685 -0.00491 0.56586 0.0
C1538 C 0.37239 0.00177 0.53993 0.0
C1539 C 0.37109 0.99287 0.50468 0.0
H1540 H 0.75623 0.66777 0.24553 0.0
H1541 H 0.76675 0.60357 0.26037 0.0
H1542 H 0.73831 0.66885 0.3046 0.0
H1543 H 0.74926 0.60495 0.32042 0.0
H1544 H 0.73281 0.62717 0.44438 0.0
H1545 H 0.7521 0.62267 0.38654 0.0
H1546 H 0.70466 0.65288 0.32535 0.0
H1547 H 0.68539 0.65717 0.38219 0.0
C1548 C 0.7547 0.65385 0.26126 0.0
C1549 C 0.76268 0.63551 0.24768 0.0
C1550 C 0.74451 0.65452 0.29526 0.0
C1551 C 0.7422 0.63694 0.3169 0.0
C1552 C 0.75088 0.61874 0.30432 0.0
C1553 C 0.76093 0.618 0.26996 0.0
C1554 C 0.72637 0.63255 0.41848 0.0
C1555 C 0.70759 0.64266 0.41812 0.0
C1556 C 0.73742 0.62998 0.38542 0.0
C1557 C 0.72999 0.63771 0.35159 0.0
C1558 C 0.71092 0.64707 0.3511 0.0
C1559 C 0.69982 0.64942 0.38381 0.0
H1560 H 0.10044 0.99078 0.18832 0.0
H1561 H 0.08532 0.93626 0.12745 0.0
H1562 H 0.10644 0.0085 0.12954 0.0
H1563 H 0.0909 0.95397 0.06912 0.0
H1564 H 0.11853 0.98559 0.97027 0.0
H1565 H 0.117 0.96892 0.03066 0.0
H1566 H 0.08654 0.02115 0.07664 0.0
H1567 H 0.08813 0.03789 1.01609 0.0
C1568 C 0.0986 0.98252 0.16248 0.0
C1569 C 0.09238 0.9621 0.16263 0.0
C1570 C 0.10185 0.99273 0.12878 0.0
C1571 C 0.09912 0.98269 0.09455 0.0
C1572 C 0.09341 0.96213 0.09488 0.0
C1573 C 0.09007 0.95199 0.12843 0.0
C1574 C 0.11146 0.99352 0.99322 0.0
C1575 C 0.10327 0.01301 0.98819 0.0
C1576 C 0.1106 0.98396 0.02788 0.0
C1577 C 0.10151 0.99361 0.0585 0.0
C1578 C 0.09385 0.01336 0.0538 0.0
C1579 C 0.09474 0.02295 1.01905 0.0
H1580 H 0.74829 0.3347 0.72498 0.0
H1581 H 0.71232 0.38564 0.76139 0.0
H1582 H 0.76505 0.3337 0.78519 0.0
H1583 H 0.72918 0.38463 0.82205 0.0
H1584 H 0.74987 0.35944 0.93824 0.0
H1585 H 0.73261 0.36391 0.87854 0.0
H1586 H 0.78908 0.3533 0.8211 0.0
H1587 H 0.80617 0.34852 0.88038 0.0
C1588 C 0.74408 0.34583 0.74574 0.0
C1589 C 0.72907 0.36037 0.73813 0.0
C1590 C 0.75372 0.34528 0.78033 0.0
C1591 C 0.74867 0.35925 0.80839 0.0
C1592 C 0.73338 0.37358 0.80114 0.0
C1593 C 0.72369 0.37413 0.76639 0.0
C1594 C 0.75865 0.35842 0.91287 0.0
C1595 C 0.77936 0.35344 0.9141 0.0
C1596 C 0.74875 0.36097 0.87863 0.0
C1597 C 0.75937 0.35863 0.84496 0.0
C1598 C 0.78031 0.35471 0.84641 0.0
C1599 C 0.79015 0.35211 0.88049 0.0
H1600 H 0.15731 0.33618 0.27952 0.0
H1601 H 0.0956 0.34068 0.31644 0.0
H1602 H 0.14928 0.35445 0.22317 0.0
H1603 H 0.08687 0.35838 0.25822 0.0
H1604 H 0.08017 0.37266 0.12953 0.0
H1605 H 0.08747 0.35188 0.18477 0.0
H1606 H 0.1379 0.39108 0.21156 0.0
H1607 H 0.13039 0.41194 0.15758 0.0
C1608 C 0.14223 0.34179 0.27633 0.0
C1609 C 0.12755 0.33824 0.30362 0.0
C1610 C 0.13742 0.35182 0.24346 0.0
C1611 C 0.11752 0.35815 0.23656 0.0
C1612 C 0.1024 0.35376 0.26297 0.0
C1613 C 0.1074 0.34382 0.2963 0.0
C1614 C 0.09287 0.37669 0.1472 0.0
C1615 C 0.10448 0.39409 0.13965 0.0
C1616 C 0.09693 0.36492 0.17883 0.0
C1617 C 0.11307 0.37006 0.20261 0.0
C1618 C 0.12533 0.3868 0.19375 0.0
C1619 C 0.12107 0.39869 0.1627 0.0
H1620 H 0.91901 0.8574 0.54843 0.0
H1621 H 0.87608 0.9035 0.58028 0.0
H1622 H 0.89773 0.84818 0.49569 0.0
H1623 H 0.85549 0.89553 0.52599 0.0
H1624 H 0.81402 0.86666 0.44067 0.0
H1625 H 0.83368 0.87392 0.49613 0.0
H1626 H 0.8887 0.859 0.4367 0.0
H1627 H 0.86854 0.85026 0.38186 0.0
C1628 C 0.90497 0.86556 0.54413 0.0
C1629 C 0.89936 0.88142 0.56809 0.0
C1630 C 0.89288 0.86051 0.51348 0.0
C1631 C 0.87502 0.87138 0.5057 0.0
C1632 C 0.869 0.88663 0.53089 0.0
C1633 C 0.88087 0.89133 0.56203 0.0
C1634 C 0.83035 0.86512 0.43936 0.0
C1635 C 0.83979 0.85791 0.40695 0.0
C1636 C 0.8417 0.86935 0.47127 0.0
C1637 C 0.86291 0.86703 0.47135 0.0
C1638 C 0.87239 0.86053 0.43824 0.0
C1639 C 0.86092 0.85581 0.40653 0.0
H1640 H 0.35372 0.61829 0.83932 0.0
H1641 H 0.36616 0.67502 0.78415 0.0
H1642 H 0.36205 0.59997 0.78234 0.0
H1643 H 0.37314 0.65703 0.72648 0.0
H1644 H 0.3992 0.61657 0.63392 0.0
H1645 H 0.39387 0.63597 0.6911 0.0
H1646 H 0.34775 0.59305 0.72479 0.0
H1647 H 0.35399 0.57331 0.66917 0.0
C1648 C 0.35839 0.62679 0.815 0.0
C1649 C 0.35923 0.64802 0.81608 0.0
C1650 C 0.36287 0.61636 0.7821 0.0
C1651 C 0.36787 0.62697 0.74926 0.0
C1652 C 0.36952 0.64824 0.75102 0.0
C1653 C 0.36546 0.65861 0.78415 0.0
C1654 C 0.38788 0.61143 0.6536 0.0
C1655 C 0.37742 0.59318 0.64751 0.0
C1656 C 0.38473 0.62257 0.68636 0.0
C1657 C 0.37068 0.6159 0.71329 0.0
C1658 C 0.35923 0.59836 0.7056 0.0
C1659 C 0.36258 0.58716 0.67325 0.0
H1660 H 0.67112 0.11345 0.9239 0.0
H1661 H 0.62434 0.15606 0.89317 0.0
H1662 H 0.6527 0.10533 0.98092 0.0
H1663 H 0.60596 0.14788 0.95084 0.0
H1664 H 0.60656 0.12985 0.09394 0.0
H1665 H 0.62689 0.14262 0.04103 0.0
H1666 H 0.60316 0.09481 0.97159 0.0
H1667 H 0.58303 0.08232 1.02296 0.0
C1668 C 0.65688 0.12105 0.92927 0.0
C1669 C 0.64912 0.13542 0.90412 0.0
C1670 C 0.64658 0.11664 0.96216 0.0
C1671 C 0.62835 0.12646 0.97047 0.0
C1672 C 0.62034 0.14058 0.94525 0.0
C1673 C 0.63068 0.14503 0.91223 0.0
C1674 C 0.60584 0.12209 0.06741 0.0
C1675 C 0.59337 0.10496 0.06279 0.0
C1676 C 0.61731 0.12941 0.03729 0.0
C1677 C 0.61634 0.11963 1.00254 0.0
C1678 C 0.60403 0.10255 0.99816 0.0
C1679 C 0.59265 0.09536 0.02781 0.0
H1680 H 0.11089 0.60248 0.58656 0.0
H1681 H 0.05607 0.61863 0.52826 0.0
H1682 H 0.1303 0.60702 0.52937 0.0
H1683 H 0.07505 0.62197 0.47055 0.0
H1684 H 0.15793 0.59602 0.41843 0.0
H1685 H 0.13636 0.59113 0.47246 0.0
H1686 H 0.09832 0.64067 0.43599 0.0
H1687 H 0.1193 0.64456 0.3806 0.0
C1688 C 0.10307 0.60716 0.56147 0.0
C1689 C 0.08208 0.61035 0.5618 0.0
C1690 C 0.11408 0.60945 0.52851 0.0
C1691 C 0.10425 0.61455 0.49494 0.0
C1692 C 0.08324 0.61825 0.49573 0.0
C1693 C 0.07233 0.61636 0.52887 0.0
C1694 C 0.1447 0.60557 0.42156 0.0
C1695 C 0.14052 0.62099 0.39575 0.0
C1696 C 0.13249 0.60301 0.45293 0.0
C1697 C 0.11589 0.61591 0.45943 0.0
C1698 C 0.11094 0.63042 0.43214 0.0
C1699 C 0.12301 0.63274 0.4004 0.0
H1700 H 0.58405 0.86492 0.62953 0.0
H1701 H 0.62803 0.90979 0.66388 0.0
H1702 H 0.59414 0.84327 0.68185 0.0
H1703 H 0.63829 0.88814 0.71543 0.0
H1704 H 0.66293 0.83519 0.78412 0.0
H1705 H 0.65446 0.8542 0.72825 0.0
H1706 H 0.59087 0.84631 0.75278 0.0
H1707 H 0.59979 0.82789 0.80988 0.0
C1708 C 0.59607 0.86999 0.64791 0.0
C1709 C 0.60502 0.88915 0.64303 0.0
C1710 C 0.60173 0.85769 0.67792 0.0
C1711 C 0.61681 0.86415 0.70296 0.0
C1712 C 0.62663 0.88275 0.69659 0.0
C1713 C 0.62077 0.89514 0.667 0.0
C1714 C 0.6473 0.83838 0.77855 0.0
C1715 C 0.63218 0.8312 0.80246 0.0
C1716 C 0.64234 0.84882 0.74607 0.0
C1717 C 0.62198 0.85198 0.73636 0.0
C1718 C 0.60671 0.84409 0.75955 0.0
C1719 C 0.61179 0.83372 0.79229 0.0
H1720 H 0.42049 0.35123 0.05054 0.0
H1721 H 0.37636 0.39593 0.0834 0.0
H1722 H 0.39952 0.34198 0.99727 0.0
H1723 H 0.35634 0.38831 0.02866 0.0
H1724 H 0.31605 0.36453 0.93993 0.0
H1725 H 0.33505 0.3683 0.99696 0.0
H1726 H 0.38998 0.35157 0.93872 0.0
H1727 H 0.3701 0.34576 0.88218 0.0
C1728 C 0.40625 0.35907 0.04634 0.0
C1729 C 0.40019 0.37453 0.07078 0.0
C1730 C 0.39433 0.354 1.01538 0.0
C1731 C 0.37624 0.36456 1.00774 0.0
C1732 C 0.36989 0.37947 0.03338 0.0
C1733 C 0.3815 0.38406 0.06483 0.0
C1734 C 0.33219 0.36154 0.93935 0.0
C1735 C 0.34163 0.35487 0.9066 0.0
C1736 C 0.34323 0.36392 0.97217 0.0
C1737 C 0.36429 0.36056 0.97294 0.0
C1738 C 0.37378 0.35401 0.9398 0.0
C1739 C 0.3625 0.35093 0.90712 0.0
H1740 H 0.88834 0.16135 0.30802 0.0
H1741 H 0.82554 0.15942 0.27653 0.0
H1742 H 0.89709 0.14226 0.25131 0.0
H1743 H 0.83374 0.13962 0.22151 0.0
H1744 H 0.85783 0.08042 0.16332 0.0
H1745 H 0.84873 0.10317 0.21407 0.0
H1746 H 0.89375 0.1462 0.17709 0.0
H1747 H 0.90246 0.12361 0.12511 0.0
C1748 C 0.87637 0.15663 0.28924 0.0
C1749 C 0.85602 0.16078 0.29772 0.0
C1750 C 0.88136 0.14586 0.2568 0.0
C1751 C 0.86602 0.13917 0.23241 0.0
C1752 C 0.84581 0.14409 0.24029 0.0
C1753 C 0.84098 0.15498 0.27231 0.0
C1754 C 0.86555 0.09489 0.1655 0.0
C1755 C 0.88111 0.10011 0.14063 0.0
C1756 C 0.86038 0.10787 0.19466 0.0
C1757 C 0.87078 0.12627 0.1998 0.0
C1758 C 0.88575 0.13194 0.17404 0.0
C1759 C 0.89063 0.11909 0.14428 0.0
H1760 H 0.85385 0.57246 0.2024 0.0
H1761 H 0.89458 0.61787 0.2461 0.0
H1762 H 0.84661 0.59393 0.1492 0.0
H1763 H 0.88885 0.63875 0.19139 0.0
H1764 H 0.85351 0.62366 0.03784 0.0
H1765 H 0.86025 0.60383 0.09376 0.0
H1766 H 0.86967 0.65945 0.15567 0.0
H1767 H 0.86483 0.67881 0.09908 0.0
C1768 C 0.86121 0.58713 0.20067 0.0
C1769 C 0.87516 0.59331 0.22793 0.0
C1770 C 0.85736 0.59934 0.16971 0.0
C1771 C 0.86762 0.61792 0.16492 0.0
C1772 C 0.88055 0.62464 0.1937 0.0
C1773 C 0.88397 0.61261 0.22515 0.0
C1774 C 0.85755 0.63148 0.06332 0.0
C1775 C 0.85874 0.65269 0.06415 0.0
C1776 C 0.86103 0.62019 0.09566 0.0
C1777 C 0.86516 0.62992 0.12986 0.0
C1778 C 0.86684 0.65122 0.13013 0.0
C1779 C 0.86401 0.66242 0.09756 0.0
H1780 H 0.1167 0.10662 0.78719 0.0
H1781 H 0.06057 0.11811 0.84471 0.0
H1782 H 0.1355 0.11307 0.84456 0.0
H1783 H 0.07892 0.12297 0.90263 0.0
H1784 H 0.11937 0.14966 0.99419 0.0
H1785 H 0.09928 0.14312 0.93852 0.0
H1786 H 0.14417 0.09985 0.90143 0.0
H1787 H 0.16482 0.10775 0.95547 0.0
C1788 C 0.10843 0.11055 0.81219 0.0
C1789 C 0.08725 0.11203 0.81145 0.0
C1790 C 0.11913 0.11393 0.84534 0.0
C1791 C 0.10883 0.11834 0.87881 0.0
C1792 C 0.08756 0.11998 0.87766 0.0
C1793 C 0.07696 0.11713 0.84434 0.0
C1794 C 0.12482 0.13867 0.97415 0.0
C1795 C 0.14392 0.12972 0.97865 0.0
C1796 C 0.11324 0.13478 0.94217 0.0
C1797 C 0.12024 0.12129 0.91453 0.0
C1798 C 0.13858 0.11099 0.921 0.0
C1799 C 0.15032 0.11525 0.95247 0.0
H1800 H 0.62419 0.31528 0.60151 0.0
H1801 H 0.63244 0.37146 0.54201 0.0
H1802 H 0.6194 0.33388 0.65917 0.0
H1803 H 0.6261 0.39041 0.59919 0.0
H1804 H 0.63136 0.42085 0.70895 0.0
H1805 H 0.63985 0.39997 0.65553 0.0
H1806 H 0.59844 0.35368 0.69457 0.0
H1807 H 0.59132 0.37407 0.74955 0.0
C1808 C 0.62448 0.3317 0.60068 0.0
C1809 C 0.62862 0.34198 0.56733 0.0
C1810 C 0.62168 0.34243 0.63382 0.0
C1811 C 0.62244 0.36377 0.6343 0.0
C1812 C 0.62593 0.37401 0.60041 0.0
C1813 C 0.62924 0.36322 0.56741 0.0
C1814 C 0.62442 0.40601 0.70651 0.0
C1815 C 0.61026 0.39928 0.73295 0.0
C1816 C 0.62902 0.39413 0.67544 0.0
C1817 C 0.61936 0.37532 0.66972 0.0
C1818 C 0.60626 0.36803 0.69769 0.0
C1819 C 0.60204 0.37976 0.72924 0.0
H1820 H 0.36372 0.83667 0.49739 0.0
H1821 H 0.30968 0.85596 0.43965 0.0
H1822 H 0.38379 0.84375 0.44159 0.0
H1823 H 0.32969 0.86295 0.38389 0.0
H1824 H 0.41187 0.88931 0.35998 0.0
H1825 H 0.39183 0.87676 0.41074 0.0
H1826 H 0.35252 0.84557 0.33334 0.0
H1827 H 0.37318 0.85848 0.28095 0.0
C1828 C 0.35621 0.84254 0.47284 0.0
C1829 C 0.33526 0.84594 0.4729 0.0
C1830 C 0.3676 0.84641 0.44086 0.0
C1831 C 0.35823 0.85373 0.40831 0.0
C1832 C 0.33723 0.85701 0.40835 0.0
C1833 C 0.32588 0.85335 0.44047 0.0
C1834 C 0.39911 0.87966 0.35333 0.0
C1835 C 0.39411 0.87494 0.31625 0.0
C1836 C 0.38768 0.87232 0.38271 0.0
C1837 C 0.37072 0.86008 0.3761 0.0
C1838 C 0.3656 0.85504 0.33909 0.0
C1839 C 0.37738 0.8623 0.30923 0.0
H1840 H 0.92793 0.37219 0.84678 0.0
H1841 H 0.87207 0.38552 0.78938 0.0
H1842 H 0.90942 0.36788 0.90481 0.0
H1843 H 0.85321 0.38007 0.84696 0.0
H1844 H 0.86655 0.34364 0.99585 0.0
H1845 H 0.88693 0.34798 0.93972 0.0
H1846 H 0.84715 0.39628 0.90398 0.0
H1847 H 0.82635 0.39111 0.95888 0.0
C1848 C 0.91158 0.37369 0.84645 0.0
C1849 C 0.90139 0.37927 0.8137 0.0
C1850 C 0.90094 0.37121 0.87976 0.0
C1851 C 0.87979 0.37388 0.8809 0.0
C1852 C 0.86954 0.37845 0.8475 0.0
C1853 C 0.88025 0.38128 0.81434 0.0
C1854 C 0.86236 0.35532 0.9761 0.0
C1855 C 0.84464 0.36669 0.98131 0.0
C1856 C 0.87405 0.35787 0.94393 0.0
C1857 C 0.86845 0.37217 0.91668 0.0
C1858 C 0.85156 0.38461 0.92356 0.0
C1859 C 0.83978 0.38188 0.95542 0.0
H1860 H 0.32921 0.15335 0.5983 0.0
H1861 H 0.38326 0.1369 0.53778 0.0
H1862 H 0.34045 0.13351 0.65131 0.0
H1863 H 0.39486 0.11712 0.59226 0.0
H1864 H 0.4011 0.1169 0.73967 0.0
H1865 H 0.39396 0.13555 0.6817 0.0
H1866 H 0.3556 0.08658 0.64445 0.0
H1867 H 0.36278 0.06789 0.70157 0.0
C1868 C 0.3434 0.14526 0.59612 0.0
C1869 C 0.35517 0.14641 0.56358 0.0
C1870 C 0.3499 0.13411 0.62667 0.0
C1871 C 0.36849 0.12401 0.62572 0.0
C1872 C 0.38047 0.12497 0.59341 0.0
C1873 C 0.3738 0.13611 0.56234 0.0
C1874 C 0.3912 0.11016 0.71899 0.0
C1875 C 0.38253 0.09098 0.72508 0.0
C1876 C 0.38734 0.12067 0.68582 0.0
C1877 C 0.37466 0.11216 0.65855 0.0
C1878 C 0.36575 0.09318 0.66488 0.0
C1879 C 0.36964 0.08268 0.6978 0.0
H1880 H 0.55592 0.61986 0.35056 0.0
H1881 H 0.61141 0.60493 0.29351 0.0
H1882 H 0.57475 0.62518 0.40813 0.0
H1883 H 0.63055 0.61118 0.35058 0.0
H1884 H 0.65808 0.60292 0.46289 0.0
H1885 H 0.63684 0.59642 0.4089 0.0
H1886 H 0.59767 0.64592 0.44106 0.0
H1887 H 0.61843 0.65155 0.4965 0.0
C1888 C 0.57225 0.61819 0.35018 0.0
C1889 C 0.58226 0.61201 0.31761 0.0
C1890 C 0.58308 0.62123 0.38324 0.0
C1891 C 0.60422 0.61843 0.38435 0.0
C1892 C 0.61425 0.61299 0.35119 0.0
C1893 C 0.60336 0.60967 0.31829 0.0
C1894 C 0.64471 0.61218 0.45883 0.0
C1895 C 0.64014 0.62805 0.48351 0.0
C1896 C 0.63267 0.60866 0.42747 0.0
C1897 C 0.61581 0.62101 0.4198 0.0
C1898 C 0.61052 0.63608 0.44587 0.0
C1899 C 0.62245 0.63939 0.47762 0.0
H1900 H 0.14261 0.81359 0.11209 0.0
H1901 H 0.11424 0.85404 0.03324 0.0
H1902 H 0.13257 0.83547 0.16296 0.0
H1903 H 0.10428 0.87647 0.08516 0.0
H1904 H 0.09377 0.87007 0.24795 0.0
H1905 H 0.09917 0.84793 0.19386 0.0
H1906 H 0.12612 0.89792 0.13413 0.0
H1907 H 0.12118 0.91982 0.18824 0.0
C1908 C 0.13412 0.82717 0.10556 0.0
C1909 C 0.12927 0.83213 0.06853 0.0
C1910 C 0.12824 0.83963 0.13489 0.0
C1911 C 0.11759 0.8576 0.12807 0.0
C1912 C 0.11252 0.86265 0.09109 0.0
C1913 C 0.11813 0.84985 0.06149 0.0
C1914 C 0.10097 0.87621 0.22333 0.0
C1915 C 0.10727 0.89653 0.22243 0.0
C1916 C 0.10393 0.86364 0.19236 0.0
C1917 C 0.1129 0.87129 0.15971 0.0
C1918 C 0.11893 0.89171 0.15871 0.0
C1919 C 0.11636 0.90413 0.18989 0.0
H1920 H 0.94305 0.50644 0.24103 0.0
H1921 H 0.99173 0.54953 0.2572 0.0
H1922 H 0.96535 0.48553 0.20311 0.0
H1923 H 0.01338 0.52973 0.21716 0.0
H1924 H 0.052 0.48121 0.16263 0.0
H1925 H 0.03223 0.50163 0.2048 0.0
H1926 H 0.97792 0.48704 0.14243 0.0
H1927 H -0.00224 0.46504 0.10194 0.0
C1928 C 0.95863 0.51121 0.23707 0.0
C1929 C 0.96555 0.52975 0.25141 0.0
C1930 C 0.97128 0.49951 0.21465 0.0
C1931 C 0.99092 0.50635 0.20578 0.0
C1932 C -0.00164 0.52397 0.22312 0.0
C1933 C 0.9859 0.53536 0.24621 0.0
C1934 C 0.03591 0.48271 0.15734 0.0
C1935 C 0.0263 0.47128 0.12941 0.0
C1936 C 0.0245 0.49443 0.1817 0.0
C1937 C 0.00333 0.49551 0.17781 0.0
C1938 C -0.00592 0.48583 0.14724 0.0
C1939 C 0.00545 0.47364 0.12346 0.0
H1940 H 0.75793 0.78766 0.38852 0.0
H1941 H 0.80261 0.73988 0.38357 0.0
H1942 H 0.73577 0.76568 0.4248 0.0
H1943 H 0.78125 0.71849 0.42174 0.0
H1944 H 0.71119 0.73474 0.52457 0.0
H1945 H 0.73499 0.7542 0.48689 0.0
H1946 H 0.75223 0.69927 0.42909 0.0
H1947 H 0.72965 0.67987 0.46837 0.0
C1948 C 0.76282 0.77233 0.39461 0.0
C1949 C 0.78207 0.76558 0.38378 0.0
C1950 C 0.75036 0.75988 0.41605 0.0
C1951 C 0.75706 0.74059 0.42739 0.0
C1952 C 0.7756 0.73326 0.41375 0.0
C1953 C 0.78787 0.74556 0.39174 0.0
C1954 C 0.72066 0.72683 0.5047 0.0
C1955 C 0.71845 0.7059 0.49911 0.0
C1956 C 0.73395 0.73797 0.48254 0.0
C1957 C 0.74498 0.72841 0.45401 0.0
C1958 C 0.74397 0.7072 0.45065 0.0
C1959 C 0.73103 0.69601 0.47335 0.0
H1960 H 0.49253 0.43981 0.75708 0.0
H1961 H 0.54015 0.48434 0.7439 0.0
H1962 H 0.47087 0.4591 0.71617 0.0
H1963 H 0.51778 0.5047 0.70506 0.0
H1964 H 0.48534 0.52568 0.60419 0.0
H1965 H 0.50555 0.50365 0.64406 0.0
H1966 H 0.45133 0.48681 0.70446 0.0
H1967 H 0.43124 0.50729 0.66289 0.0
C1968 C 0.49811 0.45416 0.74652 0.0
C1969 C 0.51818 0.4604 0.75303 0.0
C1970 C 0.48564 0.46526 0.72292 0.0
C1971 C 0.49275 0.4832 0.7063 0.0
C1972 C 0.51211 0.49051 0.71609 0.0
C1973 C 0.52478 0.47912 0.73904 0.0
C1974 C 0.47777 0.51661 0.62514 0.0
C1975 C 0.45683 0.51837 0.63076 0.0
C1976 C 0.48934 0.50437 0.64856 0.0
C1977 C 0.4802 0.49402 0.67843 0.0
C1978 C 0.45899 0.49452 0.6819 0.0
C1979 C 0.44739 0.50629 0.6579 0.0
H1980 H 0.70492 0.23498 0.85756 0.0
H1981 H 0.74919 0.19348 0.90187 0.0
H1982 H 0.72212 0.26316 0.88789 0.0
H1983 H 0.76733 0.22173 0.93032 0.0
H1984 H 0.77126 0.26229 0.02812 0.0
H1985 H 0.75542 0.23822 0.98563 0.0
H1986 H 0.74938 0.2855 0.90301 0.0
H1987 H 0.7641 0.30972 0.94633 0.0
C1988 C 0.71922 0.23215 0.87151 0.0
C1989 C 0.72574 0.21223 0.87798 0.0
C1990 C 0.72892 0.24825 0.88939 0.0
C1991 C 0.74546 0.24443 0.91299 0.0
C1992 C 0.75402 0.22492 0.91364 0.0
C1993 C 0.74404 0.20881 0.89652 0.0
C1994 C 0.76572 0.26764 1.00148 0.0
C1995 C 0.76898 0.28771 0.99041 0.0
C1996 C 0.7572 0.25382 0.97673 0.0
C1997 C 0.75213 0.25981 0.94031 0.0
C1998 C 0.75346 0.28037 0.93063 0.0
C1999 C 0.76166 0.2943 0.95568 0.0
H2000 H 0.97693 0.45048 0.75253 0.0
H2001 H 0.92866 0.48498 0.7019 0.0
H2002 H 0.00185 0.47028 0.71821 0.0
H2003 H 0.95343 0.50416 0.66593 0.0
H2004 H 0.00386 0.54944 0.64085 0.0
H2005 H 0.97846 0.52948 0.67375 0.0
H2006 H 0.01498 0.47566 0.65826 0.0
H2007 H 0.04086 0.49598 0.62783 0.0
C2008 C 0.97172 0.46219 0.73368 0.0
C2009 C 0.95104 0.46645 0.72994 0.0
C2010 C 0.98593 0.47343 0.71381 0.0
C2011 C 0.97962 0.48883 0.68934 0.0
C2012 C 0.9588 0.4927 0.68512 0.0
C2013 C 0.94463 0.48169 0.70551 0.0
C2014 C 0.00643 0.5334 0.64483 0.0
C2015 C 0.02433 0.52427 0.63242 0.0
C2016 C 0.99182 0.52189 0.66324 0.0
C2017 C -0.00525 0.50098 0.66879 0.0
C2018 C 0.01247 0.49181 0.65523 0.0
C2019 C 0.02721 0.50339 0.63753 0.0
H2020 H 0.7401 0.68689 1.01526 0.0
H2021 H 0.79058 0.72851 1.00787 0.0
H2022 H 0.71753 0.71288 0.99063 0.0
H2023 H 0.76844 0.75408 0.98127 0.0
H2024 H 0.7253 0.80105 0.94925 0.0
H2025 H 0.74121 0.77676 0.9911 0.0
H2026 H 0.71232 0.72757 0.93119 0.0
H2027 H 0.69559 0.75206 0.89083 0.0
C2028 C 0.74632 0.70164 1.00836 0.0
C2029 C 0.76704 0.70575 1.01289 0.0
C2030 C 0.73345 0.71646 0.99418 0.0
C2031 C 0.7412 0.73549 0.98383 0.0
C2032 C 0.76189 0.7397 0.98954 0.0
C2033 C 0.77466 0.72499 1.00425 0.0
C2034 C 0.72218 0.78503 0.94556 0.0
C2035 C 0.70971 0.77821 0.91656 0.0
C2036 C 0.73128 0.77115 0.96937 0.0
C2037 C 0.72838 0.75025 0.96392 0.0
C2038 C 0.71478 0.74358 0.9363 0.0
C2039 C 0.70535 0.75752 0.91295 0.0
H2040 H 0.48011 0.43902 0.14872 0.0
H2041 H 0.44342 0.49194 0.1276 0.0
H2042 H 0.50501 0.46014 0.18081 0.0
H2043 H 0.46872 0.51325 0.15742 0.0
H2044 H 0.55427 0.50568 0.20669 0.0
H2045 H 0.53009 0.4854 0.17133 0.0
H2046 H 0.48086 0.52059 0.21762 0.0
H2047 H 0.50525 0.54145 0.25146 0.0
C2048 C 0.47753 0.45518 0.15065 0.0
C2049 C 0.45986 0.46386 0.13617 0.0
C2050 C 0.49182 0.46733 0.16868 0.0
C2051 C 0.48878 0.48839 0.17182 0.0
C2052 C 0.4713 0.49705 0.15624 0.0
C2053 C 0.45689 0.48487 0.1389 0.0
C2054 C 0.53825 0.50905 0.2091 0.0
C2055 C 0.53147 0.52492 0.23182 0.0
C2056 C 0.52442 0.49739 0.18907 0.0
C2057 C 0.50355 0.50127 0.19188 0.0
C2058 C 0.49685 0.51739 0.21442 0.0
C2059 C 0.51074 0.52925 0.23398 0.0
H2060 H 0.79886 0.23516 0.40445 0.0
H2061 H 0.74546 0.19719 0.40282 0.0
H2062 H 0.78044 0.26074 0.43984 0.0
H2063 H 0.7266 0.22313 0.43554 0.0
H2064 H 0.70105 0.26569 0.51994 0.0
H2065 H 0.72202 0.23932 0.49236 0.0
H2066 H 0.75504 0.28507 0.43068 0.0
H2067 H 0.73486 0.31139 0.46034 0.0
C2068 C 0.7832 0.23235 0.41169 0.0
C2069 C 0.77355 0.21431 0.40111 0.0
C2070 C 0.77256 0.24703 0.43158 0.0
C2071 C 0.752 0.24403 0.44041 0.0
C2072 C 0.7425 0.22581 0.42993 0.0
C2073 C 0.75325 0.211 0.41084 0.0
C2074 C 0.7129 0.26999 0.50061 0.0
C2075 C 0.7165 0.2904 0.49212 0.0
C2076 C 0.72483 0.25494 0.48466 0.0
C2077 C 0.7402 0.26007 0.45921 0.0
C2078 C 0.74365 0.28061 0.45075 0.0
C2079 C 0.73201 0.29566 0.4674 0.0
H2080 H 0.25511 0.30404 0.89778 0.0
H2081 H 0.27713 0.24898 0.84682 0.0
H2082 H 0.23376 0.28463 0.93828 0.0
H2083 H 0.2537 0.22924 0.88472 0.0
H2084 H 0.23186 0.19672 0.98595 0.0
H2085 H 0.25236 0.21777 0.94489 0.0
H2086 H 0.20735 0.26539 0.95248 0.0
H2087 H 0.1885 0.24546 0.99629 0.0
C2088 C 0.25468 0.28774 0.89405 0.0
C2089 C 0.26827 0.27794 0.87005 0.0
C2090 C 0.24229 0.27648 0.91741 0.0
C2091 C 0.24241 0.25516 0.91589 0.0
C2092 C 0.25395 0.24555 0.88805 0.0
C2093 C 0.26699 0.25685 0.86559 0.0
C2094 C 0.2269 0.21203 0.97984 0.0
C2095 C 0.20853 0.21936 0.99399 0.0
C2096 C 0.23831 0.22392 0.9555 0.0
C2097 C 0.23126 0.24313 0.94417 0.0
C2098 C 0.21351 0.25083 0.96044 0.0
C2099 C 0.20258 0.2393 0.98574 0.0
H2100 H 0.21259 0.72637 0.35772 0.0
H2101 H 0.23096 0.67033 0.41002 0.0
H2102 H 0.23505 0.74515 0.39919 0.0
H2103 H 0.25202 0.68901 0.45314 0.0
H2104 H 0.29954 0.72995 0.50806 0.0
H2105 H 0.27988 0.70874 0.46661 0.0
H2106 H 0.23313 0.75464 0.46229 0.0
H2107 H 0.25367 0.77656 0.5018 0.0
C2108 C 0.22178 0.71807 0.37752 0.0
C2109 C 0.21973 0.69701 0.38121 0.0
C2110 C 0.23426 0.72881 0.40186 0.0
C2111 C 0.24461 0.71867 0.4306 0.0
C2112 C 0.24415 0.69738 0.43164 0.0
C2113 C 0.23208 0.68662 0.40673 0.0
C2114 C 0.28483 0.73534 0.49904 0.0
C2115 C 0.27834 0.75513 0.50725 0.0
C2116 C 0.27355 0.72315 0.47507 0.0
C2117 C 0.2553 0.73032 0.45989 0.0
C2118 C 0.24761 0.74908 0.4721 0.0
C2119 C 0.25911 0.76145 0.49544 0.0
H2120 H 0.30113 0.22774 0.45297 0.0
H2121 H 0.25313 0.18416 0.43488 0.0
H2122 H 0.28145 0.25341 0.42024 0.0
H2123 H 0.23291 0.20991 0.40473 0.0
H2124 H 0.19979 0.26013 0.34852 0.0
H2125 H 0.22507 0.23378 0.35885 0.0
H2126 H 0.25304 0.27095 0.44411 0.0
H2127 H 0.22851 0.2976 0.43197 0.0
C2128 C 0.28656 0.2236 0.44137 0.0
C2129 C 0.27827 0.20432 0.44735 0.0
C2130 C 0.27521 0.23828 0.42297 0.0
C2131 C 0.25535 0.23386 0.41119 0.0
C2132 C 0.2481 0.21387 0.41359 0.0
C2133 C 0.25961 0.19914 0.43125 0.0
C2134 C 0.21131 0.26247 0.36962 0.0
C2135 C 0.21228 0.28061 0.38986 0.0
C2136 C 0.22584 0.24751 0.37533 0.0
C2137 C 0.24121 0.25038 0.40194 0.0
C2138 C 0.24181 0.26851 0.42256 0.0
C2139 C 0.22757 0.28359 0.41626 0.0
H2140 H 0.24586 0.66589 0.90569 0.0
H2141 H 0.27932 0.71754 0.86408 0.0
H2142 H 0.22246 0.68872 0.93771 0.0
H2143 H 0.25559 0.74036 0.89561 0.0
H2144 H 0.19567 0.772 0.92933 0.0
H2145 H 0.21423 0.74698 0.89233 0.0
H2146 H 0.2317 0.71578 0.99294 0.0
H2147 H 0.21351 0.74097 0.03005 0.0
C2148 C 0.24801 0.68213 0.90309 0.0
C2149 C 0.26427 0.69011 0.88263 0.0
C2150 C 0.23469 0.69508 0.92131 0.0
C2151 C 0.2373 0.7161 0.91863 0.0
C2152 C 0.25328 0.72412 0.8975 0.0
C2153 C 0.26685 0.71115 0.87982 0.0
C2154 C 0.20322 0.7596 0.94341 0.0
C2155 C 0.20341 0.75833 0.98237 0.0
C2156 C 0.21383 0.74544 0.92233 0.0
C2157 C 0.22431 0.72971 0.94009 0.0
C2158 C 0.22358 0.72783 0.9789 0.0
C2159 C 0.2133 0.74219 0.99999 0.0
H2160 H 0.43346 0.00361 0.73254 0.0
H2161 H 0.49047 0.02732 0.77304 0.0
H2162 H 0.45122 0.98018 0.69298 0.0
H2163 H 0.50855 0.00232 0.73577 0.0
H2164 H 0.53625 0.97709 0.6324 0.0
H2165 H 0.51666 -0.00086 0.67316 0.0
H2166 H 0.47051 0.95259 0.68214 0.0
H2167 H 0.48907 0.93167 0.63911 0.0
C2168 C 0.44985 0.00321 0.73418 0.0
C2169 C 0.46065 0.01768 0.75498 0.0
C2170 C 0.46011 0.98968 0.71137 0.0
C2171 C 0.48141 0.98978 0.71008 0.0
C2172 C 0.49215 0.00248 0.73473 0.0
C2173 C 0.48183 0.01649 0.75677 0.0
C2174 C 0.52154 0.97201 0.64211 0.0
C2175 C 0.51424 0.95268 0.63279 0.0
C2176 C 0.51054 0.98437 0.66621 0.0
C2177 C 0.49227 0.97741 0.68202 0.0
C2178 C 0.48443 0.95859 0.67059 0.0
C2179 C 0.49511 0.94653 0.6457 0.0
H2180 H 0.05547 0.98313 0.21553 0.0
H2181 H 0.00104 0.96331 0.27158 0.0
H2182 H 0.0357 0.00449 0.17533 0.0
H2183 H 0.98109 0.98648 0.2335 0.0
H2184 H 0.94693 0.00997 0.13537 0.0
H2185 H 0.96835 0.9883 0.17372 0.0
H2186 H 0.01703 0.0322 0.16454 0.0
H2187 H -0.00354 0.05248 0.12374 0.0
C2188 C 0.03929 0.98399 0.22032 0.0
C2189 C 0.02972 0.97127 0.24625 0.0
C2190 C 0.02785 -0.00366 0.19711 0.0
C2191 C 0.00661 -0.00307 0.20033 0.0
C2192 C -0.0027 0.9858 0.22909 0.0
C2193 C 0.00874 0.97289 0.25157 0.0
C2194 C 0.96248 0.0145 0.14058 0.0
C2195 C 0.96996 0.03295 0.12687 0.0
C2196 C 0.97463 0.00236 0.16329 0.0
C2197 C -0.0057 0.00873 0.17333 0.0
C2198 C 0.00209 0.02659 0.15747 0.0
C2199 C 0.9902 0.03833 0.13394 0.0
H2200 H 0.45836 0.98423 0.28686 0.0
H2201 H 0.46254 0.9416 0.19584 0.0
H2202 H 0.47688 0.00918 0.25101 0.0
H2203 H 0.48243 0.96617 0.16049 0.0
H2204 H 0.50276 0.01859 0.09272 0.0
H2205 H 0.47941 -0.00255 0.12833 0.0
H2206 H 0.50966 0.01565 0.23006 0.0
H2207 H 0.53198 0.03754 0.19469 0.0
C2208 C 0.46365 0.98007 0.25937 0.0
C2209 C 0.45919 0.96105 0.24391 0.0
C2210 C 0.47426 -0.00564 0.23886 0.0
C2211 C 0.48104 0.98967 0.20292 0.0
C2212 C 0.47697 0.97039 0.18782 0.0
C2213 C 0.46591 0.95623 0.20811 0.0
C2214 C 0.504 0.01831 0.12278 0.0
C2215 C 0.51916 0.02934 0.14113 0.0
C2216 C 0.49085 0.00611 0.14308 0.0
C2217 C 0.49301 0.00457 0.18185 0.0
C2218 C 0.50749 0.01661 0.20025 0.0
C2219 C 0.52034 0.0291 0.18002 0.0
H2220 H 0.9488 -0.00207 0.6165 0.0
H2221 H 0.97947 0.94263 0.64703 0.0
H2222 H 0.9736 0.01761 0.65133 0.0
H2223 H 0.00367 0.96208 0.68394 0.0
H2224 H 0.05501 0.00377 0.71652 0.0
H2225 H 0.03112 0.98482 0.67849 0.0
H2226 H 0.98299 0.02511 0.71322 0.0
H2227 H 0.00734 0.04474 0.74977 0.0
C2228 C 0.96088 0.99001 0.63084 0.0
C2229 C 0.96237 0.96881 0.62918 0.0
C2230 C 0.97494 0.00124 0.6511 0.0
C2231 C 0.99053 0.99143 0.67065 0.0
C2232 C 0.99203 0.97015 0.66872 0.0
C2233 C 0.97816 0.95896 0.6478 0.0
C2234 C 0.03929 0.00852 0.71602 0.0
C2235 C 0.03286 0.02555 0.7361 0.0
C2236 C 0.02559 -0.00239 0.69441 0.0
C2237 C 0.00512 0.00334 0.69304 0.0
C2238 C -0.00128 0.02046 0.71327 0.0
C2239 C 0.01256 0.03161 0.73439 0.0
H2240 H 0.05657 0.40923 0.97191 0.0
H2241 H 0.00583 0.40832 0.04716 0.0
H2242 H 0.03356 0.40692 0.91912 0.0
H2243 H 0.98249 0.40819 0.99483 0.0
H2244 H 0.94266 0.39958 0.89389 0.0
H2245 H 0.9658 0.39499 0.94612 0.0
H2246 H 0.01303 0.42546 0.88361 0.0
H2247 H 0.99037 0.42799 0.83076 0.0
C2248 C 0.0404 0.40836 0.97698 0.0
C2249 C 0.03292 0.40866 1.0134 0.0
C2250 C 0.02708 0.40747 0.94672 0.0
C2251 C 0.00587 0.40786 0.95209 0.0
C2252 C -0.00145 0.40754 0.98897 0.0
C2253 C 0.01194 0.40765 1.01921 0.0
C2254 C 0.95806 0.40514 0.89156 0.0
C2255 C 0.96481 0.41403 0.85839 0.0
C2256 C 0.9714 0.40266 0.92161 0.0
C2257 C 0.99162 0.40969 0.91962 0.0
C2258 C -0.00201 0.41911 0.88637 0.0
C2259 C 0.98488 0.42088 0.85601 0.0
H2260 H 0.81737 0.74365 0.09204 0.0
H2261 H 0.84133 0.69347 0.15499 0.0
H2262 H 0.82225 0.76596 0.14473 0.0
H2263 H 0.84797 0.71615 0.2074 0.0
H2264 H 0.83513 0.75713 0.30835 0.0
H2265 H 0.83513 0.73385 0.2559 0.0
H2266 H 0.84271 0.78473 0.18095 0.0
H2267 H 0.84071 0.80787 0.23374 0.0
C2268 C 0.82406 0.73748 0.11714 0.0
C2269 C 0.82894 0.71682 0.11941 0.0
C2270 C 0.82715 0.75039 0.14747 0.0
C2271 C 0.83584 0.74319 0.18079 0.0
C2272 C 0.84096 0.72241 0.18274 0.0
C2273 C 0.83727 0.70933 0.1526 0.0
C2274 C 0.83731 0.76319 0.28063 0.0
C2275 C 0.83817 0.78422 0.275 0.0
C2276 C 0.8373 0.74983 0.25031 0.0
C2277 C 0.83855 0.75718 0.21353 0.0
C2278 C 0.84096 0.77831 0.20845 0.0
C2279 C 0.84029 0.79167 0.23875 0.0
H2280 H 0.53913 0.5714 0.40233 0.0
H2281 H 0.49031 0.58676 0.3272 0.0
H2282 H 0.5157 0.57389 0.45493 0.0
H2283 H 0.46714 0.58933 0.37954 0.0
H2284 H 0.42863 0.56229 0.4754 0.0
H2285 H 0.45189 0.56467 0.42308 0.0
H2286 H 0.49396 0.59873 0.49094 0.0
H2287 H 0.47054 0.59627 0.54372 0.0
C2288 C 0.52347 0.57538 0.397 0.0
C2289 C 0.51661 0.5787 0.36043 0.0
C2290 C 0.51009 0.57698 0.42718 0.0
C2291 C 0.48953 0.58176 0.4214 0.0
C2292 C 0.48282 0.58542 0.38492 0.0
C2293 C 0.49617 0.58399 0.35489 0.0
C2294 C 0.44269 0.57058 0.47906 0.0
C2295 C 0.44771 0.57911 0.51372 0.0
C2296 C 0.45602 0.57198 0.44901 0.0
C2297 C 0.47484 0.58179 0.45287 0.0
C2298 C 0.47965 0.59091 0.48721 0.0
C2299 C 0.46613 0.58971 0.51727 0.0
H2300 H 0.65264 0.23698 0.80513 0.0
H2301 H 0.67062 0.18974 0.72874 0.0
H2302 H 0.64965 0.26073 0.75293 0.0
H2303 H 0.66797 0.21331 0.6772 0.0
H2304 H 0.64688 0.25459 0.58657 0.0
H2305 H 0.64435 0.23247 0.64032 0.0
H2306 H 0.67243 0.27847 0.70881 0.0
H2307 H 0.67464 0.30098 0.65481 0.0
C2308 C 0.65561 0.23156 0.77722 0.0
C2309 C 0.66183 0.21142 0.77119 0.0
C2310 C 0.65413 0.24523 0.74735 0.0
C2311 C 0.65863 0.23899 0.71079 0.0
C2312 C 0.66414 0.21865 0.70481 0.0
C2313 C 0.66574 0.2051 0.73451 0.0
C2314 C 0.65247 0.26013 0.61304 0.0
C2315 C 0.66122 0.27954 0.6161 0.0
C2316 C 0.65106 0.24735 0.64395 0.0
C2317 C 0.65837 0.25355 0.67891 0.0
C2318 C 0.66651 0.27323 0.68238 0.0
C2319 C 0.66792 0.28609 0.65132 0.0
H2320 H 0.98841 0.57679 0.04285 0.0
H2321 H 0.94029 0.61838 1.01491 0.0
H2322 H -0.00139 0.57559 0.97767 0.0
H2323 H 0.95027 0.61701 0.94972 0.0
H2324 H 0.9868 0.62811 0.84439 0.0
H2325 H 0.9764 0.62817 0.90918 0.0
H2326 H 0.98952 0.56413 0.9166 0.0
H2327 H 0.00094 0.5643 0.85204 0.0
C2328 C 0.97984 0.58549 1.02273 0.0
C2329 C 0.96358 0.59777 0.03426 0.0
C2330 C 0.98568 0.58479 0.98525 0.0
C2331 C 0.97537 0.59628 0.95821 0.0
C2332 C 0.95887 0.60827 0.96972 0.0
C2333 C 0.95311 0.60904 1.00719 0.0
C2334 C 0.98774 0.61406 0.85986 0.0
C2335 C -0.00512 0.59623 0.84279 0.0
C2336 C 0.98146 0.61403 0.89704 0.0
C2337 C 0.982 0.59614 0.91836 0.0
C2338 C 0.98906 0.57826 0.90129 0.0
C2339 C -0.0046 0.5783 0.86404 0.0
H2340 H 0.61057 0.71971 0.27866 0.0
H2341 H 0.67602 0.71757 0.27779 0.0
H2342 H 0.61061 0.72963 0.21348 0.0
H2343 H 0.67601 0.72782 0.21249 0.0
H2344 H 0.66676 0.76701 0.10607 0.0
H2345 H 0.66797 0.75679 0.17138 0.0
H2346 H 0.61831 0.7153 0.15249 0.0
H2347 H 0.61725 0.72521 0.08736 0.0
C2348 C 0.62499 0.72115 0.26456 0.0
C2349 C 0.64329 0.71766 0.28371 0.0
C2350 C 0.625 0.72691 0.22707 0.0
C2351 C 0.64331 0.72946 0.20756 0.0
C2352 C 0.66163 0.72622 0.22672 0.0
C2353 C 0.66163 0.72035 0.26424 0.0
C2354 C 0.65624 0.75554 0.1157 0.0
C2355 C 0.64179 0.7471 0.09125 0.0
C2356 C 0.65693 0.74969 0.15323 0.0
C2357 C 0.64313 0.73532 0.16737 0.0
C2358 C 0.62891 0.7267 0.14282 0.0
C2359 C 0.62828 0.73245 0.10536 0.0
H2360 H 0.54781 0.37584 0.51812 0.0
H2361 H 0.494 0.40929 0.54769 0.0
H2362 H 0.53784 0.37688 0.45286 0.0
H2363 H 0.4838 0.41007 0.48245 0.0
H2364 H 0.4795 0.42287 0.35769 0.0
H2365 H 0.49093 0.42375 0.42227 0.0
H2366 H 0.51385 0.36271 0.41112 0.0
H2367 H 0.5034 0.36224 0.34632 0.0
C2368 C 0.53376 0.3833 0.51073 0.0
C2369 C 0.52169 0.3924 0.53828 0.0
C2370 C 0.52799 0.38387 0.47322 0.0
C2371 C 0.5099 0.39346 0.46213 0.0
C2372 C 0.49796 0.4028 0.48969 0.0
C2373 C 0.5038 0.40232 0.52721 0.0
C2374 C 0.4872 0.40973 0.36886 0.0
C2375 C 0.49043 0.39246 0.34658 0.0
C2376 C 0.49356 0.41013 0.40614 0.0
C2377 C 0.50334 0.39329 0.4222 0.0
C2378 C 0.50663 0.37609 0.3998 0.0
C2379 C 0.50033 0.37571 0.3626 0.0
H2380 H 0.84662 0.30628 0.75915 0.0
H2381 H 0.83423 0.24455 0.79221 0.0
H2382 H 0.84675 0.29587 0.69408 0.0
H2383 H 0.83444 0.2341 0.72712 0.0
H2384 H 0.81801 0.22545 0.60372 0.0
H2385 H 0.81664 0.23596 0.66879 0.0
H2386 H 0.86647 0.27725 0.65 0.0
H2387 H 0.86785 0.26676 0.58516 0.0
C2388 C 0.84407 0.29044 0.75264 0.0
C2389 C 0.84048 0.2763 0.78123 0.0
C2390 C 0.84415 0.28443 0.71517 0.0
C2391 C 0.8407 0.26407 0.70502 0.0
C2392 C 0.83688 0.24996 0.7336 0.0
C2393 C 0.83677 0.25598 0.77109 0.0
C2394 C 0.82879 0.23666 0.61347 0.0
C2395 C 0.84299 0.24526 0.58881 0.0
C2396 C 0.828 0.24272 0.65094 0.0
C2397 C 0.84139 0.25757 0.66495 0.0
C2398 C 0.85562 0.2661 0.64029 0.0
C2399 C 0.85641 0.26005 0.6029 0.0
H2400 H 0.98811 0.59198 0.54944 0.0
H2401 H 0.03611 0.57681 0.47261 0.0
H2402 H 0.96475 0.5962 0.49757 0.0
H2403 H 0.01253 0.58099 0.42057 0.0
H2404 H 0.92612 0.56882 0.40051 0.0
H2405 H 0.94914 0.57177 0.45325 0.0
H2406 H 0.99071 0.60663 0.38601 0.0
H2407 H 0.96744 0.60373 0.33291 0.0
C2408 C -0.00624 0.58967 0.52148 0.0
C2409 C 0.014 0.58383 0.51531 0.0
C2410 C 0.98031 0.59206 0.49173 0.0
C2411 C 0.98674 0.58887 0.45495 0.0
C2412 C 0.00714 0.58374 0.44857 0.0
C2413 C 0.02061 0.58116 0.47843 0.0
C2414 C 0.93993 0.57756 0.39721 0.0
C2415 C 0.94492 0.58612 0.36262 0.0
C2416 C 0.95314 0.57926 0.42746 0.0
C2417 C 0.97183 0.58932 0.42377 0.0
C2418 C 0.97649 0.59864 0.3896 0.0
C2419 C 0.96306 0.59721 0.35937 0.0
H2420 H 0.13876 0.25026 0.2914 0.0
H2421 H 0.17369 0.29359 0.22786 0.0
H2422 H 0.13583 0.22862 0.23625 0.0
H2423 H 0.17074 0.27197 0.17315 0.0
H2424 H 0.18908 0.21411 0.11012 0.0
H2425 H 0.18631 0.23785 0.16111 0.0
H2426 H 0.12194 0.22655 0.16736 0.0
H2427 H 0.1247 0.20239 0.11491 0.0
C2428 C 0.14569 0.25528 0.2657 0.0
C2429 C 0.15677 0.27357 0.26438 0.0
C2430 C 0.14382 0.24293 0.23401 0.0
C2431 C 0.15312 0.24851 0.20038 0.0
C2432 C 0.16355 0.26713 0.19875 0.0
C2433 C 0.16529 0.27952 0.23023 0.0
C2434 C 0.17424 0.21656 0.12218 0.0
C2435 C 0.15711 0.20614 0.10859 0.0
C2436 C 0.17266 0.23039 0.1513 0.0
C2437 C 0.15392 0.23419 0.16825 0.0
C2438 C 0.13661 0.22388 0.15482 0.0
C2439 C 0.13815 0.21015 0.1248 0.0
H2440 H 0.4488 0.41105 0.97702 0.0
H2441 H 0.49692 0.39624 0.05398 0.0
H2442 H 0.47255 0.40774 0.92514 0.0
H2443 H 0.52051 0.39298 1.00222 0.0
H2444 H 0.55854 0.42187 0.9055 0.0
H2445 H 0.53563 0.41817 0.95819 0.0
H2446 H 0.49491 0.38249 0.89041 0.0
H2447 H 0.51805 0.3861 0.83742 0.0
C2448 C 0.46437 0.40694 0.98291 0.0
C2449 C 0.47093 0.40407 1.01979 0.0
C2450 C 0.47794 0.40489 0.95313 0.0
C2451 C 0.49844 0.40013 0.95957 0.0
C2452 C 0.50486 0.39681 0.99634 0.0
C2453 C 0.49128 0.39864 0.02602 0.0
C2454 C 0.54496 0.41279 0.90206 0.0
C2455 C 0.54017 0.4042 0.86733 0.0
C2456 C 0.53181 0.41067 0.93229 0.0
C2457 C 0.51337 0.40015 0.92844 0.0
C2458 C 0.50893 0.39082 0.89414 0.0
C2459 C 0.5223 0.39267 0.86395 0.0
H2460 H 0.33045 0.80065 0.65488 0.0
H2461 H 0.3381 0.75036 0.57972 0.0
H2462 H 0.33159 0.77757 0.70765 0.0
H2463 H 0.3371 0.72686 0.6316 0.0
H2464 H 0.34045 0.68685 0.73337 0.0
H2465 H 0.34758 0.7104 0.68275 0.0
H2466 H 0.31148 0.75612 0.73835 0.0
H2467 H 0.30629 0.73315 0.79 0.0
C2468 C 0.33273 0.78461 0.64984 0.0
C2469 C 0.33448 0.77728 0.61343 0.0
C2470 C 0.33289 0.77121 0.68001 0.0
C2471 C 0.33377 0.75002 0.67437 0.0
C2472 C 0.33659 0.74291 0.63771 0.0
C2473 C 0.3372 0.75642 0.6077 0.0
C2474 C 0.33416 0.702 0.73455 0.0
C2475 C 0.32292 0.70825 0.76557 0.0
C2476 C 0.33814 0.71558 0.70541 0.0
C2477 C 0.33035 0.73553 0.70604 0.0
C2478 C 0.31851 0.74134 0.73691 0.0
C2479 C 0.31518 0.72802 0.76648 0.0
H2480 H 0.98163 0.39082 0.32941 0.0
H2481 H 0.04238 0.40842 0.36091 0.0
H2482 H 0.97131 0.39199 0.39447 0.0
H2483 H 0.03219 0.40896 0.42618 0.0
H2484 H 0.00197 0.42654 0.53647 0.0
H2485 H 0.01112 0.42769 0.47062 0.0
H2486 H 0.97684 0.3728 0.45137 0.0
H2487 H 0.96729 0.37195 0.51684 0.0
C2488 C 0.99278 0.39505 0.35017 0.0
C2489 C 0.01286 0.39952 0.3398 0.0
C2490 C 0.9869 0.39551 0.38757 0.0
C2491 C 0.00091 0.4005 0.41566 0.0
C2492 C 0.02094 0.40522 0.40529 0.0
C2493 C 0.02685 0.40469 0.36787 0.0
C2494 C -0.00381 0.41486 0.51808 0.0
C2495 C 0.98393 0.39912 0.53201 0.0
C2496 C 0.00162 0.4154 0.4804 0.0
C2497 C -0.00522 0.4003 0.45564 0.0
C2498 C 0.98224 0.38477 0.46951 0.0
C2499 C 0.97693 0.38417 0.50717 0.0
H2500 H 0.36758 0.24238 0.08507 0.0
H2501 H 0.32771 0.29238 0.11037 0.0
H2502 H 0.36828 0.23304 0.15053 0.0
H2503 H 0.32848 0.28305 0.17606 0.0
H2504 H 0.35109 0.27227 0.29609 0.0
H2505 H 0.34978 0.28201 0.23067 0.0
H2506 H 0.34783 0.21882 0.19915 0.0
H2507 H 0.34914 0.2091 0.26448 0.0
C2508 C 0.35878 0.25131 0.10447 0.0
C2509 C 0.34751 0.26813 0.09202 0.0
C2510 C 0.35918 0.24592 0.14221 0.0
C2511 C 0.34837 0.25719 0.16891 0.0
C2512 C 0.33723 0.27412 0.15657 0.0
C2513 C 0.33679 0.2795 0.11874 0.0
C2514 C 0.35017 0.26042 0.27528 0.0
C2515 C 0.3503 0.23984 0.28589 0.0
C2516 C 0.34942 0.26603 0.2376 0.0
C2517 C 0.34878 0.25125 0.20929 0.0
C2518 C 0.34872 0.23068 0.21994 0.0
C2519 C 0.34946 0.22508 0.25758 0.0
H2520 H 0.47528 0.61939 0.03878 0.0
H2521 H 0.5159 0.56907 1.0202 0.0
H2522 H 0.46547 0.61864 0.97353 0.0
H2523 H 0.50581 0.56819 0.95479 0.0
H2524 H 0.46675 0.56092 0.84815 0.0
H2525 H 0.47672 0.56073 0.91361 0.0
H2526 H 0.48006 0.62613 0.91264 0.0
H2527 H 0.4704 0.62636 0.84728 0.0
C2528 C 0.48228 0.60825 1.02077 0.0
C2529 C 0.49656 0.5944 0.03494 0.0
C2530 C 0.47659 0.60781 0.98326 0.0
C2531 C 0.48492 0.59344 0.95875 0.0
C2532 C 0.49893 0.57934 0.97293 0.0
C2533 C 0.50471 0.57984 1.01051 0.0
C2534 C 0.4698 0.57527 0.86175 0.0
C2535 C 0.46766 0.59366 0.84223 0.0
C2536 C 0.47551 0.57514 0.89936 0.0
C2537 C 0.47912 0.59341 0.91853 0.0
C2538 C 0.47705 0.61178 0.899 0.0
C2539 C 0.47145 0.6119 0.86142 0.0
H2540 H 0.10538 0.72663 0.78697 0.0
H2541 H 0.1662 0.75082 0.78134 0.0
H2542 H 0.10742 0.71681 0.72181 0.0
H2543 H 0.16828 0.74075 0.71612 0.0
H2544 H 0.1716 0.70147 0.60946 0.0
H2545 H 0.1702 0.71155 0.67479 0.0
H2546 H 0.10827 0.73099 0.65998 0.0
H2547 H 0.10969 0.72109 0.5948 0.0
C2548 C 0.11915 0.73006 0.77186 0.0
C2549 C 0.13558 0.73966 0.78982 0.0
C2550 C 0.12033 0.72436 0.7343 0.0
C2551 C 0.138 0.72799 0.71335 0.0
C2552 C 0.15451 0.73743 0.73131 0.0
C2553 C 0.1533 0.74321 0.7689 0.0
C2554 C 0.15773 0.70807 0.61996 0.0
C2555 C 0.14073 0.71031 0.59651 0.0
C2556 C 0.15692 0.71386 0.65759 0.0
C2557 C 0.13908 0.72204 0.67301 0.0
C2558 C 0.12216 0.7244 0.64949 0.0
C2559 C 0.12298 0.71867 0.61192 0.0
H2560 H 0.49291 0.92071 0.33448 0.0
H2561 H 0.44645 0.88616 0.38981 0.0
H2562 H 0.51572 0.91525 0.38676 0.0
H2563 H 0.4696 0.87879 0.44071 0.0
H2564 H 0.50608 0.89044 0.5468 0.0
H2565 H 0.48418 0.8904 0.49257 0.0
H2566 H 0.53685 0.89676 0.42157 0.0
H2567 H 0.55828 0.89878 0.47663 0.0
C2568 C 0.48781 0.91154 0.35766 0.0
C2569 C 0.46796 0.904 0.35841 0.0
C2570 C 0.50095 0.90814 0.38767 0.0
C2571 C 0.49478 0.89649 0.41871 0.0
C2572 C 0.47499 0.8883 0.4183 0.0
C2573 C 0.46167 0.89234 0.38888 0.0
C2574 C 0.51294 0.89126 0.51946 0.0
C2575 C 0.53385 0.89442 0.51583 0.0
C2576 C 0.50035 0.89127 0.48803 0.0
C2577 C 0.50845 0.89391 0.45196 0.0
C2578 C 0.52972 0.89543 0.44853 0.0
C2579 C 0.54218 0.89613 0.48009 0.0
H2580 H 0.35601 0.23004 0.59214 0.0
H2581 H 0.29321 0.21895 0.61938 0.0
H2582 H 0.35893 0.25276 0.64623 0.0
H2583 H 0.29609 0.24186 0.67249 0.0
H2584 H 0.30262 0.3039 0.72895 0.0
H2585 H 0.30391 0.28183 0.67506 0.0
H2586 H 0.35386 0.24911 0.72363 0.0
H2587 H 0.35231 0.27108 0.77905 0.0
C2588 C 0.34282 0.23252 0.60947 0.0
C2589 C 0.32433 0.22274 0.60124 0.0
C2590 C 0.34457 0.24538 0.64056 0.0
C2591 C 0.32774 0.24908 0.66353 0.0
C2592 C 0.3093 0.23935 0.65522 0.0
C2593 C 0.30767 0.22621 0.62475 0.0
C2594 C 0.31405 0.29215 0.72843 0.0
C2595 C 0.32722 0.28921 0.75888 0.0
C2596 C 0.31473 0.27946 0.69735 0.0
C2597 C 0.32881 0.26362 0.69527 0.0
C2598 C 0.34283 0.26124 0.72454 0.0
C2599 C 0.34195 0.27384 0.75622 0.0
H2600 H 0.97566 0.10585 0.04083 0.0
H2601 H 0.93295 0.07268 0.97289 0.0
H2602 H -0.00084 0.10755 0.98798 0.0
H2603 H 0.9562 0.07437 0.92051 0.0
H2604 H -0.0046 0.09324 0.82456 0.0
H2605 H 0.9725 0.0982 0.8766 0.0
H2606 H 0.02003 0.08118 0.95302 0.0
H2607 H 0.04327 0.07631 0.90063 0.0
C2608 C 0.97105 0.09946 1.01436 0.0
C2609 C 0.95242 0.08924 1.0109 0.0
C2610 C 0.98461 0.10018 0.9843 0.0
C2611 C 0.9796 0.09099 0.95013 0.0
C2612 C 0.96049 0.08175 0.94629 0.0
C2613 C 0.94714 0.08078 0.97633 0.0
C2614 C 0.00113 0.09064 0.85239 0.0
C2615 C 0.02119 0.08413 0.85828 0.0
C2616 C 0.98792 0.09348 0.88226 0.0
C2617 C -0.00561 0.09 0.91893 0.0
C2618 C 0.01463 0.08414 0.92508 0.0
C2619 C 0.02789 0.08117 0.89505 0.0
H2620 H 0.14798 0.72976 0.07466 0.0
H2621 H 0.16213 0.77821 0.15143 0.0
H2622 H 0.14464 0.70622 0.12714 0.0
H2623 H 0.15878 0.75484 0.20343 0.0
H2624 H 0.1381 0.71145 0.29311 0.0
H2625 H 0.13406 0.73335 0.23855 0.0
H2626 H 0.16916 0.69131 0.17293 0.0
H2627 H 0.17319 0.66953 0.22712 0.0
C2628 C 0.15014 0.73544 0.10267 0.0
C2629 C 0.15546 0.75583 0.10876 0.0
C2630 C 0.14831 0.72195 0.13271 0.0
C2631 C 0.15142 0.72865 0.16952 0.0
C2632 C 0.15604 0.7492 0.17556 0.0
C2633 C 0.15814 0.76257 0.14562 0.0
C2634 C 0.14458 0.70668 0.26685 0.0
C2635 C 0.15605 0.68878 0.26458 0.0
C2636 C 0.1424 0.7193 0.23566 0.0
C2637 C 0.1514 0.71414 0.2014 0.0
C2638 C 0.1619 0.69568 0.19873 0.0
C2639 C 0.1643 0.68324 0.22993 0.0
H2640 H 0.49592 0.0663 0.33939 0.0
H2641 H 0.49968 0.13161 0.34609 0.0
H2642 H 0.48626 0.06491 0.40486 0.0
H2643 H 0.48918 0.13027 0.4109 0.0
H2644 H 0.49172 0.12014 0.53618 0.0
H2645 H 0.50134 0.12092 0.47092 0.0
H2646 H 0.45919 0.0723 0.44784 0.0
H2647 H 0.45017 0.07093 0.51367 0.0
C2648 C 0.49471 0.08038 0.35474 0.0
C2649 C 0.49865 0.09907 0.33717 0.0
C2650 C 0.4889 0.07959 0.39229 0.0
C2651 C 0.4869 0.09747 0.41346 0.0
C2652 C 0.49077 0.11614 0.39582 0.0
C2653 C 0.49657 0.11693 0.35833 0.0
C2654 C 0.48462 0.10944 0.51736 0.0
C2655 C 0.47021 0.09539 0.53053 0.0
C2656 C 0.48997 0.11007 0.47966 0.0
C2657 C 0.48106 0.09671 0.45378 0.0
C2658 C 0.46657 0.0827 0.46687 0.0
C2659 C 0.4612 0.08207 0.50466 0.0
H2660 H 0.15401 0.2787 0.61122 0.0
H2661 H 0.12338 0.22303 0.58148 0.0
H2662 H 0.15405 0.26831 0.67634 0.0
H2663 H 0.12361 0.2126 0.64642 0.0
H2664 H 0.14501 0.19114 0.76125 0.0
H2665 H 0.14565 0.20157 0.69618 0.0
H2666 H 0.1317 0.263 0.72887 0.0
H2667 H 0.13098 0.25257 0.79389 0.0
C2668 C 0.14715 0.26431 0.61846 0.0
C2669 C 0.13871 0.25176 0.5907 0.0
C2670 C 0.14719 0.25832 0.65596 0.0
C2671 C 0.13886 0.23956 0.6669 0.0
C2672 C 0.13049 0.22699 0.63915 0.0
C2673 C 0.13038 0.233 0.60172 0.0
C2674 C 0.14189 0.20685 0.75463 0.0
C2675 C 0.13793 0.22096 0.78314 0.0
C2676 C 0.14228 0.21286 0.71717 0.0
C2677 C 0.13872 0.23318 0.707 0.0
C2678 C 0.13484 0.2473 0.73551 0.0
C2679 C 0.13443 0.24129 0.77295 0.0
H2680 H 0.05283 0.89482 1.01024 0.0
H2681 H 0.99068 0.90735 0.03973 0.0
H2682 H 0.04386 0.89641 0.94448 0.0
H2683 H 0.98161 0.90869 0.97403 0.0
H2684 H 0.97417 0.92568 0.85218 0.0
H2685 H 0.98483 0.92738 0.91717 0.0
H2686 H 0.02597 0.87747 0.89866 0.0
H2687 H 0.01609 0.87646 0.83357 0.0
C2688 C 0.03721 0.8978 1.0027 0.0
C2689 C 0.02248 0.90088 0.03036 0.0
C2690 C 0.03205 0.8987 0.96493 0.0
C2691 C 0.01196 0.90261 0.95372 0.0
C2692 C -0.00271 0.90597 0.98144 0.0
C2693 C 0.00248 0.90515 1.01921 0.0
C2694 C 0.98573 0.91529 0.86183 0.0
C2695 C -0.00585 0.90085 0.83751 0.0
C2696 C 0.99168 0.91609 0.89929 0.0
C2697 C 0.00622 0.90249 0.91343 0.0
C2698 C 0.0149 0.88835 0.88887 0.0
C2699 C 0.009 0.88758 0.8515 0.0
H2700 H 0.31823 0.77934 0.27471 0.0
H2701 H 0.37365 0.74486 0.28324 0.0
H2702 H 0.3156 0.77025 0.20908 0.0
H2703 H 0.37047 0.73495 0.21837 0.0
H2704 H 0.37043 0.73684 0.09204 0.0
H2705 H 0.37319 0.74751 0.15668 0.0
H2706 H 0.30824 0.74214 0.16877 0.0
H2707 H 0.3055 0.73168 0.10378 0.0
C2708 C 0.3299 0.76989 0.26264 0.0
C2709 C 0.34614 0.76284 0.28451 0.0
C2710 C 0.32824 0.76443 0.22503 0.0
C2711 C 0.34277 0.75178 0.20822 0.0
C2712 C 0.35909 0.74489 0.23006 0.0
C2713 C 0.36078 0.75038 0.26756 0.0
C2714 C 0.35674 0.73776 0.10854 0.0
C2715 C 0.33775 0.73328 0.09264 0.0
C2716 C 0.35832 0.74389 0.14573 0.0
C2717 C 0.34096 0.74566 0.16823 0.0
C2718 C 0.32193 0.74127 0.15226 0.0
C2719 C 0.32035 0.7352 0.11496 0.0
H2720 H 0.42727 0.08288 0.90107 0.0
H2721 H 0.47999 0.08325 0.83058 0.0
H2722 H 0.44873 0.08679 0.95577 0.0
H2723 H 0.5018 0.08502 0.88485 0.0
H2724 H 0.53984 0.0938 0.98589 0.0
H2725 H 0.5171 0.09913 0.9335 0.0
H2726 H 0.46866 0.07031 0.99556 0.0
H2727 H 0.49116 0.06709 0.04883 0.0
C2728 C 0.44354 0.08401 0.89743 0.0
C2729 C 0.452 0.08307 0.86172 0.0
C2730 C 0.45599 0.08585 0.92886 0.0
C2731 C 0.47732 0.08587 0.92553 0.0
C2732 C 0.48561 0.0855 0.88929 0.0
C2733 C 0.47309 0.08443 0.85784 0.0
C2734 C 0.52418 0.08899 0.98826 0.0
C2735 C 0.51716 0.08014 1.02127 0.0
C2736 C 0.51109 0.09177 0.95801 0.0
C2737 C 0.49079 0.08497 0.95938 0.0
C2738 C 0.48387 0.07627 0.99301 0.0
C2739 C 0.49681 0.0742 1.02372 0.0
H2740 H 0.66363 0.72735 0.57908 0.0
H2741 H 0.65047 0.67684 0.65098 0.0
H2742 H 0.66408 0.7501 0.63229 0.0
H2743 H 0.64889 0.69964 0.70432 0.0
H2744 H 0.67097 0.73895 0.79899 0.0
H2745 H 0.66792 0.71691 0.74518 0.0
H2746 H 0.65008 0.76849 0.67813 0.0
H2747 H 0.65504 0.79061 0.73169 0.0
C2748 C 0.66004 0.72131 0.60632 0.0
C2749 C 0.65678 0.70046 0.61104 0.0
C2750 C 0.66024 0.73436 0.63707 0.0
C2751 C 0.6567 0.72694 0.67332 0.0
C2752 C 0.65234 0.70606 0.67738 0.0
C2753 C 0.65282 0.69294 0.64672 0.0
C2754 C 0.66647 0.7455 0.77261 0.0
C2755 C 0.66335 0.76646 0.76943 0.0
C2756 C 0.66444 0.73282 0.74161 0.0
C2757 C 0.65854 0.74063 0.70669 0.0
C2758 C 0.65507 0.76171 0.70395 0.0
C2759 C 0.65777 0.77449 0.73477 0.0
H2760 H 0.01731 0.89176 0.33011 0.0
H2761 H 0.0582 0.9268 0.39876 0.0
H2762 H -0.006 0.88843 0.38285 0.0
H2763 H 0.03507 0.92339 0.45117 0.0
H2764 H -0.00327 0.90043 0.54665 0.0
H2765 H 0.02006 0.89762 0.49444 0.0
H2766 H 0.97185 0.91346 0.41863 0.0
H2767 H 0.94835 0.91634 0.47097 0.0
C2768 C 0.02154 0.89836 0.35662 0.0
C2769 C 0.03963 0.90952 0.36025 0.0
C2770 C 0.00809 0.89662 0.38668 0.0
C2771 C 0.01264 0.90571 0.42113 0.0
C2772 C 0.03117 0.91607 0.42513 0.0
C2773 C 0.04442 0.91806 0.39503 0.0
C2774 C 0.99097 0.90313 0.51886 0.0
C2775 C 0.97064 0.90877 0.51313 0.0
C2776 C 0.00441 0.90158 0.48894 0.0
C2777 C -0.00215 0.90541 0.45242 0.0
C2778 C 0.97734 0.91027 0.44642 0.0
C2779 C 0.9639 0.91204 0.47646 0.0
H2780 H 0.8452 0.27316 0.08118 0.0
H2781 H 0.81176 0.31536 0.14932 0.0
H2782 H 0.84749 0.24976 0.13414 0.0
H2783 H 0.81404 0.2922 0.20182 0.0
H2784 H 0.81914 0.20482 0.22222 0.0
H2785 H 0.82243 0.22828 0.16991 0.0
H2786 H 0.83813 0.27653 0.24597 0.0
H2787 H 0.83477 0.25322 0.29822 0.0
C2788 C 0.83875 0.27764 0.10762 0.0
C2789 C 0.82834 0.29614 0.11104 0.0
C2790 C 0.83985 0.26415 0.13783 0.0
C2791 C 0.83086 0.26906 0.17221 0.0
C2792 C 0.82128 0.28797 0.17593 0.0
C2793 C 0.81993 0.30126 0.14573 0.0
C2794 C 0.82337 0.22041 0.22782 0.0
C2795 C 0.82651 0.22712 0.26457 0.0
C2796 C 0.82543 0.23382 0.19776 0.0
C2797 C 0.83051 0.25431 0.20373 0.0
C2798 C 0.83402 0.2609 0.2404 0.0
C2799 C 0.83214 0.24748 0.27038 0.0
H2800 H 0.51071 0.91579 0.84918 0.0
H2801 H 0.51947 0.851 0.85638 0.0
H2802 H 0.49962 0.91639 0.91374 0.0
H2803 H 0.50962 0.8518 0.92144 0.0
H2804 H 0.4717 0.85526 0.02669 0.0
H2805 H 0.48181 0.85521 0.96158 0.0
H2806 H 0.51009 0.91384 0.97638 0.0
H2807 H 0.49953 0.91401 0.04142 0.0
C2808 C 0.51031 0.90163 0.8644 0.0
C2809 C 0.516 0.88333 0.84706 0.0
C2810 C 0.50419 0.90203 0.90182 0.0
C2811 C 0.50363 0.88415 0.92327 0.0
C2812 C 0.50949 0.86588 0.90599 0.0
C2813 C 0.51549 0.86547 0.86856 0.0
C2814 C 0.48016 0.86812 1.01614 0.0
C2815 C 0.48483 0.8846 0.03956 0.0
C2816 C 0.48605 0.86808 0.97865 0.0
C2817 C 0.49695 0.88446 0.96331 0.0
C2818 C 0.50148 0.90104 0.98673 0.0
C2819 C 0.49545 0.90114 1.02421 0.0
H2820 H 0.87854 0.76662 0.60866 0.0
H2821 H 0.81451 0.78029 0.60623 0.0
H2822 H 0.87569 0.75672 0.67366 0.0
H2823 H 0.81166 0.77003 0.67126 0.0
H2824 H 0.81227 0.72869 0.77645 0.0
H2825 H 0.81389 0.7396 0.7115 0.0
H2826 H 0.86942 0.77202 0.73461 0.0
H2827 H 0.86772 0.76139 0.79932 0.0
C2828 C 0.86388 0.76773 0.62201 0.0
C2829 C 0.84678 0.77437 0.60199 0.0
C2830 C 0.86224 0.76198 0.65936 0.0
C2831 C 0.84345 0.76261 0.67779 0.0
C2832 C 0.82631 0.76913 0.65783 0.0
C2833 C 0.82797 0.775 0.62046 0.0
C2834 C 0.8247 0.73834 0.76779 0.0
C2835 C 0.83997 0.74396 0.7932 0.0
C2836 C 0.82563 0.74458 0.73051 0.0
C2837 C 0.84189 0.75655 0.71771 0.0
C2838 C 0.85691 0.76247 0.74328 0.0
C2839 C 0.85594 0.75632 0.78046 0.0
H2840 H 0.03029 0.10377 0.5094 0.0
H2841 H 0.96968 0.08603 0.54096 0.0
H2842 H 0.01987 0.10508 0.44443 0.0
H2843 H 0.95916 0.08744 0.47583 0.0
H2844 H 0.95254 0.07482 0.34999 0.0
H2845 H 0.96274 0.07177 0.41509 0.0
H2846 H -0.00058 0.12578 0.40426 0.0
H2847 H 0.98926 0.12881 0.33942 0.0
C2848 C 0.0147 0.10023 0.50251 0.0
C2849 C 0.00081 0.09494 0.53056 0.0
C2850 C 0.00869 0.10101 0.46518 0.0
C2851 C 0.98859 0.09657 0.45475 0.0
C2852 C 0.97481 0.09078 0.48269 0.0
C2853 C 0.98084 0.08996 0.5201 0.0
C2854 C 0.96263 0.08615 0.36159 0.0
C2855 C 0.97013 0.10201 0.33924 0.0
C2856 C 0.96851 0.08439 0.39898 0.0
C2857 C 0.98204 0.09844 0.41503 0.0
C2858 C 0.98933 0.11441 0.39275 0.0
C2859 C 0.98347 0.11616 0.35546 0.0
H2860 H 0.68096 0.23313 0.09741 0.0
H2861 H 0.616 0.22555 0.1025 0.0
H2862 H 0.68135 0.24325 0.16275 0.0
H2863 H 0.61638 0.23549 0.1677 0.0
H2864 H 0.62045 0.27352 0.27275 0.0
H2865 H 0.62117 0.26416 0.20723 0.0
H2866 H 0.67682 0.23115 0.22526 0.0
H2867 H 0.67618 0.24076 0.29089 0.0
C2868 C 0.66677 0.23343 0.11251 0.0
C2869 C 0.64843 0.22859 0.09445 0.0
C2870 C 0.66699 0.23924 0.15009 0.0
C2871 C 0.64888 0.24033 0.17071 0.0
C2872 C 0.63059 0.23528 0.15268 0.0
C2873 C 0.63037 0.22953 0.11516 0.0
C2874 C 0.63281 0.26419 0.26282 0.0
C2875 C 0.64819 0.25781 0.28728 0.0
C2876 C 0.6332 0.25876 0.22515 0.0
C2877 C 0.64896 0.24671 0.21075 0.0
C2878 C 0.66455 0.24062 0.2351 0.0
C2879 C 0.66419 0.24613 0.27282 0.0
H2880 H 0.09803 0.52133 0.68168 0.0
H2881 H 0.07328 0.57245 0.74105 0.0
H2882 H 0.1056 0.50462 0.74137 0.0
H2883 H 0.08079 0.55606 0.80003 0.0
H2884 H 0.10956 0.52898 0.90179 0.0
H2885 H 0.1085 0.54477 0.84062 0.0
H2886 H 0.08449 0.48946 0.79362 0.0
H2887 H 0.08597 0.47338 0.85503 0.0
C2888 C 0.09477 0.52922 0.70741 0.0
C2889 C 0.08525 0.54827 0.70672 0.0
C2890 C 0.09883 0.51957 0.74157 0.0
C2891 C 0.09375 0.52896 0.77557 0.0
C2892 C 0.08512 0.54843 0.77456 0.0
C2893 C 0.08081 0.55785 0.74068 0.0
C2894 C 0.10434 0.52001 0.8784 0.0
C2895 C 0.09783 0.49986 0.88353 0.0
C2896 C 0.1036 0.52915 0.84329 0.0
C2897 C 0.09638 0.51843 0.81211 0.0
C2898 C 0.09032 0.49811 0.81693 0.0
C2899 C 0.09093 0.48897 0.85224 0.0
H2900 H 0.66232 0.82507 0.99835 0.0
H2901 H 0.71624 0.84825 0.94536 0.0
H2902 H 0.67831 0.82869 0.05894 0.0
H2903 H 0.7326 0.85149 1.00633 0.0
H2904 H 0.75061 0.86607 0.12864 0.0
H2905 H 0.73409 0.86738 0.06774 0.0
H2906 H 0.70427 0.81042 0.09103 0.0
H2907 H 0.72064 0.80916 0.15161 0.0
C2908 C 0.67749 0.83137 0.99972 0.0
C2909 C 0.68797 0.83641 0.96696 0.0
C2910 C 0.68679 0.83319 0.03451 0.0
C2911 C 0.70696 0.83993 0.03765 0.0
C2912 C 0.71704 0.84627 1.00507 0.0
C2913 C 0.70762 0.84456 0.97007 0.0
C2914 C 0.74067 0.85373 0.12061 0.0
C2915 C 0.73688 0.83757 0.14531 0.0
C2916 C 0.73115 0.85451 0.08565 0.0
C2917 C 0.71758 0.83917 0.07449 0.0
C2918 C 0.71416 0.82282 0.09893 0.0
C2919 C 0.72363 0.82206 0.13377 0.0
H2920 H 0.37602 0.45715 0.40728 0.0
H2921 H 0.39675 0.51389 0.36084 0.0
H2922 H 0.37755 0.44156 0.34596 0.0
H2923 H 0.39877 0.49802 0.29928 0.0
H2924 H 0.38608 0.46586 0.18688 0.0
H2925 H 0.37847 0.48225 0.2469 0.0
H2926 H 0.40495 0.43134 0.30459 0.0
H2927 H 0.41243 0.41525 0.24537 0.0
C2928 C 0.38074 0.46641 0.38396 0.0
C2929 C 0.38627 0.48684 0.38927 0.0
C2930 C 0.38177 0.45738 0.34872 0.0
C2931 C 0.38831 0.46848 0.31752 0.0
C2932 C 0.39346 0.48905 0.32255 0.0
C2933 C 0.39256 0.49808 0.35798 0.0
C2934 C 0.38972 0.45801 0.21248 0.0
C2935 C 0.39967 0.43918 0.21139 0.0
C2936 C 0.38564 0.46749 0.24684 0.0
C2937 C 0.39114 0.45816 0.28071 0.0
C2938 C 0.40027 0.43893 0.2793 0.0
C2939 C 0.40457 0.42967 0.24523 0.0
H2940 H 0.82343 0.16321 0.48959 0.0
H2941 H 0.76973 0.14228 0.43262 0.0
H2942 H 0.80743 0.15665 0.54928 0.0
H2943 H 0.75362 0.13532 0.49278 0.0
H2944 H 0.72422 0.15695 0.60476 0.0
H2945 H 0.74024 0.15671 0.5436 0.0
H2946 H 0.79446 0.13121 0.59186 0.0
H2947 H 0.77845 0.1313 0.6529 0.0
C2948 C 0.80834 0.15672 0.48986 0.0
C2949 C 0.79786 0.15328 0.45638 0.0
C2950 C 0.79916 0.15288 0.52415 0.0
C2951 C 0.77914 0.14559 0.52596 0.0
C2952 C 0.76897 0.14116 0.4924 0.0
C2953 C 0.77829 0.14486 0.45792 0.0
C2954 C 0.73946 0.15102 0.60231 0.0
C2955 C 0.75007 0.14434 0.63402 0.0
C2956 C 0.74864 0.15083 0.56714 0.0
C2957 C 0.76869 0.14398 0.56272 0.0
C2958 C 0.77912 0.13687 0.59427 0.0
C2959 C 0.76994 0.13702 0.62937 0.0
H2960 H 0.88134 0.46525 0.68389 0.0
H2961 H 0.90563 0.41214 0.63012 0.0
H2962 H 0.87706 0.48152 0.62293 0.0
H2963 H 0.90089 0.42789 0.56959 0.0
H2964 H 0.91936 0.47054 0.47715 0.0
H2965 H 0.91849 0.45421 0.53769 0.0
H2966 H 0.86114 0.4829 0.56137 0.0
H2967 H 0.86209 0.49944 0.50043 0.0
C2968 C 0.88495 0.45675 0.65897 0.0
C2969 C 0.8937 0.43739 0.66173 0.0
C2970 C 0.88268 0.46611 0.62401 0.0
C2971 C 0.88907 0.45623 0.59122 0.0
C2972 C 0.89633 0.43624 0.59414 0.0
C2973 C 0.89876 0.42705 0.62885 0.0
C2974 C 0.90646 0.47328 0.49504 0.0
C2975 C 0.89072 0.48621 0.48357 0.0
C2976 C 0.90591 0.46384 0.52988 0.0
C2977 C 0.88956 0.46691 0.55442 0.0
C2978 C 0.874 0.4802 0.54336 0.0
C2979 C 0.87457 0.48972 0.50838 0.0
H2980 H 0.27382 0.16864 0.22367 0.0
H2981 H 0.23497 0.11868 0.25469 0.0
H2982 H 0.29062 0.16677 0.28377 0.0
H2983 H 0.25192 0.11672 0.3151 0.0
H2984 H 0.27339 0.13752 0.43465 0.0
H2985 H 0.25667 0.1338 0.37415 0.0
H2986 H 0.31342 0.14672 0.31915 0.0
H2987 H 0.32979 0.15099 0.37939 0.0
C2988 C 0.26897 0.15708 0.24313 0.0
C2989 C 0.25303 0.14376 0.23394 0.0
C2990 C 0.27869 0.15594 0.27776 0.0
C2991 C 0.2729 0.14139 0.30446 0.0
C2992 C 0.25678 0.12821 0.29552 0.0
C2993 C 0.247 0.12937 0.26078 0.0
C2994 C 0.28243 0.13878 0.40962 0.0
C2995 C 0.30297 0.14442 0.4119 0.0
C2996 C 0.2728 0.13684 0.3748 0.0
C2997 C 0.28352 0.14043 0.34147 0.0
C2998 C 0.30446 0.14443 0.34401 0.0
C2999 C 0.31397 0.14652 0.37864 0.0
H3000 H 0.60852 0.5336 0.96885 0.0
H3001 H 0.58627 0.47802 1.01764 0.0
H3002 H 0.60903 0.54947 0.02999 0.0
H3003 H 0.58627 0.4942 0.079 0.0
H3004 H 0.60196 0.52542 0.18979 0.0
H3005 H 0.60822 0.50898 0.12941 0.0
H3006 H 0.5832 0.56116 0.07329 0.0
H3007 H 0.57707 0.57733 0.13304 0.0
C3008 C 0.60391 0.52465 0.99265 0.0
C3009 C 0.59735 0.50446 0.9881 0.0
C3010 C 0.60405 0.53385 0.02778 0.0
C3011 C 0.59768 0.52317 0.05956 0.0
C3012 C 0.59149 0.50284 0.05525 0.0
C3013 C 0.59124 0.49364 1.01995 0.0
C3014 C 0.59848 0.53359 0.16444 0.0
C3015 C 0.5893 0.55278 0.16613 0.0
C3016 C 0.60174 0.52406 0.12989 0.0
C3017 C 0.59613 0.53369 0.09638 0.0
C3018 C 0.58793 0.55334 0.09831 0.0
C3019 C 0.58445 0.56266 0.13264 0.0
H3020 H 0.16036 0.82452 0.88455 0.0
H3021 H 0.21697 0.83629 0.9409 0.0
H3022 H 0.17692 0.82903 0.82471 0.0
H3023 H 0.23378 0.84056 0.88056 0.0
H3024 H 0.25383 0.85831 0.76042 0.0
H3025 H 0.23723 0.85956 0.82126 0.0
H3026 H 0.20049 0.8079 0.7906 0.0
H3027 H 0.21656 0.80702 0.72977 0.0
C3028 C 0.17629 0.82855 0.88417 0.0
C3029 C 0.18734 0.82999 0.91756 0.0
C3030 C 0.18586 0.83089 0.84978 0.0
C3031 C 0.20682 0.83464 0.84767 0.0
C3032 C 0.21762 0.83764 0.88111 0.0
C3033 C 0.20796 0.83535 0.91574 0.0
C3034 C 0.24213 0.84729 0.76661 0.0
C3035 C 0.23654 0.83258 0.74 0.0
C3036 C 0.23272 0.84792 0.80164 0.0
C3037 C 0.21734 0.83399 0.81081 0.0
C3038 C 0.21199 0.81914 0.78436 0.0
C3039 C 0.22144 0.81844 0.74954 0.0
H3040 H 0.61054 0.01926 0.40646 0.0
H3041 H 0.57514 0.97009 0.36048 0.0
H3042 H 0.61227 0.03505 0.34537 0.0
H3043 H 0.57637 0.98631 0.29931 0.0
H3044 H 0.59379 0.0137 0.18666 0.0
H3045 H 0.59835 -0.00391 0.24626 0.0
H3046 H 0.58909 0.0526 0.30453 0.0
H3047 H 0.58472 0.07 0.24548 0.0
C3048 C 0.60327 0.01166 0.38329 0.0
C3049 C 0.59269 0.99331 0.38871 0.0
C3050 C 0.60411 0.02087 0.34817 0.0
C3051 C 0.59443 0.01205 0.31719 0.0
C3052 C 0.58419 0.99348 0.32234 0.0
C3053 C 0.58327 0.98429 0.35761 0.0
C3054 C 0.59339 0.02243 0.21218 0.0
C3055 C 0.58908 0.04332 0.2112 0.0
C3056 C 0.59568 0.01229 0.24641 0.0
C3057 C 0.59395 0.02285 0.28042 0.0
C3058 C 0.59073 0.04392 0.27913 0.0
C3059 C 0.58824 0.05396 0.24512 0.0
H3060 H 0.21276 0.35648 0.4416 0.0
H3061 H 0.16228 0.32782 0.49699 0.0
H3062 H 0.22957 0.36131 0.50185 0.0
H3063 H 0.17867 0.33297 0.5568 0.0
H3064 H 0.22277 0.32011 0.65029 0.0
H3065 H 0.20623 0.31852 0.5899 0.0
H3066 H 0.23039 0.37753 0.56226 0.0
H3067 H 0.24777 0.37873 0.62224 0.0
C3068 C 0.20498 0.35175 0.46667 0.0
C3069 C 0.18618 0.34172 0.46435 0.0
C3070 C 0.21466 0.35442 0.50129 0.0
C3071 C 0.20572 0.34716 0.5344 0.0
C3072 C 0.18636 0.33825 0.53203 0.0
C3073 C 0.17681 0.33551 0.49762 0.0
C3074 C 0.22484 0.33267 0.63126 0.0
C3075 C 0.23667 0.34956 0.64152 0.0
C3076 C 0.21505 0.3319 0.59664 0.0
C3077 C 0.21668 0.34802 0.57106 0.0
C3078 C 0.22877 0.36479 0.58101 0.0
C3079 C 0.23859 0.36556 0.61572 0.0
H3080 H 0.9296 0.98811 0.88929 0.0
H3081 H 0.8663 0.00193 0.87252 0.0
H3082 H 0.93146 0.97426 0.82676 0.0
H3083 H 0.86819 0.98813 0.80941 0.0
H3084 H 0.87725 0.94092 0.71147 0.0
H3085 H 0.87221 0.95717 0.77251 0.0
H3086 H 0.93144 0.98487 0.76389 0.0
H3087 H 0.93653 0.9683 0.70437 0.0
C3088 C 0.91611 0.98847 0.8721 0.0
C3089 C 0.89785 -0.00366 0.8861 0.0
C3090 C 0.91716 0.9805 0.83604 0.0
C3091 C 0.90001 0.98022 0.81258 0.0
C3092 C 0.88166 0.98791 0.82663 0.0
C3093 C 0.8806 -0.00413 0.86288 0.0
C3094 C 0.88892 0.95083 0.72246 0.0
C3095 C 0.90731 0.95325 0.70331 0.0
C3096 C 0.88611 0.9601 0.75747 0.0
C3097 C 0.90162 0.97201 0.77373 0.0
C3098 C 0.9194 0.97534 0.75308 0.0
C3099 C 0.92224 0.966 0.71864 0.0
H3100 H 0.26085 0.65794 0.14562 0.0
H3101 H 0.2368 0.59858 0.12007 0.0
H3102 H 0.27733 0.65899 0.08522 0.0
H3103 H 0.25401 0.59933 0.05982 0.0
H3104 H 0.27115 0.62124 0.93782 0.0
H3105 H 0.25455 0.6156 0.99817 0.0
H3106 H 0.30538 0.64386 0.0537 0.0
H3107 H 0.32149 0.64977 0.99386 0.0
C3108 C 0.25895 0.64512 0.12711 0.0
C3109 C 0.24742 0.62817 0.1381 0.0
C3110 C 0.2687 0.64558 0.09248 0.0
C3111 C 0.26732 0.62911 0.06755 0.0
C3112 C 0.25546 0.61231 0.07812 0.0
C3113 C 0.24572 0.61181 0.11293 0.0
C3114 C 0.27903 0.62555 0.96308 0.0
C3115 C 0.2977 0.63581 0.96106 0.0
C3116 C 0.26945 0.62251 0.99772 0.0
C3117 C 0.27837 0.6297 0.03098 0.0
C3118 C 0.29772 0.63862 0.02881 0.0
C3119 C 0.30715 0.64173 0.99445 0.0
H3120 H 0.39536 0.91112 0.13809 0.0
H3121 H 0.38853 0.96823 0.19514 0.0
H3122 H 0.39072 0.928 0.07854 0.0
H3123 H 0.38437 0.98546 0.13509 0.0
H3124 H 0.36697 0.00767 1.01587 0.0
H3125 H 0.36567 0.99136 0.07703 0.0
H3126 H 0.41215 0.94944 0.04228 0.0
H3127 H 0.41344 0.9656 0.98166 0.0
C3128 C 0.39231 0.92727 0.13792 0.0
C3129 C 0.3922 0.93829 0.17142 0.0
C3130 C 0.38998 0.93705 0.10366 0.0
C3131 C 0.38772 0.95824 0.10169 0.0
C3132 C 0.38608 0.96913 0.13538 0.0
C3133 C 0.38829 0.95924 0.16991 0.0
C3134 C 0.37704 -0.00493 1.02139 0.0
C3135 C 0.39018 0.98788 0.99342 0.0
C3136 C 0.37624 0.98567 0.05653 0.0
C3137 C 0.38854 0.96879 0.06465 0.0
C3138 C 0.40198 0.96197 0.03691 0.0
C3139 C 0.40277 0.97132 1.00197 0.0
H3140 H 0.80663 0.62433 0.91467 0.0
H3141 H 0.76784 0.67609 0.93107 0.0
H3142 H 0.79086 0.61842 0.85345 0.0
H3143 H 0.75174 0.67001 0.87125 0.0
H3144 H 0.74661 0.67266 0.74638 0.0
H3145 H 0.76098 0.67482 0.80842 0.0
H3146 H 0.76114 0.60946 0.81625 0.0
H3147 H 0.74757 0.60726 0.75303 0.0
C3148 C 0.79433 0.63403 0.90568 0.0
C3149 C 0.78845 0.65066 0.92757 0.0
C3150 C 0.78532 0.63074 0.87054 0.0
C3151 C 0.77026 0.64401 0.8568 0.0
C3152 C 0.76366 0.65982 0.88011 0.0
C3153 C 0.77271 0.66316 0.91472 0.0
C3154 C 0.74989 0.65869 0.76097 0.0
C3155 C 0.74584 0.63979 0.7443 0.0
C3156 C 0.75791 0.65992 0.79701 0.0
C3157 C 0.76207 0.6423 0.81787 0.0
C3158 C 0.75822 0.62336 0.80117 0.0
C3159 C 0.75019 0.62212 0.76495 0.0
H3160 H 0.12273 0.02246 0.47873 0.0
H3161 H 0.08264 0.97353 0.51023 0.0
H3162 H 0.12033 0.0365 0.5415 0.0
H3163 H 0.08012 0.98771 0.57265 0.0
H3164 H 0.05621 0.03542 0.65422 0.0
H3165 H 0.06373 0.01803 0.59683 0.0
H3166 H 0.12733 0.03171 0.61072 0.0
H3167 H 0.11962 0.04953 0.66954 0.0
C3168 C 0.11365 0.01448 0.49909 0.0
C3169 C 0.10268 -0.00309 0.48897 0.0
C3170 C 0.11232 0.02256 0.5352 0.0
C3171 C 0.09992 0.01336 0.56218 0.0
C3172 C 0.08956 -0.00459 0.55246 0.0
C3173 C 0.09092 0.98732 0.51648 0.0
C3174 C 0.0719 0.03471 0.64543 0.0
C3175 C 0.08731 0.04406 0.66654 0.0
C3176 C 0.07622 0.0245 0.61244 0.0
C3177 C 0.09614 0.02334 0.59899 0.0
C3178 C 0.11178 0.0324 0.62023 0.0
C3179 C 0.10743 0.04248 0.65399 0.0
H3180 H 0.66579 0.33022 0.38294 0.0
H3181 H 0.71147 0.36636 0.43793 0.0
H3182 H 0.6814 0.33704 0.32319 0.0
H3183 H 0.72722 0.37351 0.37729 0.0
H3184 H 0.76301 0.35488 0.26882 0.0
H3185 H 0.74655 0.35438 0.32971 0.0
H3186 H 0.68836 0.3623 0.2767 0.0
H3187 H 0.70472 0.36286 0.21607 0.0
C3188 C 0.67895 0.34008 0.38215 0.0
C3189 C 0.68729 0.34785 0.41529 0.0
C3190 C 0.68792 0.34404 0.34771 0.0
C3191 C 0.70566 0.3558 0.34517 0.0
C3192 C 0.71367 0.36424 0.37819 0.0
C3193 C 0.70449 0.36041 0.4129 0.0
C3194 C 0.74673 0.35678 0.27013 0.0
C3195 C 0.73523 0.35863 0.23723 0.0
C3196 C 0.73727 0.35656 0.30517 0.0
C3197 C 0.71606 0.35817 0.30831 0.0
C3198 C 0.70467 0.36064 0.27547 0.0
C3199 C 0.71409 0.36087 0.24055 0.0
loop_
_geom_bond_atom_site_label_1
_geom_bond_atom_site_label_2
_geom_bond_distance
_geom_bond_site_symmetry_2
_ccdc_geom_bond_type
Nd0 C2 2.836 . S
Nd0 O20 2.500 . S
Nd0 O21 2.492 . S
Nd0 O22 2.487 . S
Nd0 O23 2.682 . S
Nd0 O24 2.410 . S
Nd0 O29 2.414 . S
Nd0 O31 2.424 . S
Nd1 C11 2.836 . S
Nd1 O23 2.414 . S
Nd1 O25 2.424 . S
Nd1 O26 2.500 . S
Nd1 O27 2.492 . S
Nd1 O28 2.487 . S
Nd1 O29 2.682 . S
Nd1 O30 2.410 . S
C2 Nd0 2.836 . S
C2 C3 1.498 1_554 S
C2 O20 1.258 . S
C2 O21 1.239 . S
C3 C2 1.498 1_556 S
C3 C4 1.366 . S
C3 C8 1.407 . S
C4 C3 1.366 . S
C4 C5 1.392 . S
C4 H32 0.930 . S
C5 C4 1.392 . S
C5 C6 1.398 . S
C5 H33 0.929 . S
C6 C5 1.398 . S
C6 C7 1.352 . S
C7 C6 1.352 . S
C7 C8 1.384 . S
C7 H34 0.930 . S
C8 C3 1.407 . S
C8 C7 1.384 . S
C8 H35 0.929 . S
C9 O22 1.241 . S
C9 O23 1.273 . S
C10 O24 1.251 . S
C10 O25 1.268 . S
C11 Nd1 2.836 . S
C11 C12 1.498 . S
C11 O26 1.258 . S
C11 O27 1.239 . S
C12 C11 1.498 . S
C12 C13 1.366 . S
C12 C17 1.407 . S
C13 C12 1.366 . S
C13 C14 1.392 . S
C13 H36 0.930 . S
C14 C13 1.392 . S
C14 C15 1.398 . S
C14 H37 0.929 . S
C15 C14 1.398 . S
C15 C16 1.352 1_455 S
C16 C15 1.352 1_655 S
C16 C17 1.384 1_655 S
C16 H38 0.930 . S
C17 C12 1.407 . S
C17 C16 1.384 1_455 S
C17 H39 0.929 1_455 S
C18 O28 1.241 . S
C18 O29 1.273 . S
C19 O30 1.251 . S
C19 O31 1.268 . S
O20 Nd0 2.500 . S
O20 C2 1.258 . S
O21 Nd0 2.492 . S
O21 C2 1.239 . S
O22 Nd0 2.487 . S
O22 C9 1.241 . S
O23 Nd0 2.682 . S
O23 Nd1 2.414 . S
O23 C9 1.273 . S
O24 Nd0 2.410 . S
O24 C10 1.251 . S
O25 Nd1 2.424 . S
O25 C10 1.268 . S
O26 Nd1 2.500 . S
O26 C11 1.258 . S
O27 Nd1 2.492 . S
O27 C11 1.239 . S
O28 Nd1 2.487 . S
O28 C18 1.241 . S
O29 Nd0 2.414 . S
O29 Nd1 2.682 . S
O29 C18 1.273 . S
O30 Nd1 2.410 . S
O30 C19 1.251 . S
O31 Nd0 2.424 . S
O31 C19 1.268 . S
H32 C4 0.930 . S
H33 C5 0.929 . S
H34 C7 0.930 . S
H35 C8 0.929 . S
H36 C13 0.930 . S
H37 C14 0.929 . S
H38 C16 0.930 . S
H39 C17 0.929 1_655 S
Nd40 C42 2.836 . S
Nd40 O60 2.500 . S
Nd40 O61 2.492 . S
Nd40 O62 2.487 . S
Nd40 O63 2.682 . S
Nd40 O64 2.410 . S
Nd40 O69 2.414 . S
Nd40 O71 2.424 . S
Nd41 C51 2.836 . S
Nd41 O63 2.414 . S
Nd41 O65 2.424 . S
Nd41 O66 2.500 . S
Nd41 O67 2.492 . S
Nd41 O68 2.487 . S
Nd41 O69 2.682 . S
Nd41 O70 2.410 . S
C42 Nd40 2.836 . S
C42 C43 1.498 . S
C42 O60 1.258 . S
C42 O61 1.239 . S
C43 C42 1.498 . S
C43 C44 1.366 . S
C43 C48 1.407 . S
C44 C43 1.366 . S
C44 C45 1.392 . S
C44 H72 0.930 . S
C45 C44 1.392 . S
C45 C46 1.398 . S
C45 H73 0.929 . S
C46 C45 1.398 . S
C46 C47 1.352 . S
C47 C46 1.352 . S
C47 C48 1.384 . S
C47 H74 0.930 . S
C48 C43 1.407 . S
C48 C47 1.384 . S
C48 H75 0.929 . S
C49 O62 1.241 . S
C49 O63 1.273 . S
C50 O64 1.251 . S
C50 O65 1.268 . S
C51 Nd41 2.836 . S
C51 C52 1.498 . S
C51 O66 1.258 . S
C51 O67 1.239 . S
C52 C51 1.498 . S
C52 C53 1.366 . S
C52 C57 1.407 . S
C53 C52 1.366 . S
C53 C54 1.392 . S
C53 H76 0.930 . S
C54 C53 1.392 . S
C54 C55 1.398 . S
C54 H77 0.929 . S
C55 C54 1.398 . S
C55 C56 1.352 . S
C56 C55 1.352 . S
C56 C57 1.384 . S
C56 H78 0.930 . S
C57 C52 1.407 . S
C57 C56 1.384 . S
C57 H79 0.929 . S
C58 O68 1.241 . S
C58 O69 1.273 . S
C59 O70 1.251 . S
C59 O71 1.268 . S
O60 Nd40 2.500 . S
O60 C42 1.258 . S
O61 Nd40 2.492 . S
O61 C42 1.239 . S
O62 Nd40 2.487 . S
O62 C49 1.241 . S
O63 Nd40 2.682 . S
O63 Nd41 2.414 . S
O63 C49 1.273 . S
O64 Nd40 2.410 . S
O64 C50 1.251 . S
O65 Nd41 2.424 . S
O65 C50 1.268 . S
O66 Nd41 2.500 . S
O66 C51 1.258 . S
O67 Nd41 2.492 . S
O67 C51 1.239 . S
O68 Nd41 2.487 . S
O68 C58 1.241 . S
O69 Nd40 2.414 . S
O69 Nd41 2.682 . S
O69 C58 1.273 . S
O70 Nd41 2.410 . S
O70 C59 1.251 . S
O71 Nd40 2.424 . S
O71 C59 1.268 . S
H72 C44 0.930 . S
H73 C45 0.929 . S
H74 C47 0.930 . S
H75 C48 0.929 . S
H76 C53 0.930 . S
H77 C54 0.929 . S
H78 C56 0.930 . S
H79 C57 0.929 . S
Nd80 C82 2.836 . S
Nd80 O100 2.500 . S
Nd80 O101 2.492 . S
Nd80 O102 2.487 . S
Nd80 O103 2.682 . S
Nd80 O104 2.410 . S
Nd80 O109 2.414 . S
Nd80 O111 2.424 . S
Nd81 C91 2.836 . S
Nd81 O103 2.414 . S
Nd81 O105 2.424 . S
Nd81 O106 2.500 . S
Nd81 O107 2.492 . S
Nd81 O108 2.487 . S
Nd81 O109 2.682 . S
Nd81 O110 2.410 . S
C82 Nd80 2.836 . S
C82 C83 1.498 . S
C82 O100 1.258 . S
C82 O101 1.239 . S
C83 C82 1.498 . S
C83 C84 1.366 . S
C83 C88 1.407 . S
C84 C83 1.366 . S
C84 C85 1.392 . S
C84 H112 0.930 . S
C85 C84 1.392 . S
C85 C86 1.398 . S
C85 H113 0.929 . S
C86 C85 1.398 . S
C86 C87 1.352 . S
C87 C86 1.352 . S
C87 C88 1.384 . S
C87 H114 0.930 . S
C88 C83 1.407 . S
C88 C87 1.384 . S
C88 H115 0.929 . S
C89 O102 1.241 . S
C89 O103 1.273 . S
C90 O104 1.251 . S
C90 O105 1.268 . S
C91 Nd81 2.836 . S
C91 C92 1.498 . S
C91 O106 1.258 . S
C91 O107 1.239 . S
C92 C91 1.498 . S
C92 C93 1.366 . S
C92 C97 1.407 . S
C93 C92 1.366 . S
C93 C94 1.392 . S
C93 H116 0.930 . S
C94 C93 1.392 . S
C94 C95 1.398 . S
C94 H117 0.929 . S
C95 C94 1.398 . S
C95 C96 1.352 . S
C96 C95 1.352 . S
C96 C97 1.384 . S
C96 H118 0.930 . S
C97 C92 1.407 . S
C97 C96 1.384 . S
C97 H119 0.929 . S
C98 O108 1.241 . S
C98 O109 1.273 . S
C99 O110 1.251 . S
C99 O111 1.268 . S
O100 Nd80 2.500 . S
O100 C82 1.258 . S
O101 Nd80 2.492 . S
O101 C82 1.239 . S
O102 Nd80 2.487 . S
O102 C89 1.241 . S
O103 Nd80 2.682 . S
O103 Nd81 2.414 . S
O103 C89 1.273 . S
O104 Nd80 2.410 . S
O104 C90 1.251 . S
O105 Nd81 2.424 . S
O105 C90 1.268 . S
O106 Nd81 2.500 . S
O106 C91 1.258 . S
O107 Nd81 2.492 . S
O107 C91 1.239 . S
O108 Nd81 2.487 . S
O108 C98 1.241 . S
O109 Nd80 2.414 . S
O109 Nd81 2.682 . S
O109 C98 1.273 . S
O110 Nd81 2.410 . S
O110 C99 1.251 . S
O111 Nd80 2.424 . S
O111 C99 1.268 . S
H112 C84 0.930 . S
H113 C85 0.929 . S
H114 C87 0.930 . S
H115 C88 0.929 . S
H116 C93 0.930 . S
H117 C94 0.929 . S
H118 C96 0.930 . S
H119 C97 0.929 . S
Nd120 C122 2.836 . S
Nd120 O140 2.500 . S
Nd120 O141 2.492 . S
Nd120 O142 2.487 . S
Nd120 O143 2.682 . S
Nd120 O144 2.410 . S
Nd120 O149 2.414 . S
Nd120 O151 2.424 . S
Nd121 C131 2.836 . S
Nd121 O143 2.414 . S
Nd121 O145 2.424 . S
Nd121 O146 2.500 . S
Nd121 O147 2.492 . S
Nd121 O148 2.487 . S
Nd121 O149 2.682 . S
Nd121 O150 2.410 . S
C122 Nd120 2.836 . S
C122 C123 1.498 . S
C122 O140 1.258 . S
C122 O141 1.239 . S
C123 C122 1.498 . S
C123 C124 1.366 . S
C123 C128 1.407 . S
C124 C123 1.366 . S
C124 C125 1.392 . S
C124 H152 0.930 . S
C125 C124 1.392 . S
C125 C126 1.398 . S
C125 H153 0.929 . S
C126 C125 1.398 . S
C126 C127 1.352 . S
C127 C126 1.352 . S
C127 C128 1.384 . S
C127 H154 0.930 . S
C128 C123 1.407 . S
C128 C127 1.384 . S
C128 H155 0.929 . S
C129 O142 1.241 . S
C129 O143 1.273 . S
C130 O144 1.251 . S
C130 O145 1.268 . S
C131 Nd121 2.836 . S
C131 C132 1.498 1_556 S
C131 O146 1.258 . S
C131 O147 1.239 . S
C132 C131 1.498 1_554 S
C132 C133 1.366 . S
C132 C137 1.407 . S
C133 C132 1.366 . S
C133 C134 1.392 . S
C133 H156 0.930 . S
C134 C133 1.392 . S
C134 C135 1.398 . S
C134 H157 0.929 . S
C135 C134 1.398 . S
C135 C136 1.352 . S
C136 C135 1.352 . S
C136 C137 1.384 . S
C136 H158 0.930 . S
C137 C132 1.407 . S
C137 C136 1.384 . S
C137 H159 0.929 . S
C138 O148 1.241 . S
C138 O149 1.273 . S
C139 O150 1.251 . S
C139 O151 1.268 . S
O140 Nd120 2.500 . S
O140 C122 1.258 . S
O141 Nd120 2.492 . S
O141 C122 1.239 . S
O142 Nd120 2.487 . S
O142 C129 1.241 . S
O143 Nd120 2.682 . S
O143 Nd121 2.414 . S
O143 C129 1.273 . S
O144 Nd120 2.410 . S
O144 C130 1.251 . S
O145 Nd121 2.424 . S
O145 C130 1.268 . S
O146 Nd121 2.500 . S
O146 C131 1.258 . S
O147 Nd121 2.492 . S
O147 C131 1.239 . S
O148 Nd121 2.487 . S
O148 C138 1.241 . S
O149 Nd120 2.414 . S
O149 Nd121 2.682 . S
O149 C138 1.273 . S
O150 Nd121 2.410 . S
O150 C139 1.251 . S
O151 Nd120 2.424 . S
O151 C139 1.268 . S
H152 C124 0.930 . S
H153 C125 0.929 . S
H154 C127 0.930 . S
H155 C128 0.929 . S
H156 C133 0.930 . S
H157 C134 0.929 . S
H158 C136 0.930 . S
H159 C137 0.929 . S
Nd160 C162 2.836 . S
Nd160 O180 2.500 . S
Nd160 O181 2.492 . S
Nd160 O182 2.487 . S
Nd160 O183 2.682 . S
Nd160 O184 2.410 . S
Nd160 O189 2.414 . S
Nd160 O191 2.424 . S
Nd161 C171 2.836 . S
Nd161 O183 2.414 . S
Nd161 O185 2.424 . S
Nd161 O186 2.500 . S
Nd161 O187 2.492 . S
Nd161 O188 2.487 . S
Nd161 O189 2.682 . S
Nd161 O190 2.410 . S
C162 Nd160 2.836 . S
C162 C163 1.498 . S
C162 O180 1.258 . S
C162 O181 1.239 . S
C163 C162 1.498 . S
C163 C164 1.366 . S
C163 C168 1.407 . S
C164 C163 1.366 . S
C164 C165 1.392 . S
C164 H192 0.930 . S
C165 C164 1.392 . S
C165 C166 1.398 . S
C165 H193 0.929 . S
C166 C165 1.398 . S
C166 C167 1.352 . S
C167 C166 1.352 . S
C167 C168 1.384 . S
C167 H194 0.930 . S
C168 C163 1.407 . S
C168 C167 1.384 . S
C168 H195 0.929 . S
C169 O182 1.241 . S
C169 O183 1.273 . S
C170 O184 1.251 . S
C170 O185 1.268 . S
C171 Nd161 2.836 . S
C171 C172 1.498 . S
C171 O186 1.258 . S
C171 O187 1.239 . S
C172 C171 1.498 . S
C172 C173 1.366 . S
C172 C177 1.407 . S
C173 C172 1.366 . S
C173 C174 1.392 . S
C173 H196 0.930 . S
C174 C173 1.392 . S
C174 C175 1.398 . S
C174 H197 0.929 . S
C175 C174 1.398 . S
C175 C176 1.352 . S
C176 C175 1.352 . S
C176 C177 1.384 . S
C176 H198 0.930 . S
C177 C172 1.407 . S
C177 C176 1.384 . S
C177 H199 0.929 . S
C178 O188 1.241 . S
C178 O189 1.273 . S
C179 O190 1.251 . S
C179 O191 1.268 . S
O180 Nd160 2.500 . S
O180 C162 1.258 . S
O181 Nd160 2.492 . S
O181 C162 1.239 . S
O182 Nd160 2.487 . S
O182 C169 1.241 . S
O183 Nd160 2.682 . S
O183 Nd161 2.414 . S
O183 C169 1.273 . S
O184 Nd160 2.410 . S
O184 C170 1.251 . S
O185 Nd161 2.424 . S
O185 C170 1.268 . S
O186 Nd161 2.500 . S
O186 C171 1.258 . S
O187 Nd161 2.492 . S
O187 C171 1.239 . S
O188 Nd161 2.487 . S
O188 C178 1.241 . S
O189 Nd160 2.414 . S
O189 Nd161 2.682 . S
O189 C178 1.273 . S
O190 Nd161 2.410 . S
O190 C179 1.251 . S
O191 Nd160 2.424 . S
O191 C179 1.268 . S
H192 C164 0.930 . S
H193 C165 0.929 . S
H194 C167 0.930 . S
H195 C168 0.929 . S
H196 C173 0.930 . S
H197 C174 0.929 . S
H198 C176 0.930 . S
H199 C177 0.929 . S
Nd200 C202 2.836 . S
Nd200 O220 2.500 . S
Nd200 O221 2.492 . S
Nd200 O222 2.487 . S
Nd200 O223 2.682 . S
Nd200 O224 2.410 . S
Nd200 O229 2.414 . S
Nd200 O231 2.424 . S
Nd201 C211 2.836 . S
Nd201 O223 2.414 . S
Nd201 O225 2.424 . S
Nd201 O226 2.500 . S
Nd201 O227 2.492 . S
Nd201 O228 2.487 . S
Nd201 O229 2.682 . S
Nd201 O230 2.410 . S
C202 Nd200 2.836 . S
C202 C203 1.498 . S
C202 O220 1.258 . S
C202 O221 1.239 . S
C203 C202 1.498 . S
C203 C204 1.366 . S
C203 C208 1.407 . S
C204 C203 1.366 . S
C204 C205 1.392 . S
C204 H232 0.930 . S
C205 C204 1.392 . S
C205 C206 1.398 . S
C205 H233 0.929 . S
C206 C205 1.398 . S
C206 C207 1.352 . S
C207 C206 1.352 . S
C207 C208 1.384 . S
C207 H234 0.930 . S
C208 C203 1.407 . S
C208 C207 1.384 . S
C208 H235 0.929 . S
C209 O222 1.241 . S
C209 O223 1.273 . S
C210 O224 1.251 . S
C210 O225 1.268 . S
C211 Nd201 2.836 . S
C211 C212 1.498 . S
C211 O226 1.258 . S
C211 O227 1.239 . S
C212 C211 1.498 . S
C212 C213 1.366 . S
C212 C217 1.407 . S
C213 C212 1.366 . S
C213 C214 1.392 1_556 S
C213 H236 0.930 . S
C214 C213 1.392 1_554 S
C214 C215 1.398 . S
C214 H237 0.929 . S
C215 C214 1.398 . S
C215 C216 1.352 . S
C216 C215 1.352 . S
C216 C217 1.384 1_554 S
C216 H238 0.930 . S
C217 C212 1.407 . S
C217 C216 1.384 1_556 S
C217 H239 0.929 . S
C218 O228 1.241 . S
C218 O229 1.273 . S
C219 O230 1.251 . S
C219 O231 1.268 . S
O220 Nd200 2.500 . S
O220 C202 1.258 . S
O221 Nd200 2.492 . S
O221 C202 1.239 . S
O222 Nd200 2.487 . S
O222 C209 1.241 . S
O223 Nd200 2.682 . S
O223 Nd201 2.414 . S
O223 C209 1.273 . S
O224 Nd200 2.410 . S
O224 C210 1.251 . S
O225 Nd201 2.424 . S
O225 C210 1.268 . S
O226 Nd201 2.500 . S
O226 C211 1.258 . S
O227 Nd201 2.492 . S
O227 C211 1.239 . S
O228 Nd201 2.487 . S
O228 C218 1.241 . S
O229 Nd200 2.414 . S
O229 Nd201 2.682 . S
O229 C218 1.273 . S
O230 Nd201 2.410 . S
O230 C219 1.251 . S
O231 Nd200 2.424 . S
O231 C219 1.268 . S
H232 C204 0.930 . S
H233 C205 0.929 . S
H234 C207 0.930 . S
H235 C208 0.929 . S
H236 C213 0.930 . S
H237 C214 0.929 . S
H238 C216 0.930 . S
H239 C217 0.929 . S
Nd240 C242 2.836 1_554 S
Nd240 O260 2.500 1_554 S
Nd240 O261 2.492 . S
Nd240 O262 2.487 . S
Nd240 O263 2.682 . S
Nd240 O264 2.410 . S
Nd240 O269 2.414 . S
Nd240 O271 2.424 . S
Nd241 C251 2.836 . S
Nd241 O263 2.414 . S
Nd241 O265 2.424 . S
Nd241 O266 2.500 . S
Nd241 O267 2.492 . S
Nd241 O268 2.487 . S
Nd241 O269 2.682 . S
Nd241 O270 2.410 . S
C242 Nd240 2.836 1_556 S
C242 C243 1.498 . S
C242 O260 1.258 . S
C242 O261 1.239 1_556 S
C243 C242 1.498 . S
C243 C244 1.366 . S
C243 C248 1.407 . S
C244 C243 1.366 . S
C244 C245 1.392 . S
C244 H272 0.930 . S
C245 C244 1.392 . S
C245 C246 1.398 . S
C245 H273 0.929 . S
C246 C245 1.398 . S
C246 C247 1.352 . S
C247 C246 1.352 . S
C247 C248 1.384 . S
C247 H274 0.930 . S
C248 C243 1.407 . S
C248 C247 1.384 . S
C248 H275 0.929 . S
C249 O262 1.241 . S
C249 O263 1.273 . S
C250 O264 1.251 . S
C250 O265 1.268 . S
C251 Nd241 2.836 . S
C251 C252 1.498 . S
C251 O266 1.258 . S
C251 O267 1.239 . S
C252 C251 1.498 . S
C252 C253 1.366 . S
C252 C257 1.407 . S
C253 C252 1.366 . S
C253 C254 1.392 . S
C253 H276 0.930 . S
C254 C253 1.392 . S
C254 C255 1.398 . S
C254 H277 0.929 . S
C255 C254 1.398 . S
C255 C256 1.352 . S
C256 C255 1.352 . S
C256 C257 1.384 . S
C256 H278 0.930 . S
C257 C252 1.407 . S
C257 C256 1.384 . S
C257 H279 0.929 . S
C258 O268 1.241 . S
C258 O269 1.273 . S
C259 O270 1.251 . S
C259 O271 1.268 . S
O260 Nd240 2.500 1_556 S
O260 C242 1.258 . S
O261 Nd240 2.492 . S
O261 C242 1.239 1_554 S
O262 Nd240 2.487 . S
O262 C249 1.241 . S
O263 Nd240 2.682 . S
O263 Nd241 2.414 . S
O263 C249 1.273 . S
O264 Nd240 2.410 . S
O264 C250 1.251 . S
O265 Nd241 2.424 . S
O265 C250 1.268 . S
O266 Nd241 2.500 . S
O266 C251 1.258 . S
O267 Nd241 2.492 . S
O267 C251 1.239 . S
O268 Nd241 2.487 . S
O268 C258 1.241 . S
O269 Nd240 2.414 . S
O269 Nd241 2.682 . S
O269 C258 1.273 . S
O270 Nd241 2.410 . S
O270 C259 1.251 . S
O271 Nd240 2.424 . S
O271 C259 1.268 . S
H272 C244 0.930 . S
H273 C245 0.929 . S
H274 C247 0.930 . S
H275 C248 0.929 . S
H276 C253 0.930 . S
H277 C254 0.929 . S
H278 C256 0.930 . S
H279 C257 0.929 . S
Nd280 C282 2.836 . S
Nd280 O300 2.500 . S
Nd280 O301 2.492 . S
Nd280 O302 2.487 . S
Nd280 O303 2.682 . S
Nd280 O304 2.410 . S
Nd280 O309 2.414 . S
Nd280 O311 2.424 . S
Nd281 C291 2.836 . S
Nd281 O303 2.414 . S
Nd281 O305 2.424 . S
Nd281 O306 2.500 . S
Nd281 O307 2.492 . S
Nd281 O308 2.487 . S
Nd281 O309 2.682 . S
Nd281 O310 2.410 . S
C282 Nd280 2.836 . S
C282 C283 1.498 . S
C282 O300 1.258 . S
C282 O301 1.239 . S
C283 C282 1.498 . S
C283 C284 1.366 . S
C283 C288 1.407 . S
C284 C283 1.366 . S
C284 C285 1.392 . S
C284 H312 0.930 . S
C285 C284 1.392 . S
C285 C286 1.398 . S
C285 H313 0.929 . S
C286 C285 1.398 . S
C286 C287 1.352 . S
C287 C286 1.352 . S
C287 C288 1.384 . S
C287 H314 0.930 . S
C288 C283 1.407 . S
C288 C287 1.384 . S
C288 H315 0.929 . S
C289 O302 1.241 . S
C289 O303 1.273 . S
C290 O304 1.251 . S
C290 O305 1.268 . S
C291 Nd281 2.836 . S
C291 C292 1.498 . S
C291 O306 1.258 . S
C291 O307 1.239 . S
C292 C291 1.498 . S
C292 C293 1.366 . S
C292 C297 1.407 . S
C293 C292 1.366 . S
C293 C294 1.392 . S
C293 H316 0.930 . S
C294 C293 1.392 . S
C294 C295 1.398 . S
C294 H317 0.929 . S
C295 C294 1.398 . S
C295 C296 1.352 . S
C296 C295 1.352 . S
C296 C297 1.384 . S
C296 H318 0.930 . S
C297 C292 1.407 . S
C297 C296 1.384 . S
C297 H319 0.929 . S
C298 O308 1.241 . S
C298 O309 1.273 . S
C299 O310 1.251 . S
C299 O311 1.268 . S
O300 Nd280 2.500 . S
O300 C282 1.258 . S
O301 Nd280 2.492 . S
O301 C282 1.239 . S
O302 Nd280 2.487 . S
O302 C289 1.241 . S
O303 Nd280 2.682 . S
O303 Nd281 2.414 . S
O303 C289 1.273 . S
O304 Nd280 2.410 . S
O304 C290 1.251 . S
O305 Nd281 2.424 . S
O305 C290 1.268 . S
O306 Nd281 2.500 . S
O306 C291 1.258 . S
O307 Nd281 2.492 . S
O307 C291 1.239 . S
O308 Nd281 2.487 . S
O308 C298 1.241 . S
O309 Nd280 2.414 . S
O309 Nd281 2.682 . S
O309 C298 1.273 . S
O310 Nd281 2.410 . S
O310 C299 1.251 . S
O311 Nd280 2.424 . S
O311 C299 1.268 . S
H312 C284 0.930 . S
H313 C285 0.929 . S
H314 C287 0.930 . S
H315 C288 0.929 . S
H316 C293 0.930 . S
H317 C294 0.929 . S
H318 C296 0.930 . S
H319 C297 0.929 . S
Nd320 C322 2.836 . S
Nd320 O340 2.500 . S
Nd320 O341 2.492 . S
Nd320 O342 2.487 . S
Nd320 O343 2.682 . S
Nd320 O344 2.410 . S
Nd320 O349 2.414 . S
Nd320 O351 2.424 . S
Nd321 C331 2.836 . S
Nd321 O343 2.414 . S
Nd321 O345 2.424 . S
Nd321 O346 2.500 . S
Nd321 O347 2.492 . S
Nd321 O348 2.487 . S
Nd321 O349 2.682 . S
Nd321 O350 2.410 . S
C322 Nd320 2.836 . S
C322 C323 1.498 . S
C322 O340 1.258 . S
C322 O341 1.239 . S
C323 C322 1.498 . S
C323 C324 1.366 . S
C323 C328 1.404 . S
C324 C323 1.366 . S
C324 C325 1.392 . S
C324 H352 0.930 . S
C325 C324 1.392 . S
C325 C326 1.398 1_554 S
C325 H353 0.929 1_554 S
C326 C325 1.398 1_556 S
C326 C327 1.352 1_656 S
C327 C326 1.352 1_454 S
C327 C328 1.385 1_455 S
C327 H354 0.930 . S
C328 C323 1.404 . S
C328 C327 1.385 1_655 S
C328 H355 0.931 1_655 S
C329 O342 1.241 . S
C329 O343 1.273 . S
C330 O344 1.251 . S
C330 O345 1.268 . S
C331 Nd321 2.836 . S
C331 C332 1.498 . S
C331 O346 1.258 . S
C331 O347 1.239 . S
C332 C331 1.498 . S
C332 C333 1.366 . S
C332 C337 1.407 . S
C333 C332 1.366 . S
C333 C334 1.392 . S
C333 H356 0.930 . S
C334 C333 1.392 . S
C334 C335 1.398 . S
C334 H357 0.929 . S
C335 C334 1.398 . S
C335 C336 1.352 . S
C336 C335 1.352 . S
C336 C337 1.384 . S
C336 H358 0.930 . S
C337 C332 1.407 . S
C337 C336 1.384 . S
C337 H359 0.929 . S
C338 O348 1.241 . S
C338 O349 1.273 . S
C339 O350 1.251 . S
C339 O351 1.268 . S
O340 Nd320 2.500 . S
O340 C322 1.258 . S
O341 Nd320 2.492 . S
O341 C322 1.239 . S
O342 Nd320 2.487 . S
O342 C329 1.241 . S
O343 Nd320 2.682 . S
O343 Nd321 2.414 . S
O343 C329 1.273 . S
O344 Nd320 2.410 . S
O344 C330 1.251 . S
O345 Nd321 2.424 . S
O345 C330 1.268 . S
O346 Nd321 2.500 . S
O346 C331 1.258 . S
O347 Nd321 2.492 . S
O347 C331 1.239 . S
O348 Nd321 2.487 . S
O348 C338 1.241 . S
O349 Nd320 2.414 . S
O349 Nd321 2.682 . S
O349 C338 1.273 . S
O350 Nd321 2.410 . S
O350 C339 1.251 . S
O351 Nd320 2.424 . S
O351 C339 1.268 . S
H352 C324 0.930 . S
H353 C325 0.929 1_556 S
H354 C327 0.930 . S
H355 C328 0.931 1_455 S
H356 C333 0.930 . S
H357 C334 0.929 . S
H358 C336 0.930 . S
H359 C337 0.929 . S
Nd360 C362 2.836 . S
Nd360 O380 2.500 . S
Nd360 O381 2.492 . S
Nd360 O382 2.487 . S
Nd360 O383 2.682 . S
Nd360 O384 2.410 . S
Nd360 O389 2.414 . S
Nd360 O391 2.424 . S
Nd361 C371 2.836 1_556 S
Nd361 O383 2.414 . S
Nd361 O385 2.424 . S
Nd361 O386 2.500 1_556 S
Nd361 O387 2.492 1_556 S
Nd361 O388 2.487 . S
Nd361 O389 2.682 . S
Nd361 O390 2.410 1_556 S
C362 Nd360 2.836 . S
C362 C363 1.498 . S
C362 O380 1.258 . S
C362 O381 1.239 . S
C363 C362 1.498 . S
C363 C364 1.366 . S
C363 C368 1.407 . S
C364 C363 1.366 . S
C364 C365 1.392 . S
C364 H392 0.930 . S
C365 C364 1.392 . S
C365 C366 1.398 . S
C365 H393 0.929 . S
C366 C365 1.398 . S
C366 C367 1.352 . S
C367 C366 1.352 . S
C367 C368 1.384 . S
C367 H394 0.930 . S
C368 C363 1.407 . S
C368 C367 1.384 . S
C368 H395 0.929 . S
C369 O382 1.241 . S
C369 O383 1.273 . S
C370 O384 1.251 . S
C370 O385 1.268 . S
C371 Nd361 2.836 1_554 S
C371 C372 1.498 . S
C371 O386 1.258 . S
C371 O387 1.239 . S
C372 C371 1.498 . S
C372 C373 1.366 . S
C372 C377 1.407 . S
C373 C372 1.366 . S
C373 C374 1.392 . S
C373 H396 0.930 . S
C374 C373 1.392 . S
C374 C375 1.398 . S
C374 H397 0.929 . S
C375 C374 1.398 . S
C375 C376 1.352 . S
C376 C375 1.352 . S
C376 C377 1.384 . S
C376 H398 0.930 . S
C377 C372 1.407 . S
C377 C376 1.384 . S
C377 H399 0.929 . S
C378 O388 1.241 . S
C378 O389 1.273 . S
C379 O390 1.251 . S
C379 O391 1.268 1_554 S
O380 Nd360 2.500 . S
O380 C362 1.258 . S
O381 Nd360 2.492 . S
O381 C362 1.239 . S
O382 Nd360 2.487 . S
O382 C369 1.241 . S
O383 Nd360 2.682 . S
O383 Nd361 2.414 . S
O383 C369 1.273 . S
O384 Nd360 2.410 . S
O384 C370 1.251 . S
O385 Nd361 2.424 . S
O385 C370 1.268 . S
O386 Nd361 2.500 1_554 S
O386 C371 1.258 . S
O387 Nd361 2.492 1_554 S
O387 C371 1.239 . S
O388 Nd361 2.487 . S
O388 C378 1.241 . S
O389 Nd360 2.414 . S
O389 Nd361 2.682 . S
O389 C378 1.273 . S
O390 Nd361 2.410 1_554 S
O390 C379 1.251 . S
O391 Nd360 2.424 . S
O391 C379 1.268 1_556 S
H392 C364 0.930 . S
H393 C365 0.929 . S
H394 C367 0.930 . S
H395 C368 0.929 . S
H396 C373 0.930 . S
H397 C374 0.929 . S
H398 C376 0.930 . S
H399 C377 0.929 . S
Nd400 C402 2.836 . S
Nd400 O420 2.500 . S
Nd400 O421 2.492 . S
Nd400 O422 2.487 . S
Nd400 O423 2.682 . S
Nd400 O424 2.410 . S
Nd400 O429 2.414 . S
Nd400 O431 2.424 . S
Nd401 C411 2.836 . S
Nd401 O423 2.414 . S
Nd401 O425 2.424 . S
Nd401 O426 2.500 . S
Nd401 O427 2.492 . S
Nd401 O428 2.487 . S
Nd401 O429 2.682 . S
Nd401 O430 2.410 . S
C402 Nd400 2.836 . S
C402 C403 1.498 . S
C402 O420 1.258 . S
C402 O421 1.239 . S
C403 C402 1.498 . S
C403 C404 1.366 . S
C403 C408 1.407 . S
C404 C403 1.366 . S
C404 C405 1.392 . S
C404 H432 0.930 . S
C405 C404 1.392 . S
C405 C406 1.398 . S
C405 H433 0.929 . S
C406 C405 1.398 . S
C406 C407 1.352 . S
C407 C406 1.352 . S
C407 C408 1.384 . S
C407 H434 0.930 . S
C408 C403 1.407 . S
C408 C407 1.384 . S
C408 H435 0.929 . S
C409 O422 1.241 . S
C409 O423 1.273 . S
C410 O424 1.251 . S
C410 O425 1.268 . S
C411 Nd401 2.836 . S
C411 C412 1.498 . S
C411 O426 1.258 . S
C411 O427 1.239 . S
C412 C411 1.498 . S
C412 C413 1.366 . S
C412 C417 1.407 . S
C413 C412 1.366 . S
C413 C414 1.392 . S
C413 H436 0.930 . S
C414 C413 1.392 . S
C414 C415 1.398 . S
C414 H437 0.929 . S
C415 C414 1.398 . S
C415 C416 1.352 . S
C416 C415 1.352 . S
C416 C417 1.384 . S
C416 H438 0.930 . S
C417 C412 1.407 . S
C417 C416 1.384 . S
C417 H439 0.929 . S
C418 O428 1.241 . S
C418 O429 1.273 . S
C419 O430 1.251 . S
C419 O431 1.268 . S
O420 Nd400 2.500 . S
O420 C402 1.258 . S
O421 Nd400 2.492 . S
O421 C402 1.239 . S
O422 Nd400 2.487 . S
O422 C409 1.241 . S
O423 Nd400 2.682 . S
O423 Nd401 2.414 . S
O423 C409 1.273 . S
O424 Nd400 2.410 . S
O424 C410 1.251 . S
O425 Nd401 2.424 . S
O425 C410 1.268 . S
O426 Nd401 2.500 . S
O426 C411 1.258 . S
O427 Nd401 2.492 . S
O427 C411 1.239 . S
O428 Nd401 2.487 . S
O428 C418 1.241 . S
O429 Nd400 2.414 . S
O429 Nd401 2.682 . S
O429 C418 1.273 . S
O430 Nd401 2.410 . S
O430 C419 1.251 . S
O431 Nd400 2.424 . S
O431 C419 1.268 . S
H432 C404 0.930 . S
H433 C405 0.929 . S
H434 C407 0.930 . S
H435 C408 0.929 . S
H436 C413 0.930 . S
H437 C414 0.929 . S
H438 C416 0.930 . S
H439 C417 0.929 . S
Nd440 C442 2.836 . S
Nd440 O460 2.500 . S
Nd440 O461 2.492 . S
Nd440 O462 2.487 . S
Nd440 O463 2.682 . S
Nd440 O464 2.410 . S
Nd440 O469 2.414 . S
Nd440 O471 2.424 . S
Nd441 C451 2.836 . S
Nd441 O463 2.414 . S
Nd441 O465 2.424 . S
Nd441 O466 2.500 . S
Nd441 O467 2.492 . S
Nd441 O468 2.487 . S
Nd441 O469 2.682 . S
Nd441 O470 2.410 . S
C442 Nd440 2.836 . S
C442 C443 1.498 . S
C442 O460 1.258 . S
C442 O461 1.239 . S
C443 C442 1.498 . S
C443 C444 1.366 . S
C443 C448 1.407 . S
C444 C443 1.366 . S
C444 C445 1.392 . S
C444 H472 0.930 . S
C445 C444 1.392 . S
C445 C446 1.398 . S
C445 H473 0.929 . S
C446 C445 1.398 . S
C446 C447 1.352 . S
C447 C446 1.352 . S
C447 C448 1.384 . S
C447 H474 0.930 . S
C448 C443 1.407 . S
C448 C447 1.384 . S
C448 H475 0.929 . S
C449 O462 1.241 . S
C449 O463 1.273 . S
C450 O464 1.251 . S
C450 O465 1.268 . S
C451 Nd441 2.836 . S
C451 C452 1.498 . S
C451 O466 1.258 . S
C451 O467 1.239 . S
C452 C451 1.498 . S
C452 C453 1.366 . S
C452 C457 1.407 . S
C453 C452 1.366 . S
C453 C454 1.392 . S
C453 H476 0.930 . S
C454 C453 1.392 . S
C454 C455 1.398 . S
C454 H477 0.929 . S
C455 C454 1.398 . S
C455 C456 1.352 . S
C456 C455 1.352 . S
C456 C457 1.384 . S
C456 H478 0.930 . S
C457 C452 1.407 . S
C457 C456 1.384 . S
C457 H479 0.929 . S
C458 O468 1.241 . S
C458 O469 1.273 . S
C459 O470 1.251 . S
C459 O471 1.268 . S
O460 Nd440 2.500 . S
O460 C442 1.258 . S
O461 Nd440 2.492 . S
O461 C442 1.239 . S
O462 Nd440 2.487 . S
O462 C449 1.241 . S
O463 Nd440 2.682 . S
O463 Nd441 2.414 . S
O463 C449 1.273 . S
O464 Nd440 2.410 . S
O464 C450 1.251 . S
O465 Nd441 2.424 . S
O465 C450 1.268 . S
O466 Nd441 2.500 . S
O466 C451 1.258 . S
O467 Nd441 2.492 . S
O467 C451 1.239 . S
O468 Nd441 2.487 . S
O468 C458 1.241 . S
O469 Nd440 2.414 . S
O469 Nd441 2.682 . S
O469 C458 1.273 . S
O470 Nd441 2.410 . S
O470 C459 1.251 . S
O471 Nd440 2.424 . S
O471 C459 1.268 . S
H472 C444 0.930 . S
H473 C445 0.929 . S
H474 C447 0.930 . S
H475 C448 0.929 . S
H476 C453 0.930 . S
H477 C454 0.929 . S
H478 C456 0.930 . S
H479 C457 0.929 . S
Nd480 C482 2.836 . S
Nd480 O500 2.500 . S
Nd480 O501 2.492 . S
Nd480 O502 2.487 . S
Nd480 O503 2.682 . S
Nd480 O504 2.410 . S
Nd480 O509 2.414 . S
Nd480 O511 2.424 . S
Nd481 C491 2.836 . S
Nd481 O503 2.414 . S
Nd481 O505 2.424 . S
Nd481 O506 2.500 . S
Nd481 O507 2.492 . S
Nd481 O508 2.487 . S
Nd481 O509 2.682 . S
Nd481 O510 2.410 . S
C482 Nd480 2.836 . S
C482 C483 1.498 . S
C482 O500 1.258 . S
C482 O501 1.239 . S
C483 C482 1.498 . S
C483 C484 1.366 . S
C483 C488 1.407 . S
C484 C483 1.366 . S
C484 C485 1.392 . S
C484 H512 0.930 . S
C485 C484 1.392 . S
C485 C486 1.398 . S
C485 H513 0.929 . S
C486 C485 1.398 . S
C486 C487 1.352 . S
C487 C486 1.352 . S
C487 C488 1.384 . S
C487 H514 0.930 . S
C488 C483 1.407 . S
C488 C487 1.384 . S
C488 H515 0.929 . S
C489 O502 1.241 . S
C489 O503 1.273 . S
C490 O504 1.251 . S
C490 O505 1.268 . S
C491 Nd481 2.836 . S
C491 C492 1.498 . S
C491 O506 1.258 . S
C491 O507 1.239 . S
C492 C491 1.498 . S
C492 C493 1.366 . S
C492 C497 1.407 . S
C493 C492 1.366 . S
C493 C494 1.392 . S
C493 H516 0.930 . S
C494 C493 1.392 . S
C494 C495 1.398 . S
C494 H517 0.929 . S
C495 C494 1.398 . S
C495 C496 1.352 . S
C496 C495 1.352 . S
C496 C497 1.384 . S
C496 H518 0.930 . S
C497 C492 1.407 . S
C497 C496 1.384 . S
C497 H519 0.929 . S
C498 O508 1.241 . S
C498 O509 1.273 . S
C499 O510 1.251 . S
C499 O511 1.268 . S
O500 Nd480 2.500 . S
O500 C482 1.258 . S
O501 Nd480 2.492 . S
O501 C482 1.239 . S
O502 Nd480 2.487 . S
O502 C489 1.241 . S
O503 Nd480 2.682 . S
O503 Nd481 2.414 . S
O503 C489 1.273 . S
O504 Nd480 2.410 . S
O504 C490 1.251 . S
O505 Nd481 2.424 . S
O505 C490 1.268 . S
O506 Nd481 2.500 . S
O506 C491 1.258 . S
O507 Nd481 2.492 . S
O507 C491 1.239 . S
O508 Nd481 2.487 . S
O508 C498 1.241 . S
O509 Nd480 2.414 . S
O509 Nd481 2.682 . S
O509 C498 1.273 . S
O510 Nd481 2.410 . S
O510 C499 1.251 . S
O511 Nd480 2.424 . S
O511 C499 1.268 . S
H512 C484 0.930 . S
H513 C485 0.929 . S
H514 C487 0.930 . S
H515 C488 0.929 . S
H516 C493 0.930 . S
H517 C494 0.929 . S
H518 C496 0.930 . S
H519 C497 0.929 . S
Nd520 C522 2.836 . S
Nd520 O540 2.500 . S
Nd520 O541 2.492 . S
Nd520 O542 2.487 . S
Nd520 O543 2.682 . S
Nd520 O544 2.410 . S
Nd520 O549 2.414 . S
Nd520 O551 2.424 . S
Nd521 C531 2.836 . S
Nd521 O543 2.414 . S
Nd521 O545 2.424 . S
Nd521 O546 2.500 . S
Nd521 O547 2.492 . S
Nd521 O548 2.487 . S
Nd521 O549 2.682 . S
Nd521 O550 2.410 . S
C522 Nd520 2.836 . S
C522 C523 1.498 . S
C522 O540 1.258 . S
C522 O541 1.239 . S
C523 C522 1.498 . S
C523 C524 1.366 . S
C523 C528 1.407 . S
C524 C523 1.366 . S
C524 C525 1.392 . S
C524 H552 0.930 . S
C525 C524 1.392 . S
C525 C526 1.398 . S
C525 H553 0.929 . S
C526 C525 1.398 . S
C526 C527 1.352 . S
C527 C526 1.352 . S
C527 C528 1.384 . S
C527 H554 0.930 . S
C528 C523 1.407 . S
C528 C527 1.384 . S
C528 H555 0.929 . S
C529 O542 1.241 . S
C529 O543 1.273 . S
C530 O544 1.251 . S
C530 O545 1.268 . S
C531 Nd521 2.836 . S
C531 C532 1.498 . S
C531 O546 1.258 . S
C531 O547 1.239 . S
C532 C531 1.498 . S
C532 C533 1.366 . S
C532 C537 1.407 . S
C533 C532 1.366 . S
C533 C534 1.392 . S
C533 H556 0.930 . S
C534 C533 1.392 . S
C534 C535 1.398 . S
C534 H557 0.929 . S
C535 C534 1.398 . S
C535 C536 1.352 . S
C536 C535 1.352 . S
C536 C537 1.384 . S
C536 H558 0.930 . S
C537 C532 1.407 . S
C537 C536 1.384 . S
C537 H559 0.929 . S
C538 O548 1.241 . S
C538 O549 1.273 . S
C539 O550 1.251 . S
C539 O551 1.268 . S
O540 Nd520 2.500 . S
O540 C522 1.258 . S
O541 Nd520 2.492 . S
O541 C522 1.239 . S
O542 Nd520 2.487 . S
O542 C529 1.241 . S
O543 Nd520 2.682 . S
O543 Nd521 2.414 . S
O543 C529 1.273 . S
O544 Nd520 2.410 . S
O544 C530 1.251 . S
O545 Nd521 2.424 . S
O545 C530 1.268 . S
O546 Nd521 2.500 . S
O546 C531 1.258 . S
O547 Nd521 2.492 . S
O547 C531 1.239 . S
O548 Nd521 2.487 . S
O548 C538 1.241 . S
O549 Nd520 2.414 . S
O549 Nd521 2.682 . S
O549 C538 1.273 . S
O550 Nd521 2.410 . S
O550 C539 1.251 . S
O551 Nd520 2.424 . S
O551 C539 1.268 . S
H552 C524 0.930 . S
H553 C525 0.929 . S
H554 C527 0.930 . S
H555 C528 0.929 . S
H556 C533 0.930 . S
H557 C534 0.929 . S
H558 C536 0.930 . S
H559 C537 0.929 . S
Nd560 C562 2.836 . S
Nd560 O580 2.500 . S
Nd560 O581 2.492 . S
Nd560 O582 2.487 . S
Nd560 O583 2.682 . S
Nd560 O584 2.410 . S
Nd560 O589 2.414 . S
Nd560 O591 2.424 . S
Nd561 C571 2.836 . S
Nd561 O583 2.414 . S
Nd561 O585 2.424 . S
Nd561 O586 2.500 . S
Nd561 O587 2.492 . S
Nd561 O588 2.487 . S
Nd561 O589 2.682 . S
Nd561 O590 2.410 . S
C562 Nd560 2.836 . S
C562 C563 1.498 . S
C562 O580 1.258 . S
C562 O581 1.239 . S
C563 C562 1.498 . S
C563 C564 1.366 . S
C563 C568 1.407 . S
C564 C563 1.366 . S
C564 C565 1.392 . S
C564 H592 0.930 . S
C565 C564 1.392 . S
C565 C566 1.398 . S
C565 H593 0.929 . S
C566 C565 1.398 . S
C566 C567 1.352 . S
C567 C566 1.352 . S
C567 C568 1.384 . S
C567 H594 0.930 . S
C568 C563 1.407 . S
C568 C567 1.384 . S
C568 H595 0.929 . S
C569 O582 1.241 . S
C569 O583 1.273 . S
C570 O584 1.251 . S
C570 O585 1.268 . S
C571 Nd561 2.836 . S
C571 C572 1.498 . S
C571 O586 1.258 . S
C571 O587 1.239 . S
C572 C571 1.498 . S
C572 C573 1.366 . S
C572 C577 1.407 . S
C573 C572 1.366 . S
C573 C574 1.392 . S
C573 H596 0.930 . S
C574 C573 1.392 . S
C574 C575 1.398 . S
C574 H597 0.929 . S
C575 C574 1.398 . S
C575 C576 1.352 . S
C576 C575 1.352 . S
C576 C577 1.384 . S
C576 H598 0.930 . S
C577 C572 1.407 . S
C577 C576 1.384 . S
C577 H599 0.929 . S
C578 O588 1.241 . S
C578 O589 1.273 . S
C579 O590 1.251 . S
C579 O591 1.268 . S
O580 Nd560 2.500 . S
O580 C562 1.258 . S
O581 Nd560 2.492 . S
O581 C562 1.239 . S
O582 Nd560 2.487 . S
O582 C569 1.241 . S
O583 Nd560 2.682 . S
O583 Nd561 2.414 . S
O583 C569 1.273 . S
O584 Nd560 2.410 . S
O584 C570 1.251 . S
O585 Nd561 2.424 . S
O585 C570 1.268 . S
O586 Nd561 2.500 . S
O586 C571 1.258 . S
O587 Nd561 2.492 . S
O587 C571 1.239 . S
O588 Nd561 2.487 . S
O588 C578 1.241 . S
O589 Nd560 2.414 . S
O589 Nd561 2.682 . S
O589 C578 1.273 . S
O590 Nd561 2.410 . S
O590 C579 1.251 . S
O591 Nd560 2.424 . S
O591 C579 1.268 . S
H592 C564 0.930 . S
H593 C565 0.929 . S
H594 C567 0.930 . S
H595 C568 0.929 . S
H596 C573 0.930 . S
H597 C574 0.929 . S
H598 C576 0.930 . S
H599 C577 0.929 . S
Nd600 C602 2.836 . S
Nd600 O620 2.500 . S
Nd600 O621 2.492 . S
Nd600 O622 2.487 . S
Nd600 O623 2.682 1_556 S
Nd600 O624 2.410 . S
Nd600 O629 2.414 . S
Nd600 O631 2.424 1_556 S
Nd601 C611 2.836 . S
Nd601 O623 2.414 . S
Nd601 O625 2.424 1_554 S
Nd601 O626 2.500 . S
Nd601 O627 2.492 . S
Nd601 O628 2.487 . S
Nd601 O629 2.682 1_554 S
Nd601 O630 2.410 . S
C602 Nd600 2.836 . S
C602 C603 1.498 . S
C602 O620 1.258 . S
C602 O621 1.239 . S
C603 C602 1.498 . S
C603 C604 1.366 . S
C603 C608 1.407 . S
C604 C603 1.366 . S
C604 C605 1.392 . S
C604 H632 0.930 . S
C605 C604 1.392 . S
C605 C606 1.398 . S
C605 H633 0.929 . S
C606 C605 1.398 . S
C606 C607 1.352 . S
C607 C606 1.352 . S
C607 C608 1.384 . S
C607 H634 0.930 . S
C608 C603 1.407 . S
C608 C607 1.384 . S
C608 H635 0.929 . S
C609 O622 1.241 1_554 S
C609 O623 1.273 . S
C610 O624 1.251 . S
C610 O625 1.268 . S
C611 Nd601 2.836 . S
C611 C612 1.498 . S
C611 O626 1.258 . S
C611 O627 1.239 . S
C612 C611 1.498 . S
C612 C613 1.366 . S
C612 C617 1.407 . S
C613 C612 1.366 . S
C613 C614 1.392 . S
C613 H636 0.930 . S
C614 C613 1.392 . S
C614 C615 1.398 . S
C614 H637 0.929 . S
C615 C614 1.398 . S
C615 C616 1.352 . S
C616 C615 1.352 . S
C616 C617 1.384 . S
C616 H638 0.930 . S
C617 C612 1.407 . S
C617 C616 1.384 . S
C617 H639 0.929 . S
C618 O628 1.241 1_556 S
C618 O629 1.273 . S
C619 O630 1.251 . S
C619 O631 1.268 . S
O620 Nd600 2.500 . S
O620 C602 1.258 . S
O621 Nd600 2.492 . S
O621 C602 1.239 . S
O622 Nd600 2.487 . S
O622 C609 1.241 1_556 S
O623 Nd600 2.682 1_554 S
O623 Nd601 2.414 . S
O623 C609 1.273 . S
O624 Nd600 2.410 . S
O624 C610 1.251 . S
O625 Nd601 2.424 1_556 S
O625 C610 1.268 . S
O626 Nd601 2.500 . S
O626 C611 1.258 . S
O627 Nd601 2.492 . S
O627 C611 1.239 . S
O628 Nd601 2.487 . S
O628 C618 1.241 1_554 S
O629 Nd600 2.414 . S
O629 Nd601 2.682 1_556 S
O629 C618 1.273 . S
O630 Nd601 2.410 . S
O630 C619 1.251 . S
O631 Nd600 2.424 1_554 S
O631 C619 1.268 . S
H632 C604 0.930 . S
H633 C605 0.929 . S
H634 C607 0.930 . S
H635 C608 0.929 . S
H636 C613 0.930 . S
H637 C614 0.929 . S
H638 C616 0.930 . S
H639 C617 0.929 . S
Nd640 C642 2.836 . S
Nd640 O660 2.500 . S
Nd640 O661 2.492 . S
Nd640 O662 2.487 . S
Nd640 O663 2.682 . S
Nd640 O664 2.410 . S
Nd640 O669 2.414 . S
Nd640 O671 2.424 . S
Nd641 C651 2.836 . S
Nd641 O663 2.414 . S
Nd641 O665 2.424 . S
Nd641 O666 2.500 . S
Nd641 O667 2.492 . S
Nd641 O668 2.487 . S
Nd641 O669 2.682 . S
Nd641 O670 2.410 . S
C642 Nd640 2.836 . S
C642 C643 1.498 . S
C642 O660 1.258 . S
C642 O661 1.239 . S
C643 C642 1.498 . S
C643 C644 1.366 . S
C643 C648 1.407 . S
C644 C643 1.366 . S
C644 C645 1.392 . S
C644 H672 0.930 . S
C645 C644 1.392 . S
C645 C646 1.398 . S
C645 H673 0.929 . S
C646 C645 1.398 . S
C646 C647 1.352 . S
C647 C646 1.352 . S
C647 C648 1.384 . S
C647 H674 0.930 . S
C648 C643 1.407 . S
C648 C647 1.384 . S
C648 H675 0.929 . S
C649 O662 1.241 . S
C649 O663 1.273 . S
C650 O664 1.251 . S
C650 O665 1.268 . S
C651 Nd641 2.836 . S
C651 C652 1.498 . S
C651 O666 1.258 . S
C651 O667 1.239 . S
C652 C651 1.498 . S
C652 C653 1.366 . S
C652 C657 1.407 . S
C653 C652 1.366 . S
C653 C654 1.392 . S
C653 H676 0.930 . S
C654 C653 1.392 . S
C654 C655 1.398 . S
C654 H677 0.929 . S
C655 C654 1.398 . S
C655 C656 1.352 . S
C656 C655 1.352 . S
C656 C657 1.384 . S
C656 H678 0.930 . S
C657 C652 1.407 . S
C657 C656 1.384 . S
C657 H679 0.929 . S
C658 O668 1.241 . S
C658 O669 1.273 . S
C659 O670 1.251 . S
C659 O671 1.268 . S
O660 Nd640 2.500 . S
O660 C642 1.258 . S
O661 Nd640 2.492 . S
O661 C642 1.239 . S
O662 Nd640 2.487 . S
O662 C649 1.241 . S
O663 Nd640 2.682 . S
O663 Nd641 2.414 . S
O663 C649 1.273 . S
O664 Nd640 2.410 . S
O664 C650 1.251 . S
O665 Nd641 2.424 . S
O665 C650 1.268 . S
O666 Nd641 2.500 . S
O666 C651 1.258 . S
O667 Nd641 2.492 . S
O667 C651 1.239 . S
O668 Nd641 2.487 . S
O668 C658 1.241 . S
O669 Nd640 2.414 . S
O669 Nd641 2.682 . S
O669 C658 1.273 . S
O670 Nd641 2.410 . S
O670 C659 1.251 . S
O671 Nd640 2.424 . S
O671 C659 1.268 . S
H672 C644 0.930 . S
H673 C645 0.929 . S
H674 C647 0.930 . S
H675 C648 0.929 . S
H676 C653 0.930 . S
H677 C654 0.929 . S
H678 C656 0.930 . S
H679 C657 0.929 . S
Nd680 C682 2.836 . S
Nd680 O700 2.500 . S
Nd680 O701 2.492 . S
Nd680 O702 2.487 . S
Nd680 O703 2.682 . S
Nd680 O704 2.410 . S
Nd680 O709 2.414 . S
Nd680 O711 2.424 . S
Nd681 C691 2.836 . S
Nd681 O703 2.414 . S
Nd681 O705 2.424 . S
Nd681 O706 2.500 . S
Nd681 O707 2.492 . S
Nd681 O708 2.487 . S
Nd681 O709 2.682 . S
Nd681 O710 2.410 . S
C682 Nd680 2.836 . S
C682 C683 1.498 . S
C682 O700 1.258 . S
C682 O701 1.239 . S
C683 C682 1.498 . S
C683 C684 1.366 . S
C683 C688 1.407 . S
C684 C683 1.366 . S
C684 C685 1.392 . S
C684 H712 0.930 . S
C685 C684 1.392 . S
C685 C686 1.398 . S
C685 H713 0.929 . S
C686 C685 1.398 . S
C686 C687 1.352 . S
C687 C686 1.352 . S
C687 C688 1.384 . S
C687 H714 0.930 . S
C688 C683 1.407 . S
C688 C687 1.384 . S
C688 H715 0.929 . S
C689 O702 1.241 . S
C689 O703 1.273 . S
C690 O704 1.251 . S
C690 O705 1.268 . S
C691 Nd681 2.836 . S
C691 C692 1.498 1_556 S
C691 O706 1.258 . S
C691 O707 1.239 . S
C692 C691 1.498 1_554 S
C692 C693 1.366 . S
C692 C697 1.407 . S
C693 C692 1.366 . S
C693 C694 1.392 . S
C693 H716 0.930 . S
C694 C693 1.392 . S
C694 C695 1.398 . S
C694 H717 0.929 . S
C695 C694 1.398 . S
C695 C696 1.352 . S
C696 C695 1.352 . S
C696 C697 1.384 . S
C696 H718 0.930 . S
C697 C692 1.407 . S
C697 C696 1.384 . S
C697 H719 0.929 . S
C698 O708 1.241 . S
C698 O709 1.273 . S
C699 O710 1.251 . S
C699 O711 1.268 . S
O700 Nd680 2.500 . S
O700 C682 1.258 . S
O701 Nd680 2.492 . S
O701 C682 1.239 . S
O702 Nd680 2.487 . S
O702 C689 1.241 . S
O703 Nd680 2.682 . S
O703 Nd681 2.414 . S
O703 C689 1.273 . S
O704 Nd680 2.410 . S
O704 C690 1.251 . S
O705 Nd681 2.424 . S
O705 C690 1.268 . S
O706 Nd681 2.500 . S
O706 C691 1.258 . S
O707 Nd681 2.492 . S
O707 C691 1.239 . S
O708 Nd681 2.487 . S
O708 C698 1.241 . S
O709 Nd680 2.414 . S
O709 Nd681 2.682 . S
O709 C698 1.273 . S
O710 Nd681 2.410 . S
O710 C699 1.251 . S
O711 Nd680 2.424 . S
O711 C699 1.268 . S
H712 C684 0.930 . S
H713 C685 0.929 . S
H714 C687 0.930 . S
H715 C688 0.929 . S
H716 C693 0.930 . S
H717 C694 0.929 . S
H718 C696 0.930 . S
H719 C697 0.929 . S
Nd720 C722 2.836 . S
Nd720 O740 2.500 . S
Nd720 O741 2.492 . S
Nd720 O742 2.487 . S
Nd720 O743 2.682 . S
Nd720 O744 2.410 . S
Nd720 O749 2.414 . S
Nd720 O751 2.424 . S
Nd721 C731 2.836 . S
Nd721 O743 2.414 . S
Nd721 O745 2.424 . S
Nd721 O746 2.500 . S
Nd721 O747 2.492 . S
Nd721 O748 2.487 . S
Nd721 O749 2.682 . S
Nd721 O750 2.410 . S
C722 Nd720 2.836 . S
C722 C723 1.498 1_554 S
C722 O740 1.258 . S
C722 O741 1.239 . S
C723 C722 1.498 1_556 S
C723 C724 1.366 . S
C723 C728 1.407 . S
C724 C723 1.366 . S
C724 C725 1.392 . S
C724 H752 0.930 . S
C725 C724 1.392 . S
C725 C726 1.398 . S
C725 H753 0.929 . S
C726 C725 1.398 . S
C726 C727 1.352 . S
C727 C726 1.352 . S
C727 C728 1.384 . S
C727 H754 0.930 . S
C728 C723 1.407 . S
C728 C727 1.384 . S
C728 H755 0.929 . S
C729 O742 1.241 . S
C729 O743 1.273 . S
C730 O744 1.251 . S
C730 O745 1.268 . S
C731 Nd721 2.836 . S
C731 C732 1.498 . S
C731 O746 1.258 . S
C731 O747 1.239 . S
C732 C731 1.498 . S
C732 C733 1.366 . S
C732 C737 1.407 . S
C733 C732 1.366 . S
C733 C734 1.392 . S
C733 H756 0.930 . S
C734 C733 1.392 . S
C734 C735 1.398 . S
C734 H757 0.929 . S
C735 C734 1.398 . S
C735 C736 1.352 1_655 S
C736 C735 1.352 1_455 S
C736 C737 1.384 1_455 S
C736 H758 0.930 . S
C737 C732 1.407 . S
C737 C736 1.384 1_655 S
C737 H759 0.929 1_655 S
C738 O748 1.241 . S
C738 O749 1.273 . S
C739 O750 1.251 . S
C739 O751 1.268 . S
O740 Nd720 2.500 . S
O740 C722 1.258 . S
O741 Nd720 2.492 . S
O741 C722 1.239 . S
O742 Nd720 2.487 . S
O742 C729 1.241 . S
O743 Nd720 2.682 . S
O743 Nd721 2.414 . S
O743 C729 1.273 . S
O744 Nd720 2.410 . S
O744 C730 1.251 . S
O745 Nd721 2.424 . S
O745 C730 1.268 . S
O746 Nd721 2.500 . S
O746 C731 1.258 . S
O747 Nd721 2.492 . S
O747 C731 1.239 . S
O748 Nd721 2.487 . S
O748 C738 1.241 . S
O749 Nd720 2.414 . S
O749 Nd721 2.682 . S
O749 C738 1.273 . S
O750 Nd721 2.410 . S
O750 C739 1.251 . S
O751 Nd720 2.424 . S
O751 C739 1.268 . S
H752 C724 0.930 . S
H753 C725 0.929 . S
H754 C727 0.930 . S
H755 C728 0.929 . S
H756 C733 0.930 . S
H757 C734 0.929 . S
H758 C736 0.930 . S
H759 C737 0.929 1_455 S
Nd760 C762 2.836 . S
Nd760 O780 2.500 . S
Nd760 O781 2.492 . S
Nd760 O782 2.487 . S
Nd760 O783 2.682 . S
Nd760 O784 2.410 . S
Nd760 O789 2.414 . S
Nd760 O791 2.424 . S
Nd761 C771 2.836 . S
Nd761 O783 2.414 . S
Nd761 O785 2.424 . S
Nd761 O786 2.500 . S
Nd761 O787 2.492 . S
Nd761 O788 2.487 . S
Nd761 O789 2.682 . S
Nd761 O790 2.410 . S
C762 Nd760 2.836 . S
C762 C763 1.498 . S
C762 O780 1.258 . S
C762 O781 1.239 . S
C763 C762 1.498 . S
C763 C764 1.366 . S
C763 C768 1.407 . S
C764 C763 1.366 . S
C764 C765 1.392 . S
C764 H792 0.930 . S
C765 C764 1.392 . S
C765 C766 1.398 . S
C765 H793 0.929 . S
C766 C765 1.398 . S
C766 C767 1.352 . S
C767 C766 1.352 . S
C767 C768 1.384 . S
C767 H794 0.930 . S
C768 C763 1.407 . S
C768 C767 1.384 . S
C768 H795 0.929 . S
C769 O782 1.241 . S
C769 O783 1.273 . S
C770 O784 1.251 . S
C770 O785 1.268 . S
C771 Nd761 2.836 . S
C771 C772 1.498 . S
C771 O786 1.258 . S
C771 O787 1.239 . S
C772 C771 1.498 . S
C772 C773 1.366 . S
C772 C777 1.407 . S
C773 C772 1.366 . S
C773 C774 1.392 . S
C773 H796 0.930 . S
C774 C773 1.392 . S
C774 C775 1.398 . S
C774 H797 0.929 . S
C775 C774 1.398 . S
C775 C776 1.352 . S
C776 C775 1.352 . S
C776 C777 1.384 . S
C776 H798 0.930 . S
C777 C772 1.407 . S
C777 C776 1.384 . S
C777 H799 0.929 . S
C778 O788 1.241 . S
C778 O789 1.273 . S
C779 O790 1.251 . S
C779 O791 1.268 . S
O780 Nd760 2.500 . S
O780 C762 1.258 . S
O781 Nd760 2.492 . S
O781 C762 1.239 . S
O782 Nd760 2.487 . S
O782 C769 1.241 . S
O783 Nd760 2.682 . S
O783 Nd761 2.414 . S
O783 C769 1.273 . S
O784 Nd760 2.410 . S
O784 C770 1.251 . S
O785 Nd761 2.424 . S
O785 C770 1.268 . S
O786 Nd761 2.500 . S
O786 C771 1.258 . S
O787 Nd761 2.492 . S
O787 C771 1.239 . S
O788 Nd761 2.487 . S
O788 C778 1.241 . S
O789 Nd760 2.414 . S
O789 Nd761 2.682 . S
O789 C778 1.273 . S
O790 Nd761 2.410 . S
O790 C779 1.251 . S
O791 Nd760 2.424 . S
O791 C779 1.268 . S
H792 C764 0.930 . S
H793 C765 0.929 . S
H794 C767 0.930 . S
H795 C768 0.929 . S
H796 C773 0.930 . S
H797 C774 0.929 . S
H798 C776 0.930 . S
H799 C777 0.929 . S
Nd800 C802 2.836 1_554 S
Nd800 O820 2.500 1_554 S
Nd800 O821 2.492 1_545 S
Nd800 O822 2.477 1_545 S
Nd800 O823 2.682 . S
Nd800 O824 2.410 . S
Nd800 O829 2.414 . S
Nd800 O831 2.424 . S
Nd801 C811 2.836 . S
Nd801 O823 2.414 . S
Nd801 O825 2.424 . S
Nd801 O826 2.500 . S
Nd801 O827 2.492 . S
Nd801 O828 2.487 . S
Nd801 O829 2.682 . S
Nd801 O830 2.410 . S
C802 Nd800 2.836 1_556 S
C802 C803 1.498 1_545 S
C802 O820 1.258 . S
C802 O821 1.239 1_546 S
C803 C802 1.498 1_565 S
C803 C804 1.366 1_565 S
C803 C808 1.407 . S
C804 C803 1.366 1_545 S
C804 C805 1.392 . S
C804 H832 0.930 . S
C805 C804 1.392 . S
C805 C806 1.398 1_545 S
C805 H833 0.929 . S
C806 C805 1.398 1_565 S
C806 C807 1.352 . S
C807 C806 1.352 . S
C807 C808 1.384 . S
C807 H834 0.930 . S
C808 C803 1.407 . S
C808 C807 1.384 . S
C808 H835 0.929 . S
C809 O822 1.227 1_545 S
C809 O823 1.273 . S
C810 O824 1.251 . S
C810 O825 1.268 . S
C811 Nd801 2.836 . S
C811 C812 1.498 . S
C811 O826 1.258 . S
C811 O827 1.239 . S
C812 C811 1.498 . S
C812 C813 1.366 . S
C812 C817 1.407 . S
C813 C812 1.366 . S
C813 C814 1.392 . S
C813 H836 0.930 . S
C814 C813 1.392 . S
C814 C815 1.398 . S
C814 H837 0.929 . S
C815 C814 1.398 . S
C815 C816 1.352 . S
C816 C815 1.352 . S
C816 C817 1.384 . S
C816 H838 0.930 . S
C817 C812 1.407 . S
C817 C816 1.384 . S
C817 H839 0.929 . S
C818 O828 1.241 . S
C818 O829 1.273 . S
C819 O830 1.251 . S
C819 O831 1.268 . S
O820 Nd800 2.500 1_556 S
O820 C802 1.258 . S
O821 Nd800 2.492 1_565 S
O821 C802 1.239 1_564 S
O822 Nd800 2.477 1_565 S
O822 C809 1.227 1_565 S
O823 Nd800 2.682 . S
O823 Nd801 2.414 . S
O823 C809 1.273 . S
O824 Nd800 2.410 . S
O824 C810 1.251 . S
O825 Nd801 2.424 . S
O825 C810 1.268 . S
O826 Nd801 2.500 . S
O826 C811 1.258 . S
O827 Nd801 2.492 . S
O827 C811 1.239 . S
O828 Nd801 2.487 . S
O828 C818 1.241 . S
O829 Nd800 2.414 . S
O829 Nd801 2.682 . S
O829 C818 1.273 . S
O830 Nd801 2.410 . S
O830 C819 1.251 . S
O831 Nd800 2.424 . S
O831 C819 1.268 . S
H832 C804 0.930 . S
H833 C805 0.929 . S
H834 C807 0.930 . S
H835 C808 0.929 . S
H836 C813 0.930 . S
H837 C814 0.929 . S
H838 C816 0.930 . S
H839 C817 0.929 . S
Nd840 C842 2.836 . S
Nd840 O860 2.500 . S
Nd840 O861 2.492 . S
Nd840 O862 2.487 . S
Nd840 O863 2.682 . S
Nd840 O864 2.410 . S
Nd840 O869 2.414 . S
Nd840 O871 2.424 . S
Nd841 C851 2.836 . S
Nd841 O863 2.414 . S
Nd841 O865 2.424 . S
Nd841 O866 2.500 . S
Nd841 O867 2.492 . S
Nd841 O868 2.487 . S
Nd841 O869 2.682 . S
Nd841 O870 2.410 . S
C842 Nd840 2.836 . S
C842 C843 1.498 . S
C842 O860 1.258 . S
C842 O861 1.239 . S
C843 C842 1.498 . S
C843 C844 1.366 . S
C843 C848 1.407 . S
C844 C843 1.366 . S
C844 C845 1.392 . S
C844 H872 0.930 . S
C845 C844 1.392 . S
C845 C846 1.398 . S
C845 H873 0.929 . S
C846 C845 1.398 . S
C846 C847 1.352 . S
C847 C846 1.352 . S
C847 C848 1.384 . S
C847 H874 0.930 . S
C848 C843 1.407 . S
C848 C847 1.384 . S
C848 H875 0.929 . S
C849 O862 1.241 . S
C849 O863 1.273 . S
C850 O864 1.251 . S
C850 O865 1.268 . S
C851 Nd841 2.836 . S
C851 C852 1.498 . S
C851 O866 1.258 . S
C851 O867 1.239 . S
C852 C851 1.498 . S
C852 C853 1.366 . S
C852 C857 1.407 . S
C853 C852 1.366 . S
C853 C854 1.392 . S
C853 H876 0.930 . S
C854 C853 1.392 . S
C854 C855 1.398 . S
C854 H877 0.929 . S
C855 C854 1.398 . S
C855 C856 1.352 . S
C856 C855 1.352 . S
C856 C857 1.384 . S
C856 H878 0.930 . S
C857 C852 1.407 . S
C857 C856 1.384 . S
C857 H879 0.929 . S
C858 O868 1.241 . S
C858 O869 1.273 . S
C859 O870 1.251 . S
C859 O871 1.268 . S
O860 Nd840 2.500 . S
O860 C842 1.258 . S
O861 Nd840 2.492 . S
O861 C842 1.239 . S
O862 Nd840 2.487 . S
O862 C849 1.241 . S
O863 Nd840 2.682 . S
O863 Nd841 2.414 . S
O863 C849 1.273 . S
O864 Nd840 2.410 . S
O864 C850 1.251 . S
O865 Nd841 2.424 . S
O865 C850 1.268 . S
O866 Nd841 2.500 . S
O866 C851 1.258 . S
O867 Nd841 2.492 . S
O867 C851 1.239 . S
O868 Nd841 2.487 . S
O868 C858 1.241 . S
O869 Nd840 2.414 . S
O869 Nd841 2.682 . S
O869 C858 1.273 . S
O870 Nd841 2.410 . S
O870 C859 1.251 . S
O871 Nd840 2.424 . S
O871 C859 1.268 . S
H872 C844 0.930 . S
H873 C845 0.929 . S
H874 C847 0.930 . S
H875 C848 0.929 . S
H876 C853 0.930 . S
H877 C854 0.929 . S
H878 C856 0.930 . S
H879 C857 0.929 . S
Nd880 C882 2.836 . S
Nd880 O900 2.500 . S
Nd880 O901 2.492 1_565 S
Nd880 O902 2.477 1_565 S
Nd880 O903 2.682 . S
Nd880 O904 2.410 . S
Nd880 O909 2.414 . S
Nd880 O911 2.424 . S
Nd881 C891 2.836 . S
Nd881 O903 2.414 . S
Nd881 O905 2.424 . S
Nd881 O906 2.500 . S
Nd881 O907 2.492 . S
Nd881 O908 2.487 . S
Nd881 O909 2.682 . S
Nd881 O910 2.410 . S
C882 Nd880 2.836 . S
C882 C883 1.498 1_565 S
C882 O900 1.258 . S
C882 O901 1.239 1_565 S
C883 C882 1.498 1_545 S
C883 C884 1.366 1_545 S
C883 C888 1.407 . S
C884 C883 1.366 1_565 S
C884 C885 1.392 . S
C884 H912 0.930 . S
C885 C884 1.392 . S
C885 C886 1.398 1_565 S
C885 H913 0.929 . S
C886 C885 1.398 1_545 S
C886 C887 1.352 . S
C887 C886 1.352 . S
C887 C888 1.384 . S
C887 H914 0.930 . S
C888 C883 1.407 . S
C888 C887 1.384 . S
C888 H915 0.929 . S
C889 O902 1.227 1_565 S
C889 O903 1.273 . S
C890 O904 1.251 . S
C890 O905 1.268 . S
C891 Nd881 2.836 . S
C891 C892 1.498 . S
C891 O906 1.258 . S
C891 O907 1.239 . S
C892 C891 1.498 . S
C892 C893 1.366 . S
C892 C897 1.407 . S
C893 C892 1.366 . S
C893 C894 1.392 . S
C893 H916 0.930 . S
C894 C893 1.392 . S
C894 C895 1.398 . S
C894 H917 0.929 . S
C895 C894 1.398 . S
C895 C896 1.352 . S
C896 C895 1.352 . S
C896 C897 1.384 . S
C896 H918 0.930 . S
C897 C892 1.407 . S
C897 C896 1.384 . S
C897 H919 0.929 . S
C898 O908 1.241 . S
C898 O909 1.273 . S
C899 O910 1.251 . S
C899 O911 1.268 . S
O900 Nd880 2.500 . S
O900 C882 1.258 . S
O901 Nd880 2.492 1_545 S
O901 C882 1.239 1_545 S
O902 Nd880 2.477 1_545 S
O902 C889 1.227 1_545 S
O903 Nd880 2.682 . S
O903 Nd881 2.414 . S
O903 C889 1.273 . S
O904 Nd880 2.410 . S
O904 C890 1.251 . S
O905 Nd881 2.424 . S
O905 C890 1.268 . S
O906 Nd881 2.500 . S
O906 C891 1.258 . S
O907 Nd881 2.492 . S
O907 C891 1.239 . S
O908 Nd881 2.487 . S
O908 C898 1.241 . S
O909 Nd880 2.414 . S
O909 Nd881 2.682 . S
O909 C898 1.273 . S
O910 Nd881 2.410 . S
O910 C899 1.251 . S
O911 Nd880 2.424 . S
O911 C899 1.268 . S
H912 C884 0.930 . S
H913 C885 0.929 . S
H914 C887 0.930 . S
H915 C888 0.929 . S
H916 C893 0.930 . S
H917 C894 0.929 . S
H918 C896 0.930 . S
H919 C897 0.929 . S
Nd920 C922 2.836 . S
Nd920 O940 2.500 . S
Nd920 O941 2.492 . S
Nd920 O942 2.487 . S
Nd920 O943 2.682 . S
Nd920 O944 2.410 . S
Nd920 O949 2.414 . S
Nd920 O951 2.424 . S
Nd921 C931 2.836 . S
Nd921 O943 2.414 . S
Nd921 O945 2.424 . S
Nd921 O946 2.500 . S
Nd921 O947 2.492 . S
Nd921 O948 2.487 . S
Nd921 O949 2.682 . S
Nd921 O950 2.410 . S
C922 Nd920 2.836 . S
C922 C923 1.498 . S
C922 O940 1.258 . S
C922 O941 1.239 . S
C923 C922 1.498 . S
C923 C924 1.366 . S
C923 C928 1.407 . S
C924 C923 1.366 . S
C924 C925 1.392 . S
C924 H952 0.930 . S
C925 C924 1.392 . S
C925 C926 1.398 . S
C925 H953 0.929 . S
C926 C925 1.398 . S
C926 C927 1.352 . S
C927 C926 1.352 . S
C927 C928 1.384 . S
C927 H954 0.930 . S
C928 C923 1.407 . S
C928 C927 1.384 . S
C928 H955 0.929 . S
C929 O942 1.241 . S
C929 O943 1.273 . S
C930 O944 1.251 . S
C930 O945 1.268 . S
C931 Nd921 2.836 . S
C931 C932 1.498 . S
C931 O946 1.258 . S
C931 O947 1.239 . S
C932 C931 1.498 . S
C932 C933 1.366 . S
C932 C937 1.407 . S
C933 C932 1.366 . S
C933 C934 1.392 1_556 S
C933 H956 0.930 . S
C934 C933 1.392 1_554 S
C934 C935 1.398 . S
C934 H957 0.929 . S
C935 C934 1.398 . S
C935 C936 1.352 . S
C936 C935 1.352 . S
C936 C937 1.384 1_554 S
C936 H958 0.930 . S
C937 C932 1.407 . S
C937 C936 1.384 1_556 S
C937 H959 0.929 . S
C938 O948 1.241 . S
C938 O949 1.273 . S
C939 O950 1.251 . S
C939 O951 1.268 . S
O940 Nd920 2.500 . S
O940 C922 1.258 . S
O941 Nd920 2.492 . S
O941 C922 1.239 . S
O942 Nd920 2.487 . S
O942 C929 1.241 . S
O943 Nd920 2.682 . S
O943 Nd921 2.414 . S
O943 C929 1.273 . S
O944 Nd920 2.410 . S
O944 C930 1.251 . S
O945 Nd921 2.424 . S
O945 C930 1.268 . S
O946 Nd921 2.500 . S
O946 C931 1.258 . S
O947 Nd921 2.492 . S
O947 C931 1.239 . S
O948 Nd921 2.487 . S
O948 C938 1.241 . S
O949 Nd920 2.414 . S
O949 Nd921 2.682 . S
O949 C938 1.273 . S
O950 Nd921 2.410 . S
O950 C939 1.251 . S
O951 Nd920 2.424 . S
O951 C939 1.268 . S
H952 C924 0.930 . S
H953 C925 0.929 . S
H954 C927 0.930 . S
H955 C928 0.929 . S
H956 C933 0.930 . S
H957 C934 0.929 . S
H958 C936 0.930 . S
H959 C937 0.929 . S
Nd960 C962 2.836 . S
Nd960 O980 2.500 . S
Nd960 O981 2.492 . S
Nd960 O982 2.487 . S
Nd960 O983 2.682 . S
Nd960 O984 2.410 . S
Nd960 O989 2.414 . S
Nd960 O991 2.424 . S
Nd961 C971 2.836 . S
Nd961 O983 2.414 . S
Nd961 O985 2.424 . S
Nd961 O986 2.500 . S
Nd961 O987 2.492 . S
Nd961 O988 2.487 . S
Nd961 O989 2.682 . S
Nd961 O990 2.410 . S
C962 Nd960 2.836 . S
C962 C963 1.498 . S
C962 O980 1.258 . S
C962 O981 1.239 . S
C963 C962 1.498 . S
C963 C964 1.366 . S
C963 C968 1.407 . S
C964 C963 1.366 . S
C964 C965 1.392 . S
C964 H992 0.930 . S
C965 C964 1.392 . S
C965 C966 1.398 . S
C965 H993 0.929 . S
C966 C965 1.398 . S
C966 C967 1.352 . S
C967 C966 1.352 . S
C967 C968 1.384 . S
C967 H994 0.930 . S
C968 C963 1.407 . S
C968 C967 1.384 . S
C968 H995 0.929 . S
C969 O982 1.241 . S
C969 O983 1.273 . S
C970 O984 1.251 . S
C970 O985 1.268 . S
C971 Nd961 2.836 . S
C971 C972 1.498 . S
C971 O986 1.258 . S
C971 O987 1.239 . S
C972 C971 1.498 . S
C972 C973 1.366 . S
C972 C977 1.407 . S
C973 C972 1.366 . S
C973 C974 1.392 . S
C973 H996 0.930 . S
C974 C973 1.392 . S
C974 C975 1.398 . S
C974 H997 0.929 . S
C975 C974 1.398 . S
C975 C976 1.352 . S
C976 C975 1.352 . S
C976 C977 1.384 . S
C976 H998 0.930 . S
C977 C972 1.407 . S
C977 C976 1.384 . S
C977 H999 0.929 . S
C978 O988 1.241 . S
C978 O989 1.273 . S
C979 O990 1.251 . S
C979 O991 1.268 . S
O980 Nd960 2.500 . S
O980 C962 1.258 . S
O981 Nd960 2.492 . S
O981 C962 1.239 . S
O982 Nd960 2.487 . S
O982 C969 1.241 . S
O983 Nd960 2.682 . S
O983 Nd961 2.414 . S
O983 C969 1.273 . S
O984 Nd960 2.410 . S
O984 C970 1.251 . S
O985 Nd961 2.424 . S
O985 C970 1.268 . S
O986 Nd961 2.500 . S
O986 C971 1.258 . S
O987 Nd961 2.492 . S
O987 C971 1.239 . S
O988 Nd961 2.487 . S
O988 C978 1.241 . S
O989 Nd960 2.414 . S
O989 Nd961 2.682 . S
O989 C978 1.273 . S
O990 Nd961 2.410 . S
O990 C979 1.251 . S
O991 Nd960 2.424 . S
O991 C979 1.268 . S
H992 C964 0.930 . S
H993 C965 0.929 . S
H994 C967 0.930 . S
H995 C968 0.929 . S
H996 C973 0.930 . S
H997 C974 0.929 . S
H998 C976 0.930 . S
H999 C977 0.929 . S
Nd1000 C1002 2.836 . S
Nd1000 O1020 2.500 . S
Nd1000 O1021 2.492 . S
Nd1000 O1022 2.487 . S
Nd1000 O1023 2.682 . S
Nd1000 O1024 2.410 . S
Nd1000 O1029 2.414 . S
Nd1000 O1031 2.424 . S
Nd1001 C1011 2.836 . S
Nd1001 O1023 2.414 . S
Nd1001 O1025 2.424 . S
Nd1001 O1026 2.500 . S
Nd1001 O1027 2.492 . S
Nd1001 O1028 2.487 . S
Nd1001 O1029 2.682 . S
Nd1001 O1030 2.410 . S
C1002 Nd1000 2.836 . S
C1002 C1003 1.498 . S
C1002 O1020 1.258 . S
C1002 O1021 1.239 . S
C1003 C1002 1.498 . S
C1003 C1004 1.366 . S
C1003 C1008 1.407 . S
C1004 C1003 1.366 . S
C1004 C1005 1.392 . S
C1004 H1032 0.930 . S
C1005 C1004 1.392 . S
C1005 C1006 1.398 . S
C1005 H1033 0.929 . S
C1006 C1005 1.398 . S
C1006 C1007 1.352 . S
C1007 C1006 1.352 . S
C1007 C1008 1.384 . S
C1007 H1034 0.930 . S
C1008 C1003 1.407 . S
C1008 C1007 1.384 . S
C1008 H1035 0.929 . S
C1009 O1022 1.241 . S
C1009 O1023 1.273 . S
C1010 O1024 1.251 . S
C1010 O1025 1.268 . S
C1011 Nd1001 2.836 . S
C1011 C1012 1.498 . S
C1011 O1026 1.258 . S
C1011 O1027 1.239 . S
C1012 C1011 1.498 . S
C1012 C1013 1.366 . S
C1012 C1017 1.407 . S
C1013 C1012 1.366 . S
C1013 C1014 1.392 . S
C1013 H1036 0.930 . S
C1014 C1013 1.392 . S
C1014 C1015 1.398 . S
C1014 H1037 0.929 . S
C1015 C1014 1.398 . S
C1015 C1016 1.352 . S
C1016 C1015 1.352 . S
C1016 C1017 1.384 . S
C1016 H1038 0.930 . S
C1017 C1012 1.407 . S
C1017 C1016 1.384 . S
C1017 H1039 0.929 . S
C1018 O1028 1.241 . S
C1018 O1029 1.273 . S
C1019 O1030 1.251 . S
C1019 O1031 1.268 . S
O1020 Nd1000 2.500 . S
O1020 C1002 1.258 . S
O1021 Nd1000 2.492 . S
O1021 C1002 1.239 . S
O1022 Nd1000 2.487 . S
O1022 C1009 1.241 . S
O1023 Nd1000 2.682 . S
O1023 Nd1001 2.414 . S
O1023 C1009 1.273 . S
O1024 Nd1000 2.410 . S
O1024 C1010 1.251 . S
O1025 Nd1001 2.424 . S
O1025 C1010 1.268 . S
O1026 Nd1001 2.500 . S
O1026 C1011 1.258 . S
O1027 Nd1001 2.492 . S
O1027 C1011 1.239 . S
O1028 Nd1001 2.487 . S
O1028 C1018 1.241 . S
O1029 Nd1000 2.414 . S
O1029 Nd1001 2.682 . S
O1029 C1018 1.273 . S
O1030 Nd1001 2.410 . S
O1030 C1019 1.251 . S
O1031 Nd1000 2.424 . S
O1031 C1019 1.268 . S
H1032 C1004 0.930 . S
H1033 C1005 0.929 . S
H1034 C1007 0.930 . S
H1035 C1008 0.929 . S
H1036 C1013 0.930 . S
H1037 C1014 0.929 . S
H1038 C1016 0.930 . S
H1039 C1017 0.929 . S
Nd1040 C1042 2.836 . S
Nd1040 O1060 2.500 . S
Nd1040 O1061 2.492 . S
Nd1040 O1062 2.487 . S
Nd1040 O1063 2.682 . S
Nd1040 O1064 2.410 . S
Nd1040 O1069 2.414 . S
Nd1040 O1071 2.424 . S
Nd1041 C1051 2.836 . S
Nd1041 O1063 2.414 . S
Nd1041 O1065 2.424 . S
Nd1041 O1066 2.500 . S
Nd1041 O1067 2.492 . S
Nd1041 O1068 2.487 . S
Nd1041 O1069 2.682 . S
Nd1041 O1070 2.410 . S
C1042 Nd1040 2.836 . S
C1042 C1043 1.498 . S
C1042 O1060 1.258 . S
C1042 O1061 1.239 . S
C1043 C1042 1.498 . S
C1043 C1044 1.366 . S
C1043 C1048 1.404 . S
C1044 C1043 1.366 . S
C1044 C1045 1.392 . S
C1044 H1072 0.930 . S
C1045 C1044 1.392 . S
C1045 C1046 1.398 1_554 S
C1045 H1073 0.929 1_554 S
C1046 C1045 1.398 1_556 S
C1046 C1047 1.352 1_456 S
C1047 C1046 1.352 1_654 S
C1047 C1048 1.385 1_655 S
C1047 H1074 0.930 . S
C1048 C1043 1.404 . S
C1048 C1047 1.385 1_455 S
C1048 H1075 0.931 1_455 S
C1049 O1062 1.241 . S
C1049 O1063 1.273 . S
C1050 O1064 1.251 . S
C1050 O1065 1.268 . S
C1051 Nd1041 2.836 . S
C1051 C1052 1.498 . S
C1051 O1066 1.258 . S
C1051 O1067 1.239 . S
C1052 C1051 1.498 . S
C1052 C1053 1.366 . S
C1052 C1057 1.407 . S
C1053 C1052 1.366 . S
C1053 C1054 1.392 . S
C1053 H1076 0.930 . S
C1054 C1053 1.392 . S
C1054 C1055 1.398 . S
C1054 H1077 0.929 . S
C1055 C1054 1.398 . S
C1055 C1056 1.352 . S
C1056 C1055 1.352 . S
C1056 C1057 1.384 . S
C1056 H1078 0.930 . S
C1057 C1052 1.407 . S
C1057 C1056 1.384 . S
C1057 H1079 0.929 . S
C1058 O1068 1.241 . S
C1058 O1069 1.273 . S
C1059 O1070 1.251 . S
C1059 O1071 1.268 . S
O1060 Nd1040 2.500 . S
O1060 C1042 1.258 . S
O1061 Nd1040 2.492 . S
O1061 C1042 1.239 . S
O1062 Nd1040 2.487 . S
O1062 C1049 1.241 . S
O1063 Nd1040 2.682 . S
O1063 Nd1041 2.414 . S
O1063 C1049 1.273 . S
O1064 Nd1040 2.410 . S
O1064 C1050 1.251 . S
O1065 Nd1041 2.424 . S
O1065 C1050 1.268 . S
O1066 Nd1041 2.500 . S
O1066 C1051 1.258 . S
O1067 Nd1041 2.492 . S
O1067 C1051 1.239 . S
O1068 Nd1041 2.487 . S
O1068 C1058 1.241 . S
O1069 Nd1040 2.414 . S
O1069 Nd1041 2.682 . S
O1069 C1058 1.273 . S
O1070 Nd1041 2.410 . S
O1070 C1059 1.251 . S
O1071 Nd1040 2.424 . S
O1071 C1059 1.268 . S
H1072 C1044 0.930 . S
H1073 C1045 0.929 1_556 S
H1074 C1047 0.930 . S
H1075 C1048 0.931 1_655 S
H1076 C1053 0.930 . S
H1077 C1054 0.929 . S
H1078 C1056 0.930 . S
H1079 C1057 0.929 . S
Nd1080 C1082 2.836 . S
Nd1080 O1100 2.500 . S
Nd1080 O1101 2.492 . S
Nd1080 O1102 2.487 . S
Nd1080 O1103 2.682 . S
Nd1080 O1104 2.410 . S
Nd1080 O1109 2.414 . S
Nd1080 O1111 2.424 . S
Nd1081 C1091 2.836 1_556 S
Nd1081 O1103 2.414 . S
Nd1081 O1105 2.424 . S
Nd1081 O1106 2.500 1_556 S
Nd1081 O1107 2.492 1_556 S
Nd1081 O1108 2.487 . S
Nd1081 O1109 2.682 . S
Nd1081 O1110 2.410 1_556 S
C1082 Nd1080 2.836 . S
C1082 C1083 1.498 . S
C1082 O1100 1.258 . S
C1082 O1101 1.239 . S
C1083 C1082 1.498 . S
C1083 C1084 1.366 . S
C1083 C1088 1.407 . S
C1084 C1083 1.366 . S
C1084 C1085 1.392 . S
C1084 H1112 0.930 . S
C1085 C1084 1.392 . S
C1085 C1086 1.398 . S
C1085 H1113 0.929 . S
C1086 C1085 1.398 . S
C1086 C1087 1.352 . S
C1087 C1086 1.352 . S
C1087 C1088 1.384 . S
C1087 H1114 0.930 . S
C1088 C1083 1.407 . S
C1088 C1087 1.384 . S
C1088 H1115 0.929 . S
C1089 O1102 1.241 . S
C1089 O1103 1.273 . S
C1090 O1104 1.251 . S
C1090 O1105 1.268 . S
C1091 Nd1081 2.836 1_554 S
C1091 C1092 1.498 . S
C1091 O1106 1.258 . S
C1091 O1107 1.239 . S
C1092 C1091 1.498 . S
C1092 C1093 1.366 . S
C1092 C1097 1.407 . S
C1093 C1092 1.366 . S
C1093 C1094 1.392 . S
C1093 H1116 0.930 . S
C1094 C1093 1.392 . S
C1094 C1095 1.398 . S
C1094 H1117 0.929 . S
C1095 C1094 1.398 . S
C1095 C1096 1.352 . S
C1096 C1095 1.352 . S
C1096 C1097 1.384 . S
C1096 H1118 0.930 . S
C1097 C1092 1.407 . S
C1097 C1096 1.384 . S
C1097 H1119 0.929 . S
C1098 O1108 1.241 . S
C1098 O1109 1.273 . S
C1099 O1110 1.251 . S
C1099 O1111 1.268 1_554 S
O1100 Nd1080 2.500 . S
O1100 C1082 1.258 . S
O1101 Nd1080 2.492 . S
O1101 C1082 1.239 . S
O1102 Nd1080 2.487 . S
O1102 C1089 1.241 . S
O1103 Nd1080 2.682 . S
O1103 Nd1081 2.414 . S
O1103 C1089 1.273 . S
O1104 Nd1080 2.410 . S
O1104 C1090 1.251 . S
O1105 Nd1081 2.424 . S
O1105 C1090 1.268 . S
O1106 Nd1081 2.500 1_554 S
O1106 C1091 1.258 . S
O1107 Nd1081 2.492 1_554 S
O1107 C1091 1.239 . S
O1108 Nd1081 2.487 . S
O1108 C1098 1.241 . S
O1109 Nd1080 2.414 . S
O1109 Nd1081 2.682 . S
O1109 C1098 1.273 . S
O1110 Nd1081 2.410 1_554 S
O1110 C1099 1.251 . S
O1111 Nd1080 2.424 . S
O1111 C1099 1.268 1_556 S
H1112 C1084 0.930 . S
H1113 C1085 0.929 . S
H1114 C1087 0.930 . S
H1115 C1088 0.929 . S
H1116 C1093 0.930 . S
H1117 C1094 0.929 . S
H1118 C1096 0.930 . S
H1119 C1097 0.929 . S
Nd1120 C1122 2.836 . S
Nd1120 O1140 2.500 . S
Nd1120 O1141 2.492 . S
Nd1120 O1142 2.487 . S
Nd1120 O1143 2.682 . S
Nd1120 O1144 2.410 . S
Nd1120 O1149 2.414 . S
Nd1120 O1151 2.424 . S
Nd1121 C1131 2.836 . S
Nd1121 O1143 2.414 . S
Nd1121 O1145 2.424 . S
Nd1121 O1146 2.500 . S
Nd1121 O1147 2.492 1_565 S
Nd1121 O1148 2.475 1_565 S
Nd1121 O1149 2.682 . S
Nd1121 O1150 2.410 . S
C1122 Nd1120 2.836 . S
C1122 C1123 1.498 . S
C1122 O1140 1.258 . S
C1122 O1141 1.239 . S
C1123 C1122 1.498 . S
C1123 C1124 1.366 . S
C1123 C1128 1.407 . S
C1124 C1123 1.366 . S
C1124 C1125 1.392 . S
C1124 H1152 0.930 . S
C1125 C1124 1.392 . S
C1125 C1126 1.398 . S
C1125 H1153 0.929 . S
C1126 C1125 1.398 . S
C1126 C1127 1.352 . S
C1127 C1126 1.352 . S
C1127 C1128 1.384 . S
C1127 H1154 0.930 . S
C1128 C1123 1.407 . S
C1128 C1127 1.384 . S
C1128 H1155 0.929 . S
C1129 O1142 1.241 . S
C1129 O1143 1.273 . S
C1130 O1144 1.251 . S
C1130 O1145 1.268 . S
C1131 Nd1121 2.836 . S
C1131 C1132 1.498 1_565 S
C1131 O1146 1.258 . S
C1131 O1147 1.239 1_565 S
C1132 C1131 1.498 1_545 S
C1132 C1133 1.366 1_545 S
C1132 C1137 1.407 . S
C1133 C1132 1.366 1_565 S
C1133 C1134 1.392 . S
C1133 H1156 0.930 . S
C1134 C1133 1.392 . S
C1134 C1135 1.398 1_565 S
C1134 H1157 0.929 . S
C1135 C1134 1.398 1_545 S
C1135 C1136 1.352 . S
C1136 C1135 1.352 . S
C1136 C1137 1.384 . S
C1136 H1158 0.930 . S
C1137 C1132 1.407 . S
C1137 C1136 1.384 . S
C1137 H1159 0.929 . S
C1138 O1148 1.224 1_565 S
C1138 O1149 1.273 . S
C1139 O1150 1.251 . S
C1139 O1151 1.268 . S
O1140 Nd1120 2.500 . S
O1140 C1122 1.258 . S
O1141 Nd1120 2.492 . S
O1141 C1122 1.239 . S
O1142 Nd1120 2.487 . S
O1142 C1129 1.241 . S
O1143 Nd1120 2.682 . S
O1143 Nd1121 2.414 . S
O1143 C1129 1.273 . S
O1144 Nd1120 2.410 . S
O1144 C1130 1.251 . S
O1145 Nd1121 2.424 . S
O1145 C1130 1.268 . S
O1146 Nd1121 2.500 . S
O1146 C1131 1.258 . S
O1147 Nd1121 2.492 1_545 S
O1147 C1131 1.239 1_545 S
O1148 Nd1121 2.475 1_545 S
O1148 C1138 1.224 1_545 S
O1149 Nd1120 2.414 . S
O1149 Nd1121 2.682 . S
O1149 C1138 1.273 . S
O1150 Nd1121 2.410 . S
O1150 C1139 1.251 . S
O1151 Nd1120 2.424 . S
O1151 C1139 1.268 . S
H1152 C1124 0.930 . S
H1153 C1125 0.929 . S
H1154 C1127 0.930 . S
H1155 C1128 0.929 . S
H1156 C1133 0.930 . S
H1157 C1134 0.929 . S
H1158 C1136 0.930 . S
H1159 C1137 0.929 . S
Nd1160 C1162 2.836 . S
Nd1160 O1180 2.500 . S
Nd1160 O1181 2.492 . S
Nd1160 O1182 2.487 . S
Nd1160 O1183 2.682 1_556 S
Nd1160 O1184 2.410 . S
Nd1160 O1189 2.414 . S
Nd1160 O1191 2.424 1_556 S
Nd1161 C1171 2.836 . S
Nd1161 O1183 2.414 . S
Nd1161 O1185 2.424 1_554 S
Nd1161 O1186 2.500 . S
Nd1161 O1187 2.492 . S
Nd1161 O1188 2.487 . S
Nd1161 O1189 2.682 1_554 S
Nd1161 O1190 2.410 . S
C1162 Nd1160 2.836 . S
C1162 C1163 1.498 . S
C1162 O1180 1.258 . S
C1162 O1181 1.239 . S
C1163 C1162 1.498 . S
C1163 C1164 1.366 . S
C1163 C1168 1.407 . S
C1164 C1163 1.366 . S
C1164 C1165 1.392 . S
C1164 H1192 0.930 . S
C1165 C1164 1.392 . S
C1165 C1166 1.398 . S
C1165 H1193 0.929 . S
C1166 C1165 1.398 . S
C1166 C1167 1.352 . S
C1167 C1166 1.352 . S
C1167 C1168 1.384 . S
C1167 H1194 0.930 . S
C1168 C1163 1.407 . S
C1168 C1167 1.384 . S
C1168 H1195 0.929 . S
C1169 O1182 1.241 1_554 S
C1169 O1183 1.273 . S
C1170 O1184 1.251 . S
C1170 O1185 1.268 . S
C1171 Nd1161 2.836 . S
C1171 C1172 1.498 . S
C1171 O1186 1.258 . S
C1171 O1187 1.239 . S
C1172 C1171 1.498 . S
C1172 C1173 1.366 . S
C1172 C1177 1.407 . S
C1173 C1172 1.366 . S
C1173 C1174 1.392 . S
C1173 H1196 0.930 . S
C1174 C1173 1.392 . S
C1174 C1175 1.398 . S
C1174 H1197 0.929 . S
C1175 C1174 1.398 . S
C1175 C1176 1.352 . S
C1176 C1175 1.352 . S
C1176 C1177 1.384 . S
C1176 H1198 0.930 . S
C1177 C1172 1.407 . S
C1177 C1176 1.384 . S
C1177 H1199 0.929 . S
C1178 O1188 1.241 1_556 S
C1178 O1189 1.273 . S
C1179 O1190 1.251 . S
C1179 O1191 1.268 . S
O1180 Nd1160 2.500 . S
O1180 C1162 1.258 . S
O1181 Nd1160 2.492 . S
O1181 C1162 1.239 . S
O1182 Nd1160 2.487 . S
O1182 C1169 1.241 1_556 S
O1183 Nd1160 2.682 1_554 S
O1183 Nd1161 2.414 . S
O1183 C1169 1.273 . S
O1184 Nd1160 2.410 . S
O1184 C1170 1.251 . S
O1185 Nd1161 2.424 1_556 S
O1185 C1170 1.268 . S
O1186 Nd1161 2.500 . S
O1186 C1171 1.258 . S
O1187 Nd1161 2.492 . S
O1187 C1171 1.239 . S
O1188 Nd1161 2.487 . S
O1188 C1178 1.241 1_554 S
O1189 Nd1160 2.414 . S
O1189 Nd1161 2.682 1_556 S
O1189 C1178 1.273 . S
O1190 Nd1161 2.410 . S
O1190 C1179 1.251 . S
O1191 Nd1160 2.424 1_554 S
O1191 C1179 1.268 . S
H1192 C1164 0.930 . S
H1193 C1165 0.929 . S
H1194 C1167 0.930 . S
H1195 C1168 0.929 . S
H1196 C1173 0.930 . S
H1197 C1174 0.929 . S
H1198 C1176 0.930 . S
H1199 C1177 0.929 . S
Nd1200 C1202 2.836 . S
Nd1200 O1220 2.500 . S
Nd1200 O1221 2.492 . S
Nd1200 O1222 2.487 . S
Nd1200 O1223 2.682 . S
Nd1200 O1224 2.410 . S
Nd1200 O1229 2.414 . S
Nd1200 O1231 2.424 . S
Nd1201 C1211 2.836 . S
Nd1201 O1223 2.414 . S
Nd1201 O1225 2.424 . S
Nd1201 O1226 2.500 . S
Nd1201 O1227 2.492 1_545 S
Nd1201 O1228 2.477 1_545 S
Nd1201 O1229 2.682 . S
Nd1201 O1230 2.410 . S
C1202 Nd1200 2.836 . S
C1202 C1203 1.498 . S
C1202 O1220 1.258 . S
C1202 O1221 1.239 . S
C1203 C1202 1.498 . S
C1203 C1204 1.366 . S
C1203 C1208 1.407 . S
C1204 C1203 1.366 . S
C1204 C1205 1.392 . S
C1204 H1232 0.930 . S
C1205 C1204 1.392 . S
C1205 C1206 1.398 . S
C1205 H1233 0.929 . S
C1206 C1205 1.398 . S
C1206 C1207 1.352 . S
C1207 C1206 1.352 . S
C1207 C1208 1.384 . S
C1207 H1234 0.930 . S
C1208 C1203 1.407 . S
C1208 C1207 1.384 . S
C1208 H1235 0.929 . S
C1209 O1222 1.241 . S
C1209 O1223 1.273 . S
C1210 O1224 1.251 . S
C1210 O1225 1.268 . S
C1211 Nd1201 2.836 . S
C1211 C1212 1.498 1_545 S
C1211 O1226 1.258 . S
C1211 O1227 1.239 1_545 S
C1212 C1211 1.498 1_565 S
C1212 C1213 1.366 1_565 S
C1212 C1217 1.407 . S
C1213 C1212 1.366 1_545 S
C1213 C1214 1.392 . S
C1213 H1236 0.930 . S
C1214 C1213 1.392 . S
C1214 C1215 1.398 1_545 S
C1214 H1237 0.929 . S
C1215 C1214 1.398 1_565 S
C1215 C1216 1.352 . S
C1216 C1215 1.352 . S
C1216 C1217 1.384 . S
C1216 H1238 0.930 . S
C1217 C1212 1.407 . S
C1217 C1216 1.384 . S
C1217 H1239 0.929 . S
C1218 O1228 1.226 1_545 S
C1218 O1229 1.273 . S
C1219 O1230 1.251 . S
C1219 O1231 1.268 . S
O1220 Nd1200 2.500 . S
O1220 C1202 1.258 . S
O1221 Nd1200 2.492 . S
O1221 C1202 1.239 . S
O1222 Nd1200 2.487 . S
O1222 C1209 1.241 . S
O1223 Nd1200 2.682 . S
O1223 Nd1201 2.414 . S
O1223 C1209 1.273 . S
O1224 Nd1200 2.410 . S
O1224 C1210 1.251 . S
O1225 Nd1201 2.424 . S
O1225 C1210 1.268 . S
O1226 Nd1201 2.500 . S
O1226 C1211 1.258 . S
O1227 Nd1201 2.492 1_565 S
O1227 C1211 1.239 1_565 S
O1228 Nd1201 2.477 1_565 S
O1228 C1218 1.226 1_565 S
O1229 Nd1200 2.414 . S
O1229 Nd1201 2.682 . S
O1229 C1218 1.273 . S
O1230 Nd1201 2.410 . S
O1230 C1219 1.251 . S
O1231 Nd1200 2.424 . S
O1231 C1219 1.268 . S
H1232 C1204 0.930 . S
H1233 C1205 0.929 . S
H1234 C1207 0.930 . S
H1235 C1208 0.929 . S
H1236 C1213 0.930 . S
H1237 C1214 0.929 . S
H1238 C1216 0.930 . S
H1239 C1217 0.929 . S
Nd1240 C1242 2.836 . S
Nd1240 O1260 2.500 . S
Nd1240 O1261 2.492 . S
Nd1240 O1262 2.487 . S
Nd1240 O1263 2.682 . S
Nd1240 O1264 2.410 . S
Nd1240 O1269 2.414 . S
Nd1240 O1271 2.424 . S
Nd1241 C1251 2.836 . S
Nd1241 O1263 2.414 . S
Nd1241 O1265 2.424 . S
Nd1241 O1266 2.500 . S
Nd1241 O1267 2.492 . S
Nd1241 O1268 2.487 . S
Nd1241 O1269 2.682 . S
Nd1241 O1270 2.410 . S
C1242 Nd1240 2.836 . S
C1242 C1243 1.498 . S
C1242 O1260 1.258 . S
C1242 O1261 1.239 . S
C1243 C1242 1.498 . S
C1243 C1244 1.366 . S
C1243 C1248 1.407 . S
C1244 C1243 1.366 . S
C1244 C1245 1.392 . S
C1244 H1272 0.930 . S
C1245 C1244 1.392 . S
C1245 C1246 1.398 . S
C1245 H1273 0.929 . S
C1246 C1245 1.398 . S
C1246 C1247 1.352 . S
C1247 C1246 1.352 . S
C1247 C1248 1.384 . S
C1247 H1274 0.930 . S
C1248 C1243 1.407 . S
C1248 C1247 1.384 . S
C1248 H1275 0.929 . S
C1249 O1262 1.241 . S
C1249 O1263 1.273 . S
C1250 O1264 1.251 . S
C1250 O1265 1.268 . S
C1251 Nd1241 2.836 . S
C1251 C1252 1.498 . S
C1251 O1266 1.258 . S
C1251 O1267 1.239 . S
C1252 C1251 1.498 . S
C1252 C1253 1.366 . S
C1252 C1257 1.407 . S
C1253 C1252 1.366 . S
C1253 C1254 1.392 . S
C1253 H1276 0.930 . S
C1254 C1253 1.392 . S
C1254 C1255 1.398 . S
C1254 H1277 0.929 . S
C1255 C1254 1.398 . S
C1255 C1256 1.352 . S
C1256 C1255 1.352 . S
C1256 C1257 1.384 . S
C1256 H1278 0.930 . S
C1257 C1252 1.407 . S
C1257 C1256 1.384 . S
C1257 H1279 0.929 . S
C1258 O1268 1.241 . S
C1258 O1269 1.273 . S
C1259 O1270 1.251 . S
C1259 O1271 1.268 . S
O1260 Nd1240 2.500 . S
O1260 C1242 1.258 . S
O1261 Nd1240 2.492 . S
O1261 C1242 1.239 . S
O1262 Nd1240 2.487 . S
O1262 C1249 1.241 . S
O1263 Nd1240 2.682 . S
O1263 Nd1241 2.414 . S
O1263 C1249 1.273 . S
O1264 Nd1240 2.410 . S
O1264 C1250 1.251 . S
O1265 Nd1241 2.424 . S
O1265 C1250 1.268 . S
O1266 Nd1241 2.500 . S
O1266 C1251 1.258 . S
O1267 Nd1241 2.492 . S
O1267 C1251 1.239 . S
O1268 Nd1241 2.487 . S
O1268 C1258 1.241 . S
O1269 Nd1240 2.414 . S
O1269 Nd1241 2.682 . S
O1269 C1258 1.273 . S
O1270 Nd1241 2.410 . S
O1270 C1259 1.251 . S
O1271 Nd1240 2.424 . S
O1271 C1259 1.268 . S
H1272 C1244 0.930 . S
H1273 C1245 0.929 . S
H1274 C1247 0.930 . S
H1275 C1248 0.929 . S
H1276 C1253 0.930 . S
H1277 C1254 0.929 . S
H1278 C1256 0.930 . S
H1279 C1257 0.929 . S
H1280 C1288 0.950 . S
H1281 C1293 0.950 . S
H1282 C1290 0.950 . S
H1283 C1292 0.950 . S
H1284 C1294 0.950 . S
H1285 C1296 0.950 . S
H1286 C1298 0.950 . S
H1287 C1299 0.950 . S
C1288 H1280 0.950 . S
C1288 C1289 1.386 . S
C1288 C1290 1.391 . S
C1289 C1288 1.386 . S
C1289 C1293 1.393 . S
C1290 H1282 0.950 . S
C1290 C1288 1.391 . S
C1290 C1291 1.400 . S
C1291 C1290 1.400 . S
C1291 C1292 1.398 . S
C1291 C1297 1.491 . S
C1292 H1283 0.950 . S
C1292 C1291 1.398 . S
C1292 C1293 1.391 . S
C1293 H1281 0.950 . S
C1293 C1289 1.393 . S
C1293 C1292 1.391 . S
C1294 H1284 0.950 . S
C1294 C1295 1.386 . S
C1294 C1296 1.391 . S
C1295 C1294 1.386 . S
C1295 C1299 1.393 . S
C1296 H1285 0.950 . S
C1296 C1294 1.391 . S
C1296 C1297 1.400 . S
C1297 C1291 1.491 . S
C1297 C1296 1.400 . S
C1297 C1298 1.398 . S
C1298 H1286 0.950 . S
C1298 C1297 1.398 . S
C1298 C1299 1.391 . S
C1299 H1287 0.950 . S
C1299 C1295 1.393 . S
C1299 C1298 1.391 . S
H1300 C1308 0.950 . S
H1301 C1313 0.950 . S
H1302 C1310 0.950 . S
H1303 C1312 0.950 . S
H1304 C1314 0.950 . S
H1305 C1316 0.950 . S
H1306 C1318 0.950 . S
H1307 C1319 0.950 . S
C1308 H1300 0.950 . S
C1308 C1309 1.386 . S
C1308 C1310 1.391 . S
C1309 C1308 1.386 . S
C1309 C1313 1.393 . S
C1310 H1302 0.950 . S
C1310 C1308 1.391 . S
C1310 C1311 1.400 . S
C1311 C1310 1.400 . S
C1311 C1312 1.398 . S
C1311 C1317 1.491 . S
C1312 H1303 0.950 . S
C1312 C1311 1.398 . S
C1312 C1313 1.391 . S
C1313 H1301 0.950 . S
C1313 C1309 1.393 . S
C1313 C1312 1.391 . S
C1314 H1304 0.950 . S
C1314 C1315 1.386 . S
C1314 C1316 1.391 . S
C1315 C1314 1.386 . S
C1315 C1319 1.393 . S
C1316 H1305 0.950 . S
C1316 C1314 1.391 . S
C1316 C1317 1.400 . S
C1317 C1311 1.491 . S
C1317 C1316 1.400 . S
C1317 C1318 1.398 . S
C1318 H1306 0.950 . S
C1318 C1317 1.398 . S
C1318 C1319 1.391 . S
C1319 H1307 0.950 . S
C1319 C1315 1.393 . S
C1319 C1318 1.391 . S
H1320 C1328 0.950 . S
H1321 C1333 0.950 . S
H1322 C1330 0.950 . S
H1323 C1332 0.950 . S
H1324 C1334 0.950 . S
H1325 C1336 0.950 . S
H1326 C1338 0.950 . S
H1327 C1339 0.950 . S
C1328 H1320 0.950 . S
C1328 C1329 1.386 . S
C1328 C1330 1.391 . S
C1329 C1328 1.386 . S
C1329 C1333 1.393 . S
C1330 H1322 0.950 . S
C1330 C1328 1.391 . S
C1330 C1331 1.400 . S
C1331 C1330 1.400 . S
C1331 C1332 1.398 . S
C1331 C1337 1.491 . S
C1332 H1323 0.950 . S
C1332 C1331 1.398 . S
C1332 C1333 1.391 . S
C1333 H1321 0.950 . S
C1333 C1329 1.393 . S
C1333 C1332 1.391 . S
C1334 H1324 0.950 . S
C1334 C1335 1.386 . S
C1334 C1336 1.391 . S
C1335 C1334 1.386 . S
C1335 C1339 1.393 . S
C1336 H1325 0.950 . S
C1336 C1334 1.391 . S
C1336 C1337 1.400 . S
C1337 C1331 1.491 . S
C1337 C1336 1.400 . S
C1337 C1338 1.398 . S
C1338 H1326 0.950 . S
C1338 C1337 1.398 . S
C1338 C1339 1.391 . S
C1339 H1327 0.950 . S
C1339 C1335 1.393 . S
C1339 C1338 1.391 . S
H1340 C1348 0.950 . S
H1341 C1353 0.950 . S
H1342 C1350 0.950 . S
H1343 C1352 0.950 . S
H1344 C1354 0.950 . S
H1345 C1356 0.950 . S
H1346 C1358 0.950 . S
H1347 C1359 0.950 . S
C1348 H1340 0.950 . S
C1348 C1349 1.386 . S
C1348 C1350 1.391 . S
C1349 C1348 1.386 . S
C1349 C1353 1.393 . S
C1350 H1342 0.950 . S
C1350 C1348 1.391 . S
C1350 C1351 1.400 . S
C1351 C1350 1.400 . S
C1351 C1352 1.398 . S
C1351 C1357 1.491 . S
C1352 H1343 0.950 . S
C1352 C1351 1.398 . S
C1352 C1353 1.391 . S
C1353 H1341 0.950 . S
C1353 C1349 1.393 . S
C1353 C1352 1.391 . S
C1354 H1344 0.950 . S
C1354 C1355 1.386 . S
C1354 C1356 1.391 1_556 S
C1355 C1354 1.386 . S
C1355 C1359 1.393 . S
C1356 H1345 0.950 . S
C1356 C1354 1.391 1_554 S
C1356 C1357 1.400 . S
C1357 C1351 1.491 . S
C1357 C1356 1.400 . S
C1357 C1358 1.398 1_554 S
C1358 H1346 0.950 . S
C1358 C1357 1.398 1_556 S
C1358 C1359 1.391 . S
C1359 H1347 0.950 . S
C1359 C1355 1.393 . S
C1359 C1358 1.391 . S
H1360 C1368 0.950 . S
H1361 C1373 0.950 . S
H1362 C1370 0.950 . S
H1363 C1372 0.950 . S
H1364 C1374 0.950 . S
H1365 C1376 0.950 . S
H1366 C1378 0.950 . S
H1367 C1379 0.950 . S
C1368 H1360 0.950 . S
C1368 C1369 1.386 . S
C1368 C1370 1.391 . S
C1369 C1368 1.386 . S
C1369 C1373 1.393 . S
C1370 H1362 0.950 . S
C1370 C1368 1.391 . S
C1370 C1371 1.400 . S
C1371 C1370 1.400 . S
C1371 C1372 1.398 . S
C1371 C1377 1.491 . S
C1372 H1363 0.950 . S
C1372 C1371 1.398 . S
C1372 C1373 1.391 . S
C1373 H1361 0.950 . S
C1373 C1369 1.393 . S
C1373 C1372 1.391 . S
C1374 H1364 0.950 . S
C1374 C1375 1.386 . S
C1374 C1376 1.391 . S
C1375 C1374 1.386 . S
C1375 C1379 1.393 . S
C1376 H1365 0.950 . S
C1376 C1374 1.391 . S
C1376 C1377 1.400 1_556 S
C1377 C1371 1.491 . S
C1377 C1376 1.400 1_554 S
C1377 C1378 1.398 . S
C1378 H1366 0.950 . S
C1378 C1377 1.398 . S
C1378 C1379 1.391 1_554 S
C1379 H1367 0.950 . S
C1379 C1375 1.393 . S
C1379 C1378 1.391 1_556 S
H1380 C1388 0.950 . S
H1381 C1393 0.950 . S
H1382 C1390 0.950 . S
H1383 C1392 0.950 . S
H1384 C1394 0.950 . S
H1385 C1396 0.950 . S
H1386 C1398 0.950 . S
H1387 C1399 0.950 . S
C1388 H1380 0.950 . S
C1388 C1389 1.386 . S
C1388 C1390 1.391 . S
C1389 C1388 1.386 . S
C1389 C1393 1.393 . S
C1390 H1382 0.950 . S
C1390 C1388 1.391 . S
C1390 C1391 1.400 . S
C1391 C1390 1.400 . S
C1391 C1392 1.398 . S
C1391 C1397 1.491 . S
C1392 H1383 0.950 . S
C1392 C1391 1.398 . S
C1392 C1393 1.391 . S
C1393 H1381 0.950 . S
C1393 C1389 1.393 . S
C1393 C1392 1.391 . S
C1394 H1384 0.950 . S
C1394 C1395 1.386 . S
C1394 C1396 1.391 . S
C1395 C1394 1.386 . S
C1395 C1399 1.393 . S
C1396 H1385 0.950 . S
C1396 C1394 1.391 . S
C1396 C1397 1.400 . S
C1397 C1391 1.491 . S
C1397 C1396 1.400 . S
C1397 C1398 1.398 . S
C1398 H1386 0.950 . S
C1398 C1397 1.398 . S
C1398 C1399 1.391 . S
C1399 H1387 0.950 . S
C1399 C1395 1.393 . S
C1399 C1398 1.391 . S
H1400 C1408 0.950 . S
H1401 C1413 0.950 . S
H1402 C1410 0.950 . S
H1403 C1412 0.950 . S
H1404 C1414 0.950 . S
H1405 C1416 0.950 . S
H1406 C1418 0.950 . S
H1407 C1419 0.950 . S
C1408 H1400 0.950 . S
C1408 C1409 1.386 . S
C1408 C1410 1.391 . S
C1409 C1408 1.386 . S
C1409 C1413 1.393 . S
C1410 H1402 0.950 . S
C1410 C1408 1.391 . S
C1410 C1411 1.400 . S
C1411 C1410 1.400 . S
C1411 C1412 1.398 . S
C1411 C1417 1.491 . S
C1412 H1403 0.950 . S
C1412 C1411 1.398 . S
C1412 C1413 1.391 . S
C1413 H1401 0.950 . S
C1413 C1409 1.393 . S
C1413 C1412 1.391 . S
C1414 H1404 0.950 . S
C1414 C1415 1.386 . S
C1414 C1416 1.391 . S
C1415 C1414 1.386 . S
C1415 C1419 1.393 . S
C1416 H1405 0.950 . S
C1416 C1414 1.391 . S
C1416 C1417 1.400 . S
C1417 C1411 1.491 . S
C1417 C1416 1.400 . S
C1417 C1418 1.398 . S
C1418 H1406 0.950 . S
C1418 C1417 1.398 . S
C1418 C1419 1.391 . S
C1419 H1407 0.950 . S
C1419 C1415 1.393 . S
C1419 C1418 1.391 . S
H1420 C1428 0.950 . S
H1421 C1433 0.950 . S
H1422 C1430 0.950 . S
H1423 C1432 0.950 . S
H1424 C1434 0.950 . S
H1425 C1436 0.950 . S
H1426 C1438 0.950 . S
H1427 C1439 0.950 . S
C1428 H1420 0.950 . S
C1428 C1429 1.386 . S
C1428 C1430 1.391 . S
C1429 C1428 1.386 . S
C1429 C1433 1.393 . S
C1430 H1422 0.950 . S
C1430 C1428 1.391 . S
C1430 C1431 1.400 . S
C1431 C1430 1.400 . S
C1431 C1432 1.398 . S
C1431 C1437 1.491 . S
C1432 H1423 0.950 . S
C1432 C1431 1.398 . S
C1432 C1433 1.391 . S
C1433 H1421 0.950 . S
C1433 C1429 1.393 . S
C1433 C1432 1.391 . S
C1434 H1424 0.950 . S
C1434 C1435 1.386 . S
C1434 C1436 1.391 . S
C1435 C1434 1.386 . S
C1435 C1439 1.393 . S
C1436 H1425 0.950 . S
C1436 C1434 1.391 . S
C1436 C1437 1.400 . S
C1437 C1431 1.491 . S
C1437 C1436 1.400 . S
C1437 C1438 1.398 . S
C1438 H1426 0.950 . S
C1438 C1437 1.398 . S
C1438 C1439 1.391 . S
C1439 H1427 0.950 . S
C1439 C1435 1.393 . S
C1439 C1438 1.391 . S
H1440 C1448 0.950 . S
H1441 C1453 0.950 . S
H1442 C1450 0.950 . S
H1443 C1452 0.950 . S
H1444 C1454 0.950 . S
H1445 C1456 0.950 . S
H1446 C1458 0.950 . S
H1447 C1459 0.950 . S
C1448 H1440 0.950 . S
C1448 C1449 1.386 . S
C1448 C1450 1.391 . S
C1449 C1448 1.386 . S
C1449 C1453 1.393 . S
C1450 H1442 0.950 . S
C1450 C1448 1.391 . S
C1450 C1451 1.400 . S
C1451 C1450 1.400 . S
C1451 C1452 1.398 . S
C1451 C1457 1.491 . S
C1452 H1443 0.950 . S
C1452 C1451 1.398 . S
C1452 C1453 1.391 . S
C1453 H1441 0.950 . S
C1453 C1449 1.393 . S
C1453 C1452 1.391 . S
C1454 H1444 0.950 . S
C1454 C1455 1.386 . S
C1454 C1456 1.391 . S
C1455 C1454 1.386 . S
C1455 C1459 1.393 . S
C1456 H1445 0.950 . S
C1456 C1454 1.391 . S
C1456 C1457 1.400 . S
C1457 C1451 1.491 . S
C1457 C1456 1.400 . S
C1457 C1458 1.398 . S
C1458 H1446 0.950 . S
C1458 C1457 1.398 . S
C1458 C1459 1.391 . S
C1459 H1447 0.950 . S
C1459 C1455 1.393 . S
C1459 C1458 1.391 . S
H1460 C1468 0.950 . S
H1461 C1473 0.950 . S
H1462 C1470 0.950 . S
H1463 C1472 0.950 . S
H1464 C1474 0.950 . S
H1465 C1476 0.950 . S
H1466 C1478 0.950 . S
H1467 C1479 0.950 . S
C1468 H1460 0.950 . S
C1468 C1469 1.386 . S
C1468 C1470 1.391 1_556 S
C1469 C1468 1.386 . S
C1469 C1473 1.393 . S
C1470 H1462 0.950 . S
C1470 C1468 1.391 1_554 S
C1470 C1471 1.400 . S
C1471 C1470 1.400 . S
C1471 C1472 1.398 1_554 S
C1471 C1477 1.491 . S
C1472 H1463 0.950 . S
C1472 C1471 1.398 1_556 S
C1472 C1473 1.391 . S
C1473 H1461 0.950 . S
C1473 C1469 1.393 . S
C1473 C1472 1.391 . S
C1474 H1464 0.950 . S
C1474 C1475 1.386 . S
C1474 C1476 1.391 . S
C1475 C1474 1.386 . S
C1475 C1479 1.393 . S
C1476 H1465 0.950 . S
C1476 C1474 1.391 . S
C1476 C1477 1.400 . S
C1477 C1471 1.491 . S
C1477 C1476 1.400 . S
C1477 C1478 1.398 . S
C1478 H1466 0.950 . S
C1478 C1477 1.398 . S
C1478 C1479 1.391 . S
C1479 H1467 0.950 . S
C1479 C1475 1.393 . S
C1479 C1478 1.391 . S
H1480 C1488 0.950 . S
H1481 C1493 0.950 . S
H1482 C1490 0.950 . S
H1483 C1492 0.950 . S
H1484 C1494 0.950 1_565 S
H1485 C1496 0.950 . S
H1486 C1498 0.950 . S
H1487 C1499 0.950 . S
C1488 H1480 0.950 . S
C1488 C1489 1.386 . S
C1488 C1490 1.391 . S
C1489 C1488 1.386 . S
C1489 C1493 1.393 . S
C1490 H1482 0.950 . S
C1490 C1488 1.391 . S
C1490 C1491 1.400 . S
C1491 C1490 1.400 . S
C1491 C1492 1.398 . S
C1491 C1497 1.491 . S
C1492 H1483 0.950 . S
C1492 C1491 1.398 . S
C1492 C1493 1.391 . S
C1493 H1481 0.950 . S
C1493 C1489 1.393 . S
C1493 C1492 1.391 . S
C1494 H1484 0.950 1_545 S
C1494 C1495 1.386 . S
C1494 C1496 1.391 . S
C1495 C1494 1.386 . S
C1495 C1499 1.393 . S
C1496 H1485 0.950 . S
C1496 C1494 1.391 . S
C1496 C1497 1.400 . S
C1497 C1491 1.491 . S
C1497 C1496 1.400 . S
C1497 C1498 1.398 . S
C1498 H1486 0.950 . S
C1498 C1497 1.398 . S
C1498 C1499 1.391 . S
C1499 H1487 0.950 . S
C1499 C1495 1.393 . S
C1499 C1498 1.391 . S
H1500 C1508 0.950 . S
H1501 C1513 0.950 . S
H1502 C1510 0.950 . S
H1503 C1512 0.950 . S
H1504 C1514 0.950 . S
H1505 C1516 0.950 . S
H1506 C1518 0.950 . S
H1507 C1519 0.950 . S
C1508 H1500 0.950 . S
C1508 C1509 1.386 . S
C1508 C1510 1.391 . S
C1509 C1508 1.386 . S
C1509 C1513 1.393 . S
C1510 H1502 0.950 . S
C1510 C1508 1.391 . S
C1510 C1511 1.400 . S
C1511 C1510 1.400 . S
C1511 C1512 1.398 . S
C1511 C1517 1.491 . S
C1512 H1503 0.950 . S
C1512 C1511 1.398 . S
C1512 C1513 1.391 . S
C1513 H1501 0.950 . S
C1513 C1509 1.393 . S
C1513 C1512 1.391 . S
C1514 H1504 0.950 . S
C1514 C1515 1.386 . S
C1514 C1516 1.391 . S
C1515 C1514 1.386 . S
C1515 C1519 1.393 . S
C1516 H1505 0.950 . S
C1516 C1514 1.391 . S
C1516 C1517 1.400 . S
C1517 C1511 1.491 . S
C1517 C1516 1.400 . S
C1517 C1518 1.398 . S
C1518 H1506 0.950 . S
C1518 C1517 1.398 . S
C1518 C1519 1.391 . S
C1519 H1507 0.950 . S
C1519 C1515 1.393 . S
C1519 C1518 1.391 . S
H1520 C1528 0.950 . S
H1521 C1533 0.950 . S
H1522 C1530 0.950 . S
H1523 C1532 0.950 . S
H1524 C1534 0.950 1_565 S
H1525 C1536 0.950 . S
H1526 C1538 0.950 . S
H1527 C1539 0.950 . S
C1528 H1520 0.950 . S
C1528 C1529 1.386 . S
C1528 C1530 1.391 . S
C1529 C1528 1.386 . S
C1529 C1533 1.393 . S
C1530 H1522 0.950 . S
C1530 C1528 1.391 . S
C1530 C1531 1.400 . S
C1531 C1530 1.400 . S
C1531 C1532 1.398 . S
C1531 C1537 1.491 . S
C1532 H1523 0.950 . S
C1532 C1531 1.398 . S
C1532 C1533 1.391 . S
C1533 H1521 0.950 . S
C1533 C1529 1.393 . S
C1533 C1532 1.391 . S
C1534 H1524 0.950 1_545 S
C1534 C1535 1.386 . S
C1534 C1536 1.391 . S
C1535 C1534 1.386 . S
C1535 C1539 1.393 . S
C1536 H1525 0.950 . S
C1536 C1534 1.391 . S
C1536 C1537 1.400 . S
C1537 C1531 1.491 . S
C1537 C1536 1.400 . S
C1537 C1538 1.398 . S
C1538 H1526 0.950 . S
C1538 C1537 1.398 . S
C1538 C1539 1.391 . S
C1539 H1527 0.950 . S
C1539 C1535 1.393 . S
C1539 C1538 1.391 . S
H1540 C1548 0.950 . S
H1541 C1553 0.950 . S
H1542 C1550 0.950 . S
H1543 C1552 0.950 . S
H1544 C1554 0.950 . S
H1545 C1556 0.950 . S
H1546 C1558 0.950 . S
H1547 C1559 0.950 . S
C1548 H1540 0.950 . S
C1548 C1549 1.386 . S
C1548 C1550 1.391 . S
C1549 C1548 1.386 . S
C1549 C1553 1.393 . S
C1550 H1542 0.950 . S
C1550 C1548 1.391 . S
C1550 C1551 1.400 . S
C1551 C1550 1.400 . S
C1551 C1552 1.398 . S
C1551 C1557 1.491 . S
C1552 H1543 0.950 . S
C1552 C1551 1.398 . S
C1552 C1553 1.391 . S
C1553 H1541 0.950 . S
C1553 C1549 1.393 . S
C1553 C1552 1.391 . S
C1554 H1544 0.950 . S
C1554 C1555 1.386 . S
C1554 C1556 1.391 . S
C1555 C1554 1.386 . S
C1555 C1559 1.393 . S
C1556 H1545 0.950 . S
C1556 C1554 1.391 . S
C1556 C1557 1.400 . S
C1557 C1551 1.491 . S
C1557 C1556 1.400 . S
C1557 C1558 1.398 . S
C1558 H1546 0.950 . S
C1558 C1557 1.398 . S
C1558 C1559 1.391 . S
C1559 H1547 0.950 . S
C1559 C1555 1.393 . S
C1559 C1558 1.391 . S
H1560 C1568 0.950 . S
H1561 C1573 0.950 . S
H1562 C1570 0.950 . S
H1563 C1572 0.950 . S
H1564 C1574 0.950 . S
H1565 C1576 0.950 1_554 S
H1566 C1578 0.950 . S
H1567 C1579 0.950 1_545 S
C1568 H1560 0.950 . S
C1568 C1569 1.386 . S
C1568 C1570 1.391 . S
C1569 C1568 1.386 . S
C1569 C1573 1.393 . S
C1570 H1562 0.950 . S
C1570 C1568 1.391 . S
C1570 C1571 1.400 . S
C1571 C1570 1.400 . S
C1571 C1572 1.398 . S
C1571 C1577 1.491 . S
C1572 H1563 0.950 . S
C1572 C1571 1.398 . S
C1572 C1573 1.391 . S
C1573 H1561 0.950 . S
C1573 C1569 1.393 . S
C1573 C1572 1.391 . S
C1574 H1564 0.950 . S
C1574 C1575 1.386 . S
C1574 C1576 1.391 . S
C1575 C1574 1.386 . S
C1575 C1579 1.393 . S
C1576 H1565 0.950 1_556 S
C1576 C1574 1.391 . S
C1576 C1577 1.400 1_556 S
C1577 C1571 1.491 . S
C1577 C1576 1.400 1_554 S
C1577 C1578 1.398 . S
C1578 H1566 0.950 . S
C1578 C1577 1.398 . S
C1578 C1579 1.391 1_554 S
C1579 H1567 0.950 1_565 S
C1579 C1575 1.393 . S
C1579 C1578 1.391 1_556 S
H1580 C1588 0.950 . S
H1581 C1593 0.950 . S
H1582 C1590 0.950 . S
H1583 C1592 0.950 . S
H1584 C1594 0.950 . S
H1585 C1596 0.950 . S
H1586 C1598 0.950 . S
H1587 C1599 0.950 . S
C1588 H1580 0.950 . S
C1588 C1589 1.386 . S
C1588 C1590 1.391 . S
C1589 C1588 1.386 . S
C1589 C1593 1.393 . S
C1590 H1582 0.950 . S
C1590 C1588 1.391 . S
C1590 C1591 1.400 . S
C1591 C1590 1.400 . S
C1591 C1592 1.398 . S
C1591 C1597 1.491 . S
C1592 H1583 0.950 . S
C1592 C1591 1.398 . S
C1592 C1593 1.391 . S
C1593 H1581 0.950 . S
C1593 C1589 1.393 . S
C1593 C1592 1.391 . S
C1594 H1584 0.950 . S
C1594 C1595 1.386 . S
C1594 C1596 1.391 . S
C1595 C1594 1.386 . S
C1595 C1599 1.393 . S
C1596 H1585 0.950 . S
C1596 C1594 1.391 . S
C1596 C1597 1.400 . S
C1597 C1591 1.491 . S
C1597 C1596 1.400 . S
C1597 C1598 1.398 . S
C1598 H1586 0.950 . S
C1598 C1597 1.398 . S
C1598 C1599 1.391 . S
C1599 H1587 0.950 . S
C1599 C1595 1.393 . S
C1599 C1598 1.391 . S
H1600 C1608 0.950 . S
H1601 C1613 0.950 . S
H1602 C1610 0.950 . S
H1603 C1612 0.950 . S
H1604 C1614 0.950 . S
H1605 C1616 0.950 . S
H1606 C1618 0.950 . S
H1607 C1619 0.950 . S
C1608 H1600 0.950 . S
C1608 C1609 1.386 . S
C1608 C1610 1.391 . S
C1609 C1608 1.386 . S
C1609 C1613 1.393 . S
C1610 H1602 0.950 . S
C1610 C1608 1.391 . S
C1610 C1611 1.400 . S
C1611 C1610 1.400 . S
C1611 C1612 1.398 . S
C1611 C1617 1.491 . S
C1612 H1603 0.950 . S
C1612 C1611 1.398 . S
C1612 C1613 1.391 . S
C1613 H1601 0.950 . S
C1613 C1609 1.393 . S
C1613 C1612 1.391 . S
C1614 H1604 0.950 . S
C1614 C1615 1.386 . S
C1614 C1616 1.391 . S
C1615 C1614 1.386 . S
C1615 C1619 1.393 . S
C1616 H1605 0.950 . S
C1616 C1614 1.391 . S
C1616 C1617 1.400 . S
C1617 C1611 1.491 . S
C1617 C1616 1.400 . S
C1617 C1618 1.398 . S
C1618 H1606 0.950 . S
C1618 C1617 1.398 . S
C1618 C1619 1.391 . S
C1619 H1607 0.950 . S
C1619 C1615 1.393 . S
C1619 C1618 1.391 . S
H1620 C1628 0.950 . S
H1621 C1633 0.950 . S
H1622 C1630 0.950 . S
H1623 C1632 0.950 . S
H1624 C1634 0.950 . S
H1625 C1636 0.950 . S
H1626 C1638 0.950 . S
H1627 C1639 0.950 . S
C1628 H1620 0.950 . S
C1628 C1629 1.386 . S
C1628 C1630 1.391 . S
C1629 C1628 1.386 . S
C1629 C1633 1.393 . S
C1630 H1622 0.950 . S
C1630 C1628 1.391 . S
C1630 C1631 1.400 . S
C1631 C1630 1.400 . S
C1631 C1632 1.398 . S
C1631 C1637 1.491 . S
C1632 H1623 0.950 . S
C1632 C1631 1.398 . S
C1632 C1633 1.391 . S
C1633 H1621 0.950 . S
C1633 C1629 1.393 . S
C1633 C1632 1.391 . S
C1634 H1624 0.950 . S
C1634 C1635 1.386 . S
C1634 C1636 1.391 . S
C1635 C1634 1.386 . S
C1635 C1639 1.393 . S
C1636 H1625 0.950 . S
C1636 C1634 1.391 . S
C1636 C1637 1.400 . S
C1637 C1631 1.491 . S
C1637 C1636 1.400 . S
C1637 C1638 1.398 . S
C1638 H1626 0.950 . S
C1638 C1637 1.398 . S
C1638 C1639 1.391 . S
C1639 H1627 0.950 . S
C1639 C1635 1.393 . S
C1639 C1638 1.391 . S
H1640 C1648 0.950 . S
H1641 C1653 0.950 . S
H1642 C1650 0.950 . S
H1643 C1652 0.950 . S
H1644 C1654 0.950 . S
H1645 C1656 0.950 . S
H1646 C1658 0.950 . S
H1647 C1659 0.950 . S
C1648 H1640 0.950 . S
C1648 C1649 1.386 . S
C1648 C1650 1.391 . S
C1649 C1648 1.386 . S
C1649 C1653 1.393 . S
C1650 H1642 0.950 . S
C1650 C1648 1.391 . S
C1650 C1651 1.400 . S
C1651 C1650 1.400 . S
C1651 C1652 1.398 . S
C1651 C1657 1.491 . S
C1652 H1643 0.950 . S
C1652 C1651 1.398 . S
C1652 C1653 1.391 . S
C1653 H1641 0.950 . S
C1653 C1649 1.393 . S
C1653 C1652 1.391 . S
C1654 H1644 0.950 . S
C1654 C1655 1.386 . S
C1654 C1656 1.391 . S
C1655 C1654 1.386 . S
C1655 C1659 1.393 . S
C1656 H1645 0.950 . S
C1656 C1654 1.391 . S
C1656 C1657 1.400 . S
C1657 C1651 1.491 . S
C1657 C1656 1.400 . S
C1657 C1658 1.398 . S
C1658 H1646 0.950 . S
C1658 C1657 1.398 . S
C1658 C1659 1.391 . S
C1659 H1647 0.950 . S
C1659 C1655 1.393 . S
C1659 C1658 1.391 . S
H1660 C1668 0.950 . S
H1661 C1673 0.950 . S
H1662 C1670 0.950 . S
H1663 C1672 0.950 . S
H1664 C1674 0.950 . S
H1665 C1676 0.951 . S
H1666 C1678 0.950 . S
H1667 C1679 0.950 . S
C1668 H1660 0.950 . S
C1668 C1669 1.386 . S
C1668 C1670 1.391 . S
C1669 C1668 1.386 . S
C1669 C1673 1.393 . S
C1670 H1662 0.950 . S
C1670 C1668 1.391 . S
C1670 C1671 1.400 . S
C1671 C1670 1.400 . S
C1671 C1672 1.398 . S
C1671 C1677 1.491 . S
C1672 H1663 0.950 . S
C1672 C1671 1.398 . S
C1672 C1673 1.391 . S
C1673 H1661 0.950 . S
C1673 C1669 1.393 . S
C1673 C1672 1.391 . S
C1674 H1664 0.950 . S
C1674 C1675 1.386 . S
C1674 C1676 1.391 . S
C1675 C1674 1.386 . S
C1675 C1679 1.393 . S
C1676 H1665 0.951 . S
C1676 C1674 1.391 . S
C1676 C1677 1.400 1_554 S
C1677 C1671 1.491 . S
C1677 C1676 1.400 1_556 S
C1677 C1678 1.398 . S
C1678 H1666 0.950 . S
C1678 C1677 1.398 . S
C1678 C1679 1.391 1_556 S
C1679 H1667 0.950 . S
C1679 C1675 1.393 . S
C1679 C1678 1.391 1_554 S
H1680 C1688 0.950 . S
H1681 C1693 0.950 . S
H1682 C1690 0.950 . S
H1683 C1692 0.950 . S
H1684 C1694 0.950 . S
H1685 C1696 0.950 . S
H1686 C1698 0.950 . S
H1687 C1699 0.950 . S
C1688 H1680 0.950 . S
C1688 C1689 1.386 . S
C1688 C1690 1.391 . S
C1689 C1688 1.386 . S
C1689 C1693 1.393 . S
C1690 H1682 0.950 . S
C1690 C1688 1.391 . S
C1690 C1691 1.400 . S
C1691 C1690 1.400 . S
C1691 C1692 1.398 . S
C1691 C1697 1.491 . S
C1692 H1683 0.950 . S
C1692 C1691 1.398 . S
C1692 C1693 1.391 . S
C1693 H1681 0.950 . S
C1693 C1689 1.393 . S
C1693 C1692 1.391 . S
C1694 H1684 0.950 . S
C1694 C1695 1.386 . S
C1694 C1696 1.391 . S
C1695 C1694 1.386 . S
C1695 C1699 1.393 . S
C1696 H1685 0.950 . S
C1696 C1694 1.391 . S
C1696 C1697 1.400 . S
C1697 C1691 1.491 . S
C1697 C1696 1.400 . S
C1697 C1698 1.398 . S
C1698 H1686 0.950 . S
C1698 C1697 1.398 . S
C1698 C1699 1.391 . S
C1699 H1687 0.950 . S
C1699 C1695 1.393 . S
C1699 C1698 1.391 . S
H1700 C1708 0.950 . S
H1701 C1713 0.950 . S
H1702 C1710 0.950 . S
H1703 C1712 0.950 . S
H1704 C1714 0.950 . S
H1705 C1716 0.950 . S
H1706 C1718 0.950 . S
H1707 C1719 0.950 . S
C1708 H1700 0.950 . S
C1708 C1709 1.386 . S
C1708 C1710 1.391 . S
C1709 C1708 1.386 . S
C1709 C1713 1.393 . S
C1710 H1702 0.950 . S
C1710 C1708 1.391 . S
C1710 C1711 1.400 . S
C1711 C1710 1.400 . S
C1711 C1712 1.398 . S
C1711 C1717 1.491 . S
C1712 H1703 0.950 . S
C1712 C1711 1.398 . S
C1712 C1713 1.391 . S
C1713 H1701 0.950 . S
C1713 C1709 1.393 . S
C1713 C1712 1.391 . S
C1714 H1704 0.950 . S
C1714 C1715 1.386 . S
C1714 C1716 1.391 . S
C1715 C1714 1.386 . S
C1715 C1719 1.393 . S
C1716 H1705 0.950 . S
C1716 C1714 1.391 . S
C1716 C1717 1.400 . S
C1717 C1711 1.491 . S
C1717 C1716 1.400 . S
C1717 C1718 1.398 . S
C1718 H1706 0.950 . S
C1718 C1717 1.398 . S
C1718 C1719 1.391 . S
C1719 H1707 0.950 . S
C1719 C1715 1.393 . S
C1719 C1718 1.391 . S
H1720 C1728 0.950 . S
H1721 C1733 0.950 . S
H1722 C1730 0.950 . S
H1723 C1732 0.950 . S
H1724 C1734 0.950 . S
H1725 C1736 0.950 . S
H1726 C1738 0.950 . S
H1727 C1739 0.950 . S
C1728 H1720 0.950 . S
C1728 C1729 1.386 . S
C1728 C1730 1.391 1_554 S
C1729 C1728 1.386 . S
C1729 C1733 1.393 . S
C1730 H1722 0.950 . S
C1730 C1728 1.391 1_556 S
C1730 C1731 1.400 . S
C1731 C1730 1.400 . S
C1731 C1732 1.398 1_556 S
C1731 C1737 1.491 . S
C1732 H1723 0.950 . S
C1732 C1731 1.398 1_554 S
C1732 C1733 1.391 . S
C1733 H1721 0.950 . S
C1733 C1729 1.393 . S
C1733 C1732 1.391 . S
C1734 H1724 0.950 . S
C1734 C1735 1.386 . S
C1734 C1736 1.391 . S
C1735 C1734 1.386 . S
C1735 C1739 1.393 . S
C1736 H1725 0.950 . S
C1736 C1734 1.391 . S
C1736 C1737 1.400 . S
C1737 C1731 1.491 . S
C1737 C1736 1.400 . S
C1737 C1738 1.398 . S
C1738 H1726 0.950 . S
C1738 C1737 1.398 . S
C1738 C1739 1.391 . S
C1739 H1727 0.950 . S
C1739 C1735 1.393 . S
C1739 C1738 1.391 . S
H1740 C1748 0.950 . S
H1741 C1753 0.950 . S
H1742 C1750 0.950 . S
H1743 C1752 0.950 . S
H1744 C1754 0.950 . S
H1745 C1756 0.950 . S
H1746 C1758 0.950 . S
H1747 C1759 0.950 . S
C1748 H1740 0.950 . S
C1748 C1749 1.386 . S
C1748 C1750 1.391 . S
C1749 C1748 1.386 . S
C1749 C1753 1.393 . S
C1750 H1742 0.950 . S
C1750 C1748 1.391 . S
C1750 C1751 1.400 . S
C1751 C1750 1.400 . S
C1751 C1752 1.398 . S
C1751 C1757 1.491 . S
C1752 H1743 0.950 . S
C1752 C1751 1.398 . S
C1752 C1753 1.391 . S
C1753 H1741 0.950 . S
C1753 C1749 1.393 . S
C1753 C1752 1.391 . S
C1754 H1744 0.950 . S
C1754 C1755 1.386 . S
C1754 C1756 1.391 . S
C1755 C1754 1.386 . S
C1755 C1759 1.393 . S
C1756 H1745 0.950 . S
C1756 C1754 1.391 . S
C1756 C1757 1.400 . S
C1757 C1751 1.491 . S
C1757 C1756 1.400 . S
C1757 C1758 1.398 . S
C1758 H1746 0.950 . S
C1758 C1757 1.398 . S
C1758 C1759 1.391 . S
C1759 H1747 0.950 . S
C1759 C1755 1.393 . S
C1759 C1758 1.391 . S
H1760 C1768 0.950 . S
H1761 C1773 0.950 . S
H1762 C1770 0.950 . S
H1763 C1772 0.950 . S
H1764 C1774 0.950 . S
H1765 C1776 0.950 . S
H1766 C1778 0.950 . S
H1767 C1779 0.950 . S
C1768 H1760 0.950 . S
C1768 C1769 1.386 . S
C1768 C1770 1.391 . S
C1769 C1768 1.386 . S
C1769 C1773 1.393 . S
C1770 H1762 0.950 . S
C1770 C1768 1.391 . S
C1770 C1771 1.400 . S
C1771 C1770 1.400 . S
C1771 C1772 1.398 . S
C1771 C1777 1.491 . S
C1772 H1763 0.950 . S
C1772 C1771 1.398 . S
C1772 C1773 1.391 . S
C1773 H1761 0.950 . S
C1773 C1769 1.393 . S
C1773 C1772 1.391 . S
C1774 H1764 0.950 . S
C1774 C1775 1.386 . S
C1774 C1776 1.391 . S
C1775 C1774 1.386 . S
C1775 C1779 1.393 . S
C1776 H1765 0.950 . S
C1776 C1774 1.391 . S
C1776 C1777 1.400 . S
C1777 C1771 1.491 . S
C1777 C1776 1.400 . S
C1777 C1778 1.398 . S
C1778 H1766 0.950 . S
C1778 C1777 1.398 . S
C1778 C1779 1.391 . S
C1779 H1767 0.950 . S
C1779 C1775 1.393 . S
C1779 C1778 1.391 . S
H1780 C1788 0.950 . S
H1781 C1793 0.950 . S
H1782 C1790 0.950 . S
H1783 C1792 0.950 . S
H1784 C1794 0.950 . S
H1785 C1796 0.950 . S
H1786 C1798 0.950 . S
H1787 C1799 0.950 . S
C1788 H1780 0.950 . S
C1788 C1789 1.386 . S
C1788 C1790 1.391 . S
C1789 C1788 1.386 . S
C1789 C1793 1.393 . S
C1790 H1782 0.950 . S
C1790 C1788 1.391 . S
C1790 C1791 1.400 . S
C1791 C1790 1.400 . S
C1791 C1792 1.398 . S
C1791 C1797 1.491 . S
C1792 H1783 0.950 . S
C1792 C1791 1.398 . S
C1792 C1793 1.391 . S
C1793 H1781 0.950 . S
C1793 C1789 1.393 . S
C1793 C1792 1.391 . S
C1794 H1784 0.950 . S
C1794 C1795 1.386 . S
C1794 C1796 1.391 . S
C1795 C1794 1.386 . S
C1795 C1799 1.393 . S
C1796 H1785 0.950 . S
C1796 C1794 1.391 . S
C1796 C1797 1.400 . S
C1797 C1791 1.491 . S
C1797 C1796 1.400 . S
C1797 C1798 1.398 . S
C1798 H1786 0.950 . S
C1798 C1797 1.398 . S
C1798 C1799 1.391 . S
C1799 H1787 0.950 . S
C1799 C1795 1.393 . S
C1799 C1798 1.391 . S
H1800 C1808 0.950 . S
H1801 C1813 0.950 . S
H1802 C1810 0.950 . S
H1803 C1812 0.950 . S
H1804 C1814 0.950 . S
H1805 C1816 0.950 . S
H1806 C1818 0.950 . S
H1807 C1819 0.950 . S
C1808 H1800 0.950 . S
C1808 C1809 1.386 . S
C1808 C1810 1.391 . S
C1809 C1808 1.386 . S
C1809 C1813 1.393 . S
C1810 H1802 0.950 . S
C1810 C1808 1.391 . S
C1810 C1811 1.400 . S
C1811 C1810 1.400 . S
C1811 C1812 1.398 . S
C1811 C1817 1.491 . S
C1812 H1803 0.950 . S
C1812 C1811 1.398 . S
C1812 C1813 1.391 . S
C1813 H1801 0.950 . S
C1813 C1809 1.393 . S
C1813 C1812 1.391 . S
C1814 H1804 0.950 . S
C1814 C1815 1.386 . S
C1814 C1816 1.391 . S
C1815 C1814 1.386 . S
C1815 C1819 1.393 . S
C1816 H1805 0.950 . S
C1816 C1814 1.391 . S
C1816 C1817 1.400 . S
C1817 C1811 1.491 . S
C1817 C1816 1.400 . S
C1817 C1818 1.398 . S
C1818 H1806 0.950 . S
C1818 C1817 1.398 . S
C1818 C1819 1.391 . S
C1819 H1807 0.950 . S
C1819 C1815 1.393 . S
C1819 C1818 1.391 . S
H1820 C1828 0.950 . S
H1821 C1833 0.950 . S
H1822 C1830 0.950 . S
H1823 C1832 0.950 . S
H1824 C1834 0.950 . S
H1825 C1836 0.950 . S
H1826 C1838 0.950 . S
H1827 C1839 0.950 . S
C1828 H1820 0.950 . S
C1828 C1829 1.386 . S
C1828 C1830 1.391 . S
C1829 C1828 1.386 . S
C1829 C1833 1.393 . S
C1830 H1822 0.950 . S
C1830 C1828 1.391 . S
C1830 C1831 1.400 . S
C1831 C1830 1.400 . S
C1831 C1832 1.398 . S
C1831 C1837 1.491 . S
C1832 H1823 0.950 . S
C1832 C1831 1.398 . S
C1832 C1833 1.391 . S
C1833 H1821 0.950 . S
C1833 C1829 1.393 . S
C1833 C1832 1.391 . S
C1834 H1824 0.950 . S
C1834 C1835 1.386 . S
C1834 C1836 1.391 . S
C1835 C1834 1.386 . S
C1835 C1839 1.393 . S
C1836 H1825 0.950 . S
C1836 C1834 1.391 . S
C1836 C1837 1.400 . S
C1837 C1831 1.491 . S
C1837 C1836 1.400 . S
C1837 C1838 1.398 . S
C1838 H1826 0.950 . S
C1838 C1837 1.398 . S
C1838 C1839 1.391 . S
C1839 H1827 0.950 . S
C1839 C1835 1.393 . S
C1839 C1838 1.391 . S
H1840 C1848 0.950 . S
H1841 C1853 0.950 . S
H1842 C1850 0.950 . S
H1843 C1852 0.950 . S
H1844 C1854 0.950 . S
H1845 C1856 0.950 . S
H1846 C1858 0.950 . S
H1847 C1859 0.950 . S
C1848 H1840 0.950 . S
C1848 C1849 1.386 . S
C1848 C1850 1.391 . S
C1849 C1848 1.386 . S
C1849 C1853 1.393 . S
C1850 H1842 0.950 . S
C1850 C1848 1.391 . S
C1850 C1851 1.400 . S
C1851 C1850 1.400 . S
C1851 C1852 1.398 . S
C1851 C1857 1.491 . S
C1852 H1843 0.950 . S
C1852 C1851 1.398 . S
C1852 C1853 1.391 . S
C1853 H1841 0.950 . S
C1853 C1849 1.393 . S
C1853 C1852 1.391 . S
C1854 H1844 0.950 . S
C1854 C1855 1.386 . S
C1854 C1856 1.391 . S
C1855 C1854 1.386 . S
C1855 C1859 1.393 . S
C1856 H1845 0.950 . S
C1856 C1854 1.391 . S
C1856 C1857 1.400 . S
C1857 C1851 1.491 . S
C1857 C1856 1.400 . S
C1857 C1858 1.398 . S
C1858 H1846 0.950 . S
C1858 C1857 1.398 . S
C1858 C1859 1.391 . S
C1859 H1847 0.950 . S
C1859 C1855 1.393 . S
C1859 C1858 1.391 . S
H1860 C1868 0.950 . S
H1861 C1873 0.950 . S
H1862 C1870 0.950 . S
H1863 C1872 0.950 . S
H1864 C1874 0.950 . S
H1865 C1876 0.950 . S
H1866 C1878 0.950 . S
H1867 C1879 0.950 . S
C1868 H1860 0.950 . S
C1868 C1869 1.386 . S
C1868 C1870 1.391 . S
C1869 C1868 1.386 . S
C1869 C1873 1.393 . S
C1870 H1862 0.950 . S
C1870 C1868 1.391 . S
C1870 C1871 1.400 . S
C1871 C1870 1.400 . S
C1871 C1872 1.398 . S
C1871 C1877 1.491 . S
C1872 H1863 0.950 . S
C1872 C1871 1.398 . S
C1872 C1873 1.391 . S
C1873 H1861 0.950 . S
C1873 C1869 1.393 . S
C1873 C1872 1.391 . S
C1874 H1864 0.950 . S
C1874 C1875 1.386 . S
C1874 C1876 1.391 . S
C1875 C1874 1.386 . S
C1875 C1879 1.393 . S
C1876 H1865 0.950 . S
C1876 C1874 1.391 . S
C1876 C1877 1.400 . S
C1877 C1871 1.491 . S
C1877 C1876 1.400 . S
C1877 C1878 1.398 . S
C1878 H1866 0.950 . S
C1878 C1877 1.398 . S
C1878 C1879 1.391 . S
C1879 H1867 0.950 . S
C1879 C1875 1.393 . S
C1879 C1878 1.391 . S
H1880 C1888 0.950 . S
H1881 C1893 0.950 . S
H1882 C1890 0.950 . S
H1883 C1892 0.950 . S
H1884 C1894 0.950 . S
H1885 C1896 0.950 . S
H1886 C1898 0.950 . S
H1887 C1899 0.950 . S
C1888 H1880 0.950 . S
C1888 C1889 1.386 . S
C1888 C1890 1.391 . S
C1889 C1888 1.386 . S
C1889 C1893 1.393 . S
C1890 H1882 0.950 . S
C1890 C1888 1.391 . S
C1890 C1891 1.400 . S
C1891 C1890 1.400 . S
C1891 C1892 1.398 . S
C1891 C1897 1.491 . S
C1892 H1883 0.950 . S
C1892 C1891 1.398 . S
C1892 C1893 1.391 . S
C1893 H1881 0.950 . S
C1893 C1889 1.393 . S
C1893 C1892 1.391 . S
C1894 H1884 0.950 . S
C1894 C1895 1.386 . S
C1894 C1896 1.391 . S
C1895 C1894 1.386 . S
C1895 C1899 1.393 . S
C1896 H1885 0.950 . S
C1896 C1894 1.391 . S
C1896 C1897 1.400 . S
C1897 C1891 1.491 . S
C1897 C1896 1.400 . S
C1897 C1898 1.398 . S
C1898 H1886 0.950 . S
C1898 C1897 1.398 . S
C1898 C1899 1.391 . S
C1899 H1887 0.950 . S
C1899 C1895 1.393 . S
C1899 C1898 1.391 . S
H1900 C1908 0.950 . S
H1901 C1913 0.950 . S
H1902 C1910 0.950 . S
H1903 C1912 0.950 . S
H1904 C1914 0.950 . S
H1905 C1916 0.950 . S
H1906 C1918 0.950 . S
H1907 C1919 0.950 . S
C1908 H1900 0.950 . S
C1908 C1909 1.386 . S
C1908 C1910 1.391 . S
C1909 C1908 1.386 . S
C1909 C1913 1.393 . S
C1910 H1902 0.950 . S
C1910 C1908 1.391 . S
C1910 C1911 1.400 . S
C1911 C1910 1.400 . S
C1911 C1912 1.398 . S
C1911 C1917 1.491 . S
C1912 H1903 0.950 . S
C1912 C1911 1.398 . S
C1912 C1913 1.391 . S
C1913 H1901 0.950 . S
C1913 C1909 1.393 . S
C1913 C1912 1.391 . S
C1914 H1904 0.950 . S
C1914 C1915 1.386 . S
C1914 C1916 1.391 . S
C1915 C1914 1.386 . S
C1915 C1919 1.393 . S
C1916 H1905 0.950 . S
C1916 C1914 1.391 . S
C1916 C1917 1.400 . S
C1917 C1911 1.491 . S
C1917 C1916 1.400 . S
C1917 C1918 1.398 . S
C1918 H1906 0.950 . S
C1918 C1917 1.398 . S
C1918 C1919 1.391 . S
C1919 H1907 0.950 . S
C1919 C1915 1.393 . S
C1919 C1918 1.391 . S
H1920 C1928 0.950 . S
H1921 C1933 0.950 . S
H1922 C1930 0.950 . S
H1923 C1932 0.932 1_455 S
H1924 C1934 0.950 . S
H1925 C1936 0.950 . S
H1926 C1938 0.930 1_655 S
H1927 C1939 0.950 . S
C1928 H1920 0.950 . S
C1928 C1929 1.386 . S
C1928 C1930 1.391 . S
C1929 C1928 1.386 . S
C1929 C1933 1.393 . S
C1930 H1922 0.950 . S
C1930 C1928 1.391 . S
C1930 C1931 1.400 . S
C1931 C1930 1.400 . S
C1931 C1932 1.404 . S
C1931 C1937 1.491 1_655 S
C1932 H1923 0.932 1_655 S
C1932 C1931 1.404 . S
C1932 C1933 1.404 . S
C1933 H1921 0.950 . S
C1933 C1929 1.393 . S
C1933 C1932 1.404 . S
C1934 H1924 0.950 . S
C1934 C1935 1.386 . S
C1934 C1936 1.391 . S
C1935 C1934 1.386 . S
C1935 C1939 1.393 . S
C1936 H1925 0.950 . S
C1936 C1934 1.391 . S
C1936 C1937 1.400 . S
C1937 C1931 1.491 1_455 S
C1937 C1936 1.400 . S
C1937 C1938 1.404 . S
C1938 H1926 0.930 1_455 S
C1938 C1937 1.404 . S
C1938 C1939 1.405 . S
C1939 H1927 0.950 . S
C1939 C1935 1.393 . S
C1939 C1938 1.405 . S
H1940 C1948 0.950 . S
H1941 C1953 0.950 . S
H1942 C1950 0.950 . S
H1943 C1952 0.950 . S
H1944 C1954 0.950 . S
H1945 C1956 0.950 . S
H1946 C1958 0.950 . S
H1947 C1959 0.950 . S
C1948 H1940 0.950 . S
C1948 C1949 1.386 . S
C1948 C1950 1.391 . S
C1949 C1948 1.386 . S
C1949 C1953 1.393 . S
C1950 H1942 0.950 . S
C1950 C1948 1.391 . S
C1950 C1951 1.400 . S
C1951 C1950 1.400 . S
C1951 C1952 1.398 . S
C1951 C1957 1.491 . S
C1952 H1943 0.950 . S
C1952 C1951 1.398 . S
C1952 C1953 1.391 . S
C1953 H1941 0.950 . S
C1953 C1949 1.393 . S
C1953 C1952 1.391 . S
C1954 H1944 0.950 . S
C1954 C1955 1.386 . S
C1954 C1956 1.391 . S
C1955 C1954 1.386 . S
C1955 C1959 1.393 . S
C1956 H1945 0.950 . S
C1956 C1954 1.391 . S
C1956 C1957 1.400 . S
C1957 C1951 1.491 . S
C1957 C1956 1.400 . S
C1957 C1958 1.398 . S
C1958 H1946 0.950 . S
C1958 C1957 1.398 . S
C1958 C1959 1.391 . S
C1959 H1947 0.950 . S
C1959 C1955 1.393 . S
C1959 C1958 1.391 . S
H1960 C1968 0.950 . S
H1961 C1973 0.950 . S
H1962 C1970 0.950 . S
H1963 C1972 0.950 . S
H1964 C1974 0.950 . S
H1965 C1976 0.950 . S
H1966 C1978 0.950 . S
H1967 C1979 0.950 . S
C1968 H1960 0.950 . S
C1968 C1969 1.386 . S
C1968 C1970 1.391 . S
C1969 C1968 1.386 . S
C1969 C1973 1.393 . S
C1970 H1962 0.950 . S
C1970 C1968 1.391 . S
C1970 C1971 1.400 . S
C1971 C1970 1.400 . S
C1971 C1972 1.398 . S
C1971 C1977 1.491 . S
C1972 H1963 0.950 . S
C1972 C1971 1.398 . S
C1972 C1973 1.391 . S
C1973 H1961 0.950 . S
C1973 C1969 1.393 . S
C1973 C1972 1.391 . S
C1974 H1964 0.950 . S
C1974 C1975 1.386 . S
C1974 C1976 1.391 . S
C1975 C1974 1.386 . S
C1975 C1979 1.393 . S
C1976 H1965 0.950 . S
C1976 C1974 1.391 . S
C1976 C1977 1.400 . S
C1977 C1971 1.491 . S
C1977 C1976 1.400 . S
C1977 C1978 1.398 . S
C1978 H1966 0.950 . S
C1978 C1977 1.398 . S
C1978 C1979 1.391 . S
C1979 H1967 0.950 . S
C1979 C1975 1.393 . S
C1979 C1978 1.391 . S
H1980 C1988 0.950 . S
H1981 C1993 0.950 . S
H1982 C1990 0.950 . S
H1983 C1992 0.950 . S
H1984 C1994 0.950 . S
H1985 C1996 0.950 . S
H1986 C1998 0.950 . S
H1987 C1999 0.950 . S
C1988 H1980 0.950 . S
C1988 C1989 1.386 . S
C1988 C1990 1.391 . S
C1989 C1988 1.386 . S
C1989 C1993 1.393 . S
C1990 H1982 0.950 . S
C1990 C1988 1.391 . S
C1990 C1991 1.400 . S
C1991 C1990 1.400 . S
C1991 C1992 1.398 . S
C1991 C1997 1.491 . S
C1992 H1983 0.950 . S
C1992 C1991 1.398 . S
C1992 C1993 1.391 . S
C1993 H1981 0.950 . S
C1993 C1989 1.393 . S
C1993 C1992 1.391 . S
C1994 H1984 0.950 . S
C1994 C1995 1.386 . S
C1994 C1996 1.391 . S
C1995 C1994 1.386 . S
C1995 C1999 1.393 . S
C1996 H1985 0.950 . S
C1996 C1994 1.391 . S
C1996 C1997 1.400 . S
C1997 C1991 1.491 . S
C1997 C1996 1.400 . S
C1997 C1998 1.398 . S
C1998 H1986 0.950 . S
C1998 C1997 1.398 . S
C1998 C1999 1.391 . S
C1999 H1987 0.950 . S
C1999 C1995 1.393 . S
C1999 C1998 1.391 . S
H2000 C2008 0.950 . S
H2001 C2013 0.950 . S
H2002 C2010 0.950 1_455 S
H2003 C2012 0.950 . S
H2004 C2014 0.950 . S
H2005 C2016 0.950 1_655 S
H2006 C2018 0.950 . S
H2007 C2019 0.950 . S
C2008 H2000 0.950 . S
C2008 C2009 1.386 . S
C2008 C2010 1.391 . S
C2009 C2008 1.386 . S
C2009 C2013 1.393 . S
C2010 H2002 0.950 1_655 S
C2010 C2008 1.391 . S
C2010 C2011 1.400 . S
C2011 C2010 1.400 . S
C2011 C2012 1.398 . S
C2011 C2017 1.491 1_655 S
C2012 H2003 0.950 . S
C2012 C2011 1.398 . S
C2012 C2013 1.391 . S
C2013 H2001 0.950 . S
C2013 C2009 1.393 . S
C2013 C2012 1.391 . S
C2014 H2004 0.950 . S
C2014 C2015 1.386 . S
C2014 C2016 1.391 . S
C2015 C2014 1.386 . S
C2015 C2019 1.393 . S
C2016 H2005 0.950 1_455 S
C2016 C2014 1.391 . S
C2016 C2017 1.400 . S
C2017 C2011 1.491 1_455 S
C2017 C2016 1.400 . S
C2017 C2018 1.398 . S
C2018 H2006 0.950 . S
C2018 C2017 1.398 . S
C2018 C2019 1.391 . S
C2019 H2007 0.950 . S
C2019 C2015 1.393 . S
C2019 C2018 1.391 . S
H2020 C2028 0.950 . S
H2021 C2033 0.950 . S
H2022 C2030 0.950 . S
H2023 C2032 0.950 . S
H2024 C2034 0.950 . S
H2025 C2036 0.950 . S
H2026 C2038 0.950 . S
H2027 C2039 0.950 . S
C2028 H2020 0.950 . S
C2028 C2029 1.386 . S
C2028 C2030 1.391 . S
C2029 C2028 1.386 . S
C2029 C2033 1.393 . S
C2030 H2022 0.950 . S
C2030 C2028 1.391 . S
C2030 C2031 1.400 . S
C2031 C2030 1.400 . S
C2031 C2032 1.398 . S
C2031 C2037 1.491 . S
C2032 H2023 0.950 . S
C2032 C2031 1.398 . S
C2032 C2033 1.391 . S
C2033 H2021 0.950 . S
C2033 C2029 1.393 . S
C2033 C2032 1.391 . S
C2034 H2024 0.950 . S
C2034 C2035 1.386 . S
C2034 C2036 1.391 . S
C2035 C2034 1.386 . S
C2035 C2039 1.393 . S
C2036 H2025 0.950 . S
C2036 C2034 1.391 . S
C2036 C2037 1.400 . S
C2037 C2031 1.491 . S
C2037 C2036 1.400 . S
C2037 C2038 1.398 . S
C2038 H2026 0.950 . S
C2038 C2037 1.398 . S
C2038 C2039 1.391 . S
C2039 H2027 0.950 . S
C2039 C2035 1.393 . S
C2039 C2038 1.391 . S
H2040 C2048 0.950 . S
H2041 C2053 0.950 . S
H2042 C2050 0.950 . S
H2043 C2052 0.950 . S
H2044 C2054 0.950 . S
H2045 C2056 0.950 . S
H2046 C2058 0.950 . S
H2047 C2059 0.950 . S
C2048 H2040 0.950 . S
C2048 C2049 1.386 . S
C2048 C2050 1.391 . S
C2049 C2048 1.386 . S
C2049 C2053 1.393 . S
C2050 H2042 0.950 . S
C2050 C2048 1.391 . S
C2050 C2051 1.400 . S
C2051 C2050 1.400 . S
C2051 C2052 1.398 . S
C2051 C2057 1.491 . S
C2052 H2043 0.950 . S
C2052 C2051 1.398 . S
C2052 C2053 1.391 . S
C2053 H2041 0.950 . S
C2053 C2049 1.393 . S
C2053 C2052 1.391 . S
C2054 H2044 0.950 . S
C2054 C2055 1.386 . S
C2054 C2056 1.391 . S
C2055 C2054 1.386 . S
C2055 C2059 1.393 . S
C2056 H2045 0.950 . S
C2056 C2054 1.391 . S
C2056 C2057 1.400 . S
C2057 C2051 1.491 . S
C2057 C2056 1.400 . S
C2057 C2058 1.398 . S
C2058 H2046 0.950 . S
C2058 C2057 1.398 . S
C2058 C2059 1.391 . S
C2059 H2047 0.950 . S
C2059 C2055 1.393 . S
C2059 C2058 1.391 . S
H2060 C2068 0.950 . S
H2061 C2073 0.950 . S
H2062 C2070 0.950 . S
H2063 C2072 0.950 . S
H2064 C2074 0.950 . S
H2065 C2076 0.950 . S
H2066 C2078 0.950 . S
H2067 C2079 0.950 . S
C2068 H2060 0.950 . S
C2068 C2069 1.386 . S
C2068 C2070 1.391 . S
C2069 C2068 1.386 . S
C2069 C2073 1.393 . S
C2070 H2062 0.950 . S
C2070 C2068 1.391 . S
C2070 C2071 1.400 . S
C2071 C2070 1.400 . S
C2071 C2072 1.398 . S
C2071 C2077 1.491 . S
C2072 H2063 0.950 . S
C2072 C2071 1.398 . S
C2072 C2073 1.391 . S
C2073 H2061 0.950 . S
C2073 C2069 1.393 . S
C2073 C2072 1.391 . S
C2074 H2064 0.950 . S
C2074 C2075 1.386 . S
C2074 C2076 1.391 . S
C2075 C2074 1.386 . S
C2075 C2079 1.393 . S
C2076 H2065 0.950 . S
C2076 C2074 1.391 . S
C2076 C2077 1.400 . S
C2077 C2071 1.491 . S
C2077 C2076 1.400 . S
C2077 C2078 1.398 . S
C2078 H2066 0.950 . S
C2078 C2077 1.398 . S
C2078 C2079 1.391 . S
C2079 H2067 0.950 . S
C2079 C2075 1.393 . S
C2079 C2078 1.391 . S
H2080 C2088 0.950 . S
H2081 C2093 0.950 . S
H2082 C2090 0.950 . S
H2083 C2092 0.950 . S
H2084 C2094 0.950 1_554 S
H2085 C2096 0.950 . S
H2086 C2098 0.950 . S
H2087 C2099 0.950 . S
C2088 H2080 0.950 . S
C2088 C2089 1.386 . S
C2088 C2090 1.391 . S
C2089 C2088 1.386 . S
C2089 C2093 1.393 . S
C2090 H2082 0.950 . S
C2090 C2088 1.391 . S
C2090 C2091 1.400 . S
C2091 C2090 1.400 . S
C2091 C2092 1.398 . S
C2091 C2097 1.491 . S
C2092 H2083 0.950 . S
C2092 C2091 1.398 . S
C2092 C2093 1.391 . S
C2093 H2081 0.950 . S
C2093 C2089 1.393 . S
C2093 C2092 1.391 . S
C2094 H2084 0.950 1_556 S
C2094 C2095 1.386 . S
C2094 C2096 1.391 . S
C2095 C2094 1.386 . S
C2095 C2099 1.393 . S
C2096 H2085 0.950 . S
C2096 C2094 1.391 . S
C2096 C2097 1.400 . S
C2097 C2091 1.491 . S
C2097 C2096 1.400 . S
C2097 C2098 1.398 . S
C2098 H2086 0.950 . S
C2098 C2097 1.398 . S
C2098 C2099 1.391 . S
C2099 H2087 0.950 . S
C2099 C2095 1.393 . S
C2099 C2098 1.391 . S
H2100 C2108 0.950 . S
H2101 C2113 0.950 . S
H2102 C2110 0.950 . S
H2103 C2112 0.950 . S
H2104 C2114 0.950 . S
H2105 C2116 0.950 . S
H2106 C2118 0.950 . S
H2107 C2119 0.950 . S
C2108 H2100 0.950 . S
C2108 C2109 1.386 . S
C2108 C2110 1.391 . S
C2109 C2108 1.386 . S
C2109 C2113 1.393 . S
C2110 H2102 0.950 . S
C2110 C2108 1.391 . S
C2110 C2111 1.400 . S
C2111 C2110 1.400 . S
C2111 C2112 1.398 . S
C2111 C2117 1.491 . S
C2112 H2103 0.950 . S
C2112 C2111 1.398 . S
C2112 C2113 1.391 . S
C2113 H2101 0.950 . S
C2113 C2109 1.393 . S
C2113 C2112 1.391 . S
C2114 H2104 0.950 . S
C2114 C2115 1.386 . S
C2114 C2116 1.391 . S
C2115 C2114 1.386 . S
C2115 C2119 1.393 . S
C2116 H2105 0.950 . S
C2116 C2114 1.391 . S
C2116 C2117 1.400 . S
C2117 C2111 1.491 . S
C2117 C2116 1.400 . S
C2117 C2118 1.398 . S
C2118 H2106 0.950 . S
C2118 C2117 1.398 . S
C2118 C2119 1.391 . S
C2119 H2107 0.950 . S
C2119 C2115 1.393 . S
C2119 C2118 1.391 . S
H2120 C2128 0.950 . S
H2121 C2133 0.950 . S
H2122 C2130 0.950 . S
H2123 C2132 0.950 . S
H2124 C2134 0.950 . S
H2125 C2136 0.950 . S
H2126 C2138 0.950 . S
H2127 C2139 0.950 . S
C2128 H2120 0.950 . S
C2128 C2129 1.386 . S
C2128 C2130 1.391 . S
C2129 C2128 1.386 . S
C2129 C2133 1.393 . S
C2130 H2122 0.950 . S
C2130 C2128 1.391 . S
C2130 C2131 1.400 . S
C2131 C2130 1.400 . S
C2131 C2132 1.398 . S
C2131 C2137 1.491 . S
C2132 H2123 0.950 . S
C2132 C2131 1.398 . S
C2132 C2133 1.391 . S
C2133 H2121 0.950 . S
C2133 C2129 1.393 . S
C2133 C2132 1.391 . S
C2134 H2124 0.950 . S
C2134 C2135 1.386 . S
C2134 C2136 1.391 . S
C2135 C2134 1.386 . S
C2135 C2139 1.393 . S
C2136 H2125 0.950 . S
C2136 C2134 1.391 . S
C2136 C2137 1.400 . S
C2137 C2131 1.491 . S
C2137 C2136 1.400 . S
C2137 C2138 1.398 . S
C2138 H2126 0.950 . S
C2138 C2137 1.398 . S
C2138 C2139 1.391 . S
C2139 H2127 0.950 . S
C2139 C2135 1.393 . S
C2139 C2138 1.391 . S
H2140 C2148 0.950 . S
H2141 C2153 0.950 . S
H2142 C2150 0.950 . S
H2143 C2152 0.950 . S
H2144 C2154 0.950 . S
H2145 C2156 0.950 . S
H2146 C2158 0.950 . S
H2147 C2159 0.950 1_554 S
C2148 H2140 0.950 . S
C2148 C2149 1.386 . S
C2148 C2150 1.391 . S
C2149 C2148 1.386 . S
C2149 C2153 1.393 . S
C2150 H2142 0.950 . S
C2150 C2148 1.391 . S
C2150 C2151 1.400 . S
C2151 C2150 1.400 . S
C2151 C2152 1.398 . S
C2151 C2157 1.491 . S
C2152 H2143 0.950 . S
C2152 C2151 1.398 . S
C2152 C2153 1.391 . S
C2153 H2141 0.950 . S
C2153 C2149 1.393 . S
C2153 C2152 1.391 . S
C2154 H2144 0.950 . S
C2154 C2155 1.386 . S
C2154 C2156 1.391 . S
C2155 C2154 1.386 . S
C2155 C2159 1.393 . S
C2156 H2145 0.950 . S
C2156 C2154 1.391 . S
C2156 C2157 1.400 . S
C2157 C2151 1.491 . S
C2157 C2156 1.400 . S
C2157 C2158 1.398 . S
C2158 H2146 0.950 . S
C2158 C2157 1.398 . S
C2158 C2159 1.391 . S
C2159 H2147 0.950 1_556 S
C2159 C2155 1.393 . S
C2159 C2158 1.391 . S
H2160 C2168 0.950 . S
H2161 C2173 0.950 . S
H2162 C2170 0.950 . S
H2163 C2172 0.936 1_565 S
H2164 C2174 0.950 . S
H2165 C2176 0.950 . S
H2166 C2178 0.932 1_545 S
H2167 C2179 0.950 . S
C2168 H2160 0.950 . S
C2168 C2169 1.386 . S
C2168 C2170 1.391 . S
C2169 C2168 1.386 . S
C2169 C2173 1.393 . S
C2170 H2162 0.950 . S
C2170 C2168 1.391 . S
C2170 C2171 1.400 . S
C2171 C2170 1.400 . S
C2171 C2172 1.398 . S
C2171 C2177 1.491 1_545 S
C2172 H2163 0.936 1_545 S
C2172 C2171 1.398 . S
C2172 C2173 1.391 . S
C2173 H2161 0.950 . S
C2173 C2169 1.393 . S
C2173 C2172 1.391 . S
C2174 H2164 0.950 . S
C2174 C2175 1.386 . S
C2174 C2176 1.391 . S
C2175 C2174 1.386 . S
C2175 C2179 1.393 . S
C2176 H2165 0.950 . S
C2176 C2174 1.391 . S
C2176 C2177 1.400 . S
C2177 C2171 1.491 1_565 S
C2177 C2176 1.400 . S
C2177 C2178 1.398 . S
C2178 H2166 0.932 1_565 S
C2178 C2177 1.398 . S
C2178 C2179 1.391 . S
C2179 H2167 0.950 . S
C2179 C2175 1.393 . S
C2179 C2178 1.391 . S
H2180 C2188 0.950 . S
H2181 C2193 0.950 . S
H2182 C2190 0.950 . S
H2183 C2192 0.950 . S
H2184 C2194 0.950 . S
H2185 C2196 0.950 . S
H2186 C2198 0.950 . S
H2187 C2199 0.950 . S
C2188 H2180 0.950 . S
C2188 C2189 1.386 . S
C2188 C2190 1.391 . S
C2189 C2188 1.386 . S
C2189 C2193 1.393 . S
C2190 H2182 0.950 . S
C2190 C2188 1.391 . S
C2190 C2191 1.400 . S
C2191 C2190 1.400 . S
C2191 C2192 1.398 1_455 S
C2191 C2197 1.491 1_465 S
C2192 H2183 0.950 . S
C2192 C2191 1.398 1_655 S
C2192 C2193 1.391 1_655 S
C2193 H2181 0.950 . S
C2193 C2189 1.393 . S
C2193 C2192 1.391 1_455 S
C2194 H2184 0.950 . S
C2194 C2195 1.386 . S
C2194 C2196 1.391 . S
C2195 C2194 1.386 . S
C2195 C2199 1.393 . S
C2196 H2185 0.950 . S
C2196 C2194 1.391 . S
C2196 C2197 1.400 . S
C2197 C2191 1.491 1_645 S
C2197 C2196 1.400 . S
C2197 C2198 1.398 1_655 S
C2198 H2186 0.950 . S
C2198 C2197 1.398 1_455 S
C2198 C2199 1.391 1_455 S
C2199 H2187 0.950 . S
C2199 C2195 1.393 . S
C2199 C2198 1.391 1_655 S
H2200 C2208 0.950 . S
H2201 C2213 0.950 . S
H2202 C2210 0.950 . S
H2203 C2212 0.950 . S
H2204 C2214 0.950 . S
H2205 C2216 0.950 . S
H2206 C2218 0.950 . S
H2207 C2219 0.950 . S
C2208 H2200 0.950 . S
C2208 C2209 1.386 1_545 S
C2208 C2210 1.391 . S
C2209 C2208 1.386 1_565 S
C2209 C2213 1.393 . S
C2210 H2202 0.950 . S
C2210 C2208 1.391 . S
C2210 C2211 1.400 1_545 S
C2211 C2210 1.400 1_565 S
C2211 C2212 1.398 . S
C2211 C2217 1.491 1_565 S
C2212 H2203 0.950 . S
C2212 C2211 1.398 . S
C2212 C2213 1.391 . S
C2213 H2201 0.950 . S
C2213 C2209 1.393 . S
C2213 C2212 1.391 . S
C2214 H2204 0.950 . S
C2214 C2215 1.386 1_565 S
C2214 C2216 1.391 . S
C2215 C2214 1.386 1_545 S
C2215 C2219 1.393 . S
C2216 H2205 0.950 . S
C2216 C2214 1.391 . S
C2216 C2217 1.400 1_565 S
C2217 C2211 1.491 1_545 S
C2217 C2216 1.400 1_545 S
C2217 C2218 1.398 . S
C2218 H2206 0.950 . S
C2218 C2217 1.398 . S
C2218 C2219 1.391 . S
C2219 H2207 0.950 . S
C2219 C2215 1.393 . S
C2219 C2218 1.391 . S
H2220 C2228 0.950 . S
H2221 C2233 0.950 . S
H2222 C2230 0.950 . S
H2223 C2232 0.950 . S
H2224 C2234 0.950 . S
H2225 C2236 0.950 . S
H2226 C2238 0.950 . S
H2227 C2239 0.950 . S
C2228 H2220 0.950 . S
C2228 C2229 1.386 1_545 S
C2228 C2230 1.391 . S
C2229 C2228 1.386 1_565 S
C2229 C2233 1.393 . S
C2230 H2222 0.950 . S
C2230 C2228 1.391 . S
C2230 C2231 1.400 1_545 S
C2231 C2230 1.400 1_565 S
C2231 C2232 1.398 . S
C2231 C2237 1.491 1_665 S
C2232 H2223 0.950 . S
C2232 C2231 1.398 . S
C2232 C2233 1.391 . S
C2233 H2221 0.950 . S
C2233 C2229 1.393 . S
C2233 C2232 1.391 . S
C2234 H2224 0.950 . S
C2234 C2235 1.386 1_565 S
C2234 C2236 1.391 . S
C2235 C2234 1.386 1_545 S
C2235 C2239 1.393 . S
C2236 H2225 0.950 . S
C2236 C2234 1.391 . S
C2236 C2237 1.400 1_565 S
C2237 C2231 1.491 1_445 S
C2237 C2236 1.400 1_545 S
C2237 C2238 1.398 . S
C2238 H2226 0.950 . S
C2238 C2237 1.398 . S
C2238 C2239 1.391 . S
C2239 H2227 0.950 . S
C2239 C2235 1.393 . S
C2239 C2238 1.391 . S
H2240 C2248 0.950 . S
H2241 C2253 0.950 . S
H2242 C2250 0.950 1_655 S
H2243 C2252 0.950 . S
H2244 C2254 0.950 . S
H2245 C2256 0.950 . S
H2246 C2258 0.950 . S
H2247 C2259 0.950 . S
C2248 H2240 0.950 . S
C2248 C2249 1.386 1_556 S
C2248 C2250 1.391 . S
C2249 C2248 1.386 1_554 S
C2249 C2253 1.393 . S
C2250 H2242 0.950 1_455 S
C2250 C2248 1.391 . S
C2250 C2251 1.393 1_455 S
C2251 C2250 1.393 1_655 S
C2251 C2252 1.386 1_655 S
C2251 C2257 1.511 . S
C2252 H2243 0.950 . S
C2252 C2251 1.386 1_455 S
C2252 C2253 1.391 1_556 S
C2253 H2241 0.950 . S
C2253 C2249 1.393 . S
C2253 C2252 1.391 1_554 S
C2254 H2244 0.950 . S
C2254 C2255 1.386 . S
C2254 C2256 1.391 . S
C2255 C2254 1.386 . S
C2255 C2259 1.393 . S
C2256 H2245 0.950 . S
C2256 C2254 1.391 . S
C2256 C2257 1.400 . S
C2257 C2251 1.511 . S
C2257 C2256 1.400 . S
C2257 C2258 1.398 . S
C2258 H2246 0.950 . S
C2258 C2257 1.398 . S
C2258 C2259 1.391 . S
C2259 H2247 0.950 . S
C2259 C2255 1.393 . S
C2259 C2258 1.391 . S
H2260 C2268 0.950 . S
H2261 C2273 0.950 . S
H2262 C2270 0.950 . S
H2263 C2272 0.950 . S
H2264 C2274 0.950 . S
H2265 C2276 0.950 . S
H2266 C2278 0.950 . S
H2267 C2279 0.950 . S
C2268 H2260 0.950 . S
C2268 C2269 1.386 . S
C2268 C2270 1.391 . S
C2269 C2268 1.386 . S
C2269 C2273 1.393 . S
C2270 H2262 0.950 . S
C2270 C2268 1.391 . S
C2270 C2271 1.400 . S
C2271 C2270 1.400 . S
C2271 C2272 1.398 . S
C2271 C2277 1.491 . S
C2272 H2263 0.950 . S
C2272 C2271 1.398 . S
C2272 C2273 1.391 . S
C2273 H2261 0.950 . S
C2273 C2269 1.393 . S
C2273 C2272 1.391 . S
C2274 H2264 0.950 . S
C2274 C2275 1.386 . S
C2274 C2276 1.391 . S
C2275 C2274 1.386 . S
C2275 C2279 1.393 . S
C2276 H2265 0.950 . S
C2276 C2274 1.391 . S
C2276 C2277 1.400 . S
C2277 C2271 1.491 . S
C2277 C2276 1.400 . S
C2277 C2278 1.398 . S
C2278 H2266 0.950 . S
C2278 C2277 1.398 . S
C2278 C2279 1.391 . S
C2279 H2267 0.950 . S
C2279 C2275 1.393 . S
C2279 C2278 1.391 . S
H2280 C2288 0.950 . S
H2281 C2293 0.950 . S
H2282 C2290 0.950 . S
H2283 C2292 0.950 . S
H2284 C2294 0.950 . S
H2285 C2296 0.950 . S
H2286 C2298 0.950 . S
H2287 C2299 0.950 . S
C2288 H2280 0.950 . S
C2288 C2289 1.386 . S
C2288 C2290 1.391 . S
C2289 C2288 1.386 . S
C2289 C2293 1.393 . S
C2290 H2282 0.950 . S
C2290 C2288 1.391 . S
C2290 C2291 1.400 . S
C2291 C2290 1.400 . S
C2291 C2292 1.398 . S
C2291 C2297 1.491 . S
C2292 H2283 0.950 . S
C2292 C2291 1.398 . S
C2292 C2293 1.391 . S
C2293 H2281 0.950 . S
C2293 C2289 1.393 . S
C2293 C2292 1.391 . S
C2294 H2284 0.950 . S
C2294 C2295 1.386 . S
C2294 C2296 1.391 . S
C2295 C2294 1.386 . S
C2295 C2299 1.393 . S
C2296 H2285 0.950 . S
C2296 C2294 1.391 . S
C2296 C2297 1.400 . S
C2297 C2291 1.491 . S
C2297 C2296 1.400 . S
C2297 C2298 1.398 . S
C2298 H2286 0.950 . S
C2298 C2297 1.398 . S
C2298 C2299 1.391 . S
C2299 H2287 0.950 . S
C2299 C2295 1.393 . S
C2299 C2298 1.391 . S
H2300 C2308 0.950 . S
H2301 C2313 0.950 . S
H2302 C2310 0.950 . S
H2303 C2312 0.950 . S
H2304 C2314 0.950 . S
H2305 C2316 0.950 . S
H2306 C2318 0.950 . S
H2307 C2319 0.950 . S
C2308 H2300 0.950 . S
C2308 C2309 1.386 . S
C2308 C2310 1.391 . S
C2309 C2308 1.386 . S
C2309 C2313 1.393 . S
C2310 H2302 0.950 . S
C2310 C2308 1.391 . S
C2310 C2311 1.400 . S
C2311 C2310 1.400 . S
C2311 C2312 1.398 . S
C2311 C2317 1.491 . S
C2312 H2303 0.950 . S
C2312 C2311 1.398 . S
C2312 C2313 1.391 . S
C2313 H2301 0.950 . S
C2313 C2309 1.393 . S
C2313 C2312 1.391 . S
C2314 H2304 0.950 . S
C2314 C2315 1.386 . S
C2314 C2316 1.391 . S
C2315 C2314 1.386 . S
C2315 C2319 1.393 . S
C2316 H2305 0.950 . S
C2316 C2314 1.391 . S
C2316 C2317 1.400 . S
C2317 C2311 1.491 . S
C2317 C2316 1.400 . S
C2317 C2318 1.398 . S
C2318 H2306 0.950 . S
C2318 C2317 1.398 . S
C2318 C2319 1.391 . S
C2319 H2307 0.950 . S
C2319 C2315 1.393 . S
C2319 C2318 1.391 . S
H2320 C2328 0.950 . S
H2321 C2333 0.950 . S
H2322 C2330 0.950 . S
H2323 C2332 0.950 . S
H2324 C2334 0.950 . S
H2325 C2336 0.993 . S
H2326 C2338 0.950 . S
H2327 C2339 0.950 . S
C2328 H2320 0.950 . S
C2328 C2329 1.386 1_455 S
C2328 C2330 1.391 . S
C2329 C2328 1.386 1_655 S
C2329 C2333 1.393 . S
C2330 H2322 0.950 . S
C2330 C2328 1.391 . S
C2330 C2331 1.400 . S
C2331 C2330 1.400 . S
C2331 C2332 1.398 1_455 S
C2331 C2337 1.491 . S
C2332 H2323 0.950 . S
C2332 C2331 1.398 1_655 S
C2332 C2333 1.391 . S
C2333 H2321 0.950 . S
C2333 C2329 1.393 . S
C2333 C2332 1.391 . S
C2334 H2324 0.950 . S
C2334 C2335 1.386 . S
C2334 C2336 1.391 . S
C2335 C2334 1.386 . S
C2335 C2339 1.393 . S
C2336 H2325 0.993 . S
C2336 C2334 1.391 . S
C2336 C2337 1.400 . S
C2337 C2331 1.491 . S
C2337 C2336 1.400 . S
C2337 C2338 1.398 . S
C2338 H2326 0.950 . S
C2338 C2337 1.398 . S
C2338 C2339 1.391 . S
C2339 H2327 0.950 . S
C2339 C2335 1.393 . S
C2339 C2338 1.391 . S
H2340 C2348 0.950 . S
H2341 C2353 0.950 . S
H2342 C2350 0.950 . S
H2343 C2352 0.950 . S
H2344 C2354 0.950 . S
H2345 C2356 0.950 . S
H2346 C2358 0.950 . S
H2347 C2359 0.950 . S
C2348 H2340 0.950 . S
C2348 C2349 1.386 . S
C2348 C2350 1.391 . S
C2349 C2348 1.386 . S
C2349 C2353 1.393 . S
C2350 H2342 0.950 . S
C2350 C2348 1.391 . S
C2350 C2351 1.400 . S
C2351 C2350 1.400 . S
C2351 C2352 1.398 . S
C2351 C2357 1.491 . S
C2352 H2343 0.950 . S
C2352 C2351 1.398 . S
C2352 C2353 1.391 . S
C2353 H2341 0.950 . S
C2353 C2349 1.393 . S
C2353 C2352 1.391 . S
C2354 H2344 0.950 . S
C2354 C2355 1.386 . S
C2354 C2356 1.391 . S
C2355 C2354 1.386 . S
C2355 C2359 1.393 . S
C2356 H2345 0.950 . S
C2356 C2354 1.391 . S
C2356 C2357 1.400 . S
C2357 C2351 1.491 . S
C2357 C2356 1.400 . S
C2357 C2358 1.398 . S
C2358 H2346 0.950 . S
C2358 C2357 1.398 . S
C2358 C2359 1.391 . S
C2359 H2347 0.950 . S
C2359 C2355 1.393 . S
C2359 C2358 1.391 . S
H2360 C2368 0.950 . S
H2361 C2373 0.950 . S
H2362 C2370 0.950 . S
H2363 C2372 0.950 . S
H2364 C2374 0.950 . S
H2365 C2376 0.950 . S
H2366 C2378 0.950 . S
H2367 C2379 0.950 . S
C2368 H2360 0.950 . S
C2368 C2369 1.386 . S
C2368 C2370 1.391 . S
C2369 C2368 1.386 . S
C2369 C2373 1.393 . S
C2370 H2362 0.950 . S
C2370 C2368 1.391 . S
C2370 C2371 1.400 . S
C2371 C2370 1.400 . S
C2371 C2372 1.398 . S
C2371 C2377 1.491 . S
C2372 H2363 0.950 . S
C2372 C2371 1.398 . S
C2372 C2373 1.391 . S
C2373 H2361 0.950 . S
C2373 C2369 1.393 . S
C2373 C2372 1.391 . S
C2374 H2364 0.950 . S
C2374 C2375 1.386 . S
C2374 C2376 1.391 . S
C2375 C2374 1.386 . S
C2375 C2379 1.393 . S
C2376 H2365 0.950 . S
C2376 C2374 1.391 . S
C2376 C2377 1.400 . S
C2377 C2371 1.491 . S
C2377 C2376 1.400 . S
C2377 C2378 1.398 . S
C2378 H2366 0.950 . S
C2378 C2377 1.398 . S
C2378 C2379 1.391 . S
C2379 H2367 0.950 . S
C2379 C2375 1.393 . S
C2379 C2378 1.391 . S
H2380 C2388 0.950 . S
H2381 C2393 0.950 . S
H2382 C2390 0.950 . S
H2383 C2392 0.950 . S
H2384 C2394 0.950 . S
H2385 C2396 0.950 . S
H2386 C2398 0.950 . S
H2387 C2399 0.950 . S
C2388 H2380 0.950 . S
C2388 C2389 1.386 . S
C2388 C2390 1.391 . S
C2389 C2388 1.386 . S
C2389 C2393 1.393 . S
C2390 H2382 0.950 . S
C2390 C2388 1.391 . S
C2390 C2391 1.400 . S
C2391 C2390 1.400 . S
C2391 C2392 1.398 . S
C2391 C2397 1.491 . S
C2392 H2383 0.950 . S
C2392 C2391 1.398 . S
C2392 C2393 1.391 . S
C2393 H2381 0.950 . S
C2393 C2389 1.393 . S
C2393 C2392 1.391 . S
C2394 H2384 0.950 . S
C2394 C2395 1.386 . S
C2394 C2396 1.391 . S
C2395 C2394 1.386 . S
C2395 C2399 1.393 . S
C2396 H2385 0.950 . S
C2396 C2394 1.391 . S
C2396 C2397 1.400 . S
C2397 C2391 1.491 . S
C2397 C2396 1.400 . S
C2397 C2398 1.398 . S
C2398 H2386 0.950 . S
C2398 C2397 1.398 . S
C2398 C2399 1.391 . S
C2399 H2387 0.950 . S
C2399 C2395 1.393 . S
C2399 C2398 1.391 . S
H2400 C2408 0.950 . S
H2401 C2413 0.950 . S
H2402 C2410 0.950 . S
H2403 C2412 0.950 1_655 S
H2404 C2414 0.950 . S
H2405 C2416 0.950 . S
H2406 C2418 0.950 . S
H2407 C2419 0.950 . S
C2408 H2400 0.950 . S
C2408 C2409 1.386 . S
C2408 C2410 1.391 . S
C2409 C2408 1.386 . S
C2409 C2413 1.393 . S
C2410 H2402 0.950 . S
C2410 C2408 1.391 . S
C2410 C2411 1.400 . S
C2411 C2410 1.400 . S
C2411 C2412 1.398 . S
C2411 C2417 1.494 . S
C2412 H2403 0.950 1_455 S
C2412 C2411 1.398 . S
C2412 C2413 1.391 . S
C2413 H2401 0.950 . S
C2413 C2409 1.393 . S
C2413 C2412 1.391 . S
C2414 H2404 0.950 . S
C2414 C2415 1.386 . S
C2414 C2416 1.391 . S
C2415 C2414 1.386 . S
C2415 C2419 1.393 . S
C2416 H2405 0.950 . S
C2416 C2414 1.391 . S
C2416 C2417 1.395 1_655 S
C2417 C2411 1.494 . S
C2417 C2416 1.395 1_455 S
C2417 C2418 1.399 . S
C2418 H2406 0.950 . S
C2418 C2417 1.399 . S
C2418 C2419 1.391 1_455 S
C2419 H2407 0.950 . S
C2419 C2415 1.393 . S
C2419 C2418 1.391 1_655 S
H2420 C2428 0.950 . S
H2421 C2433 0.950 . S
H2422 C2430 0.950 . S
H2423 C2432 0.950 . S
H2424 C2434 0.950 . S
H2425 C2436 0.950 . S
H2426 C2438 0.950 . S
H2427 C2439 0.950 . S
C2428 H2420 0.950 . S
C2428 C2429 1.386 . S
C2428 C2430 1.391 . S
C2429 C2428 1.386 . S
C2429 C2433 1.393 . S
C2430 H2422 0.950 . S
C2430 C2428 1.391 . S
C2430 C2431 1.400 . S
C2431 C2430 1.400 . S
C2431 C2432 1.398 . S
C2431 C2437 1.491 . S
C2432 H2423 0.950 . S
C2432 C2431 1.398 . S
C2432 C2433 1.391 . S
C2433 H2421 0.950 . S
C2433 C2429 1.393 . S
C2433 C2432 1.391 . S
C2434 H2424 0.950 . S
C2434 C2435 1.386 . S
C2434 C2436 1.391 . S
C2435 C2434 1.386 . S
C2435 C2439 1.393 . S
C2436 H2425 0.950 . S
C2436 C2434 1.391 . S
C2436 C2437 1.400 . S
C2437 C2431 1.491 . S
C2437 C2436 1.400 . S
C2437 C2438 1.398 . S
C2438 H2426 0.950 . S
C2438 C2437 1.398 . S
C2438 C2439 1.391 . S
C2439 H2427 0.950 . S
C2439 C2435 1.393 . S
C2439 C2438 1.391 . S
H2440 C2448 0.950 . S
H2441 C2453 0.950 . S
H2442 C2450 0.950 . S
H2443 C2452 0.950 . S
H2444 C2454 0.950 . S
H2445 C2456 0.950 . S
H2446 C2458 0.950 . S
H2447 C2459 0.950 . S
C2448 H2440 0.950 . S
C2448 C2449 1.386 . S
C2448 C2450 1.391 . S
C2449 C2448 1.386 . S
C2449 C2453 1.393 . S
C2450 H2442 0.950 . S
C2450 C2448 1.391 . S
C2450 C2451 1.400 . S
C2451 C2450 1.400 . S
C2451 C2452 1.398 . S
C2451 C2457 1.491 . S
C2452 H2443 0.950 . S
C2452 C2451 1.398 . S
C2452 C2453 1.391 . S
C2453 H2441 0.950 . S
C2453 C2449 1.393 . S
C2453 C2452 1.391 . S
C2454 H2444 0.950 . S
C2454 C2455 1.386 . S
C2454 C2456 1.391 . S
C2455 C2454 1.386 . S
C2455 C2459 1.393 . S
C2456 H2445 0.950 . S
C2456 C2454 1.391 . S
C2456 C2457 1.400 . S
C2457 C2451 1.491 . S
C2457 C2456 1.400 . S
C2457 C2458 1.398 . S
C2458 H2446 0.950 . S
C2458 C2457 1.398 . S
C2458 C2459 1.391 . S
C2459 H2447 0.950 . S
C2459 C2455 1.393 . S
C2459 C2458 1.391 . S
H2460 C2468 0.950 . S
H2461 C2473 0.950 . S
H2462 C2470 0.950 . S
H2463 C2472 0.950 . S
H2464 C2474 0.950 . S
H2465 C2476 0.950 . S
H2466 C2478 0.950 . S
H2467 C2479 0.950 . S
C2468 H2460 0.950 . S
C2468 C2469 1.386 . S
C2468 C2470 1.391 . S
C2469 C2468 1.386 . S
C2469 C2473 1.393 . S
C2470 H2462 0.950 . S
C2470 C2468 1.391 . S
C2470 C2471 1.400 . S
C2471 C2470 1.400 . S
C2471 C2472 1.398 . S
C2471 C2477 1.491 . S
C2472 H2463 0.950 . S
C2472 C2471 1.398 . S
C2472 C2473 1.391 . S
C2473 H2461 0.950 . S
C2473 C2469 1.393 . S
C2473 C2472 1.391 . S
C2474 H2464 0.950 . S
C2474 C2475 1.386 . S
C2474 C2476 1.391 . S
C2475 C2474 1.386 . S
C2475 C2479 1.393 . S
C2476 H2465 0.950 . S
C2476 C2474 1.391 . S
C2476 C2477 1.400 . S
C2477 C2471 1.491 . S
C2477 C2476 1.400 . S
C2477 C2478 1.398 . S
C2478 H2466 0.950 . S
C2478 C2477 1.398 . S
C2478 C2479 1.391 . S
C2479 H2467 0.950 . S
C2479 C2475 1.393 . S
C2479 C2478 1.391 . S
H2480 C2488 0.950 . S
H2481 C2493 0.950 . S
H2482 C2490 0.950 . S
H2483 C2492 0.950 . S
H2484 C2494 0.950 . S
H2485 C2496 0.950 . S
H2486 C2498 0.950 . S
H2487 C2499 0.950 . S
C2488 H2480 0.950 . S
C2488 C2489 1.386 1_655 S
C2488 C2490 1.391 . S
C2489 C2488 1.386 1_455 S
C2489 C2493 1.393 . S
C2490 H2482 0.950 . S
C2490 C2488 1.391 . S
C2490 C2491 1.400 . S
C2491 C2490 1.400 . S
C2491 C2492 1.398 1_655 S
C2491 C2497 1.491 . S
C2492 H2483 0.950 . S
C2492 C2491 1.398 1_455 S
C2492 C2493 1.391 . S
C2493 H2481 0.950 . S
C2493 C2489 1.393 . S
C2493 C2492 1.391 . S
C2494 H2484 0.950 . S
C2494 C2495 1.386 . S
C2494 C2496 1.391 . S
C2495 C2494 1.386 . S
C2495 C2499 1.393 . S
C2496 H2485 0.950 . S
C2496 C2494 1.391 . S
C2496 C2497 1.400 . S
C2497 C2491 1.491 . S
C2497 C2496 1.400 . S
C2497 C2498 1.398 . S
C2498 H2486 0.950 . S
C2498 C2497 1.398 . S
C2498 C2499 1.391 . S
C2499 H2487 0.950 . S
C2499 C2495 1.393 . S
C2499 C2498 1.391 . S
H2500 C2508 0.950 . S
H2501 C2513 0.950 . S
H2502 C2510 0.950 . S
H2503 C2512 0.950 . S
H2504 C2514 0.950 . S
H2505 C2516 0.950 . S
H2506 C2518 0.950 . S
H2507 C2519 0.950 . S
C2508 H2500 0.950 . S
C2508 C2509 1.386 . S
C2508 C2510 1.391 . S
C2509 C2508 1.386 . S
C2509 C2513 1.393 . S
C2510 H2502 0.950 . S
C2510 C2508 1.391 . S
C2510 C2511 1.400 . S
C2511 C2510 1.400 . S
C2511 C2512 1.398 . S
C2511 C2517 1.491 . S
C2512 H2503 0.950 . S
C2512 C2511 1.398 . S
C2512 C2513 1.391 . S
C2513 H2501 0.950 . S
C2513 C2509 1.393 . S
C2513 C2512 1.391 . S
C2514 H2504 0.950 . S
C2514 C2515 1.386 . S
C2514 C2516 1.391 . S
C2515 C2514 1.386 . S
C2515 C2519 1.393 . S
C2516 H2505 0.950 . S
C2516 C2514 1.391 . S
C2516 C2517 1.400 . S
C2517 C2511 1.491 . S
C2517 C2516 1.400 . S
C2517 C2518 1.398 . S
C2518 H2506 0.950 . S
C2518 C2517 1.398 . S
C2518 C2519 1.391 . S
C2519 H2507 0.950 . S
C2519 C2515 1.393 . S
C2519 C2518 1.391 . S
H2520 C2528 0.950 . S
H2521 C2533 0.950 . S
H2522 C2530 0.950 . S
H2523 C2532 0.950 . S
H2524 C2534 0.950 . S
H2525 C2536 0.950 . S
H2526 C2538 0.950 . S
H2527 C2539 0.950 . S
C2528 H2520 0.950 . S
C2528 C2529 1.386 . S
C2528 C2530 1.391 1_554 S
C2529 C2528 1.386 . S
C2529 C2533 1.393 1_554 S
C2530 H2522 0.950 . S
C2530 C2528 1.391 1_556 S
C2530 C2531 1.400 . S
C2531 C2530 1.400 . S
C2531 C2532 1.398 . S
C2531 C2537 1.491 . S
C2532 H2523 0.950 . S
C2532 C2531 1.398 . S
C2532 C2533 1.391 . S
C2533 H2521 0.950 . S
C2533 C2529 1.393 1_556 S
C2533 C2532 1.391 . S
C2534 H2524 0.950 . S
C2534 C2535 1.386 . S
C2534 C2536 1.391 . S
C2535 C2534 1.386 . S
C2535 C2539 1.393 . S
C2536 H2525 0.950 . S
C2536 C2534 1.391 . S
C2536 C2537 1.400 . S
C2537 C2531 1.491 . S
C2537 C2536 1.400 . S
C2537 C2538 1.398 . S
C2538 H2526 0.950 . S
C2538 C2537 1.398 . S
C2538 C2539 1.391 . S
C2539 H2527 0.950 . S
C2539 C2535 1.393 . S
C2539 C2538 1.391 . S
H2540 C2548 0.950 . S
H2541 C2553 0.950 . S
H2542 C2550 0.950 . S
H2543 C2552 0.950 . S
H2544 C2554 0.950 . S
H2545 C2556 0.950 . S
H2546 C2558 0.950 . S
H2547 C2559 0.950 . S
C2548 H2540 0.950 . S
C2548 C2549 1.386 . S
C2548 C2550 1.391 . S
C2549 C2548 1.386 . S
C2549 C2553 1.393 . S
C2550 H2542 0.950 . S
C2550 C2548 1.391 . S
C2550 C2551 1.400 . S
C2551 C2550 1.400 . S
C2551 C2552 1.398 . S
C2551 C2557 1.491 . S
C2552 H2543 0.950 . S
C2552 C2551 1.398 . S
C2552 C2553 1.391 . S
C2553 H2541 0.950 . S
C2553 C2549 1.393 . S
C2553 C2552 1.391 . S
C2554 H2544 0.950 . S
C2554 C2555 1.386 . S
C2554 C2556 1.391 . S
C2555 C2554 1.386 . S
C2555 C2559 1.393 . S
C2556 H2545 0.950 . S
C2556 C2554 1.391 . S
C2556 C2557 1.400 . S
C2557 C2551 1.491 . S
C2557 C2556 1.400 . S
C2557 C2558 1.398 . S
C2558 H2546 0.950 . S
C2558 C2557 1.398 . S
C2558 C2559 1.391 . S
C2559 H2547 0.950 . S
C2559 C2555 1.393 . S
C2559 C2558 1.391 . S
H2560 C2568 0.950 . S
H2561 C2573 0.950 . S
H2562 C2570 0.950 . S
H2563 C2572 0.950 . S
H2564 C2574 0.950 . S
H2565 C2576 0.950 . S
H2566 C2578 0.950 . S
H2567 C2579 0.950 . S
C2568 H2560 0.950 . S
C2568 C2569 1.386 . S
C2568 C2570 1.391 . S
C2569 C2568 1.386 . S
C2569 C2573 1.393 . S
C2570 H2562 0.950 . S
C2570 C2568 1.391 . S
C2570 C2571 1.400 . S
C2571 C2570 1.400 . S
C2571 C2572 1.398 . S
C2571 C2577 1.491 . S
C2572 H2563 0.950 . S
C2572 C2571 1.398 . S
C2572 C2573 1.391 . S
C2573 H2561 0.950 . S
C2573 C2569 1.393 . S
C2573 C2572 1.391 . S
C2574 H2564 0.950 . S
C2574 C2575 1.386 . S
C2574 C2576 1.391 . S
C2575 C2574 1.386 . S
C2575 C2579 1.393 . S
C2576 H2565 0.950 . S
C2576 C2574 1.391 . S
C2576 C2577 1.400 . S
C2577 C2571 1.491 . S
C2577 C2576 1.400 . S
C2577 C2578 1.398 . S
C2578 H2566 0.950 . S
C2578 C2577 1.398 . S
C2578 C2579 1.391 . S
C2579 H2567 0.950 . S
C2579 C2575 1.393 . S
C2579 C2578 1.391 . S
H2580 C2588 0.950 . S
H2581 C2593 0.950 . S
H2582 C2590 0.950 . S
H2583 C2592 0.950 . S
H2584 C2594 0.950 . S
H2585 C2596 0.950 . S
H2586 C2598 0.950 . S
H2587 C2599 0.950 . S
C2588 H2580 0.950 . S
C2588 C2589 1.386 . S
C2588 C2590 1.391 . S
C2589 C2588 1.386 . S
C2589 C2593 1.393 . S
C2590 H2582 0.950 . S
C2590 C2588 1.391 . S
C2590 C2591 1.400 . S
C2591 C2590 1.400 . S
C2591 C2592 1.398 . S
C2591 C2597 1.491 . S
C2592 H2583 0.950 . S
C2592 C2591 1.398 . S
C2592 C2593 1.391 . S
C2593 H2581 0.950 . S
C2593 C2589 1.393 . S
C2593 C2592 1.391 . S
C2594 H2584 0.950 . S
C2594 C2595 1.386 . S
C2594 C2596 1.391 . S
C2595 C2594 1.386 . S
C2595 C2599 1.393 . S
C2596 H2585 0.950 . S
C2596 C2594 1.391 . S
C2596 C2597 1.400 . S
C2597 C2591 1.491 . S
C2597 C2596 1.400 . S
C2597 C2598 1.398 . S
C2598 H2586 0.950 . S
C2598 C2597 1.398 . S
C2598 C2599 1.391 . S
C2599 H2587 0.950 . S
C2599 C2595 1.393 . S
C2599 C2598 1.391 . S
H2600 C2608 0.950 1_455 S
H2601 C2613 0.950 . S
H2602 C2610 0.950 . S
H2603 C2612 0.950 . S
H2604 C2614 0.950 . S
H2605 C2616 0.950 1_655 S
H2606 C2618 0.950 . S
H2607 C2619 0.950 . S
C2608 H2600 0.950 1_655 S
C2608 C2609 1.386 . S
C2608 C2610 1.391 1_654 S
C2609 C2608 1.386 . S
C2609 C2613 1.393 1_554 S
C2610 H2602 0.950 . S
C2610 C2608 1.391 1_456 S
C2610 C2611 1.403 . S
C2611 C2610 1.403 . S
C2611 C2612 1.391 1_455 S
C2611 C2617 1.495 . S
C2612 H2603 0.950 . S
C2612 C2611 1.391 1_655 S
C2612 C2613 1.391 . S
C2613 H2601 0.950 . S
C2613 C2609 1.393 1_556 S
C2613 C2612 1.391 . S
C2614 H2604 0.950 . S
C2614 C2615 1.386 . S
C2614 C2616 1.391 . S
C2615 C2614 1.386 . S
C2615 C2619 1.393 . S
C2616 H2605 0.950 1_455 S
C2616 C2614 1.391 . S
C2616 C2617 1.400 . S
C2617 C2611 1.495 . S
C2617 C2616 1.400 . S
C2617 C2618 1.398 . S
C2618 H2606 0.950 . S
C2618 C2617 1.398 . S
C2618 C2619 1.391 . S
C2619 H2607 0.950 . S
C2619 C2615 1.393 . S
C2619 C2618 1.391 . S
H2620 C2628 0.950 . S
H2621 C2633 0.950 . S
H2622 C2630 0.950 . S
H2623 C2632 0.950 . S
H2624 C2634 0.950 . S
H2625 C2636 0.950 . S
H2626 C2638 0.950 . S
H2627 C2639 0.950 . S
C2628 H2620 0.950 . S
C2628 C2629 1.386 . S
C2628 C2630 1.391 . S
C2629 C2628 1.386 . S
C2629 C2633 1.393 . S
C2630 H2622 0.950 . S
C2630 C2628 1.391 . S
C2630 C2631 1.400 . S
C2631 C2630 1.400 . S
C2631 C2632 1.398 . S
C2631 C2637 1.491 . S
C2632 H2623 0.950 . S
C2632 C2631 1.398 . S
C2632 C2633 1.391 . S
C2633 H2621 0.950 . S
C2633 C2629 1.393 . S
C2633 C2632 1.391 . S
C2634 H2624 0.950 . S
C2634 C2635 1.386 . S
C2634 C2636 1.391 . S
C2635 C2634 1.386 . S
C2635 C2639 1.393 . S
C2636 H2625 0.950 . S
C2636 C2634 1.391 . S
C2636 C2637 1.400 . S
C2637 C2631 1.491 . S
C2637 C2636 1.400 . S
C2637 C2638 1.398 . S
C2638 H2626 0.950 . S
C2638 C2637 1.398 . S
C2638 C2639 1.391 . S
C2639 H2627 0.950 . S
C2639 C2635 1.393 . S
C2639 C2638 1.391 . S
H2640 C2648 0.950 . S
H2641 C2653 0.950 . S
H2642 C2650 0.950 . S
H2643 C2652 0.950 . S
H2644 C2654 0.950 . S
H2645 C2656 0.950 . S
H2646 C2658 0.950 . S
H2647 C2659 0.950 . S
C2648 H2640 0.950 . S
C2648 C2649 1.386 . S
C2648 C2650 1.391 . S
C2649 C2648 1.386 . S
C2649 C2653 1.393 . S
C2650 H2642 0.950 . S
C2650 C2648 1.391 . S
C2650 C2651 1.400 . S
C2651 C2650 1.400 . S
C2651 C2652 1.398 . S
C2651 C2657 1.491 . S
C2652 H2643 0.950 . S
C2652 C2651 1.398 . S
C2652 C2653 1.391 . S
C2653 H2641 0.950 . S
C2653 C2649 1.393 . S
C2653 C2652 1.391 . S
C2654 H2644 0.950 . S
C2654 C2655 1.386 . S
C2654 C2656 1.391 . S
C2655 C2654 1.386 . S
C2655 C2659 1.393 . S
C2656 H2645 0.950 . S
C2656 C2654 1.391 . S
C2656 C2657 1.400 . S
C2657 C2651 1.491 . S
C2657 C2656 1.400 . S
C2657 C2658 1.398 . S
C2658 H2646 0.950 . S
C2658 C2657 1.398 . S
C2658 C2659 1.391 . S
C2659 H2647 0.950 . S
C2659 C2655 1.393 . S
C2659 C2658 1.391 . S
H2660 C2668 0.950 . S
H2661 C2673 0.950 . S
H2662 C2670 0.950 . S
H2663 C2672 0.950 . S
H2664 C2674 0.950 . S
H2665 C2676 0.950 . S
H2666 C2678 0.950 . S
H2667 C2679 0.950 . S
C2668 H2660 0.950 . S
C2668 C2669 1.386 . S
C2668 C2670 1.391 . S
C2669 C2668 1.386 . S
C2669 C2673 1.393 . S
C2670 H2662 0.950 . S
C2670 C2668 1.391 . S
C2670 C2671 1.400 . S
C2671 C2670 1.400 . S
C2671 C2672 1.398 . S
C2671 C2677 1.491 . S
C2672 H2663 0.950 . S
C2672 C2671 1.398 . S
C2672 C2673 1.391 . S
C2673 H2661 0.950 . S
C2673 C2669 1.393 . S
C2673 C2672 1.391 . S
C2674 H2664 0.950 . S
C2674 C2675 1.386 . S
C2674 C2676 1.391 . S
C2675 C2674 1.386 . S
C2675 C2679 1.393 . S
C2676 H2665 0.950 . S
C2676 C2674 1.391 . S
C2676 C2677 1.400 . S
C2677 C2671 1.491 . S
C2677 C2676 1.400 . S
C2677 C2678 1.398 . S
C2678 H2666 0.950 . S
C2678 C2677 1.398 . S
C2678 C2679 1.391 . S
C2679 H2667 0.950 . S
C2679 C2675 1.393 . S
C2679 C2678 1.391 . S
H2680 C2688 0.950 . S
H2681 C2693 0.950 . S
H2682 C2690 0.950 . S
H2683 C2692 0.950 . S
H2684 C2694 0.950 . S
H2685 C2696 0.950 . S
H2686 C2698 0.909 1_455 S
H2687 C2699 0.950 . S
C2688 H2680 0.950 . S
C2688 C2689 1.386 . S
C2688 C2690 1.391 . S
C2689 C2688 1.386 . S
C2689 C2693 1.393 1_455 S
C2690 H2682 0.950 . S
C2690 C2688 1.391 . S
C2690 C2691 1.400 1_455 S
C2691 C2690 1.400 1_655 S
C2691 C2692 1.398 . S
C2691 C2697 1.491 . S
C2692 H2683 0.950 . S
C2692 C2691 1.398 . S
C2692 C2693 1.391 . S
C2693 H2681 0.950 . S
C2693 C2689 1.393 1_655 S
C2693 C2692 1.391 . S
C2694 H2684 0.950 . S
C2694 C2695 1.386 . S
C2694 C2696 1.391 . S
C2695 C2694 1.386 . S
C2695 C2699 1.393 . S
C2696 H2685 0.950 . S
C2696 C2694 1.391 . S
C2696 C2697 1.400 . S
C2697 C2691 1.491 . S
C2697 C2696 1.400 . S
C2697 C2698 1.398 . S
C2698 H2686 0.909 1_655 S
C2698 C2697 1.398 . S
C2698 C2699 1.391 . S
C2699 H2687 0.950 . S
C2699 C2695 1.393 . S
C2699 C2698 1.391 . S
H2700 C2708 0.950 . S
H2701 C2713 0.950 . S
H2702 C2710 0.950 . S
H2703 C2712 0.950 . S
H2704 C2714 0.950 . S
H2705 C2716 0.950 . S
H2706 C2718 0.950 . S
H2707 C2719 0.950 . S
C2708 H2700 0.950 . S
C2708 C2709 1.386 . S
C2708 C2710 1.391 . S
C2709 C2708 1.386 . S
C2709 C2713 1.393 . S
C2710 H2702 0.950 . S
C2710 C2708 1.391 . S
C2710 C2711 1.400 . S
C2711 C2710 1.400 . S
C2711 C2712 1.398 . S
C2711 C2717 1.491 . S
C2712 H2703 0.950 . S
C2712 C2711 1.398 . S
C2712 C2713 1.391 . S
C2713 H2701 0.950 . S
C2713 C2709 1.393 . S
C2713 C2712 1.391 . S
C2714 H2704 0.950 . S
C2714 C2715 1.386 . S
C2714 C2716 1.391 . S
C2715 C2714 1.386 . S
C2715 C2719 1.393 . S
C2716 H2705 0.950 . S
C2716 C2714 1.391 . S
C2716 C2717 1.400 . S
C2717 C2711 1.491 . S
C2717 C2716 1.400 . S
C2717 C2718 1.398 . S
C2718 H2706 0.950 . S
C2718 C2717 1.398 . S
C2718 C2719 1.391 . S
C2719 H2707 0.950 . S
C2719 C2715 1.393 . S
C2719 C2718 1.391 . S
H2720 C2728 0.950 . S
H2721 C2733 0.950 . S
H2722 C2730 0.950 . S
H2723 C2732 0.950 . S
H2724 C2734 0.950 . S
H2725 C2736 0.950 . S
H2726 C2738 0.950 . S
H2727 C2739 0.950 . S
C2728 H2720 0.950 . S
C2728 C2729 1.386 . S
C2728 C2730 1.391 . S
C2729 C2728 1.386 . S
C2729 C2733 1.393 . S
C2730 H2722 0.950 . S
C2730 C2728 1.391 . S
C2730 C2731 1.400 . S
C2731 C2730 1.400 . S
C2731 C2732 1.398 . S
C2731 C2737 1.491 . S
C2732 H2723 0.950 . S
C2732 C2731 1.398 . S
C2732 C2733 1.391 . S
C2733 H2721 0.950 . S
C2733 C2729 1.393 . S
C2733 C2732 1.391 . S
C2734 H2724 0.950 . S
C2734 C2735 1.386 . S
C2734 C2736 1.391 . S
C2735 C2734 1.386 . S
C2735 C2739 1.393 . S
C2736 H2725 0.950 . S
C2736 C2734 1.391 . S
C2736 C2737 1.400 . S
C2737 C2731 1.491 . S
C2737 C2736 1.400 . S
C2737 C2738 1.398 . S
C2738 H2726 0.950 . S
C2738 C2737 1.398 . S
C2738 C2739 1.391 . S
C2739 H2727 0.950 . S
C2739 C2735 1.393 . S
C2739 C2738 1.391 . S
H2740 C2748 0.950 . S
H2741 C2753 0.950 . S
H2742 C2750 0.950 . S
H2743 C2752 0.950 . S
H2744 C2754 0.950 . S
H2745 C2756 0.950 . S
H2746 C2758 0.950 . S
H2747 C2759 0.950 . S
C2748 H2740 0.950 . S
C2748 C2749 1.386 . S
C2748 C2750 1.391 . S
C2749 C2748 1.386 . S
C2749 C2753 1.393 . S
C2750 H2742 0.950 . S
C2750 C2748 1.391 . S
C2750 C2751 1.400 . S
C2751 C2750 1.400 . S
C2751 C2752 1.398 . S
C2751 C2757 1.491 . S
C2752 H2743 0.950 . S
C2752 C2751 1.398 . S
C2752 C2753 1.391 . S
C2753 H2741 0.950 . S
C2753 C2749 1.393 . S
C2753 C2752 1.391 . S
C2754 H2744 0.950 . S
C2754 C2755 1.386 . S
C2754 C2756 1.391 . S
C2755 C2754 1.386 . S
C2755 C2759 1.393 . S
C2756 H2745 0.950 . S
C2756 C2754 1.391 . S
C2756 C2757 1.400 . S
C2757 C2751 1.491 . S
C2757 C2756 1.400 . S
C2757 C2758 1.398 . S
C2758 H2746 0.950 . S
C2758 C2757 1.398 . S
C2758 C2759 1.391 . S
C2759 H2747 0.950 . S
C2759 C2755 1.393 . S
C2759 C2758 1.391 . S
H2760 C2768 0.950 . S
H2761 C2773 0.950 . S
H2762 C2770 0.950 . S
H2763 C2772 0.950 . S
H2764 C2774 0.950 . S
H2765 C2776 0.950 . S
H2766 C2778 0.950 . S
H2767 C2779 0.950 . S
C2768 H2760 0.950 . S
C2768 C2769 1.386 . S
C2768 C2770 1.391 1_455 S
C2769 C2768 1.386 . S
C2769 C2773 1.393 . S
C2770 H2762 0.950 . S
C2770 C2768 1.391 1_655 S
C2770 C2771 1.402 . S
C2771 C2770 1.402 . S
C2771 C2772 1.376 1_655 S
C2771 C2777 1.511 . S
C2772 H2763 0.950 . S
C2772 C2771 1.376 1_455 S
C2772 C2773 1.391 . S
C2773 H2761 0.950 . S
C2773 C2769 1.393 . S
C2773 C2772 1.391 . S
C2774 H2764 0.950 . S
C2774 C2775 1.386 . S
C2774 C2776 1.391 . S
C2775 C2774 1.386 . S
C2775 C2779 1.393 . S
C2776 H2765 0.950 . S
C2776 C2774 1.391 . S
C2776 C2777 1.400 . S
C2777 C2771 1.511 . S
C2777 C2776 1.400 . S
C2777 C2778 1.398 . S
C2778 H2766 0.950 . S
C2778 C2777 1.398 . S
C2778 C2779 1.391 . S
C2779 H2767 0.950 . S
C2779 C2775 1.393 . S
C2779 C2778 1.391 . S
H2780 C2788 0.950 . S
H2781 C2793 0.950 . S
H2782 C2790 0.950 . S
H2783 C2792 0.950 . S
H2784 C2794 0.950 . S
H2785 C2796 0.950 . S
H2786 C2798 0.950 . S
H2787 C2799 0.950 . S
C2788 H2780 0.950 . S
C2788 C2789 1.386 . S
C2788 C2790 1.391 . S
C2789 C2788 1.386 . S
C2789 C2793 1.393 . S
C2790 H2782 0.950 . S
C2790 C2788 1.391 . S
C2790 C2791 1.400 . S
C2791 C2790 1.400 . S
C2791 C2792 1.398 . S
C2791 C2797 1.491 . S
C2792 H2783 0.950 . S
C2792 C2791 1.398 . S
C2792 C2793 1.391 . S
C2793 H2781 0.950 . S
C2793 C2789 1.393 . S
C2793 C2792 1.391 . S
C2794 H2784 0.950 . S
C2794 C2795 1.386 . S
C2794 C2796 1.391 . S
C2795 C2794 1.386 . S
C2795 C2799 1.393 . S
C2796 H2785 0.950 . S
C2796 C2794 1.391 . S
C2796 C2797 1.400 . S
C2797 C2791 1.491 . S
C2797 C2796 1.400 . S
C2797 C2798 1.398 . S
C2798 H2786 0.950 . S
C2798 C2797 1.398 . S
C2798 C2799 1.391 . S
C2799 H2787 0.950 . S
C2799 C2795 1.393 . S
C2799 C2798 1.391 . S
H2800 C2808 0.950 . S
H2801 C2813 0.950 . S
H2802 C2810 0.950 . S
H2803 C2812 0.950 . S
H2804 C2814 0.950 . S
H2805 C2816 0.950 . S
H2806 C2818 0.950 . S
H2807 C2819 0.950 . S
C2808 H2800 0.950 . S
C2808 C2809 1.386 . S
C2808 C2810 1.391 . S
C2809 C2808 1.386 . S
C2809 C2813 1.393 . S
C2810 H2802 0.950 . S
C2810 C2808 1.391 . S
C2810 C2811 1.400 . S
C2811 C2810 1.400 . S
C2811 C2812 1.398 . S
C2811 C2817 1.491 . S
C2812 H2803 0.950 . S
C2812 C2811 1.398 . S
C2812 C2813 1.391 . S
C2813 H2801 0.950 . S
C2813 C2809 1.393 . S
C2813 C2812 1.391 . S
C2814 H2804 0.950 . S
C2814 C2815 1.386 . S
C2814 C2816 1.391 1_554 S
C2815 C2814 1.386 . S
C2815 C2819 1.393 . S
C2816 H2805 0.950 . S
C2816 C2814 1.391 1_556 S
C2816 C2817 1.400 . S
C2817 C2811 1.491 . S
C2817 C2816 1.400 . S
C2817 C2818 1.398 . S
C2818 H2806 0.950 . S
C2818 C2817 1.398 . S
C2818 C2819 1.391 1_556 S
C2819 H2807 0.950 . S
C2819 C2815 1.393 . S
C2819 C2818 1.391 1_554 S
H2820 C2828 0.950 . S
H2821 C2833 0.950 . S
H2822 C2830 0.950 . S
H2823 C2832 0.950 . S
H2824 C2834 0.950 . S
H2825 C2836 0.950 . S
H2826 C2838 0.950 . S
H2827 C2839 0.950 . S
C2828 H2820 0.950 . S
C2828 C2829 1.386 . S
C2828 C2830 1.391 . S
C2829 C2828 1.386 . S
C2829 C2833 1.393 . S
C2830 H2822 0.950 . S
C2830 C2828 1.391 . S
C2830 C2831 1.400 . S
C2831 C2830 1.400 . S
C2831 C2832 1.398 . S
C2831 C2837 1.491 . S
C2832 H2823 0.950 . S
C2832 C2831 1.398 . S
C2832 C2833 1.391 . S
C2833 H2821 0.950 . S
C2833 C2829 1.393 . S
C2833 C2832 1.391 . S
C2834 H2824 0.950 . S
C2834 C2835 1.386 . S
C2834 C2836 1.391 . S
C2835 C2834 1.386 . S
C2835 C2839 1.393 . S
C2836 H2825 0.950 . S
C2836 C2834 1.391 . S
C2836 C2837 1.400 . S
C2837 C2831 1.491 . S
C2837 C2836 1.400 . S
C2837 C2838 1.398 . S
C2838 H2826 0.950 . S
C2838 C2837 1.398 . S
C2838 C2839 1.391 . S
C2839 H2827 0.950 . S
C2839 C2835 1.393 . S
C2839 C2838 1.391 . S
H2840 C2848 0.950 . S
H2841 C2853 0.950 . S
H2842 C2850 0.950 . S
H2843 C2852 0.950 1_655 S
H2844 C2854 0.950 . S
H2845 C2856 0.950 . S
H2846 C2858 0.950 . S
H2847 C2859 0.950 . S
C2848 H2840 0.950 . S
C2848 C2849 1.386 . S
C2848 C2850 1.391 . S
C2849 C2848 1.386 . S
C2849 C2853 1.393 . S
C2850 H2842 0.950 . S
C2850 C2848 1.391 . S
C2850 C2851 1.400 . S
C2851 C2850 1.400 . S
C2851 C2852 1.398 . S
C2851 C2857 1.491 . S
C2852 H2843 0.950 1_455 S
C2852 C2851 1.398 . S
C2852 C2853 1.391 . S
C2853 H2841 0.950 . S
C2853 C2849 1.393 . S
C2853 C2852 1.391 . S
C2854 H2844 0.950 . S
C2854 C2855 1.386 . S
C2854 C2856 1.391 . S
C2855 C2854 1.386 . S
C2855 C2859 1.393 1_655 S
C2856 H2845 0.950 . S
C2856 C2854 1.391 . S
C2856 C2857 1.400 1_655 S
C2857 C2851 1.491 . S
C2857 C2856 1.400 1_455 S
C2857 C2858 1.398 . S
C2858 H2846 0.950 . S
C2858 C2857 1.398 . S
C2858 C2859 1.391 . S
C2859 H2847 0.950 . S
C2859 C2855 1.393 1_455 S
C2859 C2858 1.391 . S
H2860 C2868 0.950 . S
H2861 C2873 0.950 . S
H2862 C2870 0.950 . S
H2863 C2872 0.950 . S
H2864 C2874 0.950 . S
H2865 C2876 0.950 . S
H2866 C2878 0.950 . S
H2867 C2879 0.950 . S
C2868 H2860 0.950 . S
C2868 C2869 1.386 . S
C2868 C2870 1.391 . S
C2869 C2868 1.386 . S
C2869 C2873 1.393 . S
C2870 H2862 0.950 . S
C2870 C2868 1.391 . S
C2870 C2871 1.400 . S
C2871 C2870 1.400 . S
C2871 C2872 1.398 . S
C2871 C2877 1.491 . S
C2872 H2863 0.950 . S
C2872 C2871 1.398 . S
C2872 C2873 1.391 . S
C2873 H2861 0.950 . S
C2873 C2869 1.393 . S
C2873 C2872 1.391 . S
C2874 H2864 0.950 . S
C2874 C2875 1.386 . S
C2874 C2876 1.391 . S
C2875 C2874 1.386 . S
C2875 C2879 1.393 . S
C2876 H2865 0.950 . S
C2876 C2874 1.391 . S
C2876 C2877 1.400 . S
C2877 C2871 1.491 . S
C2877 C2876 1.400 . S
C2877 C2878 1.398 . S
C2878 H2866 0.950 . S
C2878 C2877 1.398 . S
C2878 C2879 1.391 . S
C2879 H2867 0.950 . S
C2879 C2875 1.393 . S
C2879 C2878 1.391 . S
H2880 C2888 0.950 . S
H2881 C2893 0.950 . S
H2882 C2890 0.950 . S
H2883 C2892 0.950 . S
H2884 C2894 0.950 . S
H2885 C2896 0.950 . S
H2886 C2898 0.950 . S
H2887 C2899 0.950 . S
C2888 H2880 0.950 . S
C2888 C2889 1.386 . S
C2888 C2890 1.391 . S
C2889 C2888 1.386 . S
C2889 C2893 1.393 . S
C2890 H2882 0.950 . S
C2890 C2888 1.391 . S
C2890 C2891 1.400 . S
C2891 C2890 1.400 . S
C2891 C2892 1.398 . S
C2891 C2897 1.491 . S
C2892 H2883 0.950 . S
C2892 C2891 1.398 . S
C2892 C2893 1.391 . S
C2893 H2881 0.950 . S
C2893 C2889 1.393 . S
C2893 C2892 1.391 . S
C2894 H2884 0.950 . S
C2894 C2895 1.386 . S
C2894 C2896 1.391 . S
C2895 C2894 1.386 . S
C2895 C2899 1.393 . S
C2896 H2885 0.950 . S
C2896 C2894 1.391 . S
C2896 C2897 1.400 . S
C2897 C2891 1.491 . S
C2897 C2896 1.400 . S
C2897 C2898 1.398 . S
C2898 H2886 0.950 . S
C2898 C2897 1.398 . S
C2898 C2899 1.391 . S
C2899 H2887 0.950 . S
C2899 C2895 1.393 . S
C2899 C2898 1.391 . S
H2900 C2908 0.950 . S
H2901 C2913 0.950 . S
H2902 C2910 0.950 1_554 S
H2903 C2912 0.950 1_554 S
H2904 C2914 0.950 . S
H2905 C2916 0.950 . S
H2906 C2918 0.950 . S
H2907 C2919 0.950 . S
C2908 H2900 0.950 . S
C2908 C2909 1.386 . S
C2908 C2910 1.391 . S
C2909 C2908 1.386 . S
C2909 C2913 1.393 . S
C2910 H2902 0.950 1_556 S
C2910 C2908 1.391 . S
C2910 C2911 1.400 1_556 S
C2911 C2910 1.400 1_554 S
C2911 C2912 1.398 1_554 S
C2911 C2917 1.491 . S
C2912 H2903 0.950 1_556 S
C2912 C2911 1.398 1_556 S
C2912 C2913 1.391 . S
C2913 H2901 0.950 . S
C2913 C2909 1.393 . S
C2913 C2912 1.391 . S
C2914 H2904 0.950 . S
C2914 C2915 1.386 . S
C2914 C2916 1.391 . S
C2915 C2914 1.386 . S
C2915 C2919 1.393 . S
C2916 H2905 0.950 . S
C2916 C2914 1.391 . S
C2916 C2917 1.400 . S
C2917 C2911 1.491 . S
C2917 C2916 1.400 . S
C2917 C2918 1.398 . S
C2918 H2906 0.950 . S
C2918 C2917 1.398 . S
C2918 C2919 1.391 . S
C2919 H2907 0.950 . S
C2919 C2915 1.393 . S
C2919 C2918 1.391 . S
H2920 C2928 0.950 . S
H2921 C2933 0.950 . S
H2922 C2930 0.950 . S
H2923 C2932 0.950 . S
H2924 C2934 0.950 . S
H2925 C2936 0.950 . S
H2926 C2938 0.950 . S
H2927 C2939 0.950 . S
C2928 H2920 0.950 . S
C2928 C2929 1.386 . S
C2928 C2930 1.391 . S
C2929 C2928 1.386 . S
C2929 C2933 1.393 . S
C2930 H2922 0.950 . S
C2930 C2928 1.391 . S
C2930 C2931 1.400 . S
C2931 C2930 1.400 . S
C2931 C2932 1.398 . S
C2931 C2937 1.491 . S
C2932 H2923 0.950 . S
C2932 C2931 1.398 . S
C2932 C2933 1.391 . S
C2933 H2921 0.950 . S
C2933 C2929 1.393 . S
C2933 C2932 1.391 . S
C2934 H2924 0.950 . S
C2934 C2935 1.386 . S
C2934 C2936 1.391 . S
C2935 C2934 1.386 . S
C2935 C2939 1.393 . S
C2936 H2925 0.950 . S
C2936 C2934 1.391 . S
C2936 C2937 1.400 . S
C2937 C2931 1.491 . S
C2937 C2936 1.400 . S
C2937 C2938 1.398 . S
C2938 H2926 0.950 . S
C2938 C2937 1.398 . S
C2938 C2939 1.391 . S
C2939 H2927 0.950 . S
C2939 C2935 1.393 . S
C2939 C2938 1.391 . S
H2940 C2948 0.950 . S
H2941 C2953 0.950 . S
H2942 C2950 0.950 . S
H2943 C2952 0.950 . S
H2944 C2954 0.950 . S
H2945 C2956 0.950 . S
H2946 C2958 0.950 . S
H2947 C2959 0.950 . S
C2948 H2940 0.950 . S
C2948 C2949 1.386 . S
C2948 C2950 1.391 . S
C2949 C2948 1.386 . S
C2949 C2953 1.393 . S
C2950 H2942 0.950 . S
C2950 C2948 1.391 . S
C2950 C2951 1.400 . S
C2951 C2950 1.400 . S
C2951 C2952 1.398 . S
C2951 C2957 1.491 . S
C2952 H2943 0.950 . S
C2952 C2951 1.398 . S
C2952 C2953 1.391 . S
C2953 H2941 0.950 . S
C2953 C2949 1.393 . S
C2953 C2952 1.391 . S
C2954 H2944 0.950 . S
C2954 C2955 1.386 . S
C2954 C2956 1.391 . S
C2955 C2954 1.386 . S
C2955 C2959 1.393 . S
C2956 H2945 0.950 . S
C2956 C2954 1.391 . S
C2956 C2957 1.400 . S
C2957 C2951 1.491 . S
C2957 C2956 1.400 . S
C2957 C2958 1.398 . S
C2958 H2946 0.950 . S
C2958 C2957 1.398 . S
C2958 C2959 1.391 . S
C2959 H2947 0.950 . S
C2959 C2955 1.393 . S
C2959 C2958 1.391 . S
H2960 C2968 0.950 . S
H2961 C2973 0.950 . S
H2962 C2970 0.950 . S
H2963 C2972 0.950 . S
H2964 C2974 0.950 . S
H2965 C2976 0.950 . S
H2966 C2978 0.950 . S
H2967 C2979 0.950 . S
C2968 H2960 0.950 . S
C2968 C2969 1.386 . S
C2968 C2970 1.391 . S
C2969 C2968 1.386 . S
C2969 C2973 1.393 . S
C2970 H2962 0.950 . S
C2970 C2968 1.391 . S
C2970 C2971 1.400 . S
C2971 C2970 1.400 . S
C2971 C2972 1.398 . S
C2971 C2977 1.491 . S
C2972 H2963 0.950 . S
C2972 C2971 1.398 . S
C2972 C2973 1.391 . S
C2973 H2961 0.950 . S
C2973 C2969 1.393 . S
C2973 C2972 1.391 . S
C2974 H2964 0.950 . S
C2974 C2975 1.386 . S
C2974 C2976 1.391 . S
C2975 C2974 1.386 . S
C2975 C2979 1.393 . S
C2976 H2965 0.950 . S
C2976 C2974 1.391 . S
C2976 C2977 1.400 . S
C2977 C2971 1.491 . S
C2977 C2976 1.400 . S
C2977 C2978 1.398 . S
C2978 H2966 0.950 . S
C2978 C2977 1.398 . S
C2978 C2979 1.391 . S
C2979 H2967 0.950 . S
C2979 C2975 1.393 . S
C2979 C2978 1.391 . S
H2980 C2988 0.950 . S
H2981 C2993 0.950 . S
H2982 C2990 0.950 . S
H2983 C2992 0.950 . S
H2984 C2994 0.950 . S
H2985 C2996 0.950 . S
H2986 C2998 0.950 . S
H2987 C2999 0.950 . S
C2988 H2980 0.950 . S
C2988 C2989 1.386 . S
C2988 C2990 1.391 . S
C2989 C2988 1.386 . S
C2989 C2993 1.393 . S
C2990 H2982 0.950 . S
C2990 C2988 1.391 . S
C2990 C2991 1.400 . S
C2991 C2990 1.400 . S
C2991 C2992 1.398 . S
C2991 C2997 1.491 . S
C2992 H2983 0.950 . S
C2992 C2991 1.398 . S
C2992 C2993 1.391 . S
C2993 H2981 0.950 . S
C2993 C2989 1.393 . S
C2993 C2992 1.391 . S
C2994 H2984 0.950 . S
C2994 C2995 1.386 . S
C2994 C2996 1.391 . S
C2995 C2994 1.386 . S
C2995 C2999 1.393 . S
C2996 H2985 0.950 . S
C2996 C2994 1.391 . S
C2996 C2997 1.400 . S
C2997 C2991 1.491 . S
C2997 C2996 1.400 . S
C2997 C2998 1.398 . S
C2998 H2986 0.950 . S
C2998 C2997 1.398 . S
C2998 C2999 1.391 . S
C2999 H2987 0.950 . S
C2999 C2995 1.393 . S
C2999 C2998 1.391 . S
H3000 C3008 0.950 . S
H3001 C3013 0.950 . S
H3002 C3010 0.950 . S
H3003 C3012 0.950 . S
H3004 C3014 0.950 . S
H3005 C3016 0.950 . S
H3006 C3018 0.950 . S
H3007 C3019 0.950 . S
C3008 H3000 0.950 . S
C3008 C3009 1.386 . S
C3008 C3010 1.391 1_556 S
C3009 C3008 1.386 . S
C3009 C3013 1.393 . S
C3010 H3002 0.950 . S
C3010 C3008 1.391 1_554 S
C3010 C3011 1.400 . S
C3011 C3010 1.400 . S
C3011 C3012 1.398 . S
C3011 C3017 1.491 . S
C3012 H3003 0.950 . S
C3012 C3011 1.398 . S
C3012 C3013 1.391 1_554 S
C3013 H3001 0.950 . S
C3013 C3009 1.393 . S
C3013 C3012 1.391 1_556 S
C3014 H3004 0.950 . S
C3014 C3015 1.386 . S
C3014 C3016 1.391 . S
C3015 C3014 1.386 . S
C3015 C3019 1.393 . S
C3016 H3005 0.950 . S
C3016 C3014 1.391 . S
C3016 C3017 1.400 . S
C3017 C3011 1.491 . S
C3017 C3016 1.400 . S
C3017 C3018 1.398 . S
C3018 H3006 0.950 . S
C3018 C3017 1.398 . S
C3018 C3019 1.391 . S
C3019 H3007 0.950 . S
C3019 C3015 1.393 . S
C3019 C3018 1.391 . S
H3020 C3028 0.950 . S
H3021 C3033 0.950 . S
H3022 C3030 0.950 . S
H3023 C3032 0.950 . S
H3024 C3034 0.950 . S
H3025 C3036 0.950 . S
H3026 C3038 0.950 . S
H3027 C3039 0.950 . S
C3028 H3020 0.950 . S
C3028 C3029 1.386 . S
C3028 C3030 1.391 . S
C3029 C3028 1.386 . S
C3029 C3033 1.393 . S
C3030 H3022 0.950 . S
C3030 C3028 1.391 . S
C3030 C3031 1.400 . S
C3031 C3030 1.400 . S
C3031 C3032 1.398 . S
C3031 C3037 1.491 . S
C3032 H3023 0.950 . S
C3032 C3031 1.398 . S
C3032 C3033 1.391 . S
C3033 H3021 0.950 . S
C3033 C3029 1.393 . S
C3033 C3032 1.391 . S
C3034 H3024 0.950 . S
C3034 C3035 1.386 . S
C3034 C3036 1.391 . S
C3035 C3034 1.386 . S
C3035 C3039 1.393 . S
C3036 H3025 0.950 . S
C3036 C3034 1.391 . S
C3036 C3037 1.400 . S
C3037 C3031 1.491 . S
C3037 C3036 1.400 . S
C3037 C3038 1.398 . S
C3038 H3026 0.950 . S
C3038 C3037 1.398 . S
C3038 C3039 1.391 . S
C3039 H3027 0.950 . S
C3039 C3035 1.393 . S
C3039 C3038 1.391 . S
H3040 C3048 0.950 . S
H3041 C3053 0.950 . S
H3042 C3050 0.950 1_545 S
H3043 C3052 0.950 . S
H3044 C3054 0.948 1_565 S
H3045 C3056 0.950 . S
H3046 C3058 0.950 . S
H3047 C3059 0.950 . S
C3048 H3040 0.950 . S
C3048 C3049 1.386 . S
C3048 C3050 1.391 . S
C3049 C3048 1.386 . S
C3049 C3053 1.393 . S
C3050 H3042 0.950 1_565 S
C3050 C3048 1.391 . S
C3050 C3051 1.400 . S
C3051 C3050 1.400 . S
C3051 C3052 1.398 . S
C3051 C3057 1.517 . S
C3052 H3043 0.950 . S
C3052 C3051 1.398 . S
C3052 C3053 1.391 . S
C3053 H3041 0.950 . S
C3053 C3049 1.393 . S
C3053 C3052 1.391 . S
C3054 H3044 0.948 1_545 S
C3054 C3055 1.386 . S
C3054 C3056 1.391 1_545 S
C3055 C3054 1.386 . S
C3055 C3059 1.393 . S
C3056 H3045 0.950 . S
C3056 C3054 1.391 1_565 S
C3056 C3057 1.414 . S
C3057 C3051 1.517 . S
C3057 C3056 1.414 . S
C3057 C3058 1.359 1_565 S
C3058 H3046 0.950 . S
C3058 C3057 1.359 1_545 S
C3058 C3059 1.391 . S
C3059 H3047 0.950 . S
C3059 C3055 1.393 . S
C3059 C3058 1.391 . S
H3060 C3068 0.950 . S
H3061 C3073 0.950 . S
H3062 C3070 0.950 . S
H3063 C3072 0.950 . S
H3064 C3074 0.950 . S
H3065 C3076 0.950 . S
H3066 C3078 0.950 . S
H3067 C3079 0.950 . S
C3068 H3060 0.950 . S
C3068 C3069 1.386 . S
C3068 C3070 1.391 . S
C3069 C3068 1.386 . S
C3069 C3073 1.393 . S
C3070 H3062 0.950 . S
C3070 C3068 1.391 . S
C3070 C3071 1.400 . S
C3071 C3070 1.400 . S
C3071 C3072 1.398 . S
C3071 C3077 1.491 . S
C3072 H3063 0.950 . S
C3072 C3071 1.398 . S
C3072 C3073 1.391 . S
C3073 H3061 0.950 . S
C3073 C3069 1.393 . S
C3073 C3072 1.391 . S
C3074 H3064 0.950 . S
C3074 C3075 1.386 . S
C3074 C3076 1.391 . S
C3075 C3074 1.386 . S
C3075 C3079 1.393 . S
C3076 H3065 0.950 . S
C3076 C3074 1.391 . S
C3076 C3077 1.400 . S
C3077 C3071 1.491 . S
C3077 C3076 1.400 . S
C3077 C3078 1.398 . S
C3078 H3066 0.950 . S
C3078 C3077 1.398 . S
C3078 C3079 1.391 . S
C3079 H3067 0.950 . S
C3079 C3075 1.393 . S
C3079 C3078 1.391 . S
H3080 C3088 0.950 . S
H3081 C3093 0.950 . S
H3082 C3090 0.950 1_565 S
H3083 C3092 0.950 . S
H3084 C3094 0.939 1_545 S
H3085 C3096 0.950 . S
H3086 C3098 0.950 . S
H3087 C3099 0.950 . S
C3088 H3080 0.950 . S
C3088 C3089 1.386 . S
C3088 C3090 1.391 . S
C3089 C3088 1.386 . S
C3089 C3093 1.393 . S
C3090 H3082 0.950 1_545 S
C3090 C3088 1.391 . S
C3090 C3091 1.400 . S
C3091 C3090 1.400 . S
C3091 C3092 1.398 . S
C3091 C3097 1.491 . S
C3092 H3083 0.950 . S
C3092 C3091 1.398 . S
C3092 C3093 1.391 . S
C3093 H3081 0.950 . S
C3093 C3089 1.393 . S
C3093 C3092 1.391 . S
C3094 H3084 0.939 1_565 S
C3094 C3095 1.409 . S
C3094 C3096 1.379 1_565 S
C3095 C3094 1.409 . S
C3095 C3099 1.393 . S
C3096 H3085 0.950 . S
C3096 C3094 1.379 1_545 S
C3096 C3097 1.400 . S
C3097 C3091 1.491 . S
C3097 C3096 1.400 . S
C3097 C3098 1.398 1_545 S
C3098 H3086 0.950 . S
C3098 C3097 1.398 1_565 S
C3098 C3099 1.391 . S
C3099 H3087 0.950 . S
C3099 C3095 1.393 . S
C3099 C3098 1.391 . S
H3100 C3108 0.950 . S
H3101 C3113 0.950 . S
H3102 C3110 0.950 . S
H3103 C3112 0.950 . S
H3104 C3114 0.950 . S
H3105 C3116 0.950 . S
H3106 C3118 0.950 . S
H3107 C3119 0.950 . S
C3108 H3100 0.950 . S
C3108 C3109 1.386 . S
C3108 C3110 1.391 . S
C3109 C3108 1.386 . S
C3109 C3113 1.393 . S
C3110 H3102 0.950 . S
C3110 C3108 1.391 . S
C3110 C3111 1.400 . S
C3111 C3110 1.400 . S
C3111 C3112 1.398 . S
C3111 C3117 1.491 . S
C3112 H3103 0.950 . S
C3112 C3111 1.398 . S
C3112 C3113 1.391 . S
C3113 H3101 0.950 . S
C3113 C3109 1.393 . S
C3113 C3112 1.391 . S
C3114 H3104 0.950 . S
C3114 C3115 1.386 . S
C3114 C3116 1.391 . S
C3115 C3114 1.386 . S
C3115 C3119 1.393 . S
C3116 H3105 0.950 . S
C3116 C3114 1.391 . S
C3116 C3117 1.400 1_556 S
C3117 C3111 1.491 . S
C3117 C3116 1.400 1_554 S
C3117 C3118 1.398 . S
C3118 H3106 0.950 . S
C3118 C3117 1.398 . S
C3118 C3119 1.391 1_554 S
C3119 H3107 0.950 . S
C3119 C3115 1.393 . S
C3119 C3118 1.391 1_556 S
H3120 C3128 0.950 . S
H3121 C3133 0.950 . S
H3122 C3130 0.950 . S
H3123 C3132 0.950 1_545 S
H3124 C3134 0.950 . S
H3125 C3136 0.950 . S
H3126 C3138 0.950 . S
H3127 C3139 0.950 . S
C3128 H3120 0.950 . S
C3128 C3129 1.386 . S
C3128 C3130 1.391 . S
C3129 C3128 1.386 . S
C3129 C3133 1.393 . S
C3130 H3122 0.950 . S
C3130 C3128 1.391 . S
C3130 C3131 1.380 1_565 S
C3131 C3130 1.380 1_545 S
C3131 C3132 1.393 1_545 S
C3131 C3137 1.517 . S
C3132 H3123 0.950 1_565 S
C3132 C3131 1.393 1_565 S
C3132 C3133 1.391 . S
C3133 H3121 0.950 . S
C3133 C3129 1.393 . S
C3133 C3132 1.391 . S
C3134 H3124 0.950 . S
C3134 C3135 1.386 . S
C3134 C3136 1.391 1_556 S
C3135 C3134 1.386 . S
C3135 C3139 1.393 . S
C3136 H3125 0.950 . S
C3136 C3134 1.391 1_554 S
C3136 C3137 1.400 . S
C3137 C3131 1.517 . S
C3137 C3136 1.400 . S
C3137 C3138 1.398 . S
C3138 H3126 0.950 . S
C3138 C3137 1.398 . S
C3138 C3139 1.391 1_554 S
C3139 H3127 0.950 . S
C3139 C3135 1.393 . S
C3139 C3138 1.391 1_556 S
H3140 C3148 0.950 . S
H3141 C3153 0.950 . S
H3142 C3150 0.950 . S
H3143 C3152 0.950 . S
H3144 C3154 0.950 . S
H3145 C3156 0.950 . S
H3146 C3158 0.950 . S
H3147 C3159 0.950 . S
C3148 H3140 0.950 . S
C3148 C3149 1.386 . S
C3148 C3150 1.391 . S
C3149 C3148 1.386 . S
C3149 C3153 1.393 . S
C3150 H3142 0.950 . S
C3150 C3148 1.391 . S
C3150 C3151 1.400 . S
C3151 C3150 1.400 . S
C3151 C3152 1.398 . S
C3151 C3157 1.491 . S
C3152 H3143 0.950 . S
C3152 C3151 1.398 . S
C3152 C3153 1.391 . S
C3153 H3141 0.950 . S
C3153 C3149 1.393 . S
C3153 C3152 1.391 . S
C3154 H3144 0.950 . S
C3154 C3155 1.386 . S
C3154 C3156 1.391 . S
C3155 C3154 1.386 . S
C3155 C3159 1.393 . S
C3156 H3145 0.950 . S
C3156 C3154 1.391 . S
C3156 C3157 1.400 . S
C3157 C3151 1.491 . S
C3157 C3156 1.400 . S
C3157 C3158 1.398 . S
C3158 H3146 0.950 . S
C3158 C3157 1.398 . S
C3158 C3159 1.391 . S
C3159 H3147 0.950 . S
C3159 C3155 1.393 . S
C3159 C3158 1.391 . S
H3160 C3168 0.950 . S
H3161 C3173 0.950 . S
H3162 C3170 0.950 . S
H3163 C3172 0.950 . S
H3164 C3174 0.950 . S
H3165 C3176 0.962 . S
H3166 C3178 0.950 . S
H3167 C3179 0.950 . S
C3168 H3160 0.950 . S
C3168 C3169 1.386 . S
C3168 C3170 1.391 . S
C3169 C3168 1.386 . S
C3169 C3173 1.393 . S
C3170 H3162 0.950 . S
C3170 C3168 1.391 . S
C3170 C3171 1.400 . S
C3171 C3170 1.400 . S
C3171 C3172 1.398 . S
C3171 C3177 1.491 . S
C3172 H3163 0.950 . S
C3172 C3171 1.398 . S
C3172 C3173 1.391 . S
C3173 H3161 0.950 . S
C3173 C3169 1.393 . S
C3173 C3172 1.391 . S
C3174 H3164 0.950 . S
C3174 C3175 1.386 . S
C3174 C3176 1.378 1_545 S
C3175 C3174 1.386 . S
C3175 C3179 1.393 . S
C3176 H3165 0.962 . S
C3176 C3174 1.378 1_565 S
C3176 C3177 1.402 . S
C3177 C3171 1.491 . S
C3177 C3176 1.402 . S
C3177 C3178 1.398 1_565 S
C3178 H3166 0.950 . S
C3178 C3177 1.398 1_545 S
C3178 C3179 1.391 . S
C3179 H3167 0.950 . S
C3179 C3175 1.393 . S
C3179 C3178 1.391 . S
H3180 C3188 0.950 . S
H3181 C3193 0.950 . S
H3182 C3190 0.950 . S
H3183 C3192 0.950 . S
H3184 C3194 0.950 . S
H3185 C3196 0.950 . S
H3186 C3198 0.950 . S
H3187 C3199 0.950 . S
C3188 H3180 0.950 . S
C3188 C3189 1.386 . S
C3188 C3190 1.391 . S
C3189 C3188 1.386 . S
C3189 C3193 1.393 . S
C3190 H3182 0.950 . S
C3190 C3188 1.391 . S
C3190 C3191 1.400 . S
C3191 C3190 1.400 . S
C3191 C3192 1.398 . S
C3191 C3197 1.491 . S
C3192 H3183 0.950 . S
C3192 C3191 1.398 . S
C3192 C3193 1.391 . S
C3193 H3181 0.950 . S
C3193 C3189 1.393 . S
C3193 C3192 1.391 . S
C3194 H3184 0.950 . S
C3194 C3195 1.386 . S
C3194 C3196 1.391 . S
C3195 C3194 1.386 . S
C3195 C3199 1.393 . S
C3196 H3185 0.950 . S
C3196 C3194 1.391 . S
C3196 C3197 1.400 . S
C3197 C3191 1.491 . S
C3197 C3196 1.400 . S
C3197 C3198 1.398 . S
C3198 H3186 0.950 . S
C3198 C3197 1.398 . S
C3198 C3199 1.391 . S
C3199 H3187 0.950 . S
C3199 C3195 1.393 . S
C3199 C3198 1.391 . S
C1289 C19 0.393 . S
C1295 C166 0.360 . S
C1309 C206 0.383 . S
C1315 C59 0.429 . S
C1329 C99 0.432 . S
C1335 C246 0.369 . S
C1349 C286 0.377 . S
C1355 C139 0.373 . S
C1369 C330 0.432 . S
C1375 C495 0.366 . S
C1389 C370 0.373 . S
C1395 C535 0.409 . S
C1409 C575 0.360 . S
C1415 C410 0.429 . S
C1429 C450 0.430 . S
C1435 C615 0.365 . S
C1449 C806 0.367 . S
C1455 C659 0.383 . S
C1469 C699 0.431 . S
C1475 C846 0.377 . S
C1489 C739 0.415 . S
C1495 C886 0.353 . S
C1509 C779 0.372 . S
C1515 C926 0.409 . S
C1529 C970 0.380 . S
C1535 C1135 0.412 . S
C1549 C1175 0.376 . S
C1555 C1010 0.377 . S
C1569 C1050 0.419 . S
C1575 C1215 0.353 . S
C1589 C1255 0.390 . S
C1595 C1090 0.365 . S
C1609 C858 1.445 . S
C1615 C9 1.432 . S
C1629 C898 1.449 . S
C1635 C49 1.436 . S
C1649 C938 1.466 . S
C1655 C89 1.449 . S
C1669 C129 1.441 . S
C1675 C818 1.458 . S
C1689 C178 1.479 . S
C1695 C769 1.463 . S
C1709 C649 1.465 . S
C1715 C218 1.476 . S
C1729 C258 1.448 . S
C1735 C689 1.436 . S
C1749 C298 1.480 . S
C1755 C729 1.466 . S
C1769 C338 1.463 . S
C1775 C1169 1.481 . S
C1789 C1209 1.450 . S
C1795 C378 1.438 . S
C1809 C1249 1.476 . S
C1815 C418 1.460 . S
C1829 C458 1.430 . S
C1835 C1129 1.447 . S
C1849 C489 1.480 . S
C1855 C1098 1.465 . S
C1869 C529 1.467 . S
C1875 C978 1.456 . S
C1889 C569 1.470 . S
C1895 C1018 1.453 . S
C1909 C609 1.470 . S
C1915 C1058 1.462 . S
C1929 C329 0.682 . S
C1935 C18 0.682 . S
C1949 C58 0.673 . S
C1955 C1009 0.673 . S
C1969 C409 0.734 . S
C1975 C98 0.734 . S
C1989 C138 0.660 . S
C1995 C1089 0.660 . S
C2009 C498 0.372 . S
C2015 C169 0.372 . S
C2029 C1178 0.419 . S
C2035 C209 0.418 . S
C2049 C249 0.413 . S
C2055 C578 0.413 . S
C2069 C289 0.420 . S
C2075 C1258 0.420 . S
C2089 C698 0.679 . S
C2095 C369 0.679 . S
C2109 C778 0.694 . S
C2115 C449 0.694 . S
C2129 C538 0.396 . S
C2135 C849 0.396 . S
C2149 C929 0.391 . S
C2155 C618 0.390 . S
C2169 C969 0.682 . S
C2175 C658 0.682 . S
C2189 C1049 0.672 . S
C2195 C738 0.672 . S
C2209 C1138 0.419 . S
C2215 C809 0.419 . S
C2229 C889 0.369 . S
C2235 C1218 0.369 . S
C2249 C10 2.080 . S
C2255 C499 2.090 . S
C2269 C1179 2.091 . S
C2275 C50 2.088 . S
C2289 C579 2.093 . S
C2295 C90 2.076 . S
C2309 C130 2.079 . S
C2315 C1259 2.099 . S
C2329 C326 0.921 . S
C2335 C175 0.941 . S
C2349 C1006 0.916 . S
C2355 C215 0.917 . S
C2369 C406 0.937 . S
C2375 C255 0.912 . S
C2389 C1086 0.939 . S
C2395 C295 0.914 . S
C2409 C170 2.099 . S
C2415 C339 2.089 . S
C2429 C850 2.101 . S
C2435 C379 2.085 . S
C2449 C250 2.090 1_556 S
C2455 C419 2.084 . S
C2469 C459 2.084 . S
C2475 C930 2.101 . S
C2489 C15 0.942 . S
C2495 C486 0.931 . S
C2509 C695 0.943 . S
C2515 C526 0.921 . S
C2529 C566 0.942 . S
C2535 C95 0.928 . S
C2549 C606 0.934 . S
C2555 C775 0.938 . S
C2569 C1139 2.090 . S
C2575 C650 2.080 . S
C2589 C539 2.090 . S
C2595 C690 2.083 . S
C2609 C730 2.078 . S
C2615 C1219 2.098 . S
C2629 C619 2.092 . S
C2635 C770 2.091 . S
C2649 C815 0.930 . S
C2655 C966 0.943 . S
C2669 C855 0.924 . S
C2675 C366 0.914 . S
C2689 C1046 0.936 . S
C2695 C895 0.911 . S
C2709 C446 0.942 . S
C2715 C935 0.933 . S
C2729 C979 2.084 . S
C2735 C810 2.101 1_556 S
C2749 C1019 2.082 . S
C2755 C210 2.089 . S
C2769 C1059 2.085 . S
C2775 C890 2.090 . S
C2789 C1099 2.086 . S
C2795 C290 2.101 . S
C2809 C655 0.916 . S
C2815 C1126 0.917 . S
C2829 C55 0.922 . S
C2835 C1166 0.938 . S
C2849 C1206 0.914 . S
C2855 C735 0.939 . S
C2869 C135 0.915 . S
C2875 C1246 0.920 . S
C2889 C179 2.238 . S
C2895 C6 2.211 . S
C2909 C219 2.235 . S
C2915 C46 2.212 . S
C2929 C86 2.222 . S
C2935 C259 2.237 . S
C2949 C299 2.234 . S
C2955 C126 2.217 . S
C2969 C490 2.234 . S
C2975 C335 2.216 . S
C2989 C375 2.219 . S
C2995 C530 2.240 . S
C3009 C415 2.211 . S
C3015 C570 2.238 . S
C3029 C610 2.239 . S
C3035 C455 2.208 . S
C3049 C646 2.222 . S
C3055 C819 2.238 . S
C3069 C859 2.240 . S
C3075 C686 2.213 . S
C3089 C726 2.219 . S
C3095 C899 2.234 . S
C3109 C766 2.220 . S
C3115 C939 2.234 . S
C3129 C1130 2.240 . S
C3135 C975 2.218 . S
C3149 C1170 2.236 . S
C3155 C1015 2.207 . S
C3169 C1055 2.212 . S
C3175 C1210 2.236 . S
C3189 C1250 2.241 . S
C3195 C1095 2.216 . S
