# Generated by pormake.
# Topology uov, (4)-cn, num edge types: 1
# Building blocks:
#     Node 0, Type 0, BuildingBlock: AZAVOO_clean_sbu_0, # of connection points: 4
#     Node 1, Type 0, BuildingBlock: AZAVOO_clean_sbu_0, # of connection points: 4
#     Node 2, Type 0, BuildingBlock: AZAVOO_clean_sbu_0, # of connection points: 4
#     Node 3, Type 0, BuildingBlock: AZAVOO_clean_sbu_0, # of connection points: 4
#     Node 4, Type 0, BuildingBlock: AZAVOO_clean_sbu_0, # of connection points: 4
#     Node 5, Type 0, BuildingBlock: AZAVOO_clean_sbu_0, # of connection points: 4
#     Node 6, Type 0, BuildingBlock: AZAVOO_clean_sbu_0, # of connection points: 4
#     Node 7, Type 0, BuildingBlock: AZAVOO_clean_sbu_0, # of connection points: 4
#     Edge 8, Type (0, 0), BuildingBlock: FUNLAD_clean_linker_1, # of connection points: 2
#     Edge 9, Type (0, 0), BuildingBlock: FUNLAD_clean_linker_1, # of connection points: 2
#     Edge 10, Type (0, 0), BuildingBlock: FUNLAD_clean_linker_1, # of connection points: 2
#     Edge 11, Type (0, 0), BuildingBlock: FUNLAD_clean_linker_1, # of connection points: 2
#     Edge 12, Type (0, 0), BuildingBlock: FUNLAD_clean_linker_1, # of connection points: 2
#     Edge 13, Type (0, 0), BuildingBlock: FUNLAD_clean_linker_1, # of connection points: 2
#     Edge 14, Type (0, 0), BuildingBlock: FUNLAD_clean_linker_1, # of connection points: 2
#     Edge 15, Type (0, 0), BuildingBlock: FUNLAD_clean_linker_1, # of connection points: 2
#     Edge 16, Type (0, 0), BuildingBlock: FUNLAD_clean_linker_1, # of connection points: 2
#     Edge 17, Type (0, 0), BuildingBlock: FUNLAD_clean_linker_1, # of connection points: 2
#     Edge 18, Type (0, 0), BuildingBlock: FUNLAD_clean_linker_1, # of connection points: 2
#     Edge 19, Type (0, 0), BuildingBlock: FUNLAD_clean_linker_1, # of connection points: 2
#     Edge 20, Type (0, 0), BuildingBlock: FUNLAD_clean_linker_1, # of connection points: 2
#     Edge 21, Type (0, 0), BuildingBlock: FUNLAD_clean_linker_1, # of connection points: 2
#     Edge 22, Type (0, 0), BuildingBlock: FUNLAD_clean_linker_1, # of connection points: 2
#     Edge 23, Type (0, 0), BuildingBlock: FUNLAD_clean_linker_1, # of connection points: 2
# Relax obj value: 0.239
# Max RMSD: 0.250
# Mean RMSD: 0.233
data_MOF--net-uov--node1-AZAVOO_clean_sbu_0--edge1-FUNLAD_clean_linker_1
_symmetry_space_group_name_H-M    P1
_symmetry_Int_Tables_number       1
_symmetry_cell_setting            triclinic
loop_
_symmetry_equiv_pos_as_xyz
'x, y, z'
_cell_length_a     31.27477
_cell_length_b     30.263258
_cell_length_c     44.318678
_cell_angle_alpha  89.982568
_cell_angle_beta   89.975766
_cell_angle_gamma 92.640624
loop_
_atom_site_label
_atom_site_type_symbol
_atom_site_fract_x
_atom_site_fract_y
_atom_site_fract_z
_atom_type_partial_charge
Mg0 Mg 0.97779 0.21922 0.62723 0.0
O1 O 0.01821 0.21563 0.58424 0.0
O2 O 0.97744 0.23573 0.54545 0.0
Mg3 Mg 0.91209 0.25325 0.5638 0.0
C4 C 0.01269 0.22282 0.55615 0.0
C5 C 0.03789 0.23039 0.6822 0.0
O6 O 0.00669 0.25554 0.69011 0.0
O7 O 0.98764 0.2941 0.62619 0.0
O8 O 0.94513 0.3131 0.5882 0.0
O9 O 0.95511 0.14995 0.61964 0.0
O10 O 0.92243 0.20771 0.6015 0.0
C11 C 0.97137 0.32323 0.6095 0.0
C12 C 0.92616 0.1654 0.60226 0.0
O13 O 0.03676 0.21188 0.65648 0.0
Mg14 Mg 0.2317 0.06891 0.3519 0.0
O15 O 0.20947 0.02791 0.39331 0.0
O16 O 0.23397 0.06392 0.43444 0.0
Mg17 Mg 0.2687 0.12824 0.41956 0.0
C18 C 0.21386 0.03113 0.42189 0.0
C19 C 0.19223 0.01638 0.29907 0.0
O20 O 0.17837 0.05607 0.29433 0.0
O21 O 0.29921 0.04706 0.35907 0.0
O22 O 0.32147 0.08716 0.3989 0.0
O23 O 0.17097 0.10309 0.35334 0.0
O24 O 0.22927 0.12598 0.37826 0.0
C25 C 0.32801 0.0592 0.378 0.0
C26 C 0.18871 0.12877 0.3735 0.0
O27 O 0.21661 0.00999 0.3214 0.0
Mg28 Mg 0.03697 0.76836 0.61401 0.0
O29 O -9e-05 0.77025 0.56967 0.0
O30 O 0.04217 0.7473 0.53256 0.0
Mg31 Mg 0.10509 0.72756 0.55396 0.0
C32 C 0.00689 0.76193 0.5419 0.0
C33 C 0.95919 0.81652 0.64038 0.0
O34 O 0.9759 0.84829 0.62326 0.0
O35 O 0.02498 0.69381 0.61553 0.0
O36 O 0.06855 0.67062 0.57936 0.0
O37 O 0.06251 0.8362 0.60428 0.0
O38 O 0.09457 0.77581 0.59005 0.0
C39 C 0.04108 0.66292 0.60032 0.0
C40 C 0.092 0.81816 0.58865 0.0
O41 O 0.97587 0.77902 0.6406 0.0
Mg42 Mg 0.73763 0.94539 0.38007 0.0
O43 O 0.75236 0.98155 0.42479 0.0
O44 O 0.71948 0.94231 0.46171 0.0
Mg45 Mg 0.68804 0.87965 0.44102 0.0
C46 C 0.74254 0.97553 0.45254 0.0
C47 C 0.75236 0.00572 0.32505 0.0
O48 O 0.73433 0.97012 0.3127 0.0
O49 O 0.66945 0.96692 0.3819 0.0
O50 O 0.63925 0.92259 0.4171 0.0
O51 O 0.79718 0.91032 0.38572 0.0
O52 O 0.7342 0.88584 0.40356 0.0
C53 C 0.63704 0.95277 0.39705 0.0
C54 C 0.77518 0.88286 0.40274 0.0
O55 O 0.75805 0.00683 0.35342 0.0
Mg56 Mg 0.0057 0.2102 0.15036 0.0
O57 O 0.96515 0.18516 0.10974 0.0
O58 O 0.00331 0.19972 0.06786 0.0
Mg59 Mg 0.06734 0.23387 0.08142 0.0
C60 C 0.96965 0.18395 0.08109 0.0
C61 C 0.94376 0.22554 0.20463 0.0
O62 O 0.97145 0.25856 0.20987 0.0
O63 O 0.99169 0.28177 0.13931 0.0
O64 O 0.03373 0.29456 0.09909 0.0
O65 O 0.03749 0.14544 0.15401 0.0
O66 O 0.06103 0.20171 0.12576 0.0
C67 C 0.00774 0.30763 0.1191 0.0
C68 C 0.06462 0.16141 0.13438 0.0
O69 O 0.94819 0.20156 0.18141 0.0
Mg70 Mg 0.2705 0.0717 0.90939 0.0
O71 O 0.21932 0.0156 0.9189 0.0
O72 O 0.15819 0.04981 0.92707 0.0
Mg73 Mg 0.17017 0.12466 0.92519 0.0
C74 C 0.17923 0.01481 0.92493 0.0
C75 C 0.35033 0.04646 0.87862 0.0
O76 O 0.34988 0.08983 0.87729 0.0
O77 O 0.24257 0.08427 0.86263 0.0
O78 O 0.18398 0.12017 0.87451 0.0
O79 O 0.28489 0.07286 0.95862 0.0
O80 O 0.23693 0.11357 0.9364 0.0
C81 C 0.20958 0.10492 0.85504 0.0
C82 C 0.25384 0.09953 0.96084 0.0
O83 O 0.31847 0.02513 0.89022 0.0
Mg84 Mg 0.99283 0.73996 0.12459 0.0
O85 O 0.03404 0.76947 0.08581 0.0
O86 O 0.99825 0.75977 0.04251 0.0
Mg87 Mg 0.93507 0.72213 0.0535 0.0
C88 C 0.03093 0.77439 0.05731 0.0
C89 C 0.04337 0.76892 0.17974 0.0
O90 O 0.00407 0.77983 0.18575 0.0
O91 O 0.00776 0.66956 0.11144 0.0
O92 O 0.96997 0.66073 0.06876 0.0
O93 O 0.96165 0.80443 0.1287 0.0
O94 O 0.93757 0.74909 0.09977 0.0
C95 C 0.99425 0.64594 0.08921 0.0
C96 C 0.93473 0.78939 0.10864 0.0
O97 O 0.05047 0.74804 0.15557 0.0
Mg98 Mg 0.75164 0.93152 0.88399 0.0
O99 O 0.79514 0.98674 0.90656 0.0
O100 O 0.8583 0.95652 0.91466 0.0
Mg101 Mg 0.85566 0.88523 0.89868 0.0
C102 C 0.8337 0.98885 0.91642 0.0
C103 C 0.66603 0.95883 0.86466 0.0
O104 O 0.66457 0.91535 0.86492 0.0
O105 O 0.7864 0.93872 0.83865 0.0
O106 O 0.84893 0.90957 0.85008 0.0
O107 O 0.73146 0.91102 0.93003 0.0
O108 O 0.78614 0.88393 0.90532 0.0
C109 C 0.82391 0.92748 0.83145 0.0
C110 C 0.76485 0.88725 0.93 0.0
O111 O 0.70121 0.97952 0.87079 0.0
H112 H 0.9955 0.61191 0.61866 0.0
C113 C 0.02512 0.617 0.60602 0.0
H114 H 0.07452 0.58693 0.5824 0.0
H115 H 0.96403 0.4246 0.6572 0.0
H116 H 0.98334 0.46395 0.7032 0.0
H117 H 0.02466 0.53532 0.70135 0.0
H118 H 0.04566 0.56839 0.65347 0.0
C119 C 0.04512 0.58188 0.59529 0.0
C120 C 0.02546 0.53608 0.59714 0.0
C121 C 0.01593 0.51588 0.62544 0.0
C122 C 0.99482 0.47319 0.62659 0.0
C123 C 0.9823 0.45564 0.65504 0.0
C124 C 0.99285 0.47808 0.68164 0.0
C125 C 0.0159 0.51837 0.68059 0.0
C126 C 0.02742 0.53718 0.65291 0.0
H127 H 0.01527 0.37669 0.62653 0.0
C128 C 0.98631 0.36986 0.61346 0.0
H129 H 0.93806 0.39652 0.5868 0.0
H130 H 0.03807 0.56536 0.53903 0.0
H131 H 0.02347 0.5238 0.49328 0.0
H132 H 0.99301 0.44725 0.49541 0.0
H133 H 0.97632 0.41212 0.54327 0.0
C134 C 0.96672 0.40338 0.60016 0.0
C135 C 0.98636 0.44926 0.59952 0.0
C136 C 0.99705 0.46896 0.57127 0.0
C137 C 0.01597 0.51259 0.57007 0.0
C138 C 0.02474 0.53194 0.54144 0.0
C139 C 0.01637 0.5085 0.51491 0.0
C140 C -0.00086 0.46546 0.5161 0.0
C141 C 0.98955 0.44576 0.54383 0.0
H142 H 0.59684 0.00522 0.38012 0.0
C143 C 0.59613 0.97365 0.39188 0.0
H144 H 0.55765 0.92374 0.41315 0.0
H145 H 0.40525 0.04063 0.44888 0.0
H146 H 0.43107 0.01695 0.49746 0.0
H147 H 0.49758 0.97665 0.50152 0.0
H148 H 0.53825 0.95919 0.45697 0.0
C149 C 0.55857 0.95516 0.40122 0.0
C150 C 0.51815 0.97892 0.39833 0.0
C151 C 0.49527 0.98972 0.42476 0.0
C152 C 0.45763 0.01411 0.4225 0.0
C153 C 0.43462 0.02313 0.44921 0.0
C154 C 0.449 0.0096 0.47732 0.0
C155 C 0.48638 0.98685 0.4796 0.0
C156 C 0.50938 0.97695 0.45375 0.0
H157 H 0.37136 0.00797 0.36335 0.0
C158 C 0.36938 0.03797 0.37667 0.0
H159 H 0.40185 0.08348 0.40562 0.0
H160 H 0.5493 0.95654 0.34273 0.0
H161 H 0.52631 0.98418 0.29432 0.0
H162 H 0.46717 0.03518 0.29105 0.0
H163 H 0.4298 0.0575 0.33606 0.0
C164 C 0.40383 0.05377 0.392 0.0
C165 C 0.44358 0.02872 0.39389 0.0
C166 C 0.46696 0.01865 0.3675 0.0
C167 C 0.50315 0.99206 0.36961 0.0
C168 C 0.52336 0.97895 0.34265 0.0
C169 C 0.51022 0.99423 0.31466 0.0
C170 C 0.47678 0.02273 0.3128 0.0
C171 C 0.45532 0.03495 0.33883 0.0
H172 H 0.98015 0.36673 0.13938 0.0
C173 C -0.001 0.35512 0.12061 0.0
H174 H 0.0367 0.37318 0.08264 0.0
H175 H 0.93231 0.55612 0.11222 0.0
H176 H 0.86668 0.51242 0.1031 0.0
H177 H 0.86822 0.43224 0.09342 0.0
H178 H 0.93525 0.39519 0.09349 0.0
C179 C 0.01661 0.38443 0.10085 0.0
C180 C 0.01495 0.43305 0.10536 0.0
C181 C 0.97555 0.45437 0.10391 0.0
C182 C 0.9749 0.50097 0.10787 0.0
C183 C 0.9349 0.52114 0.10804 0.0
C184 C 0.89692 0.49639 0.10303 0.0
C185 C 0.89777 0.45123 0.09771 0.0
C186 C 0.93652 0.43031 0.09804 0.0
H187 H 0.9952 0.58086 0.06721 0.0
C188 C 0.00286 0.59856 0.08802 0.0
H189 H 0.02096 0.5922 0.13378 0.0
H190 H 0.0958 0.40245 0.11118 0.0
H191 H 0.16142 0.44671 0.11893 0.0
H192 H 0.16039 0.52792 0.12325 0.0
H193 H 0.09354 0.56533 0.12006 0.0
C194 C 0.01363 0.57555 0.11256 0.0
C195 C 0.01384 0.52643 0.11156 0.0
C196 C 0.05308 0.50512 0.11339 0.0
C197 C 0.05366 0.45838 0.11041 0.0
C198 C 0.0934 0.43792 0.11272 0.0
C199 C 0.13137 0.46293 0.11729 0.0
C200 C 0.13079 0.50864 0.11975 0.0
C201 C 0.0922 0.52968 0.11786 0.0
H202 H 0.38976 0.98803 0.87392 0.0
C203 C 0.38945 0.02364 0.87076 0.0
H204 H 0.42619 0.08225 0.8607 0.0
H205 H 0.58924 0.98966 0.91426 0.0
H206 H 0.56682 0.02849 0.95882 0.0
H207 H 0.49898 0.06693 0.95938 0.0
H208 H 0.45289 0.06612 0.91539 0.0
C209 C 0.42559 0.04646 0.86281 0.0
C210 C 0.46719 0.0249 0.86157 0.0
C211 C 0.49453 0.0271 0.88707 0.0
C212 C 0.53424 0.00611 0.8864 0.0
C213 C 0.55959 0.00651 0.91292 0.0
C214 C 0.54691 0.0284 0.93884 0.0
C215 C 0.50869 0.04995 0.93918 0.0
C216 C 0.48258 0.04927 0.91373 0.0
H217 H 0.62829 0.01882 0.86242 0.0
C218 C 0.62643 0.98291 0.8611 0.0
H219 H 0.58589 0.92532 0.85725 0.0
H220 H 0.42242 0.01553 0.80885 0.0
H221 H 0.445 0.97744 0.76372 0.0
H222 H 0.51466 0.94241 0.76198 0.0
H223 H 0.56218 0.94519 0.80531 0.0
C224 C 0.58806 0.96116 0.85909 0.0
C225 C 0.54721 0.98439 0.85974 0.0
C226 C 0.51987 0.98243 0.8342 0.0
C227 C 0.47976 0.0027 0.83514 0.0
C228 C 0.45314 0.0005 0.80931 0.0
C229 C 0.46574 0.97882 0.78328 0.0
C230 C 0.50497 0.95908 0.7823 0.0
C231 C 0.53188 0.96082 0.80736 0.0
H232 H 0.1267 0.15052 0.38941 0.0
C233 C 0.16091 0.15277 0.39396 0.0
H234 H 0.20864 0.17429 0.4252 0.0
H235 H 0.07583 0.29732 0.49128 0.0
H236 H 0.12026 0.3535 0.46557 0.0
H237 H 0.17583 0.33256 0.42941 0.0
H238 H 0.18741 0.25524 0.41878 0.0
C239 C 0.17482 0.171 0.41994 0.0
C240 C 0.14357 0.1837 0.44328 0.0
C241 C 0.13746 0.22888 0.44931 0.0
C242 C 0.10527 0.24091 0.47002 0.0
C243 C 0.09966 0.28635 0.4756 0.0
C244 C 0.12497 0.31891 0.46103 0.0
C245 C 0.15628 0.30712 0.44068 0.0
C246 C 0.16258 0.26267 0.43477 0.0
H247 H 0.0767 0.20004 0.54463 0.0
C248 C 0.04803 0.21392 0.53538 0.0
H249 H 0.01722 0.23534 0.49583 0.0
H250 H 0.15089 0.09386 0.43983 0.0
H251 H 0.10587 0.03766 0.46469 0.0
H252 H 0.04763 0.05843 0.49866 0.0
H253 H 0.03412 0.13543 0.50783 0.0
C254 C 0.04502 0.22041 0.50551 0.0
C255 C 0.07954 0.20766 0.48471 0.0
C256 C 0.08613 0.16235 0.47905 0.0
C257 C 0.11875 0.15036 0.45873 0.0
C258 C 0.1257 0.10488 0.45427 0.0
C259 C 0.1002 0.07223 0.46854 0.0
C260 C 0.0675 0.08393 0.48771 0.0
C261 C 0.06031 0.12836 0.49293 0.0
H262 H 0.16681 0.97626 0.43146 0.0
C263 C 0.19255 0.99703 0.44116 0.0
H264 H 0.22874 0.01324 0.48003 0.0
H265 H 0.09721 0.95435 0.57942 0.0
H266 H 0.10501 0.03337 0.58739 0.0
H267 H 0.14542 0.08129 0.55133 0.0
H268 H 0.17884 0.05034 0.50744 0.0
C269 C 0.20318 0.99222 0.47035 0.0
C270 C 0.17763 0.96272 0.4912 0.0
C271 C 0.15788 0.98146 0.51672 0.0
C272 C 0.13349 0.95398 0.53703 0.0
C273 C 0.11519 0.97359 0.56277 0.0
C274 C 0.11955 0.019 0.56774 0.0
C275 C 0.1424 0.04595 0.54751 0.0
C276 C 0.16156 0.02761 0.52239 0.0
H277 H 0.1498 0.83372 0.56129 0.0
C278 C 0.11814 0.8445 0.56699 0.0
H279 H 0.07019 0.88948 0.55854 0.0
H280 H 0.21633 0.91458 0.44726 0.0
H281 H 0.2022 0.83691 0.43608 0.0
H282 H 0.15117 0.79155 0.46686 0.0
H283 H 0.11535 0.82321 0.50961 0.0
C284 C 0.1023 0.87969 0.55306 0.0
C285 C 0.12789 0.9079 0.53141 0.0
C286 C 0.14598 0.8895 0.50508 0.0
C287 C 0.17253 0.91653 0.48579 0.0
C288 C 0.19364 0.89635 0.46148 0.0
C289 C 0.18613 0.85165 0.45496 0.0
C290 C 0.15763 0.82606 0.4724 0.0
C291 C 0.13765 0.84457 0.49714 0.0
H292 H 0.77724 0.83497 0.44027 0.0
C293 C 0.79675 0.85496 0.42467 0.0
H294 H 0.85897 0.87948 0.41334 0.0
H295 H 0.9364 0.86927 0.54271 0.0
H296 H 0.9249 0.94774 0.53893 0.0
H297 H 0.88373 0.97735 0.49663 0.0
H298 H 0.8532 0.92859 0.45813 0.0
C299 C 0.83944 0.85782 0.4279 0.0
C300 C 0.86066 0.83879 0.4545 0.0
C301 C 0.87735 0.86768 0.47722 0.0
C302 C 0.9008 0.85057 0.50169 0.0
C303 C 0.91796 0.88033 0.52373 0.0
C304 C 0.91166 0.92552 0.52184 0.0
C305 C 0.88845 0.9422 0.49805 0.0
C306 C 0.87129 0.91381 0.476 0.0
H307 H 0.98243 0.76831 0.49558 0.0
C308 C 0.97427 0.77196 0.51928 0.0
H309 H 0.92816 0.79293 0.55041 0.0
H310 H 0.83224 0.77447 0.41487 0.0
H311 H 0.84033 0.69545 0.42005 0.0
H312 H 0.87775 0.66532 0.46397 0.0
H313 H 0.90785 0.71413 0.50275 0.0
C314 C 0.93632 0.78783 0.52687 0.0
C315 C 0.90742 0.80459 0.50331 0.0
C316 C 0.88859 0.77542 0.48151 0.0
C317 C 0.86572 0.79264 0.45677 0.0
C318 C 0.84899 0.76305 0.43453 0.0
C319 C 0.85351 0.71763 0.43718 0.0
C320 C 0.87469 0.70067 0.46187 0.0
C321 C 0.89206 0.72906 0.48385 0.0
H322 H 0.73962 0.01245 0.49525 0.0
C323 C 0.759 0.0073 0.4753 0.0
H324 H 0.81817 0.0205 0.45366 0.0
H325 H 0.87789 0.1963 0.51828 0.0
H326 H 0.87436 0.21874 0.46596 0.0
H327 H 0.84288 0.16831 0.42741 0.0
H328 H 0.81545 0.09484 0.44089 0.0
C329 C 0.79852 0.02645 0.47337 0.0
C330 C 0.81619 0.05706 0.49716 0.0
C331 C 0.83074 0.10058 0.48907 0.0
C332 C 0.84768 0.1302 0.51147 0.0
C333 C 0.86375 0.17273 0.50243 0.0
C334 C 0.86204 0.18608 0.4724 0.0
C335 C 0.84439 0.15766 0.45069 0.0
C336 C 0.82885 0.11544 0.45878 0.0
H337 H 0.91466 0.10233 0.57853 0.0
C338 C 0.90297 0.13539 0.58117 0.0
H339 H 0.85744 0.18042 0.56731 0.0
H340 H 0.80068 0.97319 0.52 0.0
H341 H 0.80017 0.95214 0.57269 0.0
H342 H 0.81784 0.00728 0.61233 0.0
H343 H 0.83783 0.08311 0.59929 0.0
C344 C 0.86893 0.14723 0.56513 0.0
C345 C 0.84879 0.1168 0.54213 0.0
C346 C 0.83283 0.07377 0.55037 0.0
C347 C 0.81879 0.04314 0.52772 0.0
C348 C 0.80839 0.99881 0.53634 0.0
C349 C 0.80846 0.98609 0.56655 0.0
C350 C 0.81866 0.017 0.58883 0.0
C351 C 0.83058 0.06037 0.58099 0.0
H352 H 0.88532 0.03482 0.93189 0.0
C353 C 0.85083 0.02828 0.93262 0.0
H354 H 0.79409 0.04085 0.95632 0.0
H355 H 0.92642 0.07674 0.06574 0.0
H356 H 0.89311 0.00625 0.08021 0.0
H357 H 0.83814 0.96909 0.04806 0.0
H358 H 0.81743 0.00168 0.00049 0.0
C359 C 0.82782 0.04981 0.95303 0.0
C360 C 0.85061 0.07854 0.97579 0.0
C361 C 0.8599 0.06092 0.00457 0.0
C362 C 0.88975 0.08375 0.02398 0.0
C363 C 0.90207 0.06258 0.05094 0.0
C364 C 0.88351 0.0217 0.0594 0.0
C365 C 0.85272 0.00066 0.04123 0.0
C366 C 0.84119 0.0197 0.01399 0.0
H367 H 0.90422 0.15497 0.07349 0.0
C368 C 0.93505 0.16227 0.06283 0.0
H369 H 0.97228 0.1568 0.02345 0.0
H370 H 0.83535 0.1235 0.92391 0.0
H371 H 0.86494 0.19647 0.91022 0.0
H372 H 0.91342 0.23835 0.94486 0.0
H373 H 0.93294 0.20756 0.99321 0.0
C374 C 0.94158 0.1492 0.03421 0.0
C375 C 0.90776 0.12596 0.01548 0.0
C376 C 0.8959 0.14488 0.98753 0.0
C377 C 0.86766 0.12097 0.9676 0.0
C378 C 0.85698 0.14026 0.93967 0.0
C379 C 0.87355 0.18213 0.93164 0.0
C380 C 0.90084 0.20571 0.95114 0.0
C381 C 0.91194 0.18754 0.97879 0.0
H382 H 0.20926 0.13352 0.98978 0.0
C383 C 0.23455 0.11001 0.98998 0.0
H384 H 0.26824 0.06497 0.01651 0.0
H385 H 0.15792 0.21204 0.09685 0.0
H386 H 0.21306 0.26617 0.08073 0.0
H387 H 0.27271 0.24421 0.04833 0.0
H388 H 0.27727 0.16787 0.0317 0.0
C389 C 0.24459 0.09014 0.01599 0.0
C390 C 0.2196 0.09971 0.04358 0.0
C391 C 0.2184 0.14378 0.05407 0.0
C392 C 0.1844 0.15619 0.07291 0.0
C393 C 0.18298 0.20089 0.08223 0.0
C394 C 0.21454 0.23221 0.0733 0.0
C395 C 0.2481 0.21985 0.05505 0.0
C396 C 0.25021 0.17615 0.0455 0.0
H397 H 0.1145 0.11198 0.13695 0.0
C398 C 0.09854 0.13454 0.1221 0.0
H399 H 0.09474 0.16257 0.07896 0.0
H400 H 0.22086 0.01039 0.03472 0.0
H401 H 0.17078 0.9546 0.0556 0.0
H402 H 0.11089 0.97599 0.08789 0.0
H403 H 0.10057 0.05315 0.09946 0.0
C404 C 0.11141 0.14025 0.09349 0.0
C405 C 0.1522 0.12424 0.08161 0.0
C406 C 0.15711 0.07893 0.07494 0.0
C407 C 0.19137 0.0666 0.05603 0.0
C408 C 0.19542 0.0214 0.04902 0.0
C409 C 0.16701 0.98911 0.06092 0.0
C410 C 0.13327 0.00117 0.07913 0.0
C411 C 0.12777 0.0456 0.08569 0.0
H412 H 0.09085 0.81594 0.05514 0.0
C413 C 0.06474 0.80144 0.04169 0.0
H414 H 0.03643 0.79785 0.99833 0.0
H415 H 0.1321 0.99466 0.98776 0.0
H416 H 0.07587 0.01667 0.02119 0.0
H417 H 0.0268 0.96092 0.04507 0.0
H418 H 0.03363 0.88288 0.03538 0.0
C419 C 0.06206 0.81211 0.0123 0.0
C420 C 0.0922 0.84566 0.99824 0.0
C421 C 0.08771 0.8913 0.00409 0.0
C422 C 0.11517 0.92352 0.98956 0.0
C423 C 0.1108 0.96876 0.99673 0.0
C424 C 0.07889 0.98192 0.01624 0.0
C425 C 0.05144 0.95055 0.0298 0.0
C426 C 0.05583 0.90576 0.02406 0.0
H427 H 0.12199 0.97042 0.92917 0.0
C428 C 0.1563 0.97303 0.93327 0.0
H429 H 0.20756 0.94691 0.95749 0.0
H430 H 0.10983 0.76109 0.98271 0.0
H431 H 0.16446 0.7389 0.94754 0.0
H432 H 0.21129 0.79474 0.92164 0.0
H433 H 0.20386 0.87316 0.93071 0.0
C434 C 0.17367 0.94392 0.95202 0.0
C435 C 0.14628 0.9101 0.96844 0.0
C436 C 0.15123 0.86446 0.96306 0.0
C437 C 0.12405 0.83223 0.97789 0.0
C438 C 0.12948 0.78689 0.97192 0.0
C439 C 0.16073 0.77372 0.95183 0.0
C440 C 0.18712 0.80517 0.93726 0.0
C441 C 0.18255 0.85006 0.94269 0.0
H442 H 0.808 0.84705 0.95602 0.0
C443 C 0.78271 0.8704 0.95801 0.0
H444 H 0.74889 0.91101 0.98783 0.0
H445 H 0.80491 0.78568 0.0965 0.0
H446 H 0.7274 0.77548 0.09851 0.0
H447 H 0.68197 0.8108 0.06082 0.0
H448 H 0.71379 0.85679 0.02097 0.0
C449 C 0.77354 0.88716 0.98517 0.0
C450 C 0.7992 0.87472 0.01173 0.0
C451 C 0.78003 0.8488 0.03501 0.0
C452 C 0.80624 0.8281 0.05647 0.0
C453 C 0.78643 0.80169 0.07936 0.0
C454 C 0.74203 0.7957 0.08082 0.0
C455 C 0.71644 0.81562 0.05961 0.0
C456 C 0.73506 0.84183 0.03685 0.0
H457 H 0.90784 0.85424 0.09905 0.0
C458 C 0.90549 0.81917 0.0937 0.0
H459 H 0.87423 0.76876 0.06798 0.0
H460 H 0.84421 0.93309 0.97541 0.0
H461 H 0.92141 0.9451 0.97353 0.0
H462 H 0.96775 0.90424 0.00752 0.0
H463 H 0.93751 0.85258 0.04428 0.0
C464 C 0.87817 0.80401 0.07239 0.0
C465 C 0.85142 0.8334 0.0544 0.0
C466 C 0.87044 0.86258 0.03261 0.0
C467 C 0.844 0.88425 0.01182 0.0
C468 C 0.86316 0.91445 0.99086 0.0
C469 C 0.90734 0.92186 0.98969 0.0
C470 C 0.93341 0.89904 0.00898 0.0
C471 C 0.91545 0.86957 0.03015 0.0
H472 H 0.06823 0.23467 0.72687 0.0
C473 C 0.07042 0.21955 0.7047 0.0
H474 H 0.10088 0.17213 0.67827 0.0
H475 H 0.21252 0.21058 0.8068 0.0
H476 H 0.23126 0.28295 0.7855 0.0
H477 H 0.20268 0.30483 0.73606 0.0
H478 H 0.15486 0.2546 0.70775 0.0
C479 C 0.09942 0.18884 0.69991 0.0
C480 C 0.12497 0.17241 0.72558 0.0
C481 C 0.15388 0.20154 0.7413 0.0
C482 C 0.17085 0.18867 0.76953 0.0
C483 C 0.19865 0.21885 0.78527 0.0
C484 C 0.20979 0.26035 0.77324 0.0
C485 C 0.19366 0.27269 0.74542 0.0
C486 C 0.16606 0.24373 0.72951 0.0
H487 H 0.22096 0.09698 0.80591 0.0
C488 C 0.20084 0.11203 0.82266 0.0
H489 H 0.14955 0.15373 0.83037 0.0
H490 H 0.07632 0.1058 0.69863 0.0
H491 H 0.06121 0.0321 0.71853 0.0
H492 H 0.09093 0.00976 0.76748 0.0
H493 H 0.13604 0.06105 0.7968 0.0
C494 C 0.1689 0.1373 0.81379 0.0
C495 C 0.15955 0.14643 0.78163 0.0
C496 C 0.13412 0.11568 0.76451 0.0
C497 C 0.11692 0.12864 0.73631 0.0
C498 C 0.0904 0.09776 0.7201 0.0
C499 C 0.08143 0.05531 0.73128 0.0
C500 C 0.09816 0.04273 0.75884 0.0
C501 C 0.12404 0.07249 0.77544 0.0
H502 H 0.11175 0.77783 0.19221 0.0
C503 C 0.07952 0.7869 0.19797 0.0
H504 H 0.04152 0.82713 0.22496 0.0
H505 H 0.1666 0.88567 0.32693 0.0
H506 H 0.12415 0.82888 0.35334 0.0
H507 H 0.07534 0.77709 0.32553 0.0
H508 H 0.0685 0.7821 0.27105 0.0
C509 C 0.07365 0.81815 0.21887 0.0
C510 C 0.1097 0.84267 0.23419 0.0
C511 C 0.1144 0.83843 0.26584 0.0
C512 C 0.14301 0.86784 0.28179 0.0
C513 C 0.14571 0.86398 0.31358 0.0
C514 C 0.1215 0.83148 0.32906 0.0
C515 C 0.09399 0.80236 0.31341 0.0
C516 C 0.09028 0.80568 0.28218 0.0
H517 H 0.15146 0.98639 0.26364 0.0
C518 C 0.17618 0.97949 0.28 0.0
H519 H 0.2131 0.93039 0.29972 0.0
H520 H 0.1094 0.86003 0.1731 0.0
H521 H 0.15637 0.91244 0.14649 0.0
H522 H 0.21074 0.95842 0.1739 0.0
H523 H 0.21742 0.9529 0.2284 0.0
C524 C 0.18915 0.93798 0.28299 0.0
C525 C 0.16705 0.90121 0.26592 0.0
C526 C 0.16572 0.90235 0.23395 0.0
C527 C 0.13605 0.87403 0.21806 0.0
C528 C 0.13259 0.87907 0.18636 0.0
C529 C 0.15927 0.90932 0.17074 0.0
C530 C 0.18975 0.93533 0.18617 0.0
C531 C 0.19305 0.93207 0.21741 0.0
H532 H 0.91248 0.79815 0.67595 0.0
C533 C 0.92607 0.82576 0.66285 0.0
H534 H 0.93044 0.89532 0.65779 0.0
H535 H 0.77127 0.93978 0.73777 0.0
H536 H 0.74682 0.96119 0.68806 0.0
H537 H 0.78778 0.94325 0.64244 0.0
H538 H 0.85405 0.90485 0.64621 0.0
C539 C 0.91722 0.86731 0.67064 0.0
C540 C 0.8916 0.87663 0.69809 0.0
C541 C 0.85282 0.89885 0.69545 0.0
C542 C 0.82868 0.90839 0.72172 0.0
C543 C 0.79057 0.9314 0.71851 0.0
C544 C 0.7762 0.94385 0.69013 0.0
C545 C 0.79933 0.93386 0.66444 0.0
C546 C 0.83728 0.91176 0.66692 0.0
H547 H 0.87138 0.94402 0.79649 0.0
C548 C 0.83876 0.93111 0.80013 0.0
H549 H 0.78748 0.89176 0.78201 0.0
H550 H 0.96868 0.84133 0.71253 0.0
H551 H 0.9892 0.81333 0.76128 0.0
H552 H 0.94119 0.81837 0.8052 0.0
H553 H 0.87338 0.85325 0.80075 0.0
C554 C 0.8192 0.907 0.77828 0.0
C555 C 0.84294 0.89496 0.75049 0.0
C556 C 0.8805 0.87047 0.75289 0.0
C557 C 0.90613 0.86366 0.727 0.0
C558 C 0.94621 0.8443 0.73086 0.0
C559 C 0.9587 0.8285 0.75886 0.0
C560 C 0.93185 0.83161 0.78361 0.0
C561 C 0.89319 0.85226 0.7808 0.0
H562 H 0.76924 0.03596 0.28128 0.0
C563 C 0.76982 0.04153 0.30552 0.0
H564 H 0.79058 0.0843 0.34075 0.0
H565 H 0.94931 0.15237 0.26138 0.0
H566 H 0.98356 0.11758 0.30351 0.0
H567 H 0.94069 0.0791 0.34307 0.0
H568 H 0.86328 0.07499 0.34055 0.0
C569 C 0.78884 0.07881 0.31654 0.0
C570 C 0.81361 0.10956 0.29617 0.0
C571 C 0.85883 0.11312 0.29867 0.0
C572 C 0.88351 0.13591 0.27609 0.0
C573 C 0.92877 0.1366 0.27819 0.0
C574 C 0.94896 0.11649 0.30223 0.0
C575 C 0.92484 0.09479 0.32448 0.0
C576 C 0.88034 0.09276 0.32275 0.0
H577 H 0.91133 0.23156 0.24866 0.0
C578 C 0.91212 0.21229 0.22799 0.0
H579 H 0.88842 0.15492 0.20517 0.0
H580 H 0.72746 0.11621 0.28812 0.0
H581 H 0.69275 0.15324 0.24676 0.0
H582 H 0.73552 0.19193 0.20717 0.0
H583 H 0.81326 0.19411 0.20881 0.0
C584 C 0.88824 0.17439 0.22576 0.0
C585 C 0.86273 0.15597 0.25149 0.0
C586 C 0.81747 0.15486 0.25011 0.0
C587 C 0.79283 0.13198 0.27264 0.0
C588 C 0.74764 0.13211 0.27109 0.0
C589 C 0.72735 0.15349 0.24761 0.0
C590 C 0.75143 0.17532 0.22534 0.0
C591 C 0.79599 0.17619 0.22649 0.0
loop_
_geom_bond_atom_site_label_1
_geom_bond_atom_site_label_2
_geom_bond_distance
_geom_bond_site_symmetry_2
_ccdc_geom_bond_type
Mg0 O1 2.028 . S
Mg0 O7 1.986 . S
Mg0 O9 2.114 1_455 S
Mg0 O10 2.251 1_455 S
Mg0 O13 2.010 . S
O1 Mg0 2.028 . S
O1 C4 1.250 . S
O2 Mg3 2.028 . S
O2 C4 1.248 . S
Mg3 O2 2.028 . S
Mg3 O8 2.032 . S
Mg3 O10 2.079 1_455 S
C4 O1 1.250 . S
C4 O2 1.248 . S
C5 O6 1.264 . S
C5 O13 1.249 . S
O6 C5 1.264 . S
O7 Mg0 1.986 . S
O7 C11 1.246 . S
O8 Mg3 2.032 . S
O8 C11 1.259 . S
O9 Mg0 2.114 1_655 S
O9 C12 1.252 . S
O10 Mg0 2.251 1_655 S
O10 Mg3 2.079 1_655 S
O10 C12 1.273 . S
C11 O7 1.246 . S
C11 O8 1.259 . S
C12 O9 1.252 . S
C12 O10 1.273 . S
O13 Mg0 2.010 . S
O13 C5 1.249 . S
Mg14 O15 2.028 1_545 S
Mg14 O21 1.986 1_545 S
Mg14 O23 2.114 . S
Mg14 O24 2.251 . S
Mg14 O27 2.010 1_545 S
O15 Mg14 2.028 1_565 S
O15 C18 1.250 . S
O16 Mg17 2.028 1_565 S
O16 C18 1.248 . S
Mg17 O16 2.028 1_545 S
Mg17 O22 2.032 1_545 S
Mg17 O24 2.079 . S
C18 O15 1.250 . S
C18 O16 1.248 . S
C19 O20 1.264 . S
C19 O27 1.249 . S
O20 C19 1.264 . S
O21 Mg14 1.986 1_565 S
O21 C25 1.246 . S
O22 Mg17 2.032 1_565 S
O22 C25 1.259 . S
O23 Mg14 2.114 . S
O23 C26 1.252 . S
O24 Mg14 2.251 . S
O24 Mg17 2.079 . S
O24 C26 1.273 . S
C25 O21 1.246 . S
C25 O22 1.259 . S
C26 O23 1.252 . S
C26 O24 1.273 . S
O27 Mg14 2.010 1_565 S
O27 C19 1.249 . S
Mg28 O29 2.028 . S
Mg28 O35 1.986 . S
Mg28 O37 2.114 1_655 S
Mg28 O38 2.251 1_655 S
Mg28 O41 2.010 . S
O29 Mg28 2.028 . S
O29 C32 1.250 . S
O30 Mg31 2.028 . S
O30 C32 1.248 . S
Mg31 O30 2.028 . S
Mg31 O36 2.032 . S
Mg31 O38 2.079 1_655 S
C32 O29 1.250 . S
C32 O30 1.248 . S
C33 O34 1.264 . S
C33 O41 1.249 . S
O34 C33 1.264 . S
O35 Mg28 1.986 . S
O35 C39 1.246 . S
O36 Mg31 2.032 . S
O36 C39 1.259 . S
O37 Mg28 2.114 1_455 S
O37 C40 1.252 . S
O38 Mg28 2.251 1_455 S
O38 Mg31 2.079 1_455 S
O38 C40 1.273 . S
C39 O35 1.246 . S
C39 O36 1.259 . S
C40 O37 1.252 . S
C40 O38 1.273 . S
O41 Mg28 2.010 . S
O41 C33 1.249 . S
Mg42 O43 2.028 1_565 S
Mg42 O49 1.986 1_565 S
Mg42 O51 2.114 . S
Mg42 O52 2.251 . S
Mg42 O55 2.010 1_565 S
O43 Mg42 2.028 1_545 S
O43 C46 1.250 . S
O44 Mg45 2.028 1_545 S
O44 C46 1.248 . S
Mg45 O44 2.028 1_565 S
Mg45 O50 2.032 1_565 S
Mg45 O52 2.079 . S
C46 O43 1.250 . S
C46 O44 1.248 . S
C47 O48 1.264 . S
C47 O55 1.249 . S
O48 C47 1.264 . S
O49 Mg42 1.986 1_545 S
O49 C53 1.246 . S
O50 Mg45 2.032 1_545 S
O50 C53 1.259 . S
O51 Mg42 2.114 . S
O51 C54 1.252 . S
O52 Mg42 2.251 . S
O52 Mg45 2.079 . S
O52 C54 1.273 . S
C53 O49 1.246 . S
C53 O50 1.259 . S
C54 O51 1.252 . S
C54 O52 1.273 . S
O55 Mg42 2.010 1_545 S
O55 C47 1.249 . S
Mg56 O57 2.028 . S
Mg56 O63 1.986 . S
Mg56 O65 2.114 1_655 S
Mg56 O66 2.251 1_655 S
Mg56 O69 2.010 . S
O57 Mg56 2.028 . S
O57 C60 1.250 . S
O58 Mg59 2.028 . S
O58 C60 1.248 . S
Mg59 O58 2.028 . S
Mg59 O64 2.032 . S
Mg59 O66 2.079 1_655 S
C60 O57 1.250 . S
C60 O58 1.248 . S
C61 O62 1.264 . S
C61 O69 1.249 . S
O62 C61 1.264 . S
O63 Mg56 1.986 . S
O63 C67 1.246 . S
O64 Mg59 2.032 . S
O64 C67 1.259 . S
O65 Mg56 2.114 1_455 S
O65 C68 1.252 . S
O66 Mg56 2.251 1_455 S
O66 Mg59 2.079 1_455 S
O66 C68 1.273 . S
C67 O63 1.246 . S
C67 O64 1.259 . S
C68 O65 1.252 . S
C68 O66 1.273 . S
O69 Mg56 2.010 . S
O69 C61 1.249 . S
Mg70 O71 2.028 1_545 S
Mg70 O77 1.986 . S
Mg70 O79 2.114 . S
Mg70 O80 2.251 . S
Mg70 O83 2.010 . S
O71 Mg70 2.028 1_565 S
O71 C74 1.250 . S
O72 Mg73 2.028 1_565 S
O72 C74 1.248 . S
Mg73 O72 2.028 1_545 S
Mg73 O78 2.032 . S
Mg73 O80 2.079 . S
C74 O71 1.250 . S
C74 O72 1.248 . S
C75 O76 1.264 . S
C75 O83 1.249 . S
O76 C75 1.264 . S
O77 Mg70 1.986 . S
O77 C81 1.246 . S
O78 Mg73 2.032 . S
O78 C81 1.259 . S
O79 Mg70 2.114 . S
O79 C82 1.252 . S
O80 Mg70 2.251 . S
O80 Mg73 2.079 . S
O80 C82 1.273 . S
C81 O77 1.246 . S
C81 O78 1.259 . S
C82 O79 1.252 . S
C82 O80 1.273 . S
O83 Mg70 2.010 . S
O83 C75 1.249 . S
Mg84 O85 2.028 . S
Mg84 O91 1.986 . S
Mg84 O93 2.114 1_455 S
Mg84 O94 2.251 1_455 S
Mg84 O97 2.010 . S
O85 Mg84 2.028 . S
O85 C88 1.250 . S
O86 Mg87 2.028 . S
O86 C88 1.248 . S
Mg87 O86 2.028 . S
Mg87 O92 2.032 . S
Mg87 O94 2.079 1_455 S
C88 O85 1.250 . S
C88 O86 1.248 . S
C89 O90 1.264 . S
C89 O97 1.249 . S
O90 C89 1.264 . S
O91 Mg84 1.986 . S
O91 C95 1.246 . S
O92 Mg87 2.032 . S
O92 C95 1.259 . S
O93 Mg84 2.114 1_655 S
O93 C96 1.252 . S
O94 Mg84 2.251 1_655 S
O94 Mg87 2.079 1_655 S
O94 C96 1.273 . S
C95 O91 1.246 . S
C95 O92 1.259 . S
C96 O93 1.252 . S
C96 O94 1.273 . S
O97 Mg84 2.010 . S
O97 C89 1.249 . S
Mg98 O99 2.028 1_565 S
Mg98 O105 1.986 . S
Mg98 O107 2.114 . S
Mg98 O108 2.251 . S
Mg98 O111 2.010 . S
O99 Mg98 2.028 1_545 S
O99 C102 1.250 . S
O100 Mg101 2.028 1_545 S
O100 C102 1.248 . S
Mg101 O100 2.028 1_565 S
Mg101 O106 2.032 . S
Mg101 O108 2.079 . S
C102 O99 1.250 . S
C102 O100 1.248 . S
C103 O104 1.264 . S
C103 O111 1.249 . S
O104 C103 1.264 . S
O105 Mg98 1.986 . S
O105 C109 1.246 . S
O106 Mg101 2.032 . S
O106 C109 1.259 . S
O107 Mg98 2.114 . S
O107 C110 1.252 . S
O108 Mg98 2.251 . S
O108 Mg101 2.079 . S
O108 C110 1.273 . S
C109 O105 1.246 . S
C109 O106 1.259 . S
C110 O107 1.252 . S
C110 O108 1.273 . S
O111 Mg98 2.010 . S
O111 C103 1.249 . S
H112 C113 0.951 . S
C113 H112 0.951 . S
C113 C119 1.265 . S
H114 C119 0.949 1_455 S
H115 C123 0.949 . S
H116 C124 0.950 . S
H117 C125 0.951 . S
H118 C126 0.951 . S
C119 C113 1.265 . S
C119 H114 0.949 1_655 S
C119 C120 1.479 . S
C120 C119 1.479 . S
C120 C121 1.392 1_655 S
C120 C137 1.398 . S
C121 C120 1.392 1_455 S
C121 C122 1.438 . S
C121 C126 1.429 . S
C122 C121 1.438 . S
C122 C123 1.428 . S
C122 C135 1.398 . S
C123 H115 0.949 . S
C123 C122 1.428 . S
C123 C124 1.345 . S
C124 H116 0.950 . S
C124 C123 1.345 . S
C124 C125 1.424 . S
C125 H117 0.951 . S
C125 C124 1.424 . S
C125 C126 1.347 . S
C126 H118 0.951 . S
C126 C121 1.429 . S
C126 C125 1.347 . S
H127 C128 0.951 . S
C128 H127 0.951 . S
C128 C134 1.265 . S
H129 C134 0.949 1_655 S
H130 C138 0.949 . S
H131 C139 0.950 . S
H132 C140 0.951 . S
H133 C141 0.951 . S
C134 C128 1.265 . S
C134 H129 0.949 1_455 S
C134 C135 1.479 . S
C135 C122 1.398 . S
C135 C134 1.479 . S
C135 C136 1.392 1_455 S
C136 C135 1.392 1_655 S
C136 C137 1.438 . S
C136 C141 1.429 . S
C137 C120 1.398 . S
C137 C136 1.438 . S
C137 C138 1.428 . S
C138 H130 0.949 . S
C138 C137 1.428 . S
C138 C139 1.345 . S
C139 H131 0.950 . S
C139 C138 1.345 . S
C139 C140 1.424 . S
C140 H132 0.951 . S
C140 C139 1.424 . S
C140 C141 1.347 . S
C141 H133 0.951 . S
C141 C136 1.429 . S
C141 C140 1.347 . S
H142 C143 0.951 . S
C143 H142 0.951 . S
C143 C149 1.265 1_545 S
H144 C149 0.950 . S
H145 C153 0.949 . S
H146 C154 0.950 . S
H147 C155 0.951 . S
H148 C156 0.951 . S
C149 C143 1.265 1_565 S
C149 H144 0.950 . S
C149 C150 1.478 . S
C150 C149 1.478 . S
C150 C151 1.397 . S
C150 C167 1.394 1_565 S
C151 C150 1.397 . S
C151 C152 1.438 . S
C151 C156 1.429 . S
C152 C151 1.438 . S
C152 C153 1.428 . S
C152 C165 1.394 1_565 S
C153 H145 0.949 . S
C153 C152 1.428 . S
C153 C154 1.345 . S
C154 H146 0.950 . S
C154 C153 1.345 . S
C154 C155 1.424 . S
C155 H147 0.951 . S
C155 C154 1.424 . S
C155 C156 1.347 . S
C156 H148 0.951 . S
C156 C151 1.429 . S
C156 C155 1.347 . S
H157 C158 0.951 . S
C158 H157 0.951 . S
C158 C164 1.265 1_565 S
H159 C164 0.950 . S
H160 C168 0.949 . S
H161 C169 0.950 . S
H162 C170 0.951 . S
H163 C171 0.951 . S
C164 C158 1.265 1_545 S
C164 H159 0.950 . S
C164 C165 1.478 . S
C165 C152 1.394 1_545 S
C165 C164 1.478 . S
C165 C166 1.397 . S
C166 C165 1.397 . S
C166 C167 1.438 . S
C166 C171 1.429 . S
C167 C150 1.394 1_545 S
C167 C166 1.438 . S
C167 C168 1.428 . S
C168 H160 0.949 . S
C168 C167 1.428 . S
C168 C169 1.345 . S
C169 H161 0.950 . S
C169 C168 1.345 . S
C169 C170 1.424 . S
C170 H162 0.951 . S
C170 C169 1.424 . S
C170 C171 1.347 . S
C171 H163 0.951 . S
C171 C166 1.429 . S
C171 C170 1.347 . S
H172 C173 0.951 1_455 S
C173 H172 0.951 1_655 S
C173 C179 1.265 . S
H174 C179 0.950 . S
H175 C183 0.949 1_455 S
H176 C184 0.950 . S
H177 C185 0.951 . S
H178 C186 0.951 . S
C179 C173 1.265 . S
C179 H174 0.950 . S
C179 C180 1.478 . S
C180 C179 1.478 . S
C180 C181 1.397 . S
C180 C197 1.394 1_655 S
C181 C180 1.397 . S
C181 C182 1.438 . S
C181 C186 1.429 . S
C182 C181 1.438 . S
C182 C183 1.428 . S
C182 C195 1.394 1_655 S
C183 H175 0.949 1_655 S
C183 C182 1.428 . S
C183 C184 1.345 . S
C184 H176 0.950 . S
C184 C183 1.345 . S
C184 C185 1.424 . S
C185 H177 0.951 . S
C185 C184 1.424 . S
C185 C186 1.347 . S
C186 H178 0.951 . S
C186 C181 1.429 . S
C186 C185 1.347 . S
H187 C188 0.951 1_655 S
C188 H187 0.951 1_455 S
C188 C194 1.265 . S
H189 C194 0.950 . S
H190 C198 0.949 1_655 S
H191 C199 0.950 1_556 S
H192 C200 0.951 1_556 S
H193 C201 0.951 . S
C194 C188 1.265 . S
C194 H189 0.950 . S
C194 C195 1.478 . S
C195 C182 1.394 1_455 S
C195 C194 1.478 . S
C195 C196 1.397 . S
C196 C195 1.397 . S
C196 C197 1.438 . S
C196 C201 1.429 . S
C197 C180 1.394 1_455 S
C197 C196 1.438 . S
C197 C198 1.428 . S
C198 H190 0.949 1_455 S
C198 C197 1.428 . S
C198 C199 1.345 . S
C199 H191 0.950 1_554 S
C199 C198 1.345 . S
C199 C200 1.424 . S
C200 H192 0.951 1_554 S
C200 C199 1.424 . S
C200 C201 1.347 . S
C201 H193 0.951 . S
C201 C196 1.429 . S
C201 C200 1.347 . S
H202 C203 0.951 1_565 S
C203 H202 0.951 1_545 S
C203 C209 1.265 . S
H204 C209 0.950 . S
H205 C213 0.949 1_565 S
H206 C214 0.950 1_554 S
H207 C215 0.951 1_554 S
H208 C216 0.951 . S
C209 C203 1.265 . S
C209 H204 0.950 . S
C209 C210 1.478 . S
C210 C209 1.478 . S
C210 C211 1.397 . S
C210 C227 1.394 1_545 S
C211 C210 1.397 . S
C211 C212 1.438 . S
C211 C216 1.429 . S
C212 C211 1.438 . S
C212 C213 1.428 . S
C212 C225 1.394 1_545 S
C213 H205 0.949 1_545 S
C213 C212 1.428 . S
C213 C214 1.345 . S
C214 H206 0.950 1_556 S
C214 C213 1.345 . S
C214 C215 1.424 . S
C215 H207 0.951 1_556 S
C215 C214 1.424 . S
C215 C216 1.347 . S
C216 H208 0.951 . S
C216 C211 1.429 . S
C216 C215 1.347 . S
H217 C218 0.951 1_545 S
C218 H217 0.951 1_565 S
C218 C224 1.265 . S
H219 C224 0.950 . S
H220 C228 0.949 1_545 S
H221 C229 0.950 . S
H222 C230 0.951 . S
H223 C231 0.951 . S
C224 C218 1.265 . S
C224 H219 0.950 . S
C224 C225 1.478 . S
C225 C212 1.394 1_565 S
C225 C224 1.478 . S
C225 C226 1.397 . S
C226 C225 1.397 . S
C226 C227 1.438 . S
C226 C231 1.429 . S
C227 C210 1.394 1_565 S
C227 C226 1.438 . S
C227 C228 1.428 . S
C228 H220 0.949 1_565 S
C228 C227 1.428 . S
C228 C229 1.345 . S
C229 H221 0.950 . S
C229 C228 1.345 . S
C229 C230 1.424 . S
C230 H222 0.951 . S
C230 C229 1.424 . S
C230 C231 1.347 . S
C231 H223 0.951 . S
C231 C226 1.429 . S
C231 C230 1.347 . S
H232 C233 0.951 . S
C233 H232 0.951 . S
C233 C239 1.265 . S
H234 C239 0.950 . S
H235 C243 0.949 . S
H236 C244 0.950 . S
H237 C245 0.951 . S
H238 C246 0.951 . S
C239 C233 1.265 . S
C239 H234 0.950 . S
C239 C240 1.478 . S
C240 C239 1.478 . S
C240 C241 1.397 . S
C240 C257 1.394 . S
C241 C240 1.397 . S
C241 C242 1.438 . S
C241 C246 1.429 . S
C242 C241 1.438 . S
C242 C243 1.428 . S
C242 C255 1.394 . S
C243 H235 0.949 . S
C243 C242 1.428 . S
C243 C244 1.345 . S
C244 H236 0.950 . S
C244 C243 1.345 . S
C244 C245 1.424 . S
C245 H237 0.951 . S
C245 C244 1.424 . S
C245 C246 1.347 . S
C246 H238 0.951 . S
C246 C241 1.429 . S
C246 C245 1.347 . S
H247 C248 0.951 . S
C248 H247 0.951 . S
C248 C254 1.265 . S
H249 C254 0.950 . S
H250 C258 0.949 . S
H251 C259 0.950 . S
H252 C260 0.951 . S
H253 C261 0.951 . S
C254 C248 1.265 . S
C254 H249 0.950 . S
C254 C255 1.478 . S
C255 C242 1.394 . S
C255 C254 1.478 . S
C255 C256 1.397 . S
C256 C255 1.397 . S
C256 C257 1.438 . S
C256 C261 1.429 . S
C257 C240 1.394 . S
C257 C256 1.438 . S
C257 C258 1.428 . S
C258 H250 0.949 . S
C258 C257 1.428 . S
C258 C259 1.345 . S
C259 H251 0.950 . S
C259 C258 1.345 . S
C259 C260 1.424 . S
C260 H252 0.951 . S
C260 C259 1.424 . S
C260 C261 1.347 . S
C261 H253 0.951 . S
C261 C256 1.429 . S
C261 C260 1.347 . S
H262 C263 0.951 . S
C263 H262 0.951 . S
C263 C269 1.265 . S
H264 C269 0.950 . S
H265 C273 0.949 . S
H266 C274 0.950 . S
H267 C275 0.951 . S
H268 C276 0.951 . S
C269 C263 1.265 . S
C269 H264 0.950 . S
C269 C270 1.478 . S
C270 C269 1.478 . S
C270 C271 1.397 . S
C270 C287 1.394 . S
C271 C270 1.397 . S
C271 C272 1.438 . S
C271 C276 1.429 . S
C272 C271 1.438 . S
C272 C273 1.428 . S
C272 C285 1.394 . S
C273 H265 0.949 . S
C273 C272 1.428 . S
C273 C274 1.345 . S
C274 H266 0.950 . S
C274 C273 1.345 . S
C274 C275 1.424 . S
C275 H267 0.951 . S
C275 C274 1.424 . S
C275 C276 1.347 . S
C276 H268 0.951 . S
C276 C271 1.429 . S
C276 C275 1.347 . S
H277 C278 0.951 . S
C278 H277 0.951 . S
C278 C284 1.265 . S
H279 C284 0.950 . S
H280 C288 0.949 . S
H281 C289 0.950 . S
H282 C290 0.951 . S
H283 C291 0.951 . S
C284 C278 1.265 . S
C284 H279 0.950 . S
C284 C285 1.478 . S
C285 C272 1.394 . S
C285 C284 1.478 . S
C285 C286 1.397 . S
C286 C285 1.397 . S
C286 C287 1.438 . S
C286 C291 1.429 . S
C287 C270 1.394 . S
C287 C286 1.438 . S
C287 C288 1.428 . S
C288 H280 0.949 . S
C288 C287 1.428 . S
C288 C289 1.345 . S
C289 H281 0.950 . S
C289 C288 1.345 . S
C289 C290 1.424 . S
C290 H282 0.951 . S
C290 C289 1.424 . S
C290 C291 1.347 . S
C291 H283 0.951 . S
C291 C286 1.429 . S
C291 C290 1.347 . S
H292 C293 0.951 . S
C293 H292 0.951 . S
C293 C299 1.265 . S
H294 C299 0.950 . S
H295 C303 0.949 . S
H296 C304 0.950 . S
H297 C305 0.951 . S
H298 C306 0.951 . S
C299 C293 1.265 . S
C299 H294 0.950 . S
C299 C300 1.478 . S
C300 C299 1.478 . S
C300 C301 1.397 . S
C300 C317 1.394 . S
C301 C300 1.397 . S
C301 C302 1.438 . S
C301 C306 1.429 . S
C302 C301 1.438 . S
C302 C303 1.428 . S
C302 C315 1.394 . S
C303 H295 0.949 . S
C303 C302 1.428 . S
C303 C304 1.345 . S
C304 H296 0.950 . S
C304 C303 1.345 . S
C304 C305 1.424 . S
C305 H297 0.951 . S
C305 C304 1.424 . S
C305 C306 1.347 . S
C306 H298 0.951 . S
C306 C301 1.429 . S
C306 C305 1.347 . S
H307 C308 0.951 . S
C308 H307 0.951 . S
C308 C314 1.265 . S
H309 C314 0.950 . S
H310 C318 0.949 . S
H311 C319 0.950 . S
H312 C320 0.951 . S
H313 C321 0.951 . S
C314 C308 1.265 . S
C314 H309 0.950 . S
C314 C315 1.478 . S
C315 C302 1.394 . S
C315 C314 1.478 . S
C315 C316 1.397 . S
C316 C315 1.397 . S
C316 C317 1.438 . S
C316 C321 1.429 . S
C317 C300 1.394 . S
C317 C316 1.438 . S
C317 C318 1.428 . S
C318 H310 0.949 . S
C318 C317 1.428 . S
C318 C319 1.345 . S
C319 H311 0.950 . S
C319 C318 1.345 . S
C319 C320 1.424 . S
C320 H312 0.951 . S
C320 C319 1.424 . S
C320 C321 1.347 . S
C321 H313 0.951 . S
C321 C316 1.429 . S
C321 C320 1.347 . S
H322 C323 0.951 . S
C323 H322 0.951 . S
C323 C329 1.265 . S
H324 C329 0.950 . S
H325 C333 0.949 . S
H326 C334 0.950 . S
H327 C335 0.951 . S
H328 C336 0.951 . S
C329 C323 1.265 . S
C329 H324 0.950 . S
C329 C330 1.478 . S
C330 C329 1.478 . S
C330 C331 1.397 . S
C330 C347 1.394 . S
C331 C330 1.397 . S
C331 C332 1.438 . S
C331 C336 1.429 . S
C332 C331 1.438 . S
C332 C333 1.428 . S
C332 C345 1.394 . S
C333 H325 0.949 . S
C333 C332 1.428 . S
C333 C334 1.345 . S
C334 H326 0.950 . S
C334 C333 1.345 . S
C334 C335 1.424 . S
C335 H327 0.951 . S
C335 C334 1.424 . S
C335 C336 1.347 . S
C336 H328 0.951 . S
C336 C331 1.429 . S
C336 C335 1.347 . S
H337 C338 0.951 . S
C338 H337 0.951 . S
C338 C344 1.265 . S
H339 C344 0.950 . S
H340 C348 0.949 . S
H341 C349 0.950 . S
H342 C350 0.951 . S
H343 C351 0.951 . S
C344 C338 1.265 . S
C344 H339 0.950 . S
C344 C345 1.478 . S
C345 C332 1.394 . S
C345 C344 1.478 . S
C345 C346 1.397 . S
C346 C345 1.397 . S
C346 C347 1.438 . S
C346 C351 1.429 . S
C347 C330 1.394 . S
C347 C346 1.438 . S
C347 C348 1.428 . S
C348 H340 0.949 . S
C348 C347 1.428 . S
C348 C349 1.345 . S
C349 H341 0.950 . S
C349 C348 1.345 . S
C349 C350 1.424 . S
C350 H342 0.951 . S
C350 C349 1.424 . S
C350 C351 1.347 . S
C351 H343 0.951 . S
C351 C346 1.429 . S
C351 C350 1.347 . S
H352 C353 0.951 . S
C353 H352 0.951 . S
C353 C359 1.265 . S
H354 C359 0.950 . S
H355 C363 0.949 . S
H356 C364 0.950 . S
H357 C365 0.951 . S
H358 C366 0.969 . S
C359 C353 1.265 . S
C359 H354 0.950 . S
C359 C360 1.478 . S
C360 C359 1.478 . S
C360 C361 1.364 1_556 S
C360 C377 1.394 . S
C361 C360 1.364 1_554 S
C361 C362 1.458 . S
C361 C366 1.442 . S
C362 C361 1.458 . S
C362 C363 1.428 . S
C362 C375 1.394 . S
C363 H355 0.949 . S
C363 C362 1.428 . S
C363 C364 1.345 . S
C364 H356 0.950 . S
C364 C363 1.345 . S
C364 C365 1.424 . S
C365 H357 0.951 . S
C365 C364 1.424 . S
C365 C366 1.347 . S
C366 H358 0.969 . S
C366 C361 1.442 . S
C366 C365 1.347 . S
H367 C368 0.951 . S
C368 H367 0.951 . S
C368 C374 1.265 . S
H369 C374 0.950 . S
H370 C378 0.949 . S
H371 C379 0.950 . S
H372 C380 0.951 . S
H373 C381 0.951 . S
C374 C368 1.265 . S
C374 H369 0.950 . S
C374 C375 1.478 . S
C375 C362 1.394 . S
C375 C374 1.478 . S
C375 C376 1.397 1_554 S
C376 C375 1.397 1_556 S
C376 C377 1.438 . S
C376 C381 1.429 . S
C377 C360 1.394 . S
C377 C376 1.438 . S
C377 C378 1.428 . S
C378 H370 0.949 . S
C378 C377 1.428 . S
C378 C379 1.345 . S
C379 H371 0.950 . S
C379 C378 1.345 . S
C379 C380 1.424 . S
C380 H372 0.951 . S
C380 C379 1.424 . S
C380 C381 1.347 . S
C381 H373 0.951 . S
C381 C376 1.429 . S
C381 C380 1.347 . S
H382 C383 0.951 . S
C383 H382 0.951 . S
C383 C389 1.265 . S
H384 C389 0.950 . S
H385 C393 0.949 . S
H386 C394 0.950 . S
H387 C395 0.951 . S
H388 C396 0.951 . S
C389 C383 1.265 . S
C389 H384 0.950 . S
C389 C390 1.478 . S
C390 C389 1.478 . S
C390 C391 1.397 . S
C390 C407 1.394 1_556 S
C391 C390 1.397 . S
C391 C392 1.438 1_556 S
C391 C396 1.429 . S
C392 C391 1.438 1_554 S
C392 C393 1.428 . S
C392 C405 1.394 . S
C393 H385 0.949 . S
C393 C392 1.428 . S
C393 C394 1.345 1_554 S
C394 H386 0.950 . S
C394 C393 1.345 1_556 S
C394 C395 1.424 . S
C395 H387 0.951 . S
C395 C394 1.424 . S
C395 C396 1.347 . S
C396 H388 0.951 . S
C396 C391 1.429 . S
C396 C395 1.347 . S
H397 C398 0.951 . S
C398 H397 0.951 . S
C398 C404 1.265 . S
H399 C404 0.950 . S
H400 C408 0.949 . S
H401 C409 0.950 . S
H402 C410 0.951 . S
H403 C411 0.951 . S
C404 C398 1.265 . S
C404 H399 0.950 . S
C404 C405 1.478 . S
C405 C392 1.394 . S
C405 C404 1.478 . S
C405 C406 1.397 . S
C406 C405 1.397 . S
C406 C407 1.438 . S
C406 C411 1.429 . S
C407 C390 1.394 1_554 S
C407 C406 1.438 . S
C407 C408 1.428 . S
C408 H400 0.949 . S
C408 C407 1.428 . S
C408 C409 1.345 . S
C409 H401 0.950 . S
C409 C408 1.345 . S
C409 C410 1.424 . S
C410 H402 0.951 . S
C410 C409 1.424 . S
C410 C411 1.347 . S
C411 H403 0.951 . S
C411 C406 1.429 . S
C411 C410 1.347 . S
H412 C413 0.951 . S
C413 H412 0.951 . S
C413 C419 1.265 . S
H414 C419 0.950 . S
H415 C423 0.949 . S
H416 C424 0.953 1_545 S
H417 C425 0.951 . S
H418 C426 0.951 . S
C419 C413 1.265 . S
C419 H414 0.950 . S
C419 C420 1.478 . S
C420 C419 1.478 . S
C420 C421 1.397 . S
C420 C437 1.394 1_554 S
C421 C420 1.397 . S
C421 C422 1.438 1_554 S
C421 C426 1.429 . S
C422 C421 1.438 1_556 S
C422 C423 1.428 . S
C422 C435 1.394 . S
C423 H415 0.949 . S
C423 C422 1.428 . S
C423 C424 1.361 . S
C424 H416 0.953 1_565 S
C424 C423 1.361 . S
C424 C425 1.405 1_556 S
C425 H417 0.951 . S
C425 C424 1.405 1_554 S
C425 C426 1.347 . S
C426 H418 0.951 . S
C426 C421 1.429 . S
C426 C425 1.347 . S
H427 C428 0.951 . S
C428 H427 0.951 . S
C428 C434 1.265 . S
H429 C434 0.950 . S
H430 C438 0.949 1_554 S
H431 C439 0.950 . S
H432 C440 0.951 . S
H433 C441 0.951 . S
C434 C428 1.265 . S
C434 H429 0.950 . S
C434 C435 1.478 . S
C435 C422 1.394 . S
C435 C434 1.478 . S
C435 C436 1.397 . S
C436 C435 1.397 . S
C436 C437 1.438 . S
C436 C441 1.429 . S
C437 C420 1.394 1_556 S
C437 C436 1.438 . S
C437 C438 1.428 . S
C438 H430 0.949 1_556 S
C438 C437 1.428 . S
C438 C439 1.345 . S
C439 H431 0.950 . S
C439 C438 1.345 . S
C439 C440 1.424 . S
C440 H432 0.951 . S
C440 C439 1.424 . S
C440 C441 1.347 . S
C441 H433 0.951 . S
C441 C436 1.429 . S
C441 C440 1.347 . S
H442 C443 0.951 . S
C443 H442 0.951 . S
C443 C449 1.265 . S
H444 C449 0.950 . S
H445 C453 0.949 . S
H446 C454 0.950 . S
H447 C455 0.951 . S
H448 C456 0.951 . S
C449 C443 1.265 . S
C449 H444 0.950 . S
C449 C450 1.478 . S
C450 C449 1.478 . S
C450 C451 1.397 1_556 S
C450 C467 1.392 1_556 S
C451 C450 1.397 1_554 S
C451 C452 1.438 . S
C451 C456 1.429 1_554 S
C452 C451 1.438 . S
C452 C453 1.428 . S
C452 C465 1.394 . S
C453 H445 0.949 . S
C453 C452 1.428 . S
C453 C454 1.345 . S
C454 H446 0.950 . S
C454 C453 1.345 . S
C454 C455 1.424 . S
C455 H447 0.951 . S
C455 C454 1.424 . S
C455 C456 1.347 1_554 S
C456 H448 0.951 . S
C456 C451 1.429 1_556 S
C456 C455 1.347 1_556 S
H457 C458 0.951 . S
C458 H457 0.951 . S
C458 C464 1.265 . S
H459 C464 0.950 . S
H460 C468 0.949 . S
H461 C469 0.950 . S
H462 C470 0.951 . S
H463 C471 0.951 . S
C464 C458 1.265 . S
C464 H459 0.950 . S
C464 C465 1.478 . S
C465 C452 1.394 . S
C465 C464 1.478 . S
C465 C466 1.397 . S
C466 C465 1.397 . S
C466 C467 1.445 . S
C466 C471 1.429 . S
C467 C450 1.392 1_554 S
C467 C466 1.445 . S
C467 C468 1.424 1_554 S
C468 H460 0.949 . S
C468 C467 1.424 1_556 S
C468 C469 1.345 . S
C469 H461 0.950 . S
C469 C468 1.345 . S
C469 C470 1.424 1_556 S
C470 H462 0.951 . S
C470 C469 1.424 1_554 S
C470 C471 1.347 . S
C471 H463 0.951 . S
C471 C466 1.429 . S
C471 C470 1.347 . S
H472 C473 0.951 . S
C473 H472 0.951 . S
C473 C479 1.265 . S
H474 C479 0.950 . S
H475 C483 0.949 . S
H476 C484 0.950 . S
H477 C485 0.951 . S
H478 C486 0.951 . S
C479 C473 1.265 . S
C479 H474 0.950 . S
C479 C480 1.478 . S
C480 C479 1.478 . S
C480 C481 1.397 . S
C480 C497 1.394 . S
C481 C480 1.397 . S
C481 C482 1.438 . S
C481 C486 1.429 . S
C482 C481 1.438 . S
C482 C483 1.428 . S
C482 C495 1.394 . S
C483 H475 0.949 . S
C483 C482 1.428 . S
C483 C484 1.345 . S
C484 H476 0.950 . S
C484 C483 1.345 . S
C484 C485 1.424 . S
C485 H477 0.951 . S
C485 C484 1.424 . S
C485 C486 1.347 . S
C486 H478 0.951 . S
C486 C481 1.429 . S
C486 C485 1.347 . S
H487 C488 0.951 . S
C488 H487 0.951 . S
C488 C494 1.265 . S
H489 C494 0.950 . S
H490 C498 0.949 . S
H491 C499 0.950 . S
H492 C500 0.951 . S
H493 C501 0.951 . S
C494 C488 1.265 . S
C494 H489 0.950 . S
C494 C495 1.478 . S
C495 C482 1.394 . S
C495 C494 1.478 . S
C495 C496 1.397 . S
C496 C495 1.397 . S
C496 C497 1.438 . S
C496 C501 1.429 . S
C497 C480 1.394 . S
C497 C496 1.438 . S
C497 C498 1.428 . S
C498 H490 0.949 . S
C498 C497 1.428 . S
C498 C499 1.345 . S
C499 H491 0.950 . S
C499 C498 1.345 . S
C499 C500 1.424 . S
C500 H492 0.951 . S
C500 C499 1.424 . S
C500 C501 1.347 . S
C501 H493 0.951 . S
C501 C496 1.429 . S
C501 C500 1.347 . S
H502 C503 0.951 . S
C503 H502 0.951 . S
C503 C509 1.265 . S
H504 C509 0.950 . S
H505 C513 0.949 . S
H506 C514 0.950 . S
H507 C515 0.951 . S
H508 C516 0.951 . S
C509 C503 1.265 . S
C509 H504 0.950 . S
C509 C510 1.478 . S
C510 C509 1.478 . S
C510 C511 1.397 . S
C510 C527 1.394 . S
C511 C510 1.397 . S
C511 C512 1.438 . S
C511 C516 1.429 . S
C512 C511 1.438 . S
C512 C513 1.428 . S
C512 C525 1.394 . S
C513 H505 0.949 . S
C513 C512 1.428 . S
C513 C514 1.345 . S
C514 H506 0.950 . S
C514 C513 1.345 . S
C514 C515 1.424 . S
C515 H507 0.951 . S
C515 C514 1.424 . S
C515 C516 1.347 . S
C516 H508 0.951 . S
C516 C511 1.429 . S
C516 C515 1.347 . S
H517 C518 0.951 . S
C518 H517 0.951 . S
C518 C524 1.265 . S
H519 C524 0.950 . S
H520 C528 0.949 . S
H521 C529 0.950 . S
H522 C530 0.951 . S
H523 C531 0.951 . S
C524 C518 1.265 . S
C524 H519 0.950 . S
C524 C525 1.478 . S
C525 C512 1.394 . S
C525 C524 1.478 . S
C525 C526 1.397 . S
C526 C525 1.397 . S
C526 C527 1.438 . S
C526 C531 1.429 . S
C527 C510 1.394 . S
C527 C526 1.438 . S
C527 C528 1.428 . S
C528 H520 0.949 . S
C528 C527 1.428 . S
C528 C529 1.345 . S
C529 H521 0.950 . S
C529 C528 1.345 . S
C529 C530 1.424 . S
C530 H522 0.951 . S
C530 C529 1.424 . S
C530 C531 1.347 . S
C531 H523 0.951 . S
C531 C526 1.429 . S
C531 C530 1.347 . S
H532 C533 0.951 . S
C533 H532 0.951 . S
C533 C539 1.265 . S
H534 C539 0.950 . S
H535 C543 0.949 . S
H536 C544 0.950 . S
H537 C545 0.951 . S
H538 C546 0.951 . S
C539 C533 1.265 . S
C539 H534 0.950 . S
C539 C540 1.478 . S
C540 C539 1.478 . S
C540 C541 1.397 . S
C540 C557 1.394 . S
C541 C540 1.397 . S
C541 C542 1.438 . S
C541 C546 1.429 . S
C542 C541 1.438 . S
C542 C543 1.428 . S
C542 C555 1.394 . S
C543 H535 0.949 . S
C543 C542 1.428 . S
C543 C544 1.345 . S
C544 H536 0.950 . S
C544 C543 1.345 . S
C544 C545 1.424 . S
C545 H537 0.951 . S
C545 C544 1.424 . S
C545 C546 1.347 . S
C546 H538 0.951 . S
C546 C541 1.429 . S
C546 C545 1.347 . S
H547 C548 0.951 . S
C548 H547 0.951 . S
C548 C554 1.265 . S
H549 C554 0.950 . S
H550 C558 0.949 . S
H551 C559 0.950 . S
H552 C560 0.951 . S
H553 C561 0.951 . S
C554 C548 1.265 . S
C554 H549 0.950 . S
C554 C555 1.478 . S
C555 C542 1.394 . S
C555 C554 1.478 . S
C555 C556 1.397 . S
C556 C555 1.397 . S
C556 C557 1.438 . S
C556 C561 1.429 . S
C557 C540 1.394 . S
C557 C556 1.438 . S
C557 C558 1.428 . S
C558 H550 0.949 . S
C558 C557 1.428 . S
C558 C559 1.345 . S
C559 H551 0.950 . S
C559 C558 1.345 . S
C559 C560 1.424 . S
C560 H552 0.951 . S
C560 C559 1.424 . S
C560 C561 1.347 . S
C561 H553 0.951 . S
C561 C556 1.429 . S
C561 C560 1.347 . S
H562 C563 0.951 . S
C563 H562 0.951 . S
C563 C569 1.265 . S
H564 C569 0.950 . S
H565 C573 0.949 . S
H566 C574 0.950 1_455 S
H567 C575 0.951 . S
H568 C576 0.951 . S
C569 C563 1.265 . S
C569 H564 0.950 . S
C569 C570 1.478 . S
C570 C569 1.478 . S
C570 C571 1.397 . S
C570 C587 1.394 . S
C571 C570 1.397 . S
C571 C572 1.438 . S
C571 C576 1.429 . S
C572 C571 1.438 . S
C572 C573 1.428 . S
C572 C585 1.394 . S
C573 H565 0.949 . S
C573 C572 1.428 . S
C573 C574 1.345 . S
C574 H566 0.950 1_655 S
C574 C573 1.345 . S
C574 C575 1.424 . S
C575 H567 0.951 . S
C575 C574 1.424 . S
C575 C576 1.347 . S
C576 H568 0.951 . S
C576 C571 1.429 . S
C576 C575 1.347 . S
H577 C578 0.951 . S
C578 H577 0.951 . S
C578 C584 1.265 . S
H579 C584 0.950 . S
H580 C588 0.949 . S
H581 C589 0.950 . S
H582 C590 0.951 . S
H583 C591 0.951 . S
C584 C578 1.265 . S
C584 H579 0.950 . S
C584 C585 1.478 . S
C585 C572 1.394 . S
C585 C584 1.478 . S
C585 C586 1.397 . S
C586 C585 1.397 . S
C586 C587 1.438 . S
C586 C591 1.429 . S
C587 C570 1.394 . S
C587 C586 1.438 . S
C587 C588 1.428 . S
C588 H580 0.949 . S
C588 C587 1.428 . S
C588 C589 1.345 . S
C589 H581 0.950 . S
C589 C588 1.345 . S
C589 C590 1.424 . S
C590 H582 0.951 . S
C590 C589 1.424 . S
C590 C591 1.347 . S
C591 H583 0.951 . S
C591 C586 1.429 . S
C591 C590 1.347 . S
C113 C39 1.246 . S
C128 C11 1.256 . S
C143 C53 1.211 . S
C158 C25 1.212 . S
C173 C67 1.187 . S
C188 C95 1.189 . S
C203 C75 1.143 . S
C218 C103 1.147 . S
C233 C26 0.854 . S
C248 C4 0.844 . S
C263 C18 0.885 . S
C278 C40 0.931 . S
C293 C54 0.794 . S
C308 C32 0.689 . S
C323 C46 0.846 . S
C338 C12 0.822 . S
C353 C102 0.817 . S
C368 C60 0.972 . S
C383 C82 0.667 . S
C398 C68 0.773 . S
C413 C88 0.978 . S
C428 C74 0.843 . S
C443 C110 0.698 . S
C458 C96 0.788 . S
C473 C5 1.526 . S
C488 C81 1.708 . S
C503 C89 1.581 . S
C518 C19 1.559 . S
C533 C33 1.586 . S
C548 C109 1.675 . S
C563 C47 1.472 . S
C578 C61 1.469 . S
