# Generated by pormake.
# Topology lta, (4)-cn, num edge types: 1
# Building blocks:
#     Node 0, Type 0, BuildingBlock: QUQFOY_clean_sbu_1, # of connection points: 4
#     Node 1, Type 0, BuildingBlock: QUQFOY_clean_sbu_1, # of connection points: 4
#     Node 2, Type 0, BuildingBlock: QUQFOY_clean_sbu_1, # of connection points: 4
#     Node 3, Type 0, BuildingBlock: QUQFOY_clean_sbu_1, # of connection points: 4
#     Node 4, Type 0, BuildingBlock: QUQFOY_clean_sbu_1, # of connection points: 4
#     Node 5, Type 0, BuildingBlock: QUQFOY_clean_sbu_1, # of connection points: 4
#     Node 6, Type 0, BuildingBlock: QUQFOY_clean_sbu_1, # of connection points: 4
#     Node 7, Type 0, BuildingBlock: QUQFOY_clean_sbu_1, # of connection points: 4
#     Node 8, Type 0, BuildingBlock: QUQFOY_clean_sbu_1, # of connection points: 4
#     Node 9, Type 0, BuildingBlock: QUQFOY_clean_sbu_1, # of connection points: 4
#     Node 10, Type 0, BuildingBlock: QUQFOY_clean_sbu_1, # of connection points: 4
#     Node 11, Type 0, BuildingBlock: QUQFOY_clean_sbu_1, # of connection points: 4
#     Node 12, Type 0, BuildingBlock: QUQFOY_clean_sbu_1, # of connection points: 4
#     Node 13, Type 0, BuildingBlock: QUQFOY_clean_sbu_1, # of connection points: 4
#     Node 14, Type 0, BuildingBlock: QUQFOY_clean_sbu_1, # of connection points: 4
#     Node 15, Type 0, BuildingBlock: QUQFOY_clean_sbu_1, # of connection points: 4
#     Node 16, Type 0, BuildingBlock: QUQFOY_clean_sbu_1, # of connection points: 4
#     Node 17, Type 0, BuildingBlock: QUQFOY_clean_sbu_1, # of connection points: 4
#     Node 18, Type 0, BuildingBlock: QUQFOY_clean_sbu_1, # of connection points: 4
#     Node 19, Type 0, BuildingBlock: QUQFOY_clean_sbu_1, # of connection points: 4
#     Node 20, Type 0, BuildingBlock: QUQFOY_clean_sbu_1, # of connection points: 4
#     Node 21, Type 0, BuildingBlock: QUQFOY_clean_sbu_1, # of connection points: 4
#     Node 22, Type 0, BuildingBlock: QUQFOY_clean_sbu_1, # of connection points: 4
#     Node 23, Type 0, BuildingBlock: QUQFOY_clean_sbu_1, # of connection points: 4
#     Edge 24, Type (0, 0), BuildingBlock: ZUJKAS_clean_linker_0, # of connection points: 2
#     Edge 25, Type (0, 0), BuildingBlock: ZUJKAS_clean_linker_0, # of connection points: 2
#     Edge 26, Type (0, 0), BuildingBlock: ZUJKAS_clean_linker_0, # of connection points: 2
#     Edge 27, Type (0, 0), BuildingBlock: ZUJKAS_clean_linker_0, # of connection points: 2
#     Edge 28, Type (0, 0), BuildingBlock: ZUJKAS_clean_linker_0, # of connection points: 2
#     Edge 29, Type (0, 0), BuildingBlock: ZUJKAS_clean_linker_0, # of connection points: 2
#     Edge 30, Type (0, 0), BuildingBlock: ZUJKAS_clean_linker_0, # of connection points: 2
#     Edge 31, Type (0, 0), BuildingBlock: ZUJKAS_clean_linker_0, # of connection points: 2
#     Edge 32, Type (0, 0), BuildingBlock: ZUJKAS_clean_linker_0, # of connection points: 2
#     Edge 33, Type (0, 0), BuildingBlock: ZUJKAS_clean_linker_0, # of connection points: 2
#     Edge 34, Type (0, 0), BuildingBlock: ZUJKAS_clean_linker_0, # of connection points: 2
#     Edge 35, Type (0, 0), BuildingBlock: ZUJKAS_clean_linker_0, # of connection points: 2
#     Edge 36, Type (0, 0), BuildingBlock: ZUJKAS_clean_linker_0, # of connection points: 2
#     Edge 37, Type (0, 0), BuildingBlock: ZUJKAS_clean_linker_0, # of connection points: 2
#     Edge 38, Type (0, 0), BuildingBlock: ZUJKAS_clean_linker_0, # of connection points: 2
#     Edge 39, Type (0, 0), BuildingBlock: ZUJKAS_clean_linker_0, # of connection points: 2
#     Edge 40, Type (0, 0), BuildingBlock: ZUJKAS_clean_linker_0, # of connection points: 2
#     Edge 41, Type (0, 0), BuildingBlock: ZUJKAS_clean_linker_0, # of connection points: 2
#     Edge 42, Type (0, 0), BuildingBlock: ZUJKAS_clean_linker_0, # of connection points: 2
#     Edge 43, Type (0, 0), BuildingBlock: ZUJKAS_clean_linker_0, # of connection points: 2
#     Edge 44, Type (0, 0), BuildingBlock: ZUJKAS_clean_linker_0, # of connection points: 2
#     Edge 45, Type (0, 0), BuildingBlock: ZUJKAS_clean_linker_0, # of connection points: 2
#     Edge 46, Type (0, 0), BuildingBlock: ZUJKAS_clean_linker_0, # of connection points: 2
#     Edge 47, Type (0, 0), BuildingBlock: ZUJKAS_clean_linker_0, # of connection points: 2
#     Edge 48, Type (0, 0), BuildingBlock: ZUJKAS_clean_linker_0, # of connection points: 2
#     Edge 49, Type (0, 0), BuildingBlock: ZUJKAS_clean_linker_0, # of connection points: 2
#     Edge 50, Type (0, 0), BuildingBlock: ZUJKAS_clean_linker_0, # of connection points: 2
#     Edge 51, Type (0, 0), BuildingBlock: ZUJKAS_clean_linker_0, # of connection points: 2
#     Edge 52, Type (0, 0), BuildingBlock: ZUJKAS_clean_linker_0, # of connection points: 2
#     Edge 53, Type (0, 0), BuildingBlock: ZUJKAS_clean_linker_0, # of connection points: 2
#     Edge 54, Type (0, 0), BuildingBlock: ZUJKAS_clean_linker_0, # of connection points: 2
#     Edge 55, Type (0, 0), BuildingBlock: ZUJKAS_clean_linker_0, # of connection points: 2
#     Edge 56, Type (0, 0), BuildingBlock: ZUJKAS_clean_linker_0, # of connection points: 2
#     Edge 57, Type (0, 0), BuildingBlock: ZUJKAS_clean_linker_0, # of connection points: 2
#     Edge 58, Type (0, 0), BuildingBlock: ZUJKAS_clean_linker_0, # of connection points: 2
#     Edge 59, Type (0, 0), BuildingBlock: ZUJKAS_clean_linker_0, # of connection points: 2
#     Edge 60, Type (0, 0), BuildingBlock: ZUJKAS_clean_linker_0, # of connection points: 2
#     Edge 61, Type (0, 0), BuildingBlock: ZUJKAS_clean_linker_0, # of connection points: 2
#     Edge 62, Type (0, 0), BuildingBlock: ZUJKAS_clean_linker_0, # of connection points: 2
#     Edge 63, Type (0, 0), BuildingBlock: ZUJKAS_clean_linker_0, # of connection points: 2
#     Edge 64, Type (0, 0), BuildingBlock: ZUJKAS_clean_linker_0, # of connection points: 2
#     Edge 65, Type (0, 0), BuildingBlock: ZUJKAS_clean_linker_0, # of connection points: 2
#     Edge 66, Type (0, 0), BuildingBlock: ZUJKAS_clean_linker_0, # of connection points: 2
#     Edge 67, Type (0, 0), BuildingBlock: ZUJKAS_clean_linker_0, # of connection points: 2
#     Edge 68, Type (0, 0), BuildingBlock: ZUJKAS_clean_linker_0, # of connection points: 2
#     Edge 69, Type (0, 0), BuildingBlock: ZUJKAS_clean_linker_0, # of connection points: 2
#     Edge 70, Type (0, 0), BuildingBlock: ZUJKAS_clean_linker_0, # of connection points: 2
#     Edge 71, Type (0, 0), BuildingBlock: ZUJKAS_clean_linker_0, # of connection points: 2
# Relax obj value: 0.318
# Max RMSD: 0.227
# Mean RMSD: 0.227
data_MOF--net-lta--node1-QUQFOY_clean_sbu_1--edge1-ZUJKAS_clean_linker_0
_symmetry_space_group_name_H-M    P1
_symmetry_Int_Tables_number       1
_symmetry_cell_setting            triclinic
loop_
_symmetry_equiv_pos_as_xyz
'x, y, z'
_cell_length_a     75.641347
_cell_length_b     75.669493
_cell_length_c     75.662037
_cell_angle_alpha  89.98367
_cell_angle_beta   90.015627
_cell_angle_gamma 90.010302
loop_
_atom_site_label
_atom_site_type_symbol
_atom_site_fract_x
_atom_site_fract_y
_atom_site_fract_z
_atom_type_partial_charge
O0 O 0.13354 0.31538 0.54826 0.0
Cd1 Cd 0.12893 0.29575 0.52995 0.0
Cd2 Cd 0.12464 0.32327 0.50639 0.0
O3 O 0.13361 0.33678 0.52843 0.0
O4 O 0.14241 0.27419 0.53638 0.0
O5 O 0.14767 0.29004 0.51224 0.0
C6 C 0.15144 0.27656 0.52207 0.0
C7 C 0.1318 0.33631 0.47917 0.0
C8 C 0.13571 0.33153 0.54426 0.0
C9 C 0.09354 0.2982 0.51387 0.0
O10 O 0.09972 0.31187 0.50629 0.0
O11 O 0.10322 0.28913 0.52415 0.0
O12 O 0.12037 0.34312 0.48972 0.0
O13 O 0.13965 0.322 0.48417 0.0
O14 O 0.67763 0.13198 0.54946 0.0
Cd15 Cd 0.69607 0.12493 0.53071 0.0
Cd16 Cd 0.66803 0.1251 0.50758 0.0
O17 O 0.65684 0.13695 0.52957 0.0
O18 O 0.71939 0.13586 0.53579 0.0
O19 O 0.70256 0.1433 0.5129 0.0
C20 C 0.71691 0.14554 0.52193 0.0
C21 C 0.65517 0.13276 0.48045 0.0
C22 C 0.66231 0.13756 0.54545 0.0
C23 C 0.68789 0.0904 0.51511 0.0
O24 O 0.67507 0.09864 0.50805 0.0
O25 O 0.69894 0.0986 0.5247 0.0
O26 O 0.64721 0.12293 0.49177 0.0
O27 O 0.67052 0.13892 0.48464 0.0
O28 O 0.86977 0.68192 0.54522 0.0
Cd29 Cd 0.87461 0.70129 0.52664 0.0
Cd30 Cd 0.88004 0.67311 0.50365 0.0
O31 O 0.87345 0.65979 0.52658 0.0
O32 O 0.86164 0.72316 0.53309 0.0
O33 O 0.85538 0.70702 0.50941 0.0
C34 C 0.85211 0.72068 0.51914 0.0
C35 C 0.87247 0.65855 0.47738 0.0
C36 C 0.86985 0.66543 0.542 0.0
C37 C 0.90992 0.69974 0.50976 0.0
O38 O 0.90392 0.68615 0.50196 0.0
O39 O 0.90037 0.70809 0.52074 0.0
O40 O 0.88525 0.65329 0.48725 0.0
O41 O 0.86349 0.67211 0.48251 0.0
O42 O 0.31905 0.86383 0.55233 0.0
Cd43 Cd 0.29966 0.86866 0.53374 0.0
Cd44 Cd 0.32746 0.87259 0.51067 0.0
O45 O 0.34091 0.86469 0.53308 0.0
O46 O 0.27797 0.85532 0.54006 0.0
O47 O 0.29407 0.84974 0.51619 0.0
C48 C 0.28052 0.84605 0.52595 0.0
C49 C 0.34044 0.86461 0.48369 0.0
C50 C 0.33539 0.86229 0.54877 0.0
C51 C 0.30248 0.90382 0.51708 0.0
O52 O 0.31613 0.89738 0.50974 0.0
O53 O 0.29328 0.89445 0.52755 0.0
O54 O 0.34731 0.87631 0.4939 0.0
O55 O 0.32616 0.85689 0.48895 0.0
O56 O 0.13291 0.67929 0.447 0.0
Cd57 Cd 0.12828 0.69849 0.46579 0.0
Cd58 Cd 0.12234 0.67031 0.48826 0.0
O59 O 0.12939 0.657 0.46547 0.0
O60 O 0.14229 0.7199 0.46001 0.0
O61 O 0.14692 0.70346 0.48386 0.0
C62 C 0.1511 0.71706 0.47437 0.0
C63 C 0.12969 0.65583 0.51464 0.0
C64 C 0.13294 0.66278 0.45009 0.0
C65 C 0.09274 0.69727 0.48192 0.0
O66 O 0.09843 0.68343 0.48954 0.0
O67 O 0.10261 0.70576 0.47132 0.0
O68 O 0.11707 0.65046 0.50461 0.0
O69 O 0.13857 0.66951 0.50963 0.0
O70 O 0.31625 0.12715 0.4445 0.0
Cd71 Cd 0.29731 0.12197 0.46343 0.0
Cd72 Cd 0.32554 0.11838 0.48593 0.0
O73 O 0.33843 0.12688 0.46341 0.0
O74 O 0.27537 0.13516 0.45767 0.0
O75 O 0.29199 0.14078 0.48119 0.0
C76 C 0.27821 0.14442 0.47173 0.0
C77 C 0.33857 0.12654 0.51283 0.0
C78 C 0.3326 0.12916 0.44782 0.0
C79 C 0.30102 0.08675 0.47976 0.0
O80 O 0.31478 0.09333 0.48678 0.0
O81 O 0.29138 0.09609 0.46966 0.0
O82 O 0.34567 0.1151 0.50247 0.0
O83 O 0.32403 0.13389 0.50776 0.0
O84 O 0.86943 0.31 0.45041 0.0
Cd85 Cd 0.87424 0.29095 0.46932 0.0
Cd86 Cd 0.87859 0.31945 0.49209 0.0
O87 O 0.87102 0.33228 0.46916 0.0
O88 O 0.86121 0.26894 0.46344 0.0
O89 O 0.85493 0.28581 0.48661 0.0
C90 C 0.85158 0.27193 0.47721 0.0
C91 C 0.87148 0.33414 0.51842 0.0
C92 C 0.86829 0.32644 0.45363 0.0
C93 C 0.9094 0.29372 0.48611 0.0
O94 O 0.90302 0.30738 0.49348 0.0
O95 O 0.90004 0.28467 0.47553 0.0
O96 O 0.88366 0.33971 0.50799 0.0
O97 O 0.86275 0.32024 0.51379 0.0
O98 O 0.6799 0.86281 0.44716 0.0
Cd99 Cd 0.69723 0.86915 0.46718 0.0
Cd100 Cd 0.66872 0.86789 0.48864 0.0
O101 O 0.65867 0.85619 0.46601 0.0
O102 O 0.72104 0.85912 0.46258 0.0
O103 O 0.70343 0.84999 0.48423 0.0
C104 C 0.71824 0.84865 0.47579 0.0
C105 C 0.65748 0.85713 0.5154 0.0
C106 C 0.66465 0.85654 0.45032 0.0
C107 C 0.68736 0.90319 0.4834 0.0
O108 O 0.67397 0.89481 0.48915 0.0
O109 O 0.69923 0.89516 0.47468 0.0
O110 O 0.64794 0.86617 0.50462 0.0
O111 O 0.67362 0.85385 0.51094 0.0
O112 O 0.55005 0.13212 0.31315 0.0
Cd113 Cd 0.53022 0.12709 0.29518 0.0
Cd114 Cd 0.50837 0.12604 0.32386 0.0
O115 O 0.53097 0.13716 0.33463 0.0
O116 O 0.53465 0.13936 0.27242 0.0
O117 O 0.51287 0.14647 0.29079 0.0
C118 C 0.52128 0.1493 0.27617 0.0
C119 C 0.48172 0.13428 0.33741 0.0
C120 C 0.5467 0.13732 0.32874 0.0
C121 C 0.51393 0.09247 0.3019 0.0
O122 O 0.50802 0.09984 0.31579 0.0
O123 O 0.52291 0.10132 0.29083 0.0
O124 O 0.49314 0.12438 0.34519 0.0
O125 O 0.48555 0.14002 0.32181 0.0
O126 O 0.86285 0.54285 0.3168 0.0
Cd127 Cd 0.86746 0.52403 0.29764 0.0
Cd128 Cd 0.87038 0.50101 0.3262 0.0
O129 O 0.86097 0.52352 0.33858 0.0
O130 O 0.8551 0.53099 0.27555 0.0
O131 O 0.84811 0.50719 0.2912 0.0
C132 C 0.84525 0.51719 0.27762 0.0
C133 C 0.86337 0.47436 0.34049 0.0
C134 C 0.85971 0.53928 0.3329 0.0
C135 C 0.90245 0.50744 0.302 0.0
O136 O 0.89569 0.50055 0.31576 0.0
O137 O 0.89322 0.51736 0.29209 0.0
O138 O 0.87427 0.48558 0.34709 0.0
O139 O 0.85592 0.47837 0.32567 0.0
O140 O 0.44767 0.86569 0.31928 0.0
Cd141 Cd 0.46643 0.87182 0.30049 0.0
Cd142 Cd 0.48901 0.87513 0.32863 0.0
O143 O 0.4664 0.86692 0.34159 0.0
O144 O 0.46071 0.8594 0.27812 0.0
O145 O 0.48446 0.85353 0.29432 0.0
C146 C 0.47495 0.85027 0.28048 0.0
C147 C 0.51564 0.86609 0.34163 0.0
C148 C 0.45092 0.86406 0.33568 0.0
C149 C 0.48254 0.90715 0.30477 0.0
O150 O 0.49019 0.90027 0.31804 0.0
O151 O 0.472 0.89802 0.29541 0.0
O152 O 0.50578 0.87803 0.34861 0.0
O153 O 0.5103 0.85886 0.32713 0.0
O154 O 0.1303 0.44652 0.31658 0.0
Cd155 Cd 0.12378 0.4654 0.29798 0.0
Cd156 Cd 0.11956 0.4872 0.32664 0.0
O157 O 0.12889 0.46481 0.33922 0.0
O158 O 0.13634 0.46009 0.27554 0.0
O159 O 0.1417 0.48386 0.29185 0.0
C160 C 0.14514 0.47452 0.27795 0.0
C161 C 0.12744 0.51429 0.33941 0.0
C162 C 0.13203 0.44952 0.33301 0.0
C163 C 0.08781 0.47999 0.30265 0.0
O164 O 0.09429 0.4873 0.31631 0.0
O165 O 0.09745 0.47036 0.29285 0.0
O166 O 0.11634 0.50374 0.34677 0.0
O167 O 0.13458 0.50933 0.32474 0.0
O168 O 0.5542 0.8665 0.68091 0.0
Cd169 Cd 0.53535 0.87309 0.69939 0.0
Cd170 Cd 0.5123 0.87531 0.67128 0.0
O171 O 0.53514 0.86677 0.65885 0.0
O172 O 0.54022 0.86132 0.72232 0.0
O173 O 0.51728 0.85475 0.7052 0.0
C174 C 0.52619 0.85198 0.71953 0.0
C175 C 0.48574 0.86646 0.65792 0.0
C176 C 0.55073 0.86428 0.66463 0.0
C177 C 0.51867 0.90802 0.69421 0.0
O178 O 0.51084 0.90063 0.68133 0.0
O179 O 0.52962 0.8994 0.70356 0.0
O180 O 0.49616 0.87778 0.65072 0.0
O181 O 0.49054 0.85965 0.67281 0.0
O182 O 0.13255 0.54899 0.68056 0.0
Cd183 Cd 0.12669 0.53158 0.70066 0.0
Cd184 Cd 0.12416 0.50666 0.67354 0.0
O185 O 0.13393 0.52834 0.65997 0.0
O186 O 0.13942 0.53834 0.72261 0.0
O187 O 0.14488 0.51374 0.7076 0.0
C188 C 0.14837 0.5239 0.72092 0.0
C189 C 0.13036 0.47935 0.66029 0.0
C190 C 0.13572 0.54435 0.66474 0.0
C191 C 0.09165 0.51539 0.69676 0.0
O192 O 0.0989 0.50706 0.68411 0.0
O193 O 0.10053 0.52632 0.70587 0.0
O194 O 0.11905 0.49018 0.65375 0.0
O195 O 0.13875 0.48406 0.67436 0.0
O196 O 0.44503 0.13087 0.67856 0.0
Cd197 Cd 0.46395 0.12648 0.69753 0.0
Cd198 Cd 0.48783 0.12497 0.6698 0.0
O199 O 0.4644 0.13078 0.65676 0.0
O200 O 0.45833 0.13927 0.7197 0.0
O201 O 0.48096 0.14608 0.70225 0.0
C202 C 0.47184 0.14919 0.71639 0.0
C203 C 0.51342 0.13433 0.65501 0.0
C204 C 0.44858 0.13247 0.66223 0.0
C205 C 0.48375 0.09315 0.69475 0.0
O206 O 0.49154 0.10079 0.68199 0.0
O207 O 0.47136 0.10089 0.703 0.0
O208 O 0.50391 0.12144 0.64938 0.0
O209 O 0.50825 0.14243 0.6691 0.0
O210 O 0.86695 0.45026 0.67901 0.0
Cd211 Cd 0.87108 0.47025 0.69705 0.0
Cd212 Cd 0.87314 0.4919 0.66813 0.0
O213 O 0.86339 0.46893 0.6569 0.0
O214 O 0.85916 0.46449 0.7197 0.0
O215 O 0.85091 0.48653 0.70217 0.0
C216 C 0.84858 0.4775 0.71651 0.0
C217 C 0.86383 0.51806 0.65438 0.0
C218 C 0.8629 0.45329 0.66301 0.0
C219 C 0.90582 0.48728 0.69137 0.0
O220 O 0.89902 0.49306 0.67712 0.0
O221 O 0.8966 0.47818 0.70204 0.0
O222 O 0.87446 0.50719 0.64681 0.0
O223 O 0.85816 0.51408 0.66997 0.0
O224 O 0.31566 0.55021 0.13382 0.0
Cd225 Cd 0.29711 0.53106 0.12815 0.0
Cd226 Cd 0.32538 0.50844 0.12726 0.0
O227 O 0.33705 0.53082 0.1378 0.0
O228 O 0.27429 0.5371 0.13961 0.0
O229 O 0.29053 0.51384 0.14707 0.0
C230 C 0.27651 0.52333 0.14947 0.0
C231 C 0.33807 0.48167 0.13636 0.0
C232 C 0.33141 0.54662 0.1384 0.0
C233 C 0.30401 0.51471 0.09344 0.0
O234 O 0.31749 0.50811 0.10102 0.0
O235 O 0.29323 0.5242 0.10212 0.0
O236 O 0.34632 0.4926 0.12631 0.0
O237 O 0.3224 0.48593 0.14159 0.0
O238 O 0.31932 0.45097 0.86489 0.0
Cd239 Cd 0.30097 0.4701 0.87136 0.0
Cd240 Cd 0.33019 0.49169 0.87484 0.0
O241 O 0.34218 0.46905 0.86543 0.0
O242 O 0.27821 0.46423 0.85964 0.0
O243 O 0.29416 0.48793 0.85302 0.0
C244 C 0.28026 0.47835 0.85026 0.0
C245 C 0.34376 0.51848 0.86712 0.0
C246 C 0.33575 0.45376 0.86274 0.0
C247 C 0.30674 0.48496 0.90711 0.0
O248 O 0.32042 0.49192 0.90029 0.0
O249 O 0.29647 0.47555 0.89773 0.0
O250 O 0.35092 0.50752 0.87796 0.0
O251 O 0.32884 0.51408 0.86011 0.0
O252 O 0.54795 0.31362 0.86609 0.0
Cd253 Cd 0.52839 0.29518 0.87072 0.0
Cd254 Cd 0.50649 0.32379 0.87527 0.0
O255 O 0.52953 0.33616 0.86739 0.0
O256 O 0.53345 0.2732 0.85737 0.0
O257 O 0.51095 0.29106 0.85131 0.0
C258 C 0.51982 0.27689 0.84776 0.0
C259 C 0.48024 0.33792 0.86679 0.0
C260 C 0.54498 0.33009 0.86474 0.0
C261 C 0.5116 0.29806 0.90596 0.0
O262 O 0.50486 0.31221 0.89992 0.0
O263 O 0.52167 0.28871 0.89633 0.0
O264 O 0.49055 0.34436 0.87866 0.0
O265 O 0.48493 0.32333 0.85929 0.0
O266 O 0.67899 0.54526 0.86388 0.0
Cd267 Cd 0.69686 0.52536 0.86901 0.0
Cd268 Cd 0.66824 0.50373 0.86949 0.0
O269 O 0.65725 0.52647 0.85895 0.0
O270 O 0.71994 0.53062 0.85767 0.0
O271 O 0.70235 0.50865 0.84933 0.0
C272 C 0.71684 0.51749 0.8472 0.0
C273 C 0.65578 0.47711 0.85969 0.0
C274 C 0.66326 0.54215 0.85887 0.0
C275 C 0.68931 0.50884 0.90351 0.0
O276 O 0.67552 0.50297 0.89589 0.0
O277 O 0.70057 0.51779 0.89486 0.0
O278 O 0.64725 0.48794 0.86962 0.0
O279 O 0.67157 0.48146 0.85492 0.0
O280 O 0.45071 0.68432 0.86736 0.0
Cd281 Cd 0.46928 0.70349 0.87256 0.0
Cd282 Cd 0.4929 0.67563 0.87601 0.0
O283 O 0.46992 0.66243 0.869 0.0
O284 O 0.46356 0.7257 0.85985 0.0
O285 O 0.48688 0.70897 0.85366 0.0
C286 C 0.47755 0.72294 0.85045 0.0
C287 C 0.5191 0.66102 0.86825 0.0
C288 C 0.45426 0.66795 0.86627 0.0
C289 C 0.48686 0.70088 0.90724 0.0
O290 O 0.49496 0.68789 0.90034 0.0
O291 O 0.47526 0.70924 0.89848 0.0
O292 O 0.50903 0.6555 0.88076 0.0
O293 O 0.51418 0.67487 0.8596 0.0
O294 O 0.67598 0.44528 0.13116 0.0
Cd295 Cd 0.69449 0.46436 0.12522 0.0
Cd296 Cd 0.66614 0.48708 0.12376 0.0
O297 O 0.65447 0.46471 0.13431 0.0
O298 O 0.71728 0.45877 0.13701 0.0
O299 O 0.70079 0.48207 0.14377 0.0
C300 C 0.71487 0.47276 0.14651 0.0
C301 C 0.65279 0.51369 0.13241 0.0
C302 C 0.66016 0.44894 0.13537 0.0
C303 C 0.68793 0.4803 0.09025 0.0
O304 O 0.67457 0.48729 0.09768 0.0
O305 O 0.69844 0.47064 0.09908 0.0
O306 O 0.64506 0.50266 0.12206 0.0
O307 O 0.66834 0.50965 0.13813 0.0
O308 O 0.54833 0.6811 0.13295 0.0
Cd309 Cd 0.53137 0.70166 0.12767 0.0
Cd310 Cd 0.50583 0.67548 0.12329 0.0
O311 O 0.52802 0.6605 0.12925 0.0
O312 O 0.53831 0.72292 0.14136 0.0
O313 O 0.51337 0.70811 0.14585 0.0
C314 C 0.52367 0.72113 0.14998 0.0
C315 C 0.47888 0.66187 0.13042 0.0
C316 C 0.54386 0.66492 0.13279 0.0
C317 C 0.5137 0.70154 0.09306 0.0
O318 O 0.50431 0.68938 0.09982 0.0
O319 O 0.52642 0.70827 0.10171 0.0
O320 O 0.48849 0.65665 0.11744 0.0
O321 O 0.48466 0.67483 0.13987 0.0
O322 O 0.44245 0.31492 0.12782 0.0
Cd323 Cd 0.46088 0.29539 0.12314 0.0
Cd324 Cd 0.48428 0.32281 0.11811 0.0
O325 O 0.46168 0.33664 0.12484 0.0
O326 O 0.45537 0.27391 0.13716 0.0
O327 O 0.4788 0.29094 0.14203 0.0
C328 C 0.4695 0.27719 0.14618 0.0
C329 C 0.51102 0.33639 0.12582 0.0
C330 C 0.44606 0.33132 0.12809 0.0
C331 C 0.47783 0.29651 0.08801 0.0
O332 O 0.48574 0.30999 0.09413 0.0
O333 O 0.46668 0.28825 0.09746 0.0
O334 O 0.50125 0.34221 0.1132 0.0
O335 O 0.50547 0.32288 0.13462 0.0
H336 H 0.1392 0.45207 0.36826 0.0
H337 H 0.14485 0.42816 0.38904 0.0
H338 H 0.14185 0.39023 0.34662 0.0
H339 H 0.13597 0.41419 0.3256 0.0
H340 H 0.12052 0.38174 0.37452 0.0
H341 H 0.18745 0.39713 0.39926 0.0
H342 H 0.17337 0.41618 0.40013 0.0
H343 H 0.17879 0.4065 0.37906 0.0
C344 C 0.13998 0.43869 0.36324 0.0
C345 C 0.13706 0.43506 0.34525 0.0
C346 C 0.1434 0.42503 0.37515 0.0
C347 C 0.14409 0.40743 0.36935 0.0
C348 C 0.14156 0.40375 0.35133 0.0
H349 H 0.15729 0.3278 0.45457 0.0
H350 H 0.16218 0.34203 0.42569 0.0
C351 C 0.13818 0.41745 0.33936 0.0
C352 C 0.14546 0.39297 0.3825 0.0
H353 H 0.16854 0.38035 0.4192 0.0
C354 C 0.13125 0.38114 0.38402 0.0
C355 C 0.15956 0.39199 0.39476 0.0
C356 C 0.17574 0.40352 0.39311 0.0
C357 C 0.13007 0.36938 0.3983 0.0
C358 C 0.14335 0.3696 0.41144 0.0
C359 C 0.15827 0.38037 0.40918 0.0
C360 C 0.1407 0.36067 0.42863 0.0
C361 C 0.11421 0.35737 0.39966 0.0
C362 C 0.12726 0.36668 0.43984 0.0
C363 C 0.12455 0.35877 0.45624 0.0
C364 C 0.13523 0.34462 0.46181 0.0
C365 C 0.14883 0.33864 0.45061 0.0
C366 C 0.15163 0.34673 0.43415 0.0
H367 H 0.10814 0.35498 0.3865 0.0
H368 H 0.11787 0.34448 0.40564 0.0
H369 H 0.10411 0.36369 0.40822 0.0
H370 H 0.11888 0.37762 0.43592 0.0
H371 H 0.11398 0.36374 0.46451 0.0
H372 H 0.63098 0.11231 0.46408 0.0
H373 H 0.61596 0.11771 0.43621 0.0
H374 H 0.64483 0.16652 0.42989 0.0
H375 H 0.66064 0.16068 0.45772 0.0
H376 H 0.59433 0.14372 0.42935 0.0
H377 H 0.64965 0.14579 0.38108 0.0
H378 H 0.65247 0.13795 0.40343 0.0
H379 H 0.65139 0.16126 0.399 0.0
C380 C 0.63427 0.12414 0.45671 0.0
C381 C 0.6469 0.13613 0.4631 0.0
C382 C 0.62568 0.12721 0.44075 0.0
C383 C 0.62928 0.14248 0.43087 0.0
C384 C 0.64207 0.15447 0.43709 0.0
H385 H 0.5467 0.16403 0.35269 0.0
H386 H 0.56847 0.16932 0.37605 0.0
C387 C 0.651 0.15119 0.45302 0.0
C388 C 0.61864 0.146 0.41474 0.0
H389 H 0.62094 0.15103 0.36991 0.0
C390 C 0.60017 0.1454 0.41635 0.0
C391 C 0.62627 0.14813 0.3978 0.0
C392 C 0.64603 0.14818 0.39511 0.0
C393 C 0.58911 0.146 0.40153 0.0
C394 C 0.59667 0.14823 0.38454 0.0
C395 C 0.61515 0.14948 0.38294 0.0
C396 C 0.58563 0.14777 0.3683 0.0
C397 C 0.56952 0.14315 0.40426 0.0
C398 C 0.58883 0.13494 0.35525 0.0
C399 C 0.57674 0.13236 0.34149 0.0
C400 C 0.56112 0.14236 0.34082 0.0
C401 C 0.55854 0.15599 0.35313 0.0
C402 C 0.57089 0.15892 0.36653 0.0
H403 H 0.56667 0.13686 0.41722 0.0
H404 H 0.56265 0.1561 0.40403 0.0
H405 H 0.56385 0.13467 0.39372 0.0
H406 H 0.60018 0.12626 0.35624 0.0
H407 H 0.579 0.12177 0.33213 0.0
H408 H 0.89554 0.63977 0.45768 0.0
H409 H 0.88949 0.62222 0.43141 0.0
H410 H 0.83459 0.63763 0.43356 0.0
H411 H 0.84085 0.65602 0.45961 0.0
H412 H 0.86919 0.59442 0.43025 0.0
H413 H 0.84423 0.64333 0.38159 0.0
H414 H 0.85494 0.6498 0.40189 0.0
H415 H 0.83218 0.64294 0.40202 0.0
C416 C 0.88222 0.63963 0.45243 0.0
C417 C 0.86864 0.64917 0.46071 0.0
C418 C 0.87877 0.62959 0.4374 0.0
C419 C 0.86161 0.62862 0.43042 0.0
C420 C 0.84802 0.63844 0.43845 0.0
H421 H 0.84063 0.53701 0.36333 0.0
H422 H 0.83779 0.55946 0.3864 0.0
C423 C 0.85157 0.64884 0.45339 0.0
C424 C 0.85804 0.61617 0.41565 0.0
H425 H 0.84297 0.61314 0.37317 0.0
C426 C 0.86343 0.59854 0.41778 0.0
C427 C 0.85062 0.62155 0.39934 0.0
C428 C 0.8453 0.64046 0.39595 0.0
C429 C 0.86212 0.58628 0.40398 0.0
C430 C 0.85441 0.59153 0.38775 0.0
C431 C 0.84869 0.60908 0.38568 0.0
C432 C 0.85323 0.57918 0.37255 0.0
C433 C 0.86982 0.56806 0.40676 0.0
C434 C 0.8617 0.58326 0.35653 0.0
C435 C 0.86291 0.5706 0.34311 0.0
C436 C 0.85587 0.55359 0.34561 0.0
C437 C 0.84644 0.54992 0.36118 0.0
C438 C 0.84489 0.5627 0.3744 0.0
H439 H 0.87948 0.56785 0.41782 0.0
H440 H 0.85903 0.55871 0.4101 0.0
H441 H 0.87657 0.56325 0.39466 0.0
H442 H 0.86812 0.59593 0.35475 0.0
H443 H 0.87022 0.57379 0.33122 0.0
H444 H 0.3681 0.88179 0.46868 0.0
H445 H 0.38137 0.8767 0.43986 0.0
H446 H 0.34491 0.83397 0.43024 0.0
H447 H 0.33127 0.83907 0.45937 0.0
H448 H 0.38347 0.8274 0.42297 0.0
H449 H 0.3571 0.88774 0.39095 0.0
H450 H 0.36617 0.89165 0.41255 0.0
H451 H 0.34698 0.87782 0.4102 0.0
C452 C 0.36283 0.87128 0.46051 0.0
C453 C 0.34858 0.86085 0.46631 0.0
C454 C 0.37039 0.86846 0.44399 0.0
C455 C 0.36394 0.85515 0.43287 0.0
C456 C 0.34994 0.84442 0.43864 0.0
H457 H 0.41544 0.86023 0.32884 0.0
H458 H 0.39183 0.85429 0.35023 0.0
C459 C 0.3422 0.84734 0.45523 0.0
C460 C 0.3724 0.85251 0.41546 0.0
H461 H 0.38361 0.87548 0.37835 0.0
C462 C 0.3832 0.83766 0.41296 0.0
C463 C 0.37181 0.8658 0.40235 0.0
C464 C 0.35975 0.88159 0.40402 0.0
C465 C 0.39452 0.83648 0.3983 0.0
C466 C 0.39516 0.85061 0.38606 0.0
C467 C 0.38326 0.86473 0.38783 0.0
C468 C 0.4094 0.85215 0.37269 0.0
C469 C 0.40613 0.82039 0.39639 0.0
C470 C 0.42708 0.85296 0.37824 0.0
C471 C 0.44054 0.85642 0.36613 0.0
C472 C 0.43662 0.85926 0.34818 0.0
C473 C 0.41892 0.85808 0.34256 0.0
C474 C 0.40541 0.85467 0.35474 0.0
H475 H 0.39993 0.80862 0.40261 0.0
H476 H 0.40887 0.81742 0.38228 0.0
H477 H 0.4189 0.82282 0.4032 0.0
H478 H 0.43044 0.85154 0.39209 0.0
H479 H 0.454 0.85724 0.37095 0.0
H480 H 0.15696 0.53974 0.63614 0.0
H481 H 0.16255 0.56069 0.6122 0.0
H482 H 0.1299 0.59937 0.63854 0.0
H483 H 0.12526 0.5788 0.66301 0.0
H484 H 0.14011 0.57164 0.59049 0.0
H485 H 0.16742 0.6314 0.62188 0.0
H486 H 0.16573 0.61068 0.63356 0.0
H487 H 0.14706 0.62548 0.6324 0.0
C488 C 0.15135 0.55288 0.63699 0.0
C489 C 0.14068 0.55768 0.65139 0.0
C490 C 0.15454 0.56486 0.62331 0.0
C491 C 0.14682 0.58175 0.62355 0.0
C492 C 0.1365 0.58669 0.63821 0.0
H493 H 0.1075 0.63444 0.53278 0.0
H494 H 0.11373 0.61728 0.55927 0.0
C495 C 0.1337 0.57485 0.65214 0.0
C496 C 0.14768 0.59319 0.60757 0.0
H497 H 0.15262 0.6359 0.59365 0.0
C498 C 0.1432 0.58562 0.59122 0.0
C499 C 0.15198 0.61141 0.60827 0.0
C500 C 0.15851 0.62013 0.62496 0.0
C501 C 0.14208 0.59582 0.57582 0.0
C502 C 0.14476 0.6143 0.57686 0.0
C503 C 0.15018 0.62179 0.59294 0.0
C504 C 0.14089 0.62601 0.56161 0.0
C505 C 0.13792 0.58663 0.5586 0.0
C506 C 0.15378 0.63745 0.55467 0.0
C507 C 0.15011 0.64763 0.53961 0.0
C508 C 0.13354 0.64638 0.53129 0.0
C509 C 0.12051 0.63543 0.5387 0.0
C510 C 0.12407 0.62554 0.5538 0.0
H511 H 0.14248 0.57267 0.5588 0.0
H512 H 0.12339 0.58651 0.55657 0.0
H513 H 0.14419 0.59343 0.54721 0.0
H514 H 0.16679 0.63815 0.56062 0.0
H515 H 0.16036 0.65604 0.53421 0.0
H516 H 0.36699 0.11021 0.52741 0.0
H517 H 0.38035 0.11552 0.55617 0.0
H518 H 0.3425 0.15682 0.5665 0.0
H519 H 0.32878 0.15152 0.53745 0.0
H520 H 0.38063 0.16481 0.57361 0.0
H521 H 0.35708 0.10301 0.60508 0.0
H522 H 0.3663 0.09975 0.58344 0.0
H523 H 0.34648 0.11263 0.58594 0.0
C524 C 0.36143 0.12045 0.53573 0.0
C525 C 0.34677 0.13042 0.53016 0.0
C526 C 0.36905 0.12339 0.55222 0.0
C527 C 0.36224 0.13636 0.56352 0.0
C528 C 0.34782 0.14664 0.55797 0.0
H529 H 0.41278 0.13409 0.66819 0.0
H530 H 0.38934 0.13834 0.64621 0.0
C531 C 0.34004 0.14361 0.54141 0.0
C532 C 0.37073 0.13915 0.58089 0.0
H533 H 0.38283 0.1165 0.61794 0.0
C534 C 0.38082 0.15446 0.58354 0.0
C535 C 0.37073 0.12573 0.5939 0.0
C536 C 0.35943 0.10941 0.59207 0.0
C537 C 0.392 0.15609 0.59827 0.0
C538 C 0.39321 0.14195 0.61045 0.0
C539 C 0.38205 0.12726 0.6085 0.0
C540 C 0.40725 0.14116 0.6241 0.0
C541 C 0.40282 0.17271 0.60036 0.0
C542 C 0.42505 0.14124 0.61893 0.0
C543 C 0.43843 0.13874 0.63138 0.0
C544 C 0.43429 0.136 0.64929 0.0
C545 C 0.41643 0.13619 0.65451 0.0
C546 C 0.40302 0.13864 0.64199 0.0
H547 H 0.39622 0.18417 0.59397 0.0
H548 H 0.40513 0.17583 0.61451 0.0
H549 H 0.41582 0.17084 0.59384 0.0
H550 H 0.42861 0.14269 0.60514 0.0
H551 H 0.45201 0.13865 0.62686 0.0
H552 H 0.87521 0.41935 0.66419 0.0
H553 H 0.8724 0.39688 0.64101 0.0
H554 H 0.83779 0.43143 0.61167 0.0
H555 H 0.84129 0.45421 0.63431 0.0
H556 H 0.84671 0.37823 0.62438 0.0
H557 H 0.87769 0.42527 0.57741 0.0
H558 H 0.87623 0.42971 0.60074 0.0
H559 H 0.85742 0.43339 0.58661 0.0
C560 C 0.8668 0.42202 0.65291 0.0
C561 C 0.85873 0.43861 0.65085 0.0
C562 C 0.86519 0.40918 0.63968 0.0
C563 C 0.85529 0.41268 0.62436 0.0
C564 C 0.84596 0.42866 0.62309 0.0
H565 H 0.84083 0.33535 0.53797 0.0
H566 H 0.83533 0.35345 0.56441 0.0
C567 C 0.8479 0.44163 0.63607 0.0
C568 C 0.85602 0.40037 0.6091 0.0
H569 H 0.86787 0.39822 0.56566 0.0
C570 C 0.85132 0.38256 0.61151 0.0
C571 C 0.86229 0.406 0.59238 0.0
C572 C 0.86887 0.42458 0.58914 0.0
C573 C 0.85285 0.37021 0.59769 0.0
C574 C 0.85884 0.37596 0.58092 0.0
C575 C 0.86321 0.39382 0.57849 0.0
C576 C 0.86204 0.3637 0.56593 0.0
C577 C 0.84869 0.35106 0.60135 0.0
C578 C 0.87877 0.36353 0.55792 0.0
C579 C 0.88175 0.35366 0.5427 0.0
C580 C 0.86815 0.34348 0.53522 0.0
C581 C 0.85155 0.34304 0.54354 0.0
C582 C 0.84845 0.35326 0.5587 0.0
H583 H 0.84863 0.34815 0.61575 0.0
H584 H 0.83537 0.34793 0.59606 0.0
H585 H 0.8584 0.34222 0.59481 0.0
H586 H 0.88949 0.37139 0.56327 0.0
H587 H 0.89474 0.35411 0.53668 0.0
H588 H 0.5859 0.85793 0.67156 0.0
H589 H 0.60914 0.85059 0.65017 0.0
H590 H 0.57077 0.85195 0.60802 0.0
H591 H 0.54755 0.85894 0.62914 0.0
H592 H 0.59395 0.823 0.60608 0.0
H593 H 0.63003 0.88661 0.61531 0.0
H594 H 0.62635 0.87324 0.63461 0.0
H595 H 0.60791 0.88331 0.6236 0.0
C596 C 0.58241 0.85658 0.65774 0.0
C597 C 0.56487 0.85915 0.65206 0.0
C598 C 0.59572 0.85245 0.64554 0.0
C599 C 0.5917 0.85093 0.62749 0.0
C600 C 0.57416 0.85306 0.6219 0.0
H601 H 0.62284 0.85366 0.52377 0.0
H602 H 0.61003 0.84813 0.55278 0.0
C603 C 0.5609 0.85713 0.63402 0.0
C604 C 0.6056 0.84772 0.61407 0.0
H605 H 0.63901 0.86847 0.59194 0.0
C606 C 0.60405 0.83276 0.6032 0.0
C607 C 0.61885 0.86041 0.61041 0.0
C608 C 0.62093 0.87687 0.62148 0.0
C609 C 0.61466 0.83071 0.58815 0.0
C610 C 0.62701 0.84402 0.58379 0.0
C611 C 0.62951 0.85829 0.59536 0.0
C612 C 0.63518 0.84497 0.56605 0.0
C613 C 0.61206 0.81469 0.57658 0.0
C614 C 0.65361 0.84497 0.56387 0.0
C615 C 0.66102 0.84803 0.54716 0.0
C616 C 0.65006 0.85151 0.53255 0.0
C617 C 0.63163 0.85104 0.53477 0.0
C618 C 0.62428 0.84776 0.55133 0.0
H619 H 0.60663 0.8034 0.58425 0.0
H620 H 0.60249 0.81793 0.56595 0.0
H621 H 0.62468 0.81057 0.57032 0.0
H622 H 0.66223 0.84302 0.57514 0.0
H623 H 0.67527 0.84843 0.54583 0.0
H624 H 0.32617 0.13138 0.4121 0.0
H625 H 0.34779 0.13686 0.38856 0.0
H626 H 0.38896 0.14246 0.42758 0.0
H627 H 0.3676 0.13717 0.45109 0.0
H628 H 0.38986 0.1683 0.39952 0.0
H629 H 0.38526 0.09877 0.37549 0.0
H630 H 0.36507 0.11125 0.37697 0.0
H631 H 0.37674 0.10538 0.39676 0.0
C632 C 0.3398 0.13393 0.41567 0.0
C633 C 0.34518 0.13366 0.43348 0.0
C634 C 0.35212 0.13702 0.4022 0.0
C635 C 0.36998 0.1399 0.40635 0.0
C636 C 0.37523 0.14027 0.42411 0.0
H637 H 0.47175 0.125 0.3706 0.0
H638 H 0.44292 0.12875 0.3844 0.0
C639 C 0.36299 0.13715 0.43754 0.0
C640 C 0.3836 0.14146 0.39239 0.0
H641 H 0.40757 0.11653 0.36343 0.0
C642 C 0.3935 0.15714 0.3913 0.0
C643 C 0.38836 0.12681 0.38181 0.0
C644 C 0.37843 0.10953 0.38278 0.0
C645 C 0.40853 0.15824 0.38047 0.0
C646 C 0.41374 0.14332 0.37059 0.0
C647 C 0.40336 0.12797 0.37097 0.0
C648 C 0.43129 0.14235 0.36214 0.0
C649 C 0.41944 0.17492 0.38042 0.0
C650 C 0.43428 0.14899 0.34508 0.0
C651 C 0.45087 0.14687 0.33706 0.0
C652 C 0.46457 0.13803 0.34603 0.0
C653 C 0.46151 0.13182 0.36328 0.0
C654 C 0.44504 0.13394 0.37121 0.0
H655 H 0.41311 0.18571 0.38809 0.0
H656 H 0.43266 0.17214 0.38618 0.0
H657 H 0.42151 0.17947 0.36662 0.0
H658 H 0.42374 0.1555 0.33791 0.0
H659 H 0.45283 0.15177 0.32375 0.0
H660 H 0.86463 0.31976 0.41808 0.0
H661 H 0.85936 0.34134 0.39445 0.0
H662 H 0.85735 0.38319 0.43304 0.0
H663 H 0.86244 0.36188 0.45665 0.0
H664 H 0.83034 0.38484 0.40609 0.0
H665 H 0.89849 0.37689 0.37917 0.0
H666 H 0.88522 0.35729 0.3815 0.0
H667 H 0.89244 0.36896 0.40084 0.0
C668 C 0.86294 0.33354 0.42155 0.0
C669 C 0.86412 0.3391 0.43926 0.0
C670 C 0.85996 0.34583 0.40802 0.0
C671 C 0.85812 0.36385 0.41202 0.0
C672 C 0.85872 0.36934 0.4297 0.0
H673 H 0.87814 0.46324 0.37122 0.0
H674 H 0.87463 0.43479 0.3858 0.0
C675 C 0.86173 0.35712 0.44317 0.0
C676 C 0.85654 0.37734 0.39792 0.0
H677 H 0.88114 0.39965 0.36738 0.0
C678 C 0.84127 0.38787 0.39732 0.0
C679 C 0.8709 0.38129 0.38662 0.0
C680 C 0.88777 0.37063 0.38702 0.0
C681 C 0.8403 0.40276 0.38626 0.0
C682 C 0.85497 0.40713 0.37559 0.0
C683 C 0.86988 0.39612 0.37553 0.0
C684 C 0.85624 0.4244 0.36655 0.0
C685 C 0.82411 0.41437 0.38681 0.0
C686 C 0.84692 0.42799 0.35091 0.0
C687 C 0.84892 0.44437 0.34243 0.0
C688 C 0.86025 0.4573 0.34954 0.0
C689 C 0.86931 0.45361 0.36535 0.0
C690 C 0.86736 0.43734 0.37371 0.0
H691 H 0.81398 0.40936 0.39619 0.0
H692 H 0.8279 0.42799 0.39076 0.0
H693 H 0.81815 0.41514 0.37343 0.0
H694 H 0.83833 0.41808 0.34518 0.0
H695 H 0.8418 0.44681 0.33025 0.0
H696 H 0.53663 0.837 0.33535 0.0
H697 H 0.56369 0.82859 0.35138 0.0
H698 H 0.55983 0.87608 0.38264 0.0
H699 H 0.53285 0.88425 0.36721 0.0
H700 H 0.59623 0.84507 0.35621 0.0
H701 H 0.5619 0.83794 0.42012 0.0
H702 H 0.55012 0.83947 0.39944 0.0
H703 H 0.55748 0.85918 0.41061 0.0
C704 C 0.54161 0.8456 0.34565 0.0
C705 C 0.53248 0.86114 0.35022 0.0
C706 C 0.55704 0.8408 0.35476 0.0
C707 C 0.5635 0.8515 0.36849 0.0
C708 C 0.55479 0.86736 0.37246 0.0
H709 H 0.66181 0.87115 0.41755 0.0
H710 H 0.63845 0.86569 0.39593 0.0
C711 C 0.53938 0.87205 0.36356 0.0
C712 C 0.57922 0.84636 0.379 0.0
H713 H 0.59323 0.84367 0.42166 0.0
C714 C 0.5956 0.84439 0.37051 0.0
C715 C 0.57832 0.84495 0.39761 0.0
C716 C 0.56096 0.84529 0.40744 0.0
C717 C 0.61129 0.84232 0.38029 0.0
C718 C 0.61057 0.84279 0.39901 0.0
C719 C 0.59399 0.84353 0.40735 0.0
C720 C 0.62661 0.84393 0.41035 0.0
C721 C 0.62842 0.83977 0.37041 0.0
C722 C 0.62784 0.83362 0.42576 0.0
C723 C 0.64079 0.8372 0.43843 0.0
C724 C 0.65303 0.85088 0.43574 0.0
C725 C 0.65264 0.86039 0.41982 0.0
C726 C 0.63936 0.85714 0.40736 0.0
H727 H 0.62614 0.83263 0.35778 0.0
H728 H 0.63406 0.85289 0.36707 0.0
H729 H 0.63822 0.83228 0.37836 0.0
H730 H 0.61823 0.82334 0.42842 0.0
H731 H 0.64088 0.82964 0.45059 0.0
H732 H 0.13809 0.62725 0.45316 0.0
H733 H 0.1424 0.6058 0.42956 0.0
H734 H 0.14066 0.6476 0.39086 0.0
H735 H 0.13623 0.66933 0.41451 0.0
H736 H 0.11787 0.61962 0.38356 0.0
H737 H 0.18489 0.59439 0.3981 0.0
H738 H 0.17112 0.5946 0.4174 0.0
H739 H 0.1768 0.61512 0.40678 0.0
C740 C 0.13882 0.63197 0.43966 0.0
C741 C 0.13676 0.65002 0.43573 0.0
C742 C 0.14146 0.61968 0.42619 0.0
C743 C 0.14217 0.62514 0.40849 0.0
C744 C 0.14036 0.64316 0.40447 0.0
H745 H 0.15243 0.53892 0.32961 0.0
H746 H 0.1578 0.56794 0.34334 0.0
C747 C 0.13781 0.65553 0.41799 0.0
C748 C 0.14303 0.61168 0.39429 0.0
H749 H 0.16554 0.5746 0.38186 0.0
C750 C 0.12851 0.61003 0.38287 0.0
C751 C 0.15701 0.5993 0.39324 0.0
C752 C 0.17342 0.60103 0.40442 0.0
C753 C 0.12693 0.59552 0.37145 0.0
C754 C 0.14015 0.58233 0.37157 0.0
C755 C 0.15535 0.58468 0.38193 0.0
C756 C 0.13723 0.56503 0.36298 0.0
C757 C 0.11074 0.59397 0.35992 0.0
C758 C 0.12415 0.55379 0.36971 0.0
C759 C 0.12119 0.53731 0.36209 0.0
C760 C 0.13123 0.53169 0.34751 0.0
C761 C 0.14446 0.54291 0.3408 0.0
C762 C 0.14753 0.55945 0.3486 0.0
H763 H 0.10447 0.60705 0.35764 0.0
H764 H 0.11408 0.58796 0.34695 0.0
H765 H 0.10092 0.58533 0.36656 0.0
H766 H 0.11624 0.55778 0.38097 0.0
H767 H 0.11089 0.52902 0.36761 0.0
H768 H 0.32942 0.85935 0.58451 0.0
H769 H 0.35155 0.85515 0.60784 0.0
H770 H 0.39263 0.85234 0.56845 0.0
H771 H 0.37076 0.85631 0.54514 0.0
H772 H 0.39594 0.82692 0.59629 0.0
H773 H 0.386 0.89569 0.62078 0.0
H774 H 0.36687 0.88162 0.61971 0.0
H775 H 0.37758 0.88844 0.59968 0.0
C776 C 0.34314 0.85766 0.58081 0.0
C777 C 0.34833 0.85836 0.56295 0.0
C778 C 0.35576 0.8553 0.59416 0.0
C779 C 0.37373 0.85363 0.58985 0.0
C780 C 0.37882 0.85361 0.57204 0.0
H781 H 0.47304 0.87956 0.62704 0.0
H782 H 0.44439 0.87415 0.61346 0.0
C783 C 0.36628 0.85597 0.55873 0.0
C784 C 0.38757 0.85308 0.60369 0.0
H785 H 0.40967 0.8797 0.63265 0.0
C786 C 0.39874 0.83828 0.60456 0.0
C787 C 0.39122 0.86801 0.61434 0.0
C788 C 0.3799 0.88442 0.61361 0.0
C789 C 0.41397 0.83835 0.61521 0.0
C790 C 0.41802 0.85359 0.62518 0.0
C791 C 0.40638 0.86801 0.62503 0.0
C792 C 0.43549 0.85595 0.63361 0.0
C793 C 0.42624 0.82266 0.6149 0.0
C794 C 0.44 0.84736 0.64942 0.0
C795 C 0.4565 0.85045 0.65732 0.0
C796 C 0.46863 0.86216 0.64946 0.0
C797 C 0.46405 0.87047 0.63348 0.0
C798 C 0.44765 0.86744 0.62569 0.0
H799 H 0.42142 0.81199 0.60604 0.0
H800 H 0.43958 0.82686 0.61043 0.0
H801 H 0.42763 0.81723 0.62846 0.0
H802 H 0.43069 0.8385 0.65574 0.0
H803 H 0.45964 0.84389 0.66965 0.0
H804 H 0.10562 0.45972 0.64386 0.0
H805 H 0.10978 0.43256 0.62713 0.0
H806 H 0.16547 0.4333 0.63962 0.0
H807 H 0.16107 0.46019 0.65733 0.0
H808 H 0.12799 0.42996 0.5985 0.0
H809 H 0.1552 0.3819 0.64673 0.0
H810 H 0.1456 0.40268 0.65342 0.0
H811 H 0.16787 0.40189 0.64509 0.0
C812 C 0.1187 0.45391 0.6433 0.0
C813 C 0.13305 0.46203 0.6518 0.0
C814 C 0.12108 0.43839 0.63373 0.0
C815 C 0.13793 0.43079 0.6321 0.0
C816 C 0.15227 0.43865 0.64097 0.0
H817 H 0.15363 0.36249 0.54054 0.0
H818 H 0.15711 0.38594 0.56249 0.0
C819 C 0.14979 0.45406 0.65098 0.0
C820 C 0.14039 0.41567 0.6198 0.0
H821 H 0.15504 0.37307 0.61655 0.0
C822 C 0.13389 0.41751 0.60251 0.0
C823 C 0.14799 0.39938 0.62501 0.0
C824 C 0.15441 0.39623 0.64362 0.0
C825 C 0.13435 0.40351 0.59043 0.0
C826 C 0.14237 0.38736 0.59544 0.0
C827 C 0.1491 0.38552 0.61266 0.0
C828 C 0.14301 0.37205 0.58317 0.0
C829 C 0.12553 0.40602 0.57268 0.0
C830 C 0.13508 0.35593 0.58789 0.0
C831 C 0.13353 0.34229 0.57549 0.0
C832 C 0.13967 0.34469 0.55812 0.0
C833 C 0.1485 0.36042 0.55375 0.0
C834 C 0.15041 0.37386 0.56625 0.0
H835 H 0.11573 0.41696 0.57299 0.0
H836 H 0.13568 0.40945 0.56267 0.0
H837 H 0.11865 0.3938 0.56837 0.0
H838 H 0.12938 0.35418 0.6009 0.0
H839 H 0.12671 0.33027 0.57922 0.0
H840 H 0.53399 0.16418 0.6589 0.0
H841 H 0.56064 0.17193 0.64187 0.0
H842 H 0.55665 0.12267 0.61346 0.0
H843 H 0.5301 0.11514 0.62985 0.0
H844 H 0.59305 0.1555 0.63786 0.0
H845 H 0.55867 0.15817 0.57367 0.0
H846 H 0.54689 0.15788 0.5944 0.0
H847 H 0.55431 0.13754 0.58445 0.0
C848 C 0.53882 0.15508 0.64897 0.0
C849 C 0.5298 0.13918 0.64552 0.0
C850 C 0.55401 0.1595 0.63928 0.0
C851 C 0.56034 0.14807 0.62609 0.0
C852 C 0.55169 0.13195 0.62317 0.0
H853 H 0.65887 0.12506 0.57904 0.0
H854 H 0.63521 0.13189 0.59992 0.0
C855 C 0.53653 0.12763 0.63264 0.0
C856 C 0.57602 0.15256 0.61523 0.0
H857 H 0.59002 0.15204 0.57248 0.0
C858 C 0.59241 0.15513 0.62354 0.0
C859 C 0.57511 0.15262 0.59656 0.0
C860 C 0.55774 0.15161 0.58678 0.0
C861 C 0.6081 0.15643 0.61364 0.0
C862 C 0.60736 0.15453 0.59502 0.0
C863 C 0.59078 0.15324 0.58675 0.0
C864 C 0.62341 0.15247 0.58381 0.0
C865 C 0.62522 0.1597 0.62331 0.0
C866 C 0.62471 0.16159 0.56767 0.0
C867 C 0.63782 0.15718 0.55546 0.0
C868 C 0.65016 0.14387 0.5593 0.0
C869 C 0.64961 0.13552 0.57586 0.0
C870 C 0.63617 0.13957 0.58789 0.0
H871 H 0.62297 0.16781 0.63535 0.0
H872 H 0.63084 0.14687 0.62767 0.0
H873 H 0.63505 0.16653 0.61482 0.0
H874 H 0.61509 0.1716 0.56418 0.0
H875 H 0.63803 0.16387 0.5428 0.0
H876 H 0.85067 0.54858 0.66905 0.0
H877 H 0.84563 0.57694 0.65387 0.0
H878 H 0.86115 0.5532 0.60445 0.0
H879 H 0.86632 0.52515 0.61938 0.0
H880 H 0.87343 0.59513 0.63334 0.0
H881 H 0.81413 0.57986 0.59323 0.0
H882 H 0.81981 0.56775 0.61304 0.0
H883 H 0.83069 0.56286 0.59249 0.0
C884 C 0.85271 0.54939 0.65491 0.0
C885 C 0.85892 0.53468 0.64539 0.0
C886 C 0.84987 0.56556 0.64629 0.0
C887 C 0.85283 0.56706 0.62803 0.0
C888 C 0.85852 0.55224 0.6185 0.0
H889 H 0.87017 0.62948 0.53962 0.0
H890 H 0.86385 0.60802 0.56274 0.0
C891 C 0.86157 0.53624 0.62708 0.0
C892 C 0.85152 0.58426 0.61883 0.0
H893 H 0.83282 0.60329 0.5825 0.0
C894 C 0.86427 0.59722 0.6225 0.0
C895 C 0.83955 0.58685 0.60474 0.0
C896 C 0.82515 0.57366 0.60071 0.0
C897 C 0.86629 0.61206 0.61152 0.0
C898 C 0.85503 0.61405 0.59671 0.0
C899 C 0.8415 0.60169 0.5938 0.0
C900 C 0.85839 0.62754 0.5829 0.0
C901 C 0.88122 0.6248 0.61509 0.0
C902 C 0.85731 0.6457 0.58653 0.0
C903 C 0.86103 0.65811 0.57328 0.0
C904 C 0.86578 0.65252 0.55618 0.0
C905 C 0.86659 0.6343 0.55262 0.0
C906 C 0.86293 0.62198 0.56582 0.0
H907 H 0.89041 0.61982 0.62541 0.0
H908 H 0.88887 0.62733 0.60283 0.0
H909 H 0.8757 0.63758 0.61968 0.0
H910 H 0.85356 0.65027 0.59956 0.0
H911 H 0.86016 0.67204 0.57644 0.0
H912 H 0.32208 0.45119 0.14804 0.0
H913 H 0.33626 0.42224 0.15258 0.0
H914 H 0.38685 0.44501 0.13953 0.0
H915 H 0.37293 0.47366 0.13487 0.0
H916 H 0.35688 0.40437 0.12498 0.0
H917 H 0.39606 0.41637 0.18559 0.0
H918 H 0.37688 0.42939 0.17981 0.0
H919 H 0.3979 0.43385 0.16964 0.0
C920 C 0.33627 0.45003 0.14645 0.0
C921 C 0.34641 0.46465 0.14107 0.0
C922 C 0.34431 0.43352 0.14901 0.0
C923 C 0.36261 0.43158 0.14658 0.0
C924 C 0.37276 0.4463 0.14174 0.0
H925 H 0.44942 0.36719 0.12874 0.0
H926 H 0.42679 0.38909 0.13529 0.0
C927 C 0.36475 0.46264 0.13898 0.0
C928 C 0.37125 0.41406 0.14752 0.0
H929 H 0.40661 0.39333 0.16627 0.0
C930 C 0.36745 0.40165 0.13428 0.0
C931 C 0.38501 0.41064 0.15967 0.0
C932 C 0.38912 0.4232 0.1746 0.0
C933 C 0.37803 0.38656 0.13198 0.0
C934 C 0.39254 0.38375 0.14345 0.0
C935 C 0.39554 0.39556 0.15744 0.0
C936 C 0.40602 0.36999 0.1399 0.0
C937 C 0.37438 0.37443 0.11658 0.0
C938 C 0.40187 0.35191 0.14041 0.0
C939 C 0.41483 0.33925 0.13656 0.0
C940 C 0.43216 0.3445 0.13225 0.0
C941 C 0.43624 0.36263 0.13197 0.0
C942 C 0.42332 0.37521 0.13577 0.0
H943 H 0.36433 0.37997 0.10741 0.0
H944 H 0.38671 0.37185 0.10904 0.0
H945 H 0.3694 0.36158 0.12159 0.0
H946 H 0.38865 0.34761 0.14381 0.0
H947 H 0.41128 0.3254 0.137 0.0
H948 H 0.45803 0.63273 0.85952 0.0
H949 H 0.43483 0.61094 0.85464 0.0
H950 H 0.39524 0.6517 0.85894 0.0
H951 H 0.41848 0.67375 0.86396 0.0
H952 H 0.38894 0.6226 0.88049 0.0
H953 H 0.40291 0.60076 0.81217 0.0
H954 H 0.42237 0.60068 0.82574 0.0
H955 H 0.41135 0.62125 0.82109 0.0
C956 C 0.44442 0.63716 0.85924 0.0
C957 C 0.44012 0.65501 0.86218 0.0
C958 C 0.43117 0.62468 0.85627 0.0
C959 C 0.41333 0.62975 0.85611 0.0
C960 C 0.40895 0.64757 0.85882 0.0
H961 H 0.33359 0.54448 0.84371 0.0
H962 H 0.34777 0.57345 0.83924 0.0
C963 C 0.42224 0.66013 0.8617 0.0
C964 C 0.3994 0.61604 0.85484 0.0
H965 H 0.38698 0.58 0.83067 0.0
C966 C 0.38821 0.61354 0.86941 0.0
C967 C 0.39831 0.60433 0.8403 0.0
C968 C 0.40926 0.60699 0.82386 0.0
C969 C 0.37693 0.59886 0.87039 0.0
C970 C 0.37694 0.58638 0.8565 0.0
C971 C 0.38713 0.58955 0.84135 0.0
C972 C 0.36833 0.56897 0.85861 0.0
C973 C 0.36565 0.59635 0.88663 0.0
C974 C 0.37544 0.55688 0.87067 0.0
C975 C 0.36756 0.54044 0.87313 0.0
C976 C 0.35231 0.53572 0.86359 0.0
C977 C 0.3453 0.54776 0.85127 0.0
C978 C 0.35335 0.56428 0.84871 0.0
H979 H 0.36366 0.60898 0.89385 0.0
H980 H 0.35254 0.59077 0.88309 0.0
H981 H 0.37229 0.58691 0.8957 0.0
H982 H 0.38713 0.56022 0.87826 0.0
H983 H 0.37334 0.5315 0.88271 0.0
H984 H 0.45472 0.32816 0.84265 0.0
H985 H 0.42643 0.34319 0.83688 0.0
H986 H 0.43966 0.38285 0.87558 0.0
H987 H 0.46764 0.36813 0.88142 0.0
H988 H 0.4045 0.36569 0.8787 0.0
H989 H 0.41978 0.39349 0.81217 0.0
H990 H 0.42424 0.3705 0.81663 0.0
H991 H 0.43714 0.38723 0.82733 0.0
C992 C 0.4516 0.34014 0.84983 0.0
C993 C 0.46342 0.34695 0.86249 0.0
C994 C 0.43548 0.34869 0.84651 0.0
C995 C 0.43103 0.36411 0.85581 0.0
C996 C 0.44286 0.37094 0.86831 0.0
H997 H 0.37119 0.45559 0.85629 0.0
H998 H 0.39169 0.4312 0.85177 0.0
C999 C 0.45888 0.3625 0.87159 0.0
C1000 C 0.41402 0.37332 0.85304 0.0
H1001 H 0.39414 0.40378 0.82636 0.0
C1002 C 0.40194 0.37372 0.8671 0.0
C1003 C 0.4109 0.38379 0.8379 0.0
C1004 C 0.42365 0.38389 0.82259 0.0
C1005 C 0.38734 0.38514 0.8669 0.0
C1006 C 0.38466 0.39628 0.85212 0.0
C1007 C 0.3962 0.39515 0.83762 0.0
C1008 C 0.3716 0.41086 0.85263 0.0
C1009 C 0.37564 0.38608 0.88304 0.0
C1010 C 0.3534 0.40755 0.85416 0.0
C1011 C 0.34157 0.42153 0.85687 0.0
C1012 C 0.34778 0.43904 0.85804 0.0
C1013 C 0.36593 0.44229 0.85561 0.0
C1014 C 0.37769 0.42836 0.85293 0.0
H1015 H 0.38112 0.37848 0.89434 0.0
H1016 H 0.3738 0.40002 0.88724 0.0
H1017 H 0.36244 0.38057 0.8798 0.0
H1018 H 0.34842 0.39414 0.85372 0.0
H1019 H 0.32767 0.41857 0.85855 0.0
H1020 H 0.62107 0.4684 0.86152 0.0
H1021 H 0.6076 0.43961 0.85637 0.0
H1022 H 0.65835 0.41817 0.84181 0.0
H1023 H 0.67209 0.44725 0.84687 0.0
H1024 H 0.61001 0.41615 0.82341 0.0
H1025 H 0.63785 0.38826 0.88577 0.0
H1026 H 0.63566 0.41184 0.8828 0.0
H1027 H 0.652 0.39988 0.87051 0.0
C1028 C 0.6294 0.45765 0.85705 0.0
C1029 C 0.64767 0.46006 0.85471 0.0
C1030 C 0.62166 0.44122 0.85407 0.0
C1031 C 0.63201 0.42681 0.84883 0.0
C1032 C 0.65019 0.42919 0.84592 0.0
H1033 H 0.58026 0.32279 0.85953 0.0
H1034 H 0.60389 0.3439 0.85245 0.0
C1035 C 0.65797 0.44577 0.84875 0.0
C1036 C 0.62355 0.40926 0.84746 0.0
H1037 H 0.61457 0.37274 0.87236 0.0
C1038 C 0.6113 0.40641 0.83385 0.0
C1039 C 0.62537 0.39657 0.86106 0.0
C1040 C 0.63839 0.39915 0.87594 0.0
C1041 C 0.60004 0.39168 0.83406 0.0
C1042 C 0.60078 0.3798 0.84849 0.0
C1043 C 0.61396 0.38193 0.86138 0.0
C1044 C 0.5866 0.36666 0.85169 0.0
C1045 C 0.587 0.38935 0.81915 0.0
C1046 C 0.56914 0.37251 0.85386 0.0
C1047 C 0.55571 0.36058 0.85794 0.0
C1048 C 0.55942 0.3425 0.86009 0.0
C1049 C 0.57695 0.33662 0.85792 0.0
C1050 C 0.59045 0.34864 0.85385 0.0
H1051 H 0.59211 0.39522 0.8067 0.0
H1052 H 0.58399 0.37518 0.81683 0.0
H1053 H 0.57452 0.39627 0.82253 0.0
H1054 H 0.56594 0.38642 0.85275 0.0
H1055 H 0.54241 0.36563 0.85958 0.0
H1056 H 0.66393 0.57604 0.87128 0.0
H1057 H 0.64076 0.59839 0.86788 0.0
H1058 H 0.61271 0.56396 0.8321 0.0
H1059 H 0.63535 0.54125 0.83619 0.0
H1060 H 0.62472 0.61717 0.84193 0.0
H1061 H 0.5773 0.56934 0.87109 0.0
H1062 H 0.60071 0.56511 0.87022 0.0
H1063 H 0.58714 0.5617 0.85095 0.0
C1064 C 0.65296 0.57337 0.86248 0.0
C1065 C 0.65124 0.55681 0.85427 0.0
C1066 C 0.63973 0.58615 0.86052 0.0
C1067 C 0.62475 0.58264 0.85013 0.0
C1068 C 0.62387 0.56673 0.84064 0.0
H1069 H 0.5381 0.66031 0.83724 0.0
H1070 H 0.56436 0.6422 0.83091 0.0
C1071 C 0.63685 0.55381 0.84291 0.0
C1072 C 0.60937 0.59483 0.85061 0.0
H1073 H 0.56579 0.5967 0.86204 0.0
C1074 C 0.6118 0.61273 0.84627 0.0
C1075 C 0.59257 0.58903 0.85651 0.0
C1076 C 0.58927 0.5703 0.86263 0.0
C1077 C 0.59795 0.62503 0.84794 0.0
C1078 C 0.58115 0.61914 0.85369 0.0
C1079 C 0.57866 0.60118 0.85757 0.0
C1080 C 0.56624 0.63137 0.85736 0.0
C1081 C 0.60161 0.64427 0.84422 0.0
C1082 C 0.55853 0.63123 0.87422 0.0
C1083 C 0.54343 0.64114 0.87768 0.0
C1084 C 0.53578 0.65164 0.86443 0.0
C1085 C 0.54381 0.65237 0.84769 0.0
C1086 C 0.55886 0.64213 0.84412 0.0
H1087 H 0.61601 0.64715 0.84399 0.0
H1088 H 0.59607 0.64778 0.8311 0.0
H1089 H 0.59526 0.65284 0.85429 0.0
H1090 H 0.56402 0.62311 0.88467 0.0
H1091 H 0.53765 0.64045 0.89076 0.0
H1092 H 0.61836 0.52218 0.12707 0.0
H1093 H 0.6038 0.55035 0.13259 0.0
H1094 H 0.65235 0.57166 0.1535 0.0
H1095 H 0.66719 0.54322 0.14805 0.0
H1096 H 0.60202 0.57073 0.16693 0.0
H1097 H 0.63562 0.60506 0.11097 0.0
H1098 H 0.63402 0.58126 0.11179 0.0
H1099 H 0.64862 0.59261 0.12659 0.0
C1100 C 0.62598 0.53278 0.13294 0.0
C1101 C 0.64397 0.53051 0.13703 0.0
C1102 C 0.6176 0.54886 0.13613 0.0
C1103 C 0.62704 0.56306 0.14333 0.0
C1104 C 0.64491 0.56082 0.14784 0.0
H1105 H 0.57896 0.66904 0.14123 0.0
H1106 H 0.60076 0.64573 0.14684 0.0
C1107 C 0.65332 0.54459 0.14477 0.0
C1108 C 0.61798 0.58024 0.14539 0.0
H1109 H 0.61168 0.61959 0.12426 0.0
C1110 C 0.60433 0.58159 0.15785 0.0
C1111 C 0.62112 0.59436 0.13357 0.0
C1112 C 0.63559 0.5934 0.11989 0.0
C1113 C 0.5932 0.5964 0.15829 0.0
C1114 C 0.59552 0.60998 0.14564 0.0
C1115 C 0.60986 0.60912 0.13388 0.0
C1116 C 0.58227 0.62422 0.14322 0.0
C1117 C 0.5788 0.59718 0.17207 0.0
C1118 C 0.56472 0.61985 0.13911 0.0
C1119 C 0.55226 0.63307 0.13592 0.0
C1120 C 0.55713 0.651 0.13658 0.0
C1121 C 0.57476 0.65537 0.14065 0.0
C1122 C 0.58723 0.64208 0.14388 0.0
H1123 H 0.58249 0.58949 0.18404 0.0
H1124 H 0.57592 0.61101 0.17604 0.0
H1125 H 0.56655 0.59127 0.16658 0.0
H1126 H 0.56069 0.60615 0.13804 0.0
H1127 H 0.53886 0.62919 0.13272 0.0
H1128 H 0.33092 0.58102 0.12735 0.0
H1129 H 0.35467 0.6028 0.13066 0.0
H1130 H 0.38348 0.56642 0.1638 0.0
H1131 H 0.36021 0.54434 0.15985 0.0
H1132 H 0.37228 0.62012 0.15694 0.0
H1133 H 0.41715 0.57287 0.12325 0.0
H1134 H 0.3937 0.56913 0.12496 0.0
H1135 H 0.408 0.56436 0.14338 0.0
C1136 C 0.34219 0.57779 0.13557 0.0
C1137 C 0.3439 0.56089 0.14307 0.0
C1138 C 0.35574 0.59025 0.13747 0.0
C1139 C 0.37107 0.58604 0.14708 0.0
C1140 C 0.37202 0.56974 0.15588 0.0
H1141 H 0.46041 0.65998 0.1617 0.0
H1142 H 0.43355 0.64257 0.16743 0.0
C1143 C 0.35869 0.55717 0.15368 0.0
C1144 C 0.38668 0.59793 0.14645 0.0
H1145 H 0.42982 0.59935 0.1334 0.0
C1146 C 0.3849 0.61562 0.15184 0.0
C1147 C 0.40305 0.59208 0.13953 0.0
C1148 C 0.40559 0.57364 0.13229 0.0
C1149 C 0.39903 0.62763 0.15034 0.0
C1150 C 0.41544 0.62166 0.14365 0.0
C1151 C 0.41725 0.60391 0.1386 0.0
C1152 C 0.43065 0.63364 0.14038 0.0
C1153 C 0.39606 0.64671 0.15531 0.0
C1154 C 0.43798 0.63435 0.12336 0.0
C1155 C 0.45342 0.64385 0.12021 0.0
C1156 C 0.46181 0.65309 0.13395 0.0
C1157 C 0.45415 0.65303 0.15087 0.0
C1158 C 0.43875 0.64319 0.15412 0.0
H1159 H 0.38177 0.64998 0.1561 0.0
H1160 H 0.40202 0.64923 0.16848 0.0
H1161 H 0.40243 0.65571 0.14562 0.0
H1162 H 0.43195 0.62716 0.11254 0.0
H1163 H 0.4589 0.6438 0.10698 0.0
H1164 H 0.66004 0.41473 0.12388 0.0
H1165 H 0.63596 0.39331 0.12713 0.0
H1166 H 0.60828 0.42954 0.16135 0.0
H1167 H 0.63185 0.45131 0.15739 0.0
H1168 H 0.6183 0.3757 0.15292 0.0
H1169 H 0.57399 0.42485 0.12123 0.0
H1170 H 0.59751 0.42809 0.12279 0.0
H1171 H 0.5835 0.43257 0.1415 0.0
C1172 C 0.64895 0.41798 0.13233 0.0
C1173 C 0.64761 0.43478 0.14012 0.0
C1174 C 0.63521 0.40573 0.1342 0.0
C1175 C 0.62008 0.41003 0.14407 0.0
C1176 C 0.61956 0.42617 0.15321 0.0
H1177 H 0.52976 0.33687 0.15699 0.0
H1178 H 0.55685 0.35377 0.16317 0.0
C1179 C 0.63306 0.43855 0.15101 0.0
C1180 C 0.60422 0.3985 0.14332 0.0
H1181 H 0.56091 0.39835 0.13076 0.0
C1182 C 0.60572 0.38062 0.14812 0.0
C1183 C 0.58788 0.4049 0.13679 0.0
C1184 C 0.58562 0.42359 0.13012 0.0
C1185 C 0.59135 0.36892 0.14637 0.0
C1186 C 0.57498 0.37543 0.14007 0.0
C1187 C 0.57345 0.39338 0.13566 0.0
C1188 C 0.55953 0.36386 0.1365 0.0
C1189 C 0.59403 0.34963 0.15063 0.0
C1190 C 0.55198 0.36399 0.11956 0.0
C1191 C 0.53641 0.3548 0.11617 0.0
C1192 C 0.52811 0.34502 0.12958 0.0
C1193 C 0.53596 0.34426 0.14641 0.0
C1194 C 0.55148 0.35381 0.14991 0.0
H1195 H 0.60827 0.34607 0.15109 0.0
H1196 H 0.58823 0.34675 0.16379 0.0
H1197 H 0.58736 0.3411 0.14073 0.0
H1198 H 0.55797 0.37156 0.10898 0.0
H1199 H 0.53078 0.35547 0.10302 0.0
H1200 H 0.07605 0.26856 0.52554 0.0
H1201 H 0.04512 0.26051 0.52006 0.0
H1202 H 0.03804 0.30832 0.48983 0.0
H1203 H 0.0688 0.31624 0.49485 0.0
H1204 H 0.01557 0.27761 0.52964 0.0
H1205 H 0.01663 0.27241 0.45697 0.0
H1206 H 0.03663 0.273 0.46999 0.0
H1207 H 0.0256 0.29322 0.46386 0.0
C1208 C 0.06793 0.27727 0.51759 0.0
C1209 C 0.07494 0.29301 0.51057 0.0
C1210 C 0.05028 0.27263 0.51445 0.0
C1211 C 0.03937 0.28361 0.50419 0.0
C1212 C 0.04632 0.29936 0.49731 0.0
H1213 H 0.93267 0.31088 0.50755 0.0
H1214 H 0.96371 0.30429 0.51243 0.0
C1215 C 0.06392 0.30395 0.50035 0.0
C1216 C 0.02037 0.27945 0.50162 0.0
H1217 H 0.98808 0.27912 0.47012 0.0
C1218 C 0.0096 0.27756 0.51661 0.0
C1219 C 0.01257 0.27891 0.48462 0.0
C1220 C 0.02352 0.27929 0.46796 0.0
C1221 C 0.99114 0.27658 0.51508 0.0
C1222 C 0.98325 0.27795 0.49817 0.0
C1223 C 0.99409 0.27839 0.48312 0.0
C1224 C 0.964 0.28093 0.49592 0.0
C1225 C 0.98026 0.27451 0.53166 0.0
C1226 C 0.95385 0.27024 0.48463 0.0
C1227 C 0.93598 0.27413 0.4816 0.0
C1228 C 0.92804 0.28885 0.48973 0.0
C1229 C 0.93827 0.29939 0.50113 0.0
C1230 C 0.95604 0.29553 0.50409 0.0
H1231 H 0.98772 0.26718 0.54198 0.0
H1232 H 0.97712 0.28778 0.53706 0.0
H1233 H 0.96767 0.26744 0.52901 0.0
H1234 H 0.95979 0.25901 0.47803 0.0
H1235 H 0.92849 0.26576 0.47272 0.0
H1236 H 0.66574 0.06901 0.49632 0.0
H1237 H 0.66814 0.03725 0.49161 0.0
H1238 H 0.71644 0.03617 0.52188 0.0
H1239 H 0.71402 0.06808 0.52696 0.0
H1240 H 0.69471 0.0182 0.47535 0.0
H1241 H 0.68639 0.99777 0.54545 0.0
H1242 H 0.68144 0.01983 0.53785 0.0
H1243 H 0.70397 0.01322 0.54141 0.0
C1244 C 0.67689 0.06207 0.50204 0.0
C1245 C 0.68966 0.07111 0.51211 0.0
C1246 C 0.67824 0.04389 0.49929 0.0
C1247 C 0.69234 0.03432 0.50656 0.0
C1248 C 0.70527 0.04327 0.51643 0.0
H1249 H 0.71477 0.9252 0.47452 0.0
H1250 H 0.71729 0.95691 0.48032 0.0
C1251 C 0.70391 0.06151 0.51924 0.0
C1252 C 0.69339 0.01498 0.50359 0.0
H1253 H 0.69173 0.97511 0.52468 0.0
C1254 C 0.69416 0.00876 0.48613 0.0
C1255 C 0.69247 0.00273 0.51768 0.0
C1256 C 0.69087 0.00865 0.53666 0.0
C1257 C 0.69383 0.9906 0.48234 0.0
C1258 C 0.69305 0.97834 0.49644 0.0
C1259 C 0.69246 0.98455 0.51391 0.0
C1260 C 0.69189 0.95904 0.4933 0.0
C1261 C 0.69371 0.98474 0.46328 0.0
C1262 C 0.67699 0.94964 0.49906 0.0
C1263 C 0.67555 0.93152 0.49589 0.0
C1264 C 0.68903 0.9224 0.4869 0.0
C1265 C 0.70408 0.93182 0.48135 0.0
C1266 C 0.70552 0.94997 0.48458 0.0
H1267 H 0.69019 0.99572 0.45419 0.0
H1268 H 0.70707 0.97993 0.45962 0.0
H1269 H 0.68419 0.97374 0.46125 0.0
H1270 H 0.66634 0.95639 0.50585 0.0
H1271 H 0.6638 0.92469 0.5004 0.0
H1272 H 0.92782 0.72845 0.52321 0.0
H1273 H 0.95877 0.73661 0.51781 0.0
H1274 H 0.96456 0.69159 0.48334 0.0
H1275 H 0.93386 0.68364 0.48826 0.0
H1276 H 0.98779 0.71818 0.52571 0.0
H1277 H 0.98727 0.72927 0.45381 0.0
H1278 H 0.96716 0.72821 0.46664 0.0
H1279 H 0.97749 0.70826 0.45867 0.0
C1280 C 0.93565 0.72045 0.51429 0.0
C1281 C 0.92833 0.70541 0.50614 0.0
C1282 C 0.95331 0.72514 0.51121 0.0
C1283 C 0.96388 0.71494 0.49985 0.0
C1284 C 0.95654 0.7 0.49169 0.0
H1285 H 0.06791 0.68061 0.50196 0.0
H1286 H 0.03743 0.68931 0.50701 0.0
C1287 C 0.93897 0.69536 0.49469 0.0
C1288 C 0.98301 0.71869 0.49763 0.0
H1289 H 0.01539 0.71922 0.46625 0.0
C1290 C 0.99381 0.71885 0.51272 0.0
C1291 C 0.99091 0.72005 0.48072 0.0
C1292 C 0.98004 0.72165 0.46408 0.0
C1293 C 0.0123 0.71872 0.51127 0.0
C1294 C 0.02015 0.71794 0.49431 0.0
C1295 C 0.00939 0.71943 0.47927 0.0
C1296 C 0.03911 0.71354 0.49188 0.0
C1297 C 0.0232 0.7189 0.52797 0.0
C1298 C 0.05014 0.72397 0.48119 0.0
C1299 C 0.06767 0.71887 0.47802 0.0
C1300 C 0.07439 0.70318 0.48542 0.0
C1301 C 0.06327 0.69284 0.49614 0.0
C1302 C 0.04582 0.69789 0.49921 0.0
H1303 H 0.01629 0.72619 0.53867 0.0
H1304 H 0.02519 0.70512 0.53259 0.0
H1305 H 0.03635 0.72506 0.52577 0.0
H1306 H 0.04516 0.73599 0.47521 0.0
H1307 H 0.07587 0.72712 0.46969 0.0
H1308 H 0.32043 0.06301 0.49856 0.0
H1309 H 0.31361 0.03223 0.50472 0.0
H1310 H 0.26438 0.03717 0.47637 0.0
H1311 H 0.2713 0.06819 0.46976 0.0
H1312 H 0.28548 0.01738 0.5226 0.0
H1313 H 0.28778 0.99469 0.4526 0.0
H1314 H 0.29583 0.01613 0.45925 0.0
H1315 H 0.27248 0.01213 0.45769 0.0
C1316 C 0.30813 0.05764 0.49358 0.0
C1317 C 0.29647 0.06808 0.48355 0.0
C1318 C 0.30422 0.04001 0.49719 0.0
C1319 C 0.28856 0.03236 0.4909 0.0
C1320 C 0.27668 0.04275 0.48112 0.0
H1321 H 0.27291 0.92212 0.52793 0.0
H1322 H 0.26546 0.95303 0.52142 0.0
C1323 C 0.28063 0.06047 0.4774 0.0
C1324 C 0.28523 0.01338 0.49444 0.0
H1325 H 0.28479 0.97296 0.47445 0.0
C1326 C 0.28502 0.00763 0.5121 0.0
C1327 C 0.28468 0.00075 0.48068 0.0
C1328 C 0.28531 0.00612 0.46147 0.0
C1329 C 0.28533 0.98958 0.51638 0.0
C1330 C 0.28549 0.97696 0.5026 0.0
C1331 C 0.28463 0.9827 0.48496 0.0
C1332 C 0.28907 0.958 0.50603 0.0
C1333 C 0.28667 0.98422 0.53555 0.0
C1334 C 0.30456 0.95046 0.49922 0.0
C1335 C 0.30876 0.93289 0.50278 0.0
C1336 C 0.29757 0.9224 0.51328 0.0
C1337 C 0.28188 0.92988 0.51992 0.0
C1338 C 0.27763 0.94754 0.51626 0.0
H1339 H 0.28938 0.99568 0.54433 0.0
H1340 H 0.27401 0.97814 0.53978 0.0
H1341 H 0.29731 0.97429 0.53741 0.0
H1342 H 0.3136 0.95829 0.49134 0.0
H1343 H 0.32093 0.92761 0.49739 0.0
H1344 H 0.46845 0.92711 0.27781 0.0
H1345 H 0.47385 0.9585 0.27169 0.0
H1346 H 0.50925 0.96112 0.3163 0.0
H1347 H 0.50421 0.92995 0.32234 0.0
H1348 H 0.46713 0.98688 0.29317 0.0
H1349 H 0.53847 0.98423 0.27776 0.0
H1350 H 0.52472 0.96472 0.27821 0.0
H1351 H 0.53365 0.97362 0.2984 0.0
C1352 C 0.47751 0.93434 0.2862 0.0
C1353 C 0.48593 0.92598 0.30053 0.0
C1354 C 0.48058 0.95226 0.28268 0.0
C1355 C 0.49222 0.96205 0.29333 0.0
C1356 C 0.50059 0.95372 0.30762 0.0
H1357 H 0.49673 0.0695 0.32376 0.0
H1358 H 0.49074 0.03825 0.31887 0.0
C1359 C 0.49756 0.93589 0.31113 0.0
C1360 C 0.4949 0.98123 0.29039 0.0
H1361 H 0.52717 0.0126 0.28708 0.0
C1362 C 0.48022 0.99251 0.29152 0.0
C1363 C 0.51193 0.98856 0.2879 0.0
C1364 C 0.52806 0.97712 0.2853 0.0
C1365 C 0.48225 0.01094 0.29135 0.0
C1366 C 0.49945 0.01825 0.29039 0.0
C1367 C 0.51401 0.00699 0.28811 0.0
C1368 C 0.50273 0.03741 0.29292 0.0
C1369 C 0.46596 0.0224 0.29246 0.0
C1370 C 0.51197 0.04724 0.28017 0.0
C1371 C 0.51562 0.06516 0.28302 0.0
C1372 C 0.51017 0.07351 0.29872 0.0
C1373 C 0.50102 0.06355 0.31147 0.0
C1374 C 0.49744 0.04569 0.30864 0.0
H1375 H 0.45417 0.01543 0.28716 0.0
H1376 H 0.46329 0.02562 0.30652 0.0
H1377 H 0.46774 0.03495 0.28507 0.0
H1378 H 0.51633 0.04106 0.26802 0.0
H1379 H 0.52272 0.07243 0.27294 0.0
H1380 H 0.92168 0.51891 0.27336 0.0
H1381 H 0.953 0.51325 0.26713 0.0
H1382 H 0.95705 0.48275 0.31512 0.0
H1383 H 0.92592 0.488 0.32126 0.0
H1384 H 0.9815 0.52267 0.2866 0.0
H1385 H 0.98033 0.45003 0.28 0.0
H1386 H 0.96044 0.46323 0.27943 0.0
H1387 H 0.97012 0.45686 0.30025 0.0
C1388 C 0.92921 0.51085 0.28249 0.0
C1389 C 0.92126 0.50387 0.29778 0.0
C1390 C 0.94709 0.50762 0.2789 0.0
C1391 C 0.95727 0.49726 0.29047 0.0
C1392 C 0.94935 0.49034 0.30573 0.0
H1393 H 0.06384 0.4992 0.32144 0.0
H1394 H 0.03265 0.5037 0.31508 0.0
C1395 C 0.93154 0.4935 0.3093 0.0
C1396 C 0.97647 0.49465 0.28745 0.0
H1397 H 0.00859 0.46296 0.28784 0.0
C1398 C 0.9874 0.5096 0.28652 0.0
C1399 C 0.98418 0.47762 0.28696 0.0
C1400 C 0.97312 0.46104 0.28651 0.0
C1401 C 0.00588 0.50799 0.28638 0.0
C1402 C 0.0136 0.49099 0.28758 0.0
C1403 C 0.00267 0.47601 0.28722 0.0
C1404 C 0.03278 0.48856 0.29082 0.0
C1405 C 0.01696 0.52454 0.28533 0.0
C1406 C 0.04316 0.47807 0.27956 0.0
C1407 C 0.0611 0.4753 0.28327 0.0
C1408 C 0.06889 0.48286 0.29838 0.0
C1409 C 0.05836 0.49326 0.30963 0.0
C1410 C 0.04051 0.49599 0.30593 0.0
H1411 H 0.00974 0.53532 0.27844 0.0
H1412 H 0.02 0.52918 0.2989 0.0
H1413 H 0.02961 0.52209 0.27831 0.0
H1414 H 0.03739 0.47206 0.26793 0.0
H1415 H 0.06882 0.46719 0.27436 0.0
H1416 H 0.49188 0.92813 0.68104 0.0
H1417 H 0.48707 0.95972 0.68503 0.0
H1418 H 0.53251 0.96257 0.71932 0.0
H1419 H 0.53729 0.93068 0.71568 0.0
H1420 H 0.50337 0.98312 0.73104 0.0
H1421 H 0.51913 0.99578 0.66063 0.0
H1422 H 0.50184 0.97981 0.66354 0.0
H1423 H 0.52381 0.97496 0.67127 0.0
C1424 C 0.50084 0.93541 0.68951 0.0
C1425 C 0.51514 0.92692 0.69785 0.0
C1426 C 0.49807 0.95348 0.69175 0.0
C1427 C 0.50965 0.96352 0.70216 0.0
C1428 C 0.5235 0.95503 0.71114 0.0
H1429 H 0.51486 0.07682 0.68727 0.0
H1430 H 0.52247 0.04584 0.6918 0.0
C1431 C 0.52622 0.93684 0.70901 0.0
C1432 C 0.50764 0.98297 0.70291 0.0
H1433 H 0.50597 0.01945 0.67652 0.0
C1434 C 0.50408 0.99114 0.71918 0.0
C1435 C 0.50888 0.99341 0.68745 0.0
C1436 C 0.5138 0.98559 0.66976 0.0
C1437 C 0.50117 0.00947 0.72029 0.0
C1438 C 0.50153 0.01975 0.70466 0.0
C1439 C 0.50556 0.01158 0.6885 0.0
C1440 C 0.49774 0.039 0.70446 0.0
C1441 C 0.49793 0.01764 0.73818 0.0
C1442 C 0.48143 0.0456 0.71043 0.0
C1443 C 0.47712 0.06345 0.70805 0.0
C1444 C 0.48891 0.07486 0.69933 0.0
C1445 C 0.50543 0.06832 0.69389 0.0
C1446 C 0.50981 0.05062 0.6965 0.0
H1447 H 0.50341 0.0093 0.74896 0.0
H1448 H 0.50388 0.03102 0.73907 0.0
H1449 H 0.48348 0.01885 0.74036 0.0
H1450 H 0.47172 0.03683 0.71623 0.0
H1451 H 0.46425 0.06809 0.71228 0.0
H1452 H 0.92428 0.47951 0.72162 0.0
H1453 H 0.95542 0.48579 0.7279 0.0
H1454 H 0.96104 0.50959 0.67641 0.0
H1455 H 0.92997 0.50376 0.67017 0.0
H1456 H 0.98436 0.47386 0.71114 0.0
H1457 H 0.98336 0.54676 0.7074 0.0
H1458 H 0.96339 0.53377 0.70888 0.0
H1459 H 0.97411 0.53703 0.68787 0.0
C1460 C 0.93211 0.48621 0.71169 0.0
C1461 C 0.9246 0.49119 0.69541 0.0
C1462 C 0.9499 0.48981 0.71531 0.0
C1463 C 0.96047 0.49849 0.70277 0.0
C1464 C 0.95302 0.50335 0.68649 0.0
H1465 H 0.06934 0.49297 0.67952 0.0
H1466 H 0.0378 0.4889 0.68417 0.0
C1467 C 0.93526 0.49986 0.68289 0.0
C1468 C 0.97957 0.50149 0.70612 0.0
H1469 H 0.01187 0.5329 0.70351 0.0
C1470 C 0.99034 0.48682 0.70976 0.0
C1471 C 0.98736 0.51844 0.70472 0.0
C1472 C 0.97641 0.53491 0.7022 0.0
C1473 C 0.00878 0.48849 0.71094 0.0
C1474 C 0.01667 0.5052 0.70802 0.0
C1475 C 0.00584 0.52004 0.70549 0.0
C1476 C 0.03606 0.50727 0.70602 0.0
C1477 C 0.01963 0.47228 0.71505 0.0
C1478 C 0.04556 0.5193 0.71649 0.0
C1479 C 0.06372 0.52182 0.71375 0.0
C1480 C 0.07261 0.51243 0.70038 0.0
C1481 C 0.06299 0.50037 0.68999 0.0
C1482 C 0.04494 0.4979 0.69272 0.0
H1483 H 0.01187 0.4625 0.72277 0.0
H1484 H 0.02364 0.46586 0.70249 0.0
H1485 H 0.03175 0.4757 0.7226 0.0
H1486 H 0.03892 0.5268 0.72671 0.0
H1487 H 0.07071 0.53124 0.72194 0.0
H1488 H 0.32695 0.50325 0.93065 0.0
H1489 H 0.3217 0.5077 0.96205 0.0
H1490 H 0.27304 0.47822 0.95837 0.0
H1491 H 0.27835 0.47337 0.92674 0.0
H1492 H 0.29379 0.52409 0.97903 0.0
H1493 H 0.29946 0.45342 -0.00134 0.0
H1494 H 0.30632 0.46131 0.97722 0.0
H1495 H 0.28325 0.45838 0.98201 0.0
C1496 C 0.31511 0.49766 0.93643 0.0
C1497 C 0.30311 0.48785 0.92615 0.0
C1498 C 0.31211 0.50028 0.95442 0.0
C1499 C 0.29708 0.49316 0.96259 0.0
C1500 C 0.28488 0.48358 0.95237 0.0
H1501 H 0.27571 0.52464 0.07292 0.0
H1502 H 0.27139 0.51909 0.04131 0.0
C1503 C 0.2879 0.48089 0.9343 0.0
C1504 C 0.29455 0.49579 0.98184 0.0
H1505 H 0.29478 0.47407 0.02139 0.0
C1506 C 0.29379 0.51316 0.98832 0.0
C1507 C 0.2947 0.48149 0.99388 0.0
C1508 C 0.29611 0.46259 0.98769 0.0
C1509 C 0.29379 0.51667 0.00654 0.0
C1510 C 0.2942 0.50237 0.01859 0.0
C1511 C 0.29437 0.48499 0.0121 0.0
C1512 C 0.29615 0.50518 0.03789 0.0
C1513 C 0.29425 0.53563 0.0127 0.0
C1514 C 0.31126 0.49881 0.04653 0.0
C1515 C 0.31371 0.50183 0.06456 0.0
C1516 C 0.30107 0.5113 0.07437 0.0
C1517 C 0.28577 0.51744 0.06574 0.0
C1518 C 0.2833 0.51433 0.04766 0.0
H1519 H 0.29756 0.54489 0.00179 0.0
H1520 H 0.28106 0.53933 0.01794 0.0
H1521 H 0.30408 0.53737 0.02346 0.0
H1522 H 0.32134 0.49171 0.03924 0.0
H1523 H 0.32563 0.49686 0.07075 0.0
H1524 H 0.5215 0.26762 0.92325 0.0
H1525 H 0.51457 0.2592 0.9538 0.0
H1526 H 0.48604 0.30806 0.96074 0.0
H1527 H 0.49251 0.31636 0.93039 0.0
H1528 H 0.52374 0.2754 0.98402 0.0
H1529 H 0.45103 0.27317 0.98036 0.0
H1530 H 0.46475 0.27343 0.96083 0.0
H1531 H 0.45894 0.29378 0.97179 0.0
C1532 C 0.51362 0.27648 0.93126 0.0
C1533 C 0.50751 0.29264 0.92434 0.0
C1534 C 0.50964 0.27163 0.94868 0.0
C1535 C 0.49942 0.2828 0.95942 0.0
C1536 C 0.49345 0.29895 0.95255 0.0
H1537 H 0.50069 0.31179 0.06482 0.0
H1538 H 0.50617 0.30381 0.03425 0.0
C1539 C 0.49733 0.30377 0.9352 0.0
C1540 C 0.496 0.27847 0.97824 0.0
H1541 H 0.46343 0.27986 0.00939 0.0
C1542 C 0.51051 0.27595 0.98952 0.0
C1543 C 0.47873 0.27869 0.98543 0.0
C1544 C 0.46249 0.27971 0.9739 0.0
C1545 C 0.50831 0.27524 0.00792 0.0
C1546 C 0.49123 0.27755 0.01519 0.0
C1547 C 0.47658 0.27844 0.00385 0.0
C1548 C 0.48854 0.28128 0.03425 0.0
C1549 C 0.5244 0.27257 0.0194 0.0
C1550 C 0.47638 0.27156 0.04438 0.0
C1551 C 0.473 0.27625 0.06198 0.0
C1552 C 0.48163 0.29084 0.06965 0.0
C1553 C 0.49385 0.30043 0.05943 0.0
C1554 C 0.49717 0.29577 0.04193 0.0
H1555 H 0.53452 0.2645 0.01246 0.0
H1556 H 0.53043 0.2856 0.02237 0.0
H1557 H 0.52097 0.26598 0.03205 0.0
H1558 H 0.46941 0.26046 0.03863 0.0
H1559 H 0.46349 0.26862 0.06948 0.0
H1560 H 0.71734 0.51874 0.92434 0.0
H1561 H 0.72138 0.51305 0.95597 0.0
H1562 H 0.67143 0.48562 0.95747 0.0
H1563 H 0.6674 0.49095 0.92595 0.0
H1564 H 0.70047 0.52376 0.9835 0.0
H1565 H 0.70406 0.45075 0.98202 0.0
H1566 H 0.70633 0.46411 0.96237 0.0
H1567 H 0.68475 0.45899 0.971 0.0
C1568 C 0.70728 0.51137 0.93138 0.0
C1569 C 0.69207 0.50525 0.92258 0.0
C1570 C 0.70962 0.50813 0.94944 0.0
C1571 C 0.69686 0.49863 0.959 0.0
C1572 C 0.68166 0.49258 0.95027 0.0
H1573 H 0.66776 0.49989 0.06761 0.0
H1574 H 0.67229 0.50461 0.03608 0.0
C1575 C 0.67932 0.49577 0.93225 0.0
C1576 C 0.69886 0.49582 0.97829 0.0
H1577 H 0.69754 0.46393 0.0102 0.0
C1578 C 0.70007 0.51067 0.98934 0.0
C1579 C 0.69866 0.47873 0.98589 0.0
C1580 C 0.69857 0.46223 0.97469 0.0
C1581 C 0.70018 0.50892 0.0078 0.0
C1582 C 0.6987 0.49189 0.0154 0.0
C1583 C 0.69843 0.477 0.00436 0.0
C1584 C 0.69642 0.48932 0.03469 0.0
C1585 C 0.70172 0.52534 0.019 0.0
C1586 C 0.70825 0.47876 0.04433 0.0
C1587 C 0.70562 0.47589 0.06243 0.0
C1588 C 0.69103 0.48344 0.07115 0.0
C1589 C 0.67919 0.49395 0.06138 0.0
C1590 C 0.68183 0.49678 0.04335 0.0
H1591 H 0.70828 0.53624 0.01166 0.0
H1592 H 0.68829 0.5299 0.02273 0.0
H1593 H 0.7093 0.52272 0.0313 0.0
H1594 H 0.71952 0.47275 0.03786 0.0
H1595 H 0.71496 0.46769 0.06953 0.0
H1596 H 0.51425 0.68932 0.92758 0.0
H1597 H 0.51882 0.69415 0.95911 0.0
H1598 H 0.47262 0.72744 0.96094 0.0
H1599 H 0.46801 0.72288 0.92915 0.0
H1600 H 0.50268 0.73957 0.98217 0.0
H1601 H 0.48466 0.66943 0.9941 0.0
H1602 H 0.50214 0.67245 0.97832 0.0
H1603 H 0.48031 0.68045 0.9734 0.0
C1604 C 0.50512 0.69782 0.9346 0.0
C1605 C 0.49059 0.70551 0.9259 0.0
C1606 C 0.50778 0.70057 0.95263 0.0
C1607 C 0.49589 0.7109 0.96237 0.0
C1608 C 0.4819 0.71937 0.95362 0.0
H1609 H 0.48313 0.69714 0.07475 0.0
H1610 H 0.47802 0.70234 0.04338 0.0
C1611 C 0.47927 0.71672 0.93548 0.0
C1612 C 0.49738 0.71161 0.98186 0.0
H1613 H 0.49629 0.68528 0.0184 0.0
C1614 C 0.50119 0.72776 0.99016 0.0
C1615 C 0.49519 0.69621 0.99221 0.0
C1616 C 0.49019 0.67867 0.98411 0.0
C1617 C 0.50327 0.7288 0.00862 0.0
C1618 C 0.5017 0.71324 0.01888 0.0
C1619 C 0.49758 0.6972 0.01053 0.0
C1620 C 0.50409 0.713 0.03834 0.0
C1621 C 0.50691 0.74652 0.01697 0.0
C1622 C 0.52032 0.7177 0.04607 0.0
C1623 C 0.52324 0.71487 0.06414 0.0
C1624 C 0.51006 0.70702 0.07465 0.0
C1625 C 0.49361 0.70305 0.06698 0.0
C1626 C 0.49065 0.70605 0.04905 0.0
H1627 H 0.50292 0.75757 0.00816 0.0
H1628 H 0.49983 0.74787 0.02975 0.0
H1629 H 0.52129 0.74777 0.01956 0.0
H1630 H 0.53101 0.72275 0.03801 0.0
H1631 H 0.53608 0.71798 0.06967 0.0
H1632 H 0.17189 0.27677 0.49218 0.0
H1633 H 0.19416 0.25493 0.48343 0.0
H1634 H 0.18514 0.22619 0.53182 0.0
H1635 H 0.16278 0.24775 0.54057 0.0
H1636 H 0.22547 0.24391 0.50065 0.0
H1637 H 0.17755 0.18885 0.49316 0.0
H1638 H 0.17075 0.21166 0.49475 0.0
H1639 H 0.17676 0.19958 0.51431 0.0
C1640 C 0.17467 0.26581 0.50097 0.0
C1641 C 0.16546 0.26391 0.517 0.0
C1642 C 0.1874 0.25338 0.49596 0.0
C1643 C 0.19107 0.23882 0.50685 0.0
C1644 C 0.18225 0.23715 0.52307 0.0
H1645 H 0.27954 0.16554 0.50112 0.0
H1646 H 0.25884 0.18898 0.50944 0.0
C1647 C 0.16952 0.24953 0.52807 0.0
C1648 C 0.20399 0.22525 0.50123 0.0
H1649 H 0.20797 0.18134 0.49176 0.0
C1650 C 0.22167 0.23023 0.49864 0.0
C1651 C 0.19891 0.20748 0.49842 0.0
C1652 C 0.17993 0.20155 0.50013 0.0
C1653 C 0.23451 0.21781 0.49359 0.0
C1654 C 0.22953 0.19993 0.49134 0.0
C1655 C 0.21178 0.19503 0.49366 0.0
C1656 C 0.24238 0.18608 0.48621 0.0
C1657 C 0.25321 0.22398 0.49043 0.0
C1658 C 0.23979 0.17644 0.4706 0.0
C1659 C 0.25147 0.16296 0.4659 0.0
C1660 C 0.26597 0.15881 0.47676 0.0
C1661 C 0.26855 0.16847 0.49243 0.0
C1662 C 0.2568 0.18195 0.49715 0.0
H1663 H 0.25387 0.23849 0.48828 0.0
H1664 H 0.2614 0.22077 0.50217 0.0
H1665 H 0.25908 0.21723 0.4788 0.0
H1666 H 0.22869 0.17937 0.46202 0.0
H1667 H 0.24909 0.15578 0.45374 0.0
H1668 H 0.75133 0.14768 0.53233 0.0
H1669 H 0.77296 0.17032 0.52448 0.0
H1670 H 0.73372 0.19693 0.49274 0.0
H1671 H 0.71222 0.17383 0.49994 0.0
H1672 H 0.76386 0.19644 0.47602 0.0
H1673 H 0.77686 0.21888 0.54427 0.0
H1674 H 0.78122 0.19572 0.54197 0.0
H1675 H 0.75905 0.20395 0.53897 0.0
C1676 C 0.74731 0.15837 0.52369 0.0
C1677 C 0.73006 0.15905 0.51683 0.0
C1678 C 0.75964 0.17139 0.51933 0.0
C1679 C 0.75485 0.18562 0.50842 0.0
C1680 C 0.73769 0.18617 0.50132 0.0
H1681 H 0.82364 0.27821 0.49929 0.0
H1682 H 0.79911 0.25822 0.50618 0.0
C1683 C 0.72542 0.17296 0.50542 0.0
C1684 C 0.7679 0.19962 0.50403 0.0
H1685 H 0.79797 0.22785 0.52237 0.0
C1686 C 0.77119 0.20343 0.48617 0.0
C1687 C 0.7772 0.20907 0.51724 0.0
C1688 C 0.77326 0.20684 0.53667 0.0
C1689 C 0.7839 0.21598 0.48115 0.0
C1690 C 0.79409 0.2245 0.49436 0.0
C1691 C 0.79039 0.22113 0.51222 0.0
C1692 C 0.80881 0.23673 0.48995 0.0
C1693 C 0.78605 0.22012 0.46175 0.0
C1694 C 0.82257 0.23123 0.47879 0.0
C1695 C 0.83641 0.24271 0.47462 0.0
C1696 C 0.83702 0.25978 0.4819 0.0
C1697 C 0.82352 0.26513 0.49348 0.0
C1698 C 0.8095 0.25373 0.49741 0.0
H1699 H 0.77368 0.21741 0.45432 0.0
H1700 H 0.78979 0.23415 0.45963 0.0
H1701 H 0.79656 0.21158 0.45613 0.0
H1702 H 0.82269 0.21799 0.47336 0.0
H1703 H 0.84675 0.23813 0.46584 0.0
H1704 H 0.82448 0.7157 0.49632 0.0
H1705 H 0.80083 0.73662 0.48919 0.0
H1706 H 0.82449 0.77519 0.52393 0.0
H1707 H 0.84765 0.75411 0.53166 0.0
H1708 H 0.79019 0.77437 0.52871 0.0
H1709 H 0.80338 0.77816 0.45676 0.0
H1710 H 0.7987 0.75611 0.46407 0.0
H1711 H 0.81823 0.76727 0.47188 0.0
C1712 C 0.82464 0.72866 0.50238 0.0
C1713 C 0.83794 0.73329 0.51449 0.0
C1714 C 0.81119 0.74065 0.49821 0.0
C1715 C 0.81106 0.75762 0.50575 0.0
C1716 C 0.82432 0.7622 0.5179 0.0
H1717 H 0.75308 0.84797 0.4667 0.0
H1718 H 0.77516 0.82584 0.47476 0.0
C1719 C 0.83757 0.75014 0.52229 0.0
C1720 C 0.797 0.77059 0.50132 0.0
H1721 H 0.77725 0.7922 0.46699 0.0
C1722 C 0.7874 0.77831 0.51521 0.0
C1723 C 0.7935 0.77591 0.48373 0.0
C1724 C 0.80411 0.76907 0.46827 0.0
C1725 C 0.77447 0.79123 0.51202 0.0
C1726 C 0.77057 0.79612 0.49438 0.0
C1727 C 0.78013 0.78835 0.48049 0.0
C1728 C 0.75708 0.80969 0.48999 0.0
C1729 C 0.76558 0.79989 0.52764 0.0
C1730 C 0.73953 0.808 0.49583 0.0
C1731 C 0.72695 0.82083 0.49151 0.0
C1732 C 0.7316 0.83536 0.48091 0.0
C1733 C 0.74909 0.83691 0.47488 0.0
C1734 C 0.76172 0.82425 0.47945 0.0
H1735 H 0.77368 0.79865 0.53983 0.0
H1736 H 0.76309 0.81413 0.52514 0.0
H1737 H 0.75272 0.7933 0.53014 0.0
H1738 H 0.73549 0.79664 0.50354 0.0
H1739 H 0.7135 0.81919 0.49616 0.0
H1740 H 0.17151 0.71557 0.50427 0.0
H1741 H 0.19424 0.73669 0.51365 0.0
H1742 H 0.18576 0.76704 0.46615 0.0
H1743 H 0.16297 0.7462 0.45677 0.0
H1744 H 0.22581 0.7476 0.49646 0.0
H1745 H 0.17905 0.80329 0.50612 0.0
H1746 H 0.17181 0.78066 0.50394 0.0
H1747 H 0.1778 0.7932 0.48467 0.0
C1748 C 0.1745 0.72673 0.49582 0.0
C1749 C 0.16533 0.72929 0.47985 0.0
C1750 C 0.1875 0.73875 0.50118 0.0
C1751 C 0.19146 0.75354 0.49071 0.0
C1752 C 0.18265 0.75588 0.47457 0.0
H1753 H 0.28108 0.82511 0.49641 0.0
H1754 H 0.25996 0.80197 0.4883 0.0
C1755 C 0.16967 0.74391 0.46921 0.0
C1756 C 0.20469 0.76667 0.49668 0.0
H1757 H 0.20965 0.81022 0.50723 0.0
C1758 C 0.2223 0.76128 0.4989 0.0
C1759 C 0.19999 0.78443 0.50005 0.0
C1760 C 0.18111 0.79076 0.49875 0.0
C1761 C 0.23546 0.77333 0.50407 0.0
C1762 C 0.23085 0.79124 0.50683 0.0
C1763 C 0.21317 0.79652 0.50494 0.0
C1764 C 0.24408 0.80476 0.51193 0.0
C1765 C 0.25409 0.76675 0.50677 0.0
C1766 C 0.24196 0.81421 0.52773 0.0
C1767 C 0.25389 0.82752 0.53232 0.0
C1768 C 0.26815 0.83169 0.52115 0.0
C1769 C 0.27029 0.82216 0.50534 0.0
C1770 C 0.2583 0.80885 0.50074 0.0
H1771 H 0.25448 0.75219 0.50865 0.0
H1772 H 0.26211 0.77 0.49493 0.0
H1773 H 0.26031 0.77317 0.5184 0.0
H1774 H 0.23102 0.81131 0.53651 0.0
H1775 H 0.25186 0.8346 0.54459 0.0
H1776 H 0.52998 0.15306 0.24145 0.0
H1777 H 0.52124 0.17672 0.22135 0.0
H1778 H 0.49224 0.20195 0.26348 0.0
H1779 H 0.50032 0.17781 0.28349 0.0
H1780 H 0.47358 0.20261 0.23464 0.0
H1781 H 0.54081 0.22533 0.21764 0.0
H1782 H 0.5383 0.20232 0.2127 0.0
H1783 H 0.53674 0.20981 0.23527 0.0
C1784 C 0.52179 0.16368 0.24646 0.0
C1785 C 0.51591 0.16364 0.26406 0.0
C1786 C 0.51693 0.1773 0.23499 0.0
C1787 C 0.50648 0.1914 0.24101 0.0
C1788 C 0.50044 0.19129 0.25857 0.0
H1789 H 0.49298 0.28413 0.17281 0.0
H1790 H 0.50127 0.26464 0.1973 0.0
C1791 C 0.50505 0.1775 0.26998 0.0
C1792 C 0.50127 0.20582 0.22874 0.0
H1793 H 0.51758 0.23436 0.19785 0.0
C1794 C 0.48323 0.20971 0.22676 0.0
C1795 C 0.51385 0.21542 0.21874 0.0
C1796 C 0.5335 0.21314 0.22135 0.0
C1797 C 0.47739 0.22239 0.21455 0.0
C1798 C 0.48988 0.23094 0.20353 0.0
C1799 C 0.50796 0.22759 0.20604 0.0
C1800 C 0.48448 0.24299 0.189 0.0
C1801 C 0.45789 0.22655 0.21374 0.0
C1802 C 0.47248 0.23724 0.17606 0.0
C1803 C 0.46753 0.24843 0.16225 0.0
C1804 C 0.47482 0.26545 0.16085 0.0
C1805 C 0.48714 0.27108 0.17356 0.0
C1806 C 0.49188 0.25996 0.18756 0.0
H1807 H 0.45137 0.22397 0.22665 0.0
H1808 H 0.45552 0.24055 0.21003 0.0
H1809 H 0.4515 0.21791 0.20376 0.0
H1810 H 0.46706 0.224 0.1765 0.0
H1811 H 0.45818 0.24364 0.15253 0.0
H1812 H 0.83512 0.53679 0.24909 0.0
H1813 H 0.81209 0.52994 0.22753 0.0
H1814 H 0.80071 0.48128 0.25495 0.0
H1815 H 0.82357 0.48818 0.27682 0.0
H1816 H 0.81011 0.50174 0.20518 0.0
H1817 H 0.75177 0.5031 0.24958 0.0
H1818 H 0.77302 0.51185 0.25602 0.0
H1819 H 0.76898 0.48845 0.25682 0.0
C1820 C 0.82766 0.52467 0.25062 0.0
C1821 C 0.83114 0.51305 0.26471 0.0
C1822 C 0.8145 0.52078 0.23828 0.0
C1823 C 0.80452 0.50523 0.23977 0.0
C1824 C 0.80799 0.49354 0.25377 0.0
H1825 H 0.7448 0.45501 0.15608 0.0
H1826 H 0.76634 0.46327 0.17865 0.0
C1827 C 0.82114 0.49746 0.26619 0.0
C1828 C 0.79098 0.50098 0.22624 0.0
H1829 H 0.7471 0.49198 0.22052 0.0
C1830 C 0.79632 0.49967 0.20853 0.0
C1831 C 0.77295 0.49853 0.2306 0.0
C1832 C 0.76626 0.50071 0.24926 0.0
C1833 C 0.78419 0.49567 0.19508 0.0
C1834 C 0.76629 0.49256 0.19952 0.0
C1835 C 0.76087 0.4942 0.21718 0.0
C1836 C 0.75304 0.48749 0.18601 0.0
C1837 C 0.79062 0.49506 0.1762 0.0
C1838 C 0.73814 0.49813 0.18298 0.0
C1839 C 0.7257 0.49338 0.17015 0.0
C1840 C 0.72792 0.47786 0.16017 0.0
C1841 C 0.74275 0.46713 0.16342 0.0
C1842 C 0.75514 0.47186 0.17626 0.0
H1843 H 0.80321 0.50244 0.17452 0.0
H1844 H 0.79305 0.48111 0.17239 0.0
H1845 H 0.78062 0.50065 0.16703 0.0
H1846 H 0.73623 0.5102 0.19044 0.0
H1847 H 0.71439 0.50189 0.16801 0.0
H1848 H 0.49354 0.72164 0.17005 0.0
H1849 H 0.48537 0.74325 0.19273 0.0
H1850 H 0.53475 0.77057 0.18464 0.0
H1851 H 0.54294 0.74922 0.16186 0.0
H1852 H 0.50295 0.75262 0.22434 0.0
H1853 H 0.49743 0.80949 0.17829 0.0
H1854 H 0.49824 0.78688 0.17073 0.0
H1855 H 0.51819 0.79804 0.17723 0.0
C1856 C 0.50266 0.73225 0.17309 0.0
C1857 C 0.51883 0.7338 0.16406 0.0
C1858 C 0.49798 0.74456 0.18607 0.0
C1859 C 0.50935 0.75864 0.19015 0.0
C1860 C 0.52565 0.75999 0.18143 0.0
H1861 H 0.50436 0.82913 0.2811 0.0
H1862 H 0.51277 0.80649 0.25955 0.0
C1863 C 0.53033 0.74773 0.16847 0.0
C1864 C 0.50416 0.77196 0.20351 0.0
H1865 H 0.49581 0.81595 0.20891 0.0
C1866 C 0.50134 0.76646 0.221 0.0
C1867 C 0.50189 0.78996 0.19902 0.0
C1868 C 0.50393 0.79648 0.18027 0.0
C1869 C 0.49653 0.77858 0.23421 0.0
C1870 C 0.49474 0.79666 0.22981 0.0
C1871 C 0.49735 0.8021 0.21227 0.0
C1872 C 0.48967 0.81014 0.24306 0.0
C1873 C 0.49309 0.77188 0.25267 0.0
C1874 C 0.47411 0.81993 0.24072 0.0
C1875 C 0.46934 0.83293 0.25291 0.0
C1876 C 0.48011 0.83645 0.26765 0.0
C1877 C 0.49575 0.82668 0.26993 0.0
C1878 C 0.50052 0.81366 0.2577 0.0
H1879 H 0.4908 0.75737 0.25288 0.0
H1880 H 0.50475 0.77474 0.2611 0.0
H1881 H 0.48144 0.77856 0.25859 0.0
H1882 H 0.46559 0.81746 0.22947 0.0
H1883 H 0.45721 0.84022 0.25074 0.0
H1884 H 0.16524 0.50466 0.27841 0.0
H1885 H 0.18759 0.51377 0.2568 0.0
H1886 H 0.17852 0.46595 0.22716 0.0
H1887 H 0.15604 0.45688 0.24846 0.0
H1888 H 0.21867 0.49688 0.24662 0.0
H1889 H 0.17306 0.50443 0.18972 0.0
H1890 H 0.16532 0.50257 0.21221 0.0
H1891 H 0.17177 0.48315 0.20013 0.0
C1892 C 0.16796 0.49612 0.26726 0.0
C1893 C 0.15878 0.4801 0.26509 0.0
C1894 C 0.18074 0.50133 0.25494 0.0
C1895 C 0.18449 0.49067 0.24024 0.0
C1896 C 0.17555 0.47456 0.2382 0.0
H1897 H 0.27631 0.49443 0.1713 0.0
H1898 H 0.25425 0.48684 0.19372 0.0
C1899 C 0.16276 0.46936 0.25045 0.0
C1900 C 0.19794 0.49622 0.22712 0.0
H1901 H 0.20384 0.50501 0.18326 0.0
C1902 C 0.21543 0.49875 0.23278 0.0
C1903 C 0.19363 0.49887 0.20912 0.0
C1904 C 0.17489 0.49729 0.20243 0.0
C1905 C 0.22882 0.50351 0.22083 0.0
C1906 C 0.22463 0.50548 0.20271 0.0
C1907 C 0.20706 0.5033 0.19713 0.0
C1908 C 0.23817 0.51009 0.18932 0.0
C1909 C 0.24727 0.50663 0.22776 0.0
C1910 C 0.23622 0.52544 0.17911 0.0
C1911 C 0.24869 0.52972 0.16618 0.0
C1912 C 0.26334 0.51869 0.16317 0.0
C1913 C 0.26523 0.50326 0.17336 0.0
C1914 C 0.2527 0.49896 0.18627 0.0
H1915 H 0.24726 0.50925 0.24221 0.0
H1916 H 0.25541 0.49468 0.22536 0.0
H1917 H 0.25362 0.51796 0.22092 0.0
H1918 H 0.22506 0.53417 0.18119 0.0
H1919 H 0.24683 0.5417 0.15857 0.0
H1920 H 0.49982 0.71729 0.82255 0.0
H1921 H 0.50778 0.73824 0.7992 0.0
H1922 H 0.47533 0.77812 0.82387 0.0
H1923 H 0.4667 0.75703 0.84671 0.0
H1924 H 0.47024 0.77841 0.78977 0.0
H1925 H 0.54246 0.77775 0.80205 0.0
H1926 H 0.53388 0.75626 0.79693 0.0
H1927 H 0.52694 0.76734 0.81682 0.0
C1928 C 0.49444 0.73055 0.82299 0.0
C1929 C 0.4827 0.73556 0.83648 0.0
C1930 C 0.49909 0.74255 0.80971 0.0
C1931 C 0.49245 0.75989 0.80996 0.0
C1932 C 0.48067 0.76484 0.82341 0.0
H1933 H 0.53598 0.84932 0.75405 0.0
H1934 H 0.52703 0.82688 0.77545 0.0
C1935 C 0.47577 0.75278 0.83648 0.0
C1936 C 0.49745 0.77288 0.79611 0.0
H1937 H 0.53273 0.79293 0.77638 0.0
C1938 C 0.48391 0.78163 0.78688 0.0
C1939 C 0.51528 0.77724 0.79248 0.0
C1940 C 0.53046 0.7693 0.80271 0.0
C1941 C 0.48767 0.79467 0.77424 0.0
C1942 C 0.50551 0.79863 0.77021 0.0
C1943 C 0.51905 0.7898 0.77936 0.0
C1944 C 0.51051 0.81237 0.75711 0.0
C1945 C 0.47245 0.80447 0.76583 0.0
C1946 C 0.50427 0.81169 0.73963 0.0
C1947 C 0.50909 0.82475 0.72745 0.0
C1948 C 0.52062 0.83843 0.73243 0.0
C1949 C 0.52709 0.83892 0.74982 0.0
C1950 C 0.52201 0.82608 0.76206 0.0
H1951 H 0.46031 0.8037 0.77407 0.0
H1952 H 0.47574 0.81862 0.76371 0.0
H1953 H 0.46939 0.79842 0.75284 0.0
H1954 H 0.49581 0.80098 0.73533 0.0
H1955 H 0.50408 0.82392 0.71406 0.0
H1956 H 0.25049 0.4602 0.84103 0.0
H1957 H 0.22875 0.46797 0.81848 0.0
H1958 H 0.25801 0.51537 0.80638 0.0
H1959 H 0.28005 0.50756 0.82879 0.0
H1960 H 0.20759 0.4975 0.81649 0.0
H1961 H 0.25128 0.49275 0.75774 0.0
H1962 H 0.2574 0.48392 0.77905 0.0
H1963 H 0.25932 0.50721 0.77476 0.0
C1964 C 0.25237 0.47226 0.83354 0.0
C1965 C 0.26705 0.48323 0.83667 0.0
C1966 C 0.23991 0.47667 0.82066 0.0
C1967 C 0.24189 0.49211 0.81059 0.0
C1968 C 0.25642 0.50321 0.81376 0.0
H1969 H 0.15917 0.54307 0.74952 0.0
H1970 H 0.18188 0.53531 0.77112 0.0
C1971 C 0.26894 0.49878 0.82665 0.0
C1972 C 0.22842 0.49674 0.79712 0.0
H1973 H 0.22252 0.50441 0.75302 0.0
C1974 C 0.21084 0.49899 0.80261 0.0
C1975 C 0.23266 0.49843 0.77899 0.0
C1976 C 0.25115 0.4953 0.7722 0.0
C1977 C 0.19741 0.50311 0.79049 0.0
C1978 C 0.20174 0.50532 0.77244 0.0
C1979 C 0.21927 0.50284 0.7669 0.0
C1980 C 0.18822 0.51016 0.7591 0.0
C1981 C 0.17865 0.50473 0.79709 0.0
C1982 C 0.18457 0.49879 0.7449 0.0
C1983 C 0.17165 0.50324 0.73244 0.0
C1984 C 0.16221 0.51918 0.73393 0.0
C1985 C 0.1661 0.53064 0.74804 0.0
C1986 C 0.17902 0.52619 0.76046 0.0
H1987 H 0.17686 0.49814 0.81009 0.0
H1988 H 0.17533 0.51892 0.79873 0.0
H1989 H 0.16917 0.4989 0.78752 0.0
H1990 H 0.1916 0.48639 0.74357 0.0
H1991 H 0.16901 0.49416 0.72169 0.0
H1992 H 0.46109 0.15377 0.75042 0.0
H1993 H 0.4691 0.17759 0.7706 0.0
H1994 H 0.50097 0.20161 0.72983 0.0
H1995 H 0.49358 0.17731 0.70976 0.0
H1996 H 0.51804 0.20207 0.75969 0.0
H1997 H 0.45063 0.22676 0.77267 0.0
H1998 H 0.45219 0.20373 0.77794 0.0
H1999 H 0.45525 0.21096 0.75544 0.0
C2000 C 0.46974 0.16417 0.74571 0.0
C2001 C 0.47664 0.16373 0.72849 0.0
C2002 C 0.47418 0.17788 0.75722 0.0
C2003 C 0.48526 0.19167 0.75161 0.0
C2004 C 0.49227 0.1912 0.73442 0.0
H2005 H 0.49789 0.28442 0.82 0.0
H2006 H 0.4902 0.26506 0.7952 0.0
C2007 C 0.48806 0.17731 0.72297 0.0
C2008 C 0.49016 0.20609 0.76399 0.0
H2009 H 0.47294 0.23524 0.79378 0.0
C2010 C 0.50816 0.20948 0.76697 0.0
C2011 C 0.47731 0.21609 0.77321 0.0
C2012 C 0.45779 0.21434 0.76949 0.0
C2013 C 0.51366 0.22204 0.77945 0.0
C2014 C 0.50081 0.23098 0.78971 0.0
C2015 C 0.48281 0.22816 0.78617 0.0
C2016 C 0.50573 0.24288 0.80451 0.0
C2017 C 0.5332 0.22564 0.78138 0.0
C2018 C 0.51676 0.23678 0.81814 0.0
C2019 C 0.52137 0.24788 0.83212 0.0
C2020 C 0.51468 0.26518 0.83302 0.0
C2021 C 0.50325 0.27115 0.81964 0.0
C2022 C 0.49887 0.26011 0.80547 0.0
H2023 H 0.54038 0.22281 0.76888 0.0
H2024 H 0.53576 0.23958 0.78518 0.0
H2025 H 0.53873 0.21686 0.79174 0.0
H2026 H 0.52172 0.22336 0.81805 0.0
H2027 H 0.53002 0.24283 0.84236 0.0
H2028 H 0.75099 0.52847 0.84387 0.0
H2029 H 0.77174 0.52155 0.82017 0.0
H2030 H 0.7319 0.48992 0.79437 0.0
H2031 H 0.71123 0.49626 0.81847 0.0
H2032 H 0.76252 0.47353 0.79371 0.0
H2033 H 0.7733 0.54231 0.77168 0.0
H2034 H 0.77841 0.53981 0.79467 0.0
H2035 H 0.75608 0.53643 0.78708 0.0
C2036 C 0.74663 0.52006 0.83314 0.0
C2037 C 0.72945 0.51299 0.83298 0.0
C2038 C 0.75846 0.51624 0.81951 0.0
C2039 C 0.75325 0.5056 0.80523 0.0
C2040 C 0.73617 0.49829 0.80517 0.0
H2041 H 0.81973 0.49854 0.71067 0.0
H2042 H 0.7954 0.5047 0.73114 0.0
C2043 C 0.72439 0.50191 0.81896 0.0
C2044 C 0.76583 0.50166 0.7907 0.0
H2045 H 0.79461 0.52098 0.7618 0.0
C2046 C 0.7694 0.48392 0.7866 0.0
C2047 C 0.77453 0.51518 0.78111 0.0
C2048 C 0.77023 0.53448 0.78372 0.0
C2049 C 0.78189 0.47933 0.77368 0.0
C2050 C 0.79152 0.49286 0.76502 0.0
C2051 C 0.78746 0.5106 0.76863 0.0
C2052 C 0.8061 0.48891 0.75249 0.0
C2053 C 0.78446 0.46004 0.76934 0.0
C2054 C 0.82035 0.47825 0.75777 0.0
C2055 C 0.8341 0.47454 0.74604 0.0
C2056 C 0.8341 0.48174 0.72892 0.0
C2057 C 0.82008 0.4928 0.72378 0.0
C2058 C 0.80618 0.49631 0.73546 0.0
H2059 H 0.77237 0.45224 0.77232 0.0
H2060 H 0.78788 0.45812 0.7552 0.0
H2061 H 0.79535 0.45465 0.77755 0.0
H2062 H 0.82091 0.47288 0.77102 0.0
H2063 H 0.84482 0.46615 0.75047 0.0
loop_
_geom_bond_atom_site_label_1
_geom_bond_atom_site_label_2
_geom_bond_distance
_geom_bond_site_symmetry_2
_ccdc_geom_bond_type
O0 Cd1 2.223 . S
O0 C8 1.315 . S
Cd1 O0 2.223 . S
Cd1 O4 2.297 . S
Cd1 O5 2.439 . S
Cd1 O11 2.240 . S
Cd2 O3 2.240 . S
Cd2 O10 2.223 . S
Cd2 O12 2.297 . S
Cd2 O13 2.439 . S
O3 Cd2 2.240 . S
O3 C8 1.279 . S
O4 Cd1 2.297 . S
O4 C6 1.247 . S
O5 Cd1 2.439 . S
O5 C6 1.208 . S
C6 O4 1.247 . S
C6 O5 1.208 . S
C7 O12 1.247 . S
C7 O13 1.208 . S
C8 O0 1.315 . S
C8 O3 1.279 . S
C9 O10 1.315 . S
C9 O11 1.279 . S
O10 Cd2 2.223 . S
O10 C9 1.315 . S
O11 Cd1 2.240 . S
O11 C9 1.279 . S
O12 Cd2 2.297 . S
O12 C7 1.247 . S
O13 Cd2 2.439 . S
O13 C7 1.208 . S
O14 Cd15 2.223 . S
O14 C22 1.315 . S
Cd15 O14 2.223 . S
Cd15 O18 2.297 . S
Cd15 O19 2.439 . S
Cd15 O25 2.240 . S
Cd16 O17 2.240 . S
Cd16 O24 2.223 . S
Cd16 O26 2.297 . S
Cd16 O27 2.439 . S
O17 Cd16 2.240 . S
O17 C22 1.279 . S
O18 Cd15 2.297 . S
O18 C20 1.247 . S
O19 Cd15 2.439 . S
O19 C20 1.208 . S
C20 O18 1.247 . S
C20 O19 1.208 . S
C21 O26 1.247 . S
C21 O27 1.208 . S
C22 O14 1.315 . S
C22 O17 1.279 . S
C23 O24 1.315 . S
C23 O25 1.279 . S
O24 Cd16 2.223 . S
O24 C23 1.315 . S
O25 Cd15 2.240 . S
O25 C23 1.279 . S
O26 Cd16 2.297 . S
O26 C21 1.247 . S
O27 Cd16 2.439 . S
O27 C21 1.208 . S
O28 Cd29 2.223 . S
O28 C36 1.315 . S
Cd29 O28 2.223 . S
Cd29 O32 2.297 . S
Cd29 O33 2.439 . S
Cd29 O39 2.240 . S
Cd30 O31 2.240 . S
Cd30 O38 2.223 . S
Cd30 O40 2.297 . S
Cd30 O41 2.439 . S
O31 Cd30 2.240 . S
O31 C36 1.279 . S
O32 Cd29 2.297 . S
O32 C34 1.247 . S
O33 Cd29 2.439 . S
O33 C34 1.208 . S
C34 O32 1.247 . S
C34 O33 1.208 . S
C35 O40 1.247 . S
C35 O41 1.208 . S
C36 O28 1.315 . S
C36 O31 1.279 . S
C37 O38 1.315 . S
C37 O39 1.279 . S
O38 Cd30 2.223 . S
O38 C37 1.315 . S
O39 Cd29 2.240 . S
O39 C37 1.279 . S
O40 Cd30 2.297 . S
O40 C35 1.247 . S
O41 Cd30 2.439 . S
O41 C35 1.208 . S
O42 Cd43 2.223 . S
O42 C50 1.315 . S
Cd43 O42 2.223 . S
Cd43 O46 2.297 . S
Cd43 O47 2.439 . S
Cd43 O53 2.240 . S
Cd44 O45 2.240 . S
Cd44 O52 2.223 . S
Cd44 O54 2.297 . S
Cd44 O55 2.439 . S
O45 Cd44 2.240 . S
O45 C50 1.279 . S
O46 Cd43 2.297 . S
O46 C48 1.247 . S
O47 Cd43 2.439 . S
O47 C48 1.208 . S
C48 O46 1.247 . S
C48 O47 1.208 . S
C49 O54 1.247 . S
C49 O55 1.208 . S
C50 O42 1.315 . S
C50 O45 1.279 . S
C51 O52 1.315 . S
C51 O53 1.279 . S
O52 Cd44 2.223 . S
O52 C51 1.315 . S
O53 Cd43 2.240 . S
O53 C51 1.279 . S
O54 Cd44 2.297 . S
O54 C49 1.247 . S
O55 Cd44 2.439 . S
O55 C49 1.208 . S
O56 Cd57 2.223 . S
O56 C64 1.315 . S
Cd57 O56 2.223 . S
Cd57 O60 2.297 . S
Cd57 O61 2.439 . S
Cd57 O67 2.240 . S
Cd58 O59 2.240 . S
Cd58 O66 2.223 . S
Cd58 O68 2.297 . S
Cd58 O69 2.439 . S
O59 Cd58 2.240 . S
O59 C64 1.279 . S
O60 Cd57 2.297 . S
O60 C62 1.247 . S
O61 Cd57 2.439 . S
O61 C62 1.208 . S
C62 O60 1.247 . S
C62 O61 1.208 . S
C63 O68 1.247 . S
C63 O69 1.208 . S
C64 O56 1.315 . S
C64 O59 1.279 . S
C65 O66 1.315 . S
C65 O67 1.279 . S
O66 Cd58 2.223 . S
O66 C65 1.315 . S
O67 Cd57 2.240 . S
O67 C65 1.279 . S
O68 Cd58 2.297 . S
O68 C63 1.247 . S
O69 Cd58 2.439 . S
O69 C63 1.208 . S
O70 Cd71 2.223 . S
O70 C78 1.315 . S
Cd71 O70 2.223 . S
Cd71 O74 2.297 . S
Cd71 O75 2.439 . S
Cd71 O81 2.240 . S
Cd72 O73 2.240 . S
Cd72 O80 2.223 . S
Cd72 O82 2.297 . S
Cd72 O83 2.439 . S
O73 Cd72 2.240 . S
O73 C78 1.279 . S
O74 Cd71 2.297 . S
O74 C76 1.247 . S
O75 Cd71 2.439 . S
O75 C76 1.208 . S
C76 O74 1.247 . S
C76 O75 1.208 . S
C77 O82 1.247 . S
C77 O83 1.208 . S
C78 O70 1.315 . S
C78 O73 1.279 . S
C79 O80 1.315 . S
C79 O81 1.279 . S
O80 Cd72 2.223 . S
O80 C79 1.315 . S
O81 Cd71 2.240 . S
O81 C79 1.279 . S
O82 Cd72 2.297 . S
O82 C77 1.247 . S
O83 Cd72 2.439 . S
O83 C77 1.208 . S
O84 Cd85 2.223 . S
O84 C92 1.315 . S
Cd85 O84 2.223 . S
Cd85 O88 2.297 . S
Cd85 O89 2.439 . S
Cd85 O95 2.240 . S
Cd86 O87 2.240 . S
Cd86 O94 2.223 . S
Cd86 O96 2.297 . S
Cd86 O97 2.439 . S
O87 Cd86 2.240 . S
O87 C92 1.279 . S
O88 Cd85 2.297 . S
O88 C90 1.247 . S
O89 Cd85 2.439 . S
O89 C90 1.208 . S
C90 O88 1.247 . S
C90 O89 1.208 . S
C91 O96 1.247 . S
C91 O97 1.208 . S
C92 O84 1.315 . S
C92 O87 1.279 . S
C93 O94 1.315 . S
C93 O95 1.279 . S
O94 Cd86 2.223 . S
O94 C93 1.315 . S
O95 Cd85 2.240 . S
O95 C93 1.279 . S
O96 Cd86 2.297 . S
O96 C91 1.247 . S
O97 Cd86 2.439 . S
O97 C91 1.208 . S
O98 Cd99 2.223 . S
O98 C106 1.315 . S
Cd99 O98 2.223 . S
Cd99 O102 2.297 . S
Cd99 O103 2.439 . S
Cd99 O109 2.240 . S
Cd100 O101 2.240 . S
Cd100 O108 2.223 . S
Cd100 O110 2.297 . S
Cd100 O111 2.439 . S
O101 Cd100 2.240 . S
O101 C106 1.279 . S
O102 Cd99 2.297 . S
O102 C104 1.247 . S
O103 Cd99 2.439 . S
O103 C104 1.208 . S
C104 O102 1.247 . S
C104 O103 1.208 . S
C105 O110 1.247 . S
C105 O111 1.208 . S
C106 O98 1.315 . S
C106 O101 1.279 . S
C107 O108 1.315 . S
C107 O109 1.279 . S
O108 Cd100 2.223 . S
O108 C107 1.315 . S
O109 Cd99 2.240 . S
O109 C107 1.279 . S
O110 Cd100 2.297 . S
O110 C105 1.247 . S
O111 Cd100 2.439 . S
O111 C105 1.208 . S
O112 Cd113 2.223 . S
O112 C120 1.315 . S
Cd113 O112 2.223 . S
Cd113 O116 2.297 . S
Cd113 O117 2.439 . S
Cd113 O123 2.240 . S
Cd114 O115 2.240 . S
Cd114 O122 2.223 . S
Cd114 O124 2.297 . S
Cd114 O125 2.439 . S
O115 Cd114 2.240 . S
O115 C120 1.279 . S
O116 Cd113 2.297 . S
O116 C118 1.247 . S
O117 Cd113 2.439 . S
O117 C118 1.208 . S
C118 O116 1.247 . S
C118 O117 1.208 . S
C119 O124 1.247 . S
C119 O125 1.208 . S
C120 O112 1.315 . S
C120 O115 1.279 . S
C121 O122 1.315 . S
C121 O123 1.279 . S
O122 Cd114 2.223 . S
O122 C121 1.315 . S
O123 Cd113 2.240 . S
O123 C121 1.279 . S
O124 Cd114 2.297 . S
O124 C119 1.247 . S
O125 Cd114 2.439 . S
O125 C119 1.208 . S
O126 Cd127 2.223 . S
O126 C134 1.315 . S
Cd127 O126 2.223 . S
Cd127 O130 2.297 . S
Cd127 O131 2.439 . S
Cd127 O137 2.240 . S
Cd128 O129 2.240 . S
Cd128 O136 2.223 . S
Cd128 O138 2.297 . S
Cd128 O139 2.439 . S
O129 Cd128 2.240 . S
O129 C134 1.279 . S
O130 Cd127 2.297 . S
O130 C132 1.247 . S
O131 Cd127 2.439 . S
O131 C132 1.208 . S
C132 O130 1.247 . S
C132 O131 1.208 . S
C133 O138 1.247 . S
C133 O139 1.208 . S
C134 O126 1.315 . S
C134 O129 1.279 . S
C135 O136 1.315 . S
C135 O137 1.279 . S
O136 Cd128 2.223 . S
O136 C135 1.315 . S
O137 Cd127 2.240 . S
O137 C135 1.279 . S
O138 Cd128 2.297 . S
O138 C133 1.247 . S
O139 Cd128 2.439 . S
O139 C133 1.208 . S
O140 Cd141 2.223 . S
O140 C148 1.315 . S
Cd141 O140 2.223 . S
Cd141 O144 2.297 . S
Cd141 O145 2.439 . S
Cd141 O151 2.240 . S
Cd142 O143 2.240 . S
Cd142 O150 2.223 . S
Cd142 O152 2.297 . S
Cd142 O153 2.439 . S
O143 Cd142 2.240 . S
O143 C148 1.279 . S
O144 Cd141 2.297 . S
O144 C146 1.247 . S
O145 Cd141 2.439 . S
O145 C146 1.208 . S
C146 O144 1.247 . S
C146 O145 1.208 . S
C147 O152 1.247 . S
C147 O153 1.208 . S
C148 O140 1.315 . S
C148 O143 1.279 . S
C149 O150 1.315 . S
C149 O151 1.279 . S
O150 Cd142 2.223 . S
O150 C149 1.315 . S
O151 Cd141 2.240 . S
O151 C149 1.279 . S
O152 Cd142 2.297 . S
O152 C147 1.247 . S
O153 Cd142 2.439 . S
O153 C147 1.208 . S
O154 Cd155 2.223 . S
O154 C162 1.315 . S
Cd155 O154 2.223 . S
Cd155 O158 2.297 . S
Cd155 O159 2.439 . S
Cd155 O165 2.240 . S
Cd156 O157 2.240 . S
Cd156 O164 2.223 . S
Cd156 O166 2.297 . S
Cd156 O167 2.439 . S
O157 Cd156 2.240 . S
O157 C162 1.279 . S
O158 Cd155 2.297 . S
O158 C160 1.247 . S
O159 Cd155 2.439 . S
O159 C160 1.208 . S
C160 O158 1.247 . S
C160 O159 1.208 . S
C161 O166 1.247 . S
C161 O167 1.208 . S
C162 O154 1.315 . S
C162 O157 1.279 . S
C163 O164 1.315 . S
C163 O165 1.279 . S
O164 Cd156 2.223 . S
O164 C163 1.315 . S
O165 Cd155 2.240 . S
O165 C163 1.279 . S
O166 Cd156 2.297 . S
O166 C161 1.247 . S
O167 Cd156 2.439 . S
O167 C161 1.208 . S
O168 Cd169 2.223 . S
O168 C176 1.315 . S
Cd169 O168 2.223 . S
Cd169 O172 2.297 . S
Cd169 O173 2.439 . S
Cd169 O179 2.240 . S
Cd170 O171 2.240 . S
Cd170 O178 2.223 . S
Cd170 O180 2.297 . S
Cd170 O181 2.439 . S
O171 Cd170 2.240 . S
O171 C176 1.279 . S
O172 Cd169 2.297 . S
O172 C174 1.247 . S
O173 Cd169 2.439 . S
O173 C174 1.208 . S
C174 O172 1.247 . S
C174 O173 1.208 . S
C175 O180 1.247 . S
C175 O181 1.208 . S
C176 O168 1.315 . S
C176 O171 1.279 . S
C177 O178 1.315 . S
C177 O179 1.279 . S
O178 Cd170 2.223 . S
O178 C177 1.315 . S
O179 Cd169 2.240 . S
O179 C177 1.279 . S
O180 Cd170 2.297 . S
O180 C175 1.247 . S
O181 Cd170 2.439 . S
O181 C175 1.208 . S
O182 Cd183 2.223 . S
O182 C190 1.315 . S
Cd183 O182 2.223 . S
Cd183 O186 2.297 . S
Cd183 O187 2.439 . S
Cd183 O193 2.240 . S
Cd184 O185 2.240 . S
Cd184 O192 2.223 . S
Cd184 O194 2.297 . S
Cd184 O195 2.439 . S
O185 Cd184 2.240 . S
O185 C190 1.279 . S
O186 Cd183 2.297 . S
O186 C188 1.247 . S
O187 Cd183 2.439 . S
O187 C188 1.208 . S
C188 O186 1.247 . S
C188 O187 1.208 . S
C189 O194 1.247 . S
C189 O195 1.208 . S
C190 O182 1.315 . S
C190 O185 1.279 . S
C191 O192 1.315 . S
C191 O193 1.279 . S
O192 Cd184 2.223 . S
O192 C191 1.315 . S
O193 Cd183 2.240 . S
O193 C191 1.279 . S
O194 Cd184 2.297 . S
O194 C189 1.247 . S
O195 Cd184 2.439 . S
O195 C189 1.208 . S
O196 Cd197 2.223 . S
O196 C204 1.315 . S
Cd197 O196 2.223 . S
Cd197 O200 2.297 . S
Cd197 O201 2.439 . S
Cd197 O207 2.240 . S
Cd198 O199 2.240 . S
Cd198 O206 2.223 . S
Cd198 O208 2.297 . S
Cd198 O209 2.439 . S
O199 Cd198 2.240 . S
O199 C204 1.279 . S
O200 Cd197 2.297 . S
O200 C202 1.247 . S
O201 Cd197 2.439 . S
O201 C202 1.208 . S
C202 O200 1.247 . S
C202 O201 1.208 . S
C203 O208 1.247 . S
C203 O209 1.208 . S
C204 O196 1.315 . S
C204 O199 1.279 . S
C205 O206 1.315 . S
C205 O207 1.279 . S
O206 Cd198 2.223 . S
O206 C205 1.315 . S
O207 Cd197 2.240 . S
O207 C205 1.279 . S
O208 Cd198 2.297 . S
O208 C203 1.247 . S
O209 Cd198 2.439 . S
O209 C203 1.208 . S
O210 Cd211 2.223 . S
O210 C218 1.315 . S
Cd211 O210 2.223 . S
Cd211 O214 2.297 . S
Cd211 O215 2.439 . S
Cd211 O221 2.240 . S
Cd212 O213 2.240 . S
Cd212 O220 2.223 . S
Cd212 O222 2.297 . S
Cd212 O223 2.439 . S
O213 Cd212 2.240 . S
O213 C218 1.279 . S
O214 Cd211 2.297 . S
O214 C216 1.247 . S
O215 Cd211 2.439 . S
O215 C216 1.208 . S
C216 O214 1.247 . S
C216 O215 1.208 . S
C217 O222 1.247 . S
C217 O223 1.208 . S
C218 O210 1.315 . S
C218 O213 1.279 . S
C219 O220 1.315 . S
C219 O221 1.279 . S
O220 Cd212 2.223 . S
O220 C219 1.315 . S
O221 Cd211 2.240 . S
O221 C219 1.279 . S
O222 Cd212 2.297 . S
O222 C217 1.247 . S
O223 Cd212 2.439 . S
O223 C217 1.208 . S
O224 Cd225 2.223 . S
O224 C232 1.315 . S
Cd225 O224 2.223 . S
Cd225 O228 2.297 . S
Cd225 O229 2.439 . S
Cd225 O235 2.240 . S
Cd226 O227 2.240 . S
Cd226 O234 2.223 . S
Cd226 O236 2.297 . S
Cd226 O237 2.439 . S
O227 Cd226 2.240 . S
O227 C232 1.279 . S
O228 Cd225 2.297 . S
O228 C230 1.247 . S
O229 Cd225 2.439 . S
O229 C230 1.208 . S
C230 O228 1.247 . S
C230 O229 1.208 . S
C231 O236 1.247 . S
C231 O237 1.208 . S
C232 O224 1.315 . S
C232 O227 1.279 . S
C233 O234 1.315 . S
C233 O235 1.279 . S
O234 Cd226 2.223 . S
O234 C233 1.315 . S
O235 Cd225 2.240 . S
O235 C233 1.279 . S
O236 Cd226 2.297 . S
O236 C231 1.247 . S
O237 Cd226 2.439 . S
O237 C231 1.208 . S
O238 Cd239 2.223 . S
O238 C246 1.315 . S
Cd239 O238 2.223 . S
Cd239 O242 2.297 . S
Cd239 O243 2.439 . S
Cd239 O249 2.240 . S
Cd240 O241 2.240 . S
Cd240 O248 2.223 . S
Cd240 O250 2.297 . S
Cd240 O251 2.439 . S
O241 Cd240 2.240 . S
O241 C246 1.279 . S
O242 Cd239 2.297 . S
O242 C244 1.247 . S
O243 Cd239 2.439 . S
O243 C244 1.208 . S
C244 O242 1.247 . S
C244 O243 1.208 . S
C245 O250 1.247 . S
C245 O251 1.208 . S
C246 O238 1.315 . S
C246 O241 1.279 . S
C247 O248 1.315 . S
C247 O249 1.279 . S
O248 Cd240 2.223 . S
O248 C247 1.315 . S
O249 Cd239 2.240 . S
O249 C247 1.279 . S
O250 Cd240 2.297 . S
O250 C245 1.247 . S
O251 Cd240 2.439 . S
O251 C245 1.208 . S
O252 Cd253 2.223 . S
O252 C260 1.315 . S
Cd253 O252 2.223 . S
Cd253 O256 2.297 . S
Cd253 O257 2.439 . S
Cd253 O263 2.240 . S
Cd254 O255 2.240 . S
Cd254 O262 2.223 . S
Cd254 O264 2.297 . S
Cd254 O265 2.439 . S
O255 Cd254 2.240 . S
O255 C260 1.279 . S
O256 Cd253 2.297 . S
O256 C258 1.247 . S
O257 Cd253 2.439 . S
O257 C258 1.208 . S
C258 O256 1.247 . S
C258 O257 1.208 . S
C259 O264 1.247 . S
C259 O265 1.208 . S
C260 O252 1.315 . S
C260 O255 1.279 . S
C261 O262 1.315 . S
C261 O263 1.279 . S
O262 Cd254 2.223 . S
O262 C261 1.315 . S
O263 Cd253 2.240 . S
O263 C261 1.279 . S
O264 Cd254 2.297 . S
O264 C259 1.247 . S
O265 Cd254 2.439 . S
O265 C259 1.208 . S
O266 Cd267 2.223 . S
O266 C274 1.315 . S
Cd267 O266 2.223 . S
Cd267 O270 2.297 . S
Cd267 O271 2.439 . S
Cd267 O277 2.240 . S
Cd268 O269 2.240 . S
Cd268 O276 2.223 . S
Cd268 O278 2.297 . S
Cd268 O279 2.439 . S
O269 Cd268 2.240 . S
O269 C274 1.279 . S
O270 Cd267 2.297 . S
O270 C272 1.247 . S
O271 Cd267 2.439 . S
O271 C272 1.208 . S
C272 O270 1.247 . S
C272 O271 1.208 . S
C273 O278 1.247 . S
C273 O279 1.208 . S
C274 O266 1.315 . S
C274 O269 1.279 . S
C275 O276 1.315 . S
C275 O277 1.279 . S
O276 Cd268 2.223 . S
O276 C275 1.315 . S
O277 Cd267 2.240 . S
O277 C275 1.279 . S
O278 Cd268 2.297 . S
O278 C273 1.247 . S
O279 Cd268 2.439 . S
O279 C273 1.208 . S
O280 Cd281 2.223 . S
O280 C288 1.315 . S
Cd281 O280 2.223 . S
Cd281 O284 2.297 . S
Cd281 O285 2.439 . S
Cd281 O291 2.240 . S
Cd282 O283 2.240 . S
Cd282 O290 2.223 . S
Cd282 O292 2.297 . S
Cd282 O293 2.439 . S
O283 Cd282 2.240 . S
O283 C288 1.279 . S
O284 Cd281 2.297 . S
O284 C286 1.247 . S
O285 Cd281 2.439 . S
O285 C286 1.208 . S
C286 O284 1.247 . S
C286 O285 1.208 . S
C287 O292 1.247 . S
C287 O293 1.208 . S
C288 O280 1.315 . S
C288 O283 1.279 . S
C289 O290 1.315 . S
C289 O291 1.279 . S
O290 Cd282 2.223 . S
O290 C289 1.315 . S
O291 Cd281 2.240 . S
O291 C289 1.279 . S
O292 Cd282 2.297 . S
O292 C287 1.247 . S
O293 Cd282 2.439 . S
O293 C287 1.208 . S
O294 Cd295 2.223 . S
O294 C302 1.315 . S
Cd295 O294 2.223 . S
Cd295 O298 2.297 . S
Cd295 O299 2.439 . S
Cd295 O305 2.240 . S
Cd296 O297 2.240 . S
Cd296 O304 2.223 . S
Cd296 O306 2.297 . S
Cd296 O307 2.439 . S
O297 Cd296 2.240 . S
O297 C302 1.279 . S
O298 Cd295 2.297 . S
O298 C300 1.247 . S
O299 Cd295 2.439 . S
O299 C300 1.208 . S
C300 O298 1.247 . S
C300 O299 1.208 . S
C301 O306 1.247 . S
C301 O307 1.208 . S
C302 O294 1.315 . S
C302 O297 1.279 . S
C303 O304 1.315 . S
C303 O305 1.279 . S
O304 Cd296 2.223 . S
O304 C303 1.315 . S
O305 Cd295 2.240 . S
O305 C303 1.279 . S
O306 Cd296 2.297 . S
O306 C301 1.247 . S
O307 Cd296 2.439 . S
O307 C301 1.208 . S
O308 Cd309 2.223 . S
O308 C316 1.315 . S
Cd309 O308 2.223 . S
Cd309 O312 2.297 . S
Cd309 O313 2.439 . S
Cd309 O319 2.240 . S
Cd310 O311 2.240 . S
Cd310 O318 2.223 . S
Cd310 O320 2.297 . S
Cd310 O321 2.439 . S
O311 Cd310 2.240 . S
O311 C316 1.279 . S
O312 Cd309 2.297 . S
O312 C314 1.247 . S
O313 Cd309 2.439 . S
O313 C314 1.208 . S
C314 O312 1.247 . S
C314 O313 1.208 . S
C315 O320 1.247 . S
C315 O321 1.208 . S
C316 O308 1.315 . S
C316 O311 1.279 . S
C317 O318 1.315 . S
C317 O319 1.279 . S
O318 Cd310 2.223 . S
O318 C317 1.315 . S
O319 Cd309 2.240 . S
O319 C317 1.279 . S
O320 Cd310 2.297 . S
O320 C315 1.247 . S
O321 Cd310 2.439 . S
O321 C315 1.208 . S
O322 Cd323 2.223 . S
O322 C330 1.315 . S
Cd323 O322 2.223 . S
Cd323 O326 2.297 . S
Cd323 O327 2.439 . S
Cd323 O333 2.240 . S
Cd324 O325 2.240 . S
Cd324 O332 2.223 . S
Cd324 O334 2.297 . S
Cd324 O335 2.439 . S
O325 Cd324 2.240 . S
O325 C330 1.279 . S
O326 Cd323 2.297 . S
O326 C328 1.247 . S
O327 Cd323 2.439 . S
O327 C328 1.208 . S
C328 O326 1.247 . S
C328 O327 1.208 . S
C329 O334 1.247 . S
C329 O335 1.208 . S
C330 O322 1.315 . S
C330 O325 1.279 . S
C331 O332 1.315 . S
C331 O333 1.279 . S
O332 Cd324 2.223 . S
O332 C331 1.315 . S
O333 Cd323 2.240 . S
O333 C331 1.279 . S
O334 Cd324 2.297 . S
O334 C329 1.247 . S
O335 Cd324 2.439 . S
O335 C329 1.208 . S
H336 C344 0.929 . S
H337 C346 0.930 . S
H338 C348 0.930 . S
H339 C351 0.929 . S
H340 C354 0.930 . S
H341 C356 0.960 . S
H342 C356 0.960 . S
H343 C356 0.960 . S
C344 H336 0.929 . S
C344 C345 1.377 . S
C344 C346 1.384 . S
C345 C344 1.377 . S
C345 C351 1.390 . S
C346 H337 0.930 . S
C346 C344 1.384 . S
C346 C347 1.372 . S
C347 C346 1.372 . S
C347 C348 1.400 . S
C347 C352 1.490 . S
C348 H338 0.930 . S
C348 C347 1.400 . S
C348 C351 1.386 . S
H349 C365 0.930 . S
H350 C366 0.931 . S
C351 H339 0.929 . S
C351 C345 1.390 . S
C351 C348 1.386 . S
C352 C347 1.490 . S
C352 C354 1.395 . S
C352 C355 1.403 . S
H353 C359 0.930 . S
C354 H340 0.930 . S
C354 C352 1.395 . S
C354 C357 1.403 . S
C355 C352 1.403 . S
C355 C356 1.524 . S
C355 C359 1.400 . S
C356 H341 0.960 . S
C356 H342 0.960 . S
C356 H343 0.960 . S
C356 C355 1.524 . S
C357 C354 1.403 . S
C357 C358 1.392 . S
C357 C361 1.495 . S
C358 C357 1.392 . S
C358 C359 1.385 . S
C358 C360 1.478 . S
C359 H353 0.930 . S
C359 C355 1.400 . S
C359 C358 1.385 . S
C360 C358 1.478 . S
C360 C362 1.381 . S
C360 C366 1.383 . S
C361 C357 1.495 . S
C361 H367 0.959 . S
C361 H368 0.961 . S
C361 H369 0.960 . S
C362 C360 1.381 . S
C362 C363 1.394 . S
C362 H370 0.930 . S
C363 C362 1.394 . S
C363 C364 1.383 . S
C363 H371 0.929 . S
C364 C363 1.383 . S
C364 C365 1.377 . S
C365 H349 0.930 . S
C365 C364 1.377 . S
C365 C366 1.379 . S
C366 H350 0.931 . S
C366 C360 1.383 . S
C366 C365 1.379 . S
H367 C361 0.959 . S
H368 C361 0.961 . S
H369 C361 0.960 . S
H370 C362 0.930 . S
H371 C363 0.929 . S
H372 C380 0.929 . S
H373 C382 0.930 . S
H374 C384 0.930 . S
H375 C387 0.929 . S
H376 C390 0.930 . S
H377 C392 0.960 . S
H378 C392 0.960 . S
H379 C392 0.960 . S
C380 H372 0.929 . S
C380 C381 1.377 . S
C380 C382 1.384 . S
C381 C380 1.377 . S
C381 C387 1.390 . S
C382 H373 0.930 . S
C382 C380 1.384 . S
C382 C383 1.372 . S
C383 C382 1.372 . S
C383 C384 1.400 . S
C383 C388 1.490 . S
C384 H374 0.930 . S
C384 C383 1.400 . S
C384 C387 1.386 . S
H385 C401 0.930 . S
H386 C402 0.931 . S
C387 H375 0.929 . S
C387 C381 1.390 . S
C387 C384 1.386 . S
C388 C383 1.490 . S
C388 C390 1.395 . S
C388 C391 1.403 . S
H389 C395 0.930 . S
C390 H376 0.930 . S
C390 C388 1.395 . S
C390 C393 1.403 . S
C391 C388 1.403 . S
C391 C392 1.524 . S
C391 C395 1.400 . S
C392 H377 0.960 . S
C392 H378 0.960 . S
C392 H379 0.960 . S
C392 C391 1.524 . S
C393 C390 1.403 . S
C393 C394 1.392 . S
C393 C397 1.495 . S
C394 C393 1.392 . S
C394 C395 1.385 . S
C394 C396 1.478 . S
C395 H389 0.930 . S
C395 C391 1.400 . S
C395 C394 1.385 . S
C396 C394 1.478 . S
C396 C398 1.381 . S
C396 C402 1.383 . S
C397 C393 1.495 . S
C397 H403 0.959 . S
C397 H404 0.961 . S
C397 H405 0.960 . S
C398 C396 1.381 . S
C398 C399 1.394 . S
C398 H406 0.930 . S
C399 C398 1.394 . S
C399 C400 1.383 . S
C399 H407 0.929 . S
C400 C399 1.383 . S
C400 C401 1.377 . S
C401 H385 0.930 . S
C401 C400 1.377 . S
C401 C402 1.379 . S
C402 H386 0.931 . S
C402 C396 1.383 . S
C402 C401 1.379 . S
H403 C397 0.959 . S
H404 C397 0.961 . S
H405 C397 0.960 . S
H406 C398 0.930 . S
H407 C399 0.929 . S
H408 C416 0.929 . S
H409 C418 0.930 . S
H410 C420 0.930 . S
H411 C423 0.929 . S
H412 C426 0.930 . S
H413 C428 0.960 . S
H414 C428 0.960 . S
H415 C428 0.960 . S
C416 H408 0.929 . S
C416 C417 1.377 . S
C416 C418 1.384 . S
C417 C416 1.377 . S
C417 C423 1.390 . S
C418 H409 0.930 . S
C418 C416 1.384 . S
C418 C419 1.372 . S
C419 C418 1.372 . S
C419 C420 1.400 . S
C419 C424 1.490 . S
C420 H410 0.930 . S
C420 C419 1.400 . S
C420 C423 1.386 . S
H421 C437 0.930 . S
H422 C438 0.931 . S
C423 H411 0.929 . S
C423 C417 1.390 . S
C423 C420 1.386 . S
C424 C419 1.490 . S
C424 C426 1.395 . S
C424 C427 1.403 . S
H425 C431 0.930 . S
C426 H412 0.930 . S
C426 C424 1.395 . S
C426 C429 1.403 . S
C427 C424 1.403 . S
C427 C428 1.524 . S
C427 C431 1.400 . S
C428 H413 0.960 . S
C428 H414 0.960 . S
C428 H415 0.960 . S
C428 C427 1.524 . S
C429 C426 1.403 . S
C429 C430 1.392 . S
C429 C433 1.495 . S
C430 C429 1.392 . S
C430 C431 1.385 . S
C430 C432 1.478 . S
C431 H425 0.930 . S
C431 C427 1.400 . S
C431 C430 1.385 . S
C432 C430 1.478 . S
C432 C434 1.381 . S
C432 C438 1.383 . S
C433 C429 1.495 . S
C433 H439 0.959 . S
C433 H440 0.961 . S
C433 H441 0.960 . S
C434 C432 1.381 . S
C434 C435 1.394 . S
C434 H442 0.930 . S
C435 C434 1.394 . S
C435 C436 1.383 . S
C435 H443 0.929 . S
C436 C435 1.383 . S
C436 C437 1.377 . S
C437 H421 0.930 . S
C437 C436 1.377 . S
C437 C438 1.379 . S
C438 H422 0.931 . S
C438 C432 1.383 . S
C438 C437 1.379 . S
H439 C433 0.959 . S
H440 C433 0.961 . S
H441 C433 0.960 . S
H442 C434 0.930 . S
H443 C435 0.929 . S
H444 C452 0.929 . S
H445 C454 0.930 . S
H446 C456 0.930 . S
H447 C459 0.929 . S
H448 C462 0.930 . S
H449 C464 0.960 . S
H450 C464 0.960 . S
H451 C464 0.960 . S
C452 H444 0.929 . S
C452 C453 1.377 . S
C452 C454 1.384 . S
C453 C452 1.377 . S
C453 C459 1.390 . S
C454 H445 0.930 . S
C454 C452 1.384 . S
C454 C455 1.372 . S
C455 C454 1.372 . S
C455 C456 1.400 . S
C455 C460 1.490 . S
C456 H446 0.930 . S
C456 C455 1.400 . S
C456 C459 1.386 . S
H457 C473 0.930 . S
H458 C474 0.931 . S
C459 H447 0.929 . S
C459 C453 1.390 . S
C459 C456 1.386 . S
C460 C455 1.490 . S
C460 C462 1.395 . S
C460 C463 1.403 . S
H461 C467 0.930 . S
C462 H448 0.930 . S
C462 C460 1.395 . S
C462 C465 1.403 . S
C463 C460 1.403 . S
C463 C464 1.524 . S
C463 C467 1.400 . S
C464 H449 0.960 . S
C464 H450 0.960 . S
C464 H451 0.960 . S
C464 C463 1.524 . S
C465 C462 1.403 . S
C465 C466 1.392 . S
C465 C469 1.495 . S
C466 C465 1.392 . S
C466 C467 1.385 . S
C466 C468 1.478 . S
C467 H461 0.930 . S
C467 C463 1.400 . S
C467 C466 1.385 . S
C468 C466 1.478 . S
C468 C470 1.381 . S
C468 C474 1.383 . S
C469 C465 1.495 . S
C469 H475 0.959 . S
C469 H476 0.961 . S
C469 H477 0.960 . S
C470 C468 1.381 . S
C470 C471 1.394 . S
C470 H478 0.930 . S
C471 C470 1.394 . S
C471 C472 1.383 . S
C471 H479 0.929 . S
C472 C471 1.383 . S
C472 C473 1.377 . S
C473 H457 0.930 . S
C473 C472 1.377 . S
C473 C474 1.379 . S
C474 H458 0.931 . S
C474 C468 1.383 . S
C474 C473 1.379 . S
H475 C469 0.959 . S
H476 C469 0.961 . S
H477 C469 0.960 . S
H478 C470 0.930 . S
H479 C471 0.929 . S
H480 C488 0.929 . S
H481 C490 0.930 . S
H482 C492 0.930 . S
H483 C495 0.929 . S
H484 C498 0.930 . S
H485 C500 0.960 . S
H486 C500 0.960 . S
H487 C500 0.960 . S
C488 H480 0.929 . S
C488 C489 1.377 . S
C488 C490 1.384 . S
C489 C488 1.377 . S
C489 C495 1.390 . S
C490 H481 0.930 . S
C490 C488 1.384 . S
C490 C491 1.372 . S
C491 C490 1.372 . S
C491 C492 1.400 . S
C491 C496 1.490 . S
C492 H482 0.930 . S
C492 C491 1.400 . S
C492 C495 1.386 . S
H493 C509 0.930 . S
H494 C510 0.931 . S
C495 H483 0.929 . S
C495 C489 1.390 . S
C495 C492 1.386 . S
C496 C491 1.490 . S
C496 C498 1.395 . S
C496 C499 1.403 . S
H497 C503 0.930 . S
C498 H484 0.930 . S
C498 C496 1.395 . S
C498 C501 1.403 . S
C499 C496 1.403 . S
C499 C500 1.524 . S
C499 C503 1.400 . S
C500 H485 0.960 . S
C500 H486 0.960 . S
C500 H487 0.960 . S
C500 C499 1.524 . S
C501 C498 1.403 . S
C501 C502 1.392 . S
C501 C505 1.495 . S
C502 C501 1.392 . S
C502 C503 1.385 . S
C502 C504 1.478 . S
C503 H497 0.930 . S
C503 C499 1.400 . S
C503 C502 1.385 . S
C504 C502 1.478 . S
C504 C506 1.381 . S
C504 C510 1.383 . S
C505 C501 1.495 . S
C505 H511 0.959 . S
C505 H512 0.961 . S
C505 H513 0.960 . S
C506 C504 1.381 . S
C506 C507 1.394 . S
C506 H514 0.930 . S
C507 C506 1.394 . S
C507 C508 1.383 . S
C507 H515 0.929 . S
C508 C507 1.383 . S
C508 C509 1.377 . S
C509 H493 0.930 . S
C509 C508 1.377 . S
C509 C510 1.379 . S
C510 H494 0.931 . S
C510 C504 1.383 . S
C510 C509 1.379 . S
H511 C505 0.959 . S
H512 C505 0.961 . S
H513 C505 0.960 . S
H514 C506 0.930 . S
H515 C507 0.929 . S
H516 C524 0.929 . S
H517 C526 0.930 . S
H518 C528 0.930 . S
H519 C531 0.929 . S
H520 C534 0.930 . S
H521 C536 0.960 . S
H522 C536 0.960 . S
H523 C536 0.960 . S
C524 H516 0.929 . S
C524 C525 1.377 . S
C524 C526 1.384 . S
C525 C524 1.377 . S
C525 C531 1.390 . S
C526 H517 0.930 . S
C526 C524 1.384 . S
C526 C527 1.372 . S
C527 C526 1.372 . S
C527 C528 1.400 . S
C527 C532 1.490 . S
C528 H518 0.930 . S
C528 C527 1.400 . S
C528 C531 1.386 . S
H529 C545 0.930 . S
H530 C546 0.931 . S
C531 H519 0.929 . S
C531 C525 1.390 . S
C531 C528 1.386 . S
C532 C527 1.490 . S
C532 C534 1.395 . S
C532 C535 1.403 . S
H533 C539 0.930 . S
C534 H520 0.930 . S
C534 C532 1.395 . S
C534 C537 1.403 . S
C535 C532 1.403 . S
C535 C536 1.524 . S
C535 C539 1.400 . S
C536 H521 0.960 . S
C536 H522 0.960 . S
C536 H523 0.960 . S
C536 C535 1.524 . S
C537 C534 1.403 . S
C537 C538 1.392 . S
C537 C541 1.495 . S
C538 C537 1.392 . S
C538 C539 1.385 . S
C538 C540 1.478 . S
C539 H533 0.930 . S
C539 C535 1.400 . S
C539 C538 1.385 . S
C540 C538 1.478 . S
C540 C542 1.381 . S
C540 C546 1.383 . S
C541 C537 1.495 . S
C541 H547 0.959 . S
C541 H548 0.961 . S
C541 H549 0.960 . S
C542 C540 1.381 . S
C542 C543 1.394 . S
C542 H550 0.930 . S
C543 C542 1.394 . S
C543 C544 1.383 . S
C543 H551 0.929 . S
C544 C543 1.383 . S
C544 C545 1.377 . S
C545 H529 0.930 . S
C545 C544 1.377 . S
C545 C546 1.379 . S
C546 H530 0.931 . S
C546 C540 1.383 . S
C546 C545 1.379 . S
H547 C541 0.959 . S
H548 C541 0.961 . S
H549 C541 0.960 . S
H550 C542 0.930 . S
H551 C543 0.929 . S
H552 C560 0.929 . S
H553 C562 0.930 . S
H554 C564 0.930 . S
H555 C567 0.929 . S
H556 C570 0.930 . S
H557 C572 0.960 . S
H558 C572 0.960 . S
H559 C572 0.960 . S
C560 H552 0.929 . S
C560 C561 1.377 . S
C560 C562 1.384 . S
C561 C560 1.377 . S
C561 C567 1.390 . S
C562 H553 0.930 . S
C562 C560 1.384 . S
C562 C563 1.372 . S
C563 C562 1.372 . S
C563 C564 1.400 . S
C563 C568 1.490 . S
C564 H554 0.930 . S
C564 C563 1.400 . S
C564 C567 1.386 . S
H565 C581 0.930 . S
H566 C582 0.931 . S
C567 H555 0.929 . S
C567 C561 1.390 . S
C567 C564 1.386 . S
C568 C563 1.490 . S
C568 C570 1.395 . S
C568 C571 1.403 . S
H569 C575 0.930 . S
C570 H556 0.930 . S
C570 C568 1.395 . S
C570 C573 1.403 . S
C571 C568 1.403 . S
C571 C572 1.524 . S
C571 C575 1.400 . S
C572 H557 0.960 . S
C572 H558 0.960 . S
C572 H559 0.960 . S
C572 C571 1.524 . S
C573 C570 1.403 . S
C573 C574 1.392 . S
C573 C577 1.495 . S
C574 C573 1.392 . S
C574 C575 1.385 . S
C574 C576 1.478 . S
C575 H569 0.930 . S
C575 C571 1.400 . S
C575 C574 1.385 . S
C576 C574 1.478 . S
C576 C578 1.381 . S
C576 C582 1.383 . S
C577 C573 1.495 . S
C577 H583 0.959 . S
C577 H584 0.961 . S
C577 H585 0.960 . S
C578 C576 1.381 . S
C578 C579 1.394 . S
C578 H586 0.930 . S
C579 C578 1.394 . S
C579 C580 1.383 . S
C579 H587 0.929 . S
C580 C579 1.383 . S
C580 C581 1.377 . S
C581 H565 0.930 . S
C581 C580 1.377 . S
C581 C582 1.379 . S
C582 H566 0.931 . S
C582 C576 1.383 . S
C582 C581 1.379 . S
H583 C577 0.959 . S
H584 C577 0.961 . S
H585 C577 0.960 . S
H586 C578 0.930 . S
H587 C579 0.929 . S
H588 C596 0.929 . S
H589 C598 0.930 . S
H590 C600 0.930 . S
H591 C603 0.929 . S
H592 C606 0.930 . S
H593 C608 0.960 . S
H594 C608 0.960 . S
H595 C608 0.960 . S
C596 H588 0.929 . S
C596 C597 1.377 . S
C596 C598 1.384 . S
C597 C596 1.377 . S
C597 C603 1.390 . S
C598 H589 0.930 . S
C598 C596 1.384 . S
C598 C599 1.372 . S
C599 C598 1.372 . S
C599 C600 1.400 . S
C599 C604 1.490 . S
C600 H590 0.930 . S
C600 C599 1.400 . S
C600 C603 1.386 . S
H601 C617 0.930 . S
H602 C618 0.931 . S
C603 H591 0.929 . S
C603 C597 1.390 . S
C603 C600 1.386 . S
C604 C599 1.490 . S
C604 C606 1.395 . S
C604 C607 1.403 . S
H605 C611 0.930 . S
C606 H592 0.930 . S
C606 C604 1.395 . S
C606 C609 1.403 . S
C607 C604 1.403 . S
C607 C608 1.524 . S
C607 C611 1.400 . S
C608 H593 0.960 . S
C608 H594 0.960 . S
C608 H595 0.960 . S
C608 C607 1.524 . S
C609 C606 1.403 . S
C609 C610 1.392 . S
C609 C613 1.495 . S
C610 C609 1.392 . S
C610 C611 1.385 . S
C610 C612 1.478 . S
C611 H605 0.930 . S
C611 C607 1.400 . S
C611 C610 1.385 . S
C612 C610 1.478 . S
C612 C614 1.381 . S
C612 C618 1.383 . S
C613 C609 1.495 . S
C613 H619 0.959 . S
C613 H620 0.961 . S
C613 H621 0.960 . S
C614 C612 1.381 . S
C614 C615 1.394 . S
C614 H622 0.930 . S
C615 C614 1.394 . S
C615 C616 1.383 . S
C615 H623 0.929 . S
C616 C615 1.383 . S
C616 C617 1.377 . S
C617 H601 0.930 . S
C617 C616 1.377 . S
C617 C618 1.379 . S
C618 H602 0.931 . S
C618 C612 1.383 . S
C618 C617 1.379 . S
H619 C613 0.959 . S
H620 C613 0.961 . S
H621 C613 0.960 . S
H622 C614 0.930 . S
H623 C615 0.929 . S
H624 C632 0.929 . S
H625 C634 0.930 . S
H626 C636 0.930 . S
H627 C639 0.929 . S
H628 C642 0.930 . S
H629 C644 0.960 . S
H630 C644 0.960 . S
H631 C644 0.960 . S
C632 H624 0.929 . S
C632 C633 1.377 . S
C632 C634 1.384 . S
C633 C632 1.377 . S
C633 C639 1.390 . S
C634 H625 0.930 . S
C634 C632 1.384 . S
C634 C635 1.372 . S
C635 C634 1.372 . S
C635 C636 1.400 . S
C635 C640 1.490 . S
C636 H626 0.930 . S
C636 C635 1.400 . S
C636 C639 1.386 . S
H637 C653 0.930 . S
H638 C654 0.931 . S
C639 H627 0.929 . S
C639 C633 1.390 . S
C639 C636 1.386 . S
C640 C635 1.490 . S
C640 C642 1.395 . S
C640 C643 1.403 . S
H641 C647 0.930 . S
C642 H628 0.930 . S
C642 C640 1.395 . S
C642 C645 1.403 . S
C643 C640 1.403 . S
C643 C644 1.524 . S
C643 C647 1.400 . S
C644 H629 0.960 . S
C644 H630 0.960 . S
C644 H631 0.960 . S
C644 C643 1.524 . S
C645 C642 1.403 . S
C645 C646 1.392 . S
C645 C649 1.495 . S
C646 C645 1.392 . S
C646 C647 1.385 . S
C646 C648 1.478 . S
C647 H641 0.930 . S
C647 C643 1.400 . S
C647 C646 1.385 . S
C648 C646 1.478 . S
C648 C650 1.381 . S
C648 C654 1.383 . S
C649 C645 1.495 . S
C649 H655 0.959 . S
C649 H656 0.961 . S
C649 H657 0.960 . S
C650 C648 1.381 . S
C650 C651 1.394 . S
C650 H658 0.930 . S
C651 C650 1.394 . S
C651 C652 1.383 . S
C651 H659 0.929 . S
C652 C651 1.383 . S
C652 C653 1.377 . S
C653 H637 0.930 . S
C653 C652 1.377 . S
C653 C654 1.379 . S
C654 H638 0.931 . S
C654 C648 1.383 . S
C654 C653 1.379 . S
H655 C649 0.959 . S
H656 C649 0.961 . S
H657 C649 0.960 . S
H658 C650 0.930 . S
H659 C651 0.929 . S
H660 C668 0.929 . S
H661 C670 0.930 . S
H662 C672 0.930 . S
H663 C675 0.929 . S
H664 C678 0.930 . S
H665 C680 0.960 . S
H666 C680 0.960 . S
H667 C680 0.960 . S
C668 H660 0.929 . S
C668 C669 1.377 . S
C668 C670 1.384 . S
C669 C668 1.377 . S
C669 C675 1.390 . S
C670 H661 0.930 . S
C670 C668 1.384 . S
C670 C671 1.372 . S
C671 C670 1.372 . S
C671 C672 1.400 . S
C671 C676 1.490 . S
C672 H662 0.930 . S
C672 C671 1.400 . S
C672 C675 1.386 . S
H673 C689 0.930 . S
H674 C690 0.931 . S
C675 H663 0.929 . S
C675 C669 1.390 . S
C675 C672 1.386 . S
C676 C671 1.490 . S
C676 C678 1.395 . S
C676 C679 1.403 . S
H677 C683 0.930 . S
C678 H664 0.930 . S
C678 C676 1.395 . S
C678 C681 1.403 . S
C679 C676 1.403 . S
C679 C680 1.524 . S
C679 C683 1.400 . S
C680 H665 0.960 . S
C680 H666 0.960 . S
C680 H667 0.960 . S
C680 C679 1.524 . S
C681 C678 1.403 . S
C681 C682 1.392 . S
C681 C685 1.495 . S
C682 C681 1.392 . S
C682 C683 1.385 . S
C682 C684 1.478 . S
C683 H677 0.930 . S
C683 C679 1.400 . S
C683 C682 1.385 . S
C684 C682 1.478 . S
C684 C686 1.381 . S
C684 C690 1.383 . S
C685 C681 1.495 . S
C685 H691 0.959 . S
C685 H692 0.961 . S
C685 H693 0.960 . S
C686 C684 1.381 . S
C686 C687 1.394 . S
C686 H694 0.930 . S
C687 C686 1.394 . S
C687 C688 1.383 . S
C687 H695 0.929 . S
C688 C687 1.383 . S
C688 C689 1.377 . S
C689 H673 0.930 . S
C689 C688 1.377 . S
C689 C690 1.379 . S
C690 H674 0.931 . S
C690 C684 1.383 . S
C690 C689 1.379 . S
H691 C685 0.959 . S
H692 C685 0.961 . S
H693 C685 0.960 . S
H694 C686 0.930 . S
H695 C687 0.929 . S
H696 C704 0.929 . S
H697 C706 0.930 . S
H698 C708 0.930 . S
H699 C711 0.929 . S
H700 C714 0.930 . S
H701 C716 0.960 . S
H702 C716 0.960 . S
H703 C716 0.960 . S
C704 H696 0.929 . S
C704 C705 1.377 . S
C704 C706 1.384 . S
C705 C704 1.377 . S
C705 C711 1.390 . S
C706 H697 0.930 . S
C706 C704 1.384 . S
C706 C707 1.372 . S
C707 C706 1.372 . S
C707 C708 1.400 . S
C707 C712 1.490 . S
C708 H698 0.930 . S
C708 C707 1.400 . S
C708 C711 1.386 . S
H709 C725 0.930 . S
H710 C726 0.931 . S
C711 H699 0.929 . S
C711 C705 1.390 . S
C711 C708 1.386 . S
C712 C707 1.490 . S
C712 C714 1.395 . S
C712 C715 1.403 . S
H713 C719 0.930 . S
C714 H700 0.930 . S
C714 C712 1.395 . S
C714 C717 1.403 . S
C715 C712 1.403 . S
C715 C716 1.524 . S
C715 C719 1.400 . S
C716 H701 0.960 . S
C716 H702 0.960 . S
C716 H703 0.960 . S
C716 C715 1.524 . S
C717 C714 1.403 . S
C717 C718 1.392 . S
C717 C721 1.495 . S
C718 C717 1.392 . S
C718 C719 1.385 . S
C718 C720 1.478 . S
C719 H713 0.930 . S
C719 C715 1.400 . S
C719 C718 1.385 . S
C720 C718 1.478 . S
C720 C722 1.381 . S
C720 C726 1.383 . S
C721 C717 1.495 . S
C721 H727 0.959 . S
C721 H728 0.961 . S
C721 H729 0.960 . S
C722 C720 1.381 . S
C722 C723 1.394 . S
C722 H730 0.930 . S
C723 C722 1.394 . S
C723 C724 1.383 . S
C723 H731 0.929 . S
C724 C723 1.383 . S
C724 C725 1.377 . S
C725 H709 0.930 . S
C725 C724 1.377 . S
C725 C726 1.379 . S
C726 H710 0.931 . S
C726 C720 1.383 . S
C726 C725 1.379 . S
H727 C721 0.959 . S
H728 C721 0.961 . S
H729 C721 0.960 . S
H730 C722 0.930 . S
H731 C723 0.929 . S
H732 C740 0.929 . S
H733 C742 0.930 . S
H734 C744 0.930 . S
H735 C747 0.929 . S
H736 C750 0.930 . S
H737 C752 0.960 . S
H738 C752 0.960 . S
H739 C752 0.960 . S
C740 H732 0.929 . S
C740 C741 1.377 . S
C740 C742 1.384 . S
C741 C740 1.377 . S
C741 C747 1.390 . S
C742 H733 0.930 . S
C742 C740 1.384 . S
C742 C743 1.372 . S
C743 C742 1.372 . S
C743 C744 1.400 . S
C743 C748 1.490 . S
C744 H734 0.930 . S
C744 C743 1.400 . S
C744 C747 1.386 . S
H745 C761 0.930 . S
H746 C762 0.931 . S
C747 H735 0.929 . S
C747 C741 1.390 . S
C747 C744 1.386 . S
C748 C743 1.490 . S
C748 C750 1.395 . S
C748 C751 1.403 . S
H749 C755 0.930 . S
C750 H736 0.930 . S
C750 C748 1.395 . S
C750 C753 1.403 . S
C751 C748 1.403 . S
C751 C752 1.524 . S
C751 C755 1.400 . S
C752 H737 0.960 . S
C752 H738 0.960 . S
C752 H739 0.960 . S
C752 C751 1.524 . S
C753 C750 1.403 . S
C753 C754 1.392 . S
C753 C757 1.495 . S
C754 C753 1.392 . S
C754 C755 1.385 . S
C754 C756 1.478 . S
C755 H749 0.930 . S
C755 C751 1.400 . S
C755 C754 1.385 . S
C756 C754 1.478 . S
C756 C758 1.381 . S
C756 C762 1.383 . S
C757 C753 1.495 . S
C757 H763 0.959 . S
C757 H764 0.961 . S
C757 H765 0.960 . S
C758 C756 1.381 . S
C758 C759 1.394 . S
C758 H766 0.930 . S
C759 C758 1.394 . S
C759 C760 1.383 . S
C759 H767 0.929 . S
C760 C759 1.383 . S
C760 C761 1.377 . S
C761 H745 0.930 . S
C761 C760 1.377 . S
C761 C762 1.379 . S
C762 H746 0.931 . S
C762 C756 1.383 . S
C762 C761 1.379 . S
H763 C757 0.959 . S
H764 C757 0.961 . S
H765 C757 0.960 . S
H766 C758 0.930 . S
H767 C759 0.929 . S
H768 C776 0.929 . S
H769 C778 0.930 . S
H770 C780 0.930 . S
H771 C783 0.929 . S
H772 C786 0.930 . S
H773 C788 0.960 . S
H774 C788 0.960 . S
H775 C788 0.960 . S
C776 H768 0.929 . S
C776 C777 1.377 . S
C776 C778 1.384 . S
C777 C776 1.377 . S
C777 C783 1.390 . S
C778 H769 0.930 . S
C778 C776 1.384 . S
C778 C779 1.372 . S
C779 C778 1.372 . S
C779 C780 1.400 . S
C779 C784 1.490 . S
C780 H770 0.930 . S
C780 C779 1.400 . S
C780 C783 1.386 . S
H781 C797 0.930 . S
H782 C798 0.931 . S
C783 H771 0.929 . S
C783 C777 1.390 . S
C783 C780 1.386 . S
C784 C779 1.490 . S
C784 C786 1.395 . S
C784 C787 1.403 . S
H785 C791 0.930 . S
C786 H772 0.930 . S
C786 C784 1.395 . S
C786 C789 1.403 . S
C787 C784 1.403 . S
C787 C788 1.524 . S
C787 C791 1.400 . S
C788 H773 0.960 . S
C788 H774 0.960 . S
C788 H775 0.960 . S
C788 C787 1.524 . S
C789 C786 1.403 . S
C789 C790 1.392 . S
C789 C793 1.495 . S
C790 C789 1.392 . S
C790 C791 1.385 . S
C790 C792 1.478 . S
C791 H785 0.930 . S
C791 C787 1.400 . S
C791 C790 1.385 . S
C792 C790 1.478 . S
C792 C794 1.381 . S
C792 C798 1.383 . S
C793 C789 1.495 . S
C793 H799 0.959 . S
C793 H800 0.961 . S
C793 H801 0.960 . S
C794 C792 1.381 . S
C794 C795 1.394 . S
C794 H802 0.930 . S
C795 C794 1.394 . S
C795 C796 1.383 . S
C795 H803 0.929 . S
C796 C795 1.383 . S
C796 C797 1.377 . S
C797 H781 0.930 . S
C797 C796 1.377 . S
C797 C798 1.379 . S
C798 H782 0.931 . S
C798 C792 1.383 . S
C798 C797 1.379 . S
H799 C793 0.959 . S
H800 C793 0.961 . S
H801 C793 0.960 . S
H802 C794 0.930 . S
H803 C795 0.929 . S
H804 C812 0.929 . S
H805 C814 0.930 . S
H806 C816 0.930 . S
H807 C819 0.929 . S
H808 C822 0.930 . S
H809 C824 0.960 . S
H810 C824 0.960 . S
H811 C824 0.960 . S
C812 H804 0.929 . S
C812 C813 1.377 . S
C812 C814 1.384 . S
C813 C812 1.377 . S
C813 C819 1.390 . S
C814 H805 0.930 . S
C814 C812 1.384 . S
C814 C815 1.372 . S
C815 C814 1.372 . S
C815 C816 1.400 . S
C815 C820 1.490 . S
C816 H806 0.930 . S
C816 C815 1.400 . S
C816 C819 1.386 . S
H817 C833 0.930 . S
H818 C834 0.931 . S
C819 H807 0.929 . S
C819 C813 1.390 . S
C819 C816 1.386 . S
C820 C815 1.490 . S
C820 C822 1.395 . S
C820 C823 1.403 . S
H821 C827 0.930 . S
C822 H808 0.930 . S
C822 C820 1.395 . S
C822 C825 1.403 . S
C823 C820 1.403 . S
C823 C824 1.524 . S
C823 C827 1.400 . S
C824 H809 0.960 . S
C824 H810 0.960 . S
C824 H811 0.960 . S
C824 C823 1.524 . S
C825 C822 1.403 . S
C825 C826 1.392 . S
C825 C829 1.495 . S
C826 C825 1.392 . S
C826 C827 1.385 . S
C826 C828 1.478 . S
C827 H821 0.930 . S
C827 C823 1.400 . S
C827 C826 1.385 . S
C828 C826 1.478 . S
C828 C830 1.381 . S
C828 C834 1.383 . S
C829 C825 1.495 . S
C829 H835 0.959 . S
C829 H836 0.961 . S
C829 H837 0.960 . S
C830 C828 1.381 . S
C830 C831 1.394 . S
C830 H838 0.930 . S
C831 C830 1.394 . S
C831 C832 1.383 . S
C831 H839 0.929 . S
C832 C831 1.383 . S
C832 C833 1.377 . S
C833 H817 0.930 . S
C833 C832 1.377 . S
C833 C834 1.379 . S
C834 H818 0.931 . S
C834 C828 1.383 . S
C834 C833 1.379 . S
H835 C829 0.959 . S
H836 C829 0.961 . S
H837 C829 0.960 . S
H838 C830 0.930 . S
H839 C831 0.929 . S
H840 C848 0.929 . S
H841 C850 0.930 . S
H842 C852 0.930 . S
H843 C855 0.929 . S
H844 C858 0.930 . S
H845 C860 0.960 . S
H846 C860 0.960 . S
H847 C860 0.960 . S
C848 H840 0.929 . S
C848 C849 1.377 . S
C848 C850 1.384 . S
C849 C848 1.377 . S
C849 C855 1.390 . S
C850 H841 0.930 . S
C850 C848 1.384 . S
C850 C851 1.372 . S
C851 C850 1.372 . S
C851 C852 1.400 . S
C851 C856 1.490 . S
C852 H842 0.930 . S
C852 C851 1.400 . S
C852 C855 1.386 . S
H853 C869 0.930 . S
H854 C870 0.931 . S
C855 H843 0.929 . S
C855 C849 1.390 . S
C855 C852 1.386 . S
C856 C851 1.490 . S
C856 C858 1.395 . S
C856 C859 1.403 . S
H857 C863 0.930 . S
C858 H844 0.930 . S
C858 C856 1.395 . S
C858 C861 1.403 . S
C859 C856 1.403 . S
C859 C860 1.524 . S
C859 C863 1.400 . S
C860 H845 0.960 . S
C860 H846 0.960 . S
C860 H847 0.960 . S
C860 C859 1.524 . S
C861 C858 1.403 . S
C861 C862 1.392 . S
C861 C865 1.495 . S
C862 C861 1.392 . S
C862 C863 1.385 . S
C862 C864 1.478 . S
C863 H857 0.930 . S
C863 C859 1.400 . S
C863 C862 1.385 . S
C864 C862 1.478 . S
C864 C866 1.381 . S
C864 C870 1.383 . S
C865 C861 1.495 . S
C865 H871 0.959 . S
C865 H872 0.961 . S
C865 H873 0.960 . S
C866 C864 1.381 . S
C866 C867 1.394 . S
C866 H874 0.930 . S
C867 C866 1.394 . S
C867 C868 1.383 . S
C867 H875 0.929 . S
C868 C867 1.383 . S
C868 C869 1.377 . S
C869 H853 0.930 . S
C869 C868 1.377 . S
C869 C870 1.379 . S
C870 H854 0.931 . S
C870 C864 1.383 . S
C870 C869 1.379 . S
H871 C865 0.959 . S
H872 C865 0.961 . S
H873 C865 0.960 . S
H874 C866 0.930 . S
H875 C867 0.929 . S
H876 C884 0.929 . S
H877 C886 0.930 . S
H878 C888 0.930 . S
H879 C891 0.929 . S
H880 C894 0.930 . S
H881 C896 0.960 . S
H882 C896 0.960 . S
H883 C896 0.960 . S
C884 H876 0.929 . S
C884 C885 1.377 . S
C884 C886 1.384 . S
C885 C884 1.377 . S
C885 C891 1.390 . S
C886 H877 0.930 . S
C886 C884 1.384 . S
C886 C887 1.372 . S
C887 C886 1.372 . S
C887 C888 1.400 . S
C887 C892 1.490 . S
C888 H878 0.930 . S
C888 C887 1.400 . S
C888 C891 1.386 . S
H889 C905 0.930 . S
H890 C906 0.931 . S
C891 H879 0.929 . S
C891 C885 1.390 . S
C891 C888 1.386 . S
C892 C887 1.490 . S
C892 C894 1.395 . S
C892 C895 1.403 . S
H893 C899 0.930 . S
C894 H880 0.930 . S
C894 C892 1.395 . S
C894 C897 1.403 . S
C895 C892 1.403 . S
C895 C896 1.524 . S
C895 C899 1.400 . S
C896 H881 0.960 . S
C896 H882 0.960 . S
C896 H883 0.960 . S
C896 C895 1.524 . S
C897 C894 1.403 . S
C897 C898 1.392 . S
C897 C901 1.495 . S
C898 C897 1.392 . S
C898 C899 1.385 . S
C898 C900 1.478 . S
C899 H893 0.930 . S
C899 C895 1.400 . S
C899 C898 1.385 . S
C900 C898 1.478 . S
C900 C902 1.381 . S
C900 C906 1.383 . S
C901 C897 1.495 . S
C901 H907 0.959 . S
C901 H908 0.961 . S
C901 H909 0.960 . S
C902 C900 1.381 . S
C902 C903 1.394 . S
C902 H910 0.930 . S
C903 C902 1.394 . S
C903 C904 1.383 . S
C903 H911 0.929 . S
C904 C903 1.383 . S
C904 C905 1.377 . S
C905 H889 0.930 . S
C905 C904 1.377 . S
C905 C906 1.379 . S
C906 H890 0.931 . S
C906 C900 1.383 . S
C906 C905 1.379 . S
H907 C901 0.959 . S
H908 C901 0.961 . S
H909 C901 0.960 . S
H910 C902 0.930 . S
H911 C903 0.929 . S
H912 C920 0.929 . S
H913 C922 0.930 . S
H914 C924 0.930 . S
H915 C927 0.929 . S
H916 C930 0.930 . S
H917 C932 0.960 . S
H918 C932 0.960 . S
H919 C932 0.960 . S
C920 H912 0.929 . S
C920 C921 1.377 . S
C920 C922 1.384 . S
C921 C920 1.377 . S
C921 C927 1.390 . S
C922 H913 0.930 . S
C922 C920 1.384 . S
C922 C923 1.372 . S
C923 C922 1.372 . S
C923 C924 1.400 . S
C923 C928 1.490 . S
C924 H914 0.930 . S
C924 C923 1.400 . S
C924 C927 1.386 . S
H925 C941 0.930 . S
H926 C942 0.931 . S
C927 H915 0.929 . S
C927 C921 1.390 . S
C927 C924 1.386 . S
C928 C923 1.490 . S
C928 C930 1.395 . S
C928 C931 1.403 . S
H929 C935 0.930 . S
C930 H916 0.930 . S
C930 C928 1.395 . S
C930 C933 1.403 . S
C931 C928 1.403 . S
C931 C932 1.524 . S
C931 C935 1.400 . S
C932 H917 0.960 . S
C932 H918 0.960 . S
C932 H919 0.960 . S
C932 C931 1.524 . S
C933 C930 1.403 . S
C933 C934 1.392 . S
C933 C937 1.495 . S
C934 C933 1.392 . S
C934 C935 1.385 . S
C934 C936 1.478 . S
C935 H929 0.930 . S
C935 C931 1.400 . S
C935 C934 1.385 . S
C936 C934 1.478 . S
C936 C938 1.381 . S
C936 C942 1.383 . S
C937 C933 1.495 . S
C937 H943 0.959 . S
C937 H944 0.961 . S
C937 H945 0.960 . S
C938 C936 1.381 . S
C938 C939 1.394 . S
C938 H946 0.930 . S
C939 C938 1.394 . S
C939 C940 1.383 . S
C939 H947 0.929 . S
C940 C939 1.383 . S
C940 C941 1.377 . S
C941 H925 0.930 . S
C941 C940 1.377 . S
C941 C942 1.379 . S
C942 H926 0.931 . S
C942 C936 1.383 . S
C942 C941 1.379 . S
H943 C937 0.959 . S
H944 C937 0.961 . S
H945 C937 0.960 . S
H946 C938 0.930 . S
H947 C939 0.929 . S
H948 C956 0.929 . S
H949 C958 0.930 . S
H950 C960 0.930 . S
H951 C963 0.929 . S
H952 C966 0.930 . S
H953 C968 0.960 . S
H954 C968 0.960 . S
H955 C968 0.960 . S
C956 H948 0.929 . S
C956 C957 1.377 . S
C956 C958 1.384 . S
C957 C956 1.377 . S
C957 C963 1.390 . S
C958 H949 0.930 . S
C958 C956 1.384 . S
C958 C959 1.372 . S
C959 C958 1.372 . S
C959 C960 1.400 . S
C959 C964 1.490 . S
C960 H950 0.930 . S
C960 C959 1.400 . S
C960 C963 1.386 . S
H961 C977 0.930 . S
H962 C978 0.931 . S
C963 H951 0.929 . S
C963 C957 1.390 . S
C963 C960 1.386 . S
C964 C959 1.490 . S
C964 C966 1.395 . S
C964 C967 1.403 . S
H965 C971 0.930 . S
C966 H952 0.930 . S
C966 C964 1.395 . S
C966 C969 1.403 . S
C967 C964 1.403 . S
C967 C968 1.524 . S
C967 C971 1.400 . S
C968 H953 0.960 . S
C968 H954 0.960 . S
C968 H955 0.960 . S
C968 C967 1.524 . S
C969 C966 1.403 . S
C969 C970 1.392 . S
C969 C973 1.495 . S
C970 C969 1.392 . S
C970 C971 1.385 . S
C970 C972 1.478 . S
C971 H965 0.930 . S
C971 C967 1.400 . S
C971 C970 1.385 . S
C972 C970 1.478 . S
C972 C974 1.381 . S
C972 C978 1.383 . S
C973 C969 1.495 . S
C973 H979 0.959 . S
C973 H980 0.961 . S
C973 H981 0.960 . S
C974 C972 1.381 . S
C974 C975 1.394 . S
C974 H982 0.930 . S
C975 C974 1.394 . S
C975 C976 1.383 . S
C975 H983 0.929 . S
C976 C975 1.383 . S
C976 C977 1.377 . S
C977 H961 0.930 . S
C977 C976 1.377 . S
C977 C978 1.379 . S
C978 H962 0.931 . S
C978 C972 1.383 . S
C978 C977 1.379 . S
H979 C973 0.959 . S
H980 C973 0.961 . S
H981 C973 0.960 . S
H982 C974 0.930 . S
H983 C975 0.929 . S
H984 C992 0.929 . S
H985 C994 0.930 . S
H986 C996 0.930 . S
H987 C999 0.929 . S
H988 C1002 0.930 . S
H989 C1004 0.960 . S
H990 C1004 0.960 . S
H991 C1004 0.960 . S
C992 H984 0.929 . S
C992 C993 1.377 . S
C992 C994 1.384 . S
C993 C992 1.377 . S
C993 C999 1.390 . S
C994 H985 0.930 . S
C994 C992 1.384 . S
C994 C995 1.372 . S
C995 C994 1.372 . S
C995 C996 1.400 . S
C995 C1000 1.490 . S
C996 H986 0.930 . S
C996 C995 1.400 . S
C996 C999 1.386 . S
H997 C1013 0.930 . S
H998 C1014 0.931 . S
C999 H987 0.929 . S
C999 C993 1.390 . S
C999 C996 1.386 . S
C1000 C995 1.490 . S
C1000 C1002 1.395 . S
C1000 C1003 1.403 . S
H1001 C1007 0.930 . S
C1002 H988 0.930 . S
C1002 C1000 1.395 . S
C1002 C1005 1.403 . S
C1003 C1000 1.403 . S
C1003 C1004 1.524 . S
C1003 C1007 1.400 . S
C1004 H989 0.960 . S
C1004 H990 0.960 . S
C1004 H991 0.960 . S
C1004 C1003 1.524 . S
C1005 C1002 1.403 . S
C1005 C1006 1.392 . S
C1005 C1009 1.495 . S
C1006 C1005 1.392 . S
C1006 C1007 1.385 . S
C1006 C1008 1.478 . S
C1007 H1001 0.930 . S
C1007 C1003 1.400 . S
C1007 C1006 1.385 . S
C1008 C1006 1.478 . S
C1008 C1010 1.381 . S
C1008 C1014 1.383 . S
C1009 C1005 1.495 . S
C1009 H1015 0.959 . S
C1009 H1016 0.961 . S
C1009 H1017 0.960 . S
C1010 C1008 1.381 . S
C1010 C1011 1.394 . S
C1010 H1018 0.930 . S
C1011 C1010 1.394 . S
C1011 C1012 1.383 . S
C1011 H1019 0.929 . S
C1012 C1011 1.383 . S
C1012 C1013 1.377 . S
C1013 H997 0.930 . S
C1013 C1012 1.377 . S
C1013 C1014 1.379 . S
C1014 H998 0.931 . S
C1014 C1008 1.383 . S
C1014 C1013 1.379 . S
H1015 C1009 0.959 . S
H1016 C1009 0.961 . S
H1017 C1009 0.960 . S
H1018 C1010 0.930 . S
H1019 C1011 0.929 . S
H1020 C1028 0.929 . S
H1021 C1030 0.930 . S
H1022 C1032 0.930 . S
H1023 C1035 0.929 . S
H1024 C1038 0.930 . S
H1025 C1040 0.960 . S
H1026 C1040 0.960 . S
H1027 C1040 0.960 . S
C1028 H1020 0.929 . S
C1028 C1029 1.377 . S
C1028 C1030 1.384 . S
C1029 C1028 1.377 . S
C1029 C1035 1.390 . S
C1030 H1021 0.930 . S
C1030 C1028 1.384 . S
C1030 C1031 1.372 . S
C1031 C1030 1.372 . S
C1031 C1032 1.400 . S
C1031 C1036 1.490 . S
C1032 H1022 0.930 . S
C1032 C1031 1.400 . S
C1032 C1035 1.386 . S
H1033 C1049 0.930 . S
H1034 C1050 0.931 . S
C1035 H1023 0.929 . S
C1035 C1029 1.390 . S
C1035 C1032 1.386 . S
C1036 C1031 1.490 . S
C1036 C1038 1.395 . S
C1036 C1039 1.403 . S
H1037 C1043 0.930 . S
C1038 H1024 0.930 . S
C1038 C1036 1.395 . S
C1038 C1041 1.403 . S
C1039 C1036 1.403 . S
C1039 C1040 1.524 . S
C1039 C1043 1.400 . S
C1040 H1025 0.960 . S
C1040 H1026 0.960 . S
C1040 H1027 0.960 . S
C1040 C1039 1.524 . S
C1041 C1038 1.403 . S
C1041 C1042 1.392 . S
C1041 C1045 1.495 . S
C1042 C1041 1.392 . S
C1042 C1043 1.385 . S
C1042 C1044 1.478 . S
C1043 H1037 0.930 . S
C1043 C1039 1.400 . S
C1043 C1042 1.385 . S
C1044 C1042 1.478 . S
C1044 C1046 1.381 . S
C1044 C1050 1.383 . S
C1045 C1041 1.495 . S
C1045 H1051 0.959 . S
C1045 H1052 0.961 . S
C1045 H1053 0.960 . S
C1046 C1044 1.381 . S
C1046 C1047 1.394 . S
C1046 H1054 0.930 . S
C1047 C1046 1.394 . S
C1047 C1048 1.383 . S
C1047 H1055 0.929 . S
C1048 C1047 1.383 . S
C1048 C1049 1.377 . S
C1049 H1033 0.930 . S
C1049 C1048 1.377 . S
C1049 C1050 1.379 . S
C1050 H1034 0.931 . S
C1050 C1044 1.383 . S
C1050 C1049 1.379 . S
H1051 C1045 0.959 . S
H1052 C1045 0.961 . S
H1053 C1045 0.960 . S
H1054 C1046 0.930 . S
H1055 C1047 0.929 . S
H1056 C1064 0.929 . S
H1057 C1066 0.930 . S
H1058 C1068 0.930 . S
H1059 C1071 0.929 . S
H1060 C1074 0.930 . S
H1061 C1076 0.960 . S
H1062 C1076 0.960 . S
H1063 C1076 0.960 . S
C1064 H1056 0.929 . S
C1064 C1065 1.377 . S
C1064 C1066 1.384 . S
C1065 C1064 1.377 . S
C1065 C1071 1.390 . S
C1066 H1057 0.930 . S
C1066 C1064 1.384 . S
C1066 C1067 1.372 . S
C1067 C1066 1.372 . S
C1067 C1068 1.400 . S
C1067 C1072 1.490 . S
C1068 H1058 0.930 . S
C1068 C1067 1.400 . S
C1068 C1071 1.386 . S
H1069 C1085 0.930 . S
H1070 C1086 0.931 . S
C1071 H1059 0.929 . S
C1071 C1065 1.390 . S
C1071 C1068 1.386 . S
C1072 C1067 1.490 . S
C1072 C1074 1.395 . S
C1072 C1075 1.403 . S
H1073 C1079 0.930 . S
C1074 H1060 0.930 . S
C1074 C1072 1.395 . S
C1074 C1077 1.403 . S
C1075 C1072 1.403 . S
C1075 C1076 1.524 . S
C1075 C1079 1.400 . S
C1076 H1061 0.960 . S
C1076 H1062 0.960 . S
C1076 H1063 0.960 . S
C1076 C1075 1.524 . S
C1077 C1074 1.403 . S
C1077 C1078 1.392 . S
C1077 C1081 1.495 . S
C1078 C1077 1.392 . S
C1078 C1079 1.385 . S
C1078 C1080 1.478 . S
C1079 H1073 0.930 . S
C1079 C1075 1.400 . S
C1079 C1078 1.385 . S
C1080 C1078 1.478 . S
C1080 C1082 1.381 . S
C1080 C1086 1.383 . S
C1081 C1077 1.495 . S
C1081 H1087 0.959 . S
C1081 H1088 0.961 . S
C1081 H1089 0.960 . S
C1082 C1080 1.381 . S
C1082 C1083 1.394 . S
C1082 H1090 0.930 . S
C1083 C1082 1.394 . S
C1083 C1084 1.383 . S
C1083 H1091 0.929 . S
C1084 C1083 1.383 . S
C1084 C1085 1.377 . S
C1085 H1069 0.930 . S
C1085 C1084 1.377 . S
C1085 C1086 1.379 . S
C1086 H1070 0.931 . S
C1086 C1080 1.383 . S
C1086 C1085 1.379 . S
H1087 C1081 0.959 . S
H1088 C1081 0.961 . S
H1089 C1081 0.960 . S
H1090 C1082 0.930 . S
H1091 C1083 0.929 . S
H1092 C1100 0.929 . S
H1093 C1102 0.930 . S
H1094 C1104 0.930 . S
H1095 C1107 0.929 . S
H1096 C1110 0.930 . S
H1097 C1112 0.960 . S
H1098 C1112 0.960 . S
H1099 C1112 0.960 . S
C1100 H1092 0.929 . S
C1100 C1101 1.377 . S
C1100 C1102 1.384 . S
C1101 C1100 1.377 . S
C1101 C1107 1.390 . S
C1102 H1093 0.930 . S
C1102 C1100 1.384 . S
C1102 C1103 1.372 . S
C1103 C1102 1.372 . S
C1103 C1104 1.400 . S
C1103 C1108 1.490 . S
C1104 H1094 0.930 . S
C1104 C1103 1.400 . S
C1104 C1107 1.386 . S
H1105 C1121 0.930 . S
H1106 C1122 0.931 . S
C1107 H1095 0.929 . S
C1107 C1101 1.390 . S
C1107 C1104 1.386 . S
C1108 C1103 1.490 . S
C1108 C1110 1.395 . S
C1108 C1111 1.403 . S
H1109 C1115 0.930 . S
C1110 H1096 0.930 . S
C1110 C1108 1.395 . S
C1110 C1113 1.403 . S
C1111 C1108 1.403 . S
C1111 C1112 1.524 . S
C1111 C1115 1.400 . S
C1112 H1097 0.960 . S
C1112 H1098 0.960 . S
C1112 H1099 0.960 . S
C1112 C1111 1.524 . S
C1113 C1110 1.403 . S
C1113 C1114 1.392 . S
C1113 C1117 1.495 . S
C1114 C1113 1.392 . S
C1114 C1115 1.385 . S
C1114 C1116 1.478 . S
C1115 H1109 0.930 . S
C1115 C1111 1.400 . S
C1115 C1114 1.385 . S
C1116 C1114 1.478 . S
C1116 C1118 1.381 . S
C1116 C1122 1.383 . S
C1117 C1113 1.495 . S
C1117 H1123 0.959 . S
C1117 H1124 0.961 . S
C1117 H1125 0.960 . S
C1118 C1116 1.381 . S
C1118 C1119 1.394 . S
C1118 H1126 0.930 . S
C1119 C1118 1.394 . S
C1119 C1120 1.383 . S
C1119 H1127 0.929 . S
C1120 C1119 1.383 . S
C1120 C1121 1.377 . S
C1121 H1105 0.930 . S
C1121 C1120 1.377 . S
C1121 C1122 1.379 . S
C1122 H1106 0.931 . S
C1122 C1116 1.383 . S
C1122 C1121 1.379 . S
H1123 C1117 0.959 . S
H1124 C1117 0.961 . S
H1125 C1117 0.960 . S
H1126 C1118 0.930 . S
H1127 C1119 0.929 . S
H1128 C1136 0.929 . S
H1129 C1138 0.930 . S
H1130 C1140 0.930 . S
H1131 C1143 0.929 . S
H1132 C1146 0.930 . S
H1133 C1148 0.960 . S
H1134 C1148 0.960 . S
H1135 C1148 0.960 . S
C1136 H1128 0.929 . S
C1136 C1137 1.377 . S
C1136 C1138 1.384 . S
C1137 C1136 1.377 . S
C1137 C1143 1.390 . S
C1138 H1129 0.930 . S
C1138 C1136 1.384 . S
C1138 C1139 1.372 . S
C1139 C1138 1.372 . S
C1139 C1140 1.400 . S
C1139 C1144 1.490 . S
C1140 H1130 0.930 . S
C1140 C1139 1.400 . S
C1140 C1143 1.386 . S
H1141 C1157 0.930 . S
H1142 C1158 0.931 . S
C1143 H1131 0.929 . S
C1143 C1137 1.390 . S
C1143 C1140 1.386 . S
C1144 C1139 1.490 . S
C1144 C1146 1.395 . S
C1144 C1147 1.403 . S
H1145 C1151 0.930 . S
C1146 H1132 0.930 . S
C1146 C1144 1.395 . S
C1146 C1149 1.403 . S
C1147 C1144 1.403 . S
C1147 C1148 1.524 . S
C1147 C1151 1.400 . S
C1148 H1133 0.960 . S
C1148 H1134 0.960 . S
C1148 H1135 0.960 . S
C1148 C1147 1.524 . S
C1149 C1146 1.403 . S
C1149 C1150 1.392 . S
C1149 C1153 1.495 . S
C1150 C1149 1.392 . S
C1150 C1151 1.385 . S
C1150 C1152 1.478 . S
C1151 H1145 0.930 . S
C1151 C1147 1.400 . S
C1151 C1150 1.385 . S
C1152 C1150 1.478 . S
C1152 C1154 1.381 . S
C1152 C1158 1.383 . S
C1153 C1149 1.495 . S
C1153 H1159 0.959 . S
C1153 H1160 0.961 . S
C1153 H1161 0.960 . S
C1154 C1152 1.381 . S
C1154 C1155 1.394 . S
C1154 H1162 0.930 . S
C1155 C1154 1.394 . S
C1155 C1156 1.383 . S
C1155 H1163 0.929 . S
C1156 C1155 1.383 . S
C1156 C1157 1.377 . S
C1157 H1141 0.930 . S
C1157 C1156 1.377 . S
C1157 C1158 1.379 . S
C1158 H1142 0.931 . S
C1158 C1152 1.383 . S
C1158 C1157 1.379 . S
H1159 C1153 0.959 . S
H1160 C1153 0.961 . S
H1161 C1153 0.960 . S
H1162 C1154 0.930 . S
H1163 C1155 0.929 . S
H1164 C1172 0.929 . S
H1165 C1174 0.930 . S
H1166 C1176 0.930 . S
H1167 C1179 0.929 . S
H1168 C1182 0.930 . S
H1169 C1184 0.960 . S
H1170 C1184 0.960 . S
H1171 C1184 0.960 . S
C1172 H1164 0.929 . S
C1172 C1173 1.377 . S
C1172 C1174 1.384 . S
C1173 C1172 1.377 . S
C1173 C1179 1.390 . S
C1174 H1165 0.930 . S
C1174 C1172 1.384 . S
C1174 C1175 1.372 . S
C1175 C1174 1.372 . S
C1175 C1176 1.400 . S
C1175 C1180 1.490 . S
C1176 H1166 0.930 . S
C1176 C1175 1.400 . S
C1176 C1179 1.386 . S
H1177 C1193 0.930 . S
H1178 C1194 0.931 . S
C1179 H1167 0.929 . S
C1179 C1173 1.390 . S
C1179 C1176 1.386 . S
C1180 C1175 1.490 . S
C1180 C1182 1.395 . S
C1180 C1183 1.403 . S
H1181 C1187 0.930 . S
C1182 H1168 0.930 . S
C1182 C1180 1.395 . S
C1182 C1185 1.403 . S
C1183 C1180 1.403 . S
C1183 C1184 1.524 . S
C1183 C1187 1.400 . S
C1184 H1169 0.960 . S
C1184 H1170 0.960 . S
C1184 H1171 0.960 . S
C1184 C1183 1.524 . S
C1185 C1182 1.403 . S
C1185 C1186 1.392 . S
C1185 C1189 1.495 . S
C1186 C1185 1.392 . S
C1186 C1187 1.385 . S
C1186 C1188 1.478 . S
C1187 H1181 0.930 . S
C1187 C1183 1.400 . S
C1187 C1186 1.385 . S
C1188 C1186 1.478 . S
C1188 C1190 1.381 . S
C1188 C1194 1.383 . S
C1189 C1185 1.495 . S
C1189 H1195 0.959 . S
C1189 H1196 0.961 . S
C1189 H1197 0.960 . S
C1190 C1188 1.381 . S
C1190 C1191 1.394 . S
C1190 H1198 0.930 . S
C1191 C1190 1.394 . S
C1191 C1192 1.383 . S
C1191 H1199 0.929 . S
C1192 C1191 1.383 . S
C1192 C1193 1.377 . S
C1193 H1177 0.930 . S
C1193 C1192 1.377 . S
C1193 C1194 1.379 . S
C1194 H1178 0.931 . S
C1194 C1188 1.383 . S
C1194 C1193 1.379 . S
H1195 C1189 0.959 . S
H1196 C1189 0.961 . S
H1197 C1189 0.960 . S
H1198 C1190 0.930 . S
H1199 C1191 0.929 . S
H1200 C1208 0.929 . S
H1201 C1210 0.930 . S
H1202 C1212 0.930 . S
H1203 C1215 0.929 . S
H1204 C1218 0.930 . S
H1205 C1220 0.960 1_655 S
H1206 C1220 0.960 . S
H1207 C1220 0.960 . S
C1208 H1200 0.929 . S
C1208 C1209 1.377 . S
C1208 C1210 1.384 . S
C1209 C1208 1.377 . S
C1209 C1215 1.390 . S
C1210 H1201 0.930 . S
C1210 C1208 1.384 . S
C1210 C1211 1.372 . S
C1211 C1210 1.372 . S
C1211 C1212 1.400 . S
C1211 C1216 1.490 . S
C1212 H1202 0.930 . S
C1212 C1211 1.400 . S
C1212 C1215 1.386 . S
H1213 C1229 0.930 . S
H1214 C1230 0.931 . S
C1215 H1203 0.929 . S
C1215 C1209 1.390 . S
C1215 C1212 1.386 . S
C1216 C1211 1.490 . S
C1216 C1218 1.395 . S
C1216 C1219 1.403 . S
H1217 C1223 0.930 . S
C1218 H1204 0.930 . S
C1218 C1216 1.395 . S
C1218 C1221 1.403 1_455 S
C1219 C1216 1.403 . S
C1219 C1220 1.524 . S
C1219 C1223 1.400 1_455 S
C1220 H1205 0.960 1_455 S
C1220 H1206 0.960 . S
C1220 H1207 0.960 . S
C1220 C1219 1.524 . S
C1221 C1218 1.403 1_655 S
C1221 C1222 1.392 . S
C1221 C1225 1.495 . S
C1222 C1221 1.392 . S
C1222 C1223 1.385 . S
C1222 C1224 1.478 . S
C1223 H1217 0.930 . S
C1223 C1219 1.400 1_655 S
C1223 C1222 1.385 . S
C1224 C1222 1.478 . S
C1224 C1226 1.381 . S
C1224 C1230 1.383 . S
C1225 C1221 1.495 . S
C1225 H1231 0.959 1_655 S
C1225 H1232 0.961 . S
C1225 H1233 0.960 . S
C1226 C1224 1.381 . S
C1226 C1227 1.394 . S
C1226 H1234 0.930 . S
C1227 C1226 1.394 . S
C1227 C1228 1.383 . S
C1227 H1235 0.929 . S
C1228 C1227 1.383 . S
C1228 C1229 1.377 . S
C1229 H1213 0.930 . S
C1229 C1228 1.377 . S
C1229 C1230 1.379 . S
C1230 H1214 0.931 . S
C1230 C1224 1.383 . S
C1230 C1229 1.379 . S
H1231 C1225 0.959 1_455 S
H1232 C1225 0.961 . S
H1233 C1225 0.960 . S
H1234 C1226 0.930 . S
H1235 C1227 0.929 . S
H1236 C1244 0.929 . S
H1237 C1246 0.930 . S
H1238 C1248 0.930 . S
H1239 C1251 0.929 . S
H1240 C1254 0.930 . S
H1241 C1256 0.960 . S
H1242 C1256 0.960 . S
H1243 C1256 0.960 . S
C1244 H1236 0.929 . S
C1244 C1245 1.377 . S
C1244 C1246 1.384 . S
C1245 C1244 1.377 . S
C1245 C1251 1.390 . S
C1246 H1237 0.930 . S
C1246 C1244 1.384 . S
C1246 C1247 1.372 . S
C1247 C1246 1.372 . S
C1247 C1248 1.400 . S
C1247 C1252 1.490 . S
C1248 H1238 0.930 . S
C1248 C1247 1.400 . S
C1248 C1251 1.386 . S
H1249 C1265 0.930 . S
H1250 C1266 0.931 . S
C1251 H1239 0.929 . S
C1251 C1245 1.390 . S
C1251 C1248 1.386 . S
C1252 C1247 1.490 . S
C1252 C1254 1.395 . S
C1252 C1255 1.403 . S
H1253 C1259 0.930 . S
C1254 H1240 0.930 . S
C1254 C1252 1.395 . S
C1254 C1257 1.403 1_545 S
C1255 C1252 1.403 . S
C1255 C1256 1.524 . S
C1255 C1259 1.400 1_545 S
C1256 H1241 0.960 . S
C1256 H1242 0.960 . S
C1256 H1243 0.960 . S
C1256 C1255 1.524 . S
C1257 C1254 1.403 1_565 S
C1257 C1258 1.392 . S
C1257 C1261 1.495 . S
C1258 C1257 1.392 . S
C1258 C1259 1.385 . S
C1258 C1260 1.478 . S
C1259 H1253 0.930 . S
C1259 C1255 1.400 1_565 S
C1259 C1258 1.385 . S
C1260 C1258 1.478 . S
C1260 C1262 1.381 . S
C1260 C1266 1.383 . S
C1261 C1257 1.495 . S
C1261 H1267 0.959 . S
C1261 H1268 0.961 . S
C1261 H1269 0.960 . S
C1262 C1260 1.381 . S
C1262 C1263 1.394 . S
C1262 H1270 0.930 . S
C1263 C1262 1.394 . S
C1263 C1264 1.383 . S
C1263 H1271 0.929 . S
C1264 C1263 1.383 . S
C1264 C1265 1.377 . S
C1265 H1249 0.930 . S
C1265 C1264 1.377 . S
C1265 C1266 1.379 . S
C1266 H1250 0.931 . S
C1266 C1260 1.383 . S
C1266 C1265 1.379 . S
H1267 C1261 0.959 . S
H1268 C1261 0.961 . S
H1269 C1261 0.960 . S
H1270 C1262 0.930 . S
H1271 C1263 0.929 . S
H1272 C1280 0.929 . S
H1273 C1282 0.930 . S
H1274 C1284 0.930 . S
H1275 C1287 0.929 . S
H1276 C1290 0.930 . S
H1277 C1292 0.988 . S
H1278 C1292 0.960 . S
H1279 C1292 0.960 . S
C1280 H1272 0.929 . S
C1280 C1281 1.377 . S
C1280 C1282 1.384 . S
C1281 C1280 1.377 . S
C1281 C1287 1.390 . S
C1282 H1273 0.930 . S
C1282 C1280 1.384 . S
C1282 C1283 1.372 . S
C1283 C1282 1.372 . S
C1283 C1284 1.400 . S
C1283 C1288 1.490 . S
C1284 H1274 0.930 . S
C1284 C1283 1.400 . S
C1284 C1287 1.386 . S
H1285 C1301 0.930 . S
H1286 C1302 0.931 . S
C1287 H1275 0.929 . S
C1287 C1281 1.390 . S
C1287 C1284 1.386 . S
C1288 C1283 1.490 . S
C1288 C1290 1.395 . S
C1288 C1291 1.403 . S
H1289 C1295 0.930 . S
C1290 H1276 0.930 . S
C1290 C1288 1.395 . S
C1290 C1293 1.403 1_655 S
C1291 C1288 1.403 . S
C1291 C1292 1.524 . S
C1291 C1295 1.400 1_655 S
C1292 H1277 0.988 . S
C1292 H1278 0.960 . S
C1292 H1279 0.960 . S
C1292 C1291 1.524 . S
C1293 C1290 1.403 1_455 S
C1293 C1294 1.392 . S
C1293 C1297 1.495 . S
C1294 C1293 1.392 . S
C1294 C1295 1.385 . S
C1294 C1296 1.478 . S
C1295 H1289 0.930 . S
C1295 C1291 1.400 1_455 S
C1295 C1294 1.385 . S
C1296 C1294 1.478 . S
C1296 C1298 1.381 . S
C1296 C1302 1.383 . S
C1297 C1293 1.495 . S
C1297 H1303 0.976 . S
C1297 H1304 0.961 . S
C1297 H1305 0.960 . S
C1298 C1296 1.381 . S
C1298 C1299 1.394 . S
C1298 H1306 0.930 . S
C1299 C1298 1.394 . S
C1299 C1300 1.383 . S
C1299 H1307 0.929 . S
C1300 C1299 1.383 . S
C1300 C1301 1.377 . S
C1301 H1285 0.930 . S
C1301 C1300 1.377 . S
C1301 C1302 1.379 . S
C1302 H1286 0.931 . S
C1302 C1296 1.383 . S
C1302 C1301 1.379 . S
H1303 C1297 0.976 . S
H1304 C1297 0.961 . S
H1305 C1297 0.960 . S
H1306 C1298 0.930 . S
H1307 C1299 0.929 . S
H1308 C1316 0.929 . S
H1309 C1318 0.930 . S
H1310 C1320 0.930 . S
H1311 C1323 0.929 . S
H1312 C1326 0.930 . S
H1313 C1328 0.960 . S
H1314 C1328 0.960 . S
H1315 C1328 0.960 . S
C1316 H1308 0.929 . S
C1316 C1317 1.377 . S
C1316 C1318 1.384 . S
C1317 C1316 1.377 . S
C1317 C1323 1.390 . S
C1318 H1309 0.930 . S
C1318 C1316 1.384 . S
C1318 C1319 1.372 . S
C1319 C1318 1.372 . S
C1319 C1320 1.400 . S
C1319 C1324 1.490 . S
C1320 H1310 0.930 . S
C1320 C1319 1.400 . S
C1320 C1323 1.386 . S
H1321 C1337 0.930 . S
H1322 C1338 0.931 . S
C1323 H1311 0.929 . S
C1323 C1317 1.390 . S
C1323 C1320 1.386 . S
C1324 C1319 1.490 . S
C1324 C1326 1.395 . S
C1324 C1327 1.403 . S
H1325 C1331 0.930 . S
C1326 H1312 0.930 . S
C1326 C1324 1.395 . S
C1326 C1329 1.403 1_545 S
C1327 C1324 1.403 . S
C1327 C1328 1.524 . S
C1327 C1331 1.400 1_545 S
C1328 H1313 0.960 . S
C1328 H1314 0.960 . S
C1328 H1315 0.960 . S
C1328 C1327 1.524 . S
C1329 C1326 1.403 1_565 S
C1329 C1330 1.392 . S
C1329 C1333 1.495 . S
C1330 C1329 1.392 . S
C1330 C1331 1.385 . S
C1330 C1332 1.478 . S
C1331 H1325 0.930 . S
C1331 C1327 1.400 1_565 S
C1331 C1330 1.385 . S
C1332 C1330 1.478 . S
C1332 C1334 1.381 . S
C1332 C1338 1.383 . S
C1333 C1329 1.495 . S
C1333 H1339 0.959 . S
C1333 H1340 0.961 . S
C1333 H1341 0.960 . S
C1334 C1332 1.381 . S
C1334 C1335 1.394 . S
C1334 H1342 0.930 . S
C1335 C1334 1.394 . S
C1335 C1336 1.383 . S
C1335 H1343 0.929 . S
C1336 C1335 1.383 . S
C1336 C1337 1.377 . S
C1337 H1321 0.930 . S
C1337 C1336 1.377 . S
C1337 C1338 1.379 . S
C1338 H1322 0.931 . S
C1338 C1332 1.383 . S
C1338 C1337 1.379 . S
H1339 C1333 0.959 . S
H1340 C1333 0.961 . S
H1341 C1333 0.960 . S
H1342 C1334 0.930 . S
H1343 C1335 0.929 . S
H1344 C1352 0.929 . S
H1345 C1354 0.930 . S
H1346 C1356 0.930 . S
H1347 C1359 0.929 . S
H1348 C1362 0.930 . S
H1349 C1364 0.960 1_545 S
H1350 C1364 0.960 . S
H1351 C1364 0.960 . S
C1352 H1344 0.929 . S
C1352 C1353 1.377 . S
C1352 C1354 1.384 . S
C1353 C1352 1.377 . S
C1353 C1359 1.390 . S
C1354 H1345 0.930 . S
C1354 C1352 1.384 . S
C1354 C1355 1.372 . S
C1355 C1354 1.372 . S
C1355 C1356 1.400 . S
C1355 C1360 1.490 . S
C1356 H1346 0.930 . S
C1356 C1355 1.400 . S
C1356 C1359 1.386 . S
H1357 C1373 0.930 . S
H1358 C1374 0.931 . S
C1359 H1347 0.929 . S
C1359 C1353 1.390 . S
C1359 C1356 1.386 . S
C1360 C1355 1.490 . S
C1360 C1362 1.395 . S
C1360 C1363 1.403 . S
H1361 C1367 0.930 . S
C1362 H1348 0.930 . S
C1362 C1360 1.395 . S
C1362 C1365 1.403 1_565 S
C1363 C1360 1.403 . S
C1363 C1364 1.524 . S
C1363 C1367 1.400 1_565 S
C1364 H1349 0.960 1_565 S
C1364 H1350 0.960 . S
C1364 H1351 0.960 . S
C1364 C1363 1.524 . S
C1365 C1362 1.403 1_545 S
C1365 C1366 1.392 . S
C1365 C1369 1.495 . S
C1366 C1365 1.392 . S
C1366 C1367 1.385 . S
C1366 C1368 1.478 . S
C1367 H1361 0.930 . S
C1367 C1363 1.400 1_545 S
C1367 C1366 1.385 . S
C1368 C1366 1.478 . S
C1368 C1370 1.381 . S
C1368 C1374 1.383 . S
C1369 C1365 1.495 . S
C1369 H1375 0.959 1_545 S
C1369 H1376 0.961 . S
C1369 H1377 0.960 . S
C1370 C1368 1.381 . S
C1370 C1371 1.394 . S
C1370 H1378 0.930 . S
C1371 C1370 1.394 . S
C1371 C1372 1.383 . S
C1371 H1379 0.929 . S
C1372 C1371 1.383 . S
C1372 C1373 1.377 . S
C1373 H1357 0.930 . S
C1373 C1372 1.377 . S
C1373 C1374 1.379 . S
C1374 H1358 0.931 . S
C1374 C1368 1.383 . S
C1374 C1373 1.379 . S
H1375 C1369 0.959 1_565 S
H1376 C1369 0.961 . S
H1377 C1369 0.960 . S
H1378 C1370 0.930 . S
H1379 C1371 0.929 . S
H1380 C1388 0.929 . S
H1381 C1390 0.930 . S
H1382 C1392 0.930 . S
H1383 C1395 0.929 . S
H1384 C1398 0.930 . S
H1385 C1400 0.960 1_455 S
H1386 C1400 0.960 . S
H1387 C1400 0.960 . S
C1388 H1380 0.929 . S
C1388 C1389 1.377 . S
C1388 C1390 1.384 . S
C1389 C1388 1.377 . S
C1389 C1395 1.390 . S
C1390 H1381 0.930 . S
C1390 C1388 1.384 . S
C1390 C1391 1.372 . S
C1391 C1390 1.372 . S
C1391 C1392 1.400 . S
C1391 C1396 1.490 . S
C1392 H1382 0.930 . S
C1392 C1391 1.400 . S
C1392 C1395 1.386 . S
H1393 C1409 0.930 . S
H1394 C1410 0.931 . S
C1395 H1383 0.929 . S
C1395 C1389 1.390 . S
C1395 C1392 1.386 . S
C1396 C1391 1.490 . S
C1396 C1398 1.395 . S
C1396 C1399 1.403 . S
H1397 C1403 0.930 . S
C1398 H1384 0.930 . S
C1398 C1396 1.395 . S
C1398 C1401 1.403 1_655 S
C1399 C1396 1.403 . S
C1399 C1400 1.524 . S
C1399 C1403 1.400 1_655 S
C1400 H1385 0.960 1_655 S
C1400 H1386 0.960 . S
C1400 H1387 0.960 . S
C1400 C1399 1.524 . S
C1401 C1398 1.403 1_455 S
C1401 C1402 1.392 . S
C1401 C1405 1.495 . S
C1402 C1401 1.392 . S
C1402 C1403 1.385 . S
C1402 C1404 1.478 . S
C1403 H1397 0.930 . S
C1403 C1399 1.400 1_455 S
C1403 C1402 1.385 . S
C1404 C1402 1.478 . S
C1404 C1406 1.381 . S
C1404 C1410 1.383 . S
C1405 C1401 1.495 . S
C1405 H1411 0.959 1_455 S
C1405 H1412 0.961 . S
C1405 H1413 0.960 . S
C1406 C1404 1.381 . S
C1406 C1407 1.394 . S
C1406 H1414 0.930 . S
C1407 C1406 1.394 . S
C1407 C1408 1.383 . S
C1407 H1415 0.929 . S
C1408 C1407 1.383 . S
C1408 C1409 1.377 . S
C1409 H1393 0.930 . S
C1409 C1408 1.377 . S
C1409 C1410 1.379 . S
C1410 H1394 0.931 . S
C1410 C1404 1.383 . S
C1410 C1409 1.379 . S
H1411 C1405 0.959 1_655 S
H1412 C1405 0.961 . S
H1413 C1405 0.960 . S
H1414 C1406 0.930 . S
H1415 C1407 0.929 . S
H1416 C1424 0.929 . S
H1417 C1426 0.930 . S
H1418 C1428 0.930 . S
H1419 C1431 0.929 . S
H1420 C1434 0.930 . S
H1421 C1436 0.960 . S
H1422 C1436 0.960 . S
H1423 C1436 0.960 . S
C1424 H1416 0.929 . S
C1424 C1425 1.377 . S
C1424 C1426 1.384 . S
C1425 C1424 1.377 . S
C1425 C1431 1.390 . S
C1426 H1417 0.930 . S
C1426 C1424 1.384 . S
C1426 C1427 1.372 . S
C1427 C1426 1.372 . S
C1427 C1428 1.400 . S
C1427 C1432 1.490 . S
C1428 H1418 0.930 . S
C1428 C1427 1.400 . S
C1428 C1431 1.386 . S
H1429 C1445 0.930 . S
H1430 C1446 0.931 . S
C1431 H1419 0.929 . S
C1431 C1425 1.390 . S
C1431 C1428 1.386 . S
C1432 C1427 1.490 . S
C1432 C1434 1.395 . S
C1432 C1435 1.403 . S
H1433 C1439 0.930 . S
C1434 H1420 0.930 . S
C1434 C1432 1.395 . S
C1434 C1437 1.403 1_565 S
C1435 C1432 1.403 . S
C1435 C1436 1.524 . S
C1435 C1439 1.400 1_565 S
C1436 H1421 0.960 . S
C1436 H1422 0.960 . S
C1436 H1423 0.960 . S
C1436 C1435 1.524 . S
C1437 C1434 1.403 1_545 S
C1437 C1438 1.392 . S
C1437 C1441 1.495 . S
C1438 C1437 1.392 . S
C1438 C1439 1.385 . S
C1438 C1440 1.478 . S
C1439 H1433 0.930 . S
C1439 C1435 1.400 1_545 S
C1439 C1438 1.385 . S
C1440 C1438 1.478 . S
C1440 C1442 1.381 . S
C1440 C1446 1.383 . S
C1441 C1437 1.495 . S
C1441 H1447 0.959 . S
C1441 H1448 0.961 . S
C1441 H1449 0.960 . S
C1442 C1440 1.381 . S
C1442 C1443 1.394 . S
C1442 H1450 0.930 . S
C1443 C1442 1.394 . S
C1443 C1444 1.383 . S
C1443 H1451 0.929 . S
C1444 C1443 1.383 . S
C1444 C1445 1.377 . S
C1445 H1429 0.930 . S
C1445 C1444 1.377 . S
C1445 C1446 1.379 . S
C1446 H1430 0.931 . S
C1446 C1440 1.383 . S
C1446 C1445 1.379 . S
H1447 C1441 0.959 . S
H1448 C1441 0.961 . S
H1449 C1441 0.960 . S
H1450 C1442 0.930 . S
H1451 C1443 0.929 . S
H1452 C1460 0.929 . S
H1453 C1462 0.930 . S
H1454 C1464 0.930 . S
H1455 C1467 0.929 . S
H1456 C1470 0.930 . S
H1457 C1472 0.909 1_455 S
H1458 C1472 0.960 . S
H1459 C1472 0.960 . S
C1460 H1452 0.929 . S
C1460 C1461 1.377 . S
C1460 C1462 1.384 . S
C1461 C1460 1.377 . S
C1461 C1467 1.390 . S
C1462 H1453 0.930 . S
C1462 C1460 1.384 . S
C1462 C1463 1.372 . S
C1463 C1462 1.372 . S
C1463 C1464 1.400 . S
C1463 C1468 1.490 . S
C1464 H1454 0.930 . S
C1464 C1463 1.400 . S
C1464 C1467 1.386 . S
H1465 C1481 0.930 . S
H1466 C1482 0.931 . S
C1467 H1455 0.929 . S
C1467 C1461 1.390 . S
C1467 C1464 1.386 . S
C1468 C1463 1.490 . S
C1468 C1470 1.395 . S
C1468 C1471 1.403 . S
H1469 C1475 0.930 . S
C1470 H1456 0.930 . S
C1470 C1468 1.395 . S
C1470 C1473 1.403 1_655 S
C1471 C1468 1.403 . S
C1471 C1472 1.524 . S
C1471 C1475 1.400 1_655 S
C1472 H1457 0.909 1_655 S
C1472 H1458 0.960 . S
C1472 H1459 0.960 . S
C1472 C1471 1.524 . S
C1473 C1470 1.403 1_455 S
C1473 C1474 1.392 . S
C1473 C1477 1.495 . S
C1474 C1473 1.392 . S
C1474 C1475 1.385 . S
C1474 C1476 1.478 . S
C1475 H1469 0.930 . S
C1475 C1471 1.400 1_455 S
C1475 C1474 1.385 . S
C1476 C1474 1.478 . S
C1476 C1478 1.381 . S
C1476 C1482 1.383 . S
C1477 C1473 1.495 . S
C1477 H1483 0.927 1_455 S
C1477 H1484 0.961 . S
C1477 H1485 0.960 . S
C1478 C1476 1.381 . S
C1478 C1479 1.394 . S
C1478 H1486 0.930 . S
C1479 C1478 1.394 . S
C1479 C1480 1.383 . S
C1479 H1487 0.929 . S
C1480 C1479 1.383 . S
C1480 C1481 1.377 . S
C1481 H1465 0.930 . S
C1481 C1480 1.377 . S
C1481 C1482 1.379 . S
C1482 H1466 0.931 . S
C1482 C1476 1.383 . S
C1482 C1481 1.379 . S
H1483 C1477 0.927 1_655 S
H1484 C1477 0.961 . S
H1485 C1477 0.960 . S
H1486 C1478 0.930 . S
H1487 C1479 0.929 . S
H1488 C1496 0.929 . S
H1489 C1498 0.930 . S
H1490 C1500 0.930 . S
H1491 C1503 0.929 . S
H1492 C1506 0.930 . S
H1493 C1508 0.960 . S
H1494 C1508 0.960 . S
H1495 C1508 0.960 . S
C1496 H1488 0.929 . S
C1496 C1497 1.377 . S
C1496 C1498 1.384 . S
C1497 C1496 1.377 . S
C1497 C1503 1.390 . S
C1498 H1489 0.930 . S
C1498 C1496 1.384 . S
C1498 C1499 1.372 . S
C1499 C1498 1.372 . S
C1499 C1500 1.400 . S
C1499 C1504 1.490 . S
C1500 H1490 0.930 . S
C1500 C1499 1.400 . S
C1500 C1503 1.386 . S
H1501 C1517 0.930 . S
H1502 C1518 0.931 . S
C1503 H1491 0.929 . S
C1503 C1497 1.390 . S
C1503 C1500 1.386 . S
C1504 C1499 1.490 . S
C1504 C1506 1.395 . S
C1504 C1507 1.403 . S
H1505 C1511 0.930 . S
C1506 H1492 0.930 . S
C1506 C1504 1.395 . S
C1506 C1509 1.403 1_556 S
C1507 C1504 1.403 . S
C1507 C1508 1.524 . S
C1507 C1511 1.400 1_556 S
C1508 H1493 0.960 . S
C1508 H1494 0.960 . S
C1508 H1495 0.960 . S
C1508 C1507 1.524 . S
C1509 C1506 1.403 1_554 S
C1509 C1510 1.392 . S
C1509 C1513 1.495 . S
C1510 C1509 1.392 . S
C1510 C1511 1.385 . S
C1510 C1512 1.478 . S
C1511 H1505 0.930 . S
C1511 C1507 1.400 1_554 S
C1511 C1510 1.385 . S
C1512 C1510 1.478 . S
C1512 C1514 1.381 . S
C1512 C1518 1.383 . S
C1513 C1509 1.495 . S
C1513 H1519 0.959 . S
C1513 H1520 0.961 . S
C1513 H1521 0.960 . S
C1514 C1512 1.381 . S
C1514 C1515 1.394 . S
C1514 H1522 0.930 . S
C1515 C1514 1.394 . S
C1515 C1516 1.383 . S
C1515 H1523 0.929 . S
C1516 C1515 1.383 . S
C1516 C1517 1.377 . S
C1517 H1501 0.930 . S
C1517 C1516 1.377 . S
C1517 C1518 1.379 . S
C1518 H1502 0.931 . S
C1518 C1512 1.383 . S
C1518 C1517 1.379 . S
H1519 C1513 0.959 . S
H1520 C1513 0.961 . S
H1521 C1513 0.960 . S
H1522 C1514 0.930 . S
H1523 C1515 0.929 . S
H1524 C1532 0.929 . S
H1525 C1534 0.930 . S
H1526 C1536 0.930 . S
H1527 C1539 0.929 . S
H1528 C1542 0.930 . S
H1529 C1544 0.960 . S
H1530 C1544 0.960 . S
H1531 C1544 0.960 . S
C1532 H1524 0.929 . S
C1532 C1533 1.377 . S
C1532 C1534 1.384 . S
C1533 C1532 1.377 . S
C1533 C1539 1.390 . S
C1534 H1525 0.930 . S
C1534 C1532 1.384 . S
C1534 C1535 1.372 . S
C1535 C1534 1.372 . S
C1535 C1536 1.400 . S
C1535 C1540 1.490 . S
C1536 H1526 0.930 . S
C1536 C1535 1.400 . S
C1536 C1539 1.386 . S
H1537 C1553 0.930 . S
H1538 C1554 0.931 . S
C1539 H1527 0.929 . S
C1539 C1533 1.390 . S
C1539 C1536 1.386 . S
C1540 C1535 1.490 . S
C1540 C1542 1.395 . S
C1540 C1543 1.403 . S
H1541 C1547 0.930 . S
C1542 H1528 0.930 . S
C1542 C1540 1.395 . S
C1542 C1545 1.403 1_556 S
C1543 C1540 1.403 . S
C1543 C1544 1.524 . S
C1543 C1547 1.400 1_556 S
C1544 H1529 0.960 . S
C1544 H1530 0.960 . S
C1544 H1531 0.960 . S
C1544 C1543 1.524 . S
C1545 C1542 1.403 1_554 S
C1545 C1546 1.392 . S
C1545 C1549 1.495 . S
C1546 C1545 1.392 . S
C1546 C1547 1.385 . S
C1546 C1548 1.478 . S
C1547 H1541 0.930 . S
C1547 C1543 1.400 1_554 S
C1547 C1546 1.385 . S
C1548 C1546 1.478 . S
C1548 C1550 1.381 . S
C1548 C1554 1.383 . S
C1549 C1545 1.495 . S
C1549 H1555 0.959 . S
C1549 H1556 0.961 . S
C1549 H1557 0.960 . S
C1550 C1548 1.381 . S
C1550 C1551 1.394 . S
C1550 H1558 0.930 . S
C1551 C1550 1.394 . S
C1551 C1552 1.383 . S
C1551 H1559 0.929 . S
C1552 C1551 1.383 . S
C1552 C1553 1.377 . S
C1553 H1537 0.930 . S
C1553 C1552 1.377 . S
C1553 C1554 1.379 . S
C1554 H1538 0.931 . S
C1554 C1548 1.383 . S
C1554 C1553 1.379 . S
H1555 C1549 0.959 . S
H1556 C1549 0.961 . S
H1557 C1549 0.960 . S
H1558 C1550 0.930 . S
H1559 C1551 0.929 . S
H1560 C1568 0.929 . S
H1561 C1570 0.930 . S
H1562 C1572 0.930 . S
H1563 C1575 0.929 . S
H1564 C1578 0.930 . S
H1565 C1580 0.960 . S
H1566 C1580 0.960 . S
H1567 C1580 0.960 . S
C1568 H1560 0.929 . S
C1568 C1569 1.377 . S
C1568 C1570 1.384 . S
C1569 C1568 1.377 . S
C1569 C1575 1.390 . S
C1570 H1561 0.930 . S
C1570 C1568 1.384 . S
C1570 C1571 1.372 . S
C1571 C1570 1.372 . S
C1571 C1572 1.400 . S
C1571 C1576 1.490 . S
C1572 H1562 0.930 . S
C1572 C1571 1.400 . S
C1572 C1575 1.386 . S
H1573 C1589 0.930 . S
H1574 C1590 0.931 . S
C1575 H1563 0.929 . S
C1575 C1569 1.390 . S
C1575 C1572 1.386 . S
C1576 C1571 1.490 . S
C1576 C1578 1.395 . S
C1576 C1579 1.403 . S
H1577 C1583 0.930 . S
C1578 H1564 0.930 . S
C1578 C1576 1.395 . S
C1578 C1581 1.403 1_556 S
C1579 C1576 1.403 . S
C1579 C1580 1.524 . S
C1579 C1583 1.400 1_556 S
C1580 H1565 0.960 . S
C1580 H1566 0.960 . S
C1580 H1567 0.960 . S
C1580 C1579 1.524 . S
C1581 C1578 1.403 1_554 S
C1581 C1582 1.392 . S
C1581 C1585 1.495 . S
C1582 C1581 1.392 . S
C1582 C1583 1.385 . S
C1582 C1584 1.478 . S
C1583 H1577 0.930 . S
C1583 C1579 1.400 1_554 S
C1583 C1582 1.385 . S
C1584 C1582 1.478 . S
C1584 C1586 1.381 . S
C1584 C1590 1.383 . S
C1585 C1581 1.495 . S
C1585 H1591 0.959 . S
C1585 H1592 0.961 . S
C1585 H1593 0.960 . S
C1586 C1584 1.381 . S
C1586 C1587 1.394 . S
C1586 H1594 0.930 . S
C1587 C1586 1.394 . S
C1587 C1588 1.383 . S
C1587 H1595 0.929 . S
C1588 C1587 1.383 . S
C1588 C1589 1.377 . S
C1589 H1573 0.930 . S
C1589 C1588 1.377 . S
C1589 C1590 1.379 . S
C1590 H1574 0.931 . S
C1590 C1584 1.383 . S
C1590 C1589 1.379 . S
H1591 C1585 0.959 . S
H1592 C1585 0.961 . S
H1593 C1585 0.960 . S
H1594 C1586 0.930 . S
H1595 C1587 0.929 . S
H1596 C1604 0.929 . S
H1597 C1606 0.930 . S
H1598 C1608 0.930 . S
H1599 C1611 0.929 . S
H1600 C1614 0.930 . S
H1601 C1616 0.960 . S
H1602 C1616 0.960 . S
H1603 C1616 0.960 . S
C1604 H1596 0.929 . S
C1604 C1605 1.377 . S
C1604 C1606 1.384 . S
C1605 C1604 1.377 . S
C1605 C1611 1.390 . S
C1606 H1597 0.930 . S
C1606 C1604 1.384 . S
C1606 C1607 1.372 . S
C1607 C1606 1.372 . S
C1607 C1608 1.400 . S
C1607 C1612 1.490 . S
C1608 H1598 0.930 . S
C1608 C1607 1.400 . S
C1608 C1611 1.386 . S
H1609 C1625 0.930 . S
H1610 C1626 0.931 . S
C1611 H1599 0.929 . S
C1611 C1605 1.390 . S
C1611 C1608 1.386 . S
C1612 C1607 1.490 . S
C1612 C1614 1.395 . S
C1612 C1615 1.403 . S
H1613 C1619 0.930 . S
C1614 H1600 0.930 . S
C1614 C1612 1.395 . S
C1614 C1617 1.403 1_556 S
C1615 C1612 1.403 . S
C1615 C1616 1.524 . S
C1615 C1619 1.400 1_556 S
C1616 H1601 0.960 . S
C1616 H1602 0.960 . S
C1616 H1603 0.960 . S
C1616 C1615 1.524 . S
C1617 C1614 1.403 1_554 S
C1617 C1618 1.392 . S
C1617 C1621 1.495 . S
C1618 C1617 1.392 . S
C1618 C1619 1.385 . S
C1618 C1620 1.478 . S
C1619 H1613 0.930 . S
C1619 C1615 1.400 1_554 S
C1619 C1618 1.385 . S
C1620 C1618 1.478 . S
C1620 C1622 1.381 . S
C1620 C1626 1.383 . S
C1621 C1617 1.495 . S
C1621 H1627 0.959 . S
C1621 H1628 0.961 . S
C1621 H1629 0.960 . S
C1622 C1620 1.381 . S
C1622 C1623 1.394 . S
C1622 H1630 0.930 . S
C1623 C1622 1.394 . S
C1623 C1624 1.383 . S
C1623 H1631 0.929 . S
C1624 C1623 1.383 . S
C1624 C1625 1.377 . S
C1625 H1609 0.930 . S
C1625 C1624 1.377 . S
C1625 C1626 1.379 . S
C1626 H1610 0.931 . S
C1626 C1620 1.383 . S
C1626 C1625 1.379 . S
H1627 C1621 0.959 . S
H1628 C1621 0.961 . S
H1629 C1621 0.960 . S
H1630 C1622 0.930 . S
H1631 C1623 0.929 . S
H1632 C1640 0.929 . S
H1633 C1642 0.930 . S
H1634 C1644 0.930 . S
H1635 C1647 0.929 . S
H1636 C1650 0.930 . S
H1637 C1652 0.960 . S
H1638 C1652 0.960 . S
H1639 C1652 0.960 . S
C1640 H1632 0.929 . S
C1640 C1641 1.377 . S
C1640 C1642 1.384 . S
C1641 C1640 1.377 . S
C1641 C1647 1.390 . S
C1642 H1633 0.930 . S
C1642 C1640 1.384 . S
C1642 C1643 1.372 . S
C1643 C1642 1.372 . S
C1643 C1644 1.400 . S
C1643 C1648 1.490 . S
C1644 H1634 0.930 . S
C1644 C1643 1.400 . S
C1644 C1647 1.386 . S
H1645 C1661 0.930 . S
H1646 C1662 0.931 . S
C1647 H1635 0.929 . S
C1647 C1641 1.390 . S
C1647 C1644 1.386 . S
C1648 C1643 1.490 . S
C1648 C1650 1.395 . S
C1648 C1651 1.403 . S
H1649 C1655 0.930 . S
C1650 H1636 0.930 . S
C1650 C1648 1.395 . S
C1650 C1653 1.403 . S
C1651 C1648 1.403 . S
C1651 C1652 1.524 . S
C1651 C1655 1.400 . S
C1652 H1637 0.960 . S
C1652 H1638 0.960 . S
C1652 H1639 0.960 . S
C1652 C1651 1.524 . S
C1653 C1650 1.403 . S
C1653 C1654 1.392 . S
C1653 C1657 1.495 . S
C1654 C1653 1.392 . S
C1654 C1655 1.385 . S
C1654 C1656 1.478 . S
C1655 H1649 0.930 . S
C1655 C1651 1.400 . S
C1655 C1654 1.385 . S
C1656 C1654 1.478 . S
C1656 C1658 1.381 . S
C1656 C1662 1.383 . S
C1657 C1653 1.495 . S
C1657 H1663 0.959 . S
C1657 H1664 0.961 . S
C1657 H1665 0.960 . S
C1658 C1656 1.381 . S
C1658 C1659 1.394 . S
C1658 H1666 0.930 . S
C1659 C1658 1.394 . S
C1659 C1660 1.383 . S
C1659 H1667 0.929 . S
C1660 C1659 1.383 . S
C1660 C1661 1.377 . S
C1661 H1645 0.930 . S
C1661 C1660 1.377 . S
C1661 C1662 1.379 . S
C1662 H1646 0.931 . S
C1662 C1656 1.383 . S
C1662 C1661 1.379 . S
H1663 C1657 0.959 . S
H1664 C1657 0.961 . S
H1665 C1657 0.960 . S
H1666 C1658 0.930 . S
H1667 C1659 0.929 . S
H1668 C1676 0.929 . S
H1669 C1678 0.930 . S
H1670 C1680 0.930 . S
H1671 C1683 0.929 . S
H1672 C1686 0.930 . S
H1673 C1688 0.960 . S
H1674 C1688 0.960 . S
H1675 C1688 0.960 . S
C1676 H1668 0.929 . S
C1676 C1677 1.377 . S
C1676 C1678 1.384 . S
C1677 C1676 1.377 . S
C1677 C1683 1.390 . S
C1678 H1669 0.930 . S
C1678 C1676 1.384 . S
C1678 C1679 1.372 . S
C1679 C1678 1.372 . S
C1679 C1680 1.400 . S
C1679 C1684 1.490 . S
C1680 H1670 0.930 . S
C1680 C1679 1.400 . S
C1680 C1683 1.386 . S
H1681 C1697 0.930 . S
H1682 C1698 0.931 . S
C1683 H1671 0.929 . S
C1683 C1677 1.390 . S
C1683 C1680 1.386 . S
C1684 C1679 1.490 . S
C1684 C1686 1.395 . S
C1684 C1687 1.403 . S
H1685 C1691 0.930 . S
C1686 H1672 0.930 . S
C1686 C1684 1.395 . S
C1686 C1689 1.403 . S
C1687 C1684 1.403 . S
C1687 C1688 1.524 . S
C1687 C1691 1.400 . S
C1688 H1673 0.960 . S
C1688 H1674 0.960 . S
C1688 H1675 0.960 . S
C1688 C1687 1.524 . S
C1689 C1686 1.403 . S
C1689 C1690 1.392 . S
C1689 C1693 1.495 . S
C1690 C1689 1.392 . S
C1690 C1691 1.385 . S
C1690 C1692 1.478 . S
C1691 H1685 0.930 . S
C1691 C1687 1.400 . S
C1691 C1690 1.385 . S
C1692 C1690 1.478 . S
C1692 C1694 1.381 . S
C1692 C1698 1.383 . S
C1693 C1689 1.495 . S
C1693 H1699 0.959 . S
C1693 H1700 0.961 . S
C1693 H1701 0.960 . S
C1694 C1692 1.381 . S
C1694 C1695 1.394 . S
C1694 H1702 0.930 . S
C1695 C1694 1.394 . S
C1695 C1696 1.383 . S
C1695 H1703 0.929 . S
C1696 C1695 1.383 . S
C1696 C1697 1.377 . S
C1697 H1681 0.930 . S
C1697 C1696 1.377 . S
C1697 C1698 1.379 . S
C1698 H1682 0.931 . S
C1698 C1692 1.383 . S
C1698 C1697 1.379 . S
H1699 C1693 0.959 . S
H1700 C1693 0.961 . S
H1701 C1693 0.960 . S
H1702 C1694 0.930 . S
H1703 C1695 0.929 . S
H1704 C1712 0.929 . S
H1705 C1714 0.930 . S
H1706 C1716 0.930 . S
H1707 C1719 0.929 . S
H1708 C1722 0.930 . S
H1709 C1724 0.960 . S
H1710 C1724 0.960 . S
H1711 C1724 0.960 . S
C1712 H1704 0.929 . S
C1712 C1713 1.377 . S
C1712 C1714 1.384 . S
C1713 C1712 1.377 . S
C1713 C1719 1.390 . S
C1714 H1705 0.930 . S
C1714 C1712 1.384 . S
C1714 C1715 1.372 . S
C1715 C1714 1.372 . S
C1715 C1716 1.400 . S
C1715 C1720 1.490 . S
C1716 H1706 0.930 . S
C1716 C1715 1.400 . S
C1716 C1719 1.386 . S
H1717 C1733 0.930 . S
H1718 C1734 0.931 . S
C1719 H1707 0.929 . S
C1719 C1713 1.390 . S
C1719 C1716 1.386 . S
C1720 C1715 1.490 . S
C1720 C1722 1.395 . S
C1720 C1723 1.403 . S
H1721 C1727 0.930 . S
C1722 H1708 0.930 . S
C1722 C1720 1.395 . S
C1722 C1725 1.403 . S
C1723 C1720 1.403 . S
C1723 C1724 1.524 . S
C1723 C1727 1.400 . S
C1724 H1709 0.960 . S
C1724 H1710 0.960 . S
C1724 H1711 0.960 . S
C1724 C1723 1.524 . S
C1725 C1722 1.403 . S
C1725 C1726 1.392 . S
C1725 C1729 1.495 . S
C1726 C1725 1.392 . S
C1726 C1727 1.385 . S
C1726 C1728 1.478 . S
C1727 H1721 0.930 . S
C1727 C1723 1.400 . S
C1727 C1726 1.385 . S
C1728 C1726 1.478 . S
C1728 C1730 1.381 . S
C1728 C1734 1.383 . S
C1729 C1725 1.495 . S
C1729 H1735 0.959 . S
C1729 H1736 0.961 . S
C1729 H1737 0.960 . S
C1730 C1728 1.381 . S
C1730 C1731 1.394 . S
C1730 H1738 0.930 . S
C1731 C1730 1.394 . S
C1731 C1732 1.383 . S
C1731 H1739 0.929 . S
C1732 C1731 1.383 . S
C1732 C1733 1.377 . S
C1733 H1717 0.930 . S
C1733 C1732 1.377 . S
C1733 C1734 1.379 . S
C1734 H1718 0.931 . S
C1734 C1728 1.383 . S
C1734 C1733 1.379 . S
H1735 C1729 0.959 . S
H1736 C1729 0.961 . S
H1737 C1729 0.960 . S
H1738 C1730 0.930 . S
H1739 C1731 0.929 . S
H1740 C1748 0.929 . S
H1741 C1750 0.930 . S
H1742 C1752 0.930 . S
H1743 C1755 0.929 . S
H1744 C1758 0.930 . S
H1745 C1760 0.960 . S
H1746 C1760 0.960 . S
H1747 C1760 0.960 . S
C1748 H1740 0.929 . S
C1748 C1749 1.377 . S
C1748 C1750 1.384 . S
C1749 C1748 1.377 . S
C1749 C1755 1.390 . S
C1750 H1741 0.930 . S
C1750 C1748 1.384 . S
C1750 C1751 1.372 . S
C1751 C1750 1.372 . S
C1751 C1752 1.400 . S
C1751 C1756 1.490 . S
C1752 H1742 0.930 . S
C1752 C1751 1.400 . S
C1752 C1755 1.386 . S
H1753 C1769 0.930 . S
H1754 C1770 0.931 . S
C1755 H1743 0.929 . S
C1755 C1749 1.390 . S
C1755 C1752 1.386 . S
C1756 C1751 1.490 . S
C1756 C1758 1.395 . S
C1756 C1759 1.403 . S
H1757 C1763 0.930 . S
C1758 H1744 0.930 . S
C1758 C1756 1.395 . S
C1758 C1761 1.403 . S
C1759 C1756 1.403 . S
C1759 C1760 1.524 . S
C1759 C1763 1.400 . S
C1760 H1745 0.960 . S
C1760 H1746 0.960 . S
C1760 H1747 0.960 . S
C1760 C1759 1.524 . S
C1761 C1758 1.403 . S
C1761 C1762 1.392 . S
C1761 C1765 1.495 . S
C1762 C1761 1.392 . S
C1762 C1763 1.385 . S
C1762 C1764 1.478 . S
C1763 H1757 0.930 . S
C1763 C1759 1.400 . S
C1763 C1762 1.385 . S
C1764 C1762 1.478 . S
C1764 C1766 1.381 . S
C1764 C1770 1.383 . S
C1765 C1761 1.495 . S
C1765 H1771 0.959 . S
C1765 H1772 0.961 . S
C1765 H1773 0.960 . S
C1766 C1764 1.381 . S
C1766 C1767 1.394 . S
C1766 H1774 0.930 . S
C1767 C1766 1.394 . S
C1767 C1768 1.383 . S
C1767 H1775 0.929 . S
C1768 C1767 1.383 . S
C1768 C1769 1.377 . S
C1769 H1753 0.930 . S
C1769 C1768 1.377 . S
C1769 C1770 1.379 . S
C1770 H1754 0.931 . S
C1770 C1764 1.383 . S
C1770 C1769 1.379 . S
H1771 C1765 0.959 . S
H1772 C1765 0.961 . S
H1773 C1765 0.960 . S
H1774 C1766 0.930 . S
H1775 C1767 0.929 . S
H1776 C1784 0.929 . S
H1777 C1786 0.930 . S
H1778 C1788 0.930 . S
H1779 C1791 0.929 . S
H1780 C1794 0.930 . S
H1781 C1796 0.960 . S
H1782 C1796 0.960 . S
H1783 C1796 0.960 . S
C1784 H1776 0.929 . S
C1784 C1785 1.377 . S
C1784 C1786 1.384 . S
C1785 C1784 1.377 . S
C1785 C1791 1.390 . S
C1786 H1777 0.930 . S
C1786 C1784 1.384 . S
C1786 C1787 1.372 . S
C1787 C1786 1.372 . S
C1787 C1788 1.400 . S
C1787 C1792 1.490 . S
C1788 H1778 0.930 . S
C1788 C1787 1.400 . S
C1788 C1791 1.386 . S
H1789 C1805 0.930 . S
H1790 C1806 0.931 . S
C1791 H1779 0.929 . S
C1791 C1785 1.390 . S
C1791 C1788 1.386 . S
C1792 C1787 1.490 . S
C1792 C1794 1.395 . S
C1792 C1795 1.403 . S
H1793 C1799 0.930 . S
C1794 H1780 0.930 . S
C1794 C1792 1.395 . S
C1794 C1797 1.403 . S
C1795 C1792 1.403 . S
C1795 C1796 1.524 . S
C1795 C1799 1.400 . S
C1796 H1781 0.960 . S
C1796 H1782 0.960 . S
C1796 H1783 0.960 . S
C1796 C1795 1.524 . S
C1797 C1794 1.403 . S
C1797 C1798 1.392 . S
C1797 C1801 1.495 . S
C1798 C1797 1.392 . S
C1798 C1799 1.385 . S
C1798 C1800 1.478 . S
C1799 H1793 0.930 . S
C1799 C1795 1.400 . S
C1799 C1798 1.385 . S
C1800 C1798 1.478 . S
C1800 C1802 1.381 . S
C1800 C1806 1.383 . S
C1801 C1797 1.495 . S
C1801 H1807 0.959 . S
C1801 H1808 0.961 . S
C1801 H1809 0.960 . S
C1802 C1800 1.381 . S
C1802 C1803 1.394 . S
C1802 H1810 0.930 . S
C1803 C1802 1.394 . S
C1803 C1804 1.383 . S
C1803 H1811 0.929 . S
C1804 C1803 1.383 . S
C1804 C1805 1.377 . S
C1805 H1789 0.930 . S
C1805 C1804 1.377 . S
C1805 C1806 1.379 . S
C1806 H1790 0.931 . S
C1806 C1800 1.383 . S
C1806 C1805 1.379 . S
H1807 C1801 0.959 . S
H1808 C1801 0.961 . S
H1809 C1801 0.960 . S
H1810 C1802 0.930 . S
H1811 C1803 0.929 . S
H1812 C1820 0.929 . S
H1813 C1822 0.930 . S
H1814 C1824 0.930 . S
H1815 C1827 0.929 . S
H1816 C1830 0.930 . S
H1817 C1832 0.960 . S
H1818 C1832 0.960 . S
H1819 C1832 0.960 . S
C1820 H1812 0.929 . S
C1820 C1821 1.377 . S
C1820 C1822 1.384 . S
C1821 C1820 1.377 . S
C1821 C1827 1.390 . S
C1822 H1813 0.930 . S
C1822 C1820 1.384 . S
C1822 C1823 1.372 . S
C1823 C1822 1.372 . S
C1823 C1824 1.400 . S
C1823 C1828 1.490 . S
C1824 H1814 0.930 . S
C1824 C1823 1.400 . S
C1824 C1827 1.386 . S
H1825 C1841 0.930 . S
H1826 C1842 0.931 . S
C1827 H1815 0.929 . S
C1827 C1821 1.390 . S
C1827 C1824 1.386 . S
C1828 C1823 1.490 . S
C1828 C1830 1.395 . S
C1828 C1831 1.403 . S
H1829 C1835 0.930 . S
C1830 H1816 0.930 . S
C1830 C1828 1.395 . S
C1830 C1833 1.403 . S
C1831 C1828 1.403 . S
C1831 C1832 1.524 . S
C1831 C1835 1.400 . S
C1832 H1817 0.960 . S
C1832 H1818 0.960 . S
C1832 H1819 0.960 . S
C1832 C1831 1.524 . S
C1833 C1830 1.403 . S
C1833 C1834 1.392 . S
C1833 C1837 1.495 . S
C1834 C1833 1.392 . S
C1834 C1835 1.385 . S
C1834 C1836 1.478 . S
C1835 H1829 0.930 . S
C1835 C1831 1.400 . S
C1835 C1834 1.385 . S
C1836 C1834 1.478 . S
C1836 C1838 1.381 . S
C1836 C1842 1.383 . S
C1837 C1833 1.495 . S
C1837 H1843 0.959 . S
C1837 H1844 0.961 . S
C1837 H1845 0.960 . S
C1838 C1836 1.381 . S
C1838 C1839 1.394 . S
C1838 H1846 0.930 . S
C1839 C1838 1.394 . S
C1839 C1840 1.383 . S
C1839 H1847 0.929 . S
C1840 C1839 1.383 . S
C1840 C1841 1.377 . S
C1841 H1825 0.930 . S
C1841 C1840 1.377 . S
C1841 C1842 1.379 . S
C1842 H1826 0.931 . S
C1842 C1836 1.383 . S
C1842 C1841 1.379 . S
H1843 C1837 0.959 . S
H1844 C1837 0.961 . S
H1845 C1837 0.960 . S
H1846 C1838 0.930 . S
H1847 C1839 0.929 . S
H1848 C1856 0.929 . S
H1849 C1858 0.930 . S
H1850 C1860 0.930 . S
H1851 C1863 0.929 . S
H1852 C1866 0.930 . S
H1853 C1868 0.960 . S
H1854 C1868 0.960 . S
H1855 C1868 0.960 . S
C1856 H1848 0.929 . S
C1856 C1857 1.377 . S
C1856 C1858 1.384 . S
C1857 C1856 1.377 . S
C1857 C1863 1.390 . S
C1858 H1849 0.930 . S
C1858 C1856 1.384 . S
C1858 C1859 1.372 . S
C1859 C1858 1.372 . S
C1859 C1860 1.400 . S
C1859 C1864 1.490 . S
C1860 H1850 0.930 . S
C1860 C1859 1.400 . S
C1860 C1863 1.386 . S
H1861 C1877 0.930 . S
H1862 C1878 0.931 . S
C1863 H1851 0.929 . S
C1863 C1857 1.390 . S
C1863 C1860 1.386 . S
C1864 C1859 1.490 . S
C1864 C1866 1.395 . S
C1864 C1867 1.403 . S
H1865 C1871 0.930 . S
C1866 H1852 0.930 . S
C1866 C1864 1.395 . S
C1866 C1869 1.403 . S
C1867 C1864 1.403 . S
C1867 C1868 1.524 . S
C1867 C1871 1.400 . S
C1868 H1853 0.960 . S
C1868 H1854 0.960 . S
C1868 H1855 0.960 . S
C1868 C1867 1.524 . S
C1869 C1866 1.403 . S
C1869 C1870 1.392 . S
C1869 C1873 1.495 . S
C1870 C1869 1.392 . S
C1870 C1871 1.385 . S
C1870 C1872 1.478 . S
C1871 H1865 0.930 . S
C1871 C1867 1.400 . S
C1871 C1870 1.385 . S
C1872 C1870 1.478 . S
C1872 C1874 1.381 . S
C1872 C1878 1.383 . S
C1873 C1869 1.495 . S
C1873 H1879 0.959 . S
C1873 H1880 0.961 . S
C1873 H1881 0.960 . S
C1874 C1872 1.381 . S
C1874 C1875 1.394 . S
C1874 H1882 0.930 . S
C1875 C1874 1.394 . S
C1875 C1876 1.383 . S
C1875 H1883 0.929 . S
C1876 C1875 1.383 . S
C1876 C1877 1.377 . S
C1877 H1861 0.930 . S
C1877 C1876 1.377 . S
C1877 C1878 1.379 . S
C1878 H1862 0.931 . S
C1878 C1872 1.383 . S
C1878 C1877 1.379 . S
H1879 C1873 0.959 . S
H1880 C1873 0.961 . S
H1881 C1873 0.960 . S
H1882 C1874 0.930 . S
H1883 C1875 0.929 . S
H1884 C1892 0.929 . S
H1885 C1894 0.930 . S
H1886 C1896 0.930 . S
H1887 C1899 0.929 . S
H1888 C1902 0.930 . S
H1889 C1904 0.960 . S
H1890 C1904 0.960 . S
H1891 C1904 0.960 . S
C1892 H1884 0.929 . S
C1892 C1893 1.377 . S
C1892 C1894 1.384 . S
C1893 C1892 1.377 . S
C1893 C1899 1.390 . S
C1894 H1885 0.930 . S
C1894 C1892 1.384 . S
C1894 C1895 1.372 . S
C1895 C1894 1.372 . S
C1895 C1896 1.400 . S
C1895 C1900 1.490 . S
C1896 H1886 0.930 . S
C1896 C1895 1.400 . S
C1896 C1899 1.386 . S
H1897 C1913 0.930 . S
H1898 C1914 0.931 . S
C1899 H1887 0.929 . S
C1899 C1893 1.390 . S
C1899 C1896 1.386 . S
C1900 C1895 1.490 . S
C1900 C1902 1.395 . S
C1900 C1903 1.403 . S
H1901 C1907 0.930 . S
C1902 H1888 0.930 . S
C1902 C1900 1.395 . S
C1902 C1905 1.403 . S
C1903 C1900 1.403 . S
C1903 C1904 1.524 . S
C1903 C1907 1.400 . S
C1904 H1889 0.960 . S
C1904 H1890 0.960 . S
C1904 H1891 0.960 . S
C1904 C1903 1.524 . S
C1905 C1902 1.403 . S
C1905 C1906 1.392 . S
C1905 C1909 1.495 . S
C1906 C1905 1.392 . S
C1906 C1907 1.385 . S
C1906 C1908 1.478 . S
C1907 H1901 0.930 . S
C1907 C1903 1.400 . S
C1907 C1906 1.385 . S
C1908 C1906 1.478 . S
C1908 C1910 1.381 . S
C1908 C1914 1.383 . S
C1909 C1905 1.495 . S
C1909 H1915 0.959 . S
C1909 H1916 0.961 . S
C1909 H1917 0.960 . S
C1910 C1908 1.381 . S
C1910 C1911 1.394 . S
C1910 H1918 0.930 . S
C1911 C1910 1.394 . S
C1911 C1912 1.383 . S
C1911 H1919 0.929 . S
C1912 C1911 1.383 . S
C1912 C1913 1.377 . S
C1913 H1897 0.930 . S
C1913 C1912 1.377 . S
C1913 C1914 1.379 . S
C1914 H1898 0.931 . S
C1914 C1908 1.383 . S
C1914 C1913 1.379 . S
H1915 C1909 0.959 . S
H1916 C1909 0.961 . S
H1917 C1909 0.960 . S
H1918 C1910 0.930 . S
H1919 C1911 0.929 . S
H1920 C1928 0.929 . S
H1921 C1930 0.930 . S
H1922 C1932 0.930 . S
H1923 C1935 0.929 . S
H1924 C1938 0.930 . S
H1925 C1940 0.960 . S
H1926 C1940 0.960 . S
H1927 C1940 0.960 . S
C1928 H1920 0.929 . S
C1928 C1929 1.377 . S
C1928 C1930 1.384 . S
C1929 C1928 1.377 . S
C1929 C1935 1.390 . S
C1930 H1921 0.930 . S
C1930 C1928 1.384 . S
C1930 C1931 1.372 . S
C1931 C1930 1.372 . S
C1931 C1932 1.400 . S
C1931 C1936 1.490 . S
C1932 H1922 0.930 . S
C1932 C1931 1.400 . S
C1932 C1935 1.386 . S
H1933 C1949 0.930 . S
H1934 C1950 0.931 . S
C1935 H1923 0.929 . S
C1935 C1929 1.390 . S
C1935 C1932 1.386 . S
C1936 C1931 1.490 . S
C1936 C1938 1.395 . S
C1936 C1939 1.403 . S
H1937 C1943 0.930 . S
C1938 H1924 0.930 . S
C1938 C1936 1.395 . S
C1938 C1941 1.403 . S
C1939 C1936 1.403 . S
C1939 C1940 1.524 . S
C1939 C1943 1.400 . S
C1940 H1925 0.960 . S
C1940 H1926 0.960 . S
C1940 H1927 0.960 . S
C1940 C1939 1.524 . S
C1941 C1938 1.403 . S
C1941 C1942 1.392 . S
C1941 C1945 1.495 . S
C1942 C1941 1.392 . S
C1942 C1943 1.385 . S
C1942 C1944 1.478 . S
C1943 H1937 0.930 . S
C1943 C1939 1.400 . S
C1943 C1942 1.385 . S
C1944 C1942 1.478 . S
C1944 C1946 1.381 . S
C1944 C1950 1.383 . S
C1945 C1941 1.495 . S
C1945 H1951 0.959 . S
C1945 H1952 0.961 . S
C1945 H1953 0.960 . S
C1946 C1944 1.381 . S
C1946 C1947 1.394 . S
C1946 H1954 0.930 . S
C1947 C1946 1.394 . S
C1947 C1948 1.383 . S
C1947 H1955 0.929 . S
C1948 C1947 1.383 . S
C1948 C1949 1.377 . S
C1949 H1933 0.930 . S
C1949 C1948 1.377 . S
C1949 C1950 1.379 . S
C1950 H1934 0.931 . S
C1950 C1944 1.383 . S
C1950 C1949 1.379 . S
H1951 C1945 0.959 . S
H1952 C1945 0.961 . S
H1953 C1945 0.960 . S
H1954 C1946 0.930 . S
H1955 C1947 0.929 . S
H1956 C1964 0.929 . S
H1957 C1966 0.930 . S
H1958 C1968 0.930 . S
H1959 C1971 0.929 . S
H1960 C1974 0.930 . S
H1961 C1976 0.960 . S
H1962 C1976 0.960 . S
H1963 C1976 0.960 . S
C1964 H1956 0.929 . S
C1964 C1965 1.377 . S
C1964 C1966 1.384 . S
C1965 C1964 1.377 . S
C1965 C1971 1.390 . S
C1966 H1957 0.930 . S
C1966 C1964 1.384 . S
C1966 C1967 1.372 . S
C1967 C1966 1.372 . S
C1967 C1968 1.400 . S
C1967 C1972 1.490 . S
C1968 H1958 0.930 . S
C1968 C1967 1.400 . S
C1968 C1971 1.386 . S
H1969 C1985 0.930 . S
H1970 C1986 0.931 . S
C1971 H1959 0.929 . S
C1971 C1965 1.390 . S
C1971 C1968 1.386 . S
C1972 C1967 1.490 . S
C1972 C1974 1.395 . S
C1972 C1975 1.403 . S
H1973 C1979 0.930 . S
C1974 H1960 0.930 . S
C1974 C1972 1.395 . S
C1974 C1977 1.403 . S
C1975 C1972 1.403 . S
C1975 C1976 1.524 . S
C1975 C1979 1.400 . S
C1976 H1961 0.960 . S
C1976 H1962 0.960 . S
C1976 H1963 0.960 . S
C1976 C1975 1.524 . S
C1977 C1974 1.403 . S
C1977 C1978 1.392 . S
C1977 C1981 1.495 . S
C1978 C1977 1.392 . S
C1978 C1979 1.385 . S
C1978 C1980 1.478 . S
C1979 H1973 0.930 . S
C1979 C1975 1.400 . S
C1979 C1978 1.385 . S
C1980 C1978 1.478 . S
C1980 C1982 1.381 . S
C1980 C1986 1.383 . S
C1981 C1977 1.495 . S
C1981 H1987 0.959 . S
C1981 H1988 0.961 . S
C1981 H1989 0.960 . S
C1982 C1980 1.381 . S
C1982 C1983 1.394 . S
C1982 H1990 0.930 . S
C1983 C1982 1.394 . S
C1983 C1984 1.383 . S
C1983 H1991 0.929 . S
C1984 C1983 1.383 . S
C1984 C1985 1.377 . S
C1985 H1969 0.930 . S
C1985 C1984 1.377 . S
C1985 C1986 1.379 . S
C1986 H1970 0.931 . S
C1986 C1980 1.383 . S
C1986 C1985 1.379 . S
H1987 C1981 0.959 . S
H1988 C1981 0.961 . S
H1989 C1981 0.960 . S
H1990 C1982 0.930 . S
H1991 C1983 0.929 . S
H1992 C2000 0.929 . S
H1993 C2002 0.930 . S
H1994 C2004 0.930 . S
H1995 C2007 0.929 . S
H1996 C2010 0.930 . S
H1997 C2012 0.960 . S
H1998 C2012 0.960 . S
H1999 C2012 0.960 . S
C2000 H1992 0.929 . S
C2000 C2001 1.377 . S
C2000 C2002 1.384 . S
C2001 C2000 1.377 . S
C2001 C2007 1.390 . S
C2002 H1993 0.930 . S
C2002 C2000 1.384 . S
C2002 C2003 1.372 . S
C2003 C2002 1.372 . S
C2003 C2004 1.400 . S
C2003 C2008 1.490 . S
C2004 H1994 0.930 . S
C2004 C2003 1.400 . S
C2004 C2007 1.386 . S
H2005 C2021 0.930 . S
H2006 C2022 0.931 . S
C2007 H1995 0.929 . S
C2007 C2001 1.390 . S
C2007 C2004 1.386 . S
C2008 C2003 1.490 . S
C2008 C2010 1.395 . S
C2008 C2011 1.403 . S
H2009 C2015 0.930 . S
C2010 H1996 0.930 . S
C2010 C2008 1.395 . S
C2010 C2013 1.403 . S
C2011 C2008 1.403 . S
C2011 C2012 1.524 . S
C2011 C2015 1.400 . S
C2012 H1997 0.960 . S
C2012 H1998 0.960 . S
C2012 H1999 0.960 . S
C2012 C2011 1.524 . S
C2013 C2010 1.403 . S
C2013 C2014 1.392 . S
C2013 C2017 1.495 . S
C2014 C2013 1.392 . S
C2014 C2015 1.385 . S
C2014 C2016 1.478 . S
C2015 H2009 0.930 . S
C2015 C2011 1.400 . S
C2015 C2014 1.385 . S
C2016 C2014 1.478 . S
C2016 C2018 1.381 . S
C2016 C2022 1.383 . S
C2017 C2013 1.495 . S
C2017 H2023 0.959 . S
C2017 H2024 0.961 . S
C2017 H2025 0.960 . S
C2018 C2016 1.381 . S
C2018 C2019 1.394 . S
C2018 H2026 0.930 . S
C2019 C2018 1.394 . S
C2019 C2020 1.383 . S
C2019 H2027 0.929 . S
C2020 C2019 1.383 . S
C2020 C2021 1.377 . S
C2021 H2005 0.930 . S
C2021 C2020 1.377 . S
C2021 C2022 1.379 . S
C2022 H2006 0.931 . S
C2022 C2016 1.383 . S
C2022 C2021 1.379 . S
H2023 C2017 0.959 . S
H2024 C2017 0.961 . S
H2025 C2017 0.960 . S
H2026 C2018 0.930 . S
H2027 C2019 0.929 . S
H2028 C2036 0.929 . S
H2029 C2038 0.930 . S
H2030 C2040 0.930 . S
H2031 C2043 0.929 . S
H2032 C2046 0.930 . S
H2033 C2048 0.960 . S
H2034 C2048 0.960 . S
H2035 C2048 0.960 . S
C2036 H2028 0.929 . S
C2036 C2037 1.377 . S
C2036 C2038 1.384 . S
C2037 C2036 1.377 . S
C2037 C2043 1.390 . S
C2038 H2029 0.930 . S
C2038 C2036 1.384 . S
C2038 C2039 1.372 . S
C2039 C2038 1.372 . S
C2039 C2040 1.400 . S
C2039 C2044 1.490 . S
C2040 H2030 0.930 . S
C2040 C2039 1.400 . S
C2040 C2043 1.386 . S
H2041 C2057 0.930 . S
H2042 C2058 0.931 . S
C2043 H2031 0.929 . S
C2043 C2037 1.390 . S
C2043 C2040 1.386 . S
C2044 C2039 1.490 . S
C2044 C2046 1.395 . S
C2044 C2047 1.403 . S
H2045 C2051 0.930 . S
C2046 H2032 0.930 . S
C2046 C2044 1.395 . S
C2046 C2049 1.403 . S
C2047 C2044 1.403 . S
C2047 C2048 1.524 . S
C2047 C2051 1.400 . S
C2048 H2033 0.960 . S
C2048 H2034 0.960 . S
C2048 H2035 0.960 . S
C2048 C2047 1.524 . S
C2049 C2046 1.403 . S
C2049 C2050 1.392 . S
C2049 C2053 1.495 . S
C2050 C2049 1.392 . S
C2050 C2051 1.385 . S
C2050 C2052 1.478 . S
C2051 H2045 0.930 . S
C2051 C2047 1.400 . S
C2051 C2050 1.385 . S
C2052 C2050 1.478 . S
C2052 C2054 1.381 . S
C2052 C2058 1.383 . S
C2053 C2049 1.495 . S
C2053 H2059 0.959 . S
C2053 H2060 0.961 . S
C2053 H2061 0.960 . S
C2054 C2052 1.381 . S
C2054 C2055 1.394 . S
C2054 H2062 0.930 . S
C2055 C2054 1.394 . S
C2055 C2056 1.383 . S
C2055 H2063 0.929 . S
C2056 C2055 1.383 . S
C2056 C2057 1.377 . S
C2057 H2041 0.930 . S
C2057 C2056 1.377 . S
C2057 C2058 1.379 . S
C2058 H2042 0.931 . S
C2058 C2052 1.383 . S
C2058 C2057 1.379 . S
H2059 C2053 0.959 . S
H2060 C2053 0.961 . S
H2061 C2053 0.960 . S
H2062 C2054 0.930 . S
H2063 C2055 0.929 . S
C345 C162 1.509 . S
C364 C7 1.385 . S
C381 C21 1.371 . S
C400 C120 1.507 . S
C417 C35 1.377 . S
C436 C134 1.506 . S
C453 C49 1.368 . S
C472 C148 1.507 . S
C489 C190 1.508 . S
C508 C63 1.324 . S
C525 C77 1.366 . S
C544 C204 1.507 . S
C561 C218 1.509 . S
C580 C91 1.407 . S
C597 C176 1.508 . S
C616 C105 1.403 . S
C633 C78 1.508 . S
C652 C119 1.408 . S
C669 C92 1.508 . S
C688 C133 1.403 . S
C705 C147 1.363 . S
C724 C106 1.503 . S
C741 C64 1.509 . S
C760 C161 1.384 . S
C777 C50 1.508 . S
C796 C175 1.390 . S
C813 C189 1.375 . S
C832 C8 1.507 . S
C849 C203 1.364 . S
C868 C22 1.503 . S
C885 C217 1.365 . S
C904 C36 1.503 . S
C921 C231 1.369 . S
C940 C330 1.503 . S
C957 C288 1.508 . S
C976 C245 1.341 . S
C993 C259 1.368 . S
C1012 C246 1.503 . S
C1029 C273 1.370 . S
C1048 C260 1.507 . S
C1065 C274 1.509 . S
C1084 C287 1.406 . S
C1101 C301 1.369 . S
C1120 C316 1.507 . S
C1137 C232 1.509 . S
C1156 C315 1.404 . S
C1173 C302 1.508 . S
C1192 C329 1.408 . S
C1209 C9 1.655 . S
C1228 C93 1.646 . S
C1245 C23 1.650 . S
C1264 C107 1.642 . S
C1281 C37 1.655 . S
C1300 C65 1.636 . S
C1317 C79 1.652 . S
C1336 C51 1.634 . S
C1353 C149 1.655 . S
C1372 C121 1.644 . S
C1389 C135 1.655 . S
C1408 C163 1.645 . S
C1425 C177 1.649 . S
C1444 C205 1.662 . S
C1461 C219 1.654 . S
C1480 C191 1.654 . S
C1497 C247 1.649 . S
C1516 C233 1.662 . S
C1533 C261 1.650 . S
C1552 C331 1.664 . S
C1569 C275 1.652 . S
C1588 C303 1.662 . S
C1605 C289 1.649 . S
C1624 C317 1.660 . S
C1641 C6 1.093 . S
C1660 C76 1.113 . S
C1677 C20 1.087 . S
C1696 C90 1.074 . S
C1713 C34 1.097 . S
C1732 C104 1.122 . S
C1749 C62 1.095 . S
C1768 C48 1.120 . S
C1785 C118 1.088 . S
C1804 C328 1.087 . S
C1821 C132 1.094 . S
C1840 C300 1.070 . S
C1857 C314 1.090 . S
C1876 C146 1.097 . S
C1893 C160 1.093 . S
C1912 C230 1.112 . S
C1929 C286 1.100 . S
C1948 C174 1.109 . S
C1965 C244 1.092 . S
C1984 C188 1.065 . S
C2001 C202 1.091 . S
C2020 C258 1.061 . S
C2037 C272 1.090 . S
C2056 C216 1.060 . S
