# Generated by pormake.
# Topology wmi, (6)-cn, num edge types: 1
# Building blocks:
#     Node 0, Type 0, BuildingBlock: JUFBIX_clean_sbu_0, # of connection points: 6
#     Node 1, Type 0, BuildingBlock: JUFBIX_clean_sbu_0, # of connection points: 6
#     Node 2, Type 0, BuildingBlock: JUFBIX_clean_sbu_0, # of connection points: 6
#     Node 3, Type 0, BuildingBlock: JUFBIX_clean_sbu_0, # of connection points: 6
#     Node 4, Type 0, BuildingBlock: JUFBIX_clean_sbu_0, # of connection points: 6
#     Node 5, Type 0, BuildingBlock: JUFBIX_clean_sbu_0, # of connection points: 6
#     Node 6, Type 0, BuildingBlock: JUFBIX_clean_sbu_0, # of connection points: 6
#     Node 7, Type 0, BuildingBlock: JUFBIX_clean_sbu_0, # of connection points: 6
#     Node 8, Type 0, BuildingBlock: JUFBIX_clean_sbu_0, # of connection points: 6
#     Node 9, Type 0, BuildingBlock: JUFBIX_clean_sbu_0, # of connection points: 6
#     Node 10, Type 0, BuildingBlock: JUFBIX_clean_sbu_0, # of connection points: 6
#     Node 11, Type 0, BuildingBlock: JUFBIX_clean_sbu_0, # of connection points: 6
#     Node 12, Type 0, BuildingBlock: JUFBIX_clean_sbu_0, # of connection points: 6
#     Node 13, Type 0, BuildingBlock: JUFBIX_clean_sbu_0, # of connection points: 6
#     Node 14, Type 0, BuildingBlock: JUFBIX_clean_sbu_0, # of connection points: 6
#     Node 15, Type 0, BuildingBlock: JUFBIX_clean_sbu_0, # of connection points: 6
#     Node 16, Type 0, BuildingBlock: JUFBIX_clean_sbu_0, # of connection points: 6
#     Node 17, Type 0, BuildingBlock: JUFBIX_clean_sbu_0, # of connection points: 6
#     Edge 18, Type (0, 0), BuildingBlock: UVAHIK_clean_linker_0, # of connection points: 2
#     Edge 19, Type (0, 0), BuildingBlock: UVAHIK_clean_linker_0, # of connection points: 2
#     Edge 20, Type (0, 0), BuildingBlock: UVAHIK_clean_linker_0, # of connection points: 2
#     Edge 21, Type (0, 0), BuildingBlock: UVAHIK_clean_linker_0, # of connection points: 2
#     Edge 22, Type (0, 0), BuildingBlock: UVAHIK_clean_linker_0, # of connection points: 2
#     Edge 23, Type (0, 0), BuildingBlock: UVAHIK_clean_linker_0, # of connection points: 2
#     Edge 24, Type (0, 0), BuildingBlock: UVAHIK_clean_linker_0, # of connection points: 2
#     Edge 25, Type (0, 0), BuildingBlock: UVAHIK_clean_linker_0, # of connection points: 2
#     Edge 26, Type (0, 0), BuildingBlock: UVAHIK_clean_linker_0, # of connection points: 2
#     Edge 27, Type (0, 0), BuildingBlock: UVAHIK_clean_linker_0, # of connection points: 2
#     Edge 28, Type (0, 0), BuildingBlock: UVAHIK_clean_linker_0, # of connection points: 2
#     Edge 29, Type (0, 0), BuildingBlock: UVAHIK_clean_linker_0, # of connection points: 2
#     Edge 30, Type (0, 0), BuildingBlock: UVAHIK_clean_linker_0, # of connection points: 2
#     Edge 31, Type (0, 0), BuildingBlock: UVAHIK_clean_linker_0, # of connection points: 2
#     Edge 32, Type (0, 0), BuildingBlock: UVAHIK_clean_linker_0, # of connection points: 2
#     Edge 33, Type (0, 0), BuildingBlock: UVAHIK_clean_linker_0, # of connection points: 2
#     Edge 34, Type (0, 0), BuildingBlock: UVAHIK_clean_linker_0, # of connection points: 2
#     Edge 35, Type (0, 0), BuildingBlock: UVAHIK_clean_linker_0, # of connection points: 2
#     Edge 36, Type (0, 0), BuildingBlock: UVAHIK_clean_linker_0, # of connection points: 2
#     Edge 37, Type (0, 0), BuildingBlock: UVAHIK_clean_linker_0, # of connection points: 2
#     Edge 38, Type (0, 0), BuildingBlock: UVAHIK_clean_linker_0, # of connection points: 2
#     Edge 39, Type (0, 0), BuildingBlock: UVAHIK_clean_linker_0, # of connection points: 2
#     Edge 40, Type (0, 0), BuildingBlock: UVAHIK_clean_linker_0, # of connection points: 2
#     Edge 41, Type (0, 0), BuildingBlock: UVAHIK_clean_linker_0, # of connection points: 2
#     Edge 42, Type (0, 0), BuildingBlock: UVAHIK_clean_linker_0, # of connection points: 2
#     Edge 43, Type (0, 0), BuildingBlock: UVAHIK_clean_linker_0, # of connection points: 2
#     Edge 44, Type (0, 0), BuildingBlock: UVAHIK_clean_linker_0, # of connection points: 2
#     Edge 45, Type (0, 0), BuildingBlock: UVAHIK_clean_linker_0, # of connection points: 2
#     Edge 46, Type (0, 0), BuildingBlock: UVAHIK_clean_linker_0, # of connection points: 2
#     Edge 47, Type (0, 0), BuildingBlock: UVAHIK_clean_linker_0, # of connection points: 2
#     Edge 48, Type (0, 0), BuildingBlock: UVAHIK_clean_linker_0, # of connection points: 2
#     Edge 49, Type (0, 0), BuildingBlock: UVAHIK_clean_linker_0, # of connection points: 2
#     Edge 50, Type (0, 0), BuildingBlock: UVAHIK_clean_linker_0, # of connection points: 2
#     Edge 51, Type (0, 0), BuildingBlock: UVAHIK_clean_linker_0, # of connection points: 2
#     Edge 52, Type (0, 0), BuildingBlock: UVAHIK_clean_linker_0, # of connection points: 2
#     Edge 53, Type (0, 0), BuildingBlock: UVAHIK_clean_linker_0, # of connection points: 2
#     Edge 54, Type (0, 0), BuildingBlock: UVAHIK_clean_linker_0, # of connection points: 2
#     Edge 55, Type (0, 0), BuildingBlock: UVAHIK_clean_linker_0, # of connection points: 2
#     Edge 56, Type (0, 0), BuildingBlock: UVAHIK_clean_linker_0, # of connection points: 2
#     Edge 57, Type (0, 0), BuildingBlock: UVAHIK_clean_linker_0, # of connection points: 2
#     Edge 58, Type (0, 0), BuildingBlock: UVAHIK_clean_linker_0, # of connection points: 2
#     Edge 59, Type (0, 0), BuildingBlock: UVAHIK_clean_linker_0, # of connection points: 2
#     Edge 60, Type (0, 0), BuildingBlock: UVAHIK_clean_linker_0, # of connection points: 2
#     Edge 61, Type (0, 0), BuildingBlock: UVAHIK_clean_linker_0, # of connection points: 2
#     Edge 62, Type (0, 0), BuildingBlock: UVAHIK_clean_linker_0, # of connection points: 2
#     Edge 63, Type (0, 0), BuildingBlock: UVAHIK_clean_linker_0, # of connection points: 2
#     Edge 64, Type (0, 0), BuildingBlock: UVAHIK_clean_linker_0, # of connection points: 2
#     Edge 65, Type (0, 0), BuildingBlock: UVAHIK_clean_linker_0, # of connection points: 2
#     Edge 66, Type (0, 0), BuildingBlock: UVAHIK_clean_linker_0, # of connection points: 2
#     Edge 67, Type (0, 0), BuildingBlock: UVAHIK_clean_linker_0, # of connection points: 2
#     Edge 68, Type (0, 0), BuildingBlock: UVAHIK_clean_linker_0, # of connection points: 2
#     Edge 69, Type (0, 0), BuildingBlock: UVAHIK_clean_linker_0, # of connection points: 2
#     Edge 70, Type (0, 0), BuildingBlock: UVAHIK_clean_linker_0, # of connection points: 2
#     Edge 71, Type (0, 0), BuildingBlock: UVAHIK_clean_linker_0, # of connection points: 2
# Relax obj value: 0.289
# Max RMSD: 0.233
# Mean RMSD: 0.233
data_MOF--net-wmi--node1-JUFBIX_clean_sbu_0--edge1-UVAHIK_clean_linker_0
_symmetry_space_group_name_H-M    P1
_symmetry_Int_Tables_number       1
_symmetry_cell_setting            triclinic
loop_
_symmetry_equiv_pos_as_xyz
'x, y, z'
_cell_length_a     41.512104
_cell_length_b     41.46244
_cell_length_c     110.46543
_cell_angle_alpha  89.99639
_cell_angle_beta   90.021068
_cell_angle_gamma 120.08036
loop_
_atom_site_label
_atom_site_type_symbol
_atom_site_fract_x
_atom_site_fract_y
_atom_site_fract_z
_atom_type_partial_charge
Co0 Co 0.46197 0.98987 0.0962 0.0
C1 C 0.4638 0.02067 0.07354 0.0
Co2 Co 0.4454 0.03312 0.0964 0.0
C3 C 0.50364 0.95061 0.09986 0.0
C4 C 0.45339 0.91877 0.08974 0.0
N5 N 0.47392 0.95193 0.09538 0.0
N6 N 0.50174 0.91781 0.09739 0.0
C7 C 0.4702 0.89774 0.09107 0.0
H8 H 0.52613 0.97302 0.10487 0.0
H9 H 0.42794 0.91027 0.08478 0.0
C10 C 0.44126 0.00096 0.11896 0.0
N11 N 0.43292 0.07046 0.09721 0.0
C12 C 0.45306 0.10691 0.09411 0.0
C13 C 0.40139 0.06658 0.10208 0.0
N14 N 0.43524 0.12581 0.09686 0.0
C15 C 0.40268 0.10032 0.10185 0.0
C16 C 0.38642 0.96263 0.09247 0.0
O17 O 0.45165 0.98113 0.11318 0.0
O18 O 0.43872 0.0264 0.11336 0.0
O19 O 0.39375 0.99597 0.09407 0.0
O20 O 0.4124 0.95517 0.09293 0.0
O21 O 0.45162 0.03893 0.07933 0.0
H22 H 0.37929 0.04105 0.10594 0.0
H23 H 0.48044 0.11939 0.09006 0.0
O24 O 0.47131 -0.00141 0.07926 0.0
O25 O 0.51161 0.02527 0.09941 0.0
O26 O 0.49723 0.06946 0.09869 0.0
C27 C 0.52164 0.05961 0.09986 0.0
H28 H 0.46057 0.87016 0.0874 0.0
H29 H 0.3818 0.10589 0.10554 0.0
Co30 Co 0.03064 0.4806 0.09243 0.0
C31 C 0.0055 0.45153 0.069 0.0
Co32 Co 0.9961 0.41942 0.09134 0.0
C33 C 0.08874 0.55844 0.09738 0.0
C34 C 0.04229 0.55195 0.08697 0.0
N35 N 0.05638 0.53235 0.09232 0.0
N36 N 0.0944 0.59315 0.09557 0.0
C37 C 0.06539 0.58913 0.08903 0.0
H38 H 0.10731 0.55218 0.10242 0.0
H39 H 0.01645 0.53989 0.08195 0.0
C40 C 0.02293 0.44749 0.11459 0.0
N41 N 0.9676 0.36792 0.09135 0.0
C42 C 0.93203 0.34825 0.08752 0.0
C43 C 0.97357 0.34317 0.0974 0.0
N44 N 0.91479 0.31258 0.09139 0.0
C45 C 0.94112 0.3091 0.09744 0.0
C46 C 0.07262 0.44745 0.0889 0.0
O47 O 0.03841 0.47936 0.1095 0.0
O48 O 0.00206 0.41871 0.10833 0.0
O49 O 0.04107 0.41749 0.08926 0.0
O50 O 0.07406 0.47877 0.08961 0.0
O51 O 0.99079 0.42019 0.07433 0.0
H52 H -0.00123 0.35017 0.10233 0.0
H53 H 0.91834 0.36069 0.08267 0.0
O54 O 0.02326 0.48108 0.07527 0.0
O55 O 0.9872 0.48226 0.09545 0.0
O56 O 0.95146 0.42227 0.09355 0.0
C57 C 0.95493 0.45406 0.09533 0.0
H58 H 0.06159 0.61169 0.08581 0.0
H59 H 0.9365 0.28471 0.10246 0.0
Co60 Co 0.55027 0.58025 0.09303 0.0
C61 C 0.57984 0.57975 0.07044 0.0
Co62 Co 0.60907 0.59477 0.09354 0.0
C63 C 0.47048 0.54604 0.09742 0.0
C64 C 0.49146 0.59053 0.08449 0.0
N65 N 0.50203 0.57138 0.09179 0.0
N66 N 0.44104 0.54934 0.09401 0.0
C67 C 0.45412 0.57728 0.08592 0.0
H68 H 0.46915 0.52597 0.10397 0.0
H69 H 0.5097 0.61267 0.07841 0.0
C70 C 0.5803 0.59743 0.11606 0.0
N71 N 0.65729 0.60374 0.0945 0.0
C72 C 0.66986 0.5812 0.09061 0.0
C73 C 0.68633 0.63173 0.10036 0.0
N74 N 0.70543 0.59361 0.09396 0.0
C75 C 0.71599 0.62562 0.10003 0.0
C76 C 0.60248 0.65658 0.09055 0.0
O77 O 0.55074 0.58861 0.1101 0.0
O78 O 0.60819 0.5995 0.11058 0.0
O79 O 0.62686 0.647 0.09202 0.0
O80 O 0.56833 0.63174 0.09044 0.0
O81 O 0.60985 0.59062 0.07635 0.0
H82 H 0.68547 0.65423 0.10503 0.0
H83 H 0.65287 0.55564 0.08566 0.0
O84 O 0.55037 0.57268 0.07609 0.0
O85 O 0.53258 0.52869 0.09558 0.0
O86 O 0.5908 0.54237 0.09516 0.0
C87 C 0.55645 0.51807 0.09594 0.0
H88 H 0.43762 0.58695 0.08124 0.0
H89 H 0.7426 0.64247 0.10444 0.0
Co90 Co 0.9881 0.45884 0.91499 0.0
C91 C 0.01336 0.46105 0.93829 0.0
Co92 Co 0.03262 0.44453 0.91581 0.0
C93 C 0.94514 0.4966 0.91801 0.0
C94 C 0.9183 0.44753 0.90698 0.0
N95 N 0.94912 0.46829 0.91367 0.0
N96 N 0.91326 0.49441 0.91408 0.0
C97 C 0.89633 0.46352 0.90719 0.0
H98 H 0.96567 0.5189 0.92359 0.0
H99 H 0.91246 0.42261 0.90206 0.0
C100 C 0.00616 0.44002 0.8926 0.0
N101 N 0.07145 0.43456 0.91657 0.0
C102 C 0.10719 0.45805 0.91976 0.0
C103 C 0.07139 0.40441 0.91201 0.0
N104 N 0.12973 0.4442 0.9171 0.0
C105 C 0.107 0.4102 0.91232 0.0
C106 C 0.96272 0.3832 0.91844 0.0
O107 O 0.9852 0.44983 0.89787 0.0
O108 O 0.03054 0.4375 0.8988 0.0
O109 O -0.00311 0.39262 0.91775 0.0
O110 O 0.95342 0.40796 0.91764 0.0
O111 O 0.03421 0.45113 0.93294 0.0
H112 H 0.0475 0.38077 0.90796 0.0
H113 H 0.11667 0.4855 0.92346 0.0
O114 O 0.99098 0.46691 0.93204 0.0
O115 O 0.02311 0.51011 0.91252 0.0
O116 O 0.06759 0.49649 0.91382 0.0
C117 C 0.05763 0.52074 0.91263 0.0
H118 H 0.86986 0.45319 0.90263 0.0
H119 H 0.11562 0.39169 0.90852 0.0
Co120 Co 0.56799 0.55819 0.91751 0.0
C121 C 0.56923 0.58846 0.94035 0.0
Co122 Co 0.59433 0.61941 0.91798 0.0
C123 C 0.54924 0.47993 0.91387 0.0
C124 C 0.50688 0.48713 0.92237 0.0
N125 N 0.54179 0.50639 0.91785 0.0
N126 N 0.51979 0.44531 0.91552 0.0
C127 C 0.49329 0.44981 0.92086 0.0
H128 H 0.57531 0.48585 0.90976 0.0
H129 H 0.49202 0.49948 0.92651 0.0
C130 C 0.59564 0.59028 0.89527 0.0
N131 N 0.61747 0.67092 0.91786 0.0
C132 C 0.60152 0.69084 0.92133 0.0
C133 C 0.65057 0.69616 0.91313 0.0
N134 N 0.6227 0.72743 0.91872 0.0
C135 C 0.65385 0.73094 0.91363 0.0
C136 C 0.64238 0.59169 0.92259 0.0
O137 O 0.58006 0.5589 0.9007 0.0
O138 O 0.60251 0.61946 0.90113 0.0
O139 O 0.64087 0.62139 0.92102 0.0
O140 O 0.61277 0.56014 0.92172 0.0
O141 O 0.58679 0.61934 0.93482 0.0
H142 H 0.67023 0.68947 0.90907 0.0
H143 H 0.57371 0.67819 0.92503 0.0
O144 O 0.55709 0.55834 0.93439 0.0
O145 O 0.52337 0.55648 0.9132 0.0
O146 O 0.54717 0.61645 0.91495 0.0
C147 C 0.5192 0.58461 0.9129 0.0
H148 H 0.46625 0.4275 0.9237 0.0
H149 H 0.67686 0.75647 0.91011 0.0
Co150 Co 0.48955 0.04615 0.92042 0.0
C151 C 0.46027 0.01516 0.94309 0.0
Co152 Co 0.42943 0.00437 0.92034 0.0
C153 C 0.56954 0.08523 0.91546 0.0
C154 C 0.55374 0.11303 0.92849 0.0
N155 N 0.53963 0.0826 0.92129 0.0
N156 N 0.60126 0.11632 0.91867 0.0
C157 C 0.5915 0.13389 0.92682 0.0
H158 H 0.56817 0.0649 0.90902 0.0
H159 H 0.5377 0.11952 0.93472 0.0
C160 C 0.45757 0.03658 0.89781 0.0
N161 N 0.37919 0.96812 0.91951 0.0
C162 C 0.36256 0.9313 0.92207 0.0
C163 C 0.3518 0.97289 0.91488 0.0
N164 N 0.32594 0.91292 0.91916 0.0
C165 C 0.31918 0.93921 0.91469 0.0
C166 C 0.44348 0.07573 0.92447 0.0
O167 O 0.48801 0.05607 0.90352 0.0
O168 O 0.42955 0.01128 0.90342 0.0
O169 O 0.41671 0.04279 0.92272 0.0
O170 O 0.47658 0.08204 0.92408 0.0
O171 O 0.42959 0.9982 0.93736 0.0
H172 H 0.35557 -0.00108 0.91138 0.0
H173 H 0.37724 0.91812 0.92577 0.0
O174 O 0.49011 0.03629 0.93731 0.0
O175 O 0.50228 0.00991 0.91673 0.0
O176 O 0.44331 0.96689 0.91796 0.0
C177 C 0.47718 0.97584 0.91638 0.0
H178 H 0.61055 0.15958 0.93141 0.0
H179 H 0.29296 0.93427 0.91098 0.0
Co180 Co 0.16357 0.35226 0.42581 0.0
C181 C 0.16365 0.37512 0.40197 0.0
Co182 Co 0.13356 0.3827 0.42315 0.0
C183 C 0.18146 0.29427 0.43108 0.0
C184 C 0.22759 0.34469 0.42431 0.0
N185 N 0.19137 0.32906 0.42742 0.0
N186 N 0.21024 0.28781 0.43042 0.0
C187 C 0.23926 0.31954 0.42619 0.0
H188 H 0.1536 0.27394 0.43396 0.0
H189 H 0.24426 0.37232 0.42055 0.0
C190 C 0.13097 0.35787 0.4468 0.0
N191 N 0.10757 0.40783 0.42142 0.0
C192 C 0.12207 0.44309 0.41742 0.0
C193 C 0.07384 0.39878 0.42588 0.0
N194 N 0.09961 0.45719 0.41961 0.0
C195 C 0.06894 0.42918 0.42483 0.0
C196 C 0.09038 0.30603 0.42015 0.0
O197 O 0.14872 0.3429 0.44241 0.0
O198 O 0.12372 0.37823 0.44003 0.0
O199 O 0.08909 0.33604 0.42068 0.0
O200 O 0.12128 0.30723 0.42161 0.0
O201 O 0.14277 0.38646 0.40632 0.0
H202 H 0.05535 0.37289 0.43045 0.0
H203 H 0.15021 0.45939 0.41404 0.0
O204 O 0.17745 0.36105 0.40905 0.0
O205 O 0.20567 0.39715 0.43018 0.0
O206 O 0.17884 0.42929 0.42567 0.0
C207 C 0.20743 0.42829 0.42913 0.0
H208 H 0.26651 0.32368 0.42403 0.0
H209 H 0.04575 0.43125 0.42839 0.0
Co210 Co 0.69989 0.83902 0.42758 0.0
C211 C 0.67608 0.81879 0.40362 0.0
Co212 Co 0.66914 0.77864 0.42424 0.0
C213 C 0.75878 0.91474 0.43281 0.0
C214 C 0.70726 0.91092 0.42767 0.0
N215 N 0.72323 0.89002 0.42981 0.0
N216 N 0.7654 0.95014 0.43264 0.0
C217 C 0.73295 0.9477 0.42945 0.0
H218 H 0.77958 0.90702 0.43476 0.0
H219 H 0.67907 0.90032 0.4245 0.0
C220 C 0.69467 0.79837 0.44801 0.0
N221 N 0.64413 0.72777 0.42185 0.0
C222 C 0.60932 0.7076 0.41744 0.0
C223 C 0.65306 0.70245 0.42576 0.0
N224 N 0.59545 0.67067 0.41879 0.0
C225 C 0.62304 0.66723 0.42394 0.0
C226 C 0.74575 0.81262 0.42092 0.0
O227 O 0.70896 0.83162 0.44407 0.0
O228 O 0.67474 0.77139 0.44094 0.0
O229 O 0.71563 0.78132 0.42103 0.0
O230 O 0.74482 0.84216 0.42315 0.0
O231 O 0.66403 0.78598 0.4076 0.0
H232 H 0.67868 0.70918 0.43037 0.0
H233 H 0.59321 0.7199 0.41428 0.0
O234 O 0.6915 0.84606 0.41095 0.0
O235 O 0.65476 0.83563 0.43214 0.0
O236 O 0.62279 0.77663 0.4275 0.0
C237 C 0.62369 0.80604 0.43115 0.0
H238 H 0.72863 0.971 0.42782 0.0
H239 H 0.62095 0.64133 0.42685 0.0
Co240 Co 0.21125 0.88712 0.43096 0.0
C241 C 0.23387 0.88624 0.40712 0.0
Co242 Co 0.2719 0.91701 0.4283 0.0
C243 C 0.13511 0.87033 0.43526 0.0
C244 C 0.13926 0.82286 0.43 0.0
N245 N 0.16003 0.85957 0.43253 0.0
N246 N 0.09974 0.84163 0.43456 0.0
C247 C 0.10238 0.81178 0.4313 0.0
H248 H 0.14271 0.89875 0.4374 0.0
H249 H 0.15006 0.8054 0.42688 0.0
C250 C 0.24968 0.92027 0.45195 0.0
N251 N 0.32299 0.94251 0.42651 0.0
C252 C 0.34287 0.92765 0.42205 0.0
C253 C 0.34846 0.97574 0.43112 0.0
N254 N 0.37966 0.94941 0.42407 0.0
C255 C 0.38339 0.97999 0.4297 0.0
C256 C 0.23897 0.9604 0.42503 0.0
O257 O 0.21691 0.90184 0.44759 0.0
O258 O 0.27738 0.92796 0.44516 0.0
O259 O 0.27017 0.96151 0.42542 0.0
O260 O 0.20917 0.92972 0.42681 0.0
O261 O 0.26623 0.9065 0.4115 0.0
H262 H 0.34187 0.99434 0.436 0.0
H263 H 0.33021 0.8997 0.4184 0.0
O264 O 0.20594 0.87347 0.41418 0.0
O265 O 0.21363 0.8446 0.43524 0.0
O266 O 0.27294 0.87195 0.4312 0.0
C267 C 0.24316 0.84308 0.43441 0.0
H268 H 0.07924 0.78432 0.42929 0.0
H269 H 0.40916 0.00268 0.43322 0.0
Co270 Co 0.67525 0.82808 0.25034 0.0
C271 C 0.69851 0.83042 0.27432 0.0
Co272 Co 0.70573 0.79814 0.25353 0.0
C273 C 0.61675 0.84577 0.24554 0.0
C274 C 0.66901 0.89328 0.2503 0.0
N275 N 0.65237 0.85623 0.24828 0.0
N276 N 0.6108 0.87496 0.24573 0.0
C277 C 0.64371 0.90484 0.24868 0.0
H278 H 0.59542 0.81724 0.24377 0.0
H279 H 0.69743 0.91075 0.2533 0.0
C280 C 0.68074 0.7937 0.22973 0.0
N281 N 0.73044 0.77195 0.25575 0.0
C282 C 0.76531 0.78637 0.26007 0.0
C283 C 0.72118 0.73767 0.25173 0.0
N284 N 0.77891 0.76317 0.25857 0.0
C285 C 0.75105 0.73225 0.25341 0.0
C286 C 0.62892 0.75534 0.2566 0.0
O287 O 0.66667 0.81268 0.23379 0.0
O288 O 0.70024 0.78601 0.23676 0.0
O289 O 0.65903 0.75425 0.25656 0.0
O290 O 0.62994 0.78593 0.2545 0.0
O291 O 0.71066 0.80989 0.27024 0.0
H292 H 0.69543 0.71892 0.24715 0.0
H293 H 0.78163 0.81473 0.26331 0.0
O294 O 0.68322 0.84252 0.26705 0.0
O295 O 0.7207 0.86999 0.24605 0.0
O296 O 0.75229 0.84253 0.25046 0.0
C297 C 0.75165 0.87132 0.247 0.0
H298 H 0.64862 0.93271 0.25028 0.0
H299 H 0.7528 0.70832 0.25042 0.0
Co300 Co 0.21291 0.87536 0.25375 0.0
C301 C 0.212 0.90001 0.27734 0.0
Co302 Co 0.24156 0.93616 0.25585 0.0
C303 C 0.19652 0.79927 0.24957 0.0
C304 C 0.14983 0.80322 0.25585 0.0
N305 N 0.18599 0.82409 0.25269 0.0
N306 N 0.16815 0.76382 0.25061 0.0
C307 C 0.1388 0.76633 0.25453 0.0
H308 H 0.22453 0.80702 0.24684 0.0
H309 H 0.13277 0.81407 0.25932 0.0
C310 C 0.24502 0.91203 0.23247 0.0
N311 N 0.26648 0.98746 0.25707 0.0
C312 C 0.25123 0.00757 0.26098 0.0
C313 C 0.29963 0.01261 0.25235 0.0
N314 N 0.27265 0.04415 0.25848 0.0
C315 C 0.30343 0.04755 0.25314 0.0
C316 C 0.28621 0.90468 0.2596 0.0
O317 O 0.22729 0.87959 0.23711 0.0
O318 O 0.25207 0.94014 0.23897 0.0
O319 O 0.28661 0.93554 0.25886 0.0
O320 O 0.25584 0.87435 0.25809 0.0
O321 O 0.23161 0.9321 0.27269 0.0
H322 H 0.31843 0.00568 0.24778 0.0
H323 H 0.22322 0.9951 0.26453 0.0
O324 O 0.1996 0.8715 0.27053 0.0
O325 O 0.17001 0.87642 0.24925 0.0
O326 O 0.19585 0.93599 0.25279 0.0
C327 C 0.16754 0.90551 0.24973 0.0
H328 H 0.11176 0.7431 0.2569 0.0
H329 H 0.32591 0.07297 0.24935 0.0
Co330 Co 0.16367 0.36052 0.24935 0.0
C331 C 0.14196 0.33581 0.27315 0.0
Co332 Co 0.10323 0.33191 0.2525 0.0
C333 C 0.23997 0.41893 0.2448 0.0
C334 C 0.235 0.36659 0.24955 0.0
N335 N 0.21469 0.38316 0.24737 0.0
N336 N 0.27518 0.42519 0.24531 0.0
C337 C 0.27201 0.3922 0.24824 0.0
H338 H 0.23272 0.44014 0.24294 0.0
H339 H 0.22379 0.33804 0.25247 0.0
C340 C 0.12422 0.35869 0.22896 0.0
N341 N 0.05233 0.30752 0.25472 0.0
C342 C 0.03204 0.27265 0.25909 0.0
C343 C 0.02717 0.31626 0.25052 0.0
N344 N 0.99524 0.25845 0.2574 0.0
C345 C 0.99196 0.28598 0.25209 0.0
C346 C 0.13889 0.40783 0.25649 0.0
O347 O 0.15725 0.37083 0.23285 0.0
O348 O 0.09691 0.3395 0.23598 0.0
O349 O 0.10702 0.37845 0.25622 0.0
O350 O 0.1677 0.4058 0.25408 0.0
O351 O 0.10968 0.3252 0.26899 0.0
H352 H 0.03408 0.3418 0.24581 0.0
H353 H 0.04429 0.25663 0.26238 0.0
O354 O 0.16966 0.35068 0.26599 0.0
O355 O 0.15937 0.31526 0.24453 0.0
O356 O 0.10006 0.28519 0.24875 0.0
C357 C 0.12894 0.28486 0.24523 0.0
H358 H 0.29486 0.38734 0.25004 0.0
H359 H 0.96625 0.28359 0.24884 0.0
Co360 Co 0.80918 0.65847 0.75876 0.0
C361 C 0.81381 0.68363 0.73524 0.0
Co362 Co 0.79189 0.70054 0.75703 0.0
C363 C 0.8515 0.62085 0.7559 0.0
C364 C 0.80448 0.59186 0.76766 0.0
N365 N 0.8223 0.62239 0.76061 0.0
N366 N 0.85276 0.59076 0.7599 0.0
C367 C 0.8232 0.57244 0.76727 0.0
H368 H 0.87173 0.64166 0.74984 0.0
H369 H 0.77947 0.58424 0.77279 0.0
C370 C 0.78471 0.674 0.7804 0.0
N371 N 0.7781 0.73655 0.75564 0.0
C372 C 0.79932 0.77269 0.75243 0.0
C373 C 0.74539 0.73305 0.75915 0.0
N374 N 0.78132 0.79201 0.75394 0.0
C375 C 0.74725 0.76696 0.7581 0.0
C376 C 0.73444 0.62835 0.75367 0.0
O377 O 0.79659 0.65409 0.77561 0.0
O378 O 0.7822 0.69787 0.7739 0.0
O379 O 0.74135 0.66183 0.75434 0.0
O380 O 0.76058 0.62138 0.75517 0.0
O381 O 0.8009 0.70266 0.74009 0.0
H382 H 0.72228 0.70793 0.76283 0.0
H383 H 0.82781 0.78482 0.74938 0.0
O384 O 0.82089 0.66284 0.74188 0.0
O385 O 0.85812 0.69542 0.76225 0.0
O386 O 0.84294 0.7385 0.75971 0.0
C387 C 0.86762 0.7296 0.76185 0.0
H388 H 0.8153 0.54648 0.77188 0.0
H389 H 0.72584 0.77304 0.76085 0.0
Co390 Co 0.35401 0.16267 0.76341 0.0
C391 C 0.33556 0.13907 0.73932 0.0
Co392 Co 0.32963 0.10212 0.76063 0.0
C393 C 0.40778 0.24222 0.76641 0.0
C394 C 0.35186 0.23071 0.76411 0.0
N395 N 0.37243 0.21382 0.76508 0.0
N396 N 0.40972 0.27577 0.76639 0.0
C397 C 0.37454 0.26848 0.76499 0.0
H398 H 0.43172 0.23851 0.76709 0.0
H399 H 0.32231 0.21688 0.76231 0.0
C400 C 0.35001 0.12559 0.78455 0.0
N401 N 0.30848 0.05097 0.75886 0.0
C402 C 0.27531 0.02935 0.75347 0.0
C403 C 0.31491 0.02718 0.7653 0.0
N404 N 0.25936 0.99328 0.75684 0.0
C405 C 0.28472 0.99168 0.7641 0.0
C406 C 0.40655 0.14269 0.75873 0.0
O407 O 0.36189 0.15811 0.78023 0.0
O408 O 0.3333 0.09747 0.77761 0.0
O409 O 0.37864 0.10968 0.75879 0.0
O410 O 0.40155 0.17029 0.76009 0.0
O411 O 0.32666 0.10737 0.74372 0.0
H412 H 0.33793 0.03556 0.77151 0.0
H413 H 0.26161 0.04073 0.74808 0.0
O414 O 0.34682 0.16688 0.74642 0.0
O415 O 0.30608 0.15409 0.76688 0.0
O416 O 0.28084 0.09513 0.76249 0.0
C417 C 0.27732 0.12253 0.76559 0.0
H418 H 0.36602 0.2891 0.76395 0.0
H419 H 0.28023 0.96754 0.76923 0.0
Co420 Co 0.88083 0.23576 0.75382 0.0
C421 C 0.90261 0.23021 0.73028 0.0
Co422 Co 0.94064 0.25582 0.75178 0.0
C423 C 0.80852 0.22728 0.7605 0.0
C424 C 0.80571 0.18253 0.74996 0.0
N425 N 0.82997 0.21601 0.7548 0.0
N426 N 0.77204 0.20153 0.75956 0.0
C427 C 0.77025 0.17354 0.75291 0.0
H428 H 0.81936 0.25318 0.76547 0.0
H429 H 0.81339 0.16532 0.74475 0.0
C430 C 0.91922 0.26327 0.77521 0.0
N431 N 0.99091 0.27274 0.75052 0.0
C432 C 0.00485 0.25192 0.7462 0.0
C433 C 0.02009 0.30255 0.75567 0.0
N434 N 0.04107 0.26629 0.74895 0.0
C435 C 0.0511 0.2986 0.75473 0.0
C436 C 0.92132 0.31002 0.74779 0.0
O437 O 0.88682 0.24879 0.77058 0.0
O438 O 0.94628 0.26763 0.76862 0.0
O439 O 0.94863 0.3042 0.74825 0.0
O440 O 0.88855 0.28337 0.74993 0.0
O441 O 0.93489 0.24443 0.73491 0.0
H442 H 0.01819 0.3239 0.76072 0.0
H443 H 0.98788 0.22491 0.74204 0.0
O444 O 0.87535 0.2237 0.73706 0.0
O445 O 0.87319 0.18804 0.75767 0.0
O446 O 0.93205 0.20684 0.75532 0.0
C447 C 0.89931 0.18073 0.75755 0.0
H448 H 0.74493 0.14846 0.75031 0.0
H449 H 0.07776 0.31605 0.75905 0.0
Co450 Co 0.34275 0.15573 0.58568 0.0
C451 C 0.36825 0.15741 0.60939 0.0
Co452 Co 0.37497 0.12731 0.5881 0.0
C453 C 0.28481 0.17412 0.58035 0.0
C454 C 0.33465 0.21914 0.58789 0.0
N455 N 0.31906 0.18321 0.58437 0.0
N456 N 0.27885 0.20325 0.58113 0.0
C457 C 0.31018 0.23152 0.58587 0.0
H458 H 0.26465 0.14673 0.57703 0.0
H459 H 0.36196 0.23522 0.59192 0.0
C460 C 0.34795 0.12326 0.56458 0.0
N461 N 0.40083 0.10194 0.58953 0.0
C462 C 0.43655 0.11698 0.59308 0.0
C463 C 0.39141 0.06781 0.58533 0.0
N464 N 0.45045 0.09434 0.59088 0.0
C465 C 0.42195 0.0631 0.5861 0.0
C466 C 0.2983 0.08286 0.59171 0.0
O467 O 0.33282 0.14082 0.56902 0.0
O468 O 0.36875 0.11644 0.57128 0.0
O469 O 0.32876 0.08244 0.59114 0.0
O470 O 0.29847 0.1132 0.59001 0.0
O471 O 0.38078 0.13773 0.60487 0.0
H472 H 0.36498 0.04873 0.58116 0.0
H473 H 0.45312 0.14542 0.59622 0.0
O474 O 0.35206 0.16944 0.60248 0.0
O475 O 0.3871 0.19835 0.58114 0.0
O476 O 0.42081 0.17276 0.585 0.0
C477 C 0.41863 0.20086 0.5817 0.0
H478 H 0.31453 0.25881 0.58816 0.0
H479 H 0.42362 0.0395 0.58271 0.0
Co480 Co 0.88141 0.21011 0.57702 0.0
C481 C 0.88051 0.23279 0.60084 0.0
Co482 Co 0.91075 0.27078 0.57973 0.0
C483 C 0.86457 0.13386 0.57264 0.0
C484 C 0.81714 0.13804 0.57785 0.0
N485 N 0.85386 0.15882 0.57539 0.0
N486 N 0.83583 0.09846 0.57323 0.0
C487 C 0.806 0.10113 0.57646 0.0
H488 H 0.89297 0.14141 0.57055 0.0
H489 H 0.79968 0.14885 0.58095 0.0
C490 C 0.91413 0.24886 0.55609 0.0
N491 N 0.93635 0.3219 0.58154 0.0
C492 C 0.92186 0.34211 0.586 0.0
C493 C 0.96989 0.34716 0.57708 0.0
N494 N 0.94426 0.37894 0.58418 0.0
C495 C 0.97476 0.38233 0.57864 0.0
C496 C 0.95444 0.23782 0.58289 0.0
O497 O 0.89622 0.21595 0.56039 0.0
O498 O 0.92131 0.27636 0.56292 0.0
O499 O 0.95544 0.26902 0.58248 0.0
O500 O 0.92381 0.20795 0.58116 0.0
O501 O 0.90065 0.26515 0.59647 0.0
H502 H 0.98841 0.34033 0.57229 0.0
H503 H 0.89389 0.32977 0.58959 0.0
O504 O 0.86777 0.20475 0.59381 0.0
O505 O 0.83901 0.21252 0.57273 0.0
O506 O 0.86553 0.27174 0.57699 0.0
C507 C 0.83697 0.24178 0.57369 0.0
H508 H 0.7785 0.07795 0.57837 0.0
H509 H -0.00206 0.4081 0.57532 0.0
Co510 Co 0.82872 0.69586 0.58173 0.0
C511 C 0.8025 0.67008 0.60515 0.0
Co512 Co 0.76793 0.66537 0.58346 0.0
C513 C 0.906 0.75419 0.57814 0.0
C514 C 0.89957 0.70187 0.58376 0.0
N515 N 0.88002 0.71876 0.58085 0.0
N516 N 0.94087 0.75974 0.57918 0.0
C517 C 0.9368 0.72682 0.58268 0.0
H518 H 0.89951 0.77558 0.5757 0.0
H519 H 0.88762 0.67344 0.58691 0.0
C520 C 0.79331 0.69259 0.56022 0.0
N521 N 0.71671 0.64043 0.58453 0.0
C522 C 0.69569 0.60573 0.58895 0.0
C523 C 0.69232 0.64898 0.57952 0.0
N524 N 0.65921 0.59154 0.58659 0.0
C525 C 0.65686 0.61881 0.58071 0.0
C526 C 0.80158 0.74182 0.58731 0.0
O527 O 0.82546 0.70726 0.56509 0.0
O528 O 0.76482 0.67155 0.56656 0.0
O529 O 0.77026 0.712 0.58618 0.0
O530 O 0.83137 0.74055 0.58629 0.0
O531 O 0.7711 0.65978 0.60031 0.0
H532 H 0.70002 0.67441 0.57461 0.0
H533 H 0.70732 0.58992 0.59291 0.0
O534 O 0.83147 0.68486 0.59853 0.0
O535 O 0.82589 0.65123 0.57698 0.0
O536 O 0.76636 0.61877 0.58069 0.0
C537 C 0.79629 0.62006 0.5775 0.0
H538 H 0.95919 0.72163 0.58493 0.0
H539 H 0.63169 0.61643 0.57694 0.0
C540 C 0.56431 0.92566 0.09527 0.0
C541 C 0.52819 0.9062 0.10006 0.0
C542 C 0.58712 0.90967 0.09549 0.0
C543 C 0.59816 0.83362 0.10874 0.0
H544 H 0.62186 0.81827 0.07606 0.0
C545 C 0.63872 0.72245 0.0979 0.0
C546 C 0.61242 0.69598 0.08992 0.0
C547 C 0.64181 0.75756 0.09912 0.0
C548 C 0.61614 0.82289 0.08526 0.0
H549 H 0.48819 0.85646 0.10947 0.0
H550 H 0.52823 0.82895 0.11028 0.0
H551 H 0.6026 0.86426 0.07981 0.0
H552 H 0.57076 0.686 0.07636 0.0
H553 H 0.57702 0.74748 0.07815 0.0
H554 H 0.60961 0.79069 0.11408 0.0
C555 C 0.5391 0.85635 0.10631 0.0
C556 C 0.60532 0.84935 0.08743 0.0
C557 C 0.51614 0.87194 0.10584 0.0
C558 C 0.59133 0.70603 0.08254 0.0
C559 C 0.59504 0.74126 0.08354 0.0
C560 C 0.60949 0.80753 0.1066 0.0
C561 C 0.5743 0.8744 0.10076 0.0
C562 C 0.59465 0.85378 0.09911 0.0
C563 C 0.61933 0.76692 0.09214 0.0
C564 C 0.61698 0.80077 0.09476 0.0
H565 H 0.57379 0.95191 0.09063 0.0
H566 H 0.61411 0.9241 0.09113 0.0
H567 H 0.59021 0.8366 0.11783 0.0
H568 H 0.65496 0.71511 0.10378 0.0
H569 H 0.66068 0.77685 0.10582 0.0
C570 C 0.31952 0.92539 0.09853 0.0
C571 C 0.34849 0.9314 0.09065 0.0
C572 C 0.28724 0.89019 0.09906 0.0
C573 C 0.23859 0.79702 0.08377 0.0
H574 H 0.21038 0.75909 0.11647 0.0
C575 C 0.16006 0.64059 0.09333 0.0
C576 C 0.12552 0.62839 0.09887 0.0
C577 C 0.18698 0.67845 0.09343 0.0
C578 C 0.21803 0.76945 0.10731 0.0
H579 H 0.36568 0.90713 0.0765 0.0
H580 H 0.3101 0.84641 0.07737 0.0
H581 H 0.25356 0.82559 0.11324 0.0
H582 H 0.09252 0.64481 0.10954 0.0
H583 H 0.14022 0.71102 0.11019 0.0
H584 H 0.20429 0.74061 0.0779 0.0
C585 C 0.31153 0.86824 0.08311 0.0
C586 C 0.24232 0.80755 0.10542 0.0
C587 C 0.34354 0.90309 0.08262 0.0
C588 C 0.11934 0.65385 0.10537 0.0
C589 C 0.14644 0.69156 0.10569 0.0
C590 C 0.21491 0.75899 0.08567 0.0
C591 C 0.28362 0.86082 0.09167 0.0
C592 C 0.25342 0.82168 0.09362 0.0
C593 C 0.17978 0.70437 0.09925 0.0
C594 C 0.20492 0.74479 0.09745 0.0
H595 H 0.32303 0.94679 0.1049 0.0
H596 H 0.26597 0.88551 0.10563 0.0
H597 H 0.24587 0.807 0.07456 0.0
H598 H 0.16492 0.62136 0.08809 0.0
H599 H 0.21266 0.68776 0.08847 0.0
C600 C 0.14171 0.48021 0.09013 0.0
C601 C 0.10774 0.44649 0.08928 0.0
C602 C 0.17461 0.48023 0.0925 0.0
C603 C 0.22841 0.46773 0.10779 0.0
H604 H 0.27817 0.43767 0.0845 0.0
C605 C 0.38381 0.54631 0.10102 0.0
C606 C 0.40308 0.52788 0.09785 0.0
C607 C 0.34548 0.52633 0.1028 0.0
C608 C 0.26425 0.44518 0.09128 0.0
H609 H 0.08209 0.38621 0.08957 0.0
H610 H 0.14066 0.38648 0.09338 0.0
H611 H 0.21291 0.42007 0.08128 0.0
H612 H 0.39825 0.47428 0.09447 0.0
H613 H 0.33022 0.43876 0.09737 0.0
H614 H 0.27995 0.49458 0.11746 0.0
C615 C 0.14115 0.41272 0.09239 0.0
C616 C 0.22702 0.4352 0.08941 0.0
C617 C 0.10783 0.41264 0.09017 0.0
C618 C 0.38373 0.48884 0.09703 0.0
C619 C 0.34501 0.46871 0.0986 0.0
C620 C 0.26537 0.47747 0.1097 0.0
C621 C 0.17451 0.4466 0.09392 0.0
C622 C 0.20954 0.44803 0.09735 0.0
C623 C 0.32547 0.48744 0.10127 0.0
C624 C 0.28425 0.46801 0.10114 0.0
H625 H 0.14281 0.50681 0.08945 0.0
H626 H 0.20021 0.50668 0.09345 0.0
H627 H 0.21523 0.47759 0.11408 0.0
H628 H 0.39836 0.57642 0.10167 0.0
H629 H 0.33125 0.54168 0.10467 0.0
C630 C 0.90263 0.535 0.92795 0.0
C631 C 0.89955 0.5195 0.91641 0.0
C632 C 0.88444 0.55498 0.93054 0.0
C633 C 0.83472 0.59921 0.91624 0.0
H634 H 0.76895 0.55974 0.94395 0.0
C635 C 0.71234 0.62634 0.92309 0.0
C636 C 0.67825 0.59334 0.92497 0.0
C637 C 0.74602 0.6265 0.9243 0.0
C638 C 0.78738 0.57133 0.93624 0.0
H639 H 0.87773 0.51507 0.89831 0.0
H640 H 0.84609 0.54963 0.90275 0.0
H641 H 0.81863 0.54523 0.94132 0.0
H642 H 0.65281 0.53515 0.93014 0.0
H643 H 0.71116 0.53542 0.93222 0.0
H644 H 0.8019 0.62324 0.91074 0.0
C645 C 0.86235 0.54653 0.90984 0.0
C646 C 0.81612 0.56335 0.9348 0.0
C647 C 0.8801 0.52633 0.90732 0.0
C648 C 0.67857 0.56101 0.92857 0.0
C649 C 0.71209 0.56126 0.92988 0.0
C650 C 0.80602 0.60724 0.91769 0.0
C651 C 0.86342 0.56023 0.92156 0.0
C652 C 0.8391 0.5759 0.92452 0.0
C653 C 0.74619 0.59378 0.92756 0.0
C654 C 0.78109 0.59207 0.92744 0.0
H655 H 0.91746 0.53002 0.9351 0.0
H656 H 0.88591 0.56539 0.93963 0.0
H657 H 0.85232 0.60969 0.90831 0.0
H658 H 0.71299 0.65172 0.92031 0.0
H659 H 0.77188 0.65202 0.9225 0.0
C660 C 0.41441 0.11344 0.91836 0.0
C661 C 0.43814 0.10792 0.92603 0.0
C662 C 0.41814 0.1489 0.91741 0.0
C663 C 0.46636 0.24424 0.93119 0.0
H664 H 0.47114 0.27714 0.89803 0.0
C665 C 0.5395 0.39949 0.91931 0.0
C666 C 0.51646 0.40981 0.91321 0.0
C667 C 0.52956 0.36192 0.91997 0.0
C668 C 0.46982 0.26824 0.90733 0.0
H669 H 0.4819 0.13356 0.93944 0.0
H670 H 0.48841 0.19476 0.93787 0.0
H671 H 0.44829 0.21127 0.90222 0.0
H672 H 0.46688 0.39022 0.90231 0.0
H673 H 0.45007 0.32461 0.90306 0.0
H674 H 0.48904 0.30142 0.93623 0.0
C675 C 0.46685 0.17232 0.93258 0.0
C676 C 0.4563 0.23048 0.90976 0.0
C677 C 0.46321 0.13719 0.93348 0.0
C678 C 0.48514 0.38265 0.90694 0.0
C679 C 0.47552 0.34525 0.90742 0.0
C680 C 0.48031 0.28195 0.92874 0.0
C681 C 0.44548 0.17907 0.92418 0.0
C682 C 0.45488 0.2181 0.92172 0.0
C683 C 0.49675 0.33438 0.91437 0.0
C684 C 0.48262 0.29438 0.91679 0.0
H685 H 0.39516 0.09131 0.91243 0.0
H686 H 0.40084 0.15308 0.91099 0.0
H687 H 0.46502 0.23563 0.94052 0.0
H688 H 0.56341 0.42005 0.92434 0.0
H689 H 0.54656 0.3542 0.9253 0.0
C690 C 0.65711 0.11028 0.91939 0.0
C691 C 0.63862 0.12834 0.91496 0.0
C692 C 0.69583 0.12711 0.91827 0.0
C693 C 0.77924 0.20337 0.90336 0.0
H694 H 0.82412 0.22247 0.93528 0.0
C695 C 0.90266 0.33481 0.92705 0.0
C696 C 0.93323 0.34398 0.91951 0.0
C697 C 0.87119 0.29939 0.92658 0.0
C698 C 0.81214 0.21676 0.92628 0.0
H699 H 0.64484 0.17653 0.90541 0.0
H700 H 0.71236 0.20561 0.90306 0.0
H701 H 0.75865 0.17504 0.93273 0.0
H702 H 0.9557 0.32336 0.90582 0.0
H703 H 0.8996 0.26122 0.90467 0.0
H704 H 0.8323 0.24662 0.89704 0.0
C705 C 0.69726 0.17854 0.90737 0.0
C706 C 0.77476 0.18953 0.9248 0.0
C707 C 0.65876 0.16206 0.9087 0.0
C708 C 0.93254 0.31664 0.91183 0.0
C709 C 0.90051 0.28132 0.91112 0.0
C710 C 0.81682 0.23022 0.90481 0.0
C711 C 0.71637 0.16192 0.91254 0.0
C712 C 0.75755 0.1837 0.91342 0.0
C713 C 0.86931 0.2727 0.91834 0.0
C714 C 0.83313 0.23824 0.91637 0.0
H715 H 0.64189 0.08452 0.92442 0.0
H716 H 0.70991 0.11379 0.92236 0.0
H717 H 0.76664 0.19934 0.89449 0.0
H718 H 0.90256 0.35558 0.93298 0.0
H719 H 0.84739 0.29366 0.93213 0.0
C720 C 0.26858 0.02975 0.42572 0.0
C721 C 0.23699 0.99468 0.42373 0.0
C722 C 0.2652 0.06157 0.42633 0.0
C723 C 0.20425 0.09914 0.41858 0.0
H724 H 0.24961 0.16257 0.44657 0.0
C725 C 0.17766 0.21911 0.42961 0.0
C726 C 0.20975 0.25327 0.4322 0.0
C727 C 0.17912 0.18618 0.42953 0.0
C728 C 0.23699 0.14527 0.43867 0.0
H729 H 0.17756 0.96554 0.42012 0.0
H730 H 0.17185 0.02109 0.42107 0.0
H731 H 0.2582 0.10922 0.4432 0.0
H732 H 0.2676 0.27948 0.43766 0.0
H733 H 0.27044 0.22237 0.4373 0.0
H734 H 0.18346 0.13539 0.41394 0.0
C735 C 0.19911 0.02401 0.42221 0.0
C736 C 0.24205 0.11487 0.43672 0.0
C737 C 0.2024 0.99223 0.4217 0.0
C738 C 0.24263 0.2536 0.43543 0.0
C739 C 0.24412 0.2208 0.43535 0.0
C740 C 0.19935 0.12966 0.4205 0.0
C741 C 0.23029 0.0588 0.42483 0.0
C742 C 0.22583 0.09163 0.42664 0.0
C743 C 0.21267 0.1869 0.43208 0.0
C744 C 0.21578 0.15311 0.43054 0.0
H745 H 0.29556 0.03242 0.42733 0.0
H746 H 0.28974 0.08822 0.4282 0.0
H747 H 0.19163 0.08173 0.41071 0.0
H748 H 0.15197 0.21804 0.42705 0.0
H749 H 0.15426 0.16032 0.42717 0.0
C750 C 0.02141 0.26593 0.42204 0.0
C751 C 0.05609 0.26953 0.4193 0.0
C752 C 0.98999 0.23063 0.4233 0.0
C753 C 0.95109 0.13135 0.41637 0.0
H754 H 0.89529 0.11592 0.44605 0.0
C755 C 0.83361 0.98572 0.42993 0.0
C756 C 0.80051 0.98412 0.43367 0.0
C757 C 0.86656 0.02 0.42909 0.0
C758 C 0.9104 0.11984 0.43768 0.0
H759 H 0.08476 0.23929 0.41498 0.0
H760 H 0.02978 0.17775 0.41701 0.0
H761 H 0.94748 0.1776 0.4414 0.0
H762 H 0.77651 0.01657 0.44037 0.0
H763 H 0.83353 0.0763 0.43865 0.0
H764 H 0.91369 0.07384 0.41251 0.0
C765 C 0.02693 0.20212 0.41826 0.0
C766 C 0.94015 0.15515 0.43501 0.0
C767 C 0.05837 0.23734 0.41713 0.0
C768 C 0.80149 0.01708 0.43727 0.0
C769 C 0.83429 0.05127 0.4364 0.0
C770 C 0.92114 0.09607 0.41899 0.0
C771 C 0.99272 0.19846 0.42169 0.0
C772 C 0.96063 0.16124 0.4243 0.0
C773 C 0.86695 0.05323 0.43199 0.0
C774 C 0.90036 0.08998 0.42966 0.0
H775 H 0.01887 0.29027 0.4238 0.0
H776 H 0.96374 0.22845 0.4258 0.0
H777 H 0.9664 0.13541 0.40803 0.0
H778 H 0.83369 0.9608 0.42707 0.0
H779 H 0.89149 0.02059 0.42587 0.0
C780 C 0.03246 0.81049 0.43843 0.0
C781 C 0.06576 0.84276 0.43525 0.0
C782 C -0.00154 0.80921 0.43725 0.0
C783 C 0.95527 0.85296 0.41983 0.0
H784 H 0.87216 0.79571 0.44146 0.0
C785 C 0.81435 0.84947 0.4179 0.0
C786 C 0.78207 0.81476 0.41974 0.0
C787 C 0.84944 0.85301 0.41891 0.0
C788 C 0.89506 0.81142 0.43527 0.0
H789 H 0.08981 0.89982 0.42903 0.0
H790 H 0.03028 0.89803 0.4273 0.0
H791 H 0.93333 0.80479 0.44646 0.0
H792 H 0.76103 0.75615 0.42341 0.0
H793 H 0.82261 0.76244 0.42523 0.0
H794 H 0.91683 0.85998 0.40875 0.0
C795 C 0.03049 0.87339 0.43044 0.0
C796 C 0.93009 0.81674 0.43815 0.0
C797 C 0.06461 0.8746 0.43159 0.0
C798 C 0.78544 0.78323 0.42193 0.0
C799 C 0.8206 0.78686 0.42307 0.0
C800 C 0.92025 0.84791 0.41701 0.0
C801 C -0.003 0.84033 0.43295 0.0
C802 C 0.96052 0.83726 0.43041 0.0
C803 C 0.85285 0.82197 0.42189 0.0
C804 C 0.8898 0.82679 0.42465 0.0
H805 H 0.03259 0.78573 0.44146 0.0
H806 H 0.97323 0.78322 0.4392 0.0
H807 H 0.97797 0.86836 0.41356 0.0
H808 H 0.81255 0.87424 0.41616 0.0
H809 H 0.87388 0.88038 0.41799 0.0
C810 C 0.31937 0.86976 0.26353 0.0
C811 C 0.32094 0.90357 0.26074 0.0
C812 C 0.35106 0.8665 0.26254 0.0
C813 C 0.45345 0.92012 0.25905 0.0
H814 H 0.43775 0.82994 0.24308 0.0
C815 C 0.57538 0.90652 0.24134 0.0
C816 C 0.57599 0.87443 0.24505 0.0
C817 C 0.54327 0.90884 0.24267 0.0
C818 C 0.44246 0.85511 0.24762 0.0
H819 H 0.35716 0.96102 0.25536 0.0
H820 H 0.41256 0.95522 0.25344 0.0
H821 H 0.38451 0.83754 0.24773 0.0
H822 H 0.54279 0.81868 0.25235 0.0
H823 H 0.48626 0.82256 0.25455 0.0
H824 H 0.5115 0.93785 0.25875 0.0
C825 C 0.38694 0.93133 0.25653 0.0
C826 C 0.41204 0.85943 0.25035 0.0
C827 C 0.35523 0.93469 0.25762 0.0
C828 C 0.54306 0.84366 0.24934 0.0
C829 C 0.51079 0.84594 0.25064 0.0
C830 C 0.48387 0.91589 0.25625 0.0
C831 C 0.38489 0.89688 0.25864 0.0
C832 C 0.41721 0.89199 0.2561 0.0
C833 C 0.51104 0.87902 0.24768 0.0
C834 C 0.47865 0.88339 0.25048 0.0
H835 H 0.29333 0.84537 0.26607 0.0
H836 H 0.34882 0.83986 0.26453 0.0
H837 H 0.4583 0.94528 0.26362 0.0
H838 H 0.60018 0.93033 0.23776 0.0
H839 H 0.5439 0.93434 0.24006 0.0
C840 C 0.20162 0.72884 0.25251 0.0
C841 C 0.16926 0.7299 0.24951 0.0
C842 C 0.20057 0.6947 0.25337 0.0
C843 C 0.13452 0.59779 0.26037 0.0
H844 H 0.20758 0.57615 0.24669 0.0
C845 C 0.17794 0.476 0.26025 0.0
C846 C 0.14257 0.44462 0.25843 0.0
C847 C 0.18243 0.51162 0.2604 0.0
C848 C 0.18732 0.58199 0.25076 0.0
H849 H 0.11154 0.69668 0.24403 0.0
H850 H 0.10965 0.63717 0.24559 0.0
H851 H 0.21423 0.63751 0.24359 0.0
H852 H 0.08395 0.42564 0.25585 0.0
H853 H 0.09184 0.48792 0.25587 0.0
H854 H 0.10765 0.54258 0.26761 0.0
C855 C 0.13551 0.66257 0.24754 0.0
C856 C 0.19108 0.61702 0.24892 0.0
C857 C 0.13661 0.69656 0.24663 0.0
C858 C 0.11151 0.44933 0.25733 0.0
C859 C 0.11606 0.48503 0.25737 0.0
C860 C 0.13092 0.56293 0.26229 0.0
C861 C 0.16714 0.66127 0.25126 0.0
C862 C 0.16438 0.62495 0.25356 0.0
C863 C 0.15169 0.51658 0.25863 0.0
C864 C 0.157 0.55448 0.25738 0.0
H865 H 0.2271 0.75411 0.25484 0.0
H866 H 0.22533 0.69433 0.25624 0.0
H867 H 0.11395 0.60356 0.26424 0.0
H868 H 0.20237 0.47315 0.26124 0.0
H869 H 0.21011 0.53533 0.26165 0.0
C870 C 0.56006 0.72299 0.25925 0.0
C871 C 0.59259 0.72092 0.25771 0.0
C872 C 0.52513 0.69095 0.25844 0.0
C873 C 0.47978 0.60114 0.2434 0.0
H874 H 0.3978 0.57687 0.26533 0.0
C875 C 0.34275 0.46124 0.24171 0.0
C876 C 0.30942 0.46029 0.24471 0.0
C877 C 0.37677 0.4942 0.24272 0.0
C878 C 0.42023 0.58363 0.259 0.0
H879 H 0.61418 0.68356 0.25468 0.0
H880 H 0.55293 0.62748 0.2532 0.0
H881 H 0.45874 0.63121 0.26935 0.0
H882 H 0.2855 0.49375 0.25054 0.0
H883 H 0.34493 0.55174 0.25192 0.0
H884 H 0.4414 0.55413 0.23291 0.0
C885 C 0.55461 0.65398 0.25498 0.0
C886 C 0.45513 0.61454 0.26137 0.0
C887 C 0.58959 0.68598 0.25592 0.0
C888 C 0.31065 0.49355 0.24812 0.0
C889 C 0.34476 0.52666 0.24907 0.0
C890 C 0.44484 0.57047 0.24096 0.0
C891 C 0.52212 0.65636 0.25596 0.0
C892 C 0.48526 0.62335 0.25364 0.0
C893 C 0.37825 0.52713 0.24665 0.0
C894 C 0.41473 0.56117 0.24879 0.0
H895 H 0.56153 0.74955 0.26067 0.0
H896 H 0.5005 0.69353 0.25919 0.0
H897 H 0.50241 0.60783 0.23716 0.0
H898 H 0.34266 0.43621 0.23887 0.0
H899 H 0.40199 0.49344 0.24086 0.0
C900 C 0.89202 0.58292 0.74475 0.0
C901 C 0.87878 0.579 0.75667 0.0
C902 C 0.91214 0.5657 0.7412 0.0
C903 C 0.95724 0.51342 0.75288 0.0
H904 H 0.9056 0.44646 0.72619 0.0
C905 C 0.96337 0.37903 0.74555 0.0
C906 C 0.92746 0.34755 0.7451 0.0
C907 C 0.96842 0.41476 0.74395 0.0
C908 C 0.92071 0.4653 0.73355 0.0
H909 H 0.87905 0.55736 0.77447 0.0
H910 H 0.91369 0.52715 0.76835 0.0
H911 H 0.89768 0.50006 0.72963 0.0
H912 H 0.86901 0.32859 0.74204 0.0
H913 H 0.87777 0.39058 0.7393 0.0
H914 H 0.97775 0.47679 0.75739 0.0
C915 C 0.90879 0.54339 0.76169 0.0
C916 C 0.91652 0.49626 0.73545 0.0
C917 C 0.88848 0.56025 0.76518 0.0
C918 C 0.897 0.3523 0.7425 0.0
C919 C 0.90209 0.38784 0.7408 0.0
C920 C 0.96143 0.48242 0.75098 0.0
C921 C 0.91965 0.54474 0.74957 0.0
C922 C 0.93312 0.51946 0.74553 0.0
C923 C 0.93773 0.4195 0.74172 0.0
C924 C 0.94157 0.457 0.74168 0.0
H925 H 0.88486 0.59729 0.73803 0.0
H926 H 0.92035 0.56737 0.73181 0.0
H927 H 0.97083 0.53119 0.76062 0.0
H928 H 0.98739 0.37619 0.74751 0.0
H929 H 0.99619 0.4387 0.7447 0.0
C930 C 0.69176 0.56358 0.74702 0.0
C931 C 0.69647 0.5969 0.75193 0.0
C932 C 0.65711 0.53126 0.74726 0.0
C933 C 0.57415 0.48734 0.76587 0.0
H934 H 0.539 0.4113 0.74093 0.0
C935 C 0.44066 0.34314 0.77045 0.0
C936 C 0.44229 0.31222 0.76602 0.0
C937 C 0.47021 0.37921 0.76862 0.0
C938 C 0.54868 0.43218 0.74801 0.0
H939 H 0.66844 0.62333 0.7603 0.0
H940 H 0.60724 0.56623 0.76079 0.0
H941 H 0.5907 0.47361 0.73661 0.0
H942 H 0.47675 0.29471 0.75662 0.0
H943 H 0.52887 0.35785 0.75359 0.0
H944 H 0.5326 0.44566 0.77735 0.0
C945 C 0.63058 0.5653 0.7568 0.0
C946 C 0.57805 0.46788 0.74551 0.0
C947 C 0.6654 0.59794 0.75643 0.0
C948 C 0.4748 0.31798 0.76019 0.0
C949 C 0.50437 0.35412 0.75831 0.0
C950 C 0.5447 0.45161 0.76837 0.0
C951 C 0.62641 0.53145 0.75249 0.0
C952 C 0.5916 0.49561 0.75449 0.0
C953 C 0.50202 0.38512 0.76229 0.0
C954 C 0.53218 0.42348 0.75953 0.0
H955 H 0.71529 0.56209 0.74344 0.0
H956 H 0.65495 0.50562 0.74398 0.0
H957 H 0.58436 0.50797 0.77303 0.0
H958 H 0.41606 0.33943 0.77509 0.0
H959 H 0.46757 0.40251 0.77178 0.0
C960 C 0.45213 0.12045 0.76087 0.0
C961 C 0.44485 0.14931 0.75828 0.0
C962 C 0.48876 0.12799 0.76198 0.0
C963 C 0.58431 0.20587 0.76778 0.0
H964 H 0.61211 0.13487 0.75629 0.0
C965 C 0.73527 0.23284 0.76142 0.0
C966 C 0.74031 0.20259 0.76408 0.0
C967 C 0.70004 0.2292 0.76271 0.0
C968 C 0.60462 0.15475 0.75969 0.0
H969 H 0.47001 0.20833 0.75428 0.0
H970 H 0.53386 0.22119 0.75582 0.0
H971 H 0.54876 0.12202 0.75336 0.0
H972 H 0.7146 0.14681 0.77142 0.0
H973 H 0.65332 0.14057 0.77391 0.0
H974 H 0.64089 0.23903 0.7738 0.0
C975 C 0.51139 0.19299 0.75736 0.0
C976 C 0.56832 0.14738 0.75801 0.0
C977 C 0.4748 0.18553 0.75636 0.0
C978 C 0.71098 0.17025 0.76921 0.0
C979 C 0.67603 0.16666 0.77056 0.0
C980 C 0.62086 0.21342 0.76936 0.0
C981 C 0.51879 0.16445 0.7604 0.0
C982 C 0.55766 0.17274 0.76207 0.0
C983 C 0.66978 0.19532 0.76672 0.0
C984 C 0.6312 0.18775 0.76541 0.0
H985 H 0.42959 0.09234 0.76251 0.0
H986 H 0.49348 0.10542 0.76446 0.0
H987 H 0.57685 0.22576 0.77116 0.0
H988 H 0.7576 0.25788 0.75738 0.0
H989 H 0.69588 0.25172 0.75971 0.0
C990 C 0.02375 0.26716 0.58212 0.0
C991 C 0.98865 0.23578 0.58424 0.0
C992 C 0.05545 0.26357 0.58169 0.0
C993 C 0.08225 0.19248 0.57606 0.0
H994 H 0.1776 0.26733 0.58897 0.0
C995 C 0.21031 0.17279 0.5812 0.0
C996 C 0.24525 0.20404 0.57878 0.0
C997 C 0.17825 0.1758 0.58087 0.0
C998 C 0.15122 0.24641 0.58519 0.0
H999 H 0.95937 0.17657 0.58829 0.0
H1000 H 0.01466 0.17058 0.58786 0.0
H1001 H 0.12355 0.27512 0.59137 0.0
H1002 H 0.27385 0.26182 0.57309 0.0
H1003 H 0.21799 0.26707 0.57246 0.0
H1004 H 0.10999 0.16359 0.57002 0.0
C1005 C 0.01766 0.19769 0.58617 0.0
C1006 C 0.12029 0.25087 0.58658 0.0
C1007 C 0.98604 0.20121 0.58652 0.0
C1008 C 0.24731 0.23755 0.57524 0.0
C1009 C 0.21541 0.24058 0.57491 0.0
C1010 C 0.11317 0.18794 0.57472 0.0
C1011 C 0.05255 0.22859 0.58345 0.0
C1012 C 0.08547 0.22393 0.58204 0.0
C1013 C 0.18077 0.21009 0.57809 0.0
C1014 C 0.14795 0.21491 0.57926 0.0
H1015 H 0.02652 0.29409 0.58026 0.0
H1016 H 0.08196 0.28787 0.57951 0.0
H1017 H 0.05591 0.17155 0.57226 0.0
H1018 H 0.20802 0.14671 0.58401 0.0
H1019 H 0.15184 0.15187 0.58338 0.0
C1020 C 0.77322 0.78228 0.58517 0.0
C1021 C 0.80392 0.77837 0.58822 0.0
C1022 C 0.77748 0.81771 0.58386 0.0
C1023 C 0.8384 0.91712 0.59079 0.0
H1024 H 0.79961 0.93227 0.56069 0.0
C1025 C 0.86817 0.06281 0.57638 0.0
C1026 C 0.83681 0.06439 0.57245 0.0
C1027 C 0.86659 0.02847 0.57748 0.0
C1028 C 0.81038 0.92844 0.56917 0.0
H1029 H 0.86248 0.80822 0.59309 0.0
H1030 H 0.86972 0.86996 0.59092 0.0
H1031 H 0.78935 0.87054 0.56565 0.0
H1032 H 0.78037 0.03186 0.56572 0.0
H1033 H 0.77728 0.97208 0.56784 0.0
H1034 H 0.8589 0.97484 0.59442 0.0
C1035 C 0.84249 0.84574 0.58949 0.0
C1036 C 0.80437 0.89309 0.57203 0.0
C1037 C 0.83833 0.81039 0.5907 0.0
C1038 C 0.80474 0.03135 0.56894 0.0
C1039 C 0.80313 0.99713 0.57005 0.0
C1040 C 0.8442 0.95246 0.58797 0.0
C1041 C 0.8124 0.84972 0.5857 0.0
C1042 C 0.81812 0.88707 0.58289 0.0
C1043 C 0.83368 0.99521 0.57463 0.0
C1044 C 0.83006 0.95844 0.57716 0.0
H1045 H 0.74639 0.7581 0.5832 0.0
H1046 H 0.75373 0.8201 0.5811 0.0
H1047 H 0.84919 0.91314 0.59924 0.0
H1048 H 0.8932 0.08783 0.57919 0.0
H1049 H 0.8908 0.02788 0.58085 0.0
C1050 C 0.25915 0.01354 0.59023 0.0
C1051 C 0.26233 0.04811 0.59291 0.0
C1052 C 0.22403 0.98167 0.58923 0.0
C1053 C 0.12456 0.94239 0.59639 0.0
H1054 H 0.10888 0.88572 0.56687 0.0
C1055 C 0.97827 0.82789 0.582 0.0
C1056 C 0.97564 0.79416 0.57842 0.0
C1057 C 0.01309 0.8601 0.58311 0.0
C1058 C 0.11288 0.90108 0.5752 0.0
H1059 H 0.23162 0.07613 0.59747 0.0
H1060 H 0.17054 0.02054 0.59583 0.0
H1061 H 0.17075 0.93746 0.57157 0.0
H1062 H 0.00689 0.76822 0.57232 0.0
H1063 H 0.06752 0.82402 0.57443 0.0
H1064 H 0.0668 0.90587 0.60009 0.0
C1065 C 0.19502 0.01801 0.59445 0.0
C1066 C 0.14832 0.93055 0.57791 0.0
C1067 C 0.23 0.04985 0.59534 0.0
C1068 C 0.0082 0.79374 0.57528 0.0
C1069 C 0.0429 0.82581 0.57638 0.0
C1070 C 0.08914 0.91279 0.59371 0.0
C1071 C 0.19166 0.98387 0.59103 0.0
C1072 C 0.15449 0.95146 0.58854 0.0
C1073 C 0.04581 0.8591 0.58061 0.0
C1074 C 0.08293 0.8918 0.58309 0.0
H1075 H 0.2836 0.01143 0.58829 0.0
H1076 H 0.22215 0.9555 0.58674 0.0
H1077 H 0.12864 0.95797 0.60468 0.0
H1078 H 0.95363 0.82897 0.58453 0.0
H1079 H 0.01446 0.88555 0.58619 0.0
C1080 C 0.49062 0.01357 0.05406 0.0
C1081 C 0.46678 0.023 0.06018 0.0
C1082 C 0.49154 0.01339 0.04139 0.0
C1083 C 0.43409 0.99418 0.01529 0.0
H1084 H 0.52291 0.05845 0.99681 0.0
C1085 C 0.42902 0.0037 0.96325 0.0
C1086 C 0.46094 0.01255 0.95644 0.0
C1087 C 0.43029 0.0043 0.97591 0.0
C1088 C 0.49797 0.03966 1.00177 0.0
H1089 H 0.42528 0.03964 0.05785 0.0
H1090 H 0.42605 0.03804 0.03568 0.0
H1091 H 0.5249 0.06123 0.01888 0.0
H1092 H 0.51893 0.02767 0.95752 0.0
H1093 H 0.52076 0.02657 0.97955 0.0
H1094 H 0.40729 0.9712 0.99842 0.0
C1095 C 0.44438 0.03143 0.04073 0.0
C1096 C 0.49916 0.0416 0.01443 0.0
C1097 C 0.44412 0.03253 0.05338 0.0
C1098 C 0.49392 0.02093 0.96254 0.0
C1099 C 0.495 0.02067 0.97521 0.0
C1100 C 0.43307 0.99155 1.00266 0.0
C1101 C 0.46797 0.02172 0.03464 0.0
C1102 C 0.46712 0.01917 0.02127 0.0
C1103 C 0.46334 0.01291 0.98211 0.0
C1104 C 0.46489 0.01456 0.99566 0.0
H1105 H 0.50839 0.00612 0.05906 0.0
H1106 H 0.50989 0.00574 0.03686 0.0
H1107 H 0.40914 0.97629 0.02041 0.0
H1108 H 0.4033 0.99759 0.95881 0.0
H1109 H 0.40548 -0.00105 0.98077 0.0
C1110 C 0.03826 0.45676 0.95857 0.0
C1111 C 0.01388 0.46377 0.9517 0.0
C1112 C 0.03721 0.4569 0.97122 0.0
C1113 C 0.00432 0.48837 0.99749 0.0
H1114 H 0.01328 0.41128 0.0144 0.0
C1115 C 0.02167 0.48814 0.04963 0.0
C1116 C 0.00354 0.45357 0.05562 0.0
C1117 C 0.02174 0.48991 0.03697 0.0
C1118 C 0.01039 0.43281 0.00984 0.0
H1119 H 0.96973 0.47719 0.95283 0.0
H1120 H 0.96773 0.47717 0.97491 0.0
H1121 H 0.01598 0.41376 0.99239 0.0
H1122 H 0.97038 0.39378 0.05298 0.0
H1123 H 0.97014 0.39688 0.03095 0.0
H1124 H -0.00192 0.50699 0.01497 0.0
C1125 C 0.98792 0.47189 0.9705 0.0
C1126 C 0.01245 0.43454 0.9972 0.0
C1127 C 0.98897 0.47175 0.95782 0.0
C1128 C 0.98479 0.42087 0.04867 0.0
C1129 C 0.98487 0.42264 0.03601 0.0
C1130 C 0.00231 0.48667 0.01016 0.0
C1131 C 0.01174 0.46402 0.97736 0.0
C1132 C 0.00952 0.46238 0.99085 0.0
C1133 C 0.00369 0.45715 0.02999 0.0
C1134 C 0.00532 0.45885 0.0165 0.0
H1135 H 0.05794 0.45069 0.95417 0.0
H1136 H 0.05642 0.45139 0.9762 0.0
H1137 H 0.00224 0.51035 0.99291 0.0
H1138 H 0.03644 0.51389 0.0547 0.0
H1139 H 0.03683 0.51694 0.03264 0.0
C1140 C 0.54052 0.55533 0.95983 0.0
C1141 C 0.5665 0.5877 0.95371 0.0
C1142 C 0.54038 0.55389 0.97249 0.0
C1143 C 0.58013 0.61441 1.00003 0.0
H1144 H 0.55402 0.52035 0.01543 0.0
C1145 C 0.61141 0.6 0.0503 0.0
C1146 C 0.57924 0.57726 0.0571 0.0
C1147 C 0.60973 0.60033 0.03765 0.0
C1148 C 0.56134 0.54675 0.01121 0.0
H1149 H 0.61267 0.64396 0.95604 0.0
H1150 H 0.61367 0.64101 0.97793 0.0
H1151 H 0.55066 0.52335 0.99344 0.0
H1152 H 0.52053 0.53597 0.05602 0.0
H1153 H 0.51805 0.53554 0.03386 0.0
H1154 H 0.59231 0.63786 0.0179 0.0
C1155 C 0.59238 0.61705 0.97312 0.0
C1156 C 0.55908 0.5485 0.99861 0.0
C1157 C 0.59197 0.61874 0.96049 0.0
C1158 C 0.54574 0.55381 0.051 0.0
C1159 C 0.54429 0.55348 0.03836 0.0
C1160 C 0.58319 0.61277 0.01259 0.0
C1161 C 0.56677 0.58452 0.97933 0.0
C1162 C 0.56837 0.58238 0.99282 0.0
C1163 C 0.5761 0.57723 0.0316 0.0
C1164 C 0.57375 0.57894 0.01827 0.0
H1165 H 0.52045 0.53101 0.95482 0.0
H1166 H 0.51961 0.52863 0.97689 0.0
H1167 H 0.5867 0.64084 0.99603 0.0
H1168 H 0.63753 0.61851 0.05477 0.0
H1169 H 0.63462 0.61879 0.03259 0.0
C1170 C 0.14305 0.37731 0.38089 0.0
C1171 C 0.16828 0.37446 0.38869 0.0
C1172 C 0.14398 0.37192 0.36845 0.0
C1173 C 0.19893 0.37854 0.34276 0.0
H1174 H 0.1088 0.29532 0.3297 0.0
C1175 C 0.18235 0.34499 0.29134 0.0
C1176 C 0.14718 0.33416 0.28637 0.0
C1177 C 0.18741 0.34682 0.30393 0.0
C1178 C 0.13405 0.31895 0.33312 0.0
H1179 H 0.21541 0.36548 0.38948 0.0
H1180 H 0.21776 0.35735 0.36752 0.0
H1181 H 0.114 0.30755 0.35139 0.0
H1182 H 0.08964 0.31614 0.29076 0.0
H1183 H 0.09856 0.32046 0.31244 0.0
H1184 H 0.21833 0.39143 0.32448 0.0
C1185 C 0.19701 0.3632 0.37117 0.0
C1186 C 0.13705 0.3257 0.34557 0.0
C1187 C 0.19561 0.36782 0.3837 0.0
C1188 C 0.11709 0.32434 0.29425 0.0
C1189 C 0.12221 0.32659 0.30676 0.0
C1190 C 0.19568 0.37225 0.33023 0.0
C1191 C 0.17062 0.36435 0.36351 0.0
C1192 C 0.16925 0.35584 0.35046 0.0
C1193 C 0.15748 0.33819 0.31182 0.0
C1194 C 0.16286 0.34273 0.32522 0.0
H1195 H 0.12155 0.38222 0.38444 0.0
H1196 H 0.12348 0.37311 0.36268 0.0
H1197 H 0.224 0.40201 0.34637 0.0
H1198 H 0.2061 0.35267 0.28551 0.0
H1199 H 0.21486 0.3553 0.30746 0.0
C1200 C 0.6982 0.86061 0.38542 0.0
C1201 C 0.67496 0.8252 0.39047 0.0
C1202 C 0.70034 0.86564 0.37285 0.0
C1203 C 0.65166 0.82464 0.34413 0.0
H1204 H 0.75054 0.87343 0.33002 0.0
C1205 C 0.67652 0.84996 0.29256 0.0
C1206 C 0.69947 0.83754 0.2875 0.0
C1207 C 0.67437 0.85275 0.30514 0.0
C1208 C 0.72277 0.85987 0.33384 0.0
H1209 H 0.63455 0.76767 0.3863 0.0
H1210 H 0.6378 0.77664 0.3644 0.0
H1211 H 0.7434 0.8699 0.35205 0.0
H1212 H 0.7393 0.8198 0.29164 0.0
H1213 H 0.73601 0.82531 0.31356 0.0
H1214 H 0.63102 0.81413 0.32592 0.0
C1215 C 0.6545 0.80044 0.37015 0.0
C1216 C 0.71868 0.8581 0.34644 0.0
C1217 C 0.65276 0.79529 0.3827 0.0
C1218 C 0.72132 0.82941 0.29525 0.0
C1219 C 0.71956 0.8327 0.30781 0.0
C1220 C 0.65575 0.82686 0.33154 0.0
C1221 C 0.67884 0.8355 0.36508 0.0
C1222 C 0.68307 0.83998 0.35172 0.0
C1223 C 0.69554 0.84373 0.31289 0.0
C1224 C 0.69135 0.84403 0.32625 0.0
H1225 H 0.71575 0.8842 0.39115 0.0
H1226 H 0.71911 0.89303 0.36919 0.0
H1227 H 0.62388 0.81067 0.34795 0.0
H1228 H 0.65925 0.85636 0.28684 0.0
H1229 H 0.65585 0.86162 0.3088 0.0
C1230 C 0.19331 0.86077 0.29616 0.0
C1231 C 0.20695 0.89582 0.29065 0.0
C1232 C 0.1931 0.85755 0.30878 0.0
C1233 C 0.24019 0.91437 0.33591 0.0
H1234 H 0.1642 0.82896 0.3534 0.0
C1235 C 0.19326 0.86648 0.3886 0.0
C1236 C 0.22871 0.8807 0.39384 0.0
C1237 C 0.1891 0.86567 0.376 0.0
C1238 C 0.18555 0.85314 0.34867 0.0
H1239 H 0.22915 0.95471 0.29413 0.0
H1240 H 0.22785 0.94901 0.31609 0.0
H1241 H 0.15773 0.83396 0.33162 0.0
H1242 H 0.28734 0.90334 0.38992 0.0
H1243 H 0.28001 0.901 0.36801 0.0
H1244 H 0.26753 0.93416 0.35293 0.0
C1245 C 0.21829 0.92407 0.31067 0.0
C1246 C 0.18203 0.85582 0.33615 0.0
C1247 C 0.21875 0.92732 0.29807 0.0
C1248 C 0.25966 0.89251 0.38619 0.0
C1249 C 0.25548 0.89146 0.37361 0.0
C1250 C 0.24364 0.91177 0.3484 0.0
C1251 C 0.20632 0.88929 0.31621 0.0
C1252 C 0.20932 0.8865 0.32959 0.0
C1253 C 0.22027 0.87885 0.36834 0.0
C1254 C 0.21646 0.88108 0.35497 0.0
H1255 H 0.18414 0.83594 0.29071 0.0
H1256 H 0.18395 0.83036 0.31268 0.0
H1257 H 0.2621 0.93812 0.33118 0.0
H1258 H 0.16883 0.85729 0.39424 0.0
H1259 H 0.1616 0.85604 0.3723 0.0
C1260 C 0.79702 0.69419 0.71446 0.0
C1261 C 0.81752 0.68343 0.7219 0.0
C1262 C 0.79763 0.69104 0.70188 0.0
C1263 C 0.85038 0.69302 0.67609 0.0
H1264 H 0.75568 0.62705 0.66073 0.0
C1265 C 0.83788 0.67193 0.62393 0.0
C1266 C 0.80526 0.66733 0.61846 0.0
C1267 C 0.84062 0.67118 0.63657 0.0
C1268 C 0.78232 0.64606 0.66479 0.0
H1269 H 0.85574 0.66213 0.72193 0.0
H1270 H 0.85782 0.65798 0.69977 0.0
H1271 H 0.75922 0.63323 0.68269 0.0
H1272 H 0.75006 0.65859 0.62199 0.0
H1273 H 0.75527 0.65888 0.64381 0.0
H1274 H 0.87333 0.70763 0.65826 0.0
C1275 C 0.84091 0.66828 0.70379 0.0
C1276 C 0.78431 0.64927 0.6774 0.0
C1277 C 0.83965 0.67061 0.71644 0.0
C1278 C 0.77546 0.66178 0.62589 0.0
C1279 C 0.7784 0.66169 0.63847 0.0
C1280 C 0.8483 0.69046 0.66343 0.0
C1281 C 0.81937 0.67787 0.69645 0.0
C1282 C 0.81823 0.673 0.68314 0.0
C1283 C 0.811 0.66639 0.64405 0.0
C1284 C 0.81409 0.66727 0.65757 0.0
H1285 H 0.77953 0.70397 0.71837 0.0
H1286 H 0.78091 0.69871 0.69638 0.0
H1287 H 0.87684 0.71163 0.68035 0.0
H1288 H 0.86131 0.67615 0.61844 0.0
H1289 H 0.86597 0.6743 0.64046 0.0
C1290 C 0.39072 0.15332 0.63008 0.0
C1291 C 0.36941 0.1631 0.62268 0.0
C1292 C 0.38851 0.15438 0.64269 0.0
C1293 C 0.35426 0.18855 0.66814 0.0
H1294 H 0.35376 0.10666 0.68524 0.0
C1295 C 0.35472 0.17938 0.72071 0.0
C1296 C 0.33549 0.14379 0.72601 0.0
C1297 C 0.35807 0.18336 0.70809 0.0
C1298 C 0.35339 0.12952 0.68063 0.0
H1299 H 0.33 0.18293 0.62275 0.0
H1300 H 0.3255 0.18403 0.64474 0.0
H1301 H 0.36216 0.11152 0.66346 0.0
H1302 H 0.30304 0.08459 0.7222 0.0
H1303 H 0.30791 0.0915 0.7003 0.0
H1304 H 0.34419 0.20574 0.68535 0.0
C1305 C 0.34442 0.17609 0.64082 0.0
C1306 C 0.35889 0.13269 0.66811 0.0
C1307 C 0.3469 0.17535 0.62819 0.0
C1308 C 0.31837 0.1124 0.71842 0.0
C1309 C 0.32144 0.11638 0.70584 0.0
C1310 C 0.34855 0.18526 0.6807 0.0
C1311 C 0.36461 0.16486 0.64825 0.0
C1312 C 0.35946 0.16226 0.66167 0.0
C1313 C 0.34205 0.15184 0.70049 0.0
C1314 C 0.34793 0.15561 0.68711 0.0
H1315 H 0.40861 0.14408 0.62613 0.0
H1316 H 0.40521 0.14644 0.64809 0.0
H1317 H 0.35483 0.21187 0.66353 0.0
H1318 H 0.36836 0.20414 0.7263 0.0
H1319 H 0.37438 0.21108 0.70434 0.0
C1320 C 0.86376 0.19319 0.61952 0.0
C1321 C 0.87499 0.22792 0.61409 0.0
C1322 C 0.86307 0.18982 0.63214 0.0
C1323 C 0.8602 0.23494 0.66053 0.0
H1324 H 0.91033 0.1861 0.67456 0.0
C1325 C 0.86184 0.21287 0.71196 0.0
C1326 C 0.89686 0.2237 0.71707 0.0
C1327 C 0.85687 0.20991 0.69942 0.0
C1328 C 0.89626 0.19981 0.67077 0.0
H1329 H 0.89278 0.28594 0.61764 0.0
H1330 H 0.89098 0.27988 0.63962 0.0
H1331 H 0.90438 0.1875 0.65255 0.0
H1332 H 0.95378 0.2386 0.71302 0.0
H1333 H 0.94495 0.2331 0.69106 0.0
H1334 H 0.85252 0.24774 0.6787 0.0
C1335 C 0.88288 0.25532 0.63413 0.0
C1336 C 0.89253 0.20031 0.65819 0.0
C1337 C 0.88402 0.25881 0.62154 0.0
C1338 C 0.92648 0.23022 0.70937 0.0
C1339 C 0.92139 0.22694 0.6968 0.0
C1340 C 0.86356 0.23409 0.6731 0.0
C1341 C 0.87307 0.22097 0.63957 0.0
C1342 C 0.87479 0.21822 0.65293 0.0
C1343 C 0.88669 0.21739 0.69169 0.0
C1344 C 0.88191 0.21681 0.67835 0.0
H1345 H 0.85677 0.1689 0.61403 0.0
H1346 H 0.85506 0.16292 0.6361 0.0
H1347 H 0.84625 0.24879 0.65675 0.0
H1348 H 0.83837 0.20751 0.71762 0.0
H1349 H 0.8297 0.20202 0.69575 0.0
C1350 C 0.27786 0.95354 0.21483 0.0
C1351 C 0.2612 0.91794 0.22012 0.0
C1352 C 0.29771 0.96088 0.20399 0.0
C1353 C 0.31526 0.91652 0.17746 0.0
H1354 H 0.40593 0.01249 0.17526 0.0
C1355 C 0.41678 0.95698 0.13668 0.0
C1356 C 0.42783 0.99217 0.13164 0.0
C1357 C 0.39863 0.94688 0.14792 0.0
C1358 C 0.38062 0.98563 0.1757 0.0
H1359 H 0.25141 0.86176 0.21793 0.0
H1360 H 0.28641 0.87465 0.19904 0.0
H1361 H 0.36823 0.99623 0.19354 0.0
H1362 H 0.42989 0.04485 0.13469 0.0
H1363 H 0.39889 0.02751 0.15426 0.0
H1364 H 0.32791 0.90609 0.15955 0.0
C1365 C 0.28379 0.89685 0.20322 0.0
C1366 C 0.35884 0.97633 0.18617 0.0
C1367 C 0.26368 0.88943 0.21406 0.0
C1368 C 0.42185 0.01756 0.13832 0.0
C1369 C 0.40412 0.00764 0.14957 0.0
C1370 C 0.33721 0.92579 0.16698 0.0
C1371 C 0.30175 0.93292 0.19818 0.0
C1372 C 0.32554 0.94189 0.18714 0.0
C1373 C 0.3916 0.97193 0.15441 0.0
C1374 C 0.3699 0.96068 0.16592 0.0
H1375 H 0.27635 0.97612 0.2192 0.0
H1376 H 0.31029 0.98872 0.20024 0.0
H1377 H 0.28971 0.88988 0.17782 0.0
H1378 H 0.42072 0.93668 0.13173 0.0
H1379 H 0.38966 0.9193 0.15146 0.0
C1380 C 0.02219 0.40651 0.13128 0.0
C1381 C 0.03278 0.44258 0.12712 0.0
C1382 C 0.03525 0.40125 0.14232 0.0
C1383 C 0.06866 0.43947 0.17209 0.0
H1384 H 0.1139 0.37709 0.17182 0.0
C1385 C 0.08217 0.3662 0.21451 0.0
C1386 C 0.11708 0.36967 0.21691 0.0
C1387 C 0.07549 0.37881 0.2036 0.0
C1388 C 0.10167 0.39483 0.17202 0.0
H1389 H 0.06438 0.50136 0.1316 0.0
H1390 H 0.0862 0.49187 0.15127 0.0
H1391 H 0.09475 0.39265 0.15274 0.0
H1392 H 0.17218 0.3887 0.20961 0.0
H1393 H 0.15989 0.40964 0.19022 0.0
H1394 H 0.07418 0.44035 0.19142 0.0
C1395 C 0.06816 0.46785 0.14577 0.0
C1396 C 0.09053 0.40355 0.16113 0.0
C1397 C 0.05559 0.47324 0.13456 0.0
C1398 C 0.14499 0.38552 0.20801 0.0
C1399 C 0.13799 0.39753 0.19695 0.0
C1400 C 0.07917 0.43016 0.18301 0.0
C1401 C 0.05875 0.43181 0.14961 0.0
C1402 C 0.07348 0.42554 0.16107 0.0
C1403 C 0.10329 0.39468 0.19471 0.0
C1404 C 0.09536 0.40737 0.18309 0.0
H1405 H 0.00475 0.38217 0.12582 0.0
H1406 H 0.02712 0.37315 0.14514 0.0
H1407 H 0.05549 0.45635 0.17229 0.0
H1408 H 0.06008 0.35439 0.22117 0.0
H1409 H 0.04834 0.37583 0.20206 0.0
C1410 C 0.64242 0.77621 0.21067 0.0
C1411 C 0.67184 0.77748 0.21738 0.0
C1412 C 0.63138 0.75693 0.19964 0.0
C1413 C 0.66344 0.71916 0.17507 0.0
H1414 H 0.55828 0.6512 0.16951 0.0
C1415 C 0.61544 0.61545 0.1356 0.0
C1416 C 0.58473 0.61055 0.12877 0.0
C1417 C 0.62394 0.63406 0.1467 0.0
C1418 C 0.58772 0.67033 0.17084 0.0
H1419 H 0.71341 0.76037 0.21755 0.0
H1420 H 0.69451 0.7273 0.19833 0.0
H1421 H 0.57836 0.68971 0.18776 0.0
H1422 H 0.53789 0.62 0.12853 0.0
H1423 H 0.55297 0.65296 0.14787 0.0
H1424 H 0.67301 0.70031 0.15818 0.0
C1425 C 0.67993 0.74116 0.20156 0.0
C1426 C 0.59922 0.69245 0.1813 0.0
C1427 C 0.69071 0.76008 0.21261 0.0
C1428 C 0.56158 0.62304 0.13361 0.0
C1429 C 0.57029 0.64201 0.14471 0.0
C1430 C 0.65198 0.69727 0.16461 0.0
C1431 C 0.6498 0.73887 0.19502 0.0
C1432 C 0.63726 0.71687 0.18359 0.0
C1433 C 0.60221 0.64867 0.15124 0.0
C1434 C 0.61399 0.67223 0.16239 0.0
H1435 H 0.62716 0.78914 0.21411 0.0
H1436 H 0.60831 0.75601 0.19475 0.0
H1437 H 0.69291 0.73811 0.17646 0.0
H1438 H 0.63372 0.60596 0.13217 0.0
H1439 H 0.64811 0.63769 0.15162 0.0
C1440 C 0.02412 0.41886 0.8738 0.0
C1441 C -0.00057 0.42737 0.8798 0.0
C1442 C 0.01558 0.40256 0.86228 0.0
C1443 C 0.9356 0.34408 0.84269 0.0
H1444 H 0.00989 0.3744 0.81739 0.0
C1445 C 0.89941 0.2825 0.7941 0.0
C1446 C 0.92633 0.27808 0.78776 0.0
C1447 C 0.90775 0.3003 0.80539 0.0
C1448 C 0.98888 0.36512 0.8244 0.0
H1449 H 0.94675 0.42617 0.87826 0.0
H1450 H 0.93187 0.39767 0.85816 0.0
H1451 H 0.02615 0.4078 0.8366 0.0
H1452 H 0.98264 0.28761 0.78858 0.0
H1453 H -0.00325 0.31743 0.80836 0.0
H1454 H 0.89849 0.30095 0.83063 0.0
C1455 C 0.95776 0.40348 0.8624 0.0
C1456 C -0.00178 0.38447 0.83541 0.0
C1457 C 0.96648 0.42014 0.87387 0.0
C1458 C 0.9613 0.29072 0.79317 0.0
C1459 C 0.96952 0.3082 0.80449 0.0
C1460 C 0.92632 0.32451 0.83172 0.0
C1461 C 0.98197 0.39402 0.85654 0.0
C1462 C 0.97172 0.37417 0.84469 0.0
C1463 C 0.94314 0.31389 0.81068 0.0
C1464 C 0.95286 0.33467 0.82242 0.0
H1465 H 0.04967 0.42391 0.87811 0.0
H1466 H 0.03472 0.39541 0.85806 0.0
H1467 H 0.91468 0.33507 0.84973 0.0
H1468 H 0.87228 0.27335 0.79016 0.0
H1469 H 0.88679 0.30444 0.80979 0.0
C1470 C 0.61631 0.56751 0.8774 0.0
C1471 C 0.60933 0.59428 0.88266 0.0
C1472 C 0.6349 0.5746 0.86626 0.0
C1473 C 0.69867 0.65465 0.84685 0.0
H1474 H 0.67663 0.57901 0.82252 0.0
C1475 C 0.75848 0.68993 0.79837 0.0
C1476 C 0.76991 0.66665 0.79294 0.0
C1477 C 0.74048 0.68076 0.80959 0.0
C1478 C 0.68341 0.60035 0.8293 0.0
H1479 H 0.61423 0.64838 0.87999 0.0
H1480 H 0.64531 0.66015 0.86052 0.0
H1481 H 0.63985 0.56243 0.84112 0.0
H1482 H 0.77203 0.61577 0.79521 0.0
H1483 H 0.74064 0.59982 0.81484 0.0
H1484 H 0.74182 0.69266 0.83498 0.0
C1485 C 0.6377 0.63423 0.86512 0.0
C1486 C 0.6623 0.59085 0.83996 0.0
C1487 C 0.6195 0.62731 0.87625 0.0
C1488 C 0.76376 0.63443 0.79916 0.0
C1489 C 0.74544 0.62508 0.81035 0.0
C1490 C 0.71957 0.66416 0.83618 0.0
C1491 C 0.64666 0.60851 0.86012 0.0
C1492 C 0.66943 0.61798 0.84883 0.0
C1493 C 0.7332 0.64792 0.81564 0.0
C1494 C 0.71205 0.63722 0.82723 0.0
H1495 H 0.60905 0.5419 0.88215 0.0
H1496 H 0.64142 0.55418 0.86272 0.0
H1497 H 0.70569 0.67613 0.85359 0.0
H1498 H 0.7626 0.71486 0.79381 0.0
H1499 H 0.73115 0.6988 0.81335 0.0
C1500 C 0.3409 0.08426 0.80225 0.0
C1501 C 0.35885 0.12013 0.79713 0.0
C1502 C 0.3523 0.07768 0.81342 0.0
C1503 C 0.43403 0.11308 0.83322 0.0
H1504 H 0.3622 0.04716 0.85687 0.0
C1505 C 0.47516 0.08174 0.8805 0.0
C1506 C 0.4525 0.04578 0.88524 0.0
C1507 C 0.46571 0.09222 0.86958 0.0
C1508 C 0.38269 0.06521 0.8503 0.0
H1509 H 0.40242 0.17744 0.79989 0.0
H1510 H 0.42244 0.16584 0.81948 0.0
H1511 H 0.34071 0.06391 0.83872 0.0
H1512 H 0.40366 0.9919 0.88185 0.0
H1513 H 0.388 0.00962 0.86272 0.0
H1514 H 0.47602 0.11383 0.84473 0.0
C1515 C 0.39956 0.14284 0.81478 0.0
C1516 C 0.37032 0.07498 0.83992 0.0
C1517 C 0.38784 0.14954 0.80363 0.0
C1518 C 0.42156 0.01993 0.87849 0.0
C1519 C 0.41233 0.03024 0.86757 0.0
C1520 C 0.44646 0.10311 0.84361 0.0
C1521 C 0.38219 0.10671 0.81973 0.0
C1522 C 0.39576 0.09869 0.83118 0.0
C1523 C 0.43352 0.06686 0.86315 0.0
C1524 C 0.42088 0.07864 0.85221 0.0
H1525 H 0.31857 0.06095 0.79747 0.0
H1526 H 0.33853 0.04947 0.81692 0.0
H1527 H 0.45433 0.13112 0.8266 0.0
H1528 H 0.49901 0.10239 0.88554 0.0
H1529 H 0.48265 0.12068 0.86648 0.0
C1530 C 0.94391 0.29119 0.53845 0.0
C1531 C 0.93086 0.25612 0.54385 0.0
C1532 C 0.96526 0.30079 0.5279 0.0
C1533 C 0.99596 0.26289 0.5026 0.0
H1534 H 0.07763 0.36497 0.50113 0.0
C1535 C 0.10863 0.31569 0.46494 0.0
C1536 C 0.11481 0.3485 0.45913 0.0
C1537 C 0.08805 0.30397 0.4757 0.0
C1538 C 0.05489 0.33641 0.50139 0.0
H1539 H 0.92887 0.20309 0.54216 0.0
H1540 H 0.9668 0.22005 0.52382 0.0
H1541 H 0.03616 0.34432 0.51854 0.0
H1542 H 0.10566 0.3955 0.46033 0.0
H1543 H 0.0706 0.37552 0.47919 0.0
H1544 H 0.0153 0.25513 0.48544 0.0
C1545 C 0.96005 0.24 0.52763 0.0
C1546 C 0.03088 0.32457 0.51134 0.0
C1547 C 0.93824 0.23021 0.53815 0.0
C1548 C 0.10147 0.37015 0.46459 0.0
C1549 C 0.08142 0.35873 0.47541 0.0
C1550 C 0.02026 0.2747 0.49268 0.0
C1551 C 0.97465 0.2758 0.52254 0.0
C1552 C 0.00072 0.28779 0.51202 0.0
C1553 C 0.07379 0.32513 0.48096 0.0
C1554 C 0.04972 0.31172 0.4919 0.0
H1555 H 0.93848 0.3117 0.54258 0.0
H1556 H 0.975 0.32819 0.52406 0.0
H1557 H 0.97293 0.23449 0.50274 0.0
H1558 H 0.11828 0.29824 0.4609 0.0
H1559 H 0.08289 0.27812 0.47984 0.0
C1560 C 0.73568 0.81722 0.46647 0.0
C1561 C 0.70397 0.79043 0.46022 0.0
C1562 C 0.74719 0.80778 0.47718 0.0
C1563 C 0.73556 0.72425 0.49384 0.0
H1564 H 0.78185 0.79388 0.52033 0.0
C1565 C 0.75431 0.67982 0.54164 0.0
C1566 C 0.78808 0.70234 0.54774 0.0
C1567 C 0.74696 0.69094 0.53053 0.0
C1568 C 0.76939 0.77429 0.51293 0.0
H1569 H 0.65843 0.73329 0.46066 0.0
H1570 H 0.67747 0.71729 0.47947 0.0
H1571 H 0.76173 0.81315 0.5023 0.0
H1572 H 0.8409 0.75399 0.54682 0.0
H1573 H 0.82782 0.77368 0.52737 0.0
H1574 H 0.74228 0.6851 0.50465 0.0
C1575 C 0.69437 0.74525 0.47595 0.0
C1576 C 0.75782 0.78531 0.50258 0.0
C1577 C 0.68315 0.75454 0.4652 0.0
C1578 C 0.81476 0.73588 0.5423 0.0
C1579 C 0.80714 0.74732 0.53124 0.0
C1580 C 0.74674 0.71316 0.50422 0.0
C1581 C 0.72706 0.77141 0.48195 0.0
C1582 C 0.74038 0.7603 0.49292 0.0
C1583 C 0.77295 0.72513 0.5253 0.0
C1584 C 0.76351 0.73791 0.51393 0.0
H1585 H 0.75253 0.84503 0.46282 0.0
H1586 H 0.77264 0.82866 0.48146 0.0
H1587 H 0.72322 0.70445 0.48649 0.0
H1588 H 0.73311 0.65388 0.5456 0.0
H1589 H 0.72027 0.67335 0.52624 0.0
C1590 C 0.22884 0.94054 0.47038 0.0
C1591 C 0.25623 0.9361 0.46435 0.0
C1592 C 0.23695 0.95995 0.48138 0.0
C1593 C 0.30152 0.99113 0.50735 0.0
H1594 H 0.27758 0.06991 0.51057 0.0
C1595 C 0.36175 0.09561 0.5466 0.0
C1596 C 0.33892 0.10728 0.55219 0.0
C1597 C 0.35105 0.07574 0.53572 0.0
C1598 C 0.28405 0.04772 0.50992 0.0
H1599 H 0.31316 0.94748 0.46538 0.0
H1600 H 0.32694 0.98047 0.48466 0.0
H1601 H 0.25821 0.03078 0.49246 0.0
H1602 H 0.28734 0.10811 0.55055 0.0
H1603 H 0.26813 0.07265 0.53166 0.0
H1604 H 0.32678 0.00731 0.5248 0.0
C1605 C 0.29929 0.96916 0.48086 0.0
C1606 C 0.27293 0.02529 0.49952 0.0
C1607 C 0.29139 0.95028 0.4698 0.0
C1608 C 0.30571 0.09979 0.54641 0.0
C1609 C 0.29471 0.07942 0.53557 0.0
C1610 C 0.31227 0.01321 0.51778 0.0
C1611 C 0.2724 0.97479 0.48668 0.0
C1612 C 0.28194 0.99703 0.49806 0.0
C1613 C 0.31689 0.0664 0.5302 0.0
C1614 C 0.30419 0.04221 0.51916 0.0
H1615 H 0.20158 0.93021 0.46638 0.0
H1616 H 0.21556 0.96357 0.48571 0.0
H1617 H 0.30841 0.96924 0.50657 0.0
H1618 H 0.38767 0.10116 0.55077 0.0
H1619 H 0.36947 0.06727 0.53173 0.0
C1620 C 0.57122 0.46633 0.09687 0.0
C1621 C 0.54459 0.47786 0.09664 0.0
C1622 C 0.56018 0.42842 0.09692 0.0
C1623 C 0.47925 0.33464 0.10317 0.0
H1624 H 0.53372 0.30019 0.08365 0.0
C1625 C 0.42335 0.17838 0.0949 0.0
C1626 C 0.44866 0.16528 0.09568 0.0
C1627 C 0.43586 0.21656 0.09474 0.0
C1628 C 0.51844 0.30939 0.08925 0.0
H1629 H 0.4854 0.45838 0.09634 0.0
H1630 H 0.46615 0.39234 0.0963 0.0
H1631 H 0.55379 0.3665 0.0842 0.0
H1632 H 0.50728 0.18245 0.09661 0.0
H1633 H 0.5292 0.24926 0.09627 0.0
H1634 H 0.44381 0.27759 0.10818 0.0
C1635 C 0.49561 0.4126 0.09662 0.0
C1636 C 0.52997 0.34745 0.08958 0.0
C1637 C 0.50665 0.45052 0.09659 0.0
C1638 C 0.487 0.19148 0.0959 0.0
C1639 C 0.49956 0.22981 0.09572 0.0
C1640 C 0.4677 0.29665 0.10282 0.0
C1641 C 0.52223 0.40102 0.09672 0.0
C1642 C 0.51042 0.36057 0.09651 0.0
C1643 C 0.47408 0.24281 0.09534 0.0
C1644 C 0.487 0.28347 0.09581 0.0
H1645 H 0.60071 0.48662 0.09694 0.0
H1646 H 0.58146 0.42061 0.09718 0.0
H1647 H 0.46393 0.34374 0.10879 0.0
H1648 H 0.3937 0.15907 0.09445 0.0
H1649 H 0.41548 0.22552 0.09414 0.0
C1650 C 0.58768 0.07544 0.10243 0.0
C1651 C 0.56174 0.08745 0.10078 0.0
C1652 C 0.62579 0.10077 0.10203 0.0
C1653 C 0.693 0.19233 0.08953 0.0
H1654 H 0.76269 0.18234 0.1104 0.0
C1655 C 0.84992 0.30011 0.09061 0.0
C1656 C 0.87515 0.28686 0.09148 0.0
C1657 C 0.81169 0.27581 0.09163 0.0
C1658 C 0.74359 0.18518 0.10441 0.0
H1659 H 0.55554 0.13577 0.09786 0.0
H1660 H 0.62244 0.18032 0.09732 0.0
H1661 H 0.69594 0.14146 0.11333 0.0
H1662 H 0.87952 0.2373 0.09382 0.0
H1663 H 0.81247 0.1947 0.09564 0.0
H1664 H 0.74069 0.23609 0.08062 0.0
C1665 C 0.61311 0.15109 0.09874 0.0
C1666 C 0.70535 0.16186 0.10612 0.0
C1667 C 0.57482 0.12565 0.09915 0.0
C1668 C 0.86096 0.24848 0.09321 0.0
C1669 C 0.82258 0.22412 0.09428 0.0
C1670 C 0.73124 0.21571 0.08785 0.0
C1671 C 0.639 0.13881 0.1 0.0
C1672 C 0.6796 0.16504 0.09866 0.0
C1673 C 0.79758 0.23762 0.0936 0.0
C1674 C 0.75696 0.2123 0.09524 0.0
H1675 H 0.57861 0.0462 0.1037 0.0
H1676 H 0.64489 0.09027 0.10289 0.0
H1677 H 0.67396 0.19507 0.08349 0.0
H1678 H 0.85955 0.32948 0.08957 0.0
H1679 H 0.79324 0.28719 0.09125 0.0
C1680 C 0.76545 0.59502 0.09255 0.0
C1681 C 0.72638 0.57474 0.09251 0.0
C1682 C 0.78585 0.57672 0.09174 0.0
C1683 C 0.77937 0.48611 0.09734 0.0
H1684 H 0.87271 0.53259 0.07973 0.0
C1685 C 0.88648 0.43195 0.09295 0.0
C1686 C 0.92265 0.45985 0.09619 0.0
C1687 C 0.85778 0.44043 0.09205 0.0
C1688 C 0.84656 0.51918 0.08462 0.0
H1689 H 0.67811 0.51908 0.09157 0.0
H1690 H 0.71383 0.4872 0.08991 0.0
H1691 H 0.83153 0.55841 0.07817 0.0
H1692 H 0.95642 0.51762 0.10185 0.0
H1693 H 0.90685 0.53209 0.10018 0.0
H1694 H 0.79517 0.44715 0.10389 0.0
C1695 C 0.72862 0.5173 0.09067 0.0
C1696 C 0.8231 0.53406 0.0838 0.0
C1697 C 0.70817 0.53565 0.09147 0.0
C1698 C 0.92904 0.49555 0.09917 0.0
C1699 C 0.90071 0.50397 0.09818 0.0
C1700 C 0.80285 0.47099 0.09809 0.0
C1701 C 0.76771 0.53763 0.09084 0.0
C1702 C 0.78983 0.5185 0.09046 0.0
C1703 C 0.86517 0.4769 0.09428 0.0
C1704 C 0.83715 0.4882 0.09203 0.0
H1705 H 0.78031 0.6251 0.09325 0.0
H1706 H 0.81594 0.59323 0.09209 0.0
H1707 H 0.75397 0.47354 0.10262 0.0
H1708 H 0.88077 0.4042 0.09062 0.0
H1709 H 0.8304 0.41909 0.08909 0.0
C1710 C 0.4724 0.60641 0.91389 0.0
C1711 C 0.48142 0.57887 0.91097 0.0
C1712 C 0.43525 0.59826 0.91342 0.0
C1713 C 0.34175 0.52757 0.90164 0.0
H1714 H 0.3036 0.55496 0.92945 0.0
C1715 C 0.18914 0.44386 0.91592 0.0
C1716 C 0.17002 0.46364 0.91735 0.0
C1717 C 0.22782 0.46269 0.91477 0.0
C1718 C 0.31401 0.5475 0.92157 0.0
H1719 H 0.45889 0.52185 0.90478 0.0
H1720 H 0.39502 0.50773 0.9041 0.0
H1721 H 0.37087 0.58102 0.92716 0.0
H1722 H 0.17767 0.51932 0.91928 0.0
H1723 H 0.24531 0.55182 0.9177 0.0
H1724 H 0.28487 0.4926 0.89639 0.0
C1725 C 0.4162 0.5357 0.90662 0.0
C1726 C 0.35249 0.56257 0.92021 0.0
C1727 C 0.45297 0.54375 0.90711 0.0
C1728 C 0.19104 0.50285 0.91825 0.0
C1729 C 0.2299 0.52165 0.91729 0.0
C1730 C 0.30346 0.5122 0.90309 0.0
C1731 C 0.40668 0.56257 0.90993 0.0
C1732 C 0.36671 0.5519 0.91039 0.0
C1733 C 0.24848 0.50174 0.91525 0.0
C1734 C 0.28919 0.52127 0.91322 0.0
H1735 H 0.49374 0.6337 0.91693 0.0
H1736 H 0.42884 0.61966 0.91594 0.0
H1737 H 0.35176 0.51946 0.89381 0.0
H1738 H 0.17431 0.41376 0.91549 0.0
H1739 H 0.24163 0.44667 0.91343 0.0
C1740 C 0.52272 0.95712 0.90965 0.0
C1741 C 0.48818 0.94731 0.91492 0.0
C1742 C 0.53559 0.93185 0.90947 0.0
C1743 C 0.53133 0.8561 0.92682 0.0
H1744 H 0.57349 0.83673 0.89832 0.0
C1745 C 0.58119 0.74887 0.92698 0.0
C1746 C 0.61101 0.75487 0.91943 0.0
C1747 C 0.56644 0.77258 0.92653 0.0
C1748 C 0.56245 0.84232 0.90642 0.0
H1749 H 0.43955 0.9031 0.92384 0.0
H1750 H 0.46259 0.85895 0.92375 0.0
H1751 H 0.5452 0.87583 0.89668 0.0
H1752 H 0.65 0.79224 0.90599 0.0
H1753 H 0.62556 0.83459 0.90568 0.0
H1754 H 0.54966 0.82397 0.93671 0.0
C1755 C 0.47945 0.8862 0.9197 0.0
C1756 C 0.54591 0.86441 0.90544 0.0
C1757 C 0.46619 0.9113 0.91968 0.0
C1758 C 0.62706 0.78656 0.91194 0.0
C1759 C 0.61259 0.81061 0.91161 0.0
C1760 C 0.54836 0.83448 0.92786 0.0
C1761 C 0.51449 0.89649 0.91474 0.0
C1762 C 0.53018 0.87145 0.91562 0.0
C1763 C 0.58151 0.80343 0.9187 0.0
C1764 C 0.56414 0.82725 0.91767 0.0
H1765 H 0.54021 0.98468 0.90589 0.0
H1766 H 0.56277 0.94053 0.90565 0.0
H1767 H 0.51993 0.86167 0.93485 0.0
H1768 H 0.56855 0.72535 0.93308 0.0
H1769 H 0.54239 0.76589 0.93208 0.0
C1770 C 0.26145 0.85961 0.91997 0.0
C1771 C 0.30003 0.87324 0.91958 0.0
C1772 C 0.2361 0.82135 0.91952 0.0
C1773 C 0.22794 0.73199 0.90988 0.0
H1774 H 0.13643 0.68916 0.92845 0.0
C1775 C 0.12416 0.57277 0.91257 0.0
C1776 C 0.08594 0.561 0.9123 0.0
C1777 C 0.15081 0.6107 0.91328 0.0
C1778 C 0.16166 0.70074 0.9231 0.0
H1779 H 0.34203 0.85681 0.91861 0.0
H1780 H 0.29782 0.79 0.91812 0.0
H1781 H 0.18215 0.75509 0.93066 0.0
H1782 H 0.04588 0.58006 0.9123 0.0
H1783 H 0.09236 0.64616 0.91344 0.0
H1784 H 0.20737 0.67746 0.90237 0.0
C1785 C 0.28718 0.80906 0.91858 0.0
C1786 C 0.18793 0.73859 0.92437 0.0
C1787 C 0.31259 0.84743 0.91902 0.0
C1788 C 0.07506 0.58811 0.91249 0.0
C1789 C 0.10171 0.62602 0.91325 0.0
C1790 C 0.20169 0.69407 0.90864 0.0
C1791 C 0.24858 0.79553 0.9187 0.0
C1792 C 0.22132 0.75481 0.91772 0.0
C1793 C 0.13989 0.63777 0.9138 0.0
C1794 C 0.1681 0.67803 0.91517 0.0
H1795 H 0.25071 0.87855 0.92055 0.0
H1796 H 0.20664 0.81208 0.91951 0.0
H1797 H 0.25305 0.74359 0.90447 0.0
H1798 H 0.13354 0.55265 0.91247 0.0
H1799 H 0.17995 0.61875 0.91377 0.0
C1800 C 0.26166 0.79687 0.42807 0.0
C1801 C 0.24072 0.80663 0.43563 0.0
C1802 C 0.25214 0.7595 0.42695 0.0
C1803 C 0.19541 0.66546 0.44021 0.0
H1804 H 0.1749 0.63228 0.40682 0.0
C1805 C 0.0995 0.51146 0.42877 0.0
C1806 C 0.1116 0.49635 0.41966 0.0
C1807 C 0.11693 0.54999 0.43039 0.0
C1808 C 0.18089 0.64108 0.41618 0.0
H1809 H 0.19593 0.78608 0.44875 0.0
H1810 H 0.17991 0.72124 0.44701 0.0
H1811 H 0.20817 0.69882 0.41134 0.0
H1812 H 0.1492 0.50988 0.40446 0.0
H1813 H 0.18011 0.57706 0.40741 0.0
H1814 H 0.16789 0.60785 0.44509 0.0
C1815 C 0.20336 0.74208 0.44187 0.0
C1816 C 0.20013 0.67919 0.41876 0.0
C1817 C 0.21246 0.77918 0.44285 0.0
C1818 C 0.13967 0.5207 0.41167 0.0
C1819 C 0.15723 0.55921 0.41332 0.0
C1820 C 0.17637 0.62739 0.43763 0.0
C1821 C 0.22204 0.73167 0.43354 0.0
C1822 C 0.20697 0.69171 0.43081 0.0
C1823 C 0.14686 0.57422 0.42295 0.0
C1824 C 0.16823 0.61475 0.4256 0.0
H1825 H 0.28343 0.81758 0.42236 0.0
H1826 H 0.26716 0.75215 0.42054 0.0
H1827 H 0.20058 0.67439 0.44958 0.0
H1828 H 0.07807 0.49361 0.43512 0.0
H1829 H 0.10764 0.56076 0.4377 0.0
C1830 C 0.5405 0.6136 0.42633 0.0
C1831 C 0.55662 0.64294 0.41794 0.0
C1832 C 0.5019 0.59099 0.42701 0.0
C1833 C 0.41657 0.59378 0.42061 0.0
H1834 H 0.36854 0.48809 0.42757 0.0
C1835 C 0.2562 0.49118 0.42205 0.0
C1836 C 0.24396 0.46205 0.43048 0.0
C1837 C 0.29425 0.5171 0.42099 0.0
C1838 C 0.38161 0.51771 0.42579 0.0
H1839 H 0.54509 0.66971 0.40305 0.0
H1840 H 0.47754 0.63001 0.40419 0.0
H1841 H 0.43505 0.52269 0.42352 0.0
H1842 H 0.26061 0.43933 0.44528 0.0
H1843 H 0.32656 0.48516 0.44374 0.0
H1844 H 0.36279 0.58853 0.42288 0.0
C1845 C 0.49477 0.62511 0.41043 0.0
C1846 C 0.41968 0.53746 0.42342 0.0
C1847 C 0.5334 0.64768 0.40974 0.0
C1848 C 0.26953 0.46144 0.43865 0.0
C1849 C 0.30726 0.4874 0.43767 0.0
C1850 C 0.37832 0.57393 0.42297 0.0
C1851 C 0.4786 0.59718 0.41929 0.0
C1852 C 0.43768 0.57578 0.42094 0.0
C1853 C 0.32023 0.51416 0.42841 0.0
C1854 C 0.36061 0.53579 0.42575 0.0
H1855 H 0.5575 0.60946 0.43288 0.0
H1856 H 0.49027 0.56986 0.434 0.0
H1857 H 0.42978 0.62342 0.41886 0.0
H1858 H 0.23693 0.49195 0.4156 0.0
H1859 H 0.30349 0.53757 0.41379 0.0
C1860 C 0.5586 0.7879 0.42535 0.0
C1861 C 0.58965 0.80807 0.43288 0.0
C1862 C 0.53047 0.79712 0.42492 0.0
C1863 C 0.49323 0.85103 0.44026 0.0
H1864 H 0.4773 0.87522 0.40769 0.0
C1865 C 0.43434 0.94795 0.43222 0.0
C1866 C 0.40632 0.93691 0.42341 0.0
C1867 C 0.45531 0.9302 0.43304 0.0
C1868 C 0.48103 0.86818 0.41683 0.0
H1869 H 0.61433 0.85116 0.44657 0.0
H1870 H 0.56509 0.86664 0.44603 0.0
H1871 H 0.51143 0.84211 0.41073 0.0
H1872 H 0.38051 0.90078 0.40795 0.0
H1873 H 0.41665 0.86939 0.4095 0.0
H1874 H 0.4633 0.87744 0.44639 0.0
C1875 C 0.56238 0.84402 0.44039 0.0
C1876 C 0.50038 0.84903 0.41856 0.0
C1877 C 0.59063 0.83523 0.44069 0.0
C1878 C 0.40151 0.9095 0.41495 0.0
C1879 C 0.42238 0.89167 0.41579 0.0
C1880 C 0.47377 0.87001 0.43853 0.0
C1881 C 0.53279 0.82612 0.43217 0.0
C1882 C 0.50729 0.84092 0.4303 0.0
C1883 C 0.44871 0.90103 0.42508 0.0
C1884 C 0.46812 0.8795 0.42681 0.0
H1885 H 0.5574 0.767 0.41919 0.0
H1886 H 0.50774 0.78271 0.41857 0.0
H1887 H 0.4979 0.84483 0.4494 0.0
H1888 H 0.43872 0.96881 0.43891 0.0
H1889 H 0.47606 0.9387 0.44011 0.0
C1890 C 0.84125 0.80218 0.2675 0.0
C1891 C 0.81765 0.77394 0.25941 0.0
C1892 C 0.8798 0.81767 0.26684 0.0
C1893 C 0.9538 0.80265 0.25457 0.0
H1894 H 0.01256 0.91072 0.25422 0.0
C1895 C 0.10516 0.87382 0.24033 0.0
C1896 C 0.13064 0.90163 0.24813 0.0
C1897 C 0.06739 0.86201 0.24106 0.0
C1898 C -0.00345 0.88055 0.2544 0.0
H1899 H 0.81609 0.73854 0.2447 0.0
H1900 H 0.88321 0.76511 0.24367 0.0
H1901 H 0.94552 0.87993 0.25796 0.0
H1902 H 0.13741 0.94107 0.26214 0.0
H1903 H 0.07083 0.92002 0.26357 0.0
H1904 H 0.00452 0.80303 0.25105 0.0
C1905 C 0.87188 0.7753 0.25052 0.0
C1906 C 0.95824 0.86292 0.25658 0.0
C1907 C 0.83333 0.75992 0.25115 0.0
C1908 C 0.11822 0.91976 0.25597 0.0
C1909 C 0.08014 0.90757 0.25681 0.0
C1910 C 0.99196 0.82021 0.25241 0.0
C1911 C 0.89554 0.80502 0.25814 0.0
C1912 C 0.93645 0.82377 0.25658 0.0
C1913 C 0.05424 0.87737 0.24975 0.0
C1914 C 0.01371 0.85934 0.25215 0.0
H1915 H 0.82994 0.8131 0.27411 0.0
H1916 H 0.89733 0.84 0.27299 0.0
H1917 H 0.93785 0.77247 0.25471 0.0
H1918 H 0.1142 0.85964 0.23415 0.0
H1919 H 0.04824 0.83947 0.23524 0.0
C1920 C 0.23186 0.06638 0.26655 0.0
C1921 C 0.25956 0.0704 0.25836 0.0
C1922 C 0.21335 0.08637 0.26495 0.0
C1923 C 0.19088 0.13314 0.24073 0.0
H1924 H 0.16154 0.17411 0.26725 0.0
C1925 C 0.15635 0.24974 0.23598 0.0
C1926 C 0.12943 0.24995 0.2436 0.0
C1927 C 0.16444 0.22102 0.2367 0.0
C1928 C 0.16882 0.16208 0.25977 0.0
H1929 H 0.29131 0.10062 0.24254 0.0
H1930 H 0.26008 0.13657 0.24002 0.0
H1931 H 0.19531 0.14133 0.27151 0.0
H1932 H 0.08776 0.21916 0.25728 0.0
H1933 H 0.10223 0.16873 0.25865 0.0
H1934 H 0.16551 0.15514 0.22898 0.0
C1935 C 0.25184 0.11702 0.24747 0.0
C1936 C 0.18837 0.1435 0.26221 0.0
C1937 C 0.27023 0.09689 0.24904 0.0
C1938 C 0.1085 0.21943 0.25126 0.0
C1939 C 0.11701 0.19085 0.25212 0.0
C1940 C 0.17151 0.15187 0.2383 0.0
C1941 C 0.22236 0.11106 0.25516 0.0
C1942 C 0.20025 0.12947 0.25269 0.0
C1943 C 0.14607 0.19222 0.24518 0.0
C1944 C 0.16088 0.1671 0.24778 0.0
H1945 H 0.22341 0.04656 0.27392 0.0
H1946 H 0.19086 0.08118 0.27106 0.0
H1947 H 0.19876 0.12177 0.23322 0.0
H1948 H 0.17284 0.27303 0.23001 0.0
H1949 H 0.18709 0.22295 0.23129 0.0
C1950 C 0.78517 0.93428 0.2379 0.0
C1951 C 0.78582 0.90753 0.24551 0.0
C1952 C 0.81332 0.9714 0.23852 0.0
C1953 C 0.87386 0.03672 0.26106 0.0
H1954 H 0.91183 0.10507 0.23391 0.0
C1955 C 0.9725 0.19603 0.26614 0.0
C1956 C 0.96803 0.21934 0.25789 0.0
C1957 C 0.95146 0.15734 0.26499 0.0
C1958 C 0.9011 0.08636 0.24159 0.0
H1959 H 0.81747 0.89782 0.25917 0.0
H1960 H 0.86699 0.96333 0.26035 0.0
H1961 H 0.87786 0.03807 0.23021 0.0
H1962 H 0.93597 0.22018 0.24252 0.0
H1963 H 0.89832 0.15269 0.24077 0.0
H1964 H 0.89612 0.08497 0.27243 0.0
C1965 C 0.84458 0.9554 0.25391 0.0
C1966 C 0.882 0.04803 0.23946 0.0
C1967 C 0.81653 0.91797 0.25315 0.0
C1968 C 0.94007 0.2031 0.24904 0.0
C1969 C 0.91893 0.16439 0.24791 0.0
C1970 C 0.89287 0.0751 0.26319 0.0
C1971 C 0.84248 0.9826 0.24689 0.0
C1972 C 0.86764 0.02284 0.24916 0.0
C1973 C 0.92531 0.14114 0.25561 0.0
C1974 C 0.9061 0.10034 0.25346 0.0
H1975 H 0.76173 0.92685 0.23193 0.0
H1976 H 0.8108 0.99172 0.23305 0.0
H1977 H 0.86255 0.01794 0.2687 0.0
H1978 H 0.99351 0.20779 0.27315 0.0
H1979 H 0.95701 0.14025 0.27109 0.0
C1980 C 0.7726 0.84633 0.75134 0.0
C1981 C 0.79642 0.83172 0.75288 0.0
C1982 C 0.78666 0.88475 0.75132 0.0
C1983 C 0.86749 0.97313 0.76166 0.0
H1984 H 0.82249 0.01635 0.74146 0.0
C1985 C 0.91885 0.13234 0.75833 0.0
C1986 C 0.89058 0.14159 0.7586 0.0
C1987 C 0.90988 0.09499 0.75779 0.0
C1988 C 0.8352 0.00462 0.7472 0.0
H1989 H 0.85412 0.84648 0.75533 0.0
H1990 H 0.87876 0.91355 0.75492 0.0
H1991 H 0.80294 0.95062 0.73929 0.0
H1992 H 0.83071 0.11878 0.75907 0.0
H1993 H 0.81524 0.05401 0.75811 0.0
H1994 H 0.89994 0.02757 0.76948 0.0
C1995 C 0.84903 0.89515 0.75395 0.0
C1996 C 0.82396 0.96694 0.74598 0.0
C1997 C 0.83491 0.85662 0.75402 0.0
C1998 C 0.85323 0.11272 0.75882 0.0
C1999 C 0.8443 0.07557 0.75818 0.0
C2000 C 0.87899 0.01102 0.7628 0.0
C2001 C 0.82501 0.90968 0.75275 0.0
C2002 C 0.83943 0.95052 0.75335 0.0
C2003 C 0.87247 0.06634 0.7574 0.0
C2004 C 0.86241 0.02691 0.75574 0.0
H2005 H 0.74291 0.82805 0.75028 0.0
H2006 H 0.76722 0.89485 0.75052 0.0
H2007 H 0.87974 0.96134 0.76757 0.0
H2008 H 0.94782 0.15393 0.75822 0.0
H2009 H 0.93214 0.0886 0.75722 0.0
C2010 C 0.20753 0.92781 0.75814 0.0
C2011 C 0.22023 0.96574 0.75593 0.0
C2012 C 0.16933 0.90194 0.75864 0.0
C2013 C 0.07934 0.89771 0.76414 0.0
H2014 H 0.03669 0.79796 0.75097 0.0
C2015 C 0.9202 0.7958 0.76027 0.0
C2016 C 0.90753 0.7581 0.76282 0.0
C2017 C 0.95843 0.82156 0.75984 0.0
C2018 C 0.04825 0.82561 0.75481 0.0
H2019 H 0.20182 0.0056 0.75224 0.0
H2020 H 0.13618 0.9607 0.75269 0.0
H2021 H 0.10331 0.84128 0.74889 0.0
H2022 H 0.92501 0.71824 0.76743 0.0
H2023 H 0.99125 0.7631 0.76682 0.0
H2024 H 0.02424 0.88206 0.77001 0.0
C2025 C 0.15568 0.95101 0.75428 0.0
C2026 C 0.08644 0.85042 0.75362 0.0
C2027 C 0.19366 0.97678 0.75382 0.0
C2028 C 0.93378 0.74702 0.76536 0.0
C2029 C 0.97182 0.77268 0.76492 0.0
C2030 C 0.04116 0.87293 0.76531 0.0
C2031 C 0.14299 0.91344 0.75694 0.0
C2032 C 0.10243 0.88679 0.75825 0.0
C2033 C 0.98463 0.81008 0.76193 0.0
C2034 C 0.02518 0.83659 0.76068 0.0
H2035 H 0.22708 0.91821 0.75971 0.0
H2036 H 0.16048 0.87317 0.76074 0.0
H2037 H 0.09086 0.92532 0.76801 0.0
H2038 H 0.90069 0.80518 0.75823 0.0
H2039 H 0.96745 0.8502 0.75746 0.0
C2040 C 0.23505 0.14255 0.77406 0.0
C2041 C 0.24089 0.12001 0.76593 0.0
C2042 C 0.20529 0.14866 0.7724 0.0
C2043 C 0.13118 0.14672 0.76756 0.0
H2044 H 0.14687 0.19888 0.73699 0.0
C2045 C 0.04061 0.20722 0.75171 0.0
C2046 C 0.0604 0.24565 0.74921 0.0
C2047 C 0.05911 0.18728 0.75302 0.0
C2048 C 0.14214 0.1842 0.7455 0.0
H2049 H 0.21936 0.08419 0.7502 0.0
H2050 H 0.16763 0.09599 0.74703 0.0
H2051 H 0.18131 0.16647 0.7414 0.0
H2052 H 0.11496 0.29321 0.74587 0.0
H2053 H 0.14777 0.25783 0.74797 0.0
H2054 H 0.09241 0.16487 0.77174 0.0
C2055 C 0.18575 0.10829 0.75478 0.0
C2056 C 0.16138 0.16536 0.74797 0.0
C2057 C 0.21505 0.10138 0.75664 0.0
C2058 C 0.09917 0.26362 0.74777 0.0
C2059 C 0.11776 0.24344 0.74891 0.0
C2060 C 0.1114 0.16493 0.765 0.0
C2061 C 0.18155 0.13301 0.76241 0.0
C2062 C 0.15651 0.14709 0.7591 0.0
C2063 C 0.09782 0.20525 0.75175 0.0
C2064 C 0.11729 0.18438 0.75406 0.0
H2065 H 0.25485 0.15729 0.78124 0.0
H2066 H 0.20264 0.168 0.77834 0.0
H2067 H 0.12737 0.13309 0.77623 0.0
H2068 H 0.01086 0.19272 0.75311 0.0
H2069 H 0.04322 0.15786 0.7552 0.0
C2070 C 0.51446 0.13443 0.59842 0.0
C2071 C 0.48947 0.10597 0.59065 0.0
C2072 C 0.55285 0.15069 0.59678 0.0
C2073 C 0.62495 0.13757 0.58188 0.0
H2074 H 0.68224 0.24571 0.58189 0.0
C2075 C 0.77369 0.2111 0.56494 0.0
C2076 C 0.80011 0.23837 0.57267 0.0
C2077 C 0.73601 0.19906 0.56633 0.0
C2078 C 0.66664 0.21553 0.58194 0.0
H2079 H 0.48538 0.07107 0.57543 0.0
H2080 H 0.55221 0.09899 0.57268 0.0
H2081 H 0.61604 0.21382 0.58706 0.0
H2082 H 0.80854 0.27676 0.58724 0.0
H2083 H 0.74222 0.25533 0.58982 0.0
H2084 H 0.67526 0.13905 0.57683 0.0
C2085 C 0.54212 0.10874 0.58005 0.0
C2086 C 0.62883 0.19726 0.58494 0.0
C2087 C 0.50375 0.09257 0.58167 0.0
C2088 C 0.78864 0.2559 0.5811 0.0
C2089 C 0.75068 0.24348 0.5826 0.0
C2090 C 0.66262 0.15577 0.57889 0.0
C2091 C 0.56704 0.13863 0.58739 0.0
C2092 C 0.60756 0.15807 0.58486 0.0
C2093 C 0.72394 0.21364 0.57562 0.0
C2094 C 0.68383 0.19494 0.57875 0.0
H2095 H 0.50429 0.14492 0.60555 0.0
H2096 H 0.57141 0.17313 0.60274 0.0
H2097 H 0.60947 0.10738 0.58193 0.0
H2098 H 0.78196 0.19736 0.55831 0.0
H2099 H 0.71613 0.1768 0.56057 0.0
C2100 C 0.94479 0.43514 0.57651 0.0
C2101 C 0.93282 0.40639 0.5851 0.0
C2102 C 0.92852 0.45751 0.57604 0.0
C2103 C 0.84121 0.45497 0.58367 0.0
H2104 H 0.89811 0.56055 0.57647 0.0
C2105 C 0.78293 0.55699 0.58402 0.0
C2106 C 0.799 0.58646 0.57569 0.0
C2107 C 0.79529 0.53118 0.5846 0.0
C2108 C 0.88173 0.53095 0.5783 0.0
H2109 H 0.89646 0.38045 0.60048 0.0
H2110 H 0.8681 0.41969 0.59968 0.0
H2111 H 0.93042 0.52598 0.57973 0.0
H2112 H 0.83718 0.61006 0.56062 0.0
H2113 H 0.85756 0.56434 0.56127 0.0
H2114 H 0.79245 0.46016 0.58224 0.0
C2115 C 0.88945 0.42429 0.59315 0.0
C2116 C 0.9003 0.51122 0.58023 0.0
C2117 C 0.90579 0.40198 0.59364 0.0
C2118 C 0.82458 0.58761 0.56717 0.0
C2119 C 0.83654 0.56173 0.56764 0.0
C2120 C 0.82256 0.47478 0.58174 0.0
C2121 C 0.89999 0.45166 0.58415 0.0
C2122 C 0.88027 0.47297 0.58283 0.0
C2123 C 0.8236 0.53455 0.57678 0.0
C2124 C 0.84265 0.51289 0.57889 0.0
H2125 H 0.96516 0.43901 0.56971 0.0
H2126 H 0.93707 0.47823 0.56894 0.0
H2127 H 0.82498 0.42537 0.58552 0.0
H2128 H 0.76342 0.55586 0.59076 0.0
H2129 H 0.78474 0.51043 0.59172 0.0
C2130 C 0.4497 0.2612 0.57102 0.0
C2131 C 0.45163 0.23756 0.5797 0.0
C2132 C 0.4753 0.29922 0.57116 0.0
C2133 C 0.56266 0.37368 0.5848 0.0
H2134 H 0.51194 0.4305 0.58167 0.0
C2135 C 0.63463 0.53007 0.59629 0.0
C2136 C 0.63141 0.55268 0.58744 0.0
C2137 C 0.61222 0.49136 0.59581 0.0
C2138 C 0.52655 0.41508 0.58248 0.0
H2139 H 0.48316 0.23415 0.59476 0.0
H2140 H 0.52796 0.3012 0.59518 0.0
H2141 H 0.47727 0.36329 0.57889 0.0
H2142 H 0.60067 0.55237 0.57152 0.0
H2143 H 0.56112 0.48489 0.5708 0.0
H2144 H 0.61195 0.42577 0.5885 0.0
C2145 C 0.50691 0.29028 0.58816 0.0
C2146 C 0.50678 0.37658 0.58082 0.0
C2147 C 0.48144 0.25192 0.5879 0.0
C2148 C 0.60363 0.53586 0.57855 0.0
C2149 C 0.58109 0.49714 0.5781 0.0
C2150 C 0.58247 0.4123 0.58649 0.0
C2151 C 0.50293 0.31447 0.58014 0.0
C2152 C 0.52465 0.35546 0.58184 0.0
C2153 C 0.58589 0.47448 0.58652 0.0
C2154 C 0.56461 0.43338 0.58528 0.0
H2155 H 0.42699 0.25058 0.56456 0.0
H2156 H 0.47221 0.31697 0.56463 0.0
H2157 H 0.5772 0.3582 0.5856 0.0
H2158 H 0.65535 0.54228 0.60338 0.0
H2159 H 0.61596 0.47461 0.60258 0.0
loop_
_geom_bond_atom_site_label_1
_geom_bond_atom_site_label_2
_geom_bond_distance
_geom_bond_site_symmetry_2
_ccdc_geom_bond_type
Co0 N5 2.057 . S
Co0 O17 2.021 . S
Co0 O20 2.062 . S
Co0 O24 2.112 1_565 S
Co0 O25 2.020 1_565 S
C1 O21 1.259 . S
C1 O24 1.273 . S
Co2 N11 2.057 . S
Co2 O18 2.117 . S
Co2 O19 2.020 1_545 S
Co2 O21 2.021 . S
Co2 O26 2.062 . S
C3 N5 1.316 . S
C3 N6 1.347 . S
C3 H8 0.931 . S
C4 N5 1.375 . S
C4 C7 1.350 . S
C4 H9 0.930 . S
N5 Co0 2.057 . S
N5 C3 1.316 . S
N5 C4 1.375 . S
N6 C3 1.347 . S
N6 C7 1.373 . S
C7 C4 1.350 . S
C7 N6 1.373 . S
C7 H28 0.931 . S
H8 C3 0.931 . S
H9 C4 0.930 . S
C10 O17 1.259 1_545 S
C10 O18 1.258 . S
N11 Co2 2.057 . S
N11 C12 1.316 . S
N11 C13 1.375 . S
C12 N11 1.316 . S
C12 N14 1.347 . S
C12 H23 0.931 . S
C13 N11 1.375 . S
C13 C15 1.350 . S
C13 H22 0.930 . S
N14 C12 1.347 . S
N14 C15 1.373 . S
C15 C13 1.350 . S
C15 N14 1.373 . S
C15 H29 0.931 . S
C16 O19 1.256 . S
C16 O20 1.255 . S
O17 Co0 2.021 . S
O17 C10 1.259 1_565 S
O18 Co2 2.117 . S
O18 C10 1.258 . S
O19 Co2 2.020 1_565 S
O19 C16 1.256 . S
O20 Co0 2.062 . S
O20 C16 1.255 . S
O21 C1 1.259 . S
O21 Co2 2.021 . S
H22 C13 0.930 . S
H23 C12 0.931 . S
O24 Co0 2.112 1_545 S
O24 C1 1.273 . S
O25 Co0 2.020 1_545 S
O25 C27 1.256 . S
O26 Co2 2.062 . S
O26 C27 1.255 . S
C27 O25 1.256 . S
C27 O26 1.255 . S
H28 C7 0.931 . S
H29 C15 0.931 . S
Co30 N35 2.057 . S
Co30 O47 2.021 . S
Co30 O50 2.062 . S
Co30 O54 2.117 . S
Co30 O55 2.020 . S
C31 O51 1.259 . S
C31 O54 1.258 . S
Co32 N41 2.057 1_455 S
Co32 O48 2.117 . S
Co32 O49 2.020 . S
Co32 O51 2.021 . S
Co32 O56 2.062 1_455 S
C33 N35 1.316 . S
C33 N36 1.347 . S
C33 H38 0.931 . S
C34 N35 1.375 . S
C34 C37 1.350 . S
C34 H39 0.930 . S
N35 Co30 2.057 . S
N35 C33 1.316 . S
N35 C34 1.375 . S
N36 C33 1.347 . S
N36 C37 1.373 . S
C37 C34 1.350 . S
C37 N36 1.373 . S
C37 H58 0.931 . S
H38 C33 0.931 . S
H39 C34 0.930 . S
C40 O47 1.259 . S
C40 O48 1.258 . S
N41 Co32 2.057 1_655 S
N41 C42 1.316 . S
N41 C43 1.375 . S
C42 N41 1.316 . S
C42 N44 1.347 . S
C42 H53 0.931 . S
C43 N41 1.375 . S
C43 C45 1.350 . S
C43 H52 0.930 . S
N44 C42 1.347 . S
N44 C45 1.373 . S
C45 C43 1.350 . S
C45 N44 1.373 . S
C45 H59 0.931 . S
C46 O49 1.256 . S
C46 O50 1.255 . S
O47 Co30 2.021 . S
O47 C40 1.259 . S
O48 Co32 2.117 . S
O48 C40 1.258 . S
O49 Co32 2.020 . S
O49 C46 1.256 . S
O50 Co30 2.062 . S
O50 C46 1.255 . S
O51 C31 1.259 . S
O51 Co32 2.021 . S
H52 C43 0.930 . S
H53 C42 0.931 . S
O54 Co30 2.117 . S
O54 C31 1.258 . S
O55 Co30 2.020 . S
O55 C57 1.256 1_455 S
O56 Co32 2.062 1_655 S
O56 C57 1.255 . S
C57 O55 1.256 1_655 S
C57 O56 1.255 . S
H58 C37 0.931 . S
H59 C45 0.931 . S
Co60 N65 2.057 . S
Co60 O77 2.021 . S
Co60 O80 2.062 . S
Co60 O84 2.117 . S
Co60 O85 2.020 . S
C61 O81 1.259 . S
C61 O84 1.258 . S
Co62 N71 2.057 . S
Co62 O78 2.117 . S
Co62 O79 2.020 . S
Co62 O81 2.021 . S
Co62 O86 2.062 . S
C63 N65 1.316 . S
C63 N66 1.347 . S
C63 H68 0.931 . S
C64 N65 1.375 . S
C64 C67 1.350 . S
C64 H69 0.930 . S
N65 Co60 2.057 . S
N65 C63 1.316 . S
N65 C64 1.375 . S
N66 C63 1.347 . S
N66 C67 1.373 . S
C67 C64 1.350 . S
C67 N66 1.373 . S
C67 H88 0.931 . S
H68 C63 0.931 . S
H69 C64 0.930 . S
C70 O77 1.259 . S
C70 O78 1.258 . S
N71 Co62 2.057 . S
N71 C72 1.316 . S
N71 C73 1.375 . S
C72 N71 1.316 . S
C72 N74 1.347 . S
C72 H83 0.931 . S
C73 N71 1.375 . S
C73 C75 1.350 . S
C73 H82 0.930 . S
N74 C72 1.347 . S
N74 C75 1.373 . S
C75 C73 1.350 . S
C75 N74 1.373 . S
C75 H89 0.931 . S
C76 O79 1.256 . S
C76 O80 1.255 . S
O77 Co60 2.021 . S
O77 C70 1.259 . S
O78 Co62 2.117 . S
O78 C70 1.258 . S
O79 Co62 2.020 . S
O79 C76 1.256 . S
O80 Co60 2.062 . S
O80 C76 1.255 . S
O81 C61 1.259 . S
O81 Co62 2.021 . S
H82 C73 0.930 . S
H83 C72 0.931 . S
O84 Co60 2.117 . S
O84 C61 1.258 . S
O85 Co60 2.020 . S
O85 C87 1.256 . S
O86 Co62 2.062 . S
O86 C87 1.255 . S
C87 O85 1.256 . S
C87 O86 1.255 . S
H88 C67 0.931 . S
H89 C75 0.931 . S
Co90 N95 2.057 . S
Co90 O107 2.021 . S
Co90 O110 2.062 . S
Co90 O114 2.112 1_655 S
Co90 O115 2.020 1_655 S
C91 O111 1.259 . S
C91 O114 1.273 . S
Co92 N101 2.057 . S
Co92 O108 2.117 . S
Co92 O109 2.020 1_455 S
Co92 O111 2.021 . S
Co92 O116 2.062 . S
C93 N95 1.316 . S
C93 N96 1.347 . S
C93 H98 0.931 . S
C94 N95 1.375 . S
C94 C97 1.350 . S
C94 H99 0.930 . S
N95 Co90 2.057 . S
N95 C93 1.316 . S
N95 C94 1.375 . S
N96 C93 1.347 . S
N96 C97 1.373 . S
C97 C94 1.350 . S
C97 N96 1.373 . S
C97 H118 0.931 . S
H98 C93 0.931 . S
H99 C94 0.930 . S
C100 O107 1.259 1_455 S
C100 O108 1.258 . S
N101 Co92 2.057 . S
N101 C102 1.316 . S
N101 C103 1.375 . S
C102 N101 1.316 . S
C102 N104 1.347 . S
C102 H113 0.931 . S
C103 N101 1.375 . S
C103 C105 1.350 . S
C103 H112 0.930 . S
N104 C102 1.347 . S
N104 C105 1.373 . S
C105 C103 1.350 . S
C105 N104 1.373 . S
C105 H119 0.931 . S
C106 O109 1.256 . S
C106 O110 1.255 . S
O107 Co90 2.021 . S
O107 C100 1.259 1_655 S
O108 Co92 2.117 . S
O108 C100 1.258 . S
O109 Co92 2.020 1_655 S
O109 C106 1.256 . S
O110 Co90 2.062 . S
O110 C106 1.255 . S
O111 C91 1.259 . S
O111 Co92 2.021 . S
H112 C103 0.930 . S
H113 C102 0.931 . S
O114 Co90 2.112 1_455 S
O114 C91 1.273 . S
O115 Co90 2.020 1_455 S
O115 C117 1.256 . S
O116 Co92 2.062 . S
O116 C117 1.255 . S
C117 O115 1.256 . S
C117 O116 1.255 . S
H118 C97 0.931 . S
H119 C105 0.931 . S
Co120 N125 2.057 . S
Co120 O137 2.021 . S
Co120 O140 2.062 . S
Co120 O144 2.117 . S
Co120 O145 2.020 . S
C121 O141 1.259 . S
C121 O144 1.258 . S
Co122 N131 2.057 . S
Co122 O138 2.117 . S
Co122 O139 2.020 . S
Co122 O141 2.021 . S
Co122 O146 2.062 . S
C123 N125 1.316 . S
C123 N126 1.347 . S
C123 H128 0.931 . S
C124 N125 1.375 . S
C124 C127 1.350 . S
C124 H129 0.930 . S
N125 Co120 2.057 . S
N125 C123 1.316 . S
N125 C124 1.375 . S
N126 C123 1.347 . S
N126 C127 1.373 . S
C127 C124 1.350 . S
C127 N126 1.373 . S
C127 H148 0.931 . S
H128 C123 0.931 . S
H129 C124 0.930 . S
C130 O137 1.259 . S
C130 O138 1.258 . S
N131 Co122 2.057 . S
N131 C132 1.316 . S
N131 C133 1.375 . S
C132 N131 1.316 . S
C132 N134 1.347 . S
C132 H143 0.931 . S
C133 N131 1.375 . S
C133 C135 1.350 . S
C133 H142 0.930 . S
N134 C132 1.347 . S
N134 C135 1.373 . S
C135 C133 1.350 . S
C135 N134 1.373 . S
C135 H149 0.931 . S
C136 O139 1.256 . S
C136 O140 1.255 . S
O137 Co120 2.021 . S
O137 C130 1.259 . S
O138 Co122 2.117 . S
O138 C130 1.258 . S
O139 Co122 2.020 . S
O139 C136 1.256 . S
O140 Co120 2.062 . S
O140 C136 1.255 . S
O141 C121 1.259 . S
O141 Co122 2.021 . S
H142 C133 0.930 . S
H143 C132 0.931 . S
O144 Co120 2.117 . S
O144 C121 1.258 . S
O145 Co120 2.020 . S
O145 C147 1.256 . S
O146 Co122 2.062 . S
O146 C147 1.255 . S
C147 O145 1.256 . S
C147 O146 1.255 . S
H148 C127 0.931 . S
H149 C135 0.931 . S
Co150 N155 2.057 . S
Co150 O167 2.021 . S
Co150 O170 2.062 . S
Co150 O174 2.117 . S
Co150 O175 2.020 . S
C151 O171 1.259 . S
C151 O174 1.258 . S
Co152 N161 2.057 1_545 S
Co152 O168 2.117 . S
Co152 O169 2.020 . S
Co152 O171 2.021 . S
Co152 O176 2.062 1_545 S
C153 N155 1.316 . S
C153 N156 1.347 . S
C153 H158 0.931 . S
C154 N155 1.375 . S
C154 C157 1.350 . S
C154 H159 0.930 . S
N155 Co150 2.057 . S
N155 C153 1.316 . S
N155 C154 1.375 . S
N156 C153 1.347 . S
N156 C157 1.373 . S
C157 C154 1.350 . S
C157 N156 1.373 . S
C157 H178 0.931 . S
H158 C153 0.931 . S
H159 C154 0.930 . S
C160 O167 1.259 . S
C160 O168 1.258 . S
N161 Co152 2.057 1_565 S
N161 C162 1.316 . S
N161 C163 1.375 . S
C162 N161 1.316 . S
C162 N164 1.347 . S
C162 H173 0.931 . S
C163 N161 1.375 . S
C163 C165 1.350 . S
C163 H172 0.930 . S
N164 C162 1.347 . S
N164 C165 1.373 . S
C165 C163 1.350 . S
C165 N164 1.373 . S
C165 H179 0.931 . S
C166 O169 1.256 . S
C166 O170 1.255 . S
O167 Co150 2.021 . S
O167 C160 1.259 . S
O168 Co152 2.117 . S
O168 C160 1.258 . S
O169 Co152 2.020 . S
O169 C166 1.256 . S
O170 Co150 2.062 . S
O170 C166 1.255 . S
O171 C151 1.259 . S
O171 Co152 2.021 . S
H172 C163 0.930 . S
H173 C162 0.931 . S
O174 Co150 2.117 . S
O174 C151 1.258 . S
O175 Co150 2.020 . S
O175 C177 1.256 1_545 S
O176 Co152 2.062 1_565 S
O176 C177 1.255 . S
C177 O175 1.256 1_565 S
C177 O176 1.255 . S
H178 C157 0.931 . S
H179 C165 0.931 . S
Co180 N185 2.057 . S
Co180 O197 2.021 . S
Co180 O200 2.062 . S
Co180 O204 2.117 . S
Co180 O205 2.020 . S
C181 O201 1.259 . S
C181 O204 1.258 . S
Co182 N191 2.057 . S
Co182 O198 2.117 . S
Co182 O199 2.020 . S
Co182 O201 2.021 . S
Co182 O206 2.062 . S
C183 N185 1.316 . S
C183 N186 1.347 . S
C183 H188 0.931 . S
C184 N185 1.375 . S
C184 C187 1.350 . S
C184 H189 0.930 . S
N185 Co180 2.057 . S
N185 C183 1.316 . S
N185 C184 1.375 . S
N186 C183 1.347 . S
N186 C187 1.373 . S
C187 C184 1.350 . S
C187 N186 1.373 . S
C187 H208 0.931 . S
H188 C183 0.931 . S
H189 C184 0.930 . S
C190 O197 1.259 . S
C190 O198 1.258 . S
N191 Co182 2.057 . S
N191 C192 1.316 . S
N191 C193 1.375 . S
C192 N191 1.316 . S
C192 N194 1.347 . S
C192 H203 0.931 . S
C193 N191 1.375 . S
C193 C195 1.350 . S
C193 H202 0.930 . S
N194 C192 1.347 . S
N194 C195 1.373 . S
C195 C193 1.350 . S
C195 N194 1.373 . S
C195 H209 0.931 . S
C196 O199 1.256 . S
C196 O200 1.255 . S
O197 Co180 2.021 . S
O197 C190 1.259 . S
O198 Co182 2.117 . S
O198 C190 1.258 . S
O199 Co182 2.020 . S
O199 C196 1.256 . S
O200 Co180 2.062 . S
O200 C196 1.255 . S
O201 C181 1.259 . S
O201 Co182 2.021 . S
H202 C193 0.930 . S
H203 C192 0.931 . S
O204 Co180 2.117 . S
O204 C181 1.258 . S
O205 Co180 2.020 . S
O205 C207 1.256 . S
O206 Co182 2.062 . S
O206 C207 1.255 . S
C207 O205 1.256 . S
C207 O206 1.255 . S
H208 C187 0.931 . S
H209 C195 0.931 . S
Co210 N215 2.057 . S
Co210 O227 2.021 . S
Co210 O230 2.062 . S
Co210 O234 2.117 . S
Co210 O235 2.020 . S
C211 O231 1.259 . S
C211 O234 1.258 . S
Co212 N221 2.057 . S
Co212 O228 2.117 . S
Co212 O229 2.020 . S
Co212 O231 2.021 . S
Co212 O236 2.062 . S
C213 N215 1.316 . S
C213 N216 1.347 . S
C213 H218 0.931 . S
C214 N215 1.375 . S
C214 C217 1.350 . S
C214 H219 0.930 . S
N215 Co210 2.057 . S
N215 C213 1.316 . S
N215 C214 1.375 . S
N216 C213 1.347 . S
N216 C217 1.373 . S
C217 C214 1.350 . S
C217 N216 1.373 . S
C217 H238 0.931 . S
H218 C213 0.931 . S
H219 C214 0.930 . S
C220 O227 1.259 . S
C220 O228 1.258 . S
N221 Co212 2.057 . S
N221 C222 1.316 . S
N221 C223 1.375 . S
C222 N221 1.316 . S
C222 N224 1.347 . S
C222 H233 0.931 . S
C223 N221 1.375 . S
C223 C225 1.350 . S
C223 H232 0.930 . S
N224 C222 1.347 . S
N224 C225 1.373 . S
C225 C223 1.350 . S
C225 N224 1.373 . S
C225 H239 0.931 . S
C226 O229 1.256 . S
C226 O230 1.255 . S
O227 Co210 2.021 . S
O227 C220 1.259 . S
O228 Co212 2.117 . S
O228 C220 1.258 . S
O229 Co212 2.020 . S
O229 C226 1.256 . S
O230 Co210 2.062 . S
O230 C226 1.255 . S
O231 C211 1.259 . S
O231 Co212 2.021 . S
H232 C223 0.930 . S
H233 C222 0.931 . S
O234 Co210 2.117 . S
O234 C211 1.258 . S
O235 Co210 2.020 . S
O235 C237 1.256 . S
O236 Co212 2.062 . S
O236 C237 1.255 . S
C237 O235 1.256 . S
C237 O236 1.255 . S
H238 C217 0.931 . S
H239 C225 0.931 . S
Co240 N245 2.057 . S
Co240 O257 2.021 . S
Co240 O260 2.062 . S
Co240 O264 2.117 . S
Co240 O265 2.020 . S
C241 O261 1.259 . S
C241 O264 1.258 . S
Co242 N251 2.057 . S
Co242 O258 2.117 . S
Co242 O259 2.020 . S
Co242 O261 2.021 . S
Co242 O266 2.062 . S
C243 N245 1.316 . S
C243 N246 1.347 . S
C243 H248 0.931 . S
C244 N245 1.375 . S
C244 C247 1.350 . S
C244 H249 0.930 . S
N245 Co240 2.057 . S
N245 C243 1.316 . S
N245 C244 1.375 . S
N246 C243 1.347 . S
N246 C247 1.373 . S
C247 C244 1.350 . S
C247 N246 1.373 . S
C247 H268 0.931 . S
H248 C243 0.931 . S
H249 C244 0.930 . S
C250 O257 1.259 . S
C250 O258 1.258 . S
N251 Co242 2.057 . S
N251 C252 1.316 . S
N251 C253 1.375 . S
C252 N251 1.316 . S
C252 N254 1.347 . S
C252 H263 0.931 . S
C253 N251 1.375 . S
C253 C255 1.350 . S
C253 H262 0.930 . S
N254 C252 1.347 . S
N254 C255 1.373 . S
C255 C253 1.350 . S
C255 N254 1.373 . S
C255 H269 0.931 . S
C256 O259 1.256 . S
C256 O260 1.255 . S
O257 Co240 2.021 . S
O257 C250 1.259 . S
O258 Co242 2.117 . S
O258 C250 1.258 . S
O259 Co242 2.020 . S
O259 C256 1.256 . S
O260 Co240 2.062 . S
O260 C256 1.255 . S
O261 C241 1.259 . S
O261 Co242 2.021 . S
H262 C253 0.930 . S
H263 C252 0.931 . S
O264 Co240 2.117 . S
O264 C241 1.258 . S
O265 Co240 2.020 . S
O265 C267 1.256 . S
O266 Co242 2.062 . S
O266 C267 1.255 . S
C267 O265 1.256 . S
C267 O266 1.255 . S
H268 C247 0.931 . S
H269 C255 0.931 . S
Co270 N275 2.057 . S
Co270 O287 2.021 . S
Co270 O290 2.062 . S
Co270 O294 2.117 . S
Co270 O295 2.020 . S
C271 O291 1.259 . S
C271 O294 1.258 . S
Co272 N281 2.057 . S
Co272 O288 2.117 . S
Co272 O289 2.020 . S
Co272 O291 2.021 . S
Co272 O296 2.062 . S
C273 N275 1.316 . S
C273 N276 1.347 . S
C273 H278 0.931 . S
C274 N275 1.375 . S
C274 C277 1.350 . S
C274 H279 0.930 . S
N275 Co270 2.057 . S
N275 C273 1.316 . S
N275 C274 1.375 . S
N276 C273 1.347 . S
N276 C277 1.373 . S
C277 C274 1.350 . S
C277 N276 1.373 . S
C277 H298 0.931 . S
H278 C273 0.931 . S
H279 C274 0.930 . S
C280 O287 1.259 . S
C280 O288 1.258 . S
N281 Co272 2.057 . S
N281 C282 1.316 . S
N281 C283 1.375 . S
C282 N281 1.316 . S
C282 N284 1.347 . S
C282 H293 0.931 . S
C283 N281 1.375 . S
C283 C285 1.350 . S
C283 H292 0.930 . S
N284 C282 1.347 . S
N284 C285 1.373 . S
C285 C283 1.350 . S
C285 N284 1.373 . S
C285 H299 0.931 . S
C286 O289 1.256 . S
C286 O290 1.255 . S
O287 Co270 2.021 . S
O287 C280 1.259 . S
O288 Co272 2.117 . S
O288 C280 1.258 . S
O289 Co272 2.020 . S
O289 C286 1.256 . S
O290 Co270 2.062 . S
O290 C286 1.255 . S
O291 C271 1.259 . S
O291 Co272 2.021 . S
H292 C283 0.930 . S
H293 C282 0.931 . S
O294 Co270 2.117 . S
O294 C271 1.258 . S
O295 Co270 2.020 . S
O295 C297 1.256 . S
O296 Co272 2.062 . S
O296 C297 1.255 . S
C297 O295 1.256 . S
C297 O296 1.255 . S
H298 C277 0.931 . S
H299 C285 0.931 . S
Co300 N305 2.057 . S
Co300 O317 2.021 . S
Co300 O320 2.062 . S
Co300 O324 2.117 . S
Co300 O325 2.020 . S
C301 O321 1.259 . S
C301 O324 1.258 . S
Co302 N311 2.057 . S
Co302 O318 2.117 . S
Co302 O319 2.020 . S
Co302 O321 2.021 . S
Co302 O326 2.062 . S
C303 N305 1.316 . S
C303 N306 1.347 . S
C303 H308 0.931 . S
C304 N305 1.375 . S
C304 C307 1.350 . S
C304 H309 0.930 . S
N305 Co300 2.057 . S
N305 C303 1.316 . S
N305 C304 1.375 . S
N306 C303 1.347 . S
N306 C307 1.373 . S
C307 C304 1.350 . S
C307 N306 1.373 . S
C307 H328 0.931 . S
H308 C303 0.931 . S
H309 C304 0.930 . S
C310 O317 1.259 . S
C310 O318 1.258 . S
N311 Co302 2.057 . S
N311 C312 1.317 1_565 S
N311 C313 1.375 . S
C312 N311 1.317 1_545 S
C312 N314 1.346 . S
C312 H323 0.931 1_545 S
C313 N311 1.375 . S
C313 C315 1.350 1_565 S
C313 H322 0.930 . S
N314 C312 1.346 . S
N314 C315 1.373 . S
C315 C313 1.350 1_545 S
C315 N314 1.373 . S
C315 H329 0.931 . S
C316 O319 1.256 . S
C316 O320 1.255 . S
O317 Co300 2.021 . S
O317 C310 1.259 . S
O318 Co302 2.117 . S
O318 C310 1.258 . S
O319 Co302 2.020 . S
O319 C316 1.256 . S
O320 Co300 2.062 . S
O320 C316 1.255 . S
O321 C301 1.259 . S
O321 Co302 2.021 . S
H322 C313 0.930 . S
H323 C312 0.931 1_565 S
O324 Co300 2.117 . S
O324 C301 1.258 . S
O325 Co300 2.020 . S
O325 C327 1.256 . S
O326 Co302 2.062 . S
O326 C327 1.255 . S
C327 O325 1.256 . S
C327 O326 1.255 . S
H328 C307 0.931 . S
H329 C315 0.931 . S
Co330 N335 2.057 . S
Co330 O347 2.021 . S
Co330 O350 2.062 . S
Co330 O354 2.117 . S
Co330 O355 2.020 . S
C331 O351 1.259 . S
C331 O354 1.258 . S
Co332 N341 2.057 . S
Co332 O348 2.117 . S
Co332 O349 2.020 . S
Co332 O351 2.021 . S
Co332 O356 2.062 . S
C333 N335 1.316 . S
C333 N336 1.347 . S
C333 H338 0.931 . S
C334 N335 1.375 . S
C334 C337 1.350 . S
C334 H339 0.930 . S
N335 Co330 2.057 . S
N335 C333 1.316 . S
N335 C334 1.375 . S
N336 C333 1.347 . S
N336 C337 1.373 . S
C337 C334 1.350 . S
C337 N336 1.373 . S
C337 H358 0.931 . S
H338 C333 0.931 . S
H339 C334 0.930 . S
C340 O347 1.259 . S
C340 O348 1.258 . S
N341 Co332 2.057 . S
N341 C342 1.316 . S
N341 C343 1.375 . S
C342 N341 1.316 . S
C342 N344 1.347 . S
C342 H353 0.931 . S
C343 N341 1.375 . S
C343 C345 1.350 . S
C343 H352 0.930 . S
N344 C342 1.347 . S
N344 C345 1.373 . S
C345 C343 1.350 . S
C345 N344 1.373 . S
C345 H359 0.931 1_455 S
C346 O349 1.256 . S
C346 O350 1.255 . S
O347 Co330 2.021 . S
O347 C340 1.259 . S
O348 Co332 2.117 . S
O348 C340 1.258 . S
O349 Co332 2.020 . S
O349 C346 1.256 . S
O350 Co330 2.062 . S
O350 C346 1.255 . S
O351 C331 1.259 . S
O351 Co332 2.021 . S
H352 C343 0.930 . S
H353 C342 0.931 . S
O354 Co330 2.117 . S
O354 C331 1.258 . S
O355 Co330 2.020 . S
O355 C357 1.256 . S
O356 Co332 2.062 . S
O356 C357 1.255 . S
C357 O355 1.256 . S
C357 O356 1.255 . S
H358 C337 0.931 . S
H359 C345 0.931 1_655 S
Co360 N365 2.057 . S
Co360 O377 2.021 . S
Co360 O380 2.062 . S
Co360 O384 2.117 . S
Co360 O385 2.020 . S
C361 O381 1.259 . S
C361 O384 1.258 . S
Co362 N371 2.057 . S
Co362 O378 2.117 . S
Co362 O379 2.020 . S
Co362 O381 2.021 . S
Co362 O386 2.062 . S
C363 N365 1.316 . S
C363 N366 1.347 . S
C363 H368 0.931 . S
C364 N365 1.375 . S
C364 C367 1.350 . S
C364 H369 0.930 . S
N365 Co360 2.057 . S
N365 C363 1.316 . S
N365 C364 1.375 . S
N366 C363 1.347 . S
N366 C367 1.373 . S
C367 C364 1.350 . S
C367 N366 1.373 . S
C367 H388 0.931 . S
H368 C363 0.931 . S
H369 C364 0.930 . S
C370 O377 1.259 . S
C370 O378 1.258 . S
N371 Co362 2.057 . S
N371 C372 1.316 . S
N371 C373 1.375 . S
C372 N371 1.316 . S
C372 N374 1.347 . S
C372 H383 0.931 . S
C373 N371 1.375 . S
C373 C375 1.350 . S
C373 H382 0.930 . S
N374 C372 1.347 . S
N374 C375 1.373 . S
C375 C373 1.350 . S
C375 N374 1.373 . S
C375 H389 0.931 . S
C376 O379 1.256 . S
C376 O380 1.255 . S
O377 Co360 2.021 . S
O377 C370 1.259 . S
O378 Co362 2.117 . S
O378 C370 1.258 . S
O379 Co362 2.020 . S
O379 C376 1.256 . S
O380 Co360 2.062 . S
O380 C376 1.255 . S
O381 C361 1.259 . S
O381 Co362 2.021 . S
H382 C373 0.930 . S
H383 C372 0.931 . S
O384 Co360 2.117 . S
O384 C361 1.258 . S
O385 Co360 2.020 . S
O385 C387 1.256 . S
O386 Co362 2.062 . S
O386 C387 1.255 . S
C387 O385 1.256 . S
C387 O386 1.255 . S
H388 C367 0.931 . S
H389 C375 0.931 . S
Co390 N395 2.057 . S
Co390 O407 2.021 . S
Co390 O410 2.062 . S
Co390 O414 2.117 . S
Co390 O415 2.020 . S
C391 O411 1.259 . S
C391 O414 1.258 . S
Co392 N401 2.057 . S
Co392 O408 2.117 . S
Co392 O409 2.020 . S
Co392 O411 2.021 . S
Co392 O416 2.062 . S
C393 N395 1.316 . S
C393 N396 1.347 . S
C393 H398 0.931 . S
C394 N395 1.375 . S
C394 C397 1.350 . S
C394 H399 0.930 . S
N395 Co390 2.057 . S
N395 C393 1.316 . S
N395 C394 1.375 . S
N396 C393 1.347 . S
N396 C397 1.373 . S
C397 C394 1.350 . S
C397 N396 1.373 . S
C397 H418 0.931 . S
H398 C393 0.931 . S
H399 C394 0.930 . S
C400 O407 1.259 . S
C400 O408 1.258 . S
N401 Co392 2.057 . S
N401 C402 1.316 . S
N401 C403 1.375 . S
C402 N401 1.316 . S
C402 N404 1.347 . S
C402 H413 0.931 . S
C403 N401 1.375 . S
C403 C405 1.350 . S
C403 H412 0.930 . S
N404 C402 1.347 . S
N404 C405 1.373 . S
C405 C403 1.350 . S
C405 N404 1.373 . S
C405 H419 0.931 1_545 S
C406 O409 1.256 . S
C406 O410 1.255 . S
O407 Co390 2.021 . S
O407 C400 1.259 . S
O408 Co392 2.117 . S
O408 C400 1.258 . S
O409 Co392 2.020 . S
O409 C406 1.256 . S
O410 Co390 2.062 . S
O410 C406 1.255 . S
O411 C391 1.259 . S
O411 Co392 2.021 . S
H412 C403 0.930 . S
H413 C402 0.931 . S
O414 Co390 2.117 . S
O414 C391 1.258 . S
O415 Co390 2.020 . S
O415 C417 1.256 . S
O416 Co392 2.062 . S
O416 C417 1.255 . S
C417 O415 1.256 . S
C417 O416 1.255 . S
H418 C397 0.931 . S
H419 C405 0.931 1_565 S
Co420 N425 2.057 . S
Co420 O437 2.021 . S
Co420 O440 2.062 . S
Co420 O444 2.117 . S
Co420 O445 2.020 . S
C421 O441 1.259 . S
C421 O444 1.258 . S
Co422 N431 2.057 . S
Co422 O438 2.117 . S
Co422 O439 2.020 . S
Co422 O441 2.021 . S
Co422 O446 2.062 . S
C423 N425 1.316 . S
C423 N426 1.347 . S
C423 H428 0.931 . S
C424 N425 1.375 . S
C424 C427 1.350 . S
C424 H429 0.930 . S
N425 Co420 2.057 . S
N425 C423 1.316 . S
N425 C424 1.375 . S
N426 C423 1.347 . S
N426 C427 1.373 . S
C427 C424 1.350 . S
C427 N426 1.373 . S
C427 H448 0.931 . S
H428 C423 0.931 . S
H429 C424 0.930 . S
C430 O437 1.259 . S
C430 O438 1.258 . S
N431 Co422 2.057 . S
N431 C432 1.317 1_655 S
N431 C433 1.375 . S
C432 N431 1.317 1_455 S
C432 N434 1.346 . S
C432 H443 0.931 1_455 S
C433 N431 1.375 . S
C433 C435 1.350 1_655 S
C433 H442 0.930 . S
N434 C432 1.346 . S
N434 C435 1.373 . S
C435 C433 1.350 1_455 S
C435 N434 1.373 . S
C435 H449 0.931 . S
C436 O439 1.256 . S
C436 O440 1.255 . S
O437 Co420 2.021 . S
O437 C430 1.259 . S
O438 Co422 2.117 . S
O438 C430 1.258 . S
O439 Co422 2.020 . S
O439 C436 1.256 . S
O440 Co420 2.062 . S
O440 C436 1.255 . S
O441 C421 1.259 . S
O441 Co422 2.021 . S
H442 C433 0.930 . S
H443 C432 0.931 1_655 S
O444 Co420 2.117 . S
O444 C421 1.258 . S
O445 Co420 2.020 . S
O445 C447 1.256 . S
O446 Co422 2.062 . S
O446 C447 1.255 . S
C447 O445 1.256 . S
C447 O446 1.255 . S
H448 C427 0.931 . S
H449 C435 0.931 . S
Co450 N455 2.057 . S
Co450 O467 2.021 . S
Co450 O470 2.062 . S
Co450 O474 2.117 . S
Co450 O475 2.020 . S
C451 O471 1.259 . S
C451 O474 1.258 . S
Co452 N461 2.057 . S
Co452 O468 2.117 . S
Co452 O469 2.020 . S
Co452 O471 2.021 . S
Co452 O476 2.062 . S
C453 N455 1.316 . S
C453 N456 1.347 . S
C453 H458 0.931 . S
C454 N455 1.375 . S
C454 C457 1.350 . S
C454 H459 0.930 . S
N455 Co450 2.057 . S
N455 C453 1.316 . S
N455 C454 1.375 . S
N456 C453 1.347 . S
N456 C457 1.373 . S
C457 C454 1.350 . S
C457 N456 1.373 . S
C457 H478 0.931 . S
H458 C453 0.931 . S
H459 C454 0.930 . S
C460 O467 1.259 . S
C460 O468 1.258 . S
N461 Co452 2.057 . S
N461 C462 1.316 . S
N461 C463 1.375 . S
C462 N461 1.316 . S
C462 N464 1.347 . S
C462 H473 0.931 . S
C463 N461 1.375 . S
C463 C465 1.350 . S
C463 H472 0.930 . S
N464 C462 1.347 . S
N464 C465 1.373 . S
C465 C463 1.350 . S
C465 N464 1.373 . S
C465 H479 0.931 . S
C466 O469 1.256 . S
C466 O470 1.255 . S
O467 Co450 2.021 . S
O467 C460 1.259 . S
O468 Co452 2.117 . S
O468 C460 1.258 . S
O469 Co452 2.020 . S
O469 C466 1.256 . S
O470 Co450 2.062 . S
O470 C466 1.255 . S
O471 C451 1.259 . S
O471 Co452 2.021 . S
H472 C463 0.930 . S
H473 C462 0.931 . S
O474 Co450 2.117 . S
O474 C451 1.258 . S
O475 Co450 2.020 . S
O475 C477 1.256 . S
O476 Co452 2.062 . S
O476 C477 1.255 . S
C477 O475 1.256 . S
C477 O476 1.255 . S
H478 C457 0.931 . S
H479 C465 0.931 . S
Co480 N485 2.057 . S
Co480 O497 2.021 . S
Co480 O500 2.062 . S
Co480 O504 2.117 . S
Co480 O505 2.020 . S
C481 O501 1.259 . S
C481 O504 1.258 . S
Co482 N491 2.057 . S
Co482 O498 2.117 . S
Co482 O499 2.020 . S
Co482 O501 2.021 . S
Co482 O506 2.062 . S
C483 N485 1.316 . S
C483 N486 1.347 . S
C483 H488 0.931 . S
C484 N485 1.375 . S
C484 C487 1.350 . S
C484 H489 0.930 . S
N485 Co480 2.057 . S
N485 C483 1.316 . S
N485 C484 1.375 . S
N486 C483 1.347 . S
N486 C487 1.373 . S
C487 C484 1.350 . S
C487 N486 1.373 . S
C487 H508 0.931 . S
H488 C483 0.931 . S
H489 C484 0.930 . S
C490 O497 1.259 . S
C490 O498 1.258 . S
N491 Co482 2.057 . S
N491 C492 1.316 . S
N491 C493 1.375 . S
C492 N491 1.316 . S
C492 N494 1.347 . S
C492 H503 0.931 . S
C493 N491 1.375 . S
C493 C495 1.350 . S
C493 H502 0.930 . S
N494 C492 1.347 . S
N494 C495 1.373 . S
C495 C493 1.350 . S
C495 N494 1.373 . S
C495 H509 0.931 . S
C496 O499 1.256 . S
C496 O500 1.255 . S
O497 Co480 2.021 . S
O497 C490 1.259 . S
O498 Co482 2.117 . S
O498 C490 1.258 . S
O499 Co482 2.020 . S
O499 C496 1.256 . S
O500 Co480 2.062 . S
O500 C496 1.255 . S
O501 C481 1.259 . S
O501 Co482 2.021 . S
H502 C493 0.930 . S
H503 C492 0.931 . S
O504 Co480 2.117 . S
O504 C481 1.258 . S
O505 Co480 2.020 . S
O505 C507 1.256 . S
O506 Co482 2.062 . S
O506 C507 1.255 . S
C507 O505 1.256 . S
C507 O506 1.255 . S
H508 C487 0.931 . S
H509 C495 0.931 . S
Co510 N515 2.057 . S
Co510 O527 2.021 . S
Co510 O530 2.062 . S
Co510 O534 2.117 . S
Co510 O535 2.020 . S
C511 O531 1.259 . S
C511 O534 1.258 . S
Co512 N521 2.057 . S
Co512 O528 2.117 . S
Co512 O529 2.020 . S
Co512 O531 2.021 . S
Co512 O536 2.062 . S
C513 N515 1.316 . S
C513 N516 1.347 . S
C513 H518 0.931 . S
C514 N515 1.375 . S
C514 C517 1.350 . S
C514 H519 0.930 . S
N515 Co510 2.057 . S
N515 C513 1.316 . S
N515 C514 1.375 . S
N516 C513 1.347 . S
N516 C517 1.373 . S
C517 C514 1.350 . S
C517 N516 1.373 . S
C517 H538 0.931 . S
H518 C513 0.931 . S
H519 C514 0.930 . S
C520 O527 1.259 . S
C520 O528 1.258 . S
N521 Co512 2.057 . S
N521 C522 1.316 . S
N521 C523 1.375 . S
C522 N521 1.316 . S
C522 N524 1.347 . S
C522 H533 0.931 . S
C523 N521 1.375 . S
C523 C525 1.350 . S
C523 H532 0.930 . S
N524 C522 1.347 . S
N524 C525 1.373 . S
C525 C523 1.350 . S
C525 N524 1.373 . S
C525 H539 0.931 . S
C526 O529 1.256 . S
C526 O530 1.255 . S
O527 Co510 2.021 . S
O527 C520 1.259 . S
O528 Co512 2.117 . S
O528 C520 1.258 . S
O529 Co512 2.020 . S
O529 C526 1.256 . S
O530 Co510 2.062 . S
O530 C526 1.255 . S
O531 C511 1.259 . S
O531 Co512 2.021 . S
H532 C523 0.930 . S
H533 C522 0.931 . S
O534 Co510 2.117 . S
O534 C511 1.258 . S
O535 Co510 2.020 . S
O535 C537 1.256 . S
O536 Co512 2.062 . S
O536 C537 1.255 . S
C537 O535 1.256 . S
C537 O536 1.255 . S
H538 C517 0.931 . S
H539 C525 0.931 . S
C540 C541 1.349 . S
C540 C542 1.327 . S
C540 H565 0.950 . S
C541 C540 1.349 . S
C541 C557 1.349 . S
C542 C540 1.327 . S
C542 C561 1.429 . S
C542 H566 0.950 . S
C543 C560 1.574 . S
C543 C562 1.368 . S
C543 H567 0.949 . S
H544 C548 0.949 . S
C545 C546 1.349 . S
C545 C547 1.327 . S
C545 H568 0.950 . S
C546 C545 1.349 . S
C546 C558 1.349 . S
C547 C545 1.327 . S
C547 C563 1.429 . S
C547 H569 0.950 . S
C548 H544 0.949 . S
C548 C556 1.574 . S
C548 C564 1.368 . S
H549 C557 0.950 . S
H550 C555 0.950 . S
H551 C556 0.949 . S
H552 C558 0.950 . S
H553 C559 0.950 . S
H554 C560 0.949 . S
C555 H550 0.950 . S
C555 C557 1.327 . S
C555 C561 1.429 . S
C556 C548 1.574 . S
C556 H551 0.949 . S
C556 C562 1.368 . S
C557 C541 1.349 . S
C557 H549 0.950 . S
C557 C555 1.327 . S
C558 C546 1.349 . S
C558 H552 0.950 . S
C558 C559 1.327 . S
C559 H553 0.950 . S
C559 C558 1.327 . S
C559 C563 1.429 . S
C560 C543 1.574 . S
C560 H554 0.949 . S
C560 C564 1.368 . S
C561 C542 1.429 . S
C561 C555 1.429 . S
C561 C562 1.523 . S
C562 C543 1.368 . S
C562 C556 1.368 . S
C562 C561 1.523 . S
C563 C547 1.429 . S
C563 C559 1.429 . S
C563 C564 1.523 . S
C564 C548 1.368 . S
C564 C560 1.368 . S
C564 C563 1.523 . S
H565 C540 0.950 . S
H566 C542 0.950 . S
H567 C543 0.949 . S
H568 C545 0.950 . S
H569 C547 0.950 . S
C570 C571 1.349 . S
C570 C572 1.327 . S
C570 H595 0.950 . S
C571 C570 1.349 . S
C571 C587 1.349 . S
C572 C570 1.327 . S
C572 C591 1.429 . S
C572 H596 0.950 . S
C573 C590 1.574 . S
C573 C592 1.368 . S
C573 H597 0.949 . S
H574 C578 0.949 . S
C575 C576 1.349 . S
C575 C577 1.327 . S
C575 H598 0.950 . S
C576 C575 1.349 . S
C576 C588 1.349 . S
C577 C575 1.327 . S
C577 C593 1.429 . S
C577 H599 0.950 . S
C578 H574 0.949 . S
C578 C586 1.574 . S
C578 C594 1.368 . S
H579 C587 0.950 . S
H580 C585 0.950 . S
H581 C586 0.949 . S
H582 C588 0.950 . S
H583 C589 0.950 . S
H584 C590 0.949 . S
C585 H580 0.950 . S
C585 C587 1.327 . S
C585 C591 1.429 . S
C586 C578 1.574 . S
C586 H581 0.949 . S
C586 C592 1.368 . S
C587 C571 1.349 . S
C587 H579 0.950 . S
C587 C585 1.327 . S
C588 C576 1.349 . S
C588 H582 0.950 . S
C588 C589 1.327 . S
C589 H583 0.950 . S
C589 C588 1.327 . S
C589 C593 1.429 . S
C590 C573 1.574 . S
C590 H584 0.949 . S
C590 C594 1.368 . S
C591 C572 1.429 . S
C591 C585 1.429 . S
C591 C592 1.523 . S
C592 C573 1.368 . S
C592 C586 1.368 . S
C592 C591 1.523 . S
C593 C577 1.429 . S
C593 C589 1.429 . S
C593 C594 1.523 . S
C594 C578 1.368 . S
C594 C590 1.368 . S
C594 C593 1.523 . S
H595 C570 0.950 . S
H596 C572 0.950 . S
H597 C573 0.949 . S
H598 C575 0.950 . S
H599 C577 0.950 . S
C600 C601 1.349 . S
C600 C602 1.327 . S
C600 H625 0.950 . S
C601 C600 1.349 . S
C601 C617 1.349 . S
C602 C600 1.327 . S
C602 C621 1.429 . S
C602 H626 0.950 . S
C603 C620 1.574 . S
C603 C622 1.368 . S
C603 H627 0.949 . S
H604 C608 0.949 . S
C605 C606 1.349 . S
C605 C607 1.327 . S
C605 H628 0.950 . S
C606 C605 1.349 . S
C606 C618 1.349 . S
C607 C605 1.327 . S
C607 C623 1.429 . S
C607 H629 0.950 . S
C608 H604 0.949 . S
C608 C616 1.574 . S
C608 C624 1.368 . S
H609 C617 0.950 . S
H610 C615 0.950 . S
H611 C616 0.949 . S
H612 C618 0.950 . S
H613 C619 0.950 . S
H614 C620 0.949 . S
C615 H610 0.950 . S
C615 C617 1.327 . S
C615 C621 1.429 . S
C616 C608 1.574 . S
C616 H611 0.949 . S
C616 C622 1.368 . S
C617 C601 1.349 . S
C617 H609 0.950 . S
C617 C615 1.327 . S
C618 C606 1.349 . S
C618 H612 0.950 . S
C618 C619 1.327 . S
C619 H613 0.950 . S
C619 C618 1.327 . S
C619 C623 1.429 . S
C620 C603 1.574 . S
C620 H614 0.949 . S
C620 C624 1.368 . S
C621 C602 1.429 . S
C621 C615 1.429 . S
C621 C622 1.523 . S
C622 C603 1.368 . S
C622 C616 1.368 . S
C622 C621 1.523 . S
C623 C607 1.429 . S
C623 C619 1.429 . S
C623 C624 1.523 . S
C624 C608 1.368 . S
C624 C620 1.368 . S
C624 C623 1.523 . S
H625 C600 0.950 . S
H626 C602 0.950 . S
H627 C603 0.949 . S
H628 C605 0.950 . S
H629 C607 0.950 . S
C630 C631 1.349 . S
C630 C632 1.327 . S
C630 H655 0.950 . S
C631 C630 1.349 . S
C631 C647 1.349 . S
C632 C630 1.327 . S
C632 C651 1.429 . S
C632 H656 0.950 . S
C633 C650 1.574 . S
C633 C652 1.368 . S
C633 H657 0.949 . S
H634 C638 0.949 . S
C635 C636 1.349 . S
C635 C637 1.327 . S
C635 H658 0.950 . S
C636 C635 1.349 . S
C636 C648 1.349 . S
C637 C635 1.327 . S
C637 C653 1.429 . S
C637 H659 0.950 . S
C638 H634 0.949 . S
C638 C646 1.574 . S
C638 C654 1.368 . S
H639 C647 0.950 . S
H640 C645 0.950 . S
H641 C646 0.949 . S
H642 C648 0.950 . S
H643 C649 0.950 . S
H644 C650 0.949 . S
C645 H640 0.950 . S
C645 C647 1.327 . S
C645 C651 1.429 . S
C646 C638 1.574 . S
C646 H641 0.949 . S
C646 C652 1.368 . S
C647 C631 1.349 . S
C647 H639 0.950 . S
C647 C645 1.327 . S
C648 C636 1.349 . S
C648 H642 0.950 . S
C648 C649 1.327 . S
C649 H643 0.950 . S
C649 C648 1.327 . S
C649 C653 1.429 . S
C650 C633 1.574 . S
C650 H644 0.949 . S
C650 C654 1.368 . S
C651 C632 1.429 . S
C651 C645 1.429 . S
C651 C652 1.523 . S
C652 C633 1.368 . S
C652 C646 1.368 . S
C652 C651 1.523 . S
C653 C637 1.429 . S
C653 C649 1.429 . S
C653 C654 1.523 . S
C654 C638 1.368 . S
C654 C650 1.368 . S
C654 C653 1.523 . S
H655 C630 0.950 . S
H656 C632 0.950 . S
H657 C633 0.949 . S
H658 C635 0.950 . S
H659 C637 0.950 . S
C660 C661 1.349 . S
C660 C662 1.327 . S
C660 H685 0.950 . S
C661 C660 1.349 . S
C661 C677 1.349 . S
C662 C660 1.327 . S
C662 C681 1.429 . S
C662 H686 0.950 . S
C663 C680 1.574 . S
C663 C682 1.368 . S
C663 H687 0.949 . S
H664 C668 0.949 . S
C665 C666 1.349 . S
C665 C667 1.327 . S
C665 H688 0.950 . S
C666 C665 1.349 . S
C666 C678 1.349 . S
C667 C665 1.327 . S
C667 C683 1.429 . S
C667 H689 0.950 . S
C668 H664 0.949 . S
C668 C676 1.574 . S
C668 C684 1.368 . S
H669 C677 0.950 . S
H670 C675 0.950 . S
H671 C676 0.949 . S
H672 C678 0.950 . S
H673 C679 0.950 . S
H674 C680 0.949 . S
C675 H670 0.950 . S
C675 C677 1.327 . S
C675 C681 1.429 . S
C676 C668 1.574 . S
C676 H671 0.949 . S
C676 C682 1.368 . S
C677 C661 1.349 . S
C677 H669 0.950 . S
C677 C675 1.327 . S
C678 C666 1.349 . S
C678 H672 0.950 . S
C678 C679 1.327 . S
C679 H673 0.950 . S
C679 C678 1.327 . S
C679 C683 1.429 . S
C680 C663 1.574 . S
C680 H674 0.949 . S
C680 C684 1.368 . S
C681 C662 1.429 . S
C681 C675 1.429 . S
C681 C682 1.523 . S
C682 C663 1.368 . S
C682 C676 1.368 . S
C682 C681 1.523 . S
C683 C667 1.429 . S
C683 C679 1.429 . S
C683 C684 1.523 . S
C684 C668 1.368 . S
C684 C680 1.368 . S
C684 C683 1.523 . S
H685 C660 0.950 . S
H686 C662 0.950 . S
H687 C663 0.949 . S
H688 C665 0.950 . S
H689 C667 0.950 . S
C690 C691 1.349 . S
C690 C692 1.327 . S
C690 H715 0.950 . S
C691 C690 1.349 . S
C691 C707 1.349 . S
C692 C690 1.327 . S
C692 C711 1.429 . S
C692 H716 0.950 . S
C693 C710 1.574 . S
C693 C712 1.368 . S
C693 H717 0.949 . S
H694 C698 0.949 . S
C695 C696 1.349 . S
C695 C697 1.327 . S
C695 H718 0.950 . S
C696 C695 1.349 . S
C696 C708 1.349 . S
C697 C695 1.327 . S
C697 C713 1.429 . S
C697 H719 0.950 . S
C698 H694 0.949 . S
C698 C706 1.574 . S
C698 C714 1.368 . S
H699 C707 0.950 . S
H700 C705 0.950 . S
H701 C706 0.949 . S
H702 C708 0.950 . S
H703 C709 0.950 . S
H704 C710 0.949 . S
C705 H700 0.950 . S
C705 C707 1.327 . S
C705 C711 1.429 . S
C706 C698 1.574 . S
C706 H701 0.949 . S
C706 C712 1.368 . S
C707 C691 1.349 . S
C707 H699 0.950 . S
C707 C705 1.327 . S
C708 C696 1.349 . S
C708 H702 0.950 . S
C708 C709 1.327 . S
C709 H703 0.950 . S
C709 C708 1.327 . S
C709 C713 1.429 . S
C710 C693 1.574 . S
C710 H704 0.949 . S
C710 C714 1.368 . S
C711 C692 1.429 . S
C711 C705 1.429 . S
C711 C712 1.523 . S
C712 C693 1.368 . S
C712 C706 1.368 . S
C712 C711 1.523 . S
C713 C697 1.429 . S
C713 C709 1.429 . S
C713 C714 1.523 . S
C714 C698 1.368 . S
C714 C710 1.368 . S
C714 C713 1.523 . S
H715 C690 0.950 . S
H716 C692 0.950 . S
H717 C693 0.949 . S
H718 C695 0.950 . S
H719 C697 0.950 . S
C720 C721 1.349 . S
C720 C722 1.327 1_565 S
C720 H745 0.950 . S
C721 C720 1.349 . S
C721 C737 1.349 . S
C722 C720 1.327 1_545 S
C722 C741 1.429 . S
C722 H746 0.950 . S
C723 C740 1.574 . S
C723 C742 1.368 . S
C723 H747 0.949 . S
H724 C728 0.949 . S
C725 C726 1.349 . S
C725 C727 1.327 . S
C725 H748 0.950 . S
C726 C725 1.349 . S
C726 C738 1.349 . S
C727 C725 1.327 . S
C727 C743 1.429 . S
C727 H749 0.950 . S
C728 H724 0.949 . S
C728 C736 1.574 . S
C728 C744 1.368 . S
H729 C737 0.950 . S
H730 C735 0.950 . S
H731 C736 0.949 . S
H732 C738 0.950 . S
H733 C739 0.950 . S
H734 C740 0.949 . S
C735 H730 0.950 . S
C735 C737 1.327 1_545 S
C735 C741 1.429 . S
C736 C728 1.574 . S
C736 H731 0.949 . S
C736 C742 1.368 . S
C737 C721 1.349 . S
C737 H729 0.950 . S
C737 C735 1.327 1_565 S
C738 C726 1.349 . S
C738 H732 0.950 . S
C738 C739 1.327 . S
C739 H733 0.950 . S
C739 C738 1.327 . S
C739 C743 1.429 . S
C740 C723 1.574 . S
C740 H734 0.949 . S
C740 C744 1.368 . S
C741 C722 1.429 . S
C741 C735 1.429 . S
C741 C742 1.523 . S
C742 C723 1.368 . S
C742 C736 1.368 . S
C742 C741 1.523 . S
C743 C727 1.429 . S
C743 C739 1.429 . S
C743 C744 1.523 . S
C744 C728 1.368 . S
C744 C740 1.368 . S
C744 C743 1.523 . S
H745 C720 0.950 . S
H746 C722 0.950 . S
H747 C723 0.949 . S
H748 C725 0.950 . S
H749 C727 0.950 . S
C750 C751 1.349 . S
C750 C752 1.327 . S
C750 H775 0.950 . S
C751 C750 1.349 . S
C751 C767 1.349 . S
C752 C750 1.327 . S
C752 C771 1.429 . S
C752 H776 0.950 1_455 S
C753 C770 1.574 . S
C753 C772 1.368 . S
C753 H777 0.949 . S
H754 C758 0.949 . S
C755 C756 1.349 . S
C755 C757 1.327 1_565 S
C755 H778 0.950 . S
C756 C755 1.349 . S
C756 C768 1.349 1_565 S
C757 C755 1.327 1_545 S
C757 C773 1.429 . S
C757 H779 0.950 . S
C758 H754 0.949 . S
C758 C766 1.574 . S
C758 C774 1.368 . S
H759 C767 0.950 . S
H760 C765 0.950 . S
H761 C766 0.949 . S
H762 C768 0.950 . S
H763 C769 0.950 . S
H764 C770 0.949 . S
C765 H760 0.950 . S
C765 C767 1.327 . S
C765 C771 1.429 . S
C766 C758 1.574 . S
C766 H761 0.949 . S
C766 C772 1.368 . S
C767 C751 1.349 . S
C767 H759 0.950 . S
C767 C765 1.327 . S
C768 C756 1.349 1_545 S
C768 H762 0.950 . S
C768 C769 1.327 . S
C769 H763 0.950 . S
C769 C768 1.327 . S
C769 C773 1.429 . S
C770 C753 1.574 . S
C770 H764 0.949 . S
C770 C774 1.368 . S
C771 C752 1.429 . S
C771 C765 1.429 . S
C771 C772 1.523 1_455 S
C772 C753 1.368 . S
C772 C766 1.368 . S
C772 C771 1.523 1_655 S
C773 C757 1.429 . S
C773 C769 1.429 . S
C773 C774 1.523 . S
C774 C758 1.368 . S
C774 C770 1.368 . S
C774 C773 1.523 . S
H775 C750 0.950 . S
H776 C752 0.950 1_655 S
H777 C753 0.949 . S
H778 C755 0.950 . S
H779 C757 0.950 . S
C780 C781 1.349 . S
C780 C782 1.327 . S
C780 H805 0.950 . S
C781 C780 1.349 . S
C781 C797 1.349 . S
C782 C780 1.327 . S
C782 C801 1.429 1_455 S
C782 H806 0.950 1_455 S
C783 C800 1.574 . S
C783 C802 1.368 . S
C783 H807 0.949 . S
H784 C788 0.949 . S
C785 C786 1.349 . S
C785 C787 1.327 . S
C785 H808 0.950 . S
C786 C785 1.349 . S
C786 C798 1.349 . S
C787 C785 1.327 . S
C787 C803 1.429 . S
C787 H809 0.950 . S
C788 H784 0.949 . S
C788 C796 1.574 . S
C788 C804 1.368 . S
H789 C797 0.950 . S
H790 C795 0.950 1_655 S
H791 C796 0.949 . S
H792 C798 0.950 . S
H793 C799 0.950 . S
H794 C800 0.949 . S
C795 H790 0.950 1_455 S
C795 C797 1.327 . S
C795 C801 1.429 1_455 S
C796 C788 1.574 . S
C796 H791 0.949 . S
C796 C802 1.368 . S
C797 C781 1.349 . S
C797 H789 0.950 . S
C797 C795 1.327 . S
C798 C786 1.349 . S
C798 H792 0.950 . S
C798 C799 1.327 . S
C799 H793 0.950 . S
C799 C798 1.327 . S
C799 C803 1.429 . S
C800 C783 1.574 . S
C800 H794 0.949 . S
C800 C804 1.368 . S
C801 C782 1.429 1_655 S
C801 C795 1.429 1_655 S
C801 C802 1.523 . S
C802 C783 1.368 . S
C802 C796 1.368 . S
C802 C801 1.523 . S
C803 C787 1.429 . S
C803 C799 1.429 . S
C803 C804 1.523 . S
C804 C788 1.368 . S
C804 C800 1.368 . S
C804 C803 1.523 . S
H805 C780 0.950 . S
H806 C782 0.950 1_655 S
H807 C783 0.949 . S
H808 C785 0.950 . S
H809 C787 0.950 . S
C810 C811 1.349 . S
C810 C812 1.327 . S
C810 H835 0.950 . S
C811 C810 1.349 . S
C811 C827 1.349 . S
C812 C810 1.327 . S
C812 C831 1.429 . S
C812 H836 0.950 . S
C813 C830 1.574 . S
C813 C832 1.368 . S
C813 H837 0.949 . S
H814 C818 0.949 . S
C815 C816 1.349 . S
C815 C817 1.327 . S
C815 H838 0.950 . S
C816 C815 1.349 . S
C816 C828 1.349 . S
C817 C815 1.327 . S
C817 C833 1.429 . S
C817 H839 0.950 . S
C818 H814 0.949 . S
C818 C826 1.574 . S
C818 C834 1.368 . S
H819 C827 0.950 . S
H820 C825 0.950 . S
H821 C826 0.949 . S
H822 C828 0.950 . S
H823 C829 0.950 . S
H824 C830 0.949 . S
C825 H820 0.950 . S
C825 C827 1.327 . S
C825 C831 1.429 . S
C826 C818 1.574 . S
C826 H821 0.949 . S
C826 C832 1.368 . S
C827 C811 1.349 . S
C827 H819 0.950 . S
C827 C825 1.327 . S
C828 C816 1.349 . S
C828 H822 0.950 . S
C828 C829 1.327 . S
C829 H823 0.950 . S
C829 C828 1.327 . S
C829 C833 1.429 . S
C830 C813 1.574 . S
C830 H824 0.949 . S
C830 C834 1.368 . S
C831 C812 1.429 . S
C831 C825 1.429 . S
C831 C832 1.523 . S
C832 C813 1.368 . S
C832 C826 1.368 . S
C832 C831 1.523 . S
C833 C817 1.429 . S
C833 C829 1.429 . S
C833 C834 1.523 . S
C834 C818 1.368 . S
C834 C830 1.368 . S
C834 C833 1.523 . S
H835 C810 0.950 . S
H836 C812 0.950 . S
H837 C813 0.949 . S
H838 C815 0.950 . S
H839 C817 0.950 . S
C840 C841 1.349 . S
C840 C842 1.327 . S
C840 H865 0.950 . S
C841 C840 1.349 . S
C841 C857 1.349 . S
C842 C840 1.327 . S
C842 C861 1.429 . S
C842 H866 0.950 . S
C843 C860 1.574 . S
C843 C862 1.368 . S
C843 H867 0.949 . S
H844 C848 0.949 . S
C845 C846 1.349 . S
C845 C847 1.327 . S
C845 H868 0.950 . S
C846 C845 1.349 . S
C846 C858 1.349 . S
C847 C845 1.327 . S
C847 C863 1.429 . S
C847 H869 0.950 . S
C848 H844 0.949 . S
C848 C856 1.574 . S
C848 C864 1.368 . S
H849 C857 0.950 . S
H850 C855 0.950 . S
H851 C856 0.949 . S
H852 C858 0.950 . S
H853 C859 0.950 . S
H854 C860 0.949 . S
C855 H850 0.950 . S
C855 C857 1.327 . S
C855 C861 1.429 . S
C856 C848 1.574 . S
C856 H851 0.949 . S
C856 C862 1.368 . S
C857 C841 1.349 . S
C857 H849 0.950 . S
C857 C855 1.327 . S
C858 C846 1.349 . S
C858 H852 0.950 . S
C858 C859 1.327 . S
C859 H853 0.950 . S
C859 C858 1.327 . S
C859 C863 1.429 . S
C860 C843 1.574 . S
C860 H854 0.949 . S
C860 C864 1.368 . S
C861 C842 1.429 . S
C861 C855 1.429 . S
C861 C862 1.523 . S
C862 C843 1.368 . S
C862 C856 1.368 . S
C862 C861 1.523 . S
C863 C847 1.429 . S
C863 C859 1.429 . S
C863 C864 1.523 . S
C864 C848 1.368 . S
C864 C860 1.368 . S
C864 C863 1.523 . S
H865 C840 0.950 . S
H866 C842 0.950 . S
H867 C843 0.949 . S
H868 C845 0.950 . S
H869 C847 0.950 . S
C870 C871 1.349 . S
C870 C872 1.327 . S
C870 H895 0.950 . S
C871 C870 1.349 . S
C871 C887 1.349 . S
C872 C870 1.327 . S
C872 C891 1.429 . S
C872 H896 0.950 . S
C873 C890 1.574 . S
C873 C892 1.368 . S
C873 H897 0.949 . S
H874 C878 0.949 . S
C875 C876 1.349 . S
C875 C877 1.327 . S
C875 H898 0.950 . S
C876 C875 1.349 . S
C876 C888 1.349 . S
C877 C875 1.327 . S
C877 C893 1.429 . S
C877 H899 0.950 . S
C878 H874 0.949 . S
C878 C886 1.574 . S
C878 C894 1.368 . S
H879 C887 0.950 . S
H880 C885 0.950 . S
H881 C886 0.949 . S
H882 C888 0.950 . S
H883 C889 0.950 . S
H884 C890 0.949 . S
C885 H880 0.950 . S
C885 C887 1.327 . S
C885 C891 1.429 . S
C886 C878 1.574 . S
C886 H881 0.949 . S
C886 C892 1.368 . S
C887 C871 1.349 . S
C887 H879 0.950 . S
C887 C885 1.327 . S
C888 C876 1.349 . S
C888 H882 0.950 . S
C888 C889 1.327 . S
C889 H883 0.950 . S
C889 C888 1.327 . S
C889 C893 1.429 . S
C890 C873 1.574 . S
C890 H884 0.949 . S
C890 C894 1.368 . S
C891 C872 1.429 . S
C891 C885 1.429 . S
C891 C892 1.523 . S
C892 C873 1.368 . S
C892 C886 1.368 . S
C892 C891 1.523 . S
C893 C877 1.429 . S
C893 C889 1.429 . S
C893 C894 1.523 . S
C894 C878 1.368 . S
C894 C890 1.368 . S
C894 C893 1.523 . S
H895 C870 0.950 . S
H896 C872 0.950 . S
H897 C873 0.949 . S
H898 C875 0.950 . S
H899 C877 0.950 . S
C900 C901 1.349 . S
C900 C902 1.327 . S
C900 H925 0.950 . S
C901 C900 1.349 . S
C901 C917 1.349 . S
C902 C900 1.327 . S
C902 C921 1.429 . S
C902 H926 0.950 . S
C903 C920 1.574 . S
C903 C922 1.368 . S
C903 H927 0.949 . S
H904 C908 0.949 . S
C905 C906 1.349 . S
C905 C907 1.327 . S
C905 H928 0.950 . S
C906 C905 1.349 . S
C906 C918 1.349 . S
C907 C905 1.327 . S
C907 C923 1.429 . S
C907 H929 0.950 . S
C908 H904 0.949 . S
C908 C916 1.574 . S
C908 C924 1.368 . S
H909 C917 0.950 . S
H910 C915 0.950 . S
H911 C916 0.949 . S
H912 C918 0.950 . S
H913 C919 0.950 . S
H914 C920 0.949 . S
C915 H910 0.950 . S
C915 C917 1.327 . S
C915 C921 1.429 . S
C916 C908 1.574 . S
C916 H911 0.949 . S
C916 C922 1.368 . S
C917 C901 1.349 . S
C917 H909 0.950 . S
C917 C915 1.327 . S
C918 C906 1.349 . S
C918 H912 0.950 . S
C918 C919 1.327 . S
C919 H913 0.950 . S
C919 C918 1.327 . S
C919 C923 1.429 . S
C920 C903 1.574 . S
C920 H914 0.949 . S
C920 C924 1.368 . S
C921 C902 1.429 . S
C921 C915 1.429 . S
C921 C922 1.523 . S
C922 C903 1.368 . S
C922 C916 1.368 . S
C922 C921 1.523 . S
C923 C907 1.429 . S
C923 C919 1.429 . S
C923 C924 1.523 . S
C924 C908 1.368 . S
C924 C920 1.368 . S
C924 C923 1.523 . S
H925 C900 0.950 . S
H926 C902 0.950 . S
H927 C903 0.949 . S
H928 C905 0.950 . S
H929 C907 0.950 . S
C930 C931 1.349 . S
C930 C932 1.327 . S
C930 H955 0.950 . S
C931 C930 1.349 . S
C931 C947 1.349 . S
C932 C930 1.327 . S
C932 C951 1.429 . S
C932 H956 0.950 . S
C933 C950 1.574 . S
C933 C952 1.368 . S
C933 H957 0.949 . S
H934 C938 0.949 . S
C935 C936 1.349 . S
C935 C937 1.327 . S
C935 H958 0.950 . S
C936 C935 1.349 . S
C936 C948 1.349 . S
C937 C935 1.327 . S
C937 C953 1.429 . S
C937 H959 0.950 . S
C938 H934 0.949 . S
C938 C946 1.574 . S
C938 C954 1.368 . S
H939 C947 0.950 . S
H940 C945 0.950 . S
H941 C946 0.949 . S
H942 C948 0.950 . S
H943 C949 0.950 . S
H944 C950 0.949 . S
C945 H940 0.950 . S
C945 C947 1.327 . S
C945 C951 1.429 . S
C946 C938 1.574 . S
C946 H941 0.949 . S
C946 C952 1.368 . S
C947 C931 1.349 . S
C947 H939 0.950 . S
C947 C945 1.327 . S
C948 C936 1.349 . S
C948 H942 0.950 . S
C948 C949 1.327 . S
C949 H943 0.950 . S
C949 C948 1.327 . S
C949 C953 1.429 . S
C950 C933 1.574 . S
C950 H944 0.949 . S
C950 C954 1.368 . S
C951 C932 1.429 . S
C951 C945 1.429 . S
C951 C952 1.523 . S
C952 C933 1.368 . S
C952 C946 1.368 . S
C952 C951 1.523 . S
C953 C937 1.429 . S
C953 C949 1.429 . S
C953 C954 1.523 . S
C954 C938 1.368 . S
C954 C950 1.368 . S
C954 C953 1.523 . S
H955 C930 0.950 . S
H956 C932 0.950 . S
H957 C933 0.949 . S
H958 C935 0.950 . S
H959 C937 0.950 . S
C960 C961 1.349 . S
C960 C962 1.327 . S
C960 H985 0.950 . S
C961 C960 1.349 . S
C961 C977 1.349 . S
C962 C960 1.327 . S
C962 C981 1.429 . S
C962 H986 0.950 . S
C963 C980 1.574 . S
C963 C982 1.368 . S
C963 H987 0.949 . S
H964 C968 0.949 . S
C965 C966 1.349 . S
C965 C967 1.327 . S
C965 H988 0.950 . S
C966 C965 1.349 . S
C966 C978 1.349 . S
C967 C965 1.327 . S
C967 C983 1.429 . S
C967 H989 0.950 . S
C968 H964 0.949 . S
C968 C976 1.574 . S
C968 C984 1.368 . S
H969 C977 0.950 . S
H970 C975 0.950 . S
H971 C976 0.949 . S
H972 C978 0.950 . S
H973 C979 0.950 . S
H974 C980 0.949 . S
C975 H970 0.950 . S
C975 C977 1.327 . S
C975 C981 1.429 . S
C976 C968 1.574 . S
C976 H971 0.949 . S
C976 C982 1.368 . S
C977 C961 1.349 . S
C977 H969 0.950 . S
C977 C975 1.327 . S
C978 C966 1.349 . S
C978 H972 0.950 . S
C978 C979 1.327 . S
C979 H973 0.950 . S
C979 C978 1.327 . S
C979 C983 1.429 . S
C980 C963 1.574 . S
C980 H974 0.949 . S
C980 C984 1.368 . S
C981 C962 1.429 . S
C981 C975 1.429 . S
C981 C982 1.523 . S
C982 C963 1.368 . S
C982 C976 1.368 . S
C982 C981 1.523 . S
C983 C967 1.429 . S
C983 C979 1.429 . S
C983 C984 1.523 . S
C984 C968 1.368 . S
C984 C980 1.368 . S
C984 C983 1.523 . S
H985 C960 0.950 . S
H986 C962 0.950 . S
H987 C963 0.949 . S
H988 C965 0.950 . S
H989 C967 0.950 . S
C990 C991 1.349 1_455 S
C990 C992 1.327 . S
C990 H1015 0.950 . S
C991 C990 1.349 1_655 S
C991 C1007 1.349 . S
C992 C990 1.327 . S
C992 C1011 1.429 . S
C992 H1016 0.950 . S
C993 C1010 1.574 . S
C993 C1012 1.368 . S
C993 H1017 0.949 . S
H994 C998 0.949 . S
C995 C996 1.349 . S
C995 C997 1.327 . S
C995 H1018 0.950 . S
C996 C995 1.349 . S
C996 C1008 1.349 . S
C997 C995 1.327 . S
C997 C1013 1.429 . S
C997 H1019 0.950 . S
C998 H994 0.949 . S
C998 C1006 1.574 . S
C998 C1014 1.368 . S
H999 C1007 0.950 . S
H1000 C1005 0.949 1_655 S
H1001 C1006 0.949 . S
H1002 C1008 0.950 . S
H1003 C1009 0.950 . S
H1004 C1010 0.949 . S
C1005 H1000 0.949 1_455 S
C1005 C1007 1.328 1_455 S
C1005 C1011 1.428 . S
C1006 C998 1.574 . S
C1006 H1001 0.949 . S
C1006 C1012 1.368 . S
C1007 C991 1.349 . S
C1007 H999 0.950 . S
C1007 C1005 1.328 1_655 S
C1008 C996 1.349 . S
C1008 H1002 0.950 . S
C1008 C1009 1.327 . S
C1009 H1003 0.950 . S
C1009 C1008 1.327 . S
C1009 C1013 1.429 . S
C1010 C993 1.574 . S
C1010 H1004 0.949 . S
C1010 C1014 1.368 . S
C1011 C992 1.429 . S
C1011 C1005 1.428 . S
C1011 C1012 1.523 . S
C1012 C993 1.368 . S
C1012 C1006 1.368 . S
C1012 C1011 1.523 . S
C1013 C997 1.429 . S
C1013 C1009 1.429 . S
C1013 C1014 1.523 . S
C1014 C998 1.368 . S
C1014 C1010 1.368 . S
C1014 C1013 1.523 . S
H1015 C990 0.950 . S
H1016 C992 0.950 . S
H1017 C993 0.949 . S
H1018 C995 0.950 . S
H1019 C997 0.950 . S
C1020 C1021 1.349 . S
C1020 C1022 1.327 . S
C1020 H1045 0.950 . S
C1021 C1020 1.349 . S
C1021 C1037 1.349 . S
C1022 C1020 1.327 . S
C1022 C1041 1.429 . S
C1022 H1046 0.950 . S
C1023 C1040 1.574 . S
C1023 C1042 1.368 . S
C1023 H1047 0.949 . S
H1024 C1028 0.949 . S
C1025 C1026 1.349 . S
C1025 C1027 1.327 . S
C1025 H1048 0.950 . S
C1026 C1025 1.349 . S
C1026 C1038 1.349 . S
C1027 C1025 1.327 . S
C1027 C1043 1.429 1_545 S
C1027 H1049 0.950 . S
C1028 H1024 0.949 . S
C1028 C1036 1.574 . S
C1028 C1044 1.368 . S
H1029 C1037 0.950 . S
H1030 C1035 0.950 . S
H1031 C1036 0.949 . S
H1032 C1038 0.950 . S
H1033 C1039 0.950 . S
H1034 C1040 0.949 . S
C1035 H1030 0.950 . S
C1035 C1037 1.327 . S
C1035 C1041 1.429 . S
C1036 C1028 1.574 . S
C1036 H1031 0.949 . S
C1036 C1042 1.368 . S
C1037 C1021 1.349 . S
C1037 H1029 0.950 . S
C1037 C1035 1.327 . S
C1038 C1026 1.349 . S
C1038 H1032 0.950 . S
C1038 C1039 1.327 1_545 S
C1039 H1033 0.950 . S
C1039 C1038 1.327 1_565 S
C1039 C1043 1.429 . S
C1040 C1023 1.574 . S
C1040 H1034 0.949 . S
C1040 C1044 1.368 . S
C1041 C1022 1.429 . S
C1041 C1035 1.429 . S
C1041 C1042 1.523 . S
C1042 C1023 1.368 . S
C1042 C1036 1.368 . S
C1042 C1041 1.523 . S
C1043 C1027 1.429 1_565 S
C1043 C1039 1.429 . S
C1043 C1044 1.523 . S
C1044 C1028 1.368 . S
C1044 C1040 1.368 . S
C1044 C1043 1.523 . S
H1045 C1020 0.950 . S
H1046 C1022 0.950 . S
H1047 C1023 0.949 . S
H1048 C1025 0.950 . S
H1049 C1027 0.950 . S
C1050 C1051 1.349 . S
C1050 C1052 1.327 . S
C1050 H1075 0.950 . S
C1051 C1050 1.349 . S
C1051 C1067 1.349 . S
C1052 C1050 1.327 . S
C1052 C1071 1.429 . S
C1052 H1076 0.950 . S
C1053 C1070 1.574 . S
C1053 C1072 1.368 . S
C1053 H1077 0.949 . S
H1054 C1058 0.949 . S
C1055 C1056 1.348 . S
C1055 C1057 1.317 1_655 S
C1055 H1078 0.962 . S
C1056 C1055 1.348 . S
C1056 C1068 1.349 1_655 S
C1057 C1055 1.317 1_455 S
C1057 C1073 1.429 . S
C1057 H1079 0.950 . S
C1058 H1054 0.949 . S
C1058 C1066 1.574 . S
C1058 C1074 1.368 . S
H1059 C1067 0.950 . S
H1060 C1065 0.950 . S
H1061 C1066 0.949 . S
H1062 C1068 0.950 . S
H1063 C1069 0.950 . S
H1064 C1070 0.949 . S
C1065 H1060 0.950 . S
C1065 C1067 1.327 . S
C1065 C1071 1.429 . S
C1066 C1058 1.574 . S
C1066 H1061 0.949 . S
C1066 C1072 1.368 . S
C1067 C1051 1.349 . S
C1067 H1059 0.950 . S
C1067 C1065 1.327 . S
C1068 C1056 1.349 1_455 S
C1068 H1062 0.950 . S
C1068 C1069 1.327 . S
C1069 H1063 0.950 . S
C1069 C1068 1.327 . S
C1069 C1073 1.429 . S
C1070 C1053 1.574 . S
C1070 H1064 0.949 . S
C1070 C1074 1.368 . S
C1071 C1052 1.429 . S
C1071 C1065 1.429 . S
C1071 C1072 1.523 1_545 S
C1072 C1053 1.368 . S
C1072 C1066 1.368 . S
C1072 C1071 1.523 1_565 S
C1073 C1057 1.429 . S
C1073 C1069 1.429 . S
C1073 C1074 1.523 . S
C1074 C1058 1.368 . S
C1074 C1070 1.368 . S
C1074 C1073 1.523 . S
H1075 C1050 0.950 . S
H1076 C1052 0.950 . S
H1077 C1053 0.949 . S
H1078 C1055 0.962 . S
H1079 C1057 0.950 . S
C1080 C1081 1.349 . S
C1080 C1082 1.327 . S
C1080 H1105 0.950 . S
C1081 C1080 1.349 . S
C1081 C1097 1.349 1_545 S
C1082 C1080 1.327 . S
C1082 C1101 1.429 . S
C1082 H1106 0.950 . S
C1083 C1100 1.574 1_554 S
C1083 C1102 1.368 1_565 S
C1083 H1107 0.949 . S
H1084 C1088 0.949 . S
C1085 C1086 1.349 1_565 S
C1085 C1087 1.327 . S
C1085 H1108 0.950 . S
C1086 C1085 1.349 1_545 S
C1086 C1098 1.349 . S
C1087 C1085 1.327 . S
C1087 C1103 1.429 1_565 S
C1087 H1109 0.950 . S
C1088 H1084 0.949 . S
C1088 C1096 1.574 1_556 S
C1088 C1104 1.368 . S
H1089 C1097 0.950 . S
H1090 C1095 0.950 . S
H1091 C1096 0.949 . S
H1092 C1098 0.950 . S
H1093 C1099 0.950 . S
H1094 C1100 0.949 . S
C1095 H1090 0.950 . S
C1095 C1097 1.327 . S
C1095 C1101 1.429 1_565 S
C1096 C1088 1.574 1_554 S
C1096 H1091 0.949 . S
C1096 C1102 1.368 . S
C1097 C1081 1.349 1_565 S
C1097 H1089 0.950 . S
C1097 C1095 1.327 . S
C1098 C1086 1.349 . S
C1098 H1092 0.950 . S
C1098 C1099 1.327 . S
C1099 H1093 0.950 . S
C1099 C1098 1.327 . S
C1099 C1103 1.429 . S
C1100 C1083 1.574 1_556 S
C1100 H1094 0.949 . S
C1100 C1104 1.368 1_565 S
C1101 C1082 1.429 . S
C1101 C1095 1.429 1_545 S
C1101 C1102 1.523 . S
C1102 C1083 1.368 1_545 S
C1102 C1096 1.368 . S
C1102 C1101 1.523 . S
C1103 C1087 1.429 1_545 S
C1103 C1099 1.429 . S
C1103 C1104 1.523 . S
C1104 C1088 1.368 . S
C1104 C1100 1.368 1_545 S
C1104 C1103 1.523 . S
H1105 C1080 0.950 . S
H1106 C1082 0.950 . S
H1107 C1083 0.949 . S
H1108 C1085 0.950 . S
H1109 C1087 0.950 . S
C1110 C1111 1.349 . S
C1110 C1112 1.327 . S
C1110 H1135 0.950 . S
C1111 C1110 1.349 . S
C1111 C1127 1.349 . S
C1112 C1110 1.327 . S
C1112 C1131 1.429 . S
C1112 H1136 0.950 . S
C1113 C1130 1.574 1_556 S
C1113 C1132 1.368 . S
C1113 H1137 0.949 . S
H1114 C1118 0.949 . S
C1115 C1116 1.349 . S
C1115 C1117 1.327 . S
C1115 H1138 0.950 . S
C1116 C1115 1.349 . S
C1116 C1128 1.349 . S
C1117 C1115 1.327 . S
C1117 C1133 1.429 . S
C1117 H1139 0.950 . S
C1118 H1114 0.949 . S
C1118 C1126 1.574 1_554 S
C1118 C1134 1.368 . S
H1119 C1127 0.950 . S
H1120 C1125 0.950 . S
H1121 C1126 0.949 . S
H1122 C1128 0.950 . S
H1123 C1129 0.950 . S
H1124 C1130 0.949 . S
C1125 H1120 0.950 . S
C1125 C1127 1.327 . S
C1125 C1131 1.429 . S
C1126 C1118 1.574 1_556 S
C1126 H1121 0.949 . S
C1126 C1132 1.368 . S
C1127 C1111 1.349 . S
C1127 H1119 0.950 . S
C1127 C1125 1.327 . S
C1128 C1116 1.349 . S
C1128 H1122 0.950 . S
C1128 C1129 1.327 . S
C1129 H1123 0.950 . S
C1129 C1128 1.327 . S
C1129 C1133 1.429 . S
C1130 C1113 1.574 1_554 S
C1130 H1124 0.949 . S
C1130 C1134 1.368 . S
C1131 C1112 1.429 . S
C1131 C1125 1.429 . S
C1131 C1132 1.523 . S
C1132 C1113 1.368 . S
C1132 C1126 1.368 . S
C1132 C1131 1.523 . S
C1133 C1117 1.429 . S
C1133 C1129 1.429 . S
C1133 C1134 1.523 . S
C1134 C1118 1.368 . S
C1134 C1130 1.368 . S
C1134 C1133 1.523 . S
H1135 C1110 0.950 . S
H1136 C1112 0.950 . S
H1137 C1113 0.949 . S
H1138 C1115 0.950 . S
H1139 C1117 0.950 . S
C1140 C1141 1.349 . S
C1140 C1142 1.327 . S
C1140 H1165 0.950 . S
C1141 C1140 1.349 . S
C1141 C1157 1.349 . S
C1142 C1140 1.327 . S
C1142 C1161 1.429 . S
C1142 H1166 0.950 . S
C1143 C1160 1.574 1_556 S
C1143 C1162 1.368 . S
C1143 H1167 0.949 . S
H1144 C1148 0.949 . S
C1145 C1146 1.349 . S
C1145 C1147 1.327 . S
C1145 H1168 0.950 . S
C1146 C1145 1.349 . S
C1146 C1158 1.349 . S
C1147 C1145 1.327 . S
C1147 C1163 1.429 . S
C1147 H1169 0.950 . S
C1148 H1144 0.949 . S
C1148 C1156 1.574 1_554 S
C1148 C1164 1.368 . S
H1149 C1157 0.950 . S
H1150 C1155 0.950 . S
H1151 C1156 0.949 . S
H1152 C1158 0.950 . S
H1153 C1159 0.950 . S
H1154 C1160 0.949 . S
C1155 H1150 0.950 . S
C1155 C1157 1.327 . S
C1155 C1161 1.429 . S
C1156 C1148 1.574 1_556 S
C1156 H1151 0.949 . S
C1156 C1162 1.368 . S
C1157 C1141 1.349 . S
C1157 H1149 0.950 . S
C1157 C1155 1.327 . S
C1158 C1146 1.349 . S
C1158 H1152 0.950 . S
C1158 C1159 1.327 . S
C1159 H1153 0.950 . S
C1159 C1158 1.327 . S
C1159 C1163 1.429 . S
C1160 C1143 1.574 1_554 S
C1160 H1154 0.949 . S
C1160 C1164 1.368 . S
C1161 C1142 1.429 . S
C1161 C1155 1.429 . S
C1161 C1162 1.523 . S
C1162 C1143 1.368 . S
C1162 C1156 1.368 . S
C1162 C1161 1.523 . S
C1163 C1147 1.429 . S
C1163 C1159 1.429 . S
C1163 C1164 1.523 . S
C1164 C1148 1.368 . S
C1164 C1160 1.368 . S
C1164 C1163 1.523 . S
H1165 C1140 0.950 . S
H1166 C1142 0.950 . S
H1167 C1143 0.949 . S
H1168 C1145 0.950 . S
H1169 C1147 0.950 . S
C1170 C1171 1.349 . S
C1170 C1172 1.327 . S
C1170 H1195 0.950 . S
C1171 C1170 1.349 . S
C1171 C1187 1.349 . S
C1172 C1170 1.327 . S
C1172 C1191 1.429 . S
C1172 H1196 0.950 . S
C1173 C1190 1.574 . S
C1173 C1192 1.368 . S
C1173 H1197 0.949 . S
H1174 C1178 0.949 . S
C1175 C1176 1.349 . S
C1175 C1177 1.327 . S
C1175 H1198 0.950 . S
C1176 C1175 1.349 . S
C1176 C1188 1.349 . S
C1177 C1175 1.327 . S
C1177 C1193 1.429 . S
C1177 H1199 0.950 . S
C1178 H1174 0.949 . S
C1178 C1186 1.574 . S
C1178 C1194 1.368 . S
H1179 C1187 0.950 . S
H1180 C1185 0.950 . S
H1181 C1186 0.949 . S
H1182 C1188 0.950 . S
H1183 C1189 0.950 . S
H1184 C1190 0.949 . S
C1185 H1180 0.950 . S
C1185 C1187 1.327 . S
C1185 C1191 1.429 . S
C1186 C1178 1.574 . S
C1186 H1181 0.949 . S
C1186 C1192 1.368 . S
C1187 C1171 1.349 . S
C1187 H1179 0.950 . S
C1187 C1185 1.327 . S
C1188 C1176 1.349 . S
C1188 H1182 0.950 . S
C1188 C1189 1.327 . S
C1189 H1183 0.950 . S
C1189 C1188 1.327 . S
C1189 C1193 1.429 . S
C1190 C1173 1.574 . S
C1190 H1184 0.949 . S
C1190 C1194 1.368 . S
C1191 C1172 1.429 . S
C1191 C1185 1.429 . S
C1191 C1192 1.523 . S
C1192 C1173 1.368 . S
C1192 C1186 1.368 . S
C1192 C1191 1.523 . S
C1193 C1177 1.429 . S
C1193 C1189 1.429 . S
C1193 C1194 1.523 . S
C1194 C1178 1.368 . S
C1194 C1190 1.368 . S
C1194 C1193 1.523 . S
H1195 C1170 0.950 . S
H1196 C1172 0.950 . S
H1197 C1173 0.949 . S
H1198 C1175 0.950 . S
H1199 C1177 0.950 . S
C1200 C1201 1.349 . S
C1200 C1202 1.327 . S
C1200 H1225 0.950 . S
C1201 C1200 1.349 . S
C1201 C1217 1.349 . S
C1202 C1200 1.327 . S
C1202 C1221 1.429 . S
C1202 H1226 0.950 . S
C1203 C1220 1.574 . S
C1203 C1222 1.368 . S
C1203 H1227 0.949 . S
H1204 C1208 0.949 . S
C1205 C1206 1.349 . S
C1205 C1207 1.327 . S
C1205 H1228 0.950 . S
C1206 C1205 1.349 . S
C1206 C1218 1.349 . S
C1207 C1205 1.327 . S
C1207 C1223 1.429 . S
C1207 H1229 0.950 . S
C1208 H1204 0.949 . S
C1208 C1216 1.574 . S
C1208 C1224 1.368 . S
H1209 C1217 0.950 . S
H1210 C1215 0.950 . S
H1211 C1216 0.949 . S
H1212 C1218 0.950 . S
H1213 C1219 0.950 . S
H1214 C1220 0.949 . S
C1215 H1210 0.950 . S
C1215 C1217 1.327 . S
C1215 C1221 1.429 . S
C1216 C1208 1.574 . S
C1216 H1211 0.949 . S
C1216 C1222 1.368 . S
C1217 C1201 1.349 . S
C1217 H1209 0.950 . S
C1217 C1215 1.327 . S
C1218 C1206 1.349 . S
C1218 H1212 0.950 . S
C1218 C1219 1.327 . S
C1219 H1213 0.950 . S
C1219 C1218 1.327 . S
C1219 C1223 1.429 . S
C1220 C1203 1.574 . S
C1220 H1214 0.949 . S
C1220 C1224 1.368 . S
C1221 C1202 1.429 . S
C1221 C1215 1.429 . S
C1221 C1222 1.523 . S
C1222 C1203 1.368 . S
C1222 C1216 1.368 . S
C1222 C1221 1.523 . S
C1223 C1207 1.429 . S
C1223 C1219 1.429 . S
C1223 C1224 1.523 . S
C1224 C1208 1.368 . S
C1224 C1220 1.368 . S
C1224 C1223 1.523 . S
H1225 C1200 0.950 . S
H1226 C1202 0.950 . S
H1227 C1203 0.949 . S
H1228 C1205 0.950 . S
H1229 C1207 0.950 . S
C1230 C1231 1.349 . S
C1230 C1232 1.327 . S
C1230 H1255 0.950 . S
C1231 C1230 1.349 . S
C1231 C1247 1.349 . S
C1232 C1230 1.327 . S
C1232 C1251 1.429 . S
C1232 H1256 0.950 . S
C1233 C1250 1.574 . S
C1233 C1252 1.368 . S
C1233 H1257 0.949 . S
H1234 C1238 0.949 . S
C1235 C1236 1.349 . S
C1235 C1237 1.327 . S
C1235 H1258 0.950 . S
C1236 C1235 1.349 . S
C1236 C1248 1.349 . S
C1237 C1235 1.327 . S
C1237 C1253 1.429 . S
C1237 H1259 0.950 . S
C1238 H1234 0.949 . S
C1238 C1246 1.574 . S
C1238 C1254 1.368 . S
H1239 C1247 0.950 . S
H1240 C1245 0.950 . S
H1241 C1246 0.949 . S
H1242 C1248 0.950 . S
H1243 C1249 0.950 . S
H1244 C1250 0.949 . S
C1245 H1240 0.950 . S
C1245 C1247 1.327 . S
C1245 C1251 1.429 . S
C1246 C1238 1.574 . S
C1246 H1241 0.949 . S
C1246 C1252 1.368 . S
C1247 C1231 1.349 . S
C1247 H1239 0.950 . S
C1247 C1245 1.327 . S
C1248 C1236 1.349 . S
C1248 H1242 0.950 . S
C1248 C1249 1.327 . S
C1249 H1243 0.950 . S
C1249 C1248 1.327 . S
C1249 C1253 1.429 . S
C1250 C1233 1.574 . S
C1250 H1244 0.949 . S
C1250 C1254 1.368 . S
C1251 C1232 1.429 . S
C1251 C1245 1.429 . S
C1251 C1252 1.523 . S
C1252 C1233 1.368 . S
C1252 C1246 1.368 . S
C1252 C1251 1.523 . S
C1253 C1237 1.429 . S
C1253 C1249 1.429 . S
C1253 C1254 1.523 . S
C1254 C1238 1.368 . S
C1254 C1250 1.368 . S
C1254 C1253 1.523 . S
H1255 C1230 0.950 . S
H1256 C1232 0.950 . S
H1257 C1233 0.949 . S
H1258 C1235 0.950 . S
H1259 C1237 0.950 . S
C1260 C1261 1.349 . S
C1260 C1262 1.327 . S
C1260 H1285 0.950 . S
C1261 C1260 1.349 . S
C1261 C1277 1.349 . S
C1262 C1260 1.327 . S
C1262 C1281 1.429 . S
C1262 H1286 0.950 . S
C1263 C1280 1.574 . S
C1263 C1282 1.368 . S
C1263 H1287 0.949 . S
H1264 C1268 0.949 . S
C1265 C1266 1.349 . S
C1265 C1267 1.327 . S
C1265 H1288 0.950 . S
C1266 C1265 1.349 . S
C1266 C1278 1.349 . S
C1267 C1265 1.327 . S
C1267 C1283 1.429 . S
C1267 H1289 0.950 . S
C1268 H1264 0.949 . S
C1268 C1276 1.574 . S
C1268 C1284 1.368 . S
H1269 C1277 0.950 . S
H1270 C1275 0.950 . S
H1271 C1276 0.949 . S
H1272 C1278 0.950 . S
H1273 C1279 0.950 . S
H1274 C1280 0.949 . S
C1275 H1270 0.950 . S
C1275 C1277 1.327 . S
C1275 C1281 1.429 . S
C1276 C1268 1.574 . S
C1276 H1271 0.949 . S
C1276 C1282 1.368 . S
C1277 C1261 1.349 . S
C1277 H1269 0.950 . S
C1277 C1275 1.327 . S
C1278 C1266 1.349 . S
C1278 H1272 0.950 . S
C1278 C1279 1.327 . S
C1279 H1273 0.950 . S
C1279 C1278 1.327 . S
C1279 C1283 1.429 . S
C1280 C1263 1.574 . S
C1280 H1274 0.949 . S
C1280 C1284 1.368 . S
C1281 C1262 1.429 . S
C1281 C1275 1.429 . S
C1281 C1282 1.523 . S
C1282 C1263 1.368 . S
C1282 C1276 1.368 . S
C1282 C1281 1.523 . S
C1283 C1267 1.429 . S
C1283 C1279 1.429 . S
C1283 C1284 1.523 . S
C1284 C1268 1.368 . S
C1284 C1280 1.368 . S
C1284 C1283 1.523 . S
H1285 C1260 0.950 . S
H1286 C1262 0.950 . S
H1287 C1263 0.949 . S
H1288 C1265 0.950 . S
H1289 C1267 0.950 . S
C1290 C1291 1.349 . S
C1290 C1292 1.327 . S
C1290 H1315 0.950 . S
C1291 C1290 1.349 . S
C1291 C1307 1.349 . S
C1292 C1290 1.327 . S
C1292 C1311 1.429 . S
C1292 H1316 0.950 . S
C1293 C1310 1.574 . S
C1293 C1312 1.368 . S
C1293 H1317 0.949 . S
H1294 C1298 0.949 . S
C1295 C1296 1.349 . S
C1295 C1297 1.327 . S
C1295 H1318 0.950 . S
C1296 C1295 1.349 . S
C1296 C1308 1.349 . S
C1297 C1295 1.327 . S
C1297 C1313 1.429 . S
C1297 H1319 0.950 . S
C1298 H1294 0.949 . S
C1298 C1306 1.574 . S
C1298 C1314 1.368 . S
H1299 C1307 0.950 . S
H1300 C1305 0.950 . S
H1301 C1306 0.949 . S
H1302 C1308 0.950 . S
H1303 C1309 0.950 . S
H1304 C1310 0.949 . S
C1305 H1300 0.950 . S
C1305 C1307 1.327 . S
C1305 C1311 1.429 . S
C1306 C1298 1.574 . S
C1306 H1301 0.949 . S
C1306 C1312 1.368 . S
C1307 C1291 1.349 . S
C1307 H1299 0.950 . S
C1307 C1305 1.327 . S
C1308 C1296 1.349 . S
C1308 H1302 0.950 . S
C1308 C1309 1.327 . S
C1309 H1303 0.950 . S
C1309 C1308 1.327 . S
C1309 C1313 1.429 . S
C1310 C1293 1.574 . S
C1310 H1304 0.949 . S
C1310 C1314 1.368 . S
C1311 C1292 1.429 . S
C1311 C1305 1.429 . S
C1311 C1312 1.523 . S
C1312 C1293 1.368 . S
C1312 C1306 1.368 . S
C1312 C1311 1.523 . S
C1313 C1297 1.429 . S
C1313 C1309 1.429 . S
C1313 C1314 1.523 . S
C1314 C1298 1.368 . S
C1314 C1310 1.368 . S
C1314 C1313 1.523 . S
H1315 C1290 0.950 . S
H1316 C1292 0.950 . S
H1317 C1293 0.949 . S
H1318 C1295 0.950 . S
H1319 C1297 0.950 . S
C1320 C1321 1.349 . S
C1320 C1322 1.327 . S
C1320 H1345 0.950 . S
C1321 C1320 1.349 . S
C1321 C1337 1.349 . S
C1322 C1320 1.327 . S
C1322 C1341 1.429 . S
C1322 H1346 0.950 . S
C1323 C1340 1.574 . S
C1323 C1342 1.368 . S
C1323 H1347 0.949 . S
H1324 C1328 0.949 . S
C1325 C1326 1.349 . S
C1325 C1327 1.327 . S
C1325 H1348 0.950 . S
C1326 C1325 1.349 . S
C1326 C1338 1.349 . S
C1327 C1325 1.327 . S
C1327 C1343 1.429 . S
C1327 H1349 0.950 . S
C1328 H1324 0.949 . S
C1328 C1336 1.574 . S
C1328 C1344 1.368 . S
H1329 C1337 0.950 . S
H1330 C1335 0.950 . S
H1331 C1336 0.949 . S
H1332 C1338 0.950 . S
H1333 C1339 0.950 . S
H1334 C1340 0.949 . S
C1335 H1330 0.950 . S
C1335 C1337 1.327 . S
C1335 C1341 1.429 . S
C1336 C1328 1.574 . S
C1336 H1331 0.949 . S
C1336 C1342 1.368 . S
C1337 C1321 1.349 . S
C1337 H1329 0.950 . S
C1337 C1335 1.327 . S
C1338 C1326 1.349 . S
C1338 H1332 0.950 . S
C1338 C1339 1.327 . S
C1339 H1333 0.950 . S
C1339 C1338 1.327 . S
C1339 C1343 1.429 . S
C1340 C1323 1.574 . S
C1340 H1334 0.949 . S
C1340 C1344 1.368 . S
C1341 C1322 1.429 . S
C1341 C1335 1.429 . S
C1341 C1342 1.523 . S
C1342 C1323 1.368 . S
C1342 C1336 1.368 . S
C1342 C1341 1.523 . S
C1343 C1327 1.429 . S
C1343 C1339 1.429 . S
C1343 C1344 1.523 . S
C1344 C1328 1.368 . S
C1344 C1340 1.368 . S
C1344 C1343 1.523 . S
H1345 C1320 0.950 . S
H1346 C1322 0.950 . S
H1347 C1323 0.949 . S
H1348 C1325 0.950 . S
H1349 C1327 0.950 . S
C1350 C1351 1.349 . S
C1350 C1352 1.327 . S
C1350 H1375 0.950 . S
C1351 C1350 1.349 . S
C1351 C1367 1.349 . S
C1352 C1350 1.327 . S
C1352 C1371 1.429 . S
C1352 H1376 0.950 . S
C1353 C1370 1.574 . S
C1353 C1372 1.368 . S
C1353 H1377 0.949 . S
H1354 C1358 0.949 1_545 S
C1355 C1356 1.349 . S
C1355 C1357 1.327 . S
C1355 H1378 0.950 . S
C1356 C1355 1.349 . S
C1356 C1368 1.349 1_565 S
C1357 C1355 1.327 . S
C1357 C1373 1.429 . S
C1357 H1379 0.950 . S
C1358 H1354 0.949 1_565 S
C1358 C1366 1.574 . S
C1358 C1374 1.368 . S
H1359 C1367 0.950 . S
H1360 C1365 0.950 . S
H1361 C1366 0.949 . S
H1362 C1368 0.950 . S
H1363 C1369 0.950 . S
H1364 C1370 0.949 . S
C1365 H1360 0.950 . S
C1365 C1367 1.327 . S
C1365 C1371 1.429 . S
C1366 C1358 1.574 . S
C1366 H1361 0.949 . S
C1366 C1372 1.368 . S
C1367 C1351 1.349 . S
C1367 H1359 0.950 . S
C1367 C1365 1.327 . S
C1368 C1356 1.349 1_545 S
C1368 H1362 0.950 . S
C1368 C1369 1.327 . S
C1369 H1363 0.950 . S
C1369 C1368 1.327 . S
C1369 C1373 1.429 1_545 S
C1370 C1353 1.574 . S
C1370 H1364 0.949 . S
C1370 C1374 1.368 . S
C1371 C1352 1.429 . S
C1371 C1365 1.429 . S
C1371 C1372 1.523 . S
C1372 C1353 1.368 . S
C1372 C1366 1.368 . S
C1372 C1371 1.523 . S
C1373 C1357 1.429 . S
C1373 C1369 1.429 1_565 S
C1373 C1374 1.523 . S
C1374 C1358 1.368 . S
C1374 C1370 1.368 . S
C1374 C1373 1.523 . S
H1375 C1350 0.950 . S
H1376 C1352 0.950 . S
H1377 C1353 0.949 . S
H1378 C1355 0.950 . S
H1379 C1357 0.950 . S
C1380 C1381 1.349 . S
C1380 C1382 1.327 . S
C1380 H1405 0.950 . S
C1381 C1380 1.349 . S
C1381 C1397 1.349 . S
C1382 C1380 1.327 . S
C1382 C1401 1.429 . S
C1382 H1406 0.950 . S
C1383 C1400 1.574 . S
C1383 C1402 1.368 . S
C1383 H1407 0.949 . S
H1384 C1388 0.949 . S
C1385 C1386 1.349 . S
C1385 C1387 1.327 . S
C1385 H1408 0.950 . S
C1386 C1385 1.349 . S
C1386 C1398 1.349 . S
C1387 C1385 1.327 . S
C1387 C1403 1.429 . S
C1387 H1409 0.950 . S
C1388 H1384 0.949 . S
C1388 C1396 1.574 . S
C1388 C1404 1.368 . S
H1389 C1397 0.950 . S
H1390 C1395 0.950 . S
H1391 C1396 0.949 . S
H1392 C1398 0.950 . S
H1393 C1399 0.950 . S
H1394 C1400 0.949 . S
C1395 H1390 0.950 . S
C1395 C1397 1.327 . S
C1395 C1401 1.429 . S
C1396 C1388 1.574 . S
C1396 H1391 0.949 . S
C1396 C1402 1.368 . S
C1397 C1381 1.349 . S
C1397 H1389 0.950 . S
C1397 C1395 1.327 . S
C1398 C1386 1.349 . S
C1398 H1392 0.950 . S
C1398 C1399 1.327 . S
C1399 H1393 0.950 . S
C1399 C1398 1.327 . S
C1399 C1403 1.429 . S
C1400 C1383 1.574 . S
C1400 H1394 0.949 . S
C1400 C1404 1.368 . S
C1401 C1382 1.429 . S
C1401 C1395 1.429 . S
C1401 C1402 1.523 . S
C1402 C1383 1.368 . S
C1402 C1396 1.368 . S
C1402 C1401 1.523 . S
C1403 C1387 1.429 . S
C1403 C1399 1.429 . S
C1403 C1404 1.523 . S
C1404 C1388 1.368 . S
C1404 C1400 1.368 . S
C1404 C1403 1.523 . S
H1405 C1380 0.950 . S
H1406 C1382 0.950 . S
H1407 C1383 0.949 . S
H1408 C1385 0.950 . S
H1409 C1387 0.950 . S
C1410 C1411 1.349 . S
C1410 C1412 1.327 . S
C1410 H1435 0.950 . S
C1411 C1410 1.349 . S
C1411 C1427 1.349 . S
C1412 C1410 1.327 . S
C1412 C1431 1.429 . S
C1412 H1436 0.950 . S
C1413 C1430 1.574 . S
C1413 C1432 1.368 . S
C1413 H1437 0.949 . S
H1414 C1418 0.949 . S
C1415 C1416 1.349 . S
C1415 C1417 1.327 . S
C1415 H1438 0.950 . S
C1416 C1415 1.349 . S
C1416 C1428 1.349 . S
C1417 C1415 1.327 . S
C1417 C1433 1.429 . S
C1417 H1439 0.950 . S
C1418 H1414 0.949 . S
C1418 C1426 1.574 . S
C1418 C1434 1.368 . S
H1419 C1427 0.950 . S
H1420 C1425 0.950 . S
H1421 C1426 0.949 . S
H1422 C1428 0.950 . S
H1423 C1429 0.950 . S
H1424 C1430 0.949 . S
C1425 H1420 0.950 . S
C1425 C1427 1.327 . S
C1425 C1431 1.429 . S
C1426 C1418 1.574 . S
C1426 H1421 0.949 . S
C1426 C1432 1.368 . S
C1427 C1411 1.349 . S
C1427 H1419 0.950 . S
C1427 C1425 1.327 . S
C1428 C1416 1.349 . S
C1428 H1422 0.950 . S
C1428 C1429 1.327 . S
C1429 H1423 0.950 . S
C1429 C1428 1.327 . S
C1429 C1433 1.429 . S
C1430 C1413 1.574 . S
C1430 H1424 0.949 . S
C1430 C1434 1.368 . S
C1431 C1412 1.429 . S
C1431 C1425 1.429 . S
C1431 C1432 1.523 . S
C1432 C1413 1.368 . S
C1432 C1426 1.368 . S
C1432 C1431 1.523 . S
C1433 C1417 1.429 . S
C1433 C1429 1.429 . S
C1433 C1434 1.523 . S
C1434 C1418 1.368 . S
C1434 C1430 1.368 . S
C1434 C1433 1.523 . S
H1435 C1410 0.950 . S
H1436 C1412 0.950 . S
H1437 C1413 0.949 . S
H1438 C1415 0.950 . S
H1439 C1417 0.950 . S
C1440 C1441 1.349 1_455 S
C1440 C1442 1.327 . S
C1440 H1465 0.950 . S
C1441 C1440 1.349 1_655 S
C1441 C1457 1.349 . S
C1442 C1440 1.327 . S
C1442 C1461 1.429 1_455 S
C1442 H1466 0.950 . S
C1443 C1460 1.574 . S
C1443 C1462 1.368 . S
C1443 H1467 0.949 . S
H1444 C1448 0.949 . S
C1445 C1446 1.349 . S
C1445 C1447 1.327 . S
C1445 H1468 0.950 . S
C1446 C1445 1.349 . S
C1446 C1458 1.349 . S
C1447 C1445 1.327 . S
C1447 C1463 1.429 . S
C1447 H1469 0.950 . S
C1448 H1444 0.949 . S
C1448 C1456 1.574 . S
C1448 C1464 1.368 . S
H1449 C1457 0.950 . S
H1450 C1455 0.950 . S
H1451 C1456 0.949 1_455 S
H1452 C1458 0.950 . S
H1453 C1459 0.950 . S
H1454 C1460 0.949 . S
C1455 H1450 0.950 . S
C1455 C1457 1.327 . S
C1455 C1461 1.429 . S
C1456 C1448 1.574 . S
C1456 H1451 0.949 1_655 S
C1456 C1462 1.368 . S
C1457 C1441 1.349 . S
C1457 H1449 0.950 . S
C1457 C1455 1.327 . S
C1458 C1446 1.349 . S
C1458 H1452 0.950 . S
C1458 C1459 1.327 . S
C1459 H1453 0.950 . S
C1459 C1458 1.327 . S
C1459 C1463 1.429 . S
C1460 C1443 1.574 . S
C1460 H1454 0.949 . S
C1460 C1464 1.368 . S
C1461 C1442 1.429 1_655 S
C1461 C1455 1.429 . S
C1461 C1462 1.523 . S
C1462 C1443 1.368 . S
C1462 C1456 1.368 . S
C1462 C1461 1.523 . S
C1463 C1447 1.429 . S
C1463 C1459 1.429 . S
C1463 C1464 1.523 . S
C1464 C1448 1.368 . S
C1464 C1460 1.368 . S
C1464 C1463 1.523 . S
H1465 C1440 0.950 . S
H1466 C1442 0.950 . S
H1467 C1443 0.949 . S
H1468 C1445 0.950 . S
H1469 C1447 0.950 . S
C1470 C1471 1.349 . S
C1470 C1472 1.327 . S
C1470 H1495 0.950 . S
C1471 C1470 1.349 . S
C1471 C1487 1.349 . S
C1472 C1470 1.327 . S
C1472 C1491 1.429 . S
C1472 H1496 0.950 . S
C1473 C1490 1.574 . S
C1473 C1492 1.368 . S
C1473 H1497 0.949 . S
H1474 C1478 0.949 . S
C1475 C1476 1.349 . S
C1475 C1477 1.327 . S
C1475 H1498 0.950 . S
C1476 C1475 1.349 . S
C1476 C1488 1.349 . S
C1477 C1475 1.327 . S
C1477 C1493 1.429 . S
C1477 H1499 0.950 . S
C1478 H1474 0.949 . S
C1478 C1486 1.574 . S
C1478 C1494 1.368 . S
H1479 C1487 0.950 . S
H1480 C1485 0.950 . S
H1481 C1486 0.949 . S
H1482 C1488 0.950 . S
H1483 C1489 0.950 . S
H1484 C1490 0.949 . S
C1485 H1480 0.950 . S
C1485 C1487 1.327 . S
C1485 C1491 1.429 . S
C1486 C1478 1.574 . S
C1486 H1481 0.949 . S
C1486 C1492 1.368 . S
C1487 C1471 1.349 . S
C1487 H1479 0.950 . S
C1487 C1485 1.327 . S
C1488 C1476 1.349 . S
C1488 H1482 0.950 . S
C1488 C1489 1.327 . S
C1489 H1483 0.950 . S
C1489 C1488 1.327 . S
C1489 C1493 1.429 . S
C1490 C1473 1.574 . S
C1490 H1484 0.949 . S
C1490 C1494 1.368 . S
C1491 C1472 1.429 . S
C1491 C1485 1.429 . S
C1491 C1492 1.523 . S
C1492 C1473 1.368 . S
C1492 C1486 1.368 . S
C1492 C1491 1.523 . S
C1493 C1477 1.429 . S
C1493 C1489 1.429 . S
C1493 C1494 1.523 . S
C1494 C1478 1.368 . S
C1494 C1490 1.368 . S
C1494 C1493 1.523 . S
H1495 C1470 0.950 . S
H1496 C1472 0.950 . S
H1497 C1473 0.949 . S
H1498 C1475 0.950 . S
H1499 C1477 0.950 . S
C1500 C1501 1.349 . S
C1500 C1502 1.327 . S
C1500 H1525 0.950 . S
C1501 C1500 1.349 . S
C1501 C1517 1.349 . S
C1502 C1500 1.327 . S
C1502 C1521 1.429 . S
C1502 H1526 0.950 . S
C1503 C1520 1.574 . S
C1503 C1522 1.368 . S
C1503 H1527 0.949 . S
H1504 C1508 0.949 . S
C1505 C1506 1.349 . S
C1505 C1507 1.327 . S
C1505 H1528 0.950 . S
C1506 C1505 1.349 . S
C1506 C1518 1.349 . S
C1507 C1505 1.327 . S
C1507 C1523 1.429 . S
C1507 H1529 0.950 . S
C1508 H1504 0.949 . S
C1508 C1516 1.574 . S
C1508 C1524 1.368 . S
H1509 C1517 0.950 . S
H1510 C1515 0.950 . S
H1511 C1516 0.949 . S
H1512 C1518 0.950 . S
H1513 C1519 0.950 . S
H1514 C1520 0.949 . S
C1515 H1510 0.950 . S
C1515 C1517 1.327 . S
C1515 C1521 1.429 . S
C1516 C1508 1.574 . S
C1516 H1511 0.949 . S
C1516 C1522 1.368 . S
C1517 C1501 1.349 . S
C1517 H1509 0.950 . S
C1517 C1515 1.327 . S
C1518 C1506 1.349 . S
C1518 H1512 0.950 . S
C1518 C1519 1.327 . S
C1519 H1513 0.950 . S
C1519 C1518 1.327 . S
C1519 C1523 1.429 . S
C1520 C1503 1.574 . S
C1520 H1514 0.949 . S
C1520 C1524 1.368 . S
C1521 C1502 1.429 . S
C1521 C1515 1.429 . S
C1521 C1522 1.523 . S
C1522 C1503 1.368 . S
C1522 C1516 1.368 . S
C1522 C1521 1.523 . S
C1523 C1507 1.429 . S
C1523 C1519 1.429 . S
C1523 C1524 1.523 . S
C1524 C1508 1.368 . S
C1524 C1520 1.368 . S
C1524 C1523 1.523 . S
H1525 C1500 0.950 . S
H1526 C1502 0.950 . S
H1527 C1503 0.949 . S
H1528 C1505 0.950 . S
H1529 C1507 0.950 . S
C1530 C1531 1.349 . S
C1530 C1532 1.327 . S
C1530 H1555 0.950 . S
C1531 C1530 1.349 . S
C1531 C1547 1.349 . S
C1532 C1530 1.327 . S
C1532 C1551 1.429 . S
C1532 H1556 0.950 1_655 S
C1533 C1550 1.574 1_655 S
C1533 C1552 1.363 1_655 S
C1533 H1557 0.949 . S
H1534 C1538 0.949 . S
C1535 C1536 1.349 . S
C1535 C1537 1.327 . S
C1535 H1558 0.950 . S
C1536 C1535 1.349 . S
C1536 C1548 1.349 . S
C1537 C1535 1.327 . S
C1537 C1553 1.429 . S
C1537 H1559 0.950 . S
C1538 H1534 0.949 . S
C1538 C1546 1.574 . S
C1538 C1554 1.368 . S
H1539 C1547 0.950 . S
H1540 C1545 0.950 . S
H1541 C1546 0.949 . S
H1542 C1548 0.950 . S
H1543 C1549 0.950 . S
H1544 C1550 0.955 . S
C1545 H1540 0.950 . S
C1545 C1547 1.327 . S
C1545 C1551 1.429 . S
C1546 C1538 1.574 . S
C1546 H1541 0.949 . S
C1546 C1552 1.381 . S
C1547 C1531 1.349 . S
C1547 H1539 0.950 . S
C1547 C1545 1.327 . S
C1548 C1536 1.349 . S
C1548 H1542 0.950 . S
C1548 C1549 1.327 . S
C1549 H1543 0.950 . S
C1549 C1548 1.327 . S
C1549 C1553 1.429 . S
C1550 C1533 1.574 1_455 S
C1550 H1544 0.955 . S
C1550 C1554 1.368 . S
C1551 C1532 1.429 . S
C1551 C1545 1.429 . S
C1551 C1552 1.514 1_655 S
C1552 C1533 1.363 1_455 S
C1552 C1546 1.381 . S
C1552 C1551 1.514 1_455 S
C1553 C1537 1.429 . S
C1553 C1549 1.429 . S
C1553 C1554 1.523 . S
C1554 C1538 1.368 . S
C1554 C1550 1.368 . S
C1554 C1553 1.523 . S
H1555 C1530 0.950 . S
H1556 C1532 0.950 1_455 S
H1557 C1533 0.949 . S
H1558 C1535 0.950 . S
H1559 C1537 0.950 . S
C1560 C1561 1.349 . S
C1560 C1562 1.327 . S
C1560 H1585 0.950 . S
C1561 C1560 1.349 . S
C1561 C1577 1.349 . S
C1562 C1560 1.327 . S
C1562 C1581 1.429 . S
C1562 H1586 0.950 . S
C1563 C1580 1.574 . S
C1563 C1582 1.368 . S
C1563 H1587 0.949 . S
H1564 C1568 0.949 . S
C1565 C1566 1.349 . S
C1565 C1567 1.327 . S
C1565 H1588 0.950 . S
C1566 C1565 1.349 . S
C1566 C1578 1.349 . S
C1567 C1565 1.327 . S
C1567 C1583 1.429 . S
C1567 H1589 0.950 . S
C1568 H1564 0.949 . S
C1568 C1576 1.574 . S
C1568 C1584 1.368 . S
H1569 C1577 0.950 . S
H1570 C1575 0.950 . S
H1571 C1576 0.949 . S
H1572 C1578 0.950 . S
H1573 C1579 0.950 . S
H1574 C1580 0.949 . S
C1575 H1570 0.950 . S
C1575 C1577 1.327 . S
C1575 C1581 1.429 . S
C1576 C1568 1.574 . S
C1576 H1571 0.949 . S
C1576 C1582 1.368 . S
C1577 C1561 1.349 . S
C1577 H1569 0.950 . S
C1577 C1575 1.327 . S
C1578 C1566 1.349 . S
C1578 H1572 0.950 . S
C1578 C1579 1.327 . S
C1579 H1573 0.950 . S
C1579 C1578 1.327 . S
C1579 C1583 1.429 . S
C1580 C1563 1.574 . S
C1580 H1574 0.949 . S
C1580 C1584 1.368 . S
C1581 C1562 1.429 . S
C1581 C1575 1.429 . S
C1581 C1582 1.523 . S
C1582 C1563 1.368 . S
C1582 C1576 1.368 . S
C1582 C1581 1.523 . S
C1583 C1567 1.429 . S
C1583 C1579 1.429 . S
C1583 C1584 1.523 . S
C1584 C1568 1.368 . S
C1584 C1580 1.368 . S
C1584 C1583 1.523 . S
H1585 C1560 0.950 . S
H1586 C1562 0.950 . S
H1587 C1563 0.949 . S
H1588 C1565 0.950 . S
H1589 C1567 0.950 . S
C1590 C1591 1.349 . S
C1590 C1592 1.327 . S
C1590 H1615 0.950 . S
C1591 C1590 1.349 . S
C1591 C1607 1.349 . S
C1592 C1590 1.327 . S
C1592 C1611 1.429 . S
C1592 H1616 0.950 1_565 S
C1593 C1610 1.574 1_565 S
C1593 C1612 1.358 1_565 S
C1593 H1617 0.949 . S
H1594 C1598 0.949 . S
C1595 C1596 1.349 . S
C1595 C1597 1.327 . S
C1595 H1618 0.950 . S
C1596 C1595 1.349 . S
C1596 C1608 1.349 . S
C1597 C1595 1.327 . S
C1597 C1613 1.429 . S
C1597 H1619 0.950 . S
C1598 H1594 0.949 . S
C1598 C1606 1.574 . S
C1598 C1614 1.368 . S
H1599 C1607 0.950 . S
H1600 C1605 0.950 . S
H1601 C1606 0.949 . S
H1602 C1608 0.950 . S
H1603 C1609 0.950 . S
H1604 C1610 0.949 . S
C1605 H1600 0.950 . S
C1605 C1607 1.327 . S
C1605 C1611 1.429 . S
C1606 C1598 1.574 . S
C1606 H1601 0.949 . S
C1606 C1612 1.386 . S
C1607 C1591 1.349 . S
C1607 H1599 0.950 . S
C1607 C1605 1.327 . S
C1608 C1596 1.349 . S
C1608 H1602 0.950 . S
C1608 C1609 1.327 . S
C1609 H1603 0.950 . S
C1609 C1608 1.327 . S
C1609 C1613 1.429 . S
C1610 C1593 1.574 1_545 S
C1610 H1604 0.949 . S
C1610 C1614 1.368 . S
C1611 C1592 1.429 . S
C1611 C1605 1.429 . S
C1611 C1612 1.514 1_565 S
C1612 C1593 1.358 1_545 S
C1612 C1606 1.386 . S
C1612 C1611 1.514 1_545 S
C1613 C1597 1.429 . S
C1613 C1609 1.429 . S
C1613 C1614 1.523 . S
C1614 C1598 1.368 . S
C1614 C1610 1.368 . S
C1614 C1613 1.523 . S
H1615 C1590 0.950 . S
H1616 C1592 0.950 1_545 S
H1617 C1593 0.949 . S
H1618 C1595 0.950 . S
H1619 C1597 0.950 . S
C1620 C1621 1.349 . S
C1620 C1622 1.327 . S
C1620 H1645 0.950 . S
C1621 C1620 1.349 . S
C1621 C1637 1.349 . S
C1622 C1620 1.327 . S
C1622 C1641 1.429 . S
C1622 H1646 0.950 . S
C1623 C1640 1.574 . S
C1623 C1642 1.368 . S
C1623 H1647 0.949 . S
H1624 C1628 0.949 . S
C1625 C1626 1.349 . S
C1625 C1627 1.327 . S
C1625 H1648 0.950 . S
C1626 C1625 1.349 . S
C1626 C1638 1.349 . S
C1627 C1625 1.327 . S
C1627 C1643 1.429 . S
C1627 H1649 0.950 . S
C1628 H1624 0.949 . S
C1628 C1636 1.574 . S
C1628 C1644 1.368 . S
H1629 C1637 0.950 . S
H1630 C1635 0.950 . S
H1631 C1636 0.949 . S
H1632 C1638 0.950 . S
H1633 C1639 0.950 . S
H1634 C1640 0.949 . S
C1635 H1630 0.950 . S
C1635 C1637 1.327 . S
C1635 C1641 1.429 . S
C1636 C1628 1.574 . S
C1636 H1631 0.949 . S
C1636 C1642 1.368 . S
C1637 C1621 1.349 . S
C1637 H1629 0.950 . S
C1637 C1635 1.327 . S
C1638 C1626 1.349 . S
C1638 H1632 0.950 . S
C1638 C1639 1.327 . S
C1639 H1633 0.950 . S
C1639 C1638 1.327 . S
C1639 C1643 1.429 . S
C1640 C1623 1.574 . S
C1640 H1634 0.949 . S
C1640 C1644 1.368 . S
C1641 C1622 1.429 . S
C1641 C1635 1.429 . S
C1641 C1642 1.523 . S
C1642 C1623 1.368 . S
C1642 C1636 1.368 . S
C1642 C1641 1.523 . S
C1643 C1627 1.429 . S
C1643 C1639 1.429 . S
C1643 C1644 1.523 . S
C1644 C1628 1.368 . S
C1644 C1640 1.368 . S
C1644 C1643 1.523 . S
H1645 C1620 0.950 . S
H1646 C1622 0.950 . S
H1647 C1623 0.949 . S
H1648 C1625 0.950 . S
H1649 C1627 0.950 . S
C1650 C1651 1.349 . S
C1650 C1652 1.327 . S
C1650 H1675 0.950 . S
C1651 C1650 1.349 . S
C1651 C1667 1.349 . S
C1652 C1650 1.327 . S
C1652 C1671 1.429 . S
C1652 H1676 0.950 . S
C1653 C1670 1.574 . S
C1653 C1672 1.368 . S
C1653 H1677 0.949 . S
H1654 C1658 0.949 . S
C1655 C1656 1.349 . S
C1655 C1657 1.327 . S
C1655 H1678 0.950 . S
C1656 C1655 1.349 . S
C1656 C1668 1.349 . S
C1657 C1655 1.327 . S
C1657 C1673 1.429 . S
C1657 H1679 0.950 . S
C1658 H1654 0.949 . S
C1658 C1666 1.574 . S
C1658 C1674 1.368 . S
H1659 C1667 0.950 . S
H1660 C1665 0.950 . S
H1661 C1666 0.949 . S
H1662 C1668 0.950 . S
H1663 C1669 0.950 . S
H1664 C1670 0.949 . S
C1665 H1660 0.950 . S
C1665 C1667 1.327 . S
C1665 C1671 1.429 . S
C1666 C1658 1.574 . S
C1666 H1661 0.949 . S
C1666 C1672 1.368 . S
C1667 C1651 1.349 . S
C1667 H1659 0.950 . S
C1667 C1665 1.327 . S
C1668 C1656 1.349 . S
C1668 H1662 0.950 . S
C1668 C1669 1.327 . S
C1669 H1663 0.950 . S
C1669 C1668 1.327 . S
C1669 C1673 1.429 . S
C1670 C1653 1.574 . S
C1670 H1664 0.949 . S
C1670 C1674 1.368 . S
C1671 C1652 1.429 . S
C1671 C1665 1.429 . S
C1671 C1672 1.523 . S
C1672 C1653 1.368 . S
C1672 C1666 1.368 . S
C1672 C1671 1.523 . S
C1673 C1657 1.429 . S
C1673 C1669 1.429 . S
C1673 C1674 1.523 . S
C1674 C1658 1.368 . S
C1674 C1670 1.368 . S
C1674 C1673 1.523 . S
H1675 C1650 0.950 . S
H1676 C1652 0.950 . S
H1677 C1653 0.949 . S
H1678 C1655 0.950 . S
H1679 C1657 0.950 . S
C1680 C1681 1.349 . S
C1680 C1682 1.327 . S
C1680 H1705 0.950 . S
C1681 C1680 1.349 . S
C1681 C1697 1.349 . S
C1682 C1680 1.327 . S
C1682 C1701 1.429 . S
C1682 H1706 0.950 . S
C1683 C1700 1.574 . S
C1683 C1702 1.368 . S
C1683 H1707 0.949 . S
H1684 C1688 0.949 . S
C1685 C1686 1.349 . S
C1685 C1687 1.327 . S
C1685 H1708 0.950 . S
C1686 C1685 1.349 . S
C1686 C1698 1.349 . S
C1687 C1685 1.327 . S
C1687 C1703 1.429 . S
C1687 H1709 0.950 . S
C1688 H1684 0.949 . S
C1688 C1696 1.574 . S
C1688 C1704 1.368 . S
H1689 C1697 0.950 . S
H1690 C1695 0.950 . S
H1691 C1696 0.949 . S
H1692 C1698 0.950 . S
H1693 C1699 0.950 . S
H1694 C1700 0.949 . S
C1695 H1690 0.950 . S
C1695 C1697 1.327 . S
C1695 C1701 1.429 . S
C1696 C1688 1.574 . S
C1696 H1691 0.949 . S
C1696 C1702 1.368 . S
C1697 C1681 1.349 . S
C1697 H1689 0.950 . S
C1697 C1695 1.327 . S
C1698 C1686 1.349 . S
C1698 H1692 0.950 . S
C1698 C1699 1.327 . S
C1699 H1693 0.950 . S
C1699 C1698 1.327 . S
C1699 C1703 1.429 . S
C1700 C1683 1.574 . S
C1700 H1694 0.949 . S
C1700 C1704 1.368 . S
C1701 C1682 1.429 . S
C1701 C1695 1.429 . S
C1701 C1702 1.523 . S
C1702 C1683 1.368 . S
C1702 C1696 1.368 . S
C1702 C1701 1.523 . S
C1703 C1687 1.429 . S
C1703 C1699 1.429 . S
C1703 C1704 1.523 . S
C1704 C1688 1.368 . S
C1704 C1700 1.368 . S
C1704 C1703 1.523 . S
H1705 C1680 0.950 . S
H1706 C1682 0.950 . S
H1707 C1683 0.949 . S
H1708 C1685 0.950 . S
H1709 C1687 0.950 . S
C1710 C1711 1.349 . S
C1710 C1712 1.327 . S
C1710 H1735 0.950 . S
C1711 C1710 1.349 . S
C1711 C1727 1.349 . S
C1712 C1710 1.327 . S
C1712 C1731 1.429 . S
C1712 H1736 0.950 . S
C1713 C1730 1.574 . S
C1713 C1732 1.368 . S
C1713 H1737 0.949 . S
H1714 C1718 0.949 . S
C1715 C1716 1.349 . S
C1715 C1717 1.327 . S
C1715 H1738 0.950 . S
C1716 C1715 1.349 . S
C1716 C1728 1.349 . S
C1717 C1715 1.327 . S
C1717 C1733 1.429 . S
C1717 H1739 0.950 . S
C1718 H1714 0.949 . S
C1718 C1726 1.574 . S
C1718 C1734 1.368 . S
H1719 C1727 0.950 . S
H1720 C1725 0.950 . S
H1721 C1726 0.949 . S
H1722 C1728 0.950 . S
H1723 C1729 0.950 . S
H1724 C1730 0.949 . S
C1725 H1720 0.950 . S
C1725 C1727 1.327 . S
C1725 C1731 1.429 . S
C1726 C1718 1.574 . S
C1726 H1721 0.949 . S
C1726 C1732 1.368 . S
C1727 C1711 1.349 . S
C1727 H1719 0.950 . S
C1727 C1725 1.327 . S
C1728 C1716 1.349 . S
C1728 H1722 0.950 . S
C1728 C1729 1.327 . S
C1729 H1723 0.950 . S
C1729 C1728 1.327 . S
C1729 C1733 1.429 . S
C1730 C1713 1.574 . S
C1730 H1724 0.949 . S
C1730 C1734 1.368 . S
C1731 C1712 1.429 . S
C1731 C1725 1.429 . S
C1731 C1732 1.523 . S
C1732 C1713 1.368 . S
C1732 C1726 1.368 . S
C1732 C1731 1.523 . S
C1733 C1717 1.429 . S
C1733 C1729 1.429 . S
C1733 C1734 1.523 . S
C1734 C1718 1.368 . S
C1734 C1730 1.368 . S
C1734 C1733 1.523 . S
H1735 C1710 0.950 . S
H1736 C1712 0.950 . S
H1737 C1713 0.949 . S
H1738 C1715 0.950 . S
H1739 C1717 0.950 . S
C1740 C1741 1.349 . S
C1740 C1742 1.327 . S
C1740 H1765 0.950 . S
C1741 C1740 1.349 . S
C1741 C1757 1.349 . S
C1742 C1740 1.327 . S
C1742 C1761 1.429 . S
C1742 H1766 0.950 . S
C1743 C1760 1.574 . S
C1743 C1762 1.368 . S
C1743 H1767 0.949 . S
H1744 C1748 0.949 . S
C1745 C1746 1.349 . S
C1745 C1747 1.327 . S
C1745 H1768 0.950 . S
C1746 C1745 1.349 . S
C1746 C1758 1.349 . S
C1747 C1745 1.327 . S
C1747 C1763 1.429 . S
C1747 H1769 0.950 . S
C1748 H1744 0.949 . S
C1748 C1756 1.574 . S
C1748 C1764 1.368 . S
H1749 C1757 0.950 . S
H1750 C1755 0.950 . S
H1751 C1756 0.949 . S
H1752 C1758 0.950 . S
H1753 C1759 0.950 . S
H1754 C1760 0.949 . S
C1755 H1750 0.950 . S
C1755 C1757 1.327 . S
C1755 C1761 1.429 . S
C1756 C1748 1.574 . S
C1756 H1751 0.949 . S
C1756 C1762 1.368 . S
C1757 C1741 1.349 . S
C1757 H1749 0.950 . S
C1757 C1755 1.327 . S
C1758 C1746 1.349 . S
C1758 H1752 0.950 . S
C1758 C1759 1.327 . S
C1759 H1753 0.950 . S
C1759 C1758 1.327 . S
C1759 C1763 1.429 . S
C1760 C1743 1.574 . S
C1760 H1754 0.949 . S
C1760 C1764 1.368 . S
C1761 C1742 1.429 . S
C1761 C1755 1.429 . S
C1761 C1762 1.523 . S
C1762 C1743 1.368 . S
C1762 C1756 1.368 . S
C1762 C1761 1.523 . S
C1763 C1747 1.429 . S
C1763 C1759 1.429 . S
C1763 C1764 1.523 . S
C1764 C1748 1.368 . S
C1764 C1760 1.368 . S
C1764 C1763 1.523 . S
H1765 C1740 0.950 . S
H1766 C1742 0.950 . S
H1767 C1743 0.949 . S
H1768 C1745 0.950 . S
H1769 C1747 0.950 . S
C1770 C1771 1.349 . S
C1770 C1772 1.327 . S
C1770 H1795 0.950 . S
C1771 C1770 1.349 . S
C1771 C1787 1.349 . S
C1772 C1770 1.327 . S
C1772 C1791 1.429 . S
C1772 H1796 0.950 . S
C1773 C1790 1.574 . S
C1773 C1792 1.368 . S
C1773 H1797 0.949 . S
H1774 C1778 0.949 . S
C1775 C1776 1.349 . S
C1775 C1777 1.327 . S
C1775 H1798 0.950 . S
C1776 C1775 1.349 . S
C1776 C1788 1.349 . S
C1777 C1775 1.327 . S
C1777 C1793 1.429 . S
C1777 H1799 0.950 . S
C1778 H1774 0.949 . S
C1778 C1786 1.574 . S
C1778 C1794 1.368 . S
H1779 C1787 0.950 . S
H1780 C1785 0.950 . S
H1781 C1786 0.949 . S
H1782 C1788 0.950 . S
H1783 C1789 0.950 . S
H1784 C1790 0.949 . S
C1785 H1780 0.950 . S
C1785 C1787 1.327 . S
C1785 C1791 1.429 . S
C1786 C1778 1.574 . S
C1786 H1781 0.949 . S
C1786 C1792 1.368 . S
C1787 C1771 1.349 . S
C1787 H1779 0.950 . S
C1787 C1785 1.327 . S
C1788 C1776 1.349 . S
C1788 H1782 0.950 . S
C1788 C1789 1.327 . S
C1789 H1783 0.950 . S
C1789 C1788 1.327 . S
C1789 C1793 1.429 . S
C1790 C1773 1.574 . S
C1790 H1784 0.949 . S
C1790 C1794 1.368 . S
C1791 C1772 1.429 . S
C1791 C1785 1.429 . S
C1791 C1792 1.523 . S
C1792 C1773 1.368 . S
C1792 C1786 1.368 . S
C1792 C1791 1.523 . S
C1793 C1777 1.429 . S
C1793 C1789 1.429 . S
C1793 C1794 1.523 . S
C1794 C1778 1.368 . S
C1794 C1790 1.368 . S
C1794 C1793 1.523 . S
H1795 C1770 0.950 . S
H1796 C1772 0.950 . S
H1797 C1773 0.949 . S
H1798 C1775 0.950 . S
H1799 C1777 0.950 . S
C1800 C1801 1.349 . S
C1800 C1802 1.327 . S
C1800 H1825 0.950 . S
C1801 C1800 1.349 . S
C1801 C1817 1.349 . S
C1802 C1800 1.327 . S
C1802 C1821 1.429 . S
C1802 H1826 0.950 . S
C1803 C1820 1.574 . S
C1803 C1822 1.368 . S
C1803 H1827 0.949 . S
H1804 C1808 0.949 . S
C1805 C1806 1.349 . S
C1805 C1807 1.327 . S
C1805 H1828 0.950 . S
C1806 C1805 1.349 . S
C1806 C1818 1.349 . S
C1807 C1805 1.327 . S
C1807 C1823 1.429 . S
C1807 H1829 0.950 . S
C1808 H1804 0.949 . S
C1808 C1816 1.574 . S
C1808 C1824 1.368 . S
H1809 C1817 0.950 . S
H1810 C1815 0.950 . S
H1811 C1816 0.949 . S
H1812 C1818 0.950 . S
H1813 C1819 0.950 . S
H1814 C1820 0.949 . S
C1815 H1810 0.950 . S
C1815 C1817 1.327 . S
C1815 C1821 1.429 . S
C1816 C1808 1.574 . S
C1816 H1811 0.949 . S
C1816 C1822 1.368 . S
C1817 C1801 1.349 . S
C1817 H1809 0.950 . S
C1817 C1815 1.327 . S
C1818 C1806 1.349 . S
C1818 H1812 0.950 . S
C1818 C1819 1.327 . S
C1819 H1813 0.950 . S
C1819 C1818 1.327 . S
C1819 C1823 1.429 . S
C1820 C1803 1.574 . S
C1820 H1814 0.949 . S
C1820 C1824 1.368 . S
C1821 C1802 1.429 . S
C1821 C1815 1.429 . S
C1821 C1822 1.523 . S
C1822 C1803 1.368 . S
C1822 C1816 1.368 . S
C1822 C1821 1.523 . S
C1823 C1807 1.429 . S
C1823 C1819 1.429 . S
C1823 C1824 1.523 . S
C1824 C1808 1.368 . S
C1824 C1820 1.368 . S
C1824 C1823 1.523 . S
H1825 C1800 0.950 . S
H1826 C1802 0.950 . S
H1827 C1803 0.949 . S
H1828 C1805 0.950 . S
H1829 C1807 0.950 . S
C1830 C1831 1.349 . S
C1830 C1832 1.327 . S
C1830 H1855 0.950 . S
C1831 C1830 1.349 . S
C1831 C1847 1.349 . S
C1832 C1830 1.327 . S
C1832 C1851 1.429 . S
C1832 H1856 0.950 . S
C1833 C1850 1.574 . S
C1833 C1852 1.368 . S
C1833 H1857 0.949 . S
H1834 C1838 0.949 . S
C1835 C1836 1.349 . S
C1835 C1837 1.327 . S
C1835 H1858 0.950 . S
C1836 C1835 1.349 . S
C1836 C1848 1.349 . S
C1837 C1835 1.327 . S
C1837 C1853 1.429 . S
C1837 H1859 0.950 . S
C1838 H1834 0.949 . S
C1838 C1846 1.574 . S
C1838 C1854 1.368 . S
H1839 C1847 0.950 . S
H1840 C1845 0.950 . S
H1841 C1846 0.949 . S
H1842 C1848 0.950 . S
H1843 C1849 0.950 . S
H1844 C1850 0.949 . S
C1845 H1840 0.950 . S
C1845 C1847 1.327 . S
C1845 C1851 1.429 . S
C1846 C1838 1.574 . S
C1846 H1841 0.949 . S
C1846 C1852 1.368 . S
C1847 C1831 1.349 . S
C1847 H1839 0.950 . S
C1847 C1845 1.327 . S
C1848 C1836 1.349 . S
C1848 H1842 0.950 . S
C1848 C1849 1.327 . S
C1849 H1843 0.950 . S
C1849 C1848 1.327 . S
C1849 C1853 1.429 . S
C1850 C1833 1.574 . S
C1850 H1844 0.949 . S
C1850 C1854 1.368 . S
C1851 C1832 1.429 . S
C1851 C1845 1.429 . S
C1851 C1852 1.523 . S
C1852 C1833 1.368 . S
C1852 C1846 1.368 . S
C1852 C1851 1.523 . S
C1853 C1837 1.429 . S
C1853 C1849 1.429 . S
C1853 C1854 1.523 . S
C1854 C1838 1.368 . S
C1854 C1850 1.368 . S
C1854 C1853 1.523 . S
H1855 C1830 0.950 . S
H1856 C1832 0.950 . S
H1857 C1833 0.949 . S
H1858 C1835 0.950 . S
H1859 C1837 0.950 . S
C1860 C1861 1.349 . S
C1860 C1862 1.327 . S
C1860 H1885 0.950 . S
C1861 C1860 1.349 . S
C1861 C1877 1.349 . S
C1862 C1860 1.327 . S
C1862 C1881 1.429 . S
C1862 H1886 0.950 . S
C1863 C1880 1.574 . S
C1863 C1882 1.368 . S
C1863 H1887 0.949 . S
H1864 C1868 0.949 . S
C1865 C1866 1.349 . S
C1865 C1867 1.327 . S
C1865 H1888 0.950 . S
C1866 C1865 1.349 . S
C1866 C1878 1.349 . S
C1867 C1865 1.327 . S
C1867 C1883 1.429 . S
C1867 H1889 0.950 . S
C1868 H1864 0.949 . S
C1868 C1876 1.574 . S
C1868 C1884 1.368 . S
H1869 C1877 0.950 . S
H1870 C1875 0.950 . S
H1871 C1876 0.949 . S
H1872 C1878 0.950 . S
H1873 C1879 0.950 . S
H1874 C1880 0.949 . S
C1875 H1870 0.950 . S
C1875 C1877 1.327 . S
C1875 C1881 1.429 . S
C1876 C1868 1.574 . S
C1876 H1871 0.949 . S
C1876 C1882 1.368 . S
C1877 C1861 1.349 . S
C1877 H1869 0.950 . S
C1877 C1875 1.327 . S
C1878 C1866 1.349 . S
C1878 H1872 0.950 . S
C1878 C1879 1.327 . S
C1879 H1873 0.950 . S
C1879 C1878 1.327 . S
C1879 C1883 1.429 . S
C1880 C1863 1.574 . S
C1880 H1874 0.949 . S
C1880 C1884 1.368 . S
C1881 C1862 1.429 . S
C1881 C1875 1.429 . S
C1881 C1882 1.523 . S
C1882 C1863 1.368 . S
C1882 C1876 1.368 . S
C1882 C1881 1.523 . S
C1883 C1867 1.429 . S
C1883 C1879 1.429 . S
C1883 C1884 1.523 . S
C1884 C1868 1.368 . S
C1884 C1880 1.368 . S
C1884 C1883 1.523 . S
H1885 C1860 0.950 . S
H1886 C1862 0.950 . S
H1887 C1863 0.949 . S
H1888 C1865 0.950 . S
H1889 C1867 0.950 . S
C1890 C1891 1.349 . S
C1890 C1892 1.327 . S
C1890 H1915 0.950 . S
C1891 C1890 1.349 . S
C1891 C1907 1.349 . S
C1892 C1890 1.327 . S
C1892 C1911 1.429 . S
C1892 H1916 0.950 . S
C1893 C1910 1.574 . S
C1893 C1912 1.368 . S
C1893 H1917 0.949 . S
H1894 C1898 0.951 . S
C1895 C1896 1.349 . S
C1895 C1897 1.327 . S
C1895 H1918 0.950 . S
C1896 C1895 1.349 . S
C1896 C1908 1.349 . S
C1897 C1895 1.327 . S
C1897 C1913 1.429 . S
C1897 H1919 0.950 . S
C1898 H1894 0.951 . S
C1898 C1906 1.570 1_455 S
C1898 C1914 1.370 . S
H1899 C1907 0.950 . S
H1900 C1905 0.950 . S
H1901 C1906 0.949 . S
H1902 C1908 0.950 . S
H1903 C1909 0.950 . S
H1904 C1910 0.949 1_455 S
C1905 H1900 0.950 . S
C1905 C1907 1.327 . S
C1905 C1911 1.429 . S
C1906 C1898 1.570 1_655 S
C1906 H1901 0.949 . S
C1906 C1912 1.368 . S
C1907 C1891 1.349 . S
C1907 H1899 0.950 . S
C1907 C1905 1.327 . S
C1908 C1896 1.349 . S
C1908 H1902 0.950 . S
C1908 C1909 1.327 . S
C1909 H1903 0.950 . S
C1909 C1908 1.327 . S
C1909 C1913 1.429 . S
C1910 C1893 1.574 . S
C1910 H1904 0.949 1_655 S
C1910 C1914 1.368 1_655 S
C1911 C1892 1.429 . S
C1911 C1905 1.429 . S
C1911 C1912 1.523 . S
C1912 C1893 1.368 . S
C1912 C1906 1.368 . S
C1912 C1911 1.523 . S
C1913 C1897 1.429 . S
C1913 C1909 1.429 . S
C1913 C1914 1.523 . S
C1914 C1898 1.370 . S
C1914 C1910 1.368 1_455 S
C1914 C1913 1.523 . S
H1915 C1890 0.950 . S
H1916 C1892 0.950 . S
H1917 C1893 0.949 . S
H1918 C1895 0.950 . S
H1919 C1897 0.950 . S
C1920 C1921 1.349 . S
C1920 C1922 1.327 . S
C1920 H1945 0.950 . S
C1921 C1920 1.349 . S
C1921 C1937 1.349 . S
C1922 C1920 1.327 . S
C1922 C1941 1.429 . S
C1922 H1946 0.950 . S
C1923 C1940 1.574 . S
C1923 C1942 1.368 . S
C1923 H1947 0.949 . S
H1924 C1928 0.949 . S
C1925 C1926 1.349 . S
C1925 C1927 1.327 . S
C1925 H1948 0.950 . S
C1926 C1925 1.349 . S
C1926 C1938 1.349 . S
C1927 C1925 1.327 . S
C1927 C1943 1.429 . S
C1927 H1949 0.950 . S
C1928 H1924 0.949 . S
C1928 C1936 1.574 . S
C1928 C1944 1.368 . S
H1929 C1937 0.950 . S
H1930 C1935 0.950 . S
H1931 C1936 0.949 . S
H1932 C1938 0.950 . S
H1933 C1939 0.950 . S
H1934 C1940 0.949 . S
C1935 H1930 0.950 . S
C1935 C1937 1.327 . S
C1935 C1941 1.429 . S
C1936 C1928 1.574 . S
C1936 H1931 0.949 . S
C1936 C1942 1.368 . S
C1937 C1921 1.349 . S
C1937 H1929 0.950 . S
C1937 C1935 1.327 . S
C1938 C1926 1.349 . S
C1938 H1932 0.950 . S
C1938 C1939 1.327 . S
C1939 H1933 0.950 . S
C1939 C1938 1.327 . S
C1939 C1943 1.429 . S
C1940 C1923 1.574 . S
C1940 H1934 0.949 . S
C1940 C1944 1.368 . S
C1941 C1922 1.429 . S
C1941 C1935 1.429 . S
C1941 C1942 1.523 . S
C1942 C1923 1.368 . S
C1942 C1936 1.368 . S
C1942 C1941 1.523 . S
C1943 C1927 1.429 . S
C1943 C1939 1.429 . S
C1943 C1944 1.523 . S
C1944 C1928 1.368 . S
C1944 C1940 1.368 . S
C1944 C1943 1.523 . S
H1945 C1920 0.950 . S
H1946 C1922 0.950 . S
H1947 C1923 0.949 . S
H1948 C1925 0.950 . S
H1949 C1927 0.950 . S
C1950 C1951 1.349 . S
C1950 C1952 1.327 . S
C1950 H1975 0.950 . S
C1951 C1950 1.349 . S
C1951 C1967 1.349 . S
C1952 C1950 1.327 . S
C1952 C1971 1.429 . S
C1952 H1976 0.950 . S
C1953 C1970 1.574 . S
C1953 C1972 1.368 . S
C1953 H1977 0.949 . S
H1954 C1958 0.949 . S
C1955 C1956 1.349 . S
C1955 C1957 1.327 . S
C1955 H1978 0.950 1_655 S
C1956 C1955 1.349 . S
C1956 C1968 1.349 . S
C1957 C1955 1.327 . S
C1957 C1973 1.429 . S
C1957 H1979 0.950 . S
C1958 H1954 0.949 . S
C1958 C1966 1.574 . S
C1958 C1974 1.368 . S
H1959 C1967 0.950 . S
H1960 C1965 0.950 . S
H1961 C1966 0.949 . S
H1962 C1968 0.950 . S
H1963 C1969 0.950 . S
H1964 C1970 0.949 . S
C1965 H1960 0.950 . S
C1965 C1967 1.327 . S
C1965 C1971 1.429 . S
C1966 C1958 1.574 . S
C1966 H1961 0.949 . S
C1966 C1972 1.368 . S
C1967 C1951 1.349 . S
C1967 H1959 0.950 . S
C1967 C1965 1.327 . S
C1968 C1956 1.349 . S
C1968 H1962 0.950 . S
C1968 C1969 1.327 . S
C1969 H1963 0.950 . S
C1969 C1968 1.327 . S
C1969 C1973 1.429 . S
C1970 C1953 1.574 . S
C1970 H1964 0.949 . S
C1970 C1974 1.368 . S
C1971 C1952 1.429 . S
C1971 C1965 1.429 . S
C1971 C1972 1.523 1_565 S
C1972 C1953 1.368 . S
C1972 C1966 1.368 . S
C1972 C1971 1.523 1_545 S
C1973 C1957 1.429 . S
C1973 C1969 1.429 . S
C1973 C1974 1.523 . S
C1974 C1958 1.368 . S
C1974 C1970 1.368 . S
C1974 C1973 1.523 . S
H1975 C1950 0.950 . S
H1976 C1952 0.950 . S
H1977 C1953 0.949 . S
H1978 C1955 0.950 1_455 S
H1979 C1957 0.950 . S
C1980 C1981 1.349 . S
C1980 C1982 1.327 . S
C1980 H2005 0.950 . S
C1981 C1980 1.349 . S
C1981 C1997 1.349 . S
C1982 C1980 1.327 . S
C1982 C2001 1.429 . S
C1982 H2006 0.950 . S
C1983 C2000 1.542 1_565 S
C1983 C2002 1.368 . S
C1983 H2007 0.949 . S
H1984 C1988 0.949 1_545 S
C1985 C1986 1.349 . S
C1985 C1987 1.327 . S
C1985 H2008 0.950 . S
C1986 C1985 1.349 . S
C1986 C1998 1.349 . S
C1987 C1985 1.327 . S
C1987 C2003 1.429 . S
C1987 H2009 0.950 . S
C1988 H1984 0.949 1_565 S
C1988 C1996 1.574 . S
C1988 C2004 1.368 1_565 S
H1989 C1997 0.950 . S
H1990 C1995 0.950 . S
H1991 C1996 0.949 . S
H1992 C1998 0.950 . S
H1993 C1999 0.950 . S
H1994 C2000 0.962 . S
C1995 H1990 0.950 . S
C1995 C1997 1.327 . S
C1995 C2001 1.429 . S
C1996 C1988 1.574 . S
C1996 H1991 0.949 . S
C1996 C2002 1.368 . S
C1997 C1981 1.349 . S
C1997 H1989 0.950 . S
C1997 C1995 1.327 . S
C1998 C1986 1.349 . S
C1998 H1992 0.950 . S
C1998 C1999 1.327 . S
C1999 H1993 0.950 . S
C1999 C1998 1.327 . S
C1999 C2003 1.429 . S
C2000 C1983 1.542 1_545 S
C2000 H1994 0.962 . S
C2000 C2004 1.386 . S
C2001 C1982 1.429 . S
C2001 C1995 1.429 . S
C2001 C2002 1.523 . S
C2002 C1983 1.368 . S
C2002 C1996 1.368 . S
C2002 C2001 1.523 . S
C2003 C1987 1.429 . S
C2003 C1999 1.429 . S
C2003 C2004 1.523 . S
C2004 C1988 1.368 1_545 S
C2004 C2000 1.386 . S
C2004 C2003 1.523 . S
H2005 C1980 0.950 . S
H2006 C1982 0.950 . S
H2007 C1983 0.949 . S
H2008 C1985 0.950 . S
H2009 C1987 0.950 . S
C2010 C2011 1.349 . S
C2010 C2012 1.327 . S
C2010 H2035 0.950 . S
C2011 C2010 1.349 . S
C2011 C2027 1.349 . S
C2012 C2010 1.327 . S
C2012 C2031 1.429 . S
C2012 H2036 0.950 . S
C2013 C2030 1.574 . S
C2013 C2032 1.368 . S
C2013 H2037 0.949 . S
H2014 C2018 0.949 . S
C2015 C2016 1.349 . S
C2015 C2017 1.327 . S
C2015 H2038 0.950 . S
C2016 C2015 1.349 . S
C2016 C2028 1.349 . S
C2017 C2015 1.327 . S
C2017 C2033 1.429 . S
C2017 H2039 0.950 . S
C2018 H2014 0.949 . S
C2018 C2026 1.574 . S
C2018 C2034 1.368 . S
H2019 C2027 0.950 1_545 S
H2020 C2025 0.950 . S
H2021 C2026 0.949 . S
H2022 C2028 0.950 . S
H2023 C2029 0.950 . S
H2024 C2030 0.949 . S
C2025 H2020 0.950 . S
C2025 C2027 1.327 . S
C2025 C2031 1.429 . S
C2026 C2018 1.574 . S
C2026 H2021 0.949 . S
C2026 C2032 1.368 . S
C2027 C2011 1.349 . S
C2027 H2019 0.950 1_565 S
C2027 C2025 1.327 . S
C2028 C2016 1.349 . S
C2028 H2022 0.950 . S
C2028 C2029 1.327 . S
C2029 H2023 0.950 . S
C2029 C2028 1.327 . S
C2029 C2033 1.429 . S
C2030 C2013 1.574 . S
C2030 H2024 0.949 . S
C2030 C2034 1.368 . S
C2031 C2012 1.429 . S
C2031 C2025 1.429 . S
C2031 C2032 1.523 . S
C2032 C2013 1.368 . S
C2032 C2026 1.368 . S
C2032 C2031 1.523 . S
C2033 C2017 1.429 . S
C2033 C2029 1.429 . S
C2033 C2034 1.523 1_655 S
C2034 C2018 1.368 . S
C2034 C2030 1.368 . S
C2034 C2033 1.523 1_455 S
H2035 C2010 0.950 . S
H2036 C2012 0.950 . S
H2037 C2013 0.949 . S
H2038 C2015 0.950 . S
H2039 C2017 0.950 . S
C2040 C2041 1.349 . S
C2040 C2042 1.327 . S
C2040 H2065 0.950 . S
C2041 C2040 1.349 . S
C2041 C2057 1.349 . S
C2042 C2040 1.327 . S
C2042 C2061 1.429 . S
C2042 H2066 0.950 . S
C2043 C2060 1.574 . S
C2043 C2062 1.368 . S
C2043 H2067 0.949 . S
H2044 C2048 0.949 . S
C2045 C2046 1.349 . S
C2045 C2047 1.327 . S
C2045 H2068 0.950 . S
C2046 C2045 1.349 . S
C2046 C2058 1.349 . S
C2047 C2045 1.327 . S
C2047 C2063 1.429 . S
C2047 H2069 0.950 . S
C2048 H2044 0.949 . S
C2048 C2056 1.574 . S
C2048 C2064 1.368 . S
H2049 C2057 0.950 . S
H2050 C2055 0.950 . S
H2051 C2056 0.949 . S
H2052 C2058 0.950 . S
H2053 C2059 0.950 . S
H2054 C2060 0.949 . S
C2055 H2050 0.950 . S
C2055 C2057 1.327 . S
C2055 C2061 1.429 . S
C2056 C2048 1.574 . S
C2056 H2051 0.949 . S
C2056 C2062 1.368 . S
C2057 C2041 1.349 . S
C2057 H2049 0.950 . S
C2057 C2055 1.327 . S
C2058 C2046 1.349 . S
C2058 H2052 0.950 . S
C2058 C2059 1.327 . S
C2059 H2053 0.950 . S
C2059 C2058 1.327 . S
C2059 C2063 1.429 . S
C2060 C2043 1.574 . S
C2060 H2054 0.949 . S
C2060 C2064 1.368 . S
C2061 C2042 1.429 . S
C2061 C2055 1.429 . S
C2061 C2062 1.523 . S
C2062 C2043 1.368 . S
C2062 C2056 1.368 . S
C2062 C2061 1.523 . S
C2063 C2047 1.429 . S
C2063 C2059 1.429 . S
C2063 C2064 1.523 . S
C2064 C2048 1.368 . S
C2064 C2060 1.368 . S
C2064 C2063 1.523 . S
H2065 C2040 0.950 . S
H2066 C2042 0.950 . S
H2067 C2043 0.949 . S
H2068 C2045 0.950 . S
H2069 C2047 0.950 . S
C2070 C2071 1.349 . S
C2070 C2072 1.327 . S
C2070 H2095 0.950 . S
C2071 C2070 1.349 . S
C2071 C2087 1.349 . S
C2072 C2070 1.327 . S
C2072 C2091 1.429 . S
C2072 H2096 0.950 . S
C2073 C2090 1.574 . S
C2073 C2092 1.368 . S
C2073 H2097 0.949 . S
H2074 C2078 0.949 . S
C2075 C2076 1.349 . S
C2075 C2077 1.327 . S
C2075 H2098 0.950 . S
C2076 C2075 1.349 . S
C2076 C2088 1.349 . S
C2077 C2075 1.327 . S
C2077 C2093 1.429 . S
C2077 H2099 0.950 . S
C2078 H2074 0.949 . S
C2078 C2086 1.574 . S
C2078 C2094 1.368 . S
H2079 C2087 0.950 . S
H2080 C2085 0.950 . S
H2081 C2086 0.949 . S
H2082 C2088 0.950 . S
H2083 C2089 0.950 . S
H2084 C2090 0.949 . S
C2085 H2080 0.950 . S
C2085 C2087 1.327 . S
C2085 C2091 1.429 . S
C2086 C2078 1.574 . S
C2086 H2081 0.949 . S
C2086 C2092 1.368 . S
C2087 C2071 1.349 . S
C2087 H2079 0.950 . S
C2087 C2085 1.327 . S
C2088 C2076 1.349 . S
C2088 H2082 0.950 . S
C2088 C2089 1.327 . S
C2089 H2083 0.950 . S
C2089 C2088 1.327 . S
C2089 C2093 1.429 . S
C2090 C2073 1.574 . S
C2090 H2084 0.949 . S
C2090 C2094 1.368 . S
C2091 C2072 1.429 . S
C2091 C2085 1.429 . S
C2091 C2092 1.523 . S
C2092 C2073 1.368 . S
C2092 C2086 1.368 . S
C2092 C2091 1.523 . S
C2093 C2077 1.429 . S
C2093 C2089 1.429 . S
C2093 C2094 1.523 . S
C2094 C2078 1.368 . S
C2094 C2090 1.368 . S
C2094 C2093 1.523 . S
H2095 C2070 0.950 . S
H2096 C2072 0.950 . S
H2097 C2073 0.949 . S
H2098 C2075 0.950 . S
H2099 C2077 0.950 . S
C2100 C2101 1.349 . S
C2100 C2102 1.327 . S
C2100 H2125 0.950 . S
C2101 C2100 1.349 . S
C2101 C2117 1.349 . S
C2102 C2100 1.327 . S
C2102 C2121 1.429 . S
C2102 H2126 0.950 . S
C2103 C2120 1.574 . S
C2103 C2122 1.368 . S
C2103 H2127 0.949 . S
H2104 C2108 0.949 . S
C2105 C2106 1.349 . S
C2105 C2107 1.327 . S
C2105 H2128 0.950 . S
C2106 C2105 1.349 . S
C2106 C2118 1.349 . S
C2107 C2105 1.327 . S
C2107 C2123 1.429 . S
C2107 H2129 0.950 . S
C2108 H2104 0.949 . S
C2108 C2116 1.574 . S
C2108 C2124 1.368 . S
H2109 C2117 0.950 . S
H2110 C2115 0.950 . S
H2111 C2116 0.949 . S
H2112 C2118 0.950 . S
H2113 C2119 0.950 . S
H2114 C2120 0.949 . S
C2115 H2110 0.950 . S
C2115 C2117 1.327 . S
C2115 C2121 1.429 . S
C2116 C2108 1.574 . S
C2116 H2111 0.949 . S
C2116 C2122 1.368 . S
C2117 C2101 1.349 . S
C2117 H2109 0.950 . S
C2117 C2115 1.327 . S
C2118 C2106 1.349 . S
C2118 H2112 0.950 . S
C2118 C2119 1.327 . S
C2119 H2113 0.950 . S
C2119 C2118 1.327 . S
C2119 C2123 1.429 . S
C2120 C2103 1.574 . S
C2120 H2114 0.949 . S
C2120 C2124 1.368 . S
C2121 C2102 1.429 . S
C2121 C2115 1.429 . S
C2121 C2122 1.523 . S
C2122 C2103 1.368 . S
C2122 C2116 1.368 . S
C2122 C2121 1.523 . S
C2123 C2107 1.429 . S
C2123 C2119 1.429 . S
C2123 C2124 1.523 . S
C2124 C2108 1.368 . S
C2124 C2120 1.368 . S
C2124 C2123 1.523 . S
H2125 C2100 0.950 . S
H2126 C2102 0.950 . S
H2127 C2103 0.949 . S
H2128 C2105 0.950 . S
H2129 C2107 0.950 . S
C2130 C2131 1.349 . S
C2130 C2132 1.327 . S
C2130 H2155 0.950 . S
C2131 C2130 1.349 . S
C2131 C2147 1.349 . S
C2132 C2130 1.327 . S
C2132 C2151 1.429 . S
C2132 H2156 0.950 . S
C2133 C2150 1.574 . S
C2133 C2152 1.368 . S
C2133 H2157 0.949 . S
H2134 C2138 0.949 . S
C2135 C2136 1.349 . S
C2135 C2137 1.327 . S
C2135 H2158 0.950 . S
C2136 C2135 1.349 . S
C2136 C2148 1.349 . S
C2137 C2135 1.327 . S
C2137 C2153 1.429 . S
C2137 H2159 0.950 . S
C2138 H2134 0.949 . S
C2138 C2146 1.574 . S
C2138 C2154 1.368 . S
H2139 C2147 0.950 . S
H2140 C2145 0.950 . S
H2141 C2146 0.949 . S
H2142 C2148 0.950 . S
H2143 C2149 0.950 . S
H2144 C2150 0.949 . S
C2145 H2140 0.950 . S
C2145 C2147 1.327 . S
C2145 C2151 1.429 . S
C2146 C2138 1.574 . S
C2146 H2141 0.949 . S
C2146 C2152 1.368 . S
C2147 C2131 1.349 . S
C2147 H2139 0.950 . S
C2147 C2145 1.327 . S
C2148 C2136 1.349 . S
C2148 H2142 0.950 . S
C2148 C2149 1.327 . S
C2149 H2143 0.950 . S
C2149 C2148 1.327 . S
C2149 C2153 1.429 . S
C2150 C2133 1.574 . S
C2150 H2144 0.949 . S
C2150 C2154 1.368 . S
C2151 C2132 1.429 . S
C2151 C2145 1.429 . S
C2151 C2152 1.523 . S
C2152 C2133 1.368 . S
C2152 C2146 1.368 . S
C2152 C2151 1.523 . S
C2153 C2137 1.429 . S
C2153 C2149 1.429 . S
C2153 C2154 1.523 . S
C2154 C2138 1.368 . S
C2154 C2150 1.368 . S
C2154 C2153 1.523 . S
H2155 C2130 0.950 . S
H2156 C2132 0.950 . S
H2157 C2133 0.949 . S
H2158 C2135 0.950 . S
H2159 C2137 0.950 . S
C541 N6 0.584 . S
C546 C76 0.567 . S
C571 C16 0.567 . S
C576 N36 0.584 . S
C601 C46 0.567 . S
C606 N66 0.584 . S
C631 N96 0.584 . S
C636 C136 0.567 . S
C661 C166 0.567 . S
C666 N126 0.584 . S
C691 N156 0.584 . S
C696 C106 0.567 . S
C721 C256 0.567 . S
C726 N186 0.584 . S
C751 C196 0.567 . S
C756 N216 0.584 . S
C781 N246 0.584 . S
C786 C226 0.567 . S
C811 C316 0.567 . S
C816 N276 0.584 . S
C841 N306 0.584 . S
C846 C346 0.567 . S
C871 C286 0.567 . S
C876 N336 0.584 . S
C901 N366 0.584 . S
C906 C436 0.567 . S
C931 C376 0.567 . S
C936 N396 0.584 . S
C961 C406 0.567 . S
C966 N426 0.584 . S
C991 C496 0.567 . S
C996 N456 0.584 . S
C1021 C526 0.567 . S
C1026 N486 0.584 . S
C1051 C466 0.567 . S
C1056 N516 0.584 . S
C1081 C1 1.688 . S
C1086 C151 1.688 . S
C1111 C91 1.688 . S
C1116 C31 1.688 . S
C1141 C121 1.688 . S
C1146 C61 1.688 . S
C1171 C181 1.688 . S
C1176 C331 1.688 . S
C1201 C211 1.688 . S
C1206 C271 1.688 . S
C1231 C301 1.688 . S
C1236 C241 1.688 . S
C1261 C361 1.688 . S
C1266 C511 1.688 . S
C1291 C451 1.688 . S
C1296 C391 1.688 . S
C1321 C481 1.688 . S
C1326 C421 1.688 . S
C1351 C310 1.949 . S
C1356 C10 1.949 1_565 S
C1381 C40 1.948 . S
C1386 C340 1.948 . S
C1411 C280 1.948 . S
C1416 C70 1.948 . S
C1441 C100 1.949 1_655 S
C1446 C430 1.949 . S
C1471 C130 1.948 . S
C1476 C370 1.948 . S
C1501 C400 1.948 . S
C1506 C160 1.948 . S
C1531 C490 1.948 . S
C1536 C190 1.948 . S
C1561 C220 1.948 . S
C1566 C520 1.948 . S
C1591 C250 1.948 . S
C1596 C460 1.948 . S
C1621 C87 1.180 . S
C1626 N14 1.156 . S
C1651 C27 1.180 . S
C1656 N44 1.156 . S
C1681 N74 1.156 . S
C1686 C57 1.180 . S
C1711 C147 1.180 . S
C1716 N104 1.156 . S
C1741 C177 1.180 . S
C1746 N134 1.156 . S
C1771 N164 1.156 . S
C1776 C117 1.180 . S
C1801 C267 1.180 . S
C1806 N194 1.156 . S
C1831 N224 1.156 . S
C1836 C207 1.180 . S
C1861 C237 1.180 . S
C1866 N254 1.156 . S
C1891 N284 1.156 . S
C1896 C327 1.180 . S
C1921 N314 1.156 . S
C1926 C357 1.180 . S
C1951 C297 1.180 . S
C1956 N344 1.156 1_655 S
C1981 N374 1.156 . S
C1986 C447 1.180 . S
C2011 N404 1.156 1_565 S
C2016 C387 1.180 . S
C2041 C417 1.180 . S
C2046 N434 1.156 . S
C2071 N464 1.156 . S
C2076 C507 1.180 . S
C2101 N494 1.156 . S
C2106 C537 1.180 . S
C2131 C477 1.180 . S
C2136 N524 1.156 . S
