# Generated by pormake.
# Topology ums, (4)-cn, num edge types: 1
# Building blocks:
#     Node 0, Type 0, BuildingBlock: QUQFOY_clean_sbu_1, # of connection points: 4
#     Node 1, Type 0, BuildingBlock: QUQFOY_clean_sbu_1, # of connection points: 4
#     Node 2, Type 0, BuildingBlock: QUQFOY_clean_sbu_1, # of connection points: 4
#     Node 3, Type 0, BuildingBlock: QUQFOY_clean_sbu_1, # of connection points: 4
#     Node 4, Type 0, BuildingBlock: QUQFOY_clean_sbu_1, # of connection points: 4
#     Node 5, Type 0, BuildingBlock: QUQFOY_clean_sbu_1, # of connection points: 4
#     Node 6, Type 0, BuildingBlock: QUQFOY_clean_sbu_1, # of connection points: 4
#     Node 7, Type 0, BuildingBlock: QUQFOY_clean_sbu_1, # of connection points: 4
#     Node 8, Type 0, BuildingBlock: QUQFOY_clean_sbu_1, # of connection points: 4
#     Node 9, Type 0, BuildingBlock: QUQFOY_clean_sbu_1, # of connection points: 4
#     Node 10, Type 0, BuildingBlock: QUQFOY_clean_sbu_1, # of connection points: 4
#     Node 11, Type 0, BuildingBlock: QUQFOY_clean_sbu_1, # of connection points: 4
#     Node 12, Type 0, BuildingBlock: QUQFOY_clean_sbu_1, # of connection points: 4
#     Node 13, Type 0, BuildingBlock: QUQFOY_clean_sbu_1, # of connection points: 4
#     Node 14, Type 0, BuildingBlock: QUQFOY_clean_sbu_1, # of connection points: 4
#     Node 15, Type 0, BuildingBlock: QUQFOY_clean_sbu_1, # of connection points: 4
#     Node 16, Type 0, BuildingBlock: QUQFOY_clean_sbu_1, # of connection points: 4
#     Node 17, Type 0, BuildingBlock: QUQFOY_clean_sbu_1, # of connection points: 4
#     Node 18, Type 0, BuildingBlock: QUQFOY_clean_sbu_1, # of connection points: 4
#     Node 19, Type 0, BuildingBlock: QUQFOY_clean_sbu_1, # of connection points: 4
#     Node 20, Type 0, BuildingBlock: QUQFOY_clean_sbu_1, # of connection points: 4
#     Node 21, Type 0, BuildingBlock: QUQFOY_clean_sbu_1, # of connection points: 4
#     Node 22, Type 0, BuildingBlock: QUQFOY_clean_sbu_1, # of connection points: 4
#     Node 23, Type 0, BuildingBlock: QUQFOY_clean_sbu_1, # of connection points: 4
#     Node 24, Type 0, BuildingBlock: QUQFOY_clean_sbu_1, # of connection points: 4
#     Node 25, Type 0, BuildingBlock: QUQFOY_clean_sbu_1, # of connection points: 4
#     Node 26, Type 0, BuildingBlock: QUQFOY_clean_sbu_1, # of connection points: 4
#     Node 27, Type 0, BuildingBlock: QUQFOY_clean_sbu_1, # of connection points: 4
#     Node 28, Type 0, BuildingBlock: QUQFOY_clean_sbu_1, # of connection points: 4
#     Node 29, Type 0, BuildingBlock: QUQFOY_clean_sbu_1, # of connection points: 4
#     Node 30, Type 0, BuildingBlock: QUQFOY_clean_sbu_1, # of connection points: 4
#     Node 31, Type 0, BuildingBlock: QUQFOY_clean_sbu_1, # of connection points: 4
#     Node 32, Type 0, BuildingBlock: QUQFOY_clean_sbu_1, # of connection points: 4
#     Node 33, Type 0, BuildingBlock: QUQFOY_clean_sbu_1, # of connection points: 4
#     Node 34, Type 0, BuildingBlock: QUQFOY_clean_sbu_1, # of connection points: 4
#     Node 35, Type 0, BuildingBlock: QUQFOY_clean_sbu_1, # of connection points: 4
#     Edge 36, Type (0, 0), BuildingBlock: UVAHIK_clean_linker_0, # of connection points: 2
#     Edge 37, Type (0, 0), BuildingBlock: UVAHIK_clean_linker_0, # of connection points: 2
#     Edge 38, Type (0, 0), BuildingBlock: UVAHIK_clean_linker_0, # of connection points: 2
#     Edge 39, Type (0, 0), BuildingBlock: UVAHIK_clean_linker_0, # of connection points: 2
#     Edge 40, Type (0, 0), BuildingBlock: UVAHIK_clean_linker_0, # of connection points: 2
#     Edge 41, Type (0, 0), BuildingBlock: UVAHIK_clean_linker_0, # of connection points: 2
#     Edge 42, Type (0, 0), BuildingBlock: UVAHIK_clean_linker_0, # of connection points: 2
#     Edge 43, Type (0, 0), BuildingBlock: UVAHIK_clean_linker_0, # of connection points: 2
#     Edge 44, Type (0, 0), BuildingBlock: UVAHIK_clean_linker_0, # of connection points: 2
#     Edge 45, Type (0, 0), BuildingBlock: UVAHIK_clean_linker_0, # of connection points: 2
#     Edge 46, Type (0, 0), BuildingBlock: UVAHIK_clean_linker_0, # of connection points: 2
#     Edge 47, Type (0, 0), BuildingBlock: UVAHIK_clean_linker_0, # of connection points: 2
#     Edge 48, Type (0, 0), BuildingBlock: UVAHIK_clean_linker_0, # of connection points: 2
#     Edge 49, Type (0, 0), BuildingBlock: UVAHIK_clean_linker_0, # of connection points: 2
#     Edge 50, Type (0, 0), BuildingBlock: UVAHIK_clean_linker_0, # of connection points: 2
#     Edge 51, Type (0, 0), BuildingBlock: UVAHIK_clean_linker_0, # of connection points: 2
#     Edge 52, Type (0, 0), BuildingBlock: UVAHIK_clean_linker_0, # of connection points: 2
#     Edge 53, Type (0, 0), BuildingBlock: UVAHIK_clean_linker_0, # of connection points: 2
#     Edge 54, Type (0, 0), BuildingBlock: UVAHIK_clean_linker_0, # of connection points: 2
#     Edge 55, Type (0, 0), BuildingBlock: UVAHIK_clean_linker_0, # of connection points: 2
#     Edge 56, Type (0, 0), BuildingBlock: UVAHIK_clean_linker_0, # of connection points: 2
#     Edge 57, Type (0, 0), BuildingBlock: UVAHIK_clean_linker_0, # of connection points: 2
#     Edge 58, Type (0, 0), BuildingBlock: UVAHIK_clean_linker_0, # of connection points: 2
#     Edge 59, Type (0, 0), BuildingBlock: UVAHIK_clean_linker_0, # of connection points: 2
#     Edge 60, Type (0, 0), BuildingBlock: UVAHIK_clean_linker_0, # of connection points: 2
#     Edge 61, Type (0, 0), BuildingBlock: UVAHIK_clean_linker_0, # of connection points: 2
#     Edge 62, Type (0, 0), BuildingBlock: UVAHIK_clean_linker_0, # of connection points: 2
#     Edge 63, Type (0, 0), BuildingBlock: UVAHIK_clean_linker_0, # of connection points: 2
#     Edge 64, Type (0, 0), BuildingBlock: UVAHIK_clean_linker_0, # of connection points: 2
#     Edge 65, Type (0, 0), BuildingBlock: UVAHIK_clean_linker_0, # of connection points: 2
#     Edge 66, Type (0, 0), BuildingBlock: UVAHIK_clean_linker_0, # of connection points: 2
#     Edge 67, Type (0, 0), BuildingBlock: UVAHIK_clean_linker_0, # of connection points: 2
#     Edge 68, Type (0, 0), BuildingBlock: UVAHIK_clean_linker_0, # of connection points: 2
#     Edge 69, Type (0, 0), BuildingBlock: UVAHIK_clean_linker_0, # of connection points: 2
#     Edge 70, Type (0, 0), BuildingBlock: UVAHIK_clean_linker_0, # of connection points: 2
#     Edge 71, Type (0, 0), BuildingBlock: UVAHIK_clean_linker_0, # of connection points: 2
#     Edge 72, Type (0, 0), BuildingBlock: UVAHIK_clean_linker_0, # of connection points: 2
#     Edge 73, Type (0, 0), BuildingBlock: UVAHIK_clean_linker_0, # of connection points: 2
#     Edge 74, Type (0, 0), BuildingBlock: UVAHIK_clean_linker_0, # of connection points: 2
#     Edge 75, Type (0, 0), BuildingBlock: UVAHIK_clean_linker_0, # of connection points: 2
#     Edge 76, Type (0, 0), BuildingBlock: UVAHIK_clean_linker_0, # of connection points: 2
#     Edge 77, Type (0, 0), BuildingBlock: UVAHIK_clean_linker_0, # of connection points: 2
#     Edge 78, Type (0, 0), BuildingBlock: UVAHIK_clean_linker_0, # of connection points: 2
#     Edge 79, Type (0, 0), BuildingBlock: UVAHIK_clean_linker_0, # of connection points: 2
#     Edge 80, Type (0, 0), BuildingBlock: UVAHIK_clean_linker_0, # of connection points: 2
#     Edge 81, Type (0, 0), BuildingBlock: UVAHIK_clean_linker_0, # of connection points: 2
#     Edge 82, Type (0, 0), BuildingBlock: UVAHIK_clean_linker_0, # of connection points: 2
#     Edge 83, Type (0, 0), BuildingBlock: UVAHIK_clean_linker_0, # of connection points: 2
#     Edge 84, Type (0, 0), BuildingBlock: UVAHIK_clean_linker_0, # of connection points: 2
#     Edge 85, Type (0, 0), BuildingBlock: UVAHIK_clean_linker_0, # of connection points: 2
#     Edge 86, Type (0, 0), BuildingBlock: UVAHIK_clean_linker_0, # of connection points: 2
#     Edge 87, Type (0, 0), BuildingBlock: UVAHIK_clean_linker_0, # of connection points: 2
#     Edge 88, Type (0, 0), BuildingBlock: UVAHIK_clean_linker_0, # of connection points: 2
#     Edge 89, Type (0, 0), BuildingBlock: UVAHIK_clean_linker_0, # of connection points: 2
#     Edge 90, Type (0, 0), BuildingBlock: UVAHIK_clean_linker_0, # of connection points: 2
#     Edge 91, Type (0, 0), BuildingBlock: UVAHIK_clean_linker_0, # of connection points: 2
#     Edge 92, Type (0, 0), BuildingBlock: UVAHIK_clean_linker_0, # of connection points: 2
#     Edge 93, Type (0, 0), BuildingBlock: UVAHIK_clean_linker_0, # of connection points: 2
#     Edge 94, Type (0, 0), BuildingBlock: UVAHIK_clean_linker_0, # of connection points: 2
#     Edge 95, Type (0, 0), BuildingBlock: UVAHIK_clean_linker_0, # of connection points: 2
#     Edge 96, Type (0, 0), BuildingBlock: UVAHIK_clean_linker_0, # of connection points: 2
#     Edge 97, Type (0, 0), BuildingBlock: UVAHIK_clean_linker_0, # of connection points: 2
#     Edge 98, Type (0, 0), BuildingBlock: UVAHIK_clean_linker_0, # of connection points: 2
#     Edge 99, Type (0, 0), BuildingBlock: UVAHIK_clean_linker_0, # of connection points: 2
#     Edge 100, Type (0, 0), BuildingBlock: UVAHIK_clean_linker_0, # of connection points: 2
#     Edge 101, Type (0, 0), BuildingBlock: UVAHIK_clean_linker_0, # of connection points: 2
#     Edge 102, Type (0, 0), BuildingBlock: UVAHIK_clean_linker_0, # of connection points: 2
#     Edge 103, Type (0, 0), BuildingBlock: UVAHIK_clean_linker_0, # of connection points: 2
#     Edge 104, Type (0, 0), BuildingBlock: UVAHIK_clean_linker_0, # of connection points: 2
#     Edge 105, Type (0, 0), BuildingBlock: UVAHIK_clean_linker_0, # of connection points: 2
#     Edge 106, Type (0, 0), BuildingBlock: UVAHIK_clean_linker_0, # of connection points: 2
#     Edge 107, Type (0, 0), BuildingBlock: UVAHIK_clean_linker_0, # of connection points: 2
# Relax obj value: 0.180
# Max RMSD: 0.144
# Mean RMSD: 0.144
data_MOF--net-ums--node1-QUQFOY_clean_sbu_1--edge1-UVAHIK_clean_linker_0
_symmetry_space_group_name_H-M    P1
_symmetry_Int_Tables_number       1
_symmetry_cell_setting            triclinic
loop_
_symmetry_equiv_pos_as_xyz
'x, y, z'
_cell_length_a     137.34035
_cell_length_b     137.35901
_cell_length_c     30.206584
_cell_angle_alpha  89.999543
_cell_angle_beta   90.004195
_cell_angle_gamma 119.97874
loop_
_atom_site_label
_atom_site_type_symbol
_atom_site_fract_x
_atom_site_fract_y
_atom_site_fract_z
_atom_type_partial_charge
O0 O 0.19098 0.26939 0.14069 0.0
Cd1 Cd 0.1778 0.2538 0.15808 0.0
Cd2 Cd 0.17456 0.26522 0.22052 0.0
O3 O 0.19065 0.27746 0.20321 0.0
O4 O 0.18146 0.24218 0.1382 0.0
O5 O 0.18 0.24573 0.20874 0.0
C6 C 0.18214 0.24017 0.17952 0.0
C7 C 0.16944 0.26183 0.29494 0.0
C8 C 0.1953 0.27785 0.16636 0.0
C9 C 0.15739 0.2555 0.14761 0.0
O10 O 0.16163 0.26274 0.17846 0.0
O11 O 0.16204 0.24987 0.13626 0.0
O12 O 0.17163 0.27111 0.2761 0.0
O13 O 0.1705 0.25449 0.27192 0.0
O14 O 0.73102 0.92055 0.14405 0.0
Cd15 Cd 0.74709 0.92361 0.15721 0.0
Cd16 Cd 0.73712 0.90848 0.22058 0.0
O17 O 0.72365 0.91047 0.20423 0.0
O18 O 0.758 0.9391 0.13696 0.0
O19 O 0.75555 0.93388 0.20742 0.0
C20 C 0.76051 0.94171 0.17811 0.0
C21 C 0.7407 0.90687 0.29491 0.0
C22 C 0.72264 0.91512 0.16952 0.0
C23 C 0.74706 0.9022 0.14463 0.0
O24 O 0.74058 0.89885 0.17808 0.0
O25 O 0.75146 0.91235 0.13181 0.0
O26 O 0.73177 0.8993 0.27548 0.0
O27 O 0.7476 0.91564 0.27253 0.0
O28 O 0.07721 0.81037 0.13577 0.0
Cd29 Cd 0.07474 0.82352 0.15272 0.0
Cd30 Cd 0.09034 0.82772 0.21327 0.0
O31 O 0.08757 0.81208 0.19407 0.0
O32 O 0.0593 0.81949 0.1338 0.0
O33 O 0.0647 0.82164 0.20398 0.0
C34 C 0.05683 0.81917 0.17522 0.0
C35 C 0.09242 0.8325 0.28809 0.0
C36 C 0.08251 0.80685 0.1591 0.0
C37 C 0.09639 0.84457 0.13953 0.0
O38 O 0.09986 0.84112 0.17165 0.0
O39 O 0.08615 0.83907 0.12768 0.0
O40 O 0.09975 0.83101 0.2673 0.0
O41 O 0.08359 0.83092 0.26683 0.0
O42 O 0.27142 0.19358 0.35387 0.0
Cd43 Cd 0.25516 0.18062 0.34444 0.0
Cd44 Cd 0.26467 0.17267 0.28869 0.0
O45 O 0.27889 0.18777 0.3032 0.0
O46 O 0.24487 0.18634 0.36029 0.0
O47 O 0.24635 0.1811 0.2924 0.0
C48 C 0.24187 0.18509 0.31923 0.0
C49 C 0.26176 0.16623 0.21572 0.0
C50 C 0.27995 0.19492 0.33228 0.0
C51 C 0.25327 0.15878 0.36957 0.0
O52 O 0.25926 0.16013 0.33558 0.0
O53 O 0.25023 0.1659 0.37885 0.0
O54 O 0.26976 0.16671 0.2395 0.0
O55 O 0.25546 0.16973 0.23301 0.0
O56 O 0.80721 0.07787 0.3495 0.0
Cd57 Cd 0.82007 0.07433 0.34208 0.0
Cd58 Cd 0.82859 0.09158 0.28483 0.0
O59 O 0.81369 0.09117 0.2988 0.0
O60 O 0.81415 0.05831 0.35801 0.0
O61 O 0.81981 0.06506 0.29041 0.0
C62 C 0.81561 0.05658 0.31716 0.0
C63 C 0.83509 0.09545 0.21186 0.0
C64 C 0.80628 0.08523 0.32733 0.0
C65 C 0.84206 0.09408 0.36731 0.0
O66 O 0.84108 0.09854 0.33201 0.0
O67 O 0.83463 0.08411 0.37753 0.0
O68 O 0.83479 0.10291 0.23666 0.0
O69 O 0.83147 0.08554 0.22819 0.0
O70 O 0.92253 0.73165 0.35907 0.0
Cd71 Cd 0.92454 0.74711 0.34205 0.0
Cd72 Cd 0.90971 0.73549 0.28002 0.0
O73 O 0.91385 0.72345 0.29713 0.0
O74 O 0.93998 0.75901 0.35901 0.0
O75 O 0.93405 0.75508 0.28953 0.0
C76 C 0.94209 0.76087 0.31721 0.0
C77 C 0.90711 0.73807 0.20546 0.0
C78 C 0.91834 0.72316 0.33353 0.0
C79 C 0.90234 0.74503 0.35437 0.0
O80 O 0.89939 0.73794 0.32298 0.0
O81 O 0.91262 0.75073 0.36561 0.0
O82 O 0.90032 0.72897 0.2261 0.0
O83 O 0.91566 0.74572 0.22677 0.0
O84 O 0.80913 0.73069 0.85618 0.0
Cd85 Cd 0.82282 0.74597 0.83893 0.0
Cd86 Cd 0.82599 0.73382 0.77919 0.0
O87 O 0.80992 0.72174 0.79706 0.0
O88 O 0.81959 0.75792 0.85835 0.0
O89 O 0.82125 0.75442 0.78798 0.0
C90 C 0.81921 0.76009 0.817 0.0
C91 C 0.83108 0.73675 0.7047 0.0
C92 C 0.80497 0.72188 0.83239 0.0
C93 C 0.84291 0.74372 0.85286 0.0
O94 O 0.83882 0.73647 0.82199 0.0
O95 O 0.83828 0.74944 0.86313 0.0
O96 O 0.82892 0.7276 0.72461 0.0
O97 O 0.83004 0.74423 0.72674 0.0
O98 O 0.27026 0.07674 0.86247 0.0
Cd99 Cd 0.25403 0.0735 0.8528 0.0
Cd100 Cd 0.26363 0.09015 0.79181 0.0
O101 O 0.27762 0.08895 0.80788 0.0
O102 O 0.2436 0.05773 0.87104 0.0
O103 O 0.24515 0.06374 0.80188 0.0
C104 C 0.24061 0.05557 0.83007 0.0
C105 C 0.2619 0.0949 0.71898 0.0
C106 C 0.2787 0.08335 0.83908 0.0
C107 C 0.25247 0.09384 0.87182 0.0
O108 O 0.25831 0.09775 0.83692 0.0
O109 O 0.24938 0.08388 0.88434 0.0
O110 O 0.26975 0.10181 0.74488 0.0
O111 O 0.25516 0.08492 0.73374 0.0
O112 O 0.92364 0.19358 0.85972 0.0
Cd113 Cd 0.92644 0.18048 0.84587 0.0
Cd114 Cd 0.9098 0.17471 0.78712 0.0
O115 O 0.91198 0.19027 0.80419 0.0
O116 O 0.94228 0.18531 0.8615 0.0
O117 O 0.93568 0.18151 0.79288 0.0
C118 C 0.94405 0.18474 0.81985 0.0
C119 C 0.9053 0.16841 0.71407 0.0
C120 C 0.91758 0.19629 0.83695 0.0
C121 C 0.90571 0.15907 0.86467 0.0
O122 O 0.90173 0.16172 0.83184 0.0
O123 O 0.91594 0.16528 0.8757 0.0
O124 O 0.89846 0.16974 0.739 0.0
O125 O 0.9151 0.17125 0.72986 0.0
O126 O 0.73231 0.80905 0.64371 0.0
Cd127 Cd 0.74835 0.82212 0.65668 0.0
Cd128 Cd 0.7384 0.82734 0.72012 0.0
O129 O 0.72493 0.81192 0.7035 0.0
O130 O 0.75942 0.81753 0.63868 0.0
O131 O 0.7567 0.82075 0.70826 0.0
C132 C 0.76182 0.81776 0.68016 0.0
C133 C 0.74157 0.83244 0.79467 0.0
C134 C 0.72392 0.80618 0.66903 0.0
C135 C 0.7483 0.84346 0.6436 0.0
O136 O 0.74197 0.84044 0.67748 0.0
O137 O 0.75261 0.83765 0.63047 0.0
O138 O 0.73277 0.83114 0.77435 0.0
O139 O 0.74859 0.83061 0.77304 0.0
O140 O 0.19149 0.92173 0.64247 0.0
Cd141 Cd 0.17792 0.92384 0.65645 0.0
Cd142 Cd 0.17308 0.90775 0.71605 0.0
O143 O 0.18869 0.91033 0.69843 0.0
O144 O 0.18212 0.93952 0.64059 0.0
O145 O 0.17892 0.93303 0.7094 0.0
C146 C 0.18181 0.94134 0.68238 0.0
C147 C 0.16779 0.90494 0.79059 0.0
C148 C 0.19455 0.91597 0.66545 0.0
C149 C 0.15699 0.90232 0.63955 0.0
O150 O 0.16009 0.89874 0.67237 0.0
O151 O 0.16263 0.9126 0.62832 0.0
O152 O 0.16886 0.89757 0.76809 0.0
O153 O 0.17007 0.9142 0.77105 0.0
O154 O 0.07944 0.26894 0.64292 0.0
Cd155 Cd 0.07672 0.25305 0.65705 0.0
Cd156 Cd 0.09175 0.26341 0.72067 0.0
O157 O 0.08941 0.27658 0.70309 0.0
O158 O 0.0613 0.24189 0.63704 0.0
O159 O 0.06653 0.24461 0.7075 0.0
C160 C 0.05872 0.23949 0.67827 0.0
C161 C 0.09371 0.26068 0.79571 0.0
C162 C 0.08471 0.2774 0.66817 0.0
C163 C 0.09836 0.25353 0.64528 0.0
O164 O 0.10154 0.26 0.67876 0.0
O165 O 0.08822 0.24896 0.63213 0.0
O166 O 0.10112 0.26943 0.77485 0.0
O167 O 0.08494 0.25342 0.77425 0.0
O168 O 0.85925 0.60455 0.47328 0.0
Cd169 Cd 0.84579 0.58901 0.48864 0.0
Cd170 Cd 0.8411 0.6004 0.5482 0.0
O171 O 0.85683 0.61327 0.52976 0.0
O172 O 0.8498 0.57742 0.47227 0.0
O173 O 0.84696 0.58084 0.54136 0.0
C174 C 0.84963 0.57531 0.51403 0.0
C175 C 0.83612 0.59792 0.6229 0.0
C176 C 0.86249 0.6134 0.49622 0.0
C177 C 0.82476 0.58958 0.47271 0.0
O178 O 0.82785 0.5963 0.50541 0.0
O179 O 0.8305 0.58506 0.46125 0.0
O180 O 0.83754 0.60662 0.60131 0.0
O181 O 0.83783 0.59066 0.60247 0.0
O182 O 0.39914 0.25652 0.47164 0.0
Cd183 Cd 0.41524 0.25959 0.48312 0.0
Cd184 Cd 0.40535 0.24313 0.54336 0.0
O185 O 0.39141 0.24426 0.52582 0.0
O186 O 0.42595 0.27545 0.46662 0.0
O187 O 0.42368 0.26902 0.53536 0.0
C188 C 0.42853 0.27735 0.50807 0.0
C189 C 0.40771 0.24 0.61764 0.0
C190 C 0.39054 0.24992 0.4943 0.0
C191 C 0.41667 0.23908 0.46527 0.0
O192 O 0.41066 0.23518 0.49978 0.0
O193 O 0.41991 0.24908 0.45271 0.0
O194 O 0.3997 0.23246 0.59395 0.0
O195 O 0.41431 0.24961 0.59955 0.0
O196 O 0.74492 0.14239 0.47526 0.0
Cd197 Cd 0.74234 0.15568 0.48881 0.0
Cd198 Cd 0.75763 0.16061 0.55168 0.0
O199 O 0.75522 0.14503 0.53473 0.0
O200 O 0.7267 0.15138 0.47176 0.0
O201 O 0.73287 0.15447 0.54105 0.0
C202 C 0.72469 0.15161 0.51342 0.0
C203 C 0.75996 0.16559 0.62646 0.0
C204 C 0.75033 0.13933 0.50038 0.0
C205 C 0.76392 0.17677 0.47511 0.0
O206 O 0.7672 0.17365 0.5088 0.0
O207 O 0.75375 0.17112 0.46238 0.0
O208 O 0.76727 0.16417 0.60519 0.0
O209 O 0.75108 0.16399 0.60559 0.0
O210 O 0.93432 0.52306 0.68854 0.0
Cd211 Cd 0.9179 0.51056 0.67844 0.0
Cd212 Cd 0.92667 0.50327 0.61582 0.0
O213 O 0.9411 0.51795 0.63279 0.0
O214 O 0.90787 0.51632 0.69764 0.0
O215 O 0.90928 0.51208 0.62799 0.0
C216 C 0.90496 0.51583 0.65668 0.0
C217 C 0.92425 0.49785 0.54141 0.0
C218 C 0.94258 0.52459 0.66466 0.0
C219 C 0.91549 0.48813 0.69464 0.0
O220 O 0.9211 0.48995 0.65914 0.0
O221 O 0.91284 0.49525 0.70837 0.0
O222 O 0.93206 0.49797 0.56532 0.0
O223 O 0.91785 0.50113 0.55939 0.0
O224 O 0.47762 0.41337 0.67951 0.0
Cd225 Cd 0.49077 0.4105 0.66676 0.0
Cd226 Cd 0.49601 0.42595 0.60449 0.0
O227 O 0.48057 0.42401 0.62083 0.0
O228 O 0.48623 0.39503 0.68724 0.0
O229 O 0.48922 0.40024 0.61681 0.0
C230 C 0.4863 0.39242 0.64621 0.0
C231 C 0.50125 0.42748 0.53016 0.0
C232 C 0.47477 0.41904 0.65489 0.0
C233 C 0.51198 0.43199 0.68131 0.0
O234 O 0.50899 0.43541 0.64765 0.0
O235 O 0.50622 0.42179 0.69356 0.0
O236 O 0.50012 0.4352 0.54964 0.0
O237 O 0.4991 0.41863 0.55259 0.0
O238 O 0.58958 0.06473 0.69029 0.0
Cd239 Cd 0.59209 0.08052 0.67673 0.0
Cd240 Cd 0.57659 0.06999 0.61436 0.0
O241 O 0.57949 0.05701 0.63037 0.0
O242 O 0.60754 0.09174 0.6961 0.0
O243 O 0.60206 0.08912 0.62595 0.0
C244 C 0.60996 0.09426 0.65485 0.0
C245 C 0.5742 0.07292 0.54002 0.0
C246 C 0.58444 0.05631 0.66477 0.0
C247 C 0.57053 0.08005 0.6911 0.0
O248 O 0.5671 0.07357 0.65762 0.0
O249 O 0.58072 0.08448 0.70343 0.0
O250 O 0.56695 0.06406 0.56079 0.0
O251 O 0.58308 0.08013 0.56108 0.0
O252 O 0.47596 0.06409 0.18944 0.0
Cd253 Cd 0.48923 0.07985 0.17443 0.0
Cd254 Cd 0.49354 0.06875 0.11272 0.0
O255 O 0.47758 0.05607 0.12886 0.0
O256 O 0.4851 0.09118 0.19333 0.0
O257 O 0.48763 0.0882 0.12322 0.0
C258 C 0.485 0.09349 0.15194 0.0
C259 C 0.49906 0.07117 0.03842 0.0
C260 C 0.47229 0.05559 0.16407 0.0
C261 C 0.50992 0.07887 0.18889 0.0
O262 O 0.50637 0.072 0.15667 0.0
O263 O 0.50472 0.08396 0.20017 0.0
O264 O 0.4975 0.06253 0.06078 0.0
O265 O 0.49716 0.07842 0.05793 0.0
O266 O 0.93558 0.41096 0.18522 0.0
Cd267 Cd 0.91938 0.40773 0.17482 0.0
Cd268 Cd 0.92891 0.42415 0.11443 0.0
O269 O 0.94305 0.4233 0.13115 0.0
O270 O 0.90884 0.39185 0.19169 0.0
O271 O 0.91078 0.39824 0.12298 0.0
C272 C 0.9061 0.38991 0.1504 0.0
C273 C 0.92596 0.42677 0.04026 0.0
C274 C 0.94408 0.41767 0.16233 0.0
C275 C 0.9177 0.4281 0.193 0.0
O276 O 0.92359 0.43204 0.15822 0.0
O277 O 0.91465 0.41815 0.20561 0.0
O278 O 0.93407 0.43453 0.06289 0.0
O279 O 0.91962 0.41723 0.05936 0.0
O280 O 0.58981 0.5238 0.18949 0.0
Cd281 Cd 0.59238 0.51087 0.16918 0.0
Cd282 Cd 0.57703 0.50747 0.11014 0.0
O283 O 0.58118 0.5236 0.12779 0.0
O284 O 0.60785 0.51439 0.18579 0.0
O285 O 0.60228 0.51385 0.11643 0.0
C286 C 0.61019 0.51561 0.14404 0.0
C287 C 0.57473 0.50217 0.03588 0.0
C288 C 0.58556 0.52817 0.1646 0.0
C289 C 0.57049 0.49028 0.18171 0.0
O290 O 0.567 0.49466 0.15333 0.0
O291 O 0.58093 0.49484 0.19011 0.0
O292 O 0.56779 0.50443 0.05568 0.0
O293 O 0.58328 0.50326 0.05783 0.0
O294 O 0.39815 0.14212 0.97371 0.0
Cd295 Cd 0.41429 0.15521 0.98401 0.0
Cd296 Cd 0.40461 0.16199 0.04439 0.0
O297 O 0.3906 0.14688 0.0279 0.0
O298 O 0.42495 0.14999 0.96748 0.0
O299 O 0.4229 0.15444 0.03606 0.0
C300 C 0.42765 0.15083 0.00882 0.0
C301 C 0.40734 0.16765 0.11846 0.0
C302 C 0.38964 0.14022 0.99674 0.0
C303 C 0.41565 0.17709 0.96546 0.0
O304 O 0.40976 0.1751 0.00027 0.0
O305 O 0.41884 0.17029 0.95297 0.0
O306 O 0.39923 0.16716 0.09537 0.0
O307 O 0.41383 0.16457 0.09988 0.0
O308 O 0.85718 0.25476 0.97232 0.0
Cd309 Cd 0.84393 0.25709 0.98959 0.0
Cd310 Cd 0.84071 0.24238 0.05169 0.0
O311 O 0.85686 0.24635 0.0348 0.0
O312 O 0.84753 0.27236 0.96992 0.0
O313 O 0.84599 0.26728 0.04039 0.0
C314 C 0.84812 0.275 0.01127 0.0
C315 C 0.83537 0.24041 0.1259 0.0
C316 C 0.86152 0.25064 0.99801 0.0
C317 C 0.82366 0.23495 0.97833 0.0
O318 O 0.82791 0.23194 0.00914 0.0
O319 O 0.82823 0.24523 0.96731 0.0
O320 O 0.8377 0.23342 0.10694 0.0
O321 O 0.83642 0.24884 0.10315 0.0
O322 O 0.74572 0.60422 0.97209 0.0
Cd323 Cd 0.74366 0.58874 0.98934 0.0
Cd324 Cd 0.7588 0.6004 0.05053 0.0
O325 O 0.75479 0.61252 0.03336 0.0
O326 O 0.72829 0.57665 0.97264 0.0
O327 O 0.73406 0.58114 0.04215 0.0
C328 C 0.72612 0.5751 0.01448 0.0
C329 C 0.76186 0.59806 0.12496 0.0
C330 C 0.75011 0.61276 0.99739 0.0
C331 C 0.76571 0.5905 0.97601 0.0
O332 O 0.76883 0.59766 0.00717 0.0
O333 O 0.75539 0.58488 0.96536 0.0
O334 O 0.76873 0.60689 0.10303 0.0
O335 O 0.7529 0.5906 0.10499 0.0
O336 O 0.52671 0.93775 0.80474 0.0
Cd337 Cd 0.51326 0.92251 0.8239 0.0
Cd338 Cd 0.5104 0.93485 0.88375 0.0
O339 O 0.52634 0.94689 0.86401 0.0
O340 O 0.5166 0.91043 0.80748 0.0
O341 O 0.51511 0.91483 0.87679 0.0
C342 C 0.51715 0.90885 0.84935 0.0
C343 C 0.50573 0.93249 0.95878 0.0
C344 C 0.53101 0.94664 0.82802 0.0
C345 C 0.49306 0.92456 0.81138 0.0
O346 O 0.49731 0.9319 0.84187 0.0
O347 O 0.49764 0.91881 0.80079 0.0
O348 O 0.50775 0.94148 0.93787 0.0
O349 O 0.50669 0.92487 0.93745 0.0
O350 O 0.06225 0.58816 0.80871 0.0
Cd351 Cd 0.0788 0.59236 0.81762 0.0
Cd352 Cd 0.07048 0.57538 0.87564 0.0
O353 O 0.05573 0.57522 0.86088 0.0
O354 O 0.08853 0.60846 0.80181 0.0
O355 O 0.0873 0.6018 0.8697 0.0
C356 C 0.09148 0.61028 0.84292 0.0
C357 C 0.0734 0.57214 0.94906 0.0
C358 C 0.05406 0.5808 0.83126 0.0
C359 C 0.08193 0.57304 0.79447 0.0
O360 O 0.07634 0.56851 0.82942 0.0
O361 O 0.08427 0.58293 0.78383 0.0
O362 O 0.0657 0.56439 0.92497 0.0
O363 O 0.07944 0.58197 0.93175 0.0
O364 O 0.41469 0.47608 0.81655 0.0
Cd365 Cd 0.4114 0.48904 0.82619 0.0
Cd366 Cd 0.42732 0.49577 0.88833 0.0
O367 O 0.42649 0.48074 0.87246 0.0
O368 O 0.39582 0.48383 0.8054 0.0
O369 O 0.4011 0.4878 0.8755 0.0
C370 C 0.39322 0.48433 0.84609 0.0
C371 C 0.42878 0.50105 0.96253 0.0
C372 C 0.42116 0.47419 0.84056 0.0
C373 C 0.43218 0.51097 0.80959 0.0
O374 O 0.43588 0.50895 0.84491 0.0
O375 O 0.42222 0.50423 0.79652 0.0
O376 O 0.43679 0.50053 0.94258 0.0
O377 O 0.41968 0.49827 0.94068 0.0
O378 O 0.60415 0.85861 0.01874 0.0
Cd379 Cd 0.5877 0.84602 0.00991 0.0
Cd380 Cd 0.59637 0.83841 0.9479 0.0
O381 O 0.61087 0.85311 0.96399 0.0
O382 O 0.57777 0.85187 0.02954 0.0
O383 O 0.57878 0.84729 0.95999 0.0
C384 C 0.57461 0.85117 0.98883 0.0
C385 C 0.59368 0.83263 0.87392 0.0
C386 C 0.61239 0.85996 0.99509 0.0
C387 C 0.58534 0.82365 0.02775 0.0
O388 O 0.59085 0.82528 0.99209 0.0
O389 O 0.58276 0.83085 0.04102 0.0
O390 O 0.60156 0.83285 0.89763 0.0
O391 O 0.58737 0.83603 0.89181 0.0
O392 O 0.14155 0.74635 0.02673 0.0
Cd393 Cd 0.15422 0.7428 0.01413 0.0
Cd394 Cd 0.16127 0.76009 0.95765 0.0
O395 O 0.14547 0.75784 0.97011 0.0
O396 O 0.14857 0.72692 0.03153 0.0
O397 O 0.15276 0.73301 0.96238 0.0
C398 C 0.14909 0.72478 0.99028 0.0
C399 C 0.1688 0.76523 0.88646 0.0
C400 C 0.13916 0.75242 0.00247 0.0
C401 C 0.17566 0.76297 0.03792 0.0
O402 O 0.17343 0.76759 0.0061 0.0
O403 O 0.16932 0.75256 0.04568 0.0
O404 O 0.16718 0.77191 0.91131 0.0
O405 O 0.16562 0.75527 0.90124 0.0
O406 O 0.25779 0.39688 0.02643 0.0
Cd407 Cd 0.26066 0.41276 0.01174 0.0
Cd408 Cd 0.24411 0.40183 0.95281 0.0
O409 O 0.24627 0.38848 0.97058 0.0
O410 O 0.2765 0.42376 0.02725 0.0
O411 O 0.26993 0.42074 0.95855 0.0
C412 C 0.2783 0.42595 0.98549 0.0
C413 C 0.23972 0.40352 0.87947 0.0
C414 C 0.25178 0.38808 0.00371 0.0
C415 C 0.23993 0.41352 0.02958 0.0
O416 O 0.23598 0.40682 0.99694 0.0
O417 O 0.25015 0.41757 0.04079 0.0
O418 O 0.23284 0.39539 0.90449 0.0
O419 O 0.2495 0.41051 0.89538 0.0
O420 O 0.14167 0.3955 0.51513 0.0
Cd421 Cd 0.15445 0.41189 0.50723 0.0
Cd422 Cd 0.16292 0.40318 0.44986 0.0
O423 O 0.14807 0.38866 0.46413 0.0
O424 O 0.14845 0.42196 0.52284 0.0
O425 O 0.15403 0.42071 0.45524 0.0
C426 C 0.1498 0.42501 0.48183 0.0
C427 C 0.16928 0.40589 0.37669 0.0
C428 C 0.14072 0.38721 0.49294 0.0
C429 C 0.17652 0.41425 0.53192 0.0
O430 O 0.17548 0.40875 0.49675 0.0
O431 O 0.1691 0.41681 0.54222 0.0
O432 O 0.16908 0.39814 0.40122 0.0
O433 O 0.16563 0.41212 0.39343 0.0
O434 O 0.60541 0.74588 0.51801 0.0
Cd435 Cd 0.58897 0.74203 0.50906 0.0
Cd436 Cd 0.59767 0.75842 0.44773 0.0
O437 O 0.6122 0.75825 0.46377 0.0
O438 O 0.57896 0.72612 0.52686 0.0
O439 O 0.58027 0.73224 0.45799 0.0
C440 C 0.57599 0.72399 0.48584 0.0
C441 C 0.5948 0.76139 0.37383 0.0
C442 C 0.61368 0.75283 0.49464 0.0
C443 C 0.58647 0.76193 0.52754 0.0
O444 O 0.59203 0.7659 0.49208 0.0
O445 O 0.58392 0.75214 0.54054 0.0
O446 O 0.6027 0.76912 0.39726 0.0
O447 O 0.5886 0.75169 0.39193 0.0
O448 O 0.26033 0.86396 0.52165 0.0
Cd449 Cd 0.26356 0.85089 0.51454 0.0
Cd450 Cd 0.24576 0.84242 0.45887 0.0
O451 O 0.24679 0.85765 0.47192 0.0
O452 O 0.27962 0.8567 0.52963 0.0
O453 O 0.27258 0.85073 0.4626 0.0
C454 C 0.28116 0.85496 0.48889 0.0
C455 C 0.24016 0.83487 0.38782 0.0
C456 C 0.25303 0.86508 0.49991 0.0
C457 C 0.24381 0.8293 0.54232 0.0
O458 O 0.23917 0.83033 0.50766 0.0
O459 O 0.25392 0.83657 0.5514 0.0
O460 O 0.23343 0.83583 0.41472 0.0
O461 O 0.2504 0.83861 0.40062 0.0
O462 O 0.06338 0.47432 0.30049 0.0
Cd463 Cd 0.07959 0.48716 0.31158 0.0
Cd464 Cd 0.06989 0.49395 0.37259 0.0
O465 O 0.05589 0.47889 0.35549 0.0
O466 O 0.09005 0.48183 0.29349 0.0
O467 O 0.08814 0.4859 0.36287 0.0
C468 C 0.09279 0.48239 0.33468 0.0
C469 C 0.0718 0.50007 0.44599 0.0
C470 C 0.05488 0.47238 0.3237 0.0
C471 C 0.08137 0.50922 0.29412 0.0
O472 O 0.07533 0.50711 0.32854 0.0
O473 O 0.0845 0.5024 0.28139 0.0
O474 O 0.06391 0.4993 0.42075 0.0
O475 O 0.07847 0.49685 0.4302 0.0
O476 O 0.52668 0.58773 0.31038 0.0
Cd477 Cd 0.51366 0.59048 0.32764 0.0
Cd478 Cd 0.50898 0.57407 0.38473 0.0
O479 O 0.52468 0.57685 0.36726 0.0
O480 O 0.5181 0.60602 0.30866 0.0
O481 O 0.51583 0.60066 0.37886 0.0
C482 C 0.51847 0.60855 0.35002 0.0
C483 C 0.50351 0.57142 0.45891 0.0
C484 C 0.53008 0.5822 0.33304 0.0
C485 C 0.49252 0.56919 0.31078 0.0
O486 O 0.49602 0.56518 0.34064 0.0
O487 O 0.49791 0.57964 0.30215 0.0
O488 O 0.5047 0.56402 0.43716 0.0
O489 O 0.50582 0.58064 0.43888 0.0
O490 O 0.41459 0.93765 0.3059 0.0
Cd491 Cd 0.41312 0.92249 0.32433 0.0
Cd492 Cd 0.42809 0.9349 0.38457 0.0
O493 O 0.4238 0.94672 0.36574 0.0
O494 O 0.39801 0.91036 0.30516 0.0
O495 O 0.4031 0.91428 0.37547 0.0
C496 C 0.39543 0.90843 0.34659 0.0
C497 C 0.43011 0.93204 0.4593 0.0
C498 C 0.41891 0.94646 0.32968 0.0
C499 C 0.43566 0.92517 0.31213 0.0
O500 O 0.43858 0.9325 0.34256 0.0
O501 O 0.42535 0.91919 0.30163 0.0
O502 O 0.43702 0.94126 0.43961 0.0
O503 O 0.42173 0.92446 0.43691 0.0
C504 C 0.23106 0.18788 0.25831 0.0
C505 C 0.23383 0.18853 0.30342 0.0
C506 C 0.224 0.1918 0.24332 0.0
C507 C 0.20335 0.19999 0.28135 0.0
H508 H 0.21282 0.21868 0.17625 0.0
C509 C 0.18757 0.23072 0.23767 0.0
C510 C 0.18588 0.23218 0.19282 0.0
C511 C 0.19209 0.22398 0.24984 0.0
C512 C 0.20993 0.21333 0.20524 0.0
H513 H 0.23113 0.19355 0.36829 0.0
H514 H 0.21896 0.20048 0.34216 0.0
H515 H 0.22309 0.20937 0.19952 0.0
H516 H 0.18719 0.22733 0.1257 0.0
H517 H 0.19496 0.21548 0.14699 0.0
H518 H 0.19032 0.20416 0.28751 0.0
C519 C 0.22212 0.19683 0.31836 0.0
C520 C 0.21583 0.20799 0.21858 0.0
C521 C 0.22917 0.19292 0.33332 0.0
C522 C 0.18845 0.22644 0.16054 0.0
C523 C 0.19297 0.2197 0.17271 0.0
C524 C 0.19745 0.20535 0.26802 0.0
C525 C 0.21955 0.19644 0.27313 0.0
C526 C 0.2127 0.20137 0.25711 0.0
C527 C 0.19502 0.21854 0.21744 0.0
C528 C 0.20076 0.21219 0.23009 0.0
H529 H 0.23448 0.1845 0.23445 0.0
H530 H 0.22207 0.19126 0.20833 0.0
H531 H 0.20061 0.1948 0.31082 0.0
H532 H 0.18569 0.23504 0.26335 0.0
H533 H 0.19367 0.22335 0.28457 0.0
C534 C 0.80781 0.03606 0.33143 0.0
C535 C 0.81217 0.04509 0.30144 0.0
C536 C 0.80388 0.02509 0.31655 0.0
C537 C 0.7924 0.00759 0.21729 0.0
H538 H 0.79664 0.986 0.28501 0.0
C539 C 0.77384 0.96181 0.15881 0.0
C540 C 0.76841 0.95346 0.19123 0.0
C541 C 0.78055 0.97308 0.17091 0.0
C542 C 0.79533 0.99191 0.26588 0.0
H543 H 0.81609 0.04972 0.23239 0.0
H544 H 0.80925 0.03054 0.20638 0.0
H545 H 0.80601 0.00564 0.30831 0.0
H546 H 0.76606 0.95035 0.26188 0.0
H547 H 0.77766 0.97003 0.283 0.0
H548 H 0.78154 0.99387 0.17541 0.0
C549 C 0.80878 0.03195 0.24139 0.0
C550 C 0.8007 0.00317 0.2792 0.0
C551 C 0.81275 0.04294 0.25632 0.0
C552 C 0.77014 0.95658 0.23609 0.0
C553 C 0.77684 0.96786 0.2482 0.0
C554 C 0.78702 0.99635 0.20401 0.0
C555 C 0.80418 0.02288 0.2713 0.0
C556 C 0.7992 0.01111 0.25535 0.0
C557 C 0.78198 0.97627 0.21572 0.0
C558 C 0.78831 0.98834 0.22841 0.0
H559 H 0.80724 0.03742 0.36643 0.0
H560 H 0.80027 0.0183 0.3404 0.0
H561 H 0.79092 0.01345 0.19857 0.0
H562 H 0.77275 0.95969 0.12394 0.0
H563 H 0.78454 0.97931 0.14508 0.0
C564 C 0.96246 0.77429 0.33191 0.0
C565 C 0.95357 0.76895 0.30156 0.0
C566 C 0.97348 0.78115 0.31709 0.0
C567 C 0.99119 0.78559 0.219 0.0
H568 H 0.01293 0.81214 0.28281 0.0
C569 C 0.03666 0.81242 0.15722 0.0
C570 C 0.04515 0.81547 0.18913 0.0
C571 C 0.02546 0.80798 0.17002 0.0
C572 C 0.00696 0.80471 0.2648 0.0
H573 H 0.9492 0.76701 0.23186 0.0
H574 H 0.9684 0.77912 0.206 0.0
H575 H 0.99328 0.80226 0.30635 0.0
H576 H 0.04858 0.81661 0.25961 0.0
H577 H 0.02898 0.80878 0.28197 0.0
H578 H 0.00485 0.78795 0.17777 0.0
C579 C 0.9669 0.77783 0.24127 0.0
C580 C 0.99571 0.79904 0.27827 0.0
C581 C 0.95588 0.77094 0.2561 0.0
C582 C 0.04224 0.81434 0.2342 0.0
C583 C 0.03101 0.8099 0.24702 0.0
C584 C 0.00241 0.79127 0.20547 0.0
C585 C 0.97587 0.78286 0.27155 0.0
C586 C 0.9877 0.78935 0.25576 0.0
C587 C 0.02247 0.80648 0.21503 0.0
C588 C 0.01045 0.80084 0.2284 0.0
H589 H 0.96098 0.77293 0.36717 0.0
H590 H 0.98018 0.78477 0.34134 0.0
H591 H 0.98532 0.77804 0.20139 0.0
H592 H 0.03862 0.81324 0.12221 0.0
H593 H 0.0191 0.80559 0.14458 0.0
C594 C 0.81336 0.77418 0.83569 0.0
C595 C 0.81585 0.76836 0.80348 0.0
C596 C 0.80911 0.78114 0.82337 0.0
C597 C 0.80528 0.79602 0.72851 0.0
H598 H 0.77951 0.79206 0.79588 0.0
C599 C 0.77463 0.81012 0.66443 0.0
C600 C 0.76983 0.81419 0.6951 0.0
C601 C 0.78149 0.80591 0.67871 0.0
C602 C 0.78682 0.79344 0.77714 0.0
H603 H 0.81624 0.76562 0.73294 0.0
H604 H 0.80873 0.77772 0.71144 0.0
H605 H 0.78937 0.78231 0.81869 0.0
H606 H 0.7688 0.81743 0.76473 0.0
H607 H 0.78091 0.81022 0.78963 0.0
H608 H 0.8026 0.80704 0.68657 0.0
C609 C 0.81015 0.77697 0.74623 0.0
C610 C 0.79247 0.78783 0.79022 0.0
C611 C 0.8144 0.76999 0.75856 0.0
C612 C 0.77232 0.81429 0.74027 0.0
C613 C 0.77921 0.81009 0.75456 0.0
C614 C 0.79963 0.80166 0.71546 0.0
C615 C 0.80725 0.78245 0.77857 0.0
C616 C 0.80171 0.78897 0.76585 0.0
C617 C 0.78373 0.80569 0.72401 0.0
C618 C 0.79026 0.80034 0.73938 0.0
H619 H 0.81444 0.77316 0.87058 0.0
H620 H 0.80713 0.78538 0.84904 0.0
H621 H 0.81245 0.79719 0.70936 0.0
H622 H 0.77287 0.80991 0.62938 0.0
H623 H 0.78472 0.80246 0.65431 0.0
C624 C 0.23021 0.04124 0.77083 0.0
C625 C 0.23254 0.04395 0.8159 0.0
C626 C 0.22324 0.03008 0.75762 0.0
C627 C 0.21325 0.00118 0.79665 0.0
H628 H 0.1924 0.99278 0.69843 0.0
C629 C 0.18574 0.95493 0.74451 0.0
C630 C 0.18533 0.95278 0.69887 0.0
C631 C 0.19012 0.96592 0.76008 0.0
C632 C 0.19823 0.995 0.72578 0.0
H633 H 0.229 0.03713 0.88253 0.0
H634 H 0.21677 0.01775 0.85956 0.0
H635 H 0.20268 0.01233 0.723 0.0
H636 H 0.18881 0.96045 0.63372 0.0
H637 H 0.19654 0.9796 0.66085 0.0
H638 H 0.20899 0.98395 0.79907 0.0
C639 C 0.22049 0.02419 0.83433 0.0
C640 C 0.20413 0.00621 0.73982 0.0
C641 C 0.22746 0.03532 0.84751 0.0
C642 C 0.18901 0.96181 0.6691 0.0
C643 C 0.19339 0.9728 0.68466 0.0
C644 C 0.20737 0.99001 0.78265 0.0
C645 C 0.21844 0.0214 0.78922 0.0
C646 C 0.21177 0.00944 0.77524 0.0
C647 C 0.19419 0.97501 0.73035 0.0
C648 C 0.19985 0.98679 0.74684 0.0
H649 H 0.234 0.04769 0.74567 0.0
H650 H 0.22191 0.0282 0.72258 0.0
H651 H 0.21922 0.00341 0.82352 0.0
H652 H 0.18293 0.94815 0.76831 0.0
H653 H 0.19046 0.96732 0.79547 0.0
C654 C 0.03857 0.22627 0.65919 0.0
C655 C 0.04697 0.23156 0.69152 0.0
C656 C 0.02731 0.2196 0.67145 0.0
C657 C 0.00851 0.20452 0.76587 0.0
H658 H 0.98719 0.20987 0.70146 0.0
C659 C 0.96449 0.19191 0.83351 0.0
C660 C 0.95548 0.18812 0.8036 0.0
C661 C 0.97543 0.19583 0.81827 0.0
C662 C 0.99298 0.20811 0.71934 0.0
H663 H 0.0502 0.23366 0.76216 0.0
H664 H 0.03052 0.22208 0.78357 0.0
H665 H 0.00674 0.21913 0.67791 0.0
H666 H 0.95084 0.18515 0.73423 0.0
H667 H 0.96995 0.1919 0.70759 0.0
H668 H 0.99474 0.19363 0.80775 0.0
C669 C 0.03265 0.22302 0.74871 0.0
C670 C 0.0042 0.21343 0.70585 0.0
C671 C 0.04392 0.2297 0.73644 0.0
C672 C 0.95761 0.18806 0.75812 0.0
C673 C 0.96857 0.19198 0.74285 0.0
C674 C 0.99726 0.19918 0.77935 0.0
C675 C 0.02419 0.21806 0.71633 0.0
C676 C 0.01213 0.2118 0.72922 0.0
C677 C 0.97763 0.19604 0.77273 0.0
C678 C 0.98939 0.20102 0.75655 0.0
H679 H 0.04064 0.22747 0.62428 0.0
H680 H 0.02102 0.21575 0.64571 0.0
H681 H 0.01437 0.20296 0.7842 0.0
H682 H 0.96315 0.19208 0.86878 0.0
H683 H 0.98221 0.19902 0.84217 0.0
C684 C 0.85638 0.5617 0.49988 0.0
C685 C 0.853 0.56724 0.53005 0.0
C686 C 0.86049 0.55482 0.51493 0.0
C687 C 0.87417 0.55074 0.61213 0.0
H688 H 0.86822 0.52342 0.5515 0.0
C689 C 0.89254 0.52375 0.67505 0.0
C690 C 0.89727 0.51991 0.64306 0.0
C691 C 0.88596 0.5284 0.66236 0.0
C692 C 0.87002 0.53107 0.56859 0.0
H693 H 0.85089 0.56955 0.59971 0.0
H694 H 0.85796 0.55743 0.626 0.0
H695 H 0.85862 0.53345 0.52777 0.0
H696 H 0.89854 0.51767 0.57265 0.0
H697 H 0.88714 0.52593 0.55042 0.0
H698 H 0.88569 0.54849 0.65247 0.0
C699 C 0.85759 0.55855 0.59067 0.0
C700 C 0.86452 0.53682 0.55502 0.0
C701 C 0.85348 0.56544 0.5756 0.0
C702 C 0.895 0.52054 0.5981 0.0
C703 C 0.88842 0.52522 0.58538 0.0
C704 C 0.87966 0.54501 0.62567 0.0
C705 C 0.86132 0.5533 0.56052 0.0
C706 C 0.8666 0.54677 0.57644 0.0
C707 C 0.88397 0.52937 0.61736 0.0
C708 C 0.87772 0.53514 0.6039 0.0
H709 H 0.85612 0.5629 0.46455 0.0
H710 H 0.86339 0.551 0.4908 0.0
H711 H 0.87614 0.55849 0.62884 0.0
H712 H 0.89405 0.52332 0.71 0.0
H713 H 0.8825 0.53133 0.68786 0.0
C714 C 0.44142 0.29783 0.49356 0.0
C715 C 0.43642 0.28888 0.52382 0.0
C716 C 0.44822 0.30885 0.5084 0.0
C717 C 0.45297 0.32652 0.60649 0.0
H718 H 0.47934 0.34824 0.54175 0.0
C719 C 0.47943 0.37231 0.66585 0.0
C720 C 0.48258 0.38067 0.63331 0.0
C721 C 0.47502 0.36106 0.65385 0.0
C722 C 0.47195 0.34229 0.56003 0.0
H723 H 0.43494 0.28444 0.59337 0.0
H724 H 0.4469 0.3037 0.61929 0.0
H725 H 0.46949 0.32857 0.51869 0.0
H726 H 0.48391 0.38381 0.56259 0.0
H727 H 0.4761 0.36415 0.54163 0.0
H728 H 0.45528 0.34023 0.64733 0.0
C729 C 0.44543 0.3022 0.58408 0.0
C730 C 0.46632 0.33101 0.54684 0.0
C731 C 0.43863 0.29115 0.56921 0.0
C732 C 0.48157 0.37758 0.58847 0.0
C733 C 0.47714 0.3663 0.57646 0.0
C734 C 0.4586 0.33777 0.61966 0.0
C735 C 0.45018 0.31119 0.55387 0.0
C736 C 0.45668 0.32302 0.56964 0.0
C737 C 0.47365 0.35789 0.60903 0.0
C738 C 0.4681 0.34582 0.59634 0.0
H739 H 0.4399 0.29638 0.45835 0.0
H740 H 0.45163 0.31558 0.48425 0.0
H741 H 0.44547 0.32063 0.62435 0.0
H742 H 0.48017 0.37442 0.7007 0.0
H743 H 0.47259 0.35481 0.67976 0.0
C744 C 0.70425 0.14432 0.4988 0.0
C745 C 0.71319 0.14813 0.52908 0.0
C746 C 0.69323 0.14011 0.51367 0.0
C747 C 0.67565 0.12704 0.61197 0.0
H748 H 0.65373 0.13152 0.54785 0.0
C749 C 0.63007 0.10778 0.67326 0.0
C750 C 0.62162 0.10237 0.6412 0.0
C751 C 0.64127 0.11467 0.66064 0.0
C752 C 0.65974 0.13014 0.56596 0.0
H753 H 0.71762 0.15092 0.59868 0.0
H754 H 0.69839 0.1437 0.62462 0.0
H755 H 0.67337 0.14141 0.52426 0.0
H756 H 0.61825 0.10026 0.57067 0.0
H757 H 0.63783 0.11222 0.54861 0.0
H758 H 0.66204 0.11566 0.65322 0.0
C759 C 0.69988 0.14379 0.58938 0.0
C760 C 0.67099 0.1358 0.55246 0.0
C761 C 0.71091 0.14799 0.5745 0.0
C762 C 0.62456 0.10432 0.59618 0.0
C763 C 0.63578 0.11121 0.58355 0.0
C764 C 0.66442 0.1214 0.62547 0.0
C765 C 0.69089 0.13962 0.55918 0.0
C766 C 0.67906 0.13424 0.57508 0.0
C767 C 0.64429 0.11631 0.61566 0.0
C768 C 0.65631 0.12281 0.60243 0.0
H769 H 0.70571 0.1443 0.46357 0.0
H770 H 0.6865 0.13686 0.48952 0.0
H771 H 0.68158 0.12546 0.62966 0.0
H772 H 0.62809 0.10653 0.70824 0.0
H773 H 0.64759 0.11862 0.6862 0.0
C774 C 0.47859 0.10718 0.16987 0.0
C775 C 0.4814 0.10154 0.13799 0.0
C776 C 0.47426 0.11404 0.15707 0.0
C777 C 0.47083 0.129 0.0614 0.0
H778 H 0.44486 0.1251 0.12715 0.0
C779 C 0.44035 0.14298 0.99456 0.0
C780 C 0.43558 0.14723 0.0246 0.0
C781 C 0.44714 0.13876 0.00956 0.0
C782 C 0.45222 0.12645 0.10886 0.0
H783 H 0.48222 0.09898 0.06755 0.0
H784 H 0.47455 0.11088 0.04518 0.0
H785 H 0.4546 0.1153 0.15094 0.0
H786 H 0.43452 0.15074 0.09389 0.0
H787 H 0.44648 0.14346 0.12008 0.0
H788 H 0.4683 0.14001 0.01887 0.0
C789 C 0.4758 0.11008 0.08011 0.0
C790 C 0.45781 0.12082 0.1225 0.0
C791 C 0.48014 0.10321 0.09293 0.0
C792 C 0.43802 0.14748 0.0699 0.0
C793 C 0.44482 0.14325 0.08493 0.0
C794 C 0.46523 0.13464 0.04776 0.0
C795 C 0.47263 0.11542 0.11208 0.0
C796 C 0.46712 0.12194 0.09872 0.0
C797 C 0.44933 0.13869 0.05499 0.0
C798 C 0.45579 0.13335 0.07108 0.0
H799 H 0.47953 0.10614 0.20487 0.0
H800 H 0.47209 0.11819 0.1825 0.0
H801 H 0.47807 0.13016 0.04272 0.0
H802 H 0.43863 0.14266 0.95943 0.0
H803 H 0.45035 0.13519 0.98564 0.0
C804 C 0.8543 0.29501 0.9925 0.0
C805 C 0.85174 0.28668 0.02471 0.0
C806 C 0.85867 0.30624 0.00481 0.0
C807 C 0.86264 0.32491 0.10004 0.0
H808 H 0.88831 0.34677 0.03238 0.0
C809 C 0.89351 0.36939 0.16514 0.0
C810 C 0.89817 0.37837 0.13492 0.0
C811 C 0.88665 0.35837 0.15043 0.0
C812 C 0.88104 0.34082 0.05121 0.0
H813 H 0.8514 0.28357 0.09524 0.0
H814 H 0.85913 0.30319 0.11671 0.0
H815 H 0.87839 0.32719 0.00919 0.0
H816 H 0.89898 0.38286 0.06563 0.0
H817 H 0.8869 0.36361 0.03996 0.0
H818 H 0.86543 0.33856 0.14248 0.0
C819 C 0.85766 0.30102 0.08193 0.0
C820 C 0.87534 0.32958 0.03791 0.0
C821 C 0.85328 0.28978 0.06961 0.0
C822 C 0.89556 0.37612 0.08975 0.0
C823 C 0.88869 0.36508 0.07501 0.0
C824 C 0.86833 0.33618 0.11332 0.0
C825 C 0.86059 0.30941 0.04961 0.0
C826 C 0.86615 0.32147 0.06242 0.0
C827 C 0.88427 0.35606 0.10513 0.0
C828 C 0.87768 0.34424 0.08934 0.0
H829 H 0.85315 0.2929 0.95762 0.0
H830 H 0.86067 0.31246 0.97915 0.0
H831 H 0.8555 0.3189 0.11927 0.0
H832 H 0.89535 0.37083 0.20018 0.0
H833 H 0.88351 0.35163 0.17448 0.0
C834 C 0.62929 0.51795 0.15502 0.0
C835 C 0.62176 0.51951 0.12864 0.0
C836 C 0.64048 0.52237 0.142 0.0
C837 C 0.66009 0.53597 0.04612 0.0
H838 H 0.68256 0.54685 0.13896 0.0
C839 C 0.70723 0.55811 0.00291 0.0
C840 C 0.71465 0.56707 0.02998 0.0
C841 C 0.69609 0.55105 0.01593 0.0
C842 C 0.67644 0.544 0.11247 0.0
H843 H 0.61999 0.52684 0.06787 0.0
H844 H 0.63958 0.53506 0.04618 0.0
H845 H 0.66284 0.53732 0.15848 0.0
H846 H 0.71631 0.57564 0.09209 0.0
H847 H 0.69679 0.56377 0.11388 0.0
H848 H 0.67368 0.54342 0.00018 0.0
C849 C 0.63685 0.53008 0.07613 0.0
C850 C 0.66504 0.53829 0.12372 0.0
C851 C 0.62559 0.52542 0.08866 0.0
C852 C 0.71079 0.56872 0.07073 0.0
C853 C 0.69957 0.56184 0.0833 0.0
C854 C 0.67149 0.5419 0.03489 0.0
C855 C 0.64451 0.52871 0.10281 0.0
C856 C 0.65668 0.53426 0.09072 0.0
C857 C 0.69201 0.55296 0.05586 0.0
C858 C 0.67985 0.54608 0.0679 0.0
H859 H 0.62652 0.51333 0.18586 0.0
H860 H 0.64598 0.52084 0.16295 0.0
H861 H 0.65398 0.53282 0.0196 0.0
H862 H 0.71003 0.55659 0.97147 0.0
H863 H 0.69067 0.54415 0.99437 0.0
C864 C 0.52369 0.89507 0.83494 0.0
C865 C 0.52069 0.90089 0.86526 0.0
C866 C 0.52805 0.88838 0.84974 0.0
C867 C 0.5329 0.87096 0.8903 0.0
H868 H 0.55513 0.88368 0.98386 0.0
C869 C 0.56412 0.85539 0.93092 0.0
C870 C 0.5668 0.85514 0.97566 0.0
C871 C 0.55737 0.85992 0.91853 0.0
C872 C 0.54882 0.87991 0.95816 0.0
H873 H 0.51948 0.90387 0.93503 0.0
H874 H 0.52697 0.89208 0.96089 0.0
H875 H 0.54517 0.89331 0.96082 0.0
H876 H 0.56416 0.85907 0.04261 0.0
H877 H 0.55234 0.86683 0.02108 0.0
H878 H 0.53673 0.85764 0.88725 0.0
C879 C 0.52613 0.89285 0.9256 0.0
C880 C 0.54309 0.88543 0.94497 0.0
C881 C 0.52177 0.89955 0.91079 0.0
C882 C 0.56233 0.85921 0.00781 0.0
C883 C 0.5556 0.86372 0.99546 0.0
C884 C 0.53865 0.86543 0.9035 0.0
C885 C 0.52951 0.88735 0.89522 0.0
C886 C 0.53511 0.88107 0.91071 0.0
C887 C 0.55318 0.86429 0.95064 0.0
C888 C 0.54672 0.86987 0.93744 0.0
H889 H 0.52297 0.89592 0.79962 0.0
H890 H 0.53067 0.88436 0.8254 0.0
H891 H 0.5267 0.8673 0.86417 0.0
H892 H 0.56744 0.85233 0.90534 0.0
H893 H 0.55575 0.86032 0.88369 0.0
C894 C 0.1037 0.63089 0.82901 0.0
C895 C 0.09913 0.62184 0.8589 0.0
C896 C 0.11037 0.6419 0.84414 0.0
C897 C 0.11535 0.65917 0.94341 0.0
H898 H 0.14146 0.68132 0.87861 0.0
C899 C 0.1419 0.70448 0.00693 0.0
C900 C 0.14516 0.71312 0.97556 0.0
C901 C 0.13739 0.69333 0.99344 0.0
C902 C 0.13414 0.67525 0.89688 0.0
H903 H 0.09825 0.61721 0.92805 0.0
H904 H 0.10995 0.63646 0.95449 0.0
H905 H 0.13163 0.66176 0.85402 0.0
H906 H 0.14653 0.71686 0.90534 0.0
H907 H 0.1385 0.69733 0.88172 0.0
H908 H 0.11768 0.67263 0.98575 0.0
C909 C 0.10826 0.63504 0.91936 0.0
C910 C 0.12852 0.66405 0.88283 0.0
C911 C 0.10161 0.62401 0.90419 0.0
C912 C 0.14411 0.71039 0.93032 0.0
C913 C 0.13956 0.69921 0.9168 0.0
C914 C 0.12094 0.67035 0.95738 0.0
C915 C 0.11261 0.64412 0.88954 0.0
C916 C 0.11901 0.65589 0.90578 0.0
C917 C 0.13598 0.69052 0.94825 0.0
C918 C 0.13036 0.67855 0.93415 0.0
H919 H 0.10196 0.62951 0.79389 0.0
H920 H 0.11348 0.6487 0.82036 0.0
H921 H 0.10794 0.65314 0.96137 0.0
H922 H 0.14268 0.70631 0.04206 0.0
H923 H 0.13493 0.68688 0.01852 0.0
C924 C 0.29196 0.43562 0.92351 0.0
C925 C 0.28975 0.43385 0.96911 0.0
C926 C 0.30295 0.44245 0.90822 0.0
C927 C 0.33162 0.46417 0.94365 0.0
H928 H 0.34118 0.45245 0.84658 0.0
C929 C 0.37835 0.47991 0.90337 0.0
C930 C 0.38144 0.48051 0.85867 0.0
C931 C 0.36706 0.4754 0.91523 0.0
C932 C 0.33862 0.45595 0.87325 0.0
H933 H 0.29731 0.43813 0.03445 0.0
H934 H 0.31644 0.44993 0.00783 0.0
H935 H 0.32159 0.44253 0.86972 0.0
H936 H 0.37513 0.47726 0.79126 0.0
H937 H 0.35549 0.46954 0.8119 0.0
H938 H 0.34873 0.4775 0.94762 0.0
C939 C 0.30969 0.44615 0.98383 0.0
C940 C 0.32738 0.45026 0.88651 0.0
C941 C 0.29872 0.43931 0.99909 0.0
C942 C 0.37304 0.47685 0.82603 0.0
C943 C 0.36176 0.47236 0.83786 0.0
C944 C 0.34288 0.46987 0.93038 0.0
C945 C 0.31196 0.44768 0.93821 0.0
C946 C 0.32376 0.45423 0.92217 0.0
C947 C 0.35861 0.47141 0.88262 0.0
C948 C 0.34654 0.46577 0.89529 0.0
H949 H 0.28523 0.43156 0.89955 0.0
H950 H 0.30441 0.44358 0.87287 0.0
H951 H 0.32907 0.46754 0.97085 0.0
H952 H 0.38462 0.48264 0.92932 0.0
H953 H 0.36491 0.47469 0.95003 0.0
C954 C 0.10612 0.47548 0.31747 0.0
C955 C 0.1007 0.47864 0.34905 0.0
C956 C 0.11291 0.47112 0.33071 0.0
C957 C 0.12798 0.46805 0.42695 0.0
H958 H 0.12398 0.44187 0.36256 0.0
C959 C 0.14173 0.43753 0.4954 0.0
C960 C 0.14615 0.43286 0.46569 0.0
C961 C 0.13751 0.44429 0.48006 0.0
C962 C 0.12535 0.44928 0.38047 0.0
H963 H 0.09842 0.48 0.41937 0.0
H964 H 0.11016 0.47221 0.44253 0.0
H965 H 0.11417 0.45154 0.33815 0.0
H966 H 0.14996 0.43193 0.39666 0.0
H967 H 0.14263 0.4438 0.36985 0.0
H968 H 0.13899 0.46559 0.46985 0.0
C969 C 0.10927 0.47324 0.40749 0.0
C970 C 0.11972 0.45484 0.36648 0.0
C971 C 0.10249 0.47765 0.39422 0.0
C972 C 0.14656 0.43536 0.42039 0.0
C973 C 0.14231 0.44211 0.40501 0.0
C974 C 0.1336 0.46247 0.44102 0.0
C975 C 0.11442 0.46976 0.37585 0.0
C976 C 0.12089 0.46424 0.38973 0.0
C977 C 0.13761 0.44653 0.43462 0.0
C978 C 0.13227 0.45296 0.41814 0.0
H979 H 0.10499 0.47622 0.28239 0.0
H980 H 0.11692 0.46872 0.30549 0.0
H981 H 0.12919 0.47536 0.44523 0.0
H982 H 0.14129 0.43577 0.53053 0.0
H983 H 0.13384 0.44746 0.5037 0.0
C984 C 0.52391 0.62334 0.40863 0.0
C985 C 0.52232 0.62027 0.3637 0.0
C986 C 0.5284 0.63459 0.42106 0.0
C987 C 0.54609 0.66321 0.37688 0.0
H988 H 0.53617 0.67222 0.48133 0.0
C989 C 0.56553 0.70984 0.42615 0.0
C990 C 0.56826 0.71232 0.47113 0.0
C991 C 0.55884 0.69871 0.41215 0.0
C992 C 0.53908 0.66983 0.45221 0.0
H993 H 0.52381 0.62656 0.29668 0.0
H994 H 0.5315 0.64612 0.31838 0.0
H995 H 0.52639 0.65251 0.45878 0.0
H996 H 0.56586 0.70507 0.53682 0.0
H997 H 0.55432 0.6857 0.51237 0.0
H998 H 0.55888 0.68045 0.37061 0.0
C999 C 0.52947 0.63987 0.344 0.0
C1000 C 0.53348 0.65853 0.43932 0.0
C1001 C 0.525 0.62864 0.33159 0.0
C1002 C 0.56391 0.70346 0.50191 0.0
C1003 C 0.55723 0.69234 0.48793 0.0
C1004 C 0.55168 0.67448 0.38975 0.0
C1005 C 0.5314 0.64302 0.38882 0.0
C1006 C 0.53698 0.65508 0.40166 0.0
C1007 C 0.55473 0.68981 0.44282 0.0
C1008 C 0.54831 0.67792 0.42777 0.0
H1009 H 0.52194 0.61709 0.43417 0.0
H1010 H 0.52987 0.63674 0.45586 0.0
H1011 H 0.54913 0.66082 0.34814 0.0
H1012 H 0.56871 0.71648 0.40163 0.0
H1013 H 0.55695 0.69706 0.37722 0.0
C1014 C 0.37548 0.89426 0.32833 0.0
C1015 C 0.38379 0.90029 0.36032 0.0
C1016 C 0.36425 0.8875 0.34074 0.0
C1017 C 0.34545 0.87382 0.4369 0.0
H1018 H 0.32388 0.87756 0.3668 0.0
C1019 C 0.30168 0.86263 0.50231 0.0
C1020 C 0.29254 0.85809 0.47284 0.0
C1021 C 0.31256 0.86622 0.48712 0.0
C1022 C 0.32974 0.87625 0.38632 0.0
H1023 H 0.38687 0.90359 0.43063 0.0
H1024 H 0.36725 0.89188 0.45227 0.0
H1025 H 0.34341 0.88652 0.34312 0.0
H1026 H 0.28761 0.85346 0.40444 0.0
H1027 H 0.30664 0.85967 0.37788 0.0
H1028 H 0.33179 0.86374 0.48061 0.0
C1029 C 0.36943 0.89229 0.41759 0.0
C1030 C 0.34095 0.88139 0.37275 0.0
C1031 C 0.38068 0.89905 0.40517 0.0
C1032 C 0.29448 0.85696 0.42795 0.0
C1033 C 0.30539 0.86057 0.41271 0.0
C1034 C 0.33423 0.86867 0.45048 0.0
C1035 C 0.36105 0.88661 0.38543 0.0
C1036 C 0.34898 0.88037 0.39819 0.0
C1037 C 0.31457 0.86535 0.44206 0.0
C1038 C 0.32627 0.86996 0.42569 0.0
H1039 H 0.3776 0.89497 0.29349 0.0
H1040 H 0.35803 0.88309 0.31523 0.0
H1041 H 0.35139 0.87273 0.45688 0.0
H1042 H 0.30049 0.86363 0.53712 0.0
H1043 H 0.31944 0.87 0.51053 0.0
C1044 C 0.10108 0.26803 0.87074 0.0
C1045 C 0.09581 0.25885 0.84186 0.0
C1046 C 0.10502 0.26686 0.91184 0.0
C1047 C 0.10643 0.24597 0.98837 0.0
H1048 H 0.1353 0.27189 0.01715 0.0
C1049 C 0.142 0.24559 0.09165 0.0
C1050 C 0.1476 0.25432 0.12254 0.0
C1051 C 0.13362 0.24529 0.06437 0.0
C1052 C 0.12717 0.26463 0.00997 0.0
H1053 H 0.09 0.24114 0.83359 0.0
H1054 H 0.09744 0.23916 0.90425 0.0
H1055 H 0.12437 0.27305 0.95669 0.0
H1056 H 0.14837 0.26925 0.15053 0.0
H1057 H 0.13393 0.26882 0.10225 0.0
H1058 H 0.10983 0.23741 0.04042 0.0
C1059 C 0.09823 0.2472 0.89623 0.0
C1060 C 0.12082 0.2653 0.97537 0.0
C1061 C 0.09398 0.24832 0.85558 0.0
C1062 C 0.14427 0.26243 0.12699 0.0
C1063 C 0.13601 0.26221 0.09934 0.0
C1064 C 0.11294 0.24525 0.02259 0.0
C1065 C 0.10416 0.25657 0.92427 0.0
C1066 C 0.11038 0.25597 0.96378 0.0
C1067 C 0.1308 0.25379 0.06713 0.0
C1068 C 0.12339 0.25458 0.03346 0.0
H1069 H 0.10246 0.27621 0.86095 0.0
H1070 H 0.10913 0.27417 0.93306 0.0
H1071 H 0.09839 0.23866 0.98098 0.0
H1072 H 0.14432 0.23918 0.08759 0.0
H1073 H 0.12976 0.23874 0.03958 0.0
C1074 C 0.74146 0.88239 0.12521 0.0
C1075 C 0.74866 0.89398 0.11854 0.0
C1076 C 0.74191 0.87457 0.09708 0.0
C1077 C 0.75842 0.8693 0.01605 0.0
H1078 H 0.72996 0.85134 0.95599 0.0
C1079 C 0.75431 0.84583 0.85179 0.0
C1080 C 0.74378 0.83677 0.84024 0.0
C1081 C 0.75568 0.85156 0.8917 0.0
C1082 C 0.73792 0.85599 0.97305 0.0
H1083 H 0.76246 0.9064 0.0789 0.0
H1084 H 0.76334 0.89262 0.03004 0.0
H1085 H 0.73129 0.86369 0.0157 0.0
H1086 H 0.72672 0.82585 0.86239 0.0
H1087 H 0.72927 0.83518 0.93342 0.0
H1088 H 0.76506 0.86148 0.97391 0.0
C1089 C 0.75732 0.88967 0.05696 0.0
C1090 C 0.73868 0.86317 0.00714 0.0
C1091 C 0.75677 0.89754 0.08472 0.0
C1092 C 0.7349 0.83291 0.87056 0.0
C1093 C 0.73635 0.83838 0.91099 0.0
C1094 C 0.75762 0.8619 0.98243 0.0
C1095 C 0.74968 0.87815 0.06217 0.0
C1096 C 0.74894 0.86999 0.02854 0.0
C1097 C 0.74659 0.84814 0.92122 0.0
C1098 C 0.74738 0.85525 0.95998 0.0
H1099 H 0.73513 0.87935 0.15098 0.0
H1100 H 0.73596 0.86571 0.10178 0.0
H1101 H 0.76642 0.87447 0.0323 0.0
H1102 H 0.76125 0.84901 0.82859 0.0
H1103 H 0.76368 0.85905 0.89794 0.0
C1104 C 0.11568 0.86115 0.12847 0.0
C1105 C 0.10453 0.8545 0.11373 0.0
C1106 C 0.12373 0.86963 0.10158 0.0
C1107 C 0.1275 0.88576 0.99713 0.0
H1108 H 0.15535 0.88512 0.98968 0.0
C1109 C 0.16172 0.89254 0.85709 0.0
C1110 C 0.16333 0.90238 0.83626 0.0
C1111 C 0.15624 0.88922 0.89777 0.0
C1112 C 0.14764 0.88545 0.99144 0.0
H1113 H 0.09299 0.85196 0.06013 0.0
H1114 H 0.10704 0.86652 0.01287 0.0
H1115 H 0.14196 0.87468 0.04791 0.0
H1116 H 0.16092 0.91676 0.84281 0.0
H1117 H 0.15133 0.91095 0.91441 0.0
H1118 H 0.1329 0.89593 0.93872 0.0
C1119 C 0.10956 0.86534 0.04548 0.0
C1120 C 0.14 0.87956 0.02522 0.0
C1121 C 0.1015 0.85691 0.0725 0.0
C1122 C 0.15978 0.90912 0.85802 0.0
C1123 C 0.15424 0.90576 0.89886 0.0
C1124 C 0.13513 0.89161 0.96316 0.0
C1125 C 0.12084 0.87162 0.0592 0.0
C1126 C 0.12967 0.87935 0.0277 0.0
C1127 C 0.15221 0.89565 0.91875 0.0
C1128 C 0.14512 0.89121 0.95909 0.0
H1129 H 0.11827 0.85959 0.16031 0.0
H1130 H 0.13229 0.87445 0.11357 0.0
H1131 H 0.11972 0.88596 0.99854 0.0
H1132 H 0.16437 0.88717 0.84128 0.0
H1133 H 0.1547 0.88131 0.91173 0.0
C1134 C 0.25022 0.09262 0.65144 0.0
C1135 C 0.26022 0.09885 0.67564 0.0
C1136 C 0.24799 0.09739 0.61448 0.0
C1137 C 0.25476 0.12511 0.575 0.0
H1138 H 0.24408 0.11147 0.45976 0.0
C1139 C 0.25429 0.14167 0.39075 0.0
C1140 C 0.25063 0.14935 0.40022 0.0
C1141 C 0.25321 0.13373 0.42222 0.0
C1142 C 0.24701 0.11534 0.49189 0.0
H1143 H 0.27608 0.11456 0.67811 0.0
H1144 H 0.27221 0.12278 0.61406 0.0
H1145 H 0.24729 0.10094 0.51814 0.0
H1146 H 0.24223 0.15418 0.44902 0.0
H1147 H 0.24034 0.14031 0.50387 0.0
H1148 H 0.25479 0.13958 0.54909 0.0
C1149 C 0.26601 0.11433 0.62399 0.0
C1150 C 0.24879 0.10931 0.52524 0.0
C1151 C 0.26823 0.10959 0.66058 0.0
C1152 C 0.24524 0.14847 0.4408 0.0
C1153 C 0.24419 0.14055 0.47229 0.0
C1154 C 0.2529 0.13108 0.542 0.0
C1155 C 0.25573 0.10844 0.60148 0.0
C1156 C 0.25292 0.11426 0.56677 0.0
C1157 C 0.24848 0.13333 0.46385 0.0
C1158 C 0.24917 0.12635 0.49985 0.0
H1159 H 0.24389 0.08432 0.66225 0.0
H1160 H 0.24001 0.09267 0.59754 0.0
H1161 H 0.2578 0.12907 0.60694 0.0
H1162 H 0.25841 0.14206 0.35968 0.0
H1163 H 0.25666 0.12834 0.41481 0.0
C1164 C 0.85941 0.11209 0.38761 0.0
C1165 C 0.85134 0.10095 0.39842 0.0
C1166 C 0.86716 0.11915 0.4192 0.0
C1167 C 0.88505 0.13165 0.49037 0.0
H1168 H 0.87061 0.13049 0.60209 0.0
C1169 C 0.90745 0.15845 0.64816 0.0
C1170 C 0.90142 0.16271 0.67082 0.0
C1171 C 0.90265 0.15132 0.61164 0.0
C1172 C 0.87476 0.13094 0.57105 0.0
H1173 H 0.84564 0.08828 0.44999 0.0
H1174 H 0.8592 0.1006 0.50504 0.0
H1175 H 0.86018 0.11658 0.54535 0.0
H1176 H 0.88606 0.16355 0.67087 0.0
H1177 H 0.87779 0.15123 0.60743 0.0
H1178 H 0.8996 0.14624 0.51631 0.0
C1179 C 0.8594 0.1039 0.47227 0.0
C1180 C 0.86883 0.12287 0.53874 0.0
C1181 C 0.85166 0.09683 0.44066 0.0
C1182 C 0.89087 0.16031 0.65453 0.0
C1183 C 0.8861 0.1532 0.61831 0.0
C1184 C 0.89104 0.13971 0.52303 0.0
C1185 C 0.867 0.11523 0.4623 0.0
C1186 C 0.87384 0.12321 0.4978 0.0
C1187 C 0.89176 0.14832 0.59744 0.0
C1188 C 0.88586 0.13954 0.56334 0.0
H1189 H 0.85945 0.11552 0.35529 0.0
H1190 H 0.87286 0.12784 0.41055 0.0
H1191 H 0.88914 0.13209 0.45918 0.0
H1192 H 0.9156 0.16016 0.65995 0.0
H1193 H 0.9072 0.14769 0.59603 0.0
C1194 C 0.83203 0.72981 0.62971 0.0
C1195 C 0.83551 0.73883 0.6592 0.0
C1196 C 0.83755 0.73128 0.58936 0.0
C1197 C 0.86011 0.75284 0.51563 0.0
H1198 H 0.86382 0.72745 0.48546 0.0
C1199 C 0.89666 0.75443 0.41203 0.0
C1200 C 0.89365 0.74592 0.38019 0.0
C1201 C 0.8885 0.75443 0.4398 0.0
C1202 C 0.86275 0.73456 0.4931 0.0
H1203 H 0.84711 0.75656 0.66916 0.0
H1204 H 0.85719 0.75905 0.59987 0.0
H1205 H 0.85135 0.72572 0.5454 0.0
H1206 H 0.87962 0.73106 0.35116 0.0
H1207 H 0.86549 0.73097 0.40027 0.0
H1208 H 0.87221 0.76183 0.46452 0.0
C1209 C 0.84998 0.7509 0.60686 0.0
C1210 C 0.85551 0.73357 0.52736 0.0
C1211 C 0.84423 0.74949 0.64675 0.0
C1212 C 0.88225 0.73772 0.37541 0.0
C1213 C 0.87415 0.73764 0.40354 0.0
C1214 C 0.86754 0.75389 0.48177 0.0
C1215 C 0.84694 0.74172 0.57823 0.0
C1216 C 0.85409 0.7427 0.53935 0.0
C1217 C 0.87723 0.74585 0.43659 0.0
C1218 C 0.86894 0.74476 0.47037 0.0
H1219 H 0.82523 0.72153 0.63843 0.0
H1220 H 0.83466 0.72409 0.56762 0.0
H1221 H 0.85915 0.76001 0.52334 0.0
H1222 H 0.90536 0.7609 0.41638 0.0
H1223 H 0.8911 0.76082 0.46523 0.0
C1224 C 0.85575 0.7366 0.87562 0.0
C1225 C 0.8525 0.7448 0.87916 0.0
C1226 C 0.86382 0.73675 0.90416 0.0
C1227 C 0.88675 0.75365 0.98122 0.0
H1228 H 0.87515 0.7259 0.04754 0.0
C1229 C 0.90627 0.75041 0.14667 0.0
C1230 C 0.9045 0.73986 0.15992 0.0
C1231 C 0.90174 0.75155 0.10676 0.0
C1232 C 0.87873 0.73364 0.02876 0.0
H1233 H 0.85572 0.75998 0.9136 0.0
H1234 H 0.86998 0.7603 0.96316 0.0
H1235 H 0.8642 0.72714 0.98723 0.0
H1236 H 0.89759 0.72248 0.14055 0.0
H1237 H 0.8904 0.72456 0.06972 0.0
H1238 H 0.90136 0.76014 0.02242 0.0
C1239 C 0.86619 0.75374 0.93838 0.0
C1240 C 0.87237 0.73435 0.99428 0.0
C1241 C 0.85799 0.75351 0.91021 0.0
C1242 C 0.89894 0.73068 0.13122 0.0
C1243 C 0.8947 0.73187 0.09085 0.0
C1244 C 0.89325 0.75288 0.01531 0.0
C1245 C 0.86894 0.74518 0.93639 0.0
C1246 C 0.87624 0.74439 0.97054 0.0
C1247 C 0.89558 0.74219 0.07892 0.0
C1248 C 0.88926 0.74289 0.03997 0.0
H1249 H 0.85173 0.72978 0.85201 0.0
H1250 H 0.86585 0.73009 0.90182 0.0
H1251 H 0.88992 0.76148 0.96319 0.0
H1252 H 0.91047 0.75761 0.16848 0.0
H1253 H 0.90256 0.75962 0.09913 0.0
C1254 C 0.25262 0.11195 0.88331 0.0
C1255 C 0.25002 0.10129 0.89923 0.0
C1256 C 0.2517 0.11961 0.91085 0.0
C1257 C 0.25842 0.1364 0.98535 0.0
H1258 H 0.23627 0.12824 0.07859 0.0
C1259 C 0.26792 0.15971 0.15019 0.0
C1260 C 0.2596 0.16116 0.17115 0.0
C1261 C 0.2656 0.15369 0.11077 0.0
C1262 C 0.24241 0.13071 0.05226 0.0
H1263 H 0.24379 0.0901 0.95583 0.0
H1264 H 0.24237 0.10355 0.00418 0.0
H1265 H 0.23339 0.11462 0.0207 0.0
H1266 H 0.24244 0.1578 0.16642 0.0
H1267 H 0.23832 0.1471 0.09721 0.0
H1268 H 0.26757 0.15238 0.01741 0.0
C1269 C 0.245 0.10594 0.97021 0.0
C1270 C 0.24083 0.12287 0.01941 0.0
C1271 C 0.24588 0.09824 0.94257 0.0
C1272 C 0.24902 0.15683 0.15091 0.0
C1273 C 0.24664 0.15066 0.11153 0.0
C1274 C 0.26001 0.14421 0.01816 0.0
C1275 C 0.2482 0.11682 0.95502 0.0
C1276 C 0.24896 0.12554 0.98626 0.0
C1277 C 0.25487 0.14888 0.09148 0.0
C1278 C 0.25219 0.14134 0.05268 0.0
H1279 H 0.25569 0.11452 0.84988 0.0
H1280 H 0.25403 0.12784 0.89787 0.0
H1281 H 0.26491 0.13872 0.96057 0.0
H1282 H 0.27616 0.16298 0.16492 0.0
H1283 H 0.27207 0.15236 0.09647 0.0
C1284 C 0.84161 0.10851 0.14758 0.0
C1285 C 0.83998 0.09852 0.16701 0.0
C1286 C 0.84732 0.11226 0.10754 0.0
C1287 C 0.86918 0.11138 0.04292 0.0
H1288 H 0.86106 0.12711 0.95716 0.0
C1289 C 0.88719 0.1416 0.87663 0.0
C1290 C 0.89814 0.1491 0.89151 0.0
C1291 C 0.87955 0.13293 0.90392 0.0
C1292 C 0.8634 0.12258 0.98018 0.0
H1293 H 0.84272 0.08439 0.159 0.0
H1294 H 0.85286 0.09103 0.0886 0.0
H1295 H 0.84781 0.11607 0.01501 0.0
H1296 H 0.90984 0.153 0.94584 0.0
H1297 H 0.89645 0.13803 0.99387 0.0
H1298 H 0.88488 0.1181 0.00853 0.0
C1299 C 0.84969 0.09594 0.10464 0.0
C1300 C 0.85583 0.11634 0.01363 0.0
C1301 C 0.84384 0.09212 0.14471 0.0
C1302 C 0.90147 0.14738 0.93341 0.0
C1303 C 0.8938 0.13874 0.96084 0.0
C1304 C 0.87677 0.11763 0.00938 0.0
C1305 C 0.85161 0.10614 0.086 0.0
C1306 C 0.85877 0.11097 0.04618 0.0
C1307 C 0.88266 0.13159 0.94684 0.0
C1308 C 0.87409 0.12358 0.97839 0.0
H1309 H 0.83871 0.11363 0.16389 0.0
H1310 H 0.84878 0.12022 0.09442 0.0
H1311 H 0.8717 0.10736 0.06765 0.0
H1312 H 0.88439 0.14259 0.84427 0.0
H1313 H 0.87111 0.12744 0.89178 0.0
C1314 C 0.75382 0.90639 0.35063 0.0
C1315 C 0.74322 0.9049 0.34023 0.0
C1316 C 0.75545 0.90212 0.39027 0.0
C1317 C 0.73823 0.88012 0.4731 0.0
H1318 H 0.76711 0.89023 0.52935 0.0
C1319 C 0.74272 0.85772 0.62481 0.0
C1320 C 0.74981 0.85323 0.61736 0.0
C1321 C 0.74302 0.86591 0.59662 0.0
C1322 C 0.759 0.88737 0.51394 0.0
H1323 H 0.72631 0.89882 0.36416 0.0
H1324 H 0.72932 0.8922 0.43474 0.0
H1325 H 0.76537 0.90172 0.47133 0.0
H1326 H 0.76328 0.85437 0.57622 0.0
H1327 H 0.76391 0.86889 0.52725 0.0
H1328 H 0.73187 0.86589 0.51625 0.0
C1329 C 0.73626 0.89603 0.41161 0.0
C1330 C 0.75799 0.8939 0.48053 0.0
C1331 C 0.73454 0.89996 0.37144 0.0
C1332 C 0.75768 0.85761 0.58267 0.0
C1333 C 0.75809 0.86596 0.55483 0.0
C1334 C 0.7392 0.87377 0.50698 0.0
C1335 C 0.74656 0.89652 0.42068 0.0
C1336 C 0.7476 0.89027 0.45918 0.0
C1337 C 0.75054 0.86993 0.56086 0.0
C1338 C 0.7496 0.87725 0.52731 0.0
H1339 H 0.76061 0.91009 0.32673 0.0
H1340 H 0.76349 0.90263 0.39562 0.0
H1341 H 0.73016 0.87678 0.45688 0.0
H1342 H 0.73657 0.85457 0.65126 0.0
H1343 H 0.73715 0.86889 0.60196 0.0
C1344 C 0.10016 0.83329 0.36315 0.0
C1345 C 0.09476 0.8369 0.33359 0.0
C1346 C 0.10439 0.83889 0.40322 0.0
C1347 C 0.10647 0.86223 0.47536 0.0
H1348 H 0.13503 0.86468 0.50597 0.0
C1349 C 0.14283 0.8979 0.57887 0.0
C1350 C 0.14734 0.89421 0.6124 0.0
C1351 C 0.13454 0.89014 0.55035 0.0
C1352 C 0.12701 0.86399 0.49808 0.0
H1353 H 0.08907 0.84883 0.32304 0.0
H1354 H 0.09701 0.85909 0.39172 0.0
H1355 H 0.12394 0.85228 0.44643 0.0
H1356 H 0.14631 0.87945 0.64341 0.0
H1357 H 0.1321 0.86604 0.59293 0.0
H1358 H 0.11016 0.87465 0.52582 0.0
C1359 C 0.09768 0.85169 0.38516 0.0
C1360 C 0.12055 0.85678 0.46413 0.0
C1361 C 0.09313 0.84584 0.34563 0.0
C1362 C 0.14306 0.8826 0.61791 0.0
C1363 C 0.13493 0.8749 0.58904 0.0
C1364 C 0.1131 0.86966 0.50884 0.0
C1365 C 0.10372 0.84852 0.41384 0.0
C1366 C 0.11017 0.85577 0.45214 0.0
C1367 C 0.13076 0.87861 0.55451 0.0
C1368 C 0.12342 0.87057 0.5204 0.0
H1369 H 0.10142 0.82633 0.35464 0.0
H1370 H 0.10857 0.83588 0.42505 0.0
H1371 H 0.09848 0.86161 0.46765 0.0
H1372 H 0.14591 0.90677 0.57391 0.0
H1373 H 0.13147 0.89319 0.52374 0.0
C1374 C 0.11831 0.25959 0.62621 0.0
C1375 C 0.10677 0.2522 0.61928 0.0
C1376 C 0.12628 0.25946 0.59792 0.0
C1377 C 0.13208 0.24358 0.51547 0.0
H1378 H 0.14973 0.27239 0.45746 0.0
C1379 C 0.15588 0.24881 0.35112 0.0
C1380 C 0.1649 0.25944 0.34027 0.0
C1381 C 0.15004 0.2472 0.3909 0.0
C1382 C 0.14516 0.26433 0.47393 0.0
H1383 H 0.0946 0.23836 0.57903 0.0
H1384 H 0.10864 0.23804 0.52995 0.0
H1385 H 0.13722 0.27055 0.5174 0.0
H1386 H 0.17562 0.27642 0.36366 0.0
H1387 H 0.16605 0.27347 0.43438 0.0
H1388 H 0.14013 0.23736 0.47249 0.0
C1389 C 0.11144 0.24397 0.55717 0.0
C1390 C 0.1379 0.26329 0.50817 0.0
C1391 C 0.10343 0.2442 0.58509 0.0
C1392 C 0.16859 0.26818 0.37119 0.0
C1393 C 0.16299 0.26649 0.41147 0.0
C1394 C 0.13955 0.24467 0.48169 0.0
C1395 C 0.1229 0.25182 0.56259 0.0
C1396 C 0.13118 0.25289 0.52884 0.0
C1397 C 0.1533 0.25614 0.42105 0.0
C1398 C 0.14609 0.25505 0.45996 0.0
H1399 H 0.12119 0.26584 0.65226 0.0
H1400 H 0.13509 0.26556 0.60283 0.0
H1401 H 0.12699 0.23548 0.53113 0.0
H1402 H 0.15284 0.24196 0.32754 0.0
H1403 H 0.1426 0.23913 0.39662 0.0
C1404 C 0.80785 0.5917 0.4608 0.0
C1405 C 0.81489 0.58766 0.44611 0.0
C1406 C 0.79929 0.59101 0.43358 0.0
C1407 C 0.78363 0.57848 0.32842 0.0
H1408 H 0.78234 0.60601 0.32319 0.0
C1409 C 0.75861 0.58582 0.19152 0.0
C1410 C 0.76472 0.59629 0.17034 0.0
C1411 C 0.76235 0.58383 0.23188 0.0
C1412 C 0.78256 0.59824 0.32428 0.0
H1413 H 0.81814 0.57928 0.39205 0.0
H1414 H 0.80347 0.57835 0.34423 0.0
H1415 H 0.79337 0.60368 0.38068 0.0
H1416 H 0.77919 0.61305 0.17596 0.0
H1417 H 0.78573 0.60959 0.24552 0.0
H1418 H 0.77341 0.57338 0.27014 0.0
C1419 C 0.80438 0.58186 0.37706 0.0
C1420 C 0.78879 0.59683 0.35765 0.0
C1421 C 0.81287 0.58247 0.40442 0.0
C1422 C 0.77429 0.60488 0.19133 0.0
C1423 C 0.778 0.60292 0.23151 0.0
C1424 C 0.77745 0.57991 0.29484 0.0
C1425 C 0.79764 0.58636 0.39089 0.0
C1426 C 0.78967 0.58707 0.35942 0.0
C1427 C 0.77223 0.5923 0.25186 0.0
C1428 C 0.77713 0.58996 0.2916 0.0
H1429 H 0.8091 0.59563 0.49296 0.0
H1430 H 0.79413 0.59436 0.44567 0.0
H1431 H 0.78395 0.57076 0.32926 0.0
H1432 H 0.75119 0.57903 0.17619 0.0
H1433 H 0.75764 0.5756 0.24696 0.0
C1434 C 0.4011 0.17364 0.18532 0.0
C1435 C 0.40945 0.17239 0.16366 0.0
C1436 C 0.4034 0.17946 0.22526 0.0
C1437 C 0.42667 0.20223 0.28463 0.0
H1438 H 0.40405 0.19416 0.37585 0.0
C1439 C 0.41628 0.22084 0.45374 0.0
C1440 C 0.41911 0.23158 0.43807 0.0
C1441 C 0.41717 0.21316 0.42619 0.0
C1442 C 0.41058 0.19649 0.35123 0.0
H1443 H 0.42664 0.17581 0.16777 0.0
H1444 H 0.43072 0.18612 0.23792 0.0
H1445 H 0.40137 0.18062 0.31849 0.0
H1446 H 0.42572 0.24289 0.38193 0.0
H1447 H 0.42708 0.22943 0.33357 0.0
H1448 H 0.43577 0.21822 0.31692 0.0
C1449 C 0.42239 0.18259 0.22373 0.0
C1450 C 0.40898 0.18875 0.31808 0.0
C1451 C 0.42003 0.17664 0.18379 0.0
C1452 C 0.42345 0.23468 0.39502 0.0
C1453 C 0.42429 0.22697 0.36736 0.0
C1454 C 0.42828 0.21 0.31783 0.0
C1455 C 0.41414 0.18424 0.24442 0.0
C1456 C 0.41683 0.19165 0.28367 0.0
C1457 C 0.42087 0.21602 0.38224 0.0
C1458 C 0.4201 0.20733 0.35081 0.0
H1459 H 0.39285 0.17043 0.1707 0.0
H1460 H 0.3969 0.18069 0.24001 0.0
H1461 H 0.43285 0.20474 0.25842 0.0
H1462 H 0.41304 0.21823 0.48695 0.0
H1463 H 0.41467 0.20487 0.43896 0.0
C1464 C 0.82155 0.23957 0.18153 0.0
C1465 C 0.83068 0.23809 0.17098 0.0
C1466 C 0.81558 0.23516 0.22092 0.0
C1467 C 0.81057 0.21292 0.30297 0.0
H1468 H 0.79216 0.22331 0.36032 0.0
C1469 C 0.78381 0.19066 0.45528 0.0
C1470 C 0.77224 0.18643 0.44856 0.0
C1471 C 0.79171 0.19874 0.42677 0.0
C1472 C 0.79731 0.22037 0.34459 0.0
H1473 H 0.8414 0.23184 0.19457 0.0
H1474 H 0.83158 0.22491 0.26463 0.0
H1475 H 0.80536 0.23475 0.30219 0.0
H1476 H 0.75996 0.18791 0.40834 0.0
H1477 H 0.77387 0.20225 0.35885 0.0
H1478 H 0.80263 0.19866 0.34594 0.0
C1479 C 0.82856 0.22887 0.24176 0.0
C1480 C 0.80483 0.22686 0.31112 0.0
C1481 C 0.8343 0.23296 0.20186 0.0
C1482 C 0.7688 0.19095 0.41424 0.0
C1483 C 0.77674 0.19919 0.38609 0.0
C1484 C 0.80326 0.20659 0.33692 0.0
C1485 C 0.81878 0.22942 0.25097 0.0
C1486 C 0.81147 0.22315 0.2894 0.0
C1487 C 0.78823 0.20291 0.39141 0.0
C1488 C 0.79647 0.21018 0.35766 0.0
H1489 H 0.81856 0.24342 0.15797 0.0
H1490 H 0.80808 0.23571 0.22637 0.0
H1491 H 0.81522 0.20952 0.28647 0.0
H1492 H 0.78676 0.18738 0.48141 0.0
H1493 H 0.80053 0.20152 0.4316 0.0
C1494 C 0.91543 0.47003 0.70547 0.0
C1495 C 0.91294 0.47814 0.7217 0.0
C1496 C 0.91456 0.46145 0.73294 0.0
C1497 C 0.92154 0.45148 0.80713 0.0
H1498 H 0.89986 0.43792 0.90216 0.0
C1499 C 0.93191 0.4387 0.97258 0.0
C1500 C 0.92367 0.42918 0.99503 0.0
C1501 C 0.92941 0.44206 0.93267 0.0
C1502 C 0.90587 0.44146 0.87533 0.0
H1503 H 0.90692 0.48317 0.77876 0.0
H1504 H 0.90558 0.46832 0.82689 0.0
H1505 H 0.89667 0.44837 0.84397 0.0
H1506 H 0.90647 0.41542 0.99236 0.0
H1507 H 0.90204 0.42137 0.92231 0.0
H1508 H 0.93088 0.44482 0.83902 0.0
C1509 C 0.90809 0.46851 0.79277 0.0
C1510 C 0.90411 0.44755 0.84229 0.0
C1511 C 0.90892 0.47708 0.76523 0.0
C1512 C 0.91299 0.42278 0.97571 0.0
C1513 C 0.91044 0.42622 0.93583 0.0
C1514 C 0.92331 0.44541 0.84013 0.0
C1515 C 0.91121 0.46079 0.77731 0.0
C1516 C 0.91209 0.4529 0.80852 0.0
C1517 C 0.91857 0.43603 0.91438 0.0
C1518 C 0.91567 0.44063 0.87533 0.0
H1519 H 0.91842 0.47051 0.67191 0.0
H1520 H 0.91683 0.45552 0.71977 0.0
H1521 H 0.92792 0.45555 0.78185 0.0
H1522 H 0.94023 0.44379 0.98657 0.0
H1523 H 0.93583 0.44972 0.91729 0.0
C1524 C 0.57398 0.48862 0.97911 0.0
C1525 C 0.57226 0.49754 0.99069 0.0
C1526 C 0.56959 0.48275 0.9395 0.0
C1527 C 0.54713 0.47759 0.8581 0.0
H1528 H 0.55825 0.46011 0.7981 0.0
C1529 C 0.52574 0.45178 0.70277 0.0
C1530 C 0.52155 0.44019 0.70853 0.0
C1531 C 0.53367 0.45954 0.73207 0.0
C1532 C 0.55511 0.46499 0.81458 0.0
H1533 H 0.56556 0.50801 0.96872 0.0
H1534 H 0.55865 0.4984 0.89828 0.0
H1535 H 0.56942 0.47307 0.8573 0.0
H1536 H 0.52297 0.42774 0.74786 0.0
H1537 H 0.53708 0.44144 0.7987 0.0
H1538 H 0.53296 0.46965 0.8147 0.0
C1539 C 0.56279 0.49543 0.92053 0.0
C1540 C 0.56145 0.47237 0.84868 0.0
C1541 C 0.56687 0.50106 0.96066 0.0
C1542 C 0.52599 0.4366 0.74268 0.0
C1543 C 0.53409 0.44442 0.77161 0.0
C1544 C 0.54097 0.47043 0.82353 0.0
C1545 C 0.56362 0.48587 0.91022 0.0
C1546 C 0.55747 0.47868 0.87133 0.0
C1547 C 0.53774 0.45592 0.76725 0.0
C1548 C 0.54482 0.46398 0.80181 0.0
H1549 H 0.57804 0.4857 0.002 0.0
H1550 H 0.57035 0.4754 0.93323 0.0
H1551 H 0.54355 0.48197 0.87529 0.0
H1552 H 0.52252 0.45484 0.67681 0.0
H1553 H 0.53641 0.46838 0.72802 0.0
C1554 C 0.55136 0.07766 0.70256 0.0
C1555 C 0.56245 0.08182 0.71746 0.0
C1556 C 0.54341 0.07828 0.72951 0.0
C1557 C 0.54007 0.09091 0.83398 0.0
H1558 H 0.51147 0.06316 0.84012 0.0
C1559 C 0.50776 0.08334 0.97141 0.0
C1560 C 0.50365 0.07295 0.99297 0.0
C1561 C 0.51341 0.08534 0.93088 0.0
C1562 C 0.5194 0.07099 0.83874 0.0
H1563 H 0.57399 0.09036 0.77162 0.0
H1564 H 0.56011 0.09118 0.81894 0.0
H1565 H 0.52485 0.06555 0.78258 0.0
H1566 H 0.50172 0.05631 0.98785 0.0
H1567 H 0.51158 0.05979 0.91799 0.0
H1568 H 0.53487 0.09602 0.89205 0.0
C1569 C 0.55756 0.08761 0.78615 0.0
C1570 C 0.52703 0.07243 0.80535 0.0
C1571 C 0.56553 0.08706 0.75909 0.0
C1572 C 0.50481 0.06443 0.97221 0.0
C1573 C 0.5104 0.0664 0.93184 0.0
C1574 C 0.53244 0.08945 0.86756 0.0
C1575 C 0.54634 0.08301 0.77211 0.0
C1576 C 0.53761 0.08227 0.80333 0.0
C1577 C 0.51499 0.07694 0.91109 0.0
C1578 C 0.52216 0.07932 0.87116 0.0
H1579 H 0.54874 0.07368 0.67044 0.0
H1580 H 0.53491 0.07483 0.71729 0.0
H1581 H 0.54805 0.09868 0.83291 0.0
H1582 H 0.50698 0.09007 0.98658 0.0
H1583 H 0.51675 0.09351 0.9155 0.0
C1584 C 0.52338 0.07244 0.21051 0.0
C1585 C 0.51957 0.08018 0.21542 0.0
C1586 C 0.53149 0.07271 0.23909 0.0
C1587 C 0.55381 0.08937 0.31819 0.0
H1588 H 0.54264 0.06125 0.38157 0.0
C1589 C 0.57347 0.08554 0.48236 0.0
C1590 C 0.57179 0.07496 0.4946 0.0
C1591 C 0.56896 0.08684 0.44269 0.0
C1592 C 0.54612 0.0691 0.36361 0.0
H1593 H 0.52185 0.09471 0.25242 0.0
H1594 H 0.53622 0.09525 0.30204 0.0
H1595 H 0.53165 0.0626 0.32171 0.0
H1596 H 0.56506 0.0577 0.4738 0.0
H1597 H 0.55796 0.06008 0.40325 0.0
H1598 H 0.56839 0.09586 0.35961 0.0
C1599 C 0.53281 0.08896 0.27616 0.0
C1600 C 0.53972 0.06988 0.32942 0.0
C1601 C 0.52455 0.08859 0.24795 0.0
C1602 C 0.56635 0.06592 0.46516 0.0
C1603 C 0.56216 0.06728 0.42499 0.0
C1604 C 0.56037 0.08855 0.35194 0.0
C1605 C 0.53611 0.08082 0.27271 0.0
C1606 C 0.54343 0.08003 0.30674 0.0
C1607 C 0.56291 0.07761 0.41411 0.0
C1608 C 0.55654 0.07842 0.37553 0.0
H1609 H 0.51975 0.06586 0.18577 0.0
H1610 H 0.53395 0.06637 0.23569 0.0
H1611 H 0.55685 0.09729 0.30097 0.0
H1612 H 0.57757 0.0926 0.50483 0.0
H1613 H 0.56968 0.0949 0.43589 0.0
C1614 C 0.91064 0.43225 0.26309 0.0
C1615 C 0.9151 0.43548 0.22025 0.0
C1616 C 0.90953 0.43981 0.29069 0.0
C1617 C 0.90485 0.45638 0.33972 0.0
H1618 H 0.9314 0.48602 0.34109 0.0
C1619 C 0.91193 0.48913 0.47491 0.0
C1620 C 0.92241 0.49337 0.49586 0.0
C1621 C 0.90984 0.48337 0.43459 0.0
C1622 C 0.92388 0.47781 0.34089 0.0
H1623 H 0.92113 0.44891 0.1717 0.0
H1624 H 0.91904 0.46201 0.21961 0.0
H1625 H 0.92926 0.47272 0.28349 0.0
H1626 H 0.93912 0.49554 0.48992 0.0
H1627 H 0.93553 0.48564 0.41994 0.0
H1628 H 0.89983 0.46132 0.39881 0.0
C1629 C 0.91664 0.45373 0.23224 0.0
C1630 C 0.92259 0.47021 0.30762 0.0
C1631 C 0.9178 0.4462 0.20475 0.0
C1632 C 0.93094 0.49232 0.47466 0.0
C1633 C 0.9289 0.48671 0.43434 0.0
C1634 C 0.90614 0.46401 0.37304 0.0
C1635 C 0.9128 0.45074 0.27596 0.0
C1636 C 0.91322 0.45928 0.30737 0.0
C1637 C 0.91826 0.48193 0.41435 0.0
C1638 C 0.91585 0.47468 0.37475 0.0
H1639 H 0.90846 0.42406 0.27604 0.0
H1640 H 0.90664 0.43726 0.32431 0.0
H1641 H 0.89746 0.44808 0.34008 0.0
H1642 H 0.9052 0.4898 0.4906 0.0
H1643 H 0.90158 0.47983 0.41975 0.0
C1644 C 0.51248 0.42485 0.47101 0.0
C1645 C 0.50571 0.4293 0.48466 0.0
C1646 C 0.51836 0.42829 0.43092 0.0
C1647 C 0.52048 0.44193 0.32391 0.0
H1648 H 0.55267 0.45762 0.34364 0.0
C1649 C 0.55108 0.47772 0.21051 0.0
C1650 C 0.56233 0.48032 0.20721 0.0
C1651 C 0.54359 0.46908 0.23827 0.0
C1652 C 0.54374 0.45305 0.33685 0.0
H1653 H 0.4991 0.44011 0.46597 0.0
H1654 H 0.50908 0.44582 0.39544 0.0
H1655 H 0.54006 0.44606 0.40216 0.0
H1656 H 0.57438 0.47545 0.22821 0.0
H1657 H 0.56121 0.46004 0.27519 0.0
H1658 H 0.52408 0.4489 0.25871 0.0
C1659 C 0.50995 0.4398 0.41583 0.0
C1660 C 0.53651 0.44644 0.37061 0.0
C1661 C 0.50429 0.43659 0.45625 0.0
C1662 C 0.56579 0.47373 0.23052 0.0
C1663 C 0.55824 0.46493 0.25768 0.0
C1664 C 0.52772 0.44837 0.28977 0.0
C1665 C 0.51732 0.43598 0.40348 0.0
C1666 C 0.52482 0.44111 0.36492 0.0
C1667 C 0.5471 0.46267 0.26287 0.0
C1668 C 0.53945 0.45435 0.2963 0.0
H1669 H 0.51375 0.41926 0.49245 0.0
H1670 H 0.524 0.42523 0.42203 0.0
H1671 H 0.51149 0.43783 0.31871 0.0
H1672 H 0.54816 0.48268 0.19312 0.0
H1673 H 0.53519 0.46779 0.2418 0.0
C1674 C 0.4201 0.24345 0.68377 0.0
C1675 C 0.40959 0.23724 0.66296 0.0
C1676 C 0.42225 0.23971 0.72378 0.0
C1677 C 0.40838 0.21992 0.81709 0.0
H1678 H 0.43507 0.21704 0.8173 0.0
C1679 C 0.4152 0.1949 0.95337 0.0
C1680 C 0.41806 0.18699 0.93798 0.0
C1681 C 0.41614 0.20347 0.92567 0.0
C1682 C 0.4276 0.21782 0.81782 0.0
H1683 H 0.39291 0.22266 0.66886 0.0
H1684 H 0.39662 0.21622 0.7383 0.0
H1685 H 0.43244 0.22778 0.75876 0.0
H1686 H 0.42474 0.18226 0.88215 0.0
H1687 H 0.4262 0.19708 0.83354 0.0
H1688 H 0.4032 0.20947 0.87452 0.0
C1689 C 0.40322 0.22395 0.72403 0.0
C1690 C 0.42616 0.22409 0.7846 0.0
C1691 C 0.40111 0.22761 0.68402 0.0
C1692 C 0.42245 0.1882 0.89503 0.0
C1693 C 0.42335 0.19675 0.86723 0.0
C1694 C 0.40982 0.21368 0.85026 0.0
C1695 C 0.41388 0.22979 0.74385 0.0
C1696 C 0.41637 0.22491 0.78315 0.0
C1697 C 0.41993 0.20431 0.88186 0.0
C1698 C 0.41929 0.21228 0.85033 0.0
H1699 H 0.4268 0.25089 0.66822 0.0
H1700 H 0.43053 0.24442 0.7385 0.0
H1701 H 0.4008 0.22051 0.81711 0.0
H1702 H 0.41192 0.1943 0.98649 0.0
H1703 H 0.41363 0.20927 0.93824 0.0
C1704 C 0.76778 0.16598 0.70094 0.0
C1705 C 0.76225 0.16967 0.6724 0.0
C1706 C 0.77181 0.17119 0.7418 0.0
C1707 C 0.77295 0.19332 0.81851 0.0
H1708 H 0.80209 0.1968 0.84632 0.0
C1709 C 0.8083 0.22943 0.92214 0.0
C1710 C 0.81394 0.22632 0.95295 0.0
C1711 C 0.8 0.22135 0.89463 0.0
C1712 C 0.79389 0.19578 0.83938 0.0
H1713 H 0.75611 0.18132 0.66451 0.0
H1714 H 0.76371 0.19093 0.73473 0.0
H1715 H 0.79121 0.18466 0.78589 0.0
H1716 H 0.81489 0.21221 0.9805 0.0
H1717 H 0.80058 0.19821 0.93179 0.0
H1718 H 0.77621 0.20519 0.8708 0.0
C1719 C 0.76463 0.18376 0.72663 0.0
C1720 C 0.78757 0.18873 0.80482 0.0
C1721 C 0.76029 0.17829 0.68623 0.0
C1722 C 0.81074 0.21491 0.95704 0.0
C1723 C 0.80257 0.20688 0.92915 0.0
C1724 C 0.77942 0.20058 0.85269 0.0
C1725 C 0.77078 0.18051 0.75433 0.0
C1726 C 0.77702 0.18742 0.79363 0.0
C1727 C 0.7973 0.21006 0.89706 0.0
C1728 C 0.78997 0.20189 0.86322 0.0
H1729 H 0.76927 0.15925 0.69108 0.0
H1730 H 0.7761 0.16814 0.76279 0.0
H1731 H 0.76482 0.19243 0.81143 0.0
H1732 H 0.81053 0.23814 0.91836 0.0
H1733 H 0.7961 0.22402 0.86993 0.0
C1734 C 0.77111 0.58091 0.91812 0.0
C1735 C 0.77427 0.58951 0.94967 0.0
C1736 C 0.77913 0.58083 0.88979 0.0
C1737 C 0.8044 0.60051 0.83385 0.0
H1738 H 0.80872 0.57537 0.80617 0.0
C1739 C 0.83501 0.60526 0.69679 0.0
C1740 C 0.83178 0.59606 0.66849 0.0
C1741 C 0.82954 0.60391 0.73716 0.0
C1742 C 0.80755 0.58245 0.81311 0.0
H1743 H 0.78843 0.60446 0.97755 0.0
H1744 H 0.80232 0.60443 0.9274 0.0
H1745 H 0.79576 0.5736 0.86536 0.0
H1746 H 0.82066 0.57817 0.66056 0.0
H1747 H 0.8106 0.57585 0.72981 0.0
H1748 H 0.81546 0.60919 0.78045 0.0
C1749 C 0.79366 0.59774 0.92486 0.0
C1750 C 0.80017 0.58143 0.8472 0.0
C1751 C 0.78569 0.59773 0.95357 0.0
C1752 C 0.82335 0.58537 0.6821 0.0
C1753 C 0.81761 0.58407 0.72196 0.0
C1754 C 0.81156 0.60147 0.79934 0.0
C1755 C 0.79041 0.58944 0.89213 0.0
C1756 C 0.79855 0.59046 0.85775 0.0
C1757 C 0.8204 0.5934 0.74942 0.0
C1758 C 0.81325 0.59246 0.7883 0.0
H1759 H 0.76239 0.57443 0.91444 0.0
H1760 H 0.77643 0.57438 0.86461 0.0
H1761 H 0.80314 0.60754 0.84087 0.0
H1762 H 0.84159 0.61357 0.68714 0.0
H1763 H 0.83225 0.61123 0.758 0.0
C1764 C 0.43056 0.91936 0.51748 0.0
C1765 C 0.43242 0.92999 0.50493 0.0
C1766 C 0.43485 0.91799 0.55755 0.0
C1767 C 0.4575 0.93544 0.63763 0.0
H1768 H 0.44607 0.90719 0.70044 0.0
C1769 C 0.48005 0.93159 0.79019 0.0
C1770 C 0.48338 0.92348 0.78565 0.0
C1771 C 0.47199 0.93155 0.76192 0.0
C1772 C 0.44931 0.91513 0.6832 0.0
H1773 H 0.43924 0.94727 0.52572 0.0
H1774 H 0.44603 0.94477 0.59682 0.0
H1775 H 0.43486 0.9089 0.64119 0.0
H1776 H 0.48028 0.90851 0.74977 0.0
H1777 H 0.46604 0.90839 0.70065 0.0
H1778 H 0.47186 0.94167 0.67994 0.0
C1779 C 0.44183 0.93758 0.57503 0.0
C1780 C 0.44294 0.91611 0.6491 0.0
C1781 C 0.43783 0.93901 0.5345 0.0
C1782 C 0.47796 0.91491 0.75395 0.0
C1783 C 0.46976 0.9148 0.72601 0.0
C1784 C 0.46372 0.93451 0.67213 0.0
C1785 C 0.44088 0.92718 0.58627 0.0
C1786 C 0.44702 0.92626 0.62539 0.0
C1787 C 0.46697 0.92331 0.72893 0.0
C1788 C 0.45977 0.92432 0.69486 0.0
H1789 H 0.42647 0.91229 0.49501 0.0
H1790 H 0.43399 0.90987 0.56461 0.0
H1791 H 0.46115 0.9433 0.61962 0.0
H1792 H 0.48402 0.93828 0.81433 0.0
H1793 H 0.46992 0.93816 0.76499 0.0
C1794 C 0.08971 0.57068 0.72276 0.0
C1795 C 0.08472 0.56633 0.76408 0.0
C1796 C 0.0907 0.56375 0.69135 0.0
C1797 C 0.08819 0.53583 0.67226 0.0
H1798 H 0.076 0.53795 0.55922 0.0
C1799 C 0.08387 0.5095 0.5126 0.0
C1800 C 0.07366 0.50556 0.4897 0.0
C1801 C 0.08628 0.5165 0.54964 0.0
C1802 C 0.07942 0.53725 0.59061 0.0
H1803 H 0.07768 0.55151 0.80603 0.0
H1804 H 0.07929 0.53944 0.75103 0.0
H1805 H 0.07942 0.5517 0.61656 0.0
H1806 H 0.05762 0.50508 0.48977 0.0
H1807 H 0.0618 0.51717 0.55403 0.0
H1808 H 0.08787 0.52112 0.64599 0.0
C1809 C 0.08248 0.5482 0.74297 0.0
C1810 C 0.08153 0.54522 0.62328 0.0
C1811 C 0.08148 0.55512 0.77439 0.0
C1812 C 0.06563 0.50809 0.50628 0.0
C1813 C 0.06803 0.51506 0.54298 0.0
C1814 C 0.08615 0.52787 0.63921 0.0
C1815 C 0.08673 0.55234 0.70058 0.0
C1816 C 0.08577 0.54452 0.66472 0.0
C1817 C 0.07852 0.51966 0.56405 0.0
C1818 C 0.08152 0.52839 0.59844 0.0
H1819 H 0.09241 0.5793 0.71389 0.0
H1820 H 0.09419 0.56723 0.65918 0.0
H1821 H 0.09151 0.53512 0.70385 0.0
H1822 H 0.09022 0.50768 0.50059 0.0
H1823 H 0.09441 0.51992 0.56545 0.0
C1824 C 0.43671 0.52198 0.7389 0.0
C1825 C 0.43984 0.52075 0.78193 0.0
C1826 C 0.44449 0.53033 0.71075 0.0
C1827 C 0.46157 0.55091 0.66006 0.0
H1828 H 0.49073 0.55286 0.65968 0.0
C1829 C 0.49449 0.57523 0.52392 0.0
C1830 C 0.49881 0.5689 0.50422 0.0
C1831 C 0.48864 0.57178 0.56409 0.0
C1832 C 0.48265 0.55247 0.6595 0.0
H1833 H 0.45337 0.52783 0.83014 0.0
H1834 H 0.46684 0.54248 0.78127 0.0
H1835 H 0.47729 0.54232 0.71777 0.0
H1836 H 0.50093 0.55438 0.51232 0.0
H1837 H 0.49079 0.54839 0.58188 0.0
H1838 H 0.46675 0.56053 0.60018 0.0
C1839 C 0.45846 0.53683 0.76893 0.0
C1840 C 0.47498 0.54652 0.6931 0.0
C1841 C 0.45071 0.52846 0.79701 0.0
C1842 C 0.49768 0.55943 0.52655 0.0
C1843 C 0.49192 0.55603 0.56667 0.0
C1844 C 0.46926 0.55687 0.62638 0.0
C1845 C 0.45554 0.53767 0.72506 0.0
C1846 C 0.46422 0.5454 0.69311 0.0
C1847 C 0.4871 0.56201 0.58544 0.0
C1848 C 0.47976 0.55741 0.62501 0.0
H1849 H 0.42841 0.51619 0.72622 0.0
H1850 H 0.44197 0.53064 0.67705 0.0
H1851 H 0.45342 0.55035 0.65947 0.0
H1852 H 0.49523 0.58258 0.50747 0.0
H1853 H 0.48511 0.57661 0.57796 0.0
C1854 C 0.58512 0.80549 0.03944 0.0
C1855 C 0.58277 0.81373 0.05535 0.0
C1856 C 0.58418 0.79694 0.06723 0.0
C1857 C 0.59102 0.78693 0.14172 0.0
H1858 H 0.56923 0.77354 0.23649 0.0
C1859 C 0.60091 0.7736 0.30697 0.0
C1860 C 0.59259 0.76402 0.32881 0.0
C1861 C 0.59852 0.77715 0.26728 0.0
C1862 C 0.57527 0.77703 0.20974 0.0
H1863 H 0.57695 0.81903 0.11224 0.0
H1864 H 0.57548 0.80421 0.16095 0.0
H1865 H 0.56629 0.78419 0.17839 0.0
H1866 H 0.57535 0.75035 0.32538 0.0
H1867 H 0.57111 0.75666 0.25573 0.0
H1868 H 0.60014 0.78004 0.17361 0.0
C1869 C 0.57794 0.80429 0.12683 0.0
C1870 C 0.57365 0.78324 0.17677 0.0
C1871 C 0.57884 0.81284 0.09896 0.0
C1872 C 0.58194 0.75775 0.30915 0.0
C1873 C 0.57949 0.7614 0.26953 0.0
C1874 C 0.59264 0.78076 0.17468 0.0
C1875 C 0.5809 0.79643 0.11162 0.0
C1876 C 0.58166 0.78851 0.14304 0.0
C1877 C 0.58771 0.77125 0.24865 0.0
C1878 C 0.58496 0.77603 0.20974 0.0
H1879 H 0.58803 0.80584 0.00584 0.0
H1880 H 0.58632 0.7909 0.05427 0.0
H1881 H 0.59742 0.79094 0.11649 0.0
H1882 H 0.60921 0.77859 0.32125 0.0
H1883 H 0.605 0.78484 0.25233 0.0
C1884 C 0.22461 0.825 0.33361 0.0
C1885 C 0.23586 0.82888 0.34536 0.0
C1886 C 0.21987 0.81804 0.29705 0.0
C1887 C 0.22511 0.80832 0.19249 0.0
H1888 H 0.19641 0.7818 0.2182 0.0
C1889 C 0.19192 0.78157 0.06059 0.0
C1890 C 0.18519 0.76993 0.0678 0.0
C1891 C 0.2 0.78839 0.09167 0.0
C1892 C 0.20449 0.78905 0.2105 0.0
H1893 H 0.25115 0.829 0.3264 0.0
H1894 H 0.24278 0.81679 0.26161 0.0
H1895 H 0.20688 0.79487 0.27738 0.0
H1896 H 0.18225 0.75624 0.11185 0.0
H1897 H 0.19638 0.76816 0.16598 0.0
H1898 H 0.22252 0.80256 0.12515 0.0
C1899 C 0.23768 0.81915 0.2812 0.0
C1900 C 0.21042 0.7966 0.24433 0.0
C1901 C 0.24245 0.82612 0.3182 0.0
C1902 C 0.18719 0.76518 0.10548 0.0
C1903 C 0.19527 0.77201 0.13657 0.0
C1904 C 0.21909 0.80077 0.15836 0.0
C1905 C 0.22625 0.8148 0.27118 0.0
C1906 C 0.22066 0.80642 0.23553 0.0
C1907 C 0.20152 0.78372 0.13063 0.0
C1908 C 0.20863 0.79114 0.16697 0.0
H1909 H 0.21931 0.82705 0.35349 0.0
H1910 H 0.21109 0.81497 0.2895 0.0
H1911 H 0.23299 0.81583 0.18493 0.0
H1912 H 0.19065 0.78549 0.03176 0.0
H1913 H 0.20462 0.79739 0.08628 0.0
C1914 C 0.2356 0.42102 0.09796 0.0
C1915 C 0.23233 0.41595 0.05609 0.0
C1916 C 0.22788 0.42197 0.12521 0.0
C1917 C 0.19747 0.40755 0.1442 0.0
H1918 H 0.2056 0.43095 0.23207 0.0
C1919 C 0.17577 0.39948 0.31187 0.0
C1920 C 0.17409 0.40778 0.33169 0.0
C1921 C 0.18143 0.40153 0.27167 0.0
C1922 C 0.20312 0.42444 0.20722 0.0
H1923 H 0.21863 0.40866 0.00866 0.0
H1924 H 0.20526 0.41048 0.05586 0.0
H1925 H 0.21881 0.43355 0.17285 0.0
H1926 H 0.17667 0.4246 0.32418 0.0
H1927 H 0.18672 0.42825 0.25352 0.0
H1928 H 0.1819 0.39835 0.17901 0.0
C1929 C 0.2137 0.41348 0.06812 0.0
C1930 C 0.21073 0.42587 0.17362 0.0
C1931 C 0.22138 0.41247 0.04101 0.0
C1932 C 0.17783 0.41805 0.3096 0.0
C1933 C 0.18363 0.42016 0.26937 0.0
C1934 C 0.18988 0.40613 0.1777 0.0
C1935 C 0.21675 0.41792 0.11105 0.0
C1936 C 0.20812 0.41729 0.14251 0.0
C1937 C 0.18562 0.41196 0.25036 0.0
C1938 C 0.19276 0.41439 0.21041 0.0
H1939 H 0.24397 0.42381 0.11054 0.0
H1940 H 0.2305 0.42533 0.15824 0.0
H1941 H 0.19519 0.40072 0.12107 0.0
H1942 H 0.17295 0.39147 0.328 0.0
H1943 H 0.18294 0.3951 0.25826 0.0
C1944 C 0.22538 0.39709 0.81956 0.0
C1945 C 0.2359 0.40527 0.83597 0.0
C1946 C 0.22064 0.39937 0.7831 0.0
C1947 C 0.22558 0.4177 0.68749 0.0
H1948 H 0.19474 0.41006 0.70974 0.0
C1949 C 0.18623 0.42125 0.60496 0.0
C1950 C 0.18585 0.41672 0.56286 0.0
C1951 C 0.194 0.42194 0.63652 0.0
C1952 C 0.20339 0.4124 0.70315 0.0
H1953 H 0.25006 0.422 0.82505 0.0
H1954 H 0.24171 0.42598 0.7607 0.0
H1955 H 0.20516 0.40661 0.76663 0.0
H1956 H 0.19388 0.41014 0.51986 0.0
H1957 H 0.20733 0.41127 0.57505 0.0
H1958 H 0.22368 0.42336 0.62351 0.0
C1959 C 0.23717 0.41781 0.7764 0.0
C1960 C 0.20931 0.41028 0.73554 0.0
C1961 C 0.24193 0.41553 0.81317 0.0
C1962 C 0.19388 0.4136 0.55209 0.0
C1963 C 0.20166 0.41432 0.58363 0.0
C1964 C 0.21959 0.41974 0.65474 0.0
C1965 C 0.22629 0.40989 0.76212 0.0
C1966 C 0.2204 0.41274 0.72787 0.0
C1967 C 0.20155 0.41815 0.62663 0.0
C1968 C 0.20839 0.41702 0.66216 0.0
H1969 H 0.22056 0.38905 0.83601 0.0
H1970 H 0.21235 0.39302 0.77216 0.0
H1971 H 0.23413 0.41969 0.68081 0.0
H1972 H 0.18024 0.42382 0.61425 0.0
H1973 H 0.19384 0.4251 0.66921 0.0
C1974 C 0.58102 0.82336 0.80877 0.0
C1975 C 0.59165 0.82789 0.82878 0.0
C1976 C 0.57877 0.81735 0.76901 0.0
C1977 C 0.59244 0.81163 0.67457 0.0
H1978 H 0.56648 0.78159 0.67738 0.0
C1979 C 0.57972 0.76603 0.59859 0.0
C1980 C 0.58373 0.76916 0.55513 0.0
C1981 C 0.57858 0.77355 0.62639 0.0
C1982 C 0.57373 0.78997 0.67601 0.0
H1983 H 0.60842 0.83029 0.82172 0.0
H1984 H 0.60456 0.81998 0.75258 0.0
H1985 H 0.56898 0.79503 0.73551 0.0
H1986 H 0.58891 0.78233 0.50579 0.0
H1987 H 0.58679 0.79534 0.55407 0.0
H1988 H 0.59755 0.80646 0.61664 0.0
C1989 C 0.59795 0.82101 0.76735 0.0
C1990 C 0.5751 0.7977 0.70899 0.0
C1991 C 0.60014 0.82686 0.80716 0.0
C1992 C 0.58594 0.7797 0.53929 0.0
C1993 C 0.58476 0.78719 0.56699 0.0
C1994 C 0.59107 0.80393 0.6416 0.0
C1995 C 0.58717 0.81595 0.74836 0.0
C1996 C 0.58465 0.8085 0.70933 0.0
C1997 C 0.58139 0.78433 0.61124 0.0
C1998 C 0.58187 0.7929 0.64261 0.0
H1999 H 0.57431 0.824 0.82483 0.0
H2000 H 0.57041 0.81358 0.75493 0.0
H2001 H 0.59983 0.81993 0.67375 0.0
H2002 H 0.57793 0.75798 0.61182 0.0
H2003 H 0.57606 0.77112 0.66042 0.0
C2004 C 0.1779 0.78021 0.82938 0.0
C2005 C 0.17505 0.76942 0.84444 0.0
C2006 C 0.18529 0.7851 0.79404 0.0
C2007 C 0.1986 0.78016 0.69828 0.0
H2008 H 0.22203 0.81082 0.72194 0.0
C2009 C 0.24133 0.8197 0.61555 0.0
C2010 C 0.23704 0.82007 0.57374 0.0
C2011 C 0.23438 0.81191 0.6473 0.0
C2012 C 0.21567 0.80222 0.71496 0.0
H2013 H 0.17718 0.75503 0.83243 0.0
H2014 H 0.19015 0.76364 0.77001 0.0
H2015 H 0.20816 0.80028 0.77868 0.0
H2016 H 0.22229 0.81202 0.53148 0.0
H2017 H 0.2102 0.79856 0.58693 0.0
H2018 H 0.20608 0.78222 0.63409 0.0
C2019 C 0.18664 0.76827 0.78592 0.0
C2020 C 0.20763 0.79623 0.74728 0.0
C2021 C 0.17923 0.76336 0.82158 0.0
C2022 C 0.22585 0.81203 0.56348 0.0
C2023 C 0.21893 0.80424 0.59517 0.0
C2024 C 0.20663 0.78621 0.66565 0.0
C2025 C 0.19001 0.77933 0.77282 0.0
C2026 C 0.19889 0.78523 0.73905 0.0
C2027 C 0.22302 0.80431 0.63785 0.0
C2028 C 0.21517 0.79736 0.67351 0.0
H2029 H 0.17474 0.78507 0.8459 0.0
H2030 H 0.18755 0.79354 0.78399 0.0
H2031 H 0.19196 0.77168 0.69114 0.0
H2032 H 0.24993 0.82571 0.62444 0.0
H2033 H 0.23782 0.81206 0.67973 0.0
C2034 C 0.08595 0.57592 0.01494 0.0
C2035 C 0.07548 0.56946 0.99416 0.0
C2036 C 0.08826 0.57234 0.05501 0.0
C2037 C 0.07476 0.5527 0.14879 0.0
H2038 H 0.10146 0.54985 0.14841 0.0
C2039 C 0.08847 0.52063 0.22454 0.0
C2040 C 0.08403 0.51929 0.26744 0.0
C2041 C 0.08957 0.52937 0.19741 0.0
C2042 C 0.09401 0.55064 0.14912 0.0
H2043 H 0.05902 0.55458 8e-05 0.0
H2044 H 0.06298 0.54842 0.06971 0.0
H2045 H 0.09876 0.56059 0.09 0.0
H2046 H 0.07805 0.52659 0.31669 0.0
H2047 H 0.0801 0.54188 0.26959 0.0
H2048 H 0.06964 0.54225 0.20619 0.0
C2049 C 0.06943 0.55623 0.05533 0.0
C2050 C 0.09252 0.5569 0.11598 0.0
C2051 C 0.06718 0.55971 0.01522 0.0
C2052 C 0.08136 0.52728 0.28356 0.0
C2053 C 0.0825 0.53604 0.25654 0.0
C2054 C 0.07625 0.54648 0.18188 0.0
C2055 C 0.08007 0.56235 0.0752 0.0
C2056 C 0.0827 0.55767 0.11468 0.0
C2057 C 0.0863 0.53699 0.2127 0.0
C2058 C 0.08572 0.54508 0.18168 0.0
H2059 H 0.09251 0.58346 0.99933 0.0
H2060 H 0.09652 0.57724 0.06976 0.0
H2061 H 0.06716 0.55325 0.14886 0.0
H2062 H 0.09063 0.51463 0.21115 0.0
H2063 H 0.09242 0.52978 0.16367 0.0
C2064 C 0.42621 0.51249 0.02083 0.0
C2065 C 0.43051 0.50555 0.0079 0.0
C2066 C 0.4297 0.51849 0.06064 0.0
C2067 C 0.44277 0.52067 0.16845 0.0
H2068 H 0.46046 0.55267 0.14583 0.0
C2069 C 0.47904 0.55002 0.2822 0.0
C2070 C 0.48254 0.56152 0.28425 0.0
C2071 C 0.47028 0.54287 0.25419 0.0
C2072 C 0.45534 0.54382 0.15341 0.0
H2073 H 0.44111 0.49876 0.02745 0.0
H2074 H 0.44685 0.50891 0.09772 0.0
H2075 H 0.44857 0.54013 0.08769 0.0
H2076 H 0.47917 0.57443 0.2605 0.0
H2077 H 0.46352 0.56186 0.21299 0.0
H2078 H 0.44947 0.52425 0.23406 0.0
C2079 C 0.44093 0.50983 0.07694 0.0
C2080 C 0.44854 0.53663 0.11988 0.0
C2081 C 0.43769 0.50407 0.03673 0.0
C2082 C 0.47674 0.56562 0.2592 0.0
C2083 C 0.46781 0.55841 0.23176 0.0
C2084 C 0.44938 0.52787 0.20236 0.0
C2085 C 0.43726 0.51737 0.08853 0.0
C2086 C 0.4425 0.52497 0.12666 0.0
C2087 C 0.46462 0.54697 0.22807 0.0
C2088 C 0.4561 0.53952 0.19479 0.0
H2089 H 0.42073 0.51382 0.99895 0.0
H2090 H 0.4268 0.5243 0.06895 0.0
H2091 H 0.43813 0.51169 0.17443 0.0
H2092 H 0.48338 0.54661 0.30091 0.0
H2093 H 0.46831 0.5342 0.25181 0.0
C2094 C 0.50497 0.93998 0.0329 0.0
C2095 C 0.50153 0.93074 0.00462 0.0
C2096 C 0.49967 0.93872 0.07362 0.0
C2097 C 0.47791 0.91745 0.15074 0.0
H2098 H 0.47353 0.94257 0.17833 0.0
C2099 C 0.44143 0.9156 0.25563 0.0
C2100 C 0.44438 0.92433 0.28638 0.0
C2101 C 0.44958 0.91562 0.22769 0.0
C2102 C 0.4748 0.93554 0.17142 0.0
H2103 H 0.49024 0.91285 0.99719 0.0
H2104 H 0.48051 0.91071 0.06711 0.0
H2105 H 0.48577 0.94415 0.1177 0.0
H2106 H 0.4583 0.93962 0.31335 0.0
H2107 H 0.4724 0.93974 0.26393 0.0
H2108 H 0.46622 0.90866 0.2033 0.0
C2109 C 0.48754 0.91888 0.0589 0.0
C2110 C 0.4819 0.93645 0.13675 0.0
C2111 C 0.49308 0.9201 0.01864 0.0
C2112 C 0.45572 0.93279 0.28996 0.0
C2113 C 0.46381 0.93289 0.26165 0.0
C2114 C 0.4706 0.91647 0.18502 0.0
C2115 C 0.49053 0.92826 0.08634 0.0
C2116 C 0.48355 0.92741 0.12566 0.0
C2117 C 0.46076 0.92445 0.22963 0.0
C2118 C 0.46897 0.92551 0.19548 0.0
H2119 H 0.51157 0.94825 0.02298 0.0
H2120 H 0.50251 0.94607 0.0944 0.0
H2121 H 0.47907 0.91036 0.14376 0.0
H2122 H 0.43279 0.90893 0.25221 0.0
H2123 H 0.44702 0.90906 0.20307 0.0
C2124 C 0.24438 0.36748 0.99188 0.0
C2125 C 0.25022 0.37711 0.0185 0.0
C2126 C 0.24147 0.35686 0.00841 0.0
C2127 C 0.23394 0.34199 0.11279 0.0
H2128 H 0.2345 0.31799 0.0474 0.0
C2129 C 0.2113 0.29718 0.18199 0.0
C2130 C 0.20498 0.2886 0.15144 0.0
C2131 C 0.21932 0.30789 0.16739 0.0
C2132 C 0.2342 0.32457 0.06603 0.0
H2133 H 0.25815 0.38317 0.08252 0.0
H2134 H 0.25292 0.3646 0.11146 0.0
H2135 H 0.24405 0.33708 0.01748 0.0
H2136 H 0.20251 0.28436 0.08166 0.0
H2137 H 0.21612 0.30308 0.05609 0.0
H2138 H 0.22358 0.32957 0.15996 0.0
C2139 C 0.25059 0.3653 0.07784 0.0
C2140 C 0.23973 0.33551 0.04894 0.0
C2141 C 0.25362 0.37594 0.06116 0.0
C2142 C 0.20727 0.29079 0.10606 0.0
C2143 C 0.21515 0.30155 0.0914 0.0
C2144 C 0.22829 0.33107 0.12955 0.0
C2145 C 0.24424 0.35564 0.05204 0.0
C2146 C 0.23952 0.34429 0.0719 0.0
C2147 C 0.22107 0.31034 0.12183 0.0
C2148 C 0.22818 0.32215 0.10611 0.0
H2149 H 0.24168 0.3681 0.9588 0.0
H2150 H 0.23651 0.34955 0.98787 0.0
H2151 H 0.23348 0.34856 0.1309 0.0
H2152 H 0.20982 0.29571 0.21723 0.0
H2153 H 0.22393 0.31434 0.1919 0.0
C2154 C 0.70179 0.90503 0.17968 0.0
C2155 C 0.71133 0.91292 0.15612 0.0
C2156 C 0.69103 0.90128 0.16291 0.0
C2157 C 0.67344 0.9062 0.08621 0.0
H2158 H 0.65793 0.87385 0.07005 0.0
C2159 C 0.62598 0.8767 0.04009 0.0
C2160 C 0.62399 0.86876 0.00675 0.0
C2161 C 0.63692 0.88385 0.05554 0.0
C2162 C 0.66218 0.88289 0.07426 0.0
H2163 H 0.71698 0.92374 0.09828 0.0
H2164 H 0.69804 0.91725 0.06936 0.0
H2165 H 0.67628 0.88329 0.10609 0.0
H2166 H 0.63201 0.86259 0.96168 0.0
H2167 H 0.65097 0.87488 0.98931 0.0
H2168 H 0.65911 0.90566 0.05486 0.0
C2169 C 0.69899 0.91394 0.1006 0.0
C2170 C 0.67261 0.88827 0.09516 0.0
C2171 C 0.70981 0.91761 0.11712 0.0
C2172 C 0.63321 0.86856 0.98753 0.0
C2173 C 0.64408 0.87557 0.00336 0.0
C2174 C 0.66283 0.90075 0.06597 0.0
C2175 C 0.68955 0.90544 0.12257 0.0
C2176 C 0.67836 0.89996 0.10127 0.0
C2177 C 0.64598 0.88306 0.03827 0.0
C2178 C 0.65718 0.88906 0.05954 0.0
H2179 H 0.70262 0.90128 0.20994 0.0
H2180 H 0.68386 0.89479 0.18062 0.0
H2181 H 0.67774 0.91523 0.09056 0.0
H2182 H 0.61907 0.87711 0.05544 0.0
H2183 H 0.63819 0.88954 0.0826 0.0
C2184 C 0.12501 0.75814 0.98287 0.0
C2185 C 0.12966 0.75411 0.01435 0.0
C2186 C 0.11705 0.76112 0.99546 0.0
C2187 C 0.09924 0.76061 0.09099 0.0
H2188 H 0.10343 0.78787 0.03525 0.0
C2189 C 0.08872 0.79268 0.17028 0.0
C2190 C 0.08393 0.79745 0.14291 0.0
C2191 C 0.0917 0.78508 0.15295 0.0
C2192 C 0.10202 0.78015 0.05068 0.0
H2193 H 0.12931 0.74963 0.08337 0.0
H2194 H 0.11588 0.75529 0.10579 0.0
H2195 H 0.11358 0.77893 0.00725 0.0
H2196 H 0.07793 0.7975 0.07648 0.0
H2197 H 0.08333 0.7844 0.04619 0.0
H2198 H 0.08819 0.76242 0.13628 0.0
C2199 C 0.11806 0.75586 0.07108 0.0
C2200 C 0.10781 0.77496 0.0345 0.0
C2201 C 0.12584 0.75267 0.05829 0.0
C2202 C 0.08162 0.794 0.09846 0.0
C2203 C 0.08475 0.78653 0.08103 0.0
C2204 C 0.0936 0.76595 0.10767 0.0
C2205 C 0.11375 0.76039 0.04004 0.0
C2206 C 0.10664 0.76519 0.05475 0.0
C2207 C 0.09008 0.78224 0.10783 0.0
C2208 C 0.09504 0.77584 0.08793 0.0
H2209 H 0.1277 0.75921 0.94862 0.0
H2210 H 0.11371 0.76425 0.9703 0.0
H2211 H 0.09793 0.753 0.10698 0.0
H2212 H 0.09057 0.79512 0.2047 0.0
H2213 H 0.09586 0.78194 0.17427 0.0
C2214 C 0.29281 0.21201 0.3771 0.0
C2215 C 0.29132 0.20424 0.34374 0.0
C2216 C 0.30361 0.21986 0.39174 0.0
C2217 C 0.32595 0.22859 0.43896 0.0
H2218 H 0.35207 0.24046 0.36244 0.0
C2219 C 0.3696 0.23954 0.50254 0.0
C2220 C 0.37929 0.248 0.48161 0.0
C2221 C 0.35892 0.23668 0.48704 0.0
C2222 C 0.34489 0.23742 0.38435 0.0
H2223 H 0.30005 0.19902 0.29811 0.0
H2224 H 0.31874 0.21246 0.32412 0.0
H2225 H 0.33337 0.23146 0.33 0.0
H2226 H 0.38531 0.26056 0.42956 0.0
H2227 H 0.36664 0.2557 0.40301 0.0
H2228 H 0.33748 0.23456 0.49331 0.0
C2229 C 0.31164 0.21266 0.33865 0.0
C2230 C 0.33414 0.23211 0.3657 0.0
C2231 C 0.30087 0.20487 0.3239 0.0
C2232 C 0.37803 0.25394 0.44623 0.0
C2233 C 0.36732 0.2511 0.43084 0.0
C2234 C 0.3367 0.23398 0.4576 0.0
C2235 C 0.31314 0.22009 0.37346 0.0
C2236 C 0.32453 0.22731 0.3928 0.0
C2237 C 0.35764 0.24225 0.45036 0.0
C2238 C 0.34631 0.23814 0.43059 0.0
H2239 H 0.28564 0.21182 0.39287 0.0
H2240 H 0.30447 0.22559 0.41808 0.0
H2241 H 0.31876 0.22495 0.46095 0.0
H2242 H 0.37025 0.23479 0.52989 0.0
H2243 H 0.3517 0.22971 0.50259 0.0
C2244 C 0.75974 0.12794 0.51138 0.0
C2245 C 0.75229 0.13007 0.48688 0.0
C2246 C 0.76342 0.12088 0.49461 0.0
C2247 C 0.75909 0.09913 0.41481 0.0
H2248 H 0.79161 0.11584 0.40454 0.0
C2249 C 0.78897 0.08148 0.36967 0.0
C2250 C 0.79729 0.08783 0.33806 0.0
C2251 C 0.78163 0.08508 0.38472 0.0
C2252 C 0.78253 0.11108 0.40711 0.0
H2253 H 0.74209 0.12562 0.42735 0.0
H2254 H 0.74848 0.11311 0.39835 0.0
H2255 H 0.78192 0.12447 0.44065 0.0
H2256 H 0.80391 0.1025 0.2954 0.0
H2257 H 0.79128 0.10882 0.32234 0.0
H2258 H 0.75984 0.08565 0.38165 0.0
C2259 C 0.7515 0.11703 0.43036 0.0
C2260 C 0.777 0.11597 0.42806 0.0
C2261 C 0.74788 0.12422 0.44693 0.0
C2262 C 0.79767 0.09744 0.31995 0.0
C2263 C 0.79045 0.10109 0.33537 0.0
C2264 C 0.76468 0.09412 0.39449 0.0
C2265 C 0.75963 0.11567 0.4533 0.0
C2266 C 0.76524 0.11008 0.43204 0.0
C2267 C 0.7826 0.09512 0.36876 0.0
C2268 C 0.77644 0.10012 0.39017 0.0
H2269 H 0.76324 0.13221 0.54243 0.0
H2270 H 0.76961 0.11986 0.51308 0.0
H2271 H 0.75001 0.09445 0.41748 0.0
H2272 H 0.78842 0.07401 0.38411 0.0
H2273 H 0.77565 0.08037 0.4106 0.0
C2274 C 0.91749 0.71025 0.39369 0.0
C2275 C 0.91738 0.71245 0.34834 0.0
C2276 C 0.91452 0.69945 0.40828 0.0
C2277 C 0.89768 0.67003 0.3699 0.0
H2278 H 0.90699 0.66362 0.4822 0.0
C2279 C 0.87668 0.62513 0.43867 0.0
C2280 C 0.8722 0.62417 0.48135 0.0
C2281 C 0.8846 0.63564 0.42192 0.0
C2282 C 0.90436 0.6653 0.45067 0.0
H2283 H 0.91506 0.70536 0.2825 0.0
H2284 H 0.91039 0.68667 0.30771 0.0
H2285 H 0.91699 0.6827 0.45225 0.0
H2286 H 0.87312 0.63338 0.54104 0.0
H2287 H 0.88701 0.6517 0.51183 0.0
H2288 H 0.88501 0.65266 0.36855 0.0
C2289 C 0.9123 0.69313 0.33225 0.0
C2290 C 0.91004 0.67623 0.43356 0.0
C2291 C 0.91507 0.70387 0.31772 0.0
C2292 C 0.87636 0.63384 0.50794 0.0
C2293 C 0.88437 0.64433 0.49133 0.0
C2294 C 0.89213 0.6591 0.38669 0.0
C2295 C 0.91154 0.69065 0.37779 0.0
C2296 C 0.9066 0.6788 0.39342 0.0
C2297 C 0.8883 0.64538 0.44767 0.0
C2298 C 0.89524 0.65667 0.42768 0.0
H2299 H 0.91919 0.71668 0.41813 0.0
H2300 H 0.91394 0.6979 0.44358 0.0
H2301 H 0.89458 0.67165 0.33944 0.0
H2302 H 0.8737 0.61785 0.41735 0.0
H2303 H 0.88758 0.6362 0.38829 0.0
C2304 C 0.79122 0.71057 0.89194 0.0
C2305 C 0.7951 0.71137 0.84829 0.0
C2306 C 0.78327 0.70017 0.90948 0.0
C2307 C 0.76279 0.67048 0.88235 0.0
H2308 H 0.77369 0.6642 0.99087 0.0
C2309 C 0.75049 0.62562 0.93784 0.0
C2310 C 0.75094 0.62345 0.98301 0.0
C2311 C 0.75327 0.63639 0.92355 0.0
C2312 C 0.77029 0.66581 0.96121 0.0
H2313 H 0.79302 0.702 0.78778 0.0
H2314 H 0.77914 0.68389 0.8184 0.0
H2315 H 0.78299 0.68315 0.96154 0.0
H2316 H 0.75368 0.63057 0.04895 0.0
H2317 H 0.75805 0.6492 0.02431 0.0
H2318 H 0.75017 0.65306 0.88169 0.0
C2319 C 0.78225 0.69129 0.83908 0.0
C2320 C 0.77567 0.67672 0.94431 0.0
C2321 C 0.79026 0.70167 0.82162 0.0
C2322 C 0.75341 0.63203 0.01384 0.0
C2323 C 0.756 0.64274 -0.00036 0.0
C2324 C 0.7573 0.65955 0.89955 0.0
C2325 C 0.77897 0.69038 0.88363 0.0
C2326 C 0.77215 0.67913 0.9042 0.0
C2327 C 0.7564 0.64519 0.95419 0.0
C2328 C 0.76115 0.65702 0.9387 0.0
H2329 H 0.79472 0.71787 0.91334 0.0
H2330 H 0.78078 0.69973 0.94379 0.0
H2331 H 0.75984 0.67213 0.85154 0.0
H2332 H 0.74864 0.61918 0.91325 0.0
H2333 H 0.75357 0.63792 0.88829 0.0
C2334 C 0.36872 0.12978 0.0056 0.0
C2335 C 0.37835 0.1308 0.98497 0.0
C2336 C 0.358 0.12183 0.99093 0.0
C2337 C 0.34371 0.10594 0.89036 0.0
H2338 H 0.31778 0.09328 0.96807 0.0
C2339 C 0.29959 0.09396 0.82935 0.0
C2340 C 0.29006 0.08539 0.85072 0.0
C2341 C 0.31038 0.09701 0.84412 0.0
C2342 C 0.32491 0.09653 0.94581 0.0
H2343 H 0.38426 0.12377 0.93441 0.0
H2344 H 0.36553 0.1097 0.90941 0.0
H2345 H 0.33657 0.10267 -0.00033 0.0
H2346 H 0.28443 0.07282 0.90264 0.0
H2347 H 0.30329 0.07799 0.92784 0.0
H2348 H 0.33204 0.09976 0.8365 0.0
C2349 C 0.36627 0.11526 0.93628 0.0
C2350 C 0.33571 0.10208 0.96399 0.0
C2351 C 0.37701 0.12328 0.95079 0.0
C2352 C 0.29159 0.07952 0.88567 0.0
C2353 C 0.30241 0.08254 0.9003 0.0
C2354 C 0.3329 0.10031 0.87219 0.0
C2355 C 0.35663 0.11462 0.95546 0.0
C2356 C 0.34524 0.10718 0.93649 0.0
C2357 C 0.31193 0.09152 0.88045 0.0
C2358 C 0.32336 0.09586 0.89963 0.0
H2359 H 0.36942 0.13544 0.03201 0.0
H2360 H 0.35081 0.12173 0.00616 0.0
H2361 H 0.35082 0.1098 0.86805 0.0
H2362 H 0.29875 0.09867 0.80231 0.0
H2363 H 0.31747 0.10407 0.82833 0.0
C2364 C 0.91956 0.21047 0.89372 0.0
C2365 C 0.91607 0.20577 0.85131 0.0
C2366 C 0.91658 0.21814 0.9101 0.0
C2367 C 0.9057 0.23702 0.88059 0.0
H2368 H 0.88977 0.22717 0.99218 0.0
C2369 C 0.87344 0.24959 0.93768 0.0
C2370 C 0.87121 0.24958 0.98307 0.0
C2371 C 0.88129 0.24665 0.92304 0.0
C2372 C 0.89442 0.23029 0.9616 0.0
H2373 H 0.90739 0.20605 0.79172 0.0
H2374 H 0.9023 0.21954 0.82027 0.0
H2375 H 0.89957 0.21795 0.96334 0.0
H2376 H 0.87612 0.24741 0.04889 0.0
H2377 H 0.89019 0.24282 0.02358 0.0
H2378 H 0.90051 0.24934 0.87867 0.0
C2379 C 0.9073 0.21724 0.84084 0.0
C2380 C 0.90002 0.22494 0.94497 0.0
C2381 C 0.91016 0.20947 0.82461 0.0
C2382 C 0.87756 0.24735 0.01364 0.0
C2383 C 0.88556 0.24462 0.99905 0.0
C2384 C 0.90023 0.24251 0.89755 0.0
C2385 C 0.91018 0.22138 0.88424 0.0
C2386 C 0.90551 0.22808 0.90389 0.0
C2387 C 0.88723 0.24381 0.9535 0.0
C2388 C 0.89429 0.23904 0.93784 0.0
H2389 H 0.92414 0.20784 0.91513 0.0
H2390 H 0.919 0.22129 0.94354 0.0
H2391 H 0.90996 0.23967 0.84897 0.0
H2392 H 0.86865 0.25122 0.91327 0.0
H2393 H 0.88221 0.24603 0.88773 0.0
C2394 C 0.70308 0.79545 0.67951 0.0
C2395 C 0.71258 0.79714 0.65557 0.0
C2396 C 0.6923 0.78859 0.66265 0.0
C2397 C 0.67454 0.76659 0.58443 0.0
H2398 H 0.65936 0.78385 0.57108 0.0
C2399 C 0.62718 0.74935 0.53877 0.0
C2400 C 0.62525 0.75554 0.50626 0.0
C2401 C 0.63809 0.75297 0.5541 0.0
C2402 C 0.66351 0.77894 0.57449 0.0
H2403 H 0.71813 0.79213 0.59695 0.0
H2404 H 0.69916 0.77996 0.56786 0.0
H2405 H 0.6777 0.79235 0.60706 0.0
H2406 H 0.63337 0.77001 0.46263 0.0
H2407 H 0.65229 0.77638 0.49008 0.0
H2408 H 0.66012 0.75309 0.55232 0.0
C2409 C 0.70015 0.78407 0.59947 0.0
C2410 C 0.67394 0.78376 0.59537 0.0
C2411 C 0.711 0.79107 0.6161 0.0
C2412 C 0.63452 0.76506 0.4878 0.0
C2413 C 0.64536 0.76874 0.50354 0.0
C2414 C 0.66393 0.76166 0.5642 0.0
C2415 C 0.69076 0.78314 0.62183 0.0
C2416 C 0.67957 0.77766 0.60049 0.0
C2417 C 0.64721 0.7629 0.53759 0.0
C2418 C 0.6584 0.76785 0.55878 0.0
H2419 H 0.70395 0.79991 0.71015 0.0
H2420 H 0.68516 0.7879 0.68067 0.0
H2421 H 0.67875 0.76175 0.588 0.0
H2422 H 0.62023 0.74195 0.55351 0.0
H2423 H 0.63932 0.74835 0.5805 0.0
C2424 C 0.20666 0.90722 0.67274 0.0
C2425 C 0.20436 0.91496 0.65159 0.0
C2426 C 0.21492 0.9051 0.65628 0.0
C2427 C 0.23501 0.90384 0.62399 0.0
H2428 H 0.23469 0.90055 0.49648 0.0
C2429 C 0.2574 0.88256 0.54222 0.0
C2430 C 0.25093 0.87442 0.51025 0.0
C2431 C 0.25435 0.89037 0.55639 0.0
C2432 C 0.23489 0.90142 0.53215 0.0
H2433 H 0.20945 0.92708 0.59814 0.0
H2434 H 0.22406 0.92356 0.56992 0.0
H2435 H 0.22444 0.90883 0.53001 0.0
H2436 H 0.23656 0.86855 0.46635 0.0
H2437 H 0.23113 0.88189 0.49168 0.0
H2438 H 0.24477 0.89567 0.62637 0.0
C2439 C 0.21927 0.91892 0.59866 0.0
C2440 C 0.22913 0.90633 0.55141 0.0
C2441 C 0.21094 0.92099 0.61499 0.0
C2442 C 0.24174 0.87468 0.49109 0.0
C2443 C 0.23866 0.88242 0.50544 0.0
C2444 C 0.24068 0.89883 0.60476 0.0
C2445 C 0.22116 0.91073 0.61842 0.0
C2446 C 0.22882 0.90728 0.59769 0.0
C2447 C 0.24475 0.89019 0.53909 0.0
C2448 C 0.24039 0.89723 0.55867 0.0
H2449 H 0.20176 0.90241 0.70102 0.0
H2450 H 0.21599 0.89862 0.67207 0.0
H2451 H 0.23516 0.90465 0.65968 0.0
H2452 H 0.26459 0.88266 0.55739 0.0
H2453 H 0.25936 0.89637 0.58177 0.0
C2454 C 0.12342 0.37368 0.53538 0.0
C2455 C 0.13176 0.37563 0.50388 0.0
C2456 C 0.11609 0.36277 0.55059 0.0
C2457 C 0.117 0.33771 0.57372 0.0
H2458 H 0.08448 0.32185 0.58376 0.0
C2459 C 0.09413 0.2982 0.67869 0.0
C2460 C 0.0867 0.2886 0.65428 0.0
C2461 C 0.09783 0.30892 0.66166 0.0
C2462 C 0.09356 0.32624 0.58118 0.0
H2463 H 0.13842 0.36755 0.46158 0.0
H2464 H 0.12581 0.34864 0.48881 0.0
H2465 H 0.09432 0.34042 0.5476 0.0
H2466 H 0.07658 0.28279 0.5946 0.0
H2467 H 0.083 0.30165 0.56513 0.0
H2468 H 0.11638 0.32376 0.60769 0.0
C2469 C 0.12496 0.35554 0.50162 0.0
C2470 C 0.09916 0.33681 0.56067 0.0
C2471 C 0.13216 0.36638 0.48604 0.0
C2472 C 0.08235 0.29 0.61411 0.0
C2473 C 0.08598 0.30078 0.59728 0.0
C2474 C 0.11146 0.32732 0.59486 0.0
C2475 C 0.11709 0.35369 0.5349 0.0
C2476 C 0.11092 0.34256 0.55647 0.0
C2477 C 0.09409 0.3103 0.62017 0.0
C2478 C 0.09971 0.32147 0.59872 0.0
H2479 H 0.12285 0.38061 0.54962 0.0
H2480 H 0.1101 0.36153 0.57638 0.0
H2481 H 0.12608 0.34203 0.57124 0.0
H2482 H 0.09759 0.29746 0.7099 0.0
H2483 H 0.10401 0.31616 0.68009 0.0
C2484 C 0.03329 0.56838 0.84005 0.0
C2485 C 0.04237 0.57776 0.81994 0.0
C2486 C 0.02235 0.5643 0.82468 0.0
C2487 C 0.00338 0.57019 0.75974 0.0
H2488 H 0.98935 0.53861 0.72853 0.0
C2489 C 0.95616 0.54066 0.71257 0.0
C2490 C 0.95416 0.53336 0.67668 0.0
C2491 C 0.96712 0.54771 0.72792 0.0
C2492 C 0.99317 0.54744 0.73688 0.0
H2493 H 0.04694 0.5907 0.77005 0.0
H2494 H 0.0277 0.58358 0.74352 0.0
H2495 H 0.00785 0.5479 0.76305 0.0
H2496 H 0.96221 0.52831 0.627 0.0
H2497 H 0.98122 0.54049 0.65416 0.0
H2498 H 0.9885 0.56959 0.73385 0.0
C2499 C 0.02914 0.57939 0.771 0.0
C2500 C 0.00371 0.55273 0.75701 0.0
C2501 C 0.04015 0.58343 0.7861 0.0
C2502 C 0.96341 0.53375 0.65491 0.0
C2503 C 0.97431 0.5407 0.6705 0.0
C2504 C 0.99269 0.56482 0.74016 0.0
C2505 C 0.02022 0.56957 0.78919 0.0
C2506 C 0.00892 0.56414 0.76863 0.0
C2507 C 0.97623 0.5475 0.70789 0.0
C2508 C 0.98755 0.55342 0.72829 0.0
H2509 H 0.03466 0.56385 0.86639 0.0
H2510 H 0.01558 0.55679 0.83961 0.0
H2511 H 0.00725 0.579 0.76841 0.0
H2512 H 0.94923 0.5406 0.72995 0.0
H2513 H 0.96839 0.55287 0.75687 0.0
C2514 C 0.43272 0.46484 0.84763 0.0
C2515 C 0.42358 0.46517 0.82823 0.0
C2516 C 0.43634 0.45773 0.83085 0.0
C2517 C 0.42964 0.43311 0.76354 0.0
H2518 H 0.46076 0.45046 0.72593 0.0
C2519 C 0.45928 0.41607 0.70722 0.0
C2520 C 0.46566 0.42116 0.66892 0.0
C2521 C 0.45219 0.41969 0.72486 0.0
C2522 C 0.45206 0.44552 0.73615 0.0
H2523 H 0.41051 0.45759 0.7783 0.0
H2524 H 0.4168 0.44498 0.74946 0.0
H2525 H 0.45208 0.45979 0.7645 0.0
H2526 H 0.46891 0.43345 0.61736 0.0
H2527 H 0.45673 0.43983 0.64867 0.0
H2528 H 0.42978 0.41877 0.73561 0.0
C2529 C 0.42118 0.45035 0.7774 0.0
C2530 C 0.44713 0.45083 0.75852 0.0
C2531 C 0.41762 0.45759 0.79381 0.0
C2532 C 0.4642 0.42938 0.64704 0.0
C2533 C 0.45724 0.43307 0.66495 0.0
C2534 C 0.43467 0.42772 0.74182 0.0
C2535 C 0.43081 0.45066 0.79478 0.0
C2536 C 0.43588 0.4447 0.77233 0.0
C2537 C 0.45147 0.42852 0.70473 0.0
C2538 C 0.4459 0.43393 0.72762 0.0
H2539 H 0.43747 0.47051 0.87429 0.0
H2540 H 0.44374 0.45804 0.845 0.0
H2541 H 0.42094 0.42824 0.77388 0.0
H2542 H 0.46017 0.40968 0.72475 0.0
H2543 H 0.44783 0.41607 0.75565 0.0
C2544 C 0.54588 0.96684 0.83732 0.0
C2545 C 0.54063 0.95715 0.81073 0.0
C2546 C 0.55359 0.97723 0.81896 0.0
C2547 C 0.55829 0.99187 0.71482 0.0
H2548 H 0.58517 0.01533 0.77126 0.0
C2549 C 0.57975 0.0367 0.64576 0.0
C2550 C 0.58322 0.04533 0.6772 0.0
C2551 C 0.5771 0.02587 0.65869 0.0
C2552 C 0.57764 0.0089 0.75517 0.0
H2553 H 0.53995 0.95065 0.74461 0.0
H2554 H 0.55332 0.96882 0.71257 0.0
H2555 H 0.57594 0.99625 0.80133 0.0
H2556 H 0.58712 0.04953 0.74656 0.0
H2557 H 0.58207 0.03063 0.76946 0.0
H2558 H 0.55945 0.00446 0.6704 0.0
C2559 C 0.55142 0.96836 0.74757 0.0
C2560 C 0.57241 0.99797 0.77229 0.0
C2561 C 0.5438 0.95795 0.76601 0.0
C2562 C 0.5845 0.04306 0.7215 0.0
C2563 C 0.58166 0.03219 0.73458 0.0
C2564 C 0.56341 0.0028 0.69808 0.0
C2565 C 0.55612 0.97815 0.77357 0.0
C2566 C 0.56257 0.98939 0.75267 0.0
C2567 C 0.57763 0.02338 0.70354 0.0
C2568 C 0.57305 0.01152 0.71846 0.0
H2569 H 0.54367 0.96651 0.87194 0.0
H2570 H 0.55703 0.98464 0.83976 0.0
H2571 H 0.55061 0.98548 0.69941 0.0
H2572 H 0.57882 0.03823 0.61125 0.0
H2573 H 0.57433 0.01939 0.63362 0.0
C2574 C 0.45695 0.03607 0.14653 0.0
C2575 C 0.46256 0.04472 0.17762 0.0
C2576 C 0.44892 0.02528 0.16026 0.0
C2577 C 0.43271 0.00832 0.25902 0.0
H2578 H 0.43601 0.98507 0.20011 0.0
C2579 C 0.42392 0.96656 0.33953 0.0
C2580 C 0.41944 0.95686 0.31299 0.0
C2581 C 0.4262 0.97687 0.32151 0.0
C2582 C 0.4348 0.9914 0.21644 0.0
H2583 H 0.46373 0.049 0.24723 0.0
H2584 H 0.45009 0.03014 0.27144 0.0
H2585 H 0.44556 0.004 0.17062 0.0
H2586 H 0.41309 0.95023 0.24747 0.0
H2587 H 0.41716 0.96825 0.21605 0.0
H2588 H 0.42245 0.99568 0.30644 0.0
C2589 C 0.45164 0.03167 0.2363 0.0
C2590 C 0.44026 0.0023 0.19943 0.0
C2591 C 0.45953 0.04251 0.22245 0.0
C2592 C 0.41661 0.95755 0.2688 0.0
C2593 C 0.41898 0.96787 0.25071 0.0
C2594 C 0.42734 0.99741 0.27637 0.0
C2595 C 0.44646 0.02283 0.20551 0.0
C2596 C 0.43947 0.01098 0.22089 0.0
C2597 C 0.42412 0.97769 0.27652 0.0
C2598 C 0.4285 0.98889 0.25562 0.0
H2599 H 0.459 0.03756 0.11164 0.0
H2600 H 0.44489 0.01878 0.13544 0.0
H2601 H 0.43172 0.01472 0.27602 0.0
H2602 H 0.42614 0.96632 0.37376 0.0
H2603 H 0.43022 0.9843 0.34217 0.0
C2604 C 0.04213 0.45584 0.27609 0.0
C2605 C 0.04355 0.46313 0.31133 0.0
C2606 C 0.03136 0.44807 0.26098 0.0
C2607 C 1.0008 0.43512 0.28828 0.0
H2608 H 0.99734 0.43394 0.16071 0.0
C2609 C 0.95682 0.41355 0.20852 0.0
C2610 C 0.95541 0.41969 0.17434 0.0
C2611 C 0.96759 0.41642 0.2233 0.0
C2612 C 0.99815 0.43418 0.19641 0.0
H2613 H 0.03472 0.46758 0.35962 0.0
H2614 H 0.01607 0.45429 0.33276 0.0
H2615 H 0.01608 0.44347 0.1928 0.0
H2616 H 0.96426 0.43334 0.12756 0.0
H2617 H 0.9829 0.43848 0.15388 0.0
H2618 H 0.98287 0.42651 0.29195 0.0
C2619 C 0.02321 0.45439 0.31713 0.0
C2620 C 0.00892 0.43951 0.21487 0.0
C2621 C 0.03395 0.4621 0.33239 0.0
C2622 C 0.96501 0.42841 0.15397 0.0
C2623 C 0.97575 0.43132 0.16891 0.0
C2624 C 0.99003 0.42987 0.26982 0.0
C2625 C 0.02177 0.44744 0.2806 0.0
C2626 C 0.01039 0.44032 0.26109 0.0
C2627 C 0.97718 0.42552 0.2044 0.0
C2628 C 0.98856 0.4296 0.22366 0.0
H2629 H 0.04934 0.45635 0.25934 0.0
H2630 H 0.03056 0.44271 0.23329 0.0
H2631 H 0.00161 0.43539 0.32398 0.0
H2632 H 0.94961 0.40672 0.22471 0.0
H2633 H 0.96838 0.41163 0.25017 0.0
C2634 C 0.58453 0.5399 0.22582 0.0
C2635 C 0.58449 0.5378 0.1803 0.0
C2636 C 0.58152 0.54766 0.24103 0.0
C2637 C 0.56471 0.56039 0.20396 0.0
H2638 H 0.57426 0.57606 0.31625 0.0
C2639 C 0.5439 0.58437 0.27415 0.0
C2640 C 0.53966 0.58103 0.31726 0.0
C2641 C 0.55172 0.5817 0.25684 0.0
C2642 C 0.57156 0.57176 0.28474 0.0
H2643 H 0.58225 0.54285 0.11486 0.0
H2644 H 0.57748 0.55671 0.14117 0.0
H2645 H 0.58412 0.56688 0.28578 0.0
H2646 H 0.54093 0.57297 0.37704 0.0
H2647 H 0.55461 0.56838 0.34685 0.0
H2648 H 0.55208 0.56516 0.20318 0.0
C2649 C 0.57938 0.55207 0.16534 0.0
C2650 C 0.57716 0.56646 0.26733 0.0
C2651 C 0.5822 0.54418 0.1502 0.0
C2652 C 0.54397 0.57561 0.34361 0.0
C2653 C 0.55186 0.57303 0.32643 0.0
C2654 C 0.55922 0.5658 0.22108 0.0
C2655 C 0.57857 0.5536 0.211 0.0
C2656 C 0.57365 0.56048 0.22715 0.0
C2657 C 0.55556 0.57575 0.28243 0.0
C2658 C 0.56242 0.57134 0.26207 0.0
H2659 H 0.58622 0.53508 0.24985 0.0
H2660 H 0.5809 0.5485 0.2764 0.0
H2661 H 0.56156 0.5557 0.17347 0.0
H2662 H 0.5408 0.5886 0.253 0.0
H2663 H 0.55451 0.584 0.22296 0.0
loop_
_geom_bond_atom_site_label_1
_geom_bond_atom_site_label_2
_geom_bond_distance
_geom_bond_site_symmetry_2
_ccdc_geom_bond_type
O0 Cd1 2.223 . S
O0 C8 1.315 . S
Cd1 O0 2.223 . S
Cd1 O4 2.297 . S
Cd1 O5 2.439 . S
Cd1 O11 2.240 . S
Cd2 O3 2.240 . S
Cd2 O10 2.223 . S
Cd2 O12 2.297 . S
Cd2 O13 2.439 . S
O3 Cd2 2.240 . S
O3 C8 1.279 . S
O4 Cd1 2.297 . S
O4 C6 1.247 . S
O5 Cd1 2.439 . S
O5 C6 1.208 . S
C6 O4 1.247 . S
C6 O5 1.208 . S
C7 O12 1.247 . S
C7 O13 1.208 . S
C8 O0 1.315 . S
C8 O3 1.279 . S
C9 O10 1.315 . S
C9 O11 1.279 . S
O10 Cd2 2.223 . S
O10 C9 1.315 . S
O11 Cd1 2.240 . S
O11 C9 1.279 . S
O12 Cd2 2.297 . S
O12 C7 1.247 . S
O13 Cd2 2.439 . S
O13 C7 1.208 . S
O14 Cd15 2.223 . S
O14 C22 1.315 . S
Cd15 O14 2.223 . S
Cd15 O18 2.297 . S
Cd15 O19 2.439 . S
Cd15 O25 2.240 . S
Cd16 O17 2.240 . S
Cd16 O24 2.223 . S
Cd16 O26 2.297 . S
Cd16 O27 2.439 . S
O17 Cd16 2.240 . S
O17 C22 1.279 . S
O18 Cd15 2.297 . S
O18 C20 1.247 . S
O19 Cd15 2.439 . S
O19 C20 1.208 . S
C20 O18 1.247 . S
C20 O19 1.208 . S
C21 O26 1.247 . S
C21 O27 1.208 . S
C22 O14 1.315 . S
C22 O17 1.279 . S
C23 O24 1.315 . S
C23 O25 1.279 . S
O24 Cd16 2.223 . S
O24 C23 1.315 . S
O25 Cd15 2.240 . S
O25 C23 1.279 . S
O26 Cd16 2.297 . S
O26 C21 1.247 . S
O27 Cd16 2.439 . S
O27 C21 1.208 . S
O28 Cd29 2.223 . S
O28 C36 1.315 . S
Cd29 O28 2.223 . S
Cd29 O32 2.297 . S
Cd29 O33 2.439 . S
Cd29 O39 2.240 . S
Cd30 O31 2.240 . S
Cd30 O38 2.223 . S
Cd30 O40 2.297 . S
Cd30 O41 2.439 . S
O31 Cd30 2.240 . S
O31 C36 1.279 . S
O32 Cd29 2.297 . S
O32 C34 1.247 . S
O33 Cd29 2.439 . S
O33 C34 1.208 . S
C34 O32 1.247 . S
C34 O33 1.208 . S
C35 O40 1.247 . S
C35 O41 1.208 . S
C36 O28 1.315 . S
C36 O31 1.279 . S
C37 O38 1.315 . S
C37 O39 1.279 . S
O38 Cd30 2.223 . S
O38 C37 1.315 . S
O39 Cd29 2.240 . S
O39 C37 1.279 . S
O40 Cd30 2.297 . S
O40 C35 1.247 . S
O41 Cd30 2.439 . S
O41 C35 1.208 . S
O42 Cd43 2.223 . S
O42 C50 1.315 . S
Cd43 O42 2.223 . S
Cd43 O46 2.297 . S
Cd43 O47 2.439 . S
Cd43 O53 2.240 . S
Cd44 O45 2.240 . S
Cd44 O52 2.223 . S
Cd44 O54 2.297 . S
Cd44 O55 2.439 . S
O45 Cd44 2.240 . S
O45 C50 1.279 . S
O46 Cd43 2.297 . S
O46 C48 1.247 . S
O47 Cd43 2.439 . S
O47 C48 1.208 . S
C48 O46 1.247 . S
C48 O47 1.208 . S
C49 O54 1.247 . S
C49 O55 1.208 . S
C50 O42 1.315 . S
C50 O45 1.279 . S
C51 O52 1.315 . S
C51 O53 1.279 . S
O52 Cd44 2.223 . S
O52 C51 1.315 . S
O53 Cd43 2.240 . S
O53 C51 1.279 . S
O54 Cd44 2.297 . S
O54 C49 1.247 . S
O55 Cd44 2.439 . S
O55 C49 1.208 . S
O56 Cd57 2.223 . S
O56 C64 1.315 . S
Cd57 O56 2.223 . S
Cd57 O60 2.297 . S
Cd57 O61 2.439 . S
Cd57 O67 2.240 . S
Cd58 O59 2.240 . S
Cd58 O66 2.223 . S
Cd58 O68 2.297 . S
Cd58 O69 2.439 . S
O59 Cd58 2.240 . S
O59 C64 1.279 . S
O60 Cd57 2.297 . S
O60 C62 1.247 . S
O61 Cd57 2.439 . S
O61 C62 1.208 . S
C62 O60 1.247 . S
C62 O61 1.208 . S
C63 O68 1.247 . S
C63 O69 1.208 . S
C64 O56 1.315 . S
C64 O59 1.279 . S
C65 O66 1.315 . S
C65 O67 1.279 . S
O66 Cd58 2.223 . S
O66 C65 1.315 . S
O67 Cd57 2.240 . S
O67 C65 1.279 . S
O68 Cd58 2.297 . S
O68 C63 1.247 . S
O69 Cd58 2.439 . S
O69 C63 1.208 . S
O70 Cd71 2.223 . S
O70 C78 1.315 . S
Cd71 O70 2.223 . S
Cd71 O74 2.297 . S
Cd71 O75 2.439 . S
Cd71 O81 2.240 . S
Cd72 O73 2.240 . S
Cd72 O80 2.223 . S
Cd72 O82 2.297 . S
Cd72 O83 2.439 . S
O73 Cd72 2.240 . S
O73 C78 1.279 . S
O74 Cd71 2.297 . S
O74 C76 1.247 . S
O75 Cd71 2.439 . S
O75 C76 1.208 . S
C76 O74 1.247 . S
C76 O75 1.208 . S
C77 O82 1.247 . S
C77 O83 1.208 . S
C78 O70 1.315 . S
C78 O73 1.279 . S
C79 O80 1.315 . S
C79 O81 1.279 . S
O80 Cd72 2.223 . S
O80 C79 1.315 . S
O81 Cd71 2.240 . S
O81 C79 1.279 . S
O82 Cd72 2.297 . S
O82 C77 1.247 . S
O83 Cd72 2.439 . S
O83 C77 1.208 . S
O84 Cd85 2.223 . S
O84 C92 1.315 . S
Cd85 O84 2.223 . S
Cd85 O88 2.297 . S
Cd85 O89 2.439 . S
Cd85 O95 2.240 . S
Cd86 O87 2.240 . S
Cd86 O94 2.223 . S
Cd86 O96 2.297 . S
Cd86 O97 2.439 . S
O87 Cd86 2.240 . S
O87 C92 1.279 . S
O88 Cd85 2.297 . S
O88 C90 1.247 . S
O89 Cd85 2.439 . S
O89 C90 1.208 . S
C90 O88 1.247 . S
C90 O89 1.208 . S
C91 O96 1.247 . S
C91 O97 1.208 . S
C92 O84 1.315 . S
C92 O87 1.279 . S
C93 O94 1.315 . S
C93 O95 1.279 . S
O94 Cd86 2.223 . S
O94 C93 1.315 . S
O95 Cd85 2.240 . S
O95 C93 1.279 . S
O96 Cd86 2.297 . S
O96 C91 1.247 . S
O97 Cd86 2.439 . S
O97 C91 1.208 . S
O98 Cd99 2.223 . S
O98 C106 1.315 . S
Cd99 O98 2.223 . S
Cd99 O102 2.297 . S
Cd99 O103 2.439 . S
Cd99 O109 2.240 . S
Cd100 O101 2.240 . S
Cd100 O108 2.223 . S
Cd100 O110 2.297 . S
Cd100 O111 2.439 . S
O101 Cd100 2.240 . S
O101 C106 1.279 . S
O102 Cd99 2.297 . S
O102 C104 1.247 . S
O103 Cd99 2.439 . S
O103 C104 1.208 . S
C104 O102 1.247 . S
C104 O103 1.208 . S
C105 O110 1.247 . S
C105 O111 1.208 . S
C106 O98 1.315 . S
C106 O101 1.279 . S
C107 O108 1.315 . S
C107 O109 1.279 . S
O108 Cd100 2.223 . S
O108 C107 1.315 . S
O109 Cd99 2.240 . S
O109 C107 1.279 . S
O110 Cd100 2.297 . S
O110 C105 1.247 . S
O111 Cd100 2.439 . S
O111 C105 1.208 . S
O112 Cd113 2.223 . S
O112 C120 1.315 . S
Cd113 O112 2.223 . S
Cd113 O116 2.297 . S
Cd113 O117 2.439 . S
Cd113 O123 2.240 . S
Cd114 O115 2.240 . S
Cd114 O122 2.223 . S
Cd114 O124 2.297 . S
Cd114 O125 2.439 . S
O115 Cd114 2.240 . S
O115 C120 1.279 . S
O116 Cd113 2.297 . S
O116 C118 1.247 . S
O117 Cd113 2.439 . S
O117 C118 1.208 . S
C118 O116 1.247 . S
C118 O117 1.208 . S
C119 O124 1.247 . S
C119 O125 1.208 . S
C120 O112 1.315 . S
C120 O115 1.279 . S
C121 O122 1.315 . S
C121 O123 1.279 . S
O122 Cd114 2.223 . S
O122 C121 1.315 . S
O123 Cd113 2.240 . S
O123 C121 1.279 . S
O124 Cd114 2.297 . S
O124 C119 1.247 . S
O125 Cd114 2.439 . S
O125 C119 1.208 . S
O126 Cd127 2.223 . S
O126 C134 1.315 . S
Cd127 O126 2.223 . S
Cd127 O130 2.297 . S
Cd127 O131 2.439 . S
Cd127 O137 2.240 . S
Cd128 O129 2.240 . S
Cd128 O136 2.223 . S
Cd128 O138 2.297 . S
Cd128 O139 2.439 . S
O129 Cd128 2.240 . S
O129 C134 1.279 . S
O130 Cd127 2.297 . S
O130 C132 1.247 . S
O131 Cd127 2.439 . S
O131 C132 1.208 . S
C132 O130 1.247 . S
C132 O131 1.208 . S
C133 O138 1.247 . S
C133 O139 1.208 . S
C134 O126 1.315 . S
C134 O129 1.279 . S
C135 O136 1.315 . S
C135 O137 1.279 . S
O136 Cd128 2.223 . S
O136 C135 1.315 . S
O137 Cd127 2.240 . S
O137 C135 1.279 . S
O138 Cd128 2.297 . S
O138 C133 1.247 . S
O139 Cd128 2.439 . S
O139 C133 1.208 . S
O140 Cd141 2.223 . S
O140 C148 1.315 . S
Cd141 O140 2.223 . S
Cd141 O144 2.297 . S
Cd141 O145 2.439 . S
Cd141 O151 2.240 . S
Cd142 O143 2.240 . S
Cd142 O150 2.223 . S
Cd142 O152 2.297 . S
Cd142 O153 2.439 . S
O143 Cd142 2.240 . S
O143 C148 1.279 . S
O144 Cd141 2.297 . S
O144 C146 1.247 . S
O145 Cd141 2.439 . S
O145 C146 1.208 . S
C146 O144 1.247 . S
C146 O145 1.208 . S
C147 O152 1.247 . S
C147 O153 1.208 . S
C148 O140 1.315 . S
C148 O143 1.279 . S
C149 O150 1.315 . S
C149 O151 1.279 . S
O150 Cd142 2.223 . S
O150 C149 1.315 . S
O151 Cd141 2.240 . S
O151 C149 1.279 . S
O152 Cd142 2.297 . S
O152 C147 1.247 . S
O153 Cd142 2.439 . S
O153 C147 1.208 . S
O154 Cd155 2.223 . S
O154 C162 1.315 . S
Cd155 O154 2.223 . S
Cd155 O158 2.297 . S
Cd155 O159 2.439 . S
Cd155 O165 2.240 . S
Cd156 O157 2.240 . S
Cd156 O164 2.223 . S
Cd156 O166 2.297 . S
Cd156 O167 2.439 . S
O157 Cd156 2.240 . S
O157 C162 1.279 . S
O158 Cd155 2.297 . S
O158 C160 1.247 . S
O159 Cd155 2.439 . S
O159 C160 1.208 . S
C160 O158 1.247 . S
C160 O159 1.208 . S
C161 O166 1.247 . S
C161 O167 1.208 . S
C162 O154 1.315 . S
C162 O157 1.279 . S
C163 O164 1.315 . S
C163 O165 1.279 . S
O164 Cd156 2.223 . S
O164 C163 1.315 . S
O165 Cd155 2.240 . S
O165 C163 1.279 . S
O166 Cd156 2.297 . S
O166 C161 1.247 . S
O167 Cd156 2.439 . S
O167 C161 1.208 . S
O168 Cd169 2.223 . S
O168 C176 1.315 . S
Cd169 O168 2.223 . S
Cd169 O172 2.297 . S
Cd169 O173 2.439 . S
Cd169 O179 2.240 . S
Cd170 O171 2.240 . S
Cd170 O178 2.223 . S
Cd170 O180 2.297 . S
Cd170 O181 2.439 . S
O171 Cd170 2.240 . S
O171 C176 1.279 . S
O172 Cd169 2.297 . S
O172 C174 1.247 . S
O173 Cd169 2.439 . S
O173 C174 1.208 . S
C174 O172 1.247 . S
C174 O173 1.208 . S
C175 O180 1.247 . S
C175 O181 1.208 . S
C176 O168 1.315 . S
C176 O171 1.279 . S
C177 O178 1.315 . S
C177 O179 1.279 . S
O178 Cd170 2.223 . S
O178 C177 1.315 . S
O179 Cd169 2.240 . S
O179 C177 1.279 . S
O180 Cd170 2.297 . S
O180 C175 1.247 . S
O181 Cd170 2.439 . S
O181 C175 1.208 . S
O182 Cd183 2.223 . S
O182 C190 1.315 . S
Cd183 O182 2.223 . S
Cd183 O186 2.297 . S
Cd183 O187 2.439 . S
Cd183 O193 2.240 . S
Cd184 O185 2.240 . S
Cd184 O192 2.223 . S
Cd184 O194 2.297 . S
Cd184 O195 2.439 . S
O185 Cd184 2.240 . S
O185 C190 1.279 . S
O186 Cd183 2.297 . S
O186 C188 1.247 . S
O187 Cd183 2.439 . S
O187 C188 1.208 . S
C188 O186 1.247 . S
C188 O187 1.208 . S
C189 O194 1.247 . S
C189 O195 1.208 . S
C190 O182 1.315 . S
C190 O185 1.279 . S
C191 O192 1.315 . S
C191 O193 1.279 . S
O192 Cd184 2.223 . S
O192 C191 1.315 . S
O193 Cd183 2.240 . S
O193 C191 1.279 . S
O194 Cd184 2.297 . S
O194 C189 1.247 . S
O195 Cd184 2.439 . S
O195 C189 1.208 . S
O196 Cd197 2.223 . S
O196 C204 1.315 . S
Cd197 O196 2.223 . S
Cd197 O200 2.297 . S
Cd197 O201 2.439 . S
Cd197 O207 2.240 . S
Cd198 O199 2.240 . S
Cd198 O206 2.223 . S
Cd198 O208 2.297 . S
Cd198 O209 2.439 . S
O199 Cd198 2.240 . S
O199 C204 1.279 . S
O200 Cd197 2.297 . S
O200 C202 1.247 . S
O201 Cd197 2.439 . S
O201 C202 1.208 . S
C202 O200 1.247 . S
C202 O201 1.208 . S
C203 O208 1.247 . S
C203 O209 1.208 . S
C204 O196 1.315 . S
C204 O199 1.279 . S
C205 O206 1.315 . S
C205 O207 1.279 . S
O206 Cd198 2.223 . S
O206 C205 1.315 . S
O207 Cd197 2.240 . S
O207 C205 1.279 . S
O208 Cd198 2.297 . S
O208 C203 1.247 . S
O209 Cd198 2.439 . S
O209 C203 1.208 . S
O210 Cd211 2.223 . S
O210 C218 1.315 . S
Cd211 O210 2.223 . S
Cd211 O214 2.297 . S
Cd211 O215 2.439 . S
Cd211 O221 2.240 . S
Cd212 O213 2.240 . S
Cd212 O220 2.223 . S
Cd212 O222 2.297 . S
Cd212 O223 2.439 . S
O213 Cd212 2.240 . S
O213 C218 1.279 . S
O214 Cd211 2.297 . S
O214 C216 1.247 . S
O215 Cd211 2.439 . S
O215 C216 1.208 . S
C216 O214 1.247 . S
C216 O215 1.208 . S
C217 O222 1.247 . S
C217 O223 1.208 . S
C218 O210 1.315 . S
C218 O213 1.279 . S
C219 O220 1.315 . S
C219 O221 1.279 . S
O220 Cd212 2.223 . S
O220 C219 1.315 . S
O221 Cd211 2.240 . S
O221 C219 1.279 . S
O222 Cd212 2.297 . S
O222 C217 1.247 . S
O223 Cd212 2.439 . S
O223 C217 1.208 . S
O224 Cd225 2.223 . S
O224 C232 1.315 . S
Cd225 O224 2.223 . S
Cd225 O228 2.297 . S
Cd225 O229 2.439 . S
Cd225 O235 2.240 . S
Cd226 O227 2.240 . S
Cd226 O234 2.223 . S
Cd226 O236 2.297 . S
Cd226 O237 2.439 . S
O227 Cd226 2.240 . S
O227 C232 1.279 . S
O228 Cd225 2.297 . S
O228 C230 1.247 . S
O229 Cd225 2.439 . S
O229 C230 1.208 . S
C230 O228 1.247 . S
C230 O229 1.208 . S
C231 O236 1.247 . S
C231 O237 1.208 . S
C232 O224 1.315 . S
C232 O227 1.279 . S
C233 O234 1.315 . S
C233 O235 1.279 . S
O234 Cd226 2.223 . S
O234 C233 1.315 . S
O235 Cd225 2.240 . S
O235 C233 1.279 . S
O236 Cd226 2.297 . S
O236 C231 1.247 . S
O237 Cd226 2.439 . S
O237 C231 1.208 . S
O238 Cd239 2.223 . S
O238 C246 1.315 . S
Cd239 O238 2.223 . S
Cd239 O242 2.297 . S
Cd239 O243 2.439 . S
Cd239 O249 2.240 . S
Cd240 O241 2.240 . S
Cd240 O248 2.223 . S
Cd240 O250 2.297 . S
Cd240 O251 2.439 . S
O241 Cd240 2.240 . S
O241 C246 1.279 . S
O242 Cd239 2.297 . S
O242 C244 1.247 . S
O243 Cd239 2.439 . S
O243 C244 1.208 . S
C244 O242 1.247 . S
C244 O243 1.208 . S
C245 O250 1.247 . S
C245 O251 1.208 . S
C246 O238 1.315 . S
C246 O241 1.279 . S
C247 O248 1.315 . S
C247 O249 1.279 . S
O248 Cd240 2.223 . S
O248 C247 1.315 . S
O249 Cd239 2.240 . S
O249 C247 1.279 . S
O250 Cd240 2.297 . S
O250 C245 1.247 . S
O251 Cd240 2.439 . S
O251 C245 1.208 . S
O252 Cd253 2.223 . S
O252 C260 1.315 . S
Cd253 O252 2.223 . S
Cd253 O256 2.297 . S
Cd253 O257 2.439 . S
Cd253 O263 2.240 . S
Cd254 O255 2.240 . S
Cd254 O262 2.223 . S
Cd254 O264 2.297 . S
Cd254 O265 2.439 . S
O255 Cd254 2.240 . S
O255 C260 1.279 . S
O256 Cd253 2.297 . S
O256 C258 1.247 . S
O257 Cd253 2.439 . S
O257 C258 1.208 . S
C258 O256 1.247 . S
C258 O257 1.208 . S
C259 O264 1.247 1_556 S
C259 O265 1.208 1_556 S
C260 O252 1.315 . S
C260 O255 1.279 . S
C261 O262 1.315 . S
C261 O263 1.279 . S
O262 Cd254 2.223 . S
O262 C261 1.315 . S
O263 Cd253 2.240 . S
O263 C261 1.279 . S
O264 Cd254 2.297 . S
O264 C259 1.247 1_554 S
O265 Cd254 2.439 . S
O265 C259 1.208 1_554 S
O266 Cd267 2.223 . S
O266 C274 1.315 . S
Cd267 O266 2.223 . S
Cd267 O270 2.297 . S
Cd267 O271 2.439 . S
Cd267 O277 2.240 . S
Cd268 O269 2.240 . S
Cd268 O276 2.223 . S
Cd268 O278 2.297 . S
Cd268 O279 2.439 . S
O269 Cd268 2.240 . S
O269 C274 1.279 . S
O270 Cd267 2.297 . S
O270 C272 1.247 . S
O271 Cd267 2.439 . S
O271 C272 1.208 . S
C272 O270 1.247 . S
C272 O271 1.208 . S
C273 O278 1.247 1_556 S
C273 O279 1.208 1_556 S
C274 O266 1.315 . S
C274 O269 1.279 . S
C275 O276 1.315 . S
C275 O277 1.279 . S
O276 Cd268 2.223 . S
O276 C275 1.315 . S
O277 Cd267 2.240 . S
O277 C275 1.279 . S
O278 Cd268 2.297 . S
O278 C273 1.247 1_554 S
O279 Cd268 2.439 . S
O279 C273 1.208 1_554 S
O280 Cd281 2.223 . S
O280 C288 1.315 . S
Cd281 O280 2.223 . S
Cd281 O284 2.297 . S
Cd281 O285 2.439 . S
Cd281 O291 2.240 . S
Cd282 O283 2.240 . S
Cd282 O290 2.223 . S
Cd282 O292 2.297 . S
Cd282 O293 2.439 . S
O283 Cd282 2.240 . S
O283 C288 1.279 . S
O284 Cd281 2.297 . S
O284 C286 1.247 . S
O285 Cd281 2.439 . S
O285 C286 1.208 . S
C286 O284 1.247 . S
C286 O285 1.208 . S
C287 O292 1.247 1_556 S
C287 O293 1.208 1_556 S
C288 O280 1.315 . S
C288 O283 1.279 . S
C289 O290 1.315 . S
C289 O291 1.279 . S
O290 Cd282 2.223 . S
O290 C289 1.315 . S
O291 Cd281 2.240 . S
O291 C289 1.279 . S
O292 Cd282 2.297 . S
O292 C287 1.247 1_554 S
O293 Cd282 2.439 . S
O293 C287 1.208 1_554 S
O294 Cd295 2.232 . S
O294 C302 1.329 . S
Cd295 O294 2.232 . S
Cd295 O298 2.297 . S
Cd295 O299 2.439 . S
Cd295 O305 2.240 . S
Cd296 O297 2.240 . S
Cd296 O304 2.223 . S
Cd296 O306 2.297 . S
Cd296 O307 2.439 . S
O297 Cd296 2.240 . S
O297 C302 1.279 . S
O298 Cd295 2.297 . S
O298 C300 1.247 . S
O299 Cd295 2.439 . S
O299 C300 1.208 . S
C300 O298 1.247 . S
C300 O299 1.208 . S
C301 O306 1.247 . S
C301 O307 1.208 . S
C302 O294 1.329 . S
C302 O297 1.279 . S
C303 O304 1.315 . S
C303 O305 1.279 . S
O304 Cd296 2.223 . S
O304 C303 1.315 . S
O305 Cd295 2.240 . S
O305 C303 1.279 . S
O306 Cd296 2.297 . S
O306 C301 1.247 . S
O307 Cd296 2.439 . S
O307 C301 1.208 . S
O308 Cd309 2.231 . S
O308 C316 1.327 . S
Cd309 O308 2.231 . S
Cd309 O312 2.297 . S
Cd309 O313 2.439 . S
Cd309 O319 2.240 . S
Cd310 O311 2.240 . S
Cd310 O318 2.223 . S
Cd310 O320 2.297 . S
Cd310 O321 2.439 . S
O311 Cd310 2.240 . S
O311 C316 1.279 . S
O312 Cd309 2.297 . S
O312 C314 1.247 . S
O313 Cd309 2.439 . S
O313 C314 1.208 . S
C314 O312 1.247 . S
C314 O313 1.208 . S
C315 O320 1.247 . S
C315 O321 1.208 . S
C316 O308 1.327 . S
C316 O311 1.279 . S
C317 O318 1.315 . S
C317 O319 1.279 . S
O318 Cd310 2.223 . S
O318 C317 1.315 . S
O319 Cd309 2.240 . S
O319 C317 1.279 . S
O320 Cd310 2.297 . S
O320 C315 1.247 . S
O321 Cd310 2.439 . S
O321 C315 1.208 . S
O322 Cd323 2.232 . S
O322 C330 1.329 . S
Cd323 O322 2.232 . S
Cd323 O326 2.297 . S
Cd323 O327 2.439 . S
Cd323 O333 2.240 . S
Cd324 O325 2.240 . S
Cd324 O332 2.223 . S
Cd324 O334 2.297 . S
Cd324 O335 2.439 . S
O325 Cd324 2.240 . S
O325 C330 1.279 . S
O326 Cd323 2.297 . S
O326 C328 1.247 . S
O327 Cd323 2.439 . S
O327 C328 1.208 . S
C328 O326 1.247 . S
C328 O327 1.208 . S
C329 O334 1.247 . S
C329 O335 1.208 . S
C330 O322 1.329 . S
C330 O325 1.279 . S
C331 O332 1.315 . S
C331 O333 1.279 . S
O332 Cd324 2.223 . S
O332 C331 1.315 . S
O333 Cd323 2.240 . S
O333 C331 1.279 . S
O334 Cd324 2.297 . S
O334 C329 1.247 . S
O335 Cd324 2.439 . S
O335 C329 1.208 . S
O336 Cd337 2.223 . S
O336 C344 1.315 . S
Cd337 O336 2.223 . S
Cd337 O340 2.297 . S
Cd337 O341 2.439 . S
Cd337 O347 2.240 . S
Cd338 O339 2.240 . S
Cd338 O346 2.223 . S
Cd338 O348 2.297 . S
Cd338 O349 2.439 . S
O339 Cd338 2.240 . S
O339 C344 1.279 . S
O340 Cd337 2.297 . S
O340 C342 1.247 . S
O341 Cd337 2.439 . S
O341 C342 1.208 . S
C342 O340 1.247 . S
C342 O341 1.208 . S
C343 O348 1.247 1_554 S
C343 O349 1.208 1_554 S
C344 O336 1.315 . S
C344 O339 1.279 . S
C345 O346 1.315 . S
C345 O347 1.279 . S
O346 Cd338 2.223 . S
O346 C345 1.315 . S
O347 Cd337 2.240 . S
O347 C345 1.279 . S
O348 Cd338 2.297 . S
O348 C343 1.247 1_556 S
O349 Cd338 2.439 . S
O349 C343 1.208 1_556 S
O350 Cd351 2.223 . S
O350 C358 1.315 . S
Cd351 O350 2.223 . S
Cd351 O354 2.297 . S
Cd351 O355 2.439 . S
Cd351 O361 2.240 . S
Cd352 O353 2.240 . S
Cd352 O360 2.223 . S
Cd352 O362 2.297 . S
Cd352 O363 2.439 . S
O353 Cd352 2.240 . S
O353 C358 1.279 . S
O354 Cd351 2.297 . S
O354 C356 1.247 . S
O355 Cd351 2.439 . S
O355 C356 1.208 . S
C356 O354 1.247 . S
C356 O355 1.208 . S
C357 O362 1.247 1_554 S
C357 O363 1.208 1_554 S
C358 O350 1.315 . S
C358 O353 1.279 . S
C359 O360 1.315 . S
C359 O361 1.279 . S
O360 Cd352 2.223 . S
O360 C359 1.315 . S
O361 Cd351 2.240 . S
O361 C359 1.279 . S
O362 Cd352 2.297 . S
O362 C357 1.247 1_556 S
O363 Cd352 2.439 . S
O363 C357 1.208 1_556 S
O364 Cd365 2.223 . S
O364 C372 1.315 . S
Cd365 O364 2.223 . S
Cd365 O368 2.297 . S
Cd365 O369 2.439 . S
Cd365 O375 2.240 . S
Cd366 O367 2.240 . S
Cd366 O374 2.223 . S
Cd366 O376 2.297 . S
Cd366 O377 2.439 . S
O367 Cd366 2.240 . S
O367 C372 1.279 . S
O368 Cd365 2.297 . S
O368 C370 1.247 . S
O369 Cd365 2.439 . S
O369 C370 1.208 . S
C370 O368 1.247 . S
C370 O369 1.208 . S
C371 O376 1.247 1_554 S
C371 O377 1.208 1_554 S
C372 O364 1.315 . S
C372 O367 1.279 . S
C373 O374 1.315 . S
C373 O375 1.279 . S
O374 Cd366 2.223 . S
O374 C373 1.315 . S
O375 Cd365 2.240 . S
O375 C373 1.279 . S
O376 Cd366 2.297 . S
O376 C371 1.247 1_556 S
O377 Cd366 2.439 . S
O377 C371 1.208 1_556 S
O378 Cd379 2.232 . S
O378 C386 1.329 . S
Cd379 O378 2.232 . S
Cd379 O382 2.297 . S
Cd379 O383 2.439 . S
Cd379 O389 2.240 . S
Cd380 O381 2.240 . S
Cd380 O388 2.223 . S
Cd380 O390 2.297 . S
Cd380 O391 2.439 . S
O381 Cd380 2.240 . S
O381 C386 1.279 . S
O382 Cd379 2.297 . S
O382 C384 1.247 . S
O383 Cd379 2.439 . S
O383 C384 1.208 . S
C384 O382 1.247 . S
C384 O383 1.208 . S
C385 O390 1.247 . S
C385 O391 1.208 . S
C386 O378 1.329 . S
C386 O381 1.279 . S
C387 O388 1.315 . S
C387 O389 1.279 . S
O388 Cd380 2.223 . S
O388 C387 1.315 . S
O389 Cd379 2.240 . S
O389 C387 1.279 . S
O390 Cd380 2.297 . S
O390 C385 1.247 . S
O391 Cd380 2.439 . S
O391 C385 1.208 . S
O392 Cd393 2.231 . S
O392 C400 1.327 . S
Cd393 O392 2.231 . S
Cd393 O396 2.297 . S
Cd393 O397 2.439 . S
Cd393 O403 2.240 . S
Cd394 O395 2.240 . S
Cd394 O402 2.223 . S
Cd394 O404 2.297 . S
Cd394 O405 2.439 . S
O395 Cd394 2.240 . S
O395 C400 1.279 . S
O396 Cd393 2.297 . S
O396 C398 1.247 . S
O397 Cd393 2.439 . S
O397 C398 1.208 . S
C398 O396 1.247 . S
C398 O397 1.208 . S
C399 O404 1.247 . S
C399 O405 1.208 . S
C400 O392 1.327 . S
C400 O395 1.279 . S
C401 O402 1.315 . S
C401 O403 1.279 . S
O402 Cd394 2.223 . S
O402 C401 1.315 . S
O403 Cd393 2.240 . S
O403 C401 1.279 . S
O404 Cd394 2.297 . S
O404 C399 1.247 . S
O405 Cd394 2.439 . S
O405 C399 1.208 . S
O406 Cd407 2.232 . S
O406 C414 1.330 . S
Cd407 O406 2.232 . S
Cd407 O410 2.297 . S
Cd407 O411 2.439 . S
Cd407 O417 2.240 . S
Cd408 O409 2.240 . S
Cd408 O416 2.223 . S
Cd408 O418 2.297 . S
Cd408 O419 2.439 . S
O409 Cd408 2.240 . S
O409 C414 1.279 . S
O410 Cd407 2.297 . S
O410 C412 1.247 . S
O411 Cd407 2.439 . S
O411 C412 1.208 . S
C412 O410 1.247 . S
C412 O411 1.208 . S
C413 O418 1.247 . S
C413 O419 1.208 . S
C414 O406 1.330 . S
C414 O409 1.279 . S
C415 O416 1.315 . S
C415 O417 1.279 . S
O416 Cd408 2.223 . S
O416 C415 1.315 . S
O417 Cd407 2.240 . S
O417 C415 1.279 . S
O418 Cd408 2.297 . S
O418 C413 1.247 . S
O419 Cd408 2.439 . S
O419 C413 1.208 . S
O420 Cd421 2.223 . S
O420 C428 1.315 . S
Cd421 O420 2.223 . S
Cd421 O424 2.297 . S
Cd421 O425 2.439 . S
Cd421 O431 2.240 . S
Cd422 O423 2.240 . S
Cd422 O430 2.223 . S
Cd422 O432 2.297 . S
Cd422 O433 2.439 . S
O423 Cd422 2.240 . S
O423 C428 1.279 . S
O424 Cd421 2.297 . S
O424 C426 1.247 . S
O425 Cd421 2.439 . S
O425 C426 1.208 . S
C426 O424 1.247 . S
C426 O425 1.208 . S
C427 O432 1.247 . S
C427 O433 1.208 . S
C428 O420 1.315 . S
C428 O423 1.279 . S
C429 O430 1.315 . S
C429 O431 1.279 . S
O430 Cd422 2.223 . S
O430 C429 1.315 . S
O431 Cd421 2.240 . S
O431 C429 1.279 . S
O432 Cd422 2.297 . S
O432 C427 1.247 . S
O433 Cd422 2.439 . S
O433 C427 1.208 . S
O434 Cd435 2.223 . S
O434 C442 1.315 . S
Cd435 O434 2.223 . S
Cd435 O438 2.297 . S
Cd435 O439 2.439 . S
Cd435 O445 2.240 . S
Cd436 O437 2.240 . S
Cd436 O444 2.223 . S
Cd436 O446 2.297 . S
Cd436 O447 2.439 . S
O437 Cd436 2.240 . S
O437 C442 1.279 . S
O438 Cd435 2.297 . S
O438 C440 1.247 . S
O439 Cd435 2.439 . S
O439 C440 1.208 . S
C440 O438 1.247 . S
C440 O439 1.208 . S
C441 O446 1.247 . S
C441 O447 1.208 . S
C442 O434 1.315 . S
C442 O437 1.279 . S
C443 O444 1.315 . S
C443 O445 1.279 . S
O444 Cd436 2.223 . S
O444 C443 1.315 . S
O445 Cd435 2.240 . S
O445 C443 1.279 . S
O446 Cd436 2.297 . S
O446 C441 1.247 . S
O447 Cd436 2.439 . S
O447 C441 1.208 . S
O448 Cd449 2.223 . S
O448 C456 1.315 . S
Cd449 O448 2.223 . S
Cd449 O452 2.297 . S
Cd449 O453 2.439 . S
Cd449 O459 2.240 . S
Cd450 O451 2.240 . S
Cd450 O458 2.223 . S
Cd450 O460 2.297 . S
Cd450 O461 2.439 . S
O451 Cd450 2.240 . S
O451 C456 1.279 . S
O452 Cd449 2.297 . S
O452 C454 1.247 . S
O453 Cd449 2.439 . S
O453 C454 1.208 . S
C454 O452 1.247 . S
C454 O453 1.208 . S
C455 O460 1.247 . S
C455 O461 1.208 . S
C456 O448 1.315 . S
C456 O451 1.279 . S
C457 O458 1.315 . S
C457 O459 1.279 . S
O458 Cd450 2.223 . S
O458 C457 1.315 . S
O459 Cd449 2.240 . S
O459 C457 1.279 . S
O460 Cd450 2.297 . S
O460 C455 1.247 . S
O461 Cd450 2.439 . S
O461 C455 1.208 . S
O462 Cd463 2.223 . S
O462 C470 1.315 . S
Cd463 O462 2.223 . S
Cd463 O466 2.297 . S
Cd463 O467 2.439 . S
Cd463 O473 2.240 . S
Cd464 O465 2.240 . S
Cd464 O472 2.223 . S
Cd464 O474 2.297 . S
Cd464 O475 2.439 . S
O465 Cd464 2.240 . S
O465 C470 1.279 . S
O466 Cd463 2.297 . S
O466 C468 1.247 . S
O467 Cd463 2.439 . S
O467 C468 1.208 . S
C468 O466 1.247 . S
C468 O467 1.208 . S
C469 O474 1.247 . S
C469 O475 1.208 . S
C470 O462 1.315 . S
C470 O465 1.279 . S
C471 O472 1.315 . S
C471 O473 1.279 . S
O472 Cd464 2.223 . S
O472 C471 1.315 . S
O473 Cd463 2.240 . S
O473 C471 1.279 . S
O474 Cd464 2.297 . S
O474 C469 1.247 . S
O475 Cd464 2.439 . S
O475 C469 1.208 . S
O476 Cd477 2.223 . S
O476 C484 1.315 . S
Cd477 O476 2.223 . S
Cd477 O480 2.297 . S
Cd477 O481 2.439 . S
Cd477 O487 2.240 . S
Cd478 O479 2.240 . S
Cd478 O486 2.223 . S
Cd478 O488 2.297 . S
Cd478 O489 2.439 . S
O479 Cd478 2.240 . S
O479 C484 1.279 . S
O480 Cd477 2.297 . S
O480 C482 1.247 . S
O481 Cd477 2.439 . S
O481 C482 1.208 . S
C482 O480 1.247 . S
C482 O481 1.208 . S
C483 O488 1.247 . S
C483 O489 1.208 . S
C484 O476 1.315 . S
C484 O479 1.279 . S
C485 O486 1.315 . S
C485 O487 1.279 . S
O486 Cd478 2.223 . S
O486 C485 1.315 . S
O487 Cd477 2.240 . S
O487 C485 1.279 . S
O488 Cd478 2.297 . S
O488 C483 1.247 . S
O489 Cd478 2.439 . S
O489 C483 1.208 . S
O490 Cd491 2.223 . S
O490 C498 1.315 . S
Cd491 O490 2.223 . S
Cd491 O494 2.297 . S
Cd491 O495 2.439 . S
Cd491 O501 2.240 . S
Cd492 O493 2.240 . S
Cd492 O500 2.223 . S
Cd492 O502 2.297 . S
Cd492 O503 2.439 . S
O493 Cd492 2.240 . S
O493 C498 1.279 . S
O494 Cd491 2.297 . S
O494 C496 1.247 . S
O495 Cd491 2.439 . S
O495 C496 1.208 . S
C496 O494 1.247 . S
C496 O495 1.208 . S
C497 O502 1.247 . S
C497 O503 1.208 . S
C498 O490 1.315 . S
C498 O493 1.279 . S
C499 O500 1.315 . S
C499 O501 1.279 . S
O500 Cd492 2.223 . S
O500 C499 1.315 . S
O501 Cd491 2.240 . S
O501 C499 1.279 . S
O502 Cd492 2.297 . S
O502 C497 1.247 . S
O503 Cd492 2.439 . S
O503 C497 1.208 . S
C504 C505 1.349 . S
C504 C506 1.327 . S
C504 H529 0.950 . S
C505 C504 1.349 . S
C505 C521 1.349 . S
C506 C504 1.327 . S
C506 C525 1.429 . S
C506 H530 0.950 . S
C507 C524 1.574 . S
C507 C526 1.368 . S
C507 H531 0.949 . S
H508 C512 0.949 . S
C509 C510 1.349 . S
C509 C511 1.327 . S
C509 H532 0.950 . S
C510 C509 1.349 . S
C510 C522 1.349 . S
C511 C509 1.327 . S
C511 C527 1.429 . S
C511 H533 0.950 . S
C512 H508 0.949 . S
C512 C520 1.574 . S
C512 C528 1.368 . S
H513 C521 0.950 . S
H514 C519 0.950 . S
H515 C520 0.949 . S
H516 C522 0.950 . S
H517 C523 0.950 . S
H518 C524 0.949 . S
C519 H514 0.950 . S
C519 C521 1.327 . S
C519 C525 1.429 . S
C520 C512 1.574 . S
C520 H515 0.949 . S
C520 C526 1.368 . S
C521 C505 1.349 . S
C521 H513 0.950 . S
C521 C519 1.327 . S
C522 C510 1.349 . S
C522 H516 0.950 . S
C522 C523 1.327 . S
C523 H517 0.950 . S
C523 C522 1.327 . S
C523 C527 1.429 . S
C524 C507 1.574 . S
C524 H518 0.949 . S
C524 C528 1.368 . S
C525 C506 1.429 . S
C525 C519 1.429 . S
C525 C526 1.523 . S
C526 C507 1.368 . S
C526 C520 1.368 . S
C526 C525 1.523 . S
C527 C511 1.429 . S
C527 C523 1.429 . S
C527 C528 1.523 . S
C528 C512 1.368 . S
C528 C524 1.368 . S
C528 C527 1.523 . S
H529 C504 0.950 . S
H530 C506 0.950 . S
H531 C507 0.949 . S
H532 C509 0.950 . S
H533 C511 0.950 . S
C534 C535 1.349 . S
C534 C536 1.327 . S
C534 H559 0.950 . S
C535 C534 1.349 . S
C535 C551 1.349 . S
C536 C534 1.327 . S
C536 C555 1.429 . S
C536 H560 0.950 . S
C537 C554 1.574 1_545 S
C537 C556 1.368 . S
C537 H561 0.949 . S
H538 C542 0.949 . S
C539 C540 1.349 . S
C539 C541 1.327 . S
C539 H562 0.950 . S
C540 C539 1.349 . S
C540 C552 1.349 . S
C541 C539 1.327 . S
C541 C557 1.429 . S
C541 H563 0.950 . S
C542 H538 0.949 . S
C542 C550 1.574 1_565 S
C542 C558 1.368 . S
H543 C551 0.950 . S
H544 C549 0.950 . S
H545 C550 0.949 . S
H546 C552 0.950 . S
H547 C553 0.950 . S
H548 C554 0.949 . S
C549 H544 0.950 . S
C549 C551 1.327 . S
C549 C555 1.429 . S
C550 C542 1.574 1_545 S
C550 H545 0.949 . S
C550 C556 1.368 . S
C551 C535 1.349 . S
C551 H543 0.950 . S
C551 C549 1.327 . S
C552 C540 1.349 . S
C552 H546 0.950 . S
C552 C553 1.327 . S
C553 H547 0.950 . S
C553 C552 1.327 . S
C553 C557 1.429 . S
C554 C537 1.574 1_565 S
C554 H548 0.949 . S
C554 C558 1.368 . S
C555 C536 1.429 . S
C555 C549 1.429 . S
C555 C556 1.523 . S
C556 C537 1.368 . S
C556 C550 1.368 . S
C556 C555 1.523 . S
C557 C541 1.429 . S
C557 C553 1.429 . S
C557 C558 1.523 . S
C558 C542 1.368 . S
C558 C554 1.368 . S
C558 C557 1.523 . S
H559 C534 0.950 . S
H560 C536 0.950 . S
H561 C537 0.949 . S
H562 C539 0.950 . S
H563 C541 0.950 . S
C564 C565 1.349 . S
C564 C566 1.327 . S
C564 H589 0.950 . S
C565 C564 1.349 . S
C565 C581 1.349 . S
C566 C564 1.327 . S
C566 C585 1.429 . S
C566 H590 0.950 . S
C567 C584 1.574 1_655 S
C567 C586 1.368 . S
C567 H591 0.949 . S
H568 C572 0.949 . S
C569 C570 1.349 . S
C569 C571 1.327 . S
C569 H592 0.950 . S
C570 C569 1.349 . S
C570 C582 1.349 . S
C571 C569 1.327 . S
C571 C587 1.429 . S
C571 H593 0.950 . S
C572 H568 0.949 . S
C572 C580 1.574 1_455 S
C572 C588 1.368 . S
H573 C581 0.950 . S
H574 C579 0.950 . S
H575 C580 0.949 . S
H576 C582 0.950 . S
H577 C583 0.950 . S
H578 C584 0.949 . S
C579 H574 0.950 . S
C579 C581 1.327 . S
C579 C585 1.429 . S
C580 C572 1.574 1_655 S
C580 H575 0.949 . S
C580 C586 1.368 . S
C581 C565 1.349 . S
C581 H573 0.950 . S
C581 C579 1.327 . S
C582 C570 1.349 . S
C582 H576 0.950 . S
C582 C583 1.327 . S
C583 H577 0.950 . S
C583 C582 1.327 . S
C583 C587 1.429 . S
C584 C567 1.574 1_455 S
C584 H578 0.949 . S
C584 C588 1.368 . S
C585 C566 1.429 . S
C585 C579 1.429 . S
C585 C586 1.523 . S
C586 C567 1.368 . S
C586 C580 1.368 . S
C586 C585 1.523 . S
C587 C571 1.429 . S
C587 C583 1.429 . S
C587 C588 1.523 . S
C588 C572 1.368 . S
C588 C584 1.368 . S
C588 C587 1.523 . S
H589 C564 0.950 . S
H590 C566 0.950 . S
H591 C567 0.949 . S
H592 C569 0.950 . S
H593 C571 0.950 . S
C594 C595 1.349 . S
C594 C596 1.327 . S
C594 H619 0.950 . S
C595 C594 1.349 . S
C595 C611 1.349 . S
C596 C594 1.327 . S
C596 C615 1.429 . S
C596 H620 0.950 . S
C597 C614 1.574 . S
C597 C616 1.368 . S
C597 H621 0.949 . S
H598 C602 0.949 . S
C599 C600 1.349 . S
C599 C601 1.327 . S
C599 H622 0.950 . S
C600 C599 1.349 . S
C600 C612 1.349 . S
C601 C599 1.327 . S
C601 C617 1.429 . S
C601 H623 0.950 . S
C602 H598 0.949 . S
C602 C610 1.574 . S
C602 C618 1.368 . S
H603 C611 0.950 . S
H604 C609 0.950 . S
H605 C610 0.949 . S
H606 C612 0.950 . S
H607 C613 0.950 . S
H608 C614 0.949 . S
C609 H604 0.950 . S
C609 C611 1.327 . S
C609 C615 1.429 . S
C610 C602 1.574 . S
C610 H605 0.949 . S
C610 C616 1.368 . S
C611 C595 1.349 . S
C611 H603 0.950 . S
C611 C609 1.327 . S
C612 C600 1.349 . S
C612 H606 0.950 . S
C612 C613 1.327 . S
C613 H607 0.950 . S
C613 C612 1.327 . S
C613 C617 1.429 . S
C614 C597 1.574 . S
C614 H608 0.949 . S
C614 C618 1.368 . S
C615 C596 1.429 . S
C615 C609 1.429 . S
C615 C616 1.523 . S
C616 C597 1.368 . S
C616 C610 1.368 . S
C616 C615 1.523 . S
C617 C601 1.429 . S
C617 C613 1.429 . S
C617 C618 1.523 . S
C618 C602 1.368 . S
C618 C614 1.368 . S
C618 C617 1.523 . S
H619 C594 0.950 . S
H620 C596 0.950 . S
H621 C597 0.949 . S
H622 C599 0.950 . S
H623 C601 0.950 . S
C624 C625 1.349 . S
C624 C626 1.327 . S
C624 H649 0.950 . S
C625 C624 1.349 . S
C625 C641 1.349 . S
C626 C624 1.327 . S
C626 C645 1.429 . S
C626 H650 0.950 . S
C627 C644 1.574 1_545 S
C627 C646 1.368 . S
C627 H651 0.949 . S
H628 C632 0.949 . S
C629 C630 1.349 . S
C629 C631 1.327 . S
C629 H652 0.950 . S
C630 C629 1.349 . S
C630 C642 1.349 . S
C631 C629 1.327 . S
C631 C647 1.429 . S
C631 H653 0.950 . S
C632 H628 0.949 . S
C632 C640 1.574 1_565 S
C632 C648 1.368 . S
H633 C641 0.950 . S
H634 C639 0.950 . S
H635 C640 0.949 . S
H636 C642 0.950 . S
H637 C643 0.950 . S
H638 C644 0.949 . S
C639 H634 0.950 . S
C639 C641 1.327 . S
C639 C645 1.429 . S
C640 C632 1.574 1_545 S
C640 H635 0.949 . S
C640 C646 1.368 . S
C641 C625 1.349 . S
C641 H633 0.950 . S
C641 C639 1.327 . S
C642 C630 1.349 . S
C642 H636 0.950 . S
C642 C643 1.327 . S
C643 H637 0.950 . S
C643 C642 1.327 . S
C643 C647 1.429 . S
C644 C627 1.574 1_565 S
C644 H638 0.949 . S
C644 C648 1.368 . S
C645 C626 1.429 . S
C645 C639 1.429 . S
C645 C646 1.523 . S
C646 C627 1.368 . S
C646 C640 1.368 . S
C646 C645 1.523 . S
C647 C631 1.429 . S
C647 C643 1.429 . S
C647 C648 1.523 . S
C648 C632 1.368 . S
C648 C644 1.368 . S
C648 C647 1.523 . S
H649 C624 0.950 . S
H650 C626 0.950 . S
H651 C627 0.949 . S
H652 C629 0.950 . S
H653 C631 0.950 . S
C654 C655 1.349 . S
C654 C656 1.327 . S
C654 H679 0.950 . S
C655 C654 1.349 . S
C655 C671 1.349 . S
C656 C654 1.327 . S
C656 C675 1.429 . S
C656 H680 0.950 . S
C657 C674 1.574 1_455 S
C657 C676 1.368 . S
C657 H681 0.949 . S
H658 C662 0.949 . S
C659 C660 1.349 . S
C659 C661 1.327 . S
C659 H682 0.950 . S
C660 C659 1.349 . S
C660 C672 1.349 . S
C661 C659 1.327 . S
C661 C677 1.429 . S
C661 H683 0.950 . S
C662 H658 0.949 . S
C662 C670 1.574 1_655 S
C662 C678 1.368 . S
H663 C671 0.950 . S
H664 C669 0.950 . S
H665 C670 0.949 . S
H666 C672 0.950 . S
H667 C673 0.950 . S
H668 C674 0.949 . S
C669 H664 0.950 . S
C669 C671 1.327 . S
C669 C675 1.429 . S
C670 C662 1.574 1_455 S
C670 H665 0.949 . S
C670 C676 1.368 . S
C671 C655 1.349 . S
C671 H663 0.950 . S
C671 C669 1.327 . S
C672 C660 1.349 . S
C672 H666 0.950 . S
C672 C673 1.327 . S
C673 H667 0.950 . S
C673 C672 1.327 . S
C673 C677 1.429 . S
C674 C657 1.574 1_655 S
C674 H668 0.949 . S
C674 C678 1.368 . S
C675 C656 1.429 . S
C675 C669 1.429 . S
C675 C676 1.523 . S
C676 C657 1.368 . S
C676 C670 1.368 . S
C676 C675 1.523 . S
C677 C661 1.429 . S
C677 C673 1.429 . S
C677 C678 1.523 . S
C678 C662 1.368 . S
C678 C674 1.368 . S
C678 C677 1.523 . S
H679 C654 0.950 . S
H680 C656 0.950 . S
H681 C657 0.949 . S
H682 C659 0.950 . S
H683 C661 0.950 . S
C684 C685 1.349 . S
C684 C686 1.327 . S
C684 H709 0.950 . S
C685 C684 1.349 . S
C685 C701 1.349 . S
C686 C684 1.327 . S
C686 C705 1.429 . S
C686 H710 0.950 . S
C687 C704 1.574 . S
C687 C706 1.368 . S
C687 H711 0.949 . S
H688 C692 0.949 . S
C689 C690 1.349 . S
C689 C691 1.327 . S
C689 H712 0.950 . S
C690 C689 1.349 . S
C690 C702 1.349 . S
C691 C689 1.327 . S
C691 C707 1.429 . S
C691 H713 0.950 . S
C692 H688 0.949 . S
C692 C700 1.574 . S
C692 C708 1.368 . S
H693 C701 0.950 . S
H694 C699 0.950 . S
H695 C700 0.949 . S
H696 C702 0.950 . S
H697 C703 0.950 . S
H698 C704 0.949 . S
C699 H694 0.950 . S
C699 C701 1.327 . S
C699 C705 1.429 . S
C700 C692 1.574 . S
C700 H695 0.949 . S
C700 C706 1.368 . S
C701 C685 1.349 . S
C701 H693 0.950 . S
C701 C699 1.327 . S
C702 C690 1.349 . S
C702 H696 0.950 . S
C702 C703 1.327 . S
C703 H697 0.950 . S
C703 C702 1.327 . S
C703 C707 1.429 . S
C704 C687 1.574 . S
C704 H698 0.949 . S
C704 C708 1.368 . S
C705 C686 1.429 . S
C705 C699 1.429 . S
C705 C706 1.523 . S
C706 C687 1.368 . S
C706 C700 1.368 . S
C706 C705 1.523 . S
C707 C691 1.429 . S
C707 C703 1.429 . S
C707 C708 1.523 . S
C708 C692 1.368 . S
C708 C704 1.368 . S
C708 C707 1.523 . S
H709 C684 0.950 . S
H710 C686 0.950 . S
H711 C687 0.949 . S
H712 C689 0.950 . S
H713 C691 0.950 . S
C714 C715 1.349 . S
C714 C716 1.327 . S
C714 H739 0.950 . S
C715 C714 1.349 . S
C715 C731 1.349 . S
C716 C714 1.327 . S
C716 C735 1.429 . S
C716 H740 0.950 . S
C717 C734 1.574 . S
C717 C736 1.368 . S
C717 H741 0.949 . S
H718 C722 0.949 . S
C719 C720 1.349 . S
C719 C721 1.327 . S
C719 H742 0.950 . S
C720 C719 1.349 . S
C720 C732 1.349 . S
C721 C719 1.327 . S
C721 C737 1.429 . S
C721 H743 0.950 . S
C722 H718 0.949 . S
C722 C730 1.574 . S
C722 C738 1.368 . S
H723 C731 0.950 . S
H724 C729 0.950 . S
H725 C730 0.949 . S
H726 C732 0.950 . S
H727 C733 0.950 . S
H728 C734 0.949 . S
C729 H724 0.950 . S
C729 C731 1.327 . S
C729 C735 1.429 . S
C730 C722 1.574 . S
C730 H725 0.949 . S
C730 C736 1.368 . S
C731 C715 1.349 . S
C731 H723 0.950 . S
C731 C729 1.327 . S
C732 C720 1.349 . S
C732 H726 0.950 . S
C732 C733 1.327 . S
C733 H727 0.950 . S
C733 C732 1.327 . S
C733 C737 1.429 . S
C734 C717 1.574 . S
C734 H728 0.949 . S
C734 C738 1.368 . S
C735 C716 1.429 . S
C735 C729 1.429 . S
C735 C736 1.523 . S
C736 C717 1.368 . S
C736 C730 1.368 . S
C736 C735 1.523 . S
C737 C721 1.429 . S
C737 C733 1.429 . S
C737 C738 1.523 . S
C738 C722 1.368 . S
C738 C734 1.368 . S
C738 C737 1.523 . S
H739 C714 0.950 . S
H740 C716 0.950 . S
H741 C717 0.949 . S
H742 C719 0.950 . S
H743 C721 0.950 . S
C744 C745 1.349 . S
C744 C746 1.327 . S
C744 H769 0.950 . S
C745 C744 1.349 . S
C745 C761 1.349 . S
C746 C744 1.327 . S
C746 C765 1.429 . S
C746 H770 0.950 . S
C747 C764 1.574 . S
C747 C766 1.368 . S
C747 H771 0.949 . S
H748 C752 0.949 . S
C749 C750 1.349 . S
C749 C751 1.327 . S
C749 H772 0.950 . S
C750 C749 1.349 . S
C750 C762 1.349 . S
C751 C749 1.327 . S
C751 C767 1.429 . S
C751 H773 0.950 . S
C752 H748 0.949 . S
C752 C760 1.574 . S
C752 C768 1.368 . S
H753 C761 0.950 . S
H754 C759 0.950 . S
H755 C760 0.949 . S
H756 C762 0.950 . S
H757 C763 0.950 . S
H758 C764 0.949 . S
C759 H754 0.950 . S
C759 C761 1.327 . S
C759 C765 1.429 . S
C760 C752 1.574 . S
C760 H755 0.949 . S
C760 C766 1.368 . S
C761 C745 1.349 . S
C761 H753 0.950 . S
C761 C759 1.327 . S
C762 C750 1.349 . S
C762 H756 0.950 . S
C762 C763 1.327 . S
C763 H757 0.950 . S
C763 C762 1.327 . S
C763 C767 1.429 . S
C764 C747 1.574 . S
C764 H758 0.949 . S
C764 C768 1.368 . S
C765 C746 1.429 . S
C765 C759 1.429 . S
C765 C766 1.523 . S
C766 C747 1.368 . S
C766 C760 1.368 . S
C766 C765 1.523 . S
C767 C751 1.429 . S
C767 C763 1.429 . S
C767 C768 1.523 . S
C768 C752 1.368 . S
C768 C764 1.368 . S
C768 C767 1.523 . S
H769 C744 0.950 . S
H770 C746 0.950 . S
H771 C747 0.949 . S
H772 C749 0.950 . S
H773 C751 0.950 . S
C774 C775 1.349 . S
C774 C776 1.327 . S
C774 H799 0.950 . S
C775 C774 1.349 . S
C775 C791 1.349 . S
C776 C774 1.327 . S
C776 C795 1.429 . S
C776 H800 0.950 . S
C777 C794 1.574 . S
C777 C796 1.368 . S
C777 H801 0.949 . S
H778 C782 0.949 . S
C779 C780 1.349 . S
C779 C781 1.327 . S
C779 H802 0.950 . S
C780 C779 1.349 . S
C780 C792 1.349 . S
C781 C779 1.327 . S
C781 C797 1.429 . S
C781 H803 0.950 . S
C782 H778 0.949 . S
C782 C790 1.574 . S
C782 C798 1.368 . S
H783 C791 0.950 . S
H784 C789 0.950 . S
H785 C790 0.949 . S
H786 C792 0.950 . S
H787 C793 0.950 . S
H788 C794 0.949 . S
C789 H784 0.950 . S
C789 C791 1.327 . S
C789 C795 1.429 . S
C790 C782 1.574 . S
C790 H785 0.949 . S
C790 C796 1.368 . S
C791 C775 1.349 . S
C791 H783 0.950 . S
C791 C789 1.327 . S
C792 C780 1.349 . S
C792 H786 0.950 . S
C792 C793 1.327 . S
C793 H787 0.950 . S
C793 C792 1.327 . S
C793 C797 1.429 . S
C794 C777 1.574 . S
C794 H788 0.949 . S
C794 C798 1.368 . S
C795 C776 1.429 . S
C795 C789 1.429 . S
C795 C796 1.523 . S
C796 C777 1.368 . S
C796 C790 1.368 . S
C796 C795 1.523 . S
C797 C781 1.429 . S
C797 C793 1.429 . S
C797 C798 1.523 . S
C798 C782 1.368 . S
C798 C794 1.368 . S
C798 C797 1.523 . S
H799 C774 0.950 . S
H800 C776 0.950 . S
H801 C777 0.949 . S
H802 C779 0.950 . S
H803 C781 0.950 . S
C804 C805 1.349 . S
C804 C806 1.327 . S
C804 H829 0.950 . S
C805 C804 1.349 . S
C805 C821 1.349 . S
C806 C804 1.327 . S
C806 C825 1.429 . S
C806 H830 0.950 . S
C807 C824 1.574 . S
C807 C826 1.368 . S
C807 H831 0.949 . S
H808 C812 0.949 . S
C809 C810 1.349 . S
C809 C811 1.327 . S
C809 H832 0.950 . S
C810 C809 1.349 . S
C810 C822 1.349 . S
C811 C809 1.327 . S
C811 C827 1.429 . S
C811 H833 0.950 . S
C812 H808 0.949 . S
C812 C820 1.574 . S
C812 C828 1.368 . S
H813 C821 0.950 . S
H814 C819 0.950 . S
H815 C820 0.949 . S
H816 C822 0.950 . S
H817 C823 0.950 . S
H818 C824 0.949 . S
C819 H814 0.950 . S
C819 C821 1.327 . S
C819 C825 1.429 . S
C820 C812 1.574 . S
C820 H815 0.949 . S
C820 C826 1.368 . S
C821 C805 1.349 . S
C821 H813 0.950 . S
C821 C819 1.327 . S
C822 C810 1.349 . S
C822 H816 0.950 . S
C822 C823 1.327 . S
C823 H817 0.950 . S
C823 C822 1.327 . S
C823 C827 1.429 . S
C824 C807 1.574 . S
C824 H818 0.949 . S
C824 C828 1.368 . S
C825 C806 1.429 . S
C825 C819 1.429 . S
C825 C826 1.523 . S
C826 C807 1.368 . S
C826 C820 1.368 . S
C826 C825 1.523 . S
C827 C811 1.429 . S
C827 C823 1.429 . S
C827 C828 1.523 . S
C828 C812 1.368 . S
C828 C824 1.368 . S
C828 C827 1.523 . S
H829 C804 0.950 . S
H830 C806 0.950 . S
H831 C807 0.949 . S
H832 C809 0.950 . S
H833 C811 0.950 . S
C834 C835 1.349 . S
C834 C836 1.327 . S
C834 H859 0.950 . S
C835 C834 1.349 . S
C835 C851 1.349 . S
C836 C834 1.327 . S
C836 C855 1.429 . S
C836 H860 0.950 . S
C837 C854 1.574 . S
C837 C856 1.368 . S
C837 H861 0.949 . S
H838 C842 0.949 . S
C839 C840 1.349 . S
C839 C841 1.327 . S
C839 H862 0.950 . S
C840 C839 1.349 . S
C840 C852 1.349 . S
C841 C839 1.327 . S
C841 C857 1.429 . S
C841 H863 0.950 . S
C842 H838 0.949 . S
C842 C850 1.574 . S
C842 C858 1.368 . S
H843 C851 0.950 . S
H844 C849 0.950 . S
H845 C850 0.949 . S
H846 C852 0.950 . S
H847 C853 0.950 . S
H848 C854 0.949 . S
C849 H844 0.950 . S
C849 C851 1.327 . S
C849 C855 1.429 . S
C850 C842 1.574 . S
C850 H845 0.949 . S
C850 C856 1.368 . S
C851 C835 1.349 . S
C851 H843 0.950 . S
C851 C849 1.327 . S
C852 C840 1.349 . S
C852 H846 0.950 . S
C852 C853 1.327 . S
C853 H847 0.950 . S
C853 C852 1.327 . S
C853 C857 1.429 . S
C854 C837 1.574 . S
C854 H848 0.949 . S
C854 C858 1.368 . S
C855 C836 1.429 . S
C855 C849 1.429 . S
C855 C856 1.523 . S
C856 C837 1.368 . S
C856 C850 1.368 . S
C856 C855 1.523 . S
C857 C841 1.429 . S
C857 C853 1.429 . S
C857 C858 1.523 . S
C858 C842 1.368 . S
C858 C854 1.368 . S
C858 C857 1.523 . S
H859 C834 0.950 . S
H860 C836 0.950 . S
H861 C837 0.949 . S
H862 C839 0.950 . S
H863 C841 0.950 . S
C864 C865 1.349 . S
C864 C866 1.327 . S
C864 H889 0.950 . S
C865 C864 1.349 . S
C865 C881 1.349 . S
C866 C864 1.327 . S
C866 C885 1.429 . S
C866 H890 0.950 . S
C867 C884 1.574 . S
C867 C886 1.368 . S
C867 H891 0.949 . S
H868 C872 0.949 . S
C869 C870 1.349 . S
C869 C871 1.327 . S
C869 H892 0.950 . S
C870 C869 1.349 . S
C870 C882 1.349 . S
C871 C869 1.327 . S
C871 C887 1.429 . S
C871 H893 0.950 . S
C872 H868 0.949 . S
C872 C880 1.574 . S
C872 C888 1.368 . S
H873 C881 0.950 . S
H874 C879 0.950 . S
H875 C880 0.949 . S
H876 C882 0.950 . S
H877 C883 0.950 . S
H878 C884 0.949 . S
C879 H874 0.950 . S
C879 C881 1.327 . S
C879 C885 1.429 . S
C880 C872 1.574 . S
C880 H875 0.949 . S
C880 C886 1.368 . S
C881 C865 1.349 . S
C881 H873 0.950 . S
C881 C879 1.327 . S
C882 C870 1.349 . S
C882 H876 0.950 . S
C882 C883 1.327 . S
C883 H877 0.950 . S
C883 C882 1.327 . S
C883 C887 1.429 . S
C884 C867 1.574 . S
C884 H878 0.949 . S
C884 C888 1.368 . S
C885 C866 1.429 . S
C885 C879 1.429 . S
C885 C886 1.523 . S
C886 C867 1.368 . S
C886 C880 1.368 . S
C886 C885 1.523 . S
C887 C871 1.429 . S
C887 C883 1.429 . S
C887 C888 1.523 . S
C888 C872 1.368 . S
C888 C884 1.368 . S
C888 C887 1.523 . S
H889 C864 0.950 . S
H890 C866 0.950 . S
H891 C867 0.949 . S
H892 C869 0.950 . S
H893 C871 0.950 . S
C894 C895 1.349 . S
C894 C896 1.327 . S
C894 H919 0.950 . S
C895 C894 1.349 . S
C895 C911 1.349 . S
C896 C894 1.327 . S
C896 C915 1.429 . S
C896 H920 0.950 . S
C897 C914 1.574 . S
C897 C916 1.368 . S
C897 H921 0.949 . S
H898 C902 0.949 . S
C899 C900 1.349 . S
C899 C901 1.327 . S
C899 H922 0.950 . S
C900 C899 1.349 . S
C900 C912 1.349 . S
C901 C899 1.327 . S
C901 C917 1.429 . S
C901 H923 0.950 . S
C902 H898 0.949 . S
C902 C910 1.574 . S
C902 C918 1.368 . S
H903 C911 0.950 . S
H904 C909 0.950 . S
H905 C910 0.949 . S
H906 C912 0.950 . S
H907 C913 0.950 . S
H908 C914 0.949 . S
C909 H904 0.950 . S
C909 C911 1.327 . S
C909 C915 1.429 . S
C910 C902 1.574 . S
C910 H905 0.949 . S
C910 C916 1.368 . S
C911 C895 1.349 . S
C911 H903 0.950 . S
C911 C909 1.327 . S
C912 C900 1.349 . S
C912 H906 0.950 . S
C912 C913 1.327 . S
C913 H907 0.950 . S
C913 C912 1.327 . S
C913 C917 1.429 . S
C914 C897 1.574 . S
C914 H908 0.949 . S
C914 C918 1.368 . S
C915 C896 1.429 . S
C915 C909 1.429 . S
C915 C916 1.523 . S
C916 C897 1.368 . S
C916 C910 1.368 . S
C916 C915 1.523 . S
C917 C901 1.429 . S
C917 C913 1.429 . S
C917 C918 1.523 . S
C918 C902 1.368 . S
C918 C914 1.368 . S
C918 C917 1.523 . S
H919 C894 0.950 . S
H920 C896 0.950 . S
H921 C897 0.949 . S
H922 C899 0.950 . S
H923 C901 0.950 . S
C924 C925 1.349 . S
C924 C926 1.327 . S
C924 H949 0.950 . S
C925 C924 1.349 . S
C925 C941 1.349 . S
C926 C924 1.327 . S
C926 C945 1.429 . S
C926 H950 0.950 . S
C927 C944 1.574 . S
C927 C946 1.368 . S
C927 H951 0.949 . S
H928 C932 0.949 . S
C929 C930 1.349 . S
C929 C931 1.327 . S
C929 H952 0.950 . S
C930 C929 1.349 . S
C930 C942 1.349 . S
C931 C929 1.327 . S
C931 C947 1.429 . S
C931 H953 0.950 . S
C932 H928 0.949 . S
C932 C940 1.574 . S
C932 C948 1.368 . S
H933 C941 0.950 . S
H934 C939 0.950 . S
H935 C940 0.949 . S
H936 C942 0.950 . S
H937 C943 0.950 . S
H938 C944 0.949 . S
C939 H934 0.950 . S
C939 C941 1.327 . S
C939 C945 1.429 . S
C940 C932 1.574 . S
C940 H935 0.949 . S
C940 C946 1.368 . S
C941 C925 1.349 . S
C941 H933 0.950 . S
C941 C939 1.327 . S
C942 C930 1.349 . S
C942 H936 0.950 . S
C942 C943 1.327 . S
C943 H937 0.950 . S
C943 C942 1.327 . S
C943 C947 1.429 . S
C944 C927 1.574 . S
C944 H938 0.949 . S
C944 C948 1.368 . S
C945 C926 1.429 . S
C945 C939 1.429 . S
C945 C946 1.523 . S
C946 C927 1.368 . S
C946 C940 1.368 . S
C946 C945 1.523 . S
C947 C931 1.429 . S
C947 C943 1.429 . S
C947 C948 1.523 . S
C948 C932 1.368 . S
C948 C944 1.368 . S
C948 C947 1.523 . S
H949 C924 0.950 . S
H950 C926 0.950 . S
H951 C927 0.949 . S
H952 C929 0.950 . S
H953 C931 0.950 . S
C954 C955 1.349 . S
C954 C956 1.327 . S
C954 H979 0.950 . S
C955 C954 1.349 . S
C955 C971 1.349 . S
C956 C954 1.327 . S
C956 C975 1.429 . S
C956 H980 0.950 . S
C957 C974 1.574 . S
C957 C976 1.368 . S
C957 H981 0.949 . S
H958 C962 0.949 . S
C959 C960 1.349 . S
C959 C961 1.327 . S
C959 H982 0.950 . S
C960 C959 1.349 . S
C960 C972 1.349 . S
C961 C959 1.327 . S
C961 C977 1.429 . S
C961 H983 0.950 . S
C962 H958 0.949 . S
C962 C970 1.574 . S
C962 C978 1.368 . S
H963 C971 0.950 . S
H964 C969 0.950 . S
H965 C970 0.949 . S
H966 C972 0.950 . S
H967 C973 0.950 . S
H968 C974 0.949 . S
C969 H964 0.950 . S
C969 C971 1.327 . S
C969 C975 1.429 . S
C970 C962 1.574 . S
C970 H965 0.949 . S
C970 C976 1.368 . S
C971 C955 1.349 . S
C971 H963 0.950 . S
C971 C969 1.327 . S
C972 C960 1.349 . S
C972 H966 0.950 . S
C972 C973 1.327 . S
C973 H967 0.950 . S
C973 C972 1.327 . S
C973 C977 1.429 . S
C974 C957 1.574 . S
C974 H968 0.949 . S
C974 C978 1.368 . S
C975 C956 1.429 . S
C975 C969 1.429 . S
C975 C976 1.523 . S
C976 C957 1.368 . S
C976 C970 1.368 . S
C976 C975 1.523 . S
C977 C961 1.429 . S
C977 C973 1.429 . S
C977 C978 1.523 . S
C978 C962 1.368 . S
C978 C974 1.368 . S
C978 C977 1.523 . S
H979 C954 0.950 . S
H980 C956 0.950 . S
H981 C957 0.949 . S
H982 C959 0.950 . S
H983 C961 0.950 . S
C984 C985 1.349 . S
C984 C986 1.327 . S
C984 H1009 0.950 . S
C985 C984 1.349 . S
C985 C1001 1.349 . S
C986 C984 1.327 . S
C986 C1005 1.429 . S
C986 H1010 0.950 . S
C987 C1004 1.574 . S
C987 C1006 1.368 . S
C987 H1011 0.949 . S
H988 C992 0.949 . S
C989 C990 1.349 . S
C989 C991 1.327 . S
C989 H1012 0.950 . S
C990 C989 1.349 . S
C990 C1002 1.349 . S
C991 C989 1.327 . S
C991 C1007 1.429 . S
C991 H1013 0.950 . S
C992 H988 0.949 . S
C992 C1000 1.574 . S
C992 C1008 1.368 . S
H993 C1001 0.950 . S
H994 C999 0.950 . S
H995 C1000 0.949 . S
H996 C1002 0.950 . S
H997 C1003 0.950 . S
H998 C1004 0.949 . S
C999 H994 0.950 . S
C999 C1001 1.327 . S
C999 C1005 1.429 . S
C1000 C992 1.574 . S
C1000 H995 0.949 . S
C1000 C1006 1.368 . S
C1001 C985 1.349 . S
C1001 H993 0.950 . S
C1001 C999 1.327 . S
C1002 C990 1.349 . S
C1002 H996 0.950 . S
C1002 C1003 1.327 . S
C1003 H997 0.950 . S
C1003 C1002 1.327 . S
C1003 C1007 1.429 . S
C1004 C987 1.574 . S
C1004 H998 0.949 . S
C1004 C1008 1.368 . S
C1005 C986 1.429 . S
C1005 C999 1.429 . S
C1005 C1006 1.523 . S
C1006 C987 1.368 . S
C1006 C1000 1.368 . S
C1006 C1005 1.523 . S
C1007 C991 1.429 . S
C1007 C1003 1.429 . S
C1007 C1008 1.523 . S
C1008 C992 1.368 . S
C1008 C1004 1.368 . S
C1008 C1007 1.523 . S
H1009 C984 0.950 . S
H1010 C986 0.950 . S
H1011 C987 0.949 . S
H1012 C989 0.950 . S
H1013 C991 0.950 . S
C1014 C1015 1.349 . S
C1014 C1016 1.327 . S
C1014 H1039 0.950 . S
C1015 C1014 1.349 . S
C1015 C1031 1.349 . S
C1016 C1014 1.327 . S
C1016 C1035 1.429 . S
C1016 H1040 0.950 . S
C1017 C1034 1.574 . S
C1017 C1036 1.368 . S
C1017 H1041 0.949 . S
H1018 C1022 0.949 . S
C1019 C1020 1.349 . S
C1019 C1021 1.327 . S
C1019 H1042 0.950 . S
C1020 C1019 1.349 . S
C1020 C1032 1.349 . S
C1021 C1019 1.327 . S
C1021 C1037 1.429 . S
C1021 H1043 0.950 . S
C1022 H1018 0.949 . S
C1022 C1030 1.574 . S
C1022 C1038 1.368 . S
H1023 C1031 0.950 . S
H1024 C1029 0.950 . S
H1025 C1030 0.949 . S
H1026 C1032 0.950 . S
H1027 C1033 0.950 . S
H1028 C1034 0.949 . S
C1029 H1024 0.950 . S
C1029 C1031 1.327 . S
C1029 C1035 1.429 . S
C1030 C1022 1.574 . S
C1030 H1025 0.949 . S
C1030 C1036 1.368 . S
C1031 C1015 1.349 . S
C1031 H1023 0.950 . S
C1031 C1029 1.327 . S
C1032 C1020 1.349 . S
C1032 H1026 0.950 . S
C1032 C1033 1.327 . S
C1033 H1027 0.950 . S
C1033 C1032 1.327 . S
C1033 C1037 1.429 . S
C1034 C1017 1.574 . S
C1034 H1028 0.949 . S
C1034 C1038 1.368 . S
C1035 C1016 1.429 . S
C1035 C1029 1.429 . S
C1035 C1036 1.523 . S
C1036 C1017 1.368 . S
C1036 C1030 1.368 . S
C1036 C1035 1.523 . S
C1037 C1021 1.429 . S
C1037 C1033 1.429 . S
C1037 C1038 1.523 . S
C1038 C1022 1.368 . S
C1038 C1034 1.368 . S
C1038 C1037 1.523 . S
H1039 C1014 0.950 . S
H1040 C1016 0.950 . S
H1041 C1017 0.949 . S
H1042 C1019 0.950 . S
H1043 C1021 0.950 . S
C1044 C1045 1.349 . S
C1044 C1046 1.327 . S
C1044 H1069 0.950 . S
C1045 C1044 1.349 . S
C1045 C1061 1.349 . S
C1046 C1044 1.327 . S
C1046 C1065 1.429 . S
C1046 H1070 0.950 . S
C1047 C1064 1.574 1_556 S
C1047 C1066 1.368 . S
C1047 H1071 0.949 . S
H1048 C1052 0.949 . S
C1049 C1050 1.349 . S
C1049 C1051 1.327 . S
C1049 H1072 0.950 . S
C1050 C1049 1.349 . S
C1050 C1062 1.349 . S
C1051 C1049 1.327 . S
C1051 C1067 1.429 . S
C1051 H1073 0.950 . S
C1052 H1048 0.949 . S
C1052 C1060 1.574 . S
C1052 C1068 1.368 . S
H1053 C1061 0.950 . S
H1054 C1059 0.950 . S
H1055 C1060 0.949 . S
H1056 C1062 0.950 . S
H1057 C1063 0.950 . S
H1058 C1064 0.949 . S
C1059 H1054 0.950 . S
C1059 C1061 1.327 . S
C1059 C1065 1.429 . S
C1060 C1052 1.574 . S
C1060 H1055 0.949 . S
C1060 C1066 1.368 1_554 S
C1061 C1045 1.349 . S
C1061 H1053 0.950 . S
C1061 C1059 1.327 . S
C1062 C1050 1.349 . S
C1062 H1056 0.950 . S
C1062 C1063 1.327 . S
C1063 H1057 0.950 . S
C1063 C1062 1.327 . S
C1063 C1067 1.429 . S
C1064 C1047 1.574 1_554 S
C1064 H1058 0.949 . S
C1064 C1068 1.368 . S
C1065 C1046 1.429 . S
C1065 C1059 1.429 . S
C1065 C1066 1.523 . S
C1066 C1047 1.368 . S
C1066 C1060 1.368 1_556 S
C1066 C1065 1.523 . S
C1067 C1051 1.429 . S
C1067 C1063 1.429 . S
C1067 C1068 1.523 . S
C1068 C1052 1.368 . S
C1068 C1064 1.368 . S
C1068 C1067 1.523 . S
H1069 C1044 0.950 . S
H1070 C1046 0.950 . S
H1071 C1047 0.949 . S
H1072 C1049 0.950 . S
H1073 C1051 0.950 . S
C1074 C1075 1.349 . S
C1074 C1076 1.327 . S
C1074 H1099 0.950 . S
C1075 C1074 1.349 . S
C1075 C1091 1.349 . S
C1076 C1074 1.327 . S
C1076 C1095 1.429 . S
C1076 H1100 0.950 . S
C1077 C1094 1.574 1_554 S
C1077 C1096 1.368 . S
C1077 H1101 0.949 . S
H1078 C1082 0.949 1_556 S
C1079 C1080 1.349 . S
C1079 C1081 1.327 . S
C1079 H1102 0.950 . S
C1080 C1079 1.349 . S
C1080 C1092 1.349 . S
C1081 C1079 1.327 . S
C1081 C1097 1.429 . S
C1081 H1103 0.950 . S
C1082 H1078 0.949 1_554 S
C1082 C1090 1.574 . S
C1082 C1098 1.368 1_554 S
H1083 C1091 0.950 . S
H1084 C1089 0.950 . S
H1085 C1090 0.949 . S
H1086 C1092 0.950 . S
H1087 C1093 0.950 . S
H1088 C1094 0.949 . S
C1089 H1084 0.950 . S
C1089 C1091 1.327 . S
C1089 C1095 1.429 . S
C1090 C1082 1.574 . S
C1090 H1085 0.949 . S
C1090 C1096 1.368 . S
C1091 C1075 1.349 . S
C1091 H1083 0.950 . S
C1091 C1089 1.327 . S
C1092 C1080 1.349 . S
C1092 H1086 0.950 . S
C1092 C1093 1.327 . S
C1093 H1087 0.950 . S
C1093 C1092 1.327 . S
C1093 C1097 1.429 . S
C1094 C1077 1.574 1_556 S
C1094 H1088 0.949 . S
C1094 C1098 1.368 . S
C1095 C1076 1.429 . S
C1095 C1089 1.429 . S
C1095 C1096 1.523 . S
C1096 C1077 1.368 . S
C1096 C1090 1.368 . S
C1096 C1095 1.523 . S
C1097 C1081 1.429 . S
C1097 C1093 1.429 . S
C1097 C1098 1.523 . S
C1098 C1082 1.368 1_556 S
C1098 C1094 1.368 . S
C1098 C1097 1.523 . S
H1099 C1074 0.950 . S
H1100 C1076 0.950 . S
H1101 C1077 0.949 . S
H1102 C1079 0.950 . S
H1103 C1081 0.950 . S
C1104 C1105 1.349 . S
C1104 C1106 1.327 . S
C1104 H1129 0.950 . S
C1105 C1104 1.349 . S
C1105 C1121 1.349 . S
C1106 C1104 1.327 . S
C1106 C1125 1.429 . S
C1106 H1130 0.950 . S
C1107 C1124 1.574 1_554 S
C1107 C1126 1.368 . S
C1107 H1131 0.949 . S
H1108 C1112 0.949 . S
C1109 C1110 1.349 . S
C1109 C1111 1.327 . S
C1109 H1132 0.950 . S
C1110 C1109 1.349 . S
C1110 C1122 1.349 . S
C1111 C1109 1.327 . S
C1111 C1127 1.429 . S
C1111 H1133 0.950 . S
C1112 H1108 0.949 . S
C1112 C1120 1.574 . S
C1112 C1128 1.368 1_554 S
H1113 C1121 0.950 . S
H1114 C1119 0.950 . S
H1115 C1120 0.949 . S
H1116 C1122 0.950 . S
H1117 C1123 0.950 . S
H1118 C1124 0.949 . S
C1119 H1114 0.950 . S
C1119 C1121 1.327 . S
C1119 C1125 1.429 . S
C1120 C1112 1.574 . S
C1120 H1115 0.949 . S
C1120 C1126 1.368 . S
C1121 C1105 1.349 . S
C1121 H1113 0.950 . S
C1121 C1119 1.327 . S
C1122 C1110 1.349 . S
C1122 H1116 0.950 . S
C1122 C1123 1.327 . S
C1123 H1117 0.950 . S
C1123 C1122 1.327 . S
C1123 C1127 1.429 . S
C1124 C1107 1.574 1_556 S
C1124 H1118 0.949 . S
C1124 C1128 1.368 . S
C1125 C1106 1.429 . S
C1125 C1119 1.429 . S
C1125 C1126 1.523 . S
C1126 C1107 1.368 . S
C1126 C1120 1.368 . S
C1126 C1125 1.523 . S
C1127 C1111 1.429 . S
C1127 C1123 1.429 . S
C1127 C1128 1.523 . S
C1128 C1112 1.368 1_556 S
C1128 C1124 1.368 . S
C1128 C1127 1.523 . S
H1129 C1104 0.950 . S
H1130 C1106 0.950 . S
H1131 C1107 0.949 . S
H1132 C1109 0.950 . S
H1133 C1111 0.950 . S
C1134 C1135 1.349 . S
C1134 C1136 1.327 . S
C1134 H1159 0.950 . S
C1135 C1134 1.349 . S
C1135 C1151 1.349 . S
C1136 C1134 1.327 . S
C1136 C1155 1.429 . S
C1136 H1160 0.950 . S
C1137 C1154 1.574 . S
C1137 C1156 1.368 . S
C1137 H1161 0.949 . S
H1138 C1142 0.949 . S
C1139 C1140 1.349 . S
C1139 C1141 1.327 . S
C1139 H1162 0.950 . S
C1140 C1139 1.349 . S
C1140 C1152 1.349 . S
C1141 C1139 1.327 . S
C1141 C1157 1.429 . S
C1141 H1163 0.950 . S
C1142 H1138 0.949 . S
C1142 C1150 1.574 . S
C1142 C1158 1.368 . S
H1143 C1151 0.950 . S
H1144 C1149 0.950 . S
H1145 C1150 0.949 . S
H1146 C1152 0.950 . S
H1147 C1153 0.950 . S
H1148 C1154 0.949 . S
C1149 H1144 0.950 . S
C1149 C1151 1.327 . S
C1149 C1155 1.429 . S
C1150 C1142 1.574 . S
C1150 H1145 0.949 . S
C1150 C1156 1.368 . S
C1151 C1135 1.349 . S
C1151 H1143 0.950 . S
C1151 C1149 1.327 . S
C1152 C1140 1.349 . S
C1152 H1146 0.950 . S
C1152 C1153 1.327 . S
C1153 H1147 0.950 . S
C1153 C1152 1.327 . S
C1153 C1157 1.429 . S
C1154 C1137 1.574 . S
C1154 H1148 0.949 . S
C1154 C1158 1.368 . S
C1155 C1136 1.429 . S
C1155 C1149 1.429 . S
C1155 C1156 1.523 . S
C1156 C1137 1.368 . S
C1156 C1150 1.368 . S
C1156 C1155 1.523 . S
C1157 C1141 1.429 . S
C1157 C1153 1.429 . S
C1157 C1158 1.523 . S
C1158 C1142 1.368 . S
C1158 C1154 1.368 . S
C1158 C1157 1.523 . S
H1159 C1134 0.950 . S
H1160 C1136 0.950 . S
H1161 C1137 0.949 . S
H1162 C1139 0.950 . S
H1163 C1141 0.950 . S
C1164 C1165 1.349 . S
C1164 C1166 1.327 . S
C1164 H1189 0.950 . S
C1165 C1164 1.349 . S
C1165 C1181 1.349 . S
C1166 C1164 1.327 . S
C1166 C1185 1.429 . S
C1166 H1190 0.950 . S
C1167 C1184 1.574 . S
C1167 C1186 1.368 . S
C1167 H1191 0.949 . S
H1168 C1172 0.949 . S
C1169 C1170 1.349 . S
C1169 C1171 1.327 . S
C1169 H1192 0.950 . S
C1170 C1169 1.349 . S
C1170 C1182 1.349 . S
C1171 C1169 1.327 . S
C1171 C1187 1.429 . S
C1171 H1193 0.950 . S
C1172 H1168 0.949 . S
C1172 C1180 1.574 . S
C1172 C1188 1.368 . S
H1173 C1181 0.950 . S
H1174 C1179 0.950 . S
H1175 C1180 0.949 . S
H1176 C1182 0.950 . S
H1177 C1183 0.950 . S
H1178 C1184 0.949 . S
C1179 H1174 0.950 . S
C1179 C1181 1.327 . S
C1179 C1185 1.429 . S
C1180 C1172 1.574 . S
C1180 H1175 0.949 . S
C1180 C1186 1.368 . S
C1181 C1165 1.349 . S
C1181 H1173 0.950 . S
C1181 C1179 1.327 . S
C1182 C1170 1.349 . S
C1182 H1176 0.950 . S
C1182 C1183 1.327 . S
C1183 H1177 0.950 . S
C1183 C1182 1.327 . S
C1183 C1187 1.429 . S
C1184 C1167 1.574 . S
C1184 H1178 0.949 . S
C1184 C1188 1.368 . S
C1185 C1166 1.429 . S
C1185 C1179 1.429 . S
C1185 C1186 1.523 . S
C1186 C1167 1.368 . S
C1186 C1180 1.368 . S
C1186 C1185 1.523 . S
C1187 C1171 1.429 . S
C1187 C1183 1.429 . S
C1187 C1188 1.523 . S
C1188 C1172 1.368 . S
C1188 C1184 1.368 . S
C1188 C1187 1.523 . S
H1189 C1164 0.950 . S
H1190 C1166 0.950 . S
H1191 C1167 0.949 . S
H1192 C1169 0.950 . S
H1193 C1171 0.950 . S
C1194 C1195 1.349 . S
C1194 C1196 1.327 . S
C1194 H1219 0.950 . S
C1195 C1194 1.349 . S
C1195 C1211 1.349 . S
C1196 C1194 1.327 . S
C1196 C1215 1.429 . S
C1196 H1220 0.950 . S
C1197 C1214 1.574 . S
C1197 C1216 1.368 . S
C1197 H1221 0.949 . S
H1198 C1202 0.949 . S
C1199 C1200 1.349 . S
C1199 C1201 1.327 . S
C1199 H1222 0.950 . S
C1200 C1199 1.349 . S
C1200 C1212 1.349 . S
C1201 C1199 1.327 . S
C1201 C1217 1.429 . S
C1201 H1223 0.950 . S
C1202 H1198 0.949 . S
C1202 C1210 1.574 . S
C1202 C1218 1.368 . S
H1203 C1211 0.950 . S
H1204 C1209 0.950 . S
H1205 C1210 0.949 . S
H1206 C1212 0.950 . S
H1207 C1213 0.950 . S
H1208 C1214 0.949 . S
C1209 H1204 0.950 . S
C1209 C1211 1.327 . S
C1209 C1215 1.429 . S
C1210 C1202 1.574 . S
C1210 H1205 0.949 . S
C1210 C1216 1.368 . S
C1211 C1195 1.349 . S
C1211 H1203 0.950 . S
C1211 C1209 1.327 . S
C1212 C1200 1.349 . S
C1212 H1206 0.950 . S
C1212 C1213 1.327 . S
C1213 H1207 0.950 . S
C1213 C1212 1.327 . S
C1213 C1217 1.429 . S
C1214 C1197 1.574 . S
C1214 H1208 0.949 . S
C1214 C1218 1.368 . S
C1215 C1196 1.429 . S
C1215 C1209 1.429 . S
C1215 C1216 1.523 . S
C1216 C1197 1.368 . S
C1216 C1210 1.368 . S
C1216 C1215 1.523 . S
C1217 C1201 1.429 . S
C1217 C1213 1.429 . S
C1217 C1218 1.523 . S
C1218 C1202 1.368 . S
C1218 C1214 1.368 . S
C1218 C1217 1.523 . S
H1219 C1194 0.950 . S
H1220 C1196 0.950 . S
H1221 C1197 0.949 . S
H1222 C1199 0.950 . S
H1223 C1201 0.950 . S
C1224 C1225 1.349 . S
C1224 C1226 1.327 . S
C1224 H1249 0.950 . S
C1225 C1224 1.349 . S
C1225 C1241 1.349 . S
C1226 C1224 1.327 . S
C1226 C1245 1.429 . S
C1226 H1250 0.950 . S
C1227 C1244 1.574 1_556 S
C1227 C1246 1.368 . S
C1227 H1251 0.949 . S
H1228 C1232 0.949 1_554 S
C1229 C1230 1.349 . S
C1229 C1231 1.327 . S
C1229 H1252 0.950 . S
C1230 C1229 1.349 . S
C1230 C1242 1.349 . S
C1231 C1229 1.327 . S
C1231 C1247 1.429 . S
C1231 H1253 0.950 . S
C1232 H1228 0.949 1_556 S
C1232 C1240 1.574 . S
C1232 C1248 1.368 1_556 S
H1233 C1241 0.950 . S
H1234 C1239 0.950 . S
H1235 C1240 0.949 . S
H1236 C1242 0.950 . S
H1237 C1243 0.950 . S
H1238 C1244 0.949 . S
C1239 H1234 0.950 . S
C1239 C1241 1.327 . S
C1239 C1245 1.429 . S
C1240 C1232 1.574 . S
C1240 H1235 0.949 . S
C1240 C1246 1.368 . S
C1241 C1225 1.349 . S
C1241 H1233 0.950 . S
C1241 C1239 1.327 . S
C1242 C1230 1.349 . S
C1242 H1236 0.950 . S
C1242 C1243 1.327 . S
C1243 H1237 0.950 . S
C1243 C1242 1.327 . S
C1243 C1247 1.429 . S
C1244 C1227 1.574 1_554 S
C1244 H1238 0.949 . S
C1244 C1248 1.368 . S
C1245 C1226 1.429 . S
C1245 C1239 1.429 . S
C1245 C1246 1.523 . S
C1246 C1227 1.368 . S
C1246 C1240 1.368 . S
C1246 C1245 1.523 . S
C1247 C1231 1.429 . S
C1247 C1243 1.429 . S
C1247 C1248 1.523 . S
C1248 C1232 1.368 1_554 S
C1248 C1244 1.368 . S
C1248 C1247 1.523 . S
H1249 C1224 0.950 . S
H1250 C1226 0.950 . S
H1251 C1227 0.949 . S
H1252 C1229 0.950 . S
H1253 C1231 0.950 . S
C1254 C1255 1.349 . S
C1254 C1256 1.327 . S
C1254 H1279 0.950 . S
C1255 C1254 1.349 . S
C1255 C1271 1.349 . S
C1256 C1254 1.327 . S
C1256 C1275 1.429 . S
C1256 H1280 0.950 . S
C1257 C1274 1.574 1_556 S
C1257 C1276 1.368 . S
C1257 H1281 0.949 . S
H1258 C1262 0.949 . S
C1259 C1260 1.349 . S
C1259 C1261 1.327 . S
C1259 H1282 0.950 . S
C1260 C1259 1.349 . S
C1260 C1272 1.349 . S
C1261 C1259 1.327 . S
C1261 C1277 1.429 . S
C1261 H1283 0.950 . S
C1262 H1258 0.949 . S
C1262 C1270 1.574 . S
C1262 C1278 1.368 1_556 S
H1263 C1271 0.950 . S
H1264 C1269 0.950 . S
H1265 C1270 0.949 . S
H1266 C1272 0.950 . S
H1267 C1273 0.950 . S
H1268 C1274 0.949 . S
C1269 H1264 0.950 . S
C1269 C1271 1.327 . S
C1269 C1275 1.429 . S
C1270 C1262 1.574 . S
C1270 H1265 0.949 . S
C1270 C1276 1.368 . S
C1271 C1255 1.349 . S
C1271 H1263 0.950 . S
C1271 C1269 1.327 . S
C1272 C1260 1.349 . S
C1272 H1266 0.950 . S
C1272 C1273 1.327 . S
C1273 H1267 0.950 . S
C1273 C1272 1.327 . S
C1273 C1277 1.429 . S
C1274 C1257 1.574 1_554 S
C1274 H1268 0.949 . S
C1274 C1278 1.368 . S
C1275 C1256 1.429 . S
C1275 C1269 1.429 . S
C1275 C1276 1.523 . S
C1276 C1257 1.368 . S
C1276 C1270 1.368 . S
C1276 C1275 1.523 . S
C1277 C1261 1.429 . S
C1277 C1273 1.429 . S
C1277 C1278 1.523 . S
C1278 C1262 1.368 1_554 S
C1278 C1274 1.368 . S
C1278 C1277 1.523 . S
H1279 C1254 0.950 . S
H1280 C1256 0.950 . S
H1281 C1257 0.949 . S
H1282 C1259 0.950 . S
H1283 C1261 0.950 . S
C1284 C1285 1.349 . S
C1284 C1286 1.327 . S
C1284 H1309 0.950 . S
C1285 C1284 1.349 . S
C1285 C1301 1.349 . S
C1286 C1284 1.327 . S
C1286 C1305 1.429 . S
C1286 H1310 0.950 . S
C1287 C1304 1.574 . S
C1287 C1306 1.368 1_556 S
C1287 H1311 0.949 . S
H1288 C1292 0.949 . S
C1289 C1290 1.349 . S
C1289 C1291 1.327 . S
C1289 H1312 0.950 . S
C1290 C1289 1.349 . S
C1290 C1302 1.349 . S
C1291 C1289 1.327 . S
C1291 C1307 1.429 . S
C1291 H1313 0.950 . S
C1292 H1288 0.949 . S
C1292 C1300 1.574 1_556 S
C1292 C1308 1.368 . S
H1293 C1301 0.950 . S
H1294 C1299 0.950 . S
H1295 C1300 0.949 . S
H1296 C1302 0.950 . S
H1297 C1303 0.950 . S
H1298 C1304 0.949 . S
C1299 H1294 0.950 . S
C1299 C1301 1.327 . S
C1299 C1305 1.429 . S
C1300 C1292 1.574 1_554 S
C1300 H1295 0.949 . S
C1300 C1306 1.368 . S
C1301 C1285 1.349 . S
C1301 H1293 0.950 . S
C1301 C1299 1.327 . S
C1302 C1290 1.349 . S
C1302 H1296 0.950 . S
C1302 C1303 1.327 . S
C1303 H1297 0.950 . S
C1303 C1302 1.327 . S
C1303 C1307 1.429 . S
C1304 C1287 1.574 . S
C1304 H1298 0.949 . S
C1304 C1308 1.368 . S
C1305 C1286 1.429 . S
C1305 C1299 1.429 . S
C1305 C1306 1.523 . S
C1306 C1287 1.368 1_554 S
C1306 C1300 1.368 . S
C1306 C1305 1.523 . S
C1307 C1291 1.429 . S
C1307 C1303 1.429 . S
C1307 C1308 1.523 . S
C1308 C1292 1.368 . S
C1308 C1304 1.368 . S
C1308 C1307 1.523 . S
H1309 C1284 0.950 . S
H1310 C1286 0.950 . S
H1311 C1287 0.949 . S
H1312 C1289 0.950 . S
H1313 C1291 0.950 . S
C1314 C1315 1.349 . S
C1314 C1316 1.327 . S
C1314 H1339 0.950 . S
C1315 C1314 1.349 . S
C1315 C1331 1.349 . S
C1316 C1314 1.327 . S
C1316 C1335 1.429 . S
C1316 H1340 0.950 . S
C1317 C1334 1.574 . S
C1317 C1336 1.368 . S
C1317 H1341 0.949 . S
H1318 C1322 0.949 . S
C1319 C1320 1.349 . S
C1319 C1321 1.327 . S
C1319 H1342 0.950 . S
C1320 C1319 1.349 . S
C1320 C1332 1.349 . S
C1321 C1319 1.327 . S
C1321 C1337 1.429 . S
C1321 H1343 0.950 . S
C1322 H1318 0.949 . S
C1322 C1330 1.574 . S
C1322 C1338 1.368 . S
H1323 C1331 0.950 . S
H1324 C1329 0.950 . S
H1325 C1330 0.949 . S
H1326 C1332 0.950 . S
H1327 C1333 0.950 . S
H1328 C1334 0.949 . S
C1329 H1324 0.950 . S
C1329 C1331 1.327 . S
C1329 C1335 1.429 . S
C1330 C1322 1.574 . S
C1330 H1325 0.949 . S
C1330 C1336 1.368 . S
C1331 C1315 1.349 . S
C1331 H1323 0.950 . S
C1331 C1329 1.327 . S
C1332 C1320 1.349 . S
C1332 H1326 0.950 . S
C1332 C1333 1.327 . S
C1333 H1327 0.950 . S
C1333 C1332 1.327 . S
C1333 C1337 1.429 . S
C1334 C1317 1.574 . S
C1334 H1328 0.949 . S
C1334 C1338 1.368 . S
C1335 C1316 1.429 . S
C1335 C1329 1.429 . S
C1335 C1336 1.523 . S
C1336 C1317 1.368 . S
C1336 C1330 1.368 . S
C1336 C1335 1.523 . S
C1337 C1321 1.429 . S
C1337 C1333 1.429 . S
C1337 C1338 1.523 . S
C1338 C1322 1.368 . S
C1338 C1334 1.368 . S
C1338 C1337 1.523 . S
H1339 C1314 0.950 . S
H1340 C1316 0.950 . S
H1341 C1317 0.949 . S
H1342 C1319 0.950 . S
H1343 C1321 0.950 . S
C1344 C1345 1.349 . S
C1344 C1346 1.327 . S
C1344 H1369 0.950 . S
C1345 C1344 1.349 . S
C1345 C1361 1.349 . S
C1346 C1344 1.327 . S
C1346 C1365 1.429 . S
C1346 H1370 0.950 . S
C1347 C1364 1.574 . S
C1347 C1366 1.368 . S
C1347 H1371 0.949 . S
H1348 C1352 0.949 . S
C1349 C1350 1.349 . S
C1349 C1351 1.327 . S
C1349 H1372 0.950 . S
C1350 C1349 1.349 . S
C1350 C1362 1.349 . S
C1351 C1349 1.327 . S
C1351 C1367 1.429 . S
C1351 H1373 0.950 . S
C1352 H1348 0.949 . S
C1352 C1360 1.574 . S
C1352 C1368 1.368 . S
H1353 C1361 0.950 . S
H1354 C1359 0.950 . S
H1355 C1360 0.949 . S
H1356 C1362 0.950 . S
H1357 C1363 0.950 . S
H1358 C1364 0.949 . S
C1359 H1354 0.950 . S
C1359 C1361 1.327 . S
C1359 C1365 1.429 . S
C1360 C1352 1.574 . S
C1360 H1355 0.949 . S
C1360 C1366 1.368 . S
C1361 C1345 1.349 . S
C1361 H1353 0.950 . S
C1361 C1359 1.327 . S
C1362 C1350 1.349 . S
C1362 H1356 0.950 . S
C1362 C1363 1.327 . S
C1363 H1357 0.950 . S
C1363 C1362 1.327 . S
C1363 C1367 1.429 . S
C1364 C1347 1.574 . S
C1364 H1358 0.949 . S
C1364 C1368 1.368 . S
C1365 C1346 1.429 . S
C1365 C1359 1.429 . S
C1365 C1366 1.523 . S
C1366 C1347 1.368 . S
C1366 C1360 1.368 . S
C1366 C1365 1.523 . S
C1367 C1351 1.429 . S
C1367 C1363 1.429 . S
C1367 C1368 1.523 . S
C1368 C1352 1.368 . S
C1368 C1364 1.368 . S
C1368 C1367 1.523 . S
H1369 C1344 0.950 . S
H1370 C1346 0.950 . S
H1371 C1347 0.949 . S
H1372 C1349 0.950 . S
H1373 C1351 0.950 . S
C1374 C1375 1.349 . S
C1374 C1376 1.327 . S
C1374 H1399 0.950 . S
C1375 C1374 1.349 . S
C1375 C1391 1.349 . S
C1376 C1374 1.327 . S
C1376 C1395 1.429 . S
C1376 H1400 0.950 . S
C1377 C1394 1.574 . S
C1377 C1396 1.368 . S
C1377 H1401 0.949 . S
H1378 C1382 0.949 . S
C1379 C1380 1.349 . S
C1379 C1381 1.327 . S
C1379 H1402 0.950 . S
C1380 C1379 1.349 . S
C1380 C1392 1.349 . S
C1381 C1379 1.327 . S
C1381 C1397 1.429 . S
C1381 H1403 0.950 . S
C1382 H1378 0.949 . S
C1382 C1390 1.574 . S
C1382 C1398 1.368 . S
H1383 C1391 0.950 . S
H1384 C1389 0.950 . S
H1385 C1390 0.949 . S
H1386 C1392 0.950 . S
H1387 C1393 0.950 . S
H1388 C1394 0.949 . S
C1389 H1384 0.950 . S
C1389 C1391 1.327 . S
C1389 C1395 1.429 . S
C1390 C1382 1.574 . S
C1390 H1385 0.949 . S
C1390 C1396 1.368 . S
C1391 C1375 1.349 . S
C1391 H1383 0.950 . S
C1391 C1389 1.327 . S
C1392 C1380 1.349 . S
C1392 H1386 0.950 . S
C1392 C1393 1.327 . S
C1393 H1387 0.950 . S
C1393 C1392 1.327 . S
C1393 C1397 1.429 . S
C1394 C1377 1.574 . S
C1394 H1388 0.949 . S
C1394 C1398 1.368 . S
C1395 C1376 1.429 . S
C1395 C1389 1.429 . S
C1395 C1396 1.523 . S
C1396 C1377 1.368 . S
C1396 C1390 1.368 . S
C1396 C1395 1.523 . S
C1397 C1381 1.429 . S
C1397 C1393 1.429 . S
C1397 C1398 1.523 . S
C1398 C1382 1.368 . S
C1398 C1394 1.368 . S
C1398 C1397 1.523 . S
H1399 C1374 0.950 . S
H1400 C1376 0.950 . S
H1401 C1377 0.949 . S
H1402 C1379 0.950 . S
H1403 C1381 0.950 . S
C1404 C1405 1.349 . S
C1404 C1406 1.327 . S
C1404 H1429 0.950 . S
C1405 C1404 1.349 . S
C1405 C1421 1.349 . S
C1406 C1404 1.327 . S
C1406 C1425 1.429 . S
C1406 H1430 0.950 . S
C1407 C1424 1.574 . S
C1407 C1426 1.368 . S
C1407 H1431 0.949 . S
H1408 C1412 0.949 . S
C1409 C1410 1.349 . S
C1409 C1411 1.327 . S
C1409 H1432 0.950 . S
C1410 C1409 1.349 . S
C1410 C1422 1.349 . S
C1411 C1409 1.327 . S
C1411 C1427 1.429 . S
C1411 H1433 0.950 . S
C1412 H1408 0.949 . S
C1412 C1420 1.574 . S
C1412 C1428 1.368 . S
H1413 C1421 0.950 . S
H1414 C1419 0.950 . S
H1415 C1420 0.949 . S
H1416 C1422 0.950 . S
H1417 C1423 0.950 . S
H1418 C1424 0.949 . S
C1419 H1414 0.950 . S
C1419 C1421 1.327 . S
C1419 C1425 1.429 . S
C1420 C1412 1.574 . S
C1420 H1415 0.949 . S
C1420 C1426 1.368 . S
C1421 C1405 1.349 . S
C1421 H1413 0.950 . S
C1421 C1419 1.327 . S
C1422 C1410 1.349 . S
C1422 H1416 0.950 . S
C1422 C1423 1.327 . S
C1423 H1417 0.950 . S
C1423 C1422 1.327 . S
C1423 C1427 1.429 . S
C1424 C1407 1.574 . S
C1424 H1418 0.949 . S
C1424 C1428 1.368 . S
C1425 C1406 1.429 . S
C1425 C1419 1.429 . S
C1425 C1426 1.523 . S
C1426 C1407 1.368 . S
C1426 C1420 1.368 . S
C1426 C1425 1.523 . S
C1427 C1411 1.429 . S
C1427 C1423 1.429 . S
C1427 C1428 1.523 . S
C1428 C1412 1.368 . S
C1428 C1424 1.368 . S
C1428 C1427 1.523 . S
H1429 C1404 0.950 . S
H1430 C1406 0.950 . S
H1431 C1407 0.949 . S
H1432 C1409 0.950 . S
H1433 C1411 0.950 . S
C1434 C1435 1.349 . S
C1434 C1436 1.327 . S
C1434 H1459 0.950 . S
C1435 C1434 1.349 . S
C1435 C1451 1.349 . S
C1436 C1434 1.327 . S
C1436 C1455 1.429 . S
C1436 H1460 0.950 . S
C1437 C1454 1.574 . S
C1437 C1456 1.368 . S
C1437 H1461 0.949 . S
H1438 C1442 0.949 . S
C1439 C1440 1.349 . S
C1439 C1441 1.327 . S
C1439 H1462 0.950 . S
C1440 C1439 1.349 . S
C1440 C1452 1.349 . S
C1441 C1439 1.327 . S
C1441 C1457 1.429 . S
C1441 H1463 0.950 . S
C1442 H1438 0.949 . S
C1442 C1450 1.574 . S
C1442 C1458 1.368 . S
H1443 C1451 0.950 . S
H1444 C1449 0.950 . S
H1445 C1450 0.949 . S
H1446 C1452 0.950 . S
H1447 C1453 0.950 . S
H1448 C1454 0.949 . S
C1449 H1444 0.950 . S
C1449 C1451 1.327 . S
C1449 C1455 1.429 . S
C1450 C1442 1.574 . S
C1450 H1445 0.949 . S
C1450 C1456 1.368 . S
C1451 C1435 1.349 . S
C1451 H1443 0.950 . S
C1451 C1449 1.327 . S
C1452 C1440 1.349 . S
C1452 H1446 0.950 . S
C1452 C1453 1.327 . S
C1453 H1447 0.950 . S
C1453 C1452 1.327 . S
C1453 C1457 1.429 . S
C1454 C1437 1.574 . S
C1454 H1448 0.949 . S
C1454 C1458 1.368 . S
C1455 C1436 1.429 . S
C1455 C1449 1.429 . S
C1455 C1456 1.523 . S
C1456 C1437 1.368 . S
C1456 C1450 1.368 . S
C1456 C1455 1.523 . S
C1457 C1441 1.429 . S
C1457 C1453 1.429 . S
C1457 C1458 1.523 . S
C1458 C1442 1.368 . S
C1458 C1454 1.368 . S
C1458 C1457 1.523 . S
H1459 C1434 0.950 . S
H1460 C1436 0.950 . S
H1461 C1437 0.949 . S
H1462 C1439 0.950 . S
H1463 C1441 0.950 . S
C1464 C1465 1.349 . S
C1464 C1466 1.327 . S
C1464 H1489 0.950 . S
C1465 C1464 1.349 . S
C1465 C1481 1.349 . S
C1466 C1464 1.327 . S
C1466 C1485 1.429 . S
C1466 H1490 0.950 . S
C1467 C1484 1.574 . S
C1467 C1486 1.368 . S
C1467 H1491 0.949 . S
H1468 C1472 0.949 . S
C1469 C1470 1.349 . S
C1469 C1471 1.327 . S
C1469 H1492 0.950 . S
C1470 C1469 1.349 . S
C1470 C1482 1.349 . S
C1471 C1469 1.327 . S
C1471 C1487 1.429 . S
C1471 H1493 0.950 . S
C1472 H1468 0.949 . S
C1472 C1480 1.574 . S
C1472 C1488 1.368 . S
H1473 C1481 0.950 . S
H1474 C1479 0.950 . S
H1475 C1480 0.949 . S
H1476 C1482 0.950 . S
H1477 C1483 0.950 . S
H1478 C1484 0.949 . S
C1479 H1474 0.950 . S
C1479 C1481 1.327 . S
C1479 C1485 1.429 . S
C1480 C1472 1.574 . S
C1480 H1475 0.949 . S
C1480 C1486 1.368 . S
C1481 C1465 1.349 . S
C1481 H1473 0.950 . S
C1481 C1479 1.327 . S
C1482 C1470 1.349 . S
C1482 H1476 0.950 . S
C1482 C1483 1.327 . S
C1483 H1477 0.950 . S
C1483 C1482 1.327 . S
C1483 C1487 1.429 . S
C1484 C1467 1.574 . S
C1484 H1478 0.949 . S
C1484 C1488 1.368 . S
C1485 C1466 1.429 . S
C1485 C1479 1.429 . S
C1485 C1486 1.523 . S
C1486 C1467 1.368 . S
C1486 C1480 1.368 . S
C1486 C1485 1.523 . S
C1487 C1471 1.429 . S
C1487 C1483 1.429 . S
C1487 C1488 1.523 . S
C1488 C1472 1.368 . S
C1488 C1484 1.368 . S
C1488 C1487 1.523 . S
H1489 C1464 0.950 . S
H1490 C1466 0.950 . S
H1491 C1467 0.949 . S
H1492 C1469 0.950 . S
H1493 C1471 0.950 . S
C1494 C1495 1.349 . S
C1494 C1496 1.327 . S
C1494 H1519 0.950 . S
C1495 C1494 1.349 . S
C1495 C1511 1.349 . S
C1496 C1494 1.327 . S
C1496 C1515 1.429 . S
C1496 H1520 0.950 . S
C1497 C1514 1.574 . S
C1497 C1516 1.368 . S
C1497 H1521 0.949 . S
H1498 C1502 0.949 . S
C1499 C1500 1.349 . S
C1499 C1501 1.327 . S
C1499 H1522 0.950 . S
C1500 C1499 1.349 . S
C1500 C1512 1.349 . S
C1501 C1499 1.327 . S
C1501 C1517 1.429 . S
C1501 H1523 0.950 . S
C1502 H1498 0.949 . S
C1502 C1510 1.574 . S
C1502 C1518 1.368 . S
H1503 C1511 0.950 . S
H1504 C1509 0.950 . S
H1505 C1510 0.949 . S
H1506 C1512 0.950 . S
H1507 C1513 0.950 . S
H1508 C1514 0.949 . S
C1509 H1504 0.950 . S
C1509 C1511 1.327 . S
C1509 C1515 1.429 . S
C1510 C1502 1.574 . S
C1510 H1505 0.949 . S
C1510 C1516 1.368 . S
C1511 C1495 1.349 . S
C1511 H1503 0.950 . S
C1511 C1509 1.327 . S
C1512 C1500 1.349 . S
C1512 H1506 0.950 . S
C1512 C1513 1.327 . S
C1513 H1507 0.950 . S
C1513 C1512 1.327 . S
C1513 C1517 1.429 . S
C1514 C1497 1.574 . S
C1514 H1508 0.949 . S
C1514 C1518 1.368 . S
C1515 C1496 1.429 . S
C1515 C1509 1.429 . S
C1515 C1516 1.523 . S
C1516 C1497 1.368 . S
C1516 C1510 1.368 . S
C1516 C1515 1.523 . S
C1517 C1501 1.429 . S
C1517 C1513 1.429 . S
C1517 C1518 1.523 . S
C1518 C1502 1.368 . S
C1518 C1514 1.368 . S
C1518 C1517 1.523 . S
H1519 C1494 0.950 . S
H1520 C1496 0.950 . S
H1521 C1497 0.949 . S
H1522 C1499 0.950 . S
H1523 C1501 0.950 . S
C1524 C1525 1.349 . S
C1524 C1526 1.327 . S
C1524 H1549 0.950 . S
C1525 C1524 1.349 . S
C1525 C1541 1.349 . S
C1526 C1524 1.327 . S
C1526 C1545 1.429 . S
C1526 H1550 0.950 . S
C1527 C1544 1.574 . S
C1527 C1546 1.368 . S
C1527 H1551 0.949 . S
H1528 C1532 0.949 . S
C1529 C1530 1.349 . S
C1529 C1531 1.327 . S
C1529 H1552 0.950 . S
C1530 C1529 1.349 . S
C1530 C1542 1.349 . S
C1531 C1529 1.327 . S
C1531 C1547 1.429 . S
C1531 H1553 0.950 . S
C1532 H1528 0.949 . S
C1532 C1540 1.574 . S
C1532 C1548 1.368 . S
H1533 C1541 0.950 . S
H1534 C1539 0.950 . S
H1535 C1540 0.949 . S
H1536 C1542 0.950 . S
H1537 C1543 0.950 . S
H1538 C1544 0.949 . S
C1539 H1534 0.950 . S
C1539 C1541 1.327 . S
C1539 C1545 1.429 . S
C1540 C1532 1.574 . S
C1540 H1535 0.949 . S
C1540 C1546 1.368 . S
C1541 C1525 1.349 . S
C1541 H1533 0.950 . S
C1541 C1539 1.327 . S
C1542 C1530 1.349 . S
C1542 H1536 0.950 . S
C1542 C1543 1.327 . S
C1543 H1537 0.950 . S
C1543 C1542 1.327 . S
C1543 C1547 1.429 . S
C1544 C1527 1.574 . S
C1544 H1538 0.949 . S
C1544 C1548 1.368 . S
C1545 C1526 1.429 . S
C1545 C1539 1.429 . S
C1545 C1546 1.523 . S
C1546 C1527 1.368 . S
C1546 C1540 1.368 . S
C1546 C1545 1.523 . S
C1547 C1531 1.429 . S
C1547 C1543 1.429 . S
C1547 C1548 1.523 . S
C1548 C1532 1.368 . S
C1548 C1544 1.368 . S
C1548 C1547 1.523 . S
H1549 C1524 0.950 . S
H1550 C1526 0.950 . S
H1551 C1527 0.949 . S
H1552 C1529 0.950 . S
H1553 C1531 0.950 . S
C1554 C1555 1.349 . S
C1554 C1556 1.327 . S
C1554 H1579 0.950 . S
C1555 C1554 1.349 . S
C1555 C1571 1.349 . S
C1556 C1554 1.327 . S
C1556 C1575 1.429 . S
C1556 H1580 0.950 . S
C1557 C1574 1.574 . S
C1557 C1576 1.368 . S
C1557 H1581 0.949 . S
H1558 C1562 0.949 . S
C1559 C1560 1.349 . S
C1559 C1561 1.327 . S
C1559 H1582 0.950 . S
C1560 C1559 1.349 . S
C1560 C1572 1.349 . S
C1561 C1559 1.327 . S
C1561 C1577 1.429 . S
C1561 H1583 0.950 . S
C1562 H1558 0.949 . S
C1562 C1570 1.574 . S
C1562 C1578 1.368 . S
H1563 C1571 0.950 . S
H1564 C1569 0.950 . S
H1565 C1570 0.949 . S
H1566 C1572 0.950 . S
H1567 C1573 0.950 . S
H1568 C1574 0.949 . S
C1569 H1564 0.950 . S
C1569 C1571 1.327 . S
C1569 C1575 1.429 . S
C1570 C1562 1.574 . S
C1570 H1565 0.949 . S
C1570 C1576 1.368 . S
C1571 C1555 1.349 . S
C1571 H1563 0.950 . S
C1571 C1569 1.327 . S
C1572 C1560 1.349 . S
C1572 H1566 0.950 . S
C1572 C1573 1.327 . S
C1573 H1567 0.950 . S
C1573 C1572 1.327 . S
C1573 C1577 1.429 . S
C1574 C1557 1.574 . S
C1574 H1568 0.949 . S
C1574 C1578 1.368 . S
C1575 C1556 1.429 . S
C1575 C1569 1.429 . S
C1575 C1576 1.523 . S
C1576 C1557 1.368 . S
C1576 C1570 1.368 . S
C1576 C1575 1.523 . S
C1577 C1561 1.429 . S
C1577 C1573 1.429 . S
C1577 C1578 1.523 . S
C1578 C1562 1.368 . S
C1578 C1574 1.368 . S
C1578 C1577 1.523 . S
H1579 C1554 0.950 . S
H1580 C1556 0.950 . S
H1581 C1557 0.949 . S
H1582 C1559 0.950 . S
H1583 C1561 0.950 . S
C1584 C1585 1.349 . S
C1584 C1586 1.327 . S
C1584 H1609 0.950 . S
C1585 C1584 1.349 . S
C1585 C1601 1.349 . S
C1586 C1584 1.327 . S
C1586 C1605 1.429 . S
C1586 H1610 0.950 . S
C1587 C1604 1.574 . S
C1587 C1606 1.368 . S
C1587 H1611 0.949 . S
H1588 C1592 0.949 . S
C1589 C1590 1.349 . S
C1589 C1591 1.327 . S
C1589 H1612 0.950 . S
C1590 C1589 1.349 . S
C1590 C1602 1.349 . S
C1591 C1589 1.327 . S
C1591 C1607 1.429 . S
C1591 H1613 0.950 . S
C1592 H1588 0.949 . S
C1592 C1600 1.574 . S
C1592 C1608 1.368 . S
H1593 C1601 0.950 . S
H1594 C1599 0.950 . S
H1595 C1600 0.949 . S
H1596 C1602 0.950 . S
H1597 C1603 0.950 . S
H1598 C1604 0.949 . S
C1599 H1594 0.950 . S
C1599 C1601 1.327 . S
C1599 C1605 1.429 . S
C1600 C1592 1.574 . S
C1600 H1595 0.949 . S
C1600 C1606 1.368 . S
C1601 C1585 1.349 . S
C1601 H1593 0.950 . S
C1601 C1599 1.327 . S
C1602 C1590 1.349 . S
C1602 H1596 0.950 . S
C1602 C1603 1.327 . S
C1603 H1597 0.950 . S
C1603 C1602 1.327 . S
C1603 C1607 1.429 . S
C1604 C1587 1.574 . S
C1604 H1598 0.949 . S
C1604 C1608 1.368 . S
C1605 C1586 1.429 . S
C1605 C1599 1.429 . S
C1605 C1606 1.523 . S
C1606 C1587 1.368 . S
C1606 C1600 1.368 . S
C1606 C1605 1.523 . S
C1607 C1591 1.429 . S
C1607 C1603 1.429 . S
C1607 C1608 1.523 . S
C1608 C1592 1.368 . S
C1608 C1604 1.368 . S
C1608 C1607 1.523 . S
H1609 C1584 0.950 . S
H1610 C1586 0.950 . S
H1611 C1587 0.949 . S
H1612 C1589 0.950 . S
H1613 C1591 0.950 . S
C1614 C1615 1.349 . S
C1614 C1616 1.327 . S
C1614 H1639 0.950 . S
C1615 C1614 1.349 . S
C1615 C1631 1.349 . S
C1616 C1614 1.327 . S
C1616 C1635 1.429 . S
C1616 H1640 0.950 . S
C1617 C1634 1.574 . S
C1617 C1636 1.368 . S
C1617 H1641 0.949 . S
H1618 C1622 0.949 . S
C1619 C1620 1.349 . S
C1619 C1621 1.327 . S
C1619 H1642 0.950 . S
C1620 C1619 1.349 . S
C1620 C1632 1.349 . S
C1621 C1619 1.327 . S
C1621 C1637 1.429 . S
C1621 H1643 0.950 . S
C1622 H1618 0.949 . S
C1622 C1630 1.574 . S
C1622 C1638 1.368 . S
H1623 C1631 0.950 . S
H1624 C1629 0.950 . S
H1625 C1630 0.949 . S
H1626 C1632 0.950 . S
H1627 C1633 0.950 . S
H1628 C1634 0.949 . S
C1629 H1624 0.950 . S
C1629 C1631 1.327 . S
C1629 C1635 1.429 . S
C1630 C1622 1.574 . S
C1630 H1625 0.949 . S
C1630 C1636 1.368 . S
C1631 C1615 1.349 . S
C1631 H1623 0.950 . S
C1631 C1629 1.327 . S
C1632 C1620 1.349 . S
C1632 H1626 0.950 . S
C1632 C1633 1.327 . S
C1633 H1627 0.950 . S
C1633 C1632 1.327 . S
C1633 C1637 1.429 . S
C1634 C1617 1.574 . S
C1634 H1628 0.949 . S
C1634 C1638 1.368 . S
C1635 C1616 1.429 . S
C1635 C1629 1.429 . S
C1635 C1636 1.523 . S
C1636 C1617 1.368 . S
C1636 C1630 1.368 . S
C1636 C1635 1.523 . S
C1637 C1621 1.429 . S
C1637 C1633 1.429 . S
C1637 C1638 1.523 . S
C1638 C1622 1.368 . S
C1638 C1634 1.368 . S
C1638 C1637 1.523 . S
H1639 C1614 0.950 . S
H1640 C1616 0.950 . S
H1641 C1617 0.949 . S
H1642 C1619 0.950 . S
H1643 C1621 0.950 . S
C1644 C1645 1.349 . S
C1644 C1646 1.327 . S
C1644 H1669 0.950 . S
C1645 C1644 1.349 . S
C1645 C1661 1.349 . S
C1646 C1644 1.327 . S
C1646 C1665 1.429 . S
C1646 H1670 0.950 . S
C1647 C1664 1.574 . S
C1647 C1666 1.368 . S
C1647 H1671 0.949 . S
H1648 C1652 0.949 . S
C1649 C1650 1.349 . S
C1649 C1651 1.327 . S
C1649 H1672 0.950 . S
C1650 C1649 1.349 . S
C1650 C1662 1.349 . S
C1651 C1649 1.327 . S
C1651 C1667 1.429 . S
C1651 H1673 0.950 . S
C1652 H1648 0.949 . S
C1652 C1660 1.574 . S
C1652 C1668 1.368 . S
H1653 C1661 0.950 . S
H1654 C1659 0.950 . S
H1655 C1660 0.949 . S
H1656 C1662 0.950 . S
H1657 C1663 0.950 . S
H1658 C1664 0.949 . S
C1659 H1654 0.950 . S
C1659 C1661 1.327 . S
C1659 C1665 1.429 . S
C1660 C1652 1.574 . S
C1660 H1655 0.949 . S
C1660 C1666 1.368 . S
C1661 C1645 1.349 . S
C1661 H1653 0.950 . S
C1661 C1659 1.327 . S
C1662 C1650 1.349 . S
C1662 H1656 0.950 . S
C1662 C1663 1.327 . S
C1663 H1657 0.950 . S
C1663 C1662 1.327 . S
C1663 C1667 1.429 . S
C1664 C1647 1.574 . S
C1664 H1658 0.949 . S
C1664 C1668 1.368 . S
C1665 C1646 1.429 . S
C1665 C1659 1.429 . S
C1665 C1666 1.523 . S
C1666 C1647 1.368 . S
C1666 C1660 1.368 . S
C1666 C1665 1.523 . S
C1667 C1651 1.429 . S
C1667 C1663 1.429 . S
C1667 C1668 1.523 . S
C1668 C1652 1.368 . S
C1668 C1664 1.368 . S
C1668 C1667 1.523 . S
H1669 C1644 0.950 . S
H1670 C1646 0.950 . S
H1671 C1647 0.949 . S
H1672 C1649 0.950 . S
H1673 C1651 0.950 . S
C1674 C1675 1.349 . S
C1674 C1676 1.327 . S
C1674 H1699 0.950 . S
C1675 C1674 1.349 . S
C1675 C1691 1.349 . S
C1676 C1674 1.327 . S
C1676 C1695 1.429 . S
C1676 H1700 0.950 . S
C1677 C1694 1.574 . S
C1677 C1696 1.368 . S
C1677 H1701 0.949 . S
H1678 C1682 0.949 . S
C1679 C1680 1.349 . S
C1679 C1681 1.327 . S
C1679 H1702 0.950 . S
C1680 C1679 1.349 . S
C1680 C1692 1.349 . S
C1681 C1679 1.327 . S
C1681 C1697 1.429 . S
C1681 H1703 0.950 . S
C1682 H1678 0.949 . S
C1682 C1690 1.574 . S
C1682 C1698 1.368 . S
H1683 C1691 0.950 . S
H1684 C1689 0.950 . S
H1685 C1690 0.949 . S
H1686 C1692 0.950 1_554 S
H1687 C1693 0.950 . S
H1688 C1694 0.949 . S
C1689 H1684 0.950 . S
C1689 C1691 1.327 . S
C1689 C1695 1.429 . S
C1690 C1682 1.574 . S
C1690 H1685 0.949 . S
C1690 C1696 1.368 . S
C1691 C1675 1.349 . S
C1691 H1683 0.950 . S
C1691 C1689 1.327 . S
C1692 C1680 1.349 . S
C1692 H1686 0.950 1_556 S
C1692 C1693 1.327 . S
C1693 H1687 0.950 . S
C1693 C1692 1.327 . S
C1693 C1697 1.429 . S
C1694 C1677 1.574 . S
C1694 H1688 0.949 . S
C1694 C1698 1.368 . S
C1695 C1676 1.429 . S
C1695 C1689 1.429 . S
C1695 C1696 1.523 . S
C1696 C1677 1.368 . S
C1696 C1690 1.368 . S
C1696 C1695 1.523 . S
C1697 C1681 1.429 . S
C1697 C1693 1.429 . S
C1697 C1698 1.523 . S
C1698 C1682 1.368 . S
C1698 C1694 1.368 . S
C1698 C1697 1.523 . S
H1699 C1674 0.950 . S
H1700 C1676 0.950 . S
H1701 C1677 0.949 . S
H1702 C1679 0.950 . S
H1703 C1681 0.950 . S
C1704 C1705 1.349 . S
C1704 C1706 1.327 . S
C1704 H1729 0.950 . S
C1705 C1704 1.349 . S
C1705 C1721 1.349 . S
C1706 C1704 1.327 . S
C1706 C1725 1.429 . S
C1706 H1730 0.950 . S
C1707 C1724 1.574 . S
C1707 C1726 1.368 . S
C1707 H1731 0.949 . S
H1708 C1712 0.949 . S
C1709 C1710 1.349 . S
C1709 C1711 1.327 . S
C1709 H1732 0.950 . S
C1710 C1709 1.349 . S
C1710 C1722 1.349 . S
C1711 C1709 1.327 . S
C1711 C1727 1.429 . S
C1711 H1733 0.950 . S
C1712 H1708 0.949 . S
C1712 C1720 1.574 . S
C1712 C1728 1.368 . S
H1713 C1721 0.950 . S
H1714 C1719 0.950 . S
H1715 C1720 0.949 . S
H1716 C1722 0.950 1_554 S
H1717 C1723 0.950 . S
H1718 C1724 0.949 . S
C1719 H1714 0.950 . S
C1719 C1721 1.327 . S
C1719 C1725 1.429 . S
C1720 C1712 1.574 . S
C1720 H1715 0.949 . S
C1720 C1726 1.368 . S
C1721 C1705 1.349 . S
C1721 H1713 0.950 . S
C1721 C1719 1.327 . S
C1722 C1710 1.349 . S
C1722 H1716 0.950 1_556 S
C1722 C1723 1.327 . S
C1723 H1717 0.950 . S
C1723 C1722 1.327 . S
C1723 C1727 1.429 . S
C1724 C1707 1.574 . S
C1724 H1718 0.949 . S
C1724 C1728 1.368 . S
C1725 C1706 1.429 . S
C1725 C1719 1.429 . S
C1725 C1726 1.523 . S
C1726 C1707 1.368 . S
C1726 C1720 1.368 . S
C1726 C1725 1.523 . S
C1727 C1711 1.429 . S
C1727 C1723 1.429 . S
C1727 C1728 1.523 . S
C1728 C1712 1.368 . S
C1728 C1724 1.368 . S
C1728 C1727 1.523 . S
H1729 C1704 0.950 . S
H1730 C1706 0.950 . S
H1731 C1707 0.949 . S
H1732 C1709 0.950 . S
H1733 C1711 0.950 . S
C1734 C1735 1.349 . S
C1734 C1736 1.327 . S
C1734 H1759 0.950 . S
C1735 C1734 1.349 . S
C1735 C1751 1.349 . S
C1736 C1734 1.327 . S
C1736 C1755 1.429 . S
C1736 H1760 0.950 . S
C1737 C1754 1.574 . S
C1737 C1756 1.368 . S
C1737 H1761 0.949 . S
H1738 C1742 0.949 . S
C1739 C1740 1.349 . S
C1739 C1741 1.327 . S
C1739 H1762 0.950 . S
C1740 C1739 1.349 . S
C1740 C1752 1.349 . S
C1741 C1739 1.327 . S
C1741 C1757 1.429 . S
C1741 H1763 0.950 . S
C1742 H1738 0.949 . S
C1742 C1750 1.574 . S
C1742 C1758 1.368 . S
H1743 C1751 0.950 1_554 S
H1744 C1749 0.950 . S
H1745 C1750 0.949 . S
H1746 C1752 0.950 . S
H1747 C1753 0.950 . S
H1748 C1754 0.949 . S
C1749 H1744 0.950 . S
C1749 C1751 1.327 . S
C1749 C1755 1.429 . S
C1750 C1742 1.574 . S
C1750 H1745 0.949 . S
C1750 C1756 1.368 . S
C1751 C1735 1.349 . S
C1751 H1743 0.950 1_556 S
C1751 C1749 1.327 . S
C1752 C1740 1.349 . S
C1752 H1746 0.950 . S
C1752 C1753 1.327 . S
C1753 H1747 0.950 . S
C1753 C1752 1.327 . S
C1753 C1757 1.429 . S
C1754 C1737 1.574 . S
C1754 H1748 0.949 . S
C1754 C1758 1.368 . S
C1755 C1736 1.429 . S
C1755 C1749 1.429 . S
C1755 C1756 1.523 . S
C1756 C1737 1.368 . S
C1756 C1750 1.368 . S
C1756 C1755 1.523 . S
C1757 C1741 1.429 . S
C1757 C1753 1.429 . S
C1757 C1758 1.523 . S
C1758 C1742 1.368 . S
C1758 C1754 1.368 . S
C1758 C1757 1.523 . S
H1759 C1734 0.950 . S
H1760 C1736 0.950 . S
H1761 C1737 0.949 . S
H1762 C1739 0.950 . S
H1763 C1741 0.950 . S
C1764 C1765 1.349 . S
C1764 C1766 1.327 . S
C1764 H1789 0.950 . S
C1765 C1764 1.349 . S
C1765 C1781 1.349 . S
C1766 C1764 1.327 . S
C1766 C1785 1.429 . S
C1766 H1790 0.950 . S
C1767 C1784 1.574 . S
C1767 C1786 1.368 . S
C1767 H1791 0.949 . S
H1768 C1772 0.949 . S
C1769 C1770 1.349 . S
C1769 C1771 1.327 . S
C1769 H1792 0.950 . S
C1770 C1769 1.349 . S
C1770 C1782 1.349 . S
C1771 C1769 1.327 . S
C1771 C1787 1.429 . S
C1771 H1793 0.950 . S
C1772 H1768 0.949 . S
C1772 C1780 1.574 . S
C1772 C1788 1.368 . S
H1773 C1781 0.950 . S
H1774 C1779 0.950 . S
H1775 C1780 0.949 . S
H1776 C1782 0.950 . S
H1777 C1783 0.950 . S
H1778 C1784 0.949 . S
C1779 H1774 0.950 . S
C1779 C1781 1.327 . S
C1779 C1785 1.429 . S
C1780 C1772 1.574 . S
C1780 H1775 0.949 . S
C1780 C1786 1.368 . S
C1781 C1765 1.349 . S
C1781 H1773 0.950 . S
C1781 C1779 1.327 . S
C1782 C1770 1.349 . S
C1782 H1776 0.950 . S
C1782 C1783 1.327 . S
C1783 H1777 0.950 . S
C1783 C1782 1.327 . S
C1783 C1787 1.429 . S
C1784 C1767 1.574 . S
C1784 H1778 0.949 . S
C1784 C1788 1.368 . S
C1785 C1766 1.429 . S
C1785 C1779 1.429 . S
C1785 C1786 1.523 . S
C1786 C1767 1.368 . S
C1786 C1780 1.368 . S
C1786 C1785 1.523 . S
C1787 C1771 1.429 . S
C1787 C1783 1.429 . S
C1787 C1788 1.523 . S
C1788 C1772 1.368 . S
C1788 C1784 1.368 . S
C1788 C1787 1.523 . S
H1789 C1764 0.950 . S
H1790 C1766 0.950 . S
H1791 C1767 0.949 . S
H1792 C1769 0.950 . S
H1793 C1771 0.950 . S
C1794 C1795 1.349 . S
C1794 C1796 1.327 . S
C1794 H1819 0.950 . S
C1795 C1794 1.349 . S
C1795 C1811 1.349 . S
C1796 C1794 1.327 . S
C1796 C1815 1.429 . S
C1796 H1820 0.950 . S
C1797 C1814 1.574 . S
C1797 C1816 1.368 . S
C1797 H1821 0.949 . S
H1798 C1802 0.949 . S
C1799 C1800 1.349 . S
C1799 C1801 1.327 . S
C1799 H1822 0.950 . S
C1800 C1799 1.349 . S
C1800 C1812 1.349 . S
C1801 C1799 1.327 . S
C1801 C1817 1.429 . S
C1801 H1823 0.950 . S
C1802 H1798 0.949 . S
C1802 C1810 1.574 . S
C1802 C1818 1.368 . S
H1803 C1811 0.950 . S
H1804 C1809 0.950 . S
H1805 C1810 0.949 . S
H1806 C1812 0.950 . S
H1807 C1813 0.950 . S
H1808 C1814 0.949 . S
C1809 H1804 0.950 . S
C1809 C1811 1.327 . S
C1809 C1815 1.429 . S
C1810 C1802 1.574 . S
C1810 H1805 0.949 . S
C1810 C1816 1.368 . S
C1811 C1795 1.349 . S
C1811 H1803 0.950 . S
C1811 C1809 1.327 . S
C1812 C1800 1.349 . S
C1812 H1806 0.950 . S
C1812 C1813 1.327 . S
C1813 H1807 0.950 . S
C1813 C1812 1.327 . S
C1813 C1817 1.429 . S
C1814 C1797 1.574 . S
C1814 H1808 0.949 . S
C1814 C1818 1.368 . S
C1815 C1796 1.429 . S
C1815 C1809 1.429 . S
C1815 C1816 1.523 . S
C1816 C1797 1.368 . S
C1816 C1810 1.368 . S
C1816 C1815 1.523 . S
C1817 C1801 1.429 . S
C1817 C1813 1.429 . S
C1817 C1818 1.523 . S
C1818 C1802 1.368 . S
C1818 C1814 1.368 . S
C1818 C1817 1.523 . S
H1819 C1794 0.950 . S
H1820 C1796 0.950 . S
H1821 C1797 0.949 . S
H1822 C1799 0.950 . S
H1823 C1801 0.950 . S
C1824 C1825 1.349 . S
C1824 C1826 1.327 . S
C1824 H1849 0.950 . S
C1825 C1824 1.349 . S
C1825 C1841 1.349 . S
C1826 C1824 1.327 . S
C1826 C1845 1.429 . S
C1826 H1850 0.950 . S
C1827 C1844 1.574 . S
C1827 C1846 1.368 . S
C1827 H1851 0.949 . S
H1828 C1832 0.949 . S
C1829 C1830 1.349 . S
C1829 C1831 1.327 . S
C1829 H1852 0.950 . S
C1830 C1829 1.349 . S
C1830 C1842 1.349 . S
C1831 C1829 1.327 . S
C1831 C1847 1.429 . S
C1831 H1853 0.950 . S
C1832 H1828 0.949 . S
C1832 C1840 1.574 . S
C1832 C1848 1.368 . S
H1833 C1841 0.950 . S
H1834 C1839 0.950 . S
H1835 C1840 0.949 . S
H1836 C1842 0.950 . S
H1837 C1843 0.950 . S
H1838 C1844 0.949 . S
C1839 H1834 0.950 . S
C1839 C1841 1.327 . S
C1839 C1845 1.429 . S
C1840 C1832 1.574 . S
C1840 H1835 0.949 . S
C1840 C1846 1.368 . S
C1841 C1825 1.349 . S
C1841 H1833 0.950 . S
C1841 C1839 1.327 . S
C1842 C1830 1.349 . S
C1842 H1836 0.950 . S
C1842 C1843 1.327 . S
C1843 H1837 0.950 . S
C1843 C1842 1.327 . S
C1843 C1847 1.429 . S
C1844 C1827 1.574 . S
C1844 H1838 0.949 . S
C1844 C1848 1.368 . S
C1845 C1826 1.429 . S
C1845 C1839 1.429 . S
C1845 C1846 1.523 . S
C1846 C1827 1.368 . S
C1846 C1840 1.368 . S
C1846 C1845 1.523 . S
C1847 C1831 1.429 . S
C1847 C1843 1.429 . S
C1847 C1848 1.523 . S
C1848 C1832 1.368 . S
C1848 C1844 1.368 . S
C1848 C1847 1.523 . S
H1849 C1824 0.950 . S
H1850 C1826 0.950 . S
H1851 C1827 0.949 . S
H1852 C1829 0.950 . S
H1853 C1831 0.950 . S
C1854 C1855 1.349 . S
C1854 C1856 1.327 . S
C1854 H1879 0.950 1_554 S
C1855 C1854 1.349 . S
C1855 C1871 1.349 . S
C1856 C1854 1.327 . S
C1856 C1875 1.429 . S
C1856 H1880 0.950 . S
C1857 C1874 1.574 . S
C1857 C1876 1.368 . S
C1857 H1881 0.949 . S
H1858 C1862 0.949 . S
C1859 C1860 1.349 . S
C1859 C1861 1.327 . S
C1859 H1882 0.950 . S
C1860 C1859 1.349 . S
C1860 C1872 1.349 . S
C1861 C1859 1.327 . S
C1861 C1877 1.429 . S
C1861 H1883 0.950 . S
C1862 H1858 0.949 . S
C1862 C1870 1.574 . S
C1862 C1878 1.368 . S
H1863 C1871 0.950 . S
H1864 C1869 0.950 . S
H1865 C1870 0.949 . S
H1866 C1872 0.950 . S
H1867 C1873 0.950 . S
H1868 C1874 0.949 . S
C1869 H1864 0.950 . S
C1869 C1871 1.327 . S
C1869 C1875 1.429 . S
C1870 C1862 1.574 . S
C1870 H1865 0.949 . S
C1870 C1876 1.368 . S
C1871 C1855 1.349 . S
C1871 H1863 0.950 . S
C1871 C1869 1.327 . S
C1872 C1860 1.349 . S
C1872 H1866 0.950 . S
C1872 C1873 1.327 . S
C1873 H1867 0.950 . S
C1873 C1872 1.327 . S
C1873 C1877 1.429 . S
C1874 C1857 1.574 . S
C1874 H1868 0.949 . S
C1874 C1878 1.368 . S
C1875 C1856 1.429 . S
C1875 C1869 1.429 . S
C1875 C1876 1.523 . S
C1876 C1857 1.368 . S
C1876 C1870 1.368 . S
C1876 C1875 1.523 . S
C1877 C1861 1.429 . S
C1877 C1873 1.429 . S
C1877 C1878 1.523 . S
C1878 C1862 1.368 . S
C1878 C1874 1.368 . S
C1878 C1877 1.523 . S
H1879 C1854 0.950 1_556 S
H1880 C1856 0.950 . S
H1881 C1857 0.949 . S
H1882 C1859 0.950 . S
H1883 C1861 0.950 . S
C1884 C1885 1.349 . S
C1884 C1886 1.327 . S
C1884 H1909 0.950 . S
C1885 C1884 1.349 . S
C1885 C1901 1.349 . S
C1886 C1884 1.327 . S
C1886 C1905 1.429 . S
C1886 H1910 0.950 . S
C1887 C1904 1.574 . S
C1887 C1906 1.368 . S
C1887 H1911 0.949 . S
H1888 C1892 0.949 . S
C1889 C1890 1.349 . S
C1889 C1891 1.327 . S
C1889 H1912 0.950 1_554 S
C1890 C1889 1.349 . S
C1890 C1902 1.349 . S
C1891 C1889 1.327 . S
C1891 C1907 1.429 . S
C1891 H1913 0.950 . S
C1892 H1888 0.949 . S
C1892 C1900 1.574 . S
C1892 C1908 1.368 . S
H1893 C1901 0.950 . S
H1894 C1899 0.950 . S
H1895 C1900 0.949 . S
H1896 C1902 0.950 . S
H1897 C1903 0.950 . S
H1898 C1904 0.949 . S
C1899 H1894 0.950 . S
C1899 C1901 1.327 . S
C1899 C1905 1.429 . S
C1900 C1892 1.574 . S
C1900 H1895 0.949 . S
C1900 C1906 1.368 . S
C1901 C1885 1.349 . S
C1901 H1893 0.950 . S
C1901 C1899 1.327 . S
C1902 C1890 1.349 . S
C1902 H1896 0.950 . S
C1902 C1903 1.327 . S
C1903 H1897 0.950 . S
C1903 C1902 1.327 . S
C1903 C1907 1.429 . S
C1904 C1887 1.574 . S
C1904 H1898 0.949 . S
C1904 C1908 1.368 . S
C1905 C1886 1.429 . S
C1905 C1899 1.429 . S
C1905 C1906 1.523 . S
C1906 C1887 1.368 . S
C1906 C1900 1.368 . S
C1906 C1905 1.523 . S
C1907 C1891 1.429 . S
C1907 C1903 1.429 . S
C1907 C1908 1.523 . S
C1908 C1892 1.368 . S
C1908 C1904 1.368 . S
C1908 C1907 1.523 . S
H1909 C1884 0.950 . S
H1910 C1886 0.950 . S
H1911 C1887 0.949 . S
H1912 C1889 0.950 1_556 S
H1913 C1891 0.950 . S
C1914 C1915 1.349 . S
C1914 C1916 1.327 . S
C1914 H1939 0.950 1_554 S
C1915 C1914 1.349 . S
C1915 C1931 1.349 . S
C1916 C1914 1.327 . S
C1916 C1935 1.429 . S
C1916 H1940 0.950 . S
C1917 C1934 1.574 . S
C1917 C1936 1.368 . S
C1917 H1941 0.949 . S
H1918 C1922 0.949 . S
C1919 C1920 1.349 . S
C1919 C1921 1.327 . S
C1919 H1942 0.950 . S
C1920 C1919 1.349 . S
C1920 C1932 1.349 . S
C1921 C1919 1.327 . S
C1921 C1937 1.429 . S
C1921 H1943 0.950 . S
C1922 H1918 0.949 . S
C1922 C1930 1.574 . S
C1922 C1938 1.368 . S
H1923 C1931 0.950 . S
H1924 C1929 0.950 . S
H1925 C1930 0.949 . S
H1926 C1932 0.950 . S
H1927 C1933 0.950 . S
H1928 C1934 0.949 . S
C1929 H1924 0.950 . S
C1929 C1931 1.327 . S
C1929 C1935 1.429 . S
C1930 C1922 1.574 . S
C1930 H1925 0.949 . S
C1930 C1936 1.368 . S
C1931 C1915 1.349 . S
C1931 H1923 0.950 . S
C1931 C1929 1.327 . S
C1932 C1920 1.349 . S
C1932 H1926 0.950 . S
C1932 C1933 1.327 . S
C1933 H1927 0.950 . S
C1933 C1932 1.327 . S
C1933 C1937 1.429 . S
C1934 C1917 1.574 . S
C1934 H1928 0.949 . S
C1934 C1938 1.368 . S
C1935 C1916 1.429 . S
C1935 C1929 1.429 . S
C1935 C1936 1.523 . S
C1936 C1917 1.368 . S
C1936 C1930 1.368 . S
C1936 C1935 1.523 . S
C1937 C1921 1.429 . S
C1937 C1933 1.429 . S
C1937 C1938 1.523 . S
C1938 C1922 1.368 . S
C1938 C1934 1.368 . S
C1938 C1937 1.523 . S
H1939 C1914 0.950 1_556 S
H1940 C1916 0.950 . S
H1941 C1917 0.949 . S
H1942 C1919 0.950 . S
H1943 C1921 0.950 . S
C1944 C1945 1.349 . S
C1944 C1946 1.327 . S
C1944 H1969 0.950 . S
C1945 C1944 1.349 . S
C1945 C1961 1.349 . S
C1946 C1944 1.327 . S
C1946 C1965 1.429 . S
C1946 H1970 0.950 . S
C1947 C1964 1.574 . S
C1947 C1966 1.368 . S
C1947 H1971 0.949 . S
H1948 C1952 0.949 . S
C1949 C1950 1.349 . S
C1949 C1951 1.327 . S
C1949 H1972 0.950 . S
C1950 C1949 1.349 . S
C1950 C1962 1.349 . S
C1951 C1949 1.327 . S
C1951 C1967 1.429 . S
C1951 H1973 0.950 . S
C1952 H1948 0.949 . S
C1952 C1960 1.574 . S
C1952 C1968 1.368 . S
H1953 C1961 0.950 . S
H1954 C1959 0.950 . S
H1955 C1960 0.949 . S
H1956 C1962 0.950 . S
H1957 C1963 0.950 . S
H1958 C1964 0.949 . S
C1959 H1954 0.950 . S
C1959 C1961 1.327 . S
C1959 C1965 1.429 . S
C1960 C1952 1.574 . S
C1960 H1955 0.949 . S
C1960 C1966 1.368 . S
C1961 C1945 1.349 . S
C1961 H1953 0.950 . S
C1961 C1959 1.327 . S
C1962 C1950 1.349 . S
C1962 H1956 0.950 . S
C1962 C1963 1.327 . S
C1963 H1957 0.950 . S
C1963 C1962 1.327 . S
C1963 C1967 1.429 . S
C1964 C1947 1.574 . S
C1964 H1958 0.949 . S
C1964 C1968 1.368 . S
C1965 C1946 1.429 . S
C1965 C1959 1.429 . S
C1965 C1966 1.523 . S
C1966 C1947 1.368 . S
C1966 C1960 1.368 . S
C1966 C1965 1.523 . S
C1967 C1951 1.429 . S
C1967 C1963 1.429 . S
C1967 C1968 1.523 . S
C1968 C1952 1.368 . S
C1968 C1964 1.368 . S
C1968 C1967 1.523 . S
H1969 C1944 0.950 . S
H1970 C1946 0.950 . S
H1971 C1947 0.949 . S
H1972 C1949 0.950 . S
H1973 C1951 0.950 . S
C1974 C1975 1.349 . S
C1974 C1976 1.327 . S
C1974 H1999 0.950 . S
C1975 C1974 1.349 . S
C1975 C1991 1.349 . S
C1976 C1974 1.327 . S
C1976 C1995 1.429 . S
C1976 H2000 0.950 . S
C1977 C1994 1.574 . S
C1977 C1996 1.368 . S
C1977 H2001 0.949 . S
H1978 C1982 0.949 . S
C1979 C1980 1.349 . S
C1979 C1981 1.327 . S
C1979 H2002 0.950 . S
C1980 C1979 1.349 . S
C1980 C1992 1.349 . S
C1981 C1979 1.327 . S
C1981 C1997 1.429 . S
C1981 H2003 0.950 . S
C1982 H1978 0.949 . S
C1982 C1990 1.574 . S
C1982 C1998 1.368 . S
H1983 C1991 0.950 . S
H1984 C1989 0.950 . S
H1985 C1990 0.949 . S
H1986 C1992 0.950 . S
H1987 C1993 0.950 . S
H1988 C1994 0.949 . S
C1989 H1984 0.950 . S
C1989 C1991 1.327 . S
C1989 C1995 1.429 . S
C1990 C1982 1.574 . S
C1990 H1985 0.949 . S
C1990 C1996 1.368 . S
C1991 C1975 1.349 . S
C1991 H1983 0.950 . S
C1991 C1989 1.327 . S
C1992 C1980 1.349 . S
C1992 H1986 0.950 . S
C1992 C1993 1.327 . S
C1993 H1987 0.950 . S
C1993 C1992 1.327 . S
C1993 C1997 1.429 . S
C1994 C1977 1.574 . S
C1994 H1988 0.949 . S
C1994 C1998 1.368 . S
C1995 C1976 1.429 . S
C1995 C1989 1.429 . S
C1995 C1996 1.523 . S
C1996 C1977 1.368 . S
C1996 C1990 1.368 . S
C1996 C1995 1.523 . S
C1997 C1981 1.429 . S
C1997 C1993 1.429 . S
C1997 C1998 1.523 . S
C1998 C1982 1.368 . S
C1998 C1994 1.368 . S
C1998 C1997 1.523 . S
H1999 C1974 0.950 . S
H2000 C1976 0.950 . S
H2001 C1977 0.949 . S
H2002 C1979 0.950 . S
H2003 C1981 0.950 . S
C2004 C2005 1.349 . S
C2004 C2006 1.327 . S
C2004 H2029 0.950 . S
C2005 C2004 1.349 . S
C2005 C2021 1.349 . S
C2006 C2004 1.327 . S
C2006 C2025 1.429 . S
C2006 H2030 0.950 . S
C2007 C2024 1.574 . S
C2007 C2026 1.368 . S
C2007 H2031 0.949 . S
H2008 C2012 0.949 . S
C2009 C2010 1.349 . S
C2009 C2011 1.327 . S
C2009 H2032 0.950 . S
C2010 C2009 1.349 . S
C2010 C2022 1.349 . S
C2011 C2009 1.327 . S
C2011 C2027 1.429 . S
C2011 H2033 0.950 . S
C2012 H2008 0.949 . S
C2012 C2020 1.574 . S
C2012 C2028 1.368 . S
H2013 C2021 0.950 . S
H2014 C2019 0.950 . S
H2015 C2020 0.949 . S
H2016 C2022 0.950 . S
H2017 C2023 0.950 . S
H2018 C2024 0.949 . S
C2019 H2014 0.950 . S
C2019 C2021 1.327 . S
C2019 C2025 1.429 . S
C2020 C2012 1.574 . S
C2020 H2015 0.949 . S
C2020 C2026 1.368 . S
C2021 C2005 1.349 . S
C2021 H2013 0.950 . S
C2021 C2019 1.327 . S
C2022 C2010 1.349 . S
C2022 H2016 0.950 . S
C2022 C2023 1.327 . S
C2023 H2017 0.950 . S
C2023 C2022 1.327 . S
C2023 C2027 1.429 . S
C2024 C2007 1.574 . S
C2024 H2018 0.949 . S
C2024 C2028 1.368 . S
C2025 C2006 1.429 . S
C2025 C2019 1.429 . S
C2025 C2026 1.523 . S
C2026 C2007 1.368 . S
C2026 C2020 1.368 . S
C2026 C2025 1.523 . S
C2027 C2011 1.429 . S
C2027 C2023 1.429 . S
C2027 C2028 1.523 . S
C2028 C2012 1.368 . S
C2028 C2024 1.368 . S
C2028 C2027 1.523 . S
H2029 C2004 0.950 . S
H2030 C2006 0.950 . S
H2031 C2007 0.949 . S
H2032 C2009 0.950 . S
H2033 C2011 0.950 . S
C2034 C2035 1.349 . S
C2034 C2036 1.327 . S
C2034 H2059 0.950 . S
C2035 C2034 1.349 . S
C2035 C2051 1.349 . S
C2036 C2034 1.327 . S
C2036 C2055 1.429 . S
C2036 H2060 0.950 . S
C2037 C2054 1.574 . S
C2037 C2056 1.368 . S
C2037 H2061 0.949 . S
H2038 C2042 0.949 . S
C2039 C2040 1.349 . S
C2039 C2041 1.327 . S
C2039 H2062 0.950 . S
C2040 C2039 1.349 . S
C2040 C2052 1.349 . S
C2041 C2039 1.327 . S
C2041 C2057 1.429 . S
C2041 H2063 0.950 . S
C2042 H2038 0.949 . S
C2042 C2050 1.574 . S
C2042 C2058 1.368 . S
H2043 C2051 0.950 . S
H2044 C2049 0.950 . S
H2045 C2050 0.949 . S
H2046 C2052 0.950 . S
H2047 C2053 0.950 . S
H2048 C2054 0.949 . S
C2049 H2044 0.950 . S
C2049 C2051 1.327 . S
C2049 C2055 1.429 . S
C2050 C2042 1.574 . S
C2050 H2045 0.949 . S
C2050 C2056 1.368 . S
C2051 C2035 1.349 . S
C2051 H2043 0.950 . S
C2051 C2049 1.327 . S
C2052 C2040 1.349 . S
C2052 H2046 0.950 . S
C2052 C2053 1.327 . S
C2053 H2047 0.950 . S
C2053 C2052 1.327 . S
C2053 C2057 1.429 . S
C2054 C2037 1.574 . S
C2054 H2048 0.949 . S
C2054 C2058 1.368 . S
C2055 C2036 1.429 . S
C2055 C2049 1.429 . S
C2055 C2056 1.523 . S
C2056 C2037 1.368 . S
C2056 C2050 1.368 . S
C2056 C2055 1.523 . S
C2057 C2041 1.429 . S
C2057 C2053 1.429 . S
C2057 C2058 1.523 . S
C2058 C2042 1.368 . S
C2058 C2054 1.368 . S
C2058 C2057 1.523 . S
H2059 C2034 0.950 . S
H2060 C2036 0.950 . S
H2061 C2037 0.949 . S
H2062 C2039 0.950 . S
H2063 C2041 0.950 . S
C2064 C2065 1.349 . S
C2064 C2066 1.327 . S
C2064 H2089 0.950 . S
C2065 C2064 1.349 . S
C2065 C2081 1.349 . S
C2066 C2064 1.327 . S
C2066 C2085 1.429 . S
C2066 H2090 0.950 . S
C2067 C2084 1.574 . S
C2067 C2086 1.368 . S
C2067 H2091 0.949 . S
H2068 C2072 0.949 . S
C2069 C2070 1.349 . S
C2069 C2071 1.327 . S
C2069 H2092 0.950 . S
C2070 C2069 1.349 . S
C2070 C2082 1.349 . S
C2071 C2069 1.327 . S
C2071 C2087 1.429 . S
C2071 H2093 0.950 . S
C2072 H2068 0.949 . S
C2072 C2080 1.574 . S
C2072 C2088 1.368 . S
H2073 C2081 0.950 . S
H2074 C2079 0.950 . S
H2075 C2080 0.949 . S
H2076 C2082 0.950 . S
H2077 C2083 0.950 . S
H2078 C2084 0.949 . S
C2079 H2074 0.950 . S
C2079 C2081 1.327 . S
C2079 C2085 1.429 . S
C2080 C2072 1.574 . S
C2080 H2075 0.949 . S
C2080 C2086 1.368 . S
C2081 C2065 1.349 . S
C2081 H2073 0.950 . S
C2081 C2079 1.327 . S
C2082 C2070 1.349 . S
C2082 H2076 0.950 . S
C2082 C2083 1.327 . S
C2083 H2077 0.950 . S
C2083 C2082 1.327 . S
C2083 C2087 1.429 . S
C2084 C2067 1.574 . S
C2084 H2078 0.949 . S
C2084 C2088 1.368 . S
C2085 C2066 1.429 . S
C2085 C2079 1.429 . S
C2085 C2086 1.523 . S
C2086 C2067 1.368 . S
C2086 C2080 1.368 . S
C2086 C2085 1.523 . S
C2087 C2071 1.429 . S
C2087 C2083 1.429 . S
C2087 C2088 1.523 . S
C2088 C2072 1.368 . S
C2088 C2084 1.368 . S
C2088 C2087 1.523 . S
H2089 C2064 0.950 . S
H2090 C2066 0.950 . S
H2091 C2067 0.949 . S
H2092 C2069 0.950 . S
H2093 C2071 0.950 . S
C2094 C2095 1.349 . S
C2094 C2096 1.327 . S
C2094 H2119 0.950 . S
C2095 C2094 1.349 . S
C2095 C2111 1.349 . S
C2096 C2094 1.327 . S
C2096 C2115 1.429 . S
C2096 H2120 0.950 . S
C2097 C2114 1.574 . S
C2097 C2116 1.368 . S
C2097 H2121 0.949 . S
H2098 C2102 0.949 . S
C2099 C2100 1.349 . S
C2099 C2101 1.327 . S
C2099 H2122 0.950 . S
C2100 C2099 1.349 . S
C2100 C2112 1.349 . S
C2101 C2099 1.327 . S
C2101 C2117 1.429 . S
C2101 H2123 0.950 . S
C2102 H2098 0.949 . S
C2102 C2110 1.574 . S
C2102 C2118 1.368 . S
H2103 C2111 0.950 . S
H2104 C2109 0.950 . S
H2105 C2110 0.949 . S
H2106 C2112 0.950 . S
H2107 C2113 0.950 . S
H2108 C2114 0.949 . S
C2109 H2104 0.950 . S
C2109 C2111 1.327 . S
C2109 C2115 1.429 . S
C2110 C2102 1.574 . S
C2110 H2105 0.949 . S
C2110 C2116 1.368 . S
C2111 C2095 1.349 . S
C2111 H2103 0.950 . S
C2111 C2109 1.327 . S
C2112 C2100 1.349 . S
C2112 H2106 0.950 . S
C2112 C2113 1.327 . S
C2113 H2107 0.950 . S
C2113 C2112 1.327 . S
C2113 C2117 1.429 . S
C2114 C2097 1.574 . S
C2114 H2108 0.949 . S
C2114 C2118 1.368 . S
C2115 C2096 1.429 . S
C2115 C2109 1.429 . S
C2115 C2116 1.523 . S
C2116 C2097 1.368 . S
C2116 C2110 1.368 . S
C2116 C2115 1.523 . S
C2117 C2101 1.429 . S
C2117 C2113 1.429 . S
C2117 C2118 1.523 . S
C2118 C2102 1.368 . S
C2118 C2114 1.368 . S
C2118 C2117 1.523 . S
H2119 C2094 0.950 . S
H2120 C2096 0.950 . S
H2121 C2097 0.949 . S
H2122 C2099 0.950 . S
H2123 C2101 0.950 . S
C2124 C2125 1.349 . S
C2124 C2126 1.327 . S
C2124 H2149 0.950 . S
C2125 C2124 1.349 . S
C2125 C2141 1.349 1_556 S
C2126 C2124 1.327 . S
C2126 C2145 1.429 1_556 S
C2126 H2150 0.950 . S
C2127 C2144 1.574 . S
C2127 C2146 1.368 . S
C2127 H2151 0.949 . S
H2128 C2132 0.949 . S
C2129 C2130 1.349 . S
C2129 C2131 1.327 . S
C2129 H2152 0.950 . S
C2130 C2129 1.349 . S
C2130 C2142 1.349 . S
C2131 C2129 1.327 . S
C2131 C2147 1.429 . S
C2131 H2153 0.950 . S
C2132 H2128 0.949 . S
C2132 C2140 1.574 . S
C2132 C2148 1.368 . S
H2133 C2141 0.950 . S
H2134 C2139 0.950 . S
H2135 C2140 0.949 . S
H2136 C2142 0.950 . S
H2137 C2143 0.950 . S
H2138 C2144 0.949 . S
C2139 H2134 0.950 . S
C2139 C2141 1.327 . S
C2139 C2145 1.429 . S
C2140 C2132 1.574 . S
C2140 H2135 0.949 . S
C2140 C2146 1.368 . S
C2141 C2125 1.349 1_554 S
C2141 H2133 0.950 . S
C2141 C2139 1.327 . S
C2142 C2130 1.349 . S
C2142 H2136 0.950 . S
C2142 C2143 1.327 . S
C2143 H2137 0.950 . S
C2143 C2142 1.327 . S
C2143 C2147 1.429 . S
C2144 C2127 1.574 . S
C2144 H2138 0.949 . S
C2144 C2148 1.368 . S
C2145 C2126 1.429 1_554 S
C2145 C2139 1.429 . S
C2145 C2146 1.523 . S
C2146 C2127 1.368 . S
C2146 C2140 1.368 . S
C2146 C2145 1.523 . S
C2147 C2131 1.429 . S
C2147 C2143 1.429 . S
C2147 C2148 1.523 . S
C2148 C2132 1.368 . S
C2148 C2144 1.368 . S
C2148 C2147 1.523 . S
H2149 C2124 0.950 . S
H2150 C2126 0.950 . S
H2151 C2127 0.949 . S
H2152 C2129 0.950 . S
H2153 C2131 0.950 . S
C2154 C2155 1.349 . S
C2154 C2156 1.327 . S
C2154 H2179 0.950 . S
C2155 C2154 1.349 . S
C2155 C2171 1.349 . S
C2156 C2154 1.327 . S
C2156 C2175 1.429 . S
C2156 H2180 0.950 . S
C2157 C2174 1.574 . S
C2157 C2176 1.368 . S
C2157 H2181 0.949 . S
H2158 C2162 0.949 . S
C2159 C2160 1.349 1_554 S
C2159 C2161 1.327 . S
C2159 H2182 0.950 1_554 S
C2160 C2159 1.349 1_556 S
C2160 C2172 1.349 . S
C2161 C2159 1.327 . S
C2161 C2177 1.429 . S
C2161 H2183 0.950 . S
C2162 H2158 0.949 . S
C2162 C2170 1.574 . S
C2162 C2178 1.368 . S
H2163 C2171 0.950 . S
H2164 C2169 0.950 . S
H2165 C2170 0.949 . S
H2166 C2172 0.950 . S
H2167 C2173 0.950 . S
H2168 C2174 0.949 . S
C2169 H2164 0.950 . S
C2169 C2171 1.327 . S
C2169 C2175 1.429 . S
C2170 C2162 1.574 . S
C2170 H2165 0.949 . S
C2170 C2176 1.368 . S
C2171 C2155 1.349 . S
C2171 H2163 0.950 . S
C2171 C2169 1.327 . S
C2172 C2160 1.349 . S
C2172 H2166 0.950 . S
C2172 C2173 1.327 1_556 S
C2173 H2167 0.950 . S
C2173 C2172 1.327 1_554 S
C2173 C2177 1.429 . S
C2174 C2157 1.574 . S
C2174 H2168 0.949 . S
C2174 C2178 1.368 . S
C2175 C2156 1.429 . S
C2175 C2169 1.429 . S
C2175 C2176 1.523 . S
C2176 C2157 1.368 . S
C2176 C2170 1.368 . S
C2176 C2175 1.523 . S
C2177 C2161 1.429 . S
C2177 C2173 1.429 . S
C2177 C2178 1.523 . S
C2178 C2162 1.368 . S
C2178 C2174 1.368 . S
C2178 C2177 1.523 . S
H2179 C2154 0.950 . S
H2180 C2156 0.950 . S
H2181 C2157 0.949 . S
H2182 C2159 0.950 1_556 S
H2183 C2161 0.950 . S
C2184 C2185 1.349 . S
C2184 C2186 1.327 . S
C2184 H2209 0.950 . S
C2185 C2184 1.349 . S
C2185 C2201 1.349 1_556 S
C2186 C2184 1.327 . S
C2186 C2205 1.429 1_556 S
C2186 H2210 0.950 . S
C2187 C2204 1.574 . S
C2187 C2206 1.368 . S
C2187 H2211 0.949 . S
H2188 C2192 0.949 . S
C2189 C2190 1.349 . S
C2189 C2191 1.327 . S
C2189 H2212 0.950 . S
C2190 C2189 1.349 . S
C2190 C2202 1.349 . S
C2191 C2189 1.327 . S
C2191 C2207 1.429 . S
C2191 H2213 0.950 . S
C2192 H2188 0.949 . S
C2192 C2200 1.574 . S
C2192 C2208 1.368 . S
H2193 C2201 0.950 . S
H2194 C2199 0.950 . S
H2195 C2200 0.949 . S
H2196 C2202 0.950 . S
H2197 C2203 0.950 . S
H2198 C2204 0.949 . S
C2199 H2194 0.950 . S
C2199 C2201 1.327 . S
C2199 C2205 1.429 . S
C2200 C2192 1.574 . S
C2200 H2195 0.949 . S
C2200 C2206 1.368 . S
C2201 C2185 1.349 1_554 S
C2201 H2193 0.950 . S
C2201 C2199 1.327 . S
C2202 C2190 1.349 . S
C2202 H2196 0.950 . S
C2202 C2203 1.327 . S
C2203 H2197 0.950 . S
C2203 C2202 1.327 . S
C2203 C2207 1.429 . S
C2204 C2187 1.574 . S
C2204 H2198 0.949 . S
C2204 C2208 1.368 . S
C2205 C2186 1.429 1_554 S
C2205 C2199 1.429 . S
C2205 C2206 1.523 . S
C2206 C2187 1.368 . S
C2206 C2200 1.368 . S
C2206 C2205 1.523 . S
C2207 C2191 1.429 . S
C2207 C2203 1.429 . S
C2207 C2208 1.523 . S
C2208 C2192 1.368 . S
C2208 C2204 1.368 . S
C2208 C2207 1.523 . S
H2209 C2184 0.950 . S
H2210 C2186 0.950 . S
H2211 C2187 0.949 . S
H2212 C2189 0.950 . S
H2213 C2191 0.950 . S
C2214 C2215 1.349 . S
C2214 C2216 1.327 . S
C2214 H2239 0.950 . S
C2215 C2214 1.349 . S
C2215 C2231 1.349 . S
C2216 C2214 1.327 . S
C2216 C2235 1.429 . S
C2216 H2240 0.950 . S
C2217 C2234 1.574 . S
C2217 C2236 1.368 . S
C2217 H2241 0.949 . S
H2218 C2222 0.949 . S
C2219 C2220 1.349 . S
C2219 C2221 1.327 . S
C2219 H2242 0.950 . S
C2220 C2219 1.349 . S
C2220 C2232 1.349 . S
C2221 C2219 1.327 . S
C2221 C2237 1.429 . S
C2221 H2243 0.950 . S
C2222 H2218 0.949 . S
C2222 C2230 1.574 . S
C2222 C2238 1.368 . S
H2223 C2231 0.950 . S
H2224 C2229 0.950 . S
H2225 C2230 0.949 . S
H2226 C2232 0.950 . S
H2227 C2233 0.950 . S
H2228 C2234 0.949 . S
C2229 H2224 0.950 . S
C2229 C2231 1.327 . S
C2229 C2235 1.429 . S
C2230 C2222 1.574 . S
C2230 H2225 0.949 . S
C2230 C2236 1.368 . S
C2231 C2215 1.349 . S
C2231 H2223 0.950 . S
C2231 C2229 1.327 . S
C2232 C2220 1.349 . S
C2232 H2226 0.950 . S
C2232 C2233 1.327 . S
C2233 H2227 0.950 . S
C2233 C2232 1.327 . S
C2233 C2237 1.429 . S
C2234 C2217 1.574 . S
C2234 H2228 0.949 . S
C2234 C2238 1.368 . S
C2235 C2216 1.429 . S
C2235 C2229 1.429 . S
C2235 C2236 1.523 . S
C2236 C2217 1.368 . S
C2236 C2230 1.368 . S
C2236 C2235 1.523 . S
C2237 C2221 1.429 . S
C2237 C2233 1.429 . S
C2237 C2238 1.523 . S
C2238 C2222 1.368 . S
C2238 C2234 1.368 . S
C2238 C2237 1.523 . S
H2239 C2214 0.950 . S
H2240 C2216 0.950 . S
H2241 C2217 0.949 . S
H2242 C2219 0.950 . S
H2243 C2221 0.950 . S
C2244 C2245 1.349 . S
C2244 C2246 1.327 . S
C2244 H2269 0.950 . S
C2245 C2244 1.349 . S
C2245 C2261 1.349 . S
C2246 C2244 1.327 . S
C2246 C2265 1.429 . S
C2246 H2270 0.950 . S
C2247 C2264 1.574 . S
C2247 C2266 1.368 . S
C2247 H2271 0.949 . S
H2248 C2252 0.949 . S
C2249 C2250 1.349 . S
C2249 C2251 1.327 . S
C2249 H2272 0.950 . S
C2250 C2249 1.349 . S
C2250 C2262 1.349 . S
C2251 C2249 1.327 . S
C2251 C2267 1.429 . S
C2251 H2273 0.950 . S
C2252 H2248 0.949 . S
C2252 C2260 1.574 . S
C2252 C2268 1.368 . S
H2253 C2261 0.950 . S
H2254 C2259 0.950 . S
H2255 C2260 0.949 . S
H2256 C2262 0.950 . S
H2257 C2263 0.950 . S
H2258 C2264 0.949 . S
C2259 H2254 0.950 . S
C2259 C2261 1.327 . S
C2259 C2265 1.429 . S
C2260 C2252 1.574 . S
C2260 H2255 0.949 . S
C2260 C2266 1.368 . S
C2261 C2245 1.349 . S
C2261 H2253 0.950 . S
C2261 C2259 1.327 . S
C2262 C2250 1.349 . S
C2262 H2256 0.950 . S
C2262 C2263 1.327 . S
C2263 H2257 0.950 . S
C2263 C2262 1.327 . S
C2263 C2267 1.429 . S
C2264 C2247 1.574 . S
C2264 H2258 0.949 . S
C2264 C2268 1.368 . S
C2265 C2246 1.429 . S
C2265 C2259 1.429 . S
C2265 C2266 1.523 . S
C2266 C2247 1.368 . S
C2266 C2260 1.368 . S
C2266 C2265 1.523 . S
C2267 C2251 1.429 . S
C2267 C2263 1.429 . S
C2267 C2268 1.523 . S
C2268 C2252 1.368 . S
C2268 C2264 1.368 . S
C2268 C2267 1.523 . S
H2269 C2244 0.950 . S
H2270 C2246 0.950 . S
H2271 C2247 0.949 . S
H2272 C2249 0.950 . S
H2273 C2251 0.950 . S
C2274 C2275 1.349 . S
C2274 C2276 1.327 . S
C2274 H2299 0.950 . S
C2275 C2274 1.349 . S
C2275 C2291 1.349 . S
C2276 C2274 1.327 . S
C2276 C2295 1.429 . S
C2276 H2300 0.950 . S
C2277 C2294 1.574 . S
C2277 C2296 1.368 . S
C2277 H2301 0.949 . S
H2278 C2282 0.949 . S
C2279 C2280 1.349 . S
C2279 C2281 1.327 . S
C2279 H2302 0.950 . S
C2280 C2279 1.349 . S
C2280 C2292 1.349 . S
C2281 C2279 1.327 . S
C2281 C2297 1.429 . S
C2281 H2303 0.950 . S
C2282 H2278 0.949 . S
C2282 C2290 1.574 . S
C2282 C2298 1.368 . S
H2283 C2291 0.950 . S
H2284 C2289 0.950 . S
H2285 C2290 0.949 . S
H2286 C2292 0.950 . S
H2287 C2293 0.950 . S
H2288 C2294 0.949 . S
C2289 H2284 0.950 . S
C2289 C2291 1.327 . S
C2289 C2295 1.429 . S
C2290 C2282 1.574 . S
C2290 H2285 0.949 . S
C2290 C2296 1.368 . S
C2291 C2275 1.349 . S
C2291 H2283 0.950 . S
C2291 C2289 1.327 . S
C2292 C2280 1.349 . S
C2292 H2286 0.950 . S
C2292 C2293 1.327 . S
C2293 H2287 0.950 . S
C2293 C2292 1.327 . S
C2293 C2297 1.429 . S
C2294 C2277 1.574 . S
C2294 H2288 0.949 . S
C2294 C2298 1.368 . S
C2295 C2276 1.429 . S
C2295 C2289 1.429 . S
C2295 C2296 1.523 . S
C2296 C2277 1.368 . S
C2296 C2290 1.368 . S
C2296 C2295 1.523 . S
C2297 C2281 1.429 . S
C2297 C2293 1.429 . S
C2297 C2298 1.523 . S
C2298 C2282 1.368 . S
C2298 C2294 1.368 . S
C2298 C2297 1.523 . S
H2299 C2274 0.950 . S
H2300 C2276 0.950 . S
H2301 C2277 0.949 . S
H2302 C2279 0.950 . S
H2303 C2281 0.950 . S
C2304 C2305 1.349 . S
C2304 C2306 1.327 . S
C2304 H2329 0.950 . S
C2305 C2304 1.349 . S
C2305 C2321 1.349 . S
C2306 C2304 1.327 . S
C2306 C2325 1.429 . S
C2306 H2330 0.950 . S
C2307 C2324 1.574 . S
C2307 C2326 1.368 . S
C2307 H2331 0.949 . S
H2308 C2312 0.949 . S
C2309 C2310 1.349 1_556 S
C2309 C2311 1.327 . S
C2309 H2332 0.950 . S
C2310 C2309 1.349 1_554 S
C2310 C2322 1.349 . S
C2311 C2309 1.327 . S
C2311 C2327 1.429 . S
C2311 H2333 0.950 . S
C2312 H2308 0.949 . S
C2312 C2320 1.574 . S
C2312 C2328 1.368 . S
H2313 C2321 0.950 . S
H2314 C2319 0.950 . S
H2315 C2320 0.949 . S
H2316 C2322 0.950 . S
H2317 C2323 0.950 . S
H2318 C2324 0.949 . S
C2319 H2314 0.950 . S
C2319 C2321 1.327 . S
C2319 C2325 1.429 . S
C2320 C2312 1.574 . S
C2320 H2315 0.949 . S
C2320 C2326 1.368 . S
C2321 C2305 1.349 . S
C2321 H2313 0.950 . S
C2321 C2319 1.327 . S
C2322 C2310 1.349 . S
C2322 H2316 0.950 . S
C2322 C2323 1.327 . S
C2323 H2317 0.950 . S
C2323 C2322 1.327 . S
C2323 C2327 1.429 1_554 S
C2324 C2307 1.574 . S
C2324 H2318 0.949 . S
C2324 C2328 1.368 . S
C2325 C2306 1.429 . S
C2325 C2319 1.429 . S
C2325 C2326 1.523 . S
C2326 C2307 1.368 . S
C2326 C2320 1.368 . S
C2326 C2325 1.523 . S
C2327 C2311 1.429 . S
C2327 C2323 1.429 1_556 S
C2327 C2328 1.523 . S
C2328 C2312 1.368 . S
C2328 C2324 1.368 . S
C2328 C2327 1.523 . S
H2329 C2304 0.950 . S
H2330 C2306 0.950 . S
H2331 C2307 0.949 . S
H2332 C2309 0.950 . S
H2333 C2311 0.950 . S
C2334 C2335 1.349 . S
C2334 C2336 1.327 . S
C2334 H2359 0.950 . S
C2335 C2334 1.349 . S
C2335 C2351 1.349 1_554 S
C2336 C2334 1.327 . S
C2336 C2355 1.429 1_554 S
C2336 H2360 0.950 . S
C2337 C2354 1.574 . S
C2337 C2356 1.368 . S
C2337 H2361 0.949 . S
H2338 C2342 0.949 . S
C2339 C2340 1.349 . S
C2339 C2341 1.327 . S
C2339 H2362 0.950 . S
C2340 C2339 1.349 . S
C2340 C2352 1.349 . S
C2341 C2339 1.327 . S
C2341 C2357 1.429 . S
C2341 H2363 0.950 . S
C2342 H2338 0.949 . S
C2342 C2350 1.574 . S
C2342 C2358 1.368 . S
H2343 C2351 0.950 . S
H2344 C2349 0.950 . S
H2345 C2350 0.949 . S
H2346 C2352 0.950 . S
H2347 C2353 0.950 . S
H2348 C2354 0.949 . S
C2349 H2344 0.950 . S
C2349 C2351 1.327 . S
C2349 C2355 1.429 . S
C2350 C2342 1.574 . S
C2350 H2345 0.949 . S
C2350 C2356 1.368 . S
C2351 C2335 1.349 1_556 S
C2351 H2343 0.950 . S
C2351 C2349 1.327 . S
C2352 C2340 1.349 . S
C2352 H2346 0.950 . S
C2352 C2353 1.327 . S
C2353 H2347 0.950 . S
C2353 C2352 1.327 . S
C2353 C2357 1.429 . S
C2354 C2337 1.574 . S
C2354 H2348 0.949 . S
C2354 C2358 1.368 . S
C2355 C2336 1.429 1_556 S
C2355 C2349 1.429 . S
C2355 C2356 1.523 . S
C2356 C2337 1.368 . S
C2356 C2350 1.368 . S
C2356 C2355 1.523 . S
C2357 C2341 1.429 . S
C2357 C2353 1.429 . S
C2357 C2358 1.523 . S
C2358 C2342 1.368 . S
C2358 C2354 1.368 . S
C2358 C2357 1.523 . S
H2359 C2334 0.950 . S
H2360 C2336 0.950 . S
H2361 C2337 0.949 . S
H2362 C2339 0.950 . S
H2363 C2341 0.950 . S
C2364 C2365 1.349 . S
C2364 C2366 1.327 . S
C2364 H2389 0.950 . S
C2365 C2364 1.349 . S
C2365 C2381 1.349 . S
C2366 C2364 1.327 . S
C2366 C2385 1.429 . S
C2366 H2390 0.950 . S
C2367 C2384 1.574 . S
C2367 C2386 1.368 . S
C2367 H2391 0.949 . S
H2368 C2372 0.949 . S
C2369 C2370 1.349 1_556 S
C2369 C2371 1.327 . S
C2369 H2392 0.950 . S
C2370 C2369 1.349 1_554 S
C2370 C2382 1.349 . S
C2371 C2369 1.327 . S
C2371 C2387 1.429 . S
C2371 H2393 0.950 . S
C2372 H2368 0.949 . S
C2372 C2380 1.574 . S
C2372 C2388 1.368 . S
H2373 C2381 0.950 . S
H2374 C2379 0.950 . S
H2375 C2380 0.949 . S
H2376 C2382 0.950 . S
H2377 C2383 0.950 . S
H2378 C2384 0.949 . S
C2379 H2374 0.950 . S
C2379 C2381 1.327 . S
C2379 C2385 1.429 . S
C2380 C2372 1.574 . S
C2380 H2375 0.949 . S
C2380 C2386 1.368 . S
C2381 C2365 1.349 . S
C2381 H2373 0.950 . S
C2381 C2379 1.327 . S
C2382 C2370 1.349 . S
C2382 H2376 0.950 . S
C2382 C2383 1.327 . S
C2383 H2377 0.950 . S
C2383 C2382 1.327 . S
C2383 C2387 1.429 1_554 S
C2384 C2367 1.574 . S
C2384 H2378 0.949 . S
C2384 C2388 1.368 . S
C2385 C2366 1.429 . S
C2385 C2379 1.429 . S
C2385 C2386 1.523 . S
C2386 C2367 1.368 . S
C2386 C2380 1.368 . S
C2386 C2385 1.523 . S
C2387 C2371 1.429 . S
C2387 C2383 1.429 1_556 S
C2387 C2388 1.523 . S
C2388 C2372 1.368 . S
C2388 C2384 1.368 . S
C2388 C2387 1.523 . S
H2389 C2364 0.950 . S
H2390 C2366 0.950 . S
H2391 C2367 0.949 . S
H2392 C2369 0.950 . S
H2393 C2371 0.950 . S
C2394 C2395 1.349 . S
C2394 C2396 1.327 . S
C2394 H2419 0.950 . S
C2395 C2394 1.349 . S
C2395 C2411 1.349 . S
C2396 C2394 1.327 . S
C2396 C2415 1.429 . S
C2396 H2420 0.950 . S
C2397 C2414 1.574 . S
C2397 C2416 1.368 . S
C2397 H2421 0.949 . S
H2398 C2402 0.949 . S
C2399 C2400 1.349 . S
C2399 C2401 1.327 . S
C2399 H2422 0.950 . S
C2400 C2399 1.349 . S
C2400 C2412 1.349 . S
C2401 C2399 1.327 . S
C2401 C2417 1.429 . S
C2401 H2423 0.950 . S
C2402 H2398 0.949 . S
C2402 C2410 1.574 . S
C2402 C2418 1.368 . S
H2403 C2411 0.950 . S
H2404 C2409 0.950 . S
H2405 C2410 0.949 . S
H2406 C2412 0.950 . S
H2407 C2413 0.950 . S
H2408 C2414 0.949 . S
C2409 H2404 0.950 . S
C2409 C2411 1.327 . S
C2409 C2415 1.429 . S
C2410 C2402 1.574 . S
C2410 H2405 0.949 . S
C2410 C2416 1.368 . S
C2411 C2395 1.349 . S
C2411 H2403 0.950 . S
C2411 C2409 1.327 . S
C2412 C2400 1.349 . S
C2412 H2406 0.950 . S
C2412 C2413 1.327 . S
C2413 H2407 0.950 . S
C2413 C2412 1.327 . S
C2413 C2417 1.429 . S
C2414 C2397 1.574 . S
C2414 H2408 0.949 . S
C2414 C2418 1.368 . S
C2415 C2396 1.429 . S
C2415 C2409 1.429 . S
C2415 C2416 1.523 . S
C2416 C2397 1.368 . S
C2416 C2410 1.368 . S
C2416 C2415 1.523 . S
C2417 C2401 1.429 . S
C2417 C2413 1.429 . S
C2417 C2418 1.523 . S
C2418 C2402 1.368 . S
C2418 C2414 1.368 . S
C2418 C2417 1.523 . S
H2419 C2394 0.950 . S
H2420 C2396 0.950 . S
H2421 C2397 0.949 . S
H2422 C2399 0.950 . S
H2423 C2401 0.950 . S
C2424 C2425 1.349 . S
C2424 C2426 1.327 . S
C2424 H2449 0.950 . S
C2425 C2424 1.349 . S
C2425 C2441 1.349 . S
C2426 C2424 1.327 . S
C2426 C2445 1.429 . S
C2426 H2450 0.950 . S
C2427 C2444 1.574 . S
C2427 C2446 1.368 . S
C2427 H2451 0.949 . S
H2428 C2432 0.949 . S
C2429 C2430 1.349 . S
C2429 C2431 1.327 . S
C2429 H2452 0.950 . S
C2430 C2429 1.349 . S
C2430 C2442 1.349 . S
C2431 C2429 1.327 . S
C2431 C2447 1.429 . S
C2431 H2453 0.950 . S
C2432 H2428 0.949 . S
C2432 C2440 1.574 . S
C2432 C2448 1.368 . S
H2433 C2441 0.950 . S
H2434 C2439 0.950 . S
H2435 C2440 0.949 . S
H2436 C2442 0.950 . S
H2437 C2443 0.950 . S
H2438 C2444 0.949 . S
C2439 H2434 0.950 . S
C2439 C2441 1.327 . S
C2439 C2445 1.429 . S
C2440 C2432 1.574 . S
C2440 H2435 0.949 . S
C2440 C2446 1.368 . S
C2441 C2425 1.349 . S
C2441 H2433 0.950 . S
C2441 C2439 1.327 . S
C2442 C2430 1.349 . S
C2442 H2436 0.950 . S
C2442 C2443 1.327 . S
C2443 H2437 0.950 . S
C2443 C2442 1.327 . S
C2443 C2447 1.429 . S
C2444 C2427 1.574 . S
C2444 H2438 0.949 . S
C2444 C2448 1.368 . S
C2445 C2426 1.429 . S
C2445 C2439 1.429 . S
C2445 C2446 1.523 . S
C2446 C2427 1.368 . S
C2446 C2440 1.368 . S
C2446 C2445 1.523 . S
C2447 C2431 1.429 . S
C2447 C2443 1.429 . S
C2447 C2448 1.523 . S
C2448 C2432 1.368 . S
C2448 C2444 1.368 . S
C2448 C2447 1.523 . S
H2449 C2424 0.950 . S
H2450 C2426 0.950 . S
H2451 C2427 0.949 . S
H2452 C2429 0.950 . S
H2453 C2431 0.950 . S
C2454 C2455 1.349 . S
C2454 C2456 1.327 . S
C2454 H2479 0.950 . S
C2455 C2454 1.349 . S
C2455 C2471 1.349 . S
C2456 C2454 1.327 . S
C2456 C2475 1.429 . S
C2456 H2480 0.950 . S
C2457 C2474 1.574 . S
C2457 C2476 1.368 . S
C2457 H2481 0.949 . S
H2458 C2462 0.949 . S
C2459 C2460 1.349 . S
C2459 C2461 1.327 . S
C2459 H2482 0.950 . S
C2460 C2459 1.349 . S
C2460 C2472 1.349 . S
C2461 C2459 1.327 . S
C2461 C2477 1.429 . S
C2461 H2483 0.950 . S
C2462 H2458 0.949 . S
C2462 C2470 1.574 . S
C2462 C2478 1.368 . S
H2463 C2471 0.950 . S
H2464 C2469 0.950 . S
H2465 C2470 0.949 . S
H2466 C2472 0.950 . S
H2467 C2473 0.950 . S
H2468 C2474 0.949 . S
C2469 H2464 0.950 . S
C2469 C2471 1.327 . S
C2469 C2475 1.429 . S
C2470 C2462 1.574 . S
C2470 H2465 0.949 . S
C2470 C2476 1.368 . S
C2471 C2455 1.349 . S
C2471 H2463 0.950 . S
C2471 C2469 1.327 . S
C2472 C2460 1.349 . S
C2472 H2466 0.950 . S
C2472 C2473 1.327 . S
C2473 H2467 0.950 . S
C2473 C2472 1.327 . S
C2473 C2477 1.429 . S
C2474 C2457 1.574 . S
C2474 H2468 0.949 . S
C2474 C2478 1.368 . S
C2475 C2456 1.429 . S
C2475 C2469 1.429 . S
C2475 C2476 1.523 . S
C2476 C2457 1.368 . S
C2476 C2470 1.368 . S
C2476 C2475 1.523 . S
C2477 C2461 1.429 . S
C2477 C2473 1.429 . S
C2477 C2478 1.523 . S
C2478 C2462 1.368 . S
C2478 C2474 1.368 . S
C2478 C2477 1.523 . S
H2479 C2454 0.950 . S
H2480 C2456 0.950 . S
H2481 C2457 0.949 . S
H2482 C2459 0.950 . S
H2483 C2461 0.950 . S
C2484 C2485 1.349 . S
C2484 C2486 1.327 . S
C2484 H2509 0.950 . S
C2485 C2484 1.349 . S
C2485 C2501 1.349 . S
C2486 C2484 1.327 . S
C2486 C2505 1.429 . S
C2486 H2510 0.950 . S
C2487 C2504 1.574 1_455 S
C2487 C2506 1.368 . S
C2487 H2511 0.949 . S
H2488 C2492 0.949 . S
C2489 C2490 1.349 . S
C2489 C2491 1.327 . S
C2489 H2512 0.950 . S
C2490 C2489 1.349 . S
C2490 C2502 1.349 . S
C2491 C2489 1.327 . S
C2491 C2507 1.429 . S
C2491 H2513 0.950 . S
C2492 H2488 0.949 . S
C2492 C2500 1.574 1_655 S
C2492 C2508 1.368 . S
H2493 C2501 0.950 . S
H2494 C2499 0.950 . S
H2495 C2500 0.949 . S
H2496 C2502 0.950 . S
H2497 C2503 0.950 . S
H2498 C2504 0.949 . S
C2499 H2494 0.950 . S
C2499 C2501 1.327 . S
C2499 C2505 1.429 . S
C2500 C2492 1.574 1_455 S
C2500 H2495 0.949 . S
C2500 C2506 1.368 . S
C2501 C2485 1.349 . S
C2501 H2493 0.950 . S
C2501 C2499 1.327 . S
C2502 C2490 1.349 . S
C2502 H2496 0.950 . S
C2502 C2503 1.327 . S
C2503 H2497 0.950 . S
C2503 C2502 1.327 . S
C2503 C2507 1.429 . S
C2504 C2487 1.574 1_655 S
C2504 H2498 0.949 . S
C2504 C2508 1.368 . S
C2505 C2486 1.429 . S
C2505 C2499 1.429 . S
C2505 C2506 1.523 . S
C2506 C2487 1.368 . S
C2506 C2500 1.368 . S
C2506 C2505 1.523 . S
C2507 C2491 1.429 . S
C2507 C2503 1.429 . S
C2507 C2508 1.523 . S
C2508 C2492 1.368 . S
C2508 C2504 1.368 . S
C2508 C2507 1.523 . S
H2509 C2484 0.950 . S
H2510 C2486 0.950 . S
H2511 C2487 0.949 . S
H2512 C2489 0.950 . S
H2513 C2491 0.950 . S
C2514 C2515 1.349 . S
C2514 C2516 1.327 . S
C2514 H2539 0.950 . S
C2515 C2514 1.349 . S
C2515 C2531 1.349 . S
C2516 C2514 1.327 . S
C2516 C2535 1.429 . S
C2516 H2540 0.950 . S
C2517 C2534 1.574 . S
C2517 C2536 1.368 . S
C2517 H2541 0.949 . S
H2518 C2522 0.949 . S
C2519 C2520 1.349 . S
C2519 C2521 1.327 . S
C2519 H2542 0.950 . S
C2520 C2519 1.349 . S
C2520 C2532 1.349 . S
C2521 C2519 1.327 . S
C2521 C2537 1.429 . S
C2521 H2543 0.950 . S
C2522 H2518 0.949 . S
C2522 C2530 1.574 . S
C2522 C2538 1.368 . S
H2523 C2531 0.950 . S
H2524 C2529 0.950 . S
H2525 C2530 0.949 . S
H2526 C2532 0.950 . S
H2527 C2533 0.950 . S
H2528 C2534 0.949 . S
C2529 H2524 0.950 . S
C2529 C2531 1.327 . S
C2529 C2535 1.429 . S
C2530 C2522 1.574 . S
C2530 H2525 0.949 . S
C2530 C2536 1.368 . S
C2531 C2515 1.349 . S
C2531 H2523 0.950 . S
C2531 C2529 1.327 . S
C2532 C2520 1.349 . S
C2532 H2526 0.950 . S
C2532 C2533 1.327 . S
C2533 H2527 0.950 . S
C2533 C2532 1.327 . S
C2533 C2537 1.429 . S
C2534 C2517 1.574 . S
C2534 H2528 0.949 . S
C2534 C2538 1.368 . S
C2535 C2516 1.429 . S
C2535 C2529 1.429 . S
C2535 C2536 1.523 . S
C2536 C2517 1.368 . S
C2536 C2530 1.368 . S
C2536 C2535 1.523 . S
C2537 C2521 1.429 . S
C2537 C2533 1.429 . S
C2537 C2538 1.523 . S
C2538 C2522 1.368 . S
C2538 C2534 1.368 . S
C2538 C2537 1.523 . S
H2539 C2514 0.950 . S
H2540 C2516 0.950 . S
H2541 C2517 0.949 . S
H2542 C2519 0.950 . S
H2543 C2521 0.950 . S
C2544 C2545 1.349 . S
C2544 C2546 1.327 . S
C2544 H2569 0.950 . S
C2545 C2544 1.349 . S
C2545 C2561 1.349 . S
C2546 C2544 1.327 . S
C2546 C2565 1.429 . S
C2546 H2570 0.950 . S
C2547 C2564 1.589 . S
C2547 C2566 1.368 . S
C2547 H2571 0.949 . S
H2548 C2552 0.949 . S
C2549 C2550 1.349 . S
C2549 C2551 1.327 . S
C2549 H2572 0.950 . S
C2550 C2549 1.349 . S
C2550 C2562 1.349 . S
C2551 C2549 1.327 . S
C2551 C2567 1.429 . S
C2551 H2573 0.950 . S
C2552 H2548 0.949 . S
C2552 C2560 1.589 . S
C2552 C2568 1.368 . S
H2553 C2561 0.950 . S
H2554 C2559 0.950 . S
H2555 C2560 0.949 . S
H2556 C2562 0.950 . S
H2557 C2563 0.950 . S
H2558 C2564 0.949 . S
C2559 H2554 0.950 . S
C2559 C2561 1.327 . S
C2559 C2565 1.429 . S
C2560 C2552 1.589 . S
C2560 H2555 0.949 . S
C2560 C2566 1.353 1_545 S
C2561 C2545 1.349 . S
C2561 H2553 0.950 . S
C2561 C2559 1.327 . S
C2562 C2550 1.349 . S
C2562 H2556 0.950 . S
C2562 C2563 1.327 . S
C2563 H2557 0.950 . S
C2563 C2562 1.327 . S
C2563 C2567 1.429 . S
C2564 C2547 1.589 . S
C2564 H2558 0.949 . S
C2564 C2568 1.354 1_565 S
C2565 C2546 1.429 . S
C2565 C2559 1.429 . S
C2565 C2566 1.523 . S
C2566 C2547 1.368 . S
C2566 C2560 1.353 1_565 S
C2566 C2565 1.523 . S
C2567 C2551 1.429 . S
C2567 C2563 1.429 . S
C2567 C2568 1.523 . S
C2568 C2552 1.368 . S
C2568 C2564 1.354 1_545 S
C2568 C2567 1.523 . S
H2569 C2544 0.950 . S
H2570 C2546 0.950 . S
H2571 C2547 0.949 . S
H2572 C2549 0.950 . S
H2573 C2551 0.950 . S
C2574 C2575 1.349 . S
C2574 C2576 1.327 . S
C2574 H2599 0.950 . S
C2575 C2574 1.349 . S
C2575 C2591 1.349 . S
C2576 C2574 1.327 . S
C2576 C2595 1.429 . S
C2576 H2600 0.950 . S
C2577 C2594 1.574 1_545 S
C2577 C2596 1.368 . S
C2577 H2601 0.949 . S
H2578 C2582 0.949 . S
C2579 C2580 1.349 . S
C2579 C2581 1.327 . S
C2579 H2602 0.950 . S
C2580 C2579 1.349 . S
C2580 C2592 1.349 . S
C2581 C2579 1.327 . S
C2581 C2597 1.429 . S
C2581 H2603 0.950 . S
C2582 H2578 0.949 . S
C2582 C2590 1.574 1_565 S
C2582 C2598 1.368 . S
H2583 C2591 0.950 . S
H2584 C2589 0.950 . S
H2585 C2590 0.949 . S
H2586 C2592 0.950 . S
H2587 C2593 0.950 . S
H2588 C2594 0.949 . S
C2589 H2584 0.950 . S
C2589 C2591 1.327 . S
C2589 C2595 1.429 . S
C2590 C2582 1.574 1_545 S
C2590 H2585 0.949 . S
C2590 C2596 1.368 . S
C2591 C2575 1.349 . S
C2591 H2583 0.950 . S
C2591 C2589 1.327 . S
C2592 C2580 1.349 . S
C2592 H2586 0.950 . S
C2592 C2593 1.327 . S
C2593 H2587 0.950 . S
C2593 C2592 1.327 . S
C2593 C2597 1.429 . S
C2594 C2577 1.574 1_565 S
C2594 H2588 0.949 . S
C2594 C2598 1.368 . S
C2595 C2576 1.429 . S
C2595 C2589 1.429 . S
C2595 C2596 1.523 . S
C2596 C2577 1.368 . S
C2596 C2590 1.368 . S
C2596 C2595 1.523 . S
C2597 C2581 1.429 . S
C2597 C2593 1.429 . S
C2597 C2598 1.523 . S
C2598 C2582 1.368 . S
C2598 C2594 1.368 . S
C2598 C2597 1.523 . S
H2599 C2574 0.950 . S
H2600 C2576 0.950 . S
H2601 C2577 0.949 . S
H2602 C2579 0.950 . S
H2603 C2581 0.950 . S
C2604 C2605 1.349 . S
C2604 C2606 1.327 . S
C2604 H2629 0.950 . S
C2605 C2604 1.349 . S
C2605 C2621 1.349 . S
C2606 C2604 1.327 . S
C2606 C2625 1.429 . S
C2606 H2630 0.950 . S
C2607 C2624 1.590 . S
C2607 C2626 1.353 1_655 S
C2607 H2631 0.949 . S
H2608 C2612 0.949 . S
C2609 C2610 1.349 . S
C2609 C2611 1.327 . S
C2609 H2632 0.950 . S
C2610 C2609 1.349 . S
C2610 C2622 1.349 . S
C2611 C2609 1.327 . S
C2611 C2627 1.429 . S
C2611 H2633 0.950 . S
C2612 H2608 0.949 . S
C2612 C2620 1.587 . S
C2612 C2628 1.355 1_455 S
H2613 C2621 0.950 . S
H2614 C2619 0.950 . S
H2615 C2620 0.949 . S
H2616 C2622 0.950 . S
H2617 C2623 0.950 . S
H2618 C2624 0.949 . S
C2619 H2614 0.950 . S
C2619 C2621 1.327 . S
C2619 C2625 1.429 . S
C2620 C2612 1.587 . S
C2620 H2615 0.949 . S
C2620 C2626 1.368 . S
C2621 C2605 1.349 . S
C2621 H2613 0.950 . S
C2621 C2619 1.327 . S
C2622 C2610 1.349 . S
C2622 H2616 0.950 . S
C2622 C2623 1.327 . S
C2623 H2617 0.950 . S
C2623 C2622 1.327 . S
C2623 C2627 1.429 . S
C2624 C2607 1.590 . S
C2624 H2618 0.949 . S
C2624 C2628 1.368 . S
C2625 C2606 1.429 . S
C2625 C2619 1.429 . S
C2625 C2626 1.523 . S
C2626 C2607 1.353 1_455 S
C2626 C2620 1.368 . S
C2626 C2625 1.523 . S
C2627 C2611 1.429 . S
C2627 C2623 1.429 . S
C2627 C2628 1.523 . S
C2628 C2612 1.355 1_655 S
C2628 C2624 1.368 . S
C2628 C2627 1.523 . S
H2629 C2604 0.950 . S
H2630 C2606 0.950 . S
H2631 C2607 0.949 . S
H2632 C2609 0.950 . S
H2633 C2611 0.950 . S
C2634 C2635 1.349 . S
C2634 C2636 1.327 . S
C2634 H2659 0.950 . S
C2635 C2634 1.349 . S
C2635 C2651 1.349 . S
C2636 C2634 1.327 . S
C2636 C2655 1.429 . S
C2636 H2660 0.950 . S
C2637 C2654 1.574 . S
C2637 C2656 1.368 . S
C2637 H2661 0.949 . S
H2638 C2642 0.949 . S
C2639 C2640 1.349 . S
C2639 C2641 1.327 . S
C2639 H2662 0.950 . S
C2640 C2639 1.349 . S
C2640 C2652 1.349 . S
C2641 C2639 1.327 . S
C2641 C2657 1.429 . S
C2641 H2663 0.950 . S
C2642 H2638 0.949 . S
C2642 C2650 1.574 . S
C2642 C2658 1.368 . S
H2643 C2651 0.950 . S
H2644 C2649 0.950 . S
H2645 C2650 0.949 . S
H2646 C2652 0.950 . S
H2647 C2653 0.950 . S
H2648 C2654 0.949 . S
C2649 H2644 0.950 . S
C2649 C2651 1.327 . S
C2649 C2655 1.429 . S
C2650 C2642 1.574 . S
C2650 H2645 0.949 . S
C2650 C2656 1.368 . S
C2651 C2635 1.349 . S
C2651 H2643 0.950 . S
C2651 C2649 1.327 . S
C2652 C2640 1.349 . S
C2652 H2646 0.950 . S
C2652 C2653 1.327 . S
C2653 H2647 0.950 . S
C2653 C2652 1.327 . S
C2653 C2657 1.429 . S
C2654 C2637 1.574 . S
C2654 H2648 0.949 . S
C2654 C2658 1.368 . S
C2655 C2636 1.429 . S
C2655 C2649 1.429 . S
C2655 C2656 1.523 . S
C2656 C2637 1.368 . S
C2656 C2650 1.368 . S
C2656 C2655 1.523 . S
C2657 C2641 1.429 . S
C2657 C2653 1.429 . S
C2657 C2658 1.523 . S
C2658 C2642 1.368 . S
C2658 C2654 1.368 . S
C2658 C2657 1.523 . S
H2659 C2634 0.950 . S
H2660 C2636 0.950 . S
H2661 C2637 0.949 . S
H2662 C2639 0.950 . S
H2663 C2641 0.950 . S
C505 C48 1.215 . S
C510 C6 1.215 . S
C535 C62 1.216 . S
C540 C20 1.216 . S
C565 C76 1.216 . S
C570 C34 1.216 . S
C595 C90 1.215 . S
C600 C132 1.215 . S
C625 C104 1.216 . S
C630 C146 1.216 . S
C655 C160 1.216 . S
C660 C118 1.216 . S
C685 C174 1.215 . S
C690 C216 1.215 . S
C715 C188 1.216 . S
C720 C230 1.216 . S
C745 C202 1.216 . S
C750 C244 1.216 . S
C775 C258 1.215 . S
C780 C300 1.215 . S
C805 C314 1.217 . S
C810 C272 1.217 . S
C835 C286 1.217 . S
C840 C328 1.216 . S
C865 C342 1.215 . S
C870 C384 1.215 . S
C895 C356 1.217 . S
C900 C398 1.217 . S
C925 C412 1.217 . S
C930 C370 1.217 . S
C955 C468 1.215 . S
C960 C426 1.215 . S
C985 C482 1.216 . S
C990 C440 1.216 . S
C1015 C496 1.216 . S
C1020 C454 1.216 . S
C1045 C161 1.544 . S
C1050 C9 1.601 . S
C1075 C23 1.601 . S
C1080 C133 1.544 . S
C1105 C37 1.601 . S
C1110 C147 1.544 . S
C1135 C105 1.544 . S
C1140 C51 1.601 . S
C1165 C65 1.601 . S
C1170 C119 1.544 . S
C1195 C91 1.544 . S
C1200 C79 1.601 . S
C1225 C93 1.601 . S
C1230 C77 1.544 . S
C1255 C107 1.601 . S
C1260 C49 1.544 . S
C1285 C63 1.544 . S
C1290 C121 1.601 . S
C1315 C21 1.544 . S
C1320 C135 1.601 . S
C1345 C35 1.544 . S
C1350 C149 1.601 . S
C1375 C163 1.601 . S
C1380 C7 1.544 . S
C1405 C177 1.601 . S
C1410 C329 1.544 . S
C1435 C301 1.544 . S
C1440 C191 1.601 . S
C1465 C315 1.544 . S
C1470 C205 1.601 . S
C1495 C219 1.601 . S
C1500 C273 1.544 . S
C1525 C287 1.544 . S
C1530 C233 1.601 . S
C1555 C247 1.601 . S
C1560 C259 1.544 . S
C1585 C261 1.601 . S
C1590 C245 1.544 . S
C1615 C275 1.601 . S
C1620 C217 1.544 . S
C1645 C231 1.544 . S
C1650 C289 1.601 . S
C1675 C189 1.544 . S
C1680 C303 1.601 1_556 S
C1705 C203 1.544 . S
C1710 C317 1.601 1_556 S
C1735 C331 1.601 1_556 S
C1740 C175 1.544 . S
C1765 C497 1.544 . S
C1770 C345 1.601 . S
C1795 C359 1.601 . S
C1800 C469 1.544 . S
C1825 C373 1.601 . S
C1830 C483 1.544 . S
C1855 C387 1.601 1_554 S
C1860 C441 1.544 . S
C1885 C455 1.544 . S
C1890 C401 1.601 1_554 S
C1915 C415 1.601 1_554 S
C1920 C427 1.544 . S
C1945 C413 1.544 . S
C1950 C429 1.601 . S
C1975 C385 1.544 . S
C1980 C443 1.601 . S
C2005 C399 1.544 . S
C2010 C457 1.601 . S
C2035 C357 1.544 . S
C2040 C471 1.601 . S
C2065 C371 1.544 . S
C2070 C485 1.601 . S
C2095 C343 1.544 . S
C2100 C499 1.601 . S
C2125 C414 1.078 . S
C2130 C8 1.078 . S
C2155 C22 1.078 . S
C2160 C386 1.078 . S
C2185 C400 1.080 . S
C2190 C36 1.080 . S
C2215 C50 1.078 . S
C2220 C190 1.078 . S
C2245 C204 1.080 . S
C2250 C64 1.080 . S
C2275 C78 1.078 . S
C2280 C176 1.078 . S
C2305 C92 1.078 . S
C2310 C330 1.078 . S
C2335 C302 1.078 . S
C2340 C106 1.078 . S
C2365 C120 1.080 . S
C2370 C316 1.080 . S
C2395 C134 1.078 . S
C2400 C442 1.078 . S
C2425 C148 1.080 . S
C2430 C456 1.080 . S
C2455 C428 1.078 . S
C2460 C162 1.078 . S
C2485 C358 1.079 . S
C2490 C218 1.079 . S
C2515 C372 1.080 . S
C2520 C232 1.080 . S
C2545 C344 1.078 . S
C2550 C246 1.078 . S
C2575 C260 1.078 . S
C2580 C498 1.078 . S
C2605 C470 1.079 . S
C2610 C274 1.079 . S
C2635 C288 1.079 . S
C2640 C484 1.079 . S
