# Generated by pormake.
# Topology wna, (6)-cn, num edge types: 1
# Building blocks:
#     Node 0, Type 0, BuildingBlock: JUFBIX_clean_sbu_0, # of connection points: 6
#     Node 1, Type 0, BuildingBlock: JUFBIX_clean_sbu_0, # of connection points: 6
#     Node 2, Type 0, BuildingBlock: JUFBIX_clean_sbu_0, # of connection points: 6
#     Node 3, Type 0, BuildingBlock: JUFBIX_clean_sbu_0, # of connection points: 6
#     Node 4, Type 0, BuildingBlock: JUFBIX_clean_sbu_0, # of connection points: 6
#     Node 5, Type 0, BuildingBlock: JUFBIX_clean_sbu_0, # of connection points: 6
#     Node 6, Type 0, BuildingBlock: JUFBIX_clean_sbu_0, # of connection points: 6
#     Node 7, Type 0, BuildingBlock: JUFBIX_clean_sbu_0, # of connection points: 6
#     Node 8, Type 0, BuildingBlock: JUFBIX_clean_sbu_0, # of connection points: 6
#     Node 9, Type 0, BuildingBlock: JUFBIX_clean_sbu_0, # of connection points: 6
#     Node 10, Type 0, BuildingBlock: JUFBIX_clean_sbu_0, # of connection points: 6
#     Node 11, Type 0, BuildingBlock: JUFBIX_clean_sbu_0, # of connection points: 6
#     Node 12, Type 0, BuildingBlock: JUFBIX_clean_sbu_0, # of connection points: 6
#     Node 13, Type 0, BuildingBlock: JUFBIX_clean_sbu_0, # of connection points: 6
#     Node 14, Type 0, BuildingBlock: JUFBIX_clean_sbu_0, # of connection points: 6
#     Node 15, Type 0, BuildingBlock: JUFBIX_clean_sbu_0, # of connection points: 6
#     Node 16, Type 0, BuildingBlock: JUFBIX_clean_sbu_0, # of connection points: 6
#     Node 17, Type 0, BuildingBlock: JUFBIX_clean_sbu_0, # of connection points: 6
#     Node 18, Type 0, BuildingBlock: JUFBIX_clean_sbu_0, # of connection points: 6
#     Node 19, Type 0, BuildingBlock: JUFBIX_clean_sbu_0, # of connection points: 6
#     Node 20, Type 0, BuildingBlock: JUFBIX_clean_sbu_0, # of connection points: 6
#     Node 21, Type 0, BuildingBlock: JUFBIX_clean_sbu_0, # of connection points: 6
#     Node 22, Type 0, BuildingBlock: JUFBIX_clean_sbu_0, # of connection points: 6
#     Node 23, Type 0, BuildingBlock: JUFBIX_clean_sbu_0, # of connection points: 6
#     Node 24, Type 0, BuildingBlock: JUFBIX_clean_sbu_0, # of connection points: 6
#     Node 25, Type 0, BuildingBlock: JUFBIX_clean_sbu_0, # of connection points: 6
#     Node 26, Type 0, BuildingBlock: JUFBIX_clean_sbu_0, # of connection points: 6
#     Node 27, Type 0, BuildingBlock: JUFBIX_clean_sbu_0, # of connection points: 6
#     Node 28, Type 0, BuildingBlock: JUFBIX_clean_sbu_0, # of connection points: 6
#     Node 29, Type 0, BuildingBlock: JUFBIX_clean_sbu_0, # of connection points: 6
#     Node 30, Type 0, BuildingBlock: JUFBIX_clean_sbu_0, # of connection points: 6
#     Node 31, Type 0, BuildingBlock: JUFBIX_clean_sbu_0, # of connection points: 6
#     Node 32, Type 0, BuildingBlock: JUFBIX_clean_sbu_0, # of connection points: 6
#     Node 33, Type 0, BuildingBlock: JUFBIX_clean_sbu_0, # of connection points: 6
#     Node 34, Type 0, BuildingBlock: JUFBIX_clean_sbu_0, # of connection points: 6
#     Node 35, Type 0, BuildingBlock: JUFBIX_clean_sbu_0, # of connection points: 6
#     Edge 36, Type (0, 0), BuildingBlock: XIVTED_clean_linker_0, # of connection points: 2
#     Edge 37, Type (0, 0), BuildingBlock: XIVTED_clean_linker_0, # of connection points: 2
#     Edge 38, Type (0, 0), BuildingBlock: XIVTED_clean_linker_0, # of connection points: 2
#     Edge 39, Type (0, 0), BuildingBlock: XIVTED_clean_linker_0, # of connection points: 2
#     Edge 40, Type (0, 0), BuildingBlock: XIVTED_clean_linker_0, # of connection points: 2
#     Edge 41, Type (0, 0), BuildingBlock: XIVTED_clean_linker_0, # of connection points: 2
#     Edge 42, Type (0, 0), BuildingBlock: XIVTED_clean_linker_0, # of connection points: 2
#     Edge 43, Type (0, 0), BuildingBlock: XIVTED_clean_linker_0, # of connection points: 2
#     Edge 44, Type (0, 0), BuildingBlock: XIVTED_clean_linker_0, # of connection points: 2
#     Edge 45, Type (0, 0), BuildingBlock: XIVTED_clean_linker_0, # of connection points: 2
#     Edge 46, Type (0, 0), BuildingBlock: XIVTED_clean_linker_0, # of connection points: 2
#     Edge 47, Type (0, 0), BuildingBlock: XIVTED_clean_linker_0, # of connection points: 2
#     Edge 48, Type (0, 0), BuildingBlock: XIVTED_clean_linker_0, # of connection points: 2
#     Edge 49, Type (0, 0), BuildingBlock: XIVTED_clean_linker_0, # of connection points: 2
#     Edge 50, Type (0, 0), BuildingBlock: XIVTED_clean_linker_0, # of connection points: 2
#     Edge 51, Type (0, 0), BuildingBlock: XIVTED_clean_linker_0, # of connection points: 2
#     Edge 52, Type (0, 0), BuildingBlock: XIVTED_clean_linker_0, # of connection points: 2
#     Edge 53, Type (0, 0), BuildingBlock: XIVTED_clean_linker_0, # of connection points: 2
#     Edge 54, Type (0, 0), BuildingBlock: XIVTED_clean_linker_0, # of connection points: 2
#     Edge 55, Type (0, 0), BuildingBlock: XIVTED_clean_linker_0, # of connection points: 2
#     Edge 56, Type (0, 0), BuildingBlock: XIVTED_clean_linker_0, # of connection points: 2
#     Edge 57, Type (0, 0), BuildingBlock: XIVTED_clean_linker_0, # of connection points: 2
#     Edge 58, Type (0, 0), BuildingBlock: XIVTED_clean_linker_0, # of connection points: 2
#     Edge 59, Type (0, 0), BuildingBlock: XIVTED_clean_linker_0, # of connection points: 2
#     Edge 60, Type (0, 0), BuildingBlock: XIVTED_clean_linker_0, # of connection points: 2
#     Edge 61, Type (0, 0), BuildingBlock: XIVTED_clean_linker_0, # of connection points: 2
#     Edge 62, Type (0, 0), BuildingBlock: XIVTED_clean_linker_0, # of connection points: 2
#     Edge 63, Type (0, 0), BuildingBlock: XIVTED_clean_linker_0, # of connection points: 2
#     Edge 64, Type (0, 0), BuildingBlock: XIVTED_clean_linker_0, # of connection points: 2
#     Edge 65, Type (0, 0), BuildingBlock: XIVTED_clean_linker_0, # of connection points: 2
#     Edge 66, Type (0, 0), BuildingBlock: XIVTED_clean_linker_0, # of connection points: 2
#     Edge 67, Type (0, 0), BuildingBlock: XIVTED_clean_linker_0, # of connection points: 2
#     Edge 68, Type (0, 0), BuildingBlock: XIVTED_clean_linker_0, # of connection points: 2
#     Edge 69, Type (0, 0), BuildingBlock: XIVTED_clean_linker_0, # of connection points: 2
#     Edge 70, Type (0, 0), BuildingBlock: XIVTED_clean_linker_0, # of connection points: 2
#     Edge 71, Type (0, 0), BuildingBlock: XIVTED_clean_linker_0, # of connection points: 2
#     Edge 72, Type (0, 0), BuildingBlock: XIVTED_clean_linker_0, # of connection points: 2
#     Edge 73, Type (0, 0), BuildingBlock: XIVTED_clean_linker_0, # of connection points: 2
#     Edge 74, Type (0, 0), BuildingBlock: XIVTED_clean_linker_0, # of connection points: 2
#     Edge 75, Type (0, 0), BuildingBlock: XIVTED_clean_linker_0, # of connection points: 2
#     Edge 76, Type (0, 0), BuildingBlock: XIVTED_clean_linker_0, # of connection points: 2
#     Edge 77, Type (0, 0), BuildingBlock: XIVTED_clean_linker_0, # of connection points: 2
#     Edge 78, Type (0, 0), BuildingBlock: XIVTED_clean_linker_0, # of connection points: 2
#     Edge 79, Type (0, 0), BuildingBlock: XIVTED_clean_linker_0, # of connection points: 2
#     Edge 80, Type (0, 0), BuildingBlock: XIVTED_clean_linker_0, # of connection points: 2
#     Edge 81, Type (0, 0), BuildingBlock: XIVTED_clean_linker_0, # of connection points: 2
#     Edge 82, Type (0, 0), BuildingBlock: XIVTED_clean_linker_0, # of connection points: 2
#     Edge 83, Type (0, 0), BuildingBlock: XIVTED_clean_linker_0, # of connection points: 2
#     Edge 84, Type (0, 0), BuildingBlock: XIVTED_clean_linker_0, # of connection points: 2
#     Edge 85, Type (0, 0), BuildingBlock: XIVTED_clean_linker_0, # of connection points: 2
#     Edge 86, Type (0, 0), BuildingBlock: XIVTED_clean_linker_0, # of connection points: 2
#     Edge 87, Type (0, 0), BuildingBlock: XIVTED_clean_linker_0, # of connection points: 2
#     Edge 88, Type (0, 0), BuildingBlock: XIVTED_clean_linker_0, # of connection points: 2
#     Edge 89, Type (0, 0), BuildingBlock: XIVTED_clean_linker_0, # of connection points: 2
#     Edge 90, Type (0, 0), BuildingBlock: XIVTED_clean_linker_0, # of connection points: 2
#     Edge 91, Type (0, 0), BuildingBlock: XIVTED_clean_linker_0, # of connection points: 2
#     Edge 92, Type (0, 0), BuildingBlock: XIVTED_clean_linker_0, # of connection points: 2
#     Edge 93, Type (0, 0), BuildingBlock: XIVTED_clean_linker_0, # of connection points: 2
#     Edge 94, Type (0, 0), BuildingBlock: XIVTED_clean_linker_0, # of connection points: 2
#     Edge 95, Type (0, 0), BuildingBlock: XIVTED_clean_linker_0, # of connection points: 2
#     Edge 96, Type (0, 0), BuildingBlock: XIVTED_clean_linker_0, # of connection points: 2
#     Edge 97, Type (0, 0), BuildingBlock: XIVTED_clean_linker_0, # of connection points: 2
#     Edge 98, Type (0, 0), BuildingBlock: XIVTED_clean_linker_0, # of connection points: 2
#     Edge 99, Type (0, 0), BuildingBlock: XIVTED_clean_linker_0, # of connection points: 2
#     Edge 100, Type (0, 0), BuildingBlock: XIVTED_clean_linker_0, # of connection points: 2
#     Edge 101, Type (0, 0), BuildingBlock: XIVTED_clean_linker_0, # of connection points: 2
#     Edge 102, Type (0, 0), BuildingBlock: XIVTED_clean_linker_0, # of connection points: 2
#     Edge 103, Type (0, 0), BuildingBlock: XIVTED_clean_linker_0, # of connection points: 2
#     Edge 104, Type (0, 0), BuildingBlock: XIVTED_clean_linker_0, # of connection points: 2
#     Edge 105, Type (0, 0), BuildingBlock: XIVTED_clean_linker_0, # of connection points: 2
#     Edge 106, Type (0, 0), BuildingBlock: XIVTED_clean_linker_0, # of connection points: 2
#     Edge 107, Type (0, 0), BuildingBlock: XIVTED_clean_linker_0, # of connection points: 2
#     Edge 108, Type (0, 0), BuildingBlock: XIVTED_clean_linker_0, # of connection points: 2
#     Edge 109, Type (0, 0), BuildingBlock: XIVTED_clean_linker_0, # of connection points: 2
#     Edge 110, Type (0, 0), BuildingBlock: XIVTED_clean_linker_0, # of connection points: 2
#     Edge 111, Type (0, 0), BuildingBlock: XIVTED_clean_linker_0, # of connection points: 2
#     Edge 112, Type (0, 0), BuildingBlock: XIVTED_clean_linker_0, # of connection points: 2
#     Edge 113, Type (0, 0), BuildingBlock: XIVTED_clean_linker_0, # of connection points: 2
#     Edge 114, Type (0, 0), BuildingBlock: XIVTED_clean_linker_0, # of connection points: 2
#     Edge 115, Type (0, 0), BuildingBlock: XIVTED_clean_linker_0, # of connection points: 2
#     Edge 116, Type (0, 0), BuildingBlock: XIVTED_clean_linker_0, # of connection points: 2
#     Edge 117, Type (0, 0), BuildingBlock: XIVTED_clean_linker_0, # of connection points: 2
#     Edge 118, Type (0, 0), BuildingBlock: XIVTED_clean_linker_0, # of connection points: 2
#     Edge 119, Type (0, 0), BuildingBlock: XIVTED_clean_linker_0, # of connection points: 2
#     Edge 120, Type (0, 0), BuildingBlock: XIVTED_clean_linker_0, # of connection points: 2
#     Edge 121, Type (0, 0), BuildingBlock: XIVTED_clean_linker_0, # of connection points: 2
#     Edge 122, Type (0, 0), BuildingBlock: XIVTED_clean_linker_0, # of connection points: 2
#     Edge 123, Type (0, 0), BuildingBlock: XIVTED_clean_linker_0, # of connection points: 2
#     Edge 124, Type (0, 0), BuildingBlock: XIVTED_clean_linker_0, # of connection points: 2
#     Edge 125, Type (0, 0), BuildingBlock: XIVTED_clean_linker_0, # of connection points: 2
#     Edge 126, Type (0, 0), BuildingBlock: XIVTED_clean_linker_0, # of connection points: 2
#     Edge 127, Type (0, 0), BuildingBlock: XIVTED_clean_linker_0, # of connection points: 2
#     Edge 128, Type (0, 0), BuildingBlock: XIVTED_clean_linker_0, # of connection points: 2
#     Edge 129, Type (0, 0), BuildingBlock: XIVTED_clean_linker_0, # of connection points: 2
#     Edge 130, Type (0, 0), BuildingBlock: XIVTED_clean_linker_0, # of connection points: 2
#     Edge 131, Type (0, 0), BuildingBlock: XIVTED_clean_linker_0, # of connection points: 2
#     Edge 132, Type (0, 0), BuildingBlock: XIVTED_clean_linker_0, # of connection points: 2
#     Edge 133, Type (0, 0), BuildingBlock: XIVTED_clean_linker_0, # of connection points: 2
#     Edge 134, Type (0, 0), BuildingBlock: XIVTED_clean_linker_0, # of connection points: 2
#     Edge 135, Type (0, 0), BuildingBlock: XIVTED_clean_linker_0, # of connection points: 2
#     Edge 136, Type (0, 0), BuildingBlock: XIVTED_clean_linker_0, # of connection points: 2
#     Edge 137, Type (0, 0), BuildingBlock: XIVTED_clean_linker_0, # of connection points: 2
#     Edge 138, Type (0, 0), BuildingBlock: XIVTED_clean_linker_0, # of connection points: 2
#     Edge 139, Type (0, 0), BuildingBlock: XIVTED_clean_linker_0, # of connection points: 2
#     Edge 140, Type (0, 0), BuildingBlock: XIVTED_clean_linker_0, # of connection points: 2
#     Edge 141, Type (0, 0), BuildingBlock: XIVTED_clean_linker_0, # of connection points: 2
#     Edge 142, Type (0, 0), BuildingBlock: XIVTED_clean_linker_0, # of connection points: 2
#     Edge 143, Type (0, 0), BuildingBlock: XIVTED_clean_linker_0, # of connection points: 2
# Relax obj value: 0.433
# Max RMSD: 0.264
# Mean RMSD: 0.264
data_MOF--net-wna--node1-JUFBIX_clean_sbu_0--edge1-XIVTED_clean_linker_0
_symmetry_space_group_name_H-M    P1
_symmetry_Int_Tables_number       1
_symmetry_cell_setting            triclinic
loop_
_symmetry_equiv_pos_as_xyz
'x, y, z'
_cell_length_a     45.593524
_cell_length_b     45.588751
_cell_length_c     80.837732
_cell_angle_alpha  90.000162
_cell_angle_beta   89.994743
_cell_angle_gamma 119.99969
loop_
_atom_site_label
_atom_site_type_symbol
_atom_site_fract_x
_atom_site_fract_y
_atom_site_fract_z
_atom_type_partial_charge
Co0 Co 0.0469 0.22236 0.16001 0.0
C1 C 0.04749 0.28148 0.16862 0.0
Co2 Co 0.09399 0.25999 0.17239 0.0
C3 C 0.98677 0.15788 0.15629 0.0
C4 C 0.99169 0.19086 0.13633 0.0
N5 N 0.00659 0.18966 0.15055 0.0
N6 N 0.96029 0.13919 0.14626 0.0
C7 C 0.96329 0.15968 0.13359 0.0
H8 H 0.99227 0.14814 0.16735 0.0
H9 H 0.00115 0.21276 0.12833 0.0
C10 C 0.09384 0.20122 0.16316 0.0
N11 N 0.1345 0.29171 0.18177 0.0
C12 C 0.16537 0.30167 0.17537 0.0
C13 C 0.14054 0.30722 0.19662 0.0
N14 N 0.19046 0.32242 0.18563 0.0
C15 C 0.17508 0.32595 0.19909 0.0
C16 C 0.04685 0.21676 0.19466 0.0
O17 O 0.06418 0.19236 0.15812 0.0
O18 O 0.11151 0.23008 0.16983 0.0
O19 O 0.07701 0.24116 0.19342 0.0
O20 O 0.0292 0.2049 0.18161 0.0
O21 O 0.07622 0.28955 0.17482 0.0
H22 H 0.12114 0.30413 0.2053 0.0
H23 H 0.16939 0.29235 0.16376 0.0
O24 O 0.03011 0.2528 0.16164 0.0
O25 O 0.06501 0.24064 0.13871 0.0
O26 O 0.11073 0.27915 0.15128 0.0
C27 C 0.09406 0.26715 0.13802 0.0
H28 H 0.9462 0.1526 0.12315 0.0
H29 H 0.18787 0.34038 0.21004 0.0
Co30 Co 0.77429 0.82384 0.16135 0.0
C31 C 0.71389 0.76737 0.16971 0.0
Co32 Co 0.73733 0.83633 0.17178 0.0
C33 C 0.83985 0.83265 0.15581 0.0
C34 C 0.80216 0.78851 0.14324 0.0
N35 N 0.80629 0.8144 0.15293 0.0
N36 N 0.85694 0.81932 0.14835 0.0
C37 C 0.83335 0.79138 0.14047 0.0
H38 H 0.85147 0.85494 0.1636 0.0
H39 H 0.77805 0.76876 0.1386 0.0
C40 C 0.7972 0.89306 0.16274 0.0
N41 N 0.70587 0.84618 0.18033 0.0
C42 C 0.69741 0.86825 0.17399 0.0
C43 C 0.68837 0.83533 0.19462 0.0
N44 N 0.67566 0.87195 0.18381 0.0
C45 C 0.66993 0.85145 0.19687 0.0
C46 C 0.77864 0.83195 0.19558 0.0
O47 O 0.80456 0.87103 0.1579 0.0
O48 O 0.76884 0.88336 0.16969 0.0
O49 O 0.75378 0.83679 0.19346 0.0
O50 O 0.79214 0.82667 0.18303 0.0
O51 O 0.7058 0.78936 0.17369 0.0
H52 H 0.68973 0.81765 0.20306 0.0
H53 H 0.70828 0.8826 0.16277 0.0
O54 O 0.74372 0.77708 0.1646 0.0
O55 O 0.75592 0.8203 0.13988 0.0
O56 O 0.72084 0.83546 0.15002 0.0
C57 C 0.73195 0.82653 0.13774 0.0
H58 H 0.83832 0.77443 0.13317 0.0
H59 H 0.65408 0.84881 0.20738 0.0
Co60 Co 0.17311 0.9522 0.16039 0.0
C61 C 0.22986 0.94822 0.1681 0.0
Co62 Co 0.16126 0.90303 0.17117 0.0
C63 C 0.16993 0.01306 0.15694 0.0
C64 C 0.20049 0.0093 0.1379 0.0
N65 N 0.18228 0.99339 0.1515 0.0
N66 N 0.17945 0.0404 0.14726 0.0
C67 C 0.19854 0.03815 0.13518 0.0
H68 H 0.15321 0.00684 0.16749 0.0
H69 H 0.2138 0.00022 0.13028 0.0
C70 C 0.10427 0.90627 0.16281 0.0
N71 N 0.15137 0.86182 0.18003 0.0
C72 C 0.12937 0.83117 0.17375 0.0
C73 C 0.16189 0.85532 0.19446 0.0
N74 N 0.12541 0.80581 0.18372 0.0
C75 C 0.14566 0.82077 0.19684 0.0
C76 C 0.16734 0.95011 0.1947 0.0
O77 O 0.12588 0.93601 0.15817 0.0
O78 O 0.11447 0.8875 0.16915 0.0
O79 O 0.16131 0.91993 0.19278 0.0
O80 O 0.17281 0.96859 0.18201 0.0
O81 O 0.20816 0.91861 0.1729 0.0
H82 H 0.17941 0.87446 0.20292 0.0
H83 H 0.11522 0.82754 0.16244 0.0
O84 O 0.21991 0.96785 0.16251 0.0
O85 O 0.1741 0.93556 0.13885 0.0
O86 O 0.16158 0.88654 0.14963 0.0
C87 C 0.16861 0.90553 0.13704 0.0
H88 H 0.21012 0.05599 0.12512 0.0
H89 H 0.14808 0.80768 0.20746 0.0
Co90 Co 0.22165 0.04785 0.34345 0.0
C91 C 0.28157 0.04982 0.33542 0.0
Co92 Co 0.25933 0.09562 0.33167 0.0
C93 C 0.15751 0.98719 0.34673 0.0
C94 C 0.19037 0.99191 0.36671 0.0
N95 N 0.18916 0.0071 0.3526 0.0
N96 N 0.13889 0.96039 0.35659 0.0
C97 C 0.1593 0.96326 0.36927 0.0
H98 H 0.14779 0.99292 0.33572 0.0
H99 H 0.21216 0.00139 0.37478 0.0
C100 C 0.1997 0.09411 0.34049 0.0
N101 N 0.29091 0.13666 0.32261 0.0
C102 C 0.30048 0.16729 0.32925 0.0
C103 C 0.3066 0.14334 0.3078 0.0
N104 N 0.32116 0.19281 0.31916 0.0
C105 C 0.32504 0.17797 0.30558 0.0
C106 C 0.21726 0.04847 0.30886 0.0
O107 O 0.19081 0.06407 0.34487 0.0
O108 O 0.22906 0.11265 0.33446 0.0
O109 O 0.24087 0.079 0.31038 0.0
O110 O 0.20543 0.03035 0.32177 0.0
O111 O 0.28938 0.07844 0.32916 0.0
H112 H 0.30383 0.1243 0.29897 0.0
H113 H 0.29094 0.17081 0.3409 0.0
O114 O 0.25276 0.03207 0.3422 0.0
O115 O 0.23882 0.06575 0.36498 0.0
O116 O 0.27799 0.11174 0.35288 0.0
C117 C 0.26543 0.09469 0.36598 0.0
H118 H 0.15221 0.94598 0.37964 0.0
H119 H 0.33953 0.19119 0.29472 0.0
Co120 Co 0.95039 0.17383 0.34299 0.0
C121 C 0.94745 0.23093 0.33381 0.0
Co122 Co 0.90234 0.16261 0.3312 0.0
C123 C 0.00743 0.16567 0.34869 0.0
C124 C 0.0132 0.20926 0.36154 0.0
N125 N 0.99166 0.18341 0.35177 0.0
N126 N 0.03794 0.17927 0.35608 0.0
C127 C 0.04187 0.20687 0.36415 0.0
H128 H 0.9971 0.14365 0.34072 0.0
H129 H 0.00857 0.22879 0.36626 0.0
C130 C 0.9047 0.10523 0.34091 0.0
N131 N 0.86098 0.1522 0.32242 0.0
C132 C 0.83124 0.12582 0.32729 0.0
C133 C 0.85288 0.16777 0.31056 0.0
N134 N 0.8049 0.12396 0.31894 0.0
C135 C 0.81816 0.15045 0.30844 0.0
C136 C 0.94858 0.16648 0.30842 0.0
O137 O 0.93379 0.12674 0.34627 0.0
O138 O 0.887 0.1156 0.33359 0.0
O139 O 0.91878 0.16171 0.30989 0.0
O140 O 0.96646 0.17164 0.32134 0.0
O141 O 0.91788 0.20937 0.32896 0.0
H142 H 0.87099 0.19014 0.30389 0.0
H143 H 0.82881 0.10845 0.33704 0.0
O144 O 0.96649 0.22073 0.3399 0.0
O145 O 0.9341 0.17645 0.36441 0.0
O146 O 0.886 0.16408 0.35253 0.0
C147 C 0.90412 0.17156 0.36547 0.0
H148 H 0.06376 0.22397 0.37142 0.0
H149 H 0.80388 0.15646 0.29975 0.0
Co150 Co 0.82355 0.77691 0.34412 0.0
C151 C 0.7659 0.71671 0.33606 0.0
Co152 Co 0.83421 0.74005 0.33183 0.0
C153 C 0.82679 0.84073 0.34805 0.0
C154 C 0.79828 0.807 0.3677 0.0
N155 N 0.81488 0.80882 0.35356 0.0
N156 N 0.81857 0.85895 0.35817 0.0
C157 C 0.80076 0.83799 0.37064 0.0
H158 H 0.84246 0.85092 0.33714 0.0
H159 H 0.78586 0.78486 0.37555 0.0
C160 C 0.89204 0.80019 0.3407 0.0
N161 N 0.84389 0.70884 0.32261 0.0
C162 C 0.86987 0.70459 0.32728 0.0
C163 C 0.82788 0.68565 0.31061 0.0
N164 N 0.87103 0.67994 0.31867 0.0
C165 C 0.84451 0.66764 0.3082 0.0
C166 C 0.82812 0.78167 0.30937 0.0
O167 O 0.87062 0.808 0.34594 0.0
O168 O 0.88156 0.77156 0.33389 0.0
O169 O 0.83442 0.75762 0.31071 0.0
O170 O 0.82258 0.79386 0.3224 0.0
O171 O 0.78696 0.70911 0.32997 0.0
H172 H 0.80566 0.6821 0.30405 0.0
H173 H 0.88741 0.71902 0.33706 0.0
O174 O 0.77665 0.74565 0.34264 0.0
O175 O 0.82405 0.75901 0.36548 0.0
O176 O 0.83345 0.72187 0.35297 0.0
C177 C 0.82795 0.73329 0.36621 0.0
H178 H 0.7905 0.84466 0.38112 0.0
H179 H 0.83801 0.64757 0.2993 0.0
Co180 Co 0.90273 0.73824 0.83196 0.0
C181 C 0.90491 0.7978 0.84104 0.0
Co182 Co 0.95158 0.77569 0.84292 0.0
C183 C 0.83088 0.69781 0.82964 0.0
C184 C 0.8549 0.68995 0.8087 0.0
N185 N 0.86149 0.70668 0.82322 0.0
N186 N 0.80544 0.67657 0.81965 0.0
C187 C 0.82032 0.67158 0.80641 0.0
H188 H 0.82735 0.70815 0.84103 0.0
H189 H 0.87398 0.69189 0.80011 0.0
C190 C 0.94866 0.71567 0.8345 0.0
N191 N 0.99275 0.80791 0.85157 0.0
C192 C 0.00852 0.84134 0.84823 0.0
C193 C 0.01394 0.80402 0.86179 0.0
N194 N 0.0387 0.85857 0.8559 0.0
C195 C 0.04239 0.8352 0.86441 0.0
C196 C 0.90613 0.73259 0.86614 0.0
O197 O 0.91916 0.70759 0.82945 0.0
O198 O 0.96761 0.74494 0.84055 0.0
O199 O 0.93576 0.75789 0.86441 0.0
O200 O 0.8871 0.72053 0.85355 0.0
O201 O 0.93481 0.80617 0.84546 0.0
H202 H 0.00914 0.78007 0.86688 0.0
H203 H -0.00164 0.85273 0.83996 0.0
O204 O 0.88629 0.76883 0.83465 0.0
O205 O 0.91891 0.75601 0.8104 0.0
O206 O 0.96759 0.79286 0.82128 0.0
C207 C 0.94907 0.78026 0.80857 0.0
H208 H 0.80718 0.65634 0.79572 0.0
H209 H 0.06394 0.84031 0.87204 0.0
Co210 Co 0.25789 0.16274 0.83188 0.0
C211 C 0.1974 0.10612 0.84027 0.0
Co212 Co 0.221 0.17524 0.84262 0.0
C213 C 0.29755 0.13052 0.82942 0.0
C214 C 0.30618 0.16304 0.80867 0.0
N215 N 0.28901 0.15255 0.82306 0.0
N216 N 0.31906 0.12654 0.81954 0.0
C217 C 0.32451 0.14679 0.80639 0.0
H218 H 0.28696 0.11646 0.84074 0.0
H219 H 0.30473 0.18063 0.80019 0.0
C220 C 0.28199 0.23165 0.83491 0.0
N221 N 0.18913 0.1846 0.85149 0.0
C222 C 0.15704 0.17196 0.8461 0.0
C223 C 0.19127 0.20259 0.86515 0.0
N224 N 0.13901 0.18104 0.85588 0.0
C225 C 0.1603 0.20019 0.86797 0.0
C226 C 0.26279 0.17027 0.86598 0.0
O227 O 0.2895 0.20966 0.8301 0.0
O228 O 0.25248 0.22204 0.84051 0.0
O229 O 0.23845 0.17606 0.86415 0.0
O230 O 0.27462 0.16303 0.85342 0.0
O231 O 0.18967 0.12806 0.84484 0.0
H232 H 0.21362 0.21589 0.8728 0.0
H233 H 0.14659 0.15517 0.83557 0.0
O234 O 0.22634 0.11594 0.83396 0.0
O235 O 0.24109 0.16278 0.81027 0.0
O236 O 0.20445 0.17505 0.82099 0.0
C237 C 0.21719 0.16916 0.80833 0.0
H238 H 0.34021 0.14927 0.79584 0.0
H239 H 0.15382 0.21138 0.87812 0.0
Co240 Co 0.83389 0.09505 0.83205 0.0
C241 C 0.89198 0.09281 0.84064 0.0
Co242 Co 0.82372 0.04687 0.84339 0.0
C243 C 0.87038 0.16641 0.8285 0.0
C244 C 0.82799 0.14492 0.81203 0.0
N245 N 0.84384 0.13668 0.82368 0.0
N246 N 0.8721 0.19286 0.82029 0.0
C247 C 0.84531 0.17967 0.80998 0.0
H248 H 0.8881 0.16872 0.83803 0.0
H249 H 0.80552 0.12688 0.80541 0.0
C250 C 0.76582 0.04959 0.83546 0.0
N251 N 0.81474 0.00552 0.85186 0.0
C252 C 0.83236 0.98976 0.84839 0.0
C253 C 0.78975 0.98425 0.8621 0.0
N254 N 0.81951 0.95954 0.85602 0.0
C255 C 0.79252 0.95578 0.86463 0.0
C256 C 0.82672 0.09248 0.86646 0.0
O257 O 0.78682 0.07901 0.83016 0.0
O258 O 0.7767 0.03096 0.84135 0.0
O259 O 0.82267 0.06288 0.86506 0.0
O260 O 0.8328 0.11069 0.85362 0.0
O261 O 0.87091 0.06335 0.84574 0.0
H262 H 0.77069 0.98903 0.86732 0.0
H263 H 0.85387 0.0 0.84009 0.0
O264 O 0.88108 0.11075 0.83404 0.0
O265 O 0.83442 0.07929 0.81059 0.0
O266 O 0.82436 0.03103 0.82142 0.0
C267 C 0.82935 0.04946 0.80871 0.0
H268 H 0.83917 0.19399 0.80137 0.0
H269 H 0.77621 0.93422 0.87228 0.0
Co270 Co 0.73631 0.90123 0.67328 0.0
C271 C 0.79498 0.90121 0.66369 0.0
Co272 Co 0.77408 0.94827 0.66089 0.0
C273 C 0.69473 0.82975 0.67578 0.0
C274 C 0.68914 0.85385 0.69731 0.0
N275 N 0.70463 0.86041 0.68244 0.0
N276 N 0.67402 0.8043 0.68589 0.0
C277 C 0.67048 0.81921 0.69953 0.0
H278 H 0.70407 0.82612 0.66409 0.0
H279 H 0.69219 0.87294 0.70618 0.0
C280 C 0.71482 0.94758 0.66974 0.0
N281 N 0.80662 0.98894 0.65178 0.0
C282 C 0.84003 0.0048 0.65523 0.0
C283 C 0.80287 0.01007 0.64145 0.0
N284 N 0.85736 0.03502 0.64757 0.0
C285 C 0.83408 0.03857 0.6389 0.0
C286 C 0.72931 0.90195 0.63883 0.0
O287 O 0.70638 0.91855 0.67564 0.0
O288 O 0.74381 0.96516 0.66312 0.0
O289 O 0.75554 0.93121 0.63958 0.0
O290 O 0.71764 0.88486 0.65202 0.0
O291 O 0.80368 0.93066 0.65842 0.0
H292 H 0.77896 0.00532 0.63633 0.0
H293 H 0.85129 0.9948 0.66368 0.0
O294 O 0.76648 0.88396 0.67077 0.0
O295 O 0.75479 0.91816 0.69443 0.0
O296 O 0.79214 0.96526 0.68242 0.0
C297 C 0.77983 0.94803 0.69555 0.0
H298 H 0.65609 0.80605 0.71042 0.0
H299 H 0.83922 0.06015 0.63128 0.0
Co300 Co 0.09332 0.83582 0.67063 0.0
C301 C 0.08924 0.89225 0.66181 0.0
Co302 Co 0.04394 0.82305 0.65978 0.0
C303 C 0.16522 0.86793 0.67284 0.0
C304 C 0.14166 0.8367 0.69402 0.0
N305 N 0.13475 0.8464 0.67946 0.0
N306 N 0.19086 0.87233 0.68272 0.0
C307 C 0.17629 0.85292 0.69613 0.0
H308 H 0.16854 0.88136 0.66132 0.0
H309 H 0.12277 0.81966 0.70272 0.0
C310 C 0.04862 0.76688 0.66794 0.0
N311 N 0.00257 0.81321 0.65091 0.0
C312 C 0.98262 0.82522 0.65637 0.0
C313 C 0.98668 0.79479 0.63735 0.0
N314 N 0.95512 0.81527 0.64677 0.0
C315 C 0.95756 0.79627 0.63469 0.0
C316 C 0.09069 0.82744 0.63655 0.0
O317 O 0.07816 0.78892 0.67269 0.0
O318 O 0.0288 0.77644 0.66219 0.0
O319 O 0.06057 0.82173 0.63826 0.0
O320 O 0.1097 0.83505 0.64915 0.0
O321 O 0.05958 0.87015 0.65729 0.0
H322 H 0.99596 0.78166 0.62973 0.0
H323 H 0.98875 0.84201 0.66689 0.0
O324 O 0.10841 0.88263 0.66825 0.0
O325 O 0.07648 0.83618 0.69222 0.0
O326 O 0.02757 0.82361 0.6814 0.0
C327 C 0.04613 0.82966 0.6941 0.0
H328 H 0.18969 0.851 0.70676 0.0
H329 H 0.93965 0.78444 0.62468 0.0
Co330 Co 0.16207 0.2595 0.67157 0.0
C331 C 0.10414 0.19985 0.66255 0.0
Co332 Co 0.17274 0.22236 0.65966 0.0
C333 C 0.13099 0.30006 0.67459 0.0
C334 C 0.1622 0.30656 0.69562 0.0
N335 N 0.15251 0.29074 0.68086 0.0
N336 N 0.1265 0.32069 0.68488 0.0
C337 C 0.14595 0.32482 0.69819 0.0
H338 H 0.11744 0.29043 0.66305 0.0
H339 H 0.17904 0.30402 0.70418 0.0
C340 C 0.23045 0.28243 0.66801 0.0
N341 N 0.1814 0.19027 0.65048 0.0
C342 C 0.16408 0.15685 0.65389 0.0
C343 C 0.20593 0.19419 0.63986 0.0
N344 N 0.17669 0.13965 0.64589 0.0
C345 C 0.20319 0.16304 0.63708 0.0
C346 C 0.16941 0.26614 0.63729 0.0
O347 O 0.20931 0.28991 0.67412 0.0
O348 O 0.21974 0.2537 0.66121 0.0
O349 O 0.17245 0.23992 0.63822 0.0
O350 O 0.16438 0.2783 0.65041 0.0
O351 O 0.12555 0.19147 0.65796 0.0
H352 H 0.22474 0.21815 0.63463 0.0
H353 H 0.14306 0.14543 0.66248 0.0
O354 O 0.1147 0.22898 0.6688 0.0
O355 O 0.16044 0.24082 0.69273 0.0
O356 O 0.17356 0.20542 0.68121 0.0
C357 C 0.16727 0.21714 0.69416 0.0
H358 H 0.14772 0.3394 0.7091 0.0
H359 H 0.21927 0.15797 0.62914 0.0
Co360 Co 0.71308 0.55453 0.49315 0.0
C361 C 0.71531 0.61462 0.50161 0.0
Co362 Co 0.76044 0.59159 0.50545 0.0
C363 C 0.65621 0.48917 0.48727 0.0
C364 C 0.65136 0.52683 0.47371 0.0
N365 N 0.67224 0.52265 0.48404 0.0
N366 N 0.62618 0.47219 0.47944 0.0
C367 C 0.62283 0.49576 0.47093 0.0
H368 H 0.66601 0.47756 0.49562 0.0
H369 H 0.65637 0.55091 0.4687 0.0
C370 C 0.75871 0.53172 0.49627 0.0
N371 N 0.80143 0.62283 0.51449 0.0
C372 C 0.83146 0.62664 0.50981 0.0
C373 C 0.80896 0.64621 0.52645 0.0
N374 N 0.85744 0.65109 0.51838 0.0
C375 C 0.84362 0.66385 0.52881 0.0
C376 C 0.71334 0.54951 0.52791 0.0
O377 O 0.72964 0.52388 0.49078 0.0
O378 O 0.77631 0.56011 0.50336 0.0
O379 O 0.74337 0.57417 0.52661 0.0
O380 O 0.69581 0.53693 0.51486 0.0
O381 O 0.74428 0.62258 0.5074 0.0
H382 H 0.7905 0.65007 0.53303 0.0
H383 H 0.83432 0.61193 0.50008 0.0
O384 O 0.6971 0.58553 0.49521 0.0
O385 O 0.73052 0.57279 0.47176 0.0
O386 O 0.77744 0.60955 0.48419 0.0
C387 C 0.76022 0.59839 0.471 0.0
H388 H 0.60144 0.49087 0.46322 0.0
H389 H 0.85746 0.6839 0.53769 0.0
Co390 Co 0.44141 0.15717 0.4946 0.0
C391 C 0.38201 0.10026 0.50432 0.0
Co392 Co 0.40444 0.16866 0.50606 0.0
C393 C 0.50666 0.16508 0.48887 0.0
C394 C 0.46869 0.12209 0.47572 0.0
N395 N 0.47315 0.14772 0.48569 0.0
N396 N 0.52339 0.15137 0.48138 0.0
C397 C 0.4996 0.12417 0.4731 0.0
H398 H 0.51843 0.18684 0.497 0.0
H399 H 0.4445 0.10287 0.47088 0.0
C400 C 0.46341 0.22578 0.4958 0.0
N401 N 0.37346 0.17876 0.51511 0.0
C402 C 0.36387 0.19975 0.50846 0.0
C403 C 0.35791 0.16984 0.52996 0.0
N404 N 0.3433 0.20465 0.51859 0.0
C405 C 0.33951 0.18604 0.5322 0.0
C406 C 0.44805 0.16602 0.52887 0.0
O407 O 0.47171 0.20414 0.49149 0.0
O408 O 0.43474 0.21564 0.50249 0.0
O409 O 0.42373 0.17184 0.52725 0.0
O410 O 0.4598 0.15925 0.51609 0.0
O411 O 0.3742 0.12188 0.50935 0.0
H412 H 0.36068 0.15356 0.53878 0.0
H413 H 0.37323 0.21262 0.49674 0.0
O414 O 0.41077 0.11037 0.49767 0.0
O415 O 0.42232 0.15458 0.47315 0.0
O416 O 0.38504 0.16483 0.48496 0.0
C417 C 0.39636 0.15806 0.47205 0.0
H418 H 0.5042 0.1071 0.4657 0.0
H419 H 0.32508 0.18481 0.54307 0.0
Co420 Co 0.83935 0.28327 0.49343 0.0
C421 C 0.89685 0.28054 0.50158 0.0
Co422 Co 0.82847 0.23525 0.50522 0.0
C423 C 0.83598 0.34397 0.48984 0.0
C424 C 0.86479 0.33924 0.47018 0.0
N425 N 0.84802 0.32412 0.48423 0.0
N426 N 0.84429 0.37065 0.47985 0.0
C427 C 0.86229 0.36778 0.46739 0.0
H428 H 0.82017 0.33822 0.50071 0.0
H429 H 0.87733 0.32974 0.46229 0.0
C430 C 0.77083 0.23757 0.49631 0.0
N431 N 0.81862 0.19416 0.51433 0.0
C432 C 0.79748 0.16351 0.50774 0.0
C433 C 0.82778 0.18754 0.52912 0.0
N434 N 0.79273 0.13804 0.51784 0.0
C435 C 0.81158 0.15293 0.53138 0.0
C436 C 0.83391 0.28259 0.528 0.0
O437 O 0.79236 0.26749 0.49194 0.0
O438 O 0.78119 0.21865 0.50234 0.0
O439 O 0.82667 0.25198 0.52645 0.0
O440 O 0.84064 0.30087 0.51512 0.0
O441 O 0.87568 0.25202 0.50781 0.0
H442 H 0.84423 0.20662 0.53789 0.0
H443 H 0.78438 0.15995 0.49609 0.0
O444 O 0.88623 0.29862 0.49474 0.0
O445 O 0.83857 0.26521 0.4719 0.0
O446 O 0.83095 0.21897 0.48406 0.0
C447 C 0.83583 0.23608 0.47095 0.0
H448 H 0.87267 0.38495 0.45699 0.0
H449 H 0.81302 0.13975 0.54222 0.0
Co450 Co 0.88758 0.37995 0.67684 0.0
C451 C 0.9481 0.38293 0.66856 0.0
Co452 Co 0.92466 0.42781 0.66491 0.0
C453 C 0.82227 0.32255 0.68215 0.0
C454 C 0.85974 0.31768 0.69586 0.0
N455 N 0.85565 0.33872 0.68561 0.0
N456 N 0.80525 0.29229 0.68977 0.0
C457 C 0.82871 0.28893 0.69838 0.0
H458 H 0.81076 0.33247 0.67381 0.0
H459 H 0.88372 0.32275 0.70102 0.0
C460 C 0.8644 0.42538 0.67385 0.0
N461 N 0.95601 0.46916 0.65619 0.0
C462 C 0.96012 0.49915 0.66119 0.0
C463 C 0.97945 0.47691 0.64425 0.0
N464 N 0.98491 0.52535 0.65285 0.0
C465 C 0.99746 0.51164 0.64221 0.0
C466 C 0.88334 0.38109 0.64208 0.0
O467 O 0.85658 0.39615 0.67911 0.0
O468 O 0.893 0.44343 0.66701 0.0
O469 O 0.90772 0.41127 0.64355 0.0
O470 O 0.87073 0.36323 0.65503 0.0
O471 O 0.95585 0.41194 0.66292 0.0
H472 H 0.98315 0.45855 0.63747 0.0
H473 H 0.94543 0.50179 0.671 0.0
O474 O 0.91898 0.36437 0.67487 0.0
O475 O 0.90501 0.39679 0.69835 0.0
O476 O 0.94207 0.44419 0.68637 0.0
C477 C 0.93048 0.42652 0.69941 0.0
H478 H 0.82376 0.26741 0.706 0.0
H479 H 0.01767 0.52562 0.63344 0.0
Co480 Co 0.61573 0.50631 0.67652 0.0
C481 C 0.61395 0.56442 0.66854 0.0
Co482 Co 0.56797 0.49623 0.66471 0.0
C483 C 0.67599 0.5021 0.68018 0.0
C484 C 0.67139 0.53085 0.69991 0.0
N485 N 0.65632 0.51435 0.6858 0.0
N486 N 0.70251 0.51002 0.69022 0.0
C487 C 0.69971 0.52798 0.70273 0.0
H488 H 0.67025 0.48644 0.66925 0.0
H489 H 0.66201 0.54349 0.70781 0.0
C490 C 0.56938 0.438 0.67351 0.0
N491 N 0.52717 0.48697 0.6555 0.0
C492 C 0.49636 0.46543 0.6618 0.0
C493 C 0.52097 0.49681 0.64081 0.0
N494 N 0.47117 0.46106 0.6516 0.0
C495 C 0.48643 0.48062 0.6383 0.0
C496 C 0.61516 0.50107 0.64197 0.0
O497 O 0.59934 0.4592 0.67797 0.0
O498 O 0.55082 0.44879 0.66746 0.0
O499 O 0.58474 0.49442 0.64352 0.0
O500 O 0.63336 0.5074 0.65485 0.0
O501 O 0.58532 0.54361 0.66228 0.0
H502 H 0.54029 0.51368 0.63223 0.0
H503 H 0.4925 0.45176 0.67329 0.0
O504 O 0.63172 0.55331 0.67525 0.0
O505 O 0.5976 0.50573 0.69803 0.0
O506 O 0.5516 0.49867 0.68582 0.0
C507 C 0.56862 0.50335 0.69895 0.0
H508 H 0.7168 0.53812 0.71316 0.0
H509 H 0.47357 0.48251 0.62744 0.0
Co510 Co 0.49027 0.10818 0.67642 0.0
C511 C 0.43229 0.04886 0.66743 0.0
Co512 Co 0.50036 0.07043 0.66473 0.0
C513 C 0.49914 0.17392 0.68173 0.0
C514 C 0.4567 0.13684 0.69554 0.0
N515 N 0.48167 0.14057 0.68528 0.0
N516 N 0.48615 0.19126 0.68927 0.0
C517 C 0.45929 0.16804 0.69795 0.0
H518 H 0.52046 0.18515 0.67332 0.0
H519 H 0.43759 0.11297 0.70071 0.0
C520 C 0.55847 0.12944 0.67442 0.0
N521 N 0.50987 0.03885 0.65581 0.0
C522 C 0.53059 0.02907 0.66263 0.0
C523 C 0.50143 0.02352 0.6409 0.0
N524 N 0.5358 0.00862 0.65256 0.0
C525 C 0.51766 0.00509 0.6388 0.0
C526 C 0.49762 0.11378 0.64196 0.0
O527 O 0.53731 0.13831 0.67877 0.0
O528 O 0.54769 0.10037 0.66806 0.0
O529 O 0.50346 0.08945 0.64352 0.0
O530 O 0.49115 0.12565 0.65479 0.0
O531 O 0.45313 0.04063 0.66164 0.0
H532 H 0.4856 0.0266 0.6319 0.0
H533 H 0.54323 0.03838 0.67439 0.0
O534 O 0.44341 0.07765 0.67421 0.0
O535 O 0.4889 0.09008 0.69795 0.0
O536 O 0.49662 0.05133 0.68593 0.0
C537 C 0.49129 0.06348 0.69896 0.0
H538 H 0.44282 0.17324 0.70551 0.0
H539 H 0.51689 0.99092 0.6279 0.0
Co540 Co 0.56846 0.07293 0.16549 0.0
C541 C 0.57011 0.13248 0.17497 0.0
Co542 Co 0.61634 0.11033 0.17721 0.0
C543 C 0.4972 0.03672 0.16171 0.0
C544 C 0.52009 0.01903 0.14425 0.0
N545 N 0.52738 0.0415 0.15663 0.0
N546 N 0.47134 0.01251 0.15298 0.0
C547 C 0.48542 0.00095 0.14202 0.0
H548 H 0.49418 0.05064 0.17179 0.0
H549 H 0.53873 0.01619 0.13723 0.0
C550 C 0.6142 0.0506 0.16833 0.0
N551 N 0.65735 0.14223 0.18614 0.0
C552 C 0.67356 0.17568 0.18282 0.0
C553 C 0.67806 0.138 0.19654 0.0
N554 N 0.70356 0.19258 0.19067 0.0
C555 C 0.70668 0.16899 0.19929 0.0
C556 C 0.57017 0.06608 0.19976 0.0
O557 O 0.5852 0.04272 0.16266 0.0
O558 O 0.63226 0.07934 0.17507 0.0
O559 O 0.59938 0.09235 0.19874 0.0
O560 O 0.55261 0.05417 0.18673 0.0
O561 O 0.59996 0.14107 0.17952 0.0
H562 H 0.67284 0.11393 0.20167 0.0
H563 H 0.66386 0.18731 0.17442 0.0
O564 O 0.55187 0.10352 0.16852 0.0
O565 O 0.5845 0.09125 0.14426 0.0
O566 O 0.63308 0.12758 0.1555 0.0
C567 C 0.61473 0.11545 0.14266 0.0
H568 H 0.47175 0.98151 0.13284 0.0
H569 H 0.72795 0.17382 0.20708 0.0
Co570 Co 0.92346 0.49655 0.16578 0.0
C571 C 0.8637 0.43975 0.17506 0.0
Co572 Co 0.8865 0.50875 0.17673 0.0
C573 C 0.96286 0.46394 0.16344 0.0
C574 C 0.97147 0.4962 0.14258 0.0
N575 N 0.95467 0.48625 0.15709 0.0
N576 N 0.98369 0.45916 0.15342 0.0
C577 C 0.98917 0.47931 0.14023 0.0
H578 H 0.95227 0.45007 0.17482 0.0
H579 H 0.96998 0.51365 0.13402 0.0
C580 C 0.9467 0.56537 0.16812 0.0
N581 N 0.85431 0.518 0.18523 0.0
C582 C 0.82089 0.50003 0.1819 0.0
C583 C 0.858 0.54346 0.19513 0.0
N584 N 0.80345 0.5131 0.18926 0.0
C585 C 0.82668 0.5406 0.19756 0.0
C586 C 0.92938 0.50603 0.19994 0.0
O587 O 0.9545 0.54366 0.16317 0.0
O588 O 0.91749 0.5554 0.17418 0.0
O589 O 0.90441 0.51092 0.19824 0.0
O590 O 0.94106 0.49861 0.18734 0.0
O591 O 0.85582 0.46165 0.17945 0.0
H592 H 0.88189 0.56296 0.2001 0.0
H593 H 0.80963 0.47818 0.17381 0.0
O594 O 0.89248 0.4496 0.16857 0.0
O595 O 0.90578 0.49493 0.14424 0.0
O596 O 0.86934 0.50739 0.15507 0.0
C597 C 0.88172 0.50112 0.14238 0.0
H598 H 0.0043 0.48116 0.12954 0.0
H599 H 0.8214 0.55728 0.2049 0.0
Co600 Co 0.49853 0.42858 0.16386 0.0
C601 C 0.55625 0.42613 0.1729 0.0
Co602 Co 0.48773 0.38049 0.17554 0.0
C603 C 0.53437 0.49996 0.16062 0.0
C604 C 0.4938 0.47827 0.14312 0.0
N605 N 0.50874 0.47013 0.15527 0.0
N606 N 0.53639 0.52643 0.15229 0.0
C607 C 0.51075 0.51308 0.1413 0.0
H608 H 0.5511 0.50229 0.17067 0.0
H609 H 0.47215 0.46014 0.13603 0.0
C610 C 0.43022 0.38358 0.16729 0.0
N611 N 0.47848 0.33922 0.18426 0.0
C612 C 0.49605 0.32334 0.18095 0.0
C613 C 0.45346 0.31815 0.19455 0.0
N614 N 0.48318 0.29327 0.18873 0.0
C615 C 0.45619 0.2897 0.19726 0.0
C616 C 0.49099 0.42683 0.19821 0.0
O617 O 0.45146 0.41247 0.1615 0.0
O618 O 0.4408 0.36512 0.17372 0.0
O619 O 0.48739 0.39735 0.19714 0.0
O620 O 0.49664 0.44442 0.18519 0.0
O621 O 0.53485 0.39644 0.17758 0.0
H622 H 0.43442 0.32306 0.19968 0.0
H623 H 0.51757 0.33338 0.17266 0.0
O624 O 0.54569 0.44451 0.16647 0.0
O625 O 0.49984 0.41246 0.1425 0.0
O626 O 0.48759 0.36386 0.15375 0.0
C627 C 0.49357 0.38213 0.1409 0.0
H628 H 0.50512 0.52734 0.13241 0.0
H629 H 0.43988 0.26829 0.205 0.0
Co630 Co 0.40525 0.23532 0.00357 0.0
C631 C 0.46535 0.23862 0.99503 0.0
Co632 Co 0.44226 0.28481 0.9931 0.0
C633 C 0.36532 0.16346 0.00632 0.0
C634 C 0.35654 0.18809 0.0267 0.0
N635 N 0.37385 0.19423 0.01237 0.0
N636 N 0.34374 0.13837 0.01637 0.0
C637 C 0.33817 0.15363 0.02927 0.0
H638 H 0.37606 0.15958 0.99515 0.0
H639 H 0.35801 0.20744 0.03497 0.0
C640 C 0.38152 0.28057 1.00102 0.0
N641 N 0.47429 0.32609 0.98448 0.0
C642 C 0.50782 0.34167 0.98753 0.0
C643 C 0.47024 0.34734 0.97438 0.0
N644 N 0.52496 0.37176 0.97978 0.0
C645 C 0.50143 0.37563 0.97153 0.0
C646 C 0.40018 0.23892 0.96956 0.0
O647 O 0.37388 0.25087 0.00549 0.0
O648 O 0.41115 0.3006 0.99561 0.0
O649 O 0.42453 0.26901 0.97157 0.0
O650 O 0.38847 0.21932 0.98197 0.0
O651 O 0.47308 0.2683 0.9905 0.0
H652 H 0.44619 0.34264 0.96947 0.0
H653 H 0.51938 0.33141 0.99563 0.0
O654 O 0.43647 0.21958 1.0014 0.0
O655 O 0.4221 0.25178 0.02519 0.0
O656 O 0.45934 0.30071 0.01471 0.0
C657 C 0.44628 0.28187 0.02727 0.0
H658 H 0.32247 0.1408 0.03988 0.0
H659 H 0.50645 0.39715 0.96389 0.0
Co660 Co 0.76105 0.16578 0.00625 0.0
C661 C 0.75988 0.22372 0.99665 0.0
Co662 Co 0.71302 0.15553 0.99472 0.0
C663 C 0.83267 0.1961 0.00842 0.0
C664 C 0.80891 0.1667 0.03007 0.0
N665 N 0.80213 0.17533 0.01518 0.0
N666 N 0.85825 0.20118 0.01851 0.0
C667 C 0.84354 0.1829 0.03223 0.0
H668 H 0.8361 0.20886 0.99668 0.0
H669 H 0.78994 0.15077 0.03902 0.0
C670 C 0.71467 0.0977 0.0036 0.0
N671 N 0.67206 0.14687 0.98581 0.0
C672 C 0.65606 0.16434 0.98912 0.0
C673 C 0.65125 0.12203 0.97538 0.0
N674 N 0.62608 0.15146 0.98124 0.0
C675 C 0.62281 0.12469 0.97261 0.0
C676 C 0.75881 0.15683 0.97206 0.0
O677 O 0.74375 0.11864 0.00933 0.0
O678 O 0.69681 0.10866 0.99689 0.0
O679 O 0.7298 0.15433 0.97319 0.0
O680 O 0.77643 0.16212 0.98504 0.0
O681 O 0.7298 0.2025 0.99241 0.0
H682 H 0.65629 0.10307 0.97026 0.0
H683 H 0.66589 0.18567 0.99751 0.0
O684 O 0.77833 0.21305 0.00293 0.0
O685 O 0.74513 0.16884 0.02747 0.0
O686 O 0.69641 0.15631 0.01637 0.0
C687 C 0.71496 0.16291 0.02914 0.0
H688 H 0.85685 0.18199 0.04313 0.0
H689 H 0.60154 0.10838 0.96479 0.0
Co690 Co 0.829 0.58948 0.00378 0.0
C691 C 0.77282 0.52883 0.99491 0.0
Co692 Co 0.84201 0.55284 0.99334 0.0
C693 C 0.79216 0.62433 0.00694 0.0
C694 C 0.83344 0.64383 0.02407 0.0
N695 N 0.81812 0.62047 0.01206 0.0
N696 N 0.79044 0.64898 0.01526 0.0
C697 C 0.81648 0.66158 0.02602 0.0
H698 H 0.775 0.60953 0.9971 0.0
H699 H 0.85537 0.64759 0.03098 0.0
C700 C 0.89789 0.61393 1.0016 0.0
N701 N 0.85243 0.52137 0.9851 0.0
C702 C 0.83514 0.48791 0.98834 0.0
C703 C 0.8785 0.52594 0.97543 0.0
N704 N 0.84923 0.47129 0.98113 0.0
C705 C 0.87668 0.49509 0.97303 0.0
C706 C 0.83804 0.59435 0.96966 0.0
O707 O 0.87568 0.62163 0.00567 0.0
O708 O 0.88855 0.58427 0.99637 0.0
O709 O 0.84472 0.57064 0.97172 0.0
O710 O 0.82938 0.60548 0.98202 0.0
O711 O 0.79495 0.5215 0.9902 0.0
H712 H 0.8977 0.55011 0.97058 0.0
H713 H 0.81299 0.47605 0.99623 0.0
O714 O 0.78241 0.55732 1.00164 0.0
O715 O 0.82895 0.5735 0.02558 0.0
O716 O 0.84002 0.5358 0.01505 0.0
C717 C 0.83452 0.54906 0.02764 0.0
H718 H 0.82241 0.68166 0.03483 0.0
H719 H 0.89399 0.49051 0.96581 0.0
Co720 Co 0.38058 0.88964 0.82802 0.0
C721 C 0.38283 0.94953 0.83631 0.0
Co722 Co 0.42877 0.92722 0.83944 0.0
C723 C 0.31992 0.82558 0.82448 0.0
C724 C 0.32463 0.85914 0.80484 0.0
N725 N 0.33979 0.85743 0.81886 0.0
N726 N 0.29318 0.8073 0.81452 0.0
C727 C 0.29604 0.82816 0.80206 0.0
H728 H 0.32564 0.81549 0.83535 0.0
H729 H 0.33412 0.88122 0.79696 0.0
C730 C 0.42687 0.86751 0.8304 0.0
N731 N 0.46975 0.95863 0.8485 0.0
C732 C 0.50037 0.96836 0.84185 0.0
C733 C 0.47633 0.97409 0.86337 0.0
N734 N 0.52581 0.98892 0.852 0.0
C735 C 0.51094 0.99254 0.86563 0.0
C736 C 0.38215 0.88501 0.86247 0.0
O737 O 0.39669 0.85872 0.82634 0.0
O738 O 0.44578 0.89693 0.83629 0.0
O739 O 0.41258 0.90851 0.86059 0.0
O740 O 0.36329 0.87312 0.8498 0.0
O741 O 0.41161 0.95726 0.84231 0.0
H742 H 0.45725 0.97114 0.87223 0.0
H743 H 0.50396 0.95903 0.83015 0.0
O744 O 0.36487 0.92078 0.82951 0.0
O745 O 0.39833 0.90708 0.80644 0.0
O746 O 0.44462 0.9462 0.81833 0.0
C747 C 0.42728 0.93365 0.80532 0.0
H748 H 0.27879 0.82142 0.79171 0.0
H749 H 0.52412 0.00685 0.87654 0.0
Co750 Co 0.10956 0.4916 0.82666 0.0
C751 C 0.04956 0.43444 0.8355 0.0
Co752 Co 0.0727 0.50292 0.8384 0.0
C753 C 0.17509 0.50023 0.8209 0.0
C754 C 0.13747 0.45726 0.8076 0.0
N755 N 0.14159 0.48262 0.81767 0.0
N756 N 0.19213 0.48695 0.81333 0.0
C757 C 0.16857 0.45976 0.80496 0.0
H758 H 0.18663 0.52186 0.82912 0.0
H759 H 0.1134 0.43795 0.80269 0.0
C760 C 0.132 0.56036 0.82897 0.0
N761 N 0.04148 0.51252 0.84757 0.0
C762 C 0.03197 0.5338 0.84123 0.0
C763 C 0.02536 0.50252 0.86225 0.0
N764 N 0.01088 0.53782 0.85139 0.0
C765 C 0.00669 0.51836 0.86471 0.0
C766 C 0.11522 0.49847 0.86114 0.0
O767 O 0.13988 0.53884 0.82393 0.0
O768 O 0.10353 0.55005 0.83592 0.0
O769 O 0.09079 0.50413 0.85963 0.0
O770 O 0.12753 0.49278 0.84823 0.0
O771 O 0.04201 0.45612 0.84072 0.0
H772 H 0.02783 0.48564 0.87081 0.0
H773 H 0.04168 0.54744 0.82972 0.0
O774 O 0.07865 0.4445 0.82923 0.0
O775 O 0.09102 0.48992 0.80525 0.0
O776 O 0.05437 0.50103 0.81711 0.0
C777 C 0.0656 0.49427 0.80414 0.0
H778 H 0.17346 0.44297 0.79748 0.0
H779 H 0.99174 0.51627 0.87552 0.0
Co780 Co 0.5084 0.61974 0.82687 0.0
C781 C 0.56532 0.61613 0.83563 0.0
Co782 Co 0.49679 0.5715 0.83865 0.0
C783 C 0.50129 0.6776 0.82169 0.0
C784 C 0.54342 0.68218 0.8079 0.0
N785 N 0.51825 0.6612 0.81814 0.0
N786 N 0.51471 0.70794 0.81413 0.0
C787 C 0.5414 0.7111 0.80547 0.0
H788 H 0.47991 0.66778 0.83006 0.0
H789 H 0.56219 0.67694 0.80269 0.0
C790 C 0.43966 0.57469 0.82918 0.0
N791 N 0.48609 0.5299 0.84735 0.0
C792 C 0.46007 0.50012 0.84222 0.0
C793 C 0.50104 0.52177 0.85951 0.0
N794 N 0.45785 0.47371 0.85069 0.0
C795 C 0.48374 0.48702 0.86154 0.0
C796 C 0.50174 0.6181 0.86149 0.0
O797 O 0.46146 0.60427 0.82454 0.0
O798 O 0.44971 0.55598 0.83573 0.0
O799 O 0.49514 0.58767 0.85995 0.0
O800 O 0.5082 0.6364 0.84862 0.0
O801 O 0.54377 0.58727 0.84133 0.0
H802 H 0.52294 0.53988 0.86647 0.0
H803 H 0.44318 0.49775 0.83224 0.0
O804 O 0.55513 0.63472 0.829 0.0
O805 O 0.50909 0.60277 0.80529 0.0
O806 O 0.49904 0.55555 0.81738 0.0
C807 C 0.50523 0.57316 0.80433 0.0
H808 H 0.55807 0.73262 0.79786 0.0
H809 H 0.48928 0.47277 0.87048 0.0
Co810 Co 0.55329 0.71088 0.01039 0.0
C811 C 0.61353 0.71434 0.00219 0.0
Co812 Co 0.59048 0.75997 0.99951 0.0
C813 C 0.48895 0.6505 0.01366 0.0
C814 C 0.52296 0.65337 0.03267 0.0
N815 N 0.52102 0.66968 0.01914 0.0
N816 N 0.47077 0.6231 0.02324 0.0
C817 C 0.4919 0.62478 0.03531 0.0
H818 H 0.47867 0.65715 0.00318 0.0
H819 H 0.54527 0.66203 0.0403 0.0
C820 C 0.53069 0.75713 0.00821 0.0
N821 N 0.62203 0.80125 0.99083 0.0
C822 C 0.63116 0.83174 0.99748 0.0
C823 C 0.63891 0.80814 0.97634 0.0
N824 N 0.65276 0.85736 0.9877 0.0
C825 C 0.65765 0.84277 0.9743 0.0
C826 C 0.54925 0.71364 0.97601 0.0
O827 O 0.52287 0.72769 0.01321 0.0
O828 O 0.55924 0.77557 1.00142 0.0
O829 O 0.5739 0.74352 0.97792 0.0
O830 O 0.53602 0.69518 0.98869 0.0
O831 O 0.62166 0.74421 0.99776 0.0
H832 H 0.63695 0.78923 0.96763 0.0
H833 H 0.62085 0.83511 0.00892 0.0
O834 O 0.58391 0.69464 0.00773 0.0
O835 O 0.57139 0.72678 0.03188 0.0
O836 O 0.60709 0.77614 0.02115 0.0
C837 C 0.59562 0.75695 0.0337 0.0
H838 H 0.48531 0.60673 0.04529 0.0
H839 H 0.67317 0.85618 0.96373 0.0
Co840 Co 0.28519 0.84061 0.01083 0.0
C841 C 0.28194 0.89771 0.00272 0.0
Co842 Co 0.23663 0.82931 0.99957 0.0
C843 C 0.34578 0.83734 0.01404 0.0
C844 C 0.34225 0.86753 0.03336 0.0
N845 N 0.32629 0.84973 0.01966 0.0
N846 N 0.37306 0.84645 0.02368 0.0
C847 C 0.37098 0.86528 0.03594 0.0
H848 H 0.33944 0.82081 0.00341 0.0
H849 H 0.33325 0.88069 0.04113 0.0
C850 C 0.23947 0.77193 0.00831 0.0
N851 N 0.19536 0.81946 0.99091 0.0
C852 C 0.16534 0.79376 0.99598 0.0
C853 C 0.18774 0.83491 0.9788 0.0
N854 N 0.13924 0.7922 0.98749 0.0
C855 C 0.15304 0.81819 0.97671 0.0
C856 C 0.28319 0.83465 0.97631 0.0
O857 O 0.26912 0.79344 0.01306 0.0
O858 O 0.22098 0.78232 1.00183 0.0
O859 O 0.25303 0.82882 0.97799 0.0
O860 O 0.30139 0.8402 0.98913 0.0
O861 O 0.25261 0.87628 0.99751 0.0
H862 H 0.20618 0.85671 0.9719 0.0
H863 H 0.16263 0.77659 0.00588 0.0
O864 O 0.30091 0.88745 0.00883 0.0
O865 O 0.26871 0.84161 0.03229 0.0
O866 O 0.2203 0.83022 0.02117 0.0
C867 C 0.23893 0.83687 0.03388 0.0
H868 H 0.38882 0.87644 0.04603 0.0
H869 H 0.13914 0.82417 0.96776 0.0
Co870 Co 0.1559 0.44149 0.0098 0.0
C871 C 0.09797 0.38121 1.00155 0.0
Co872 Co 0.16609 0.40416 0.99768 0.0
C873 C 0.16496 0.50712 0.01547 0.0
C874 C 0.12211 0.46986 0.02898 0.0
N875 N 0.14709 0.47365 0.01871 0.0
N876 N 0.15231 0.52448 0.02327 0.0
C877 C 0.12516 0.50116 0.03175 0.0
H878 H 0.18647 0.51848 0.00718 0.0
H879 H 0.10284 0.44592 0.03402 0.0
C880 C 0.22418 0.46411 0.00665 0.0
N881 N 0.17603 0.37278 0.98888 0.0
C882 C 0.20246 0.36938 0.99364 0.0
C883 C 0.16027 0.34905 0.97706 0.0
N884 N 0.20423 0.34486 0.98525 0.0
C885 C 0.17757 0.33163 0.97486 0.0
C886 C 0.16114 0.44598 0.97504 0.0
O887 O 0.20306 0.47207 0.01213 0.0
O888 O 0.21334 0.43567 0.99963 0.0
O889 O 0.16631 0.42117 0.97639 0.0
O890 O 0.1563 0.45872 0.98805 0.0
O891 O 0.11894 0.37309 0.99586 0.0
H892 H 0.13785 0.34482 0.97046 0.0
H893 H 0.22002 0.38441 0.0033 0.0
O894 O 0.10889 0.41046 0.00778 0.0
O895 O 0.15509 0.42371 0.03124 0.0
O896 O 0.16533 0.38674 0.01907 0.0
C897 C 0.15936 0.39823 0.03218 0.0
H898 H 0.1089 0.50639 0.03946 0.0
H899 H 0.17147 0.31138 0.96611 0.0
Co900 Co 0.23356 0.40289 0.4967 0.0
C901 C 0.23409 0.46178 0.50621 0.0
Co902 Co 0.281 0.44067 0.50877 0.0
C903 C 0.16197 0.36186 0.49402 0.0
C904 C 0.18634 0.35541 0.47284 0.0
N905 N 0.1927 0.37133 0.48758 0.0
N906 N 0.13667 0.34103 0.48387 0.0
C907 C 0.15177 0.33693 0.47046 0.0
H908 H 0.15824 0.37156 0.50558 0.0
H909 H 0.20557 0.35803 0.46415 0.0
C910 C 0.27976 0.38122 0.4999 0.0
N911 N 0.32186 0.47294 0.51782 0.0
C912 C 0.33837 0.50632 0.51425 0.0
C913 C 0.34255 0.46877 0.52826 0.0
N914 N 0.36861 0.5232 0.52193 0.0
C915 C 0.37145 0.49966 0.53076 0.0
C916 C 0.23472 0.39601 0.53105 0.0
O917 O 0.25069 0.37292 0.49411 0.0
O918 O 0.29752 0.41015 0.50654 0.0
O919 O 0.26395 0.42227 0.53016 0.0
O920 O 0.21741 0.38414 0.51794 0.0
O921 O 0.26375 0.47063 0.51123 0.0
H922 H 0.33723 0.44476 0.53349 0.0
H923 H 0.3288 0.51784 0.50571 0.0
O924 O 0.2165 0.43306 0.4994 0.0
O925 O 0.25011 0.42145 0.47559 0.0
O926 O 0.29792 0.45851 0.48715 0.0
C927 C 0.28005 0.44621 0.4742 0.0
H928 H 0.13878 0.32225 0.4596 0.0
H929 H 0.39281 0.50443 0.53846 0.0
Co930 Co 0.59199 0.82851 0.4987 0.0
C931 C 0.53238 0.77046 0.50766 0.0
Co932 Co 0.5546 0.839 0.51044 0.0
C933 C 0.63335 0.7983 0.49609 0.0
C934 C 0.63928 0.82864 0.47478 0.0
N935 N 0.62355 0.81923 0.48957 0.0
N936 N 0.65423 0.79391 0.48595 0.0
C937 C 0.65799 0.81277 0.47244 0.0
H938 H 0.62389 0.78505 0.50771 0.0
H939 H 0.63641 0.84499 0.46603 0.0
C940 C 0.61443 0.89691 0.50217 0.0
N941 N 0.52227 0.84739 0.5195 0.0
C942 C 0.48887 0.82986 0.51606 0.0
C943 C 0.52594 0.87174 0.53017 0.0
N944 N 0.47145 0.84216 0.5241 0.0
C945 C 0.49466 0.86869 0.53296 0.0
C946 C 0.59837 0.83606 0.53295 0.0
O947 O 0.62227 0.87593 0.49617 0.0
O948 O 0.58554 0.88595 0.50882 0.0
O949 O 0.57213 0.83906 0.53196 0.0
O950 O 0.61057 0.83096 0.51988 0.0
O951 O 0.52405 0.7919 0.5122 0.0
H952 H 0.5498 0.89061 0.53546 0.0
H953 H 0.47764 0.80888 0.50745 0.0
O954 O 0.56157 0.78095 0.50146 0.0
O955 O 0.57351 0.82665 0.47749 0.0
O956 O 0.53767 0.83942 0.48881 0.0
C957 C 0.54959 0.83308 0.47594 0.0
H958 H 0.67259 0.81437 0.46157 0.0
H959 H 0.48938 0.88456 0.54094 0.0
Co960 Co 0.16812 0.75988 0.50002 0.0
C961 C 0.22412 0.75425 0.50798 0.0
Co962 Co 0.15484 0.70989 0.51017 0.0
C963 C 0.20526 0.83152 0.49715 0.0
C964 C 0.16367 0.81041 0.48019 0.0
N965 N 0.17919 0.80191 0.49189 0.0
N966 N 0.2068 0.85822 0.48925 0.0
C967 C 0.18057 0.8452 0.47859 0.0
H968 H 0.22247 0.83351 0.50689 0.0
H969 H 0.14148 0.79252 0.47334 0.0
C970 C 0.09912 0.71608 0.50295 0.0
N971 N 0.14435 0.668 0.51851 0.0
C972 C 0.15647 0.64822 0.51298 0.0
C973 C 0.12557 0.65173 0.53192 0.0
N974 N 0.14633 0.62049 0.52245 0.0
C975 C 0.12701 0.62257 0.53446 0.0
C976 C 0.16049 0.75592 0.53414 0.0
O977 O 0.12143 0.74572 0.49852 0.0
O978 O 0.10831 0.69553 0.50805 0.0
O979 O 0.15405 0.72566 0.53194 0.0
O980 O 0.16849 0.77565 0.5218 0.0
O981 O 0.20185 0.72463 0.51244 0.0
H982 H 0.11237 0.66087 0.53958 0.0
H983 H 0.17362 0.65472 0.50259 0.0
O984 O 0.2147 0.7738 0.50184 0.0
O985 O 0.16737 0.74396 0.47814 0.0
O986 O 0.15491 0.69445 0.48824 0.0
C987 C 0.16069 0.71365 0.47581 0.0
H988 H 0.17437 0.85971 0.47014 0.0
H989 H 0.11508 0.60447 0.54439 0.0
Co990 Co 0.07312 0.5712 0.3368 0.0
C991 C 0.13465 0.57629 0.32903 0.0
Co992 Co 0.11013 0.62098 0.32656 0.0
C993 C 0.03846 0.4996 0.34007 0.0
C994 C 0.01788 0.52117 0.3567 0.0
N995 N 0.04195 0.52936 0.34506 0.0
N996 N 0.01333 0.47312 0.34812 0.0
C997 C 5e-05 0.48643 0.35856 0.0
H998 H 0.05376 0.49733 0.33047 0.0
H999 H 0.01358 0.53925 0.36337 0.0
C1000 C 0.04845 0.6155 0.33362 0.0
N1001 N 0.14177 0.66263 0.31809 0.0
C1002 C 0.17374 0.6822 0.32359 0.0
C1003 C 0.13947 0.67882 0.3046 0.0
N1004 N 0.19156 0.7097 0.31403 0.0
C1005 C 0.17026 0.70773 0.30198 0.0
C1006 C 0.06966 0.57472 0.30268 0.0
O1007 O 0.04073 0.58574 0.33807 0.0
O1008 O 0.0783 0.63577 0.32857 0.0
O1009 O 0.09349 0.60499 0.30481 0.0
O1010 O 0.05781 0.55513 0.31507 0.0
O1011 O 0.14211 0.60586 0.32441 0.0
H1012 H 0.11715 0.66979 0.29694 0.0
H1013 H 0.18425 0.67567 0.33403 0.0
O1014 O 0.10564 0.55696 0.3352 0.0
O1015 O 0.08823 0.5874 0.35864 0.0
O1016 O 0.12574 0.63664 0.34846 0.0
C1017 C 0.11209 0.61762 0.36093 0.0
H1018 H 0.97936 0.47216 0.36706 0.0
H1019 H 0.17661 0.72571 0.29199 0.0
Co1020 Co 0.42868 0.50188 0.33837 0.0
C1021 C 0.4273 0.55995 0.32923 0.0
Co1022 Co 0.38074 0.49143 0.3267 0.0
C1023 C 0.5003 0.53221 0.34094 0.0
C1024 C 0.47588 0.50156 0.36218 0.0
N1025 N 0.46956 0.51113 0.34743 0.0
N1026 N 0.52557 0.53656 0.35108 0.0
C1027 C 0.51045 0.51748 0.36453 0.0
H1028 H 0.50408 0.54561 0.32937 0.0
H1029 H 0.45665 0.48507 0.37088 0.0
C1030 C 0.38253 0.43348 0.33513 0.0
N1031 N 0.33991 0.48305 0.31774 0.0
C1032 C 0.32411 0.50065 0.32122 0.0
C1033 C 0.31898 0.45852 0.30721 0.0
N1034 N 0.29418 0.48819 0.31335 0.0
C1035 C 0.29068 0.46152 0.30455 0.0
C1036 C 0.42707 0.4937 0.30416 0.0
O1037 O 0.41143 0.45448 0.34104 0.0
O1038 O 0.36457 0.44443 0.32849 0.0
O1039 O 0.39791 0.49089 0.30518 0.0
O1040 O 0.44453 0.49903 0.31719 0.0
O1041 O 0.39745 0.53854 0.32476 0.0
H1042 H 0.32383 0.43954 0.30195 0.0
H1043 H 0.33403 0.52175 0.32977 0.0
O1044 O 0.44592 0.5494 0.33546 0.0
O1045 O 0.41235 0.50411 0.35958 0.0
O1046 O 0.36372 0.49146 0.34834 0.0
C1047 C 0.38207 0.49787 0.36117 0.0
H1048 H 0.52343 0.51578 0.37538 0.0
H1049 H 0.26934 0.44549 0.29671 0.0
Co1050 Co 0.49577 0.9273 0.33994 0.0
C1051 C 0.43804 0.86828 0.33035 0.0
Co1052 Co 0.50638 0.88987 0.32824 0.0
C1053 C 0.46536 0.96847 0.34227 0.0
C1054 C 0.49549 0.9746 0.36369 0.0
N1055 N 0.48619 0.9587 0.34894 0.0
N1056 N 0.46095 0.98951 0.35229 0.0
C1057 C 0.47967 0.99338 0.36586 0.0
H1058 H 0.45223 0.95893 0.33063 0.0
H1059 H 0.51181 0.97184 0.3725 0.0
C1060 C 0.56382 0.94961 0.33727 0.0
N1061 N 0.51539 0.85775 0.31936 0.0
C1062 C 0.49827 0.8243 0.32274 0.0
C1063 C 0.54079 0.8621 0.30925 0.0
N1064 N 0.51196 0.80752 0.31525 0.0
C1065 C 0.53883 0.83122 0.30675 0.0
C1066 C 0.50485 0.93437 0.30568 0.0
O1067 O 0.54248 0.95765 0.34244 0.0
O1068 O 0.55339 0.92045 0.33101 0.0
O1069 O 0.50864 0.90861 0.30678 0.0
O1070 O 0.49822 0.94572 0.31863 0.0
O1071 O 0.45917 0.85983 0.32533 0.0
H1072 H 0.5598 0.88621 0.30424 0.0
H1073 H 0.47674 0.81263 0.33102 0.0
O1074 O 0.44877 0.89682 0.33728 0.0
O1075 O 0.49398 0.90908 0.36118 0.0
O1076 O 0.50462 0.87175 0.34986 0.0
C1077 C 0.49905 0.88427 0.36273 0.0
H1078 H 0.48123 0.00815 0.37666 0.0
H1079 H 0.55578 0.82657 0.29928 0.0
H1080 H 0.14374 0.19943 0.18113 0.0
H1081 H 0.15979 0.06777 0.12307 0.0
H1082 H 0.07593 0.15156 0.14002 0.0
H1083 H 0.17607 0.06972 0.17565 0.0
H1084 H 0.13963 0.10832 0.12678 0.0
H1085 H 0.1664 0.16108 0.1771 0.0
C1086 C 0.13373 0.18094 0.17124 0.0
C1087 C 0.10783 0.17846 0.16094 0.0
C1088 C 0.14778 0.09992 0.13747 0.0
C1089 C 0.13402 0.13532 0.1561 0.0
C1090 C 0.15944 0.07709 0.13535 0.0
C1091 C 0.16945 0.06551 0.1491 0.0
C1092 C 0.14695 0.11178 0.15339 0.0
C1093 C 0.16829 0.07798 0.1648 0.0
C1094 C 0.14657 0.1591 0.16899 0.0
C1095 C 0.09571 0.15407 0.14831 0.0
N1096 N 0.15743 0.10067 0.16653 0.0
N1097 N 0.10911 0.13359 0.14614 0.0
H1098 H 0.92934 0.10872 0.17477 0.0
H1099 H 0.84811 0.92213 0.13991 0.0
H1100 H 0.93454 0.09008 0.12291 0.0
H1101 H 0.80046 0.94682 0.17941 0.0
H1102 H 0.88689 0.98282 0.1354 0.0
H1103 H 0.88834 0.04829 0.17872 0.0
C1104 C 0.92173 0.0918 0.16424 0.0
C1105 C 0.93512 0.10418 0.1485 0.0
C1106 C 0.86786 0.97485 0.14502 0.0
C1107 C 0.88901 0.03535 0.15293 0.0
C1108 C 0.84591 0.94032 0.14767 0.0
C1109 C 0.82106 0.9295 0.16005 0.0
C1110 C 0.86545 0.99863 0.15508 0.0
C1111 C 0.81919 0.95412 0.1697 0.0
C1112 C 0.89834 0.0575 0.16647 0.0
C1113 C 0.92448 0.08142 0.13519 0.0
N1114 N 0.84133 0.98758 0.16712 0.0
N1115 N 0.9023 0.04793 0.13773 0.0
H1116 H 0.05267 0.84089 0.16588 0.0
H1117 H 0.9063 0.88495 0.15034 0.0
H1118 H 0.07259 0.94166 0.15419 0.0
H1119 H 0.88938 0.78311 0.14841 0.0
H1120 H 0.967 0.90641 0.15348 0.0
H1121 H 0.9923 0.81939 0.16143 0.0
C1122 C 0.04434 0.85853 0.16243 0.0
C1123 C 0.06768 0.89315 0.16044 0.0
C1124 C 0.95006 0.87938 0.15228 0.0
C1125 C -0.00135 0.86866 0.15533 0.0
C1126 C 0.91543 0.86712 0.15058 0.0
C1127 C 0.89284 0.8322 0.1492 0.0
C1128 C 0.96218 0.85652 0.15281 0.0
C1129 C 0.906 0.81021 0.14933 0.0
C1130 C 0.00989 0.84618 0.1598 0.0
C1131 C 0.05547 0.91478 0.15585 0.0
N1132 N 0.93983 0.82272 0.15125 0.0
N1133 N 0.02175 0.90219 0.15353 0.0
H1134 H 0.21375 0.15984 0.33774 0.0
H1135 H 0.02266 0.11405 0.35368 0.0
H1136 H 0.13259 0.05879 0.34864 0.0
H1137 H 0.10664 0.21638 0.35571 0.0
H1138 H 0.06241 0.09344 0.35002 0.0
H1139 H 0.17468 0.18125 0.34232 0.0
C1140 C 0.18771 0.14215 0.34103 0.0
C1141 C 0.17638 0.10746 0.34279 0.0
C1142 C 0.07222 0.12041 0.35133 0.0
C1143 C 0.13168 0.13178 0.34803 0.0
C1144 C 0.04953 0.13217 0.35335 0.0
C1145 C 0.06141 0.16697 0.35493 0.0
C1146 C 0.10712 0.14361 0.35071 0.0
C1147 C 0.0965 0.18935 0.35465 0.0
C1148 C 0.1655 0.15442 0.34373 0.0
C1149 C 0.14243 0.08572 0.34716 0.0
N1150 N 0.11817 0.17731 0.35244 0.0
N1151 N 0.12128 0.09823 0.34957 0.0
H1152 H 0.84133 0.90686 0.38209 0.0
H1153 H 0.85416 0.05286 0.32365 0.0
H1154 H 0.81937 0.89089 0.32996 0.0
H1155 H 0.92418 0.07434 0.36394 0.0
H1156 H 0.83158 0.99213 0.32818 0.0
H1157 H 0.86212 0.96768 0.37813 0.0
C1158 C 0.84056 0.91619 0.36988 0.0
C1159 C 0.82875 0.8941 0.35631 0.0
C1160 C 0.8519 0.01021 0.336 0.0
C1161 C 0.85202 0.96298 0.35173 0.0
C1162 C 0.86474 0.04478 0.33346 0.0
C1163 C 0.8912 0.06861 0.34339 0.0
C1164 C 0.86505 -0.00058 0.3488 0.0
C1165 C 0.90395 0.05678 0.35593 0.0
C1166 C 0.85261 0.95075 0.3676 0.0
C1167 C 0.82852 0.9073 0.34067 0.0
N1168 N 0.89056 0.02294 0.35838 0.0
N1169 N 0.83981 0.9409 0.33881 0.0
H1170 H 0.92237 0.85107 0.36337 0.0
H1171 H 0.1082 0.92997 0.32801 0.0
H1172 H 0.94495 0.80244 0.32354 0.0
H1173 H 0.08994 0.93446 0.37998 0.0
H1174 H 0.04759 0.88948 0.32407 0.0
H1175 H 0.98322 0.88889 0.36764 0.0
C1176 C 0.94013 0.84849 0.35547 0.0
C1177 C 0.92866 0.82364 0.34306 0.0
C1178 C 0.05694 0.8992 0.33634 0.0
C1179 C 0.99806 0.86694 0.34779 0.0
C1180 C 0.09133 0.92229 0.33857 0.0
C1181 C 0.10386 0.93535 0.35434 0.0
C1182 C 0.03488 0.88989 0.34991 0.0
C1183 C 0.08117 0.92464 0.36768 0.0
C1184 C 0.97477 0.86989 0.35799 0.0
C1185 C 0.95277 0.82124 0.33325 0.0
N1186 N 0.04763 0.90281 0.36513 0.0
N1187 N 0.9864 0.84286 0.33571 0.0
H1188 H 0.83929 0.78387 0.83868 0.0
H1189 H 0.88475 0.97527 0.85257 0.0
H1190 H 0.94056 0.86504 0.84915 0.0
H1191 H 0.78299 0.89087 0.8567 0.0
H1192 H 0.90565 0.93561 0.84924 0.0
H1193 H 0.81807 0.82307 0.8431 0.0
C1194 C 0.85707 0.80995 0.84187 0.0
C1195 C 0.89176 0.82124 0.84352 0.0
C1196 C 0.87876 0.92572 0.85095 0.0
C1197 C 0.86764 0.86615 0.84856 0.0
C1198 C 0.86682 0.94834 0.85275 0.0
C1199 C 0.83209 0.93629 0.85485 0.0
C1200 C 0.85577 0.89075 0.85103 0.0
C1201 C 0.80997 0.90115 0.85523 0.0
C1202 C 0.8449 0.83225 0.84447 0.0
C1203 C 0.91361 0.85525 0.84777 0.0
N1204 N 0.82216 0.87957 0.85321 0.0
N1205 N 0.9012 0.87654 0.85005 0.0
H1206 H 0.13017 0.07543 0.84839 0.0
H1207 H 0.10731 0.89032 0.85669 0.0
H1208 H 0.21034 0.0538 0.838 0.0
H1209 H 0.0234 0.90841 0.85234 0.0
H1210 H 0.14653 0.9512 0.85326 0.0
H1211 H 0.09145 0.01497 0.85298 0.0
C1212 C 0.13962 0.05797 0.84706 0.0
C1213 C 0.17349 0.06964 0.84274 0.0
C1214 C 0.11952 0.9418 0.85307 0.0
C1215 C 0.12945 0.00056 0.84814 0.0
C1216 C 0.0972 0.90716 0.85515 0.0
C1217 C 0.06212 0.89436 0.85471 0.0
C1218 C 0.10662 0.96378 0.85076 0.0
C1219 C 0.05027 0.91721 0.85253 0.0
C1220 C 0.11751 0.02348 0.84967 0.0
C1221 C 0.18437 0.04588 0.84121 0.0
N1222 N 0.07247 0.95082 0.85067 0.0
N1223 N 0.16244 0.01247 0.84397 0.0
H1224 H 0.94343 0.14348 0.82298 0.0
H1225 H 0.09196 0.15945 0.88014 0.0
H1226 H 0.92397 0.07354 0.86307 0.0
H1227 H 0.10597 0.17789 0.82768 0.0
H1228 H 0.03094 0.13796 0.87656 0.0
H1229 H 0.00443 0.16637 0.82686 0.0
C1230 C 0.95201 0.13299 0.8326 0.0
C1231 C 0.92871 0.10648 0.84267 0.0
C1232 C 0.04748 0.14686 0.86587 0.0
C1233 C 0.99811 0.13298 0.84737 0.0
C1234 C 0.08214 0.1593 0.86792 0.0
C1235 C 0.10373 0.17034 0.85417 0.0
C1236 C 0.03466 0.14633 0.85002 0.0
C1237 C 0.08993 0.16937 0.83854 0.0
C1238 C 0.98671 0.14599 0.83477 0.0
C1239 C 0.94114 0.09381 0.85497 0.0
N1240 N 0.05623 0.15778 0.83688 0.0
N1241 N 0.97507 0.1074 0.85708 0.0
H1242 H 0.79687 0.85127 0.68159 0.0
H1243 H 0.92713 0.83447 0.62269 0.0
H1244 H 0.84386 0.91854 0.64019 0.0
H1245 H 0.92588 0.81824 0.67525 0.0
H1246 H 0.88649 0.85447 0.62659 0.0
H1247 H 0.83475 0.82817 0.67723 0.0
C1248 C 0.81507 0.86106 0.67156 0.0
C1249 C 0.81744 0.88695 0.66128 0.0
C1250 C 0.89504 0.84634 0.63723 0.0
C1251 C 0.86004 0.86026 0.65606 0.0
C1252 C 0.91791 0.83476 0.635 0.0
C1253 C 0.92974 0.82486 0.64869 0.0
C1254 C 0.88341 0.84719 0.65321 0.0
C1255 C 0.91742 0.82594 0.66444 0.0
C1256 C 0.83664 0.84796 0.66912 0.0
C1257 C 0.84143 0.89878 0.64847 0.0
N1258 N 0.89471 0.83675 0.66628 0.0
N1259 N 0.86167 0.88515 0.64613 0.0
H1260 H 0.21373 0.1081 0.64444 0.0
H1261 H 0.05235 0.92264 0.65379 0.0
H1262 H 0.11182 0.08963 0.65008 0.0
H1263 H 0.15449 0.94482 0.66368 0.0
H1264 H 0.07375 0.98303 0.64909 0.0
H1265 H 0.19245 0.04726 0.64789 0.0
C1266 C 0.18687 0.09118 0.64627 0.0
C1267 C 0.16451 0.10387 0.64706 0.0
C1268 C 0.09145 0.97465 0.65232 0.0
C1269 C 0.14003 0.03448 0.65103 0.0
C1270 C 0.07927 0.94021 0.65498 0.0
C1271 C 0.10166 0.92871 0.6592 0.0
C1272 C 0.12632 0.99772 0.65367 0.0
C1273 C 0.1363 0.95261 0.66056 0.0
C1274 C 0.17477 0.05657 0.64836 0.0
C1275 C 0.12995 0.08092 0.64961 0.0
N1276 N 0.14759 0.98598 0.65774 0.0
N1277 N 0.11876 0.04735 0.65146 0.0
H1278 H 0.90754 0.02041 0.65173 0.0
H1279 H 0.05181 0.21302 0.66511 0.0
H1280 H 0.88866 0.10372 0.64688 0.0
H1281 H 0.07297 0.13243 0.655 0.0
H1282 H 0.99135 0.17304 0.66097 0.0
H1283 H 0.96783 0.06083 0.65539 0.0
C1284 C 0.91612 0.04725 0.65146 0.0
C1285 C 0.89308 0.05875 0.64903 0.0
C1286 C 0.00928 0.16418 0.65963 0.0
C1287 C 0.96206 0.10521 0.65324 0.0
C1288 C 0.04374 0.18692 0.66208 0.0
C1289 C 0.06747 0.17604 0.6604 0.0
C1290 C -0.00156 0.13026 0.6557 0.0
C1291 C 0.0556 0.14196 0.65638 0.0
C1292 C 0.95055 0.07031 0.65346 0.0
C1293 C 0.90563 0.09383 0.64858 0.0
N1294 N 0.02194 0.12028 0.65424 0.0
N1295 N 0.93927 0.11585 0.65078 0.0
H1296 H 0.82227 0.39642 0.4559 0.0
H1297 H 0.80892 0.52981 0.51393 0.0
H1298 H 0.8425 0.40111 0.50818 0.0
H1299 H 0.73954 0.48116 0.47344 0.0
H1300 H 0.83122 0.49122 0.50979 0.0
H1301 H 0.80171 0.43662 0.45979 0.0
C1302 C 0.82269 0.40625 0.46814 0.0
C1303 C 0.83397 0.39555 0.48175 0.0
C1304 C 0.8111 0.48907 0.50185 0.0
C1305 C 0.81098 0.44144 0.48626 0.0
C1306 C 0.79843 0.51106 0.50417 0.0
C1307 C 0.77223 0.50851 0.49407 0.0
C1308 C 0.79805 0.46501 0.48909 0.0
C1309 C 0.75957 0.48379 0.48158 0.0
C1310 C 0.81079 0.42889 0.47037 0.0
C1311 C 0.83375 0.40867 0.49742 0.0
N1312 N 0.77281 0.46315 0.47935 0.0
N1313 N 0.82264 0.43116 0.49925 0.0
H1314 H 0.44981 0.2778 0.498 0.0
H1315 H 0.6412 0.42217 0.48259 0.0
H1316 H 0.53016 0.25679 0.48694 0.0
H1317 H 0.55752 0.44073 0.47893 0.0
H1318 H 0.60111 0.36178 0.48609 0.0
H1319 H 0.48913 0.33807 0.49303 0.0
C1320 C 0.47572 0.28586 0.49455 0.0
C1321 C 0.48676 0.26226 0.49291 0.0
C1322 C 0.59146 0.379 0.48444 0.0
C1323 C 0.53178 0.33106 0.48726 0.0
C1324 C 0.61433 0.41346 0.48253 0.0
C1325 C 0.60261 0.43642 0.48054 0.0
C1326 C 0.55656 0.36739 0.48458 0.0
C1327 C 0.56753 0.42378 0.48032 0.0
C1328 C 0.49807 0.32022 0.49164 0.0
C1329 C 0.52055 0.27409 0.48833 0.0
N1330 N 0.54569 0.39009 0.48246 0.0
N1331 N 0.54189 0.30767 0.48576 0.0
H1332 H 0.55403 0.11336 0.48091 0.0
H1333 H 0.74015 0.2742 0.48871 0.0
H1334 H 0.57413 0.21613 0.48476 0.0
H1335 H 0.71824 0.17213 0.49858 0.0
H1336 H 0.67982 0.25292 0.48444 0.0
H1337 H 0.61475 0.13401 0.48433 0.0
C1338 C 0.57126 0.14026 0.48234 0.0
C1339 C 0.55907 0.16307 0.48262 0.0
C1340 C 0.68818 0.23517 0.48757 0.0
C1341 C 0.62832 0.18682 0.48658 0.0
C1342 C 0.72264 0.24729 0.48999 0.0
C1343 C 0.73425 0.22491 0.49406 0.0
C1344 C 0.66511 0.20034 0.48905 0.0
C1345 C 0.71037 0.19029 0.49555 0.0
C1346 C 0.60582 0.152 0.48442 0.0
C1347 C 0.58242 0.19766 0.48469 0.0
N1348 N 0.67691 0.17903 0.49298 0.0
N1349 N 0.6159 0.20848 0.48655 0.0
H1350 H 0.86242 0.47573 0.65635 0.0
H1351 H 0.72783 0.4874 0.71412 0.0
H1352 H 0.81326 0.40533 0.69643 0.0
H1353 H 0.73315 0.50849 0.66191 0.0
H1354 H 0.76805 0.46688 0.71021 0.0
H1355 H 0.82343 0.49756 0.66045 0.0
C1356 C 0.84347 0.46492 0.66601 0.0
C1357 C 0.84091 0.43858 0.67602 0.0
C1358 C 0.76044 0.47612 0.69965 0.0
C1359 C 0.79695 0.46387 0.68095 0.0
C1360 C 0.73779 0.488 0.70189 0.0
C1361 C 0.72727 0.49954 0.6883 0.0
C1362 C 0.77321 0.47659 0.68378 0.0
C1363 C 0.74056 0.49954 0.67265 0.0
C1364 C 0.82125 0.47731 0.6683 0.0
C1365 C 0.81592 0.42549 0.68837 0.0
N1366 N 0.76308 0.48847 0.67081 0.0
N1367 N 0.79507 0.43848 0.69059 0.0
H1368 H 0.55102 0.24122 0.68524 0.0
H1369 H 0.50365 0.38601 0.67115 0.0
H1370 H 0.44891 0.22274 0.68971 0.0
H1371 H 0.60526 0.40647 0.68096 0.0
H1372 H 0.48276 0.32551 0.67552 0.0
H1373 H 0.57112 0.30146 0.68134 0.0
C1374 C 0.53283 0.24989 0.68537 0.0
C1375 C 0.49825 0.22698 0.68775 0.0
C1376 C 0.5096 0.3433 0.67673 0.0
C1377 C 0.52103 0.29591 0.68328 0.0
C1378 C 0.52157 0.37778 0.67416 0.0
C1379 C 0.55626 0.40131 0.67569 0.0
C1380 C 0.53255 0.33228 0.68065 0.0
C1381 C 0.57831 0.38925 0.67969 0.0
C1382 C 0.54432 0.28429 0.68323 0.0
C1383 C 0.4758 0.23963 0.68804 0.0
N1384 N 0.5661 0.35559 0.68196 0.0
N1385 N 0.48755 0.27326 0.68571 0.0
H1386 H 0.75519 0.30717 0.68642 0.0
H1387 H 0.61024 0.1154 0.67198 0.0
H1388 H 0.77389 0.22359 0.69017 0.0
H1389 H 0.59007 0.19649 0.68259 0.0
H1390 H 0.67076 0.15474 0.67645 0.0
H1391 H 0.69487 0.26704 0.6829 0.0
C1392 C 0.74653 0.28031 0.68647 0.0
C1393 C 0.76952 0.26864 0.68852 0.0
C1394 C 0.65302 0.16383 0.67784 0.0
C1395 C 0.70051 0.2225 0.68448 0.0
C1396 C 0.61854 0.14147 0.67521 0.0
C1397 C 0.5951 0.15271 0.6769 0.0
C1398 C 0.66412 0.19771 0.68198 0.0
C1399 C 0.60722 0.18669 0.68119 0.0
C1400 C 0.7121 0.25741 0.68456 0.0
C1401 C 0.75692 0.23356 0.68874 0.0
N1402 N 0.64088 0.208 0.6835 0.0
N1403 N 0.72323 0.21166 0.68661 0.0
H1404 H 0.50436 0.1181 0.17217 0.0
H1405 H 0.54852 0.30918 0.18565 0.0
H1406 H 0.60511 0.19963 0.18324 0.0
H1407 H 0.44685 0.22458 0.18958 0.0
H1408 H 0.56969 0.26969 0.18266 0.0
H1409 H 0.48266 0.157 0.17635 0.0
C1410 C 0.52193 0.14419 0.17545 0.0
C1411 C 0.55662 0.15567 0.17734 0.0
C1412 C 0.54276 0.25971 0.18425 0.0
C1413 C 0.53196 0.20024 0.18208 0.0
C1414 C 0.53066 0.28224 0.18586 0.0
C1415 C 0.49588 0.27008 0.18779 0.0
C1416 C 0.51987 0.22471 0.18436 0.0
C1417 C 0.47386 0.23493 0.18822 0.0
C1418 C 0.50949 0.16631 0.17791 0.0
C1419 C 0.57818 0.18969 0.18167 0.0
N1420 N 0.4862 0.21342 0.18638 0.0
N1421 N 0.56552 0.2108 0.18381 0.0
H1422 H 0.79666 0.40939 0.18332 0.0
H1423 H 0.77213 0.22366 0.19176 0.0
H1424 H 0.87656 0.38727 0.17308 0.0
H1425 H 0.68904 0.2429 0.18701 0.0
H1426 H 0.81193 0.28449 0.18847 0.0
H1427 H 0.75777 0.34907 0.18801 0.0
C1428 C 0.80603 0.39184 0.18206 0.0
C1429 C 0.83986 0.40333 0.17774 0.0
C1430 C 0.78497 0.27535 0.18817 0.0
C1431 C 0.79556 0.33436 0.18323 0.0
C1432 C 0.76232 0.24074 0.19017 0.0
C1433 C 0.72731 0.2283 0.18957 0.0
C1434 C 0.77245 0.29762 0.18578 0.0
C1435 C 0.71585 0.25143 0.18732 0.0
C1436 C 0.7838 0.35743 0.18472 0.0
C1437 C 0.85062 0.37946 0.1763 0.0
N1438 N 0.73835 0.28498 0.18554 0.0
N1439 N 0.82855 0.34608 0.17909 0.0
H1440 H 0.75411 0.44763 0.18642 0.0
H1441 H 0.60787 0.49172 0.16994 0.0
H1442 H 0.77104 0.54942 0.18898 0.0
H1443 H 0.58808 0.39099 0.18156 0.0
H1444 H 0.66828 0.51337 0.17468 0.0
H1445 H 0.6936 0.42637 0.1826 0.0
C1446 C 0.74503 0.4655 0.18616 0.0
C1447 C 0.76759 0.50034 0.18795 0.0
C1448 C 0.65069 0.48655 0.17622 0.0
C1449 C 0.69839 0.47623 0.18355 0.0
C1450 C 0.61624 0.47413 0.17343 0.0
C1451 C 0.59291 0.43947 0.17534 0.0
C1452 C 0.66195 0.4641 0.18076 0.0
C1453 C 0.60516 0.41789 0.17997 0.0
C1454 C 0.7105 0.45335 0.18407 0.0
C1455 C 0.75445 0.52236 0.18777 0.0
N1456 N 0.63885 0.43054 0.18245 0.0
N1457 N 0.7207 0.50996 0.18547 0.0
H1458 H 0.55752 0.11428 0.97974 0.0
H1459 H 0.53277 0.27549 0.98732 0.0
H1460 H 0.64073 0.21637 0.98521 0.0
H1461 H 0.4527 0.17339 0.99722 0.0
H1462 H 0.57201 0.25419 0.98327 0.0
H1463 H 0.51782 0.13548 0.98267 0.0
C1464 C 0.5674 0.14116 0.98143 0.0
C1465 C 0.60242 0.1636 0.9823 0.0
C1466 C 0.54586 0.23648 0.98635 0.0
C1467 C 0.55732 0.188 0.98567 0.0
C1468 C 0.52344 0.2486 0.98863 0.0
C1469 C 0.48944 0.22619 0.99267 0.0
C1470 C 0.53412 0.20166 0.98791 0.0
C1471 C 0.47875 0.19159 0.99421 0.0
C1472 C 0.54478 0.15321 0.98322 0.0
C1473 C 0.61391 0.19818 0.98468 0.0
N1474 N 0.50099 0.18036 0.99177 0.0
N1475 N 0.59144 0.20934 0.98623 0.0
H1476 H 0.72438 0.25501 0.98806 0.0
H1477 H 0.8869 0.4403 0.9814 0.0
H1478 H 0.82561 0.27561 0.99912 0.0
H1479 H 0.78419 0.42089 0.98349 0.0
H1480 H 0.86559 0.3794 0.98475 0.0
H1481 H 0.74661 0.31535 0.98342 0.0
C1482 C 0.75131 0.27224 0.98952 0.0
C1483 C 0.77318 0.26028 0.99404 0.0
C1484 C 0.84777 0.38854 0.98446 0.0
C1485 C 0.79881 0.32943 0.98864 0.0
C1486 C 0.85989 0.42318 0.98243 0.0
C1487 C 0.83726 0.43558 0.98227 0.0
C1488 C 0.81279 0.36623 0.98613 0.0
C1489 C 0.80251 0.41241 0.9838 0.0
C1490 C 0.76398 0.3067 0.98689 0.0
C1491 C 0.80785 0.2838 0.99574 0.0
N1492 N 0.79134 0.37887 0.98564 0.0
N1493 N 0.81964 0.31729 0.99299 0.0
H1494 H 0.55724 0.44037 0.9789 0.0
H1495 H 0.74204 0.46191 0.986 0.0
H1496 H 0.57448 0.35582 0.98264 0.0
H1497 H 0.72072 0.54192 0.99742 0.0
H1498 H 0.68149 0.42351 0.98126 0.0
H1499 H 0.6183 0.47915 0.98189 0.0
C1500 C 0.57394 0.43002 0.9802 0.0
C1501 C 0.56085 0.3949 0.98063 0.0
C1502 C 0.69012 0.44948 0.98482 0.0
C1503 C 0.63048 0.4389 0.98409 0.0
C1504 C 0.72464 0.47139 0.9875 0.0
C1505 C 0.73639 0.5051 0.99218 0.0
C1506 C 0.6673 0.4615 0.98662 0.0
C1507 C 0.71274 0.51606 0.99393 0.0
C1508 C 0.60868 0.45209 0.98203 0.0
C1509 C 0.58353 0.38275 0.98249 0.0
N1510 N 0.67933 0.49435 0.9911 0.0
N1511 N 0.61724 0.4047 0.98413 0.0
H1512 H 0.39065 0.80016 0.82286 0.0
H1513 H 0.55235 0.77663 0.81346 0.0
H1514 H 0.49266 0.88114 0.83205 0.0
H1515 H 0.44995 0.69353 0.81792 0.0
H1516 H 0.53138 0.81643 0.81717 0.0
H1517 H 0.41242 0.76165 0.81817 0.0
C1518 C 0.41765 0.80986 0.82391 0.0
C1519 C 0.43986 0.84391 0.8279 0.0
C1520 C 0.51355 0.78947 0.81733 0.0
C1521 C 0.46499 0.79993 0.82242 0.0
C1522 C 0.52547 0.76681 0.81509 0.0
C1523 C 0.50286 0.73177 0.81548 0.0
C1524 C 0.47875 0.77692 0.81975 0.0
C1525 C 0.46829 0.72033 0.81778 0.0
C1526 C 0.43005 0.78782 0.82125 0.0
C1527 C 0.47461 0.85503 0.82909 0.0
N1528 N 0.4573 0.74281 0.81979 0.0
N1529 N 0.48615 0.83311 0.82629 0.0
H1530 H 0.18277 0.59075 0.80618 0.0
H1531 H 0.26252 0.77564 0.84287 0.0
H1532 H 0.13445 0.6131 0.84625 0.0
H1533 H 0.26753 0.75919 0.79072 0.0
H1534 H 0.22182 0.71497 0.84632 0.0
H1535 H 0.22099 0.65169 0.80219 0.0
C1536 C 0.1803 0.60848 0.81416 0.0
C1537 C 0.15544 0.59694 0.82656 0.0
C1538 C 0.23171 0.72473 0.83412 0.0
C1539 C 0.19919 0.66634 0.82218 0.0
C1540 C 0.25491 0.75915 0.83217 0.0
C1541 C 0.26815 0.7722 0.8165 0.0
C1542 C 0.22244 0.70315 0.82035 0.0
C1543 C 0.25756 0.75 0.80296 0.0
C1544 C 0.20193 0.64315 0.81181 0.0
C1545 C 0.15321 0.62098 0.83651 0.0
N1546 N 0.23558 0.71639 0.80522 0.0
N1547 N 0.17505 0.65459 0.83422 0.0
H1548 H 0.40907 0.61106 0.82069 0.0
H1549 H 0.22334 0.4495 0.81293 0.0
H1550 H 0.38711 0.50939 0.83174 0.0
H1551 H 0.24245 0.55193 0.8167 0.0
H1552 H 0.28414 0.47067 0.81647 0.0
H1553 H 0.34869 0.58948 0.8161 0.0
C1554 C 0.39155 0.58419 0.82215 0.0
C1555 C 0.40313 0.562 0.82665 0.0
C1556 C 0.27498 0.48848 0.8165 0.0
C1557 C 0.33403 0.53711 0.82127 0.0
C1558 C 0.24038 0.47644 0.81436 0.0
C1559 C 0.22788 0.499 0.8146 0.0
C1560 C 0.29724 0.52336 0.81867 0.0
C1561 C 0.251 0.53366 0.81666 0.0
C1562 C 0.35708 0.57191 0.81956 0.0
C1563 C 0.37926 0.52742 0.82837 0.0
N1564 N 0.28454 0.54478 0.81858 0.0
N1565 N 0.34584 0.51601 0.82561 0.0
H1566 H 0.48039 0.7373 0.03125 0.0
H1567 H 0.40243 0.8444 0.99514 0.0
H1568 H 0.52814 0.80704 0.99077 0.0
H1569 H 0.39916 0.82433 0.04738 0.0
H1570 H 0.44203 0.8232 0.99139 0.0
H1571 H 0.44304 0.76099 0.03553 0.0
C1572 C 0.48285 0.75743 0.02322 0.0
C1573 C 0.50731 0.77027 0.01064 0.0
C1574 C 0.43279 0.82366 0.00368 0.0
C1575 C 0.4647 0.79704 0.01536 0.0
C1576 C 0.41025 0.83561 0.0058 0.0
C1577 C 0.39782 0.83612 0.02158 0.0
C1578 C 0.44218 0.81134 0.01739 0.0
C1579 C 0.40857 0.82456 0.03506 0.0
C1580 C 0.46177 0.77105 0.02574 0.0
C1581 C 0.50965 0.79652 1.00064 0.0
N1582 N 0.42989 0.8122 0.03264 0.0
N1583 N 0.48837 0.80887 0.00312 0.0
H1584 H 0.17392 0.7204 0.0054 0.0
H1585 H 0.21776 0.57367 0.02025 0.0
H1586 H 0.27469 0.74004 0.01679 0.0
H1587 H 0.11622 0.55708 0.02386 0.0
H1588 H 0.23916 0.63434 0.01692 0.0
H1589 H 0.15229 0.65995 0.00992 0.0
C1590 C 0.19153 0.71199 0.0088 0.0
C1591 C 0.2262 0.73529 0.0107 0.0
C1592 C 0.21221 0.61748 0.01852 0.0
C1593 C 0.20157 0.66619 0.01586 0.0
C1594 C 0.19999 0.58287 0.02033 0.0
C1595 C 0.16517 0.56038 0.02226 0.0
C1596 C 0.18942 0.6297 0.01842 0.0
C1597 C 0.14325 0.57363 0.02252 0.0
C1598 C 0.17911 0.67752 0.01146 0.0
C1599 C 0.24778 0.72298 0.01521 0.0
N1600 N 0.15572 0.60745 0.02047 0.0
N1601 N 0.23514 0.68924 0.01756 0.0
H1602 H 0.27598 0.46606 0.98874 0.0
H1603 H 0.42331 0.59626 0.04727 0.0
H1604 H 0.25575 0.51414 0.02968 0.0
H1605 H 0.4383 0.59438 0.99475 0.0
H1606 H 0.36243 0.55657 0.04333 0.0
H1607 H 0.33692 0.50417 0.99294 0.0
C1608 C 0.28438 0.4846 0.99861 0.0
C1609 C 0.26087 0.48715 0.00883 0.0
C1610 C 0.37916 0.56481 0.03271 0.0
C1611 C 0.33017 0.53001 0.01388 0.0
C1612 C 0.41374 0.58713 0.03497 0.0
C1613 C 0.43556 0.59846 0.0213 0.0
C1614 C 0.36665 0.55321 0.01674 0.0
C1615 C 0.42208 0.58628 0.00555 0.0
C1616 C 0.31903 0.50629 1.00096 0.0
C1617 C 0.27306 0.51156 0.02145 0.0
N1618 N 0.38845 0.56407 0.00368 0.0
N1619 N 0.30694 0.5319 0.02372 0.0
H1620 H 0.18394 0.46312 0.48836 0.0
H1621 H 0.166 0.5932 0.54665 0.0
H1622 H 0.25184 0.51137 0.52941 0.0
H1623 H 0.15001 0.59149 0.49405 0.0
H1624 H 0.18684 0.55318 0.5429 0.0
H1625 H 0.16065 0.50084 0.49254 0.0
C1626 C 0.19385 0.48158 0.49827 0.0
C1627 C 0.21994 0.48433 0.50851 0.0
C1628 C 0.17859 0.5615 0.53222 0.0
C1629 C 0.19303 0.52675 0.51352 0.0
C1630 C 0.16652 0.584 0.53437 0.0
C1631 C 0.15642 0.59548 0.52062 0.0
C1632 C 0.17969 0.54991 0.51628 0.0
C1633 C 0.15783 0.58325 0.5049 0.0
C1634 C 0.18064 0.50305 0.5006 0.0
C1635 C 0.23192 0.50866 0.52117 0.0
N1636 N 0.16908 0.56088 0.50314 0.0
N1637 N 0.21815 0.5288 0.52342 0.0
H1638 H 0.46495 0.74008 0.51475 0.0
H1639 H 0.4372 0.55322 0.52307 0.0
H1640 H 0.5448 0.71747 0.50541 0.0
H1641 H 0.35552 0.57433 0.51733 0.0
H1642 H 0.47795 0.61381 0.51964 0.0
H1643 H 0.42533 0.67979 0.51859 0.0
C1644 C 0.47418 0.72242 0.51351 0.0
C1645 C 0.50826 0.73384 0.50972 0.0
C1646 C 0.45109 0.60511 0.51912 0.0
C1647 C 0.46295 0.66466 0.51423 0.0
C1648 C 0.42787 0.57064 0.52121 0.0
C1649 C 0.39295 0.55876 0.52044 0.0
C1650 C 0.43925 0.62788 0.5165 0.0
C1651 C 0.3822 0.58235 0.51781 0.0
C1652 C 0.45149 0.68797 0.51566 0.0
C1653 C 0.51871 0.70974 0.50824 0.0
N1654 N 0.40524 0.61576 0.516 0.0
N1655 N 0.49616 0.67626 0.51057 0.0
H1656 H 0.43948 0.87875 0.52572 0.0
H1657 H 0.25442 0.71708 0.51575 0.0
H1658 H 0.42178 0.77718 0.5197 0.0
H1659 H 0.27671 0.81938 0.50617 0.0
H1660 H 0.31483 0.73845 0.5205 0.0
H1661 H 0.37864 0.85715 0.52219 0.0
C1662 C 0.42273 0.85189 0.5238 0.0
C1663 C 0.43564 0.82973 0.52291 0.0
C1664 C 0.30645 0.75617 0.51732 0.0
C1665 C 0.36623 0.80487 0.51884 0.0
C1666 C 0.27201 0.744 0.51463 0.0
C1667 C 0.26054 0.76646 0.51049 0.0
C1668 C 0.32951 0.79107 0.5161 0.0
C1669 C 0.28446 0.80112 0.50923 0.0
C1670 C 0.38811 0.83961 0.52166 0.0
C1671 C 0.41289 0.79516 0.52024 0.0
N1672 N 0.31778 0.81238 0.51209 0.0
N1673 N 0.37929 0.78377 0.51833 0.0
H1674 H 0.20214 0.61325 0.32133 0.0
H1675 H 0.22558 0.45149 0.31205 0.0
H1676 H 0.12206 0.51113 0.33119 0.0
H1677 H 0.30942 0.55318 0.3177 0.0
H1678 H 0.18631 0.47306 0.3156 0.0
H1679 H 0.24117 0.59179 0.31684 0.0
C1680 C 0.19278 0.58634 0.32257 0.0
C1681 C 0.15883 0.56397 0.3267 0.0
C1682 C 0.21332 0.49063 0.31605 0.0
C1683 C 0.20321 0.53924 0.3214 0.0
C1684 C 0.23568 0.47837 0.3139 0.0
C1685 C 0.27075 0.50057 0.31466 0.0
C1686 C 0.22616 0.5254 0.31875 0.0
C1687 C 0.28255 0.53516 0.31725 0.0
C1688 C 0.21507 0.57413 0.32003 0.0
C1689 C 0.14808 0.52932 0.32812 0.0
N1690 N 0.26031 0.54653 0.31916 0.0
N1691 N 0.17015 0.51801 0.3254 0.0
H1692 H 0.39057 0.59055 0.32181 0.0
H1693 H 0.55038 0.77731 0.31452 0.0
H1694 H 0.49273 0.61276 0.33166 0.0
H1695 H 0.44748 0.75642 0.31918 0.0
H1696 H 0.53024 0.71664 0.31779 0.0
H1697 H 0.41152 0.65091 0.31798 0.0
C1698 C 0.41745 0.60813 0.32316 0.0
C1699 C 0.43994 0.59658 0.3271 0.0
C1700 C 0.51212 0.72539 0.3181 0.0
C1701 C 0.46413 0.66583 0.32261 0.0
C1702 C 0.52355 0.75993 0.31611 0.0
C1703 C 0.50056 0.7719 0.31663 0.0
C1704 C 0.47739 0.70266 0.32039 0.0
C1705 C 0.4661 0.74833 0.31891 0.0
C1706 C 0.42937 0.64262 0.32101 0.0
C1707 C 0.4745 0.62059 0.32871 0.0
N1708 N 0.45556 0.71487 0.32065 0.0
N1709 N 0.48558 0.6541 0.32639 0.0
H1710 H 0.23862 0.73643 0.28983 0.0
H1711 H 0.38638 0.86647 0.34818 0.0
H1712 H 0.2243 0.73873 0.34239 0.0
H1713 H 0.4065 0.8186 0.30711 0.0
H1714 H 0.32548 0.82862 0.34395 0.0
H1715 H 0.29956 0.77614 0.29358 0.0
C1716 C 0.24836 0.74568 0.3021 0.0
C1717 C 0.22672 0.73447 0.31584 0.0
C1718 C 0.34331 0.82649 0.33589 0.0
C1719 C 0.29565 0.77968 0.32018 0.0
C1720 C 0.37795 0.84805 0.33825 0.0
C1721 C 0.4014 0.84547 0.32801 0.0
C1722 C 0.33213 0.80285 0.32295 0.0
C1723 C 0.38919 0.82118 0.31535 0.0
C1724 C 0.28296 0.76799 0.30425 0.0
C1725 C 0.24038 0.74676 0.33155 0.0
N1726 N 0.3553 0.80092 0.31307 0.0
N1727 N 0.27403 0.76894 0.3333 0.0
H1728 H 0.23496 0.32517 0.20852 0.0
H1729 H 0.39528 0.40707 0.14924 0.0
H1730 H 0.22604 0.34571 0.1573 0.0
H1731 H 0.38335 0.3378 0.18852 0.0
H1732 H 0.33651 0.39356 0.15366 0.0
H1733 H 0.29391 0.34003 0.20347 0.0
C1734 C 0.24566 0.33333 0.19629 0.0
C1735 C 0.22585 0.33426 0.18328 0.0
C1736 C 0.34682 0.38122 0.1612 0.0
C1737 C 0.29276 0.35113 0.17742 0.0
C1738 C 0.38022 0.38883 0.15867 0.0
C1739 C 0.39407 0.37336 0.16846 0.0
C1740 C 0.32762 0.35871 0.17387 0.0
C1741 C 0.37356 0.35006 0.18059 0.0
C1742 C 0.27904 0.34143 0.19337 0.0
C1743 C 0.24062 0.34454 0.16758 0.0
N1744 N 0.34147 0.34372 0.18308 0.0
N1745 N 0.27332 0.35274 0.16507 0.0
H1746 H 0.59238 0.99407 0.14904 0.0
H1747 H 0.67068 0.91134 0.20726 0.0
H1748 H 0.65977 0.04883 0.18939 0.0
H1749 H 0.65618 0.8877 0.15523 0.0
H1750 H 0.65626 0.95586 0.20273 0.0
H1751 H 0.60668 0.94913 0.15251 0.0
C1752 C 0.61038 0.99675 0.15851 0.0
C1753 C 0.62505 0.02518 0.16891 0.0
C1754 C 0.65614 0.9408 0.19233 0.0
C1755 C 0.64058 0.97382 0.17319 0.0
C1756 C 0.66398 0.91529 0.19494 0.0
C1757 C 0.66455 0.89605 0.18158 0.0
C1758 C 0.64819 0.94651 0.17632 0.0
C1759 C 0.65615 0.90229 0.16579 0.0
C1760 C 0.61845 0.97118 0.16047 0.0
C1761 C 0.64812 0.02744 0.18102 0.0
N1762 N 0.6481 0.92696 0.16357 0.0
N1763 N 0.65486 0.00185 0.18297 0.0
H1764 H 0.0854 0.76159 0.20708 0.0
H1765 H 0.00456 0.59935 0.14956 0.0
H1766 H 0.1105 0.77021 0.15525 0.0
H1767 H 0.9481 0.61328 0.18863 0.0
H1768 H 0.04965 0.6586 0.15307 0.0
H1769 H 0.04118 0.7025 0.20255 0.0
C1770 C 0.08183 0.7508 0.19481 0.0
C1771 C 0.10141 0.77053 0.1815 0.0
C1772 C 0.0272 0.64859 0.16074 0.0
C1773 C 0.0513 0.70347 0.17625 0.0
C1774 C 0.00156 0.61495 0.15875 0.0
C1775 C 0.97256 0.60156 0.16876 0.0
C1776 C 0.02407 0.66845 0.17312 0.0
C1777 C 0.96991 0.62271 0.18055 0.0
C1778 C 0.05651 0.71735 0.1922 0.0
C1779 C 0.09565 0.75567 0.16576 0.0
N1780 N 0.99555 0.65501 0.18255 0.0
N1781 N 0.07116 0.72284 0.16355 0.0
H1782 H 0.34424 0.22782 0.34768 0.0
H1783 H 0.33524 0.38653 0.31445 0.0
H1784 H 0.32327 0.23762 0.29664 0.0
H1785 H 0.40563 0.39787 0.35304 0.0
H1786 H 0.3216 0.3279 0.31059 0.0
H1787 H 0.35931 0.28703 0.35243 0.0
C1788 C 0.34303 0.2426 0.33749 0.0
C1789 C 0.33268 0.22809 0.32174 0.0
C1790 C 0.33991 0.34322 0.31995 0.0
C1791 C 0.34899 0.29503 0.32713 0.0
C1792 C 0.34749 0.37656 0.32228 0.0
C1793 C 0.37161 0.39709 0.3341 0.0
C1794 C 0.35607 0.33007 0.3297 0.0
C1795 C 0.38692 0.38287 0.34378 0.0
C1796 C 0.35164 0.27622 0.34018 0.0
C1797 C 0.3315 0.2481 0.30889 0.0
N1798 N 0.37877 0.35009 0.34142 0.0
N1799 N 0.33917 0.28049 0.31191 0.0
H1800 H 0.59267 0.01784 0.34189 0.0
H1801 H 0.78102 0.05768 0.32475 0.0
H1802 H 0.61725 0.93999 0.33064 0.0
H1803 H 0.74996 0.13202 0.31811 0.0
H1804 H 0.72227 0.01474 0.3304 0.0
H1805 H 0.65186 0.06078 0.33726 0.0
C1806 C 0.6106 0.00974 0.33868 0.0
C1807 C 0.60006 0.97529 0.33663 0.0
C1808 C 0.72825 0.04039 0.32764 0.0
C1809 C 0.66757 0.02427 0.33121 0.0
C1810 C 0.76169 0.06486 0.32448 0.0
C1811 C 0.77014 0.09832 0.32103 0.0
C1812 C 0.70314 0.04958 0.32758 0.0
C1813 C 0.74427 0.10638 0.32062 0.0
C1814 C 0.64426 0.03429 0.33589 0.0
C1815 C 0.62431 0.96628 0.33233 0.0
N1816 N 0.71183 0.08217 0.324 0.0
N1817 N 0.65699 0.99066 0.32976 0.0
H1818 H 0.86212 0.61673 0.31555 0.0
H1819 H 0.05786 0.67914 0.32983 0.0
H1820 H 0.93719 0.72051 0.32578 0.0
H1821 H 0.97963 0.57455 0.33527 0.0
H1822 H 0.01422 0.69465 0.32607 0.0
H1823 H 0.90538 0.60039 0.31997 0.0
C1824 C 0.88774 0.63602 0.31862 0.0
C1825 C 0.89615 0.66993 0.3204 0.0
C1826 C 0.00659 0.66833 0.3282 0.0
C1827 C 0.94546 0.65163 0.32548 0.0
C1828 C 0.03149 0.65948 0.33036 0.0
C1829 C 0.02234 0.62553 0.3329 0.0
C1830 C 0.9723 0.64302 0.32834 0.0
C1831 C 0.98777 0.60107 0.33344 0.0
C1832 C 0.91228 0.62671 0.32127 0.0
C1833 C 0.9296 0.69402 0.32451 0.0
N1834 N 0.96396 0.61026 0.33104 0.0
N1835 N 0.95305 0.68443 0.32686 0.0
H1836 H 0.59958 0.59293 0.85446 0.0
H1837 H 0.76114 0.67246 0.79634 0.0
H1838 H 0.61296 0.66164 0.81464 0.0
H1839 H 0.76993 0.65613 0.84818 0.0
H1840 H 0.7022 0.65793 0.80094 0.0
H1841 H 0.65868 0.60675 0.85085 0.0
C1842 C 0.61502 0.61109 0.84508 0.0
C1843 C 0.60149 0.62632 0.83489 0.0
C1844 C 0.71704 0.65741 0.81128 0.0
C1845 C 0.66827 0.64131 0.83043 0.0
C1846 C 0.75043 0.66534 0.80863 0.0
C1847 C 0.77018 0.66544 0.82192 0.0
C1848 C 0.70323 0.64889 0.82725 0.0
C1849 C 0.75539 0.65648 0.83768 0.0
C1850 C 0.64859 0.61889 0.84303 0.0
C1851 C 0.62247 0.64955 0.82285 0.0
N1852 N 0.72263 0.64836 0.83993 0.0
N1853 N 0.65471 0.65604 0.82082 0.0
H1854 H 0.32477 0.08719 0.79629 0.0
H1855 H 0.40414 0.00642 0.85537 0.0
H1856 H 0.33879 0.11145 0.84825 0.0
H1857 H 0.33795 0.9512 0.81474 0.0
H1858 H 0.38947 0.05105 0.85154 0.0
H1859 H 0.34012 0.0434 0.80104 0.0
C1860 C 0.33154 0.08352 0.80864 0.0
C1861 C 0.33055 0.10274 0.82191 0.0
C1862 C 0.37806 0.02898 0.84358 0.0
C1863 C 0.34803 0.05308 0.82744 0.0
C1864 C 0.38635 0.00358 0.84576 0.0
C1865 C 0.37208 0.97506 0.83541 0.0
C1866 C 0.35612 0.0261 0.83071 0.0
C1867 C 0.34929 0.97263 0.82309 0.0
C1868 C 0.33994 0.05843 0.81138 0.0
C1869 C 0.3391 0.09686 0.83776 0.0
N1870 N 0.34231 0.99803 0.82095 0.0
N1871 N 0.34769 0.0726 0.8401 0.0
H1872 H 0.9385 0.21634 0.82577 0.0
H1873 H 0.98155 0.40646 0.84057 0.0
H1874 H 0.86486 0.24832 0.81913 0.0
H1875 H 0.058 0.38018 0.8289 0.0
H1876 H 0.93791 0.34724 0.83676 0.0
H1877 H 0.98223 0.27524 0.83048 0.0
C1878 C 0.93161 0.23587 0.82533 0.0
C1879 C 0.8981 0.22762 0.82213 0.0
C1880 C 0.96425 0.35446 0.8351 0.0
C1881 C 0.94781 0.29485 0.82758 0.0
C1882 C 0.98921 0.38817 0.83741 0.0
C1883 C 0.02348 0.39825 0.83504 0.0
C1884 C 0.97366 0.3306 0.83059 0.0
C1885 C 0.03188 0.3735 0.83083 0.0
C1886 C 0.95654 0.26941 0.82795 0.0
C1887 C 0.89048 0.2538 0.82147 0.0
N1888 N 0.00711 0.34077 0.82876 0.0
N1889 N 0.91515 0.28633 0.82431 0.0
H1890 H 0.66021 0.61068 0.68984 0.0
H1891 H 0.65055 0.76956 0.65735 0.0
H1892 H 0.59125 0.60042 0.65071 0.0
H1893 H 0.67188 0.75921 0.70826 0.0
H1894 H 0.63572 0.71053 0.65235 0.0
H1895 H 0.67327 0.66903 0.69415 0.0
C1896 C 0.64817 0.62085 0.68198 0.0
C1897 C 0.62462 0.6007 0.66986 0.0
C1898 C 0.64338 0.72115 0.66463 0.0
C1899 C 0.63945 0.66736 0.67481 0.0
C1900 C 0.65184 0.75468 0.66747 0.0
C1901 C 0.66228 0.769 0.68324 0.0
C1902 C 0.64624 0.70224 0.67757 0.0
C1903 C 0.66358 0.74887 0.69599 0.0
C1904 C 0.65539 0.65401 0.68458 0.0
C1905 C 0.60953 0.61512 0.66018 0.0
N1906 N 0.65605 0.71657 0.69283 0.0
N1907 N 0.61732 0.64771 0.66281 0.0
H1908 H 0.38544 0.04992 0.68785 0.0
H1909 H 0.22524 0.88497 0.65396 0.0
H1910 H 0.39635 0.99061 0.64923 0.0
H1911 H 0.23624 0.91367 0.70535 0.0
H1912 H 0.28472 0.9285 0.64924 0.0
H1913 H 0.32648 0.00565 0.69138 0.0
C1914 C 0.37531 0.0278 0.67994 0.0
C1915 C 0.3958 0.02389 0.66821 0.0
C1916 C 0.27409 0.92503 0.66155 0.0
C1917 C 0.32843 0.97327 0.67225 0.0
C1918 C 0.24033 0.90039 0.66422 0.0
C1919 C 0.22613 0.89586 0.68006 0.0
C1920 C 0.29328 0.94572 0.67473 0.0
C1921 C 0.2465 0.91626 0.69302 0.0
C1922 C 0.34178 0.00245 0.68209 0.0
C1923 C 0.38137 0.99453 0.65842 0.0
N1924 N 0.279 0.94065 0.69003 0.0
N1925 N 0.3484 0.97029 0.66061 0.0
H1926 H 0.00592 0.406 0.6501 0.0
H1927 H 0.08548 0.32359 0.70814 0.0
H1928 H 0.9494 0.33699 0.68962 0.0
H1929 H 0.11267 0.34297 0.65661 0.0
H1930 H 0.0413 0.33851 0.70358 0.0
H1931 H 0.05085 0.39181 0.65393 0.0
C1932 C 0.00287 0.3877 0.65947 0.0
C1933 C 0.97388 0.37249 0.6695 0.0
C1934 C 0.05707 0.3396 0.6933 0.0
C1935 C 0.02529 0.35702 0.67421 0.0
C1936 C 0.08239 0.33146 0.69594 0.0
C1937 C 0.10257 0.3321 0.68271 0.0
C1938 C 0.05243 0.34908 0.67742 0.0
C1939 C 0.09738 0.34202 0.66706 0.0
C1940 C 0.02845 0.37968 0.66165 0.0
C1941 C 0.97121 0.34906 0.68152 0.0
N1942 N 0.07287 0.35032 0.66483 0.0
N1943 N 0.99678 0.34232 0.68367 0.0
H1944 H 0.88158 0.60901 0.51222 0.0
H1945 H 0.07224 0.75773 0.50029 0.0
H1946 H 0.91254 0.71395 0.52055 0.0
H1947 H 0.04429 0.65312 0.50769 0.0
H1948 H 0.01301 0.74224 0.5043 0.0
H1949 H 0.94057 0.6249 0.50754 0.0
C1950 C 0.90092 0.63545 0.51304 0.0
C1951 C 0.89233 0.66029 0.51669 0.0
C1952 C 0.0199 0.72272 0.50499 0.0
C1953 C 0.95979 0.67869 0.51131 0.0
C1954 C 0.0536 0.73145 0.50257 0.0
C1955 C 0.06316 0.70664 0.50366 0.0
C1956 C 0.99562 0.68891 0.50833 0.0
C1957 C 0.03803 0.67305 0.50676 0.0
C1958 C 0.93455 0.64449 0.51044 0.0
C1959 C 0.9183 0.69412 0.51786 0.0
N1960 N 0.00539 0.66517 0.50898 0.0
N1961 N 0.95097 0.70243 0.51505 0.0
H1962 H 0.34044 0.24674 0.5412 0.0
H1963 H 0.25752 0.32323 0.48163 0.0
H1964 H 0.32068 0.21683 0.49 0.0
H1965 H 0.32646 0.38136 0.52088 0.0
H1966 H 0.27218 0.27875 0.48597 0.0
H1967 H 0.3255 0.29064 0.53587 0.0
C1968 C 0.33248 0.24918 0.52891 0.0
C1969 C 0.33173 0.22833 0.516 0.0
C1970 C 0.28422 0.30143 0.4935 0.0
C1971 C 0.3148 0.27817 0.50982 0.0
C1972 C 0.27595 0.32676 0.49103 0.0
C1973 C 0.29092 0.35602 0.50087 0.0
C1974 C 0.30688 0.30515 0.50616 0.0
C1975 C 0.31453 0.35932 0.51293 0.0
C1976 C 0.32433 0.27435 0.52583 0.0
C1977 C 0.3217 0.23268 0.50021 0.0
N1978 N 0.32148 0.33398 0.51537 0.0
N1979 N 0.31343 0.25708 0.49755 0.0
H1980 H 0.61411 0.94368 0.52298 0.0
H1981 H 0.78061 0.10303 0.4893 0.0
H1982 H 0.67302 0.9327 0.48418 0.0
H1983 H 0.75055 0.0931 0.54046 0.0
H1984 H 0.73681 0.04365 0.48465 0.0
H1985 H 0.65888 0.00241 0.52675 0.0
C1986 C 0.63627 0.95375 0.51509 0.0
C1987 C 0.63987 0.93329 0.50322 0.0
C1988 C 0.74004 0.05448 0.4969 0.0
C1989 C 0.69109 0.00044 0.50753 0.0
C1990 C 0.76485 0.0882 0.49954 0.0
C1991 C 0.7691 0.10272 0.51529 0.0
C1992 C 0.71887 0.03558 0.51002 0.0
C1993 C 0.74821 0.08263 0.5282 0.0
C1994 C 0.6619 0.98715 0.51737 0.0
C1995 C 0.6693 0.94763 0.49347 0.0
N1996 N 0.72367 0.05014 0.52524 0.0
N1997 N 0.6938 0.98048 0.49578 0.0
H1998 H 0.98504 0.71264 0.66398 0.0
H1999 H 0.04808 0.57983 0.65022 0.0
H2000 H 0.08938 0.73896 0.67049 0.0
H2001 H 0.94406 0.55051 0.66019 0.0
H2002 H 0.06414 0.63927 0.65496 0.0
H2003 H 0.96964 0.65343 0.66045 0.0
C2004 C 0.00466 0.7059 0.66482 0.0
C2005 C 0.03852 0.7307 0.66756 0.0
C2006 C 0.03783 0.61975 0.65615 0.0
C2007 C 0.02118 0.66317 0.66325 0.0
C2008 C 0.02868 0.586 0.65331 0.0
C2009 C 0.99478 0.56038 0.6549 0.0
C2010 C 0.01275 0.62779 0.66035 0.0
C2011 C 0.97054 0.56951 0.65906 0.0
C2012 C 0.99587 0.67213 0.66279 0.0
C2013 C 0.06293 0.72058 0.66849 0.0
N2014 N 0.97997 0.60247 0.66158 0.0
N2015 N 0.05383 0.68758 0.66619 0.0
H2016 H 0.26567 0.33958 0.68694 0.0
H2017 H 0.42692 0.42055 0.62829 0.0
H2018 H 0.27735 0.28445 0.64648 0.0
H2019 H 0.43534 0.44665 0.67999 0.0
H2020 H 0.36785 0.37636 0.63288 0.0
H2021 H 0.32479 0.38455 0.6831 0.0
C2022 C 0.28074 0.33683 0.67736 0.0
C2023 C 0.26671 0.30821 0.66707 0.0
C2024 C 0.38264 0.39188 0.6432 0.0
C2025 C 0.33361 0.3597 0.66236 0.0
C2026 C 0.4161 0.41723 0.64055 0.0
C2027 C 0.43581 0.43711 0.6538 0.0
C2028 C 0.3687 0.38691 0.65914 0.0
C2029 C 0.42087 0.43159 0.66951 0.0
C2030 C 0.31434 0.36244 0.67518 0.0
C2031 C 0.28726 0.30595 0.65479 0.0
N2032 N 0.38807 0.40707 0.67176 0.0
N2033 N 0.31957 0.33155 0.65265 0.0
H2034 H 0.71603 0.99535 0.64908 0.0
H2035 H 0.54682 0.98502 0.68111 0.0
H2036 H 0.6561 0.92496 0.6875 0.0
H2037 H 0.57957 0.00749 0.63039 0.0
H2038 H 0.59119 0.97047 0.68625 0.0
H2039 H 0.67122 0.00917 0.64494 0.0
C2040 C 0.69367 0.98317 0.65682 0.0
C2041 C 0.68974 0.95895 0.66866 0.0
C2042 C 0.58844 0.97835 0.67398 0.0
C2043 C 0.63848 0.97464 0.66392 0.0
C2044 C 0.56328 0.98664 0.67107 0.0
C2045 C 0.55961 0.99725 0.65531 0.0
C2046 C 0.61052 0.98157 0.66113 0.0
C2047 C 0.58143 -0.00098 0.64265 0.0
C2048 C 0.66801 0.99084 0.65433 0.0
C2049 C 0.66007 0.94373 0.67823 0.0
N2050 N 0.60626 0.99163 0.64587 0.0
N2051 N 0.63553 0.95193 0.67569 0.0
H2052 H 0.28378 0.01193 0.1638 0.0
H2053 H 0.41693 0.94957 0.1496 0.0
H2054 H 0.25806 0.90777 0.17048 0.0
H2055 H 0.44619 0.05321 0.16059 0.0
H2056 H 0.3574 0.93343 0.15415 0.0
H2057 H 0.34303 0.02755 0.16005 0.0
C2058 C 0.29066 0.99241 0.16462 0.0
C2059 C 0.26604 0.95854 0.16749 0.0
C2060 C 0.37694 0.95967 0.15559 0.0
C2061 C 0.33352 0.9761 0.16293 0.0
C2062 C 0.41072 0.96886 0.15287 0.0
C2063 C 0.4363 0.00265 0.15483 0.0
C2064 C 0.36888 0.98463 0.16002 0.0
C2065 C 0.42716 0.02679 0.15918 0.0
C2066 C 0.32443 0.00132 0.16247 0.0
C2067 C 0.27631 0.93423 0.16839 0.0
N2068 N 0.39418 0.01734 0.16158 0.0
N2069 N 0.30929 0.94344 0.16597 0.0
H2070 H 0.98786 0.41919 0.12996 0.0
H2071 H 0.06731 0.33728 0.18827 0.0
H2072 H 0.0029 0.44284 0.18198 0.0
H2073 H 0.00261 0.28328 0.147 0.0
H2074 H 0.05186 0.38141 0.1849 0.0
H2075 H 0.00243 0.37474 0.13437 0.0
C2076 C 0.99464 0.41522 0.14226 0.0
C2077 C 0.99427 0.43458 0.15564 0.0
C2078 C 0.04091 0.35971 0.1767 0.0
C2079 C 0.01087 0.38409 0.16076 0.0
C2080 C 0.04967 0.33459 0.17861 0.0
C2081 C 0.03609 0.30657 0.16793 0.0
C2082 C 0.01917 0.35711 0.16379 0.0
C2083 C 0.01344 0.30434 0.15558 0.0
C2084 C 0.00259 0.38974 0.1448 0.0
C2085 C 0.00277 0.42823 0.1714 0.0
N2086 N 0.00599 0.3295 0.15371 0.0
N2087 N 0.01097 0.40362 0.17353 0.0
H2088 H 0.52833 0.58127 0.14951 0.0
H2089 H 0.72345 0.7131 0.16609 0.0
H2090 H 0.60194 0.55101 0.16051 0.0
H2091 H 0.64514 0.73935 0.17153 0.0
H2092 H 0.67976 0.65397 0.16199 0.0
H2093 H 0.57164 0.64044 0.1549 0.0
C2094 C 0.55364 0.58717 0.15296 0.0
C2095 C 0.56161 0.56136 0.15466 0.0
C2096 C 0.67215 0.67264 0.16423 0.0
C2097 C 0.611 0.62849 0.16085 0.0
C2098 C 0.69706 0.70636 0.1666 0.0
C2099 C 0.6879 0.73114 0.16918 0.0
C2100 C 0.63788 0.66374 0.16419 0.0
C2101 C 0.65332 0.72101 0.16966 0.0
C2102 C 0.57821 0.62077 0.15617 0.0
C2103 C 0.59468 0.57017 0.15929 0.0
N2104 N 0.62953 0.6881 0.16702 0.0
N2105 N 0.6182 0.603 0.16216 0.0
H2106 H 0.25939 0.93172 0.98346 0.0
H2107 H 0.33915 0.09495 0.04025 0.0
H2108 H 0.32745 0.94547 0.02365 0.0
H2109 H 0.32378 0.10201 0.98814 0.0
H2110 H 0.32443 0.03576 0.03632 0.0
H2111 H 0.27369 0.99103 0.98655 0.0
C2112 C 0.27751 0.94731 0.99283 0.0
C2113 C 0.29244 0.93388 0.00326 0.0
C2114 C 0.32418 0.05029 0.02577 0.0
C2115 C 0.30801 0.00086 0.00712 0.0
C2116 C 0.33221 0.08379 0.02804 0.0
C2117 C 0.3326 0.10309 0.01448 0.0
C2118 C 0.31587 0.03597 0.0099 0.0
C2119 C 0.32389 0.0878 0.99883 0.0
C2120 C 0.2856 0.98098 0.99457 0.0
C2121 C 0.31565 0.95499 0.01525 0.0
N2122 N 0.31565 0.05495 0.99695 0.0
N2123 N 0.32244 0.98739 0.01699 0.0
H2124 H 0.05107 0.38202 0.0221 0.0
H2125 H 0.89317 0.21232 0.99005 0.0
H2126 H 0.06261 0.32194 0.98413 0.0
H2127 H 0.90288 0.24484 0.04079 0.0
H2128 H 0.95215 0.25674 0.98506 0.0
H2129 H 0.99259 0.33682 0.02624 0.0
C2130 C 0.04115 0.35952 0.01447 0.0
C2131 C 0.06168 0.35569 0.00274 0.0
C2132 C 0.94138 0.25392 0.9973 0.0
C2133 C 0.99493 0.30403 0.00747 0.0
C2134 C 0.9079 0.22874 1.00013 0.0
C2135 C 0.89345 0.225 0.01585 0.0
C2136 C 0.96007 0.27596 0.0102 0.0
C2137 C 0.91335 0.24676 0.02856 0.0
C2138 C 0.00793 0.33366 0.01696 0.0
C2139 C 0.0476 0.32584 0.99331 0.0
N2140 N 0.9456 0.27164 0.02541 0.0
N2141 N 0.01495 0.30112 0.99583 0.0
H2142 H 0.79903 0.71195 0.01835 0.0
H2143 H 0.60342 0.65031 0.00597 0.0
H2144 H 0.72457 0.60832 0.00738 0.0
H2145 H 0.68208 0.75434 0.99916 0.0
H2146 H 0.64694 0.63421 0.00874 0.0
H2147 H 0.75568 0.72809 0.01407 0.0
C2148 C 0.77352 0.69265 0.01512 0.0
C2149 C 0.7653 0.65884 0.01315 0.0
C2150 C 0.65462 0.66051 0.0065 0.0
C2151 C 0.71583 0.67692 0.00825 0.0
C2152 C 0.62983 0.6697 0.00492 0.0
C2153 C 0.63918 0.70369 0.00232 0.0
C2154 C 0.68896 0.68557 0.00575 0.0
C2155 C 0.67376 0.72781 1.00108 0.0
C2156 C 0.74892 0.70184 0.01255 0.0
C2157 C 0.73199 0.63473 0.00881 0.0
N2158 N 0.69744 0.71832 0.00297 0.0
N2159 N 0.7084 0.6442 0.00658 0.0
H2160 H 0.71876 0.00125 0.85572 0.0
H2161 H 0.56099 0.01311 0.82364 0.0
H2162 H 0.73061 0.07384 0.81822 0.0
H2163 H 0.57024 0.98979 0.87435 0.0
H2164 H 0.62007 0.02793 0.81878 0.0
H2165 H 0.66017 0.98772 0.85979 0.0
C2166 C 0.70888 0.01399 0.84817 0.0
C2167 C 0.72952 0.0387 0.8366 0.0
C2168 C 0.60917 0.01981 0.83099 0.0
C2169 C 0.66268 0.02333 0.84123 0.0
C2170 C 0.57565 0.01137 0.83374 0.0
C2171 C 0.56105 0.00044 0.84942 0.0
C2172 C 0.62777 0.01638 0.84391 0.0
C2173 C 0.58084 0.99851 0.86216 0.0
C2174 C 0.6756 0.00649 0.85062 0.0
C2175 C 0.71551 0.05466 0.82728 0.0
N2176 N 0.61316 0.00602 0.85908 0.0
N2177 N 0.68281 0.04659 0.82975 0.0
H2178 H 0.92481 0.65746 0.81629 0.0
H2179 H 0.00754 0.57877 0.87449 0.0
H2180 H 0.99542 0.71497 0.85509 0.0
H2181 H 0.98828 0.55085 0.82305 0.0
H2182 H 0.99249 0.62279 0.86969 0.0
H2183 H 0.93879 0.61238 0.82025 0.0
C2184 C 0.94344 0.66069 0.82551 0.0
C2185 C 0.95916 0.68998 0.83531 0.0
C2186 C 0.99143 0.60688 0.85949 0.0
C2187 C 0.97431 0.63847 0.84019 0.0
C2188 C -0.00037 0.58166 0.86226 0.0
C2189 C -0.0009 0.56139 0.84912 0.0
C2190 C 0.98202 0.61128 0.84355 0.0
C2191 C 0.98914 0.56626 0.83342 0.0
C2192 C 0.95132 0.63505 0.82776 0.0
C2193 C 0.98298 0.69293 0.84716 0.0
N2194 N 0.9808 0.59069 0.83105 0.0
N2195 N 0.98955 0.66728 0.84941 0.0
H2196 H 0.3505 0.25915 0.83187 0.0
H2197 H 0.39207 0.44976 0.8433 0.0
H2198 H 0.27334 0.28622 0.83976 0.0
H2199 H 0.46529 0.41847 0.85319 0.0
H2200 H 0.34907 0.39073 0.8384 0.0
H2201 H 0.39393 0.31854 0.83572 0.0
C2202 C 0.34268 0.27764 0.83421 0.0
C2203 C 0.30825 0.26777 0.8355 0.0
C2204 C 0.37451 0.39673 0.84167 0.0
C2205 C 0.35776 0.33553 0.83997 0.0
C2206 C 0.39905 0.43037 0.8444 0.0
C2207 C 0.43222 0.43886 0.84859 0.0
C2208 C 0.38329 0.37141 0.84295 0.0
C2209 C 0.43991 0.41281 0.85009 0.0
C2210 C 0.36748 0.31143 0.83654 0.0
C2211 C 0.29958 0.29273 0.83869 0.0
N2212 N 0.41563 0.38016 0.84714 0.0
N2213 N 0.3242 0.3255 0.84079 0.0
H2214 H 0.67451 0.89163 0.01645 0.0
H2215 H 0.66713 0.05074 0.98308 0.0
H2216 H 0.65658 0.90271 0.96511 0.0
H2217 H 0.73748 0.06215 0.02172 0.0
H2218 H 0.65339 0.99208 0.97932 0.0
H2219 H 0.68972 0.95085 0.0213 0.0
C2220 C 0.67402 0.90671 0.00622 0.0
C2221 C 0.66447 0.8926 0.99036 0.0
C2222 C 0.6717 0.00743 0.98867 0.0
C2223 C 0.68086 0.95942 0.99584 0.0
C2224 C 0.67932 0.04076 0.99095 0.0
C2225 C 0.7035 0.06131 0.00274 0.0
C2226 C 0.68786 0.99434 0.99844 0.0
C2227 C 0.71873 0.04712 0.01248 0.0
C2228 C 0.6827 0.94031 0.00897 0.0
C2229 C 0.66418 0.91292 0.97745 0.0
N2230 N 0.71055 0.01433 0.01016 0.0
N2231 N 0.67185 0.94528 0.98051 0.0
H2232 H 0.95235 0.60472 0.99831 0.0
H2233 H 0.08466 0.80052 0.98429 0.0
H2234 H 0.92545 0.68255 0.00388 0.0
H2235 H 0.1143 0.72637 0.99517 0.0
H2236 H 0.02523 0.75698 0.98881 0.0
H2237 H 0.01158 0.64866 0.99507 0.0
C2238 C 0.95897 0.63106 0.999 0.0
C2239 C 0.93401 0.64003 1.00138 0.0
C2240 C 0.04482 0.75036 0.99025 0.0
C2241 C 0.00152 0.69034 0.9974 0.0
C2242 C 0.07857 0.77505 0.98754 0.0
C2243 C 0.10425 0.76696 0.98945 0.0
C2244 C 0.03688 0.71736 0.99464 0.0
C2245 C 0.09522 0.7337 0.9938 0.0
C2246 C 0.99274 0.65611 0.99713 0.0
C2247 C 0.94395 0.67454 0.00214 0.0
N2248 N 0.06227 0.71008 0.99618 0.0
N2249 N 0.97696 0.6985 1.0 0.0
H2250 H 0.27048 0.38745 0.99126 0.0
H2251 H 0.31315 0.23959 0.00462 0.0
H2252 H 0.19694 0.28215 0.98353 0.0
H2253 H 0.38982 0.34354 0.99554 0.0
H2254 H 0.26947 0.25509 1.0006 0.0
H2255 H 0.31393 0.37202 0.99608 0.0
C2256 C 0.26354 0.36103 0.9906 0.0
C2257 C 0.23013 0.33595 0.98707 0.0
C2258 C 0.29586 0.27448 0.99955 0.0
C2259 C 0.27959 0.3181 0.99263 0.0
C2260 C 0.32083 0.26576 0.00199 0.0
C2261 C 0.3552 0.29035 1.00041 0.0
C2262 C 0.30535 0.30808 0.99572 0.0
C2263 C 0.36364 0.32379 0.99686 0.0
C2264 C 0.28834 0.35226 0.99328 0.0
C2265 C 0.2225 0.30216 0.98612 0.0
N2266 N 0.33886 0.33168 0.99464 0.0
N2267 N 0.24704 0.29414 0.98902 0.0
H2268 H 0.09208 0.33743 0.46082 0.0
H2269 H 0.93206 0.25829 0.52031 0.0
H2270 H 0.1013 0.31938 0.51238 0.0
H2271 H 0.9435 0.32506 0.47987 0.0
H2272 H 0.99091 0.27183 0.51611 0.0
H2273 H 0.03319 0.32282 0.46573 0.0
C2274 C 0.08147 0.3299 0.4731 0.0
C2275 C 0.10135 0.32957 0.48623 0.0
C2276 C 0.98047 0.28362 0.50827 0.0
C2277 C 0.03446 0.31298 0.49193 0.0
C2278 C 0.94703 0.27598 0.51066 0.0
C2279 C 0.93301 0.29073 0.50048 0.0
C2280 C -0.00043 0.30544 0.49537 0.0
C2281 C 0.95341 0.31336 0.4881 0.0
C2282 C 0.04811 0.32193 0.47594 0.0
C2283 C 0.08668 0.32009 0.50199 0.0
N2284 N 0.98555 0.31974 0.48577 0.0
N2285 N 0.05398 0.31199 0.50442 0.0
H2286 H 0.67779 0.78214 0.51432 0.0
H2287 H 0.66805 0.61432 0.48093 0.0
H2288 H 0.65636 0.75151 0.46328 0.0
H2289 H 0.73878 0.67338 0.51941 0.0
H2290 H 0.65464 0.65949 0.47707 0.0
H2291 H 0.69292 0.73802 0.51892 0.0
C2292 C 0.67653 0.7662 0.50409 0.0
C2293 C 0.66601 0.77036 0.4884 0.0
C2294 C 0.67299 0.66244 0.4864 0.0
C2295 C 0.68234 0.71976 0.49361 0.0
C2296 C 0.68041 0.63659 0.48873 0.0
C2297 C 0.70455 0.64015 0.50053 0.0
C2298 C 0.68932 0.69177 0.49612 0.0
C2299 C 0.72005 0.6697 0.51017 0.0
C2300 C 0.68516 0.7412 0.5067 0.0
C2301 C 0.66473 0.74924 0.4755 0.0
N2302 N 0.71204 0.69441 0.50781 0.0
N2303 N 0.67241 0.72451 0.47843 0.0
H2304 H 0.19749 0.91235 0.48749 0.0
H2305 H 0.39266 0.0469 0.4999 0.0
H2306 H 0.27275 0.88353 0.49692 0.0
H2307 H 0.31362 0.071 0.50856 0.0
H2308 H 0.34949 0.98725 0.49688 0.0
H2309 H 0.24036 0.97166 0.49271 0.0
C2310 C 0.22307 0.9186 0.49057 0.0
C2311 C 0.23168 0.89317 0.49182 0.0
C2312 C 0.34164 0.00557 0.49961 0.0
C2313 C 0.28058 0.96049 0.49781 0.0
C2314 C 0.36624 0.03957 0.50135 0.0
C2315 C 0.35667 0.06388 0.50449 0.0
C2316 C 0.30725 0.99594 0.50074 0.0
C2317 C 0.32209 0.05303 0.50622 0.0
C2318 C 0.24739 0.95228 0.49369 0.0
C2319 C 0.26506 0.90241 0.49602 0.0
N2320 N 0.29856 0.01986 0.50413 0.0
N2321 N 0.28837 0.93536 0.49878 0.0
H2322 H 0.95001 0.41886 0.35017 0.0
H2323 H 0.01134 0.28446 0.33852 0.0
H2324 H 0.0542 0.44779 0.34098 0.0
H2325 H 0.90807 0.26001 0.32993 0.0
H2326 H 0.02758 0.34406 0.3416 0.0
H2327 H 0.93382 0.35945 0.34548 0.0
C2328 C 0.96943 0.41262 0.34725 0.0
C2329 C 0.00342 0.43811 0.3459 0.0
C2330 C 0.00143 0.32566 0.3389 0.0
C2331 C 0.98527 0.37066 0.34052 0.0
C2332 C 0.99216 0.29168 0.33713 0.0
C2333 C 0.95833 0.2673 0.33395 0.0
C2334 C 0.97659 0.33518 0.33776 0.0
C2335 C 0.93448 0.27803 0.3323 0.0
C2336 C 0.9602 0.37887 0.34444 0.0
C2337 C 0.02766 0.42886 0.34194 0.0
N2338 N 0.94401 0.31117 0.33439 0.0
N2339 N 0.01815 0.39585 0.33946 0.0
H2340 H 0.71902 0.71598 0.35718 0.0
H2341 H 0.56105 0.54932 0.32269 0.0
H2342 H 0.73066 0.65852 0.31785 0.0
H2343 H 0.56996 0.57833 0.37397 0.0
H2344 H 0.6203 0.59361 0.31829 0.0
H2345 H 0.66047 0.67062 0.36088 0.0
C2346 C 0.70912 0.69401 0.34917 0.0
C2347 C 0.72968 0.69097 0.33717 0.0
C2348 C 0.60929 0.59004 0.33052 0.0
C2349 C 0.66285 0.63912 0.34138 0.0
C2350 C 0.57566 0.56494 0.33301 0.0
C2351 C 0.56089 0.56028 0.34871 0.0
C2352 C 0.62785 0.61106 0.34374 0.0
C2353 C 0.58066 0.58099 0.36174 0.0
C2354 C 0.67585 0.66805 0.35141 0.0
C2355 C 0.71562 0.66179 0.32726 0.0
N2356 N 0.61308 0.60582 0.35893 0.0
N2357 N 0.68292 0.63697 0.32952 0.0
H2358 H 0.28162 0.00353 0.35664 0.0
H2359 H 0.44934 0.01248 0.32369 0.0
H2360 H 0.33995 0.0724 0.31739 0.0
H2361 H 0.41865 0.99232 0.37477 0.0
H2362 H 0.40517 0.02738 0.31876 0.0
H2363 H 0.32687 0.99039 0.36078 0.0
C2364 C 0.30374 0.01553 0.34873 0.0
C2365 C 0.30708 0.03909 0.33664 0.0
C2366 C 0.40836 0.01996 0.33106 0.0
C2367 C 0.35882 0.02419 0.34138 0.0
C2368 C 0.43338 0.01146 0.33386 0.0
C2369 C 0.4375 0.00133 0.34966 0.0
C2370 C 0.38688 0.01743 0.34408 0.0
C2371 C 0.41639 0.00038 0.36248 0.0
C2372 C 0.32965 0.00827 0.35123 0.0
C2373 C 0.33645 0.05413 0.32686 0.0
N2374 N 0.39164 0.00793 0.35937 0.0
N2375 N 0.36124 0.04631 0.3294 0.0
H2376 H 0.14409 0.33278 0.03615 0.0
H2377 H 0.1424 0.33343 0.13431 0.0
H2378 H 0.16128 0.42089 0.06391 0.0
H2379 H 0.07515 0.24426 0.10618 0.0
H2380 H 0.16081 0.36603 0.1086 0.0
H2381 H 0.13011 0.30037 0.0619 0.0
C2382 C 0.14538 0.34546 0.04769 0.0
C2383 C 0.15388 0.37964 0.0479 0.0
C2384 C 0.14218 0.3393 0.10809 0.0
C2385 C 0.13812 0.34264 0.07734 0.0
C2386 C 0.1318 0.32058 0.1227 0.0
C2387 C 0.10716 0.28603 0.12237 0.0
C2388 C 0.1284 0.32323 0.09299 0.0
C2389 C 0.09413 0.27083 0.10698 0.0
C2390 C 0.13715 0.32684 0.06233 0.0
C2391 C 0.1548 0.39461 0.0632 0.0
N2392 N 0.10505 0.28952 0.09286 0.0
N2393 N 0.14715 0.37603 0.07736 0.0
H2394 H 0.63006 0.82164 0.04583 0.0
H2395 H 0.72623 0.78067 0.11458 0.0
H2396 H 0.60182 0.71856 0.05772 0.0
H2397 H 0.69665 0.85522 0.12469 0.0
H2398 H 0.69129 0.76405 0.08953 0.0
H2399 H 0.66404 0.84056 0.07134 0.0
C2400 C 0.63076 0.80302 0.05389 0.0
C2401 C 0.61298 0.76848 0.04977 0.0
C2402 C 0.69272 0.78421 0.0972 0.0
C2403 C 0.65248 0.79001 0.0784 0.0
C2404 C 0.71287 0.79395 0.11136 0.0
C2405 C 0.71434 0.8194 0.12167 0.0
C2406 C 0.67464 0.80062 0.0931 0.0
C2407 C 0.69613 0.83546 0.11705 0.0
C2408 C 0.6501 0.81382 0.06836 0.0
C2409 C 0.61487 0.74536 0.06055 0.0
N2410 N 0.67714 0.82596 0.10299 0.0
N2411 N 0.63473 0.7566 0.07425 0.0
H2412 H 0.13827 0.84097 0.12474 0.0
H2413 H 0.27812 0.88093 0.05785 0.0
H2414 H 0.21377 0.94403 0.11326 0.0
H2415 H 0.17416 0.80903 0.04584 0.0
H2416 H 0.25875 0.89735 0.08262 0.0
H2417 H 0.15405 0.82214 0.0994 0.0
C2418 C 0.15786 0.85961 0.11678 0.0
C2419 C 0.1746 0.89411 0.12097 0.0
C2420 C 0.24029 0.87778 0.07461 0.0
C2421 C 0.19344 0.87268 0.09258 0.0
C2422 C 0.25128 0.86814 0.06061 0.0
C2423 C 0.22766 0.84351 0.04985 0.0
C2424 C 0.20555 0.86208 0.07809 0.0
C2425 C 0.19312 0.82812 0.05386 0.0
C2426 C 0.16682 0.84886 0.10242 0.0
C2427 C 0.19999 0.91725 0.11036 0.0
N2428 N 0.18303 0.83747 0.06777 0.0
N2429 N 0.20905 0.90606 0.09678 0.0
H2430 H 0.33038 0.1409 0.46818 0.0
H2431 H 0.33163 0.14284 0.37012 0.0
H2432 H 0.41882 0.15956 0.44029 0.0
H2433 H 0.24215 0.07413 0.39768 0.0
H2434 H 0.36397 0.1598 0.3959 0.0
H2435 H 0.29787 0.12679 0.44245 0.0
C2436 C 0.34307 0.14237 0.45662 0.0
C2437 C 0.37742 0.15146 0.45635 0.0
C2438 C 0.33723 0.14116 0.39628 0.0
C2439 C 0.34032 0.13562 0.42694 0.0
C2440 C 0.31864 0.13162 0.38162 0.0
C2441 C 0.28406 0.10702 0.38176 0.0
C2442 C 0.32104 0.12656 0.41125 0.0
C2443 C 0.26873 0.09315 0.39702 0.0
C2444 C 0.32441 0.13409 0.44199 0.0
C2445 C 0.39242 0.15263 0.44104 0.0
N2446 N 0.2873 0.10326 0.4112 0.0
N2447 N 0.3738 0.145 0.42689 0.0
H2448 H 0.8544 0.18754 0.36909 0.0
H2449 H 0.85359 0.18769 0.4671 0.0
H2450 H 0.92505 0.17073 0.3973 0.0
H2451 H 0.83341 0.25634 0.43912 0.0
H2452 H 0.86897 0.17024 0.44147 0.0
H2453 H 0.83575 0.20193 0.39467 0.0
C2454 C 0.86572 0.18647 0.38069 0.0
C2455 C 0.89131 0.17785 0.38109 0.0
C2456 C 0.86099 0.18897 0.44096 0.0
C2457 C 0.8698 0.19404 0.41033 0.0
C2458 C 0.85195 0.1988 0.45554 0.0
C2459 C 0.84214 0.22352 0.45524 0.0
C2460 C 0.85954 0.2034 0.42591 0.0
C2461 C 0.84083 0.23723 0.4399 0.0
C2462 C 0.8552 0.19493 0.39523 0.0
C2463 C 0.9053 0.17726 0.39645 0.0
N2464 N 0.84927 0.22683 0.4258 0.0
N2465 N 0.89418 0.18504 0.41051 0.0
H2466 H 0.81169 0.66744 0.3696 0.0
H2467 H 0.80969 0.66429 0.46768 0.0
H2468 H 0.82996 0.75498 0.39819 0.0
H2469 H 0.7406 0.57685 0.439 0.0
H2470 H 0.82853 0.69778 0.44225 0.0
H2471 H 0.79685 0.634 0.39504 0.0
C2472 C 0.81306 0.67979 0.38126 0.0
C2473 C 0.82215 0.71413 0.38179 0.0
C2474 C 0.80941 0.67122 0.44155 0.0
C2475 C 0.80537 0.67592 0.41089 0.0
C2476 C 0.79878 0.65199 0.45601 0.0
C2477 C 0.77352 0.61766 0.45544 0.0
C2478 C 0.79525 0.6559 0.42636 0.0
C2479 C 0.76008 0.60321 0.43998 0.0
C2480 C 0.80432 0.66057 0.39572 0.0
C2481 C 0.8231 0.72861 0.39723 0.0
N2482 N 0.77127 0.62239 0.42601 0.0
N2483 N 0.81497 0.70945 0.41122 0.0
H2484 H 0.94619 0.72871 0.88999 0.0
H2485 H 0.80584 0.6261 0.95663 0.0
H2486 H 0.84167 0.69469 0.8783 0.0
H2487 H 0.8853 0.6034 0.94655 0.0
H2488 H 0.8213 0.6605 0.93124 0.0
H2489 H 0.9277 0.69317 0.91486 0.0
C2490 C 0.9194 0.71425 0.89283 0.0
C2491 C 0.89538 0.71468 0.88214 0.0
C2492 C 0.83504 0.64767 0.93457 0.0
C2493 C 0.87425 0.67425 0.91049 0.0
C2494 C 0.82627 0.62809 0.94897 0.0
C2495 C 0.84418 0.61172 0.95356 0.0
C2496 C 0.86261 0.65177 0.92509 0.0
C2497 C 0.87061 0.61528 0.94332 0.0
C2498 C 0.90891 0.69376 0.90689 0.0
C2499 C 0.86094 0.69503 0.88626 0.0
N2500 N 0.87939 0.63537 0.92969 0.0
N2501 N 0.85134 0.67574 0.90022 0.0
H2502 H 0.2971 0.13998 0.87818 0.0
H2503 H 0.39496 0.27868 0.94601 0.0
H2504 H 0.26912 0.21508 0.88988 0.0
H2505 H 0.36465 0.17466 0.95692 0.0
H2506 H 0.35968 0.2598 0.92106 0.0
H2507 H 0.33154 0.15554 0.90356 0.0
C2508 C 0.29793 0.15944 0.88619 0.0
C2509 C 0.2801 0.17613 0.88206 0.0
C2510 C 0.36106 0.24123 0.92888 0.0
C2511 C 0.32016 0.19472 0.91049 0.0
C2512 C 0.3814 0.25195 0.94298 0.0
C2513 C 0.38272 0.22815 0.95347 0.0
C2514 C 0.34264 0.20661 0.92506 0.0
C2515 C 0.36425 0.19375 0.94911 0.0
C2516 C 0.31754 0.16827 0.90058 0.0
C2517 C 0.28217 0.20135 0.89274 0.0
N2518 N 0.34506 0.18395 0.93512 0.0
N2519 N 0.30232 0.21028 0.90635 0.0
H2520 H 0.82825 0.06996 0.89781 0.0
H2521 H 0.7385 0.16058 0.9405 0.0
H2522 H 0.81028 0.14163 0.87125 0.0
H2523 H 0.80638 0.13811 0.9677 0.0
H2524 H 0.75757 0.14687 0.91468 0.0
H2525 H 0.81353 0.08785 0.92369 0.0
C2526 C 0.82147 0.08959 0.89744 0.0
C2527 C 0.82067 0.10447 0.88239 0.0
C2528 C 0.76837 0.1452 0.92633 0.0
C2529 C 0.80307 0.12431 0.91174 0.0
C2530 C 0.75748 0.15293 0.94102 0.0
C2531 C 0.77099 0.15063 0.95622 0.0
C2532 C 0.79224 0.13429 0.92695 0.0
C2533 C 0.79548 0.14049 0.95623 0.0
C2534 C 0.81311 0.09977 0.91217 0.0
C2535 C 0.81152 0.12969 0.8826 0.0
N2536 N 0.80504 0.13232 0.94184 0.0
N2537 N 0.80268 0.13853 0.89701 0.0
H2538 H 0.66404 0.85229 0.53704 0.0
H2539 H 0.66309 0.85342 0.63515 0.0
H2540 H 0.57537 0.8339 0.56466 0.0
H2541 H 0.752 0.92136 0.60702 0.0
H2542 H 0.63044 0.83503 0.60945 0.0
H2543 H 0.6963 0.86655 0.56281 0.0
C2544 C 0.65121 0.85084 0.54855 0.0
C2545 C 0.61691 0.8419 0.54872 0.0
C2546 C 0.65712 0.85382 0.60894 0.0
C2547 C 0.65376 0.85798 0.57819 0.0
C2548 C 0.67586 0.86419 0.62354 0.0
C2549 C 0.71036 0.88899 0.6232 0.0
C2550 C 0.67312 0.8678 0.59384 0.0
C2551 C 0.72547 0.90225 0.60783 0.0
C2552 C 0.66975 0.85921 0.56321 0.0
C2553 C 0.60175 0.84073 0.56399 0.0
N2554 N 0.70677 0.89134 0.59372 0.0
N2555 N 0.62027 0.84854 0.57817 0.0
H2556 H 0.115 0.71646 0.55763 0.0
H2557 H 0.15534 0.8575 0.62445 0.0
H2558 H 0.1901 0.82009 0.54692 0.0
H2559 H 0.05252 0.78142 0.61296 0.0
H2560 H 0.17461 0.84087 0.59956 0.0
H2561 H 0.0983 0.73579 0.58234 0.0
C2562 C 0.12845 0.74318 0.56068 0.0
C2563 C 0.15402 0.76674 0.55028 0.0
C2564 C 0.14784 0.82814 0.60247 0.0
C2565 C 0.13509 0.78883 0.57841 0.0
C2566 C 0.13684 0.8376 0.61658 0.0
C2567 C 0.10227 0.82098 0.62063 0.0
C2568 C 0.12421 0.80114 0.59275 0.0
C2569 C 0.07933 0.79515 0.61014 0.0
C2570 C 0.11865 0.75418 0.57463 0.0
C2571 C 0.17027 0.80116 0.55466 0.0
N2572 N 0.09076 0.78564 0.59681 0.0
N2573 N 0.16066 0.81122 0.56848 0.0
H2574 H 0.186 0.32996 0.53502 0.0
H2575 H 0.18622 0.33202 0.63317 0.0
H2576 H 0.25472 0.4191 0.56278 0.0
H2577 H 0.16646 0.24286 0.60561 0.0
H2578 H 0.20044 0.36415 0.60733 0.0
H2579 H 0.16776 0.29771 0.56083 0.0
C2580 C 0.19698 0.34287 0.54657 0.0
C2581 C 0.22196 0.37731 0.54677 0.0
C2582 C 0.19281 0.33752 0.60696 0.0
C2583 C 0.20091 0.34052 0.57627 0.0
C2584 C 0.18445 0.31906 0.62166 0.0
C2585 C 0.17513 0.28466 0.62152 0.0
C2586 C 0.19117 0.32134 0.59198 0.0
C2587 C 0.17357 0.26932 0.60625 0.0
C2588 C 0.18669 0.32436 0.56124 0.0
C2589 C 0.23547 0.39261 0.56208 0.0
N2590 N 0.18137 0.28775 0.59205 0.0
N2591 N 0.22463 0.37413 0.57626 0.0
H2592 H 0.90725 0.40584 0.73106 0.0
H2593 H 0.08852 0.49611 0.77251 0.0
H2594 H 0.9963 0.47562 0.70356 0.0
H2595 H -0.00025 0.47757 0.80006 0.0
H2596 H 0.05508 0.48186 0.74689 0.0
H2597 H 0.9406 0.42501 0.75671 0.0
C2598 C 0.93369 0.42532 0.73044 0.0
C2599 C 0.94898 0.43929 0.71519 0.0
C2600 C 0.04311 0.4812 0.75857 0.0
C2601 C 0.98726 0.46057 0.74428 0.0
C2602 C 0.06211 0.48926 0.77315 0.0
C2603 C 0.04693 0.48818 0.78839 0.0
C2604 C 0.00855 0.47115 0.75934 0.0
C2605 C 0.01255 0.479 0.78854 0.0
C2606 C 0.95264 0.43624 0.74503 0.0
C2607 C 0.98341 0.46437 0.71507 0.0
N2608 N 0.9944 0.47043 0.77427 0.0
N2609 N 0.0015 0.47391 0.72936 0.0
H2610 H 0.52047 0.52147 0.70273 0.0
H2611 H 0.52165 0.52378 0.80074 0.0
H2612 H 0.589 0.50124 0.73078 0.0
H2613 H 0.50359 0.59347 0.77241 0.0
H2614 H 0.53573 0.50486 0.7752 0.0
H2615 H 0.50334 0.53735 0.72831 0.0
C2616 C 0.53161 0.51992 0.7143 0.0
C2617 C 0.55621 0.50993 0.71464 0.0
C2618 C 0.52854 0.52417 0.7746 0.0
C2619 C 0.53646 0.52795 0.7439 0.0
C2620 C 0.52025 0.53485 0.78912 0.0
C2621 C 0.51135 0.56024 0.78869 0.0
C2622 C 0.52724 0.53841 0.75946 0.0
C2623 C 0.51033 0.57387 0.77329 0.0
C2624 C 0.52198 0.52926 0.72884 0.0
C2625 C 0.56998 0.50878 0.72998 0.0
N2626 N 0.51799 0.56262 0.75923 0.0
N2627 N 0.55976 0.51752 0.74404 0.0
H2628 H 0.47295 0.9972 0.70296 0.0
H2629 H 0.47603 -0.00046 0.80101 0.0
H2630 H 0.49422 0.08663 0.73069 0.0
H2631 H 0.40598 0.91027 0.7737 0.0
H2632 H 0.49327 0.03159 0.77516 0.0
H2633 H 0.4586 0.96493 0.72876 0.0
C2634 C 0.47496 0.01017 0.7145 0.0
C2635 C 0.48483 0.04472 0.71469 0.0
C2636 C 0.47426 0.00497 0.77484 0.0
C2637 C 0.46868 0.00788 0.74419 0.0
C2638 C 0.46454 0.98654 0.78955 0.0
C2639 C 0.4395 0.95211 0.78949 0.0
C2640 C 0.45939 0.98875 0.75992 0.0
C2641 C 0.42533 0.93674 0.77428 0.0
C2642 C 0.46654 0.99164 0.72917 0.0
C2643 C 0.48669 0.06007 0.72999 0.0
N2644 N 0.43562 0.95516 0.76005 0.0
N2645 N 0.47886 0.04156 0.74418 0.0
H2646 H 0.52225 -0.00025 0.20368 0.0
H2647 H 0.52161 0.00027 0.30176 0.0
H2648 H 0.59039 0.08895 0.23155 0.0
H2649 H 0.50369 0.91199 0.27395 0.0
H2650 H 0.53636 0.03292 0.27605 0.0
H2651 H 0.50468 0.96716 0.22939 0.0
C2652 C 0.53324 0.01261 0.21523 0.0
C2653 C 0.55782 0.04719 0.21548 0.0
C2654 C 0.52905 0.00638 0.2756 0.0
C2655 C 0.53755 0.00996 0.24491 0.0
C2656 C 0.52039 0.98762 0.29021 0.0
C2657 C 0.51135 0.95329 0.28997 0.0
C2658 C 0.52797 0.99056 0.26057 0.0
C2659 C 0.51054 0.93837 0.27468 0.0
C2660 C 0.52334 0.99389 0.22986 0.0
C2661 C 0.57141 0.06237 0.23081 0.0
N2662 N 0.51855 0.95707 0.26054 0.0
N2663 N 0.56092 0.04368 0.24495 0.0
H2664 H 0.03671 0.51065 0.28978 0.0
H2665 H 0.93531 0.55115 0.22363 0.0
H2666 H 0.06209 0.6135 0.27937 0.0
H2667 H 0.96572 0.4778 0.21204 0.0
H2668 H 0.97162 0.56788 0.24825 0.0
H2669 H 0.00173 0.49207 0.26459 0.0
C2670 C 0.03525 0.52931 0.28207 0.0
C2671 C 0.0525 0.56367 0.28653 0.0
C2672 C 0.97006 0.54794 0.24035 0.0
C2673 C 0.01172 0.54249 0.2583 0.0
C2674 C 0.94912 0.53813 0.22645 0.0
C2675 C 0.94748 0.51298 0.21586 0.0
C2676 C 0.98878 0.53191 0.24389 0.0
C2677 C 0.96632 0.49729 0.21993 0.0
C2678 C 0.01529 0.51871 0.26779 0.0
C2679 C 0.04954 0.58685 0.27624 0.0
N2680 N 0.98607 0.50684 0.23373 0.0
N2681 N 0.02907 0.57576 0.26273 0.0
H2682 H 0.47452 0.47608 0.20221 0.0
H2683 H 0.47533 0.47581 0.30021 0.0
H2684 H 0.4931 0.40605 0.22994 0.0
H2685 H 0.40654 0.49612 0.27244 0.0
H2686 H 0.49283 0.46079 0.27448 0.0
H2687 H 0.46035 0.49426 0.22795 0.0
C2688 C 0.47604 0.4648 0.21374 0.0
C2689 C 0.48507 0.4395 0.21395 0.0
C2690 C 0.47404 0.46869 0.27405 0.0
C2691 C 0.46905 0.46046 0.24338 0.0
C2692 C 0.46418 0.47752 0.28867 0.0
C2693 C 0.43943 0.48728 0.28844 0.0
C2694 C 0.4596 0.47032 0.25904 0.0
C2695 C 0.42565 0.4887 0.27315 0.0
C2696 C 0.46769 0.47505 0.22838 0.0
C2697 C 0.48625 0.42558 0.22924 0.0
N2698 N 0.43609 0.48048 0.25901 0.0
N2699 N 0.4785 0.4364 0.2434 0.0
H2700 H 0.01439 0.18684 0.30026 0.0
H2701 H 0.98045 0.17255 0.20253 0.0
H2702 H 0.91554 0.15036 0.27864 0.0
H2703 H 0.07952 0.23156 0.22448 0.0
H2704 H 0.95611 0.15555 0.23026 0.0
H2705 H 0.03836 0.19459 0.27244 0.0
C2706 C 0.99766 0.18012 0.28968 0.0
C2707 C 0.96293 0.1682 0.29178 0.0
C2708 C 0.9832 0.17204 0.22898 0.0
C2709 C 0.99022 0.17701 0.25993 0.0
C2710 C 0.99713 0.18167 0.21316 0.0
C2711 C 0.03204 0.20375 0.21118 0.0
C2712 C 0.00437 0.18435 0.24292 0.0
C2713 C 0.05243 0.21471 0.22541 0.0
C2714 C 0.01138 0.18467 0.2738 0.0
C2715 C 0.94249 0.15987 0.2776 0.0
N2716 N 0.03828 0.205 0.24067 0.0
N2717 N 0.95645 0.16456 0.26229 0.0
H2718 H 0.84805 0.76827 0.27982 0.0
H2719 H 0.75862 0.84643 0.22501 0.0
H2720 H 0.80218 0.82265 0.30098 0.0
H2721 H 0.82458 0.81295 0.20478 0.0
H2722 H 0.77431 0.83843 0.2529 0.0
H2723 H 0.83977 0.78473 0.25226 0.0
C2724 C 0.83641 0.78387 0.27868 0.0
C2725 C 0.82563 0.79393 0.29275 0.0
C2726 C 0.78558 0.83315 0.24236 0.0
C2727 C 0.81577 0.81267 0.26112 0.0
C2728 C 0.77662 0.83767 0.22642 0.0
C2729 C 0.79017 0.83018 0.21251 0.0
C2730 C 0.80797 0.82067 0.24443 0.0
C2731 C 0.81343 0.81898 0.21512 0.0
C2732 C 0.83175 0.79332 0.26292 0.0
C2733 C 0.81085 0.81428 0.29048 0.0
N2734 N 0.82132 0.81427 0.23074 0.0
N2735 N 0.80604 0.82269 0.27496 0.0
H2736 H 0.17458 0.98186 0.30083 0.0
H2737 H 0.18784 0.01575 0.20316 0.0
H2738 H 0.23263 0.08115 0.27896 0.0
H2739 H 0.15333 0.91701 0.22454 0.0
H2740 H 0.19639 0.03962 0.23098 0.0
H2741 H 0.15869 0.95741 0.27308 0.0
C2742 C 0.18375 0.99857 0.29021 0.0
C2743 C 0.20516 0.03363 0.29223 0.0
C2744 C 0.18678 0.01271 0.22958 0.0
C2745 C 0.18698 0.00574 0.26045 0.0
C2746 C 0.18178 -0.00099 0.21369 0.0
C2747 C 0.17004 0.96432 0.21149 0.0
C2748 C 0.17977 0.99158 0.24342 0.0
C2749 C 0.16259 0.94391 0.22564 0.0
C2750 C 0.17475 0.98456 0.27437 0.0
C2751 C 0.21623 0.05399 0.278 0.0
N2752 N 0.16765 0.95786 0.24099 0.0
N2753 N 0.20707 0.03975 0.26273 0.0
H2754 H 0.01495 0.82462 0.80014 0.0
H2755 H 0.98009 0.80733 0.70254 0.0
H2756 H 0.91577 0.76276 0.77876 0.0
H2757 H 0.07939 0.84539 0.72392 0.0
H2758 H 0.95619 0.7987 0.73039 0.0
H2759 H 0.03879 0.84024 0.7723 0.0
C2760 C 0.99811 0.81456 0.7896 0.0
C2761 C 0.96329 0.79218 0.79181 0.0
C2762 C 0.98323 0.80911 0.72898 0.0
C2763 C 0.99051 0.81003 0.75987 0.0
C2764 C 0.99694 0.81417 0.71308 0.0
C2765 C 0.03182 0.82695 0.71087 0.0
C2766 C 0.00452 0.81713 0.74281 0.0
C2767 C 0.05236 0.83534 0.72502 0.0
C2768 C 0.01179 0.82341 0.7737 0.0
C2769 C 0.94276 0.77996 0.77766 0.0
N2770 N 0.0384 0.83022 0.74037 0.0
N2771 N 0.95668 0.78899 0.76231 0.0
H2772 H 0.19202 0.17513 0.7022 0.0
H2773 H 0.17173 0.18919 0.79984 0.0
H2774 H 0.14928 0.23187 0.72401 0.0
H2775 H 0.23615 0.15485 0.77854 0.0
H2776 H 0.15589 0.19701 0.77201 0.0
H2777 H 0.20091 0.15958 0.72997 0.0
C2778 C 0.18418 0.18404 0.71281 0.0
C2779 C 0.17004 0.20501 0.71076 0.0
C2780 C 0.17337 0.18761 0.77343 0.0
C2781 C 0.18017 0.18728 0.74257 0.0
C2782 C 0.18237 0.18304 0.78932 0.0
C2783 C 0.20551 0.17155 0.79155 0.0
C2784 C 0.1874 0.18045 0.75961 0.0
C2785 C 0.21838 0.16393 0.77742 0.0
C2786 C 0.1894 0.17526 0.72866 0.0
C2787 C 0.16043 0.21582 0.72498 0.0
N2788 N 0.20922 0.1686 0.76205 0.0
N2789 N 0.16573 0.2069 0.74026 0.0
H2790 H 0.84529 0.08425 0.77952 0.0
H2791 H 0.83178 0.01193 0.70245 0.0
H2792 H 0.80902 0.98404 0.7994 0.0
H2793 H 0.7579 0.91921 0.72613 0.0
H2794 H 0.84967 0.03839 0.72958 0.0
H2795 H 0.83813 0.06137 0.7517 0.0
C2796 C 0.8363 0.05746 0.77804 0.0
C2797 C 0.82776 0.03605 0.79184 0.0
C2798 C 0.82928 0.01239 0.72888 0.0
C2799 C 0.82002 0.00956 0.75985 0.0
C2800 C 0.81929 0.99712 0.71336 0.0
C2801 C 0.79295 0.96342 0.71198 0.0
C2802 C 0.81265 0.99392 0.74316 0.0
C2803 C 0.77808 0.94536 0.72659 0.0
C2804 C 0.83252 0.0444 0.76208 0.0
C2805 C 0.81602 0.0015 0.78912 0.0
N2806 N 0.78803 0.96088 0.74155 0.0
N2807 N 0.81214 0.98927 0.77343 0.0
H2808 H 0.6813 0.52299 0.63372 0.0
H2809 H 0.64686 0.50578 0.53597 0.0
H2810 H 0.58207 0.48441 0.61217 0.0
H2811 H 0.74604 0.56522 0.55773 0.0
H2812 H 0.6226 0.48982 0.56378 0.0
H2813 H 0.70521 0.53069 0.6059 0.0
C2814 C 0.66448 0.51586 0.62316 0.0
C2815 C 0.62964 0.50326 0.62529 0.0
C2816 C 0.6497 0.50618 0.56245 0.0
C2817 C 0.65689 0.51201 0.5934 0.0
C2818 C 0.66358 0.5152 0.54657 0.0
C2819 C 0.69851 0.53707 0.54451 0.0
C2820 C 0.67093 0.5189 0.57635 0.0
C2821 C 0.71894 0.5485 0.55872 0.0
C2822 C 0.67818 0.52036 0.60727 0.0
C2823 C 0.6091 0.49441 0.61112 0.0
N2824 N 0.70485 0.53937 0.57402 0.0
N2825 N 0.62304 0.49905 0.59579 0.0
H2826 H 0.51571 0.09835 0.6123 0.0
H2827 H 0.43237 0.18401 0.5585 0.0
H2828 H 0.47569 0.15792 0.63363 0.0
H2829 H 0.49202 0.14395 0.53729 0.0
H2830 H 0.44891 0.17577 0.58611 0.0
H2831 H 0.50823 0.11568 0.58474 0.0
C2832 C 0.50561 0.1153 0.6112 0.0
C2833 C 0.49613 0.12654 0.62531 0.0
C2834 C 0.45866 0.1691 0.57541 0.0
C2835 C 0.4872 0.14623 0.59375 0.0
C2836 C 0.44921 0.17379 0.55963 0.0
C2837 C 0.46066 0.16448 0.54555 0.0
C2838 C 0.47941 0.15463 0.57716 0.0
C2839 C 0.4825 0.15141 0.5478 0.0
C2840 C 0.50138 0.12523 0.59545 0.0
C2841 C 0.48327 0.14857 0.62311 0.0
N2842 N 0.49087 0.14655 0.5633 0.0
N2843 N 0.47886 0.15741 0.60763 0.0
H2844 H 0.83918 0.31484 0.63393 0.0
H2845 H 0.85709 0.34901 0.53618 0.0
H2846 H 0.90006 0.41386 0.61221 0.0
H2847 H 0.81685 0.24965 0.55784 0.0
H2848 H 0.86541 0.37316 0.56397 0.0
H2849 H 0.82324 0.29066 0.60613 0.0
C2850 C 0.84896 0.33155 0.62334 0.0
C2851 C 0.87118 0.36642 0.62542 0.0
C2852 C 0.85458 0.34605 0.56263 0.0
C2853 C 0.853 0.33888 0.59357 0.0
C2854 C 0.84972 0.33222 0.54676 0.0
C2855 C 0.83646 0.29725 0.54466 0.0
C2856 C 0.84592 0.32478 0.57652 0.0
C2857 C 0.82734 0.27676 0.55886 0.0
C2858 C 0.83993 0.3177 0.60747 0.0
C2859 C 0.88304 0.38682 0.61121 0.0
N2860 N 0.83232 0.29083 0.57417 0.0
N2861 N 0.87388 0.37275 0.59591 0.0
H2862 H 0.74902 0.18101 0.05866 0.0
H2863 H 0.58086 0.10004 0.11314 0.0
H2864 H 0.6491 0.14136 0.03778 0.0
H2865 H 0.68103 0.15816 0.13404 0.0
H2866 H 0.60533 0.11594 0.08547 0.0
H2867 H 0.72479 0.17394 0.08633 0.0
C2868 C 0.72201 0.17107 0.05988 0.0
C2869 C 0.70103 0.16158 0.04586 0.0
C2870 C 0.62195 0.12549 0.0961 0.0
C2871 C 0.67308 0.15314 0.07756 0.0
C2872 C 0.60799 0.11639 0.11192 0.0
C2873 C 0.62894 0.12762 0.12595 0.0
C2874 C 0.6572 0.14567 0.09423 0.0
C2875 C 0.66391 0.14886 0.12358 0.0
C2876 C 0.7082 0.16708 0.0757 0.0
C2877 C 0.66623 0.14894 0.04822 0.0
N2878 N 0.67697 0.1569 0.10803 0.0
N2879 N 0.65331 0.14479 0.06377 0.0
H2880 H 0.83827 0.52369 0.13381 0.0
H2881 H 0.85509 0.50414 0.03639 0.0
H2882 H 0.89848 0.48418 0.1127 0.0
H2883 H 0.81938 0.56775 0.05731 0.0
H2884 H 0.86291 0.4887 0.06432 0.0
H2885 H 0.82298 0.53197 0.1059 0.0
C2886 C 0.84803 0.51643 0.12332 0.0
C2887 C 0.86987 0.50338 0.12562 0.0
C2888 C 0.85319 0.5059 0.06279 0.0
C2889 C 0.85241 0.51282 0.09363 0.0
C2890 C 0.8486 0.51466 0.04684 0.0
C2891 C 0.83673 0.53747 0.04448 0.0
C2892 C 0.84564 0.5198 0.07652 0.0
C2893 C 0.82875 0.55023 0.05853 0.0
C2894 C 0.83938 0.52131 0.10739 0.0
C2895 C 0.88171 0.49446 0.11153 0.0
N2896 N 0.83341 0.54127 0.07395 0.0
N2897 N 0.87289 0.49941 0.09615 0.0
H2898 H 0.5123 0.41578 0.11132 0.0
H2899 H 0.42728 0.24762 0.05677 0.0
H2900 H 0.4696 0.31571 0.13244 0.0
H2901 H 0.49053 0.34741 0.03626 0.0
H2902 H 0.44247 0.27178 0.08458 0.0
H2903 H 0.50454 0.39113 0.08373 0.0
C2904 C 0.50149 0.38864 0.11016 0.0
C2905 C 0.49143 0.36777 0.12422 0.0
C2906 C 0.45326 0.28833 0.074 0.0
C2907 C 0.4822 0.33932 0.09261 0.0
C2908 C 0.44458 0.27456 0.05811 0.0
C2909 C 0.45752 0.29554 0.04415 0.0
C2910 C 0.47473 0.3234 0.07596 0.0
C2911 C 0.47988 0.33026 0.04665 0.0
C2912 C 0.49712 0.37457 0.09439 0.0
C2913 C 0.47768 0.33276 0.12195 0.0
N2914 N 0.48751 0.34313 0.06223 0.0
N2915 N 0.47317 0.31961 0.10644 0.0
H2916 H 0.41735 0.90184 0.89151 0.0
H2917 H 0.3458 0.84418 0.96863 0.0
H2918 H 0.31617 0.84221 0.87195 0.0
H2919 H 0.25385 0.83011 0.94602 0.0
H2920 H 0.37113 0.85216 0.94129 0.0
H2921 H 0.39472 0.88673 0.91937 0.0
C2922 C 0.39037 0.88506 0.89307 0.0
C2923 C 0.36866 0.87324 0.87934 0.0
C2924 C 0.34559 0.84781 0.94225 0.0
C2925 C 0.34238 0.85513 0.91142 0.0
C2926 C 0.33094 0.84287 0.9579 0.0
C2927 C 0.29779 0.83695 0.95966 0.0
C2928 C 0.32712 0.84717 0.9282 0.0
C2929 C 0.2796 0.83494 0.94527 0.0
C2930 C 0.37742 0.87612 0.90906 0.0
C2931 C 0.33386 0.8518 0.88217 0.0
N2932 N 0.29457 0.84021 0.93015 0.0
N2933 N 0.32176 0.84372 0.89791 0.0
H2934 H 0.13989 0.49088 0.96708 0.0
H2935 H 0.1592 0.47624 0.86934 0.0
H2936 H 0.17773 0.42991 0.94516 0.0
H2937 H 0.09874 0.51499 0.89094 0.0
H2938 H 0.17452 0.46742 0.89716 0.0
H2939 H 0.13286 0.50805 0.93934 0.0
C2940 C 0.147 0.48134 0.95645 0.0
C2941 C 0.15919 0.45871 0.95845 0.0
C2942 C 0.15809 0.47807 0.89579 0.0
C2943 C 0.15126 0.47833 0.92669 0.0
C2944 C 0.14943 0.48324 0.87991 0.0
C2945 C 0.12745 0.49616 0.87779 0.0
C2946 C 0.14488 0.48608 0.90967 0.0
C2947 C 0.11559 0.50477 0.89198 0.0
C2948 C 0.14288 0.49107 0.94062 0.0
C2949 C 0.16802 0.4472 0.94422 0.0
N2950 N 0.12435 0.49947 0.9073 0.0
N2951 N 0.1638 0.45706 0.92895 0.0
H2952 H 0.5258 0.68458 0.86983 0.0
H2953 H 0.50335 0.64834 0.96731 0.0
H2954 H 0.48297 0.58466 0.89115 0.0
H2955 H 0.56839 0.74735 0.94639 0.0
H2956 H 0.48778 0.62515 0.93935 0.0
H2957 H 0.53366 0.70836 0.8977 0.0
C2958 C 0.51774 0.6676 0.88035 0.0
C2959 C 0.50392 0.63258 0.87815 0.0
C2960 C 0.50531 0.65198 0.94089 0.0
C2961 C 0.51283 0.65965 0.91007 0.0
C2962 C 0.51414 0.66528 0.95685 0.0
C2963 C 0.53742 0.69982 0.95921 0.0
C2964 C 0.51964 0.67339 0.92716 0.0
C2965 C 0.55051 0.72053 0.94516 0.0
C2966 C 0.52235 0.68121 0.89626 0.0
C2967 C 0.49394 0.61182 0.89226 0.0
N2968 N 0.54152 0.70698 0.92975 0.0
N2969 N 0.49867 0.62567 0.9076 0.0
H2970 H 0.2467 0.43093 0.44456 0.0
H2971 H 0.41567 0.51565 0.39079 0.0
H2972 H 0.34628 0.49017 0.46595 0.0
H2973 H 0.31595 0.47546 0.36959 0.0
H2974 H 0.39095 0.50762 0.41839 0.0
H2975 H 0.27156 0.44796 0.41703 0.0
C2976 C 0.27378 0.44776 0.44348 0.0
C2977 C 0.29447 0.45897 0.45759 0.0
C2978 C 0.37451 0.50085 0.4077 0.0
C2979 C 0.32316 0.47833 0.42604 0.0
C2980 C 0.3886 0.50539 0.39193 0.0
C2981 C 0.36782 0.49601 0.37784 0.0
C2982 C 0.33931 0.48648 0.40945 0.0
C2983 C 0.33293 0.48296 0.38009 0.0
C2984 C 0.28796 0.45751 0.42774 0.0
C2985 C 0.32938 0.48085 0.45541 0.0
N2986 N 0.31974 0.47826 0.39559 0.0
N2987 N 0.34267 0.48953 0.43993 0.0
H2988 H 0.48183 0.90063 0.39235 0.0
H2989 H 0.56488 0.81485 0.4463 0.0
H2990 H 0.52061 0.83984 0.37117 0.0
H2991 H 0.50663 0.85647 0.46753 0.0
H2992 H 0.54822 0.82297 0.41871 0.0
H2993 H 0.48983 0.88398 0.41996 0.0
C2994 C 0.49176 0.88354 0.3935 0.0
C2995 C 0.50074 0.87176 0.37941 0.0
C2996 C 0.53882 0.83005 0.4294 0.0
C2997 C 0.51029 0.85286 0.41104 0.0
C2998 C 0.54836 0.82546 0.44517 0.0
C2999 C 0.53729 0.83517 0.45927 0.0
C3000 C 0.51836 0.84482 0.42766 0.0
C3001 C 0.51584 0.84869 0.45702 0.0
C3002 C 0.4963 0.87401 0.40928 0.0
C3003 C 0.5134 0.84959 0.38167 0.0
N3004 N 0.50735 0.85342 0.44152 0.0
N3005 N 0.51811 0.84114 0.39719 0.0
H3006 H 0.17705 0.74875 0.44652 0.0
H3007 H 0.0932 0.58265 0.39023 0.0
H3008 H 0.13719 0.64791 0.46629 0.0
H3009 H 0.15474 0.68333 0.37038 0.0
H3010 H 0.10808 0.60603 0.4182 0.0
H3011 H 0.16824 0.7254 0.41853 0.0
C3012 C 0.16664 0.72173 0.44499 0.0
C3013 C 0.15775 0.70027 0.4588 0.0
C3014 C 0.11852 0.62298 0.40772 0.0
C3015 C 0.14729 0.67331 0.42676 0.0
C3016 C 0.11 0.60965 0.39174 0.0
C3017 C 0.12264 0.63106 0.37792 0.0
C3018 C 0.13954 0.65805 0.40994 0.0
C3019 C 0.14436 0.66585 0.38066 0.0
C3020 C 0.16166 0.70841 0.429 0.0
C3021 C 0.14441 0.66544 0.45603 0.0
N3022 N 0.15189 0.67828 0.39634 0.0
N3023 N 0.13933 0.65304 0.44035 0.0
loop_
_geom_bond_atom_site_label_1
_geom_bond_atom_site_label_2
_geom_bond_distance
_geom_bond_site_symmetry_2
_ccdc_geom_bond_type
Co0 N5 2.057 . S
Co0 O17 2.021 . S
Co0 O20 2.062 . S
Co0 O24 2.117 . S
Co0 O25 2.020 . S
C1 O21 1.259 . S
C1 O24 1.258 . S
Co2 N11 2.057 . S
Co2 O18 2.117 . S
Co2 O19 2.020 . S
Co2 O21 2.021 . S
Co2 O26 2.062 . S
C3 N5 1.315 1_655 S
C3 N6 1.373 . S
C3 H8 0.909 1_655 S
C4 N5 1.375 1_655 S
C4 C7 1.350 . S
C4 H9 0.938 1_655 S
N5 Co0 2.057 . S
N5 C3 1.315 1_455 S
N5 C4 1.375 1_455 S
N6 C3 1.373 . S
N6 C7 1.373 . S
C7 C4 1.350 . S
C7 N6 1.373 . S
C7 H28 0.931 . S
H8 C3 0.909 1_455 S
H9 C4 0.938 1_455 S
C10 O17 1.259 . S
C10 O18 1.258 . S
N11 Co2 2.057 . S
N11 C12 1.316 . S
N11 C13 1.375 . S
C12 N11 1.316 . S
C12 N14 1.347 . S
C12 H23 0.931 . S
C13 N11 1.375 . S
C13 C15 1.350 . S
C13 H22 0.930 . S
N14 C12 1.347 . S
N14 C15 1.373 . S
C15 C13 1.350 . S
C15 N14 1.373 . S
C15 H29 0.931 . S
C16 O19 1.256 . S
C16 O20 1.255 . S
O17 Co0 2.021 . S
O17 C10 1.259 . S
O18 Co2 2.117 . S
O18 C10 1.258 . S
O19 Co2 2.020 . S
O19 C16 1.256 . S
O20 Co0 2.062 . S
O20 C16 1.255 . S
O21 C1 1.259 . S
O21 Co2 2.021 . S
H22 C13 0.930 . S
H23 C12 0.931 . S
O24 Co0 2.117 . S
O24 C1 1.258 . S
O25 Co0 2.020 . S
O25 C27 1.256 . S
O26 Co2 2.062 . S
O26 C27 1.255 . S
C27 O25 1.256 . S
C27 O26 1.255 . S
H28 C7 0.931 . S
H29 C15 0.931 . S
Co30 N35 2.057 . S
Co30 O47 2.021 . S
Co30 O50 2.062 . S
Co30 O54 2.117 . S
Co30 O55 2.020 . S
C31 O51 1.259 . S
C31 O54 1.258 . S
Co32 N41 2.057 . S
Co32 O48 2.117 . S
Co32 O49 2.020 . S
Co32 O51 2.021 . S
Co32 O56 2.062 . S
C33 N35 1.316 . S
C33 N36 1.347 . S
C33 H38 0.931 . S
C34 N35 1.375 . S
C34 C37 1.350 . S
C34 H39 0.930 . S
N35 Co30 2.057 . S
N35 C33 1.316 . S
N35 C34 1.375 . S
N36 C33 1.347 . S
N36 C37 1.373 . S
C37 C34 1.350 . S
C37 N36 1.373 . S
C37 H58 0.931 . S
H38 C33 0.931 . S
H39 C34 0.930 . S
C40 O47 1.259 . S
C40 O48 1.258 . S
N41 Co32 2.057 . S
N41 C42 1.316 . S
N41 C43 1.375 . S
C42 N41 1.316 . S
C42 N44 1.347 . S
C42 H53 0.931 . S
C43 N41 1.375 . S
C43 C45 1.350 . S
C43 H52 0.930 . S
N44 C42 1.347 . S
N44 C45 1.373 . S
C45 C43 1.350 . S
C45 N44 1.373 . S
C45 H59 0.931 . S
C46 O49 1.256 . S
C46 O50 1.255 . S
O47 Co30 2.021 . S
O47 C40 1.259 . S
O48 Co32 2.117 . S
O48 C40 1.258 . S
O49 Co32 2.020 . S
O49 C46 1.256 . S
O50 Co30 2.062 . S
O50 C46 1.255 . S
O51 C31 1.259 . S
O51 Co32 2.021 . S
H52 C43 0.930 . S
H53 C42 0.931 . S
O54 Co30 2.117 . S
O54 C31 1.258 . S
O55 Co30 2.020 . S
O55 C57 1.256 . S
O56 Co32 2.062 . S
O56 C57 1.255 . S
C57 O55 1.256 . S
C57 O56 1.255 . S
H58 C37 0.931 . S
H59 C45 0.931 . S
Co60 N65 2.057 . S
Co60 O77 2.021 . S
Co60 O80 2.062 . S
Co60 O84 2.117 . S
Co60 O85 2.020 . S
C61 O81 1.259 . S
C61 O84 1.258 . S
Co62 N71 2.057 . S
Co62 O78 2.117 . S
Co62 O79 2.020 . S
Co62 O81 2.021 . S
Co62 O86 2.062 . S
C63 N65 1.291 1_545 S
C63 N66 1.368 . S
C63 H68 0.935 1_545 S
C64 N65 1.375 1_545 S
C64 C67 1.350 . S
C64 H69 0.911 1_545 S
N65 Co60 2.057 . S
N65 C63 1.291 1_565 S
N65 C64 1.375 1_565 S
N66 C63 1.368 . S
N66 C67 1.373 . S
C67 C64 1.350 . S
C67 N66 1.373 . S
C67 H88 0.931 . S
H68 C63 0.935 1_565 S
H69 C64 0.911 1_565 S
C70 O77 1.259 . S
C70 O78 1.258 . S
N71 Co62 2.057 . S
N71 C72 1.316 . S
N71 C73 1.375 . S
C72 N71 1.316 . S
C72 N74 1.347 . S
C72 H83 0.931 . S
C73 N71 1.375 . S
C73 C75 1.350 . S
C73 H82 0.930 . S
N74 C72 1.347 . S
N74 C75 1.373 . S
C75 C73 1.350 . S
C75 N74 1.373 . S
C75 H89 0.931 . S
C76 O79 1.256 . S
C76 O80 1.255 . S
O77 Co60 2.021 . S
O77 C70 1.259 . S
O78 Co62 2.117 . S
O78 C70 1.258 . S
O79 Co62 2.020 . S
O79 C76 1.256 . S
O80 Co60 2.062 . S
O80 C76 1.255 . S
O81 C61 1.259 . S
O81 Co62 2.021 . S
H82 C73 0.930 . S
H83 C72 0.931 . S
O84 Co60 2.117 . S
O84 C61 1.258 . S
O85 Co60 2.020 . S
O85 C87 1.256 . S
O86 Co62 2.062 . S
O86 C87 1.255 . S
C87 O85 1.256 . S
C87 O86 1.255 . S
H88 C67 0.931 . S
H89 C75 0.931 . S
Co90 N95 2.057 . S
Co90 O107 2.021 . S
Co90 O110 2.062 . S
Co90 O114 2.117 . S
Co90 O115 2.020 . S
C91 O111 1.259 . S
C91 O114 1.258 . S
Co92 N101 2.057 . S
Co92 O108 2.117 . S
Co92 O109 2.020 . S
Co92 O111 2.021 . S
Co92 O116 2.062 . S
C93 N95 1.315 1_565 S
C93 N96 1.373 . S
C93 H98 0.909 1_565 S
C94 N95 1.375 1_565 S
C94 C97 1.350 . S
C94 H99 0.938 1_565 S
N95 Co90 2.057 . S
N95 C93 1.315 1_545 S
N95 C94 1.375 1_545 S
N96 C93 1.373 . S
N96 C97 1.373 . S
C97 C94 1.350 . S
C97 N96 1.373 . S
C97 H118 0.931 . S
H98 C93 0.909 1_545 S
H99 C94 0.938 1_545 S
C100 O107 1.259 . S
C100 O108 1.258 . S
N101 Co92 2.057 . S
N101 C102 1.316 . S
N101 C103 1.375 . S
C102 N101 1.316 . S
C102 N104 1.347 . S
C102 H113 0.931 . S
C103 N101 1.375 . S
C103 C105 1.350 . S
C103 H112 0.930 . S
N104 C102 1.347 . S
N104 C105 1.373 . S
C105 C103 1.350 . S
C105 N104 1.373 . S
C105 H119 0.931 . S
C106 O109 1.256 . S
C106 O110 1.255 . S
O107 Co90 2.021 . S
O107 C100 1.259 . S
O108 Co92 2.117 . S
O108 C100 1.258 . S
O109 Co92 2.020 . S
O109 C106 1.256 . S
O110 Co90 2.062 . S
O110 C106 1.255 . S
O111 C91 1.259 . S
O111 Co92 2.021 . S
H112 C103 0.930 . S
H113 C102 0.931 . S
O114 Co90 2.117 . S
O114 C91 1.258 . S
O115 Co90 2.020 . S
O115 C117 1.256 . S
O116 Co92 2.062 . S
O116 C117 1.255 . S
C117 O115 1.256 . S
C117 O116 1.255 . S
H118 C97 0.931 . S
H119 C105 0.931 . S
Co120 N125 2.057 . S
Co120 O137 2.021 . S
Co120 O140 2.062 . S
Co120 O144 2.117 . S
Co120 O145 2.020 . S
C121 O141 1.259 . S
C121 O144 1.258 . S
Co122 N131 2.057 . S
Co122 O138 2.117 . S
Co122 O139 2.020 . S
Co122 O141 2.021 . S
Co122 O146 2.062 . S
C123 N125 1.291 1_455 S
C123 N126 1.367 . S
C123 H128 0.935 1_455 S
C124 N125 1.375 1_455 S
C124 C127 1.350 . S
C124 H129 0.911 1_455 S
N125 Co120 2.057 . S
N125 C123 1.291 1_655 S
N125 C124 1.375 1_655 S
N126 C123 1.367 . S
N126 C127 1.373 . S
C127 C124 1.350 . S
C127 N126 1.373 . S
C127 H148 0.931 . S
H128 C123 0.935 1_655 S
H129 C124 0.911 1_655 S
C130 O137 1.259 . S
C130 O138 1.258 . S
N131 Co122 2.057 . S
N131 C132 1.316 . S
N131 C133 1.375 . S
C132 N131 1.316 . S
C132 N134 1.347 . S
C132 H143 0.931 . S
C133 N131 1.375 . S
C133 C135 1.350 . S
C133 H142 0.930 . S
N134 C132 1.347 . S
N134 C135 1.373 . S
C135 C133 1.350 . S
C135 N134 1.373 . S
C135 H149 0.931 . S
C136 O139 1.256 . S
C136 O140 1.255 . S
O137 Co120 2.021 . S
O137 C130 1.259 . S
O138 Co122 2.117 . S
O138 C130 1.258 . S
O139 Co122 2.020 . S
O139 C136 1.256 . S
O140 Co120 2.062 . S
O140 C136 1.255 . S
O141 C121 1.259 . S
O141 Co122 2.021 . S
H142 C133 0.930 . S
H143 C132 0.931 . S
O144 Co120 2.117 . S
O144 C121 1.258 . S
O145 Co120 2.020 . S
O145 C147 1.256 . S
O146 Co122 2.062 . S
O146 C147 1.255 . S
C147 O145 1.256 . S
C147 O146 1.255 . S
H148 C127 0.931 . S
H149 C135 0.931 . S
Co150 N155 2.057 . S
Co150 O167 2.021 . S
Co150 O170 2.062 . S
Co150 O174 2.117 . S
Co150 O175 2.020 . S
C151 O171 1.259 . S
C151 O174 1.258 . S
Co152 N161 2.057 . S
Co152 O168 2.117 . S
Co152 O169 2.020 . S
Co152 O171 2.021 . S
Co152 O176 2.062 . S
C153 N155 1.316 . S
C153 N156 1.347 . S
C153 H158 0.931 . S
C154 N155 1.375 . S
C154 C157 1.350 . S
C154 H159 0.930 . S
N155 Co150 2.057 . S
N155 C153 1.316 . S
N155 C154 1.375 . S
N156 C153 1.347 . S
N156 C157 1.373 . S
C157 C154 1.350 . S
C157 N156 1.373 . S
C157 H178 0.931 . S
H158 C153 0.931 . S
H159 C154 0.930 . S
C160 O167 1.259 . S
C160 O168 1.258 . S
N161 Co152 2.057 . S
N161 C162 1.316 . S
N161 C163 1.375 . S
C162 N161 1.316 . S
C162 N164 1.347 . S
C162 H173 0.931 . S
C163 N161 1.375 . S
C163 C165 1.350 . S
C163 H172 0.930 . S
N164 C162 1.347 . S
N164 C165 1.373 . S
C165 C163 1.350 . S
C165 N164 1.373 . S
C165 H179 0.931 . S
C166 O169 1.256 . S
C166 O170 1.255 . S
O167 Co150 2.021 . S
O167 C160 1.259 . S
O168 Co152 2.117 . S
O168 C160 1.258 . S
O169 Co152 2.020 . S
O169 C166 1.256 . S
O170 Co150 2.062 . S
O170 C166 1.255 . S
O171 C151 1.259 . S
O171 Co152 2.021 . S
H172 C163 0.930 . S
H173 C162 0.931 . S
O174 Co150 2.117 . S
O174 C151 1.258 . S
O175 Co150 2.020 . S
O175 C177 1.256 . S
O176 Co152 2.062 . S
O176 C177 1.255 . S
C177 O175 1.256 . S
C177 O176 1.255 . S
H178 C157 0.931 . S
H179 C165 0.931 . S
Co180 N185 2.057 . S
Co180 O197 2.021 . S
Co180 O200 2.062 . S
Co180 O204 2.117 . S
Co180 O205 2.020 . S
C181 O201 1.259 . S
C181 O204 1.258 . S
Co182 N191 2.057 . S
Co182 O198 2.117 . S
Co182 O199 2.020 . S
Co182 O201 2.021 . S
Co182 O206 2.062 . S
C183 N185 1.316 . S
C183 N186 1.347 . S
C183 H188 0.931 . S
C184 N185 1.375 . S
C184 C187 1.350 . S
C184 H189 0.930 . S
N185 Co180 2.057 . S
N185 C183 1.316 . S
N185 C184 1.375 . S
N186 C183 1.347 . S
N186 C187 1.373 . S
C187 C184 1.350 . S
C187 N186 1.373 . S
C187 H208 0.931 . S
H188 C183 0.931 . S
H189 C184 0.930 . S
C190 O197 1.259 . S
C190 O198 1.258 . S
N191 Co182 2.057 . S
N191 C192 1.315 1_655 S
N191 C193 1.375 1_655 S
C192 N191 1.315 1_455 S
C192 N194 1.373 . S
C192 H203 0.909 1_455 S
C193 N191 1.375 1_455 S
C193 C195 1.350 . S
C193 H202 0.938 1_455 S
N194 C192 1.373 . S
N194 C195 1.373 . S
C195 C193 1.350 . S
C195 N194 1.373 . S
C195 H209 0.931 . S
C196 O199 1.256 . S
C196 O200 1.255 . S
O197 Co180 2.021 . S
O197 C190 1.259 . S
O198 Co182 2.117 . S
O198 C190 1.258 . S
O199 Co182 2.020 . S
O199 C196 1.256 . S
O200 Co180 2.062 . S
O200 C196 1.255 . S
O201 C181 1.259 . S
O201 Co182 2.021 . S
H202 C193 0.938 1_655 S
H203 C192 0.909 1_655 S
O204 Co180 2.117 . S
O204 C181 1.258 . S
O205 Co180 2.020 . S
O205 C207 1.256 . S
O206 Co182 2.062 . S
O206 C207 1.255 . S
C207 O205 1.256 . S
C207 O206 1.255 . S
H208 C187 0.931 . S
H209 C195 0.931 . S
Co210 N215 2.057 . S
Co210 O227 2.021 . S
Co210 O230 2.062 . S
Co210 O234 2.117 . S
Co210 O235 2.020 . S
C211 O231 1.259 . S
C211 O234 1.258 . S
Co212 N221 2.057 . S
Co212 O228 2.117 . S
Co212 O229 2.020 . S
Co212 O231 2.021 . S
Co212 O236 2.062 . S
C213 N215 1.316 . S
C213 N216 1.347 . S
C213 H218 0.931 . S
C214 N215 1.375 . S
C214 C217 1.350 . S
C214 H219 0.930 . S
N215 Co210 2.057 . S
N215 C213 1.316 . S
N215 C214 1.375 . S
N216 C213 1.347 . S
N216 C217 1.373 . S
C217 C214 1.350 . S
C217 N216 1.373 . S
C217 H238 0.931 . S
H218 C213 0.931 . S
H219 C214 0.930 . S
C220 O227 1.259 . S
C220 O228 1.258 . S
N221 Co212 2.057 . S
N221 C222 1.316 . S
N221 C223 1.375 . S
C222 N221 1.316 . S
C222 N224 1.347 . S
C222 H233 0.931 . S
C223 N221 1.375 . S
C223 C225 1.350 . S
C223 H232 0.930 . S
N224 C222 1.347 . S
N224 C225 1.373 . S
C225 C223 1.350 . S
C225 N224 1.373 . S
C225 H239 0.931 . S
C226 O229 1.256 . S
C226 O230 1.255 . S
O227 Co210 2.021 . S
O227 C220 1.259 . S
O228 Co212 2.117 . S
O228 C220 1.258 . S
O229 Co212 2.020 . S
O229 C226 1.256 . S
O230 Co210 2.062 . S
O230 C226 1.255 . S
O231 C211 1.259 . S
O231 Co212 2.021 . S
H232 C223 0.930 . S
H233 C222 0.931 . S
O234 Co210 2.117 . S
O234 C211 1.258 . S
O235 Co210 2.020 . S
O235 C237 1.256 . S
O236 Co212 2.062 . S
O236 C237 1.255 . S
C237 O235 1.256 . S
C237 O236 1.255 . S
H238 C217 0.931 . S
H239 C225 0.931 . S
Co240 N245 2.057 . S
Co240 O257 2.021 . S
Co240 O260 2.062 . S
Co240 O264 2.117 . S
Co240 O265 2.020 . S
C241 O261 1.259 . S
C241 O264 1.258 . S
Co242 N251 2.057 . S
Co242 O258 2.117 . S
Co242 O259 2.020 . S
Co242 O261 2.021 . S
Co242 O266 2.062 . S
C243 N245 1.316 . S
C243 N246 1.347 . S
C243 H248 0.931 . S
C244 N245 1.375 . S
C244 C247 1.350 . S
C244 H249 0.930 . S
N245 Co240 2.057 . S
N245 C243 1.316 . S
N245 C244 1.375 . S
N246 C243 1.347 . S
N246 C247 1.373 . S
C247 C244 1.350 . S
C247 N246 1.373 . S
C247 H268 0.931 . S
H248 C243 0.931 . S
H249 C244 0.930 . S
C250 O257 1.259 . S
C250 O258 1.258 . S
N251 Co242 2.057 . S
N251 C252 1.291 1_545 S
N251 C253 1.375 1_545 S
C252 N251 1.291 1_565 S
C252 N254 1.368 . S
C252 H263 0.935 1_565 S
C253 N251 1.375 1_565 S
C253 C255 1.350 . S
C253 H262 0.911 1_565 S
N254 C252 1.368 . S
N254 C255 1.373 . S
C255 C253 1.350 . S
C255 N254 1.373 . S
C255 H269 0.931 . S
C256 O259 1.256 . S
C256 O260 1.255 . S
O257 Co240 2.021 . S
O257 C250 1.259 . S
O258 Co242 2.117 . S
O258 C250 1.258 . S
O259 Co242 2.020 . S
O259 C256 1.256 . S
O260 Co240 2.062 . S
O260 C256 1.255 . S
O261 C241 1.259 . S
O261 Co242 2.021 . S
H262 C253 0.911 1_545 S
H263 C252 0.935 1_545 S
O264 Co240 2.117 . S
O264 C241 1.258 . S
O265 Co240 2.020 . S
O265 C267 1.256 . S
O266 Co242 2.062 . S
O266 C267 1.255 . S
C267 O265 1.256 . S
C267 O266 1.255 . S
H268 C247 0.931 . S
H269 C255 0.931 . S
Co270 N275 2.057 . S
Co270 O287 2.021 . S
Co270 O290 2.062 . S
Co270 O294 2.117 . S
Co270 O295 2.020 . S
C271 O291 1.259 . S
C271 O294 1.258 . S
Co272 N281 2.057 . S
Co272 O288 2.117 . S
Co272 O289 2.020 . S
Co272 O291 2.021 . S
Co272 O296 2.062 . S
C273 N275 1.316 . S
C273 N276 1.347 . S
C273 H278 0.931 . S
C274 N275 1.375 . S
C274 C277 1.350 . S
C274 H279 0.930 . S
N275 Co270 2.057 . S
N275 C273 1.316 . S
N275 C274 1.375 . S
N276 C273 1.347 . S
N276 C277 1.373 . S
C277 C274 1.350 . S
C277 N276 1.373 . S
C277 H298 0.931 . S
H278 C273 0.931 . S
H279 C274 0.930 . S
C280 O287 1.259 . S
C280 O288 1.258 . S
N281 Co272 2.057 . S
N281 C282 1.315 1_565 S
N281 C283 1.375 1_565 S
C282 N281 1.315 1_545 S
C282 N284 1.373 . S
C282 H293 0.909 1_545 S
C283 N281 1.375 1_545 S
C283 C285 1.350 . S
C283 H292 0.938 1_545 S
N284 C282 1.373 . S
N284 C285 1.373 . S
C285 C283 1.350 . S
C285 N284 1.373 . S
C285 H299 0.931 . S
C286 O289 1.256 . S
C286 O290 1.255 . S
O287 Co270 2.021 . S
O287 C280 1.259 . S
O288 Co272 2.117 . S
O288 C280 1.258 . S
O289 Co272 2.020 . S
O289 C286 1.256 . S
O290 Co270 2.062 . S
O290 C286 1.255 . S
O291 C271 1.259 . S
O291 Co272 2.021 . S
H292 C283 0.938 1_565 S
H293 C282 0.909 1_565 S
O294 Co270 2.117 . S
O294 C271 1.258 . S
O295 Co270 2.020 . S
O295 C297 1.256 . S
O296 Co272 2.062 . S
O296 C297 1.255 . S
C297 O295 1.256 . S
C297 O296 1.255 . S
H298 C277 0.931 . S
H299 C285 0.931 . S
Co300 N305 2.057 . S
Co300 O317 2.021 . S
Co300 O320 2.062 . S
Co300 O324 2.117 . S
Co300 O325 2.020 . S
C301 O321 1.259 . S
C301 O324 1.258 . S
Co302 N311 2.057 . S
Co302 O318 2.117 . S
Co302 O319 2.020 . S
Co302 O321 2.021 . S
Co302 O326 2.062 . S
C303 N305 1.316 . S
C303 N306 1.347 . S
C303 H308 0.931 . S
C304 N305 1.375 . S
C304 C307 1.350 . S
C304 H309 0.930 . S
N305 Co300 2.057 . S
N305 C303 1.316 . S
N305 C304 1.375 . S
N306 C303 1.347 . S
N306 C307 1.373 . S
C307 C304 1.350 . S
C307 N306 1.373 . S
C307 H328 0.931 . S
H308 C303 0.931 . S
H309 C304 0.930 . S
C310 O317 1.259 . S
C310 O318 1.258 . S
N311 Co302 2.057 . S
N311 C312 1.291 1_455 S
N311 C313 1.375 1_455 S
C312 N311 1.291 1_655 S
C312 N314 1.367 . S
C312 H323 0.935 1_655 S
C313 N311 1.375 1_655 S
C313 C315 1.350 . S
C313 H322 0.911 1_655 S
N314 C312 1.367 . S
N314 C315 1.373 . S
C315 C313 1.350 . S
C315 N314 1.373 . S
C315 H329 0.931 . S
C316 O319 1.256 . S
C316 O320 1.255 . S
O317 Co300 2.021 . S
O317 C310 1.259 . S
O318 Co302 2.117 . S
O318 C310 1.258 . S
O319 Co302 2.020 . S
O319 C316 1.256 . S
O320 Co300 2.062 . S
O320 C316 1.255 . S
O321 C301 1.259 . S
O321 Co302 2.021 . S
H322 C313 0.911 1_455 S
H323 C312 0.935 1_455 S
O324 Co300 2.117 . S
O324 C301 1.258 . S
O325 Co300 2.020 . S
O325 C327 1.256 . S
O326 Co302 2.062 . S
O326 C327 1.255 . S
C327 O325 1.256 . S
C327 O326 1.255 . S
H328 C307 0.931 . S
H329 C315 0.931 . S
Co330 N335 2.057 . S
Co330 O347 2.021 . S
Co330 O350 2.062 . S
Co330 O354 2.117 . S
Co330 O355 2.020 . S
C331 O351 1.259 . S
C331 O354 1.258 . S
Co332 N341 2.057 . S
Co332 O348 2.117 . S
Co332 O349 2.020 . S
Co332 O351 2.021 . S
Co332 O356 2.062 . S
C333 N335 1.316 . S
C333 N336 1.347 . S
C333 H338 0.931 . S
C334 N335 1.375 . S
C334 C337 1.350 . S
C334 H339 0.930 . S
N335 Co330 2.057 . S
N335 C333 1.316 . S
N335 C334 1.375 . S
N336 C333 1.347 . S
N336 C337 1.373 . S
C337 C334 1.350 . S
C337 N336 1.373 . S
C337 H358 0.931 . S
H338 C333 0.931 . S
H339 C334 0.930 . S
C340 O347 1.259 . S
C340 O348 1.258 . S
N341 Co332 2.057 . S
N341 C342 1.316 . S
N341 C343 1.375 . S
C342 N341 1.316 . S
C342 N344 1.347 . S
C342 H353 0.931 . S
C343 N341 1.375 . S
C343 C345 1.350 . S
C343 H352 0.930 . S
N344 C342 1.347 . S
N344 C345 1.373 . S
C345 C343 1.350 . S
C345 N344 1.373 . S
C345 H359 0.931 . S
C346 O349 1.256 . S
C346 O350 1.255 . S
O347 Co330 2.021 . S
O347 C340 1.259 . S
O348 Co332 2.117 . S
O348 C340 1.258 . S
O349 Co332 2.020 . S
O349 C346 1.256 . S
O350 Co330 2.062 . S
O350 C346 1.255 . S
O351 C331 1.259 . S
O351 Co332 2.021 . S
H352 C343 0.930 . S
H353 C342 0.931 . S
O354 Co330 2.117 . S
O354 C331 1.258 . S
O355 Co330 2.020 . S
O355 C357 1.256 . S
O356 Co332 2.062 . S
O356 C357 1.255 . S
C357 O355 1.256 . S
C357 O356 1.255 . S
H358 C337 0.931 . S
H359 C345 0.931 . S
Co360 N365 2.057 . S
Co360 O377 2.021 . S
Co360 O380 2.062 . S
Co360 O384 2.117 . S
Co360 O385 2.020 . S
C361 O381 1.259 . S
C361 O384 1.258 . S
Co362 N371 2.057 . S
Co362 O378 2.117 . S
Co362 O379 2.020 . S
Co362 O381 2.021 . S
Co362 O386 2.062 . S
C363 N365 1.316 . S
C363 N366 1.347 . S
C363 H368 0.931 . S
C364 N365 1.375 . S
C364 C367 1.350 . S
C364 H369 0.930 . S
N365 Co360 2.057 . S
N365 C363 1.316 . S
N365 C364 1.375 . S
N366 C363 1.347 . S
N366 C367 1.373 . S
C367 C364 1.350 . S
C367 N366 1.373 . S
C367 H388 0.931 . S
H368 C363 0.931 . S
H369 C364 0.930 . S
C370 O377 1.259 . S
C370 O378 1.258 . S
N371 Co362 2.057 . S
N371 C372 1.316 . S
N371 C373 1.375 . S
C372 N371 1.316 . S
C372 N374 1.347 . S
C372 H383 0.931 . S
C373 N371 1.375 . S
C373 C375 1.350 . S
C373 H382 0.930 . S
N374 C372 1.347 . S
N374 C375 1.373 . S
C375 C373 1.350 . S
C375 N374 1.373 . S
C375 H389 0.931 . S
C376 O379 1.256 . S
C376 O380 1.255 . S
O377 Co360 2.021 . S
O377 C370 1.259 . S
O378 Co362 2.117 . S
O378 C370 1.258 . S
O379 Co362 2.020 . S
O379 C376 1.256 . S
O380 Co360 2.062 . S
O380 C376 1.255 . S
O381 C361 1.259 . S
O381 Co362 2.021 . S
H382 C373 0.930 . S
H383 C372 0.931 . S
O384 Co360 2.117 . S
O384 C361 1.258 . S
O385 Co360 2.020 . S
O385 C387 1.256 . S
O386 Co362 2.062 . S
O386 C387 1.255 . S
C387 O385 1.256 . S
C387 O386 1.255 . S
H388 C367 0.931 . S
H389 C375 0.931 . S
Co390 N395 2.057 . S
Co390 O407 2.021 . S
Co390 O410 2.062 . S
Co390 O414 2.117 . S
Co390 O415 2.020 . S
C391 O411 1.259 . S
C391 O414 1.258 . S
Co392 N401 2.057 . S
Co392 O408 2.117 . S
Co392 O409 2.020 . S
Co392 O411 2.021 . S
Co392 O416 2.062 . S
C393 N395 1.316 . S
C393 N396 1.347 . S
C393 H398 0.931 . S
C394 N395 1.375 . S
C394 C397 1.350 . S
C394 H399 0.930 . S
N395 Co390 2.057 . S
N395 C393 1.316 . S
N395 C394 1.375 . S
N396 C393 1.347 . S
N396 C397 1.373 . S
C397 C394 1.350 . S
C397 N396 1.373 . S
C397 H418 0.931 . S
H398 C393 0.931 . S
H399 C394 0.930 . S
C400 O407 1.259 . S
C400 O408 1.258 . S
N401 Co392 2.057 . S
N401 C402 1.316 . S
N401 C403 1.375 . S
C402 N401 1.316 . S
C402 N404 1.347 . S
C402 H413 0.931 . S
C403 N401 1.375 . S
C403 C405 1.350 . S
C403 H412 0.930 . S
N404 C402 1.347 . S
N404 C405 1.373 . S
C405 C403 1.350 . S
C405 N404 1.373 . S
C405 H419 0.931 . S
C406 O409 1.256 . S
C406 O410 1.255 . S
O407 Co390 2.021 . S
O407 C400 1.259 . S
O408 Co392 2.117 . S
O408 C400 1.258 . S
O409 Co392 2.020 . S
O409 C406 1.256 . S
O410 Co390 2.062 . S
O410 C406 1.255 . S
O411 C391 1.259 . S
O411 Co392 2.021 . S
H412 C403 0.930 . S
H413 C402 0.931 . S
O414 Co390 2.117 . S
O414 C391 1.258 . S
O415 Co390 2.020 . S
O415 C417 1.256 . S
O416 Co392 2.062 . S
O416 C417 1.255 . S
C417 O415 1.256 . S
C417 O416 1.255 . S
H418 C397 0.931 . S
H419 C405 0.931 . S
Co420 N425 2.057 . S
Co420 O437 2.021 . S
Co420 O440 2.062 . S
Co420 O444 2.117 . S
Co420 O445 2.020 . S
C421 O441 1.259 . S
C421 O444 1.258 . S
Co422 N431 2.057 . S
Co422 O438 2.117 . S
Co422 O439 2.020 . S
Co422 O441 2.021 . S
Co422 O446 2.062 . S
C423 N425 1.316 . S
C423 N426 1.347 . S
C423 H428 0.931 . S
C424 N425 1.375 . S
C424 C427 1.350 . S
C424 H429 0.930 . S
N425 Co420 2.057 . S
N425 C423 1.316 . S
N425 C424 1.375 . S
N426 C423 1.347 . S
N426 C427 1.373 . S
C427 C424 1.350 . S
C427 N426 1.373 . S
C427 H448 0.931 . S
H428 C423 0.931 . S
H429 C424 0.930 . S
C430 O437 1.259 . S
C430 O438 1.258 . S
N431 Co422 2.057 . S
N431 C432 1.316 . S
N431 C433 1.375 . S
C432 N431 1.316 . S
C432 N434 1.347 . S
C432 H443 0.931 . S
C433 N431 1.375 . S
C433 C435 1.350 . S
C433 H442 0.930 . S
N434 C432 1.347 . S
N434 C435 1.373 . S
C435 C433 1.350 . S
C435 N434 1.373 . S
C435 H449 0.931 . S
C436 O439 1.256 . S
C436 O440 1.255 . S
O437 Co420 2.021 . S
O437 C430 1.259 . S
O438 Co422 2.117 . S
O438 C430 1.258 . S
O439 Co422 2.020 . S
O439 C436 1.256 . S
O440 Co420 2.062 . S
O440 C436 1.255 . S
O441 C421 1.259 . S
O441 Co422 2.021 . S
H442 C433 0.930 . S
H443 C432 0.931 . S
O444 Co420 2.117 . S
O444 C421 1.258 . S
O445 Co420 2.020 . S
O445 C447 1.256 . S
O446 Co422 2.062 . S
O446 C447 1.255 . S
C447 O445 1.256 . S
C447 O446 1.255 . S
H448 C427 0.931 . S
H449 C435 0.931 . S
Co450 N455 2.057 . S
Co450 O467 2.021 . S
Co450 O470 2.062 . S
Co450 O474 2.117 . S
Co450 O475 2.020 . S
C451 O471 1.259 . S
C451 O474 1.258 . S
Co452 N461 2.057 . S
Co452 O468 2.117 . S
Co452 O469 2.020 . S
Co452 O471 2.021 . S
Co452 O476 2.062 . S
C453 N455 1.316 . S
C453 N456 1.347 . S
C453 H458 0.931 . S
C454 N455 1.375 . S
C454 C457 1.350 . S
C454 H459 0.930 . S
N455 Co450 2.057 . S
N455 C453 1.316 . S
N455 C454 1.375 . S
N456 C453 1.347 . S
N456 C457 1.373 . S
C457 C454 1.350 . S
C457 N456 1.373 . S
C457 H478 0.931 . S
H458 C453 0.931 . S
H459 C454 0.930 . S
C460 O467 1.259 . S
C460 O468 1.258 . S
N461 Co452 2.057 . S
N461 C462 1.316 1_655 S
N461 C463 1.375 . S
C462 N461 1.316 1_455 S
C462 N464 1.347 . S
C462 H473 0.931 . S
C463 N461 1.375 . S
C463 C465 1.350 . S
C463 H472 0.930 . S
N464 C462 1.347 . S
N464 C465 1.373 1_455 S
C465 C463 1.350 . S
C465 N464 1.373 1_655 S
C465 H479 0.931 . S
C466 O469 1.256 . S
C466 O470 1.255 . S
O467 Co450 2.021 . S
O467 C460 1.259 . S
O468 Co452 2.117 . S
O468 C460 1.258 . S
O469 Co452 2.020 . S
O469 C466 1.256 . S
O470 Co450 2.062 . S
O470 C466 1.255 . S
O471 C451 1.259 . S
O471 Co452 2.021 . S
H472 C463 0.930 . S
H473 C462 0.931 . S
O474 Co450 2.117 . S
O474 C451 1.258 . S
O475 Co450 2.020 . S
O475 C477 1.256 . S
O476 Co452 2.062 . S
O476 C477 1.255 . S
C477 O475 1.256 . S
C477 O476 1.255 . S
H478 C457 0.931 . S
H479 C465 0.931 . S
Co480 N485 2.057 . S
Co480 O497 2.021 . S
Co480 O500 2.062 . S
Co480 O504 2.117 . S
Co480 O505 2.020 . S
C481 O501 1.259 . S
C481 O504 1.258 . S
Co482 N491 2.057 . S
Co482 O498 2.117 . S
Co482 O499 2.020 . S
Co482 O501 2.021 . S
Co482 O506 2.062 . S
C483 N485 1.316 . S
C483 N486 1.347 . S
C483 H488 0.931 . S
C484 N485 1.375 . S
C484 C487 1.350 . S
C484 H489 0.930 . S
N485 Co480 2.057 . S
N485 C483 1.316 . S
N485 C484 1.375 . S
N486 C483 1.347 . S
N486 C487 1.373 . S
C487 C484 1.350 . S
C487 N486 1.373 . S
C487 H508 0.931 . S
H488 C483 0.931 . S
H489 C484 0.930 . S
C490 O497 1.259 . S
C490 O498 1.258 . S
N491 Co482 2.057 . S
N491 C492 1.316 . S
N491 C493 1.375 . S
C492 N491 1.316 . S
C492 N494 1.347 . S
C492 H503 0.931 . S
C493 N491 1.375 . S
C493 C495 1.350 . S
C493 H502 0.930 . S
N494 C492 1.347 . S
N494 C495 1.373 . S
C495 C493 1.350 . S
C495 N494 1.373 . S
C495 H509 0.931 . S
C496 O499 1.256 . S
C496 O500 1.255 . S
O497 Co480 2.021 . S
O497 C490 1.259 . S
O498 Co482 2.117 . S
O498 C490 1.258 . S
O499 Co482 2.020 . S
O499 C496 1.256 . S
O500 Co480 2.062 . S
O500 C496 1.255 . S
O501 C481 1.259 . S
O501 Co482 2.021 . S
H502 C493 0.930 . S
H503 C492 0.931 . S
O504 Co480 2.117 . S
O504 C481 1.258 . S
O505 Co480 2.020 . S
O505 C507 1.256 . S
O506 Co482 2.062 . S
O506 C507 1.255 . S
C507 O505 1.256 . S
C507 O506 1.255 . S
H508 C487 0.931 . S
H509 C495 0.931 . S
Co510 N515 2.057 . S
Co510 O527 2.021 . S
Co510 O530 2.062 . S
Co510 O534 2.117 . S
Co510 O535 2.020 . S
C511 O531 1.259 . S
C511 O534 1.258 . S
Co512 N521 2.057 . S
Co512 O528 2.117 . S
Co512 O529 2.020 . S
Co512 O531 2.021 . S
Co512 O536 2.062 . S
C513 N515 1.316 . S
C513 N516 1.347 . S
C513 H518 0.931 . S
C514 N515 1.375 . S
C514 C517 1.350 . S
C514 H519 0.930 . S
N515 Co510 2.057 . S
N515 C513 1.316 . S
N515 C514 1.375 . S
N516 C513 1.347 . S
N516 C517 1.373 . S
C517 C514 1.350 . S
C517 N516 1.373 . S
C517 H538 0.931 . S
H518 C513 0.931 . S
H519 C514 0.930 . S
C520 O527 1.259 . S
C520 O528 1.258 . S
N521 Co512 2.057 . S
N521 C522 1.316 1_545 S
N521 C523 1.375 . S
C522 N521 1.316 1_565 S
C522 N524 1.347 . S
C522 H533 0.931 . S
C523 N521 1.375 . S
C523 C525 1.350 . S
C523 H532 0.930 . S
N524 C522 1.347 . S
N524 C525 1.373 1_565 S
C525 C523 1.350 . S
C525 N524 1.373 1_545 S
C525 H539 0.931 . S
C526 O529 1.256 . S
C526 O530 1.255 . S
O527 Co510 2.021 . S
O527 C520 1.259 . S
O528 Co512 2.117 . S
O528 C520 1.258 . S
O529 Co512 2.020 . S
O529 C526 1.256 . S
O530 Co510 2.062 . S
O530 C526 1.255 . S
O531 C511 1.259 . S
O531 Co512 2.021 . S
H532 C523 0.930 . S
H533 C522 0.931 . S
O534 Co510 2.117 . S
O534 C511 1.258 . S
O535 Co510 2.020 . S
O535 C537 1.256 . S
O536 Co512 2.062 . S
O536 C537 1.255 . S
C537 O535 1.256 . S
C537 O536 1.255 . S
H538 C517 0.931 . S
H539 C525 0.931 . S
Co540 N545 2.057 . S
Co540 O557 2.021 . S
Co540 O560 2.062 . S
Co540 O564 2.117 . S
Co540 O565 2.020 . S
C541 O561 1.259 . S
C541 O564 1.258 . S
Co542 N551 2.057 . S
Co542 O558 2.117 . S
Co542 O559 2.020 . S
Co542 O561 2.021 . S
Co542 O566 2.062 . S
C543 N545 1.316 1_565 S
C543 N546 1.347 . S
C543 H548 0.931 . S
C544 N545 1.375 . S
C544 C547 1.350 . S
C544 H549 0.930 . S
N545 Co540 2.057 . S
N545 C543 1.316 1_545 S
N545 C544 1.375 . S
N546 C543 1.347 . S
N546 C547 1.373 1_565 S
C547 C544 1.350 . S
C547 N546 1.373 1_545 S
C547 H568 0.931 . S
H548 C543 0.931 . S
H549 C544 0.930 . S
C550 O557 1.259 . S
C550 O558 1.258 . S
N551 Co542 2.057 . S
N551 C552 1.316 . S
N551 C553 1.375 . S
C552 N551 1.316 . S
C552 N554 1.347 . S
C552 H563 0.931 . S
C553 N551 1.375 . S
C553 C555 1.350 . S
C553 H562 0.930 . S
N554 C552 1.347 . S
N554 C555 1.373 . S
C555 C553 1.350 . S
C555 N554 1.373 . S
C555 H569 0.931 . S
C556 O559 1.256 . S
C556 O560 1.255 . S
O557 Co540 2.021 . S
O557 C550 1.259 . S
O558 Co542 2.117 . S
O558 C550 1.258 . S
O559 Co542 2.020 . S
O559 C556 1.256 . S
O560 Co540 2.062 . S
O560 C556 1.255 . S
O561 C541 1.259 . S
O561 Co542 2.021 . S
H562 C553 0.930 . S
H563 C552 0.931 . S
O564 Co540 2.117 . S
O564 C541 1.258 . S
O565 Co540 2.020 . S
O565 C567 1.256 . S
O566 Co542 2.062 . S
O566 C567 1.255 . S
C567 O565 1.256 . S
C567 O566 1.255 . S
H568 C547 0.931 . S
H569 C555 0.931 . S
Co570 N575 2.057 . S
Co570 O587 2.021 . S
Co570 O590 2.062 . S
Co570 O594 2.117 . S
Co570 O595 2.020 . S
C571 O591 1.259 . S
C571 O594 1.258 . S
Co572 N581 2.057 . S
Co572 O588 2.117 . S
Co572 O589 2.020 . S
Co572 O591 2.021 . S
Co572 O596 2.062 . S
C573 N575 1.316 1_455 S
C573 N576 1.347 . S
C573 H578 0.931 . S
C574 N575 1.375 . S
C574 C577 1.350 . S
C574 H579 0.930 . S
N575 Co570 2.057 . S
N575 C573 1.316 1_655 S
N575 C574 1.375 . S
N576 C573 1.347 . S
N576 C577 1.373 1_455 S
C577 C574 1.350 . S
C577 N576 1.373 1_655 S
C577 H598 0.931 . S
H578 C573 0.931 . S
H579 C574 0.930 . S
C580 O587 1.259 . S
C580 O588 1.258 . S
N581 Co572 2.057 . S
N581 C582 1.316 . S
N581 C583 1.375 . S
C582 N581 1.316 . S
C582 N584 1.347 . S
C582 H593 0.931 . S
C583 N581 1.375 . S
C583 C585 1.350 . S
C583 H592 0.930 . S
N584 C582 1.347 . S
N584 C585 1.373 . S
C585 C583 1.350 . S
C585 N584 1.373 . S
C585 H599 0.931 . S
C586 O589 1.256 . S
C586 O590 1.255 . S
O587 Co570 2.021 . S
O587 C580 1.259 . S
O588 Co572 2.117 . S
O588 C580 1.258 . S
O589 Co572 2.020 . S
O589 C586 1.256 . S
O590 Co570 2.062 . S
O590 C586 1.255 . S
O591 C571 1.259 . S
O591 Co572 2.021 . S
H592 C583 0.930 . S
H593 C582 0.931 . S
O594 Co570 2.117 . S
O594 C571 1.258 . S
O595 Co570 2.020 . S
O595 C597 1.256 . S
O596 Co572 2.062 . S
O596 C597 1.255 . S
C597 O595 1.256 . S
C597 O596 1.255 . S
H598 C577 0.931 . S
H599 C585 0.931 . S
Co600 N605 2.057 . S
Co600 O617 2.021 . S
Co600 O620 2.062 . S
Co600 O624 2.117 . S
Co600 O625 2.020 . S
C601 O621 1.259 . S
C601 O624 1.258 . S
Co602 N611 2.057 . S
Co602 O618 2.117 . S
Co602 O619 2.020 . S
Co602 O621 2.021 . S
Co602 O626 2.062 . S
C603 N605 1.316 . S
C603 N606 1.347 . S
C603 H608 0.931 . S
C604 N605 1.375 . S
C604 C607 1.350 . S
C604 H609 0.930 . S
N605 Co600 2.057 . S
N605 C603 1.316 . S
N605 C604 1.375 . S
N606 C603 1.347 . S
N606 C607 1.373 . S
C607 C604 1.350 . S
C607 N606 1.373 . S
C607 H628 0.931 . S
H608 C603 0.931 . S
H609 C604 0.930 . S
C610 O617 1.259 . S
C610 O618 1.258 . S
N611 Co602 2.057 . S
N611 C612 1.316 . S
N611 C613 1.375 . S
C612 N611 1.316 . S
C612 N614 1.347 . S
C612 H623 0.931 . S
C613 N611 1.375 . S
C613 C615 1.350 . S
C613 H622 0.930 . S
N614 C612 1.347 . S
N614 C615 1.373 . S
C615 C613 1.350 . S
C615 N614 1.373 . S
C615 H629 0.931 . S
C616 O619 1.256 . S
C616 O620 1.255 . S
O617 Co600 2.021 . S
O617 C610 1.259 . S
O618 Co602 2.117 . S
O618 C610 1.258 . S
O619 Co602 2.020 . S
O619 C616 1.256 . S
O620 Co600 2.062 . S
O620 C616 1.255 . S
O621 C601 1.259 . S
O621 Co602 2.021 . S
H622 C613 0.930 . S
H623 C612 0.931 . S
O624 Co600 2.117 . S
O624 C601 1.258 . S
O625 Co600 2.020 . S
O625 C627 1.256 . S
O626 Co602 2.062 . S
O626 C627 1.255 . S
C627 O625 1.256 . S
C627 O626 1.255 . S
H628 C607 0.931 . S
H629 C615 0.931 . S
Co630 N635 2.057 . S
Co630 O647 2.021 . S
Co630 O650 2.062 1_554 S
Co630 O654 2.123 . S
Co630 O655 2.020 . S
C631 O651 1.259 . S
C631 O654 1.251 1_556 S
Co632 N641 2.057 . S
Co632 O648 2.117 . S
Co632 O649 2.020 . S
Co632 O651 2.021 . S
Co632 O656 2.062 1_556 S
C633 N635 1.316 . S
C633 N636 1.347 . S
C633 H638 0.931 . S
C634 N635 1.375 . S
C634 C637 1.350 . S
C634 H639 0.930 . S
N635 Co630 2.057 . S
N635 C633 1.316 . S
N635 C634 1.375 . S
N636 C633 1.347 . S
N636 C637 1.373 . S
C637 C634 1.350 . S
C637 N636 1.373 . S
C637 H658 0.931 . S
H638 C633 0.931 . S
H639 C634 0.930 . S
C640 O647 1.259 . S
C640 O648 1.258 1_554 S
N641 Co632 2.057 . S
N641 C642 1.316 . S
N641 C643 1.375 . S
C642 N641 1.316 . S
C642 N644 1.347 . S
C642 H653 0.931 . S
C643 N641 1.375 . S
C643 C645 1.350 . S
C643 H652 0.930 . S
N644 C642 1.347 . S
N644 C645 1.373 . S
C645 C643 1.350 . S
C645 N644 1.373 . S
C645 H659 0.931 . S
C646 O649 1.256 . S
C646 O650 1.255 . S
O647 Co630 2.021 . S
O647 C640 1.259 . S
O648 Co632 2.117 . S
O648 C640 1.258 1_556 S
O649 Co632 2.020 . S
O649 C646 1.256 . S
O650 Co630 2.062 1_556 S
O650 C646 1.255 . S
O651 C631 1.259 . S
O651 Co632 2.021 . S
H652 C643 0.930 . S
H653 C642 0.931 . S
O654 Co630 2.123 . S
O654 C631 1.251 1_554 S
O655 Co630 2.020 . S
O655 C657 1.256 . S
O656 Co632 2.062 1_554 S
O656 C657 1.255 . S
C657 O655 1.256 . S
C657 O656 1.255 . S
H658 C637 0.931 . S
H659 C645 0.931 . S
Co660 N665 2.057 . S
Co660 O677 2.021 . S
Co660 O680 2.062 1_554 S
Co660 O684 2.123 . S
Co660 O685 2.020 . S
C661 O681 1.259 . S
C661 O684 1.251 1_556 S
Co662 N671 2.057 . S
Co662 O678 2.117 . S
Co662 O679 2.020 . S
Co662 O681 2.021 . S
Co662 O686 2.062 1_556 S
C663 N665 1.316 . S
C663 N666 1.347 . S
C663 H668 0.931 . S
C664 N665 1.375 . S
C664 C667 1.350 . S
C664 H669 0.930 . S
N665 Co660 2.057 . S
N665 C663 1.316 . S
N665 C664 1.375 . S
N666 C663 1.347 . S
N666 C667 1.373 . S
C667 C664 1.350 . S
C667 N666 1.373 . S
C667 H688 0.931 . S
H668 C663 0.931 . S
H669 C664 0.930 . S
C670 O677 1.259 . S
C670 O678 1.258 1_554 S
N671 Co662 2.057 . S
N671 C672 1.316 . S
N671 C673 1.375 . S
C672 N671 1.316 . S
C672 N674 1.347 . S
C672 H683 0.931 . S
C673 N671 1.375 . S
C673 C675 1.350 . S
C673 H682 0.930 . S
N674 C672 1.347 . S
N674 C675 1.373 . S
C675 C673 1.350 . S
C675 N674 1.373 . S
C675 H689 0.931 . S
C676 O679 1.256 . S
C676 O680 1.255 . S
O677 Co660 2.021 . S
O677 C670 1.259 . S
O678 Co662 2.117 . S
O678 C670 1.258 1_556 S
O679 Co662 2.020 . S
O679 C676 1.256 . S
O680 Co660 2.062 1_556 S
O680 C676 1.255 . S
O681 C661 1.259 . S
O681 Co662 2.021 . S
H682 C673 0.930 . S
H683 C672 0.931 . S
O684 Co660 2.123 . S
O684 C661 1.251 1_554 S
O685 Co660 2.020 . S
O685 C687 1.256 . S
O686 Co662 2.062 1_554 S
O686 C687 1.255 . S
C687 O685 1.256 . S
C687 O686 1.255 . S
H688 C667 0.931 . S
H689 C675 0.931 . S
Co690 N695 2.057 . S
Co690 O707 2.021 . S
Co690 O710 2.062 1_554 S
Co690 O714 2.123 . S
Co690 O715 2.020 . S
C691 O711 1.259 . S
C691 O714 1.251 1_556 S
Co692 N701 2.057 . S
Co692 O708 2.117 . S
Co692 O709 2.020 . S
Co692 O711 2.021 . S
Co692 O716 2.062 1_556 S
C693 N695 1.316 . S
C693 N696 1.347 . S
C693 H698 0.931 . S
C694 N695 1.375 . S
C694 C697 1.350 . S
C694 H699 0.930 . S
N695 Co690 2.057 . S
N695 C693 1.316 . S
N695 C694 1.375 . S
N696 C693 1.347 . S
N696 C697 1.373 . S
C697 C694 1.350 . S
C697 N696 1.373 . S
C697 H718 0.931 . S
H698 C693 0.931 . S
H699 C694 0.930 . S
C700 O707 1.259 . S
C700 O708 1.258 1_554 S
N701 Co692 2.057 . S
N701 C702 1.316 . S
N701 C703 1.375 . S
C702 N701 1.316 . S
C702 N704 1.347 . S
C702 H713 0.931 . S
C703 N701 1.375 . S
C703 C705 1.350 . S
C703 H712 0.930 . S
N704 C702 1.347 . S
N704 C705 1.373 . S
C705 C703 1.350 . S
C705 N704 1.373 . S
C705 H719 0.931 . S
C706 O709 1.256 . S
C706 O710 1.255 . S
O707 Co690 2.021 . S
O707 C700 1.259 . S
O708 Co692 2.117 . S
O708 C700 1.258 1_556 S
O709 Co692 2.020 . S
O709 C706 1.256 . S
O710 Co690 2.062 1_556 S
O710 C706 1.255 . S
O711 C691 1.259 . S
O711 Co692 2.021 . S
H712 C703 0.930 . S
H713 C702 0.931 . S
O714 Co690 2.123 . S
O714 C691 1.251 1_554 S
O715 Co690 2.020 . S
O715 C717 1.256 . S
O716 Co692 2.062 1_554 S
O716 C717 1.255 . S
C717 O715 1.256 . S
C717 O716 1.255 . S
H718 C697 0.931 . S
H719 C705 0.931 . S
Co720 N725 2.057 . S
Co720 O737 2.021 . S
Co720 O740 2.062 . S
Co720 O744 2.117 . S
Co720 O745 2.020 . S
C721 O741 1.259 . S
C721 O744 1.258 . S
Co722 N731 2.057 . S
Co722 O738 2.117 . S
Co722 O739 2.020 . S
Co722 O741 2.021 . S
Co722 O746 2.062 . S
C723 N725 1.316 . S
C723 N726 1.347 . S
C723 H728 0.931 . S
C724 N725 1.375 . S
C724 C727 1.350 . S
C724 H729 0.930 . S
N725 Co720 2.057 . S
N725 C723 1.316 . S
N725 C724 1.375 . S
N726 C723 1.347 . S
N726 C727 1.373 . S
C727 C724 1.350 . S
C727 N726 1.373 . S
C727 H748 0.931 . S
H728 C723 0.931 . S
H729 C724 0.930 . S
C730 O737 1.259 . S
C730 O738 1.258 . S
N731 Co722 2.057 . S
N731 C732 1.316 1_565 S
N731 C733 1.375 . S
C732 N731 1.316 1_545 S
C732 N734 1.347 . S
C732 H743 0.931 . S
C733 N731 1.375 . S
C733 C735 1.350 . S
C733 H742 0.930 . S
N734 C732 1.347 . S
N734 C735 1.373 1_545 S
C735 C733 1.350 . S
C735 N734 1.373 1_565 S
C735 H749 0.931 . S
C736 O739 1.256 . S
C736 O740 1.255 . S
O737 Co720 2.021 . S
O737 C730 1.259 . S
O738 Co722 2.117 . S
O738 C730 1.258 . S
O739 Co722 2.020 . S
O739 C736 1.256 . S
O740 Co720 2.062 . S
O740 C736 1.255 . S
O741 C721 1.259 . S
O741 Co722 2.021 . S
H742 C733 0.930 . S
H743 C732 0.931 . S
O744 Co720 2.117 . S
O744 C721 1.258 . S
O745 Co720 2.020 . S
O745 C747 1.256 . S
O746 Co722 2.062 . S
O746 C747 1.255 . S
C747 O745 1.256 . S
C747 O746 1.255 . S
H748 C727 0.931 . S
H749 C735 0.931 . S
Co750 N755 2.057 . S
Co750 O767 2.021 . S
Co750 O770 2.062 . S
Co750 O774 2.117 . S
Co750 O775 2.020 . S
C751 O771 1.259 . S
C751 O774 1.258 . S
Co752 N761 2.057 . S
Co752 O768 2.117 . S
Co752 O769 2.020 . S
Co752 O771 2.021 . S
Co752 O776 2.062 . S
C753 N755 1.316 . S
C753 N756 1.347 . S
C753 H758 0.931 . S
C754 N755 1.375 . S
C754 C757 1.350 . S
C754 H759 0.930 . S
N755 Co750 2.057 . S
N755 C753 1.316 . S
N755 C754 1.375 . S
N756 C753 1.347 . S
N756 C757 1.373 . S
C757 C754 1.350 . S
C757 N756 1.373 . S
C757 H778 0.931 . S
H758 C753 0.931 . S
H759 C754 0.930 . S
C760 O767 1.259 . S
C760 O768 1.258 . S
N761 Co752 2.057 . S
N761 C762 1.316 1_455 S
N761 C763 1.375 . S
C762 N761 1.316 1_655 S
C762 N764 1.347 . S
C762 H773 0.931 . S
C763 N761 1.375 . S
C763 C765 1.350 . S
C763 H772 0.930 . S
N764 C762 1.347 . S
N764 C765 1.373 1_655 S
C765 C763 1.350 . S
C765 N764 1.373 1_455 S
C765 H779 0.931 . S
C766 O769 1.256 . S
C766 O770 1.255 . S
O767 Co750 2.021 . S
O767 C760 1.259 . S
O768 Co752 2.117 . S
O768 C760 1.258 . S
O769 Co752 2.020 . S
O769 C766 1.256 . S
O770 Co750 2.062 . S
O770 C766 1.255 . S
O771 C751 1.259 . S
O771 Co752 2.021 . S
H772 C763 0.930 . S
H773 C762 0.931 . S
O774 Co750 2.117 . S
O774 C751 1.258 . S
O775 Co750 2.020 . S
O775 C777 1.256 . S
O776 Co752 2.062 . S
O776 C777 1.255 . S
C777 O775 1.256 . S
C777 O776 1.255 . S
H778 C757 0.931 . S
H779 C765 0.931 . S
Co780 N785 2.057 . S
Co780 O797 2.021 . S
Co780 O800 2.062 . S
Co780 O804 2.117 . S
Co780 O805 2.020 . S
C781 O801 1.259 . S
C781 O804 1.258 . S
Co782 N791 2.057 . S
Co782 O798 2.117 . S
Co782 O799 2.020 . S
Co782 O801 2.021 . S
Co782 O806 2.062 . S
C783 N785 1.316 . S
C783 N786 1.347 . S
C783 H788 0.931 . S
C784 N785 1.375 . S
C784 C787 1.350 . S
C784 H789 0.930 . S
N785 Co780 2.057 . S
N785 C783 1.316 . S
N785 C784 1.375 . S
N786 C783 1.347 . S
N786 C787 1.373 . S
C787 C784 1.350 . S
C787 N786 1.373 . S
C787 H808 0.931 . S
H788 C783 0.931 . S
H789 C784 0.930 . S
C790 O797 1.259 . S
C790 O798 1.258 . S
N791 Co782 2.057 . S
N791 C792 1.316 . S
N791 C793 1.375 . S
C792 N791 1.316 . S
C792 N794 1.347 . S
C792 H803 0.931 . S
C793 N791 1.375 . S
C793 C795 1.350 . S
C793 H802 0.930 . S
N794 C792 1.347 . S
N794 C795 1.373 . S
C795 C793 1.350 . S
C795 N794 1.373 . S
C795 H809 0.931 . S
C796 O799 1.256 . S
C796 O800 1.255 . S
O797 Co780 2.021 . S
O797 C790 1.259 . S
O798 Co782 2.117 . S
O798 C790 1.258 . S
O799 Co782 2.020 . S
O799 C796 1.256 . S
O800 Co780 2.062 . S
O800 C796 1.255 . S
O801 C781 1.259 . S
O801 Co782 2.021 . S
H802 C793 0.930 . S
H803 C792 0.931 . S
O804 Co780 2.117 . S
O804 C781 1.258 . S
O805 Co780 2.020 . S
O805 C807 1.256 . S
O806 Co782 2.062 . S
O806 C807 1.255 . S
C807 O805 1.256 . S
C807 O806 1.255 . S
H808 C787 0.931 . S
H809 C795 0.931 . S
Co810 N815 2.057 . S
Co810 O827 2.021 . S
Co810 O830 2.062 1_554 S
Co810 O834 2.117 . S
Co810 O835 2.020 . S
C811 O831 1.259 . S
C811 O834 1.258 1_556 S
Co812 N821 2.057 . S
Co812 O828 2.123 . S
Co812 O829 2.020 . S
Co812 O831 2.021 . S
Co812 O836 2.062 1_556 S
C813 N815 1.316 . S
C813 N816 1.347 . S
C813 H818 0.931 . S
C814 N815 1.375 . S
C814 C817 1.350 . S
C814 H819 0.930 . S
N815 Co810 2.057 . S
N815 C813 1.316 . S
N815 C814 1.375 . S
N816 C813 1.347 . S
N816 C817 1.373 . S
C817 C814 1.350 . S
C817 N816 1.373 . S
C817 H838 0.931 . S
H818 C813 0.931 . S
H819 C814 0.930 . S
C820 O827 1.259 . S
C820 O828 1.251 1_554 S
N821 Co812 2.057 . S
N821 C822 1.316 . S
N821 C823 1.375 . S
C822 N821 1.316 . S
C822 N824 1.347 . S
C822 H833 0.931 . S
C823 N821 1.375 . S
C823 C825 1.350 . S
C823 H832 0.930 . S
N824 C822 1.347 . S
N824 C825 1.373 . S
C825 C823 1.350 . S
C825 N824 1.373 . S
C825 H839 0.931 . S
C826 O829 1.256 . S
C826 O830 1.255 . S
O827 Co810 2.021 . S
O827 C820 1.259 . S
O828 Co812 2.123 . S
O828 C820 1.251 1_556 S
O829 Co812 2.020 . S
O829 C826 1.256 . S
O830 Co810 2.062 1_556 S
O830 C826 1.255 . S
O831 C811 1.259 . S
O831 Co812 2.021 . S
H832 C823 0.930 . S
H833 C822 0.931 . S
O834 Co810 2.117 . S
O834 C811 1.258 1_554 S
O835 Co810 2.020 . S
O835 C837 1.256 . S
O836 Co812 2.062 1_554 S
O836 C837 1.255 . S
C837 O835 1.256 . S
C837 O836 1.255 . S
H838 C817 0.931 . S
H839 C825 0.931 . S
Co840 N845 2.057 . S
Co840 O857 2.021 . S
Co840 O860 2.062 1_554 S
Co840 O864 2.117 . S
Co840 O865 2.020 . S
C841 O861 1.259 . S
C841 O864 1.258 1_556 S
Co842 N851 2.057 . S
Co842 O858 2.123 . S
Co842 O859 2.020 . S
Co842 O861 2.021 . S
Co842 O866 2.062 1_556 S
C843 N845 1.316 . S
C843 N846 1.347 . S
C843 H848 0.931 . S
C844 N845 1.375 . S
C844 C847 1.350 . S
C844 H849 0.930 . S
N845 Co840 2.057 . S
N845 C843 1.316 . S
N845 C844 1.375 . S
N846 C843 1.347 . S
N846 C847 1.373 . S
C847 C844 1.350 . S
C847 N846 1.373 . S
C847 H868 0.931 . S
H848 C843 0.931 . S
H849 C844 0.930 . S
C850 O857 1.259 . S
C850 O858 1.251 1_554 S
N851 Co842 2.057 . S
N851 C852 1.316 . S
N851 C853 1.375 . S
C852 N851 1.316 . S
C852 N854 1.347 . S
C852 H863 0.931 . S
C853 N851 1.375 . S
C853 C855 1.350 . S
C853 H862 0.930 . S
N854 C852 1.347 . S
N854 C855 1.373 . S
C855 C853 1.350 . S
C855 N854 1.373 . S
C855 H869 0.931 . S
C856 O859 1.256 . S
C856 O860 1.255 . S
O857 Co840 2.021 . S
O857 C850 1.259 . S
O858 Co842 2.123 . S
O858 C850 1.251 1_556 S
O859 Co842 2.020 . S
O859 C856 1.256 . S
O860 Co840 2.062 1_556 S
O860 C856 1.255 . S
O861 C841 1.259 . S
O861 Co842 2.021 . S
H862 C853 0.930 . S
H863 C852 0.931 . S
O864 Co840 2.117 . S
O864 C841 1.258 1_554 S
O865 Co840 2.020 . S
O865 C867 1.256 . S
O866 Co842 2.062 1_554 S
O866 C867 1.255 . S
C867 O865 1.256 . S
C867 O866 1.255 . S
H868 C847 0.931 . S
H869 C855 0.931 . S
Co870 N875 2.057 . S
Co870 O887 2.021 . S
Co870 O890 2.062 1_554 S
Co870 O894 2.117 . S
Co870 O895 2.020 . S
C871 O891 1.259 . S
C871 O894 1.258 1_556 S
Co872 N881 2.057 . S
Co872 O888 2.123 . S
Co872 O889 2.020 . S
Co872 O891 2.021 . S
Co872 O896 2.062 1_556 S
C873 N875 1.316 . S
C873 N876 1.347 . S
C873 H878 0.931 . S
C874 N875 1.375 . S
C874 C877 1.350 . S
C874 H879 0.930 . S
N875 Co870 2.057 . S
N875 C873 1.316 . S
N875 C874 1.375 . S
N876 C873 1.347 . S
N876 C877 1.373 . S
C877 C874 1.350 . S
C877 N876 1.373 . S
C877 H898 0.931 . S
H878 C873 0.931 . S
H879 C874 0.930 . S
C880 O887 1.259 . S
C880 O888 1.251 1_554 S
N881 Co872 2.057 . S
N881 C882 1.316 . S
N881 C883 1.375 . S
C882 N881 1.316 . S
C882 N884 1.347 . S
C882 H893 0.931 . S
C883 N881 1.375 . S
C883 C885 1.350 . S
C883 H892 0.930 . S
N884 C882 1.347 . S
N884 C885 1.373 . S
C885 C883 1.350 . S
C885 N884 1.373 . S
C885 H899 0.931 . S
C886 O889 1.256 . S
C886 O890 1.255 . S
O887 Co870 2.021 . S
O887 C880 1.259 . S
O888 Co872 2.123 . S
O888 C880 1.251 1_556 S
O889 Co872 2.020 . S
O889 C886 1.256 . S
O890 Co870 2.062 1_556 S
O890 C886 1.255 . S
O891 C871 1.259 . S
O891 Co872 2.021 . S
H892 C883 0.930 . S
H893 C882 0.931 . S
O894 Co870 2.117 . S
O894 C871 1.258 1_554 S
O895 Co870 2.020 . S
O895 C897 1.256 . S
O896 Co872 2.062 1_554 S
O896 C897 1.255 . S
C897 O895 1.256 . S
C897 O896 1.255 . S
H898 C877 0.931 . S
H899 C885 0.931 . S
Co900 N905 2.057 . S
Co900 O917 2.021 . S
Co900 O920 2.062 . S
Co900 O924 2.117 . S
Co900 O925 2.020 . S
C901 O921 1.259 . S
C901 O924 1.258 . S
Co902 N911 2.057 . S
Co902 O918 2.117 . S
Co902 O919 2.020 . S
Co902 O921 2.021 . S
Co902 O926 2.062 . S
C903 N905 1.316 . S
C903 N906 1.347 . S
C903 H908 0.931 . S
C904 N905 1.375 . S
C904 C907 1.350 . S
C904 H909 0.930 . S
N905 Co900 2.057 . S
N905 C903 1.316 . S
N905 C904 1.375 . S
N906 C903 1.347 . S
N906 C907 1.373 . S
C907 C904 1.350 . S
C907 N906 1.373 . S
C907 H928 0.931 . S
H908 C903 0.931 . S
H909 C904 0.930 . S
C910 O917 1.259 . S
C910 O918 1.258 . S
N911 Co902 2.057 . S
N911 C912 1.316 . S
N911 C913 1.375 . S
C912 N911 1.316 . S
C912 N914 1.347 . S
C912 H923 0.931 . S
C913 N911 1.375 . S
C913 C915 1.350 . S
C913 H922 0.930 . S
N914 C912 1.347 . S
N914 C915 1.373 . S
C915 C913 1.350 . S
C915 N914 1.373 . S
C915 H929 0.931 . S
C916 O919 1.256 . S
C916 O920 1.255 . S
O917 Co900 2.021 . S
O917 C910 1.259 . S
O918 Co902 2.117 . S
O918 C910 1.258 . S
O919 Co902 2.020 . S
O919 C916 1.256 . S
O920 Co900 2.062 . S
O920 C916 1.255 . S
O921 C901 1.259 . S
O921 Co902 2.021 . S
H922 C913 0.930 . S
H923 C912 0.931 . S
O924 Co900 2.117 . S
O924 C901 1.258 . S
O925 Co900 2.020 . S
O925 C927 1.256 . S
O926 Co902 2.062 . S
O926 C927 1.255 . S
C927 O925 1.256 . S
C927 O926 1.255 . S
H928 C907 0.931 . S
H929 C915 0.931 . S
Co930 N935 2.057 . S
Co930 O947 2.021 . S
Co930 O950 2.062 . S
Co930 O954 2.117 . S
Co930 O955 2.020 . S
C931 O951 1.259 . S
C931 O954 1.258 . S
Co932 N941 2.057 . S
Co932 O948 2.117 . S
Co932 O949 2.020 . S
Co932 O951 2.021 . S
Co932 O956 2.062 . S
C933 N935 1.316 . S
C933 N936 1.347 . S
C933 H938 0.931 . S
C934 N935 1.375 . S
C934 C937 1.350 . S
C934 H939 0.930 . S
N935 Co930 2.057 . S
N935 C933 1.316 . S
N935 C934 1.375 . S
N936 C933 1.347 . S
N936 C937 1.373 . S
C937 C934 1.350 . S
C937 N936 1.373 . S
C937 H958 0.931 . S
H938 C933 0.931 . S
H939 C934 0.930 . S
C940 O947 1.259 . S
C940 O948 1.258 . S
N941 Co932 2.057 . S
N941 C942 1.316 . S
N941 C943 1.375 . S
C942 N941 1.316 . S
C942 N944 1.347 . S
C942 H953 0.931 . S
C943 N941 1.375 . S
C943 C945 1.350 . S
C943 H952 0.930 . S
N944 C942 1.347 . S
N944 C945 1.373 . S
C945 C943 1.350 . S
C945 N944 1.373 . S
C945 H959 0.931 . S
C946 O949 1.256 . S
C946 O950 1.255 . S
O947 Co930 2.021 . S
O947 C940 1.259 . S
O948 Co932 2.117 . S
O948 C940 1.258 . S
O949 Co932 2.020 . S
O949 C946 1.256 . S
O950 Co930 2.062 . S
O950 C946 1.255 . S
O951 C931 1.259 . S
O951 Co932 2.021 . S
H952 C943 0.930 . S
H953 C942 0.931 . S
O954 Co930 2.117 . S
O954 C931 1.258 . S
O955 Co930 2.020 . S
O955 C957 1.256 . S
O956 Co932 2.062 . S
O956 C957 1.255 . S
C957 O955 1.256 . S
C957 O956 1.255 . S
H958 C937 0.931 . S
H959 C945 0.931 . S
Co960 N965 2.057 . S
Co960 O977 2.021 . S
Co960 O980 2.062 . S
Co960 O984 2.117 . S
Co960 O985 2.020 . S
C961 O981 1.259 . S
C961 O984 1.258 . S
Co962 N971 2.057 . S
Co962 O978 2.117 . S
Co962 O979 2.020 . S
Co962 O981 2.021 . S
Co962 O986 2.062 . S
C963 N965 1.316 . S
C963 N966 1.347 . S
C963 H968 0.931 . S
C964 N965 1.375 . S
C964 C967 1.350 . S
C964 H969 0.930 . S
N965 Co960 2.057 . S
N965 C963 1.316 . S
N965 C964 1.375 . S
N966 C963 1.347 . S
N966 C967 1.373 . S
C967 C964 1.350 . S
C967 N966 1.373 . S
C967 H988 0.931 . S
H968 C963 0.931 . S
H969 C964 0.930 . S
C970 O977 1.259 . S
C970 O978 1.258 . S
N971 Co962 2.057 . S
N971 C972 1.316 . S
N971 C973 1.375 . S
C972 N971 1.316 . S
C972 N974 1.347 . S
C972 H983 0.931 . S
C973 N971 1.375 . S
C973 C975 1.350 . S
C973 H982 0.930 . S
N974 C972 1.347 . S
N974 C975 1.373 . S
C975 C973 1.350 . S
C975 N974 1.373 . S
C975 H989 0.931 . S
C976 O979 1.256 . S
C976 O980 1.255 . S
O977 Co960 2.021 . S
O977 C970 1.259 . S
O978 Co962 2.117 . S
O978 C970 1.258 . S
O979 Co962 2.020 . S
O979 C976 1.256 . S
O980 Co960 2.062 . S
O980 C976 1.255 . S
O981 C961 1.259 . S
O981 Co962 2.021 . S
H982 C973 0.930 . S
H983 C972 0.931 . S
O984 Co960 2.117 . S
O984 C961 1.258 . S
O985 Co960 2.020 . S
O985 C987 1.256 . S
O986 Co962 2.062 . S
O986 C987 1.255 . S
C987 O985 1.256 . S
C987 O986 1.255 . S
H988 C967 0.931 . S
H989 C975 0.931 . S
Co990 N995 2.057 . S
Co990 O1007 2.021 . S
Co990 O1010 2.062 . S
Co990 O1014 2.117 . S
Co990 O1015 2.020 . S
C991 O1011 1.259 . S
C991 O1014 1.258 . S
Co992 N1001 2.057 . S
Co992 O1008 2.117 . S
Co992 O1009 2.020 . S
Co992 O1011 2.021 . S
Co992 O1016 2.062 . S
C993 N995 1.316 1_655 S
C993 N996 1.347 . S
C993 H998 0.931 . S
C994 N995 1.375 . S
C994 C997 1.350 . S
C994 H999 0.930 . S
N995 Co990 2.057 . S
N995 C993 1.316 1_455 S
N995 C994 1.375 . S
N996 C993 1.347 . S
N996 C997 1.373 1_655 S
C997 C994 1.350 . S
C997 N996 1.373 1_455 S
C997 H1018 0.931 . S
H998 C993 0.931 . S
H999 C994 0.930 . S
C1000 O1007 1.259 . S
C1000 O1008 1.258 . S
N1001 Co992 2.057 . S
N1001 C1002 1.316 . S
N1001 C1003 1.375 . S
C1002 N1001 1.316 . S
C1002 N1004 1.347 . S
C1002 H1013 0.931 . S
C1003 N1001 1.375 . S
C1003 C1005 1.350 . S
C1003 H1012 0.930 . S
N1004 C1002 1.347 . S
N1004 C1005 1.373 . S
C1005 C1003 1.350 . S
C1005 N1004 1.373 . S
C1005 H1019 0.931 . S
C1006 O1009 1.256 . S
C1006 O1010 1.255 . S
O1007 Co990 2.021 . S
O1007 C1000 1.259 . S
O1008 Co992 2.117 . S
O1008 C1000 1.258 . S
O1009 Co992 2.020 . S
O1009 C1006 1.256 . S
O1010 Co990 2.062 . S
O1010 C1006 1.255 . S
O1011 C991 1.259 . S
O1011 Co992 2.021 . S
H1012 C1003 0.930 . S
H1013 C1002 0.931 . S
O1014 Co990 2.117 . S
O1014 C991 1.258 . S
O1015 Co990 2.020 . S
O1015 C1017 1.256 . S
O1016 Co992 2.062 . S
O1016 C1017 1.255 . S
C1017 O1015 1.256 . S
C1017 O1016 1.255 . S
H1018 C997 0.931 . S
H1019 C1005 0.931 . S
Co1020 N1025 2.057 . S
Co1020 O1037 2.021 . S
Co1020 O1040 2.062 . S
Co1020 O1044 2.117 . S
Co1020 O1045 2.020 . S
C1021 O1041 1.259 . S
C1021 O1044 1.258 . S
Co1022 N1031 2.057 . S
Co1022 O1038 2.117 . S
Co1022 O1039 2.020 . S
Co1022 O1041 2.021 . S
Co1022 O1046 2.062 . S
C1023 N1025 1.316 . S
C1023 N1026 1.347 . S
C1023 H1028 0.931 . S
C1024 N1025 1.375 . S
C1024 C1027 1.350 . S
C1024 H1029 0.930 . S
N1025 Co1020 2.057 . S
N1025 C1023 1.316 . S
N1025 C1024 1.375 . S
N1026 C1023 1.347 . S
N1026 C1027 1.373 . S
C1027 C1024 1.350 . S
C1027 N1026 1.373 . S
C1027 H1048 0.931 . S
H1028 C1023 0.931 . S
H1029 C1024 0.930 . S
C1030 O1037 1.259 . S
C1030 O1038 1.258 . S
N1031 Co1022 2.057 . S
N1031 C1032 1.316 . S
N1031 C1033 1.375 . S
C1032 N1031 1.316 . S
C1032 N1034 1.347 . S
C1032 H1043 0.931 . S
C1033 N1031 1.375 . S
C1033 C1035 1.350 . S
C1033 H1042 0.930 . S
N1034 C1032 1.347 . S
N1034 C1035 1.373 . S
C1035 C1033 1.350 . S
C1035 N1034 1.373 . S
C1035 H1049 0.931 . S
C1036 O1039 1.256 . S
C1036 O1040 1.255 . S
O1037 Co1020 2.021 . S
O1037 C1030 1.259 . S
O1038 Co1022 2.117 . S
O1038 C1030 1.258 . S
O1039 Co1022 2.020 . S
O1039 C1036 1.256 . S
O1040 Co1020 2.062 . S
O1040 C1036 1.255 . S
O1041 C1021 1.259 . S
O1041 Co1022 2.021 . S
H1042 C1033 0.930 . S
H1043 C1032 0.931 . S
O1044 Co1020 2.117 . S
O1044 C1021 1.258 . S
O1045 Co1020 2.020 . S
O1045 C1047 1.256 . S
O1046 Co1022 2.062 . S
O1046 C1047 1.255 . S
C1047 O1045 1.256 . S
C1047 O1046 1.255 . S
H1048 C1027 0.931 . S
H1049 C1035 0.931 . S
Co1050 N1055 2.057 . S
Co1050 O1067 2.021 . S
Co1050 O1070 2.062 . S
Co1050 O1074 2.117 . S
Co1050 O1075 2.020 . S
C1051 O1071 1.259 . S
C1051 O1074 1.258 . S
Co1052 N1061 2.057 . S
Co1052 O1068 2.117 . S
Co1052 O1069 2.020 . S
Co1052 O1071 2.021 . S
Co1052 O1076 2.062 . S
C1053 N1055 1.316 1_545 S
C1053 N1056 1.347 . S
C1053 H1058 0.931 . S
C1054 N1055 1.375 . S
C1054 C1057 1.350 . S
C1054 H1059 0.930 . S
N1055 Co1050 2.057 . S
N1055 C1053 1.316 1_565 S
N1055 C1054 1.375 . S
N1056 C1053 1.347 . S
N1056 C1057 1.373 1_545 S
C1057 C1054 1.350 . S
C1057 N1056 1.373 1_565 S
C1057 H1078 0.931 . S
H1058 C1053 0.931 . S
H1059 C1054 0.930 . S
C1060 O1067 1.259 . S
C1060 O1068 1.258 . S
N1061 Co1052 2.057 . S
N1061 C1062 1.316 . S
N1061 C1063 1.375 . S
C1062 N1061 1.316 . S
C1062 N1064 1.347 . S
C1062 H1073 0.931 . S
C1063 N1061 1.375 . S
C1063 C1065 1.350 . S
C1063 H1072 0.930 . S
N1064 C1062 1.347 . S
N1064 C1065 1.373 . S
C1065 C1063 1.350 . S
C1065 N1064 1.373 . S
C1065 H1079 0.931 . S
C1066 O1069 1.256 . S
C1066 O1070 1.255 . S
O1067 Co1050 2.021 . S
O1067 C1060 1.259 . S
O1068 Co1052 2.117 . S
O1068 C1060 1.258 . S
O1069 Co1052 2.020 . S
O1069 C1066 1.256 . S
O1070 Co1050 2.062 . S
O1070 C1066 1.255 . S
O1071 C1051 1.259 . S
O1071 Co1052 2.021 . S
H1072 C1063 0.930 . S
H1073 C1062 0.931 . S
O1074 Co1050 2.117 . S
O1074 C1051 1.258 . S
O1075 Co1050 2.020 . S
O1075 C1077 1.256 . S
O1076 Co1052 2.062 . S
O1076 C1077 1.255 . S
C1077 O1075 1.256 . S
C1077 O1076 1.255 . S
H1078 C1057 0.931 . S
H1079 C1065 0.931 . S
H1080 C1086 0.930 . S
H1081 C1090 0.930 . S
H1082 C1095 0.929 . S
H1083 C1093 0.929 . S
H1084 C1088 0.929 . S
H1085 C1094 0.929 . S
C1086 H1080 0.930 . S
C1086 C1087 1.367 . S
C1086 C1094 1.378 . S
C1087 C1086 1.367 . S
C1087 C1095 1.433 . S
C1088 H1084 0.929 . S
C1088 C1090 1.378 . S
C1088 C1092 1.350 . S
C1089 C1092 1.463 . S
C1089 C1094 1.350 . S
C1089 N1097 1.427 . S
C1090 H1081 0.930 . S
C1090 C1088 1.378 . S
C1090 C1091 1.367 . S
C1091 C1090 1.367 . S
C1091 C1093 1.433 . S
C1092 C1088 1.350 . S
C1092 C1089 1.463 . S
C1092 N1096 1.427 . S
C1093 H1083 0.929 . S
C1093 C1091 1.433 . S
C1093 N1096 1.384 . S
C1094 H1085 0.929 . S
C1094 C1086 1.378 . S
C1094 C1089 1.350 . S
C1095 H1082 0.929 . S
C1095 C1087 1.433 . S
C1095 N1097 1.384 . S
N1096 C1092 1.427 . S
N1096 C1093 1.384 . S
N1097 C1089 1.427 . S
N1097 C1095 1.384 . S
H1098 C1104 0.930 . S
H1099 C1108 0.930 . S
H1100 C1113 0.929 . S
H1101 C1111 0.929 . S
H1102 C1106 0.929 1_545 S
H1103 C1112 0.929 . S
C1104 H1098 0.930 . S
C1104 C1105 1.367 . S
C1104 C1112 1.378 . S
C1105 C1104 1.367 . S
C1105 C1113 1.433 . S
C1106 H1102 0.929 1_565 S
C1106 C1108 1.378 . S
C1106 C1110 1.350 1_565 S
C1107 C1110 1.463 . S
C1107 C1112 1.350 . S
C1107 N1115 1.427 . S
C1108 H1099 0.930 . S
C1108 C1106 1.378 . S
C1108 C1109 1.367 . S
C1109 C1108 1.367 . S
C1109 C1111 1.433 . S
C1110 C1106 1.350 1_545 S
C1110 C1107 1.463 . S
C1110 N1114 1.427 . S
C1111 H1101 0.929 . S
C1111 C1109 1.433 . S
C1111 N1114 1.384 1_565 S
C1112 H1103 0.929 . S
C1112 C1104 1.378 . S
C1112 C1107 1.350 . S
C1113 H1100 0.929 . S
C1113 C1105 1.433 . S
C1113 N1115 1.384 . S
N1114 C1110 1.427 . S
N1114 C1111 1.384 1_545 S
N1115 C1107 1.427 . S
N1115 C1113 1.384 . S
H1116 C1122 0.930 . S
H1117 C1126 0.930 . S
H1118 C1131 0.929 . S
H1119 C1129 0.929 . S
H1120 C1124 0.929 . S
H1121 C1130 0.929 . S
C1122 H1116 0.930 . S
C1122 C1123 1.367 . S
C1122 C1130 1.378 1_455 S
C1123 C1122 1.367 . S
C1123 C1131 1.433 . S
C1124 H1120 0.929 . S
C1124 C1126 1.378 . S
C1124 C1128 1.350 . S
C1125 C1128 1.463 . S
C1125 C1130 1.350 . S
C1125 N1133 1.427 1_655 S
C1126 H1117 0.930 . S
C1126 C1124 1.378 . S
C1126 C1127 1.367 . S
C1127 C1126 1.367 . S
C1127 C1129 1.433 . S
C1128 C1124 1.350 . S
C1128 C1125 1.463 . S
C1128 N1132 1.427 . S
C1129 H1119 0.929 . S
C1129 C1127 1.433 . S
C1129 N1132 1.384 . S
C1130 H1121 0.929 . S
C1130 C1122 1.378 1_655 S
C1130 C1125 1.350 . S
C1131 H1118 0.929 . S
C1131 C1123 1.433 . S
C1131 N1133 1.384 . S
N1132 C1128 1.427 . S
N1132 C1129 1.384 . S
N1133 C1125 1.427 1_455 S
N1133 C1131 1.384 . S
H1134 C1140 0.930 . S
H1135 C1144 0.930 . S
H1136 C1149 0.929 . S
H1137 C1147 0.929 . S
H1138 C1142 0.929 . S
H1139 C1148 0.929 . S
C1140 H1134 0.930 . S
C1140 C1141 1.367 . S
C1140 C1148 1.378 . S
C1141 C1140 1.367 . S
C1141 C1149 1.433 . S
C1142 H1138 0.929 . S
C1142 C1144 1.378 . S
C1142 C1146 1.350 . S
C1143 C1146 1.463 . S
C1143 C1148 1.350 . S
C1143 N1151 1.427 . S
C1144 H1135 0.930 . S
C1144 C1142 1.378 . S
C1144 C1145 1.367 . S
C1145 C1144 1.367 . S
C1145 C1147 1.433 . S
C1146 C1142 1.350 . S
C1146 C1143 1.463 . S
C1146 N1150 1.427 . S
C1147 H1137 0.929 . S
C1147 C1145 1.433 . S
C1147 N1150 1.384 . S
C1148 H1139 0.929 . S
C1148 C1140 1.378 . S
C1148 C1143 1.350 . S
C1149 H1136 0.929 . S
C1149 C1141 1.433 . S
C1149 N1151 1.384 . S
N1150 C1146 1.427 . S
N1150 C1147 1.384 . S
N1151 C1143 1.427 . S
N1151 C1149 1.384 . S
H1152 C1158 0.930 . S
H1153 C1162 0.930 . S
H1154 C1167 0.929 . S
H1155 C1165 0.929 . S
H1156 C1160 0.929 . S
H1157 C1166 0.929 . S
C1158 H1152 0.930 . S
C1158 C1159 1.367 . S
C1158 C1166 1.378 . S
C1159 C1158 1.367 . S
C1159 C1167 1.433 . S
C1160 H1156 0.929 . S
C1160 C1162 1.378 1_565 S
C1160 C1164 1.350 . S
C1161 C1164 1.463 . S
C1161 C1166 1.350 . S
C1161 N1169 1.427 . S
C1162 H1153 0.930 . S
C1162 C1160 1.378 1_545 S
C1162 C1163 1.367 . S
C1163 C1162 1.367 . S
C1163 C1165 1.433 . S
C1164 C1160 1.350 . S
C1164 C1161 1.463 . S
C1164 N1168 1.427 1_565 S
C1165 H1155 0.929 . S
C1165 C1163 1.433 . S
C1165 N1168 1.384 . S
C1166 H1157 0.929 . S
C1166 C1158 1.378 . S
C1166 C1161 1.350 . S
C1167 H1154 0.929 . S
C1167 C1159 1.433 . S
C1167 N1169 1.384 . S
N1168 C1164 1.427 1_545 S
N1168 C1165 1.384 . S
N1169 C1161 1.427 . S
N1169 C1167 1.384 . S
H1170 C1176 0.930 . S
H1171 C1180 0.930 . S
H1172 C1185 0.929 . S
H1173 C1183 0.929 . S
H1174 C1178 0.929 . S
H1175 C1184 0.929 1_455 S
C1176 H1170 0.930 . S
C1176 C1177 1.367 . S
C1176 C1184 1.378 . S
C1177 C1176 1.367 . S
C1177 C1185 1.433 . S
C1178 H1174 0.929 . S
C1178 C1180 1.378 . S
C1178 C1182 1.350 . S
C1179 C1182 1.463 . S
C1179 C1184 1.350 1_455 S
C1179 N1187 1.427 . S
C1180 H1171 0.930 . S
C1180 C1178 1.378 . S
C1180 C1181 1.367 . S
C1181 C1180 1.367 . S
C1181 C1183 1.433 . S
C1182 C1178 1.350 . S
C1182 C1179 1.463 . S
C1182 N1186 1.427 . S
C1183 H1173 0.929 . S
C1183 C1181 1.433 . S
C1183 N1186 1.384 . S
C1184 H1175 0.929 1_655 S
C1184 C1176 1.378 . S
C1184 C1179 1.350 1_655 S
C1185 H1172 0.929 . S
C1185 C1177 1.433 . S
C1185 N1187 1.384 1_655 S
N1186 C1182 1.427 . S
N1186 C1183 1.384 . S
N1187 C1179 1.427 . S
N1187 C1185 1.384 1_455 S
H1188 C1194 0.930 . S
H1189 C1198 0.930 . S
H1190 C1203 0.929 . S
H1191 C1201 0.929 . S
H1192 C1196 0.929 . S
H1193 C1202 0.929 . S
C1194 H1188 0.930 . S
C1194 C1195 1.367 . S
C1194 C1202 1.378 . S
C1195 C1194 1.367 . S
C1195 C1203 1.433 . S
C1196 H1192 0.929 . S
C1196 C1198 1.378 . S
C1196 C1200 1.350 . S
C1197 C1200 1.463 . S
C1197 C1202 1.350 . S
C1197 N1205 1.427 . S
C1198 H1189 0.930 . S
C1198 C1196 1.378 . S
C1198 C1199 1.367 . S
C1199 C1198 1.367 . S
C1199 C1201 1.433 . S
C1200 C1196 1.350 . S
C1200 C1197 1.463 . S
C1200 N1204 1.427 . S
C1201 H1191 0.929 . S
C1201 C1199 1.433 . S
C1201 N1204 1.384 . S
C1202 H1193 0.929 . S
C1202 C1194 1.378 . S
C1202 C1197 1.350 . S
C1203 H1190 0.929 . S
C1203 C1195 1.433 . S
C1203 N1205 1.384 . S
N1204 C1200 1.427 . S
N1204 C1201 1.384 . S
N1205 C1197 1.427 . S
N1205 C1203 1.384 . S
H1206 C1212 0.930 . S
H1207 C1216 0.930 . S
H1208 C1221 0.929 . S
H1209 C1219 0.929 . S
H1210 C1214 0.929 . S
H1211 C1220 0.928 . S
C1212 H1206 0.930 . S
C1212 C1213 1.367 . S
C1212 C1220 1.378 . S
C1213 C1212 1.367 . S
C1213 C1221 1.433 . S
C1214 H1210 0.929 . S
C1214 C1216 1.378 . S
C1214 C1218 1.350 . S
C1215 C1218 1.463 . S
C1215 C1220 1.350 1_565 S
C1215 N1223 1.427 . S
C1216 H1207 0.930 . S
C1216 C1214 1.378 . S
C1216 C1217 1.367 . S
C1217 C1216 1.367 . S
C1217 C1219 1.433 . S
C1218 C1214 1.350 . S
C1218 C1215 1.463 . S
C1218 N1222 1.427 . S
C1219 H1209 0.929 . S
C1219 C1217 1.433 . S
C1219 N1222 1.384 . S
C1220 H1211 0.928 . S
C1220 C1212 1.378 . S
C1220 C1215 1.350 1_545 S
C1221 H1208 0.929 . S
C1221 C1213 1.433 . S
C1221 N1223 1.384 1_545 S
N1222 C1218 1.427 . S
N1222 C1219 1.384 . S
N1223 C1215 1.427 . S
N1223 C1221 1.384 1_565 S
H1224 C1230 0.930 . S
H1225 C1234 0.930 . S
H1226 C1239 0.929 . S
H1227 C1237 0.929 . S
H1228 C1232 0.929 . S
H1229 C1238 0.931 1_455 S
C1230 H1224 0.930 . S
C1230 C1231 1.367 . S
C1230 C1238 1.374 . S
C1231 C1230 1.367 . S
C1231 C1239 1.433 . S
C1232 H1228 0.929 . S
C1232 C1234 1.378 . S
C1232 C1236 1.350 . S
C1233 C1236 1.463 . S
C1233 C1238 1.351 1_455 S
C1233 N1241 1.427 1_455 S
C1234 H1225 0.930 . S
C1234 C1232 1.378 . S
C1234 C1235 1.367 . S
C1235 C1234 1.367 . S
C1235 C1237 1.433 . S
C1236 C1232 1.350 . S
C1236 C1233 1.463 . S
C1236 N1240 1.427 . S
C1237 H1227 0.929 . S
C1237 C1235 1.433 . S
C1237 N1240 1.384 . S
C1238 H1229 0.931 1_655 S
C1238 C1230 1.374 . S
C1238 C1233 1.351 1_655 S
C1239 H1226 0.929 . S
C1239 C1231 1.433 . S
C1239 N1241 1.384 . S
N1240 C1236 1.427 . S
N1240 C1237 1.384 . S
N1241 C1233 1.427 1_655 S
N1241 C1239 1.384 . S
H1242 C1248 0.930 . S
H1243 C1252 0.930 . S
H1244 C1257 0.929 . S
H1245 C1255 0.929 . S
H1246 C1250 0.929 . S
H1247 C1256 0.929 . S
C1248 H1242 0.930 . S
C1248 C1249 1.367 . S
C1248 C1256 1.378 . S
C1249 C1248 1.367 . S
C1249 C1257 1.433 . S
C1250 H1246 0.929 . S
C1250 C1252 1.378 . S
C1250 C1254 1.350 . S
C1251 C1254 1.463 . S
C1251 C1256 1.350 . S
C1251 N1259 1.427 . S
C1252 H1243 0.930 . S
C1252 C1250 1.378 . S
C1252 C1253 1.367 . S
C1253 C1252 1.367 . S
C1253 C1255 1.433 . S
C1254 C1250 1.350 . S
C1254 C1251 1.463 . S
C1254 N1258 1.427 . S
C1255 H1245 0.929 . S
C1255 C1253 1.433 . S
C1255 N1258 1.384 . S
C1256 H1247 0.929 . S
C1256 C1248 1.378 . S
C1256 C1251 1.350 . S
C1257 H1244 0.929 . S
C1257 C1249 1.433 . S
C1257 N1259 1.384 . S
N1258 C1254 1.427 . S
N1258 C1255 1.384 . S
N1259 C1251 1.427 . S
N1259 C1257 1.384 . S
H1260 C1266 0.930 . S
H1261 C1270 0.930 . S
H1262 C1275 0.929 . S
H1263 C1273 0.929 . S
H1264 C1268 0.929 . S
H1265 C1274 0.929 . S
C1266 H1260 0.930 . S
C1266 C1267 1.367 . S
C1266 C1274 1.378 . S
C1267 C1266 1.367 . S
C1267 C1275 1.433 . S
C1268 H1264 0.929 . S
C1268 C1270 1.378 . S
C1268 C1272 1.350 1_565 S
C1269 C1272 1.463 . S
C1269 C1274 1.350 . S
C1269 N1277 1.427 . S
C1270 H1261 0.930 . S
C1270 C1268 1.378 . S
C1270 C1271 1.367 . S
C1271 C1270 1.367 . S
C1271 C1273 1.433 . S
C1272 C1268 1.350 1_545 S
C1272 C1269 1.463 . S
C1272 N1276 1.427 . S
C1273 H1263 0.929 . S
C1273 C1271 1.433 . S
C1273 N1276 1.384 1_565 S
C1274 H1265 0.929 . S
C1274 C1266 1.378 . S
C1274 C1269 1.350 . S
C1275 H1262 0.929 . S
C1275 C1267 1.433 . S
C1275 N1277 1.384 . S
N1276 C1272 1.427 . S
N1276 C1273 1.384 1_545 S
N1277 C1269 1.427 . S
N1277 C1275 1.384 . S
H1278 C1284 0.930 . S
H1279 C1288 0.930 . S
H1280 C1293 0.929 . S
H1281 C1291 0.929 . S
H1282 C1286 0.929 . S
H1283 C1292 0.929 . S
C1284 H1278 0.930 . S
C1284 C1285 1.367 . S
C1284 C1292 1.378 . S
C1285 C1284 1.367 . S
C1285 C1293 1.433 . S
C1286 H1282 0.929 . S
C1286 C1288 1.378 1_655 S
C1286 C1290 1.350 . S
C1287 C1290 1.463 . S
C1287 C1292 1.350 . S
C1287 N1295 1.427 . S
C1288 H1279 0.930 . S
C1288 C1286 1.378 1_455 S
C1288 C1289 1.367 . S
C1289 C1288 1.367 . S
C1289 C1291 1.433 . S
C1290 C1286 1.350 . S
C1290 C1287 1.463 . S
C1290 N1294 1.427 1_655 S
C1291 H1281 0.929 . S
C1291 C1289 1.433 . S
C1291 N1294 1.384 . S
C1292 H1283 0.929 . S
C1292 C1284 1.378 . S
C1292 C1287 1.350 . S
C1293 H1280 0.929 . S
C1293 C1285 1.433 . S
C1293 N1295 1.384 . S
N1294 C1290 1.427 1_455 S
N1294 C1291 1.384 . S
N1295 C1287 1.427 . S
N1295 C1293 1.384 . S
H1296 C1302 0.930 . S
H1297 C1306 0.930 . S
H1298 C1311 0.929 . S
H1299 C1309 0.929 . S
H1300 C1304 0.929 . S
H1301 C1310 0.929 . S
C1302 H1296 0.930 . S
C1302 C1303 1.367 . S
C1302 C1310 1.378 . S
C1303 C1302 1.367 . S
C1303 C1311 1.433 . S
C1304 H1300 0.929 . S
C1304 C1306 1.378 . S
C1304 C1308 1.350 . S
C1305 C1308 1.463 . S
C1305 C1310 1.350 . S
C1305 N1313 1.427 . S
C1306 H1297 0.930 . S
C1306 C1304 1.378 . S
C1306 C1307 1.367 . S
C1307 C1306 1.367 . S
C1307 C1309 1.433 . S
C1308 C1304 1.350 . S
C1308 C1305 1.463 . S
C1308 N1312 1.427 . S
C1309 H1299 0.929 . S
C1309 C1307 1.433 . S
C1309 N1312 1.384 . S
C1310 H1301 0.929 . S
C1310 C1302 1.378 . S
C1310 C1305 1.350 . S
C1311 H1298 0.929 . S
C1311 C1303 1.433 . S
C1311 N1313 1.384 . S
N1312 C1308 1.427 . S
N1312 C1309 1.384 . S
N1313 C1305 1.427 . S
N1313 C1311 1.384 . S
H1314 C1320 0.930 . S
H1315 C1324 0.930 . S
H1316 C1329 0.929 . S
H1317 C1327 0.929 . S
H1318 C1322 0.929 . S
H1319 C1328 0.929 . S
C1320 H1314 0.930 . S
C1320 C1321 1.367 . S
C1320 C1328 1.378 . S
C1321 C1320 1.367 . S
C1321 C1329 1.433 . S
C1322 H1318 0.929 . S
C1322 C1324 1.378 . S
C1322 C1326 1.350 . S
C1323 C1326 1.463 . S
C1323 C1328 1.350 . S
C1323 N1331 1.427 . S
C1324 H1315 0.930 . S
C1324 C1322 1.378 . S
C1324 C1325 1.367 . S
C1325 C1324 1.367 . S
C1325 C1327 1.433 . S
C1326 C1322 1.350 . S
C1326 C1323 1.463 . S
C1326 N1330 1.427 . S
C1327 H1317 0.929 . S
C1327 C1325 1.433 . S
C1327 N1330 1.384 . S
C1328 H1319 0.929 . S
C1328 C1320 1.378 . S
C1328 C1323 1.350 . S
C1329 H1316 0.929 . S
C1329 C1321 1.433 . S
C1329 N1331 1.384 . S
N1330 C1326 1.427 . S
N1330 C1327 1.384 . S
N1331 C1323 1.427 . S
N1331 C1329 1.384 . S
H1332 C1338 0.930 . S
H1333 C1342 0.930 . S
H1334 C1347 0.929 . S
H1335 C1345 0.929 . S
H1336 C1340 0.929 . S
H1337 C1346 0.929 . S
C1338 H1332 0.930 . S
C1338 C1339 1.367 . S
C1338 C1346 1.378 . S
C1339 C1338 1.367 . S
C1339 C1347 1.433 . S
C1340 H1336 0.929 . S
C1340 C1342 1.378 . S
C1340 C1344 1.350 . S
C1341 C1344 1.463 . S
C1341 C1346 1.350 . S
C1341 N1349 1.427 . S
C1342 H1333 0.930 . S
C1342 C1340 1.378 . S
C1342 C1343 1.367 . S
C1343 C1342 1.367 . S
C1343 C1345 1.433 . S
C1344 C1340 1.350 . S
C1344 C1341 1.463 . S
C1344 N1348 1.427 . S
C1345 H1335 0.929 . S
C1345 C1343 1.433 . S
C1345 N1348 1.384 . S
C1346 H1337 0.929 . S
C1346 C1338 1.378 . S
C1346 C1341 1.350 . S
C1347 H1334 0.929 . S
C1347 C1339 1.433 . S
C1347 N1349 1.384 . S
N1348 C1344 1.427 . S
N1348 C1345 1.384 . S
N1349 C1341 1.427 . S
N1349 C1347 1.384 . S
H1350 C1356 0.930 . S
H1351 C1360 0.930 . S
H1352 C1365 0.929 . S
H1353 C1363 0.929 . S
H1354 C1358 0.929 . S
H1355 C1364 0.929 . S
C1356 H1350 0.930 . S
C1356 C1357 1.367 . S
C1356 C1364 1.378 . S
C1357 C1356 1.367 . S
C1357 C1365 1.433 . S
C1358 H1354 0.929 . S
C1358 C1360 1.378 . S
C1358 C1362 1.350 . S
C1359 C1362 1.463 . S
C1359 C1364 1.350 . S
C1359 N1367 1.427 . S
C1360 H1351 0.930 . S
C1360 C1358 1.378 . S
C1360 C1361 1.367 . S
C1361 C1360 1.367 . S
C1361 C1363 1.433 . S
C1362 C1358 1.350 . S
C1362 C1359 1.463 . S
C1362 N1366 1.427 . S
C1363 H1353 0.929 . S
C1363 C1361 1.433 . S
C1363 N1366 1.384 . S
C1364 H1355 0.929 . S
C1364 C1356 1.378 . S
C1364 C1359 1.350 . S
C1365 H1352 0.929 . S
C1365 C1357 1.433 . S
C1365 N1367 1.384 . S
N1366 C1362 1.427 . S
N1366 C1363 1.384 . S
N1367 C1359 1.427 . S
N1367 C1365 1.384 . S
H1368 C1374 0.930 . S
H1369 C1378 0.930 . S
H1370 C1383 0.929 . S
H1371 C1381 0.929 . S
H1372 C1376 0.929 . S
H1373 C1382 0.929 . S
C1374 H1368 0.930 . S
C1374 C1375 1.367 . S
C1374 C1382 1.378 . S
C1375 C1374 1.367 . S
C1375 C1383 1.433 . S
C1376 H1372 0.929 . S
C1376 C1378 1.378 . S
C1376 C1380 1.350 . S
C1377 C1380 1.463 . S
C1377 C1382 1.350 . S
C1377 N1385 1.427 . S
C1378 H1369 0.930 . S
C1378 C1376 1.378 . S
C1378 C1379 1.367 . S
C1379 C1378 1.367 . S
C1379 C1381 1.433 . S
C1380 C1376 1.350 . S
C1380 C1377 1.463 . S
C1380 N1384 1.427 . S
C1381 H1371 0.929 . S
C1381 C1379 1.433 . S
C1381 N1384 1.384 . S
C1382 H1373 0.929 . S
C1382 C1374 1.378 . S
C1382 C1377 1.350 . S
C1383 H1370 0.929 . S
C1383 C1375 1.433 . S
C1383 N1385 1.384 . S
N1384 C1380 1.427 . S
N1384 C1381 1.384 . S
N1385 C1377 1.427 . S
N1385 C1383 1.384 . S
H1386 C1392 0.930 . S
H1387 C1396 0.930 . S
H1388 C1401 0.929 . S
H1389 C1399 0.929 . S
H1390 C1394 0.929 . S
H1391 C1400 0.929 . S
C1392 H1386 0.930 . S
C1392 C1393 1.367 . S
C1392 C1400 1.378 . S
C1393 C1392 1.367 . S
C1393 C1401 1.433 . S
C1394 H1390 0.929 . S
C1394 C1396 1.378 . S
C1394 C1398 1.350 . S
C1395 C1398 1.463 . S
C1395 C1400 1.350 . S
C1395 N1403 1.427 . S
C1396 H1387 0.930 . S
C1396 C1394 1.378 . S
C1396 C1397 1.367 . S
C1397 C1396 1.367 . S
C1397 C1399 1.433 . S
C1398 C1394 1.350 . S
C1398 C1395 1.463 . S
C1398 N1402 1.427 . S
C1399 H1389 0.929 . S
C1399 C1397 1.433 . S
C1399 N1402 1.384 . S
C1400 H1391 0.929 . S
C1400 C1392 1.378 . S
C1400 C1395 1.350 . S
C1401 H1388 0.929 . S
C1401 C1393 1.433 . S
C1401 N1403 1.384 . S
N1402 C1398 1.427 . S
N1402 C1399 1.384 . S
N1403 C1395 1.427 . S
N1403 C1401 1.384 . S
H1404 C1410 0.930 . S
H1405 C1414 0.930 . S
H1406 C1419 0.929 . S
H1407 C1417 0.929 . S
H1408 C1412 0.929 . S
H1409 C1418 0.929 . S
C1410 H1404 0.930 . S
C1410 C1411 1.367 . S
C1410 C1418 1.378 . S
C1411 C1410 1.367 . S
C1411 C1419 1.433 . S
C1412 H1408 0.929 . S
C1412 C1414 1.378 . S
C1412 C1416 1.350 . S
C1413 C1416 1.463 . S
C1413 C1418 1.350 . S
C1413 N1421 1.427 . S
C1414 H1405 0.930 . S
C1414 C1412 1.378 . S
C1414 C1415 1.367 . S
C1415 C1414 1.367 . S
C1415 C1417 1.433 . S
C1416 C1412 1.350 . S
C1416 C1413 1.463 . S
C1416 N1420 1.427 . S
C1417 H1407 0.929 . S
C1417 C1415 1.433 . S
C1417 N1420 1.384 . S
C1418 H1409 0.929 . S
C1418 C1410 1.378 . S
C1418 C1413 1.350 . S
C1419 H1406 0.929 . S
C1419 C1411 1.433 . S
C1419 N1421 1.384 . S
N1420 C1416 1.427 . S
N1420 C1417 1.384 . S
N1421 C1413 1.427 . S
N1421 C1419 1.384 . S
H1422 C1428 0.930 . S
H1423 C1432 0.930 . S
H1424 C1437 0.929 . S
H1425 C1435 0.929 . S
H1426 C1430 0.929 . S
H1427 C1436 0.929 . S
C1428 H1422 0.930 . S
C1428 C1429 1.367 . S
C1428 C1436 1.378 . S
C1429 C1428 1.367 . S
C1429 C1437 1.433 . S
C1430 H1426 0.929 . S
C1430 C1432 1.378 . S
C1430 C1434 1.350 . S
C1431 C1434 1.463 . S
C1431 C1436 1.350 . S
C1431 N1439 1.427 . S
C1432 H1423 0.930 . S
C1432 C1430 1.378 . S
C1432 C1433 1.367 . S
C1433 C1432 1.367 . S
C1433 C1435 1.433 . S
C1434 C1430 1.350 . S
C1434 C1431 1.463 . S
C1434 N1438 1.427 . S
C1435 H1425 0.929 . S
C1435 C1433 1.433 . S
C1435 N1438 1.384 . S
C1436 H1427 0.929 . S
C1436 C1428 1.378 . S
C1436 C1431 1.350 . S
C1437 H1424 0.929 . S
C1437 C1429 1.433 . S
C1437 N1439 1.384 . S
N1438 C1434 1.427 . S
N1438 C1435 1.384 . S
N1439 C1431 1.427 . S
N1439 C1437 1.384 . S
H1440 C1446 0.930 . S
H1441 C1450 0.930 . S
H1442 C1455 0.929 . S
H1443 C1453 0.929 . S
H1444 C1448 0.929 . S
H1445 C1454 0.929 . S
C1446 H1440 0.930 . S
C1446 C1447 1.367 . S
C1446 C1454 1.378 . S
C1447 C1446 1.367 . S
C1447 C1455 1.433 . S
C1448 H1444 0.929 . S
C1448 C1450 1.378 . S
C1448 C1452 1.350 . S
C1449 C1452 1.463 . S
C1449 C1454 1.350 . S
C1449 N1457 1.427 . S
C1450 H1441 0.930 . S
C1450 C1448 1.378 . S
C1450 C1451 1.367 . S
C1451 C1450 1.367 . S
C1451 C1453 1.433 . S
C1452 C1448 1.350 . S
C1452 C1449 1.463 . S
C1452 N1456 1.427 . S
C1453 H1443 0.929 . S
C1453 C1451 1.433 . S
C1453 N1456 1.384 . S
C1454 H1445 0.929 . S
C1454 C1446 1.378 . S
C1454 C1449 1.350 . S
C1455 H1442 0.929 . S
C1455 C1447 1.433 . S
C1455 N1457 1.384 . S
N1456 C1452 1.427 . S
N1456 C1453 1.384 . S
N1457 C1449 1.427 . S
N1457 C1455 1.384 . S
H1458 C1464 0.930 . S
H1459 C1468 0.930 . S
H1460 C1473 0.929 . S
H1461 C1471 0.929 . S
H1462 C1466 0.929 . S
H1463 C1472 0.910 1_554 S
C1464 H1458 0.930 . S
C1464 C1465 1.367 . S
C1464 C1472 1.378 . S
C1465 C1464 1.367 . S
C1465 C1473 1.433 . S
C1466 H1462 0.929 . S
C1466 C1468 1.378 . S
C1466 C1470 1.350 . S
C1467 C1470 1.463 . S
C1467 C1472 1.350 . S
C1467 N1475 1.427 . S
C1468 H1459 0.930 . S
C1468 C1466 1.378 . S
C1468 C1469 1.367 . S
C1469 C1468 1.367 . S
C1469 C1471 1.433 1_556 S
C1470 C1466 1.350 . S
C1470 C1467 1.463 . S
C1470 N1474 1.424 1_556 S
C1471 H1461 0.929 . S
C1471 C1469 1.433 1_554 S
C1471 N1474 1.385 . S
C1472 H1463 0.910 1_556 S
C1472 C1464 1.378 . S
C1472 C1467 1.350 . S
C1473 H1460 0.929 . S
C1473 C1465 1.433 . S
C1473 N1475 1.384 . S
N1474 C1470 1.424 1_554 S
N1474 C1471 1.385 . S
N1475 C1467 1.427 . S
N1475 C1473 1.384 . S
H1476 C1482 0.931 . S
H1477 C1486 0.930 . S
H1478 C1491 0.929 . S
H1479 C1489 0.929 . S
H1480 C1484 0.929 . S
H1481 C1490 0.929 . S
C1482 H1476 0.931 . S
C1482 C1483 1.367 . S
C1482 C1490 1.378 . S
C1483 C1482 1.367 . S
C1483 C1491 1.433 . S
C1484 H1480 0.929 . S
C1484 C1486 1.378 . S
C1484 C1488 1.350 . S
C1485 C1488 1.463 . S
C1485 C1490 1.350 . S
C1485 N1493 1.427 . S
C1486 H1477 0.930 . S
C1486 C1484 1.378 . S
C1486 C1487 1.367 . S
C1487 C1486 1.367 . S
C1487 C1489 1.433 . S
C1488 C1484 1.350 . S
C1488 C1485 1.463 . S
C1488 N1492 1.427 . S
C1489 H1479 0.929 . S
C1489 C1487 1.433 . S
C1489 N1492 1.384 . S
C1490 H1481 0.929 . S
C1490 C1482 1.378 . S
C1490 C1485 1.350 . S
C1491 H1478 0.929 . S
C1491 C1483 1.433 . S
C1491 N1493 1.384 . S
N1492 C1488 1.427 . S
N1492 C1489 1.384 . S
N1493 C1485 1.427 . S
N1493 C1491 1.384 . S
H1494 C1500 0.930 . S
H1495 C1504 0.930 . S
H1496 C1509 0.929 1_554 S
H1497 C1507 0.929 . S
H1498 C1502 0.929 . S
H1499 C1508 0.929 . S
C1500 H1494 0.930 . S
C1500 C1501 1.367 . S
C1500 C1508 1.378 . S
C1501 C1500 1.367 . S
C1501 C1509 1.433 . S
C1502 H1498 0.929 . S
C1502 C1504 1.378 . S
C1502 C1506 1.350 1_554 S
C1503 C1506 1.463 . S
C1503 C1508 1.350 . S
C1503 N1511 1.408 1_556 S
C1504 H1495 0.930 . S
C1504 C1502 1.378 . S
C1504 C1505 1.367 1_554 S
C1505 C1504 1.367 1_556 S
C1505 C1507 1.433 . S
C1506 C1502 1.350 1_556 S
C1506 C1503 1.463 . S
C1506 N1510 1.427 . S
C1507 H1497 0.929 . S
C1507 C1505 1.433 . S
C1507 N1510 1.384 . S
C1508 H1499 0.929 . S
C1508 C1500 1.378 . S
C1508 C1503 1.350 . S
C1509 H1496 0.929 1_556 S
C1509 C1501 1.433 . S
C1509 N1511 1.380 1_556 S
N1510 C1506 1.427 . S
N1510 C1507 1.384 . S
N1511 C1503 1.408 1_554 S
N1511 C1509 1.380 1_554 S
H1512 C1518 0.930 . S
H1513 C1522 0.930 . S
H1514 C1527 0.929 . S
H1515 C1525 0.929 . S
H1516 C1520 0.929 . S
H1517 C1526 0.929 . S
C1518 H1512 0.930 . S
C1518 C1519 1.367 . S
C1518 C1526 1.378 . S
C1519 C1518 1.367 . S
C1519 C1527 1.433 . S
C1520 H1516 0.929 . S
C1520 C1522 1.378 . S
C1520 C1524 1.350 . S
C1521 C1524 1.463 . S
C1521 C1526 1.350 . S
C1521 N1529 1.427 . S
C1522 H1513 0.930 . S
C1522 C1520 1.378 . S
C1522 C1523 1.367 . S
C1523 C1522 1.367 . S
C1523 C1525 1.433 . S
C1524 C1520 1.350 . S
C1524 C1521 1.463 . S
C1524 N1528 1.427 . S
C1525 H1515 0.929 . S
C1525 C1523 1.433 . S
C1525 N1528 1.384 . S
C1526 H1517 0.929 . S
C1526 C1518 1.378 . S
C1526 C1521 1.350 . S
C1527 H1514 0.929 . S
C1527 C1519 1.433 . S
C1527 N1529 1.384 . S
N1528 C1524 1.427 . S
N1528 C1525 1.384 . S
N1529 C1521 1.427 . S
N1529 C1527 1.384 . S
H1530 C1536 0.930 . S
H1531 C1540 0.930 . S
H1532 C1545 0.929 . S
H1533 C1543 0.929 . S
H1534 C1538 0.929 . S
H1535 C1544 0.929 . S
C1536 H1530 0.930 . S
C1536 C1537 1.367 . S
C1536 C1544 1.378 . S
C1537 C1536 1.367 . S
C1537 C1545 1.433 . S
C1538 H1534 0.929 . S
C1538 C1540 1.378 . S
C1538 C1542 1.350 . S
C1539 C1542 1.463 . S
C1539 C1544 1.350 . S
C1539 N1547 1.427 . S
C1540 H1531 0.930 . S
C1540 C1538 1.378 . S
C1540 C1541 1.367 . S
C1541 C1540 1.367 . S
C1541 C1543 1.433 . S
C1542 C1538 1.350 . S
C1542 C1539 1.463 . S
C1542 N1546 1.427 . S
C1543 H1533 0.929 . S
C1543 C1541 1.433 . S
C1543 N1546 1.384 . S
C1544 H1535 0.929 . S
C1544 C1536 1.378 . S
C1544 C1539 1.350 . S
C1545 H1532 0.929 . S
C1545 C1537 1.433 . S
C1545 N1547 1.384 . S
N1546 C1542 1.427 . S
N1546 C1543 1.384 . S
N1547 C1539 1.427 . S
N1547 C1545 1.384 . S
H1548 C1554 0.930 . S
H1549 C1558 0.930 . S
H1550 C1563 0.929 . S
H1551 C1561 0.929 . S
H1552 C1556 0.929 . S
H1553 C1562 0.929 . S
C1554 H1548 0.930 . S
C1554 C1555 1.367 . S
C1554 C1562 1.378 . S
C1555 C1554 1.367 . S
C1555 C1563 1.433 . S
C1556 H1552 0.929 . S
C1556 C1558 1.378 . S
C1556 C1560 1.350 . S
C1557 C1560 1.463 . S
C1557 C1562 1.350 . S
C1557 N1565 1.427 . S
C1558 H1549 0.930 . S
C1558 C1556 1.378 . S
C1558 C1559 1.367 . S
C1559 C1558 1.367 . S
C1559 C1561 1.433 . S
C1560 C1556 1.350 . S
C1560 C1557 1.463 . S
C1560 N1564 1.427 . S
C1561 H1551 0.929 . S
C1561 C1559 1.433 . S
C1561 N1564 1.384 . S
C1562 H1553 0.929 . S
C1562 C1554 1.378 . S
C1562 C1557 1.350 . S
C1563 H1550 0.929 . S
C1563 C1555 1.433 . S
C1563 N1565 1.384 . S
N1564 C1560 1.427 . S
N1564 C1561 1.384 . S
N1565 C1557 1.427 . S
N1565 C1563 1.384 . S
H1566 C1572 0.930 . S
H1567 C1576 0.930 . S
H1568 C1581 0.929 . S
H1569 C1579 0.929 . S
H1570 C1574 0.929 . S
H1571 C1580 0.929 . S
C1572 H1566 0.930 . S
C1572 C1573 1.367 . S
C1572 C1580 1.378 . S
C1573 C1572 1.367 . S
C1573 C1581 1.433 1_554 S
C1574 H1570 0.929 . S
C1574 C1576 1.378 . S
C1574 C1578 1.350 1_556 S
C1575 C1578 1.463 . S
C1575 C1580 1.350 . S
C1575 N1583 1.427 1_554 S
C1576 H1567 0.930 . S
C1576 C1574 1.378 . S
C1576 C1577 1.367 1_556 S
C1577 C1576 1.367 1_554 S
C1577 C1579 1.433 . S
C1578 C1574 1.350 1_554 S
C1578 C1575 1.463 . S
C1578 N1582 1.427 . S
C1579 H1569 0.929 . S
C1579 C1577 1.433 . S
C1579 N1582 1.384 . S
C1580 H1571 0.929 . S
C1580 C1572 1.378 . S
C1580 C1575 1.350 . S
C1581 H1568 0.929 . S
C1581 C1573 1.433 1_556 S
C1581 N1583 1.384 . S
N1582 C1578 1.427 . S
N1582 C1579 1.384 . S
N1583 C1575 1.427 1_556 S
N1583 C1581 1.384 . S
H1584 C1590 0.930 . S
H1585 C1594 0.930 . S
H1586 C1599 0.929 . S
H1587 C1597 0.929 . S
H1588 C1592 0.929 . S
H1589 C1598 0.929 . S
C1590 H1584 0.930 . S
C1590 C1591 1.367 . S
C1590 C1598 1.378 . S
C1591 C1590 1.367 . S
C1591 C1599 1.433 1_554 S
C1592 H1588 0.929 . S
C1592 C1594 1.378 . S
C1592 C1596 1.350 1_556 S
C1593 C1596 1.463 . S
C1593 C1598 1.350 . S
C1593 N1601 1.427 1_554 S
C1594 H1585 0.930 . S
C1594 C1592 1.378 . S
C1594 C1595 1.367 1_556 S
C1595 C1594 1.367 1_554 S
C1595 C1597 1.433 . S
C1596 C1592 1.350 1_554 S
C1596 C1593 1.463 . S
C1596 N1600 1.427 . S
C1597 H1587 0.929 . S
C1597 C1595 1.433 . S
C1597 N1600 1.384 . S
C1598 H1589 0.929 . S
C1598 C1590 1.378 . S
C1598 C1593 1.350 . S
C1599 H1586 0.929 . S
C1599 C1591 1.433 1_556 S
C1599 N1601 1.384 . S
N1600 C1596 1.427 . S
N1600 C1597 1.384 . S
N1601 C1593 1.427 1_556 S
N1601 C1599 1.384 . S
H1602 C1608 0.930 . S
H1603 C1612 0.930 . S
H1604 C1617 0.929 . S
H1605 C1615 0.929 . S
H1606 C1610 0.929 . S
H1607 C1616 0.929 . S
C1608 H1602 0.930 . S
C1608 C1609 1.367 1_556 S
C1608 C1616 1.378 . S
C1609 C1608 1.367 1_554 S
C1609 C1617 1.433 . S
C1610 H1606 0.929 . S
C1610 C1612 1.378 . S
C1610 C1614 1.350 . S
C1611 C1614 1.463 . S
C1611 C1616 1.350 1_554 S
C1611 N1619 1.427 . S
C1612 H1603 0.930 . S
C1612 C1610 1.378 . S
C1612 C1613 1.367 . S
C1613 C1612 1.367 . S
C1613 C1615 1.433 1_554 S
C1614 C1610 1.350 . S
C1614 C1611 1.463 . S
C1614 N1618 1.427 1_554 S
C1615 H1605 0.929 . S
C1615 C1613 1.433 1_556 S
C1615 N1618 1.384 . S
C1616 H1607 0.929 . S
C1616 C1608 1.378 . S
C1616 C1611 1.350 1_556 S
C1617 H1604 0.929 . S
C1617 C1609 1.433 . S
C1617 N1619 1.384 . S
N1618 C1614 1.427 1_556 S
N1618 C1615 1.384 . S
N1619 C1611 1.427 . S
N1619 C1617 1.384 . S
H1620 C1626 0.930 . S
H1621 C1630 0.930 . S
H1622 C1635 0.929 . S
H1623 C1633 0.929 . S
H1624 C1628 0.929 . S
H1625 C1634 0.929 . S
C1626 H1620 0.930 . S
C1626 C1627 1.367 . S
C1626 C1634 1.378 . S
C1627 C1626 1.367 . S
C1627 C1635 1.433 . S
C1628 H1624 0.929 . S
C1628 C1630 1.378 . S
C1628 C1632 1.350 . S
C1629 C1632 1.463 . S
C1629 C1634 1.350 . S
C1629 N1637 1.427 . S
C1630 H1621 0.930 . S
C1630 C1628 1.378 . S
C1630 C1631 1.367 . S
C1631 C1630 1.367 . S
C1631 C1633 1.433 . S
C1632 C1628 1.350 . S
C1632 C1629 1.463 . S
C1632 N1636 1.427 . S
C1633 H1623 0.929 . S
C1633 C1631 1.433 . S
C1633 N1636 1.384 . S
C1634 H1625 0.929 . S
C1634 C1626 1.378 . S
C1634 C1629 1.350 . S
C1635 H1622 0.929 . S
C1635 C1627 1.433 . S
C1635 N1637 1.384 . S
N1636 C1632 1.427 . S
N1636 C1633 1.384 . S
N1637 C1629 1.427 . S
N1637 C1635 1.384 . S
H1638 C1644 0.930 . S
H1639 C1648 0.930 . S
H1640 C1653 0.929 . S
H1641 C1651 0.929 . S
H1642 C1646 0.929 . S
H1643 C1652 0.929 . S
C1644 H1638 0.930 . S
C1644 C1645 1.367 . S
C1644 C1652 1.378 . S
C1645 C1644 1.367 . S
C1645 C1653 1.433 . S
C1646 H1642 0.929 . S
C1646 C1648 1.378 . S
C1646 C1650 1.350 . S
C1647 C1650 1.463 . S
C1647 C1652 1.350 . S
C1647 N1655 1.427 . S
C1648 H1639 0.930 . S
C1648 C1646 1.378 . S
C1648 C1649 1.367 . S
C1649 C1648 1.367 . S
C1649 C1651 1.433 . S
C1650 C1646 1.350 . S
C1650 C1647 1.463 . S
C1650 N1654 1.427 . S
C1651 H1641 0.929 . S
C1651 C1649 1.433 . S
C1651 N1654 1.384 . S
C1652 H1643 0.929 . S
C1652 C1644 1.378 . S
C1652 C1647 1.350 . S
C1653 H1640 0.929 . S
C1653 C1645 1.433 . S
C1653 N1655 1.384 . S
N1654 C1650 1.427 . S
N1654 C1651 1.384 . S
N1655 C1647 1.427 . S
N1655 C1653 1.384 . S
H1656 C1662 0.930 . S
H1657 C1666 0.930 . S
H1658 C1671 0.929 . S
H1659 C1669 0.929 . S
H1660 C1664 0.929 . S
H1661 C1670 0.929 . S
C1662 H1656 0.930 . S
C1662 C1663 1.367 . S
C1662 C1670 1.378 . S
C1663 C1662 1.367 . S
C1663 C1671 1.433 . S
C1664 H1660 0.929 . S
C1664 C1666 1.378 . S
C1664 C1668 1.350 . S
C1665 C1668 1.463 . S
C1665 C1670 1.350 . S
C1665 N1673 1.427 . S
C1666 H1657 0.930 . S
C1666 C1664 1.378 . S
C1666 C1667 1.367 . S
C1667 C1666 1.367 . S
C1667 C1669 1.433 . S
C1668 C1664 1.350 . S
C1668 C1665 1.463 . S
C1668 N1672 1.427 . S
C1669 H1659 0.929 . S
C1669 C1667 1.433 . S
C1669 N1672 1.384 . S
C1670 H1661 0.929 . S
C1670 C1662 1.378 . S
C1670 C1665 1.350 . S
C1671 H1658 0.929 . S
C1671 C1663 1.433 . S
C1671 N1673 1.384 . S
N1672 C1668 1.427 . S
N1672 C1669 1.384 . S
N1673 C1665 1.427 . S
N1673 C1671 1.384 . S
H1674 C1680 0.930 . S
H1675 C1684 0.930 . S
H1676 C1689 0.929 . S
H1677 C1687 0.929 . S
H1678 C1682 0.929 . S
H1679 C1688 0.929 . S
C1680 H1674 0.930 . S
C1680 C1681 1.367 . S
C1680 C1688 1.378 . S
C1681 C1680 1.367 . S
C1681 C1689 1.433 . S
C1682 H1678 0.929 . S
C1682 C1684 1.378 . S
C1682 C1686 1.350 . S
C1683 C1686 1.463 . S
C1683 C1688 1.350 . S
C1683 N1691 1.427 . S
C1684 H1675 0.930 . S
C1684 C1682 1.378 . S
C1684 C1685 1.367 . S
C1685 C1684 1.367 . S
C1685 C1687 1.433 . S
C1686 C1682 1.350 . S
C1686 C1683 1.463 . S
C1686 N1690 1.427 . S
C1687 H1677 0.929 . S
C1687 C1685 1.433 . S
C1687 N1690 1.384 . S
C1688 H1679 0.929 . S
C1688 C1680 1.378 . S
C1688 C1683 1.350 . S
C1689 H1676 0.929 . S
C1689 C1681 1.433 . S
C1689 N1691 1.384 . S
N1690 C1686 1.427 . S
N1690 C1687 1.384 . S
N1691 C1683 1.427 . S
N1691 C1689 1.384 . S
H1692 C1698 0.930 . S
H1693 C1702 0.930 . S
H1694 C1707 0.929 . S
H1695 C1705 0.929 . S
H1696 C1700 0.929 . S
H1697 C1706 0.929 . S
C1698 H1692 0.930 . S
C1698 C1699 1.367 . S
C1698 C1706 1.378 . S
C1699 C1698 1.367 . S
C1699 C1707 1.433 . S
C1700 H1696 0.929 . S
C1700 C1702 1.378 . S
C1700 C1704 1.350 . S
C1701 C1704 1.463 . S
C1701 C1706 1.350 . S
C1701 N1709 1.427 . S
C1702 H1693 0.930 . S
C1702 C1700 1.378 . S
C1702 C1703 1.367 . S
C1703 C1702 1.367 . S
C1703 C1705 1.433 . S
C1704 C1700 1.350 . S
C1704 C1701 1.463 . S
C1704 N1708 1.427 . S
C1705 H1695 0.929 . S
C1705 C1703 1.433 . S
C1705 N1708 1.384 . S
C1706 H1697 0.929 . S
C1706 C1698 1.378 . S
C1706 C1701 1.350 . S
C1707 H1694 0.929 . S
C1707 C1699 1.433 . S
C1707 N1709 1.384 . S
N1708 C1704 1.427 . S
N1708 C1705 1.384 . S
N1709 C1701 1.427 . S
N1709 C1707 1.384 . S
H1710 C1716 0.930 . S
H1711 C1720 0.930 . S
H1712 C1725 0.929 . S
H1713 C1723 0.929 . S
H1714 C1718 0.929 . S
H1715 C1724 0.929 . S
C1716 H1710 0.930 . S
C1716 C1717 1.367 . S
C1716 C1724 1.378 . S
C1717 C1716 1.367 . S
C1717 C1725 1.433 . S
C1718 H1714 0.929 . S
C1718 C1720 1.378 . S
C1718 C1722 1.350 . S
C1719 C1722 1.463 . S
C1719 C1724 1.350 . S
C1719 N1727 1.427 . S
C1720 H1711 0.930 . S
C1720 C1718 1.378 . S
C1720 C1721 1.367 . S
C1721 C1720 1.367 . S
C1721 C1723 1.433 . S
C1722 C1718 1.350 . S
C1722 C1719 1.463 . S
C1722 N1726 1.427 . S
C1723 H1713 0.929 . S
C1723 C1721 1.433 . S
C1723 N1726 1.384 . S
C1724 H1715 0.929 . S
C1724 C1716 1.378 . S
C1724 C1719 1.350 . S
C1725 H1712 0.929 . S
C1725 C1717 1.433 . S
C1725 N1727 1.384 . S
N1726 C1722 1.427 . S
N1726 C1723 1.384 . S
N1727 C1719 1.427 . S
N1727 C1725 1.384 . S
H1728 C1734 0.930 . S
H1729 C1738 0.930 . S
H1730 C1743 0.929 . S
H1731 C1741 0.929 . S
H1732 C1736 0.929 . S
H1733 C1742 0.929 . S
C1734 H1728 0.930 . S
C1734 C1735 1.367 . S
C1734 C1742 1.378 . S
C1735 C1734 1.367 . S
C1735 C1743 1.433 . S
C1736 H1732 0.929 . S
C1736 C1738 1.378 . S
C1736 C1740 1.350 . S
C1737 C1740 1.463 . S
C1737 C1742 1.350 . S
C1737 N1745 1.427 . S
C1738 H1729 0.930 . S
C1738 C1736 1.378 . S
C1738 C1739 1.367 . S
C1739 C1738 1.367 . S
C1739 C1741 1.433 . S
C1740 C1736 1.350 . S
C1740 C1737 1.463 . S
C1740 N1744 1.427 . S
C1741 H1731 0.929 . S
C1741 C1739 1.433 . S
C1741 N1744 1.384 . S
C1742 H1733 0.929 . S
C1742 C1734 1.378 . S
C1742 C1737 1.350 . S
C1743 H1730 0.929 . S
C1743 C1735 1.433 . S
C1743 N1745 1.384 . S
N1744 C1740 1.427 . S
N1744 C1741 1.384 . S
N1745 C1737 1.427 . S
N1745 C1743 1.384 . S
H1746 C1752 0.930 . S
H1747 C1756 0.930 . S
H1748 C1761 0.929 . S
H1749 C1759 0.929 . S
H1750 C1754 0.929 . S
H1751 C1760 0.929 . S
C1752 H1746 0.930 . S
C1752 C1753 1.367 1_565 S
C1752 C1760 1.378 . S
C1753 C1752 1.367 1_545 S
C1753 C1761 1.433 . S
C1754 H1750 0.929 . S
C1754 C1756 1.378 . S
C1754 C1758 1.350 . S
C1755 C1758 1.463 . S
C1755 C1760 1.350 . S
C1755 N1763 1.427 . S
C1756 H1747 0.930 . S
C1756 C1754 1.378 . S
C1756 C1757 1.367 . S
C1757 C1756 1.367 . S
C1757 C1759 1.433 . S
C1758 C1754 1.350 . S
C1758 C1755 1.463 . S
C1758 N1762 1.427 . S
C1759 H1749 0.929 . S
C1759 C1757 1.433 . S
C1759 N1762 1.384 . S
C1760 H1751 0.929 . S
C1760 C1752 1.378 . S
C1760 C1755 1.350 . S
C1761 H1748 0.929 . S
C1761 C1753 1.433 . S
C1761 N1763 1.384 1_545 S
N1762 C1758 1.427 . S
N1762 C1759 1.384 . S
N1763 C1755 1.427 . S
N1763 C1761 1.384 1_565 S
H1764 C1770 0.930 . S
H1765 C1774 0.930 . S
H1766 C1779 0.929 . S
H1767 C1777 0.929 . S
H1768 C1772 0.929 . S
H1769 C1778 0.929 . S
C1770 H1764 0.930 . S
C1770 C1771 1.367 . S
C1770 C1778 1.378 . S
C1771 C1770 1.367 . S
C1771 C1779 1.433 . S
C1772 H1768 0.929 . S
C1772 C1774 1.378 . S
C1772 C1776 1.350 . S
C1773 C1776 1.463 . S
C1773 C1778 1.350 . S
C1773 N1781 1.427 . S
C1774 H1765 0.930 . S
C1774 C1772 1.378 . S
C1774 C1775 1.367 1_455 S
C1775 C1774 1.367 1_655 S
C1775 C1777 1.433 . S
C1776 C1772 1.350 . S
C1776 C1773 1.463 . S
C1776 N1780 1.427 . S
C1777 H1767 0.929 . S
C1777 C1775 1.433 . S
C1777 N1780 1.384 1_655 S
C1778 H1769 0.929 . S
C1778 C1770 1.378 . S
C1778 C1773 1.350 . S
C1779 H1766 0.929 . S
C1779 C1771 1.433 . S
C1779 N1781 1.384 . S
N1780 C1776 1.427 . S
N1780 C1777 1.384 1_455 S
N1781 C1773 1.427 . S
N1781 C1779 1.384 . S
H1782 C1788 0.930 . S
H1783 C1792 0.930 . S
H1784 C1797 0.929 . S
H1785 C1795 0.929 . S
H1786 C1790 0.929 . S
H1787 C1796 0.929 . S
C1788 H1782 0.930 . S
C1788 C1789 1.367 . S
C1788 C1796 1.378 . S
C1789 C1788 1.367 . S
C1789 C1797 1.433 . S
C1790 H1786 0.929 . S
C1790 C1792 1.378 . S
C1790 C1794 1.350 . S
C1791 C1794 1.463 . S
C1791 C1796 1.350 . S
C1791 N1799 1.427 . S
C1792 H1783 0.930 . S
C1792 C1790 1.378 . S
C1792 C1793 1.367 . S
C1793 C1792 1.367 . S
C1793 C1795 1.433 . S
C1794 C1790 1.350 . S
C1794 C1791 1.463 . S
C1794 N1798 1.427 . S
C1795 H1785 0.929 . S
C1795 C1793 1.433 . S
C1795 N1798 1.384 . S
C1796 H1787 0.929 . S
C1796 C1788 1.378 . S
C1796 C1791 1.350 . S
C1797 H1784 0.929 . S
C1797 C1789 1.433 . S
C1797 N1799 1.384 . S
N1798 C1794 1.427 . S
N1798 C1795 1.384 . S
N1799 C1791 1.427 . S
N1799 C1797 1.384 . S
H1800 C1806 0.930 . S
H1801 C1810 0.930 . S
H1802 C1815 0.929 . S
H1803 C1813 0.929 . S
H1804 C1808 0.929 . S
H1805 C1814 0.929 . S
C1806 H1800 0.930 . S
C1806 C1807 1.367 1_545 S
C1806 C1814 1.378 . S
C1807 C1806 1.367 1_565 S
C1807 C1815 1.433 . S
C1808 H1804 0.929 . S
C1808 C1810 1.378 . S
C1808 C1812 1.350 . S
C1809 C1812 1.463 . S
C1809 C1814 1.350 . S
C1809 N1817 1.427 . S
C1810 H1801 0.930 . S
C1810 C1808 1.378 . S
C1810 C1811 1.367 . S
C1811 C1810 1.367 . S
C1811 C1813 1.433 . S
C1812 C1808 1.350 . S
C1812 C1809 1.463 . S
C1812 N1816 1.427 . S
C1813 H1803 0.929 . S
C1813 C1811 1.433 . S
C1813 N1816 1.384 . S
C1814 H1805 0.929 . S
C1814 C1806 1.378 . S
C1814 C1809 1.350 . S
C1815 H1802 0.929 . S
C1815 C1807 1.433 . S
C1815 N1817 1.384 1_565 S
N1816 C1812 1.427 . S
N1816 C1813 1.384 . S
N1817 C1809 1.427 . S
N1817 C1815 1.384 1_545 S
H1818 C1824 0.930 . S
H1819 C1828 0.930 . S
H1820 C1833 0.929 . S
H1821 C1831 0.929 1_455 S
H1822 C1826 0.929 . S
H1823 C1832 0.929 . S
C1824 H1818 0.930 . S
C1824 C1825 1.367 . S
C1824 C1832 1.378 . S
C1825 C1824 1.367 . S
C1825 C1833 1.433 . S
C1826 H1822 0.929 . S
C1826 C1828 1.378 1_655 S
C1826 C1830 1.350 . S
C1827 C1830 1.463 . S
C1827 C1832 1.350 . S
C1827 N1835 1.427 . S
C1828 H1819 0.930 . S
C1828 C1826 1.378 1_455 S
C1828 C1829 1.367 . S
C1829 C1828 1.367 . S
C1829 C1831 1.433 1_455 S
C1830 C1826 1.350 . S
C1830 C1827 1.463 . S
C1830 N1834 1.427 . S
C1831 H1821 0.929 1_655 S
C1831 C1829 1.433 1_655 S
C1831 N1834 1.384 . S
C1832 H1823 0.929 . S
C1832 C1824 1.378 . S
C1832 C1827 1.350 . S
C1833 H1820 0.929 . S
C1833 C1825 1.433 . S
C1833 N1835 1.384 . S
N1834 C1830 1.427 . S
N1834 C1831 1.384 . S
N1835 C1827 1.427 . S
N1835 C1833 1.384 . S
H1836 C1842 0.930 . S
H1837 C1846 0.930 . S
H1838 C1851 0.929 . S
H1839 C1849 0.929 . S
H1840 C1844 0.929 . S
H1841 C1850 0.929 . S
C1842 H1836 0.930 . S
C1842 C1843 1.367 . S
C1842 C1850 1.378 . S
C1843 C1842 1.367 . S
C1843 C1851 1.433 . S
C1844 H1840 0.929 . S
C1844 C1846 1.378 . S
C1844 C1848 1.350 . S
C1845 C1848 1.463 . S
C1845 C1850 1.350 . S
C1845 N1853 1.427 . S
C1846 H1837 0.930 . S
C1846 C1844 1.378 . S
C1846 C1847 1.367 . S
C1847 C1846 1.367 . S
C1847 C1849 1.433 . S
C1848 C1844 1.350 . S
C1848 C1845 1.463 . S
C1848 N1852 1.427 . S
C1849 H1839 0.929 . S
C1849 C1847 1.433 . S
C1849 N1852 1.384 . S
C1850 H1841 0.929 . S
C1850 C1842 1.378 . S
C1850 C1845 1.350 . S
C1851 H1838 0.929 . S
C1851 C1843 1.433 . S
C1851 N1853 1.384 . S
N1852 C1848 1.427 . S
N1852 C1849 1.384 . S
N1853 C1845 1.427 . S
N1853 C1851 1.384 . S
H1854 C1860 0.930 . S
H1855 C1864 0.930 . S
H1856 C1869 0.929 . S
H1857 C1867 0.951 . S
H1858 C1862 0.929 . S
H1859 C1868 0.929 . S
C1860 H1854 0.930 . S
C1860 C1861 1.367 . S
C1860 C1868 1.378 . S
C1861 C1860 1.367 . S
C1861 C1869 1.433 . S
C1862 H1858 0.929 . S
C1862 C1864 1.378 1_545 S
C1862 C1866 1.350 . S
C1863 C1866 1.463 . S
C1863 C1868 1.350 . S
C1863 N1871 1.427 . S
C1864 H1855 0.930 . S
C1864 C1862 1.378 1_565 S
C1864 C1865 1.367 . S
C1865 C1864 1.367 . S
C1865 C1867 1.450 . S
C1866 C1862 1.350 . S
C1866 C1863 1.463 . S
C1866 N1870 1.427 . S
C1867 H1857 0.951 . S
C1867 C1865 1.450 . S
C1867 N1870 1.345 1_565 S
C1868 H1859 0.929 . S
C1868 C1860 1.378 . S
C1868 C1863 1.350 . S
C1869 H1856 0.929 . S
C1869 C1861 1.433 . S
C1869 N1871 1.384 . S
N1870 C1866 1.427 . S
N1870 C1867 1.345 1_545 S
N1871 C1863 1.427 . S
N1871 C1869 1.384 . S
H1872 C1878 0.930 . S
H1873 C1882 0.930 . S
H1874 C1887 0.929 . S
H1875 C1885 0.929 . S
H1876 C1880 0.929 . S
H1877 C1886 0.929 . S
C1878 H1872 0.930 . S
C1878 C1879 1.367 . S
C1878 C1886 1.378 . S
C1879 C1878 1.367 . S
C1879 C1887 1.433 . S
C1880 H1876 0.929 . S
C1880 C1882 1.378 . S
C1880 C1884 1.350 . S
C1881 C1884 1.463 . S
C1881 C1886 1.350 . S
C1881 N1889 1.427 . S
C1882 H1873 0.930 . S
C1882 C1880 1.378 . S
C1882 C1883 1.367 1_655 S
C1883 C1882 1.367 1_455 S
C1883 C1885 1.433 . S
C1884 C1880 1.350 . S
C1884 C1881 1.463 . S
C1884 N1888 1.427 . S
C1885 H1875 0.929 . S
C1885 C1883 1.433 . S
C1885 N1888 1.384 1_455 S
C1886 H1877 0.929 . S
C1886 C1878 1.378 . S
C1886 C1881 1.350 . S
C1887 H1874 0.929 . S
C1887 C1879 1.433 . S
C1887 N1889 1.384 . S
N1888 C1884 1.427 . S
N1888 C1885 1.384 1_655 S
N1889 C1881 1.427 . S
N1889 C1887 1.384 . S
H1890 C1896 0.930 . S
H1891 C1900 0.930 . S
H1892 C1905 0.929 . S
H1893 C1903 0.929 . S
H1894 C1898 0.929 . S
H1895 C1904 0.929 . S
C1896 H1890 0.930 . S
C1896 C1897 1.367 . S
C1896 C1904 1.378 . S
C1897 C1896 1.367 . S
C1897 C1905 1.433 . S
C1898 H1894 0.929 . S
C1898 C1900 1.378 . S
C1898 C1902 1.350 . S
C1899 C1902 1.463 . S
C1899 C1904 1.350 . S
C1899 N1907 1.427 . S
C1900 H1891 0.930 . S
C1900 C1898 1.378 . S
C1900 C1901 1.367 . S
C1901 C1900 1.367 . S
C1901 C1903 1.433 . S
C1902 C1898 1.350 . S
C1902 C1899 1.463 . S
C1902 N1906 1.427 . S
C1903 H1893 0.929 . S
C1903 C1901 1.433 . S
C1903 N1906 1.384 . S
C1904 H1895 0.929 . S
C1904 C1896 1.378 . S
C1904 C1899 1.350 . S
C1905 H1892 0.929 . S
C1905 C1897 1.433 . S
C1905 N1907 1.384 . S
N1906 C1902 1.427 . S
N1906 C1903 1.384 . S
N1907 C1899 1.427 . S
N1907 C1905 1.384 . S
H1908 C1914 0.930 . S
H1909 C1918 0.930 . S
H1910 C1923 0.929 1_545 S
H1911 C1921 0.929 . S
H1912 C1916 0.929 . S
H1913 C1922 0.929 . S
C1914 H1908 0.930 . S
C1914 C1915 1.367 . S
C1914 C1922 1.378 1_545 S
C1915 C1914 1.367 . S
C1915 C1923 1.433 1_545 S
C1916 H1912 0.929 . S
C1916 C1918 1.378 . S
C1916 C1920 1.350 . S
C1917 C1920 1.463 . S
C1917 C1922 1.350 . S
C1917 N1925 1.427 . S
C1918 H1909 0.930 . S
C1918 C1916 1.378 . S
C1918 C1919 1.367 . S
C1919 C1918 1.367 . S
C1919 C1921 1.433 . S
C1920 C1916 1.350 . S
C1920 C1917 1.463 . S
C1920 N1924 1.427 . S
C1921 H1911 0.929 . S
C1921 C1919 1.433 . S
C1921 N1924 1.384 . S
C1922 H1913 0.929 . S
C1922 C1914 1.378 1_565 S
C1922 C1917 1.350 . S
C1923 H1910 0.929 1_565 S
C1923 C1915 1.433 1_565 S
C1923 N1925 1.384 . S
N1924 C1920 1.427 . S
N1924 C1921 1.384 . S
N1925 C1917 1.427 . S
N1925 C1923 1.384 . S
H1926 C1932 0.930 . S
H1927 C1936 0.930 . S
H1928 C1941 0.929 . S
H1929 C1939 0.929 . S
H1930 C1934 0.929 . S
H1931 C1940 0.929 . S
C1932 H1926 0.930 . S
C1932 C1933 1.367 1_455 S
C1932 C1940 1.378 . S
C1933 C1932 1.367 1_655 S
C1933 C1941 1.433 . S
C1934 H1930 0.929 . S
C1934 C1936 1.378 . S
C1934 C1938 1.350 . S
C1935 C1938 1.463 . S
C1935 C1940 1.350 . S
C1935 N1943 1.427 . S
C1936 H1927 0.930 . S
C1936 C1934 1.378 . S
C1936 C1937 1.367 . S
C1937 C1936 1.367 . S
C1937 C1939 1.433 . S
C1938 C1934 1.350 . S
C1938 C1935 1.463 . S
C1938 N1942 1.427 . S
C1939 H1929 0.929 . S
C1939 C1937 1.433 . S
C1939 N1942 1.384 . S
C1940 H1931 0.929 . S
C1940 C1932 1.378 . S
C1940 C1935 1.350 . S
C1941 H1928 0.929 . S
C1941 C1933 1.433 . S
C1941 N1943 1.384 1_655 S
N1942 C1938 1.427 . S
N1942 C1939 1.384 . S
N1943 C1935 1.427 . S
N1943 C1941 1.384 1_455 S
H1944 C1950 0.930 . S
H1945 C1954 0.930 . S
H1946 C1959 0.929 . S
H1947 C1957 0.929 . S
H1948 C1952 0.929 . S
H1949 C1958 0.929 . S
C1950 H1944 0.930 . S
C1950 C1951 1.367 . S
C1950 C1958 1.378 . S
C1951 C1950 1.367 . S
C1951 C1959 1.433 . S
C1952 H1948 0.929 . S
C1952 C1954 1.378 . S
C1952 C1956 1.350 . S
C1953 C1956 1.463 1_655 S
C1953 C1958 1.350 . S
C1953 N1961 1.427 . S
C1954 H1945 0.930 . S
C1954 C1952 1.378 . S
C1954 C1955 1.367 . S
C1955 C1954 1.367 . S
C1955 C1957 1.433 . S
C1956 C1952 1.350 . S
C1956 C1953 1.463 1_455 S
C1956 N1960 1.427 . S
C1957 H1947 0.929 . S
C1957 C1955 1.433 . S
C1957 N1960 1.384 . S
C1958 H1949 0.929 . S
C1958 C1950 1.378 . S
C1958 C1953 1.350 . S
C1959 H1946 0.929 . S
C1959 C1951 1.433 . S
C1959 N1961 1.384 . S
N1960 C1956 1.427 . S
N1960 C1957 1.384 . S
N1961 C1953 1.427 . S
N1961 C1959 1.384 . S
H1962 C1968 0.930 . S
H1963 C1972 0.930 . S
H1964 C1977 0.929 . S
H1965 C1975 0.929 . S
H1966 C1970 0.929 . S
H1967 C1976 0.929 . S
C1968 H1962 0.930 . S
C1968 C1969 1.367 . S
C1968 C1976 1.378 . S
C1969 C1968 1.367 . S
C1969 C1977 1.433 . S
C1970 H1966 0.929 . S
C1970 C1972 1.378 . S
C1970 C1974 1.350 . S
C1971 C1974 1.463 . S
C1971 C1976 1.350 . S
C1971 N1979 1.427 . S
C1972 H1963 0.930 . S
C1972 C1970 1.378 . S
C1972 C1973 1.367 . S
C1973 C1972 1.367 . S
C1973 C1975 1.433 . S
C1974 C1970 1.350 . S
C1974 C1971 1.463 . S
C1974 N1978 1.427 . S
C1975 H1965 0.929 . S
C1975 C1973 1.433 . S
C1975 N1978 1.384 . S
C1976 H1967 0.929 . S
C1976 C1968 1.378 . S
C1976 C1971 1.350 . S
C1977 H1964 0.929 . S
C1977 C1969 1.433 . S
C1977 N1979 1.384 . S
N1978 C1974 1.427 . S
N1978 C1975 1.384 . S
N1979 C1971 1.427 . S
N1979 C1977 1.384 . S
H1980 C1986 0.930 . S
H1981 C1990 0.930 . S
H1982 C1995 0.929 . S
H1983 C1993 0.929 . S
H1984 C1988 0.929 . S
H1985 C1994 0.929 . S
C1986 H1980 0.930 . S
C1986 C1987 1.367 . S
C1986 C1994 1.378 . S
C1987 C1986 1.367 . S
C1987 C1995 1.433 . S
C1988 H1984 0.929 . S
C1988 C1990 1.378 . S
C1988 C1992 1.350 . S
C1989 C1992 1.463 1_565 S
C1989 C1994 1.350 . S
C1989 N1997 1.427 . S
C1990 H1981 0.930 . S
C1990 C1988 1.378 . S
C1990 C1991 1.367 . S
C1991 C1990 1.367 . S
C1991 C1993 1.433 . S
C1992 C1988 1.350 . S
C1992 C1989 1.463 1_545 S
C1992 N1996 1.427 . S
C1993 H1983 0.929 . S
C1993 C1991 1.433 . S
C1993 N1996 1.384 . S
C1994 H1985 0.929 . S
C1994 C1986 1.378 . S
C1994 C1989 1.350 . S
C1995 H1982 0.929 . S
C1995 C1987 1.433 . S
C1995 N1997 1.384 . S
N1996 C1992 1.427 . S
N1996 C1993 1.384 . S
N1997 C1989 1.427 . S
N1997 C1995 1.384 . S
H1998 C2004 0.930 . S
H1999 C2008 0.930 . S
H2000 C2013 0.929 . S
H2001 C2011 0.929 . S
H2002 C2006 0.929 . S
H2003 C2012 0.929 . S
C2004 H1998 0.930 . S
C2004 C2005 1.367 . S
C2004 C2012 1.378 . S
C2005 C2004 1.367 . S
C2005 C2013 1.433 . S
C2006 H2002 0.929 . S
C2006 C2008 1.378 . S
C2006 C2010 1.350 . S
C2007 C2010 1.463 . S
C2007 C2012 1.350 . S
C2007 N2015 1.427 . S
C2008 H1999 0.930 . S
C2008 C2006 1.378 . S
C2008 C2009 1.367 . S
C2009 C2008 1.367 . S
C2009 C2011 1.433 . S
C2010 C2006 1.350 . S
C2010 C2007 1.463 . S
C2010 N2014 1.427 . S
C2011 H2001 0.929 . S
C2011 C2009 1.433 . S
C2011 N2014 1.384 . S
C2012 H2003 0.929 . S
C2012 C2004 1.378 . S
C2012 C2007 1.350 . S
C2013 H2000 0.929 . S
C2013 C2005 1.433 . S
C2013 N2015 1.384 . S
N2014 C2010 1.427 . S
N2014 C2011 1.384 . S
N2015 C2007 1.427 . S
N2015 C2013 1.384 . S
H2016 C2022 0.930 . S
H2017 C2026 0.930 . S
H2018 C2031 0.929 . S
H2019 C2029 0.929 . S
H2020 C2024 0.929 . S
H2021 C2030 0.929 . S
C2022 H2016 0.930 . S
C2022 C2023 1.367 . S
C2022 C2030 1.378 . S
C2023 C2022 1.367 . S
C2023 C2031 1.433 . S
C2024 H2020 0.929 . S
C2024 C2026 1.378 . S
C2024 C2028 1.350 . S
C2025 C2028 1.463 . S
C2025 C2030 1.350 . S
C2025 N2033 1.427 . S
C2026 H2017 0.930 . S
C2026 C2024 1.378 . S
C2026 C2027 1.367 . S
C2027 C2026 1.367 . S
C2027 C2029 1.433 . S
C2028 C2024 1.350 . S
C2028 C2025 1.463 . S
C2028 N2032 1.427 . S
C2029 H2019 0.929 . S
C2029 C2027 1.433 . S
C2029 N2032 1.384 . S
C2030 H2021 0.929 . S
C2030 C2022 1.378 . S
C2030 C2025 1.350 . S
C2031 H2018 0.929 . S
C2031 C2023 1.433 . S
C2031 N2033 1.384 . S
N2032 C2028 1.427 . S
N2032 C2029 1.384 . S
N2033 C2025 1.427 . S
N2033 C2031 1.384 . S
H2034 C2040 0.930 . S
H2035 C2044 0.930 . S
H2036 C2049 0.929 . S
H2037 C2047 0.929 1_545 S
H2038 C2042 0.929 . S
H2039 C2048 0.929 . S
C2040 H2034 0.930 . S
C2040 C2041 1.367 . S
C2040 C2048 1.378 . S
C2041 C2040 1.367 . S
C2041 C2049 1.433 . S
C2042 H2038 0.929 . S
C2042 C2044 1.378 . S
C2042 C2046 1.350 . S
C2043 C2046 1.463 . S
C2043 C2048 1.350 . S
C2043 N2051 1.427 . S
C2044 H2035 0.930 . S
C2044 C2042 1.378 . S
C2044 C2045 1.367 . S
C2045 C2044 1.367 . S
C2045 C2047 1.433 . S
C2046 C2042 1.350 . S
C2046 C2043 1.463 . S
C2046 N2050 1.427 . S
C2047 H2037 0.929 1_565 S
C2047 C2045 1.433 . S
C2047 N2050 1.384 . S
C2048 H2039 0.929 . S
C2048 C2040 1.378 . S
C2048 C2043 1.350 . S
C2049 H2036 0.929 . S
C2049 C2041 1.433 . S
C2049 N2051 1.384 . S
N2050 C2046 1.427 . S
N2050 C2047 1.384 . S
N2051 C2043 1.427 . S
N2051 C2049 1.384 . S
H2052 C2058 0.930 . S
H2053 C2062 0.930 . S
H2054 C2067 0.929 . S
H2055 C2065 0.929 1_545 S
H2056 C2060 0.929 . S
H2057 C2066 0.929 . S
C2058 H2052 0.930 . S
C2058 C2059 1.367 . S
C2058 C2066 1.378 . S
C2059 C2058 1.367 . S
C2059 C2067 1.433 . S
C2060 H2056 0.929 . S
C2060 C2062 1.378 . S
C2060 C2064 1.350 . S
C2061 C2064 1.463 . S
C2061 C2066 1.350 . S
C2061 N2069 1.427 . S
C2062 H2053 0.930 . S
C2062 C2060 1.378 . S
C2062 C2063 1.367 . S
C2063 C2062 1.367 . S
C2063 C2065 1.433 . S
C2064 C2060 1.350 . S
C2064 C2061 1.463 . S
C2064 N2068 1.427 . S
C2065 H2055 0.929 1_565 S
C2065 C2063 1.433 . S
C2065 N2068 1.384 . S
C2066 H2057 0.929 . S
C2066 C2058 1.378 . S
C2066 C2061 1.350 . S
C2067 H2054 0.929 . S
C2067 C2059 1.433 . S
C2067 N2069 1.384 . S
N2068 C2064 1.427 . S
N2068 C2065 1.384 . S
N2069 C2061 1.427 . S
N2069 C2067 1.384 . S
H2070 C2076 0.930 . S
H2071 C2080 0.930 . S
H2072 C2085 0.929 . S
H2073 C2083 0.929 . S
H2074 C2078 0.929 . S
H2075 C2084 0.929 . S
C2076 H2070 0.930 . S
C2076 C2077 1.367 . S
C2076 C2084 1.378 . S
C2077 C2076 1.367 . S
C2077 C2085 1.433 . S
C2078 H2074 0.929 . S
C2078 C2080 1.378 . S
C2078 C2082 1.350 . S
C2079 C2082 1.463 . S
C2079 C2084 1.350 . S
C2079 N2087 1.427 . S
C2080 H2071 0.930 . S
C2080 C2078 1.378 . S
C2080 C2081 1.367 . S
C2081 C2080 1.367 . S
C2081 C2083 1.433 . S
C2082 C2078 1.350 . S
C2082 C2079 1.463 . S
C2082 N2086 1.427 . S
C2083 H2073 0.929 . S
C2083 C2081 1.433 . S
C2083 N2086 1.384 . S
C2084 H2075 0.929 . S
C2084 C2076 1.378 . S
C2084 C2079 1.350 . S
C2085 H2072 0.929 . S
C2085 C2077 1.433 . S
C2085 N2087 1.384 . S
N2086 C2082 1.427 . S
N2086 C2083 1.384 . S
N2087 C2079 1.427 . S
N2087 C2085 1.384 . S
H2088 C2094 0.930 . S
H2089 C2098 0.930 . S
H2090 C2103 0.929 . S
H2091 C2101 0.929 . S
H2092 C2096 0.929 . S
H2093 C2102 0.929 . S
C2094 H2088 0.930 . S
C2094 C2095 1.367 . S
C2094 C2102 1.378 . S
C2095 C2094 1.367 . S
C2095 C2103 1.433 . S
C2096 H2092 0.929 . S
C2096 C2098 1.378 . S
C2096 C2100 1.350 . S
C2097 C2100 1.463 . S
C2097 C2102 1.350 . S
C2097 N2105 1.427 . S
C2098 H2089 0.930 . S
C2098 C2096 1.378 . S
C2098 C2099 1.367 . S
C2099 C2098 1.367 . S
C2099 C2101 1.433 . S
C2100 C2096 1.350 . S
C2100 C2097 1.463 . S
C2100 N2104 1.427 . S
C2101 H2091 0.929 . S
C2101 C2099 1.433 . S
C2101 N2104 1.384 . S
C2102 H2093 0.929 . S
C2102 C2094 1.378 . S
C2102 C2097 1.350 . S
C2103 H2090 0.929 . S
C2103 C2095 1.433 . S
C2103 N2105 1.384 . S
N2104 C2100 1.427 . S
N2104 C2101 1.384 . S
N2105 C2097 1.427 . S
N2105 C2103 1.384 . S
H2106 C2112 0.930 . S
H2107 C2116 0.930 . S
H2108 C2121 0.929 . S
H2109 C2119 0.929 . S
H2110 C2114 0.929 . S
H2111 C2120 0.929 . S
C2112 H2106 0.930 . S
C2112 C2113 1.331 1_556 S
C2112 C2120 1.378 . S
C2113 C2112 1.331 1_554 S
C2113 C2121 1.475 . S
C2114 H2110 0.929 . S
C2114 C2116 1.378 . S
C2114 C2118 1.350 . S
C2115 C2118 1.463 1_565 S
C2115 C2120 1.350 1_554 S
C2115 N2123 1.427 . S
C2116 H2107 0.930 . S
C2116 C2114 1.378 . S
C2116 C2117 1.367 . S
C2117 C2116 1.367 . S
C2117 C2119 1.433 1_554 S
C2118 C2114 1.350 . S
C2118 C2115 1.463 1_545 S
C2118 N2122 1.427 1_554 S
C2119 H2109 0.929 . S
C2119 C2117 1.433 1_556 S
C2119 N2122 1.384 . S
C2120 H2111 0.929 . S
C2120 C2112 1.378 . S
C2120 C2115 1.350 1_556 S
C2121 H2108 0.929 . S
C2121 C2113 1.475 . S
C2121 N2123 1.384 . S
N2122 C2118 1.427 1_556 S
N2122 C2119 1.384 . S
N2123 C2115 1.427 . S
N2123 C2121 1.384 . S
H2124 C2130 0.930 . S
H2125 C2134 0.929 . S
H2126 C2139 0.929 . S
H2127 C2137 0.929 . S
H2128 C2132 0.944 1_556 S
H2129 C2138 0.929 . S
C2130 H2124 0.930 . S
C2130 C2131 1.367 . S
C2130 C2138 1.378 . S
C2131 C2130 1.367 . S
C2131 C2139 1.433 1_554 S
C2132 H2128 0.944 1_554 S
C2132 C2134 1.378 . S
C2132 C2136 1.350 . S
C2133 C2136 1.463 1_455 S
C2133 C2138 1.350 . S
C2133 N2141 1.427 1_554 S
C2134 H2125 0.929 . S
C2134 C2132 1.378 . S
C2134 C2135 1.367 . S
C2135 C2134 1.367 . S
C2135 C2137 1.433 . S
C2136 C2132 1.350 . S
C2136 C2133 1.463 1_655 S
C2136 N2140 1.427 . S
C2137 H2127 0.929 . S
C2137 C2135 1.433 . S
C2137 N2140 1.384 . S
C2138 H2129 0.929 . S
C2138 C2130 1.378 . S
C2138 C2133 1.350 . S
C2139 H2126 0.929 . S
C2139 C2131 1.433 1_556 S
C2139 N2141 1.384 . S
N2140 C2136 1.427 . S
N2140 C2137 1.384 . S
N2141 C2133 1.427 1_556 S
N2141 C2139 1.384 . S
H2142 C2148 0.930 . S
H2143 C2152 0.930 . S
H2144 C2157 0.950 . S
H2145 C2155 0.929 . S
H2146 C2150 0.929 . S
H2147 C2156 0.929 . S
C2148 H2142 0.930 . S
C2148 C2149 1.367 . S
C2148 C2156 1.378 . S
C2149 C2148 1.367 . S
C2149 C2157 1.409 1_554 S
C2150 H2146 0.929 . S
C2150 C2152 1.378 . S
C2150 C2154 1.350 1_556 S
C2151 C2154 1.463 . S
C2151 C2156 1.350 . S
C2151 N2159 1.427 1_554 S
C2152 H2143 0.930 . S
C2152 C2150 1.378 . S
C2152 C2153 1.340 1_556 S
C2153 C2152 1.340 1_554 S
C2153 C2155 1.467 . S
C2154 C2150 1.350 1_554 S
C2154 C2151 1.463 . S
C2154 N2158 1.427 . S
C2155 H2145 0.929 . S
C2155 C2153 1.467 . S
C2155 N2158 1.384 . S
C2156 H2147 0.929 . S
C2156 C2148 1.378 . S
C2156 C2151 1.350 . S
C2157 H2144 0.950 . S
C2157 C2149 1.409 1_556 S
C2157 N2159 1.388 . S
N2158 C2154 1.427 . S
N2158 C2155 1.384 . S
N2159 C2151 1.427 1_556 S
N2159 C2157 1.388 . S
H2160 C2166 0.930 . S
H2161 C2170 0.930 . S
H2162 C2175 0.929 . S
H2163 C2173 0.929 . S
H2164 C2168 0.929 . S
H2165 C2174 0.929 . S
C2166 H2160 0.930 . S
C2166 C2167 1.367 . S
C2166 C2174 1.378 . S
C2167 C2166 1.367 . S
C2167 C2175 1.433 . S
C2168 H2164 0.929 . S
C2168 C2170 1.378 . S
C2168 C2172 1.350 . S
C2169 C2172 1.463 . S
C2169 C2174 1.350 . S
C2169 N2177 1.427 . S
C2170 H2161 0.930 . S
C2170 C2168 1.378 . S
C2170 C2171 1.367 . S
C2171 C2170 1.367 . S
C2171 C2173 1.433 . S
C2172 C2168 1.350 . S
C2172 C2169 1.463 . S
C2172 N2176 1.427 . S
C2173 H2163 0.929 . S
C2173 C2171 1.433 . S
C2173 N2176 1.384 . S
C2174 H2165 0.929 . S
C2174 C2166 1.378 . S
C2174 C2169 1.350 . S
C2175 H2162 0.929 . S
C2175 C2167 1.433 . S
C2175 N2177 1.384 . S
N2176 C2172 1.427 . S
N2176 C2173 1.384 . S
N2177 C2169 1.427 . S
N2177 C2175 1.384 . S
H2178 C2184 0.930 . S
H2179 C2188 0.930 . S
H2180 C2193 0.929 . S
H2181 C2191 0.929 . S
H2182 C2186 0.929 . S
H2183 C2192 0.929 . S
C2184 H2178 0.930 . S
C2184 C2185 1.367 . S
C2184 C2192 1.378 . S
C2185 C2184 1.367 . S
C2185 C2193 1.433 . S
C2186 H2182 0.929 . S
C2186 C2188 1.378 . S
C2186 C2190 1.350 . S
C2187 C2190 1.463 . S
C2187 C2192 1.350 . S
C2187 N2195 1.427 . S
C2188 H2179 0.930 . S
C2188 C2186 1.378 . S
C2188 C2189 1.367 . S
C2189 C2188 1.367 . S
C2189 C2191 1.433 . S
C2190 C2186 1.350 . S
C2190 C2187 1.463 . S
C2190 N2194 1.427 . S
C2191 H2181 0.929 . S
C2191 C2189 1.433 . S
C2191 N2194 1.384 . S
C2192 H2183 0.929 . S
C2192 C2184 1.378 . S
C2192 C2187 1.350 . S
C2193 H2180 0.929 . S
C2193 C2185 1.433 . S
C2193 N2195 1.384 . S
N2194 C2190 1.427 . S
N2194 C2191 1.384 . S
N2195 C2187 1.427 . S
N2195 C2193 1.384 . S
H2196 C2202 0.930 . S
H2197 C2206 0.930 . S
H2198 C2211 0.929 . S
H2199 C2209 0.929 . S
H2200 C2204 0.929 . S
H2201 C2210 0.929 . S
C2202 H2196 0.930 . S
C2202 C2203 1.367 . S
C2202 C2210 1.378 . S
C2203 C2202 1.367 . S
C2203 C2211 1.433 . S
C2204 H2200 0.929 . S
C2204 C2206 1.378 . S
C2204 C2208 1.350 . S
C2205 C2208 1.463 . S
C2205 C2210 1.350 . S
C2205 N2213 1.427 . S
C2206 H2197 0.930 . S
C2206 C2204 1.378 . S
C2206 C2207 1.367 . S
C2207 C2206 1.367 . S
C2207 C2209 1.433 . S
C2208 C2204 1.350 . S
C2208 C2205 1.463 . S
C2208 N2212 1.427 . S
C2209 H2199 0.929 . S
C2209 C2207 1.433 . S
C2209 N2212 1.384 . S
C2210 H2201 0.929 . S
C2210 C2202 1.378 . S
C2210 C2205 1.350 . S
C2211 H2198 0.929 . S
C2211 C2203 1.433 . S
C2211 N2213 1.384 . S
N2212 C2208 1.427 . S
N2212 C2209 1.384 . S
N2213 C2205 1.427 . S
N2213 C2211 1.384 . S
H2214 C2220 0.930 . S
H2215 C2224 0.930 . S
H2216 C2229 0.929 . S
H2217 C2227 0.929 . S
H2218 C2222 0.929 . S
H2219 C2228 0.929 . S
C2220 H2214 0.930 . S
C2220 C2221 1.367 1_554 S
C2220 C2228 1.378 . S
C2221 C2220 1.367 1_556 S
C2221 C2229 1.433 . S
C2222 H2218 0.929 . S
C2222 C2224 1.378 . S
C2222 C2226 1.350 . S
C2223 C2226 1.463 1_565 S
C2223 C2228 1.350 1_556 S
C2223 N2231 1.427 . S
C2224 H2215 0.930 . S
C2224 C2222 1.378 . S
C2224 C2225 1.367 . S
C2225 C2224 1.367 . S
C2225 C2227 1.433 1_556 S
C2226 C2222 1.350 . S
C2226 C2223 1.463 1_545 S
C2226 N2230 1.427 1_556 S
C2227 H2217 0.929 . S
C2227 C2225 1.433 1_554 S
C2227 N2230 1.384 . S
C2228 H2219 0.929 . S
C2228 C2220 1.378 . S
C2228 C2223 1.350 1_554 S
C2229 H2216 0.929 . S
C2229 C2221 1.433 . S
C2229 N2231 1.384 . S
N2230 C2226 1.427 1_554 S
N2230 C2227 1.384 . S
N2231 C2223 1.427 . S
N2231 C2229 1.384 . S
H2232 C2238 0.930 . S
H2233 C2242 0.930 . S
H2234 C2247 0.929 . S
H2235 C2245 0.929 . S
H2236 C2240 0.929 . S
H2237 C2246 0.929 . S
C2238 H2232 0.930 . S
C2238 C2239 1.331 1_554 S
C2238 C2246 1.378 . S
C2239 C2238 1.331 1_556 S
C2239 C2247 1.475 . S
C2240 H2236 0.929 . S
C2240 C2242 1.378 . S
C2240 C2244 1.350 . S
C2241 C2244 1.463 1_655 S
C2241 C2246 1.350 1_556 S
C2241 N2249 1.427 . S
C2242 H2233 0.930 . S
C2242 C2240 1.378 . S
C2242 C2243 1.367 . S
C2243 C2242 1.367 . S
C2243 C2245 1.433 1_556 S
C2244 C2240 1.350 . S
C2244 C2241 1.463 1_455 S
C2244 N2248 1.427 1_556 S
C2245 H2235 0.929 . S
C2245 C2243 1.433 1_554 S
C2245 N2248 1.384 . S
C2246 H2237 0.929 . S
C2246 C2238 1.378 . S
C2246 C2241 1.350 1_554 S
C2247 H2234 0.929 . S
C2247 C2239 1.475 . S
C2247 N2249 1.384 . S
N2248 C2244 1.427 1_554 S
N2248 C2245 1.384 . S
N2249 C2241 1.427 . S
N2249 C2247 1.384 . S
H2250 C2256 0.930 . S
H2251 C2260 0.930 . S
H2252 C2265 0.929 . S
H2253 C2263 0.929 . S
H2254 C2258 0.929 . S
H2255 C2264 0.929 . S
C2256 H2250 0.930 . S
C2256 C2257 1.367 1_554 S
C2256 C2264 1.378 . S
C2257 C2256 1.367 1_556 S
C2257 C2265 1.433 . S
C2258 H2254 0.929 . S
C2258 C2260 1.378 . S
C2258 C2262 1.350 . S
C2259 C2262 1.463 . S
C2259 C2264 1.350 1_556 S
C2259 N2267 1.427 . S
C2260 H2251 0.930 . S
C2260 C2258 1.378 . S
C2260 C2261 1.367 . S
C2261 C2260 1.367 . S
C2261 C2263 1.433 1_556 S
C2262 C2258 1.350 . S
C2262 C2259 1.463 . S
C2262 N2266 1.427 1_556 S
C2263 H2253 0.929 . S
C2263 C2261 1.433 1_554 S
C2263 N2266 1.384 . S
C2264 H2255 0.929 . S
C2264 C2256 1.378 . S
C2264 C2259 1.350 1_554 S
C2265 H2252 0.929 . S
C2265 C2257 1.433 . S
C2265 N2267 1.384 . S
N2266 C2262 1.427 1_554 S
N2266 C2263 1.384 . S
N2267 C2259 1.427 . S
N2267 C2265 1.384 . S
H2268 C2274 0.930 . S
H2269 C2278 0.930 . S
H2270 C2283 0.929 . S
H2271 C2281 0.929 . S
H2272 C2276 0.929 . S
H2273 C2282 0.929 . S
C2274 H2268 0.930 . S
C2274 C2275 1.367 . S
C2274 C2282 1.378 . S
C2275 C2274 1.367 . S
C2275 C2283 1.433 . S
C2276 H2272 0.929 . S
C2276 C2278 1.378 . S
C2276 C2280 1.350 . S
C2277 C2280 1.463 1_455 S
C2277 C2282 1.350 . S
C2277 N2285 1.427 . S
C2278 H2269 0.930 . S
C2278 C2276 1.378 . S
C2278 C2279 1.367 . S
C2279 C2278 1.367 . S
C2279 C2281 1.433 . S
C2280 C2276 1.350 . S
C2280 C2277 1.463 1_655 S
C2280 N2284 1.427 . S
C2281 H2271 0.929 . S
C2281 C2279 1.433 . S
C2281 N2284 1.384 . S
C2282 H2273 0.929 . S
C2282 C2274 1.378 . S
C2282 C2277 1.350 . S
C2283 H2270 0.929 . S
C2283 C2275 1.433 . S
C2283 N2285 1.384 . S
N2284 C2280 1.427 . S
N2284 C2281 1.384 . S
N2285 C2277 1.427 . S
N2285 C2283 1.384 . S
H2286 C2292 0.930 . S
H2287 C2296 0.930 . S
H2288 C2301 0.929 . S
H2289 C2299 0.929 . S
H2290 C2294 0.929 . S
H2291 C2300 0.929 . S
C2292 H2286 0.930 . S
C2292 C2293 1.367 . S
C2292 C2300 1.378 . S
C2293 C2292 1.367 . S
C2293 C2301 1.433 . S
C2294 H2290 0.929 . S
C2294 C2296 1.378 . S
C2294 C2298 1.350 . S
C2295 C2298 1.463 . S
C2295 C2300 1.350 . S
C2295 N2303 1.427 . S
C2296 H2287 0.930 . S
C2296 C2294 1.378 . S
C2296 C2297 1.367 . S
C2297 C2296 1.367 . S
C2297 C2299 1.433 . S
C2298 C2294 1.350 . S
C2298 C2295 1.463 . S
C2298 N2302 1.427 . S
C2299 H2289 0.929 . S
C2299 C2297 1.433 . S
C2299 N2302 1.384 . S
C2300 H2291 0.929 . S
C2300 C2292 1.378 . S
C2300 C2295 1.350 . S
C2301 H2288 0.929 . S
C2301 C2293 1.433 . S
C2301 N2303 1.384 . S
N2302 C2298 1.427 . S
N2302 C2299 1.384 . S
N2303 C2295 1.427 . S
N2303 C2301 1.384 . S
H2304 C2310 0.930 . S
H2305 C2314 0.930 . S
H2306 C2319 0.929 . S
H2307 C2317 0.929 . S
H2308 C2312 0.929 . S
H2309 C2318 0.933 . S
C2310 H2304 0.930 . S
C2310 C2311 1.367 . S
C2310 C2318 1.378 . S
C2311 C2310 1.367 . S
C2311 C2319 1.433 . S
C2312 H2308 0.929 . S
C2312 C2314 1.378 . S
C2312 C2316 1.350 . S
C2313 C2316 1.463 1_565 S
C2313 C2318 1.350 . S
C2313 N2321 1.427 . S
C2314 H2305 0.930 . S
C2314 C2312 1.378 . S
C2314 C2315 1.367 . S
C2315 C2314 1.367 . S
C2315 C2317 1.433 . S
C2316 C2312 1.350 . S
C2316 C2313 1.463 1_545 S
C2316 N2320 1.427 . S
C2317 H2307 0.929 . S
C2317 C2315 1.433 . S
C2317 N2320 1.384 . S
C2318 H2309 0.933 . S
C2318 C2310 1.378 . S
C2318 C2313 1.350 . S
C2319 H2306 0.929 . S
C2319 C2311 1.433 . S
C2319 N2321 1.384 . S
N2320 C2316 1.427 . S
N2320 C2317 1.384 . S
N2321 C2313 1.427 . S
N2321 C2319 1.384 . S
H2322 C2328 0.930 . S
H2323 C2332 0.930 . S
H2324 C2337 0.929 . S
H2325 C2335 0.929 . S
H2326 C2330 0.929 . S
H2327 C2336 0.929 . S
C2328 H2322 0.930 . S
C2328 C2329 1.367 . S
C2328 C2336 1.378 . S
C2329 C2328 1.367 . S
C2329 C2337 1.433 . S
C2330 H2326 0.929 . S
C2330 C2332 1.378 . S
C2330 C2334 1.350 . S
C2331 C2334 1.463 . S
C2331 C2336 1.350 . S
C2331 N2339 1.427 . S
C2332 H2323 0.930 . S
C2332 C2330 1.378 . S
C2332 C2333 1.367 . S
C2333 C2332 1.367 . S
C2333 C2335 1.433 . S
C2334 C2330 1.350 . S
C2334 C2331 1.463 . S
C2334 N2338 1.427 . S
C2335 H2325 0.929 . S
C2335 C2333 1.433 . S
C2335 N2338 1.384 . S
C2336 H2327 0.929 . S
C2336 C2328 1.378 . S
C2336 C2331 1.350 . S
C2337 H2324 0.929 . S
C2337 C2329 1.433 . S
C2337 N2339 1.384 . S
N2338 C2334 1.427 . S
N2338 C2335 1.384 . S
N2339 C2331 1.427 . S
N2339 C2337 1.384 . S
H2340 C2346 0.930 . S
H2341 C2350 0.930 . S
H2342 C2355 0.929 . S
H2343 C2353 0.929 . S
H2344 C2348 0.929 . S
H2345 C2354 0.929 . S
C2346 H2340 0.930 . S
C2346 C2347 1.367 . S
C2346 C2354 1.378 . S
C2347 C2346 1.367 . S
C2347 C2355 1.433 . S
C2348 H2344 0.929 . S
C2348 C2350 1.378 . S
C2348 C2352 1.350 . S
C2349 C2352 1.463 . S
C2349 C2354 1.350 . S
C2349 N2357 1.427 . S
C2350 H2341 0.930 . S
C2350 C2348 1.378 . S
C2350 C2351 1.367 . S
C2351 C2350 1.367 . S
C2351 C2353 1.433 . S
C2352 C2348 1.350 . S
C2352 C2349 1.463 . S
C2352 N2356 1.427 . S
C2353 H2343 0.929 . S
C2353 C2351 1.433 . S
C2353 N2356 1.384 . S
C2354 H2345 0.929 . S
C2354 C2346 1.378 . S
C2354 C2349 1.350 . S
C2355 H2342 0.929 . S
C2355 C2347 1.433 . S
C2355 N2357 1.384 . S
N2356 C2352 1.427 . S
N2356 C2353 1.384 . S
N2357 C2349 1.427 . S
N2357 C2355 1.384 . S
H2358 C2364 0.930 . S
H2359 C2368 0.930 . S
H2360 C2373 0.929 . S
H2361 C2371 0.929 . S
H2362 C2366 0.929 . S
H2363 C2372 0.929 . S
C2364 H2358 0.930 . S
C2364 C2365 1.367 . S
C2364 C2372 1.378 . S
C2365 C2364 1.367 . S
C2365 C2373 1.433 . S
C2366 H2362 0.929 . S
C2366 C2368 1.378 . S
C2366 C2370 1.350 . S
C2367 C2370 1.463 . S
C2367 C2372 1.350 . S
C2367 N2375 1.427 . S
C2368 H2359 0.930 . S
C2368 C2366 1.378 . S
C2368 C2369 1.367 . S
C2369 C2368 1.367 . S
C2369 C2371 1.433 . S
C2370 C2366 1.350 . S
C2370 C2367 1.463 . S
C2370 N2374 1.427 . S
C2371 H2361 0.929 . S
C2371 C2369 1.433 . S
C2371 N2374 1.384 . S
C2372 H2363 0.929 . S
C2372 C2364 1.378 . S
C2372 C2367 1.350 . S
C2373 H2360 0.929 . S
C2373 C2365 1.433 . S
C2373 N2375 1.384 . S
N2374 C2370 1.427 . S
N2374 C2371 1.384 . S
N2375 C2367 1.427 . S
N2375 C2373 1.384 . S
H2376 C2382 0.930 . S
H2377 C2386 0.930 . S
H2378 C2391 0.929 . S
H2379 C2389 0.929 . S
H2380 C2384 0.929 . S
H2381 C2390 0.929 . S
C2382 H2376 0.930 . S
C2382 C2383 1.367 . S
C2382 C2390 1.378 . S
C2383 C2382 1.367 . S
C2383 C2391 1.433 . S
C2384 H2380 0.929 . S
C2384 C2386 1.378 . S
C2384 C2388 1.350 . S
C2385 C2388 1.463 . S
C2385 C2390 1.350 . S
C2385 N2393 1.427 . S
C2386 H2377 0.930 . S
C2386 C2384 1.378 . S
C2386 C2387 1.367 . S
C2387 C2386 1.367 . S
C2387 C2389 1.433 . S
C2388 C2384 1.350 . S
C2388 C2385 1.463 . S
C2388 N2392 1.427 . S
C2389 H2379 0.929 . S
C2389 C2387 1.433 . S
C2389 N2392 1.384 . S
C2390 H2381 0.929 . S
C2390 C2382 1.378 . S
C2390 C2385 1.350 . S
C2391 H2378 0.929 . S
C2391 C2383 1.433 . S
C2391 N2393 1.384 . S
N2392 C2388 1.427 . S
N2392 C2389 1.384 . S
N2393 C2385 1.427 . S
N2393 C2391 1.384 . S
H2394 C2400 0.930 . S
H2395 C2404 0.930 . S
H2396 C2409 0.929 . S
H2397 C2407 0.929 . S
H2398 C2402 0.929 . S
H2399 C2408 0.929 . S
C2400 H2394 0.930 . S
C2400 C2401 1.367 . S
C2400 C2408 1.378 . S
C2401 C2400 1.367 . S
C2401 C2409 1.433 . S
C2402 H2398 0.929 . S
C2402 C2404 1.378 . S
C2402 C2406 1.350 . S
C2403 C2406 1.463 . S
C2403 C2408 1.350 . S
C2403 N2411 1.427 . S
C2404 H2395 0.930 . S
C2404 C2402 1.378 . S
C2404 C2405 1.367 . S
C2405 C2404 1.367 . S
C2405 C2407 1.433 . S
C2406 C2402 1.350 . S
C2406 C2403 1.463 . S
C2406 N2410 1.427 . S
C2407 H2397 0.929 . S
C2407 C2405 1.433 . S
C2407 N2410 1.384 . S
C2408 H2399 0.929 . S
C2408 C2400 1.378 . S
C2408 C2403 1.350 . S
C2409 H2396 0.929 . S
C2409 C2401 1.433 . S
C2409 N2411 1.384 . S
N2410 C2406 1.427 . S
N2410 C2407 1.384 . S
N2411 C2403 1.427 . S
N2411 C2409 1.384 . S
H2412 C2418 0.930 . S
H2413 C2422 0.930 . S
H2414 C2427 0.929 . S
H2415 C2425 0.929 . S
H2416 C2420 0.929 . S
H2417 C2426 0.929 . S
C2418 H2412 0.930 . S
C2418 C2419 1.367 . S
C2418 C2426 1.378 . S
C2419 C2418 1.367 . S
C2419 C2427 1.433 . S
C2420 H2416 0.929 . S
C2420 C2422 1.378 . S
C2420 C2424 1.350 . S
C2421 C2424 1.463 . S
C2421 C2426 1.350 . S
C2421 N2429 1.427 . S
C2422 H2413 0.930 . S
C2422 C2420 1.378 . S
C2422 C2423 1.367 . S
C2423 C2422 1.367 . S
C2423 C2425 1.433 . S
C2424 C2420 1.350 . S
C2424 C2421 1.463 . S
C2424 N2428 1.427 . S
C2425 H2415 0.929 . S
C2425 C2423 1.433 . S
C2425 N2428 1.384 . S
C2426 H2417 0.929 . S
C2426 C2418 1.378 . S
C2426 C2421 1.350 . S
C2427 H2414 0.929 . S
C2427 C2419 1.433 . S
C2427 N2429 1.384 . S
N2428 C2424 1.427 . S
N2428 C2425 1.384 . S
N2429 C2421 1.427 . S
N2429 C2427 1.384 . S
H2430 C2436 0.930 . S
H2431 C2440 0.930 . S
H2432 C2445 0.929 . S
H2433 C2443 0.929 . S
H2434 C2438 0.929 . S
H2435 C2444 0.929 . S
C2436 H2430 0.930 . S
C2436 C2437 1.367 . S
C2436 C2444 1.378 . S
C2437 C2436 1.367 . S
C2437 C2445 1.433 . S
C2438 H2434 0.929 . S
C2438 C2440 1.378 . S
C2438 C2442 1.350 . S
C2439 C2442 1.463 . S
C2439 C2444 1.350 . S
C2439 N2447 1.427 . S
C2440 H2431 0.930 . S
C2440 C2438 1.378 . S
C2440 C2441 1.367 . S
C2441 C2440 1.367 . S
C2441 C2443 1.433 . S
C2442 C2438 1.350 . S
C2442 C2439 1.463 . S
C2442 N2446 1.427 . S
C2443 H2433 0.929 . S
C2443 C2441 1.433 . S
C2443 N2446 1.384 . S
C2444 H2435 0.929 . S
C2444 C2436 1.378 . S
C2444 C2439 1.350 . S
C2445 H2432 0.929 . S
C2445 C2437 1.433 . S
C2445 N2447 1.384 . S
N2446 C2442 1.427 . S
N2446 C2443 1.384 . S
N2447 C2439 1.427 . S
N2447 C2445 1.384 . S
H2448 C2454 0.930 . S
H2449 C2458 0.930 . S
H2450 C2463 0.929 . S
H2451 C2461 0.929 . S
H2452 C2456 0.929 . S
H2453 C2462 0.929 . S
C2454 H2448 0.930 . S
C2454 C2455 1.367 . S
C2454 C2462 1.378 . S
C2455 C2454 1.367 . S
C2455 C2463 1.433 . S
C2456 H2452 0.929 . S
C2456 C2458 1.378 . S
C2456 C2460 1.350 . S
C2457 C2460 1.463 . S
C2457 C2462 1.350 . S
C2457 N2465 1.427 . S
C2458 H2449 0.930 . S
C2458 C2456 1.378 . S
C2458 C2459 1.367 . S
C2459 C2458 1.367 . S
C2459 C2461 1.433 . S
C2460 C2456 1.350 . S
C2460 C2457 1.463 . S
C2460 N2464 1.427 . S
C2461 H2451 0.929 . S
C2461 C2459 1.433 . S
C2461 N2464 1.384 . S
C2462 H2453 0.929 . S
C2462 C2454 1.378 . S
C2462 C2457 1.350 . S
C2463 H2450 0.929 . S
C2463 C2455 1.433 . S
C2463 N2465 1.384 . S
N2464 C2460 1.427 . S
N2464 C2461 1.384 . S
N2465 C2457 1.427 . S
N2465 C2463 1.384 . S
H2466 C2472 0.930 . S
H2467 C2476 0.930 . S
H2468 C2481 0.929 . S
H2469 C2479 0.929 . S
H2470 C2474 0.929 . S
H2471 C2480 0.929 . S
C2472 H2466 0.930 . S
C2472 C2473 1.367 . S
C2472 C2480 1.378 . S
C2473 C2472 1.367 . S
C2473 C2481 1.433 . S
C2474 H2470 0.929 . S
C2474 C2476 1.378 . S
C2474 C2478 1.350 . S
C2475 C2478 1.463 . S
C2475 C2480 1.350 . S
C2475 N2483 1.427 . S
C2476 H2467 0.930 . S
C2476 C2474 1.378 . S
C2476 C2477 1.367 . S
C2477 C2476 1.367 . S
C2477 C2479 1.433 . S
C2478 C2474 1.350 . S
C2478 C2475 1.463 . S
C2478 N2482 1.427 . S
C2479 H2469 0.929 . S
C2479 C2477 1.433 . S
C2479 N2482 1.384 . S
C2480 H2471 0.929 . S
C2480 C2472 1.378 . S
C2480 C2475 1.350 . S
C2481 H2468 0.929 . S
C2481 C2473 1.433 . S
C2481 N2483 1.384 . S
N2482 C2478 1.427 . S
N2482 C2479 1.384 . S
N2483 C2475 1.427 . S
N2483 C2481 1.384 . S
H2484 C2490 0.930 . S
H2485 C2494 0.930 . S
H2486 C2499 0.929 . S
H2487 C2497 0.929 . S
H2488 C2492 0.929 . S
H2489 C2498 0.929 . S
C2490 H2484 0.930 . S
C2490 C2491 1.367 . S
C2490 C2498 1.378 . S
C2491 C2490 1.367 . S
C2491 C2499 1.433 . S
C2492 H2488 0.929 . S
C2492 C2494 1.378 . S
C2492 C2496 1.350 . S
C2493 C2496 1.463 . S
C2493 C2498 1.350 . S
C2493 N2501 1.427 . S
C2494 H2485 0.930 . S
C2494 C2492 1.378 . S
C2494 C2495 1.367 . S
C2495 C2494 1.367 . S
C2495 C2497 1.433 . S
C2496 C2492 1.350 . S
C2496 C2493 1.463 . S
C2496 N2500 1.427 . S
C2497 H2487 0.929 . S
C2497 C2495 1.433 . S
C2497 N2500 1.384 . S
C2498 H2489 0.929 . S
C2498 C2490 1.378 . S
C2498 C2493 1.350 . S
C2499 H2486 0.929 . S
C2499 C2491 1.433 . S
C2499 N2501 1.384 . S
N2500 C2496 1.427 . S
N2500 C2497 1.384 . S
N2501 C2493 1.427 . S
N2501 C2499 1.384 . S
H2502 C2508 0.930 . S
H2503 C2512 0.930 . S
H2504 C2517 0.929 . S
H2505 C2515 0.929 . S
H2506 C2510 0.929 . S
H2507 C2516 0.929 . S
C2508 H2502 0.930 . S
C2508 C2509 1.367 . S
C2508 C2516 1.378 . S
C2509 C2508 1.367 . S
C2509 C2517 1.433 . S
C2510 H2506 0.929 . S
C2510 C2512 1.378 . S
C2510 C2514 1.350 . S
C2511 C2514 1.463 . S
C2511 C2516 1.350 . S
C2511 N2519 1.427 . S
C2512 H2503 0.930 . S
C2512 C2510 1.378 . S
C2512 C2513 1.367 . S
C2513 C2512 1.367 . S
C2513 C2515 1.433 . S
C2514 C2510 1.350 . S
C2514 C2511 1.463 . S
C2514 N2518 1.427 . S
C2515 H2505 0.929 . S
C2515 C2513 1.433 . S
C2515 N2518 1.384 . S
C2516 H2507 0.929 . S
C2516 C2508 1.378 . S
C2516 C2511 1.350 . S
C2517 H2504 0.929 . S
C2517 C2509 1.433 . S
C2517 N2519 1.384 . S
N2518 C2514 1.427 . S
N2518 C2515 1.384 . S
N2519 C2511 1.427 . S
N2519 C2517 1.384 . S
H2520 C2526 0.930 . S
H2521 C2530 0.930 . S
H2522 C2535 0.929 . S
H2523 C2533 0.929 . S
H2524 C2528 0.929 . S
H2525 C2534 0.929 . S
C2526 H2520 0.930 . S
C2526 C2527 1.367 . S
C2526 C2534 1.378 . S
C2527 C2526 1.367 . S
C2527 C2535 1.433 . S
C2528 H2524 0.929 . S
C2528 C2530 1.378 . S
C2528 C2532 1.350 . S
C2529 C2532 1.463 . S
C2529 C2534 1.350 . S
C2529 N2537 1.427 . S
C2530 H2521 0.930 . S
C2530 C2528 1.378 . S
C2530 C2531 1.367 . S
C2531 C2530 1.367 . S
C2531 C2533 1.433 . S
C2532 C2528 1.350 . S
C2532 C2529 1.463 . S
C2532 N2536 1.427 . S
C2533 H2523 0.929 . S
C2533 C2531 1.433 . S
C2533 N2536 1.384 . S
C2534 H2525 0.929 . S
C2534 C2526 1.378 . S
C2534 C2529 1.350 . S
C2535 H2522 0.929 . S
C2535 C2527 1.433 . S
C2535 N2537 1.384 . S
N2536 C2532 1.427 . S
N2536 C2533 1.384 . S
N2537 C2529 1.427 . S
N2537 C2535 1.384 . S
H2538 C2544 0.930 . S
H2539 C2548 0.930 . S
H2540 C2553 0.929 . S
H2541 C2551 0.929 . S
H2542 C2546 0.929 . S
H2543 C2552 0.929 . S
C2544 H2538 0.930 . S
C2544 C2545 1.367 . S
C2544 C2552 1.378 . S
C2545 C2544 1.367 . S
C2545 C2553 1.433 . S
C2546 H2542 0.929 . S
C2546 C2548 1.378 . S
C2546 C2550 1.350 . S
C2547 C2550 1.463 . S
C2547 C2552 1.350 . S
C2547 N2555 1.427 . S
C2548 H2539 0.930 . S
C2548 C2546 1.378 . S
C2548 C2549 1.367 . S
C2549 C2548 1.367 . S
C2549 C2551 1.433 . S
C2550 C2546 1.350 . S
C2550 C2547 1.463 . S
C2550 N2554 1.427 . S
C2551 H2541 0.929 . S
C2551 C2549 1.433 . S
C2551 N2554 1.384 . S
C2552 H2543 0.929 . S
C2552 C2544 1.378 . S
C2552 C2547 1.350 . S
C2553 H2540 0.929 . S
C2553 C2545 1.433 . S
C2553 N2555 1.384 . S
N2554 C2550 1.427 . S
N2554 C2551 1.384 . S
N2555 C2547 1.427 . S
N2555 C2553 1.384 . S
H2556 C2562 0.930 . S
H2557 C2566 0.930 . S
H2558 C2571 0.929 . S
H2559 C2569 0.929 . S
H2560 C2564 0.929 . S
H2561 C2570 0.929 . S
C2562 H2556 0.930 . S
C2562 C2563 1.367 . S
C2562 C2570 1.378 . S
C2563 C2562 1.367 . S
C2563 C2571 1.433 . S
C2564 H2560 0.929 . S
C2564 C2566 1.378 . S
C2564 C2568 1.350 . S
C2565 C2568 1.463 . S
C2565 C2570 1.350 . S
C2565 N2573 1.427 . S
C2566 H2557 0.930 . S
C2566 C2564 1.378 . S
C2566 C2567 1.367 . S
C2567 C2566 1.367 . S
C2567 C2569 1.433 . S
C2568 C2564 1.350 . S
C2568 C2565 1.463 . S
C2568 N2572 1.427 . S
C2569 H2559 0.929 . S
C2569 C2567 1.433 . S
C2569 N2572 1.384 . S
C2570 H2561 0.929 . S
C2570 C2562 1.378 . S
C2570 C2565 1.350 . S
C2571 H2558 0.929 . S
C2571 C2563 1.433 . S
C2571 N2573 1.384 . S
N2572 C2568 1.427 . S
N2572 C2569 1.384 . S
N2573 C2565 1.427 . S
N2573 C2571 1.384 . S
H2574 C2580 0.930 . S
H2575 C2584 0.930 . S
H2576 C2589 0.929 . S
H2577 C2587 0.929 . S
H2578 C2582 0.929 . S
H2579 C2588 0.929 . S
C2580 H2574 0.930 . S
C2580 C2581 1.367 . S
C2580 C2588 1.378 . S
C2581 C2580 1.367 . S
C2581 C2589 1.433 . S
C2582 H2578 0.929 . S
C2582 C2584 1.378 . S
C2582 C2586 1.350 . S
C2583 C2586 1.463 . S
C2583 C2588 1.350 . S
C2583 N2591 1.427 . S
C2584 H2575 0.930 . S
C2584 C2582 1.378 . S
C2584 C2585 1.367 . S
C2585 C2584 1.367 . S
C2585 C2587 1.433 . S
C2586 C2582 1.350 . S
C2586 C2583 1.463 . S
C2586 N2590 1.427 . S
C2587 H2577 0.929 . S
C2587 C2585 1.433 . S
C2587 N2590 1.384 . S
C2588 H2579 0.929 . S
C2588 C2580 1.378 . S
C2588 C2583 1.350 . S
C2589 H2576 0.929 . S
C2589 C2581 1.433 . S
C2589 N2591 1.384 . S
N2590 C2586 1.427 . S
N2590 C2587 1.384 . S
N2591 C2583 1.427 . S
N2591 C2589 1.384 . S
H2592 C2598 0.930 . S
H2593 C2602 0.930 . S
H2594 C2607 0.929 . S
H2595 C2605 0.929 . S
H2596 C2600 0.929 . S
H2597 C2606 0.929 . S
C2598 H2592 0.930 . S
C2598 C2599 1.367 . S
C2598 C2606 1.378 . S
C2599 C2598 1.367 . S
C2599 C2607 1.433 . S
C2600 H2596 0.929 . S
C2600 C2602 1.378 . S
C2600 C2604 1.350 . S
C2601 C2604 1.463 1_655 S
C2601 C2606 1.350 . S
C2601 N2609 1.427 . S
C2602 H2593 0.930 . S
C2602 C2600 1.378 . S
C2602 C2603 1.367 . S
C2603 C2602 1.367 . S
C2603 C2605 1.433 . S
C2604 C2600 1.350 . S
C2604 C2601 1.463 1_455 S
C2604 N2608 1.427 . S
C2605 H2595 0.929 . S
C2605 C2603 1.433 . S
C2605 N2608 1.384 . S
C2606 H2597 0.929 . S
C2606 C2598 1.378 . S
C2606 C2601 1.350 . S
C2607 H2594 0.929 . S
C2607 C2599 1.433 . S
C2607 N2609 1.384 . S
N2608 C2604 1.427 . S
N2608 C2605 1.384 . S
N2609 C2601 1.427 . S
N2609 C2607 1.384 . S
H2610 C2616 0.930 . S
H2611 C2620 0.930 . S
H2612 C2625 0.929 . S
H2613 C2623 0.929 . S
H2614 C2618 0.929 . S
H2615 C2624 0.929 . S
C2616 H2610 0.930 . S
C2616 C2617 1.367 . S
C2616 C2624 1.378 . S
C2617 C2616 1.367 . S
C2617 C2625 1.433 . S
C2618 H2614 0.929 . S
C2618 C2620 1.378 . S
C2618 C2622 1.350 . S
C2619 C2622 1.463 . S
C2619 C2624 1.350 . S
C2619 N2627 1.427 . S
C2620 H2611 0.930 . S
C2620 C2618 1.378 . S
C2620 C2621 1.367 . S
C2621 C2620 1.367 . S
C2621 C2623 1.433 . S
C2622 C2618 1.350 . S
C2622 C2619 1.463 . S
C2622 N2626 1.427 . S
C2623 H2613 0.929 . S
C2623 C2621 1.433 . S
C2623 N2626 1.384 . S
C2624 H2615 0.929 . S
C2624 C2616 1.378 . S
C2624 C2619 1.350 . S
C2625 H2612 0.929 . S
C2625 C2617 1.433 . S
C2625 N2627 1.384 . S
N2626 C2622 1.427 . S
N2626 C2623 1.384 . S
N2627 C2619 1.427 . S
N2627 C2625 1.384 . S
H2628 C2634 0.930 . S
H2629 C2638 0.930 . S
H2630 C2643 0.929 . S
H2631 C2641 0.929 . S
H2632 C2636 0.921 1_545 S
H2633 C2642 0.921 1_565 S
C2634 H2628 0.930 . S
C2634 C2635 1.367 . S
C2634 C2642 1.386 . S
C2635 C2634 1.367 . S
C2635 C2643 1.433 . S
C2636 H2632 0.921 1_565 S
C2636 C2638 1.386 . S
C2636 C2640 1.349 . S
C2637 C2640 1.463 1_545 S
C2637 C2642 1.349 . S
C2637 N2645 1.427 . S
C2638 H2629 0.930 . S
C2638 C2636 1.386 . S
C2638 C2639 1.367 . S
C2639 C2638 1.367 . S
C2639 C2641 1.433 . S
C2640 C2636 1.349 . S
C2640 C2637 1.463 1_565 S
C2640 N2644 1.427 . S
C2641 H2631 0.929 . S
C2641 C2639 1.433 . S
C2641 N2644 1.384 . S
C2642 H2633 0.921 1_545 S
C2642 C2634 1.386 . S
C2642 C2637 1.349 . S
C2643 H2630 0.929 . S
C2643 C2635 1.433 . S
C2643 N2645 1.384 . S
N2644 C2640 1.427 . S
N2644 C2641 1.384 . S
N2645 C2637 1.427 . S
N2645 C2643 1.384 . S
H2646 C2652 0.930 . S
H2647 C2656 0.930 . S
H2648 C2661 0.929 . S
H2649 C2659 0.929 . S
H2650 C2654 0.929 . S
H2651 C2660 0.929 . S
C2652 H2646 0.930 . S
C2652 C2653 1.367 . S
C2652 C2660 1.378 1_545 S
C2653 C2652 1.367 . S
C2653 C2661 1.433 . S
C2654 H2650 0.929 . S
C2654 C2656 1.378 1_545 S
C2654 C2658 1.350 1_545 S
C2655 C2658 1.463 1_545 S
C2655 C2660 1.350 1_545 S
C2655 N2663 1.427 . S
C2656 H2647 0.930 . S
C2656 C2654 1.378 1_565 S
C2656 C2657 1.367 . S
C2657 C2656 1.367 . S
C2657 C2659 1.433 . S
C2658 C2654 1.350 1_565 S
C2658 C2655 1.463 1_565 S
C2658 N2662 1.427 . S
C2659 H2649 0.929 . S
C2659 C2657 1.433 . S
C2659 N2662 1.384 . S
C2660 H2651 0.929 . S
C2660 C2652 1.378 1_565 S
C2660 C2655 1.350 1_565 S
C2661 H2648 0.929 . S
C2661 C2653 1.433 . S
C2661 N2663 1.384 . S
N2662 C2658 1.427 . S
N2662 C2659 1.384 . S
N2663 C2655 1.427 . S
N2663 C2661 1.384 . S
H2664 C2670 0.930 . S
H2665 C2674 0.930 . S
H2666 C2679 0.929 . S
H2667 C2677 0.929 . S
H2668 C2672 0.929 . S
H2669 C2678 0.929 . S
C2670 H2664 0.930 . S
C2670 C2671 1.367 . S
C2670 C2678 1.378 . S
C2671 C2670 1.367 . S
C2671 C2679 1.433 . S
C2672 H2668 0.929 . S
C2672 C2674 1.378 . S
C2672 C2676 1.350 . S
C2673 C2676 1.463 1_455 S
C2673 C2678 1.350 . S
C2673 N2681 1.427 . S
C2674 H2665 0.930 . S
C2674 C2672 1.378 . S
C2674 C2675 1.367 . S
C2675 C2674 1.367 . S
C2675 C2677 1.433 . S
C2676 C2672 1.350 . S
C2676 C2673 1.463 1_655 S
C2676 N2680 1.427 . S
C2677 H2667 0.929 . S
C2677 C2675 1.433 . S
C2677 N2680 1.384 . S
C2678 H2669 0.929 . S
C2678 C2670 1.378 . S
C2678 C2673 1.350 . S
C2679 H2666 0.929 . S
C2679 C2671 1.433 . S
C2679 N2681 1.384 . S
N2680 C2676 1.427 . S
N2680 C2677 1.384 . S
N2681 C2673 1.427 . S
N2681 C2679 1.384 . S
H2682 C2688 0.930 . S
H2683 C2692 0.930 . S
H2684 C2697 0.929 . S
H2685 C2695 0.929 . S
H2686 C2690 0.929 . S
H2687 C2696 0.929 . S
C2688 H2682 0.930 . S
C2688 C2689 1.367 . S
C2688 C2696 1.378 . S
C2689 C2688 1.367 . S
C2689 C2697 1.433 . S
C2690 H2686 0.929 . S
C2690 C2692 1.378 . S
C2690 C2694 1.350 . S
C2691 C2694 1.463 . S
C2691 C2696 1.350 . S
C2691 N2699 1.427 . S
C2692 H2683 0.930 . S
C2692 C2690 1.378 . S
C2692 C2693 1.367 . S
C2693 C2692 1.367 . S
C2693 C2695 1.433 . S
C2694 C2690 1.350 . S
C2694 C2691 1.463 . S
C2694 N2698 1.427 . S
C2695 H2685 0.929 . S
C2695 C2693 1.433 . S
C2695 N2698 1.384 . S
C2696 H2687 0.929 . S
C2696 C2688 1.378 . S
C2696 C2691 1.350 . S
C2697 H2684 0.929 . S
C2697 C2689 1.433 . S
C2697 N2699 1.384 . S
N2698 C2694 1.427 . S
N2698 C2695 1.384 . S
N2699 C2691 1.427 . S
N2699 C2697 1.384 . S
H2700 C2706 0.930 . S
H2701 C2710 0.930 . S
H2702 C2715 0.929 . S
H2703 C2713 0.929 . S
H2704 C2708 0.929 1_655 S
H2705 C2714 0.929 1_455 S
C2706 H2700 0.930 . S
C2706 C2707 1.367 . S
C2706 C2714 1.378 . S
C2707 C2706 1.367 . S
C2707 C2715 1.433 . S
C2708 H2704 0.929 1_455 S
C2708 C2710 1.378 . S
C2708 C2712 1.350 . S
C2709 C2712 1.463 1_655 S
C2709 C2714 1.350 . S
C2709 N2717 1.427 . S
C2710 H2701 0.930 . S
C2710 C2708 1.378 . S
C2710 C2711 1.367 . S
C2711 C2710 1.367 . S
C2711 C2713 1.433 . S
C2712 C2708 1.350 . S
C2712 C2709 1.463 1_455 S
C2712 N2716 1.427 . S
C2713 H2703 0.929 . S
C2713 C2711 1.433 . S
C2713 N2716 1.384 . S
C2714 H2705 0.929 1_655 S
C2714 C2706 1.378 . S
C2714 C2709 1.350 . S
C2715 H2702 0.929 . S
C2715 C2707 1.433 . S
C2715 N2717 1.384 . S
N2716 C2712 1.427 . S
N2716 C2713 1.384 . S
N2717 C2709 1.427 . S
N2717 C2715 1.384 . S
H2718 C2724 0.930 . S
H2719 C2728 0.930 . S
H2720 C2733 0.929 . S
H2721 C2731 0.929 . S
H2722 C2726 0.929 . S
H2723 C2732 0.929 . S
C2724 H2718 0.930 . S
C2724 C2725 1.367 . S
C2724 C2732 1.378 . S
C2725 C2724 1.367 . S
C2725 C2733 1.433 . S
C2726 H2722 0.929 . S
C2726 C2728 1.378 . S
C2726 C2730 1.350 . S
C2727 C2730 1.463 . S
C2727 C2732 1.350 . S
C2727 N2735 1.427 . S
C2728 H2719 0.930 . S
C2728 C2726 1.378 . S
C2728 C2729 1.367 . S
C2729 C2728 1.367 . S
C2729 C2731 1.433 . S
C2730 C2726 1.350 . S
C2730 C2727 1.463 . S
C2730 N2734 1.427 . S
C2731 H2721 0.929 . S
C2731 C2729 1.433 . S
C2731 N2734 1.384 . S
C2732 H2723 0.929 . S
C2732 C2724 1.378 . S
C2732 C2727 1.350 . S
C2733 H2720 0.929 . S
C2733 C2725 1.433 . S
C2733 N2735 1.384 . S
N2734 C2730 1.427 . S
N2734 C2731 1.384 . S
N2735 C2727 1.427 . S
N2735 C2733 1.384 . S
H2736 C2742 0.930 . S
H2737 C2746 0.930 . S
H2738 C2751 0.929 . S
H2739 C2749 0.929 . S
H2740 C2744 0.944 . S
H2741 C2750 0.944 . S
C2742 H2736 0.930 . S
C2742 C2743 1.367 . S
C2742 C2750 1.368 1_545 S
C2743 C2742 1.367 . S
C2743 C2751 1.433 . S
C2744 H2740 0.944 . S
C2744 C2746 1.368 1_545 S
C2744 C2748 1.344 1_545 S
C2745 C2748 1.463 1_545 S
C2745 C2750 1.344 1_545 S
C2745 N2753 1.427 . S
C2746 H2737 0.930 . S
C2746 C2744 1.368 1_565 S
C2746 C2747 1.367 . S
C2747 C2746 1.367 . S
C2747 C2749 1.433 . S
C2748 C2744 1.344 1_565 S
C2748 C2745 1.463 1_565 S
C2748 N2752 1.427 . S
C2749 H2739 0.929 . S
C2749 C2747 1.433 . S
C2749 N2752 1.384 . S
C2750 H2741 0.944 . S
C2750 C2742 1.368 1_565 S
C2750 C2745 1.344 1_565 S
C2751 H2738 0.929 . S
C2751 C2743 1.433 . S
C2751 N2753 1.384 . S
N2752 C2748 1.427 . S
N2752 C2749 1.384 . S
N2753 C2745 1.427 . S
N2753 C2751 1.384 . S
H2754 C2760 0.930 . S
H2755 C2764 0.930 . S
H2756 C2769 0.929 . S
H2757 C2767 0.929 . S
H2758 C2762 0.922 1_655 S
H2759 C2768 0.922 1_455 S
C2760 H2754 0.930 . S
C2760 C2761 1.367 . S
C2760 C2768 1.378 . S
C2761 C2760 1.367 . S
C2761 C2769 1.433 . S
C2762 H2758 0.922 1_455 S
C2762 C2764 1.378 . S
C2762 C2766 1.350 . S
C2763 C2766 1.463 1_655 S
C2763 C2768 1.350 . S
C2763 N2771 1.427 . S
C2764 H2755 0.930 . S
C2764 C2762 1.378 . S
C2764 C2765 1.367 . S
C2765 C2764 1.367 . S
C2765 C2767 1.433 . S
C2766 C2762 1.350 . S
C2766 C2763 1.463 1_455 S
C2766 N2770 1.427 . S
C2767 H2757 0.929 . S
C2767 C2765 1.433 . S
C2767 N2770 1.384 . S
C2768 H2759 0.922 1_655 S
C2768 C2760 1.378 . S
C2768 C2763 1.350 . S
C2769 H2756 0.929 . S
C2769 C2761 1.433 . S
C2769 N2771 1.384 . S
N2770 C2766 1.427 . S
N2770 C2767 1.384 . S
N2771 C2763 1.427 . S
N2771 C2769 1.384 . S
H2772 C2778 0.930 . S
H2773 C2782 0.930 . S
H2774 C2787 0.929 . S
H2775 C2785 0.929 . S
H2776 C2780 0.929 . S
H2777 C2786 0.929 . S
C2778 H2772 0.930 . S
C2778 C2779 1.367 . S
C2778 C2786 1.378 . S
C2779 C2778 1.367 . S
C2779 C2787 1.433 . S
C2780 H2776 0.929 . S
C2780 C2782 1.378 . S
C2780 C2784 1.350 . S
C2781 C2784 1.463 . S
C2781 C2786 1.350 . S
C2781 N2789 1.427 . S
C2782 H2773 0.930 . S
C2782 C2780 1.378 . S
C2782 C2783 1.367 . S
C2783 C2782 1.367 . S
C2783 C2785 1.433 . S
C2784 C2780 1.350 . S
C2784 C2781 1.463 . S
C2784 N2788 1.427 . S
C2785 H2775 0.929 . S
C2785 C2783 1.433 . S
C2785 N2788 1.384 . S
C2786 H2777 0.929 . S
C2786 C2778 1.378 . S
C2786 C2781 1.350 . S
C2787 H2774 0.929 . S
C2787 C2779 1.433 . S
C2787 N2789 1.384 . S
N2788 C2784 1.427 . S
N2788 C2785 1.384 . S
N2789 C2781 1.427 . S
N2789 C2787 1.384 . S
H2790 C2796 0.930 . S
H2791 C2800 0.930 . S
H2792 C2805 0.929 . S
H2793 C2803 0.929 . S
H2794 C2798 0.929 . S
H2795 C2804 0.929 . S
C2796 H2790 0.930 . S
C2796 C2797 1.367 . S
C2796 C2804 1.378 . S
C2797 C2796 1.367 . S
C2797 C2805 1.433 . S
C2798 H2794 0.929 . S
C2798 C2800 1.378 . S
C2798 C2802 1.350 . S
C2799 C2802 1.463 1_545 S
C2799 C2804 1.350 . S
C2799 N2807 1.427 . S
C2800 H2791 0.930 . S
C2800 C2798 1.378 . S
C2800 C2801 1.367 . S
C2801 C2800 1.367 . S
C2801 C2803 1.433 . S
C2802 C2798 1.350 . S
C2802 C2799 1.463 1_565 S
C2802 N2806 1.427 . S
C2803 H2793 0.929 . S
C2803 C2801 1.433 . S
C2803 N2806 1.384 . S
C2804 H2795 0.929 . S
C2804 C2796 1.378 . S
C2804 C2799 1.350 . S
C2805 H2792 0.929 . S
C2805 C2797 1.433 . S
C2805 N2807 1.384 . S
N2806 C2802 1.427 . S
N2806 C2803 1.384 . S
N2807 C2799 1.427 . S
N2807 C2805 1.384 . S
H2808 C2814 0.930 . S
H2809 C2818 0.930 . S
H2810 C2823 0.929 . S
H2811 C2821 0.929 . S
H2812 C2816 0.929 . S
H2813 C2822 0.929 . S
C2814 H2808 0.930 . S
C2814 C2815 1.367 . S
C2814 C2822 1.378 . S
C2815 C2814 1.367 . S
C2815 C2823 1.433 . S
C2816 H2812 0.929 . S
C2816 C2818 1.378 . S
C2816 C2820 1.350 . S
C2817 C2820 1.463 . S
C2817 C2822 1.350 . S
C2817 N2825 1.427 . S
C2818 H2809 0.930 . S
C2818 C2816 1.378 . S
C2818 C2819 1.367 . S
C2819 C2818 1.367 . S
C2819 C2821 1.433 . S
C2820 C2816 1.350 . S
C2820 C2817 1.463 . S
C2820 N2824 1.427 . S
C2821 H2811 0.929 . S
C2821 C2819 1.433 . S
C2821 N2824 1.384 . S
C2822 H2813 0.929 . S
C2822 C2814 1.378 . S
C2822 C2817 1.350 . S
C2823 H2810 0.929 . S
C2823 C2815 1.433 . S
C2823 N2825 1.384 . S
N2824 C2820 1.427 . S
N2824 C2821 1.384 . S
N2825 C2817 1.427 . S
N2825 C2823 1.384 . S
H2826 C2832 0.930 . S
H2827 C2836 0.930 . S
H2828 C2841 0.929 . S
H2829 C2839 0.929 . S
H2830 C2834 0.929 . S
H2831 C2840 0.929 . S
C2832 H2826 0.930 . S
C2832 C2833 1.367 . S
C2832 C2840 1.378 . S
C2833 C2832 1.367 . S
C2833 C2841 1.433 . S
C2834 H2830 0.929 . S
C2834 C2836 1.378 . S
C2834 C2838 1.350 . S
C2835 C2838 1.463 . S
C2835 C2840 1.350 . S
C2835 N2843 1.427 . S
C2836 H2827 0.930 . S
C2836 C2834 1.378 . S
C2836 C2837 1.367 . S
C2837 C2836 1.367 . S
C2837 C2839 1.433 . S
C2838 C2834 1.350 . S
C2838 C2835 1.463 . S
C2838 N2842 1.427 . S
C2839 H2829 0.929 . S
C2839 C2837 1.433 . S
C2839 N2842 1.384 . S
C2840 H2831 0.929 . S
C2840 C2832 1.378 . S
C2840 C2835 1.350 . S
C2841 H2828 0.929 . S
C2841 C2833 1.433 . S
C2841 N2843 1.384 . S
N2842 C2838 1.427 . S
N2842 C2839 1.384 . S
N2843 C2835 1.427 . S
N2843 C2841 1.384 . S
H2844 C2850 0.930 . S
H2845 C2854 0.930 . S
H2846 C2859 0.929 . S
H2847 C2857 0.929 . S
H2848 C2852 0.929 . S
H2849 C2858 0.929 . S
C2850 H2844 0.930 . S
C2850 C2851 1.367 . S
C2850 C2858 1.378 . S
C2851 C2850 1.367 . S
C2851 C2859 1.433 . S
C2852 H2848 0.929 . S
C2852 C2854 1.378 . S
C2852 C2856 1.350 . S
C2853 C2856 1.463 . S
C2853 C2858 1.350 . S
C2853 N2861 1.427 . S
C2854 H2845 0.930 . S
C2854 C2852 1.378 . S
C2854 C2855 1.367 . S
C2855 C2854 1.367 . S
C2855 C2857 1.433 . S
C2856 C2852 1.350 . S
C2856 C2853 1.463 . S
C2856 N2860 1.427 . S
C2857 H2847 0.929 . S
C2857 C2855 1.433 . S
C2857 N2860 1.384 . S
C2858 H2849 0.929 . S
C2858 C2850 1.378 . S
C2858 C2853 1.350 . S
C2859 H2846 0.929 . S
C2859 C2851 1.433 . S
C2859 N2861 1.384 . S
N2860 C2856 1.427 . S
N2860 C2857 1.384 . S
N2861 C2853 1.427 . S
N2861 C2859 1.384 . S
H2862 C2868 0.930 . S
H2863 C2872 0.930 . S
H2864 C2877 0.929 . S
H2865 C2875 0.929 . S
H2866 C2870 0.929 . S
H2867 C2876 0.929 . S
C2868 H2862 0.930 . S
C2868 C2869 1.367 . S
C2868 C2876 1.378 . S
C2869 C2868 1.367 . S
C2869 C2877 1.433 . S
C2870 H2866 0.929 . S
C2870 C2872 1.378 . S
C2870 C2874 1.350 . S
C2871 C2874 1.463 . S
C2871 C2876 1.350 . S
C2871 N2879 1.427 . S
C2872 H2863 0.930 . S
C2872 C2870 1.378 . S
C2872 C2873 1.367 . S
C2873 C2872 1.367 . S
C2873 C2875 1.433 . S
C2874 C2870 1.350 . S
C2874 C2871 1.463 . S
C2874 N2878 1.427 . S
C2875 H2865 0.929 . S
C2875 C2873 1.433 . S
C2875 N2878 1.384 . S
C2876 H2867 0.929 . S
C2876 C2868 1.378 . S
C2876 C2871 1.350 . S
C2877 H2864 0.929 . S
C2877 C2869 1.433 . S
C2877 N2879 1.384 . S
N2878 C2874 1.427 . S
N2878 C2875 1.384 . S
N2879 C2871 1.427 . S
N2879 C2877 1.384 . S
H2880 C2886 0.930 . S
H2881 C2890 0.930 . S
H2882 C2895 0.929 . S
H2883 C2893 0.929 . S
H2884 C2888 0.929 . S
H2885 C2894 0.929 . S
C2886 H2880 0.930 . S
C2886 C2887 1.367 . S
C2886 C2894 1.378 . S
C2887 C2886 1.367 . S
C2887 C2895 1.433 . S
C2888 H2884 0.929 . S
C2888 C2890 1.378 . S
C2888 C2892 1.350 . S
C2889 C2892 1.463 . S
C2889 C2894 1.350 . S
C2889 N2897 1.427 . S
C2890 H2881 0.930 . S
C2890 C2888 1.378 . S
C2890 C2891 1.367 . S
C2891 C2890 1.367 . S
C2891 C2893 1.433 . S
C2892 C2888 1.350 . S
C2892 C2889 1.463 . S
C2892 N2896 1.427 . S
C2893 H2883 0.929 . S
C2893 C2891 1.433 . S
C2893 N2896 1.384 . S
C2894 H2885 0.929 . S
C2894 C2886 1.378 . S
C2894 C2889 1.350 . S
C2895 H2882 0.929 . S
C2895 C2887 1.433 . S
C2895 N2897 1.384 . S
N2896 C2892 1.427 . S
N2896 C2893 1.384 . S
N2897 C2889 1.427 . S
N2897 C2895 1.384 . S
H2898 C2904 0.930 . S
H2899 C2908 0.930 . S
H2900 C2913 0.929 . S
H2901 C2911 0.929 . S
H2902 C2906 0.929 . S
H2903 C2912 0.929 . S
C2904 H2898 0.930 . S
C2904 C2905 1.367 . S
C2904 C2912 1.378 . S
C2905 C2904 1.367 . S
C2905 C2913 1.433 . S
C2906 H2902 0.929 . S
C2906 C2908 1.378 . S
C2906 C2910 1.350 . S
C2907 C2910 1.463 . S
C2907 C2912 1.350 . S
C2907 N2915 1.427 . S
C2908 H2899 0.930 . S
C2908 C2906 1.378 . S
C2908 C2909 1.367 . S
C2909 C2908 1.367 . S
C2909 C2911 1.433 . S
C2910 C2906 1.350 . S
C2910 C2907 1.463 . S
C2910 N2914 1.427 . S
C2911 H2901 0.929 . S
C2911 C2909 1.433 . S
C2911 N2914 1.384 . S
C2912 H2903 0.929 . S
C2912 C2904 1.378 . S
C2912 C2907 1.350 . S
C2913 H2900 0.929 . S
C2913 C2905 1.433 . S
C2913 N2915 1.384 . S
N2914 C2910 1.427 . S
N2914 C2911 1.384 . S
N2915 C2907 1.427 . S
N2915 C2913 1.384 . S
H2916 C2922 0.930 . S
H2917 C2926 0.930 . S
H2918 C2931 0.929 . S
H2919 C2929 0.929 . S
H2920 C2924 0.929 . S
H2921 C2930 0.929 . S
C2922 H2916 0.930 . S
C2922 C2923 1.367 . S
C2922 C2930 1.378 . S
C2923 C2922 1.367 . S
C2923 C2931 1.433 . S
C2924 H2920 0.929 . S
C2924 C2926 1.378 . S
C2924 C2928 1.350 . S
C2925 C2928 1.463 . S
C2925 C2930 1.350 . S
C2925 N2933 1.427 . S
C2926 H2917 0.930 . S
C2926 C2924 1.378 . S
C2926 C2927 1.367 . S
C2927 C2926 1.367 . S
C2927 C2929 1.433 . S
C2928 C2924 1.350 . S
C2928 C2925 1.463 . S
C2928 N2932 1.427 . S
C2929 H2919 0.929 . S
C2929 C2927 1.433 . S
C2929 N2932 1.384 . S
C2930 H2921 0.929 . S
C2930 C2922 1.378 . S
C2930 C2925 1.350 . S
C2931 H2918 0.929 . S
C2931 C2923 1.433 . S
C2931 N2933 1.384 . S
N2932 C2928 1.427 . S
N2932 C2929 1.384 . S
N2933 C2925 1.427 . S
N2933 C2931 1.384 . S
H2934 C2940 0.930 . S
H2935 C2944 0.930 . S
H2936 C2949 0.929 . S
H2937 C2947 0.929 . S
H2938 C2942 0.929 . S
H2939 C2948 0.929 . S
C2940 H2934 0.930 . S
C2940 C2941 1.367 . S
C2940 C2948 1.378 . S
C2941 C2940 1.367 . S
C2941 C2949 1.433 . S
C2942 H2938 0.929 . S
C2942 C2944 1.378 . S
C2942 C2946 1.350 . S
C2943 C2946 1.463 . S
C2943 C2948 1.350 . S
C2943 N2951 1.427 . S
C2944 H2935 0.930 . S
C2944 C2942 1.378 . S
C2944 C2945 1.367 . S
C2945 C2944 1.367 . S
C2945 C2947 1.433 . S
C2946 C2942 1.350 . S
C2946 C2943 1.463 . S
C2946 N2950 1.427 . S
C2947 H2937 0.929 . S
C2947 C2945 1.433 . S
C2947 N2950 1.384 . S
C2948 H2939 0.929 . S
C2948 C2940 1.378 . S
C2948 C2943 1.350 . S
C2949 H2936 0.929 . S
C2949 C2941 1.433 . S
C2949 N2951 1.384 . S
N2950 C2946 1.427 . S
N2950 C2947 1.384 . S
N2951 C2943 1.427 . S
N2951 C2949 1.384 . S
H2952 C2958 0.930 . S
H2953 C2962 0.930 . S
H2954 C2967 0.929 . S
H2955 C2965 0.929 . S
H2956 C2960 0.929 . S
H2957 C2966 0.929 . S
C2958 H2952 0.930 . S
C2958 C2959 1.367 . S
C2958 C2966 1.378 . S
C2959 C2958 1.367 . S
C2959 C2967 1.433 . S
C2960 H2956 0.929 . S
C2960 C2962 1.378 . S
C2960 C2964 1.350 . S
C2961 C2964 1.463 . S
C2961 C2966 1.350 . S
C2961 N2969 1.427 . S
C2962 H2953 0.930 . S
C2962 C2960 1.378 . S
C2962 C2963 1.367 . S
C2963 C2962 1.367 . S
C2963 C2965 1.433 . S
C2964 C2960 1.350 . S
C2964 C2961 1.463 . S
C2964 N2968 1.427 . S
C2965 H2955 0.929 . S
C2965 C2963 1.433 . S
C2965 N2968 1.384 . S
C2966 H2957 0.929 . S
C2966 C2958 1.378 . S
C2966 C2961 1.350 . S
C2967 H2954 0.929 . S
C2967 C2959 1.433 . S
C2967 N2969 1.384 . S
N2968 C2964 1.427 . S
N2968 C2965 1.384 . S
N2969 C2961 1.427 . S
N2969 C2967 1.384 . S
H2970 C2976 0.930 . S
H2971 C2980 0.930 . S
H2972 C2985 0.929 . S
H2973 C2983 0.929 . S
H2974 C2978 0.929 . S
H2975 C2984 0.929 . S
C2976 H2970 0.930 . S
C2976 C2977 1.367 . S
C2976 C2984 1.378 . S
C2977 C2976 1.367 . S
C2977 C2985 1.433 . S
C2978 H2974 0.929 . S
C2978 C2980 1.378 . S
C2978 C2982 1.350 . S
C2979 C2982 1.463 . S
C2979 C2984 1.350 . S
C2979 N2987 1.427 . S
C2980 H2971 0.930 . S
C2980 C2978 1.378 . S
C2980 C2981 1.367 . S
C2981 C2980 1.367 . S
C2981 C2983 1.433 . S
C2982 C2978 1.350 . S
C2982 C2979 1.463 . S
C2982 N2986 1.427 . S
C2983 H2973 0.929 . S
C2983 C2981 1.433 . S
C2983 N2986 1.384 . S
C2984 H2975 0.929 . S
C2984 C2976 1.378 . S
C2984 C2979 1.350 . S
C2985 H2972 0.929 . S
C2985 C2977 1.433 . S
C2985 N2987 1.384 . S
N2986 C2982 1.427 . S
N2986 C2983 1.384 . S
N2987 C2979 1.427 . S
N2987 C2985 1.384 . S
H2988 C2994 0.930 . S
H2989 C2998 0.930 . S
H2990 C3003 0.929 . S
H2991 C3001 0.929 . S
H2992 C2996 0.929 . S
H2993 C3002 0.929 . S
C2994 H2988 0.930 . S
C2994 C2995 1.367 . S
C2994 C3002 1.378 . S
C2995 C2994 1.367 . S
C2995 C3003 1.433 . S
C2996 H2992 0.929 . S
C2996 C2998 1.378 . S
C2996 C3000 1.350 . S
C2997 C3000 1.463 . S
C2997 C3002 1.350 . S
C2997 N3005 1.427 . S
C2998 H2989 0.930 . S
C2998 C2996 1.378 . S
C2998 C2999 1.367 . S
C2999 C2998 1.367 . S
C2999 C3001 1.433 . S
C3000 C2996 1.350 . S
C3000 C2997 1.463 . S
C3000 N3004 1.427 . S
C3001 H2991 0.929 . S
C3001 C2999 1.433 . S
C3001 N3004 1.384 . S
C3002 H2993 0.929 . S
C3002 C2994 1.378 . S
C3002 C2997 1.350 . S
C3003 H2990 0.929 . S
C3003 C2995 1.433 . S
C3003 N3005 1.384 . S
N3004 C3000 1.427 . S
N3004 C3001 1.384 . S
N3005 C2997 1.427 . S
N3005 C3003 1.384 . S
H3006 C3012 0.930 . S
H3007 C3016 0.930 . S
H3008 C3021 0.929 . S
H3009 C3019 0.929 . S
H3010 C3014 0.929 . S
H3011 C3020 0.929 . S
C3012 H3006 0.930 . S
C3012 C3013 1.367 . S
C3012 C3020 1.378 . S
C3013 C3012 1.367 . S
C3013 C3021 1.433 . S
C3014 H3010 0.929 . S
C3014 C3016 1.378 . S
C3014 C3018 1.350 . S
C3015 C3018 1.463 . S
C3015 C3020 1.350 . S
C3015 N3023 1.427 . S
C3016 H3007 0.930 . S
C3016 C3014 1.378 . S
C3016 C3017 1.367 . S
C3017 C3016 1.367 . S
C3017 C3019 1.433 . S
C3018 C3014 1.350 . S
C3018 C3015 1.463 . S
C3018 N3022 1.427 . S
C3019 H3009 0.929 . S
C3019 C3017 1.433 . S
C3019 N3022 1.384 . S
C3020 H3011 0.929 . S
C3020 C3012 1.378 . S
C3020 C3015 1.350 . S
C3021 H3008 0.929 . S
C3021 C3013 1.433 . S
C3021 N3023 1.384 . S
N3022 C3018 1.427 . S
N3022 C3019 1.384 . S
N3023 C3015 1.427 . S
N3023 C3021 1.384 . S
C1087 C10 1.393 . S
C1091 N66 1.397 . S
C1105 N6 1.396 . S
C1109 C40 1.388 . S
C1123 C70 1.390 . S
C1127 N36 1.395 . S
C1141 C100 1.394 . S
C1145 N126 1.395 . S
C1159 N156 1.396 . S
C1163 C130 1.394 . S
C1177 C160 1.388 . S
C1181 N96 1.396 . S
C1195 C181 1.391 . S
C1199 N254 1.395 . S
C1213 C211 1.388 . S
C1217 N194 1.397 . S
C1231 C241 1.394 . S
C1235 N224 1.397 . S
C1249 C271 1.393 . S
C1253 N314 1.397 . S
C1267 N344 1.397 . S
C1271 C301 1.388 . S
C1285 N284 1.395 . S
C1289 C331 1.394 . S
C1303 N426 1.397 . S
C1307 C370 1.394 . S
C1321 C400 1.389 . S
C1325 N366 1.395 . S
C1339 N396 1.398 . S
C1343 C430 1.389 . S
C1357 C460 1.394 . S
C1361 N486 1.397 . S
C1375 N516 1.395 . S
C1379 C490 1.390 . S
C1393 N456 1.395 . S
C1397 C520 1.394 . S
C1411 C541 1.394 . S
C1415 N614 1.395 . S
C1429 C571 1.392 . S
C1433 N554 1.398 . S
C1447 N584 1.396 . S
C1451 C601 1.394 . S
C1465 N674 1.398 . S
C1469 C631 1.389 . S
C1483 C661 1.390 . S
C1487 N704 1.398 . S
C1501 N644 1.398 . S
C1505 C691 1.392 . S
C1519 C730 1.392 . S
C1523 N786 1.398 . S
C1537 C760 1.388 . S
C1541 N726 1.396 . S
C1555 C790 1.389 . S
C1559 N756 1.398 . S
C1573 C820 1.388 . S
C1577 N846 1.396 . S
C1591 C850 1.390 . S
C1595 N876 1.395 . S
C1609 C880 1.393 . S
C1613 N816 1.397 . S
C1627 C901 1.394 . S
C1631 N974 1.397 . S
C1645 C931 1.388 . S
C1649 N914 1.397 . S
C1663 N944 1.398 . S
C1667 C961 1.392 . S
C1681 C991 1.388 . S
C1685 N1034 1.397 . S
C1699 C1021 1.388 . S
C1703 N1064 1.397 . S
C1717 N1004 1.397 . S
C1721 C1051 1.393 . S
C1735 N14 0.970 . S
C1739 C610 1.091 . S
C1753 C550 1.092 . S
C1757 N44 0.976 . S
C1771 N74 0.971 . S
C1775 C580 1.091 . S
C1789 N104 0.995 . S
C1793 C1030 1.095 . S
C1807 C1060 1.091 . S
C1811 N134 0.975 . S
C1825 N164 0.992 . S
C1829 C1000 1.095 . S
C1843 C781 1.092 . S
C1847 N186 0.973 . S
C1861 N216 0.989 . S
C1865 C721 1.095 . S
C1879 N246 0.971 . S
C1883 C751 1.091 . S
C1897 C481 1.093 . S
C1901 N276 0.983 . S
C1915 C511 1.094 . S
C1919 N306 0.990 . S
C1933 C451 1.092 . S
C1937 N336 0.976 . S
C1951 N374 0.973 . S
C1955 C970 1.091 . S
C1969 N404 0.970 . S
C1973 C910 1.091 . S
C1987 C940 1.093 . S
C1991 N434 0.984 . S
C2005 C310 1.095 . S
C2009 N464 0.993 . S
C2023 C340 1.094 . S
C2027 N494 0.987 . S
C2041 C280 1.096 . S
C2045 N524 1.003 . S
C2059 C61 1.096 . S
C2063 N546 0.999 . S
C2077 N576 0.985 . S
C2081 C1 1.094 . S
C2095 N606 0.997 . S
C2099 C31 1.096 . S
C2113 C841 1.091 1_554 S
C2117 N636 0.977 . S
C2131 C871 1.096 1_554 S
C2135 N666 1.002 . S
C2149 N696 0.999 . S
C2153 C811 1.094 1_554 S
C2167 C250 1.095 . S
C2171 N734 0.995 . S
C2185 C190 1.094 . S
C2189 N764 0.984 . S
C2203 C220 1.090 . S
C2207 N794 0.968 . S
C2221 N824 0.988 . S
C2225 C670 1.093 1_556 S
C2239 C700 1.093 1_556 S
C2243 N854 0.992 . S
C2257 N884 0.973 . S
C2261 C640 1.091 1_556 S
C2275 N906 0.985 . S
C2279 C421 1.094 . S
C2293 N936 0.987 . S
C2297 C361 1.093 . S
C2311 N966 0.995 . S
C2315 C391 1.096 . S
C2329 N996 0.997 . S
C2333 C121 1.096 . S
C2347 C151 1.095 . S
C2351 N1026 0.996 . S
C2365 C91 1.094 . S
C2369 N1056 0.991 . S
C2383 C897 1.500 . S
C2387 C27 1.503 . S
C2401 C837 1.506 . S
C2405 C57 1.501 . S
C2419 C87 1.504 . S
C2423 C867 1.500 . S
C2437 C417 1.500 . S
C2441 C117 1.501 . S
C2455 C147 1.500 . S
C2459 C447 1.501 . S
C2473 C177 1.502 . S
C2477 C387 1.500 . S
C2491 C196 1.505 . S
C2495 C706 1.509 . S
C2509 C226 1.509 . S
C2513 C646 1.504 . S
C2527 C256 1.508 . S
C2531 C676 1.511 . S
C2545 C946 1.500 . S
C2549 C286 1.503 . S
C2563 C976 1.501 . S
C2567 C316 1.506 . S
C2581 C916 1.500 . S
C2585 C346 1.502 . S
C2599 C477 1.511 . S
C2603 C777 1.507 . S
C2617 C507 1.503 . S
C2621 C807 1.500 . S
C2635 C537 1.500 . S
C2639 C747 1.503 . S
C2653 C556 1.500 . S
C2657 C1066 1.501 . S
C2671 C1006 1.508 . S
C2675 C586 1.503 . S
C2689 C616 1.501 . S
C2693 C1036 1.500 . S
C2707 C136 2.077 . S
C2711 C16 2.079 . S
C2725 C166 2.079 . S
C2729 C46 2.082 . S
C2743 C106 2.076 . S
C2747 C76 2.076 . S
C2761 C207 2.077 . S
C2765 C327 2.079 . S
C2779 C357 2.078 . S
C2783 C237 2.081 . S
C2797 C267 2.079 . S
C2801 C297 2.081 . S
C2815 C496 2.076 . S
C2819 C376 2.077 . S
C2833 C526 2.081 . S
C2837 C406 2.083 . S
C2851 C466 2.076 . S
C2855 C436 2.077 . S
C2869 C687 2.084 . S
C2873 C567 2.083 . S
C2887 C597 2.076 . S
C2891 C717 2.077 . S
C2905 C627 2.084 . S
C2909 C657 2.082 . S
C2923 C736 2.079 . S
C2927 C856 2.081 . S
C2941 C886 2.077 . S
C2945 C766 2.079 . S
C2959 C796 2.077 . S
C2963 C826 2.076 . S
C2977 C927 2.084 . S
C2981 C1047 2.083 . S
C2995 C1077 2.082 . S
C2999 C957 2.084 . S
C3013 C987 2.084 . S
C3017 C1017 2.083 . S
