# Generated by pormake.
# Topology uod, (4)-cn, num edge types: 1
# Building blocks:
#     Node 0, Type 0, BuildingBlock: GALJAG_clean_sbu_0, # of connection points: 4
#     Node 1, Type 0, BuildingBlock: GALJAG_clean_sbu_0, # of connection points: 4
#     Node 2, Type 0, BuildingBlock: GALJAG_clean_sbu_0, # of connection points: 4
#     Node 3, Type 0, BuildingBlock: GALJAG_clean_sbu_0, # of connection points: 4
#     Node 4, Type 0, BuildingBlock: GALJAG_clean_sbu_0, # of connection points: 4
#     Node 5, Type 0, BuildingBlock: GALJAG_clean_sbu_0, # of connection points: 4
#     Node 6, Type 0, BuildingBlock: GALJAG_clean_sbu_0, # of connection points: 4
#     Node 7, Type 0, BuildingBlock: GALJAG_clean_sbu_0, # of connection points: 4
#     Node 8, Type 0, BuildingBlock: GALJAG_clean_sbu_0, # of connection points: 4
#     Node 9, Type 0, BuildingBlock: GALJAG_clean_sbu_0, # of connection points: 4
#     Node 10, Type 0, BuildingBlock: GALJAG_clean_sbu_0, # of connection points: 4
#     Node 11, Type 0, BuildingBlock: GALJAG_clean_sbu_0, # of connection points: 4
#     Node 12, Type 0, BuildingBlock: GALJAG_clean_sbu_0, # of connection points: 4
#     Node 13, Type 0, BuildingBlock: GALJAG_clean_sbu_0, # of connection points: 4
#     Node 14, Type 0, BuildingBlock: GALJAG_clean_sbu_0, # of connection points: 4
#     Node 15, Type 0, BuildingBlock: GALJAG_clean_sbu_0, # of connection points: 4
#     Node 16, Type 0, BuildingBlock: GALJAG_clean_sbu_0, # of connection points: 4
#     Node 17, Type 0, BuildingBlock: GALJAG_clean_sbu_0, # of connection points: 4
#     Node 18, Type 0, BuildingBlock: GALJAG_clean_sbu_0, # of connection points: 4
#     Node 19, Type 0, BuildingBlock: GALJAG_clean_sbu_0, # of connection points: 4
#     Node 20, Type 0, BuildingBlock: GALJAG_clean_sbu_0, # of connection points: 4
#     Node 21, Type 0, BuildingBlock: GALJAG_clean_sbu_0, # of connection points: 4
#     Node 22, Type 0, BuildingBlock: GALJAG_clean_sbu_0, # of connection points: 4
#     Node 23, Type 0, BuildingBlock: GALJAG_clean_sbu_0, # of connection points: 4
#     Node 24, Type 0, BuildingBlock: GALJAG_clean_sbu_0, # of connection points: 4
#     Node 25, Type 0, BuildingBlock: GALJAG_clean_sbu_0, # of connection points: 4
#     Node 26, Type 0, BuildingBlock: GALJAG_clean_sbu_0, # of connection points: 4
#     Node 27, Type 0, BuildingBlock: GALJAG_clean_sbu_0, # of connection points: 4
#     Node 28, Type 0, BuildingBlock: GALJAG_clean_sbu_0, # of connection points: 4
#     Node 29, Type 0, BuildingBlock: GALJAG_clean_sbu_0, # of connection points: 4
#     Node 30, Type 0, BuildingBlock: GALJAG_clean_sbu_0, # of connection points: 4
#     Node 31, Type 0, BuildingBlock: GALJAG_clean_sbu_0, # of connection points: 4
#     Edge 32, Type (0, 0), BuildingBlock: MIFKUJ_clean_linker_0, # of connection points: 2
#     Edge 33, Type (0, 0), BuildingBlock: MIFKUJ_clean_linker_0, # of connection points: 2
#     Edge 34, Type (0, 0), BuildingBlock: MIFKUJ_clean_linker_0, # of connection points: 2
#     Edge 35, Type (0, 0), BuildingBlock: MIFKUJ_clean_linker_0, # of connection points: 2
#     Edge 36, Type (0, 0), BuildingBlock: MIFKUJ_clean_linker_0, # of connection points: 2
#     Edge 37, Type (0, 0), BuildingBlock: MIFKUJ_clean_linker_0, # of connection points: 2
#     Edge 38, Type (0, 0), BuildingBlock: MIFKUJ_clean_linker_0, # of connection points: 2
#     Edge 39, Type (0, 0), BuildingBlock: MIFKUJ_clean_linker_0, # of connection points: 2
#     Edge 40, Type (0, 0), BuildingBlock: MIFKUJ_clean_linker_0, # of connection points: 2
#     Edge 41, Type (0, 0), BuildingBlock: MIFKUJ_clean_linker_0, # of connection points: 2
#     Edge 42, Type (0, 0), BuildingBlock: MIFKUJ_clean_linker_0, # of connection points: 2
#     Edge 43, Type (0, 0), BuildingBlock: MIFKUJ_clean_linker_0, # of connection points: 2
#     Edge 44, Type (0, 0), BuildingBlock: MIFKUJ_clean_linker_0, # of connection points: 2
#     Edge 45, Type (0, 0), BuildingBlock: MIFKUJ_clean_linker_0, # of connection points: 2
#     Edge 46, Type (0, 0), BuildingBlock: MIFKUJ_clean_linker_0, # of connection points: 2
#     Edge 47, Type (0, 0), BuildingBlock: MIFKUJ_clean_linker_0, # of connection points: 2
#     Edge 48, Type (0, 0), BuildingBlock: MIFKUJ_clean_linker_0, # of connection points: 2
#     Edge 49, Type (0, 0), BuildingBlock: MIFKUJ_clean_linker_0, # of connection points: 2
#     Edge 50, Type (0, 0), BuildingBlock: MIFKUJ_clean_linker_0, # of connection points: 2
#     Edge 51, Type (0, 0), BuildingBlock: MIFKUJ_clean_linker_0, # of connection points: 2
#     Edge 52, Type (0, 0), BuildingBlock: MIFKUJ_clean_linker_0, # of connection points: 2
#     Edge 53, Type (0, 0), BuildingBlock: MIFKUJ_clean_linker_0, # of connection points: 2
#     Edge 54, Type (0, 0), BuildingBlock: MIFKUJ_clean_linker_0, # of connection points: 2
#     Edge 55, Type (0, 0), BuildingBlock: MIFKUJ_clean_linker_0, # of connection points: 2
#     Edge 56, Type (0, 0), BuildingBlock: MIFKUJ_clean_linker_0, # of connection points: 2
#     Edge 57, Type (0, 0), BuildingBlock: MIFKUJ_clean_linker_0, # of connection points: 2
#     Edge 58, Type (0, 0), BuildingBlock: MIFKUJ_clean_linker_0, # of connection points: 2
#     Edge 59, Type (0, 0), BuildingBlock: MIFKUJ_clean_linker_0, # of connection points: 2
#     Edge 60, Type (0, 0), BuildingBlock: MIFKUJ_clean_linker_0, # of connection points: 2
#     Edge 61, Type (0, 0), BuildingBlock: MIFKUJ_clean_linker_0, # of connection points: 2
#     Edge 62, Type (0, 0), BuildingBlock: MIFKUJ_clean_linker_0, # of connection points: 2
#     Edge 63, Type (0, 0), BuildingBlock: MIFKUJ_clean_linker_0, # of connection points: 2
#     Edge 64, Type (0, 0), BuildingBlock: MIFKUJ_clean_linker_0, # of connection points: 2
#     Edge 65, Type (0, 0), BuildingBlock: MIFKUJ_clean_linker_0, # of connection points: 2
#     Edge 66, Type (0, 0), BuildingBlock: MIFKUJ_clean_linker_0, # of connection points: 2
#     Edge 67, Type (0, 0), BuildingBlock: MIFKUJ_clean_linker_0, # of connection points: 2
#     Edge 68, Type (0, 0), BuildingBlock: MIFKUJ_clean_linker_0, # of connection points: 2
#     Edge 69, Type (0, 0), BuildingBlock: MIFKUJ_clean_linker_0, # of connection points: 2
#     Edge 70, Type (0, 0), BuildingBlock: MIFKUJ_clean_linker_0, # of connection points: 2
#     Edge 71, Type (0, 0), BuildingBlock: MIFKUJ_clean_linker_0, # of connection points: 2
#     Edge 72, Type (0, 0), BuildingBlock: MIFKUJ_clean_linker_0, # of connection points: 2
#     Edge 73, Type (0, 0), BuildingBlock: MIFKUJ_clean_linker_0, # of connection points: 2
#     Edge 74, Type (0, 0), BuildingBlock: MIFKUJ_clean_linker_0, # of connection points: 2
#     Edge 75, Type (0, 0), BuildingBlock: MIFKUJ_clean_linker_0, # of connection points: 2
#     Edge 76, Type (0, 0), BuildingBlock: MIFKUJ_clean_linker_0, # of connection points: 2
#     Edge 77, Type (0, 0), BuildingBlock: MIFKUJ_clean_linker_0, # of connection points: 2
#     Edge 78, Type (0, 0), BuildingBlock: MIFKUJ_clean_linker_0, # of connection points: 2
#     Edge 79, Type (0, 0), BuildingBlock: MIFKUJ_clean_linker_0, # of connection points: 2
#     Edge 80, Type (0, 0), BuildingBlock: MIFKUJ_clean_linker_0, # of connection points: 2
#     Edge 81, Type (0, 0), BuildingBlock: MIFKUJ_clean_linker_0, # of connection points: 2
#     Edge 82, Type (0, 0), BuildingBlock: MIFKUJ_clean_linker_0, # of connection points: 2
#     Edge 83, Type (0, 0), BuildingBlock: MIFKUJ_clean_linker_0, # of connection points: 2
#     Edge 84, Type (0, 0), BuildingBlock: MIFKUJ_clean_linker_0, # of connection points: 2
#     Edge 85, Type (0, 0), BuildingBlock: MIFKUJ_clean_linker_0, # of connection points: 2
#     Edge 86, Type (0, 0), BuildingBlock: MIFKUJ_clean_linker_0, # of connection points: 2
#     Edge 87, Type (0, 0), BuildingBlock: MIFKUJ_clean_linker_0, # of connection points: 2
#     Edge 88, Type (0, 0), BuildingBlock: MIFKUJ_clean_linker_0, # of connection points: 2
#     Edge 89, Type (0, 0), BuildingBlock: MIFKUJ_clean_linker_0, # of connection points: 2
#     Edge 90, Type (0, 0), BuildingBlock: MIFKUJ_clean_linker_0, # of connection points: 2
#     Edge 91, Type (0, 0), BuildingBlock: MIFKUJ_clean_linker_0, # of connection points: 2
#     Edge 92, Type (0, 0), BuildingBlock: MIFKUJ_clean_linker_0, # of connection points: 2
#     Edge 93, Type (0, 0), BuildingBlock: MIFKUJ_clean_linker_0, # of connection points: 2
#     Edge 94, Type (0, 0), BuildingBlock: MIFKUJ_clean_linker_0, # of connection points: 2
#     Edge 95, Type (0, 0), BuildingBlock: MIFKUJ_clean_linker_0, # of connection points: 2
# Relax obj value: 0.120
# Max RMSD: 0.152
# Mean RMSD: 0.152
data_MOF--net-uod--node1-GALJAG_clean_sbu_0--edge1-MIFKUJ_clean_linker_0
_symmetry_space_group_name_H-M    P1
_symmetry_Int_Tables_number       1
_symmetry_cell_setting            triclinic
loop_
_symmetry_equiv_pos_as_xyz
'x, y, z'
_cell_length_a     124.90734
_cell_length_b     36.161921
_cell_length_c     67.932107
_cell_angle_alpha  89.961207
_cell_angle_beta   89.988317
_cell_angle_gamma 89.972624
loop_
_atom_site_label
_atom_site_type_symbol
_atom_site_fract_x
_atom_site_fract_y
_atom_site_fract_z
_atom_type_partial_charge
In0 In 0.05659 0.40257 0.09731 0.0
O1 O 0.05512 0.41524 0.06424 0.0
O2 O 0.04149 0.39476 0.07949 0.0
C3 C 0.07767 0.39991 0.10568 0.0
C4 C 0.05028 0.46999 0.10904 0.0
C5 C 0.05138 0.33518 0.1103 0.0
O6 O 0.07421 0.39831 0.08818 0.0
O7 O 0.07052 0.40315 0.11871 0.0
O8 O 0.0485 0.3642 0.11927 0.0
O9 O 0.05689 0.3404 0.09491 0.0
C10 C 0.04526 0.40727 0.06363 0.0
O11 O 0.04648 0.44101 0.11679 0.0
O12 O 0.0576 0.46454 0.09663 0.0
In13 In 0.20017 0.84746 0.09059 0.0
O14 O 0.20947 0.81015 0.11171 0.0
O15 O 0.1979 0.78589 0.09258 0.0
C16 C 0.2055 0.91551 0.10255 0.0
C17 C 0.21291 0.83549 0.05927 0.0
C18 C 0.17888 0.85299 0.09648 0.0
O19 O 0.20611 0.88774 0.11383 0.0
O20 O 0.20228 0.90876 0.0853 0.0
O21 O 0.18293 0.85577 0.07942 0.0
O22 O 0.18555 0.84719 0.11008 0.0
C23 C 0.20504 0.78098 0.10544 0.0
O24 O 0.20281 0.83289 0.05795 0.0
O25 O 0.21629 0.84609 0.0758 0.0
In26 In 0.04615 0.88359 0.15519 0.0
O27 O 0.04463 0.8548 0.18556 0.0
O28 O 0.03052 0.86971 0.17009 0.0
C29 C 0.0673 0.88627 0.14751 0.0
C30 C 0.04087 0.83228 0.1285 0.0
C31 C 0.04165 0.95617 0.15516 0.0
O32 O 0.06374 0.87702 0.16429 0.0
O33 O 0.06021 0.89473 0.13504 0.0
O34 O 0.03827 0.93446 0.14202 0.0
O35 O 0.04728 0.94126 0.16841 0.0
C36 C 0.0345 0.85434 0.185 0.0
O37 O 0.03582 0.86244 0.12972 0.0
O38 O 0.04853 0.82864 0.14041 0.0
In39 In 0.21093 0.37104 0.15878 0.0
O40 O 0.21126 0.41339 0.18381 0.0
O41 O 0.22228 0.36863 0.18479 0.0
C42 C 0.18971 0.38455 0.15441 0.0
C43 C 0.22266 0.41379 0.13433 0.0
C44 C 0.21328 0.29771 0.15242 0.0
O45 O 0.19349 0.37037 0.16991 0.0
O46 O 0.19661 0.39251 0.1416 0.0
O47 O 0.21616 0.32168 0.14007 0.0
O48 O 0.20928 0.31067 0.16796 0.0
C49 C 0.21903 0.39824 0.19259 0.0
O50 O 0.2262 0.4022 0.15057 0.0
O51 O 0.21344 0.40217 0.13002 0.0
In52 In 0.95643 0.60816 0.91608 0.0
O53 O 0.95842 0.59183 0.94845 0.0
O54 O 0.97177 0.6152 0.93343 0.0
C55 C 0.93514 0.60363 0.90927 0.0
C56 C 0.96383 0.54494 0.90065 0.0
C57 C 0.9604 0.67791 0.90474 0.0
O58 O 0.93884 0.61035 0.92623 0.0
O59 O 0.94214 0.59878 0.89616 0.0
O60 O 0.96445 0.65035 0.89605 0.0
O61 O 0.95448 0.67017 0.91925 0.0
C62 C 0.96826 0.60028 0.94895 0.0
O63 O 0.96407 0.57482 0.89097 0.0
O64 O 0.95959 0.54708 0.91744 0.0
In65 In 0.79995 0.13024 0.91135 0.0
O66 O 0.79962 0.16798 0.93851 0.0
O67 O 0.78929 0.12141 0.93796 0.0
C68 C 0.82099 0.13113 0.90191 0.0
C69 C 0.78931 0.18309 0.89138 0.0
C70 C 0.79607 0.05879 0.90367 0.0
O71 O 0.81786 0.13333 0.91962 0.0
O72 O 0.81356 0.12861 0.88944 0.0
O73 O 0.79354 0.08424 0.89179 0.0
O74 O 0.80046 0.06951 0.91941 0.0
C75 C 0.79213 0.1504 0.94681 0.0
O76 O 0.78459 0.15507 0.89822 0.0
O77 O 0.7993 0.18329 0.89387 0.0
In78 In 0.95109 0.11767 0.82278 0.0
O79 O 0.95158 0.13331 0.79002 0.0
O80 O 0.9653 0.1081 0.80282 0.0
C81 C 0.93038 0.12303 0.83406 0.0
C82 C 0.95949 0.18092 0.83633 0.0
C83 C 0.95556 0.04835 0.83414 0.0
O84 O 0.93298 0.11673 0.81635 0.0
O85 O 0.93817 0.12678 0.84569 0.0
O86 O 0.96015 0.07619 0.84156 0.0
O87 O 0.94874 0.05554 0.82093 0.0
C88 C 0.96123 0.1233 0.78789 0.0
O89 O 0.9609 0.15055 0.84521 0.0
O90 O 0.95363 0.17921 0.82126 0.0
In91 In 0.80218 0.60246 0.84945 0.0
O92 O 0.80148 0.57803 0.81821 0.0
O93 O 0.78758 0.60396 0.82982 0.0
C94 C 0.82335 0.60401 0.85722 0.0
C95 C 0.79441 0.54308 0.86848 0.0
C96 C 0.79799 0.67354 0.8574 0.0
O97 O 0.81981 0.60228 0.83978 0.0
O98 O 0.81624 0.60483 0.87041 0.0
O99 O 0.79631 0.64799 0.86972 0.0
O100 O 0.80173 0.66312 0.84103 0.0
C101 C 0.7917 0.58602 0.81585 0.0
O102 O 0.78988 0.57423 0.86949 0.0
O103 O 0.80301 0.54268 0.85878 0.0
In104 In 0.04907 0.88866 0.6129 0.0
O105 O 0.0499 0.92848 0.58657 0.0
O106 O 0.03641 0.8931 0.58916 0.0
C107 C 0.07041 0.89162 0.61886 0.0
C108 C 0.03758 0.93793 0.63393 0.0
C109 C 0.04604 0.81496 0.61657 0.0
O110 O 0.06636 0.88925 0.60184 0.0
O111 O 0.06369 0.89277 0.63276 0.0
O112 O 0.04526 0.83683 0.63101 0.0
O113 O 0.04825 0.83033 0.60039 0.0
C114 C 0.04074 0.9197 0.5802 0.0
O115 O 0.03365 0.90798 0.62777 0.0
O116 O 0.04756 0.94076 0.6315 0.0
In117 In 0.20318 0.35632 0.59652 0.0
O118 O 0.2047 0.33467 0.56481 0.0
O119 O 0.2174 0.36669 0.57658 0.0
C120 C 0.18175 0.35339 0.60095 0.0
C121 C 0.21135 0.29452 0.61292 0.0
C122 C 0.20588 0.42557 0.60995 0.0
O123 O 0.1861 0.35676 0.58419 0.0
O124 O 0.18822 0.35144 0.61521 0.0
O125 O 0.20854 0.39755 0.61998 0.0
O126 O 0.20199 0.41847 0.59323 0.0
C127 C 0.21402 0.34751 0.56242 0.0
O128 O 0.21648 0.32456 0.61272 0.0
O129 O 0.20201 0.29652 0.60599 0.0
In130 In 0.04608 0.34445 0.63549 0.0
O131 O 0.0332 0.32076 0.61476 0.0
O132 O 0.04722 0.2891 0.61986 0.0
C133 C 0.04325 0.41823 0.63203 0.0
C134 C 0.03527 0.32076 0.66763 0.0
C135 C 0.06758 0.34441 0.63141 0.0
O136 O 0.04183 0.39643 0.61771 0.0
O137 O 0.04592 0.4027 0.64792 0.0
O138 O 0.0631 0.34027 0.64799 0.0
O139 O 0.06122 0.34832 0.61711 0.0
C140 C 0.03815 0.29078 0.61184 0.0
O141 O 0.04487 0.31146 0.6644 0.0
O142 O 0.03144 0.34305 0.65523 0.0
In143 In 0.20598 0.88333 0.65505 0.0
O144 O 0.21635 0.90378 0.62942 0.0
O145 O 0.20379 0.93839 0.63991 0.0
C146 C 0.20941 0.80978 0.65413 0.0
C147 C 0.21856 0.91071 0.68403 0.0
C148 C 0.18445 0.88392 0.65144 0.0
O149 O 0.2114 0.83056 0.63965 0.0
O150 O 0.20581 0.82618 0.66912 0.0
O151 O 0.18908 0.8924 0.6674 0.0
O152 O 0.19068 0.87505 0.63758 0.0
C153 C 0.21149 0.93432 0.62809 0.0
O154 O 0.20846 0.91036 0.68548 0.0
O155 O 0.22214 0.89633 0.6685 0.0
In156 In 0.95849 0.12008 0.42049 0.0
O157 O 0.96063 0.11064 0.45383 0.0
O158 O 0.97432 0.12299 0.43633 0.0
C159 C 0.93758 0.12262 0.4109 0.0
C160 C 0.96296 0.05233 0.40692 0.0
C161 C 0.96266 0.18914 0.40891 0.0
O162 O 0.94064 0.12233 0.42873 0.0
O163 O 0.94504 0.12153 0.39835 0.0
O164 O 0.96617 0.16141 0.3995 0.0
O165 O 0.95728 0.18171 0.42417 0.0
C166 C 0.9707 0.11498 0.45312 0.0
O167 O 0.96763 0.0806 0.40003 0.0
O168 O 0.95611 0.05872 0.42013 0.0
In169 In 0.79407 0.63209 0.39526 0.0
O170 O 0.79343 0.66484 0.42447 0.0
O171 O 0.77893 0.64531 0.412 0.0
C172 C 0.8153 0.62944 0.38834 0.0
C173 C 0.78773 0.68229 0.36853 0.0
C174 C 0.79003 0.55915 0.39479 0.0
O175 O 0.81155 0.63666 0.40526 0.0
O176 O 0.80834 0.6235 0.37522 0.0
O177 O 0.78698 0.58058 0.38125 0.0
O178 O 0.79499 0.57458 0.40872 0.0
C179 C 0.78332 0.66388 0.4254 0.0
O180 O 0.78209 0.65435 0.37258 0.0
O181 O 0.79656 0.68396 0.37743 0.0
In182 In 0.9494 0.63328 0.33717 0.0
O183 O 0.96351 0.65906 0.35357 0.0
O184 O 0.94812 0.68284 0.35749 0.0
C185 C 0.95476 0.56277 0.34474 0.0
C186 C 0.95854 0.65801 0.30355 0.0
C187 C 0.92801 0.63069 0.34291 0.0
O188 O 0.95834 0.58954 0.35466 0.0
O189 O 0.94839 0.57151 0.33108 0.0
O190 O 0.93202 0.63447 0.32589 0.0
O191 O 0.93478 0.62813 0.35663 0.0
C192 C 0.95797 0.68423 0.36135 0.0
O193 O 0.95116 0.67564 0.31209 0.0
O194 O 0.96048 0.62676 0.3109 0.0
In195 In 0.80691 0.10933 0.33534 0.0
O196 O 0.80667 0.08128 0.30489 0.0
O197 O 0.79395 0.11747 0.31221 0.0
C198 C 0.82778 0.1129 0.34551 0.0
C199 C 0.79941 0.04862 0.35346 0.0
C200 C 0.80182 0.17847 0.34571 0.0
O201 O 0.8248 0.11465 0.32771 0.0
O202 O 0.82028 0.10931 0.35781 0.0
O203 O 0.79818 0.1506 0.35476 0.0
O204 O 0.80793 0.17131 0.33137 0.0
C205 C 0.79775 0.09487 0.29999 0.0
O206 O 0.79439 0.07891 0.35406 0.0
O207 O 0.8082 0.04968 0.34437 0.0
In208 In 0.55092 0.38915 0.59897 0.0
O209 O 0.54987 0.40119 0.5657 0.0
O210 O 0.53568 0.3872 0.58135 0.0
C211 C 0.57177 0.38938 0.60905 0.0
C212 C 0.54407 0.45511 0.61163 0.0
C213 C 0.5465 0.31933 0.60915 0.0
O214 O 0.56875 0.38727 0.59127 0.0
O215 O 0.56427 0.39175 0.62149 0.0
O216 O 0.54327 0.34648 0.6193 0.0
O217 O 0.55188 0.32765 0.59403 0.0
C218 C 0.53979 0.3974 0.5653 0.0
O219 O 0.54011 0.42536 0.61824 0.0
O220 O 0.55184 0.45102 0.59997 0.0
In221 In 0.69736 0.85687 0.58028 0.0
O222 O 0.70126 0.85616 0.54723 0.0
O223 O 0.71398 0.86214 0.56791 0.0
C224 C 0.67599 0.85614 0.58574 0.0
C225 C 0.70217 0.78633 0.58822 0.0
C226 C 0.70159 0.92144 0.59792 0.0
O227 O 0.68008 0.8639 0.56916 0.0
O228 O 0.68266 0.84859 0.5991 0.0
O229 O 0.70419 0.89078 0.60556 0.0
O230 O 0.69698 0.91926 0.5814 0.0
C231 C 0.71128 0.85832 0.55014 0.0
O232 O 0.70455 0.81215 0.60003 0.0
O233 O 0.69706 0.79622 0.57309 0.0
In234 In 0.54215 0.85844 0.63946 0.0
O235 O 0.54164 0.81787 0.66577 0.0
O236 O 0.52875 0.85526 0.66174 0.0
C237 C 0.56331 0.85819 0.63172 0.0
C238 C 0.53289 0.81188 0.61364 0.0
C239 C 0.53905 0.93191 0.63898 0.0
O240 O 0.55967 0.85138 0.64876 0.0
O241 O 0.55628 0.865 0.61884 0.0
O242 O 0.53537 0.91086 0.6258 0.0
O243 O 0.54431 0.91593 0.65238 0.0
C244 C 0.53247 0.82834 0.67128 0.0
O245 O 0.528 0.83937 0.62063 0.0
O246 O 0.54253 0.8092 0.61886 0.0
In247 In 0.7042 0.36359 0.67123 0.0
O248 O 0.70685 0.3868 0.70219 0.0
O249 O 0.72013 0.3632 0.68701 0.0
C250 C 0.6829 0.36826 0.6646 0.0
C251 C 0.71102 0.42146 0.64999 0.0
C252 C 0.7076 0.29078 0.66671 0.0
O253 O 0.68671 0.36851 0.68187 0.0
O254 O 0.68979 0.36564 0.65113 0.0
O255 O 0.71128 0.31453 0.65483 0.0
O256 O 0.7023 0.3039 0.68093 0.0
C257 C 0.71681 0.38008 0.70208 0.0
O258 O 0.71139 0.38892 0.64319 0.0
O259 O 0.70711 0.42436 0.66702 0.0
In260 In 0.45955 0.59947 0.39692 0.0
O261 O 0.46191 0.58507 0.42959 0.0
O262 O 0.47563 0.59531 0.41171 0.0
C263 C 0.43821 0.60241 0.39115 0.0
C264 C 0.46505 0.534 0.38152 0.0
C265 C 0.4642 0.66972 0.38764 0.0
O266 O 0.44227 0.60365 0.40824 0.0
O267 O 0.44491 0.59945 0.37732 0.0
O268 O 0.46492 0.64392 0.37512 0.0
O269 O 0.46129 0.65979 0.40464 0.0
C270 C 0.47204 0.58573 0.42831 0.0
O271 O 0.4692 0.5638 0.37534 0.0
O272 O 0.4578 0.53801 0.39427 0.0
In273 In 0.30049 0.14087 0.41053 0.0
O274 O 0.28722 0.17342 0.39498 0.0
O275 O 0.30254 0.19823 0.39798 0.0
C276 C 0.29546 0.0731 0.39775 0.0
C277 C 0.29041 0.15598 0.44474 0.0
C278 C 0.32188 0.13691 0.40521 0.0
O279 O 0.29435 0.10151 0.38711 0.0
O280 O 0.29909 0.079 0.41482 0.0
O281 O 0.31777 0.13643 0.42226 0.0
O282 O 0.31523 0.13918 0.3913 0.0
C283 C 0.29299 0.20154 0.3923 0.0
O284 O 0.29952 0.16928 0.44078 0.0
O285 O 0.28697 0.13311 0.43228 0.0
In286 In 0.45564 0.13236 0.34962 0.0
O287 O 0.45682 0.18254 0.3293 0.0
O288 O 0.46331 0.13172 0.31916 0.0
C289 C 0.43446 0.13679 0.35809 0.0
C290 C 0.46927 0.1738 0.37096 0.0
C291 C 0.45946 0.05938 0.35355 0.0
O292 O 0.43792 0.13657 0.34061 0.0
O293 O 0.44165 0.13522 0.37106 0.0
O294 O 0.4613 0.0823 0.36712 0.0
O295 O 0.45571 0.07328 0.33797 0.0
C296 C 0.46216 0.16596 0.31621 0.0
O297 O 0.47245 0.14911 0.35923 0.0
O298 O 0.45923 0.17564 0.37294 0.0
In299 In 0.30341 0.62124 0.34902 0.0
O300 O 0.30063 0.59364 0.31879 0.0
O301 O 0.28715 0.61025 0.33569 0.0
C302 C 0.3249 0.62451 0.35268 0.0
C303 C 0.29863 0.56775 0.37492 0.0
C304 C 0.29865 0.69334 0.35165 0.0
O305 O 0.32047 0.61676 0.33642 0.0
O306 O 0.3185 0.63109 0.36661 0.0
O307 O 0.29779 0.67139 0.36602 0.0
O308 O 0.30199 0.67892 0.33587 0.0
C309 C 0.29053 0.59487 0.32027 0.0
O310 O 0.29371 0.59826 0.37484 0.0
O311 O 0.306 0.56491 0.36232 0.0
In312 In 0.55293 0.89108 0.09654 0.0
O313 O 0.54213 0.92562 0.11696 0.0
O314 O 0.5511 0.95281 0.09458 0.0
C315 C 0.54974 0.82159 0.10915 0.0
C316 C 0.54189 0.89306 0.06253 0.0
C317 C 0.574 0.89756 0.10481 0.0
O318 O 0.54585 0.84921 0.11809 0.0
O319 O 0.55518 0.82923 0.09401 0.0
O320 O 0.57061 0.89106 0.08761 0.0
O321 O 0.56676 0.90111 0.11766 0.0
C322 C 0.54426 0.95557 0.10814 0.0
O323 O 0.55156 0.90334 0.06352 0.0
O324 O 0.53821 0.87946 0.07822 0.0
In325 In 0.7057 0.35282 0.1019 0.0
O326 O 0.72176 0.33118 0.11303 0.0
O327 O 0.70763 0.30774 0.12501 0.0
C328 C 0.70852 0.42592 0.10751 0.0
C329 C 0.71333 0.32706 0.06725 0.0
C330 C 0.68458 0.346 0.10989 0.0
O331 O 0.71308 0.4019 0.11806 0.0
O332 O 0.70261 0.41305 0.0941 0.0
O333 O 0.68821 0.34394 0.09253 0.0
O334 O 0.6916 0.35105 0.12297 0.0
C335 C 0.71771 0.3071 0.12418 0.0
O336 O 0.70702 0.30853 0.0779 0.0
O337 O 0.71499 0.35955 0.07324 0.0
In338 In 0.55136 0.36694 0.16787 0.0
O339 O 0.53542 0.34075 0.1592 0.0
O340 O 0.54934 0.324 0.14364 0.0
C341 C 0.54767 0.4395 0.16136 0.0
C342 C 0.54426 0.34044 0.20265 0.0
C343 C 0.57248 0.35918 0.15997 0.0
O344 O 0.54306 0.41441 0.15165 0.0
O345 O 0.55407 0.42799 0.17434 0.0
O346 O 0.5689 0.35938 0.1774 0.0
O347 O 0.56543 0.3628 0.14682 0.0
C348 C 0.53945 0.3194 0.14655 0.0
O349 O 0.5501 0.32184 0.19116 0.0
O350 O 0.54292 0.37367 0.19753 0.0
In351 In 0.70788 0.88778 0.15676 0.0
O352 O 0.72387 0.91202 0.14712 0.0
O353 O 0.70985 0.93268 0.13338 0.0
C354 C 0.71023 0.81485 0.14984 0.0
C355 C 0.71622 0.9113 0.19121 0.0
C356 C 0.68667 0.89674 0.15043 0.0
O357 O 0.71453 0.83915 0.13909 0.0
O358 O 0.70488 0.82737 0.1641 0.0
O359 O 0.69066 0.89733 0.16756 0.0
O360 O 0.69339 0.8922 0.13677 0.0
C361 C 0.71985 0.93523 0.13546 0.0
O362 O 0.70933 0.92985 0.1818 0.0
O363 O 0.718 0.87956 0.18425 0.0
In364 In 0.4559 0.11012 0.91406 0.0
O365 O 0.45684 0.07005 0.94029 0.0
O366 O 0.46761 0.11537 0.93956 0.0
C367 C 0.43452 0.09836 0.91079 0.0
C368 C 0.46601 0.0637 0.88913 0.0
C369 C 0.45913 0.18238 0.90535 0.0
O370 O 0.43857 0.11412 0.92564 0.0
O371 O 0.44125 0.08778 0.89818 0.0
O372 O 0.46394 0.15663 0.89656 0.0
O373 O 0.45274 0.17176 0.91852 0.0
C374 C 0.46474 0.08609 0.94816 0.0
O375 O 0.45722 0.07898 0.88491 0.0
O376 O 0.46989 0.07326 0.90546 0.0
In377 In 0.29491 0.632 0.89713 0.0
O378 O 0.29396 0.64726 0.93004 0.0
O379 O 0.27979 0.63045 0.91515 0.0
C380 C 0.31611 0.62945 0.88995 0.0
C381 C 0.28841 0.69723 0.88244 0.0
C382 C 0.29026 0.56318 0.88533 0.0
O383 O 0.3124 0.62826 0.90732 0.0
O384 O 0.30913 0.63196 0.87657 0.0
O385 O 0.28914 0.59078 0.87407 0.0
O386 O 0.29363 0.57053 0.90241 0.0
C387 C 0.28392 0.64237 0.93083 0.0
O388 O 0.28311 0.66796 0.87963 0.0
O389 O 0.29712 0.69287 0.89153 0.0
In390 In 0.44937 0.62729 0.83149 0.0
O391 O 0.45846 0.66566 0.85256 0.0
O392 O 0.44859 0.68938 0.83031 0.0
C393 C 0.45405 0.55882 0.84402 0.0
C394 C 0.46106 0.63246 0.79822 0.0
C395 C 0.42825 0.62687 0.83971 0.0
O396 O 0.45745 0.58734 0.85281 0.0
O397 O 0.44838 0.56505 0.82897 0.0
O398 O 0.43173 0.62384 0.82228 0.0
O399 O 0.4354 0.63021 0.85272 0.0
C400 C 0.45504 0.69473 0.84428 0.0
O401 O 0.45101 0.63722 0.79821 0.0
O402 O 0.46494 0.62324 0.81463 0.0
In403 In 0.30107 0.10516 0.85454 0.0
O404 O 0.29975 0.0791 0.82359 0.0
O405 O 0.28549 0.09197 0.83924 0.0
C406 C 0.32243 0.10634 0.86095 0.0
C407 C 0.29422 0.05479 0.88083 0.0
C408 C 0.29671 0.1779 0.85437 0.0
O409 O 0.31844 0.09307 0.84535 0.0
O410 O 0.31567 0.11922 0.87294 0.0
O411 O 0.29553 0.1579 0.86945 0.0
O412 O 0.30019 0.16125 0.83934 0.0
C413 C 0.28961 0.07857 0.8239 0.0
O414 O 0.28966 0.08569 0.87879 0.0
O415 O 0.30235 0.05008 0.87013 0.0
H416 H 0.02035 0.81325 0.11927 0.0
H417 H 0.01453 0.75036 0.11076 0.0
H418 H 0.04749 0.71771 0.10341 0.0
H419 H 0.05331 0.77988 0.11209 0.0
H420 H 0.02426 0.68154 0.07905 0.0
H421 H 0.0487 0.67585 0.14872 0.0
H422 H 0.05323 0.71761 0.17621 0.0
H423 H 0.02172 0.76489 0.17377 0.0
H424 H 0.01695 0.7229 0.14661 0.0
H425 H 0.05683 0.53339 0.09174 0.0
H426 H 0.04809 0.59337 0.09242 0.0
H427 H 0.02439 0.55147 0.13286 0.0
H428 H 0.03311 0.49032 0.13207 0.0
H429 H 0.03372 0.62248 0.14281 0.0
H430 H 0.01513 0.56725 0.09004 0.0
H431 H 0.0128 0.52948 0.06029 0.0
H432 H 0.03303 0.6035 0.02774 0.0
H433 H 0.03565 0.64149 0.05746 0.0
C434 C 0.02629 0.79308 0.11482 0.0
C435 C 0.03726 0.80089 0.11661 0.0
C436 C 0.02295 0.75728 0.10995 0.0
C437 C 0.03061 0.72958 0.10677 0.0
C438 C 0.04149 0.73889 0.10586 0.0
C439 C 0.04481 0.7743 0.11091 0.0
C440 C 0.02795 0.6903 0.10957 0.0
C441 C 0.02598 0.66835 0.09305 0.0
C442 C 0.03003 0.67354 0.128 0.0
C443 C 0.0325 0.69639 0.14557 0.0
C444 C 0.0427 0.69485 0.15423 0.0
C445 C 0.04533 0.71869 0.16969 0.0
C446 C 0.03781 0.74416 0.17662 0.0
C447 C 0.02759 0.7455 0.16827 0.0
C448 C 0.02491 0.7216 0.15288 0.0
C449 C 0.0498 0.5368 0.10092 0.0
C450 C 0.04564 0.50712 0.11184 0.0
C451 C 0.04475 0.57104 0.10112 0.0
C452 C 0.03546 0.57648 0.11229 0.0
C453 C 0.03148 0.54748 0.12392 0.0
C454 C 0.0365 0.5128 0.12358 0.0
C455 C 0.0304 0.61339 0.11207 0.0
C456 C 0.0312 0.6351 0.12907 0.0
C457 C 0.02713 0.62979 0.09409 0.0
C458 C 0.02557 0.60726 0.07603 0.0
C459 C 0.01913 0.5754 0.07657 0.0
C460 C 0.01776 0.55394 0.05967 0.0
C461 C 0.02276 0.56407 0.04208 0.0
C462 C 0.02914 0.59573 0.04136 0.0
C463 C 0.03056 0.6173 0.05824 0.0
H464 H 0.02171 0.54746 0.02899 0.0
H465 H 0.03987 0.7626 0.18854 0.0
H466 H 0.22358 0.76126 0.12429 0.0
H467 H 0.23071 0.69833 0.12819 0.0
H468 H 0.20213 0.65409 0.10141 0.0
H469 H 0.19499 0.71636 0.09763 0.0
H470 H 0.20806 0.61477 0.1332 0.0
H471 H 0.22464 0.66801 0.07545 0.0
H472 H 0.2355 0.71455 0.05806 0.0
H473 H 0.2629 0.68501 0.09285 0.0
H474 H 0.2521 0.63902 0.11091 0.0
H475 H 0.21624 0.44472 0.09977 0.0
H476 H 0.21883 0.50949 0.09115 0.0
H477 H 0.24222 0.52048 0.13735 0.0
H478 H 0.2397 0.45553 0.14614 0.0
H479 H 0.24132 0.57763 0.09822 0.0
H480 H 0.22305 0.5347 0.16005 0.0
H481 H 0.21233 0.48649 0.17638 0.0
H482 H 0.18841 0.49502 0.13123 0.0
H483 H 0.19907 0.54346 0.11458 0.0
C484 C 0.21876 0.73798 0.1196 0.0
C485 C 0.20874 0.74358 0.11065 0.0
C486 C 0.22287 0.70218 0.12167 0.0
C487 C 0.21699 0.6717 0.11484 0.0
C488 C 0.2068 0.67728 0.10672 0.0
C489 C 0.20273 0.71286 0.10458 0.0
C490 C 0.22137 0.63375 0.11568 0.0
C491 C 0.21535 0.6069 0.1256 0.0
C492 C 0.23097 0.6234 0.10591 0.0
C493 C 0.23751 0.65049 0.09476 0.0
C494 C 0.23295 0.67168 0.07954 0.0
C495 C 0.2391 0.69795 0.06954 0.0
C496 C 0.24988 0.70287 0.07442 0.0
C497 C 0.25454 0.6813 0.08918 0.0
C498 C 0.2484 0.65518 0.09932 0.0
C499 C 0.22236 0.4603 0.10742 0.0
C500 C 0.2275 0.44554 0.12404 0.0
C501 C 0.2239 0.49728 0.10236 0.0
C502 C 0.23055 0.51972 0.11392 0.0
C503 C 0.23704 0.50347 0.12834 0.0
C504 C 0.23553 0.46637 0.1334 0.0
C505 C 0.2279 0.55931 0.1155 0.0
C506 C 0.23417 0.58608 0.10609 0.0
C507 C 0.21854 0.56997 0.12568 0.0
C508 C 0.21183 0.54255 0.13614 0.0
C509 C 0.21549 0.52636 0.15368 0.0
C510 C 0.20943 0.49896 0.16295 0.0
C511 C 0.19969 0.48762 0.15486 0.0
C512 C 0.19595 0.50387 0.1375 0.0
C513 C 0.20197 0.53138 0.12817 0.0
H514 H 0.19503 0.46631 0.16206 0.0
H515 H 0.25462 0.72341 0.0668 0.0
H516 H 0.96072 0.24466 0.81551 0.0
H517 H 0.96668 0.30494 0.8271 0.0
H518 H 0.9748 0.25743 0.88344 0.0
H519 H 0.9688 0.19657 0.87184 0.0
H520 H 0.96099 0.31563 0.88613 0.0
H521 H 0.99498 0.29402 0.85593 0.0
H522 H 0.00721 0.27439 0.82943 0.0
H523 H 0.99389 0.3566 0.79092 0.0
H524 H 0.98166 0.37705 0.8173 0.0
H525 H 0.97223 0.48973 0.9224 0.0
H526 H 0.97662 0.42725 0.91152 0.0
H527 H 0.96884 0.45736 0.85172 0.0
H528 H 0.96485 0.52077 0.86252 0.0
H529 H 0.98503 0.40567 0.8531 0.0
H530 H 0.94978 0.42162 0.88085 0.0
H531 H 0.93682 0.44098 0.90624 0.0
H532 H 0.95144 0.36711 0.94784 0.0
H533 H 0.96458 0.34768 0.92273 0.0
C534 C 0.96391 0.24691 0.83029 0.0
C535 C 0.96416 0.21614 0.84291 0.0
C536 C 0.96743 0.28129 0.8368 0.0
C537 C 0.97126 0.28555 0.85606 0.0
C538 C 0.97193 0.25456 0.86847 0.0
C539 C 0.96848 0.21994 0.86188 0.0
C540 C 0.97307 0.32316 0.86385 0.0
C541 C 0.96648 0.33503 0.87929 0.0
C542 C 0.97994 0.34869 0.85441 0.0
C543 C 0.98738 0.33694 0.83857 0.0
C544 C 0.99464 0.30785 0.8418 0.0
C545 C 1.00159 0.29663 0.82681 0.0
C546 C 1.00128 0.31406 0.80846 0.0
C547 C 0.99411 0.34308 0.80514 0.0
C548 C 0.98722 0.35466 0.82015 0.0
C549 C 0.97167 0.4832 0.90686 0.0
C550 C 0.96802 0.50963 0.89329 0.0
C551 C 0.9742 0.44758 0.90068 0.0
C552 C 0.9728 0.4375 0.88092 0.0
C553 C 0.96993 0.46463 0.86706 0.0
C554 C 0.96761 0.50068 0.87322 0.0
C555 C 0.97294 0.39797 0.87535 0.0
C556 C 0.97977 0.38595 0.86025 0.0
C557 C 0.96619 0.37217 0.88494 0.0
C558 C 0.95823 0.38351 0.89999 0.0
C559 C 0.95027 0.4097 0.89545 0.0
C560 C 0.94289 0.42066 0.90978 0.0
C561 C 0.94333 0.40537 0.92866 0.0
C562 C 0.95113 0.37898 0.93322 0.0
C563 C 0.95854 0.36797 0.91895 0.0
H564 H 0.93761 0.4139 0.93974 0.0
H565 H 0.00661 0.30511 0.79683 0.0
H566 H 0.80387 0.47614 0.87189 0.0
H567 H 0.79496 0.4166 0.87527 0.0
H568 H 0.76458 0.47147 0.8828 0.0
H569 H 0.77351 0.53182 0.87935 0.0
H570 H 0.77077 0.39999 0.90826 0.0
H571 H 0.76578 0.44644 0.84265 0.0
H572 H 0.77238 0.4801 0.81351 0.0
H573 H 0.79654 0.39732 0.8045 0.0
H574 H 0.7904 0.36399 0.83403 0.0
H575 H 0.76849 0.20377 0.89787 0.0
H576 H 0.76087 0.26551 0.89192 0.0
H577 H 0.79021 0.29805 0.86305 0.0
H578 H 0.79765 0.23701 0.86868 0.0
H579 H 0.77401 0.33021 0.84568 0.0
H580 H 0.78529 0.308 0.91545 0.0
H581 H 0.78335 0.28119 0.94868 0.0
H582 H 0.75066 0.31786 0.95094 0.0
H583 H 0.75244 0.34484 0.91767 0.0
C584 C 0.79534 0.47568 0.87474 0.0
C585 C 0.78936 0.50852 0.87516 0.0
C586 C 0.79026 0.44168 0.87665 0.0
C587 C 0.77912 0.43986 0.87893 0.0
C588 C 0.77319 0.47254 0.88095 0.0
C589 C 0.7783 0.50685 0.87904 0.0
C590 C 0.77391 0.40344 0.87721 0.0
C591 C 0.77106 0.38484 0.89448 0.0
C592 C 0.77434 0.38398 0.85918 0.0
C593 C 0.77761 0.4027 0.84062 0.0
C594 C 0.77252 0.43547 0.8345 0.0
C595 C 0.77622 0.45458 0.81795 0.0
C596 C 0.78488 0.44084 0.80718 0.0
C597 C 0.78983 0.40791 0.81287 0.0
C598 C 0.78625 0.38892 0.82953 0.0
C599 C 0.77312 0.22386 0.88967 0.0
C600 C 0.78368 0.21591 0.88386 0.0
C601 C 0.7688 0.25913 0.88641 0.0
C602 C 0.77502 0.2866 0.87728 0.0
C603 C 0.78522 0.2774 0.87009 0.0
C604 C 0.78951 0.24248 0.87337 0.0
C605 C 0.77183 0.32609 0.87705 0.0
C606 C 0.77302 0.34553 0.85929 0.0
C607 C 0.77018 0.34616 0.89471 0.0
C608 C 0.76895 0.32793 0.91405 0.0
C609 C 0.77766 0.30994 0.92297 0.0
C610 C 0.7766 0.29487 0.94183 0.0
C611 C 0.76689 0.29794 0.95194 0.0
C612 C 0.75818 0.31561 0.94311 0.0
C613 C 0.7592 0.33074 0.92426 0.0
H614 H 0.76609 0.28666 0.96662 0.0
H615 H 0.78777 0.45564 0.79441 0.0
H616 H 0.04316 0.00149 0.65283 0.0
H617 H 0.03497 0.06202 0.64748 0.0
H618 H 0.00933 0.01088 0.61487 0.0
H619 H 0.01735 0.95014 0.62059 0.0
H620 H 0.02071 0.059 0.59266 0.0
H621 H 0.00275 0.06226 0.6528 0.0
H622 H 0.99863 0.05808 0.68819 0.0
H623 H 0.0216 0.14323 0.70047 0.0
H624 H 0.02612 0.14722 0.66528 0.0
H625 H 0.01674 0.27649 0.60814 0.0
H626 H 0.0087 0.21485 0.60562 0.0
H627 H 0.0399 0.16758 0.5956 0.0
H628 H 0.04797 0.22883 0.59816 0.0
H629 H 0.0169 0.16804 0.63608 0.0
H630 H 0.03404 0.07995 0.5697 0.0
H631 H 0.03607 0.08634 0.53381 0.0
H632 H 0.01267 0.17316 0.53322 0.0
H633 H 0.01007 0.16631 0.56893 0.0
C634 C 0.0355 0.00297 0.64538 0.0
C635 C 0.03092 0.97114 0.6371 0.0
C636 C 0.03082 0.0376 0.6423 0.0
C637 C 0.02157 0.04098 0.63067 0.0
C638 C 0.01644 0.00887 0.62394 0.0
C639 C 0.02102 0.97413 0.62735 0.0
C640 C 0.0187 0.07774 0.62252 0.0
C641 C 0.01974 0.08296 0.60208 0.0
C642 C 0.01699 0.10871 0.6348 0.0
C643 C 0.01482 0.10487 0.65626 0.0
C644 C 0.00707 0.07967 0.66304 0.0
C645 C 0.00464 0.0774 0.6831 0.0
C646 C 0.00986 0.10033 0.69657 0.0
C647 C 0.01758 0.12541 0.69003 0.0
C648 C 0.02008 0.12765 0.67001 0.0
C649 C 0.02182 0.25321 0.60448 0.0
C650 C 0.03301 0.25731 0.60368 0.0
C651 C 0.01721 0.21799 0.60309 0.0
C652 C 0.02372 0.18666 0.60067 0.0
C653 C 0.03472 0.19139 0.59739 0.0
C654 C 0.03934 0.22643 0.59897 0.0
C655 C 0.0198 0.14956 0.60651 0.0
C656 C 0.01754 0.14421 0.62654 0.0
C657 C 0.02039 0.11862 0.59385 0.0
C658 C 0.02194 0.12287 0.57222 0.0
C659 C 0.02923 0.10023 0.56197 0.0
C660 C 0.03046 0.10381 0.5416 0.0
C661 C 0.02448 0.13002 0.53125 0.0
C662 C 0.01729 0.1528 0.54126 0.0
C663 C 0.01592 0.14906 0.56159 0.0
H664 H 0.02543 0.13269 0.51547 0.0
H665 H 0.00791 0.09872 0.71208 0.0
H666 H 0.23189 0.94707 0.6151 0.0
H667 H 0.23894 0.00706 0.60419 0.0
H668 H 0.20689 0.05162 0.60401 0.0
H669 H 0.19988 0.99222 0.61484 0.0
H670 H 0.22056 0.08458 0.57528 0.0
H671 H 0.22135 0.04691 0.64779 0.0
H672 H 0.22887 0.00176 0.67136 0.0
H673 H 0.26066 0.02792 0.65167 0.0
H674 H 0.2533 0.07288 0.62788 0.0
H675 H 0.2011 0.23093 0.6219 0.0
H676 H 0.20847 0.16864 0.61988 0.0
H677 H 0.24004 0.21342 0.61045 0.0
H678 H 0.23266 0.27646 0.61251 0.0
H679 H 0.23555 0.13707 0.63698 0.0
H680 H 0.23559 0.19016 0.57294 0.0
H681 H 0.22915 0.23153 0.54675 0.0
H682 H 0.19885 0.17535 0.54632 0.0
H683 H 0.20513 0.13373 0.57274 0.0
C684 C 0.22633 0.96929 0.6119 0.0
C685 C 0.21537 0.96541 0.61609 0.0
C686 C 0.23037 0.00349 0.60571 0.0
C687 C 0.22345 0.03385 0.6036 0.0
C688 C 0.21238 0.02856 0.60556 0.0
C689 C 0.20837 0.99467 0.61188 0.0
C690 C 0.22747 0.0723 0.60356 0.0
C691 C 0.22414 0.09607 0.58848 0.0
C692 C 0.23245 0.08725 0.62051 0.0
C693 C 0.2368 0.06309 0.63612 0.0
C694 C 0.22995 0.04316 0.64864 0.0
C695 C 0.23417 0.0174 0.66189 0.0
C696 C 0.24523 0.01181 0.66288 0.0
C697 C 0.25209 0.03217 0.65079 0.0
C698 C 0.24791 0.05782 0.63747 0.0
C699 C 0.20966 0.22762 0.62005 0.0
C700 C 0.2163 0.25843 0.61722 0.0
C701 C 0.21386 0.19205 0.6189 0.0
C702 C 0.22475 0.18663 0.61482 0.0
C703 C 0.23161 0.21722 0.61367 0.0
C704 C 0.2274 0.2531 0.61491 0.0
C705 C 0.22823 0.14922 0.60899 0.0
C706 C 0.23269 0.1257 0.62318 0.0
C707 C 0.22467 0.13449 0.59086 0.0
C708 C 0.22081 0.15897 0.57485 0.0
C709 C 0.22753 0.18679 0.56734 0.0
C710 C 0.22391 0.21027 0.55243 0.0
C711 C 0.21357 0.20617 0.54487 0.0
C712 C 0.20686 0.17848 0.55219 0.0
C713 C 0.21045 0.15487 0.5671 0.0
H714 H 0.21077 0.22435 0.53331 0.0
H715 H 0.24853 0.99197 0.6731 0.0
H716 H 0.98113 0.02612 0.3888 0.0
H717 H 0.98581 0.96076 0.38326 0.0
H718 H 0.95501 0.92806 0.40624 0.0
H719 H 0.95046 0.99243 0.41211 0.0
H720 H 0.97067 0.89026 0.42355 0.0
H721 H 0.96134 0.92787 0.35632 0.0
H722 H 0.96359 0.96216 0.32519 0.0
H723 H 0.99561 0.92016 0.31956 0.0
H724 H 0.99358 0.88602 0.35082 0.0
H725 H 0.94775 0.73294 0.3851 0.0
H726 H 0.95459 0.79197 0.39685 0.0
H727 H 0.98561 0.767 0.37219 0.0
H728 H 0.97876 0.70744 0.36036 0.0
H729 H 0.97761 0.83186 0.35882 0.0
H730 H 0.98378 0.77949 0.42138 0.0
H731 H 0.98009 0.74152 0.45076 0.0
H732 H 0.95278 0.80898 0.46431 0.0
H733 H 0.95619 0.84705 0.43487 0.0
C734 C 0.97535 0.00485 0.39239 0.0
C735 C 0.96548 0.01416 0.40101 0.0
C736 C 0.97803 0.96764 0.38928 0.0
C737 C 0.9708 0.93958 0.39456 0.0
C738 C 0.96078 0.94921 0.40235 0.0
C739 C 0.95817 0.98604 0.40561 0.0
C740 C 0.97347 0.89986 0.39266 0.0
C741 C 0.97221 0.87742 0.4094 0.0
C742 C 0.97605 0.88331 0.37441 0.0
C743 C 0.97739 0.90503 0.35608 0.0
C744 C 0.96891 0.92642 0.3486 0.0
C745 C 0.97014 0.94571 0.33089 0.0
C746 C 0.97976 0.94352 0.32046 0.0
C747 C 0.98818 0.92202 0.32772 0.0
C748 C 0.98701 0.90276 0.34543 0.0
C749 C 0.95611 0.73954 0.38267 0.0
C750 C 0.96272 0.7158 0.3718 0.0
C751 C 0.96004 0.77318 0.3895 0.0
C752 C 0.97064 0.78371 0.38554 0.0
C753 C 0.97744 0.75918 0.37554 0.0
C754 C 0.97352 0.72521 0.36886 0.0
C755 C 0.9739 0.82233 0.38936 0.0
C756 C 0.97641 0.84463 0.37309 0.0
C757 C 0.97232 0.83879 0.40798 0.0
C758 C 0.97026 0.81618 0.42587 0.0
C759 C 0.97695 0.78615 0.43056 0.0
C760 C 0.97491 0.7646 0.44724 0.0
C761 C 0.96621 0.77284 0.45939 0.0
C762 C 0.95953 0.80268 0.4549 0.0
C763 C 0.96153 0.82431 0.43824 0.0
H764 H 0.96464 0.75611 0.47229 0.0
H765 H 0.98068 0.95834 0.30672 0.0
H766 H 0.79887 0.72897 0.34527 0.0
H767 H 0.79453 0.79419 0.341 0.0
H768 H 0.76327 0.77559 0.36599 0.0
H769 H 0.76749 0.70978 0.3698 0.0
H770 H 0.76788 0.84529 0.33617 0.0
H771 H 0.77759 0.78371 0.39811 0.0
H772 H 0.78824 0.7393 0.41716 0.0
H773 H 0.81721 0.79281 0.39882 0.0
H774 H 0.8067 0.8379 0.37957 0.0
H775 H 0.7787 0.0331 0.36436 0.0
H776 H 0.77107 0.97118 0.36972 0.0
H777 H 0.80254 0.92339 0.36283 0.0
H778 H 0.81011 0.98442 0.35803 0.0
H779 H 0.79187 0.88759 0.38993 0.0
H780 H 0.78449 0.93906 0.32464 0.0
H781 H 0.7759 0.98558 0.30342 0.0
H782 H 0.7449 0.95036 0.32342 0.0
H783 H 0.75339 0.90471 0.34552 0.0
C784 C 0.79084 0.73834 0.34869 0.0
C785 C 0.78357 0.71476 0.35812 0.0
C786 C 0.78836 0.77556 0.34621 0.0
C787 C 0.77868 0.78959 0.35358 0.0
C788 C 0.77076 0.7651 0.36018 0.0
C789 C 0.77319 0.72753 0.36237 0.0
C790 C 0.77841 0.8287 0.35962 0.0
C791 C 0.77289 0.8547 0.34821 0.0
C792 C 0.78503 0.84067 0.37529 0.0
C793 C 0.79133 0.81423 0.38739 0.0
C794 C 0.78622 0.78607 0.3981 0.0
C795 C 0.79224 0.76072 0.40895 0.0
C796 C 0.80339 0.76303 0.40919 0.0
C797 C 0.80856 0.79101 0.39865 0.0
C798 C 0.80257 0.81661 0.38784 0.0
C799 C 0.78398 0.00935 0.36458 0.0
C800 C 0.79497 0.01337 0.36056 0.0
C801 C 0.77962 0.97408 0.36752 0.0
C802 C 0.78621 0.94266 0.36636 0.0
C803 C 0.79728 0.94718 0.36378 0.0
C804 C 0.80161 0.98213 0.36093 0.0
C805 C 0.78183 0.90465 0.36582 0.0
C806 C 0.78647 0.87848 0.3784 0.0
C807 C 0.77466 0.89274 0.3509 0.0
C808 C 0.76957 0.919 0.337 0.0
C809 C 0.77585 0.94143 0.32463 0.0
C810 C 0.77099 0.9677 0.31247 0.0
C811 C 0.75985 0.971 0.31209 0.0
C812 C 0.75354 0.94794 0.32383 0.0
C813 C 0.75837 0.92199 0.33626 0.0
H814 H 0.75609 0.99133 0.30264 0.0
H815 H 0.80803 0.74317 0.41754 0.0
H816 H 0.54139 0.76177 0.58853 0.0
H817 H 0.53458 0.69963 0.583 0.0
H818 H 0.50542 0.72773 0.61364 0.0
H819 H 0.5122 0.79049 0.61895 0.0
H820 H 0.51653 0.67462 0.63223 0.0
H821 H 0.5033 0.68945 0.56862 0.0
H822 H 0.5023 0.71163 0.53438 0.0
H823 H 0.53039 0.64903 0.51972 0.0
H824 H 0.53177 0.62725 0.55395 0.0
H825 H 0.52456 0.47144 0.62836 0.0
H826 H 0.51501 0.53096 0.6262 0.0
H827 H 0.54243 0.57942 0.59748 0.0
H828 H 0.55197 0.521 0.5998 0.0
H829 H 0.52222 0.58774 0.57683 0.0
H830 H 0.53835 0.59734 0.64288 0.0
H831 H 0.54031 0.57958 0.67774 0.0
H832 H 0.50679 0.59901 0.68722 0.0
H833 H 0.50459 0.61615 0.65231 0.0
C834 C 0.53331 0.75524 0.59321 0.0
C835 C 0.52736 0.78063 0.6043 0.0
C836 C 0.52938 0.71973 0.58998 0.0
C837 C 0.51949 0.70896 0.59799 0.0
C838 C 0.51304 0.73555 0.60727 0.0
C839 C 0.51691 0.7714 0.61022 0.0
C840 C 0.51739 0.66898 0.60065 0.0
C841 C 0.51734 0.65544 0.62004 0.0
C842 C 0.51841 0.64397 0.58478 0.0
C843 C 0.51763 0.65668 0.56398 0.0
C844 C 0.50933 0.68062 0.55816 0.0
C845 C 0.50871 0.69322 0.53874 0.0
C846 C 0.5163 0.68185 0.52491 0.0
C847 C 0.52452 0.65782 0.53046 0.0
C848 C 0.52521 0.64531 0.54989 0.0
C849 C 0.52861 0.4951 0.62202 0.0
C850 C 0.53899 0.49161 0.61418 0.0
C851 C 0.52312 0.52885 0.62062 0.0
C852 C 0.52796 0.55916 0.6113 0.0
C853 C 0.5385 0.55607 0.6044 0.0
C854 C 0.54397 0.52275 0.60591 0.0
C855 C 0.52231 0.59456 0.60829 0.0
C856 C 0.52084 0.60685 0.58886 0.0
C857 C 0.51996 0.61854 0.62409 0.0
C858 C 0.52126 0.60722 0.6449 0.0
C859 C 0.53136 0.5972 0.65232 0.0
C860 C 0.53253 0.58738 0.67211 0.0
C861 C 0.52367 0.58791 0.68467 0.0
C862 C 0.51363 0.59835 0.67748 0.0
C863 C 0.51242 0.60806 0.65768 0.0
H864 H 0.52461 0.58038 0.69998 0.0
H865 H 0.51578 0.69154 0.50986 0.0
H866 H 0.70041 0.72998 0.56208 0.0
H867 H 0.7055 0.66548 0.56672 0.0
H868 H 0.71625 0.69028 0.62561 0.0
H869 H 0.71147 0.75543 0.6208 0.0
H870 H 0.72954 0.64196 0.608 0.0
H871 H 0.69132 0.65415 0.61698 0.0
H872 H 0.67299 0.67181 0.60725 0.0
H873 H 0.67488 0.59986 0.55711 0.0
H874 H 0.69329 0.58214 0.56642 0.0
H875 H 0.71804 0.48582 0.66526 0.0
H876 H 0.72064 0.54421 0.64801 0.0
H877 H 0.71378 0.49063 0.5927 0.0
H878 H 0.7113 0.43149 0.61005 0.0
H879 H 0.70038 0.54965 0.6014 0.0
H880 H 0.73776 0.52796 0.59819 0.0
H881 H 0.7556 0.50983 0.61031 0.0
H882 H 0.75494 0.59865 0.6522 0.0
H883 H 0.73703 0.61703 0.64055 0.0
C884 C 0.70387 0.72174 0.57602 0.0
C885 C 0.7054 0.74756 0.59122 0.0
C886 C 0.7068 0.68488 0.57862 0.0
C887 C 0.7111 0.67299 0.5966 0.0
C888 C 0.71294 0.69893 0.61161 0.0
C889 C 0.71013 0.73601 0.60892 0.0
C890 C 0.71303 0.63318 0.60022 0.0
C891 C 0.72318 0.62172 0.60664 0.0
C892 C 0.70479 0.60668 0.59783 0.0
C893 C 0.69372 0.61719 0.59226 0.0
C894 C 0.68785 0.64232 0.6038 0.0
C895 C 0.67745 0.65231 0.59838 0.0
C896 C 0.67279 0.63706 0.58154 0.0
C897 C 0.67851 0.61171 0.57012 0.0
C898 C 0.68893 0.60168 0.57547 0.0
C899 C 0.71735 0.48628 0.64936 0.0
C900 C 0.71438 0.4544 0.63894 0.0
C901 C 0.71892 0.51958 0.63951 0.0
C902 C 0.71746 0.52166 0.61908 0.0
C903 C 0.71502 0.48941 0.60847 0.0
C904 C 0.71362 0.45577 0.61834 0.0
C905 C 0.71682 0.55848 0.60971 0.0
C906 C 0.70687 0.56957 0.60226 0.0
C907 C 0.72519 0.58461 0.61146 0.0
C908 C 0.73601 0.57379 0.61852 0.0
C909 C 0.74138 0.54349 0.61008 0.0
C910 C 0.75152 0.53319 0.61686 0.0
C911 C 0.7564 0.55306 0.63203 0.0
C912 C 0.75116 0.58331 0.64044 0.0
C913 C 0.74101 0.59372 0.63372 0.0
H914 H 0.76425 0.54503 0.63726 0.0
H915 H 0.66473 0.64483 0.57736 0.0
H916 H 0.48266 0.51593 0.35904 0.0
H917 H 0.49108 0.45442 0.35649 0.0
H918 H 0.4658 0.40819 0.39203 0.0
H919 H 0.45732 0.4685 0.39431 0.0
H920 H 0.48819 0.39383 0.4051 0.0
H921 H 0.46443 0.39391 0.34634 0.0
H922 H 0.45937 0.41815 0.31368 0.0
H923 H 0.49101 0.39552 0.29203 0.0
H924 H 0.49627 0.37149 0.32466 0.0
H925 H 0.4654 0.22332 0.40016 0.0
H926 H 0.47358 0.28411 0.40311 0.0
H927 H 0.49676 0.255 0.35862 0.0
H928 H 0.4886 0.19378 0.35573 0.0
H929 H 0.48498 0.31155 0.34707 0.0
H930 H 0.50584 0.2889 0.40234 0.0
H931 H 0.51152 0.26494 0.43466 0.0
H932 H 0.48728 0.32988 0.46313 0.0
H933 H 0.48128 0.35372 0.431 0.0
C934 C 0.47882 0.49242 0.36595 0.0
C935 C 0.46935 0.497 0.37691 0.0
C936 C 0.48368 0.45751 0.36463 0.0
C937 C 0.47914 0.42713 0.37441 0.0
C938 C 0.4695 0.43151 0.38466 0.0
C939 C 0.46461 0.46597 0.38579 0.0
C940 C 0.48419 0.39024 0.37437 0.0
C941 C 0.48762 0.37566 0.39245 0.0
C942 C 0.48402 0.36741 0.35756 0.0
C943 C 0.4808 0.38158 0.33799 0.0
C944 C 0.47033 0.39446 0.33466 0.0
C945 C 0.46742 0.40805 0.31615 0.0
C946 C 0.47488 0.40859 0.30083 0.0
C947 C 0.48525 0.39523 0.30393 0.0
C948 C 0.4882 0.38163 0.32243 0.0
C949 C 0.47254 0.22926 0.39167 0.0
C950 C 0.47628 0.20408 0.37757 0.0
C951 C 0.47727 0.26402 0.39342 0.0
C952 C 0.48578 0.27423 0.381 0.0
C953 C 0.49023 0.24768 0.36836 0.0
C954 C 0.48557 0.21265 0.36678 0.0
C955 C 0.48813 0.31409 0.37832 0.0
C956 C 0.4861 0.32954 0.35968 0.0
C957 C 0.48969 0.33772 0.39464 0.0
C958 C 0.49309 0.32309 0.41414 0.0
C959 C 0.50164 0.29785 0.41546 0.0
C960 C 0.50493 0.28429 0.43376 0.0
C961 C 0.49974 0.29579 0.45092 0.0
C962 C 0.49128 0.32096 0.44981 0.0
C963 C 0.48795 0.33457 0.43154 0.0
H964 H 0.50229 0.28524 0.46507 0.0
H965 H 0.47263 0.41934 0.28655 0.0
H966 H 0.31029 0.50753 0.38458 0.0
H967 H 0.30303 0.44644 0.39156 0.0
H968 H 0.27132 0.4927 0.39632 0.0
H969 H 0.27858 0.55442 0.38941 0.0
H970 H 0.2782 0.41864 0.42059 0.0
H971 H 0.2746 0.47628 0.35697 0.0
H972 H 0.28085 0.51326 0.32903 0.0
H973 H 0.30607 0.43521 0.3182 0.0
H974 H 0.30009 0.39795 0.34654 0.0
H975 H 0.27247 0.22698 0.3959 0.0
H976 H 0.26678 0.29191 0.39333 0.0
H977 H 0.29843 0.32167 0.37328 0.0
H978 H 0.30407 0.25749 0.3758 0.0
H979 H 0.28328 0.36154 0.35479 0.0
H980 H 0.29152 0.32016 0.42268 0.0
H981 H 0.28795 0.28465 0.45303 0.0
H982 H 0.25635 0.331 0.45621 0.0
H983 H 0.25969 0.36646 0.42574 0.0
C984 C 0.30185 0.50499 0.38798 0.0
C985 C 0.29494 0.53532 0.386 0.0
C986 C 0.29772 0.47013 0.39206 0.0
C987 C 0.28664 0.46522 0.39399 0.0
C988 C 0.27989 0.49617 0.39482 0.0
C989 C 0.28405 0.53131 0.39082 0.0
C990 C 0.28226 0.4281 0.39025 0.0
C991 C 0.27896 0.40624 0.40612 0.0
C992 C 0.28334 0.41224 0.3713 0.0
C993 C 0.28692 0.43441 0.35406 0.0
C994 C 0.2816 0.46728 0.3489 0.0
C995 C 0.28508 0.48827 0.33289 0.0
C996 C 0.29389 0.47677 0.32183 0.0
C997 C 0.29923 0.44411 0.32677 0.0
C998 C 0.29578 0.42297 0.34279 0.0
C999 C 0.27806 0.24733 0.39029 0.0
C1000 C 0.28872 0.23753 0.38614 0.0
C1001 C 0.27483 0.28432 0.38898 0.0
C1002 C 0.28222 0.31157 0.38336 0.0
C1003 C 0.29259 0.30108 0.37764 0.0
C1004 C 0.29582 0.26442 0.37911 0.0
C1005 C 0.27991 0.35145 0.38538 0.0
C1006 C 0.28195 0.37412 0.36908 0.0
C1007 C 0.2779 0.36782 0.40397 0.0
C1008 C 0.2758 0.34554 0.42184 0.0
C1009 C 0.28377 0.32243 0.42974 0.0
C1010 C 0.2818 0.3024 0.44698 0.0
C1011 C 0.27193 0.30561 0.45652 0.0
C1012 C 0.26398 0.32856 0.44878 0.0
C1013 C 0.2659 0.34859 0.43153 0.0
H1014 H 0.27048 0.29063 0.47002 0.0
H1015 H 0.29658 0.49305 0.30942 0.0
H1016 H 0.52171 0.28693 0.16221 0.0
H1017 H 0.51539 0.22403 0.1556 0.0
H1018 H 0.53833 0.21409 0.10843 0.0
H1019 H 0.54479 0.27661 0.11514 0.0
H1020 H 0.51818 0.17825 0.10092 0.0
H1021 H 0.54555 0.19021 0.15315 0.0
H1022 H 0.55216 0.21109 0.18552 0.0
H1023 H 0.52531 0.15948 0.21387 0.0
H1024 H 0.51848 0.13869 0.18161 0.0
H1025 H 0.54648 0.01937 0.08776 0.0
H1026 H 0.53797 0.07849 0.0939 0.0
H1027 H 0.52091 0.0318 0.14325 0.0
H1028 H 0.52957 0.97172 0.13714 0.0
H1029 H 0.53067 0.09333 0.15354 0.0
H1030 H 0.50471 0.07121 0.10424 0.0
H1031 H 0.49672 0.05034 0.07296 0.0
H1032 H 0.51892 0.11757 0.04062 0.0
H1033 H 0.52679 0.1399 0.07175 0.0
C1034 C 0.52514 0.2718 0.14997 0.0
C1035 C 0.53378 0.28648 0.13922 0.0
C1036 C 0.52155 0.23584 0.14631 0.0
C1037 C 0.52648 0.21439 0.13168 0.0
C1038 C 0.53443 0.23028 0.11978 0.0
C1039 C 0.53812 0.26595 0.12362 0.0
C1040 C 0.52452 0.17417 0.13029 0.0
C1041 C 0.52081 0.15957 0.11246 0.0
C1042 C 0.52747 0.14986 0.14571 0.0
C1043 C 0.53143 0.16335 0.16498 0.0
C1044 C 0.541 0.18369 0.16627 0.0
C1045 C 0.5448 0.19536 0.1846 0.0
C1046 C 0.53917 0.18653 0.20174 0.0
C1047 C 0.52967 0.16624 0.20058 0.0
C1048 C 0.52583 0.15455 0.18229 0.0
C1049 C 0.54087 0.02145 0.09987 0.0
C1050 C 0.5388 0.99101 0.11215 0.0
C1051 C 0.53584 0.05522 0.10316 0.0
C1052 C 0.52861 0.0595 0.11878 0.0
C1053 C 0.52637 0.02899 0.13095 0.0
C1054 C 0.53138 0.99485 0.12756 0.0
C1055 C 0.52483 0.09725 0.12376 0.0
C1056 C 0.52754 0.11164 0.14227 0.0
C1057 C 0.52074 0.12129 0.10913 0.0
C1058 C 0.51637 0.10706 0.09031 0.0
C1059 C 0.50791 0.08143 0.09045 0.0
C1060 C 0.50334 0.0696 0.07276 0.0
C1061 C 0.50735 0.08242 0.05481 0.0
C1062 C 0.51583 0.10759 0.05453 0.0
C1063 C 0.52028 0.12016 0.0722 0.0
H1064 H 0.50387 0.07288 0.04113 0.0
H1065 H 0.54215 0.19544 0.21593 0.0
H1066 H 0.71771 0.97511 0.10157 0.0
H1067 H 0.72359 0.03901 0.0966 0.0
H1068 H 0.73923 0.03671 0.15335 0.0
H1069 H 0.7343 0.97227 0.15724 0.0
H1070 H 0.71611 0.08978 0.11507 0.0
H1071 H 0.75442 0.10673 0.16352 0.0
H1072 H 0.77145 0.07387 0.16924 0.0
H1073 H 0.76962 0.02555 0.11166 0.0
H1074 H 0.7526 0.05814 0.10552 0.0
H1075 H 0.71216 0.25902 0.15325 0.0
H1076 H 0.71855 0.19539 0.15594 0.0
H1077 H 0.74284 0.21763 0.11241 0.0
H1078 H 0.7367 0.28171 0.11017 0.0
H1079 H 0.7482 0.15738 0.13869 0.0
H1080 H 0.72053 0.19698 0.09442 0.0
H1081 H 0.7041 0.23144 0.0861 0.0
H1082 H 0.68626 0.16656 0.12765 0.0
H1083 H 0.70265 0.13218 0.13653 0.0
C1084 C 0.72288 0.98788 0.11243 0.0
C1085 C 0.72562 0.96891 0.12969 0.0
C1086 C 0.72616 0.02447 0.10972 0.0
C1087 C 0.73184 0.04314 0.12462 0.0
C1088 C 0.73515 0.02314 0.1413 0.0
C1089 C 0.73226 0.98615 0.1436 0.0
C1090 C 0.73258 0.08427 0.12443 0.0
C1091 C 0.72325 0.10423 0.11991 0.0
C1092 C 0.74184 0.10381 0.13067 0.0
C1093 C 0.75221 0.08482 0.13409 0.0
C1094 C 0.75769 0.08933 0.15202 0.0
C1095 C 0.76733 0.07067 0.15536 0.0
C1096 C 0.77162 0.0477 0.14083 0.0
C1097 C 0.76628 0.04331 0.12292 0.0
C1098 C 0.75662 0.06178 0.11952 0.0
C1099 C 0.71921 0.25086 0.14502 0.0
C1100 C 0.72383 0.27493 0.13124 0.0
C1101 C 0.72286 0.21453 0.14656 0.0
C1102 C 0.73097 0.20169 0.13398 0.0
C1103 C 0.73655 0.227 0.12219 0.0
C1104 C 0.73302 0.26361 0.12091 0.0
C1105 C 0.73173 0.16165 0.12979 0.0
C1106 C 0.74125 0.14234 0.13349 0.0
C1107 C 0.72279 0.14258 0.12207 0.0
C1108 C 0.71283 0.1622 0.11624 0.0
C1109 C 0.71311 0.19016 0.10184 0.0
C1110 C 0.70382 0.20971 0.09704 0.0
C1111 C 0.69415 0.20125 0.10636 0.0
C1112 C 0.69376 0.17311 0.12045 0.0
C1113 C 0.70305 0.15357 0.12537 0.0
H1114 H 0.68697 0.21647 0.10264 0.0
H1115 H 0.77908 0.03328 0.14347 0.0
H1116 H 0.44858 0.75913 0.82772 0.0
H1117 H 0.45545 0.82098 0.8338 0.0
H1118 H 0.47701 0.7777 0.87776 0.0
H1119 H 0.47007 0.71506 0.87177 0.0
H1120 H 0.46706 0.84065 0.88996 0.0
H1121 H 0.48723 0.80405 0.83501 0.0
H1122 H 0.49076 0.77621 0.80254 0.0
H1123 H 0.47123 0.85894 0.77486 0.0
H1124 H 0.46739 0.88694 0.80721 0.0
H1125 H 0.48414 0.02449 0.89676 0.0
H1126 H 0.48769 0.96091 0.88609 0.0
H1127 H 0.4607 0.96639 0.84667 0.0
H1128 H 0.45709 0.02974 0.85725 0.0
H1129 H 0.47843 0.91924 0.83373 0.0
H1130 H 0.45624 0.94706 0.89143 0.0
H1131 H 0.45341 0.97363 0.92443 0.0
H1132 H 0.47813 0.90379 0.94785 0.0
H1133 H 0.48144 0.87801 0.91479 0.0
C1134 C 0.45476 0.76265 0.83875 0.0
C1135 C 0.45881 0.73223 0.84925 0.0
C1136 C 0.45875 0.79802 0.84208 0.0
C1137 C 0.4669 0.80379 0.85591 0.0
C1138 C 0.47079 0.77369 0.86687 0.0
C1139 C 0.4668 0.73804 0.86349 0.0
C1140 C 0.47099 0.84174 0.8591 0.0
C1141 C 0.46983 0.85758 0.8778 0.0
C1142 C 0.47461 0.86379 0.84319 0.0
C1143 C 0.47697 0.84747 0.8236 0.0
C1144 C 0.48362 0.81619 0.82203 0.0
C1145 C 0.48568 0.80039 0.80365 0.0
C1146 C 0.48119 0.81576 0.7867 0.0
C1147 C 0.47468 0.84708 0.78804 0.0
C1148 C 0.47257 0.86295 0.8064 0.0
C1149 C 0.47919 0.01253 0.88534 0.0
C1150 C 0.47017 0.03153 0.87823 0.0
C1151 C 0.48123 0.97631 0.87928 0.0
C1152 C 0.47428 0.95886 0.86605 0.0
C1153 C 0.46611 0.97943 0.85702 0.0
C1154 C 0.46404 0.0156 0.86312 0.0
C1155 C 0.47414 0.91817 0.86438 0.0
C1156 C 0.47598 0.90193 0.84598 0.0
C1157 C 0.4713 0.89562 0.88065 0.0
C1158 C 0.46924 0.91113 0.90053 0.0
C1159 C 0.4612 0.9378 0.90354 0.0
C1160 C 0.4595 0.95273 0.92226 0.0
C1161 C 0.46562 0.94055 0.93821 0.0
C1162 C 0.47343 0.91333 0.93547 0.0
C1163 C 0.47526 0.89873 0.91671 0.0
H1164 H 0.4643 0.95209 0.95271 0.0
H1165 H 0.48274 0.80334 0.77255 0.0
H1166 H 0.29976 0.75999 0.87753 0.0
H1167 H 0.29314 0.82283 0.88198 0.0
H1168 H 0.26077 0.78209 0.88562 0.0
H1169 H 0.26739 0.71852 0.88104 0.0
H1170 H 0.26649 0.86067 0.86414 0.0
H1171 H 0.26558 0.79648 0.92495 0.0
H1172 H 0.27166 0.74997 0.94883 0.0
H1173 H 0.30189 0.80562 0.95416 0.0
H1174 H 0.29605 0.85219 0.92985 0.0
H1175 H 0.27332 0.046 0.8919 0.0
H1176 H 0.26484 0.98703 0.90063 0.0
H1177 H 0.29593 0.93504 0.9025 0.0
H1178 H 0.30436 0.99348 0.89393 0.0
H1179 H 0.2813 0.90193 0.92834 0.0
H1180 H 0.28243 0.94811 0.85749 0.0
H1181 H 0.27623 0.99575 0.8341 0.0
H1182 H 0.2436 0.97451 0.85061 0.0
H1183 H 0.24966 0.92686 0.87418 0.0
C1184 C 0.2912 0.76447 0.87857 0.0
C1185 C 0.28408 0.73452 0.87908 0.0
C1186 C 0.28743 0.80032 0.88115 0.0
C1187 C 0.27651 0.80681 0.8844 0.0
C1188 C 0.26922 0.77743 0.88312 0.0
C1189 C 0.27301 0.74128 0.88041 0.0
C1190 C 0.27332 0.84354 0.89177 0.0
C1191 C 0.26929 0.86962 0.87848 0.0
C1192 C 0.27683 0.85505 0.91059 0.0
C1193 C 0.28037 0.82776 0.92555 0.0
C1194 C 0.27355 0.7987 0.93112 0.0
C1195 C 0.27696 0.77231 0.94476 0.0
C1196 C 0.28716 0.7748 0.95307 0.0
C1197 C 0.29398 0.80375 0.94773 0.0
C1198 C 0.29062 0.8302 0.93403 0.0
C1199 C 0.27835 0.0223 0.89503 0.0
C1200 C 0.28947 0.02393 0.8919 0.0
C1201 C 0.27349 0.98867 0.89997 0.0
C1202 C 0.27975 0.95658 0.90184 0.0
C1203 C 0.29095 0.95944 0.90109 0.0
C1204 C 0.29577 0.99281 0.89606 0.0
C1205 C 0.27501 0.91922 0.90032 0.0
C1206 C 0.27775 0.8929 0.91459 0.0
C1207 C 0.27006 0.90749 0.88263 0.0
C1208 C 0.26647 0.93423 0.86758 0.0
C1209 C 0.27394 0.95361 0.85606 0.0
C1210 C 0.27045 0.98074 0.84286 0.0
C1211 C 0.25953 0.98837 0.841 0.0
C1212 C 0.25206 0.96868 0.85217 0.0
C1213 C 0.25551 0.94159 0.8654 0.0
H1214 H 0.25679 0.00936 0.83086 0.0
H1215 H 0.2898 0.75435 0.96365 0.0
H1216 H 0.96406 0.54991 0.97795 0.0
H1217 H 0.97726 0.5161 0.99748 0.0
H1218 H 0.00244 0.58443 0.97364 0.0
H1219 H 0.9893 0.61778 0.95376 0.0
H1220 H 0.00752 0.51493 0.96931 0.0
H1221 H 0.99578 0.58802 0.02333 0.0
H1222 H 0.9831 0.6175 0.04631 0.0
H1223 H 0.97164 0.51074 0.06426 0.0
H1224 H 0.98418 0.48063 0.04121 0.0
H1225 H 0.04922 0.45753 0.03446 0.0
H1226 H 0.03584 0.48732 0.01346 0.0
H1227 H 0.01163 0.41319 0.0357 0.0
H1228 H 0.02491 0.38393 0.05701 0.0
H1229 H 0.00555 0.48211 0.04005 0.0
H1230 H 0.01958 0.41107 0.987 0.0
H1231 H 0.03342 0.38506 0.96515 0.0
H1232 H 0.04231 0.49443 0.94673 0.0
H1233 H 0.02861 0.52115 0.96869 0.0
C1234 C 0.97237 0.55846 0.97732 0.0
C1235 C 0.97565 0.58643 0.96428 0.0
C1236 C 0.97992 0.53905 0.98848 0.0
C1237 C 0.99088 0.54756 0.98698 0.0
C1238 C 0.99406 0.57712 0.97492 0.0
C1239 C 0.98652 0.59636 0.96368 0.0
C1240 C 0.99906 0.52372 0.99658 0.0
C1241 C 0.00724 0.50847 0.9849 0.0
C1242 C 0.99851 0.51421 0.01675 0.0
C1243 C 0.99081 0.53211 0.03035 0.0
C1244 C 0.99046 0.57085 0.03201 0.0
C1245 C 0.98333 0.58767 0.0451 0.0
C1246 C 0.97654 0.56601 0.05668 0.0
C1247 C 0.97689 0.52748 0.05524 0.0
C1248 C 0.98401 0.51052 0.04219 0.0
C1249 C 0.04113 0.44678 0.03436 0.0
C1250 C 0.0381 0.41848 0.04739 0.0
C1251 C 0.03347 0.46386 0.02236 0.0
C1252 C 0.02271 0.45251 0.023 0.0
C1253 C 0.01986 0.42251 0.03502 0.0
C1254 C 0.02747 0.40568 0.0471 0.0
C1255 C 0.01426 0.47452 0.01299 0.0
C1256 C 0.00592 0.48898 0.02452 0.0
C1257 C 0.01486 0.48409 0.99284 0.0
C1258 C 0.02312 0.46812 0.97963 0.0
C1259 C 0.02454 0.4296 0.97842 0.0
C1260 C 0.03235 0.41473 0.96599 0.0
C1261 C 0.03876 0.43808 0.9546 0.0
C1262 C 0.03735 0.47637 0.95558 0.0
C1263 C 0.02955 0.49139 0.968 0.0
H1264 H 0.0448 0.42651 0.94498 0.0
H1265 H 0.97102 0.57908 0.06681 0.0
H1266 H 0.29008 0.67657 0.96519 0.0
H1267 H 0.27827 0.70812 0.98873 0.0
H1268 H 0.25066 0.66954 0.95663 0.0
H1269 H 0.2623 0.63782 0.93339 0.0
H1270 H 0.25081 0.74423 0.96031 0.0
H1271 H 0.25545 0.63837 0.00237 0.0
H1272 H 0.2652 0.59183 0.02194 0.0
H1273 H 0.27921 0.67792 0.05697 0.0
H1274 H 0.26969 0.72503 0.03736 0.0
H1275 H 0.20823 0.79986 0.02462 0.0
H1276 H 0.22096 0.76849 0.00277 0.0
H1277 H 0.24722 0.80832 0.03811 0.0
H1278 H 0.23461 0.83952 0.0599 0.0
H1279 H 0.24856 0.73553 0.03295 0.0
H1280 H 0.24349 0.84096 0.99205 0.0
H1281 H 0.23355 0.88796 0.97313 0.0
H1282 H 0.22031 0.8031 0.93626 0.0
H1283 H 0.23006 0.7555 0.95515 0.0
C1284 C 0.28149 0.67397 0.96352 0.0
C1285 C 0.27713 0.65501 0.94735 0.0
C1286 C 0.27475 0.69197 0.97697 0.0
C1287 C 0.26359 0.69147 0.97429 0.0
C1288 C 0.25925 0.67058 0.95887 0.0
C1289 C 0.26593 0.65236 0.94562 0.0
C1290 C 0.25645 0.71554 0.98613 0.0
C1291 C 0.25018 0.74193 0.9762 0.0
C1292 C 0.25594 0.71347 0.00688 0.0
C1293 C 0.26196 0.68526 0.01823 0.0
C1294 C 0.26072 0.64741 0.01406 0.0
C1295 C 0.26618 0.62092 0.0252 0.0
C1296 C 0.27285 0.63191 0.04064 0.0
C1297 C 0.27408 0.66944 0.04496 0.0
C1298 C 0.26866 0.69605 0.03382 0.0
C1299 C 0.21673 0.80263 0.02743 0.0
C1300 C 0.22041 0.82209 0.04399 0.0
C1301 C 0.224 0.78468 0.01496 0.0
C1302 C 0.23505 0.78601 0.01884 0.0
C1303 C 0.23874 0.80678 0.03488 0.0
C1304 C 0.23151 0.82475 0.04727 0.0
C1305 C 0.24272 0.76356 0.00715 0.0
C1306 C 0.24914 0.73771 0.01709 0.0
C1307 C 0.24338 0.76612 0.98643 0.0
C1308 C 0.23741 0.79462 0.97517 0.0
C1309 C 0.23837 0.83227 0.98004 0.0
C1310 C 0.23279 0.85903 0.96929 0.0
C1311 C 0.22628 0.84852 0.95354 0.0
C1312 C 0.22535 0.81121 0.94849 0.0
C1313 C 0.2309 0.78432 0.95921 0.0
H1314 H 0.22197 0.86928 0.94522 0.0
H1315 H 0.27703 0.61135 0.0493 0.0
H1316 H 0.04038 0.82062 0.21981 0.0
H1317 H 0.0287 0.78504 0.24213 0.0
H1318 H 1.0017 0.80733 0.20445 0.0
H1319 H 0.0131 0.84342 0.18258 0.0
H1320 H 0.0036 0.81774 0.25604 0.0
H1321 H 0.99718 0.70212 0.19946 0.0
H1322 H 0.00709 0.66156 0.17658 0.0
H1323 H 0.03571 0.67609 0.21069 0.0
H1324 H 0.02595 0.7165 0.23379 0.0
H1325 H 0.95624 0.72431 0.28427 0.0
H1326 H 0.96995 0.7568 0.26507 0.0
H1327 H 0.99151 0.66466 0.2731 0.0
H1328 H 0.97771 0.63152 0.29116 0.0
H1329 H 0.99447 0.68806 0.23926 0.0
H1330 H 0.99194 0.74866 0.30168 0.0
H1331 H 0.98307 0.78159 0.32899 0.0
H1332 H 0.97514 0.87117 0.29013 0.0
H1333 H 0.98377 0.83848 0.26249 0.0
C1334 C 0.03193 0.81822 0.21646 0.0
C1335 C 0.02766 0.83486 0.19946 0.0
C1336 C 0.0253 0.79777 0.22911 0.0
C1337 C 0.01439 0.79328 0.22472 0.0
C1338 C 0.01012 0.81032 0.20798 0.0
C1339 C 0.01665 0.83109 0.19556 0.0
C1340 C 0.00721 0.77128 0.23745 0.0
C1341 C 1.00163 0.78925 0.25259 0.0
C1342 C 0.00477 0.73414 0.23298 0.0
C1343 C 0.01088 0.71279 0.21815 0.0
C1344 C 0.00561 0.69691 0.20195 0.0
C1345 C 0.01118 0.67375 0.18903 0.0
C1346 C 0.022 0.66607 0.19226 0.0
C1347 C 0.02732 0.68199 0.20824 0.0
C1348 C 0.02179 0.70527 0.22116 0.0
C1349 C 0.96383 0.71074 0.28152 0.0
C1350 C 0.96589 0.67537 0.2892 0.0
C1351 C 0.97172 0.72953 0.2708 0.0
C1352 C 0.98191 0.71368 0.26806 0.0
C1353 C 0.98376 0.67768 0.27503 0.0
C1354 C 0.97583 0.65865 0.28534 0.0
C1355 C 0.9907 0.73431 0.25808 0.0
C1356 C 0.99646 0.71634 0.24311 0.0
C1357 C 0.99354 0.77105 0.26328 0.0
C1358 C 0.9884 0.79089 0.27994 0.0
C1359 C 0.98823 0.77525 0.29892 0.0
C1360 C 0.98325 0.79389 0.31446 0.0
C1361 C 0.9785 0.82836 0.31126 0.0
C1362 C 0.97878 0.84439 0.29255 0.0
C1363 C 0.98372 0.82582 0.27694 0.0
H1364 H 0.97459 0.84269 0.32324 0.0
H1365 H 0.02629 0.648 0.1823 0.0
H1366 H 0.21523 0.46594 0.20934 0.0
H1367 H 0.22713 0.5 0.23152 0.0
H1368 H 0.24836 0.40599 0.234 0.0
H1369 H 0.2366 0.37203 0.21174 0.0
H1370 H 0.24562 0.43795 0.26998 0.0
H1371 H 0.25397 0.47608 0.2037 0.0
H1372 H 0.24961 0.50094 0.17089 0.0
H1373 H 0.23909 0.60273 0.19705 0.0
H1374 H 0.24328 0.57826 0.2301 0.0
H1375 H 0.29537 0.55618 0.28659 0.0
H1376 H 0.28284 0.52149 0.26565 0.0
H1377 H 0.25647 0.55774 0.30174 0.0
H1378 H 0.26883 0.59241 0.32257 0.0
H1379 H 0.26217 0.55445 0.24617 0.0
H1380 H 0.24673 0.49667 0.31165 0.0
H1381 H 0.24915 0.46272 0.34291 0.0
H1382 H 0.27353 0.39564 0.31622 0.0
H1383 H 0.27132 0.4296 0.28489 0.0
C1384 C 0.22238 0.45244 0.21475 0.0
C1385 C 0.22505 0.41651 0.20858 0.0
C1386 C 0.22918 0.47196 0.22736 0.0
C1387 C 0.23872 0.45573 0.23409 0.0
C1388 C 0.24107 0.4191 0.22887 0.0
C1389 C 0.23432 0.39971 0.21618 0.0
C1390 C 0.24645 0.47705 0.24611 0.0
C1391 C 0.24923 0.46342 0.26473 0.0
C1392 C 0.2512 0.51021 0.23925 0.0
C1393 C 0.24885 0.52522 0.21938 0.0
C1394 C 0.25067 0.50368 0.20247 0.0
C1395 C 0.24823 0.51771 0.18382 0.0
C1396 C 0.24404 0.55338 0.18188 0.0
C1397 C 0.24232 0.57511 0.19858 0.0
C1398 C 0.24474 0.56119 0.21727 0.0
C1399 C 0.28689 0.55706 0.2899 0.0
C1400 C 0.2831 0.577 0.30623 0.0
C1401 C 0.27977 0.53707 0.27804 0.0
C1402 C 0.26878 0.53662 0.28241 0.0
C1403 C 0.26495 0.55727 0.29834 0.0
C1404 C 0.27202 0.57735 0.31011 0.0
C1405 C 0.26121 0.51542 0.27007 0.0
C1406 C 0.25851 0.52906 0.25137 0.0
C1407 C 0.25649 0.48227 0.27678 0.0
C1408 C 0.25898 0.46595 0.29614 0.0
C1409 C 0.25276 0.47518 0.31262 0.0
C1410 C 0.25401 0.45573 0.33027 0.0
C1411 C 0.26138 0.42672 0.33146 0.0
C1412 C 0.26775 0.41786 0.3152 0.0
C1413 C 0.26656 0.43739 0.29756 0.0
H1414 H 0.26226 0.41141 0.34506 0.0
H1415 H 0.24216 0.56422 0.16743 0.0
H1416 H 0.77599 0.11666 0.96691 0.0
H1417 H 0.76269 0.1463 0.988 0.0
H1418 H 0.77995 0.24933 0.98383 0.0
H1419 H 0.79335 0.21968 0.96284 0.0
H1420 H 0.77154 0.24316 0.01888 0.0
H1421 H 0.7585 0.22638 0.95313 0.0
H1422 H 0.75357 0.19247 0.9231 0.0
H1423 H 0.73069 0.12871 0.95585 0.0
H1424 H 0.73555 0.16218 0.98618 0.0
H1425 H 0.72874 0.36022 0.04494 0.0
H1426 H 0.74211 0.32977 0.02426 0.0
H1427 H 0.7267 0.22471 0.03419 0.0
H1428 H 0.71324 0.25504 0.05485 0.0
H1429 H 0.73397 0.23284 0.99573 0.0
H1430 H 0.74822 0.24562 0.06163 0.0
H1431 H 0.75324 0.2795 0.09175 0.0
H1432 H 0.77352 0.35121 0.05789 0.0
H1433 H 0.76869 0.31755 0.02756 0.0
C1434 C 0.77707 0.14545 0.97081 0.0
C1435 C 0.78564 0.16598 0.96302 0.0
C1436 C 0.7694 0.16246 0.98272 0.0
C1437 C 0.77007 0.20043 0.98685 0.0
C1438 C 0.77912 0.2202 0.98048 0.0
C1439 C 0.78683 0.20316 0.96859 0.0
C1440 C 0.76111 0.21984 0.99691 0.0
C1441 C 0.76335 0.24121 0.01364 0.0
C1442 C 0.75036 0.21697 0.99027 0.0
C1443 C 0.74744 0.19674 0.972 0.0
C1444 C 0.75245 0.20511 0.95398 0.0
C1445 C 0.74967 0.18593 0.93688 0.0
C1446 C 0.74184 0.15839 0.93756 0.0
C1447 C 0.73676 0.15004 0.95535 0.0
C1448 C 0.73952 0.16916 0.9725 0.0
C1449 C 0.72804 0.33076 0.04238 0.0
C1450 C 0.71995 0.31001 0.05161 0.0
C1451 C 0.73575 0.31336 0.03067 0.0
C1452 C 0.73552 0.27488 0.02801 0.0
C1453 C 0.72706 0.25441 0.03615 0.0
C1454 C 0.71935 0.2718 0.04791 0.0
C1455 C 0.74443 0.25581 0.01767 0.0
C1456 C 0.74217 0.23467 0.00089 0.0
C1457 C 0.75516 0.25895 0.02416 0.0
C1458 C 0.75802 0.27933 0.04233 0.0
C1459 C 0.75369 0.26878 0.0606 0.0
C1460 C 0.75651 0.2879 0.0777 0.0
C1461 C 0.76362 0.31766 0.07672 0.0
C1462 C 0.76799 0.32821 0.05863 0.0
C1463 C 0.76525 0.30905 0.04149 0.0
H1464 H 0.76579 0.33243 0.08998 0.0
H1465 H 0.7397 0.14355 0.92431 0.0
H1466 H 0.9816 0.10161 0.77972 0.0
H1467 H 0.99434 0.133 0.75817 0.0
H1468 H 0.96926 0.20551 0.73775 0.0
H1469 H 0.95641 0.17391 0.75922 0.0
H1470 H 0.98362 0.18859 0.7083 0.0
H1471 H 0.98439 0.23407 0.77422 0.0
H1472 H 0.98531 0.22811 0.81034 0.0
H1473 H 0.01674 0.18074 0.80574 0.0
H1474 H 0.01594 0.18587 0.76952 0.0
H1475 H 0.01486 0.33921 0.67755 0.0
H1476 H 0.00257 0.30446 0.69852 0.0
H1477 H 0.02785 0.22794 0.71303 0.0
H1478 H 0.04028 0.26285 0.69208 0.0
H1479 H 0.01361 0.24592 0.74536 0.0
H1480 H 0.01236 0.21064 0.67694 0.0
H1481 H 0.01054 0.22715 0.64205 0.0
H1482 H 0.97807 0.26127 0.65173 0.0
H1483 H 0.97996 0.24801 0.68717 0.0
C1484 C 0.97872 0.12355 0.77024 0.0
C1485 C 0.96802 0.13554 0.77129 0.0
C1486 C 0.98603 0.14161 0.75802 0.0
C1487 C 0.9828 0.17214 0.74673 0.0
C1488 C 0.97193 0.18213 0.74645 0.0
C1489 C 0.96459 0.16397 0.75866 0.0
C1490 C 0.99091 0.19556 0.73675 0.0
C1491 C 0.99013 0.20133 0.7164 0.0
C1492 C 0.99941 0.2122 0.74736 0.0
C1493 C 1.00005 0.20991 0.76915 0.0
C1494 C 0.99147 0.22211 0.7809 0.0
C1495 C 0.99196 0.21885 0.80138 0.0
C1496 C 1.00104 0.20378 0.81031 0.0
C1497 C 0.00969 0.19224 0.79878 0.0
C1498 C 0.00922 0.19534 0.77828 0.0
C1499 C 0.01788 0.31544 0.68551 0.0
C1500 C 0.02851 0.30355 0.68302 0.0
C1501 C 0.01083 0.2956 0.69748 0.0
C1502 C 0.01426 0.26333 0.70707 0.0
C1503 C 0.02505 0.25276 0.70571 0.0
C1504 C 0.03213 0.27269 0.69373 0.0
C1505 C 0.00633 0.2389 0.71689 0.0
C1506 C 0.00715 0.23294 0.73722 0.0
C1507 C 0.99771 0.22287 0.70632 0.0
C1508 C 0.99635 0.22868 0.68481 0.0
C1509 C 0.00485 0.22195 0.67171 0.0
C1510 C 0.00381 0.23076 0.6518 0.0
C1511 C 0.99416 0.24476 0.64456 0.0
C1512 C 0.98554 0.25035 0.65733 0.0
C1513 C 0.98663 0.24252 0.67739 0.0
H1514 H 0.99338 0.25142 0.62909 0.0
H1515 H 1.00141 0.20129 0.82617 0.0
H1516 H 0.73808 0.36539 0.70585 0.0
H1517 H 0.75121 0.40047 0.72481 0.0
H1518 H 0.72588 0.46749 0.74913 0.0
H1519 H 0.71267 0.4325 0.73006 0.0
H1520 H 0.74163 0.50948 0.73344 0.0
H1521 H 0.73941 0.40685 0.77736 0.0
H1522 H 0.73988 0.34204 0.78854 0.0
H1523 H 0.77269 0.33302 0.77031 0.0
H1524 H 0.77237 0.39759 0.75864 0.0
H1525 H 0.77073 0.60059 0.80865 0.0
H1526 H 0.75871 0.56676 0.78695 0.0
H1527 H 0.78534 0.50267 0.76519 0.0
H1528 H 0.79744 0.53598 0.7874 0.0
H1529 H 0.76958 0.45909 0.77766 0.0
H1530 H 0.7718 0.56305 0.73507 0.0
H1531 H 0.77141 0.62881 0.72552 0.0
H1532 H 0.73851 0.63634 0.74343 0.0
H1533 H 0.73874 0.57073 0.75335 0.0
C1534 C 0.73527 0.38704 0.71558 0.0
C1535 C 0.72434 0.39623 0.71646 0.0
C1536 C 0.74279 0.40708 0.72642 0.0
C1537 C 0.73953 0.43666 0.73835 0.0
C1538 C 0.72857 0.44482 0.73995 0.0
C1539 C 0.72102 0.42462 0.72919 0.0
C1540 C 0.74762 0.46068 0.74796 0.0
C1541 C 0.74764 0.49859 0.74343 0.0
C1542 C 0.75569 0.44623 0.76039 0.0
C1543 C 0.75581 0.40696 0.76682 0.0
C1544 C 0.74668 0.39091 0.77544 0.0
C1545 C 0.74693 0.35423 0.78194 0.0
C1546 C 0.75629 0.33337 0.78006 0.0
C1547 C 0.76543 0.34916 0.77169 0.0
C1548 C 0.76521 0.3858 0.76511 0.0
C1549 C 0.77409 0.57989 0.79893 0.0
C1550 C 0.78503 0.57085 0.79979 0.0
C1551 C 0.7672 0.56064 0.78644 0.0
C1552 C 0.77111 0.53219 0.77439 0.0
C1553 C 0.78215 0.52452 0.77439 0.0
C1554 C 0.78906 0.5437 0.78698 0.0
C1555 C 0.7635 0.50804 0.76359 0.0
C1556 C 0.76358 0.47004 0.76777 0.0
C1557 C 0.75549 0.52246 0.75101 0.0
C1558 C 0.75532 0.562 0.74511 0.0
C1559 C 0.76451 0.57879 0.73713 0.0
C1560 C 0.76431 0.61604 0.73162 0.0
C1561 C 0.75495 0.63676 0.7339 0.0
C1562 C 0.74576 0.62026 0.74168 0.0
C1563 C 0.74592 0.58302 0.74723 0.0
H1564 H 0.75481 0.66559 0.72962 0.0
H1565 H 0.75648 0.30502 0.78516 0.0
H1566 H 0.96635 0.07761 0.48737 0.0
H1567 H 0.97946 0.05476 0.51135 0.0
H1568 H 0.00467 0.11143 0.48011 0.0
H1569 H 0.99169 0.1336 0.456 0.0
H1570 H 0.00984 0.04264 0.48463 0.0
H1571 H 0.99615 0.13596 0.52556 0.0
H1572 H 0.98364 0.17433 0.54462 0.0
H1573 H 0.9754 0.08077 0.58046 0.0
H1574 H 0.98778 0.04157 0.56148 0.0
H1575 H 0.0482 0.97573 0.55657 0.0
H1576 H 0.03744 0.01835 0.53649 0.0
H1577 H 0.00874 0.96025 0.55347 0.0
H1578 H 0.01939 0.91724 0.57303 0.0
H1579 H 0.00748 0.03922 0.55745 0.0
H1580 H 0.01811 0.94489 0.50992 0.0
H1581 H 0.03143 0.90797 0.49167 0.0
H1582 H 0.04565 0.00745 0.46911 0.0
H1583 H 0.03248 0.04497 0.48746 0.0
C1584 C 0.97465 0.08591 0.48593 0.0
C1585 C 0.97801 0.10714 0.46975 0.0
C1586 C 0.98214 0.07289 0.49965 0.0
C1587 C 0.99308 0.08127 0.49752 0.0
C1588 C 0.99631 0.10436 0.48201 0.0
C1589 C 0.98886 0.1171 0.46826 0.0
C1590 C 1.00128 0.06283 0.51005 0.0
C1591 C 0.0094 0.04259 0.50058 0.0
C1592 C 1.0007 0.06241 0.53089 0.0
C1593 C 0.99293 0.08566 0.54197 0.0
C1594 C 0.99162 0.12336 0.53738 0.0
C1595 C 0.98456 0.14534 0.54822 0.0
C1596 C 0.97872 0.13001 0.56374 0.0
C1597 C 0.97994 0.09263 0.56844 0.0
C1598 C 0.987 0.07053 0.55765 0.0
C1599 C 0.03962 0.97177 0.55574 0.0
C1600 C 0.03466 0.94289 0.56618 0.0
C1601 C 0.03348 -0.0037 0.54444 0.0
C1602 C 0.02228 0.99266 0.5437 0.0
C1603 C 0.01736 0.96371 0.55398 0.0
C1604 C 0.02348 0.93888 0.56496 0.0
C1605 C 0.0156 0.01827 0.53189 0.0
C1606 C 0.00786 0.03987 0.5415 0.0
C1607 C 0.01651 0.02022 0.51121 0.0
C1608 C 0.02441 -0.0023 0.50022 0.0
C1609 C 0.02414 0.95888 0.5012 0.0
C1610 C 0.03164 0.93785 0.49082 0.0
C1611 C 0.0394 0.95536 0.47928 0.0
C1612 C 0.03965 0.99393 0.47807 0.0
C1613 C 0.03217 0.01509 0.48846 0.0
H1614 H 0.0452 0.93903 0.47124 0.0
H1615 H 0.97326 0.14708 0.57213 0.0
H1616 H 0.29477 0.21105 0.47133 0.0
H1617 H 0.28175 0.24382 0.49197 0.0
H1618 H 0.25692 0.16931 0.47276 0.0
H1619 H 0.26985 0.13615 0.45245 0.0
H1620 H 0.25177 0.24298 0.46684 0.0
H1621 H 0.26493 0.16554 0.519 0.0
H1622 H 0.27868 0.13741 0.54032 0.0
H1623 H 0.28823 0.24511 0.56025 0.0
H1624 H 0.27462 0.27393 0.53884 0.0
H1625 H 0.20979 0.29896 0.53243 0.0
H1626 H 0.22298 0.26899 0.51106 0.0
H1627 H 0.24787 0.33764 0.53554 0.0
H1628 H 0.23477 0.36765 0.55683 0.0
H1629 H 0.25313 0.26716 0.53862 0.0
H1630 H 0.24029 0.34543 0.48722 0.0
H1631 H 0.22703 0.37512 0.46547 0.0
H1632 H 0.21746 0.26881 0.44355 0.0
H1633 H 0.23058 0.23842 0.46537 0.0
C1634 C 0.2866 0.20102 0.47196 0.0
C1635 C 0.28334 0.17106 0.46025 0.0
C1636 C 0.27916 0.21982 0.4837 0.0
C1637 C 0.26834 0.20914 0.48374 0.0
C1638 C 0.2652 0.17814 0.47282 0.0
C1639 C 0.27264 0.15909 0.46132 0.0
C1640 C 0.26014 0.23183 0.49392 0.0
C1641 C 0.25195 0.24785 0.4826 0.0
C1642 C 0.26062 0.23915 0.51432 0.0
C1643 C 0.26883 0.2219 0.52716 0.0
C1644 C 0.27003 0.18325 0.52779 0.0
C1645 C 0.27778 0.16717 0.53992 0.0
C1646 C 0.28434 0.18947 0.55159 0.0
C1647 C 0.28315 0.22788 0.55118 0.0
C1648 C 0.27541 0.2441 0.53906 0.0
C1649 C 0.21801 0.30839 0.53283 0.0
C1650 C 0.22125 0.33543 0.54642 0.0
C1651 C 0.22555 0.29127 0.52059 0.0
C1652 C 0.23644 0.3008 0.52185 0.0
C1653 C 0.23954 0.32954 0.53448 0.0
C1654 C 0.23201 0.34681 0.54657 0.0
C1655 C 0.24473 0.27855 0.51154 0.0
C1656 C 0.25292 0.26244 0.52285 0.0
C1657 C 0.24432 0.27149 0.49108 0.0
C1658 C 0.23634 0.28962 0.4781 0.0
C1659 C 0.23527 0.32834 0.47792 0.0
C1660 C 0.22781 0.34531 0.46553 0.0
C1661 C 0.22138 0.32386 0.45318 0.0
C1662 C 0.22243 0.28539 0.45315 0.0
C1663 C 0.22989 0.26828 0.46551 0.0
H1664 H 0.21561 0.33705 0.4436 0.0
H1665 H 0.29034 0.17697 0.56098 0.0
H1666 H 0.2135 0.93771 0.72069 0.0
H1667 H 0.22569 0.9677 0.74423 0.0
H1668 H 0.25188 0.95378 0.70362 0.0
H1669 H 0.23989 0.92331 0.68028 0.0
H1670 H 0.24707 0.93292 0.75822 0.0
H1671 H 0.26402 0.0513 0.70883 0.0
H1672 H 0.25815 0.0952 0.68322 0.0
H1673 H 0.22543 0.08037 0.70088 0.0
H1674 H 0.23112 0.03743 0.72702 0.0
H1675 H 0.29603 0.04629 0.78913 0.0
H1676 H 0.28449 0.01664 0.76432 0.0
H1677 H 0.25663 0.04356 0.79882 0.0
H1678 H 0.26794 0.07371 0.82332 0.0
H1679 H 0.26263 0.05734 0.74699 0.0
H1680 H 0.24538 0.94122 0.79657 0.0
H1681 H 0.25088 0.89838 0.82296 0.0
H1682 H 0.28374 0.9098 0.80556 0.0
H1683 H 0.27842 0.95148 0.7786 0.0
C1684 C 0.22186 0.941 0.71683 0.0
C1685 C 0.22574 0.92814 0.69865 0.0
C1686 C 0.22879 0.95817 0.73023 0.0
C1687 C 0.23962 0.96345 0.72544 0.0
C1688 C 0.2435 0.95047 0.7074 0.0
C1689 C 0.23665 0.93284 0.69417 0.0
C1690 C 0.24708 0.98095 0.73955 0.0
C1691 C 0.25038 0.96031 0.75593 0.0
C1692 C 0.25159 0.01627 0.73611 0.0
C1693 C 0.248 0.04048 0.71969 0.0
C1694 C 0.25557 0.05734 0.70724 0.0
C1695 C 0.25228 0.08234 0.69274 0.0
C1696 C 0.24143 0.0906 0.69044 0.0
C1697 C 0.23384 0.07389 0.70265 0.0
C1698 C 0.23709 0.0491 0.71729 0.0
C1699 C 0.28744 0.046 0.79135 0.0
C1700 C 0.2829 0.06213 0.80823 0.0
C1701 C 0.28089 0.02898 0.77725 0.0
C1702 C 0.26976 0.02721 0.78009 0.0
C1703 C 0.26522 0.044 0.79664 0.0
C1704 C 0.27171 0.06141 0.81054 0.0
C1705 C 0.26267 0.0092 0.76555 0.0
C1706 C 0.25938 0.02982 0.74916 0.0
C1707 C 0.25815 0.97392 0.769 0.0
C1708 C 0.26151 0.95021 0.78577 0.0
C1709 C 0.25379 0.93464 0.79837 0.0
C1710 C 0.25686 0.91027 0.81333 0.0
C1711 C 0.26765 0.90138 0.81593 0.0
C1712 C 0.27539 0.91683 0.80357 0.0
C1713 C 0.27235 0.94091 0.78847 0.0
H1714 H 0.27002 0.88262 0.82757 0.0
H1715 H 0.23889 0.1098 0.67913 0.0
H1716 H 0.76227 0.68059 0.42215 0.0
H1717 H 0.75168 0.72201 0.44267 0.0
H1718 H 0.77904 0.741 0.47998 0.0
H1719 H 0.7899 0.69987 0.45902 0.0
H1720 H 0.75853 0.72132 0.49966 0.0
H1721 H 0.7729 0.81501 0.45629 0.0
H1722 H 0.77788 0.84431 0.42478 0.0
H1723 H 0.74561 0.83221 0.40399 0.0
H1724 H 0.74038 0.8038 0.43564 0.0
H1725 H 0.73289 0.86 0.55428 0.0
H1726 H 0.74618 0.83349 0.53212 0.0
H1727 H 0.7215 0.81068 0.48948 0.0
H1728 H 0.70802 0.83692 0.51181 0.0
H1729 H 0.74191 0.83577 0.47311 0.0
H1730 H 0.72742 0.74363 0.51651 0.0
H1731 H 0.72199 0.71821 0.54862 0.0
H1732 H 0.75441 0.72559 0.56922 0.0
H1733 H 0.76003 0.75146 0.53718 0.0
C1734 C 0.76606 0.6933 0.4348 0.0
C1735 C 0.7769 0.68666 0.43911 0.0
C1736 C 0.76001 0.71728 0.44638 0.0
C1737 C 0.76461 0.73481 0.46268 0.0
C1738 C 0.77538 0.72782 0.46735 0.0
C1739 C 0.78154 0.70422 0.45548 0.0
C1740 C 0.75787 0.75903 0.47515 0.0
C1741 C 0.75509 0.74679 0.49405 0.0
C1742 C 0.75312 0.79156 0.46755 0.0
C1743 C 0.75628 0.80705 0.44823 0.0
C1744 C 0.76689 0.81839 0.44494 0.0
C1745 C 0.76973 0.8351 0.42712 0.0
C1746 C 0.76207 0.83995 0.41235 0.0
C1747 C 0.75153 0.8284 0.41543 0.0
C1748 C 0.74861 0.81226 0.43336 0.0
C1749 C 0.73029 0.85014 0.54001 0.0
C1750 C 0.71938 0.85023 0.53486 0.0
C1751 C 0.73791 0.83491 0.5274 0.0
C1752 C 0.73479 0.81966 0.50934 0.0
C1753 C 0.72404 0.82227 0.50342 0.0
C1754 C 0.71636 0.83731 0.51615 0.0
C1755 C 0.74259 0.79808 0.49761 0.0
C1756 C 0.74548 0.8106 0.47883 0.0
C1757 C 0.74741 0.76568 0.5053 0.0
C1758 C 0.74412 0.74989 0.52454 0.0
C1759 C 0.73337 0.74015 0.52794 0.0
C1760 C 0.73026 0.7256 0.54613 0.0
C1761 C 0.73783 0.72044 0.56102 0.0
C1762 C 0.74855 0.72968 0.55769 0.0
C1763 C 0.7517 0.74424 0.53951 0.0
H1764 H 0.73539 0.70918 0.57509 0.0
H1765 H 0.7643 0.85271 0.39852 0.0
H1766 H 0.73373 0.88023 0.20849 0.0
H1767 H 0.74796 0.91222 0.22609 0.0
H1768 H 0.7296 0.01332 0.2244 0.0
H1769 H 0.71545 0.98158 0.2061 0.0
H1770 H 0.74873 0.02733 0.21258 0.0
H1771 H 0.73474 0.96267 0.26788 0.0
H1772 H 0.72862 0.911 0.2887 0.0
H1773 H 0.75979 0.86131 0.28539 0.0
H1774 H 0.76604 0.91225 0.26417 0.0
H1775 H 0.77964 0.12515 0.28448 0.0
H1776 H 0.7666 0.09461 0.26318 0.0
H1777 H 0.78761 0.00044 0.25791 0.0
H1778 H 0.80072 0.03097 0.27921 0.0
H1779 H 0.76804 0.98182 0.27143 0.0
H1780 H 0.78191 0.05332 0.21881 0.0
H1781 H 0.78765 0.10929 0.20103 0.0
H1782 H 0.75555 0.15161 0.20291 0.0
H1783 H 0.74966 0.0964 0.22123 0.0
C1784 C 0.73258 0.90905 0.21231 0.0
C1785 C 0.72345 0.92836 0.2059 0.0
C1786 C 0.74075 0.92737 0.22241 0.0
C1787 C 0.73989 0.96528 0.22665 0.0
C1788 C 0.73049 0.98412 0.22122 0.0
C1789 C 0.72235 0.96586 0.21094 0.0
C1790 C 0.74911 0.98573 0.23534 0.0
C1791 C 0.75279 0.01784 0.22577 0.0
C1792 C 0.75468 0.97269 0.25212 0.0
C1793 C 0.75081 0.94105 0.26413 0.0
C1794 C 0.74024 0.94042 0.27129 0.0
C1795 C 0.73676 0.91129 0.28322 0.0
C1796 C 0.74379 0.88277 0.28826 0.0
C1797 C 0.75433 0.8833 0.28137 0.0
C1798 C 0.75784 0.91227 0.26936 0.0
C1799 C 0.78163 0.09841 0.27829 0.0
C1800 C 0.7912 0.08042 0.28354 0.0
C1801 C 0.77417 0.081 0.26608 0.0
C1802 C 0.77612 0.04522 0.25893 0.0
C1803 C 0.78595 0.02809 0.26322 0.0
C1804 C 0.79347 0.04566 0.2753 0.0
C1805 C 0.76737 0.02407 0.24927 0.0
C1806 C 0.76386 0.99156 0.25848 0.0
C1807 C 0.76181 0.03734 0.23257 0.0
C1808 C 0.76536 0.07081 0.22166 0.0
C1809 C 0.77609 0.07477 0.21571 0.0
C1810 C 0.77938 0.10639 0.20552 0.0
C1811 C 0.77198 0.13407 0.20093 0.0
C1812 C 0.76128 0.1302 0.20654 0.0
C1813 C 0.75797 0.09876 0.21685 0.0
H1814 H 0.77453 0.15842 0.19294 0.0
H1815 H 0.7411 0.86038 0.2976 0.0
H1816 H 0.4668 0.56024 0.46521 0.0
H1817 H 0.47875 0.52884 0.4886 0.0
H1818 H 0.5054 0.54645 0.44934 0.0
H1819 H 0.49363 0.57807 0.42616 0.0
H1820 H 0.50306 0.47303 0.4609 0.0
H1821 H 0.50402 0.59374 0.48943 0.0
H1822 H 0.49666 0.65077 0.50387 0.0
H1823 H 0.48358 0.58846 0.55199 0.0
H1824 H 0.4905 0.53074 0.53744 0.0
H1825 H 0.54601 0.4244 0.52916 0.0
H1826 H 0.53446 0.45467 0.50464 0.0
H1827 H 0.50676 0.4306 0.54027 0.0
H1828 H 0.5181 0.39974 0.56441 0.0
H1829 H 0.50993 0.50765 0.53037 0.0
H1830 H 0.50797 0.38731 0.50143 0.0
H1831 H 0.51457 0.32937 0.48672 0.0
H1832 H 0.52929 0.39061 0.43982 0.0
H1833 H 0.52299 0.44909 0.45451 0.0
C1834 C 0.47524 0.55803 0.46178 0.0
C1835 C 0.47926 0.57158 0.44385 0.0
C1836 C 0.48205 0.54005 0.47511 0.0
C1837 C 0.49295 0.53519 0.47062 0.0
C1838 C 0.49701 0.54977 0.45303 0.0
C1839 C 0.49027 0.568 0.43986 0.0
C1840 C 0.50003 0.51319 0.48364 0.0
C1841 C 0.50469 0.48087 0.47602 0.0
C1842 C 0.50193 0.52306 0.50348 0.0
C1843 C 0.49765 0.55775 0.51215 0.0
C1844 C 0.49943 0.59205 0.50292 0.0
C1845 C 0.49534 0.62453 0.51115 0.0
C1846 C 0.48964 0.62324 0.52883 0.0
C1847 C 0.48797 0.58941 0.53827 0.0
C1848 C 0.49194 0.55677 0.53 0.0
C1849 C 0.53744 0.42477 0.53148 0.0
C1850 C 0.53298 0.40979 0.54873 0.0
C1851 C 0.53086 0.44213 0.51752 0.0
C1852 C 0.51978 0.44506 0.52078 0.0
C1853 C 0.5153 0.42874 0.53756 0.0
C1854 C 0.5218 0.41097 0.55129 0.0
C1855 C 0.51293 0.46752 0.50762 0.0
C1856 C 0.50832 0.49993 0.51522 0.0
C1857 C 0.51105 0.45769 0.4878 0.0
C1858 C 0.51516 0.42267 0.47927 0.0
C1859 C 0.51277 0.38852 0.48817 0.0
C1860 C 0.51642 0.35555 0.47979 0.0
C1861 C 0.52237 0.35631 0.46238 0.0
C1862 C 0.52471 0.39007 0.45334 0.0
C1863 C 0.52111 0.42315 0.4617 0.0
H1864 H 0.52514 0.33072 0.45586 0.0
H1865 H 0.48654 0.64847 0.53523 0.0
H1866 H 0.51109 0.83499 0.67642 0.0
H1867 H 0.49939 0.79714 0.69653 0.0
H1868 H 0.52671 0.73694 0.71866 0.0
H1869 H 0.53853 0.77381 0.69735 0.0
H1870 H 0.5116 0.69028 0.71173 0.0
H1871 H 0.51205 0.8032 0.74858 0.0
H1872 H 0.5108 0.87038 0.75448 0.0
H1873 H 0.47864 0.87088 0.73213 0.0
H1874 H 0.47974 0.80372 0.72597 0.0
H1875 H 0.48241 0.61937 0.7945 0.0
H1876 H 0.49466 0.64745 0.77084 0.0
H1877 H 0.46795 0.69805 0.74092 0.0
H1878 H 0.45561 0.67016 0.76473 0.0
H1879 H 0.483 0.74796 0.75202 0.0
H1880 H 0.48297 0.63124 0.7179 0.0
H1881 H 0.48462 0.56338 0.71587 0.0
H1882 H 0.51693 0.56983 0.73714 0.0
H1883 H 0.51546 0.63774 0.73934 0.0
C1884 C 0.51467 0.81407 0.68576 0.0
C1885 C 0.52577 0.80771 0.68549 0.0
C1886 C 0.50794 0.79245 0.69736 0.0
C1887 C 0.51214 0.76464 0.70955 0.0
C1888 C 0.52326 0.75835 0.70948 0.0
C1889 C 0.53003 0.77959 0.69744 0.0
C1890 C 0.50479 0.74175 0.72181 0.0
C1891 C 0.50547 0.70297 0.7208 0.0
C1892 C 0.49663 0.75804 0.73342 0.0
C1893 C 0.496 0.79853 0.7367 0.0
C1894 C 0.50474 0.81771 0.74479 0.0
C1895 C 0.50405 0.85575 0.74822 0.0
C1896 C 0.49465 0.87489 0.74365 0.0
C1897 C 0.48593 0.85603 0.73562 0.0
C1898 C 0.48657 0.81798 0.73217 0.0
C1899 C 0.47911 0.63569 0.78258 0.0
C1900 C 0.46805 0.6427 0.78152 0.0
C1901 C 0.48613 0.65164 0.76901 0.0
C1902 C 0.48223 0.67483 0.75408 0.0
C1903 C 0.47112 0.6802 0.75233 0.0
C1904 C 0.46408 0.6641 0.76587 0.0
C1905 C 0.48978 0.69674 0.74187 0.0
C1906 C 0.48915 0.73538 0.74295 0.0
C1907 C 0.49808 0.68026 0.73073 0.0
C1908 C 0.49907 0.63954 0.72893 0.0
C1909 C 0.49041 0.61817 0.72222 0.0
C1910 C 0.49132 0.5797 0.72101 0.0
C1911 C 0.50086 0.56229 0.72642 0.0
C1912 C 0.50954 0.58334 0.73298 0.0
C1913 C 0.50869 0.62183 0.73412 0.0
H1914 H 0.50155 0.53251 0.72549 0.0
H1915 H 0.49413 0.90432 0.74636 0.0
H1916 H 0.4659 0.24018 0.31414 0.0
H1917 H 0.47964 0.27116 0.29462 0.0
H1918 H 0.48698 0.16809 0.26558 0.0
H1919 H 0.47343 0.13674 0.28553 0.0
H1920 H 0.50458 0.19798 0.27872 0.0
H1921 H 0.47469 0.24218 0.24165 0.0
H1922 H 0.45718 0.27195 0.23618 0.0
H1923 H 0.46931 0.37383 0.25963 0.0
H1924 H 0.48685 0.34447 0.26563 0.0
H1925 H 0.5397 0.26752 0.20593 0.0
H1926 H 0.52547 0.23937 0.22534 0.0
H1927 H 0.51879 0.34482 0.25238 0.0
H1928 H 0.53272 0.37357 0.23205 0.0
H1929 H 0.50094 0.31473 0.24098 0.0
H1930 H 0.53106 0.26853 0.27814 0.0
H1931 H 0.5486 0.23789 0.28186 0.0
H1932 H 0.53589 0.13866 0.25624 0.0
H1933 H 0.5183 0.16878 0.25226 0.0
C1934 C 0.47023 0.22431 0.3032 0.0
C1935 C 0.46857 0.18601 0.30134 0.0
C1936 C 0.47811 0.24208 0.29205 0.0
C1937 C 0.48437 0.222 0.27859 0.0
C1938 C 0.4823 0.18414 0.27595 0.0
C1939 C 0.47449 0.1663 0.28723 0.0
C1940 C 0.4936 0.23971 0.26841 0.0
C1941 C 0.50374 0.22326 0.27025 0.0
C1942 C 0.4926 0.27326 0.2578 0.0
C1943 C 0.48205 0.29098 0.2543 0.0
C1944 C 0.47359 0.27082 0.24584 0.0
C1945 C 0.46367 0.28764 0.24263 0.0
C1946 C 0.46212 0.32471 0.24766 0.0
C1947 C 0.47051 0.34507 0.25586 0.0
C1948 C 0.48044 0.32836 0.25916 0.0
C1949 C 0.53542 0.2845 0.21643 0.0
C1950 C 0.53741 0.32264 0.21765 0.0
C1951 C 0.52726 0.26836 0.22753 0.0
C1952 C 0.52112 0.28976 0.24059 0.0
C1953 C 0.52341 0.32767 0.24244 0.0
C1954 C 0.53144 0.34402 0.23098 0.0
C1955 C 0.51191 0.27297 0.25129 0.0
C1956 C 0.50178 0.28958 0.24956 0.0
C1957 C 0.51289 0.23944 0.26192 0.0
C1958 C 0.52338 0.22097 0.26484 0.0
C1959 C 0.53202 0.24019 0.27328 0.0
C1960 C 0.54196 0.22292 0.27544 0.0
C1961 C 0.54336 0.18636 0.26928 0.0
C1962 C 0.53479 0.16695 0.26104 0.0
C1963 C 0.52483 0.18407 0.25888 0.0
H1964 H 0.55107 0.17308 0.27091 0.0
H1965 H 0.45443 0.33771 0.24513 0.0
H1966 H 0.48424 0.10882 0.96122 0.0
H1967 H 0.49698 0.07343 0.98097 0.0
H1968 H 0.47346 0.98767 0.98921 0.0
H1969 H 0.46068 0.02253 0.96894 0.0
H1970 H 0.48842 0.013 0.02488 0.0
H1971 H 0.48747 0.96595 0.95788 0.0
H1972 H 0.48788 0.97262 0.92184 0.0
H1973 H 0.51883 0.02387 0.92533 0.0
H1974 H 0.51849 0.01798 0.96155 0.0
H1975 H 0.52146 0.86985 0.05645 0.0
H1976 H 0.50805 0.89999 0.03576 0.0
H1977 H 0.53236 0.97185 0.0119 0.0
H1978 H 0.54588 0.94149 0.03246 0.0
H1979 H 0.51689 0.95437 0.98442 0.0
H1980 H 0.5191 -0.0024 0.05029 0.0
H1981 H 0.51946 0.99151 0.08636 0.0
H1982 H 0.48704 0.95232 0.086 0.0
H1983 H 0.48657 0.95701 0.04977 0.0
C1984 C 0.48166 0.08285 0.9676 0.0
C1985 C 0.47145 0.0684 0.96346 0.0
C1986 C 0.48897 0.06266 0.97886 0.0
C1987 C 0.48616 0.02796 0.98644 0.0
C1988 C 0.47574 0.01453 0.98352 0.0
C1989 C 0.46846 0.03446 0.97196 0.0
C1990 C 0.49447 0.00433 0.99559 0.0
C1991 C 0.49455 -0.00036 0.01607 0.0
C1992 C 0.50267 0.98813 0.98409 0.0
C1993 C 0.50289 0.99192 0.96239 0.0
C1994 C 0.4943 0.979 0.95096 0.0
C1995 C 0.49454 0.98254 0.9305 0.0
C1996 C 0.50337 -0.00129 0.92126 0.0
C1997 C 0.51198 0.01138 0.9325 0.0
C1998 C 0.51178 0.00794 0.953 0.0
C1999 C 0.52402 0.89128 0.04634 0.0
C2000 C 0.53469 0.90364 0.04624 0.0
C2001 C 0.51634 0.90859 0.03461 0.0
C2002 C 0.51918 0.93875 0.02271 0.0
C2003 C 0.53 0.94878 0.02111 0.0
C2004 C 0.53772 0.93133 0.03282 0.0
C2005 C 0.51074 0.96219 0.01373 0.0
C2006 C 0.51072 0.96734 0.9933 0.0
C2007 C 0.50269 0.97922 0.02536 0.0
C2008 C 0.50285 0.97715 0.04722 0.0
C2009 C 0.51209 0.98711 0.05783 0.0
C2010 C 0.51233 0.98388 0.07833 0.0
C2011 C 0.5033 0.97135 0.08847 0.0
C2012 C 0.49403 0.96196 0.07811 0.0
C2013 C 0.49378 0.96485 0.05758 0.0
H2014 H 0.50349 0.96909 0.10435 0.0
H2015 H 0.50355 0.00135 0.90539 0.0
H2016 H 0.17297 0.36605 0.1786 0.0
H2017 H 0.15381 0.36988 0.17105 0.0
H2018 H 0.16119 0.4166 0.11418 0.0
H2019 H 0.18026 0.41374 0.12184 0.0
H2020 H 0.14463 0.45079 0.12899 0.0
H2021 H 0.15469 0.32445 0.11992 0.0
H2022 H 0.16245 0.26412 0.12908 0.0
H2023 H 0.13965 0.25361 0.17606 0.0
H2024 H 0.13185 0.31418 0.16737 0.0
H2025 H 0.09488 0.40932 0.08121 0.0
H2026 H 0.11392 0.40757 0.09017 0.0
H2027 H 0.10541 0.38358 0.15036 0.0
H2028 H 0.08641 0.38598 0.14162 0.0
H2029 H 0.1223 0.33771 0.13406 0.0
H2030 H 0.11231 0.46606 0.14143 0.0
H2031 H 0.10469 0.5253 0.13015 0.0
H2032 H 0.12773 0.5299 0.0833 0.0
H2033 H 0.13539 0.47036 0.09414 0.0
C2034 C 0.17048 0.37747 0.16458 0.0
C2035 C 0.17811 0.38935 0.15076 0.0
C2036 C 0.15954 0.37942 0.16022 0.0
C2037 C 0.15605 0.39293 0.14189 0.0
C2038 C 0.16367 0.40596 0.12838 0.0
C2039 C 0.17458 0.4042 0.13277 0.0
C2040 C 0.1445 0.39287 0.13654 0.0
C2041 C 0.1398 0.42593 0.12991 0.0
C2042 C 0.13812 0.36055 0.13788 0.0
C2043 C 0.14276 0.32405 0.14313 0.0
C2044 C 0.15138 0.30942 0.13231 0.0
C2045 C 0.15578 0.27516 0.1374 0.0
C2046 C 0.15156 0.2551 0.15318 0.0
C2047 C 0.14292 0.26922 0.16387 0.0
C2048 C 0.13851 0.30351 0.15886 0.0
C2049 C 0.09708 0.40361 0.09633 0.0
C2050 C 0.08917 0.39795 0.11073 0.0
C2051 C 0.10794 0.40266 0.10143 0.0
C2052 C 0.11105 0.39554 0.12094 0.0
C2053 C 0.10317 0.38909 0.13523 0.0
C2054 C 0.09233 0.39063 0.13022 0.0
C2055 C 0.12252 0.39554 0.12657 0.0
C2056 C 0.12717 0.36249 0.13321 0.0
C2057 C 0.1289 0.42767 0.12493 0.0
C2058 C 0.12435 0.46356 0.11847 0.0
C2059 C 0.11569 0.47953 0.12862 0.0
C2060 C 0.11137 0.5132 0.12232 0.0
C2061 C 0.1157 0.5313 0.10598 0.0
C2062 C 0.12438 0.51582 0.09593 0.0
C2063 C 0.12871 0.48212 0.10215 0.0
H2064 H 0.11235 0.55737 0.10113 0.0
H2065 H 0.15497 0.22856 0.15708 0.0
H2066 H 0.08441 0.87049 0.17144 0.0
H2067 H 0.10334 0.86681 0.162 0.0
H2068 H 0.09508 0.8962 0.10236 0.0
H2069 H 0.07621 0.8998 0.11164 0.0
H2070 H 0.10871 0.83778 0.10338 0.0
H2071 H 0.10673 0.95875 0.13193 0.0
H2072 H 0.1025 0.00472 0.15758 0.0
H2073 H 0.12386 0.95007 0.19768 0.0
H2074 H 0.12811 0.90344 0.17235 0.0
H2075 H 0.16254 0.86888 0.07066 0.0
H2076 H 0.14347 0.87632 0.07847 0.0
H2077 H 0.15007 0.85262 0.13953 0.0
H2078 H 0.16903 0.84578 0.13192 0.0
H2079 H 0.13711 0.91025 0.13672 0.0
H2080 H 0.1386 0.78808 0.10883 0.0
H2081 H 0.14279 0.74155 0.08344 0.0
H2082 H 0.12233 0.79782 0.04238 0.0
H2083 H 0.11813 0.84498 0.06747 0.0
C2084 C 0.08665 0.87639 0.15636 0.0
C2085 C 0.07882 0.88553 0.14231 0.0
C2086 C 0.09746 0.87434 0.15098 0.0
C2087 C 0.10063 0.88142 0.13148 0.0
C2088 C 0.09282 0.89059 0.11747 0.0
C2089 C 0.08204 0.89279 0.12284 0.0
C2090 C 0.11207 0.87871 0.12555 0.0
C2091 C 0.11491 0.85401 0.11048 0.0
C2092 C 0.12018 0.89936 0.13505 0.0
C2093 C 0.11766 0.92739 0.1503 0.0
C2094 C 0.11046 0.95635 0.14627 0.0
C2095 C 0.10807 0.98256 0.16074 0.0
C2096 C 0.11289 0.98026 0.17926 0.0
C2097 C 0.12013 0.95179 0.18334 0.0
C2098 C 0.12253 0.92548 0.16892 0.0
C2099 C 0.1599 0.86517 0.08572 0.0
C2100 C 0.16729 0.85669 0.10066 0.0
C2101 C 0.149 0.86932 0.09017 0.0
C2102 C 0.14531 0.8648 0.1096 0.0
C2103 C 0.15271 0.85636 0.12447 0.0
C2104 C 0.16356 0.85231 0.12005 0.0
C2105 C 0.13378 0.86904 0.11466 0.0
C2106 C 0.13092 0.89409 0.12956 0.0
C2107 C 0.12565 0.84862 0.10504 0.0
C2108 C 0.12815 0.82028 0.08995 0.0
C2109 C 0.13507 0.7907 0.09433 0.0
C2110 C 0.13743 0.76418 0.08001 0.0
C2111 C 0.13286 0.76679 0.06129 0.0
C2112 C 0.12589 0.79587 0.05688 0.0
C2113 C 0.12351 0.82249 0.07115 0.0
H2114 H 0.13469 0.74623 0.05022 0.0
H2115 H 0.11103 0.00058 0.19044 0.0
H2116 H 0.83228 0.61491 0.89327 0.0
H2117 H 0.85125 0.61537 0.9019 0.0
H2118 H 0.85956 0.59531 0.84121 0.0
H2119 H 0.84049 0.59478 0.83242 0.0
H2120 H 0.87069 0.55034 0.86696 0.0
H2121 H 0.86297 0.67931 0.86002 0.0
H2122 H 0.85315 0.73744 0.86586 0.0
H2123 H 0.86054 0.73113 0.92749 0.0
H2124 H 0.87026 0.6726 0.92208 0.0
H2125 H 0.92594 0.58989 0.87374 0.0
H2126 H 0.90696 0.58994 0.86542 0.0
H2127 H 0.89904 0.61497 0.92577 0.0
H2128 H 0.91816 0.61551 0.93419 0.0
H2129 H 0.88762 0.65732 0.90044 0.0
H2130 H 0.89535 0.52834 0.90742 0.0
H2131 H 0.90527 0.47042 0.90154 0.0
H2132 H 0.89781 0.47662 0.83992 0.0
H2133 H 0.88798 0.53491 0.84539 0.0
C2134 C 0.83814 0.61068 0.88172 0.0
C2135 C 0.83489 0.60485 0.86214 0.0
C2136 C 0.84898 0.6111 0.88668 0.0
C2137 C 0.85683 0.60569 0.87219 0.0
C2138 C 0.85363 0.59961 0.85262 0.0
C2139 C 0.84275 0.59943 0.84761 0.0
C2140 C 0.86835 0.6058 0.87762 0.0
C2141 C 0.87444 0.57392 0.87402 0.0
C2142 C 0.87314 0.63621 0.88733 0.0
C2143 C 0.86727 0.67136 0.89066 0.0
C2144 C 0.86242 0.69012 0.87485 0.0
C2145 C 0.85689 0.72318 0.87808 0.0
C2146 C 0.85622 0.73794 0.89703 0.0
C2147 C 0.86106 0.71964 0.91281 0.0
C2148 C 0.8666 0.68654 0.90967 0.0
C2149 C 0.92018 0.59525 0.8853 0.0
C2150 C 0.92355 0.60255 0.90466 0.0
C2151 C 0.90931 0.59515 0.88052 0.0
C2152 C 0.90155 0.60201 0.89501 0.0
C2153 C 0.90488 0.6095 0.91436 0.0
C2154 C 0.9158 0.60965 0.91917 0.0
C2155 C 0.88999 0.60185 0.88976 0.0
C2156 C 0.88387 0.63371 0.89341 0.0
C2157 C 0.88516 0.57139 0.88011 0.0
C2158 C 0.89101 0.53619 0.87679 0.0
C2159 C 0.89589 0.51751 0.89259 0.0
C2160 C 0.90149 0.48458 0.88934 0.0
C2161 C 0.90219 0.46989 0.87036 0.0
C2162 C 0.89727 0.48805 0.85461 0.0
C2163 C 0.89168 0.52102 0.85778 0.0
H2164 H 0.90653 0.4444 0.86787 0.0
H2165 H 0.85198 0.76364 0.89948 0.0
H2166 H 0.91192 0.1175 0.8123 0.0
H2167 H 0.89342 0.1204 0.82442 0.0
H2168 H 0.90505 0.13649 0.88358 0.0
H2169 H 0.92346 0.13336 0.87165 0.0
H2170 H 0.88924 0.08604 0.88284 0.0
H2171 H 0.89488 0.20836 0.85753 0.0
H2172 H 0.89983 0.25496 0.83263 0.0
H2173 H 0.87488 0.21568 0.79454 0.0
H2174 H 0.86988 0.16848 0.81912 0.0
H2175 H 0.83891 0.13754 0.92521 0.0
H2176 H 0.85768 0.13782 0.9144 0.0
H2177 H 0.84745 0.12507 0.85413 0.0
H2178 H 0.82881 0.1254 0.86473 0.0
H2179 H 0.86278 0.17536 0.85628 0.0
H2180 H 0.85747 0.05193 0.881 0.0
H2181 H 0.85252 0.00501 0.90574 0.0
H2182 H 0.87682 0.04603 0.94473 0.0
H2183 H 0.88182 0.09354 0.92031 0.0
C2184 C 0.91051 0.12175 0.82787 0.0
C2185 C 0.91915 0.12528 0.841 0.0
C2186 C 0.89995 0.12352 0.83478 0.0
C2187 C 0.89784 0.12894 0.85492 0.0
C2188 C 0.90647 0.13226 0.86801 0.0
C2189 C 0.917 0.13059 0.86113 0.0
C2190 C 0.88666 0.13079 0.86244 0.0
C2191 C 0.88349 0.1059 0.87722 0.0
C2192 C 0.8791 0.15625 0.85488 0.0
C2193 C 0.88208 0.18464 0.84009 0.0
C2194 C 0.89051 0.20946 0.84378 0.0
C2195 C 0.89331 0.23601 0.82974 0.0
C2196 C 0.88769 0.23821 0.81199 0.0
C2197 C 0.87924 0.21391 0.80828 0.0
C2198 C 0.87641 0.18727 0.82227 0.0
C2199 C 0.84069 0.13482 0.90967 0.0
C2200 C 0.83238 0.13137 0.89584 0.0
C2201 C 0.85141 0.13485 0.9035 0.0
C2202 C 0.854 0.13115 0.88343 0.0
C2203 C 0.84568 0.12803 0.86966 0.0
C2204 C 0.83501 0.12809 0.87578 0.0
C2205 C 0.86532 0.13042 0.87659 0.0
C2206 C 0.86853 0.15555 0.86195 0.0
C2207 C 0.87291 0.10513 0.88425 0.0
C2208 C 0.86994 0.07653 0.89892 0.0
C2209 C 0.8617 0.05113 0.89491 0.0
C2210 C 0.8589 0.0244 0.90887 0.0
C2211 C 0.86433 0.02261 0.92682 0.0
C2212 C 0.8726 0.04749 0.93083 0.0
C2213 C 0.87543 0.07431 0.91694 0.0
H2214 H 0.86215 0.00189 0.9376 0.0
H2215 H 0.88987 0.2588 0.80114 0.0
H2216 H 0.17322 0.87173 0.6177 0.0
H2217 H 0.15385 0.87448 0.61294 0.0
H2218 H 0.14961 0.90135 0.6743 0.0
H2219 H 0.16907 0.89853 0.67921 0.0
H2220 H 0.13532 0.84828 0.66142 0.0
H2221 H 0.14738 0.96797 0.64042 0.0
H2222 H 0.1585 0.01167 0.62149 0.0
H2223 H 0.14642 0.96672 0.56739 0.0
H2224 H 0.13534 0.92236 0.586 0.0
H2225 H 0.08079 0.90089 0.65387 0.0
H2226 H 0.10009 0.90082 0.65984 0.0
H2227 H 0.10581 0.88314 0.59792 0.0
H2228 H 0.08649 0.88402 0.5918 0.0
H2229 H 0.11941 0.93275 0.6118 0.0
H2230 H 0.10789 0.81218 0.6319 0.0
H2231 H 0.09695 0.76686 0.65011 0.0
H2232 H 0.10817 0.81131 0.70495 0.0
H2233 H 0.11907 0.85726 0.68706 0.0
C2234 C 0.16818 0.8782 0.63021 0.0
C2235 C 0.17268 0.88503 0.64883 0.0
C2236 C 0.1571 0.87991 0.62744 0.0
C2237 C 0.15029 0.88854 0.64321 0.0
C2238 C 0.15473 0.89476 0.66191 0.0
C2239 C 0.16584 0.89322 0.66469 0.0
C2240 C 0.13853 0.89089 0.64009 0.0
C2241 C 0.13181 0.86716 0.65081 0.0
C2242 C 0.13399 0.91481 0.62584 0.0
C2243 C 0.1406 0.94162 0.61461 0.0
C2244 C 0.14715 0.96721 0.62449 0.0
C2245 C 0.15344 0.99213 0.61381 0.0
C2246 C 0.15319 0.99191 0.59325 0.0
C2247 C 0.14662 0.96683 0.58332 0.0
C2248 C 0.14033 0.94181 0.59392 0.0
C2249 C 0.08616 0.89705 0.64151 0.0
C2250 C 0.08212 0.89231 0.62237 0.0
C2251 C 0.0972 0.89683 0.64496 0.0
C2252 C 0.10443 0.89141 0.62938 0.0
C2253 C 0.10041 0.88729 0.61019 0.0
C2254 C 0.08936 0.88771 0.60671 0.0
C2255 C 0.11617 0.89003 0.6331 0.0
C2256 C 0.12289 0.91394 0.62248 0.0
C2257 C 0.12073 0.86606 0.64733 0.0
C2258 C 0.11421 0.8384 0.65814 0.0
C2259 C 0.10796 0.81248 0.64784 0.0
C2260 C 0.10178 0.78665 0.65811 0.0
C2261 C 0.10185 0.78627 0.67867 0.0
C2262 C 0.10812 0.81167 0.68902 0.0
C2263 C 0.1143 0.8376 0.67882 0.0
H2264 H 0.09706 0.76625 0.68659 0.0
H2265 H 0.15806 0.01123 0.58502 0.0
H2266 H 0.07862 0.35044 0.59698 0.0
H2267 H 0.098 0.35127 0.59228 0.0
H2268 H 0.10262 0.34008 0.65493 0.0
H2269 H 0.08314 0.33953 0.65977 0.0
H2270 H 0.11586 0.39225 0.63919 0.0
H2271 H 0.10641 0.26676 0.62513 0.0
H2272 H 0.09635 0.2165 0.60906 0.0
H2273 H 0.10752 0.25286 0.55249 0.0
H2274 H 0.11753 0.3037 0.5682 0.0
H2275 H 0.171 0.34658 0.63565 0.0
H2276 H 0.15166 0.34461 0.64082 0.0
H2277 H 0.14655 0.35514 0.57827 0.0
H2278 H 0.16597 0.35668 0.57294 0.0
H2279 H 0.13358 0.30291 0.59431 0.0
H2280 H 0.14308 0.42844 0.60852 0.0
H2281 H 0.15338 0.47788 0.62473 0.0
H2282 H 0.14216 0.44124 0.68123 0.0
H2283 H 0.13195 0.39107 0.66535 0.0
C2284 C 0.08375 0.3481 0.60978 0.0
C2285 C 0.07935 0.34476 0.62875 0.0
C2286 C 0.09484 0.34845 0.60705 0.0
C2287 C 0.10177 0.34531 0.62322 0.0
C2288 C 0.09741 0.34245 0.64223 0.0
C2289 C 0.0863 0.34201 0.64497 0.0
C2290 C 0.11357 0.34525 0.6202 0.0
C2291 C 0.11976 0.37238 0.62961 0.0
C2292 C 0.11862 0.31986 0.60734 0.0
C2293 C 0.11264 0.28926 0.59784 0.0
C2294 C 0.10665 0.26423 0.60925 0.0
C2295 C 0.10097 0.2356 0.60021 0.0
C2296 C 0.10128 0.23154 0.57976 0.0
C2297 C 0.10729 0.25606 0.56832 0.0
C2298 C 0.11297 0.28477 0.57729 0.0
C2299 C 0.16577 0.34847 0.62297 0.0
C2300 C 0.17001 0.35194 0.60388 0.0
C2301 C 0.15471 0.34748 0.62597 0.0
C2302 C 0.14764 0.35019 0.60996 0.0
C2303 C 0.15185 0.35309 0.59084 0.0
C2304 C 0.16294 0.35408 0.58782 0.0
C2305 C 0.13587 0.34995 0.61325 0.0
C2306 C 0.12968 0.32277 0.6039 0.0
C2307 C 0.13082 0.37528 0.62618 0.0
C2308 C 0.13683 0.40576 0.63575 0.0
C2309 C 0.14287 0.43075 0.62441 0.0
C2310 C 0.14869 0.45894 0.63354 0.0
C2311 C 0.14845 0.46268 0.65401 0.0
C2312 C 0.14235 0.43828 0.66538 0.0
C2313 C 0.13655 0.40997 0.65632 0.0
H2314 H 0.15296 0.48449 0.66107 0.0
H2315 H 0.09688 0.20936 0.57279 0.0
H2316 H 0.83551 0.10806 0.38286 0.0
H2317 H 0.85409 0.11134 0.39373 0.0
H2318 H 0.86437 0.12598 0.3336 0.0
H2319 H 0.84569 0.12212 0.32253 0.0
H2320 H 0.87689 0.07691 0.35262 0.0
H2321 H 0.86374 0.19888 0.36576 0.0
H2322 H 0.85127 0.24516 0.37937 0.0
H2323 H 0.85781 0.20632 0.43789 0.0
H2324 H 0.87021 0.15942 0.42461 0.0
H2325 H 0.92984 0.13054 0.37375 0.0
H2326 H 0.91123 0.13055 0.36299 0.0
H2327 H 0.90085 0.11666 0.42311 0.0
H2328 H 0.91959 0.11745 0.4341 0.0
H2329 H 0.88838 0.16584 0.40405 0.0
H2330 H 0.90133 0.04342 0.39088 0.0
H2331 H 0.91373 -0.00308 0.37728 0.0
H2332 H 0.90746 0.03648 0.31879 0.0
H2333 H 0.89513 0.08358 0.33207 0.0
C2334 C 0.84171 0.11204 0.37191 0.0
C2335 C 0.83912 0.11495 0.35182 0.0
C2336 C 0.85234 0.11409 0.37818 0.0
C2337 C 0.86064 0.11946 0.36454 0.0
C2338 C 0.8581 0.12197 0.34441 0.0
C2339 C 0.84743 0.11984 0.3381 0.0
C2340 C 0.87194 0.12178 0.37134 0.0
C2341 C 0.87943 0.09675 0.36363 0.0
C2342 C 0.87522 0.14701 0.38612 0.0
C2343 C 0.86784 0.17541 0.39417 0.0
C2344 C 0.86247 0.20003 0.38152 0.0
C2345 C 0.85542 0.2264 0.38918 0.0
C2346 C 0.85373 0.22862 0.40947 0.0
C2347 C 0.85912 0.20454 0.42216 0.0
C2348 C 0.86617 0.17808 0.41458 0.0
C2349 C 0.92361 0.12754 0.38474 0.0
C2350 C 0.9262 0.1237 0.40479 0.0
C2351 C 0.91296 0.12741 0.37853 0.0
C2352 C 0.90462 0.12291 0.39217 0.0
C2353 C 0.90715 0.11998 0.41229 0.0
C2354 C 0.91785 0.12035 0.41855 0.0
C2355 C 0.89332 0.12097 0.38531 0.0
C2356 C 0.88583 0.14604 0.39301 0.0
C2357 C 0.89003 0.09576 0.37052 0.0
C2358 C 0.89738 0.06725 0.36249 0.0
C2359 C 0.90265 0.04237 0.37513 0.0
C2360 C 0.90966 0.01588 0.36747 0.0
C2361 C 0.9114 0.0138 0.34719 0.0
C2362 C 0.90611 0.03815 0.3345 0.0
C2363 C 0.8991 0.06472 0.34208 0.0
H2364 H 0.91684 0.99328 0.34129 0.0
H2365 H 0.84827 0.24904 0.41537 0.0
H2366 H 0.9182 0.62715 0.37859 0.0
H2367 H 0.89907 0.62591 0.38563 0.0
H2368 H 0.89219 0.63016 0.32344 0.0
H2369 H 0.91146 0.63223 0.31627 0.0
H2370 H 0.87933 0.67585 0.34307 0.0
H2371 H 0.88954 0.54928 0.34994 0.0
H2372 H 0.90023 0.4966 0.36202 0.0
H2373 H 0.89126 0.52216 0.42149 0.0
H2374 H 0.88063 0.57534 0.4098 0.0
H2375 H 0.82468 0.62383 0.35231 0.0
H2376 H 0.84378 0.62354 0.34452 0.0
H2377 H 0.85132 0.63288 0.40626 0.0
H2378 H 0.83213 0.6334 0.4142 0.0
H2379 H 0.86366 0.5793 0.3863 0.0
H2380 H 0.85352 0.7067 0.37871 0.0
H2381 H 0.84256 0.75812 0.36596 0.0
H2382 H 0.85118 0.72905 0.30676 0.0
H2383 H 0.86207 0.67705 0.31916 0.0
C2384 C 0.91263 0.62773 0.36637 0.0
C2385 C 0.91635 0.62963 0.34685 0.0
C2386 C 0.90168 0.62684 0.37043 0.0
C2387 C 0.89417 0.62733 0.35507 0.0
C2388 C 0.89784 0.6296 0.33553 0.0
C2389 C 0.90884 0.63068 0.33145 0.0
C2390 C 0.8825 0.62611 0.35956 0.0
C2391 C 0.87589 0.65438 0.35227 0.0
C2392 C 0.87801 0.59856 0.3719 0.0
C2393 C 0.88437 0.56652 0.379 0.0
C2394 C 0.88991 0.54385 0.36561 0.0
C2395 C 0.89595 0.51386 0.37238 0.0
C2396 C 0.89644 0.50609 0.39251 0.0
C2397 C 0.89088 0.52824 0.40591 0.0
C2398 C 0.88484 0.55829 0.39921 0.0
C2399 C 0.83039 0.62579 0.36426 0.0
C2400 C 0.8269 0.62874 0.38388 0.0
C2401 C 0.84131 0.62573 0.35977 0.0
C2402 C 0.84897 0.62847 0.37479 0.0
C2403 C 0.84553 0.63079 0.39445 0.0
C2404 C 0.83458 0.6312 0.39895 0.0
C2405 C 0.86055 0.62906 0.36988 0.0
C2406 C 0.86713 0.60067 0.37708 0.0
C2407 C 0.86499 0.65633 0.35735 0.0
C2408 C 0.85852 0.68775 0.34986 0.0
C2409 C 0.85301 0.71107 0.36297 0.0
C2410 C 0.84682 0.74036 0.3558 0.0
C2411 C 0.84615 0.74679 0.33556 0.0
C2412 C 0.8517 0.724 0.32244 0.0
C2413 C 0.85788 0.69464 0.32953 0.0
H2414 H 0.84136 0.76948 0.33004 0.0
H2415 H 0.90112 0.48286 0.39773 0.0
H2416 H 0.57978 0.39213 0.64634 0.0
H2417 H 0.5985 0.38887 0.65657 0.0
H2418 H 0.60828 0.38129 0.59579 0.0
H2419 H 0.58949 0.38397 0.58545 0.0
H2420 H 0.61868 0.33158 0.618 0.0
H2421 H 0.61132 0.46166 0.62212 0.0
H2422 H 0.60144 0.51726 0.63268 0.0
H2423 H 0.60773 0.49075 0.69321 0.0
H2424 H 0.61753 0.43467 0.68301 0.0
H2425 H 0.67364 0.36877 0.62843 0.0
H2426 H 0.65467 0.37226 0.62037 0.0
H2427 H 0.64685 0.37654 0.68219 0.0
H2428 H 0.666 0.37349 0.69042 0.0
H2429 H 0.63528 0.42667 0.66085 0.0
H2430 H 0.64314 0.29746 0.65657 0.0
H2431 H 0.65313 0.2422 0.64587 0.0
H2432 H 0.64595 0.26725 0.5855 0.0
H2433 H 0.63604 0.32298 0.59583 0.0
C2434 C 0.58591 0.38992 0.63512 0.0
C2435 C 0.58316 0.38841 0.61507 0.0
C2436 C 0.59662 0.3882 0.641 0.0
C2437 C 0.60482 0.38526 0.62695 0.0
C2438 C 0.60209 0.38363 0.6069 0.0
C2439 C 0.59136 0.38528 0.601 0.0
C2440 C 0.61622 0.38311 0.63321 0.0
C2441 C 0.62234 0.35264 0.62715 0.0
C2442 C 0.62093 0.41001 0.64565 0.0
C2443 C 0.61506 0.44376 0.65181 0.0
C2444 C 0.61052 0.46752 0.63769 0.0
C2445 C 0.60495 0.49915 0.64361 0.0
C2446 C 0.60393 0.50748 0.6636 0.0
C2447 C 0.60851 0.48423 0.67772 0.0
C2448 C 0.61408 0.45254 0.67188 0.0
C2449 C 0.66791 0.37042 0.64036 0.0
C2450 C 0.67132 0.37066 0.66009 0.0
C2451 C 0.65704 0.37227 0.63571 0.0
C2452 C 0.64932 0.3741 0.65067 0.0
C2453 C 0.65268 0.37497 0.67041 0.0
C2454 C 0.6636 0.37314 0.6751 0.0
C2455 C 0.63776 0.37532 0.64549 0.0
C2456 C 0.6316 0.40557 0.65176 0.0
C2457 C 0.63301 0.34823 0.63323 0.0
C2458 C 0.63892 0.31458 0.62697 0.0
C2459 C 0.64375 0.29134 0.641 0.0
C2460 C 0.64939 0.2599 0.63501 0.0
C2461 C 0.65019 0.25126 0.61502 0.0
C2462 C 0.64533 0.27399 0.60098 0.0
C2463 C 0.63969 0.30549 0.6069 0.0
H2464 H 0.65457 0.22691 0.61041 0.0
H2465 H 0.59961 0.53199 0.66815 0.0
H2466 H 0.58022 0.84583 0.65663 0.0
H2467 H 0.59933 0.84596 0.64836 0.0
H2468 H 0.59163 0.87086 0.58789 0.0
H2469 H 0.57257 0.87037 0.59599 0.0
H2470 H 0.60664 0.81787 0.58999 0.0
H2471 H 0.60103 0.93765 0.61863 0.0
H2472 H 0.5952 0.98182 0.64411 0.0
H2473 H 0.61714 0.93329 0.68537 0.0
H2474 H 0.623 0.88846 0.6602 0.0
H2475 H 0.65953 0.86931 0.5598 0.0
H2476 H 0.64027 0.8701 0.5671 0.0
H2477 H 0.64696 0.84424 0.62787 0.0
H2478 H 0.6661 0.84367 0.62075 0.0
H2479 H 0.6324 0.89876 0.62506 0.0
H2480 H 0.63776 0.77837 0.59689 0.0
H2481 H 0.64366 0.73391 0.5716 0.0
H2482 H 0.62226 0.78334 0.52968 0.0
H2483 H 0.61634 0.82845 0.55467 0.0
C2484 C 0.58261 0.85134 0.64159 0.0
C2485 C 0.57489 0.85818 0.62698 0.0
C2486 C 0.59353 0.85155 0.63689 0.0
C2487 C 0.59692 0.85877 0.61752 0.0
C2488 C 0.58921 0.86523 0.60291 0.0
C2489 C 0.57831 0.86505 0.60759 0.0
C2490 C 0.6085 0.85948 0.61242 0.0
C2491 C 0.61225 0.83593 0.59748 0.0
C2492 C 0.61587 0.88249 0.62243 0.0
C2493 C 0.61237 0.90945 0.63758 0.0
C2494 C 0.60455 0.93619 0.63318 0.0
C2495 C 0.60125 0.96139 0.64756 0.0
C2496 C 0.60577 0.9603 0.66636 0.0
C2497 C 0.61363 0.93407 0.67081 0.0
C2498 C 0.61695 0.90878 0.65649 0.0
C2499 C 0.65687 0.86374 0.57469 0.0
C2500 C 0.66433 0.85634 0.58968 0.0
C2501 C 0.64588 0.8641 0.57884 0.0
C2502 C 0.64217 0.857 0.59803 0.0
C2503 C 0.64962 0.84986 0.61298 0.0
C2504 C 0.66057 0.8494 0.60885 0.0
C2505 C 0.63054 0.85708 0.60268 0.0
C2506 C 0.62678 0.88078 0.61753 0.0
C2507 C 0.62317 0.83417 0.59261 0.0
C2508 C 0.62669 0.80703 0.57758 0.0
C2509 C 0.63438 0.77996 0.58223 0.0
C2510 C 0.63771 0.7546 0.56796 0.0
C2511 C 0.63336 0.75587 0.54903 0.0
C2512 C 0.62564 0.78243 0.54434 0.0
C2513 C 0.62228 0.80788 0.55856 0.0
H2514 H 0.63595 0.73621 0.538 0.0
H2515 H 0.60321 0.97983 0.67747 0.0
H2516 H 0.422 0.61381 0.41773 0.0
H2517 H 0.40277 0.61825 0.41085 0.0
H2518 H 0.40892 0.5998 0.34912 0.0
H2519 H 0.42809 0.59615 0.35584 0.0
H2520 H 0.3949 0.65362 0.35326 0.0
H2521 H 0.39882 0.53102 0.37923 0.0
H2522 H 0.4043 0.48371 0.40338 0.0
H2523 H 0.3841 0.53363 0.44708 0.0
H2524 H 0.37861 0.58156 0.42326 0.0
H2525 H 0.34078 0.61142 0.32554 0.0
H2526 H 0.36014 0.60844 0.33162 0.0
H2527 H 0.35479 0.63369 0.39289 0.0
H2528 H 0.33555 0.63655 0.38697 0.0
H2529 H 0.36839 0.57592 0.38855 0.0
H2530 H 0.36453 0.69866 0.36208 0.0
H2531 H 0.35903 0.74518 0.33753 0.0
H2532 H 0.37909 0.6936 0.29416 0.0
H2533 H 0.3846 0.64643 0.31839 0.0
C2534 C 0.41923 0.61063 0.40271 0.0
C2535 C 0.42655 0.60451 0.38734 0.0
C2536 C 0.40825 0.61304 0.39879 0.0
C2537 C 0.40437 0.60897 0.37947 0.0
C2538 C 0.4117 0.60307 0.36413 0.0
C2539 C 0.42266 0.60084 0.36802 0.0
C2540 C 0.39271 0.61107 0.37513 0.0
C2541 C 0.38912 0.63626 0.36081 0.0
C2542 C 0.38512 0.58892 0.38518 0.0
C2543 C 0.38839 0.56009 0.39952 0.0
C2544 C 0.39561 0.53207 0.39404 0.0
C2545 C 0.39871 0.50512 0.40766 0.0
C2546 C 0.39457 0.50572 0.42677 0.0
C2547 C 0.38731 0.53323 0.43228 0.0
C2548 C 0.38419 0.56028 0.41873 0.0
C2549 C 0.34376 0.61655 0.34026 0.0
C2550 C 0.33664 0.62426 0.35576 0.0
C2551 C 0.35481 0.61492 0.34372 0.0
C2552 C 0.35892 0.62098 0.36272 0.0
C2553 C 0.35181 0.62883 0.37814 0.0
C2554 C 0.34081 0.6306 0.37469 0.0
C2555 C 0.3706 0.61851 0.36675 0.0
C2556 C 0.37418 0.59322 0.381 0.0
C2557 C 0.37818 0.64043 0.35657 0.0
C2558 C 0.37489 0.66879 0.34199 0.0
C2559 C 0.3677 0.69705 0.34726 0.0
C2560 C 0.36459 0.72357 0.33341 0.0
C2561 C 0.36868 0.72229 0.31428 0.0
C2562 C 0.37591 0.69453 0.30897 0.0
C2563 C 0.37904 0.66791 0.32276 0.0
H2564 H 0.36627 0.74286 0.30358 0.0
H2565 H 0.39698 0.48482 0.43729 0.0
H2566 H 0.41726 0.13648 0.33303 0.0
H2567 H 0.39824 0.13679 0.34183 0.0
H2568 H 0.40661 0.14029 0.40341 0.0
H2569 H 0.42559 0.13932 0.39473 0.0
H2570 H 0.39104 0.09145 0.39743 0.0
H2571 H 0.39751 0.21768 0.37895 0.0
H2572 H 0.40358 0.26825 0.35728 0.0
H2573 H 0.38106 0.23455 0.31305 0.0
H2574 H 0.37495 0.18346 0.33435 0.0
H2575 H 0.33838 0.13711 0.43203 0.0
H2576 H 0.35767 0.1374 0.42493 0.0
H2577 H 0.35091 0.13407 0.36268 0.0
H2578 H 0.33177 0.13438 0.36962 0.0
H2579 H 0.36581 0.18412 0.37008 0.0
H2580 H 0.35965 0.05717 0.38795 0.0
H2581 H 0.35352 0.00632 0.40937 0.0
H2582 H 0.37538 0.04109 0.45448 0.0
H2583 H 0.38154 0.09247 0.43341 0.0
C2584 C 0.41504 0.13745 0.34843 0.0
C2585 C 0.42293 0.13799 0.36318 0.0
C2586 C 0.40416 0.13774 0.35346 0.0
C2587 C 0.40097 0.13894 0.3733 0.0
C2588 C 0.40886 0.13936 0.38802 0.0
C2589 C 0.41971 0.13895 0.38302 0.0
C2590 C 0.38943 0.13936 0.37878 0.0
C2591 C 0.38555 0.11204 0.39166 0.0
C2592 C 0.38221 0.16576 0.37099 0.0
C2593 C 0.38584 0.19654 0.35818 0.0
C2594 C 0.39391 0.22089 0.36454 0.0
C2595 C 0.39735 0.24967 0.35234 0.0
C2596 C 0.39273 0.25455 0.33378 0.0
C2597 C 0.38464 0.23071 0.32741 0.0
C2598 C 0.38118 0.20186 0.33955 0.0
C2599 C 0.34104 0.13629 0.41685 0.0
C2600 C 0.33356 0.13573 0.4014 0.0
C2601 C 0.35205 0.13635 0.41281 0.0
C2602 C 0.35575 0.13556 0.39324 0.0
C2603 C 0.34827 0.13483 0.37786 0.0
C2604 C 0.33731 0.13488 0.38188 0.0
C2605 C 0.3674 0.13606 0.3886 0.0
C2606 C 0.3713 0.16359 0.37589 0.0
C2607 C 0.37463 0.10983 0.39652 0.0
C2608 C 0.37097 0.07889 0.40918 0.0
C2609 C 0.36309 0.05414 0.4025 0.0
C2610 C 0.35962 0.0252 0.41457 0.0
C2611 C 0.36404 0.02054 0.4333 0.0
C2612 C 0.37196 0.04477 0.43998 0.0
C2613 C 0.37544 0.07379 0.42798 0.0
H2614 H 0.36135 -0.00189 0.44262 0.0
H2615 H 0.3954 0.27685 0.32436 0.0
H2616 H 0.67035 0.90661 0.17698 0.0
H2617 H 0.6511 0.90966 0.17002 0.0
H2618 H 0.65753 0.89616 0.10803 0.0
H2619 H 0.6767 0.89382 0.11484 0.0
H2620 H 0.64267 0.94739 0.11326 0.0
H2621 H 0.64871 0.82377 0.13694 0.0
H2622 H 0.65489 0.77639 0.16046 0.0
H2623 H 0.63355 0.81931 0.20444 0.0
H2624 H 0.62735 0.86729 0.18125 0.0
H2625 H 0.59114 0.89158 0.07986 0.0
H2626 H 0.61018 0.89422 0.08839 0.0
H2627 H 0.60196 0.91167 0.14936 0.0
H2628 H 0.58293 0.90872 0.14097 0.0
H2629 H 0.61752 0.8605 0.14572 0.0
H2630 H 0.61097 0.98277 0.12111 0.0
H2631 H 0.60474 0.0292 0.09711 0.0
H2632 H 0.62703 0.98781 0.05433 0.0
H2633 H 0.63329 0.94076 0.078 0.0
C2634 C 0.66764 0.90446 0.16187 0.0
C2635 C 0.67504 0.89986 0.14647 0.0
C2636 C 0.65664 0.90603 0.15792 0.0
C2637 C 0.65284 0.9027 0.13851 0.0
C2638 C 0.66025 0.89881 0.12312 0.0
C2639 C 0.67122 0.89736 0.12704 0.0
C2640 C 0.64116 0.90283 0.13413 0.0
C2641 C 0.6372 0.92813 0.12022 0.0
C2642 C 0.63394 0.87823 0.14348 0.0
C2643 C 0.63765 0.84937 0.15743 0.0
C2644 C 0.6454 0.82329 0.15168 0.0
C2645 C 0.6489 0.79629 0.16494 0.0
C2646 C 0.64464 0.79491 0.18395 0.0
C2647 C 0.63686 0.82046 0.18972 0.0
C2648 C 0.63334 0.84755 0.17652 0.0
C2649 C 0.59339 0.89612 0.09508 0.0
C2650 C 0.58553 0.90003 0.10974 0.0
C2651 C 0.60427 0.89775 0.09992 0.0
C2652 C 0.60751 0.90348 0.11951 0.0
C2653 C 0.59966 0.90726 0.13416 0.0
C2654 C 0.58879 0.90569 0.12933 0.0
C2655 C 0.61906 0.9049 0.12477 0.0
C2656 C 0.62299 0.87988 0.13884 0.0
C2657 C 0.62625 0.92965 0.1155 0.0
C2658 C 0.62253 0.95802 0.10127 0.0
C2659 C 0.61449 0.98338 0.10653 0.0
C2660 C 0.61096 0.00985 0.093 0.0
C2661 C 0.61547 0.0114 0.07419 0.0
C2662 C 0.62354 0.98654 0.0689 0.0
C2663 C 0.62709 0.95999 0.08237 0.0
H2664 H 0.61272 0.03192 0.06373 0.0
H2665 H 0.64736 0.77397 0.1942 0.0
H2666 H 0.66764 0.33835 0.08453 0.0
H2667 H 0.64853 0.33771 0.09283 0.0
H2668 H 0.65636 0.34889 0.15438 0.0
H2669 H 0.6754 0.34907 0.14623 0.0
H2670 H 0.64058 0.29927 0.1493 0.0
H2671 H 0.64814 0.42319 0.12734 0.0
H2672 H 0.65471 0.47049 0.10412 0.0
H2673 H 0.63205 0.43388 0.06078 0.0
H2674 H 0.62545 0.386 0.08366 0.0
H2675 H 0.5896 0.35738 0.18525 0.0
H2676 H 0.60862 0.35269 0.17664 0.0
H2677 H 0.60028 0.34699 0.11507 0.0
H2678 H 0.58136 0.35254 0.12355 0.0
H2679 H 0.61631 0.39269 0.11979 0.0
H2680 H 0.60844 0.26955 0.14177 0.0
H2681 H 0.60187 0.22197 0.16482 0.0
H2682 H 0.625 0.25637 0.20781 0.0
H2683 H 0.63162 0.30451 0.18511 0.0
C2684 C 0.66528 0.34047 0.09983 0.0
C2685 C 0.67303 0.34394 0.11471 0.0
C2686 C 0.65436 0.34025 0.10455 0.0
C2687 C 0.65099 0.34369 0.12423 0.0
C2688 C 0.65874 0.34622 0.13911 0.0
C2689 C 0.66964 0.34645 0.13441 0.0
C2690 C 0.63942 0.34542 0.12936 0.0
C2691 C 0.63529 0.31993 0.143 0.0
C2692 C 0.63246 0.37189 0.12086 0.0
C2693 C 0.63638 0.40077 0.10713 0.0
C2694 C 0.64462 0.42504 0.1128 0.0
C2695 C 0.64833 0.45199 0.09971 0.0
C2696 C 0.64382 0.45512 0.08097 0.0
C2697 C 0.63556 0.43138 0.07529 0.0
C2698 C 0.63182 0.40436 0.08832 0.0
C2699 C 0.59184 0.355 0.16989 0.0
C2700 C 0.58398 0.35531 0.15509 0.0
C2701 C 0.60271 0.35215 0.16498 0.0
C2702 C 0.60591 0.34909 0.14519 0.0
C2703 C 0.59804 0.34934 0.13043 0.0
C2704 C 0.58721 0.35242 0.13531 0.0
C2705 C 0.61744 0.34648 0.13973 0.0
C2706 C 0.62157 0.37188 0.12604 0.0
C2707 C 0.62439 0.31987 0.14816 0.0
C2708 C 0.62045 0.29087 0.16181 0.0
C2709 C 0.61207 0.26716 0.1562 0.0
C2710 C 0.60835 0.24005 0.16919 0.0
C2711 C 0.613 0.23621 0.18778 0.0
C2712 C 0.6214 0.25941 0.19341 0.0
C2713 C 0.62514 0.28659 0.18048 0.0
H2714 H 0.6101 0.21521 0.19782 0.0
H2715 H 0.64671 0.476 0.07086 0.0
H2716 H 0.42453 0.06066 0.88141 0.0
H2717 H 0.40546 0.06 0.87354 0.0
H2718 H 0.39901 0.12883 0.92402 0.0
H2719 H 0.41815 0.12899 0.93222 0.0
H2720 H 0.38389 0.07612 0.91995 0.0
H2721 H 0.40055 0.16577 0.8776 0.0
H2722 H 0.41375 0.18794 0.85331 0.0
H2723 H 0.40255 0.10779 0.8115 0.0
H2724 H 0.38938 0.08479 0.83565 0.0
H2725 H 0.33253 0.13855 0.89203 0.0
H2726 H 0.35148 0.13549 0.9006 0.0
H2727 H 0.35755 0.06895 0.84911 0.0
H2728 H 0.33855 0.07264 0.84018 0.0
H2729 H 0.37288 0.11937 0.85362 0.0
H2730 H 0.35602 0.03026 0.89564 0.0
H2731 H 0.34283 0.00784 0.91988 0.0
H2732 H 0.35438 0.08638 0.96222 0.0
H2733 H 0.36754 0.10964 0.93814 0.0
C2734 C 0.41905 0.07537 0.89097 0.0
C2735 C 0.42285 0.09508 0.90738 0.0
C2736 C 0.40815 0.07513 0.88638 0.0
C2737 C 0.40081 0.095 0.89794 0.0
C2738 C 0.40453 0.11347 0.91482 0.0
C2739 C 0.41545 0.11354 0.9195 0.0
C2740 C 0.38935 0.09726 0.89208 0.0
C2741 C 0.38147 0.08602 0.90554 0.0
C2742 C 0.38619 0.10934 0.87309 0.0
C2743 C 0.39405 0.12334 0.8585 0.0
C2744 C 0.40095 0.15271 0.86327 0.0
C2745 C 0.40842 0.16545 0.84952 0.0
C2746 C 0.40901 0.14923 0.83089 0.0
C2747 C 0.4021 0.1203 0.82595 0.0
C2748 C 0.39462 0.10742 0.83965 0.0
C2749 C 0.33789 0.12335 0.88247 0.0
C2750 C 0.33403 0.10567 0.86547 0.0
C2751 C 0.34873 0.12144 0.88746 0.0
C2752 C 0.35593 0.10139 0.87572 0.0
C2753 C 0.35215 0.08443 0.85846 0.0
C2754 C 0.34129 0.08653 0.85337 0.0
C2755 C 0.3674 0.09826 0.8815 0.0
C2756 C 0.37529 0.10937 0.86802 0.0
C2757 C 0.37056 0.08602 0.90046 0.0
C2758 C 0.3627 0.07191 0.91502 0.0
C2759 C 0.3557 0.04293 0.91008 0.0
C2760 C 0.34823 0.03005 0.92379 0.0
C2761 C 0.34775 0.04574 0.94256 0.0
C2762 C 0.35475 0.07428 0.94767 0.0
C2763 C 0.36222 0.0873 0.934 0.0
H2764 H 0.34196 0.03573 0.95316 0.0
H2765 H 0.4148 0.15913 0.82027 0.0
H2766 H 0.41107 0.62426 0.81461 0.0
H2767 H 0.39203 0.62415 0.82341 0.0
H2768 H 0.40037 0.62859 0.88497 0.0
H2769 H 0.41936 0.6285 0.87632 0.0
H2770 H 0.38462 0.57843 0.87816 0.0
H2771 H 0.39184 0.70524 0.8616 0.0
H2772 H 0.39821 0.75627 0.84056 0.0
H2773 H 0.37541 0.72636 0.79603 0.0
H2774 H 0.369 0.67479 0.81671 0.0
H2775 H 0.33306 0.62714 0.91567 0.0
H2776 H 0.35218 0.62613 0.90745 0.0
H2777 H 0.34435 0.62765 0.84559 0.0
H2778 H 0.32533 0.62932 0.85369 0.0
H2779 H 0.35996 0.67491 0.85284 0.0
H2780 H 0.35276 0.54807 0.86893 0.0
H2781 H 0.34639 0.49645 0.88957 0.0
H2782 H 0.36908 0.52549 0.93444 0.0
H2783 H 0.37549 0.57762 0.91416 0.0
C2784 C 0.40884 0.62519 0.83001 0.0
C2785 C 0.41671 0.62652 0.84476 0.0
C2786 C 0.39796 0.62524 0.83502 0.0
C2787 C 0.39477 0.62666 0.85486 0.0
C2788 C 0.40264 0.62747 0.86958 0.0
C2789 C 0.41349 0.62757 0.8646 0.0
C2790 C 0.38325 0.62747 0.86033 0.0
C2791 C 0.37925 0.59978 0.87282 0.0
C2792 C 0.3762 0.65488 0.85305 0.0
C2793 C 0.38002 0.68593 0.84062 0.0
C2794 C 0.38824 0.70936 0.84725 0.0
C2795 C 0.39185 0.73841 0.8354 0.0
C2796 C 0.38724 0.7445 0.81694 0.0
C2797 C 0.37899 0.72158 0.81032 0.0
C2798 C 0.37536 0.69246 0.8221 0.0
C2799 C 0.33543 0.62719 0.90033 0.0
C2800 C 0.32769 0.62827 0.88533 0.0
C2801 C 0.34636 0.62647 0.89564 0.0
C2802 C 0.34972 0.62649 0.87587 0.0
C2803 C 0.34198 0.62767 0.86093 0.0
C2804 C 0.33109 0.62851 0.8656 0.0
C2805 C 0.36129 0.62576 0.87063 0.0
C2806 C 0.36531 0.65352 0.85819 0.0
C2807 C 0.36835 0.59832 0.8779 0.0
C2808 C 0.36452 0.56699 0.89012 0.0
C2809 C 0.35633 0.54364 0.88326 0.0
C2810 C 0.35272 0.51425 0.89488 0.0
C2811 C 0.35731 0.50776 0.91333 0.0
C2812 C 0.36553 0.53059 0.92017 0.0
C2813 C 0.36915 0.56004 0.90861 0.0
H2814 H 0.35451 0.48499 0.9223 0.0
H2815 H 0.39004 0.76701 0.80779 0.0
H2816 H 0.0535 0.01057 0.17206 0.0
H2817 H 0.05156 0.0771 0.16733 0.0
H2818 H 0.02318 0.05864 0.13234 0.0
H2819 H 0.02552 0.99186 0.13611 0.0
H2820 H 0.0345 0.10294 0.11402 0.0
H2821 H 0.02275 0.10186 0.17985 0.0
H2822 H 0.02266 0.08648 0.21521 0.0
H2823 H 0.05235 0.14443 0.22295 0.0
H2824 H 0.05272 0.15973 0.18758 0.0
H2825 H 0.03647 0.316 0.13796 0.0
H2826 H 0.03118 0.25331 0.14777 0.0
H2827 H 0.05472 0.2079 0.10801 0.0
H2828 H 0.05972 0.27007 0.09771 0.0
H2829 H 0.04087 0.19867 0.16494 0.0
H2830 H 0.04682 0.13033 0.08761 0.0
H2831 H 0.04436 0.14692 0.05269 0.0
H2832 H 0.02129 0.22953 0.06892 0.0
H2833 H 0.02349 0.21309 0.10391 0.0
C2834 C 0.04676 0.0208 0.16361 0.0
C2835 C 0.03969 -0.00377 0.15436 0.0
C2836 C 0.04559 0.05888 0.16104 0.0
C2837 C 0.03713 0.07309 0.14967 0.0
C2838 C 0.02979 0.04844 0.14113 0.0
C2839 C 0.03111 0.01032 0.14331 0.0
C2840 C 0.03664 0.11321 0.14505 0.0
C2841 C 0.03577 0.12383 0.12523 0.0
C2842 C 0.03796 0.14077 0.15967 0.0
C2843 C 0.03778 0.13179 0.181 0.0
C2844 C 0.0293 0.11113 0.18906 0.0
C2845 C 0.0292 0.10245 0.20911 0.0
C2846 C 0.0375 0.11443 0.22131 0.0
C2847 C 0.04592 0.13518 0.21348 0.0
C2848 C 0.04607 0.14392 0.19343 0.0
C2849 C 0.04048 0.29255 0.13133 0.0
C2850 C 0.04843 0.29779 0.11696 0.0
C2851 C 0.03746 0.25682 0.13695 0.0
C2852 C 0.0424 0.22591 0.12834 0.0
C2853 C 0.05058 0.23128 0.11445 0.0
C2854 C 0.05348 0.26684 0.10866 0.0
C2855 C 0.03921 0.18785 0.13392 0.0
C2856 C 0.03939 0.17772 0.15386 0.0
C2857 C 0.03683 0.16085 0.11951 0.0
C2858 C 0.03538 0.1706 0.09842 0.0
C2859 C 0.04118 0.15188 0.08373 0.0
C2860 C 0.03984 0.1613 0.06392 0.0
C2861 C 0.03269 0.18931 0.05859 0.0
C2862 C 0.02685 0.20791 0.07307 0.0
C2863 C 0.02815 0.19858 0.0929 0.0
H2864 H 0.03167 0.19658 0.04325 0.0
H2865 H 0.03741 0.10767 0.23683 0.0
H2866 H 0.20896 0.97591 0.07957 0.0
H2867 H 0.21214 0.03949 0.09037 0.0
H2868 H 0.21062 0.00431 0.15099 0.0
H2869 H 0.2076 0.94036 0.14027 0.0
H2870 H 0.19711 0.06615 0.14058 0.0
H2871 H 0.23368 0.02635 0.13515 0.0
H2872 H 0.24922 -0.00188 0.11856 0.0
H2873 H 0.24741 0.07974 0.07275 0.0
H2874 H 0.23175 0.10816 0.08891 0.0
H2875 H 0.21017 0.2418 0.17866 0.0
H2876 H 0.21054 0.17536 0.17212 0.0
H2877 H 0.21824 0.19698 0.11124 0.0
H2878 H 0.21822 0.26346 0.11787 0.0
H2879 H 0.22935 0.14002 0.12394 0.0
H2880 H 0.19246 0.17681 0.12623 0.0
H2881 H 0.17632 0.20535 0.14063 0.0
H2882 H 0.17785 0.13006 0.18945 0.0
H2883 H 0.19409 0.1014 0.17548 0.0
C2884 C 0.2094 0.98167 0.0952 0.0
C2885 C 0.20802 0.95332 0.10911 0.0
C2886 C 0.21125 0.01791 0.10132 0.0
C2887 C 0.21165 0.02639 0.12144 0.0
C2888 C 0.21036 -0.00187 0.13539 0.0
C2889 C 0.20867 0.96172 0.12926 0.0
C2890 C 0.21288 0.06517 0.12779 0.0
C2891 C 0.20423 0.08221 0.13732 0.0
C2892 C 0.22204 0.08615 0.12289 0.0
C2893 C 0.23148 0.06919 0.11316 0.0
C2894 C 0.23654 0.03809 0.12145 0.0
C2895 C 0.24538 0.0221 0.11214 0.0
C2896 C 0.24929 0.03708 0.09459 0.0
C2897 C 0.24437 0.06815 0.08633 0.0
C2898 C 0.23552 0.08423 0.09558 0.0
C2899 C 0.21201 0.23234 0.16392 0.0
C2900 C 0.21409 0.2577 0.14873 0.0
C2901 C 0.21219 0.19441 0.16018 0.0
C2902 C 0.21423 0.18125 0.14111 0.0
C2903 C 0.21662 0.20655 0.12606 0.0
C2904 C 0.21658 0.24448 0.12984 0.0
C2905 C 0.21354 0.14123 0.13669 0.0
C2906 C 0.22226 0.12396 0.12744 0.0
C2907 C 0.20436 0.12014 0.14153 0.0
C2908 C 0.19456 0.13723 0.14992 0.0
C2909 C 0.1894 0.16653 0.14011 0.0
C2910 C 0.18023 0.1827 0.14818 0.0
C2911 C 0.17608 0.1696 0.16597 0.0
C2912 C 0.18108 0.14022 0.17569 0.0
C2913 C 0.19027 0.12399 0.1677 0.0
H2914 H 0.16898 0.18215 0.17221 0.0
H2915 H 0.25613 0.02465 0.0874 0.0
H2916 H 0.97448 0.7026 0.8769 0.0
H2917 H 0.97671 0.76614 0.86507 0.0
H2918 H 0.95198 0.80261 0.90501 0.0
H2919 H 0.95001 0.73963 0.91731 0.0
H2920 H 0.96379 0.80901 0.84641 0.0
H2921 H 0.95552 0.88939 0.91942 0.0
H2922 H 0.95914 0.88247 0.95492 0.0
H2923 H 0.98595 0.81211 0.94214 0.0
H2924 H 0.98259 0.81901 0.90657 0.0
H2925 H 0.94395 0.98633 0.82656 0.0
H2926 H 0.94745 0.92359 0.83816 0.0
H2927 H 0.97613 0.96143 0.86734 0.0
H2928 H 0.97239 0.02464 0.85641 0.0
H2929 H 0.96623 0.9179 0.89056 0.0
H2930 H 0.97695 0.90887 0.82386 0.0
H2931 H 0.97558 0.91589 0.78785 0.0
H2932 H 0.94829 0.84376 0.78705 0.0
H2933 H 0.9494 0.83669 0.82311 0.0
C2934 C 0.96962 0.72431 0.88329 0.0
C2935 C 0.9621 0.71626 0.89806 0.0
C2936 C 0.97088 0.76055 0.87649 0.0
C2937 C 0.96461 0.78926 0.88431 0.0
C2938 C 0.9571 0.78114 0.89907 0.0
C2939 C 0.95593 0.74507 0.90602 0.0
C2940 C 0.96548 0.82741 0.87641 0.0
C2941 C 0.96441 0.83282 0.85605 0.0
C2942 C 0.96659 0.85848 0.88891 0.0
C2943 C 0.96874 0.85452 0.91031 0.0
C2944 C 0.96222 0.8726 0.92418 0.0
C2945 C 0.96422 0.86864 0.94432 0.0
C2946 C 0.97276 0.84679 0.95078 0.0
C2947 C 0.97932 0.82893 0.93712 0.0
C2948 C 0.97736 0.83281 0.91696 0.0
C2949 C 0.95103 0.98121 0.83536 0.0
C2950 C 0.95791 0.01027 0.84057 0.0
C2951 C 0.95306 0.9453 0.84189 0.0
C2952 C 0.96216 0.9376 0.85335 0.0
C2953 C 0.96907 0.96665 0.85848 0.0
C2954 C 0.96694 0.00272 0.85221 0.0
C2955 C 0.96417 0.89951 0.86063 0.0
C2956 C 0.96577 0.89411 0.88088 0.0
C2957 C 0.9639 0.86846 0.84795 0.0
C2958 C 0.96322 0.87244 0.82622 0.0
C2959 C 0.97061 0.89468 0.81603 0.0
C2960 C 0.96989 0.89865 0.7956 0.0
C2961 C 0.96185 0.88033 0.78517 0.0
C2962 C 0.95452 0.85794 0.79515 0.0
C2963 C 0.9552 0.8539 0.81558 0.0
H2964 H 0.9613 0.88344 0.76936 0.0
H2965 H 0.97429 0.84375 0.96638 0.0
H2966 H 0.79242 0.02735 0.86786 0.0
H2967 H 0.79122 0.9614 0.86031 0.0
H2968 H 0.79457 0.93559 0.92209 0.0
H2969 H 0.79627 0.00142 0.92953 0.0
H2970 H 0.80697 0.89337 0.90255 0.0
H2971 H 0.77013 0.9267 0.89589 0.0
H2972 H 0.75465 0.96245 0.88382 0.0
H2973 H 0.76201 0.93089 0.82442 0.0
H2974 H 0.77763 0.89533 0.83611 0.0
H2975 H 0.79349 0.7036 0.89322 0.0
H2976 H 0.79157 0.76927 0.90123 0.0
H2977 H 0.79627 0.79755 0.84014 0.0
H2978 H 0.79829 0.73192 0.83202 0.0
H2979 H 0.77918 0.83721 0.85982 0.0
H2980 H 0.81662 0.80509 0.86805 0.0
H2981 H 0.83136 0.76741 0.88156 0.0
H2982 H 0.82171 0.79563 0.94033 0.0
H2983 H 0.80681 0.83304 0.92717 0.0
C2984 C 0.79279 0.00756 0.87982 0.0
C2985 C 0.79445 0.01936 0.89926 0.0
C2986 C 0.79205 0.96989 0.87552 0.0
C2987 C 0.79268 0.94347 0.89066 0.0
C2988 C 0.79409 0.95541 0.91015 0.0
C2989 C 0.79503 0.993 0.9144 0.0
C2990 C 0.79247 0.90336 0.88611 0.0
C2991 C 0.80078 0.8811 0.89348 0.0
C2992 C 0.78451 0.88732 0.87396 0.0
C2993 C 0.77511 0.90862 0.86687 0.0
C2994 C 0.7685 0.9276 0.88024 0.0
C2995 C 0.75969 0.9478 0.87347 0.0
C2996 C 0.75736 0.94901 0.85336 0.0
C2997 C 0.76383 0.92995 0.83999 0.0
C2998 C 0.77265 0.90974 0.84668 0.0
C2999 C 0.79402 0.72379 0.88147 0.0
C3000 C 0.7961 0.71278 0.86202 0.0
C3001 C 0.79293 0.76121 0.88607 0.0
C3002 C 0.79384 0.78807 0.87127 0.0
C3003 C 0.79553 0.7771 0.85173 0.0
C3004 C 0.79673 0.7397 0.84715 0.0
C3005 C 0.79361 0.82772 0.87634 0.0
C3006 C 0.78529 0.84974 0.869 0.0
C3007 C 0.80145 0.8435 0.88874 0.0
C3008 C 0.81053 0.82154 0.89663 0.0
C3009 C 0.81759 0.80304 0.88385 0.0
C3010 C 0.82599 0.78177 0.89145 0.0
C3011 C 0.82745 0.77902 0.91179 0.0
C3012 C 0.82055 0.79772 0.92457 0.0
C3013 C 0.81214 0.81898 0.91706 0.0
H3014 H 0.83392 0.76246 0.91766 0.0
H3015 H 0.75054 0.96466 0.84814 0.0
H3016 H 0.04503 0.76421 0.58696 0.0
H3017 H 0.04349 0.69699 0.58991 0.0
H3018 H 0.04273 0.70671 0.65317 0.0
H3019 H 0.04422 0.77412 0.65032 0.0
H3020 H 0.05703 0.65333 0.63995 0.0
H3021 H 0.02028 0.68708 0.62933 0.0
H3022 H 0.0053 0.71739 0.61205 0.0
H3023 H 0.01206 0.65399 0.56008 0.0
H3024 H 0.02719 0.62367 0.57698 0.0
H3025 H 0.04372 0.46867 0.66174 0.0
H3026 H 0.04323 0.53597 0.65912 0.0
H3027 H 0.04052 0.52737 0.59597 0.0
H3028 H 0.04071 0.45972 0.59858 0.0
H3029 H 0.02781 0.5806 0.60916 0.0
H3030 H 0.06458 0.54796 0.61854 0.0
H3031 H 0.07997 0.51799 0.63474 0.0
H3032 H 0.07381 0.57965 0.68754 0.0
H3033 H 0.05828 0.60962 0.67174 0.0
C3034 C 0.04447 0.75206 0.6015 0.0
C3035 C 0.04473 0.77444 0.61842 0.0
C3036 C 0.04356 0.71366 0.60316 0.0
C3037 C 0.04293 0.69687 0.62176 0.0
C3038 C 0.04319 0.71913 0.63868 0.0
C3039 C 0.04401 0.75761 0.63703 0.0
C3040 C 0.04232 0.656 0.62352 0.0
C3041 C 0.05055 0.63744 0.6335 0.0
C3042 C 0.03405 0.63525 0.61454 0.0
C3043 C 0.02494 0.65337 0.60437 0.0
C3044 C 0.01864 0.67983 0.61417 0.0
C3045 C 0.0101 0.69697 0.60445 0.0
C3046 C 0.00775 0.68769 0.58496 0.0
C3047 C 0.0139 0.66118 0.57517 0.0
C3048 C 0.02245 0.64399 0.58481 0.0
C3049 C 0.04296 0.48108 0.64729 0.0
C3050 C 0.04232 0.45891 0.63034 0.0
C3051 C 0.04273 0.51959 0.64581 0.0
C3052 C 0.04205 0.53682 0.62731 0.0
C3053 C 0.0411 0.51473 0.61039 0.0
C3054 C 0.04123 0.47609 0.61189 0.0
C3055 C 0.04251 0.57783 0.62568 0.0
C3056 C 0.03428 0.59644 0.61568 0.0
C3057 C 0.05085 0.59867 0.63447 0.0
C3058 C 0.0602 0.58076 0.64401 0.0
C3059 C 0.06646 0.55492 0.63365 0.0
C3060 C 0.07521 0.53796 0.64276 0.0
C3061 C 0.07785 0.54684 0.66218 0.0
C3062 C 0.07175 0.57276 0.67251 0.0
C3063 C 0.06297 0.58976 0.66348 0.0
H3064 H 0.08463 0.53368 0.6692 0.0
H3065 H 1.00114 0.70098 0.57747 0.0
H3066 H 0.21589 0.44914 0.64353 0.0
H3067 H 0.21737 0.51295 0.65556 0.0
H3068 H 0.19986 0.55167 0.60486 0.0
H3069 H 0.19838 0.48832 0.59275 0.0
H3070 H 0.22654 0.57546 0.63757 0.0
H3071 H 0.183 0.62039 0.62048 0.0
H3072 H 0.16489 0.59334 0.6191 0.0
H3073 H 0.17432 0.50902 0.66011 0.0
H3074 H 0.19244 0.53591 0.662 0.0
H3075 H 0.21873 0.76903 0.625 0.0
H3076 H 0.21945 0.70157 0.62239 0.0
H3077 H 0.20339 0.69157 0.67836 0.0
H3078 H 0.20269 0.75903 0.68113 0.0
H3079 H 0.19388 0.65055 0.6492 0.0
H3080 H 0.22882 0.66804 0.67586 0.0
H3081 H 0.24683 0.69554 0.67829 0.0
H3082 H 0.25459 0.65458 0.62071 0.0
H3083 H 0.23657 0.62727 0.61781 0.0
C3084 C 0.21237 0.47131 0.63497 0.0
C3085 C 0.207 0.4638 0.61724 0.0
C3086 C 0.21325 0.50766 0.64182 0.0
C3087 C 0.20864 0.53687 0.63118 0.0
C3088 C 0.20336 0.52942 0.61339 0.0
C3089 C 0.20256 0.49324 0.60647 0.0
C3090 C 0.2093 0.57532 0.63847 0.0
C3091 C 0.21941 0.59188 0.64024 0.0
C3092 C 0.19999 0.59645 0.64221 0.0
C3093 C 0.18911 0.58005 0.64126 0.0
C3094 C 0.1812 0.59617 0.62927 0.0
C3095 C 0.17094 0.58086 0.62839 0.0
C3096 C 0.16847 0.54947 0.63949 0.0
C3097 C 0.17626 0.53329 0.65149 0.0
C3098 C 0.18653 0.54853 0.65244 0.0
C3099 C 0.21547 0.75244 0.63686 0.0
C3100 C 0.21063 0.76923 0.65324 0.0
C3101 C 0.21593 0.71395 0.63539 0.0
C3102 C 0.21152 0.69165 0.65023 0.0
C3103 C 0.20686 0.70835 0.66678 0.0
C3104 C 0.20648 0.74684 0.66834 0.0
C3105 C 0.2111 0.65102 0.64775 0.0
C3106 C 0.20102 0.63407 0.64679 0.0
C3107 C 0.22044 0.62956 0.64486 0.0
C3108 C 0.23131 0.64583 0.64657 0.0
C3109 C 0.23433 0.66513 0.66365 0.0
C3110 C 0.24455 0.68065 0.66512 0.0
C3111 C 0.25184 0.67687 0.64965 0.0
C3112 C 0.24893 0.6575 0.63268 0.0
C3113 C 0.23872 0.64195 0.63113 0.0
H3114 H 0.25975 0.6889 0.65082 0.0
H3115 H 0.1605 0.53781 0.63884 0.0
H3116 H 0.94381 0.50076 0.33446 0.0
H3117 H 0.94782 0.43706 0.34398 0.0
H3118 H 0.97659 0.47399 0.37322 0.0
H3119 H 0.97226 0.53798 0.36462 0.0
H3120 H 0.96254 0.38894 0.33791 0.0
H3121 H 0.98142 0.42239 0.41329 0.0
H3122 H 0.98104 0.47144 0.43854 0.0
H3123 H 0.94927 0.50192 0.42064 0.0
H3124 H 0.94942 0.45278 0.39546 0.0
H3125 H 0.97635 0.21482 0.38049 0.0
H3126 H 0.97796 0.27863 0.36855 0.0
H3127 H 0.95346 0.31281 0.40954 0.0
H3128 H 0.95219 0.24991 0.422 0.0
H3129 H 0.96788 0.36239 0.40889 0.0
H3130 H 0.94857 0.2942 0.35903 0.0
H3131 H 0.94605 0.24467 0.33451 0.0
H3132 H 0.97364 0.28274 0.30268 0.0
H3133 H 0.97638 0.33225 0.32716 0.0
C3134 C 0.951 0.4952 0.34286 0.0
C3135 C 0.95764 0.52419 0.34908 0.0
C3136 C 0.95333 0.4588 0.3482 0.0
C3137 C 0.96242 0.45076 0.35959 0.0
C3138 C 0.96939 0.47959 0.36485 0.0
C3139 C 0.96693 0.51609 0.3599 0.0
C3140 C 0.9642 0.41257 0.36688 0.0
C3141 C 0.96378 0.38315 0.35342 0.0
C3142 C 0.96572 0.40489 0.38713 0.0
C3143 C 0.96549 0.43424 0.40235 0.0
C3144 C 0.97435 0.43952 0.41479 0.0
C3145 C 0.97417 0.46733 0.42908 0.0
C3146 C 0.96515 0.48987 0.43114 0.0
C3147 C 0.95626 0.48454 0.41897 0.0
C3148 C 0.95639 0.45674 0.40469 0.0
C3149 C 0.9714 0.23612 0.38702 0.0
C3150 C 0.96413 0.22749 0.40212 0.0
C3151 C 0.97229 0.27248 0.38015 0.0
C3152 C 0.96574 0.30047 0.38798 0.0
C3153 C 0.95864 0.2918 0.40332 0.0
C3154 C 0.95789 0.25577 0.41039 0.0
C3155 C 0.9659 0.33866 0.38002 0.0
C3156 C 0.9668 0.36816 0.39334 0.0
C3157 C 0.9644 0.34629 0.35976 0.0
C3158 C 0.96275 0.3166 0.34504 0.0
C3159 C 0.95414 0.29182 0.34688 0.0
C3160 C 0.95266 0.26379 0.33298 0.0
C3161 C 0.9597 0.26048 0.31708 0.0
C3162 C 0.96821 0.28528 0.31502 0.0
C3163 C 0.96972 0.31333 0.3289 0.0
H3164 H 0.95855 0.23877 0.30633 0.0
H3165 H 0.96504 0.51141 0.44219 0.0
H3166 H 0.81187 0.24123 0.33391 0.0
H3167 H 0.80818 0.30447 0.34437 0.0
H3168 H 0.78217 0.26539 0.3807 0.0
H3169 H 0.78613 0.20171 0.37084 0.0
H3170 H 0.79226 0.34776 0.3398 0.0
H3171 H 0.77922 0.32158 0.4205 0.0
H3172 H 0.78257 0.27687 0.44727 0.0
H3173 H 0.81328 0.25086 0.42241 0.0
H3174 H 0.81017 0.29573 0.39566 0.0
H3175 H 0.77532 0.52077 0.37345 0.0
H3176 H 0.77487 0.45393 0.36786 0.0
H3177 H 0.8021 0.44041 0.40639 0.0
H3178 H 0.80214 0.50682 0.41288 0.0
H3179 H 0.79022 0.38352 0.4102 0.0
H3180 H 0.80449 0.44975 0.35469 0.0
H3181 H 0.80435 0.49601 0.32798 0.0
H3182 H 0.77678 0.44382 0.30243 0.0
H3183 H 0.77669 0.39751 0.32914 0.0
C3184 C 0.80537 0.24613 0.34413 0.0
C3185 C 0.79931 0.21665 0.35164 0.0
C3186 C 0.80325 0.28228 0.35006 0.0
C3187 C 0.79495 0.28968 0.36345 0.0
C3188 C 0.78873 0.26028 0.37065 0.0
C3189 C 0.79097 0.22398 0.36494 0.0
C3190 C 0.7929 0.32827 0.36976 0.0
C3191 C 0.79177 0.35551 0.3552 0.0
C3192 C 0.79241 0.33853 0.38985 0.0
C3193 C 0.79439 0.31167 0.40596 0.0
C3194 C 0.78669 0.30637 0.42078 0.0
C3195 C 0.78855 0.281 0.43595 0.0
C3196 C 0.79811 0.26093 0.43649 0.0
C3197 C 0.80586 0.2663 0.42192 0.0
C3198 C 0.80404 0.29166 0.40674 0.0
C3199 C 0.78106 0.50334 0.38099 0.0
C3200 C 0.78884 0.51881 0.39341 0.0
C3201 C 0.78084 0.46524 0.37774 0.0
C3202 C 0.78864 0.44226 0.38629 0.0
C3203 C 0.79602 0.45754 0.39957 0.0
C3204 C 0.79607 0.4955 0.40323 0.0
C3205 C 0.7897 0.40303 0.38023 0.0
C3206 C 0.79059 0.37566 0.39481 0.0
C3207 C 0.79044 0.39279 0.36015 0.0
C3208 C 0.79051 0.42045 0.34401 0.0
C3209 C 0.79836 0.4483 0.34343 0.0
C3210 C 0.79833 0.4745 0.32829 0.0
C3211 C 0.79054 0.47292 0.31355 0.0
C3212 C 0.78279 0.44506 0.31388 0.0
C3213 C 0.78278 0.41881 0.32901 0.0
H3214 H 0.79052 0.49324 0.30184 0.0
H3215 H 0.79953 0.24129 0.44824 0.0
H3216 H 0.55126 0.98412 0.65693 0.0
H3217 H 0.54957 0.05116 0.65421 0.0
H3218 H 0.52141 0.03762 0.61802 0.0
H3219 H 0.5235 0.97043 0.61979 0.0
H3220 H 0.53274 0.08514 0.60199 0.0
H3221 H 0.52069 0.07226 0.66749 0.0
H3222 H 0.52065 0.05109 0.702 0.0
H3223 H 0.54998 0.10961 0.71262 0.0
H3224 H 0.55028 0.13072 0.6781 0.0
H3225 H 0.53185 0.2933 0.63575 0.0
H3226 H 0.52751 0.22838 0.6427 0.0
H3227 H 0.55184 0.19366 0.60153 0.0
H3228 H 0.5559 0.25801 0.59407 0.0
H3229 H 0.53798 0.17252 0.65743 0.0
H3230 H 0.54503 0.11868 0.57732 0.0
H3231 H 0.54258 0.14091 0.54328 0.0
H3232 H 0.51842 0.21697 0.56284 0.0
H3233 H 0.5206 0.19484 0.59694 0.0
C3234 C 0.54467 0.99552 0.64854 0.0
C3235 C 0.53753 0.97225 0.63851 0.0
C3236 C 0.54363 0.03386 0.64713 0.0
C3237 C 0.53525 0.04962 0.63616 0.0
C3238 C 0.52795 0.02621 0.62655 0.0
C3239 C 0.52914 0.98786 0.62757 0.0
C3240 C 0.53464 0.09033 0.63342 0.0
C3241 C 0.53378 0.10417 0.61418 0.0
C3242 C 0.53568 0.11544 0.64933 0.0
C3243 C 0.53553 0.10291 0.67015 0.0
C3244 C 0.52717 0.08043 0.67715 0.0
C3245 C 0.5271 0.06846 0.69672 0.0
C3246 C 0.53532 0.07895 0.70949 0.0
C3247 C 0.54362 0.1015 0.70271 0.0
C3248 C 0.54374 0.11353 0.68315 0.0
C3249 C 0.53624 0.27171 0.6282 0.0
C3250 C 0.54413 0.28059 0.61424 0.0
C3251 C 0.53377 0.23471 0.63219 0.0
C3252 C 0.5392 0.20618 0.62233 0.0
C3253 C 0.54733 0.21518 0.60891 0.0
C3254 C 0.54969 0.25198 0.60473 0.0
C3255 C 0.53651 0.16685 0.62599 0.0
C3256 C 0.53675 0.15337 0.64535 0.0
C3257 C 0.5345 0.14212 0.61028 0.0
C3258 C 0.53303 0.15523 0.58972 0.0
C3259 C 0.53915 0.13998 0.57434 0.0
C3260 C 0.53782 0.15261 0.55504 0.0
C3261 C 0.53037 0.18039 0.55091 0.0
C3262 C 0.52421 0.19553 0.56606 0.0
C3263 C 0.5255 0.18298 0.58539 0.0
H3264 H 0.52936 0.19014 0.53596 0.0
H3265 H 0.53525 0.06965 0.72463 0.0
H3266 H 0.70027 0.235 0.69012 0.0
H3267 H 0.70114 0.16852 0.6837 0.0
H3268 H 0.71845 0.18952 0.62986 0.0
H3269 H 0.71775 0.25595 0.63635 0.0
H3270 H 0.69221 0.13329 0.65408 0.0
H3271 H 0.73449 0.1169 0.61891 0.0
H3272 H 0.75263 0.1427 0.6229 0.0
H3273 H 0.74561 0.17033 0.68299 0.0
H3274 H 0.72748 0.14422 0.67946 0.0
H3275 H 0.69462 0.98902 0.58603 0.0
H3276 H 0.69708 0.04825 0.60261 0.0
H3277 H 0.71531 0.99451 0.64835 0.0
H3278 H 0.71283 0.93474 0.6318 0.0
H3279 H 0.72446 0.06161 0.63496 0.0
H3280 H 0.69119 0.01647 0.65932 0.0
H3281 H 0.67315 0.9892 0.65708 0.0
H3282 H 0.66241 0.08217 0.62303 0.0
H3283 H 0.68045 0.10973 0.62479 0.0
C3284 C 0.70439 0.2254 0.67706 0.0
C3285 C 0.70891 0.25063 0.66369 0.0
C3286 C 0.70487 0.18744 0.67341 0.0
C3287 C 0.70991 0.17404 0.65638 0.0
C3288 C 0.71467 0.19918 0.64327 0.0
C3289 C 0.71421 0.23714 0.64693 0.0
C3290 C 0.7094 0.13418 0.65142 0.0
C3291 C 0.69928 0.11757 0.65008 0.0
C3292 C 0.71864 0.11344 0.64652 0.0
C3293 C 0.72958 0.12882 0.64885 0.0
C3294 C 0.73683 0.12829 0.633 0.0
C3295 C 0.74711 0.14302 0.63518 0.0
C3296 C 0.75026 0.15823 0.65317 0.0
C3297 C 0.74314 0.15866 0.66904 0.0
C3298 C 0.73286 0.14395 0.66695 0.0
C3299 C 0.69919 0.98976 0.59958 0.0
C3300 C 0.70349 0.95726 0.60768 0.0
C3301 C 0.70056 0.02359 0.60905 0.0
C3302 C 0.70629 0.0256 0.62677 0.0
C3303 C 0.71085 0.9934 0.63468 0.0
C3304 C 0.7094 0.95936 0.62527 0.0
C3305 C 0.70727 0.06148 0.63703 0.0
C3306 C 0.71744 0.07729 0.63928 0.0
C3307 C 0.69809 0.08138 0.64308 0.0
C3308 C 0.6872 0.06505 0.64208 0.0
C3309 C 0.68501 0.03098 0.65123 0.0
C3310 C 0.67478 0.01548 0.65007 0.0
C3311 C 0.66664 0.03391 0.63989 0.0
C3312 C 0.66872 0.06791 0.6309 0.0
C3313 C 0.67895 0.08351 0.63199 0.0
H3314 H 0.65873 0.02186 0.63901 0.0
H3315 H 0.75822 0.16964 0.65482 0.0
H3316 H 0.46729 0.72628 0.41319 0.0
H3317 H 0.46804 0.7922 0.40569 0.0
H3318 H 0.46526 0.7681 0.3437 0.0
H3319 H 0.46486 0.70168 0.35113 0.0
H3320 H 0.47862 0.82519 0.34962 0.0
H3321 H 0.44332 0.79265 0.37021 0.0
H3322 H 0.42961 0.7649 0.39174 0.0
H3323 H 0.43899 0.83702 0.43886 0.0
H3324 H 0.45288 0.86484 0.41769 0.0
H3325 H 0.45819 0.00586 0.32532 0.0
H3326 H 0.46053 0.93907 0.32969 0.0
H3327 H 0.46704 0.95583 0.39139 0.0
H3328 H 0.46479 0.02257 0.38713 0.0
H3329 H 0.45151 0.90216 0.38392 0.0
H3330 H 0.487 0.93463 0.36186 0.0
H3331 H 0.50013 0.96223 0.33907 0.0
H3332 H 0.48935 0.89034 0.29287 0.0
H3333 H 0.47605 0.86266 0.31532 0.0
C3334 C 0.46698 0.73499 0.39794 0.0
C3335 C 0.4659 0.70897 0.38274 0.0
C3336 C 0.46737 0.77265 0.39368 0.0
C3337 C 0.46644 0.78508 0.37418 0.0
C3338 C 0.46592 0.75908 0.35886 0.0
C3339 C 0.46568 0.72121 0.36311 0.0
C3340 C 0.46542 0.82517 0.37004 0.0
C3341 C 0.47261 0.84196 0.35692 0.0
C3342 C 0.45761 0.84707 0.37967 0.0
C3343 C 0.44921 0.8306 0.39241 0.0
C3344 C 0.44251 0.80242 0.38521 0.0
C3345 C 0.4347 0.78669 0.39734 0.0
C3346 C 0.43345 0.79913 0.41667 0.0
C3347 C 0.43998 0.82739 0.42389 0.0
C3348 C 0.44782 0.84316 0.41183 0.0
C3349 C 0.4602 0.9953 0.33978 0.0
C3350 C 0.46129 0.01934 0.3559 0.0
C3351 C 0.46157 0.95722 0.34222 0.0
C3352 C 0.464 0.94265 0.36084 0.0
C3353 C 0.46518 0.96663 0.37691 0.0
C3354 C 0.4639 0.0047 0.37445 0.0
C3355 C 0.46483 0.90225 0.36382 0.0
C3356 C 0.45753 0.88537 0.37664 0.0
C3357 C 0.47243 0.88033 0.35371 0.0
C3358 C 0.48045 0.89685 0.34022 0.0
C3359 C 0.48737 0.92493 0.34679 0.0
C3360 C 0.49485 0.94055 0.33394 0.0
C3361 C 0.49555 0.92812 0.31451 0.0
C3362 C 0.48879 0.89997 0.30791 0.0
C3363 C 0.48128 0.88429 0.3207 0.0
H3364 H 0.50135 0.94024 0.30459 0.0
H3365 H 0.42739 0.78692 0.42605 0.0
H3366 H 0.29338 0.7309 0.38489 0.0
H3367 H 0.28992 0.7969 0.3882 0.0
H3368 H 0.29444 0.81127 0.32566 0.0
H3369 H 0.29821 0.74506 0.32233 0.0
H3370 H 0.30521 0.86143 0.345 0.0
H3371 H 0.26933 0.81933 0.34678 0.0
H3372 H 0.25405 0.78055 0.35682 0.0
H3373 H 0.25726 0.81858 0.41638 0.0
H3374 H 0.27266 0.8572 0.40678 0.0
H3375 H 0.2918 0.05151 0.35988 0.0
H3376 H 0.28941 0.98814 0.34784 0.0
H3377 H 0.29134 0.94718 0.40739 0.0
H3378 H 0.29384 0.01024 0.4195 0.0
H3379 H 0.27502 0.91319 0.38371 0.0
H3380 H 0.3129 0.9458 0.38175 0.0
H3381 H 0.32811 0.98464 0.37136 0.0
H3382 H 0.32046 0.96424 0.3107 0.0
H3383 H 0.30509 0.92568 0.32077 0.0
C3384 C 0.29355 0.74804 0.37181 0.0
C3385 C 0.29608 0.73293 0.35336 0.0
C3386 C 0.29149 0.78573 0.37369 0.0
C3387 C 0.29174 0.80892 0.35712 0.0
C3388 C 0.29415 0.79381 0.33861 0.0
C3389 C 0.2963 0.75606 0.33674 0.0
C3390 C 0.29026 0.84927 0.35954 0.0
C3391 C 0.29846 0.87282 0.35302 0.0
C3392 C 0.28151 0.86411 0.37018 0.0
C3393 C 0.2722 0.84104 0.37606 0.0
C3394 C 0.26683 0.81925 0.36205 0.0
C3395 C 0.25813 0.79732 0.36766 0.0
C3396 C 0.25469 0.79706 0.38723 0.0
C3397 C 0.25993 0.81881 0.40123 0.0
C3398 C 0.26863 0.84078 0.3957 0.0
C3399 C 0.29159 0.029 0.3704 0.0
C3400 C 0.29309 0.03562 0.39059 0.0
C3401 C 0.29021 0.99294 0.36351 0.0
C3402 C 0.29024 0.96319 0.37676 0.0
C3403 C 0.29126 0.96991 0.39699 0.0
C3404 C 0.29276 0.00585 0.40385 0.0
C3405 C 0.29007 0.92473 0.36959 0.0
C3406 C 0.28159 0.90169 0.37526 0.0
C3407 C 0.2985 0.91035 0.35803 0.0
C3408 C 0.30778 0.93328 0.352 0.0
C3409 C 0.31441 0.94987 0.3662 0.0
C3410 C 0.32306 0.97178 0.36037 0.0
C3411 C 0.32523 0.97701 0.34038 0.0
C3412 C 0.31876 0.96024 0.32618 0.0
C3413 C 0.31008 0.93836 0.33194 0.0
H3414 H 0.33194 0.99397 0.3359 0.0
H3415 H 0.24796 0.78006 0.39154 0.0
H3416 H 0.55985 0.49698 0.17417 0.0
H3417 H 0.55761 0.56248 0.16661 0.0
H3418 H 0.52921 0.53749 0.13294 0.0
H3419 H 0.53172 0.47155 0.13977 0.0
H3420 H 0.54024 0.58316 0.11342 0.0
H3421 H 0.52827 0.58166 0.1794 0.0
H3422 H 0.52856 0.5674 0.21489 0.0
H3423 H 0.55713 0.63205 0.22179 0.0
H3424 H 0.55711 0.64629 0.18628 0.0
H3425 H 0.53559 0.79617 0.1368 0.0
H3426 H 0.53248 0.73173 0.14653 0.0
H3427 H 0.55721 0.69628 0.10636 0.0
H3428 H 0.56006 0.76015 0.09615 0.0
H3429 H 0.54402 0.68188 0.16361 0.0
H3430 H 0.55212 0.61431 0.08694 0.0
H3431 H 0.54934 0.62904 0.05185 0.0
H3432 H 0.52379 0.70311 0.06713 0.0
H3433 H 0.5263 0.68844 0.10227 0.0
C3434 C 0.55309 0.50549 0.16526 0.0
C3435 C 0.54595 0.47923 0.15755 0.0
C3436 C 0.55176 0.543 0.16107 0.0
C3437 C 0.54313 0.55513 0.14947 0.0
C3438 C 0.53592 0.52888 0.14194 0.0
C3439 C 0.53735 0.49123 0.14587 0.0
C3440 C 0.54203 0.59492 0.14434 0.0
C3441 C 0.54099 0.6047 0.12443 0.0
C3442 C 0.54267 0.6232 0.15873 0.0
C3443 C 0.54272 0.61484 0.18013 0.0
C3444 C 0.53466 0.59264 0.18846 0.0
C3445 C 0.53477 0.58459 0.20859 0.0
C3446 C 0.54287 0.59876 0.22058 0.0
C3447 C 0.55086 0.62108 0.21248 0.0
C3448 C 0.5508 0.6292 0.19235 0.0
C3449 C 0.54032 0.77454 0.13004 0.0
C3450 C 0.54801 0.78309 0.11563 0.0
C3451 C 0.53855 0.73778 0.13561 0.0
C3452 C 0.54447 0.70905 0.12692 0.0
C3453 C 0.55234 0.71779 0.1129 0.0
C3454 C 0.55401 0.75437 0.10716 0.0
C3455 C 0.54265 0.66991 0.13266 0.0
C3456 C 0.54313 0.6603 0.15266 0.0
C3457 C 0.54111 0.64181 0.11843 0.0
C3458 C 0.53946 0.65046 0.09727 0.0
C3459 C 0.54587 0.63359 0.08281 0.0
C3460 C 0.54435 0.64196 0.06291 0.0
C3461 C 0.53641 0.66706 0.05727 0.0
C3462 C 0.52996 0.68376 0.07152 0.0
C3463 C 0.53144 0.67546 0.09143 0.0
H3464 H 0.53525 0.67353 0.04185 0.0
H3465 H 0.54294 0.59249 0.23616 0.0
H3466 H 0.72367 0.46087 0.12965 0.0
H3467 H 0.7252 0.52725 0.13604 0.0
H3468 H 0.69727 0.54723 0.10014 0.0
H3469 H 0.69601 0.48118 0.09302 0.0
H3470 H 0.71085 0.59858 0.09331 0.0
H3471 H 0.69639 0.54428 0.15197 0.0
H3472 H 0.69579 0.50127 0.18014 0.0
H3473 H 0.72551 0.54509 0.20167 0.0
H3474 H 0.72635 0.58806 0.17347 0.0
H3475 H 0.69828 0.75971 0.16583 0.0
H3476 H 0.6989 0.69389 0.15802 0.0
H3477 H 0.72489 0.7137 0.11744 0.0
H3478 H 0.72397 0.77997 0.12464 0.0
H3479 H 0.71272 0.64247 0.1624 0.0
H3480 H 0.72394 0.65255 0.07982 0.0
H3481 H 0.7217 0.69551 0.05187 0.0
H3482 H 0.6934 0.74037 0.07866 0.0
H3483 H 0.69539 0.69737 0.10662 0.0
C3484 C 0.7179 0.47952 0.12305 0.0
C3485 C 0.70969 0.46595 0.11093 0.0
C3486 C 0.71875 0.5174 0.12677 0.0
C3487 C 0.71124 0.54223 0.11884 0.0
C3488 C 0.70316 0.52868 0.10641 0.0
C3489 C 0.70243 0.49092 0.10241 0.0
C3490 C 0.7116 0.5822 0.12379 0.0
C3491 C 0.71129 0.60816 0.10842 0.0
C3492 C 0.71199 0.59481 0.14351 0.0
C3493 C 0.71149 0.5691 0.16051 0.0
C3494 C 0.70283 0.54456 0.16264 0.0
C3495 C 0.70244 0.52022 0.17862 0.0
C3496 C 0.71062 0.52038 0.19265 0.0
C3497 C 0.71919 0.54495 0.19077 0.0
C3498 C 0.71963 0.56932 0.1748 0.0
C3499 C 0.70413 0.75002 0.15525 0.0
C3500 C 0.71103 0.77492 0.14574 0.0
C3501 C 0.70451 0.71237 0.15084 0.0
C3502 C 0.71186 0.69882 0.13697 0.0
C3503 C 0.71899 0.72357 0.12788 0.0
C3504 C 0.7185 0.76138 0.13207 0.0
C3505 C 0.7119 0.65887 0.13192 0.0
C3506 C 0.71234 0.63291 0.14728 0.0
C3507 C 0.71123 0.64627 0.11223 0.0
C3508 C 0.7099 0.67204 0.0954 0.0
C3509 C 0.71723 0.67152 0.07971 0.0
C3510 C 0.716 0.69588 0.06387 0.0
C3511 C 0.70744 0.72075 0.06353 0.0
C3512 C 0.70005 0.72121 0.07898 0.0
C3513 C 0.70124 0.69688 0.09483 0.0
H3514 H 0.70651 0.7396 0.05126 0.0
H3515 H 0.7103 0.50151 0.20502 0.0
H3516 H 0.47473 0.21285 0.88232 0.0
H3517 H 0.4769 0.27809 0.87351 0.0
H3518 H 0.44877 0.30533 0.90748 0.0
H3519 H 0.44685 0.24058 0.91694 0.0
H3520 H 0.46536 0.3213 0.85312 0.0
H3521 H 0.44937 0.39086 0.92505 0.0
H3522 H 0.44999 0.38017 0.96089 0.0
H3523 H 0.47868 0.31596 0.95417 0.0
H3524 H 0.47833 0.32668 0.91833 0.0
H3525 H 0.44432 0.49541 0.83231 0.0
H3526 H 0.44786 0.43264 0.84365 0.0
H3527 H 0.47277 0.47343 0.88195 0.0
H3528 H 0.46893 0.53679 0.87116 0.0
H3529 H 0.46191 0.42463 0.9007 0.0
H3530 H 0.47862 0.42612 0.83829 0.0
H3531 H 0.48048 0.43751 0.80267 0.0
H3532 H 0.45509 0.36066 0.79089 0.0
H3533 H 0.45296 0.34919 0.82647 0.0
C3534 C 0.46908 0.23289 0.88805 0.0
C3535 C 0.46064 0.22174 0.90036 0.0
C3536 C 0.47032 0.27012 0.88299 0.0
C3537 C 0.46309 0.29679 0.89003 0.0
C3538 C 0.45462 0.28553 0.90227 0.0
C3539 C 0.45348 0.24844 0.90756 0.0
C3540 C 0.46398 0.33604 0.88375 0.0
C3541 C 0.46468 0.34387 0.86355 0.0
C3542 C 0.46345 0.36564 0.89736 0.0
C3543 C 0.46377 0.35937 0.91896 0.0
C3544 C 0.45585 0.37463 0.93122 0.0
C3545 C 0.45614 0.36852 0.95154 0.0
C3546 C 0.46435 0.34733 0.95979 0.0
C3547 C 0.4723 0.33227 0.94775 0.0
C3548 C 0.47205 0.33831 0.92743 0.0
C3549 C 0.45058 0.49101 0.8431 0.0
C3550 C 0.45639 0.52092 0.8508 0.0
C3551 C 0.45265 0.45506 0.84949 0.0
C3552 C 0.46074 0.44814 0.86337 0.0
C3553 C 0.46652 0.47806 0.87117 0.0
C3554 C 0.46434 0.51419 0.86499 0.0
C3555 C 0.46287 0.40972 0.87005 0.0
C3556 C 0.46274 0.40206 0.89031 0.0
C3557 C 0.46432 0.38034 0.85654 0.0
C3558 C 0.46559 0.38696 0.83508 0.0
C3559 C 0.47338 0.41181 0.82812 0.0
C3560 C 0.47449 0.41826 0.80793 0.0
C3561 C 0.4679 0.39986 0.79453 0.0
C3562 C 0.46019 0.3749 0.80129 0.0
C3563 C 0.45904 0.36837 0.82147 0.0
H3564 H 0.46877 0.4049 0.7789 0.0
H3565 H 0.46456 0.34262 0.97552 0.0
H3566 H 0.29603 0.22493 0.82289 0.0
H3567 H 0.29223 0.29138 0.82335 0.0
H3568 H 0.28834 0.28708 0.88645 0.0
H3569 H 0.2918 0.22068 0.88599 0.0
H3570 H 0.27348 0.32962 0.87091 0.0
H3571 H 0.31194 0.31668 0.86393 0.0
H3572 H 0.32851 0.29535 0.84776 0.0
H3573 H 0.31982 0.35377 0.79508 0.0
H3574 H 0.30312 0.37509 0.81088 0.0
H3575 H 0.28854 0.50245 0.90858 0.0
H3576 H 0.28668 0.43821 0.89821 0.0
H3577 H 0.28578 0.47275 0.83743 0.0
H3578 H 0.28758 0.53754 0.84778 0.0
H3579 H 0.30077 0.41698 0.84535 0.0
H3580 H 0.26369 0.43934 0.8561 0.0
H3581 H 0.24778 0.46167 0.87398 0.0
H3582 H 0.25443 0.38637 0.92133 0.0
H3583 H 0.27047 0.36395 0.90388 0.0
C3584 C 0.29432 0.23821 0.83683 0.0
C3585 C 0.29427 0.21777 0.85443 0.0
C3586 C 0.29217 0.27614 0.83707 0.0
C3587 C 0.29011 0.29426 0.85496 0.0
C3588 C 0.28988 0.27366 0.87247 0.0
C3589 C 0.29191 0.23576 0.87221 0.0
C3590 C 0.28856 0.33485 0.85575 0.0
C3591 C 0.27946 0.34874 0.86537 0.0
C3592 C 0.2962 0.35982 0.84797 0.0
C3593 C 0.30623 0.34707 0.83849 0.0
C3594 C 0.31353 0.32473 0.84885 0.0
C3595 C 0.32295 0.31269 0.83976 0.0
C3596 C 0.3252 0.32309 0.82038 0.0
C3597 C 0.31805 0.34566 0.81007 0.0
C3598 C 0.30861 0.35774 0.81908 0.0
C3599 C 0.28782 0.49645 0.89302 0.0
C3600 C 0.28823 0.5249 0.87896 0.0
C3601 C 0.28669 0.45977 0.88712 0.0
C3602 C 0.28601 0.45085 0.86708 0.0
C3603 C 0.28624 0.47921 0.85298 0.0
C3604 C 0.28725 0.51609 0.8589 0.0
C3605 C 0.28588 0.41158 0.86108 0.0
C3606 C 0.29467 0.39793 0.85048 0.0
C3607 C 0.27802 0.38682 0.86816 0.0
C3608 C 0.26833 0.40009 0.8787 0.0
C3609 C 0.26181 0.42771 0.87039 0.0
C3610 C 0.25275 0.44036 0.88044 0.0
C3611 C 0.2501 0.42548 0.89879 0.0
C3612 C 0.25649 0.39787 0.90711 0.0
C3613 C 0.26556 0.38513 0.89713 0.0
H3614 H 0.24309 0.43532 0.90655 0.0
H3615 H 0.3325 0.31375 0.81337 0.0
loop_
_geom_bond_atom_site_label_1
_geom_bond_atom_site_label_2
_geom_bond_distance
_geom_bond_site_symmetry_2
_ccdc_geom_bond_type
In0 O1 2.294 . S
In0 O2 2.326 . S
In0 O6 2.266 . S
In0 O7 2.326 . S
In0 O8 2.266 . S
In0 O9 2.326 . S
In0 O11 2.294 . S
In0 O12 2.326 . S
O1 In0 2.294 . S
O1 C10 1.240 . S
O2 In0 2.326 . S
O2 C10 1.252 . S
C3 O6 1.252 . S
C3 O7 1.260 . S
C4 O11 1.240 . S
C4 O12 1.252 . S
C5 O8 1.252 . S
C5 O9 1.260 . S
O6 In0 2.266 . S
O6 C3 1.252 . S
O7 In0 2.326 . S
O7 C3 1.260 . S
O8 In0 2.266 . S
O8 C5 1.252 . S
O9 In0 2.326 . S
O9 C5 1.260 . S
C10 O1 1.240 . S
C10 O2 1.252 . S
O11 In0 2.294 . S
O11 C4 1.240 . S
O12 In0 2.326 . S
O12 C4 1.252 . S
In13 O14 2.294 . S
In13 O15 2.326 . S
In13 O19 2.266 . S
In13 O20 2.326 . S
In13 O21 2.266 . S
In13 O22 2.326 . S
In13 O24 2.294 . S
In13 O25 2.326 . S
O14 In13 2.294 . S
O14 C23 1.240 . S
O15 In13 2.326 . S
O15 C23 1.252 . S
C16 O19 1.252 . S
C16 O20 1.260 . S
C17 O24 1.240 . S
C17 O25 1.252 . S
C18 O21 1.252 . S
C18 O22 1.260 . S
O19 In13 2.266 . S
O19 C16 1.252 . S
O20 In13 2.326 . S
O20 C16 1.260 . S
O21 In13 2.266 . S
O21 C18 1.252 . S
O22 In13 2.326 . S
O22 C18 1.260 . S
C23 O14 1.240 . S
C23 O15 1.252 . S
O24 In13 2.294 . S
O24 C17 1.240 . S
O25 In13 2.326 . S
O25 C17 1.252 . S
In26 O27 2.294 . S
In26 O28 2.326 . S
In26 O32 2.266 . S
In26 O33 2.326 . S
In26 O34 2.266 . S
In26 O35 2.326 . S
In26 O37 2.294 . S
In26 O38 2.326 . S
O27 In26 2.294 . S
O27 C36 1.240 . S
O28 In26 2.326 . S
O28 C36 1.252 . S
C29 O32 1.252 . S
C29 O33 1.260 . S
C30 O37 1.240 . S
C30 O38 1.252 . S
C31 O34 1.252 . S
C31 O35 1.260 . S
O32 In26 2.266 . S
O32 C29 1.252 . S
O33 In26 2.326 . S
O33 C29 1.260 . S
O34 In26 2.266 . S
O34 C31 1.252 . S
O35 In26 2.326 . S
O35 C31 1.260 . S
C36 O27 1.240 . S
C36 O28 1.252 . S
O37 In26 2.294 . S
O37 C30 1.240 . S
O38 In26 2.326 . S
O38 C30 1.252 . S
In39 O40 2.294 . S
In39 O41 2.326 . S
In39 O45 2.266 . S
In39 O46 2.326 . S
In39 O47 2.266 . S
In39 O48 2.326 . S
In39 O50 2.294 . S
In39 O51 2.326 . S
O40 In39 2.294 . S
O40 C49 1.240 . S
O41 In39 2.326 . S
O41 C49 1.252 . S
C42 O45 1.252 . S
C42 O46 1.260 . S
C43 O50 1.240 . S
C43 O51 1.252 . S
C44 O47 1.252 . S
C44 O48 1.260 . S
O45 In39 2.266 . S
O45 C42 1.252 . S
O46 In39 2.326 . S
O46 C42 1.260 . S
O47 In39 2.266 . S
O47 C44 1.252 . S
O48 In39 2.326 . S
O48 C44 1.260 . S
C49 O40 1.240 . S
C49 O41 1.252 . S
O50 In39 2.294 . S
O50 C43 1.240 . S
O51 In39 2.326 . S
O51 C43 1.252 . S
In52 O53 2.294 . S
In52 O54 2.326 . S
In52 O58 2.266 . S
In52 O59 2.326 . S
In52 O60 2.266 . S
In52 O61 2.326 . S
In52 O63 2.294 . S
In52 O64 2.326 . S
O53 In52 2.294 . S
O53 C62 1.240 . S
O54 In52 2.326 . S
O54 C62 1.252 . S
C55 O58 1.252 . S
C55 O59 1.260 . S
C56 O63 1.240 . S
C56 O64 1.252 . S
C57 O60 1.252 . S
C57 O61 1.260 . S
O58 In52 2.266 . S
O58 C55 1.252 . S
O59 In52 2.326 . S
O59 C55 1.260 . S
O60 In52 2.266 . S
O60 C57 1.252 . S
O61 In52 2.326 . S
O61 C57 1.260 . S
C62 O53 1.240 . S
C62 O54 1.252 . S
O63 In52 2.294 . S
O63 C56 1.240 . S
O64 In52 2.326 . S
O64 C56 1.252 . S
In65 O66 2.294 . S
In65 O67 2.326 . S
In65 O71 2.266 . S
In65 O72 2.326 . S
In65 O73 2.266 . S
In65 O74 2.326 . S
In65 O76 2.294 . S
In65 O77 2.326 . S
O66 In65 2.294 . S
O66 C75 1.240 . S
O67 In65 2.326 . S
O67 C75 1.252 . S
C68 O71 1.252 . S
C68 O72 1.260 . S
C69 O76 1.240 . S
C69 O77 1.252 . S
C70 O73 1.252 . S
C70 O74 1.260 . S
O71 In65 2.266 . S
O71 C68 1.252 . S
O72 In65 2.326 . S
O72 C68 1.260 . S
O73 In65 2.266 . S
O73 C70 1.252 . S
O74 In65 2.326 . S
O74 C70 1.260 . S
C75 O66 1.240 . S
C75 O67 1.252 . S
O76 In65 2.294 . S
O76 C69 1.240 . S
O77 In65 2.326 . S
O77 C69 1.252 . S
In78 O79 2.294 . S
In78 O80 2.326 . S
In78 O84 2.266 . S
In78 O85 2.326 . S
In78 O86 2.266 . S
In78 O87 2.326 . S
In78 O89 2.294 . S
In78 O90 2.326 . S
O79 In78 2.294 . S
O79 C88 1.240 . S
O80 In78 2.326 . S
O80 C88 1.252 . S
C81 O84 1.252 . S
C81 O85 1.260 . S
C82 O89 1.240 . S
C82 O90 1.252 . S
C83 O86 1.252 . S
C83 O87 1.260 . S
O84 In78 2.266 . S
O84 C81 1.252 . S
O85 In78 2.326 . S
O85 C81 1.260 . S
O86 In78 2.266 . S
O86 C83 1.252 . S
O87 In78 2.326 . S
O87 C83 1.260 . S
C88 O79 1.240 . S
C88 O80 1.252 . S
O89 In78 2.294 . S
O89 C82 1.240 . S
O90 In78 2.326 . S
O90 C82 1.252 . S
In91 O92 2.294 . S
In91 O93 2.326 . S
In91 O97 2.266 . S
In91 O98 2.326 . S
In91 O99 2.266 . S
In91 O100 2.326 . S
In91 O102 2.294 . S
In91 O103 2.326 . S
O92 In91 2.294 . S
O92 C101 1.240 . S
O93 In91 2.326 . S
O93 C101 1.252 . S
C94 O97 1.252 . S
C94 O98 1.260 . S
C95 O102 1.240 . S
C95 O103 1.252 . S
C96 O99 1.252 . S
C96 O100 1.260 . S
O97 In91 2.266 . S
O97 C94 1.252 . S
O98 In91 2.326 . S
O98 C94 1.260 . S
O99 In91 2.266 . S
O99 C96 1.252 . S
O100 In91 2.326 . S
O100 C96 1.260 . S
C101 O92 1.240 . S
C101 O93 1.252 . S
O102 In91 2.294 . S
O102 C95 1.240 . S
O103 In91 2.326 . S
O103 C95 1.252 . S
In104 O105 2.294 . S
In104 O106 2.326 . S
In104 O110 2.266 . S
In104 O111 2.326 . S
In104 O112 2.266 . S
In104 O113 2.326 . S
In104 O115 2.294 . S
In104 O116 2.326 . S
O105 In104 2.294 . S
O105 C114 1.240 . S
O106 In104 2.326 . S
O106 C114 1.252 . S
C107 O110 1.252 . S
C107 O111 1.260 . S
C108 O115 1.240 . S
C108 O116 1.252 . S
C109 O112 1.252 . S
C109 O113 1.260 . S
O110 In104 2.266 . S
O110 C107 1.252 . S
O111 In104 2.326 . S
O111 C107 1.260 . S
O112 In104 2.266 . S
O112 C109 1.252 . S
O113 In104 2.326 . S
O113 C109 1.260 . S
C114 O105 1.240 . S
C114 O106 1.252 . S
O115 In104 2.294 . S
O115 C108 1.240 . S
O116 In104 2.326 . S
O116 C108 1.252 . S
In117 O118 2.294 . S
In117 O119 2.326 . S
In117 O123 2.266 . S
In117 O124 2.326 . S
In117 O125 2.266 . S
In117 O126 2.326 . S
In117 O128 2.294 . S
In117 O129 2.326 . S
O118 In117 2.294 . S
O118 C127 1.240 . S
O119 In117 2.326 . S
O119 C127 1.252 . S
C120 O123 1.252 . S
C120 O124 1.260 . S
C121 O128 1.240 . S
C121 O129 1.252 . S
C122 O125 1.252 . S
C122 O126 1.260 . S
O123 In117 2.266 . S
O123 C120 1.252 . S
O124 In117 2.326 . S
O124 C120 1.260 . S
O125 In117 2.266 . S
O125 C122 1.252 . S
O126 In117 2.326 . S
O126 C122 1.260 . S
C127 O118 1.240 . S
C127 O119 1.252 . S
O128 In117 2.294 . S
O128 C121 1.240 . S
O129 In117 2.326 . S
O129 C121 1.252 . S
In130 O131 2.294 . S
In130 O132 2.326 . S
In130 O136 2.266 . S
In130 O137 2.326 . S
In130 O138 2.266 . S
In130 O139 2.326 . S
In130 O141 2.294 . S
In130 O142 2.326 . S
O131 In130 2.294 . S
O131 C140 1.240 . S
O132 In130 2.326 . S
O132 C140 1.252 . S
C133 O136 1.252 . S
C133 O137 1.260 . S
C134 O141 1.240 . S
C134 O142 1.252 . S
C135 O138 1.252 . S
C135 O139 1.260 . S
O136 In130 2.266 . S
O136 C133 1.252 . S
O137 In130 2.326 . S
O137 C133 1.260 . S
O138 In130 2.266 . S
O138 C135 1.252 . S
O139 In130 2.326 . S
O139 C135 1.260 . S
C140 O131 1.240 . S
C140 O132 1.252 . S
O141 In130 2.294 . S
O141 C134 1.240 . S
O142 In130 2.326 . S
O142 C134 1.252 . S
In143 O144 2.294 . S
In143 O145 2.326 . S
In143 O149 2.266 . S
In143 O150 2.326 . S
In143 O151 2.266 . S
In143 O152 2.326 . S
In143 O154 2.294 . S
In143 O155 2.326 . S
O144 In143 2.294 . S
O144 C153 1.240 . S
O145 In143 2.326 . S
O145 C153 1.252 . S
C146 O149 1.252 . S
C146 O150 1.260 . S
C147 O154 1.240 . S
C147 O155 1.252 . S
C148 O151 1.252 . S
C148 O152 1.260 . S
O149 In143 2.266 . S
O149 C146 1.252 . S
O150 In143 2.326 . S
O150 C146 1.260 . S
O151 In143 2.266 . S
O151 C148 1.252 . S
O152 In143 2.326 . S
O152 C148 1.260 . S
C153 O144 1.240 . S
C153 O145 1.252 . S
O154 In143 2.294 . S
O154 C147 1.240 . S
O155 In143 2.326 . S
O155 C147 1.252 . S
In156 O157 2.294 . S
In156 O158 2.326 . S
In156 O162 2.266 . S
In156 O163 2.326 . S
In156 O164 2.266 . S
In156 O165 2.326 . S
In156 O167 2.294 . S
In156 O168 2.326 . S
O157 In156 2.294 . S
O157 C166 1.240 . S
O158 In156 2.326 . S
O158 C166 1.252 . S
C159 O162 1.252 . S
C159 O163 1.260 . S
C160 O167 1.240 . S
C160 O168 1.252 . S
C161 O164 1.252 . S
C161 O165 1.260 . S
O162 In156 2.266 . S
O162 C159 1.252 . S
O163 In156 2.326 . S
O163 C159 1.260 . S
O164 In156 2.266 . S
O164 C161 1.252 . S
O165 In156 2.326 . S
O165 C161 1.260 . S
C166 O157 1.240 . S
C166 O158 1.252 . S
O167 In156 2.294 . S
O167 C160 1.240 . S
O168 In156 2.326 . S
O168 C160 1.252 . S
In169 O170 2.294 . S
In169 O171 2.326 . S
In169 O175 2.266 . S
In169 O176 2.326 . S
In169 O177 2.266 . S
In169 O178 2.326 . S
In169 O180 2.294 . S
In169 O181 2.326 . S
O170 In169 2.294 . S
O170 C179 1.240 . S
O171 In169 2.326 . S
O171 C179 1.252 . S
C172 O175 1.252 . S
C172 O176 1.260 . S
C173 O180 1.240 . S
C173 O181 1.252 . S
C174 O177 1.252 . S
C174 O178 1.260 . S
O175 In169 2.266 . S
O175 C172 1.252 . S
O176 In169 2.326 . S
O176 C172 1.260 . S
O177 In169 2.266 . S
O177 C174 1.252 . S
O178 In169 2.326 . S
O178 C174 1.260 . S
C179 O170 1.240 . S
C179 O171 1.252 . S
O180 In169 2.294 . S
O180 C173 1.240 . S
O181 In169 2.326 . S
O181 C173 1.252 . S
In182 O183 2.294 . S
In182 O184 2.326 . S
In182 O188 2.266 . S
In182 O189 2.326 . S
In182 O190 2.266 . S
In182 O191 2.326 . S
In182 O193 2.294 . S
In182 O194 2.326 . S
O183 In182 2.294 . S
O183 C192 1.240 . S
O184 In182 2.326 . S
O184 C192 1.252 . S
C185 O188 1.252 . S
C185 O189 1.260 . S
C186 O193 1.240 . S
C186 O194 1.252 . S
C187 O190 1.252 . S
C187 O191 1.260 . S
O188 In182 2.266 . S
O188 C185 1.252 . S
O189 In182 2.326 . S
O189 C185 1.260 . S
O190 In182 2.266 . S
O190 C187 1.252 . S
O191 In182 2.326 . S
O191 C187 1.260 . S
C192 O183 1.240 . S
C192 O184 1.252 . S
O193 In182 2.294 . S
O193 C186 1.240 . S
O194 In182 2.326 . S
O194 C186 1.252 . S
In195 O196 2.294 . S
In195 O197 2.326 . S
In195 O201 2.266 . S
In195 O202 2.326 . S
In195 O203 2.266 . S
In195 O204 2.326 . S
In195 O206 2.294 . S
In195 O207 2.326 . S
O196 In195 2.294 . S
O196 C205 1.240 . S
O197 In195 2.326 . S
O197 C205 1.252 . S
C198 O201 1.252 . S
C198 O202 1.260 . S
C199 O206 1.240 . S
C199 O207 1.252 . S
C200 O203 1.252 . S
C200 O204 1.260 . S
O201 In195 2.266 . S
O201 C198 1.252 . S
O202 In195 2.326 . S
O202 C198 1.260 . S
O203 In195 2.266 . S
O203 C200 1.252 . S
O204 In195 2.326 . S
O204 C200 1.260 . S
C205 O196 1.240 . S
C205 O197 1.252 . S
O206 In195 2.294 . S
O206 C199 1.240 . S
O207 In195 2.326 . S
O207 C199 1.252 . S
In208 O209 2.294 . S
In208 O210 2.326 . S
In208 O214 2.266 . S
In208 O215 2.326 . S
In208 O216 2.266 . S
In208 O217 2.326 . S
In208 O219 2.294 . S
In208 O220 2.326 . S
O209 In208 2.294 . S
O209 C218 1.240 . S
O210 In208 2.326 . S
O210 C218 1.252 . S
C211 O214 1.252 . S
C211 O215 1.260 . S
C212 O219 1.240 . S
C212 O220 1.252 . S
C213 O216 1.252 . S
C213 O217 1.260 . S
O214 In208 2.266 . S
O214 C211 1.252 . S
O215 In208 2.326 . S
O215 C211 1.260 . S
O216 In208 2.266 . S
O216 C213 1.252 . S
O217 In208 2.326 . S
O217 C213 1.260 . S
C218 O209 1.240 . S
C218 O210 1.252 . S
O219 In208 2.294 . S
O219 C212 1.240 . S
O220 In208 2.326 . S
O220 C212 1.252 . S
In221 O222 2.294 . S
In221 O223 2.326 . S
In221 O227 2.266 . S
In221 O228 2.326 . S
In221 O229 2.266 . S
In221 O230 2.326 . S
In221 O232 2.294 . S
In221 O233 2.326 . S
O222 In221 2.294 . S
O222 C231 1.240 . S
O223 In221 2.326 . S
O223 C231 1.252 . S
C224 O227 1.252 . S
C224 O228 1.260 . S
C225 O232 1.240 . S
C225 O233 1.252 . S
C226 O229 1.252 . S
C226 O230 1.260 . S
O227 In221 2.266 . S
O227 C224 1.252 . S
O228 In221 2.326 . S
O228 C224 1.260 . S
O229 In221 2.266 . S
O229 C226 1.252 . S
O230 In221 2.326 . S
O230 C226 1.260 . S
C231 O222 1.240 . S
C231 O223 1.252 . S
O232 In221 2.294 . S
O232 C225 1.240 . S
O233 In221 2.326 . S
O233 C225 1.252 . S
In234 O235 2.294 . S
In234 O236 2.326 . S
In234 O240 2.266 . S
In234 O241 2.326 . S
In234 O242 2.266 . S
In234 O243 2.326 . S
In234 O245 2.294 . S
In234 O246 2.326 . S
O235 In234 2.294 . S
O235 C244 1.240 . S
O236 In234 2.326 . S
O236 C244 1.252 . S
C237 O240 1.252 . S
C237 O241 1.260 . S
C238 O245 1.240 . S
C238 O246 1.252 . S
C239 O242 1.252 . S
C239 O243 1.260 . S
O240 In234 2.266 . S
O240 C237 1.252 . S
O241 In234 2.326 . S
O241 C237 1.260 . S
O242 In234 2.266 . S
O242 C239 1.252 . S
O243 In234 2.326 . S
O243 C239 1.260 . S
C244 O235 1.240 . S
C244 O236 1.252 . S
O245 In234 2.294 . S
O245 C238 1.240 . S
O246 In234 2.326 . S
O246 C238 1.252 . S
In247 O248 2.294 . S
In247 O249 2.326 . S
In247 O253 2.266 . S
In247 O254 2.326 . S
In247 O255 2.266 . S
In247 O256 2.326 . S
In247 O258 2.294 . S
In247 O259 2.326 . S
O248 In247 2.294 . S
O248 C257 1.240 . S
O249 In247 2.326 . S
O249 C257 1.252 . S
C250 O253 1.252 . S
C250 O254 1.260 . S
C251 O258 1.240 . S
C251 O259 1.252 . S
C252 O255 1.252 . S
C252 O256 1.260 . S
O253 In247 2.266 . S
O253 C250 1.252 . S
O254 In247 2.326 . S
O254 C250 1.260 . S
O255 In247 2.266 . S
O255 C252 1.252 . S
O256 In247 2.326 . S
O256 C252 1.260 . S
C257 O248 1.240 . S
C257 O249 1.252 . S
O258 In247 2.294 . S
O258 C251 1.240 . S
O259 In247 2.326 . S
O259 C251 1.252 . S
In260 O261 2.294 . S
In260 O262 2.326 . S
In260 O266 2.266 . S
In260 O267 2.326 . S
In260 O268 2.266 . S
In260 O269 2.326 . S
In260 O271 2.294 . S
In260 O272 2.326 . S
O261 In260 2.294 . S
O261 C270 1.240 . S
O262 In260 2.326 . S
O262 C270 1.252 . S
C263 O266 1.252 . S
C263 O267 1.260 . S
C264 O271 1.240 . S
C264 O272 1.252 . S
C265 O268 1.252 . S
C265 O269 1.260 . S
O266 In260 2.266 . S
O266 C263 1.252 . S
O267 In260 2.326 . S
O267 C263 1.260 . S
O268 In260 2.266 . S
O268 C265 1.252 . S
O269 In260 2.326 . S
O269 C265 1.260 . S
C270 O261 1.240 . S
C270 O262 1.252 . S
O271 In260 2.294 . S
O271 C264 1.240 . S
O272 In260 2.326 . S
O272 C264 1.252 . S
In273 O274 2.294 . S
In273 O275 2.326 . S
In273 O279 2.266 . S
In273 O280 2.326 . S
In273 O281 2.266 . S
In273 O282 2.326 . S
In273 O284 2.294 . S
In273 O285 2.326 . S
O274 In273 2.294 . S
O274 C283 1.240 . S
O275 In273 2.326 . S
O275 C283 1.252 . S
C276 O279 1.252 . S
C276 O280 1.260 . S
C277 O284 1.240 . S
C277 O285 1.252 . S
C278 O281 1.252 . S
C278 O282 1.260 . S
O279 In273 2.266 . S
O279 C276 1.252 . S
O280 In273 2.326 . S
O280 C276 1.260 . S
O281 In273 2.266 . S
O281 C278 1.252 . S
O282 In273 2.326 . S
O282 C278 1.260 . S
C283 O274 1.240 . S
C283 O275 1.252 . S
O284 In273 2.294 . S
O284 C277 1.240 . S
O285 In273 2.326 . S
O285 C277 1.252 . S
In286 O287 2.294 . S
In286 O288 2.326 . S
In286 O292 2.266 . S
In286 O293 2.326 . S
In286 O294 2.266 . S
In286 O295 2.326 . S
In286 O297 2.294 . S
In286 O298 2.326 . S
O287 In286 2.294 . S
O287 C296 1.240 . S
O288 In286 2.326 . S
O288 C296 1.252 . S
C289 O292 1.252 . S
C289 O293 1.260 . S
C290 O297 1.240 . S
C290 O298 1.252 . S
C291 O294 1.252 . S
C291 O295 1.260 . S
O292 In286 2.266 . S
O292 C289 1.252 . S
O293 In286 2.326 . S
O293 C289 1.260 . S
O294 In286 2.266 . S
O294 C291 1.252 . S
O295 In286 2.326 . S
O295 C291 1.260 . S
C296 O287 1.240 . S
C296 O288 1.252 . S
O297 In286 2.294 . S
O297 C290 1.240 . S
O298 In286 2.326 . S
O298 C290 1.252 . S
In299 O300 2.294 . S
In299 O301 2.326 . S
In299 O305 2.266 . S
In299 O306 2.326 . S
In299 O307 2.266 . S
In299 O308 2.326 . S
In299 O310 2.294 . S
In299 O311 2.326 . S
O300 In299 2.294 . S
O300 C309 1.240 . S
O301 In299 2.326 . S
O301 C309 1.252 . S
C302 O305 1.252 . S
C302 O306 1.260 . S
C303 O310 1.240 . S
C303 O311 1.252 . S
C304 O307 1.252 . S
C304 O308 1.260 . S
O305 In299 2.266 . S
O305 C302 1.252 . S
O306 In299 2.326 . S
O306 C302 1.260 . S
O307 In299 2.266 . S
O307 C304 1.252 . S
O308 In299 2.326 . S
O308 C304 1.260 . S
C309 O300 1.240 . S
C309 O301 1.252 . S
O310 In299 2.294 . S
O310 C303 1.240 . S
O311 In299 2.326 . S
O311 C303 1.252 . S
In312 O313 2.294 . S
In312 O314 2.326 . S
In312 O318 2.266 . S
In312 O319 2.326 . S
In312 O320 2.266 . S
In312 O321 2.326 . S
In312 O323 2.294 . S
In312 O324 2.326 . S
O313 In312 2.294 . S
O313 C322 1.240 . S
O314 In312 2.326 . S
O314 C322 1.252 . S
C315 O318 1.252 . S
C315 O319 1.260 . S
C316 O323 1.240 . S
C316 O324 1.252 . S
C317 O320 1.252 . S
C317 O321 1.260 . S
O318 In312 2.266 . S
O318 C315 1.252 . S
O319 In312 2.326 . S
O319 C315 1.260 . S
O320 In312 2.266 . S
O320 C317 1.252 . S
O321 In312 2.326 . S
O321 C317 1.260 . S
C322 O313 1.240 . S
C322 O314 1.252 . S
O323 In312 2.294 . S
O323 C316 1.240 . S
O324 In312 2.326 . S
O324 C316 1.252 . S
In325 O326 2.294 . S
In325 O327 2.326 . S
In325 O331 2.266 . S
In325 O332 2.326 . S
In325 O333 2.266 . S
In325 O334 2.326 . S
In325 O336 2.294 . S
In325 O337 2.326 . S
O326 In325 2.294 . S
O326 C335 1.240 . S
O327 In325 2.326 . S
O327 C335 1.252 . S
C328 O331 1.252 . S
C328 O332 1.260 . S
C329 O336 1.240 . S
C329 O337 1.252 . S
C330 O333 1.252 . S
C330 O334 1.260 . S
O331 In325 2.266 . S
O331 C328 1.252 . S
O332 In325 2.326 . S
O332 C328 1.260 . S
O333 In325 2.266 . S
O333 C330 1.252 . S
O334 In325 2.326 . S
O334 C330 1.260 . S
C335 O326 1.240 . S
C335 O327 1.252 . S
O336 In325 2.294 . S
O336 C329 1.240 . S
O337 In325 2.326 . S
O337 C329 1.252 . S
In338 O339 2.294 . S
In338 O340 2.326 . S
In338 O344 2.266 . S
In338 O345 2.326 . S
In338 O346 2.266 . S
In338 O347 2.326 . S
In338 O349 2.294 . S
In338 O350 2.326 . S
O339 In338 2.294 . S
O339 C348 1.240 . S
O340 In338 2.326 . S
O340 C348 1.252 . S
C341 O344 1.252 . S
C341 O345 1.260 . S
C342 O349 1.240 . S
C342 O350 1.252 . S
C343 O346 1.252 . S
C343 O347 1.260 . S
O344 In338 2.266 . S
O344 C341 1.252 . S
O345 In338 2.326 . S
O345 C341 1.260 . S
O346 In338 2.266 . S
O346 C343 1.252 . S
O347 In338 2.326 . S
O347 C343 1.260 . S
C348 O339 1.240 . S
C348 O340 1.252 . S
O349 In338 2.294 . S
O349 C342 1.240 . S
O350 In338 2.326 . S
O350 C342 1.252 . S
In351 O352 2.294 . S
In351 O353 2.326 . S
In351 O357 2.266 . S
In351 O358 2.326 . S
In351 O359 2.266 . S
In351 O360 2.326 . S
In351 O362 2.294 . S
In351 O363 2.326 . S
O352 In351 2.294 . S
O352 C361 1.240 . S
O353 In351 2.326 . S
O353 C361 1.252 . S
C354 O357 1.252 . S
C354 O358 1.260 . S
C355 O362 1.240 . S
C355 O363 1.252 . S
C356 O359 1.252 . S
C356 O360 1.260 . S
O357 In351 2.266 . S
O357 C354 1.252 . S
O358 In351 2.326 . S
O358 C354 1.260 . S
O359 In351 2.266 . S
O359 C356 1.252 . S
O360 In351 2.326 . S
O360 C356 1.260 . S
C361 O352 1.240 . S
C361 O353 1.252 . S
O362 In351 2.294 . S
O362 C355 1.240 . S
O363 In351 2.326 . S
O363 C355 1.252 . S
In364 O365 2.294 . S
In364 O366 2.326 . S
In364 O370 2.266 . S
In364 O371 2.326 . S
In364 O372 2.266 . S
In364 O373 2.326 . S
In364 O375 2.294 . S
In364 O376 2.326 . S
O365 In364 2.294 . S
O365 C374 1.240 . S
O366 In364 2.326 . S
O366 C374 1.252 . S
C367 O370 1.252 . S
C367 O371 1.260 . S
C368 O375 1.240 . S
C368 O376 1.252 . S
C369 O372 1.252 . S
C369 O373 1.260 . S
O370 In364 2.266 . S
O370 C367 1.252 . S
O371 In364 2.326 . S
O371 C367 1.260 . S
O372 In364 2.266 . S
O372 C369 1.252 . S
O373 In364 2.326 . S
O373 C369 1.260 . S
C374 O365 1.240 . S
C374 O366 1.252 . S
O375 In364 2.294 . S
O375 C368 1.240 . S
O376 In364 2.326 . S
O376 C368 1.252 . S
In377 O378 2.294 . S
In377 O379 2.326 . S
In377 O383 2.266 . S
In377 O384 2.326 . S
In377 O385 2.266 . S
In377 O386 2.326 . S
In377 O388 2.294 . S
In377 O389 2.326 . S
O378 In377 2.294 . S
O378 C387 1.240 . S
O379 In377 2.326 . S
O379 C387 1.252 . S
C380 O383 1.252 . S
C380 O384 1.260 . S
C381 O388 1.240 . S
C381 O389 1.252 . S
C382 O385 1.252 . S
C382 O386 1.260 . S
O383 In377 2.266 . S
O383 C380 1.252 . S
O384 In377 2.326 . S
O384 C380 1.260 . S
O385 In377 2.266 . S
O385 C382 1.252 . S
O386 In377 2.326 . S
O386 C382 1.260 . S
C387 O378 1.240 . S
C387 O379 1.252 . S
O388 In377 2.294 . S
O388 C381 1.240 . S
O389 In377 2.326 . S
O389 C381 1.252 . S
In390 O391 2.294 . S
In390 O392 2.326 . S
In390 O396 2.266 . S
In390 O397 2.326 . S
In390 O398 2.266 . S
In390 O399 2.326 . S
In390 O401 2.294 . S
In390 O402 2.326 . S
O391 In390 2.294 . S
O391 C400 1.240 . S
O392 In390 2.326 . S
O392 C400 1.252 . S
C393 O396 1.252 . S
C393 O397 1.260 . S
C394 O401 1.240 . S
C394 O402 1.252 . S
C395 O398 1.252 . S
C395 O399 1.260 . S
O396 In390 2.266 . S
O396 C393 1.252 . S
O397 In390 2.326 . S
O397 C393 1.260 . S
O398 In390 2.266 . S
O398 C395 1.252 . S
O399 In390 2.326 . S
O399 C395 1.260 . S
C400 O391 1.240 . S
C400 O392 1.252 . S
O401 In390 2.294 . S
O401 C394 1.240 . S
O402 In390 2.326 . S
O402 C394 1.252 . S
In403 O404 2.294 . S
In403 O405 2.326 . S
In403 O409 2.266 . S
In403 O410 2.326 . S
In403 O411 2.266 . S
In403 O412 2.326 . S
In403 O414 2.294 . S
In403 O415 2.326 . S
O404 In403 2.294 . S
O404 C413 1.240 . S
O405 In403 2.326 . S
O405 C413 1.252 . S
C406 O409 1.252 . S
C406 O410 1.260 . S
C407 O414 1.240 . S
C407 O415 1.252 . S
C408 O411 1.252 . S
C408 O412 1.260 . S
O409 In403 2.266 . S
O409 C406 1.252 . S
O410 In403 2.326 . S
O410 C406 1.260 . S
O411 In403 2.266 . S
O411 C408 1.252 . S
O412 In403 2.326 . S
O412 C408 1.260 . S
C413 O404 1.240 . S
C413 O405 1.252 . S
O414 In403 2.294 . S
O414 C407 1.240 . S
O415 In403 2.326 . S
O415 C407 1.252 . S
H416 C434 0.951 . S
H417 C436 0.951 . S
H418 C438 0.950 . S
H419 C439 0.950 . S
H420 C441 0.950 . S
H421 C444 0.950 . S
H422 C445 0.950 . S
H423 C447 0.950 . S
H424 C448 0.950 . S
H425 C449 0.951 . S
H426 C451 0.951 . S
H427 C453 0.950 . S
H428 C454 0.950 . S
H429 C456 0.950 . S
H430 C459 0.950 . S
H431 C460 0.950 . S
H432 C462 0.950 . S
H433 C463 0.950 . S
C434 H416 0.951 . S
C434 C435 1.366 . S
C434 C436 1.388 . S
C435 C434 1.366 . S
C435 C439 1.385 . S
C436 H417 0.951 . S
C436 C434 1.388 . S
C436 C437 1.366 . S
C437 C436 1.366 . S
C437 C438 1.414 . S
C437 C440 1.499 . S
C438 H418 0.950 . S
C438 C437 1.414 . S
C438 C439 1.374 . S
C439 H419 0.950 . S
C439 C435 1.385 . S
C439 C438 1.374 . S
C440 C437 1.499 . S
C440 C441 1.373 . S
C440 C442 1.389 . S
C441 H420 0.950 . S
C441 C440 1.373 . S
C441 C457 1.377 . S
C442 C440 1.389 . S
C442 C443 1.524 . S
C442 C456 1.377 . S
C443 C442 1.524 . S
C443 C444 1.397 . S
C443 C448 1.363 . S
C444 H421 0.950 . S
C444 C443 1.397 . S
C444 C445 1.334 . S
C445 H422 0.950 . S
C445 C444 1.334 . S
C445 C446 1.287 . S
C446 C445 1.287 . S
C446 C447 1.524 . S
C446 H465 0.913 . S
C447 H423 0.950 . S
C447 C446 1.524 . S
C447 C448 1.415 . S
C448 H424 0.950 . S
C448 C443 1.363 . S
C448 C447 1.415 . S
C449 H425 0.951 . S
C449 C450 1.366 . S
C449 C451 1.388 . S
C450 C449 1.366 . S
C450 C454 1.385 . S
C451 H426 0.951 . S
C451 C449 1.388 . S
C451 C452 1.366 . S
C452 C451 1.366 . S
C452 C453 1.414 . S
C452 C455 1.499 . S
C453 H427 0.950 . S
C453 C452 1.414 . S
C453 C454 1.374 . S
C454 H428 0.950 . S
C454 C450 1.385 . S
C454 C453 1.374 . S
C455 C452 1.499 . S
C455 C456 1.373 . S
C455 C457 1.389 . S
C456 H429 0.950 . S
C456 C442 1.377 . S
C456 C455 1.373 . S
C457 C441 1.377 . S
C457 C455 1.389 . S
C457 C458 1.524 . S
C458 C457 1.524 . S
C458 C459 1.397 . S
C458 C463 1.363 . S
C459 H430 0.950 . S
C459 C458 1.397 . S
C459 C460 1.334 . S
C460 H431 0.950 . S
C460 C459 1.334 . S
C460 C461 1.287 . S
C461 C460 1.287 . S
C461 C462 1.524 . S
C461 H464 0.999 . S
C462 H432 0.950 . S
C462 C461 1.524 . S
C462 C463 1.415 . S
C463 H433 0.950 . S
C463 C458 1.363 . S
C463 C462 1.415 . S
H464 C461 0.999 . S
H465 C446 0.913 . S
H466 C484 0.951 . S
H467 C486 0.951 . S
H468 C488 0.950 . S
H469 C489 0.950 . S
H470 C491 0.950 . S
H471 C494 0.950 . S
H472 C495 0.950 . S
H473 C497 0.950 . S
H474 C498 0.950 . S
H475 C499 0.951 . S
H476 C501 0.951 . S
H477 C503 0.950 . S
H478 C504 0.950 . S
H479 C506 0.950 . S
H480 C509 0.950 . S
H481 C510 0.950 . S
H482 C512 0.950 . S
H483 C513 0.950 . S
C484 H466 0.951 . S
C484 C485 1.366 . S
C484 C486 1.388 . S
C485 C484 1.366 . S
C485 C489 1.385 . S
C486 H467 0.951 . S
C486 C484 1.388 . S
C486 C487 1.366 . S
C487 C486 1.366 . S
C487 C488 1.414 . S
C487 C490 1.499 . S
C488 H468 0.950 . S
C488 C487 1.414 . S
C488 C489 1.374 . S
C489 H469 0.950 . S
C489 C485 1.385 . S
C489 C488 1.374 . S
C490 C487 1.499 . S
C490 C491 1.373 . S
C490 C492 1.389 . S
C491 H470 0.950 . S
C491 C490 1.373 . S
C491 C507 1.377 . S
C492 C490 1.389 . S
C492 C493 1.524 . S
C492 C506 1.377 . S
C493 C492 1.524 . S
C493 C494 1.397 . S
C493 C498 1.363 . S
C494 H471 0.950 . S
C494 C493 1.397 . S
C494 C495 1.334 . S
C495 H472 0.950 . S
C495 C494 1.334 . S
C495 C496 1.287 . S
C496 C495 1.287 . S
C496 C497 1.524 . S
C496 H515 0.913 . S
C497 H473 0.950 . S
C497 C496 1.524 . S
C497 C498 1.415 . S
C498 H474 0.950 . S
C498 C493 1.363 . S
C498 C497 1.415 . S
C499 H475 0.951 . S
C499 C500 1.366 . S
C499 C501 1.388 . S
C500 C499 1.366 . S
C500 C504 1.385 . S
C501 H476 0.951 . S
C501 C499 1.388 . S
C501 C502 1.366 . S
C502 C501 1.366 . S
C502 C503 1.414 . S
C502 C505 1.499 . S
C503 H477 0.950 . S
C503 C502 1.414 . S
C503 C504 1.374 . S
C504 H478 0.950 . S
C504 C500 1.385 . S
C504 C503 1.374 . S
C505 C502 1.499 . S
C505 C506 1.373 . S
C505 C507 1.389 . S
C506 H479 0.950 . S
C506 C492 1.377 . S
C506 C505 1.373 . S
C507 C491 1.377 . S
C507 C505 1.389 . S
C507 C508 1.524 . S
C508 C507 1.524 . S
C508 C509 1.397 . S
C508 C513 1.363 . S
C509 H480 0.950 . S
C509 C508 1.397 . S
C509 C510 1.334 . S
C510 H481 0.950 . S
C510 C509 1.334 . S
C510 C511 1.287 . S
C511 C510 1.287 . S
C511 C512 1.524 . S
C511 H514 0.999 . S
C512 H482 0.950 . S
C512 C511 1.524 . S
C512 C513 1.415 . S
C513 H483 0.950 . S
C513 C508 1.363 . S
C513 C512 1.415 . S
H514 C511 0.999 . S
H515 C496 0.913 . S
H516 C534 0.951 . S
H517 C536 0.951 . S
H518 C538 0.950 . S
H519 C539 0.950 . S
H520 C541 0.950 . S
H521 C544 0.950 . S
H522 C545 0.950 . S
H523 C547 0.950 . S
H524 C548 0.950 . S
H525 C549 0.951 . S
H526 C551 0.951 . S
H527 C553 0.950 . S
H528 C554 0.950 . S
H529 C556 0.950 . S
H530 C559 0.950 . S
H531 C560 0.950 . S
H532 C562 0.950 . S
H533 C563 0.950 . S
C534 H516 0.951 . S
C534 C535 1.366 . S
C534 C536 1.388 . S
C535 C534 1.366 . S
C535 C539 1.385 . S
C536 H517 0.951 . S
C536 C534 1.388 . S
C536 C537 1.366 . S
C537 C536 1.366 . S
C537 C538 1.414 . S
C537 C540 1.499 . S
C538 H518 0.950 . S
C538 C537 1.414 . S
C538 C539 1.374 . S
C539 H519 0.950 . S
C539 C535 1.385 . S
C539 C538 1.374 . S
C540 C537 1.499 . S
C540 C541 1.373 . S
C540 C542 1.389 . S
C541 H520 0.950 . S
C541 C540 1.373 . S
C541 C557 1.377 . S
C542 C540 1.389 . S
C542 C543 1.524 . S
C542 C556 1.377 . S
C543 C542 1.524 . S
C543 C544 1.397 . S
C543 C548 1.363 . S
C544 H521 0.950 . S
C544 C543 1.397 . S
C544 C545 1.334 . S
C545 H522 0.950 . S
C545 C544 1.334 . S
C545 C546 1.287 . S
C546 C545 1.287 . S
C546 C547 1.524 . S
C546 H565 0.913 . S
C547 H523 0.950 . S
C547 C546 1.524 . S
C547 C548 1.415 . S
C548 H524 0.950 . S
C548 C543 1.363 . S
C548 C547 1.415 . S
C549 H525 0.951 . S
C549 C550 1.366 . S
C549 C551 1.388 . S
C550 C549 1.366 . S
C550 C554 1.385 . S
C551 H526 0.951 . S
C551 C549 1.388 . S
C551 C552 1.366 . S
C552 C551 1.366 . S
C552 C553 1.414 . S
C552 C555 1.499 . S
C553 H527 0.950 . S
C553 C552 1.414 . S
C553 C554 1.374 . S
C554 H528 0.950 . S
C554 C550 1.385 . S
C554 C553 1.374 . S
C555 C552 1.499 . S
C555 C556 1.373 . S
C555 C557 1.389 . S
C556 H529 0.950 . S
C556 C542 1.377 . S
C556 C555 1.373 . S
C557 C541 1.377 . S
C557 C555 1.389 . S
C557 C558 1.524 . S
C558 C557 1.524 . S
C558 C559 1.397 . S
C558 C563 1.363 . S
C559 H530 0.950 . S
C559 C558 1.397 . S
C559 C560 1.334 . S
C560 H531 0.950 . S
C560 C559 1.334 . S
C560 C561 1.287 . S
C561 C560 1.287 . S
C561 C562 1.524 . S
C561 H564 0.999 . S
C562 H532 0.950 . S
C562 C561 1.524 . S
C562 C563 1.415 . S
C563 H533 0.950 . S
C563 C558 1.363 . S
C563 C562 1.415 . S
H564 C561 0.999 . S
H565 C546 0.913 . S
H566 C584 0.951 . S
H567 C586 0.951 . S
H568 C588 0.950 . S
H569 C589 0.950 . S
H570 C591 0.950 . S
H571 C594 0.950 . S
H572 C595 0.950 . S
H573 C597 0.950 . S
H574 C598 0.950 . S
H575 C599 0.951 . S
H576 C601 0.951 . S
H577 C603 0.950 . S
H578 C604 0.950 . S
H579 C606 0.950 . S
H580 C609 0.950 . S
H581 C610 0.950 . S
H582 C612 0.950 . S
H583 C613 0.950 . S
C584 H566 0.951 . S
C584 C585 1.366 . S
C584 C586 1.388 . S
C585 C584 1.366 . S
C585 C589 1.385 . S
C586 H567 0.951 . S
C586 C584 1.388 . S
C586 C587 1.366 . S
C587 C586 1.366 . S
C587 C588 1.414 . S
C587 C590 1.499 . S
C588 H568 0.950 . S
C588 C587 1.414 . S
C588 C589 1.374 . S
C589 H569 0.950 . S
C589 C585 1.385 . S
C589 C588 1.374 . S
C590 C587 1.499 . S
C590 C591 1.373 . S
C590 C592 1.389 . S
C591 H570 0.950 . S
C591 C590 1.373 . S
C591 C607 1.377 . S
C592 C590 1.389 . S
C592 C593 1.524 . S
C592 C606 1.377 . S
C593 C592 1.524 . S
C593 C594 1.397 . S
C593 C598 1.363 . S
C594 H571 0.950 . S
C594 C593 1.397 . S
C594 C595 1.334 . S
C595 H572 0.950 . S
C595 C594 1.334 . S
C595 C596 1.287 . S
C596 C595 1.287 . S
C596 C597 1.524 . S
C596 H615 0.913 . S
C597 H573 0.950 . S
C597 C596 1.524 . S
C597 C598 1.415 . S
C598 H574 0.950 . S
C598 C593 1.363 . S
C598 C597 1.415 . S
C599 H575 0.951 . S
C599 C600 1.366 . S
C599 C601 1.388 . S
C600 C599 1.366 . S
C600 C604 1.385 . S
C601 H576 0.951 . S
C601 C599 1.388 . S
C601 C602 1.366 . S
C602 C601 1.366 . S
C602 C603 1.414 . S
C602 C605 1.499 . S
C603 H577 0.950 . S
C603 C602 1.414 . S
C603 C604 1.374 . S
C604 H578 0.950 . S
C604 C600 1.385 . S
C604 C603 1.374 . S
C605 C602 1.499 . S
C605 C606 1.373 . S
C605 C607 1.389 . S
C606 H579 0.950 . S
C606 C592 1.377 . S
C606 C605 1.373 . S
C607 C591 1.377 . S
C607 C605 1.389 . S
C607 C608 1.524 . S
C608 C607 1.524 . S
C608 C609 1.397 . S
C608 C613 1.363 . S
C609 H580 0.950 . S
C609 C608 1.397 . S
C609 C610 1.334 . S
C610 H581 0.950 . S
C610 C609 1.334 . S
C610 C611 1.287 . S
C611 C610 1.287 . S
C611 C612 1.524 . S
C611 H614 0.999 . S
C612 H582 0.950 . S
C612 C611 1.524 . S
C612 C613 1.415 . S
C613 H583 0.950 . S
C613 C608 1.363 . S
C613 C612 1.415 . S
H614 C611 0.999 . S
H615 C596 0.913 . S
H616 C634 0.951 . S
H617 C636 0.951 . S
H618 C638 0.950 . S
H619 C639 0.950 . S
H620 C641 0.950 . S
H621 C644 0.950 . S
H622 C645 0.950 . S
H623 C647 0.950 . S
H624 C648 0.950 . S
H625 C649 0.951 . S
H626 C651 0.951 . S
H627 C653 0.950 . S
H628 C654 0.950 . S
H629 C656 0.950 . S
H630 C659 0.950 . S
H631 C660 0.950 . S
H632 C662 0.950 . S
H633 C663 0.950 . S
C634 H616 0.951 . S
C634 C635 1.366 . S
C634 C636 1.388 1_565 S
C635 C634 1.366 . S
C635 C639 1.385 . S
C636 H617 0.951 . S
C636 C634 1.388 1_545 S
C636 C637 1.366 . S
C637 C636 1.366 . S
C637 C638 1.414 . S
C637 C640 1.499 . S
C638 H618 0.950 . S
C638 C637 1.414 . S
C638 C639 1.374 1_545 S
C639 H619 0.950 . S
C639 C635 1.385 . S
C639 C638 1.374 1_565 S
C640 C637 1.499 . S
C640 C641 1.373 . S
C640 C642 1.389 . S
C641 H620 0.950 . S
C641 C640 1.373 . S
C641 C657 1.377 . S
C642 C640 1.389 . S
C642 C643 1.524 . S
C642 C656 1.377 . S
C643 C642 1.524 . S
C643 C644 1.397 . S
C643 C648 1.363 . S
C644 H621 0.950 . S
C644 C643 1.397 . S
C644 C645 1.334 . S
C645 H622 0.950 . S
C645 C644 1.334 . S
C645 C646 1.287 . S
C646 C645 1.287 . S
C646 C647 1.524 . S
C646 H665 0.913 . S
C647 H623 0.950 . S
C647 C646 1.524 . S
C647 C648 1.415 . S
C648 H624 0.950 . S
C648 C643 1.363 . S
C648 C647 1.415 . S
C649 H625 0.951 . S
C649 C650 1.366 . S
C649 C651 1.388 . S
C650 C649 1.366 . S
C650 C654 1.385 . S
C651 H626 0.951 . S
C651 C649 1.388 . S
C651 C652 1.366 . S
C652 C651 1.366 . S
C652 C653 1.414 . S
C652 C655 1.499 . S
C653 H627 0.950 . S
C653 C652 1.414 . S
C653 C654 1.374 . S
C654 H628 0.950 . S
C654 C650 1.385 . S
C654 C653 1.374 . S
C655 C652 1.499 . S
C655 C656 1.373 . S
C655 C657 1.389 . S
C656 H629 0.950 . S
C656 C642 1.377 . S
C656 C655 1.373 . S
C657 C641 1.377 . S
C657 C655 1.389 . S
C657 C658 1.524 . S
C658 C657 1.524 . S
C658 C659 1.397 . S
C658 C663 1.363 . S
C659 H630 0.950 . S
C659 C658 1.397 . S
C659 C660 1.334 . S
C660 H631 0.950 . S
C660 C659 1.334 . S
C660 C661 1.287 . S
C661 C660 1.287 . S
C661 C662 1.524 . S
C661 H664 0.999 . S
C662 H632 0.950 . S
C662 C661 1.524 . S
C662 C663 1.415 . S
C663 H633 0.950 . S
C663 C658 1.363 . S
C663 C662 1.415 . S
H664 C661 0.999 . S
H665 C646 0.913 . S
H666 C684 0.951 . S
H667 C686 0.951 . S
H668 C688 0.950 . S
H669 C689 0.950 . S
H670 C691 0.950 . S
H671 C694 0.950 . S
H672 C695 0.950 . S
H673 C697 0.950 . S
H674 C698 0.950 . S
H675 C699 0.951 . S
H676 C701 0.951 . S
H677 C703 0.950 . S
H678 C704 0.950 . S
H679 C706 0.950 . S
H680 C709 0.950 . S
H681 C710 0.950 . S
H682 C712 0.950 . S
H683 C713 0.950 . S
C684 H666 0.951 . S
C684 C685 1.366 . S
C684 C686 1.388 1_565 S
C685 C684 1.366 . S
C685 C689 1.385 . S
C686 H667 0.951 . S
C686 C684 1.388 1_545 S
C686 C687 1.366 . S
C687 C686 1.366 . S
C687 C688 1.414 . S
C687 C690 1.499 . S
C688 H668 0.950 . S
C688 C687 1.414 . S
C688 C689 1.374 1_545 S
C689 H669 0.950 . S
C689 C685 1.385 . S
C689 C688 1.374 1_565 S
C690 C687 1.499 . S
C690 C691 1.373 . S
C690 C692 1.389 . S
C691 H670 0.950 . S
C691 C690 1.373 . S
C691 C707 1.377 . S
C692 C690 1.389 . S
C692 C693 1.524 . S
C692 C706 1.377 . S
C693 C692 1.524 . S
C693 C694 1.397 . S
C693 C698 1.363 . S
C694 H671 0.950 . S
C694 C693 1.397 . S
C694 C695 1.334 . S
C695 H672 0.950 . S
C695 C694 1.334 . S
C695 C696 1.287 . S
C696 C695 1.287 . S
C696 C697 1.524 . S
C696 H715 0.913 . S
C697 H673 0.950 . S
C697 C696 1.524 . S
C697 C698 1.415 . S
C698 H674 0.950 . S
C698 C693 1.363 . S
C698 C697 1.415 . S
C699 H675 0.951 . S
C699 C700 1.366 . S
C699 C701 1.388 . S
C700 C699 1.366 . S
C700 C704 1.385 . S
C701 H676 0.951 . S
C701 C699 1.388 . S
C701 C702 1.366 . S
C702 C701 1.366 . S
C702 C703 1.414 . S
C702 C705 1.499 . S
C703 H677 0.950 . S
C703 C702 1.414 . S
C703 C704 1.374 . S
C704 H678 0.950 . S
C704 C700 1.385 . S
C704 C703 1.374 . S
C705 C702 1.499 . S
C705 C706 1.373 . S
C705 C707 1.389 . S
C706 H679 0.950 . S
C706 C692 1.377 . S
C706 C705 1.373 . S
C707 C691 1.377 . S
C707 C705 1.389 . S
C707 C708 1.524 . S
C708 C707 1.524 . S
C708 C709 1.397 . S
C708 C713 1.363 . S
C709 H680 0.950 . S
C709 C708 1.397 . S
C709 C710 1.334 . S
C710 H681 0.950 . S
C710 C709 1.334 . S
C710 C711 1.287 . S
C711 C710 1.287 . S
C711 C712 1.524 . S
C711 H714 0.999 . S
C712 H682 0.950 . S
C712 C711 1.524 . S
C712 C713 1.415 . S
C713 H683 0.950 . S
C713 C708 1.363 . S
C713 C712 1.415 . S
H714 C711 0.999 . S
H715 C696 0.913 . S
H716 C734 0.951 . S
H717 C736 0.951 . S
H718 C738 0.950 . S
H719 C739 0.950 . S
H720 C741 0.950 . S
H721 C744 0.950 . S
H722 C745 0.950 . S
H723 C747 1.058 . S
H724 C748 0.950 . S
H725 C749 0.951 . S
H726 C751 0.951 . S
H727 C753 0.950 . S
H728 C754 0.950 . S
H729 C756 0.950 . S
H730 C759 0.950 . S
H731 C760 0.950 . S
H732 C762 0.950 . S
H733 C763 0.950 . S
C734 H716 0.951 . S
C734 C735 1.366 . S
C734 C736 1.388 1_545 S
C735 C734 1.366 . S
C735 C739 1.385 . S
C736 H717 0.951 . S
C736 C734 1.388 1_565 S
C736 C737 1.366 . S
C737 C736 1.366 . S
C737 C738 1.414 . S
C737 C740 1.499 . S
C738 H718 0.950 . S
C738 C737 1.414 . S
C738 C739 1.374 1_565 S
C739 H719 0.950 . S
C739 C735 1.385 . S
C739 C738 1.374 1_545 S
C740 C737 1.499 . S
C740 C741 1.373 . S
C740 C742 1.389 . S
C741 H720 0.950 . S
C741 C740 1.373 . S
C741 C757 1.377 . S
C742 C740 1.389 . S
C742 C743 1.524 . S
C742 C756 1.377 . S
C743 C742 1.524 . S
C743 C744 1.397 . S
C743 C748 1.363 . S
C744 H721 0.950 . S
C744 C743 1.397 . S
C744 C745 1.334 . S
C745 H722 0.950 . S
C745 C744 1.334 . S
C745 C746 1.287 . S
C746 C745 1.287 . S
C746 C747 1.524 . S
C746 H765 0.913 . S
C747 H723 1.058 . S
C747 C746 1.524 . S
C747 C748 1.415 . S
C748 H724 0.950 . S
C748 C743 1.363 . S
C748 C747 1.415 . S
C749 H725 0.951 . S
C749 C750 1.366 . S
C749 C751 1.388 . S
C750 C749 1.366 . S
C750 C754 1.385 . S
C751 H726 0.951 . S
C751 C749 1.388 . S
C751 C752 1.366 . S
C752 C751 1.366 . S
C752 C753 1.414 . S
C752 C755 1.499 . S
C753 H727 0.950 . S
C753 C752 1.414 . S
C753 C754 1.374 . S
C754 H728 0.950 . S
C754 C750 1.385 . S
C754 C753 1.374 . S
C755 C752 1.499 . S
C755 C756 1.373 . S
C755 C757 1.389 . S
C756 H729 0.950 . S
C756 C742 1.377 . S
C756 C755 1.373 . S
C757 C741 1.377 . S
C757 C755 1.389 . S
C757 C758 1.524 . S
C758 C757 1.524 . S
C758 C759 1.397 . S
C758 C763 1.363 . S
C759 H730 0.950 . S
C759 C758 1.397 . S
C759 C760 1.334 . S
C760 H731 0.950 . S
C760 C759 1.334 . S
C760 C761 1.287 . S
C761 C760 1.287 . S
C761 C762 1.524 . S
C761 H764 0.999 . S
C762 H732 0.950 . S
C762 C761 1.524 . S
C762 C763 1.415 . S
C763 H733 0.950 . S
C763 C758 1.363 . S
C763 C762 1.415 . S
H764 C761 0.999 . S
H765 C746 0.913 . S
H766 C784 0.951 . S
H767 C786 0.951 . S
H768 C788 0.950 . S
H769 C789 0.950 . S
H770 C791 0.950 . S
H771 C794 0.950 . S
H772 C795 0.950 . S
H773 C797 0.950 . S
H774 C798 0.950 . S
H775 C799 0.951 . S
H776 C801 0.951 . S
H777 C803 0.950 . S
H778 C804 0.950 . S
H779 C806 0.950 . S
H780 C809 0.950 . S
H781 C810 0.950 . S
H782 C812 0.950 . S
H783 C813 0.950 . S
C784 H766 0.951 . S
C784 C785 1.366 . S
C784 C786 1.388 . S
C785 C784 1.366 . S
C785 C789 1.385 . S
C786 H767 0.951 . S
C786 C784 1.388 . S
C786 C787 1.366 . S
C787 C786 1.366 . S
C787 C788 1.414 . S
C787 C790 1.499 . S
C788 H768 0.950 . S
C788 C787 1.414 . S
C788 C789 1.374 . S
C789 H769 0.950 . S
C789 C785 1.385 . S
C789 C788 1.374 . S
C790 C787 1.499 . S
C790 C791 1.373 . S
C790 C792 1.389 . S
C791 H770 0.950 . S
C791 C790 1.373 . S
C791 C807 1.377 . S
C792 C790 1.389 . S
C792 C793 1.524 . S
C792 C806 1.377 . S
C793 C792 1.524 . S
C793 C794 1.397 . S
C793 C798 1.363 . S
C794 H771 0.950 . S
C794 C793 1.397 . S
C794 C795 1.334 . S
C795 H772 0.950 . S
C795 C794 1.334 . S
C795 C796 1.287 . S
C796 C795 1.287 . S
C796 C797 1.524 . S
C796 H815 0.913 . S
C797 H773 0.950 . S
C797 C796 1.524 . S
C797 C798 1.415 . S
C798 H774 0.950 . S
C798 C793 1.363 . S
C798 C797 1.415 . S
C799 H775 0.951 . S
C799 C800 1.366 . S
C799 C801 1.388 1_545 S
C800 C799 1.366 . S
C800 C804 1.385 . S
C801 H776 0.951 . S
C801 C799 1.388 1_565 S
C801 C802 1.366 . S
C802 C801 1.366 . S
C802 C803 1.414 . S
C802 C805 1.499 . S
C803 H777 0.950 . S
C803 C802 1.414 . S
C803 C804 1.374 1_565 S
C804 H778 0.950 . S
C804 C800 1.385 . S
C804 C803 1.374 1_545 S
C805 C802 1.499 . S
C805 C806 1.373 . S
C805 C807 1.389 . S
C806 H779 0.950 . S
C806 C792 1.377 . S
C806 C805 1.373 . S
C807 C791 1.377 . S
C807 C805 1.389 . S
C807 C808 1.524 . S
C808 C807 1.524 . S
C808 C809 1.397 . S
C808 C813 1.363 . S
C809 H780 0.950 . S
C809 C808 1.397 . S
C809 C810 1.334 . S
C810 H781 0.950 . S
C810 C809 1.334 . S
C810 C811 1.287 . S
C811 C810 1.287 . S
C811 C812 1.524 . S
C811 H814 0.999 . S
C812 H782 0.950 . S
C812 C811 1.524 . S
C812 C813 1.415 . S
C813 H783 0.950 . S
C813 C808 1.363 . S
C813 C812 1.415 . S
H814 C811 0.999 . S
H815 C796 0.913 . S
H816 C834 0.951 . S
H817 C836 0.951 . S
H818 C838 0.950 . S
H819 C839 0.950 . S
H820 C841 0.950 . S
H821 C844 0.950 . S
H822 C845 0.950 . S
H823 C847 0.950 . S
H824 C848 0.950 . S
H825 C849 0.951 . S
H826 C851 0.951 . S
H827 C853 0.950 . S
H828 C854 0.950 . S
H829 C856 0.950 . S
H830 C859 0.950 . S
H831 C860 0.950 . S
H832 C862 0.950 . S
H833 C863 0.950 . S
C834 H816 0.951 . S
C834 C835 1.366 . S
C834 C836 1.388 . S
C835 C834 1.366 . S
C835 C839 1.385 . S
C836 H817 0.951 . S
C836 C834 1.388 . S
C836 C837 1.366 . S
C837 C836 1.366 . S
C837 C838 1.414 . S
C837 C840 1.499 . S
C838 H818 0.950 . S
C838 C837 1.414 . S
C838 C839 1.374 . S
C839 H819 0.950 . S
C839 C835 1.385 . S
C839 C838 1.374 . S
C840 C837 1.499 . S
C840 C841 1.373 . S
C840 C842 1.389 . S
C841 H820 0.950 . S
C841 C840 1.373 . S
C841 C857 1.377 . S
C842 C840 1.389 . S
C842 C843 1.524 . S
C842 C856 1.377 . S
C843 C842 1.524 . S
C843 C844 1.397 . S
C843 C848 1.363 . S
C844 H821 0.950 . S
C844 C843 1.397 . S
C844 C845 1.334 . S
C845 H822 0.950 . S
C845 C844 1.334 . S
C845 C846 1.287 . S
C846 C845 1.287 . S
C846 C847 1.524 . S
C846 H865 0.913 . S
C847 H823 0.950 . S
C847 C846 1.524 . S
C847 C848 1.415 . S
C848 H824 0.950 . S
C848 C843 1.363 . S
C848 C847 1.415 . S
C849 H825 0.951 . S
C849 C850 1.366 . S
C849 C851 1.388 . S
C850 C849 1.366 . S
C850 C854 1.385 . S
C851 H826 0.951 . S
C851 C849 1.388 . S
C851 C852 1.366 . S
C852 C851 1.366 . S
C852 C853 1.414 . S
C852 C855 1.499 . S
C853 H827 0.950 . S
C853 C852 1.414 . S
C853 C854 1.374 . S
C854 H828 0.950 . S
C854 C850 1.385 . S
C854 C853 1.374 . S
C855 C852 1.499 . S
C855 C856 1.373 . S
C855 C857 1.389 . S
C856 H829 0.950 . S
C856 C842 1.377 . S
C856 C855 1.373 . S
C857 C841 1.377 . S
C857 C855 1.389 . S
C857 C858 1.524 . S
C858 C857 1.524 . S
C858 C859 1.397 . S
C858 C863 1.363 . S
C859 H830 0.950 . S
C859 C858 1.397 . S
C859 C860 1.334 . S
C860 H831 0.950 . S
C860 C859 1.334 . S
C860 C861 1.287 . S
C861 C860 1.287 . S
C861 C862 1.524 . S
C861 H864 0.999 . S
C862 H832 0.950 . S
C862 C861 1.524 . S
C862 C863 1.415 . S
C863 H833 0.950 . S
C863 C858 1.363 . S
C863 C862 1.415 . S
H864 C861 0.999 . S
H865 C846 0.913 . S
H866 C884 0.951 . S
H867 C886 0.951 . S
H868 C888 0.950 . S
H869 C889 0.950 . S
H870 C891 0.950 . S
H871 C894 0.950 . S
H872 C895 0.950 . S
H873 C897 0.950 . S
H874 C898 0.950 . S
H875 C899 0.951 . S
H876 C901 0.951 . S
H877 C903 0.950 . S
H878 C904 0.950 . S
H879 C906 0.950 . S
H880 C909 0.950 . S
H881 C910 0.950 . S
H882 C912 0.950 . S
H883 C913 0.950 . S
C884 H866 0.951 . S
C884 C885 1.366 . S
C884 C886 1.388 . S
C885 C884 1.366 . S
C885 C889 1.385 . S
C886 H867 0.951 . S
C886 C884 1.388 . S
C886 C887 1.366 . S
C887 C886 1.366 . S
C887 C888 1.414 . S
C887 C890 1.499 . S
C888 H868 0.950 . S
C888 C887 1.414 . S
C888 C889 1.374 . S
C889 H869 0.950 . S
C889 C885 1.385 . S
C889 C888 1.374 . S
C890 C887 1.499 . S
C890 C891 1.373 . S
C890 C892 1.389 . S
C891 H870 0.950 . S
C891 C890 1.373 . S
C891 C907 1.377 . S
C892 C890 1.389 . S
C892 C893 1.524 . S
C892 C906 1.377 . S
C893 C892 1.524 . S
C893 C894 1.397 . S
C893 C898 1.363 . S
C894 H871 0.950 . S
C894 C893 1.397 . S
C894 C895 1.334 . S
C895 H872 0.950 . S
C895 C894 1.334 . S
C895 C896 1.287 . S
C896 C895 1.287 . S
C896 C897 1.524 . S
C896 H915 0.913 . S
C897 H873 0.950 . S
C897 C896 1.524 . S
C897 C898 1.415 . S
C898 H874 0.950 . S
C898 C893 1.363 . S
C898 C897 1.415 . S
C899 H875 0.951 . S
C899 C900 1.366 . S
C899 C901 1.388 . S
C900 C899 1.366 . S
C900 C904 1.385 . S
C901 H876 0.951 . S
C901 C899 1.388 . S
C901 C902 1.366 . S
C902 C901 1.366 . S
C902 C903 1.414 . S
C902 C905 1.499 . S
C903 H877 0.950 . S
C903 C902 1.414 . S
C903 C904 1.374 . S
C904 H878 0.950 . S
C904 C900 1.385 . S
C904 C903 1.374 . S
C905 C902 1.499 . S
C905 C906 1.373 . S
C905 C907 1.389 . S
C906 H879 0.950 . S
C906 C892 1.377 . S
C906 C905 1.373 . S
C907 C891 1.377 . S
C907 C905 1.389 . S
C907 C908 1.524 . S
C908 C907 1.524 . S
C908 C909 1.397 . S
C908 C913 1.363 . S
C909 H880 0.950 . S
C909 C908 1.397 . S
C909 C910 1.334 . S
C910 H881 0.950 . S
C910 C909 1.334 . S
C910 C911 1.287 . S
C911 C910 1.287 . S
C911 C912 1.524 . S
C911 H914 0.999 . S
C912 H882 0.950 . S
C912 C911 1.524 . S
C912 C913 1.415 . S
C913 H883 0.950 . S
C913 C908 1.363 . S
C913 C912 1.415 . S
H914 C911 0.999 . S
H915 C896 0.913 . S
H916 C934 0.951 . S
H917 C936 0.951 . S
H918 C938 0.950 . S
H919 C939 0.950 . S
H920 C941 0.950 . S
H921 C944 0.950 . S
H922 C945 0.950 . S
H923 C947 0.950 . S
H924 C948 0.950 . S
H925 C949 0.951 . S
H926 C951 0.951 . S
H927 C953 0.950 . S
H928 C954 0.950 . S
H929 C956 0.950 . S
H930 C959 0.950 . S
H931 C960 0.950 . S
H932 C962 0.950 . S
H933 C963 0.950 . S
C934 H916 0.951 . S
C934 C935 1.366 . S
C934 C936 1.388 . S
C935 C934 1.366 . S
C935 C939 1.385 . S
C936 H917 0.951 . S
C936 C934 1.388 . S
C936 C937 1.366 . S
C937 C936 1.366 . S
C937 C938 1.414 . S
C937 C940 1.499 . S
C938 H918 0.950 . S
C938 C937 1.414 . S
C938 C939 1.374 . S
C939 H919 0.950 . S
C939 C935 1.385 . S
C939 C938 1.374 . S
C940 C937 1.499 . S
C940 C941 1.373 . S
C940 C942 1.389 . S
C941 H920 0.950 . S
C941 C940 1.373 . S
C941 C957 1.377 . S
C942 C940 1.389 . S
C942 C943 1.524 . S
C942 C956 1.377 . S
C943 C942 1.524 . S
C943 C944 1.397 . S
C943 C948 1.363 . S
C944 H921 0.950 . S
C944 C943 1.397 . S
C944 C945 1.334 . S
C945 H922 0.950 . S
C945 C944 1.334 . S
C945 C946 1.287 . S
C946 C945 1.287 . S
C946 C947 1.524 . S
C946 H965 0.913 . S
C947 H923 0.950 . S
C947 C946 1.524 . S
C947 C948 1.415 . S
C948 H924 0.950 . S
C948 C943 1.363 . S
C948 C947 1.415 . S
C949 H925 0.951 . S
C949 C950 1.366 . S
C949 C951 1.388 . S
C950 C949 1.366 . S
C950 C954 1.385 . S
C951 H926 0.951 . S
C951 C949 1.388 . S
C951 C952 1.366 . S
C952 C951 1.366 . S
C952 C953 1.414 . S
C952 C955 1.499 . S
C953 H927 0.950 . S
C953 C952 1.414 . S
C953 C954 1.374 . S
C954 H928 0.950 . S
C954 C950 1.385 . S
C954 C953 1.374 . S
C955 C952 1.499 . S
C955 C956 1.373 . S
C955 C957 1.389 . S
C956 H929 0.950 . S
C956 C942 1.377 . S
C956 C955 1.373 . S
C957 C941 1.377 . S
C957 C955 1.389 . S
C957 C958 1.524 . S
C958 C957 1.524 . S
C958 C959 1.397 . S
C958 C963 1.363 . S
C959 H930 0.950 . S
C959 C958 1.397 . S
C959 C960 1.334 . S
C960 H931 0.950 . S
C960 C959 1.334 . S
C960 C961 1.287 . S
C961 C960 1.287 . S
C961 C962 1.524 . S
C961 H964 0.999 . S
C962 H932 0.950 . S
C962 C961 1.524 . S
C962 C963 1.415 . S
C963 H933 0.950 . S
C963 C958 1.363 . S
C963 C962 1.415 . S
H964 C961 0.999 . S
H965 C946 0.913 . S
H966 C984 0.951 . S
H967 C986 0.951 . S
H968 C988 0.950 . S
H969 C989 0.950 . S
H970 C991 0.950 . S
H971 C994 0.950 . S
H972 C995 0.950 . S
H973 C997 0.950 . S
H974 C998 0.950 . S
H975 C999 0.951 . S
H976 C1001 0.951 . S
H977 C1003 0.950 . S
H978 C1004 0.950 . S
H979 C1006 0.950 . S
H980 C1009 0.950 . S
H981 C1010 0.950 . S
H982 C1012 0.950 . S
H983 C1013 0.950 . S
C984 H966 0.951 . S
C984 C985 1.366 . S
C984 C986 1.388 . S
C985 C984 1.366 . S
C985 C989 1.385 . S
C986 H967 0.951 . S
C986 C984 1.388 . S
C986 C987 1.366 . S
C987 C986 1.366 . S
C987 C988 1.414 . S
C987 C990 1.499 . S
C988 H968 0.950 . S
C988 C987 1.414 . S
C988 C989 1.374 . S
C989 H969 0.950 . S
C989 C985 1.385 . S
C989 C988 1.374 . S
C990 C987 1.499 . S
C990 C991 1.373 . S
C990 C992 1.389 . S
C991 H970 0.950 . S
C991 C990 1.373 . S
C991 C1007 1.377 . S
C992 C990 1.389 . S
C992 C993 1.524 . S
C992 C1006 1.377 . S
C993 C992 1.524 . S
C993 C994 1.397 . S
C993 C998 1.363 . S
C994 H971 0.950 . S
C994 C993 1.397 . S
C994 C995 1.334 . S
C995 H972 0.950 . S
C995 C994 1.334 . S
C995 C996 1.287 . S
C996 C995 1.287 . S
C996 C997 1.524 . S
C996 H1015 0.913 . S
C997 H973 0.950 . S
C997 C996 1.524 . S
C997 C998 1.415 . S
C998 H974 0.950 . S
C998 C993 1.363 . S
C998 C997 1.415 . S
C999 H975 0.951 . S
C999 C1000 1.366 . S
C999 C1001 1.388 . S
C1000 C999 1.366 . S
C1000 C1004 1.385 . S
C1001 H976 0.951 . S
C1001 C999 1.388 . S
C1001 C1002 1.366 . S
C1002 C1001 1.366 . S
C1002 C1003 1.414 . S
C1002 C1005 1.499 . S
C1003 H977 0.950 . S
C1003 C1002 1.414 . S
C1003 C1004 1.374 . S
C1004 H978 0.950 . S
C1004 C1000 1.385 . S
C1004 C1003 1.374 . S
C1005 C1002 1.499 . S
C1005 C1006 1.373 . S
C1005 C1007 1.389 . S
C1006 H979 0.950 . S
C1006 C992 1.377 . S
C1006 C1005 1.373 . S
C1007 C991 1.377 . S
C1007 C1005 1.389 . S
C1007 C1008 1.524 . S
C1008 C1007 1.524 . S
C1008 C1009 1.397 . S
C1008 C1013 1.363 . S
C1009 H980 0.950 . S
C1009 C1008 1.397 . S
C1009 C1010 1.334 . S
C1010 H981 0.950 . S
C1010 C1009 1.334 . S
C1010 C1011 1.287 . S
C1011 C1010 1.287 . S
C1011 C1012 1.524 . S
C1011 H1014 0.999 . S
C1012 H982 0.950 . S
C1012 C1011 1.524 . S
C1012 C1013 1.415 . S
C1013 H983 0.950 . S
C1013 C1008 1.363 . S
C1013 C1012 1.415 . S
H1014 C1011 0.999 . S
H1015 C996 0.913 . S
H1016 C1034 0.951 . S
H1017 C1036 0.951 . S
H1018 C1038 0.950 . S
H1019 C1039 0.950 . S
H1020 C1041 0.950 . S
H1021 C1044 0.950 . S
H1022 C1045 0.950 . S
H1023 C1047 0.950 . S
H1024 C1048 0.950 . S
H1025 C1049 0.951 . S
H1026 C1051 0.951 . S
H1027 C1053 0.950 . S
H1028 C1054 0.950 . S
H1029 C1056 0.950 . S
H1030 C1059 0.950 . S
H1031 C1060 0.950 . S
H1032 C1062 0.950 . S
H1033 C1063 0.950 . S
C1034 H1016 0.951 . S
C1034 C1035 1.366 . S
C1034 C1036 1.388 . S
C1035 C1034 1.366 . S
C1035 C1039 1.385 . S
C1036 H1017 0.951 . S
C1036 C1034 1.388 . S
C1036 C1037 1.366 . S
C1037 C1036 1.366 . S
C1037 C1038 1.414 . S
C1037 C1040 1.499 . S
C1038 H1018 0.950 . S
C1038 C1037 1.414 . S
C1038 C1039 1.374 . S
C1039 H1019 0.950 . S
C1039 C1035 1.385 . S
C1039 C1038 1.374 . S
C1040 C1037 1.499 . S
C1040 C1041 1.373 . S
C1040 C1042 1.389 . S
C1041 H1020 0.950 . S
C1041 C1040 1.373 . S
C1041 C1057 1.377 . S
C1042 C1040 1.389 . S
C1042 C1043 1.524 . S
C1042 C1056 1.377 . S
C1043 C1042 1.524 . S
C1043 C1044 1.397 . S
C1043 C1048 1.363 . S
C1044 H1021 0.950 . S
C1044 C1043 1.397 . S
C1044 C1045 1.334 . S
C1045 H1022 0.950 . S
C1045 C1044 1.334 . S
C1045 C1046 1.287 . S
C1046 C1045 1.287 . S
C1046 C1047 1.524 . S
C1046 H1065 0.913 . S
C1047 H1023 0.950 . S
C1047 C1046 1.524 . S
C1047 C1048 1.415 . S
C1048 H1024 0.950 . S
C1048 C1043 1.363 . S
C1048 C1047 1.415 . S
C1049 H1025 0.951 . S
C1049 C1050 1.366 . S
C1049 C1051 1.388 1_565 S
C1050 C1049 1.366 . S
C1050 C1054 1.385 . S
C1051 H1026 0.951 . S
C1051 C1049 1.388 1_545 S
C1051 C1052 1.366 . S
C1052 C1051 1.366 . S
C1052 C1053 1.414 . S
C1052 C1055 1.499 . S
C1053 H1027 0.950 . S
C1053 C1052 1.414 . S
C1053 C1054 1.374 1_545 S
C1054 H1028 0.950 . S
C1054 C1050 1.385 . S
C1054 C1053 1.374 1_565 S
C1055 C1052 1.499 . S
C1055 C1056 1.373 . S
C1055 C1057 1.389 . S
C1056 H1029 0.950 . S
C1056 C1042 1.377 . S
C1056 C1055 1.373 . S
C1057 C1041 1.377 . S
C1057 C1055 1.389 . S
C1057 C1058 1.524 . S
C1058 C1057 1.524 . S
C1058 C1059 1.397 . S
C1058 C1063 1.363 . S
C1059 H1030 0.950 . S
C1059 C1058 1.397 . S
C1059 C1060 1.334 . S
C1060 H1031 0.950 . S
C1060 C1059 1.334 . S
C1060 C1061 1.287 . S
C1061 C1060 1.287 . S
C1061 C1062 1.524 . S
C1061 H1064 0.999 . S
C1062 H1032 0.950 . S
C1062 C1061 1.524 . S
C1062 C1063 1.415 . S
C1063 H1033 0.950 . S
C1063 C1058 1.363 . S
C1063 C1062 1.415 . S
H1064 C1061 0.999 . S
H1065 C1046 0.913 . S
H1066 C1084 0.951 . S
H1067 C1086 0.951 . S
H1068 C1088 0.950 . S
H1069 C1089 0.950 . S
H1070 C1091 0.950 . S
H1071 C1094 0.950 . S
H1072 C1095 0.950 . S
H1073 C1097 0.950 . S
H1074 C1098 0.950 . S
H1075 C1099 0.951 . S
H1076 C1101 0.951 . S
H1077 C1103 0.950 . S
H1078 C1104 0.950 . S
H1079 C1106 0.950 . S
H1080 C1109 0.950 . S
H1081 C1110 0.950 . S
H1082 C1112 0.950 . S
H1083 C1113 0.950 . S
C1084 H1066 0.951 . S
C1084 C1085 1.366 . S
C1084 C1086 1.388 1_565 S
C1085 C1084 1.366 . S
C1085 C1089 1.385 . S
C1086 H1067 0.951 . S
C1086 C1084 1.388 1_545 S
C1086 C1087 1.366 . S
C1087 C1086 1.366 . S
C1087 C1088 1.414 . S
C1087 C1090 1.499 . S
C1088 H1068 0.950 . S
C1088 C1087 1.414 . S
C1088 C1089 1.374 1_545 S
C1089 H1069 0.950 . S
C1089 C1085 1.385 . S
C1089 C1088 1.374 1_565 S
C1090 C1087 1.499 . S
C1090 C1091 1.373 . S
C1090 C1092 1.389 . S
C1091 H1070 0.950 . S
C1091 C1090 1.373 . S
C1091 C1107 1.377 . S
C1092 C1090 1.389 . S
C1092 C1093 1.524 . S
C1092 C1106 1.377 . S
C1093 C1092 1.524 . S
C1093 C1094 1.397 . S
C1093 C1098 1.363 . S
C1094 H1071 0.950 . S
C1094 C1093 1.397 . S
C1094 C1095 1.334 . S
C1095 H1072 0.950 . S
C1095 C1094 1.334 . S
C1095 C1096 1.287 . S
C1096 C1095 1.287 . S
C1096 C1097 1.524 . S
C1096 H1115 0.913 . S
C1097 H1073 0.950 . S
C1097 C1096 1.524 . S
C1097 C1098 1.415 . S
C1098 H1074 0.950 . S
C1098 C1093 1.363 . S
C1098 C1097 1.415 . S
C1099 H1075 0.951 . S
C1099 C1100 1.366 . S
C1099 C1101 1.388 . S
C1100 C1099 1.366 . S
C1100 C1104 1.385 . S
C1101 H1076 0.951 . S
C1101 C1099 1.388 . S
C1101 C1102 1.366 . S
C1102 C1101 1.366 . S
C1102 C1103 1.414 . S
C1102 C1105 1.499 . S
C1103 H1077 0.950 . S
C1103 C1102 1.414 . S
C1103 C1104 1.374 . S
C1104 H1078 0.950 . S
C1104 C1100 1.385 . S
C1104 C1103 1.374 . S
C1105 C1102 1.499 . S
C1105 C1106 1.373 . S
C1105 C1107 1.389 . S
C1106 H1079 0.950 . S
C1106 C1092 1.377 . S
C1106 C1105 1.373 . S
C1107 C1091 1.377 . S
C1107 C1105 1.389 . S
C1107 C1108 1.524 . S
C1108 C1107 1.524 . S
C1108 C1109 1.397 . S
C1108 C1113 1.363 . S
C1109 H1080 0.950 . S
C1109 C1108 1.397 . S
C1109 C1110 1.334 . S
C1110 H1081 0.950 . S
C1110 C1109 1.334 . S
C1110 C1111 1.287 . S
C1111 C1110 1.287 . S
C1111 C1112 1.524 . S
C1111 H1114 0.999 . S
C1112 H1082 0.950 . S
C1112 C1111 1.524 . S
C1112 C1113 1.415 . S
C1113 H1083 0.950 . S
C1113 C1108 1.363 . S
C1113 C1112 1.415 . S
H1114 C1111 0.999 . S
H1115 C1096 0.913 . S
H1116 C1134 0.951 . S
H1117 C1136 0.951 . S
H1118 C1138 0.950 . S
H1119 C1139 0.950 . S
H1120 C1141 0.950 . S
H1121 C1144 0.950 . S
H1122 C1145 0.950 . S
H1123 C1147 0.950 . S
H1124 C1148 0.950 . S
H1125 C1149 0.951 . S
H1126 C1151 0.951 . S
H1127 C1153 0.950 . S
H1128 C1154 0.950 . S
H1129 C1156 0.950 . S
H1130 C1159 0.950 . S
H1131 C1160 0.950 . S
H1132 C1162 0.950 . S
H1133 C1163 0.950 . S
C1134 H1116 0.951 . S
C1134 C1135 1.366 . S
C1134 C1136 1.388 . S
C1135 C1134 1.366 . S
C1135 C1139 1.385 . S
C1136 H1117 0.951 . S
C1136 C1134 1.388 . S
C1136 C1137 1.366 . S
C1137 C1136 1.366 . S
C1137 C1138 1.414 . S
C1137 C1140 1.499 . S
C1138 H1118 0.950 . S
C1138 C1137 1.414 . S
C1138 C1139 1.374 . S
C1139 H1119 0.950 . S
C1139 C1135 1.385 . S
C1139 C1138 1.374 . S
C1140 C1137 1.499 . S
C1140 C1141 1.373 . S
C1140 C1142 1.389 . S
C1141 H1120 0.950 . S
C1141 C1140 1.373 . S
C1141 C1157 1.377 . S
C1142 C1140 1.389 . S
C1142 C1143 1.524 . S
C1142 C1156 1.377 . S
C1143 C1142 1.524 . S
C1143 C1144 1.397 . S
C1143 C1148 1.363 . S
C1144 H1121 0.950 . S
C1144 C1143 1.397 . S
C1144 C1145 1.334 . S
C1145 H1122 0.950 . S
C1145 C1144 1.334 . S
C1145 C1146 1.287 . S
C1146 C1145 1.287 . S
C1146 C1147 1.524 . S
C1146 H1165 0.913 . S
C1147 H1123 0.950 . S
C1147 C1146 1.524 . S
C1147 C1148 1.415 . S
C1148 H1124 0.950 . S
C1148 C1143 1.363 . S
C1148 C1147 1.415 . S
C1149 H1125 0.951 . S
C1149 C1150 1.366 . S
C1149 C1151 1.388 1_545 S
C1150 C1149 1.366 . S
C1150 C1154 1.385 . S
C1151 H1126 0.951 . S
C1151 C1149 1.388 1_565 S
C1151 C1152 1.366 . S
C1152 C1151 1.366 . S
C1152 C1153 1.414 . S
C1152 C1155 1.499 . S
C1153 H1127 0.950 . S
C1153 C1152 1.414 . S
C1153 C1154 1.374 1_565 S
C1154 H1128 0.950 . S
C1154 C1150 1.385 . S
C1154 C1153 1.374 1_545 S
C1155 C1152 1.499 . S
C1155 C1156 1.373 . S
C1155 C1157 1.389 . S
C1156 H1129 0.950 . S
C1156 C1142 1.377 . S
C1156 C1155 1.373 . S
C1157 C1141 1.377 . S
C1157 C1155 1.389 . S
C1157 C1158 1.524 . S
C1158 C1157 1.524 . S
C1158 C1159 1.397 . S
C1158 C1163 1.363 . S
C1159 H1130 0.950 . S
C1159 C1158 1.397 . S
C1159 C1160 1.334 . S
C1160 H1131 0.950 . S
C1160 C1159 1.334 . S
C1160 C1161 1.287 . S
C1161 C1160 1.287 . S
C1161 C1162 1.524 . S
C1161 H1164 0.999 . S
C1162 H1132 0.950 . S
C1162 C1161 1.524 . S
C1162 C1163 1.415 . S
C1163 H1133 0.950 . S
C1163 C1158 1.363 . S
C1163 C1162 1.415 . S
H1164 C1161 0.999 . S
H1165 C1146 0.913 . S
H1166 C1184 0.951 . S
H1167 C1186 0.951 . S
H1168 C1188 0.950 . S
H1169 C1189 0.950 . S
H1170 C1191 0.950 . S
H1171 C1194 0.950 . S
H1172 C1195 0.950 . S
H1173 C1197 0.950 . S
H1174 C1198 0.950 . S
H1175 C1199 0.951 . S
H1176 C1201 0.951 . S
H1177 C1203 0.950 . S
H1178 C1204 0.950 . S
H1179 C1206 0.950 . S
H1180 C1209 0.950 . S
H1181 C1210 0.950 . S
H1182 C1212 0.950 . S
H1183 C1213 0.950 . S
C1184 H1166 0.951 . S
C1184 C1185 1.366 . S
C1184 C1186 1.388 . S
C1185 C1184 1.366 . S
C1185 C1189 1.385 . S
C1186 H1167 0.951 . S
C1186 C1184 1.388 . S
C1186 C1187 1.366 . S
C1187 C1186 1.366 . S
C1187 C1188 1.414 . S
C1187 C1190 1.499 . S
C1188 H1168 0.950 . S
C1188 C1187 1.414 . S
C1188 C1189 1.374 . S
C1189 H1169 0.950 . S
C1189 C1185 1.385 . S
C1189 C1188 1.374 . S
C1190 C1187 1.499 . S
C1190 C1191 1.373 . S
C1190 C1192 1.389 . S
C1191 H1170 0.950 . S
C1191 C1190 1.373 . S
C1191 C1207 1.377 . S
C1192 C1190 1.389 . S
C1192 C1193 1.524 . S
C1192 C1206 1.377 . S
C1193 C1192 1.524 . S
C1193 C1194 1.397 . S
C1193 C1198 1.363 . S
C1194 H1171 0.950 . S
C1194 C1193 1.397 . S
C1194 C1195 1.334 . S
C1195 H1172 0.950 . S
C1195 C1194 1.334 . S
C1195 C1196 1.287 . S
C1196 C1195 1.287 . S
C1196 C1197 1.524 . S
C1196 H1215 0.913 . S
C1197 H1173 0.950 . S
C1197 C1196 1.524 . S
C1197 C1198 1.415 . S
C1198 H1174 0.950 . S
C1198 C1193 1.363 . S
C1198 C1197 1.415 . S
C1199 H1175 0.951 . S
C1199 C1200 1.366 . S
C1199 C1201 1.388 1_545 S
C1200 C1199 1.366 . S
C1200 C1204 1.385 . S
C1201 H1176 0.951 . S
C1201 C1199 1.388 1_565 S
C1201 C1202 1.366 . S
C1202 C1201 1.366 . S
C1202 C1203 1.414 . S
C1202 C1205 1.499 . S
C1203 H1177 0.950 . S
C1203 C1202 1.414 . S
C1203 C1204 1.374 1_565 S
C1204 H1178 0.950 . S
C1204 C1200 1.385 . S
C1204 C1203 1.374 1_545 S
C1205 C1202 1.499 . S
C1205 C1206 1.373 . S
C1205 C1207 1.389 . S
C1206 H1179 0.950 . S
C1206 C1192 1.377 . S
C1206 C1205 1.373 . S
C1207 C1191 1.377 . S
C1207 C1205 1.389 . S
C1207 C1208 1.524 . S
C1208 C1207 1.524 . S
C1208 C1209 1.397 . S
C1208 C1213 1.363 . S
C1209 H1180 0.950 . S
C1209 C1208 1.397 . S
C1209 C1210 1.334 . S
C1210 H1181 0.950 . S
C1210 C1209 1.334 . S
C1210 C1211 1.287 . S
C1211 C1210 1.287 . S
C1211 C1212 1.524 . S
C1211 H1214 0.999 . S
C1212 H1182 0.950 . S
C1212 C1211 1.524 . S
C1212 C1213 1.415 . S
C1213 H1183 0.950 . S
C1213 C1208 1.363 . S
C1213 C1212 1.415 . S
H1214 C1211 0.999 . S
H1215 C1196 0.913 . S
H1216 C1234 0.951 . S
H1217 C1236 0.951 . S
H1218 C1238 0.950 . S
H1219 C1239 0.950 . S
H1220 C1241 0.949 . S
H1221 C1244 0.950 1_556 S
H1222 C1245 0.950 . S
H1223 C1247 0.950 . S
H1224 C1248 0.950 . S
H1225 C1249 0.951 . S
H1226 C1251 0.951 . S
H1227 C1253 0.950 . S
H1228 C1254 0.950 . S
H1229 C1256 0.949 . S
H1230 C1259 0.950 1_554 S
H1231 C1260 0.950 . S
H1232 C1262 0.950 . S
H1233 C1263 0.950 . S
C1234 H1216 0.951 . S
C1234 C1235 1.366 . S
C1234 C1236 1.388 . S
C1235 C1234 1.366 . S
C1235 C1239 1.385 . S
C1236 H1217 0.951 . S
C1236 C1234 1.388 . S
C1236 C1237 1.366 . S
C1237 C1236 1.366 . S
C1237 C1238 1.414 . S
C1237 C1240 1.499 . S
C1238 H1218 0.950 . S
C1238 C1237 1.414 . S
C1238 C1239 1.374 . S
C1239 H1219 0.950 . S
C1239 C1235 1.385 . S
C1239 C1238 1.374 . S
C1240 C1237 1.499 . S
C1240 C1241 1.356 1_655 S
C1240 C1242 1.389 1_556 S
C1241 H1220 0.949 . S
C1241 C1240 1.356 1_455 S
C1241 C1257 1.393 . S
C1242 C1240 1.389 1_554 S
C1242 C1243 1.524 . S
C1242 C1256 1.393 . S
C1243 C1242 1.524 . S
C1243 C1244 1.397 . S
C1243 C1248 1.363 . S
C1244 H1221 0.950 1_554 S
C1244 C1243 1.397 . S
C1244 C1245 1.334 . S
C1245 H1222 0.950 . S
C1245 C1244 1.334 . S
C1245 C1246 1.287 . S
C1246 C1245 1.287 . S
C1246 C1247 1.524 . S
C1246 H1265 0.913 . S
C1247 H1223 0.950 . S
C1247 C1246 1.524 . S
C1247 C1248 1.415 . S
C1248 H1224 0.950 . S
C1248 C1243 1.363 . S
C1248 C1247 1.415 . S
C1249 H1225 0.951 . S
C1249 C1250 1.366 . S
C1249 C1251 1.388 . S
C1250 C1249 1.366 . S
C1250 C1254 1.385 . S
C1251 H1226 0.951 . S
C1251 C1249 1.388 . S
C1251 C1252 1.366 . S
C1252 C1251 1.366 . S
C1252 C1253 1.414 . S
C1252 C1255 1.499 . S
C1253 H1227 0.950 . S
C1253 C1252 1.414 . S
C1253 C1254 1.374 . S
C1254 H1228 0.950 . S
C1254 C1250 1.385 . S
C1254 C1253 1.374 . S
C1255 C1252 1.499 . S
C1255 C1256 1.356 1_455 S
C1255 C1257 1.389 1_554 S
C1256 H1229 0.949 . S
C1256 C1242 1.393 . S
C1256 C1255 1.356 1_655 S
C1257 C1241 1.393 . S
C1257 C1255 1.389 1_556 S
C1257 C1258 1.524 . S
C1258 C1257 1.524 . S
C1258 C1259 1.397 . S
C1258 C1263 1.363 . S
C1259 H1230 0.950 1_556 S
C1259 C1258 1.397 . S
C1259 C1260 1.334 . S
C1260 H1231 0.950 . S
C1260 C1259 1.334 . S
C1260 C1261 1.287 . S
C1261 C1260 1.287 . S
C1261 C1262 1.524 . S
C1261 H1264 0.999 . S
C1262 H1232 0.950 . S
C1262 C1261 1.524 . S
C1262 C1263 1.415 . S
C1263 H1233 0.950 . S
C1263 C1258 1.363 . S
C1263 C1262 1.415 . S
H1264 C1261 0.999 . S
H1265 C1246 0.913 . S
H1266 C1284 0.951 . S
H1267 C1286 0.951 . S
H1268 C1288 0.950 . S
H1269 C1289 0.950 . S
H1270 C1291 0.950 . S
H1271 C1294 0.950 . S
H1272 C1295 0.950 . S
H1273 C1297 0.950 . S
H1274 C1298 0.950 . S
H1275 C1299 0.951 . S
H1276 C1301 0.951 . S
H1277 C1303 0.950 . S
H1278 C1304 0.950 . S
H1279 C1306 0.950 . S
H1280 C1309 0.950 . S
H1281 C1310 0.950 . S
H1282 C1312 0.950 . S
H1283 C1313 0.950 . S
C1284 H1266 0.951 . S
C1284 C1285 1.366 . S
C1284 C1286 1.388 . S
C1285 C1284 1.366 . S
C1285 C1289 1.385 . S
C1286 H1267 0.951 . S
C1286 C1284 1.388 . S
C1286 C1287 1.366 . S
C1287 C1286 1.366 . S
C1287 C1288 1.414 . S
C1287 C1290 1.499 . S
C1288 H1268 0.950 . S
C1288 C1287 1.414 . S
C1288 C1289 1.374 . S
C1289 H1269 0.950 . S
C1289 C1285 1.385 . S
C1289 C1288 1.374 . S
C1290 C1287 1.499 . S
C1290 C1291 1.373 . S
C1290 C1292 1.389 1_556 S
C1291 H1270 0.950 . S
C1291 C1290 1.373 . S
C1291 C1307 1.377 . S
C1292 C1290 1.389 1_554 S
C1292 C1293 1.524 . S
C1292 C1306 1.377 . S
C1293 C1292 1.524 . S
C1293 C1294 1.397 1_554 S
C1293 C1298 1.363 . S
C1294 H1271 0.950 . S
C1294 C1293 1.397 1_556 S
C1294 C1295 1.334 . S
C1295 H1272 0.950 . S
C1295 C1294 1.334 . S
C1295 C1296 1.287 1_556 S
C1296 C1295 1.287 1_554 S
C1296 C1297 1.524 . S
C1296 H1315 0.913 . S
C1297 H1273 0.950 . S
C1297 C1296 1.524 . S
C1297 C1298 1.415 . S
C1298 H1274 0.950 . S
C1298 C1293 1.363 . S
C1298 C1297 1.415 . S
C1299 H1275 0.951 . S
C1299 C1300 1.366 . S
C1299 C1301 1.388 . S
C1300 C1299 1.366 . S
C1300 C1304 1.385 . S
C1301 H1276 0.951 . S
C1301 C1299 1.388 . S
C1301 C1302 1.366 . S
C1302 C1301 1.366 . S
C1302 C1303 1.414 . S
C1302 C1305 1.499 . S
C1303 H1277 0.950 . S
C1303 C1302 1.414 . S
C1303 C1304 1.374 . S
C1304 H1278 0.950 . S
C1304 C1300 1.385 . S
C1304 C1303 1.374 . S
C1305 C1302 1.499 . S
C1305 C1306 1.373 . S
C1305 C1307 1.389 1_554 S
C1306 H1279 0.950 . S
C1306 C1292 1.377 . S
C1306 C1305 1.373 . S
C1307 C1291 1.377 . S
C1307 C1305 1.389 1_556 S
C1307 C1308 1.524 . S
C1308 C1307 1.524 . S
C1308 C1309 1.397 1_556 S
C1308 C1313 1.363 . S
C1309 H1280 0.950 . S
C1309 C1308 1.397 1_554 S
C1309 C1310 1.334 . S
C1310 H1281 0.950 . S
C1310 C1309 1.334 . S
C1310 C1311 1.287 1_554 S
C1311 C1310 1.287 1_556 S
C1311 C1312 1.524 . S
C1311 H1314 0.999 . S
C1312 H1282 0.950 . S
C1312 C1311 1.524 . S
C1312 C1313 1.415 . S
C1313 H1283 0.950 . S
C1313 C1308 1.363 . S
C1313 C1312 1.415 . S
H1314 C1311 0.999 . S
H1315 C1296 0.913 . S
H1316 C1334 0.951 . S
H1317 C1336 0.951 . S
H1318 C1338 0.950 . S
H1319 C1339 0.950 . S
H1320 C1341 0.950 . S
H1321 C1344 0.950 . S
H1322 C1345 0.950 . S
H1323 C1347 0.950 . S
H1324 C1348 0.950 . S
H1325 C1349 0.951 . S
H1326 C1351 0.951 . S
H1327 C1353 0.950 . S
H1328 C1354 0.950 . S
H1329 C1356 0.950 . S
H1330 C1359 0.950 . S
H1331 C1360 0.950 . S
H1332 C1362 0.950 . S
H1333 C1363 0.950 . S
C1334 H1316 0.951 . S
C1334 C1335 1.366 . S
C1334 C1336 1.388 . S
C1335 C1334 1.366 . S
C1335 C1339 1.385 . S
C1336 H1317 0.951 . S
C1336 C1334 1.388 . S
C1336 C1337 1.366 . S
C1337 C1336 1.366 . S
C1337 C1338 1.414 . S
C1337 C1340 1.499 . S
C1338 H1318 0.950 . S
C1338 C1337 1.414 . S
C1338 C1339 1.374 . S
C1339 H1319 0.950 . S
C1339 C1335 1.385 . S
C1339 C1338 1.374 . S
C1340 C1337 1.499 . S
C1340 C1341 1.373 1_455 S
C1340 C1342 1.389 . S
C1341 H1320 0.950 . S
C1341 C1340 1.373 1_655 S
C1341 C1357 1.377 . S
C1342 C1340 1.389 . S
C1342 C1343 1.524 . S
C1342 C1356 1.377 . S
C1343 C1342 1.524 . S
C1343 C1344 1.397 . S
C1343 C1348 1.363 . S
C1344 H1321 0.950 . S
C1344 C1343 1.397 . S
C1344 C1345 1.334 . S
C1345 H1322 0.950 . S
C1345 C1344 1.334 . S
C1345 C1346 1.287 . S
C1346 C1345 1.287 . S
C1346 C1347 1.524 . S
C1346 H1365 0.913 . S
C1347 H1323 0.950 . S
C1347 C1346 1.524 . S
C1347 C1348 1.415 . S
C1348 H1324 0.950 . S
C1348 C1343 1.363 . S
C1348 C1347 1.415 . S
C1349 H1325 0.951 . S
C1349 C1350 1.366 . S
C1349 C1351 1.388 . S
C1350 C1349 1.366 . S
C1350 C1354 1.385 . S
C1351 H1326 0.951 . S
C1351 C1349 1.388 . S
C1351 C1352 1.366 . S
C1352 C1351 1.366 . S
C1352 C1353 1.414 . S
C1352 C1355 1.499 . S
C1353 H1327 0.950 . S
C1353 C1352 1.414 . S
C1353 C1354 1.374 . S
C1354 H1328 0.950 . S
C1354 C1350 1.385 . S
C1354 C1353 1.374 . S
C1355 C1352 1.499 . S
C1355 C1356 1.373 1_655 S
C1355 C1357 1.389 . S
C1356 H1329 0.950 . S
C1356 C1342 1.377 . S
C1356 C1355 1.373 1_455 S
C1357 C1341 1.377 . S
C1357 C1355 1.389 . S
C1357 C1358 1.524 . S
C1358 C1357 1.524 . S
C1358 C1359 1.397 . S
C1358 C1363 1.363 . S
C1359 H1330 0.950 . S
C1359 C1358 1.397 . S
C1359 C1360 1.334 . S
C1360 H1331 0.950 . S
C1360 C1359 1.334 . S
C1360 C1361 1.287 . S
C1361 C1360 1.287 . S
C1361 C1362 1.524 . S
C1361 H1364 0.999 . S
C1362 H1332 0.950 . S
C1362 C1361 1.524 . S
C1362 C1363 1.415 . S
C1363 H1333 0.950 . S
C1363 C1358 1.363 . S
C1363 C1362 1.415 . S
H1364 C1361 0.999 . S
H1365 C1346 0.913 . S
H1366 C1384 0.951 . S
H1367 C1386 0.951 . S
H1368 C1388 0.950 . S
H1369 C1389 0.950 . S
H1370 C1391 0.950 . S
H1371 C1394 0.950 . S
H1372 C1395 0.950 . S
H1373 C1397 0.950 . S
H1374 C1398 0.950 . S
H1375 C1399 0.951 . S
H1376 C1401 0.951 . S
H1377 C1403 0.950 . S
H1378 C1404 0.950 . S
H1379 C1406 0.950 . S
H1380 C1409 0.950 . S
H1381 C1410 0.950 . S
H1382 C1412 0.950 . S
H1383 C1413 0.950 . S
C1384 H1366 0.951 . S
C1384 C1385 1.366 . S
C1384 C1386 1.388 . S
C1385 C1384 1.366 . S
C1385 C1389 1.385 . S
C1386 H1367 0.951 . S
C1386 C1384 1.388 . S
C1386 C1387 1.366 . S
C1387 C1386 1.366 . S
C1387 C1388 1.414 . S
C1387 C1390 1.499 . S
C1388 H1368 0.950 . S
C1388 C1387 1.414 . S
C1388 C1389 1.374 . S
C1389 H1369 0.950 . S
C1389 C1385 1.385 . S
C1389 C1388 1.374 . S
C1390 C1387 1.499 . S
C1390 C1391 1.373 . S
C1390 C1392 1.389 . S
C1391 H1370 0.950 . S
C1391 C1390 1.373 . S
C1391 C1407 1.377 . S
C1392 C1390 1.389 . S
C1392 C1393 1.524 . S
C1392 C1406 1.377 . S
C1393 C1392 1.524 . S
C1393 C1394 1.397 . S
C1393 C1398 1.363 . S
C1394 H1371 0.950 . S
C1394 C1393 1.397 . S
C1394 C1395 1.334 . S
C1395 H1372 0.950 . S
C1395 C1394 1.334 . S
C1395 C1396 1.287 . S
C1396 C1395 1.287 . S
C1396 C1397 1.524 . S
C1396 H1415 0.913 . S
C1397 H1373 0.950 . S
C1397 C1396 1.524 . S
C1397 C1398 1.415 . S
C1398 H1374 0.950 . S
C1398 C1393 1.363 . S
C1398 C1397 1.415 . S
C1399 H1375 0.951 . S
C1399 C1400 1.366 . S
C1399 C1401 1.388 . S
C1400 C1399 1.366 . S
C1400 C1404 1.385 . S
C1401 H1376 0.951 . S
C1401 C1399 1.388 . S
C1401 C1402 1.366 . S
C1402 C1401 1.366 . S
C1402 C1403 1.414 . S
C1402 C1405 1.499 . S
C1403 H1377 0.950 . S
C1403 C1402 1.414 . S
C1403 C1404 1.374 . S
C1404 H1378 0.950 . S
C1404 C1400 1.385 . S
C1404 C1403 1.374 . S
C1405 C1402 1.499 . S
C1405 C1406 1.373 . S
C1405 C1407 1.389 . S
C1406 H1379 0.950 . S
C1406 C1392 1.377 . S
C1406 C1405 1.373 . S
C1407 C1391 1.377 . S
C1407 C1405 1.389 . S
C1407 C1408 1.524 . S
C1408 C1407 1.524 . S
C1408 C1409 1.397 . S
C1408 C1413 1.363 . S
C1409 H1380 0.950 . S
C1409 C1408 1.397 . S
C1409 C1410 1.334 . S
C1410 H1381 0.950 . S
C1410 C1409 1.334 . S
C1410 C1411 1.287 . S
C1411 C1410 1.287 . S
C1411 C1412 1.524 . S
C1411 H1414 0.999 . S
C1412 H1382 0.950 . S
C1412 C1411 1.524 . S
C1412 C1413 1.415 . S
C1413 H1383 0.950 . S
C1413 C1408 1.363 . S
C1413 C1412 1.415 . S
H1414 C1411 0.999 . S
H1415 C1396 0.913 . S
H1416 C1434 0.951 . S
H1417 C1436 0.951 . S
H1418 C1438 0.950 . S
H1419 C1439 0.950 . S
H1420 C1441 0.950 . S
H1421 C1444 0.950 . S
H1422 C1445 0.950 . S
H1423 C1447 0.950 . S
H1424 C1448 0.950 . S
H1425 C1449 0.951 . S
H1426 C1451 0.951 . S
H1427 C1453 0.950 . S
H1428 C1454 0.950 . S
H1429 C1456 0.950 . S
H1430 C1459 0.950 . S
H1431 C1460 0.950 . S
H1432 C1462 0.950 . S
H1433 C1463 0.950 . S
C1434 H1416 0.951 . S
C1434 C1435 1.366 . S
C1434 C1436 1.388 . S
C1435 C1434 1.366 . S
C1435 C1439 1.385 . S
C1436 H1417 0.951 . S
C1436 C1434 1.388 . S
C1436 C1437 1.366 . S
C1437 C1436 1.366 . S
C1437 C1438 1.414 . S
C1437 C1440 1.499 . S
C1438 H1418 0.950 . S
C1438 C1437 1.414 . S
C1438 C1439 1.374 . S
C1439 H1419 0.950 . S
C1439 C1435 1.385 . S
C1439 C1438 1.374 . S
C1440 C1437 1.499 . S
C1440 C1441 1.373 1_556 S
C1440 C1442 1.389 . S
C1441 H1420 0.950 . S
C1441 C1440 1.373 1_554 S
C1441 C1457 1.377 . S
C1442 C1440 1.389 . S
C1442 C1443 1.524 . S
C1442 C1456 1.377 . S
C1443 C1442 1.524 . S
C1443 C1444 1.397 . S
C1443 C1448 1.363 . S
C1444 H1421 0.950 . S
C1444 C1443 1.397 . S
C1444 C1445 1.334 . S
C1445 H1422 0.950 . S
C1445 C1444 1.334 . S
C1445 C1446 1.287 . S
C1446 C1445 1.287 . S
C1446 C1447 1.524 . S
C1446 H1465 0.913 . S
C1447 H1423 0.950 . S
C1447 C1446 1.524 . S
C1447 C1448 1.415 . S
C1448 H1424 0.950 . S
C1448 C1443 1.363 . S
C1448 C1447 1.415 . S
C1449 H1425 0.951 . S
C1449 C1450 1.366 . S
C1449 C1451 1.388 . S
C1450 C1449 1.366 . S
C1450 C1454 1.385 . S
C1451 H1426 0.951 . S
C1451 C1449 1.388 . S
C1451 C1452 1.366 . S
C1452 C1451 1.366 . S
C1452 C1453 1.414 . S
C1452 C1455 1.499 . S
C1453 H1427 0.950 . S
C1453 C1452 1.414 . S
C1453 C1454 1.374 . S
C1454 H1428 0.950 . S
C1454 C1450 1.385 . S
C1454 C1453 1.374 . S
C1455 C1452 1.499 . S
C1455 C1456 1.373 1_554 S
C1455 C1457 1.389 . S
C1456 H1429 0.950 . S
C1456 C1442 1.377 . S
C1456 C1455 1.373 1_556 S
C1457 C1441 1.377 . S
C1457 C1455 1.389 . S
C1457 C1458 1.524 . S
C1458 C1457 1.524 . S
C1458 C1459 1.397 . S
C1458 C1463 1.363 . S
C1459 H1430 0.950 . S
C1459 C1458 1.397 . S
C1459 C1460 1.334 . S
C1460 H1431 0.950 . S
C1460 C1459 1.334 . S
C1460 C1461 1.287 . S
C1461 C1460 1.287 . S
C1461 C1462 1.524 . S
C1461 H1464 0.999 . S
C1462 H1432 0.950 . S
C1462 C1461 1.524 . S
C1462 C1463 1.415 . S
C1463 H1433 0.950 . S
C1463 C1458 1.363 . S
C1463 C1462 1.415 . S
H1464 C1461 0.999 . S
H1465 C1446 0.913 . S
H1466 C1484 0.951 . S
H1467 C1486 0.951 . S
H1468 C1488 0.950 . S
H1469 C1489 0.950 . S
H1470 C1491 0.950 . S
H1471 C1494 0.950 1_655 S
H1472 C1495 0.950 . S
H1473 C1497 0.950 . S
H1474 C1498 0.950 . S
H1475 C1499 0.951 . S
H1476 C1501 0.951 . S
H1477 C1503 0.950 . S
H1478 C1504 0.950 . S
H1479 C1506 0.950 . S
H1480 C1509 0.950 1_455 S
H1481 C1510 0.950 . S
H1482 C1512 0.950 . S
H1483 C1513 0.950 . S
C1484 H1466 0.951 . S
C1484 C1485 1.366 . S
C1484 C1486 1.388 . S
C1485 C1484 1.366 . S
C1485 C1489 1.385 . S
C1486 H1467 0.951 . S
C1486 C1484 1.388 . S
C1486 C1487 1.366 . S
C1487 C1486 1.366 . S
C1487 C1488 1.414 . S
C1487 C1490 1.499 . S
C1488 H1468 0.950 . S
C1488 C1487 1.414 . S
C1488 C1489 1.374 . S
C1489 H1469 0.950 . S
C1489 C1485 1.385 . S
C1489 C1488 1.374 . S
C1490 C1487 1.499 . S
C1490 C1491 1.373 . S
C1490 C1492 1.389 1_655 S
C1491 H1470 0.950 . S
C1491 C1490 1.373 . S
C1491 C1507 1.377 . S
C1492 C1490 1.389 1_455 S
C1492 C1493 1.524 . S
C1492 C1506 1.377 . S
C1493 C1492 1.524 . S
C1493 C1494 1.397 . S
C1493 C1498 1.363 . S
C1494 H1471 0.950 1_455 S
C1494 C1493 1.397 . S
C1494 C1495 1.334 . S
C1495 H1472 0.950 . S
C1495 C1494 1.334 . S
C1495 C1496 1.287 . S
C1496 C1495 1.287 . S
C1496 C1497 1.524 . S
C1496 H1515 0.913 . S
C1497 H1473 0.950 . S
C1497 C1496 1.524 . S
C1497 C1498 1.415 . S
C1498 H1474 0.950 . S
C1498 C1493 1.363 . S
C1498 C1497 1.415 . S
C1499 H1475 0.951 . S
C1499 C1500 1.366 . S
C1499 C1501 1.388 . S
C1500 C1499 1.366 . S
C1500 C1504 1.385 . S
C1501 H1476 0.951 . S
C1501 C1499 1.388 . S
C1501 C1502 1.366 . S
C1502 C1501 1.366 . S
C1502 C1503 1.414 . S
C1502 C1505 1.499 . S
C1503 H1477 0.950 . S
C1503 C1502 1.414 . S
C1503 C1504 1.374 . S
C1504 H1478 0.950 . S
C1504 C1500 1.385 . S
C1504 C1503 1.374 . S
C1505 C1502 1.499 . S
C1505 C1506 1.373 . S
C1505 C1507 1.389 1_455 S
C1506 H1479 0.950 . S
C1506 C1492 1.377 . S
C1506 C1505 1.373 . S
C1507 C1491 1.377 . S
C1507 C1505 1.389 1_655 S
C1507 C1508 1.524 . S
C1508 C1507 1.524 . S
C1508 C1509 1.397 . S
C1508 C1513 1.363 . S
C1509 H1480 0.950 1_655 S
C1509 C1508 1.397 . S
C1509 C1510 1.334 . S
C1510 H1481 0.950 . S
C1510 C1509 1.334 . S
C1510 C1511 1.287 . S
C1511 C1510 1.287 . S
C1511 C1512 1.524 . S
C1511 H1514 0.999 . S
C1512 H1482 0.950 . S
C1512 C1511 1.524 . S
C1512 C1513 1.415 . S
C1513 H1483 0.950 . S
C1513 C1508 1.363 . S
C1513 C1512 1.415 . S
H1514 C1511 0.999 . S
H1515 C1496 0.913 . S
H1516 C1534 0.951 . S
H1517 C1536 0.951 . S
H1518 C1538 0.950 . S
H1519 C1539 0.950 . S
H1520 C1541 0.950 . S
H1521 C1544 0.950 . S
H1522 C1545 0.950 . S
H1523 C1547 0.950 . S
H1524 C1548 0.950 . S
H1525 C1549 0.951 . S
H1526 C1551 0.951 . S
H1527 C1553 0.950 . S
H1528 C1554 0.950 . S
H1529 C1556 0.950 . S
H1530 C1559 0.950 . S
H1531 C1560 0.950 . S
H1532 C1562 0.950 . S
H1533 C1563 0.950 . S
C1534 H1516 0.951 . S
C1534 C1535 1.366 . S
C1534 C1536 1.388 . S
C1535 C1534 1.366 . S
C1535 C1539 1.385 . S
C1536 H1517 0.951 . S
C1536 C1534 1.388 . S
C1536 C1537 1.366 . S
C1537 C1536 1.366 . S
C1537 C1538 1.414 . S
C1537 C1540 1.499 . S
C1538 H1518 0.950 . S
C1538 C1537 1.414 . S
C1538 C1539 1.374 . S
C1539 H1519 0.950 . S
C1539 C1535 1.385 . S
C1539 C1538 1.374 . S
C1540 C1537 1.499 . S
C1540 C1541 1.373 . S
C1540 C1542 1.389 . S
C1541 H1520 0.950 . S
C1541 C1540 1.373 . S
C1541 C1557 1.377 . S
C1542 C1540 1.389 . S
C1542 C1543 1.524 . S
C1542 C1556 1.377 . S
C1543 C1542 1.524 . S
C1543 C1544 1.397 . S
C1543 C1548 1.363 . S
C1544 H1521 0.950 . S
C1544 C1543 1.397 . S
C1544 C1545 1.334 . S
C1545 H1522 0.950 . S
C1545 C1544 1.334 . S
C1545 C1546 1.287 . S
C1546 C1545 1.287 . S
C1546 C1547 1.524 . S
C1546 H1565 0.913 . S
C1547 H1523 0.950 . S
C1547 C1546 1.524 . S
C1547 C1548 1.415 . S
C1548 H1524 0.950 . S
C1548 C1543 1.363 . S
C1548 C1547 1.415 . S
C1549 H1525 0.951 . S
C1549 C1550 1.366 . S
C1549 C1551 1.388 . S
C1550 C1549 1.366 . S
C1550 C1554 1.385 . S
C1551 H1526 0.951 . S
C1551 C1549 1.388 . S
C1551 C1552 1.366 . S
C1552 C1551 1.366 . S
C1552 C1553 1.414 . S
C1552 C1555 1.499 . S
C1553 H1527 0.950 . S
C1553 C1552 1.414 . S
C1553 C1554 1.374 . S
C1554 H1528 0.950 . S
C1554 C1550 1.385 . S
C1554 C1553 1.374 . S
C1555 C1552 1.499 . S
C1555 C1556 1.373 . S
C1555 C1557 1.389 . S
C1556 H1529 0.950 . S
C1556 C1542 1.377 . S
C1556 C1555 1.373 . S
C1557 C1541 1.377 . S
C1557 C1555 1.389 . S
C1557 C1558 1.524 . S
C1558 C1557 1.524 . S
C1558 C1559 1.397 . S
C1558 C1563 1.363 . S
C1559 H1530 0.950 . S
C1559 C1558 1.397 . S
C1559 C1560 1.334 . S
C1560 H1531 0.950 . S
C1560 C1559 1.334 . S
C1560 C1561 1.287 . S
C1561 C1560 1.287 . S
C1561 C1562 1.524 . S
C1561 H1564 0.999 . S
C1562 H1532 0.950 . S
C1562 C1561 1.524 . S
C1562 C1563 1.415 . S
C1563 H1533 0.950 . S
C1563 C1558 1.363 . S
C1563 C1562 1.415 . S
H1564 C1561 0.999 . S
H1565 C1546 0.913 . S
H1566 C1584 0.951 . S
H1567 C1586 0.951 . S
H1568 C1588 0.950 . S
H1569 C1589 0.950 . S
H1570 C1591 0.961 . S
H1571 C1594 0.950 . S
H1572 C1595 0.950 . S
H1573 C1597 0.950 . S
H1574 C1598 0.950 . S
H1575 C1599 0.951 . S
H1576 C1601 0.951 . S
H1577 C1603 0.950 . S
H1578 C1604 0.950 . S
H1579 C1606 0.961 . S
H1580 C1609 0.950 . S
H1581 C1610 0.950 . S
H1582 C1612 0.950 . S
H1583 C1613 0.950 . S
C1584 H1566 0.951 . S
C1584 C1585 1.366 . S
C1584 C1586 1.388 . S
C1585 C1584 1.366 . S
C1585 C1589 1.385 . S
C1586 H1567 0.951 . S
C1586 C1584 1.388 . S
C1586 C1587 1.366 . S
C1587 C1586 1.366 . S
C1587 C1588 1.414 . S
C1587 C1590 1.499 . S
C1588 H1568 0.950 . S
C1588 C1587 1.414 . S
C1588 C1589 1.374 . S
C1589 H1569 0.950 . S
C1589 C1585 1.385 . S
C1589 C1588 1.374 . S
C1590 C1587 1.499 . S
C1590 C1591 1.421 1_545 S
C1590 C1592 1.389 . S
C1591 H1570 0.961 . S
C1591 C1590 1.421 1_565 S
C1591 C1607 1.327 1_655 S
C1592 C1590 1.389 . S
C1592 C1593 1.524 . S
C1592 C1606 1.327 1_655 S
C1593 C1592 1.524 . S
C1593 C1594 1.397 . S
C1593 C1598 1.363 . S
C1594 H1571 0.950 . S
C1594 C1593 1.397 . S
C1594 C1595 1.334 . S
C1595 H1572 0.950 . S
C1595 C1594 1.334 . S
C1595 C1596 1.287 . S
C1596 C1595 1.287 . S
C1596 C1597 1.524 . S
C1596 H1615 0.913 . S
C1597 H1573 0.950 . S
C1597 C1596 1.524 . S
C1597 C1598 1.415 . S
C1598 H1574 0.950 . S
C1598 C1593 1.363 . S
C1598 C1597 1.415 . S
C1599 H1575 0.951 . S
C1599 C1600 1.366 . S
C1599 C1601 1.388 . S
C1600 C1599 1.366 . S
C1600 C1604 1.385 . S
C1601 H1576 0.951 . S
C1601 C1599 1.388 . S
C1601 C1602 1.366 . S
C1602 C1601 1.366 . S
C1602 C1603 1.414 . S
C1602 C1605 1.499 . S
C1603 H1577 0.950 . S
C1603 C1602 1.414 . S
C1603 C1604 1.374 . S
C1604 H1578 0.950 . S
C1604 C1600 1.385 . S
C1604 C1603 1.374 . S
C1605 C1602 1.499 . S
C1605 C1606 1.422 1_565 S
C1605 C1607 1.389 . S
C1606 H1579 0.961 . S
C1606 C1592 1.327 1_455 S
C1606 C1605 1.422 1_545 S
C1607 C1591 1.327 1_455 S
C1607 C1605 1.389 . S
C1607 C1608 1.524 . S
C1608 C1607 1.524 . S
C1608 C1609 1.397 . S
C1608 C1613 1.363 . S
C1609 H1580 0.950 . S
C1609 C1608 1.397 . S
C1609 C1610 1.334 . S
C1610 H1581 0.950 . S
C1610 C1609 1.334 . S
C1610 C1611 1.287 . S
C1611 C1610 1.287 . S
C1611 C1612 1.524 . S
C1611 H1614 0.999 . S
C1612 H1582 0.950 . S
C1612 C1611 1.524 . S
C1612 C1613 1.415 . S
C1613 H1583 0.950 . S
C1613 C1608 1.363 . S
C1613 C1612 1.415 . S
H1614 C1611 0.999 . S
H1615 C1596 0.913 . S
H1616 C1634 0.951 . S
H1617 C1636 0.951 . S
H1618 C1638 0.950 . S
H1619 C1639 0.950 . S
H1620 C1641 0.950 . S
H1621 C1644 0.950 . S
H1622 C1645 0.950 . S
H1623 C1647 0.950 . S
H1624 C1648 0.950 . S
H1625 C1649 0.951 . S
H1626 C1651 0.951 . S
H1627 C1653 0.950 . S
H1628 C1654 0.950 . S
H1629 C1656 0.950 . S
H1630 C1659 0.950 . S
H1631 C1660 0.950 . S
H1632 C1662 0.950 . S
H1633 C1663 0.950 . S
C1634 H1616 0.951 . S
C1634 C1635 1.366 . S
C1634 C1636 1.388 . S
C1635 C1634 1.366 . S
C1635 C1639 1.385 . S
C1636 H1617 0.951 . S
C1636 C1634 1.388 . S
C1636 C1637 1.366 . S
C1637 C1636 1.366 . S
C1637 C1638 1.414 . S
C1637 C1640 1.499 . S
C1638 H1618 0.950 . S
C1638 C1637 1.414 . S
C1638 C1639 1.374 . S
C1639 H1619 0.950 . S
C1639 C1635 1.385 . S
C1639 C1638 1.374 . S
C1640 C1637 1.499 . S
C1640 C1641 1.373 . S
C1640 C1642 1.389 . S
C1641 H1620 0.950 . S
C1641 C1640 1.373 . S
C1641 C1657 1.377 . S
C1642 C1640 1.389 . S
C1642 C1643 1.524 . S
C1642 C1656 1.377 . S
C1643 C1642 1.524 . S
C1643 C1644 1.397 . S
C1643 C1648 1.363 . S
C1644 H1621 0.950 . S
C1644 C1643 1.397 . S
C1644 C1645 1.334 . S
C1645 H1622 0.950 . S
C1645 C1644 1.334 . S
C1645 C1646 1.287 . S
C1646 C1645 1.287 . S
C1646 C1647 1.524 . S
C1646 H1665 0.913 . S
C1647 H1623 0.950 . S
C1647 C1646 1.524 . S
C1647 C1648 1.415 . S
C1648 H1624 0.950 . S
C1648 C1643 1.363 . S
C1648 C1647 1.415 . S
C1649 H1625 0.951 . S
C1649 C1650 1.366 . S
C1649 C1651 1.388 . S
C1650 C1649 1.366 . S
C1650 C1654 1.385 . S
C1651 H1626 0.951 . S
C1651 C1649 1.388 . S
C1651 C1652 1.366 . S
C1652 C1651 1.366 . S
C1652 C1653 1.414 . S
C1652 C1655 1.499 . S
C1653 H1627 0.950 . S
C1653 C1652 1.414 . S
C1653 C1654 1.374 . S
C1654 H1628 0.950 . S
C1654 C1650 1.385 . S
C1654 C1653 1.374 . S
C1655 C1652 1.499 . S
C1655 C1656 1.373 . S
C1655 C1657 1.389 . S
C1656 H1629 0.950 . S
C1656 C1642 1.377 . S
C1656 C1655 1.373 . S
C1657 C1641 1.377 . S
C1657 C1655 1.389 . S
C1657 C1658 1.524 . S
C1658 C1657 1.524 . S
C1658 C1659 1.397 . S
C1658 C1663 1.363 . S
C1659 H1630 0.950 . S
C1659 C1658 1.397 . S
C1659 C1660 1.334 . S
C1660 H1631 0.950 . S
C1660 C1659 1.334 . S
C1660 C1661 1.287 . S
C1661 C1660 1.287 . S
C1661 C1662 1.524 . S
C1661 H1664 0.999 . S
C1662 H1632 0.950 . S
C1662 C1661 1.524 . S
C1662 C1663 1.415 . S
C1663 H1633 0.950 . S
C1663 C1658 1.363 . S
C1663 C1662 1.415 . S
H1664 C1661 0.999 . S
H1665 C1646 0.913 . S
H1666 C1684 0.951 . S
H1667 C1686 0.951 1_545 S
H1668 C1688 0.950 . S
H1669 C1689 0.950 . S
H1670 C1691 0.950 . S
H1671 C1694 0.950 1_565 S
H1672 C1695 0.950 1_565 S
H1673 C1697 0.950 . S
H1674 C1698 0.950 . S
H1675 C1699 0.951 . S
H1676 C1701 0.951 1_565 S
H1677 C1703 0.950 . S
H1678 C1704 0.950 . S
H1679 C1706 0.950 . S
H1680 C1709 0.950 1_545 S
H1681 C1710 0.950 1_545 S
H1682 C1712 0.950 . S
H1683 C1713 0.950 . S
C1684 H1666 0.951 . S
C1684 C1685 1.366 . S
C1684 C1686 1.388 . S
C1685 C1684 1.366 . S
C1685 C1689 1.385 . S
C1686 H1667 0.951 1_565 S
C1686 C1684 1.388 . S
C1686 C1687 1.366 . S
C1687 C1686 1.366 . S
C1687 C1688 1.414 . S
C1687 C1690 1.499 . S
C1688 H1668 0.950 . S
C1688 C1687 1.414 . S
C1688 C1689 1.374 . S
C1689 H1669 0.950 . S
C1689 C1685 1.385 . S
C1689 C1688 1.374 . S
C1690 C1687 1.499 . S
C1690 C1691 1.373 . S
C1690 C1692 1.389 1_565 S
C1691 H1670 0.950 . S
C1691 C1690 1.373 . S
C1691 C1707 1.377 . S
C1692 C1690 1.389 1_545 S
C1692 C1693 1.524 . S
C1692 C1706 1.377 . S
C1693 C1692 1.524 . S
C1693 C1694 1.397 . S
C1693 C1698 1.363 . S
C1694 H1671 0.950 1_545 S
C1694 C1693 1.397 . S
C1694 C1695 1.334 . S
C1695 H1672 0.950 1_545 S
C1695 C1694 1.334 . S
C1695 C1696 1.287 . S
C1696 C1695 1.287 . S
C1696 C1697 1.524 . S
C1696 H1715 0.913 . S
C1697 H1673 0.950 . S
C1697 C1696 1.524 . S
C1697 C1698 1.415 . S
C1698 H1674 0.950 . S
C1698 C1693 1.363 . S
C1698 C1697 1.415 . S
C1699 H1675 0.951 . S
C1699 C1700 1.366 . S
C1699 C1701 1.388 . S
C1700 C1699 1.366 . S
C1700 C1704 1.385 . S
C1701 H1676 0.951 1_545 S
C1701 C1699 1.388 . S
C1701 C1702 1.366 . S
C1702 C1701 1.366 . S
C1702 C1703 1.414 . S
C1702 C1705 1.499 . S
C1703 H1677 0.950 . S
C1703 C1702 1.414 . S
C1703 C1704 1.374 . S
C1704 H1678 0.950 . S
C1704 C1700 1.385 . S
C1704 C1703 1.374 . S
C1705 C1702 1.499 . S
C1705 C1706 1.373 . S
C1705 C1707 1.389 1_545 S
C1706 H1679 0.950 . S
C1706 C1692 1.377 . S
C1706 C1705 1.373 . S
C1707 C1691 1.377 . S
C1707 C1705 1.389 1_565 S
C1707 C1708 1.524 . S
C1708 C1707 1.524 . S
C1708 C1709 1.397 . S
C1708 C1713 1.363 . S
C1709 H1680 0.950 1_565 S
C1709 C1708 1.397 . S
C1709 C1710 1.334 . S
C1710 H1681 0.950 1_565 S
C1710 C1709 1.334 . S
C1710 C1711 1.287 . S
C1711 C1710 1.287 . S
C1711 C1712 1.524 . S
C1711 H1714 0.999 . S
C1712 H1682 0.950 . S
C1712 C1711 1.524 . S
C1712 C1713 1.415 . S
C1713 H1683 0.950 . S
C1713 C1708 1.363 . S
C1713 C1712 1.415 . S
H1714 C1711 0.999 . S
H1715 C1696 0.913 . S
H1716 C1734 0.951 . S
H1717 C1736 0.951 . S
H1718 C1738 0.950 . S
H1719 C1739 0.950 . S
H1720 C1741 0.950 . S
H1721 C1744 0.950 . S
H1722 C1745 0.950 . S
H1723 C1747 0.950 . S
H1724 C1748 0.950 . S
H1725 C1749 0.951 . S
H1726 C1751 0.951 . S
H1727 C1753 0.950 . S
H1728 C1754 0.950 . S
H1729 C1756 0.950 . S
H1730 C1759 0.950 . S
H1731 C1760 0.950 . S
H1732 C1762 0.950 . S
H1733 C1763 0.950 . S
C1734 H1716 0.951 . S
C1734 C1735 1.366 . S
C1734 C1736 1.388 . S
C1735 C1734 1.366 . S
C1735 C1739 1.385 . S
C1736 H1717 0.951 . S
C1736 C1734 1.388 . S
C1736 C1737 1.366 . S
C1737 C1736 1.366 . S
C1737 C1738 1.414 . S
C1737 C1740 1.499 . S
C1738 H1718 0.950 . S
C1738 C1737 1.414 . S
C1738 C1739 1.374 . S
C1739 H1719 0.950 . S
C1739 C1735 1.385 . S
C1739 C1738 1.374 . S
C1740 C1737 1.499 . S
C1740 C1741 1.373 . S
C1740 C1742 1.389 . S
C1741 H1720 0.950 . S
C1741 C1740 1.373 . S
C1741 C1757 1.377 . S
C1742 C1740 1.389 . S
C1742 C1743 1.524 . S
C1742 C1756 1.377 . S
C1743 C1742 1.524 . S
C1743 C1744 1.397 . S
C1743 C1748 1.363 . S
C1744 H1721 0.950 . S
C1744 C1743 1.397 . S
C1744 C1745 1.334 . S
C1745 H1722 0.950 . S
C1745 C1744 1.334 . S
C1745 C1746 1.287 . S
C1746 C1745 1.287 . S
C1746 C1747 1.524 . S
C1746 H1765 0.913 . S
C1747 H1723 0.950 . S
C1747 C1746 1.524 . S
C1747 C1748 1.415 . S
C1748 H1724 0.950 . S
C1748 C1743 1.363 . S
C1748 C1747 1.415 . S
C1749 H1725 0.951 . S
C1749 C1750 1.366 . S
C1749 C1751 1.388 . S
C1750 C1749 1.366 . S
C1750 C1754 1.385 . S
C1751 H1726 0.951 . S
C1751 C1749 1.388 . S
C1751 C1752 1.366 . S
C1752 C1751 1.366 . S
C1752 C1753 1.414 . S
C1752 C1755 1.499 . S
C1753 H1727 0.950 . S
C1753 C1752 1.414 . S
C1753 C1754 1.374 . S
C1754 H1728 0.950 . S
C1754 C1750 1.385 . S
C1754 C1753 1.374 . S
C1755 C1752 1.499 . S
C1755 C1756 1.373 . S
C1755 C1757 1.389 . S
C1756 H1729 0.950 . S
C1756 C1742 1.377 . S
C1756 C1755 1.373 . S
C1757 C1741 1.377 . S
C1757 C1755 1.389 . S
C1757 C1758 1.524 . S
C1758 C1757 1.524 . S
C1758 C1759 1.397 . S
C1758 C1763 1.363 . S
C1759 H1730 0.950 . S
C1759 C1758 1.397 . S
C1759 C1760 1.334 . S
C1760 H1731 0.950 . S
C1760 C1759 1.334 . S
C1760 C1761 1.287 . S
C1761 C1760 1.287 . S
C1761 C1762 1.524 . S
C1761 H1764 0.999 . S
C1762 H1732 0.950 . S
C1762 C1761 1.524 . S
C1762 C1763 1.415 . S
C1763 H1733 0.950 . S
C1763 C1758 1.363 . S
C1763 C1762 1.415 . S
H1764 C1761 0.999 . S
H1765 C1746 0.913 . S
H1766 C1784 0.951 . S
H1767 C1786 0.951 . S
H1768 C1788 0.950 1_545 S
H1769 C1789 0.950 . S
H1770 C1791 0.950 . S
H1771 C1794 0.950 . S
H1772 C1795 0.950 . S
H1773 C1797 0.950 . S
H1774 C1798 0.950 . S
H1775 C1799 0.951 . S
H1776 C1801 0.951 . S
H1777 C1803 0.950 1_565 S
H1778 C1804 0.950 . S
H1779 C1806 0.950 . S
H1780 C1809 0.950 . S
H1781 C1810 0.950 . S
H1782 C1812 0.950 . S
H1783 C1813 0.950 . S
C1784 H1766 0.951 . S
C1784 C1785 1.366 . S
C1784 C1786 1.388 . S
C1785 C1784 1.366 . S
C1785 C1789 1.385 . S
C1786 H1767 0.951 . S
C1786 C1784 1.388 . S
C1786 C1787 1.366 . S
C1787 C1786 1.366 . S
C1787 C1788 1.414 . S
C1787 C1790 1.499 . S
C1788 H1768 0.950 1_565 S
C1788 C1787 1.414 . S
C1788 C1789 1.374 . S
C1789 H1769 0.950 . S
C1789 C1785 1.385 . S
C1789 C1788 1.374 . S
C1790 C1787 1.499 . S
C1790 C1791 1.373 1_565 S
C1790 C1792 1.389 . S
C1791 H1770 0.950 . S
C1791 C1790 1.373 1_545 S
C1791 C1807 1.377 . S
C1792 C1790 1.389 . S
C1792 C1793 1.524 . S
C1792 C1806 1.377 . S
C1793 C1792 1.524 . S
C1793 C1794 1.397 . S
C1793 C1798 1.363 . S
C1794 H1771 0.950 . S
C1794 C1793 1.397 . S
C1794 C1795 1.334 . S
C1795 H1772 0.950 . S
C1795 C1794 1.334 . S
C1795 C1796 1.287 . S
C1796 C1795 1.287 . S
C1796 C1797 1.524 . S
C1796 H1815 0.913 . S
C1797 H1773 0.950 . S
C1797 C1796 1.524 . S
C1797 C1798 1.415 . S
C1798 H1774 0.950 . S
C1798 C1793 1.363 . S
C1798 C1797 1.415 . S
C1799 H1775 0.951 . S
C1799 C1800 1.366 . S
C1799 C1801 1.388 . S
C1800 C1799 1.366 . S
C1800 C1804 1.385 . S
C1801 H1776 0.951 . S
C1801 C1799 1.388 . S
C1801 C1802 1.366 . S
C1802 C1801 1.366 . S
C1802 C1803 1.414 . S
C1802 C1805 1.499 . S
C1803 H1777 0.950 1_545 S
C1803 C1802 1.414 . S
C1803 C1804 1.374 . S
C1804 H1778 0.950 . S
C1804 C1800 1.385 . S
C1804 C1803 1.374 . S
C1805 C1802 1.499 . S
C1805 C1806 1.373 1_545 S
C1805 C1807 1.389 . S
C1806 H1779 0.950 . S
C1806 C1792 1.377 . S
C1806 C1805 1.373 1_565 S
C1807 C1791 1.377 . S
C1807 C1805 1.389 . S
C1807 C1808 1.524 . S
C1808 C1807 1.524 . S
C1808 C1809 1.397 . S
C1808 C1813 1.363 . S
C1809 H1780 0.950 . S
C1809 C1808 1.397 . S
C1809 C1810 1.334 . S
C1810 H1781 0.950 . S
C1810 C1809 1.334 . S
C1810 C1811 1.287 . S
C1811 C1810 1.287 . S
C1811 C1812 1.524 . S
C1811 H1814 0.999 . S
C1812 H1782 0.950 . S
C1812 C1811 1.524 . S
C1812 C1813 1.415 . S
C1813 H1783 0.950 . S
C1813 C1808 1.363 . S
C1813 C1812 1.415 . S
H1814 C1811 0.999 . S
H1815 C1796 0.913 . S
H1816 C1834 0.951 . S
H1817 C1836 0.951 . S
H1818 C1838 0.950 . S
H1819 C1839 0.950 . S
H1820 C1841 0.950 . S
H1821 C1844 0.950 . S
H1822 C1845 0.950 . S
H1823 C1847 0.950 . S
H1824 C1848 0.950 . S
H1825 C1849 0.951 . S
H1826 C1851 0.951 . S
H1827 C1853 0.950 . S
H1828 C1854 0.950 . S
H1829 C1856 0.950 . S
H1830 C1859 0.950 . S
H1831 C1860 0.950 . S
H1832 C1862 0.950 . S
H1833 C1863 0.950 . S
C1834 H1816 0.951 . S
C1834 C1835 1.366 . S
C1834 C1836 1.388 . S
C1835 C1834 1.366 . S
C1835 C1839 1.385 . S
C1836 H1817 0.951 . S
C1836 C1834 1.388 . S
C1836 C1837 1.366 . S
C1837 C1836 1.366 . S
C1837 C1838 1.414 . S
C1837 C1840 1.499 . S
C1838 H1818 0.950 . S
C1838 C1837 1.414 . S
C1838 C1839 1.374 . S
C1839 H1819 0.950 . S
C1839 C1835 1.385 . S
C1839 C1838 1.374 . S
C1840 C1837 1.499 . S
C1840 C1841 1.373 . S
C1840 C1842 1.389 . S
C1841 H1820 0.950 . S
C1841 C1840 1.373 . S
C1841 C1857 1.377 . S
C1842 C1840 1.389 . S
C1842 C1843 1.524 . S
C1842 C1856 1.377 . S
C1843 C1842 1.524 . S
C1843 C1844 1.397 . S
C1843 C1848 1.363 . S
C1844 H1821 0.950 . S
C1844 C1843 1.397 . S
C1844 C1845 1.334 . S
C1845 H1822 0.950 . S
C1845 C1844 1.334 . S
C1845 C1846 1.287 . S
C1846 C1845 1.287 . S
C1846 C1847 1.524 . S
C1846 H1865 0.913 . S
C1847 H1823 0.950 . S
C1847 C1846 1.524 . S
C1847 C1848 1.415 . S
C1848 H1824 0.950 . S
C1848 C1843 1.363 . S
C1848 C1847 1.415 . S
C1849 H1825 0.951 . S
C1849 C1850 1.366 . S
C1849 C1851 1.388 . S
C1850 C1849 1.366 . S
C1850 C1854 1.385 . S
C1851 H1826 0.951 . S
C1851 C1849 1.388 . S
C1851 C1852 1.366 . S
C1852 C1851 1.366 . S
C1852 C1853 1.414 . S
C1852 C1855 1.499 . S
C1853 H1827 0.950 . S
C1853 C1852 1.414 . S
C1853 C1854 1.374 . S
C1854 H1828 0.950 . S
C1854 C1850 1.385 . S
C1854 C1853 1.374 . S
C1855 C1852 1.499 . S
C1855 C1856 1.373 . S
C1855 C1857 1.389 . S
C1856 H1829 0.950 . S
C1856 C1842 1.377 . S
C1856 C1855 1.373 . S
C1857 C1841 1.377 . S
C1857 C1855 1.389 . S
C1857 C1858 1.524 . S
C1858 C1857 1.524 . S
C1858 C1859 1.397 . S
C1858 C1863 1.363 . S
C1859 H1830 0.950 . S
C1859 C1858 1.397 . S
C1859 C1860 1.334 . S
C1860 H1831 0.950 . S
C1860 C1859 1.334 . S
C1860 C1861 1.287 . S
C1861 C1860 1.287 . S
C1861 C1862 1.524 . S
C1861 H1864 0.999 . S
C1862 H1832 0.950 . S
C1862 C1861 1.524 . S
C1862 C1863 1.415 . S
C1863 H1833 0.950 . S
C1863 C1858 1.363 . S
C1863 C1862 1.415 . S
H1864 C1861 0.999 . S
H1865 C1846 0.913 . S
H1866 C1884 0.951 . S
H1867 C1886 0.951 . S
H1868 C1888 0.950 . S
H1869 C1889 0.950 . S
H1870 C1891 0.950 . S
H1871 C1894 0.950 . S
H1872 C1895 0.950 . S
H1873 C1897 0.950 . S
H1874 C1898 0.950 . S
H1875 C1899 0.951 . S
H1876 C1901 0.951 . S
H1877 C1903 0.950 . S
H1878 C1904 0.950 . S
H1879 C1906 0.950 . S
H1880 C1909 0.950 . S
H1881 C1910 0.950 . S
H1882 C1912 0.950 . S
H1883 C1913 0.950 . S
C1884 H1866 0.951 . S
C1884 C1885 1.366 . S
C1884 C1886 1.388 . S
C1885 C1884 1.366 . S
C1885 C1889 1.385 . S
C1886 H1867 0.951 . S
C1886 C1884 1.388 . S
C1886 C1887 1.366 . S
C1887 C1886 1.366 . S
C1887 C1888 1.414 . S
C1887 C1890 1.499 . S
C1888 H1868 0.950 . S
C1888 C1887 1.414 . S
C1888 C1889 1.374 . S
C1889 H1869 0.950 . S
C1889 C1885 1.385 . S
C1889 C1888 1.374 . S
C1890 C1887 1.499 . S
C1890 C1891 1.373 . S
C1890 C1892 1.389 . S
C1891 H1870 0.950 . S
C1891 C1890 1.373 . S
C1891 C1907 1.377 . S
C1892 C1890 1.389 . S
C1892 C1893 1.524 . S
C1892 C1906 1.377 . S
C1893 C1892 1.524 . S
C1893 C1894 1.397 . S
C1893 C1898 1.363 . S
C1894 H1871 0.950 . S
C1894 C1893 1.397 . S
C1894 C1895 1.334 . S
C1895 H1872 0.950 . S
C1895 C1894 1.334 . S
C1895 C1896 1.287 . S
C1896 C1895 1.287 . S
C1896 C1897 1.524 . S
C1896 H1915 0.913 . S
C1897 H1873 0.950 . S
C1897 C1896 1.524 . S
C1897 C1898 1.415 . S
C1898 H1874 0.950 . S
C1898 C1893 1.363 . S
C1898 C1897 1.415 . S
C1899 H1875 0.951 . S
C1899 C1900 1.366 . S
C1899 C1901 1.388 . S
C1900 C1899 1.366 . S
C1900 C1904 1.385 . S
C1901 H1876 0.951 . S
C1901 C1899 1.388 . S
C1901 C1902 1.366 . S
C1902 C1901 1.366 . S
C1902 C1903 1.414 . S
C1902 C1905 1.499 . S
C1903 H1877 0.950 . S
C1903 C1902 1.414 . S
C1903 C1904 1.374 . S
C1904 H1878 0.950 . S
C1904 C1900 1.385 . S
C1904 C1903 1.374 . S
C1905 C1902 1.499 . S
C1905 C1906 1.373 . S
C1905 C1907 1.389 . S
C1906 H1879 0.950 . S
C1906 C1892 1.377 . S
C1906 C1905 1.373 . S
C1907 C1891 1.377 . S
C1907 C1905 1.389 . S
C1907 C1908 1.524 . S
C1908 C1907 1.524 . S
C1908 C1909 1.397 . S
C1908 C1913 1.363 . S
C1909 H1880 0.950 . S
C1909 C1908 1.397 . S
C1909 C1910 1.334 . S
C1910 H1881 0.950 . S
C1910 C1909 1.334 . S
C1910 C1911 1.287 . S
C1911 C1910 1.287 . S
C1911 C1912 1.524 . S
C1911 H1914 0.999 . S
C1912 H1882 0.950 . S
C1912 C1911 1.524 . S
C1912 C1913 1.415 . S
C1913 H1883 0.950 . S
C1913 C1908 1.363 . S
C1913 C1912 1.415 . S
H1914 C1911 0.999 . S
H1915 C1896 0.913 . S
H1916 C1934 0.951 . S
H1917 C1936 0.951 . S
H1918 C1938 0.950 . S
H1919 C1939 0.950 . S
H1920 C1941 0.950 . S
H1921 C1944 0.950 . S
H1922 C1945 0.950 . S
H1923 C1947 0.950 . S
H1924 C1948 0.950 . S
H1925 C1949 0.951 . S
H1926 C1951 0.951 . S
H1927 C1953 0.950 . S
H1928 C1954 0.950 . S
H1929 C1956 0.950 . S
H1930 C1959 0.950 . S
H1931 C1960 0.950 . S
H1932 C1962 0.950 . S
H1933 C1963 0.950 . S
C1934 H1916 0.951 . S
C1934 C1935 1.366 . S
C1934 C1936 1.388 . S
C1935 C1934 1.366 . S
C1935 C1939 1.385 . S
C1936 H1917 0.951 . S
C1936 C1934 1.388 . S
C1936 C1937 1.366 . S
C1937 C1936 1.366 . S
C1937 C1938 1.414 . S
C1937 C1940 1.499 . S
C1938 H1918 0.950 . S
C1938 C1937 1.414 . S
C1938 C1939 1.374 . S
C1939 H1919 0.950 . S
C1939 C1935 1.385 . S
C1939 C1938 1.374 . S
C1940 C1937 1.499 . S
C1940 C1941 1.373 . S
C1940 C1942 1.389 . S
C1941 H1920 0.950 . S
C1941 C1940 1.373 . S
C1941 C1957 1.377 . S
C1942 C1940 1.389 . S
C1942 C1943 1.524 . S
C1942 C1956 1.377 . S
C1943 C1942 1.524 . S
C1943 C1944 1.397 . S
C1943 C1948 1.363 . S
C1944 H1921 0.950 . S
C1944 C1943 1.397 . S
C1944 C1945 1.334 . S
C1945 H1922 0.950 . S
C1945 C1944 1.334 . S
C1945 C1946 1.287 . S
C1946 C1945 1.287 . S
C1946 C1947 1.524 . S
C1946 H1965 0.913 . S
C1947 H1923 0.950 . S
C1947 C1946 1.524 . S
C1947 C1948 1.415 . S
C1948 H1924 0.950 . S
C1948 C1943 1.363 . S
C1948 C1947 1.415 . S
C1949 H1925 0.951 . S
C1949 C1950 1.366 . S
C1949 C1951 1.388 . S
C1950 C1949 1.366 . S
C1950 C1954 1.385 . S
C1951 H1926 0.951 . S
C1951 C1949 1.388 . S
C1951 C1952 1.366 . S
C1952 C1951 1.366 . S
C1952 C1953 1.414 . S
C1952 C1955 1.499 . S
C1953 H1927 0.950 . S
C1953 C1952 1.414 . S
C1953 C1954 1.374 . S
C1954 H1928 0.950 . S
C1954 C1950 1.385 . S
C1954 C1953 1.374 . S
C1955 C1952 1.499 . S
C1955 C1956 1.373 . S
C1955 C1957 1.389 . S
C1956 H1929 0.950 . S
C1956 C1942 1.377 . S
C1956 C1955 1.373 . S
C1957 C1941 1.377 . S
C1957 C1955 1.389 . S
C1957 C1958 1.524 . S
C1958 C1957 1.524 . S
C1958 C1959 1.397 . S
C1958 C1963 1.363 . S
C1959 H1930 0.950 . S
C1959 C1958 1.397 . S
C1959 C1960 1.334 . S
C1960 H1931 0.950 . S
C1960 C1959 1.334 . S
C1960 C1961 1.287 . S
C1961 C1960 1.287 . S
C1961 C1962 1.524 . S
C1961 H1964 0.999 . S
C1962 H1932 0.950 . S
C1962 C1961 1.524 . S
C1962 C1963 1.415 . S
C1963 H1933 0.950 . S
C1963 C1958 1.363 . S
C1963 C1962 1.415 . S
H1964 C1961 0.999 . S
H1965 C1946 0.913 . S
H1966 C1984 0.951 . S
H1967 C1986 0.951 . S
H1968 C1988 0.950 . S
H1969 C1989 0.950 . S
H1970 C1991 0.950 . S
H1971 C1994 0.950 . S
H1972 C1995 0.950 . S
H1973 C1997 0.950 . S
H1974 C1998 0.950 . S
H1975 C1999 0.951 . S
H1976 C2001 0.951 . S
H1977 C2003 0.950 . S
H1978 C2004 0.950 . S
H1979 C2006 0.950 . S
H1980 C2009 0.950 . S
H1981 C2010 0.950 . S
H1982 C2012 0.950 . S
H1983 C2013 0.950 . S
C1984 H1966 0.951 . S
C1984 C1985 1.366 . S
C1984 C1986 1.388 . S
C1985 C1984 1.366 . S
C1985 C1989 1.385 . S
C1986 H1967 0.951 . S
C1986 C1984 1.388 . S
C1986 C1987 1.366 . S
C1987 C1986 1.366 . S
C1987 C1988 1.414 . S
C1987 C1990 1.499 . S
C1988 H1968 0.950 . S
C1988 C1987 1.414 . S
C1988 C1989 1.374 . S
C1989 H1969 0.950 . S
C1989 C1985 1.385 . S
C1989 C1988 1.374 . S
C1990 C1987 1.499 . S
C1990 C1991 1.373 1_556 S
C1990 C1992 1.389 1_545 S
C1991 H1970 0.950 . S
C1991 C1990 1.373 1_554 S
C1991 C2007 1.377 . S
C1992 C1990 1.389 1_565 S
C1992 C1993 1.524 . S
C1992 C2006 1.377 . S
C1993 C1992 1.524 . S
C1993 C1994 1.397 . S
C1993 C1998 1.363 . S
C1994 H1971 0.950 . S
C1994 C1993 1.397 . S
C1994 C1995 1.334 . S
C1995 H1972 0.950 . S
C1995 C1994 1.334 . S
C1995 C1996 1.287 . S
C1996 C1995 1.287 . S
C1996 C1997 1.524 . S
C1996 H2015 0.913 . S
C1997 H1973 0.950 . S
C1997 C1996 1.524 . S
C1997 C1998 1.415 . S
C1998 H1974 0.950 . S
C1998 C1993 1.363 . S
C1998 C1997 1.415 . S
C1999 H1975 0.951 . S
C1999 C2000 1.366 . S
C1999 C2001 1.388 . S
C2000 C1999 1.366 . S
C2000 C2004 1.385 . S
C2001 H1976 0.951 . S
C2001 C1999 1.388 . S
C2001 C2002 1.366 . S
C2002 C2001 1.366 . S
C2002 C2003 1.414 . S
C2002 C2005 1.499 . S
C2003 H1977 0.950 . S
C2003 C2002 1.414 . S
C2003 C2004 1.374 . S
C2004 H1978 0.950 . S
C2004 C2000 1.385 . S
C2004 C2003 1.374 . S
C2005 C2002 1.499 . S
C2005 C2006 1.373 1_554 S
C2005 C2007 1.389 1_565 S
C2006 H1979 0.950 . S
C2006 C1992 1.377 . S
C2006 C2005 1.373 1_556 S
C2007 C1991 1.377 . S
C2007 C2005 1.389 1_545 S
C2007 C2008 1.524 . S
C2008 C2007 1.524 . S
C2008 C2009 1.397 . S
C2008 C2013 1.363 . S
C2009 H1980 0.950 . S
C2009 C2008 1.397 . S
C2009 C2010 1.334 . S
C2010 H1981 0.950 . S
C2010 C2009 1.334 . S
C2010 C2011 1.287 . S
C2011 C2010 1.287 . S
C2011 C2012 1.524 . S
C2011 H2014 0.999 . S
C2012 H1982 0.950 . S
C2012 C2011 1.524 . S
C2012 C2013 1.415 . S
C2013 H1983 0.950 . S
C2013 C2008 1.363 . S
C2013 C2012 1.415 . S
H2014 C2011 0.999 . S
H2015 C1996 0.913 . S
H2016 C2034 0.951 . S
H2017 C2036 0.951 . S
H2018 C2038 0.950 . S
H2019 C2039 0.950 . S
H2020 C2041 0.950 . S
H2021 C2044 0.950 . S
H2022 C2045 0.950 . S
H2023 C2047 0.950 . S
H2024 C2048 0.950 . S
H2025 C2049 0.951 . S
H2026 C2051 0.951 . S
H2027 C2053 0.950 . S
H2028 C2054 0.950 . S
H2029 C2056 0.950 . S
H2030 C2059 0.950 . S
H2031 C2060 0.950 . S
H2032 C2062 0.950 . S
H2033 C2063 0.950 . S
C2034 H2016 0.951 . S
C2034 C2035 1.366 . S
C2034 C2036 1.388 . S
C2035 C2034 1.366 . S
C2035 C2039 1.385 . S
C2036 H2017 0.951 . S
C2036 C2034 1.388 . S
C2036 C2037 1.366 . S
C2037 C2036 1.366 . S
C2037 C2038 1.414 . S
C2037 C2040 1.499 . S
C2038 H2018 0.950 . S
C2038 C2037 1.414 . S
C2038 C2039 1.374 . S
C2039 H2019 0.950 . S
C2039 C2035 1.385 . S
C2039 C2038 1.374 . S
C2040 C2037 1.499 . S
C2040 C2041 1.373 . S
C2040 C2042 1.389 . S
C2041 H2020 0.950 . S
C2041 C2040 1.373 . S
C2041 C2057 1.377 . S
C2042 C2040 1.389 . S
C2042 C2043 1.524 . S
C2042 C2056 1.377 . S
C2043 C2042 1.524 . S
C2043 C2044 1.397 . S
C2043 C2048 1.363 . S
C2044 H2021 0.950 . S
C2044 C2043 1.397 . S
C2044 C2045 1.334 . S
C2045 H2022 0.950 . S
C2045 C2044 1.334 . S
C2045 C2046 1.287 . S
C2046 C2045 1.287 . S
C2046 C2047 1.524 . S
C2046 H2065 0.913 . S
C2047 H2023 0.950 . S
C2047 C2046 1.524 . S
C2047 C2048 1.415 . S
C2048 H2024 0.950 . S
C2048 C2043 1.363 . S
C2048 C2047 1.415 . S
C2049 H2025 0.951 . S
C2049 C2050 1.366 . S
C2049 C2051 1.388 . S
C2050 C2049 1.366 . S
C2050 C2054 1.385 . S
C2051 H2026 0.951 . S
C2051 C2049 1.388 . S
C2051 C2052 1.366 . S
C2052 C2051 1.366 . S
C2052 C2053 1.414 . S
C2052 C2055 1.499 . S
C2053 H2027 0.950 . S
C2053 C2052 1.414 . S
C2053 C2054 1.374 . S
C2054 H2028 0.950 . S
C2054 C2050 1.385 . S
C2054 C2053 1.374 . S
C2055 C2052 1.499 . S
C2055 C2056 1.373 . S
C2055 C2057 1.389 . S
C2056 H2029 0.950 . S
C2056 C2042 1.377 . S
C2056 C2055 1.373 . S
C2057 C2041 1.377 . S
C2057 C2055 1.389 . S
C2057 C2058 1.524 . S
C2058 C2057 1.524 . S
C2058 C2059 1.397 . S
C2058 C2063 1.363 . S
C2059 H2030 0.950 . S
C2059 C2058 1.397 . S
C2059 C2060 1.334 . S
C2060 H2031 0.950 . S
C2060 C2059 1.334 . S
C2060 C2061 1.287 . S
C2061 C2060 1.287 . S
C2061 C2062 1.524 . S
C2061 H2064 0.999 . S
C2062 H2032 0.950 . S
C2062 C2061 1.524 . S
C2062 C2063 1.415 . S
C2063 H2033 0.950 . S
C2063 C2058 1.363 . S
C2063 C2062 1.415 . S
H2064 C2061 0.999 . S
H2065 C2046 0.913 . S
H2066 C2084 0.951 . S
H2067 C2086 0.951 . S
H2068 C2088 0.950 . S
H2069 C2089 0.950 . S
H2070 C2091 0.950 . S
H2071 C2094 0.950 . S
H2072 C2095 0.935 1_545 S
H2073 C2097 0.950 . S
H2074 C2098 0.950 . S
H2075 C2099 0.951 . S
H2076 C2101 0.951 . S
H2077 C2103 0.950 . S
H2078 C2104 0.950 . S
H2079 C2106 0.950 . S
H2080 C2109 0.950 . S
H2081 C2110 0.950 . S
H2082 C2112 0.950 . S
H2083 C2113 0.950 . S
C2084 H2066 0.951 . S
C2084 C2085 1.366 . S
C2084 C2086 1.388 . S
C2085 C2084 1.366 . S
C2085 C2089 1.385 . S
C2086 H2067 0.951 . S
C2086 C2084 1.388 . S
C2086 C2087 1.366 . S
C2087 C2086 1.366 . S
C2087 C2088 1.414 . S
C2087 C2090 1.499 . S
C2088 H2068 0.950 . S
C2088 C2087 1.414 . S
C2088 C2089 1.374 . S
C2089 H2069 0.950 . S
C2089 C2085 1.385 . S
C2089 C2088 1.374 . S
C2090 C2087 1.499 . S
C2090 C2091 1.373 . S
C2090 C2092 1.389 . S
C2091 H2070 0.950 . S
C2091 C2090 1.373 . S
C2091 C2107 1.377 . S
C2092 C2090 1.389 . S
C2092 C2093 1.524 . S
C2092 C2106 1.377 . S
C2093 C2092 1.524 . S
C2093 C2094 1.397 . S
C2093 C2098 1.363 . S
C2094 H2071 0.950 . S
C2094 C2093 1.397 . S
C2094 C2095 1.334 . S
C2095 H2072 0.935 1_565 S
C2095 C2094 1.334 . S
C2095 C2096 1.287 . S
C2096 C2095 1.287 . S
C2096 C2097 1.524 . S
C2096 H2115 0.913 1_565 S
C2097 H2073 0.950 . S
C2097 C2096 1.524 . S
C2097 C2098 1.415 . S
C2098 H2074 0.950 . S
C2098 C2093 1.363 . S
C2098 C2097 1.415 . S
C2099 H2075 0.951 . S
C2099 C2100 1.366 . S
C2099 C2101 1.388 . S
C2100 C2099 1.366 . S
C2100 C2104 1.385 . S
C2101 H2076 0.951 . S
C2101 C2099 1.388 . S
C2101 C2102 1.366 . S
C2102 C2101 1.366 . S
C2102 C2103 1.414 . S
C2102 C2105 1.499 . S
C2103 H2077 0.950 . S
C2103 C2102 1.414 . S
C2103 C2104 1.374 . S
C2104 H2078 0.950 . S
C2104 C2100 1.385 . S
C2104 C2103 1.374 . S
C2105 C2102 1.499 . S
C2105 C2106 1.373 . S
C2105 C2107 1.389 . S
C2106 H2079 0.950 . S
C2106 C2092 1.377 . S
C2106 C2105 1.373 . S
C2107 C2091 1.377 . S
C2107 C2105 1.389 . S
C2107 C2108 1.524 . S
C2108 C2107 1.524 . S
C2108 C2109 1.397 . S
C2108 C2113 1.363 . S
C2109 H2080 0.950 . S
C2109 C2108 1.397 . S
C2109 C2110 1.334 . S
C2110 H2081 0.950 . S
C2110 C2109 1.334 . S
C2110 C2111 1.287 . S
C2111 C2110 1.287 . S
C2111 C2112 1.524 . S
C2111 H2114 0.999 . S
C2112 H2082 0.950 . S
C2112 C2111 1.524 . S
C2112 C2113 1.415 . S
C2113 H2083 0.950 . S
C2113 C2108 1.363 . S
C2113 C2112 1.415 . S
H2114 C2111 0.999 . S
H2115 C2096 0.913 1_545 S
H2116 C2134 0.951 . S
H2117 C2136 0.951 . S
H2118 C2138 0.950 . S
H2119 C2139 0.950 . S
H2120 C2141 0.950 . S
H2121 C2144 0.950 . S
H2122 C2145 0.950 . S
H2123 C2147 0.950 . S
H2124 C2148 0.950 . S
H2125 C2149 0.951 . S
H2126 C2151 0.951 . S
H2127 C2153 0.950 . S
H2128 C2154 0.950 . S
H2129 C2156 0.950 . S
H2130 C2159 0.950 . S
H2131 C2160 0.950 . S
H2132 C2162 0.950 . S
H2133 C2163 0.950 . S
C2134 H2116 0.951 . S
C2134 C2135 1.366 . S
C2134 C2136 1.388 . S
C2135 C2134 1.366 . S
C2135 C2139 1.385 . S
C2136 H2117 0.951 . S
C2136 C2134 1.388 . S
C2136 C2137 1.366 . S
C2137 C2136 1.366 . S
C2137 C2138 1.414 . S
C2137 C2140 1.499 . S
C2138 H2118 0.950 . S
C2138 C2137 1.414 . S
C2138 C2139 1.374 . S
C2139 H2119 0.950 . S
C2139 C2135 1.385 . S
C2139 C2138 1.374 . S
C2140 C2137 1.499 . S
C2140 C2141 1.373 . S
C2140 C2142 1.389 . S
C2141 H2120 0.950 . S
C2141 C2140 1.373 . S
C2141 C2157 1.377 . S
C2142 C2140 1.389 . S
C2142 C2143 1.524 . S
C2142 C2156 1.377 . S
C2143 C2142 1.524 . S
C2143 C2144 1.397 . S
C2143 C2148 1.363 . S
C2144 H2121 0.950 . S
C2144 C2143 1.397 . S
C2144 C2145 1.334 . S
C2145 H2122 0.950 . S
C2145 C2144 1.334 . S
C2145 C2146 1.287 . S
C2146 C2145 1.287 . S
C2146 C2147 1.524 . S
C2146 H2165 0.913 . S
C2147 H2123 0.950 . S
C2147 C2146 1.524 . S
C2147 C2148 1.415 . S
C2148 H2124 0.950 . S
C2148 C2143 1.363 . S
C2148 C2147 1.415 . S
C2149 H2125 0.951 . S
C2149 C2150 1.366 . S
C2149 C2151 1.388 . S
C2150 C2149 1.366 . S
C2150 C2154 1.385 . S
C2151 H2126 0.951 . S
C2151 C2149 1.388 . S
C2151 C2152 1.366 . S
C2152 C2151 1.366 . S
C2152 C2153 1.414 . S
C2152 C2155 1.499 . S
C2153 H2127 0.950 . S
C2153 C2152 1.414 . S
C2153 C2154 1.374 . S
C2154 H2128 0.950 . S
C2154 C2150 1.385 . S
C2154 C2153 1.374 . S
C2155 C2152 1.499 . S
C2155 C2156 1.373 . S
C2155 C2157 1.389 . S
C2156 H2129 0.950 . S
C2156 C2142 1.377 . S
C2156 C2155 1.373 . S
C2157 C2141 1.377 . S
C2157 C2155 1.389 . S
C2157 C2158 1.524 . S
C2158 C2157 1.524 . S
C2158 C2159 1.397 . S
C2158 C2163 1.363 . S
C2159 H2130 0.950 . S
C2159 C2158 1.397 . S
C2159 C2160 1.334 . S
C2160 H2131 0.950 . S
C2160 C2159 1.334 . S
C2160 C2161 1.287 . S
C2161 C2160 1.287 . S
C2161 C2162 1.524 . S
C2161 H2164 0.999 . S
C2162 H2132 0.950 . S
C2162 C2161 1.524 . S
C2162 C2163 1.415 . S
C2163 H2133 0.950 . S
C2163 C2158 1.363 . S
C2163 C2162 1.415 . S
H2164 C2161 0.999 . S
H2165 C2146 0.913 . S
H2166 C2184 0.951 . S
H2167 C2186 0.951 . S
H2168 C2188 0.950 . S
H2169 C2189 0.950 . S
H2170 C2191 0.950 . S
H2171 C2194 0.950 . S
H2172 C2195 0.950 . S
H2173 C2197 0.950 . S
H2174 C2198 0.950 . S
H2175 C2199 0.951 . S
H2176 C2201 0.951 . S
H2177 C2203 0.950 . S
H2178 C2204 0.950 . S
H2179 C2206 0.950 . S
H2180 C2209 0.950 . S
H2181 C2210 0.956 . S
H2182 C2212 0.950 . S
H2183 C2213 0.950 . S
C2184 H2166 0.951 . S
C2184 C2185 1.366 . S
C2184 C2186 1.388 . S
C2185 C2184 1.366 . S
C2185 C2189 1.385 . S
C2186 H2167 0.951 . S
C2186 C2184 1.388 . S
C2186 C2187 1.366 . S
C2187 C2186 1.366 . S
C2187 C2188 1.414 . S
C2187 C2190 1.499 . S
C2188 H2168 0.950 . S
C2188 C2187 1.414 . S
C2188 C2189 1.374 . S
C2189 H2169 0.950 . S
C2189 C2185 1.385 . S
C2189 C2188 1.374 . S
C2190 C2187 1.499 . S
C2190 C2191 1.373 . S
C2190 C2192 1.389 . S
C2191 H2170 0.950 . S
C2191 C2190 1.373 . S
C2191 C2207 1.377 . S
C2192 C2190 1.389 . S
C2192 C2193 1.524 . S
C2192 C2206 1.377 . S
C2193 C2192 1.524 . S
C2193 C2194 1.397 . S
C2193 C2198 1.363 . S
C2194 H2171 0.950 . S
C2194 C2193 1.397 . S
C2194 C2195 1.334 . S
C2195 H2172 0.950 . S
C2195 C2194 1.334 . S
C2195 C2196 1.287 . S
C2196 C2195 1.287 . S
C2196 C2197 1.524 . S
C2196 H2215 0.913 . S
C2197 H2173 0.950 . S
C2197 C2196 1.524 . S
C2197 C2198 1.415 . S
C2198 H2174 0.950 . S
C2198 C2193 1.363 . S
C2198 C2197 1.415 . S
C2199 H2175 0.951 . S
C2199 C2200 1.366 . S
C2199 C2201 1.388 . S
C2200 C2199 1.366 . S
C2200 C2204 1.385 . S
C2201 H2176 0.951 . S
C2201 C2199 1.388 . S
C2201 C2202 1.366 . S
C2202 C2201 1.366 . S
C2202 C2203 1.414 . S
C2202 C2205 1.499 . S
C2203 H2177 0.950 . S
C2203 C2202 1.414 . S
C2203 C2204 1.374 . S
C2204 H2178 0.950 . S
C2204 C2200 1.385 . S
C2204 C2203 1.374 . S
C2205 C2202 1.499 . S
C2205 C2206 1.373 . S
C2205 C2207 1.389 . S
C2206 H2179 0.950 . S
C2206 C2192 1.377 . S
C2206 C2205 1.373 . S
C2207 C2191 1.377 . S
C2207 C2205 1.389 . S
C2207 C2208 1.524 . S
C2208 C2207 1.524 . S
C2208 C2209 1.397 . S
C2208 C2213 1.363 . S
C2209 H2180 0.950 . S
C2209 C2208 1.397 . S
C2209 C2210 1.334 . S
C2210 H2181 0.956 . S
C2210 C2209 1.334 . S
C2210 C2211 1.287 . S
C2211 C2210 1.287 . S
C2211 C2212 1.524 . S
C2211 H2214 0.999 1_545 S
C2212 H2182 0.950 . S
C2212 C2211 1.524 . S
C2212 C2213 1.415 . S
C2213 H2183 0.950 . S
C2213 C2208 1.363 . S
C2213 C2212 1.415 . S
H2214 C2211 0.999 1_565 S
H2215 C2196 0.913 . S
H2216 C2234 0.951 . S
H2217 C2236 0.951 . S
H2218 C2238 0.950 . S
H2219 C2239 0.950 . S
H2220 C2241 0.950 . S
H2221 C2244 0.950 . S
H2222 C2245 0.950 . S
H2223 C2247 0.950 . S
H2224 C2248 0.950 . S
H2225 C2249 0.951 . S
H2226 C2251 0.951 . S
H2227 C2253 0.950 . S
H2228 C2254 0.950 . S
H2229 C2256 0.950 . S
H2230 C2259 0.950 . S
H2231 C2260 0.950 . S
H2232 C2262 0.950 . S
H2233 C2263 0.950 . S
C2234 H2216 0.951 . S
C2234 C2235 1.366 . S
C2234 C2236 1.388 . S
C2235 C2234 1.366 . S
C2235 C2239 1.385 . S
C2236 H2217 0.951 . S
C2236 C2234 1.388 . S
C2236 C2237 1.366 . S
C2237 C2236 1.366 . S
C2237 C2238 1.414 . S
C2237 C2240 1.499 . S
C2238 H2218 0.950 . S
C2238 C2237 1.414 . S
C2238 C2239 1.374 . S
C2239 H2219 0.950 . S
C2239 C2235 1.385 . S
C2239 C2238 1.374 . S
C2240 C2237 1.499 . S
C2240 C2241 1.373 . S
C2240 C2242 1.389 . S
C2241 H2220 0.950 . S
C2241 C2240 1.373 . S
C2241 C2257 1.377 . S
C2242 C2240 1.389 . S
C2242 C2243 1.524 . S
C2242 C2256 1.377 . S
C2243 C2242 1.524 . S
C2243 C2244 1.397 . S
C2243 C2248 1.363 . S
C2244 H2221 0.950 . S
C2244 C2243 1.397 . S
C2244 C2245 1.334 . S
C2245 H2222 0.950 . S
C2245 C2244 1.334 . S
C2245 C2246 1.287 . S
C2246 C2245 1.287 . S
C2246 C2247 1.524 . S
C2246 H2265 0.913 . S
C2247 H2223 0.950 . S
C2247 C2246 1.524 . S
C2247 C2248 1.415 . S
C2248 H2224 0.950 . S
C2248 C2243 1.363 . S
C2248 C2247 1.415 . S
C2249 H2225 0.951 . S
C2249 C2250 1.366 . S
C2249 C2251 1.388 . S
C2250 C2249 1.366 . S
C2250 C2254 1.385 . S
C2251 H2226 0.951 . S
C2251 C2249 1.388 . S
C2251 C2252 1.366 . S
C2252 C2251 1.366 . S
C2252 C2253 1.414 . S
C2252 C2255 1.499 . S
C2253 H2227 0.950 . S
C2253 C2252 1.414 . S
C2253 C2254 1.374 . S
C2254 H2228 0.950 . S
C2254 C2250 1.385 . S
C2254 C2253 1.374 . S
C2255 C2252 1.499 . S
C2255 C2256 1.373 . S
C2255 C2257 1.389 . S
C2256 H2229 0.950 . S
C2256 C2242 1.377 . S
C2256 C2255 1.373 . S
C2257 C2241 1.377 . S
C2257 C2255 1.389 . S
C2257 C2258 1.524 . S
C2258 C2257 1.524 . S
C2258 C2259 1.397 . S
C2258 C2263 1.363 . S
C2259 H2230 0.950 . S
C2259 C2258 1.397 . S
C2259 C2260 1.334 . S
C2260 H2231 0.950 . S
C2260 C2259 1.334 . S
C2260 C2261 1.287 . S
C2261 C2260 1.287 . S
C2261 C2262 1.524 . S
C2261 H2264 0.999 . S
C2262 H2232 0.950 . S
C2262 C2261 1.524 . S
C2262 C2263 1.415 . S
C2263 H2233 0.950 . S
C2263 C2258 1.363 . S
C2263 C2262 1.415 . S
H2264 C2261 0.999 . S
H2265 C2246 0.913 . S
H2266 C2284 0.951 . S
H2267 C2286 0.951 . S
H2268 C2288 0.950 . S
H2269 C2289 0.950 . S
H2270 C2291 0.950 . S
H2271 C2294 0.950 . S
H2272 C2295 0.950 . S
H2273 C2297 0.950 . S
H2274 C2298 0.950 . S
H2275 C2299 0.951 . S
H2276 C2301 0.951 . S
H2277 C2303 0.950 . S
H2278 C2304 0.950 . S
H2279 C2306 0.950 . S
H2280 C2309 0.950 . S
H2281 C2310 0.950 . S
H2282 C2312 0.950 . S
H2283 C2313 0.950 . S
C2284 H2266 0.951 . S
C2284 C2285 1.366 . S
C2284 C2286 1.388 . S
C2285 C2284 1.366 . S
C2285 C2289 1.385 . S
C2286 H2267 0.951 . S
C2286 C2284 1.388 . S
C2286 C2287 1.366 . S
C2287 C2286 1.366 . S
C2287 C2288 1.414 . S
C2287 C2290 1.499 . S
C2288 H2268 0.950 . S
C2288 C2287 1.414 . S
C2288 C2289 1.374 . S
C2289 H2269 0.950 . S
C2289 C2285 1.385 . S
C2289 C2288 1.374 . S
C2290 C2287 1.499 . S
C2290 C2291 1.373 . S
C2290 C2292 1.389 . S
C2291 H2270 0.950 . S
C2291 C2290 1.373 . S
C2291 C2307 1.377 . S
C2292 C2290 1.389 . S
C2292 C2293 1.524 . S
C2292 C2306 1.377 . S
C2293 C2292 1.524 . S
C2293 C2294 1.397 . S
C2293 C2298 1.363 . S
C2294 H2271 0.950 . S
C2294 C2293 1.397 . S
C2294 C2295 1.334 . S
C2295 H2272 0.950 . S
C2295 C2294 1.334 . S
C2295 C2296 1.287 . S
C2296 C2295 1.287 . S
C2296 C2297 1.524 . S
C2296 H2315 0.913 . S
C2297 H2273 0.950 . S
C2297 C2296 1.524 . S
C2297 C2298 1.415 . S
C2298 H2274 0.950 . S
C2298 C2293 1.363 . S
C2298 C2297 1.415 . S
C2299 H2275 0.951 . S
C2299 C2300 1.366 . S
C2299 C2301 1.388 . S
C2300 C2299 1.366 . S
C2300 C2304 1.385 . S
C2301 H2276 0.951 . S
C2301 C2299 1.388 . S
C2301 C2302 1.366 . S
C2302 C2301 1.366 . S
C2302 C2303 1.414 . S
C2302 C2305 1.499 . S
C2303 H2277 0.950 . S
C2303 C2302 1.414 . S
C2303 C2304 1.374 . S
C2304 H2278 0.950 . S
C2304 C2300 1.385 . S
C2304 C2303 1.374 . S
C2305 C2302 1.499 . S
C2305 C2306 1.373 . S
C2305 C2307 1.389 . S
C2306 H2279 0.950 . S
C2306 C2292 1.377 . S
C2306 C2305 1.373 . S
C2307 C2291 1.377 . S
C2307 C2305 1.389 . S
C2307 C2308 1.524 . S
C2308 C2307 1.524 . S
C2308 C2309 1.397 . S
C2308 C2313 1.363 . S
C2309 H2280 0.950 . S
C2309 C2308 1.397 . S
C2309 C2310 1.334 . S
C2310 H2281 0.950 . S
C2310 C2309 1.334 . S
C2310 C2311 1.287 . S
C2311 C2310 1.287 . S
C2311 C2312 1.524 . S
C2311 H2314 0.999 . S
C2312 H2282 0.950 . S
C2312 C2311 1.524 . S
C2312 C2313 1.415 . S
C2313 H2283 0.950 . S
C2313 C2308 1.363 . S
C2313 C2312 1.415 . S
H2314 C2311 0.999 . S
H2315 C2296 0.913 . S
H2316 C2334 0.951 . S
H2317 C2336 0.951 . S
H2318 C2338 0.950 . S
H2319 C2339 0.950 . S
H2320 C2341 0.950 . S
H2321 C2344 0.950 . S
H2322 C2345 0.950 . S
H2323 C2347 0.950 . S
H2324 C2348 0.950 . S
H2325 C2349 0.951 . S
H2326 C2351 0.951 . S
H2327 C2353 0.950 . S
H2328 C2354 0.950 . S
H2329 C2356 0.950 . S
H2330 C2359 0.950 . S
H2331 C2360 0.950 . S
H2332 C2362 0.950 . S
H2333 C2363 0.950 . S
C2334 H2316 0.951 . S
C2334 C2335 1.366 . S
C2334 C2336 1.388 . S
C2335 C2334 1.366 . S
C2335 C2339 1.385 . S
C2336 H2317 0.951 . S
C2336 C2334 1.388 . S
C2336 C2337 1.366 . S
C2337 C2336 1.366 . S
C2337 C2338 1.414 . S
C2337 C2340 1.499 . S
C2338 H2318 0.950 . S
C2338 C2337 1.414 . S
C2338 C2339 1.374 . S
C2339 H2319 0.950 . S
C2339 C2335 1.385 . S
C2339 C2338 1.374 . S
C2340 C2337 1.499 . S
C2340 C2341 1.373 . S
C2340 C2342 1.389 . S
C2341 H2320 0.950 . S
C2341 C2340 1.373 . S
C2341 C2357 1.377 . S
C2342 C2340 1.389 . S
C2342 C2343 1.524 . S
C2342 C2356 1.377 . S
C2343 C2342 1.524 . S
C2343 C2344 1.397 . S
C2343 C2348 1.363 . S
C2344 H2321 0.950 . S
C2344 C2343 1.397 . S
C2344 C2345 1.334 . S
C2345 H2322 0.950 . S
C2345 C2344 1.334 . S
C2345 C2346 1.287 . S
C2346 C2345 1.287 . S
C2346 C2347 1.524 . S
C2346 H2365 0.913 . S
C2347 H2323 0.950 . S
C2347 C2346 1.524 . S
C2347 C2348 1.415 . S
C2348 H2324 0.950 . S
C2348 C2343 1.363 . S
C2348 C2347 1.415 . S
C2349 H2325 0.951 . S
C2349 C2350 1.366 . S
C2349 C2351 1.388 . S
C2350 C2349 1.366 . S
C2350 C2354 1.385 . S
C2351 H2326 0.951 . S
C2351 C2349 1.388 . S
C2351 C2352 1.366 . S
C2352 C2351 1.366 . S
C2352 C2353 1.414 . S
C2352 C2355 1.499 . S
C2353 H2327 0.950 . S
C2353 C2352 1.414 . S
C2353 C2354 1.374 . S
C2354 H2328 0.950 . S
C2354 C2350 1.385 . S
C2354 C2353 1.374 . S
C2355 C2352 1.499 . S
C2355 C2356 1.373 . S
C2355 C2357 1.389 . S
C2356 H2329 0.950 . S
C2356 C2342 1.377 . S
C2356 C2355 1.373 . S
C2357 C2341 1.377 . S
C2357 C2355 1.389 . S
C2357 C2358 1.524 . S
C2358 C2357 1.524 . S
C2358 C2359 1.397 . S
C2358 C2363 1.363 . S
C2359 H2330 0.950 . S
C2359 C2358 1.397 . S
C2359 C2360 1.334 . S
C2360 H2331 0.950 . S
C2360 C2359 1.334 . S
C2360 C2361 1.287 . S
C2361 C2360 1.287 . S
C2361 C2362 1.524 . S
C2361 H2364 0.999 . S
C2362 H2332 0.950 . S
C2362 C2361 1.524 . S
C2362 C2363 1.415 . S
C2363 H2333 0.950 . S
C2363 C2358 1.363 . S
C2363 C2362 1.415 . S
H2364 C2361 0.999 . S
H2365 C2346 0.913 . S
H2366 C2384 0.951 . S
H2367 C2386 0.951 . S
H2368 C2388 0.950 . S
H2369 C2389 0.950 . S
H2370 C2391 0.950 . S
H2371 C2394 0.950 . S
H2372 C2395 0.950 . S
H2373 C2397 0.950 . S
H2374 C2398 0.950 . S
H2375 C2399 0.951 . S
H2376 C2401 0.951 . S
H2377 C2403 0.950 . S
H2378 C2404 0.950 . S
H2379 C2406 0.950 . S
H2380 C2409 0.950 . S
H2381 C2410 0.950 . S
H2382 C2412 0.950 . S
H2383 C2413 0.950 . S
C2384 H2366 0.951 . S
C2384 C2385 1.366 . S
C2384 C2386 1.388 . S
C2385 C2384 1.366 . S
C2385 C2389 1.385 . S
C2386 H2367 0.951 . S
C2386 C2384 1.388 . S
C2386 C2387 1.366 . S
C2387 C2386 1.366 . S
C2387 C2388 1.414 . S
C2387 C2390 1.499 . S
C2388 H2368 0.950 . S
C2388 C2387 1.414 . S
C2388 C2389 1.374 . S
C2389 H2369 0.950 . S
C2389 C2385 1.385 . S
C2389 C2388 1.374 . S
C2390 C2387 1.499 . S
C2390 C2391 1.373 . S
C2390 C2392 1.389 . S
C2391 H2370 0.950 . S
C2391 C2390 1.373 . S
C2391 C2407 1.377 . S
C2392 C2390 1.389 . S
C2392 C2393 1.524 . S
C2392 C2406 1.377 . S
C2393 C2392 1.524 . S
C2393 C2394 1.397 . S
C2393 C2398 1.363 . S
C2394 H2371 0.950 . S
C2394 C2393 1.397 . S
C2394 C2395 1.334 . S
C2395 H2372 0.950 . S
C2395 C2394 1.334 . S
C2395 C2396 1.287 . S
C2396 C2395 1.287 . S
C2396 C2397 1.524 . S
C2396 H2415 0.913 . S
C2397 H2373 0.950 . S
C2397 C2396 1.524 . S
C2397 C2398 1.415 . S
C2398 H2374 0.950 . S
C2398 C2393 1.363 . S
C2398 C2397 1.415 . S
C2399 H2375 0.951 . S
C2399 C2400 1.366 . S
C2399 C2401 1.388 . S
C2400 C2399 1.366 . S
C2400 C2404 1.385 . S
C2401 H2376 0.951 . S
C2401 C2399 1.388 . S
C2401 C2402 1.366 . S
C2402 C2401 1.366 . S
C2402 C2403 1.414 . S
C2402 C2405 1.499 . S
C2403 H2377 0.950 . S
C2403 C2402 1.414 . S
C2403 C2404 1.374 . S
C2404 H2378 0.950 . S
C2404 C2400 1.385 . S
C2404 C2403 1.374 . S
C2405 C2402 1.499 . S
C2405 C2406 1.373 . S
C2405 C2407 1.389 . S
C2406 H2379 0.950 . S
C2406 C2392 1.377 . S
C2406 C2405 1.373 . S
C2407 C2391 1.377 . S
C2407 C2405 1.389 . S
C2407 C2408 1.524 . S
C2408 C2407 1.524 . S
C2408 C2409 1.397 . S
C2408 C2413 1.363 . S
C2409 H2380 0.950 . S
C2409 C2408 1.397 . S
C2409 C2410 1.334 . S
C2410 H2381 0.950 . S
C2410 C2409 1.334 . S
C2410 C2411 1.287 . S
C2411 C2410 1.287 . S
C2411 C2412 1.524 . S
C2411 H2414 0.999 . S
C2412 H2382 0.950 . S
C2412 C2411 1.524 . S
C2412 C2413 1.415 . S
C2413 H2383 0.950 . S
C2413 C2408 1.363 . S
C2413 C2412 1.415 . S
H2414 C2411 0.999 . S
H2415 C2396 0.913 . S
H2416 C2434 0.951 . S
H2417 C2436 0.951 . S
H2418 C2438 0.950 . S
H2419 C2439 0.950 . S
H2420 C2441 0.950 . S
H2421 C2444 0.950 . S
H2422 C2445 0.950 . S
H2423 C2447 0.950 . S
H2424 C2448 0.950 . S
H2425 C2449 0.951 . S
H2426 C2451 0.951 . S
H2427 C2453 0.950 . S
H2428 C2454 0.950 . S
H2429 C2456 0.950 . S
H2430 C2459 0.950 . S
H2431 C2460 0.950 . S
H2432 C2462 0.950 . S
H2433 C2463 0.950 . S
C2434 H2416 0.951 . S
C2434 C2435 1.366 . S
C2434 C2436 1.388 . S
C2435 C2434 1.366 . S
C2435 C2439 1.385 . S
C2436 H2417 0.951 . S
C2436 C2434 1.388 . S
C2436 C2437 1.366 . S
C2437 C2436 1.366 . S
C2437 C2438 1.414 . S
C2437 C2440 1.499 . S
C2438 H2418 0.950 . S
C2438 C2437 1.414 . S
C2438 C2439 1.374 . S
C2439 H2419 0.950 . S
C2439 C2435 1.385 . S
C2439 C2438 1.374 . S
C2440 C2437 1.499 . S
C2440 C2441 1.373 . S
C2440 C2442 1.389 . S
C2441 H2420 0.950 . S
C2441 C2440 1.373 . S
C2441 C2457 1.377 . S
C2442 C2440 1.389 . S
C2442 C2443 1.524 . S
C2442 C2456 1.377 . S
C2443 C2442 1.524 . S
C2443 C2444 1.397 . S
C2443 C2448 1.363 . S
C2444 H2421 0.950 . S
C2444 C2443 1.397 . S
C2444 C2445 1.334 . S
C2445 H2422 0.950 . S
C2445 C2444 1.334 . S
C2445 C2446 1.287 . S
C2446 C2445 1.287 . S
C2446 C2447 1.524 . S
C2446 H2465 0.913 . S
C2447 H2423 0.950 . S
C2447 C2446 1.524 . S
C2447 C2448 1.415 . S
C2448 H2424 0.950 . S
C2448 C2443 1.363 . S
C2448 C2447 1.415 . S
C2449 H2425 0.951 . S
C2449 C2450 1.366 . S
C2449 C2451 1.388 . S
C2450 C2449 1.366 . S
C2450 C2454 1.385 . S
C2451 H2426 0.951 . S
C2451 C2449 1.388 . S
C2451 C2452 1.366 . S
C2452 C2451 1.366 . S
C2452 C2453 1.414 . S
C2452 C2455 1.499 . S
C2453 H2427 0.950 . S
C2453 C2452 1.414 . S
C2453 C2454 1.374 . S
C2454 H2428 0.950 . S
C2454 C2450 1.385 . S
C2454 C2453 1.374 . S
C2455 C2452 1.499 . S
C2455 C2456 1.373 . S
C2455 C2457 1.389 . S
C2456 H2429 0.950 . S
C2456 C2442 1.377 . S
C2456 C2455 1.373 . S
C2457 C2441 1.377 . S
C2457 C2455 1.389 . S
C2457 C2458 1.524 . S
C2458 C2457 1.524 . S
C2458 C2459 1.397 . S
C2458 C2463 1.363 . S
C2459 H2430 0.950 . S
C2459 C2458 1.397 . S
C2459 C2460 1.334 . S
C2460 H2431 0.950 . S
C2460 C2459 1.334 . S
C2460 C2461 1.287 . S
C2461 C2460 1.287 . S
C2461 C2462 1.524 . S
C2461 H2464 0.999 . S
C2462 H2432 0.950 . S
C2462 C2461 1.524 . S
C2462 C2463 1.415 . S
C2463 H2433 0.950 . S
C2463 C2458 1.363 . S
C2463 C2462 1.415 . S
H2464 C2461 0.999 . S
H2465 C2446 0.913 . S
H2466 C2484 0.951 . S
H2467 C2486 0.951 . S
H2468 C2488 0.950 . S
H2469 C2489 0.950 . S
H2470 C2491 0.950 . S
H2471 C2494 0.950 . S
H2472 C2495 0.970 . S
H2473 C2497 0.950 . S
H2474 C2498 0.950 . S
H2475 C2499 0.951 . S
H2476 C2501 0.951 . S
H2477 C2503 0.950 . S
H2478 C2504 0.950 . S
H2479 C2506 0.950 . S
H2480 C2509 0.950 . S
H2481 C2510 0.950 . S
H2482 C2512 0.950 . S
H2483 C2513 0.950 . S
C2484 H2466 0.951 . S
C2484 C2485 1.366 . S
C2484 C2486 1.388 . S
C2485 C2484 1.366 . S
C2485 C2489 1.385 . S
C2486 H2467 0.951 . S
C2486 C2484 1.388 . S
C2486 C2487 1.366 . S
C2487 C2486 1.366 . S
C2487 C2488 1.414 . S
C2487 C2490 1.499 . S
C2488 H2468 0.950 . S
C2488 C2487 1.414 . S
C2488 C2489 1.374 . S
C2489 H2469 0.950 . S
C2489 C2485 1.385 . S
C2489 C2488 1.374 . S
C2490 C2487 1.499 . S
C2490 C2491 1.373 . S
C2490 C2492 1.389 . S
C2491 H2470 0.950 . S
C2491 C2490 1.373 . S
C2491 C2507 1.377 . S
C2492 C2490 1.389 . S
C2492 C2493 1.524 . S
C2492 C2506 1.377 . S
C2493 C2492 1.524 . S
C2493 C2494 1.397 . S
C2493 C2498 1.363 . S
C2494 H2471 0.950 . S
C2494 C2493 1.397 . S
C2494 C2495 1.334 . S
C2495 H2472 0.970 . S
C2495 C2494 1.334 . S
C2495 C2496 1.287 . S
C2496 C2495 1.287 . S
C2496 C2497 1.524 . S
C2496 H2515 0.913 1_565 S
C2497 H2473 0.950 . S
C2497 C2496 1.524 . S
C2497 C2498 1.415 . S
C2498 H2474 0.950 . S
C2498 C2493 1.363 . S
C2498 C2497 1.415 . S
C2499 H2475 0.951 . S
C2499 C2500 1.366 . S
C2499 C2501 1.388 . S
C2500 C2499 1.366 . S
C2500 C2504 1.385 . S
C2501 H2476 0.951 . S
C2501 C2499 1.388 . S
C2501 C2502 1.366 . S
C2502 C2501 1.366 . S
C2502 C2503 1.414 . S
C2502 C2505 1.499 . S
C2503 H2477 0.950 . S
C2503 C2502 1.414 . S
C2503 C2504 1.374 . S
C2504 H2478 0.950 . S
C2504 C2500 1.385 . S
C2504 C2503 1.374 . S
C2505 C2502 1.499 . S
C2505 C2506 1.373 . S
C2505 C2507 1.389 . S
C2506 H2479 0.950 . S
C2506 C2492 1.377 . S
C2506 C2505 1.373 . S
C2507 C2491 1.377 . S
C2507 C2505 1.389 . S
C2507 C2508 1.524 . S
C2508 C2507 1.524 . S
C2508 C2509 1.397 . S
C2508 C2513 1.363 . S
C2509 H2480 0.950 . S
C2509 C2508 1.397 . S
C2509 C2510 1.334 . S
C2510 H2481 0.950 . S
C2510 C2509 1.334 . S
C2510 C2511 1.287 . S
C2511 C2510 1.287 . S
C2511 C2512 1.524 . S
C2511 H2514 0.999 . S
C2512 H2482 0.950 . S
C2512 C2511 1.524 . S
C2512 C2513 1.415 . S
C2513 H2483 0.950 . S
C2513 C2508 1.363 . S
C2513 C2512 1.415 . S
H2514 C2511 0.999 . S
H2515 C2496 0.913 1_545 S
H2516 C2534 0.951 . S
H2517 C2536 0.951 . S
H2518 C2538 0.950 . S
H2519 C2539 0.950 . S
H2520 C2541 0.950 . S
H2521 C2544 0.950 . S
H2522 C2545 0.950 . S
H2523 C2547 0.950 . S
H2524 C2548 0.950 . S
H2525 C2549 0.951 . S
H2526 C2551 0.951 . S
H2527 C2553 0.950 . S
H2528 C2554 0.950 . S
H2529 C2556 0.950 . S
H2530 C2559 0.950 . S
H2531 C2560 0.950 . S
H2532 C2562 0.950 . S
H2533 C2563 0.950 . S
C2534 H2516 0.951 . S
C2534 C2535 1.366 . S
C2534 C2536 1.388 . S
C2535 C2534 1.366 . S
C2535 C2539 1.385 . S
C2536 H2517 0.951 . S
C2536 C2534 1.388 . S
C2536 C2537 1.366 . S
C2537 C2536 1.366 . S
C2537 C2538 1.414 . S
C2537 C2540 1.499 . S
C2538 H2518 0.950 . S
C2538 C2537 1.414 . S
C2538 C2539 1.374 . S
C2539 H2519 0.950 . S
C2539 C2535 1.385 . S
C2539 C2538 1.374 . S
C2540 C2537 1.499 . S
C2540 C2541 1.373 . S
C2540 C2542 1.389 . S
C2541 H2520 0.950 . S
C2541 C2540 1.373 . S
C2541 C2557 1.377 . S
C2542 C2540 1.389 . S
C2542 C2543 1.524 . S
C2542 C2556 1.377 . S
C2543 C2542 1.524 . S
C2543 C2544 1.397 . S
C2543 C2548 1.363 . S
C2544 H2521 0.950 . S
C2544 C2543 1.397 . S
C2544 C2545 1.334 . S
C2545 H2522 0.950 . S
C2545 C2544 1.334 . S
C2545 C2546 1.287 . S
C2546 C2545 1.287 . S
C2546 C2547 1.524 . S
C2546 H2565 0.913 . S
C2547 H2523 0.950 . S
C2547 C2546 1.524 . S
C2547 C2548 1.415 . S
C2548 H2524 0.950 . S
C2548 C2543 1.363 . S
C2548 C2547 1.415 . S
C2549 H2525 0.951 . S
C2549 C2550 1.366 . S
C2549 C2551 1.388 . S
C2550 C2549 1.366 . S
C2550 C2554 1.385 . S
C2551 H2526 0.951 . S
C2551 C2549 1.388 . S
C2551 C2552 1.366 . S
C2552 C2551 1.366 . S
C2552 C2553 1.414 . S
C2552 C2555 1.499 . S
C2553 H2527 0.950 . S
C2553 C2552 1.414 . S
C2553 C2554 1.374 . S
C2554 H2528 0.950 . S
C2554 C2550 1.385 . S
C2554 C2553 1.374 . S
C2555 C2552 1.499 . S
C2555 C2556 1.373 . S
C2555 C2557 1.389 . S
C2556 H2529 0.950 . S
C2556 C2542 1.377 . S
C2556 C2555 1.373 . S
C2557 C2541 1.377 . S
C2557 C2555 1.389 . S
C2557 C2558 1.524 . S
C2558 C2557 1.524 . S
C2558 C2559 1.397 . S
C2558 C2563 1.363 . S
C2559 H2530 0.950 . S
C2559 C2558 1.397 . S
C2559 C2560 1.334 . S
C2560 H2531 0.950 . S
C2560 C2559 1.334 . S
C2560 C2561 1.287 . S
C2561 C2560 1.287 . S
C2561 C2562 1.524 . S
C2561 H2564 0.999 . S
C2562 H2532 0.950 . S
C2562 C2561 1.524 . S
C2562 C2563 1.415 . S
C2563 H2533 0.950 . S
C2563 C2558 1.363 . S
C2563 C2562 1.415 . S
H2564 C2561 0.999 . S
H2565 C2546 0.913 . S
H2566 C2584 0.951 . S
H2567 C2586 0.951 . S
H2568 C2588 0.950 . S
H2569 C2589 0.950 . S
H2570 C2591 0.950 . S
H2571 C2594 0.950 . S
H2572 C2595 0.950 . S
H2573 C2597 0.950 . S
H2574 C2598 0.950 . S
H2575 C2599 0.951 . S
H2576 C2601 0.951 . S
H2577 C2603 0.950 . S
H2578 C2604 0.950 . S
H2579 C2606 0.950 . S
H2580 C2609 0.950 . S
H2581 C2610 0.950 . S
H2582 C2612 0.950 . S
H2583 C2613 0.950 . S
C2584 H2566 0.951 . S
C2584 C2585 1.366 . S
C2584 C2586 1.388 . S
C2585 C2584 1.366 . S
C2585 C2589 1.385 . S
C2586 H2567 0.951 . S
C2586 C2584 1.388 . S
C2586 C2587 1.366 . S
C2587 C2586 1.366 . S
C2587 C2588 1.414 . S
C2587 C2590 1.499 . S
C2588 H2568 0.950 . S
C2588 C2587 1.414 . S
C2588 C2589 1.374 . S
C2589 H2569 0.950 . S
C2589 C2585 1.385 . S
C2589 C2588 1.374 . S
C2590 C2587 1.499 . S
C2590 C2591 1.373 . S
C2590 C2592 1.389 . S
C2591 H2570 0.950 . S
C2591 C2590 1.373 . S
C2591 C2607 1.377 . S
C2592 C2590 1.389 . S
C2592 C2593 1.524 . S
C2592 C2606 1.377 . S
C2593 C2592 1.524 . S
C2593 C2594 1.397 . S
C2593 C2598 1.363 . S
C2594 H2571 0.950 . S
C2594 C2593 1.397 . S
C2594 C2595 1.334 . S
C2595 H2572 0.950 . S
C2595 C2594 1.334 . S
C2595 C2596 1.287 . S
C2596 C2595 1.287 . S
C2596 C2597 1.524 . S
C2596 H2615 0.913 . S
C2597 H2573 0.950 . S
C2597 C2596 1.524 . S
C2597 C2598 1.415 . S
C2598 H2574 0.950 . S
C2598 C2593 1.363 . S
C2598 C2597 1.415 . S
C2599 H2575 0.951 . S
C2599 C2600 1.366 . S
C2599 C2601 1.388 . S
C2600 C2599 1.366 . S
C2600 C2604 1.385 . S
C2601 H2576 0.951 . S
C2601 C2599 1.388 . S
C2601 C2602 1.366 . S
C2602 C2601 1.366 . S
C2602 C2603 1.414 . S
C2602 C2605 1.499 . S
C2603 H2577 0.950 . S
C2603 C2602 1.414 . S
C2603 C2604 1.374 . S
C2604 H2578 0.950 . S
C2604 C2600 1.385 . S
C2604 C2603 1.374 . S
C2605 C2602 1.499 . S
C2605 C2606 1.373 . S
C2605 C2607 1.389 . S
C2606 H2579 0.950 . S
C2606 C2592 1.377 . S
C2606 C2605 1.373 . S
C2607 C2591 1.377 . S
C2607 C2605 1.389 . S
C2607 C2608 1.524 . S
C2608 C2607 1.524 . S
C2608 C2609 1.397 . S
C2608 C2613 1.363 . S
C2609 H2580 0.950 . S
C2609 C2608 1.397 . S
C2609 C2610 1.334 . S
C2610 H2581 0.950 . S
C2610 C2609 1.334 . S
C2610 C2611 1.287 . S
C2611 C2610 1.287 . S
C2611 C2612 1.524 . S
C2611 H2614 0.999 . S
C2612 H2582 0.950 . S
C2612 C2611 1.524 . S
C2612 C2613 1.415 . S
C2613 H2583 0.950 . S
C2613 C2608 1.363 . S
C2613 C2612 1.415 . S
H2614 C2611 0.999 . S
H2615 C2596 0.913 . S
H2616 C2634 0.951 . S
H2617 C2636 0.951 . S
H2618 C2638 0.950 . S
H2619 C2639 0.950 . S
H2620 C2641 0.950 . S
H2621 C2644 0.950 . S
H2622 C2645 0.950 . S
H2623 C2647 0.950 . S
H2624 C2648 0.950 . S
H2625 C2649 0.951 . S
H2626 C2651 0.951 . S
H2627 C2653 0.950 . S
H2628 C2654 0.950 . S
H2629 C2656 0.950 . S
H2630 C2659 0.950 . S
H2631 C2660 0.950 . S
H2632 C2662 0.950 . S
H2633 C2663 0.950 . S
C2634 H2616 0.951 . S
C2634 C2635 1.366 . S
C2634 C2636 1.388 . S
C2635 C2634 1.366 . S
C2635 C2639 1.385 . S
C2636 H2617 0.951 . S
C2636 C2634 1.388 . S
C2636 C2637 1.366 . S
C2637 C2636 1.366 . S
C2637 C2638 1.414 . S
C2637 C2640 1.499 . S
C2638 H2618 0.950 . S
C2638 C2637 1.414 . S
C2638 C2639 1.374 . S
C2639 H2619 0.950 . S
C2639 C2635 1.385 . S
C2639 C2638 1.374 . S
C2640 C2637 1.499 . S
C2640 C2641 1.373 . S
C2640 C2642 1.389 . S
C2641 H2620 0.950 . S
C2641 C2640 1.373 . S
C2641 C2657 1.377 . S
C2642 C2640 1.389 . S
C2642 C2643 1.524 . S
C2642 C2656 1.377 . S
C2643 C2642 1.524 . S
C2643 C2644 1.397 . S
C2643 C2648 1.363 . S
C2644 H2621 0.950 . S
C2644 C2643 1.397 . S
C2644 C2645 1.334 . S
C2645 H2622 0.950 . S
C2645 C2644 1.334 . S
C2645 C2646 1.287 . S
C2646 C2645 1.287 . S
C2646 C2647 1.524 . S
C2646 H2665 0.913 . S
C2647 H2623 0.950 . S
C2647 C2646 1.524 . S
C2647 C2648 1.415 . S
C2648 H2624 0.950 . S
C2648 C2643 1.363 . S
C2648 C2647 1.415 . S
C2649 H2625 0.951 . S
C2649 C2650 1.366 . S
C2649 C2651 1.388 . S
C2650 C2649 1.366 . S
C2650 C2654 1.385 . S
C2651 H2626 0.951 . S
C2651 C2649 1.388 . S
C2651 C2652 1.366 . S
C2652 C2651 1.366 . S
C2652 C2653 1.414 . S
C2652 C2655 1.499 . S
C2653 H2627 0.950 . S
C2653 C2652 1.414 . S
C2653 C2654 1.374 . S
C2654 H2628 0.950 . S
C2654 C2650 1.385 . S
C2654 C2653 1.374 . S
C2655 C2652 1.499 . S
C2655 C2656 1.373 . S
C2655 C2657 1.389 . S
C2656 H2629 0.950 . S
C2656 C2642 1.377 . S
C2656 C2655 1.373 . S
C2657 C2641 1.377 . S
C2657 C2655 1.389 . S
C2657 C2658 1.524 . S
C2658 C2657 1.524 . S
C2658 C2659 1.397 . S
C2658 C2663 1.363 . S
C2659 H2630 0.950 . S
C2659 C2658 1.397 . S
C2659 C2660 1.334 . S
C2660 H2631 0.950 . S
C2660 C2659 1.334 . S
C2660 C2661 1.287 . S
C2661 C2660 1.287 . S
C2661 C2662 1.524 . S
C2661 H2664 0.999 . S
C2662 H2632 0.950 . S
C2662 C2661 1.524 . S
C2662 C2663 1.415 . S
C2663 H2633 0.950 . S
C2663 C2658 1.363 . S
C2663 C2662 1.415 . S
H2664 C2661 0.999 . S
H2665 C2646 0.913 . S
H2666 C2684 0.951 . S
H2667 C2686 0.951 . S
H2668 C2688 0.950 . S
H2669 C2689 0.950 . S
H2670 C2691 0.950 . S
H2671 C2694 0.950 . S
H2672 C2695 0.950 . S
H2673 C2697 0.950 . S
H2674 C2698 0.950 . S
H2675 C2699 0.951 . S
H2676 C2701 0.951 . S
H2677 C2703 0.950 . S
H2678 C2704 0.950 . S
H2679 C2706 0.950 . S
H2680 C2709 0.950 . S
H2681 C2710 0.950 . S
H2682 C2712 0.950 . S
H2683 C2713 0.950 . S
C2684 H2666 0.951 . S
C2684 C2685 1.366 . S
C2684 C2686 1.388 . S
C2685 C2684 1.366 . S
C2685 C2689 1.385 . S
C2686 H2667 0.951 . S
C2686 C2684 1.388 . S
C2686 C2687 1.366 . S
C2687 C2686 1.366 . S
C2687 C2688 1.414 . S
C2687 C2690 1.499 . S
C2688 H2668 0.950 . S
C2688 C2687 1.414 . S
C2688 C2689 1.374 . S
C2689 H2669 0.950 . S
C2689 C2685 1.385 . S
C2689 C2688 1.374 . S
C2690 C2687 1.499 . S
C2690 C2691 1.373 . S
C2690 C2692 1.389 . S
C2691 H2670 0.950 . S
C2691 C2690 1.373 . S
C2691 C2707 1.377 . S
C2692 C2690 1.389 . S
C2692 C2693 1.524 . S
C2692 C2706 1.377 . S
C2693 C2692 1.524 . S
C2693 C2694 1.397 . S
C2693 C2698 1.363 . S
C2694 H2671 0.950 . S
C2694 C2693 1.397 . S
C2694 C2695 1.334 . S
C2695 H2672 0.950 . S
C2695 C2694 1.334 . S
C2695 C2696 1.287 . S
C2696 C2695 1.287 . S
C2696 C2697 1.524 . S
C2696 H2715 0.913 . S
C2697 H2673 0.950 . S
C2697 C2696 1.524 . S
C2697 C2698 1.415 . S
C2698 H2674 0.950 . S
C2698 C2693 1.363 . S
C2698 C2697 1.415 . S
C2699 H2675 0.951 . S
C2699 C2700 1.366 . S
C2699 C2701 1.388 . S
C2700 C2699 1.366 . S
C2700 C2704 1.385 . S
C2701 H2676 0.951 . S
C2701 C2699 1.388 . S
C2701 C2702 1.366 . S
C2702 C2701 1.366 . S
C2702 C2703 1.414 . S
C2702 C2705 1.499 . S
C2703 H2677 0.950 . S
C2703 C2702 1.414 . S
C2703 C2704 1.374 . S
C2704 H2678 0.950 . S
C2704 C2700 1.385 . S
C2704 C2703 1.374 . S
C2705 C2702 1.499 . S
C2705 C2706 1.373 . S
C2705 C2707 1.389 . S
C2706 H2679 0.950 . S
C2706 C2692 1.377 . S
C2706 C2705 1.373 . S
C2707 C2691 1.377 . S
C2707 C2705 1.389 . S
C2707 C2708 1.524 . S
C2708 C2707 1.524 . S
C2708 C2709 1.397 . S
C2708 C2713 1.363 . S
C2709 H2680 0.950 . S
C2709 C2708 1.397 . S
C2709 C2710 1.334 . S
C2710 H2681 0.950 . S
C2710 C2709 1.334 . S
C2710 C2711 1.287 . S
C2711 C2710 1.287 . S
C2711 C2712 1.524 . S
C2711 H2714 0.999 . S
C2712 H2682 0.950 . S
C2712 C2711 1.524 . S
C2712 C2713 1.415 . S
C2713 H2683 0.950 . S
C2713 C2708 1.363 . S
C2713 C2712 1.415 . S
H2714 C2711 0.999 . S
H2715 C2696 0.913 . S
H2716 C2734 0.951 . S
H2717 C2736 0.951 . S
H2718 C2738 0.950 . S
H2719 C2739 0.950 . S
H2720 C2741 0.950 . S
H2721 C2744 0.950 . S
H2722 C2745 0.950 . S
H2723 C2747 0.950 . S
H2724 C2748 0.950 . S
H2725 C2749 0.951 . S
H2726 C2751 0.951 . S
H2727 C2753 0.950 . S
H2728 C2754 0.950 . S
H2729 C2756 0.950 . S
H2730 C2759 0.950 . S
H2731 C2760 0.950 . S
H2732 C2762 0.950 . S
H2733 C2763 0.950 . S
C2734 H2716 0.951 . S
C2734 C2735 1.366 . S
C2734 C2736 1.388 . S
C2735 C2734 1.366 . S
C2735 C2739 1.385 . S
C2736 H2717 0.951 . S
C2736 C2734 1.388 . S
C2736 C2737 1.366 . S
C2737 C2736 1.366 . S
C2737 C2738 1.414 . S
C2737 C2740 1.499 . S
C2738 H2718 0.950 . S
C2738 C2737 1.414 . S
C2738 C2739 1.374 . S
C2739 H2719 0.950 . S
C2739 C2735 1.385 . S
C2739 C2738 1.374 . S
C2740 C2737 1.499 . S
C2740 C2741 1.373 . S
C2740 C2742 1.389 . S
C2741 H2720 0.950 . S
C2741 C2740 1.373 . S
C2741 C2757 1.377 . S
C2742 C2740 1.389 . S
C2742 C2743 1.524 . S
C2742 C2756 1.377 . S
C2743 C2742 1.524 . S
C2743 C2744 1.397 . S
C2743 C2748 1.363 . S
C2744 H2721 0.950 . S
C2744 C2743 1.397 . S
C2744 C2745 1.334 . S
C2745 H2722 0.950 . S
C2745 C2744 1.334 . S
C2745 C2746 1.287 . S
C2746 C2745 1.287 . S
C2746 C2747 1.524 . S
C2746 H2765 0.913 . S
C2747 H2723 0.950 . S
C2747 C2746 1.524 . S
C2747 C2748 1.415 . S
C2748 H2724 0.950 . S
C2748 C2743 1.363 . S
C2748 C2747 1.415 . S
C2749 H2725 0.951 . S
C2749 C2750 1.366 . S
C2749 C2751 1.388 . S
C2750 C2749 1.366 . S
C2750 C2754 1.385 . S
C2751 H2726 0.951 . S
C2751 C2749 1.388 . S
C2751 C2752 1.366 . S
C2752 C2751 1.366 . S
C2752 C2753 1.414 . S
C2752 C2755 1.499 . S
C2753 H2727 0.950 . S
C2753 C2752 1.414 . S
C2753 C2754 1.374 . S
C2754 H2728 0.950 . S
C2754 C2750 1.385 . S
C2754 C2753 1.374 . S
C2755 C2752 1.499 . S
C2755 C2756 1.373 . S
C2755 C2757 1.389 . S
C2756 H2729 0.950 . S
C2756 C2742 1.377 . S
C2756 C2755 1.373 . S
C2757 C2741 1.377 . S
C2757 C2755 1.389 . S
C2757 C2758 1.524 . S
C2758 C2757 1.524 . S
C2758 C2759 1.397 . S
C2758 C2763 1.363 . S
C2759 H2730 0.950 . S
C2759 C2758 1.397 . S
C2759 C2760 1.334 . S
C2760 H2731 0.950 . S
C2760 C2759 1.334 . S
C2760 C2761 1.287 . S
C2761 C2760 1.287 . S
C2761 C2762 1.524 . S
C2761 H2764 0.999 . S
C2762 H2732 0.950 . S
C2762 C2761 1.524 . S
C2762 C2763 1.415 . S
C2763 H2733 0.950 . S
C2763 C2758 1.363 . S
C2763 C2762 1.415 . S
H2764 C2761 0.999 . S
H2765 C2746 0.913 . S
H2766 C2784 0.951 . S
H2767 C2786 0.951 . S
H2768 C2788 0.950 . S
H2769 C2789 0.950 . S
H2770 C2791 0.950 . S
H2771 C2794 0.950 . S
H2772 C2795 0.950 . S
H2773 C2797 0.950 . S
H2774 C2798 0.950 . S
H2775 C2799 0.951 . S
H2776 C2801 0.951 . S
H2777 C2803 0.950 . S
H2778 C2804 0.950 . S
H2779 C2806 0.950 . S
H2780 C2809 0.950 . S
H2781 C2810 0.950 . S
H2782 C2812 0.950 . S
H2783 C2813 0.950 . S
C2784 H2766 0.951 . S
C2784 C2785 1.366 . S
C2784 C2786 1.388 . S
C2785 C2784 1.366 . S
C2785 C2789 1.385 . S
C2786 H2767 0.951 . S
C2786 C2784 1.388 . S
C2786 C2787 1.366 . S
C2787 C2786 1.366 . S
C2787 C2788 1.414 . S
C2787 C2790 1.499 . S
C2788 H2768 0.950 . S
C2788 C2787 1.414 . S
C2788 C2789 1.374 . S
C2789 H2769 0.950 . S
C2789 C2785 1.385 . S
C2789 C2788 1.374 . S
C2790 C2787 1.499 . S
C2790 C2791 1.373 . S
C2790 C2792 1.389 . S
C2791 H2770 0.950 . S
C2791 C2790 1.373 . S
C2791 C2807 1.377 . S
C2792 C2790 1.389 . S
C2792 C2793 1.524 . S
C2792 C2806 1.377 . S
C2793 C2792 1.524 . S
C2793 C2794 1.397 . S
C2793 C2798 1.363 . S
C2794 H2771 0.950 . S
C2794 C2793 1.397 . S
C2794 C2795 1.334 . S
C2795 H2772 0.950 . S
C2795 C2794 1.334 . S
C2795 C2796 1.287 . S
C2796 C2795 1.287 . S
C2796 C2797 1.524 . S
C2796 H2815 0.913 . S
C2797 H2773 0.950 . S
C2797 C2796 1.524 . S
C2797 C2798 1.415 . S
C2798 H2774 0.950 . S
C2798 C2793 1.363 . S
C2798 C2797 1.415 . S
C2799 H2775 0.951 . S
C2799 C2800 1.366 . S
C2799 C2801 1.388 . S
C2800 C2799 1.366 . S
C2800 C2804 1.385 . S
C2801 H2776 0.951 . S
C2801 C2799 1.388 . S
C2801 C2802 1.366 . S
C2802 C2801 1.366 . S
C2802 C2803 1.414 . S
C2802 C2805 1.499 . S
C2803 H2777 0.950 . S
C2803 C2802 1.414 . S
C2803 C2804 1.374 . S
C2804 H2778 0.950 . S
C2804 C2800 1.385 . S
C2804 C2803 1.374 . S
C2805 C2802 1.499 . S
C2805 C2806 1.373 . S
C2805 C2807 1.389 . S
C2806 H2779 0.950 . S
C2806 C2792 1.377 . S
C2806 C2805 1.373 . S
C2807 C2791 1.377 . S
C2807 C2805 1.389 . S
C2807 C2808 1.524 . S
C2808 C2807 1.524 . S
C2808 C2809 1.397 . S
C2808 C2813 1.363 . S
C2809 H2780 0.950 . S
C2809 C2808 1.397 . S
C2809 C2810 1.334 . S
C2810 H2781 0.950 . S
C2810 C2809 1.334 . S
C2810 C2811 1.287 . S
C2811 C2810 1.287 . S
C2811 C2812 1.524 . S
C2811 H2814 0.999 . S
C2812 H2782 0.950 . S
C2812 C2811 1.524 . S
C2812 C2813 1.415 . S
C2813 H2783 0.950 . S
C2813 C2808 1.363 . S
C2813 C2812 1.415 . S
H2814 C2811 0.999 . S
H2815 C2796 0.913 . S
H2816 C2834 0.951 . S
H2817 C2836 0.951 . S
H2818 C2838 0.950 . S
H2819 C2839 0.950 . S
H2820 C2841 0.950 . S
H2821 C2844 0.950 . S
H2822 C2845 0.950 . S
H2823 C2847 0.950 . S
H2824 C2848 0.950 . S
H2825 C2849 0.951 . S
H2826 C2851 0.951 . S
H2827 C2853 0.950 . S
H2828 C2854 0.950 . S
H2829 C2856 0.950 . S
H2830 C2859 0.950 . S
H2831 C2860 0.950 . S
H2832 C2862 0.950 . S
H2833 C2863 0.950 . S
C2834 H2816 0.951 . S
C2834 C2835 1.366 . S
C2834 C2836 1.388 1_565 S
C2835 C2834 1.366 . S
C2835 C2839 1.385 . S
C2836 H2817 0.951 . S
C2836 C2834 1.388 1_545 S
C2836 C2837 1.366 . S
C2837 C2836 1.366 . S
C2837 C2838 1.414 . S
C2837 C2840 1.499 . S
C2838 H2818 0.950 . S
C2838 C2837 1.414 . S
C2838 C2839 1.374 1_545 S
C2839 H2819 0.950 . S
C2839 C2835 1.385 . S
C2839 C2838 1.374 1_565 S
C2840 C2837 1.499 . S
C2840 C2841 1.373 . S
C2840 C2842 1.389 . S
C2841 H2820 0.950 . S
C2841 C2840 1.373 . S
C2841 C2857 1.377 . S
C2842 C2840 1.389 . S
C2842 C2843 1.524 . S
C2842 C2856 1.377 . S
C2843 C2842 1.524 . S
C2843 C2844 1.397 . S
C2843 C2848 1.363 . S
C2844 H2821 0.950 . S
C2844 C2843 1.397 . S
C2844 C2845 1.334 . S
C2845 H2822 0.950 . S
C2845 C2844 1.334 . S
C2845 C2846 1.287 . S
C2846 C2845 1.287 . S
C2846 C2847 1.524 . S
C2846 H2865 0.913 . S
C2847 H2823 0.950 . S
C2847 C2846 1.524 . S
C2847 C2848 1.415 . S
C2848 H2824 0.950 . S
C2848 C2843 1.363 . S
C2848 C2847 1.415 . S
C2849 H2825 0.951 . S
C2849 C2850 1.366 . S
C2849 C2851 1.388 . S
C2850 C2849 1.366 . S
C2850 C2854 1.385 . S
C2851 H2826 0.951 . S
C2851 C2849 1.388 . S
C2851 C2852 1.366 . S
C2852 C2851 1.366 . S
C2852 C2853 1.414 . S
C2852 C2855 1.499 . S
C2853 H2827 0.950 . S
C2853 C2852 1.414 . S
C2853 C2854 1.374 . S
C2854 H2828 0.950 . S
C2854 C2850 1.385 . S
C2854 C2853 1.374 . S
C2855 C2852 1.499 . S
C2855 C2856 1.373 . S
C2855 C2857 1.389 . S
C2856 H2829 0.950 . S
C2856 C2842 1.377 . S
C2856 C2855 1.373 . S
C2857 C2841 1.377 . S
C2857 C2855 1.389 . S
C2857 C2858 1.524 . S
C2858 C2857 1.524 . S
C2858 C2859 1.397 . S
C2858 C2863 1.363 . S
C2859 H2830 0.950 . S
C2859 C2858 1.397 . S
C2859 C2860 1.334 . S
C2860 H2831 0.950 . S
C2860 C2859 1.334 . S
C2860 C2861 1.287 . S
C2861 C2860 1.287 . S
C2861 C2862 1.524 . S
C2861 H2864 0.999 . S
C2862 H2832 0.950 . S
C2862 C2861 1.524 . S
C2862 C2863 1.415 . S
C2863 H2833 0.950 . S
C2863 C2858 1.363 . S
C2863 C2862 1.415 . S
H2864 C2861 0.999 . S
H2865 C2846 0.913 . S
H2866 C2884 0.951 . S
H2867 C2886 0.951 . S
H2868 C2888 0.950 . S
H2869 C2889 0.950 . S
H2870 C2891 0.950 . S
H2871 C2894 0.950 . S
H2872 C2895 0.950 . S
H2873 C2897 0.950 . S
H2874 C2898 0.950 . S
H2875 C2899 0.951 . S
H2876 C2901 0.951 . S
H2877 C2903 0.950 . S
H2878 C2904 0.950 . S
H2879 C2906 0.950 . S
H2880 C2909 0.950 . S
H2881 C2910 0.950 . S
H2882 C2912 0.950 . S
H2883 C2913 0.950 . S
C2884 H2866 0.951 . S
C2884 C2885 1.366 . S
C2884 C2886 1.388 1_565 S
C2885 C2884 1.366 . S
C2885 C2889 1.385 . S
C2886 H2867 0.951 . S
C2886 C2884 1.388 1_545 S
C2886 C2887 1.366 . S
C2887 C2886 1.366 . S
C2887 C2888 1.414 . S
C2887 C2890 1.499 . S
C2888 H2868 0.950 . S
C2888 C2887 1.414 . S
C2888 C2889 1.374 1_545 S
C2889 H2869 0.950 . S
C2889 C2885 1.385 . S
C2889 C2888 1.374 1_565 S
C2890 C2887 1.499 . S
C2890 C2891 1.373 . S
C2890 C2892 1.389 . S
C2891 H2870 0.950 . S
C2891 C2890 1.373 . S
C2891 C2907 1.377 . S
C2892 C2890 1.389 . S
C2892 C2893 1.524 . S
C2892 C2906 1.377 . S
C2893 C2892 1.524 . S
C2893 C2894 1.397 . S
C2893 C2898 1.363 . S
C2894 H2871 0.950 . S
C2894 C2893 1.397 . S
C2894 C2895 1.334 . S
C2895 H2872 0.950 . S
C2895 C2894 1.334 . S
C2895 C2896 1.287 . S
C2896 C2895 1.287 . S
C2896 C2897 1.524 . S
C2896 H2915 0.913 . S
C2897 H2873 0.950 . S
C2897 C2896 1.524 . S
C2897 C2898 1.415 . S
C2898 H2874 0.950 . S
C2898 C2893 1.363 . S
C2898 C2897 1.415 . S
C2899 H2875 0.951 . S
C2899 C2900 1.366 . S
C2899 C2901 1.388 . S
C2900 C2899 1.366 . S
C2900 C2904 1.385 . S
C2901 H2876 0.951 . S
C2901 C2899 1.388 . S
C2901 C2902 1.366 . S
C2902 C2901 1.366 . S
C2902 C2903 1.414 . S
C2902 C2905 1.499 . S
C2903 H2877 0.950 . S
C2903 C2902 1.414 . S
C2903 C2904 1.374 . S
C2904 H2878 0.950 . S
C2904 C2900 1.385 . S
C2904 C2903 1.374 . S
C2905 C2902 1.499 . S
C2905 C2906 1.373 . S
C2905 C2907 1.389 . S
C2906 H2879 0.950 . S
C2906 C2892 1.377 . S
C2906 C2905 1.373 . S
C2907 C2891 1.377 . S
C2907 C2905 1.389 . S
C2907 C2908 1.524 . S
C2908 C2907 1.524 . S
C2908 C2909 1.397 . S
C2908 C2913 1.363 . S
C2909 H2880 0.950 . S
C2909 C2908 1.397 . S
C2909 C2910 1.334 . S
C2910 H2881 0.950 . S
C2910 C2909 1.334 . S
C2910 C2911 1.287 . S
C2911 C2910 1.287 . S
C2911 C2912 1.524 . S
C2911 H2914 0.999 . S
C2912 H2882 0.950 . S
C2912 C2911 1.524 . S
C2912 C2913 1.415 . S
C2913 H2883 0.950 . S
C2913 C2908 1.363 . S
C2913 C2912 1.415 . S
H2914 C2911 0.999 . S
H2915 C2896 0.913 . S
H2916 C2934 0.951 . S
H2917 C2936 0.951 . S
H2918 C2938 0.950 . S
H2919 C2939 0.950 . S
H2920 C2941 0.950 . S
H2921 C2944 0.950 . S
H2922 C2945 0.950 . S
H2923 C2947 0.950 . S
H2924 C2948 0.950 . S
H2925 C2949 0.951 . S
H2926 C2951 0.951 . S
H2927 C2953 0.950 . S
H2928 C2954 0.950 . S
H2929 C2956 0.950 . S
H2930 C2959 0.950 . S
H2931 C2960 0.950 . S
H2932 C2962 0.950 . S
H2933 C2963 0.950 . S
C2934 H2916 0.951 . S
C2934 C2935 1.366 . S
C2934 C2936 1.388 . S
C2935 C2934 1.366 . S
C2935 C2939 1.385 . S
C2936 H2917 0.951 . S
C2936 C2934 1.388 . S
C2936 C2937 1.366 . S
C2937 C2936 1.366 . S
C2937 C2938 1.414 . S
C2937 C2940 1.499 . S
C2938 H2918 0.950 . S
C2938 C2937 1.414 . S
C2938 C2939 1.374 . S
C2939 H2919 0.950 . S
C2939 C2935 1.385 . S
C2939 C2938 1.374 . S
C2940 C2937 1.499 . S
C2940 C2941 1.373 . S
C2940 C2942 1.389 . S
C2941 H2920 0.950 . S
C2941 C2940 1.373 . S
C2941 C2957 1.377 . S
C2942 C2940 1.389 . S
C2942 C2943 1.524 . S
C2942 C2956 1.377 . S
C2943 C2942 1.524 . S
C2943 C2944 1.397 . S
C2943 C2948 1.363 . S
C2944 H2921 0.950 . S
C2944 C2943 1.397 . S
C2944 C2945 1.334 . S
C2945 H2922 0.950 . S
C2945 C2944 1.334 . S
C2945 C2946 1.287 . S
C2946 C2945 1.287 . S
C2946 C2947 1.524 . S
C2946 H2965 0.913 . S
C2947 H2923 0.950 . S
C2947 C2946 1.524 . S
C2947 C2948 1.415 . S
C2948 H2924 0.950 . S
C2948 C2943 1.363 . S
C2948 C2947 1.415 . S
C2949 H2925 0.951 . S
C2949 C2950 1.366 . S
C2949 C2951 1.388 1_545 S
C2950 C2949 1.366 . S
C2950 C2954 1.385 . S
C2951 H2926 0.951 . S
C2951 C2949 1.388 1_565 S
C2951 C2952 1.366 . S
C2952 C2951 1.366 . S
C2952 C2953 1.414 . S
C2952 C2955 1.499 . S
C2953 H2927 0.950 . S
C2953 C2952 1.414 . S
C2953 C2954 1.374 1_565 S
C2954 H2928 0.950 . S
C2954 C2950 1.385 . S
C2954 C2953 1.374 1_545 S
C2955 C2952 1.499 . S
C2955 C2956 1.373 . S
C2955 C2957 1.389 . S
C2956 H2929 0.950 . S
C2956 C2942 1.377 . S
C2956 C2955 1.373 . S
C2957 C2941 1.377 . S
C2957 C2955 1.389 . S
C2957 C2958 1.524 . S
C2958 C2957 1.524 . S
C2958 C2959 1.397 . S
C2958 C2963 1.363 . S
C2959 H2930 0.950 . S
C2959 C2958 1.397 . S
C2959 C2960 1.334 . S
C2960 H2931 0.950 . S
C2960 C2959 1.334 . S
C2960 C2961 1.287 . S
C2961 C2960 1.287 . S
C2961 C2962 1.524 . S
C2961 H2964 0.999 . S
C2962 H2932 0.950 . S
C2962 C2961 1.524 . S
C2962 C2963 1.415 . S
C2963 H2933 0.950 . S
C2963 C2958 1.363 . S
C2963 C2962 1.415 . S
H2964 C2961 0.999 . S
H2965 C2946 0.913 . S
H2966 C2984 0.951 . S
H2967 C2986 0.951 . S
H2968 C2988 0.950 . S
H2969 C2989 0.950 . S
H2970 C2991 0.950 . S
H2971 C2994 0.950 . S
H2972 C2995 0.950 . S
H2973 C2997 0.950 . S
H2974 C2998 0.950 . S
H2975 C2999 0.951 . S
H2976 C3001 0.951 . S
H2977 C3003 0.950 . S
H2978 C3004 0.950 . S
H2979 C3006 0.950 . S
H2980 C3009 0.950 . S
H2981 C3010 0.950 . S
H2982 C3012 0.950 . S
H2983 C3013 0.950 . S
C2984 H2966 0.951 . S
C2984 C2985 1.366 . S
C2984 C2986 1.388 1_545 S
C2985 C2984 1.366 . S
C2985 C2989 1.385 . S
C2986 H2967 0.951 . S
C2986 C2984 1.388 1_565 S
C2986 C2987 1.366 . S
C2987 C2986 1.366 . S
C2987 C2988 1.414 . S
C2987 C2990 1.499 . S
C2988 H2968 0.950 . S
C2988 C2987 1.414 . S
C2988 C2989 1.374 1_565 S
C2989 H2969 0.950 . S
C2989 C2985 1.385 . S
C2989 C2988 1.374 1_545 S
C2990 C2987 1.499 . S
C2990 C2991 1.373 . S
C2990 C2992 1.389 . S
C2991 H2970 0.950 . S
C2991 C2990 1.373 . S
C2991 C3007 1.377 . S
C2992 C2990 1.389 . S
C2992 C2993 1.524 . S
C2992 C3006 1.377 . S
C2993 C2992 1.524 . S
C2993 C2994 1.397 . S
C2993 C2998 1.363 . S
C2994 H2971 0.950 . S
C2994 C2993 1.397 . S
C2994 C2995 1.334 . S
C2995 H2972 0.950 . S
C2995 C2994 1.334 . S
C2995 C2996 1.287 . S
C2996 C2995 1.287 . S
C2996 C2997 1.524 . S
C2996 H3015 0.913 . S
C2997 H2973 0.950 . S
C2997 C2996 1.524 . S
C2997 C2998 1.415 . S
C2998 H2974 0.950 . S
C2998 C2993 1.363 . S
C2998 C2997 1.415 . S
C2999 H2975 0.951 . S
C2999 C3000 1.366 . S
C2999 C3001 1.388 . S
C3000 C2999 1.366 . S
C3000 C3004 1.385 . S
C3001 H2976 0.951 . S
C3001 C2999 1.388 . S
C3001 C3002 1.366 . S
C3002 C3001 1.366 . S
C3002 C3003 1.414 . S
C3002 C3005 1.499 . S
C3003 H2977 0.950 . S
C3003 C3002 1.414 . S
C3003 C3004 1.374 . S
C3004 H2978 0.950 . S
C3004 C3000 1.385 . S
C3004 C3003 1.374 . S
C3005 C3002 1.499 . S
C3005 C3006 1.373 . S
C3005 C3007 1.389 . S
C3006 H2979 0.950 . S
C3006 C2992 1.377 . S
C3006 C3005 1.373 . S
C3007 C2991 1.377 . S
C3007 C3005 1.389 . S
C3007 C3008 1.524 . S
C3008 C3007 1.524 . S
C3008 C3009 1.397 . S
C3008 C3013 1.363 . S
C3009 H2980 0.950 . S
C3009 C3008 1.397 . S
C3009 C3010 1.334 . S
C3010 H2981 0.950 . S
C3010 C3009 1.334 . S
C3010 C3011 1.287 . S
C3011 C3010 1.287 . S
C3011 C3012 1.524 . S
C3011 H3014 0.999 . S
C3012 H2982 0.950 . S
C3012 C3011 1.524 . S
C3012 C3013 1.415 . S
C3013 H2983 0.950 . S
C3013 C3008 1.363 . S
C3013 C3012 1.415 . S
H3014 C3011 0.999 . S
H3015 C2996 0.913 . S
H3016 C3034 0.951 . S
H3017 C3036 0.951 . S
H3018 C3038 0.950 . S
H3019 C3039 0.950 . S
H3020 C3041 0.950 . S
H3021 C3044 0.950 . S
H3022 C3045 0.950 . S
H3023 C3047 0.950 . S
H3024 C3048 0.950 . S
H3025 C3049 0.951 . S
H3026 C3051 0.951 . S
H3027 C3053 0.950 . S
H3028 C3054 0.950 . S
H3029 C3056 0.950 . S
H3030 C3059 0.950 . S
H3031 C3060 0.950 . S
H3032 C3062 0.950 . S
H3033 C3063 0.950 . S
C3034 H3016 0.951 . S
C3034 C3035 1.366 . S
C3034 C3036 1.388 . S
C3035 C3034 1.366 . S
C3035 C3039 1.385 . S
C3036 H3017 0.951 . S
C3036 C3034 1.388 . S
C3036 C3037 1.366 . S
C3037 C3036 1.366 . S
C3037 C3038 1.414 . S
C3037 C3040 1.499 . S
C3038 H3018 0.950 . S
C3038 C3037 1.414 . S
C3038 C3039 1.374 . S
C3039 H3019 0.950 . S
C3039 C3035 1.385 . S
C3039 C3038 1.374 . S
C3040 C3037 1.499 . S
C3040 C3041 1.373 . S
C3040 C3042 1.389 . S
C3041 H3020 0.950 . S
C3041 C3040 1.373 . S
C3041 C3057 1.377 . S
C3042 C3040 1.389 . S
C3042 C3043 1.524 . S
C3042 C3056 1.377 . S
C3043 C3042 1.524 . S
C3043 C3044 1.397 . S
C3043 C3048 1.363 . S
C3044 H3021 0.950 . S
C3044 C3043 1.397 . S
C3044 C3045 1.334 . S
C3045 H3022 0.950 . S
C3045 C3044 1.334 . S
C3045 C3046 1.287 . S
C3046 C3045 1.287 . S
C3046 C3047 1.524 . S
C3046 H3065 0.911 1_455 S
C3047 H3023 0.950 . S
C3047 C3046 1.524 . S
C3047 C3048 1.415 . S
C3048 H3024 0.950 . S
C3048 C3043 1.363 . S
C3048 C3047 1.415 . S
C3049 H3025 0.951 . S
C3049 C3050 1.366 . S
C3049 C3051 1.388 . S
C3050 C3049 1.366 . S
C3050 C3054 1.385 . S
C3051 H3026 0.951 . S
C3051 C3049 1.388 . S
C3051 C3052 1.366 . S
C3052 C3051 1.366 . S
C3052 C3053 1.414 . S
C3052 C3055 1.499 . S
C3053 H3027 0.950 . S
C3053 C3052 1.414 . S
C3053 C3054 1.374 . S
C3054 H3028 0.950 . S
C3054 C3050 1.385 . S
C3054 C3053 1.374 . S
C3055 C3052 1.499 . S
C3055 C3056 1.373 . S
C3055 C3057 1.389 . S
C3056 H3029 0.950 . S
C3056 C3042 1.377 . S
C3056 C3055 1.373 . S
C3057 C3041 1.377 . S
C3057 C3055 1.389 . S
C3057 C3058 1.524 . S
C3058 C3057 1.524 . S
C3058 C3059 1.397 . S
C3058 C3063 1.363 . S
C3059 H3030 0.950 . S
C3059 C3058 1.397 . S
C3059 C3060 1.334 . S
C3060 H3031 0.950 . S
C3060 C3059 1.334 . S
C3060 C3061 1.287 . S
C3061 C3060 1.287 . S
C3061 C3062 1.524 . S
C3061 H3064 0.999 . S
C3062 H3032 0.950 . S
C3062 C3061 1.524 . S
C3062 C3063 1.415 . S
C3063 H3033 0.950 . S
C3063 C3058 1.363 . S
C3063 C3062 1.415 . S
H3064 C3061 0.999 . S
H3065 C3046 0.911 1_655 S
H3066 C3084 0.951 . S
H3067 C3086 0.951 . S
H3068 C3088 0.950 . S
H3069 C3089 0.950 . S
H3070 C3091 0.950 . S
H3071 C3094 0.950 . S
H3072 C3095 0.950 . S
H3073 C3097 0.950 . S
H3074 C3098 0.950 . S
H3075 C3099 0.951 . S
H3076 C3101 0.951 . S
H3077 C3103 0.950 . S
H3078 C3104 0.950 . S
H3079 C3106 0.950 . S
H3080 C3109 0.950 . S
H3081 C3110 0.950 . S
H3082 C3112 0.950 . S
H3083 C3113 0.950 . S
C3084 H3066 0.951 . S
C3084 C3085 1.366 . S
C3084 C3086 1.388 . S
C3085 C3084 1.366 . S
C3085 C3089 1.385 . S
C3086 H3067 0.951 . S
C3086 C3084 1.388 . S
C3086 C3087 1.366 . S
C3087 C3086 1.366 . S
C3087 C3088 1.414 . S
C3087 C3090 1.499 . S
C3088 H3068 0.950 . S
C3088 C3087 1.414 . S
C3088 C3089 1.374 . S
C3089 H3069 0.950 . S
C3089 C3085 1.385 . S
C3089 C3088 1.374 . S
C3090 C3087 1.499 . S
C3090 C3091 1.373 . S
C3090 C3092 1.389 . S
C3091 H3070 0.950 . S
C3091 C3090 1.373 . S
C3091 C3107 1.377 . S
C3092 C3090 1.389 . S
C3092 C3093 1.524 . S
C3092 C3106 1.377 . S
C3093 C3092 1.524 . S
C3093 C3094 1.397 . S
C3093 C3098 1.363 . S
C3094 H3071 0.950 . S
C3094 C3093 1.397 . S
C3094 C3095 1.334 . S
C3095 H3072 0.950 . S
C3095 C3094 1.334 . S
C3095 C3096 1.287 . S
C3096 C3095 1.287 . S
C3096 C3097 1.524 . S
C3096 H3115 0.913 . S
C3097 H3073 0.950 . S
C3097 C3096 1.524 . S
C3097 C3098 1.415 . S
C3098 H3074 0.950 . S
C3098 C3093 1.363 . S
C3098 C3097 1.415 . S
C3099 H3075 0.951 . S
C3099 C3100 1.366 . S
C3099 C3101 1.388 . S
C3100 C3099 1.366 . S
C3100 C3104 1.385 . S
C3101 H3076 0.951 . S
C3101 C3099 1.388 . S
C3101 C3102 1.366 . S
C3102 C3101 1.366 . S
C3102 C3103 1.414 . S
C3102 C3105 1.499 . S
C3103 H3077 0.950 . S
C3103 C3102 1.414 . S
C3103 C3104 1.374 . S
C3104 H3078 0.950 . S
C3104 C3100 1.385 . S
C3104 C3103 1.374 . S
C3105 C3102 1.499 . S
C3105 C3106 1.373 . S
C3105 C3107 1.389 . S
C3106 H3079 0.950 . S
C3106 C3092 1.377 . S
C3106 C3105 1.373 . S
C3107 C3091 1.377 . S
C3107 C3105 1.389 . S
C3107 C3108 1.524 . S
C3108 C3107 1.524 . S
C3108 C3109 1.397 . S
C3108 C3113 1.363 . S
C3109 H3080 0.950 . S
C3109 C3108 1.397 . S
C3109 C3110 1.334 . S
C3110 H3081 0.950 . S
C3110 C3109 1.334 . S
C3110 C3111 1.287 . S
C3111 C3110 1.287 . S
C3111 C3112 1.524 . S
C3111 H3114 0.999 . S
C3112 H3082 0.950 . S
C3112 C3111 1.524 . S
C3112 C3113 1.415 . S
C3113 H3083 0.950 . S
C3113 C3108 1.363 . S
C3113 C3112 1.415 . S
H3114 C3111 0.999 . S
H3115 C3096 0.913 . S
H3116 C3134 0.951 . S
H3117 C3136 0.951 . S
H3118 C3138 0.950 . S
H3119 C3139 0.950 . S
H3120 C3141 0.950 . S
H3121 C3144 0.950 . S
H3122 C3145 0.950 . S
H3123 C3147 0.950 . S
H3124 C3148 0.950 . S
H3125 C3149 0.951 . S
H3126 C3151 0.951 . S
H3127 C3153 0.950 . S
H3128 C3154 0.950 . S
H3129 C3156 0.950 . S
H3130 C3159 0.950 . S
H3131 C3160 0.950 . S
H3132 C3162 0.950 . S
H3133 C3163 0.950 . S
C3134 H3116 0.951 . S
C3134 C3135 1.366 . S
C3134 C3136 1.388 . S
C3135 C3134 1.366 . S
C3135 C3139 1.385 . S
C3136 H3117 0.951 . S
C3136 C3134 1.388 . S
C3136 C3137 1.366 . S
C3137 C3136 1.366 . S
C3137 C3138 1.414 . S
C3137 C3140 1.499 . S
C3138 H3118 0.950 . S
C3138 C3137 1.414 . S
C3138 C3139 1.374 . S
C3139 H3119 0.950 . S
C3139 C3135 1.385 . S
C3139 C3138 1.374 . S
C3140 C3137 1.499 . S
C3140 C3141 1.373 . S
C3140 C3142 1.389 . S
C3141 H3120 0.950 . S
C3141 C3140 1.373 . S
C3141 C3157 1.377 . S
C3142 C3140 1.389 . S
C3142 C3143 1.524 . S
C3142 C3156 1.377 . S
C3143 C3142 1.524 . S
C3143 C3144 1.397 . S
C3143 C3148 1.363 . S
C3144 H3121 0.950 . S
C3144 C3143 1.397 . S
C3144 C3145 1.334 . S
C3145 H3122 0.950 . S
C3145 C3144 1.334 . S
C3145 C3146 1.287 . S
C3146 C3145 1.287 . S
C3146 C3147 1.524 . S
C3146 H3165 0.913 . S
C3147 H3123 0.950 . S
C3147 C3146 1.524 . S
C3147 C3148 1.415 . S
C3148 H3124 0.950 . S
C3148 C3143 1.363 . S
C3148 C3147 1.415 . S
C3149 H3125 0.951 . S
C3149 C3150 1.366 . S
C3149 C3151 1.388 . S
C3150 C3149 1.366 . S
C3150 C3154 1.385 . S
C3151 H3126 0.951 . S
C3151 C3149 1.388 . S
C3151 C3152 1.366 . S
C3152 C3151 1.366 . S
C3152 C3153 1.414 . S
C3152 C3155 1.499 . S
C3153 H3127 0.950 . S
C3153 C3152 1.414 . S
C3153 C3154 1.374 . S
C3154 H3128 0.950 . S
C3154 C3150 1.385 . S
C3154 C3153 1.374 . S
C3155 C3152 1.499 . S
C3155 C3156 1.373 . S
C3155 C3157 1.389 . S
C3156 H3129 0.950 . S
C3156 C3142 1.377 . S
C3156 C3155 1.373 . S
C3157 C3141 1.377 . S
C3157 C3155 1.389 . S
C3157 C3158 1.524 . S
C3158 C3157 1.524 . S
C3158 C3159 1.397 . S
C3158 C3163 1.363 . S
C3159 H3130 0.950 . S
C3159 C3158 1.397 . S
C3159 C3160 1.334 . S
C3160 H3131 0.950 . S
C3160 C3159 1.334 . S
C3160 C3161 1.287 . S
C3161 C3160 1.287 . S
C3161 C3162 1.524 . S
C3161 H3164 0.999 . S
C3162 H3132 0.950 . S
C3162 C3161 1.524 . S
C3162 C3163 1.415 . S
C3163 H3133 0.950 . S
C3163 C3158 1.363 . S
C3163 C3162 1.415 . S
H3164 C3161 0.999 . S
H3165 C3146 0.913 . S
H3166 C3184 0.951 . S
H3167 C3186 0.951 . S
H3168 C3188 0.950 . S
H3169 C3189 0.950 . S
H3170 C3191 0.950 . S
H3171 C3194 0.950 . S
H3172 C3195 0.950 . S
H3173 C3197 0.950 . S
H3174 C3198 0.950 . S
H3175 C3199 0.951 . S
H3176 C3201 0.951 . S
H3177 C3203 0.950 . S
H3178 C3204 0.950 . S
H3179 C3206 0.950 . S
H3180 C3209 0.950 . S
H3181 C3210 0.950 . S
H3182 C3212 0.950 . S
H3183 C3213 0.950 . S
C3184 H3166 0.951 . S
C3184 C3185 1.366 . S
C3184 C3186 1.388 . S
C3185 C3184 1.366 . S
C3185 C3189 1.385 . S
C3186 H3167 0.951 . S
C3186 C3184 1.388 . S
C3186 C3187 1.366 . S
C3187 C3186 1.366 . S
C3187 C3188 1.414 . S
C3187 C3190 1.499 . S
C3188 H3168 0.950 . S
C3188 C3187 1.414 . S
C3188 C3189 1.374 . S
C3189 H3169 0.950 . S
C3189 C3185 1.385 . S
C3189 C3188 1.374 . S
C3190 C3187 1.499 . S
C3190 C3191 1.373 . S
C3190 C3192 1.389 . S
C3191 H3170 0.950 . S
C3191 C3190 1.373 . S
C3191 C3207 1.377 . S
C3192 C3190 1.389 . S
C3192 C3193 1.524 . S
C3192 C3206 1.377 . S
C3193 C3192 1.524 . S
C3193 C3194 1.397 . S
C3193 C3198 1.363 . S
C3194 H3171 0.950 . S
C3194 C3193 1.397 . S
C3194 C3195 1.334 . S
C3195 H3172 0.950 . S
C3195 C3194 1.334 . S
C3195 C3196 1.287 . S
C3196 C3195 1.287 . S
C3196 C3197 1.524 . S
C3196 H3215 0.913 . S
C3197 H3173 0.950 . S
C3197 C3196 1.524 . S
C3197 C3198 1.415 . S
C3198 H3174 0.950 . S
C3198 C3193 1.363 . S
C3198 C3197 1.415 . S
C3199 H3175 0.951 . S
C3199 C3200 1.366 . S
C3199 C3201 1.388 . S
C3200 C3199 1.366 . S
C3200 C3204 1.385 . S
C3201 H3176 0.951 . S
C3201 C3199 1.388 . S
C3201 C3202 1.366 . S
C3202 C3201 1.366 . S
C3202 C3203 1.414 . S
C3202 C3205 1.499 . S
C3203 H3177 0.950 . S
C3203 C3202 1.414 . S
C3203 C3204 1.374 . S
C3204 H3178 0.950 . S
C3204 C3200 1.385 . S
C3204 C3203 1.374 . S
C3205 C3202 1.499 . S
C3205 C3206 1.373 . S
C3205 C3207 1.389 . S
C3206 H3179 0.950 . S
C3206 C3192 1.377 . S
C3206 C3205 1.373 . S
C3207 C3191 1.377 . S
C3207 C3205 1.389 . S
C3207 C3208 1.524 . S
C3208 C3207 1.524 . S
C3208 C3209 1.397 . S
C3208 C3213 1.363 . S
C3209 H3180 0.950 . S
C3209 C3208 1.397 . S
C3209 C3210 1.334 . S
C3210 H3181 0.950 . S
C3210 C3209 1.334 . S
C3210 C3211 1.287 . S
C3211 C3210 1.287 . S
C3211 C3212 1.524 . S
C3211 H3214 0.999 . S
C3212 H3182 0.950 . S
C3212 C3211 1.524 . S
C3212 C3213 1.415 . S
C3213 H3183 0.950 . S
C3213 C3208 1.363 . S
C3213 C3212 1.415 . S
H3214 C3211 0.999 . S
H3215 C3196 0.913 . S
H3216 C3234 0.951 . S
H3217 C3236 0.951 . S
H3218 C3238 0.950 . S
H3219 C3239 0.950 . S
H3220 C3241 0.950 . S
H3221 C3244 0.950 . S
H3222 C3245 0.950 . S
H3223 C3247 0.950 . S
H3224 C3248 0.950 . S
H3225 C3249 0.951 . S
H3226 C3251 0.951 . S
H3227 C3253 0.950 . S
H3228 C3254 0.950 . S
H3229 C3256 0.950 . S
H3230 C3259 0.950 . S
H3231 C3260 0.950 . S
H3232 C3262 0.950 . S
H3233 C3263 0.950 . S
C3234 H3216 0.951 . S
C3234 C3235 1.366 . S
C3234 C3236 1.388 1_565 S
C3235 C3234 1.366 . S
C3235 C3239 1.385 . S
C3236 H3217 0.951 . S
C3236 C3234 1.388 1_545 S
C3236 C3237 1.366 . S
C3237 C3236 1.366 . S
C3237 C3238 1.414 . S
C3237 C3240 1.499 . S
C3238 H3218 0.950 . S
C3238 C3237 1.414 . S
C3238 C3239 1.374 1_545 S
C3239 H3219 0.950 . S
C3239 C3235 1.385 . S
C3239 C3238 1.374 1_565 S
C3240 C3237 1.499 . S
C3240 C3241 1.373 . S
C3240 C3242 1.389 . S
C3241 H3220 0.950 . S
C3241 C3240 1.373 . S
C3241 C3257 1.377 . S
C3242 C3240 1.389 . S
C3242 C3243 1.524 . S
C3242 C3256 1.377 . S
C3243 C3242 1.524 . S
C3243 C3244 1.397 . S
C3243 C3248 1.363 . S
C3244 H3221 0.950 . S
C3244 C3243 1.397 . S
C3244 C3245 1.334 . S
C3245 H3222 0.950 . S
C3245 C3244 1.334 . S
C3245 C3246 1.287 . S
C3246 C3245 1.287 . S
C3246 C3247 1.524 . S
C3246 H3265 0.913 . S
C3247 H3223 0.950 . S
C3247 C3246 1.524 . S
C3247 C3248 1.415 . S
C3248 H3224 0.950 . S
C3248 C3243 1.363 . S
C3248 C3247 1.415 . S
C3249 H3225 0.951 . S
C3249 C3250 1.366 . S
C3249 C3251 1.388 . S
C3250 C3249 1.366 . S
C3250 C3254 1.385 . S
C3251 H3226 0.951 . S
C3251 C3249 1.388 . S
C3251 C3252 1.366 . S
C3252 C3251 1.366 . S
C3252 C3253 1.414 . S
C3252 C3255 1.499 . S
C3253 H3227 0.950 . S
C3253 C3252 1.414 . S
C3253 C3254 1.374 . S
C3254 H3228 0.950 . S
C3254 C3250 1.385 . S
C3254 C3253 1.374 . S
C3255 C3252 1.499 . S
C3255 C3256 1.373 . S
C3255 C3257 1.389 . S
C3256 H3229 0.950 . S
C3256 C3242 1.377 . S
C3256 C3255 1.373 . S
C3257 C3241 1.377 . S
C3257 C3255 1.389 . S
C3257 C3258 1.524 . S
C3258 C3257 1.524 . S
C3258 C3259 1.397 . S
C3258 C3263 1.363 . S
C3259 H3230 0.950 . S
C3259 C3258 1.397 . S
C3259 C3260 1.334 . S
C3260 H3231 0.950 . S
C3260 C3259 1.334 . S
C3260 C3261 1.287 . S
C3261 C3260 1.287 . S
C3261 C3262 1.524 . S
C3261 H3264 0.999 . S
C3262 H3232 0.950 . S
C3262 C3261 1.524 . S
C3262 C3263 1.415 . S
C3263 H3233 0.950 . S
C3263 C3258 1.363 . S
C3263 C3262 1.415 . S
H3264 C3261 0.999 . S
H3265 C3246 0.913 . S
H3266 C3284 0.951 . S
H3267 C3286 0.951 . S
H3268 C3288 0.950 . S
H3269 C3289 0.950 . S
H3270 C3291 0.950 . S
H3271 C3294 0.950 . S
H3272 C3295 0.950 . S
H3273 C3297 0.950 . S
H3274 C3298 0.950 . S
H3275 C3299 0.951 . S
H3276 C3301 0.951 . S
H3277 C3303 0.950 . S
H3278 C3304 0.950 . S
H3279 C3306 0.950 . S
H3280 C3309 0.950 . S
H3281 C3310 0.950 . S
H3282 C3312 0.950 . S
H3283 C3313 0.950 . S
C3284 H3266 0.951 . S
C3284 C3285 1.366 . S
C3284 C3286 1.388 . S
C3285 C3284 1.366 . S
C3285 C3289 1.385 . S
C3286 H3267 0.951 . S
C3286 C3284 1.388 . S
C3286 C3287 1.366 . S
C3287 C3286 1.366 . S
C3287 C3288 1.414 . S
C3287 C3290 1.499 . S
C3288 H3268 0.950 . S
C3288 C3287 1.414 . S
C3288 C3289 1.374 . S
C3289 H3269 0.950 . S
C3289 C3285 1.385 . S
C3289 C3288 1.374 . S
C3290 C3287 1.499 . S
C3290 C3291 1.373 . S
C3290 C3292 1.389 . S
C3291 H3270 0.950 . S
C3291 C3290 1.373 . S
C3291 C3307 1.377 . S
C3292 C3290 1.389 . S
C3292 C3293 1.524 . S
C3292 C3306 1.377 . S
C3293 C3292 1.524 . S
C3293 C3294 1.397 . S
C3293 C3298 1.363 . S
C3294 H3271 0.950 . S
C3294 C3293 1.397 . S
C3294 C3295 1.334 . S
C3295 H3272 0.950 . S
C3295 C3294 1.334 . S
C3295 C3296 1.287 . S
C3296 C3295 1.287 . S
C3296 C3297 1.524 . S
C3296 H3315 0.913 . S
C3297 H3273 0.950 . S
C3297 C3296 1.524 . S
C3297 C3298 1.415 . S
C3298 H3274 0.950 . S
C3298 C3293 1.363 . S
C3298 C3297 1.415 . S
C3299 H3275 0.951 . S
C3299 C3300 1.366 . S
C3299 C3301 1.388 1_565 S
C3300 C3299 1.366 . S
C3300 C3304 1.385 . S
C3301 H3276 0.951 . S
C3301 C3299 1.388 1_545 S
C3301 C3302 1.366 . S
C3302 C3301 1.366 . S
C3302 C3303 1.414 . S
C3302 C3305 1.499 . S
C3303 H3277 0.950 . S
C3303 C3302 1.414 . S
C3303 C3304 1.374 1_545 S
C3304 H3278 0.950 . S
C3304 C3300 1.385 . S
C3304 C3303 1.374 1_565 S
C3305 C3302 1.499 . S
C3305 C3306 1.373 . S
C3305 C3307 1.389 . S
C3306 H3279 0.950 . S
C3306 C3292 1.377 . S
C3306 C3305 1.373 . S
C3307 C3291 1.377 . S
C3307 C3305 1.389 . S
C3307 C3308 1.524 . S
C3308 C3307 1.524 . S
C3308 C3309 1.397 . S
C3308 C3313 1.363 . S
C3309 H3280 0.950 . S
C3309 C3308 1.397 . S
C3309 C3310 1.334 . S
C3310 H3281 0.950 . S
C3310 C3309 1.334 . S
C3310 C3311 1.287 . S
C3311 C3310 1.287 . S
C3311 C3312 1.524 . S
C3311 H3314 0.999 . S
C3312 H3282 0.950 . S
C3312 C3311 1.524 . S
C3312 C3313 1.415 . S
C3313 H3283 0.950 . S
C3313 C3308 1.363 . S
C3313 C3312 1.415 . S
H3314 C3311 0.999 . S
H3315 C3296 0.913 . S
H3316 C3334 0.951 . S
H3317 C3336 0.951 . S
H3318 C3338 0.950 . S
H3319 C3339 0.950 . S
H3320 C3341 0.950 . S
H3321 C3344 0.950 . S
H3322 C3345 0.950 . S
H3323 C3347 0.950 . S
H3324 C3348 0.950 . S
H3325 C3349 0.951 . S
H3326 C3351 0.951 . S
H3327 C3353 0.950 . S
H3328 C3354 0.950 . S
H3329 C3356 0.950 . S
H3330 C3359 0.950 . S
H3331 C3360 0.950 . S
H3332 C3362 0.950 . S
H3333 C3363 0.950 . S
C3334 H3316 0.951 . S
C3334 C3335 1.366 . S
C3334 C3336 1.388 . S
C3335 C3334 1.366 . S
C3335 C3339 1.385 . S
C3336 H3317 0.951 . S
C3336 C3334 1.388 . S
C3336 C3337 1.366 . S
C3337 C3336 1.366 . S
C3337 C3338 1.414 . S
C3337 C3340 1.499 . S
C3338 H3318 0.950 . S
C3338 C3337 1.414 . S
C3338 C3339 1.374 . S
C3339 H3319 0.950 . S
C3339 C3335 1.385 . S
C3339 C3338 1.374 . S
C3340 C3337 1.499 . S
C3340 C3341 1.373 . S
C3340 C3342 1.389 . S
C3341 H3320 0.950 . S
C3341 C3340 1.373 . S
C3341 C3357 1.377 . S
C3342 C3340 1.389 . S
C3342 C3343 1.524 . S
C3342 C3356 1.377 . S
C3343 C3342 1.524 . S
C3343 C3344 1.397 . S
C3343 C3348 1.363 . S
C3344 H3321 0.950 . S
C3344 C3343 1.397 . S
C3344 C3345 1.334 . S
C3345 H3322 0.950 . S
C3345 C3344 1.334 . S
C3345 C3346 1.287 . S
C3346 C3345 1.287 . S
C3346 C3347 1.524 . S
C3346 H3365 0.913 . S
C3347 H3323 0.950 . S
C3347 C3346 1.524 . S
C3347 C3348 1.415 . S
C3348 H3324 0.950 . S
C3348 C3343 1.363 . S
C3348 C3347 1.415 . S
C3349 H3325 0.951 . S
C3349 C3350 1.366 . S
C3349 C3351 1.388 1_545 S
C3350 C3349 1.366 . S
C3350 C3354 1.385 . S
C3351 H3326 0.951 . S
C3351 C3349 1.388 1_565 S
C3351 C3352 1.366 . S
C3352 C3351 1.366 . S
C3352 C3353 1.414 . S
C3352 C3355 1.499 . S
C3353 H3327 0.950 . S
C3353 C3352 1.414 . S
C3353 C3354 1.374 1_565 S
C3354 H3328 0.950 . S
C3354 C3350 1.385 . S
C3354 C3353 1.374 1_545 S
C3355 C3352 1.499 . S
C3355 C3356 1.373 . S
C3355 C3357 1.389 . S
C3356 H3329 0.950 . S
C3356 C3342 1.377 . S
C3356 C3355 1.373 . S
C3357 C3341 1.377 . S
C3357 C3355 1.389 . S
C3357 C3358 1.524 . S
C3358 C3357 1.524 . S
C3358 C3359 1.397 . S
C3358 C3363 1.363 . S
C3359 H3330 0.950 . S
C3359 C3358 1.397 . S
C3359 C3360 1.334 . S
C3360 H3331 0.950 . S
C3360 C3359 1.334 . S
C3360 C3361 1.287 . S
C3361 C3360 1.287 . S
C3361 C3362 1.524 . S
C3361 H3364 0.999 . S
C3362 H3332 0.950 . S
C3362 C3361 1.524 . S
C3362 C3363 1.415 . S
C3363 H3333 0.950 . S
C3363 C3358 1.363 . S
C3363 C3362 1.415 . S
H3364 C3361 0.999 . S
H3365 C3346 0.913 . S
H3366 C3384 0.951 . S
H3367 C3386 0.951 . S
H3368 C3388 0.950 . S
H3369 C3389 0.950 . S
H3370 C3391 0.950 . S
H3371 C3394 0.950 . S
H3372 C3395 0.950 . S
H3373 C3397 0.950 . S
H3374 C3398 0.950 . S
H3375 C3399 0.951 . S
H3376 C3401 0.951 . S
H3377 C3403 0.950 . S
H3378 C3404 0.950 . S
H3379 C3406 0.950 . S
H3380 C3409 0.950 . S
H3381 C3410 0.950 . S
H3382 C3412 0.950 . S
H3383 C3413 0.950 . S
C3384 H3366 0.951 . S
C3384 C3385 1.366 . S
C3384 C3386 1.388 . S
C3385 C3384 1.366 . S
C3385 C3389 1.385 . S
C3386 H3367 0.951 . S
C3386 C3384 1.388 . S
C3386 C3387 1.366 . S
C3387 C3386 1.366 . S
C3387 C3388 1.414 . S
C3387 C3390 1.499 . S
C3388 H3368 0.950 . S
C3388 C3387 1.414 . S
C3388 C3389 1.374 . S
C3389 H3369 0.950 . S
C3389 C3385 1.385 . S
C3389 C3388 1.374 . S
C3390 C3387 1.499 . S
C3390 C3391 1.373 . S
C3390 C3392 1.389 . S
C3391 H3370 0.950 . S
C3391 C3390 1.373 . S
C3391 C3407 1.377 . S
C3392 C3390 1.389 . S
C3392 C3393 1.524 . S
C3392 C3406 1.377 . S
C3393 C3392 1.524 . S
C3393 C3394 1.397 . S
C3393 C3398 1.363 . S
C3394 H3371 0.950 . S
C3394 C3393 1.397 . S
C3394 C3395 1.334 . S
C3395 H3372 0.950 . S
C3395 C3394 1.334 . S
C3395 C3396 1.287 . S
C3396 C3395 1.287 . S
C3396 C3397 1.524 . S
C3396 H3415 0.913 . S
C3397 H3373 0.950 . S
C3397 C3396 1.524 . S
C3397 C3398 1.415 . S
C3398 H3374 0.950 . S
C3398 C3393 1.363 . S
C3398 C3397 1.415 . S
C3399 H3375 0.951 . S
C3399 C3400 1.366 . S
C3399 C3401 1.388 1_545 S
C3400 C3399 1.366 . S
C3400 C3404 1.385 . S
C3401 H3376 0.951 . S
C3401 C3399 1.388 1_565 S
C3401 C3402 1.366 . S
C3402 C3401 1.366 . S
C3402 C3403 1.414 . S
C3402 C3405 1.499 . S
C3403 H3377 0.950 . S
C3403 C3402 1.414 . S
C3403 C3404 1.374 1_565 S
C3404 H3378 0.950 . S
C3404 C3400 1.385 . S
C3404 C3403 1.374 1_545 S
C3405 C3402 1.499 . S
C3405 C3406 1.373 . S
C3405 C3407 1.389 . S
C3406 H3379 0.950 . S
C3406 C3392 1.377 . S
C3406 C3405 1.373 . S
C3407 C3391 1.377 . S
C3407 C3405 1.389 . S
C3407 C3408 1.524 . S
C3408 C3407 1.524 . S
C3408 C3409 1.397 . S
C3408 C3413 1.363 . S
C3409 H3380 0.950 . S
C3409 C3408 1.397 . S
C3409 C3410 1.334 . S
C3410 H3381 0.950 . S
C3410 C3409 1.334 . S
C3410 C3411 1.287 . S
C3411 C3410 1.287 . S
C3411 C3412 1.524 . S
C3411 H3414 0.999 . S
C3412 H3382 0.950 . S
C3412 C3411 1.524 . S
C3412 C3413 1.415 . S
C3413 H3383 0.950 . S
C3413 C3408 1.363 . S
C3413 C3412 1.415 . S
H3414 C3411 0.999 . S
H3415 C3396 0.913 . S
H3416 C3434 0.951 . S
H3417 C3436 0.951 . S
H3418 C3438 0.950 . S
H3419 C3439 0.950 . S
H3420 C3441 0.950 . S
H3421 C3444 0.950 . S
H3422 C3445 0.950 . S
H3423 C3447 0.950 . S
H3424 C3448 0.950 . S
H3425 C3449 0.951 . S
H3426 C3451 0.951 . S
H3427 C3453 0.950 . S
H3428 C3454 0.950 . S
H3429 C3456 0.950 . S
H3430 C3459 0.950 . S
H3431 C3460 0.950 . S
H3432 C3462 0.950 . S
H3433 C3463 0.950 . S
C3434 H3416 0.951 . S
C3434 C3435 1.366 . S
C3434 C3436 1.388 . S
C3435 C3434 1.366 . S
C3435 C3439 1.385 . S
C3436 H3417 0.951 . S
C3436 C3434 1.388 . S
C3436 C3437 1.366 . S
C3437 C3436 1.366 . S
C3437 C3438 1.414 . S
C3437 C3440 1.499 . S
C3438 H3418 0.950 . S
C3438 C3437 1.414 . S
C3438 C3439 1.374 . S
C3439 H3419 0.950 . S
C3439 C3435 1.385 . S
C3439 C3438 1.374 . S
C3440 C3437 1.499 . S
C3440 C3441 1.373 . S
C3440 C3442 1.389 . S
C3441 H3420 0.950 . S
C3441 C3440 1.373 . S
C3441 C3457 1.377 . S
C3442 C3440 1.389 . S
C3442 C3443 1.524 . S
C3442 C3456 1.377 . S
C3443 C3442 1.524 . S
C3443 C3444 1.397 . S
C3443 C3448 1.363 . S
C3444 H3421 0.950 . S
C3444 C3443 1.397 . S
C3444 C3445 1.334 . S
C3445 H3422 0.950 . S
C3445 C3444 1.334 . S
C3445 C3446 1.287 . S
C3446 C3445 1.287 . S
C3446 C3447 1.524 . S
C3446 H3465 0.913 . S
C3447 H3423 0.950 . S
C3447 C3446 1.524 . S
C3447 C3448 1.415 . S
C3448 H3424 0.950 . S
C3448 C3443 1.363 . S
C3448 C3447 1.415 . S
C3449 H3425 0.951 . S
C3449 C3450 1.366 . S
C3449 C3451 1.388 . S
C3450 C3449 1.366 . S
C3450 C3454 1.385 . S
C3451 H3426 0.951 . S
C3451 C3449 1.388 . S
C3451 C3452 1.366 . S
C3452 C3451 1.366 . S
C3452 C3453 1.414 . S
C3452 C3455 1.499 . S
C3453 H3427 0.950 . S
C3453 C3452 1.414 . S
C3453 C3454 1.374 . S
C3454 H3428 0.950 . S
C3454 C3450 1.385 . S
C3454 C3453 1.374 . S
C3455 C3452 1.499 . S
C3455 C3456 1.373 . S
C3455 C3457 1.389 . S
C3456 H3429 0.950 . S
C3456 C3442 1.377 . S
C3456 C3455 1.373 . S
C3457 C3441 1.377 . S
C3457 C3455 1.389 . S
C3457 C3458 1.524 . S
C3458 C3457 1.524 . S
C3458 C3459 1.397 . S
C3458 C3463 1.363 . S
C3459 H3430 0.950 . S
C3459 C3458 1.397 . S
C3459 C3460 1.334 . S
C3460 H3431 0.950 . S
C3460 C3459 1.334 . S
C3460 C3461 1.287 . S
C3461 C3460 1.287 . S
C3461 C3462 1.524 . S
C3461 H3464 0.999 . S
C3462 H3432 0.950 . S
C3462 C3461 1.524 . S
C3462 C3463 1.415 . S
C3463 H3433 0.950 . S
C3463 C3458 1.363 . S
C3463 C3462 1.415 . S
H3464 C3461 0.999 . S
H3465 C3446 0.913 . S
H3466 C3484 0.951 . S
H3467 C3486 0.951 . S
H3468 C3488 0.950 . S
H3469 C3489 0.950 . S
H3470 C3491 0.950 . S
H3471 C3494 0.950 . S
H3472 C3495 0.950 . S
H3473 C3497 0.950 . S
H3474 C3498 0.950 . S
H3475 C3499 0.951 . S
H3476 C3501 0.951 . S
H3477 C3503 0.950 . S
H3478 C3504 0.950 . S
H3479 C3506 0.950 . S
H3480 C3509 0.950 . S
H3481 C3510 0.950 . S
H3482 C3512 0.950 . S
H3483 C3513 0.950 . S
C3484 H3466 0.951 . S
C3484 C3485 1.366 . S
C3484 C3486 1.388 . S
C3485 C3484 1.366 . S
C3485 C3489 1.385 . S
C3486 H3467 0.951 . S
C3486 C3484 1.388 . S
C3486 C3487 1.366 . S
C3487 C3486 1.366 . S
C3487 C3488 1.414 . S
C3487 C3490 1.499 . S
C3488 H3468 0.950 . S
C3488 C3487 1.414 . S
C3488 C3489 1.374 . S
C3489 H3469 0.950 . S
C3489 C3485 1.385 . S
C3489 C3488 1.374 . S
C3490 C3487 1.499 . S
C3490 C3491 1.373 . S
C3490 C3492 1.389 . S
C3491 H3470 0.950 . S
C3491 C3490 1.373 . S
C3491 C3507 1.377 . S
C3492 C3490 1.389 . S
C3492 C3493 1.524 . S
C3492 C3506 1.377 . S
C3493 C3492 1.524 . S
C3493 C3494 1.397 . S
C3493 C3498 1.363 . S
C3494 H3471 0.950 . S
C3494 C3493 1.397 . S
C3494 C3495 1.334 . S
C3495 H3472 0.950 . S
C3495 C3494 1.334 . S
C3495 C3496 1.287 . S
C3496 C3495 1.287 . S
C3496 C3497 1.524 . S
C3496 H3515 0.913 . S
C3497 H3473 0.950 . S
C3497 C3496 1.524 . S
C3497 C3498 1.415 . S
C3498 H3474 0.950 . S
C3498 C3493 1.363 . S
C3498 C3497 1.415 . S
C3499 H3475 0.951 . S
C3499 C3500 1.366 . S
C3499 C3501 1.388 . S
C3500 C3499 1.366 . S
C3500 C3504 1.385 . S
C3501 H3476 0.951 . S
C3501 C3499 1.388 . S
C3501 C3502 1.366 . S
C3502 C3501 1.366 . S
C3502 C3503 1.414 . S
C3502 C3505 1.499 . S
C3503 H3477 0.950 . S
C3503 C3502 1.414 . S
C3503 C3504 1.374 . S
C3504 H3478 0.950 . S
C3504 C3500 1.385 . S
C3504 C3503 1.374 . S
C3505 C3502 1.499 . S
C3505 C3506 1.373 . S
C3505 C3507 1.389 . S
C3506 H3479 0.950 . S
C3506 C3492 1.377 . S
C3506 C3505 1.373 . S
C3507 C3491 1.377 . S
C3507 C3505 1.389 . S
C3507 C3508 1.524 . S
C3508 C3507 1.524 . S
C3508 C3509 1.397 . S
C3508 C3513 1.363 . S
C3509 H3480 0.950 . S
C3509 C3508 1.397 . S
C3509 C3510 1.334 . S
C3510 H3481 0.950 . S
C3510 C3509 1.334 . S
C3510 C3511 1.287 . S
C3511 C3510 1.287 . S
C3511 C3512 1.524 . S
C3511 H3514 0.999 . S
C3512 H3482 0.950 . S
C3512 C3511 1.524 . S
C3512 C3513 1.415 . S
C3513 H3483 0.950 . S
C3513 C3508 1.363 . S
C3513 C3512 1.415 . S
H3514 C3511 0.999 . S
H3515 C3496 0.913 . S
H3516 C3534 0.951 . S
H3517 C3536 0.951 . S
H3518 C3538 0.950 . S
H3519 C3539 0.950 . S
H3520 C3541 0.950 . S
H3521 C3544 0.950 . S
H3522 C3545 0.950 . S
H3523 C3547 0.950 . S
H3524 C3548 0.950 . S
H3525 C3549 0.951 . S
H3526 C3551 0.951 . S
H3527 C3553 0.950 . S
H3528 C3554 0.950 . S
H3529 C3556 0.950 . S
H3530 C3559 0.950 . S
H3531 C3560 0.950 . S
H3532 C3562 0.950 . S
H3533 C3563 0.950 . S
C3534 H3516 0.951 . S
C3534 C3535 1.366 . S
C3534 C3536 1.388 . S
C3535 C3534 1.366 . S
C3535 C3539 1.385 . S
C3536 H3517 0.951 . S
C3536 C3534 1.388 . S
C3536 C3537 1.366 . S
C3537 C3536 1.366 . S
C3537 C3538 1.414 . S
C3537 C3540 1.499 . S
C3538 H3518 0.950 . S
C3538 C3537 1.414 . S
C3538 C3539 1.374 . S
C3539 H3519 0.950 . S
C3539 C3535 1.385 . S
C3539 C3538 1.374 . S
C3540 C3537 1.499 . S
C3540 C3541 1.373 . S
C3540 C3542 1.389 . S
C3541 H3520 0.950 . S
C3541 C3540 1.373 . S
C3541 C3557 1.377 . S
C3542 C3540 1.389 . S
C3542 C3543 1.524 . S
C3542 C3556 1.377 . S
C3543 C3542 1.524 . S
C3543 C3544 1.397 . S
C3543 C3548 1.363 . S
C3544 H3521 0.950 . S
C3544 C3543 1.397 . S
C3544 C3545 1.334 . S
C3545 H3522 0.950 . S
C3545 C3544 1.334 . S
C3545 C3546 1.287 . S
C3546 C3545 1.287 . S
C3546 C3547 1.524 . S
C3546 H3565 0.913 . S
C3547 H3523 0.950 . S
C3547 C3546 1.524 . S
C3547 C3548 1.415 . S
C3548 H3524 0.950 . S
C3548 C3543 1.363 . S
C3548 C3547 1.415 . S
C3549 H3525 0.951 . S
C3549 C3550 1.366 . S
C3549 C3551 1.388 . S
C3550 C3549 1.366 . S
C3550 C3554 1.385 . S
C3551 H3526 0.951 . S
C3551 C3549 1.388 . S
C3551 C3552 1.366 . S
C3552 C3551 1.366 . S
C3552 C3553 1.414 . S
C3552 C3555 1.499 . S
C3553 H3527 0.950 . S
C3553 C3552 1.414 . S
C3553 C3554 1.374 . S
C3554 H3528 0.950 . S
C3554 C3550 1.385 . S
C3554 C3553 1.374 . S
C3555 C3552 1.499 . S
C3555 C3556 1.373 . S
C3555 C3557 1.389 . S
C3556 H3529 0.950 . S
C3556 C3542 1.377 . S
C3556 C3555 1.373 . S
C3557 C3541 1.377 . S
C3557 C3555 1.389 . S
C3557 C3558 1.524 . S
C3558 C3557 1.524 . S
C3558 C3559 1.397 . S
C3558 C3563 1.363 . S
C3559 H3530 0.950 . S
C3559 C3558 1.397 . S
C3559 C3560 1.334 . S
C3560 H3531 0.950 . S
C3560 C3559 1.334 . S
C3560 C3561 1.287 . S
C3561 C3560 1.287 . S
C3561 C3562 1.524 . S
C3561 H3564 0.999 . S
C3562 H3532 0.950 . S
C3562 C3561 1.524 . S
C3562 C3563 1.415 . S
C3563 H3533 0.950 . S
C3563 C3558 1.363 . S
C3563 C3562 1.415 . S
H3564 C3561 0.999 . S
H3565 C3546 0.913 . S
H3566 C3584 0.951 . S
H3567 C3586 0.951 . S
H3568 C3588 0.950 . S
H3569 C3589 0.950 . S
H3570 C3591 0.950 . S
H3571 C3594 0.950 . S
H3572 C3595 0.950 . S
H3573 C3597 0.950 . S
H3574 C3598 0.950 . S
H3575 C3599 0.951 . S
H3576 C3601 0.951 . S
H3577 C3603 0.950 . S
H3578 C3604 0.950 . S
H3579 C3606 0.950 . S
H3580 C3609 0.950 . S
H3581 C3610 0.950 . S
H3582 C3612 0.950 . S
H3583 C3613 0.950 . S
C3584 H3566 0.951 . S
C3584 C3585 1.366 . S
C3584 C3586 1.388 . S
C3585 C3584 1.366 . S
C3585 C3589 1.385 . S
C3586 H3567 0.951 . S
C3586 C3584 1.388 . S
C3586 C3587 1.366 . S
C3587 C3586 1.366 . S
C3587 C3588 1.414 . S
C3587 C3590 1.499 . S
C3588 H3568 0.950 . S
C3588 C3587 1.414 . S
C3588 C3589 1.374 . S
C3589 H3569 0.950 . S
C3589 C3585 1.385 . S
C3589 C3588 1.374 . S
C3590 C3587 1.499 . S
C3590 C3591 1.373 . S
C3590 C3592 1.389 . S
C3591 H3570 0.950 . S
C3591 C3590 1.373 . S
C3591 C3607 1.377 . S
C3592 C3590 1.389 . S
C3592 C3593 1.524 . S
C3592 C3606 1.377 . S
C3593 C3592 1.524 . S
C3593 C3594 1.397 . S
C3593 C3598 1.363 . S
C3594 H3571 0.950 . S
C3594 C3593 1.397 . S
C3594 C3595 1.334 . S
C3595 H3572 0.950 . S
C3595 C3594 1.334 . S
C3595 C3596 1.287 . S
C3596 C3595 1.287 . S
C3596 C3597 1.524 . S
C3596 H3615 0.913 . S
C3597 H3573 0.950 . S
C3597 C3596 1.524 . S
C3597 C3598 1.415 . S
C3598 H3574 0.950 . S
C3598 C3593 1.363 . S
C3598 C3597 1.415 . S
C3599 H3575 0.951 . S
C3599 C3600 1.366 . S
C3599 C3601 1.388 . S
C3600 C3599 1.366 . S
C3600 C3604 1.385 . S
C3601 H3576 0.951 . S
C3601 C3599 1.388 . S
C3601 C3602 1.366 . S
C3602 C3601 1.366 . S
C3602 C3603 1.414 . S
C3602 C3605 1.499 . S
C3603 H3577 0.950 . S
C3603 C3602 1.414 . S
C3603 C3604 1.374 . S
C3604 H3578 0.950 . S
C3604 C3600 1.385 . S
C3604 C3603 1.374 . S
C3605 C3602 1.499 . S
C3605 C3606 1.373 . S
C3605 C3607 1.389 . S
C3606 H3579 0.950 . S
C3606 C3592 1.377 . S
C3606 C3605 1.373 . S
C3607 C3591 1.377 . S
C3607 C3605 1.389 . S
C3607 C3608 1.524 . S
C3608 C3607 1.524 . S
C3608 C3609 1.397 . S
C3608 C3613 1.363 . S
C3609 H3580 0.950 . S
C3609 C3608 1.397 . S
C3609 C3610 1.334 . S
C3610 H3581 0.950 . S
C3610 C3609 1.334 . S
C3610 C3611 1.287 . S
C3611 C3610 1.287 . S
C3611 C3612 1.524 . S
C3611 H3614 0.999 . S
C3612 H3582 0.950 . S
C3612 C3611 1.524 . S
C3612 C3613 1.415 . S
C3613 H3583 0.950 . S
C3613 C3608 1.363 . S
C3613 C3612 1.415 . S
H3614 C3611 0.999 . S
H3615 C3596 0.913 . S
C435 C30 0.476 . S
C450 C4 0.475 . S
C485 C23 0.475 . S
C500 C43 0.476 . S
C535 C82 0.475 . S
C550 C56 0.476 . S
C585 C95 0.476 . S
C600 C69 0.476 . S
C635 C108 0.473 . S
C650 C140 0.473 . S
C685 C153 0.475 . S
C700 C121 0.476 . S
C735 C160 0.473 . S
C750 C192 0.474 . S
C785 C173 0.476 . S
C800 C199 0.476 . S
C835 C238 0.474 . S
C850 C212 0.473 . S
C885 C225 0.475 . S
C900 C251 0.474 . S
C935 C264 0.473 . S
C950 C290 0.473 . S
C985 C303 0.476 . S
C1000 C283 0.476 . S
C1035 C348 0.476 . S
C1050 C322 0.475 . S
C1085 C361 0.474 . S
C1100 C335 0.475 . S
C1135 C400 0.475 . S
C1150 C368 0.476 . S
C1185 C381 0.476 . S
C1200 C407 0.474 . S
C1235 C62 1.570 . S
C1250 C10 1.570 . S
C1285 C387 1.569 . S
C1300 C17 1.569 . S
C1335 C36 1.569 . S
C1350 C186 1.569 . S
C1385 C49 1.571 . S
C1400 C309 1.571 . S
C1435 C75 1.569 . S
C1450 C329 1.569 . S
C1485 C88 1.569 . S
C1500 C134 1.569 . S
C1535 C257 1.570 . S
C1550 C101 1.570 . S
C1585 C166 1.570 . S
C1600 C114 1.570 . S
C1635 C277 1.569 . S
C1650 C127 1.569 . S
C1685 C147 1.570 . S
C1700 C413 1.570 . S
C1735 C179 1.569 . S
C1750 C231 1.569 . S
C1785 C355 1.570 . S
C1800 C205 1.570 . S
C1835 C270 1.570 . S
C1850 C218 1.570 . S
C1885 C244 1.569 . S
C1900 C394 1.569 . S
C1935 C296 1.569 . S
C1950 C342 1.569 . S
C1985 C374 1.570 . S
C2000 C316 1.570 . S
C2035 C42 1.556 . S
C2050 C3 1.556 . S
C2085 C29 1.555 . S
C2100 C18 1.555 . S
C2135 C94 1.555 . S
C2150 C55 1.556 . S
C2185 C81 1.555 . S
C2200 C68 1.555 . S
C2235 C148 1.556 . S
C2250 C107 1.556 . S
C2285 C135 1.555 . S
C2300 C120 1.555 . S
C2335 C198 1.556 . S
C2350 C159 1.556 . S
C2385 C187 1.554 . S
C2400 C172 1.555 . S
C2435 C211 1.556 . S
C2450 C250 1.555 . S
C2485 C237 1.555 . S
C2500 C224 1.555 . S
C2535 C263 1.556 . S
C2550 C302 1.555 . S
C2585 C289 1.555 . S
C2600 C278 1.555 . S
C2635 C356 1.556 . S
C2650 C317 1.556 . S
C2685 C330 1.554 . S
C2700 C343 1.554 . S
C2735 C367 1.556 . S
C2750 C406 1.556 . S
C2785 C395 1.555 . S
C2800 C380 1.555 . S
C2835 C31 1.407 . S
C2850 C5 1.407 . S
C2885 C16 1.406 . S
C2900 C44 1.407 . S
C2935 C57 1.407 . S
C2950 C83 1.407 . S
C2985 C70 1.406 . S
C3000 C96 1.407 . S
C3035 C109 1.407 . S
C3050 C133 1.407 . S
C3085 C122 1.407 . S
C3100 C146 1.407 . S
C3135 C185 1.407 . S
C3150 C161 1.407 . S
C3185 C200 1.407 . S
C3200 C174 1.406 . S
C3235 C239 1.407 . S
C3250 C213 1.407 . S
C3285 C252 1.406 . S
C3300 C226 1.407 . S
C3335 C265 1.407 . S
C3350 C291 1.407 . S
C3385 C304 1.407 . S
C3400 C276 1.407 . S
C3435 C341 1.407 . S
C3450 C315 1.407 . S
C3485 C328 1.407 . S
C3500 C354 1.406 . S
C3535 C369 1.407 . S
C3550 C393 1.407 . S
C3585 C408 1.407 . S
C3600 C382 1.407 . S
