# Generated by pormake.
# Topology ung, (4)-cn, num edge types: 1
# Building blocks:
#     Node 0, Type 0, BuildingBlock: ICAMEG_clean_sbu_1, # of connection points: 4
#     Node 1, Type 0, BuildingBlock: ICAMEG_clean_sbu_1, # of connection points: 4
#     Node 2, Type 0, BuildingBlock: ICAMEG_clean_sbu_1, # of connection points: 4
#     Node 3, Type 0, BuildingBlock: ICAMEG_clean_sbu_1, # of connection points: 4
#     Node 4, Type 0, BuildingBlock: ICAMEG_clean_sbu_1, # of connection points: 4
#     Node 5, Type 0, BuildingBlock: ICAMEG_clean_sbu_1, # of connection points: 4
#     Node 6, Type 0, BuildingBlock: ICAMEG_clean_sbu_1, # of connection points: 4
#     Node 7, Type 0, BuildingBlock: ICAMEG_clean_sbu_1, # of connection points: 4
#     Node 8, Type 0, BuildingBlock: ICAMEG_clean_sbu_1, # of connection points: 4
#     Node 9, Type 0, BuildingBlock: ICAMEG_clean_sbu_1, # of connection points: 4
#     Node 10, Type 0, BuildingBlock: ICAMEG_clean_sbu_1, # of connection points: 4
#     Node 11, Type 0, BuildingBlock: ICAMEG_clean_sbu_1, # of connection points: 4
#     Node 12, Type 0, BuildingBlock: ICAMEG_clean_sbu_1, # of connection points: 4
#     Node 13, Type 0, BuildingBlock: ICAMEG_clean_sbu_1, # of connection points: 4
#     Node 14, Type 0, BuildingBlock: ICAMEG_clean_sbu_1, # of connection points: 4
#     Node 15, Type 0, BuildingBlock: ICAMEG_clean_sbu_1, # of connection points: 4
#     Node 16, Type 0, BuildingBlock: ICAMEG_clean_sbu_1, # of connection points: 4
#     Node 17, Type 0, BuildingBlock: ICAMEG_clean_sbu_1, # of connection points: 4
#     Edge 18, Type (0, 0), BuildingBlock: OJICUG_clean_linker_0, # of connection points: 2
#     Edge 19, Type (0, 0), BuildingBlock: OJICUG_clean_linker_0, # of connection points: 2
#     Edge 20, Type (0, 0), BuildingBlock: OJICUG_clean_linker_0, # of connection points: 2
#     Edge 21, Type (0, 0), BuildingBlock: OJICUG_clean_linker_0, # of connection points: 2
#     Edge 22, Type (0, 0), BuildingBlock: OJICUG_clean_linker_0, # of connection points: 2
#     Edge 23, Type (0, 0), BuildingBlock: OJICUG_clean_linker_0, # of connection points: 2
#     Edge 24, Type (0, 0), BuildingBlock: OJICUG_clean_linker_0, # of connection points: 2
#     Edge 25, Type (0, 0), BuildingBlock: OJICUG_clean_linker_0, # of connection points: 2
#     Edge 26, Type (0, 0), BuildingBlock: OJICUG_clean_linker_0, # of connection points: 2
#     Edge 27, Type (0, 0), BuildingBlock: OJICUG_clean_linker_0, # of connection points: 2
#     Edge 28, Type (0, 0), BuildingBlock: OJICUG_clean_linker_0, # of connection points: 2
#     Edge 29, Type (0, 0), BuildingBlock: OJICUG_clean_linker_0, # of connection points: 2
#     Edge 30, Type (0, 0), BuildingBlock: OJICUG_clean_linker_0, # of connection points: 2
#     Edge 31, Type (0, 0), BuildingBlock: OJICUG_clean_linker_0, # of connection points: 2
#     Edge 32, Type (0, 0), BuildingBlock: OJICUG_clean_linker_0, # of connection points: 2
#     Edge 33, Type (0, 0), BuildingBlock: OJICUG_clean_linker_0, # of connection points: 2
#     Edge 34, Type (0, 0), BuildingBlock: OJICUG_clean_linker_0, # of connection points: 2
#     Edge 35, Type (0, 0), BuildingBlock: OJICUG_clean_linker_0, # of connection points: 2
#     Edge 36, Type (0, 0), BuildingBlock: OJICUG_clean_linker_0, # of connection points: 2
#     Edge 37, Type (0, 0), BuildingBlock: OJICUG_clean_linker_0, # of connection points: 2
#     Edge 38, Type (0, 0), BuildingBlock: OJICUG_clean_linker_0, # of connection points: 2
#     Edge 39, Type (0, 0), BuildingBlock: OJICUG_clean_linker_0, # of connection points: 2
#     Edge 40, Type (0, 0), BuildingBlock: OJICUG_clean_linker_0, # of connection points: 2
#     Edge 41, Type (0, 0), BuildingBlock: OJICUG_clean_linker_0, # of connection points: 2
#     Edge 42, Type (0, 0), BuildingBlock: OJICUG_clean_linker_0, # of connection points: 2
#     Edge 43, Type (0, 0), BuildingBlock: OJICUG_clean_linker_0, # of connection points: 2
#     Edge 44, Type (0, 0), BuildingBlock: OJICUG_clean_linker_0, # of connection points: 2
#     Edge 45, Type (0, 0), BuildingBlock: OJICUG_clean_linker_0, # of connection points: 2
#     Edge 46, Type (0, 0), BuildingBlock: OJICUG_clean_linker_0, # of connection points: 2
#     Edge 47, Type (0, 0), BuildingBlock: OJICUG_clean_linker_0, # of connection points: 2
#     Edge 48, Type (0, 0), BuildingBlock: OJICUG_clean_linker_0, # of connection points: 2
#     Edge 49, Type (0, 0), BuildingBlock: OJICUG_clean_linker_0, # of connection points: 2
#     Edge 50, Type (0, 0), BuildingBlock: OJICUG_clean_linker_0, # of connection points: 2
#     Edge 51, Type (0, 0), BuildingBlock: OJICUG_clean_linker_0, # of connection points: 2
#     Edge 52, Type (0, 0), BuildingBlock: OJICUG_clean_linker_0, # of connection points: 2
#     Edge 53, Type (0, 0), BuildingBlock: OJICUG_clean_linker_0, # of connection points: 2
# Relax obj value: 0.025
# Max RMSD: 0.111
# Mean RMSD: 0.111
data_MOF--net-ung--node1-ICAMEG_clean_sbu_1--edge1-OJICUG_clean_linker_0
_symmetry_space_group_name_H-M    P1
_symmetry_Int_Tables_number       1
_symmetry_cell_setting            triclinic
loop_
_symmetry_equiv_pos_as_xyz
'x, y, z'
_cell_length_a     56.654779
_cell_length_b     56.717565
_cell_length_c     18.224201
_cell_angle_alpha  90.03554
_cell_angle_beta   90.038969
_cell_angle_gamma 119.98908
loop_
_atom_site_label
_atom_site_type_symbol
_atom_site_fract_x
_atom_site_fract_y
_atom_site_fract_z
_atom_type_partial_charge
Co0 Co 0.09179 0.65404 0.19813 0.0
Co1 Co 0.03879 0.62731 0.32034 0.0
O2 O 0.06535 0.62443 0.25906 0.0
C3 C 0.06504 0.60645 0.0999 0.0
O4 O 0.04182 0.60372 0.12262 0.0
C5 C 0.0657 0.60637 0.41778 0.0
O6 O 0.0889 0.62691 0.39527 0.0
O7 O 0.06829 0.66052 0.36785 0.0
O8 O 0.09671 0.68211 0.27389 0.0
H9 H 0.99648 0.67624 0.4449 0.0
H10 H 0.09994 0.60745 0.23237 0.0
O11 O 0.08746 0.62641 0.12243 0.0
H12 H 0.18182 0.68862 0.32693 0.0
H13 H 0.16982 0.69704 0.01942 0.0
H14 H 0.1015 0.70877 0.15727 0.0
H15 H 0.14556 0.69304 0.26467 0.0
H16 H 0.13753 0.66099 0.10258 0.0
O17 O 0.04325 0.60392 0.39542 0.0
H18 H 0.02873 0.67202 0.36253 0.0
H19 H 0.99311 0.58816 0.41529 0.0
H20 H 0.13354 0.74544 0.07523 0.0
H21 H 0.13581 0.60214 0.2937 0.0
H22 H 0.16795 0.73963 1.00538 0.0
H23 H 0.17708 0.64291 0.34172 0.0
O24 O 0.06216 0.65769 0.15112 0.0
H25 H 0.99534 0.53173 0.22265 0.0
H26 H 0.98495 0.61245 0.25397 0.0
H27 H 0.94889 0.57187 0.19094 0.0
H28 H 0.95396 0.53113 0.17499 0.0
H29 H 0.03101 0.5728 0.28477 0.0
H30 H 0.96061 0.5915 0.49873 0.0
H31 H 0.96217 0.63579 0.51391 0.0
O32 O 0.0337 0.65054 0.24525 0.0
C33 C 0.08841 0.6815 0.33955 0.0
C34 C 0.99554 0.6568 0.43857 0.0
C35 C 0.97543 0.60926 0.46885 0.0
N36 N 0.01263 0.62982 0.38361 0.0
C37 C 0.01367 0.65427 0.39179 0.0
C38 C 0.99389 0.60749 0.4216 0.0
C39 C 0.97631 0.63411 0.47732 0.0
C40 C 0.11797 0.62533 0.25236 0.0
N41 N 0.1207 0.65054 0.24463 0.0
C42 C 0.13816 0.62218 0.28736 0.0
C43 C 0.16128 0.64506 0.31441 0.0
C44 C 0.16395 0.67071 0.30618 0.0
C45 C 0.14332 0.67308 0.27102 0.0
C46 C 0.15496 0.69983 0.04968 0.0
C47 C 0.11661 0.70623 0.12766 0.0
C48 C 0.13661 0.67948 0.09677 0.0
N49 N 0.11782 0.6829 0.1352 0.0
C50 C 0.13463 0.72701 0.08107 0.0
C51 C 0.15391 0.72373 0.04185 0.0
C52 C 0.04198 0.65839 0.17968 0.0
C53 C 0.99285 0.54932 0.2295 0.0
C54 C 0.98733 0.59482 0.24713 0.0
C55 C 0.96682 0.57188 0.21152 0.0
C56 C 0.96966 0.54902 0.20265 0.0
N57 N 0.01002 0.59496 0.27331 0.0
C58 C 0.01292 0.5726 0.26495 0.0
Co59 Co 0.50166 0.47472 0.3208 0.0
Co60 Co 0.47508 0.50107 0.19828 0.0
O61 O 0.50469 0.50417 0.25939 0.0
C62 C 0.52277 0.52256 0.41817 0.0
O63 O 0.50226 0.52527 0.39546 0.0
C64 C 0.52278 0.52187 0.10032 0.0
O65 O 0.52548 0.50138 0.12304 0.0
O66 O 0.47132 0.46777 0.15133 0.0
O67 O 0.4783 0.44644 0.2457 0.0
H68 H 0.38357 0.45167 0.07482 0.0
H69 H 0.55634 0.52122 0.28542 0.0
O70 O 0.52517 0.50255 0.3959 0.0
H71 H 0.55676 0.43981 0.19208 0.0
H72 H 0.53714 0.43219 0.49978 0.0
H73 H 0.4567 0.42012 0.36292 0.0
H74 H 0.51624 0.43555 0.25475 0.0
H75 H 0.5407 0.46803 0.41611 0.0
O76 O 0.5028 0.52432 0.12271 0.0
H77 H 0.42022 0.45619 0.15712 0.0
H78 H 0.46831 0.53991 0.1026 0.0
H79 H 0.45227 0.38366 0.44551 0.0
H80 H 0.59737 0.52638 0.22366 0.0
H81 H 0.49268 0.38964 0.51485 0.0
H82 H 0.59771 0.48548 0.17625 0.0
O83 O 0.46851 0.47121 0.3681 0.0
H84 H 0.52732 0.59693 0.29408 0.0
H85 H 0.43618 0.51601 0.26448 0.0
H86 H 0.44076 0.55672 0.32669 0.0
H87 H 0.48659 0.59757 0.34176 0.0
H88 H 0.52185 0.55571 0.23279 0.0
H89 H 0.43228 0.53626 0.01919 0.0
H90 H 0.38954 0.49189 1.00494 0.0
O91 O 0.44692 0.478 0.27394 0.0
C92 C 0.47048 0.44687 0.18005 0.0
C93 C 0.40206 0.47114 0.08075 0.0
C94 C 0.42942 0.51861 0.04946 0.0
N95 N 0.44625 0.49834 0.13515 0.0
C96 C 0.42283 0.47384 0.12749 0.0
C97 C 0.44975 0.52054 0.0967 0.0
C98 C 0.40544 0.49371 0.04151 0.0
C99 C 0.55644 0.5033 0.2657 0.0
N100 N 0.53396 0.47811 0.27399 0.0
C101 C 0.57969 0.50636 0.23046 0.0
C102 C 0.57985 0.48341 0.20375 0.0
C103 C 0.55687 0.45778 0.21256 0.0
C104 C 0.53396 0.4555 0.24795 0.0
C105 C 0.51941 0.42932 0.46975 0.0
C106 C 0.47444 0.42273 0.39232 0.0
C107 C 0.5213 0.44955 0.42237 0.0
N108 N 0.49898 0.44604 0.3842 0.0
C109 C 0.47178 0.40207 0.43922 0.0
C110 C 0.49445 0.40545 0.47816 0.0
C111 C 0.44754 0.47038 0.33969 0.0
C112 C 0.50724 0.57929 0.28761 0.0
C113 C 0.4562 0.53368 0.27095 0.0
C114 C 0.45866 0.5567 0.30609 0.0
C115 C 0.48438 0.57962 0.31447 0.0
N116 N 0.47872 0.53352 0.24475 0.0
C117 C 0.50399 0.55593 0.25263 0.0
Co118 Co 0.62838 0.03792 0.19871 0.0
Co119 Co 0.65465 0.09068 0.32173 0.0
O120 O 0.62517 0.06426 0.26014 0.0
C121 C 0.60732 0.06466 0.10114 0.0
O122 O 0.62777 0.08786 0.12407 0.0
C123 C 0.60674 0.06384 0.41897 0.0
O124 O 0.60402 0.04065 0.39615 0.0
O125 O 0.65825 0.06108 0.36877 0.0
O126 O 0.65162 0.03293 0.27417 0.0
H127 H 0.74586 0.13243 0.44678 0.0
H128 H 0.57359 0.02967 0.23344 0.0
O129 O 0.60496 0.04227 0.12333 0.0
H130 H 0.57314 0.94779 0.32616 0.0
H131 H 0.59343 0.96021 0.01874 0.0
H132 H 0.67348 0.02833 0.15722 0.0
H133 H 0.61377 0.98413 0.26428 0.0
H134 H 0.5896 0.99231 0.10265 0.0
O135 O 0.62679 0.08625 0.39684 0.0
H136 H 0.70939 0.10046 0.36384 0.0
H137 H 0.66128 0.13625 0.41749 0.0
H138 H 0.67819 0.99649 0.07441 0.0
H139 H 0.53245 0.99371 0.29441 0.0
H140 H 0.63798 0.96219 1.00424 0.0
H141 H 0.53209 0.95244 0.34149 0.0
O142 O 0.66158 0.06758 0.1519 0.0
H143 H 0.60275 0.13456 0.22507 0.0
H144 H 0.69377 0.1445 0.25621 0.0
H145 H 0.6894 0.18074 0.19399 0.0
H146 H 0.64363 0.1759 0.17815 0.0
H147 H 0.60801 0.09871 0.28639 0.0
H148 H 0.69713 0.16847 0.50151 0.0
H149 H 0.73979 0.16668 0.51654 0.0
O150 O 0.68299 0.09576 0.24656 0.0
C151 C 0.65919 0.04106 0.34005 0.0
C152 C 0.7274 0.13348 0.44052 0.0
C153 C 0.70004 0.15368 0.47131 0.0
N154 N 0.68336 0.11667 0.38534 0.0
C155 C 0.70673 0.1155 0.39342 0.0
C156 C 0.6798 0.13537 0.42372 0.0
C157 C 0.72398 0.15267 0.47969 0.0
C158 C 0.57349 0.01164 0.25304 0.0
N159 N 0.59601 0.00896 0.24501 0.0
C160 C 0.55018 0.9914 0.28783 0.0
C161 C 0.55001 0.96828 0.31436 0.0
C162 C 0.57304 0.96566 0.30583 0.0
C163 C 0.59601 0.98634 0.27088 0.0
C164 C 0.61108 0.97503 0.04913 0.0
C165 C 0.65583 0.01327 0.12747 0.0
C166 C 0.60904 0.99326 0.09665 0.0
N167 N 0.63124 0.012 0.13525 0.0
C168 C 0.65864 0.99536 0.08044 0.0
C169 C 0.63608 0.97614 0.04104 0.0
C170 C 0.68251 0.08764 0.18071 0.0
C171 C 0.62281 0.13695 0.23188 0.0
C172 C 0.67378 0.14222 0.24939 0.0
C173 C 0.67144 0.16283 0.21426 0.0
C174 C 0.64575 0.16011 0.20544 0.0
N175 N 0.65118 0.11956 0.27518 0.0
C176 C 0.62593 0.11677 0.26687 0.0
Co177 Co 0.03904 0.4753 0.82029 0.0
Co178 Co 0.09195 0.50153 0.69783 0.0
O179 O 0.0655 0.5047 0.75887 0.0
C180 C 0.06588 0.52316 0.91761 0.0
O181 O 0.0891 0.52585 0.89497 0.0
C182 C 0.06507 0.52231 0.59975 0.0
O183 O 0.04187 0.50184 0.6225 0.0
O184 O 0.06234 0.46824 0.65092 0.0
O185 O 0.03401 0.44698 0.74526 0.0
H186 H 0.13386 0.45198 0.57461 0.0
H187 H 0.03101 0.52186 0.78474 0.0
O188 O 0.04345 0.50315 0.89533 0.0
H189 H 0.94899 0.44053 0.69143 0.0
H190 H 0.96102 0.43292 0.99917 0.0
H191 H 0.02924 0.42066 0.86255 0.0
H192 H 0.9852 0.43619 0.75422 0.0
H193 H 0.99335 0.46871 0.91549 0.0
O194 O 0.08751 0.52477 0.62218 0.0
H195 H 0.1018 0.45658 0.65685 0.0
H196 H 0.13758 0.5403 0.60211 0.0
H197 H 0.99717 0.38425 0.94515 0.0
H198 H 0.99518 0.5271 0.72286 0.0
H199 H 0.96281 0.39032 0.01437 0.0
H200 H 0.95384 0.48624 0.67547 0.0
O201 O 0.06864 0.47172 0.86767 0.0
H202 H 0.13581 0.59744 0.79333 0.0
H203 H 0.14581 0.51641 0.7641 0.0
H204 H 0.18204 0.55712 0.82621 0.0
H205 H 0.17717 0.59802 0.8411 0.0
H206 H 0.09997 0.55622 0.73214 0.0
H207 H 0.16988 0.53656 0.51877 0.0
H208 H 0.16814 0.49215 0.50465 0.0
O209 O 0.097 0.47846 0.77356 0.0
C210 C 0.04224 0.44737 0.67963 0.0
C211 C 0.13488 0.47146 0.58048 0.0
C212 C 0.15508 0.51893 0.54907 0.0
N213 N 0.118 0.49873 0.63476 0.0
C214 C 0.11686 0.47422 0.62718 0.0
C215 C 0.13672 0.52091 0.59627 0.0
C216 C 0.15409 0.494 0.5412 0.0
C217 C 0.01294 0.50395 0.76503 0.0
N218 N 0.01016 0.47874 0.7734 0.0
C219 C 0.99278 0.50706 0.72972 0.0
C220 C 0.96962 0.48413 0.70302 0.0
C221 C 0.96689 0.45848 0.7119 0.0
C222 C 0.9875 0.45616 0.74737 0.0
C223 C 0.97586 0.43002 0.96919 0.0
C224 C 0.01416 0.42332 0.8919 0.0
C225 C 0.99423 0.45022 0.9218 0.0
N226 N 0.01299 0.44665 0.88371 0.0
C227 C 0.99612 0.40268 0.9388 0.0
C228 C 0.97687 0.40611 0.97767 0.0
C229 C 0.08876 0.47085 0.8393 0.0
C230 C 0.13821 0.57978 0.78694 0.0
C231 C 0.14351 0.53411 0.7705 0.0
C232 C 0.16412 0.55712 0.80558 0.0
C233 C 0.16139 0.58007 0.81386 0.0
N234 N 0.12083 0.53397 0.74424 0.0
C235 C 0.11804 0.55642 0.75203 0.0
Co236 Co 0.62787 0.65352 0.69854 0.0
Co237 Co 0.65417 0.62697 0.82128 0.0
O238 O 0.6247 0.62397 0.75977 0.0
C239 C 0.60697 0.60583 0.60066 0.0
O240 O 0.62744 0.60309 0.62356 0.0
C241 C 0.60627 0.60599 0.91852 0.0
O242 O 0.60357 0.62648 0.89582 0.0
O243 O 0.65782 0.66018 0.86849 0.0
O244 O 0.65104 0.68167 0.77415 0.0
H245 H 0.74542 0.67616 0.94619 0.0
H246 H 0.57311 0.60696 0.73293 0.0
O247 O 0.60454 0.62581 0.62299 0.0
H248 H 0.57244 0.68823 0.82642 0.0
H249 H 0.59284 0.69631 0.51902 0.0
H250 H 0.67292 0.7082 0.65738 0.0
H251 H 0.61313 0.69259 0.76448 0.0
H252 H 0.58906 0.66036 0.6026 0.0
O253 O 0.6263 0.60358 0.89636 0.0
H254 H 0.70894 0.67179 0.86345 0.0
H255 H 0.66076 0.58796 0.91676 0.0
H256 H 0.67756 0.74477 0.57491 0.0
H257 H 0.53192 0.60171 0.79395 0.0
H258 H 0.63734 0.73888 0.50481 0.0
H259 H 0.53145 0.64253 0.84142 0.0
O260 O 0.66112 0.65711 0.65172 0.0
H261 H 0.60215 0.53128 0.72422 0.0
H262 H 0.69323 0.61215 0.7555 0.0
H263 H 0.68879 0.57154 0.69298 0.0
H264 H 0.64299 0.53072 0.67706 0.0
H265 H 0.60749 0.57239 0.78583 0.0
H266 H 0.69661 0.59147 1.00058 0.0
H267 H 0.73932 0.63582 0.01567 0.0
O268 O 0.68251 0.65017 0.74614 0.0
C269 C 0.65869 0.68112 0.83994 0.0
C270 C 0.72694 0.6567 0.9399 0.0
C271 C 0.69953 0.60918 0.9705 0.0
N272 N 0.68287 0.6296 0.88479 0.0
C273 C 0.70627 0.65408 0.89291 0.0
C274 C 0.67929 0.60732 0.92303 0.0
C275 C 0.7235 0.63407 0.97891 0.0
C276 C 0.57297 0.62485 0.75269 0.0
N277 N 0.59546 0.65006 0.74484 0.0
C278 C 0.54962 0.62174 0.78751 0.0
C279 C 0.54939 0.64465 0.81425 0.0
C280 C 0.57239 0.67029 0.80591 0.0
C281 C 0.59539 0.67262 0.77093 0.0
C282 C 0.61049 0.69914 0.54939 0.0
C283 C 0.65526 0.70563 0.62766 0.0
C284 C 0.60848 0.67884 0.59672 0.0
N285 N 0.6307 0.6823 0.6353 0.0
C286 C 0.65804 0.72635 0.58082 0.0
C287 C 0.63547 0.72303 0.54146 0.0
C288 C 0.68203 0.65788 0.68041 0.0
C289 C 0.62223 0.5489 0.73106 0.0
C290 C 0.67323 0.59449 0.74865 0.0
C291 C 0.67085 0.57153 0.71335 0.0
C292 C 0.64515 0.54862 0.70449 0.0
N293 N 0.65065 0.59461 0.77457 0.0
C294 C 0.62539 0.5722 0.76622 0.0
Co295 Co 0.50181 0.09044 0.82179 0.0
Co296 Co 0.47545 0.03777 0.69851 0.0
O297 O 0.50498 0.06414 0.76007 0.0
C298 C 0.52299 0.06368 0.91889 0.0
O299 O 0.50254 0.04047 0.89596 0.0
C300 C 0.52331 0.06464 0.60109 0.0
O301 O 0.52605 0.08783 0.62403 0.0
O302 O 0.47184 0.06741 0.65179 0.0
O303 O 0.47847 0.09544 0.74668 0.0
H304 H 0.38418 0.99618 0.57385 0.0
H305 H 0.55658 0.09875 0.78652 0.0
O306 O 0.52531 0.08607 0.89686 0.0
H307 H 0.55687 0.18065 0.69462 0.0
H308 H 0.53688 0.16806 1.00206 0.0
H309 H 0.45671 0.09994 0.86395 0.0
H310 H 0.51631 0.14424 0.75657 0.0
H311 H 0.54066 0.13602 0.91781 0.0
O312 O 0.50327 0.04223 0.62319 0.0
H313 H 0.4207 0.02805 0.65683 0.0
H314 H 0.46873 0.99226 0.60232 0.0
H315 H 0.45206 0.13173 0.9471 0.0
H316 H 0.59765 0.13478 0.72547 0.0
H317 H 0.49232 0.16603 0.01708 0.0
H318 H 0.59793 0.17606 0.6788 0.0
O319 O 0.46867 0.06073 0.86868 0.0
H320 H 0.52735 0.99375 0.79425 0.0
H321 H 0.43634 0.98391 0.76382 0.0
H322 H 0.44071 0.9476 0.82561 0.0
H323 H 0.48647 0.95239 0.84109 0.0
H324 H 0.52208 0.02967 0.73336 0.0
H325 H 0.43283 0.96015 0.51823 0.0
H326 H 0.39019 0.96199 0.50362 0.0
O327 O 0.44716 0.03265 0.77391 0.0
C328 C 0.47087 0.08737 0.68077 0.0
C329 C 0.40263 0.99511 0.57993 0.0
C330 C 0.42995 0.97491 0.54865 0.0
N331 N 0.44669 0.01184 0.63491 0.0
C332 C 0.42333 0.01303 0.62706 0.0
C333 C 0.45022 0.99316 0.59627 0.0
C334 C 0.40602 0.97595 0.54049 0.0
C335 C 0.55665 0.11679 0.76709 0.0
N336 N 0.53411 0.11944 0.7754 0.0
C337 C 0.57992 0.13706 0.73226 0.0
C338 C 0.58005 0.16019 0.70597 0.0
C339 C 0.55701 0.16277 0.71477 0.0
C340 C 0.53408 0.14206 0.74975 0.0
C341 C 0.5192 0.15324 0.97175 0.0
C342 C 0.47438 0.115 0.89362 0.0
C343 C 0.52121 0.13504 0.92404 0.0
N344 N 0.49898 0.1163 0.88554 0.0
C345 C 0.4716 0.13288 0.94084 0.0
C346 C 0.4942 0.1521 0.98013 0.0
C347 C 0.44771 0.0407 0.83986 0.0
C348 C 0.50729 0.99138 0.7876 0.0
C349 C 0.45633 0.98617 0.77048 0.0
C350 C 0.45867 0.96552 0.80538 0.0
C351 C 0.48435 0.96821 0.81399 0.0
N352 N 0.47893 0.00885 0.74474 0.0
C353 C 0.50417 0.0116 0.75286 0.0
Co354 Co 0.70438 0.9606 0.65739 0.0
Co355 Co 0.75696 0.98616 0.53407 0.0
O356 O 0.73048 0.95695 0.59599 0.0
C357 C 0.73091 0.93934 0.75518 0.0
O358 O 0.75419 0.95964 0.73222 0.0
C359 C 0.72988 0.93804 0.43736 0.0
O360 O 0.70669 0.9354 0.46004 0.0
O361 O 0.72737 0.98976 0.48677 0.0
O362 O 0.69961 0.98389 0.58171 0.0
H363 H 0.79895 0.07688 0.40749 0.0
H364 H 0.69546 0.90556 0.62312 0.0
O365 O 0.70855 0.93715 0.73297 0.0
H366 H 0.61383 0.90592 0.53057 0.0
H367 H 0.62694 0.92677 0.83777 0.0
H368 H 0.69542 0.00611 0.69848 0.0
H369 H 0.65061 0.94644 0.59197 0.0
H370 H 0.65869 0.92237 0.75383 0.0
O371 O 0.75234 0.95808 0.45945 0.0
H372 H 0.76692 0.04076 0.49083 0.0
H373 H 0.80244 0.99231 0.4387 0.0
H374 H 0.66393 0.01138 0.7813 0.0
H375 H 0.65905 0.86452 0.56265 0.0
H376 H 0.62944 0.97153 0.85188 0.0
H377 H 0.61791 0.86457 0.51566 0.0
O378 O 0.73436 0.99371 0.70388 0.0
H379 H 0.80062 0.93425 0.63212 0.0
H380 H 0.81096 0.02525 0.59933 0.0
H381 H 0.84718 0.02088 0.66198 0.0
H382 H 0.84214 0.97511 0.67866 0.0
H383 H 0.76479 0.93952 0.57036 0.0
H384 H 0.83473 0.02781 0.35431 0.0
H385 H 0.8331 0.07047 0.33831 0.0
O386 O 0.76224 0.01475 0.60863 0.0
C387 C 0.7076 0.99115 0.51563 0.0
C388 C 0.79992 0.05843 0.41417 0.0
C389 C 0.81998 0.03087 0.38426 0.0
N390 N 0.78299 0.01459 0.47012 0.0
C391 C 0.78191 0.03796 0.4615 0.0
C392 C 0.80164 0.01083 0.43205 0.0
C393 C 0.81907 0.05481 0.37533 0.0
C394 C 0.67749 0.90564 0.60355 0.0
N395 N 0.67512 0.92834 0.61137 0.0
C396 C 0.65699 0.88238 0.56904 0.0
C397 C 0.63394 0.88244 0.54257 0.0
C398 C 0.63165 0.90564 0.55086 0.0
C399 C 0.65257 0.92855 0.58553 0.0
C400 C 0.64183 0.94427 0.8072 0.0
C401 C 0.68028 0.98861 0.7284 0.0
C402 C 0.65988 0.9419 0.75966 0.0
N403 N 0.67872 0.96391 0.72083 0.0
C404 C 0.66257 0.99174 0.77543 0.0
C405 C 0.64324 0.96939 0.81507 0.0
C406 C 0.75434 0.01451 0.67454 0.0
C407 C 0.80309 0.95431 0.62495 0.0
C408 C 0.80858 0.00526 0.60651 0.0
C409 C 0.82919 0.00292 0.64189 0.0
C410 C 0.82636 0.97724 0.65117 0.0
N411 N 0.78582 0.98267 0.58094 0.0
C412 C 0.78293 0.95743 0.58971 0.0
Co413 Co 0.16861 0.8071 0.65732 0.0
Co414 Co 0.14293 0.83396 0.53381 0.0
O415 O 0.1722 0.83678 0.59586 0.0
C416 C 0.18977 0.85484 0.75505 0.0
O417 O 0.1694 0.85772 0.73192 0.0
C418 C 0.19109 0.85508 0.43727 0.0
O419 O 0.19381 0.83461 0.45999 0.0
O420 O 0.13936 0.80081 0.48661 0.0
O421 O 0.14531 0.779 0.58162 0.0
H422 H 0.05206 0.78501 0.40693 0.0
H423 H 0.22367 0.85324 0.62326 0.0
O424 O 0.19205 0.83474 0.73293 0.0
H425 H 0.22343 0.77137 0.53098 0.0
H426 H 0.20263 0.76375 0.83811 0.0
H427 H 0.12312 0.75263 0.69832 0.0
H428 H 0.18284 0.76756 0.5921 0.0
H429 H 0.20696 0.7998 0.75403 0.0
O430 O 0.171 0.85742 0.45924 0.0
H431 H 0.08827 0.78924 0.49047 0.0
H432 H 0.13665 0.87315 0.43823 0.0
H433 H 0.11793 0.71598 0.78128 0.0
H434 H 0.26477 0.85794 0.56305 0.0
H435 H 0.15786 0.72147 0.85212 0.0
H436 H 0.26479 0.81681 0.5162 0.0
O437 O 0.13545 0.8039 0.70365 0.0
H438 H 0.19482 0.92951 0.63185 0.0
H439 H 0.10375 0.84879 0.59874 0.0
H440 H 0.10809 0.88936 0.66126 0.0
H441 H 0.15389 0.9301 0.67809 0.0
H442 H 0.18958 0.88844 0.57021 0.0
H443 H 0.10106 0.86979 0.35362 0.0
H444 H 0.05839 0.82547 0.33759 0.0
O445 O 0.11434 0.81069 0.60833 0.0
C446 C 0.13802 0.7797 0.5155 0.0
C447 C 0.07052 0.80446 0.41363 0.0
C448 C 0.09804 0.85203 0.38365 0.0
N449 N 0.11442 0.83147 0.46972 0.0
C450 C 0.09104 0.807 0.46107 0.0
C451 C 0.11813 0.8538 0.43156 0.0
C452 C 0.07409 0.82716 0.3747 0.0
C453 C 0.22361 0.83521 0.60374 0.0
N454 N 0.20092 0.81015 0.61148 0.0
C455 C 0.24691 0.83802 0.56939 0.0
C456 C 0.24689 0.81494 0.54299 0.0
C457 C 0.22368 0.78944 0.55121 0.0
C458 C 0.20074 0.78742 0.58572 0.0
C459 C 0.1851 0.7611 0.80742 0.0
C460 C 0.14065 0.75504 0.72835 0.0
C461 C 0.18742 0.78144 0.7598 0.0
N462 N 0.16536 0.7782 0.72084 0.0
C463 C 0.13757 0.73426 0.77546 0.0
C464 C 0.15997 0.73737 0.81524 0.0
C465 C 0.11462 0.80307 0.67428 0.0
C466 C 0.17475 0.91192 0.62461 0.0
C467 C 0.12375 0.86642 0.60599 0.0
C468 C 0.12608 0.88935 0.64129 0.0
C469 C 0.15178 0.91222 0.65067 0.0
N470 N 0.14638 0.86628 0.58058 0.0
C471 C 0.17164 0.88865 0.58944 0.0
Co472 Co 0.32216 0.42513 0.65789 0.0
Co473 Co 0.29511 0.37253 0.53446 0.0
O474 O 0.29239 0.39903 0.59644 0.0
C475 C 0.27442 0.39861 0.75563 0.0
O476 O 0.27149 0.37537 0.7325 0.0
C477 C 0.27409 0.39961 0.43783 0.0
O478 O 0.29463 0.42277 0.46064 0.0
O479 O 0.32832 0.40203 0.48729 0.0
O480 O 0.35022 0.42992 0.58212 0.0
H481 H 0.34384 0.33039 0.40796 0.0
H482 H 0.27594 0.43398 0.62382 0.0
O483 O 0.29455 0.42096 0.73353 0.0
H484 H 0.35781 0.51556 0.53152 0.0
H485 H 0.36573 0.50253 0.83864 0.0
H486 H 0.37672 0.43416 0.69882 0.0
H487 H 0.36168 0.47885 0.59267 0.0
H488 H 0.32956 0.47077 0.75461 0.0
O489 O 0.27166 0.37717 0.45981 0.0
H490 H 0.33976 0.36246 0.49135 0.0
H491 H 0.25576 0.3271 0.43886 0.0
H492 H 0.41351 0.46566 0.78173 0.0
H493 H 0.27117 0.47031 0.56359 0.0
H494 H 0.40807 0.50008 0.85258 0.0
H495 H 0.31229 0.51142 0.51673 0.0
O496 O 0.3254 0.39522 0.70424 0.0
H497 H 0.19951 0.32913 0.6322 0.0
H498 H 0.28014 0.31857 0.59952 0.0
H499 H 0.23951 0.28247 0.66198 0.0
H500 H 0.1988 0.28762 0.6786 0.0
H501 H 0.24064 0.36484 0.57062 0.0
H502 H 0.25897 0.29478 0.35441 0.0
H503 H 0.30326 0.29631 0.33858 0.0
O504 O 0.31838 0.36721 0.60908 0.0
C505 C 0.34946 0.42186 0.51605 0.0
C506 C 0.3244 0.32946 0.41458 0.0
C507 C 0.27678 0.3095 0.38445 0.0
N508 N 0.2975 0.34647 0.47046 0.0
C509 C 0.32195 0.3475 0.46193 0.0
C510 C 0.27509 0.32786 0.43228 0.0
C511 C 0.30163 0.31036 0.37562 0.0
C512 C 0.29396 0.45194 0.6043 0.0
N513 N 0.31906 0.45434 0.61205 0.0
C514 C 0.29112 0.47239 0.56994 0.0
C515 C 0.3142 0.49543 0.54354 0.0
C516 C 0.33974 0.49775 0.55176 0.0
C517 C 0.34179 0.47687 0.58628 0.0
C518 C 0.36836 0.48766 0.80795 0.0
C519 C 0.37435 0.44928 0.72886 0.0
C520 C 0.34794 0.46961 0.76035 0.0
N521 N 0.35115 0.45081 0.72139 0.0
C522 C 0.39519 0.46699 0.77594 0.0
C523 C 0.39212 0.48628 0.81573 0.0
C524 C 0.3261 0.37516 0.67498 0.0
C525 C 0.21708 0.32661 0.62505 0.0
C526 C 0.26253 0.32099 0.60667 0.0
C527 C 0.23956 0.30045 0.64195 0.0
C528 C 0.21672 0.30335 0.6512 0.0
N529 N 0.26273 0.34375 0.58118 0.0
C530 C 0.24039 0.34671 0.58991 0.0
Co531 Co 0.70399 0.80695 0.15712 0.0
Co532 Co 0.75652 0.83364 0.03367 0.0
O533 O 0.73014 0.83658 0.09567 0.0
C534 C 0.73069 0.85472 0.25488 0.0
O535 O 0.75392 0.85755 0.23186 0.0
C536 C 0.72962 0.85492 0.93709 0.0
O537 O 0.70638 0.83448 0.95975 0.0
O538 O 0.72681 0.80055 0.98643 0.0
O539 O 0.6991 0.7788 0.0815 0.0
H540 H 0.79803 0.7844 0.90683 0.0
H541 H 0.69524 0.85317 0.12284 0.0
O542 O 0.70828 0.83464 0.23267 0.0
H543 H 0.61343 0.77139 0.03046 0.0
H544 H 0.62656 0.76377 0.33763 0.0
H545 H 0.69485 0.75245 0.1983 0.0
H546 H 0.65015 0.76749 0.09179 0.0
H547 H 0.65838 0.79978 0.25362 0.0
O548 O 0.75202 0.85718 0.95911 0.0
H549 H 0.76618 0.78878 0.99036 0.0
H550 H 0.80206 0.87272 0.93818 0.0
H551 H 0.66329 0.71583 0.2812 0.0
H552 H 0.6589 0.85796 0.06243 0.0
H553 H 0.6289 0.72143 0.3518 0.0
H554 H 0.61767 0.81688 0.01553 0.0
O555 O 0.7339 0.80367 0.20357 0.0
H556 H 0.80062 0.9292 0.13177 0.0
H557 H 0.81048 0.84824 0.09872 0.0
H558 H 0.84685 0.88872 0.1613 0.0
H559 H 0.84205 0.92959 0.1781 0.0
H560 H 0.76464 0.88821 0.07008 0.0
H561 H 0.83417 0.8692 0.85359 0.0
H562 H 0.83227 0.82479 0.83752 0.0
O563 O 0.76168 0.81027 0.10819 0.0
C564 C 0.70704 0.77946 0.01538 0.0
C565 C 0.79913 0.80388 0.91354 0.0
C566 C 0.81938 0.85147 0.8836 0.0
N567 N 0.78244 0.83103 0.96963 0.0
C568 C 0.78121 0.80651 0.96098 0.0
C569 C 0.80114 0.85333 0.9315 0.0
C570 C 0.81832 0.82655 0.87463 0.0
C571 C 0.67723 0.83516 0.10331 0.0
N572 N 0.67477 0.81007 0.11113 0.0
C573 C 0.65677 0.83802 0.06884 0.0
C574 C 0.63367 0.81497 0.04241 0.0
C575 C 0.63129 0.78944 0.05071 0.0
C576 C 0.65218 0.78737 0.08534 0.0
C577 C 0.64141 0.76107 0.30705 0.0
C578 C 0.67974 0.7549 0.22823 0.0
C579 C 0.65949 0.78139 0.25947 0.0
N580 N 0.67827 0.77809 0.22063 0.0
C581 C 0.662 0.73415 0.27531 0.0
C582 C 0.64273 0.73731 0.31495 0.0
C583 C 0.7538 0.8027 0.17416 0.0
C584 C 0.80299 0.91156 0.12454 0.0
C585 C 0.80821 0.86592 0.10596 0.0
C586 C 0.8289 0.8888 0.1413 0.0
C587 C 0.82621 0.91174 0.15065 0.0
N588 N 0.7855 0.8659 0.0805 0.0
C589 C 0.78274 0.88833 0.08934 0.0
Co590 Co 0.3221 0.96043 0.15736 0.0
Co591 Co 0.29518 0.98618 0.03416 0.0
O592 O 0.29238 0.95692 0.09599 0.0
C593 C 0.27436 0.93932 0.25519 0.0
O594 O 0.27146 0.95967 0.23222 0.0
C595 C 0.27408 0.93813 0.93737 0.0
O596 O 0.29461 0.93546 0.9601 0.0
O597 O 0.32835 0.98976 0.9869 0.0
O598 O 0.35019 0.98365 0.08165 0.0
H599 H 0.34408 0.07698 0.90799 0.0
H600 H 0.27578 0.90549 0.12309 0.0
O601 O 0.29447 0.93705 0.23297 0.0
H602 H 0.35752 0.90547 0.03036 0.0
H603 H 0.36556 0.92631 0.33756 0.0
H604 H 0.37671 0.00579 0.19842 0.0
H605 H 0.36152 0.94606 0.09185 0.0
H606 H 0.3294 0.92207 0.25373 0.0
O607 O 0.27168 0.95816 0.95944 0.0
H608 H 0.33992 0.04079 0.99119 0.0
H609 H 0.25589 0.99245 0.93875 0.0
H610 H 0.41348 0.01089 0.28113 0.0
H611 H 0.27089 0.86439 0.06252 0.0
H612 H 0.40797 0.97097 0.35163 0.0
H613 H 0.31195 0.86424 0.01544 0.0
O614 O 0.32544 0.99361 0.20391 0.0
H615 H 0.19957 0.93432 0.13193 0.0
H616 H 0.28038 0.02529 0.09954 0.0
H617 H 0.2398 0.02093 0.16215 0.0
H618 H 0.19901 0.97519 0.17863 0.0
H619 H 0.24065 0.93957 0.07022 0.0
H620 H 0.25919 0.02802 0.85449 0.0
H621 H 0.30353 0.07066 0.83872 0.0
O622 O 0.31852 0.01469 0.10884 0.0
C623 C 0.34947 0.991 0.01564 0.0
C624 C 0.32463 0.05853 0.91457 0.0
C625 C 0.27699 0.03104 0.88448 0.0
N626 N 0.29764 0.01466 0.97032 0.0
C627 C 0.32212 0.03802 0.96182 0.0
C628 C 0.27525 0.01096 0.9322 0.0
C629 C 0.30187 0.05496 0.87568 0.0
C630 C 0.29378 0.90549 0.10349 0.0
N631 N 0.31891 0.92811 0.1113 0.0
C632 C 0.29087 0.88219 0.06893 0.0
C633 C 0.31391 0.88214 0.0424 0.0
C634 C 0.33948 0.90528 0.0507 0.0
C635 C 0.34161 0.92822 0.08542 0.0
C636 C 0.36822 0.94384 0.30702 0.0
C637 C 0.3743 0.98827 0.22831 0.0
C638 C 0.34781 0.94157 0.25954 0.0
N639 N 0.35107 0.96361 0.22076 0.0
C640 C 0.39514 0.9913 0.27528 0.0
C641 C 0.39202 0.9689 0.31487 0.0
C642 C 0.32624 0.01442 0.1747 0.0
C643 C 0.21718 0.95437 0.12485 0.0
C644 C 0.26273 0.00531 0.10664 0.0
C645 C 0.23979 0.00297 0.14199 0.0
C646 C 0.2169 0.9773 0.15116 0.0
N647 N 0.26285 0.98271 0.08098 0.0
C648 C 0.24046 0.95748 0.08963 0.0
Co649 Co 0.16879 0.42543 0.1576 0.0
Co650 Co 0.14304 0.3728 0.03426 0.0
O651 O 0.17233 0.39926 0.09625 0.0
C652 C 0.18985 0.3988 0.25548 0.0
O653 O 0.16947 0.37559 0.23235 0.0
C654 C 0.19116 0.39974 0.93769 0.0
O655 O 0.19387 0.42293 0.96043 0.0
O656 O 0.13945 0.40235 0.987 0.0
O657 O 0.14556 0.43028 0.08177 0.0
H658 H 0.05213 0.33088 0.9076 0.0
H659 H 0.2238 0.43409 0.1237 0.0
O660 O 0.19218 0.42118 0.23332 0.0
H661 H 0.22383 0.51578 0.03105 0.0
H662 H 0.20295 0.50291 0.33814 0.0
H663 H 0.12339 0.43464 0.19837 0.0
H664 H 0.18318 0.47917 0.09221 0.0
H665 H 0.20719 0.47104 0.25426 0.0
O666 O 0.17108 0.37733 0.95966 0.0
H667 H 0.08836 0.36289 0.99103 0.0
H668 H 0.13676 0.32729 0.93874 0.0
H669 H 0.11828 0.46625 0.28113 0.0
H670 H 0.26496 0.47032 0.06346 0.0
H671 H 0.15823 0.50062 0.35195 0.0
H672 H 0.26511 0.51149 0.01643 0.0
O673 O 0.13559 0.3956 0.20395 0.0
H674 H 0.19499 0.32917 0.13229 0.0
H675 H 0.1039 0.31889 0.09933 0.0
H676 H 0.10828 0.28272 0.16191 0.0
H677 H 0.15409 0.28773 0.17868 0.0
H678 H 0.18971 0.36495 0.07059 0.0
H679 H 0.10114 0.29504 0.85425 0.0
H680 H 0.05845 0.29671 0.8383 0.0
O681 O 0.11449 0.36757 0.10882 0.0
C682 C 0.13822 0.42222 0.01571 0.0
C683 C 0.0706 0.32989 0.91427 0.0
C684 C 0.09812 0.3098 0.88426 0.0
N685 N 0.11452 0.34678 0.97025 0.0
C686 C 0.09113 0.34789 0.96165 0.0
C687 C 0.11822 0.32812 0.93211 0.0
C688 C 0.07417 0.31074 0.87536 0.0
C689 C 0.22381 0.45208 0.10411 0.0
N690 N 0.20115 0.45456 0.11176 0.0
C691 C 0.24713 0.47247 0.06974 0.0
C692 C 0.24719 0.49554 0.04323 0.0
C693 C 0.22402 0.49795 0.05136 0.0
C694 C 0.20104 0.47712 0.0859 0.0
C695 C 0.1854 0.48806 0.30746 0.0
C696 C 0.14093 0.44974 0.2284 0.0
C697 C 0.18768 0.46995 0.25995 0.0
N698 N 0.16561 0.45118 0.221 0.0
C699 C 0.13789 0.46751 0.27539 0.0
C700 C 0.16031 0.48678 0.31516 0.0
C701 C 0.11477 0.37556 0.17469 0.0
C702 C 0.17492 0.32671 0.12508 0.0
C703 C 0.12391 0.32125 0.10655 0.0
C704 C 0.12626 0.30067 0.14189 0.0
C705 C 0.15196 0.30349 0.15122 0.0
N706 N 0.14652 0.34397 0.08106 0.0
C707 C 0.17179 0.34684 0.08988 0.0
Co708 Co 0.42441 0.32038 0.86496 0.0
Co709 Co 0.37193 0.294 0.98855 0.0
O710 O 0.39823 0.29087 0.92669 0.0
C711 C 0.39767 0.27245 0.76773 0.0
O712 O 0.37443 0.26961 0.79066 0.0
C713 C 0.39882 0.27283 0.08551 0.0
O714 O 0.42204 0.29326 0.0627 0.0
O715 O 0.40171 0.32714 0.03546 0.0
O716 O 0.42937 0.34867 0.94014 0.0
H717 H 0.33062 0.34361 0.11447 0.0
H718 H 0.43305 0.27415 0.90001 0.0
O719 O 0.42007 0.29257 0.78981 0.0
H720 H 0.51494 0.35598 0.99177 0.0
H721 H 0.50184 0.36317 0.68438 0.0
H722 H 0.43362 0.37483 0.82294 0.0
H723 H 0.47828 0.35987 0.93006 0.0
H724 H 0.47 0.32732 0.76873 0.0
O725 O 0.3764 0.27053 0.06345 0.0
H726 H 0.36241 0.33901 0.03118 0.0
H727 H 0.3264 0.25515 0.08444 0.0
H728 H 0.46521 0.41128 0.73969 0.0
H729 H 0.46933 0.26936 0.96081 0.0
H730 H 0.49956 0.40551 0.66947 0.0
H731 H 0.5106 0.31047 1.0074 0.0
O732 O 0.39453 0.32364 0.81829 0.0
H733 H 0.32753 0.19824 0.89175 0.0
H734 H 0.31799 0.27944 0.92348 0.0
H735 H 0.2815 0.23889 0.86142 0.0
H736 H 0.28614 0.1979 0.84529 0.0
H737 H 0.36364 0.2393 0.95291 0.0
H738 H 0.29436 0.25889 0.1688 0.0
H739 H 0.29635 0.30337 0.18419 0.0
O740 O 0.36682 0.31731 0.91367 0.0
C741 C 0.42148 0.34815 1.00623 0.0
C742 C 0.32949 0.3241 0.10804 0.0
C743 C 0.30916 0.27655 0.13861 0.0
N744 N 0.34608 0.29679 0.05246 0.0
C745 C 0.34736 0.32135 0.06075 0.0
C746 C 0.32737 0.27457 0.09083 0.0
C747 C 0.31028 0.30152 0.1472 0.0
C748 C 0.45108 0.29216 0.9194 0.0
N749 N 0.45359 0.31727 0.91119 0.0
C750 C 0.4715 0.28931 0.9541 0.0
C751 C 0.49463 0.31238 0.98035 0.0
C752 C 0.49707 0.33792 0.97165 0.0
C753 C 0.47621 0.33999 0.93681 0.0
C754 C 0.48701 0.36594 0.71479 0.0
C755 C 0.44871 0.37231 0.79318 0.0
C756 C 0.46891 0.34571 0.76256 0.0
N757 N 0.45014 0.34911 0.80119 0.0
C758 C 0.46647 0.39297 0.7459 0.0
C759 C 0.48572 0.3897 0.70647 0.0
C760 C 0.37469 0.32477 0.84763 0.0
C761 C 0.32523 0.21594 0.89868 0.0
C762 C 0.32019 0.26171 0.91652 0.0
C763 C 0.29943 0.23879 0.88148 0.0
C764 C 0.30204 0.21579 0.87251 0.0
N765 N 0.34288 0.26171 0.94206 0.0
C766 C 0.34555 0.23921 0.93358 0.0
Co767 Co 0.83512 0.14171 0.98763 0.0
Co768 Co 0.80854 0.1677 0.86419 0.0
O769 O 0.83816 0.17106 0.92575 0.0
C770 C 0.85629 0.18972 0.08453 0.0
O771 O 0.8358 0.19244 0.06166 0.0
C772 C 0.85642 0.18885 0.76669 0.0
O773 O 0.85931 0.1685 0.78961 0.0
O774 O 0.80514 0.13451 0.81754 0.0
O775 O 0.81175 0.11327 0.91278 0.0
H776 H 0.71729 0.11762 0.73961 0.0
H777 H 0.88982 0.18813 0.95196 0.0
O778 O 0.85865 0.16966 0.06249 0.0
H779 H 0.89025 0.10652 0.86031 0.0
H780 H 0.87055 0.09946 0.16772 0.0
H781 H 0.79015 0.08719 0.03027 0.0
H782 H 0.8497 0.1024 0.92246 0.0
H783 H 0.87414 0.13515 0.08344 0.0
O784 O 0.83629 0.1911 0.78883 0.0
H785 H 0.75392 0.1225 0.82255 0.0
H786 H 0.80151 0.20626 0.76797 0.0
H787 H 0.78568 0.05088 0.11348 0.0
H788 H 0.93088 0.19315 0.89072 0.0
H789 H 0.82607 0.05695 0.18312 0.0
H790 H 0.93123 0.15215 0.84418 0.0
O791 O 0.80198 0.13829 0.03464 0.0
H792 H 0.85994 0.26363 0.95976 0.0
H793 H 0.76919 0.18221 0.9295 0.0
H794 H 0.77328 0.2228 0.99122 0.0
H795 H 0.81892 0.26391 1.00662 0.0
H796 H 0.85495 0.22253 0.89895 0.0
H797 H 0.76549 0.20225 0.68393 0.0
H798 H 0.72301 0.15767 0.66937 0.0
O799 O 0.78032 0.14448 0.93961 0.0
C800 C 0.80414 0.11362 0.84682 0.0
C801 C 0.73566 0.13717 0.74567 0.0
C802 C 0.76274 0.18466 0.71435 0.0
N803 N 0.77969 0.16469 0.80059 0.0
C804 C 0.75642 0.14008 0.79277 0.0
C805 C 0.78307 0.18681 0.76195 0.0
C806 C 0.7389 0.15965 0.70623 0.0
C807 C 0.88992 0.17016 0.9326 0.0
N808 N 0.86742 0.145 0.94108 0.0
C809 C 0.91319 0.17315 0.89766 0.0
C810 C 0.91335 0.15014 0.87143 0.0
C811 C 0.89035 0.12454 0.88041 0.0
C812 C 0.86743 0.12234 0.9155 0.0
C813 C 0.85282 0.09655 0.13756 0.0
C814 C 0.80787 0.08984 0.0598 0.0
C815 C 0.85473 0.1167 0.08983 0.0
N816 N 0.83243 0.11313 0.05151 0.0
C817 C 0.8052 0.06926 0.10705 0.0
C818 C 0.82786 0.07269 0.14616 0.0
C819 C 0.78093 0.13713 1.00568 0.0
C820 C 0.83994 0.24588 0.95315 0.0
C821 C 0.78913 0.19999 0.93613 0.0
C822 C 0.79131 0.22294 0.97098 0.0
C823 C 0.81692 0.246 0.97955 0.0
N824 N 0.8118 0.20003 0.91038 0.0
C825 C 0.83697 0.22259 0.91845 0.0
Co826 Co 0.96154 0.70415 0.86365 0.0
Co827 Co 0.98743 0.75661 0.98747 0.0
O828 O 0.95808 0.73028 0.92539 0.0
C829 C 0.94032 0.73081 0.76633 0.0
O830 O 0.96068 0.75404 0.78946 0.0
C831 C 0.93932 0.72968 0.08411 0.0
O832 O 0.93659 0.70649 0.06118 0.0
O833 O 0.99091 0.72692 0.03434 0.0
O834 O 0.98486 0.69924 0.93903 0.0
H835 H 0.07836 0.79808 0.11391 0.0
H836 H 0.90657 0.69545 0.89824 0.0
O837 O 0.93807 0.70844 0.78832 0.0
H838 H 0.90665 0.61369 0.98975 0.0
H839 H 0.9272 0.62682 0.68259 0.0
H840 H 0.00692 0.69501 0.82201 0.0
H841 H 0.94723 0.65035 0.92851 0.0
H842 H 0.92304 0.6586 0.76699 0.0
O843 O 0.95942 0.75209 0.06222 0.0
H844 H 0.04205 0.76626 0.03038 0.0
H845 H 0.99391 0.80206 0.08352 0.0
H846 H 0.01195 0.66349 0.73871 0.0
H847 H 0.86547 0.65917 0.95857 0.0
H848 H 0.97191 0.62916 0.66806 0.0
H849 H 0.86537 0.61796 1.00503 0.0
O850 O 0.99469 0.73403 0.81726 0.0
H851 H 0.93579 0.80072 0.89048 0.0
H852 H 0.02672 0.81052 0.92276 0.0
H853 H 0.02252 0.8469 0.86076 0.0
H854 H 0.9768 0.84213 0.84435 0.0
H855 H 0.9409 0.76474 0.95158 0.0
H856 H 0.02961 0.83414 0.16812 0.0
H857 H 0.07221 0.83227 0.18369 0.0
O858 O 0.01594 0.76179 0.91274 0.0
C859 C 0.99219 0.70715 1.00518 0.0
C860 C 0.05993 0.79916 0.10741 0.0
C861 C 0.03255 0.81937 0.1379 0.0
N862 N 0.01602 0.78248 0.05159 0.0
C863 C 0.03935 0.78127 0.05998 0.0
C864 C 0.0124 0.80115 0.08999 0.0
C865 C 0.05646 0.81832 0.1466 0.0
C866 C 0.90659 0.67745 0.91758 0.0
N867 N 0.92923 0.67498 0.90956 0.0
C868 C 0.8833 0.65703 0.95201 0.0
C869 C 0.88327 0.63394 0.97819 0.0
C870 C 0.90643 0.63154 0.96969 0.0
C871 C 0.92937 0.6524 0.93511 0.0
C872 C 0.94478 0.64165 0.71319 0.0
C873 C 0.98934 0.67993 0.79206 0.0
C874 C 0.94255 0.65971 0.76099 0.0
N875 N 0.96466 0.67846 0.79985 0.0
C876 C 0.99234 0.66221 0.74476 0.0
C877 C 0.96987 0.64296 0.70508 0.0
C878 C 0.01559 0.75391 0.84669 0.0
C879 C 0.95583 0.80308 0.89753 0.0
C880 C 0.00675 0.80827 0.91568 0.0
C881 C 0.0045 0.82896 0.88067 0.0
C882 C 0.97884 0.82628 0.87154 0.0
N883 N 0.98408 0.78557 0.94104 0.0
C884 C 0.95886 0.78282 0.9324 0.0
Co885 Co 0.37207 0.14131 0.48836 0.0
Co886 Co 0.42469 0.16756 0.36516 0.0
O887 O 0.39835 0.17075 0.42667 0.0
C888 C 0.39881 0.18926 0.5855 0.0
O889 O 0.42205 0.19207 0.56274 0.0
C890 C 0.39786 0.18861 0.26767 0.0
O891 O 0.37463 0.1682 0.29046 0.0
O892 O 0.39496 0.13435 0.3183 0.0
O893 O 0.36711 0.11297 0.4134 0.0
H894 H 0.46613 0.11784 0.24046 0.0
H895 H 0.36363 0.18763 0.45287 0.0
O896 O 0.37641 0.16917 0.56335 0.0
H897 H 0.28172 0.10592 0.36066 0.0
H898 H 0.29435 0.09871 0.66813 0.0
H899 H 0.36267 0.08682 0.53078 0.0
H900 H 0.31823 0.10191 0.42289 0.0
H901 H 0.32641 0.13452 0.58404 0.0
O902 O 0.42028 0.19095 0.2899 0.0
H903 H 0.43428 0.12251 0.32331 0.0
H904 H 0.47028 0.20631 0.26929 0.0
H905 H 0.33087 0.05041 0.61379 0.0
H906 H 0.32751 0.19253 0.39154 0.0
H907 H 0.29647 0.05629 0.68339 0.0
H908 H 0.28623 0.15148 0.34471 0.0
O909 O 0.40186 0.13798 0.53542 0.0
H910 H 0.46898 0.26339 0.46133 0.0
H911 H 0.47858 0.18219 0.43072 0.0
H912 H 0.515 0.22279 0.49277 0.0
H913 H 0.51033 0.26378 0.50835 0.0
H914 H 0.43295 0.22229 0.40018 0.0
H915 H 0.50239 0.2025 0.18535 0.0
H916 H 0.50043 0.15801 0.17056 0.0
O917 O 0.42975 0.14434 0.44045 0.0
C918 C 0.3751 0.11339 0.34747 0.0
C919 C 0.46725 0.13735 0.24662 0.0
C920 C 0.48758 0.18486 0.21562 0.0
N921 N 0.4506 0.16471 0.30162 0.0
C922 C 0.44934 0.14015 0.29367 0.0
C923 C 0.46933 0.18689 0.26316 0.0
C924 C 0.48647 0.1599 0.20737 0.0
C925 C 0.34559 0.16964 0.43338 0.0
N926 N 0.343 0.1445 0.44176 0.0
C927 C 0.32526 0.17255 0.39839 0.0
C928 C 0.30213 0.14952 0.37201 0.0
C929 C 0.2996 0.12395 0.38088 0.0
C930 C 0.32037 0.12182 0.41602 0.0
C931 C 0.30921 0.09589 0.63799 0.0
C932 C 0.34756 0.0894 0.56029 0.0
C933 C 0.32743 0.1161 0.59037 0.0
N934 N 0.34622 0.11264 0.55207 0.0
C935 C 0.32968 0.06876 0.60743 0.0
C936 C 0.3104 0.07208 0.64651 0.0
C937 C 0.42177 0.13689 0.50644 0.0
C938 C 0.47129 0.24569 0.45464 0.0
C939 C 0.47637 0.19992 0.43742 0.0
C940 C 0.49709 0.22288 0.47247 0.0
C941 C 0.49447 0.24588 0.48113 0.0
N942 N 0.4537 0.1999 0.41158 0.0
C943 C 0.45101 0.2224 0.41975 0.0
Co944 Co 0.96164 0.32091 0.36432 0.0
Co945 Co 0.98774 0.29456 0.48808 0.0
O946 O 0.95831 0.29141 0.42606 0.0
C947 C 0.94052 0.27303 0.26701 0.0
O948 O 0.96095 0.27024 0.29007 0.0
C949 C 0.93962 0.27325 0.58478 0.0
O950 O 0.93677 0.29364 0.56195 0.0
O951 O 0.99105 0.32766 0.53499 0.0
O952 O 0.98496 0.3492 0.4396 0.0
H953 H 0.07865 0.34427 0.6145 0.0
H954 H 0.90675 0.27464 0.39909 0.0
O955 O 0.93819 0.2931 0.28906 0.0
H956 H 0.90661 0.3564 0.49068 0.0
H957 H 0.927 0.36367 0.18346 0.0
H958 H 0.00689 0.3754 0.32251 0.0
H959 H 0.94721 0.36035 0.42928 0.0
H960 H 0.923 0.32782 0.26783 0.0
O961 O 0.95979 0.27103 0.56284 0.0
H962 H 0.04227 0.33963 0.53098 0.0
H963 H 0.99446 0.25574 0.58404 0.0
H964 H 0.01177 0.41186 0.23924 0.0
H965 H 0.86563 0.26979 0.45958 0.0
H966 H 0.97164 0.40605 0.16878 0.0
H967 H 0.86543 0.31086 0.50609 0.0
O968 O 0.99481 0.32422 0.31783 0.0
H969 H 0.93647 0.19884 0.39098 0.0
H970 H 0.0272 0.28011 0.42327 0.0
H971 H 0.02321 0.23962 0.36119 0.0
H972 H 0.97758 0.19859 0.34477 0.0
H973 H 0.94137 0.23984 0.45217 0.0
H974 H 0.03023 0.25952 0.66863 0.0
H975 H 0.0727 0.30404 0.68424 0.0
O976 O 0.01619 0.31792 0.41334 0.0
C977 C 0.99231 0.34867 0.50574 0.0
C978 C 0.06028 0.32474 0.60798 0.0
C979 C 0.03309 0.27718 0.63843 0.0
N980 N 0.01639 0.29739 0.55215 0.0
C981 C 0.03966 0.32197 0.56055 0.0
C982 C 0.0129 0.27517 0.59052 0.0
C983 C 0.05692 0.30217 0.64714 0.0
C984 C 0.90672 0.29264 0.41845 0.0
N985 N 0.92932 0.31775 0.41036 0.0
C986 C 0.88342 0.28975 0.45297 0.0
C987 C 0.88333 0.3128 0.47917 0.0
C988 C 0.90644 0.33835 0.4706 0.0
C989 C 0.9294 0.34045 0.43593 0.0
C990 C 0.94462 0.36646 0.21398 0.0
C991 C 0.98928 0.37286 0.29264 0.0
C992 C 0.94248 0.34623 0.26176 0.0
N993 N 0.96464 0.34964 0.30052 0.0
C994 C 0.99218 0.39352 0.24535 0.0
C995 C 0.96967 0.39024 0.20579 0.0
C996 C 0.01578 0.32537 0.34727 0.0
C997 C 0.95647 0.21655 0.39804 0.0
C998 C 0.00727 0.26236 0.41619 0.0
C999 C 0.00514 0.23947 0.38113 0.0
C1000 C 0.97954 0.21645 0.372 0.0
N1001 N 0.98455 0.26231 0.44158 0.0
C1002 C 0.95939 0.23979 0.43295 0.0
Co1003 Co 0.83454 0.75633 0.48731 0.0
Co1004 Co 0.8081 0.70374 0.36383 0.0
O1005 O 0.83768 0.73005 0.4254 0.0
C1006 C 0.85586 0.72961 0.58412 0.0
O1007 O 0.83543 0.70639 0.56124 0.0
C1008 C 0.85593 0.73055 0.26631 0.0
O1009 O 0.85872 0.75374 0.28929 0.0
O1010 O 0.80456 0.73345 0.31725 0.0
O1011 O 0.81112 0.76131 0.41249 0.0
H1012 H 0.71682 0.66238 0.23932 0.0
H1013 H 0.88931 0.7647 0.45157 0.0
O1014 O 0.85813 0.75198 0.56214 0.0
H1015 H 0.88943 0.84656 0.36007 0.0
H1016 H 0.86974 0.83398 0.66752 0.0
H1017 H 0.78945 0.76576 0.52999 0.0
H1018 H 0.84894 0.81013 0.42223 0.0
H1019 H 0.87347 0.80193 0.58317 0.0
O1020 O 0.83587 0.70815 0.28843 0.0
H1021 H 0.75339 0.69418 0.32228 0.0
H1022 H 0.80124 0.65821 0.26753 0.0
H1023 H 0.78485 0.79755 0.61327 0.0
H1024 H 0.9303 0.80075 0.39031 0.0
H1025 H 0.82517 0.8319 0.68295 0.0
H1026 H 0.9305 0.84201 0.34385 0.0
O1027 O 0.80145 0.72659 0.53431 0.0
H1028 H 0.8598 0.65946 0.45915 0.0
H1029 H 0.7689 0.64991 0.42912 0.0
H1030 H 0.77316 0.61351 0.49071 0.0
H1031 H 0.81887 0.61815 0.506 0.0
H1032 H 0.85464 0.69548 0.39847 0.0
H1033 H 0.76528 0.62616 0.18347 0.0
H1034 H 0.7227 0.62813 0.16899 0.0
O1035 O 0.77985 0.6987 0.4393 0.0
C1036 C 0.80352 0.75333 0.34653 0.0
C1037 C 0.73524 0.66126 0.24534 0.0
C1038 C 0.76245 0.64096 0.21393 0.0
N1039 N 0.77929 0.67787 0.30023 0.0
C1040 C 0.75597 0.67914 0.29245 0.0
C1041 C 0.78275 0.65917 0.26154 0.0
C1042 C 0.73856 0.64206 0.20585 0.0
C1043 C 0.88933 0.78272 0.43224 0.0
N1044 N 0.86679 0.78535 0.44077 0.0
C1045 C 0.91257 0.80301 0.39729 0.0
C1046 C 0.91264 0.82613 0.37111 0.0
C1047 C 0.8896 0.82869 0.38014 0.0
C1048 C 0.86671 0.80796 0.41523 0.0
C1049 C 0.85203 0.81914 0.63734 0.0
C1050 C 0.80715 0.78084 0.55954 0.0
C1051 C 0.85402 0.80093 0.58957 0.0
N1052 N 0.83175 0.78217 0.55123 0.0
C1053 C 0.8044 0.79872 0.60683 0.0
C1054 C 0.82702 0.81797 0.64596 0.0
C1055 C 0.78044 0.70669 0.50535 0.0
C1056 C 0.83977 0.65716 0.45259 0.0
C1057 C 0.78887 0.65211 0.4357 0.0
C1058 C 0.79115 0.6314 0.47048 0.0
C1059 C 0.8168 0.63401 0.47898 0.0
N1060 N 0.81149 0.67476 0.40995 0.0
C1061 C 0.8367 0.67743 0.41796 0.0
C1062 C 0.04092 0.54185 0.98858 0.0
C1063 C 0.06569 0.54428 0.96513 0.0
H1064 H 0.02126 0.55954 0.04912 0.0
C1065 C 0.09023 0.56752 0.98563 0.0
H1066 H 0.02163 0.52426 0.97359 0.0
C1067 C 0.09001 0.58783 0.0287 0.0
C1068 C 0.06524 0.58539 0.05219 0.0
H1069 H 0.10967 0.57013 0.96818 0.0
H1070 H 0.1093 0.60541 0.04372 0.0
C1071 C 0.0407 0.56216 0.03165 0.0
C1072 C 0.58749 0.56234 0.98937 0.0
C1073 C 0.58511 0.58468 0.96595 0.0
H1074 H 0.56972 0.52499 0.04974 0.0
C1075 C 0.56186 0.586 0.98636 0.0
H1076 H 0.60508 0.56062 0.97444 0.0
C1077 C 0.54151 0.56548 0.02929 0.0
C1078 C 0.5439 0.54314 0.05274 0.0
H1079 H 0.55928 0.60283 0.96894 0.0
H1080 H 0.52393 0.5672 0.04424 0.0
C1081 C 0.56714 0.54182 0.0323 0.0
C1082 C 0.56372 0.03967 0.0297 0.0
C1083 C 0.58598 0.06443 0.0535 0.0
H1084 H 0.52638 0.01999 0.96895 0.0
C1085 C 0.58718 0.08892 0.03329 0.0
H1086 H 0.5621 0.02042 0.04447 0.0
C1087 C 0.56661 0.08867 0.99023 0.0
C1088 C 0.54434 0.06391 0.96645 0.0
H1089 H 0.60395 0.10835 0.05099 0.0
H1090 H 0.56822 0.10792 0.97548 0.0
C1091 C 0.54315 0.03942 0.98665 0.0
C1092 C 0.56233 0.03952 0.48677 0.0
C1093 C 0.5856 0.06403 0.4665 0.0
H1094 H 0.52438 0.02045 0.54459 0.0
C1095 C 0.58804 0.08877 0.49019 0.0
H1096 H 0.55971 0.0201 0.46915 0.0
C1097 C 0.5677 0.08897 0.53322 0.0
C1098 C 0.54443 0.06446 0.55349 0.0
H1099 H 0.60565 0.10804 0.47539 0.0
H1100 H 0.57033 0.10839 0.55084 0.0
C1101 C 0.54199 0.03972 0.52979 0.0
C1102 C 0.09013 0.58642 0.48576 0.0
C1103 C 0.06556 0.58508 0.46524 0.0
H1104 H 0.10927 0.56765 0.54378 0.0
C1105 C 0.04082 0.56272 0.48859 0.0
H1106 H 0.10955 0.60326 0.4684 0.0
C1107 C 0.04065 0.54222 0.53156 0.0
C1108 C 0.06522 0.54357 0.55212 0.0
H1109 H 0.0215 0.56099 0.47357 0.0
H1110 H 0.02123 0.52538 0.54895 0.0
C1111 C 0.08996 0.56592 0.52874 0.0
C1112 C 0.56337 0.58722 0.52926 0.0
C1113 C 0.58568 0.58475 0.55292 0.0
H1114 H 0.52602 0.56954 0.46855 0.0
C1115 C 0.58695 0.56151 0.53251 0.0
H1116 H 0.56169 0.60481 0.54418 0.0
C1117 C 0.56641 0.54121 0.48939 0.0
C1118 C 0.5441 0.54366 0.46576 0.0
H1119 H 0.60376 0.55888 0.55012 0.0
H1120 H 0.56808 0.52361 0.47449 0.0
C1121 C 0.54283 0.56691 0.48614 0.0
C1122 C 0.75501 0.89904 0.32303 0.0
C1123 C 0.73047 0.87578 0.30264 0.0
H1124 H 0.77409 0.93696 0.38101 0.0
C1125 C 0.7057 0.87331 0.32635 0.0
H1126 H 0.77444 0.90169 0.30541 0.0
C1127 C 0.7055 0.89362 0.36949 0.0
C1128 C 0.73004 0.91689 0.38984 0.0
H1129 H 0.68642 0.8557 0.31145 0.0
H1130 H 0.68607 0.89099 0.38711 0.0
C1131 C 0.7548 0.91935 0.36616 0.0
C1132 C 0.2097 0.89866 0.3662 0.0
C1133 C 0.21223 0.87642 0.38985 0.0
H1134 H 0.22729 0.93594 0.30558 0.0
C1135 C 0.23556 0.87524 0.36958 0.0
H1136 H 0.19205 0.90028 0.38099 0.0
C1137 C 0.25585 0.89578 0.32655 0.0
C1138 C 0.25331 0.91801 0.30286 0.0
H1139 H 0.23824 0.85849 0.38717 0.0
H1140 H 0.27351 0.89417 0.3117 0.0
C1141 C 0.22999 0.9192 0.32318 0.0
C1142 C 0.25399 0.42397 0.37016 0.0
C1143 C 0.25275 0.39946 0.39034 0.0
H1144 H 0.23509 0.44303 0.31228 0.0
C1145 C 0.23046 0.37472 0.36654 0.0
H1146 H 0.27079 0.44338 0.38788 0.0
C1147 C 0.20992 0.37451 0.32347 0.0
C1148 C 0.21116 0.39902 0.30324 0.0
H1149 H 0.2288 0.35545 0.38127 0.0
H1150 H 0.19314 0.3551 0.30574 0.0
C1151 C 0.23344 0.42376 0.32707 0.0
C1152 C 0.23564 0.42398 0.87012 0.0
C1153 C 0.2123 0.3995 0.89027 0.0
H1154 H 0.27361 0.44292 0.81234 0.0
C1155 C 0.20975 0.37473 0.86651 0.0
H1156 H 0.23834 0.44341 0.8878 0.0
C1157 C 0.23004 0.37444 0.82351 0.0
C1158 C 0.25338 0.39891 0.80331 0.0
H1159 H 0.19208 0.35549 0.88121 0.0
H1160 H 0.22733 0.355 0.80581 0.0
C1161 C 0.25594 0.42369 0.8271 0.0
C1162 C 0.70542 0.87521 0.86944 0.0
C1163 C 0.7299 0.8763 0.88971 0.0
H1164 H 0.68651 0.89426 0.81161 0.0
C1165 C 0.75471 0.8985 0.8661 0.0
H1166 H 0.68595 0.8585 0.887 0.0
C1167 C 0.75504 0.91908 0.82313 0.0
C1168 C 0.73057 0.91799 0.80281 0.0
H1169 H 0.77396 0.90004 0.88089 0.0
H1170 H 0.77452 0.93578 0.80555 0.0
C1171 C 0.70575 0.8958 0.82646 0.0
C1172 C 0.23045 0.91949 0.86611 0.0
C1173 C 0.25273 0.91699 0.88987 0.0
H1174 H 0.19312 0.90187 0.80533 0.0
C1175 C 0.25393 0.89368 0.86966 0.0
H1176 H 0.22883 0.93713 0.88086 0.0
C1177 C 0.23336 0.87338 0.82657 0.0
C1178 C 0.21109 0.87589 0.80278 0.0
H1179 H 0.27071 0.89102 0.88735 0.0
H1180 H 0.23498 0.85574 0.81176 0.0
C1181 C 0.20989 0.89919 0.82303 0.0
C1182 C 0.42274 0.25395 0.69641 0.0
C1183 C 0.39794 0.25139 0.72012 0.0
H1184 H 0.44249 0.23639 0.63571 0.0
C1185 C 0.37345 0.22806 0.69983 0.0
H1186 H 0.442 0.27161 0.71123 0.0
C1187 C 0.37374 0.20778 0.65677 0.0
C1188 C 0.39853 0.21034 0.63306 0.0
H1189 H 0.35399 0.22534 0.71747 0.0
H1190 H 0.35448 0.19012 0.64195 0.0
C1191 C 0.42303 0.23367 0.65335 0.0
C1192 C 0.90084 0.2091 0.69887 0.0
C1193 C 0.87747 0.2102 0.71911 0.0
H1194 H 0.93881 0.22812 0.64113 0.0
C1195 C 0.87487 0.2324 0.69541 0.0
H1196 H 0.9036 0.19239 0.71649 0.0
C1197 C 0.89515 0.25298 0.65243 0.0
C1198 C 0.91852 0.25187 0.63221 0.0
H1199 H 0.85718 0.23395 0.71019 0.0
H1200 H 0.8924 0.26969 0.63483 0.0
C1201 C 0.92112 0.22968 0.65589 0.0
C1202 C 0.89675 0.70574 0.69478 0.0
C1203 C 0.91896 0.73052 0.71867 0.0
H1204 H 0.85942 0.68599 0.63395 0.0
C1205 C 0.92006 0.75498 0.69856 0.0
H1206 H 0.8952 0.68651 0.70946 0.0
C1207 C 0.89947 0.75467 0.6555 0.0
C1208 C 0.87725 0.72989 0.63163 0.0
H1209 H 0.93679 0.77442 0.71634 0.0
H1210 H 0.90101 0.7739 0.64084 0.0
C1211 C 0.87615 0.70543 0.65172 0.0
C1212 C 0.87455 0.70559 0.19484 0.0
C1213 C 0.87703 0.73033 0.21865 0.0
H1214 H 0.89222 0.68595 0.13409 0.0
C1215 C 0.90033 0.75484 0.19843 0.0
H1216 H 0.85692 0.68633 0.2096 0.0
C1217 C 0.92065 0.75461 0.15538 0.0
C1218 C 0.91818 0.72987 0.1316 0.0
H1219 H 0.90299 0.77425 0.21613 0.0
H1220 H 0.93829 0.77388 0.14065 0.0
C1221 C 0.89487 0.70537 0.15178 0.0
C1222 C 0.37357 0.20872 0.19968 0.0
C1223 C 0.39809 0.20992 0.22006 0.0
H1224 H 0.35454 0.22763 0.14177 0.0
C1225 C 0.42287 0.23217 0.19644 0.0
H1226 H 0.35412 0.19197 0.21724 0.0
C1227 C 0.42311 0.25271 0.15339 0.0
C1228 C 0.39859 0.25151 0.13303 0.0
H1229 H 0.44215 0.2338 0.21133 0.0
H1230 H 0.44256 0.26947 0.13585 0.0
C1231 C 0.37382 0.22926 0.15664 0.0
C1232 C 0.89695 0.25444 0.19545 0.0
C1233 C 0.91921 0.25194 0.21932 0.0
H1234 H 0.85963 0.2368 0.13456 0.0
C1235 C 0.92043 0.22865 0.19911 0.0
H1236 H 0.89531 0.27208 0.2102 0.0
C1237 C 0.89989 0.20834 0.15597 0.0
C1238 C 0.87762 0.21084 0.13212 0.0
H1239 H 0.9372 0.22598 0.21687 0.0
H1240 H 0.90153 0.19071 0.14123 0.0
C1241 C 0.8764 0.23414 0.15231 0.0
C1242 C 0.11599 0.73232 0.35105 0.0
C1243 C 0.10228 0.70659 0.38458 0.0
H1244 H 0.13772 0.77559 0.36614 0.0
C1245 C 0.10128 0.7051 0.46166 0.0
H1246 H 0.11706 0.73417 0.29182 0.0
C1247 C 0.11357 0.72881 0.50426 0.0
C1248 C 0.12656 0.75455 0.47068 0.0
H1249 H 0.09099 0.68556 0.48913 0.0
H1250 H 0.11226 0.72699 0.56349 0.0
C1251 C 0.12773 0.75604 0.39362 0.0
C1252 C 0.42407 0.45996 0.46182 0.0
C1253 C 0.42246 0.45925 0.38474 0.0
H1254 H 0.4023 0.44921 0.56375 0.0
C1255 C 0.39665 0.44705 0.35131 0.0
H1256 H 0.44367 0.46935 0.48922 0.0
C1257 C 0.37296 0.43506 0.394 0.0
C1258 C 0.37457 0.43557 0.47108 0.0
H1259 H 0.39473 0.44612 0.29208 0.0
H1260 H 0.35336 0.42536 0.36661 0.0
C1261 C 0.40038 0.44853 0.50453 0.0
C1262 C 0.68104 0.01551 0.5045 0.0
C1263 C 0.69394 0.00266 0.47084 0.0
H1264 H 0.66029 0.03805 0.48956 0.0
C1265 C 0.69446 1.0017 0.39375 0.0
H1266 H 0.68036 0.01666 0.56374 0.0
C1267 C 0.68252 0.01351 0.35125 0.0
C1268 C 0.67036 0.02709 0.3849 0.0
H1269 H 0.70413 0.99182 0.36618 0.0
H1270 H 0.68345 0.0126 0.29201 0.0
C1271 C 0.66965 0.02787 0.462 0.0
C1272 C 0.70622 0.10086 0.05893 0.0
C1273 C 0.70768 0.10159 0.13604 0.0
H1274 H 0.72818 0.11197 0.9573 0.0
C1275 C 0.73343 0.11505 0.16983 0.0
H1276 H 0.68667 0.09078 0.03126 0.0
C1277 C 0.7572 0.12673 0.12744 0.0
C1278 C 0.75574 0.12579 0.05034 0.0
H1279 H 0.73524 0.11592 0.22908 0.0
H1280 H 0.77675 0.1365 0.15511 0.0
C1281 C 0.72999 0.1131 0.01654 0.0
C1282 C 0.0166 0.68063 0.01571 0.0
C1283 C 0.00365 0.69339 0.04966 0.0
H1284 H 0.03919 0.65991 0.03021 0.0
C1285 C 1.00256 0.69366 0.12675 0.0
H1286 H 0.01786 0.68015 0.95646 0.0
C1287 C 0.01433 0.68162 0.16898 0.0
C1288 C 0.02801 0.66961 0.13507 0.0
H1289 H 0.9926 0.70321 0.15451 0.0
H1290 H 0.01332 0.68236 0.22823 0.0
C1291 C 0.02893 0.66915 0.05796 0.0
C1292 C 0.43504 0.37216 0.12762 0.0
C1293 C 0.43527 0.37343 0.05053 0.0
H1294 H 0.44643 0.39434 0.22894 0.0
C1295 C 0.44801 0.39906 0.01639 0.0
H1296 H 0.42549 0.3527 0.15552 0.0
C1297 C 0.45953 0.42291 0.05847 0.0
C1298 C 0.45914 0.42164 0.13558 0.0
H1299 H 0.44845 0.40071 0.95713 0.0
H1300 H 0.46877 0.44236 0.03057 0.0
C1301 C 0.44712 0.39601 0.16967 0.0
C1302 C 0.01675 0.39958 0.51594 0.0
C1303 C 0.00381 0.37394 0.55006 0.0
H1304 H 0.03937 0.44288 0.53016 0.0
C1305 C 1.00279 0.37267 0.62715 0.0
H1306 H 0.01795 0.40124 0.45669 0.0
C1307 C 0.01461 0.39651 0.66923 0.0
C1308 C 0.02827 0.42215 0.63515 0.0
H1309 H 0.99285 0.3532 0.65504 0.0
H1310 H 0.01365 0.39484 0.7285 0.0
C1311 C 0.02912 0.42342 0.55804 0.0
C1312 C 0.73295 0.68128 0.66949 0.0
C1313 C 0.7072 0.66906 0.63571 0.0
H1314 H 0.77627 0.70307 0.65476 0.0
C1315 C 0.70574 0.66836 0.55861 0.0
H1316 H 0.73476 0.6822 0.72874 0.0
C1317 C 0.7295 0.67985 0.51621 0.0
C1318 C 0.75525 0.69285 0.55 0.0
H1319 H 0.68619 0.65895 0.53095 0.0
H1320 H 0.72769 0.6792 0.45697 0.0
C1321 C 0.75672 0.69333 0.6271 0.0
C1322 C 0.44874 0.11293 0.51695 0.0
C1323 C 0.43563 0.12552 0.55094 0.0
H1324 H 0.46981 0.09068 0.53134 0.0
C1325 C 0.4351 0.12634 0.62804 0.0
H1326 H 0.44944 0.1119 0.45769 0.0
C1327 C 0.44721 0.11463 0.67024 0.0
C1328 C 0.45957 0.1013 0.63626 0.0
H1329 H 0.42527 0.13602 0.65585 0.0
H1330 H 0.44626 0.11541 0.72951 0.0
C1331 C 0.4603 0.10068 0.55915 0.0
C1332 C 0.37307 1.00153 0.89366 0.0
C1333 C 0.37461 0.0024 0.97076 0.0
H1334 H 0.39493 0.01247 0.79186 0.0
C1335 C 0.4004 0.01507 1.00435 0.0
H1336 H 0.35349 0.99179 0.86614 0.0
C1337 C 0.42412 0.02736 0.96179 0.0
C1338 C 0.42258 0.0267 0.8847 0.0
H1339 H 0.40228 0.01614 0.06359 0.0
H1340 H 0.4437 0.03741 0.98932 0.0
C1341 C 0.3968 0.01327 0.85109 0.0
C1342 C 0.10183 0.46041 0.96145 0.0
C1343 C 0.10268 0.45969 0.88437 0.0
H1344 H 0.11285 0.44964 0.06339 0.0
C1345 C 0.11622 0.44744 0.85095 0.0
H1346 H 0.09167 0.46984 0.98883 0.0
C1347 C 0.1279 0.43543 0.89366 0.0
C1348 C 0.12685 0.43596 0.97073 0.0
H1349 H 0.11718 0.4465 0.79173 0.0
H1350 H 0.13775 0.42569 0.86627 0.0
C1351 C 0.11406 0.44896 1.00417 0.0
C1352 C 0.68183 0.73195 0.85115 0.0
C1353 C 0.66985 0.70625 0.88482 0.0
H1354 H 0.70328 0.77523 0.86602 0.0
C1355 C 0.66928 0.70481 0.96192 0.0
H1356 H 0.68265 0.73376 0.79191 0.0
C1357 C 0.68063 0.72856 1.0044 0.0
C1358 C 0.69336 0.75427 0.97069 0.0
H1359 H 0.66005 0.68529 0.9895 0.0
H1360 H 0.68008 0.72677 0.06363 0.0
C1361 C 0.69374 0.75571 0.89361 0.0
C1362 C 0.76797 0.03877 0.79562 0.0
C1363 C 0.76838 0.03986 0.71849 0.0
H1364 H 0.7794 0.06117 0.8966 0.0
C1365 C 0.78156 0.06543 0.68396 0.0
H1366 H 0.75809 0.01937 0.82383 0.0
C1367 C 0.79331 0.08937 0.72566 0.0
C1368 C 0.7927 0.08827 0.80279 0.0
H1369 H 0.78216 0.06696 0.62467 0.0
H1370 H 0.80286 0.10877 0.69745 0.0
C1371 C 0.78027 0.06271 0.83731 0.0
C1372 C 0.06367 0.77954 0.68381 0.0
C1373 C 0.08929 0.79184 0.71828 0.0
H1374 H 0.02029 0.75759 0.69737 0.0
C1375 C 0.09047 0.79253 0.79542 0.0
H1376 H 0.06207 0.77862 0.62451 0.0
C1377 C 0.06656 0.78094 0.83716 0.0
C1378 C 0.04093 0.76786 0.80268 0.0
H1379 H 0.10992 0.80199 0.8236 0.0
H1380 H 0.06815 0.78158 0.89645 0.0
C1381 C 0.03975 0.7674 0.72555 0.0
C1382 C 0.34929 0.34744 0.68466 0.0
C1383 C 0.33722 0.36098 0.71908 0.0
H1384 H 0.3709 0.3257 0.69833 0.0
C1385 C 0.33661 0.36155 0.79621 0.0
H1386 H 0.35013 0.3467 0.62538 0.0
C1387 C 0.34803 0.34906 0.83801 0.0
C1388 C 0.36087 0.33629 0.80358 0.0
H1389 H 0.32731 0.37169 0.82434 0.0
H1390 H 0.34746 0.35008 0.8973 0.0
C1391 C 0.36127 0.33551 0.72646 0.0
C1392 C 0.03993 0.33605 0.22613 0.0
C1393 C 0.04112 0.33687 0.30326 0.0
H1394 H 0.06223 0.34715 0.12507 0.0
C1395 C 0.06676 0.34963 0.3377 0.0
H1396 H 0.02047 0.32624 0.19798 0.0
C1397 C 0.09067 0.36206 0.29592 0.0
C1398 C 0.08947 0.36145 0.21878 0.0
H1399 H 0.06836 0.35067 0.39699 0.0
H1400 H 0.11012 0.37219 0.32406 0.0
C1401 C 0.06384 0.34793 0.18436 0.0
C1402 C 0.79264 0.76664 0.22534 0.0
C1403 C 0.79206 0.76721 0.30247 0.0
H1404 H 0.7815 0.77787 0.12432 0.0
C1405 C 0.77969 0.78044 0.33696 0.0
H1406 H 0.80215 0.75673 0.19715 0.0
C1407 C 0.76741 0.7921 0.29524 0.0
C1408 C 0.7678 0.79134 0.21812 0.0
H1409 H 0.77884 0.78117 0.39625 0.0
H1410 H 0.75759 0.8017 0.32344 0.0
C1411 C 0.78092 0.77886 0.18361 0.0
C1412 C 0.34973 0.06531 0.18441 0.0
C1413 C 0.33749 0.03973 0.21881 0.0
H1414 H 0.37154 0.10865 0.19811 0.0
C1415 C 0.33683 0.03857 0.29593 0.0
H1416 H 0.35063 0.06688 0.12512 0.0
C1417 C 0.34834 0.06248 0.33774 0.0
C1418 C 0.36132 0.08807 0.30334 0.0
H1419 H 0.32742 0.01916 0.32404 0.0
H1420 H 0.3477 0.06091 0.39702 0.0
C1421 C 0.3618 0.08922 0.22622 0.0
loop_
_geom_bond_atom_site_label_1
_geom_bond_atom_site_label_2
_geom_bond_distance
_geom_bond_site_symmetry_2
_ccdc_geom_bond_type
Co0 O2 2.143 . S
Co0 O8 2.074 . S
Co0 O11 2.093 . S
Co0 O24 2.097 . S
Co0 N41 2.151 . S
Co0 N49 2.214 . S
Co1 O2 2.160 . S
Co1 O7 2.058 . S
Co1 O17 2.057 . S
Co1 O32 2.037 . S
Co1 N36 2.145 . S
Co1 N57 2.257 . S
O2 Co0 2.143 . S
O2 Co1 2.160 . S
C3 O4 1.278 . S
C3 O11 1.224 . S
O4 C3 1.278 . S
C5 O6 1.245 . S
C5 O17 1.232 . S
O6 C5 1.245 . S
O7 Co1 2.058 . S
O7 C33 1.269 . S
O8 Co0 2.074 . S
O8 C33 1.257 . S
H9 C34 0.930 . S
H10 C40 0.930 . S
O11 Co0 2.093 . S
O11 C3 1.224 . S
H12 C44 0.929 . S
H13 C46 0.930 1_556 S
H14 C47 0.930 . S
H15 C45 0.929 . S
H16 C48 0.928 . S
O17 Co1 2.057 . S
O17 C5 1.232 . S
H18 C37 0.929 . S
H19 C38 0.929 1_455 S
H20 C50 0.931 . S
H21 C42 0.929 . S
H22 C51 0.930 1_556 S
H23 C43 0.931 . S
O24 Co0 2.097 . S
O24 C52 1.214 . S
H25 C53 0.929 . S
H26 C54 0.929 . S
H27 C55 0.930 . S
H28 C56 0.929 . S
H29 C58 0.930 . S
H30 C35 0.930 . S
H31 C39 0.930 . S
O32 Co1 2.037 . S
O32 C52 1.234 . S
C33 O7 1.269 . S
C33 O8 1.257 . S
C34 H9 0.930 . S
C34 C37 1.388 1_655 S
C34 C39 1.418 . S
C35 H30 0.930 . S
C35 C38 1.404 . S
C35 C39 1.353 . S
N36 Co1 2.145 . S
N36 C37 1.397 . S
N36 C38 1.334 1_455 S
C37 H18 0.929 . S
C37 C34 1.388 1_455 S
C37 N36 1.397 . S
C38 H19 0.929 1_655 S
C38 C35 1.404 . S
C38 N36 1.334 1_655 S
C39 H31 0.930 . S
C39 C34 1.418 . S
C39 C35 1.353 . S
C40 H10 0.930 . S
C40 N41 1.330 . S
C40 C42 1.446 . S
N41 Co0 2.151 . S
N41 C40 1.330 . S
N41 C45 1.418 . S
C42 H21 0.929 . S
C42 C40 1.446 . S
C42 C43 1.332 . S
C43 H23 0.931 . S
C43 C42 1.332 . S
C43 C44 1.267 . S
C44 H12 0.929 . S
C44 C43 1.267 . S
C44 C45 1.251 . S
C45 H15 0.929 . S
C45 N41 1.418 . S
C45 C44 1.251 . S
C46 H13 0.930 1_554 S
C46 C48 1.406 . S
C46 C51 1.261 . S
C47 H14 0.930 . S
C47 N49 1.325 . S
C47 C50 1.357 . S
C48 H16 0.928 . S
C48 C46 1.406 . S
C48 N49 1.261 . S
N49 Co0 2.214 . S
N49 C47 1.325 . S
N49 C48 1.261 . S
C50 H20 0.931 . S
C50 C47 1.357 . S
C50 C51 1.312 . S
C51 H22 0.930 1_554 S
C51 C46 1.261 . S
C51 C50 1.312 . S
C52 O24 1.214 . S
C52 O32 1.234 . S
C53 H25 0.929 . S
C53 C56 1.391 . S
C53 C58 1.391 1_655 S
C54 H26 0.929 . S
C54 C55 1.390 . S
C54 N57 1.391 1_655 S
C55 H27 0.930 . S
C55 C54 1.390 . S
C55 C56 1.392 . S
C56 H28 0.929 . S
C56 C53 1.391 . S
C56 C55 1.392 . S
N57 Co1 2.257 . S
N57 C54 1.391 1_455 S
N57 C58 1.388 . S
C58 H29 0.930 . S
C58 C53 1.391 1_455 S
C58 N57 1.388 . S
Co59 O61 2.143 . S
Co59 O67 2.074 . S
Co59 O70 2.093 . S
Co59 O83 2.097 . S
Co59 N100 2.151 . S
Co59 N108 2.214 . S
Co60 O61 2.160 . S
Co60 O66 2.058 . S
Co60 O76 2.057 . S
Co60 O91 2.037 . S
Co60 N95 2.145 . S
Co60 N116 2.257 . S
O61 Co59 2.143 . S
O61 Co60 2.160 . S
C62 O63 1.278 . S
C62 O70 1.224 . S
O63 C62 1.278 . S
C64 O65 1.245 . S
C64 O76 1.232 . S
O65 C64 1.245 . S
O66 Co60 2.058 . S
O66 C92 1.269 . S
O67 Co59 2.074 . S
O67 C92 1.257 . S
H68 C93 0.930 . S
H69 C99 0.930 . S
O70 Co59 2.093 . S
O70 C62 1.224 . S
H71 C103 0.929 . S
H72 C105 0.930 . S
H73 C106 0.930 . S
H74 C104 0.929 . S
H75 C107 0.928 . S
O76 Co60 2.057 . S
O76 C64 1.232 . S
H77 C96 0.929 . S
H78 C97 0.929 . S
H79 C109 0.931 . S
H80 C101 0.929 . S
H81 C110 0.930 . S
H82 C102 0.931 . S
O83 Co59 2.097 . S
O83 C111 1.214 . S
H84 C112 0.929 . S
H85 C113 0.929 . S
H86 C114 0.930 . S
H87 C115 0.929 . S
H88 C117 0.930 . S
H89 C94 0.930 1_556 S
H90 C98 0.930 1_556 S
O91 Co60 2.037 . S
O91 C111 1.234 . S
C92 O66 1.269 . S
C92 O67 1.257 . S
C93 H68 0.930 . S
C93 C96 1.388 . S
C93 C98 1.418 . S
C94 H89 0.930 1_554 S
C94 C97 1.404 . S
C94 C98 1.353 . S
N95 Co60 2.145 . S
N95 C96 1.397 . S
N95 C97 1.334 . S
C96 H77 0.929 . S
C96 C93 1.388 . S
C96 N95 1.397 . S
C97 H78 0.929 . S
C97 C94 1.404 . S
C97 N95 1.334 . S
C98 H90 0.930 1_554 S
C98 C93 1.418 . S
C98 C94 1.353 . S
C99 H69 0.930 . S
C99 N100 1.330 . S
C99 C101 1.446 . S
N100 Co59 2.151 . S
N100 C99 1.330 . S
N100 C104 1.418 . S
C101 H80 0.929 . S
C101 C99 1.446 . S
C101 C102 1.332 . S
C102 H82 0.931 . S
C102 C101 1.332 . S
C102 C103 1.267 . S
C103 H71 0.929 . S
C103 C102 1.267 . S
C103 C104 1.251 . S
C104 H74 0.929 . S
C104 N100 1.418 . S
C104 C103 1.251 . S
C105 H72 0.930 . S
C105 C107 1.406 . S
C105 C110 1.261 . S
C106 H73 0.930 . S
C106 N108 1.325 . S
C106 C109 1.357 . S
C107 H75 0.928 . S
C107 C105 1.406 . S
C107 N108 1.261 . S
N108 Co59 2.214 . S
N108 C106 1.325 . S
N108 C107 1.261 . S
C109 H79 0.931 . S
C109 C106 1.357 . S
C109 C110 1.312 . S
C110 H81 0.930 . S
C110 C105 1.261 . S
C110 C109 1.312 . S
C111 O83 1.214 . S
C111 O91 1.234 . S
C112 H84 0.929 . S
C112 C115 1.391 . S
C112 C117 1.391 . S
C113 H85 0.929 . S
C113 C114 1.390 . S
C113 N116 1.391 . S
C114 H86 0.930 . S
C114 C113 1.390 . S
C114 C115 1.392 . S
C115 H87 0.929 . S
C115 C112 1.391 . S
C115 C114 1.392 . S
N116 Co60 2.257 . S
N116 C113 1.391 . S
N116 C117 1.388 . S
C117 H88 0.930 . S
C117 C112 1.391 . S
C117 N116 1.388 . S
Co118 O120 2.143 . S
Co118 O126 2.074 . S
Co118 O129 2.093 . S
Co118 O142 2.097 . S
Co118 N159 2.151 1_545 S
Co118 N167 2.214 . S
Co119 O120 2.160 . S
Co119 O125 2.058 . S
Co119 O135 2.057 . S
Co119 O150 2.037 . S
Co119 N154 2.145 . S
Co119 N175 2.257 . S
O120 Co118 2.143 . S
O120 Co119 2.160 . S
C121 O122 1.278 . S
C121 O129 1.224 . S
O122 C121 1.278 . S
C123 O124 1.245 . S
C123 O135 1.232 . S
O124 C123 1.245 . S
O125 Co119 2.058 . S
O125 C151 1.269 . S
O126 Co118 2.074 . S
O126 C151 1.257 . S
H127 C152 0.930 . S
H128 C158 0.930 1_545 S
O129 Co118 2.093 . S
O129 C121 1.224 . S
H130 C162 0.929 . S
H131 C164 0.930 1_556 S
H132 C165 0.930 . S
H133 C163 0.929 . S
H134 C166 0.928 . S
O135 Co119 2.057 . S
O135 C123 1.232 . S
H136 C155 0.929 . S
H137 C156 0.929 . S
H138 C168 0.931 . S
H139 C160 0.929 . S
H140 C169 0.930 1_556 S
H141 C161 0.931 . S
O142 Co118 2.097 . S
O142 C170 1.214 . S
H143 C171 0.929 . S
H144 C172 0.929 . S
H145 C173 0.930 . S
H146 C174 0.929 . S
H147 C176 0.930 . S
H148 C153 0.930 . S
H149 C157 0.930 . S
O150 Co119 2.037 . S
O150 C170 1.234 . S
C151 O125 1.269 . S
C151 O126 1.257 . S
C152 H127 0.930 . S
C152 C155 1.388 . S
C152 C157 1.418 . S
C153 H148 0.930 . S
C153 C156 1.404 . S
C153 C157 1.353 . S
N154 Co119 2.145 . S
N154 C155 1.397 . S
N154 C156 1.334 . S
C155 H136 0.929 . S
C155 C152 1.388 . S
C155 N154 1.397 . S
C156 H137 0.929 . S
C156 C153 1.404 . S
C156 N154 1.334 . S
C157 H149 0.930 . S
C157 C152 1.418 . S
C157 C153 1.353 . S
C158 H128 0.930 1_565 S
C158 N159 1.330 . S
C158 C160 1.446 . S
N159 Co118 2.151 1_565 S
N159 C158 1.330 . S
N159 C163 1.418 . S
C160 H139 0.929 . S
C160 C158 1.446 . S
C160 C161 1.332 . S
C161 H141 0.931 . S
C161 C160 1.332 . S
C161 C162 1.267 . S
C162 H130 0.929 . S
C162 C161 1.267 . S
C162 C163 1.251 . S
C163 H133 0.929 . S
C163 N159 1.418 . S
C163 C162 1.251 . S
C164 H131 0.930 1_554 S
C164 C166 1.406 . S
C164 C169 1.261 . S
C165 H132 0.930 . S
C165 N167 1.325 . S
C165 C168 1.357 . S
C166 H134 0.928 . S
C166 C164 1.406 . S
C166 N167 1.261 1_565 S
N167 Co118 2.214 . S
N167 C165 1.325 . S
N167 C166 1.261 1_545 S
C168 H138 0.931 . S
C168 C165 1.357 . S
C168 C169 1.312 1_545 S
C169 H140 0.930 1_554 S
C169 C164 1.261 . S
C169 C168 1.312 1_565 S
C170 O142 1.214 . S
C170 O150 1.234 . S
C171 H143 0.929 . S
C171 C174 1.391 . S
C171 C176 1.391 . S
C172 H144 0.929 . S
C172 C173 1.390 . S
C172 N175 1.391 . S
C173 H145 0.930 . S
C173 C172 1.390 . S
C173 C174 1.392 . S
C174 H146 0.929 . S
C174 C171 1.391 . S
C174 C173 1.392 . S
N175 Co119 2.257 . S
N175 C172 1.391 . S
N175 C176 1.388 . S
C176 H147 0.930 . S
C176 C171 1.391 . S
C176 N175 1.388 . S
Co177 O179 2.143 . S
Co177 O185 2.074 . S
Co177 O188 2.093 . S
Co177 O201 2.097 . S
Co177 N218 2.151 1_455 S
Co177 N226 2.214 . S
Co178 O179 2.160 . S
Co178 O184 2.058 . S
Co178 O194 2.057 . S
Co178 O209 2.037 . S
Co178 N213 2.145 . S
Co178 N234 2.257 . S
O179 Co177 2.143 . S
O179 Co178 2.160 . S
C180 O181 1.278 . S
C180 O188 1.224 . S
O181 C180 1.278 . S
C182 O183 1.245 . S
C182 O194 1.232 . S
O183 C182 1.245 . S
O184 Co178 2.058 . S
O184 C210 1.269 . S
O185 Co177 2.074 . S
O185 C210 1.257 . S
H186 C211 0.930 . S
H187 C217 0.930 1_455 S
O188 Co177 2.093 . S
O188 C180 1.224 . S
H189 C221 0.929 . S
H190 C223 0.930 1_554 S
H191 C224 0.930 . S
H192 C222 0.929 . S
H193 C225 0.928 . S
O194 Co178 2.057 . S
O194 C182 1.232 . S
H195 C214 0.929 . S
H196 C215 0.929 . S
H197 C227 0.931 . S
H198 C219 0.929 . S
H199 C228 0.930 1_554 S
H200 C220 0.931 . S
O201 Co177 2.097 . S
O201 C229 1.214 . S
H202 C230 0.929 . S
H203 C231 0.929 . S
H204 C232 0.930 . S
H205 C233 0.929 . S
H206 C235 0.930 . S
H207 C212 0.930 . S
H208 C216 0.930 . S
O209 Co178 2.037 . S
O209 C229 1.234 . S
C210 O184 1.269 . S
C210 O185 1.257 . S
C211 H186 0.930 . S
C211 C214 1.388 . S
C211 C216 1.418 . S
C212 H207 0.930 . S
C212 C215 1.404 . S
C212 C216 1.353 . S
N213 Co178 2.145 . S
N213 C214 1.397 . S
N213 C215 1.334 . S
C214 H195 0.929 . S
C214 C211 1.388 . S
C214 N213 1.397 . S
C215 H196 0.929 . S
C215 C212 1.404 . S
C215 N213 1.334 . S
C216 H208 0.930 . S
C216 C211 1.418 . S
C216 C212 1.353 . S
C217 H187 0.930 1_655 S
C217 N218 1.330 . S
C217 C219 1.446 . S
N218 Co177 2.151 1_655 S
N218 C217 1.330 . S
N218 C222 1.418 . S
C219 H198 0.929 . S
C219 C217 1.446 . S
C219 C220 1.332 . S
C220 H200 0.931 . S
C220 C219 1.332 . S
C220 C221 1.267 . S
C221 H189 0.929 . S
C221 C220 1.267 . S
C221 C222 1.251 . S
C222 H192 0.929 . S
C222 N218 1.418 . S
C222 C221 1.251 . S
C223 H190 0.930 1_556 S
C223 C225 1.406 . S
C223 C228 1.261 . S
C224 H191 0.930 . S
C224 N226 1.325 . S
C224 C227 1.357 . S
C225 H193 0.928 . S
C225 C223 1.406 . S
C225 N226 1.261 1_655 S
N226 Co177 2.214 . S
N226 C224 1.325 . S
N226 C225 1.261 1_455 S
C227 H197 0.931 . S
C227 C224 1.357 . S
C227 C228 1.312 1_455 S
C228 H199 0.930 1_556 S
C228 C223 1.261 . S
C228 C227 1.312 1_655 S
C229 O201 1.214 . S
C229 O209 1.234 . S
C230 H202 0.929 . S
C230 C233 1.391 . S
C230 C235 1.391 . S
C231 H203 0.929 . S
C231 C232 1.390 . S
C231 N234 1.391 . S
C232 H204 0.930 . S
C232 C231 1.390 . S
C232 C233 1.392 . S
C233 H205 0.929 . S
C233 C230 1.391 . S
C233 C232 1.392 . S
N234 Co178 2.257 . S
N234 C231 1.391 . S
N234 C235 1.388 . S
C235 H206 0.930 . S
C235 C230 1.391 . S
C235 N234 1.388 . S
Co236 O238 2.143 . S
Co236 O244 2.074 . S
Co236 O247 2.093 . S
Co236 O260 2.097 . S
Co236 N277 2.151 . S
Co236 N285 2.214 . S
Co237 O238 2.160 . S
Co237 O243 2.058 . S
Co237 O253 2.057 . S
Co237 O268 2.037 . S
Co237 N272 2.145 . S
Co237 N293 2.257 . S
O238 Co236 2.143 . S
O238 Co237 2.160 . S
C239 O240 1.278 . S
C239 O247 1.224 . S
O240 C239 1.278 . S
C241 O242 1.245 . S
C241 O253 1.232 . S
O242 C241 1.245 . S
O243 Co237 2.058 . S
O243 C269 1.269 . S
O244 Co236 2.074 . S
O244 C269 1.257 . S
H245 C270 0.930 . S
H246 C276 0.930 . S
O247 Co236 2.093 . S
O247 C239 1.224 . S
H248 C280 0.929 . S
H249 C282 0.930 . S
H250 C283 0.930 . S
H251 C281 0.929 . S
H252 C284 0.928 . S
O253 Co237 2.057 . S
O253 C241 1.232 . S
H254 C273 0.929 . S
H255 C274 0.929 . S
H256 C286 0.931 . S
H257 C278 0.929 . S
H258 C287 0.930 . S
H259 C279 0.931 . S
O260 Co236 2.097 . S
O260 C288 1.214 . S
H261 C289 0.929 . S
H262 C290 0.929 . S
H263 C291 0.930 . S
H264 C292 0.929 . S
H265 C294 0.930 . S
H266 C271 0.930 1_554 S
H267 C275 0.930 1_554 S
O268 Co237 2.037 . S
O268 C288 1.234 . S
C269 O243 1.269 . S
C269 O244 1.257 . S
C270 H245 0.930 . S
C270 C273 1.388 . S
C270 C275 1.418 . S
C271 H266 0.930 1_556 S
C271 C274 1.404 . S
C271 C275 1.353 . S
N272 Co237 2.145 . S
N272 C273 1.397 . S
N272 C274 1.334 . S
C273 H254 0.929 . S
C273 C270 1.388 . S
C273 N272 1.397 . S
C274 H255 0.929 . S
C274 C271 1.404 . S
C274 N272 1.334 . S
C275 H267 0.930 1_556 S
C275 C270 1.418 . S
C275 C271 1.353 . S
C276 H246 0.930 . S
C276 N277 1.330 . S
C276 C278 1.446 . S
N277 Co236 2.151 . S
N277 C276 1.330 . S
N277 C281 1.418 . S
C278 H257 0.929 . S
C278 C276 1.446 . S
C278 C279 1.332 . S
C279 H259 0.931 . S
C279 C278 1.332 . S
C279 C280 1.267 . S
C280 H248 0.929 . S
C280 C279 1.267 . S
C280 C281 1.251 . S
C281 H251 0.929 . S
C281 N277 1.418 . S
C281 C280 1.251 . S
C282 H249 0.930 . S
C282 C284 1.406 . S
C282 C287 1.261 . S
C283 H250 0.930 . S
C283 N285 1.325 . S
C283 C286 1.357 . S
C284 H252 0.928 . S
C284 C282 1.406 . S
C284 N285 1.261 . S
N285 Co236 2.214 . S
N285 C283 1.325 . S
N285 C284 1.261 . S
C286 H256 0.931 . S
C286 C283 1.357 . S
C286 C287 1.312 . S
C287 H258 0.930 . S
C287 C282 1.261 . S
C287 C286 1.312 . S
C288 O260 1.214 . S
C288 O268 1.234 . S
C289 H261 0.929 . S
C289 C292 1.391 . S
C289 C294 1.391 . S
C290 H262 0.929 . S
C290 C291 1.390 . S
C290 N293 1.391 . S
C291 H263 0.930 . S
C291 C290 1.390 . S
C291 C292 1.392 . S
C292 H264 0.929 . S
C292 C289 1.391 . S
C292 C291 1.392 . S
N293 Co237 2.257 . S
N293 C290 1.391 . S
N293 C294 1.388 . S
C294 H265 0.930 . S
C294 C289 1.391 . S
C294 N293 1.388 . S
Co295 O297 2.143 . S
Co295 O303 2.074 . S
Co295 O306 2.093 . S
Co295 O319 2.097 . S
Co295 N336 2.151 . S
Co295 N344 2.214 . S
Co296 O297 2.160 . S
Co296 O302 2.058 . S
Co296 O312 2.057 . S
Co296 O327 2.037 . S
Co296 N331 2.145 . S
Co296 N352 2.257 . S
O297 Co295 2.143 . S
O297 Co296 2.160 . S
C298 O299 1.278 . S
C298 O306 1.224 . S
O299 C298 1.278 . S
C300 O301 1.245 . S
C300 O312 1.232 . S
O301 C300 1.245 . S
O302 Co296 2.058 . S
O302 C328 1.269 . S
O303 Co295 2.074 . S
O303 C328 1.257 . S
H304 C329 0.930 . S
H305 C335 0.930 . S
O306 Co295 2.093 . S
O306 C298 1.224 . S
H307 C339 0.929 . S
H308 C341 0.930 1_554 S
H309 C342 0.930 . S
H310 C340 0.929 . S
H311 C343 0.928 . S
O312 Co296 2.057 . S
O312 C300 1.232 . S
H313 C332 0.929 . S
H314 C333 0.940 1_545 S
H315 C345 0.931 . S
H316 C337 0.929 . S
H317 C346 0.930 1_554 S
H318 C338 0.931 . S
O319 Co295 2.097 . S
O319 C347 1.214 . S
H320 C348 0.929 . S
H321 C349 0.929 . S
H322 C350 0.930 . S
H323 C351 0.929 . S
H324 C353 0.930 . S
H325 C330 0.930 . S
H326 C334 0.930 . S
O327 Co296 2.037 . S
O327 C347 1.234 . S
C328 O302 1.269 . S
C328 O303 1.257 . S
C329 H304 0.930 . S
C329 C332 1.388 1_565 S
C329 C334 1.418 . S
C330 H325 0.930 . S
C330 C333 1.413 . S
C330 C334 1.353 . S
N331 Co296 2.145 . S
N331 C332 1.397 . S
N331 C333 1.316 1_545 S
C332 H313 0.929 . S
C332 C329 1.388 1_545 S
C332 N331 1.397 . S
C333 H314 0.940 1_565 S
C333 C330 1.413 . S
C333 N331 1.316 1_565 S
C334 H326 0.930 . S
C334 C329 1.418 . S
C334 C330 1.353 . S
C335 H305 0.930 . S
C335 N336 1.330 . S
C335 C337 1.446 . S
N336 Co295 2.151 . S
N336 C335 1.330 . S
N336 C340 1.418 . S
C337 H316 0.929 . S
C337 C335 1.446 . S
C337 C338 1.332 . S
C338 H318 0.931 . S
C338 C337 1.332 . S
C338 C339 1.267 . S
C339 H307 0.929 . S
C339 C338 1.267 . S
C339 C340 1.251 . S
C340 H310 0.929 . S
C340 N336 1.418 . S
C340 C339 1.251 . S
C341 H308 0.930 1_556 S
C341 C343 1.406 . S
C341 C346 1.261 . S
C342 H309 0.930 . S
C342 N344 1.325 . S
C342 C345 1.357 . S
C343 H311 0.928 . S
C343 C341 1.406 . S
C343 N344 1.261 . S
N344 Co295 2.214 . S
N344 C342 1.325 . S
N344 C343 1.261 . S
C345 H315 0.931 . S
C345 C342 1.357 . S
C345 C346 1.312 . S
C346 H317 0.930 1_556 S
C346 C341 1.261 . S
C346 C345 1.312 . S
C347 O319 1.214 . S
C347 O327 1.234 . S
C348 H320 0.929 . S
C348 C351 1.391 . S
C348 C353 1.391 1_565 S
C349 H321 0.929 . S
C349 C350 1.390 . S
C349 N352 1.391 1_565 S
C350 H322 0.930 . S
C350 C349 1.390 . S
C350 C351 1.392 . S
C351 H323 0.929 . S
C351 C348 1.391 . S
C351 C350 1.392 . S
N352 Co296 2.257 . S
N352 C349 1.391 1_545 S
N352 C353 1.388 . S
C353 H324 0.930 . S
C353 C348 1.391 1_545 S
C353 N352 1.388 . S
Co354 O356 2.143 . S
Co354 O362 2.074 . S
Co354 O365 2.093 . S
Co354 O378 2.097 . S
Co354 N395 2.151 . S
Co354 N403 2.214 . S
Co355 O356 2.160 . S
Co355 O361 2.058 . S
Co355 O371 2.057 . S
Co355 O386 2.037 1_565 S
Co355 N390 2.145 1_565 S
Co355 N411 2.257 . S
O356 Co354 2.143 . S
O356 Co355 2.160 . S
C357 O358 1.278 . S
C357 O365 1.224 . S
O358 C357 1.278 . S
C359 O360 1.245 . S
C359 O371 1.232 . S
O360 C359 1.245 . S
O361 Co355 2.058 . S
O361 C387 1.269 . S
O362 Co354 2.074 . S
O362 C387 1.257 . S
H363 C388 0.930 . S
H364 C394 0.930 . S
O365 Co354 2.093 . S
O365 C357 1.224 . S
H366 C398 0.929 . S
H367 C400 0.930 . S
H368 C401 0.925 1_545 S
H369 C399 0.929 . S
H370 C402 0.928 . S
O371 Co355 2.057 . S
O371 C359 1.232 . S
H372 C391 0.929 . S
H373 C392 0.929 1_565 S
H374 C404 0.931 . S
H375 C396 0.929 . S
H376 C405 0.934 . S
H377 C397 0.931 . S
O378 Co354 2.097 . S
O378 C406 1.214 1_565 S
H379 C407 0.929 . S
H380 C408 0.929 . S
H381 C409 0.930 . S
H382 C410 0.929 . S
H383 C412 0.930 . S
H384 C389 0.930 . S
H385 C393 0.930 . S
O386 Co355 2.037 1_545 S
O386 C406 1.234 . S
C387 O361 1.269 . S
C387 O362 1.257 . S
C388 H363 0.930 . S
C388 C391 1.388 . S
C388 C393 1.418 . S
C389 H384 0.930 . S
C389 C392 1.404 . S
C389 C393 1.353 . S
N390 Co355 2.145 1_545 S
N390 C391 1.397 . S
N390 C392 1.334 . S
C391 H372 0.929 . S
C391 C388 1.388 . S
C391 N390 1.397 . S
C392 H373 0.929 1_545 S
C392 C389 1.404 . S
C392 N390 1.334 . S
C393 H385 0.930 . S
C393 C388 1.418 . S
C393 C389 1.353 . S
C394 H364 0.930 . S
C394 N395 1.330 . S
C394 C396 1.446 . S
N395 Co354 2.151 . S
N395 C394 1.330 . S
N395 C399 1.418 . S
C396 H375 0.929 . S
C396 C394 1.446 . S
C396 C397 1.332 . S
C397 H377 0.931 . S
C397 C396 1.332 . S
C397 C398 1.267 . S
C398 H366 0.929 . S
C398 C397 1.267 . S
C398 C399 1.251 . S
C399 H369 0.929 . S
C399 N395 1.418 . S
C399 C398 1.251 . S
C400 H367 0.930 . S
C400 C402 1.406 . S
C400 C405 1.261 . S
C401 H368 0.925 1_565 S
C401 N403 1.340 . S
C401 C404 1.347 1_565 S
C402 H370 0.928 . S
C402 C400 1.406 . S
C402 N403 1.261 . S
N403 Co354 2.214 . S
N403 C401 1.340 . S
N403 C402 1.261 . S
C404 H374 0.931 . S
C404 C401 1.347 1_545 S
C404 C405 1.312 1_545 S
C405 H376 0.934 . S
C405 C400 1.261 . S
C405 C404 1.312 1_565 S
C406 O378 1.214 1_545 S
C406 O386 1.234 . S
C407 H379 0.929 . S
C407 C410 1.391 . S
C407 C412 1.391 . S
C408 H380 0.929 . S
C408 C409 1.390 . S
C408 N411 1.391 1_545 S
C409 H381 0.930 . S
C409 C408 1.390 . S
C409 C410 1.392 1_545 S
C410 H382 0.929 . S
C410 C407 1.391 . S
C410 C409 1.392 1_565 S
N411 Co355 2.257 . S
N411 C408 1.391 1_565 S
N411 C412 1.388 . S
C412 H383 0.930 . S
C412 C407 1.391 . S
C412 N411 1.388 . S
Co413 O415 2.143 . S
Co413 O421 2.074 . S
Co413 O424 2.093 . S
Co413 O437 2.097 . S
Co413 N454 2.151 . S
Co413 N462 2.214 . S
Co414 O415 2.160 . S
Co414 O420 2.058 . S
Co414 O430 2.057 . S
Co414 O445 2.037 . S
Co414 N449 2.145 . S
Co414 N470 2.257 . S
O415 Co413 2.143 . S
O415 Co414 2.160 . S
C416 O417 1.278 . S
C416 O424 1.224 . S
O417 C416 1.278 . S
C418 O419 1.245 . S
C418 O430 1.232 . S
O419 C418 1.245 . S
O420 Co414 2.058 . S
O420 C446 1.269 . S
O421 Co413 2.074 . S
O421 C446 1.257 . S
H422 C447 0.930 . S
H423 C453 0.930 . S
O424 Co413 2.093 . S
O424 C416 1.224 . S
H425 C457 0.929 . S
H426 C459 0.930 . S
H427 C460 0.930 . S
H428 C458 0.929 . S
H429 C461 0.928 . S
O430 Co414 2.057 . S
O430 C418 1.232 . S
H431 C450 0.929 . S
H432 C451 0.929 . S
H433 C463 0.931 . S
H434 C455 0.929 . S
H435 C464 0.930 . S
H436 C456 0.931 . S
O437 Co413 2.097 . S
O437 C465 1.214 . S
H438 C466 0.929 . S
H439 C467 0.929 . S
H440 C468 0.930 . S
H441 C469 0.929 . S
H442 C471 0.930 . S
H443 C448 0.930 . S
H444 C452 0.930 . S
O445 Co414 2.037 . S
O445 C465 1.234 . S
C446 O420 1.269 . S
C446 O421 1.257 . S
C447 H422 0.930 . S
C447 C450 1.388 . S
C447 C452 1.418 . S
C448 H443 0.930 . S
C448 C451 1.404 . S
C448 C452 1.353 . S
N449 Co414 2.145 . S
N449 C450 1.397 . S
N449 C451 1.334 . S
C450 H431 0.929 . S
C450 C447 1.388 . S
C450 N449 1.397 . S
C451 H432 0.929 . S
C451 C448 1.404 . S
C451 N449 1.334 . S
C452 H444 0.930 . S
C452 C447 1.418 . S
C452 C448 1.353 . S
C453 H423 0.930 . S
C453 N454 1.330 . S
C453 C455 1.446 . S
N454 Co413 2.151 . S
N454 C453 1.330 . S
N454 C458 1.418 . S
C455 H434 0.929 . S
C455 C453 1.446 . S
C455 C456 1.332 . S
C456 H436 0.931 . S
C456 C455 1.332 . S
C456 C457 1.267 . S
C457 H425 0.929 . S
C457 C456 1.267 . S
C457 C458 1.251 . S
C458 H428 0.929 . S
C458 N454 1.418 . S
C458 C457 1.251 . S
C459 H426 0.930 . S
C459 C461 1.406 . S
C459 C464 1.261 . S
C460 H427 0.930 . S
C460 N462 1.325 . S
C460 C463 1.357 . S
C461 H429 0.928 . S
C461 C459 1.406 . S
C461 N462 1.261 . S
N462 Co413 2.214 . S
N462 C460 1.325 . S
N462 C461 1.261 . S
C463 H433 0.931 . S
C463 C460 1.357 . S
C463 C464 1.312 . S
C464 H435 0.930 . S
C464 C459 1.261 . S
C464 C463 1.312 . S
C465 O437 1.214 . S
C465 O445 1.234 . S
C466 H438 0.929 . S
C466 C469 1.391 . S
C466 C471 1.391 . S
C467 H439 0.929 . S
C467 C468 1.390 . S
C467 N470 1.391 . S
C468 H440 0.930 . S
C468 C467 1.390 . S
C468 C469 1.392 . S
C469 H441 0.929 . S
C469 C466 1.391 . S
C469 C468 1.392 . S
N470 Co414 2.257 . S
N470 C467 1.391 . S
N470 C471 1.388 . S
C471 H442 0.930 . S
C471 C466 1.391 . S
C471 N470 1.388 . S
Co472 O474 2.143 . S
Co472 O480 2.074 . S
Co472 O483 2.093 . S
Co472 O496 2.097 . S
Co472 N513 2.151 . S
Co472 N521 2.214 . S
Co473 O474 2.160 . S
Co473 O479 2.058 . S
Co473 O489 2.057 . S
Co473 O504 2.037 . S
Co473 N508 2.145 . S
Co473 N529 2.257 . S
O474 Co472 2.143 . S
O474 Co473 2.160 . S
C475 O476 1.278 . S
C475 O483 1.224 . S
O476 C475 1.278 . S
C477 O478 1.245 . S
C477 O489 1.232 . S
O478 C477 1.245 . S
O479 Co473 2.058 . S
O479 C505 1.269 . S
O480 Co472 2.074 . S
O480 C505 1.257 . S
H481 C506 0.930 . S
H482 C512 0.930 . S
O483 Co472 2.093 . S
O483 C475 1.224 . S
H484 C516 0.929 . S
H485 C518 0.930 . S
H486 C519 0.930 . S
H487 C517 0.929 . S
H488 C520 0.928 . S
O489 Co473 2.057 . S
O489 C477 1.232 . S
H490 C509 0.929 . S
H491 C510 0.929 . S
H492 C522 0.931 . S
H493 C514 0.929 . S
H494 C523 0.930 . S
H495 C515 0.931 . S
O496 Co472 2.097 . S
O496 C524 1.214 . S
H497 C525 0.929 . S
H498 C526 0.929 . S
H499 C527 0.930 . S
H500 C528 0.929 . S
H501 C530 0.930 . S
H502 C507 0.930 . S
H503 C511 0.930 . S
O504 Co473 2.037 . S
O504 C524 1.234 . S
C505 O479 1.269 . S
C505 O480 1.257 . S
C506 H481 0.930 . S
C506 C509 1.388 . S
C506 C511 1.418 . S
C507 H502 0.930 . S
C507 C510 1.404 . S
C507 C511 1.353 . S
N508 Co473 2.145 . S
N508 C509 1.397 . S
N508 C510 1.334 . S
C509 H490 0.929 . S
C509 C506 1.388 . S
C509 N508 1.397 . S
C510 H491 0.929 . S
C510 C507 1.404 . S
C510 N508 1.334 . S
C511 H503 0.930 . S
C511 C506 1.418 . S
C511 C507 1.353 . S
C512 H482 0.930 . S
C512 N513 1.330 . S
C512 C514 1.446 . S
N513 Co472 2.151 . S
N513 C512 1.330 . S
N513 C517 1.418 . S
C514 H493 0.929 . S
C514 C512 1.446 . S
C514 C515 1.332 . S
C515 H495 0.931 . S
C515 C514 1.332 . S
C515 C516 1.267 . S
C516 H484 0.929 . S
C516 C515 1.267 . S
C516 C517 1.251 . S
C517 H487 0.929 . S
C517 N513 1.418 . S
C517 C516 1.251 . S
C518 H485 0.930 . S
C518 C520 1.406 . S
C518 C523 1.261 . S
C519 H486 0.930 . S
C519 N521 1.325 . S
C519 C522 1.357 . S
C520 H488 0.928 . S
C520 C518 1.406 . S
C520 N521 1.261 . S
N521 Co472 2.214 . S
N521 C519 1.325 . S
N521 C520 1.261 . S
C522 H492 0.931 . S
C522 C519 1.357 . S
C522 C523 1.312 . S
C523 H494 0.930 . S
C523 C518 1.261 . S
C523 C522 1.312 . S
C524 O496 1.214 . S
C524 O504 1.234 . S
C525 H497 0.929 . S
C525 C528 1.391 . S
C525 C530 1.391 . S
C526 H498 0.929 . S
C526 C527 1.390 . S
C526 N529 1.391 . S
C527 H499 0.930 . S
C527 C526 1.390 . S
C527 C528 1.392 . S
C528 H500 0.929 . S
C528 C525 1.391 . S
C528 C527 1.392 . S
N529 Co473 2.257 . S
N529 C526 1.391 . S
N529 C530 1.388 . S
C530 H501 0.930 . S
C530 C525 1.391 . S
C530 N529 1.388 . S
Co531 O533 2.143 . S
Co531 O539 2.074 . S
Co531 O542 2.093 . S
Co531 O555 2.097 . S
Co531 N572 2.151 . S
Co531 N580 2.214 . S
Co532 O533 2.160 . S
Co532 O538 2.058 1_554 S
Co532 O548 2.057 1_554 S
Co532 O563 2.037 . S
Co532 N567 2.145 1_554 S
Co532 N588 2.257 . S
O533 Co531 2.143 . S
O533 Co532 2.160 . S
C534 O535 1.278 . S
C534 O542 1.224 . S
O535 C534 1.278 . S
C536 O537 1.245 . S
C536 O548 1.232 . S
O537 C536 1.245 . S
O538 Co532 2.058 1_556 S
O538 C564 1.269 1_556 S
O539 Co531 2.074 . S
O539 C564 1.257 . S
H540 C565 0.930 . S
H541 C571 0.930 . S
O542 Co531 2.093 . S
O542 C534 1.224 . S
H543 C575 0.929 . S
H544 C577 0.930 . S
H545 C578 0.930 . S
H546 C576 0.929 . S
H547 C579 0.928 . S
O548 Co532 2.057 1_556 S
O548 C536 1.232 . S
H549 C568 0.929 . S
H550 C569 0.929 . S
H551 C581 0.931 . S
H552 C573 0.929 . S
H553 C582 0.930 . S
H554 C574 0.931 . S
O555 Co531 2.097 . S
O555 C583 1.214 . S
H556 C584 0.929 . S
H557 C585 0.929 . S
H558 C586 0.930 . S
H559 C587 0.929 . S
H560 C589 0.930 . S
H561 C566 0.930 . S
H562 C570 0.930 . S
O563 Co532 2.037 . S
O563 C583 1.234 . S
C564 O538 1.269 1_554 S
C564 O539 1.257 . S
C565 H540 0.930 . S
C565 C568 1.388 . S
C565 C570 1.418 . S
C566 H561 0.930 . S
C566 C569 1.404 . S
C566 C570 1.353 . S
N567 Co532 2.145 1_556 S
N567 C568 1.397 . S
N567 C569 1.334 . S
C568 H549 0.929 . S
C568 C565 1.388 . S
C568 N567 1.397 . S
C569 H550 0.929 . S
C569 C566 1.404 . S
C569 N567 1.334 . S
C570 H562 0.930 . S
C570 C565 1.418 . S
C570 C566 1.353 . S
C571 H541 0.930 . S
C571 N572 1.330 . S
C571 C573 1.446 . S
N572 Co531 2.151 . S
N572 C571 1.330 . S
N572 C576 1.418 . S
C573 H552 0.929 . S
C573 C571 1.446 . S
C573 C574 1.332 . S
C574 H554 0.931 . S
C574 C573 1.332 . S
C574 C575 1.267 . S
C575 H543 0.929 . S
C575 C574 1.267 . S
C575 C576 1.251 . S
C576 H546 0.929 . S
C576 N572 1.418 . S
C576 C575 1.251 . S
C577 H544 0.930 . S
C577 C579 1.406 . S
C577 C582 1.261 . S
C578 H545 0.930 . S
C578 N580 1.325 . S
C578 C581 1.357 . S
C579 H547 0.928 . S
C579 C577 1.406 . S
C579 N580 1.261 . S
N580 Co531 2.214 . S
N580 C578 1.325 . S
N580 C579 1.261 . S
C581 H551 0.931 . S
C581 C578 1.357 . S
C581 C582 1.312 . S
C582 H553 0.930 . S
C582 C577 1.261 . S
C582 C581 1.312 . S
C583 O555 1.214 . S
C583 O563 1.234 . S
C584 H556 0.929 . S
C584 C587 1.391 . S
C584 C589 1.391 . S
C585 H557 0.929 . S
C585 C586 1.390 . S
C585 N588 1.391 . S
C586 H558 0.930 . S
C586 C585 1.390 . S
C586 C587 1.392 . S
C587 H559 0.929 . S
C587 C584 1.391 . S
C587 C586 1.392 . S
N588 Co532 2.257 . S
N588 C585 1.391 . S
N588 C589 1.388 . S
C589 H560 0.930 . S
C589 C584 1.391 . S
C589 N588 1.388 . S
Co590 O592 2.143 . S
Co590 O598 2.074 . S
Co590 O601 2.093 . S
Co590 O614 2.097 . S
Co590 N631 2.151 . S
Co590 N639 2.214 . S
Co591 O592 2.160 . S
Co591 O597 2.058 1_554 S
Co591 O607 2.057 1_554 S
Co591 O622 2.037 1_565 S
Co591 N626 2.145 1_564 S
Co591 N647 2.257 . S
O592 Co590 2.143 . S
O592 Co591 2.160 . S
C593 O594 1.278 . S
C593 O601 1.224 . S
O594 C593 1.278 . S
C595 O596 1.245 . S
C595 O607 1.232 . S
O596 C595 1.245 . S
O597 Co591 2.058 1_556 S
O597 C623 1.269 1_556 S
O598 Co590 2.074 . S
O598 C623 1.257 . S
H599 C624 0.930 . S
H600 C630 0.930 . S
O601 Co590 2.093 . S
O601 C593 1.224 . S
H602 C634 0.929 . S
H603 C636 0.930 . S
H604 C637 0.920 1_545 S
H605 C635 0.929 . S
H606 C638 0.928 . S
O607 Co591 2.057 1_556 S
O607 C595 1.232 . S
H608 C627 0.929 . S
H609 C628 0.929 1_565 S
H610 C640 0.931 . S
H611 C632 0.929 . S
H612 C641 0.930 . S
H613 C633 0.931 . S
O614 Co590 2.097 . S
O614 C642 1.214 1_565 S
H615 C643 0.929 . S
H616 C644 0.929 . S
H617 C645 0.930 . S
H618 C646 0.929 . S
H619 C648 0.930 . S
H620 C625 0.930 . S
H621 C629 0.930 . S
O622 Co591 2.037 1_545 S
O622 C642 1.234 . S
C623 O597 1.269 1_554 S
C623 O598 1.257 . S
C624 H599 0.930 . S
C624 C627 1.388 . S
C624 C629 1.418 . S
C625 H620 0.930 . S
C625 C628 1.404 . S
C625 C629 1.353 . S
N626 Co591 2.145 1_546 S
N626 C627 1.397 . S
N626 C628 1.334 . S
C627 H608 0.929 . S
C627 C624 1.388 . S
C627 N626 1.397 . S
C628 H609 0.929 1_545 S
C628 C625 1.404 . S
C628 N626 1.334 . S
C629 H621 0.930 . S
C629 C624 1.418 . S
C629 C625 1.353 . S
C630 H600 0.930 . S
C630 N631 1.330 . S
C630 C632 1.446 . S
N631 Co590 2.151 . S
N631 C630 1.330 . S
N631 C635 1.418 . S
C632 H611 0.929 . S
C632 C630 1.446 . S
C632 C633 1.332 . S
C633 H613 0.931 . S
C633 C632 1.332 . S
C633 C634 1.267 . S
C634 H602 0.929 . S
C634 C633 1.267 . S
C634 C635 1.251 . S
C635 H605 0.929 . S
C635 N631 1.418 . S
C635 C634 1.251 . S
C636 H603 0.930 . S
C636 C638 1.406 . S
C636 C641 1.261 . S
C637 H604 0.920 1_565 S
C637 N639 1.334 . S
C637 C640 1.358 1_565 S
C638 H606 0.928 . S
C638 C636 1.406 . S
C638 N639 1.261 . S
N639 Co590 2.214 . S
N639 C637 1.334 . S
N639 C638 1.261 . S
C640 H610 0.931 . S
C640 C637 1.358 1_545 S
C640 C641 1.312 1_545 S
C641 H612 0.930 . S
C641 C636 1.261 . S
C641 C640 1.312 1_565 S
C642 O614 1.214 1_545 S
C642 O622 1.234 . S
C643 H615 0.929 . S
C643 C646 1.391 . S
C643 C648 1.391 . S
C644 H616 0.929 . S
C644 C645 1.390 . S
C644 N647 1.391 1_545 S
C645 H617 0.930 . S
C645 C644 1.390 . S
C645 C646 1.392 1_545 S
C646 H618 0.929 . S
C646 C643 1.391 . S
C646 C645 1.392 1_565 S
N647 Co591 2.257 . S
N647 C644 1.391 1_565 S
N647 C648 1.388 . S
C648 H619 0.930 . S
C648 C643 1.391 . S
C648 N647 1.388 . S
Co649 O651 2.143 . S
Co649 O657 2.074 . S
Co649 O660 2.093 . S
Co649 O673 2.097 . S
Co649 N690 2.151 . S
Co649 N698 2.214 . S
Co650 O651 2.160 . S
Co650 O656 2.058 1_554 S
Co650 O666 2.057 1_554 S
Co650 O681 2.037 . S
Co650 N685 2.145 1_554 S
Co650 N706 2.257 . S
O651 Co649 2.143 . S
O651 Co650 2.160 . S
C652 O653 1.278 . S
C652 O660 1.224 . S
O653 C652 1.278 . S
C654 O655 1.245 . S
C654 O666 1.232 . S
O655 C654 1.245 . S
O656 Co650 2.058 1_556 S
O656 C682 1.269 1_556 S
O657 Co649 2.074 . S
O657 C682 1.257 . S
H658 C683 0.930 . S
H659 C689 0.930 . S
O660 Co649 2.093 . S
O660 C652 1.224 . S
H661 C693 0.929 . S
H662 C695 0.930 . S
H663 C696 0.930 . S
H664 C694 0.929 . S
H665 C697 0.928 . S
O666 Co650 2.057 1_556 S
O666 C654 1.232 . S
H667 C686 0.929 . S
H668 C687 0.929 . S
H669 C699 0.931 . S
H670 C691 0.929 . S
H671 C700 0.930 . S
H672 C692 0.931 . S
O673 Co649 2.097 . S
O673 C701 1.214 . S
H674 C702 0.929 . S
H675 C703 0.929 . S
H676 C704 0.930 . S
H677 C705 0.929 . S
H678 C707 0.930 . S
H679 C684 0.930 . S
H680 C688 0.930 . S
O681 Co650 2.037 . S
O681 C701 1.234 . S
C682 O656 1.269 1_554 S
C682 O657 1.257 . S
C683 H658 0.930 . S
C683 C686 1.388 . S
C683 C688 1.418 . S
C684 H679 0.930 . S
C684 C687 1.404 . S
C684 C688 1.353 . S
N685 Co650 2.145 1_556 S
N685 C686 1.397 . S
N685 C687 1.334 . S
C686 H667 0.929 . S
C686 C683 1.388 . S
C686 N685 1.397 . S
C687 H668 0.929 . S
C687 C684 1.404 . S
C687 N685 1.334 . S
C688 H680 0.930 . S
C688 C683 1.418 . S
C688 C684 1.353 . S
C689 H659 0.930 . S
C689 N690 1.330 . S
C689 C691 1.446 . S
N690 Co649 2.151 . S
N690 C689 1.330 . S
N690 C694 1.418 . S
C691 H670 0.929 . S
C691 C689 1.446 . S
C691 C692 1.332 . S
C692 H672 0.931 . S
C692 C691 1.332 . S
C692 C693 1.267 . S
C693 H661 0.929 . S
C693 C692 1.267 . S
C693 C694 1.251 . S
C694 H664 0.929 . S
C694 N690 1.418 . S
C694 C693 1.251 . S
C695 H662 0.930 . S
C695 C697 1.406 . S
C695 C700 1.261 . S
C696 H663 0.930 . S
C696 N698 1.325 . S
C696 C699 1.357 . S
C697 H665 0.928 . S
C697 C695 1.406 . S
C697 N698 1.261 . S
N698 Co649 2.214 . S
N698 C696 1.325 . S
N698 C697 1.261 . S
C699 H669 0.931 . S
C699 C696 1.357 . S
C699 C700 1.312 . S
C700 H671 0.930 . S
C700 C695 1.261 . S
C700 C699 1.312 . S
C701 O673 1.214 . S
C701 O681 1.234 . S
C702 H674 0.929 . S
C702 C705 1.391 . S
C702 C707 1.391 . S
C703 H675 0.929 . S
C703 C704 1.390 . S
C703 N706 1.391 . S
C704 H676 0.930 . S
C704 C703 1.390 . S
C704 C705 1.392 . S
C705 H677 0.929 . S
C705 C702 1.391 . S
C705 C704 1.392 . S
N706 Co650 2.257 . S
N706 C703 1.391 . S
N706 C707 1.388 . S
C707 H678 0.930 . S
C707 C702 1.391 . S
C707 N706 1.388 . S
Co708 O710 2.143 . S
Co708 O716 2.074 . S
Co708 O719 2.093 . S
Co708 O732 2.097 . S
Co708 N749 2.151 . S
Co708 N757 2.214 . S
Co709 O710 2.160 . S
Co709 O715 2.058 1_556 S
Co709 O725 2.057 1_556 S
Co709 O740 2.037 . S
Co709 N744 2.145 1_556 S
Co709 N765 2.257 . S
O710 Co708 2.143 . S
O710 Co709 2.160 . S
C711 O712 1.278 . S
C711 O719 1.224 . S
O712 C711 1.278 . S
C713 O714 1.245 . S
C713 O725 1.232 . S
O714 C713 1.245 . S
O715 Co709 2.058 1_554 S
O715 C741 1.269 1_554 S
O716 Co708 2.074 . S
O716 C741 1.257 . S
H717 C742 0.930 . S
H718 C748 0.930 . S
O719 Co708 2.093 . S
O719 C711 1.224 . S
H720 C752 0.929 . S
H721 C754 0.930 . S
H722 C755 0.930 . S
H723 C753 0.929 . S
H724 C756 0.928 . S
O725 Co709 2.057 1_554 S
O725 C713 1.232 . S
H726 C745 0.929 . S
H727 C746 0.929 . S
H728 C758 0.931 . S
H729 C750 0.929 . S
H730 C759 0.930 . S
H731 C751 0.931 . S
O732 Co708 2.097 . S
O732 C760 1.214 . S
H733 C761 0.929 . S
H734 C762 0.929 . S
H735 C763 0.930 . S
H736 C764 0.929 . S
H737 C766 0.930 . S
H738 C743 0.930 . S
H739 C747 0.930 . S
O740 Co709 2.037 . S
O740 C760 1.234 . S
C741 O715 1.269 1_556 S
C741 O716 1.257 . S
C742 H717 0.930 . S
C742 C745 1.388 . S
C742 C747 1.418 . S
C743 H738 0.930 . S
C743 C746 1.404 . S
C743 C747 1.353 . S
N744 Co709 2.145 1_554 S
N744 C745 1.397 . S
N744 C746 1.334 . S
C745 H726 0.929 . S
C745 C742 1.388 . S
C745 N744 1.397 . S
C746 H727 0.929 . S
C746 C743 1.404 . S
C746 N744 1.334 . S
C747 H739 0.930 . S
C747 C742 1.418 . S
C747 C743 1.353 . S
C748 H718 0.930 . S
C748 N749 1.330 . S
C748 C750 1.446 . S
N749 Co708 2.151 . S
N749 C748 1.330 . S
N749 C753 1.418 . S
C750 H729 0.929 . S
C750 C748 1.446 . S
C750 C751 1.332 . S
C751 H731 0.931 . S
C751 C750 1.332 . S
C751 C752 1.267 . S
C752 H720 0.929 . S
C752 C751 1.267 . S
C752 C753 1.251 . S
C753 H723 0.929 . S
C753 N749 1.418 . S
C753 C752 1.251 . S
C754 H721 0.930 . S
C754 C756 1.406 . S
C754 C759 1.261 . S
C755 H722 0.930 . S
C755 N757 1.325 . S
C755 C758 1.357 . S
C756 H724 0.928 . S
C756 C754 1.406 . S
C756 N757 1.261 . S
N757 Co708 2.214 . S
N757 C755 1.325 . S
N757 C756 1.261 . S
C758 H728 0.931 . S
C758 C755 1.357 . S
C758 C759 1.312 . S
C759 H730 0.930 . S
C759 C754 1.261 . S
C759 C758 1.312 . S
C760 O732 1.214 . S
C760 O740 1.234 . S
C761 H733 0.929 . S
C761 C764 1.391 . S
C761 C766 1.391 . S
C762 H734 0.929 . S
C762 C763 1.390 . S
C762 N765 1.391 . S
C763 H735 0.930 . S
C763 C762 1.390 . S
C763 C764 1.392 . S
C764 H736 0.929 . S
C764 C761 1.391 . S
C764 C763 1.392 . S
N765 Co709 2.257 . S
N765 C762 1.391 . S
N765 C766 1.388 . S
C766 H737 0.930 . S
C766 C761 1.391 . S
C766 N765 1.388 . S
Co767 O769 2.143 . S
Co767 O775 2.074 . S
Co767 O778 2.093 1_556 S
Co767 O791 2.097 1_556 S
Co767 N808 2.151 . S
Co767 N816 2.214 1_556 S
Co768 O769 2.160 . S
Co768 O774 2.058 . S
Co768 O784 2.057 . S
Co768 O799 2.037 . S
Co768 N803 2.145 . S
Co768 N824 2.257 . S
O769 Co767 2.143 . S
O769 Co768 2.160 . S
C770 O771 1.278 . S
C770 O778 1.224 . S
O771 C770 1.278 . S
C772 O773 1.245 . S
C772 O784 1.232 . S
O773 C772 1.245 . S
O774 Co768 2.058 . S
O774 C800 1.269 . S
O775 Co767 2.074 . S
O775 C800 1.257 . S
H776 C801 0.930 . S
H777 C807 0.930 . S
O778 Co767 2.093 1_554 S
O778 C770 1.224 . S
H779 C811 0.929 . S
H780 C813 0.930 . S
H781 C814 0.930 . S
H782 C812 0.929 . S
H783 C815 0.928 . S
O784 Co768 2.057 . S
O784 C772 1.232 . S
H785 C804 0.929 . S
H786 C805 0.929 . S
H787 C817 0.931 . S
H788 C809 0.929 . S
H789 C818 0.930 . S
H790 C810 0.931 . S
O791 Co767 2.097 1_554 S
O791 C819 1.214 1_554 S
H792 C820 0.929 . S
H793 C821 0.929 . S
H794 C822 0.930 . S
H795 C823 0.929 . S
H796 C825 0.930 . S
H797 C802 0.930 . S
H798 C806 0.930 . S
O799 Co768 2.037 . S
O799 C819 1.234 . S
C800 O774 1.269 . S
C800 O775 1.257 . S
C801 H776 0.930 . S
C801 C804 1.388 . S
C801 C806 1.418 . S
C802 H797 0.930 . S
C802 C805 1.404 . S
C802 C806 1.353 . S
N803 Co768 2.145 . S
N803 C804 1.397 . S
N803 C805 1.334 . S
C804 H785 0.929 . S
C804 C801 1.388 . S
C804 N803 1.397 . S
C805 H786 0.929 . S
C805 C802 1.404 . S
C805 N803 1.334 . S
C806 H798 0.930 . S
C806 C801 1.418 . S
C806 C802 1.353 . S
C807 H777 0.930 . S
C807 N808 1.330 . S
C807 C809 1.446 . S
N808 Co767 2.151 . S
N808 C807 1.330 . S
N808 C812 1.418 . S
C809 H788 0.929 . S
C809 C807 1.446 . S
C809 C810 1.332 . S
C810 H790 0.931 . S
C810 C809 1.332 . S
C810 C811 1.267 . S
C811 H779 0.929 . S
C811 C810 1.267 . S
C811 C812 1.251 . S
C812 H782 0.929 . S
C812 N808 1.418 . S
C812 C811 1.251 . S
C813 H780 0.930 . S
C813 C815 1.406 . S
C813 C818 1.261 . S
C814 H781 0.930 . S
C814 N816 1.325 . S
C814 C817 1.357 . S
C815 H783 0.928 . S
C815 C813 1.406 . S
C815 N816 1.261 . S
N816 Co767 2.214 1_554 S
N816 C814 1.325 . S
N816 C815 1.261 . S
C817 H787 0.931 . S
C817 C814 1.357 . S
C817 C818 1.312 . S
C818 H789 0.930 . S
C818 C813 1.261 . S
C818 C817 1.312 . S
C819 O791 1.214 1_556 S
C819 O799 1.234 . S
C820 H792 0.929 . S
C820 C823 1.391 . S
C820 C825 1.391 . S
C821 H793 0.929 . S
C821 C822 1.390 . S
C821 N824 1.391 . S
C822 H794 0.930 . S
C822 C821 1.390 . S
C822 C823 1.392 . S
C823 H795 0.929 . S
C823 C820 1.391 . S
C823 C822 1.392 . S
N824 Co768 2.257 . S
N824 C821 1.391 . S
N824 C825 1.388 . S
C825 H796 0.930 . S
C825 C820 1.391 . S
C825 N824 1.388 . S
Co826 O828 2.143 . S
Co826 O834 2.074 . S
Co826 O837 2.093 . S
Co826 O850 2.097 . S
Co826 N867 2.151 . S
Co826 N875 2.214 . S
Co827 O828 2.160 . S
Co827 O833 2.058 1_556 S
Co827 O843 2.057 1_556 S
Co827 O858 2.037 1_655 S
Co827 N862 2.145 1_656 S
Co827 N883 2.257 . S
O828 Co826 2.143 . S
O828 Co827 2.160 . S
C829 O830 1.278 . S
C829 O837 1.224 . S
O830 C829 1.278 . S
C831 O832 1.245 . S
C831 O843 1.232 . S
O832 C831 1.245 . S
O833 Co827 2.058 1_554 S
O833 C859 1.269 1_554 S
O834 Co826 2.074 . S
O834 C859 1.257 . S
H835 C860 0.930 . S
H836 C866 0.930 . S
O837 Co826 2.093 . S
O837 C829 1.224 . S
H838 C870 0.929 . S
H839 C872 0.930 . S
H840 C873 0.917 1_455 S
H841 C871 0.929 . S
H842 C874 0.928 . S
O843 Co827 2.057 1_554 S
O843 C831 1.232 . S
H844 C863 0.929 . S
H845 C864 0.929 1_655 S
H846 C876 0.931 . S
H847 C868 0.929 . S
H848 C877 0.959 . S
H849 C869 0.931 . S
O850 Co826 2.097 . S
O850 C878 1.214 1_655 S
H851 C879 0.929 . S
H852 C880 0.929 . S
H853 C881 0.930 . S
H854 C882 0.929 . S
H855 C884 0.930 . S
H856 C861 0.930 . S
H857 C865 0.930 . S
O858 Co827 2.037 1_455 S
O858 C878 1.234 . S
C859 O833 1.269 1_556 S
C859 O834 1.257 . S
C860 H835 0.930 . S
C860 C863 1.388 . S
C860 C865 1.418 . S
C861 H856 0.930 . S
C861 C864 1.404 . S
C861 C865 1.353 . S
N862 Co827 2.145 1_454 S
N862 C863 1.397 . S
N862 C864 1.334 . S
C863 H844 0.929 . S
C863 C860 1.388 . S
C863 N862 1.397 . S
C864 H845 0.929 1_455 S
C864 C861 1.404 . S
C864 N862 1.334 . S
C865 H857 0.930 . S
C865 C860 1.418 . S
C865 C861 1.353 . S
C866 H836 0.930 . S
C866 N867 1.330 . S
C866 C868 1.446 . S
N867 Co826 2.151 . S
N867 C866 1.330 . S
N867 C871 1.418 . S
C868 H847 0.929 . S
C868 C866 1.446 . S
C868 C869 1.332 . S
C869 H849 0.931 . S
C869 C868 1.332 . S
C869 C870 1.267 . S
C870 H838 0.929 . S
C870 C869 1.267 . S
C870 C871 1.251 . S
C871 H841 0.929 . S
C871 N867 1.418 . S
C871 C870 1.251 . S
C872 H839 0.930 . S
C872 C874 1.406 . S
C872 C877 1.261 . S
C873 H840 0.917 1_655 S
C873 N875 1.370 . S
C873 C876 1.325 1_655 S
C874 H842 0.928 . S
C874 C872 1.406 . S
C874 N875 1.261 . S
N875 Co826 2.214 . S
N875 C873 1.370 . S
N875 C874 1.261 . S
C876 H846 0.931 . S
C876 C873 1.325 1_455 S
C876 C877 1.312 1_455 S
C877 H848 0.959 . S
C877 C872 1.261 . S
C877 C876 1.312 1_655 S
C878 O850 1.214 1_455 S
C878 O858 1.234 . S
C879 H851 0.929 . S
C879 C882 1.391 . S
C879 C884 1.391 . S
C880 H852 0.929 . S
C880 C881 1.390 . S
C880 N883 1.391 1_455 S
C881 H853 0.930 . S
C881 C880 1.390 . S
C881 C882 1.392 1_455 S
C882 H854 0.929 . S
C882 C879 1.391 . S
C882 C881 1.392 1_655 S
N883 Co827 2.257 . S
N883 C880 1.391 1_655 S
N883 C884 1.388 . S
C884 H855 0.930 . S
C884 C879 1.391 . S
C884 N883 1.388 . S
Co885 O887 2.143 . S
Co885 O893 2.074 . S
Co885 O896 2.093 . S
Co885 O909 2.097 . S
Co885 N926 2.151 . S
Co885 N934 2.214 . S
Co886 O887 2.160 . S
Co886 O892 2.058 . S
Co886 O902 2.057 . S
Co886 O917 2.037 . S
Co886 N921 2.145 . S
Co886 N942 2.257 . S
O887 Co885 2.143 . S
O887 Co886 2.160 . S
C888 O889 1.278 . S
C888 O896 1.224 . S
O889 C888 1.278 . S
C890 O891 1.245 . S
C890 O902 1.232 . S
O891 C890 1.245 . S
O892 Co886 2.058 . S
O892 C918 1.269 . S
O893 Co885 2.074 . S
O893 C918 1.257 . S
H894 C919 0.930 . S
H895 C925 0.930 . S
O896 Co885 2.093 . S
O896 C888 1.224 . S
H897 C929 0.929 . S
H898 C931 0.930 . S
H899 C932 0.930 . S
H900 C930 0.929 . S
H901 C933 0.928 . S
O902 Co886 2.057 . S
O902 C890 1.232 . S
H903 C922 0.929 . S
H904 C923 0.929 . S
H905 C935 0.931 . S
H906 C927 0.929 . S
H907 C936 0.930 . S
H908 C928 0.931 . S
O909 Co885 2.097 . S
O909 C937 1.214 . S
H910 C938 0.929 . S
H911 C939 0.929 . S
H912 C940 0.930 . S
H913 C941 0.929 . S
H914 C943 0.930 . S
H915 C920 0.930 . S
H916 C924 0.930 . S
O917 Co886 2.037 . S
O917 C937 1.234 . S
C918 O892 1.269 . S
C918 O893 1.257 . S
C919 H894 0.930 . S
C919 C922 1.388 . S
C919 C924 1.418 . S
C920 H915 0.930 . S
C920 C923 1.404 . S
C920 C924 1.353 . S
N921 Co886 2.145 . S
N921 C922 1.397 . S
N921 C923 1.334 . S
C922 H903 0.929 . S
C922 C919 1.388 . S
C922 N921 1.397 . S
C923 H904 0.929 . S
C923 C920 1.404 . S
C923 N921 1.334 . S
C924 H916 0.930 . S
C924 C919 1.418 . S
C924 C920 1.353 . S
C925 H895 0.930 . S
C925 N926 1.330 . S
C925 C927 1.446 . S
N926 Co885 2.151 . S
N926 C925 1.330 . S
N926 C930 1.418 . S
C927 H906 0.929 . S
C927 C925 1.446 . S
C927 C928 1.332 . S
C928 H908 0.931 . S
C928 C927 1.332 . S
C928 C929 1.267 . S
C929 H897 0.929 . S
C929 C928 1.267 . S
C929 C930 1.251 . S
C930 H900 0.929 . S
C930 N926 1.418 . S
C930 C929 1.251 . S
C931 H898 0.930 . S
C931 C933 1.406 . S
C931 C936 1.261 . S
C932 H899 0.930 . S
C932 N934 1.325 . S
C932 C935 1.357 . S
C933 H901 0.928 . S
C933 C931 1.406 . S
C933 N934 1.261 . S
N934 Co885 2.214 . S
N934 C932 1.325 . S
N934 C933 1.261 . S
C935 H905 0.931 . S
C935 C932 1.357 . S
C935 C936 1.312 . S
C936 H907 0.930 . S
C936 C931 1.261 . S
C936 C935 1.312 . S
C937 O909 1.214 . S
C937 O917 1.234 . S
C938 H910 0.929 . S
C938 C941 1.391 . S
C938 C943 1.391 . S
C939 H911 0.929 . S
C939 C940 1.390 . S
C939 N942 1.391 . S
C940 H912 0.930 . S
C940 C939 1.390 . S
C940 C941 1.392 . S
C941 H913 0.929 . S
C941 C938 1.391 . S
C941 C940 1.392 . S
N942 Co886 2.257 . S
N942 C939 1.391 . S
N942 C943 1.388 . S
C943 H914 0.930 . S
C943 C938 1.391 . S
C943 N942 1.388 . S
Co944 O946 2.143 . S
Co944 O952 2.074 . S
Co944 O955 2.093 . S
Co944 O968 2.097 . S
Co944 N985 2.151 . S
Co944 N993 2.214 . S
Co945 O946 2.160 . S
Co945 O951 2.058 . S
Co945 O961 2.057 . S
Co945 O976 2.037 1_655 S
Co945 N980 2.145 1_655 S
Co945 N1001 2.257 . S
O946 Co944 2.143 . S
O946 Co945 2.160 . S
C947 O948 1.278 . S
C947 O955 1.224 . S
O948 C947 1.278 . S
C949 O950 1.245 . S
C949 O961 1.232 . S
O950 C949 1.245 . S
O951 Co945 2.058 . S
O951 C977 1.269 . S
O952 Co944 2.074 . S
O952 C977 1.257 . S
H953 C978 0.930 . S
H954 C984 0.930 . S
O955 Co944 2.093 . S
O955 C947 1.224 . S
H956 C988 0.929 . S
H957 C990 0.930 . S
H958 C991 0.930 1_455 S
H959 C989 0.929 . S
H960 C992 0.928 . S
O961 Co945 2.057 . S
O961 C949 1.232 . S
H962 C981 0.929 . S
H963 C982 0.929 1_655 S
H964 C994 0.931 . S
H965 C986 0.929 . S
H966 C995 0.930 . S
H967 C987 0.931 . S
O968 Co944 2.097 . S
O968 C996 1.214 1_655 S
H969 C997 0.929 . S
H970 C998 0.929 . S
H971 C999 0.930 . S
H972 C1000 0.929 . S
H973 C1002 0.930 . S
H974 C979 0.930 . S
H975 C983 0.930 . S
O976 Co945 2.037 1_455 S
O976 C996 1.234 . S
C977 O951 1.269 . S
C977 O952 1.257 . S
C978 H953 0.930 . S
C978 C981 1.388 . S
C978 C983 1.418 . S
C979 H974 0.930 . S
C979 C982 1.404 . S
C979 C983 1.353 . S
N980 Co945 2.145 1_455 S
N980 C981 1.397 . S
N980 C982 1.334 . S
C981 H962 0.929 . S
C981 C978 1.388 . S
C981 N980 1.397 . S
C982 H963 0.929 1_455 S
C982 C979 1.404 . S
C982 N980 1.334 . S
C983 H975 0.930 . S
C983 C978 1.418 . S
C983 C979 1.353 . S
C984 H954 0.930 . S
C984 N985 1.330 . S
C984 C986 1.446 . S
N985 Co944 2.151 . S
N985 C984 1.330 . S
N985 C989 1.418 . S
C986 H965 0.929 . S
C986 C984 1.446 . S
C986 C987 1.332 . S
C987 H967 0.931 . S
C987 C986 1.332 . S
C987 C988 1.267 . S
C988 H956 0.929 . S
C988 C987 1.267 . S
C988 C989 1.251 . S
C989 H959 0.929 . S
C989 N985 1.418 . S
C989 C988 1.251 . S
C990 H957 0.930 . S
C990 C992 1.406 . S
C990 C995 1.261 . S
C991 H958 0.930 1_655 S
C991 N993 1.325 . S
C991 C994 1.357 1_655 S
C992 H960 0.928 . S
C992 C990 1.406 . S
C992 N993 1.261 . S
N993 Co944 2.214 . S
N993 C991 1.325 . S
N993 C992 1.261 . S
C994 H964 0.931 . S
C994 C991 1.357 1_455 S
C994 C995 1.312 1_455 S
C995 H966 0.930 . S
C995 C990 1.261 . S
C995 C994 1.312 1_655 S
C996 O968 1.214 1_455 S
C996 O976 1.234 . S
C997 H969 0.929 . S
C997 C1000 1.391 . S
C997 C1002 1.391 . S
C998 H970 0.929 . S
C998 C999 1.390 . S
C998 N1001 1.391 1_455 S
C999 H971 0.930 . S
C999 C998 1.390 . S
C999 C1000 1.392 1_455 S
C1000 H972 0.929 . S
C1000 C997 1.391 . S
C1000 C999 1.392 1_655 S
N1001 Co945 2.257 . S
N1001 C998 1.391 1_655 S
N1001 C1002 1.388 . S
C1002 H973 0.930 . S
C1002 C997 1.391 . S
C1002 N1001 1.388 . S
Co1003 O1005 2.143 . S
Co1003 O1011 2.074 . S
Co1003 O1014 2.093 . S
Co1003 O1027 2.097 . S
Co1003 N1044 2.151 . S
Co1003 N1052 2.214 . S
Co1004 O1005 2.160 . S
Co1004 O1010 2.058 . S
Co1004 O1020 2.057 . S
Co1004 O1035 2.037 . S
Co1004 N1039 2.145 . S
Co1004 N1060 2.257 . S
O1005 Co1003 2.143 . S
O1005 Co1004 2.160 . S
C1006 O1007 1.278 . S
C1006 O1014 1.224 . S
O1007 C1006 1.278 . S
C1008 O1009 1.245 . S
C1008 O1020 1.232 . S
O1009 C1008 1.245 . S
O1010 Co1004 2.058 . S
O1010 C1036 1.269 . S
O1011 Co1003 2.074 . S
O1011 C1036 1.257 . S
H1012 C1037 0.930 . S
H1013 C1043 0.930 . S
O1014 Co1003 2.093 . S
O1014 C1006 1.224 . S
H1015 C1047 0.929 . S
H1016 C1049 0.930 . S
H1017 C1050 0.930 . S
H1018 C1048 0.929 . S
H1019 C1051 0.928 . S
O1020 Co1004 2.057 . S
O1020 C1008 1.232 . S
H1021 C1040 0.929 . S
H1022 C1041 0.929 . S
H1023 C1053 0.931 . S
H1024 C1045 0.929 . S
H1025 C1054 0.930 . S
H1026 C1046 0.931 . S
O1027 Co1003 2.097 . S
O1027 C1055 1.214 . S
H1028 C1056 0.929 . S
H1029 C1057 0.929 . S
H1030 C1058 0.930 . S
H1031 C1059 0.929 . S
H1032 C1061 0.930 . S
H1033 C1038 0.930 . S
H1034 C1042 0.930 . S
O1035 Co1004 2.037 . S
O1035 C1055 1.234 . S
C1036 O1010 1.269 . S
C1036 O1011 1.257 . S
C1037 H1012 0.930 . S
C1037 C1040 1.388 . S
C1037 C1042 1.418 . S
C1038 H1033 0.930 . S
C1038 C1041 1.404 . S
C1038 C1042 1.353 . S
N1039 Co1004 2.145 . S
N1039 C1040 1.397 . S
N1039 C1041 1.334 . S
C1040 H1021 0.929 . S
C1040 C1037 1.388 . S
C1040 N1039 1.397 . S
C1041 H1022 0.929 . S
C1041 C1038 1.404 . S
C1041 N1039 1.334 . S
C1042 H1034 0.930 . S
C1042 C1037 1.418 . S
C1042 C1038 1.353 . S
C1043 H1013 0.930 . S
C1043 N1044 1.330 . S
C1043 C1045 1.446 . S
N1044 Co1003 2.151 . S
N1044 C1043 1.330 . S
N1044 C1048 1.418 . S
C1045 H1024 0.929 . S
C1045 C1043 1.446 . S
C1045 C1046 1.332 . S
C1046 H1026 0.931 . S
C1046 C1045 1.332 . S
C1046 C1047 1.267 . S
C1047 H1015 0.929 . S
C1047 C1046 1.267 . S
C1047 C1048 1.251 . S
C1048 H1018 0.929 . S
C1048 N1044 1.418 . S
C1048 C1047 1.251 . S
C1049 H1016 0.930 . S
C1049 C1051 1.406 . S
C1049 C1054 1.261 . S
C1050 H1017 0.930 . S
C1050 N1052 1.325 . S
C1050 C1053 1.357 . S
C1051 H1019 0.928 . S
C1051 C1049 1.406 . S
C1051 N1052 1.261 . S
N1052 Co1003 2.214 . S
N1052 C1050 1.325 . S
N1052 C1051 1.261 . S
C1053 H1023 0.931 . S
C1053 C1050 1.357 . S
C1053 C1054 1.312 . S
C1054 H1025 0.930 . S
C1054 C1049 1.261 . S
C1054 C1053 1.312 . S
C1055 O1027 1.214 . S
C1055 O1035 1.234 . S
C1056 H1028 0.929 . S
C1056 C1059 1.391 . S
C1056 C1061 1.391 . S
C1057 H1029 0.929 . S
C1057 C1058 1.390 . S
C1057 N1060 1.391 . S
C1058 H1030 0.930 . S
C1058 C1057 1.390 . S
C1058 C1059 1.392 . S
C1059 H1031 0.929 . S
C1059 C1056 1.391 . S
C1059 C1058 1.392 . S
N1060 Co1004 2.257 . S
N1060 C1057 1.391 . S
N1060 C1061 1.388 . S
C1061 H1032 0.930 . S
C1061 C1056 1.391 . S
C1061 N1060 1.388 . S
C1062 C1063 1.387 . S
C1062 H1066 0.950 . S
C1062 C1071 1.390 . S
C1063 C1062 1.387 . S
C1063 C1065 1.387 1_556 S
H1064 C1071 0.950 . S
C1065 C1063 1.387 1_554 S
C1065 C1067 1.390 . S
C1065 H1069 0.950 . S
H1066 C1062 0.950 . S
C1067 C1065 1.390 . S
C1067 C1068 1.387 . S
C1067 H1070 0.950 . S
C1068 C1067 1.387 . S
C1068 C1071 1.387 1_554 S
H1069 C1065 0.950 . S
H1070 C1067 0.950 . S
C1071 C1062 1.390 . S
C1071 H1064 0.950 . S
C1071 C1068 1.387 1_556 S
C1072 C1073 1.387 . S
C1072 H1076 0.950 . S
C1072 C1081 1.390 1_556 S
C1073 C1072 1.387 . S
C1073 C1075 1.387 . S
H1074 C1081 0.950 . S
C1075 C1073 1.387 . S
C1075 C1077 1.390 1_556 S
C1075 H1079 0.950 . S
H1076 C1072 0.950 . S
C1077 C1075 1.390 1_554 S
C1077 C1078 1.387 . S
C1077 H1080 0.950 . S
C1078 C1077 1.387 . S
C1078 C1081 1.387 . S
H1079 C1075 0.950 . S
H1080 C1077 0.950 . S
C1081 C1072 1.390 1_554 S
C1081 H1074 0.950 . S
C1081 C1078 1.387 . S
C1082 C1083 1.387 . S
C1082 H1086 0.950 . S
C1082 C1091 1.390 1_554 S
C1083 C1082 1.387 . S
C1083 C1085 1.387 . S
H1084 C1091 0.950 . S
C1085 C1083 1.387 . S
C1085 C1087 1.390 1_554 S
C1085 H1089 0.950 . S
H1086 C1082 0.950 . S
C1087 C1085 1.390 1_556 S
C1087 C1088 1.387 . S
C1087 H1090 0.950 . S
C1088 C1087 1.387 . S
C1088 C1091 1.387 . S
H1089 C1085 0.950 . S
H1090 C1087 0.950 . S
C1091 C1082 1.390 1_556 S
C1091 H1084 0.950 . S
C1091 C1088 1.387 . S
C1092 C1093 1.387 . S
C1092 H1096 0.950 . S
C1092 C1101 1.390 . S
C1093 C1092 1.387 . S
C1093 C1095 1.387 . S
H1094 C1101 0.950 . S
C1095 C1093 1.387 . S
C1095 C1097 1.390 . S
C1095 H1099 0.950 . S
H1096 C1092 0.950 . S
C1097 C1095 1.390 . S
C1097 C1098 1.387 . S
C1097 H1100 0.950 . S
C1098 C1097 1.387 . S
C1098 C1101 1.387 . S
H1099 C1095 0.950 . S
H1100 C1097 0.950 . S
C1101 C1092 1.390 . S
C1101 H1094 0.950 . S
C1101 C1098 1.387 . S
C1102 C1103 1.387 . S
C1102 H1106 0.950 . S
C1102 C1111 1.390 . S
C1103 C1102 1.387 . S
C1103 C1105 1.387 . S
H1104 C1111 0.950 . S
C1105 C1103 1.387 . S
C1105 C1107 1.390 . S
C1105 H1109 0.950 . S
H1106 C1102 0.950 . S
C1107 C1105 1.390 . S
C1107 C1108 1.387 . S
C1107 H1110 0.950 . S
C1108 C1107 1.387 . S
C1108 C1111 1.387 . S
H1109 C1105 0.950 . S
H1110 C1107 0.950 . S
C1111 C1102 1.390 . S
C1111 H1104 0.950 . S
C1111 C1108 1.387 . S
C1112 C1113 1.387 . S
C1112 H1116 0.950 . S
C1112 C1121 1.390 . S
C1113 C1112 1.387 . S
C1113 C1115 1.387 . S
H1114 C1121 0.950 . S
C1115 C1113 1.387 . S
C1115 C1117 1.390 . S
C1115 H1119 0.950 . S
H1116 C1112 0.950 . S
C1117 C1115 1.390 . S
C1117 C1118 1.387 . S
C1117 H1120 0.950 . S
C1118 C1117 1.387 . S
C1118 C1121 1.387 . S
H1119 C1115 0.950 . S
H1120 C1117 0.950 . S
C1121 C1112 1.390 . S
C1121 H1114 0.950 . S
C1121 C1118 1.387 . S
C1122 C1123 1.387 . S
C1122 H1126 0.950 . S
C1122 C1131 1.390 . S
C1123 C1122 1.387 . S
C1123 C1125 1.387 . S
H1124 C1131 0.950 . S
C1125 C1123 1.387 . S
C1125 C1127 1.390 . S
C1125 H1129 0.950 . S
H1126 C1122 0.950 . S
C1127 C1125 1.390 . S
C1127 C1128 1.387 . S
C1127 H1130 0.950 . S
C1128 C1127 1.387 . S
C1128 C1131 1.387 . S
H1129 C1125 0.950 . S
H1130 C1127 0.950 . S
C1131 C1122 1.390 . S
C1131 H1124 0.950 . S
C1131 C1128 1.387 . S
C1132 C1133 1.387 . S
C1132 H1136 0.950 . S
C1132 C1141 1.390 . S
C1133 C1132 1.387 . S
C1133 C1135 1.387 . S
H1134 C1141 0.950 . S
C1135 C1133 1.387 . S
C1135 C1137 1.390 . S
C1135 H1139 0.950 . S
H1136 C1132 0.950 . S
C1137 C1135 1.390 . S
C1137 C1138 1.387 . S
C1137 H1140 0.950 . S
C1138 C1137 1.387 . S
C1138 C1141 1.387 . S
H1139 C1135 0.950 . S
H1140 C1137 0.950 . S
C1141 C1132 1.390 . S
C1141 H1134 0.950 . S
C1141 C1138 1.387 . S
C1142 C1143 1.387 . S
C1142 H1146 0.950 . S
C1142 C1151 1.390 . S
C1143 C1142 1.387 . S
C1143 C1145 1.387 . S
H1144 C1151 0.950 . S
C1145 C1143 1.387 . S
C1145 C1147 1.390 . S
C1145 H1149 0.950 . S
H1146 C1142 0.950 . S
C1147 C1145 1.390 . S
C1147 C1148 1.387 . S
C1147 H1150 0.950 . S
C1148 C1147 1.387 . S
C1148 C1151 1.387 . S
H1149 C1145 0.950 . S
H1150 C1147 0.950 . S
C1151 C1142 1.390 . S
C1151 H1144 0.950 . S
C1151 C1148 1.387 . S
C1152 C1153 1.387 . S
C1152 H1156 0.950 . S
C1152 C1161 1.390 . S
C1153 C1152 1.387 . S
C1153 C1155 1.387 . S
H1154 C1161 0.950 . S
C1155 C1153 1.387 . S
C1155 C1157 1.390 . S
C1155 H1159 0.950 . S
H1156 C1152 0.950 . S
C1157 C1155 1.390 . S
C1157 C1158 1.387 . S
C1157 H1160 0.950 . S
C1158 C1157 1.387 . S
C1158 C1161 1.387 . S
H1159 C1155 0.950 . S
H1160 C1157 0.950 . S
C1161 C1152 1.390 . S
C1161 H1154 0.950 . S
C1161 C1158 1.387 . S
C1162 C1163 1.387 . S
C1162 H1166 0.950 . S
C1162 C1171 1.390 . S
C1163 C1162 1.387 . S
C1163 C1165 1.387 . S
H1164 C1171 0.950 . S
C1165 C1163 1.387 . S
C1165 C1167 1.390 . S
C1165 H1169 0.950 . S
H1166 C1162 0.950 . S
C1167 C1165 1.390 . S
C1167 C1168 1.387 . S
C1167 H1170 0.950 . S
C1168 C1167 1.387 . S
C1168 C1171 1.387 . S
H1169 C1165 0.950 . S
H1170 C1167 0.950 . S
C1171 C1162 1.390 . S
C1171 H1164 0.950 . S
C1171 C1168 1.387 . S
C1172 C1173 1.387 . S
C1172 H1176 0.950 . S
C1172 C1181 1.390 . S
C1173 C1172 1.387 . S
C1173 C1175 1.387 . S
H1174 C1181 0.950 . S
C1175 C1173 1.387 . S
C1175 C1177 1.390 . S
C1175 H1179 0.950 . S
H1176 C1172 0.950 . S
C1177 C1175 1.390 . S
C1177 C1178 1.387 . S
C1177 H1180 0.950 . S
C1178 C1177 1.387 . S
C1178 C1181 1.387 . S
H1179 C1175 0.950 . S
H1180 C1177 0.950 . S
C1181 C1172 1.390 . S
C1181 H1174 0.950 . S
C1181 C1178 1.387 . S
C1182 C1183 1.387 . S
C1182 H1186 0.950 . S
C1182 C1191 1.390 . S
C1183 C1182 1.387 . S
C1183 C1185 1.387 . S
H1184 C1191 0.950 . S
C1185 C1183 1.387 . S
C1185 C1187 1.390 . S
C1185 H1189 0.950 . S
H1186 C1182 0.950 . S
C1187 C1185 1.390 . S
C1187 C1188 1.387 . S
C1187 H1190 0.950 . S
C1188 C1187 1.387 . S
C1188 C1191 1.387 . S
H1189 C1185 0.950 . S
H1190 C1187 0.950 . S
C1191 C1182 1.390 . S
C1191 H1184 0.950 . S
C1191 C1188 1.387 . S
C1192 C1193 1.387 . S
C1192 H1196 0.950 . S
C1192 C1201 1.390 . S
C1193 C1192 1.387 . S
C1193 C1195 1.387 . S
H1194 C1201 0.950 . S
C1195 C1193 1.387 . S
C1195 C1197 1.390 . S
C1195 H1199 0.950 . S
H1196 C1192 0.950 . S
C1197 C1195 1.390 . S
C1197 C1198 1.387 . S
C1197 H1200 0.950 . S
C1198 C1197 1.387 . S
C1198 C1201 1.387 . S
H1199 C1195 0.950 . S
H1200 C1197 0.950 . S
C1201 C1192 1.390 . S
C1201 H1194 0.950 . S
C1201 C1198 1.387 . S
C1202 C1203 1.387 . S
C1202 H1206 0.950 . S
C1202 C1211 1.390 . S
C1203 C1202 1.387 . S
C1203 C1205 1.387 . S
H1204 C1211 0.950 . S
C1205 C1203 1.387 . S
C1205 C1207 1.390 . S
C1205 H1209 0.950 . S
H1206 C1202 0.950 . S
C1207 C1205 1.390 . S
C1207 C1208 1.387 . S
C1207 H1210 0.950 . S
C1208 C1207 1.387 . S
C1208 C1211 1.387 . S
H1209 C1205 0.950 . S
H1210 C1207 0.950 . S
C1211 C1202 1.390 . S
C1211 H1204 0.950 . S
C1211 C1208 1.387 . S
C1212 C1213 1.387 . S
C1212 H1216 0.950 . S
C1212 C1221 1.390 . S
C1213 C1212 1.387 . S
C1213 C1215 1.387 . S
H1214 C1221 0.950 . S
C1215 C1213 1.387 . S
C1215 C1217 1.390 . S
C1215 H1219 0.950 . S
H1216 C1212 0.950 . S
C1217 C1215 1.390 . S
C1217 C1218 1.387 . S
C1217 H1220 0.950 . S
C1218 C1217 1.387 . S
C1218 C1221 1.387 . S
H1219 C1215 0.950 . S
H1220 C1217 0.950 . S
C1221 C1212 1.390 . S
C1221 H1214 0.950 . S
C1221 C1218 1.387 . S
C1222 C1223 1.387 . S
C1222 H1226 0.950 . S
C1222 C1231 1.390 . S
C1223 C1222 1.387 . S
C1223 C1225 1.387 . S
H1224 C1231 0.950 . S
C1225 C1223 1.387 . S
C1225 C1227 1.390 . S
C1225 H1229 0.950 . S
H1226 C1222 0.950 . S
C1227 C1225 1.390 . S
C1227 C1228 1.387 . S
C1227 H1230 0.950 . S
C1228 C1227 1.387 . S
C1228 C1231 1.387 . S
H1229 C1225 0.950 . S
H1230 C1227 0.950 . S
C1231 C1222 1.390 . S
C1231 H1224 0.950 . S
C1231 C1228 1.387 . S
C1232 C1233 1.387 . S
C1232 H1236 0.950 . S
C1232 C1241 1.390 . S
C1233 C1232 1.387 . S
C1233 C1235 1.387 . S
H1234 C1241 0.950 . S
C1235 C1233 1.387 . S
C1235 C1237 1.390 . S
C1235 H1239 0.950 . S
H1236 C1232 0.950 . S
C1237 C1235 1.390 . S
C1237 C1238 1.387 . S
C1237 H1240 0.950 . S
C1238 C1237 1.387 . S
C1238 C1241 1.387 . S
H1239 C1235 0.950 . S
H1240 C1237 0.950 . S
C1241 C1232 1.390 . S
C1241 H1234 0.950 . S
C1241 C1238 1.387 . S
C1242 C1243 1.387 . S
C1242 H1246 0.950 . S
C1242 C1251 1.390 . S
C1243 C1242 1.387 . S
C1243 C1245 1.387 . S
H1244 C1251 0.950 . S
C1245 C1243 1.387 . S
C1245 C1247 1.390 . S
C1245 H1249 0.950 . S
H1246 C1242 0.950 . S
C1247 C1245 1.390 . S
C1247 C1248 1.387 . S
C1247 H1250 0.950 . S
C1248 C1247 1.387 . S
C1248 C1251 1.387 . S
H1249 C1245 0.950 . S
H1250 C1247 0.950 . S
C1251 C1242 1.390 . S
C1251 H1244 0.950 . S
C1251 C1248 1.387 . S
C1252 C1253 1.387 . S
C1252 H1256 0.950 . S
C1252 C1261 1.390 . S
C1253 C1252 1.387 . S
C1253 C1255 1.387 . S
H1254 C1261 0.950 . S
C1255 C1253 1.387 . S
C1255 C1257 1.390 . S
C1255 H1259 0.950 . S
H1256 C1252 0.950 . S
C1257 C1255 1.390 . S
C1257 C1258 1.387 . S
C1257 H1260 0.950 . S
C1258 C1257 1.387 . S
C1258 C1261 1.387 . S
H1259 C1255 0.950 . S
H1260 C1257 0.950 . S
C1261 C1252 1.390 . S
C1261 H1254 0.950 . S
C1261 C1258 1.387 . S
C1262 C1263 1.381 1_545 S
C1262 H1266 0.950 . S
C1262 C1271 1.390 . S
C1263 C1262 1.381 1_565 S
C1263 C1265 1.389 . S
H1264 C1271 0.950 . S
C1265 C1263 1.389 . S
C1265 C1267 1.390 . S
C1265 H1269 0.950 . S
H1266 C1262 0.950 . S
C1267 C1265 1.390 . S
C1267 C1268 1.387 1_565 S
C1267 H1270 0.950 . S
C1268 C1267 1.387 1_545 S
C1268 C1271 1.387 . S
H1269 C1265 0.950 . S
H1270 C1267 0.950 . S
C1271 C1262 1.390 . S
C1271 H1264 0.950 . S
C1271 C1268 1.387 . S
C1272 C1273 1.387 . S
C1272 H1276 0.950 . S
C1272 C1281 1.390 . S
C1273 C1272 1.387 . S
C1273 C1275 1.387 . S
H1274 C1281 0.950 1_556 S
C1275 C1273 1.387 . S
C1275 C1277 1.390 . S
C1275 H1279 0.950 . S
H1276 C1272 0.950 . S
C1277 C1275 1.390 . S
C1277 C1278 1.387 . S
C1277 H1280 0.950 . S
C1278 C1277 1.387 . S
C1278 C1281 1.387 . S
H1279 C1275 0.950 . S
H1280 C1277 0.950 . S
C1281 C1272 1.390 . S
C1281 H1274 0.950 1_554 S
C1281 C1278 1.387 . S
C1282 C1283 1.358 1_455 S
C1282 H1286 0.950 1_554 S
C1282 C1291 1.390 . S
C1283 C1282 1.358 1_655 S
C1283 C1285 1.397 . S
H1284 C1291 0.950 . S
C1285 C1283 1.397 . S
C1285 C1287 1.368 1_655 S
C1285 H1289 0.950 . S
H1286 C1282 0.950 1_556 S
C1287 C1285 1.368 1_455 S
C1287 C1288 1.420 . S
C1287 H1290 0.940 1_455 S
C1288 C1287 1.420 . S
C1288 C1291 1.387 . S
H1289 C1285 0.950 . S
H1290 C1287 0.940 1_655 S
C1291 C1282 1.390 . S
C1291 H1284 0.950 . S
C1291 C1288 1.387 . S
C1292 C1293 1.387 . S
C1292 H1296 0.950 . S
C1292 C1301 1.390 . S
C1293 C1292 1.387 . S
C1293 C1295 1.387 . S
H1294 C1301 0.950 . S
C1295 C1293 1.387 . S
C1295 C1297 1.390 . S
C1295 H1299 0.950 . S
H1296 C1292 0.950 . S
C1297 C1295 1.390 . S
C1297 C1298 1.387 . S
C1297 H1300 0.950 . S
C1298 C1297 1.387 . S
C1298 C1301 1.387 . S
H1299 C1295 0.950 . S
H1300 C1297 0.950 . S
C1301 C1292 1.390 . S
C1301 H1294 0.950 . S
C1301 C1298 1.387 . S
C1302 C1303 1.355 1_455 S
C1302 H1306 0.950 . S
C1302 C1311 1.390 . S
C1303 C1302 1.355 1_655 S
C1303 C1305 1.421 . S
H1304 C1311 0.950 . S
C1305 C1303 1.421 . S
C1305 C1307 1.390 . S
C1305 H1309 0.950 . S
H1306 C1302 0.950 . S
C1307 C1305 1.390 . S
C1307 C1308 1.387 1_655 S
C1307 H1310 0.950 . S
C1308 C1307 1.387 1_455 S
C1308 C1311 1.387 . S
H1309 C1305 0.950 . S
H1310 C1307 0.950 . S
C1311 C1302 1.390 . S
C1311 H1304 0.950 . S
C1311 C1308 1.387 . S
C1312 C1313 1.387 . S
C1312 H1316 0.950 . S
C1312 C1321 1.390 . S
C1313 C1312 1.387 . S
C1313 C1315 1.387 . S
H1314 C1321 0.950 . S
C1315 C1313 1.387 . S
C1315 C1317 1.390 . S
C1315 H1319 0.950 . S
H1316 C1312 0.950 . S
C1317 C1315 1.390 . S
C1317 C1318 1.387 . S
C1317 H1320 0.950 . S
C1318 C1317 1.387 . S
C1318 C1321 1.387 . S
H1319 C1315 0.950 . S
H1320 C1317 0.950 . S
C1321 C1312 1.390 . S
C1321 H1314 0.950 . S
C1321 C1318 1.387 . S
C1322 C1323 1.387 . S
C1322 H1326 0.950 . S
C1322 C1331 1.390 . S
C1323 C1322 1.387 . S
C1323 C1325 1.387 . S
H1324 C1331 0.950 . S
C1325 C1323 1.387 . S
C1325 C1327 1.390 . S
C1325 H1329 0.950 . S
H1326 C1322 0.950 . S
C1327 C1325 1.390 . S
C1327 C1328 1.387 . S
C1327 H1330 0.950 . S
C1328 C1327 1.387 . S
C1328 C1331 1.387 . S
H1329 C1325 0.950 . S
H1330 C1327 0.950 . S
C1331 C1322 1.390 . S
C1331 H1324 0.950 . S
C1331 C1328 1.387 . S
C1332 C1333 1.387 1_545 S
C1332 H1336 0.950 . S
C1332 C1341 1.390 . S
C1333 C1332 1.387 1_565 S
C1333 C1335 1.388 . S
H1334 C1341 0.950 . S
C1335 C1333 1.388 . S
C1335 C1337 1.390 . S
C1335 H1339 0.950 . S
H1336 C1332 0.950 . S
C1337 C1335 1.390 . S
C1337 C1338 1.387 1_565 S
C1337 H1340 0.950 . S
C1338 C1337 1.387 1_545 S
C1338 C1341 1.387 . S
H1339 C1335 0.950 . S
H1340 C1337 0.950 . S
C1341 C1332 1.390 . S
C1341 H1334 0.950 . S
C1341 C1338 1.387 . S
C1342 C1343 1.387 . S
C1342 H1346 0.950 . S
C1342 C1351 1.390 . S
C1343 C1342 1.387 . S
C1343 C1345 1.387 . S
H1344 C1351 0.950 . S
C1345 C1343 1.387 . S
C1345 C1347 1.390 . S
C1345 H1349 0.950 . S
H1346 C1342 0.950 . S
C1347 C1345 1.390 . S
C1347 C1348 1.387 . S
C1347 H1350 0.950 . S
C1348 C1347 1.387 . S
C1348 C1351 1.387 . S
H1349 C1345 0.950 . S
H1350 C1347 0.950 . S
C1351 C1342 1.390 . S
C1351 H1344 0.950 . S
C1351 C1348 1.387 . S
C1352 C1353 1.387 . S
C1352 H1356 0.950 . S
C1352 C1361 1.390 . S
C1353 C1352 1.387 . S
C1353 C1355 1.387 . S
H1354 C1361 0.950 . S
C1355 C1353 1.387 . S
C1355 C1357 1.390 . S
C1355 H1359 0.950 . S
H1356 C1352 0.950 . S
C1357 C1355 1.390 . S
C1357 C1358 1.387 . S
C1357 H1360 0.950 . S
C1358 C1357 1.387 . S
C1358 C1361 1.387 . S
H1359 C1355 0.950 . S
H1360 C1357 0.950 . S
C1361 C1352 1.390 . S
C1361 H1354 0.950 . S
C1361 C1358 1.387 . S
C1362 C1363 1.387 . S
C1362 H1366 0.950 . S
C1362 C1371 1.390 . S
C1363 C1362 1.387 . S
C1363 C1365 1.387 . S
H1364 C1371 0.950 . S
C1365 C1363 1.387 . S
C1365 C1367 1.390 . S
C1365 H1369 0.950 . S
H1366 C1362 0.950 . S
C1367 C1365 1.390 . S
C1367 C1368 1.387 . S
C1367 H1370 0.950 . S
C1368 C1367 1.387 . S
C1368 C1371 1.387 . S
H1369 C1365 0.950 . S
H1370 C1367 0.950 . S
C1371 C1362 1.390 . S
C1371 H1364 0.950 . S
C1371 C1368 1.387 . S
C1372 C1373 1.387 . S
C1372 H1376 0.950 . S
C1372 C1381 1.390 . S
C1373 C1372 1.387 . S
C1373 C1375 1.387 . S
H1374 C1381 0.950 . S
C1375 C1373 1.387 . S
C1375 C1377 1.390 . S
C1375 H1379 0.950 . S
H1376 C1372 0.950 . S
C1377 C1375 1.390 . S
C1377 C1378 1.387 . S
C1377 H1380 0.950 . S
C1378 C1377 1.387 . S
C1378 C1381 1.387 . S
H1379 C1375 0.950 . S
H1380 C1377 0.950 . S
C1381 C1372 1.390 . S
C1381 H1374 0.950 . S
C1381 C1378 1.387 . S
C1382 C1383 1.387 . S
C1382 H1386 0.950 . S
C1382 C1391 1.390 . S
C1383 C1382 1.387 . S
C1383 C1385 1.387 . S
H1384 C1391 0.950 . S
C1385 C1383 1.387 . S
C1385 C1387 1.390 . S
C1385 H1389 0.950 . S
H1386 C1382 0.950 . S
C1387 C1385 1.390 . S
C1387 C1388 1.387 . S
C1387 H1390 0.950 . S
C1388 C1387 1.387 . S
C1388 C1391 1.387 . S
H1389 C1385 0.950 . S
H1390 C1387 0.950 . S
C1391 C1382 1.390 . S
C1391 H1384 0.950 . S
C1391 C1388 1.387 . S
C1392 C1393 1.387 . S
C1392 H1396 0.950 . S
C1392 C1401 1.390 . S
C1393 C1392 1.387 . S
C1393 C1395 1.387 . S
H1394 C1401 0.950 . S
C1395 C1393 1.387 . S
C1395 C1397 1.390 . S
C1395 H1399 0.950 . S
H1396 C1392 0.950 . S
C1397 C1395 1.390 . S
C1397 C1398 1.387 . S
C1397 H1400 0.950 . S
C1398 C1397 1.387 . S
C1398 C1401 1.387 . S
H1399 C1395 0.950 . S
H1400 C1397 0.950 . S
C1401 C1392 1.390 . S
C1401 H1394 0.950 . S
C1401 C1398 1.387 . S
C1402 C1403 1.387 . S
C1402 H1406 0.950 . S
C1402 C1411 1.390 . S
C1403 C1402 1.387 . S
C1403 C1405 1.387 . S
H1404 C1411 0.950 . S
C1405 C1403 1.387 . S
C1405 C1407 1.390 . S
C1405 H1409 0.950 . S
H1406 C1402 0.950 . S
C1407 C1405 1.390 . S
C1407 C1408 1.387 . S
C1407 H1410 0.950 . S
C1408 C1407 1.387 . S
C1408 C1411 1.387 . S
H1409 C1405 0.950 . S
H1410 C1407 0.950 . S
C1411 C1402 1.390 . S
C1411 H1404 0.950 . S
C1411 C1408 1.387 . S
C1412 C1413 1.387 . S
C1412 H1416 0.950 . S
C1412 C1421 1.390 . S
C1413 C1412 1.387 . S
C1413 C1415 1.387 . S
H1414 C1421 0.950 . S
C1415 C1413 1.387 . S
C1415 C1417 1.390 . S
C1415 H1419 0.950 . S
H1416 C1412 0.950 . S
C1417 C1415 1.390 . S
C1417 C1418 1.387 . S
C1417 H1420 0.950 . S
C1418 C1417 1.387 . S
C1418 C1421 1.387 . S
H1419 C1415 0.950 . S
H1420 C1417 0.950 . S
C1421 C1412 1.390 . S
C1421 H1414 0.950 . S
C1421 C1418 1.387 . S
C1063 C180 1.363 . S
C1068 C3 1.363 . S
C1073 C241 1.364 . S
C1078 C64 1.364 . S
C1083 C121 1.364 . S
C1088 C298 1.364 . S
C1093 C123 1.363 . S
C1098 C300 1.364 . S
C1103 C5 1.363 . S
C1108 C182 1.363 . S
C1113 C239 1.363 . S
C1118 C62 1.363 . S
C1123 C534 1.361 . S
C1128 C359 1.364 . S
C1133 C418 1.363 . S
C1138 C593 1.360 . S
C1143 C477 1.365 . S
C1148 C652 1.362 . S
C1153 C654 1.367 . S
C1158 C475 1.363 . S
C1163 C536 1.367 . S
C1168 C357 1.364 . S
C1173 C595 1.366 . S
C1178 C416 1.363 . S
C1183 C711 1.365 . S
C1188 C888 1.365 . S
C1193 C772 1.367 . S
C1198 C949 1.367 . S
C1203 C829 1.364 . S
C1208 C1006 1.364 . S
C1213 C1008 1.364 . S
C1218 C831 1.364 . S
C1223 C890 1.364 . S
C1228 C713 1.364 . S
C1233 C947 1.362 . S
C1238 C770 1.362 . S
C1243 C33 1.538 . S
C1248 C446 1.538 . S
C1253 C111 1.539 . S
C1258 C505 1.540 . S
C1263 C387 1.544 . S
C1268 C151 1.539 . S
C1273 C170 1.540 . S
C1278 C819 1.540 1_554 S
C1283 C859 1.561 1_554 S
C1288 C52 1.538 . S
C1293 C741 1.537 1_554 S
C1298 C92 1.537 . S
C1303 C977 1.535 . S
C1308 C210 1.537 . S
C1313 C288 1.539 . S
C1318 C1055 1.539 . S
C1323 C937 1.537 . S
C1328 C328 1.538 . S
C1333 C623 1.538 1_556 S
C1338 C347 1.537 . S
C1343 C229 1.538 . S
C1348 C682 1.539 1_556 S
C1353 C269 1.538 . S
C1358 C564 1.538 1_556 S
C1363 C406 1.536 . S
C1368 C800 1.537 . S
C1373 C465 1.539 . S
C1378 C878 1.539 . S
C1383 C524 1.538 . S
C1388 C760 1.538 . S
C1393 C996 1.541 . S
C1398 C701 1.540 . S
C1403 C1036 1.539 . S
C1408 C583 1.538 . S
C1413 C642 1.538 . S
C1418 C918 1.539 . S
