# Generated by pormake.
# Topology uoj, (4)-cn, num edge types: 1
# Building blocks:
#     Node 0, Type 0, BuildingBlock: KUFVIS_clean_sbu_0, # of connection points: 4
#     Node 1, Type 0, BuildingBlock: KUFVIS_clean_sbu_0, # of connection points: 4
#     Node 2, Type 0, BuildingBlock: KUFVIS_clean_sbu_0, # of connection points: 4
#     Node 3, Type 0, BuildingBlock: KUFVIS_clean_sbu_0, # of connection points: 4
#     Node 4, Type 0, BuildingBlock: KUFVIS_clean_sbu_0, # of connection points: 4
#     Node 5, Type 0, BuildingBlock: KUFVIS_clean_sbu_0, # of connection points: 4
#     Node 6, Type 0, BuildingBlock: KUFVIS_clean_sbu_0, # of connection points: 4
#     Node 7, Type 0, BuildingBlock: KUFVIS_clean_sbu_0, # of connection points: 4
#     Edge 8, Type (0, 0), BuildingBlock: ZUJKAS_clean_linker_0, # of connection points: 2
#     Edge 9, Type (0, 0), BuildingBlock: ZUJKAS_clean_linker_0, # of connection points: 2
#     Edge 10, Type (0, 0), BuildingBlock: ZUJKAS_clean_linker_0, # of connection points: 2
#     Edge 11, Type (0, 0), BuildingBlock: ZUJKAS_clean_linker_0, # of connection points: 2
#     Edge 12, Type (0, 0), BuildingBlock: ZUJKAS_clean_linker_0, # of connection points: 2
#     Edge 13, Type (0, 0), BuildingBlock: ZUJKAS_clean_linker_0, # of connection points: 2
#     Edge 14, Type (0, 0), BuildingBlock: ZUJKAS_clean_linker_0, # of connection points: 2
#     Edge 15, Type (0, 0), BuildingBlock: ZUJKAS_clean_linker_0, # of connection points: 2
#     Edge 16, Type (0, 0), BuildingBlock: ZUJKAS_clean_linker_0, # of connection points: 2
#     Edge 17, Type (0, 0), BuildingBlock: ZUJKAS_clean_linker_0, # of connection points: 2
#     Edge 18, Type (0, 0), BuildingBlock: ZUJKAS_clean_linker_0, # of connection points: 2
#     Edge 19, Type (0, 0), BuildingBlock: ZUJKAS_clean_linker_0, # of connection points: 2
#     Edge 20, Type (0, 0), BuildingBlock: ZUJKAS_clean_linker_0, # of connection points: 2
#     Edge 21, Type (0, 0), BuildingBlock: ZUJKAS_clean_linker_0, # of connection points: 2
#     Edge 22, Type (0, 0), BuildingBlock: ZUJKAS_clean_linker_0, # of connection points: 2
#     Edge 23, Type (0, 0), BuildingBlock: ZUJKAS_clean_linker_0, # of connection points: 2
# Relax obj value: 0.139
# Max RMSD: 0.162
# Mean RMSD: 0.162
data_MOF--net-uoj--node1-KUFVIS_clean_sbu_0--edge1-ZUJKAS_clean_linker_0
_symmetry_space_group_name_H-M    P1
_symmetry_Int_Tables_number       1
_symmetry_cell_setting            triclinic
loop_
_symmetry_equiv_pos_as_xyz
'x, y, z'
_cell_length_a     42.46276
_cell_length_b     42.465776
_cell_length_c     45.936073
_cell_angle_alpha  89.990417
_cell_angle_beta   89.991225
_cell_angle_gamma 90.040747
loop_
_atom_site_label
_atom_site_type_symbol
_atom_site_fract_x
_atom_site_fract_y
_atom_site_fract_z
_atom_type_partial_charge
Mn0 Mn 0.08202 0.2987 0.44053 0.0
Mn1 Mn 0.0834 0.313 0.51294 0.0
C2 C 0.06113 0.34474 0.4582 0.0
C3 C 0.10642 0.29933 0.39513 0.0
C4 C 0.0345 0.27155 0.48422 0.0
O5 O 0.11231 0.26583 0.4556 0.0
O6 O 0.11253 0.27784 0.50321 0.0
C7 C 0.14875 0.33719 0.51519 0.0
N8 N 0.11744 0.34134 0.52034 0.0
C9 C 0.12652 0.3929 0.54035 0.0
C10 C 0.15889 0.38913 0.5354 0.0
C11 C 0.17003 0.36119 0.52268 0.0
C12 C 0.10643 0.3683 0.53217 0.0
H13 H 0.1574 0.31574 0.50543 0.0
C14 C 0.12164 0.26119 0.48157 0.0
O15 O 0.08361 0.27994 0.40088 0.0
O16 O 0.11547 0.3179 0.41597 0.0
N17 N 0.05668 0.34613 0.52647 0.0
C18 C 0.02493 0.34548 0.53086 0.0
C19 C 0.01008 0.37134 0.54401 0.0
C20 C 0.02808 0.39728 0.55311 0.0
C21 C 0.06081 0.39712 0.54899 0.0
C22 C 0.0743 0.37062 0.53586 0.0
H23 H 0.01102 0.3254 0.52432 0.0
O24 O 0.05391 0.33481 0.43237 0.0
O25 O 0.08189 0.32831 0.47258 0.0
O26 O 0.04505 0.27445 0.45831 0.0
O27 O 0.04723 0.28459 0.5064 0.0
C28 C 0.08061 0.42204 0.55769 0.0
C29 C 0.11341 0.42005 0.55314 0.0
H30 H 0.17539 0.40753 0.54128 0.0
H31 H 0.19497 0.35813 0.51872 0.0
H32 H 0.98485 0.37119 0.54732 0.0
H33 H 0.01653 0.41704 0.56349 0.0
H34 H 0.07088 0.44285 0.56792 0.0
H35 H 0.12837 0.43943 0.55979 0.0
Mn36 Mn 0.30043 0.91249 0.56557 0.0
Mn37 Mn 0.31059 0.91562 0.49245 0.0
C38 C 0.3474 0.93093 0.54745 0.0
C39 C 0.30057 0.88477 0.60929 0.0
C40 C 0.27449 0.96484 0.52638 0.0
O41 O 0.26457 0.88615 0.55022 0.0
O42 O 0.27442 0.88758 0.50223 0.0
C43 C 0.3305 0.84953 0.48364 0.0
N44 N 0.33581 0.88092 0.48006 0.0
C45 C 0.3828 0.87101 0.45229 0.0
C46 C 0.37776 0.83855 0.45551 0.0
C47 C 0.35156 0.82778 0.47135 0.0
C48 C 0.36102 0.89155 0.46502 0.0
H49 H 0.31035 0.84121 0.49575 0.0
C50 C 0.25822 0.87839 0.52416 0.0
O51 O 0.28307 0.90947 0.60558 0.0
O52 O 0.31767 0.87579 0.58736 0.0
N53 N 0.34417 0.94159 0.47852 0.0
C54 C 0.34657 0.97359 0.47887 0.0
C55 C 0.37194 0.9882 0.46464 0.0
C56 C 0.39428 0.96983 0.44981 0.0
C57 C 0.39102 0.93696 0.44932 0.0
C58 C 0.36516 0.92373 0.46378 0.0
H59 H 0.32932 0.98786 0.49003 0.0
O60 O 0.3389 0.93668 0.57404 0.0
O61 O 0.32873 0.91279 0.53213 0.0
O62 O 0.27845 0.95272 0.55155 0.0
O63 O 0.28505 0.95251 0.50299 0.0
C64 C 0.41288 0.91676 0.43578 0.0
C65 C 0.40883 0.88381 0.43735 0.0
H66 H 0.39397 0.8217 0.4461 0.0
H67 H 0.34758 0.80277 0.47403 0.0
H68 H 0.37424 0.01358 0.46506 0.0
H69 H 0.41398 0.98118 0.43911 0.0
H70 H 0.43317 0.9263 0.42453 0.0
H71 H 0.42604 0.86851 0.42722 0.0
Mn72 Mn 0.91368 0.69912 0.43286 0.0
Mn73 Mn 0.91301 0.6801 0.5044 0.0
C74 C 0.93243 0.65101 0.44741 0.0
C75 C 0.88884 0.70273 0.38783 0.0
C76 C 0.96323 0.72106 0.47713 0.0
O77 O 0.88505 0.73208 0.45024 0.0
O78 O 0.88558 0.71735 0.49722 0.0
C79 C 0.84649 0.65934 0.50683 0.0
N80 N 0.87763 0.65324 0.51116 0.0
C81 C 0.86614 0.60115 0.52886 0.0
C82 C 0.83393 0.60694 0.52477 0.0
C83 C 0.82408 0.63613 0.51363 0.0
C84 C 0.88737 0.62514 0.52161 0.0
H85 H 0.83883 0.68172 0.49821 0.0
C86 C 0.87662 0.73559 0.47662 0.0
O87 O 0.91247 0.72074 0.39452 0.0
O88 O 0.87918 0.68312 0.4076 0.0
N89 N 0.93815 0.64472 0.51554 0.0
C90 C 0.97005 0.64302 0.51851 0.0
C91 C 0.98375 0.61538 0.52953 0.0
C92 C 0.96451 0.59003 0.53788 0.0
C93 C 0.93171 0.59262 0.53533 0.0
C94 C 0.9194 0.62082 0.52438 0.0
H95 H 0.98495 0.66253 0.51235 0.0
O96 O 0.94 0.66247 0.4222 0.0
O97 O 0.91278 0.66742 0.46313 0.0
O98 O 0.95192 0.72054 0.45139 0.0
O99 O 0.95052 0.70693 0.49874 0.0
C100 C 0.91078 0.56825 0.54302 0.0
C101 C 0.87802 0.57246 0.53967 0.0
H102 H 0.81658 0.58911 0.52999 0.0
H103 H 0.79928 0.64073 0.5103 0.0
H104 H 0.00907 0.61363 0.53159 0.0
H105 H 0.97514 0.56873 0.54632 0.0
H106 H 0.91963 0.54609 0.55136 0.0
H107 H 0.86216 0.55347 0.54546 0.0
Mn108 Mn 0.69585 0.08098 0.56958 0.0
Mn109 Mn 0.68586 0.07935 0.49638 0.0
C110 C 0.64888 0.06302 0.55102 0.0
C111 C 0.69578 0.10743 0.61398 0.0
C112 C 0.72174 0.02937 0.52947 0.0
O113 O 0.73174 0.1077 0.55481 0.0
O114 O 0.72223 0.10683 0.50675 0.0
C115 C 0.66653 0.14579 0.48876 0.0
N116 N 0.66099 0.11454 0.48455 0.0
C117 C 0.61432 0.12545 0.45665 0.0
C118 C 0.61961 0.15779 0.46052 0.0
C119 C 0.64576 0.16799 0.47674 0.0
C120 C 0.63582 0.10446 0.46915 0.0
H121 H 0.68666 0.15367 0.50115 0.0
C122 C 0.73834 0.11567 0.52885 0.0
O123 O 0.7133 0.08289 0.60955 0.0
O124 O 0.67857 0.11705 0.59234 0.0
N125 N 0.65214 0.05399 0.48182 0.0
C126 C 0.64953 0.022 0.48149 0.0
C127 C 0.62422 0.00792 0.46673 0.0
C128 C 0.60215 0.0268 0.4521 0.0
C129 C 0.60564 0.05965 0.45233 0.0
C130 C 0.63144 0.07235 0.46727 0.0
H131 H 0.66658 0.00735 0.49247 0.0
O132 O 0.65737 0.05657 0.57748 0.0
O133 O 0.66759 0.0815 0.53608 0.0
O134 O 0.7179 0.04114 0.55478 0.0
O135 O 0.71107 0.04202 0.50628 0.0
C136 C 0.58406 0.08034 0.43901 0.0
C137 C 0.58835 0.11321 0.44126 0.0
H138 H 0.60362 0.17499 0.45131 0.0
H139 H 0.64992 0.1929 0.47992 0.0
H140 H 0.62177 0.98256 0.46657 0.0
H141 H 0.5825 0.01585 0.44099 0.0
H142 H 0.56382 0.07122 0.4274 0.0
H143 H 0.57135 0.12888 0.43129 0.0
Mn144 Mn 0.40733 0.79705 0.94009 0.0
Mn145 Mn 0.41637 0.81256 0.01197 0.0
C146 C 0.4281 0.84468 0.95399 0.0
C147 C 0.3777 0.79533 0.89749 0.0
C148 C 0.46214 0.77294 0.97751 0.0
O149 O 0.38067 0.7636 0.95916 0.0
O150 O 0.38776 0.77581 0.00627 0.0
C151 C 0.35105 0.83313 0.0239 0.0
N152 N 0.38262 0.83864 0.02506 0.0
C153 C 0.37471 0.88748 0.05055 0.0
C154 C 0.3421 0.88225 0.04982 0.0
C155 C 0.33022 0.85501 0.03634 0.0
C156 C 0.39429 0.86481 0.03787 0.0
H157 H 0.34187 0.81219 0.01361 0.0
C158 C 0.3758 0.75877 0.98611 0.0
O159 O 0.40159 0.77684 0.90158 0.0
O160 O 0.37026 0.8142 0.91867 0.0
N161 N 0.44321 0.84706 0.02202 0.0
C162 C 0.47504 0.84962 0.01903 0.0
C163 C 0.49058 0.8761 0.0304 0.0
C164 C 0.47334 0.89936 0.04519 0.0
C165 C 0.44066 0.89597 0.04838 0.0
C166 C 0.42647 0.86904 0.03665 0.0
H167 H 0.48843 0.83169 0.00787 0.0
O168 O 0.43233 0.83376 0.92792 0.0
O169 O 0.41049 0.82785 0.9715 0.0
O170 O 0.44752 0.77455 0.95332 0.0
O171 O 0.45249 0.78626 1.00075 0.0
C172 C 0.42147 0.91875 0.0619 0.0
C173 C 0.38852 0.91455 0.06291 0.0
H174 H 0.32596 0.89912 0.0593 0.0
H175 H 0.30508 0.85088 0.03557 0.0
H176 H 0.51579 0.87858 0.0278 0.0
H177 H 0.48538 0.91989 0.0537 0.0
H178 H 0.43176 0.93987 0.07109 0.0
H179 H 0.37397 0.93247 0.07294 0.0
Mn180 Mn 0.80073 0.58799 0.06011 0.0
Mn181 Mn 0.81017 0.57697 0.98759 0.0
C182 C 0.84715 0.56702 0.04333 0.0
C183 C 0.80221 0.6197 0.10142 0.0
C184 C 0.77389 0.53193 0.02603 0.0
O185 O 0.76526 0.61338 0.04278 0.0
O186 O 0.77412 0.60587 0.9951 0.0
C187 C 0.83009 0.64187 0.97292 0.0
N188 N 0.83535 0.61026 0.97209 0.0
C189 C 0.88245 0.61733 0.94371 0.0
C190 C 0.87745 0.64997 0.94409 0.0
C191 C 0.85121 0.66229 0.95885 0.0
C192 C 0.86061 0.59817 0.95812 0.0
H193 H 0.80992 0.65138 0.98422 0.0
C194 C 0.75845 0.61788 0.01615 0.0
O195 O 0.78395 0.59525 0.09984 0.0
O196 O 0.81908 0.62627 0.07861 0.0
N197 N 0.84361 0.54969 0.97577 0.0
C198 C 0.84579 0.51782 0.97863 0.0
C199 C 0.87103 0.50181 0.96559 0.0
C200 C 0.89353 0.51864 0.94942 0.0
C201 C 0.89048 0.55136 0.94633 0.0
C202 C 0.86468 0.566 0.95964 0.0
H203 H 0.82844 0.50472 0.99084 0.0
O204 O 0.83878 0.56396 0.07033 0.0
O205 O 0.82866 0.58386 0.02666 0.0
O206 O 0.77778 0.54697 0.04982 0.0
O207 O 0.78471 0.54132 0.00159 0.0
C208 C 0.91243 0.57012 0.93118 0.0
C209 C 0.90847 0.60309 0.92996 0.0
H210 H 0.89371 0.66581 0.9333 0.0
H211 H 0.84727 0.68746 0.95935 0.0
H212 H 0.8731 0.47655 0.96793 0.0
H213 H 0.91315 0.50624 0.93966 0.0
H214 H 0.93269 0.55948 0.92077 0.0
H215 H 0.92574 0.6173 0.91859 0.0
Mn216 Mn 0.58788 0.19875 0.94398 0.0
Mn217 Mn 0.57797 0.18369 0.01583 0.0
C218 C 0.56637 0.15145 0.95788 0.0
C219 C 0.61836 0.19958 0.90184 0.0
C220 C 0.53288 0.22353 0.98075 0.0
O221 O 0.61455 0.23212 0.96316 0.0
O222 O 0.6072 0.21998 0.01026 0.0
C223 C 0.64286 0.1622 0.02838 0.0
N224 N 0.61121 0.15715 0.02928 0.0
C225 C 0.61816 0.10816 0.05477 0.0
C226 C 0.65085 0.11292 0.05431 0.0
C227 C 0.66324 0.14001 0.04097 0.0
C228 C 0.59903 0.13113 0.04195 0.0
H229 H 0.65244 0.18302 0.01818 0.0
C230 C 0.61943 0.23687 0.99011 0.0
O231 O 0.59456 0.21837 0.90523 0.0
O232 O 0.62519 0.18106 0.92344 0.0
N233 N 0.55052 0.14961 0.02575 0.0
C234 C 0.51868 0.14754 0.02254 0.0
C235 C 0.50266 0.12126 0.03376 0.0
C236 C 0.51943 0.09771 0.04862 0.0
C237 C 0.55212 0.10061 0.05205 0.0
C238 C 0.56681 0.12737 0.04047 0.0
H239 H 0.50565 0.16568 0.01132 0.0
O240 O 0.56276 0.16222 0.93168 0.0
O241 O 0.58395 0.16817 0.9755 0.0
O242 O 0.54759 0.22163 0.95659 0.0
O243 O 0.54238 0.21042 0.00415 0.0
C244 C 0.57085 0.07753 0.06567 0.0
C245 C 0.60385 0.08126 0.06697 0.0
H246 H 0.66665 0.09581 0.0639 0.0
H247 H 0.68845 0.14378 0.0404 0.0
H248 H 0.47744 0.11917 0.03098 0.0
H249 H 0.50702 0.07735 0.057 0.0
H250 H 0.56017 0.05654 0.07475 0.0
H251 H 0.61804 0.06311 0.07708 0.0
Mn252 Mn 0.19516 0.40882 0.06254 0.0
Mn253 Mn 0.18413 0.41724 0.98987 0.0
C254 C 0.14851 0.42958 0.04588 0.0
C255 C 0.19418 0.37933 0.10529 0.0
C256 C 0.2217 0.46329 0.02608 0.0
O257 O 0.2299 0.38214 0.04542 0.0
O258 O 0.22005 0.38837 0.99773 0.0
C259 C 0.16344 0.352 0.97761 0.0
N260 N 0.15843 0.38361 0.97584 0.0
C261 C 0.11096 0.37591 0.94815 0.0
C262 C 0.11569 0.34326 0.94951 0.0
C263 C 0.14198 0.33126 0.96441 0.0
C264 C 0.13312 0.3954 0.96173 0.0
H265 H 0.18367 0.34273 0.98899 0.0
C266 C 0.23604 0.37677 0.01877 0.0
O267 O 0.21283 0.40329 0.10214 0.0
O268 O 0.17672 0.37176 0.08314 0.0
N269 N 0.15068 0.44434 0.97773 0.0
C270 C 0.14877 0.4763 0.97967 0.0
C271 C 0.12352 0.49204 0.96636 0.0
C272 C 0.10072 0.47484 0.95092 0.0
C273 C 0.10348 0.44201 0.94879 0.0
C274 C 0.12931 0.42763 0.9623 0.0
H275 H 0.16635 0.48969 0.99131 0.0
O276 O 0.15762 0.43384 0.07254 0.0
O277 O 0.16645 0.41186 0.0295 0.0
O278 O 0.21838 0.44904 0.05033 0.0
O279 O 0.21011 0.45323 0.0022 0.0
C280 C 0.08123 0.4229 0.93444 0.0
C281 C 0.0849 0.38987 0.93421 0.0
H282 H 0.09918 0.32718 0.93939 0.0
H283 H 0.14573 0.30609 0.96566 0.0
H284 H 0.12169 0.5174 0.96794 0.0
H285 H 0.0811 0.48705 0.94096 0.0
H286 H 0.06094 0.43333 0.9239 0.0
H287 H 0.06739 0.3754 0.92346 0.0
H288 H 0.22758 0.39107 0.15475 0.0
H289 H 0.21722 0.37083 0.20357 0.0
H290 H 0.14265 0.31242 0.16971 0.0
H291 H 0.15294 0.33248 0.12059 0.0
H292 H 0.15711 0.37956 0.22982 0.0
H293 H 0.19124 0.25323 0.22625 0.0
H294 H 0.20591 0.2818 0.20041 0.0
H295 H 0.16656 0.2668 0.19701 0.0
C296 C 0.20938 0.37344 0.15753 0.0
C297 C 0.19095 0.36349 0.13382 0.0
C298 C 0.20351 0.3619 0.18546 0.0
C299 C 0.17931 0.34002 0.19021 0.0
C300 C 0.16177 0.32893 0.16642 0.0
H301 H 0.08678 0.26964 0.34553 0.0
H302 H 0.10601 0.27814 0.29588 0.0
C303 C 0.1676 0.34052 0.1384 0.0
C304 C 0.17024 0.3317 0.22037 0.0
H305 H 0.16453 0.27079 0.26864 0.0
C306 C 0.15892 0.35582 0.23839 0.0
C307 C 0.1723 0.30065 0.23128 0.0
C308 C 0.18487 0.27408 0.21288 0.0
C309 C 0.14925 0.34973 0.26701 0.0
C310 C 0.15173 0.31877 0.27817 0.0
C311 C 0.16288 0.29454 0.26008 0.0
C312 C 0.1423 0.31123 0.30845 0.0
C313 C 0.13568 0.37641 0.28475 0.0
C314 C 0.157 0.32626 0.33203 0.0
C315 C 0.14591 0.32167 0.36036 0.0
C316 C 0.12018 0.30164 0.36563 0.0
C317 C 0.10657 0.28532 0.34215 0.0
C318 C 0.11755 0.2901 0.31378 0.0
H319 H 0.12763 0.39615 0.27073 0.0
H320 H 0.11549 0.36825 0.29815 0.0
H321 H 0.15408 0.38567 0.29961 0.0
H322 H 0.1766 0.34212 0.32845 0.0
H323 H 0.15711 0.33432 0.37802 0.0
H324 H 0.33501 0.83265 0.62374 0.0
H325 H 0.34154 0.80949 0.67217 0.0
H326 H 0.2775 0.87824 0.7078 0.0
H327 H 0.27038 0.90108 0.65949 0.0
H328 H 0.36616 0.84084 0.71828 0.0
H329 H 0.24671 0.79833 0.7467 0.0
H330 H 0.25791 0.80826 0.70989 0.0
H331 H 0.24711 0.83872 0.73522 0.0
C332 C 0.32188 0.84247 0.6418 0.0
C333 C 0.30224 0.86873 0.63782 0.0
C334 C 0.32562 0.8292 0.66945 0.0
C335 C 0.30968 0.84186 0.69354 0.0
C336 C 0.28943 0.86757 0.68944 0.0
H337 H 0.33287 0.83732 0.87944 0.0
H338 H 0.31388 0.84517 0.82958 0.0
C339 C 0.28559 0.88078 0.66182 0.0
C340 C 0.31682 0.83047 0.72332 0.0
H341 H 0.28328 0.80361 0.78627 0.0
C342 C 0.3481 0.83227 0.733 0.0
C343 C 0.29316 0.81953 0.74256 0.0
C344 C 0.25939 0.81579 0.733 0.0
C345 C 0.35628 0.82433 0.76162 0.0
C346 C 0.33259 0.81386 0.78098 0.0
C347 C 0.30134 0.81165 0.7713 0.0
C348 C 0.34007 0.80607 0.8116 0.0
C349 C 0.39008 0.8282 0.77121 0.0
C350 C 0.36006 0.78077 0.81806 0.0
C351 C 0.37099 0.77628 0.84642 0.0
C352 C 0.36199 0.79697 0.86882 0.0
C353 C 0.34029 0.82106 0.86264 0.0
C354 C 0.32941 0.82556 0.83419 0.0
H355 H 0.40397 0.84256 0.75558 0.0
H356 H 0.39131 0.83949 0.79298 0.0
H357 H 0.40129 0.80466 0.77283 0.0
H358 H 0.36818 0.76523 0.80093 0.0
H359 H 0.38747 0.75733 0.85052 0.0
H360 H 0.84111 0.66589 0.36707 0.0
H361 H 0.82281 0.66184 0.31671 0.0
H362 H 0.88687 0.73577 0.29145 0.0
H363 H 0.90558 0.73982 0.34171 0.0
H364 H 0.79736 0.70757 0.27603 0.0
H365 H 0.9132 0.65853 0.24187 0.0
H366 H 0.90161 0.66124 0.27958 0.0
H367 H 0.91426 0.69582 0.26035 0.0
C368 C 0.85105 0.68156 0.35088 0.0
C369 C 0.87505 0.70293 0.35829 0.0
C370 C 0.84051 0.67926 0.32215 0.0
C371 C 0.85383 0.69819 0.30036 0.0
C372 C 0.87664 0.72065 0.30792 0.0
H373 H 0.84065 0.67009 0.11233 0.0
H374 H 0.85072 0.69504 0.15948 0.0
C375 C 0.88722 0.72297 0.33665 0.0
C376 C 0.84533 0.69281 0.26952 0.0
H377 H 0.87443 0.66353 0.20582 0.0
C378 C 0.81421 0.69819 0.26055 0.0
C379 C 0.86745 0.68062 0.24945 0.0
C380 C 0.90096 0.67345 0.25821 0.0
C381 C 0.80451 0.69135 0.23201 0.0
C382 C 0.82639 0.67822 0.21221 0.0
C383 C 0.85772 0.67372 0.221 0.0
C384 C 0.81701 0.66653 0.18306 0.0
C385 C 0.77094 0.6982 0.22337 0.0
C386 C 0.79445 0.64252 0.18061 0.0
C387 C 0.78861 0.62831 0.15374 0.0
C388 C 0.80547 0.63761 0.12884 0.0
C389 C 0.82727 0.66242 0.13111 0.0
C390 C 0.83305 0.67669 0.15802 0.0
H391 H 0.76068 0.71725 0.23696 0.0
H392 H 0.76929 0.70515 0.20011 0.0
H393 H 0.75648 0.67672 0.22668 0.0
H394 H 0.78234 0.63375 0.19972 0.0
H395 H 0.77175 0.60919 0.15275 0.0
H396 H 0.66747 0.16095 0.88759 0.0
H397 H 0.68879 0.1511 0.83894 0.0
H398 H 0.62649 0.22141 0.80329 0.0
H399 H 0.60553 0.2318 0.85181 0.0
H400 H 0.65242 0.12864 0.79489 0.0
H401 H 0.70778 0.24083 0.76054 0.0
H402 H 0.6983 0.23235 0.79807 0.0
H403 H 0.66819 0.24567 0.77343 0.0
C404 C 0.65886 0.17485 0.8695 0.0
C405 C 0.63473 0.19706 0.87352 0.0
C406 C 0.67105 0.16918 0.84172 0.0
C407 C 0.65944 0.18571 0.81751 0.0
C408 C 0.63632 0.20886 0.82169 0.0
H409 H 0.65767 0.15587 0.63157 0.0
H410 H 0.65154 0.17643 0.68113 0.0
C411 C 0.62419 0.21461 0.84946 0.0
C412 C 0.66859 0.17608 0.78766 0.0
H413 H 0.6969 0.2034 0.72274 0.0
C414 C 0.66256 0.14489 0.77925 0.0
C415 C 0.68149 0.19741 0.7672 0.0
C416 C 0.68961 0.23086 0.77531 0.0
C417 C 0.66833 0.1346 0.75077 0.0
C418 C 0.68092 0.15597 0.73023 0.0
C419 C 0.68724 0.18712 0.7386 0.0
C420 C 0.68716 0.1462 0.69986 0.0
C421 C 0.66002 0.10116 0.74263 0.0
C422 C 0.70984 0.12309 0.69394 0.0
C423 C 0.71332 0.11126 0.66578 0.0
C424 C 0.69427 0.12245 0.64298 0.0
C425 C 0.6726 0.1467 0.6487 0.0
C426 C 0.66911 0.15851 0.67695 0.0
H427 H 0.64431 0.08997 0.75899 0.0
H428 H 0.64824 0.10035 0.72106 0.0
H429 H 0.6819 0.08698 0.74123 0.0
H430 H 0.72428 0.11362 0.7113 0.0
H431 H 0.73042 0.09277 0.66205 0.0
H432 H 0.25462 0.0039 0.57042 0.0
H433 H 0.22913 0.05541 0.56547 0.0
H434 H 0.23195 0.04652 0.47202 0.0
H435 H 0.25712 0.99528 0.47655 0.0
H436 H 0.25358 0.10964 0.5337 0.0
H437 H 0.13874 0.06744 0.49104 0.0
H438 H 0.166 0.04198 0.50993 0.0
H439 H 0.1725 0.05189 0.47237 0.0
C440 C 0.24956 0.01276 0.54882 0.0
C441 C 0.2578 0.99533 0.5239 0.0
C442 C 0.23512 0.04221 0.54606 0.0
C443 C 0.22842 0.05448 0.5184 0.0
C444 C 0.23653 0.03718 0.49356 0.0
H445 H 0.14563 0.2192 0.44213 0.0
H446 H 0.17403 0.17052 0.45244 0.0
C447 C 0.25102 0.0079 0.49624 0.0
C448 C 0.21361 0.08573 0.51518 0.0
H449 H 0.14899 0.12231 0.48703 0.0
C450 C 0.23058 0.11251 0.52378 0.0
C451 C 0.18368 0.08921 0.50216 0.0
C452 C 0.16398 0.06111 0.49355 0.0
C453 C 0.21877 0.14291 0.51877 0.0
C454 C 0.18908 0.14637 0.50523 0.0
C455 C 0.17188 0.11952 0.49719 0.0
C456 C 0.17517 0.17757 0.49907 0.0
C457 C 0.23853 0.17103 0.52714 0.0
C458 C 0.16688 0.19786 0.52188 0.0
C459 C 0.15069 0.2258 0.51609 0.0
C460 C 0.14225 0.23377 0.48737 0.0
C461 C 0.15163 0.21383 0.4645 0.0
C462 C 0.16784 0.18596 0.47033 0.0
H463 H 0.26356 0.1645 0.53074 0.0
H464 H 0.23744 0.18952 0.51007 0.0
H465 H 0.22928 0.18122 0.54767 0.0
H466 H 0.17189 0.19155 0.54425 0.0
H467 H 0.14384 0.24054 0.53426 0.0
H468 H 0.23139 0.86268 0.47181 0.0
H469 H 0.18162 0.83497 0.46385 0.0
H470 H 0.171 0.82227 0.55645 0.0
H471 H 0.22035 0.85027 0.56477 0.0
H472 H 0.16153 0.77441 0.47978 0.0
H473 H 0.08943 0.86697 0.53309 0.0
H474 H 0.12999 0.87319 0.52282 0.0
H475 H 0.12058 0.85177 0.55546 0.0
C476 C 0.2186 0.85386 0.49051 0.0
C477 C 0.22972 0.85908 0.51896 0.0
C478 C 0.19016 0.83804 0.48589 0.0
C479 C 0.17237 0.82722 0.5096 0.0
C480 C 0.18403 0.83114 0.53791 0.0
H481 H 0.9943 0.73024 0.52876 0.0
H482 H 0.04529 0.75576 0.53616 0.0
C483 C 0.21236 0.84703 0.54258 0.0
C484 C 0.14137 0.81223 0.50479 0.0
H485 H 0.06307 0.81967 0.52023 0.0
C486 C 0.13997 0.78434 0.48849 0.0
C487 C 0.11333 0.82537 0.51616 0.0
C488 C 0.11324 0.85613 0.53263 0.0
C489 C 0.11124 0.76884 0.48372 0.0
C490 C 0.08328 0.78187 0.49529 0.0
C491 C 0.08465 0.80977 0.51152 0.0
C492 C 0.05229 0.7669 0.49069 0.0
C493 C 0.11101 0.73837 0.46684 0.0
C494 C 0.03921 0.76533 0.46272 0.0
C495 C 0.01002 0.75092 0.45837 0.0
C496 C 0.99338 0.73783 0.48197 0.0
C497 C 0.00643 0.73999 0.51008 0.0
C498 C 0.03557 0.75453 0.51438 0.0
H499 H 0.13498 0.72811 0.46483 0.0
H500 H 0.09533 0.72083 0.47741 0.0
H501 H 0.10187 0.74284 0.44459 0.0
H502 H 0.05161 0.77524 0.44425 0.0
H503 H 0.00072 0.74976 0.43645 0.0
H504 H 0.74311 0.99049 0.57304 0.0
H505 H 0.7696 0.93957 0.56753 0.0
H506 H 0.76441 0.94847 0.47417 0.0
H507 H 0.7382 -0.00085 0.47925 0.0
H508 H 0.74595 0.88469 0.53613 0.0
H509 H 0.85863 0.93017 0.49148 0.0
H510 H 0.8311 0.9548 0.51096 0.0
H511 H 0.82411 0.94491 0.47348 0.0
C512 C 0.74781 0.98174 0.55133 0.0
C513 C 0.73865 -0.00095 0.5266 0.0
C514 C 0.76284 0.95263 0.54826 0.0
C515 C 0.76921 0.94057 0.52046 0.0
C516 C 0.7601 0.95768 0.4958 0.0
H517 H 0.85147 0.77917 0.4394 0.0
H518 H 0.82366 0.8275 0.45207 0.0
C519 C 0.74501 0.98663 0.4988 0.0
C520 C 0.78482 0.90976 0.5169 0.0
H521 H 0.84958 0.87508 0.48702 0.0
C522 C 0.76877 0.88248 0.52571 0.0
C523 C 0.81453 0.90715 0.50328 0.0
C524 C 0.83329 0.93581 0.49447 0.0
C525 C 0.78119 0.85244 0.52017 0.0
C526 C 0.81056 0.84985 0.50588 0.0
C527 C 0.82693 0.87719 0.49777 0.0
C528 C 0.82469 0.81907 0.4985 0.0
C529 C 0.76233 0.82375 0.52868 0.0
C530 C 0.83411 0.79815 0.52045 0.0
C531 C 0.84998 0.77039 0.51331 0.0
C532 C 0.85695 0.76323 0.48408 0.0
C533 C 0.84663 0.78391 0.46213 0.0
C534 C 0.83075 0.81158 0.46931 0.0
H535 H 0.73737 0.82969 0.53339 0.0
H536 H 0.76299 0.80574 0.51117 0.0
H537 H 0.7727 0.8132 0.54858 0.0
H538 H 0.83008 0.80377 0.54315 0.0
H539 H 0.85761 0.75507 0.53079 0.0
H540 H 0.76488 0.13255 0.47668 0.0
H541 H 0.8152 0.1593 0.46894 0.0
H542 H 0.8272 0.16875 0.56173 0.0
H543 H 0.77725 0.14171 0.56983 0.0
H544 H 0.83683 0.21891 0.48646 0.0
H545 H 0.90744 0.12284 0.53605 0.0
H546 H 0.86664 0.11791 0.52601 0.0
H547 H 0.87687 0.13792 0.55918 0.0
C548 C 0.77809 0.14047 0.49548 0.0
C549 C 0.76715 0.13461 0.5239 0.0
C550 C 0.80684 0.15573 0.49099 0.0
C551 C 0.82516 0.16533 0.51478 0.0
C552 C 0.81372 0.16081 0.5431 0.0
H553 H 0.00457 0.25858 0.53572 0.0
H554 H 0.9538 0.23247 0.54244 0.0
C555 C 0.78506 0.14549 0.54765 0.0
C556 C 0.85644 0.17974 0.51003 0.0
H557 H 0.93474 0.16996 0.52429 0.0
C558 C 0.85827 0.20818 0.49458 0.0
C559 C 0.88432 0.16554 0.52062 0.0
C560 C 0.88389 0.13422 0.53616 0.0
C561 C 0.88728 0.2232 0.48997 0.0
C562 C 0.91509 0.20912 0.50078 0.0
C563 C 0.91329 0.18064 0.51612 0.0
C564 C 0.9463 0.22378 0.49658 0.0
C565 C 0.88794 0.25433 0.47414 0.0
C566 C 0.95911 0.22681 0.4686 0.0
C567 C 0.98817 0.2416 0.46463 0.0
C568 C 0.00494 0.25362 0.48862 0.0
C569 C 0.99232 0.24971 0.51673 0.0
C570 C 0.9633 0.23482 0.52065 0.0
H571 H 0.86418 0.26516 0.47277 0.0
H572 H 0.90413 0.2711 0.48512 0.0
H573 H 0.89669 0.25058 0.45164 0.0
H574 H 0.9465 0.21792 0.44982 0.0
H575 H 0.99716 0.24408 0.44268 0.0
H576 H 0.24776 0.49549 0.07209 0.0
H577 H 0.27174 0.54797 0.07117 0.0
H578 H 0.25728 0.55288 0.97839 0.0
H579 H 0.23315 0.50087 0.97895 0.0
H580 H 0.32452 0.57007 0.03886 0.0
H581 H 0.21517 0.63358 0.00917 0.0
H582 H 0.21499 0.59381 0.02314 0.0
H583 H 0.22379 0.60113 0.98543 0.0
C584 C 0.24977 0.50767 0.05146 0.0
C585 C 0.23831 0.49398 0.02562 0.0
C586 C 0.26342 0.53766 0.05101 0.0
C587 C 0.26561 0.55447 0.02482 0.0
C588 C 0.2551 0.54054 0.99893 0.0
H589 H 0.34371 0.71872 0.95012 0.0
H590 H 0.3158 0.67065 0.96345 0.0
C591 C 0.24151 0.51066 0.99931 0.0
C592 C 0.2793 0.58646 0.02413 0.0
H593 H 0.26357 0.66171 0.00258 0.0
C594 C 0.31115 0.59028 0.03141 0.0
C595 C 0.26164 0.61269 0.01452 0.0
C596 C 0.22692 0.61024 0.00788 0.0
C597 C 0.3263 0.61939 0.02774 0.0
C598 C 0.30893 0.64528 0.01693 0.0
C599 C 0.27679 0.64173 0.01077 0.0
C600 C 0.32426 0.6755 0.00965 0.0
C601 C 0.36109 0.62188 0.03408 0.0
C602 C 0.33759 0.69449 0.03137 0.0
C603 C 0.35362 0.7221 0.02386 0.0
C604 C 0.35654 0.73111 0.99448 0.0
C605 C 0.34214 0.71246 0.97293 0.0
C606 C 0.32611 0.68498 0.98048 0.0
H607 H 0.37208 0.59844 0.03759 0.0
H608 H 0.37349 0.63389 0.01591 0.0
H609 H 0.36463 0.63614 0.05405 0.0
H610 H 0.33594 0.68775 0.05406 0.0
H611 H 0.36426 0.73596 0.04103 0.0
H612 H 0.71987 0.64881 0.05431 0.0
H613 H 0.67006 0.67489 0.04367 0.0
H614 H 0.68191 0.65506 0.95229 0.0
H615 H 0.73211 0.62905 0.96256 0.0
H616 H 0.65974 0.71728 0.96529 0.0
H617 H 0.5904 0.62451 0.02131 0.0
H618 H 0.62124 0.64109 0.04323 0.0
H619 H 0.63108 0.61914 0.01102 0.0
C620 C 0.7121 0.65011 0.03188 0.0
C621 C 0.72987 0.63645 0.00933 0.0
C622 C 0.68354 0.66493 0.02589 0.0
C623 C 0.67209 0.66624 0.9973 0.0
C624 C 0.69031 0.65398 0.97453 0.0
H625 H 0.49444 0.74522 0.93247 0.0
H626 H 0.54542 0.7184 0.93486 0.0
C627 C 0.71898 0.63914 0.98048 0.0
C628 C 0.64069 0.67979 0.99147 0.0
H629 H 0.56302 0.67156 0.00889 0.0
C630 C 0.6385 0.70717 0.9745 0.0
C631 C 0.6131 0.6663 0.00341 0.0
C632 C 0.61391 0.63597 0.02053 0.0
C633 C 0.60945 0.72226 0.97024 0.0
C634 C 0.58206 0.70929 0.983 0.0
C635 C 0.58416 0.68143 0.99925 0.0
C636 C 0.55122 0.72519 0.98121 0.0
C637 C 0.60839 0.75255 0.9531 0.0
C638 C 0.53746 0.73721 0.0066 0.0
C639 C 0.50841 0.75241 0.00539 0.0
C640 C 0.4924 0.75569 0.97873 0.0
C641 C 0.5061 0.74314 0.95335 0.0
C642 C 0.5353 0.72799 0.9546 0.0
H643 H 0.63229 0.76219 0.94893 0.0
H644 H 0.59685 0.74815 0.93181 0.0
H645 H 0.5943 0.77055 0.96484 0.0
H646 H 0.54941 0.73511 0.02735 0.0
H647 H 0.49863 0.76172 0.02539 0.0
H648 H 0.76055 0.49343 0.98003 0.0
H649 H 0.73604 0.44161 0.98112 0.0
H650 H 0.72578 0.44813 0.0743 0.0
H651 H 0.75013 0.50044 0.07355 0.0
H652 H 0.75841 0.38835 0.01272 0.0
H653 H 0.63685 0.42323 0.04502 0.0
H654 H 0.66497 0.45118 0.03079 0.0
H655 H 0.66859 0.43723 0.0675 0.0
C656 C 0.75289 0.48411 1.00081 0.0
C657 C 0.75729 0.50124 0.02672 0.0
C658 C 0.73895 0.4544 0.00135 0.0
C659 C 0.72898 0.44119 0.02774 0.0
C660 C 0.73298 0.45817 0.05367 0.0
H661 H 0.62954 0.26078 0.04485 0.0
H662 H 0.65902 0.30834 0.05777 0.0
C663 C 0.74696 0.48801 0.05317 0.0
C664 C 0.71516 0.40925 0.02777 0.0
H665 H 0.64598 0.36942 0.03638 0.0
C666 C 0.7339 0.38411 0.01815 0.0
C667 C 0.68329 0.40386 0.03511 0.0
C668 C 0.66206 0.43024 0.04502 0.0
C669 C 0.72134 0.3538 0.01483 0.0
C670 C 0.68911 0.3487 0.02088 0.0
C671 C 0.6707 0.3735 0.03175 0.0
C672 C 0.67338 0.31865 0.01362 0.0
C673 C 0.74255 0.3276 0.0045 0.0
C674 C 0.67178 0.3088 0.98453 0.0
C675 C 0.65497 0.28178 0.97704 0.0
C676 C 0.63924 0.26412 0.9985 0.0
C677 C 0.64142 0.27375 0.02777 0.0
C678 C 0.65819 0.30093 0.03522 0.0
H679 H 0.76766 0.33271 0.00938 0.0
H680 H 0.73604 0.30481 0.01474 0.0
H681 H 0.74016 0.32509 0.98056 0.0
H682 H 0.68286 0.32251 0.96747 0.0
H683 H 0.65382 0.27512 0.9543 0.0
H684 H 0.49656 0.23555 0.02854 0.0
H685 H 0.44459 0.25961 0.03001 0.0
H686 H 0.44717 0.2731 0.93701 0.0
H687 H 0.49967 0.24925 0.9352 0.0
H688 H 0.42552 0.32581 0.96851 0.0
H689 H 0.36336 0.21698 0.00225 0.0
H690 H 0.39614 0.22653 0.02528 0.0
H691 H 0.40288 0.21665 0.98771 0.0
C692 C 0.48626 0.24367 0.00832 0.0
C693 C 0.50229 0.24024 0.98169 0.0
C694 C 0.4564 0.25723 0.00922 0.0
C695 C 0.4418 0.26741 0.98355 0.0
C696 C 0.458 0.26503 0.95702 0.0
H697 H 0.25964 0.36252 0.96477 0.0
H698 H 0.30837 0.33443 0.95352 0.0
C699 C 0.488 0.25148 0.95606 0.0
C700 C 0.40978 0.28095 0.98476 0.0
H701 H 0.33503 0.26532 0.00799 0.0
C702 C 0.40559 0.31253 0.97672 0.0
C703 C 0.38388 0.26342 0.9954 0.0
C704 C 0.38665 0.22892 0.00288 0.0
C705 C 0.37642 0.32753 0.98039 0.0
C706 C 0.35085 0.31028 0.99204 0.0
C707 C 0.35478 0.27844 0.99919 0.0
C708 C 0.32033 0.3254 0.9985 0.0
C709 C 0.37351 0.36203 0.97297 0.0
C710 C 0.31051 0.32862 0.02748 0.0
C711 C 0.28267 0.34456 0.03405 0.0
C712 C 0.26406 0.35747 0.01169 0.0
C713 C 0.27346 0.3531 0.98256 0.0
C714 C 0.30136 0.33718 0.97605 0.0
H715 H 0.39683 0.37321 0.96924 0.0
H716 H 0.35935 0.36463 0.95282 0.0
H717 H 0.36122 0.37491 0.99067 0.0
H718 H 0.32482 0.31947 0.04508 0.0
H719 H 0.27613 0.3473 0.0567 0.0
H720 H 0.99293 0.63213 0.44837 0.0
H721 H 0.01279 0.57877 0.4573 0.0
H722 H 0.91774 0.54604 0.47118 0.0
H723 H 0.89783 0.5995 0.46191 0.0
H724 H 0.00414 0.53823 0.50751 0.0
H725 H 0.95376 0.48984 0.40504 0.0
H726 H 0.95793 0.53158 0.41139 0.0
H727 H 0.92665 0.51003 0.42859 0.0
C728 C 0.97642 0.61351 0.45366 0.0
C729 C 0.94406 0.61977 0.45542 0.0
C730 C 0.98772 0.5832 0.45877 0.0
C731 C 0.96671 0.55861 0.46488 0.0
C732 C 0.93427 0.56478 0.46639 0.0
H733 H -0.00043 0.3578 0.46452 0.0
H734 H 0.97578 0.40955 0.47236 0.0
C735 C 0.92297 0.59521 0.46142 0.0
C736 C 0.97887 0.52631 0.46844 0.0
H737 H 0.98085 0.45462 0.43535 0.0
C738 C -0.00114 0.51976 0.49196 0.0
C739 C 0.9721 0.50253 0.44791 0.0
C740 C 0.95165 0.50873 0.42165 0.0
C741 C 0.0121 0.48976 0.49571 0.0
C742 C 0.00572 0.46598 0.47493 0.0
C743 C 0.98554 0.47268 0.45147 0.0
C744 C 0.02027 0.43422 0.4761 0.0
C745 C 0.03229 0.48386 0.5221 0.0
C746 C 0.05321 0.43063 0.47646 0.0
C747 C 0.06674 0.40087 0.47276 0.0
C748 C 0.04752 0.37445 0.46835 0.0
C749 C 0.01472 0.3779 0.46848 0.0
C750 C 0.00119 0.40741 0.47286 0.0
H751 H 0.0264 0.50029 0.54013 0.0
H752 H 0.02935 0.45943 0.52998 0.0
H753 H 0.0574 0.48757 0.51635 0.0
H754 H 0.0685 0.45096 0.47795 0.0
H755 H 0.09215 0.39874 0.47176 0.0
H756 H 0.62531 0.0059 0.56325 0.0
H757 H 0.57401 0.98511 0.55102 0.0
H758 H 0.55383 0.06935 0.50148 0.0
H759 H 0.60272 0.09257 0.5195 0.0
H760 H 0.50504 0.05541 0.51446 0.0
H761 H 0.54389 0.93765 0.48794 0.0
H762 H 0.55738 0.94169 0.52449 0.0
H763 H 0.5725 0.96754 0.49625 0.0
C764 C 0.60991 0.01986 0.54957 0.0
C765 C 0.61887 0.05004 0.54045 0.0
C766 C 0.58069 0.00757 0.54187 0.0
C767 C 0.56033 0.02426 0.52327 0.0
C768 C 0.56893 0.05515 0.51515 0.0
H769 H 0.39398 0.90232 0.51569 0.0
H770 H 0.44307 0.92609 0.49874 0.0
C771 C 0.5974 0.06828 0.52466 0.0
C772 C 0.5291 0.01042 0.51504 0.0
H773 H 0.49154 0.93969 0.51324 0.0
C774 C 0.50251 0.03007 0.51324 0.0
C775 C 0.52463 0.97756 0.51104 0.0
C776 C 0.55132 0.95516 0.50456 0.0
C777 C 0.47206 0.0176 0.51068 0.0
C778 C 0.46748 0.98466 0.51397 0.0
C779 C 0.49411 0.96505 0.51254 0.0
C780 C 0.43604 0.97068 0.52124 0.0
C781 C 0.44556 0.04012 0.50388 0.0
C782 C 0.41526 0.98696 0.53975 0.0
C783 C 0.38598 0.9744 0.54684 0.0
C784 C 0.37734 0.94434 0.53718 0.0
C785 C 0.3991 0.92653 0.52131 0.0
C786 C 0.42766 0.93996 0.51241 0.0
H787 H 0.45348 0.05794 0.48775 0.0
H788 H 0.42464 0.02789 0.49484 0.0
H789 H 0.43889 0.0532 0.52386 0.0
H790 H 0.42169 0.00927 0.54937 0.0
H791 H 0.37031 0.98802 0.56056 0.0
H792 H 0.59202 0.1028 0.98914 0.0
H793 H 0.56709 0.05249 1.00066 0.0
H794 H 0.48954 0.07699 0.94387 0.0
H795 H 0.51094 0.12946 0.93863 0.0
H796 H 0.465 0.04712 0.97881 0.0
H797 H 0.57246 0.9759 0.96098 0.0
H798 H 0.57698 0.00072 0.99206 0.0
H799 H 0.57289 0.01775 0.95607 0.0
C800 C 0.56874 0.09785 0.98077 0.0
C801 C 0.55238 0.12067 0.96483 0.0
C802 C 0.55503 0.06843 0.98616 0.0
C803 C 0.52639 0.05994 0.97277 0.0
C804 C 0.51111 0.08254 0.95534 0.0
H805 H 0.48327 0.86795 0.93516 0.0
H806 H 0.50397 0.9206 0.94148 0.0
C807 C 0.52357 0.11262 0.95197 0.0
C808 C 0.51199 0.02792 0.97615 0.0
H809 H 0.52766 0.94923 0.97781 0.0
C810 C 0.47891 0.02577 0.97745 0.0
C811 C 0.52966 -0.00044 0.97538 0.0
C812 C 0.56488 -0.00139 0.97075 0.0
C813 C 0.46309 0.99692 0.97458 0.0
C814 C 0.48075 0.96855 0.97474 0.0
C815 C 0.51378 0.97063 0.97686 0.0
C816 C 0.46645 0.93666 0.97013 0.0
C817 C 0.42801 -0.00193 0.96919 0.0
C818 C 0.43759 0.92768 0.98281 0.0
C819 C 0.42437 0.89818 0.97684 0.0
C820 C 0.44135 0.87579 0.96096 0.0
C821 C 0.47019 0.88443 0.94849 0.0
C822 C 0.48223 0.9146 0.95248 0.0
H823 H 0.42072 0.0211 0.95989 0.0
H824 H 0.42036 0.97943 0.95383 0.0
H825 H 0.41534 0.9953 0.99016 0.0
H826 H 0.42508 0.94321 0.99738 0.0
H827 H 0.40105 0.89277 0.98488 0.0
H828 H 0.10161 0.40222 0.01384 0.0
H829 H 0.05233 0.42652 0.99816 0.0
H830 H 0.07413 0.50785 0.05114 0.0
H831 H 0.12559 0.48603 0.0616 0.0
H832 H 0.00404 0.43969 0.01498 0.0
H833 H 0.04391 0.55806 0.9894 0.0
H834 H 0.0721 0.52749 0.9966 0.0
H835 H 0.05749 0.5523 0.02575 0.0
C836 C 0.09648 0.42613 0.02042 0.0
C837 C 0.11835 0.44335 0.03674 0.0
C838 C 0.06787 0.43984 0.0122 0.0
C839 C 0.05964 0.47021 0.02201 0.0
C840 C 0.08049 0.48582 0.04096 0.0
H841 H 0.86962 0.51089 0.06018 0.0
H842 H 0.92095 0.48854 0.05033 0.0
C843 C 0.10978 0.47296 0.04755 0.0
C844 C 0.02838 0.4845 0.01491 0.0
H845 H 0.99128 0.55549 0.01305 0.0
C846 C 0.00162 0.46503 0.0136 0.0
C847 C 0.0242 0.51743 0.01121 0.0
C848 C 0.05113 0.53978 0.00537 0.0
C849 C 0.97123 0.47765 0.01128 0.0
C850 C 0.96698 0.51068 0.01387 0.0
C851 C 0.99376 0.53012 0.0125 0.0
C852 C 0.93561 0.52514 0.02016 0.0
C853 C 0.94441 0.45513 0.00558 0.0
C854 C 0.92744 0.55513 0.00933 0.0
C855 C 0.89885 0.5692 0.01712 0.0
C856 C 0.87699 0.55269 0.03408 0.0
C857 C 0.88544 0.52339 0.04569 0.0
C858 C 0.91466 0.51022 0.03947 0.0
H859 H 0.95195 0.43636 0.99024 0.0
H860 H 0.93762 0.44326 0.02617 0.0
H861 H 0.92363 0.46715 0.99611 0.0
H862 H 0.94307 0.56789 0.99493 0.0
H863 H 0.89379 0.59289 0.00981 0.0
loop_
_geom_bond_atom_site_label_1
_geom_bond_atom_site_label_2
_geom_bond_distance
_geom_bond_site_symmetry_2
_ccdc_geom_bond_type
Mn0 O5 2.095 . S
Mn0 O15 2.162 . S
Mn0 O16 2.297 . S
Mn0 O24 2.385 . S
Mn0 O25 2.209 . S
Mn0 O26 2.094 . S
Mn1 O6 2.121 . S
Mn1 N8 2.257 . S
Mn1 N17 2.282 . S
Mn1 O25 2.215 . S
Mn1 O27 2.117 . S
C2 O24 1.234 . S
C2 O25 1.283 . S
C3 O15 1.281 . S
C3 O16 1.236 . S
C4 O26 1.240 . S
C4 O27 1.264 . S
O5 Mn0 2.095 . S
O5 C14 1.250 . S
O6 Mn1 2.121 . S
O6 C14 1.258 . S
C7 N8 1.326 . S
C7 C11 1.460 . S
C7 H13 0.929 . S
N8 Mn1 2.257 . S
N8 C7 1.326 . S
N8 C12 1.362 . S
C9 C10 1.258 . S
C9 C12 1.431 . S
C9 C29 1.449 . S
C10 C9 1.258 . S
C10 C11 1.477 . S
C10 H30 0.931 . S
C11 C7 1.460 . S
C11 C10 1.477 . S
C11 H31 0.930 . S
C12 N8 1.362 . S
C12 C9 1.431 . S
C12 C22 1.476 . S
H13 C7 0.929 . S
C14 O5 1.250 . S
C14 O6 1.258 . S
O15 Mn0 2.162 . S
O15 C3 1.281 . S
O16 Mn0 2.297 . S
O16 C3 1.236 . S
N17 Mn1 2.282 . S
N17 C18 1.328 1_455 S
N17 C22 1.318 . S
C18 N17 1.328 1_655 S
C18 C19 1.457 . S
C18 H23 0.929 . S
C19 C18 1.457 . S
C19 C20 1.291 . S
C19 H32 0.931 . S
C20 C19 1.291 . S
C20 C21 1.373 1_655 S
C20 H33 0.929 . S
C21 C20 1.373 1_455 S
C21 C22 1.396 . S
C21 C28 1.403 . S
C22 C12 1.476 . S
C22 N17 1.318 . S
C22 C21 1.396 . S
H23 C18 0.929 . S
O24 Mn0 2.385 . S
O24 C2 1.234 . S
O25 Mn0 2.209 . S
O25 Mn1 2.215 . S
O25 C2 1.283 . S
O26 Mn0 2.094 . S
O26 C4 1.240 . S
O27 Mn1 2.117 . S
O27 C4 1.264 . S
C28 C21 1.403 . S
C28 C29 1.399 . S
C28 H34 0.929 . S
C29 C9 1.449 . S
C29 C28 1.399 . S
C29 H35 0.930 . S
H30 C10 0.931 . S
H31 C11 0.930 . S
H32 C19 0.931 . S
H33 C20 0.929 . S
H34 C28 0.929 . S
H35 C29 0.930 . S
Mn36 O41 2.095 . S
Mn36 O51 2.162 . S
Mn36 O52 2.297 . S
Mn36 O60 2.385 . S
Mn36 O61 2.209 . S
Mn36 O62 2.094 . S
Mn37 O42 2.121 . S
Mn37 N44 2.257 . S
Mn37 N53 2.282 . S
Mn37 O61 2.215 . S
Mn37 O63 2.117 . S
C38 O60 1.234 . S
C38 O61 1.283 . S
C39 O51 1.281 . S
C39 O52 1.236 . S
C40 O62 1.240 . S
C40 O63 1.264 . S
O41 Mn36 2.095 . S
O41 C50 1.250 . S
O42 Mn37 2.121 . S
O42 C50 1.258 . S
C43 N44 1.326 . S
C43 C47 1.460 . S
C43 H49 0.929 . S
N44 Mn37 2.257 . S
N44 C43 1.326 . S
N44 C48 1.362 . S
C45 C46 1.258 . S
C45 C48 1.431 . S
C45 C65 1.449 . S
C46 C45 1.258 . S
C46 C47 1.477 . S
C46 H66 0.931 . S
C47 C43 1.460 . S
C47 C46 1.477 . S
C47 H67 0.930 . S
C48 N44 1.362 . S
C48 C45 1.431 . S
C48 C58 1.476 . S
H49 C43 0.929 . S
C50 O41 1.250 . S
C50 O42 1.258 . S
O51 Mn36 2.162 . S
O51 C39 1.281 . S
O52 Mn36 2.297 . S
O52 C39 1.236 . S
N53 Mn37 2.282 . S
N53 C54 1.328 1_565 S
N53 C58 1.318 . S
C54 N53 1.328 1_545 S
C54 C55 1.457 . S
C54 H59 0.929 . S
C55 C54 1.457 . S
C55 C56 1.291 . S
C55 H68 0.931 . S
C56 C55 1.291 . S
C56 C57 1.373 1_545 S
C56 H69 0.929 . S
C57 C56 1.373 1_565 S
C57 C58 1.396 . S
C57 C64 1.403 . S
C58 C48 1.476 . S
C58 N53 1.318 . S
C58 C57 1.396 . S
H59 C54 0.929 . S
O60 Mn36 2.385 . S
O60 C38 1.234 . S
O61 Mn36 2.209 . S
O61 Mn37 2.215 . S
O61 C38 1.283 . S
O62 Mn36 2.094 . S
O62 C40 1.240 . S
O63 Mn37 2.117 . S
O63 C40 1.264 . S
C64 C57 1.403 . S
C64 C65 1.399 . S
C64 H70 0.929 . S
C65 C45 1.449 . S
C65 C64 1.399 . S
C65 H71 0.930 . S
H66 C46 0.931 . S
H67 C47 0.930 . S
H68 C55 0.931 . S
H69 C56 0.929 . S
H70 C64 0.929 . S
H71 C65 0.930 . S
Mn72 O77 2.095 . S
Mn72 O87 2.162 . S
Mn72 O88 2.297 . S
Mn72 O96 2.385 . S
Mn72 O97 2.209 . S
Mn72 O98 2.094 . S
Mn73 O78 2.121 . S
Mn73 N80 2.257 . S
Mn73 N89 2.282 . S
Mn73 O97 2.215 . S
Mn73 O99 2.117 . S
C74 O96 1.234 . S
C74 O97 1.283 . S
C75 O87 1.281 . S
C75 O88 1.236 . S
C76 O98 1.240 . S
C76 O99 1.264 . S
O77 Mn72 2.095 . S
O77 C86 1.250 . S
O78 Mn73 2.121 . S
O78 C86 1.258 . S
C79 N80 1.326 . S
C79 C83 1.460 . S
C79 H85 0.929 . S
N80 Mn73 2.257 . S
N80 C79 1.326 . S
N80 C84 1.362 . S
C81 C82 1.258 . S
C81 C84 1.431 . S
C81 C101 1.449 . S
C82 C81 1.258 . S
C82 C83 1.477 . S
C82 H102 0.931 . S
C83 C79 1.460 . S
C83 C82 1.477 . S
C83 H103 0.930 . S
C84 N80 1.362 . S
C84 C81 1.431 . S
C84 C94 1.476 . S
H85 C79 0.929 . S
C86 O77 1.250 . S
C86 O78 1.258 . S
O87 Mn72 2.162 . S
O87 C75 1.281 . S
O88 Mn72 2.297 . S
O88 C75 1.236 . S
N89 Mn73 2.282 . S
N89 C90 1.328 1_655 S
N89 C94 1.318 . S
C90 N89 1.328 1_455 S
C90 C91 1.457 . S
C90 H95 0.929 . S
C91 C90 1.457 . S
C91 C92 1.291 . S
C91 H104 0.931 . S
C92 C91 1.291 . S
C92 C93 1.373 1_455 S
C92 H105 0.929 . S
C93 C92 1.373 1_655 S
C93 C94 1.396 . S
C93 C100 1.403 . S
C94 C84 1.476 . S
C94 N89 1.318 . S
C94 C93 1.396 . S
H95 C90 0.929 . S
O96 Mn72 2.385 . S
O96 C74 1.234 . S
O97 Mn72 2.209 . S
O97 Mn73 2.215 . S
O97 C74 1.283 . S
O98 Mn72 2.094 . S
O98 C76 1.240 . S
O99 Mn73 2.117 . S
O99 C76 1.264 . S
C100 C93 1.403 . S
C100 C101 1.399 . S
C100 H106 0.929 . S
C101 C81 1.449 . S
C101 C100 1.399 . S
C101 H107 0.930 . S
H102 C82 0.931 . S
H103 C83 0.930 . S
H104 C91 0.931 . S
H105 C92 0.929 . S
H106 C100 0.929 . S
H107 C101 0.930 . S
Mn108 O113 2.095 . S
Mn108 O123 2.162 . S
Mn108 O124 2.297 . S
Mn108 O132 2.385 . S
Mn108 O133 2.209 . S
Mn108 O134 2.094 . S
Mn109 O114 2.121 . S
Mn109 N116 2.257 . S
Mn109 N125 2.282 . S
Mn109 O133 2.215 . S
Mn109 O135 2.117 . S
C110 O132 1.234 . S
C110 O133 1.283 . S
C111 O123 1.281 . S
C111 O124 1.236 . S
C112 O134 1.240 . S
C112 O135 1.264 . S
O113 Mn108 2.095 . S
O113 C122 1.250 . S
O114 Mn109 2.121 . S
O114 C122 1.258 . S
C115 N116 1.326 . S
C115 C119 1.460 . S
C115 H121 0.929 . S
N116 Mn109 2.257 . S
N116 C115 1.326 . S
N116 C120 1.362 . S
C117 C118 1.258 . S
C117 C120 1.431 . S
C117 C137 1.449 . S
C118 C117 1.258 . S
C118 C119 1.477 . S
C118 H138 0.931 . S
C119 C115 1.460 . S
C119 C118 1.477 . S
C119 H139 0.930 . S
C120 N116 1.362 . S
C120 C117 1.431 . S
C120 C130 1.476 . S
H121 C115 0.929 . S
C122 O113 1.250 . S
C122 O114 1.258 . S
O123 Mn108 2.162 . S
O123 C111 1.281 . S
O124 Mn108 2.297 . S
O124 C111 1.236 . S
N125 Mn109 2.282 . S
N125 C126 1.328 1_545 S
N125 C130 1.318 . S
C126 N125 1.328 1_565 S
C126 C127 1.457 . S
C126 H131 0.929 . S
C127 C126 1.457 . S
C127 C128 1.291 . S
C127 H140 0.931 . S
C128 C127 1.291 . S
C128 C129 1.373 1_565 S
C128 H141 0.929 . S
C129 C128 1.373 1_545 S
C129 C130 1.396 . S
C129 C136 1.403 . S
C130 C120 1.476 . S
C130 N125 1.318 . S
C130 C129 1.396 . S
H131 C126 0.929 . S
O132 Mn108 2.385 . S
O132 C110 1.234 . S
O133 Mn108 2.209 . S
O133 Mn109 2.215 . S
O133 C110 1.283 . S
O134 Mn108 2.094 . S
O134 C112 1.240 . S
O135 Mn109 2.117 . S
O135 C112 1.264 . S
C136 C129 1.403 . S
C136 C137 1.399 . S
C136 H142 0.929 . S
C137 C117 1.449 . S
C137 C136 1.399 . S
C137 H143 0.930 . S
H138 C118 0.931 . S
H139 C119 0.930 . S
H140 C127 0.931 . S
H141 C128 0.929 . S
H142 C136 0.929 . S
H143 C137 0.930 . S
Mn144 O149 2.095 . S
Mn144 O159 2.162 . S
Mn144 O160 2.297 . S
Mn144 O168 2.385 . S
Mn144 O169 2.209 . S
Mn144 O170 2.094 . S
Mn145 O150 2.121 . S
Mn145 N152 2.257 . S
Mn145 N161 2.282 . S
Mn145 O169 2.215 1_554 S
Mn145 O171 2.117 1_554 S
C146 O168 1.234 . S
C146 O169 1.283 . S
C147 O159 1.281 . S
C147 O160 1.236 . S
C148 O170 1.240 . S
C148 O171 1.264 . S
O149 Mn144 2.095 . S
O149 C158 1.250 . S
O150 Mn145 2.121 . S
O150 C158 1.258 1_554 S
C151 N152 1.326 . S
C151 C155 1.460 . S
C151 H157 0.929 . S
N152 Mn145 2.257 . S
N152 C151 1.326 . S
N152 C156 1.362 . S
C153 C154 1.258 . S
C153 C156 1.431 . S
C153 C173 1.449 . S
C154 C153 1.258 . S
C154 C155 1.477 . S
C154 H174 0.931 . S
C155 C151 1.460 . S
C155 C154 1.477 . S
C155 H175 0.930 . S
C156 N152 1.362 . S
C156 C153 1.431 . S
C156 C166 1.476 . S
H157 C151 0.929 . S
C158 O149 1.250 . S
C158 O150 1.258 1_556 S
O159 Mn144 2.162 . S
O159 C147 1.281 . S
O160 Mn144 2.297 . S
O160 C147 1.236 . S
N161 Mn145 2.282 . S
N161 C162 1.328 . S
N161 C166 1.318 . S
C162 N161 1.328 . S
C162 C163 1.457 . S
C162 H167 0.929 . S
C163 C162 1.457 . S
C163 C164 1.291 . S
C163 H176 0.931 . S
C164 C163 1.291 . S
C164 C165 1.373 . S
C164 H177 0.929 . S
C165 C164 1.373 . S
C165 C166 1.396 . S
C165 C172 1.403 . S
C166 C156 1.476 . S
C166 N161 1.318 . S
C166 C165 1.396 . S
H167 C162 0.929 . S
O168 Mn144 2.385 . S
O168 C146 1.234 . S
O169 Mn144 2.209 . S
O169 Mn145 2.215 1_556 S
O169 C146 1.283 . S
O170 Mn144 2.094 . S
O170 C148 1.240 . S
O171 Mn145 2.117 1_556 S
O171 C148 1.264 . S
C172 C165 1.403 . S
C172 C173 1.399 . S
C172 H178 0.929 . S
C173 C153 1.449 . S
C173 C172 1.399 . S
C173 H179 0.930 . S
H174 C154 0.931 . S
H175 C155 0.930 . S
H176 C163 0.931 . S
H177 C164 0.929 . S
H178 C172 0.929 . S
H179 C173 0.930 . S
Mn180 O185 2.095 . S
Mn180 O195 2.162 . S
Mn180 O196 2.297 . S
Mn180 O204 2.385 . S
Mn180 O205 2.209 . S
Mn180 O206 2.094 . S
Mn181 O186 2.121 . S
Mn181 N188 2.257 . S
Mn181 N197 2.282 . S
Mn181 O205 2.215 1_556 S
Mn181 O207 2.117 1_556 S
C182 O204 1.234 . S
C182 O205 1.283 . S
C183 O195 1.281 . S
C183 O196 1.236 . S
C184 O206 1.240 . S
C184 O207 1.264 . S
O185 Mn180 2.095 . S
O185 C194 1.250 . S
O186 Mn181 2.121 . S
O186 C194 1.258 1_556 S
C187 N188 1.326 . S
C187 C191 1.460 . S
C187 H193 0.929 . S
N188 Mn181 2.257 . S
N188 C187 1.326 . S
N188 C192 1.362 . S
C189 C190 1.258 . S
C189 C192 1.431 . S
C189 C209 1.449 . S
C190 C189 1.258 . S
C190 C191 1.477 . S
C190 H210 0.931 . S
C191 C187 1.460 . S
C191 C190 1.477 . S
C191 H211 0.930 . S
C192 N188 1.362 . S
C192 C189 1.431 . S
C192 C202 1.476 . S
H193 C187 0.929 . S
C194 O185 1.250 . S
C194 O186 1.258 1_554 S
O195 Mn180 2.162 . S
O195 C183 1.281 . S
O196 Mn180 2.297 . S
O196 C183 1.236 . S
N197 Mn181 2.282 . S
N197 C198 1.328 . S
N197 C202 1.318 . S
C198 N197 1.328 . S
C198 C199 1.457 . S
C198 H203 0.929 . S
C199 C198 1.457 . S
C199 C200 1.291 . S
C199 H212 0.931 . S
C200 C199 1.291 . S
C200 C201 1.373 . S
C200 H213 0.929 . S
C201 C200 1.373 . S
C201 C202 1.396 . S
C201 C208 1.403 . S
C202 C192 1.476 . S
C202 N197 1.318 . S
C202 C201 1.396 . S
H203 C198 0.929 . S
O204 Mn180 2.385 . S
O204 C182 1.234 . S
O205 Mn180 2.209 . S
O205 Mn181 2.215 1_554 S
O205 C182 1.283 . S
O206 Mn180 2.094 . S
O206 C184 1.240 . S
O207 Mn181 2.117 1_554 S
O207 C184 1.264 . S
C208 C201 1.403 . S
C208 C209 1.399 . S
C208 H214 0.929 . S
C209 C189 1.449 . S
C209 C208 1.399 . S
C209 H215 0.930 . S
H210 C190 0.931 . S
H211 C191 0.930 . S
H212 C199 0.931 . S
H213 C200 0.929 . S
H214 C208 0.929 . S
H215 C209 0.930 . S
Mn216 O221 2.095 . S
Mn216 O231 2.162 . S
Mn216 O232 2.297 . S
Mn216 O240 2.385 . S
Mn216 O241 2.209 . S
Mn216 O242 2.094 . S
Mn217 O222 2.121 . S
Mn217 N224 2.257 . S
Mn217 N233 2.282 . S
Mn217 O241 2.215 1_554 S
Mn217 O243 2.117 1_554 S
C218 O240 1.234 . S
C218 O241 1.283 . S
C219 O231 1.281 . S
C219 O232 1.236 . S
C220 O242 1.240 . S
C220 O243 1.264 . S
O221 Mn216 2.095 . S
O221 C230 1.250 . S
O222 Mn217 2.121 . S
O222 C230 1.258 1_554 S
C223 N224 1.326 . S
C223 C227 1.460 . S
C223 H229 0.929 . S
N224 Mn217 2.257 . S
N224 C223 1.326 . S
N224 C228 1.362 . S
C225 C226 1.258 . S
C225 C228 1.431 . S
C225 C245 1.449 . S
C226 C225 1.258 . S
C226 C227 1.477 . S
C226 H246 0.931 . S
C227 C223 1.460 . S
C227 C226 1.477 . S
C227 H247 0.930 . S
C228 N224 1.362 . S
C228 C225 1.431 . S
C228 C238 1.476 . S
H229 C223 0.929 . S
C230 O221 1.250 . S
C230 O222 1.258 1_556 S
O231 Mn216 2.162 . S
O231 C219 1.281 . S
O232 Mn216 2.297 . S
O232 C219 1.236 . S
N233 Mn217 2.282 . S
N233 C234 1.328 . S
N233 C238 1.318 . S
C234 N233 1.328 . S
C234 C235 1.457 . S
C234 H239 0.929 . S
C235 C234 1.457 . S
C235 C236 1.291 . S
C235 H248 0.931 . S
C236 C235 1.291 . S
C236 C237 1.373 . S
C236 H249 0.929 . S
C237 C236 1.373 . S
C237 C238 1.396 . S
C237 C244 1.403 . S
C238 C228 1.476 . S
C238 N233 1.318 . S
C238 C237 1.396 . S
H239 C234 0.929 . S
O240 Mn216 2.385 . S
O240 C218 1.234 . S
O241 Mn216 2.209 . S
O241 Mn217 2.215 1_556 S
O241 C218 1.283 . S
O242 Mn216 2.094 . S
O242 C220 1.240 . S
O243 Mn217 2.117 1_556 S
O243 C220 1.264 . S
C244 C237 1.403 . S
C244 C245 1.399 . S
C244 H250 0.929 . S
C245 C225 1.449 . S
C245 C244 1.399 . S
C245 H251 0.930 . S
H246 C226 0.931 . S
H247 C227 0.930 . S
H248 C235 0.931 . S
H249 C236 0.929 . S
H250 C244 0.929 . S
H251 C245 0.930 . S
Mn252 O257 2.095 . S
Mn252 O267 2.162 . S
Mn252 O268 2.297 . S
Mn252 O276 2.385 . S
Mn252 O277 2.209 . S
Mn252 O278 2.094 . S
Mn253 O258 2.121 . S
Mn253 N260 2.257 . S
Mn253 N269 2.282 . S
Mn253 O277 2.215 1_556 S
Mn253 O279 2.117 1_556 S
C254 O276 1.234 . S
C254 O277 1.283 . S
C255 O267 1.281 . S
C255 O268 1.236 . S
C256 O278 1.240 . S
C256 O279 1.264 . S
O257 Mn252 2.095 . S
O257 C266 1.250 . S
O258 Mn253 2.121 . S
O258 C266 1.258 1_556 S
C259 N260 1.326 . S
C259 C263 1.460 . S
C259 H265 0.929 . S
N260 Mn253 2.257 . S
N260 C259 1.326 . S
N260 C264 1.362 . S
C261 C262 1.258 . S
C261 C264 1.431 . S
C261 C281 1.449 . S
C262 C261 1.258 . S
C262 C263 1.477 . S
C262 H282 0.931 . S
C263 C259 1.460 . S
C263 C262 1.477 . S
C263 H283 0.930 . S
C264 N260 1.362 . S
C264 C261 1.431 . S
C264 C274 1.476 . S
H265 C259 0.929 . S
C266 O257 1.250 . S
C266 O258 1.258 1_554 S
O267 Mn252 2.162 . S
O267 C255 1.281 . S
O268 Mn252 2.297 . S
O268 C255 1.236 . S
N269 Mn253 2.282 . S
N269 C270 1.328 . S
N269 C274 1.318 . S
C270 N269 1.328 . S
C270 C271 1.457 . S
C270 H275 0.929 . S
C271 C270 1.457 . S
C271 C272 1.291 . S
C271 H284 0.931 . S
C272 C271 1.291 . S
C272 C273 1.373 . S
C272 H285 0.929 . S
C273 C272 1.373 . S
C273 C274 1.396 . S
C273 C280 1.403 . S
C274 C264 1.476 . S
C274 N269 1.318 . S
C274 C273 1.396 . S
H275 C270 0.929 . S
O276 Mn252 2.385 . S
O276 C254 1.234 . S
O277 Mn252 2.209 . S
O277 Mn253 2.215 1_554 S
O277 C254 1.283 . S
O278 Mn252 2.094 . S
O278 C256 1.240 . S
O279 Mn253 2.117 1_554 S
O279 C256 1.264 . S
C280 C273 1.403 . S
C280 C281 1.399 . S
C280 H286 0.929 . S
C281 C261 1.449 . S
C281 C280 1.399 . S
C281 H287 0.930 . S
H282 C262 0.931 . S
H283 C263 0.930 . S
H284 C271 0.931 . S
H285 C272 0.929 . S
H286 C280 0.929 . S
H287 C281 0.930 . S
H288 C296 0.929 . S
H289 C298 0.930 . S
H290 C300 0.930 . S
H291 C303 0.929 . S
H292 C306 0.930 . S
H293 C308 0.960 . S
H294 C308 0.960 . S
H295 C308 0.960 . S
C296 H288 0.929 . S
C296 C297 1.377 . S
C296 C298 1.384 . S
C297 C296 1.377 . S
C297 C303 1.390 . S
C298 H289 0.930 . S
C298 C296 1.384 . S
C298 C299 1.372 . S
C299 C298 1.372 . S
C299 C300 1.400 . S
C299 C304 1.490 . S
C300 H290 0.930 . S
C300 C299 1.400 . S
C300 C303 1.386 . S
H301 C317 0.930 . S
H302 C318 0.931 . S
C303 H291 0.929 . S
C303 C297 1.390 . S
C303 C300 1.386 . S
C304 C299 1.490 . S
C304 C306 1.395 . S
C304 C307 1.403 . S
H305 C311 0.930 . S
C306 H292 0.930 . S
C306 C304 1.395 . S
C306 C309 1.403 . S
C307 C304 1.403 . S
C307 C308 1.524 . S
C307 C311 1.400 . S
C308 H293 0.960 . S
C308 H294 0.960 . S
C308 H295 0.960 . S
C308 C307 1.524 . S
C309 C306 1.403 . S
C309 C310 1.392 . S
C309 C313 1.495 . S
C310 C309 1.392 . S
C310 C311 1.385 . S
C310 C312 1.478 . S
C311 H305 0.930 . S
C311 C307 1.400 . S
C311 C310 1.385 . S
C312 C310 1.478 . S
C312 C314 1.381 . S
C312 C318 1.383 . S
C313 C309 1.495 . S
C313 H319 0.959 . S
C313 H320 0.961 . S
C313 H321 0.960 . S
C314 C312 1.381 . S
C314 C315 1.394 . S
C314 H322 0.930 . S
C315 C314 1.394 . S
C315 C316 1.383 . S
C315 H323 0.929 . S
C316 C315 1.383 . S
C316 C317 1.377 . S
C317 H301 0.930 . S
C317 C316 1.377 . S
C317 C318 1.379 . S
C318 H302 0.931 . S
C318 C312 1.383 . S
C318 C317 1.379 . S
H319 C313 0.959 . S
H320 C313 0.961 . S
H321 C313 0.960 . S
H322 C314 0.930 . S
H323 C315 0.929 . S
H324 C332 0.929 . S
H325 C334 0.930 . S
H326 C336 0.930 . S
H327 C339 0.929 . S
H328 C342 0.930 . S
H329 C344 0.960 . S
H330 C344 0.960 . S
H331 C344 0.960 . S
C332 H324 0.929 . S
C332 C333 1.377 . S
C332 C334 1.384 . S
C333 C332 1.377 . S
C333 C339 1.390 . S
C334 H325 0.930 . S
C334 C332 1.384 . S
C334 C335 1.372 . S
C335 C334 1.372 . S
C335 C336 1.400 . S
C335 C340 1.490 . S
C336 H326 0.930 . S
C336 C335 1.400 . S
C336 C339 1.386 . S
H337 C353 0.930 . S
H338 C354 0.931 . S
C339 H327 0.929 . S
C339 C333 1.390 . S
C339 C336 1.386 . S
C340 C335 1.490 . S
C340 C342 1.395 . S
C340 C343 1.403 . S
H341 C347 0.930 . S
C342 H328 0.930 . S
C342 C340 1.395 . S
C342 C345 1.403 . S
C343 C340 1.403 . S
C343 C344 1.524 . S
C343 C347 1.400 . S
C344 H329 0.960 . S
C344 H330 0.960 . S
C344 H331 0.960 . S
C344 C343 1.524 . S
C345 C342 1.403 . S
C345 C346 1.392 . S
C345 C349 1.495 . S
C346 C345 1.392 . S
C346 C347 1.385 . S
C346 C348 1.478 . S
C347 H341 0.930 . S
C347 C343 1.400 . S
C347 C346 1.385 . S
C348 C346 1.478 . S
C348 C350 1.381 . S
C348 C354 1.383 . S
C349 C345 1.495 . S
C349 H355 0.959 . S
C349 H356 0.961 . S
C349 H357 0.960 . S
C350 C348 1.381 . S
C350 C351 1.394 . S
C350 H358 0.930 . S
C351 C350 1.394 . S
C351 C352 1.383 . S
C351 H359 0.929 . S
C352 C351 1.383 . S
C352 C353 1.377 . S
C353 H337 0.930 . S
C353 C352 1.377 . S
C353 C354 1.379 . S
C354 H338 0.931 . S
C354 C348 1.383 . S
C354 C353 1.379 . S
H355 C349 0.959 . S
H356 C349 0.961 . S
H357 C349 0.960 . S
H358 C350 0.930 . S
H359 C351 0.929 . S
H360 C368 0.929 . S
H361 C370 0.930 . S
H362 C372 0.930 . S
H363 C375 0.929 . S
H364 C378 0.930 . S
H365 C380 0.960 . S
H366 C380 0.960 . S
H367 C380 0.960 . S
C368 H360 0.929 . S
C368 C369 1.377 . S
C368 C370 1.384 . S
C369 C368 1.377 . S
C369 C375 1.390 . S
C370 H361 0.930 . S
C370 C368 1.384 . S
C370 C371 1.372 . S
C371 C370 1.372 . S
C371 C372 1.400 . S
C371 C376 1.490 . S
C372 H362 0.930 . S
C372 C371 1.400 . S
C372 C375 1.386 . S
H373 C389 0.930 . S
H374 C390 0.931 . S
C375 H363 0.929 . S
C375 C369 1.390 . S
C375 C372 1.386 . S
C376 C371 1.490 . S
C376 C378 1.395 . S
C376 C379 1.403 . S
H377 C383 0.930 . S
C378 H364 0.930 . S
C378 C376 1.395 . S
C378 C381 1.403 . S
C379 C376 1.403 . S
C379 C380 1.524 . S
C379 C383 1.400 . S
C380 H365 0.960 . S
C380 H366 0.960 . S
C380 H367 0.960 . S
C380 C379 1.524 . S
C381 C378 1.403 . S
C381 C382 1.392 . S
C381 C385 1.495 . S
C382 C381 1.392 . S
C382 C383 1.385 . S
C382 C384 1.478 . S
C383 H377 0.930 . S
C383 C379 1.400 . S
C383 C382 1.385 . S
C384 C382 1.478 . S
C384 C386 1.381 . S
C384 C390 1.383 . S
C385 C381 1.495 . S
C385 H391 0.959 . S
C385 H392 0.961 . S
C385 H393 0.960 . S
C386 C384 1.381 . S
C386 C387 1.394 . S
C386 H394 0.930 . S
C387 C386 1.394 . S
C387 C388 1.383 . S
C387 H395 0.929 . S
C388 C387 1.383 . S
C388 C389 1.377 . S
C389 H373 0.930 . S
C389 C388 1.377 . S
C389 C390 1.379 . S
C390 H374 0.931 . S
C390 C384 1.383 . S
C390 C389 1.379 . S
H391 C385 0.959 . S
H392 C385 0.961 . S
H393 C385 0.960 . S
H394 C386 0.930 . S
H395 C387 0.929 . S
H396 C404 0.929 . S
H397 C406 0.930 . S
H398 C408 0.930 . S
H399 C411 0.929 . S
H400 C414 0.930 . S
H401 C416 0.960 . S
H402 C416 0.960 . S
H403 C416 0.960 . S
C404 H396 0.929 . S
C404 C405 1.377 . S
C404 C406 1.384 . S
C405 C404 1.377 . S
C405 C411 1.390 . S
C406 H397 0.930 . S
C406 C404 1.384 . S
C406 C407 1.372 . S
C407 C406 1.372 . S
C407 C408 1.400 . S
C407 C412 1.490 . S
C408 H398 0.930 . S
C408 C407 1.400 . S
C408 C411 1.386 . S
H409 C425 0.930 . S
H410 C426 0.931 . S
C411 H399 0.929 . S
C411 C405 1.390 . S
C411 C408 1.386 . S
C412 C407 1.490 . S
C412 C414 1.395 . S
C412 C415 1.403 . S
H413 C419 0.930 . S
C414 H400 0.930 . S
C414 C412 1.395 . S
C414 C417 1.403 . S
C415 C412 1.403 . S
C415 C416 1.524 . S
C415 C419 1.400 . S
C416 H401 0.960 . S
C416 H402 0.960 . S
C416 H403 0.960 . S
C416 C415 1.524 . S
C417 C414 1.403 . S
C417 C418 1.392 . S
C417 C421 1.495 . S
C418 C417 1.392 . S
C418 C419 1.385 . S
C418 C420 1.478 . S
C419 H413 0.930 . S
C419 C415 1.400 . S
C419 C418 1.385 . S
C420 C418 1.478 . S
C420 C422 1.381 . S
C420 C426 1.383 . S
C421 C417 1.495 . S
C421 H427 0.959 . S
C421 H428 0.961 . S
C421 H429 0.960 . S
C422 C420 1.381 . S
C422 C423 1.394 . S
C422 H430 0.930 . S
C423 C422 1.394 . S
C423 C424 1.383 . S
C423 H431 0.929 . S
C424 C423 1.383 . S
C424 C425 1.377 . S
C425 H409 0.930 . S
C425 C424 1.377 . S
C425 C426 1.379 . S
C426 H410 0.931 . S
C426 C420 1.383 . S
C426 C425 1.379 . S
H427 C421 0.959 . S
H428 C421 0.961 . S
H429 C421 0.960 . S
H430 C422 0.930 . S
H431 C423 0.929 . S
H432 C440 0.929 . S
H433 C442 0.930 . S
H434 C444 0.930 . S
H435 C447 0.929 . S
H436 C450 0.930 . S
H437 C452 0.960 . S
H438 C452 0.960 . S
H439 C452 0.960 . S
C440 H432 0.929 . S
C440 C441 1.377 . S
C440 C442 1.384 . S
C441 C440 1.377 . S
C441 C447 1.390 . S
C442 H433 0.930 . S
C442 C440 1.384 . S
C442 C443 1.372 . S
C443 C442 1.372 . S
C443 C444 1.400 . S
C443 C448 1.490 . S
C444 H434 0.930 . S
C444 C443 1.400 . S
C444 C447 1.386 . S
H445 C461 0.930 . S
H446 C462 0.931 . S
C447 H435 0.929 . S
C447 C441 1.390 . S
C447 C444 1.386 . S
C448 C443 1.490 . S
C448 C450 1.395 . S
C448 C451 1.403 . S
H449 C455 0.930 . S
C450 H436 0.930 . S
C450 C448 1.395 . S
C450 C453 1.403 . S
C451 C448 1.403 . S
C451 C452 1.524 . S
C451 C455 1.400 . S
C452 H437 0.960 . S
C452 H438 0.960 . S
C452 H439 0.960 . S
C452 C451 1.524 . S
C453 C450 1.403 . S
C453 C454 1.392 . S
C453 C457 1.495 . S
C454 C453 1.392 . S
C454 C455 1.385 . S
C454 C456 1.478 . S
C455 H449 0.930 . S
C455 C451 1.400 . S
C455 C454 1.385 . S
C456 C454 1.478 . S
C456 C458 1.381 . S
C456 C462 1.383 . S
C457 C453 1.495 . S
C457 H463 0.959 . S
C457 H464 0.961 . S
C457 H465 0.960 . S
C458 C456 1.381 . S
C458 C459 1.394 . S
C458 H466 0.930 . S
C459 C458 1.394 . S
C459 C460 1.383 . S
C459 H467 0.929 . S
C460 C459 1.383 . S
C460 C461 1.377 . S
C461 H445 0.930 . S
C461 C460 1.377 . S
C461 C462 1.379 . S
C462 H446 0.931 . S
C462 C456 1.383 . S
C462 C461 1.379 . S
H463 C457 0.959 . S
H464 C457 0.961 . S
H465 C457 0.960 . S
H466 C458 0.930 . S
H467 C459 0.929 . S
H468 C476 0.929 . S
H469 C478 0.930 . S
H470 C480 0.930 . S
H471 C483 0.929 . S
H472 C486 0.930 . S
H473 C488 0.960 . S
H474 C488 0.960 . S
H475 C488 0.960 . S
C476 H468 0.929 . S
C476 C477 1.377 . S
C476 C478 1.384 . S
C477 C476 1.377 . S
C477 C483 1.390 . S
C478 H469 0.930 . S
C478 C476 1.384 . S
C478 C479 1.372 . S
C479 C478 1.372 . S
C479 C480 1.400 . S
C479 C484 1.490 . S
C480 H470 0.930 . S
C480 C479 1.400 . S
C480 C483 1.386 . S
H481 C497 0.930 . S
H482 C498 0.931 . S
C483 H471 0.929 . S
C483 C477 1.390 . S
C483 C480 1.386 . S
C484 C479 1.490 . S
C484 C486 1.395 . S
C484 C487 1.403 . S
H485 C491 0.930 . S
C486 H472 0.930 . S
C486 C484 1.395 . S
C486 C489 1.403 . S
C487 C484 1.403 . S
C487 C488 1.524 . S
C487 C491 1.400 . S
C488 H473 0.960 . S
C488 H474 0.960 . S
C488 H475 0.960 . S
C488 C487 1.524 . S
C489 C486 1.403 . S
C489 C490 1.392 . S
C489 C493 1.495 . S
C490 C489 1.392 . S
C490 C491 1.385 . S
C490 C492 1.478 . S
C491 H485 0.930 . S
C491 C487 1.400 . S
C491 C490 1.385 . S
C492 C490 1.478 . S
C492 C494 1.381 . S
C492 C498 1.383 . S
C493 C489 1.495 . S
C493 H499 0.959 . S
C493 H500 0.961 . S
C493 H501 0.960 . S
C494 C492 1.381 . S
C494 C495 1.394 . S
C494 H502 0.930 . S
C495 C494 1.394 . S
C495 C496 1.383 . S
C495 H503 0.929 . S
C496 C495 1.383 . S
C496 C497 1.377 . S
C497 H481 0.930 . S
C497 C496 1.377 . S
C497 C498 1.379 . S
C498 H482 0.931 . S
C498 C492 1.383 . S
C498 C497 1.379 . S
H499 C493 0.959 . S
H500 C493 0.961 . S
H501 C493 0.960 . S
H502 C494 0.930 . S
H503 C495 0.929 . S
H504 C512 0.929 . S
H505 C514 0.930 . S
H506 C516 0.930 . S
H507 C519 0.929 . S
H508 C522 0.930 . S
H509 C524 0.960 . S
H510 C524 0.960 . S
H511 C524 0.960 . S
C512 H504 0.929 . S
C512 C513 1.377 . S
C512 C514 1.384 . S
C513 C512 1.377 . S
C513 C519 1.390 . S
C514 H505 0.930 . S
C514 C512 1.384 . S
C514 C515 1.372 . S
C515 C514 1.372 . S
C515 C516 1.400 . S
C515 C520 1.490 . S
C516 H506 0.930 . S
C516 C515 1.400 . S
C516 C519 1.386 . S
H517 C533 0.930 . S
H518 C534 0.931 . S
C519 H507 0.929 . S
C519 C513 1.390 . S
C519 C516 1.386 . S
C520 C515 1.490 . S
C520 C522 1.395 . S
C520 C523 1.403 . S
H521 C527 0.930 . S
C522 H508 0.930 . S
C522 C520 1.395 . S
C522 C525 1.403 . S
C523 C520 1.403 . S
C523 C524 1.524 . S
C523 C527 1.400 . S
C524 H509 0.960 . S
C524 H510 0.960 . S
C524 H511 0.960 . S
C524 C523 1.524 . S
C525 C522 1.403 . S
C525 C526 1.392 . S
C525 C529 1.495 . S
C526 C525 1.392 . S
C526 C527 1.385 . S
C526 C528 1.478 . S
C527 H521 0.930 . S
C527 C523 1.400 . S
C527 C526 1.385 . S
C528 C526 1.478 . S
C528 C530 1.381 . S
C528 C534 1.383 . S
C529 C525 1.495 . S
C529 H535 0.959 . S
C529 H536 0.961 . S
C529 H537 0.960 . S
C530 C528 1.381 . S
C530 C531 1.394 . S
C530 H538 0.930 . S
C531 C530 1.394 . S
C531 C532 1.383 . S
C531 H539 0.929 . S
C532 C531 1.383 . S
C532 C533 1.377 . S
C533 H517 0.930 . S
C533 C532 1.377 . S
C533 C534 1.379 . S
C534 H518 0.931 . S
C534 C528 1.383 . S
C534 C533 1.379 . S
H535 C529 0.959 . S
H536 C529 0.961 . S
H537 C529 0.960 . S
H538 C530 0.930 . S
H539 C531 0.929 . S
H540 C548 0.929 . S
H541 C550 0.930 . S
H542 C552 0.930 . S
H543 C555 0.929 . S
H544 C558 0.930 . S
H545 C560 0.960 . S
H546 C560 0.960 . S
H547 C560 0.960 . S
C548 H540 0.929 . S
C548 C549 1.377 . S
C548 C550 1.384 . S
C549 C548 1.377 . S
C549 C555 1.390 . S
C550 H541 0.930 . S
C550 C548 1.384 . S
C550 C551 1.372 . S
C551 C550 1.372 . S
C551 C552 1.400 . S
C551 C556 1.490 . S
C552 H542 0.930 . S
C552 C551 1.400 . S
C552 C555 1.386 . S
H553 C569 0.930 . S
H554 C570 0.931 . S
C555 H543 0.929 . S
C555 C549 1.390 . S
C555 C552 1.386 . S
C556 C551 1.490 . S
C556 C558 1.395 . S
C556 C559 1.403 . S
H557 C563 0.930 . S
C558 H544 0.930 . S
C558 C556 1.395 . S
C558 C561 1.403 . S
C559 C556 1.403 . S
C559 C560 1.524 . S
C559 C563 1.400 . S
C560 H545 0.960 . S
C560 H546 0.960 . S
C560 H547 0.960 . S
C560 C559 1.524 . S
C561 C558 1.403 . S
C561 C562 1.392 . S
C561 C565 1.495 . S
C562 C561 1.392 . S
C562 C563 1.385 . S
C562 C564 1.478 . S
C563 H557 0.930 . S
C563 C559 1.400 . S
C563 C562 1.385 . S
C564 C562 1.478 . S
C564 C566 1.381 . S
C564 C570 1.383 . S
C565 C561 1.495 . S
C565 H571 0.959 . S
C565 H572 0.961 . S
C565 H573 0.960 . S
C566 C564 1.381 . S
C566 C567 1.394 . S
C566 H574 0.930 . S
C567 C566 1.394 . S
C567 C568 1.383 . S
C567 H575 0.929 . S
C568 C567 1.383 . S
C568 C569 1.377 . S
C569 H553 0.930 . S
C569 C568 1.377 . S
C569 C570 1.379 . S
C570 H554 0.931 . S
C570 C564 1.383 . S
C570 C569 1.379 . S
H571 C565 0.959 . S
H572 C565 0.961 . S
H573 C565 0.960 . S
H574 C566 0.930 . S
H575 C567 0.929 . S
H576 C584 0.929 . S
H577 C586 0.930 . S
H578 C588 0.930 . S
H579 C591 0.929 . S
H580 C594 0.930 . S
H581 C596 0.954 1_556 S
H582 C596 0.960 . S
H583 C596 0.960 1_556 S
C584 H576 0.929 . S
C584 C585 1.377 . S
C584 C586 1.384 . S
C585 C584 1.377 . S
C585 C591 1.390 1_554 S
C586 H577 0.930 . S
C586 C584 1.384 . S
C586 C587 1.372 . S
C587 C586 1.372 . S
C587 C588 1.400 1_554 S
C587 C592 1.490 . S
C588 H578 0.930 . S
C588 C587 1.400 1_556 S
C588 C591 1.386 . S
H589 C605 0.930 . S
H590 C606 0.931 . S
C591 H579 0.929 . S
C591 C585 1.390 1_556 S
C591 C588 1.386 . S
C592 C587 1.490 . S
C592 C594 1.395 . S
C592 C595 1.403 . S
H593 C599 0.930 . S
C594 H580 0.930 . S
C594 C592 1.395 . S
C594 C597 1.403 . S
C595 C592 1.403 . S
C595 C596 1.524 . S
C595 C599 1.400 1_554 S
C596 H581 0.954 1_554 S
C596 H582 0.960 . S
C596 H583 0.960 1_554 S
C596 C595 1.524 . S
C597 C594 1.403 . S
C597 C598 1.392 1_554 S
C597 C601 1.495 . S
C598 C597 1.392 1_556 S
C598 C599 1.385 . S
C598 C600 1.478 . S
C599 H593 0.930 . S
C599 C595 1.400 1_556 S
C599 C598 1.385 . S
C600 C598 1.478 . S
C600 C602 1.381 1_556 S
C600 C606 1.383 . S
C601 C597 1.495 . S
C601 H607 0.959 . S
C601 H608 0.961 1_554 S
C601 H609 0.960 . S
C602 C600 1.381 1_554 S
C602 C603 1.394 . S
C602 H610 0.930 . S
C603 C602 1.394 . S
C603 C604 1.383 1_554 S
C603 H611 0.929 . S
C604 C603 1.383 1_556 S
C604 C605 1.377 . S
C605 H589 0.930 . S
C605 C604 1.377 . S
C605 C606 1.379 . S
C606 H590 0.931 . S
C606 C600 1.383 . S
C606 C605 1.379 . S
H607 C601 0.959 . S
H608 C601 0.961 1_556 S
H609 C601 0.960 . S
H610 C602 0.930 . S
H611 C603 0.929 . S
H612 C620 0.929 . S
H613 C622 0.930 . S
H614 C624 0.930 . S
H615 C627 0.929 1_556 S
H616 C630 0.930 . S
H617 C632 0.960 . S
H618 C632 0.960 . S
H619 C632 0.960 . S
C620 H612 0.929 . S
C620 C621 1.377 . S
C620 C622 1.384 . S
C621 C620 1.377 . S
C621 C627 1.390 . S
C622 H613 0.930 . S
C622 C620 1.384 . S
C622 C623 1.372 . S
C623 C622 1.372 . S
C623 C624 1.400 1_554 S
C623 C628 1.490 . S
C624 H614 0.930 . S
C624 C623 1.400 1_556 S
C624 C627 1.386 1_556 S
H625 C641 0.930 . S
H626 C642 0.931 . S
C627 H615 0.929 1_554 S
C627 C621 1.390 . S
C627 C624 1.386 1_554 S
C628 C623 1.490 . S
C628 C630 1.395 1_554 S
C628 C631 1.403 . S
H629 C635 0.930 . S
C630 H616 0.930 . S
C630 C628 1.395 1_556 S
C630 C633 1.403 . S
C631 C628 1.403 . S
C631 C632 1.524 . S
C631 C635 1.400 . S
C632 H617 0.960 . S
C632 H618 0.960 . S
C632 H619 0.960 . S
C632 C631 1.524 . S
C633 C630 1.403 . S
C633 C634 1.392 . S
C633 C637 1.495 . S
C634 C633 1.392 . S
C634 C635 1.385 1_556 S
C634 C636 1.478 . S
C635 H629 0.930 . S
C635 C631 1.400 . S
C635 C634 1.385 1_554 S
C636 C634 1.478 . S
C636 C638 1.381 . S
C636 C642 1.383 . S
C637 C633 1.495 . S
C637 H643 0.959 . S
C637 H644 0.961 . S
C637 H645 0.960 . S
C638 C636 1.381 . S
C638 C639 1.394 . S
C638 H646 0.930 1_556 S
C639 C638 1.394 . S
C639 C640 1.383 . S
C639 H647 0.927 1_556 S
C640 C639 1.383 . S
C640 C641 1.377 . S
C641 H625 0.930 . S
C641 C640 1.377 . S
C641 C642 1.379 . S
C642 H626 0.931 . S
C642 C636 1.383 . S
C642 C641 1.379 . S
H643 C637 0.959 . S
H644 C637 0.961 . S
H645 C637 0.960 . S
H646 C638 0.930 1_554 S
H647 C639 0.927 1_554 S
H648 C656 0.929 . S
H649 C658 0.930 . S
H650 C660 0.930 . S
H651 C663 0.929 . S
H652 C666 0.930 . S
H653 C668 0.960 1_556 S
H654 C668 0.961 1_556 S
H655 C668 0.959 . S
C656 H648 0.929 . S
C656 C657 1.377 1_556 S
C656 C658 1.384 . S
C657 C656 1.377 1_554 S
C657 C663 1.390 . S
C658 H649 0.930 . S
C658 C656 1.384 . S
C658 C659 1.372 1_556 S
C659 C658 1.372 1_554 S
C659 C660 1.400 . S
C659 C664 1.490 . S
C660 H650 0.930 . S
C660 C659 1.400 . S
C660 C663 1.386 . S
H661 C677 0.930 . S
H662 C678 0.931 . S
C663 H651 0.929 . S
C663 C657 1.390 . S
C663 C660 1.386 . S
C664 C659 1.490 . S
C664 C666 1.395 . S
C664 C667 1.403 . S
H665 C671 0.930 . S
C666 H652 0.930 . S
C666 C664 1.395 . S
C666 C669 1.403 . S
C667 C664 1.403 . S
C667 C668 1.524 . S
C667 C671 1.400 1_554 S
C668 H653 0.960 1_554 S
C668 H654 0.961 1_554 S
C668 H655 0.959 . S
C668 C667 1.524 . S
C669 C666 1.403 . S
C669 C670 1.392 1_554 S
C669 C673 1.495 . S
C670 C669 1.392 1_556 S
C670 C671 1.385 . S
C670 C672 1.478 . S
C671 H665 0.930 . S
C671 C667 1.400 1_556 S
C671 C670 1.385 . S
C672 C670 1.478 . S
C672 C674 1.381 . S
C672 C678 1.383 1_556 S
C673 C669 1.495 . S
C673 H679 0.959 . S
C673 H680 0.961 . S
C673 H681 0.960 1_554 S
C674 C672 1.381 . S
C674 C675 1.394 . S
C674 H682 0.930 . S
C675 C674 1.394 . S
C675 C676 1.383 . S
C675 H683 0.929 . S
C676 C675 1.383 . S
C676 C677 1.377 1_556 S
C677 H661 0.930 . S
C677 C676 1.377 1_554 S
C677 C678 1.379 . S
C678 H662 0.931 . S
C678 C672 1.383 1_554 S
C678 C677 1.379 . S
H679 C673 0.959 . S
H680 C673 0.961 . S
H681 C673 0.960 1_556 S
H682 C674 0.930 . S
H683 C675 0.929 . S
H684 C692 0.929 . S
H685 C694 0.930 1_554 S
H686 C696 0.930 . S
H687 C699 0.929 . S
H688 C702 0.930 . S
H689 C704 0.960 . S
H690 C704 0.960 . S
H691 C704 0.960 . S
C692 H684 0.929 . S
C692 C693 1.377 . S
C692 C694 1.384 . S
C693 C692 1.377 . S
C693 C699 1.390 . S
C694 H685 0.930 1_556 S
C694 C692 1.384 . S
C694 C695 1.372 . S
C695 C694 1.372 . S
C695 C696 1.400 . S
C695 C700 1.490 . S
C696 H686 0.930 . S
C696 C695 1.400 . S
C696 C699 1.386 . S
H697 C713 0.940 . S
H698 C714 0.931 . S
C699 H687 0.929 . S
C699 C693 1.390 . S
C699 C696 1.386 . S
C700 C695 1.490 . S
C700 C702 1.395 . S
C700 C703 1.403 1_556 S
H701 C707 0.930 . S
C702 H688 0.930 . S
C702 C700 1.395 . S
C702 C705 1.403 . S
C703 C700 1.403 1_554 S
C703 C704 1.524 . S
C703 C707 1.400 . S
C704 H689 0.960 . S
C704 H690 0.960 . S
C704 H691 0.960 . S
C704 C703 1.524 . S
C705 C702 1.403 . S
C705 C706 1.392 . S
C705 C709 1.495 . S
C706 C705 1.392 . S
C706 C707 1.385 1_556 S
C706 C708 1.478 1_556 S
C707 H701 0.930 . S
C707 C703 1.400 . S
C707 C706 1.385 1_554 S
C708 C706 1.478 1_554 S
C708 C710 1.381 . S
C708 C714 1.383 1_554 S
C709 C705 1.495 . S
C709 H715 0.959 . S
C709 H716 0.961 . S
C709 H717 0.960 . S
C710 C708 1.381 . S
C710 C711 1.394 . S
C710 H718 0.930 . S
C711 C710 1.394 . S
C711 C712 1.383 . S
C711 H719 0.929 . S
C712 C711 1.383 . S
C712 C713 1.361 1_554 S
C713 H697 0.940 . S
C713 C712 1.361 1_556 S
C713 C714 1.386 . S
C714 H698 0.931 . S
C714 C708 1.383 1_556 S
C714 C713 1.386 . S
H715 C709 0.959 . S
H716 C709 0.961 . S
H717 C709 0.960 . S
H718 C710 0.930 . S
H719 C711 0.929 . S
H720 C728 0.929 . S
H721 C730 0.930 1_455 S
H722 C732 0.930 . S
H723 C735 0.929 . S
H724 C738 0.930 . S
H725 C740 0.960 . S
H726 C740 0.960 . S
H727 C740 0.960 . S
C728 H720 0.929 . S
C728 C729 1.377 . S
C728 C730 1.384 . S
C729 C728 1.377 . S
C729 C735 1.390 . S
C730 H721 0.930 1_655 S
C730 C728 1.384 . S
C730 C731 1.372 . S
C731 C730 1.372 . S
C731 C732 1.400 . S
C731 C736 1.490 . S
C732 H722 0.930 . S
C732 C731 1.400 . S
C732 C735 1.386 . S
H733 C749 0.930 . S
H734 C750 0.931 1_655 S
C735 H723 0.929 . S
C735 C729 1.390 . S
C735 C732 1.386 . S
C736 C731 1.490 . S
C736 C738 1.395 1_655 S
C736 C739 1.403 . S
H737 C743 0.930 . S
C738 H724 0.930 . S
C738 C736 1.395 1_455 S
C738 C741 1.403 . S
C739 C736 1.403 . S
C739 C740 1.524 . S
C739 C743 1.400 . S
C740 H725 0.960 . S
C740 H726 0.960 . S
C740 H727 0.960 . S
C740 C739 1.524 . S
C741 C738 1.403 . S
C741 C742 1.392 . S
C741 C745 1.495 . S
C742 C741 1.392 . S
C742 C743 1.385 1_455 S
C742 C744 1.478 . S
C743 H737 0.930 . S
C743 C739 1.400 . S
C743 C742 1.385 1_655 S
C744 C742 1.478 . S
C744 C746 1.381 . S
C744 C750 1.383 . S
C745 C741 1.495 . S
C745 H751 0.959 . S
C745 H752 0.961 . S
C745 H753 0.960 . S
C746 C744 1.381 . S
C746 C747 1.394 . S
C746 H754 0.930 . S
C747 C746 1.394 . S
C747 C748 1.383 . S
C747 H755 0.929 . S
C748 C747 1.383 . S
C748 C749 1.377 . S
C749 H733 0.930 . S
C749 C748 1.377 . S
C749 C750 1.379 . S
C750 H734 0.931 1_455 S
C750 C744 1.383 . S
C750 C749 1.379 . S
H751 C745 0.959 . S
H752 C745 0.961 . S
H753 C745 0.960 . S
H754 C746 0.930 . S
H755 C747 0.929 . S
H756 C764 0.929 . S
H757 C766 0.930 . S
H758 C768 0.930 . S
H759 C771 0.929 . S
H760 C774 0.930 . S
H761 C776 0.960 . S
H762 C776 0.960 . S
H763 C776 0.960 . S
C764 H756 0.929 . S
C764 C765 1.377 . S
C764 C766 1.384 . S
C765 C764 1.377 . S
C765 C771 1.390 . S
C766 H757 0.930 . S
C766 C764 1.384 . S
C766 C767 1.372 . S
C767 C766 1.372 . S
C767 C768 1.400 . S
C767 C772 1.490 . S
C768 H758 0.930 . S
C768 C767 1.400 . S
C768 C771 1.386 . S
H769 C785 0.930 . S
H770 C786 0.931 . S
C771 H759 0.929 . S
C771 C765 1.390 . S
C771 C768 1.386 . S
C772 C767 1.490 . S
C772 C774 1.395 . S
C772 C775 1.403 1_545 S
H773 C779 0.930 . S
C774 H760 0.930 . S
C774 C772 1.395 . S
C774 C777 1.403 . S
C775 C772 1.403 1_565 S
C775 C776 1.524 . S
C775 C779 1.400 . S
C776 H761 0.960 . S
C776 H762 0.960 . S
C776 H763 0.960 . S
C776 C775 1.524 . S
C777 C774 1.403 . S
C777 C778 1.392 1_545 S
C777 C781 1.495 . S
C778 C777 1.392 1_565 S
C778 C779 1.385 . S
C778 C780 1.478 . S
C779 H773 0.930 . S
C779 C775 1.400 . S
C779 C778 1.385 . S
C780 C778 1.478 . S
C780 C782 1.381 . S
C780 C786 1.383 . S
C781 C777 1.495 . S
C781 H787 0.959 . S
C781 H788 0.961 . S
C781 H789 0.960 . S
C782 C780 1.381 . S
C782 C783 1.394 . S
C782 H790 0.930 . S
C783 C782 1.394 . S
C783 C784 1.383 . S
C783 H791 0.929 . S
C784 C783 1.383 . S
C784 C785 1.377 . S
C785 H769 0.930 . S
C785 C784 1.377 . S
C785 C786 1.379 . S
C786 H770 0.931 . S
C786 C780 1.383 . S
C786 C785 1.379 . S
H787 C781 0.959 . S
H788 C781 0.961 . S
H789 C781 0.960 . S
H790 C782 0.930 . S
H791 C783 0.929 . S
H792 C800 0.957 . S
H793 C802 0.930 . S
H794 C804 0.930 . S
H795 C807 0.929 . S
H796 C810 0.930 . S
H797 C812 0.960 1_565 S
H798 C812 0.960 . S
H799 C812 0.960 . S
C800 H792 0.957 . S
C800 C801 1.350 1_554 S
C800 C802 1.385 . S
C801 C800 1.350 1_556 S
C801 C807 1.390 . S
C802 H793 0.930 . S
C802 C800 1.385 . S
C802 C803 1.372 1_554 S
C803 C802 1.372 1_556 S
C803 C804 1.400 . S
C803 C808 1.490 . S
C804 H794 0.930 . S
C804 C803 1.400 . S
C804 C807 1.386 . S
H805 C821 0.930 . S
H806 C822 0.931 . S
C807 H795 0.929 . S
C807 C801 1.390 . S
C807 C804 1.386 . S
C808 C803 1.490 . S
C808 C810 1.395 . S
C808 C811 1.403 . S
H809 C815 0.930 . S
C810 H796 0.930 . S
C810 C808 1.395 . S
C810 C813 1.407 1_545 S
C811 C808 1.403 . S
C811 C812 1.524 . S
C811 C815 1.400 1_545 S
C812 H797 0.960 1_545 S
C812 H798 0.960 . S
C812 H799 0.960 . S
C812 C811 1.524 . S
C813 C810 1.407 1_565 S
C813 C814 1.389 . S
C813 C817 1.495 . S
C814 C813 1.389 . S
C814 C815 1.385 . S
C814 C816 1.478 . S
C815 H809 0.930 . S
C815 C811 1.400 1_565 S
C815 C814 1.385 . S
C816 C814 1.478 . S
C816 C818 1.381 1_556 S
C816 C822 1.383 . S
C817 C813 1.495 . S
C817 H823 0.962 1_565 S
C817 H824 0.960 . S
C817 H825 0.985 . S
C818 C816 1.381 1_554 S
C818 C819 1.394 . S
C818 H826 0.930 . S
C819 C818 1.394 . S
C819 C820 1.383 1_554 S
C819 H827 0.929 . S
C820 C819 1.383 1_556 S
C820 C821 1.377 . S
C821 H805 0.930 . S
C821 C820 1.377 . S
C821 C822 1.379 . S
C822 H806 0.931 . S
C822 C816 1.383 . S
C822 C821 1.379 . S
H823 C817 0.962 1_545 S
H824 C817 0.960 . S
H825 C817 0.985 . S
H826 C818 0.930 . S
H827 C819 0.929 . S
H828 C836 0.933 . S
H829 C838 0.948 . S
H830 C840 0.930 . S
H831 C843 0.929 . S
H832 C846 0.930 . S
H833 C848 0.960 . S
H834 C848 0.960 . S
H835 C848 0.960 . S
C836 H828 0.933 . S
C836 C837 1.374 1_556 S
C836 C838 1.384 . S
C837 C836 1.374 1_554 S
C837 C843 1.390 . S
C838 H829 0.948 . S
C838 C836 1.384 . S
C838 C839 1.354 1_556 S
C839 C838 1.354 1_554 S
C839 C840 1.400 . S
C839 C844 1.490 . S
C840 H830 0.930 . S
C840 C839 1.400 . S
C840 C843 1.386 . S
H841 C857 0.930 . S
H842 C858 0.931 . S
C843 H831 0.929 . S
C843 C837 1.390 . S
C843 C840 1.386 . S
C844 C839 1.490 . S
C844 C846 1.395 . S
C844 C847 1.403 . S
H845 C851 0.930 . S
C846 H832 0.930 . S
C846 C844 1.395 . S
C846 C849 1.403 1_455 S
C847 C844 1.403 . S
C847 C848 1.524 . S
C847 C851 1.400 1_455 S
C848 H833 0.960 . S
C848 H834 0.960 . S
C848 H835 0.960 . S
C848 C847 1.524 . S
C849 C846 1.403 1_655 S
C849 C850 1.392 . S
C849 C853 1.495 . S
C850 C849 1.392 . S
C850 C851 1.385 . S
C850 C852 1.478 . S
C851 H845 0.930 . S
C851 C847 1.400 1_655 S
C851 C850 1.385 . S
C852 C850 1.478 . S
C852 C854 1.355 1_554 S
C852 C858 1.383 . S
C853 C849 1.495 . S
C853 H859 0.959 . S
C853 H860 0.961 . S
C853 H861 0.960 . S
C854 C852 1.355 1_556 S
C854 C855 1.394 . S
C854 H862 0.957 . S
C855 C854 1.394 . S
C855 C856 1.354 1_556 S
C855 H863 0.959 . S
C856 C855 1.354 1_554 S
C856 C857 1.377 . S
C857 H841 0.930 . S
C857 C856 1.377 . S
C857 C858 1.379 . S
C858 H842 0.931 . S
C858 C852 1.383 . S
C858 C857 1.379 . S
H859 C853 0.959 . S
H860 C853 0.961 . S
H861 C853 0.960 . S
H862 C854 0.957 . S
H863 C855 0.959 . S
C297 C255 1.554 . S
C316 C3 1.552 . S
C333 C39 1.554 . S
C352 C147 1.545 . S
C369 C75 1.554 . S
C388 C183 1.550 . S
C405 C219 1.555 . S
C424 C111 1.549 . S
C441 C40 1.388 1_545 S
C460 C14 1.363 . S
C477 C50 1.332 . S
C496 C76 1.382 1_455 S
C513 C112 1.388 1_565 S
C532 C86 1.360 . S
C549 C122 1.332 . S
C568 C4 1.382 1_655 S
C585 C256 1.387 . S
C604 C158 1.307 . S
C621 C194 1.341 . S
C640 C148 1.384 . S
C657 C184 1.387 . S
C676 C230 1.358 . S
C693 C220 1.387 . S
C712 C266 1.306 . S
C729 C74 0.703 . S
C748 C2 0.776 . S
C765 C110 0.702 . S
C784 C38 0.676 . S
C801 C218 0.728 . S
C820 C146 0.755 . S
C837 C254 0.720 . S
C856 C182 0.671 . S
