# Generated by pormake.
# Topology gme, (4)-cn, num edge types: 1
# Building blocks:
#     Node 0, Type 0, BuildingBlock: KUFVIS_clean_sbu_0, # of connection points: 4
#     Node 1, Type 0, BuildingBlock: KUFVIS_clean_sbu_0, # of connection points: 4
#     Node 2, Type 0, BuildingBlock: KUFVIS_clean_sbu_0, # of connection points: 4
#     Node 3, Type 0, BuildingBlock: KUFVIS_clean_sbu_0, # of connection points: 4
#     Node 4, Type 0, BuildingBlock: KUFVIS_clean_sbu_0, # of connection points: 4
#     Node 5, Type 0, BuildingBlock: KUFVIS_clean_sbu_0, # of connection points: 4
#     Node 6, Type 0, BuildingBlock: KUFVIS_clean_sbu_0, # of connection points: 4
#     Node 7, Type 0, BuildingBlock: KUFVIS_clean_sbu_0, # of connection points: 4
#     Node 8, Type 0, BuildingBlock: KUFVIS_clean_sbu_0, # of connection points: 4
#     Node 9, Type 0, BuildingBlock: KUFVIS_clean_sbu_0, # of connection points: 4
#     Node 10, Type 0, BuildingBlock: KUFVIS_clean_sbu_0, # of connection points: 4
#     Node 11, Type 0, BuildingBlock: KUFVIS_clean_sbu_0, # of connection points: 4
#     Node 12, Type 0, BuildingBlock: KUFVIS_clean_sbu_0, # of connection points: 4
#     Node 13, Type 0, BuildingBlock: KUFVIS_clean_sbu_0, # of connection points: 4
#     Node 14, Type 0, BuildingBlock: KUFVIS_clean_sbu_0, # of connection points: 4
#     Node 15, Type 0, BuildingBlock: KUFVIS_clean_sbu_0, # of connection points: 4
#     Node 16, Type 0, BuildingBlock: KUFVIS_clean_sbu_0, # of connection points: 4
#     Node 17, Type 0, BuildingBlock: KUFVIS_clean_sbu_0, # of connection points: 4
#     Node 18, Type 0, BuildingBlock: KUFVIS_clean_sbu_0, # of connection points: 4
#     Node 19, Type 0, BuildingBlock: KUFVIS_clean_sbu_0, # of connection points: 4
#     Node 20, Type 0, BuildingBlock: KUFVIS_clean_sbu_0, # of connection points: 4
#     Node 21, Type 0, BuildingBlock: KUFVIS_clean_sbu_0, # of connection points: 4
#     Node 22, Type 0, BuildingBlock: KUFVIS_clean_sbu_0, # of connection points: 4
#     Node 23, Type 0, BuildingBlock: KUFVIS_clean_sbu_0, # of connection points: 4
#     Edge 24, Type (0, 0), BuildingBlock: CIFDUS_clean_linker_0, # of connection points: 2
#     Edge 25, Type (0, 0), BuildingBlock: CIFDUS_clean_linker_0, # of connection points: 2
#     Edge 26, Type (0, 0), BuildingBlock: CIFDUS_clean_linker_0, # of connection points: 2
#     Edge 27, Type (0, 0), BuildingBlock: CIFDUS_clean_linker_0, # of connection points: 2
#     Edge 28, Type (0, 0), BuildingBlock: CIFDUS_clean_linker_0, # of connection points: 2
#     Edge 29, Type (0, 0), BuildingBlock: CIFDUS_clean_linker_0, # of connection points: 2
#     Edge 30, Type (0, 0), BuildingBlock: CIFDUS_clean_linker_0, # of connection points: 2
#     Edge 31, Type (0, 0), BuildingBlock: CIFDUS_clean_linker_0, # of connection points: 2
#     Edge 32, Type (0, 0), BuildingBlock: CIFDUS_clean_linker_0, # of connection points: 2
#     Edge 33, Type (0, 0), BuildingBlock: CIFDUS_clean_linker_0, # of connection points: 2
#     Edge 34, Type (0, 0), BuildingBlock: CIFDUS_clean_linker_0, # of connection points: 2
#     Edge 35, Type (0, 0), BuildingBlock: CIFDUS_clean_linker_0, # of connection points: 2
#     Edge 36, Type (0, 0), BuildingBlock: CIFDUS_clean_linker_0, # of connection points: 2
#     Edge 37, Type (0, 0), BuildingBlock: CIFDUS_clean_linker_0, # of connection points: 2
#     Edge 38, Type (0, 0), BuildingBlock: CIFDUS_clean_linker_0, # of connection points: 2
#     Edge 39, Type (0, 0), BuildingBlock: CIFDUS_clean_linker_0, # of connection points: 2
#     Edge 40, Type (0, 0), BuildingBlock: CIFDUS_clean_linker_0, # of connection points: 2
#     Edge 41, Type (0, 0), BuildingBlock: CIFDUS_clean_linker_0, # of connection points: 2
#     Edge 42, Type (0, 0), BuildingBlock: CIFDUS_clean_linker_0, # of connection points: 2
#     Edge 43, Type (0, 0), BuildingBlock: CIFDUS_clean_linker_0, # of connection points: 2
#     Edge 44, Type (0, 0), BuildingBlock: CIFDUS_clean_linker_0, # of connection points: 2
#     Edge 45, Type (0, 0), BuildingBlock: CIFDUS_clean_linker_0, # of connection points: 2
#     Edge 46, Type (0, 0), BuildingBlock: CIFDUS_clean_linker_0, # of connection points: 2
#     Edge 47, Type (0, 0), BuildingBlock: CIFDUS_clean_linker_0, # of connection points: 2
#     Edge 48, Type (0, 0), BuildingBlock: CIFDUS_clean_linker_0, # of connection points: 2
#     Edge 49, Type (0, 0), BuildingBlock: CIFDUS_clean_linker_0, # of connection points: 2
#     Edge 50, Type (0, 0), BuildingBlock: CIFDUS_clean_linker_0, # of connection points: 2
#     Edge 51, Type (0, 0), BuildingBlock: CIFDUS_clean_linker_0, # of connection points: 2
#     Edge 52, Type (0, 0), BuildingBlock: CIFDUS_clean_linker_0, # of connection points: 2
#     Edge 53, Type (0, 0), BuildingBlock: CIFDUS_clean_linker_0, # of connection points: 2
#     Edge 54, Type (0, 0), BuildingBlock: CIFDUS_clean_linker_0, # of connection points: 2
#     Edge 55, Type (0, 0), BuildingBlock: CIFDUS_clean_linker_0, # of connection points: 2
#     Edge 56, Type (0, 0), BuildingBlock: CIFDUS_clean_linker_0, # of connection points: 2
#     Edge 57, Type (0, 0), BuildingBlock: CIFDUS_clean_linker_0, # of connection points: 2
#     Edge 58, Type (0, 0), BuildingBlock: CIFDUS_clean_linker_0, # of connection points: 2
#     Edge 59, Type (0, 0), BuildingBlock: CIFDUS_clean_linker_0, # of connection points: 2
#     Edge 60, Type (0, 0), BuildingBlock: CIFDUS_clean_linker_0, # of connection points: 2
#     Edge 61, Type (0, 0), BuildingBlock: CIFDUS_clean_linker_0, # of connection points: 2
#     Edge 62, Type (0, 0), BuildingBlock: CIFDUS_clean_linker_0, # of connection points: 2
#     Edge 63, Type (0, 0), BuildingBlock: CIFDUS_clean_linker_0, # of connection points: 2
#     Edge 64, Type (0, 0), BuildingBlock: CIFDUS_clean_linker_0, # of connection points: 2
#     Edge 65, Type (0, 0), BuildingBlock: CIFDUS_clean_linker_0, # of connection points: 2
#     Edge 66, Type (0, 0), BuildingBlock: CIFDUS_clean_linker_0, # of connection points: 2
#     Edge 67, Type (0, 0), BuildingBlock: CIFDUS_clean_linker_0, # of connection points: 2
#     Edge 68, Type (0, 0), BuildingBlock: CIFDUS_clean_linker_0, # of connection points: 2
#     Edge 69, Type (0, 0), BuildingBlock: CIFDUS_clean_linker_0, # of connection points: 2
#     Edge 70, Type (0, 0), BuildingBlock: CIFDUS_clean_linker_0, # of connection points: 2
#     Edge 71, Type (0, 0), BuildingBlock: CIFDUS_clean_linker_0, # of connection points: 2
# Relax obj value: 0.089
# Max RMSD: 0.121
# Mean RMSD: 0.121
data_MOF--net-gme--node1-KUFVIS_clean_sbu_0--edge1-CIFDUS_clean_linker_0
_symmetry_space_group_name_H-M    P1
_symmetry_Int_Tables_number       1
_symmetry_cell_setting            triclinic
loop_
_symmetry_equiv_pos_as_xyz
'x, y, z'
_cell_length_a     48.48829
_cell_length_b     48.566149
_cell_length_c     49.388753
_cell_angle_alpha  89.962536
_cell_angle_beta   90.00793
_cell_angle_gamma 119.9664
loop_
_atom_site_label
_atom_site_type_symbol
_atom_site_fract_x
_atom_site_fract_y
_atom_site_fract_z
_atom_type_partial_charge
Mn0 Mn 0.42034 0.06787 0.11956 0.0
Mn1 Mn 0.45872 0.13326 0.15848 0.0
C2 C 0.47086 0.08281 0.13609 0.0
C3 C 0.40665 0.04576 0.07624 0.0
C4 C 0.40461 0.07021 0.17864 0.0
O5 O 0.39522 0.09089 0.11333 0.0
O6 O 0.4276 0.13668 0.13508 0.0
C7 C 0.49363 0.18345 0.11763 0.0
N8 N 0.49375 0.1677 0.14041 0.0
C9 C 0.54694 0.20855 0.1516 0.0
C10 C 0.54757 0.22513 0.12811 0.0
C11 C 0.52093 0.21232 0.11088 0.0
C12 C 0.51968 0.17916 0.15653 0.0
H13 H 0.47263 0.17434 0.10507 0.0
C14 C 0.40371 0.11938 0.12001 0.0
O15 O 0.38931 0.03106 0.0972 0.0
O16 O 0.43192 0.07306 0.08049 0.0
N17 N 0.48987 0.13373 0.18248 0.0
C18 C 0.48532 0.11469 0.20427 0.0
C19 C 0.50954 0.12411 0.22367 0.0
C20 C 0.53771 0.15349 0.22094 0.0
C21 C 0.54195 0.17259 0.19824 0.0
C22 C 0.51747 0.16136 0.17904 0.0
H23 H 0.46307 0.09291 0.20722 0.0
O24 O 0.45193 0.05413 0.12752 0.0
O25 O 0.46021 0.10251 0.1337 0.0
O26 O 0.40146 0.05351 0.15772 0.0
O27 O 0.42371 0.10006 0.17986 0.0
C28 C 0.56912 0.20272 0.19428 0.0
C29 C 0.57177 0.22053 0.1708 0.0
H30 H 0.56818 0.24789 0.1233 0.0
H31 H 0.5211 0.22513 0.09289 0.0
H32 H 0.5061 0.10925 0.24114 0.0
H33 H 0.55596 0.16112 0.23638 0.0
H34 H 0.58833 0.21217 0.20891 0.0
H35 H 0.59296 0.24344 0.16777 0.0
Mn36 Mn 0.33216 0.39884 0.62518 0.0
Mn37 Mn 0.31977 0.4547 0.65414 0.0
C38 C 0.37555 0.44883 0.63394 0.0
C39 C 0.33439 0.37384 0.58558 0.0
C40 C 0.32014 0.4013 0.68575 0.0
O41 O 0.28397 0.37975 0.62169 0.0
O42 O 0.27957 0.42031 0.63884 0.0
C43 C 0.30508 0.47812 0.60396 0.0
N44 N 0.32298 0.48387 0.62675 0.0
C45 C 0.35531 0.53909 0.61527 0.0
C46 C 0.3371 0.53388 0.59178 0.0
C47 C 0.31182 0.50324 0.58613 0.0
C48 C 0.34712 0.51325 0.63251 0.0
H49 H 0.2859 0.45451 0.59936 0.0
C50 C 0.26778 0.39293 0.6279 0.0
O51 O 0.32977 0.35991 0.60897 0.0
O52 O 0.33693 0.40166 0.58523 0.0
N53 N 0.35623 0.48971 0.66997 0.0
C54 C 0.37188 0.49046 0.69312 0.0
C55 C 0.39846 0.51913 0.70119 0.0
C56 C 0.40837 0.54657 0.68548 0.0
C57 C 0.39098 0.54549 0.66243 0.0
C58 C 0.36449 0.5164 0.65558 0.0
H59 H 0.36459 0.46921 0.70495 0.0
O60 O 0.37926 0.42462 0.62943 0.0
O61 O 0.34635 0.44338 0.63213 0.0
O62 O 0.32692 0.38847 0.66614 0.0
O63 O 0.3166 0.42557 0.68329 0.0
C64 C 0.39999 0.5716 0.64506 0.0
C65 C 0.38197 0.56862 0.62174 0.0
H66 H 0.34254 0.55313 0.57779 0.0
H67 H 0.29775 0.49895 0.56797 0.0
H68 H 0.41172 0.5199 0.71908 0.0
H69 H 0.42976 0.56808 0.69096 0.0
H70 H 0.42177 0.5935 0.64854 0.0
H71 H 0.3895 0.5889 0.60846 0.0
Mn72 Mn 0.92689 0.34778 0.12357 0.0
Mn73 Mn 0.85512 0.31877 0.15243 0.0
C74 C 0.90971 0.38281 0.13734 0.0
C75 C 0.95721 0.35912 0.08405 0.0
C76 C 0.91216 0.32106 0.18007 0.0
O77 O 0.90393 0.30006 0.11484 0.0
O78 O 0.85388 0.2872 0.12663 0.0
C79 C 0.81294 0.31291 0.10687 0.0
N80 N 0.82547 0.32486 0.13166 0.0
C81 C 0.78764 0.34232 0.13908 0.0
C82 C 0.7744 0.33044 0.11353 0.0
C83 C 0.78735 0.31597 0.09723 0.0
C84 C 0.81382 0.33962 0.14715 0.0
H85 H 0.82214 0.30076 0.09478 0.0
C86 C 0.87389 0.28099 0.11534 0.0
O87 O 0.96716 0.35421 0.10696 0.0
O88 O 0.92974 0.35765 0.08406 0.0
N89 N 0.85343 0.34748 0.17788 0.0
C90 C 0.8701 0.35919 0.20131 0.0
C91 C 0.86103 0.37542 0.21951 0.0
C92 C 0.83435 0.37855 0.2138 0.0
C93 C 0.81768 0.36633 0.1895 0.0
C94 C 0.82861 0.35155 0.17167 0.0
H95 H 0.88987 0.35583 0.20628 0.0
O96 O 0.93966 0.39282 0.13294 0.0
O97 O 0.8907 0.35282 0.13266 0.0
O98 O 0.93341 0.33908 0.16318 0.0
O99 O 0.88256 0.31051 0.17643 0.0
C100 C 0.79016 0.36749 0.18256 0.0
C101 C 0.77538 0.35591 0.1572 0.0
H102 H 0.75418 0.33209 0.10631 0.0
H103 H 0.77715 0.30656 0.07757 0.0
H104 H 0.8741 0.38482 0.23817 0.0
H105 H 0.82687 0.3903 0.22824 0.0
H106 H 0.78021 0.37727 0.19665 0.0
H107 H 0.75447 0.35739 0.15191 0.0
Mn108 Mn 0.59024 0.92505 0.62375 0.0
Mn109 Mn 0.54245 0.85285 0.6499 0.0
C110 C 0.53821 0.91112 0.63552 0.0
C111 C 0.61157 0.95578 0.5846 0.0
C112 C 0.59719 0.9072 0.68049 0.0
O113 O 0.6137 0.90029 0.61684 0.0
O114 O 0.57336 0.85075 0.62509 0.0
C115 C 0.50765 0.81444 0.60217 0.0
N116 N 0.50738 0.82541 0.62746 0.0
C117 C 0.45223 0.78622 0.63368 0.0
C118 C 0.45173 0.77467 0.60755 0.0
C119 C 0.47947 0.78911 0.5916 0.0
C120 C 0.48054 0.81254 0.64254 0.0
H121 H 0.52937 0.82454 0.59047 0.0
C122 C 0.60134 0.8701 0.61639 0.0
O123 O 0.62605 0.96487 0.60778 0.0
O124 O 0.5852 0.92881 0.58415 0.0
N125 N 0.51111 0.85079 0.67458 0.0
C126 C 0.51542 0.86556 0.69894 0.0
C127 C 0.48998 0.85424 0.71735 0.0
C128 C 0.46078 0.82716 0.71094 0.0
C129 C 0.45692 0.81238 0.68574 0.0
C130 C 0.48266 0.82566 0.66773 0.0
H131 H 0.53828 0.8853 0.70457 0.0
O132 O 0.55993 0.94055 0.63177 0.0
O133 O 0.54727 0.89045 0.63107 0.0
O134 O 0.60289 0.92959 0.66394 0.0
O135 O 0.57722 0.87808 0.67564 0.0
C136 C 0.42862 0.78487 0.67779 0.0
C137 C 0.42613 0.77209 0.65161 0.0
H138 H 0.43032 0.7545 0.59966 0.0
H139 H 0.47936 0.78011 0.57153 0.0
H140 H 0.49316 0.86577 0.73677 0.0
H141 H 0.44146 0.81802 0.72547 0.0
H142 H 0.40837 0.77391 0.69134 0.0
H143 H 0.40405 0.75138 0.6455 0.0
Mn144 Mn 0.66038 0.58858 0.11706 0.0
Mn145 Mn 0.69055 0.54747 0.14808 0.0
C146 C 0.62719 0.53481 0.12689 0.0
C147 C 0.65143 0.60892 0.0771 0.0
C148 C 0.6742 0.5922 0.17771 0.0
O149 O 0.70861 0.61844 0.11379 0.0
O150 O 0.72493 0.58612 0.13116 0.0
C151 C 0.71357 0.52908 0.0997 0.0
N152 N 0.69544 0.52077 0.12255 0.0
C153 C 0.68174 0.46616 0.11792 0.0
C154 C 0.70026 0.47405 0.09433 0.0
C155 C 0.71605 0.50563 0.08506 0.0
C156 C 0.67958 0.4904 0.13129 0.0
H157 H 0.72621 0.55345 0.09282 0.0
C158 C 0.73027 0.61192 0.11982 0.0
O159 O 0.65207 0.62127 0.10057 0.0
O160 O 0.65626 0.58495 0.0768 0.0
N161 N 0.6604 0.50917 0.16564 0.0
C162 C 0.64366 0.50569 0.18878 0.0
C163 C 0.62667 0.47563 0.20088 0.0
C164 C 0.62779 0.44976 0.18944 0.0
C165 C 0.64521 0.45391 0.16562 0.0
C166 C 0.66132 0.48432 0.15431 0.0
H167 H 0.64358 0.52576 0.19809 0.0
O168 O 0.61554 0.55309 0.12141 0.0
O169 O 0.65803 0.54811 0.12504 0.0
O170 O 0.6621 0.59918 0.1577 0.0
O171 O 0.68613 0.57403 0.17594 0.0
C172 C 0.64798 0.42937 0.15302 0.0
C173 C 0.6658 0.43534 0.12899 0.0
H174 H 0.70262 0.4561 0.08324 0.0
H175 H 0.73039 0.51194 0.06688 0.0
H176 H 0.61335 0.47254 0.21932 0.0
H177 H 0.6156 0.42705 0.19946 0.0
H178 H 0.63699 0.40592 0.16175 0.0
H179 H 0.66749 0.41616 0.11944 0.0
Mn180 Mn 0.07196 0.66429 0.6168 0.0
Mn181 Mn 0.13674 0.68934 0.65629 0.0
C182 C 0.08494 0.62751 0.6342 0.0
C183 C 0.05024 0.65546 0.57316 0.0
C184 C 0.07475 0.68397 0.67559 0.0
O185 O 0.09707 0.7123 0.60977 0.0
O186 O 0.142 0.72432 0.63258 0.0
C187 C 0.1873 0.70248 0.61629 0.0
N188 N 0.1707 0.68711 0.63891 0.0
C189 C 0.20979 0.67267 0.65124 0.0
C190 C 0.22722 0.68806 0.62791 0.0
C191 C 0.2157 0.70268 0.61018 0.0
C192 C 0.18092 0.67193 0.65551 0.0
H193 H 0.17921 0.71498 0.60335 0.0
C194 C 0.12567 0.73161 0.61691 0.0
O195 O 0.03585 0.65946 0.59369 0.0
O196 O 0.07701 0.65649 0.57801 0.0
N197 N 0.13515 0.65798 0.6804 0.0
C198 C 0.11453 0.64293 0.70112 0.0
C199 C 0.12181 0.6263 0.72033 0.0
C200 C 0.15087 0.62654 0.71873 0.0
C201 C 0.17152 0.64186 0.69691 0.0
C202 C 0.16217 0.6567 0.67766 0.0
H203 H 0.09293 0.64397 0.70315 0.0
O204 O 0.0564 0.61873 0.62568 0.0
O205 O 0.10548 0.65759 0.63155 0.0
O206 O 0.05788 0.67082 0.65464 0.0
O207 O 0.10424 0.69293 0.67718 0.0
C208 C 0.20114 0.64338 0.69366 0.0
C209 C 0.22027 0.65876 0.67081 0.0
H210 H 0.2496 0.68906 0.62356 0.0
H211 H 0.22916 0.71485 0.59227 0.0
H212 H 0.10528 0.61397 0.73657 0.0
H213 H 0.15685 0.61443 0.73406 0.0
H214 H 0.20921 0.6324 0.70837 0.0
H215 H 0.24277 0.65938 0.66831 0.0
Mn216 Mn 0.93188 0.587 0.39059 0.0
Mn217 Mn 0.86711 0.54398 0.35143 0.0
C218 C 0.9187 0.53581 0.37758 0.0
C219 C 0.95336 0.60408 0.4339 0.0
C220 C 0.93028 0.59505 0.32899 0.0
O221 O 0.90831 0.61203 0.39317 0.0
O222 O 0.86516 0.5798 0.36838 0.0
C223 C 0.81918 0.51914 0.39536 0.0
N224 N 0.83349 0.51383 0.37385 0.0
C225 C 0.79797 0.45747 0.37666 0.0
C226 C 0.78272 0.46227 0.39877 0.0
C227 C 0.79348 0.49326 0.40824 0.0
C228 C 0.82368 0.48415 0.36484 0.0
H229 H 0.82721 0.54294 0.40258 0.0
C230 C 0.88126 0.60436 0.38304 0.0
O231 O 0.96819 0.62007 0.41241 0.0
O232 O 0.92619 0.57847 0.43022 0.0
N233 N 0.86496 0.50819 0.3335 0.0
C234 C 0.88186 0.50769 0.31164 0.0
C235 C 0.87412 0.47848 0.29971 0.0
C236 C 0.8486 0.45025 0.30994 0.0
C237 C 0.83109 0.45151 0.33204 0.0
C238 C 0.84009 0.4812 0.34327 0.0
H239 H 0.90113 0.5294 0.3034 0.0
O240 O 0.94692 0.55581 0.38643 0.0
O241 O 0.89825 0.54581 0.37775 0.0
O242 O 0.946 0.60264 0.35122 0.0
O243 O 0.90086 0.57406 0.32709 0.0
C244 C 0.80476 0.42453 0.34316 0.0
C245 C 0.78844 0.42733 0.36563 0.0
H246 H 0.7627 0.44236 0.40858 0.0
H247 H 0.78184 0.49721 0.42528 0.0
H248 H 0.88757 0.47776 0.28251 0.0
H249 H 0.84254 0.42784 0.3005 0.0
H250 H 0.79657 0.40163 0.33428 0.0
H251 H 0.76835 0.40622 0.37402 0.0
Mn252 Mn 0.3462 0.92558 0.89456 0.0
Mn253 Mn 0.31935 0.86 0.85607 0.0
C254 C 0.38169 0.90996 0.87922 0.0
C255 C 0.35414 0.94769 0.93785 0.0
C256 C 0.32963 0.92327 0.83507 0.0
O257 O 0.29784 0.9033 0.89958 0.0
O258 O 0.28422 0.85708 0.87846 0.0
C259 C 0.30327 0.81058 0.89787 0.0
N260 N 0.31927 0.8257 0.87494 0.0
C261 C 0.33305 0.78542 0.86591 0.0
C262 C 0.317 0.76952 0.88958 0.0
C263 C 0.30242 0.78239 0.90582 0.0
C264 C 0.33455 0.81428 0.85984 0.0
H265 H 0.29094 0.81978 0.90973 0.0
C266 C 0.27759 0.87489 0.89282 0.0
O267 O 0.35224 0.96266 0.91675 0.0
O268 O 0.35137 0.92006 0.93378 0.0
N269 N 0.35058 0.85914 0.83304 0.0
C270 C 0.36582 0.87797 0.81132 0.0
C271 C 0.38178 0.86866 0.79302 0.0
C272 C 0.38103 0.83963 0.79678 0.0
C273 C 0.36536 0.82075 0.81939 0.0
C274 C 0.35081 0.8318 0.83742 0.0
H275 H 0.36517 0.89955 0.80762 0.0
O276 O 0.39163 0.93869 0.88768 0.0
O277 O 0.35119 0.89065 0.88105 0.0
O278 O 0.34291 0.94002 0.85604 0.0
O279 O 0.31853 0.89333 0.83406 0.0
C280 C 0.36283 0.79098 0.82436 0.0
C281 C 0.34691 0.77345 0.84775 0.0
H282 H 0.31551 0.74729 0.89535 0.0
H283 H 0.28987 0.77017 0.92404 0.0
H284 H 0.39383 0.88336 0.77563 0.0
H285 H 0.3926 0.83209 0.7822 0.0
H286 H 0.37353 0.78162 0.81061 0.0
H287 H 0.34565 0.75089 0.85163 0.0
Mn288 Mn 0.40103 0.34096 0.39745 0.0
Mn289 Mn 0.45452 0.32707 0.36534 0.0
C290 C 0.45099 0.3835 0.38714 0.0
C291 C 0.37671 0.34303 0.43754 0.0
C292 C 0.40057 0.32928 0.33646 0.0
O293 O 0.38184 0.29289 0.40156 0.0
O294 O 0.42087 0.28762 0.38207 0.0
C295 C 0.48063 0.31265 0.41403 0.0
N296 N 0.48522 0.33009 0.39113 0.0
C297 C 0.54134 0.3615 0.39984 0.0
C298 C 0.53732 0.34374 0.4234 0.0
C299 C 0.5068 0.31917 0.4305 0.0
C300 C 0.51445 0.35362 0.38401 0.0
H301 H 0.45717 0.29401 0.41977 0.0
C302 C 0.39441 0.27638 0.39457 0.0
O303 O 0.36262 0.33877 0.41429 0.0
O304 O 0.40472 0.34577 0.43755 0.0
N305 N 0.48897 0.36283 0.34807 0.0
C306 C 0.48872 0.37787 0.32483 0.0
C307 C 0.51731 0.40336 0.31514 0.0
C308 C 0.54573 0.41291 0.32936 0.0
C309 C 0.54551 0.3962 0.3526 0.0
C310 C 0.51648 0.37063 0.36098 0.0
H311 H 0.46684 0.37082 0.31403 0.0
O312 O 0.4274 0.38791 0.39286 0.0
O313 O 0.44511 0.3542 0.38875 0.0
O314 O 0.38921 0.3364 0.35691 0.0
O315 O 0.42405 0.32432 0.33763 0.0
C316 C 0.5726 0.40498 0.36864 0.0
C317 C 0.57075 0.38745 0.39198 0.0
H318 H 0.55741 0.34901 0.43633 0.0
H319 H 0.50343 0.30546 0.44873 0.0
H320 H 0.51734 0.41599 0.29707 0.0
H321 H 0.56742 0.43339 0.3225 0.0
H322 H 0.59444 0.4264 0.36422 0.0
H323 H 0.59185 0.39484 0.40422 0.0
Mn324 Mn 0.0699 0.41496 0.89921 0.0
Mn325 Mn 0.14249 0.46556 0.8735 0.0
C326 C 0.08113 0.46519 0.88501 0.0
C327 C 0.03823 0.39403 0.93789 0.0
C328 C 0.08994 0.4127 0.84054 0.0
O329 O 0.09562 0.39352 0.90941 0.0
O330 O 0.14296 0.43023 0.8927 0.0
C331 C 0.17489 0.48887 0.92625 0.0
N332 N 0.16703 0.49489 0.90133 0.0
C333 C 0.19636 0.55121 0.90919 0.0
C334 C 0.20499 0.54569 0.93486 0.0
C335 C 0.19412 0.51435 0.94346 0.0
C336 C 0.17712 0.52485 0.89296 0.0
H337 H 0.16652 0.46482 0.93297 0.0
C338 C 0.12511 0.40426 0.90506 0.0
O339 O 0.03034 0.37856 0.91511 0.0
O340 O 0.06431 0.42121 0.93813 0.0
N341 N 0.14689 0.5015 0.85426 0.0
C342 C 0.13592 0.5026 0.82912 0.0
C343 C 0.14457 0.5322 0.81755 0.0
C344 C 0.16478 0.56013 0.8318 0.0
C345 C 0.17606 0.55844 0.85746 0.0
C346 C 0.16688 0.52835 0.86785 0.0
H347 H 0.12067 0.48108 0.81805 0.0
O348 O 0.05212 0.44255 0.88876 0.0
O349 O 0.10323 0.45835 0.89117 0.0
O350 O 0.06842 0.40163 0.859 0.0
O351 O 0.11809 0.43615 0.84404 0.0
C352 C 0.19573 0.58536 0.87328 0.0
C353 C 0.20579 0.58178 0.89916 0.0
H354 H 0.2198 0.56531 0.94818 0.0
H355 H 0.20054 0.50985 0.96328 0.0
H356 H 0.13592 0.53351 0.79766 0.0
H357 H 0.17175 0.58275 0.8228 0.0
H358 H 0.20283 0.6089 0.86602 0.0
H359 H 0.2206 0.60268 0.91122 0.0
Mn360 Mn 0.65956 0.06585 0.39787 0.0
Mn361 Mn 0.68697 0.13595 0.36558 0.0
C362 C 0.62363 0.08186 0.38403 0.0
C363 C 0.64925 0.03675 0.4381 0.0
C364 C 0.68014 0.0765 0.33893 0.0
O365 O 0.70763 0.08877 0.40531 0.0
O366 O 0.72077 0.13692 0.38847 0.0
C367 C 0.69901 0.17968 0.41146 0.0
N368 N 0.68495 0.16743 0.38717 0.0
C369 C 0.67356 0.20973 0.38018 0.0
C370 C 0.68749 0.22263 0.40531 0.0
C371 C 0.69994 0.20732 0.42117 0.0
C372 C 0.67175 0.18121 0.3723 0.0
H373 H 0.70994 0.16876 0.42301 0.0
C374 C 0.72742 0.11815 0.40129 0.0
O375 O 0.65364 0.02625 0.41531 0.0
O376 O 0.65104 0.06434 0.43767 0.0
N377 N 0.65748 0.13942 0.34219 0.0
C378 C 0.64471 0.12371 0.31856 0.0
C379 C 0.63208 0.13633 0.29992 0.0
C380 C 0.63373 0.16551 0.30534 0.0
C381 C 0.64675 0.18112 0.32989 0.0
C382 C 0.65783 0.16676 0.34814 0.0
H383 H 0.64506 0.10225 0.31357 0.0
O384 O 0.61433 0.05237 0.38958 0.0
O385 O 0.65381 0.10172 0.38777 0.0
O386 O 0.66601 0.05719 0.3583 0.0
O387 O 0.69049 0.10625 0.34062 0.0
C388 C 0.64967 0.21064 0.33682 0.0
C389 C 0.66249 0.22462 0.36218 0.0
H390 H 0.68913 0.24448 0.41245 0.0
H391 H 0.71108 0.21735 0.44042 0.0
H392 H 0.62204 0.12412 0.28102 0.0
H393 H 0.6247 0.17558 0.29061 0.0
H394 H 0.64145 0.22241 0.32307 0.0
H395 H 0.66407 0.247 0.36751 0.0
Mn396 Mn 0.59274 0.66031 0.89086 0.0
Mn397 Mn 0.54731 0.68827 0.86545 0.0
C398 C 0.53951 0.62456 0.88081 0.0
C399 C 0.61406 0.65058 0.92987 0.0
C400 C 0.59809 0.68282 0.83326 0.0
O401 O 0.61933 0.70844 0.89655 0.0
O402 O 0.58147 0.72124 0.88797 0.0
C403 C 0.51839 0.69783 0.91468 0.0
N404 N 0.51512 0.68485 0.88965 0.0
C405 C 0.46076 0.67286 0.88647 0.0
C406 C 0.46333 0.68574 0.91239 0.0
C407 C 0.49217 0.69791 0.9267 0.0
C408 C 0.48715 0.67192 0.8762 0.0
H409 H 0.54101 0.70855 0.92509 0.0
C410 C 0.60909 0.72805 0.89635 0.0
O411 O 0.62745 0.654 0.90635 0.0
O412 O 0.58869 0.65305 0.93064 0.0
N413 N 0.51299 0.65938 0.84291 0.0
C414 C 0.51432 0.64704 0.81851 0.0
C415 C 0.4875 0.63396 0.80154 0.0
C416 C 0.4601 0.63488 0.80934 0.0
C417 C 0.4593 0.64765 0.83459 0.0
C418 C 0.4862 0.65894 0.85117 0.0
H419 H 0.53592 0.64794 0.81174 0.0
O420 O 0.55995 0.61503 0.88423 0.0
O421 O 0.55055 0.65477 0.88461 0.0
O422 O 0.60391 0.66653 0.85023 0.0
O423 O 0.57922 0.69338 0.83816 0.0
C424 C 0.43301 0.64998 0.84386 0.0
C425 C 0.4335 0.66197 0.87002 0.0
H426 H 0.44349 0.6868 0.92134 0.0
H427 H 0.49445 0.70819 0.94658 0.0
H428 H 0.48827 0.62407 0.78215 0.0
H429 H 0.43978 0.62553 0.79587 0.0
H430 H 0.41196 0.64171 0.83139 0.0
H431 H 0.41288 0.6629 0.87721 0.0
Mn432 Mn 0.60046 0.93452 0.89681 0.0
Mn433 Mn 0.55029 0.8641 0.86734 0.0
C434 C 0.54968 0.92356 0.88483 0.0
C435 C 0.62296 0.96295 0.93651 0.0
C436 C 0.60259 0.91998 0.83672 0.0
O437 O 0.62239 0.90855 0.90336 0.0
O438 O 0.5852 0.86187 0.88593 0.0
C439 C 0.52532 0.82615 0.91749 0.0
N440 N 0.52007 0.83696 0.89367 0.0
C441 C 0.46358 0.80897 0.90128 0.0
C442 C 0.46832 0.79734 0.92579 0.0
C443 C 0.49936 0.80597 0.93392 0.0
C444 C 0.49035 0.8287 0.8856 0.0
H445 H 0.54913 0.83291 0.92394 0.0
C446 C 0.61147 0.87928 0.89817 0.0
O447 O 0.63732 0.97269 0.91333 0.0
O448 O 0.59563 0.93693 0.93657 0.0
N449 N 0.51484 0.86194 0.84864 0.0
C450 C 0.51439 0.87557 0.82463 0.0
C451 C 0.48517 0.86973 0.81388 0.0
C452 C 0.45682 0.84971 0.82779 0.0
C453 C 0.45784 0.83525 0.85204 0.0
C454 C 0.48756 0.84161 0.86158 0.0
H455 H 0.53617 0.89109 0.81396 0.0
O456 O 0.57203 0.95235 0.88995 0.0
O457 O 0.55718 0.90143 0.88831 0.0
O458 O 0.61275 0.93996 0.85626 0.0
O459 O 0.58032 0.89109 0.83906 0.0
C460 C 0.43067 0.81575 0.86766 0.0
C461 C 0.43343 0.8024 0.89212 0.0
H462 H 0.44835 0.782 0.93862 0.0
H463 H 0.50327 0.79722 0.95285 0.0
H464 H 0.4845 0.88081 0.79506 0.0
H465 H 0.43447 0.84576 0.81975 0.0
H466 H 0.40774 0.8119 0.86163 0.0
H467 H 0.41228 0.7877 0.90401 0.0
Mn468 Mn 0.66095 0.58765 0.39123 0.0
Mn469 Mn 0.68413 0.54038 0.36109 0.0
C470 C 0.62255 0.53656 0.3778 0.0
C471 C 0.65089 0.60716 0.43118 0.0
C472 C 0.68397 0.59616 0.33328 0.0
O473 O 0.70887 0.60968 0.39934 0.0
O474 O 0.71845 0.57122 0.38476 0.0
C475 C 0.69096 0.50567 0.40744 0.0
N476 N 0.67816 0.50538 0.38284 0.0
C477 C 0.66281 0.4506 0.37565 0.0
C478 C 0.67545 0.45011 0.40108 0.0
C479 C 0.68922 0.47766 0.41719 0.0
C480 C 0.66371 0.47869 0.36769 0.0
H481 H 0.70297 0.5273 0.41918 0.0
C482 C 0.72681 0.59756 0.39671 0.0
O483 O 0.65714 0.62284 0.40857 0.0
O484 O 0.65111 0.58058 0.43069 0.0
N485 N 0.6537 0.50909 0.33713 0.0
C486 C 0.64221 0.51355 0.31335 0.0
C487 C 0.62788 0.48844 0.2947 0.0
C488 C 0.62652 0.45941 0.30029 0.0
C489 C 0.63838 0.45535 0.32496 0.0
C490 C 0.65121 0.48081 0.34321 0.0
H491 H 0.64481 0.53635 0.30829 0.0
O492 O 0.61531 0.55852 0.38224 0.0
O493 O 0.65219 0.54487 0.38203 0.0
O494 O 0.66969 0.60277 0.35158 0.0
O495 O 0.69184 0.57492 0.33598 0.0
C496 C 0.63844 0.42722 0.33204 0.0
C497 C 0.65029 0.42472 0.35751 0.0
H498 H 0.67508 0.42886 0.40829 0.0
H499 H 0.69935 0.47757 0.4367 0.0
H500 H 0.6188 0.49177 0.27569 0.0
H501 H 0.61617 0.44036 0.28556 0.0
H502 H 0.62886 0.40719 0.31828 0.0
H503 H 0.64971 0.40282 0.36292 0.0
Mn504 Mn 0.07231 0.66565 0.88864 0.0
Mn505 Mn 0.13581 0.69001 0.84749 0.0
C506 C 0.08894 0.63012 0.87555 0.0
C507 C 0.05182 0.66052 0.93251 0.0
C508 C 0.07047 0.67441 0.82744 0.0
O509 O 0.09354 0.71415 0.89076 0.0
O510 O 0.13679 0.7268 0.86528 0.0
C511 C 0.18752 0.71597 0.88819 0.0
N512 N 0.17227 0.69601 0.86712 0.0
C513 C 0.21475 0.68458 0.86142 0.0
C514 C 0.23089 0.70481 0.8832 0.0
C515 C 0.21703 0.72031 0.89683 0.0
C516 C 0.18483 0.68014 0.85453 0.0
H517 H 0.17741 0.72874 0.89805 0.0
C518 C 0.12015 0.73428 0.88032 0.0
O519 O 0.03575 0.66028 0.91137 0.0
O520 O 0.07971 0.66391 0.92816 0.0
N521 N 0.13855 0.6572 0.82871 0.0
C522 C 0.11888 0.63707 0.80931 0.0
C523 C 0.12871 0.61905 0.79421 0.0
C524 C 0.1593 0.62337 0.7981 0.0
C525 C 0.17887 0.64381 0.81859 0.0
C526 C 0.16713 0.65987 0.83392 0.0
H527 H 0.09599 0.63493 0.80534 0.0
O528 O 0.06037 0.62013 0.88459 0.0
O529 O 0.10755 0.6608 0.87528 0.0
O530 O 0.05561 0.66524 0.84996 0.0
O531 O 0.10015 0.68456 0.82484 0.0
C532 C 0.20965 0.64909 0.82428 0.0
C533 C 0.22744 0.6692 0.84588 0.0
H534 H 0.25393 0.70869 0.88954 0.0
H535 H 0.22935 0.73606 0.91358 0.0
H536 H 0.11299 0.60222 0.77936 0.0
H537 H 0.16727 0.61042 0.78554 0.0
H538 H 0.21962 0.63734 0.81252 0.0
H539 H 0.2508 0.67259 0.85039 0.0
Mn540 Mn 0.40586 0.06613 0.39315 0.0
Mn541 Mn 0.46031 0.133 0.36142 0.0
C542 C 0.45583 0.07281 0.38364 0.0
C543 C 0.38172 0.04057 0.43355 0.0
C544 C 0.40581 0.07768 0.33224 0.0
O545 O 0.38658 0.09502 0.39598 0.0
O546 O 0.42624 0.13926 0.37698 0.0
C547 C 0.48545 0.17337 0.41017 0.0
N548 N 0.49047 0.16032 0.38763 0.0
C549 C 0.54617 0.18378 0.39779 0.0
C550 C 0.54172 0.19772 0.421 0.0
C551 C 0.51121 0.19252 0.42719 0.0
C552 C 0.51971 0.16535 0.38135 0.0
H553 H 0.46195 0.16906 0.41521 0.0
C554 C 0.39923 0.12397 0.38869 0.0
O555 O 0.36736 0.03038 0.41043 0.0
O556 O 0.4097 0.06575 0.43318 0.0
N557 N 0.49491 0.13107 0.34511 0.0
C558 C 0.49497 0.11546 0.32221 0.0
C559 C 0.52353 0.11763 0.31349 0.0
C560 C 0.55157 0.13589 0.32835 0.0
C561 C 0.55109 0.15275 0.35122 0.0
C562 C 0.52211 0.15019 0.35862 0.0
H563 H 0.47331 0.10102 0.311 0.0
O564 O 0.43192 0.04503 0.38923 0.0
O565 O 0.45012 0.09639 0.38478 0.0
O566 O 0.39398 0.05905 0.35258 0.0
O567 O 0.4301 0.10561 0.33346 0.0
C568 C 0.57776 0.17053 0.36785 0.0
C569 C 0.57554 0.18644 0.39086 0.0
H570 H 0.56146 0.21213 0.43437 0.0
H571 H 0.5075 0.20302 0.44515 0.0
H572 H 0.5238 0.10475 0.29571 0.0
H573 H 0.57314 0.13634 0.32225 0.0
H574 H 0.59954 0.17048 0.36412 0.0
H575 H 0.59628 0.19972 0.40356 0.0
Mn576 Mn 0.33999 0.40793 0.90247 0.0
Mn577 Mn 0.32486 0.4584 0.86693 0.0
C578 C 0.38188 0.45793 0.89159 0.0
C579 C 0.34162 0.38726 0.94475 0.0
C580 C 0.33049 0.40491 0.84092 0.0
O581 O 0.29151 0.3867 0.90435 0.0
O582 O 0.28513 0.42393 0.88279 0.0
C583 C 0.30682 0.48393 0.91382 0.0
N584 N 0.32559 0.48886 0.89175 0.0
C585 C 0.3563 0.54481 0.90104 0.0
C586 C 0.33718 0.54043 0.92375 0.0
C587 C 0.31225 0.50985 0.93011 0.0
C588 C 0.34939 0.51817 0.88528 0.0
H589 H 0.28799 0.46037 0.91908 0.0
C590 C 0.27428 0.39777 0.89567 0.0
O591 O 0.33902 0.37163 0.92263 0.0
O592 O 0.34278 0.41435 0.94226 0.0
N593 N 0.36066 0.49331 0.85016 0.0
C594 C 0.37655 0.49349 0.82734 0.0
C595 C 0.40214 0.5223 0.81811 0.0
C596 C 0.41093 0.55048 0.83239 0.0
C597 C 0.39332 0.54979 0.85516 0.0
C598 C 0.36759 0.52059 0.86297 0.0
H599 H 0.37011 0.47177 0.81655 0.0
O600 O 0.38702 0.43541 0.89932 0.0
O601 O 0.35215 0.45103 0.89174 0.0
O602 O 0.33745 0.39461 0.86229 0.0
O603 O 0.32468 0.42787 0.84066 0.0
C604 C 0.4013 0.57657 0.87129 0.0
C605 C 0.38265 0.57431 0.89396 0.0
H606 H 0.34163 0.56032 0.93658 0.0
H607 H 0.29748 0.50621 0.94769 0.0
H608 H 0.41546 0.52268 0.80039 0.0
H609 H 0.43143 0.57238 0.82586 0.0
H610 H 0.42281 0.59849 0.86739 0.0
H611 H 0.38935 0.5952 0.90624 0.0
Mn612 Mn 0.92398 0.33527 0.39623 0.0
Mn613 Mn 0.85351 0.30539 0.36375 0.0
C614 C 0.90466 0.36896 0.38416 0.0
C615 C 0.95272 0.34504 0.43657 0.0
C616 C 0.91522 0.32085 0.33559 0.0
O617 O 0.90489 0.2872 0.40102 0.0
O618 O 0.85721 0.27126 0.38188 0.0
C619 C 0.81124 0.28374 0.41167 0.0
N620 N 0.82122 0.30095 0.38834 0.0
C621 C 0.77757 0.31111 0.38929 0.0
C622 C 0.76686 0.29368 0.41343 0.0
C623 C 0.78394 0.28016 0.42479 0.0
C624 C 0.80564 0.31496 0.37776 0.0
H625 H 0.82381 0.27255 0.41998 0.0
C626 C 0.87687 0.26574 0.3945 0.0
O627 O 0.96454 0.34335 0.41346 0.0
O628 O 0.92408 0.34076 0.43634 0.0
N629 N 0.84528 0.33478 0.34479 0.0
C630 C 0.85852 0.35026 0.32116 0.0
C631 C 0.84347 0.3637 0.30636 0.0
C632 C 0.81457 0.3603 0.31563 0.0
C633 C 0.80168 0.34482 0.3403 0.0
C634 C 0.818 0.33232 0.35435 0.0
H635 H 0.87986 0.35149 0.31323 0.0
O636 O 0.93433 0.37999 0.39037 0.0
O637 O 0.8863 0.33833 0.38685 0.0
O638 O 0.93365 0.33242 0.35602 0.0
O639 O 0.88513 0.30936 0.33666 0.0
C640 C 0.77263 0.34011 0.35097 0.0
C641 C 0.76097 0.32392 0.37575 0.0
H642 H 0.74543 0.29028 0.42328 0.0
H643 H 0.77572 0.26647 0.4433 0.0
H644 H 0.85354 0.3757 0.2874 0.0
H645 H 0.8023 0.36933 0.30339 0.0
H646 H 0.75887 0.34863 0.34025 0.0
H647 H 0.73881 0.32075 0.38384 0.0
Mn648 Mn 0.05986 0.40756 0.62358 0.0
Mn649 Mn 0.13042 0.45913 0.65224 0.0
C650 C 0.07022 0.4583 0.6348 0.0
C651 C 0.03039 0.38475 0.58416 0.0
C652 C 0.07537 0.40743 0.68397 0.0
O653 O 0.08657 0.38626 0.61695 0.0
O654 O 0.13267 0.42352 0.6353 0.0
C655 C 0.16749 0.4816 0.60141 0.0
N656 N 0.1571 0.48799 0.62493 0.0
C657 C 0.18453 0.54392 0.61512 0.0
C658 C 0.19576 0.53802 0.5909 0.0
C659 C 0.1872 0.50669 0.58402 0.0
C660 C 0.16528 0.51798 0.6318 0.0
H661 H 0.16073 0.45754 0.59589 0.0
C662 C 0.11574 0.39724 0.62301 0.0
O663 O 0.02138 0.37035 0.60739 0.0
O664 O 0.05651 0.41194 0.58386 0.0
N665 N 0.13263 0.49528 0.66942 0.0
C666 C 0.11911 0.49676 0.69315 0.0
C667 C 0.12468 0.52632 0.7026 0.0
C668 C 0.14431 0.5539 0.68767 0.0
C669 C 0.15874 0.55188 0.66376 0.0
C670 C 0.15265 0.52187 0.65553 0.0
H671 H 0.10381 0.47551 0.70454 0.0
O672 O 0.04144 0.43547 0.63043 0.0
O673 O 0.09266 0.4512 0.63128 0.0
O674 O 0.05538 0.39592 0.66441 0.0
O675 O 0.10388 0.43046 0.68137 0.0
C676 C 0.17777 0.57823 0.64715 0.0
C677 C 0.19091 0.57437 0.623 0.0
H678 H 0.21069 0.5573 0.57732 0.0
H679 H 0.19561 0.50188 0.5653 0.0
H680 H 0.11362 0.52783 0.72114 0.0
H681 H 0.14789 0.57641 0.69461 0.0
H682 H 0.18127 0.6013 0.65211 0.0
H683 H 0.2052 0.59486 0.61031 0.0
Mn684 Mn 0.66959 0.06436 0.12428 0.0
Mn685 Mn 0.68561 0.13477 0.15083 0.0
C686 C 0.62764 0.07236 0.13564 0.0
C687 C 0.66423 0.03561 0.08487 0.0
C688 C 0.68895 0.08307 0.18303 0.0
O689 O 0.71733 0.09262 0.11767 0.0
O690 O 0.72313 0.13956 0.13097 0.0
C691 C 0.69232 0.16945 0.09977 0.0
N692 N 0.67808 0.15883 0.12431 0.0
C693 C 0.64501 0.18209 0.11742 0.0
C694 C 0.65947 0.19351 0.09217 0.0
C695 C 0.68326 0.18717 0.08331 0.0
C696 C 0.65535 0.16496 0.13311 0.0
H697 H 0.71039 0.16435 0.09277 0.0
C698 C 0.73372 0.12266 0.12042 0.0
O699 O 0.67028 0.02689 0.10798 0.0
O700 O 0.66158 0.06083 0.08476 0.0
N701 N 0.65152 0.13411 0.17061 0.0
C702 C 0.63905 0.12023 0.19495 0.0
C703 C 0.6142 0.12335 0.20625 0.0
C704 C 0.60265 0.1408 0.19245 0.0
C705 C 0.61647 0.15558 0.1678 0.0
C706 C 0.64147 0.15208 0.15775 0.0
H707 H 0.64768 0.10652 0.20547 0.0
O708 O 0.62297 0.044 0.13156 0.0
O709 O 0.65665 0.0955 0.13168 0.0
O710 O 0.67826 0.06136 0.16486 0.0
O711 O 0.69347 0.11109 0.17932 0.0
C712 C 0.60546 0.17235 0.15215 0.0
C713 C 0.61995 0.18602 0.12721 0.0
H714 H 0.65222 0.20684 0.07929 0.0
H715 H 0.69442 0.19572 0.06378 0.0
H716 H 0.6037 0.112 0.22534 0.0
H717 H 0.58298 0.14242 0.20084 0.0
H718 H 0.58477 0.17338 0.15834 0.0
H719 H 0.61085 0.19849 0.1153 0.0
Mn720 Mn 0.58658 0.65187 0.61826 0.0
Mn721 Mn 0.54356 0.67887 0.65069 0.0
C722 C 0.53479 0.61584 0.63227 0.0
C723 C 0.60535 0.64154 0.57804 0.0
C724 C 0.59661 0.67247 0.67719 0.0
O725 O 0.61117 0.69987 0.61047 0.0
O726 O 0.57589 0.71258 0.62753 0.0
C727 C 0.51107 0.69048 0.6051 0.0
N728 N 0.50966 0.67651 0.62935 0.0
C729 C 0.45601 0.66516 0.63697 0.0
C730 C 0.45668 0.67911 0.61192 0.0
C731 C 0.4842 0.69145 0.59575 0.0
C732 C 0.48288 0.66333 0.64449 0.0
H733 H 0.53275 0.70136 0.59332 0.0
C734 C 0.6012 0.71939 0.61445 0.0
O735 O 0.62042 0.64614 0.60078 0.0
O736 O 0.57942 0.64316 0.57851 0.0
N737 N 0.51097 0.64928 0.67423 0.0
C738 C 0.51425 0.63635 0.69764 0.0
C739 C 0.48922 0.62359 0.71647 0.0
C740 C 0.46162 0.62537 0.71151 0.0
C741 C 0.45855 0.63827 0.68704 0.0
C742 C 0.4838 0.64947 0.66858 0.0
H743 H 0.53613 0.63662 0.70229 0.0
O744 O 0.55513 0.60667 0.62676 0.0
O745 O 0.54488 0.64592 0.62845 0.0
O746 O 0.60187 0.65845 0.6578 0.0
O747 O 0.57713 0.68277 0.67551 0.0
C748 C 0.43174 0.64106 0.68044 0.0
C749 C 0.43027 0.65405 0.65523 0.0
H750 H 0.4364 0.68089 0.60507 0.0
H751 H 0.48503 0.70257 0.57654 0.0
H752 H 0.49159 0.61322 0.73508 0.0
H753 H 0.44272 0.61629 0.72644 0.0
H754 H 0.4119 0.63275 0.69436 0.0
H755 H 0.40934 0.65559 0.65018 0.0
Mn756 Mn 0.93153 0.59727 0.11495 0.0
Mn757 Mn 0.86434 0.55557 0.15153 0.0
C758 C 0.91841 0.5475 0.13151 0.0
C759 C 0.9554 0.61212 0.07214 0.0
C760 C 0.92568 0.60609 0.17624 0.0
O761 O 0.90788 0.62129 0.10742 0.0
O762 O 0.86578 0.59311 0.13435 0.0
C763 C 0.82105 0.53478 0.10424 0.0
N764 N 0.83215 0.52755 0.12693 0.0
C765 C 0.79273 0.47233 0.12311 0.0
C766 C 0.78073 0.47914 0.0998 0.0
C767 C 0.79517 0.5105 0.09018 0.0
C768 C 0.81912 0.49738 0.13587 0.0
H769 H 0.8317 0.55888 0.09696 0.0
C770 C 0.88189 0.61607 0.1181 0.0
O771 O 0.96896 0.62956 0.09336 0.0
O772 O 0.92857 0.58623 0.07595 0.0
N773 N 0.85792 0.51804 0.1696 0.0
C774 C 0.87157 0.5156 0.19293 0.0
C775 C 0.85998 0.48569 0.20513 0.0
C776 C 0.83366 0.4589 0.19385 0.0
C777 C 0.81938 0.46221 0.17031 0.0
C778 C 0.83251 0.49238 0.15864 0.0
H779 H 0.89113 0.53634 0.20214 0.0
O780 O 0.9471 0.56746 0.1236 0.0
O781 O 0.89733 0.55643 0.12801 0.0
O782 O 0.94213 0.61516 0.15431 0.0
O783 O 0.89675 0.58365 0.17754 0.0
C784 C 0.79199 0.437 0.15843 0.0
C785 C 0.77902 0.44183 0.13461 0.0
H786 H 0.76039 0.46052 0.08921 0.0
H787 H 0.78615 0.51602 0.07217 0.0
H788 H 0.87089 0.48339 0.22347 0.0
H789 H 0.82436 0.43603 0.20366 0.0
H790 H 0.78004 0.414 0.1678 0.0
H791 H 0.75807 0.42209 0.12568 0.0
Mn792 Mn 0.34426 0.94047 0.62124 0.0
Mn793 Mn 0.32669 0.86952 0.64754 0.0
C794 C 0.38562 0.9307 0.6307 0.0
C795 C 0.34823 0.9692 0.58219 0.0
C796 C 0.32648 0.92257 0.6802 0.0
O797 O 0.29602 0.91346 0.61658 0.0
O798 O 0.28909 0.86563 0.62839 0.0
C799 C 0.31784 0.83432 0.59646 0.0
N800 N 0.33282 0.84484 0.62074 0.0
C801 C 0.36549 0.82142 0.61253 0.0
C802 C 0.35028 0.8101 0.58754 0.0
C803 C 0.32629 0.81654 0.57949 0.0
C804 C 0.35568 0.83854 0.62881 0.0
H805 H 0.29968 0.83959 0.59004 0.0
C806 C 0.27893 0.88341 0.61894 0.0
O807 O 0.34397 0.97842 0.60575 0.0
O808 O 0.35006 0.94351 0.58141 0.0
N809 N 0.36072 0.86928 0.6667 0.0
C810 C 0.37356 0.88258 0.69112 0.0
C811 C 0.39837 0.87893 0.70181 0.0
C812 C 0.40962 0.86169 0.68729 0.0
C813 C 0.39531 0.84743 0.66262 0.0
C814 C 0.37021 0.85121 0.65329 0.0
H815 H 0.36525 0.89622 0.70215 0.0
O816 O 0.39115 0.95937 0.62661 0.0
O817 O 0.35602 0.90831 0.62788 0.0
O818 O 0.33792 0.94432 0.66208 0.0
O819 O 0.32029 0.89399 0.67631 0.0
C820 C 0.4061 0.83115 0.64615 0.0
C821 C 0.39091 0.81759 0.62143 0.0
H822 H 0.35712 0.79681 0.57422 0.0
H823 H 0.31455 0.80807 0.56016 0.0
H824 H 0.40917 0.88986 0.72094 0.0
H825 H 0.42947 0.85987 0.69513 0.0
H826 H 0.42743 0.83089 0.6514 0.0
H827 H 0.39986 0.80545 0.60891 0.0
Mn828 Mn 0.41625 0.33657 0.12297 0.0
Mn829 Mn 0.4611 0.31395 0.15814 0.0
C830 C 0.46685 0.37491 0.13736 0.0
C831 C 0.39847 0.34232 0.08051 0.0
C832 C 0.40621 0.31883 0.18264 0.0
O833 O 0.39258 0.28839 0.11815 0.0
O834 O 0.42831 0.27767 0.13724 0.0
C835 C 0.4922 0.29984 0.11309 0.0
N836 N 0.49443 0.31602 0.13626 0.0
C837 C 0.55007 0.33345 0.14061 0.0
C838 C 0.54852 0.3171 0.11673 0.0
C839 C 0.51951 0.30053 0.10273 0.0
C840 C 0.52242 0.33303 0.14929 0.0
H841 H 0.46962 0.28606 0.1029 0.0
C842 C 0.40265 0.26948 0.12418 0.0
O843 O 0.38217 0.3393 0.10232 0.0
O844 O 0.42507 0.34241 0.08348 0.0
N845 N 0.4941 0.3461 0.17973 0.0
C846 C 0.49135 0.36014 0.20265 0.0
C847 C 0.51826 0.37792 0.21894 0.0
C848 C 0.5473 0.37987 0.21211 0.0
C849 C 0.54941 0.36487 0.18856 0.0
C850 C 0.52219 0.34875 0.17248 0.0
H851 H 0.46869 0.35738 0.20867 0.0
O852 O 0.4461 0.38269 0.12957 0.0
O853 O 0.45809 0.34494 0.13497 0.0
O854 O 0.39973 0.33092 0.16231 0.0
O855 O 0.42771 0.311 0.18251 0.0
C856 C 0.57698 0.364 0.18103 0.0
C857 C 0.57754 0.34888 0.15681 0.0
H858 H 0.56932 0.31677 0.10917 0.0
H859 H 0.51802 0.28763 0.08441 0.0
H860 H 0.51638 0.38921 0.23718 0.0
H861 H 0.56767 0.39258 0.22531 0.0
H862 H 0.59773 0.37434 0.19398 0.0
H863 H 0.59899 0.34861 0.15116 0.0
H864 H 0.40441 0.03333 0.2977 0.0
H865 H 0.37458 0.10276 0.30707 0.0
H866 H 0.36321 0.10025 0.25871 0.0
H867 H 0.37349 0.08759 0.21329 0.0
H868 H 0.40638 0.02075 0.20282 0.0
H869 H 0.40387 0.01198 0.25183 0.0
C870 C 0.39415 0.04679 0.28919 0.0
C871 C 0.39019 0.06813 0.30569 0.0
C872 C 0.38862 0.04595 0.2611 0.0
C873 C 0.37756 0.08607 0.29459 0.0
C874 C 0.37128 0.0848 0.26695 0.0
C875 C 0.37865 0.07 0.22172 0.0
C876 C 0.39017 0.05491 0.20464 0.0
C877 C 0.37833 0.06612 0.24987 0.0
C878 C 0.39707 0.03234 0.21561 0.0
C879 C 0.39618 0.02778 0.2437 0.0
H880 H 0.36367 0.40094 0.72034 0.0
H881 H 0.26466 0.3732 0.7125 0.0
H882 H 0.25735 0.3651 0.76135 0.0
H883 H 0.28162 0.37657 0.80639 0.0
H884 H 0.38104 0.40686 0.81525 0.0
H885 H 0.38583 0.40275 0.76615 0.0
C886 C 0.34031 0.39185 0.72935 0.0
C887 C 0.31464 0.38744 0.71305 0.0
C888 C 0.33655 0.3882 0.75768 0.0
C889 C 0.28459 0.37644 0.7248 0.0
C890 C 0.28048 0.37207 0.75271 0.0
C891 C 0.30396 0.38092 0.79759 0.0
C892 C 0.33087 0.39174 0.81421 0.0
C893 C 0.30661 0.37936 0.76942 0.0
C894 C 0.35991 0.39792 0.80277 0.0
C895 C 0.36271 0.39601 0.77467 0.0
H896 H 0.95559 0.36231 0.21629 0.0
H897 H 0.88621 0.2636 0.20378 0.0
H898 H 0.88549 0.25328 0.25217 0.0
H899 H 0.89579 0.27465 0.29823 0.0
H900 H 0.96361 0.37346 0.3118 0.0
H901 H 0.97421 0.38151 0.26303 0.0
C902 C 0.94146 0.33834 0.22411 0.0
C903 C 0.92088 0.31373 0.20663 0.0
C904 C 0.94036 0.33279 0.25224 0.0
C905 C 0.9022 0.28285 0.21696 0.0
C906 C 0.90156 0.277 0.24464 0.0
C907 C 0.91371 0.29765 0.29052 0.0
C908 C 0.9288 0.32345 0.30837 0.0
C909 C 0.91918 0.30212 0.26255 0.0
C910 C 0.95193 0.35321 0.29834 0.0
C911 C 0.95771 0.35786 0.27044 0.0
H912 H 0.60668 0.9553 0.71498 0.0
H913 H 0.61859 0.87337 0.70748 0.0
H914 H 0.62746 0.87385 0.75606 0.0
H915 H 0.62133 0.89087 0.80112 0.0
H916 H 0.60776 0.97148 0.8099 0.0
H917 H 0.61062 0.97872 0.76059 0.0
C918 C 0.61242 0.93837 0.72392 0.0
C919 C 0.61169 0.91414 0.70776 0.0
C920 C 0.61666 0.93824 0.75219 0.0
C921 C 0.61879 0.89208 0.71959 0.0
C922 C 0.62369 0.89222 0.74739 0.0
C923 C 0.62014 0.91069 0.79222 0.0
C924 C 0.6143 0.93057 0.80894 0.0
C925 C 0.62111 0.91418 0.76399 0.0
C926 C 0.61262 0.95611 0.79735 0.0
C927 C 0.61386 0.95997 0.76914 0.0
H928 H 0.64064 0.59695 0.29882 0.0
H929 H 0.73993 0.62579 0.3069 0.0
H930 H 0.74699 0.63268 0.25798 0.0
H931 H 0.72255 0.61971 0.21302 0.0
H932 H 0.62294 0.58868 0.20391 0.0
H933 H 0.61823 0.59375 0.25291 0.0
C934 C 0.66405 0.60615 0.28987 0.0
C935 C 0.68981 0.611 0.30631 0.0
C936 C 0.66763 0.60886 0.26149 0.0
C937 C 0.7199 0.62215 0.29455 0.0
C938 C 0.72385 0.62574 0.26657 0.0
C939 C 0.70007 0.61506 0.22174 0.0
C940 C 0.67309 0.60368 0.20511 0.0
C941 C 0.69754 0.61752 0.24982 0.0
C942 C 0.64405 0.59769 0.21642 0.0
C943 C 0.64133 0.6003 0.24445 0.0
H944 H 0.03347 0.6367 0.70858 0.0
H945 H 0.0873 0.73849 0.7001 0.0
H946 H 0.08407 0.74485 0.74882 0.0
H947 H 0.07802 0.72124 0.79392 0.0
H948 H 0.02727 0.61955 0.80308 0.0
H949 H 0.01665 0.6131 0.7543 0.0
C950 C 0.0429 0.6602 0.71731 0.0
C951 C 0.06038 0.68713 0.70084 0.0
C952 C 0.04221 0.66359 0.74563 0.0
C953 C 0.07337 0.7175 0.71239 0.0
C954 C 0.07194 0.72111 0.74031 0.0
C955 C 0.06326 0.69775 0.78534 0.0
C956 C 0.05322 0.67091 0.80195 0.0
C957 C 0.05816 0.69433 0.75723 0.0
C958 C 0.0347 0.64052 0.7907 0.0
C959 C 0.02906 0.63687 0.76273 0.0
H960 H 0.96415 0.5952 0.20873 0.0
H961 H 0.91462 0.64786 0.2029 0.0
H962 H 0.91763 0.65515 0.25197 0.0
H963 H 0.92307 0.63554 0.29647 0.0
H964 H 0.9708 0.58122 0.30274 0.0
H965 H 0.98044 0.58594 0.25382 0.0
C966 C 0.95563 0.60973 0.21816 0.0
C967 C 0.9396 0.6214 0.20231 0.0
C968 C 0.95651 0.61285 0.24658 0.0
C969 C 0.9276 0.63924 0.21473 0.0
C970 C 0.92891 0.64299 0.24283 0.0
C971 C 0.93695 0.62614 0.28722 0.0
C972 C 0.94654 0.60837 0.30306 0.0
C973 C 0.94171 0.62838 0.25902 0.0
C974 C 0.96381 0.59555 0.29093 0.0
C975 C 0.9689 0.59788 0.2629 0.0
H976 H 0.28191 0.90424 0.79933 0.0
H977 H 0.38029 0.97458 0.81179 0.0
H978 H 0.38703 0.98554 0.76304 0.0
H979 H 0.36748 0.96618 0.71643 0.0
H980 H 0.2698 0.89295 0.70513 0.0
H981 H 0.25992 0.89233 0.75362 0.0
C982 C 0.30446 0.92289 0.79143 0.0
C983 C 0.33058 0.9385 0.80896 0.0
C984 C 0.30835 0.92807 0.76342 0.0
C985 C 0.35975 0.96253 0.79865 0.0
C986 C 0.36371 0.9684 0.77071 0.0
C987 C 0.34381 0.95108 0.7246 0.0
C988 C 0.31935 0.9296 0.70744 0.0
C989 C 0.3386 0.95007 0.75277 0.0
C990 C 0.28888 0.90964 0.71811 0.0
C991 C 0.28329 0.90916 0.74582 0.0
H992 H 0.3724 0.28029 0.30182 0.0
H993 H 0.40548 0.38024 0.30971 0.0
H994 H 0.40389 0.38522 0.2604 0.0
H995 H 0.40407 0.36287 0.21525 0.0
H996 H 0.37264 0.26306 0.20834 0.0
H997 H 0.36151 0.25587 0.2568 0.0
C998 C 0.37787 0.3028 0.29271 0.0
C999 C 0.38885 0.32981 0.30912 0.0
C1000 C 0.3775 0.30551 0.26443 0.0
C1001 C 0.39646 0.35906 0.29732 0.0
C1002 C 0.39594 0.36196 0.26913 0.0
C1003 C 0.39336 0.33937 0.22425 0.0
C1004 C 0.38909 0.31349 0.20843 0.0
C1005 C 0.388 0.33563 0.25242 0.0
C1006 C 0.3759 0.28322 0.22026 0.0
C1007 C 0.36986 0.27917 0.24799 0.0
H1008 H 0.10608 0.3903 0.71933 0.0
H1009 H 0.02366 0.40122 0.71148 0.0
H1010 H 0.01708 0.39834 0.7609 0.0
H1011 H 0.04116 0.40256 0.80643 0.0
H1012 H 0.12493 0.3935 0.81286 0.0
H1013 H 0.12428 0.38507 0.76417 0.0
C1014 C 0.08604 0.39093 0.72845 0.0
C1015 C 0.06538 0.39594 0.71193 0.0
C1016 C 0.08292 0.38995 0.75674 0.0
C1017 C 0.03961 0.39695 0.72385 0.0
C1018 C 0.03611 0.3957 0.75212 0.0
C1019 C 0.05845 0.39752 0.7972 0.0
C1020 C 0.08311 0.39868 0.81312 0.0
C1021 C 0.05846 0.39356 0.76885 0.0
C1022 C 0.10578 0.39271 0.80094 0.0
C1023 C 0.10554 0.3881 0.77308 0.0
H1024 H 0.7287 0.10291 0.3035 0.0
H1025 H 0.63337 0.02424 0.31309 0.0
H1026 H 0.62941 0.01491 0.26409 0.0
H1027 H 0.64959 0.03641 0.21806 0.0
H1028 H 0.74419 0.11683 0.2096 0.0
H1029 H 0.75229 0.11786 0.25841 0.0
C1030 C 0.70747 0.08305 0.2949 0.0
C1031 C 0.68131 0.06444 0.31174 0.0
C1032 C 0.70516 0.07843 0.26679 0.0
C1033 C 0.65392 0.03874 0.3005 0.0
C1034 C 0.65153 0.03367 0.27244 0.0
C1035 C 0.67236 0.05323 0.22691 0.0
C1036 C 0.69631 0.07654 0.21042 0.0
C1037 C 0.67647 0.05433 0.25525 0.0
C1038 C 0.72552 0.09869 0.22203 0.0
C1039 C 0.73006 0.09943 0.24993 0.0
H1040 H 0.62063 0.72136 0.71225 0.0
H1041 H 0.59924 0.62446 0.70359 0.0
H1042 H 0.60348 0.62031 0.75273 0.0
H1043 H 0.60276 0.64137 0.7985 0.0
H1044 H 0.62251 0.73801 0.80595 0.0
H1045 H 0.63015 0.74544 0.75719 0.0
C1046 C 0.61805 0.69972 0.72109 0.0
C1047 C 0.60952 0.67324 0.70446 0.0
C1048 C 0.6198 0.69736 0.74928 0.0
C1049 C 0.60614 0.64527 0.71602 0.0
C1050 C 0.60816 0.64278 0.74417 0.0
C1051 C 0.60993 0.66434 0.78947 0.0
C1052 C 0.61179 0.68903 0.8057 0.0
C1053 C 0.61348 0.66822 0.76112 0.0
C1054 C 0.62073 0.71862 0.79378 0.0
C1055 C 0.62494 0.72284 0.76588 0.0
H1056 H 0.36121 0.13141 0.14414 0.0
H1057 H 0.41452 0.14628 0.07067 0.0
H1058 H 0.41181 0.19423 0.06105 0.0
H1059 H 0.40802 0.23877 0.08094 0.0
H1060 H 0.35699 0.22488 0.15563 0.0
H1061 H 0.34403 0.1694 0.15717 0.0
C1062 C 0.37047 0.14416 0.12524 0.0
C1063 C 0.388 0.13559 0.1081 0.0
C1064 C 0.36981 0.17232 0.12045 0.0
C1065 C 0.40057 0.1524 0.08391 0.0
C1066 C 0.39948 0.18012 0.07867 0.0
C1067 C 0.39252 0.22297 0.09664 0.0
C1068 C 0.38335 0.23554 0.11811 0.0
C1069 C 0.38616 0.19143 0.09781 0.0
C1070 C 0.36389 0.21536 0.13877 0.0
C1071 C 0.35689 0.18379 0.13983 0.0
H1072 H 0.13189 0.36154 0.6534 0.0
H1073 H 0.14055 0.40035 0.57348 0.0
H1074 H 0.18784 0.39583 0.56498 0.0
H1075 H 0.23345 0.39368 0.58506 0.0
H1076 H 0.22529 0.35645 0.66559 0.0
H1077 H 0.17081 0.34658 0.66903 0.0
C1078 C 0.14318 0.36729 0.63363 0.0
C1079 C 0.13287 0.38108 0.61402 0.0
C1080 C 0.17085 0.36546 0.62927 0.0
C1081 C 0.14792 0.38922 0.58866 0.0
C1082 C 0.17525 0.3871 0.58398 0.0
C1083 C 0.21903 0.38186 0.60271 0.0
C1084 C 0.23302 0.37554 0.62498 0.0
C1085 C 0.18799 0.37708 0.60476 0.0
C1086 C 0.21464 0.361 0.64811 0.0
C1087 C 0.18366 0.35575 0.65019 0.0
H1088 H 0.86922 0.22813 0.13718 0.0
H1089 H 0.84469 0.26391 0.06698 0.0
H1090 H 0.80007 0.21099 0.05736 0.0
H1091 H 0.76011 0.16013 0.07713 0.0
H1092 H 0.78224 0.12562 0.14945 0.0
H1093 H 0.83603 0.17173 0.14981 0.0
C1094 C 0.85521 0.22377 0.1189 0.0
C1095 C 0.86004 0.24958 0.10273 0.0
C1096 C 0.82864 0.19355 0.11435 0.0
C1097 C 0.84145 0.24414 0.07944 0.0
C1098 C 0.81564 0.21398 0.07422 0.0
C1099 C 0.77741 0.16195 0.09202 0.0
C1100 C 0.76754 0.1398 0.11322 0.0
C1101 C 0.80772 0.18918 0.09267 0.0
C1102 C 0.78967 0.14235 0.13278 0.0
C1103 C 0.82024 0.16897 0.1332 0.0
H1104 H 0.64497 0.77501 0.63671 0.0
H1105 H 0.58888 0.73366 0.56503 0.0
H1106 H 0.59031 0.78353 0.55474 0.0
H1107 H 0.5941 0.83214 0.57392 0.0
H1108 H 0.64951 0.87334 0.64596 0.0
H1109 H 0.66272 0.83095 0.64807 0.0
C1110 C 0.63487 0.77767 0.61796 0.0
C1111 C 0.61685 0.75087 0.60162 0.0
C1112 C 0.63502 0.80623 0.61266 0.0
C1113 C 0.6032 0.75419 0.57767 0.0
C1114 C 0.60355 0.78256 0.57206 0.0
C1115 C 0.61058 0.83276 0.5891 0.0
C1116 C 0.62083 0.85563 0.60977 0.0
C1117 C 0.61743 0.80788 0.59047 0.0
C1118 C 0.64173 0.85611 0.62967 0.0
C1119 C 0.64885 0.83157 0.63111 0.0
H1120 H 0.76592 0.61789 0.07594 0.0
H1121 H 0.76993 0.65431 0.15611 0.0
H1122 H 0.82521 0.66722 0.16073 0.0
H1123 H 0.8647 0.65203 0.14724 0.0
H1124 H 0.8606 0.61477 0.06738 0.0
H1125 H 0.81353 0.61891 0.0569 0.0
C1126 C 0.77965 0.63059 0.09363 0.0
C1127 C 0.76405 0.63509 0.1157 0.0
C1128 C 0.81112 0.63682 0.09647 0.0
C1129 C 0.78169 0.65098 0.13879 0.0
C1130 C 0.81313 0.65778 0.14163 0.0
C1131 C 0.85452 0.64659 0.12705 0.0
C1132 C 0.8657 0.63286 0.10818 0.0
C1133 C 0.82712 0.6485 0.12142 0.0
C1134 C 0.85238 0.6256 0.08213 0.0
C1135 C 0.82517 0.62753 0.07628 0.0
H1136 H 0.24735 0.84487 0.57712 0.0
H1137 H 0.23439 0.88462 0.65063 0.0
H1138 H 0.17877 0.8422 0.653 0.0
H1139 H 0.13981 0.78696 0.64066 0.0
H1140 H 0.15342 0.74657 0.56786 0.0
H1141 H 0.20228 0.79636 0.55798 0.0
C1142 C 0.23176 0.84505 0.5928 0.0
C1143 C 0.24462 0.86761 0.61365 0.0
C1144 C 0.20006 0.82016 0.5943 0.0
C1145 C 0.22466 0.86759 0.63421 0.0
C1146 C 0.193 0.8431 0.63574 0.0
C1147 C 0.15255 0.78984 0.62185 0.0
C1148 C 0.14321 0.76342 0.60492 0.0
C1149 C 0.18113 0.81822 0.61683 0.0
C1150 C 0.16006 0.76689 0.58089 0.0
C1151 C 0.18828 0.79518 0.57551 0.0
H1152 H 0.84908 0.60096 0.42836 0.0
H1153 H 0.87577 0.64569 0.35011 0.0
H1154 H 0.83172 0.65659 0.35146 0.0
H1155 H 0.77817 0.63956 0.36901 0.0
H1156 H 0.74839 0.58913 0.44465 0.0
H1157 H 0.80108 0.59497 0.4509 0.0
C1158 C 0.84617 0.61464 0.41237 0.0
C1159 C 0.86561 0.62281 0.38928 0.0
C1160 C 0.81969 0.61916 0.41269 0.0
C1161 C 0.86127 0.63967 0.36822 0.0
C1162 C 0.83581 0.64547 0.36885 0.0
C1163 C 0.78397 0.63159 0.38757 0.0
C1164 C 0.75977 0.61429 0.40651 0.0
C1165 C 0.81371 0.63344 0.39015 0.0
C1166 C 0.76696 0.60306 0.43012 0.0
C1167 C 0.79693 0.60592 0.43343 0.0
H1168 H 0.15112 0.76209 0.9262 0.0
H1169 H 0.12586 0.78148 0.84785 0.0
H1170 H 0.17235 0.83484 0.84835 0.0
H1171 H 0.22717 0.86793 0.86475 0.0
H1172 H 0.25481 0.84612 0.94098 0.0
H1173 H 0.20057 0.80225 0.94815 0.0
C1174 C 0.15484 0.7788 0.91008 0.0
C1175 C 0.13524 0.76814 0.88707 0.0
C1176 C 0.18272 0.80872 0.90985 0.0
C1177 C 0.14052 0.78949 0.86589 0.0
C1178 C 0.16744 0.81979 0.86598 0.0
C1179 C 0.22071 0.85462 0.88358 0.0
C1180 C 0.24461 0.86012 0.9024 0.0
C1181 C 0.18985 0.82864 0.88691 0.0
C1182 C 0.23651 0.84245 0.92647 0.0
C1183 C 0.2056 0.81709 0.93036 0.0
H1184 H 0.39771 0.15801 0.43147 0.0
H1185 H 0.36366 0.12976 0.35003 0.0
H1186 H 0.35118 0.17256 0.34665 0.0
H1187 H 0.36243 0.22493 0.36305 0.0
H1188 H 0.39814 0.2545 0.44385 0.0
H1189 H 0.3967 0.20405 0.45183 0.0
C1190 C 0.3861 0.1604 0.41357 0.0
C1191 C 0.38135 0.14088 0.39108 0.0
C1192 C 0.37976 0.18563 0.41158 0.0
C1193 C 0.36707 0.14443 0.36765 0.0
C1194 C 0.36027 0.16908 0.36563 0.0
C1195 C 0.36821 0.21948 0.38285 0.0
C1196 C 0.38014 0.24304 0.40292 0.0
C1197 C 0.36819 0.19085 0.38691 0.0
C1198 C 0.38836 0.23633 0.42832 0.0
C1199 C 0.38802 0.2077 0.43271 0.0
H1200 H 0.24233 0.39917 0.93979 0.0
H1201 H 0.22983 0.36019 0.85955 0.0
H1202 H 0.17505 0.34978 0.85851 0.0
H1203 H 0.13726 0.36537 0.87555 0.0
H1204 H 0.15145 0.4084 0.95419 0.0
H1205 H 0.19833 0.4028 0.96138 0.0
C1206 C 0.22693 0.38687 0.92275 0.0
C1207 C 0.23972 0.38017 0.89986 0.0
C1208 C 0.19589 0.38222 0.92192 0.0
C1209 C 0.22012 0.36506 0.87749 0.0
C1210 C 0.18895 0.35948 0.87679 0.0
C1211 C 0.14961 0.37175 0.89485 0.0
C1212 C 0.141 0.38704 0.91441 0.0
C1213 C 0.17735 0.36981 0.89819 0.0
C1214 C 0.15749 0.3961 0.93909 0.0
C1215 C 0.18461 0.39338 0.94297 0.0
H1216 H 0.78076 0.12889 0.37563 0.0
H1217 H 0.74567 0.14402 0.45088 0.0
H1218 H 0.79738 0.19085 0.46001 0.0
H1219 H 0.84544 0.235 0.4395 0.0
H1220 H 0.87847 0.22171 0.36245 0.0
H1221 H 0.83571 0.16633 0.36141 0.0
C1222 C 0.78518 0.14136 0.39478 0.0
C1223 C 0.75968 0.13314 0.41263 0.0
C1224 C 0.81459 0.16909 0.39922 0.0
C1225 C 0.7652 0.14976 0.43709 0.0
C1226 C 0.79464 0.17687 0.44207 0.0
C1227 C 0.84436 0.21932 0.42338 0.0
C1228 C 0.86494 0.2322 0.40111 0.0
C1229 C 0.81866 0.18797 0.42233 0.0
C1230 C 0.86306 0.21206 0.37995 0.0
C1231 C 0.83822 0.18054 0.37914 0.0
H1232 H 0.60849 0.76114 0.93983 0.0
H1233 H 0.65482 0.77014 0.86339 0.0
H1234 H 0.66783 0.82551 0.8598 0.0
H1235 H 0.65098 0.86419 0.87203 0.0
H1236 H 0.60389 0.85473 0.94817 0.0
H1237 H 0.60687 0.80716 0.95883 0.0
C1238 C 0.62319 0.77592 0.9233 0.0
C1239 C 0.63064 0.76183 0.90186 0.0
C1240 C 0.62967 0.80742 0.92104 0.0
C1241 C 0.64921 0.78078 0.88024 0.0
C1242 C 0.65612 0.81228 0.87796 0.0
C1243 C 0.64313 0.8527 0.8916 0.0
C1244 C 0.6271 0.86256 0.90927 0.0
C1245 C 0.64435 0.82497 0.89727 0.0
C1246 C 0.61649 0.84746 0.93442 0.0
C1247 C 0.61783 0.82004 0.94034 0.0
H1248 H 0.38494 0.01018 0.95193 0.0
H1249 H 0.33589 0.91558 0.98551 0.0
H1250 H 0.3462 0.93747 0.03135 0.0
H1251 H 0.37068 0.98357 0.06204 0.0
H1252 H 0.42369 0.07799 0.02851 0.0
H1253 H 0.41041 0.05627 0.98266 0.0
C1254 C 0.37633 0.99443 0.96932 0.0
C1255 C 0.35955 0.96135 0.96539 0.0
C1256 C 0.38322 0.00718 0.99566 0.0
C1257 C 0.34892 0.94116 0.98806 0.0
C1258 C 0.35479 0.95365 0.01427 0.0
C1259 C 0.37915 0.99935 0.04467 0.0
C1260 C 0.39804 0.03231 0.04863 0.0
C1261 C 0.37214 0.98662 0.01834 0.0
C1262 C 0.4092 0.05249 0.02596 0.0
C1263 C 0.40157 0.0401 0.99974 0.0
H1264 H 0.38389 0.32643 0.48848 0.0
H1265 H 0.33745 0.3675 0.44292 0.0
H1266 H 0.3184 0.37897 0.48492 0.0
H1267 H 0.31867 0.38116 0.53469 0.0
H1268 H 0.36177 0.33687 0.58042 0.0
H1269 H 0.37804 0.32231 0.5383 0.0
C1270 C 0.36934 0.33761 0.48782 0.0
C1271 C 0.36239 0.34652 0.46275 0.0
C1272 C 0.35792 0.34352 0.51203 0.0
C1273 C 0.34311 0.36049 0.46202 0.0
C1274 C 0.33231 0.36715 0.48602 0.0
C1275 C 0.33121 0.36789 0.53537 0.0
C1276 C 0.3393 0.36031 0.56052 0.0
C1277 C 0.34009 0.35932 0.51114 0.0
C1278 C 0.35521 0.34284 0.56124 0.0
C1279 C 0.3647 0.33474 0.53719 0.0
H1280 H 0.05844 0.40579 0.98975 0.0
H1281 H 0.97358 0.35586 0.94129 0.0
H1282 H 0.94069 0.34091 0.98233 0.0
H1283 H 0.9362 0.34402 0.03209 0.0
H1284 H 0.02164 0.39043 0.08033 0.0
H1285 H 0.05424 0.40485 0.03934 0.0
C1286 C 0.03274 0.39146 0.98821 0.0
C1287 C 0.01839 0.38215 0.96257 0.0
C1288 C 0.01414 0.38253 0.01185 0.0
C1289 C 0.98513 0.36323 0.96083 0.0
C1290 C 0.96635 0.35485 0.98427 0.0
C1291 C 0.96196 0.35726 0.03354 0.0
C1292 C 0.97656 0.36651 0.05913 0.0
C1293 C 0.98058 0.36471 0.00988 0.0
C1294 C 0.00991 0.38313 0.06084 0.0
C1295 C 0.02854 0.39141 0.03742 0.0
H1296 H 0.66257 0.05779 0.49031 0.0
H1297 H 0.61868 0.97248 0.44197 0.0
H1298 H 0.60348 0.93992 0.48294 0.0
H1299 H 0.60122 0.93558 0.53256 0.0
H1300 H 0.64857 0.0204 0.58122 0.0
H1301 H 0.66414 0.05327 0.54022 0.0
C1302 C 0.64972 0.03207 0.48883 0.0
C1303 C 0.64147 0.01754 0.46317 0.0
C1304 C 0.64176 0.01344 0.51252 0.0
C1305 C 0.62528 0.98422 0.46148 0.0
C1306 C 0.61653 0.96558 0.4849 0.0
C1307 C 0.61511 0.96127 0.53416 0.0
C1308 C 0.62353 0.97557 0.55986 0.0
C1309 C 0.62445 0.97991 0.51052 0.0
C1310 C 0.64187 0.00884 0.56165 0.0
C1311 C 0.65063 0.02763 0.53821 0.0
H1312 H 0.66578 0.60161 0.02516 0.0
H1313 H 0.6212 0.64317 0.07265 0.0
H1314 H 0.60632 0.66025 0.03132 0.0
H1315 H 0.60409 0.66157 0.98169 0.0
H1316 H 0.65119 0.62297 0.93387 0.0
H1317 H 0.66721 0.60677 0.97526 0.0
C1318 C 0.65291 0.61451 0.02642 0.0
C1319 C 0.64435 0.62087 0.05194 0.0
C1320 C 0.64489 0.62478 1.00252 0.0
C1321 C 0.62806 0.63797 0.05328 0.0
C1322 C 0.61947 0.64768 0.02965 0.0
C1323 C 0.61801 0.64975 0.98033 0.0
C1324 C 0.62621 0.64322 0.95476 0.0
C1325 C 0.62748 0.64094 1.00417 0.0
C1326 C 0.64461 0.62828 0.95332 0.0
C1327 C 0.65365 0.6189 0.97698 0.0
H1328 H 0.98806 0.62917 0.55825 0.0
H1329 H 0.08294 0.66917 0.52574 0.0
H1330 H 0.06168 0.65906 0.47966 0.0
H1331 H 0.01583 0.63698 0.44846 0.0
H1332 H 0.92074 0.59253 0.48116 0.0
H1333 H 0.94218 0.60628 0.52709 0.0
C1334 C 0.00403 0.63585 0.54104 0.0
C1335 C 0.03701 0.65 0.54538 0.0
C1336 C 0.99155 0.62908 0.51458 0.0
C1337 C 0.05744 0.65815 0.52292 0.0
C1338 C 0.0453 0.65242 0.49656 0.0
C1339 C 0.99988 0.6306 0.46566 0.0
C1340 C 0.96678 0.61395 0.46145 0.0
C1341 C 0.01238 0.63766 0.49212 0.0
C1342 C 0.94632 0.60534 0.48392 0.0
C1343 C 0.95856 0.6132 0.51019 0.0
H1344 H 0.61613 0.93927 0.98733 0.0
H1345 H 0.66024 0.02695 0.94208 0.0
H1346 H 0.67843 0.05731 0.98424 0.0
H1347 H 0.67846 0.05885 0.03403 0.0
H1348 H 0.63772 0.97138 0.07941 0.0
H1349 H 0.62185 0.94083 0.03713 0.0
C1350 C 0.62993 0.96502 0.98677 0.0
C1351 C 0.63651 0.98096 0.96175 0.0
C1352 C 0.64086 0.98224 0.01105 0.0
C1353 C 0.65487 0.01424 0.96114 0.0
C1354 C 0.66517 0.03157 0.98522 0.0
C1355 C 0.66645 0.03309 0.0346 0.0
C1356 C 0.65895 0.01728 0.05969 0.0
C1357 C 0.65784 0.01583 0.01029 0.0
C1358 C 0.64378 0.98398 0.06028 0.0
C1359 C 0.63454 0.96656 0.03614 0.0
H1360 H 0.65889 0.59434 0.48313 0.0
H1361 H 0.62367 0.64441 0.43517 0.0
H1362 H 0.60571 0.659 0.47627 0.0
H1363 H 0.59868 0.65618 0.52604 0.0
H1364 H 0.63813 0.60994 0.57396 0.0
H1365 H 0.65575 0.5952 0.53285 0.0
C1366 C 0.64741 0.60858 0.48173 0.0
C1367 C 0.6424 0.6181 0.45617 0.0
C1368 C 0.63779 0.61744 0.50547 0.0
C1369 C 0.62787 0.63687 0.45463 0.0
C1370 C 0.61747 0.64509 0.47812 0.0
C1371 C 0.61116 0.6429 0.5274 0.0
C1372 C 0.61683 0.63387 0.55295 0.0
C1373 C 0.62205 0.63527 0.50366 0.0
C1374 C 0.63348 0.61714 0.55451 0.0
C1375 C 0.64351 0.60865 0.53101 0.0
H1376 H 0.01805 0.64746 0.05749 0.0
H1377 H 0.92295 0.59649 0.02483 0.0
H1378 H 0.9441 0.60875 0.97884 0.0
H1379 H 0.98968 0.63208 0.94763 0.0
H1380 H 0.08503 0.67918 0.97987 0.0
H1381 H 0.06394 0.67048 0.02602 0.0
C1382 C 0.00205 0.63931 0.04026 0.0
C1383 C 0.969 0.62116 0.04455 0.0
C1384 C 0.01445 0.64565 0.01372 0.0
C1385 C 0.9485 0.61038 0.02206 0.0
C1386 C 0.96057 0.61741 0.99573 0.0
C1387 C 0.00581 0.64066 0.96477 0.0
C1388 C 0.03884 0.65635 0.96033 0.0
C1389 C 0.9935 0.63475 0.99128 0.0
C1390 C 0.05948 0.66696 0.98275 0.0
C1391 C 0.04743 0.66201 0.00916 0.0
H1392 H 0.3292 0.94575 0.53186 0.0
H1393 H 0.37649 0.03352 0.5767 0.0
H1394 H 0.38981 0.06383 0.53432 0.0
H1395 H 0.39185 0.06492 0.48433 0.0
H1396 H 0.34147 0.9771 0.4398 0.0
H1397 H 0.32513 0.94714 0.48225 0.0
C1398 C 0.34208 0.97154 0.5323 0.0
C1399 C 0.35223 0.98748 0.55721 0.0
C1400 C 0.34917 0.98869 0.50795 0.0
C1401 C 0.36846 0.02082 0.55769 0.0
C1402 C 0.37621 0.0381 0.53349 0.0
C1403 C 0.37696 0.03925 0.484 0.0
C1404 C 0.36816 0.02314 0.45905 0.0
C1405 C 0.36729 0.02225 0.50848 0.0
C1406 C 0.34851 0.98997 0.45878 0.0
C1407 C 0.33932 0.97283 0.48303 0.0
H1408 H 0.35821 0.36424 0.06781 0.0
H1409 H 0.4145 0.3275 0.03222 0.0
H1410 H 0.39883 0.33465 0.98691 0.0
H1411 H 0.3719 0.35465 0.95717 0.0
H1412 H 0.32004 0.39626 0.99268 0.0
H1413 H 0.33073 0.38364 0.03806 0.0
C1414 C 0.36677 0.35755 0.05011 0.0
C1415 C 0.38749 0.34541 0.05333 0.0
C1416 C 0.35841 0.36262 0.02405 0.0
C1417 C 0.39868 0.33711 0.03024 0.0
C1418 C 0.38968 0.34112 1.00432 0.0
C1419 C 0.36253 0.36041 0.97487 0.0
C1420 C 0.34504 0.37611 0.97168 0.0
C1421 C 0.36992 0.35427 1.00094 0.0
C1422 C 0.33353 0.38409 0.99473 0.0
C1423 C 0.33972 0.37697 0.02066 0.0
H1424 H 0.05191 0.39596 0.53252 0.0
H1425 H 0.96621 0.34465 0.5798 0.0
H1426 H 0.93432 0.32764 0.53825 0.0
H1427 H 0.93077 0.32951 0.48834 0.0
H1428 H 0.01712 0.37787 0.44135 0.0
H1429 H 0.0488 0.39383 0.48284 0.0
C1430 C 0.02626 0.38087 0.5337 0.0
C1431 C 0.01137 0.37178 0.55916 0.0
C1432 C 0.00821 0.3708 0.50976 0.0
C1433 C 0.97819 0.3519 0.56042 0.0
C1434 C 0.95996 0.34231 0.53667 0.0
C1435 C 0.95653 0.34344 0.48724 0.0
C1436 C 0.97159 0.35278 0.46183 0.0
C1437 C 0.97468 0.35196 0.51123 0.0
C1438 C 0.00498 0.37041 0.46066 0.0
C1439 C 0.02311 0.37961 0.48437 0.0
H1440 H 0.49707 0.0597 0.17097 0.0
H1441 H 0.51937 0.12612 0.10554 0.0
H1442 H 0.5705 0.12839 0.09867 0.0
H1443 H 0.60671 0.10747 0.10885 0.0
H1444 H 0.58555 0.04347 0.17606 0.0
H1445 H 0.53629 0.04428 0.18493 0.0
C1446 C 0.51383 0.07572 0.15604 0.0
C1447 C 0.50483 0.09303 0.13901 0.0
C1448 C 0.54322 0.07703 0.15238 0.0
C1449 C 0.52622 0.11315 0.11926 0.0
C1450 C 0.55517 0.11399 0.11503 0.0
C1451 C 0.59172 0.09453 0.1259 0.0
C1452 C 0.60018 0.07634 0.14241 0.0
C1453 C 0.56364 0.0955 0.13109 0.0
C1454 C 0.57979 0.05825 0.16355 0.0
C1455 C 0.55169 0.05872 0.16862 0.0
H1456 H 0.50893 0.56534 0.6658 0.0
H1457 H 0.48581 0.61009 0.6014 0.0
H1458 H 0.43433 0.56152 0.59502 0.0
H1459 H 0.39689 0.50481 0.60638 0.0
H1460 H 0.41972 0.46149 0.67223 0.0
H1461 H 0.47004 0.51076 0.67962 0.0
C1462 C 0.49204 0.56477 0.65108 0.0
C1463 C 0.50083 0.59134 0.63441 0.0
C1464 C 0.46249 0.53684 0.64768 0.0
C1465 C 0.47919 0.59017 0.61493 0.0
C1466 C 0.45001 0.56219 0.61096 0.0
C1467 C 0.41261 0.50655 0.62273 0.0
C1468 C 0.40409 0.48002 0.63949 0.0
C1469 C 0.44151 0.5352 0.62702 0.0
C1470 C 0.4254 0.48194 0.65965 0.0
C1471 C 0.45417 0.51007 0.66386 0.0
H1472 H 0.93514 0.43438 0.16972 0.0
H1473 H 0.86189 0.38501 0.11015 0.0
H1474 H 0.8532 0.43036 0.10682 0.0
H1475 H 0.87419 0.48803 0.11424 0.0
H1476 H 0.95003 0.538 0.17169 0.0
H1477 H 0.95012 0.48896 0.18245 0.0
C1478 C 0.91664 0.43328 0.15664 0.0
C1479 C 0.89883 0.40621 0.14056 0.0
C1480 C 0.91277 0.46001 0.15402 0.0
C1481 C 0.87522 0.40515 0.12338 0.0
C1482 C 0.87065 0.43138 0.12111 0.0
C1483 C 0.88985 0.48779 0.12981 0.0
C1484 C 0.91189 0.51645 0.14237 0.0
C1485 C 0.8903 0.4595 0.13541 0.0
C1486 C 0.93275 0.51612 0.16193 0.0
C1487 C 0.93289 0.48812 0.168 0.0
H1488 H 0.40637 0.89596 0.60268 0.0
H1489 H 0.42691 0.95697 0.67195 0.0
H1490 H 0.47449 0.95338 0.68169 0.0
H1491 H 0.51182 0.93511 0.66912 0.0
H1492 H 0.49114 0.87289 0.60076 0.0
H1493 H 0.44216 0.87443 0.592 0.0
C1494 C 0.42097 0.90783 0.6202 0.0
C1495 C 0.41255 0.92567 0.63726 0.0
C1496 C 0.44832 0.90551 0.62574 0.0
C1497 C 0.43249 0.94235 0.65907 0.0
C1498 C 0.45968 0.94033 0.66461 0.0
C1499 C 0.49587 0.9209 0.65298 0.0
C1500 C 0.50465 0.90338 0.63596 0.0
C1501 C 0.46782 0.92196 0.64813 0.0
C1502 C 0.48437 0.88579 0.6146 0.0
C1503 C 0.45671 0.88723 0.60927 0.0
H1504 H 0.57945 0.50954 0.16305 0.0
H1505 H 0.62441 0.48385 0.10071 0.0
H1506 H 0.58069 0.42853 0.10248 0.0
H1507 H 0.52488 0.39012 0.11608 0.0
H1508 H 0.47943 0.41805 0.17636 0.0
H1509 H 0.52803 0.4693 0.18165 0.0
C1510 C 0.57999 0.49158 0.15037 0.0
C1511 C 0.60518 0.50058 0.13201 0.0
C1512 C 0.55441 0.46016 0.15105 0.0
C1513 C 0.60554 0.47729 0.1154 0.0
C1514 C 0.58036 0.44573 0.11624 0.0
C1515 C 0.52617 0.40703 0.13107 0.0
C1516 C 0.49872 0.40035 0.14595 0.0
C1517 C 0.554 0.43714 0.13322 0.0
C1518 C 0.50035 0.42268 0.16485 0.0
C1519 C 0.52805 0.45209 0.1677 0.0
H1520 H 0.10883 0.51504 0.60964 0.0
H1521 H 0.04028 0.47195 0.6739 0.0
H1522 H 0.0416 0.52223 0.68215 0.0
H1523 H 0.05844 0.57709 0.66805 0.0
H1524 H 0.12975 0.62172 0.60609 0.0
H1525 H 0.13186 0.57271 0.6003 0.0
C1526 C 0.09504 0.51705 0.62601 0.0
C1527 C 0.07525 0.49014 0.64173 0.0
C1528 C 0.09636 0.54632 0.63096 0.0
C1529 C 0.05622 0.49258 0.66196 0.0
C1530 C 0.05696 0.5213 0.66668 0.0
C1531 C 0.07534 0.57638 0.65407 0.0
C1532 C 0.09405 0.60291 0.63765 0.0
C1533 C 0.07659 0.54821 0.65106 0.0
C1534 C 0.11552 0.60171 0.61928 0.0
C1535 C 0.11635 0.57352 0.61567 0.0
H1536 H 0.87268 0.47789 0.39691 0.0
H1537 H 0.95135 0.52247 0.34116 0.0
H1538 H 0.94957 0.47187 0.33404 0.0
H1539 H 0.93179 0.41768 0.34942 0.0
H1540 H 0.8549 0.37272 0.40663 0.0
H1541 H 0.84865 0.41991 0.40654 0.0
C1542 C 0.88861 0.47613 0.38251 0.0
C1543 C 0.91187 0.50374 0.36926 0.0
C1544 C 0.88778 0.44685 0.37887 0.0
C1545 C 0.93311 0.50145 0.35135 0.0
C1546 C 0.93213 0.47255 0.34732 0.0
C1547 C 0.91299 0.41788 0.3612 0.0
C1548 C 0.89376 0.39181 0.37791 0.0
C1549 C 0.91045 0.44545 0.36177 0.0
C1550 C 0.86964 0.39232 0.39326 0.0
C1551 C 0.86644 0.41953 0.39352 0.0
H1552 H 0.49172 0.88435 0.90792 0.0
H1553 H 0.53782 0.95326 0.84442 0.0
H1554 H 0.48775 0.95156 0.83375 0.0
H1555 H 0.43241 0.93486 0.84595 0.0
H1556 H 0.38498 0.86389 0.90762 0.0
H1557 H 0.43349 0.86107 0.91507 0.0
C1558 C 0.49043 0.89813 0.89119 0.0
C1559 C 0.51813 0.91821 0.87642 0.0
C1560 C 0.46132 0.89664 0.8849 0.0
C1561 C 0.51659 0.93716 0.85566 0.0
C1562 C 0.488 0.93618 0.84955 0.0
C1563 C 0.43239 0.91782 0.86018 0.0
C1564 C 0.40527 0.89948 0.8761 0.0
C1565 C 0.46035 0.91644 0.86434 0.0
C1566 C 0.40548 0.87783 0.89481 0.0
C1567 C 0.4334 0.87665 0.8994 0.0
H1568 H 0.50817 0.40401 0.41225 0.0
H1569 H 0.46261 0.4267 0.34814 0.0
H1570 H 0.51284 0.47489 0.33752 0.0
H1571 H 0.56939 0.51152 0.34743 0.0
H1572 H 0.61583 0.48873 0.41066 0.0
H1573 H 0.56594 0.4398 0.42075 0.0
C1574 C 0.50954 0.4193 0.39568 0.0
C1575 C 0.48217 0.41128 0.38023 0.0
C1576 C 0.53865 0.44697 0.38962 0.0
C1577 C 0.48369 0.43202 0.35973 0.0
C1578 C 0.51236 0.45953 0.35367 0.0
C1579 C 0.56879 0.49516 0.36271 0.0
C1580 C 0.59635 0.50327 0.37784 0.0
C1581 C 0.54004 0.46715 0.36834 0.0
C1582 C 0.59515 0.48248 0.39818 0.0
C1583 C 0.56645 0.45485 0.40432 0.0
H1584 H 0.11982 0.52429 0.90666 0.0
H1585 H 0.05197 0.47518 0.84305 0.0
H1586 H 0.05151 0.52384 0.83143 0.0
H1587 H 0.06505 0.57833 0.84352 0.0
H1588 H 0.13646 0.62943 0.90407 0.0
H1589 H 0.14214 0.58262 0.91201 0.0
C1590 C 0.10607 0.52468 0.88951 0.0
C1591 C 0.08653 0.49636 0.8753 0.0
C1592 C 0.10654 0.55309 0.88246 0.0
C1593 C 0.06754 0.49681 0.85401 0.0
C1594 C 0.06727 0.52461 0.84735 0.0
C1595 C 0.08274 0.57953 0.85766 0.0
C1596 C 0.1003 0.60712 0.8732 0.0
C1597 C 0.08598 0.55266 0.86192 0.0
C1598 C 0.12296 0.60848 0.89167 0.0
C1599 C 0.12587 0.58157 0.89646 0.0
H1600 H 0.57254 0.05631 0.35115 0.0
H1601 H 0.61841 0.12609 0.41391 0.0
H1602 H 0.56978 0.12899 0.42039 0.0
H1603 H 0.51259 0.10889 0.40988 0.0
H1604 H 0.46802 0.04043 0.34589 0.0
H1605 H 0.51749 0.03979 0.33804 0.0
C1606 C 0.57219 0.07302 0.36552 0.0
C1607 C 0.59911 0.09133 0.38171 0.0
C1608 C 0.54418 0.07453 0.36906 0.0
C1609 C 0.59823 0.11235 0.40074 0.0
C1610 C 0.57021 0.11354 0.40478 0.0
C1611 C 0.51408 0.09447 0.39383 0.0
C1612 C 0.4871 0.07565 0.37774 0.0
C1613 C 0.54283 0.0944 0.38931 0.0
C1614 C 0.48877 0.05578 0.35796 0.0
C1615 C 0.51702 0.05539 0.35349 0.0
H1616 H 0.51178 0.57176 0.85047 0.0
H1617 H 0.49209 0.62187 0.91241 0.0
H1618 H 0.44072 0.57419 0.92168 0.0
H1619 H 0.40318 0.51644 0.91442 0.0
H1620 H 0.42379 0.46718 0.85224 0.0
H1621 H 0.473 0.51599 0.84088 0.0
C1622 C 0.49567 0.57249 0.86532 0.0
C1623 C 0.50536 0.60038 0.88037 0.0
C1624 C 0.46655 0.54488 0.87079 0.0
C1625 C 0.48472 0.60095 0.90001 0.0
C1626 C 0.45567 0.57346 0.90572 0.0
C1627 C 0.41818 0.51675 0.898 0.0
C1628 C 0.40937 0.48867 0.88341 0.0
C1629 C 0.44657 0.54506 0.89157 0.0
C1630 C 0.42972 0.48881 0.86313 0.0
C1631 C 0.45784 0.51667 0.85667 0.0
loop_
_geom_bond_atom_site_label_1
_geom_bond_atom_site_label_2
_geom_bond_distance
_geom_bond_site_symmetry_2
_ccdc_geom_bond_type
Mn0 O5 2.095 . S
Mn0 O15 2.162 . S
Mn0 O16 2.297 . S
Mn0 O24 2.385 . S
Mn0 O25 2.209 . S
Mn0 O26 2.094 . S
Mn1 O6 2.121 . S
Mn1 N8 2.257 . S
Mn1 N17 2.282 . S
Mn1 O25 2.215 . S
Mn1 O27 2.117 . S
C2 O24 1.234 . S
C2 O25 1.283 . S
C3 O15 1.281 . S
C3 O16 1.236 . S
C4 O26 1.240 . S
C4 O27 1.264 . S
O5 Mn0 2.095 . S
O5 C14 1.250 . S
O6 Mn1 2.121 . S
O6 C14 1.258 . S
C7 N8 1.326 . S
C7 C11 1.460 . S
C7 H13 0.929 . S
N8 Mn1 2.257 . S
N8 C7 1.326 . S
N8 C12 1.362 . S
C9 C10 1.258 . S
C9 C12 1.431 . S
C9 C29 1.449 . S
C10 C9 1.258 . S
C10 C11 1.477 . S
C10 H30 0.931 . S
C11 C7 1.460 . S
C11 C10 1.477 . S
C11 H31 0.930 . S
C12 N8 1.362 . S
C12 C9 1.431 . S
C12 C22 1.476 . S
H13 C7 0.929 . S
C14 O5 1.250 . S
C14 O6 1.258 . S
O15 Mn0 2.162 . S
O15 C3 1.281 . S
O16 Mn0 2.297 . S
O16 C3 1.236 . S
N17 Mn1 2.282 . S
N17 C18 1.328 . S
N17 C22 1.318 . S
C18 N17 1.328 . S
C18 C19 1.457 . S
C18 H23 0.929 . S
C19 C18 1.457 . S
C19 C20 1.291 . S
C19 H32 0.931 . S
C20 C19 1.291 . S
C20 C21 1.373 . S
C20 H33 0.929 . S
C21 C20 1.373 . S
C21 C22 1.396 . S
C21 C28 1.403 . S
C22 C12 1.476 . S
C22 N17 1.318 . S
C22 C21 1.396 . S
H23 C18 0.929 . S
O24 Mn0 2.385 . S
O24 C2 1.234 . S
O25 Mn0 2.209 . S
O25 Mn1 2.215 . S
O25 C2 1.283 . S
O26 Mn0 2.094 . S
O26 C4 1.240 . S
O27 Mn1 2.117 . S
O27 C4 1.264 . S
C28 C21 1.403 . S
C28 C29 1.399 . S
C28 H34 0.929 . S
C29 C9 1.449 . S
C29 C28 1.399 . S
C29 H35 0.930 . S
H30 C10 0.931 . S
H31 C11 0.930 . S
H32 C19 0.931 . S
H33 C20 0.929 . S
H34 C28 0.929 . S
H35 C29 0.930 . S
Mn36 O41 2.095 . S
Mn36 O51 2.162 . S
Mn36 O52 2.297 . S
Mn36 O60 2.385 . S
Mn36 O61 2.209 . S
Mn36 O62 2.094 . S
Mn37 O42 2.121 . S
Mn37 N44 2.257 . S
Mn37 N53 2.282 . S
Mn37 O61 2.215 . S
Mn37 O63 2.117 . S
C38 O60 1.234 . S
C38 O61 1.283 . S
C39 O51 1.281 . S
C39 O52 1.236 . S
C40 O62 1.240 . S
C40 O63 1.264 . S
O41 Mn36 2.095 . S
O41 C50 1.250 . S
O42 Mn37 2.121 . S
O42 C50 1.258 . S
C43 N44 1.326 . S
C43 C47 1.460 . S
C43 H49 0.929 . S
N44 Mn37 2.257 . S
N44 C43 1.326 . S
N44 C48 1.362 . S
C45 C46 1.258 . S
C45 C48 1.431 . S
C45 C65 1.449 . S
C46 C45 1.258 . S
C46 C47 1.477 . S
C46 H66 0.931 . S
C47 C43 1.460 . S
C47 C46 1.477 . S
C47 H67 0.930 . S
C48 N44 1.362 . S
C48 C45 1.431 . S
C48 C58 1.476 . S
H49 C43 0.929 . S
C50 O41 1.250 . S
C50 O42 1.258 . S
O51 Mn36 2.162 . S
O51 C39 1.281 . S
O52 Mn36 2.297 . S
O52 C39 1.236 . S
N53 Mn37 2.282 . S
N53 C54 1.328 . S
N53 C58 1.318 . S
C54 N53 1.328 . S
C54 C55 1.457 . S
C54 H59 0.929 . S
C55 C54 1.457 . S
C55 C56 1.291 . S
C55 H68 0.931 . S
C56 C55 1.291 . S
C56 C57 1.373 . S
C56 H69 0.929 . S
C57 C56 1.373 . S
C57 C58 1.396 . S
C57 C64 1.403 . S
C58 C48 1.476 . S
C58 N53 1.318 . S
C58 C57 1.396 . S
H59 C54 0.929 . S
O60 Mn36 2.385 . S
O60 C38 1.234 . S
O61 Mn36 2.209 . S
O61 Mn37 2.215 . S
O61 C38 1.283 . S
O62 Mn36 2.094 . S
O62 C40 1.240 . S
O63 Mn37 2.117 . S
O63 C40 1.264 . S
C64 C57 1.403 . S
C64 C65 1.399 . S
C64 H70 0.929 . S
C65 C45 1.449 . S
C65 C64 1.399 . S
C65 H71 0.930 . S
H66 C46 0.931 . S
H67 C47 0.930 . S
H68 C55 0.931 . S
H69 C56 0.929 . S
H70 C64 0.929 . S
H71 C65 0.930 . S
Mn72 O77 2.095 . S
Mn72 O87 2.162 . S
Mn72 O88 2.297 . S
Mn72 O96 2.385 . S
Mn72 O97 2.209 . S
Mn72 O98 2.094 . S
Mn73 O78 2.121 . S
Mn73 N80 2.257 . S
Mn73 N89 2.282 . S
Mn73 O97 2.215 . S
Mn73 O99 2.117 . S
C74 O96 1.234 . S
C74 O97 1.283 . S
C75 O87 1.281 . S
C75 O88 1.236 . S
C76 O98 1.240 . S
C76 O99 1.264 . S
O77 Mn72 2.095 . S
O77 C86 1.250 . S
O78 Mn73 2.121 . S
O78 C86 1.258 . S
C79 N80 1.326 . S
C79 C83 1.460 . S
C79 H85 0.929 . S
N80 Mn73 2.257 . S
N80 C79 1.326 . S
N80 C84 1.362 . S
C81 C82 1.258 . S
C81 C84 1.431 . S
C81 C101 1.449 . S
C82 C81 1.258 . S
C82 C83 1.477 . S
C82 H102 0.931 . S
C83 C79 1.460 . S
C83 C82 1.477 . S
C83 H103 0.930 . S
C84 N80 1.362 . S
C84 C81 1.431 . S
C84 C94 1.476 . S
H85 C79 0.929 . S
C86 O77 1.250 . S
C86 O78 1.258 . S
O87 Mn72 2.162 . S
O87 C75 1.281 . S
O88 Mn72 2.297 . S
O88 C75 1.236 . S
N89 Mn73 2.282 . S
N89 C90 1.328 . S
N89 C94 1.318 . S
C90 N89 1.328 . S
C90 C91 1.457 . S
C90 H95 0.929 . S
C91 C90 1.457 . S
C91 C92 1.291 . S
C91 H104 0.931 . S
C92 C91 1.291 . S
C92 C93 1.373 . S
C92 H105 0.929 . S
C93 C92 1.373 . S
C93 C94 1.396 . S
C93 C100 1.403 . S
C94 C84 1.476 . S
C94 N89 1.318 . S
C94 C93 1.396 . S
H95 C90 0.929 . S
O96 Mn72 2.385 . S
O96 C74 1.234 . S
O97 Mn72 2.209 . S
O97 Mn73 2.215 . S
O97 C74 1.283 . S
O98 Mn72 2.094 . S
O98 C76 1.240 . S
O99 Mn73 2.117 . S
O99 C76 1.264 . S
C100 C93 1.403 . S
C100 C101 1.399 . S
C100 H106 0.929 . S
C101 C81 1.449 . S
C101 C100 1.399 . S
C101 H107 0.930 . S
H102 C82 0.931 . S
H103 C83 0.930 . S
H104 C91 0.931 . S
H105 C92 0.929 . S
H106 C100 0.929 . S
H107 C101 0.930 . S
Mn108 O113 2.095 . S
Mn108 O123 2.162 . S
Mn108 O124 2.297 . S
Mn108 O132 2.385 . S
Mn108 O133 2.209 . S
Mn108 O134 2.094 . S
Mn109 O114 2.121 . S
Mn109 N116 2.257 . S
Mn109 N125 2.282 . S
Mn109 O133 2.215 . S
Mn109 O135 2.117 . S
C110 O132 1.234 . S
C110 O133 1.283 . S
C111 O123 1.281 . S
C111 O124 1.236 . S
C112 O134 1.240 . S
C112 O135 1.264 . S
O113 Mn108 2.095 . S
O113 C122 1.250 . S
O114 Mn109 2.121 . S
O114 C122 1.258 . S
C115 N116 1.326 . S
C115 C119 1.460 . S
C115 H121 0.929 . S
N116 Mn109 2.257 . S
N116 C115 1.326 . S
N116 C120 1.362 . S
C117 C118 1.258 . S
C117 C120 1.431 . S
C117 C137 1.449 . S
C118 C117 1.258 . S
C118 C119 1.477 . S
C118 H138 0.931 . S
C119 C115 1.460 . S
C119 C118 1.477 . S
C119 H139 0.930 . S
C120 N116 1.362 . S
C120 C117 1.431 . S
C120 C130 1.476 . S
H121 C115 0.929 . S
C122 O113 1.250 . S
C122 O114 1.258 . S
O123 Mn108 2.162 . S
O123 C111 1.281 . S
O124 Mn108 2.297 . S
O124 C111 1.236 . S
N125 Mn109 2.282 . S
N125 C126 1.328 . S
N125 C130 1.318 . S
C126 N125 1.328 . S
C126 C127 1.457 . S
C126 H131 0.929 . S
C127 C126 1.457 . S
C127 C128 1.291 . S
C127 H140 0.931 . S
C128 C127 1.291 . S
C128 C129 1.373 . S
C128 H141 0.929 . S
C129 C128 1.373 . S
C129 C130 1.396 . S
C129 C136 1.403 . S
C130 C120 1.476 . S
C130 N125 1.318 . S
C130 C129 1.396 . S
H131 C126 0.929 . S
O132 Mn108 2.385 . S
O132 C110 1.234 . S
O133 Mn108 2.209 . S
O133 Mn109 2.215 . S
O133 C110 1.283 . S
O134 Mn108 2.094 . S
O134 C112 1.240 . S
O135 Mn109 2.117 . S
O135 C112 1.264 . S
C136 C129 1.403 . S
C136 C137 1.399 . S
C136 H142 0.929 . S
C137 C117 1.449 . S
C137 C136 1.399 . S
C137 H143 0.930 . S
H138 C118 0.931 . S
H139 C119 0.930 . S
H140 C127 0.931 . S
H141 C128 0.929 . S
H142 C136 0.929 . S
H143 C137 0.930 . S
Mn144 O149 2.095 . S
Mn144 O159 2.162 . S
Mn144 O160 2.297 . S
Mn144 O168 2.385 . S
Mn144 O169 2.209 . S
Mn144 O170 2.094 . S
Mn145 O150 2.121 . S
Mn145 N152 2.257 . S
Mn145 N161 2.282 . S
Mn145 O169 2.215 . S
Mn145 O171 2.117 . S
C146 O168 1.234 . S
C146 O169 1.283 . S
C147 O159 1.281 . S
C147 O160 1.236 . S
C148 O170 1.240 . S
C148 O171 1.264 . S
O149 Mn144 2.095 . S
O149 C158 1.250 . S
O150 Mn145 2.121 . S
O150 C158 1.258 . S
C151 N152 1.326 . S
C151 C155 1.460 . S
C151 H157 0.929 . S
N152 Mn145 2.257 . S
N152 C151 1.326 . S
N152 C156 1.362 . S
C153 C154 1.258 . S
C153 C156 1.431 . S
C153 C173 1.449 . S
C154 C153 1.258 . S
C154 C155 1.477 . S
C154 H174 0.931 . S
C155 C151 1.460 . S
C155 C154 1.477 . S
C155 H175 0.930 . S
C156 N152 1.362 . S
C156 C153 1.431 . S
C156 C166 1.476 . S
H157 C151 0.929 . S
C158 O149 1.250 . S
C158 O150 1.258 . S
O159 Mn144 2.162 . S
O159 C147 1.281 . S
O160 Mn144 2.297 . S
O160 C147 1.236 . S
N161 Mn145 2.282 . S
N161 C162 1.328 . S
N161 C166 1.318 . S
C162 N161 1.328 . S
C162 C163 1.457 . S
C162 H167 0.929 . S
C163 C162 1.457 . S
C163 C164 1.291 . S
C163 H176 0.931 . S
C164 C163 1.291 . S
C164 C165 1.373 . S
C164 H177 0.929 . S
C165 C164 1.373 . S
C165 C166 1.396 . S
C165 C172 1.403 . S
C166 C156 1.476 . S
C166 N161 1.318 . S
C166 C165 1.396 . S
H167 C162 0.929 . S
O168 Mn144 2.385 . S
O168 C146 1.234 . S
O169 Mn144 2.209 . S
O169 Mn145 2.215 . S
O169 C146 1.283 . S
O170 Mn144 2.094 . S
O170 C148 1.240 . S
O171 Mn145 2.117 . S
O171 C148 1.264 . S
C172 C165 1.403 . S
C172 C173 1.399 . S
C172 H178 0.929 . S
C173 C153 1.449 . S
C173 C172 1.399 . S
C173 H179 0.930 . S
H174 C154 0.931 . S
H175 C155 0.930 . S
H176 C163 0.931 . S
H177 C164 0.929 . S
H178 C172 0.929 . S
H179 C173 0.930 . S
Mn180 O185 2.095 . S
Mn180 O195 2.162 . S
Mn180 O196 2.297 . S
Mn180 O204 2.385 . S
Mn180 O205 2.209 . S
Mn180 O206 2.094 . S
Mn181 O186 2.121 . S
Mn181 N188 2.257 . S
Mn181 N197 2.282 . S
Mn181 O205 2.215 . S
Mn181 O207 2.117 . S
C182 O204 1.234 . S
C182 O205 1.283 . S
C183 O195 1.281 . S
C183 O196 1.236 . S
C184 O206 1.240 . S
C184 O207 1.264 . S
O185 Mn180 2.095 . S
O185 C194 1.250 . S
O186 Mn181 2.121 . S
O186 C194 1.258 . S
C187 N188 1.326 . S
C187 C191 1.460 . S
C187 H193 0.929 . S
N188 Mn181 2.257 . S
N188 C187 1.326 . S
N188 C192 1.362 . S
C189 C190 1.258 . S
C189 C192 1.431 . S
C189 C209 1.449 . S
C190 C189 1.258 . S
C190 C191 1.477 . S
C190 H210 0.931 . S
C191 C187 1.460 . S
C191 C190 1.477 . S
C191 H211 0.930 . S
C192 N188 1.362 . S
C192 C189 1.431 . S
C192 C202 1.476 . S
H193 C187 0.929 . S
C194 O185 1.250 . S
C194 O186 1.258 . S
O195 Mn180 2.162 . S
O195 C183 1.281 . S
O196 Mn180 2.297 . S
O196 C183 1.236 . S
N197 Mn181 2.282 . S
N197 C198 1.328 . S
N197 C202 1.318 . S
C198 N197 1.328 . S
C198 C199 1.457 . S
C198 H203 0.929 . S
C199 C198 1.457 . S
C199 C200 1.291 . S
C199 H212 0.931 . S
C200 C199 1.291 . S
C200 C201 1.373 . S
C200 H213 0.929 . S
C201 C200 1.373 . S
C201 C202 1.396 . S
C201 C208 1.403 . S
C202 C192 1.476 . S
C202 N197 1.318 . S
C202 C201 1.396 . S
H203 C198 0.929 . S
O204 Mn180 2.385 . S
O204 C182 1.234 . S
O205 Mn180 2.209 . S
O205 Mn181 2.215 . S
O205 C182 1.283 . S
O206 Mn180 2.094 . S
O206 C184 1.240 . S
O207 Mn181 2.117 . S
O207 C184 1.264 . S
C208 C201 1.403 . S
C208 C209 1.399 . S
C208 H214 0.929 . S
C209 C189 1.449 . S
C209 C208 1.399 . S
C209 H215 0.930 . S
H210 C190 0.931 . S
H211 C191 0.930 . S
H212 C199 0.931 . S
H213 C200 0.929 . S
H214 C208 0.929 . S
H215 C209 0.930 . S
Mn216 O221 2.095 . S
Mn216 O231 2.162 . S
Mn216 O232 2.297 . S
Mn216 O240 2.385 . S
Mn216 O241 2.209 . S
Mn216 O242 2.094 . S
Mn217 O222 2.121 . S
Mn217 N224 2.257 . S
Mn217 N233 2.282 . S
Mn217 O241 2.215 . S
Mn217 O243 2.117 . S
C218 O240 1.234 . S
C218 O241 1.283 . S
C219 O231 1.281 . S
C219 O232 1.236 . S
C220 O242 1.240 . S
C220 O243 1.264 . S
O221 Mn216 2.095 . S
O221 C230 1.250 . S
O222 Mn217 2.121 . S
O222 C230 1.258 . S
C223 N224 1.326 . S
C223 C227 1.460 . S
C223 H229 0.929 . S
N224 Mn217 2.257 . S
N224 C223 1.326 . S
N224 C228 1.362 . S
C225 C226 1.258 . S
C225 C228 1.431 . S
C225 C245 1.449 . S
C226 C225 1.258 . S
C226 C227 1.477 . S
C226 H246 0.931 . S
C227 C223 1.460 . S
C227 C226 1.477 . S
C227 H247 0.930 . S
C228 N224 1.362 . S
C228 C225 1.431 . S
C228 C238 1.476 . S
H229 C223 0.929 . S
C230 O221 1.250 . S
C230 O222 1.258 . S
O231 Mn216 2.162 . S
O231 C219 1.281 . S
O232 Mn216 2.297 . S
O232 C219 1.236 . S
N233 Mn217 2.282 . S
N233 C234 1.328 . S
N233 C238 1.318 . S
C234 N233 1.328 . S
C234 C235 1.457 . S
C234 H239 0.929 . S
C235 C234 1.457 . S
C235 C236 1.291 . S
C235 H248 0.931 . S
C236 C235 1.291 . S
C236 C237 1.373 . S
C236 H249 0.929 . S
C237 C236 1.373 . S
C237 C238 1.396 . S
C237 C244 1.403 . S
C238 C228 1.476 . S
C238 N233 1.318 . S
C238 C237 1.396 . S
H239 C234 0.929 . S
O240 Mn216 2.385 . S
O240 C218 1.234 . S
O241 Mn216 2.209 . S
O241 Mn217 2.215 . S
O241 C218 1.283 . S
O242 Mn216 2.094 . S
O242 C220 1.240 . S
O243 Mn217 2.117 . S
O243 C220 1.264 . S
C244 C237 1.403 . S
C244 C245 1.399 . S
C244 H250 0.929 . S
C245 C225 1.449 . S
C245 C244 1.399 . S
C245 H251 0.930 . S
H246 C226 0.931 . S
H247 C227 0.930 . S
H248 C235 0.931 . S
H249 C236 0.929 . S
H250 C244 0.929 . S
H251 C245 0.930 . S
Mn252 O257 2.095 . S
Mn252 O267 2.162 . S
Mn252 O268 2.297 . S
Mn252 O276 2.385 . S
Mn252 O277 2.209 . S
Mn252 O278 2.094 . S
Mn253 O258 2.121 . S
Mn253 N260 2.257 . S
Mn253 N269 2.282 . S
Mn253 O277 2.215 . S
Mn253 O279 2.117 . S
C254 O276 1.234 . S
C254 O277 1.283 . S
C255 O267 1.281 . S
C255 O268 1.236 . S
C256 O278 1.240 . S
C256 O279 1.264 . S
O257 Mn252 2.095 . S
O257 C266 1.250 . S
O258 Mn253 2.121 . S
O258 C266 1.258 . S
C259 N260 1.326 . S
C259 C263 1.460 . S
C259 H265 0.929 . S
N260 Mn253 2.257 . S
N260 C259 1.326 . S
N260 C264 1.362 . S
C261 C262 1.258 . S
C261 C264 1.431 . S
C261 C281 1.449 . S
C262 C261 1.258 . S
C262 C263 1.477 . S
C262 H282 0.931 . S
C263 C259 1.460 . S
C263 C262 1.477 . S
C263 H283 0.930 . S
C264 N260 1.362 . S
C264 C261 1.431 . S
C264 C274 1.476 . S
H265 C259 0.929 . S
C266 O257 1.250 . S
C266 O258 1.258 . S
O267 Mn252 2.162 . S
O267 C255 1.281 . S
O268 Mn252 2.297 . S
O268 C255 1.236 . S
N269 Mn253 2.282 . S
N269 C270 1.328 . S
N269 C274 1.318 . S
C270 N269 1.328 . S
C270 C271 1.457 . S
C270 H275 0.929 . S
C271 C270 1.457 . S
C271 C272 1.291 . S
C271 H284 0.931 . S
C272 C271 1.291 . S
C272 C273 1.373 . S
C272 H285 0.929 . S
C273 C272 1.373 . S
C273 C274 1.396 . S
C273 C280 1.403 . S
C274 C264 1.476 . S
C274 N269 1.318 . S
C274 C273 1.396 . S
H275 C270 0.929 . S
O276 Mn252 2.385 . S
O276 C254 1.234 . S
O277 Mn252 2.209 . S
O277 Mn253 2.215 . S
O277 C254 1.283 . S
O278 Mn252 2.094 . S
O278 C256 1.240 . S
O279 Mn253 2.117 . S
O279 C256 1.264 . S
C280 C273 1.403 . S
C280 C281 1.399 . S
C280 H286 0.929 . S
C281 C261 1.449 . S
C281 C280 1.399 . S
C281 H287 0.930 . S
H282 C262 0.931 . S
H283 C263 0.930 . S
H284 C271 0.931 . S
H285 C272 0.929 . S
H286 C280 0.929 . S
H287 C281 0.930 . S
Mn288 O293 2.095 . S
Mn288 O303 2.162 . S
Mn288 O304 2.297 . S
Mn288 O312 2.385 . S
Mn288 O313 2.209 . S
Mn288 O314 2.094 . S
Mn289 O294 2.121 . S
Mn289 N296 2.257 . S
Mn289 N305 2.282 . S
Mn289 O313 2.215 . S
Mn289 O315 2.117 . S
C290 O312 1.234 . S
C290 O313 1.283 . S
C291 O303 1.281 . S
C291 O304 1.236 . S
C292 O314 1.240 . S
C292 O315 1.264 . S
O293 Mn288 2.095 . S
O293 C302 1.250 . S
O294 Mn289 2.121 . S
O294 C302 1.258 . S
C295 N296 1.326 . S
C295 C299 1.460 . S
C295 H301 0.929 . S
N296 Mn289 2.257 . S
N296 C295 1.326 . S
N296 C300 1.362 . S
C297 C298 1.258 . S
C297 C300 1.431 . S
C297 C317 1.449 . S
C298 C297 1.258 . S
C298 C299 1.477 . S
C298 H318 0.931 . S
C299 C295 1.460 . S
C299 C298 1.477 . S
C299 H319 0.930 . S
C300 N296 1.362 . S
C300 C297 1.431 . S
C300 C310 1.476 . S
H301 C295 0.929 . S
C302 O293 1.250 . S
C302 O294 1.258 . S
O303 Mn288 2.162 . S
O303 C291 1.281 . S
O304 Mn288 2.297 . S
O304 C291 1.236 . S
N305 Mn289 2.282 . S
N305 C306 1.328 . S
N305 C310 1.318 . S
C306 N305 1.328 . S
C306 C307 1.457 . S
C306 H311 0.929 . S
C307 C306 1.457 . S
C307 C308 1.291 . S
C307 H320 0.931 . S
C308 C307 1.291 . S
C308 C309 1.373 . S
C308 H321 0.929 . S
C309 C308 1.373 . S
C309 C310 1.396 . S
C309 C316 1.403 . S
C310 C300 1.476 . S
C310 N305 1.318 . S
C310 C309 1.396 . S
H311 C306 0.929 . S
O312 Mn288 2.385 . S
O312 C290 1.234 . S
O313 Mn288 2.209 . S
O313 Mn289 2.215 . S
O313 C290 1.283 . S
O314 Mn288 2.094 . S
O314 C292 1.240 . S
O315 Mn289 2.117 . S
O315 C292 1.264 . S
C316 C309 1.403 . S
C316 C317 1.399 . S
C316 H322 0.929 . S
C317 C297 1.449 . S
C317 C316 1.399 . S
C317 H323 0.930 . S
H318 C298 0.931 . S
H319 C299 0.930 . S
H320 C307 0.931 . S
H321 C308 0.929 . S
H322 C316 0.929 . S
H323 C317 0.930 . S
Mn324 O329 2.095 . S
Mn324 O339 2.162 . S
Mn324 O340 2.297 . S
Mn324 O348 2.385 . S
Mn324 O349 2.209 . S
Mn324 O350 2.094 . S
Mn325 O330 2.121 . S
Mn325 N332 2.257 . S
Mn325 N341 2.282 . S
Mn325 O349 2.215 . S
Mn325 O351 2.117 . S
C326 O348 1.234 . S
C326 O349 1.283 . S
C327 O339 1.281 . S
C327 O340 1.236 . S
C328 O350 1.240 . S
C328 O351 1.264 . S
O329 Mn324 2.095 . S
O329 C338 1.250 . S
O330 Mn325 2.121 . S
O330 C338 1.258 . S
C331 N332 1.326 . S
C331 C335 1.460 . S
C331 H337 0.929 . S
N332 Mn325 2.257 . S
N332 C331 1.326 . S
N332 C336 1.362 . S
C333 C334 1.258 . S
C333 C336 1.431 . S
C333 C353 1.449 . S
C334 C333 1.258 . S
C334 C335 1.477 . S
C334 H354 0.931 . S
C335 C331 1.460 . S
C335 C334 1.477 . S
C335 H355 0.930 . S
C336 N332 1.362 . S
C336 C333 1.431 . S
C336 C346 1.476 . S
H337 C331 0.929 . S
C338 O329 1.250 . S
C338 O330 1.258 . S
O339 Mn324 2.162 . S
O339 C327 1.281 . S
O340 Mn324 2.297 . S
O340 C327 1.236 . S
N341 Mn325 2.282 . S
N341 C342 1.328 . S
N341 C346 1.318 . S
C342 N341 1.328 . S
C342 C343 1.457 . S
C342 H347 0.929 . S
C343 C342 1.457 . S
C343 C344 1.291 . S
C343 H356 0.931 . S
C344 C343 1.291 . S
C344 C345 1.373 . S
C344 H357 0.929 . S
C345 C344 1.373 . S
C345 C346 1.396 . S
C345 C352 1.403 . S
C346 C336 1.476 . S
C346 N341 1.318 . S
C346 C345 1.396 . S
H347 C342 0.929 . S
O348 Mn324 2.385 . S
O348 C326 1.234 . S
O349 Mn324 2.209 . S
O349 Mn325 2.215 . S
O349 C326 1.283 . S
O350 Mn324 2.094 . S
O350 C328 1.240 . S
O351 Mn325 2.117 . S
O351 C328 1.264 . S
C352 C345 1.403 . S
C352 C353 1.399 . S
C352 H358 0.929 . S
C353 C333 1.449 . S
C353 C352 1.399 . S
C353 H359 0.930 . S
H354 C334 0.931 . S
H355 C335 0.930 . S
H356 C343 0.931 . S
H357 C344 0.929 . S
H358 C352 0.929 . S
H359 C353 0.930 . S
Mn360 O365 2.095 . S
Mn360 O375 2.162 . S
Mn360 O376 2.297 . S
Mn360 O384 2.385 . S
Mn360 O385 2.209 . S
Mn360 O386 2.094 . S
Mn361 O366 2.121 . S
Mn361 N368 2.257 . S
Mn361 N377 2.282 . S
Mn361 O385 2.215 . S
Mn361 O387 2.117 . S
C362 O384 1.234 . S
C362 O385 1.283 . S
C363 O375 1.281 . S
C363 O376 1.236 . S
C364 O386 1.240 . S
C364 O387 1.264 . S
O365 Mn360 2.095 . S
O365 C374 1.250 . S
O366 Mn361 2.121 . S
O366 C374 1.258 . S
C367 N368 1.326 . S
C367 C371 1.460 . S
C367 H373 0.929 . S
N368 Mn361 2.257 . S
N368 C367 1.326 . S
N368 C372 1.362 . S
C369 C370 1.258 . S
C369 C372 1.431 . S
C369 C389 1.449 . S
C370 C369 1.258 . S
C370 C371 1.477 . S
C370 H390 0.931 . S
C371 C367 1.460 . S
C371 C370 1.477 . S
C371 H391 0.930 . S
C372 N368 1.362 . S
C372 C369 1.431 . S
C372 C382 1.476 . S
H373 C367 0.929 . S
C374 O365 1.250 . S
C374 O366 1.258 . S
O375 Mn360 2.162 . S
O375 C363 1.281 . S
O376 Mn360 2.297 . S
O376 C363 1.236 . S
N377 Mn361 2.282 . S
N377 C378 1.328 . S
N377 C382 1.318 . S
C378 N377 1.328 . S
C378 C379 1.457 . S
C378 H383 0.929 . S
C379 C378 1.457 . S
C379 C380 1.291 . S
C379 H392 0.931 . S
C380 C379 1.291 . S
C380 C381 1.373 . S
C380 H393 0.929 . S
C381 C380 1.373 . S
C381 C382 1.396 . S
C381 C388 1.403 . S
C382 C372 1.476 . S
C382 N377 1.318 . S
C382 C381 1.396 . S
H383 C378 0.929 . S
O384 Mn360 2.385 . S
O384 C362 1.234 . S
O385 Mn360 2.209 . S
O385 Mn361 2.215 . S
O385 C362 1.283 . S
O386 Mn360 2.094 . S
O386 C364 1.240 . S
O387 Mn361 2.117 . S
O387 C364 1.264 . S
C388 C381 1.403 . S
C388 C389 1.399 . S
C388 H394 0.929 . S
C389 C369 1.449 . S
C389 C388 1.399 . S
C389 H395 0.930 . S
H390 C370 0.931 . S
H391 C371 0.930 . S
H392 C379 0.931 . S
H393 C380 0.929 . S
H394 C388 0.929 . S
H395 C389 0.930 . S
Mn396 O401 2.095 . S
Mn396 O411 2.162 . S
Mn396 O412 2.297 . S
Mn396 O420 2.385 . S
Mn396 O421 2.209 . S
Mn396 O422 2.094 . S
Mn397 O402 2.121 . S
Mn397 N404 2.257 . S
Mn397 N413 2.282 . S
Mn397 O421 2.215 . S
Mn397 O423 2.117 . S
C398 O420 1.234 . S
C398 O421 1.283 . S
C399 O411 1.281 . S
C399 O412 1.236 . S
C400 O422 1.240 . S
C400 O423 1.264 . S
O401 Mn396 2.095 . S
O401 C410 1.250 . S
O402 Mn397 2.121 . S
O402 C410 1.258 . S
C403 N404 1.326 . S
C403 C407 1.460 . S
C403 H409 0.929 . S
N404 Mn397 2.257 . S
N404 C403 1.326 . S
N404 C408 1.362 . S
C405 C406 1.258 . S
C405 C408 1.431 . S
C405 C425 1.449 . S
C406 C405 1.258 . S
C406 C407 1.477 . S
C406 H426 0.931 . S
C407 C403 1.460 . S
C407 C406 1.477 . S
C407 H427 0.930 . S
C408 N404 1.362 . S
C408 C405 1.431 . S
C408 C418 1.476 . S
H409 C403 0.929 . S
C410 O401 1.250 . S
C410 O402 1.258 . S
O411 Mn396 2.162 . S
O411 C399 1.281 . S
O412 Mn396 2.297 . S
O412 C399 1.236 . S
N413 Mn397 2.282 . S
N413 C414 1.328 . S
N413 C418 1.318 . S
C414 N413 1.328 . S
C414 C415 1.457 . S
C414 H419 0.929 . S
C415 C414 1.457 . S
C415 C416 1.291 . S
C415 H428 0.931 . S
C416 C415 1.291 . S
C416 C417 1.373 . S
C416 H429 0.929 . S
C417 C416 1.373 . S
C417 C418 1.396 . S
C417 C424 1.403 . S
C418 C408 1.476 . S
C418 N413 1.318 . S
C418 C417 1.396 . S
H419 C414 0.929 . S
O420 Mn396 2.385 . S
O420 C398 1.234 . S
O421 Mn396 2.209 . S
O421 Mn397 2.215 . S
O421 C398 1.283 . S
O422 Mn396 2.094 . S
O422 C400 1.240 . S
O423 Mn397 2.117 . S
O423 C400 1.264 . S
C424 C417 1.403 . S
C424 C425 1.399 . S
C424 H430 0.929 . S
C425 C405 1.449 . S
C425 C424 1.399 . S
C425 H431 0.930 . S
H426 C406 0.931 . S
H427 C407 0.930 . S
H428 C415 0.931 . S
H429 C416 0.929 . S
H430 C424 0.929 . S
H431 C425 0.930 . S
Mn432 O437 2.095 . S
Mn432 O447 2.162 . S
Mn432 O448 2.297 . S
Mn432 O456 2.385 . S
Mn432 O457 2.209 . S
Mn432 O458 2.094 . S
Mn433 O438 2.121 . S
Mn433 N440 2.257 . S
Mn433 N449 2.282 . S
Mn433 O457 2.215 . S
Mn433 O459 2.117 . S
C434 O456 1.234 . S
C434 O457 1.283 . S
C435 O447 1.281 . S
C435 O448 1.236 . S
C436 O458 1.240 . S
C436 O459 1.264 . S
O437 Mn432 2.095 . S
O437 C446 1.250 . S
O438 Mn433 2.121 . S
O438 C446 1.258 . S
C439 N440 1.326 . S
C439 C443 1.460 . S
C439 H445 0.929 . S
N440 Mn433 2.257 . S
N440 C439 1.326 . S
N440 C444 1.362 . S
C441 C442 1.258 . S
C441 C444 1.431 . S
C441 C461 1.449 . S
C442 C441 1.258 . S
C442 C443 1.477 . S
C442 H462 0.931 . S
C443 C439 1.460 . S
C443 C442 1.477 . S
C443 H463 0.930 . S
C444 N440 1.362 . S
C444 C441 1.431 . S
C444 C454 1.476 . S
H445 C439 0.929 . S
C446 O437 1.250 . S
C446 O438 1.258 . S
O447 Mn432 2.162 . S
O447 C435 1.281 . S
O448 Mn432 2.297 . S
O448 C435 1.236 . S
N449 Mn433 2.282 . S
N449 C450 1.328 . S
N449 C454 1.318 . S
C450 N449 1.328 . S
C450 C451 1.457 . S
C450 H455 0.929 . S
C451 C450 1.457 . S
C451 C452 1.291 . S
C451 H464 0.931 . S
C452 C451 1.291 . S
C452 C453 1.373 . S
C452 H465 0.929 . S
C453 C452 1.373 . S
C453 C454 1.396 . S
C453 C460 1.403 . S
C454 C444 1.476 . S
C454 N449 1.318 . S
C454 C453 1.396 . S
H455 C450 0.929 . S
O456 Mn432 2.385 . S
O456 C434 1.234 . S
O457 Mn432 2.209 . S
O457 Mn433 2.215 . S
O457 C434 1.283 . S
O458 Mn432 2.094 . S
O458 C436 1.240 . S
O459 Mn433 2.117 . S
O459 C436 1.264 . S
C460 C453 1.403 . S
C460 C461 1.399 . S
C460 H466 0.929 . S
C461 C441 1.449 . S
C461 C460 1.399 . S
C461 H467 0.930 . S
H462 C442 0.931 . S
H463 C443 0.930 . S
H464 C451 0.931 . S
H465 C452 0.929 . S
H466 C460 0.929 . S
H467 C461 0.930 . S
Mn468 O473 2.095 . S
Mn468 O483 2.162 . S
Mn468 O484 2.297 . S
Mn468 O492 2.385 . S
Mn468 O493 2.209 . S
Mn468 O494 2.094 . S
Mn469 O474 2.121 . S
Mn469 N476 2.257 . S
Mn469 N485 2.282 . S
Mn469 O493 2.215 . S
Mn469 O495 2.117 . S
C470 O492 1.234 . S
C470 O493 1.283 . S
C471 O483 1.281 . S
C471 O484 1.236 . S
C472 O494 1.240 . S
C472 O495 1.264 . S
O473 Mn468 2.095 . S
O473 C482 1.250 . S
O474 Mn469 2.121 . S
O474 C482 1.258 . S
C475 N476 1.326 . S
C475 C479 1.460 . S
C475 H481 0.929 . S
N476 Mn469 2.257 . S
N476 C475 1.326 . S
N476 C480 1.362 . S
C477 C478 1.258 . S
C477 C480 1.431 . S
C477 C497 1.449 . S
C478 C477 1.258 . S
C478 C479 1.477 . S
C478 H498 0.931 . S
C479 C475 1.460 . S
C479 C478 1.477 . S
C479 H499 0.930 . S
C480 N476 1.362 . S
C480 C477 1.431 . S
C480 C490 1.476 . S
H481 C475 0.929 . S
C482 O473 1.250 . S
C482 O474 1.258 . S
O483 Mn468 2.162 . S
O483 C471 1.281 . S
O484 Mn468 2.297 . S
O484 C471 1.236 . S
N485 Mn469 2.282 . S
N485 C486 1.328 . S
N485 C490 1.318 . S
C486 N485 1.328 . S
C486 C487 1.457 . S
C486 H491 0.929 . S
C487 C486 1.457 . S
C487 C488 1.291 . S
C487 H500 0.931 . S
C488 C487 1.291 . S
C488 C489 1.373 . S
C488 H501 0.929 . S
C489 C488 1.373 . S
C489 C490 1.396 . S
C489 C496 1.403 . S
C490 C480 1.476 . S
C490 N485 1.318 . S
C490 C489 1.396 . S
H491 C486 0.929 . S
O492 Mn468 2.385 . S
O492 C470 1.234 . S
O493 Mn468 2.209 . S
O493 Mn469 2.215 . S
O493 C470 1.283 . S
O494 Mn468 2.094 . S
O494 C472 1.240 . S
O495 Mn469 2.117 . S
O495 C472 1.264 . S
C496 C489 1.403 . S
C496 C497 1.399 . S
C496 H502 0.929 . S
C497 C477 1.449 . S
C497 C496 1.399 . S
C497 H503 0.930 . S
H498 C478 0.931 . S
H499 C479 0.930 . S
H500 C487 0.931 . S
H501 C488 0.929 . S
H502 C496 0.929 . S
H503 C497 0.930 . S
Mn504 O509 2.095 . S
Mn504 O519 2.162 . S
Mn504 O520 2.297 . S
Mn504 O528 2.385 . S
Mn504 O529 2.209 . S
Mn504 O530 2.094 . S
Mn505 O510 2.121 . S
Mn505 N512 2.257 . S
Mn505 N521 2.282 . S
Mn505 O529 2.215 . S
Mn505 O531 2.117 . S
C506 O528 1.234 . S
C506 O529 1.283 . S
C507 O519 1.281 . S
C507 O520 1.236 . S
C508 O530 1.240 . S
C508 O531 1.264 . S
O509 Mn504 2.095 . S
O509 C518 1.250 . S
O510 Mn505 2.121 . S
O510 C518 1.258 . S
C511 N512 1.326 . S
C511 C515 1.460 . S
C511 H517 0.929 . S
N512 Mn505 2.257 . S
N512 C511 1.326 . S
N512 C516 1.362 . S
C513 C514 1.258 . S
C513 C516 1.431 . S
C513 C533 1.449 . S
C514 C513 1.258 . S
C514 C515 1.477 . S
C514 H534 0.931 . S
C515 C511 1.460 . S
C515 C514 1.477 . S
C515 H535 0.930 . S
C516 N512 1.362 . S
C516 C513 1.431 . S
C516 C526 1.476 . S
H517 C511 0.929 . S
C518 O509 1.250 . S
C518 O510 1.258 . S
O519 Mn504 2.162 . S
O519 C507 1.281 . S
O520 Mn504 2.297 . S
O520 C507 1.236 . S
N521 Mn505 2.282 . S
N521 C522 1.328 . S
N521 C526 1.318 . S
C522 N521 1.328 . S
C522 C523 1.457 . S
C522 H527 0.929 . S
C523 C522 1.457 . S
C523 C524 1.291 . S
C523 H536 0.931 . S
C524 C523 1.291 . S
C524 C525 1.373 . S
C524 H537 0.929 . S
C525 C524 1.373 . S
C525 C526 1.396 . S
C525 C532 1.403 . S
C526 C516 1.476 . S
C526 N521 1.318 . S
C526 C525 1.396 . S
H527 C522 0.929 . S
O528 Mn504 2.385 . S
O528 C506 1.234 . S
O529 Mn504 2.209 . S
O529 Mn505 2.215 . S
O529 C506 1.283 . S
O530 Mn504 2.094 . S
O530 C508 1.240 . S
O531 Mn505 2.117 . S
O531 C508 1.264 . S
C532 C525 1.403 . S
C532 C533 1.399 . S
C532 H538 0.929 . S
C533 C513 1.449 . S
C533 C532 1.399 . S
C533 H539 0.930 . S
H534 C514 0.931 . S
H535 C515 0.930 . S
H536 C523 0.931 . S
H537 C524 0.929 . S
H538 C532 0.929 . S
H539 C533 0.930 . S
Mn540 O545 2.095 . S
Mn540 O555 2.162 . S
Mn540 O556 2.297 . S
Mn540 O564 2.385 . S
Mn540 O565 2.209 . S
Mn540 O566 2.094 . S
Mn541 O546 2.121 . S
Mn541 N548 2.257 . S
Mn541 N557 2.282 . S
Mn541 O565 2.215 . S
Mn541 O567 2.117 . S
C542 O564 1.234 . S
C542 O565 1.283 . S
C543 O555 1.281 . S
C543 O556 1.236 . S
C544 O566 1.240 . S
C544 O567 1.264 . S
O545 Mn540 2.095 . S
O545 C554 1.250 . S
O546 Mn541 2.121 . S
O546 C554 1.258 . S
C547 N548 1.326 . S
C547 C551 1.460 . S
C547 H553 0.929 . S
N548 Mn541 2.257 . S
N548 C547 1.326 . S
N548 C552 1.362 . S
C549 C550 1.258 . S
C549 C552 1.431 . S
C549 C569 1.449 . S
C550 C549 1.258 . S
C550 C551 1.477 . S
C550 H570 0.931 . S
C551 C547 1.460 . S
C551 C550 1.477 . S
C551 H571 0.930 . S
C552 N548 1.362 . S
C552 C549 1.431 . S
C552 C562 1.476 . S
H553 C547 0.929 . S
C554 O545 1.250 . S
C554 O546 1.258 . S
O555 Mn540 2.162 . S
O555 C543 1.281 . S
O556 Mn540 2.297 . S
O556 C543 1.236 . S
N557 Mn541 2.282 . S
N557 C558 1.328 . S
N557 C562 1.318 . S
C558 N557 1.328 . S
C558 C559 1.457 . S
C558 H563 0.929 . S
C559 C558 1.457 . S
C559 C560 1.291 . S
C559 H572 0.931 . S
C560 C559 1.291 . S
C560 C561 1.373 . S
C560 H573 0.929 . S
C561 C560 1.373 . S
C561 C562 1.396 . S
C561 C568 1.403 . S
C562 C552 1.476 . S
C562 N557 1.318 . S
C562 C561 1.396 . S
H563 C558 0.929 . S
O564 Mn540 2.385 . S
O564 C542 1.234 . S
O565 Mn540 2.209 . S
O565 Mn541 2.215 . S
O565 C542 1.283 . S
O566 Mn540 2.094 . S
O566 C544 1.240 . S
O567 Mn541 2.117 . S
O567 C544 1.264 . S
C568 C561 1.403 . S
C568 C569 1.399 . S
C568 H574 0.929 . S
C569 C549 1.449 . S
C569 C568 1.399 . S
C569 H575 0.930 . S
H570 C550 0.931 . S
H571 C551 0.930 . S
H572 C559 0.931 . S
H573 C560 0.929 . S
H574 C568 0.929 . S
H575 C569 0.930 . S
Mn576 O581 2.095 . S
Mn576 O591 2.162 . S
Mn576 O592 2.297 . S
Mn576 O600 2.385 . S
Mn576 O601 2.209 . S
Mn576 O602 2.094 . S
Mn577 O582 2.121 . S
Mn577 N584 2.257 . S
Mn577 N593 2.282 . S
Mn577 O601 2.215 . S
Mn577 O603 2.117 . S
C578 O600 1.234 . S
C578 O601 1.283 . S
C579 O591 1.281 . S
C579 O592 1.236 . S
C580 O602 1.240 . S
C580 O603 1.264 . S
O581 Mn576 2.095 . S
O581 C590 1.250 . S
O582 Mn577 2.121 . S
O582 C590 1.258 . S
C583 N584 1.326 . S
C583 C587 1.460 . S
C583 H589 0.929 . S
N584 Mn577 2.257 . S
N584 C583 1.326 . S
N584 C588 1.362 . S
C585 C586 1.258 . S
C585 C588 1.431 . S
C585 C605 1.449 . S
C586 C585 1.258 . S
C586 C587 1.477 . S
C586 H606 0.931 . S
C587 C583 1.460 . S
C587 C586 1.477 . S
C587 H607 0.930 . S
C588 N584 1.362 . S
C588 C585 1.431 . S
C588 C598 1.476 . S
H589 C583 0.929 . S
C590 O581 1.250 . S
C590 O582 1.258 . S
O591 Mn576 2.162 . S
O591 C579 1.281 . S
O592 Mn576 2.297 . S
O592 C579 1.236 . S
N593 Mn577 2.282 . S
N593 C594 1.328 . S
N593 C598 1.318 . S
C594 N593 1.328 . S
C594 C595 1.457 . S
C594 H599 0.929 . S
C595 C594 1.457 . S
C595 C596 1.291 . S
C595 H608 0.931 . S
C596 C595 1.291 . S
C596 C597 1.373 . S
C596 H609 0.929 . S
C597 C596 1.373 . S
C597 C598 1.396 . S
C597 C604 1.403 . S
C598 C588 1.476 . S
C598 N593 1.318 . S
C598 C597 1.396 . S
H599 C594 0.929 . S
O600 Mn576 2.385 . S
O600 C578 1.234 . S
O601 Mn576 2.209 . S
O601 Mn577 2.215 . S
O601 C578 1.283 . S
O602 Mn576 2.094 . S
O602 C580 1.240 . S
O603 Mn577 2.117 . S
O603 C580 1.264 . S
C604 C597 1.403 . S
C604 C605 1.399 . S
C604 H610 0.929 . S
C605 C585 1.449 . S
C605 C604 1.399 . S
C605 H611 0.930 . S
H606 C586 0.931 . S
H607 C587 0.930 . S
H608 C595 0.931 . S
H609 C596 0.929 . S
H610 C604 0.929 . S
H611 C605 0.930 . S
Mn612 O617 2.095 . S
Mn612 O627 2.162 . S
Mn612 O628 2.297 . S
Mn612 O636 2.385 . S
Mn612 O637 2.209 . S
Mn612 O638 2.094 . S
Mn613 O618 2.121 . S
Mn613 N620 2.257 . S
Mn613 N629 2.282 . S
Mn613 O637 2.215 . S
Mn613 O639 2.117 . S
C614 O636 1.234 . S
C614 O637 1.283 . S
C615 O627 1.281 . S
C615 O628 1.236 . S
C616 O638 1.240 . S
C616 O639 1.264 . S
O617 Mn612 2.095 . S
O617 C626 1.250 . S
O618 Mn613 2.121 . S
O618 C626 1.258 . S
C619 N620 1.326 . S
C619 C623 1.460 . S
C619 H625 0.929 . S
N620 Mn613 2.257 . S
N620 C619 1.326 . S
N620 C624 1.362 . S
C621 C622 1.258 . S
C621 C624 1.431 . S
C621 C641 1.449 . S
C622 C621 1.258 . S
C622 C623 1.477 . S
C622 H642 0.931 . S
C623 C619 1.460 . S
C623 C622 1.477 . S
C623 H643 0.930 . S
C624 N620 1.362 . S
C624 C621 1.431 . S
C624 C634 1.476 . S
H625 C619 0.929 . S
C626 O617 1.250 . S
C626 O618 1.258 . S
O627 Mn612 2.162 . S
O627 C615 1.281 . S
O628 Mn612 2.297 . S
O628 C615 1.236 . S
N629 Mn613 2.282 . S
N629 C630 1.328 . S
N629 C634 1.318 . S
C630 N629 1.328 . S
C630 C631 1.457 . S
C630 H635 0.929 . S
C631 C630 1.457 . S
C631 C632 1.291 . S
C631 H644 0.931 . S
C632 C631 1.291 . S
C632 C633 1.373 . S
C632 H645 0.929 . S
C633 C632 1.373 . S
C633 C634 1.396 . S
C633 C640 1.403 . S
C634 C624 1.476 . S
C634 N629 1.318 . S
C634 C633 1.396 . S
H635 C630 0.929 . S
O636 Mn612 2.385 . S
O636 C614 1.234 . S
O637 Mn612 2.209 . S
O637 Mn613 2.215 . S
O637 C614 1.283 . S
O638 Mn612 2.094 . S
O638 C616 1.240 . S
O639 Mn613 2.117 . S
O639 C616 1.264 . S
C640 C633 1.403 . S
C640 C641 1.399 . S
C640 H646 0.929 . S
C641 C621 1.449 . S
C641 C640 1.399 . S
C641 H647 0.930 . S
H642 C622 0.931 . S
H643 C623 0.930 . S
H644 C631 0.931 . S
H645 C632 0.929 . S
H646 C640 0.929 . S
H647 C641 0.930 . S
Mn648 O653 2.095 . S
Mn648 O663 2.162 . S
Mn648 O664 2.297 . S
Mn648 O672 2.385 . S
Mn648 O673 2.209 . S
Mn648 O674 2.094 . S
Mn649 O654 2.121 . S
Mn649 N656 2.257 . S
Mn649 N665 2.282 . S
Mn649 O673 2.215 . S
Mn649 O675 2.117 . S
C650 O672 1.234 . S
C650 O673 1.283 . S
C651 O663 1.281 . S
C651 O664 1.236 . S
C652 O674 1.240 . S
C652 O675 1.264 . S
O653 Mn648 2.095 . S
O653 C662 1.250 . S
O654 Mn649 2.121 . S
O654 C662 1.258 . S
C655 N656 1.326 . S
C655 C659 1.460 . S
C655 H661 0.929 . S
N656 Mn649 2.257 . S
N656 C655 1.326 . S
N656 C660 1.362 . S
C657 C658 1.258 . S
C657 C660 1.431 . S
C657 C677 1.449 . S
C658 C657 1.258 . S
C658 C659 1.477 . S
C658 H678 0.931 . S
C659 C655 1.460 . S
C659 C658 1.477 . S
C659 H679 0.930 . S
C660 N656 1.362 . S
C660 C657 1.431 . S
C660 C670 1.476 . S
H661 C655 0.929 . S
C662 O653 1.250 . S
C662 O654 1.258 . S
O663 Mn648 2.162 . S
O663 C651 1.281 . S
O664 Mn648 2.297 . S
O664 C651 1.236 . S
N665 Mn649 2.282 . S
N665 C666 1.328 . S
N665 C670 1.318 . S
C666 N665 1.328 . S
C666 C667 1.457 . S
C666 H671 0.929 . S
C667 C666 1.457 . S
C667 C668 1.291 . S
C667 H680 0.931 . S
C668 C667 1.291 . S
C668 C669 1.373 . S
C668 H681 0.929 . S
C669 C668 1.373 . S
C669 C670 1.396 . S
C669 C676 1.403 . S
C670 C660 1.476 . S
C670 N665 1.318 . S
C670 C669 1.396 . S
H671 C666 0.929 . S
O672 Mn648 2.385 . S
O672 C650 1.234 . S
O673 Mn648 2.209 . S
O673 Mn649 2.215 . S
O673 C650 1.283 . S
O674 Mn648 2.094 . S
O674 C652 1.240 . S
O675 Mn649 2.117 . S
O675 C652 1.264 . S
C676 C669 1.403 . S
C676 C677 1.399 . S
C676 H682 0.929 . S
C677 C657 1.449 . S
C677 C676 1.399 . S
C677 H683 0.930 . S
H678 C658 0.931 . S
H679 C659 0.930 . S
H680 C667 0.931 . S
H681 C668 0.929 . S
H682 C676 0.929 . S
H683 C677 0.930 . S
Mn684 O689 2.095 . S
Mn684 O699 2.162 . S
Mn684 O700 2.297 . S
Mn684 O708 2.385 . S
Mn684 O709 2.209 . S
Mn684 O710 2.094 . S
Mn685 O690 2.121 . S
Mn685 N692 2.257 . S
Mn685 N701 2.282 . S
Mn685 O709 2.215 . S
Mn685 O711 2.117 . S
C686 O708 1.234 . S
C686 O709 1.283 . S
C687 O699 1.281 . S
C687 O700 1.236 . S
C688 O710 1.240 . S
C688 O711 1.264 . S
O689 Mn684 2.095 . S
O689 C698 1.250 . S
O690 Mn685 2.121 . S
O690 C698 1.258 . S
C691 N692 1.326 . S
C691 C695 1.460 . S
C691 H697 0.929 . S
N692 Mn685 2.257 . S
N692 C691 1.326 . S
N692 C696 1.362 . S
C693 C694 1.258 . S
C693 C696 1.431 . S
C693 C713 1.449 . S
C694 C693 1.258 . S
C694 C695 1.477 . S
C694 H714 0.931 . S
C695 C691 1.460 . S
C695 C694 1.477 . S
C695 H715 0.930 . S
C696 N692 1.362 . S
C696 C693 1.431 . S
C696 C706 1.476 . S
H697 C691 0.929 . S
C698 O689 1.250 . S
C698 O690 1.258 . S
O699 Mn684 2.162 . S
O699 C687 1.281 . S
O700 Mn684 2.297 . S
O700 C687 1.236 . S
N701 Mn685 2.282 . S
N701 C702 1.328 . S
N701 C706 1.318 . S
C702 N701 1.328 . S
C702 C703 1.457 . S
C702 H707 0.929 . S
C703 C702 1.457 . S
C703 C704 1.291 . S
C703 H716 0.931 . S
C704 C703 1.291 . S
C704 C705 1.373 . S
C704 H717 0.929 . S
C705 C704 1.373 . S
C705 C706 1.396 . S
C705 C712 1.403 . S
C706 C696 1.476 . S
C706 N701 1.318 . S
C706 C705 1.396 . S
H707 C702 0.929 . S
O708 Mn684 2.385 . S
O708 C686 1.234 . S
O709 Mn684 2.209 . S
O709 Mn685 2.215 . S
O709 C686 1.283 . S
O710 Mn684 2.094 . S
O710 C688 1.240 . S
O711 Mn685 2.117 . S
O711 C688 1.264 . S
C712 C705 1.403 . S
C712 C713 1.399 . S
C712 H718 0.929 . S
C713 C693 1.449 . S
C713 C712 1.399 . S
C713 H719 0.930 . S
H714 C694 0.931 . S
H715 C695 0.930 . S
H716 C703 0.931 . S
H717 C704 0.929 . S
H718 C712 0.929 . S
H719 C713 0.930 . S
Mn720 O725 2.095 . S
Mn720 O735 2.162 . S
Mn720 O736 2.297 . S
Mn720 O744 2.385 . S
Mn720 O745 2.209 . S
Mn720 O746 2.094 . S
Mn721 O726 2.121 . S
Mn721 N728 2.257 . S
Mn721 N737 2.282 . S
Mn721 O745 2.215 . S
Mn721 O747 2.117 . S
C722 O744 1.234 . S
C722 O745 1.283 . S
C723 O735 1.281 . S
C723 O736 1.236 . S
C724 O746 1.240 . S
C724 O747 1.264 . S
O725 Mn720 2.095 . S
O725 C734 1.250 . S
O726 Mn721 2.121 . S
O726 C734 1.258 . S
C727 N728 1.326 . S
C727 C731 1.460 . S
C727 H733 0.929 . S
N728 Mn721 2.257 . S
N728 C727 1.326 . S
N728 C732 1.362 . S
C729 C730 1.258 . S
C729 C732 1.431 . S
C729 C749 1.449 . S
C730 C729 1.258 . S
C730 C731 1.477 . S
C730 H750 0.931 . S
C731 C727 1.460 . S
C731 C730 1.477 . S
C731 H751 0.930 . S
C732 N728 1.362 . S
C732 C729 1.431 . S
C732 C742 1.476 . S
H733 C727 0.929 . S
C734 O725 1.250 . S
C734 O726 1.258 . S
O735 Mn720 2.162 . S
O735 C723 1.281 . S
O736 Mn720 2.297 . S
O736 C723 1.236 . S
N737 Mn721 2.282 . S
N737 C738 1.328 . S
N737 C742 1.318 . S
C738 N737 1.328 . S
C738 C739 1.457 . S
C738 H743 0.929 . S
C739 C738 1.457 . S
C739 C740 1.291 . S
C739 H752 0.931 . S
C740 C739 1.291 . S
C740 C741 1.373 . S
C740 H753 0.929 . S
C741 C740 1.373 . S
C741 C742 1.396 . S
C741 C748 1.403 . S
C742 C732 1.476 . S
C742 N737 1.318 . S
C742 C741 1.396 . S
H743 C738 0.929 . S
O744 Mn720 2.385 . S
O744 C722 1.234 . S
O745 Mn720 2.209 . S
O745 Mn721 2.215 . S
O745 C722 1.283 . S
O746 Mn720 2.094 . S
O746 C724 1.240 . S
O747 Mn721 2.117 . S
O747 C724 1.264 . S
C748 C741 1.403 . S
C748 C749 1.399 . S
C748 H754 0.929 . S
C749 C729 1.449 . S
C749 C748 1.399 . S
C749 H755 0.930 . S
H750 C730 0.931 . S
H751 C731 0.930 . S
H752 C739 0.931 . S
H753 C740 0.929 . S
H754 C748 0.929 . S
H755 C749 0.930 . S
Mn756 O761 2.095 . S
Mn756 O771 2.162 . S
Mn756 O772 2.297 . S
Mn756 O780 2.385 . S
Mn756 O781 2.209 . S
Mn756 O782 2.094 . S
Mn757 O762 2.121 . S
Mn757 N764 2.257 . S
Mn757 N773 2.282 . S
Mn757 O781 2.215 . S
Mn757 O783 2.117 . S
C758 O780 1.234 . S
C758 O781 1.283 . S
C759 O771 1.281 . S
C759 O772 1.236 . S
C760 O782 1.240 . S
C760 O783 1.264 . S
O761 Mn756 2.095 . S
O761 C770 1.250 . S
O762 Mn757 2.121 . S
O762 C770 1.258 . S
C763 N764 1.326 . S
C763 C767 1.460 . S
C763 H769 0.929 . S
N764 Mn757 2.257 . S
N764 C763 1.326 . S
N764 C768 1.362 . S
C765 C766 1.258 . S
C765 C768 1.431 . S
C765 C785 1.449 . S
C766 C765 1.258 . S
C766 C767 1.477 . S
C766 H786 0.931 . S
C767 C763 1.460 . S
C767 C766 1.477 . S
C767 H787 0.930 . S
C768 N764 1.362 . S
C768 C765 1.431 . S
C768 C778 1.476 . S
H769 C763 0.929 . S
C770 O761 1.250 . S
C770 O762 1.258 . S
O771 Mn756 2.162 . S
O771 C759 1.281 . S
O772 Mn756 2.297 . S
O772 C759 1.236 . S
N773 Mn757 2.282 . S
N773 C774 1.328 . S
N773 C778 1.318 . S
C774 N773 1.328 . S
C774 C775 1.457 . S
C774 H779 0.929 . S
C775 C774 1.457 . S
C775 C776 1.291 . S
C775 H788 0.931 . S
C776 C775 1.291 . S
C776 C777 1.373 . S
C776 H789 0.929 . S
C777 C776 1.373 . S
C777 C778 1.396 . S
C777 C784 1.403 . S
C778 C768 1.476 . S
C778 N773 1.318 . S
C778 C777 1.396 . S
H779 C774 0.929 . S
O780 Mn756 2.385 . S
O780 C758 1.234 . S
O781 Mn756 2.209 . S
O781 Mn757 2.215 . S
O781 C758 1.283 . S
O782 Mn756 2.094 . S
O782 C760 1.240 . S
O783 Mn757 2.117 . S
O783 C760 1.264 . S
C784 C777 1.403 . S
C784 C785 1.399 . S
C784 H790 0.929 . S
C785 C765 1.449 . S
C785 C784 1.399 . S
C785 H791 0.930 . S
H786 C766 0.931 . S
H787 C767 0.930 . S
H788 C775 0.931 . S
H789 C776 0.929 . S
H790 C784 0.929 . S
H791 C785 0.930 . S
Mn792 O797 2.095 . S
Mn792 O807 2.162 . S
Mn792 O808 2.297 . S
Mn792 O816 2.385 . S
Mn792 O817 2.209 . S
Mn792 O818 2.094 . S
Mn793 O798 2.121 . S
Mn793 N800 2.257 . S
Mn793 N809 2.282 . S
Mn793 O817 2.215 . S
Mn793 O819 2.117 . S
C794 O816 1.234 . S
C794 O817 1.283 . S
C795 O807 1.281 . S
C795 O808 1.236 . S
C796 O818 1.240 . S
C796 O819 1.264 . S
O797 Mn792 2.095 . S
O797 C806 1.250 . S
O798 Mn793 2.121 . S
O798 C806 1.258 . S
C799 N800 1.326 . S
C799 C803 1.460 . S
C799 H805 0.929 . S
N800 Mn793 2.257 . S
N800 C799 1.326 . S
N800 C804 1.362 . S
C801 C802 1.258 . S
C801 C804 1.431 . S
C801 C821 1.449 . S
C802 C801 1.258 . S
C802 C803 1.477 . S
C802 H822 0.931 . S
C803 C799 1.460 . S
C803 C802 1.477 . S
C803 H823 0.930 . S
C804 N800 1.362 . S
C804 C801 1.431 . S
C804 C814 1.476 . S
H805 C799 0.929 . S
C806 O797 1.250 . S
C806 O798 1.258 . S
O807 Mn792 2.162 . S
O807 C795 1.281 . S
O808 Mn792 2.297 . S
O808 C795 1.236 . S
N809 Mn793 2.282 . S
N809 C810 1.328 . S
N809 C814 1.318 . S
C810 N809 1.328 . S
C810 C811 1.457 . S
C810 H815 0.929 . S
C811 C810 1.457 . S
C811 C812 1.291 . S
C811 H824 0.931 . S
C812 C811 1.291 . S
C812 C813 1.373 . S
C812 H825 0.929 . S
C813 C812 1.373 . S
C813 C814 1.396 . S
C813 C820 1.403 . S
C814 C804 1.476 . S
C814 N809 1.318 . S
C814 C813 1.396 . S
H815 C810 0.929 . S
O816 Mn792 2.385 . S
O816 C794 1.234 . S
O817 Mn792 2.209 . S
O817 Mn793 2.215 . S
O817 C794 1.283 . S
O818 Mn792 2.094 . S
O818 C796 1.240 . S
O819 Mn793 2.117 . S
O819 C796 1.264 . S
C820 C813 1.403 . S
C820 C821 1.399 . S
C820 H826 0.929 . S
C821 C801 1.449 . S
C821 C820 1.399 . S
C821 H827 0.930 . S
H822 C802 0.931 . S
H823 C803 0.930 . S
H824 C811 0.931 . S
H825 C812 0.929 . S
H826 C820 0.929 . S
H827 C821 0.930 . S
Mn828 O833 2.095 . S
Mn828 O843 2.162 . S
Mn828 O844 2.297 . S
Mn828 O852 2.385 . S
Mn828 O853 2.209 . S
Mn828 O854 2.094 . S
Mn829 O834 2.121 . S
Mn829 N836 2.257 . S
Mn829 N845 2.282 . S
Mn829 O853 2.215 . S
Mn829 O855 2.117 . S
C830 O852 1.234 . S
C830 O853 1.283 . S
C831 O843 1.281 . S
C831 O844 1.236 . S
C832 O854 1.240 . S
C832 O855 1.264 . S
O833 Mn828 2.095 . S
O833 C842 1.250 . S
O834 Mn829 2.121 . S
O834 C842 1.258 . S
C835 N836 1.326 . S
C835 C839 1.460 . S
C835 H841 0.929 . S
N836 Mn829 2.257 . S
N836 C835 1.326 . S
N836 C840 1.362 . S
C837 C838 1.258 . S
C837 C840 1.431 . S
C837 C857 1.449 . S
C838 C837 1.258 . S
C838 C839 1.477 . S
C838 H858 0.931 . S
C839 C835 1.460 . S
C839 C838 1.477 . S
C839 H859 0.930 . S
C840 N836 1.362 . S
C840 C837 1.431 . S
C840 C850 1.476 . S
H841 C835 0.929 . S
C842 O833 1.250 . S
C842 O834 1.258 . S
O843 Mn828 2.162 . S
O843 C831 1.281 . S
O844 Mn828 2.297 . S
O844 C831 1.236 . S
N845 Mn829 2.282 . S
N845 C846 1.328 . S
N845 C850 1.318 . S
C846 N845 1.328 . S
C846 C847 1.457 . S
C846 H851 0.929 . S
C847 C846 1.457 . S
C847 C848 1.291 . S
C847 H860 0.931 . S
C848 C847 1.291 . S
C848 C849 1.373 . S
C848 H861 0.929 . S
C849 C848 1.373 . S
C849 C850 1.396 . S
C849 C856 1.403 . S
C850 C840 1.476 . S
C850 N845 1.318 . S
C850 C849 1.396 . S
H851 C846 0.929 . S
O852 Mn828 2.385 . S
O852 C830 1.234 . S
O853 Mn828 2.209 . S
O853 Mn829 2.215 . S
O853 C830 1.283 . S
O854 Mn828 2.094 . S
O854 C832 1.240 . S
O855 Mn829 2.117 . S
O855 C832 1.264 . S
C856 C849 1.403 . S
C856 C857 1.399 . S
C856 H862 0.929 . S
C857 C837 1.449 . S
C857 C856 1.399 . S
C857 H863 0.930 . S
H858 C838 0.931 . S
H859 C839 0.930 . S
H860 C847 0.931 . S
H861 C848 0.929 . S
H862 C856 0.929 . S
H863 C857 0.930 . S
H864 C870 0.930 . S
H865 C873 0.930 . S
H866 C874 0.930 . S
H867 C875 0.930 . S
H868 C878 0.930 1_565 S
H869 C879 0.930 1_565 S
C870 H864 0.930 . S
C870 C871 1.355 . S
C870 C872 1.415 . S
C871 C870 1.355 . S
C871 C873 1.419 . S
C872 C870 1.415 . S
C872 C877 1.425 . S
C872 C879 1.409 . S
C873 H865 0.930 . S
C873 C871 1.419 . S
C873 C874 1.362 . S
C874 H866 0.930 . S
C874 C873 1.362 . S
C874 C877 1.409 . S
C875 H867 0.930 . S
C875 C876 1.355 . S
C875 C877 1.415 . S
C876 C875 1.355 . S
C876 C878 1.419 . S
C877 C872 1.425 . S
C877 C874 1.409 . S
C877 C875 1.415 . S
C878 H868 0.930 1_545 S
C878 C876 1.419 . S
C878 C879 1.362 . S
C879 H869 0.930 1_545 S
C879 C872 1.409 . S
C879 C878 1.362 . S
H880 C886 0.930 . S
H881 C889 0.930 . S
H882 C890 0.930 . S
H883 C891 0.930 . S
H884 C894 0.930 . S
H885 C895 0.930 . S
C886 H880 0.930 . S
C886 C887 1.355 . S
C886 C888 1.415 . S
C887 C886 1.355 . S
C887 C889 1.419 . S
C888 C886 1.415 . S
C888 C893 1.425 . S
C888 C895 1.409 . S
C889 H881 0.930 . S
C889 C887 1.419 . S
C889 C890 1.362 . S
C890 H882 0.930 . S
C890 C889 1.362 . S
C890 C893 1.409 . S
C891 H883 0.930 . S
C891 C892 1.355 . S
C891 C893 1.415 . S
C892 C891 1.355 . S
C892 C894 1.419 . S
C893 C888 1.425 . S
C893 C890 1.409 . S
C893 C891 1.415 . S
C894 H884 0.930 . S
C894 C892 1.419 . S
C894 C895 1.362 . S
C895 H885 0.930 . S
C895 C888 1.409 . S
C895 C894 1.362 . S
H896 C902 0.930 . S
H897 C905 0.930 . S
H898 C906 0.930 . S
H899 C907 0.930 . S
H900 C910 0.930 . S
H901 C911 0.930 . S
C902 H896 0.930 . S
C902 C903 1.355 . S
C902 C904 1.415 . S
C903 C902 1.355 . S
C903 C905 1.419 . S
C904 C902 1.415 . S
C904 C909 1.425 . S
C904 C911 1.409 . S
C905 H897 0.930 . S
C905 C903 1.419 . S
C905 C906 1.362 . S
C906 H898 0.930 . S
C906 C905 1.362 . S
C906 C909 1.409 . S
C907 H899 0.930 . S
C907 C908 1.355 . S
C907 C909 1.415 . S
C908 C907 1.355 . S
C908 C910 1.419 . S
C909 C904 1.425 . S
C909 C906 1.409 . S
C909 C907 1.415 . S
C910 H900 0.930 . S
C910 C908 1.419 . S
C910 C911 1.362 . S
C911 H901 0.930 . S
C911 C904 1.409 . S
C911 C910 1.362 . S
H912 C918 0.930 . S
H913 C921 0.930 . S
H914 C922 0.930 . S
H915 C923 0.930 . S
H916 C926 0.930 1_545 S
H917 C927 0.930 1_545 S
C918 H912 0.930 . S
C918 C919 1.355 . S
C918 C920 1.415 . S
C919 C918 1.355 . S
C919 C921 1.419 . S
C920 C918 1.415 . S
C920 C925 1.425 . S
C920 C927 1.409 . S
C921 H913 0.930 . S
C921 C919 1.419 . S
C921 C922 1.362 . S
C922 H914 0.930 . S
C922 C921 1.362 . S
C922 C925 1.409 . S
C923 H915 0.930 . S
C923 C924 1.355 . S
C923 C925 1.415 . S
C924 C923 1.355 . S
C924 C926 1.419 . S
C925 C920 1.425 . S
C925 C922 1.409 . S
C925 C923 1.415 . S
C926 H916 0.930 1_565 S
C926 C924 1.419 . S
C926 C927 1.362 . S
C927 H917 0.930 1_565 S
C927 C920 1.409 . S
C927 C926 1.362 . S
H928 C934 0.930 . S
H929 C937 0.930 . S
H930 C938 0.930 . S
H931 C939 0.930 . S
H932 C942 0.930 . S
H933 C943 0.930 . S
C934 H928 0.930 . S
C934 C935 1.355 . S
C934 C936 1.415 . S
C935 C934 1.355 . S
C935 C937 1.419 . S
C936 C934 1.415 . S
C936 C941 1.425 . S
C936 C943 1.409 . S
C937 H929 0.930 . S
C937 C935 1.419 . S
C937 C938 1.362 . S
C938 H930 0.930 . S
C938 C937 1.362 . S
C938 C941 1.409 . S
C939 H931 0.930 . S
C939 C940 1.355 . S
C939 C941 1.415 . S
C940 C939 1.355 . S
C940 C942 1.419 . S
C941 C936 1.425 . S
C941 C938 1.409 . S
C941 C939 1.415 . S
C942 H932 0.930 . S
C942 C940 1.419 . S
C942 C943 1.362 . S
C943 H933 0.930 . S
C943 C936 1.409 . S
C943 C942 1.362 . S
H944 C950 0.930 . S
H945 C953 0.930 . S
H946 C954 0.930 . S
H947 C955 0.930 . S
H948 C958 0.930 . S
H949 C959 0.930 . S
C950 H944 0.930 . S
C950 C951 1.355 . S
C950 C952 1.415 . S
C951 C950 1.355 . S
C951 C953 1.419 . S
C952 C950 1.415 . S
C952 C957 1.425 . S
C952 C959 1.409 . S
C953 H945 0.930 . S
C953 C951 1.419 . S
C953 C954 1.362 . S
C954 H946 0.930 . S
C954 C953 1.362 . S
C954 C957 1.409 . S
C955 H947 0.930 . S
C955 C956 1.355 . S
C955 C957 1.415 . S
C956 C955 1.355 . S
C956 C958 1.419 . S
C957 C952 1.425 . S
C957 C954 1.409 . S
C957 C955 1.415 . S
C958 H948 0.930 . S
C958 C956 1.419 . S
C958 C959 1.362 . S
C959 H949 0.930 . S
C959 C952 1.409 . S
C959 C958 1.362 . S
H960 C966 0.930 . S
H961 C969 0.930 . S
H962 C970 0.930 . S
H963 C971 0.930 . S
H964 C974 0.930 1_455 S
H965 C975 0.930 1_455 S
C966 H960 0.930 . S
C966 C967 1.355 . S
C966 C968 1.415 . S
C967 C966 1.355 . S
C967 C969 1.419 . S
C968 C966 1.415 . S
C968 C973 1.425 . S
C968 C975 1.409 . S
C969 H961 0.930 . S
C969 C967 1.419 . S
C969 C970 1.362 . S
C970 H962 0.930 . S
C970 C969 1.362 . S
C970 C973 1.409 . S
C971 H963 0.930 . S
C971 C972 1.355 . S
C971 C973 1.415 . S
C972 C971 1.355 . S
C972 C974 1.419 . S
C973 C968 1.425 . S
C973 C970 1.409 . S
C973 C971 1.415 . S
C974 H964 0.930 1_655 S
C974 C972 1.419 . S
C974 C975 1.362 . S
C975 H965 0.930 1_655 S
C975 C968 1.409 . S
C975 C974 1.362 . S
H976 C982 0.930 . S
H977 C985 0.930 . S
H978 C986 0.930 1_545 S
H979 C987 0.930 . S
H980 C990 0.930 . S
H981 C991 0.930 . S
C982 H976 0.930 . S
C982 C983 1.355 . S
C982 C984 1.415 . S
C983 C982 1.355 . S
C983 C985 1.419 . S
C984 C982 1.415 . S
C984 C989 1.425 . S
C984 C991 1.409 . S
C985 H977 0.930 . S
C985 C983 1.419 . S
C985 C986 1.362 . S
C986 H978 0.930 1_565 S
C986 C985 1.362 . S
C986 C989 1.409 . S
C987 H979 0.930 . S
C987 C988 1.355 . S
C987 C989 1.415 . S
C988 C987 1.355 . S
C988 C990 1.419 . S
C989 C984 1.425 . S
C989 C986 1.409 . S
C989 C987 1.415 . S
C990 H980 0.930 . S
C990 C988 1.419 . S
C990 C991 1.362 . S
C991 H981 0.930 . S
C991 C984 1.409 . S
C991 C990 1.362 . S
H992 C998 0.930 . S
H993 C1001 0.930 . S
H994 C1002 0.930 . S
H995 C1003 0.930 . S
H996 C1006 0.930 . S
H997 C1007 0.930 . S
C998 H992 0.930 . S
C998 C999 1.355 . S
C998 C1000 1.415 . S
C999 C998 1.355 . S
C999 C1001 1.419 . S
C1000 C998 1.415 . S
C1000 C1005 1.425 . S
C1000 C1007 1.409 . S
C1001 H993 0.930 . S
C1001 C999 1.419 . S
C1001 C1002 1.362 . S
C1002 H994 0.930 . S
C1002 C1001 1.362 . S
C1002 C1005 1.409 . S
C1003 H995 0.930 . S
C1003 C1004 1.355 . S
C1003 C1005 1.415 . S
C1004 C1003 1.355 . S
C1004 C1006 1.419 . S
C1005 C1000 1.425 . S
C1005 C1002 1.409 . S
C1005 C1003 1.415 . S
C1006 H996 0.930 . S
C1006 C1004 1.419 . S
C1006 C1007 1.362 . S
C1007 H997 0.930 . S
C1007 C1000 1.409 . S
C1007 C1006 1.362 . S
H1008 C1014 0.930 . S
H1009 C1017 0.930 . S
H1010 C1018 0.930 . S
H1011 C1019 0.930 . S
H1012 C1022 0.930 . S
H1013 C1023 0.930 . S
C1014 H1008 0.930 . S
C1014 C1015 1.355 . S
C1014 C1016 1.415 . S
C1015 C1014 1.355 . S
C1015 C1017 1.419 . S
C1016 C1014 1.415 . S
C1016 C1021 1.425 . S
C1016 C1023 1.409 . S
C1017 H1009 0.930 . S
C1017 C1015 1.419 . S
C1017 C1018 1.362 . S
C1018 H1010 0.930 . S
C1018 C1017 1.362 . S
C1018 C1021 1.409 . S
C1019 H1011 0.930 . S
C1019 C1020 1.355 . S
C1019 C1021 1.415 . S
C1020 C1019 1.355 . S
C1020 C1022 1.419 . S
C1021 C1016 1.425 . S
C1021 C1018 1.409 . S
C1021 C1019 1.415 . S
C1022 H1012 0.930 . S
C1022 C1020 1.419 . S
C1022 C1023 1.362 . S
C1023 H1013 0.930 . S
C1023 C1016 1.409 . S
C1023 C1022 1.362 . S
H1024 C1030 0.930 . S
H1025 C1033 0.930 1_565 S
H1026 C1034 0.930 1_565 S
H1027 C1035 0.930 . S
H1028 C1038 0.930 . S
H1029 C1039 0.930 . S
C1030 H1024 0.930 . S
C1030 C1031 1.355 . S
C1030 C1032 1.415 . S
C1031 C1030 1.355 . S
C1031 C1033 1.419 . S
C1032 C1030 1.415 . S
C1032 C1037 1.425 . S
C1032 C1039 1.409 . S
C1033 H1025 0.930 1_545 S
C1033 C1031 1.419 . S
C1033 C1034 1.362 . S
C1034 H1026 0.930 1_545 S
C1034 C1033 1.362 . S
C1034 C1037 1.409 . S
C1035 H1027 0.930 . S
C1035 C1036 1.355 . S
C1035 C1037 1.415 . S
C1036 C1035 1.355 . S
C1036 C1038 1.419 . S
C1037 C1032 1.425 . S
C1037 C1034 1.409 . S
C1037 C1035 1.415 . S
C1038 H1028 0.930 . S
C1038 C1036 1.419 . S
C1038 C1039 1.362 . S
C1039 H1029 0.930 . S
C1039 C1032 1.409 . S
C1039 C1038 1.362 . S
H1040 C1046 0.930 . S
H1041 C1049 0.930 . S
H1042 C1050 0.930 . S
H1043 C1051 0.930 . S
H1044 C1054 0.930 . S
H1045 C1055 0.930 . S
C1046 H1040 0.930 . S
C1046 C1047 1.355 . S
C1046 C1048 1.415 . S
C1047 C1046 1.355 . S
C1047 C1049 1.419 . S
C1048 C1046 1.415 . S
C1048 C1053 1.425 . S
C1048 C1055 1.409 . S
C1049 H1041 0.930 . S
C1049 C1047 1.419 . S
C1049 C1050 1.362 . S
C1050 H1042 0.930 . S
C1050 C1049 1.362 . S
C1050 C1053 1.409 . S
C1051 H1043 0.930 . S
C1051 C1052 1.355 . S
C1051 C1053 1.415 . S
C1052 C1051 1.355 . S
C1052 C1054 1.419 . S
C1053 C1048 1.425 . S
C1053 C1050 1.409 . S
C1053 C1051 1.415 . S
C1054 H1044 0.930 . S
C1054 C1052 1.419 . S
C1054 C1055 1.362 . S
C1055 H1045 0.930 . S
C1055 C1048 1.409 . S
C1055 C1054 1.362 . S
H1056 C1062 0.930 . S
H1057 C1065 0.930 . S
H1058 C1066 0.930 . S
H1059 C1067 0.930 . S
H1060 C1070 0.930 . S
H1061 C1071 0.930 . S
C1062 H1056 0.930 . S
C1062 C1063 1.355 . S
C1062 C1064 1.415 . S
C1063 C1062 1.355 . S
C1063 C1065 1.419 . S
C1064 C1062 1.415 . S
C1064 C1069 1.425 . S
C1064 C1071 1.409 . S
C1065 H1057 0.930 . S
C1065 C1063 1.419 . S
C1065 C1066 1.362 . S
C1066 H1058 0.930 . S
C1066 C1065 1.362 . S
C1066 C1069 1.409 . S
C1067 H1059 0.930 . S
C1067 C1068 1.355 . S
C1067 C1069 1.415 . S
C1068 C1067 1.355 . S
C1068 C1070 1.419 . S
C1069 C1064 1.425 . S
C1069 C1066 1.409 . S
C1069 C1067 1.415 . S
C1070 H1060 0.930 . S
C1070 C1068 1.419 . S
C1070 C1071 1.362 . S
C1071 H1061 0.930 . S
C1071 C1064 1.409 . S
C1071 C1070 1.362 . S
H1072 C1078 0.930 . S
H1073 C1081 0.930 . S
H1074 C1082 0.930 . S
H1075 C1083 0.930 . S
H1076 C1086 0.930 . S
H1077 C1087 0.930 . S
C1078 H1072 0.930 . S
C1078 C1079 1.355 . S
C1078 C1080 1.415 . S
C1079 C1078 1.355 . S
C1079 C1081 1.419 . S
C1080 C1078 1.415 . S
C1080 C1085 1.425 . S
C1080 C1087 1.409 . S
C1081 H1073 0.930 . S
C1081 C1079 1.419 . S
C1081 C1082 1.362 . S
C1082 H1074 0.930 . S
C1082 C1081 1.362 . S
C1082 C1085 1.409 . S
C1083 H1075 0.930 . S
C1083 C1084 1.355 . S
C1083 C1085 1.415 . S
C1084 C1083 1.355 . S
C1084 C1086 1.419 . S
C1085 C1080 1.425 . S
C1085 C1082 1.409 . S
C1085 C1083 1.415 . S
C1086 H1076 0.930 . S
C1086 C1084 1.419 . S
C1086 C1087 1.362 . S
C1087 H1077 0.930 . S
C1087 C1080 1.409 . S
C1087 C1086 1.362 . S
H1088 C1094 0.930 . S
H1089 C1097 0.930 . S
H1090 C1098 0.930 . S
H1091 C1099 0.930 . S
H1092 C1102 0.930 . S
H1093 C1103 0.930 . S
C1094 H1088 0.930 . S
C1094 C1095 1.355 . S
C1094 C1096 1.415 . S
C1095 C1094 1.355 . S
C1095 C1097 1.419 . S
C1096 C1094 1.415 . S
C1096 C1101 1.425 . S
C1096 C1103 1.409 . S
C1097 H1089 0.930 . S
C1097 C1095 1.419 . S
C1097 C1098 1.362 . S
C1098 H1090 0.930 . S
C1098 C1097 1.362 . S
C1098 C1101 1.409 . S
C1099 H1091 0.930 . S
C1099 C1100 1.355 . S
C1099 C1101 1.415 . S
C1100 C1099 1.355 . S
C1100 C1102 1.419 . S
C1101 C1096 1.425 . S
C1101 C1098 1.409 . S
C1101 C1099 1.415 . S
C1102 H1092 0.930 . S
C1102 C1100 1.419 . S
C1102 C1103 1.362 . S
C1103 H1093 0.930 . S
C1103 C1096 1.409 . S
C1103 C1102 1.362 . S
H1104 C1110 0.930 . S
H1105 C1113 0.930 . S
H1106 C1114 0.930 . S
H1107 C1115 0.930 . S
H1108 C1118 0.930 . S
H1109 C1119 0.930 . S
C1110 H1104 0.930 . S
C1110 C1111 1.355 . S
C1110 C1112 1.415 . S
C1111 C1110 1.355 . S
C1111 C1113 1.419 . S
C1112 C1110 1.415 . S
C1112 C1117 1.425 . S
C1112 C1119 1.409 . S
C1113 H1105 0.930 . S
C1113 C1111 1.419 . S
C1113 C1114 1.362 . S
C1114 H1106 0.930 . S
C1114 C1113 1.362 . S
C1114 C1117 1.409 . S
C1115 H1107 0.930 . S
C1115 C1116 1.355 . S
C1115 C1117 1.415 . S
C1116 C1115 1.355 . S
C1116 C1118 1.419 . S
C1117 C1112 1.425 . S
C1117 C1114 1.409 . S
C1117 C1115 1.415 . S
C1118 H1108 0.930 . S
C1118 C1116 1.419 . S
C1118 C1119 1.362 . S
C1119 H1109 0.930 . S
C1119 C1112 1.409 . S
C1119 C1118 1.362 . S
H1120 C1126 0.930 . S
H1121 C1129 0.930 . S
H1122 C1130 0.930 . S
H1123 C1131 0.930 . S
H1124 C1134 0.930 . S
H1125 C1135 0.930 . S
C1126 H1120 0.930 . S
C1126 C1127 1.355 . S
C1126 C1128 1.415 . S
C1127 C1126 1.355 . S
C1127 C1129 1.419 . S
C1128 C1126 1.415 . S
C1128 C1133 1.425 . S
C1128 C1135 1.409 . S
C1129 H1121 0.930 . S
C1129 C1127 1.419 . S
C1129 C1130 1.362 . S
C1130 H1122 0.930 . S
C1130 C1129 1.362 . S
C1130 C1133 1.409 . S
C1131 H1123 0.930 . S
C1131 C1132 1.355 . S
C1131 C1133 1.415 . S
C1132 C1131 1.355 . S
C1132 C1134 1.419 . S
C1133 C1128 1.425 . S
C1133 C1130 1.409 . S
C1133 C1131 1.415 . S
C1134 H1124 0.930 . S
C1134 C1132 1.419 . S
C1134 C1135 1.362 . S
C1135 H1125 0.930 . S
C1135 C1128 1.409 . S
C1135 C1134 1.362 . S
H1136 C1142 0.930 . S
H1137 C1145 0.930 . S
H1138 C1146 0.930 . S
H1139 C1147 0.930 . S
H1140 C1150 0.930 . S
H1141 C1151 0.930 . S
C1142 H1136 0.930 . S
C1142 C1143 1.355 . S
C1142 C1144 1.415 . S
C1143 C1142 1.355 . S
C1143 C1145 1.419 . S
C1144 C1142 1.415 . S
C1144 C1149 1.425 . S
C1144 C1151 1.409 . S
C1145 H1137 0.930 . S
C1145 C1143 1.419 . S
C1145 C1146 1.362 . S
C1146 H1138 0.930 . S
C1146 C1145 1.362 . S
C1146 C1149 1.409 . S
C1147 H1139 0.930 . S
C1147 C1148 1.355 . S
C1147 C1149 1.415 . S
C1148 C1147 1.355 . S
C1148 C1150 1.419 . S
C1149 C1144 1.425 . S
C1149 C1146 1.409 . S
C1149 C1147 1.415 . S
C1150 H1140 0.930 . S
C1150 C1148 1.419 . S
C1150 C1151 1.362 . S
C1151 H1141 0.930 . S
C1151 C1144 1.409 . S
C1151 C1150 1.362 . S
H1152 C1158 0.930 . S
H1153 C1161 0.930 . S
H1154 C1162 0.930 . S
H1155 C1163 0.930 . S
H1156 C1166 0.930 . S
H1157 C1167 0.930 . S
C1158 H1152 0.930 . S
C1158 C1159 1.355 . S
C1158 C1160 1.415 . S
C1159 C1158 1.355 . S
C1159 C1161 1.419 . S
C1160 C1158 1.415 . S
C1160 C1165 1.425 . S
C1160 C1167 1.409 . S
C1161 H1153 0.930 . S
C1161 C1159 1.419 . S
C1161 C1162 1.362 . S
C1162 H1154 0.930 . S
C1162 C1161 1.362 . S
C1162 C1165 1.409 . S
C1163 H1155 0.930 . S
C1163 C1164 1.355 . S
C1163 C1165 1.415 . S
C1164 C1163 1.355 . S
C1164 C1166 1.419 . S
C1165 C1160 1.425 . S
C1165 C1162 1.409 . S
C1165 C1163 1.415 . S
C1166 H1156 0.930 . S
C1166 C1164 1.419 . S
C1166 C1167 1.362 . S
C1167 H1157 0.930 . S
C1167 C1160 1.409 . S
C1167 C1166 1.362 . S
H1168 C1174 0.930 . S
H1169 C1177 0.930 . S
H1170 C1178 0.930 . S
H1171 C1179 0.930 . S
H1172 C1182 0.930 . S
H1173 C1183 0.930 . S
C1174 H1168 0.930 . S
C1174 C1175 1.355 . S
C1174 C1176 1.415 . S
C1175 C1174 1.355 . S
C1175 C1177 1.419 . S
C1176 C1174 1.415 . S
C1176 C1181 1.425 . S
C1176 C1183 1.409 . S
C1177 H1169 0.930 . S
C1177 C1175 1.419 . S
C1177 C1178 1.362 . S
C1178 H1170 0.930 . S
C1178 C1177 1.362 . S
C1178 C1181 1.409 . S
C1179 H1171 0.930 . S
C1179 C1180 1.355 . S
C1179 C1181 1.415 . S
C1180 C1179 1.355 . S
C1180 C1182 1.419 . S
C1181 C1176 1.425 . S
C1181 C1178 1.409 . S
C1181 C1179 1.415 . S
C1182 H1172 0.930 . S
C1182 C1180 1.419 . S
C1182 C1183 1.362 . S
C1183 H1173 0.930 . S
C1183 C1176 1.409 . S
C1183 C1182 1.362 . S
H1184 C1190 0.930 . S
H1185 C1193 0.930 . S
H1186 C1194 0.930 . S
H1187 C1195 0.930 . S
H1188 C1198 0.930 . S
H1189 C1199 0.930 . S
C1190 H1184 0.930 . S
C1190 C1191 1.355 . S
C1190 C1192 1.415 . S
C1191 C1190 1.355 . S
C1191 C1193 1.419 . S
C1192 C1190 1.415 . S
C1192 C1197 1.425 . S
C1192 C1199 1.409 . S
C1193 H1185 0.930 . S
C1193 C1191 1.419 . S
C1193 C1194 1.362 . S
C1194 H1186 0.930 . S
C1194 C1193 1.362 . S
C1194 C1197 1.409 . S
C1195 H1187 0.930 . S
C1195 C1196 1.355 . S
C1195 C1197 1.415 . S
C1196 C1195 1.355 . S
C1196 C1198 1.419 . S
C1197 C1192 1.425 . S
C1197 C1194 1.409 . S
C1197 C1195 1.415 . S
C1198 H1188 0.930 . S
C1198 C1196 1.419 . S
C1198 C1199 1.362 . S
C1199 H1189 0.930 . S
C1199 C1192 1.409 . S
C1199 C1198 1.362 . S
H1200 C1206 0.930 . S
H1201 C1209 0.930 . S
H1202 C1210 0.930 . S
H1203 C1211 0.930 . S
H1204 C1214 0.930 . S
H1205 C1215 0.930 . S
C1206 H1200 0.930 . S
C1206 C1207 1.355 . S
C1206 C1208 1.415 . S
C1207 C1206 1.355 . S
C1207 C1209 1.419 . S
C1208 C1206 1.415 . S
C1208 C1213 1.425 . S
C1208 C1215 1.409 . S
C1209 H1201 0.930 . S
C1209 C1207 1.419 . S
C1209 C1210 1.362 . S
C1210 H1202 0.930 . S
C1210 C1209 1.362 . S
C1210 C1213 1.409 . S
C1211 H1203 0.930 . S
C1211 C1212 1.355 . S
C1211 C1213 1.415 . S
C1212 C1211 1.355 . S
C1212 C1214 1.419 . S
C1213 C1208 1.425 . S
C1213 C1210 1.409 . S
C1213 C1211 1.415 . S
C1214 H1204 0.930 . S
C1214 C1212 1.419 . S
C1214 C1215 1.362 . S
C1215 H1205 0.930 . S
C1215 C1208 1.409 . S
C1215 C1214 1.362 . S
H1216 C1222 0.930 . S
H1217 C1225 0.930 . S
H1218 C1226 0.930 . S
H1219 C1227 0.930 . S
H1220 C1230 0.930 . S
H1221 C1231 0.930 . S
C1222 H1216 0.930 . S
C1222 C1223 1.355 . S
C1222 C1224 1.415 . S
C1223 C1222 1.355 . S
C1223 C1225 1.419 . S
C1224 C1222 1.415 . S
C1224 C1229 1.425 . S
C1224 C1231 1.409 . S
C1225 H1217 0.930 . S
C1225 C1223 1.419 . S
C1225 C1226 1.362 . S
C1226 H1218 0.930 . S
C1226 C1225 1.362 . S
C1226 C1229 1.409 . S
C1227 H1219 0.930 . S
C1227 C1228 1.355 . S
C1227 C1229 1.415 . S
C1228 C1227 1.355 . S
C1228 C1230 1.419 . S
C1229 C1224 1.425 . S
C1229 C1226 1.409 . S
C1229 C1227 1.415 . S
C1230 H1220 0.930 . S
C1230 C1228 1.419 . S
C1230 C1231 1.362 . S
C1231 H1221 0.930 . S
C1231 C1224 1.409 . S
C1231 C1230 1.362 . S
H1232 C1238 0.930 . S
H1233 C1241 0.930 . S
H1234 C1242 0.930 . S
H1235 C1243 0.930 . S
H1236 C1246 0.930 . S
H1237 C1247 0.930 . S
C1238 H1232 0.930 . S
C1238 C1239 1.355 . S
C1238 C1240 1.415 . S
C1239 C1238 1.355 . S
C1239 C1241 1.419 . S
C1240 C1238 1.415 . S
C1240 C1245 1.425 . S
C1240 C1247 1.409 . S
C1241 H1233 0.930 . S
C1241 C1239 1.419 . S
C1241 C1242 1.362 . S
C1242 H1234 0.930 . S
C1242 C1241 1.362 . S
C1242 C1245 1.409 . S
C1243 H1235 0.930 . S
C1243 C1244 1.355 . S
C1243 C1245 1.415 . S
C1244 C1243 1.355 . S
C1244 C1246 1.419 . S
C1245 C1240 1.425 . S
C1245 C1242 1.409 . S
C1245 C1243 1.415 . S
C1246 H1236 0.930 . S
C1246 C1244 1.419 . S
C1246 C1247 1.362 . S
C1247 H1237 0.930 . S
C1247 C1240 1.409 . S
C1247 C1246 1.362 . S
H1248 C1254 0.930 . S
H1249 C1257 0.930 . S
H1250 C1258 0.930 1_554 S
H1251 C1259 0.930 . S
H1252 C1262 0.930 . S
H1253 C1263 0.930 1_556 S
C1254 H1248 0.930 . S
C1254 C1255 1.355 1_545 S
C1254 C1256 1.415 . S
C1255 C1254 1.355 1_565 S
C1255 C1257 1.419 . S
C1256 C1254 1.415 . S
C1256 C1261 1.425 1_546 S
C1256 C1263 1.409 1_556 S
C1257 H1249 0.930 . S
C1257 C1255 1.419 . S
C1257 C1258 1.362 . S
C1258 H1250 0.930 1_556 S
C1258 C1257 1.362 . S
C1258 C1261 1.409 1_556 S
C1259 H1251 0.930 . S
C1259 C1260 1.355 1_565 S
C1259 C1261 1.415 . S
C1260 C1259 1.355 1_545 S
C1260 C1262 1.419 . S
C1261 C1256 1.425 1_564 S
C1261 C1258 1.409 1_554 S
C1261 C1259 1.415 . S
C1262 H1252 0.930 . S
C1262 C1260 1.419 . S
C1262 C1263 1.362 . S
C1263 H1253 0.930 1_554 S
C1263 C1256 1.409 1_554 S
C1263 C1262 1.362 . S
H1264 C1270 0.930 . S
H1265 C1273 0.930 . S
H1266 C1274 0.930 . S
H1267 C1275 0.930 . S
H1268 C1278 0.930 . S
H1269 C1279 0.930 . S
C1270 H1264 0.930 . S
C1270 C1271 1.355 . S
C1270 C1272 1.415 . S
C1271 C1270 1.355 . S
C1271 C1273 1.419 . S
C1272 C1270 1.415 . S
C1272 C1277 1.425 . S
C1272 C1279 1.409 . S
C1273 H1265 0.930 . S
C1273 C1271 1.419 . S
C1273 C1274 1.362 . S
C1274 H1266 0.930 . S
C1274 C1273 1.362 . S
C1274 C1277 1.409 . S
C1275 H1267 0.930 . S
C1275 C1276 1.355 . S
C1275 C1277 1.415 . S
C1276 C1275 1.355 . S
C1276 C1278 1.419 . S
C1277 C1272 1.425 . S
C1277 C1274 1.409 . S
C1277 C1275 1.415 . S
C1278 H1268 0.930 . S
C1278 C1276 1.419 . S
C1278 C1279 1.362 . S
C1279 H1269 0.930 . S
C1279 C1272 1.409 . S
C1279 C1278 1.362 . S
H1280 C1286 0.930 . S
H1281 C1289 0.930 . S
H1282 C1290 0.930 1_655 S
H1283 C1291 0.930 . S
H1284 C1294 0.930 . S
H1285 C1295 0.930 1_455 S
C1286 H1280 0.930 . S
C1286 C1287 1.355 . S
C1286 C1288 1.415 . S
C1287 C1286 1.355 . S
C1287 C1289 1.419 . S
C1288 C1286 1.415 . S
C1288 C1293 1.425 1_456 S
C1288 C1295 1.409 1_456 S
C1289 H1281 0.930 . S
C1289 C1287 1.419 . S
C1289 C1290 1.362 . S
C1290 H1282 0.930 1_455 S
C1290 C1289 1.362 . S
C1290 C1293 1.409 1_456 S
C1291 H1283 0.930 . S
C1291 C1292 1.355 . S
C1291 C1293 1.415 . S
C1292 C1291 1.355 . S
C1292 C1294 1.419 . S
C1293 C1288 1.425 1_654 S
C1293 C1290 1.409 1_654 S
C1293 C1291 1.415 . S
C1294 H1284 0.930 . S
C1294 C1292 1.419 . S
C1294 C1295 1.362 . S
C1295 H1285 0.930 1_655 S
C1295 C1288 1.409 1_654 S
C1295 C1294 1.362 . S
H1296 C1302 0.930 . S
H1297 C1305 0.930 . S
H1298 C1306 0.930 . S
H1299 C1307 0.930 . S
H1300 C1310 0.930 . S
H1301 C1311 0.930 . S
C1302 H1296 0.930 . S
C1302 C1303 1.355 . S
C1302 C1304 1.415 . S
C1303 C1302 1.355 . S
C1303 C1305 1.419 1_545 S
C1304 C1302 1.415 . S
C1304 C1309 1.425 1_545 S
C1304 C1311 1.409 . S
C1305 H1297 0.930 . S
C1305 C1303 1.419 1_565 S
C1305 C1306 1.362 . S
C1306 H1298 0.930 . S
C1306 C1305 1.362 . S
C1306 C1309 1.409 . S
C1307 H1299 0.930 . S
C1307 C1308 1.355 . S
C1307 C1309 1.415 . S
C1308 C1307 1.355 . S
C1308 C1310 1.419 1_565 S
C1309 C1304 1.425 1_565 S
C1309 C1306 1.409 . S
C1309 C1307 1.415 . S
C1310 H1300 0.930 . S
C1310 C1308 1.419 1_545 S
C1310 C1311 1.362 . S
C1311 H1301 0.930 . S
C1311 C1304 1.409 . S
C1311 C1310 1.362 . S
H1312 C1318 0.930 . S
H1313 C1321 0.930 . S
H1314 C1322 0.930 . S
H1315 C1323 0.930 . S
H1316 C1326 0.930 . S
H1317 C1327 0.930 . S
C1318 H1312 0.930 . S
C1318 C1319 1.355 . S
C1318 C1320 1.415 . S
C1319 C1318 1.355 . S
C1319 C1321 1.419 . S
C1320 C1318 1.415 . S
C1320 C1325 1.425 1_554 S
C1320 C1327 1.409 1_554 S
C1321 H1313 0.930 . S
C1321 C1319 1.419 . S
C1321 C1322 1.362 . S
C1322 H1314 0.930 . S
C1322 C1321 1.362 . S
C1322 C1325 1.409 1_554 S
C1323 H1315 0.930 . S
C1323 C1324 1.355 . S
C1323 C1325 1.415 . S
C1324 C1323 1.355 . S
C1324 C1326 1.419 . S
C1325 C1320 1.425 1_556 S
C1325 C1322 1.409 1_556 S
C1325 C1323 1.415 . S
C1326 H1316 0.930 . S
C1326 C1324 1.419 . S
C1326 C1327 1.362 . S
C1327 H1317 0.930 . S
C1327 C1320 1.409 1_556 S
C1327 C1326 1.362 . S
H1328 C1334 0.930 . S
H1329 C1337 0.930 . S
H1330 C1338 0.930 . S
H1331 C1339 0.930 . S
H1332 C1342 0.930 . S
H1333 C1343 0.930 . S
C1334 H1328 0.930 . S
C1334 C1335 1.355 1_655 S
C1334 C1336 1.415 . S
C1335 C1334 1.355 1_455 S
C1335 C1337 1.419 . S
C1336 C1334 1.415 . S
C1336 C1341 1.425 1_655 S
C1336 C1343 1.409 . S
C1337 H1329 0.930 . S
C1337 C1335 1.419 . S
C1337 C1338 1.362 . S
C1338 H1330 0.930 . S
C1338 C1337 1.362 . S
C1338 C1341 1.409 . S
C1339 H1331 0.930 . S
C1339 C1340 1.355 1_455 S
C1339 C1341 1.415 . S
C1340 C1339 1.355 1_655 S
C1340 C1342 1.419 . S
C1341 C1336 1.425 1_455 S
C1341 C1338 1.409 . S
C1341 C1339 1.415 . S
C1342 H1332 0.930 . S
C1342 C1340 1.419 . S
C1342 C1343 1.362 . S
C1343 H1333 0.930 . S
C1343 C1336 1.409 . S
C1343 C1342 1.362 . S
H1344 C1350 0.930 . S
H1345 C1353 0.949 . S
H1346 C1354 0.930 . S
H1347 C1355 0.930 . S
H1348 C1358 0.949 . S
H1349 C1359 0.930 . S
C1350 H1344 0.930 . S
C1350 C1351 1.355 . S
C1350 C1352 1.415 . S
C1351 C1350 1.355 . S
C1351 C1353 1.387 1_565 S
C1352 C1350 1.415 . S
C1352 C1357 1.425 1_566 S
C1352 C1359 1.409 1_556 S
C1353 H1345 0.949 . S
C1353 C1351 1.387 1_545 S
C1353 C1354 1.377 . S
C1354 H1346 0.930 . S
C1354 C1353 1.377 . S
C1354 C1357 1.409 1_556 S
C1355 H1347 0.930 . S
C1355 C1356 1.355 . S
C1355 C1357 1.415 . S
C1356 C1355 1.355 . S
C1356 C1358 1.386 1_545 S
C1357 C1352 1.425 1_544 S
C1357 C1354 1.409 1_554 S
C1357 C1355 1.415 . S
C1358 H1348 0.949 . S
C1358 C1356 1.386 1_565 S
C1358 C1359 1.378 . S
C1359 H1349 0.930 . S
C1359 C1352 1.409 1_554 S
C1359 C1358 1.378 . S
H1360 C1366 0.930 . S
H1361 C1369 0.930 . S
H1362 C1370 0.930 . S
H1363 C1371 0.930 . S
H1364 C1374 0.930 . S
H1365 C1375 0.930 . S
C1366 H1360 0.930 . S
C1366 C1367 1.355 . S
C1366 C1368 1.415 . S
C1367 C1366 1.355 . S
C1367 C1369 1.419 . S
C1368 C1366 1.415 . S
C1368 C1373 1.425 . S
C1368 C1375 1.409 . S
C1369 H1361 0.930 . S
C1369 C1367 1.419 . S
C1369 C1370 1.362 . S
C1370 H1362 0.930 . S
C1370 C1369 1.362 . S
C1370 C1373 1.409 . S
C1371 H1363 0.930 . S
C1371 C1372 1.355 . S
C1371 C1373 1.415 . S
C1372 C1371 1.355 . S
C1372 C1374 1.419 . S
C1373 C1368 1.425 . S
C1373 C1370 1.409 . S
C1373 C1371 1.415 . S
C1374 H1364 0.930 . S
C1374 C1372 1.419 . S
C1374 C1375 1.362 . S
C1375 H1365 0.930 . S
C1375 C1368 1.409 . S
C1375 C1374 1.362 . S
H1376 C1382 0.930 . S
H1377 C1385 0.930 . S
H1378 C1386 0.914 1_556 S
H1379 C1387 0.930 . S
H1380 C1390 0.930 . S
H1381 C1391 0.913 1_554 S
C1382 H1376 0.930 . S
C1382 C1383 1.355 1_455 S
C1382 C1384 1.415 . S
C1383 C1382 1.355 1_655 S
C1383 C1385 1.419 . S
C1384 C1382 1.415 . S
C1384 C1389 1.425 1_454 S
C1384 C1391 1.409 1_554 S
C1385 H1377 0.930 . S
C1385 C1383 1.419 . S
C1385 C1386 1.362 . S
C1386 H1378 0.914 1_554 S
C1386 C1385 1.362 . S
C1386 C1389 1.409 1_554 S
C1387 H1379 0.930 . S
C1387 C1388 1.355 1_655 S
C1387 C1389 1.415 . S
C1388 C1387 1.355 1_455 S
C1388 C1390 1.419 . S
C1389 C1384 1.425 1_656 S
C1389 C1386 1.409 1_556 S
C1389 C1387 1.415 . S
C1390 H1380 0.930 . S
C1390 C1388 1.419 . S
C1390 C1391 1.362 . S
C1391 H1381 0.913 1_556 S
C1391 C1384 1.409 1_556 S
C1391 C1390 1.362 . S
H1392 C1398 0.930 . S
H1393 C1401 0.930 . S
H1394 C1402 0.932 1_545 S
H1395 C1403 0.930 . S
H1396 C1406 0.930 . S
H1397 C1407 0.933 1_565 S
C1398 H1392 0.930 . S
C1398 C1399 1.355 . S
C1398 C1400 1.415 . S
C1399 C1398 1.355 . S
C1399 C1401 1.419 . S
C1400 C1398 1.415 . S
C1400 C1405 1.425 1_565 S
C1400 C1407 1.405 1_565 S
C1401 H1393 0.930 . S
C1401 C1399 1.419 . S
C1401 C1402 1.363 . S
C1402 H1394 0.932 1_565 S
C1402 C1401 1.363 . S
C1402 C1405 1.406 1_565 S
C1403 H1395 0.930 . S
C1403 C1404 1.355 . S
C1403 C1405 1.415 . S
C1404 C1403 1.355 . S
C1404 C1406 1.419 . S
C1405 C1400 1.425 1_545 S
C1405 C1402 1.406 1_545 S
C1405 C1403 1.415 . S
C1406 H1396 0.930 . S
C1406 C1404 1.419 . S
C1406 C1407 1.363 . S
C1407 H1397 0.933 1_545 S
C1407 C1400 1.405 1_545 S
C1407 C1406 1.363 . S
H1408 C1414 0.930 . S
H1409 C1417 0.930 . S
H1410 C1418 0.930 1_556 S
H1411 C1419 0.930 . S
H1412 C1422 0.930 . S
H1413 C1423 0.930 1_554 S
C1414 H1408 0.930 . S
C1414 C1415 1.355 . S
C1414 C1416 1.415 . S
C1415 C1414 1.355 . S
C1415 C1417 1.419 . S
C1416 C1414 1.415 . S
C1416 C1421 1.425 1_554 S
C1416 C1423 1.409 1_554 S
C1417 H1409 0.930 . S
C1417 C1415 1.419 . S
C1417 C1418 1.362 . S
C1418 H1410 0.930 1_554 S
C1418 C1417 1.362 . S
C1418 C1421 1.409 1_554 S
C1419 H1411 0.930 . S
C1419 C1420 1.355 . S
C1419 C1421 1.415 . S
C1420 C1419 1.355 . S
C1420 C1422 1.419 . S
C1421 C1416 1.425 1_556 S
C1421 C1418 1.409 1_556 S
C1421 C1419 1.415 . S
C1422 H1412 0.930 . S
C1422 C1420 1.419 . S
C1422 C1423 1.362 . S
C1423 H1413 0.930 1_556 S
C1423 C1416 1.409 1_556 S
C1423 C1422 1.362 . S
H1424 C1430 0.930 . S
H1425 C1433 0.930 . S
H1426 C1434 0.930 . S
H1427 C1435 0.930 . S
H1428 C1438 0.930 . S
H1429 C1439 0.930 . S
C1430 H1424 0.930 . S
C1430 C1431 1.355 . S
C1430 C1432 1.415 . S
C1431 C1430 1.355 . S
C1431 C1433 1.419 . S
C1432 C1430 1.415 . S
C1432 C1437 1.425 1_455 S
C1432 C1439 1.409 . S
C1433 H1425 0.930 . S
C1433 C1431 1.419 . S
C1433 C1434 1.362 1_455 S
C1434 H1426 0.930 . S
C1434 C1433 1.362 1_655 S
C1434 C1437 1.409 . S
C1435 H1427 0.930 . S
C1435 C1436 1.355 . S
C1435 C1437 1.415 . S
C1436 C1435 1.355 . S
C1436 C1438 1.419 . S
C1437 C1432 1.425 1_655 S
C1437 C1434 1.409 . S
C1437 C1435 1.415 . S
C1438 H1428 0.930 . S
C1438 C1436 1.419 . S
C1438 C1439 1.362 1_655 S
C1439 H1429 0.930 . S
C1439 C1432 1.409 . S
C1439 C1438 1.362 1_455 S
H1440 C1446 0.930 . S
H1441 C1449 0.930 . S
H1442 C1450 0.930 . S
H1443 C1451 0.930 . S
H1444 C1454 0.930 . S
H1445 C1455 0.930 . S
C1446 H1440 0.930 . S
C1446 C1447 1.355 . S
C1446 C1448 1.415 . S
C1447 C1446 1.355 . S
C1447 C1449 1.419 . S
C1448 C1446 1.415 . S
C1448 C1453 1.425 . S
C1448 C1455 1.409 . S
C1449 H1441 0.930 . S
C1449 C1447 1.419 . S
C1449 C1450 1.362 . S
C1450 H1442 0.930 . S
C1450 C1449 1.362 . S
C1450 C1453 1.409 . S
C1451 H1443 0.930 . S
C1451 C1452 1.355 . S
C1451 C1453 1.415 . S
C1452 C1451 1.355 . S
C1452 C1454 1.419 . S
C1453 C1448 1.425 . S
C1453 C1450 1.409 . S
C1453 C1451 1.415 . S
C1454 H1444 0.930 . S
C1454 C1452 1.419 . S
C1454 C1455 1.362 . S
C1455 H1445 0.930 . S
C1455 C1448 1.409 . S
C1455 C1454 1.362 . S
H1456 C1462 0.930 . S
H1457 C1465 0.930 . S
H1458 C1466 0.930 . S
H1459 C1467 0.930 . S
H1460 C1470 0.930 . S
H1461 C1471 0.930 . S
C1462 H1456 0.930 . S
C1462 C1463 1.355 . S
C1462 C1464 1.415 . S
C1463 C1462 1.355 . S
C1463 C1465 1.419 . S
C1464 C1462 1.415 . S
C1464 C1469 1.425 . S
C1464 C1471 1.409 . S
C1465 H1457 0.930 . S
C1465 C1463 1.419 . S
C1465 C1466 1.362 . S
C1466 H1458 0.930 . S
C1466 C1465 1.362 . S
C1466 C1469 1.409 . S
C1467 H1459 0.930 . S
C1467 C1468 1.355 . S
C1467 C1469 1.415 . S
C1468 C1467 1.355 . S
C1468 C1470 1.419 . S
C1469 C1464 1.425 . S
C1469 C1466 1.409 . S
C1469 C1467 1.415 . S
C1470 H1460 0.930 . S
C1470 C1468 1.419 . S
C1470 C1471 1.362 . S
C1471 H1461 0.930 . S
C1471 C1464 1.409 . S
C1471 C1470 1.362 . S
H1472 C1478 0.930 . S
H1473 C1481 0.930 . S
H1474 C1482 0.930 . S
H1475 C1483 0.930 . S
H1476 C1486 0.930 . S
H1477 C1487 0.930 . S
C1478 H1472 0.930 . S
C1478 C1479 1.355 . S
C1478 C1480 1.415 . S
C1479 C1478 1.355 . S
C1479 C1481 1.419 . S
C1480 C1478 1.415 . S
C1480 C1485 1.425 . S
C1480 C1487 1.409 . S
C1481 H1473 0.930 . S
C1481 C1479 1.419 . S
C1481 C1482 1.362 . S
C1482 H1474 0.930 . S
C1482 C1481 1.362 . S
C1482 C1485 1.409 . S
C1483 H1475 0.930 . S
C1483 C1484 1.355 . S
C1483 C1485 1.415 . S
C1484 C1483 1.355 . S
C1484 C1486 1.419 . S
C1485 C1480 1.425 . S
C1485 C1482 1.409 . S
C1485 C1483 1.415 . S
C1486 H1476 0.930 . S
C1486 C1484 1.419 . S
C1486 C1487 1.362 . S
C1487 H1477 0.930 . S
C1487 C1480 1.409 . S
C1487 C1486 1.362 . S
H1488 C1494 0.930 . S
H1489 C1497 0.930 . S
H1490 C1498 0.930 . S
H1491 C1499 0.930 . S
H1492 C1502 0.930 . S
H1493 C1503 0.930 . S
C1494 H1488 0.930 . S
C1494 C1495 1.355 . S
C1494 C1496 1.415 . S
C1495 C1494 1.355 . S
C1495 C1497 1.419 . S
C1496 C1494 1.415 . S
C1496 C1501 1.425 . S
C1496 C1503 1.409 . S
C1497 H1489 0.930 . S
C1497 C1495 1.419 . S
C1497 C1498 1.362 . S
C1498 H1490 0.930 . S
C1498 C1497 1.362 . S
C1498 C1501 1.409 . S
C1499 H1491 0.930 . S
C1499 C1500 1.355 . S
C1499 C1501 1.415 . S
C1500 C1499 1.355 . S
C1500 C1502 1.419 . S
C1501 C1496 1.425 . S
C1501 C1498 1.409 . S
C1501 C1499 1.415 . S
C1502 H1492 0.930 . S
C1502 C1500 1.419 . S
C1502 C1503 1.362 . S
C1503 H1493 0.930 . S
C1503 C1496 1.409 . S
C1503 C1502 1.362 . S
H1504 C1510 0.930 . S
H1505 C1513 0.930 . S
H1506 C1514 0.930 . S
H1507 C1515 0.930 . S
H1508 C1518 0.930 . S
H1509 C1519 0.930 . S
C1510 H1504 0.930 . S
C1510 C1511 1.355 . S
C1510 C1512 1.415 . S
C1511 C1510 1.355 . S
C1511 C1513 1.419 . S
C1512 C1510 1.415 . S
C1512 C1517 1.425 . S
C1512 C1519 1.409 . S
C1513 H1505 0.930 . S
C1513 C1511 1.419 . S
C1513 C1514 1.362 . S
C1514 H1506 0.930 . S
C1514 C1513 1.362 . S
C1514 C1517 1.409 . S
C1515 H1507 0.930 . S
C1515 C1516 1.355 . S
C1515 C1517 1.415 . S
C1516 C1515 1.355 . S
C1516 C1518 1.419 . S
C1517 C1512 1.425 . S
C1517 C1514 1.409 . S
C1517 C1515 1.415 . S
C1518 H1508 0.930 . S
C1518 C1516 1.419 . S
C1518 C1519 1.362 . S
C1519 H1509 0.930 . S
C1519 C1512 1.409 . S
C1519 C1518 1.362 . S
H1520 C1526 0.930 . S
H1521 C1529 0.930 . S
H1522 C1530 0.930 . S
H1523 C1531 0.930 . S
H1524 C1534 0.930 . S
H1525 C1535 0.930 . S
C1526 H1520 0.930 . S
C1526 C1527 1.355 . S
C1526 C1528 1.415 . S
C1527 C1526 1.355 . S
C1527 C1529 1.419 . S
C1528 C1526 1.415 . S
C1528 C1533 1.425 . S
C1528 C1535 1.409 . S
C1529 H1521 0.930 . S
C1529 C1527 1.419 . S
C1529 C1530 1.362 . S
C1530 H1522 0.930 . S
C1530 C1529 1.362 . S
C1530 C1533 1.409 . S
C1531 H1523 0.930 . S
C1531 C1532 1.355 . S
C1531 C1533 1.415 . S
C1532 C1531 1.355 . S
C1532 C1534 1.419 . S
C1533 C1528 1.425 . S
C1533 C1530 1.409 . S
C1533 C1531 1.415 . S
C1534 H1524 0.930 . S
C1534 C1532 1.419 . S
C1534 C1535 1.362 . S
C1535 H1525 0.930 . S
C1535 C1528 1.409 . S
C1535 C1534 1.362 . S
H1536 C1542 0.930 . S
H1537 C1545 0.930 . S
H1538 C1546 0.930 . S
H1539 C1547 0.930 . S
H1540 C1550 0.930 . S
H1541 C1551 0.930 . S
C1542 H1536 0.930 . S
C1542 C1543 1.355 . S
C1542 C1544 1.415 . S
C1543 C1542 1.355 . S
C1543 C1545 1.419 . S
C1544 C1542 1.415 . S
C1544 C1549 1.425 . S
C1544 C1551 1.409 . S
C1545 H1537 0.930 . S
C1545 C1543 1.419 . S
C1545 C1546 1.362 . S
C1546 H1538 0.930 . S
C1546 C1545 1.362 . S
C1546 C1549 1.409 . S
C1547 H1539 0.930 . S
C1547 C1548 1.355 . S
C1547 C1549 1.415 . S
C1548 C1547 1.355 . S
C1548 C1550 1.419 . S
C1549 C1544 1.425 . S
C1549 C1546 1.409 . S
C1549 C1547 1.415 . S
C1550 H1540 0.930 . S
C1550 C1548 1.419 . S
C1550 C1551 1.362 . S
C1551 H1541 0.930 . S
C1551 C1544 1.409 . S
C1551 C1550 1.362 . S
H1552 C1558 0.930 . S
H1553 C1561 0.930 . S
H1554 C1562 0.930 . S
H1555 C1563 0.930 . S
H1556 C1566 0.930 . S
H1557 C1567 0.930 . S
C1558 H1552 0.930 . S
C1558 C1559 1.355 . S
C1558 C1560 1.415 . S
C1559 C1558 1.355 . S
C1559 C1561 1.419 . S
C1560 C1558 1.415 . S
C1560 C1565 1.425 . S
C1560 C1567 1.409 . S
C1561 H1553 0.930 . S
C1561 C1559 1.419 . S
C1561 C1562 1.362 . S
C1562 H1554 0.930 . S
C1562 C1561 1.362 . S
C1562 C1565 1.409 . S
C1563 H1555 0.930 . S
C1563 C1564 1.355 . S
C1563 C1565 1.415 . S
C1564 C1563 1.355 . S
C1564 C1566 1.419 . S
C1565 C1560 1.425 . S
C1565 C1562 1.409 . S
C1565 C1563 1.415 . S
C1566 H1556 0.930 . S
C1566 C1564 1.419 . S
C1566 C1567 1.362 . S
C1567 H1557 0.930 . S
C1567 C1560 1.409 . S
C1567 C1566 1.362 . S
H1568 C1574 0.930 . S
H1569 C1577 0.930 . S
H1570 C1578 0.930 . S
H1571 C1579 0.930 . S
H1572 C1582 0.930 . S
H1573 C1583 0.930 . S
C1574 H1568 0.930 . S
C1574 C1575 1.355 . S
C1574 C1576 1.415 . S
C1575 C1574 1.355 . S
C1575 C1577 1.419 . S
C1576 C1574 1.415 . S
C1576 C1581 1.425 . S
C1576 C1583 1.409 . S
C1577 H1569 0.930 . S
C1577 C1575 1.419 . S
C1577 C1578 1.362 . S
C1578 H1570 0.930 . S
C1578 C1577 1.362 . S
C1578 C1581 1.409 . S
C1579 H1571 0.930 . S
C1579 C1580 1.355 . S
C1579 C1581 1.415 . S
C1580 C1579 1.355 . S
C1580 C1582 1.419 . S
C1581 C1576 1.425 . S
C1581 C1578 1.409 . S
C1581 C1579 1.415 . S
C1582 H1572 0.930 . S
C1582 C1580 1.419 . S
C1582 C1583 1.362 . S
C1583 H1573 0.930 . S
C1583 C1576 1.409 . S
C1583 C1582 1.362 . S
H1584 C1590 0.930 . S
H1585 C1593 0.930 . S
H1586 C1594 0.930 . S
H1587 C1595 0.930 . S
H1588 C1598 0.930 . S
H1589 C1599 0.930 . S
C1590 H1584 0.930 . S
C1590 C1591 1.355 . S
C1590 C1592 1.415 . S
C1591 C1590 1.355 . S
C1591 C1593 1.419 . S
C1592 C1590 1.415 . S
C1592 C1597 1.425 . S
C1592 C1599 1.409 . S
C1593 H1585 0.930 . S
C1593 C1591 1.419 . S
C1593 C1594 1.362 . S
C1594 H1586 0.930 . S
C1594 C1593 1.362 . S
C1594 C1597 1.409 . S
C1595 H1587 0.930 . S
C1595 C1596 1.355 . S
C1595 C1597 1.415 . S
C1596 C1595 1.355 . S
C1596 C1598 1.419 . S
C1597 C1592 1.425 . S
C1597 C1594 1.409 . S
C1597 C1595 1.415 . S
C1598 H1588 0.930 . S
C1598 C1596 1.419 . S
C1598 C1599 1.362 . S
C1599 H1589 0.930 . S
C1599 C1592 1.409 . S
C1599 C1598 1.362 . S
H1600 C1606 0.930 . S
H1601 C1609 0.930 . S
H1602 C1610 0.930 . S
H1603 C1611 0.930 . S
H1604 C1614 0.930 . S
H1605 C1615 0.930 . S
C1606 H1600 0.930 . S
C1606 C1607 1.355 . S
C1606 C1608 1.415 . S
C1607 C1606 1.355 . S
C1607 C1609 1.419 . S
C1608 C1606 1.415 . S
C1608 C1613 1.425 . S
C1608 C1615 1.409 . S
C1609 H1601 0.930 . S
C1609 C1607 1.419 . S
C1609 C1610 1.362 . S
C1610 H1602 0.930 . S
C1610 C1609 1.362 . S
C1610 C1613 1.409 . S
C1611 H1603 0.930 . S
C1611 C1612 1.355 . S
C1611 C1613 1.415 . S
C1612 C1611 1.355 . S
C1612 C1614 1.419 . S
C1613 C1608 1.425 . S
C1613 C1610 1.409 . S
C1613 C1611 1.415 . S
C1614 H1604 0.930 . S
C1614 C1612 1.419 . S
C1614 C1615 1.362 . S
C1615 H1605 0.930 . S
C1615 C1608 1.409 . S
C1615 C1614 1.362 . S
H1616 C1622 0.930 . S
H1617 C1625 0.930 . S
H1618 C1626 0.930 . S
H1619 C1627 0.930 . S
H1620 C1630 0.930 . S
H1621 C1631 0.930 . S
C1622 H1616 0.930 . S
C1622 C1623 1.355 . S
C1622 C1624 1.415 . S
C1623 C1622 1.355 . S
C1623 C1625 1.419 . S
C1624 C1622 1.415 . S
C1624 C1629 1.425 . S
C1624 C1631 1.409 . S
C1625 H1617 0.930 . S
C1625 C1623 1.419 . S
C1625 C1626 1.362 . S
C1626 H1618 0.930 . S
C1626 C1625 1.362 . S
C1626 C1629 1.409 . S
C1627 H1619 0.930 . S
C1627 C1628 1.355 . S
C1627 C1629 1.415 . S
C1628 C1627 1.355 . S
C1628 C1630 1.419 . S
C1629 C1624 1.425 . S
C1629 C1626 1.409 . S
C1629 C1627 1.415 . S
C1630 H1620 0.930 . S
C1630 C1628 1.419 . S
C1630 C1631 1.362 . S
C1631 H1621 0.930 . S
C1631 C1624 1.409 . S
C1631 C1630 1.362 . S
C871 C544 1.274 . S
C876 C4 1.341 . S
C887 C40 1.272 . S
C892 C580 1.343 . S
C903 C76 1.342 . S
C908 C616 1.273 . S
C919 C112 1.286 . S
C924 C436 1.329 . S
C935 C472 1.303 . S
C940 C148 1.313 . S
C951 C184 1.342 . S
C956 C508 1.274 . S
C967 C760 1.272 . S
C972 C220 1.343 . S
C983 C256 1.304 . S
C988 C796 1.312 . S
C999 C292 1.296 . S
C1004 C832 1.319 . S
C1015 C652 1.299 . S
C1020 C328 1.317 . S
C1031 C364 1.326 . S
C1036 C688 1.290 . S
C1047 C724 1.340 . S
C1052 C400 1.275 . S
C1063 C14 1.439 . S
C1068 C842 1.397 . S
C1079 C662 1.421 . S
C1084 C50 1.416 . S
C1095 C86 1.460 . S
C1100 C698 1.376 . S
C1111 C734 1.454 . S
C1116 C122 1.381 . S
C1127 C158 1.412 . S
C1132 C770 1.424 . S
C1143 C806 1.457 . S
C1148 C194 1.379 . S
C1159 C230 1.380 . S
C1164 C482 1.455 . S
C1175 C518 1.459 . S
C1180 C266 1.376 . S
C1191 C554 1.379 . S
C1196 C302 1.456 . S
C1207 C590 1.386 . S
C1212 C338 1.449 . S
C1223 C374 1.438 . S
C1228 C626 1.398 . S
C1239 C410 1.414 . S
C1244 C446 1.422 . S
C1255 C255 1.252 . S
C1260 C3 1.244 . S
C1271 C291 1.260 . S
C1276 C39 1.282 . S
C1287 C327 1.274 . S
C1292 C75 1.253 . S
C1303 C363 1.287 . S
C1308 C111 1.294 . S
C1319 C147 1.284 . S
C1324 C399 1.294 . S
C1335 C183 1.244 . S
C1340 C219 1.257 . S
C1351 C435 1.261 . S
C1356 C687 1.283 . S
C1367 C471 1.287 . S
C1372 C723 1.267 . S
C1383 C759 1.271 . S
C1388 C507 1.251 . S
C1399 C795 1.254 . S
C1404 C543 1.275 . S
C1415 C831 1.247 . S
C1420 C579 1.246 . S
C1431 C651 1.290 . S
C1436 C615 1.271 . S
C1447 C2 1.540 . S
C1452 C686 1.509 . S
C1463 C722 1.536 . S
C1468 C38 1.513 . S
C1479 C74 1.540 . S
C1484 C758 1.509 . S
C1495 C794 1.509 . S
C1500 C110 1.540 . S
C1511 C146 1.540 . S
C1516 C830 1.509 . S
C1527 C650 1.528 . S
C1532 C182 1.522 . S
C1543 C218 1.514 . S
C1548 C614 1.535 . S
C1559 C434 1.509 . S
C1564 C254 1.540 . S
C1575 C290 1.516 . S
C1580 C470 1.533 . S
C1591 C326 1.509 . S
C1596 C506 1.541 . S
C1607 C362 1.526 . S
C1612 C542 1.523 . S
C1623 C398 1.525 . S
C1628 C578 1.524 . S
