# Generated by pormake.
# Topology unh, (4)-cn, num edge types: 1
# Building blocks:
#     Node 0, Type 0, BuildingBlock: KOZSID_clean_sbu_0, # of connection points: 4
#     Node 1, Type 0, BuildingBlock: KOZSID_clean_sbu_0, # of connection points: 4
#     Node 2, Type 0, BuildingBlock: KOZSID_clean_sbu_0, # of connection points: 4
#     Node 3, Type 0, BuildingBlock: KOZSID_clean_sbu_0, # of connection points: 4
#     Node 4, Type 0, BuildingBlock: KOZSID_clean_sbu_0, # of connection points: 4
#     Node 5, Type 0, BuildingBlock: KOZSID_clean_sbu_0, # of connection points: 4
#     Edge 6, Type (0, 0), BuildingBlock: KIFKEQ_clean_linker_1, # of connection points: 2
#     Edge 7, Type (0, 0), BuildingBlock: KIFKEQ_clean_linker_1, # of connection points: 2
#     Edge 8, Type (0, 0), BuildingBlock: KIFKEQ_clean_linker_1, # of connection points: 2
#     Edge 9, Type (0, 0), BuildingBlock: KIFKEQ_clean_linker_1, # of connection points: 2
#     Edge 10, Type (0, 0), BuildingBlock: KIFKEQ_clean_linker_1, # of connection points: 2
#     Edge 11, Type (0, 0), BuildingBlock: KIFKEQ_clean_linker_1, # of connection points: 2
#     Edge 12, Type (0, 0), BuildingBlock: KIFKEQ_clean_linker_1, # of connection points: 2
#     Edge 13, Type (0, 0), BuildingBlock: KIFKEQ_clean_linker_1, # of connection points: 2
#     Edge 14, Type (0, 0), BuildingBlock: KIFKEQ_clean_linker_1, # of connection points: 2
#     Edge 15, Type (0, 0), BuildingBlock: KIFKEQ_clean_linker_1, # of connection points: 2
#     Edge 16, Type (0, 0), BuildingBlock: KIFKEQ_clean_linker_1, # of connection points: 2
#     Edge 17, Type (0, 0), BuildingBlock: KIFKEQ_clean_linker_1, # of connection points: 2
# Relax obj value: 0.012
# Max RMSD: 0.276
# Mean RMSD: 0.251
data_MOF--net-unh--node1-KOZSID_clean_sbu_0--edge1-KIFKEQ_clean_linker_1
_symmetry_space_group_name_H-M    P1
_symmetry_Int_Tables_number       1
_symmetry_cell_setting            triclinic
loop_
_symmetry_equiv_pos_as_xyz
'x, y, z'
_cell_length_a     54.451875
_cell_length_b     59.491997
_cell_length_c     22.97159
_cell_angle_alpha  89.971489
_cell_angle_beta   90.299921
_cell_angle_gamma 120.27181
loop_
_atom_site_label
_atom_site_type_symbol
_atom_site_fract_x
_atom_site_fract_y
_atom_site_fract_z
_atom_type_partial_charge
C0 C 0.22557 0.61558 0.19486 0.0
C1 C 0.23883 0.63754 0.23001 0.0
C2 C 0.22901 0.65362 0.21249 0.0
C3 C 0.21033 0.64062 0.16781 0.0
N4 N 0.20721 0.61706 0.1567 0.0
Co5 Co 0.18434 0.59351 0.09128 0.0
N6 N 0.16448 0.61348 0.07566 0.0
C7 C 0.17262 0.63751 0.09572 0.0
C8 C 0.15522 0.64663 0.07727 0.0
C9 C 0.13492 0.62721 0.04302 0.0
C10 C 0.14108 0.60725 0.04257 0.0
N11 N 0.16192 0.57023 0.02533 0.0
C12 C 0.13869 0.56758 0.99689 0.0
C13 C 0.12922 0.54814 0.95479 0.0
C14 C 0.14742 0.53869 0.95606 0.0
C15 C 0.16674 0.55259 0.99899 0.0
N16 N 0.20375 0.57313 0.10672 0.0
C17 C 0.20316 0.55465 0.07183 0.0
C18 C 0.2182 0.54367 0.09324 0.0
C19 C 0.22958 0.55629 0.14452 0.0
C20 C 0.22088 0.57446 0.15139 0.0
N21 N 0.15393 0.57136 0.14616 0.0
C22 C 0.10865 0.54113 0.22205 0.0
C23 C 0.11892 0.52933 0.18406 0.0
C24 C 0.14142 0.54479 0.14602 0.0
C25 C 0.1219 0.56825 0.22213 0.0
C26 C 0.14456 0.58291 0.18468 0.0
N27 N 0.21491 0.6166 0.03746 0.0
C28 C 0.26483 0.6479 0.02671 0.0
C29 C 0.25887 0.66118 0.9837 0.0
C30 C 0.23066 0.64996 0.96386 0.0
C31 C 0.20911 0.62742 0.99056 0.0
C32 C 0.2427 0.62571 0.05258 0.0
H33 H 0.18755 0.61978 0.97556 0.0
H34 H 0.2482 0.61719 0.08765 0.0
H35 H 0.1484 0.53523 0.11614 0.0
H36 H 0.15417 0.6037 0.18658 0.0
C37 C 0.19437 0.64929 0.13726 0.0
C38 C 0.2335 0.59534 0.19494 0.0
C39 C 0.12587 0.58386 1.00601 0.0
C40 C 0.1864 0.54657 0.02182 0.0
H41 H 0.25466 0.64183 0.26351 0.0
H42 H 0.23497 0.6726 0.22996 0.0
H43 H 0.15671 0.66495 0.08842 0.0
H44 H 0.11779 0.62779 0.02027 0.0
H45 H 0.11098 0.54136 0.92618 0.0
H46 H 0.14597 0.52277 0.9305 0.0
H47 H 0.2206 0.5283 0.07391 0.0
H48 H 0.24371 0.55323 0.17237 0.0
H49 H 0.10916 0.50835 0.18265 0.0
H50 H 0.11477 0.57813 0.25113 0.0
H51 H 0.28624 0.65552 0.04331 0.0
H52 H 0.2251 0.659 0.92929 0.0
C53 C 0.62351 0.20088 0.37359 0.0
C54 C 0.61097 0.20602 0.42008 0.0
C55 C 0.58367 0.18524 0.4238 0.0
C56 C 0.58112 0.16862 0.3795 0.0
N57 N 0.60512 0.17767 0.34853 0.0
Co58 Co 0.61059 0.16096 0.27896 0.0
N59 N 0.56886 0.13838 0.26593 0.0
C60 C 0.54872 0.13345 0.30594 0.0
C61 C 0.5218 0.11579 0.28695 0.0
C62 C 0.5252 0.10874 0.23208 0.0
C63 C 0.55413 0.12254 0.22046 0.0
N64 N 0.6166 0.14479 0.20879 0.0
C65 C 0.59805 0.12954 0.16678 0.0
C66 C 0.61174 0.12301 0.12484 0.0
C67 C 0.63942 0.13362 0.14246 0.0
C68 C 0.64126 0.14627 0.19356 0.0
N69 N 0.65214 0.18297 0.29281 0.0
C70 C 0.67256 0.17904 0.27108 0.0
C71 C 0.69945 0.19803 0.28728 0.0
C72 C 0.69568 0.21503 0.32103 0.0
C73 C 0.66658 0.20535 0.32352 0.0
N74 N 0.60971 0.13353 0.32873 0.0
C75 C 0.59941 0.09383 0.40918 0.0
C76 C 0.58804 0.08794 0.35252 0.0
C77 C 0.59369 0.1079 0.31308 0.0
C78 C 0.61767 0.12023 0.42299 0.0
C79 C 0.62249 0.13966 0.3824 0.0
N80 N 0.61103 0.18862 0.23116 0.0
C81 C 0.63695 0.22777 0.17414 0.0
C82 C 0.61617 0.23468 0.18481 0.0
C83 C 0.59189 0.21692 0.21557 0.0
C84 C 0.58985 0.19432 0.23849 0.0
C85 C 0.63381 0.20454 0.19711 0.0
H86 H 0.5716 0.18219 0.26474 0.0
H87 H 0.65048 0.20013 0.18967 0.0
H88 H 0.58389 0.10244 0.27078 0.0
H89 H 0.63573 0.15973 0.39538 0.0
C90 C 0.55569 0.14753 0.35843 0.0
C91 C 0.65319 0.21756 0.35557 0.0
C92 C 0.56692 0.11739 0.16955 0.0
C93 C 0.66621 0.16147 0.22543 0.0
H94 H 0.62049 0.22304 0.44794 0.0
H95 H 0.56724 0.18319 0.45334 0.0
H96 H 0.50202 0.10891 0.31011 0.0
H97 H 0.50842 0.09442 0.20451 0.0
H98 H 0.60242 0.11093 0.08667 0.0
H99 H 0.65621 0.13235 0.12047 0.0
H100 H 0.71947 0.20026 0.273 0.0
H101 H 0.71246 0.23277 0.34037 0.0
H102 H 0.57372 0.06806 0.33904 0.0
H103 H 0.62783 0.12602 0.46529 0.0
H104 H 0.65608 0.24062 0.15034 0.0
H105 H 0.57465 0.22062 0.22332 0.0
C106 C 0.43692 0.61108 0.33446 0.0
C107 C 0.44704 0.63387 0.30267 0.0
C108 C 0.47451 0.65004 0.32032 0.0
C109 C 0.47966 0.63633 0.36184 0.0
N110 N 0.45742 0.61219 0.37074 0.0
Co111 Co 0.45544 0.58761 0.43269 0.0
N112 N 0.49714 0.60888 0.45004 0.0
C113 C 0.51475 0.63336 0.43173 0.0
C114 C 0.54226 0.64329 0.45073 0.0
C115 C 0.54202 0.62395 0.48353 0.0
C116 C 0.51429 0.60322 0.48264 0.0
N117 N 0.45312 0.56341 0.49556 0.0
C118 C 0.47396 0.56179 0.52459 0.0
C119 C 0.4626 0.54125 0.56388 0.0
C120 C 0.43376 0.52993 0.56021 0.0
C121 C 0.42907 0.54391 0.51874 0.0
N122 N 0.41384 0.56573 0.41462 0.0
C123 C 0.3946 0.54501 0.44521 0.0
C124 C 0.36782 0.53295 0.42138 0.0
C125 C 0.36998 0.54725 0.37322 0.0
C126 C 0.39801 0.56747 0.37085 0.0
N127 N 0.46363 0.56784 0.37462 0.0
C128 C 0.47788 0.54087 0.29257 0.0
C129 C 0.45572 0.52741 0.3326 0.0
C130 C 0.44899 0.5412 0.37313 0.0
C131 C 0.49252 0.56814 0.29487 0.0
C132 C 0.48503 0.58109 0.3355 0.0
N133 N 0.44807 0.60831 0.49001 0.0
C134 C 0.427 0.63492 0.50791 0.0
C135 C 0.44754 0.64919 0.55024 0.0
C136 C 0.46673 0.64102 0.56583 0.0
C137 C 0.4661 0.62006 0.53628 0.0
C138 C 0.4277 0.61475 0.47848 0.0
H139 H 0.48127 0.61439 0.54901 0.0
H140 H 0.41272 0.60562 0.44403 0.0
H141 H 0.43203 0.53021 0.4033 0.0
H142 H 0.49703 0.60197 0.33547 0.0
C143 C 0.50526 0.64518 0.39213 0.0
C144 C 0.40686 0.59042 0.33405 0.0
C145 C 0.5046 0.5797 0.51808 0.0
C146 C 0.40271 0.53649 0.494 0.0
H147 H 0.43544 0.6387 0.27155 0.0
H148 H 0.48885 0.66964 0.30535 0.0
H149 H 0.56043 0.66219 0.44113 0.0
H150 H 0.56005 0.62511 0.50644 0.0
H151 H 0.4739 0.53487 0.59196 0.0
H152 H 0.41808 0.51278 0.58307 0.0
H153 H 0.34894 0.51591 0.43735 0.0
H154 H 0.35257 0.54405 0.34483 0.0
H155 H 0.44345 0.50635 0.33255 0.0
H156 H 0.51022 0.57967 0.26622 0.0
H157 H 0.41154 0.64035 0.49486 0.0
H158 H 0.48249 0.65111 0.59961 0.0
C159 C 0.84665 0.4393 0.68909 0.0
C160 C 0.83307 0.41727 0.7237 0.0
C161 C 0.84211 0.40075 0.70546 0.0
C162 C 0.86069 0.41358 0.66096 0.0
N163 N 0.86447 0.43744 0.65064 0.0
Co164 Co 0.88748 0.461 0.58596 0.0
N165 N 0.90626 0.44023 0.56936 0.0
C166 C 0.89755 0.41598 0.58854 0.0
C167 C 0.91442 0.4064 0.56979 0.0
C168 C 0.93499 0.42576 0.53633 0.0
C169 C 0.92951 0.44614 0.53663 0.0
N170 N 0.91005 0.48426 0.52066 0.0
C171 C 0.93291 0.48643 0.49218 0.0
C172 C 0.94258 0.5059 0.45035 0.0
C173 C 0.92492 0.51594 0.45196 0.0
C174 C 0.90567 0.50229 0.49478 0.0
N175 N 0.8692 0.48221 0.60246 0.0
C176 C 0.87019 0.50104 0.56817 0.0
C177 C 0.85588 0.51254 0.59026 0.0
C178 C 0.84455 0.49988 0.6413 0.0
C179 C 0.85256 0.48119 0.64738 0.0
N180 N 0.91838 0.48242 0.64138 0.0
C181 C 0.9635 0.51177 0.71948 0.0
C182 C 0.95356 0.52401 0.68173 0.0
C183 C 0.93119 0.50902 0.64255 0.0
C184 C 0.95011 0.48463 0.71789 0.0
C185 C 0.92752 0.47041 0.67936 0.0
N186 N 0.85633 0.43873 0.53155 0.0
C187 C 0.80585 0.4099 0.51794 0.0
C188 C 0.81072 0.3963 0.4742 0.0
C189 C 0.83885 0.40598 0.45593 0.0
C190 C 0.86126 0.42754 0.48433 0.0
C191 C 0.82878 0.43091 0.54584 0.0
H192 H 0.88266 0.43414 0.47006 0.0
H193 H 0.82396 0.43961 0.58141 0.0
H194 H 0.92447 0.51897 0.61301 0.0
H195 H 0.91767 0.44957 0.68021 0.0
C196 C 0.87596 0.40444 0.6299 0.0
C197 C 0.8395 0.46005 0.69001 0.0
C198 C 0.94523 0.46972 0.50124 0.0
C199 C 0.88663 0.50888 0.51807 0.0
H200 H 0.81753 0.41325 0.75732 0.0
H201 H 0.83573 0.3816 0.72237 0.0
H202 H 0.91246 0.38783 0.58037 0.0
H203 H 0.95188 0.4249 0.5137 0.0
H204 H 0.96063 0.51236 0.42175 0.0
H205 H 0.9267 0.53207 0.42675 0.0
H206 H 0.85388 0.52824 0.57148 0.0
H207 H 0.83085 0.50325 0.66944 0.0
H208 H 0.96344 0.54502 0.68149 0.0
H209 H 0.95698 0.47438 0.74662 0.0
H210 H 0.78452 0.40332 0.53339 0.0
H211 H 0.8436 0.39649 0.42115 0.0
C212 C 0.44425 0.85181 0.87711 0.0
C213 C 0.45502 0.84005 0.91316 0.0
C214 C 0.48237 0.84884 0.89598 0.0
C215 C 0.48683 0.8655 0.85075 0.0
N216 N 0.46427 0.86844 0.8392 0.0
Co217 Co 0.46137 0.88884 0.77316 0.0
N218 N 0.50296 0.90604 0.75631 0.0
C219 C 0.52119 0.8991 0.77796 0.0
C220 C 0.54879 0.91542 0.76118 0.0
C221 C 0.54795 0.93384 0.72669 0.0
C222 C 0.51973 0.92755 0.72393 0.0
N223 N 0.45824 0.90821 0.70556 0.0
C224 C 0.47874 0.92846 0.67517 0.0
C225 C 0.46713 0.93531 0.62926 0.0
C226 C 0.43833 0.91914 0.63178 0.0
C227 C 0.434 0.90324 0.67853 0.0
N228 N 0.41997 0.87287 0.79131 0.0
C229 C 0.40036 0.87412 0.75759 0.0
C230 C 0.37357 0.86144 0.78054 0.0
C231 C 0.3761 0.85085 0.83136 0.0
C232 C 0.40446 0.85759 0.83653 0.0
N233 N 0.4697 0.91809 0.82582 0.0
C234 C 0.48547 0.96176 0.8983 0.0
C235 C 0.46412 0.9543 0.85554 0.0
C236 C 0.45649 0.9324 0.82005 0.0
C237 C 0.49792 0.94622 0.90466 0.0
C238 C 0.49004 0.92491 0.86808 0.0
N239 N 0.45369 0.85931 0.7212 0.0
C240 C 0.42994 0.8127 0.70854 0.0
C241 C 0.45149 0.81486 0.67195 0.0
C242 C 0.47233 0.84004 0.65482 0.0
C243 C 0.47262 0.86193 0.67888 0.0
C244 C 0.43152 0.83487 0.73273 0.0
H245 H 0.48914 0.8809 0.66517 0.0
H246 H 0.41522 0.83161 0.76285 0.0
H247 H 0.44024 0.92736 0.78742 0.0
H248 H 0.50094 0.91425 0.87386 0.0
C249 C 0.5123 0.87974 0.82033 0.0
C250 C 0.414 0.84398 0.87591 0.0
C251 C 0.50925 0.94147 0.68798 0.0
C252 C 0.40784 0.88732 0.70471 0.0
H253 H 0.44382 0.8258 0.94683 0.0
H254 H 0.49714 0.84349 0.91392 0.0
H255 H 0.56748 0.91469 0.77437 0.0
H256 H 0.56607 0.95004 0.70622 0.0
H257 H 0.47824 0.95065 0.59771 0.0
H258 H 0.42241 0.91981 0.60463 0.0
H259 H 0.3543 0.85945 0.76172 0.0
H260 H 0.35858 0.83817 0.85915 0.0
H261 H 0.45378 0.96556 0.84848 0.0
H262 H 0.51384 0.95038 0.93785 0.0
H263 H 0.41225 0.79387 0.72048 0.0
H264 H 0.48912 0.84303 0.62526 0.0
C265 C 0.63674 0.44373 0.83084 0.0
C266 C 0.62641 0.4214 0.79706 0.0
C267 C 0.59941 0.40459 0.81584 0.0
C268 C 0.59471 0.41747 0.85996 0.0
N269 N 0.61678 0.44168 0.86947 0.0
Co270 Co 0.61937 0.46529 0.9343 0.0
N271 N 0.57811 0.44334 0.95313 0.0
C272 C 0.56066 0.41881 0.93468 0.0
C273 C 0.53334 0.4085 0.95463 0.0
C274 C 0.53359 0.42771 0.98803 0.0
C275 C 0.56112 0.44872 0.98645 0.0
N276 N 0.62218 0.48863 0.99951 0.0
C277 C 0.60148 0.49002 0.02912 0.0
C278 C 0.61303 0.50989 0.07026 0.0
C279 C 0.64187 0.52109 0.06684 0.0
C280 C 0.64636 0.50767 0.02374 0.0
N281 N 0.66063 0.48769 0.91548 0.0
C282 C 0.68018 0.50784 0.94747 0.0
C283 C 0.70663 0.5205 0.92278 0.0
C284 C 0.70392 0.50717 0.87257 0.0
C285 C 0.67592 0.48685 0.86988 0.0
N286 N 0.61 0.48543 0.87931 0.0
C287 C 0.59421 0.51287 0.80208 0.0
C288 C 0.61797 0.52613 0.8388 0.0
C289 C 0.62531 0.51208 0.87754 0.0
C290 C 0.57889 0.48569 0.80428 0.0
C291 C 0.58727 0.47243 0.84237 0.0
N292 N 0.62795 0.44427 0.9885 0.0
C293 C 0.64804 0.41649 0.99964 0.0
C294 C 0.62988 0.4034 0.04595 0.0
C295 C 0.61272 0.41298 0.06695 0.0
C296 C 0.61219 0.43356 0.03774 0.0
C297 C 0.64692 0.43685 0.97223 0.0
H298 H 0.59785 0.43975 0.05313 0.0
H299 H 0.66027 0.44534 0.93552 0.0
H300 H 0.64319 0.52283 0.90629 0.0
H301 H 0.57501 0.45155 0.84205 0.0
C302 C 0.56973 0.40773 0.89245 0.0
C303 C 0.66679 0.46453 0.83071 0.0
C304 C 0.57083 0.47257 0.02076 0.0
C305 C 0.67254 0.51551 0.99814 0.0
H306 H 0.63765 0.41724 0.76401 0.0
H307 H 0.58512 0.38509 0.79997 0.0
H308 H 0.5152 0.38958 0.9447 0.0
H309 H 0.51566 0.42636 1.01129 0.0
H310 H 0.60188 0.51599 0.09925 0.0
H311 H 0.65768 0.5379 0.0908 0.0
H312 H 0.72565 0.53733 0.93944 0.0
H313 H 0.72099 0.511 0.84292 0.0
H314 H 0.63035 0.54719 0.83864 0.0
H315 H 0.56054 0.47464 0.77634 0.0
H316 H 0.66236 0.41038 0.98305 0.0
H317 H 0.59866 0.40374 0.10344 0.0
H318 H 0.12966 0.5958 0.89087 0.0
H319 H 0.06923 0.56269 0.03045 0.0
H320 H 0.0906 0.58151 0.82038 0.0
H321 H 1.02992 0.54887 0.96002 0.0
H322 H 0.9689 0.54515 0.80775 0.0
H323 H 1.00818 0.56666 0.8787 0.0
H324 H 0.05269 0.53352 0.79186 0.0
H325 H 1.0133 0.51162 0.72242 0.0
C326 C 0.10797 0.58611 0.90651 0.0
C327 C 0.10238 0.58026 0.96596 0.0
C328 C 0.08563 0.57777 0.86622 0.0
C329 C 0.05716 0.56386 0.88455 0.0
C330 C 0.05162 0.55962 0.94459 0.0
C331 C 0.07405 0.56757 0.98491 0.0
C332 C 0.98725 0.54274 0.80369 0.0
C333 C 0.98813 0.5268 0.75951 0.0
C334 C 1.00961 0.5549 0.8444 0.0
C335 C 1.03359 0.55187 0.84075 0.0
C336 C 1.03467 0.53645 0.79555 0.0
C337 C 1.01211 0.52386 0.75588 0.0
H338 H 0.53941 0.99506 0.93936 0.0
H339 H 0.45428 0.98319 0.94216 0.0
H340 H 0.55507 0.03116 1.00686 0.0
H341 H 0.47072 1.02058 1.00819 0.0
H342 H 0.53169 0.11028 0.07621 0.0
H343 H 0.50925 0.0725 1.00974 0.0
H344 H 0.542 0.03338 0.11537 0.0
H345 H 0.56371 0.07065 0.18174 0.0
C346 C 0.52386 0.99993 0.95446 0.0
C347 C 0.49528 0.98553 0.93586 0.0
C348 C 0.533 1.02086 0.99302 0.0
C349 C 0.51407 0.02853 1.01349 0.0
C350 C 0.4858 1.01509 0.99317 0.0
C351 C 0.47644 0.99371 0.95509 0.0
C352 C 0.53345 0.09331 0.08564 0.0
C353 C 0.5495 0.09336 0.1338 0.0
C354 C 0.52069 0.07175 0.04771 0.0
C355 C 0.52417 0.0501 0.05697 0.0
C356 C 0.53921 0.04986 0.10667 0.0
C357 C 0.55151 0.07111 0.14482 0.0
H358 H 0.47736 0.49442 0.30564 0.0
H359 H 0.49762 0.5556 0.18082 0.0
H360 H 0.49395 0.47362 0.23767 0.0
H361 H 0.5161 0.53599 0.11499 0.0
H362 H 0.53558 0.49051 0.98723 0.0
H363 H 0.50832 0.50319 0.04991 0.0
H364 H 0.53565 0.4777 0.20062 0.0
H365 H 0.56143 0.46395 0.13715 0.0
C366 C 0.48517 0.50343 0.26367 0.0
C367 C 0.48632 0.52698 0.24946 0.0
C368 C 0.49514 0.49164 0.22476 0.0
C369 C 0.50678 0.50309 0.17052 0.0
C370 C 0.50711 0.52623 0.15575 0.0
C371 C 0.49689 0.53784 0.1943 0.0
C372 C 0.53505 0.4871 0.03365 0.0
C373 C 0.55061 0.47637 0.05748 0.0
C374 C 0.51978 0.49468 0.06987 0.0
C375 C 0.51997 0.49197 0.13096 0.0
C376 C 0.53454 0.47996 0.1541 0.0
C377 C 0.54948 0.47212 0.11779 0.0
H378 H 1.00174 0.49067 0.52768 0.0
H379 H 0.9416 0.45759 0.38621 0.0
H380 H 0.04116 0.50403 0.45878 0.0
H381 H 0.98077 0.47131 0.31719 0.0
H382 H 0.05831 0.54013 0.22016 0.0
H383 H 1.01855 0.51828 0.28775 0.0
H384 H 0.06343 0.48667 0.38047 0.0
H385 H 0.10316 0.50822 0.31141 0.0
C386 C 0.99701 0.48571 0.48205 0.0
C387 C 0.96874 0.47316 0.4621 0.0
C388 C 1.0195 0.49337 0.44261 0.0
C389 C 1.01409 0.48896 0.38243 0.0
C390 C 0.98565 0.47519 0.36314 0.0
C391 C 0.96324 0.46718 0.40258 0.0
C392 C 0.05946 0.52818 0.25443 0.0
C393 C 0.08369 0.52572 0.26034 0.0
C394 C 0.0367 0.51562 0.29307 0.0
C395 C 0.03779 0.50069 0.33944 0.0
C396 C 0.06199 0.49806 0.34522 0.0
C397 C 0.08459 0.51021 0.30559 0.0
H398 H 0.58608 0.04281 0.39304 0.0
H399 H 0.59335 0.09652 0.52787 0.0
H400 H 0.56749 1.00777 0.46338 0.0
H401 H 0.57714 0.06193 0.59922 0.0
H402 H 0.51223 0.98831 0.69649 0.0
H403 H 0.53654 1.02565 0.63199 0.0
H404 H 0.57433 0.98696 0.54113 0.0
H405 H 0.54824 0.94899 0.6036 0.0
C406 C 0.58399 0.04733 0.43772 0.0
C407 C 0.59105 0.07275 0.45397 0.0
C408 C 0.57372 0.02714 0.47867 0.0
C409 C 0.57054 0.03168 0.53763 0.0
C410 C 0.57865 0.05731 0.5543 0.0
C411 C 0.58853 0.07743 0.51318 0.0
C412 C 0.52622 0.98811 0.66338 0.0
C413 C 0.52874 0.96594 0.65579 0.0
C414 C 0.54031 1.00959 0.62627 0.0
C415 C 0.55757 1.00962 0.58063 0.0
C416 C 0.56093 0.9877 0.57479 0.0
C417 C 0.54645 0.96605 0.61142 0.0
H418 H 0.62466 0.54871 0.71716 0.0
H419 H 0.54192 0.50822 0.79684 0.0
H420 H 0.60714 0.56899 0.64745 0.0
H421 H 0.52467 0.5288 0.72857 0.0
H422 H 0.51062 0.58878 0.63481 0.0
H423 H 0.5352 0.5757 0.70478 0.0
H424 H 0.56761 0.5507 0.56319 0.0
H425 H 0.5423 0.56331 0.49317 0.0
C426 C 0.60288 0.54445 0.72024 0.0
C427 C 0.58466 0.52691 0.76246 0.0
C428 C 0.59282 0.55591 0.6802 0.0
C429 C 0.56454 0.55057 0.68261 0.0
C430 C 0.54662 0.53352 0.72585 0.0
C431 C 0.55645 0.52165 0.76482 0.0
C432 C 0.52352 0.58101 0.61871 0.0
C433 C 0.52451 0.57693 0.55871 0.0
C434 C 0.53742 0.57336 0.65869 0.0
C435 C 0.55313 0.56192 0.63959 0.0
C436 C 0.55574 0.55952 0.57924 0.0
C437 C 0.54137 0.56678 0.53917 0.0
H438 H 0.2408 0.5742 0.29453 0.0
H439 H 0.2873 0.62672 0.15496 0.0
H440 H 0.2845 0.57608 0.32876 0.0
H441 H 0.33112 0.62877 0.1888 0.0
H442 H 0.39092 0.59423 0.22222 0.0
H443 H 0.3505 0.59905 0.19158 0.0
H444 H 0.33143 0.60403 0.37172 0.0
H445 H 0.37129 0.599 0.40176 0.0
C446 C 0.26059 0.58671 0.27227 0.0
C447 C 0.26079 0.60055 0.22266 0.0
C448 C 0.28563 0.58775 0.29158 0.0
C449 C 0.31141 0.60247 0.26132 0.0
C450 C 0.31166 0.617 0.21273 0.0
C451 C 0.28666 0.6161 0.19375 0.0
C452 C 0.37829 0.59678 0.25499 0.0
C453 C 0.38436 0.5963 0.3143 0.0
C454 C 0.35517 0.59957 0.2376 0.0
C455 C 0.3375 0.60176 0.27923 0.0
C456 C 0.34423 0.60204 0.33846 0.0
C457 C 0.36732 0.59939 0.3557 0.0
H458 H 0.68503 0.23209 0.4548 0.0
H459 H 0.6638 0.26311 0.30584 0.0
H460 H 0.72262 0.27606 0.48209 0.0
H461 H 0.70118 0.3073 0.3333 0.0
H462 H 0.75707 0.38473 0.44023 0.0
H463 H 0.71662 0.34199 0.41414 0.0
H464 H 0.76973 0.30783 0.43447 0.0
H465 H 0.81007 0.35043 0.46026 0.0
C466 C 0.68796 0.24849 0.42894 0.0
C467 C 0.67144 0.24439 0.37871 0.0
C468 C 0.70967 0.27358 0.44402 0.0
C469 C 0.7151 0.29515 0.40949 0.0
C470 C 0.69748 0.29113 0.36088 0.0
C471 C 0.67601 0.26592 0.34532 0.0
C472 C 0.76014 0.36811 0.4386 0.0
C473 C 0.78685 0.37103 0.45211 0.0
C474 C 0.73699 0.34366 0.42358 0.0
C475 C 0.73987 0.32146 0.42284 0.0
C476 C 0.7667 0.32448 0.43538 0.0
C477 C 0.78992 0.34896 0.44943 0.0
H478 H 0.43458 0.77048 0.73606 0.0
H479 H 0.4715 0.80484 0.56989 0.0
H480 H 0.43431 0.73099 0.70853 0.0
H481 H 0.47247 0.76537 0.54394 0.0
H482 H 0.49423 0.69802 0.5529 0.0
H483 H 0.49646 0.73877 0.58179 0.0
H484 H 0.40784 0.69561 0.62908 0.0
H485 H 0.40551 0.65506 0.59926 0.0
C486 C 0.4424 0.76968 0.69334 0.0
C487 C 0.45251 0.79098 0.65482 0.0
C488 C 0.44246 0.74699 0.6779 0.0
C489 C 0.45323 0.74501 0.62404 0.0
C490 C 0.46417 0.76642 0.58597 0.0
C491 C 0.46366 0.78908 0.60099 0.0
C492 C 0.47538 0.69727 0.57028 0.0
C493 C 0.44975 0.67337 0.57431 0.0
C494 C 0.47657 0.72058 0.58614 0.0
C495 C 0.4523 0.72038 0.60748 0.0
C496 C 0.42691 0.69637 0.613 0.0
C497 C 0.42557 0.67317 0.59603 0.0
H498 H 0.70296 0.45593 0.8972 0.0
H499 H 0.68203 0.46118 0.71827 0.0
H500 H 0.74258 0.45105 0.86617 0.0
H501 H 0.72238 0.45662 0.68663 0.0
H502 H 0.8327 0.4815 0.78927 0.0
H503 H 0.78914 0.47962 0.82337 0.0
H504 H 0.7419 0.42682 0.68297 0.0
H505 H 0.78558 0.42886 0.64926 0.0
C506 C 0.70653 0.45561 0.85104 0.0
C507 C 0.68918 0.45879 0.81012 0.0
C508 C 0.72953 0.45311 0.83325 0.0
C509 C 0.73591 0.45365 0.77394 0.0
C510 C 0.71796 0.45591 0.73271 0.0
C511 C 0.69489 0.45855 0.75067 0.0
C512 C 0.81282 0.46901 0.76681 0.0
C513 C 0.81238 0.45513 0.71715 0.0
C514 C 0.78787 0.46796 0.78605 0.0
C515 C 0.76196 0.45317 0.75568 0.0
C516 C 0.76148 0.43865 0.70695 0.0
C517 C 0.7864 0.43956 0.68803 0.0
H518 H 0.40696 0.79799 0.83558 0.0
H519 H 0.37286 0.82919 0.95982 0.0
H520 H 0.36966 0.75388 0.85945 0.0
H521 H 0.3354 0.78486 0.98456 0.0
H522 H 0.2547 0.70462 0.96464 0.0
H523 H 0.29261 0.74849 0.9404 0.0
H524 H 0.35279 0.72148 0.93617 0.0
H525 H 0.31475 0.67749 0.95889 0.0
C526 C 0.39155 0.79535 0.8684 0.0
C527 C 0.39262 0.81704 0.8954 0.0
C528 C 0.3702 0.77004 0.8823 0.0
C529 C 0.34928 0.76571 0.92362 0.0
C530 C 0.35083 0.78745 0.95177 0.0
C531 C 0.37235 0.81282 0.93802 0.0
C532 C 0.27591 0.70792 0.95752 0.0
C533 C 0.28157 0.68741 0.96357 0.0
C534 C 0.29777 0.7332 0.9445 0.0
C535 C 0.32588 0.73867 0.93678 0.0
C536 C 0.33141 0.71803 0.94151 0.0
C537 C 0.3096 0.69279 0.95488 0.0
H538 H 0.62422 0.36245 0.98263 0.0
H539 H 0.63065 0.38897 0.15971 0.0
H540 H 0.62172 0.32271 1.01674 0.0
H541 H 0.62938 0.34951 0.19448 0.0
H542 H 0.59867 0.26493 0.24124 0.0
H543 H 0.60147 0.30488 0.20868 0.0
H544 H 0.64712 0.30451 0.05567 0.0
H545 H 0.64226 0.26329 0.08608 0.0
C546 C 0.62544 0.35987 0.02905 0.0
C547 C 0.62781 0.37896 0.06846 0.0
C548 C 0.62421 0.33707 0.04873 0.0
C549 C 0.62565 0.33271 0.10856 0.0
C550 C 0.62784 0.35183 0.14811 0.0
C551 C 0.62866 0.37456 0.12831 0.0
C552 C 0.60888 0.27302 0.20003 0.0
C553 C 0.61974 0.26033 0.1659 0.0
C554 C 0.61097 0.29638 0.1818 0.0
C555 C 0.6244 0.30817 0.12918 0.0
C556 C 0.63605 0.29591 0.09585 0.0
C557 C 0.63365 0.27232 0.11378 0.0
loop_
_geom_bond_atom_site_label_1
_geom_bond_atom_site_label_2
_geom_bond_distance
_geom_bond_site_symmetry_2
_ccdc_geom_bond_type
C0 C1 1.443 . S
C0 N4 1.376 . S
C0 C38 1.389 . S
C1 C0 1.443 . S
C1 C2 1.340 . S
C1 H41 0.951 . S
C2 C1 1.340 . S
C2 C3 1.439 . S
C2 H42 0.950 . S
C3 C2 1.439 . S
C3 N4 1.374 . S
C3 C37 1.395 . S
N4 C0 1.376 . S
N4 C3 1.374 . S
N4 Co5 2.008 . S
Co5 N4 2.008 . S
Co5 N6 1.995 . S
Co5 N11 2.008 . S
Co5 N16 1.995 . S
Co5 N21 2.282 . S
Co5 N27 2.282 . S
N6 Co5 1.995 . S
N6 C7 1.376 . S
N6 C10 1.383 . S
C7 N6 1.376 . S
C7 C8 1.446 . S
C7 C37 1.391 . S
C8 C7 1.446 . S
C8 C9 1.339 . S
C8 H43 0.949 . S
C9 C8 1.339 . S
C9 C10 1.439 . S
C9 H44 0.950 . S
C10 N6 1.383 . S
C10 C9 1.439 . S
C10 C39 1.392 . S
N11 Co5 2.008 . S
N11 C12 1.376 . S
N11 C15 1.374 . S
C12 N11 1.376 . S
C12 C13 1.443 1_554 S
C12 C39 1.389 . S
C13 C12 1.443 1_556 S
C13 C14 1.340 . S
C13 H45 0.951 . S
C14 C13 1.340 . S
C14 C15 1.439 1_556 S
C14 H46 0.950 . S
C15 N11 1.374 . S
C15 C14 1.439 1_554 S
C15 C40 1.395 . S
N16 Co5 1.995 . S
N16 C17 1.376 . S
N16 C20 1.383 . S
C17 N16 1.376 . S
C17 C18 1.446 . S
C17 C40 1.391 . S
C18 C17 1.446 . S
C18 C19 1.339 . S
C18 H47 0.949 . S
C19 C18 1.339 . S
C19 C20 1.439 . S
C19 H48 0.950 . S
C20 N16 1.383 . S
C20 C19 1.439 . S
C20 C38 1.392 . S
N21 Co5 2.282 . S
N21 C24 1.332 . S
N21 C26 1.332 . S
C22 C23 1.386 . S
C22 C25 1.388 . S
C23 C22 1.386 . S
C23 C24 1.382 . S
C23 H49 0.950 . S
C24 N21 1.332 . S
C24 C23 1.382 . S
C24 H35 0.952 . S
C25 C22 1.388 . S
C25 C26 1.382 . S
C25 H50 0.950 . S
C26 N21 1.332 . S
C26 C25 1.382 . S
C26 H36 0.948 . S
N27 Co5 2.282 . S
N27 C31 1.332 . S
N27 C32 1.332 . S
C28 C29 1.388 . S
C28 C32 1.382 1_556 S
C28 H51 0.950 . S
C29 C28 1.388 . S
C29 C30 1.386 1_556 S
C30 C29 1.386 1_554 S
C30 C31 1.382 . S
C30 H52 0.950 . S
C31 N27 1.332 . S
C31 C30 1.382 . S
C31 H33 0.952 . S
C32 N27 1.332 . S
C32 C28 1.382 1_554 S
C32 H34 0.948 . S
H33 C31 0.952 . S
H34 C32 0.948 . S
H35 C24 0.952 . S
H36 C26 0.948 . S
C37 C3 1.395 . S
C37 C7 1.391 . S
C38 C0 1.389 . S
C38 C20 1.392 . S
C39 C10 1.392 . S
C39 C12 1.389 . S
C40 C15 1.395 . S
C40 C17 1.391 . S
H41 C1 0.951 . S
H42 C2 0.950 . S
H43 C8 0.949 . S
H44 C9 0.950 . S
H45 C13 0.951 . S
H46 C14 0.950 . S
H47 C18 0.949 . S
H48 C19 0.950 . S
H49 C23 0.950 . S
H50 C25 0.950 . S
H51 C28 0.950 . S
H52 C30 0.950 . S
C53 C54 1.443 . S
C53 N57 1.376 . S
C53 C91 1.389 . S
C54 C53 1.443 . S
C54 C55 1.340 . S
C54 H94 0.951 . S
C55 C54 1.340 . S
C55 C56 1.439 . S
C55 H95 0.950 . S
C56 C55 1.439 . S
C56 N57 1.374 . S
C56 C90 1.395 . S
N57 C53 1.376 . S
N57 C56 1.374 . S
N57 Co58 2.008 . S
Co58 N57 2.008 . S
Co58 N59 1.995 . S
Co58 N64 2.008 . S
Co58 N69 1.995 . S
Co58 N74 2.282 . S
Co58 N80 2.282 . S
N59 Co58 1.995 . S
N59 C60 1.376 . S
N59 C63 1.383 . S
C60 N59 1.376 . S
C60 C61 1.446 . S
C60 C90 1.391 . S
C61 C60 1.446 . S
C61 C62 1.339 . S
C61 H96 0.949 . S
C62 C61 1.339 . S
C62 C63 1.439 . S
C62 H97 0.950 . S
C63 N59 1.383 . S
C63 C62 1.439 . S
C63 C92 1.392 . S
N64 Co58 2.008 . S
N64 C65 1.376 . S
N64 C68 1.374 . S
C65 N64 1.376 . S
C65 C66 1.443 . S
C65 C92 1.389 . S
C66 C65 1.443 . S
C66 C67 1.340 . S
C66 H98 0.951 . S
C67 C66 1.340 . S
C67 C68 1.439 . S
C67 H99 0.950 . S
C68 N64 1.374 . S
C68 C67 1.439 . S
C68 C93 1.395 . S
N69 Co58 1.995 . S
N69 C70 1.376 . S
N69 C73 1.383 . S
C70 N69 1.376 . S
C70 C71 1.446 . S
C70 C93 1.391 . S
C71 C70 1.446 . S
C71 C72 1.339 . S
C71 H100 0.949 . S
C72 C71 1.339 . S
C72 C73 1.439 . S
C72 H101 0.950 . S
C73 N69 1.383 . S
C73 C72 1.439 . S
C73 C91 1.392 . S
N74 Co58 2.282 . S
N74 C77 1.332 . S
N74 C79 1.332 . S
C75 C76 1.386 . S
C75 C78 1.388 . S
C76 C75 1.386 . S
C76 C77 1.382 . S
C76 H102 0.950 . S
C77 N74 1.332 . S
C77 C76 1.382 . S
C77 H88 0.952 . S
C78 C75 1.388 . S
C78 C79 1.382 . S
C78 H103 0.950 . S
C79 N74 1.332 . S
C79 C78 1.382 . S
C79 H89 0.948 . S
N80 Co58 2.282 . S
N80 C84 1.332 . S
N80 C85 1.332 . S
C81 C82 1.388 . S
C81 C85 1.382 . S
C81 H104 0.950 . S
C82 C81 1.388 . S
C82 C83 1.386 . S
C83 C82 1.386 . S
C83 C84 1.382 . S
C83 H105 0.950 . S
C84 N80 1.332 . S
C84 C83 1.382 . S
C84 H86 0.952 . S
C85 N80 1.332 . S
C85 C81 1.382 . S
C85 H87 0.948 . S
H86 C84 0.952 . S
H87 C85 0.948 . S
H88 C77 0.952 . S
H89 C79 0.948 . S
C90 C56 1.395 . S
C90 C60 1.391 . S
C91 C53 1.389 . S
C91 C73 1.392 . S
C92 C63 1.392 . S
C92 C65 1.389 . S
C93 C68 1.395 . S
C93 C70 1.391 . S
H94 C54 0.951 . S
H95 C55 0.950 . S
H96 C61 0.949 . S
H97 C62 0.950 . S
H98 C66 0.951 . S
H99 C67 0.950 . S
H100 C71 0.949 . S
H101 C72 0.950 . S
H102 C76 0.950 . S
H103 C78 0.950 . S
H104 C81 0.950 . S
H105 C83 0.950 . S
C106 C107 1.443 . S
C106 N110 1.376 . S
C106 C144 1.389 . S
C107 C106 1.443 . S
C107 C108 1.340 . S
C107 H147 0.951 . S
C108 C107 1.340 . S
C108 C109 1.439 . S
C108 H148 0.950 . S
C109 C108 1.439 . S
C109 N110 1.374 . S
C109 C143 1.395 . S
N110 C106 1.376 . S
N110 C109 1.374 . S
N110 Co111 2.008 . S
Co111 N110 2.008 . S
Co111 N112 1.995 . S
Co111 N117 2.008 . S
Co111 N122 1.995 . S
Co111 N127 2.282 . S
Co111 N133 2.282 . S
N112 Co111 1.995 . S
N112 C113 1.376 . S
N112 C116 1.383 . S
C113 N112 1.376 . S
C113 C114 1.446 . S
C113 C143 1.391 . S
C114 C113 1.446 . S
C114 C115 1.339 . S
C114 H149 0.949 . S
C115 C114 1.339 . S
C115 C116 1.439 . S
C115 H150 0.950 . S
C116 N112 1.383 . S
C116 C115 1.439 . S
C116 C145 1.392 . S
N117 Co111 2.008 . S
N117 C118 1.376 . S
N117 C121 1.374 . S
C118 N117 1.376 . S
C118 C119 1.443 . S
C118 C145 1.389 . S
C119 C118 1.443 . S
C119 C120 1.340 . S
C119 H151 0.951 . S
C120 C119 1.340 . S
C120 C121 1.439 . S
C120 H152 0.950 . S
C121 N117 1.374 . S
C121 C120 1.439 . S
C121 C146 1.395 . S
N122 Co111 1.995 . S
N122 C123 1.376 . S
N122 C126 1.383 . S
C123 N122 1.376 . S
C123 C124 1.446 . S
C123 C146 1.391 . S
C124 C123 1.446 . S
C124 C125 1.339 . S
C124 H153 0.949 . S
C125 C124 1.339 . S
C125 C126 1.439 . S
C125 H154 0.950 . S
C126 N122 1.383 . S
C126 C125 1.439 . S
C126 C144 1.392 . S
N127 Co111 2.282 . S
N127 C130 1.332 . S
N127 C132 1.332 . S
C128 C129 1.386 . S
C128 C131 1.388 . S
C129 C128 1.386 . S
C129 C130 1.382 . S
C129 H155 0.950 . S
C130 N127 1.332 . S
C130 C129 1.382 . S
C130 H141 0.952 . S
C131 C128 1.388 . S
C131 C132 1.382 . S
C131 H156 0.950 . S
C132 N127 1.332 . S
C132 C131 1.382 . S
C132 H142 0.948 . S
N133 Co111 2.282 . S
N133 C137 1.332 . S
N133 C138 1.332 . S
C134 C135 1.388 . S
C134 C138 1.382 . S
C134 H157 0.950 . S
C135 C134 1.388 . S
C135 C136 1.386 . S
C136 C135 1.386 . S
C136 C137 1.382 . S
C136 H158 0.950 . S
C137 N133 1.332 . S
C137 C136 1.382 . S
C137 H139 0.952 . S
C138 N133 1.332 . S
C138 C134 1.382 . S
C138 H140 0.948 . S
H139 C137 0.952 . S
H140 C138 0.948 . S
H141 C130 0.952 . S
H142 C132 0.948 . S
C143 C109 1.395 . S
C143 C113 1.391 . S
C144 C106 1.389 . S
C144 C126 1.392 . S
C145 C116 1.392 . S
C145 C118 1.389 . S
C146 C121 1.395 . S
C146 C123 1.391 . S
H147 C107 0.951 . S
H148 C108 0.950 . S
H149 C114 0.949 . S
H150 C115 0.950 . S
H151 C119 0.951 . S
H152 C120 0.950 . S
H153 C124 0.949 . S
H154 C125 0.950 . S
H155 C129 0.950 . S
H156 C131 0.950 . S
H157 C134 0.950 . S
H158 C136 0.950 . S
C159 C160 1.443 . S
C159 N163 1.376 . S
C159 C197 1.389 . S
C160 C159 1.443 . S
C160 C161 1.340 . S
C160 H200 0.951 . S
C161 C160 1.340 . S
C161 C162 1.439 . S
C161 H201 0.950 . S
C162 C161 1.439 . S
C162 N163 1.374 . S
C162 C196 1.395 . S
N163 C159 1.376 . S
N163 C162 1.374 . S
N163 Co164 2.008 . S
Co164 N163 2.008 . S
Co164 N165 1.995 . S
Co164 N170 2.008 . S
Co164 N175 1.995 . S
Co164 N180 2.282 . S
Co164 N186 2.282 . S
N165 Co164 1.995 . S
N165 C166 1.376 . S
N165 C169 1.383 . S
C166 N165 1.376 . S
C166 C167 1.446 . S
C166 C196 1.391 . S
C167 C166 1.446 . S
C167 C168 1.339 . S
C167 H202 0.949 . S
C168 C167 1.339 . S
C168 C169 1.439 . S
C168 H203 0.950 . S
C169 N165 1.383 . S
C169 C168 1.439 . S
C169 C198 1.392 . S
N170 Co164 2.008 . S
N170 C171 1.376 . S
N170 C174 1.374 . S
C171 N170 1.376 . S
C171 C172 1.443 . S
C171 C198 1.389 . S
C172 C171 1.443 . S
C172 C173 1.340 . S
C172 H204 0.951 . S
C173 C172 1.340 . S
C173 C174 1.439 . S
C173 H205 0.950 . S
C174 N170 1.374 . S
C174 C173 1.439 . S
C174 C199 1.395 . S
N175 Co164 1.995 . S
N175 C176 1.376 . S
N175 C179 1.383 . S
C176 N175 1.376 . S
C176 C177 1.446 . S
C176 C199 1.391 . S
C177 C176 1.446 . S
C177 C178 1.339 . S
C177 H206 0.949 . S
C178 C177 1.339 . S
C178 C179 1.439 . S
C178 H207 0.950 . S
C179 N175 1.383 . S
C179 C178 1.439 . S
C179 C197 1.392 . S
N180 Co164 2.282 . S
N180 C183 1.332 . S
N180 C185 1.332 . S
C181 C182 1.386 . S
C181 C184 1.388 . S
C182 C181 1.386 . S
C182 C183 1.382 . S
C182 H208 0.950 . S
C183 N180 1.332 . S
C183 C182 1.382 . S
C183 H194 0.952 . S
C184 C181 1.388 . S
C184 C185 1.382 . S
C184 H209 0.950 . S
C185 N180 1.332 . S
C185 C184 1.382 . S
C185 H195 0.948 . S
N186 Co164 2.282 . S
N186 C190 1.332 . S
N186 C191 1.332 . S
C187 C188 1.388 . S
C187 C191 1.382 . S
C187 H210 0.950 . S
C188 C187 1.388 . S
C188 C189 1.386 . S
C189 C188 1.386 . S
C189 C190 1.382 . S
C189 H211 0.950 . S
C190 N186 1.332 . S
C190 C189 1.382 . S
C190 H192 0.952 . S
C191 N186 1.332 . S
C191 C187 1.382 . S
C191 H193 0.948 . S
H192 C190 0.952 . S
H193 C191 0.948 . S
H194 C183 0.952 . S
H195 C185 0.948 . S
C196 C162 1.395 . S
C196 C166 1.391 . S
C197 C159 1.389 . S
C197 C179 1.392 . S
C198 C169 1.392 . S
C198 C171 1.389 . S
C199 C174 1.395 . S
C199 C176 1.391 . S
H200 C160 0.951 . S
H201 C161 0.950 . S
H202 C167 0.949 . S
H203 C168 0.950 . S
H204 C172 0.951 . S
H205 C173 0.950 . S
H206 C177 0.949 . S
H207 C178 0.950 . S
H208 C182 0.950 . S
H209 C184 0.950 . S
H210 C187 0.950 . S
H211 C189 0.950 . S
C212 C213 1.443 . S
C212 N216 1.376 . S
C212 C250 1.389 . S
C213 C212 1.443 . S
C213 C214 1.340 . S
C213 H253 0.951 . S
C214 C213 1.340 . S
C214 C215 1.439 . S
C214 H254 0.950 . S
C215 C214 1.439 . S
C215 N216 1.374 . S
C215 C249 1.395 . S
N216 C212 1.376 . S
N216 C215 1.374 . S
N216 Co217 2.008 . S
Co217 N216 2.008 . S
Co217 N218 1.995 . S
Co217 N223 2.008 . S
Co217 N228 1.995 . S
Co217 N233 2.282 . S
Co217 N239 2.282 . S
N218 Co217 1.995 . S
N218 C219 1.376 . S
N218 C222 1.383 . S
C219 N218 1.376 . S
C219 C220 1.446 . S
C219 C249 1.391 . S
C220 C219 1.446 . S
C220 C221 1.339 . S
C220 H255 0.949 . S
C221 C220 1.339 . S
C221 C222 1.439 . S
C221 H256 0.950 . S
C222 N218 1.383 . S
C222 C221 1.439 . S
C222 C251 1.392 . S
N223 Co217 2.008 . S
N223 C224 1.376 . S
N223 C227 1.374 . S
C224 N223 1.376 . S
C224 C225 1.443 . S
C224 C251 1.389 . S
C225 C224 1.443 . S
C225 C226 1.340 . S
C225 H257 0.951 . S
C226 C225 1.340 . S
C226 C227 1.439 . S
C226 H258 0.950 . S
C227 N223 1.374 . S
C227 C226 1.439 . S
C227 C252 1.395 . S
N228 Co217 1.995 . S
N228 C229 1.376 . S
N228 C232 1.383 . S
C229 N228 1.376 . S
C229 C230 1.446 . S
C229 C252 1.391 . S
C230 C229 1.446 . S
C230 C231 1.339 . S
C230 H259 0.949 . S
C231 C230 1.339 . S
C231 C232 1.439 . S
C231 H260 0.950 . S
C232 N228 1.383 . S
C232 C231 1.439 . S
C232 C250 1.392 . S
N233 Co217 2.282 . S
N233 C236 1.332 . S
N233 C238 1.332 . S
C234 C235 1.386 . S
C234 C237 1.388 . S
C235 C234 1.386 . S
C235 C236 1.382 . S
C235 H261 0.950 . S
C236 N233 1.332 . S
C236 C235 1.382 . S
C236 H247 0.952 . S
C237 C234 1.388 . S
C237 C238 1.382 . S
C237 H262 0.950 . S
C238 N233 1.332 . S
C238 C237 1.382 . S
C238 H248 0.948 . S
N239 Co217 2.282 . S
N239 C243 1.332 . S
N239 C244 1.332 . S
C240 C241 1.388 . S
C240 C244 1.382 . S
C240 H263 0.950 . S
C241 C240 1.388 . S
C241 C242 1.386 . S
C242 C241 1.386 . S
C242 C243 1.382 . S
C242 H264 0.950 . S
C243 N239 1.332 . S
C243 C242 1.382 . S
C243 H245 0.952 . S
C244 N239 1.332 . S
C244 C240 1.382 . S
C244 H246 0.948 . S
H245 C243 0.952 . S
H246 C244 0.948 . S
H247 C236 0.952 . S
H248 C238 0.948 . S
C249 C215 1.395 . S
C249 C219 1.391 . S
C250 C212 1.389 . S
C250 C232 1.392 . S
C251 C222 1.392 . S
C251 C224 1.389 . S
C252 C227 1.395 . S
C252 C229 1.391 . S
H253 C213 0.951 . S
H254 C214 0.950 . S
H255 C220 0.949 . S
H256 C221 0.950 . S
H257 C225 0.951 . S
H258 C226 0.950 . S
H259 C230 0.949 . S
H260 C231 0.950 . S
H261 C235 0.950 . S
H262 C237 0.950 . S
H263 C240 0.950 . S
H264 C242 0.950 . S
C265 C266 1.443 . S
C265 N269 1.376 . S
C265 C303 1.389 . S
C266 C265 1.443 . S
C266 C267 1.340 . S
C266 H306 0.951 . S
C267 C266 1.340 . S
C267 C268 1.439 . S
C267 H307 0.950 . S
C268 C267 1.439 . S
C268 N269 1.374 . S
C268 C302 1.395 . S
N269 C265 1.376 . S
N269 C268 1.374 . S
N269 Co270 2.008 . S
Co270 N269 2.008 . S
Co270 N271 1.995 . S
Co270 N276 2.008 . S
Co270 N281 1.995 . S
Co270 N286 2.282 . S
Co270 N292 2.282 . S
N271 Co270 1.995 . S
N271 C272 1.376 . S
N271 C275 1.383 . S
C272 N271 1.376 . S
C272 C273 1.446 . S
C272 C302 1.391 . S
C273 C272 1.446 . S
C273 C274 1.339 . S
C273 H308 0.949 . S
C274 C273 1.339 . S
C274 C275 1.439 . S
C274 H309 0.950 . S
C275 N271 1.383 . S
C275 C274 1.439 . S
C275 C304 1.392 . S
N276 Co270 2.008 . S
N276 C277 1.376 . S
N276 C280 1.374 . S
C277 N276 1.376 . S
C277 C278 1.443 . S
C277 C304 1.389 . S
C278 C277 1.443 . S
C278 C279 1.340 . S
C278 H310 0.951 1_556 S
C279 C278 1.340 . S
C279 C280 1.439 . S
C279 H311 0.950 . S
C280 N276 1.374 . S
C280 C279 1.439 . S
C280 C305 1.395 . S
N281 Co270 1.995 . S
N281 C282 1.376 . S
N281 C285 1.383 . S
C282 N281 1.376 . S
C282 C283 1.446 . S
C282 C305 1.391 . S
C283 C282 1.446 . S
C283 C284 1.339 . S
C283 H312 0.949 . S
C284 C283 1.339 . S
C284 C285 1.439 . S
C284 H313 0.950 . S
C285 N281 1.383 . S
C285 C284 1.439 . S
C285 C303 1.392 . S
N286 Co270 2.282 . S
N286 C289 1.332 . S
N286 C291 1.332 . S
C287 C288 1.386 . S
C287 C290 1.388 . S
C288 C287 1.386 . S
C288 C289 1.382 . S
C288 H314 0.950 . S
C289 N286 1.332 . S
C289 C288 1.382 . S
C289 H300 0.952 . S
C290 C287 1.388 . S
C290 C291 1.382 . S
C290 H315 0.950 . S
C291 N286 1.332 . S
C291 C290 1.382 . S
C291 H301 0.948 . S
N292 Co270 2.282 . S
N292 C296 1.332 . S
N292 C297 1.332 . S
C293 C294 1.388 . S
C293 C297 1.382 . S
C293 H316 0.950 1_556 S
C294 C293 1.388 . S
C294 C295 1.386 . S
C295 C294 1.386 . S
C295 C296 1.382 . S
C295 H317 0.950 . S
C296 N292 1.332 . S
C296 C295 1.382 . S
C296 H298 0.952 . S
C297 N292 1.332 . S
C297 C293 1.382 . S
C297 H299 0.948 . S
H298 C296 0.952 . S
H299 C297 0.948 . S
H300 C289 0.952 . S
H301 C291 0.948 . S
C302 C268 1.395 . S
C302 C272 1.391 . S
C303 C265 1.389 . S
C303 C285 1.392 . S
C304 C275 1.392 . S
C304 C277 1.389 . S
C305 C280 1.395 . S
C305 C282 1.391 . S
H306 C266 0.951 . S
H307 C267 0.950 . S
H308 C273 0.949 . S
H309 C274 0.950 . S
H310 C278 0.951 1_554 S
H311 C279 0.950 . S
H312 C283 0.949 . S
H313 C284 0.950 . S
H314 C288 0.950 . S
H315 C290 0.950 . S
H316 C293 0.950 1_554 S
H317 C295 0.950 . S
H318 C326 0.950 . S
H319 C331 0.950 1_554 S
H320 C328 0.950 . S
H321 C330 0.950 . S
H322 C332 0.950 . S
H323 C334 0.950 . S
H324 C336 0.950 . S
H325 C337 0.950 . S
C326 H318 0.950 . S
C326 C327 1.386 . S
C326 C328 1.391 . S
C327 C326 1.386 . S
C327 C331 1.393 . S
C328 H320 0.950 . S
C328 C326 1.391 . S
C328 C329 1.400 . S
C329 C328 1.400 . S
C329 C330 1.398 . S
C329 C335 1.491 . S
C330 H321 0.950 . S
C330 C329 1.398 . S
C330 C331 1.391 . S
C331 H319 0.950 1_556 S
C331 C327 1.393 . S
C331 C330 1.391 . S
C332 H322 0.950 . S
C332 C333 1.386 . S
C332 C334 1.391 . S
C333 C332 1.386 . S
C333 C337 1.393 . S
C334 H323 0.950 . S
C334 C332 1.391 . S
C334 C335 1.400 1_655 S
C335 C329 1.491 . S
C335 C334 1.400 1_455 S
C335 C336 1.398 . S
C336 H324 0.950 . S
C336 C335 1.398 . S
C336 C337 1.391 1_455 S
C337 H325 0.950 . S
C337 C333 1.393 . S
C337 C336 1.391 1_655 S
H338 C346 0.950 . S
H339 C351 0.950 . S
H340 C348 0.950 . S
H341 C350 0.950 1_545 S
H342 C352 0.950 . S
H343 C354 0.950 . S
H344 C356 0.950 . S
H345 C357 0.950 . S
C346 H338 0.950 . S
C346 C347 1.386 . S
C346 C348 1.391 1_556 S
C347 C346 1.386 . S
C347 C351 1.393 . S
C348 H340 0.950 . S
C348 C346 1.391 1_554 S
C348 C349 1.354 1_565 S
C349 C348 1.354 1_545 S
C349 C350 1.411 1_544 S
C349 C355 1.525 . S
C350 H341 0.950 1_565 S
C350 C349 1.411 1_566 S
C350 C351 1.391 . S
C351 H339 0.950 . S
C351 C347 1.393 . S
C351 C350 1.391 . S
C352 H342 0.950 . S
C352 C353 1.386 . S
C352 C354 1.391 . S
C353 C352 1.386 . S
C353 C357 1.393 . S
C354 H343 0.950 . S
C354 C352 1.391 . S
C354 C355 1.400 . S
C355 C349 1.525 . S
C355 C354 1.400 . S
C355 C356 1.398 . S
C356 H344 0.950 . S
C356 C355 1.398 . S
C356 C357 1.391 . S
C357 H345 0.950 . S
C357 C353 1.393 . S
C357 C356 1.391 . S
H358 C366 0.950 . S
H359 C371 0.950 . S
H360 C368 0.950 . S
H361 C370 0.950 . S
H362 C372 0.950 . S
H363 C374 0.950 . S
H364 C376 0.950 . S
H365 C377 0.950 . S
C366 H358 0.950 . S
C366 C367 1.386 . S
C366 C368 1.391 . S
C367 C366 1.386 . S
C367 C371 1.393 . S
C368 H360 0.950 . S
C368 C366 1.391 . S
C368 C369 1.400 . S
C369 C368 1.400 . S
C369 C370 1.398 . S
C369 C375 1.491 . S
C370 H361 0.950 . S
C370 C369 1.398 . S
C370 C371 1.391 . S
C371 H359 0.950 . S
C371 C367 1.393 . S
C371 C370 1.391 . S
C372 H362 0.950 . S
C372 C373 1.386 1_556 S
C372 C374 1.391 1_556 S
C373 C372 1.386 1_554 S
C373 C377 1.393 . S
C374 H363 0.950 . S
C374 C372 1.391 1_554 S
C374 C375 1.400 . S
C375 C369 1.491 . S
C375 C374 1.400 . S
C375 C376 1.398 . S
C376 H364 0.950 . S
C376 C375 1.398 . S
C376 C377 1.391 . S
C377 H365 0.950 . S
C377 C373 1.393 . S
C377 C376 1.391 . S
H378 C386 0.950 . S
H379 C391 0.950 . S
H380 C388 0.950 . S
H381 C390 0.950 . S
H382 C392 0.950 . S
H383 C394 0.950 . S
H384 C396 0.950 . S
H385 C397 0.950 . S
C386 H378 0.950 . S
C386 C387 1.386 . S
C386 C388 1.391 . S
C387 C386 1.386 . S
C387 C391 1.393 . S
C388 H380 0.950 . S
C388 C386 1.391 . S
C388 C389 1.400 . S
C389 C388 1.400 . S
C389 C390 1.398 . S
C389 C395 1.505 . S
C390 H381 0.950 . S
C390 C389 1.398 . S
C390 C391 1.391 . S
C391 H379 0.950 . S
C391 C387 1.393 . S
C391 C390 1.391 . S
C392 H382 0.950 . S
C392 C393 1.386 . S
C392 C394 1.391 1_455 S
C393 C392 1.386 . S
C393 C397 1.393 . S
C394 H383 0.950 . S
C394 C392 1.391 1_655 S
C394 C395 1.409 . S
C395 C389 1.505 . S
C395 C394 1.409 . S
C395 C396 1.375 1_655 S
C396 H384 0.950 . S
C396 C395 1.375 1_455 S
C396 C397 1.391 . S
C397 H385 0.950 . S
C397 C393 1.393 . S
C397 C396 1.391 . S
H398 C406 0.950 . S
H399 C411 0.950 . S
H400 C408 0.950 1_565 S
H401 C410 0.950 . S
H402 C412 0.950 . S
H403 C414 0.950 . S
H404 C416 0.950 . S
H405 C417 0.950 . S
C406 H398 0.950 . S
C406 C407 1.386 . S
C406 C408 1.391 . S
C407 C406 1.386 . S
C407 C411 1.393 . S
C408 H400 0.950 1_545 S
C408 C406 1.391 . S
C408 C409 1.405 1_545 S
C409 C408 1.405 1_565 S
C409 C410 1.383 1_565 S
C409 C415 1.501 . S
C410 H401 0.950 . S
C410 C409 1.383 1_545 S
C410 C411 1.391 . S
C411 H399 0.950 . S
C411 C407 1.393 . S
C411 C410 1.391 . S
C412 H402 0.950 . S
C412 C413 1.386 . S
C412 C414 1.391 . S
C413 C412 1.386 . S
C413 C417 1.393 . S
C414 H403 0.950 . S
C414 C412 1.391 . S
C414 C415 1.400 . S
C415 C409 1.501 . S
C415 C414 1.400 . S
C415 C416 1.398 . S
C416 H404 0.950 . S
C416 C415 1.398 . S
C416 C417 1.391 . S
C417 H405 0.950 . S
C417 C413 1.393 . S
C417 C416 1.391 . S
H418 C426 0.950 . S
H419 C431 0.950 . S
H420 C428 0.950 . S
H421 C430 0.950 . S
H422 C432 0.950 . S
H423 C434 0.950 . S
H424 C436 0.950 . S
H425 C437 0.950 . S
C426 H418 0.950 . S
C426 C427 1.386 . S
C426 C428 1.391 . S
C427 C426 1.386 . S
C427 C431 1.393 . S
C428 H420 0.950 . S
C428 C426 1.391 . S
C428 C429 1.400 . S
C429 C428 1.400 . S
C429 C430 1.398 . S
C429 C435 1.491 . S
C430 H421 0.950 . S
C430 C429 1.398 . S
C430 C431 1.391 . S
C431 H419 0.950 . S
C431 C427 1.393 . S
C431 C430 1.391 . S
C432 H422 0.950 . S
C432 C433 1.386 . S
C432 C434 1.391 . S
C433 C432 1.386 . S
C433 C437 1.393 . S
C434 H423 0.950 . S
C434 C432 1.391 . S
C434 C435 1.400 . S
C435 C429 1.491 . S
C435 C434 1.400 . S
C435 C436 1.398 . S
C436 H424 0.950 . S
C436 C435 1.398 . S
C436 C437 1.391 . S
C437 H425 0.950 . S
C437 C433 1.393 . S
C437 C436 1.391 . S
H438 C446 0.950 . S
H439 C451 0.950 . S
H440 C448 0.950 . S
H441 C450 0.950 . S
H442 C452 0.950 . S
H443 C454 0.950 . S
H444 C456 0.950 . S
H445 C457 0.950 . S
C446 H438 0.950 . S
C446 C447 1.386 . S
C446 C448 1.391 . S
C447 C446 1.386 . S
C447 C451 1.393 . S
C448 H440 0.950 . S
C448 C446 1.391 . S
C448 C449 1.400 . S
C449 C448 1.400 . S
C449 C450 1.398 . S
C449 C455 1.491 . S
C450 H441 0.950 . S
C450 C449 1.398 . S
C450 C451 1.391 . S
C451 H439 0.950 . S
C451 C447 1.393 . S
C451 C450 1.391 . S
C452 H442 0.950 . S
C452 C453 1.386 . S
C452 C454 1.391 . S
C453 C452 1.386 . S
C453 C457 1.393 . S
C454 H443 0.950 . S
C454 C452 1.391 . S
C454 C455 1.400 . S
C455 C449 1.491 . S
C455 C454 1.400 . S
C455 C456 1.398 . S
C456 H444 0.950 . S
C456 C455 1.398 . S
C456 C457 1.391 . S
C457 H445 0.950 . S
C457 C453 1.393 . S
C457 C456 1.391 . S
H458 C466 0.950 . S
H459 C471 0.950 . S
H460 C468 0.950 . S
H461 C470 0.950 . S
H462 C472 0.950 . S
H463 C474 0.950 . S
H464 C476 0.950 . S
H465 C477 0.950 . S
C466 H458 0.950 . S
C466 C467 1.386 . S
C466 C468 1.391 . S
C467 C466 1.386 . S
C467 C471 1.393 . S
C468 H460 0.950 . S
C468 C466 1.391 . S
C468 C469 1.400 . S
C469 C468 1.400 . S
C469 C470 1.398 . S
C469 C475 1.491 . S
C470 H461 0.950 . S
C470 C469 1.398 . S
C470 C471 1.391 . S
C471 H459 0.950 . S
C471 C467 1.393 . S
C471 C470 1.391 . S
C472 H462 0.950 . S
C472 C473 1.386 . S
C472 C474 1.391 . S
C473 C472 1.386 . S
C473 C477 1.393 . S
C474 H463 0.950 . S
C474 C472 1.391 . S
C474 C475 1.400 . S
C475 C469 1.491 . S
C475 C474 1.400 . S
C475 C476 1.398 . S
C476 H464 0.950 . S
C476 C475 1.398 . S
C476 C477 1.391 . S
C477 H465 0.950 . S
C477 C473 1.393 . S
C477 C476 1.391 . S
H478 C486 0.950 . S
H479 C491 0.950 . S
H480 C488 0.950 . S
H481 C490 0.950 . S
H482 C492 0.950 . S
H483 C494 0.950 . S
H484 C496 0.950 . S
H485 C497 0.950 . S
C486 H478 0.950 . S
C486 C487 1.386 . S
C486 C488 1.391 . S
C487 C486 1.386 . S
C487 C491 1.393 . S
C488 H480 0.950 . S
C488 C486 1.391 . S
C488 C489 1.400 . S
C489 C488 1.400 . S
C489 C490 1.398 . S
C489 C495 1.491 . S
C490 H481 0.950 . S
C490 C489 1.398 . S
C490 C491 1.391 . S
C491 H479 0.950 . S
C491 C487 1.393 . S
C491 C490 1.391 . S
C492 H482 0.950 . S
C492 C493 1.386 . S
C492 C494 1.391 . S
C493 C492 1.386 . S
C493 C497 1.393 . S
C494 H483 0.950 . S
C494 C492 1.391 . S
C494 C495 1.400 . S
C495 C489 1.491 . S
C495 C494 1.400 . S
C495 C496 1.398 . S
C496 H484 0.950 . S
C496 C495 1.398 . S
C496 C497 1.391 . S
C497 H485 0.950 . S
C497 C493 1.393 . S
C497 C496 1.391 . S
H498 C506 0.950 . S
H499 C511 0.950 . S
H500 C508 0.950 . S
H501 C510 0.950 . S
H502 C512 0.950 . S
H503 C514 0.950 . S
H504 C516 0.950 . S
H505 C517 0.950 . S
C506 H498 0.950 . S
C506 C507 1.386 . S
C506 C508 1.391 . S
C507 C506 1.386 . S
C507 C511 1.393 . S
C508 H500 0.950 . S
C508 C506 1.391 . S
C508 C509 1.400 . S
C509 C508 1.400 . S
C509 C510 1.398 . S
C509 C515 1.491 . S
C510 H501 0.950 . S
C510 C509 1.398 . S
C510 C511 1.391 . S
C511 H499 0.950 . S
C511 C507 1.393 . S
C511 C510 1.391 . S
C512 H502 0.950 . S
C512 C513 1.386 . S
C512 C514 1.391 . S
C513 C512 1.386 . S
C513 C517 1.393 . S
C514 H503 0.950 . S
C514 C512 1.391 . S
C514 C515 1.400 . S
C515 C509 1.491 . S
C515 C514 1.400 . S
C515 C516 1.398 . S
C516 H504 0.950 . S
C516 C515 1.398 . S
C516 C517 1.391 . S
C517 H505 0.950 . S
C517 C513 1.393 . S
C517 C516 1.391 . S
H518 C526 0.950 . S
H519 C531 0.950 . S
H520 C528 0.950 . S
H521 C530 0.950 . S
H522 C532 0.950 . S
H523 C534 0.950 . S
H524 C536 0.950 . S
H525 C537 0.950 . S
C526 H518 0.950 . S
C526 C527 1.386 . S
C526 C528 1.391 . S
C527 C526 1.386 . S
C527 C531 1.393 . S
C528 H520 0.950 . S
C528 C526 1.391 . S
C528 C529 1.400 . S
C529 C528 1.400 . S
C529 C530 1.398 . S
C529 C535 1.491 . S
C530 H521 0.950 . S
C530 C529 1.398 . S
C530 C531 1.391 . S
C531 H519 0.950 . S
C531 C527 1.393 . S
C531 C530 1.391 . S
C532 H522 0.950 . S
C532 C533 1.386 . S
C532 C534 1.391 . S
C533 C532 1.386 . S
C533 C537 1.393 . S
C534 H523 0.950 . S
C534 C532 1.391 . S
C534 C535 1.400 . S
C535 C529 1.491 . S
C535 C534 1.400 . S
C535 C536 1.398 . S
C536 H524 0.950 . S
C536 C535 1.398 . S
C536 C537 1.391 . S
C537 H525 0.950 . S
C537 C533 1.393 . S
C537 C536 1.391 . S
H538 C546 0.950 . S
H539 C551 0.950 . S
H540 C548 0.950 1_556 S
H541 C550 0.950 . S
H542 C552 0.950 . S
H543 C554 0.950 . S
H544 C556 0.950 . S
H545 C557 0.950 . S
C546 H538 0.950 . S
C546 C547 1.386 1_556 S
C546 C548 1.391 1_556 S
C547 C546 1.386 1_554 S
C547 C551 1.393 . S
C548 H540 0.950 1_554 S
C548 C546 1.391 1_554 S
C548 C549 1.400 . S
C549 C548 1.400 . S
C549 C550 1.398 . S
C549 C555 1.491 . S
C550 H541 0.950 . S
C550 C549 1.398 . S
C550 C551 1.391 . S
C551 H539 0.950 . S
C551 C547 1.393 . S
C551 C550 1.391 . S
C552 H542 0.950 . S
C552 C553 1.386 . S
C552 C554 1.391 . S
C553 C552 1.386 . S
C553 C557 1.393 . S
C554 H543 0.950 . S
C554 C552 1.391 . S
C554 C555 1.400 . S
C555 C549 1.491 . S
C555 C554 1.400 . S
C555 C556 1.398 . S
C556 H544 0.950 . S
C556 C555 1.398 . S
C556 C557 1.391 . S
C557 H545 0.950 . S
C557 C553 1.393 . S
C557 C556 1.391 . S
C327 C39 1.905 1_556 S
C333 C181 1.908 . S
C347 C234 1.835 . S
C353 C92 1.835 . S
C367 C128 1.867 . S
C373 C304 1.852 1_554 S
C387 C198 1.904 . S
C393 C22 1.895 . S
C407 C75 1.831 . S
C413 C251 1.824 . S
C427 C287 1.862 . S
C433 C145 1.856 . S
C447 C38 1.924 . S
C453 C144 1.935 . S
C467 C91 1.819 . S
C473 C188 1.814 . S
C487 C241 1.681 . S
C493 C135 1.672 . S
C507 C303 1.937 . S
C513 C197 1.935 . S
C527 C250 1.829 . S
C533 C29 1.819 . S
C547 C294 1.680 1_554 S
C553 C82 1.675 . S
