# Generated by pormake.
# Topology eta-c, (3)-cn, num edge types: 1
# Building blocks:
#     Node 0, Type 0, BuildingBlock: WUSLED_clean_sbu_0, # of connection points: 3
#     Node 1, Type 0, BuildingBlock: WUSLED_clean_sbu_0, # of connection points: 3
#     Node 2, Type 0, BuildingBlock: WUSLED_clean_sbu_0, # of connection points: 3
#     Node 3, Type 0, BuildingBlock: WUSLED_clean_sbu_0, # of connection points: 3
#     Node 4, Type 0, BuildingBlock: WUSLED_clean_sbu_0, # of connection points: 3
#     Node 5, Type 0, BuildingBlock: WUSLED_clean_sbu_0, # of connection points: 3
#     Edge 6, Type (0, 0), BuildingBlock: CIFDUS_clean_linker_0, # of connection points: 2
#     Edge 7, Type (0, 0), BuildingBlock: CIFDUS_clean_linker_0, # of connection points: 2
#     Edge 8, Type (0, 0), BuildingBlock: CIFDUS_clean_linker_0, # of connection points: 2
#     Edge 9, Type (0, 0), BuildingBlock: CIFDUS_clean_linker_0, # of connection points: 2
#     Edge 10, Type (0, 0), BuildingBlock: CIFDUS_clean_linker_0, # of connection points: 2
#     Edge 11, Type (0, 0), BuildingBlock: CIFDUS_clean_linker_0, # of connection points: 2
#     Edge 12, Type (0, 0), BuildingBlock: CIFDUS_clean_linker_0, # of connection points: 2
#     Edge 13, Type (0, 0), BuildingBlock: CIFDUS_clean_linker_0, # of connection points: 2
#     Edge 14, Type (0, 0), BuildingBlock: CIFDUS_clean_linker_0, # of connection points: 2
# Relax obj value: 0.000
# Max RMSD: 0.004
# Mean RMSD: 0.003
data_MOF--net-eta-c--node1-WUSLED_clean_sbu_0--edge1-CIFDUS_clean_linker_0
_symmetry_space_group_name_H-M    P1
_symmetry_Int_Tables_number       1
_symmetry_cell_setting            triclinic
loop_
_symmetry_equiv_pos_as_xyz
'x, y, z'
_cell_length_a     60.44907
_cell_length_b     61.094082
_cell_length_c     25.104107
_cell_angle_alpha  90.911173
_cell_angle_beta   89.538282
_cell_angle_gamma 118.93705
loop_
_atom_site_label
_atom_site_type_symbol
_atom_site_fract_x
_atom_site_fract_y
_atom_site_fract_z
_atom_type_partial_charge
C0 C 0.41384 0.81553 0.17558 0.0
C1 C 0.3926 0.79315 0.15954 0.0
C2 C 0.38357 0.7797 0.25194 0.0
C3 C 0.37756 0.7755 0.19731 0.0
C4 C 0.40511 0.80204 0.26763 0.0
C5 C 0.42003 0.81977 0.22983 0.0
U6 U 0.44316 0.83281 0.03726 0.0
O7 O 0.44761 0.8627 0.9834 0.0
O8 O 0.48118 0.86139 1.01193 0.0
C9 C 0.47244 0.87387 0.98503 0.0
C10 C 0.42975 0.83449 0.13632 0.0
C11 C 0.48548 0.90121 0.99359 0.0
C12 C 0.48961 0.93878 0.03777 0.0
C13 C 0.47749 0.91263 0.03255 0.0
C14 C 0.51804 0.94227 0.96588 0.0
C15 C 0.50991 0.95396 1.00409 0.0
C16 C 0.50593 0.91622 0.9607 0.0
C17 C 0.42897 0.7788 0.93824 0.0
C18 C 0.44931 0.78361 0.852 0.0
C19 C 0.4147 0.74335 0.87702 0.0
C20 C 0.41272 0.75356 0.9259 0.0
C21 C 0.43305 0.75822 0.83944 0.0
C22 C 0.44726 0.79383 0.90096 0.0
C23 C 0.42668 0.78887 0.9904 0.0
O24 O 0.45095 0.83468 0.12336 0.0
O25 O 0.41782 0.83685 0.09508 0.0
O26 O 0.41396 0.80125 0.99095 0.0
O27 O 0.4474 0.79969 1.01924 0.0
H28 H 0.38752 0.78936 0.11781 0.0
H29 H 0.36099 0.75872 0.18366 0.0
H30 H 0.41062 0.80578 0.30912 0.0
H31 H 0.43646 0.83683 0.24299 0.0
H32 H 0.48273 0.94712 0.06737 0.0
H33 H 0.46171 0.90135 0.0584 0.0
H34 H 0.53389 0.95327 0.93997 0.0
H35 H 0.51244 0.90776 0.93054 0.0
H36 H 0.46345 0.79565 0.82375 0.0
H37 H 0.4021 0.72368 0.86904 0.0
H38 H 0.39854 0.74166 0.95429 0.0
H39 H 0.45993 0.8134 0.90978 0.0
C40 C 0.62815 0.39774 0.51884 0.0
C41 C 0.64355 0.38673 0.50958 0.0
C42 C 0.63159 0.36627 0.59585 0.0
C43 C 0.6453 0.37117 0.54783 0.0
C44 C 0.61626 0.37747 0.60475 0.0
C45 C 0.61458 0.39303 0.56662 0.0
U46 U 0.64079 0.42773 0.38093 0.0
O47 O 0.61563 0.43466 0.32939 0.0
O48 O 0.6508 0.46626 0.35927 0.0
C49 C 0.62938 0.45912 0.33393 0.0
C50 C 0.62594 0.41414 0.47936 0.0
C51 C 0.61589 0.47333 0.34684 0.0
C52 C 0.57822 0.47543 0.37474 0.0
C53 C 0.59071 0.46151 0.36496 0.0
C54 C 0.61589 0.51318 0.34918 0.0
C55 C 0.59067 0.50145 0.36697 0.0
C56 C 0.62829 0.49927 0.33907 0.0
C57 C 0.67861 0.41282 0.27702 0.0
C58 C 0.68922 0.43196 0.18977 0.0
C59 C 0.70065 0.40031 0.21232 0.0
C60 C 0.68984 0.39817 0.26278 0.0
C61 C 0.70045 0.41721 0.17508 0.0
C62 C 0.67839 0.42977 0.24028 0.0
C63 C 0.66712 0.41006 0.33012 0.0
O64 O 0.64707 0.43435 0.46725 0.0
O65 O 0.61189 0.40276 0.43752 0.0
O66 O 0.64229 0.39848 0.33117 0.0
O67 O 0.67739 0.43006 0.3611 0.0
H68 H 0.65413 0.39012 0.47276 0.0
H69 H 0.65708 0.36266 0.53944 0.0
H70 H 0.60574 0.37442 0.64153 0.0
H71 H 0.60267 0.40144 0.5745 0.0
H72 H 0.55888 0.46586 0.38892 0.0
H73 H 0.58062 0.44153 0.37142 0.0
H74 H 0.62594 0.53312 0.34215 0.0
H75 H 0.64761 0.50879 0.32472 0.0
H76 H 0.68898 0.44536 0.16237 0.0
H77 H 0.70875 0.38839 0.20218 0.0
H78 H 0.69011 0.38492 0.29061 0.0
H79 H 0.66982 0.44127 0.25068 0.0
C80 C 0.25893 0.66393 0.5636 0.0
C81 C 0.28234 0.683 0.58204 0.0
C82 C 0.29505 0.69733 0.49114 0.0
C83 C 0.30019 0.69962 0.54615 0.0
C84 C 0.2718 0.67781 0.47284 0.0
C85 C 0.2539 0.66132 0.50878 0.0
U86 U 0.2392 0.63064 0.69723 0.0
O87 O 0.20779 0.62438 0.75065 0.0
O88 O 0.20967 0.59221 0.71543 0.0
C89 C 0.19634 0.59997 0.74374 0.0
C90 C 0.23944 0.64689 0.60089 0.0
C91 C 0.16907 0.58796 0.73173 0.0
C92 C 0.13296 0.58824 0.69026 0.0
C93 C 0.15914 0.59903 0.6976 0.0
C94 C 0.12641 0.55473 0.7495 0.0
C95 C 0.11624 0.5661 0.71665 0.0
C96 C 0.15254 0.56558 0.757 0.0
C97 C 0.29148 0.64222 0.79905 0.0
C98 C 0.29169 0.61567 0.87011 0.0
C99 C 0.32151 0.66001 0.87206 0.0
C100 C 0.31138 0.66289 0.82446 0.0
C101 C 0.31203 0.63631 0.8952 0.0
C102 C 0.28147 0.6186 0.82258 0.0
C103 C 0.28231 0.64574 0.74722 0.0
O104 O 0.23952 0.62581 0.61007 0.0
O105 O 0.23623 0.65739 0.64425 0.0
O106 O 0.26973 0.65827 0.74844 0.0
O107 O 0.27245 0.6263 0.71456 0.0
H108 H 0.2867 0.68519 0.62421 0.0
H109 H 0.31804 0.71426 0.56143 0.0
H110 H 0.26716 0.67567 0.43083 0.0
H111 H 0.23596 0.64668 0.4938 0.0
H112 H 0.12578 0.59732 0.66419 0.0
H113 H 0.17157 0.61625 0.67742 0.0
H114 H 0.11413 0.53786 0.77092 0.0
H115 H 0.15983 0.55678 0.78357 0.0
H116 H 0.28406 0.5971 0.88639 0.0
H117 H 0.33682 0.67641 0.89065 0.0
H118 H 0.31933 0.68129 0.80711 0.0
H119 H 0.26606 0.60233 0.80383 0.0
C120 C 0.61625 0.23532 0.89915 0.0
C121 C 0.63502 0.26057 0.89901 0.0
C122 C 0.61588 0.26784 0.82076 0.0
C123 C 0.63491 0.27668 0.85997 0.0
C124 C 0.59725 0.24248 0.82109 0.0
C125 C 0.59746 0.22642 0.85987 0.0
U126 U 0.63465 0.2217 0.03563 0.0
O127 O 0.61166 0.19286 0.09362 0.0
O128 O 0.64508 0.19315 0.05809 0.0
C129 C 0.62513 0.18131 0.08873 0.0
C130 C 0.61567 0.21801 0.94002 0.0
C131 C 0.61071 0.15394 0.08139 0.0
C132 C 0.57831 0.11663 0.0367 0.0
C133 C 0.5923 0.14277 0.04145 0.0
C134 C 0.60125 0.11267 0.11124 0.0
C135 C 0.5825 0.10123 0.07183 0.0
C136 C 0.61516 0.13872 0.11595 0.0
C137 C 0.67694 0.27597 0.12921 0.0
C138 C 0.69324 0.27004 0.21281 0.0
C139 C 0.70201 0.31157 0.1874 0.0
C140 C 0.68818 0.30167 0.14045 0.0
C141 C 0.70488 0.29592 0.22402 0.0
C142 C 0.67936 0.26016 0.16584 0.0
C143 C 0.66314 0.26609 0.07881 0.0
O144 O 0.63714 0.21811 0.94876 0.0
O145 O 0.60343 0.21732 0.98401 0.0
O146 O 0.63837 0.25408 0.08258 0.0
O147 O 0.67197 0.2548 0.04706 0.0
H148 H 0.64964 0.26783 0.92923 0.0
H149 H 0.64938 0.29615 0.86112 0.0
H150 H 0.58253 0.23499 0.79111 0.0
H151 H 0.58286 0.20699 0.85927 0.0
H152 H 0.56391 0.1085 1.00617 0.0
H153 H 0.5886 0.15425 1.01436 0.0
H154 H 0.60535 0.10148 0.13834 0.0
H155 H 0.62937 0.14701 0.14688 0.0
H156 H 0.69481 0.25742 0.24041 0.0
H157 H 0.71097 0.33159 0.19435 0.0
H158 H 0.68653 0.31416 0.11256 0.0
H159 H 0.67068 0.24022 0.1579 0.0
C160 C 0.42044 0.62056 0.21924 0.0
C161 C 0.3989 0.62333 0.22769 0.0
C162 C 0.39659 0.62978 0.13268 0.0
C163 C 0.38701 0.62777 0.18472 0.0
C164 C 0.41822 0.62709 0.12463 0.0
C165 C 0.42997 0.6225 0.16746 0.0
U166 U 0.44156 0.62759 0.36511 0.0
O167 O 0.44252 0.5999 0.41868 0.0
O168 O 0.4777 0.63369 0.39853 0.0
C169 C 0.46732 0.61185 0.42188 0.0
C170 C 0.4333 0.61567 0.26348 0.0
C171 C 0.47977 0.59656 0.4118 0.0
C172 C 0.48902 0.56967 0.354 0.0
C173 C 0.47709 0.58418 0.36276 0.0
C174 C 0.50654 0.57991 0.44308 0.0
C175 C 0.50392 0.56736 0.39407 0.0
C176 C 0.49456 0.59435 0.45181 0.0
C177 C 0.42327 0.66642 0.46077 0.0
C178 C 0.43814 0.67846 0.55188 0.0
C179 C 0.40519 0.68617 0.51783 0.0
C180 C 0.40635 0.67569 0.46871 0.0
C181 C 0.42099 0.68762 0.56012 0.0
C182 C 0.43922 0.66786 0.50261 0.0
C183 C 0.42382 0.65542 0.4085 0.0
O184 O 0.45389 0.63514 0.28141 0.0
O185 O 0.4187 0.6013 0.30163 0.0
O186 O 0.41066 0.63092 0.40473 0.0
O187 O 0.44598 0.6647 0.38497 0.0
H188 H 0.3913 0.62208 0.26744 0.0
H189 H 0.37054 0.63 0.19233 0.0
H190 H 0.42591 0.62822 0.08503 0.0
H191 H 0.44654 0.6204 0.16009 0.0
H192 H 0.48683 0.56053 0.31559 0.0
H193 H 0.46581 0.58578 0.33128 0.0
H194 H 0.51757 0.5783 0.47505 0.0
H195 H 0.4968 0.60374 0.48995 0.0
H196 H 0.45041 0.67911 0.58378 0.0
H197 H 0.39204 0.69336 0.52252 0.0
H198 H 0.39398 0.67483 0.43679 0.0
H199 H 0.45238 0.66072 0.4972 0.0
C200 C 0.82326 0.40013 0.55743 0.0
C201 C 0.79787 0.39415 0.56399 0.0
C202 C 0.7875 0.37339 0.4768 0.0
C203 C 0.78015 0.38095 0.52395 0.0
C204 C 0.81292 0.37915 0.47096 0.0
C205 C 0.8306 0.39241 0.51088 0.0
U206 U 0.84208 0.42772 0.69831 0.0
O207 O 0.87262 0.43074 0.75007 0.0
O208 O 0.87236 0.46477 0.72429 0.0
C209 C 0.88487 0.45532 0.74886 0.0
C210 C 0.84238 0.41471 0.59815 0.0
C211 C 0.91215 0.46702 0.73711 0.0
C212 C 0.94779 0.46803 0.68918 0.0
C213 C 0.92166 0.45725 0.69765 0.0
C214 C 0.9551 0.49887 0.75838 0.0
C215 C 0.96484 0.48887 0.71975 0.0
C216 C 0.92903 0.48801 0.76697 0.0
C217 C 0.79001 0.41529 0.80118 0.0
C218 C 0.79847 0.43094 0.89254 0.0
C219 C 0.75532 0.40445 0.86328 0.0
C220 C 0.76407 0.40292 0.81236 0.0
C221 C 0.77239 0.41842 0.90413 0.0
C222 C 0.8072 0.42938 0.84149 0.0
C223 C 0.79869 0.41282 0.7476 0.0
O224 O 0.8435 0.43595 0.61304 0.0
O225 O 0.8438 0.40188 0.63827 0.0
O226 O 0.81027 0.39937 0.74437 0.0
O227 O 0.80984 0.43345 0.71979 0.0
H228 H 0.79182 0.39984 0.59988 0.0
H229 H 0.76069 0.37658 0.52999 0.0
H230 H 0.81931 0.37393 0.43495 0.0
H231 H 0.85012 0.39688 0.50512 0.0
H232 H 0.95464 0.46005 0.65871 0.0
H233 H 0.90893 0.44114 0.67385 0.0
H234 H 0.96765 0.51468 0.78308 0.0
H235 H 0.92206 0.49581 0.79762 0.0
H236 H 0.81212 0.44207 0.92284 0.0
H237 H 0.73519 0.39424 0.87088 0.0
H238 H 0.75055 0.39186 0.78176 0.0
H239 H 0.82733 0.43907 0.83349 0.0
H240 H 0.5223 0.98333 0.09419 0.0
H241 H 0.52584 0.98743 0.92263 0.0
H242 H 0.54814 0.033 0.92825 0.0
H243 H 0.56775 0.07186 0.98175 0.0
H244 H 0.56319 0.06782 0.15326 0.0
H245 H 0.5402 1.02224 0.14765 0.0
C246 C 0.52766 0.99416 0.058 0.0
C247 C 0.52252 0.98183 1.00808 0.0
C248 C 0.54046 1.02048 0.06145 0.0
C249 C 0.52992 0.99632 0.96165 0.0
C250 C 0.54257 1.02244 0.96478 0.0
C251 C 0.56146 0.06105 1.01791 0.0
C252 C 0.56743 0.07339 0.06785 0.0
C253 C 0.54812 0.03475 1.01446 0.0
C254 C 0.55933 0.05892 0.11426 0.0
C255 C 0.54602 0.0328 0.11112 0.0
H256 H 0.55163 0.57832 0.42311 0.0
H257 H 0.48476 0.52153 0.34445 0.0
H258 H 0.50544 0.49609 0.32961 0.0
H259 H 0.54265 0.48997 0.33873 0.0
H260 H 0.60929 0.54669 0.41818 0.0
H261 H 0.58852 0.572 0.43323 0.0
C262 C 0.54147 0.56027 0.40316 0.0
C263 C 0.51663 0.5519 0.38497 0.0
C264 C 0.55345 0.54569 0.39487 0.0
C265 C 0.50397 0.52863 0.35833 0.0
C266 C 0.51574 0.51397 0.35011 0.0
C267 C 0.55253 0.50776 0.35978 0.0
C268 C 0.57753 0.5164 0.37722 0.0
C269 C 0.54048 0.5223 0.3682 0.0
C270 C 0.59017 0.53969 0.40377 0.0
C271 C 0.57826 0.55415 0.4126 0.0
H272 H 0.0802 0.51705 0.70548 0.0
H273 H 0.08943 0.59152 0.71857 0.0
H274 H 0.04362 0.57438 0.71783 0.0
H275 H 1.00082 0.53814 0.71799 0.0
H276 H 0.99156 0.46361 0.70694 0.0
H277 H 1.03735 0.48086 0.70208 0.0
C278 C 0.07219 0.52953 0.70822 0.0
C279 C 0.08832 0.55555 0.71229 0.0
C280 C 0.04576 0.51953 0.70822 0.0
C281 C 0.07755 0.57145 0.71486 0.0
C282 C 0.05131 0.56165 0.71483 0.0
C283 C 1.00882 0.52566 0.7146 0.0
C284 C 0.9927 0.49959 0.71312 0.0
C285 C 1.03523 0.53571 0.71224 0.0
C286 C 1.00343 0.48374 0.70771 0.0
C287 C 1.02966 0.49359 0.70529 0.0
H288 H 0.37059 0.78859 0.35139 0.0
H289 H 0.3598 0.72848 0.24349 0.0
H290 H 0.33175 0.69787 0.30763 0.0
H291 H 0.30978 0.68803 0.39416 0.0
H292 H 0.3215 0.74814 0.50274 0.0
H293 H 0.35024 0.77875 0.43923 0.0
C294 C 0.36244 0.76881 0.34207 0.0
C295 C 0.36728 0.76099 0.29226 0.0
C296 C 0.34653 0.75122 0.37946 0.0
C297 C 0.35612 0.73517 0.28091 0.0
C298 C 0.34017 0.71759 0.31779 0.0
C299 C 0.31859 0.70784 0.40384 0.0
C300 C 0.31342 0.71575 0.45313 0.0
C301 C 0.33508 0.72539 0.36703 0.0
C302 C 0.32531 0.74149 0.46536 0.0
C303 C 0.34163 0.75904 0.4289 0.0
H304 H 0.593 0.33065 0.65359 0.0
H305 H 0.67355 0.3641 0.62946 0.0
H306 H 0.67595 0.33687 0.69691 0.0
H307 H 0.65506 0.30347 0.76317 0.0
H308 H 0.57455 0.27067 0.78736 0.0
H309 H 0.57232 0.29783 0.71989 0.0
C310 C 0.61114 0.33217 0.66339 0.0
C311 C 0.63306 0.34948 0.6365 0.0
C312 C 0.6124 0.31653 0.70232 0.0
C313 C 0.65632 0.35079 0.64907 0.0
C314 C 0.65773 0.33532 0.68791 0.0
C315 C 0.63708 0.30242 0.75395 0.0
C316 C 0.61499 0.28496 0.78024 0.0
C317 C 0.63589 0.31813 0.71488 0.0
C318 C 0.59179 0.28367 0.76729 0.0
C319 C 0.5905 0.29928 0.72885 0.0
H320 H 0.34611 0.60857 0.11072 0.0
H321 H 0.41947 0.66219 0.05122 0.0
H322 H 0.39984 0.66911 0.97338 0.0
H323 H 0.36211 0.659 0.92068 0.0
H324 H 0.28848 0.6061 0.98047 0.0
H325 H 0.30798 0.59973 0.05937 0.0
C326 C 0.35777 0.62197 0.08101 0.0
C327 C 0.38426 0.63472 0.08672 0.0
C328 C 0.34634 0.62586 0.03613 0.0
C329 C 0.39909 0.65183 0.04748 0.0
C330 C 0.38787 0.65588 1.00302 0.0
C331 C 0.35023 0.64634 0.95126 0.0
C332 C 0.32381 0.63305 0.94436 0.0
C333 C 0.36154 0.64286 0.9967 0.0
C334 C 0.30887 0.61635 0.98417 0.0
C335 C 0.32 0.6128 0.02955 0.0
H336 H 0.78223 0.33365 0.41632 0.0
H337 H 0.75115 0.38355 0.43891 0.0
H338 H 0.72221 0.36342 0.3644 0.0
H339 H 0.70678 0.33263 0.29062 0.0
H340 H 0.73874 0.28351 0.26677 0.0
H341 H 0.76614 0.30226 0.34395 0.0
C342 C 0.7692 0.34019 0.40483 0.0
C343 C 0.76899 0.36019 0.43313 0.0
C344 C 0.75273 0.32865 0.36165 0.0
C345 C 0.7516 0.36807 0.41825 0.0
C346 C 0.73514 0.35667 0.37537 0.0
C347 C 0.71981 0.32608 0.30216 0.0
C348 C 0.72069 0.3067 0.27269 0.0
C349 C 0.73571 0.33711 0.34643 0.0
C350 C 0.7374 0.29818 0.28893 0.0
C351 C 0.75323 0.30902 0.33291 0.0
H352 H 0.45962 0.72003 0.62457 0.0
H353 H 0.37823 0.67945 0.61359 0.0
H354 H 0.37483 0.69783 0.69817 0.0
H355 H 0.39482 0.72567 0.77494 0.0
H356 H 0.47616 0.76596 0.78716 0.0
H357 H 0.47969 0.7476 0.70245 0.0
C358 C 0.44115 0.71504 0.64096 0.0
C359 C 0.41923 0.69842 0.6126 0.0
C360 C 0.43929 0.72574 0.68974 0.0
C361 C 0.39543 0.69242 0.63414 0.0
C362 C 0.39345 0.70285 0.68267 0.0
C363 C 0.41334 0.73028 0.75936 0.0
C364 C 0.43518 0.74719 0.78752 0.0
C365 C 0.41523 0.71958 0.71074 0.0
C366 C 0.45902 0.75326 0.76611 0.0
C367 C 0.46106 0.74263 0.71779 0.0
H368 H 0.73093 0.42286 0.93175 0.0
H369 H 0.79262 0.41599 0.99968 0.0
H370 H 0.77639 0.4159 0.0891 0.0
H371 H 0.74404 0.41657 0.14809 0.0
H372 H 0.68153 0.42188 0.07979 0.0
H373 H 0.69875 0.42379 0.99068 0.0
C374 C 0.74076 0.42118 0.96607 0.0
C375 C 0.76296 0.41936 0.95877 0.0
C376 C 0.73117 0.42085 1.01745 0.0
C377 C 0.77568 0.4177 1.00393 0.0
C378 C 0.76631 0.41747 0.05517 0.0
C379 C 0.73407 0.41798 0.11371 0.0
C380 C 0.71145 0.41903 0.12086 0.0
C381 C 0.74396 0.41883 0.06239 0.0
C382 C 0.6991 0.42133 0.07574 0.0
C383 C 0.70886 0.42226 1.02464 0.0
loop_
_geom_bond_atom_site_label_1
_geom_bond_atom_site_label_2
_geom_bond_distance
_geom_bond_site_symmetry_2
_ccdc_geom_bond_type
C0 C1 1.264 . S
C0 C5 1.479 . S
C0 C10 1.465 . S
C1 C0 1.264 . S
C1 C3 1.339 . S
C1 H28 0.931 . S
C2 C3 1.395 . S
C2 C4 1.320 . S
C3 C1 1.339 . S
C3 C2 1.395 . S
C3 H29 0.929 . S
C4 C2 1.320 . S
C4 C5 1.405 . S
C4 H30 0.930 . S
C5 C0 1.479 . S
C5 C4 1.405 . S
C5 H31 0.931 . S
U6 O7 2.454 . S
U6 O8 2.458 1_554 S
U6 C9 2.984 . S
U6 C10 2.847 . S
U6 C23 2.882 1_554 S
U6 O24 2.441 . S
U6 O25 2.420 . S
U6 O26 2.455 1_554 S
U6 O27 2.449 1_554 S
O7 U6 2.454 . S
O7 C9 1.353 . S
O8 U6 2.458 1_556 S
O8 C9 1.286 1_556 S
C9 U6 2.984 . S
C9 O7 1.353 . S
C9 O8 1.286 1_554 S
C9 C11 1.363 . S
C10 C0 1.465 . S
C10 U6 2.847 . S
C10 O24 1.249 . S
C10 O25 1.202 . S
C11 C9 1.363 . S
C11 C13 1.408 . S
C11 C16 1.342 1_554 S
C12 C13 1.310 . S
C12 C15 1.461 . S
C12 H32 0.932 . S
C13 C11 1.408 . S
C13 C12 1.310 . S
C13 H33 0.930 . S
C14 C15 1.474 1_556 S
C14 C16 1.285 . S
C14 H34 0.929 . S
C15 C12 1.461 . S
C15 C14 1.474 1_554 S
C16 C11 1.342 1_556 S
C16 C14 1.285 . S
C16 H35 0.930 . S
C17 C20 1.424 . S
C17 C22 1.245 . S
C17 C23 1.428 . S
C18 C21 1.260 . S
C18 C22 1.477 . S
C18 H36 0.932 . S
C19 C20 1.384 . S
C19 C21 1.479 . S
C19 H37 0.929 . S
C20 C17 1.424 . S
C20 C19 1.384 . S
C20 H38 0.928 . S
C21 C18 1.260 . S
C21 C19 1.479 . S
C22 C17 1.245 . S
C22 C18 1.477 . S
C22 H39 0.932 . S
C23 U6 2.882 1_556 S
C23 C17 1.428 . S
C23 O26 1.301 . S
C23 O27 1.282 . S
O24 U6 2.441 . S
O24 C10 1.249 . S
O25 U6 2.420 . S
O25 C10 1.202 . S
O26 U6 2.455 1_556 S
O26 C23 1.301 . S
O27 U6 2.449 1_556 S
O27 C23 1.282 . S
H28 C1 0.931 . S
H29 C3 0.929 . S
H30 C4 0.930 . S
H31 C5 0.931 . S
H32 C12 0.932 . S
H33 C13 0.930 . S
H34 C14 0.929 . S
H35 C16 0.930 . S
H36 C18 0.932 . S
H37 C19 0.929 . S
H38 C20 0.928 . S
H39 C22 0.932 . S
C40 C41 1.264 . S
C40 C45 1.479 . S
C40 C50 1.465 . S
C41 C40 1.264 . S
C41 C43 1.339 . S
C41 H68 0.931 . S
C42 C43 1.395 . S
C42 C44 1.320 . S
C43 C41 1.339 . S
C43 C42 1.395 . S
C43 H69 0.929 . S
C44 C42 1.320 . S
C44 C45 1.405 . S
C44 H70 0.930 . S
C45 C40 1.479 . S
C45 C44 1.405 . S
C45 H71 0.931 . S
U46 O47 2.454 . S
U46 O48 2.458 . S
U46 C49 2.984 . S
U46 C50 2.847 . S
U46 C63 2.882 . S
U46 O64 2.441 . S
U46 O65 2.420 . S
U46 O66 2.455 . S
U46 O67 2.449 . S
O47 U46 2.454 . S
O47 C49 1.353 . S
O48 U46 2.458 . S
O48 C49 1.286 . S
C49 U46 2.984 . S
C49 O47 1.353 . S
C49 O48 1.286 . S
C49 C51 1.363 . S
C50 C40 1.465 . S
C50 U46 2.847 . S
C50 O64 1.249 . S
C50 O65 1.202 . S
C51 C49 1.363 . S
C51 C53 1.408 . S
C51 C56 1.342 . S
C52 C53 1.310 . S
C52 C55 1.461 . S
C52 H72 0.932 . S
C53 C51 1.408 . S
C53 C52 1.310 . S
C53 H73 0.930 . S
C54 C55 1.474 . S
C54 C56 1.285 . S
C54 H74 0.929 . S
C55 C52 1.461 . S
C55 C54 1.474 . S
C56 C51 1.342 . S
C56 C54 1.285 . S
C56 H75 0.930 . S
C57 C60 1.424 . S
C57 C62 1.245 . S
C57 C63 1.428 . S
C58 C61 1.260 . S
C58 C62 1.477 . S
C58 H76 0.932 . S
C59 C60 1.384 . S
C59 C61 1.479 . S
C59 H77 0.929 . S
C60 C57 1.424 . S
C60 C59 1.384 . S
C60 H78 0.928 . S
C61 C58 1.260 . S
C61 C59 1.479 . S
C62 C57 1.245 . S
C62 C58 1.477 . S
C62 H79 0.932 . S
C63 U46 2.882 . S
C63 C57 1.428 . S
C63 O66 1.301 . S
C63 O67 1.282 . S
O64 U46 2.441 . S
O64 C50 1.249 . S
O65 U46 2.420 . S
O65 C50 1.202 . S
O66 U46 2.455 . S
O66 C63 1.301 . S
O67 U46 2.449 . S
O67 C63 1.282 . S
H68 C41 0.931 . S
H69 C43 0.929 . S
H70 C44 0.930 . S
H71 C45 0.931 . S
H72 C52 0.932 . S
H73 C53 0.930 . S
H74 C54 0.929 . S
H75 C56 0.930 . S
H76 C58 0.932 . S
H77 C59 0.929 . S
H78 C60 0.928 . S
H79 C62 0.932 . S
C80 C81 1.264 . S
C80 C85 1.479 . S
C80 C90 1.465 . S
C81 C80 1.264 . S
C81 C83 1.339 . S
C81 H108 0.931 . S
C82 C83 1.395 . S
C82 C84 1.320 . S
C83 C81 1.339 . S
C83 C82 1.395 . S
C83 H109 0.929 . S
C84 C82 1.320 . S
C84 C85 1.405 . S
C84 H110 0.930 . S
C85 C80 1.479 . S
C85 C84 1.405 . S
C85 H111 0.931 . S
U86 O87 2.454 . S
U86 O88 2.458 . S
U86 C89 2.984 . S
U86 C90 2.847 . S
U86 C103 2.882 . S
U86 O104 2.441 . S
U86 O105 2.420 . S
U86 O106 2.455 . S
U86 O107 2.449 . S
O87 U86 2.454 . S
O87 C89 1.353 . S
O88 U86 2.458 . S
O88 C89 1.286 . S
C89 U86 2.984 . S
C89 O87 1.353 . S
C89 O88 1.286 . S
C89 C91 1.363 . S
C90 C80 1.465 . S
C90 U86 2.847 . S
C90 O104 1.249 . S
C90 O105 1.202 . S
C91 C89 1.363 . S
C91 C93 1.408 . S
C91 C96 1.342 . S
C92 C93 1.310 . S
C92 C95 1.461 . S
C92 H112 0.932 . S
C93 C91 1.408 . S
C93 C92 1.310 . S
C93 H113 0.930 . S
C94 C95 1.474 . S
C94 C96 1.285 . S
C94 H114 0.929 . S
C95 C92 1.461 . S
C95 C94 1.474 . S
C96 C91 1.342 . S
C96 C94 1.285 . S
C96 H115 0.930 . S
C97 C100 1.424 . S
C97 C102 1.245 . S
C97 C103 1.428 . S
C98 C101 1.260 . S
C98 C102 1.477 . S
C98 H116 0.932 . S
C99 C100 1.384 . S
C99 C101 1.479 . S
C99 H117 0.929 . S
C100 C97 1.424 . S
C100 C99 1.384 . S
C100 H118 0.928 . S
C101 C98 1.260 . S
C101 C99 1.479 . S
C102 C97 1.245 . S
C102 C98 1.477 . S
C102 H119 0.932 . S
C103 U86 2.882 . S
C103 C97 1.428 . S
C103 O106 1.301 . S
C103 O107 1.282 . S
O104 U86 2.441 . S
O104 C90 1.249 . S
O105 U86 2.420 . S
O105 C90 1.202 . S
O106 U86 2.455 . S
O106 C103 1.301 . S
O107 U86 2.449 . S
O107 C103 1.282 . S
H108 C81 0.931 . S
H109 C83 0.929 . S
H110 C84 0.930 . S
H111 C85 0.931 . S
H112 C92 0.932 . S
H113 C93 0.930 . S
H114 C94 0.929 . S
H115 C96 0.930 . S
H116 C98 0.932 . S
H117 C99 0.929 . S
H118 C100 0.928 . S
H119 C102 0.932 . S
C120 C121 1.264 . S
C120 C125 1.479 . S
C120 C130 1.465 . S
C121 C120 1.264 . S
C121 C123 1.339 . S
C121 H148 0.931 . S
C122 C123 1.395 . S
C122 C124 1.320 . S
C123 C121 1.339 . S
C123 C122 1.395 . S
C123 H149 0.929 . S
C124 C122 1.320 . S
C124 C125 1.405 . S
C124 H150 0.930 . S
C125 C120 1.479 . S
C125 C124 1.405 . S
C125 H151 0.931 . S
U126 O127 2.454 1_554 S
U126 O128 2.458 . S
U126 C129 2.984 . S
U126 C130 2.847 1_554 S
U126 C143 2.882 . S
U126 O144 2.441 1_554 S
U126 O145 2.420 1_554 S
U126 O146 2.455 . S
U126 O147 2.449 . S
O127 U126 2.454 1_556 S
O127 C129 1.353 1_556 S
O128 U126 2.458 . S
O128 C129 1.286 . S
C129 U126 2.984 . S
C129 O127 1.353 1_554 S
C129 O128 1.286 . S
C129 C131 1.363 . S
C130 C120 1.465 . S
C130 U126 2.847 1_556 S
C130 O144 1.249 . S
C130 O145 1.202 . S
C131 C129 1.363 . S
C131 C133 1.408 1_554 S
C131 C136 1.342 . S
C132 C133 1.310 . S
C132 C135 1.461 1_556 S
C132 H152 0.932 . S
C133 C131 1.408 1_556 S
C133 C132 1.310 . S
C133 H153 0.930 . S
C134 C135 1.474 . S
C134 C136 1.285 . S
C134 H154 0.929 . S
C135 C132 1.461 1_554 S
C135 C134 1.474 . S
C136 C131 1.342 . S
C136 C134 1.285 . S
C136 H155 0.930 . S
C137 C140 1.424 . S
C137 C142 1.245 . S
C137 C143 1.428 . S
C138 C141 1.260 . S
C138 C142 1.477 . S
C138 H156 0.932 . S
C139 C140 1.384 . S
C139 C141 1.479 . S
C139 H157 0.929 . S
C140 C137 1.424 . S
C140 C139 1.384 . S
C140 H158 0.928 . S
C141 C138 1.260 . S
C141 C139 1.479 . S
C142 C137 1.245 . S
C142 C138 1.477 . S
C142 H159 0.932 . S
C143 U126 2.882 . S
C143 C137 1.428 . S
C143 O146 1.301 . S
C143 O147 1.282 . S
O144 U126 2.441 1_556 S
O144 C130 1.249 . S
O145 U126 2.420 1_556 S
O145 C130 1.202 . S
O146 U126 2.455 . S
O146 C143 1.301 . S
O147 U126 2.449 . S
O147 C143 1.282 . S
H148 C121 0.931 . S
H149 C123 0.929 . S
H150 C124 0.930 . S
H151 C125 0.931 . S
H152 C132 0.932 . S
H153 C133 0.930 . S
H154 C134 0.929 . S
H155 C136 0.930 . S
H156 C138 0.932 . S
H157 C139 0.929 . S
H158 C140 0.928 . S
H159 C142 0.932 . S
C160 C161 1.264 . S
C160 C165 1.479 . S
C160 C170 1.465 . S
C161 C160 1.264 . S
C161 C163 1.339 . S
C161 H188 0.931 . S
C162 C163 1.395 . S
C162 C164 1.320 . S
C163 C161 1.339 . S
C163 C162 1.395 . S
C163 H189 0.929 . S
C164 C162 1.320 . S
C164 C165 1.405 . S
C164 H190 0.930 . S
C165 C160 1.479 . S
C165 C164 1.405 . S
C165 H191 0.931 . S
U166 O167 2.454 . S
U166 O168 2.458 . S
U166 C169 2.984 . S
U166 C170 2.847 . S
U166 C183 2.882 . S
U166 O184 2.441 . S
U166 O185 2.420 . S
U166 O186 2.455 . S
U166 O187 2.449 . S
O167 U166 2.454 . S
O167 C169 1.353 . S
O168 U166 2.458 . S
O168 C169 1.286 . S
C169 U166 2.984 . S
C169 O167 1.353 . S
C169 O168 1.286 . S
C169 C171 1.363 . S
C170 C160 1.465 . S
C170 U166 2.847 . S
C170 O184 1.249 . S
C170 O185 1.202 . S
C171 C169 1.363 . S
C171 C173 1.408 . S
C171 C176 1.342 . S
C172 C173 1.310 . S
C172 C175 1.461 . S
C172 H192 0.932 . S
C173 C171 1.408 . S
C173 C172 1.310 . S
C173 H193 0.930 . S
C174 C175 1.474 . S
C174 C176 1.285 . S
C174 H194 0.929 . S
C175 C172 1.461 . S
C175 C174 1.474 . S
C176 C171 1.342 . S
C176 C174 1.285 . S
C176 H195 0.930 . S
C177 C180 1.424 . S
C177 C182 1.245 . S
C177 C183 1.428 . S
C178 C181 1.260 . S
C178 C182 1.477 . S
C178 H196 0.932 . S
C179 C180 1.384 . S
C179 C181 1.479 . S
C179 H197 0.929 . S
C180 C177 1.424 . S
C180 C179 1.384 . S
C180 H198 0.928 . S
C181 C178 1.260 . S
C181 C179 1.479 . S
C182 C177 1.245 . S
C182 C178 1.477 . S
C182 H199 0.932 . S
C183 U166 2.882 . S
C183 C177 1.428 . S
C183 O186 1.301 . S
C183 O187 1.282 . S
O184 U166 2.441 . S
O184 C170 1.249 . S
O185 U166 2.420 . S
O185 C170 1.202 . S
O186 U166 2.455 . S
O186 C183 1.301 . S
O187 U166 2.449 . S
O187 C183 1.282 . S
H188 C161 0.931 . S
H189 C163 0.929 . S
H190 C164 0.930 . S
H191 C165 0.931 . S
H192 C172 0.932 . S
H193 C173 0.930 . S
H194 C174 0.929 . S
H195 C176 0.930 . S
H196 C178 0.932 . S
H197 C179 0.929 . S
H198 C180 0.928 . S
H199 C182 0.932 . S
C200 C201 1.264 . S
C200 C205 1.479 . S
C200 C210 1.465 . S
C201 C200 1.264 . S
C201 C203 1.339 . S
C201 H228 0.931 . S
C202 C203 1.395 . S
C202 C204 1.320 . S
C203 C201 1.339 . S
C203 C202 1.395 . S
C203 H229 0.929 . S
C204 C202 1.320 . S
C204 C205 1.405 . S
C204 H230 0.930 . S
C205 C200 1.479 . S
C205 C204 1.405 . S
C205 H231 0.931 . S
U206 O207 2.454 . S
U206 O208 2.458 . S
U206 C209 2.984 . S
U206 C210 2.847 . S
U206 C223 2.882 . S
U206 O224 2.441 . S
U206 O225 2.420 . S
U206 O226 2.455 . S
U206 O227 2.449 . S
O207 U206 2.454 . S
O207 C209 1.353 . S
O208 U206 2.458 . S
O208 C209 1.286 . S
C209 U206 2.984 . S
C209 O207 1.353 . S
C209 O208 1.286 . S
C209 C211 1.363 . S
C210 C200 1.465 . S
C210 U206 2.847 . S
C210 O224 1.249 . S
C210 O225 1.202 . S
C211 C209 1.363 . S
C211 C213 1.408 . S
C211 C216 1.342 . S
C212 C213 1.310 . S
C212 C215 1.461 . S
C212 H232 0.932 . S
C213 C211 1.408 . S
C213 C212 1.310 . S
C213 H233 0.930 . S
C214 C215 1.474 . S
C214 C216 1.285 . S
C214 H234 0.929 . S
C215 C212 1.461 . S
C215 C214 1.474 . S
C216 C211 1.342 . S
C216 C214 1.285 . S
C216 H235 0.930 . S
C217 C220 1.424 . S
C217 C222 1.245 . S
C217 C223 1.428 . S
C218 C221 1.260 . S
C218 C222 1.477 . S
C218 H236 0.932 . S
C219 C220 1.384 . S
C219 C221 1.479 . S
C219 H237 0.929 . S
C220 C217 1.424 . S
C220 C219 1.384 . S
C220 H238 0.928 . S
C221 C218 1.260 . S
C221 C219 1.479 . S
C222 C217 1.245 . S
C222 C218 1.477 . S
C222 H239 0.932 . S
C223 U206 2.882 . S
C223 C217 1.428 . S
C223 O226 1.301 . S
C223 O227 1.282 . S
O224 U206 2.441 . S
O224 C210 1.249 . S
O225 U206 2.420 . S
O225 C210 1.202 . S
O226 U206 2.455 . S
O226 C223 1.301 . S
O227 U206 2.449 . S
O227 C223 1.282 . S
H228 C201 0.931 . S
H229 C203 0.929 . S
H230 C204 0.930 . S
H231 C205 0.931 . S
H232 C212 0.932 . S
H233 C213 0.930 . S
H234 C214 0.929 . S
H235 C216 0.930 . S
H236 C218 0.932 . S
H237 C219 0.929 . S
H238 C220 0.928 . S
H239 C222 0.932 . S
H240 C246 0.930 . S
H241 C249 0.930 . S
H242 C250 0.930 . S
H243 C251 0.930 . S
H244 C254 0.930 . S
H245 C255 0.930 . S
C246 H240 0.930 . S
C246 C247 1.355 . S
C246 C248 1.415 . S
C247 C246 1.355 . S
C247 C249 1.419 1_554 S
C248 C246 1.415 . S
C248 C253 1.425 1_564 S
C248 C255 1.409 1_565 S
C249 H241 0.930 . S
C249 C247 1.419 1_556 S
C249 C250 1.362 . S
C250 H242 0.930 . S
C250 C249 1.362 . S
C250 C253 1.409 1_565 S
C251 H243 0.930 . S
C251 C252 1.355 1_556 S
C251 C253 1.415 . S
C252 C251 1.355 1_554 S
C252 C254 1.419 . S
C253 C248 1.425 1_546 S
C253 C250 1.409 1_545 S
C253 C251 1.415 . S
C254 H244 0.930 . S
C254 C252 1.419 . S
C254 C255 1.362 . S
C255 H245 0.930 . S
C255 C248 1.409 1_545 S
C255 C254 1.362 . S
H256 C262 0.930 . S
H257 C265 0.930 . S
H258 C266 0.930 . S
H259 C267 0.930 . S
H260 C270 0.930 . S
H261 C271 0.930 . S
C262 H256 0.930 . S
C262 C263 1.355 . S
C262 C264 1.415 . S
C263 C262 1.355 . S
C263 C265 1.419 . S
C264 C262 1.415 . S
C264 C269 1.425 . S
C264 C271 1.409 . S
C265 H257 0.930 . S
C265 C263 1.419 . S
C265 C266 1.362 . S
C266 H258 0.930 . S
C266 C265 1.362 . S
C266 C269 1.409 . S
C267 H259 0.930 . S
C267 C268 1.355 . S
C267 C269 1.415 . S
C268 C267 1.355 . S
C268 C270 1.419 . S
C269 C264 1.425 . S
C269 C266 1.409 . S
C269 C267 1.415 . S
C270 H260 0.930 . S
C270 C268 1.419 . S
C270 C271 1.362 . S
C271 H261 0.930 . S
C271 C264 1.409 . S
C271 C270 1.362 . S
H272 C278 0.930 . S
H273 C281 0.930 . S
H274 C282 0.930 . S
H275 C283 0.930 . S
H276 C286 0.930 . S
H277 C287 0.930 . S
C278 H272 0.930 . S
C278 C279 1.355 . S
C278 C280 1.415 . S
C279 C278 1.355 . S
C279 C281 1.419 . S
C280 C278 1.415 . S
C280 C285 1.425 1_455 S
C280 C287 1.409 1_455 S
C281 H273 0.930 . S
C281 C279 1.419 . S
C281 C282 1.362 . S
C282 H274 0.930 . S
C282 C281 1.362 . S
C282 C285 1.409 1_455 S
C283 H275 0.930 . S
C283 C284 1.355 . S
C283 C285 1.415 . S
C284 C283 1.355 . S
C284 C286 1.419 . S
C285 C280 1.425 1_655 S
C285 C282 1.409 1_655 S
C285 C283 1.415 . S
C286 H276 0.930 . S
C286 C284 1.419 . S
C286 C287 1.362 . S
C287 H277 0.930 . S
C287 C280 1.409 1_655 S
C287 C286 1.362 . S
H288 C294 0.930 . S
H289 C297 0.930 . S
H290 C298 0.930 . S
H291 C299 0.930 . S
H292 C302 0.930 . S
H293 C303 0.930 . S
C294 H288 0.930 . S
C294 C295 1.355 . S
C294 C296 1.415 . S
C295 C294 1.355 . S
C295 C297 1.419 . S
C296 C294 1.415 . S
C296 C301 1.425 . S
C296 C303 1.409 . S
C297 H289 0.930 . S
C297 C295 1.419 . S
C297 C298 1.362 . S
C298 H290 0.930 . S
C298 C297 1.362 . S
C298 C301 1.409 . S
C299 H291 0.930 . S
C299 C300 1.355 . S
C299 C301 1.415 . S
C300 C299 1.355 . S
C300 C302 1.419 . S
C301 C296 1.425 . S
C301 C298 1.409 . S
C301 C299 1.415 . S
C302 H292 0.930 . S
C302 C300 1.419 . S
C302 C303 1.362 . S
C303 H293 0.930 . S
C303 C296 1.409 . S
C303 C302 1.362 . S
H304 C310 0.930 . S
H305 C313 0.930 . S
H306 C314 0.930 . S
H307 C315 0.930 . S
H308 C318 0.930 . S
H309 C319 0.930 . S
C310 H304 0.930 . S
C310 C311 1.355 . S
C310 C312 1.415 . S
C311 C310 1.355 . S
C311 C313 1.419 . S
C312 C310 1.415 . S
C312 C317 1.425 . S
C312 C319 1.409 . S
C313 H305 0.930 . S
C313 C311 1.419 . S
C313 C314 1.362 . S
C314 H306 0.930 . S
C314 C313 1.362 . S
C314 C317 1.409 . S
C315 H307 0.930 . S
C315 C316 1.355 . S
C315 C317 1.415 . S
C316 C315 1.355 . S
C316 C318 1.419 . S
C317 C312 1.425 . S
C317 C314 1.409 . S
C317 C315 1.415 . S
C318 H308 0.930 . S
C318 C316 1.419 . S
C318 C319 1.362 . S
C319 H309 0.930 . S
C319 C312 1.409 . S
C319 C318 1.362 . S
H320 C326 0.930 . S
H321 C329 0.930 . S
H322 C330 0.930 . S
H323 C331 0.930 . S
H324 C334 0.930 . S
H325 C335 0.930 . S
C326 H320 0.930 . S
C326 C327 1.355 . S
C326 C328 1.415 . S
C327 C326 1.355 . S
C327 C329 1.419 . S
C328 C326 1.415 . S
C328 C333 1.425 1_554 S
C328 C335 1.409 . S
C329 H321 0.930 . S
C329 C327 1.419 . S
C329 C330 1.362 1_554 S
C330 H322 0.930 . S
C330 C329 1.362 1_556 S
C330 C333 1.409 . S
C331 H323 0.930 . S
C331 C332 1.355 . S
C331 C333 1.415 . S
C332 C331 1.355 . S
C332 C334 1.419 . S
C333 C328 1.425 1_556 S
C333 C330 1.409 . S
C333 C331 1.415 . S
C334 H324 0.930 . S
C334 C332 1.419 . S
C334 C335 1.362 1_556 S
C335 H325 0.930 . S
C335 C328 1.409 . S
C335 C334 1.362 1_554 S
H336 C342 0.930 . S
H337 C345 0.930 . S
H338 C346 0.930 . S
H339 C347 0.930 . S
H340 C350 0.930 . S
H341 C351 0.930 . S
C342 H336 0.930 . S
C342 C343 1.355 . S
C342 C344 1.415 . S
C343 C342 1.355 . S
C343 C345 1.419 . S
C344 C342 1.415 . S
C344 C349 1.425 . S
C344 C351 1.409 . S
C345 H337 0.930 . S
C345 C343 1.419 . S
C345 C346 1.362 . S
C346 H338 0.930 . S
C346 C345 1.362 . S
C346 C349 1.409 . S
C347 H339 0.930 . S
C347 C348 1.355 . S
C347 C349 1.415 . S
C348 C347 1.355 . S
C348 C350 1.419 . S
C349 C344 1.425 . S
C349 C346 1.409 . S
C349 C347 1.415 . S
C350 H340 0.930 . S
C350 C348 1.419 . S
C350 C351 1.362 . S
C351 H341 0.930 . S
C351 C344 1.409 . S
C351 C350 1.362 . S
H352 C358 0.930 . S
H353 C361 0.930 . S
H354 C362 0.930 . S
H355 C363 0.930 . S
H356 C366 0.930 . S
H357 C367 0.930 . S
C358 H352 0.930 . S
C358 C359 1.355 . S
C358 C360 1.415 . S
C359 C358 1.355 . S
C359 C361 1.419 . S
C360 C358 1.415 . S
C360 C365 1.425 . S
C360 C367 1.409 . S
C361 H353 0.930 . S
C361 C359 1.419 . S
C361 C362 1.362 . S
C362 H354 0.930 . S
C362 C361 1.362 . S
C362 C365 1.409 . S
C363 H355 0.930 . S
C363 C364 1.355 . S
C363 C365 1.415 . S
C364 C363 1.355 . S
C364 C366 1.419 . S
C365 C360 1.425 . S
C365 C362 1.409 . S
C365 C363 1.415 . S
C366 H356 0.930 . S
C366 C364 1.419 . S
C366 C367 1.362 . S
C367 H357 0.930 . S
C367 C360 1.409 . S
C367 C366 1.362 . S
H368 C374 0.930 . S
H369 C377 0.930 . S
H370 C378 0.930 . S
H371 C379 0.930 . S
H372 C382 0.930 . S
H373 C383 0.930 . S
C374 H368 0.930 . S
C374 C375 1.355 . S
C374 C376 1.415 . S
C375 C374 1.355 . S
C375 C377 1.419 . S
C376 C374 1.415 . S
C376 C381 1.425 1_556 S
C376 C383 1.409 . S
C377 H369 0.930 . S
C377 C375 1.419 . S
C377 C378 1.362 1_556 S
C378 H370 0.930 . S
C378 C377 1.362 1_554 S
C378 C381 1.409 . S
C379 H371 0.930 . S
C379 C380 1.355 . S
C379 C381 1.415 . S
C380 C379 1.355 . S
C380 C382 1.419 . S
C381 C376 1.425 1_554 S
C381 C378 1.409 . S
C381 C379 1.415 . S
C382 H372 0.930 . S
C382 C380 1.419 . S
C382 C383 1.362 1_554 S
C383 H373 0.930 . S
C383 C376 1.409 . S
C383 C382 1.362 1_556 S
C247 C15 1.493 . S
C252 C135 1.494 . S
C263 C175 1.492 . S
C268 C55 1.496 . S
C279 C95 1.501 . S
C284 C215 1.502 . S
C295 C2 1.497 . S
C300 C82 1.470 . S
C311 C42 1.497 . S
C316 C122 1.468 . S
C327 C162 1.484 . S
C332 C101 1.479 . S
C343 C202 1.500 . S
C348 C141 1.493 . S
C359 C181 1.466 . S
C364 C21 1.498 . S
C375 C221 1.489 . S
C380 C61 1.471 . S
