# Generated by pormake.
# Topology usf, (4)-cn, num edge types: 1
# Building blocks:
#     Node 0, Type 0, BuildingBlock: KOZSID_clean_sbu_0, # of connection points: 4
#     Node 1, Type 0, BuildingBlock: KOZSID_clean_sbu_0, # of connection points: 4
#     Node 2, Type 0, BuildingBlock: KOZSID_clean_sbu_0, # of connection points: 4
#     Node 3, Type 0, BuildingBlock: KOZSID_clean_sbu_0, # of connection points: 4
#     Node 4, Type 0, BuildingBlock: KOZSID_clean_sbu_0, # of connection points: 4
#     Node 5, Type 0, BuildingBlock: KOZSID_clean_sbu_0, # of connection points: 4
#     Node 6, Type 0, BuildingBlock: KOZSID_clean_sbu_0, # of connection points: 4
#     Node 7, Type 0, BuildingBlock: KOZSID_clean_sbu_0, # of connection points: 4
#     Node 8, Type 0, BuildingBlock: KOZSID_clean_sbu_0, # of connection points: 4
#     Node 9, Type 0, BuildingBlock: KOZSID_clean_sbu_0, # of connection points: 4
#     Node 10, Type 0, BuildingBlock: KOZSID_clean_sbu_0, # of connection points: 4
#     Node 11, Type 0, BuildingBlock: KOZSID_clean_sbu_0, # of connection points: 4
#     Node 12, Type 0, BuildingBlock: KOZSID_clean_sbu_0, # of connection points: 4
#     Node 13, Type 0, BuildingBlock: KOZSID_clean_sbu_0, # of connection points: 4
#     Node 14, Type 0, BuildingBlock: KOZSID_clean_sbu_0, # of connection points: 4
#     Node 15, Type 0, BuildingBlock: KOZSID_clean_sbu_0, # of connection points: 4
#     Node 16, Type 0, BuildingBlock: KOZSID_clean_sbu_0, # of connection points: 4
#     Node 17, Type 0, BuildingBlock: KOZSID_clean_sbu_0, # of connection points: 4
#     Edge 18, Type (0, 0), BuildingBlock: UVAHIK_clean_linker_0, # of connection points: 2
#     Edge 19, Type (0, 0), BuildingBlock: UVAHIK_clean_linker_0, # of connection points: 2
#     Edge 20, Type (0, 0), BuildingBlock: UVAHIK_clean_linker_0, # of connection points: 2
#     Edge 21, Type (0, 0), BuildingBlock: UVAHIK_clean_linker_0, # of connection points: 2
#     Edge 22, Type (0, 0), BuildingBlock: UVAHIK_clean_linker_0, # of connection points: 2
#     Edge 23, Type (0, 0), BuildingBlock: UVAHIK_clean_linker_0, # of connection points: 2
#     Edge 24, Type (0, 0), BuildingBlock: UVAHIK_clean_linker_0, # of connection points: 2
#     Edge 25, Type (0, 0), BuildingBlock: UVAHIK_clean_linker_0, # of connection points: 2
#     Edge 26, Type (0, 0), BuildingBlock: UVAHIK_clean_linker_0, # of connection points: 2
#     Edge 27, Type (0, 0), BuildingBlock: UVAHIK_clean_linker_0, # of connection points: 2
#     Edge 28, Type (0, 0), BuildingBlock: UVAHIK_clean_linker_0, # of connection points: 2
#     Edge 29, Type (0, 0), BuildingBlock: UVAHIK_clean_linker_0, # of connection points: 2
#     Edge 30, Type (0, 0), BuildingBlock: UVAHIK_clean_linker_0, # of connection points: 2
#     Edge 31, Type (0, 0), BuildingBlock: UVAHIK_clean_linker_0, # of connection points: 2
#     Edge 32, Type (0, 0), BuildingBlock: UVAHIK_clean_linker_0, # of connection points: 2
#     Edge 33, Type (0, 0), BuildingBlock: UVAHIK_clean_linker_0, # of connection points: 2
#     Edge 34, Type (0, 0), BuildingBlock: UVAHIK_clean_linker_0, # of connection points: 2
#     Edge 35, Type (0, 0), BuildingBlock: UVAHIK_clean_linker_0, # of connection points: 2
#     Edge 36, Type (0, 0), BuildingBlock: UVAHIK_clean_linker_0, # of connection points: 2
#     Edge 37, Type (0, 0), BuildingBlock: UVAHIK_clean_linker_0, # of connection points: 2
#     Edge 38, Type (0, 0), BuildingBlock: UVAHIK_clean_linker_0, # of connection points: 2
#     Edge 39, Type (0, 0), BuildingBlock: UVAHIK_clean_linker_0, # of connection points: 2
#     Edge 40, Type (0, 0), BuildingBlock: UVAHIK_clean_linker_0, # of connection points: 2
#     Edge 41, Type (0, 0), BuildingBlock: UVAHIK_clean_linker_0, # of connection points: 2
#     Edge 42, Type (0, 0), BuildingBlock: UVAHIK_clean_linker_0, # of connection points: 2
#     Edge 43, Type (0, 0), BuildingBlock: UVAHIK_clean_linker_0, # of connection points: 2
#     Edge 44, Type (0, 0), BuildingBlock: UVAHIK_clean_linker_0, # of connection points: 2
#     Edge 45, Type (0, 0), BuildingBlock: UVAHIK_clean_linker_0, # of connection points: 2
#     Edge 46, Type (0, 0), BuildingBlock: UVAHIK_clean_linker_0, # of connection points: 2
#     Edge 47, Type (0, 0), BuildingBlock: UVAHIK_clean_linker_0, # of connection points: 2
#     Edge 48, Type (0, 0), BuildingBlock: UVAHIK_clean_linker_0, # of connection points: 2
#     Edge 49, Type (0, 0), BuildingBlock: UVAHIK_clean_linker_0, # of connection points: 2
#     Edge 50, Type (0, 0), BuildingBlock: UVAHIK_clean_linker_0, # of connection points: 2
#     Edge 51, Type (0, 0), BuildingBlock: UVAHIK_clean_linker_0, # of connection points: 2
#     Edge 52, Type (0, 0), BuildingBlock: UVAHIK_clean_linker_0, # of connection points: 2
#     Edge 53, Type (0, 0), BuildingBlock: UVAHIK_clean_linker_0, # of connection points: 2
# Relax obj value: 0.009
# Max RMSD: 0.041
# Mean RMSD: 0.021
data_MOF--net-usf--node1-KOZSID_clean_sbu_0--edge1-UVAHIK_clean_linker_0
_symmetry_space_group_name_H-M    P1
_symmetry_Int_Tables_number       1
_symmetry_cell_setting            triclinic
loop_
_symmetry_equiv_pos_as_xyz
'x, y, z'
_cell_length_a     75.454653
_cell_length_b     75.652994
_cell_length_c     43.280661
_cell_angle_alpha  90.158193
_cell_angle_beta   89.599932
_cell_angle_gamma 116.87427
loop_
_atom_site_label
_atom_site_type_symbol
_atom_site_fract_x
_atom_site_fract_y
_atom_site_fract_z
_atom_type_partial_charge
C0 C 0.99662 0.48558 0.08032 0.0
C1 C 0.9817 0.46891 0.09423 0.0
C2 C 0.96936 0.45787 0.07125 0.0
C3 C 0.97728 0.46834 0.04467 0.0
N4 N 0.99403 0.48541 0.04919 0.0
Co5 Co 0.00976 0.50532 0.01646 0.0
N6 N 0.99053 0.48983 0.98314 0.0
C7 C 0.97326 0.4732 0.98713 0.0
C8 C 0.96298 0.46588 0.9603 0.0
C9 C 0.97444 0.47848 0.9377 0.0
C10 C 0.99123 0.49275 0.95204 0.0
N11 N 0.02589 0.52482 0.9835 0.0
C12 C 0.02373 0.52414 0.95223 0.0
C13 C 0.03938 0.54002 0.93798 0.0
C14 C 0.05178 0.55112 0.96087 0.0
C15 C 0.0432 0.54137 0.98771 0.0
N16 N 0.02862 0.52117 0.04998 0.0
C17 C 0.04505 0.53867 0.04638 0.0
C18 C 0.0548 0.54651 0.07343 0.0
C19 C 0.04378 0.53342 0.09581 0.0
C20 C 0.02779 0.51829 0.08111 0.0
N21 N 0.02529 0.49044 0.00845 0.0
C22 C 0.04732 0.4702 0.99098 0.0
C23 C 0.05684 0.49022 0.99911 0.0
C24 C 0.04565 0.49993 0.00789 0.0
C25 C 0.0266 0.46028 0.99298 0.0
C26 C 0.01597 0.47059 1.00173 0.0
N27 N 0.99424 0.52028 0.02454 0.0
C28 C 0.99315 0.55148 0.03247 0.0
C29 C 0.97356 0.54166 0.04302 0.0
C30 C 0.96417 0.52099 0.04284 0.0
C31 C 0.9746 0.51068 0.03313 0.0
C32 C 0.00317 0.5406 0.02356 0.0
H33 H 0.96652 0.49496 0.03334 0.0
H34 H 0.01825 0.54902 0.01665 0.0
H35 H 0.05382 0.51518 0.01368 0.0
H36 H 1.0002 0.46228 1.00229 0.0
C37 C 0.96812 0.46373 0.0158 0.0
C38 C 0.01222 0.50162 0.09789 0.0
C39 C 0.00757 0.50847 0.93495 0.0
C40 C 0.05115 0.54718 0.0172 0.0
H41 H 0.97953 0.46534 0.11857 0.0
H42 H 0.95575 0.44423 0.07379 0.0
H43 H 0.94909 0.45261 0.95738 0.0
H44 H 0.97098 0.47711 0.91331 0.0
H45 H 0.04184 0.54314 0.91352 0.0
H46 H 0.06562 0.56449 0.95821 0.0
H47 H 0.0683 0.56016 0.07651 0.0
H48 H 0.04712 0.5349 0.12023 0.0
H49 H 0.07289 0.49844 0.99863 0.0
H50 H 0.01853 0.44476 0.9869 0.0
H51 H 1.00098 0.56753 0.03218 0.0
H52 H 0.94884 0.5128 0.05031 0.0
C53 C 0.55427 0.51359 0.94526 0.0
C54 C 0.56987 0.51208 0.93031 0.0
C55 C 0.58293 0.51295 0.95261 0.0
C56 C 0.57472 0.51507 0.97982 0.0
N57 N 0.55708 0.51544 0.9764 0.0
Co58 Co 0.54087 0.5196 0.01017 0.0
N59 N 0.56081 0.52215 0.04277 0.0
C60 C 0.57804 0.52106 0.03816 0.0
C61 C 0.58823 0.52225 0.06477 0.0
C62 C 0.57679 0.52402 0.0879 0.0
C63 C 0.56021 0.52397 0.07405 0.0
N64 N 0.52466 0.52374 0.04392 0.0
C65 C 0.52749 0.52562 0.07505 0.0
C66 C 0.51239 0.52811 0.08986 0.0
C67 C 0.49936 0.52731 0.06756 0.0
C68 C 0.50723 0.52453 0.04043 0.0
N69 N 0.52093 0.51703 0.97763 0.0
C70 C 0.50357 0.51787 0.98226 0.0
C71 C 0.49299 0.51583 0.95577 0.0
C72 C 0.50433 0.5138 0.93269 0.0
C73 C 0.52135 0.51485 0.94643 0.0
N74 N 0.52672 0.49049 0.01786 0.0
C75 C 0.50697 0.44985 0.0336 0.0
C76 C 0.4964 0.46077 0.02925 0.0
C77 C 0.50648 0.48088 0.02152 0.0
C78 C 0.52753 0.4595 0.029 0.0
C79 C 0.53699 0.47958 0.02098 0.0
N80 N 0.55502 0.54871 1.00241 0.0
C81 C 0.55415 0.57954 0.99009 0.0
C82 C 0.57471 0.58917 0.98524 0.0
C83 C 0.58529 0.57832 0.99032 0.0
C84 C 0.57527 0.55835 0.9989 0.0
C85 C 0.54473 0.55955 0.99871 0.0
H86 H 0.58423 0.55097 1.00216 0.0
H87 H 0.52904 0.55312 1.00166 0.0
H88 H 0.49757 0.48839 0.01913 0.0
H89 H 0.55266 0.48599 0.01776 0.0
C90 C 0.58368 0.51776 0.00874 0.0
C91 C 0.53757 0.514 0.92868 0.0
C92 C 0.54397 0.52485 0.09174 0.0
C93 C 0.49809 0.52154 0.01159 0.0
H94 H 0.57189 0.5109 0.90576 0.0
H95 H 0.597 0.5126 0.94928 0.0
H96 H 0.60208 0.52135 0.06715 0.0
H97 H 0.58011 0.52479 0.11228 0.0
H98 H 0.51081 0.53006 0.11433 0.0
H99 H 0.48557 0.52824 0.07081 0.0
H100 H 0.47886 0.51615 0.95344 0.0
H101 H 0.50059 0.51198 0.90841 0.0
H102 H 0.48045 0.454 0.03266 0.0
H103 H 0.53634 0.45158 0.03152 0.0
H104 H 0.54518 0.58718 0.98641 0.0
H105 H 0.6013 0.58517 0.98766 0.0
C106 C 0.50734 0.03614 0.05789 0.0
C107 C 0.50551 0.05344 0.06212 0.0
C108 C 0.50978 0.063 0.03436 0.0
C109 C 0.51402 0.05107 0.01492 0.0
N110 N 0.51245 0.03432 0.02843 0.0
Co111 Co 0.51821 0.01326 0.00915 0.0
N112 N 0.52658 0.02838 0.96933 0.0
C113 C 0.52678 0.04595 0.96274 0.0
C114 C 0.53316 0.05259 0.93337 0.0
C115 C 0.5372 0.03839 0.92031 0.0
C116 C 0.53307 0.02386 0.94262 0.0
N117 N 0.52405 0.99224 0.98998 0.0
C118 C 0.53075 0.99118 0.96127 0.0
C119 C 0.5329 0.97403 0.95726 0.0
C120 C 0.5272 0.96378 0.98436 0.0
C121 C 0.52196 0.97523 1.00329 0.0
N122 N 0.50988 0.99818 0.04897 0.0
C123 C 0.50877 0.98018 0.05519 0.0
C124 C 0.50281 0.97381 0.08482 0.0
C125 C 0.50024 0.98876 0.09851 0.0
C126 C 0.50488 0.00344 0.07634 0.0
N127 N 0.49028 0.99928 0.994 0.0
C128 C 0.45058 0.97936 0.9727 0.0
C129 C 0.45993 0.96897 0.98597 0.0
C130 C 0.47951 0.97909 0.99639 0.0
C131 C 0.46158 0.99995 0.97016 0.0
C132 C 0.48119 0.00948 0.98073 0.0
N133 N 0.54604 0.02718 0.02425 0.0
C134 C 0.5745 0.02638 0.04849 0.0
C135 C 0.58568 0.04693 0.04552 0.0
C136 C 0.5765 0.05738 0.03179 0.0
C137 C 0.55692 0.04731 0.02134 0.0
C138 C 0.5549 0.01693 0.03796 0.0
H139 H 0.55085 0.05615 0.01106 0.0
H140 H 0.54722 1.00129 0.04111 0.0
H141 H 0.48559 0.97019 0.00619 0.0
H142 H 0.48863 0.02512 0.97792 0.0
C143 C 0.5208 0.05583 0.98453 0.0
C144 C 0.50523 0.02249 0.08286 0.0
C145 C 0.53494 0.00578 0.93695 0.0
C146 C 0.51472 0.97025 0.03343 0.0
H147 H 0.50195 0.05886 0.08325 0.0
H148 H 0.51036 0.07724 0.02922 0.0
H149 H 0.53456 0.06608 0.92267 0.0
H150 H 0.54243 0.03862 0.89689 0.0
H151 H 0.53796 0.96938 0.93675 0.0
H152 H 0.52678 0.94961 0.98958 0.0
H153 H 0.5011 0.96019 0.09544 0.0
H154 H 0.49588 0.98904 0.12232 0.0
H155 H 0.4523 0.95298 0.98803 0.0
H156 H 0.45506 0.00882 0.96043 0.0
H157 H 0.58087 0.01746 0.05852 0.0
H158 H 0.58427 0.07334 0.02937 0.0
C159 C 0.563 0.01364 0.48761 0.0
C160 C 0.58348 0.02451 0.48446 0.0
C161 C 0.58824 0.04335 0.49371 0.0
C162 C 0.57054 0.04291 0.50228 0.0
N163 N 0.5547 0.02493 0.499 0.0
Co164 Co 0.52648 0.01747 0.51129 0.0
N165 N 0.53351 0.04537 0.52419 0.0
C166 C 0.55154 0.06131 0.52183 0.0
C167 C 0.55169 0.07871 0.53105 0.0
C168 C 0.53259 0.07366 0.53965 0.0
C169 C 0.52186 0.05333 0.53538 0.0
N170 N 0.49844 0.00981 0.52485 0.0
C171 C 0.49027 0.02095 0.53722 0.0
C172 C 0.47035 0.00953 0.54458 0.0
C173 C 0.4657 0.99055 0.53624 0.0
C174 C 0.48299 0.99141 0.52454 0.0
N175 N 0.51927 0.98976 0.49708 0.0
C176 C 0.50089 0.97422 0.49695 0.0
C177 C 0.50026 0.95733 0.4843 0.0
C178 C 0.51938 0.96235 0.47578 0.0
C179 C 0.53067 0.98205 0.4841 0.0
N180 N 0.53224 0.01113 0.55331 0.0
C181 C 0.53941 0.0025 0.61384 0.0
C182 C 0.52448 0.98818 0.59591 0.0
C183 C 0.52114 0.99279 0.56603 0.0
C184 C 0.55105 0.02105 0.60063 0.0
C185 C 0.5473 0.02499 0.57056 0.0
N186 N 0.5207 0.02373 0.46928 0.0
C187 C 0.49861 0.01577 0.4257 0.0
C188 C 0.51317 0.03093 0.40822 0.0
C189 C 0.53131 0.04293 0.42222 0.0
C190 C 0.53472 0.03914 0.45259 0.0
C191 C 0.50265 0.01245 0.45589 0.0
H192 H 0.54891 0.04866 0.46187 0.0
H193 H 0.491 1.00051 0.46773 0.0
H194 H 0.50937 0.98127 0.55383 0.0
H195 H 0.55663 0.03944 0.56196 0.0
C196 C 0.56821 0.05929 0.51224 0.0
C197 C 0.55218 0.99266 0.47953 0.0
C198 C 0.50065 0.04233 0.5421 0.0
C199 C 0.48477 0.9756 0.51068 0.0
H200 H 0.59396 0.0194 0.47635 0.0
H201 H 0.60285 0.05591 0.49403 0.0
H202 H 0.56423 0.09332 0.53159 0.0
H203 H 0.52717 0.08381 0.5481 0.0
H204 H 0.46017 0.01446 0.55463 0.0
H205 H 0.45132 0.97772 0.53792 0.0
H206 H 0.48747 0.94301 0.48191 0.0
H207 H 0.52442 0.95253 0.46487 0.0
H208 H 0.51527 0.97346 0.60489 0.0
H209 H 0.56267 0.03275 0.61368 0.0
H210 H 0.48416 0.00633 0.41606 0.0
H211 H 0.5431 0.05481 0.40955 0.0
C212 C 0.02419 0.49636 0.45284 0.0
C213 C 0.0402 0.49489 0.43922 0.0
C214 C 0.05269 0.49587 0.46251 0.0
C215 C 0.04378 0.49799 0.48897 0.0
N216 N 0.02621 0.49826 0.48411 0.0
Co217 Co 0.00902 0.50221 0.51643 0.0
N218 N 0.02857 0.50585 0.55019 0.0
C219 C 0.04646 0.50598 0.54675 0.0
C220 C 0.0567 0.50879 0.57381 0.0
C221 C 0.04456 0.51035 0.59602 0.0
C222 C 0.02744 0.50822 0.58122 0.0
N223 N 0.99166 0.50578 0.54885 0.0
C224 C 0.99371 0.50768 0.58012 0.0
C225 C 0.97733 0.50829 0.59393 0.0
C226 C 0.96454 0.50675 0.57079 0.0
C227 C 0.97367 0.50513 0.54422 0.0
N228 N 0.98968 0.49901 0.48254 0.0
C229 C 0.97207 0.49949 0.48581 0.0
C230 C 0.96217 0.49742 0.45859 0.0
C231 C 0.97432 0.49585 0.43642 0.0
C232 C 0.99109 0.49719 0.45143 0.0
N233 N 0.99552 0.47312 0.52464 0.0
C234 C 0.97647 0.43271 0.54192 0.0
C235 C 0.96547 0.44259 0.53338 0.0
C236 C 0.9752 0.46262 0.52498 0.0
C237 C 0.99717 0.44322 0.54059 0.0
C238 C 0.00629 0.46315 0.53168 0.0
N239 N 0.02251 0.53127 0.5082 0.0
C240 C 0.02082 0.56183 0.49693 0.0
C241 C 0.04124 0.57171 0.49083 0.0
C242 C 0.05217 0.56108 0.4946 0.0
C243 C 0.04263 0.54113 0.50332 0.0
C244 C 0.01185 0.54184 0.50561 0.0
H245 H 0.05184 0.53393 0.50539 0.0
H246 H 0.99624 0.53517 0.50972 0.0
H247 H 0.96591 0.46933 0.51937 0.0
H248 H 0.0221 0.47023 0.53108 0.0
C249 C 0.05254 0.50192 0.51816 0.0
C250 C 0.008 0.49693 0.43494 0.0
C251 C 0.01041 0.50813 0.59784 0.0
C252 C 0.96541 0.50228 0.51474 0.0
H253 H 0.04295 0.49386 0.4149 0.0
H254 H 0.067 0.49589 0.46026 0.0
H255 H 0.07108 0.50917 0.57712 0.0
H256 H 0.04782 0.51249 0.62045 0.0
H257 H 0.97463 0.5093 0.61829 0.0
H258 H 0.95008 0.50637 0.57313 0.0
H259 H 0.94792 0.49731 0.45521 0.0
H260 H 0.97125 0.49413 0.41191 0.0
H261 H 0.94938 0.43509 0.53406 0.0
H262 H 0.00635 0.4361 0.54636 0.0
H263 H 0.0117 0.56947 0.49503 0.0
H264 H 0.068 0.5679 0.49 0.0
C265 C 0.53167 0.52961 0.57539 0.0
C266 C 0.52791 0.54383 0.59039 0.0
C267 C 0.52787 0.55661 0.56826 0.0
C268 C 0.53164 0.54959 0.54107 0.0
N269 N 0.53396 0.53299 0.54438 0.0
Co270 Co 0.54038 0.51849 0.51048 0.0
N271 N 0.54245 0.53857 0.47848 0.0
C272 C 0.54088 0.55544 0.48369 0.0
C273 C 0.54232 0.5661 0.45744 0.0
C274 C 0.54484 0.55537 0.43395 0.0
C275 C 0.54487 0.5387 0.44723 0.0
N276 N 0.54597 0.50355 0.47635 0.0
C277 C 0.54759 0.50662 0.44524 0.0
C278 C 0.55066 0.49207 0.42997 0.0
C279 C 0.55048 0.4791 0.45196 0.0
C280 C 0.54739 0.48645 0.47935 0.0
N281 N 0.53907 0.49881 0.54265 0.0
C282 C 0.54205 0.48268 0.53787 0.0
C283 C 0.54119 0.47238 0.56429 0.0
C284 C 0.53782 0.48273 0.58753 0.0
C285 C 0.53688 0.49888 0.57392 0.0
N286 N 0.51149 0.5029 0.50188 0.0
C287 C 0.47118 0.48096 0.48489 0.0
C288 C 0.48286 0.47148 0.49182 0.0
C289 C 0.50275 0.48261 0.50029 0.0
C290 C 0.47995 0.5016 0.48749 0.0
C291 C 0.49989 0.51216 0.49601 0.0
N292 N 0.56933 0.53406 0.51923 0.0
C293 C 0.60175 0.53547 0.52687 0.0
C294 C 0.6091 0.55453 0.53916 0.0
C295 C 0.59655 0.56354 0.54 0.0
C296 C 0.57701 0.55327 0.52948 0.0
C297 C 0.58194 0.52553 0.51731 0.0
H298 H 0.56833 0.56111 0.5304 0.0
H299 H 0.57712 0.51081 0.50909 0.0
H300 H 0.51082 0.47448 0.50511 0.0
H301 H 0.50567 0.52785 0.4972 0.0
C302 C 0.53551 0.55954 0.51279 0.0
C303 C 0.53414 0.51395 0.59183 0.0
C304 C 0.54615 0.52291 0.42903 0.0
C305 C 0.54571 0.47764 0.50826 0.0
H306 H 0.52607 0.54528 0.61492 0.0
H307 H 0.52618 0.56994 0.57177 0.0
H308 H 0.5408 0.57961 0.45544 0.0
H309 H 0.54586 0.55913 0.4097 0.0
H310 H 0.55267 0.49085 0.40542 0.0
H311 H 0.55218 0.46578 0.44838 0.0
H312 H 0.54301 0.45905 0.56645 0.0
H313 H 0.5364 0.47893 0.61181 0.0
H314 H 0.4767 0.45549 0.49082 0.0
H315 H 0.47165 0.50973 0.4822 0.0
H316 H 0.61104 0.52798 0.52565 0.0
H317 H 0.6018 0.57848 0.54879 0.0
C318 C 0.68978 0.8396 0.41006 0.0
C319 C 0.67466 0.82323 0.42426 0.0
C320 C 0.66257 0.81176 0.40136 0.0
C321 C 0.67079 0.82177 0.37455 0.0
N322 N 0.68757 0.83887 0.37879 0.0
Co323 Co 0.70312 0.85871 0.34584 0.0
N324 N 0.68451 0.84239 0.31239 0.0
C325 C 0.66824 0.82477 0.31608 0.0
C326 C 0.65852 0.81677 0.28909 0.0
C327 C 0.66935 0.82991 0.26664 0.0
C328 C 0.68523 0.84521 0.28125 0.0
N329 N 0.71849 0.87871 0.313 0.0
C330 C 0.71603 0.87825 0.28181 0.0
C331 C 0.73076 0.89497 0.26775 0.0
C332 C 0.74287 0.90638 0.29067 0.0
C333 C 0.73502 0.89603 0.31736 0.0
N334 N 0.7219 0.87487 0.37921 0.0
C335 C 0.73859 0.89211 0.37534 0.0
C336 C 0.74858 0.89988 0.40224 0.0
C337 C 0.73752 0.88697 0.42479 0.0
C338 C 0.72123 0.87205 0.41035 0.0
N339 N 0.71957 0.84467 0.33799 0.0
C340 C 0.7418 0.82492 0.3191 0.0
C341 C 0.75068 0.84553 0.32152 0.0
C342 C 0.73947 0.855 0.3314 0.0
C343 C 0.72188 0.81428 0.32776 0.0
C344 C 0.7111 0.82437 0.33692 0.0
N345 N 0.68668 0.87271 0.35355 0.0
C346 C 0.68417 0.90284 0.36513 0.0
C347 C 0.66364 0.89222 0.36921 0.0
C348 C 0.65475 0.87177 0.36441 0.0
C349 C 0.66641 0.86243 0.35633 0.0
C350 C 0.69532 0.89287 0.3575 0.0
H351 H 0.6587 0.84686 0.35281 0.0
H352 H 0.71095 0.90175 0.35544 0.0
H353 H 0.74718 0.8707 0.33292 0.0
H354 H 0.69583 0.81541 0.34229 0.0
C355 C 0.66263 0.81596 0.34517 0.0
C356 C 0.70542 0.85576 0.42739 0.0
C357 C 0.70064 0.86194 0.26438 0.0
C358 C 0.74377 0.90132 0.34647 0.0
H359 H 0.67227 0.82004 0.4487 0.0
H360 H 0.64908 0.79803 0.40402 0.0
H361 H 0.64523 0.80292 0.28604 0.0
H362 H 0.66601 0.82832 0.24222 0.0
H363 H 0.73294 0.89839 0.24335 0.0
H364 H 0.75623 0.92023 0.28805 0.0
H365 H 0.76208 0.91355 0.40519 0.0
H366 H 0.74094 0.88851 0.44918 0.0
H367 H 0.76622 0.85433 0.31563 0.0
H368 H 0.71442 0.79825 0.32633 0.0
H369 H 0.6917 0.91873 0.36869 0.0
H370 H 0.63882 0.86298 0.36681 0.0
C371 C 0.19835 0.84439 0.41226 0.0
C372 C 0.21406 0.84277 0.42624 0.0
C373 C 0.22495 0.84001 0.40315 0.0
C374 C 0.21527 0.83992 0.37646 0.0
N375 N 0.19895 0.8427 0.38096 0.0
Co376 Co 0.17966 0.84174 0.3483 0.0
N377 N 0.1952 0.83666 0.31446 0.0
C378 C 0.21247 0.83552 0.31778 0.0
C379 C 0.22049 0.83323 0.29048 0.0
C380 C 0.20773 0.83313 0.26823 0.0
C381 C 0.19249 0.83523 0.28328 0.0
N382 N 0.16009 0.84025 0.31584 0.0
C383 C 0.1603 0.83792 0.28466 0.0
C384 C 0.14353 0.83753 0.27103 0.0
C385 C 0.13257 0.84014 0.29418 0.0
C386 C 0.14312 0.84182 0.3206 0.0
N387 N 0.16439 0.84734 0.38196 0.0
C388 C 0.14787 0.84981 0.37832 0.0
C389 C 0.14064 0.85359 0.40536 0.0
C390 C 0.15318 0.85333 0.42772 0.0
C391 C 0.16732 0.84923 0.41304 0.0
N392 N 0.19538 0.87074 0.34067 0.0
C393 C 0.21774 0.91126 0.32504 0.0
C394 C 0.19697 0.90239 0.32639 0.0
C395 C 0.18621 0.88237 0.33435 0.0
C396 C 0.22707 0.89955 0.33265 0.0
C397 C 0.21574 0.87957 0.34028 0.0
N398 N 0.164 0.81277 0.35602 0.0
C399 C 0.13331 0.78467 0.37168 0.0
C400 C 0.14279 0.77255 0.37374 0.0
C401 C 0.16288 0.78073 0.36542 0.0
C402 C 0.17305 0.80062 0.35655 0.0
C403 C 0.14408 0.80453 0.36279 0.0
H404 H 0.18832 0.8059 0.3507 0.0
H405 H 0.13604 0.81303 0.36221 0.0
H406 H 0.17046 0.87656 0.33475 0.0
H407 H 0.22384 0.87154 0.34548 0.0
C408 C 0.22092 0.83692 0.34687 0.0
C409 C 0.18289 0.84682 0.42981 0.0
C410 C 0.17618 0.83651 0.26682 0.0
C411 C 0.13846 0.84668 0.3497 0.0
H412 H 0.21719 0.84317 0.45065 0.0
H413 H 0.23816 0.83793 0.40559 0.0
H414 H 0.23417 0.83211 0.28711 0.0
H415 H 0.20967 0.83199 0.24364 0.0
H416 H 0.13976 0.83589 0.24676 0.0
H417 H 0.11884 0.84127 0.2919 0.0
H418 H 0.12748 0.8557 0.40855 0.0
H419 H 0.15184 0.85555 0.45217 0.0
H420 H 0.18892 0.91067 0.32058 0.0
H421 H 0.24311 0.90573 0.33276 0.0
H422 H 0.11777 0.77908 0.37784 0.0
H423 H 0.1708 0.77185 0.36585 0.0
C424 C 0.19315 0.35517 0.41645 0.0
C425 C 0.19198 0.37115 0.43046 0.0
C426 C 0.19278 0.38374 0.4074 0.0
C427 C 0.19455 0.37491 0.38068 0.0
N428 N 0.19469 0.35728 0.38514 0.0
Co429 Co 0.19883 0.34052 0.35242 0.0
N430 N 0.20104 0.35963 0.31864 0.0
C431 C 0.19965 0.37674 0.32207 0.0
C432 C 0.20117 0.38656 0.29488 0.0
C433 C 0.20336 0.37491 0.27258 0.0
C434 C 0.20295 0.3585 0.28748 0.0
N435 N 0.20344 0.32398 0.31983 0.0
C436 C 0.2054 0.32626 0.28859 0.0
C437 C 0.20757 0.31075 0.27479 0.0
C438 C 0.207 0.29831 0.29794 0.0
C439 C 0.20442 0.30677 0.3245 0.0
N440 N 0.19617 0.32118 0.38607 0.0
C441 C 0.19665 0.30364 0.38242 0.0
C442 C 0.19434 0.29343 0.40945 0.0
C443 C 0.19247 0.30521 0.43184 0.0
C444 C 0.19393 0.32212 0.41717 0.0
N445 N 0.16966 0.32613 0.34499 0.0
C446 C 0.12897 0.30637 0.32922 0.0
C447 C 0.14037 0.29612 0.33116 0.0
C448 C 0.16043 0.30615 0.33924 0.0
C449 C 0.13816 0.32658 0.33629 0.0
C450 C 0.15832 0.33607 0.34399 0.0
N451 N 0.22799 0.35494 0.35989 0.0
C452 C 0.25885 0.35467 0.37431 0.0
C453 C 0.2685 0.37534 0.37657 0.0
C454 C 0.25767 0.38561 0.36912 0.0
C455 C 0.23769 0.37524 0.36079 0.0
C456 C 0.23881 0.34487 0.36593 0.0
H457 H 0.23034 0.38399 0.3556 0.0
H458 H 0.2323 0.32912 0.36507 0.0
H459 H 0.1682 0.29743 0.34032 0.0
H460 H 0.16446 0.35154 0.34853 0.0
C461 C 0.19674 0.38309 0.35116 0.0
C462 C 0.19352 0.33877 0.43398 0.0
C463 C 0.20427 0.34222 0.27087 0.0
C464 C 0.20085 0.29793 0.35368 0.0
H465 H 0.19108 0.37373 0.45489 0.0
H466 H 0.19257 0.39789 0.40988 0.0
H467 H 0.20057 0.40046 0.29162 0.0
H468 H 0.20494 0.37809 0.24807 0.0
H469 H 0.20885 0.30829 0.25042 0.0
H470 H 0.2076 0.28434 0.29555 0.0
H471 H 0.1945 0.27931 0.4126 0.0
H472 H 0.19058 0.30186 0.45629 0.0
H473 H 0.13384 0.28036 0.3265 0.0
H474 H 0.13 0.33521 0.33505 0.0
H475 H 0.26652 0.34597 0.37987 0.0
H476 H 0.26456 0.40165 0.36973 0.0
C477 C 0.1874 0.32001 0.91731 0.0
C478 C 0.17344 0.30317 0.93216 0.0
C479 C 0.16108 0.29124 0.90988 0.0
C480 C 0.16821 0.30131 0.88273 0.0
N481 N 0.18455 0.31889 0.88618 0.0
Co482 Co 0.19943 0.33826 0.8524 0.0
N483 N 0.18026 0.32134 0.81987 0.0
C484 C 0.16407 0.30375 0.82451 0.0
C485 C 0.15418 0.29507 0.79795 0.0
C486 C 0.1647 0.30776 0.77482 0.0
C487 C 0.18046 0.32363 0.78864 0.0
N488 N 0.21435 0.35758 0.81861 0.0
C489 C 0.2114 0.35655 0.78751 0.0
C490 C 0.22549 0.3733 0.77263 0.0
C491 C 0.23802 0.38508 0.79486 0.0
C492 C 0.23087 0.37501 0.822 0.0
N493 N 0.21851 0.35523 0.88497 0.0
C494 C 0.23464 0.37286 0.88034 0.0
C495 C 0.24434 0.38172 0.90695 0.0
C496 C 0.23371 0.36912 0.9301 0.0
C497 C 0.2181 0.35311 0.91625 0.0
N498 N 0.21602 0.32437 0.84486 0.0
C499 C 0.23904 0.30504 0.82799 0.0
C500 C 0.24799 0.3254 0.83376 0.0
C501 C 0.23629 0.3347 0.84203 0.0
C502 C 0.21852 0.29441 0.83208 0.0
C503 C 0.20743 0.30424 0.84073 0.0
N504 N 0.18283 0.35212 0.85994 0.0
C505 C 0.18008 0.38213 0.87133 0.0
C506 C 0.15965 0.37134 0.87673 0.0
C507 C 0.15094 0.35084 0.87231 0.0
C508 C 0.16268 0.34164 0.86396 0.0
C509 C 0.19125 0.37233 0.86287 0.0
H510 H 0.15513 0.32598 0.86134 0.0
H511 H 0.20673 0.3814 0.85941 0.0
H512 H 0.24395 0.3503 0.84542 0.0
H513 H 0.1919 0.29523 0.84346 0.0
C514 C 0.1593 0.29515 0.85388 0.0
C515 C 0.20284 0.33672 0.93394 0.0
C516 C 0.19567 0.34005 0.77093 0.0
C517 C 0.23961 0.38128 0.8509 0.0
H518 H 0.17216 0.29993 0.95665 0.0
H519 H 0.1482 0.27706 0.91317 0.0
H520 H 0.14117 0.2809 0.79558 0.0
H521 H 0.16136 0.3053 0.75046 0.0
H522 H 0.22671 0.37661 0.74818 0.0
H523 H 0.25096 0.39922 0.79157 0.0
H524 H 0.25727 0.39594 0.90932 0.0
H525 H 0.23688 0.37175 0.95448 0.0
H526 H 0.26388 0.33424 0.83094 0.0
H527 H 0.21099 0.27852 0.82852 0.0
H528 H 0.1876 0.39805 0.87448 0.0
H529 H 0.1351 0.34182 0.87539 0.0
C530 C 0.72212 0.86591 0.91055 0.0
C531 C 0.73924 0.86781 0.92511 0.0
C532 C 0.75127 0.86634 0.90265 0.0
C533 C 0.74099 0.8638 0.87569 0.0
N534 N 0.72318 0.86378 0.87944 0.0
Co535 Co 0.70362 0.86059 0.84595 0.0
N536 N 0.72051 0.85643 0.81329 0.0
C537 C 0.73804 0.856 0.81785 0.0
C538 C 0.7467 0.85369 0.79125 0.0
C539 C 0.73406 0.85271 0.7682 0.0
C540 C 0.71823 0.85438 0.78208 0.0
N541 N 0.68426 0.8578 0.81234 0.0
C542 C 0.68539 0.8558 0.78121 0.0
C543 C 0.66869 0.85482 0.76645 0.0
C544 C 0.65686 0.85677 0.78879 0.0
C545 C 0.66686 0.85869 0.81587 0.0
N546 N 0.68652 0.86429 0.87873 0.0
C547 C 0.66867 0.86404 0.87435 0.0
C548 C 0.65963 0.86552 0.90109 0.0
C549 C 0.67232 0.86654 0.92409 0.0
C550 C 0.68858 0.86581 0.91001 0.0
N551 N 0.71745 0.8897 0.83804 0.0
C552 C 0.7365 0.93025 0.82158 0.0
C553 C 0.71629 0.92079 0.82911 0.0
C554 C 0.70712 0.90067 0.83708 0.0
C555 C 0.74713 0.91924 0.82343 0.0
C556 C 0.73746 0.89925 0.83193 0.0
N557 N 0.6898 0.8315 0.8539 0.0
C558 C 0.65959 0.80147 0.86427 0.0
C559 C 0.67039 0.79109 0.87124 0.0
C560 C 0.69107 0.80115 0.86823 0.0
C561 C 0.70037 0.82113 0.85956 0.0
C562 C 0.66948 0.82142 0.85556 0.0
H563 H 0.71616 0.82796 0.85818 0.0
H564 H 0.66035 0.82843 0.85069 0.0
H565 H 0.6916 0.89426 0.84187 0.0
H566 H 0.74649 0.89182 0.83301 0.0
C567 C 0.74692 0.85981 0.84695 0.0
C568 C 0.70517 0.86579 0.92746 0.0
C569 C 0.70196 0.85496 0.76447 0.0
C570 C 0.66041 0.86154 0.84492 0.0
H571 H 0.74256 0.86974 0.94953 0.0
H572 H 0.7656 0.86656 0.90572 0.0
H573 H 0.76091 0.85352 0.78877 0.0
H574 H 0.7366 0.85151 0.74383 0.0
H575 H 0.66545 0.85304 0.742 0.0
H576 H 0.64272 0.85694 0.78563 0.0
H577 H 0.64527 0.86532 0.90364 0.0
H578 H 0.6696 0.86727 0.94852 0.0
H579 H 0.70741 0.92871 0.82797 0.0
H580 H 0.76292 0.92602 0.8184 0.0
H581 H 0.64351 0.79425 0.86553 0.0
H582 H 0.70017 0.79385 0.87342 0.0
C583 C 0.17121 0.85533 0.91345 0.0
C584 C 0.17015 0.87109 0.9284 0.0
C585 C 0.17085 0.88405 0.90602 0.0
C586 C 0.17244 0.87563 0.87875 0.0
N587 N 0.17256 0.85792 0.88222 0.0
Co588 Co 0.17632 0.84158 0.84842 0.0
N589 N 0.17846 0.86127 0.81561 0.0
C590 C 0.17689 0.87821 0.82003 0.0
C591 C 0.17774 0.88821 0.79329 0.0
C592 C 0.17978 0.87691 0.77026 0.0
C593 C 0.18021 0.86063 0.78433 0.0
N594 N 0.18053 0.82545 0.81478 0.0
C595 C 0.18262 0.82836 0.78366 0.0
C596 C 0.18547 0.81349 0.76901 0.0
C597 C 0.18473 0.80053 0.79143 0.0
C598 C 0.18164 0.80823 0.81846 0.0
N599 N 0.17378 0.82169 0.88109 0.0
C600 C 0.17415 0.80417 0.87646 0.0
C601 C 0.1721 0.7936 0.90304 0.0
C602 C 0.17051 0.80511 0.92615 0.0
C603 C 0.17184 0.82221 0.91234 0.0
N604 N 0.14708 0.82741 0.84145 0.0
C605 C 0.10628 0.80801 0.82599 0.0
C606 C 0.11751 0.79756 0.82784 0.0
C607 C 0.13766 0.80744 0.83559 0.0
C608 C 0.11572 0.82821 0.83313 0.0
C609 C 0.13587 0.83749 0.84086 0.0
N610 N 0.20555 0.85576 0.85537 0.0
C611 C 0.23642 0.85515 0.86861 0.0
C612 C 0.24637 0.87582 0.87028 0.0
C613 C 0.23565 0.88628 0.8634 0.0
C614 C 0.21546 0.87606 0.8561 0.0
C615 C 0.21626 0.84552 0.86097 0.0
H616 H 0.20812 0.88493 0.85161 0.0
H617 H 0.20962 0.82977 0.8601 0.0
H618 H 0.14538 0.79865 0.83613 0.0
H619 H 0.1421 0.8529 0.84588 0.0
C620 C 0.17432 0.88419 0.8496 0.0
C621 C 0.17164 0.83865 0.93005 0.0
C622 C 0.18165 0.84469 0.76684 0.0
C623 C 0.17822 0.79891 0.84726 0.0
H624 H 0.16934 0.87323 0.95299 0.0
H625 H 0.17063 0.89814 0.90929 0.0
H626 H 0.17667 0.90193 0.79079 0.0
H627 H 0.18051 0.88017 0.74584 0.0
H628 H 0.18759 0.812 0.74457 0.0
H629 H 0.18584 0.78686 0.7883 0.0
H630 H 0.1723 0.77945 0.90543 0.0
H631 H 0.1689 0.80148 0.95051 0.0
H632 H 0.11098 0.7819 0.82246 0.0
H633 H 0.10761 0.83692 0.83274 0.0
H634 H 0.24416 0.84636 0.87312 0.0
H635 H 0.24264 0.90232 0.86446 0.0
C636 C 0.36926 0.21407 0.70357 0.0
C637 C 0.38011 0.23457 0.70453 0.0
C638 C 0.39857 0.23908 0.69321 0.0
C639 C 0.39793 0.22121 0.68574 0.0
N640 N 0.38018 0.20547 0.69169 0.0
Co641 Co 0.37252 0.1769 0.68247 0.0
N642 N 0.39988 0.1836 0.66638 0.0
C643 C 0.41564 0.20179 0.66501 0.0
C644 C 0.43258 0.20177 0.65349 0.0
C645 C 0.42742 0.18237 0.64733 0.0
C646 C 0.40754 0.17165 0.65553 0.0
N647 N 0.36467 0.14839 0.67238 0.0
C648 C 0.37549 0.13985 0.66 0.0
C649 C 0.36417 0.11953 0.65651 0.0
C650 C 0.34553 0.11507 0.66696 0.0
C651 C 0.34652 0.13282 0.67622 0.0
N652 N 0.34536 0.1701 0.69952 0.0
C653 C 0.32993 0.15178 0.70237 0.0
C654 C 0.31346 0.15159 0.71616 0.0
C655 C 0.31862 0.17096 0.72252 0.0
C656 C 0.33798 0.18193 0.71189 0.0
N657 N 0.36398 0.18037 0.64064 0.0
C658 C 0.35248 0.18405 0.58016 0.0
C659 C 0.33932 0.16962 0.60029 0.0
C660 C 0.34534 0.16802 0.63011 0.0
C661 C 0.3713 0.19699 0.59118 0.0
C662 C 0.37664 0.19498 0.62127 0.0
N663 N 0.38102 0.1734 0.72424 0.0
C664 C 0.37507 0.15431 0.77118 0.0
C665 C 0.39181 0.16933 0.78492 0.0
C666 C 0.40344 0.18613 0.76738 0.0
C667 C 0.39783 0.18784 0.73732 0.0
C668 C 0.37004 0.1566 0.74105 0.0
H669 H 0.40719 0.20109 0.72528 0.0
H670 H 0.35702 0.1447 0.73209 0.0
H671 H 0.33467 0.15654 0.64405 0.0
H672 H 0.39119 0.20526 0.6281 0.0
C673 C 0.41388 0.21869 0.67382 0.0
C674 C 0.34859 0.20352 0.71386 0.0
C675 C 0.39659 0.15018 0.65217 0.0
C676 C 0.33109 0.13511 0.69066 0.0
H677 H 0.37521 0.24522 0.71247 0.0
H678 H 0.41098 0.25367 0.6907 0.0
H679 H 0.44694 0.21436 0.64984 0.0
H680 H 0.43718 0.17677 0.63774 0.0
H681 H 0.36895 0.10895 0.64779 0.0
H682 H 0.33289 0.10056 0.6683 0.0
H683 H 0.29933 0.1389 0.72081 0.0
H684 H 0.30913 0.17637 0.73362 0.0
H685 H 0.32443 0.15946 0.59308 0.0
H686 H 0.38217 0.20829 0.57644 0.0
H687 H 0.36544 0.14108 0.7839 0.0
H688 H 0.41674 0.19804 0.77687 0.0
C689 C 0.85779 0.22161 0.66293 0.0
C690 C 0.846 0.23125 0.65979 0.0
C691 C 0.8273 0.2182 0.66897 0.0
C692 C 0.82872 0.20146 0.67743 0.0
N693 N 0.8472 0.20295 0.67417 0.0
Co694 Co 0.85594 0.18238 0.68564 0.0
N695 N 0.82829 0.16311 0.69887 0.0
C696 C 0.81183 0.16593 0.69752 0.0
C697 C 0.79478 0.1498 0.70659 0.0
C698 C 0.80063 0.13576 0.71414 0.0
C699 C 0.82106 0.14424 0.70953 0.0
N700 N 0.86479 0.162 0.69778 0.0
C701 C 0.8543 0.14354 0.70979 0.0
C702 C 0.86653 0.13476 0.71623 0.0
C703 C 0.88529 0.14792 0.70749 0.0
C704 C 0.88354 0.16402 0.69653 0.0
N705 N 0.88349 0.20145 0.67167 0.0
C706 C 0.89973 0.19822 0.67141 0.0
C707 C 0.91639 0.21363 0.65949 0.0
C708 C 0.9105 0.2276 0.65165 0.0
C709 C 0.89052 0.21995 0.65956 0.0
N710 N 0.86182 0.19353 0.72799 0.0
C711 C 0.86956 0.20761 0.78915 0.0
C712 C 0.88405 0.20554 0.77148 0.0
C713 C 0.87991 0.19854 0.74123 0.0
C714 C 0.85133 0.20309 0.77537 0.0
C715 C 0.84783 0.19619 0.74501 0.0
N716 N 0.85008 0.17123 0.64333 0.0
C717 C 0.85916 0.15822 0.59816 0.0
C718 C 0.8423 0.15646 0.58256 0.0
C719 C 0.82918 0.16179 0.59817 0.0
C720 C 0.83334 0.16912 0.62824 0.0
C721 C 0.86269 0.16551 0.62831 0.0
H722 H 0.82285 0.17309 0.63867 0.0
H723 H 0.87583 0.16658 0.63883 0.0
H724 H 0.89154 0.19714 0.72919 0.0
H725 H 0.83358 0.19283 0.73602 0.0
C726 C 0.81289 0.18398 0.6879 0.0
C727 C 0.87897 0.23091 0.65519 0.0
C728 C 0.83285 0.13367 0.71534 0.0
C729 C 0.89904 0.18086 0.68367 0.0
H730 H 0.85042 0.24621 0.65182 0.0
H731 H 0.81423 0.22063 0.66945 0.0
H732 H 0.77985 0.14839 0.70745 0.0
H733 H 0.79086 0.12092 0.72199 0.0
H734 H 0.86235 0.12028 0.72612 0.0
H735 H 0.89859 0.14593 0.70871 0.0
H736 H 0.9311 0.21464 0.657 0.0
H737 H 0.91992 0.24184 0.64134 0.0
H738 H 0.89854 0.20917 0.78097 0.0
H739 H 0.83954 0.20428 0.78821 0.0
H740 H 0.86992 0.1545 0.58696 0.0
H741 H 0.81573 0.1604 0.58724 0.0
C742 C 0.82497 0.65375 0.64555 0.0
C743 C 0.82197 0.6384 0.62525 0.0
C744 C 0.84032 0.64154 0.61479 0.0
C745 C 0.85351 0.65838 0.62954 0.0
N746 N 0.84465 0.66591 0.64901 0.0
Co747 Co 0.85845 0.68959 0.67579 0.0
N748 N 0.88446 0.68924 0.6701 0.0
C749 C 0.88906 0.6797 0.64755 0.0
C750 C 0.90827 0.68236 0.6491 0.0
C751 C 0.91632 0.69443 0.67411 0.0
C752 C 0.90147 0.69841 0.68651 0.0
N753 N 0.87233 0.71326 0.70255 0.0
C754 C 0.8903 0.72034 0.71644 0.0
C755 C 0.89413 0.73724 0.73351 0.0
C756 C 0.87818 0.74106 0.72958 0.0
C757 C 0.86547 0.72626 0.71061 0.0
N758 N 0.83247 0.6901 0.68131 0.0
C759 C 0.83002 0.70574 0.69134 0.0
C760 C 0.81056 0.70231 0.6915 0.0
C761 C 0.80009 0.68341 0.68052 0.0
C762 C 0.81379 0.67627 0.67435 0.0
N763 N 0.85287 0.67245 0.71176 0.0
C764 C 0.84689 0.64948 0.76477 0.0
C765 C 0.84212 0.66534 0.76455 0.0
C766 C 0.8453 0.67666 0.73792 0.0
C767 C 0.85427 0.64503 0.73767 0.0
C768 C 0.85699 0.65661 0.7113 0.0
N769 N 0.86403 0.70683 0.63982 0.0
C770 C 0.88653 0.73489 0.6099 0.0
C771 C 0.87164 0.73131 0.58817 0.0
C772 C 0.85288 0.71534 0.59294 0.0
C773 C 0.84942 0.70328 0.61872 0.0
C774 C 0.88239 0.72254 0.63567 0.0
H775 H 0.83492 0.69094 0.62132 0.0
H776 H 0.8941 0.72562 0.65208 0.0
H777 H 0.84205 0.68912 0.73876 0.0
H778 H 0.86278 0.65296 0.69076 0.0
C779 C 0.87417 0.66584 0.62898 0.0
C780 C 0.80879 0.6574 0.65845 0.0
C781 C 0.90459 0.71228 0.71208 0.0
C782 C 0.84593 0.72232 0.70395 0.0
H783 H 0.80798 0.62633 0.61829 0.0
H784 H 0.84366 0.6323 0.59903 0.0
H785 H 0.91537 0.67576 0.63451 0.0
H786 H 0.93143 0.69981 0.68211 0.0
H787 H 0.90712 0.74599 0.74722 0.0
H788 H 0.87583 0.7528 0.74021 0.0
H789 H 0.80464 0.71223 0.69913 0.0
H790 H 0.78422 0.676 0.67675 0.0
H791 H 0.83671 0.6695 0.7852 0.0
H792 H 0.85809 0.63285 0.73695 0.0
H793 H 0.90127 0.74707 0.60695 0.0
H794 H 0.84107 0.71175 0.57632 0.0
C795 C 0.89895 0.68136 0.17357 0.0
C796 C 0.91904 0.69073 0.16626 0.0
C797 C 0.92357 0.70987 0.15903 0.0
C798 C 0.90605 0.71105 0.16243 0.0
N799 N 0.89077 0.694 0.17241 0.0
Co800 Co 0.86229 0.68837 0.17772 0.0
N801 N 0.86807 0.71552 0.16267 0.0
C802 C 0.88582 0.72995 0.15304 0.0
C803 C 0.88565 0.74771 0.14756 0.0
C804 C 0.86688 0.74464 0.15506 0.0
C805 C 0.85658 0.72506 0.16455 0.0
N806 N 0.83376 0.68259 0.18247 0.0
C807 C 0.82548 0.69513 0.181 0.0
C808 C 0.80523 0.68551 0.18709 0.0
C809 C 0.8007 0.66631 0.19389 0.0
C810 C 0.81836 0.66533 0.1914 0.0
N811 N 0.85655 0.66136 0.19334 0.0
C812 C 0.83894 0.64721 0.20395 0.0
C813 C 0.83926 0.62967 0.21073 0.0
C814 C 0.85799 0.6326 0.20321 0.0
C815 C 0.86811 0.6519 0.19233 0.0
N816 N 0.86749 0.69901 0.2204 0.0
C817 C 0.87202 0.71762 0.27803 0.0
C818 C 0.85533 0.69978 0.27189 0.0
C819 C 0.85352 0.69062 0.24328 0.0
C820 C 0.88689 0.72547 0.25562 0.0
C821 C 0.88432 0.71602 0.22713 0.0
N822 N 0.85715 0.67775 0.13503 0.0
C823 C 0.8396 0.65044 0.10009 0.0
C824 C 0.85364 0.65987 0.07694 0.0
C825 C 0.86883 0.6788 0.08267 0.0
C826 C 0.87012 0.68752 0.11152 0.0
C827 C 0.84164 0.65957 0.1288 0.0
H828 H 0.88202 0.70197 0.11446 0.0
H829 H 0.83081 0.65138 0.1458 0.0
H830 H 0.84048 0.67702 0.23996 0.0
H831 H 0.89593 0.7231 0.21071 0.0
C832 C 0.90295 0.7272 0.15356 0.0
C833 C 0.88783 0.66003 0.17814 0.0
C834 C 0.83664 0.71656 0.17804 0.0
C835 C 0.82164 0.64959 0.20194 0.0
H836 H 0.92908 0.6841 0.16481 0.0
H837 H 0.93767 0.72124 0.15068 0.0
H838 H 0.89806 0.76159 0.14089 0.0
H839 H 0.86177 0.75588 0.15498 0.0
H840 H 0.7951 0.69204 0.18834 0.0
H841 H 0.78653 0.65484 0.20182 0.0
H842 H 0.82692 0.61591 0.21807 0.0
H843 H 0.86314 0.62141 0.20411 0.0
H844 H 0.8437 0.69294 0.28908 0.0
H845 H 0.90018 0.7392 0.25966 0.0
H846 H 0.82744 0.63582 0.0964 0.0
H847 H 0.8797 0.68686 0.06495 0.0
C848 C 0.37707 0.19484 0.24765 0.0
C849 C 0.39178 0.19894 0.26956 0.0
C850 C 0.40608 0.19523 0.25589 0.0
C851 C 0.39932 0.18907 0.22658 0.0
N852 N 0.38167 0.18889 0.22054 0.0
Co853 Co 0.36615 0.18056 0.18123 0.0
N854 N 0.38624 0.1732 0.16217 0.0
C855 C 0.40285 0.17421 0.17547 0.0
C856 C 0.41381 0.16835 0.15646 0.0
C857 C 0.40373 0.1635 0.12924 0.0
C858 C 0.38713 0.16669 0.13332 0.0
N859 N 0.35074 0.17242 0.14181 0.0
C860 C 0.35522 0.16624 0.11481 0.0
C861 C 0.3407 0.16245 0.09272 0.0
C862 C 0.32665 0.16669 0.1061 0.0
C863 C 0.33336 0.17276 0.13546 0.0
N864 N 0.34596 0.1877 0.20043 0.0
C865 C 0.32929 0.18663 0.18725 0.0
C866 C 0.31804 0.19188 0.20668 0.0
C867 C 0.32793 0.19627 0.23409 0.0
C868 C 0.34467 0.1934 0.22968 0.0
N869 N 0.38116 0.20805 0.16485 0.0
C870 C 0.40243 0.24714 0.14169 0.0
C871 C 0.38169 0.23708 0.14042 0.0
C872 C 0.37148 0.21775 0.15184 0.0
C873 C 0.4123 0.23715 0.15466 0.0
C874 C 0.4015 0.21786 0.16604 0.0
N875 N 0.35116 0.1531 0.19757 0.0
C876 C 0.32007 0.12365 0.20612 0.0
C877 C 0.32983 0.11407 0.22057 0.0
C878 C 0.35047 0.12444 0.22348 0.0
C879 C 0.36072 0.14379 0.2121 0.0
C880 C 0.33091 0.14294 0.19481 0.0
H881 H 0.37638 0.15094 0.21543 0.0
H882 H 0.32256 0.1493 0.18386 0.0
H883 H 0.35575 0.21099 0.1499 0.0
H884 H 0.40998 0.21119 0.17557 0.0
C885 C 0.40839 0.18189 0.20517 0.0
C886 C 0.35836 0.19532 0.25438 0.0
C887 C 0.37338 0.16455 0.10858 0.0
C888 C 0.32406 0.17954 0.15716 0.0
H889 H 0.39189 0.20358 0.29326 0.0
H890 H 0.41947 0.19621 0.26641 0.0
H891 H 0.42776 0.16817 0.16151 0.0
H892 H 0.40832 0.15862 0.10851 0.0
H893 H 0.3405 0.15746 0.0692 0.0
H894 H 0.31332 0.16582 0.09549 0.0
H895 H 0.30403 0.19196 0.20175 0.0
H896 H 0.32318 0.20065 0.25517 0.0
H897 H 0.37321 0.24413 0.13102 0.0
H898 H 0.42836 0.24404 0.15577 0.0
H899 H 0.30411 0.1162 0.20303 0.0
H900 H 0.3587 0.11776 0.23489 0.0
C901 C 0.86625 0.21112 0.13884 0.0
C902 C 0.86633 0.22939 0.13518 0.0
C903 C 0.86085 0.23399 0.16296 0.0
C904 C 0.85771 0.21833 0.18185 0.0
N905 N 0.86105 0.20405 0.16795 0.0
Co906 Co 0.85768 0.17841 0.18653 0.0
N907 N 0.84842 0.18465 0.22675 0.0
C908 C 0.84605 0.20092 0.23366 0.0
C909 C 0.83963 0.20108 0.26329 0.0
C910 C 0.83796 0.18398 0.27623 0.0
C911 C 0.84354 0.17439 0.25362 0.0
N912 N 0.8543 0.15276 0.20511 0.0
C913 C 0.84886 0.14557 0.2341 0.0
C914 C 0.8487 0.12728 0.23775 0.0
C915 C 0.85439 0.12277 0.21006 0.0
C916 C 0.8577 0.13851 0.19124 0.0
N917 N 0.86692 0.17216 0.14631 0.0
C918 C 0.86941 0.15596 0.13946 0.0
C919 C 0.8758 0.15578 0.1098 0.0
C920 C 0.87726 0.17279 0.09676 0.0
C921 C 0.87159 0.18233 0.11934 0.0
N922 N 0.88564 0.19172 0.20144 0.0
C923 C 0.92519 0.21044 0.22317 0.0
C924 C 0.91745 0.19179 0.2092 0.0
C925 C 0.89788 0.18284 0.19849 0.0
C926 C 0.91276 0.21956 0.22603 0.0
C927 C 0.89322 0.20999 0.21527 0.0
N928 N 0.82972 0.16509 0.17167 0.0
C929 C 0.80252 0.13713 0.14748 0.0
C930 C 0.78994 0.14608 0.15073 0.0
C931 C 0.79776 0.1648 0.16457 0.0
C932 C 0.81743 0.1739 0.17484 0.0
C933 C 0.82215 0.14683 0.15785 0.0
H934 H 0.82237 0.18811 0.18517 0.0
H935 H 0.83092 0.13922 0.15444 0.0
H936 H 0.89302 0.16871 0.18792 0.0
H937 H 0.88449 0.21764 0.2186 0.0
C938 C 0.85067 0.21613 0.21221 0.0
C939 C 0.8702 0.20062 0.11363 0.0
C940 C 0.84461 0.15592 0.25919 0.0
C941 C 0.8648 0.14074 0.16091 0.0
H942 H 0.8696 0.23827 0.11442 0.0
H943 H 0.85891 0.24697 0.16852 0.0
H944 H 0.83681 0.21243 0.27432 0.0
H945 H 0.83342 0.17922 0.29979 0.0
H946 H 0.84516 0.11829 0.25844 0.0
H947 H 0.85628 0.10976 0.2045 0.0
H948 H 0.87866 0.14446 0.09878 0.0
H949 H 0.88169 0.17749 0.07316 0.0
H950 H 0.92655 0.18419 0.20613 0.0
H951 H 0.91797 0.23391 0.23702 0.0
H952 H 0.79725 0.12254 0.13733 0.0
H953 H 0.78886 0.17263 0.16721 0.0
C954 C 0.00812 0.48136 0.38307 0.0
C955 C 0.00873 0.49744 0.40018 0.0
C956 C 0.00872 0.48188 0.35061 0.0
C957 C 0.02058 0.51688 0.28309 0.0
H958 H 0.99272 0.46819 0.23678 0.0
C959 C 0.00936 0.51566 0.14974 0.0
C960 C 0.01207 0.50122 0.13266 0.0
C961 C 0.00919 0.51534 0.18221 0.0
C962 C 1.00074 0.48192 0.24931 0.0
H963 H 0.01 0.52648 0.39663 0.0
H964 H 0.01034 0.52723 0.34018 0.0
H965 H 0.99163 0.46732 0.29305 0.0
H966 H 0.01697 0.47527 0.13627 0.0
H967 H 0.01633 0.47441 0.19294 0.0
H968 H 0.02928 0.53147 0.23912 0.0
C969 C 0.01003 0.51438 0.35158 0.0
C970 C 1.00019 0.48144 0.28178 0.0
C971 C 0.00966 0.51393 0.38404 0.0
C972 C 0.01466 0.48647 0.14882 0.0
C973 C 0.01424 0.48598 0.18129 0.0
C974 C 0.02094 0.51737 0.25062 0.0
C975 C 0.00964 0.49839 0.33421 0.0
C976 C 0.01015 0.49891 0.29932 0.0
C977 C 0.01152 0.50042 0.1985 0.0
C978 C 0.01107 0.4999 0.23322 0.0
H979 H 0.00726 0.46839 0.39488 0.0
H980 H 0.00869 0.46935 0.33844 0.0
H981 H 0.02881 0.53064 0.29541 0.0
H982 H 0.0073 0.52719 0.1379 0.0
H983 H 0.00689 0.5266 0.19457 0.0
C984 C 0.56158 0.53806 0.37745 0.0
C985 C 0.5459 0.52328 0.39426 0.0
C986 C 0.56131 0.53832 0.34497 0.0
C987 C 0.52717 0.51731 0.27705 0.0
H988 H 0.5766 0.53609 0.23102 0.0
C989 C 0.52957 0.50889 0.14325 0.0
C990 C 0.5441 0.52482 0.12653 0.0
C991 C 0.52967 0.50877 0.17573 0.0
C992 C 0.56264 0.53097 0.24345 0.0
H993 H 0.51785 0.49697 0.39014 0.0
H994 H 0.51751 0.49698 0.33364 0.0
H995 H 0.57706 0.53553 0.28729 0.0
H996 H 0.56992 0.55327 0.13084 0.0
H997 H 0.57029 0.55307 0.18748 0.0
H998 H 0.51277 0.51249 0.23304 0.0
C999 C 0.52984 0.50877 0.34533 0.0
C1000 C 0.56289 0.53069 0.27593 0.0
C1001 C 0.53007 0.50862 0.3778 0.0
C1002 C 0.55866 0.5407 0.14309 0.0
C1003 C 0.55888 0.54052 0.17557 0.0
C1004 C 0.52691 0.51746 0.24457 0.0
C1005 C 0.54544 0.52366 0.32826 0.0
C1006 C 0.54516 0.52389 0.29337 0.0
C1007 C 0.54439 0.52455 0.19244 0.0
C1008 C 0.54465 0.52433 0.22722 0.0
H1009 H 0.57404 0.54949 0.3895 0.0
H1010 H 0.57349 0.55023 0.33303 0.0
H1011 H 0.51318 0.51231 0.28934 0.0
H1012 H 0.51818 0.49644 0.13111 0.0
H1013 H 0.51837 0.49612 0.18776 0.0
C1014 C 0.52207 0.03326 0.13351 0.0
C1015 C 0.50526 0.02857 0.11533 0.0
C1016 C 0.52175 0.03746 0.16483 0.0
C1017 C 0.52026 0.05312 0.22857 0.0
H1018 H 0.4737 0.01613 0.2737 0.0
C1019 C 0.51664 0.05236 0.36199 0.0
C1020 C 0.50979 0.03342 0.37516 0.0
C1021 C 0.51429 0.05447 0.33041 0.0
C1022 C 0.48678 0.02662 0.26141 0.0
H1023 H 0.47513 0.02488 0.11469 0.0
H1024 H 0.47454 0.0325 0.1697 0.0
H1025 H 0.4737 0.01552 0.21748 0.0
H1026 H 0.49515 1.00187 0.36551 0.0
H1027 H 0.49107 0.00553 0.31072 0.0
H1028 H 0.53374 0.06342 0.2726 0.0
C1029 C 0.48792 0.03281 0.1599 0.0
C1030 C 0.4867 0.02644 0.22918 0.0
C1031 C 0.48825 0.02856 0.12852 0.0
C1032 C 0.50024 0.01666 0.35623 0.0
C1033 C 0.49788 0.01877 0.32479 0.0
C1034 C 0.52035 0.05327 0.26083 0.0
C1035 C 0.50458 0.03701 0.17849 0.0
C1036 C 0.50364 0.0393 0.21241 0.0
C1037 C 0.50501 0.03767 0.31145 0.0
C1038 C 0.50382 0.03962 0.27756 0.0
H1039 H 0.53526 0.03318 0.12359 0.0
H1040 H 0.5347 0.04027 0.17858 0.0
H1041 H 0.53343 0.06342 0.21627 0.0
H1042 H 0.52386 0.06555 0.37607 0.0
H1043 H 0.51979 0.06923 0.3208 0.0
C1044 C 0.0095 0.49206 0.64935 0.0
C1045 C 0.01002 0.50818 0.6326 0.0
C1046 C 0.00928 0.4921 0.68183 0.0
C1047 C 0.99765 0.51552 0.74974 0.0
H1048 H 0.02906 0.49558 0.79484 0.0
C1049 C 0.00611 0.52348 0.88338 0.0
C1050 C 0.00773 0.50842 0.90018 0.0
C1051 C 0.00639 0.52346 0.85091 0.0
C1052 C 0.01993 0.50095 0.78277 0.0
H1053 H 0.01099 0.53709 0.63676 0.0
H1054 H 0.01042 0.53717 0.69341 0.0
H1055 H 0.02945 0.49542 0.73853 0.0
H1056 H 0.01052 0.4813 0.89611 0.0
H1057 H 0.01048 0.48084 0.83959 0.0
H1058 H 0.98788 0.52082 0.79384 0.0
C1059 C 0.00999 0.52436 0.68155 0.0
C1060 C 0.02021 0.5009 0.75029 0.0
C1061 C 0.01038 0.52438 0.64907 0.0
C1062 C 0.00936 0.49317 0.88375 0.0
C1063 C 0.00951 0.49304 0.85128 0.0
C1064 C 0.99725 0.51545 0.78221 0.0
C1065 C 0.00946 0.50823 0.69847 0.0
C1066 C 0.0091 0.50822 0.73323 0.0
C1067 C 0.00809 0.50823 0.83422 0.0
C1068 C 0.00842 0.5082 0.79936 0.0
H1069 H 0.00921 0.47938 0.63725 0.0
H1070 H 0.00867 0.47931 0.6939 0.0
H1071 H 0.98865 0.52101 0.73753 0.0
H1072 H 0.00474 0.53538 0.89544 0.0
H1073 H 0.00554 0.53559 0.83893 0.0
C1074 C 0.55172 0.51701 0.64254 0.0
C1075 C 0.53429 0.51356 0.62657 0.0
C1076 C 0.55198 0.5168 0.67501 0.0
C1077 C 0.52501 0.52168 0.74454 0.0
H1078 H 0.55426 0.49838 0.7875 0.0
C1079 C 0.53839 0.5303 0.87741 0.0
C1080 C 0.53713 0.5138 0.89392 0.0
C1081 C 0.53791 0.53015 0.84494 0.0
C1082 C 0.5459 0.50486 0.77596 0.0
H1083 H 0.5034 0.50685 0.6321 0.0
H1084 H 0.50376 0.50656 0.68874 0.0
H1085 H 0.55346 0.49803 0.73111 0.0
H1086 H 0.53412 0.4841 0.88936 0.0
H1087 H 0.53339 0.48378 0.83273 0.0
H1088 H 0.51732 0.52836 0.78939 0.0
C1089 C 0.51735 0.50966 0.67628 0.0
C1090 C 0.54562 0.50485 0.74348 0.0
C1091 C 0.51708 0.50974 0.64381 0.0
C1092 C 0.53531 0.4971 0.87722 0.0
C1093 C 0.53496 0.49698 0.84475 0.0
C1094 C 0.52541 0.52182 0.77701 0.0
C1095 C 0.53482 0.51321 0.69244 0.0
C1096 C 0.53514 0.51323 0.72722 0.0
C1097 C 0.53624 0.5135 0.82805 0.0
C1098 C 0.53584 0.51338 0.79328 0.0
H1099 H 0.5652 0.52001 0.62983 0.0
H1100 H 0.56576 0.5198 0.68646 0.0
H1101 H 0.51693 0.52846 0.73299 0.0
H1102 H 0.53983 0.54338 0.88968 0.0
H1103 H 0.53916 0.54324 0.83306 0.0
C1104 C 0.55801 0.00975 0.89291 0.0
C1105 C 0.5387 1.00115 0.90514 0.0
C1106 C 0.56121 0.0067 0.86194 0.0
C1107 C 0.53676 0.97602 0.79302 0.0
H1108 H 0.5699 0.02406 0.74785 0.0
C1109 C 0.52548 0.98768 0.66547 0.0
C1110 C 0.54212 0.99848 0.64657 0.0
C1111 C 0.52778 0.98521 0.69684 0.0
C1112 C 0.56093 0.01041 0.76014 0.0
H1113 H 0.50768 0.9823 0.89583 0.0
H1114 H 0.51306 0.97713 0.84152 0.0
H1115 H 0.56911 0.02475 0.80401 0.0
H1116 H 0.57433 0.01431 0.64557 0.0
H1117 H 0.57831 0.01028 0.7007 0.0
H1118 H 0.52788 0.96197 0.74892 0.0
C1119 C 0.52583 0.98592 0.85567 0.0
C1120 C 0.56048 0.01079 0.79237 0.0
C1121 C 0.52268 0.98895 0.8866 0.0
C1122 C 0.56119 0.00622 0.65961 0.0
C1123 C 0.56348 0.00384 0.6911 0.0
C1124 C 0.53714 0.97567 0.76078 0.0
C1125 C 0.54509 0.99504 0.84284 0.0
C1126 C 0.54795 0.99375 0.80912 0.0
C1127 C 0.54677 0.99357 0.7101 0.0
C1128 C 0.5488 0.993 0.74403 0.0
H1129 H 0.5705 0.01918 0.90713 0.0
H1130 H 0.57622 0.01376 0.85281 0.0
H1131 H 0.52724 0.96255 0.80532 0.0
H1132 H 0.51056 0.98181 0.65635 0.0
H1133 H 0.5146 0.97753 0.711 0.0
C1134 C 0.70353 0.87145 0.71309 0.0
C1135 C 0.70233 0.855 0.7297 0.0
C1136 C 0.70376 0.87152 0.68063 0.0
C1137 C 0.69308 0.83772 0.61175 0.0
H1138 H 0.72304 0.8871 0.56783 0.0
C1139 C 0.70742 0.84094 0.47888 0.0
C1140 C 0.70523 0.85574 0.46216 0.0
C1141 C 0.70699 0.84082 0.51135 0.0
C1142 C 0.71445 0.87319 0.57968 0.0
H1143 H 0.70025 0.82567 0.72525 0.0
H1144 H 0.7014 0.82594 0.6688 0.0
H1145 H 0.72262 0.8869 0.62413 0.0
H1146 H 0.70125 0.8822 0.46642 0.0
H1147 H 0.70083 0.88226 0.5231 0.0
H1148 H 0.68532 0.82401 0.56709 0.0
C1149 C 0.70174 0.83872 0.6806 0.0
C1150 C 0.71412 0.87306 0.61216 0.0
C1151 C 0.70129 0.83859 0.71307 0.0
C1152 C 0.70297 0.87062 0.47869 0.0
C1153 C 0.70279 0.87066 0.51117 0.0
C1154 C 0.6936 0.83784 0.57928 0.0
C1155 C 0.70296 0.85519 0.66372 0.0
C1156 C 0.70339 0.85532 0.62884 0.0
C1157 C 0.70469 0.85569 0.52801 0.0
C1158 C 0.70425 0.85557 0.56273 0.0
H1159 H 0.70423 0.88426 0.72531 0.0
H1160 H 0.70431 0.88436 0.66884 0.0
H1161 H 0.68428 0.82379 0.62338 0.0
H1162 H 0.70941 0.82941 0.46677 0.0
H1163 H 0.70876 0.82921 0.52343 0.0
C1164 C 0.19794 0.85951 0.71563 0.0
C1165 C 0.1819 0.84492 0.73209 0.0
C1166 C 0.19807 0.85975 0.68316 0.0
C1167 C 0.17532 0.82782 0.61433 0.0
H1168 H 0.19474 0.87789 0.57088 0.0
C1169 C 0.16753 0.83129 0.48103 0.0
C1170 C 0.18285 0.84666 0.46456 0.0
C1171 C 0.16739 0.8311 0.5135 0.0
C1172 C 0.18951 0.86375 0.5825 0.0
H1173 H 0.15351 0.81905 0.72744 0.0
H1174 H 0.15366 0.81934 0.67081 0.0
H1175 H 0.19471 0.87746 0.62719 0.0
H1176 H 0.20993 0.87397 0.46918 0.0
H1177 H 0.21006 0.87352 0.52572 0.0
H1178 H 0.17027 0.81408 0.56973 0.0
C1179 C 0.16625 0.83059 0.68287 0.0
C1180 C 0.18947 0.86351 0.61497 0.0
C1181 C 0.16608 0.83045 0.71534 0.0
C1182 C 0.19798 0.8619 0.48129 0.0
C1183 C 0.19791 0.86169 0.51376 0.0
C1184 C 0.17545 0.82806 0.58186 0.0
C1185 C 0.18222 0.84529 0.66622 0.0
C1186 C 0.18234 0.84554 0.63144 0.0
C1187 C 0.18261 0.84628 0.53048 0.0
C1188 C 0.18252 0.84603 0.56533 0.0
H1189 H 0.21041 0.87074 0.72795 0.0
H1190 H 0.21077 0.87114 0.67131 0.0
H1191 H 0.17 0.81369 0.62604 0.0
H1192 H 0.15562 0.81941 0.46871 0.0
H1193 H 0.15514 0.81914 0.52526 0.0
C1194 C 0.17734 0.33808 0.48573 0.0
C1195 C 0.1937 0.33905 0.46873 0.0
C1196 C 0.17756 0.33829 0.5182 0.0
C1197 C 0.20205 0.32848 0.58585 0.0
H1198 H 0.18141 0.35964 0.63078 0.0
C1199 C 0.21065 0.33863 0.71914 0.0
C1200 C 0.19536 0.33991 0.73619 0.0
C1201 C 0.21049 0.33862 0.68668 0.0
C1202 C 0.18698 0.35059 0.61877 0.0
H1203 H 0.223 0.34078 0.47241 0.0
H1204 H 0.22341 0.341 0.52905 0.0
H1205 H 0.18085 0.35921 0.57448 0.0
H1206 H 0.16797 0.34232 0.73258 0.0
H1207 H 0.16725 0.3417 0.67608 0.0
H1208 H 0.20793 0.31959 0.62999 0.0
C1209 C 0.21036 0.34005 0.5174 0.0
C1210 C 0.1867 0.35039 0.5863 0.0
C1211 C 0.21019 0.34002 0.48493 0.0
C1212 C 0.17992 0.34124 0.72003 0.0
C1213 C 0.17965 0.34108 0.68756 0.0
C1214 C 0.2022 0.32855 0.61832 0.0
C1215 C 0.19406 0.33925 0.53457 0.0
C1216 C 0.19427 0.33937 0.56931 0.0
C1217 C 0.19495 0.33978 0.67026 0.0
C1218 C 0.19471 0.33964 0.6354 0.0
H1219 H 0.16435 0.33711 0.47385 0.0
H1220 H 0.16463 0.33739 0.5305 0.0
H1221 H 0.20775 0.31957 0.5737 0.0
H1222 H 0.22279 0.33769 0.731 0.0
H1223 H 0.22275 0.33796 0.6745 0.0
C1224 C 0.69789 0.87667 0.21323 0.0
C1225 C 0.70081 0.86219 0.22962 0.0
C1226 C 0.69841 0.87707 0.18078 0.0
C1227 C 0.69269 0.84571 0.11174 0.0
H1228 H 0.72128 0.89585 0.06922 0.0
C1229 C 0.7044 0.84922 0.97843 0.0
C1230 C 0.70479 0.86546 0.96222 0.0
C1231 C 0.70406 0.84884 0.01089 0.0
C1232 C 0.71293 0.8817 0.08053 0.0
H1233 H 0.70622 0.83657 0.22481 0.0
H1234 H 0.7068 0.837 0.16813 0.0
H1235 H 0.71996 0.89505 0.12549 0.0
H1236 H 0.70535 0.89414 0.96734 0.0
H1237 H 0.70401 0.8933 0.02378 0.0
H1238 H 0.68525 0.83234 0.06697 0.0
C1239 C 0.70418 0.84813 0.18032 0.0
C1240 C 0.71224 0.88126 0.11298 0.0
C1241 C 0.70391 0.84789 0.21278 0.0
C1242 C 0.70494 0.88137 0.97923 0.0
C1243 C 0.70438 0.88093 0.01168 0.0
C1244 C 0.69318 0.84616 0.07928 0.0
C1245 C 0.70155 0.8628 0.1638 0.0
C1246 C 0.70216 0.86326 0.1291 0.0
C1247 C 0.70394 0.86465 0.02816 0.0
C1248 C 0.70335 0.86417 0.06303 0.0
H1249 H 0.69528 0.88775 0.22561 0.0
H1250 H 0.69607 0.88843 0.16894 0.0
H1251 H 0.68455 0.83159 0.12327 0.0
H1252 H 0.70439 0.8368 0.96592 0.0
H1253 H 0.70413 0.83619 0.02239 0.0
C1254 C 0.15557 0.83659 0.98233 0.0
C1255 C 0.17206 0.83843 0.96477 0.0
C1256 C 0.156 0.83636 0.01479 0.0
C1257 C 0.18261 0.82776 0.0812 0.0
H1258 H 0.15803 0.85451 0.12836 0.0
C1259 C 0.17298 0.81978 0.21497 0.0
C1260 C 0.17583 0.83667 0.23208 0.0
C1261 C 0.17255 0.81996 0.18251 0.0
C1262 C 0.16511 0.84706 0.11565 0.0
H1263 H 0.20184 0.84131 0.96741 0.0
H1264 H 0.20273 0.84099 0.02398 0.0
H1265 H 0.15753 0.85515 0.07205 0.0
H1266 H 0.18035 0.86692 0.22864 0.0
H1267 H 0.17968 0.86736 0.17207 0.0
H1268 H 0.19046 0.81993 0.12479 0.0
C1269 C 0.18935 0.83957 0.01283 0.0
C1270 C 0.16461 0.84723 0.08319 0.0
C1271 C 0.18892 0.83987 0.98038 0.0
C1272 C 0.17811 0.85369 0.21602 0.0
C1273 C 0.17761 0.85387 0.18357 0.0
C1274 C 0.18304 0.82752 0.11366 0.0
C1275 C 0.1729 0.83784 0.03061 0.0
C1276 C 0.17338 0.8376 0.06539 0.0
C1277 C 0.17484 0.837 0.16623 0.0
C1278 C 0.17432 0.83719 0.13146 0.0
H1279 H 0.14231 0.83528 0.97088 0.0
H1280 H 0.14292 0.83472 0.02747 0.0
H1281 H 0.18936 0.81998 0.06849 0.0
H1282 H 0.171 0.8064 0.22677 0.0
H1283 H 0.17009 0.80658 0.17018 0.0
C1284 C 0.18731 0.33813 0.98525 0.0
C1285 C 0.20289 0.33707 0.9687 0.0
C1286 C 0.18733 0.33853 0.01772 0.0
C1287 C 0.21142 0.32848 0.08686 0.0
H1288 H 0.18912 0.35887 0.12993 0.0
C1289 C 0.22089 0.34346 0.21933 0.0
C1290 C 0.20419 0.3418 0.23612 0.0
C1291 C 0.22068 0.34282 0.18687 0.0
C1292 C 0.19526 0.35015 0.11833 0.0
H1293 H 0.23059 0.33539 0.97322 0.0
H1294 H 0.2311 0.33674 0.02966 0.0
H1295 H 0.18897 0.35795 0.07363 0.0
H1296 H 0.1743 0.33848 0.23202 0.0
H1297 H 0.17393 0.3376 0.17537 0.0
H1298 H 0.21801 0.32102 0.13171 0.0
C1299 C 0.21857 0.33688 0.01782 0.0
C1300 C 0.19513 0.34956 0.08586 0.0
C1301 C 0.21843 0.3363 0.98537 0.0
C1302 C 0.18738 0.3398 0.21968 0.0
C1303 C 0.18723 0.33937 0.18721 0.0
C1304 C 0.21172 0.32924 0.11931 0.0
C1305 C 0.20302 0.33801 0.03464 0.0
C1306 C 0.20317 0.33868 0.0695 0.0
C1307 C 0.20385 0.34077 0.17029 0.0
C1308 C 0.20361 0.34005 0.13557 0.0
H1309 H 0.17508 0.33864 0.973 0.0
H1310 H 0.17486 0.33902 0.02951 0.0
H1311 H 0.21743 0.3196 0.07545 0.0
H1312 H 0.23412 0.34522 0.23138 0.0
H1313 H 0.23385 0.34421 0.17474 0.0
C1314 C 0.38715 0.18085 0.05829 0.0
C1315 C 0.37926 0.16361 0.07626 0.0
C1316 C 0.39231 0.18012 0.0275 0.0
C1317 C 0.3802 0.14592 0.96233 0.0
H1318 H 0.42587 0.18942 0.92474 0.0
C1319 C 0.39309 0.14982 0.831 0.0
C1320 C 0.39618 0.168 0.81795 0.0
C1321 C 0.39482 0.14813 0.86284 0.0
C1322 C 0.4131 0.17714 0.93494 0.0
H1323 H 0.37066 0.13221 0.07715 0.0
H1324 H 0.37975 0.1308 0.02293 0.0
H1325 H 0.42151 0.18837 0.98077 0.0
H1326 H 0.40422 0.19882 0.82798 0.0
H1327 H 0.40735 0.19589 0.88332 0.0
H1328 H 0.37141 0.13504 0.91649 0.0
C1329 C 0.38188 0.14486 0.0325 0.0
C1330 C 0.41058 0.17656 0.96696 0.0
C1331 C 0.37674 0.14563 0.06338 0.0
C1332 C 0.40201 0.18466 0.8372 0.0
C1333 C 0.4038 0.18299 0.86896 0.0
C1334 C 0.38273 0.14649 0.93031 0.0
C1335 C 0.38962 0.16209 0.0142 0.0
C1336 C 0.39381 0.16124 0.98089 0.0
C1337 C 0.39977 0.16461 0.8822 0.0
C1338 C 0.39891 0.1624 0.91624 0.0
H1339 H 0.38909 0.19482 0.06803 0.0
H1340 H 0.39788 0.19357 0.01387 0.0
H1341 H 0.36702 0.13403 0.97234 0.0
H1342 H 0.38892 0.1368 0.81669 0.0
H1343 H 0.39187 0.13384 0.8724 0.0
C1344 C 0.88259 0.20533 0.84117 0.0
C1345 C 0.87299 0.21333 0.82218 0.0
C1346 C 0.88451 0.20935 0.87275 0.0
C1347 C 0.85999 0.2219 0.93592 0.0
H1348 H 0.90564 0.22606 0.98193 0.0
C1349 C 0.88815 0.22347 0.07004 0.0
C1350 C 0.87101 0.20747 0.08148 0.0
C1351 C 0.88936 0.22881 0.03893 0.0
C1352 C 0.89291 0.22529 0.96948 0.0
H1353 H 0.85863 0.23252 0.82122 0.0
H1354 H 0.8619 0.23946 0.87664 0.0
H1355 H 0.90726 0.2279 0.92574 0.0
H1356 H 0.84163 0.18468 0.07045 0.0
H1357 H 0.84372 0.19371 0.01592 0.0
H1358 H 0.84553 0.21898 0.97966 0.0
C1359 C 0.86775 0.22991 0.86703 0.0
C1360 C 0.89376 0.22612 0.93728 0.0
C1361 C 0.86585 0.22591 0.83535 0.0
C1362 C 0.85492 0.19715 0.06187 0.0
C1363 C 0.8561 0.20244 0.03082 0.0
C1364 C 0.85914 0.22109 0.96814 0.0
C1365 C 0.87686 0.22144 0.88611 0.0
C1366 C 0.87711 0.22382 0.92013 0.0
C1367 C 0.87345 0.21815 0.01889 0.0
C1368 C 0.87538 0.22217 0.98522 0.0
H1369 H 0.88795 0.19531 0.83188 0.0
H1370 H 0.89126 0.20227 0.8869 0.0
H1371 H 0.84687 0.21999 0.92338 0.0
H1372 H 0.9007 0.23153 0.08503 0.0
H1373 H 0.90285 0.24106 0.03045 0.0
C1374 C 0.83467 0.64204 0.03019 0.0
C1375 C 0.85247 0.65019 0.04684 0.0
C1376 C 0.8341 0.63459 1.00047 0.0
C1377 C 0.86782 0.64194 0.93504 0.0
H1378 H 0.82 0.60186 0.89736 0.0
C1379 C 0.86206 0.63654 0.80429 0.0
C1380 C 0.84566 0.63893 0.79404 0.0
C1381 C 0.86269 0.63065 0.83467 0.0
C1382 C 0.83353 0.61294 0.90764 0.0
H1383 H 0.88322 0.65562 0.04678 0.0
H1384 H 0.88219 0.64222 0.99507 0.0
H1385 H 0.82189 0.60526 0.95358 0.0
H1386 H 0.81624 0.63511 0.80622 0.0
H1387 H 0.81736 0.62503 0.85927 0.0
H1388 H 0.87918 0.65017 0.88925 0.0
C1389 C 0.8688 0.64208 1.0045 0.0
C1390 C 0.83459 0.61497 0.93978 0.0
C1391 C 0.86942 0.64976 0.03405 0.0
C1392 C 0.82917 0.63361 0.81373 0.0
C1393 C 0.82974 0.62764 0.844 0.0
C1394 C 0.86681 0.63982 0.90302 0.0
C1395 C 0.85129 0.63494 0.98698 0.0
C1396 C 0.85146 0.63002 0.95376 0.0
C1397 C 0.84687 0.62698 0.85518 0.0
C1398 C 0.84938 0.62582 0.88892 0.0
H1399 H 0.82143 0.64227 0.03958 0.0
H1400 H 0.82044 0.6295 0.98754 0.0
H1401 H 0.88096 0.65387 0.94485 0.0
H1402 H 0.875 0.64058 0.78959 0.0
H1403 H 0.87599 0.63006 0.84261 0.0
C1404 C 0.33926 0.17583 0.29975 0.0
C1405 C 0.35184 0.19427 0.28683 0.0
C1406 C 0.33483 0.17426 0.33126 0.0
C1407 C 0.337 0.20271 0.40203 0.0
H1408 H 0.34553 0.16146 0.44219 0.0
C1409 C 0.35386 0.20315 0.53201 0.0
C1410 C 0.34713 0.18489 0.54743 0.0
C1411 C 0.35068 0.20377 0.50037 0.0
C1412 C 0.34266 0.1728 0.43141 0.0
H1413 H 0.36897 0.22564 0.29549 0.0
H1414 H 0.36138 0.22299 0.35098 0.0
H1415 H 0.34637 0.16351 0.38624 0.0
H1416 H 0.33099 0.15297 0.54182 0.0
H1417 H 0.32483 0.1541 0.48704 0.0
H1418 H 0.33365 0.2122 0.44743 0.0
C1419 C 0.35478 0.20977 0.33686 0.0
C1420 C 0.34317 0.17399 0.39928 0.0
C1421 C 0.35921 0.21131 0.30529 0.0
C1422 C 0.33627 0.16731 0.5308 0.0
C1423 C 0.33296 0.16794 0.49926 0.0
C1424 C 0.33638 0.20146 0.43428 0.0
C1425 C 0.34295 0.19115 0.35027 0.0
C1426 C 0.34059 0.18908 0.38425 0.0
C1427 C 0.34059 0.18613 0.4835 0.0
C1428 C 0.33946 0.18663 0.44932 0.0
H1429 H 0.33344 0.16257 0.28563 0.0
H1430 H 0.32547 0.15977 0.34091 0.0
H1431 H 0.3348 0.2144 0.391 0.0
H1432 H 0.36196 0.21699 0.54424 0.0
H1433 H 0.35686 0.21804 0.48893 0.0
C1434 C 0.82511 0.13398 0.30268 0.0
C1435 C 0.84313 0.14872 0.29123 0.0
C1436 C 0.8232 0.12888 0.33395 0.0
C1437 C 0.81987 0.13498 0.40267 0.0
H1438 H 0.86314 0.13588 0.45158 0.0
C1439 C 0.83189 0.15955 0.52889 0.0
C1440 C 0.83896 0.15006 0.54978 0.0
C1441 C 0.82987 0.15452 0.49768 0.0
C1442 C 0.85076 0.13522 0.43826 0.0
H1443 H 0.87342 0.16928 0.30226 0.0
H1444 H 0.87017 0.1606 0.35706 0.0
H1445 H 0.86487 0.1349 0.39532 0.0
H1446 H 0.84877 0.1273 0.55439 0.0
H1447 H 0.84549 0.1187 0.49953 0.0
H1448 H 0.80598 0.1358 0.44556 0.0
C1449 C 0.85758 0.1527 0.34209 0.0
C1450 C 0.85184 0.13486 0.40606 0.0
C1451 C 0.85945 0.15779 0.31088 0.0
C1452 C 0.84356 0.13509 0.5388 0.0
C1453 C 0.84163 0.13011 0.50745 0.0
C1454 C 0.8188 0.13537 0.43484 0.0
C1455 C 0.83931 0.1385 0.35411 0.0
C1456 C 0.83669 0.13536 0.38794 0.0
C1457 C 0.83494 0.13992 0.48655 0.0
C1458 C 0.83452 0.13614 0.45292 0.0
H1459 H 0.81239 0.12691 0.28763 0.0
H1460 H 0.809 0.11778 0.34252 0.0
H1461 H 0.808 0.13551 0.38939 0.0
H1462 H 0.82857 0.1714 0.53643 0.0
H1463 H 0.82506 0.16263 0.48204 0.0
C1464 C 0.89257 0.74591 0.54121 0.0
C1465 C 0.87583 0.74279 0.55912 0.0
C1466 C 0.8941 0.75231 0.51065 0.0
C1467 C 0.85964 0.74449 0.44888 0.0
H1468 H 0.90752 0.77255 0.39998 0.0
C1469 C 0.85819 0.73136 0.31879 0.0
C1470 C 0.87388 0.72794 0.3077 0.0
C1471 C 0.85945 0.74006 0.34769 0.0
C1472 C 0.89401 0.76467 0.41332 0.0
H1473 H 0.84885 0.74626 0.56061 0.0
H1474 H 0.85154 0.75749 0.50716 0.0
H1475 H 0.90868 0.77703 0.45603 0.0
H1476 H 0.90342 0.73146 0.31727 0.0
H1477 H 0.90538 0.74588 0.36829 0.0
H1478 H 0.8452 0.73103 0.40695 0.0
C1479 C 0.86326 0.7546 0.51651 0.0
C1480 C 0.89466 0.76733 0.44535 0.0
C1481 C 0.8617 0.74815 0.54702 0.0
C1482 C 0.89115 0.734 0.32539 0.0
C1483 C 0.89231 0.74244 0.35448 0.0
C1484 C 0.85901 0.74172 0.41702 0.0
C1485 C 0.87892 0.75573 0.49756 0.0
C1486 C 0.87762 0.75673 0.46353 0.0
C1487 C 0.8763 0.74519 0.36627 0.0
C1488 C 0.87634 0.75122 0.39897 0.0
H1489 H 0.90365 0.74183 0.54991 0.0
H1490 H 0.9063 0.75291 0.49659 0.0
H1491 H 0.8463 0.73584 0.46223 0.0
H1492 H 0.84488 0.72714 0.30519 0.0
H1493 H 0.84701 0.74232 0.35578 0.0
C1494 C 0.05406 0.44053 0.98924 0.0
C1495 C 0.0589 0.45994 0.97967 0.0
C1496 C 0.06484 0.43086 0.97814 0.0
C1497 C 0.09714 0.43126 0.91349 0.0
H1498 H 0.11315 0.4013 0.96952 0.0
C1499 C 0.15133 0.40007 0.87651 0.0
C1500 C 0.14763 0.38127 0.88769 0.0
C1501 C 0.14033 0.40954 0.8875 0.0
C1502 C 0.10858 0.40938 0.95345 0.0
H1503 H 0.0787 0.48429 0.95063 0.0
H1504 H 0.09759 0.46749 0.93151 0.0
H1505 H 0.09422 0.4179 0.98922 0.0
H1506 H 0.12946 0.35779 0.91946 0.0
H1507 H 0.10995 0.37399 0.93786 0.0
H1508 H 0.11134 0.42265 0.87766 0.0
C1509 C 0.08542 0.45972 0.9475 0.0
C1510 C 0.09775 0.41892 0.96478 0.0
C1511 C 0.07474 0.46943 0.95874 0.0
C1512 C 0.13256 0.37214 0.90999 0.0
C1513 C 0.12154 0.38157 0.9209 0.0
C1514 C 0.10789 0.42165 0.90212 0.0
C1515 C 0.08059 0.44032 0.95704 0.0
C1516 C 0.09194 0.43001 0.94495 0.0
C1517 C 0.12533 0.40043 0.90992 0.0
C1518 C 0.11378 0.4106 0.92196 0.0
H1519 H 0.04203 0.43287 1.00551 0.0
H1520 H 0.06065 0.41586 0.98574 0.0
H1521 H 0.09263 0.43946 0.89752 0.0
H1522 H 0.16267 0.40747 0.85912 0.0
H1523 H 0.14381 0.42415 0.87874 0.0
C1524 C 0.64424 0.76396 0.90327 0.0
C1525 C 0.66024 0.77014 0.88226 0.0
C1526 C 0.63502 0.74446 0.91431 0.0
C1527 C 0.64316 0.69989 0.92376 0.0
H1528 H 0.58604 0.67307 0.93586 0.0
C1529 C 0.60051 0.61619 0.95249 0.0
C1530 C 0.58492 0.61016 0.97427 0.0
C1531 C 0.60978 0.63571 0.94155 0.0
C1532 C 0.60204 0.68041 0.93295 0.0
H1533 H 0.67876 0.76038 0.85592 0.0
H1534 H 0.66261 0.72637 0.87497 0.0
H1535 H 0.60182 0.70683 0.9158 0.0
H1536 H 0.56723 0.62027 1.00204 0.0
H1537 H 0.58334 0.65426 0.98288 0.0
H1538 H 0.64333 0.67341 0.94079 0.0
C1539 C 0.65741 0.73672 0.8834 0.0
C1540 C 0.6111 0.6998 0.92143 0.0
C1541 C 0.66667 0.75624 0.87241 0.0
C1542 C 0.57895 0.62425 0.98493 0.0
C1543 C 0.5882 0.64377 0.97393 0.0
C1544 C 0.63408 0.68048 0.93521 0.0
C1545 C 0.6415 0.73057 0.9046 0.0
C1546 C 0.6318 0.70983 0.91669 0.0
C1547 C 0.6037 0.64975 0.95203 0.0
C1548 C 0.6134 0.67048 0.93998 0.0
H1549 H 0.6391 0.77433 0.91178 0.0
H1550 H 0.62304 0.7404 0.93098 0.0
H1551 H 0.65915 0.70722 0.92094 0.0
H1552 H 0.60529 0.6057 0.9433 0.0
H1553 H 0.62145 0.63969 0.92436 0.0
C1554 C 0.27461 0.87912 0.90432 0.0
C1555 C 0.26761 0.88635 0.87978 0.0
C1556 C 0.29442 0.88917 0.91377 0.0
C1557 C 0.33903 0.93833 0.90919 0.0
H1558 H 0.36639 0.90852 0.93677 0.0
C1559 C 0.42355 0.97517 0.93495 0.0
C1560 C 0.4296 0.96882 0.96166 0.0
C1561 C 0.4039 0.96523 0.92462 0.0
C1562 C 0.35891 0.91707 0.92939 0.0
H1563 H 0.27615 0.90969 0.84558 0.0
H1564 H 0.31077 0.92707 0.86169 0.0
H1565 H 0.33219 0.89095 0.91899 0.0
H1566 H 0.41932 0.94712 0.99871 0.0
H1567 H 0.38525 0.92968 0.98041 0.0
H1568 H 0.36591 0.96445 0.91933 0.0
C1569 C 0.30084 0.91384 0.87414 0.0
C1570 C 0.33925 0.907 0.91923 0.0
C1571 C 0.28098 0.90384 0.86481 0.0
C1572 C 0.4154 0.95225 0.97773 0.0
C1573 C 0.3958 0.94225 0.96728 0.0
C1574 C 0.35874 0.9484 0.91916 0.0
C1575 C 0.30784 0.90669 0.89883 0.0
C1576 C 0.32897 0.91747 0.90911 0.0
C1577 C 0.3898 0.9486 0.9406 0.0
C1578 C 0.3689 0.9379 0.92952 0.0
H1579 H 0.26464 0.86587 0.9167 0.0
H1580 H 0.29909 0.88337 0.93323 0.0
H1581 H 0.33156 0.94694 0.90208 0.0
H1582 H 0.43408 0.98763 0.92163 0.0
H1583 H 0.39984 0.97037 0.90377 0.0
C1584 C 0.47618 0.0558 0.53449 0.0
C1585 C 0.48955 0.05298 0.55375 0.0
C1586 C 0.46592 0.06607 0.54527 0.0
C1587 C 0.46794 0.10196 0.60508 0.0
H1588 H 0.41246 0.08362 0.58452 0.0
C1589 C 0.42023 0.13579 0.66036 0.0
C1590 C 0.40705 0.1388 0.64097 0.0
C1591 C 0.43021 0.12519 0.64981 0.0
C1592 C 0.42801 0.08907 0.59019 0.0
H1593 H 0.50266 0.05827 0.59918 0.0
H1594 H 0.48464 0.07613 0.61832 0.0
H1595 H 0.42996 0.06527 0.56603 0.0
H1596 H 0.39386 0.13342 0.59559 0.0
H1597 H 0.41137 0.11495 0.57683 0.0
H1598 H 0.46601 0.12578 0.6292 0.0
C1599 C 0.48223 0.0707 0.59478 0.0
C1600 C 0.43805 0.07854 0.57958 0.0
C1601 C 0.49245 0.06041 0.58398 0.0
C1602 C 0.40393 0.13112 0.61089 0.0
C1603 C 0.41387 0.12049 0.60031 0.0
C1604 C 0.45791 0.11249 0.61567 0.0
C1605 C 0.46886 0.0737 0.57553 0.0
C1606 C 0.45814 0.08486 0.5869 0.0
C1607 C 0.42715 0.11741 0.61964 0.0
C1608 C 0.43782 0.10618 0.60836 0.0
H1609 H 0.47382 0.05019 0.51104 0.0
H1610 H 0.45594 0.06831 0.52972 0.0
H1611 H 0.4835 0.10743 0.61072 0.0
H1612 H 0.42277 0.14161 0.68369 0.0
H1613 H 0.44012 0.12289 0.66543 0.0
C1614 C 0.90348 0.26681 0.66069 0.0
C1615 C 0.88887 0.25164 0.64318 0.0
C1616 C 0.91297 0.28622 0.64932 0.0
C1617 C 0.90692 0.32028 0.59468 0.0
H1618 H 0.96418 0.35019 0.60061 0.0
C1619 C 0.94982 0.39745 0.53739 0.0
C1620 C 0.96649 0.41176 0.55281 0.0
C1621 C 0.94042 0.37781 0.54788 0.0
C1622 C 0.94815 0.34221 0.59913 0.0
H1623 H 0.87263 0.2447 0.60024 0.0
H1624 H 0.88896 0.27876 0.58042 0.0
H1625 H 0.9476 0.31639 0.62033 0.0
H1626 H 0.98607 0.41673 0.59175 0.0
H1627 H 0.96948 0.38273 0.61049 0.0
H1628 H 0.90732 0.34615 0.57414 0.0
C1629 C 0.8931 0.27567 0.60295 0.0
C1630 C 0.93866 0.32277 0.61038 0.0
C1631 C 0.88379 0.25621 0.61419 0.0
C1632 C 0.97346 0.40599 0.57905 0.0
C1633 C 0.96394 0.38643 0.58974 0.0
C1634 C 0.91639 0.33981 0.58372 0.0
C1635 C 0.90786 0.2909 0.62033 0.0
C1636 C 0.91794 0.31157 0.60828 0.0
C1637 C 0.9473 0.37201 0.57429 0.0
C1638 C 0.93716 0.35108 0.58577 0.0
H1639 H 0.90756 0.2636 0.68318 0.0
H1640 H 0.92413 0.29764 0.6634 0.0
H1641 H 0.89091 0.31212 0.59305 0.0
H1642 H 0.94422 0.40138 0.51691 0.0
H1643 H 0.92789 0.36713 0.53499 0.0
C1644 C 0.77231 0.63557 0.66807 0.0
C1645 C 0.78805 0.64547 0.64718 0.0
C1646 C 0.75274 0.62525 0.65739 0.0
C1647 C 0.72324 0.59872 0.59153 0.0
H1648 H 0.68317 0.61366 0.62044 0.0
C1649 C 0.646 0.56711 0.53393 0.0
C1650 C 0.62951 0.56473 0.55186 0.0
C1651 C 0.66522 0.57674 0.54605 0.0
C1652 C 0.69396 0.60892 0.61247 0.0
H1653 H 0.79567 0.65286 0.59899 0.0
H1654 H 0.76165 0.63397 0.58022 0.0
H1655 H 0.71659 0.62997 0.64172 0.0
H1656 H 0.62003 0.57005 0.59672 0.0
H1657 H 0.65329 0.58589 0.61854 0.0
H1658 H 0.70075 0.57719 0.56316 0.0
C1659 C 0.76444 0.6342 0.60477 0.0
C1660 C 0.71318 0.61841 0.62462 0.0
C1661 C 0.78387 0.64491 0.61549 0.0
C1662 C 0.63255 0.57193 0.58228 0.0
C1663 C 0.6517 0.58115 0.59468 0.0
C1664 C 0.70392 0.58889 0.57987 0.0
C1665 C 0.74867 0.62437 0.62561 0.0
C1666 C 0.72803 0.61354 0.61403 0.0
C1667 C 0.66841 0.58383 0.57673 0.0
C1668 C 0.68898 0.59396 0.58988 0.0
H1669 H 0.77515 0.63603 0.69263 0.0
H1670 H 0.7408 0.61781 0.6739 0.0
H1671 H 0.73443 0.59461 0.58314 0.0
H1672 H 0.64404 0.5618 0.51031 0.0
H1673 H 0.67756 0.57883 0.53109 0.0
C1674 C 0.90074 0.63473 0.18192 0.0
C1675 C 0.8953 0.6468 0.16375 0.0
C1676 C 0.90817 0.6227 0.16803 0.0
C1677 C 0.93548 0.61929 0.1009 0.0
H1678 H 0.91239 0.56309 0.11899 0.0
C1679 C 0.96305 0.56863 0.03855 0.0
C1680 C 0.96328 0.5529 0.05536 0.0
C1681 C 0.95384 0.57956 0.05076 0.0
C1682 C 0.91928 0.57881 0.114 0.0
H1683 H 0.89372 0.65626 0.11712 0.0
H1684 H 0.90731 0.63562 0.09281 0.0
H1685 H 0.89848 0.58332 0.14297 0.0
H1686 H 0.95439 0.53641 0.0982 0.0
H1687 H 0.93908 0.55588 0.12016 0.0
H1688 H 0.9568 0.61519 0.07303 0.0
C1689 C 0.90552 0.63523 0.11769 0.0
C1690 C 0.91119 0.59035 0.12764 0.0
C1691 C 0.89775 0.64696 0.13154 0.0
C1692 C 0.95417 0.5483 0.08459 0.0
C1693 C 0.94529 0.55945 0.09708 0.0
C1694 C 0.94383 0.60785 0.0877 0.0
C1695 C 0.91075 0.62294 0.13581 0.0
C1696 C 0.9192 0.61067 0.12119 0.0
C1697 C 0.94499 0.57527 0.08037 0.0
C1698 C 0.93585 0.58742 0.09404 0.0
H1699 H 0.89941 0.63475 0.20686 0.0
H1700 H 0.91232 0.61353 0.18251 0.0
H1701 H 0.94206 0.635 0.0958 0.0
H1702 H 0.96985 0.57236 0.01583 0.0
H1703 H 0.95359 0.5913 0.03684 0.0
C1704 C 0.43089 0.28164 0.14474 0.0
C1705 C 0.41363 0.26786 0.1298 0.0
C1706 C 0.44126 0.30109 0.1338 0.0
C1707 C 0.44719 0.33261 0.06455 0.0
H1708 H 0.47075 0.37554 0.12357 0.0
C1709 C 0.47844 0.41551 0.03047 0.0
C1710 C 0.49668 0.42872 0.04355 0.0
C1711 C 0.46861 0.39577 0.04039 0.0
C1712 C 0.46441 0.3637 0.10677 0.0
H1713 H 0.39405 0.26393 0.09109 0.0
H1714 H 0.41163 0.29792 0.07281 0.0
H1715 H 0.45296 0.34152 0.14202 0.0
H1716 H 0.51881 0.43153 0.0775 0.0
H1717 H 0.50166 0.39711 0.09477 0.0
H1718 H 0.45839 0.35496 0.02936 0.0
C1719 C 0.41739 0.29362 0.09273 0.0
C1720 C 0.45424 0.34415 0.11734 0.0
C1721 C 0.40709 0.27412 0.10353 0.0
C1722 C 0.50487 0.4217 0.06673 0.0
C1723 C 0.49495 0.40203 0.07685 0.0
C1724 C 0.45722 0.35219 0.05401 0.0
C1725 C 0.43461 0.30741 0.10772 0.0
C1726 C 0.4455 0.32829 0.09638 0.0
C1727 C 0.47668 0.38883 0.06385 0.0
C1728 C 0.46599 0.36797 0.07499 0.0
H1729 H 0.4363 0.27751 0.16523 0.0
H1730 H 0.4546 0.31114 0.14576 0.0
H1731 H 0.44098 0.32083 0.04765 0.0
H1732 H 0.4718 0.4204 0.01242 0.0
H1733 H 0.45449 0.38602 0.03005 0.0
C1734 C 0.76373 0.12419 0.11303 0.0
C1735 C 0.76889 0.13599 0.13985 0.0
C1736 C 0.74401 0.11465 0.10297 0.0
C1737 C 0.69192 0.0988 0.12983 0.0
H1738 H 0.68086 0.09331 0.04207 0.0
C1739 C 0.61263 0.0509 0.08324 0.0
C1740 C 0.60668 0.05734 0.05655 0.0
C1741 C 0.63234 0.06049 0.09335 0.0
C1742 C 0.68361 0.09488 0.06668 0.0
H1743 H 0.75697 0.14673 0.17718 0.0
H1744 H 0.72289 0.13082 0.15903 0.0
H1745 H 0.71505 0.11046 0.05958 0.0
H1746 H 0.61716 0.07906 0.01954 0.0
H1747 H 0.65117 0.09621 0.0378 0.0
H1748 H 0.66045 0.08387 0.13694 0.0
C1749 C 0.73403 0.1286 0.14602 0.0
C1750 C 0.70332 0.10449 0.07677 0.0
C1751 C 0.75372 0.13802 0.15621 0.0
C1752 C 0.62102 0.07376 0.0404 0.0
C1753 C 0.64069 0.08346 0.05065 0.0
C1754 C 0.6722 0.08933 0.11975 0.0
C1755 C 0.72886 0.11673 0.11928 0.0
C1756 C 0.70779 0.10656 0.1085 0.0
C1757 C 0.64668 0.07693 0.07723 0.0
C1758 C 0.66774 0.08718 0.08801 0.0
H1759 H 0.77497 0.12244 0.09951 0.0
H1760 H 0.74066 0.10545 0.08252 0.0
H1761 H 0.69469 0.09984 0.15444 0.0
H1762 H 0.60204 0.0385 0.0966 0.0
H1763 H 0.63635 0.05482 0.11367 0.0
C1764 C 0.57282 0.98728 0.43832 0.0
C1765 C 0.56313 0.98201 0.46709 0.0
C1766 C 0.58345 0.97753 0.42695 0.0
C1767 C 0.58711 0.93102 0.43203 0.0
H1768 H 0.64112 0.96188 0.40251 0.0
C1769 C 0.63782 0.89445 0.40347 0.0
C1770 C 0.65164 0.90229 0.37919 0.0
C1771 C 0.62683 0.90412 0.41351 0.0
C1772 C 0.62595 0.95297 0.41014 0.0
H1773 H 0.55666 0.96243 0.50643 0.0
H1774 H 0.57487 0.94497 0.48623 0.0
H1775 H 0.62208 0.97873 0.42075 0.0
H1776 H 0.66451 0.92617 0.34595 0.0
H1777 H 0.64489 0.94277 0.36267 0.0
H1778 H 0.59065 0.90526 0.42085 0.0
C1779 C 0.57434 0.95669 0.47255 0.0
C1780 C 0.61509 0.96267 0.42072 0.0
C1781 C 0.56398 0.96666 0.48413 0.0
C1782 C 0.6541 0.91991 0.36493 0.0
C1783 C 0.6429 0.92945 0.37467 0.0
C1784 C 0.59786 0.9213 0.42104 0.0
C1785 C 0.58428 0.96211 0.44393 0.0
C1786 C 0.59562 0.9518 0.43198 0.0
C1787 C 0.62917 0.92176 0.39923 0.0
C1788 C 0.6175 0.93213 0.41014 0.0
H1789 H 0.57224 0.99902 0.42477 0.0
H1790 H 0.59084 0.98189 0.40472 0.0
H1791 H 0.57203 0.92226 0.44023 0.0
H1792 H 0.63582 0.88103 0.41519 0.0
H1793 H 0.61676 0.89792 0.43289 0.0
C1794 C 0.07031 0.60586 0.48972 0.0
C1795 C 0.05104 0.59272 0.47994 0.0
C1796 C 0.07987 0.62527 0.47839 0.0
C1797 C 0.07076 0.6642 0.44034 0.0
H1798 H 0.12641 0.68574 0.41751 0.0
C1799 C 0.1123 0.73943 0.37658 0.0
C1800 C 0.13204 0.75175 0.38526 0.0
C1801 C 0.10222 0.72 0.38783 0.0
C1802 C 0.11093 0.68009 0.42411 0.0
H1803 H 0.02677 0.58992 0.45046 0.0
H1804 H 0.04337 0.62381 0.43096 0.0
H1805 H 0.10921 0.65225 0.43822 0.0
H1806 H 0.15646 0.75333 0.41319 0.0
H1807 H 0.13894 0.71964 0.43289 0.0
H1808 H 0.07251 0.6921 0.42641 0.0
C1809 C 0.05101 0.61912 0.44765 0.0
C1810 C 0.10106 0.66084 0.43599 0.0
C1811 C 0.04147 0.59967 0.4589 0.0
C1812 C 0.14141 0.74416 0.40553 0.0
C1813 C 0.13133 0.72479 0.41685 0.0
C1814 C 0.08066 0.6835 0.42855 0.0
C1815 C 0.0704 0.63212 0.45705 0.0
C1816 C 0.08085 0.65265 0.44433 0.0
C1817 C 0.1116 0.71241 0.40815 0.0
C1818 C 0.10091 0.69173 0.42033 0.0
H1819 H 0.07803 0.60119 0.50631 0.0
H1820 H 0.09466 0.63498 0.48657 0.0
H1821 H 0.05526 0.65846 0.44686 0.0
H1822 H 0.1047 0.74471 0.36073 0.0
H1823 H 0.08716 0.71084 0.38024 0.0
C1824 C 0.29531 0.40236 0.40746 0.0
C1825 C 0.2895 0.38608 0.38731 0.0
C1826 C 0.31487 0.41228 0.41805 0.0
C1827 C 0.36624 0.42068 0.40048 0.0
H1828 H 0.37575 0.4377 0.48596 0.0
C1829 C 0.44476 0.45327 0.45431 0.0
C1830 C 0.45017 0.46948 0.4745 0.0
C1831 C 0.42518 0.44281 0.44393 0.0
C1832 C 0.3734 0.43326 0.46193 0.0
H1833 H 0.29994 0.36768 0.36228 0.0
H1834 H 0.33399 0.38482 0.3811 0.0
H1835 H 0.34177 0.42015 0.46724 0.0
H1836 H 0.43897 0.48711 0.49996 0.0
H1837 H 0.40498 0.46914 0.48143 0.0
H1838 H 0.39787 0.43386 0.39514 0.0
C1839 C 0.32342 0.39001 0.38851 0.0
C1840 C 0.35387 0.42317 0.45118 0.0
C1841 C 0.30382 0.38004 0.37797 0.0
C1842 C 0.43542 0.47485 0.48419 0.0
C1843 C 0.41584 0.46438 0.47383 0.0
C1844 C 0.38577 0.43079 0.41123 0.0
C1845 C 0.32919 0.40623 0.40878 0.0
C1846 C 0.35002 0.41678 0.42029 0.0
C1847 C 0.41046 0.44825 0.45347 0.0
C1848 C 0.38962 0.43726 0.44209 0.0
H1849 H 0.28465 0.4073 0.41546 0.0
H1850 H 0.31881 0.42484 0.43335 0.0
H1851 H 0.36386 0.41624 0.37645 0.0
H1852 H 0.45573 0.44883 0.44606 0.0
H1853 H 0.42156 0.43034 0.42856 0.0
C1854 C 0.82371 0.74193 0.17611 0.0
C1855 C 0.82888 0.7293 0.19337 0.0
C1856 C 0.81554 0.75311 0.19078 0.0
C1857 C 0.7855 0.75258 0.25683 0.0
H1858 H 0.80735 0.80932 0.2447 0.0
C1859 C 0.75312 0.79845 0.32173 0.0
C1860 C 0.75298 0.81469 0.30634 0.0
C1861 C 0.76333 0.78858 0.30913 0.0
C1862 C 0.8008 0.79344 0.24801 0.0
H1863 H 0.82931 0.71805 0.23916 0.0
H1864 H 0.81448 0.73718 0.26474 0.0
H1865 H 0.82312 0.79107 0.21974 0.0
H1866 H 0.76305 0.83316 0.26554 0.0
H1867 H 0.7801 0.81554 0.24282 0.0
H1868 H 0.7627 0.75456 0.28389 0.0
C1869 C 0.81703 0.73868 0.24001 0.0
C1870 C 0.80996 0.78304 0.23382 0.0
C1871 C 0.82553 0.72782 0.22544 0.0
C1872 C 0.76317 0.82084 0.27809 0.0
C1873 C 0.77305 0.81076 0.26518 0.0
C1874 C 0.7761 0.76289 0.27055 0.0
C1875 C 0.81194 0.75142 0.22281 0.0
C1876 C 0.80241 0.76252 0.23812 0.0
C1877 C 0.7733 0.79447 0.28049 0.0
C1878 C 0.78359 0.7835 0.26635 0.0
H1879 H 0.8257 0.74292 0.15126 0.0
H1880 H 0.81152 0.76265 0.17697 0.0
H1881 H 0.77927 0.73671 0.26025 0.0
H1882 H 0.74549 0.79351 0.34369 0.0
H1883 H 0.76347 0.77641 0.32203 0.0
C1884 C 0.30043 0.0874 0.24812 0.0
C1885 C 0.31859 0.09339 0.23229 0.0
C1886 C 0.28975 0.06791 0.25878 0.0
C1887 C 0.28308 0.01711 0.24527 0.0
H1888 H 0.25931 0.00662 0.3271 0.0
C1889 C 0.24685 0.93817 0.29712 0.0
C1890 C 0.22955 0.93237 0.31524 0.0
C1891 C 0.25781 0.95784 0.28752 0.0
C1892 C 0.2656 0.00923 0.30402 0.0
H1893 H 0.33967 0.0835 0.21511 0.0
H1894 H 0.32106 0.0495 0.23375 0.0
H1895 H 0.27807 0.04075 0.30939 0.0
H1896 H 0.21045 0.94309 0.33768 0.0
H1897 H 0.22914 0.97718 0.32011 0.0
H1898 H 0.27041 0.98568 0.23958 0.0
C1899 C 0.31506 0.05988 0.23785 0.0
C1900 C 0.27642 0.02884 0.2939 0.0
C1901 C 0.32582 0.07942 0.22743 0.0
C1902 C 0.22354 0.94687 0.32348 0.0
C1903 C 0.23445 0.96655 0.31372 0.0
C1904 C 0.27215 0.99752 0.25528 0.0
C1905 C 0.29688 0.05388 0.25363 0.0
C1906 C 0.28533 0.03302 0.26443 0.0
C1907 C 0.25173 0.97232 0.29555 0.0
C1908 C 0.26329 0.99327 0.28484 0.0
H1909 H 0.29453 0.09783 0.25248 0.0
H1910 H 0.27574 0.06374 0.27064 0.0
H1911 H 0.28949 0.0198 0.22225 0.0
H1912 H 0.25185 0.92744 0.2899 0.0
H1913 H 0.27115 0.96171 0.27393 0.0
C1914 C 0.10212 0.28284 0.2943 0.0
C1915 C 0.10783 0.29618 0.31924 0.0
C1916 C 0.08237 0.27356 0.2844 0.0
C1917 C 0.03495 0.27752 0.28894 0.0
H1918 H 0.01245 0.22352 0.25865 0.0
C1919 C 0.95816 0.24056 0.22947 0.0
C1920 C 0.94601 0.22026 0.23469 0.0
C1921 C 0.97778 0.24975 0.24006 0.0
C1922 C 0.01838 0.23854 0.26733 0.0
H1923 H 0.09711 0.30993 0.3537 0.0
H1924 H 0.06259 0.29347 0.33691 0.0
H1925 H 0.04639 0.23926 0.27751 0.0
H1926 H 0.94484 0.1938 0.25574 0.0
H1927 H 0.97885 0.20982 0.27472 0.0
H1928 H 0.00671 0.27657 0.2797 0.0
C1929 C 0.07345 0.2905 0.32445 0.0
C1930 C 0.03802 0.2477 0.27776 0.0
C1931 C 0.09325 0.29991 0.33418 0.0
C1932 C 0.9539 0.2094 0.25094 0.0
C1933 C 0.97346 0.21861 0.26176 0.0
C1934 C 0.01526 0.26831 0.27869 0.0
C1935 C 0.06772 0.27723 0.29933 0.0
C1936 C 0.04663 0.26736 0.28863 0.0
C1937 C 0.98572 0.23891 0.25639 0.0
C1938 C 0.00669 0.2487 0.26764 0.0
H1939 H 0.11303 0.27988 0.28196 0.0
H1940 H 0.07868 0.26376 0.26463 0.0
H1941 H 0.04107 0.29274 0.29675 0.0
H1942 H 0.95263 0.2493 0.21668 0.0
H1943 H 0.98681 0.2653 0.23496 0.0
C1944 C 0.32213 0.2147 0.7092 0.0
C1945 C 0.33809 0.21476 0.7257 0.0
C1946 C 0.31178 0.22469 0.72074 0.0
C1947 C 0.31611 0.26489 0.77249 0.0
H1948 H 0.25853 0.23741 0.77376 0.0
C1949 C 0.26891 0.29859 0.83083 0.0
C1950 C 0.25083 0.29499 0.81687 0.0
C1951 C 0.27981 0.28889 0.82031 0.0
C1952 C 0.27459 0.24546 0.77319 0.0
H1953 H 0.35599 0.22531 0.7668 0.0
H1954 H 0.33812 0.24318 0.78685 0.0
H1955 H 0.27719 0.22067 0.7537 0.0
H1956 H 0.23032 0.2789 0.78037 0.0
H1957 H 0.24948 0.26243 0.76148 0.0
H1958 H 0.31359 0.28986 0.79128 0.0
C1959 C 0.33359 0.2354 0.76505 0.0
C1960 C 0.28527 0.2358 0.76177 0.0
C1961 C 0.34377 0.22519 0.75368 0.0
C1962 C 0.24403 0.28171 0.79193 0.0
C1963 C 0.25501 0.27221 0.78119 0.0
C1964 C 0.30542 0.27467 0.7836 0.0
C1965 C 0.31738 0.23511 0.74881 0.0
C1966 C 0.30613 0.24541 0.76124 0.0
C1967 C 0.273 0.27554 0.79534 0.0
C1968 C 0.2845 0.2651 0.78402 0.0
H1969 H 0.31758 0.20679 0.6875 0.0
H1970 H 0.29949 0.22438 0.70757 0.0
H1971 H 0.33219 0.27272 0.7721 0.0
H1972 H 0.27443 0.30864 0.85025 0.0
H1973 H 0.29342 0.29165 0.8321 0.0
C1974 C 0.82265 0.09737 0.70819 0.0
C1975 C 0.82298 0.11277 0.72669 0.0
C1976 C 0.8134 0.07777 0.71876 0.0
C1977 C 0.79395 0.04744 0.79059 0.0
H1978 H 0.7672 0.00493 0.73188 0.0
C1979 C 0.74315 0.96589 0.82691 0.0
C1980 C 0.74636 0.95129 0.81118 0.0
C1981 C 0.75251 0.98566 0.817 0.0
C1982 C 0.77472 0.01664 0.74853 0.0
H1983 H 0.81399 0.11992 0.77061 0.0
H1984 H 0.7971 0.08565 0.78874 0.0
H1985 H 0.78318 0.03914 0.71391 0.0
H1986 H 0.76163 0.94595 0.7724 0.0
H1987 H 0.77777 0.98039 0.75491 0.0
H1988 H 0.78494 0.02477 0.82527 0.0
C1989 C 0.80439 0.08861 0.76637 0.0
C1990 C 0.784 0.0363 0.73823 0.0
C1991 C 0.81388 0.10824 0.75594 0.0
C1992 C 0.759 0.95688 0.78517 0.0
C1993 C 0.76811 0.97657 0.775 0.0
C1994 C 0.78442 0.02778 0.80093 0.0
C1995 C 0.80401 0.07304 0.74796 0.0
C1996 C 0.79387 0.05203 0.75907 0.0
C1997 C 0.76502 0.9912 0.79083 0.0
C1998 C 0.7748 0.01214 0.77999 0.0
H1999 H 0.82963 0.10055 0.68557 0.0
H2000 H 0.81382 0.06635 0.70408 0.0
H2001 H 0.80165 0.05901 0.80734 0.0
H2002 H 0.73358 0.96206 0.84711 0.0
H2003 H 0.74974 0.99658 0.82955 0.0
C2004 C 0.07777 0.80779 0.79579 0.0
C2005 C 0.08511 0.79807 0.81587 0.0
C2006 C 0.05811 0.79837 0.78553 0.0
C2007 C 0.00847 0.75718 0.80338 0.0
H2008 H 0.99799 0.76336 0.71755 0.0
C2009 C 0.93082 0.71233 0.74759 0.0
C2010 C 0.92465 0.72235 0.72633 0.0
C2011 C 0.95018 0.72139 0.75934 0.0
C2012 C 1.00057 0.76166 0.74169 0.0
H2013 H 0.07722 0.77084 0.84129 0.0
H2014 H 0.04296 0.75432 0.8231 0.0
H2015 H 0.03195 0.77944 0.73648 0.0
H2016 H 0.93375 0.7494 0.70013 0.0
H2017 H 0.96736 0.76549 0.72108 0.0
H2018 H 0.97703 0.73943 0.80857 0.0
C2019 C 0.05243 0.76931 0.81544 0.0
C2020 C 0.0201 0.77089 0.75255 0.0
C2021 C 0.07215 0.77872 0.82562 0.0
C2022 C 0.93812 0.74152 0.7169 0.0
C2023 C 0.95743 0.7506 0.72864 0.0
C2024 C 0.98889 0.74797 0.79251 0.0
C2025 C 0.04518 0.77897 0.79509 0.0
C2026 C 0.02432 0.76886 0.78357 0.0
C2027 C 0.96381 0.74062 0.74987 0.0
C2028 C 0.98466 0.75016 0.76153 0.0
H2029 H 0.08735 0.8226 0.7875 0.0
H2030 H 0.053 0.80637 0.77017 0.0
H2031 H 0.01113 0.75547 0.82748 0.0
H2032 H 0.92072 0.69739 0.75475 0.0
H2033 H 0.95462 0.71314 0.77528 0.0
loop_
_geom_bond_atom_site_label_1
_geom_bond_atom_site_label_2
_geom_bond_distance
_geom_bond_site_symmetry_2
_ccdc_geom_bond_type
C0 C1 1.443 . S
C0 N4 1.376 . S
C0 C38 1.379 1_655 S
C1 C0 1.443 . S
C1 C2 1.340 . S
C1 H41 0.951 . S
C2 C1 1.340 . S
C2 C3 1.439 . S
C2 H42 0.950 . S
C3 C2 1.439 . S
C3 N4 1.374 . S
C3 C37 1.395 . S
N4 C0 1.376 . S
N4 C3 1.374 . S
N4 Co5 2.008 1_655 S
Co5 N4 2.008 1_455 S
Co5 N6 1.995 1_454 S
Co5 N11 2.008 1_554 S
Co5 N16 1.995 . S
Co5 N21 2.280 1_554 S
Co5 N27 2.282 1_455 S
N6 Co5 1.995 1_656 S
N6 C7 1.376 . S
N6 C10 1.383 . S
C7 N6 1.376 . S
C7 C8 1.446 . S
C7 C37 1.391 1_556 S
C8 C7 1.446 . S
C8 C9 1.339 . S
C8 H43 0.949 . S
C9 C8 1.339 . S
C9 C10 1.439 . S
C9 H44 0.950 . S
C10 N6 1.383 . S
C10 C9 1.439 . S
C10 C39 1.394 . S
N11 Co5 2.008 1_556 S
N11 C12 1.376 . S
N11 C15 1.374 . S
C12 N11 1.376 . S
C12 C13 1.443 . S
C12 C39 1.387 1_455 S
C13 C12 1.443 . S
C13 C14 1.340 . S
C13 H45 0.951 . S
C14 C13 1.340 . S
C14 C15 1.439 . S
C14 H46 0.950 . S
C15 N11 1.374 . S
C15 C14 1.439 . S
C15 C40 1.395 1_556 S
N16 Co5 1.995 . S
N16 C17 1.376 . S
N16 C20 1.383 . S
C17 N16 1.376 . S
C17 C18 1.446 . S
C17 C40 1.391 . S
C18 C17 1.446 . S
C18 C19 1.339 . S
C18 H47 0.949 . S
C19 C18 1.339 . S
C19 C20 1.439 . S
C19 H48 0.950 . S
C20 N16 1.383 . S
C20 C19 1.439 . S
C20 C38 1.402 . S
N21 Co5 2.280 1_556 S
N21 C24 1.332 1_556 S
N21 C26 1.338 . S
C22 C23 1.386 . S
C22 C25 1.388 . S
C23 C22 1.386 . S
C23 C24 1.383 1_556 S
C23 H49 0.950 . S
C24 N21 1.332 1_554 S
C24 C23 1.383 1_554 S
C24 H35 0.950 . S
C25 C22 1.388 . S
C25 C26 1.382 . S
C25 H50 0.950 . S
C26 N21 1.338 . S
C26 C25 1.382 . S
C26 H36 0.948 1_455 S
N27 Co5 2.282 1_655 S
N27 C31 1.332 . S
N27 C32 1.332 . S
C28 C29 1.388 . S
C28 C32 1.382 . S
C28 H51 0.950 . S
C29 C28 1.388 . S
C29 C30 1.386 . S
C30 C29 1.386 . S
C30 C31 1.382 . S
C30 H52 0.950 . S
C31 N27 1.332 . S
C31 C30 1.382 . S
C31 H33 0.952 . S
C32 N27 1.332 . S
C32 C28 1.382 . S
C32 H34 0.948 1_655 S
H33 C31 0.952 . S
H34 C32 0.948 1_455 S
H35 C24 0.950 . S
H36 C26 0.948 1_655 S
C37 C3 1.395 . S
C37 C7 1.391 1_554 S
C38 C0 1.379 1_455 S
C38 C20 1.402 . S
C39 C10 1.394 . S
C39 C12 1.387 1_655 S
C40 C15 1.395 1_554 S
C40 C17 1.391 . S
H41 C1 0.951 . S
H42 C2 0.950 . S
H43 C8 0.949 . S
H44 C9 0.950 . S
H45 C13 0.951 . S
H46 C14 0.950 . S
H47 C18 0.949 . S
H48 C19 0.950 . S
H49 C23 0.950 . S
H50 C25 0.950 . S
H51 C28 0.950 . S
H52 C30 0.950 . S
C53 C54 1.443 . S
C53 N57 1.376 . S
C53 C91 1.389 . S
C54 C53 1.443 . S
C54 C55 1.340 . S
C54 H94 0.951 . S
C55 C54 1.340 . S
C55 C56 1.439 . S
C55 H95 0.950 . S
C56 C55 1.439 . S
C56 N57 1.374 . S
C56 C90 1.395 1_556 S
N57 C53 1.376 . S
N57 C56 1.374 . S
N57 Co58 2.008 1_556 S
Co58 N57 2.008 1_554 S
Co58 N59 1.995 . S
Co58 N64 2.008 . S
Co58 N69 1.995 1_554 S
Co58 N74 2.282 . S
Co58 N80 2.282 1_554 S
N59 Co58 1.995 . S
N59 C60 1.376 . S
N59 C63 1.383 . S
C60 N59 1.376 . S
C60 C61 1.446 . S
C60 C90 1.391 . S
C61 C60 1.446 . S
C61 C62 1.339 . S
C61 H96 0.949 . S
C62 C61 1.339 . S
C62 C63 1.439 . S
C62 H97 0.950 . S
C63 N59 1.383 . S
C63 C62 1.439 . S
C63 C92 1.392 . S
N64 Co58 2.008 . S
N64 C65 1.376 . S
N64 C68 1.374 . S
C65 N64 1.376 . S
C65 C66 1.443 . S
C65 C92 1.389 . S
C66 C65 1.443 . S
C66 C67 1.340 . S
C66 H98 0.951 . S
C67 C66 1.340 . S
C67 C68 1.439 . S
C67 H99 0.950 . S
C68 N64 1.374 . S
C68 C67 1.439 . S
C68 C93 1.395 . S
N69 Co58 1.995 1_556 S
N69 C70 1.376 . S
N69 C73 1.383 . S
C70 N69 1.376 . S
C70 C71 1.446 . S
C70 C93 1.391 1_556 S
C71 C70 1.446 . S
C71 C72 1.339 . S
C71 H100 0.949 . S
C72 C71 1.339 . S
C72 C73 1.439 . S
C72 H101 0.950 . S
C73 N69 1.383 . S
C73 C72 1.439 . S
C73 C91 1.392 . S
N74 Co58 2.282 . S
N74 C77 1.332 . S
N74 C79 1.332 . S
C75 C76 1.386 . S
C75 C78 1.388 . S
C76 C75 1.386 . S
C76 C77 1.382 . S
C76 H102 0.950 . S
C77 N74 1.332 . S
C77 C76 1.382 . S
C77 H88 0.952 . S
C78 C75 1.388 . S
C78 C79 1.382 . S
C78 H103 0.950 . S
C79 N74 1.332 . S
C79 C78 1.382 . S
C79 H89 0.948 . S
N80 Co58 2.282 1_556 S
N80 C84 1.332 . S
N80 C85 1.332 . S
C81 C82 1.388 . S
C81 C85 1.382 . S
C81 H104 0.950 . S
C82 C81 1.388 . S
C82 C83 1.386 . S
C83 C82 1.386 . S
C83 C84 1.382 . S
C83 H105 0.950 . S
C84 N80 1.332 . S
C84 C83 1.382 . S
C84 H86 0.952 1_556 S
C85 N80 1.332 . S
C85 C81 1.382 . S
C85 H87 0.948 . S
H86 C84 0.952 1_554 S
H87 C85 0.948 . S
H88 C77 0.952 . S
H89 C79 0.948 . S
C90 C56 1.395 1_554 S
C90 C60 1.391 . S
C91 C53 1.389 . S
C91 C73 1.392 . S
C92 C63 1.392 . S
C92 C65 1.389 . S
C93 C68 1.395 . S
C93 C70 1.391 1_554 S
H94 C54 0.951 . S
H95 C55 0.950 . S
H96 C61 0.949 . S
H97 C62 0.950 . S
H98 C66 0.951 . S
H99 C67 0.950 . S
H100 C71 0.949 . S
H101 C72 0.950 . S
H102 C76 0.950 . S
H103 C78 0.950 . S
H104 C81 0.950 . S
H105 C83 0.950 . S
C106 C107 1.443 . S
C106 N110 1.376 . S
C106 C144 1.389 . S
C107 C106 1.443 . S
C107 C108 1.340 . S
C107 H147 0.951 . S
C108 C107 1.340 . S
C108 C109 1.439 . S
C108 H148 0.950 . S
C109 C108 1.439 . S
C109 N110 1.374 . S
C109 C143 1.395 . S
N110 C106 1.376 . S
N110 C109 1.374 . S
N110 Co111 2.008 . S
Co111 N110 2.008 . S
Co111 N112 1.995 1_554 S
Co111 N117 2.008 1_544 S
Co111 N122 1.995 1_545 S
Co111 N127 2.282 1_544 S
Co111 N133 2.282 . S
N112 Co111 1.995 1_556 S
N112 C113 1.376 . S
N112 C116 1.383 . S
C113 N112 1.376 . S
C113 C114 1.446 . S
C113 C143 1.391 1_556 S
C114 C113 1.446 . S
C114 C115 1.339 . S
C114 H149 0.949 . S
C115 C114 1.339 . S
C115 C116 1.439 . S
C115 H150 0.950 . S
C116 N112 1.383 . S
C116 C115 1.439 . S
C116 C145 1.392 . S
N117 Co111 2.008 1_566 S
N117 C118 1.376 . S
N117 C121 1.374 . S
C118 N117 1.376 . S
C118 C119 1.443 . S
C118 C145 1.389 1_565 S
C119 C118 1.443 . S
C119 C120 1.340 . S
C119 H151 0.951 . S
C120 C119 1.340 . S
C120 C121 1.439 . S
C120 H152 0.950 . S
C121 N117 1.374 . S
C121 C120 1.439 . S
C121 C146 1.395 1_556 S
N122 Co111 1.995 1_565 S
N122 C123 1.376 . S
N122 C126 1.383 . S
C123 N122 1.376 . S
C123 C124 1.446 . S
C123 C146 1.391 . S
C124 C123 1.446 . S
C124 C125 1.339 . S
C124 H153 0.949 . S
C125 C124 1.339 . S
C125 C126 1.439 . S
C125 H154 0.950 . S
C126 N122 1.383 . S
C126 C125 1.439 . S
C126 C144 1.392 1_565 S
N127 Co111 2.282 1_566 S
N127 C130 1.333 . S
N127 C132 1.332 1_565 S
C128 C129 1.386 . S
C128 C131 1.388 . S
C129 C128 1.386 . S
C129 C130 1.396 . S
C129 H155 0.950 . S
C130 N127 1.333 . S
C130 C129 1.396 . S
C130 H141 0.936 1_556 S
C131 C128 1.388 . S
C131 C132 1.382 1_565 S
C131 H156 0.950 1_565 S
C132 N127 1.332 1_545 S
C132 C131 1.382 1_545 S
C132 H142 0.948 . S
N133 Co111 2.282 . S
N133 C137 1.332 . S
N133 C138 1.332 . S
C134 C135 1.388 . S
C134 C138 1.382 . S
C134 H157 0.950 . S
C135 C134 1.388 . S
C135 C136 1.386 . S
C136 C135 1.386 . S
C136 C137 1.382 . S
C136 H158 0.950 . S
C137 N133 1.332 . S
C137 C136 1.382 . S
C137 H139 0.952 . S
C138 N133 1.332 . S
C138 C134 1.382 . S
C138 H140 0.948 . S
H139 C137 0.952 . S
H140 C138 0.948 . S
H141 C130 0.936 1_554 S
H142 C132 0.948 . S
C143 C109 1.395 . S
C143 C113 1.391 1_554 S
C144 C106 1.389 . S
C144 C126 1.392 1_545 S
C145 C116 1.392 . S
C145 C118 1.389 1_545 S
C146 C121 1.395 1_554 S
C146 C123 1.391 . S
H147 C107 0.951 . S
H148 C108 0.950 . S
H149 C114 0.949 . S
H150 C115 0.950 . S
H151 C119 0.951 . S
H152 C120 0.950 . S
H153 C124 0.949 . S
H154 C125 0.950 . S
H155 C129 0.950 . S
H156 C131 0.950 1_545 S
H157 C134 0.950 . S
H158 C136 0.950 . S
C159 C160 1.443 . S
C159 N163 1.376 . S
C159 C197 1.389 1_545 S
C160 C159 1.443 . S
C160 C161 1.340 . S
C160 H200 0.951 . S
C161 C160 1.340 . S
C161 C162 1.439 . S
C161 H201 0.950 . S
C162 C161 1.439 . S
C162 N163 1.374 . S
C162 C196 1.395 . S
N163 C159 1.376 . S
N163 C162 1.374 . S
N163 Co164 2.008 . S
Co164 N163 2.008 . S
Co164 N165 1.995 . S
Co164 N170 2.008 . S
Co164 N175 1.995 1_545 S
Co164 N180 2.282 . S
Co164 N186 2.282 . S
N165 Co164 1.995 . S
N165 C166 1.376 . S
N165 C169 1.383 . S
C166 N165 1.376 . S
C166 C167 1.446 . S
C166 C196 1.391 . S
C167 C166 1.446 . S
C167 C168 1.339 . S
C167 H202 0.949 . S
C168 C167 1.339 . S
C168 C169 1.439 . S
C168 H203 0.950 . S
C169 N165 1.383 . S
C169 C168 1.439 . S
C169 C198 1.392 . S
N170 Co164 2.008 . S
N170 C171 1.376 . S
N170 C174 1.374 1_545 S
C171 N170 1.376 . S
C171 C172 1.443 . S
C171 C198 1.389 . S
C172 C171 1.443 . S
C172 C173 1.340 1_545 S
C172 H204 0.951 . S
C173 C172 1.340 1_565 S
C173 C174 1.439 . S
C173 H205 0.950 . S
C174 N170 1.374 1_565 S
C174 C173 1.439 . S
C174 C199 1.395 . S
N175 Co164 1.995 1_565 S
N175 C176 1.376 . S
N175 C179 1.383 . S
C176 N175 1.376 . S
C176 C177 1.446 . S
C176 C199 1.391 . S
C177 C176 1.446 . S
C177 C178 1.339 . S
C177 H206 0.949 . S
C178 C177 1.339 . S
C178 C179 1.439 . S
C178 H207 0.950 . S
C179 N175 1.383 . S
C179 C178 1.439 . S
C179 C197 1.392 . S
N180 Co164 2.282 . S
N180 C183 1.332 1_545 S
N180 C185 1.332 . S
C181 C182 1.386 1_545 S
C181 C184 1.388 . S
C182 C181 1.386 1_565 S
C182 C183 1.382 . S
C182 H208 0.950 . S
C183 N180 1.332 1_565 S
C183 C182 1.382 . S
C183 H194 0.952 . S
C184 C181 1.388 . S
C184 C185 1.382 . S
C184 H209 0.950 . S
C185 N180 1.332 . S
C185 C184 1.382 . S
C185 H195 0.948 . S
N186 Co164 2.282 . S
N186 C190 1.332 . S
N186 C191 1.332 1_545 S
C187 C188 1.388 1_565 S
C187 C191 1.382 . S
C187 H210 0.950 . S
C188 C187 1.388 1_545 S
C188 C189 1.386 . S
C189 C188 1.386 . S
C189 C190 1.382 . S
C189 H211 0.950 . S
C190 N186 1.332 . S
C190 C189 1.382 . S
C190 H192 0.952 . S
C191 N186 1.332 1_565 S
C191 C187 1.382 . S
C191 H193 0.948 . S
H192 C190 0.952 . S
H193 C191 0.948 . S
H194 C183 0.952 . S
H195 C185 0.948 . S
C196 C162 1.395 . S
C196 C166 1.391 . S
C197 C159 1.389 1_565 S
C197 C179 1.392 . S
C198 C169 1.392 . S
C198 C171 1.389 . S
C199 C174 1.395 . S
C199 C176 1.391 . S
H200 C160 0.951 . S
H201 C161 0.950 . S
H202 C167 0.949 . S
H203 C168 0.950 . S
H204 C172 0.951 . S
H205 C173 0.950 . S
H206 C177 0.949 . S
H207 C178 0.950 . S
H208 C182 0.950 . S
H209 C184 0.950 . S
H210 C187 0.950 . S
H211 C189 0.950 . S
C212 C213 1.443 . S
C212 N216 1.376 . S
C212 C250 1.387 1_455 S
C213 C212 1.443 . S
C213 C214 1.340 . S
C213 H253 0.951 . S
C214 C213 1.340 . S
C214 C215 1.439 . S
C214 H254 0.950 . S
C215 C214 1.439 . S
C215 N216 1.374 . S
C215 C249 1.395 . S
N216 C212 1.376 . S
N216 C215 1.374 . S
N216 Co217 2.011 . S
Co217 N216 2.011 . S
Co217 N218 1.997 . S
Co217 N223 2.005 1_455 S
Co217 N228 1.992 1_455 S
Co217 N233 2.283 1_455 S
Co217 N239 2.282 . S
N218 Co217 1.997 . S
N218 C219 1.376 . S
N218 C222 1.383 . S
C219 N218 1.376 . S
C219 C220 1.446 . S
C219 C249 1.391 . S
C220 C219 1.446 . S
C220 C221 1.339 . S
C220 H255 0.949 . S
C221 C220 1.339 . S
C221 C222 1.439 . S
C221 H256 0.950 . S
C222 N218 1.383 . S
C222 C221 1.439 . S
C222 C251 1.414 . S
N223 Co217 2.005 1_655 S
N223 C224 1.376 . S
N223 C227 1.374 . S
C224 N223 1.376 . S
C224 C225 1.443 . S
C224 C251 1.366 1_655 S
C225 C224 1.443 . S
C225 C226 1.340 . S
C225 H257 0.951 . S
C226 C225 1.340 . S
C226 C227 1.439 . S
C226 H258 0.950 . S
C227 N223 1.374 . S
C227 C226 1.439 . S
C227 C252 1.395 . S
N228 Co217 1.992 1_655 S
N228 C229 1.376 . S
N228 C232 1.383 . S
C229 N228 1.376 . S
C229 C230 1.446 . S
C229 C252 1.391 . S
C230 C229 1.446 . S
C230 C231 1.339 . S
C230 H259 0.949 . S
C231 C230 1.339 . S
C231 C232 1.439 . S
C231 H260 0.950 . S
C232 N228 1.383 . S
C232 C231 1.439 . S
C232 C250 1.394 . S
N233 Co217 2.283 1_655 S
N233 C236 1.332 . S
N233 C238 1.332 . S
C234 C235 1.386 . S
C234 C237 1.388 . S
C235 C234 1.386 . S
C235 C236 1.382 . S
C235 H261 0.950 . S
C236 N233 1.332 . S
C236 C235 1.382 . S
C236 H247 0.952 . S
C237 C234 1.388 . S
C237 C238 1.382 . S
C237 H262 0.950 . S
C238 N233 1.332 . S
C238 C237 1.382 . S
C238 H248 0.948 1_655 S
N239 Co217 2.282 . S
N239 C243 1.332 . S
N239 C244 1.332 . S
C240 C241 1.388 . S
C240 C244 1.382 . S
C240 H263 0.950 . S
C241 C240 1.388 . S
C241 C242 1.386 . S
C242 C241 1.386 . S
C242 C243 1.382 . S
C242 H264 0.950 . S
C243 N239 1.332 . S
C243 C242 1.382 . S
C243 H245 0.952 . S
C244 N239 1.332 . S
C244 C240 1.382 . S
C244 H246 0.948 1_455 S
H245 C243 0.952 . S
H246 C244 0.948 1_655 S
H247 C236 0.952 . S
H248 C238 0.948 1_455 S
C249 C215 1.395 . S
C249 C219 1.391 . S
C250 C212 1.387 1_655 S
C250 C232 1.394 . S
C251 C222 1.414 . S
C251 C224 1.366 1_455 S
C252 C227 1.395 . S
C252 C229 1.391 . S
H253 C213 0.951 . S
H254 C214 0.950 . S
H255 C220 0.949 . S
H256 C221 0.950 . S
H257 C225 0.951 . S
H258 C226 0.950 . S
H259 C230 0.949 . S
H260 C231 0.950 . S
H261 C235 0.950 . S
H262 C237 0.950 . S
H263 C240 0.950 . S
H264 C242 0.950 . S
C265 C266 1.443 . S
C265 N269 1.376 . S
C265 C303 1.389 . S
C266 C265 1.443 . S
C266 C267 1.340 . S
C266 H306 0.951 . S
C267 C266 1.340 . S
C267 C268 1.439 . S
C267 H307 0.950 . S
C268 C267 1.439 . S
C268 N269 1.374 . S
C268 C302 1.395 . S
N269 C265 1.376 . S
N269 C268 1.374 . S
N269 Co270 2.008 . S
Co270 N269 2.008 . S
Co270 N271 1.995 . S
Co270 N276 2.008 . S
Co270 N281 1.995 . S
Co270 N286 2.282 . S
Co270 N292 2.282 . S
N271 Co270 1.995 . S
N271 C272 1.376 . S
N271 C275 1.383 . S
C272 N271 1.376 . S
C272 C273 1.446 . S
C272 C302 1.391 . S
C273 C272 1.446 . S
C273 C274 1.339 . S
C273 H308 0.949 . S
C274 C273 1.339 . S
C274 C275 1.439 . S
C274 H309 0.950 . S
C275 N271 1.383 . S
C275 C274 1.439 . S
C275 C304 1.392 . S
N276 Co270 2.008 . S
N276 C277 1.376 . S
N276 C280 1.374 . S
C277 N276 1.376 . S
C277 C278 1.443 . S
C277 C304 1.389 . S
C278 C277 1.443 . S
C278 C279 1.340 . S
C278 H310 0.951 . S
C279 C278 1.340 . S
C279 C280 1.439 . S
C279 H311 0.950 . S
C280 N276 1.374 . S
C280 C279 1.439 . S
C280 C305 1.395 . S
N281 Co270 1.995 . S
N281 C282 1.376 . S
N281 C285 1.383 . S
C282 N281 1.376 . S
C282 C283 1.446 . S
C282 C305 1.391 . S
C283 C282 1.446 . S
C283 C284 1.339 . S
C283 H312 0.949 . S
C284 C283 1.339 . S
C284 C285 1.439 . S
C284 H313 0.950 . S
C285 N281 1.383 . S
C285 C284 1.439 . S
C285 C303 1.392 . S
N286 Co270 2.282 . S
N286 C289 1.332 . S
N286 C291 1.332 . S
C287 C288 1.386 . S
C287 C290 1.388 . S
C288 C287 1.386 . S
C288 C289 1.382 . S
C288 H314 0.950 . S
C289 N286 1.332 . S
C289 C288 1.382 . S
C289 H300 0.952 . S
C290 C287 1.388 . S
C290 C291 1.382 . S
C290 H315 0.950 . S
C291 N286 1.332 . S
C291 C290 1.382 . S
C291 H301 0.948 . S
N292 Co270 2.282 . S
N292 C296 1.332 . S
N292 C297 1.332 . S
C293 C294 1.388 . S
C293 C297 1.382 . S
C293 H316 0.950 . S
C294 C293 1.388 . S
C294 C295 1.386 . S
C295 C294 1.386 . S
C295 C296 1.382 . S
C295 H317 0.950 . S
C296 N292 1.332 . S
C296 C295 1.382 . S
C296 H298 0.952 . S
C297 N292 1.332 . S
C297 C293 1.382 . S
C297 H299 0.948 . S
H298 C296 0.952 . S
H299 C297 0.948 . S
H300 C289 0.952 . S
H301 C291 0.948 . S
C302 C268 1.395 . S
C302 C272 1.391 . S
C303 C265 1.389 . S
C303 C285 1.392 . S
C304 C275 1.392 . S
C304 C277 1.389 . S
C305 C280 1.395 . S
C305 C282 1.391 . S
H306 C266 0.951 . S
H307 C267 0.950 . S
H308 C273 0.949 . S
H309 C274 0.950 . S
H310 C278 0.951 . S
H311 C279 0.950 . S
H312 C283 0.949 . S
H313 C284 0.950 . S
H314 C288 0.950 . S
H315 C290 0.950 . S
H316 C293 0.950 . S
H317 C295 0.950 . S
C318 C319 1.443 . S
C318 N322 1.376 . S
C318 C356 1.389 . S
C319 C318 1.443 . S
C319 C320 1.340 . S
C319 H359 0.951 . S
C320 C319 1.340 . S
C320 C321 1.439 . S
C320 H360 0.950 . S
C321 C320 1.439 . S
C321 N322 1.374 . S
C321 C355 1.395 . S
N322 C318 1.376 . S
N322 C321 1.374 . S
N322 Co323 2.008 . S
Co323 N322 2.008 . S
Co323 N324 1.995 . S
Co323 N329 2.008 . S
Co323 N334 1.995 . S
Co323 N339 2.282 . S
Co323 N345 2.282 . S
N324 Co323 1.995 . S
N324 C325 1.376 . S
N324 C328 1.383 . S
C325 N324 1.376 . S
C325 C326 1.446 . S
C325 C355 1.391 . S
C326 C325 1.446 . S
C326 C327 1.339 . S
C326 H361 0.949 . S
C327 C326 1.339 . S
C327 C328 1.439 . S
C327 H362 0.950 . S
C328 N324 1.383 . S
C328 C327 1.439 . S
C328 C357 1.392 . S
N329 Co323 2.008 . S
N329 C330 1.376 . S
N329 C333 1.374 . S
C330 N329 1.376 . S
C330 C331 1.443 . S
C330 C357 1.389 . S
C331 C330 1.443 . S
C331 C332 1.340 . S
C331 H363 0.951 . S
C332 C331 1.340 . S
C332 C333 1.439 . S
C332 H364 0.950 . S
C333 N329 1.374 . S
C333 C332 1.439 . S
C333 C358 1.395 . S
N334 Co323 1.995 . S
N334 C335 1.376 . S
N334 C338 1.383 . S
C335 N334 1.376 . S
C335 C336 1.446 . S
C335 C358 1.391 . S
C336 C335 1.446 . S
C336 C337 1.339 . S
C336 H365 0.949 . S
C337 C336 1.339 . S
C337 C338 1.439 . S
C337 H366 0.950 . S
C338 N334 1.383 . S
C338 C337 1.439 . S
C338 C356 1.392 . S
N339 Co323 2.282 . S
N339 C342 1.332 . S
N339 C344 1.332 . S
C340 C341 1.386 . S
C340 C343 1.388 . S
C341 C340 1.386 . S
C341 C342 1.382 . S
C341 H367 0.950 . S
C342 N339 1.332 . S
C342 C341 1.382 . S
C342 H353 0.952 . S
C343 C340 1.388 . S
C343 C344 1.382 . S
C343 H368 0.950 . S
C344 N339 1.332 . S
C344 C343 1.382 . S
C344 H354 0.948 . S
N345 Co323 2.282 . S
N345 C349 1.332 . S
N345 C350 1.332 . S
C346 C347 1.388 . S
C346 C350 1.382 . S
C346 H369 0.950 . S
C347 C346 1.388 . S
C347 C348 1.386 . S
C348 C347 1.386 . S
C348 C349 1.382 . S
C348 H370 0.950 . S
C349 N345 1.332 . S
C349 C348 1.382 . S
C349 H351 0.952 . S
C350 N345 1.332 . S
C350 C346 1.382 . S
C350 H352 0.948 . S
H351 C349 0.952 . S
H352 C350 0.948 . S
H353 C342 0.952 . S
H354 C344 0.948 . S
C355 C321 1.395 . S
C355 C325 1.391 . S
C356 C318 1.389 . S
C356 C338 1.392 . S
C357 C328 1.392 . S
C357 C330 1.389 . S
C358 C333 1.395 . S
C358 C335 1.391 . S
H359 C319 0.951 . S
H360 C320 0.950 . S
H361 C326 0.949 . S
H362 C327 0.950 . S
H363 C331 0.951 . S
H364 C332 0.950 . S
H365 C336 0.949 . S
H366 C337 0.950 . S
H367 C341 0.950 . S
H368 C343 0.950 . S
H369 C346 0.950 . S
H370 C348 0.950 . S
C371 C372 1.443 . S
C371 N375 1.376 . S
C371 C409 1.389 . S
C372 C371 1.443 . S
C372 C373 1.340 . S
C372 H412 0.951 . S
C373 C372 1.340 . S
C373 C374 1.439 . S
C373 H413 0.950 . S
C374 C373 1.439 . S
C374 N375 1.374 . S
C374 C408 1.395 . S
N375 C371 1.376 . S
N375 C374 1.374 . S
N375 Co376 2.008 . S
Co376 N375 2.008 . S
Co376 N377 1.995 . S
Co376 N382 2.008 . S
Co376 N387 1.995 . S
Co376 N392 2.282 . S
Co376 N398 2.282 . S
N377 Co376 1.995 . S
N377 C378 1.376 . S
N377 C381 1.383 . S
C378 N377 1.376 . S
C378 C379 1.446 . S
C378 C408 1.391 . S
C379 C378 1.446 . S
C379 C380 1.339 . S
C379 H414 0.949 . S
C380 C379 1.339 . S
C380 C381 1.439 . S
C380 H415 0.950 . S
C381 N377 1.383 . S
C381 C380 1.439 . S
C381 C410 1.392 . S
N382 Co376 2.008 . S
N382 C383 1.376 . S
N382 C386 1.374 . S
C383 N382 1.376 . S
C383 C384 1.443 . S
C383 C410 1.389 . S
C384 C383 1.443 . S
C384 C385 1.340 . S
C384 H416 0.951 . S
C385 C384 1.340 . S
C385 C386 1.439 . S
C385 H417 0.950 . S
C386 N382 1.374 . S
C386 C385 1.439 . S
C386 C411 1.395 . S
N387 Co376 1.995 . S
N387 C388 1.376 . S
N387 C391 1.383 . S
C388 N387 1.376 . S
C388 C389 1.446 . S
C388 C411 1.391 . S
C389 C388 1.446 . S
C389 C390 1.339 . S
C389 H418 0.949 . S
C390 C389 1.339 . S
C390 C391 1.439 . S
C390 H419 0.950 . S
C391 N387 1.383 . S
C391 C390 1.439 . S
C391 C409 1.392 . S
N392 Co376 2.282 . S
N392 C395 1.332 . S
N392 C397 1.332 . S
C393 C394 1.386 . S
C393 C396 1.388 . S
C394 C393 1.386 . S
C394 C395 1.382 . S
C394 H420 0.950 . S
C395 N392 1.332 . S
C395 C394 1.382 . S
C395 H406 0.952 . S
C396 C393 1.388 . S
C396 C397 1.382 . S
C396 H421 0.950 . S
C397 N392 1.332 . S
C397 C396 1.382 . S
C397 H407 0.948 . S
N398 Co376 2.282 . S
N398 C402 1.332 . S
N398 C403 1.332 . S
C399 C400 1.388 . S
C399 C403 1.382 . S
C399 H422 0.950 . S
C400 C399 1.388 . S
C400 C401 1.386 . S
C401 C400 1.386 . S
C401 C402 1.382 . S
C401 H423 0.950 . S
C402 N398 1.332 . S
C402 C401 1.382 . S
C402 H404 0.952 . S
C403 N398 1.332 . S
C403 C399 1.382 . S
C403 H405 0.948 . S
H404 C402 0.952 . S
H405 C403 0.948 . S
H406 C395 0.952 . S
H407 C397 0.948 . S
C408 C374 1.395 . S
C408 C378 1.391 . S
C409 C371 1.389 . S
C409 C391 1.392 . S
C410 C381 1.392 . S
C410 C383 1.389 . S
C411 C386 1.395 . S
C411 C388 1.391 . S
H412 C372 0.951 . S
H413 C373 0.950 . S
H414 C379 0.949 . S
H415 C380 0.950 . S
H416 C384 0.951 . S
H417 C385 0.950 . S
H418 C389 0.949 . S
H419 C390 0.950 . S
H420 C394 0.950 . S
H421 C396 0.950 . S
H422 C399 0.950 . S
H423 C401 0.950 . S
C424 C425 1.443 . S
C424 N428 1.376 . S
C424 C462 1.389 . S
C425 C424 1.443 . S
C425 C426 1.340 . S
C425 H465 0.951 . S
C426 C425 1.340 . S
C426 C427 1.439 . S
C426 H466 0.950 . S
C427 C426 1.439 . S
C427 N428 1.374 . S
C427 C461 1.395 . S
N428 C424 1.376 . S
N428 C427 1.374 . S
N428 Co429 2.008 . S
Co429 N428 2.008 . S
Co429 N430 1.995 . S
Co429 N435 2.008 . S
Co429 N440 1.995 . S
Co429 N445 2.282 . S
Co429 N451 2.282 . S
N430 Co429 1.995 . S
N430 C431 1.376 . S
N430 C434 1.383 . S
C431 N430 1.376 . S
C431 C432 1.446 . S
C431 C461 1.391 . S
C432 C431 1.446 . S
C432 C433 1.339 . S
C432 H467 0.949 . S
C433 C432 1.339 . S
C433 C434 1.439 . S
C433 H468 0.950 . S
C434 N430 1.383 . S
C434 C433 1.439 . S
C434 C463 1.392 . S
N435 Co429 2.008 . S
N435 C436 1.376 . S
N435 C439 1.374 . S
C436 N435 1.376 . S
C436 C437 1.443 . S
C436 C463 1.389 . S
C437 C436 1.443 . S
C437 C438 1.340 . S
C437 H469 0.951 . S
C438 C437 1.340 . S
C438 C439 1.439 . S
C438 H470 0.950 . S
C439 N435 1.374 . S
C439 C438 1.439 . S
C439 C464 1.395 . S
N440 Co429 1.995 . S
N440 C441 1.376 . S
N440 C444 1.383 . S
C441 N440 1.376 . S
C441 C442 1.446 . S
C441 C464 1.391 . S
C442 C441 1.446 . S
C442 C443 1.339 . S
C442 H471 0.949 . S
C443 C442 1.339 . S
C443 C444 1.439 . S
C443 H472 0.950 . S
C444 N440 1.383 . S
C444 C443 1.439 . S
C444 C462 1.392 . S
N445 Co429 2.282 . S
N445 C448 1.332 . S
N445 C450 1.332 . S
C446 C447 1.386 . S
C446 C449 1.388 . S
C447 C446 1.386 . S
C447 C448 1.382 . S
C447 H473 0.950 . S
C448 N445 1.332 . S
C448 C447 1.382 . S
C448 H459 0.952 . S
C449 C446 1.388 . S
C449 C450 1.382 . S
C449 H474 0.950 . S
C450 N445 1.332 . S
C450 C449 1.382 . S
C450 H460 0.948 . S
N451 Co429 2.282 . S
N451 C455 1.332 . S
N451 C456 1.332 . S
C452 C453 1.388 . S
C452 C456 1.382 . S
C452 H475 0.950 . S
C453 C452 1.388 . S
C453 C454 1.386 . S
C454 C453 1.386 . S
C454 C455 1.382 . S
C454 H476 0.950 . S
C455 N451 1.332 . S
C455 C454 1.382 . S
C455 H457 0.952 . S
C456 N451 1.332 . S
C456 C452 1.382 . S
C456 H458 0.948 . S
H457 C455 0.952 . S
H458 C456 0.948 . S
H459 C448 0.952 . S
H460 C450 0.948 . S
C461 C427 1.395 . S
C461 C431 1.391 . S
C462 C424 1.389 . S
C462 C444 1.392 . S
C463 C434 1.392 . S
C463 C436 1.389 . S
C464 C439 1.395 . S
C464 C441 1.391 . S
H465 C425 0.951 . S
H466 C426 0.950 . S
H467 C432 0.949 . S
H468 C433 0.950 . S
H469 C437 0.951 . S
H470 C438 0.950 . S
H471 C442 0.949 . S
H472 C443 0.950 . S
H473 C447 0.950 . S
H474 C449 0.950 . S
H475 C452 0.950 . S
H476 C454 0.950 . S
C477 C478 1.443 . S
C477 N481 1.376 . S
C477 C515 1.389 . S
C478 C477 1.443 . S
C478 C479 1.340 . S
C478 H518 0.951 . S
C479 C478 1.340 . S
C479 C480 1.439 . S
C479 H519 0.950 . S
C480 C479 1.439 . S
C480 N481 1.374 . S
C480 C514 1.395 . S
N481 C477 1.376 . S
N481 C480 1.374 . S
N481 Co482 2.008 . S
Co482 N481 2.008 . S
Co482 N483 1.995 . S
Co482 N488 2.008 . S
Co482 N493 1.995 . S
Co482 N498 2.282 . S
Co482 N504 2.282 . S
N483 Co482 1.995 . S
N483 C484 1.376 . S
N483 C487 1.383 . S
C484 N483 1.376 . S
C484 C485 1.446 . S
C484 C514 1.391 . S
C485 C484 1.446 . S
C485 C486 1.339 . S
C485 H520 0.949 . S
C486 C485 1.339 . S
C486 C487 1.439 . S
C486 H521 0.950 . S
C487 N483 1.383 . S
C487 C486 1.439 . S
C487 C516 1.392 . S
N488 Co482 2.008 . S
N488 C489 1.376 . S
N488 C492 1.374 . S
C489 N488 1.376 . S
C489 C490 1.443 . S
C489 C516 1.389 . S
C490 C489 1.443 . S
C490 C491 1.340 . S
C490 H522 0.951 . S
C491 C490 1.340 . S
C491 C492 1.439 . S
C491 H523 0.950 . S
C492 N488 1.374 . S
C492 C491 1.439 . S
C492 C517 1.395 . S
N493 Co482 1.995 . S
N493 C494 1.376 . S
N493 C497 1.383 . S
C494 N493 1.376 . S
C494 C495 1.446 . S
C494 C517 1.391 . S
C495 C494 1.446 . S
C495 C496 1.339 . S
C495 H524 0.949 . S
C496 C495 1.339 . S
C496 C497 1.439 . S
C496 H525 0.950 . S
C497 N493 1.383 . S
C497 C496 1.439 . S
C497 C515 1.392 . S
N498 Co482 2.282 . S
N498 C501 1.332 . S
N498 C503 1.332 . S
C499 C500 1.386 . S
C499 C502 1.388 . S
C500 C499 1.386 . S
C500 C501 1.382 . S
C500 H526 0.950 . S
C501 N498 1.332 . S
C501 C500 1.382 . S
C501 H512 0.952 . S
C502 C499 1.388 . S
C502 C503 1.382 . S
C502 H527 0.950 . S
C503 N498 1.332 . S
C503 C502 1.382 . S
C503 H513 0.948 . S
N504 Co482 2.282 . S
N504 C508 1.332 . S
N504 C509 1.332 . S
C505 C506 1.388 . S
C505 C509 1.382 . S
C505 H528 0.950 . S
C506 C505 1.388 . S
C506 C507 1.386 . S
C507 C506 1.386 . S
C507 C508 1.382 . S
C507 H529 0.950 . S
C508 N504 1.332 . S
C508 C507 1.382 . S
C508 H510 0.952 . S
C509 N504 1.332 . S
C509 C505 1.382 . S
C509 H511 0.948 . S
H510 C508 0.952 . S
H511 C509 0.948 . S
H512 C501 0.952 . S
H513 C503 0.948 . S
C514 C480 1.395 . S
C514 C484 1.391 . S
C515 C477 1.389 . S
C515 C497 1.392 . S
C516 C487 1.392 . S
C516 C489 1.389 . S
C517 C492 1.395 . S
C517 C494 1.391 . S
H518 C478 0.951 . S
H519 C479 0.950 . S
H520 C485 0.949 . S
H521 C486 0.950 . S
H522 C490 0.951 . S
H523 C491 0.950 . S
H524 C495 0.949 . S
H525 C496 0.950 . S
H526 C500 0.950 . S
H527 C502 0.950 . S
H528 C505 0.950 . S
H529 C507 0.950 . S
C530 C531 1.443 . S
C530 N534 1.376 . S
C530 C568 1.389 . S
C531 C530 1.443 . S
C531 C532 1.340 . S
C531 H571 0.951 . S
C532 C531 1.340 . S
C532 C533 1.439 . S
C532 H572 0.950 . S
C533 C532 1.439 . S
C533 N534 1.374 . S
C533 C567 1.395 . S
N534 C530 1.376 . S
N534 C533 1.374 . S
N534 Co535 2.008 . S
Co535 N534 2.008 . S
Co535 N536 1.995 . S
Co535 N541 2.008 . S
Co535 N546 1.995 . S
Co535 N551 2.282 . S
Co535 N557 2.282 . S
N536 Co535 1.995 . S
N536 C537 1.376 . S
N536 C540 1.383 . S
C537 N536 1.376 . S
C537 C538 1.446 . S
C537 C567 1.391 . S
C538 C537 1.446 . S
C538 C539 1.339 . S
C538 H573 0.949 . S
C539 C538 1.339 . S
C539 C540 1.439 . S
C539 H574 0.950 . S
C540 N536 1.383 . S
C540 C539 1.439 . S
C540 C569 1.392 . S
N541 Co535 2.008 . S
N541 C542 1.376 . S
N541 C545 1.374 . S
C542 N541 1.376 . S
C542 C543 1.443 . S
C542 C569 1.389 . S
C543 C542 1.443 . S
C543 C544 1.340 . S
C543 H575 0.951 . S
C544 C543 1.340 . S
C544 C545 1.439 . S
C544 H576 0.950 . S
C545 N541 1.374 . S
C545 C544 1.439 . S
C545 C570 1.395 . S
N546 Co535 1.995 . S
N546 C547 1.376 . S
N546 C550 1.383 . S
C547 N546 1.376 . S
C547 C548 1.446 . S
C547 C570 1.391 . S
C548 C547 1.446 . S
C548 C549 1.339 . S
C548 H577 0.949 . S
C549 C548 1.339 . S
C549 C550 1.439 . S
C549 H578 0.950 . S
C550 N546 1.383 . S
C550 C549 1.439 . S
C550 C568 1.392 . S
N551 Co535 2.282 . S
N551 C554 1.332 . S
N551 C556 1.332 . S
C552 C553 1.386 . S
C552 C555 1.388 . S
C553 C552 1.386 . S
C553 C554 1.382 . S
C553 H579 0.950 . S
C554 N551 1.332 . S
C554 C553 1.382 . S
C554 H565 0.952 . S
C555 C552 1.388 . S
C555 C556 1.382 . S
C555 H580 0.950 . S
C556 N551 1.332 . S
C556 C555 1.382 . S
C556 H566 0.948 . S
N557 Co535 2.282 . S
N557 C561 1.332 . S
N557 C562 1.332 . S
C558 C559 1.388 . S
C558 C562 1.382 . S
C558 H581 0.950 . S
C559 C558 1.388 . S
C559 C560 1.386 . S
C560 C559 1.386 . S
C560 C561 1.382 . S
C560 H582 0.950 . S
C561 N557 1.332 . S
C561 C560 1.382 . S
C561 H563 0.952 . S
C562 N557 1.332 . S
C562 C558 1.382 . S
C562 H564 0.948 . S
H563 C561 0.952 . S
H564 C562 0.948 . S
H565 C554 0.952 . S
H566 C556 0.948 . S
C567 C533 1.395 . S
C567 C537 1.391 . S
C568 C530 1.389 . S
C568 C550 1.392 . S
C569 C540 1.392 . S
C569 C542 1.389 . S
C570 C545 1.395 . S
C570 C547 1.391 . S
H571 C531 0.951 . S
H572 C532 0.950 . S
H573 C538 0.949 . S
H574 C539 0.950 . S
H575 C543 0.951 . S
H576 C544 0.950 . S
H577 C548 0.949 . S
H578 C549 0.950 . S
H579 C553 0.950 . S
H580 C555 0.950 . S
H581 C558 0.950 . S
H582 C560 0.950 . S
C583 C584 1.443 . S
C583 N587 1.376 . S
C583 C621 1.389 . S
C584 C583 1.443 . S
C584 C585 1.340 . S
C584 H624 0.951 . S
C585 C584 1.340 . S
C585 C586 1.439 . S
C585 H625 0.950 . S
C586 C585 1.439 . S
C586 N587 1.374 . S
C586 C620 1.395 . S
N587 C583 1.376 . S
N587 C586 1.374 . S
N587 Co588 2.008 . S
Co588 N587 2.008 . S
Co588 N589 1.995 . S
Co588 N594 2.008 . S
Co588 N599 1.995 . S
Co588 N604 2.282 . S
Co588 N610 2.282 . S
N589 Co588 1.995 . S
N589 C590 1.376 . S
N589 C593 1.383 . S
C590 N589 1.376 . S
C590 C591 1.446 . S
C590 C620 1.391 . S
C591 C590 1.446 . S
C591 C592 1.339 . S
C591 H626 0.949 . S
C592 C591 1.339 . S
C592 C593 1.439 . S
C592 H627 0.950 . S
C593 N589 1.383 . S
C593 C592 1.439 . S
C593 C622 1.392 . S
N594 Co588 2.008 . S
N594 C595 1.376 . S
N594 C598 1.374 . S
C595 N594 1.376 . S
C595 C596 1.443 . S
C595 C622 1.389 . S
C596 C595 1.443 . S
C596 C597 1.340 . S
C596 H628 0.951 . S
C597 C596 1.340 . S
C597 C598 1.439 . S
C597 H629 0.950 . S
C598 N594 1.374 . S
C598 C597 1.439 . S
C598 C623 1.395 . S
N599 Co588 1.995 . S
N599 C600 1.376 . S
N599 C603 1.383 . S
C600 N599 1.376 . S
C600 C601 1.446 . S
C600 C623 1.391 . S
C601 C600 1.446 . S
C601 C602 1.339 . S
C601 H630 0.949 . S
C602 C601 1.339 . S
C602 C603 1.439 . S
C602 H631 0.950 . S
C603 N599 1.383 . S
C603 C602 1.439 . S
C603 C621 1.392 . S
N604 Co588 2.282 . S
N604 C607 1.332 . S
N604 C609 1.332 . S
C605 C606 1.386 . S
C605 C608 1.388 . S
C606 C605 1.386 . S
C606 C607 1.382 . S
C606 H632 0.950 . S
C607 N604 1.332 . S
C607 C606 1.382 . S
C607 H618 0.952 . S
C608 C605 1.388 . S
C608 C609 1.382 . S
C608 H633 0.950 . S
C609 N604 1.332 . S
C609 C608 1.382 . S
C609 H619 0.948 . S
N610 Co588 2.282 . S
N610 C614 1.332 . S
N610 C615 1.332 . S
C611 C612 1.388 . S
C611 C615 1.382 . S
C611 H634 0.950 . S
C612 C611 1.388 . S
C612 C613 1.386 . S
C613 C612 1.386 . S
C613 C614 1.382 . S
C613 H635 0.950 . S
C614 N610 1.332 . S
C614 C613 1.382 . S
C614 H616 0.952 . S
C615 N610 1.332 . S
C615 C611 1.382 . S
C615 H617 0.948 . S
H616 C614 0.952 . S
H617 C615 0.948 . S
H618 C607 0.952 . S
H619 C609 0.948 . S
C620 C586 1.395 . S
C620 C590 1.391 . S
C621 C583 1.389 . S
C621 C603 1.392 . S
C622 C593 1.392 . S
C622 C595 1.389 . S
C623 C598 1.395 . S
C623 C600 1.391 . S
H624 C584 0.951 . S
H625 C585 0.950 . S
H626 C591 0.949 . S
H627 C592 0.950 . S
H628 C596 0.951 . S
H629 C597 0.950 . S
H630 C601 0.949 . S
H631 C602 0.950 . S
H632 C606 0.950 . S
H633 C608 0.950 . S
H634 C611 0.950 . S
H635 C613 0.950 . S
C636 C637 1.443 . S
C636 N640 1.376 . S
C636 C674 1.389 . S
C637 C636 1.443 . S
C637 C638 1.340 . S
C637 H677 0.951 . S
C638 C637 1.340 . S
C638 C639 1.439 . S
C638 H678 0.950 . S
C639 C638 1.439 . S
C639 N640 1.374 . S
C639 C673 1.395 . S
N640 C636 1.376 . S
N640 C639 1.374 . S
N640 Co641 2.008 . S
Co641 N640 2.008 . S
Co641 N642 1.995 . S
Co641 N647 2.008 . S
Co641 N652 1.995 . S
Co641 N657 2.282 . S
Co641 N663 2.282 . S
N642 Co641 1.995 . S
N642 C643 1.376 . S
N642 C646 1.383 . S
C643 N642 1.376 . S
C643 C644 1.446 . S
C643 C673 1.391 . S
C644 C643 1.446 . S
C644 C645 1.339 . S
C644 H679 0.949 . S
C645 C644 1.339 . S
C645 C646 1.439 . S
C645 H680 0.950 . S
C646 N642 1.383 . S
C646 C645 1.439 . S
C646 C675 1.392 . S
N647 Co641 2.008 . S
N647 C648 1.376 . S
N647 C651 1.374 . S
C648 N647 1.376 . S
C648 C649 1.443 . S
C648 C675 1.389 . S
C649 C648 1.443 . S
C649 C650 1.340 . S
C649 H681 0.951 . S
C650 C649 1.340 . S
C650 C651 1.439 . S
C650 H682 0.950 . S
C651 N647 1.374 . S
C651 C650 1.439 . S
C651 C676 1.395 . S
N652 Co641 1.995 . S
N652 C653 1.376 . S
N652 C656 1.383 . S
C653 N652 1.376 . S
C653 C654 1.446 . S
C653 C676 1.391 . S
C654 C653 1.446 . S
C654 C655 1.339 . S
C654 H683 0.949 . S
C655 C654 1.339 . S
C655 C656 1.439 . S
C655 H684 0.950 . S
C656 N652 1.383 . S
C656 C655 1.439 . S
C656 C674 1.392 . S
N657 Co641 2.282 . S
N657 C660 1.332 . S
N657 C662 1.332 . S
C658 C659 1.386 . S
C658 C661 1.388 . S
C659 C658 1.386 . S
C659 C660 1.382 . S
C659 H685 0.950 . S
C660 N657 1.332 . S
C660 C659 1.382 . S
C660 H671 0.952 . S
C661 C658 1.388 . S
C661 C662 1.382 . S
C661 H686 0.950 . S
C662 N657 1.332 . S
C662 C661 1.382 . S
C662 H672 0.948 . S
N663 Co641 2.282 . S
N663 C667 1.332 . S
N663 C668 1.332 . S
C664 C665 1.388 . S
C664 C668 1.382 . S
C664 H687 0.950 . S
C665 C664 1.388 . S
C665 C666 1.386 . S
C666 C665 1.386 . S
C666 C667 1.382 . S
C666 H688 0.950 . S
C667 N663 1.332 . S
C667 C666 1.382 . S
C667 H669 0.952 . S
C668 N663 1.332 . S
C668 C664 1.382 . S
C668 H670 0.948 . S
H669 C667 0.952 . S
H670 C668 0.948 . S
H671 C660 0.952 . S
H672 C662 0.948 . S
C673 C639 1.395 . S
C673 C643 1.391 . S
C674 C636 1.389 . S
C674 C656 1.392 . S
C675 C646 1.392 . S
C675 C648 1.389 . S
C676 C651 1.395 . S
C676 C653 1.391 . S
H677 C637 0.951 . S
H678 C638 0.950 . S
H679 C644 0.949 . S
H680 C645 0.950 . S
H681 C649 0.951 . S
H682 C650 0.950 . S
H683 C654 0.949 . S
H684 C655 0.950 . S
H685 C659 0.950 . S
H686 C661 0.950 . S
H687 C664 0.950 . S
H688 C666 0.950 . S
C689 C690 1.443 . S
C689 N693 1.376 . S
C689 C727 1.389 . S
C690 C689 1.443 . S
C690 C691 1.340 . S
C690 H730 0.951 . S
C691 C690 1.340 . S
C691 C692 1.439 . S
C691 H731 0.950 . S
C692 C691 1.439 . S
C692 N693 1.374 . S
C692 C726 1.395 . S
N693 C689 1.376 . S
N693 C692 1.374 . S
N693 Co694 2.008 . S
Co694 N693 2.008 . S
Co694 N695 1.995 . S
Co694 N700 2.008 . S
Co694 N705 1.995 . S
Co694 N710 2.282 . S
Co694 N716 2.282 . S
N695 Co694 1.995 . S
N695 C696 1.376 . S
N695 C699 1.383 . S
C696 N695 1.376 . S
C696 C697 1.446 . S
C696 C726 1.391 . S
C697 C696 1.446 . S
C697 C698 1.339 . S
C697 H732 0.949 . S
C698 C697 1.339 . S
C698 C699 1.439 . S
C698 H733 0.950 . S
C699 N695 1.383 . S
C699 C698 1.439 . S
C699 C728 1.392 . S
N700 Co694 2.008 . S
N700 C701 1.376 . S
N700 C704 1.374 . S
C701 N700 1.376 . S
C701 C702 1.443 . S
C701 C728 1.389 . S
C702 C701 1.443 . S
C702 C703 1.340 . S
C702 H734 0.951 . S
C703 C702 1.340 . S
C703 C704 1.439 . S
C703 H735 0.950 . S
C704 N700 1.374 . S
C704 C703 1.439 . S
C704 C729 1.395 . S
N705 Co694 1.995 . S
N705 C706 1.376 . S
N705 C709 1.383 . S
C706 N705 1.376 . S
C706 C707 1.446 . S
C706 C729 1.391 . S
C707 C706 1.446 . S
C707 C708 1.339 . S
C707 H736 0.949 . S
C708 C707 1.339 . S
C708 C709 1.439 . S
C708 H737 0.950 . S
C709 N705 1.383 . S
C709 C708 1.439 . S
C709 C727 1.392 . S
N710 Co694 2.282 . S
N710 C713 1.332 . S
N710 C715 1.332 . S
C711 C712 1.386 . S
C711 C714 1.388 . S
C712 C711 1.386 . S
C712 C713 1.382 . S
C712 H738 0.950 . S
C713 N710 1.332 . S
C713 C712 1.382 . S
C713 H724 0.952 . S
C714 C711 1.388 . S
C714 C715 1.382 . S
C714 H739 0.950 . S
C715 N710 1.332 . S
C715 C714 1.382 . S
C715 H725 0.948 . S
N716 Co694 2.282 . S
N716 C720 1.332 . S
N716 C721 1.332 . S
C717 C718 1.388 . S
C717 C721 1.382 . S
C717 H740 0.950 . S
C718 C717 1.388 . S
C718 C719 1.386 . S
C719 C718 1.386 . S
C719 C720 1.382 . S
C719 H741 0.950 . S
C720 N716 1.332 . S
C720 C719 1.382 . S
C720 H722 0.952 . S
C721 N716 1.332 . S
C721 C717 1.382 . S
C721 H723 0.948 . S
H722 C720 0.952 . S
H723 C721 0.948 . S
H724 C713 0.952 . S
H725 C715 0.948 . S
C726 C692 1.395 . S
C726 C696 1.391 . S
C727 C689 1.389 . S
C727 C709 1.392 . S
C728 C699 1.392 . S
C728 C701 1.389 . S
C729 C704 1.395 . S
C729 C706 1.391 . S
H730 C690 0.951 . S
H731 C691 0.950 . S
H732 C697 0.949 . S
H733 C698 0.950 . S
H734 C702 0.951 . S
H735 C703 0.950 . S
H736 C707 0.949 . S
H737 C708 0.950 . S
H738 C712 0.950 . S
H739 C714 0.950 . S
H740 C717 0.950 . S
H741 C719 0.950 . S
C742 C743 1.443 . S
C742 N746 1.376 . S
C742 C780 1.389 . S
C743 C742 1.443 . S
C743 C744 1.340 . S
C743 H783 0.951 . S
C744 C743 1.340 . S
C744 C745 1.439 . S
C744 H784 0.950 . S
C745 C744 1.439 . S
C745 N746 1.374 . S
C745 C779 1.395 . S
N746 C742 1.376 . S
N746 C745 1.374 . S
N746 Co747 2.008 . S
Co747 N746 2.008 . S
Co747 N748 1.995 . S
Co747 N753 2.008 . S
Co747 N758 1.995 . S
Co747 N763 2.282 . S
Co747 N769 2.282 . S
N748 Co747 1.995 . S
N748 C749 1.376 . S
N748 C752 1.383 . S
C749 N748 1.376 . S
C749 C750 1.446 . S
C749 C779 1.391 . S
C750 C749 1.446 . S
C750 C751 1.339 . S
C750 H785 0.949 . S
C751 C750 1.339 . S
C751 C752 1.439 . S
C751 H786 0.950 . S
C752 N748 1.383 . S
C752 C751 1.439 . S
C752 C781 1.392 . S
N753 Co747 2.008 . S
N753 C754 1.376 . S
N753 C757 1.374 . S
C754 N753 1.376 . S
C754 C755 1.443 . S
C754 C781 1.389 . S
C755 C754 1.443 . S
C755 C756 1.340 . S
C755 H787 0.951 . S
C756 C755 1.340 . S
C756 C757 1.439 . S
C756 H788 0.950 . S
C757 N753 1.374 . S
C757 C756 1.439 . S
C757 C782 1.395 . S
N758 Co747 1.995 . S
N758 C759 1.376 . S
N758 C762 1.383 . S
C759 N758 1.376 . S
C759 C760 1.446 . S
C759 C782 1.391 . S
C760 C759 1.446 . S
C760 C761 1.339 . S
C760 H789 0.949 . S
C761 C760 1.339 . S
C761 C762 1.439 . S
C761 H790 0.950 . S
C762 N758 1.383 . S
C762 C761 1.439 . S
C762 C780 1.392 . S
N763 Co747 2.282 . S
N763 C766 1.332 . S
N763 C768 1.332 . S
C764 C765 1.386 . S
C764 C767 1.388 . S
C765 C764 1.386 . S
C765 C766 1.382 . S
C765 H791 0.950 . S
C766 N763 1.332 . S
C766 C765 1.382 . S
C766 H777 0.952 . S
C767 C764 1.388 . S
C767 C768 1.382 . S
C767 H792 0.950 . S
C768 N763 1.332 . S
C768 C767 1.382 . S
C768 H778 0.948 . S
N769 Co747 2.282 . S
N769 C773 1.332 . S
N769 C774 1.332 . S
C770 C771 1.388 . S
C770 C774 1.382 . S
C770 H793 0.950 . S
C771 C770 1.388 . S
C771 C772 1.386 . S
C772 C771 1.386 . S
C772 C773 1.382 . S
C772 H794 0.950 . S
C773 N769 1.332 . S
C773 C772 1.382 . S
C773 H775 0.952 . S
C774 N769 1.332 . S
C774 C770 1.382 . S
C774 H776 0.948 . S
H775 C773 0.952 . S
H776 C774 0.948 . S
H777 C766 0.952 . S
H778 C768 0.948 . S
C779 C745 1.395 . S
C779 C749 1.391 . S
C780 C742 1.389 . S
C780 C762 1.392 . S
C781 C752 1.392 . S
C781 C754 1.389 . S
C782 C757 1.395 . S
C782 C759 1.391 . S
H783 C743 0.951 . S
H784 C744 0.950 . S
H785 C750 0.949 . S
H786 C751 0.950 . S
H787 C755 0.951 . S
H788 C756 0.950 . S
H789 C760 0.949 . S
H790 C761 0.950 . S
H791 C765 0.950 . S
H792 C767 0.950 . S
H793 C770 0.950 . S
H794 C772 0.950 . S
C795 C796 1.443 . S
C795 N799 1.376 . S
C795 C833 1.389 . S
C796 C795 1.443 . S
C796 C797 1.340 . S
C796 H836 0.951 . S
C797 C796 1.340 . S
C797 C798 1.439 . S
C797 H837 0.950 . S
C798 C797 1.439 . S
C798 N799 1.374 . S
C798 C832 1.395 . S
N799 C795 1.376 . S
N799 C798 1.374 . S
N799 Co800 2.008 . S
Co800 N799 2.008 . S
Co800 N801 1.995 . S
Co800 N806 2.008 . S
Co800 N811 1.995 . S
Co800 N816 2.282 . S
Co800 N822 2.282 . S
N801 Co800 1.995 . S
N801 C802 1.376 . S
N801 C805 1.383 . S
C802 N801 1.376 . S
C802 C803 1.446 . S
C802 C832 1.391 . S
C803 C802 1.446 . S
C803 C804 1.339 . S
C803 H838 0.949 . S
C804 C803 1.339 . S
C804 C805 1.439 . S
C804 H839 0.950 . S
C805 N801 1.383 . S
C805 C804 1.439 . S
C805 C834 1.392 . S
N806 Co800 2.008 . S
N806 C807 1.376 . S
N806 C810 1.374 . S
C807 N806 1.376 . S
C807 C808 1.443 . S
C807 C834 1.389 . S
C808 C807 1.443 . S
C808 C809 1.340 . S
C808 H840 0.951 . S
C809 C808 1.340 . S
C809 C810 1.439 . S
C809 H841 0.950 . S
C810 N806 1.374 . S
C810 C809 1.439 . S
C810 C835 1.395 . S
N811 Co800 1.995 . S
N811 C812 1.376 . S
N811 C815 1.383 . S
C812 N811 1.376 . S
C812 C813 1.446 . S
C812 C835 1.391 . S
C813 C812 1.446 . S
C813 C814 1.339 . S
C813 H842 0.949 . S
C814 C813 1.339 . S
C814 C815 1.439 . S
C814 H843 0.950 . S
C815 N811 1.383 . S
C815 C814 1.439 . S
C815 C833 1.392 . S
N816 Co800 2.282 . S
N816 C819 1.332 . S
N816 C821 1.332 . S
C817 C818 1.386 . S
C817 C820 1.388 . S
C818 C817 1.386 . S
C818 C819 1.382 . S
C818 H844 0.950 . S
C819 N816 1.332 . S
C819 C818 1.382 . S
C819 H830 0.952 . S
C820 C817 1.388 . S
C820 C821 1.382 . S
C820 H845 0.950 . S
C821 N816 1.332 . S
C821 C820 1.382 . S
C821 H831 0.948 . S
N822 Co800 2.282 . S
N822 C826 1.332 . S
N822 C827 1.332 . S
C823 C824 1.388 . S
C823 C827 1.382 . S
C823 H846 0.950 . S
C824 C823 1.388 . S
C824 C825 1.386 . S
C825 C824 1.386 . S
C825 C826 1.382 . S
C825 H847 0.950 . S
C826 N822 1.332 . S
C826 C825 1.382 . S
C826 H828 0.952 . S
C827 N822 1.332 . S
C827 C823 1.382 . S
C827 H829 0.948 . S
H828 C826 0.952 . S
H829 C827 0.948 . S
H830 C819 0.952 . S
H831 C821 0.948 . S
C832 C798 1.395 . S
C832 C802 1.391 . S
C833 C795 1.389 . S
C833 C815 1.392 . S
C834 C805 1.392 . S
C834 C807 1.389 . S
C835 C810 1.395 . S
C835 C812 1.391 . S
H836 C796 0.951 . S
H837 C797 0.950 . S
H838 C803 0.949 . S
H839 C804 0.950 . S
H840 C808 0.951 . S
H841 C809 0.950 . S
H842 C813 0.949 . S
H843 C814 0.950 . S
H844 C818 0.950 . S
H845 C820 0.950 . S
H846 C823 0.950 . S
H847 C825 0.950 . S
C848 C849 1.443 . S
C848 N852 1.376 . S
C848 C886 1.389 . S
C849 C848 1.443 . S
C849 C850 1.340 . S
C849 H889 0.951 . S
C850 C849 1.340 . S
C850 C851 1.439 . S
C850 H890 0.950 . S
C851 C850 1.439 . S
C851 N852 1.374 . S
C851 C885 1.395 . S
N852 C848 1.376 . S
N852 C851 1.374 . S
N852 Co853 2.008 . S
Co853 N852 2.008 . S
Co853 N854 1.995 . S
Co853 N859 2.008 . S
Co853 N864 1.995 . S
Co853 N869 2.282 . S
Co853 N875 2.282 . S
N854 Co853 1.995 . S
N854 C855 1.376 . S
N854 C858 1.383 . S
C855 N854 1.376 . S
C855 C856 1.446 . S
C855 C885 1.391 . S
C856 C855 1.446 . S
C856 C857 1.339 . S
C856 H891 0.949 . S
C857 C856 1.339 . S
C857 C858 1.439 . S
C857 H892 0.950 . S
C858 N854 1.383 . S
C858 C857 1.439 . S
C858 C887 1.392 . S
N859 Co853 2.008 . S
N859 C860 1.376 . S
N859 C863 1.374 . S
C860 N859 1.376 . S
C860 C861 1.443 . S
C860 C887 1.389 . S
C861 C860 1.443 . S
C861 C862 1.340 . S
C861 H893 0.951 . S
C862 C861 1.340 . S
C862 C863 1.439 . S
C862 H894 0.950 . S
C863 N859 1.374 . S
C863 C862 1.439 . S
C863 C888 1.395 . S
N864 Co853 1.995 . S
N864 C865 1.376 . S
N864 C868 1.383 . S
C865 N864 1.376 . S
C865 C866 1.446 . S
C865 C888 1.391 . S
C866 C865 1.446 . S
C866 C867 1.339 . S
C866 H895 0.949 . S
C867 C866 1.339 . S
C867 C868 1.439 . S
C867 H896 0.950 . S
C868 N864 1.383 . S
C868 C867 1.439 . S
C868 C886 1.392 . S
N869 Co853 2.282 . S
N869 C872 1.332 . S
N869 C874 1.332 . S
C870 C871 1.386 . S
C870 C873 1.388 . S
C871 C870 1.386 . S
C871 C872 1.382 . S
C871 H897 0.950 . S
C872 N869 1.332 . S
C872 C871 1.382 . S
C872 H883 0.952 . S
C873 C870 1.388 . S
C873 C874 1.382 . S
C873 H898 0.950 . S
C874 N869 1.332 . S
C874 C873 1.382 . S
C874 H884 0.948 . S
N875 Co853 2.282 . S
N875 C879 1.332 . S
N875 C880 1.332 . S
C876 C877 1.388 . S
C876 C880 1.382 . S
C876 H899 0.950 . S
C877 C876 1.388 . S
C877 C878 1.386 . S
C878 C877 1.386 . S
C878 C879 1.382 . S
C878 H900 0.950 . S
C879 N875 1.332 . S
C879 C878 1.382 . S
C879 H881 0.952 . S
C880 N875 1.332 . S
C880 C876 1.382 . S
C880 H882 0.948 . S
H881 C879 0.952 . S
H882 C880 0.948 . S
H883 C872 0.952 . S
H884 C874 0.948 . S
C885 C851 1.395 . S
C885 C855 1.391 . S
C886 C848 1.389 . S
C886 C868 1.392 . S
C887 C858 1.392 . S
C887 C860 1.389 . S
C888 C863 1.395 . S
C888 C865 1.391 . S
H889 C849 0.951 . S
H890 C850 0.950 . S
H891 C856 0.949 . S
H892 C857 0.950 . S
H893 C861 0.951 . S
H894 C862 0.950 . S
H895 C866 0.949 . S
H896 C867 0.950 . S
H897 C871 0.950 . S
H898 C873 0.950 . S
H899 C876 0.950 . S
H900 C878 0.950 . S
C901 C902 1.443 . S
C901 N905 1.376 . S
C901 C939 1.389 . S
C902 C901 1.443 . S
C902 C903 1.340 . S
C902 H942 0.951 . S
C903 C902 1.340 . S
C903 C904 1.439 . S
C903 H943 0.950 . S
C904 C903 1.439 . S
C904 N905 1.374 . S
C904 C938 1.395 . S
N905 C901 1.376 . S
N905 C904 1.374 . S
N905 Co906 2.008 . S
Co906 N905 2.008 . S
Co906 N907 1.995 . S
Co906 N912 2.008 . S
Co906 N917 1.995 . S
Co906 N922 2.282 . S
Co906 N928 2.282 . S
N907 Co906 1.995 . S
N907 C908 1.376 . S
N907 C911 1.383 . S
C908 N907 1.376 . S
C908 C909 1.446 . S
C908 C938 1.391 . S
C909 C908 1.446 . S
C909 C910 1.339 . S
C909 H944 0.949 . S
C910 C909 1.339 . S
C910 C911 1.439 . S
C910 H945 0.950 . S
C911 N907 1.383 . S
C911 C910 1.439 . S
C911 C940 1.392 . S
N912 Co906 2.008 . S
N912 C913 1.376 . S
N912 C916 1.374 . S
C913 N912 1.376 . S
C913 C914 1.443 . S
C913 C940 1.389 . S
C914 C913 1.443 . S
C914 C915 1.340 . S
C914 H946 0.951 . S
C915 C914 1.340 . S
C915 C916 1.439 . S
C915 H947 0.950 . S
C916 N912 1.374 . S
C916 C915 1.439 . S
C916 C941 1.395 . S
N917 Co906 1.995 . S
N917 C918 1.376 . S
N917 C921 1.383 . S
C918 N917 1.376 . S
C918 C919 1.446 . S
C918 C941 1.391 . S
C919 C918 1.446 . S
C919 C920 1.339 . S
C919 H948 0.949 . S
C920 C919 1.339 . S
C920 C921 1.439 . S
C920 H949 0.950 . S
C921 N917 1.383 . S
C921 C920 1.439 . S
C921 C939 1.392 . S
N922 Co906 2.282 . S
N922 C925 1.332 . S
N922 C927 1.332 . S
C923 C924 1.386 . S
C923 C926 1.388 . S
C924 C923 1.386 . S
C924 C925 1.382 . S
C924 H950 0.950 . S
C925 N922 1.332 . S
C925 C924 1.382 . S
C925 H936 0.952 . S
C926 C923 1.388 . S
C926 C927 1.382 . S
C926 H951 0.950 . S
C927 N922 1.332 . S
C927 C926 1.382 . S
C927 H937 0.948 . S
N928 Co906 2.282 . S
N928 C932 1.332 . S
N928 C933 1.332 . S
C929 C930 1.388 . S
C929 C933 1.382 . S
C929 H952 0.950 . S
C930 C929 1.388 . S
C930 C931 1.386 . S
C931 C930 1.386 . S
C931 C932 1.382 . S
C931 H953 0.950 . S
C932 N928 1.332 . S
C932 C931 1.382 . S
C932 H934 0.952 . S
C933 N928 1.332 . S
C933 C929 1.382 . S
C933 H935 0.948 . S
H934 C932 0.952 . S
H935 C933 0.948 . S
H936 C925 0.952 . S
H937 C927 0.948 . S
C938 C904 1.395 . S
C938 C908 1.391 . S
C939 C901 1.389 . S
C939 C921 1.392 . S
C940 C911 1.392 . S
C940 C913 1.389 . S
C941 C916 1.395 . S
C941 C918 1.391 . S
H942 C902 0.951 . S
H943 C903 0.950 . S
H944 C909 0.949 . S
H945 C910 0.950 . S
H946 C914 0.951 . S
H947 C915 0.950 . S
H948 C919 0.949 . S
H949 C920 0.950 . S
H950 C924 0.950 . S
H951 C926 0.950 . S
H952 C929 0.950 . S
H953 C931 0.950 . S
C954 C955 1.347 . S
C954 C956 1.327 . S
C954 H979 0.950 . S
C955 C954 1.347 . S
C955 C971 1.351 1_655 S
C956 C954 1.327 . S
C956 C975 1.432 1_655 S
C956 H980 0.950 . S
C957 C974 1.574 . S
C957 C976 1.366 . S
C957 H981 0.949 . S
H958 C962 0.949 . S
C959 C960 1.354 . S
C959 C961 1.327 . S
C959 H982 0.950 . S
C960 C959 1.354 . S
C960 C972 1.344 1_455 S
C961 C959 1.327 . S
C961 C977 1.430 . S
C961 H983 0.950 . S
C962 H958 0.949 . S
C962 C970 1.574 . S
C962 C978 1.368 1_655 S
H963 C971 0.950 . S
H964 C969 0.950 . S
H965 C970 0.949 . S
H966 C972 0.950 . S
H967 C973 0.950 . S
H968 C974 0.949 . S
C969 H964 0.950 . S
C969 C971 1.327 . S
C969 C975 1.425 . S
C970 C962 1.574 . S
C970 H965 0.949 . S
C970 C976 1.370 1_655 S
C971 C955 1.351 1_455 S
C971 H963 0.950 . S
C971 C969 1.327 . S
C972 C960 1.344 1_655 S
C972 H966 0.950 . S
C972 C973 1.327 . S
C973 H967 0.950 . S
C973 C972 1.327 . S
C973 C977 1.427 1_655 S
C974 C957 1.574 . S
C974 H968 0.949 . S
C974 C978 1.369 . S
C975 C956 1.432 1_455 S
C975 C969 1.425 . S
C975 C976 1.523 . S
C976 C957 1.366 . S
C976 C970 1.370 1_455 S
C976 C975 1.523 . S
C977 C961 1.430 . S
C977 C973 1.427 1_455 S
C977 C978 1.523 . S
C978 C962 1.368 1_455 S
C978 C974 1.369 . S
C978 C977 1.523 . S
H979 C954 0.950 . S
H980 C956 0.950 . S
H981 C957 0.949 . S
H982 C959 0.950 . S
H983 C961 0.950 . S
C984 C985 1.349 . S
C984 C986 1.327 . S
C984 H1009 0.950 . S
C985 C984 1.349 . S
C985 C1001 1.349 . S
C986 C984 1.327 . S
C986 C1005 1.429 . S
C986 H1010 0.950 . S
C987 C1004 1.574 . S
C987 C1006 1.368 . S
C987 H1011 0.949 . S
H988 C992 0.949 . S
C989 C990 1.349 . S
C989 C991 1.327 . S
C989 H1012 0.950 . S
C990 C989 1.349 . S
C990 C1002 1.349 . S
C991 C989 1.327 . S
C991 C1007 1.429 . S
C991 H1013 0.950 . S
C992 H988 0.949 . S
C992 C1000 1.574 . S
C992 C1008 1.368 . S
H993 C1001 0.950 . S
H994 C999 0.950 . S
H995 C1000 0.949 . S
H996 C1002 0.950 . S
H997 C1003 0.950 . S
H998 C1004 0.949 . S
C999 H994 0.950 . S
C999 C1001 1.327 . S
C999 C1005 1.429 . S
C1000 C992 1.574 . S
C1000 H995 0.949 . S
C1000 C1006 1.368 . S
C1001 C985 1.349 . S
C1001 H993 0.950 . S
C1001 C999 1.327 . S
C1002 C990 1.349 . S
C1002 H996 0.950 . S
C1002 C1003 1.327 . S
C1003 H997 0.950 . S
C1003 C1002 1.327 . S
C1003 C1007 1.429 . S
C1004 C987 1.574 . S
C1004 H998 0.949 . S
C1004 C1008 1.368 . S
C1005 C986 1.429 . S
C1005 C999 1.429 . S
C1005 C1006 1.523 . S
C1006 C987 1.368 . S
C1006 C1000 1.368 . S
C1006 C1005 1.523 . S
C1007 C991 1.429 . S
C1007 C1003 1.429 . S
C1007 C1008 1.523 . S
C1008 C992 1.368 . S
C1008 C1004 1.368 . S
C1008 C1007 1.523 . S
H1009 C984 0.950 . S
H1010 C986 0.950 . S
H1011 C987 0.949 . S
H1012 C989 0.950 . S
H1013 C991 0.950 . S
C1014 C1015 1.349 1_565 S
C1014 C1016 1.327 . S
C1014 H1039 0.950 . S
C1015 C1014 1.349 1_545 S
C1015 C1031 1.349 . S
C1016 C1014 1.327 . S
C1016 C1035 1.429 1_565 S
C1016 H1040 0.950 . S
C1017 C1034 1.574 . S
C1017 C1036 1.368 . S
C1017 H1041 0.949 . S
H1018 C1022 0.949 . S
C1019 C1020 1.349 . S
C1019 C1021 1.327 . S
C1019 H1042 0.950 . S
C1020 C1019 1.349 . S
C1020 C1032 1.349 1_545 S
C1021 C1019 1.327 . S
C1021 C1037 1.429 . S
C1021 H1043 0.950 . S
C1022 H1018 0.949 . S
C1022 C1030 1.574 . S
C1022 C1038 1.368 1_565 S
H1023 C1031 0.950 . S
H1024 C1029 0.950 . S
H1025 C1030 0.949 . S
H1026 C1032 0.950 . S
H1027 C1033 0.950 . S
H1028 C1034 0.949 . S
C1029 H1024 0.950 . S
C1029 C1031 1.327 . S
C1029 C1035 1.429 . S
C1030 C1022 1.574 . S
C1030 H1025 0.949 . S
C1030 C1036 1.368 1_565 S
C1031 C1015 1.349 . S
C1031 H1023 0.950 . S
C1031 C1029 1.327 . S
C1032 C1020 1.349 1_565 S
C1032 H1026 0.950 . S
C1032 C1033 1.327 . S
C1033 H1027 0.950 . S
C1033 C1032 1.327 . S
C1033 C1037 1.429 1_565 S
C1034 C1017 1.574 . S
C1034 H1028 0.949 . S
C1034 C1038 1.368 . S
C1035 C1016 1.429 1_545 S
C1035 C1029 1.429 . S
C1035 C1036 1.523 . S
C1036 C1017 1.368 . S
C1036 C1030 1.368 1_545 S
C1036 C1035 1.523 . S
C1037 C1021 1.429 . S
C1037 C1033 1.429 1_545 S
C1037 C1038 1.523 . S
C1038 C1022 1.368 1_545 S
C1038 C1034 1.368 . S
C1038 C1037 1.523 . S
H1039 C1014 0.950 . S
H1040 C1016 0.950 . S
H1041 C1017 0.949 . S
H1042 C1019 0.950 . S
H1043 C1021 0.950 . S
C1044 C1045 1.358 . S
C1044 C1046 1.327 . S
C1044 H1069 0.950 . S
C1045 C1044 1.358 . S
C1045 C1061 1.340 1_455 S
C1046 C1044 1.327 . S
C1046 C1065 1.434 . S
C1046 H1070 0.950 . S
C1047 C1064 1.574 . S
C1047 C1066 1.364 1_655 S
C1047 H1071 0.949 . S
H1048 C1052 0.949 . S
C1049 C1050 1.346 . S
C1049 C1051 1.327 . S
C1049 H1072 0.950 . S
C1050 C1049 1.346 . S
C1050 C1062 1.352 1_655 S
C1051 C1049 1.327 . S
C1051 C1067 1.429 1_655 S
C1051 H1073 0.950 . S
C1052 H1048 0.949 . S
C1052 C1060 1.574 . S
C1052 C1068 1.369 . S
H1053 C1061 0.950 . S
H1054 C1059 0.950 . S
H1055 C1060 0.949 . S
H1056 C1062 0.950 . S
H1057 C1063 0.950 . S
H1058 C1064 0.949 . S
C1059 H1054 0.950 . S
C1059 C1061 1.327 . S
C1059 C1065 1.423 1_655 S
C1060 C1052 1.574 . S
C1060 H1055 0.949 . S
C1060 C1066 1.373 . S
C1061 C1045 1.340 1_655 S
C1061 H1053 0.950 . S
C1061 C1059 1.327 . S
C1062 C1050 1.352 1_455 S
C1062 H1056 0.950 . S
C1062 C1063 1.327 . S
C1063 H1057 0.950 . S
C1063 C1062 1.327 . S
C1063 C1067 1.428 . S
C1064 C1047 1.574 . S
C1064 H1058 0.949 . S
C1064 C1068 1.367 1_655 S
C1065 C1046 1.434 . S
C1065 C1059 1.423 1_455 S
C1065 C1066 1.523 . S
C1066 C1047 1.364 1_455 S
C1066 C1060 1.373 . S
C1066 C1065 1.523 . S
C1067 C1051 1.429 1_455 S
C1067 C1063 1.428 . S
C1067 C1068 1.523 . S
C1068 C1052 1.369 . S
C1068 C1064 1.367 1_455 S
C1068 C1067 1.523 . S
H1069 C1044 0.950 . S
H1070 C1046 0.950 . S
H1071 C1047 0.949 . S
H1072 C1049 0.950 . S
H1073 C1051 0.950 . S
C1074 C1075 1.349 . S
C1074 C1076 1.327 . S
C1074 H1099 0.950 . S
C1075 C1074 1.349 . S
C1075 C1091 1.349 . S
C1076 C1074 1.327 . S
C1076 C1095 1.429 . S
C1076 H1100 0.950 . S
C1077 C1094 1.574 . S
C1077 C1096 1.368 . S
C1077 H1101 0.949 . S
H1078 C1082 0.949 . S
C1079 C1080 1.349 . S
C1079 C1081 1.327 . S
C1079 H1102 0.950 . S
C1080 C1079 1.349 . S
C1080 C1092 1.349 . S
C1081 C1079 1.327 . S
C1081 C1097 1.429 . S
C1081 H1103 0.950 . S
C1082 H1078 0.949 . S
C1082 C1090 1.574 . S
C1082 C1098 1.368 . S
H1083 C1091 0.950 . S
H1084 C1089 0.950 . S
H1085 C1090 0.949 . S
H1086 C1092 0.950 . S
H1087 C1093 0.950 . S
H1088 C1094 0.949 . S
C1089 H1084 0.950 . S
C1089 C1091 1.327 . S
C1089 C1095 1.429 . S
C1090 C1082 1.574 . S
C1090 H1085 0.949 . S
C1090 C1096 1.368 . S
C1091 C1075 1.349 . S
C1091 H1083 0.950 . S
C1091 C1089 1.327 . S
C1092 C1080 1.349 . S
C1092 H1086 0.950 . S
C1092 C1093 1.327 . S
C1093 H1087 0.950 . S
C1093 C1092 1.327 . S
C1093 C1097 1.429 . S
C1094 C1077 1.574 . S
C1094 H1088 0.949 . S
C1094 C1098 1.368 . S
C1095 C1076 1.429 . S
C1095 C1089 1.429 . S
C1095 C1096 1.523 . S
C1096 C1077 1.368 . S
C1096 C1090 1.368 . S
C1096 C1095 1.523 . S
C1097 C1081 1.429 . S
C1097 C1093 1.429 . S
C1097 C1098 1.523 . S
C1098 C1082 1.368 . S
C1098 C1094 1.368 . S
C1098 C1097 1.523 . S
H1099 C1074 0.950 . S
H1100 C1076 0.950 . S
H1101 C1077 0.949 . S
H1102 C1079 0.950 . S
H1103 C1081 0.950 . S
C1104 C1105 1.349 . S
C1104 C1106 1.327 . S
C1104 H1129 0.950 . S
C1105 C1104 1.349 . S
C1105 C1121 1.349 1_545 S
C1106 C1104 1.327 . S
C1106 C1125 1.429 . S
C1106 H1130 0.950 . S
C1107 C1124 1.574 . S
C1107 C1126 1.368 1_565 S
C1107 H1131 0.949 . S
H1108 C1112 0.949 . S
C1109 C1110 1.349 1_565 S
C1109 C1111 1.327 . S
C1109 H1132 0.950 . S
C1110 C1109 1.349 1_545 S
C1110 C1122 1.349 . S
C1111 C1109 1.327 . S
C1111 C1127 1.429 1_565 S
C1111 H1133 0.950 . S
C1112 H1108 0.949 . S
C1112 C1120 1.574 . S
C1112 C1128 1.368 . S
H1113 C1121 0.950 . S
H1114 C1119 0.950 . S
H1115 C1120 0.949 . S
H1116 C1122 0.950 . S
H1117 C1123 0.950 . S
H1118 C1124 0.949 . S
C1119 H1114 0.950 . S
C1119 C1121 1.327 . S
C1119 C1125 1.429 1_565 S
C1120 C1112 1.574 . S
C1120 H1115 0.949 . S
C1120 C1126 1.368 . S
C1121 C1105 1.349 1_565 S
C1121 H1113 0.950 . S
C1121 C1119 1.327 . S
C1122 C1110 1.349 . S
C1122 H1116 0.950 . S
C1122 C1123 1.327 . S
C1123 H1117 0.950 . S
C1123 C1122 1.327 . S
C1123 C1127 1.429 . S
C1124 C1107 1.574 . S
C1124 H1118 0.949 . S
C1124 C1128 1.368 1_565 S
C1125 C1106 1.429 . S
C1125 C1119 1.429 1_545 S
C1125 C1126 1.523 . S
C1126 C1107 1.368 1_545 S
C1126 C1120 1.368 . S
C1126 C1125 1.523 . S
C1127 C1111 1.429 1_545 S
C1127 C1123 1.429 . S
C1127 C1128 1.523 . S
C1128 C1112 1.368 . S
C1128 C1124 1.368 1_545 S
C1128 C1127 1.523 . S
H1129 C1104 0.950 . S
H1130 C1106 0.950 . S
H1131 C1107 0.949 . S
H1132 C1109 0.950 . S
H1133 C1111 0.950 . S
C1134 C1135 1.349 . S
C1134 C1136 1.327 . S
C1134 H1159 0.950 . S
C1135 C1134 1.349 . S
C1135 C1151 1.349 . S
C1136 C1134 1.327 . S
C1136 C1155 1.429 . S
C1136 H1160 0.950 . S
C1137 C1154 1.574 . S
C1137 C1156 1.368 . S
C1137 H1161 0.949 . S
H1138 C1142 0.949 . S
C1139 C1140 1.349 . S
C1139 C1141 1.327 . S
C1139 H1162 0.950 . S
C1140 C1139 1.349 . S
C1140 C1152 1.349 . S
C1141 C1139 1.327 . S
C1141 C1157 1.429 . S
C1141 H1163 0.950 . S
C1142 H1138 0.949 . S
C1142 C1150 1.574 . S
C1142 C1158 1.368 . S
H1143 C1151 0.950 . S
H1144 C1149 0.950 . S
H1145 C1150 0.949 . S
H1146 C1152 0.950 . S
H1147 C1153 0.950 . S
H1148 C1154 0.949 . S
C1149 H1144 0.950 . S
C1149 C1151 1.327 . S
C1149 C1155 1.429 . S
C1150 C1142 1.574 . S
C1150 H1145 0.949 . S
C1150 C1156 1.368 . S
C1151 C1135 1.349 . S
C1151 H1143 0.950 . S
C1151 C1149 1.327 . S
C1152 C1140 1.349 . S
C1152 H1146 0.950 . S
C1152 C1153 1.327 . S
C1153 H1147 0.950 . S
C1153 C1152 1.327 . S
C1153 C1157 1.429 . S
C1154 C1137 1.574 . S
C1154 H1148 0.949 . S
C1154 C1158 1.368 . S
C1155 C1136 1.429 . S
C1155 C1149 1.429 . S
C1155 C1156 1.523 . S
C1156 C1137 1.368 . S
C1156 C1150 1.368 . S
C1156 C1155 1.523 . S
C1157 C1141 1.429 . S
C1157 C1153 1.429 . S
C1157 C1158 1.523 . S
C1158 C1142 1.368 . S
C1158 C1154 1.368 . S
C1158 C1157 1.523 . S
H1159 C1134 0.950 . S
H1160 C1136 0.950 . S
H1161 C1137 0.949 . S
H1162 C1139 0.950 . S
H1163 C1141 0.950 . S
C1164 C1165 1.349 . S
C1164 C1166 1.327 . S
C1164 H1189 0.950 . S
C1165 C1164 1.349 . S
C1165 C1181 1.349 . S
C1166 C1164 1.327 . S
C1166 C1185 1.429 . S
C1166 H1190 0.950 . S
C1167 C1184 1.574 . S
C1167 C1186 1.368 . S
C1167 H1191 0.949 . S
H1168 C1172 0.949 . S
C1169 C1170 1.349 . S
C1169 C1171 1.327 . S
C1169 H1192 0.950 . S
C1170 C1169 1.349 . S
C1170 C1182 1.349 . S
C1171 C1169 1.327 . S
C1171 C1187 1.429 . S
C1171 H1193 0.950 . S
C1172 H1168 0.949 . S
C1172 C1180 1.574 . S
C1172 C1188 1.368 . S
H1173 C1181 0.950 . S
H1174 C1179 0.950 . S
H1175 C1180 0.949 . S
H1176 C1182 0.950 . S
H1177 C1183 0.950 . S
H1178 C1184 0.949 . S
C1179 H1174 0.950 . S
C1179 C1181 1.327 . S
C1179 C1185 1.429 . S
C1180 C1172 1.574 . S
C1180 H1175 0.949 . S
C1180 C1186 1.368 . S
C1181 C1165 1.349 . S
C1181 H1173 0.950 . S
C1181 C1179 1.327 . S
C1182 C1170 1.349 . S
C1182 H1176 0.950 . S
C1182 C1183 1.327 . S
C1183 H1177 0.950 . S
C1183 C1182 1.327 . S
C1183 C1187 1.429 . S
C1184 C1167 1.574 . S
C1184 H1178 0.949 . S
C1184 C1188 1.368 . S
C1185 C1166 1.429 . S
C1185 C1179 1.429 . S
C1185 C1186 1.523 . S
C1186 C1167 1.368 . S
C1186 C1180 1.368 . S
C1186 C1185 1.523 . S
C1187 C1171 1.429 . S
C1187 C1183 1.429 . S
C1187 C1188 1.523 . S
C1188 C1172 1.368 . S
C1188 C1184 1.368 . S
C1188 C1187 1.523 . S
H1189 C1164 0.950 . S
H1190 C1166 0.950 . S
H1191 C1167 0.949 . S
H1192 C1169 0.950 . S
H1193 C1171 0.950 . S
C1194 C1195 1.349 . S
C1194 C1196 1.327 . S
C1194 H1219 0.950 . S
C1195 C1194 1.349 . S
C1195 C1211 1.349 . S
C1196 C1194 1.327 . S
C1196 C1215 1.429 . S
C1196 H1220 0.950 . S
C1197 C1214 1.574 . S
C1197 C1216 1.368 . S
C1197 H1221 0.949 . S
H1198 C1202 0.949 . S
C1199 C1200 1.349 . S
C1199 C1201 1.327 . S
C1199 H1222 0.950 . S
C1200 C1199 1.349 . S
C1200 C1212 1.349 . S
C1201 C1199 1.327 . S
C1201 C1217 1.429 . S
C1201 H1223 0.950 . S
C1202 H1198 0.949 . S
C1202 C1210 1.574 . S
C1202 C1218 1.368 . S
H1203 C1211 0.950 . S
H1204 C1209 0.950 . S
H1205 C1210 0.949 . S
H1206 C1212 0.950 . S
H1207 C1213 0.950 . S
H1208 C1214 0.949 . S
C1209 H1204 0.950 . S
C1209 C1211 1.327 . S
C1209 C1215 1.429 . S
C1210 C1202 1.574 . S
C1210 H1205 0.949 . S
C1210 C1216 1.368 . S
C1211 C1195 1.349 . S
C1211 H1203 0.950 . S
C1211 C1209 1.327 . S
C1212 C1200 1.349 . S
C1212 H1206 0.950 . S
C1212 C1213 1.327 . S
C1213 H1207 0.950 . S
C1213 C1212 1.327 . S
C1213 C1217 1.429 . S
C1214 C1197 1.574 . S
C1214 H1208 0.949 . S
C1214 C1218 1.368 . S
C1215 C1196 1.429 . S
C1215 C1209 1.429 . S
C1215 C1216 1.523 . S
C1216 C1197 1.368 . S
C1216 C1210 1.368 . S
C1216 C1215 1.523 . S
C1217 C1201 1.429 . S
C1217 C1213 1.429 . S
C1217 C1218 1.523 . S
C1218 C1202 1.368 . S
C1218 C1214 1.368 . S
C1218 C1217 1.523 . S
H1219 C1194 0.950 . S
H1220 C1196 0.950 . S
H1221 C1197 0.949 . S
H1222 C1199 0.950 . S
H1223 C1201 0.950 . S
C1224 C1225 1.349 . S
C1224 C1226 1.327 . S
C1224 H1249 0.950 . S
C1225 C1224 1.349 . S
C1225 C1241 1.349 . S
C1226 C1224 1.327 . S
C1226 C1245 1.429 . S
C1226 H1250 0.950 . S
C1227 C1244 1.574 . S
C1227 C1246 1.368 . S
C1227 H1251 0.949 . S
H1228 C1232 0.949 . S
C1229 C1230 1.349 . S
C1229 C1231 1.327 1_556 S
C1229 H1252 0.950 . S
C1230 C1229 1.349 . S
C1230 C1242 1.349 . S
C1231 C1229 1.327 1_554 S
C1231 C1247 1.429 . S
C1231 H1253 0.950 . S
C1232 H1228 0.949 . S
C1232 C1240 1.574 . S
C1232 C1248 1.368 . S
H1233 C1241 0.950 . S
H1234 C1239 0.950 . S
H1235 C1240 0.949 . S
H1236 C1242 0.950 . S
H1237 C1243 0.950 . S
H1238 C1244 0.949 . S
C1239 H1234 0.950 . S
C1239 C1241 1.327 . S
C1239 C1245 1.429 . S
C1240 C1232 1.574 . S
C1240 H1235 0.949 . S
C1240 C1246 1.368 . S
C1241 C1225 1.349 . S
C1241 H1233 0.950 . S
C1241 C1239 1.327 . S
C1242 C1230 1.349 . S
C1242 H1236 0.950 . S
C1242 C1243 1.327 1_556 S
C1243 H1237 0.950 . S
C1243 C1242 1.327 1_554 S
C1243 C1247 1.429 . S
C1244 C1227 1.574 . S
C1244 H1238 0.949 . S
C1244 C1248 1.368 . S
C1245 C1226 1.429 . S
C1245 C1239 1.429 . S
C1245 C1246 1.523 . S
C1246 C1227 1.368 . S
C1246 C1240 1.368 . S
C1246 C1245 1.523 . S
C1247 C1231 1.429 . S
C1247 C1243 1.429 . S
C1247 C1248 1.523 . S
C1248 C1232 1.368 . S
C1248 C1244 1.368 . S
C1248 C1247 1.523 . S
H1249 C1224 0.950 . S
H1250 C1226 0.950 . S
H1251 C1227 0.949 . S
H1252 C1229 0.950 . S
H1253 C1231 0.950 . S
C1254 C1255 1.349 . S
C1254 C1256 1.327 1_556 S
C1254 H1279 0.950 . S
C1255 C1254 1.349 . S
C1255 C1271 1.349 . S
C1256 C1254 1.327 1_554 S
C1256 C1275 1.429 . S
C1256 H1280 0.950 . S
C1257 C1274 1.574 . S
C1257 C1276 1.368 . S
C1257 H1281 0.949 . S
H1258 C1262 0.949 . S
C1259 C1260 1.349 . S
C1259 C1261 1.327 . S
C1259 H1282 0.950 . S
C1260 C1259 1.349 . S
C1260 C1272 1.349 . S
C1261 C1259 1.327 . S
C1261 C1277 1.429 . S
C1261 H1283 0.950 . S
C1262 H1258 0.949 . S
C1262 C1270 1.574 . S
C1262 C1278 1.368 . S
H1263 C1271 0.950 . S
H1264 C1269 0.950 . S
H1265 C1270 0.949 . S
H1266 C1272 0.950 . S
H1267 C1273 0.950 . S
H1268 C1274 0.949 . S
C1269 H1264 0.950 . S
C1269 C1271 1.327 1_554 S
C1269 C1275 1.429 . S
C1270 C1262 1.574 . S
C1270 H1265 0.949 . S
C1270 C1276 1.368 . S
C1271 C1255 1.349 . S
C1271 H1263 0.950 . S
C1271 C1269 1.327 1_556 S
C1272 C1260 1.349 . S
C1272 H1266 0.950 . S
C1272 C1273 1.327 . S
C1273 H1267 0.950 . S
C1273 C1272 1.327 . S
C1273 C1277 1.429 . S
C1274 C1257 1.574 . S
C1274 H1268 0.949 . S
C1274 C1278 1.368 . S
C1275 C1256 1.429 . S
C1275 C1269 1.429 . S
C1275 C1276 1.523 . S
C1276 C1257 1.368 . S
C1276 C1270 1.368 . S
C1276 C1275 1.523 . S
C1277 C1261 1.429 . S
C1277 C1273 1.429 . S
C1277 C1278 1.523 . S
C1278 C1262 1.368 . S
C1278 C1274 1.368 . S
C1278 C1277 1.523 . S
H1279 C1254 0.950 . S
H1280 C1256 0.950 . S
H1281 C1257 0.949 . S
H1282 C1259 0.950 . S
H1283 C1261 0.950 . S
C1284 C1285 1.349 . S
C1284 C1286 1.327 1_556 S
C1284 H1309 0.950 . S
C1285 C1284 1.349 . S
C1285 C1301 1.349 . S
C1286 C1284 1.327 1_554 S
C1286 C1305 1.429 . S
C1286 H1310 0.950 . S
C1287 C1304 1.574 . S
C1287 C1306 1.368 . S
C1287 H1311 0.949 . S
H1288 C1292 0.949 . S
C1289 C1290 1.349 . S
C1289 C1291 1.327 . S
C1289 H1312 0.950 . S
C1290 C1289 1.349 . S
C1290 C1302 1.349 . S
C1291 C1289 1.327 . S
C1291 C1307 1.429 . S
C1291 H1313 0.950 . S
C1292 H1288 0.949 . S
C1292 C1300 1.574 . S
C1292 C1308 1.368 . S
H1293 C1301 0.950 . S
H1294 C1299 0.950 . S
H1295 C1300 0.949 . S
H1296 C1302 0.950 . S
H1297 C1303 0.950 . S
H1298 C1304 0.949 . S
C1299 H1294 0.950 . S
C1299 C1301 1.327 1_554 S
C1299 C1305 1.429 . S
C1300 C1292 1.574 . S
C1300 H1295 0.949 . S
C1300 C1306 1.368 . S
C1301 C1285 1.349 . S
C1301 H1293 0.950 . S
C1301 C1299 1.327 1_556 S
C1302 C1290 1.349 . S
C1302 H1296 0.950 . S
C1302 C1303 1.327 . S
C1303 H1297 0.950 . S
C1303 C1302 1.327 . S
C1303 C1307 1.429 . S
C1304 C1287 1.574 . S
C1304 H1298 0.949 . S
C1304 C1308 1.368 . S
C1305 C1286 1.429 . S
C1305 C1299 1.429 . S
C1305 C1306 1.523 . S
C1306 C1287 1.368 . S
C1306 C1300 1.368 . S
C1306 C1305 1.523 . S
C1307 C1291 1.429 . S
C1307 C1303 1.429 . S
C1307 C1308 1.523 . S
C1308 C1292 1.368 . S
C1308 C1304 1.368 . S
C1308 C1307 1.523 . S
H1309 C1284 0.950 . S
H1310 C1286 0.950 . S
H1311 C1287 0.949 . S
H1312 C1289 0.950 . S
H1313 C1291 0.950 . S
C1314 C1315 1.349 . S
C1314 C1316 1.327 . S
C1314 H1339 0.950 . S
C1315 C1314 1.349 . S
C1315 C1331 1.349 . S
C1316 C1314 1.327 . S
C1316 C1335 1.429 . S
C1316 H1340 0.950 . S
C1317 C1334 1.574 . S
C1317 C1336 1.368 . S
C1317 H1341 0.949 . S
H1318 C1322 0.949 . S
C1319 C1320 1.349 . S
C1319 C1321 1.327 . S
C1319 H1342 0.950 . S
C1320 C1319 1.349 . S
C1320 C1332 1.349 . S
C1321 C1319 1.327 . S
C1321 C1337 1.429 . S
C1321 H1343 0.950 . S
C1322 H1318 0.949 . S
C1322 C1330 1.574 . S
C1322 C1338 1.368 . S
H1323 C1331 0.950 . S
H1324 C1329 0.950 . S
H1325 C1330 0.949 . S
H1326 C1332 0.950 . S
H1327 C1333 0.950 . S
H1328 C1334 0.949 . S
C1329 H1324 0.950 . S
C1329 C1331 1.327 . S
C1329 C1335 1.429 . S
C1330 C1322 1.574 . S
C1330 H1325 0.949 . S
C1330 C1336 1.368 . S
C1331 C1315 1.349 . S
C1331 H1323 0.950 . S
C1331 C1329 1.327 . S
C1332 C1320 1.349 . S
C1332 H1326 0.950 . S
C1332 C1333 1.327 . S
C1333 H1327 0.950 . S
C1333 C1332 1.327 . S
C1333 C1337 1.429 . S
C1334 C1317 1.574 . S
C1334 H1328 0.949 . S
C1334 C1338 1.368 . S
C1335 C1316 1.429 . S
C1335 C1329 1.429 . S
C1335 C1336 1.523 1_554 S
C1336 C1317 1.368 . S
C1336 C1330 1.368 . S
C1336 C1335 1.523 1_556 S
C1337 C1321 1.429 . S
C1337 C1333 1.429 . S
C1337 C1338 1.523 . S
C1338 C1322 1.368 . S
C1338 C1334 1.368 . S
C1338 C1337 1.523 . S
H1339 C1314 0.950 . S
H1340 C1316 0.950 . S
H1341 C1317 0.949 . S
H1342 C1319 0.950 . S
H1343 C1321 0.950 . S
C1344 C1345 1.349 . S
C1344 C1346 1.327 . S
C1344 H1369 0.950 . S
C1345 C1344 1.349 . S
C1345 C1361 1.349 . S
C1346 C1344 1.327 . S
C1346 C1365 1.429 . S
C1346 H1370 0.950 . S
C1347 C1364 1.574 . S
C1347 C1366 1.368 . S
C1347 H1371 0.949 . S
H1348 C1352 0.949 . S
C1349 C1350 1.349 . S
C1349 C1351 1.327 . S
C1349 H1372 0.950 . S
C1350 C1349 1.349 . S
C1350 C1362 1.349 . S
C1351 C1349 1.327 . S
C1351 C1367 1.429 . S
C1351 H1373 0.950 . S
C1352 H1348 0.949 . S
C1352 C1360 1.574 . S
C1352 C1368 1.368 . S
H1353 C1361 0.950 . S
H1354 C1359 0.950 . S
H1355 C1360 0.949 . S
H1356 C1362 0.950 . S
H1357 C1363 0.950 . S
H1358 C1364 0.949 . S
C1359 H1354 0.950 . S
C1359 C1361 1.327 . S
C1359 C1365 1.429 . S
C1360 C1352 1.574 . S
C1360 H1355 0.949 . S
C1360 C1366 1.368 . S
C1361 C1345 1.349 . S
C1361 H1353 0.950 . S
C1361 C1359 1.327 . S
C1362 C1350 1.349 . S
C1362 H1356 0.950 . S
C1362 C1363 1.327 . S
C1363 H1357 0.950 . S
C1363 C1362 1.327 . S
C1363 C1367 1.429 . S
C1364 C1347 1.574 . S
C1364 H1358 0.949 . S
C1364 C1368 1.368 . S
C1365 C1346 1.429 . S
C1365 C1359 1.429 . S
C1365 C1366 1.523 . S
C1366 C1347 1.368 . S
C1366 C1360 1.368 . S
C1366 C1365 1.523 . S
C1367 C1351 1.429 . S
C1367 C1363 1.429 . S
C1367 C1368 1.523 1_554 S
C1368 C1352 1.368 . S
C1368 C1364 1.368 . S
C1368 C1367 1.523 1_556 S
H1369 C1344 0.950 . S
H1370 C1346 0.950 . S
H1371 C1347 0.949 . S
H1372 C1349 0.950 . S
H1373 C1351 0.950 . S
C1374 C1375 1.349 . S
C1374 C1376 1.327 . S
C1374 H1399 0.950 . S
C1375 C1374 1.349 . S
C1375 C1391 1.349 . S
C1376 C1374 1.327 . S
C1376 C1395 1.429 1_554 S
C1376 H1400 0.950 1_554 S
C1377 C1394 1.574 . S
C1377 C1396 1.368 . S
C1377 H1401 0.949 . S
H1378 C1382 0.949 . S
C1379 C1380 1.349 . S
C1379 C1381 1.327 . S
C1379 H1402 0.950 . S
C1380 C1379 1.349 . S
C1380 C1392 1.349 . S
C1381 C1379 1.327 . S
C1381 C1397 1.429 . S
C1381 H1403 0.950 . S
C1382 H1378 0.949 . S
C1382 C1390 1.574 . S
C1382 C1398 1.368 . S
H1383 C1391 0.950 . S
H1384 C1389 0.950 1_556 S
H1385 C1390 0.949 . S
H1386 C1392 0.950 . S
H1387 C1393 0.950 . S
H1388 C1394 0.949 . S
C1389 H1384 0.950 1_554 S
C1389 C1391 1.327 . S
C1389 C1395 1.429 1_554 S
C1390 C1382 1.574 . S
C1390 H1385 0.949 . S
C1390 C1396 1.368 . S
C1391 C1375 1.349 . S
C1391 H1383 0.950 . S
C1391 C1389 1.327 . S
C1392 C1380 1.349 . S
C1392 H1386 0.950 . S
C1392 C1393 1.327 . S
C1393 H1387 0.950 . S
C1393 C1392 1.327 . S
C1393 C1397 1.429 . S
C1394 C1377 1.574 . S
C1394 H1388 0.949 . S
C1394 C1398 1.368 . S
C1395 C1376 1.429 1_556 S
C1395 C1389 1.429 1_556 S
C1395 C1396 1.523 . S
C1396 C1377 1.368 . S
C1396 C1390 1.368 . S
C1396 C1395 1.523 . S
C1397 C1381 1.429 . S
C1397 C1393 1.429 . S
C1397 C1398 1.523 . S
C1398 C1382 1.368 . S
C1398 C1394 1.368 . S
C1398 C1397 1.523 . S
H1399 C1374 0.950 . S
H1400 C1376 0.950 1_556 S
H1401 C1377 0.949 . S
H1402 C1379 0.950 . S
H1403 C1381 0.950 . S
C1404 C1405 1.349 . S
C1404 C1406 1.327 . S
C1404 H1429 0.950 . S
C1405 C1404 1.349 . S
C1405 C1421 1.349 . S
C1406 C1404 1.327 . S
C1406 C1425 1.429 . S
C1406 H1430 0.950 . S
C1407 C1424 1.574 . S
C1407 C1426 1.368 . S
C1407 H1431 0.949 . S
H1408 C1412 0.949 . S
C1409 C1410 1.349 . S
C1409 C1411 1.327 . S
C1409 H1432 0.950 . S
C1410 C1409 1.349 . S
C1410 C1422 1.349 . S
C1411 C1409 1.327 . S
C1411 C1427 1.429 . S
C1411 H1433 0.950 . S
C1412 H1408 0.949 . S
C1412 C1420 1.574 . S
C1412 C1428 1.368 . S
H1413 C1421 0.950 . S
H1414 C1419 0.950 . S
H1415 C1420 0.949 . S
H1416 C1422 0.950 . S
H1417 C1423 0.950 . S
H1418 C1424 0.949 . S
C1419 H1414 0.950 . S
C1419 C1421 1.327 . S
C1419 C1425 1.429 . S
C1420 C1412 1.574 . S
C1420 H1415 0.949 . S
C1420 C1426 1.368 . S
C1421 C1405 1.349 . S
C1421 H1413 0.950 . S
C1421 C1419 1.327 . S
C1422 C1410 1.349 . S
C1422 H1416 0.950 . S
C1422 C1423 1.327 . S
C1423 H1417 0.950 . S
C1423 C1422 1.327 . S
C1423 C1427 1.429 . S
C1424 C1407 1.574 . S
C1424 H1418 0.949 . S
C1424 C1428 1.368 . S
C1425 C1406 1.429 . S
C1425 C1419 1.429 . S
C1425 C1426 1.523 . S
C1426 C1407 1.368 . S
C1426 C1420 1.368 . S
C1426 C1425 1.523 . S
C1427 C1411 1.429 . S
C1427 C1423 1.429 . S
C1427 C1428 1.523 . S
C1428 C1412 1.368 . S
C1428 C1424 1.368 . S
C1428 C1427 1.523 . S
H1429 C1404 0.950 . S
H1430 C1406 0.950 . S
H1431 C1407 0.949 . S
H1432 C1409 0.950 . S
H1433 C1411 0.950 . S
C1434 C1435 1.349 . S
C1434 C1436 1.327 . S
C1434 H1459 0.950 . S
C1435 C1434 1.349 . S
C1435 C1451 1.349 . S
C1436 C1434 1.327 . S
C1436 C1455 1.429 . S
C1436 H1460 0.950 . S
C1437 C1454 1.574 . S
C1437 C1456 1.368 . S
C1437 H1461 0.949 . S
H1438 C1442 0.949 . S
C1439 C1440 1.349 . S
C1439 C1441 1.327 . S
C1439 H1462 0.950 . S
C1440 C1439 1.349 . S
C1440 C1452 1.349 . S
C1441 C1439 1.327 . S
C1441 C1457 1.429 . S
C1441 H1463 0.950 . S
C1442 H1438 0.949 . S
C1442 C1450 1.574 . S
C1442 C1458 1.368 . S
H1443 C1451 0.950 . S
H1444 C1449 0.950 . S
H1445 C1450 0.949 . S
H1446 C1452 0.950 . S
H1447 C1453 0.950 . S
H1448 C1454 0.949 . S
C1449 H1444 0.950 . S
C1449 C1451 1.327 . S
C1449 C1455 1.429 . S
C1450 C1442 1.574 . S
C1450 H1445 0.949 . S
C1450 C1456 1.368 . S
C1451 C1435 1.349 . S
C1451 H1443 0.950 . S
C1451 C1449 1.327 . S
C1452 C1440 1.349 . S
C1452 H1446 0.950 . S
C1452 C1453 1.327 . S
C1453 H1447 0.950 . S
C1453 C1452 1.327 . S
C1453 C1457 1.429 . S
C1454 C1437 1.574 . S
C1454 H1448 0.949 . S
C1454 C1458 1.368 . S
C1455 C1436 1.429 . S
C1455 C1449 1.429 . S
C1455 C1456 1.523 . S
C1456 C1437 1.368 . S
C1456 C1450 1.368 . S
C1456 C1455 1.523 . S
C1457 C1441 1.429 . S
C1457 C1453 1.429 . S
C1457 C1458 1.523 . S
C1458 C1442 1.368 . S
C1458 C1454 1.368 . S
C1458 C1457 1.523 . S
H1459 C1434 0.950 . S
H1460 C1436 0.950 . S
H1461 C1437 0.949 . S
H1462 C1439 0.950 . S
H1463 C1441 0.950 . S
C1464 C1465 1.349 . S
C1464 C1466 1.327 . S
C1464 H1489 0.950 . S
C1465 C1464 1.349 . S
C1465 C1481 1.349 . S
C1466 C1464 1.327 . S
C1466 C1485 1.429 . S
C1466 H1490 0.950 . S
C1467 C1484 1.574 . S
C1467 C1486 1.368 . S
C1467 H1491 0.949 . S
H1468 C1472 0.949 . S
C1469 C1470 1.349 . S
C1469 C1471 1.327 . S
C1469 H1492 0.950 . S
C1470 C1469 1.349 . S
C1470 C1482 1.349 . S
C1471 C1469 1.327 . S
C1471 C1487 1.429 . S
C1471 H1493 0.950 . S
C1472 H1468 0.949 . S
C1472 C1480 1.574 . S
C1472 C1488 1.368 . S
H1473 C1481 0.950 . S
H1474 C1479 0.950 . S
H1475 C1480 0.949 . S
H1476 C1482 0.950 . S
H1477 C1483 0.950 . S
H1478 C1484 0.949 . S
C1479 H1474 0.950 . S
C1479 C1481 1.327 . S
C1479 C1485 1.429 . S
C1480 C1472 1.574 . S
C1480 H1475 0.949 . S
C1480 C1486 1.368 . S
C1481 C1465 1.349 . S
C1481 H1473 0.950 . S
C1481 C1479 1.327 . S
C1482 C1470 1.349 . S
C1482 H1476 0.950 . S
C1482 C1483 1.327 . S
C1483 H1477 0.950 . S
C1483 C1482 1.327 . S
C1483 C1487 1.429 . S
C1484 C1467 1.574 . S
C1484 H1478 0.949 . S
C1484 C1488 1.368 . S
C1485 C1466 1.429 . S
C1485 C1479 1.429 . S
C1485 C1486 1.523 . S
C1486 C1467 1.368 . S
C1486 C1480 1.368 . S
C1486 C1485 1.523 . S
C1487 C1471 1.429 . S
C1487 C1483 1.429 . S
C1487 C1488 1.523 . S
C1488 C1472 1.368 . S
C1488 C1484 1.368 . S
C1488 C1487 1.523 . S
H1489 C1464 0.950 . S
H1490 C1466 0.950 . S
H1491 C1467 0.949 . S
H1492 C1469 0.950 . S
H1493 C1471 0.950 . S
C1494 C1495 1.349 . S
C1494 C1496 1.327 . S
C1494 H1519 0.950 1_556 S
C1495 C1494 1.349 . S
C1495 C1511 1.349 . S
C1496 C1494 1.327 . S
C1496 C1515 1.429 . S
C1496 H1520 0.950 . S
C1497 C1514 1.574 . S
C1497 C1516 1.368 . S
C1497 H1521 0.949 . S
H1498 C1502 0.949 . S
C1499 C1500 1.349 . S
C1499 C1501 1.327 . S
C1499 H1522 0.950 . S
C1500 C1499 1.349 . S
C1500 C1512 1.349 . S
C1501 C1499 1.327 . S
C1501 C1517 1.429 . S
C1501 H1523 0.950 . S
C1502 H1498 0.949 . S
C1502 C1510 1.574 . S
C1502 C1518 1.368 . S
H1503 C1511 0.950 . S
H1504 C1509 0.950 . S
H1505 C1510 0.949 . S
H1506 C1512 0.950 . S
H1507 C1513 0.950 . S
H1508 C1514 0.949 . S
C1509 H1504 0.950 . S
C1509 C1511 1.327 . S
C1509 C1515 1.429 . S
C1510 C1502 1.574 . S
C1510 H1505 0.949 . S
C1510 C1516 1.368 . S
C1511 C1495 1.349 . S
C1511 H1503 0.950 . S
C1511 C1509 1.327 . S
C1512 C1500 1.349 . S
C1512 H1506 0.950 . S
C1512 C1513 1.327 . S
C1513 H1507 0.950 . S
C1513 C1512 1.327 . S
C1513 C1517 1.429 . S
C1514 C1497 1.574 . S
C1514 H1508 0.949 . S
C1514 C1518 1.368 . S
C1515 C1496 1.429 . S
C1515 C1509 1.429 . S
C1515 C1516 1.523 . S
C1516 C1497 1.368 . S
C1516 C1510 1.368 . S
C1516 C1515 1.523 . S
C1517 C1501 1.429 . S
C1517 C1513 1.429 . S
C1517 C1518 1.523 . S
C1518 C1502 1.368 . S
C1518 C1514 1.368 . S
C1518 C1517 1.523 . S
H1519 C1494 0.950 1_554 S
H1520 C1496 0.950 . S
H1521 C1497 0.949 . S
H1522 C1499 0.950 . S
H1523 C1501 0.950 . S
C1524 C1525 1.349 . S
C1524 C1526 1.327 . S
C1524 H1549 0.950 . S
C1525 C1524 1.349 . S
C1525 C1541 1.349 . S
C1526 C1524 1.327 . S
C1526 C1545 1.429 . S
C1526 H1550 0.950 . S
C1527 C1544 1.574 . S
C1527 C1546 1.368 . S
C1527 H1551 0.949 . S
H1528 C1532 0.949 . S
C1529 C1530 1.349 . S
C1529 C1531 1.327 . S
C1529 H1552 0.950 . S
C1530 C1529 1.349 . S
C1530 C1542 1.349 . S
C1531 C1529 1.327 . S
C1531 C1547 1.429 . S
C1531 H1553 0.950 . S
C1532 H1528 0.949 . S
C1532 C1540 1.574 . S
C1532 C1548 1.368 . S
H1533 C1541 0.950 . S
H1534 C1539 0.950 . S
H1535 C1540 0.949 . S
H1536 C1542 0.950 . S
H1537 C1543 0.950 . S
H1538 C1544 0.949 . S
C1539 H1534 0.950 . S
C1539 C1541 1.327 . S
C1539 C1545 1.429 . S
C1540 C1532 1.574 . S
C1540 H1535 0.949 . S
C1540 C1546 1.368 . S
C1541 C1525 1.349 . S
C1541 H1533 0.950 . S
C1541 C1539 1.327 . S
C1542 C1530 1.349 . S
C1542 H1536 0.950 . S
C1542 C1543 1.327 . S
C1543 H1537 0.950 . S
C1543 C1542 1.327 . S
C1543 C1547 1.429 . S
C1544 C1527 1.574 . S
C1544 H1538 0.949 . S
C1544 C1548 1.368 . S
C1545 C1526 1.429 . S
C1545 C1539 1.429 . S
C1545 C1546 1.523 . S
C1546 C1527 1.368 . S
C1546 C1540 1.368 . S
C1546 C1545 1.523 . S
C1547 C1531 1.429 . S
C1547 C1543 1.429 . S
C1547 C1548 1.523 . S
C1548 C1532 1.368 . S
C1548 C1544 1.368 . S
C1548 C1547 1.523 . S
H1549 C1524 0.950 . S
H1550 C1526 0.950 . S
H1551 C1527 0.949 . S
H1552 C1529 0.950 . S
H1553 C1531 0.950 . S
C1554 C1555 1.349 . S
C1554 C1556 1.327 . S
C1554 H1579 0.950 . S
C1555 C1554 1.349 . S
C1555 C1571 1.349 . S
C1556 C1554 1.327 . S
C1556 C1575 1.429 . S
C1556 H1580 0.950 . S
C1557 C1574 1.574 . S
C1557 C1576 1.368 . S
C1557 H1581 0.949 . S
H1558 C1562 0.949 . S
C1559 C1560 1.349 . S
C1559 C1561 1.327 . S
C1559 H1582 0.950 . S
C1560 C1559 1.349 . S
C1560 C1572 1.349 . S
C1561 C1559 1.327 . S
C1561 C1577 1.429 . S
C1561 H1583 0.950 . S
C1562 H1558 0.949 . S
C1562 C1570 1.574 . S
C1562 C1578 1.368 . S
H1563 C1571 0.950 . S
H1564 C1569 0.950 . S
H1565 C1570 0.949 . S
H1566 C1572 0.950 . S
H1567 C1573 0.950 . S
H1568 C1574 0.949 . S
C1569 H1564 0.950 . S
C1569 C1571 1.327 . S
C1569 C1575 1.429 . S
C1570 C1562 1.574 . S
C1570 H1565 0.949 . S
C1570 C1576 1.368 . S
C1571 C1555 1.349 . S
C1571 H1563 0.950 . S
C1571 C1569 1.327 . S
C1572 C1560 1.349 . S
C1572 H1566 0.950 . S
C1572 C1573 1.327 . S
C1573 H1567 0.950 . S
C1573 C1572 1.327 . S
C1573 C1577 1.429 . S
C1574 C1557 1.574 . S
C1574 H1568 0.949 . S
C1574 C1578 1.368 . S
C1575 C1556 1.429 . S
C1575 C1569 1.429 . S
C1575 C1576 1.523 . S
C1576 C1557 1.368 . S
C1576 C1570 1.368 . S
C1576 C1575 1.523 . S
C1577 C1561 1.429 . S
C1577 C1573 1.429 . S
C1577 C1578 1.523 . S
C1578 C1562 1.368 . S
C1578 C1574 1.368 . S
C1578 C1577 1.523 . S
H1579 C1554 0.950 . S
H1580 C1556 0.950 . S
H1581 C1557 0.949 . S
H1582 C1559 0.950 . S
H1583 C1561 0.950 . S
C1584 C1585 1.349 . S
C1584 C1586 1.327 . S
C1584 H1609 0.950 . S
C1585 C1584 1.349 . S
C1585 C1601 1.349 . S
C1586 C1584 1.327 . S
C1586 C1605 1.429 . S
C1586 H1610 0.950 . S
C1587 C1604 1.574 . S
C1587 C1606 1.368 . S
C1587 H1611 0.949 . S
H1588 C1592 0.949 . S
C1589 C1590 1.349 . S
C1589 C1591 1.327 . S
C1589 H1612 0.950 . S
C1590 C1589 1.349 . S
C1590 C1602 1.349 . S
C1591 C1589 1.327 . S
C1591 C1607 1.429 . S
C1591 H1613 0.950 . S
C1592 H1588 0.949 . S
C1592 C1600 1.574 . S
C1592 C1608 1.368 . S
H1593 C1601 0.950 . S
H1594 C1599 0.950 . S
H1595 C1600 0.949 . S
H1596 C1602 0.950 . S
H1597 C1603 0.950 . S
H1598 C1604 0.949 . S
C1599 H1594 0.950 . S
C1599 C1601 1.327 . S
C1599 C1605 1.429 . S
C1600 C1592 1.574 . S
C1600 H1595 0.949 . S
C1600 C1606 1.368 . S
C1601 C1585 1.349 . S
C1601 H1593 0.950 . S
C1601 C1599 1.327 . S
C1602 C1590 1.349 . S
C1602 H1596 0.950 . S
C1602 C1603 1.327 . S
C1603 H1597 0.950 . S
C1603 C1602 1.327 . S
C1603 C1607 1.429 . S
C1604 C1587 1.574 . S
C1604 H1598 0.949 . S
C1604 C1608 1.368 . S
C1605 C1586 1.429 . S
C1605 C1599 1.429 . S
C1605 C1606 1.523 . S
C1606 C1587 1.368 . S
C1606 C1600 1.368 . S
C1606 C1605 1.523 . S
C1607 C1591 1.429 . S
C1607 C1603 1.429 . S
C1607 C1608 1.523 . S
C1608 C1592 1.368 . S
C1608 C1604 1.368 . S
C1608 C1607 1.523 . S
H1609 C1584 0.950 . S
H1610 C1586 0.950 . S
H1611 C1587 0.949 . S
H1612 C1589 0.950 . S
H1613 C1591 0.950 . S
C1614 C1615 1.349 . S
C1614 C1616 1.327 . S
C1614 H1639 0.950 . S
C1615 C1614 1.349 . S
C1615 C1631 1.349 . S
C1616 C1614 1.327 . S
C1616 C1635 1.429 . S
C1616 H1640 0.950 . S
C1617 C1634 1.574 . S
C1617 C1636 1.368 . S
C1617 H1641 0.949 . S
H1618 C1622 0.949 . S
C1619 C1620 1.349 . S
C1619 C1621 1.327 . S
C1619 H1642 0.950 . S
C1620 C1619 1.349 . S
C1620 C1632 1.349 . S
C1621 C1619 1.327 . S
C1621 C1637 1.429 . S
C1621 H1643 0.950 . S
C1622 H1618 0.949 . S
C1622 C1630 1.574 . S
C1622 C1638 1.368 . S
H1623 C1631 0.950 . S
H1624 C1629 0.950 . S
H1625 C1630 0.949 . S
H1626 C1632 0.950 . S
H1627 C1633 0.950 . S
H1628 C1634 0.949 . S
C1629 H1624 0.950 . S
C1629 C1631 1.327 . S
C1629 C1635 1.429 . S
C1630 C1622 1.574 . S
C1630 H1625 0.949 . S
C1630 C1636 1.368 . S
C1631 C1615 1.349 . S
C1631 H1623 0.950 . S
C1631 C1629 1.327 . S
C1632 C1620 1.349 . S
C1632 H1626 0.950 . S
C1632 C1633 1.327 . S
C1633 H1627 0.950 . S
C1633 C1632 1.327 . S
C1633 C1637 1.429 . S
C1634 C1617 1.574 . S
C1634 H1628 0.949 . S
C1634 C1638 1.368 . S
C1635 C1616 1.429 . S
C1635 C1629 1.429 . S
C1635 C1636 1.523 . S
C1636 C1617 1.368 . S
C1636 C1630 1.368 . S
C1636 C1635 1.523 . S
C1637 C1621 1.429 . S
C1637 C1633 1.429 . S
C1637 C1638 1.523 . S
C1638 C1622 1.368 . S
C1638 C1634 1.368 . S
C1638 C1637 1.523 . S
H1639 C1614 0.950 . S
H1640 C1616 0.950 . S
H1641 C1617 0.949 . S
H1642 C1619 0.950 . S
H1643 C1621 0.950 . S
C1644 C1645 1.349 . S
C1644 C1646 1.327 . S
C1644 H1669 0.950 . S
C1645 C1644 1.349 . S
C1645 C1661 1.349 . S
C1646 C1644 1.327 . S
C1646 C1665 1.429 . S
C1646 H1670 0.950 . S
C1647 C1664 1.574 . S
C1647 C1666 1.368 . S
C1647 H1671 0.949 . S
H1648 C1652 0.949 . S
C1649 C1650 1.349 . S
C1649 C1651 1.327 . S
C1649 H1672 0.950 . S
C1650 C1649 1.349 . S
C1650 C1662 1.349 . S
C1651 C1649 1.327 . S
C1651 C1667 1.429 . S
C1651 H1673 0.950 . S
C1652 H1648 0.949 . S
C1652 C1660 1.574 . S
C1652 C1668 1.368 . S
H1653 C1661 0.950 . S
H1654 C1659 0.950 . S
H1655 C1660 0.949 . S
H1656 C1662 0.950 . S
H1657 C1663 0.950 . S
H1658 C1664 0.949 . S
C1659 H1654 0.950 . S
C1659 C1661 1.327 . S
C1659 C1665 1.429 . S
C1660 C1652 1.574 . S
C1660 H1655 0.949 . S
C1660 C1666 1.368 . S
C1661 C1645 1.349 . S
C1661 H1653 0.950 . S
C1661 C1659 1.327 . S
C1662 C1650 1.349 . S
C1662 H1656 0.950 . S
C1662 C1663 1.327 . S
C1663 H1657 0.950 . S
C1663 C1662 1.327 . S
C1663 C1667 1.429 . S
C1664 C1647 1.574 . S
C1664 H1658 0.949 . S
C1664 C1668 1.368 . S
C1665 C1646 1.429 . S
C1665 C1659 1.429 . S
C1665 C1666 1.523 . S
C1666 C1647 1.368 . S
C1666 C1660 1.368 . S
C1666 C1665 1.523 . S
C1667 C1651 1.429 . S
C1667 C1663 1.429 . S
C1667 C1668 1.523 . S
C1668 C1652 1.368 . S
C1668 C1664 1.368 . S
C1668 C1667 1.523 . S
H1669 C1644 0.950 . S
H1670 C1646 0.950 . S
H1671 C1647 0.949 . S
H1672 C1649 0.950 . S
H1673 C1651 0.950 . S
C1674 C1675 1.349 . S
C1674 C1676 1.327 . S
C1674 H1699 0.950 . S
C1675 C1674 1.349 . S
C1675 C1691 1.349 . S
C1676 C1674 1.327 . S
C1676 C1695 1.429 . S
C1676 H1700 0.950 . S
C1677 C1694 1.574 . S
C1677 C1696 1.368 . S
C1677 H1701 0.949 . S
H1678 C1682 0.949 . S
C1679 C1680 1.349 . S
C1679 C1681 1.327 . S
C1679 H1702 0.950 . S
C1680 C1679 1.349 . S
C1680 C1692 1.349 . S
C1681 C1679 1.327 . S
C1681 C1697 1.429 . S
C1681 H1703 0.950 . S
C1682 H1678 0.949 . S
C1682 C1690 1.574 . S
C1682 C1698 1.368 . S
H1683 C1691 0.950 . S
H1684 C1689 0.950 . S
H1685 C1690 0.949 . S
H1686 C1692 0.950 . S
H1687 C1693 0.950 . S
H1688 C1694 0.949 . S
C1689 H1684 0.950 . S
C1689 C1691 1.327 . S
C1689 C1695 1.429 . S
C1690 C1682 1.574 . S
C1690 H1685 0.949 . S
C1690 C1696 1.368 . S
C1691 C1675 1.349 . S
C1691 H1683 0.950 . S
C1691 C1689 1.327 . S
C1692 C1680 1.349 . S
C1692 H1686 0.950 . S
C1692 C1693 1.327 . S
C1693 H1687 0.950 . S
C1693 C1692 1.327 . S
C1693 C1697 1.429 . S
C1694 C1677 1.574 . S
C1694 H1688 0.949 . S
C1694 C1698 1.368 . S
C1695 C1676 1.429 . S
C1695 C1689 1.429 . S
C1695 C1696 1.523 . S
C1696 C1677 1.368 . S
C1696 C1690 1.368 . S
C1696 C1695 1.523 . S
C1697 C1681 1.429 . S
C1697 C1693 1.429 . S
C1697 C1698 1.523 . S
C1698 C1682 1.368 . S
C1698 C1694 1.368 . S
C1698 C1697 1.523 . S
H1699 C1674 0.950 . S
H1700 C1676 0.950 . S
H1701 C1677 0.949 . S
H1702 C1679 0.950 . S
H1703 C1681 0.950 . S
C1704 C1705 1.349 . S
C1704 C1706 1.327 . S
C1704 H1729 0.950 . S
C1705 C1704 1.349 . S
C1705 C1721 1.349 . S
C1706 C1704 1.327 . S
C1706 C1725 1.429 . S
C1706 H1730 0.950 . S
C1707 C1724 1.574 . S
C1707 C1726 1.368 . S
C1707 H1731 0.949 . S
H1708 C1712 0.949 . S
C1709 C1710 1.349 . S
C1709 C1711 1.327 . S
C1709 H1732 0.950 . S
C1710 C1709 1.349 . S
C1710 C1722 1.349 . S
C1711 C1709 1.327 . S
C1711 C1727 1.429 . S
C1711 H1733 0.950 . S
C1712 H1708 0.949 . S
C1712 C1720 1.574 . S
C1712 C1728 1.368 . S
H1713 C1721 0.950 . S
H1714 C1719 0.950 . S
H1715 C1720 0.949 . S
H1716 C1722 0.950 . S
H1717 C1723 0.950 . S
H1718 C1724 0.949 . S
C1719 H1714 0.950 . S
C1719 C1721 1.327 . S
C1719 C1725 1.429 . S
C1720 C1712 1.574 . S
C1720 H1715 0.949 . S
C1720 C1726 1.368 . S
C1721 C1705 1.349 . S
C1721 H1713 0.950 . S
C1721 C1719 1.327 . S
C1722 C1710 1.349 . S
C1722 H1716 0.950 . S
C1722 C1723 1.327 . S
C1723 H1717 0.950 . S
C1723 C1722 1.327 . S
C1723 C1727 1.429 . S
C1724 C1707 1.574 . S
C1724 H1718 0.949 . S
C1724 C1728 1.368 . S
C1725 C1706 1.429 . S
C1725 C1719 1.429 . S
C1725 C1726 1.523 . S
C1726 C1707 1.368 . S
C1726 C1720 1.368 . S
C1726 C1725 1.523 . S
C1727 C1711 1.429 . S
C1727 C1723 1.429 . S
C1727 C1728 1.523 . S
C1728 C1712 1.368 . S
C1728 C1724 1.368 . S
C1728 C1727 1.523 . S
H1729 C1704 0.950 . S
H1730 C1706 0.950 . S
H1731 C1707 0.949 . S
H1732 C1709 0.950 . S
H1733 C1711 0.950 . S
C1734 C1735 1.349 . S
C1734 C1736 1.327 . S
C1734 H1759 0.950 . S
C1735 C1734 1.349 . S
C1735 C1751 1.349 . S
C1736 C1734 1.327 . S
C1736 C1755 1.429 . S
C1736 H1760 0.950 . S
C1737 C1754 1.574 . S
C1737 C1756 1.368 . S
C1737 H1761 0.949 . S
H1738 C1742 0.949 . S
C1739 C1740 1.349 . S
C1739 C1741 1.327 . S
C1739 H1762 0.950 . S
C1740 C1739 1.349 . S
C1740 C1752 1.349 . S
C1741 C1739 1.327 . S
C1741 C1757 1.429 . S
C1741 H1763 0.950 . S
C1742 H1738 0.949 . S
C1742 C1750 1.574 . S
C1742 C1758 1.368 . S
H1743 C1751 0.950 . S
H1744 C1749 0.950 . S
H1745 C1750 0.949 . S
H1746 C1752 0.950 . S
H1747 C1753 0.950 . S
H1748 C1754 0.949 . S
C1749 H1744 0.950 . S
C1749 C1751 1.327 . S
C1749 C1755 1.429 . S
C1750 C1742 1.574 . S
C1750 H1745 0.949 . S
C1750 C1756 1.368 . S
C1751 C1735 1.349 . S
C1751 H1743 0.950 . S
C1751 C1749 1.327 . S
C1752 C1740 1.349 . S
C1752 H1746 0.950 . S
C1752 C1753 1.327 . S
C1753 H1747 0.950 . S
C1753 C1752 1.327 . S
C1753 C1757 1.429 . S
C1754 C1737 1.574 . S
C1754 H1748 0.949 . S
C1754 C1758 1.368 . S
C1755 C1736 1.429 . S
C1755 C1749 1.429 . S
C1755 C1756 1.523 . S
C1756 C1737 1.368 . S
C1756 C1750 1.368 . S
C1756 C1755 1.523 . S
C1757 C1741 1.429 . S
C1757 C1753 1.429 . S
C1757 C1758 1.523 . S
C1758 C1742 1.368 . S
C1758 C1754 1.368 . S
C1758 C1757 1.523 . S
H1759 C1734 0.950 . S
H1760 C1736 0.950 . S
H1761 C1737 0.949 . S
H1762 C1739 0.950 . S
H1763 C1741 0.950 . S
C1764 C1765 1.349 . S
C1764 C1766 1.327 . S
C1764 H1789 0.950 1_565 S
C1765 C1764 1.349 . S
C1765 C1781 1.349 . S
C1766 C1764 1.327 . S
C1766 C1785 1.429 . S
C1766 H1790 0.950 . S
C1767 C1784 1.574 . S
C1767 C1786 1.368 . S
C1767 H1791 0.949 . S
H1768 C1772 0.949 . S
C1769 C1770 1.349 . S
C1769 C1771 1.327 . S
C1769 H1792 0.950 . S
C1770 C1769 1.349 . S
C1770 C1782 1.349 . S
C1771 C1769 1.327 . S
C1771 C1787 1.429 . S
C1771 H1793 0.950 . S
C1772 H1768 0.949 . S
C1772 C1780 1.574 . S
C1772 C1788 1.368 . S
H1773 C1781 0.950 . S
H1774 C1779 0.950 . S
H1775 C1780 0.949 . S
H1776 C1782 0.950 . S
H1777 C1783 0.950 . S
H1778 C1784 0.949 . S
C1779 H1774 0.950 . S
C1779 C1781 1.327 . S
C1779 C1785 1.429 . S
C1780 C1772 1.574 . S
C1780 H1775 0.949 . S
C1780 C1786 1.368 . S
C1781 C1765 1.349 . S
C1781 H1773 0.950 . S
C1781 C1779 1.327 . S
C1782 C1770 1.349 . S
C1782 H1776 0.950 . S
C1782 C1783 1.327 . S
C1783 H1777 0.950 . S
C1783 C1782 1.327 . S
C1783 C1787 1.429 . S
C1784 C1767 1.574 . S
C1784 H1778 0.949 . S
C1784 C1788 1.368 . S
C1785 C1766 1.429 . S
C1785 C1779 1.429 . S
C1785 C1786 1.523 . S
C1786 C1767 1.368 . S
C1786 C1780 1.368 . S
C1786 C1785 1.523 . S
C1787 C1771 1.429 . S
C1787 C1783 1.429 . S
C1787 C1788 1.523 . S
C1788 C1772 1.368 . S
C1788 C1784 1.368 . S
C1788 C1787 1.523 . S
H1789 C1764 0.950 1_545 S
H1790 C1766 0.950 . S
H1791 C1767 0.949 . S
H1792 C1769 0.950 . S
H1793 C1771 0.950 . S
C1794 C1795 1.349 . S
C1794 C1796 1.327 . S
C1794 H1819 0.950 . S
C1795 C1794 1.349 . S
C1795 C1811 1.349 . S
C1796 C1794 1.327 . S
C1796 C1815 1.429 . S
C1796 H1820 0.950 . S
C1797 C1814 1.574 . S
C1797 C1816 1.368 . S
C1797 H1821 0.949 . S
H1798 C1802 0.949 . S
C1799 C1800 1.349 . S
C1799 C1801 1.327 . S
C1799 H1822 0.950 . S
C1800 C1799 1.349 . S
C1800 C1812 1.349 . S
C1801 C1799 1.327 . S
C1801 C1817 1.429 . S
C1801 H1823 0.950 . S
C1802 H1798 0.949 . S
C1802 C1810 1.574 . S
C1802 C1818 1.368 . S
H1803 C1811 0.950 . S
H1804 C1809 0.950 . S
H1805 C1810 0.949 . S
H1806 C1812 0.950 . S
H1807 C1813 0.950 . S
H1808 C1814 0.949 . S
C1809 H1804 0.950 . S
C1809 C1811 1.327 . S
C1809 C1815 1.429 . S
C1810 C1802 1.574 . S
C1810 H1805 0.949 . S
C1810 C1816 1.368 . S
C1811 C1795 1.349 . S
C1811 H1803 0.950 . S
C1811 C1809 1.327 . S
C1812 C1800 1.349 . S
C1812 H1806 0.950 . S
C1812 C1813 1.327 . S
C1813 H1807 0.950 . S
C1813 C1812 1.327 . S
C1813 C1817 1.429 . S
C1814 C1797 1.574 . S
C1814 H1808 0.949 . S
C1814 C1818 1.368 . S
C1815 C1796 1.429 . S
C1815 C1809 1.429 . S
C1815 C1816 1.523 . S
C1816 C1797 1.368 . S
C1816 C1810 1.368 . S
C1816 C1815 1.523 . S
C1817 C1801 1.429 . S
C1817 C1813 1.429 . S
C1817 C1818 1.523 . S
C1818 C1802 1.368 . S
C1818 C1814 1.368 . S
C1818 C1817 1.523 . S
H1819 C1794 0.950 . S
H1820 C1796 0.950 . S
H1821 C1797 0.949 . S
H1822 C1799 0.950 . S
H1823 C1801 0.950 . S
C1824 C1825 1.349 . S
C1824 C1826 1.327 . S
C1824 H1849 0.950 . S
C1825 C1824 1.349 . S
C1825 C1841 1.349 . S
C1826 C1824 1.327 . S
C1826 C1845 1.429 . S
C1826 H1850 0.950 . S
C1827 C1844 1.574 . S
C1827 C1846 1.368 . S
C1827 H1851 0.949 . S
H1828 C1832 0.949 . S
C1829 C1830 1.349 . S
C1829 C1831 1.327 . S
C1829 H1852 0.950 . S
C1830 C1829 1.349 . S
C1830 C1842 1.349 . S
C1831 C1829 1.327 . S
C1831 C1847 1.429 . S
C1831 H1853 0.950 . S
C1832 H1828 0.949 . S
C1832 C1840 1.574 . S
C1832 C1848 1.368 . S
H1833 C1841 0.950 . S
H1834 C1839 0.950 . S
H1835 C1840 0.949 . S
H1836 C1842 0.950 . S
H1837 C1843 0.950 . S
H1838 C1844 0.949 . S
C1839 H1834 0.950 . S
C1839 C1841 1.327 . S
C1839 C1845 1.429 . S
C1840 C1832 1.574 . S
C1840 H1835 0.949 . S
C1840 C1846 1.368 . S
C1841 C1825 1.349 . S
C1841 H1833 0.950 . S
C1841 C1839 1.327 . S
C1842 C1830 1.349 . S
C1842 H1836 0.950 . S
C1842 C1843 1.327 . S
C1843 H1837 0.950 . S
C1843 C1842 1.327 . S
C1843 C1847 1.429 . S
C1844 C1827 1.574 . S
C1844 H1838 0.949 . S
C1844 C1848 1.368 . S
C1845 C1826 1.429 . S
C1845 C1839 1.429 . S
C1845 C1846 1.523 . S
C1846 C1827 1.368 . S
C1846 C1840 1.368 . S
C1846 C1845 1.523 . S
C1847 C1831 1.429 . S
C1847 C1843 1.429 . S
C1847 C1848 1.523 . S
C1848 C1832 1.368 . S
C1848 C1844 1.368 . S
C1848 C1847 1.523 . S
H1849 C1824 0.950 . S
H1850 C1826 0.950 . S
H1851 C1827 0.949 . S
H1852 C1829 0.950 . S
H1853 C1831 0.950 . S
C1854 C1855 1.349 . S
C1854 C1856 1.327 . S
C1854 H1879 0.950 . S
C1855 C1854 1.349 . S
C1855 C1871 1.349 . S
C1856 C1854 1.327 . S
C1856 C1875 1.429 . S
C1856 H1880 0.950 . S
C1857 C1874 1.574 . S
C1857 C1876 1.368 . S
C1857 H1881 0.949 . S
H1858 C1862 0.949 . S
C1859 C1860 1.349 . S
C1859 C1861 1.327 . S
C1859 H1882 0.950 . S
C1860 C1859 1.349 . S
C1860 C1872 1.349 . S
C1861 C1859 1.327 . S
C1861 C1877 1.429 . S
C1861 H1883 0.950 . S
C1862 H1858 0.949 . S
C1862 C1870 1.574 . S
C1862 C1878 1.368 . S
H1863 C1871 0.950 . S
H1864 C1869 0.950 . S
H1865 C1870 0.949 . S
H1866 C1872 0.950 . S
H1867 C1873 0.950 . S
H1868 C1874 0.949 . S
C1869 H1864 0.950 . S
C1869 C1871 1.327 . S
C1869 C1875 1.429 . S
C1870 C1862 1.574 . S
C1870 H1865 0.949 . S
C1870 C1876 1.368 . S
C1871 C1855 1.349 . S
C1871 H1863 0.950 . S
C1871 C1869 1.327 . S
C1872 C1860 1.349 . S
C1872 H1866 0.950 . S
C1872 C1873 1.327 . S
C1873 H1867 0.950 . S
C1873 C1872 1.327 . S
C1873 C1877 1.429 . S
C1874 C1857 1.574 . S
C1874 H1868 0.949 . S
C1874 C1878 1.368 . S
C1875 C1856 1.429 . S
C1875 C1869 1.429 . S
C1875 C1876 1.523 . S
C1876 C1857 1.368 . S
C1876 C1870 1.368 . S
C1876 C1875 1.523 . S
C1877 C1861 1.429 . S
C1877 C1873 1.429 . S
C1877 C1878 1.523 . S
C1878 C1862 1.368 . S
C1878 C1874 1.368 . S
C1878 C1877 1.523 . S
H1879 C1854 0.950 . S
H1880 C1856 0.950 . S
H1881 C1857 0.949 . S
H1882 C1859 0.950 . S
H1883 C1861 0.950 . S
C1884 C1885 1.349 . S
C1884 C1886 1.327 . S
C1884 H1909 0.950 . S
C1885 C1884 1.349 . S
C1885 C1901 1.349 . S
C1886 C1884 1.327 . S
C1886 C1905 1.429 . S
C1886 H1910 0.950 . S
C1887 C1904 1.574 1_545 S
C1887 C1906 1.368 . S
C1887 H1911 0.949 . S
H1888 C1892 0.948 . S
C1889 C1890 1.349 . S
C1889 C1891 1.327 . S
C1889 H1912 0.950 . S
C1890 C1889 1.349 . S
C1890 C1902 1.349 . S
C1891 C1889 1.327 . S
C1891 C1907 1.429 . S
C1891 H1913 0.950 . S
C1892 H1888 0.948 . S
C1892 C1900 1.574 . S
C1892 C1908 1.368 1_545 S
H1893 C1901 0.950 . S
H1894 C1899 0.950 . S
H1895 C1900 0.949 . S
H1896 C1902 0.950 . S
H1897 C1903 0.950 . S
H1898 C1904 0.949 . S
C1899 H1894 0.950 . S
C1899 C1901 1.327 . S
C1899 C1905 1.429 . S
C1900 C1892 1.574 . S
C1900 H1895 0.949 . S
C1900 C1906 1.368 . S
C1901 C1885 1.349 . S
C1901 H1893 0.950 . S
C1901 C1899 1.327 . S
C1902 C1890 1.349 . S
C1902 H1896 0.950 . S
C1902 C1903 1.327 . S
C1903 H1897 0.950 . S
C1903 C1902 1.327 . S
C1903 C1907 1.429 . S
C1904 C1887 1.574 1_565 S
C1904 H1898 0.949 . S
C1904 C1908 1.368 . S
C1905 C1886 1.429 . S
C1905 C1899 1.429 . S
C1905 C1906 1.523 . S
C1906 C1887 1.368 . S
C1906 C1900 1.368 . S
C1906 C1905 1.523 . S
C1907 C1891 1.429 . S
C1907 C1903 1.429 . S
C1907 C1908 1.523 . S
C1908 C1892 1.368 1_565 S
C1908 C1904 1.368 . S
C1908 C1907 1.523 . S
H1909 C1884 0.950 . S
H1910 C1886 0.950 . S
H1911 C1887 0.949 . S
H1912 C1889 0.950 . S
H1913 C1891 0.950 . S
C1914 C1915 1.349 . S
C1914 C1916 1.327 . S
C1914 H1939 0.950 . S
C1915 C1914 1.349 . S
C1915 C1931 1.349 . S
C1916 C1914 1.327 . S
C1916 C1935 1.429 . S
C1916 H1940 0.950 . S
C1917 C1934 1.574 . S
C1917 C1936 1.368 . S
C1917 H1941 0.949 . S
H1918 C1922 0.949 . S
C1919 C1920 1.349 . S
C1919 C1921 1.327 . S
C1919 H1942 0.950 . S
C1920 C1919 1.349 . S
C1920 C1932 1.349 . S
C1921 C1919 1.327 . S
C1921 C1937 1.429 . S
C1921 H1943 0.950 . S
C1922 H1918 0.949 . S
C1922 C1930 1.574 . S
C1922 C1938 1.368 . S
H1923 C1931 0.950 . S
H1924 C1929 0.950 . S
H1925 C1930 0.949 . S
H1926 C1932 0.950 . S
H1927 C1933 0.950 . S
H1928 C1934 0.949 . S
C1929 H1924 0.950 . S
C1929 C1931 1.327 . S
C1929 C1935 1.429 . S
C1930 C1922 1.574 . S
C1930 H1925 0.949 . S
C1930 C1936 1.368 . S
C1931 C1915 1.349 . S
C1931 H1923 0.950 . S
C1931 C1929 1.327 . S
C1932 C1920 1.349 . S
C1932 H1926 0.950 . S
C1932 C1933 1.327 . S
C1933 H1927 0.950 . S
C1933 C1932 1.327 . S
C1933 C1937 1.429 . S
C1934 C1917 1.574 . S
C1934 H1928 0.949 . S
C1934 C1938 1.368 . S
C1935 C1916 1.429 . S
C1935 C1929 1.429 . S
C1935 C1936 1.523 . S
C1936 C1917 1.368 . S
C1936 C1930 1.368 . S
C1936 C1935 1.523 . S
C1937 C1921 1.429 . S
C1937 C1933 1.429 . S
C1937 C1938 1.523 1_655 S
C1938 C1922 1.368 . S
C1938 C1934 1.368 . S
C1938 C1937 1.523 1_455 S
H1939 C1914 0.950 . S
H1940 C1916 0.950 . S
H1941 C1917 0.949 . S
H1942 C1919 0.950 . S
H1943 C1921 0.950 . S
C1944 C1945 1.349 . S
C1944 C1946 1.327 . S
C1944 H1969 0.950 . S
C1945 C1944 1.349 . S
C1945 C1961 1.349 . S
C1946 C1944 1.327 . S
C1946 C1965 1.429 . S
C1946 H1970 0.950 . S
C1947 C1964 1.574 . S
C1947 C1966 1.368 . S
C1947 H1971 0.949 . S
H1948 C1952 0.949 . S
C1949 C1950 1.349 . S
C1949 C1951 1.327 . S
C1949 H1972 0.950 . S
C1950 C1949 1.349 . S
C1950 C1962 1.349 . S
C1951 C1949 1.327 . S
C1951 C1967 1.429 . S
C1951 H1973 0.950 . S
C1952 H1948 0.949 . S
C1952 C1960 1.574 . S
C1952 C1968 1.368 . S
H1953 C1961 0.950 . S
H1954 C1959 0.950 . S
H1955 C1960 0.949 . S
H1956 C1962 0.950 . S
H1957 C1963 0.950 . S
H1958 C1964 0.949 . S
C1959 H1954 0.950 . S
C1959 C1961 1.327 . S
C1959 C1965 1.429 . S
C1960 C1952 1.574 . S
C1960 H1955 0.949 . S
C1960 C1966 1.368 . S
C1961 C1945 1.349 . S
C1961 H1953 0.950 . S
C1961 C1959 1.327 . S
C1962 C1950 1.349 . S
C1962 H1956 0.950 . S
C1962 C1963 1.327 . S
C1963 H1957 0.950 . S
C1963 C1962 1.327 . S
C1963 C1967 1.429 . S
C1964 C1947 1.574 . S
C1964 H1958 0.949 . S
C1964 C1968 1.368 . S
C1965 C1946 1.429 . S
C1965 C1959 1.429 . S
C1965 C1966 1.523 . S
C1966 C1947 1.368 . S
C1966 C1960 1.368 . S
C1966 C1965 1.523 . S
C1967 C1951 1.429 . S
C1967 C1963 1.429 . S
C1967 C1968 1.523 . S
C1968 C1952 1.368 . S
C1968 C1964 1.368 . S
C1968 C1967 1.523 . S
H1969 C1944 0.950 . S
H1970 C1946 0.950 . S
H1971 C1947 0.949 . S
H1972 C1949 0.950 . S
H1973 C1951 0.950 . S
C1974 C1975 1.349 . S
C1974 C1976 1.327 . S
C1974 H1999 0.950 . S
C1975 C1974 1.349 . S
C1975 C1991 1.349 . S
C1976 C1974 1.327 . S
C1976 C1995 1.429 . S
C1976 H2000 0.950 . S
C1977 C1994 1.574 . S
C1977 C1996 1.368 . S
C1977 H2001 0.949 . S
H1978 C1982 0.949 . S
C1979 C1980 1.349 . S
C1979 C1981 1.327 . S
C1979 H2002 0.950 . S
C1980 C1979 1.349 . S
C1980 C1992 1.349 . S
C1981 C1979 1.327 . S
C1981 C1997 1.429 . S
C1981 H2003 0.950 . S
C1982 H1978 0.949 . S
C1982 C1990 1.574 . S
C1982 C1998 1.368 . S
H1983 C1991 0.950 . S
H1984 C1989 0.950 . S
H1985 C1990 0.949 . S
H1986 C1992 0.950 . S
H1987 C1993 0.950 . S
H1988 C1994 0.949 . S
C1989 H1984 0.950 . S
C1989 C1991 1.327 . S
C1989 C1995 1.429 . S
C1990 C1982 1.574 . S
C1990 H1985 0.949 . S
C1990 C1996 1.368 . S
C1991 C1975 1.349 . S
C1991 H1983 0.950 . S
C1991 C1989 1.327 . S
C1992 C1980 1.349 . S
C1992 H1986 0.950 . S
C1992 C1993 1.327 . S
C1993 H1987 0.950 . S
C1993 C1992 1.327 . S
C1993 C1997 1.429 . S
C1994 C1977 1.574 . S
C1994 H1988 0.949 . S
C1994 C1998 1.368 . S
C1995 C1976 1.429 . S
C1995 C1989 1.429 . S
C1995 C1996 1.523 . S
C1996 C1977 1.368 . S
C1996 C1990 1.368 . S
C1996 C1995 1.523 . S
C1997 C1981 1.429 . S
C1997 C1993 1.429 . S
C1997 C1998 1.523 1_565 S
C1998 C1982 1.368 . S
C1998 C1994 1.368 . S
C1998 C1997 1.523 1_545 S
H1999 C1974 0.950 . S
H2000 C1976 0.950 . S
H2001 C1977 0.949 . S
H2002 C1979 0.950 . S
H2003 C1981 0.950 . S
C2004 C2005 1.349 . S
C2004 C2006 1.327 . S
C2004 H2029 0.950 . S
C2005 C2004 1.349 . S
C2005 C2021 1.349 . S
C2006 C2004 1.327 . S
C2006 C2025 1.429 . S
C2006 H2030 0.950 . S
C2007 C2024 1.574 1_455 S
C2007 C2026 1.368 . S
C2007 H2031 0.949 . S
H2008 C2012 0.949 . S
C2009 C2010 1.349 . S
C2009 C2011 1.327 . S
C2009 H2032 0.950 . S
C2010 C2009 1.349 . S
C2010 C2022 1.349 . S
C2011 C2009 1.327 . S
C2011 C2027 1.429 . S
C2011 H2033 0.950 . S
C2012 H2008 0.949 . S
C2012 C2020 1.574 1_655 S
C2012 C2028 1.368 . S
H2013 C2021 0.950 . S
H2014 C2019 0.950 . S
H2015 C2020 0.949 . S
H2016 C2022 0.950 . S
H2017 C2023 0.950 . S
H2018 C2024 0.949 . S
C2019 H2014 0.950 . S
C2019 C2021 1.327 . S
C2019 C2025 1.429 . S
C2020 C2012 1.574 1_455 S
C2020 H2015 0.949 . S
C2020 C2026 1.368 . S
C2021 C2005 1.349 . S
C2021 H2013 0.950 . S
C2021 C2019 1.327 . S
C2022 C2010 1.349 . S
C2022 H2016 0.950 . S
C2022 C2023 1.327 . S
C2023 H2017 0.950 . S
C2023 C2022 1.327 . S
C2023 C2027 1.429 . S
C2024 C2007 1.574 1_655 S
C2024 H2018 0.949 . S
C2024 C2028 1.368 . S
C2025 C2006 1.429 . S
C2025 C2019 1.429 . S
C2025 C2026 1.523 . S
C2026 C2007 1.368 . S
C2026 C2020 1.368 . S
C2026 C2025 1.523 . S
C2027 C2011 1.429 . S
C2027 C2023 1.429 . S
C2027 C2028 1.523 . S
C2028 C2012 1.368 . S
C2028 C2024 1.368 . S
C2028 C2027 1.523 . S
H2029 C2004 0.950 . S
H2030 C2006 0.950 . S
H2031 C2007 0.949 . S
H2032 C2009 0.950 . S
H2033 C2011 0.950 . S
C955 C250 1.954 . S
C960 C38 1.954 . S
C985 C304 1.954 . S
C990 C92 1.954 . S
C1015 C144 1.125 . S
C1020 C188 1.125 . S
C1045 C251 1.919 . S
C1050 C39 1.918 . S
C1075 C303 1.919 . S
C1080 C91 1.919 . S
C1105 C145 1.086 . S
C1110 C181 1.086 . S
C1135 C569 1.911 . S
C1140 C356 1.911 . S
C1165 C622 1.910 . S
C1170 C409 1.909 . S
C1195 C462 1.909 . S
C1200 C516 1.910 . S
C1225 C357 1.962 . S
C1230 C568 1.962 . S
C1255 C621 1.964 . S
C1260 C410 1.963 . S
C1285 C515 1.963 . S
C1290 C463 1.963 . S
C1315 C887 1.114 . S
C1320 C665 1.114 . S
C1345 C711 1.117 . S
C1350 C939 1.116 . S
C1375 C824 0.286 . S
C1380 C764 0.285 . S
C1405 C886 1.097 . S
C1410 C658 1.097 . S
C1435 C940 1.094 . S
C1440 C718 1.094 . S
C1465 C771 0.264 . S
C1470 C817 0.265 . S
C1495 C22 1.521 . S
C1500 C506 1.522 . S
C1525 C559 1.503 . S
C1530 C82 1.503 . S
C1555 C612 1.502 . S
C1560 C128 1.502 . S
C1585 C198 1.516 . S
C1590 C675 1.515 . S
C1615 C727 1.508 . S
C1620 C234 1.508 . S
C1645 C780 1.504 . S
C1650 C294 1.505 . S
C1675 C833 1.527 . S
C1680 C29 1.525 . S
C1705 C870 1.510 . S
C1710 C75 1.511 . S
C1735 C930 1.501 . S
C1740 C135 1.501 . S
C1765 C197 1.518 . S
C1770 C347 1.519 . S
C1795 C241 1.507 . S
C1800 C400 1.507 . S
C1825 C453 1.508 . S
C1830 C287 1.508 . S
C1855 C834 1.509 . S
C1860 C340 1.508 . S
C1885 C877 1.519 . S
C1890 C393 1.519 . S
C1915 C446 1.507 . S
C1920 C923 1.509 . S
C1945 C674 1.502 . S
C1950 C499 1.502 . S
C1975 C728 1.507 . S
C1980 C552 1.506 . S
C2005 C605 1.507 . S
C2010 C781 1.508 . S
