# Generated by pormake.
# Topology nfb, (4)-cn, num edge types: 1
# Building blocks:
#     Node 0, Type 0, BuildingBlock: TATPOV_clean_sbu_0, # of connection points: 4
#     Node 1, Type 0, BuildingBlock: TATPOV_clean_sbu_0, # of connection points: 4
#     Node 2, Type 0, BuildingBlock: TATPOV_clean_sbu_0, # of connection points: 4
#     Node 3, Type 0, BuildingBlock: TATPOV_clean_sbu_0, # of connection points: 4
#     Node 4, Type 0, BuildingBlock: TATPOV_clean_sbu_0, # of connection points: 4
#     Node 5, Type 0, BuildingBlock: TATPOV_clean_sbu_0, # of connection points: 4
#     Node 6, Type 0, BuildingBlock: TATPOV_clean_sbu_0, # of connection points: 4
#     Node 7, Type 0, BuildingBlock: TATPOV_clean_sbu_0, # of connection points: 4
#     Node 8, Type 0, BuildingBlock: TATPOV_clean_sbu_0, # of connection points: 4
#     Node 9, Type 0, BuildingBlock: TATPOV_clean_sbu_0, # of connection points: 4
#     Node 10, Type 0, BuildingBlock: TATPOV_clean_sbu_0, # of connection points: 4
#     Node 11, Type 0, BuildingBlock: TATPOV_clean_sbu_0, # of connection points: 4
#     Node 12, Type 0, BuildingBlock: TATPOV_clean_sbu_0, # of connection points: 4
#     Node 13, Type 0, BuildingBlock: TATPOV_clean_sbu_0, # of connection points: 4
#     Node 14, Type 0, BuildingBlock: TATPOV_clean_sbu_0, # of connection points: 4
#     Node 15, Type 0, BuildingBlock: TATPOV_clean_sbu_0, # of connection points: 4
#     Node 16, Type 0, BuildingBlock: TATPOV_clean_sbu_0, # of connection points: 4
#     Node 17, Type 0, BuildingBlock: TATPOV_clean_sbu_0, # of connection points: 4
#     Node 18, Type 0, BuildingBlock: TATPOV_clean_sbu_0, # of connection points: 4
#     Node 19, Type 0, BuildingBlock: TATPOV_clean_sbu_0, # of connection points: 4
#     Node 20, Type 0, BuildingBlock: TATPOV_clean_sbu_0, # of connection points: 4
#     Node 21, Type 0, BuildingBlock: TATPOV_clean_sbu_0, # of connection points: 4
#     Node 22, Type 0, BuildingBlock: TATPOV_clean_sbu_0, # of connection points: 4
#     Node 23, Type 0, BuildingBlock: TATPOV_clean_sbu_0, # of connection points: 4
#     Node 24, Type 0, BuildingBlock: TATPOV_clean_sbu_0, # of connection points: 4
#     Node 25, Type 0, BuildingBlock: TATPOV_clean_sbu_0, # of connection points: 4
#     Node 26, Type 0, BuildingBlock: TATPOV_clean_sbu_0, # of connection points: 4
#     Node 27, Type 0, BuildingBlock: TATPOV_clean_sbu_0, # of connection points: 4
#     Node 28, Type 0, BuildingBlock: TATPOV_clean_sbu_0, # of connection points: 4
#     Node 29, Type 0, BuildingBlock: TATPOV_clean_sbu_0, # of connection points: 4
#     Node 30, Type 0, BuildingBlock: TATPOV_clean_sbu_0, # of connection points: 4
#     Node 31, Type 0, BuildingBlock: TATPOV_clean_sbu_0, # of connection points: 4
#     Node 32, Type 0, BuildingBlock: TATPOV_clean_sbu_0, # of connection points: 4
#     Node 33, Type 0, BuildingBlock: TATPOV_clean_sbu_0, # of connection points: 4
#     Node 34, Type 0, BuildingBlock: TATPOV_clean_sbu_0, # of connection points: 4
#     Node 35, Type 0, BuildingBlock: TATPOV_clean_sbu_0, # of connection points: 4
#     Node 36, Type 0, BuildingBlock: TATPOV_clean_sbu_0, # of connection points: 4
#     Node 37, Type 0, BuildingBlock: TATPOV_clean_sbu_0, # of connection points: 4
#     Node 38, Type 0, BuildingBlock: TATPOV_clean_sbu_0, # of connection points: 4
#     Node 39, Type 0, BuildingBlock: TATPOV_clean_sbu_0, # of connection points: 4
#     Node 40, Type 0, BuildingBlock: TATPOV_clean_sbu_0, # of connection points: 4
#     Node 41, Type 0, BuildingBlock: TATPOV_clean_sbu_0, # of connection points: 4
#     Node 42, Type 0, BuildingBlock: TATPOV_clean_sbu_0, # of connection points: 4
#     Node 43, Type 0, BuildingBlock: TATPOV_clean_sbu_0, # of connection points: 4
#     Node 44, Type 0, BuildingBlock: TATPOV_clean_sbu_0, # of connection points: 4
#     Node 45, Type 0, BuildingBlock: TATPOV_clean_sbu_0, # of connection points: 4
#     Node 46, Type 0, BuildingBlock: TATPOV_clean_sbu_0, # of connection points: 4
#     Node 47, Type 0, BuildingBlock: TATPOV_clean_sbu_0, # of connection points: 4
#     Edge 48, Type (0, 0), BuildingBlock: ZUJKAS_clean_linker_0, # of connection points: 2
#     Edge 49, Type (0, 0), BuildingBlock: ZUJKAS_clean_linker_0, # of connection points: 2
#     Edge 50, Type (0, 0), BuildingBlock: ZUJKAS_clean_linker_0, # of connection points: 2
#     Edge 51, Type (0, 0), BuildingBlock: ZUJKAS_clean_linker_0, # of connection points: 2
#     Edge 52, Type (0, 0), BuildingBlock: ZUJKAS_clean_linker_0, # of connection points: 2
#     Edge 53, Type (0, 0), BuildingBlock: ZUJKAS_clean_linker_0, # of connection points: 2
#     Edge 54, Type (0, 0), BuildingBlock: ZUJKAS_clean_linker_0, # of connection points: 2
#     Edge 55, Type (0, 0), BuildingBlock: ZUJKAS_clean_linker_0, # of connection points: 2
#     Edge 56, Type (0, 0), BuildingBlock: ZUJKAS_clean_linker_0, # of connection points: 2
#     Edge 57, Type (0, 0), BuildingBlock: ZUJKAS_clean_linker_0, # of connection points: 2
#     Edge 58, Type (0, 0), BuildingBlock: ZUJKAS_clean_linker_0, # of connection points: 2
#     Edge 59, Type (0, 0), BuildingBlock: ZUJKAS_clean_linker_0, # of connection points: 2
#     Edge 60, Type (0, 0), BuildingBlock: ZUJKAS_clean_linker_0, # of connection points: 2
#     Edge 61, Type (0, 0), BuildingBlock: ZUJKAS_clean_linker_0, # of connection points: 2
#     Edge 62, Type (0, 0), BuildingBlock: ZUJKAS_clean_linker_0, # of connection points: 2
#     Edge 63, Type (0, 0), BuildingBlock: ZUJKAS_clean_linker_0, # of connection points: 2
#     Edge 64, Type (0, 0), BuildingBlock: ZUJKAS_clean_linker_0, # of connection points: 2
#     Edge 65, Type (0, 0), BuildingBlock: ZUJKAS_clean_linker_0, # of connection points: 2
#     Edge 66, Type (0, 0), BuildingBlock: ZUJKAS_clean_linker_0, # of connection points: 2
#     Edge 67, Type (0, 0), BuildingBlock: ZUJKAS_clean_linker_0, # of connection points: 2
#     Edge 68, Type (0, 0), BuildingBlock: ZUJKAS_clean_linker_0, # of connection points: 2
#     Edge 69, Type (0, 0), BuildingBlock: ZUJKAS_clean_linker_0, # of connection points: 2
#     Edge 70, Type (0, 0), BuildingBlock: ZUJKAS_clean_linker_0, # of connection points: 2
#     Edge 71, Type (0, 0), BuildingBlock: ZUJKAS_clean_linker_0, # of connection points: 2
#     Edge 72, Type (0, 0), BuildingBlock: ZUJKAS_clean_linker_0, # of connection points: 2
#     Edge 73, Type (0, 0), BuildingBlock: ZUJKAS_clean_linker_0, # of connection points: 2
#     Edge 74, Type (0, 0), BuildingBlock: ZUJKAS_clean_linker_0, # of connection points: 2
#     Edge 75, Type (0, 0), BuildingBlock: ZUJKAS_clean_linker_0, # of connection points: 2
#     Edge 76, Type (0, 0), BuildingBlock: ZUJKAS_clean_linker_0, # of connection points: 2
#     Edge 77, Type (0, 0), BuildingBlock: ZUJKAS_clean_linker_0, # of connection points: 2
#     Edge 78, Type (0, 0), BuildingBlock: ZUJKAS_clean_linker_0, # of connection points: 2
#     Edge 79, Type (0, 0), BuildingBlock: ZUJKAS_clean_linker_0, # of connection points: 2
#     Edge 80, Type (0, 0), BuildingBlock: ZUJKAS_clean_linker_0, # of connection points: 2
#     Edge 81, Type (0, 0), BuildingBlock: ZUJKAS_clean_linker_0, # of connection points: 2
#     Edge 82, Type (0, 0), BuildingBlock: ZUJKAS_clean_linker_0, # of connection points: 2
#     Edge 83, Type (0, 0), BuildingBlock: ZUJKAS_clean_linker_0, # of connection points: 2
#     Edge 84, Type (0, 0), BuildingBlock: ZUJKAS_clean_linker_0, # of connection points: 2
#     Edge 85, Type (0, 0), BuildingBlock: ZUJKAS_clean_linker_0, # of connection points: 2
#     Edge 86, Type (0, 0), BuildingBlock: ZUJKAS_clean_linker_0, # of connection points: 2
#     Edge 87, Type (0, 0), BuildingBlock: ZUJKAS_clean_linker_0, # of connection points: 2
#     Edge 88, Type (0, 0), BuildingBlock: ZUJKAS_clean_linker_0, # of connection points: 2
#     Edge 89, Type (0, 0), BuildingBlock: ZUJKAS_clean_linker_0, # of connection points: 2
#     Edge 90, Type (0, 0), BuildingBlock: ZUJKAS_clean_linker_0, # of connection points: 2
#     Edge 91, Type (0, 0), BuildingBlock: ZUJKAS_clean_linker_0, # of connection points: 2
#     Edge 92, Type (0, 0), BuildingBlock: ZUJKAS_clean_linker_0, # of connection points: 2
#     Edge 93, Type (0, 0), BuildingBlock: ZUJKAS_clean_linker_0, # of connection points: 2
#     Edge 94, Type (0, 0), BuildingBlock: ZUJKAS_clean_linker_0, # of connection points: 2
#     Edge 95, Type (0, 0), BuildingBlock: ZUJKAS_clean_linker_0, # of connection points: 2
#     Edge 96, Type (0, 0), BuildingBlock: ZUJKAS_clean_linker_0, # of connection points: 2
#     Edge 97, Type (0, 0), BuildingBlock: ZUJKAS_clean_linker_0, # of connection points: 2
#     Edge 98, Type (0, 0), BuildingBlock: ZUJKAS_clean_linker_0, # of connection points: 2
#     Edge 99, Type (0, 0), BuildingBlock: ZUJKAS_clean_linker_0, # of connection points: 2
#     Edge 100, Type (0, 0), BuildingBlock: ZUJKAS_clean_linker_0, # of connection points: 2
#     Edge 101, Type (0, 0), BuildingBlock: ZUJKAS_clean_linker_0, # of connection points: 2
#     Edge 102, Type (0, 0), BuildingBlock: ZUJKAS_clean_linker_0, # of connection points: 2
#     Edge 103, Type (0, 0), BuildingBlock: ZUJKAS_clean_linker_0, # of connection points: 2
#     Edge 104, Type (0, 0), BuildingBlock: ZUJKAS_clean_linker_0, # of connection points: 2
#     Edge 105, Type (0, 0), BuildingBlock: ZUJKAS_clean_linker_0, # of connection points: 2
#     Edge 106, Type (0, 0), BuildingBlock: ZUJKAS_clean_linker_0, # of connection points: 2
#     Edge 107, Type (0, 0), BuildingBlock: ZUJKAS_clean_linker_0, # of connection points: 2
#     Edge 108, Type (0, 0), BuildingBlock: ZUJKAS_clean_linker_0, # of connection points: 2
#     Edge 109, Type (0, 0), BuildingBlock: ZUJKAS_clean_linker_0, # of connection points: 2
#     Edge 110, Type (0, 0), BuildingBlock: ZUJKAS_clean_linker_0, # of connection points: 2
#     Edge 111, Type (0, 0), BuildingBlock: ZUJKAS_clean_linker_0, # of connection points: 2
#     Edge 112, Type (0, 0), BuildingBlock: ZUJKAS_clean_linker_0, # of connection points: 2
#     Edge 113, Type (0, 0), BuildingBlock: ZUJKAS_clean_linker_0, # of connection points: 2
#     Edge 114, Type (0, 0), BuildingBlock: ZUJKAS_clean_linker_0, # of connection points: 2
#     Edge 115, Type (0, 0), BuildingBlock: ZUJKAS_clean_linker_0, # of connection points: 2
#     Edge 116, Type (0, 0), BuildingBlock: ZUJKAS_clean_linker_0, # of connection points: 2
#     Edge 117, Type (0, 0), BuildingBlock: ZUJKAS_clean_linker_0, # of connection points: 2
#     Edge 118, Type (0, 0), BuildingBlock: ZUJKAS_clean_linker_0, # of connection points: 2
#     Edge 119, Type (0, 0), BuildingBlock: ZUJKAS_clean_linker_0, # of connection points: 2
#     Edge 120, Type (0, 0), BuildingBlock: ZUJKAS_clean_linker_0, # of connection points: 2
#     Edge 121, Type (0, 0), BuildingBlock: ZUJKAS_clean_linker_0, # of connection points: 2
#     Edge 122, Type (0, 0), BuildingBlock: ZUJKAS_clean_linker_0, # of connection points: 2
#     Edge 123, Type (0, 0), BuildingBlock: ZUJKAS_clean_linker_0, # of connection points: 2
#     Edge 124, Type (0, 0), BuildingBlock: ZUJKAS_clean_linker_0, # of connection points: 2
#     Edge 125, Type (0, 0), BuildingBlock: ZUJKAS_clean_linker_0, # of connection points: 2
#     Edge 126, Type (0, 0), BuildingBlock: ZUJKAS_clean_linker_0, # of connection points: 2
#     Edge 127, Type (0, 0), BuildingBlock: ZUJKAS_clean_linker_0, # of connection points: 2
#     Edge 128, Type (0, 0), BuildingBlock: ZUJKAS_clean_linker_0, # of connection points: 2
#     Edge 129, Type (0, 0), BuildingBlock: ZUJKAS_clean_linker_0, # of connection points: 2
#     Edge 130, Type (0, 0), BuildingBlock: ZUJKAS_clean_linker_0, # of connection points: 2
#     Edge 131, Type (0, 0), BuildingBlock: ZUJKAS_clean_linker_0, # of connection points: 2
#     Edge 132, Type (0, 0), BuildingBlock: ZUJKAS_clean_linker_0, # of connection points: 2
#     Edge 133, Type (0, 0), BuildingBlock: ZUJKAS_clean_linker_0, # of connection points: 2
#     Edge 134, Type (0, 0), BuildingBlock: ZUJKAS_clean_linker_0, # of connection points: 2
#     Edge 135, Type (0, 0), BuildingBlock: ZUJKAS_clean_linker_0, # of connection points: 2
#     Edge 136, Type (0, 0), BuildingBlock: ZUJKAS_clean_linker_0, # of connection points: 2
#     Edge 137, Type (0, 0), BuildingBlock: ZUJKAS_clean_linker_0, # of connection points: 2
#     Edge 138, Type (0, 0), BuildingBlock: ZUJKAS_clean_linker_0, # of connection points: 2
#     Edge 139, Type (0, 0), BuildingBlock: ZUJKAS_clean_linker_0, # of connection points: 2
#     Edge 140, Type (0, 0), BuildingBlock: ZUJKAS_clean_linker_0, # of connection points: 2
#     Edge 141, Type (0, 0), BuildingBlock: ZUJKAS_clean_linker_0, # of connection points: 2
#     Edge 142, Type (0, 0), BuildingBlock: ZUJKAS_clean_linker_0, # of connection points: 2
#     Edge 143, Type (0, 0), BuildingBlock: ZUJKAS_clean_linker_0, # of connection points: 2
# Relax obj value: 0.381
# Max RMSD: 0.219
# Mean RMSD: 0.178
data_MOF--net-nfb--node1-TATPOV_clean_sbu_0--edge1-ZUJKAS_clean_linker_0
_symmetry_space_group_name_H-M    P1
_symmetry_Int_Tables_number       1
_symmetry_cell_setting            triclinic
loop_
_symmetry_equiv_pos_as_xyz
'x, y, z'
_cell_length_a     75.605162
_cell_length_b     74.491251
_cell_length_c     74.501815
_cell_angle_alpha  90.000631
_cell_angle_beta   89.995792
_cell_angle_gamma 89.4827
loop_
_atom_site_label
_atom_site_type_symbol
_atom_site_fract_x
_atom_site_fract_y
_atom_site_fract_z
_atom_type_partial_charge
Zn0 Zn 0.1257 0.13968 0.33816 0.0
Zn1 Zn 0.12133 0.13384 0.37368 0.0
O2 O 0.1004 0.12102 0.36165 0.0
O3 O 0.10384 0.12437 0.33258 0.0
O4 O 0.11877 0.12793 0.39983 0.0
O5 O 0.15155 0.1307 0.34012 0.0
O6 O 0.14719 0.12675 0.369 0.0
C7 C 0.09486 0.11855 0.3457 0.0
C8 C 0.1192 0.17191 0.35979 0.0
O9 O 0.11878 0.16093 0.37286 0.0
O10 O 0.12152 0.16624 0.34389 0.0
C11 C 0.10432 0.12358 0.40733 0.0
O12 O 0.08975 0.12298 0.39777 0.0
C13 C 0.15756 0.12667 0.35553 0.0
Zn14 Zn 0.42056 0.61038 0.86773 0.0
Zn15 Zn 0.38585 0.60494 0.87591 0.0
O16 O 0.38608 0.63118 0.86823 0.0
O17 O 0.41368 0.6365 0.86082 0.0
O18 O 0.36024 0.60066 0.8807 0.0
O19 O 0.41971 0.58804 0.85114 0.0
O20 O 0.39173 0.5849 0.85833 0.0
C21 C 0.39791 0.64207 0.86308 0.0
C22 C 0.41352 0.60258 0.90543 0.0
O23 O 0.39759 0.60155 0.90005 0.0
O24 O 0.42581 0.60614 0.89441 0.0
C25 C 0.35163 0.60995 0.89206 0.0
O26 O 0.35981 0.6225 0.90115 0.0
C27 C 0.40539 0.57935 0.84998 0.0
Zn28 Zn 0.87733 0.86319 0.34012 0.0
Zn29 Zn 0.88146 0.86998 0.37541 0.0
O30 O 0.90249 0.8823 0.36295 0.0
O31 O 0.8991 0.87836 0.33396 0.0
O32 O 0.88394 0.8771 0.40129 0.0
O33 O 0.85145 0.87204 0.34154 0.0
O34 O 0.85556 0.87672 0.37034 0.0
C35 C 0.90808 0.8844 0.34697 0.0
C36 C 0.88381 0.83158 0.36277 0.0
O37 O 0.88407 0.84286 0.37559 0.0
O38 O 0.88161 0.83687 0.34672 0.0
C39 C 0.8985 0.88141 0.40856 0.0
O40 O 0.91311 0.88096 0.39903 0.0
C41 C 0.84529 0.87639 0.3568 0.0
Zn42 Zn 0.58458 0.38915 0.86953 0.0
Zn43 Zn 0.61875 0.39546 0.87883 0.0
O44 O 0.61911 0.36906 0.87144 0.0
O45 O 0.59186 0.36302 0.86331 0.0
O46 O 0.64422 0.40012 0.884 0.0
O47 O 0.58548 0.41104 0.85241 0.0
O48 O 0.61289 0.41535 0.86102 0.0
C49 C 0.60767 0.35783 0.86609 0.0
C50 C 0.59023 0.39809 0.90733 0.0
O51 O 0.60637 0.39914 0.9026 0.0
O52 O 0.57844 0.3941 0.89591 0.0
C53 C 0.65313 0.39021 0.89458 0.0
O54 O 0.64529 0.37686 0.90281 0.0
C55 C 0.59948 0.42032 0.85194 0.0
Zn56 Zn 0.13208 0.91209 0.63558 0.0
Zn57 Zn 0.12798 0.87586 0.63578 0.0
O58 O 0.1534 0.87942 0.64447 0.0
O59 O 0.1574 0.90857 0.64555 0.0
O60 O 0.12658 0.84907 0.63493 0.0
O61 O 0.1086 0.91312 0.64989 0.0
O62 O 0.10683 0.88365 0.65117 0.0
C63 C 0.16347 0.89272 0.64729 0.0
C64 C 0.12623 0.89695 0.60052 0.0
O65 O 0.12479 0.88253 0.60952 0.0
O66 O 0.12981 0.91159 0.60834 0.0
C67 C 0.13863 0.84111 0.626 0.0
O68 O 0.1508 0.85073 0.61801 0.0
C69 C 0.10043 0.8991 0.65474 0.0
Zn70 Zn 0.59199 0.62009 0.13588 0.0
Zn71 Zn 0.62687 0.61335 0.12959 0.0
O72 O 0.62626 0.63977 0.1369 0.0
O73 O 0.59839 0.64614 0.14261 0.0
O74 O 0.65281 0.60892 0.12615 0.0
O75 O 0.59163 0.59823 0.15292 0.0
O76 O 0.61973 0.59341 0.14686 0.0
C77 C 0.61434 0.65115 0.14115 0.0
C78 C 0.60073 0.61117 0.09875 0.0
O79 O 0.61642 0.6099 0.10483 0.0
O80 O 0.58802 0.61522 0.10915 0.0
C81 C 0.66129 0.6183 0.11487 0.0
O82 O 0.65271 0.63041 0.10534 0.0
C83 C 0.60553 0.5887 0.15466 0.0
Zn84 Zn 0.87133 0.09229 0.63682 0.0
Zn85 Zn 0.87398 0.12848 0.63295 0.0
O86 O 0.84901 0.12526 0.64284 0.0
O87 O 0.84561 0.09616 0.64582 0.0
O88 O 0.87462 0.15512 0.62992 0.0
O89 O 0.89426 0.0934 0.65212 0.0
O90 O 0.89595 0.12254 0.64784 0.0
C91 C 0.83925 0.11197 0.64664 0.0
C92 C 0.87622 0.10406 0.60009 0.0
O93 O 0.87628 0.11945 0.60748 0.0
O94 O 0.87441 0.09005 0.60956 0.0
C95 C 0.86353 0.16197 0.61903 0.0
O96 O 0.85283 0.15133 0.6102 0.0
C97 C 0.90254 0.10804 0.65409 0.0
Zn98 Zn 0.40966 0.38257 0.13543 0.0
Zn99 Zn 0.37479 0.38933 0.12902 0.0
O100 O 0.3752 0.3629 0.13627 0.0
O101 O 0.40305 0.35658 0.14217 0.0
O102 O 0.34893 0.39416 0.12552 0.0
O103 O 0.41007 0.40442 0.15245 0.0
O104 O 0.38195 0.40912 0.14644 0.0
C105 C 0.38713 0.35155 0.14061 0.0
C106 C 0.4011 0.39142 0.09827 0.0
O107 O 0.38539 0.39275 0.1043 0.0
O108 O 0.41376 0.38736 0.10873 0.0
C109 C 0.34038 0.3859 0.11345 0.0
O110 O 0.34878 0.37439 0.10307 0.0
C111 C 0.39613 0.41385 0.15426 0.0
Zn112 Zn 0.33371 0.13303 0.11653 0.0
Zn113 Zn 0.3691 0.1298 0.11124 0.0
O114 O 0.35862 0.10905 0.09683 0.0
O115 O 0.32978 0.11129 0.09999 0.0
O116 O 0.39509 0.12734 0.1067 0.0
O117 O 0.33537 0.15956 0.10873 0.0
O118 O 0.36405 0.15605 0.10511 0.0
C119 C 0.3432 0.10302 0.0938 0.0
C120 C 0.35427 0.1256 0.14883 0.0
O121 O 0.3673 0.12602 0.13806 0.0
O122 O 0.33862 0.12785 0.14305 0.0
C123 C 0.40298 0.11256 0.1099 0.0
O124 O 0.39379 0.09889 0.11583 0.0
C125 C 0.35041 0.16618 0.10524 0.0
Zn126 Zn 0.38076 0.87098 0.5972 0.0
Zn127 Zn 0.38521 0.8775 0.63271 0.0
O128 O 0.35988 0.86823 0.63088 0.0
O129 O 0.35518 0.86274 0.60233 0.0
O130 O 0.38706 0.88134 0.65919 0.0
O131 O 0.40342 0.85511 0.59817 0.0
O132 O 0.40665 0.86163 0.62675 0.0
C133 C 0.3495 0.86349 0.61834 0.0
C134 C 0.38678 0.90851 0.60629 0.0
O135 O 0.38757 0.90243 0.62223 0.0
O136 O 0.38408 0.89797 0.59321 0.0
C137 C 0.37617 0.89219 0.66647 0.0
O138 O 0.36492 0.90106 0.65627 0.0
C139 C 0.4124 0.85407 0.61255 0.0
Zn140 Zn 0.66814 0.86992 0.11692 0.0
Zn141 Zn 0.63284 0.87336 0.1117 0.0
O142 O 0.64345 0.89422 0.09741 0.0
O143 O 0.67228 0.89141 0.10016 0.0
O144 O 0.60685 0.87529 0.10686 0.0
O145 O 0.66669 0.84333 0.1094 0.0
O146 O 0.63804 0.84704 0.10581 0.0
C147 C 0.65894 0.89999 0.09421 0.0
C148 C 0.64751 0.87757 0.14924 0.0
O149 O 0.63444 0.87719 0.13851 0.0
O150 O 0.66314 0.87528 0.14341 0.0
C151 C 0.59859 0.8902 0.1062 0.0
O152 O 0.60734 0.90518 0.10846 0.0
C153 C 0.65161 0.83679 0.106 0.0
Zn154 Zn 0.62196 0.13157 0.59668 0.0
Zn155 Zn 0.61734 0.12439 0.63203 0.0
O156 O 0.64268 0.13376 0.63054 0.0
O157 O 0.64746 0.1399 0.60213 0.0
O158 O 0.61519 0.12017 0.65843 0.0
O159 O 0.59919 0.14726 0.59773 0.0
O160 O 0.59592 0.14035 0.62621 0.0
C161 C 0.65308 0.13884 0.61815 0.0
C162 C 0.61601 0.09385 0.60503 0.0
O163 O 0.61508 0.09962 0.62108 0.0
O164 O 0.61881 0.10465 0.59219 0.0
C165 C 0.62621 0.1096 0.66592 0.0
O166 O 0.63794 0.10112 0.65595 0.0
C167 C 0.59018 0.14809 0.61211 0.0
Zn168 Zn 0.33993 0.8617 0.88948 0.0
Zn169 Zn 0.37551 0.8663 0.89125 0.0
O170 O 0.36565 0.88543 0.90835 0.0
O171 O 0.33677 0.88244 0.90754 0.0
O172 O 0.40181 0.86894 0.89317 0.0
O173 O 0.34353 0.8349 0.89561 0.0
O174 O 0.3722 0.83942 0.89567 0.0
C175 C 0.35029 0.89078 0.91305 0.0
C176 C 0.3565 0.87308 0.85601 0.0
O177 O 0.37057 0.87281 0.86537 0.0
O178 O 0.34183 0.86878 0.863 0.0
C179 C 0.40924 0.88408 0.89488 0.0
O180 O 0.39945 0.89872 0.89572 0.0
C181 C 0.35919 0.82873 0.89672 0.0
Zn182 Zn 0.62782 0.83104 0.37006 0.0
Zn183 Zn 0.6242 0.86679 0.37605 0.0
O184 O 0.60238 0.85607 0.38813 0.0
O185 O 0.60495 0.82687 0.38463 0.0
O186 O 0.62135 0.89311 0.38058 0.0
O187 O 0.65336 0.83288 0.37994 0.0
O188 O 0.64939 0.86176 0.38472 0.0
C189 C 0.59619 0.84037 0.39025 0.0
C190 C 0.62372 0.85246 0.33776 0.0
O191 O 0.62333 0.86534 0.34895 0.0
O192 O 0.62506 0.83637 0.34324 0.0
C193 C 0.60971 0.90202 0.372 0.0
O194 O 0.59926 0.8936 0.36077 0.0
C195 C 0.65948 0.84798 0.3847 0.0
Zn196 Zn 0.66674 0.13847 0.88856 0.0
Zn197 Zn 0.63123 0.13392 0.89178 0.0
O198 O 0.64166 0.11417 0.90769 0.0
O199 O 0.67051 0.11706 0.90579 0.0
O200 O 0.60515 0.13065 0.89488 0.0
O201 O 0.6632 0.16508 0.8957 0.0
O202 O 0.63454 0.16061 0.89713 0.0
C203 C 0.65716 0.10862 0.9116 0.0
C204 C 0.64881 0.12855 0.85544 0.0
O205 O 0.63518 0.12863 0.86544 0.0
O206 O 0.66384 0.13238 0.86191 0.0
C207 C 0.59756 0.11731 0.8877 0.0
O208 O 0.60704 0.10567 0.87849 0.0
C209 C 0.64762 0.17123 0.89782 0.0
Zn210 Zn 0.37528 0.1699 0.36966 0.0
Zn211 Zn 0.37839 0.13423 0.37569 0.0
O212 O 0.40034 0.14462 0.38789 0.0
O213 O 0.39814 0.17384 0.38433 0.0
O214 O 0.38037 0.10797 0.38067 0.0
O215 O 0.34964 0.16882 0.37939 0.0
O216 O 0.3532 0.13988 0.38396 0.0
C217 C 0.40672 0.16025 0.39001 0.0
C218 C 0.37951 0.14813 0.33744 0.0
O219 O 0.37977 0.13523 0.34861 0.0
O220 O 0.37814 0.16421 0.34293 0.0
C221 C 0.39391 0.09898 0.3759 0.0
O222 O 0.40712 0.10726 0.36809 0.0
C223 C 0.34329 0.15378 0.38401 0.0
Zn224 Zn 0.08154 0.37707 0.11553 0.0
Zn225 Zn 0.11649 0.38369 0.10956 0.0
O226 O 0.11573 0.37675 0.13601 0.0
O227 O 0.08791 0.37063 0.14175 0.0
O228 O 0.14238 0.38715 0.10533 0.0
O229 O 0.0819 0.3597 0.09387 0.0
O230 O 0.11004 0.36581 0.09004 0.0
C231 C 0.10374 0.37236 0.14712 0.0
C232 C 0.08974 0.41418 0.10627 0.0
O233 O 0.10555 0.40823 0.10536 0.0
O234 O 0.07718 0.40373 0.11031 0.0
C235 C 0.15131 0.39779 0.115 0.0
O236 O 0.14327 0.40704 0.12766 0.0
C237 C 0.09612 0.35778 0.08499 0.0
Zn238 Zn 0.09651 0.64038 0.88806 0.0
Zn239 Zn 0.13029 0.62962 0.89496 0.0
O240 O 0.13106 0.63685 0.86852 0.0
O241 O 0.10414 0.6461 0.862 0.0
O242 O 0.15551 0.62304 0.89983 0.0
O243 O 0.09794 0.65751 0.90991 0.0
O244 O 0.125 0.64771 0.91478 0.0
C245 C 0.11988 0.64259 0.85708 0.0
C246 C 0.10072 0.60244 0.89718 0.0
O247 O 0.11698 0.60648 0.8985 0.0
O248 O 0.08935 0.61435 0.89296 0.0
C249 C 0.16309 0.61047 0.89118 0.0
O250 O 0.15402 0.60142 0.87922 0.0
C251 C 0.11184 0.65737 0.91947 0.0
Zn252 Zn 0.84767 0.60869 0.36959 0.0
Zn253 Zn 0.88327 0.60495 0.37303 0.0
O254 O 0.8732 0.58978 0.39344 0.0
O255 O 0.84428 0.59134 0.39081 0.0
O256 O 0.90941 0.60129 0.37574 0.0
O257 O 0.85032 0.60165 0.34289 0.0
O258 O 0.87905 0.59892 0.34666 0.0
C259 C 0.85788 0.58576 0.39918 0.0
C260 C 0.86628 0.64174 0.37798 0.0
O261 O 0.87989 0.63162 0.3772 0.0
O262 O 0.85098 0.63527 0.37562 0.0
C263 C 0.91769 0.609 0.38836 0.0
O264 O 0.90889 0.61916 0.39974 0.0
C265 C 0.8656 0.59875 0.33639 0.0
Zn266 Zn 0.91001 0.36392 0.88288 0.0
Zn267 Zn 0.87535 0.37211 0.88861 0.0
O268 O 0.87531 0.3643 0.86239 0.0
O269 O 0.9032 0.35813 0.85651 0.0
O270 O 0.84976 0.37708 0.89337 0.0
O271 O 0.90929 0.34645 0.90444 0.0
O272 O 0.88171 0.35479 0.90892 0.0
C273 C 0.8873 0.35988 0.85121 0.0
C274 C 0.90292 0.40142 0.8913 0.0
O275 O 0.88692 0.3963 0.89139 0.0
O276 O 0.9154 0.39024 0.8886 0.0
C277 C 0.84159 0.38974 0.88541 0.0
O278 O 0.8502 0.39985 0.87396 0.0
C279 C 0.89531 0.3459 0.91386 0.0
Zn280 Zn 0.15673 0.39477 0.36697 0.0
Zn281 Zn 0.12117 0.39891 0.37013 0.0
O282 O 0.13118 0.41387 0.39073 0.0
O283 O 0.16011 0.41181 0.38843 0.0
O284 O 0.09504 0.40261 0.37249 0.0
O285 O 0.15451 0.4022 0.34036 0.0
O286 O 0.12576 0.40506 0.34387 0.0
C287 C 0.14651 0.41756 0.39668 0.0
C288 C 0.13758 0.3619 0.37493 0.0
O289 O 0.12411 0.37222 0.37425 0.0
O290 O 0.15297 0.36818 0.37263 0.0
C291 C 0.08738 0.39919 0.38725 0.0
O292 O 0.0969 0.39362 0.40096 0.0
C293 C 0.13931 0.40526 0.33373 0.0
Zn294 Zn 0.92146 0.62697 0.11775 0.0
Zn295 Zn 0.88588 0.62388 0.11263 0.0
O296 O 0.88785 0.63057 0.13908 0.0
O297 O 0.91628 0.63392 0.14411 0.0
O298 O 0.8597 0.62238 0.10904 0.0
O299 O 0.92214 0.64416 0.09597 0.0
O300 O 0.89341 0.64108 0.09285 0.0
C301 C 0.90048 0.63365 0.1499 0.0
C302 C 0.90967 0.59093 0.10891 0.0
O303 O 0.89452 0.59848 0.10828 0.0
O304 O 0.9233 0.60002 0.11263 0.0
C305 C 0.85072 0.6112 0.11804 0.0
O306 O 0.85887 0.60059 0.12952 0.0
C307 C 0.90798 0.64755 0.08741 0.0
Zn308 Zn 0.82721 0.38688 0.63325 0.0
Zn309 Zn 0.86248 0.38827 0.62756 0.0
O310 O 0.852 0.40409 0.60768 0.0
O311 O 0.82325 0.40417 0.61198 0.0
O312 O 0.88858 0.39102 0.62402 0.0
O313 O 0.83102 0.39383 0.65976 0.0
O314 O 0.85959 0.39357 0.65442 0.0
C315 C 0.83653 0.40884 0.60272 0.0
C316 C 0.84395 0.35279 0.62302 0.0
O317 O 0.85799 0.36205 0.62246 0.0
O318 O 0.8293 0.36012 0.62724 0.0
C319 C 0.89927 0.37945 0.63044 0.0
O320 O 0.89298 0.36561 0.63923 0.0
C321 C 0.84679 0.39496 0.66546 0.0
Zn322 Zn 0.17485 0.61657 0.6379 0.0
Zn323 Zn 0.13943 0.61294 0.63395 0.0
O324 O 0.15008 0.59813 0.61333 0.0
O325 O 0.17894 0.59969 0.6164 0.0
O326 O 0.11336 0.60872 0.63144 0.0
O327 O 0.17254 0.60923 0.66449 0.0
O328 O 0.14384 0.60724 0.66048 0.0
C329 C 0.16557 0.59431 0.60769 0.0
C330 C 0.15562 0.6497 0.6294 0.0
O331 O 0.14214 0.63962 0.6297 0.0
O332 O 0.17094 0.64319 0.63224 0.0
C333 C 0.1041 0.61717 0.61993 0.0
O334 O 0.11179 0.62876 0.60924 0.0
C335 C 0.15719 0.60677 0.67089 0.0
Zn336 Zn 0.88122 0.90344 0.63506 0.0
Zn337 Zn 0.88503 0.86757 0.62911 0.0
O338 O 0.90688 0.87433 0.64368 0.0
O339 O 0.90333 0.9026 0.65154 0.0
O340 O 0.88789 0.841 0.62564 0.0
O341 O 0.85543 0.8986 0.64288 0.0
O342 O 0.85978 0.86964 0.63896 0.0
C343 C 0.91257 0.88828 0.65159 0.0
C344 C 0.88726 0.89341 0.59768 0.0
O345 O 0.88691 0.8776 0.60408 0.0
O346 O 0.88557 0.90689 0.60798 0.0
C347 C 0.88062 0.83334 0.61235 0.0
O348 O 0.87138 0.84304 0.60092 0.0
C349 C 0.84955 0.88268 0.64305 0.0
Zn350 Zn 0.58339 0.37083 0.13149 0.0
Zn351 Zn 0.61813 0.37639 0.12331 0.0
O352 O 0.61265 0.39555 0.14206 0.0
O353 O 0.58475 0.39196 0.14944 0.0
O354 O 0.64398 0.38001 0.11881 0.0
O355 O 0.58968 0.34424 0.13671 0.0
O356 O 0.61728 0.34972 0.12944 0.0
C357 C 0.59908 0.4006 0.15088 0.0
C358 C 0.59008 0.38168 0.09448 0.0
O359 O 0.60615 0.38182 0.09958 0.0
O360 O 0.57792 0.3774 0.10538 0.0
C361 C 0.65027 0.39148 0.10798 0.0
O362 O 0.63945 0.40176 0.09867 0.0
C363 C 0.60539 0.33867 0.13407 0.0
Zn364 Zn 0.12148 0.09883 0.6344 0.0
Zn365 Zn 0.11715 0.13518 0.63056 0.0
O366 O 0.09565 0.1281 0.64576 0.0
O367 O 0.09919 0.09912 0.65044 0.0
O368 O 0.11484 0.16208 0.62795 0.0
O369 O 0.14714 0.10366 0.64259 0.0
O370 O 0.14248 0.13272 0.6401 0.0
C371 C 0.09008 0.11341 0.65236 0.0
C372 C 0.11548 0.11013 0.59785 0.0
O373 O 0.11538 0.12556 0.60515 0.0
O374 O 0.11746 0.09614 0.60737 0.0
C375 C 0.11072 0.16986 0.61332 0.0
O376 O 0.10667 0.16019 0.59921 0.0
C377 C 0.15286 0.11961 0.64349 0.0
Zn378 Zn 0.41637 0.63167 0.13105 0.0
Zn379 Zn 0.38159 0.62628 0.12278 0.0
O380 O 0.38668 0.60695 0.14145 0.0
O381 O 0.4146 0.61044 0.14886 0.0
O382 O 0.356 0.62273 0.11707 0.0
O383 O 0.40994 0.65821 0.13638 0.0
O384 O 0.38225 0.65281 0.12936 0.0
C385 C 0.40024 0.60183 0.15026 0.0
C386 C 0.40993 0.62127 0.09403 0.0
O387 O 0.3939 0.62115 0.09921 0.0
O388 O 0.42216 0.62534 0.10492 0.0
C389 C 0.3503 0.60834 0.11009 0.0
O390 O 0.36149 0.59521 0.10654 0.0
C391 C 0.3942 0.6638 0.13398 0.0
Zn392 Zn 0.87538 0.13383 0.33849 0.0
Zn393 Zn 0.879 0.12504 0.37334 0.0
O394 O 0.85377 0.11722 0.36728 0.0
O395 O 0.84995 0.12395 0.33884 0.0
O396 O 0.8815 0.1171 0.39886 0.0
O397 O 0.89827 0.1198 0.33249 0.0
O398 O 0.90122 0.11446 0.36133 0.0
C399 C 0.84375 0.11822 0.35358 0.0
C400 C 0.87916 0.16424 0.36297 0.0
O401 O 0.87977 0.15214 0.37499 0.0
O402 O 0.87783 0.15997 0.34653 0.0
C403 C 0.87009 0.1226 0.41014 0.0
O404 O 0.85724 0.13326 0.40465 0.0
C405 C 0.90733 0.1135 0.34542 0.0
Zn406 Zn 0.40962 0.36094 0.87313 0.0
Zn407 Zn 0.37463 0.36754 0.8785 0.0
O408 O 0.38178 0.38676 0.8603 0.0
O409 O 0.41005 0.3819 0.85514 0.0
O410 O 0.34857 0.37176 0.88156 0.0
O411 O 0.40381 0.33461 0.86729 0.0
O412 O 0.37579 0.34069 0.87251 0.0
C413 C 0.39615 0.39125 0.85266 0.0
C414 C 0.40041 0.37224 0.9094 0.0
O415 O 0.38478 0.37286 0.90308 0.0
O416 O 0.41327 0.36744 0.89952 0.0
C417 C 0.34231 0.38608 0.88843 0.0
O418 O 0.35319 0.3987 0.89365 0.0
C419 C 0.38795 0.32937 0.86877 0.0
Zn420 Zn 0.12811 0.86712 0.33739 0.0
Zn421 Zn 0.12401 0.8739 0.37286 0.0
O422 O 0.14914 0.88249 0.36725 0.0
O423 O 0.15319 0.87773 0.33844 0.0
O424 O 0.12129 0.87958 0.39902 0.0
O425 O 0.10477 0.88094 0.3325 0.0
O426 O 0.10184 0.88525 0.36153 0.0
C427 C 0.15921 0.88263 0.35355 0.0
C428 C 0.12466 0.83532 0.35997 0.0
O429 O 0.12327 0.84679 0.37255 0.0
O430 O 0.12662 0.84047 0.34386 0.0
C431 C 0.13425 0.8768 0.40954 0.0
O432 O 0.14917 0.87039 0.40301 0.0
C433 C 0.09573 0.88676 0.34567 0.0
Zn434 Zn 0.59555 0.63813 0.87324 0.0
Zn435 Zn 0.63021 0.63063 0.87931 0.0
O436 O 0.62261 0.61146 0.86121 0.0
O437 O 0.59474 0.61738 0.85504 0.0
O438 O 0.65612 0.62539 0.88246 0.0
O439 O 0.60208 0.66429 0.86764 0.0
O440 O 0.6299 0.65755 0.87326 0.0
C441 C 0.60835 0.60748 0.85309 0.0
C442 C 0.60382 0.62678 0.90977 0.0
O443 O 0.61958 0.62588 0.90379 0.0
O444 O 0.59125 0.63167 0.89955 0.0
C445 C 0.66184 0.6121 0.89152 0.0
O446 O 0.65049 0.60131 0.89926 0.0
C447 C 0.61804 0.66916 0.86938 0.0
Zn448 Zn 0.67029 0.8895 0.88959 0.0
Zn449 Zn 0.6346 0.89331 0.89154 0.0
O450 O 0.63921 0.86696 0.89803 0.0
O451 O 0.66804 0.86305 0.89742 0.0
O452 O 0.60824 0.89557 0.89383 0.0
O453 O 0.67279 0.91136 0.90635 0.0
O454 O 0.64381 0.91399 0.90696 0.0
C455 C 0.65266 0.85664 0.89938 0.0
C456 C 0.65278 0.89756 0.85552 0.0
O457 O 0.63882 0.8976 0.86506 0.0
O458 O 0.66774 0.89454 0.8627 0.0
C459 C 0.59865 0.88366 0.88662 0.0
O460 O 0.60628 0.87035 0.87791 0.0
C461 C 0.65899 0.91983 0.91132 0.0
Zn462 Zn 0.62662 0.16622 0.36796 0.0
Zn463 Zn 0.62174 0.1304 0.37232 0.0
O464 O 0.64741 0.13394 0.38013 0.0
O465 O 0.65199 0.16295 0.37798 0.0
O466 O 0.61844 0.104 0.37575 0.0
O467 O 0.60363 0.17054 0.38257 0.0
O468 O 0.60075 0.14139 0.38586 0.0
C469 C 0.65781 0.14724 0.38126 0.0
C470 C 0.62099 0.14656 0.33479 0.0
O471 O 0.61939 0.13335 0.34544 0.0
O472 O 0.62415 0.16211 0.3409 0.0
C473 C 0.62634 0.09328 0.36512 0.0
O474 O 0.63656 0.09983 0.35249 0.0
C475 C 0.59485 0.15727 0.3883 0.0
Zn476 Zn 0.33659 0.10874 0.888 0.0
Zn477 Zn 0.37224 0.10528 0.89214 0.0
O478 O 0.3671 0.13172 0.8976 0.0
O479 O 0.33826 0.13521 0.89594 0.0
O480 O 0.39856 0.10383 0.89526 0.0
O481 O 0.33394 0.08679 0.90471 0.0
O482 O 0.36283 0.08506 0.90792 0.0
C483 C 0.35348 0.14186 0.89834 0.0
C484 C 0.35583 0.10028 0.85519 0.0
O485 O 0.36906 0.09995 0.86571 0.0
O486 O 0.34051 0.1039 0.8612 0.0
C487 C 0.40797 0.11195 0.88377 0.0
O488 O 0.40012 0.1208 0.8707 0.0
C489 C 0.34749 0.0789 0.91112 0.0
Zn490 Zn 0.37652 0.83543 0.36729 0.0
Zn491 Zn 0.38131 0.87095 0.37296 0.0
O492 O 0.35566 0.86711 0.38078 0.0
O493 O 0.35112 0.83823 0.37728 0.0
O494 O 0.3849 0.89709 0.37753 0.0
O495 O 0.39936 0.83028 0.38181 0.0
O496 O 0.40234 0.85931 0.3859 0.0
C497 C 0.34527 0.85376 0.38126 0.0
C498 C 0.38203 0.85649 0.33486 0.0
O499 O 0.38343 0.86937 0.34595 0.0
O500 O 0.37915 0.84069 0.34045 0.0
C501 C 0.37422 0.90828 0.37047 0.0
O502 O 0.36102 0.90231 0.36075 0.0
C503 C 0.40819 0.84335 0.38791 0.0
Zn504 Zn 0.66344 0.12067 0.11311 0.0
Zn505 Zn 0.62823 0.11508 0.11011 0.0
O506 O 0.63125 0.14131 0.10256 0.0
O507 O 0.65981 0.1464 0.10363 0.0
O508 O 0.60224 0.11124 0.10697 0.0
O509 O 0.66804 0.09805 0.09779 0.0
O510 O 0.63932 0.09405 0.09631 0.0
C511 C 0.64414 0.15209 0.10109 0.0
C512 C 0.64504 0.11451 0.147 0.0
O513 O 0.63158 0.11283 0.13692 0.0
O514 O 0.66009 0.11769 0.14023 0.0
C515 C 0.59155 0.12136 0.11549 0.0
O516 O 0.59789 0.13401 0.12589 0.0
C517 C 0.65499 0.0887 0.0928 0.0
Zn518 Zn 0.371 0.13659 0.5965 0.0
Zn519 Zn 0.37454 0.13046 0.63212 0.0
O520 O 0.3964 0.14551 0.62652 0.0
O521 O 0.39371 0.15188 0.59783 0.0
O522 O 0.37548 0.1268 0.65867 0.0
O523 O 0.34533 0.14547 0.60075 0.0
O524 O 0.34934 0.14041 0.6295 0.0
C525 C 0.4025 0.15272 0.61233 0.0
C526 C 0.37685 0.0991 0.60612 0.0
O527 O 0.37705 0.10533 0.62202 0.0
O528 O 0.37453 0.10954 0.59286 0.0
C529 C 0.38641 0.11666 0.66682 0.0
O530 O 0.39872 0.10813 0.65764 0.0
C531 C 0.33928 0.14519 0.61664 0.0
Zn532 Zn 0.33815 0.88253 0.11402 0.0
Zn533 Zn 0.3735 0.88717 0.1099 0.0
O534 O 0.36956 0.86102 0.10264 0.0
O535 O 0.34093 0.85663 0.10468 0.0
O536 O 0.39946 0.89056 0.10584 0.0
O537 O 0.33363 0.90511 0.09863 0.0
O538 O 0.36241 0.90814 0.09606 0.0
C539 C 0.35638 0.85055 0.10165 0.0
C540 C 0.35776 0.88862 0.14726 0.0
O541 O 0.37099 0.88981 0.1368 0.0
O542 O 0.34245 0.88575 0.14095 0.0
C543 C 0.41039 0.87862 0.11108 0.0
O544 O 0.40443 0.86415 0.11905 0.0
C545 C 0.3468 0.91392 0.09298 0.0
Zn546 Zn 0.63115 0.86614 0.59638 0.0
Zn547 Zn 0.62702 0.87327 0.63188 0.0
O548 O 0.60562 0.85746 0.62656 0.0
O549 O 0.60857 0.85069 0.59798 0.0
O550 O 0.62519 0.87836 0.6582 0.0
O551 O 0.65677 0.8577 0.60159 0.0
O552 O 0.65241 0.86355 0.63015 0.0
C553 C 0.59975 0.84989 0.61247 0.0
C554 C 0.62469 0.90372 0.60453 0.0
O555 O 0.62421 0.89787 0.62056 0.0
O556 O 0.62748 0.89299 0.59159 0.0
C557 C 0.6352 0.89035 0.66465 0.0
O558 O 0.64575 0.89912 0.6538 0.0
C559 C 0.66264 0.8585 0.61753 0.0
Zn560 Zn 0.91669 0.62593 0.86879 0.0
Zn561 Zn 0.883 0.61749 0.87784 0.0
O562 O 0.88896 0.63728 0.89569 0.0
O563 O 0.91691 0.64329 0.89041 0.0
O564 O 0.85715 0.61335 0.88204 0.0
O565 O 0.90903 0.63259 0.84304 0.0
O566 O 0.88328 0.6215 0.85067 0.0
C567 C 0.90306 0.64553 0.89982 0.0
C568 C 0.91121 0.5891 0.88153 0.0
O569 O 0.89548 0.59443 0.88465 0.0
O570 O 0.92229 0.59932 0.87396 0.0
C571 C 0.85038 0.60333 0.89396 0.0
O572 O 0.86074 0.59453 0.90512 0.0
C573 C 0.89365 0.62752 0.83869 0.0
Zn574 Zn 0.90462 0.36389 0.13318 0.0
Zn575 Zn 0.86998 0.37121 0.12669 0.0
O576 O 0.87669 0.35358 0.10673 0.0
O577 O 0.9045 0.34635 0.1117 0.0
O578 O 0.84417 0.37564 0.12238 0.0
O579 O 0.89816 0.35794 0.15945 0.0
O580 O 0.87037 0.36429 0.15331 0.0
C581 C 0.89069 0.34518 0.10208 0.0
C582 C 0.89694 0.40097 0.12321 0.0
O583 O 0.88109 0.39543 0.12253 0.0
O584 O 0.90943 0.39028 0.1274 0.0
C585 C 0.8384 0.38445 0.10897 0.0
O586 O 0.84966 0.39092 0.09726 0.0
C587 C 0.88226 0.35991 0.16463 0.0
Zn588 Zn 0.15877 0.39244 0.61501 0.0
Zn589 Zn 0.12298 0.39707 0.61285 0.0
O590 O 0.12871 0.40413 0.63862 0.0
O591 O 0.15742 0.4004 0.64154 0.0
O592 O 0.09661 0.40013 0.61183 0.0
O593 O 0.16111 0.40919 0.59316 0.0
O594 O 0.13214 0.41171 0.59159 0.0
C595 C 0.14248 0.40417 0.64842 0.0
C596 C 0.13921 0.35973 0.6084 0.0
O597 O 0.12595 0.3703 0.6093 0.0
O598 O 0.15477 0.36575 0.60998 0.0
C599 C 0.08773 0.39306 0.62442 0.0
O600 O 0.09614 0.38449 0.63731 0.0
C601 C 0.14738 0.41509 0.58522 0.0
Zn602 Zn 0.09978 0.63745 0.13768 0.0
Zn603 Zn 0.13342 0.62669 0.1302 0.0
O604 O 0.12842 0.64569 0.11104 0.0
O605 O 0.10144 0.65542 0.11664 0.0
O606 O 0.15853 0.61949 0.1253 0.0
O607 O 0.10742 0.64207 0.16389 0.0
O608 O 0.13429 0.633 0.15692 0.0
C609 C 0.11522 0.65559 0.1069 0.0
C610 C 0.10331 0.60018 0.12632 0.0
O611 O 0.11965 0.60403 0.12541 0.0
O612 O 0.09209 0.61195 0.13127 0.0
C613 C 0.16375 0.61402 0.11003 0.0
O614 O 0.15233 0.61292 0.09679 0.0
C615 C 0.12318 0.63842 0.1686 0.0
Zn616 Zn 0.84343 0.61068 0.61582 0.0
Zn617 Zn 0.8789 0.60503 0.61531 0.0
O618 O 0.87239 0.59896 0.64133 0.0
O619 O 0.84376 0.60441 0.64265 0.0
O620 O 0.90521 0.60117 0.61496 0.0
O621 O 0.84104 0.59304 0.5948 0.0
O622 O 0.86999 0.58994 0.59417 0.0
C623 C 0.85815 0.60016 0.65039 0.0
C624 C 0.86359 0.64261 0.60855 0.0
O625 O 0.87663 0.63186 0.61051 0.0
O626 O 0.8479 0.63688 0.60973 0.0
C627 C 0.91451 0.61176 0.62433 0.0
O628 O 0.90655 0.62423 0.63393 0.0
C629 C 0.85486 0.58665 0.58744 0.0
Zn630 Zn 0.08513 0.37894 0.86732 0.0
Zn631 Zn 0.12017 0.38482 0.87324 0.0
O632 O 0.11374 0.36648 0.8925 0.0
O633 O 0.0855 0.36098 0.88836 0.0
O634 O 0.14624 0.38811 0.87661 0.0
O635 O 0.09085 0.3731 0.8409 0.0
O636 O 0.1188 0.37861 0.84657 0.0
C637 C 0.09963 0.35862 0.89729 0.0
C638 C 0.09374 0.41541 0.87831 0.0
O639 O 0.10951 0.40928 0.87869 0.0
O640 O 0.08106 0.40533 0.87379 0.0
C641 C 0.15322 0.39246 0.89148 0.0
O642 O 0.14305 0.39511 0.90556 0.0
C643 C 0.10667 0.37467 0.83545 0.0
Zn644 Zn 0.17848 0.61662 0.38739 0.0
Zn645 Zn 0.14305 0.61204 0.39107 0.0
O646 O 0.14804 0.60575 0.36485 0.0
O647 O 0.1768 0.60765 0.36121 0.0
O648 O 0.11698 0.60784 0.39294 0.0
O649 O 0.18208 0.60101 0.41008 0.0
O650 O 0.15329 0.59758 0.41201 0.0
C651 C 0.16155 0.60491 0.35468 0.0
C652 C 0.15819 0.64948 0.39402 0.0
O653 O 0.14521 0.63879 0.39494 0.0
O654 O 0.17365 0.6435 0.39089 0.0
C655 C 0.10656 0.61837 0.38458 0.0
O656 O 0.11318 0.63158 0.3751 0.0
C657 C 0.16873 0.59485 0.41831 0.0
Zn658 Zn 0.82736 0.38298 0.38421 0.0
Zn659 Zn 0.86246 0.38848 0.38789 0.0
O660 O 0.8578 0.39425 0.36141 0.0
O661 O 0.82928 0.39037 0.35756 0.0
O662 O 0.8883 0.3934 0.39054 0.0
O663 O 0.82262 0.39984 0.40565 0.0
O664 O 0.85136 0.4028 0.40861 0.0
C665 C 0.8444 0.39384 0.35108 0.0
C666 C 0.84826 0.35084 0.39225 0.0
O667 O 0.86113 0.3617 0.39189 0.0
O668 O 0.83256 0.35651 0.38977 0.0
C669 C 0.89911 0.38538 0.38017 0.0
O670 O 0.89296 0.37434 0.36796 0.0
C671 C 0.83574 0.40592 0.41429 0.0
H672 H 0.10688 0.3432 0.37205 0.0
H673 H 0.10325 0.31074 0.37281 0.0
H674 H 0.15887 0.30393 0.38414 0.0
H675 H 0.16276 0.33646 0.38273 0.0
H676 H 0.14929 0.28305 0.35763 0.0
H677 H 0.10095 0.27494 0.41262 0.0
H678 H 0.09296 0.29034 0.39595 0.0
H679 H 0.1124 0.29573 0.40878 0.0
C680 C 0.11831 0.33482 0.37498 0.0
C681 C 0.13513 0.34239 0.37729 0.0
C682 C 0.11617 0.31625 0.37555 0.0
C683 C 0.13072 0.3049 0.37883 0.0
C684 C 0.14744 0.31245 0.38166 0.0
H685 H 0.12302 0.18903 0.39197 0.0
H686 H 0.12558 0.22131 0.39709 0.0
C687 C 0.14965 0.33103 0.38085 0.0
C688 C 0.12878 0.28516 0.37763 0.0
H689 H 0.10405 0.24997 0.39233 0.0
C690 C 0.13953 0.2758 0.36538 0.0
C691 C 0.11619 0.27565 0.38788 0.0
C692 C 0.10512 0.28467 0.40218 0.0
C693 C 0.13774 0.25729 0.36275 0.0
C694 C 0.12443 0.24798 0.37219 0.0
C695 C 0.11402 0.25721 0.38484 0.0
C696 C 0.12136 0.2286 0.36929 0.0
C697 C 0.15033 0.24789 0.35004 0.0
C698 C 0.11751 0.22206 0.35207 0.0
C699 C 0.11625 0.20362 0.34905 0.0
C700 C 0.11847 0.19142 0.36328 0.0
C701 C 0.12128 0.19808 0.38071 0.0
C702 C 0.12276 0.21652 0.38367 0.0
H703 H 0.16272 0.25559 0.34822 0.0
H704 H 0.15384 0.23423 0.35494 0.0
H705 H 0.14396 0.24661 0.33669 0.0
H706 H 0.11585 0.2312 0.34089 0.0
H707 H 0.11385 0.19892 0.33552 0.0
H708 H 0.33116 0.58483 0.8756 0.0
H709 H 0.29907 0.58181 0.8773 0.0
H710 H 0.29636 0.62601 0.91459 0.0
H711 H 0.32856 0.62908 0.91315 0.0
H712 H 0.27463 0.5954 0.92352 0.0
H713 H 0.26551 0.61893 0.85324 0.0
H714 H 0.28076 0.60051 0.85609 0.0
H715 H 0.28586 0.62207 0.86547 0.0
C716 C 0.32378 0.59386 0.88426 0.0
C717 C 0.33238 0.60733 0.89411 0.0
C718 C 0.30545 0.59213 0.88516 0.0
C719 C 0.2954 0.60387 0.89585 0.0
C720 C 0.30395 0.61689 0.90621 0.0
H721 H 0.18553 0.62737 0.91424 0.0
H722 H 0.21756 0.62373 0.91632 0.0
C723 C 0.32232 0.61863 0.90534 0.0
C724 C 0.2759 0.60299 0.89567 0.0
H725 H 0.24002 0.60938 0.86861 0.0
C726 C 0.26702 0.59843 0.91154 0.0
C727 C 0.2661 0.60692 0.87998 0.0
C728 C 0.27498 0.61253 0.86274 0.0
C729 C 0.24849 0.5976 0.9121 0.0
C730 C 0.23869 0.60176 0.89645 0.0
C731 C 0.2476 0.60611 0.88054 0.0
C732 C 0.21915 0.60263 0.8964 0.0
C733 C 0.23958 0.59215 0.92935 0.0
C734 C 0.20944 0.59208 0.88438 0.0
C735 C 0.19111 0.59422 0.88304 0.0
C736 C 0.18223 0.60707 0.89361 0.0
C737 C 0.19196 0.61733 0.90593 0.0
C738 C 0.21027 0.61517 0.90725 0.0
H739 H 0.24873 0.58444 0.9382 0.0
H740 H 0.2353 0.60439 0.93672 0.0
H741 H 0.22772 0.58389 0.92667 0.0
H742 H 0.21611 0.58242 0.8758 0.0
H743 H 0.184 0.58612 0.87342 0.0
H744 H 0.88977 0.80418 0.33913 0.0
H745 H 0.88766 0.772 0.34498 0.0
H746 H 0.87679 0.7828 0.40081 0.0
H747 H 0.87942 0.81502 0.3952 0.0
H748 H 0.89847 0.75388 0.39674 0.0
H749 H 0.84043 0.74799 0.35187 0.0
H750 H 0.85933 0.7569 0.34051 0.0
H751 H 0.84924 0.76939 0.35856 0.0
C752 C 0.8871 0.79971 0.35269 0.0
C753 C 0.88456 0.81214 0.36667 0.0
C754 C 0.88578 0.78133 0.35599 0.0
C755 C 0.88157 0.77507 0.37322 0.0
C756 C 0.87989 0.78738 0.38737 0.0
H757 H 0.84069 0.66679 0.3857 0.0
H758 H 0.84419 0.69935 0.38757 0.0
C759 C 0.88142 0.80578 0.38414 0.0
C760 C 0.87839 0.75574 0.3763 0.0
H761 H 0.85389 0.72055 0.3614 0.0
C762 C 0.88864 0.74659 0.38913 0.0
C763 C 0.86523 0.74637 0.3667 0.0
C764 C 0.8528 0.7557 0.35378 0.0
C765 C 0.88652 0.72813 0.39213 0.0
C766 C 0.87415 0.71854 0.38167 0.0
C767 C 0.8635 0.72785 0.3693 0.0
C768 C 0.87243 0.69877 0.3827 0.0
C769 C 0.89745 0.71916 0.40657 0.0
C770 C 0.88715 0.68763 0.37952 0.0
C771 C 0.88523 0.66904 0.37867 0.0
C772 C 0.86846 0.66125 0.38061 0.0
C773 C 0.85377 0.6724 0.3841 0.0
C774 C 0.85575 0.69099 0.38518 0.0
H775 H 0.90133 0.7289 0.41713 0.0
H776 H 0.89018 0.70798 0.41299 0.0
H777 H 0.90977 0.71367 0.40052 0.0
H778 H 0.90005 0.69332 0.37704 0.0
H779 H 0.8968 0.66084 0.37583 0.0
H780 H 0.81974 0.41475 0.86987 0.0
H781 H 0.78773 0.41801 0.87382 0.0
H782 H 0.78815 0.37394 0.91137 0.0
H783 H 0.82009 0.37072 0.90773 0.0
H784 H 0.76324 0.39166 0.86609 0.0
H785 H 0.75856 0.4118 0.93761 0.0
H786 H 0.7789 0.41307 0.92498 0.0
H787 H 0.77171 0.39195 0.93399 0.0
C788 C 0.81305 0.4059 0.87914 0.0
C789 C 0.82245 0.39247 0.88847 0.0
C790 C 0.79479 0.40779 0.88138 0.0
C791 C 0.78565 0.39639 0.89308 0.0
C792 C 0.79502 0.38314 0.90259 0.0
H793 H 0.67688 0.36963 0.91341 0.0
H794 H 0.70914 0.37242 0.91367 0.0
C795 C 0.81326 0.38124 0.90037 0.0
C796 C 0.76615 0.39735 0.89427 0.0
H797 H 0.73178 0.40222 0.92365 0.0
C798 C 0.75635 0.39418 0.87863 0.0
C799 C 0.75725 0.40052 0.91068 0.0
C800 C 0.76713 0.40469 0.92775 0.0
C801 C 0.73784 0.39362 0.87902 0.0
C802 C 0.72894 0.39659 0.89547 0.0
C803 C 0.7387 0.39994 0.91109 0.0
C804 C 0.70946 0.39593 0.89663 0.0
C805 C 0.72796 0.38932 0.86196 0.0
C806 C 0.69905 0.40854 0.88738 0.0
C807 C 0.68069 0.40697 0.88716 0.0
C808 C 0.67241 0.39279 0.89628 0.0
C809 C 0.68286 0.38064 0.9062 0.0
C810 C 0.70126 0.38222 0.90638 0.0
H811 H 0.73683 0.38353 0.85152 0.0
H812 H 0.71714 0.3797 0.86463 0.0
H813 H 0.72196 0.40183 0.85651 0.0
H814 H 0.70518 0.41937 0.88001 0.0
H815 H 0.67302 0.41665 0.87952 0.0
H816 H 0.12457 0.66866 0.62758 0.0
H817 H 0.1208 0.70121 0.625 0.0
H818 H 0.17734 0.70745 0.62216 0.0
H819 H 0.18137 0.6749 0.62489 0.0
H820 H 0.14271 0.72715 0.65175 0.0
H821 H 0.14993 0.73658 0.57789 0.0
H822 H 0.1411 0.71618 0.58735 0.0
H823 H 0.16423 0.72078 0.58931 0.0
C824 C 0.13622 0.67691 0.62624 0.0
C825 C 0.15329 0.66921 0.62652 0.0
C826 C 0.13401 0.69547 0.62477 0.0
C827 C 0.14879 0.70656 0.62334 0.0
C828 C 0.16581 0.69897 0.62316 0.0
H829 H 0.16547 0.82021 0.61294 0.0
H830 H 0.1672 0.78747 0.61231 0.0
C831 C 0.16806 0.68042 0.62476 0.0
C832 C 0.1465 0.7262 0.62316 0.0
H833 H 0.14665 0.76268 0.59556 0.0
C834 C 0.14347 0.73498 0.6395 0.0
C835 C 0.14768 0.73617 0.60713 0.0
C836 C 0.15086 0.72706 0.58934 0.0
C837 C 0.14186 0.75372 0.6403 0.0
C838 C 0.14285 0.76379 0.62422 0.0
C839 C 0.14581 0.75491 0.60784 0.0
C840 C 0.14139 0.7836 0.62419 0.0
C841 C 0.13969 0.76257 0.65841 0.0
C842 C 0.12617 0.79225 0.63081 0.0
C843 C 0.12521 0.81098 0.63136 0.0
C844 C 0.13935 0.82133 0.62503 0.0
C845 C 0.15436 0.81261 0.61794 0.0
C846 C 0.15537 0.79391 0.61754 0.0
H847 H 0.14397 0.75355 0.6695 0.0
H848 H 0.14741 0.77515 0.6592 0.0
H849 H 0.12553 0.76597 0.66055 0.0
H850 H 0.11506 0.78453 0.63559 0.0
H851 H 0.11339 0.81732 0.63672 0.0
H852 H 0.683 0.59539 0.13345 0.0
H853 H 0.71527 0.5935 0.13213 0.0
H854 H 0.71577 0.63458 0.09136 0.0
H855 H 0.6835 0.63676 0.09272 0.0
H856 H 0.73816 0.58601 0.10288 0.0
H857 H 0.74838 0.65434 0.1308 0.0
H858 H 0.72737 0.64307 0.13198 0.0
H859 H 0.73429 0.65346 0.11141 0.0
C860 C 0.68995 0.60399 0.12415 0.0
C861 C 0.6807 0.61634 0.11329 0.0
C862 C 0.70838 0.60287 0.1234 0.0
C863 C 0.71787 0.61409 0.11186 0.0
C864 C 0.70867 0.62604 0.1006 0.0
H865 H 0.82998 0.63153 0.09575 0.0
H866 H 0.79776 0.63133 0.09325 0.0
C867 C 0.69023 0.6272 0.10134 0.0
C868 C 0.73741 0.61348 0.11184 0.0
H869 H 0.77386 0.63852 0.12109 0.0
C870 C 0.746 0.59746 0.10687 0.0
C871 C 0.74754 0.62847 0.11708 0.0
C872 C 0.73897 0.64578 0.12328 0.0
C873 C 0.76452 0.59609 0.10679 0.0
C874 C 0.77463 0.61106 0.1121 0.0
C875 C 0.76604 0.6271 0.11698 0.0
C876 C 0.79416 0.61036 0.11297 0.0
C877 C 0.77312 0.57875 0.10078 0.0
C878 C 0.80277 0.59866 0.12494 0.0
C879 C 0.82119 0.59873 0.12641 0.0
C880 C 0.83129 0.6106 0.11601 0.0
C881 C 0.8226 0.62222 0.10395 0.0
C882 C 0.80419 0.62213 0.10249 0.0
H883 H 0.76389 0.57038 0.09284 0.0
H884 H 0.78508 0.58138 0.09256 0.0
H885 H 0.77726 0.57092 0.11276 0.0
H886 H 0.79522 0.58972 0.1334 0.0
H887 H 0.82747 0.58967 0.13588 0.0
H888 H 0.88206 0.18774 0.63691 0.0
H889 H 0.87784 0.22028 0.63516 0.0
H890 H 0.83702 0.21325 0.59543 0.0
H891 H 0.84118 0.18068 0.59697 0.0
H892 H 0.86219 0.24114 0.5877 0.0
H893 H 0.83336 0.24602 0.65616 0.0
H894 H 0.85432 0.2345 0.65498 0.0
H895 H 0.83532 0.22502 0.64417 0.0
C896 C 0.87225 0.1931 0.62772 0.0
C897 C 0.86185 0.18164 0.61718 0.0
C898 C 0.86982 0.21167 0.6268 0.0
C899 C 0.85695 0.21905 0.61537 0.0
C900 C 0.84695 0.20773 0.60439 0.0
H901 H 0.81701 0.32852 0.62422 0.0
H902 H 0.81921 0.29596 0.62038 0.0
C903 C 0.84934 0.18914 0.60532 0.0
C904 C 0.85367 0.2386 0.61516 0.0
H905 H 0.84013 0.27345 0.64161 0.0
C906 C 0.85728 0.24824 0.59943 0.0
C907 C 0.847 0.24768 0.63041 0.0
C908 C 0.8421 0.2378 0.64736 0.0
C909 C 0.85488 0.26693 0.59873 0.0
C910 C 0.84889 0.27609 0.61424 0.0
C911 C 0.84481 0.26636 0.62978 0.0
C912 C 0.84731 0.29585 0.6149 0.0
C913 C 0.85869 0.27669 0.58144 0.0
C914 C 0.86239 0.30649 0.61304 0.0
C915 C 0.8612 0.32506 0.61523 0.0
C916 C 0.84491 0.3333 0.61945 0.0
C917 C 0.82975 0.3226 0.62098 0.0
C918 C 0.83097 0.30401 0.61879 0.0
H919 H 0.85841 0.26747 0.56972 0.0
H920 H 0.84898 0.28773 0.57918 0.0
H921 H 0.87208 0.28263 0.58219 0.0
H922 H 0.87519 0.30038 0.6104 0.0
H923 H 0.87315 0.33289 0.61402 0.0
H924 H 0.31902 0.40771 0.13367 0.0
H925 H 0.28687 0.41089 0.1319 0.0
H926 H 0.28586 0.37374 0.08752 0.0
H927 H 0.31802 0.37026 0.08932 0.0
H928 H 0.26485 0.4219 0.10322 0.0
H929 H 0.25177 0.35165 0.12419 0.0
H930 H 0.27313 0.36194 0.12677 0.0
H931 H 0.26622 0.35382 0.10519 0.0
C932 C 0.31199 0.40024 0.12349 0.0
C933 C 0.32106 0.3886 0.11173 0.0
C934 C 0.29362 0.4021 0.12249 0.0
C935 C 0.28401 0.39234 0.10977 0.0
C936 C 0.29305 0.38113 0.09766 0.0
H937 H 0.17178 0.38004 0.09042 0.0
H938 H 0.204 0.37998 0.08806 0.0
C939 C 0.31142 0.37922 0.09866 0.0
C940 C 0.26449 0.39367 0.10944 0.0
H941 H 0.22703 0.36922 0.11554 0.0
C942 C 0.25655 0.41041 0.10591 0.0
C943 C 0.25376 0.37864 0.11301 0.0
C944 C 0.2616 0.36052 0.11766 0.0
C945 C 0.23808 0.41246 0.10565 0.0
C946 C 0.22737 0.39743 0.10927 0.0
C947 C 0.23532 0.38069 0.1127 0.0
C948 C 0.20785 0.39872 0.10986 0.0
C949 C 0.23017 0.4306 0.10127 0.0
C950 C 0.19937 0.40934 0.12288 0.0
C951 C 0.18094 0.40941 0.12429 0.0
C952 C 0.17071 0.39876 0.11276 0.0
C953 C 0.17926 0.38839 0.09952 0.0
C954 C 0.19767 0.38833 0.09814 0.0
H955 H 0.23985 0.43941 0.09443 0.0
H956 H 0.21833 0.42924 0.09258 0.0
H957 H 0.22601 0.43731 0.11391 0.0
H958 H 0.20703 0.41719 0.13228 0.0
H959 H 0.17476 0.41749 0.13466 0.0
H960 H 0.38575 0.12884 0.16633 0.0
H961 H 0.39068 0.12962 0.19863 0.0
H962 H 0.33539 0.11906 0.20778 0.0
H963 H 0.33019 0.11892 0.17537 0.0
H964 H 0.34577 0.14671 0.22682 0.0
H965 H 0.39442 0.09169 0.2364 0.0
H966 H 0.40176 0.10746 0.21989 0.0
H967 H 0.38214 0.09453 0.2158 0.0
C968 C 0.37467 0.12638 0.17519 0.0
C969 C 0.35755 0.12387 0.1683 0.0
C970 C 0.37756 0.1267 0.19368 0.0
C971 C 0.36347 0.12413 0.20563 0.0
C972 C 0.34646 0.12102 0.19878 0.0
H973 H 0.37493 0.11562 0.32131 0.0
H974 H 0.37133 0.1096 0.28933 0.0
C975 C 0.34351 0.12093 0.18028 0.0
C976 C 0.36616 0.12638 0.22519 0.0
H977 H 0.39208 0.11316 0.26038 0.0
C978 C 0.35578 0.13923 0.23419 0.0
C979 C 0.3791 0.11649 0.23484 0.0
C980 C 0.38985 0.10164 0.22626 0.0
C981 C 0.35819 0.14275 0.25249 0.0
C982 C 0.37178 0.13358 0.26191 0.0
C983 C 0.3819 0.12041 0.25304 0.0
C984 C 0.37532 0.13714 0.28112 0.0
C985 C 0.34593 0.15603 0.26158 0.0
C986 C 0.37932 0.15452 0.28705 0.0
C987 C 0.38117 0.15807 0.30536 0.0
C988 C 0.37938 0.1442 0.31801 0.0
C989 C 0.37634 0.12662 0.31192 0.0
C990 C 0.37428 0.12314 0.29364 0.0
H991 H 0.33335 0.15774 0.25404 0.0
H992 H 0.34275 0.15175 0.27548 0.0
H993 H 0.35242 0.16932 0.26221 0.0
H994 H 0.38069 0.16542 0.27755 0.0
H995 H 0.38372 0.17171 0.30962 0.0
H996 H 0.39578 0.8738 0.69132 0.0
H997 H 0.39149 0.87338 0.72383 0.0
H998 H 0.3493 0.91238 0.71888 0.0
H999 H 0.35349 0.91299 0.6863 0.0
H1000 H 0.3743 0.91829 0.74824 0.0
H1001 H 0.34683 0.84937 0.74626 0.0
H1002 H 0.36782 0.85189 0.73524 0.0
H1003 H 0.34863 0.86329 0.72651 0.0
C1004 C 0.38569 0.88242 0.69713 0.0
C1005 C 0.37485 0.8933 0.68622 0.0
C1006 C 0.38323 0.88211 0.71569 0.0
C1007 C 0.36991 0.89264 0.72362 0.0
C1008 C 0.35958 0.9041 0.71292 0.0
H1009 H 0.32963 0.87343 0.83135 0.0
H1010 H 0.33174 0.88015 0.79928 0.0
C1011 C 0.362 0.90441 0.69433 0.0
C1012 C 0.36634 0.89111 0.74303 0.0
H1013 H 0.35305 0.86142 0.77503 0.0
C1014 C 0.36956 0.90592 0.75413 0.0
C1015 C 0.35987 0.87503 0.75054 0.0
C1016 C 0.35542 0.85901 0.73904 0.0
C1017 C 0.36701 0.90486 0.77276 0.0
C1018 C 0.36128 0.88851 0.78035 0.0
C1019 C 0.35753 0.8739 0.76915 0.0
C1020 C 0.35972 0.88595 0.79995 0.0
C1021 C 0.37044 0.9212 0.78415 0.0
C1022 C 0.37477 0.88697 0.81087 0.0
C1023 C 0.37364 0.88311 0.82915 0.0
C1024 C 0.35743 0.87804 0.83682 0.0
C1025 C 0.3423 0.87729 0.82587 0.0
C1026 C 0.34347 0.88114 0.80756 0.0
H1027 H 0.36991 0.93373 0.77607 0.0
H1028 H 0.36068 0.9223 0.79524 0.0
H1029 H 0.38384 0.92007 0.79015 0.0
H1030 H 0.38751 0.89029 0.80516 0.0
H1031 H 0.38555 0.8838 0.83719 0.0
H1032 H 0.61616 0.87386 0.16687 0.0
H1033 H 0.61145 0.87251 0.19919 0.0
H1034 H 0.66667 0.88361 0.20813 0.0
H1035 H 0.67165 0.88431 0.1757 0.0
H1036 H 0.65679 0.85548 0.22674 0.0
H1037 H 0.60751 0.90967 0.23766 0.0
H1038 H 0.60025 0.89408 0.22095 0.0
H1039 H 0.61965 0.90736 0.21693 0.0
C1040 C 0.62726 0.87634 0.1757 0.0
C1041 C 0.6443 0.87915 0.16873 0.0
C1042 C 0.62451 0.87568 0.1942 0.0
C1043 C 0.63865 0.87822 0.20609 0.0
C1044 C 0.65556 0.88167 0.19918 0.0
H1045 H 0.6279 0.8851 0.32183 0.0
H1046 H 0.63129 0.89141 0.2899 0.0
C1047 C 0.65838 0.88208 0.18066 0.0
C1048 C 0.63613 0.87557 0.22563 0.0
H1049 H 0.61036 0.88785 0.26126 0.0
C1050 C 0.64676 0.8627 0.23432 0.0
C1051 C 0.62315 0.88511 0.23556 0.0
C1052 C 0.61213 0.89996 0.22732 0.0
C1053 C 0.64457 0.85886 0.25259 0.0
C1054 C 0.63096 0.8677 0.26228 0.0
C1055 C 0.62057 0.88085 0.25371 0.0
C1056 C 0.6277 0.86388 0.28149 0.0
C1057 C 0.65709 0.84561 0.26134 0.0
C1058 C 0.62404 0.84637 0.28732 0.0
C1059 C 0.62233 0.84265 0.30561 0.0
C1060 C 0.62391 0.85646 0.31835 0.0
C1061 C 0.62667 0.87414 0.31238 0.0
C1062 C 0.6286 0.87779 0.29412 0.0
H1063 H 0.66961 0.84418 0.25364 0.0
H1064 H 0.66037 0.84974 0.27527 0.0
H1065 H 0.65078 0.83223 0.26185 0.0
H1066 H 0.62278 0.83553 0.27773 0.0
H1067 H 0.62 0.82894 0.30978 0.0
H1068 H 0.67431 0.12962 0.82933 0.0
H1069 H 0.67056 0.12397 0.79718 0.0
H1070 H 0.61543 0.11238 0.80578 0.0
H1071 H 0.61901 0.11786 0.83789 0.0
H1072 H 0.6341 0.08765 0.78233 0.0
H1073 H 0.64284 0.15944 0.76403 0.0
H1074 H 0.66009 0.14967 0.77757 0.0
H1075 H 0.63824 0.15229 0.78669 0.0
C1076 C 0.66141 0.12578 0.8244 0.0
C1077 C 0.64693 0.12434 0.83615 0.0
C1078 C 0.65929 0.12261 0.80605 0.0
C1079 C 0.64268 0.11797 0.79917 0.0
C1080 C 0.62834 0.116 0.81089 0.0
H1081 H 0.60509 0.12682 0.69032 0.0
H1082 H 0.60849 0.12728 0.72293 0.0
C1083 C 0.63041 0.11921 0.82921 0.0
C1084 C 0.64005 0.11573 0.77967 0.0
H1085 H 0.63968 0.13886 0.74018 0.0
C1086 C 0.63534 0.0988 0.77306 0.0
C1087 C 0.64146 0.13041 0.76776 0.0
C1088 C 0.64579 0.14903 0.77431 0.0
C1089 C 0.63215 0.09611 0.7547 0.0
C1090 C 0.63385 0.11074 0.74276 0.0
C1091 C 0.63845 0.12768 0.74942 0.0
C1092 C 0.63081 0.10891 0.72327 0.0
C1093 C 0.62668 0.07779 0.74825 0.0
C1094 C 0.64214 0.09825 0.71274 0.0
C1095 C 0.64025 0.09796 0.69409 0.0
C1096 C 0.62705 0.1084 0.68569 0.0
C1097 C 0.6154 0.11864 0.69636 0.0
C1098 C 0.61732 0.11894 0.71499 0.0
H1099 H 0.62212 0.06917 0.75948 0.0
H1100 H 0.61592 0.07891 0.73816 0.0
H1101 H 0.63815 0.07104 0.74177 0.0
H1102 H 0.6528 0.09064 0.71889 0.0
H1103 H 0.64945 0.08996 0.68625 0.0
H1104 H 0.89548 0.80907 0.63551 0.0
H1105 H 0.89548 0.77634 0.63301 0.0
H1106 H 0.86818 0.78029 0.58233 0.0
H1107 H 0.86817 0.81303 0.58463 0.0
H1108 H 0.86444 0.75589 0.63069 0.0
H1109 H 0.90874 0.74391 0.5724 0.0
H1110 H 0.90858 0.76468 0.58491 0.0
H1111 H 0.89163 0.76039 0.56861 0.0
C1112 C 0.88967 0.803 0.62371 0.0
C1113 C 0.88175 0.81364 0.61029 0.0
C1114 C 0.8897 0.78431 0.62232 0.0
C1115 C 0.882 0.77596 0.60741 0.0
C1116 C 0.87446 0.78652 0.59379 0.0
H1117 H 0.83914 0.66915 0.6023 0.0
H1118 H 0.84423 0.70148 0.60112 0.0
C1119 C 0.87435 0.80522 0.5952 0.0
C1120 C 0.88051 0.75621 0.60684 0.0
H1121 H 0.89166 0.71907 0.58235 0.0
C1122 C 0.87047 0.74781 0.62019 0.0
C1123 C 0.88854 0.74576 0.59321 0.0
C1124 C 0.90012 0.75408 0.57904 0.0
C1125 C 0.8679 0.72922 0.62007 0.0
C1126 C 0.87535 0.71883 0.60605 0.0
C1127 C 0.88578 0.72715 0.59293 0.0
C1128 C 0.87253 0.69926 0.60499 0.0
C1129 C 0.85737 0.72084 0.63506 0.0
C1130 C 0.88687 0.68735 0.60679 0.0
C1131 C 0.88404 0.66885 0.60735 0.0
C1132 C 0.8668 0.662 0.60608 0.0
C1133 C 0.85256 0.67399 0.60349 0.0
C1134 C 0.85542 0.69246 0.60287 0.0
H1135 H 0.85644 0.72981 0.64694 0.0
H1136 H 0.84374 0.71822 0.63027 0.0
H1137 H 0.86337 0.70785 0.63931 0.0
H1138 H 0.90019 0.69238 0.60835 0.0
H1139 H 0.89531 0.65998 0.60931 0.0
H1140 H 0.81196 0.37179 0.13024 0.0
H1141 H 0.78023 0.37682 0.12699 0.0
H1142 H 0.78935 0.40919 0.07995 0.0
H1143 H 0.82129 0.40401 0.08293 0.0
H1144 H 0.76209 0.40998 0.12707 0.0
H1145 H 0.75228 0.37257 0.06313 0.0
H1146 H 0.77202 0.37 0.07655 0.0
H1147 H 0.76886 0.38973 0.06306 0.0
C1148 C 0.80727 0.37993 0.11914 0.0
C1149 C 0.81916 0.38746 0.1068 0.0
C1150 C 0.78912 0.38281 0.11733 0.0
C1151 C 0.78247 0.39323 0.10315 0.0
C1152 C 0.79424 0.40087 0.09082 0.0
H1153 H 0.66866 0.41203 0.08391 0.0
H1154 H 0.70091 0.41498 0.08153 0.0
C1155 C 0.81247 0.39796 0.0926 0.0
C1156 C 0.76316 0.39619 0.10167 0.0
H1157 H 0.72694 0.38505 0.0768 0.0
C1158 C 0.75441 0.40471 0.11598 0.0
C1159 C 0.75323 0.38939 0.08713 0.0
C1160 C 0.76199 0.37979 0.07161 0.0
C1161 C 0.73593 0.40605 0.11645 0.0
C1162 C 0.72598 0.39852 0.10233 0.0
C1163 C 0.7347 0.39078 0.08759 0.0
C1164 C 0.70657 0.39695 0.10358 0.0
C1165 C 0.72713 0.41514 0.13224 0.0
C1166 C 0.69924 0.38565 0.11658 0.0
C1167 C 0.68096 0.38385 0.11792 0.0
C1168 C 0.66964 0.39335 0.10626 0.0
C1169 C 0.67704 0.4046 0.09313 0.0
C1170 C 0.69541 0.40629 0.09173 0.0
H1171 H 0.73637 0.42421 0.13937 0.0
H1172 H 0.71535 0.42302 0.12788 0.0
H1173 H 0.72268 0.40477 0.14189 0.0
H1174 H 0.7077 0.37814 0.12567 0.0
H1175 H 0.67572 0.37506 0.12816 0.0
H1176 H 0.1129 0.18958 0.58258 0.0
H1177 H 0.11827 0.22176 0.57991 0.0
H1178 H 0.11684 0.22686 0.63759 0.0
H1179 H 0.11219 0.19455 0.64039 0.0
H1180 H 0.10017 0.25061 0.58917 0.0
H1181 H 0.16328 0.24982 0.62676 0.0
H1182 H 0.1524 0.22951 0.61988 0.0
H1183 H 0.14546 0.24113 0.63992 0.0
C1184 C 0.11368 0.19756 0.5947 0.0
C1185 C 0.1123 0.18953 0.61171 0.0
C1186 C 0.11677 0.21595 0.59315 0.0
C1187 C 0.11841 0.22664 0.60856 0.0
C1188 C 0.11622 0.21877 0.62553 0.0
H1189 H 0.10868 0.34161 0.61438 0.0
H1190 H 0.10407 0.30933 0.61293 0.0
C1191 C 0.1134 0.20034 0.62711 0.0
C1192 C 0.12231 0.24602 0.60684 0.0
H1193 H 0.15023 0.27866 0.6214 0.0
C1194 C 0.1112 0.25673 0.5961 0.0
C1195 C 0.13697 0.25392 0.61552 0.0
C1196 C 0.15032 0.24296 0.62599 0.0
C1197 C 0.11402 0.27522 0.59424 0.0
C1198 C 0.12797 0.28331 0.60389 0.0
C1199 C 0.1394 0.2725 0.61418 0.0
C1200 C 0.13066 0.30299 0.604 0.0
C1201 C 0.10213 0.28579 0.58177 0.0
C1202 C 0.14732 0.31018 0.60001 0.0
C1203 C 0.15013 0.32866 0.60124 0.0
C1204 C 0.13627 0.34027 0.60635 0.0
C1205 C 0.11957 0.33305 0.61016 0.0
C1206 C 0.11686 0.31458 0.6092 0.0
H1207 H 0.09666 0.27711 0.57103 0.0
H1208 H 0.09081 0.29136 0.58951 0.0
H1209 H 0.10929 0.29707 0.57539 0.0
H1210 H 0.1582 0.30146 0.59607 0.0
H1211 H 0.16314 0.33384 0.59824 0.0
H1212 H 0.18018 0.60418 0.07867 0.0
H1213 H 0.2118 0.59809 0.0741 0.0
H1214 H 0.22147 0.60799 0.13027 0.0
H1215 H 0.19008 0.61386 0.13501 0.0
H1216 H 0.23904 0.62174 0.08003 0.0
H1217 H 0.2483 0.56109 0.12183 0.0
H1218 H 0.22674 0.56888 0.11462 0.0
H1219 H 0.2372 0.5787 0.13394 0.0
C1220 C 0.18903 0.60484 0.09008 0.0
C1221 C 0.18262 0.60949 0.1072 0.0
C1222 C 0.20706 0.60135 0.08744 0.0
C1223 C 0.2189 0.60227 0.10191 0.0
C1224 C 0.2125 0.60676 0.11901 0.0
H1225 H 0.32423 0.63334 0.11516 0.0
H1226 H 0.29263 0.63004 0.10993 0.0
C1227 C 0.19455 0.61027 0.12166 0.0
C1228 C 0.23816 0.60001 0.09909 0.0
H1229 H 0.27449 0.5787 0.11632 0.0
C1230 C 0.24678 0.61209 0.08768 0.0
C1231 C 0.24822 0.58721 0.10883 0.0
C1232 C 0.23961 0.57311 0.12034 0.0
C1233 C 0.2653 0.61254 0.08672 0.0
C1234 C 0.27537 0.60081 0.0977 0.0
C1235 C 0.26674 0.58787 0.10811 0.0
C1236 C 0.2947 0.60285 0.09985 0.0
C1237 C 0.2739 0.62587 0.07432 0.0
C1238 C 0.30632 0.58849 0.0963 0.0
C1239 C 0.32447 0.59029 0.09941 0.0
C1240 C 0.33122 0.60642 0.10628 0.0
C1241 C 0.3195 0.62075 0.10979 0.0
C1242 C 0.30142 0.61895 0.10667 0.0
H1243 H 0.26507 0.62938 0.06289 0.0
H1244 H 0.27662 0.6384 0.08185 0.0
H1245 H 0.2866 0.62057 0.06893 0.0
H1246 H 0.30133 0.57589 0.0912 0.0
H1247 H 0.33315 0.57899 0.09661 0.0
H1248 H 0.8735 0.17797 0.39649 0.0
H1249 H 0.86857 0.20941 0.40458 0.0
H1250 H 0.87861 0.22515 0.34982 0.0
H1251 H 0.88303 0.19369 0.34148 0.0
H1252 H 0.88825 0.23952 0.40298 0.0
H1253 H 0.82988 0.24613 0.35846 0.0
H1254 H 0.84014 0.22474 0.36339 0.0
H1255 H 0.84938 0.23921 0.34652 0.0
C1256 C 0.87482 0.18813 0.38619 0.0
C1257 C 0.87843 0.18334 0.36828 0.0
C1258 C 0.87198 0.20609 0.39084 0.0
C1259 C 0.87279 0.21954 0.37771 0.0
C1260 C 0.87741 0.2149 0.36005 0.0
H1261 H 0.8801 0.33363 0.38947 0.0
H1262 H 0.88559 0.30139 0.38851 0.0
C1263 C 0.88005 0.19694 0.35533 0.0
C1264 C 0.86831 0.23835 0.38236 0.0
H1265 H 0.84135 0.27329 0.37047 0.0
C1266 C 0.87791 0.24689 0.39598 0.0
C1267 C 0.8545 0.24778 0.37354 0.0
C1268 C 0.84275 0.23894 0.35981 0.0
C1269 C 0.87448 0.26486 0.40058 0.0
C1270 C 0.86144 0.27462 0.39095 0.0
C1271 C 0.85146 0.26586 0.37776 0.0
C1272 C 0.85838 0.29411 0.39361 0.0
C1273 C 0.88478 0.27312 0.41578 0.0
C1274 C 0.84121 0.3008 0.39659 0.0
C1275 C 0.83794 0.31929 0.39678 0.0
C1276 C 0.85183 0.3314 0.39407 0.0
C1277 C 0.86912 0.32466 0.39176 0.0
C1278 C 0.87233 0.3062 0.39134 0.0
H1279 H 0.88931 0.26274 0.4255 0.0
H1280 H 0.89672 0.27972 0.41029 0.0
H1281 H 0.87677 0.28333 0.42308 0.0
H1282 H 0.83024 0.2917 0.3983 0.0
H1283 H 0.82449 0.32407 0.39863 0.0
H1284 H 0.17753 0.38827 0.86472 0.0
H1285 H 0.20966 0.38971 0.86706 0.0
H1286 H 0.20525 0.40186 0.92348 0.0
H1287 H 0.17294 0.40025 0.92134 0.0
H1288 H 0.23136 0.41821 0.87858 0.0
H1289 H 0.23843 0.35752 0.92167 0.0
H1290 H 0.21829 0.36277 0.90968 0.0
H1291 H 0.22373 0.37479 0.9298 0.0
C1292 C 0.18334 0.39127 0.87765 0.0
C1293 C 0.17267 0.39402 0.89288 0.0
C1294 C 0.20171 0.39214 0.87894 0.0
C1295 C 0.2098 0.3957 0.89547 0.0
C1296 C 0.19923 0.39883 0.91066 0.0
H1297 H 0.32426 0.41486 0.90258 0.0
H1298 H 0.29217 0.41845 0.90577 0.0
C1299 C 0.18079 0.39797 0.90939 0.0
C1300 C 0.22934 0.39578 0.89666 0.0
H1301 H 0.26459 0.37237 0.91357 0.0
C1302 C 0.23866 0.40831 0.88635 0.0
C1303 C 0.23875 0.38273 0.9067 0.0
C1304 C 0.22936 0.36857 0.91751 0.0
C1305 C 0.25721 0.40792 0.88553 0.0
C1306 C 0.26661 0.39478 0.89547 0.0
C1307 C 0.2573 0.38249 0.90606 0.0
C1308 C 0.28604 0.39269 0.894 0.0
C1309 C 0.26655 0.42108 0.87348 0.0
C1310 C 0.29319 0.37689 0.88666 0.0
C1311 C 0.31146 0.37476 0.88488 0.0
C1312 C 0.32296 0.38839 0.89049 0.0
C1313 C 0.31576 0.40416 0.89804 0.0
C1314 C 0.29744 0.40627 0.89982 0.0
H1315 H 0.25727 0.42797 0.86414 0.0
H1316 H 0.27302 0.43145 0.88185 0.0
H1317 H 0.27698 0.41418 0.86548 0.0
H1318 H 0.28459 0.36625 0.88212 0.0
H1319 H 0.31654 0.36244 0.87905 0.0
H1320 H 0.11835 0.81959 0.39246 0.0
H1321 H 0.1225 0.78803 0.40048 0.0
H1322 H 0.13734 0.77588 0.34589 0.0
H1323 H 0.13286 0.80734 0.33762 0.0
H1324 H 0.1152 0.75073 0.3604 0.0
H1325 H 0.17116 0.76482 0.40644 0.0
H1326 H 0.1511 0.77674 0.41177 0.0
H1327 H 0.1624 0.78137 0.39107 0.0
C1328 C 0.12235 0.81018 0.38211 0.0
C1329 C 0.12542 0.816 0.36442 0.0
C1330 C 0.12484 0.79219 0.38676 0.0
C1331 C 0.13062 0.77974 0.37387 0.0
C1332 C 0.133 0.78534 0.35606 0.0
H1333 H 0.18102 0.67654 0.38578 0.0
H1334 H 0.17382 0.70842 0.38241 0.0
C1335 C 0.13041 0.80331 0.35136 0.0
C1336 C 0.13449 0.76092 0.37894 0.0
H1337 H 0.16121 0.7348 0.40531 0.0
C1338 C 0.12521 0.74722 0.37025 0.0
C1339 C 0.14776 0.75644 0.39161 0.0
C1340 C 0.15881 0.77059 0.40066 0.0
C1341 C 0.12885 0.72909 0.37388 0.0
C1342 C 0.14183 0.72462 0.38685 0.0
C1343 C 0.15112 0.73832 0.39554 0.0
C1344 C 0.14658 0.70574 0.39085 0.0
C1345 C 0.11915 0.71492 0.36336 0.0
C1346 C 0.13383 0.69386 0.39739 0.0
C1347 C 0.13786 0.67563 0.39922 0.0
C1348 C 0.15479 0.66903 0.39474 0.0
C1349 C 0.16786 0.68119 0.3893 0.0
C1350 C 0.16376 0.6994 0.38735 0.0
H1351 H 0.11298 0.72052 0.35101 0.0
H1352 H 0.12821 0.70377 0.35947 0.0
H1353 H 0.10846 0.7093 0.37181 0.0
H1354 H 0.12062 0.6986 0.4006 0.0
H1355 H 0.12755 0.66665 0.40363 0.0
H1356 H 0.83089 0.58238 0.91684 0.0
H1357 H 0.79857 0.57964 0.91787 0.0
H1358 H 0.79373 0.61794 0.87471 0.0
H1359 H 0.82576 0.62059 0.87339 0.0
H1360 H 0.77298 0.60639 0.92399 0.0
H1361 H 0.76421 0.57601 0.85684 0.0
H1362 H 0.78543 0.57682 0.86793 0.0
H1363 H 0.77704 0.59613 0.85602 0.0
C1364 C 0.82293 0.59015 0.90752 0.0
C1365 C 0.83091 0.60162 0.89495 0.0
C1366 C 0.80449 0.58856 0.90813 0.0
C1367 C 0.79381 0.59831 0.89612 0.0
C1368 C 0.80175 0.60995 0.88379 0.0
H1369 H 0.68844 0.63013 0.87481 0.0
H1370 H 0.72024 0.62465 0.87728 0.0
C1371 C 0.82009 0.61153 0.88314 0.0
C1372 C 0.7743 0.59697 0.8967 0.0
H1373 H 0.7384 0.58984 0.86995 0.0
C1374 C 0.76538 0.60245 0.91231 0.0
C1375 C 0.76445 0.59172 0.88145 0.0
C1376 C 0.77328 0.58466 0.86468 0.0
C1377 C 0.74684 0.60385 0.91271 0.0
C1378 C 0.7371 0.59952 0.89714 0.0
C1379 C 0.74597 0.59327 0.88181 0.0
C1380 C 0.71781 0.60263 0.89601 0.0
C1381 C 0.73782 0.61075 0.92943 0.0
C1382 C 0.70596 0.59195 0.90567 0.0
C1383 C 0.68772 0.59499 0.90425 0.0
C1384 C 0.6811 0.60879 0.89315 0.0
C1385 C 0.69308 0.61943 0.8835 0.0
C1386 C 0.71125 0.61631 0.88487 0.0
H1387 H 0.74742 0.61556 0.9396 0.0
H1388 H 0.72858 0.62192 0.92602 0.0
H1389 H 0.72992 0.59983 0.93551 0.0
H1390 H 0.71082 0.58121 0.91419 0.0
H1391 H 0.67884 0.58656 0.91183 0.0
H1392 H 0.67955 0.89733 0.83077 0.0
H1393 H 0.67681 0.89932 0.79812 0.0
H1394 H 0.62022 0.90514 0.80319 0.0
H1395 H 0.62279 0.90338 0.8358 0.0
H1396 H 0.65774 0.8754 0.77718 0.0
H1397 H 0.63307 0.94516 0.7678 0.0
H1398 H 0.64333 0.93758 0.78838 0.0
H1399 H 0.62062 0.93233 0.78374 0.0
C1400 C 0.66654 0.89928 0.82497 0.0
C1401 C 0.65139 0.90017 0.83589 0.0
C1402 C 0.66501 0.90041 0.80632 0.0
C1403 C 0.64834 0.90258 0.79829 0.0
C1404 C 0.63324 0.90383 0.80915 0.0
H1405 H 0.61715 0.87269 0.691 0.0
H1406 H 0.62016 0.87645 0.72346 0.0
C1407 C 0.63474 0.9027 0.82779 0.0
C1408 C 0.6466 0.90207 0.77854 0.0
H1409 H 0.63131 0.92572 0.7424 0.0
C1410 C 0.65208 0.88644 0.76955 0.0
C1411 C 0.6393 0.91655 0.76867 0.0
C1412 C 0.63388 0.93393 0.77759 0.0
C1413 C 0.65011 0.88474 0.75093 0.0
C1414 C 0.64225 0.89896 0.74114 0.0
C1415 C 0.63714 0.91477 0.75004 0.0
C1416 C 0.63945 0.89764 0.72158 0.0
C1417 C 0.65657 0.86779 0.74186 0.0
C1418 C 0.6489 0.90872 0.70987 0.0
C1419 C 0.64721 0.90662 0.69132 0.0
C1420 C 0.63595 0.89348 0.68422 0.0
C1421 C 0.62601 0.88286 0.69604 0.0
C1422 C 0.62774 0.88494 0.71457 0.0
H1423 H 0.66579 0.86 0.75055 0.0
H1424 H 0.64508 0.85916 0.73875 0.0
H1425 H 0.66337 0.87093 0.72905 0.0
H1426 H 0.65793 0.91865 0.71508 0.0
H1427 H 0.65498 0.91508 0.68258 0.0
H1428 H 0.61507 0.10669 0.16584 0.0
H1429 H 0.61003 0.11068 0.19797 0.0
H1430 H 0.6642 0.12697 0.20482 0.0
H1431 H 0.66951 0.12274 0.17272 0.0
H1432 H 0.65234 0.10422 0.23184 0.0
H1433 H 0.60537 0.16081 0.22023 0.0
H1434 H 0.59959 0.14036 0.20899 0.0
H1435 H 0.61946 0.15187 0.20277 0.0
C1436 C 0.62599 0.11092 0.17419 0.0
C1437 C 0.64266 0.11458 0.16669 0.0
C1438 C 0.62304 0.11331 0.19253 0.0
C1439 C 0.63663 0.11953 0.20364 0.0
C1440 C 0.65351 0.1223 0.1964 0.0
H1441 H 0.62917 0.17007 0.30783 0.0
H1442 H 0.63227 0.16327 0.27584 0.0
C1443 C 0.65651 0.11985 0.17806 0.0
C1444 C 0.63314 0.12368 0.22272 0.0
H1445 H 0.60855 0.15074 0.25024 0.0
C1446 C 0.64276 0.11437 0.23589 0.0
C1447 C 0.62083 0.13715 0.22788 0.0
C1448 C 0.61082 0.14826 0.21425 0.0
C1449 C 0.64028 0.11804 0.25418 0.0
C1450 C 0.6276 0.13114 0.25937 0.0
C1451 C 0.61811 0.14058 0.24618 0.0
C1452 C 0.62436 0.13554 0.27843 0.0
C1453 C 0.65155 0.10817 0.26776 0.0
C1454 C 0.61831 0.12236 0.29031 0.0
C1455 C 0.61658 0.12617 0.30856 0.0
C1456 C 0.62072 0.1433 0.31523 0.0
C1457 C 0.62591 0.15675 0.30313 0.0
C1458 C 0.62772 0.15288 0.28487 0.0
H1459 H 0.66353 0.1021 0.2615 0.0
H1460 H 0.65577 0.11729 0.27871 0.0
H1461 H 0.64373 0.09718 0.2738 0.0
H1462 H 0.61525 0.10902 0.2855 0.0
H1463 H 0.61239 0.11554 0.31749 0.0
H1464 H 0.36032 0.12969 0.68852 0.0
H1465 H 0.35661 0.12484 0.7206 0.0
H1466 H 0.40443 0.09284 0.72175 0.0
H1467 H 0.40811 0.09734 0.68934 0.0
H1468 H 0.37659 0.07731 0.74035 0.0
H1469 H 0.38459 0.14834 0.76054 0.0
H1470 H 0.36797 0.14563 0.74361 0.0
H1471 H 0.39068 0.14023 0.73854 0.0
C1472 C 0.37015 0.1217 0.69556 0.0
C1473 C 0.3846 0.114 0.68639 0.0
C1474 C 0.36803 0.11901 0.71393 0.0
C1475 C 0.38042 0.10877 0.72359 0.0
C1476 C 0.39479 0.1009 0.71451 0.0
H1477 H 0.386 0.08884 0.83839 0.0
H1478 H 0.39207 0.08884 0.80614 0.0
C1479 C 0.39689 0.10351 0.69604 0.0
C1480 C 0.37799 0.10606 0.74309 0.0
H1481 H 0.3718 0.12881 0.78238 0.0
C1482 C 0.37575 0.08853 0.7496 0.0
C1483 C 0.37698 0.12075 0.75511 0.0
C1484 C 0.38036 0.13977 0.74913 0.0
C1485 C 0.37188 0.08538 0.76775 0.0
C1486 C 0.37022 0.10013 0.77953 0.0
C1487 C 0.37287 0.11758 0.77315 0.0
C1488 C 0.36584 0.09783 0.79865 0.0
C1489 C 0.36917 0.06644 0.77424 0.0
C1490 C 0.34898 0.10265 0.80496 0.0
C1491 C 0.34541 0.10259 0.82335 0.0
C1492 C 0.35875 0.09795 0.8357 0.0
C1493 C 0.37545 0.09252 0.82923 0.0
C1494 C 0.37895 0.09245 0.81083 0.0
H1495 H 0.36942 0.05656 0.76307 0.0
H1496 H 0.37976 0.06282 0.78395 0.0
H1497 H 0.35632 0.06546 0.78139 0.0
H1498 H 0.33876 0.10693 0.79566 0.0
H1499 H 0.33244 0.10688 0.8279 0.0
H1500 H 0.38822 0.89649 0.1653 0.0
H1501 H 0.39383 0.89323 0.19744 0.0
H1502 H 0.33966 0.87755 0.20571 0.0
H1503 H 0.33379 0.88112 0.17365 0.0
H1504 H 0.35188 0.90048 0.23198 0.0
H1505 H 0.39886 0.84381 0.22069 0.0
H1506 H 0.40452 0.86416 0.20921 0.0
H1507 H 0.38465 0.85251 0.20322 0.0
C1508 C 0.37743 0.89255 0.17397 0.0
C1509 C 0.36059 0.88888 0.16689 0.0
C1510 C 0.3807 0.89058 0.19231 0.0
C1511 C 0.36727 0.88474 0.20384 0.0
C1512 C 0.35024 0.88194 0.19698 0.0
H1513 H 0.37428 0.83365 0.30724 0.0
H1514 H 0.37165 0.84113 0.2754 0.0
C1515 C 0.34691 0.884 0.17866 0.0
C1516 C 0.37104 0.88094 0.22294 0.0
H1517 H 0.39553 0.85394 0.2506 0.0
C1518 C 0.36146 0.89035 0.23608 0.0
C1519 C 0.38335 0.86751 0.22818 0.0
C1520 C 0.39333 0.85628 0.21461 0.0
C1521 C 0.36386 0.88671 0.25439 0.0
C1522 C 0.37646 0.87356 0.25965 0.0
C1523 C 0.38603 0.86414 0.2465 0.0
C1524 C 0.37933 0.86885 0.27871 0.0
C1525 C 0.3525 0.89658 0.2679 0.0
C1526 C 0.38505 0.88182 0.29099 0.0
C1527 C 0.38648 0.87763 0.30919 0.0
C1528 C 0.38239 0.86032 0.3154 0.0
C1529 C 0.37749 0.84711 0.30291 0.0
C1530 C 0.37596 0.85136 0.28472 0.0
H1531 H 0.34063 0.90277 0.26155 0.0
H1532 H 0.3481 0.88743 0.27875 0.0
H1533 H 0.36033 0.90749 0.27409 0.0
H1534 H 0.38813 0.89528 0.28653 0.0
H1535 H 0.39046 0.88807 0.31843 0.0
H1536 H 0.10786 0.08019 0.57787 0.0
H1537 H 0.10355 0.07861 0.54527 0.0
H1538 H 0.11412 0.13526 0.541 0.0
H1539 H 0.11815 0.13702 0.57335 0.0
H1540 H 0.08454 0.12516 0.52219 0.0
H1541 H 0.14199 0.08056 0.50673 0.0
H1542 H 0.12645 0.07205 0.5228 0.0
H1543 H 0.13932 0.09146 0.5282 0.0
C1544 C 0.10933 0.09228 0.56995 0.0
C1545 C 0.11328 0.10875 0.57819 0.0
C1546 C 0.10692 0.09134 0.55134 0.0
C1547 C 0.10865 0.1068 0.54074 0.0
C1548 C 0.11266 0.12319 0.54896 0.0
H1549 H 0.13112 0.12762 0.43144 0.0
H1550 H 0.13049 0.12158 0.4636 0.0
C1551 C 0.11494 0.12417 0.56747 0.0
C1552 C 0.10621 0.10625 0.52105 0.0
H1553 H 0.12468 0.09039 0.48233 0.0
C1554 C 0.09319 0.11743 0.51344 0.0
C1555 C 0.11761 0.09622 0.50975 0.0
C1556 C 0.13224 0.08448 0.51721 0.0
C1557 C 0.09165 0.11938 0.49479 0.0
C1558 C 0.10318 0.10951 0.48348 0.0
C1559 C 0.11581 0.09785 0.49108 0.0
C1560 C 0.10344 0.11232 0.46383 0.0
C1561 C 0.0783 0.13266 0.48743 0.0
C1562 C 0.08848 0.10892 0.45326 0.0
C1563 C 0.08872 0.11255 0.43485 0.0
C1564 C 0.10402 0.11943 0.42671 0.0
C1565 C 0.11911 0.12238 0.43729 0.0
C1566 C 0.1188 0.11887 0.45567 0.0
H1567 H 0.07323 0.14191 0.49798 0.0
H1568 H 0.08417 0.14079 0.47649 0.0
H1569 H 0.06688 0.12527 0.48183 0.0
H1570 H 0.07661 0.10354 0.45925 0.0
H1571 H 0.07695 0.10997 0.42702 0.0
H1572 H 0.39059 0.59342 0.93204 0.0
H1573 H 0.39557 0.59495 0.96434 0.0
H1574 H 0.44976 0.60999 0.95533 0.0
H1575 H 0.44498 0.60851 0.92278 0.0
H1576 H 0.43871 0.58119 0.98623 0.0
H1577 H 0.4065 0.64868 0.98568 0.0
H1578 H 0.39589 0.63141 0.97277 0.0
H1579 H 0.41731 0.63924 0.96616 0.0
C1580 C 0.40367 0.59679 0.93685 0.0
C1581 C 0.41735 0.60105 0.92483 0.0
C1582 C 0.40648 0.5976 0.95531 0.0
C1583 C 0.42297 0.60267 0.96208 0.0
C1584 C 0.43695 0.60602 0.95024 0.0
H1585 H 0.44231 0.62177 0.07726 0.0
H1586 H 0.44834 0.61681 0.04526 0.0
C1587 C 0.43417 0.6052 0.93169 0.0
C1588 C 0.42483 0.60608 0.98145 0.0
H1589 H 0.41043 0.63478 0.01404 0.0
C1590 C 0.43285 0.59303 0.99238 0.0
C1591 C 0.41718 0.62158 0.98925 0.0
C1592 C 0.40882 0.63615 0.97791 0.0
C1593 C 0.43257 0.59471 0.01117 0.0
C1594 C 0.42412 0.6098 0.01896 0.0
C1595 C 0.41685 0.62321 0.00794 0.0
C1596 C 0.42113 0.61127 0.03845 0.0
C1597 C 0.44044 0.57999 0.02263 0.0
C1598 C 0.40387 0.60973 0.04507 0.0
C1599 C 0.40036 0.61258 0.0632 0.0
C1600 C 0.41407 0.61715 0.07507 0.0
C1601 C 0.43147 0.61829 0.06846 0.0
C1602 C 0.43496 0.61539 0.05023 0.0
H1603 H 0.44531 0.56847 0.01448 0.0
H1604 H 0.45167 0.5854 0.03048 0.0
H1605 H 0.43043 0.57509 0.03233 0.0
H1606 H 0.39304 0.6066 0.03611 0.0
H1607 H 0.38683 0.61152 0.06782 0.0
H1608 H 0.87158 0.87979 0.43286 0.0
H1609 H 0.87247 0.88759 0.4646 0.0
H1610 H 0.927 0.90331 0.45926 0.0
H1611 H 0.92637 0.89506 0.42745 0.0
H1612 H 0.92265 0.88198 0.48732 0.0
H1613 H 0.87143 0.93513 0.49002 0.0
H1614 H 0.86288 0.91532 0.47963 0.0
H1615 H 0.88075 0.92724 0.46911 0.0
C1616 C 0.88373 0.88506 0.43837 0.0
C1617 C 0.89891 0.8868 0.42764 0.0
C1618 C 0.88416 0.8897 0.45649 0.0
C1619 C 0.89968 0.89644 0.46421 0.0
C1620 C 0.91483 0.89832 0.45352 0.0
H1621 H 0.89323 0.92467 0.57909 0.0
H1622 H 0.89855 0.92783 0.54673 0.0
C1623 C 0.91446 0.89355 0.43537 0.0
C1624 C 0.90039 0.89992 0.48376 0.0
H1625 H 0.87732 0.91948 0.51806 0.0
C1626 C 0.91296 0.89047 0.49401 0.0
C1627 C 0.88801 0.9113 0.4925 0.0
C1628 C 0.87515 0.92297 0.48219 0.0
C1629 C 0.91267 0.8911 0.5128 0.0
C1630 C 0.8992 0.90108 0.52154 0.0
C1631 C 0.88744 0.91157 0.51132 0.0
C1632 C 0.89615 0.89946 0.54107 0.0
C1633 C 0.92659 0.88073 0.5231 0.0
C1634 C 0.89263 0.88256 0.54846 0.0
C1635 C 0.88967 0.88071 0.5668 0.0
C1636 C 0.88992 0.89577 0.57816 0.0
C1637 C 0.893 0.91281 0.57069 0.0
C1638 C 0.89607 0.91464 0.55225 0.0
H1639 H 0.93895 0.87925 0.51514 0.0
H1640 H 0.92977 0.88738 0.53602 0.0
H1641 H 0.92163 0.86705 0.52599 0.0
H1642 H 0.89209 0.87076 0.53999 0.0
H1643 H 0.88714 0.86741 0.57205 0.0
H1644 H 0.55799 0.39304 0.92338 0.0
H1645 H 0.55119 0.39478 0.9555 0.0
H1646 H 0.60495 0.41028 0.9664 0.0
H1647 H 0.61182 0.40878 0.93452 0.0
H1648 H 0.56761 0.37385 0.98122 0.0
H1649 H 0.57684 0.44561 0.99704 0.0
H1650 H 0.5737 0.43759 0.97438 0.0
H1651 H 0.59524 0.43658 0.98468 0.0
C1652 C 0.56827 0.39713 0.93259 0.0
C1653 C 0.58547 0.40072 0.9264 0.0
C1654 C 0.56435 0.39813 0.95091 0.0
C1655 C 0.57749 0.40294 0.96326 0.0
C1656 C 0.5945 0.40698 0.95705 0.0
H1657 H 0.61273 0.39284 0.06836 0.0
H1658 H 0.60594 0.39927 0.03702 0.0
C1659 C 0.59845 0.40594 0.93881 0.0
C1660 C 0.57422 0.40186 0.98279 0.0
H1661 H 0.58082 0.42479 0.02181 0.0
C1662 C 0.57002 0.38508 0.99013 0.0
C1663 C 0.57734 0.41656 0.99432 0.0
C1664 C 0.58085 0.43514 0.98718 0.0
C1665 C 0.57024 0.38226 0.00874 0.0
C1666 C 0.57455 0.39669 0.02021 0.0
C1667 C 0.57763 0.41375 0.01292 0.0
C1668 C 0.57799 0.39384 0.0395 0.0
C1669 C 0.56705 0.36363 0.01593 0.0
C1670 C 0.56442 0.38889 0.05129 0.0
C1671 C 0.56826 0.38514 0.06927 0.0
C1672 C 0.58572 0.38631 0.07569 0.0
C1673 C 0.59916 0.39171 0.06387 0.0
C1674 C 0.5953 0.39547 0.04596 0.0
H1675 H 0.56621 0.35346 0.00506 0.0
H1676 H 0.57781 0.35961 0.0253 0.0
H1677 H 0.55443 0.36353 0.02353 0.0
H1678 H 0.55094 0.38776 0.04654 0.0
H1679 H 0.55759 0.38111 0.07806 0.0
H1680 H 0.13709 0.92195 0.57611 0.0
H1681 H 0.13637 0.91954 0.5434 0.0
H1682 H 0.11031 0.86842 0.54769 0.0
H1683 H 0.11156 0.87043 0.58037 0.0
H1684 H 0.13736 0.86631 0.52557 0.0
H1685 H 0.09722 0.92618 0.50763 0.0
H1686 H 0.116 0.93176 0.52116 0.0
H1687 H 0.09882 0.91792 0.53035 0.0
C1688 C 0.13099 0.91031 0.57007 0.0
C1689 C 0.12441 0.89636 0.5808 0.0
C1690 C 0.13048 0.90901 0.55137 0.0
C1691 C 0.12304 0.89393 0.54309 0.0
C1692 C 0.11607 0.8802 0.5538 0.0
H1693 H 0.10384 0.88301 0.42846 0.0
H1694 H 0.10085 0.88707 0.46091 0.0
C1695 C 0.1168 0.88137 0.57247 0.0
C1696 C 0.12373 0.89175 0.52335 0.0
H1697 H 0.1133 0.91215 0.48367 0.0
C1698 C 0.13196 0.87627 0.51641 0.0
C1699 C 0.1165 0.90464 0.51142 0.0
C1700 C 0.10648 0.92096 0.51801 0.0
C1701 C 0.13344 0.87345 0.49789 0.0
C1702 C 0.12701 0.88677 0.48596 0.0
C1703 C 0.11845 0.90209 0.49286 0.0
C1704 C 0.12893 0.88495 0.46628 0.0
C1705 C 0.1416 0.85609 0.49131 0.0
C1706 C 0.14573 0.88279 0.45853 0.0
C1707 C 0.14746 0.88024 0.44006 0.0
C1708 C 0.13243 0.88016 0.42897 0.0
C1709 C 0.11566 0.88297 0.43668 0.0
C1710 C 0.11393 0.88531 0.45519 0.0
H1711 H 0.14084 0.84537 0.50165 0.0
H1712 H 0.13497 0.85129 0.47893 0.0
H1713 H 0.15578 0.85827 0.48824 0.0
H1714 H 0.15751 0.88297 0.46679 0.0
H1715 H 0.16057 0.87834 0.43448 0.0
H1716 H 0.62738 0.61429 0.93465 0.0
H1717 H 0.62191 0.60787 0.96624 0.0
H1718 H 0.56695 0.6224 0.95958 0.0
H1719 H 0.57231 0.62905 0.92785 0.0
H1720 H 0.58346 0.63929 0.98839 0.0
H1721 H 0.59621 0.56601 0.99008 0.0
H1722 H 0.61364 0.57822 0.97936 0.0
H1723 H 0.59193 0.57809 0.96947 0.0
C1724 C 0.61408 0.61599 0.93982 0.0
C1725 C 0.60028 0.62221 0.92873 0.0
C1726 C 0.61095 0.61215 0.95785 0.0
C1727 C 0.59397 0.61435 0.96512 0.0
C1728 C 0.58012 0.62045 0.95412 0.0
H1729 H 0.56928 0.61411 0.0806 0.0
H1730 H 0.56483 0.61308 0.04806 0.0
C1731 C 0.58322 0.62426 0.93603 0.0
C1732 C 0.59116 0.61167 0.98456 0.0
H1733 H 0.5978 0.5815 0.01839 0.0
C1734 C 0.58623 0.62658 0.99496 0.0
C1735 C 0.59478 0.59505 0.99301 0.0
C1736 C 0.59927 0.57838 0.98238 0.0
C1737 C 0.58589 0.62561 0.01375 0.0
C1738 C 0.59031 0.60919 0.02224 0.0
C1739 C 0.59445 0.59406 0.01179 0.0
C1740 C 0.59239 0.60797 0.04191 0.0
C1741 C 0.58181 0.6424 0.02438 0.0
C1742 C 0.60922 0.60477 0.04917 0.0
C1743 C 0.61181 0.60526 0.06769 0.0
C1744 C 0.59757 0.60894 0.0793 0.0
C1745 C 0.58055 0.61138 0.07201 0.0
C1746 C 0.57798 0.61086 0.05344 0.0
H1747 H 0.58175 0.65462 0.01582 0.0
H1748 H 0.56855 0.64119 0.03063 0.0
H1749 H 0.59163 0.6442 0.0353 0.0
H1750 H 0.62049 0.60247 0.04045 0.0
H1751 H 0.62508 0.60323 0.07284 0.0
H1752 H 0.84923 0.13394 0.43786 0.0
H1753 H 0.8522 0.12636 0.46961 0.0
H1754 H 0.89661 0.09172 0.45739 0.0
H1755 H 0.89396 0.09947 0.42558 0.0
H1756 H 0.85104 0.09315 0.48707 0.0
H1757 H 0.91636 0.12602 0.4953 0.0
H1758 H 0.90259 0.12964 0.47583 0.0
H1759 H 0.9152 0.10921 0.47805 0.0
C1760 C 0.85962 0.12469 0.44189 0.0
C1761 C 0.87146 0.11743 0.42923 0.0
C1762 C 0.86127 0.12034 0.46003 0.0
C1763 C 0.87476 0.10867 0.46583 0.0
C1764 C 0.88631 0.101 0.4532 0.0
H1765 H 0.87614 0.07376 0.57904 0.0
H1766 H 0.87717 0.07237 0.54616 0.0
C1767 C 0.88473 0.10541 0.43503 0.0
C1768 C 0.87685 0.10497 0.48521 0.0
H1769 H 0.90409 0.11247 0.52089 0.0
C1770 C 0.8627 0.09718 0.49448 0.0
C1771 C 0.89206 0.11037 0.49476 0.0
C1772 C 0.90739 0.1194 0.48556 0.0
C1773 C 0.86312 0.09514 0.51319 0.0
C1774 C 0.87823 0.10078 0.52277 0.0
C1775 C 0.8926 0.10804 0.51343 0.0
C1776 C 0.8786 0.10115 0.54259 0.0
C1777 C 0.84708 0.08779 0.52264 0.0
C1778 C 0.87955 0.11773 0.55139 0.0
C1779 C 0.87907 0.11858 0.57006 0.0
C1780 C 0.87766 0.10282 0.58034 0.0
C1781 C 0.87713 0.08614 0.5715 0.0
C1782 C 0.87764 0.08532 0.55274 0.0
H1783 H 0.83541 0.08707 0.51362 0.0
H1784 H 0.85008 0.07404 0.52757 0.0
H1785 H 0.84356 0.09624 0.53442 0.0
H1786 H 0.88031 0.1301 0.54378 0.0
H1787 H 0.87955 0.13165 0.5764 0.0
H1788 H 0.37616 0.38467 0.93364 0.0
H1789 H 0.38093 0.39172 0.96522 0.0
H1790 H 0.43623 0.37806 0.95984 0.0
H1791 H 0.43159 0.37077 0.92815 0.0
H1792 H 0.41946 0.36143 0.98868 0.0
H1793 H 0.40552 0.43453 0.98865 0.0
H1794 H 0.3885 0.42177 0.97791 0.0
H1795 H 0.41037 0.42211 0.96838 0.0
C1796 C 0.38939 0.38328 0.93909 0.0
C1797 C 0.4035 0.37712 0.92837 0.0
C1798 C 0.39211 0.38748 0.95711 0.0
C1799 C 0.40899 0.38572 0.96474 0.0
C1800 C 0.42314 0.37967 0.95411 0.0
H1801 H 0.43265 0.3886 0.08031 0.0
H1802 H 0.43723 0.3891 0.04778 0.0
C1803 C 0.42045 0.37549 0.93603 0.0
C1804 C 0.41141 0.38884 0.98416 0.0
H1805 H 0.40396 0.41965 0.01725 0.0
C1806 C 0.41642 0.37423 0.99495 0.0
C1807 C 0.40743 0.40558 0.99221 0.0
C1808 C 0.40282 0.42194 0.98117 0.0
C1809 C 0.41653 0.37562 0.01371 0.0
C1810 C 0.41181 0.39216 0.0218 0.0
C1811 C 0.40755 0.40699 0.01098 0.0
C1812 C 0.40965 0.39382 0.04143 0.0
C1813 C 0.42074 0.35912 0.02474 0.0
C1814 C 0.39276 0.39702 0.04857 0.0
C1815 C 0.3901 0.39684 0.06708 0.0
C1816 C 0.40432 0.39348 0.07881 0.0
C1817 C 0.4214 0.39108 0.07163 0.0
C1818 C 0.42404 0.3913 0.05307 0.0
H1819 H 0.42091 0.3467 0.01647 0.0
H1820 H 0.43397 0.36059 0.03097 0.0
H1821 H 0.41091 0.35748 0.03569 0.0
H1822 H 0.3815 0.39904 0.03977 0.0
H1823 H 0.3768 0.39883 0.07215 0.0
H1824 H 0.56529 0.14051 0.13209 0.0
H1825 H 0.5334 0.13609 0.12968 0.0
H1826 H 0.54218 0.09202 0.09312 0.0
H1827 H 0.57415 0.09643 0.09528 0.0
H1828 H 0.516 0.11645 0.08173 0.0
H1829 H 0.50515 0.09489 0.15209 0.0
H1830 H 0.51675 0.11573 0.1502 0.0
H1831 H 0.52682 0.09539 0.14192 0.0
C1832 C 0.56047 0.12984 0.12356 0.0
C1833 C 0.57225 0.11876 0.11394 0.0
C1834 C 0.54225 0.12728 0.12229 0.0
C1835 C 0.53549 0.11355 0.11146 0.0
C1836 C 0.54718 0.10261 0.10164 0.0
H1837 H 0.4242 0.08346 0.11695 0.0
H1838 H 0.45652 0.08191 0.1156 0.0
C1839 C 0.56542 0.10516 0.10291 0.0
C1840 C 0.51619 0.11092 0.11011 0.0
H1841 H 0.47939 0.1029 0.13525 0.0
C1842 C 0.50798 0.11332 0.09338 0.0
C1843 C 0.50585 0.10653 0.12527 0.0
C1844 C 0.51409 0.1028 0.14336 0.0
C1845 C 0.48956 0.11216 0.09156 0.0
C1846 C 0.47914 0.10877 0.10693 0.0
C1847 C 0.48742 0.10566 0.12351 0.0
C1848 C 0.45959 0.10923 0.10635 0.0
C1849 C 0.48142 0.11463 0.07323 0.0
C1850 C 0.45066 0.12511 0.1016 0.0
C1851 C 0.43223 0.12605 0.10235 0.0
C1852 C 0.4224 0.11115 0.10801 0.0
C1853 C 0.43138 0.09517 0.11253 0.0
C1854 C 0.44983 0.09425 0.11177 0.0
H1855 H 0.49113 0.11173 0.06239 0.0
H1856 H 0.4698 0.1058 0.07143 0.0
H1857 H 0.47693 0.12877 0.07172 0.0
H1858 H 0.45797 0.13695 0.09776 0.0
H1859 H 0.42574 0.13859 0.09884 0.0
H1860 H 0.38352 0.92689 0.57453 0.0
H1861 H 0.38478 0.95946 0.57008 0.0
H1862 H 0.39465 0.96674 0.62661 0.0
H1863 H 0.3936 0.93439 0.63119 0.0
H1864 H 0.3626 0.98486 0.58648 0.0
H1865 H 0.4327 0.99762 0.60325 0.0
H1866 H 0.42463 0.97551 0.59789 0.0
H1867 H 0.42168 0.98461 0.62008 0.0
C1868 C 0.38617 0.93542 0.58597 0.0
C1869 C 0.38848 0.92804 0.60321 0.0
C1870 C 0.38688 0.95399 0.5834 0.0
C1871 C 0.39009 0.96544 0.59797 0.0
C1872 C 0.39257 0.9581 0.61512 0.0
H1873 H 0.38334 0.07343 0.63146 0.0
H1874 H 0.38718 0.04121 0.6269 0.0
C1875 C 0.39183 0.93959 0.61772 0.0
C1876 C 0.3896 0.98514 0.59568 0.0
H1877 H 0.41293 0.02307 0.60472 0.0
C1878 C 0.37369 0.99325 0.59012 0.0
C1879 C 0.40412 0.99599 0.60042 0.0
C1880 C 0.4218 0.98799 0.60557 0.0
C1881 C 0.37158 0.01198 0.5902 0.0
C1882 C 0.38585 0.02278 0.59577 0.0
C1883 C 0.402 0.0147 0.60055 0.0
C1884 C 0.38385 0.04239 0.59809 0.0
C1885 C 0.35386 0.02005 0.58527 0.0
C1886 C 0.38086 0.0537 0.58333 0.0
C1887 C 0.37862 0.07218 0.58588 0.0
C1888 C 0.37938 0.0796 0.60323 0.0
C1889 C 0.3826 0.06818 0.61793 0.0
C1890 C 0.38486 0.04976 0.61536 0.0
H1891 H 0.34341 0.00972 0.58416 0.0
H1892 H 0.34968 0.03017 0.5954 0.0
H1893 H 0.35495 0.02696 0.57213 0.0
H1894 H 0.38028 0.04824 0.56987 0.0
H1895 H 0.37624 0.08062 0.57427 0.0
H1896 H 0.43689 0.85425 0.11723 0.0
H1897 H 0.46872 0.85863 0.11351 0.0
H1898 H 0.4592 0.91284 0.09548 0.0
H1899 H 0.42729 0.90863 0.09906 0.0
H1900 H 0.48701 0.87249 0.07877 0.0
H1901 H 0.49513 0.91394 0.14051 0.0
H1902 H 0.47707 0.89843 0.13798 0.0
H1903 H 0.47704 0.91901 0.12553 0.0
C1904 C 0.44154 0.86711 0.11245 0.0
C1905 C 0.42958 0.88112 0.1085 0.0
C1906 C 0.4597 0.86955 0.1103 0.0
C1907 C 0.46619 0.88606 0.10432 0.0
C1908 C 0.45435 0.90004 0.1002 0.0
H1909 H 0.57676 0.91952 0.10254 0.0
H1910 H 0.54447 0.91975 0.09977 0.0
C1911 C 0.43616 0.89758 0.10223 0.0
C1912 C 0.48542 0.88866 0.10266 0.0
H1913 H 0.52076 0.9072 0.12392 0.0
C1914 C 0.49443 0.88017 0.08854 0.0
C1915 C 0.4949 0.89884 0.11534 0.0
C1916 C 0.48566 0.90807 0.13079 0.0
C1917 C 0.51287 0.88137 0.08692 0.0
C1918 C 0.52248 0.89092 0.10007 0.0
C1919 C 0.51336 0.89987 0.11388 0.0
C1920 C 0.54206 0.89083 0.10046 0.0
C1921 C 0.52183 0.87244 0.07113 0.0
C1922 C 0.55136 0.87451 0.10185 0.0
C1923 C 0.56974 0.87433 0.10334 0.0
C1924 C 0.57919 0.8905 0.10372 0.0
C1925 C 0.56986 0.90685 0.10227 0.0
C1926 C 0.55144 0.907 0.10068 0.0
H1927 H 0.51263 0.87111 0.05958 0.0
H1928 H 0.5336 0.88006 0.06671 0.0
H1929 H 0.52619 0.85873 0.07506 0.0
H1930 H 0.54436 0.86189 0.1022 0.0
H1931 H 0.5765 0.8615 0.10456 0.0
H1932 H 0.61981 0.07609 0.57297 0.0
H1933 H 0.61828 0.04365 0.5678 0.0
H1934 H 0.60716 0.0353 0.62394 0.0
H1935 H 0.60851 0.06753 0.62923 0.0
H1936 H 0.63979 0.01753 0.58422 0.0
H1937 H 0.56913 0.00552 0.59895 0.0
H1938 H 0.57765 0.02759 0.59415 0.0
H1939 H 0.57987 0.01813 0.61628 0.0
C1940 C 0.61684 0.06736 0.58417 0.0
C1941 C 0.61426 0.0744 0.60152 0.0
C1942 C 0.61597 0.04885 0.58118 0.0
C1943 C 0.61232 0.03715 0.59543 0.0
C1944 C 0.60959 0.04415 0.61269 0.0
H1945 H 0.61764 0.92984 0.62919 0.0
H1946 H 0.61389 0.96195 0.62397 0.0
C1947 C 0.6105 0.06259 0.6157 0.0
C1948 C 0.61258 0.01749 0.59273 0.0
H1949 H 0.58858 0.9798 0.60084 0.0
C1950 C 0.62851 0.00924 0.58747 0.0
C1951 C 0.5978 0.00679 0.59694 0.0
C1952 C 0.58009 0.01497 0.60172 0.0
C1953 C 0.6304 0.99048 0.58745 0.0
C1954 C 0.61589 0.97982 0.5926 0.0
C1955 C 0.5997 0.98806 0.59698 0.0
C1956 C 0.61772 0.96024 0.59525 0.0
C1957 C 0.64815 0.98223 0.58292 0.0
C1958 C 0.62096 0.94866 0.58075 0.0
C1959 C 0.62315 0.93022 0.58368 0.0
C1960 C 0.62208 0.92313 0.60116 0.0
C1961 C 0.61859 0.93483 0.61557 0.0
C1962 C 0.61639 0.95319 0.61262 0.0
H1963 H 0.65869 0.99247 0.58181 0.0
H1964 H 0.65209 0.97227 0.5933 0.0
H1965 H 0.64722 0.97508 0.56989 0.0
H1966 H 0.62182 0.95388 0.56721 0.0
H1967 H 0.62575 0.92156 0.57229 0.0
H1968 H 0.43306 0.85692 0.88927 0.0
H1969 H 0.4653 0.85884 0.8888 0.0
H1970 H 0.46193 0.91538 0.90077 0.0
H1971 H 0.42956 0.91367 0.90121 0.0
H1972 H 0.48514 0.88503 0.8651 0.0
H1973 H 0.49778 0.8914 0.93852 0.0
H1974 H 0.47792 0.88125 0.92982 0.0
H1975 H 0.48059 0.90511 0.92866 0.0
C1976 C 0.43914 0.86976 0.89192 0.0
C1977 C 0.42875 0.88516 0.89526 0.0
C1978 C 0.45755 0.87081 0.89162 0.0
C1979 C 0.46589 0.88721 0.89485 0.0
C1980 C 0.45565 0.90258 0.8984 0.0
H1981 H 0.57851 0.91116 0.90027 0.0
H1982 H 0.5462 0.91302 0.90185 0.0
C1983 C 0.43719 0.90158 0.89858 0.0
C1984 C 0.48534 0.88824 0.89379 0.0
H1985 H 0.52257 0.89149 0.91938 0.0
C1986 C 0.49337 0.8865 0.87693 0.0
C1987 C 0.49589 0.89033 0.90927 0.0
C1988 C 0.48772 0.89206 0.92766 0.0
C1989 C 0.51182 0.88668 0.87511 0.0
C1990 C 0.52246 0.88815 0.89066 0.0
C1991 C 0.51438 0.89028 0.9075 0.0
C1992 C 0.54199 0.887 0.88975 0.0
C1993 C 0.51971 0.88549 0.85653 0.0
C1994 C 0.5503 0.87163 0.88269 0.0
C1995 C 0.56871 0.87057 0.88166 0.0
C1996 C 0.57917 0.88478 0.88789 0.0
C1997 C 0.57082 0.90001 0.89531 0.0
C1998 C 0.55237 0.9011 0.89623 0.0
H1999 H 0.51012 0.88996 0.84611 0.0
H2000 H 0.5318 0.89376 0.85542 0.0
H2001 H 0.52335 0.87132 0.85364 0.0
H2002 H 0.54254 0.8604 0.87805 0.0
H2003 H 0.57474 0.85857 0.87606 0.0
H2004 H 0.59213 0.92559 0.35017 0.0
H2005 H 0.59391 0.95834 0.35045 0.0
H2006 H 0.62744 0.95587 0.39725 0.0
H2007 H 0.62615 0.9231 0.39677 0.0
H2008 H 0.58527 0.98406 0.37513 0.0
H2009 H 0.65753 0.98363 0.36202 0.0
H2010 H 0.64426 0.96372 0.36019 0.0
H2011 H 0.65143 0.9715 0.38184 0.0
C2012 C 0.59979 0.93202 0.3606 0.0
C2013 C 0.60919 0.92178 0.37331 0.0
C2014 C 0.60078 0.95072 0.36074 0.0
C2015 C 0.61112 0.95947 0.37363 0.0
C2016 C 0.61977 0.94933 0.38691 0.0
H2017 H 0.61046 0.07498 0.39244 0.0
H2018 H 0.60639 0.04254 0.39488 0.0
C2019 C 0.61894 0.93062 0.38667 0.0
C2020 C 0.61329 0.97917 0.37281 0.0
H2021 H 0.64427 0.01186 0.3683 0.0
C2022 C 0.59815 0.99017 0.37362 0.0
C2023 C 0.6301 0.98704 0.37054 0.0
C2024 C 0.64674 0.97588 0.36841 0.0
C2025 C 0.59939 0.00891 0.37236 0.0
C2026 C 0.61626 0.0168 0.37066 0.0
C2027 C 0.63137 0.00577 0.36976 0.0
C2028 C 0.61858 0.03645 0.36928 0.0
C2029 C 0.58259 0.02001 0.37236 0.0
C2030 C 0.62726 0.04371 0.35433 0.0
C2031 C 0.62987 0.06218 0.35304 0.0
C2032 C 0.62378 0.07373 0.36666 0.0
C2033 C 0.61516 0.06642 0.38166 0.0
C2034 C 0.61272 0.04791 0.38302 0.0
H2035 H 0.5709 0.01185 0.36871 0.0
H2036 H 0.58033 0.02552 0.38602 0.0
H2037 H 0.58352 0.03143 0.36284 0.0
H2038 H 0.63196 0.03507 0.34361 0.0
H2039 H 0.63653 0.0674 0.3413 0.0
H2040 H 0.43155 0.12248 0.85831 0.0
H2041 H 0.46378 0.12192 0.86018 0.0
H2042 H 0.46071 0.10053 0.9139 0.0
H2043 H 0.42841 0.10053 0.91193 0.0
H2044 H 0.48492 0.1396 0.88265 0.0
H2045 H 0.49563 0.0663 0.89096 0.0
H2046 H 0.47456 0.07581 0.88442 0.0
H2047 H 0.48123 0.07591 0.9076 0.0
C2048 C 0.43772 0.11755 0.87049 0.0
C2049 C 0.42745 0.11148 0.88495 0.0
C2050 C 0.45614 0.11724 0.87154 0.0
C2051 C 0.46465 0.11094 0.88707 0.0
C2052 C 0.45444 0.10503 0.90161 0.0
H2053 H 0.57489 0.1353 0.91002 0.0
H2054 H 0.54265 0.13326 0.91096 0.0
C2055 C 0.43598 0.10515 0.90051 0.0
C2056 C 0.4842 0.11123 0.88817 0.0
H2057 H 0.52075 0.08484 0.89485 0.0
C2058 C 0.49276 0.12762 0.88529 0.0
C2059 C 0.49439 0.09554 0.89141 0.0
C2060 C 0.48602 0.07736 0.8936 0.0
C2061 C 0.51125 0.12877 0.88552 0.0
C2062 C 0.52143 0.1132 0.8893 0.0
C2063 C 0.51289 0.09679 0.89216 0.0
C2064 C 0.541 0.11355 0.88968 0.0
C2065 C 0.51966 0.14657 0.8812 0.0
C2066 C 0.5508 0.10255 0.87798 0.0
C2067 C 0.56923 0.10346 0.87762 0.0
C2068 C 0.57817 0.11547 0.88891 0.0
C2069 C 0.56835 0.12609 0.901 0.0
C2070 C 0.54993 0.12501 0.90148 0.0
H2071 H 0.51042 0.15561 0.87383 0.0
H2072 H 0.52338 0.15336 0.89389 0.0
H2073 H 0.53179 0.14469 0.87298 0.0
H2074 H 0.54415 0.09354 0.86883 0.0
H2075 H 0.57643 0.09508 0.86819 0.0
H2076 H 0.40137 0.92498 0.38782 0.0
H2077 H 0.40643 0.95725 0.39036 0.0
H2078 H 0.35849 0.96786 0.36068 0.0
H2079 H 0.35343 0.93563 0.35783 0.0
H2080 H 0.38759 0.98684 0.34825 0.0
H2081 H 0.38001 0.99357 0.42215 0.0
H2082 H 0.39576 0.97682 0.41505 0.0
H2083 H 0.37272 0.97403 0.40998 0.0
C2084 C 0.39183 0.93417 0.38193 0.0
C2085 C 0.37698 0.92776 0.37264 0.0
C2086 C 0.39471 0.9526 0.38348 0.0
C2087 C 0.38272 0.96489 0.3759 0.0
C2088 C 0.36786 0.95855 0.36667 0.0
H2089 H 0.36811 0.07802 0.39024 0.0
H2090 H 0.36701 0.0453 0.39078 0.0
C2091 C 0.36499 0.94014 0.36508 0.0
C2092 C 0.38591 0.9844 0.37699 0.0
H2093 H 0.3894 0.01936 0.40633 0.0
C2094 C 0.38804 0.99397 0.36094 0.0
C2095 C 0.38635 0.9936 0.39358 0.0
C2096 C 0.38344 0.98405 0.41119 0.0
C2097 C 0.39047 0.01259 0.361 0.0
C2098 C 0.39112 0.02178 0.37759 0.0
C2099 C 0.38909 0.0122 0.39366 0.0
C2100 C 0.39267 0.04151 0.37844 0.0
C2101 C 0.39177 0.02235 0.34329 0.0
C2102 C 0.40769 0.05017 0.37173 0.0
C2103 C 0.40835 0.06891 0.37132 0.0
C2104 C 0.39402 0.07924 0.37772 0.0
C2105 C 0.37933 0.07046 0.38511 0.0
C2106 C 0.37868 0.05177 0.38548 0.0
H2107 H 0.38722 0.01394 0.3319 0.0
H2108 H 0.38378 0.03494 0.34353 0.0
H2109 H 0.40575 0.02597 0.34079 0.0
H2110 H 0.41876 0.04243 0.36654 0.0
H2111 H 0.41991 0.07527 0.36567 0.0
H2112 H 0.05864 0.43267 0.11155 0.0
H2113 H 0.05412 0.46526 0.1104 0.0
H2114 H 0.10851 0.472 0.09453 0.0
H2115 H 0.11312 0.43963 0.09545 0.0
H2116 H 0.07246 0.48887 0.13185 0.0
H2117 H 0.08265 0.50593 0.06045 0.0
H2118 H 0.07784 0.48339 0.06786 0.0
H2119 H 0.10008 0.49179 0.06888 0.0
C2120 C 0.06954 0.44108 0.10747 0.0
C2121 C 0.08627 0.43357 0.10366 0.0
C2122 C 0.06692 0.45967 0.10681 0.0
C2123 C 0.0809 0.471 0.10213 0.0
C2124 C 0.09742 0.46348 0.09776 0.0
H2125 H 0.12381 0.57247 0.11413 0.0
H2126 H 0.11465 0.54198 0.10715 0.0
C2127 C 0.10008 0.44496 0.09846 0.0
C2128 C 0.07907 0.4907 0.1038 0.0
H2129 H 0.08843 0.52968 0.0819 0.0
C2130 C 0.07548 0.49787 0.12084 0.0
C2131 C 0.08298 0.50235 0.08939 0.0
C2132 C 0.08592 0.49547 0.07058 0.0
C2133 C 0.07708 0.51631 0.1242 0.0
C2134 C 0.08216 0.5278 0.11004 0.0
C2135 C 0.08463 0.52077 0.09274 0.0
C2136 C 0.08705 0.54664 0.11339 0.0
C2137 C 0.07452 0.52319 0.14308 0.0
C2138 C 0.07447 0.55939 0.11903 0.0
C2139 C 0.07967 0.5769 0.12312 0.0
C2140 C 0.09752 0.58187 0.12159 0.0
C2141 C 0.10997 0.56909 0.11556 0.0
C2142 C 0.10476 0.55167 0.11148 0.0
H2143 H 0.073 0.51213 0.15295 0.0
H2144 H 0.08591 0.53155 0.14718 0.0
H2145 H 0.06244 0.53175 0.14362 0.0
H2146 H 0.06069 0.55577 0.12039 0.0
H2147 H 0.06974 0.58646 0.12762 0.0
H2148 H 0.06803 0.58775 0.89154 0.0
H2149 H 0.06031 0.5559 0.89276 0.0
H2150 H 0.11362 0.54272 0.90899 0.0
H2151 H 0.1214 0.57433 0.90803 0.0
H2152 H 0.07611 0.52997 0.87169 0.0
H2153 H 0.08451 0.51252 0.94326 0.0
H2154 H 0.0821 0.53543 0.93562 0.0
H2155 H 0.10331 0.52427 0.93471 0.0
C2156 C 0.07801 0.5781 0.8957 0.0
C2157 C 0.09535 0.58357 0.89963 0.0
C2158 C 0.07356 0.55993 0.89639 0.0
C2159 C 0.08631 0.54701 0.90124 0.0
C2160 C 0.10346 0.55251 0.90566 0.0
H2161 H 0.11761 0.44008 0.88992 0.0
H2162 H 0.11228 0.47172 0.89661 0.0
C2163 C 0.10792 0.5706 0.90493 0.0
C2164 C 0.08252 0.52763 0.89975 0.0
H2165 H 0.08776 0.48797 0.92208 0.0
C2166 C 0.0782 0.52077 0.88279 0.0
C2167 C 0.08523 0.51572 0.91429 0.0
C2168 C 0.08886 0.52239 0.93303 0.0
C2169 C 0.07783 0.50222 0.87965 0.0
C2170 C 0.08167 0.49033 0.89394 0.0
C2171 C 0.08493 0.49718 0.91114 0.0
C2172 C 0.08426 0.47091 0.89084 0.0
C2173 C 0.07448 0.49549 0.86085 0.0
C2174 C 0.07018 0.45998 0.88559 0.0
C2175 C 0.07317 0.44184 0.88169 0.0
C2176 C 0.09031 0.43441 0.883 0.0
C2177 C 0.10427 0.44538 0.88867 0.0
C2178 C 0.10125 0.46345 0.89258 0.0
H2179 H 0.07418 0.50655 0.85085 0.0
H2180 H 0.08485 0.48562 0.85686 0.0
H2181 H 0.06154 0.48858 0.86044 0.0
H2182 H 0.05693 0.46551 0.88437 0.0
H2183 H 0.06211 0.43373 0.87746 0.0
H2184 H 0.08874 0.58975 0.39848 0.0
H2185 H 0.05671 0.58539 0.39933 0.0
H2186 H 0.04875 0.63695 0.37406 0.0
H2187 H 0.0807 0.64119 0.3727 0.0
H2188 H 0.03102 0.60463 0.41576 0.0
H2189 H 0.01958 0.60478 0.34239 0.0
H2190 H 0.04142 0.60302 0.35202 0.0
H2191 H 0.03072 0.6246 0.34977 0.0
C2192 C 0.08017 0.60012 0.39303 0.0
C2193 C 0.08724 0.61576 0.38539 0.0
C2194 C 0.06188 0.59761 0.39353 0.0
C2195 C 0.05039 0.61069 0.38644 0.0
C2196 C 0.05741 0.62646 0.37915 0.0
H2197 H 0.94012 0.62913 0.40862 0.0
H2198 H 0.9724 0.62779 0.40891 0.0
C2199 C 0.07567 0.62892 0.37849 0.0
C2200 C 0.03101 0.60808 0.38705 0.0
H2201 H 0.99398 0.60859 0.36093 0.0
C2202 C 0.02292 0.60531 0.40376 0.0
C2203 C 0.02051 0.60862 0.37134 0.0
C2204 C 0.02852 0.61022 0.35286 0.0
C2205 C 0.0045 0.6037 0.40527 0.0
C2206 C 0.99392 0.60538 0.38969 0.0
C2207 C 0.00208 0.60752 0.37291 0.0
C2208 C 0.97435 0.60542 0.39042 0.0
C2209 C 0.99662 0.60009 0.42351 0.0
C2210 C 0.96471 0.59354 0.37966 0.0
C2211 C 0.94627 0.59449 0.37921 0.0
C2212 C 0.93713 0.60733 0.38958 0.0
C2213 C 0.94678 0.619 0.4006 0.0
C2214 C 0.96524 0.61816 0.40089 0.0
H2215 H 0.00635 0.59341 0.43254 0.0
H2216 H 0.99271 0.61303 0.4298 0.0
H2217 H 0.98472 0.59153 0.4225 0.0
H2218 H 0.97149 0.58366 0.37142 0.0
H2219 H 0.93919 0.58529 0.37062 0.0
H2220 H 0.9085 0.57335 0.91411 0.0
H2221 H 0.91369 0.54168 0.92138 0.0
H2222 H 0.92812 0.53157 0.86614 0.0
H2223 H 0.92445 0.56349 0.85941 0.0
H2224 H 0.89617 0.51612 0.91145 0.0
H2225 H 0.96333 0.50001 0.88808 0.0
H2226 H 0.95563 0.52291 0.89004 0.0
H2227 H 0.95161 0.51018 0.86982 0.0
C2228 C 0.91332 0.56436 0.90374 0.0
C2229 C 0.91623 0.57067 0.88628 0.0
C2230 C 0.91624 0.54629 0.90784 0.0
C2231 C 0.92155 0.53413 0.89439 0.0
C2232 C 0.92472 0.54064 0.87697 0.0
H2233 H 0.88158 0.42951 0.88275 0.0
H2234 H 0.88773 0.46136 0.88587 0.0
C2235 C 0.92242 0.55885 0.87304 0.0
C2236 C 0.92142 0.51448 0.89793 0.0
H2237 H 0.94225 0.47514 0.88706 0.0
C2238 C 0.90652 0.50725 0.90648 0.0
C2239 C 0.93501 0.50272 0.89195 0.0
C2240 C 0.95236 0.50944 0.88468 0.0
C2241 C 0.90432 0.48869 0.90814 0.0
C2242 C 0.91685 0.47696 0.90015 0.0
C2243 C 0.93236 0.48411 0.89274 0.0
C2244 C 0.91345 0.45748 0.89819 0.0
C2245 C 0.88846 0.48196 0.91837 0.0
C2246 C 0.92626 0.44462 0.90315 0.0
C2247 C 0.92298 0.42631 0.9008 0.0
C2248 C 0.90676 0.42062 0.89369 0.0
C2249 C 0.89407 0.43351 0.8886 0.0
C2250 C 0.89751 0.45173 0.89053 0.0
H2251 H 0.88472 0.49143 0.92928 0.0
H2252 H 0.87699 0.48105 0.90913 0.0
H2253 H 0.891 0.46854 0.92438 0.0
H2254 H 0.93874 0.44873 0.90891 0.0
H2255 H 0.933 0.41661 0.90477 0.0
H2256 H 0.06403 0.40953 0.36119 0.0
H2257 H 0.03178 0.40937 0.3627 0.0
H2258 H 0.03433 0.39139 0.41767 0.0
H2259 H 0.06667 0.39129 0.41625 0.0
H2260 H 0.01242 0.37086 0.3964 0.0
H2261 H 0.99701 0.44324 0.38797 0.0
H2262 H 0.01158 0.43455 0.37097 0.0
H2263 H 0.01878 0.43507 0.39397 0.0
C2264 C 0.05776 0.40574 0.37369 0.0
C2265 C 0.06791 0.40039 0.3886 0.0
C2266 C 0.03932 0.40578 0.37455 0.0
C2267 C 0.0307 0.40061 0.39037 0.0
C2268 C 0.04077 0.39554 0.40538 0.0
H2269 H 0.91614 0.40656 0.40456 0.0
H2270 H 0.94807 0.41031 0.40816 0.0
C2271 C 0.05923 0.39549 0.40454 0.0
C2272 C 0.01121 0.3992 0.39074 0.0
H2273 H 0.97307 0.42291 0.38337 0.0
C2274 C 0.0038 0.38227 0.39374 0.0
C2275 C 1.00001 0.41415 0.38746 0.0
C2276 C 0.00722 0.43282 0.38509 0.0
C2277 C 0.98547 0.37975 0.39293 0.0
C2278 C 0.97434 0.39451 0.38872 0.0
C2279 C 0.98169 0.41158 0.38637 0.0
C2280 C 0.95506 0.3924 0.38638 0.0
C2281 C 0.97818 0.36131 0.39659 0.0
C2282 C 0.94848 0.38133 0.37275 0.0
C2283 C 0.93029 0.37914 0.37065 0.0
C2284 C 0.91835 0.38808 0.38211 0.0
C2285 C 0.92499 0.39944 0.39555 0.0
C2286 C 0.94321 0.40161 0.39764 0.0
H2287 H 0.98769 0.35287 0.4043 0.0
H2288 H 0.96556 0.36218 0.40417 0.0
H2289 H 0.97556 0.35448 0.38363 0.0
H2290 H 0.95744 0.3744 0.3637 0.0
H2291 H 0.9256 0.37039 0.36009 0.0
H2292 H 0.87337 0.42683 0.11277 0.0
H2293 H 0.87891 0.45866 0.10802 0.0
H2294 H 0.93409 0.4504 0.12043 0.0
H2295 H 0.92874 0.41835 0.12511 0.0
H2296 H 0.89291 0.48139 0.13521 0.0
H2297 H 0.93433 0.48069 0.07339 0.0
H2298 H 0.9206 0.46201 0.07973 0.0
H2299 H 0.94102 0.4659 0.0913 0.0
C2300 C 0.88674 0.43169 0.11435 0.0
C2301 C 0.90061 0.42005 0.11941 0.0
C2302 C 0.88987 0.44988 0.11159 0.0
C2303 C 0.90692 0.45679 0.11373 0.0
C2304 C 0.9209 0.44522 0.11844 0.0
H2305 H 0.93885 0.56929 0.11369 0.0
H2306 H 0.93967 0.53639 0.11401 0.0
C2307 C 0.91778 0.42696 0.12121 0.0
C2308 C 0.9096 0.47633 0.11231 0.0
H2309 H 0.92877 0.50894 0.08687 0.0
C2310 C 0.90079 0.48742 0.12468 0.0
C2311 C 0.92002 0.48406 0.09864 0.0
C2312 C 0.92948 0.47262 0.08489 0.0
C2313 C 0.90189 0.50612 0.12359 0.0
C2314 C 0.91183 0.51389 0.10958 0.0
C2315 C 0.9211 0.50284 0.0975 0.0
C2316 C 0.91207 0.53352 0.10706 0.0
C2317 C 0.89235 0.51744 0.1374 0.0
C2318 C 0.89643 0.54263 0.10244 0.0
C2319 C 0.89588 0.56133 0.10229 0.0
C2320 C 0.91101 0.57125 0.1067 0.0
C2321 C 0.92696 0.56204 0.11031 0.0
C2322 C 0.92747 0.54327 0.11048 0.0
H2323 H 0.88897 0.50956 0.14957 0.0
H2324 H 0.90051 0.52908 0.14148 0.0
H2325 H 0.87985 0.5227 0.13152 0.0
H2326 H 0.88448 0.53525 0.09954 0.0
H2327 H 0.88343 0.56798 0.09927 0.0
H2328 H 0.91663 0.40848 0.61686 0.0
H2329 H 0.94862 0.41243 0.61402 0.0
H2330 H 0.95746 0.35977 0.63646 0.0
H2331 H 0.92552 0.35566 0.63942 0.0
H2332 H 0.97427 0.40972 0.64362 0.0
H2333 H 0.9865 0.36108 0.58829 0.0
H2334 H 0.96489 0.37061 0.59285 0.0
H2335 H 0.97351 0.35287 0.60673 0.0
C2336 C 0.92537 0.39769 0.62111 0.0
C2337 C 0.91855 0.38174 0.62834 0.0
C2338 C 0.94361 0.4 0.61949 0.0
C2339 C 0.9553 0.38632 0.62487 0.0
C2340 C 0.94858 0.37037 0.63203 0.0
H2341 H 0.06536 0.38302 0.65123 0.0
H2342 H 0.03304 0.3831 0.65071 0.0
C2343 C 0.93034 0.36809 0.63378 0.0
C2344 C 0.97458 0.38891 0.62356 0.0
H2345 H 0.01178 0.37264 0.60312 0.0
C2346 C 0.98249 0.40173 0.63468 0.0
C2347 C 0.98515 0.37857 0.61174 0.0
C2348 C 0.97713 0.36509 0.59909 0.0
C2349 C 1.00088 0.40406 0.63473 0.0
C2350 C 0.0115 0.39323 0.6234 0.0
C2351 C 0.00354 0.38084 0.61184 0.0
C2352 C 0.03099 0.39404 0.62389 0.0
C2353 C 0.00884 0.41798 0.64693 0.0
C2354 C 0.04046 0.40006 0.60891 0.0
C2355 C 0.05894 0.40009 0.60916 0.0
C2356 C 0.06821 0.39385 0.62434 0.0
C2357 C 0.05862 0.3879 0.63934 0.0
C2358 C 0.04017 0.38801 0.63911 0.0
H2359 H 0.99877 0.42783 0.6517 0.0
H2360 H 0.01468 0.41121 0.65883 0.0
H2361 H 0.01956 0.42531 0.63995 0.0
H2362 H 0.03354 0.40467 0.59701 0.0
H2363 H 0.06596 0.4047 0.59738 0.0
H2364 H 0.07965 0.63783 0.60231 0.0
H2365 H 0.04749 0.6348 0.60287 0.0
H2366 H 0.05266 0.58757 0.63604 0.0
H2367 H 0.08481 0.59082 0.636 0.0
H2368 H 0.02562 0.60839 0.59199 0.0
H2369 H 0.01945 0.61832 0.66557 0.0
H2370 H 0.03974 0.62245 0.6536 0.0
H2371 H 0.03367 0.5999 0.65947 0.0
C2372 C 0.07395 0.62677 0.60969 0.0
C2373 C 0.08475 0.61468 0.61928 0.0
C2374 C 0.05557 0.62505 0.60999 0.0
C2375 C 0.04767 0.61117 0.61979 0.0
C2376 C 0.05846 0.59866 0.62879 0.0
H2377 H 0.93527 0.58529 0.60957 0.0
H2378 H 0.96762 0.58397 0.60851 0.0
C2379 C 0.07683 0.60048 0.62867 0.0
C2380 C 0.02815 0.61 0.62073 0.0
H2381 H 0.99338 0.61051 0.64995 0.0
C2382 C 0.01855 0.60884 0.60466 0.0
C2383 C 0.01896 0.61081 0.63728 0.0
C2384 C 0.02845 0.61311 0.65495 0.0
C2385 C 0.99999 0.60855 0.60465 0.0
C2386 C 0.99083 0.60897 0.62121 0.0
C2387 C 1.00044 0.61002 0.63729 0.0
C2388 C 0.97126 0.60932 0.62219 0.0
C2389 C 0.99039 0.60841 0.58688 0.0
C2390 C 0.9626 0.62367 0.63077 0.0
C2391 C 0.94417 0.62431 0.63166 0.0
C2392 C 0.93403 0.61063 0.6239 0.0
C2393 C 0.94272 0.59611 0.61553 0.0
C2394 C 0.9612 0.5954 0.6148 0.0
H2395 H 0.99905 0.61284 0.5757 0.0
H2396 H 0.98604 0.59454 0.5839 0.0
H2397 H 0.97851 0.61727 0.58727 0.0
H2398 H 0.97012 0.63452 0.63662 0.0
H2399 H 0.93789 0.63568 0.6382 0.0
H2400 H 0.93103 0.10134 0.37056 0.0
H2401 H 0.96295 0.09743 0.36707 0.0
H2402 H 0.95834 0.10864 0.3105 0.0
H2403 H 0.92636 0.11295 0.31391 0.0
H2404 H 0.98522 0.07578 0.34644 0.0
H2405 H 0.992 0.14754 0.32745 0.0
H2406 H 0.97174 0.1386 0.33639 0.0
H2407 H 0.97756 0.13481 0.31329 0.0
C2408 C 0.9367 0.10271 0.35729 0.0
C2409 C 0.92605 0.10768 0.34255 0.0
C2410 C 0.95502 0.10047 0.35533 0.0
C2411 C 0.96316 0.10315 0.33862 0.0
C2412 C 0.95245 0.10692 0.32363 0.0
H2413 H 0.07569 0.11761 0.31437 0.0
H2414 H 0.04414 0.11128 0.31102 0.0
C2415 C 0.9341 0.10922 0.32558 0.0
C2416 C 0.98286 0.10309 0.33724 0.0
H2417 H 0.01807 0.13015 0.32822 0.0
C2418 C 0.99241 0.08763 0.34235 0.0
C2419 C 0.9923 0.11857 0.33195 0.0
C2420 C 0.98294 0.13589 0.3271 0.0
C2421 C 0.01105 0.08726 0.34236 0.0
C2422 C 0.02046 0.10285 0.33741 0.0
C2423 C 0.01091 0.11816 0.33193 0.0
C2424 C 0.04011 0.1041 0.33886 0.0
C2425 C 0.02048 0.07012 0.34761 0.0
C2426 C 0.04853 0.10184 0.35552 0.0
C2427 C 0.06659 0.10539 0.35747 0.0
C2428 C 0.07669 0.11145 0.34282 0.0
C2429 C 0.06841 0.1129 0.32594 0.0
C2430 C 0.05031 0.10936 0.32401 0.0
H2431 H 0.012 0.05822 0.34541 0.0
H2432 H 0.03294 0.06831 0.3399 0.0
H2433 H 0.02382 0.07066 0.3621 0.0
H2434 H 0.04096 0.09815 0.36728 0.0
H2435 H 0.07245 0.10414 0.37067 0.0
H2436 H 0.42591 0.41007 0.84363 0.0
H2437 H 0.42747 0.44212 0.8366 0.0
H2438 H 0.37055 0.44525 0.83501 0.0
H2439 H 0.36882 0.41336 0.84243 0.0
H2440 H 0.41449 0.46634 0.81014 0.0
H2441 H 0.38351 0.47841 0.87668 0.0
H2442 H 0.39168 0.45663 0.8699 0.0
H2443 H 0.37058 0.46468 0.86198 0.0
C2444 C 0.4137 0.41744 0.84133 0.0
C2445 C 0.39722 0.40915 0.84387 0.0
C2446 C 0.41464 0.43581 0.83734 0.0
C2447 C 0.39913 0.4462 0.83574 0.0
C2448 C 0.38269 0.4376 0.83661 0.0
H2449 H 0.37632 0.55999 0.84072 0.0
H2450 H 0.37519 0.52797 0.834 0.0
C2451 C 0.38173 0.4193 0.84074 0.0
C2452 C 0.40007 0.46615 0.83506 0.0
H2453 H 0.38839 0.5038 0.85857 0.0
C2454 C 0.40877 0.47456 0.82069 0.0
C2455 C 0.3928 0.47689 0.84897 0.0
C2456 C 0.38427 0.46873 0.86535 0.0
C2457 C 0.41 0.49342 0.81969 0.0
C2458 C 0.40253 0.5041 0.8335 0.0
C2459 C 0.39395 0.49564 0.84787 0.0
C2460 C 0.40357 0.52406 0.83379 0.0
C2461 C 0.41904 0.50177 0.80374 0.0
C2462 C 0.41994 0.53275 0.83526 0.0
C2463 C 0.42064 0.5512 0.83902 0.0
C2464 C 0.40497 0.56123 0.8416 0.0
C2465 C 0.38865 0.5527 0.83891 0.0
C2466 C 0.38797 0.53435 0.83508 0.0
H2467 H 0.41997 0.49228 0.79227 0.0
H2468 H 0.41189 0.51408 0.79929 0.0
H2469 H 0.43266 0.50562 0.8076 0.0
H2470 H 0.43216 0.52509 0.83464 0.0
H2471 H 0.43343 0.55729 0.84115 0.0
H2472 H 0.07225 0.89862 0.37118 0.0
H2473 H 0.04036 0.90302 0.36791 0.0
H2474 H 0.04458 0.89281 0.31113 0.0
H2475 H 0.07653 0.88807 0.31429 0.0
H2476 H 0.01835 0.92552 0.34744 0.0
H2477 H 0.01043 0.85404 0.32784 0.0
H2478 H 0.03081 0.86255 0.33693 0.0
H2479 H 0.02511 0.8667 0.31387 0.0
C2480 C 0.0665 0.89757 0.35791 0.0
C2481 C 0.07703 0.89278 0.34303 0.0
C2482 C 0.0482 0.9001 0.35608 0.0
C2483 C 0.03996 0.89785 0.33935 0.0
C2484 C 0.05056 0.89422 0.32425 0.0
H2485 H 0.92717 0.88492 0.31556 0.0
H2486 H 0.95878 0.89083 0.31208 0.0
C2487 C 0.06889 0.89166 0.32607 0.0
C2488 C 0.02026 0.89824 0.33805 0.0
H2489 H 0.98462 0.87179 0.32898 0.0
C2490 C 0.01097 0.91381 0.34329 0.0
C2491 C 0.01057 0.88295 0.33268 0.0
C2492 C 0.01968 0.86554 0.32765 0.0
C2493 C 0.99233 0.91448 0.34335 0.0
C2494 C 0.98267 0.89907 0.33835 0.0
C2495 C 0.99197 0.88365 0.33274 0.0
C2496 C 0.96299 0.89811 0.33985 0.0
C2497 C 0.98319 0.93175 0.3487 0.0
C2498 C 0.95465 0.90059 0.35653 0.0
C2499 C 0.93654 0.8973 0.35855 0.0
C2500 C 0.92632 0.89128 0.34397 0.0
C2501 C 0.93454 0.88961 0.32708 0.0
C2502 C 0.95268 0.89291 0.32507 0.0
H2503 H 0.99183 0.94352 0.3464 0.0
H2504 H 0.97068 0.93375 0.34112 0.0
H2505 H 0.98 0.93127 0.36322 0.0
H2506 H 0.9623 0.90423 0.36825 0.0
H2507 H 0.93074 0.89872 0.37176 0.0
H2508 H 0.6276 0.44274 0.84778 0.0
H2509 H 0.62673 0.47461 0.84035 0.0
H2510 H 0.57085 0.47123 0.82955 0.0
H2511 H 0.57149 0.43926 0.83737 0.0
H2512 H 0.61643 0.49587 0.81133 0.0
H2513 H 0.57284 0.50758 0.87045 0.0
H2514 H 0.58381 0.48636 0.86649 0.0
H2515 H 0.56442 0.49241 0.85385 0.0
C2516 C 0.61514 0.44863 0.84351 0.0
C2517 C 0.59955 0.43842 0.84344 0.0
C2518 C 0.61468 0.46692 0.83924 0.0
C2519 C 0.59865 0.47545 0.83481 0.0
C2520 C 0.58331 0.46503 0.83333 0.0
H2521 H 0.57865 0.59153 0.83933 0.0
H2522 H 0.57533 0.55998 0.83093 0.0
C2523 C 0.58373 0.44669 0.83765 0.0
C2524 C 0.59795 0.4954 0.83332 0.0
H2525 H 0.58195 0.5329 0.85444 0.0
C2526 C 0.60874 0.50398 0.82062 0.0
C2527 C 0.58796 0.50603 0.84548 0.0
C2528 C 0.5767 0.4977 0.85995 0.0
C2529 C 0.61001 0.52282 0.81996 0.0
C2530 C 0.60046 0.53339 0.83251 0.0
C2531 C 0.58921 0.52484 0.84477 0.0
C2532 C 0.60299 0.55314 0.83434 0.0
C2533 C 0.62165 0.53121 0.80589 0.0
C2534 C 0.61972 0.55998 0.8386 0.0
C2535 C 0.62168 0.57803 0.84336 0.0
C2536 C 0.60692 0.58967 0.84413 0.0
C2537 C 0.59033 0.58303 0.83884 0.0
C2538 C 0.58839 0.56494 0.83409 0.0
H2539 H 0.62312 0.52232 0.794 0.0
H2540 H 0.61627 0.54439 0.80144 0.0
H2541 H 0.63502 0.53332 0.81161 0.0
H2542 H 0.63115 0.55114 0.83927 0.0
H2543 H 0.63465 0.5826 0.84742 0.0
H2544 H 0.92767 0.90777 0.67912 0.0
H2545 H 0.95927 0.90968 0.68649 0.0
H2546 H 0.97134 0.87303 0.64319 0.0
H2547 H 0.94001 0.86987 0.63705 0.0
H2548 H 0.99214 0.86553 0.66718 0.0
H2549 H 0.99406 0.93978 0.66313 0.0
H2550 H 0.98018 0.93201 0.68094 0.0
H2551 H 0.9744 0.92741 0.65791 0.0
C2552 C 0.93712 0.89992 0.67144 0.0
C2553 C 0.93132 0.88861 0.65757 0.0
C2554 C 0.95525 0.90123 0.67545 0.0
C2555 C 0.968 0.89194 0.66509 0.0
C2556 C 0.96201 0.88038 0.6515 0.0
H2557 H 0.07495 0.92167 0.64237 0.0
H2558 H 0.04319 0.91989 0.64752 0.0
C2559 C 0.94398 0.87856 0.64797 0.0
C2560 C 0.98754 0.8941 0.66792 0.0
H2561 H 0.02064 0.92502 0.67076 0.0
C2562 C 0.99832 0.8786 0.66787 0.0
C2563 C 0.99585 0.91109 0.6688 0.0
C2564 C 0.98555 0.92851 0.66752 0.0
C2565 C 0.01691 0.87953 0.66764 0.0
C2566 C 0.02523 0.8965 0.66889 0.0
C2567 C 0.01444 0.91197 0.66987 0.0
C2568 C 0.04492 0.89869 0.66742 0.0
C2569 C 0.0272 0.86228 0.66483 0.0
C2570 C 0.05686 0.88792 0.6773 0.0
C2571 C 0.0751 0.88846 0.67379 0.0
C2572 C 0.08188 0.90052 0.66109 0.0
C2573 C 0.07014 0.91237 0.65239 0.0
C2574 C 0.0519 0.91131 0.65533 0.0
H2575 H 0.01887 0.85169 0.65873 0.0
H2576 H 0.03879 0.86435 0.65596 0.0
H2577 H 0.03188 0.85714 0.678 0.0
H2578 H 0.05209 0.87867 0.68734 0.0
H2579 H 0.08387 0.87923 0.68075 0.0
H2580 H 0.57093 0.42222 0.16023 0.0
H2581 H 0.57203 0.45427 0.16756 0.0
H2582 H 0.62897 0.45149 0.16904 0.0
H2583 H 0.62804 0.41963 0.16135 0.0
H2584 H 0.5875 0.47699 0.19432 0.0
H2585 H 0.61832 0.48589 0.1273 0.0
H2586 H 0.6083 0.4651 0.13413 0.0
H2587 H 0.63014 0.47068 0.14174 0.0
C2588 C 0.58368 0.4283 0.16261 0.0
C2589 C 0.59941 0.41839 0.15994 0.0
C2590 C 0.58428 0.44666 0.16676 0.0
C2591 C 0.60059 0.45538 0.1684 0.0
C2592 C 0.61624 0.44513 0.16743 0.0
H2593 H 0.63314 0.56629 0.16306 0.0
H2594 H 0.63173 0.53425 0.1697 0.0
C2595 C 0.61567 0.42687 0.16313 0.0
C2596 C 0.60137 0.47534 0.16913 0.0
H2597 H 0.61607 0.51161 0.14557 0.0
C2598 C 0.59375 0.48459 0.18369 0.0
C2599 C 0.60936 0.48528 0.15515 0.0
C2600 C 0.61685 0.47629 0.1386 0.0
C2601 C 0.5943 0.50349 0.18481 0.0
C2602 C 0.60248 0.51335 0.1709 0.0
C2603 C 0.60998 0.50406 0.15634 0.0
C2604 C 0.60316 0.53334 0.17065 0.0
C2605 C 0.58638 0.51271 0.20097 0.0
C2606 C 0.58758 0.54371 0.16961 0.0
C2607 C 0.58834 0.56215 0.16589 0.0
C2608 C 0.60471 0.57053 0.16293 0.0
C2609 C 0.6203 0.56031 0.16519 0.0
C2610 C 0.61953 0.54195 0.16896 0.0
H2611 H 0.58495 0.50332 0.21246 0.0
H2612 H 0.5946 0.52422 0.20524 0.0
H2613 H 0.57303 0.51793 0.19746 0.0
H2614 H 0.57478 0.53737 0.17054 0.0
H2615 H 0.57606 0.56954 0.16414 0.0
H2616 H 0.92466 0.13673 0.65802 0.0
H2617 H 0.95651 0.13601 0.6634 0.0
H2618 H 0.95467 0.0787 0.67099 0.0
H2619 H 0.92277 0.0792 0.66523 0.0
H2620 H 0.97884 0.12454 0.69071 0.0
H2621 H 0.98903 0.08344 0.62926 0.0
H2622 H 0.96807 0.0939 0.63455 0.0
H2623 H 0.97477 0.07356 0.64572 0.0
C2624 C 0.93092 0.12396 0.66112 0.0
C2625 C 0.92108 0.10798 0.66096 0.0
C2626 C 0.9492 0.12359 0.66419 0.0
C2627 C 0.95812 0.10725 0.66716 0.0
C2628 C 0.94818 0.09143 0.66828 0.0
H2629 H 0.07185 0.08364 0.66346 0.0
H2630 H 0.04021 0.08163 0.66999 0.0
C2631 C 0.92987 0.09177 0.66514 0.0
C2632 C 0.97786 0.10678 0.66794 0.0
H2633 H 0.01439 0.09078 0.64585 0.0
C2634 C 0.98662 0.11707 0.68096 0.0
C2635 C 0.98807 0.0971 0.65518 0.0
C2636 C 0.97957 0.08649 0.64028 0.0
C2637 C 0.00522 0.11795 0.68156 0.0
C2638 C 0.0154 0.10851 0.66862 0.0
C2639 C 0.00664 0.09794 0.65584 0.0
C2640 C 0.03503 0.11011 0.66731 0.0
C2641 C 0.01381 0.12893 0.6961 0.0
C2642 C 0.04282 0.12683 0.66398 0.0
C2643 C 0.06095 0.12805 0.66028 0.0
C2644 C 0.07174 0.11253 0.65969 0.0
C2645 C 0.06404 0.09589 0.66386 0.0
C2646 C 0.04589 0.0947 0.66753 0.0
H2647 H 0.00494 0.13059 0.70789 0.0
H2648 H 0.02642 0.12265 0.70063 0.0
H2649 H 0.01675 0.14249 0.69079 0.0
H2650 H 0.03474 0.13889 0.66336 0.0
H2651 H 0.06633 0.14108 0.65704 0.0
H2652 H 0.37127 0.58194 0.15888 0.0
H2653 H 0.37076 0.55021 0.16701 0.0
H2654 H 0.42774 0.5492 0.16931 0.0
H2655 H 0.42836 0.58108 0.16148 0.0
H2656 H 0.38528 0.52549 0.14454 0.0
H2657 H 0.41523 0.51773 0.21207 0.0
H2658 H 0.40713 0.53906 0.20375 0.0
H2659 H 0.42833 0.53054 0.19668 0.0
C2660 C 0.3837 0.57515 0.16166 0.0
C2661 C 0.39987 0.58409 0.15942 0.0
C2662 C 0.38338 0.55696 0.16628 0.0
C2663 C 0.3992 0.54726 0.16881 0.0
C2664 C 0.41534 0.55641 0.16776 0.0
H2665 H 0.42548 0.43382 0.1622 0.0
H2666 H 0.42614 0.46612 0.16837 0.0
C2667 C 0.41567 0.57469 0.16322 0.0
C2668 C 0.39879 0.52729 0.1699 0.0
H2669 H 0.41174 0.49089 0.19487 0.0
C2670 C 0.3909 0.51796 0.15567 0.0
C2671 C 0.40636 0.51742 0.18427 0.0
C2672 C 0.41461 0.52668 0.20015 0.0
C2673 C 0.39052 0.49915 0.15525 0.0
C2674 C 0.39793 0.48924 0.16966 0.0
C2675 C 0.40594 0.49849 0.1839 0.0
C2676 C 0.3977 0.46926 0.16969 0.0
C2677 C 0.3826 0.49002 0.13906 0.0
C2678 C 0.38155 0.46012 0.16937 0.0
C2679 C 0.38111 0.44171 0.16575 0.0
C2680 C 0.39686 0.43199 0.16257 0.0
C2681 C 0.41311 0.44086 0.16458 0.0
C2682 C 0.41351 0.45936 0.16807 0.0
H2683 H 0.38147 0.49927 0.12741 0.0
H2684 H 0.39067 0.47818 0.13499 0.0
H2685 H 0.36912 0.48533 0.14245 0.0
H2686 H 0.36919 0.46743 0.17094 0.0
H2687 H 0.36837 0.43529 0.16448 0.0
H2688 H 0.3139 0.08148 0.09357 0.0
H2689 H 0.31321 0.04923 0.08727 0.0
H2690 H 0.36764 0.05076 0.0702 0.0
H2691 H 0.36859 0.08288 0.07676 0.0
H2692 H 0.32094 0.02584 0.05778 0.0
H2693 H 0.36865 0.01722 0.11388 0.0
H2694 H 0.3572 0.03814 0.1097 0.0
H2695 H 0.37608 0.03187 0.09636 0.0
C2696 C 0.32561 0.07507 0.08805 0.0
C2697 C 0.34138 0.08477 0.08592 0.0
C2698 C 0.32519 0.0566 0.08449 0.0
C2699 C 0.3405 0.04749 0.07869 0.0
C2700 C 0.35578 0.05743 0.07505 0.0
H2701 H 0.37184 0.93528 0.07762 0.0
H2702 H 0.36944 0.96733 0.07114 0.0
C2703 C 0.35626 0.07584 0.07872 0.0
C2704 C 0.34104 0.02751 0.07816 0.0
H2705 H 0.36116 0.99122 0.09772 0.0
C2706 C 0.32975 0.01824 0.06647 0.0
C2707 C 0.35242 0.01759 0.08964 0.0
C2708 C 0.36417 0.02666 0.10323 0.0
C2709 C 0.32979 0.99932 0.06573 0.0
C2710 C 0.34126 0.98945 0.07716 0.0
C2711 C 0.3525 0.99877 0.08883 0.0
C2712 C 0.34166 0.96945 0.07781 0.0
C2713 C 0.31778 0.99008 0.05256 0.0
C2714 C 0.32669 0.95978 0.0832 0.0
C2715 C 0.328 0.94134 0.08685 0.0
C2716 C 0.34436 0.93226 0.08539 0.0
C2717 C 0.35905 0.9418 0.07897 0.0
C2718 C 0.35771 0.96017 0.07527 0.0
H2719 H 0.31362 0.99924 0.04155 0.0
H2720 H 0.32437 0.97808 0.04663 0.0
H2721 H 0.30571 0.98558 0.05967 0.0
H2722 H 0.31424 0.96665 0.08559 0.0
H2723 H 0.31644 0.93447 0.09188 0.0
H2724 H 0.43572 0.85132 0.6406 0.0
H2725 H 0.46735 0.84461 0.63913 0.0
H2726 H 0.46271 0.83322 0.58261 0.0
H2727 H 0.43102 0.84026 0.58386 0.0
H2728 H 0.48831 0.81547 0.62861 0.0
H2729 H 0.49844 0.87388 0.58344 0.0
H2730 H 0.47785 0.87016 0.59503 0.0
H2731 H 0.48322 0.85744 0.57523 0.0
C2732 C 0.44131 0.84711 0.62788 0.0
C2733 C 0.43076 0.84656 0.61229 0.0
C2734 C 0.45946 0.84328 0.62707 0.0
C2735 C 0.46754 0.83882 0.61068 0.0
C2736 C 0.45687 0.83705 0.59534 0.0
H2737 H 0.58049 0.83761 0.58374 0.0
H2738 H 0.5487 0.83175 0.5828 0.0
C2739 C 0.43869 0.84093 0.59611 0.0
C2740 C 0.48721 0.8372 0.60957 0.0
H2741 H 0.52364 0.85691 0.59114 0.0
C2742 C 0.49604 0.82446 0.62033 0.0
C2743 C 0.49735 0.84894 0.59881 0.0
C2744 C 0.4888 0.86349 0.58758 0.0
C2745 C 0.51465 0.82319 0.62065 0.0
C2746 C 0.52477 0.83518 0.61016 0.0
C2747 C 0.51593 0.84764 0.59911 0.0
C2748 C 0.54448 0.83596 0.61122 0.0
C2749 C 0.52328 0.80897 0.63218 0.0
C2750 C 0.55286 0.83991 0.62756 0.0
C2751 C 0.57107 0.84321 0.62816 0.0
C2752 C 0.58135 0.8428 0.61239 0.0
C2753 C 0.57307 0.83798 0.59617 0.0
C2754 C 0.55484 0.8347 0.59559 0.0
H2755 H 0.51423 0.79756 0.63462 0.0
H2756 H 0.53562 0.80375 0.62591 0.0
H2757 H 0.52669 0.81487 0.64539 0.0
H2758 H 0.54518 0.84134 0.63975 0.0
H2759 H 0.5769 0.84697 0.64088 0.0
H2760 H 0.62988 0.06457 0.08236 0.0
H2761 H 0.63407 0.03258 0.07644 0.0
H2762 H 0.69054 0.0387 0.08091 0.0
H2763 H 0.68648 0.07074 0.0872 0.0
H2764 H 0.65294 0.0115 0.05156 0.0
H2765 H 0.67928 0.00283 0.12075 0.0
H2766 H 0.66868 0.02334 0.11343 0.0
H2767 H 0.69109 0.01841 0.10693 0.0
C2768 C 0.64324 0.05924 0.08178 0.0
C2769 C 0.65783 0.07026 0.08552 0.0
C2770 C 0.64561 0.04089 0.07837 0.0
C2771 C 0.66259 0.03313 0.07864 0.0
C2772 C 0.67727 0.04431 0.08104 0.0
H2773 H 0.68957 0.91904 0.08969 0.0
H2774 H 0.69213 0.95099 0.08257 0.0
C2775 C 0.67493 0.06268 0.08449 0.0
C2776 C 0.66465 0.01323 0.07783 0.0
H2777 H 0.67699 0.97692 0.10309 0.0
C2778 C 0.65833 0.00393 0.06276 0.0
C2779 C 0.67165 0.00332 0.09247 0.0
C2780 C 0.67794 0.01241 0.10939 0.0
C2781 C 0.6587 0.98503 0.06199 0.0
C2782 C 0.66528 0.97514 0.07682 0.0
C2783 C 0.67203 0.98446 0.09167 0.0
C2784 C 0.66414 0.95519 0.07798 0.0
C2785 C 0.65204 0.97586 0.04529 0.0
C2786 C 0.64762 0.94674 0.07734 0.0
C2787 C 0.64612 0.92845 0.08134 0.0
C2788 C 0.66109 0.91819 0.08625 0.0
C2789 C 0.67776 0.92646 0.08593 0.0
C2790 C 0.67925 0.94478 0.08192 0.0
H2791 H 0.65308 0.98475 0.03337 0.0
H2792 H 0.65949 0.96324 0.0426 0.0
H2793 H 0.63788 0.97252 0.04711 0.0
H2794 H 0.63571 0.95449 0.07472 0.0
H2795 H 0.63305 0.92261 0.08151 0.0
H2796 H 0.571 0.16069 0.58328 0.0
H2797 H 0.53932 0.16782 0.5824 0.0
H2798 H 0.53577 0.15863 0.63941 0.0
H2799 H 0.56736 0.15177 0.64047 0.0
H2800 H 0.51349 0.14403 0.59091 0.0
H2801 H 0.50619 0.20388 0.63433 0.0
H2802 H 0.52733 0.19657 0.62555 0.0
H2803 H 0.51813 0.18596 0.64511 0.0
C2804 C 0.5636 0.16066 0.59573 0.0
C2805 C 0.57182 0.15564 0.61195 0.0
C2806 C 0.54543 0.16467 0.59518 0.0
C2807 C 0.53509 0.16393 0.61085 0.0
C2808 C 0.54344 0.15969 0.62718 0.0
H2809 H 0.42584 0.15415 0.64047 0.0
H2810 H 0.45769 0.15915 0.63905 0.0
C2811 C 0.56156 0.15566 0.62774 0.0
C2812 C 0.51541 0.1657 0.6099 0.0
H2813 H 0.4797 0.18727 0.62852 0.0
C2814 C 0.50612 0.15369 0.59892 0.0
C2815 C 0.50573 0.1782 0.62043 0.0
C2816 C 0.51486 0.192 0.63189 0.0
C2817 C 0.48752 0.15335 0.5987 0.0
C2818 C 0.47782 0.16561 0.6095 0.0
C2819 C 0.48709 0.17789 0.62021 0.0
C2820 C 0.4581 0.16507 0.61063 0.0
C2821 C 0.47845 0.13926 0.58751 0.0
C2822 C 0.44751 0.16752 0.5953 0.0
C2823 C 0.42921 0.16463 0.59605 0.0
C2824 C 0.42107 0.15935 0.61219 0.0
C2825 C 0.43158 0.15814 0.62778 0.0
C2826 C 0.44986 0.16098 0.627 0.0
H2827 H 0.48771 0.12838 0.58334 0.0
H2828 H 0.46731 0.13318 0.59501 0.0
H2829 H 0.47302 0.14561 0.57519 0.0
H2830 H 0.45349 0.17108 0.58259 0.0
H2831 H 0.42159 0.16578 0.58379 0.0
H2832 H 0.37319 0.05943 0.92849 0.0
H2833 H 0.37255 0.0275 0.93597 0.0
H2834 H 0.31796 0.02509 0.91956 0.0
H2835 H 0.31836 0.05714 0.91231 0.0
H2836 H 0.32641 0.00255 0.94982 0.0
H2837 H 0.3731 0.99283 0.89297 0.0
H2838 H 0.3806 0.00805 0.90998 0.0
H2839 H 0.36146 0.01373 0.89677 0.0
C2840 C 0.3609 0.05225 0.92686 0.0
C2841 C 0.34589 0.06086 0.91955 0.0
C2842 C 0.36059 0.03394 0.93107 0.0
C2843 C 0.34534 0.02379 0.9279 0.0
C2844 C 0.32992 0.03262 0.922 0.0
H2845 H 0.32015 0.91127 0.91683 0.0
H2846 H 0.31859 0.94331 0.92371 0.0
C2847 C 0.33017 0.05099 0.91789 0.0
C2848 C 0.34604 0.00383 0.92894 0.0
H2849 H 0.36571 0.96718 0.90961 0.0
C2850 C 0.33503 0.99478 0.94109 0.0
C2851 C 0.3572 0.99369 0.91744 0.0
C2852 C 0.36865 0.00251 0.90343 0.0
C2853 C 0.33511 0.97588 0.94221 0.0
C2854 C 0.34627 0.96577 0.93067 0.0
C2855 C 0.35728 0.97488 0.9186 0.0
C2856 C 0.34639 0.94575 0.9301 0.0
C2857 C 0.32341 0.96693 0.95586 0.0
C2858 C 0.36244 0.93625 0.93176 0.0
C2859 C 0.36341 0.91792 0.9277 0.0
C2860 C 0.34834 0.90866 0.9218 0.0
C2861 C 0.33201 0.9179 0.92144 0.0
C2862 C 0.33107 0.93628 0.92543 0.0
H2863 H 0.31995 0.9762 0.96704 0.0
H2864 H 0.31091 0.96283 0.94928 0.0
H2865 H 0.32988 0.95475 0.96152 0.0
H2866 H 0.37445 0.94322 0.93534 0.0
H2867 H 0.37621 0.91128 0.92817 0.0
H2868 H 0.57443 0.86622 0.40456 0.0
H2869 H 0.54255 0.86454 0.40941 0.0
H2870 H 0.54352 0.80868 0.39426 0.0
H2871 H 0.57552 0.81016 0.38962 0.0
H2872 H 0.51953 0.8572 0.38233 0.0
H2873 H 0.51027 0.80788 0.43723 0.0
H2874 H 0.53129 0.81833 0.43279 0.0
H2875 H 0.52397 0.79991 0.41917 0.0
C2876 C 0.56799 0.85342 0.4027 0.0
C2877 C 0.57762 0.83833 0.39665 0.0
C2878 C 0.5497 0.8525 0.40544 0.0
C2879 C 0.54056 0.83647 0.40229 0.0
C2880 C 0.55025 0.82113 0.39712 0.0
H2881 H 0.4289 0.81283 0.38607 0.0
H2882 H 0.46086 0.81058 0.39129 0.0
C2883 C 0.5686 0.82202 0.39442 0.0
C2884 C 0.5208 0.83648 0.40244 0.0
H2885 H 0.48442 0.81659 0.42093 0.0
C2886 C 0.51189 0.84841 0.39091 0.0
C2887 C 0.51077 0.82487 0.41344 0.0
C2888 C 0.51953 0.81212 0.42648 0.0
C2889 C 0.49334 0.84897 0.3899 0.0
C2890 C 0.48326 0.83751 0.40102 0.0
C2891 C 0.49213 0.82544 0.41249 0.0
C2892 C 0.46354 0.83792 0.40062 0.0
C2893 C 0.4847 0.86155 0.37657 0.0
C2894 C 0.45424 0.85374 0.40494 0.0
C2895 C 0.436 0.85509 0.40194 0.0
C2896 C 0.42657 0.84058 0.39469 0.0
C2897 C 0.43569 0.82428 0.39167 0.0
C2898 C 0.454 0.82297 0.39461 0.0
H2899 H 0.49412 0.86592 0.36603 0.0
H2900 H 0.47322 0.8551 0.36996 0.0
H2901 H 0.47986 0.87371 0.38371 0.0
H2902 H 0.46124 0.86533 0.40997 0.0
H2903 H 0.42944 0.8678 0.40458 0.0
H2904 H 0.68707 0.08742 0.91301 0.0
H2905 H 0.68839 0.05519 0.91946 0.0
H2906 H 0.63347 0.05636 0.93493 0.0
H2907 H 0.63192 0.08845 0.92825 0.0
H2908 H 0.67999 0.03159 0.94897 0.0
H2909 H 0.63486 0.02305 0.89081 0.0
H2910 H 0.64582 0.04395 0.89547 0.0
H2911 H 0.62654 0.0377 0.90805 0.0
C2912 C 0.67539 0.08095 0.91826 0.0
C2913 C 0.65931 0.09053 0.91986 0.0
C2914 C 0.67616 0.06248 0.9219 0.0
C2915 C 0.66092 0.05327 0.92726 0.0
C2916 C 0.6453 0.06311 0.93044 0.0
H2917 H 0.63239 0.9407 0.92533 0.0
H2918 H 0.63347 0.97269 0.93237 0.0
C2919 C 0.64447 0.08151 0.9267 0.0
C2920 C 0.6608 0.03328 0.92769 0.0
H2921 H 0.6424 0.99701 0.90704 0.0
C2922 C 0.67176 0.02399 0.93985 0.0
C2923 C 0.65015 0.02336 0.91567 0.0
C2924 C 0.63879 0.03247 0.90164 0.0
C2925 C 0.67209 0.00507 0.94051 0.0
C2926 C 0.6614 0.99519 0.9285 0.0
C2927 C 0.65047 0.00453 0.91638 0.0
C2928 C 0.66158 0.97518 0.92763 0.0
C2929 C 0.68367 0.99584 0.95423 0.0
C2930 C 0.67712 0.96569 0.92317 0.0
C2931 C 0.67657 0.94729 0.91924 0.0
C2932 C 0.66041 0.93803 0.91945 0.0
C2933 C 0.64507 0.94736 0.92497 0.0
C2934 C 0.64565 0.9657 0.92897 0.0
H2935 H 0.68684 0.0049 0.9656 0.0
H2936 H 0.67723 0.98362 0.95959 0.0
H2937 H 0.69631 0.99173 0.94779 0.0
H2938 H 0.68952 0.97271 0.92168 0.0
H2939 H 0.68862 0.94062 0.91492 0.0
H2940 H 0.42837 0.13403 0.40383 0.0
H2941 H 0.46024 0.13549 0.40881 0.0
H2942 H 0.45954 0.19161 0.39471 0.0
H2943 H 0.42755 0.19035 0.38994 0.0
H2944 H 0.48347 0.14327 0.382 0.0
H2945 H 0.49252 0.19149 0.4379 0.0
H2946 H 0.47151 0.18118 0.43313 0.0
H2947 H 0.47894 0.19984 0.41992 0.0
C2948 C 0.43487 0.14683 0.40223 0.0
C2949 C 0.4253 0.16207 0.39644 0.0
C2950 C 0.45315 0.14762 0.40504 0.0
C2951 C 0.46237 0.16367 0.40223 0.0
C2952 C 0.45275 0.17914 0.39731 0.0
H2953 H 0.57407 0.18778 0.38727 0.0
H2954 H 0.54208 0.18979 0.39238 0.0
C2955 C 0.43441 0.17838 0.39453 0.0
C2956 C 0.48213 0.16361 0.4025 0.0
H2957 H 0.51844 0.18308 0.42155 0.0
C2958 C 0.49109 0.15188 0.39079 0.0
C2959 C 0.49213 0.17498 0.41378 0.0
C2960 C 0.48332 0.18748 0.42702 0.0
C2961 C 0.50965 0.15133 0.38986 0.0
C2962 C 0.51968 0.16256 0.40125 0.0
C2963 C 0.51077 0.1744 0.41291 0.0
C2964 C 0.53942 0.16219 0.4009 0.0
C2965 C 0.51833 0.13902 0.37631 0.0
C2966 C 0.54874 0.14628 0.40482 0.0
C2967 C 0.56701 0.14506 0.40188 0.0
C2968 C 0.57644 0.1598 0.39509 0.0
C2969 C 0.56728 0.17615 0.3925 0.0
C2970 C 0.54895 0.17732 0.39537 0.0
H2971 H 0.50895 0.1349 0.36562 0.0
H2972 H 0.52985 0.14557 0.3699 0.0
H2973 H 0.5231 0.12669 0.38321 0.0
H2974 H 0.54176 0.13453 0.40949 0.0
H2975 H 0.57359 0.13229 0.40418 0.0
H2976 H 0.07049 0.34992 0.91735 0.0
H2977 H 0.07002 0.34279 0.94942 0.0
H2978 H 0.12699 0.34017 0.9499 0.0
H2979 H 0.12763 0.3477 0.91798 0.0
H2980 H 0.08376 0.31613 0.97316 0.0
H2981 H 0.11546 0.38233 0.9833 0.0
H2982 H 0.10645 0.37554 0.96197 0.0
H2983 H 0.12778 0.36734 0.96906 0.0
C2984 C 0.08292 0.34735 0.92414 0.0
C2985 C 0.09911 0.34967 0.91512 0.0
C2986 C 0.08262 0.3433 0.94252 0.0
C2987 C 0.09848 0.34141 0.95216 0.0
C2988 C 0.11459 0.34199 0.94282 0.0
H2989 H 0.1247 0.34756 0.06492 0.0
H2990 H 0.12502 0.3401 0.03304 0.0
C2991 C 0.11493 0.3462 0.92452 0.0
C2992 C 0.09827 0.34086 0.97213 0.0
H2993 H 0.1113 0.36452 0.00902 0.0
C2994 C 0.08981 0.32667 0.98103 0.0
C2995 C 0.10597 0.35474 0.98241 0.0
C2996 C 0.11428 0.37095 0.97375 0.0
C2997 C 0.0892 0.32584 0.99993 0.0
C2998 C 0.09708 0.33965 0.01015 0.0
C2999 C 0.10545 0.35382 0.00121 0.0
C3000 C 0.09655 0.34023 0.03012 0.0
C3001 C 0.08037 0.3101 0.00882 0.0
C3002 C 0.08041 0.34212 0.03932 0.0
C3003 C 0.08018 0.34632 0.05768 0.0
C3004 C 0.0961 0.34891 0.0671 0.0
C3005 C 0.11219 0.34575 0.0581 0.0
C3006 C 0.1124 0.34149 0.03983 0.0
H3007 H 0.07917 0.29853 0.99951 0.0
H3008 H 0.08782 0.30573 0.02092 0.0
H3009 H 0.06685 0.31416 0.0131 0.0
H3010 H 0.06801 0.34152 0.03209 0.0
H3011 H 0.06755 0.34877 0.06414 0.0
H3012 H 0.13954 0.6595 0.94295 0.0
H3013 H 0.13827 0.66695 0.97478 0.0
H3014 H 0.08329 0.68179 0.96936 0.0
H3015 H 0.08431 0.67393 0.93742 0.0
H3016 H 0.12942 0.69644 0.99573 0.0
H3017 H 0.08148 0.6411 0.00574 0.0
H3018 H 0.09319 0.64419 0.9849 0.0
H3019 H 0.07457 0.65834 0.99035 0.0
C3020 C 0.12722 0.66465 0.94838 0.0
C3021 C 0.11195 0.66583 0.9376 0.0
C3022 C 0.12653 0.66893 0.96665 0.0
C3023 C 0.11058 0.6745 0.97461 0.0
C3024 C 0.09565 0.67709 0.96362 0.0
H3025 H 0.08715 0.67207 0.08997 0.0
H3026 H 0.08531 0.68069 0.05831 0.0
C3027 C 0.0963 0.67275 0.9453 0.0
C3028 C 0.10943 0.67606 0.99453 0.0
H3029 H 0.09088 0.65643 0.0314 0.0
C3030 C 0.12085 0.68783 0.00353 0.0
C3031 C 0.09829 0.66479 0.00477 0.0
C3032 C 0.08628 0.65127 0.99602 0.0
C3033 C 0.12164 0.68841 0.02241 0.0
C3034 C 0.11091 0.67673 0.0326 0.0
C3035 C 0.09905 0.66545 0.02362 0.0
C3036 C 0.11276 0.67472 0.05243 0.0
C3037 C 0.13404 0.70145 0.03125 0.0
C3038 C 0.12891 0.66893 0.05985 0.0
C3039 C 0.13002 0.66402 0.07795 0.0
C3040 C 0.11496 0.66466 0.08908 0.0
C3041 C 0.09904 0.67147 0.08188 0.0
C3042 C 0.09794 0.67634 0.06372 0.0
H3043 H 0.13669 0.71313 0.02242 0.0
H3044 H 0.12861 0.70641 0.0442 0.0
H3045 H 0.14686 0.69458 0.03394 0.0
H3046 H 0.14046 0.66719 0.0514 0.0
H3047 H 0.14248 0.65877 0.08296 0.0
H3048 H 0.88407 0.57078 0.4198 0.0
H3049 H 0.88263 0.56349 0.4517 0.0
H3050 H 0.82673 0.57547 0.45187 0.0
H3051 H 0.82798 0.58252 0.41986 0.0
H3052 H 0.87368 0.58921 0.47598 0.0
H3053 H 0.82886 0.53133 0.48404 0.0
H3054 H 0.83878 0.53708 0.46277 0.0
H3055 H 0.81965 0.5492 0.47073 0.0
C3056 C 0.87134 0.57136 0.42646 0.0
C3057 C 0.85615 0.57736 0.41722 0.0
C3058 C 0.87055 0.5672 0.44475 0.0
C3059 C 0.85457 0.56887 0.45425 0.0
C3060 C 0.83916 0.57374 0.44483 0.0
H3061 H 0.82598 0.5846 0.56523 0.0
H3062 H 0.82608 0.57755 0.53317 0.0
C3063 C 0.83991 0.57785 0.42647 0.0
C3064 C 0.85461 0.56801 0.47424 0.0
H3065 H 0.83532 0.54813 0.51064 0.0
C3066 C 0.86547 0.58004 0.48354 0.0
C3067 C 0.84373 0.55621 0.48413 0.0
C3068 C 0.83221 0.5426 0.47492 0.0
C3069 C 0.86547 0.58094 0.50236 0.0
C3070 C 0.85457 0.56919 0.51229 0.0
C3071 C 0.84376 0.55705 0.50303 0.0
C3072 C 0.85377 0.57008 0.53225 0.0
C3073 C 0.87667 0.59499 0.51139 0.0
C3074 C 0.86907 0.56732 0.54261 0.0
C3075 C 0.86911 0.57144 0.56095 0.0
C3076 C 0.85377 0.57824 0.56935 0.0
C3077 C 0.83805 0.57945 0.55924 0.0
C3078 C 0.83808 0.57544 0.54086 0.0
H3079 H 0.88083 0.60563 0.50187 0.0
H3080 H 0.8694 0.60144 0.52266 0.0
H3081 H 0.88879 0.58853 0.51689 0.0
H3082 H 0.88125 0.5628 0.53634 0.0
H3083 H 0.8814 0.57017 0.56832 0.0
H3084 H 0.92375 0.3324 0.93272 0.0
H3085 H 0.92459 0.3245 0.96464 0.0
H3086 H 0.8683 0.33352 0.96833 0.0
H3087 H 0.86729 0.34115 0.93654 0.0
H3088 H 0.91589 0.34818 0.99101 0.0
H3089 H 0.87376 0.28834 0.99794 0.0
H3090 H 0.88236 0.29561 0.97655 0.0
H3091 H 0.86285 0.30607 0.98584 0.0
C3092 C 0.91146 0.33217 0.94018 0.0
C3093 C 0.89545 0.33747 0.932 0.0
C3094 C 0.91198 0.32772 0.95848 0.0
C3095 C 0.89649 0.32826 0.96894 0.0
C3096 C 0.88038 0.33261 0.96056 0.0
H3097 H 0.86397 0.34191 0.07751 0.0
H3098 H 0.86682 0.33485 0.04565 0.0
C3099 C 0.87985 0.33709 0.94232 0.0
C3100 C 0.89739 0.32651 0.98887 0.0
H3101 H 0.87836 0.30568 0.02487 0.0
C3102 C 0.90796 0.33864 0.99841 0.0
C3103 C 0.88695 0.31415 0.99857 0.0
C3104 C 0.87598 0.30019 0.98919 0.0
C3105 C 0.9077 0.33939 0.01727 0.0
C3106 C 0.89685 0.32739 0.02698 0.0
C3107 C 0.8867 0.31486 0.01747 0.0
C3108 C 0.89482 0.32875 0.04685 0.0
C3109 C 0.91836 0.35369 0.02658 0.0
C3110 C 0.90942 0.32682 0.05839 0.0
C3111 C 0.90786 0.3309 0.07671 0.0
C3112 C 0.89161 0.3369 0.08388 0.0
C3113 C 0.87672 0.33743 0.07251 0.0
C3114 C 0.87832 0.3334 0.05423 0.0
H3115 H 0.92292 0.36419 0.01709 0.0
H3116 H 0.91048 0.36027 0.03734 0.0
H3117 H 0.93022 0.34742 0.03282 0.0
H3118 H 0.92221 0.32285 0.0531 0.0
H3119 H 0.91959 0.33024 0.08503 0.0
H3120 H 0.12123 0.43146 0.56553 0.0
H3121 H 0.12197 0.43881 0.53357 0.0
H3122 H 0.17712 0.42379 0.53136 0.0
H3123 H 0.17662 0.41674 0.56344 0.0
H3124 H 0.16835 0.45347 0.50885 0.0
H3125 H 0.12288 0.39616 0.49884 0.0
H3126 H 0.11469 0.41312 0.51389 0.0
H3127 H 0.13399 0.40016 0.51986 0.0
C3128 C 0.13364 0.4301 0.55838 0.0
C3129 C 0.14881 0.42325 0.56705 0.0
C3130 C 0.13401 0.43422 0.54005 0.0
C3131 C 0.14948 0.4314 0.52996 0.0
C3132 C 0.165 0.42594 0.53885 0.0
H3133 H 0.1763 0.42033 0.41759 0.0
H3134 H 0.17737 0.42688 0.44972 0.0
C3135 C 0.16468 0.42193 0.55723 0.0
C3136 C 0.14903 0.43244 0.51001 0.0
H3137 H 0.13025 0.41295 0.47324 0.0
C3138 C 0.15998 0.44467 0.50104 0.0
C3139 C 0.13823 0.42084 0.4998 0.0
C3140 C 0.12689 0.4067 0.50853 0.0
C3141 C 0.16021 0.44576 0.48215 0.0
C3142 C 0.14938 0.43414 0.47199 0.0
C3143 C 0.13841 0.42199 0.48101 0.0
C3144 C 0.14955 0.43362 0.45199 0.0
C3145 C 0.17186 0.45945 0.47325 0.0
C3146 C 0.13365 0.43554 0.44242 0.0
C3147 C 0.13296 0.43168 0.42405 0.0
C3148 C 0.14817 0.42572 0.41483 0.0
C3149 C 0.16435 0.42499 0.42419 0.0
C3150 C 0.165 0.4288 0.44261 0.0
H3151 H 0.17522 0.47055 0.48257 0.0
H3152 H 0.1844 0.45286 0.469 0.0
H3153 H 0.16538 0.46522 0.46115 0.0
H3154 H 0.12155 0.43922 0.44935 0.0
H3155 H 0.12028 0.43244 0.41732 0.0
H3156 H 0.87553 0.65611 0.92126 0.0
H3157 H 0.87696 0.66414 0.95298 0.0
H3158 H 0.93394 0.66276 0.95067 0.0
H3159 H 0.93263 0.65509 0.91881 0.0
H3160 H 0.89108 0.64071 0.97666 0.0
H3161 H 0.92566 0.70568 0.98322 0.0
H3162 H 0.91626 0.69815 0.96226 0.0
H3163 H 0.93732 0.68953 0.96968 0.0
C3164 C 0.88838 0.65809 0.92732 0.0
C3165 C 0.90396 0.65484 0.91746 0.0
C3166 C 0.88918 0.66265 0.94551 0.0
C3167 C 0.90555 0.66409 0.95429 0.0
C3168 C 0.92114 0.66207 0.9442 0.0
H3169 H 0.93688 0.65296 0.06577 0.0
H3170 H 0.93644 0.6597 0.03357 0.0
C3171 C 0.92036 0.65763 0.92592 0.0
C3172 C 0.90617 0.66497 0.97427 0.0
H3173 H 0.92269 0.68827 0.01007 0.0
C3174 C 0.89782 0.65126 0.98393 0.0
C3175 C 0.91519 0.67856 0.98381 0.0
C3176 C 0.92399 0.69391 0.97423 0.0
C3177 C 0.8984 0.65058 0.00274 0.0
C3178 C 0.90732 0.6642 0.01231 0.0
C3179 C 0.91577 0.67792 0.00272 0.0
C3180 C 0.90813 0.66392 0.03226 0.0
C3181 C 0.88984 0.63497 0.01219 0.0
C3182 C 0.89251 0.66501 0.04239 0.0
C3183 C 0.89269 0.66109 0.06075 0.0
C3184 C 0.90855 0.65615 0.06941 0.0
C3185 C 0.92443 0.65671 0.05956 0.0
C3186 C 0.92421 0.66053 0.04111 0.0
H3187 H 0.88727 0.62363 0.00289 0.0
H3188 H 0.89828 0.63 0.02337 0.0
H3189 H 0.87698 0.63942 0.01791 0.0
H3190 H 0.87999 0.66792 0.03589 0.0
H3191 H 0.88023 0.66096 0.06793 0.0
H3192 H 0.80477 0.41039 0.43319 0.0
H3193 H 0.80165 0.41795 0.46502 0.0
H3194 H 0.8579 0.42619 0.46869 0.0
H3195 H 0.8611 0.419 0.43693 0.0
H3196 H 0.81639 0.39819 0.49145 0.0
H3197 H 0.83985 0.46793 0.49813 0.0
H3198 H 0.83397 0.45828 0.47673 0.0
H3199 H 0.85542 0.45394 0.48638 0.0
C3200 C 0.81642 0.41433 0.44062 0.0
C3201 C 0.8332 0.41402 0.43242 0.0
C3202 C 0.81462 0.41859 0.45887 0.0
C3203 C 0.82951 0.4228 0.46931 0.0
C3204 C 0.84613 0.4234 0.46093 0.0
H3205 H 0.86209 0.41929 0.57893 0.0
H3206 H 0.85842 0.42521 0.54691 0.0
C3207 C 0.84795 0.41915 0.44271 0.0
C3208 C 0.82806 0.42434 0.48924 0.0
H3209 H 0.83982 0.4502 0.52522 0.0
C3210 C 0.8212 0.40972 0.49881 0.0
C3211 C 0.83445 0.43932 0.49891 0.0
C3212 C 0.84117 0.45583 0.4895 0.0
C3213 C 0.82129 0.40928 0.51768 0.0
C3214 C 0.82812 0.42405 0.52736 0.0
C3215 C 0.83455 0.4389 0.51783 0.0
C3216 C 0.82988 0.42357 0.5473 0.0
C3217 C 0.81487 0.39259 0.52705 0.0
C3218 C 0.815 0.42159 0.55842 0.0
C3219 C 0.81705 0.41817 0.57682 0.0
C3220 C 0.83403 0.41673 0.58449 0.0
C3221 C 0.84881 0.42019 0.57354 0.0
C3222 C 0.84674 0.42358 0.55517 0.0
H3223 H 0.81359 0.38108 0.51767 0.0
H3224 H 0.82402 0.38863 0.53805 0.0
H3225 H 0.80167 0.39531 0.53301 0.0
H3226 H 0.80183 0.42191 0.55272 0.0
H3227 H 0.80535 0.41566 0.5848 0.0
H3228 H 0.14001 0.58 0.58608 0.0
H3229 H 0.1422 0.57355 0.55402 0.0
H3230 H 0.19785 0.58558 0.55527 0.0
H3231 H 0.19587 0.59175 0.58743 0.0
H3232 H 0.15088 0.59935 0.53019 0.0
H3233 H 0.19762 0.54214 0.52245 0.0
H3234 H 0.18727 0.54764 0.54363 0.0
H3235 H 0.20612 0.56005 0.53597 0.0
C3236 C 0.15285 0.58077 0.57969 0.0
C3237 C 0.16775 0.58648 0.5894 0.0
C3238 C 0.15407 0.57711 0.5613 0.0
C3239 C 0.17019 0.57901 0.55215 0.0
C3240 C 0.18532 0.58367 0.56201 0.0
H3241 H 0.19798 0.59503 0.44025 0.0
H3242 H 0.19871 0.58891 0.47256 0.0
C3243 C 0.18414 0.58726 0.58046 0.0
C3244 C 0.1706 0.57841 0.53213 0.0
H3245 H 0.19089 0.5589 0.49586 0.0
C3246 C 0.15949 0.59034 0.52272 0.0
C3247 C 0.182 0.56683 0.52231 0.0
C3248 C 0.19382 0.55332 0.53159 0.0
C3249 C 0.15964 0.59124 0.5039 0.0
C3250 C 0.17098 0.57965 0.49405 0.0
C3251 C 0.18214 0.56771 0.5034 0.0
C3252 C 0.17153 0.58022 0.47406 0.0
C3253 C 0.14798 0.60503 0.49473 0.0
C3254 C 0.1563 0.57652 0.46399 0.0
C3255 C 0.15581 0.58005 0.44555 0.0
C3256 C 0.17061 0.58724 0.43671 0.0
C3257 C 0.18633 0.58952 0.44657 0.0
C3258 C 0.18677 0.58606 0.46509 0.0
H3259 H 0.14342 0.61564 0.50417 0.0
H3260 H 0.15507 0.61151 0.48343 0.0
H3261 H 0.13612 0.59831 0.48923 0.0
H3262 H 0.14449 0.57167 0.47056 0.0
H3263 H 0.14353 0.57797 0.43839 0.0
H3264 H 0.31677 0.17848 0.37755 0.0
H3265 H 0.2851 0.17259 0.37477 0.0
H3266 H 0.29389 0.11787 0.3916 0.0
H3267 H 0.32554 0.12356 0.39422 0.0
H3268 H 0.27508 0.11989 0.36025 0.0
H3269 H 0.24532 0.16565 0.4108 0.0
H3270 H 0.26 0.17665 0.39547 0.0
H3271 H 0.26859 0.15997 0.41067 0.0
C3272 C 0.31194 0.16533 0.38115 0.0
C3273 C 0.32381 0.15152 0.38612 0.0
C3274 C 0.29377 0.16196 0.37954 0.0
C3275 C 0.28703 0.14477 0.38301 0.0
C3276 C 0.29873 0.13122 0.3888 0.0
H3277 H 0.17479 0.11874 0.38695 0.0
H3278 H 0.20633 0.1216 0.39333 0.0
C3279 C 0.31687 0.13455 0.3904 0.0
C3280 C 0.2681 0.14051 0.37932 0.0
H3281 H 0.22557 0.15251 0.38974 0.0
C3282 C 0.26426 0.12697 0.36678 0.0
C3283 C 0.25393 0.14959 0.38792 0.0
C3284 C 0.25711 0.16366 0.40209 0.0
C3285 C 0.24672 0.1225 0.36241 0.0
C3286 C 0.23256 0.13198 0.37059 0.0
C3287 C 0.23639 0.1453 0.38336 0.0
C3288 C 0.21366 0.12839 0.36612 0.0
C3289 C 0.24354 0.10749 0.34924 0.0
C3290 C 0.20721 0.13084 0.34858 0.0
C3291 C 0.18911 0.1291 0.34483 0.0
C3292 C 0.17701 0.12501 0.35858 0.0
C3293 C 0.18365 0.12185 0.37598 0.0
C3294 C 0.20172 0.12359 0.3797 0.0
H3295 H 0.25524 0.09844 0.34808 0.0
H3296 H 0.23192 0.0994 0.35324 0.0
H3297 H 0.24087 0.1133 0.33578 0.0
H3298 H 0.21606 0.13484 0.3379 0.0
H3299 H 0.18452 0.13183 0.33132 0.0
H3300 H 0.4209 0.67038 0.86095 0.0
H3301 H 0.41412 0.70217 0.86627 0.0
H3302 H 0.35868 0.68991 0.87059 0.0
H3303 H 0.36528 0.65817 0.86523 0.0
H3304 H 0.36628 0.72214 0.85084 0.0
H3305 H 0.3999 0.72006 0.91715 0.0
H3306 H 0.41303 0.71259 0.89842 0.0
H3307 H 0.39397 0.69999 0.90506 0.0
C3308 C 0.40722 0.67447 0.86266 0.0
C3309 C 0.39366 0.66164 0.86275 0.0
C3310 C 0.40339 0.69264 0.86589 0.0
C3311 C 0.38593 0.69837 0.86922 0.0
C3312 C 0.37226 0.68579 0.86821 0.0
H3313 H 0.33497 0.8014 0.89515 0.0
H3314 H 0.34097 0.76953 0.88947 0.0
C3315 C 0.37608 0.66763 0.86509 0.0
C3316 C 0.38193 0.71727 0.87447 0.0
H3317 H 0.38888 0.74824 0.90756 0.0
C3318 C 0.37118 0.72785 0.86325 0.0
C3319 C 0.38829 0.72469 0.89071 0.0
C3320 C 0.39932 0.71375 0.90365 0.0
C3321 C 0.36695 0.74578 0.86761 0.0
C3322 C 0.37326 0.75321 0.88389 0.0
C3323 C 0.38398 0.74257 0.89513 0.0
C3324 C 0.36945 0.77218 0.88917 0.0
C3325 C 0.35619 0.75673 0.85445 0.0
C3326 C 0.38344 0.78414 0.89198 0.0
C3327 C 0.38006 0.80231 0.8955 0.0
C3328 C 0.36259 0.80899 0.89633 0.0
C3329 C 0.34858 0.79679 0.89453 0.0
C3330 C 0.35199 0.77857 0.89106 0.0
H3331 H 0.35641 0.75072 0.8408 0.0
H3332 H 0.34223 0.75729 0.85902 0.0
H3333 H 0.36117 0.77069 0.85356 0.0
H3334 H 0.39702 0.77954 0.89078 0.0
H3335 H 0.3912 0.81124 0.89685 0.0
H3336 H 0.67695 0.87838 0.39505 0.0
H3337 H 0.70853 0.88445 0.39212 0.0
H3338 H 0.71782 0.82985 0.37519 0.0
H3339 H 0.68624 0.82355 0.3783 0.0
H3340 H 0.74434 0.84259 0.39767 0.0
H3341 H 0.7308 0.89086 0.34253 0.0
H3342 H 0.71949 0.89603 0.36311 0.0
H3343 H 0.7142 0.87585 0.35108 0.0
C3344 C 0.68572 0.86752 0.39104 0.0
C3345 C 0.67893 0.85048 0.38678 0.0
C3346 C 0.70379 0.87109 0.38919 0.0
C3347 C 0.71551 0.85777 0.38293 0.0
C3348 C 0.70902 0.84042 0.37986 0.0
H3349 H 0.81859 0.87004 0.3326 0.0
H3350 H 0.78708 0.86647 0.33915 0.0
C3351 C 0.69093 0.8368 0.38174 0.0
C3352 C 0.73434 0.8621 0.37887 0.0
H3353 H 0.76047 0.88864 0.35256 0.0
C3354 C 0.74786 0.85268 0.38784 0.0
C3355 C 0.73899 0.87506 0.36579 0.0
C3356 C 0.72514 0.88493 0.35493 0.0
C3357 C 0.76583 0.85601 0.38428 0.0
C3358 C 0.77048 0.86936 0.37159 0.0
C3359 C 0.75695 0.8786 0.36244 0.0
C3360 C 0.7893 0.87345 0.36724 0.0
C3361 C 0.77969 0.84488 0.39384 0.0
C3362 C 0.80095 0.87939 0.38062 0.0
C3363 C 0.81898 0.8815 0.37691 0.0
C3364 C 0.8258 0.87783 0.35968 0.0
C3365 C 0.81387 0.87302 0.34601 0.0
C3366 C 0.79582 0.87088 0.34976 0.0
H3367 H 0.77406 0.83236 0.3995 0.0
H3368 H 0.79069 0.84121 0.38463 0.0
H3369 H 0.78524 0.85278 0.4051 0.0
H3370 H 0.79618 0.88193 0.3941 0.0
H3371 H 0.82769 0.88532 0.38777 0.0
H3372 H 0.67181 0.19858 0.89594 0.0
H3373 H 0.66566 0.2306 0.89136 0.0
H3374 H 0.60968 0.22052 0.8945 0.0
H3375 H 0.61567 0.18873 0.89951 0.0
H3376 H 0.64825 0.24546 0.86338 0.0
H3377 H 0.61311 0.26405 0.92592 0.0
H3378 H 0.62539 0.24328 0.92369 0.0
H3379 H 0.60324 0.24519 0.91497 0.0
C3380 C 0.6582 0.20323 0.89613 0.0
C3381 C 0.64426 0.19099 0.89818 0.0
C3382 C 0.6547 0.22156 0.89338 0.0
C3383 C 0.6372 0.22809 0.89272 0.0
C3384 C 0.6233 0.21598 0.89534 0.0
H3385 H 0.58535 0.32899 0.86406 0.0
H3386 H 0.59285 0.29733 0.86923 0.0
C3387 C 0.62678 0.19771 0.89816 0.0
C3388 C 0.63339 0.24723 0.888 0.0
H3389 H 0.61041 0.28466 0.90144 0.0
C3390 C 0.64012 0.25407 0.87181 0.0
C3391 C 0.6227 0.25852 0.89891 0.0
C3392 C 0.61585 0.25245 0.91692 0.0
C3393 C 0.63616 0.27167 0.86608 0.0
C3394 C 0.62526 0.28281 0.87686 0.0
C3395 C 0.61862 0.27604 0.89308 0.0
C3396 C 0.62097 0.30171 0.87184 0.0
C3397 C 0.64335 0.27809 0.84834 0.0
C3398 C 0.63431 0.31468 0.87127 0.0
C3399 C 0.63008 0.33279 0.86834 0.0
C3400 C 0.61238 0.33837 0.8659 0.0
C3401 C 0.59912 0.32521 0.86573 0.0
C3402 C 0.60337 0.3071 0.8688 0.0
H3403 H 0.648 0.26676 0.83981 0.0
H3404 H 0.63314 0.28586 0.84086 0.0
H3405 H 0.65472 0.28706 0.85082 0.0
H3406 H 0.64796 0.31091 0.8738 0.0
H3407 H 0.64064 0.34252 0.86867 0.0
H3408 H 0.32168 0.86516 0.59472 0.0
H3409 H 0.29027 0.86853 0.60201 0.0
H3410 H 0.30217 0.86144 0.65819 0.0
H3411 H 0.33365 0.85877 0.65106 0.0
H3412 H 0.26541 0.84921 0.61732 0.0
H3413 H 0.277 0.90875 0.66011 0.0
H3414 H 0.29417 0.89882 0.64648 0.0
H3415 H 0.28863 0.88917 0.6679 0.0
C3416 C 0.3176 0.86403 0.60861 0.0
C3417 C 0.33026 0.86184 0.6223 0.0
C3418 C 0.2996 0.86605 0.61279 0.0
C3419 C 0.29381 0.86582 0.63073 0.0
C3420 C 0.30629 0.86234 0.6443 0.0
H3421 H 0.18038 0.86125 0.6562 0.0
H3422 H 0.21201 0.85447 0.65394 0.0
C3423 C 0.32431 0.86057 0.64017 0.0
C3424 C 0.27485 0.86969 0.63519 0.0
H3425 H 0.24786 0.89729 0.65998 0.0
C3426 C 0.26159 0.85972 0.62666 0.0
C3427 C 0.26974 0.88365 0.64714 0.0
C3428 C 0.28312 0.89584 0.65579 0.0
C3429 C 0.24351 0.86322 0.62974 0.0
C3430 C 0.23841 0.87674 0.64219 0.0
C3431 C 0.25167 0.88676 0.65066 0.0
C3432 C 0.21944 0.88129 0.64588 0.0
C3433 C 0.23007 0.8528 0.61908 0.0
C3434 C 0.21311 0.89894 0.64344 0.0
C3435 C 0.19503 0.90298 0.64521 0.0
C3436 C 0.18284 0.88943 0.64935 0.0
C3437 C 0.18935 0.87201 0.65286 0.0
C3438 C 0.20745 0.86804 0.65133 0.0
H3439 H 0.23596 0.84695 0.6067 0.0
H3440 H 0.2251 0.84155 0.62738 0.0
H3441 H 0.21866 0.86143 0.61518 0.0
H3442 H 0.22205 0.90948 0.6394 0.0
H3443 H 0.19052 0.91652 0.64232 0.0
H3444 H 0.59161 0.68012 0.14051 0.0
H3445 H 0.59911 0.71142 0.13438 0.0
H3446 H 0.65459 0.69762 0.13554 0.0
H3447 H 0.64723 0.66625 0.14122 0.0
H3448 H 0.61835 0.73711 0.15114 0.0
H3449 H 0.6502 0.71976 0.08626 0.0
H3450 H 0.63737 0.70384 0.09889 0.0
H3451 H 0.65988 0.7084 0.10514 0.0
C3452 C 0.60543 0.68377 0.13977 0.0
C3453 C 0.6188 0.67058 0.14121 0.0
C3454 C 0.6097 0.7017 0.13616 0.0
C3455 C 0.62741 0.70682 0.13394 0.0
C3456 C 0.64081 0.69392 0.13661 0.0
H3457 H 0.67656 0.8101 0.11104 0.0
H3458 H 0.67101 0.77825 0.11692 0.0
C3459 C 0.63657 0.676 0.14008 0.0
C3460 C 0.63179 0.72552 0.1284 0.0
H3461 H 0.65258 0.75003 0.09585 0.0
C3462 C 0.62579 0.73991 0.13902 0.0
C3463 C 0.64147 0.72924 0.11253 0.0
C3464 C 0.64747 0.71452 0.09994 0.0
C3465 C 0.62937 0.75781 0.13437 0.0
C3466 C 0.63907 0.7615 0.11856 0.0
C3467 C 0.64518 0.74717 0.10797 0.0
C3468 C 0.64275 0.78022 0.11279 0.0
C3469 C 0.62293 0.77269 0.14653 0.0
C3470 C 0.62883 0.7917 0.10769 0.0
C3471 C 0.63195 0.80985 0.10416 0.0
C3472 C 0.6491 0.81697 0.1057 0.0
C3473 C 0.6632 0.80514 0.1097 0.0
C3474 C 0.66005 0.78692 0.11316 0.0
H3475 H 0.61905 0.76758 0.15997 0.0
H3476 H 0.6333 0.78301 0.14828 0.0
H3477 H 0.6112 0.7793 0.14038 0.0
H3478 H 0.61542 0.78674 0.10701 0.0
H3479 H 0.62075 0.81848 0.10106 0.0
H3480 H 0.82214 0.14351 0.65468 0.0
H3481 H 0.79039 0.14981 0.65313 0.0
H3482 H 0.78077 0.09425 0.64049 0.0
H3483 H 0.81241 0.08774 0.64274 0.0
H3484 H 0.77003 0.14825 0.62523 0.0
H3485 H 0.74213 0.10217 0.67569 0.0
H3486 H 0.76552 0.10651 0.67429 0.0
H3487 H 0.75545 0.09022 0.6597 0.0
C3488 C 0.81322 0.13251 0.65207 0.0
C3489 C 0.81988 0.11507 0.64899 0.0
C3490 C 0.79503 0.13617 0.65106 0.0
C3491 C 0.783 0.12252 0.64682 0.0
C3492 C 0.78959 0.10498 0.64425 0.0
H3493 H 0.68102 0.13821 0.59465 0.0
H3494 H 0.71245 0.13569 0.60195 0.0
C3495 C 0.80777 0.10125 0.64552 0.0
C3496 C 0.76388 0.12694 0.64371 0.0
H3497 H 0.72178 0.11394 0.65387 0.0
C3498 C 0.7595 0.14084 0.63167 0.0
C3499 C 0.74999 0.11755 0.65224 0.0
C3500 C 0.75351 0.10342 0.66634 0.0
C3501 C 0.74181 0.14529 0.62761 0.0
C3502 C 0.72795 0.1352 0.63534 0.0
C3503 C 0.7323 0.1216 0.64772 0.0
C3504 C 0.70889 0.13829 0.63069 0.0
C3505 C 0.73822 0.161 0.61531 0.0
C3506 C 0.69619 0.14047 0.64432 0.0
C3507 C 0.67813 0.14163 0.64017 0.0
C3508 C 0.67227 0.14075 0.62225 0.0
C3509 C 0.68503 0.13925 0.60856 0.0
C3510 C 0.70309 0.13785 0.61274 0.0
H3511 H 0.74924 0.17077 0.61565 0.0
H3512 H 0.73703 0.15607 0.60131 0.0
H3513 H 0.72578 0.16813 0.61898 0.0
H3514 H 0.70021 0.14086 0.65827 0.0
H3515 H 0.6687 0.14268 0.65108 0.0
H3516 H 0.32518 0.1927 0.10964 0.0
H3517 H 0.33029 0.22473 0.11463 0.0
H3518 H 0.38616 0.21644 0.10601 0.0
H3519 H 0.38117 0.18467 0.10056 0.0
H3520 H 0.3494 0.23879 0.14159 0.0
H3521 H 0.37822 0.26121 0.07724 0.0
H3522 H 0.36708 0.24001 0.07951 0.0
H3523 H 0.38984 0.24217 0.08626 0.0
C3524 C 0.3385 0.19777 0.10828 0.0
C3525 C 0.35274 0.18602 0.10465 0.0
C3526 C 0.34141 0.2161 0.11127 0.0
C3527 C 0.35861 0.22311 0.1106 0.0
C3528 C 0.37273 0.21154 0.10625 0.0
H3529 H 0.40996 0.32268 0.14016 0.0
H3530 H 0.40261 0.29128 0.13424 0.0
C3531 C 0.36983 0.19327 0.10318 0.0
C3532 C 0.36203 0.24209 0.11589 0.0
H3533 H 0.38261 0.28054 0.10252 0.0
C3534 C 0.35649 0.24797 0.13295 0.0
C3535 C 0.37135 0.25412 0.10469 0.0
C3536 C 0.3768 0.24912 0.08584 0.0
C3537 C 0.36039 0.2653 0.13925 0.0
C3538 C 0.37001 0.27715 0.12818 0.0
C3539 C 0.3754 0.27137 0.11108 0.0
C3540 C 0.37431 0.29575 0.13388 0.0
C3541 C 0.35455 0.27071 0.15785 0.0
C3542 C 0.36083 0.30865 0.13603 0.0
C3543 C 0.36497 0.32662 0.1394 0.0
C3544 C 0.38272 0.33211 0.1407 0.0
C3545 C 0.39616 0.31897 0.1394 0.0
C3546 C 0.39199 0.30101 0.13588 0.0
H3547 H 0.35065 0.25893 0.16605 0.0
H3548 H 0.36526 0.27796 0.16493 0.0
H3549 H 0.34297 0.27991 0.15682 0.0
H3550 H 0.3471 0.30496 0.13435 0.0
H3551 H 0.35427 0.33635 0.14022 0.0
H3552 H 0.08067 0.37263 0.1756 0.0
H3553 H 0.08771 0.37848 0.20713 0.0
H3554 H 0.14335 0.37799 0.19445 0.0
H3555 H 0.13645 0.37257 0.16289 0.0
H3556 H 0.10712 0.36143 0.23292 0.0
H3557 H 0.13766 0.42699 0.21715 0.0
H3558 H 0.12521 0.41446 0.20082 0.0
H3559 H 0.14781 0.40843 0.20563 0.0
C3560 C 0.09442 0.37346 0.17955 0.0
C3561 C 0.10797 0.37228 0.16663 0.0
C3562 C 0.09843 0.37691 0.19759 0.0
C3563 C 0.11604 0.37922 0.2031 0.0
C3564 C 0.12963 0.37684 0.19046 0.0
H3565 H 0.16435 0.40104 0.3072 0.0
H3566 H 0.15893 0.39565 0.27521 0.0
C3567 C 0.12565 0.37353 0.17241 0.0
C3568 C 0.12013 0.38454 0.22194 0.0
H3569 H 0.14012 0.41691 0.24728 0.0
C3570 C 0.11428 0.37359 0.23604 0.0
C3571 C 0.12945 0.40046 0.22606 0.0
C3572 C 0.13526 0.41336 0.21164 0.0
C3573 C 0.11769 0.37796 0.25407 0.0
C3574 C 0.12705 0.39383 0.25816 0.0
C3575 C 0.13299 0.40475 0.2441 0.0
C3576 C 0.13058 0.39928 0.27701 0.0
C3577 C 0.11146 0.36545 0.26864 0.0
C3578 C 0.11654 0.40393 0.28845 0.0
C3579 C 0.11958 0.40716 0.30669 0.0
C3580 C 0.13676 0.40578 0.31391 0.0
C3581 C 0.15096 0.40224 0.30215 0.0
C3582 C 0.14788 0.39907 0.28386 0.0
H3583 H 0.1079 0.35206 0.26324 0.0
H3584 H 0.12181 0.36366 0.27907 0.0
H3585 H 0.09956 0.37132 0.27518 0.0
H3586 H 0.10311 0.40449 0.28338 0.0
H3587 H 0.10831 0.40992 0.31526 0.0
H3588 H 0.12572 0.60466 0.68893 0.0
H3589 H 0.12034 0.61066 0.7207 0.0
H3590 H 0.17638 0.61544 0.72972 0.0
H3591 H 0.18198 0.6095 0.69783 0.0
H3592 H 0.15566 0.59532 0.75734 0.0
H3593 H 0.12797 0.66278 0.74116 0.0
H3594 H 0.11889 0.64427 0.72882 0.0
H3595 H 0.14162 0.65023 0.72562 0.0
C3596 C 0.13698 0.60664 0.69767 0.0
C3597 C 0.15431 0.6067 0.69069 0.0
C3598 C 0.13384 0.61022 0.71584 0.0
C3599 C 0.14792 0.61386 0.72751 0.0
C3600 C 0.1653 0.61281 0.72091 0.0
H3601 H 0.15286 0.63899 0.84221 0.0
H3602 H 0.1602 0.63311 0.8108 0.0
C3603 C 0.16848 0.60932 0.70267 0.0
C3604 C 0.1444 0.61952 0.74635 0.0
H3605 H 0.12614 0.65341 0.77141 0.0
C3606 C 0.1493 0.60805 0.76045 0.0
C3607 C 0.13602 0.63611 0.75037 0.0
C3608 C 0.1309 0.64918 0.73575 0.0
C3609 C 0.14566 0.61251 0.77846 0.0
C3610 C 0.13734 0.62918 0.78253 0.0
C3611 C 0.13254 0.64068 0.76836 0.0
C3612 C 0.13316 0.63472 0.80134 0.0
C3613 C 0.15024 0.59902 0.79288 0.0
C3614 C 0.11567 0.63881 0.80639 0.0
C3615 C 0.11145 0.64255 0.82435 0.0
C3616 C 0.12466 0.64226 0.83767 0.0
C3617 C 0.14231 0.6392 0.83237 0.0
C3618 C 0.14652 0.63561 0.81441 0.0
H3619 H 0.15174 0.58525 0.7873 0.0
H3620 H 0.16301 0.60272 0.79915 0.0
H3621 H 0.13995 0.59879 0.80351 0.0
H3622 H 0.10513 0.63841 0.79655 0.0
H3623 H 0.09772 0.64479 0.82791 0.0
H3624 H 0.92428 0.63136 0.17771 0.0
H3625 H 0.91773 0.62523 0.2093 0.0
H3626 H 0.86189 0.62959 0.19825 0.0
H3627 H 0.86827 0.63537 0.16664 0.0
H3628 H 0.89969 0.64297 0.23612 0.0
H3629 H 0.86558 0.5795 0.21942 0.0
H3630 H 0.87846 0.59172 0.20318 0.0
H3631 H 0.85628 0.59887 0.20849 0.0
C3632 C 0.9106 0.63134 0.18204 0.0
C3633 C 0.89681 0.63371 0.16954 0.0
C3634 C 0.90687 0.62773 0.20011 0.0
C3635 C 0.8893 0.62641 0.20607 0.0
C3636 C 0.87554 0.62999 0.19389 0.0
H3637 H 0.84085 0.60357 0.3097 0.0
H3638 H 0.84656 0.60936 0.27785 0.0
C3639 C 0.87924 0.6335 0.17582 0.0
C3640 C 0.88536 0.62083 0.22487 0.0
H3641 H 0.86421 0.58893 0.24982 0.0
C3642 C 0.89199 0.63112 0.2391 0.0
C3643 C 0.87534 0.6053 0.2288 0.0
C3644 C 0.86864 0.5931 0.21419 0.0
C3645 C 0.88863 0.62653 0.25709 0.0
C3646 C 0.87857 0.61107 0.26101 0.0
C3647 C 0.8719 0.60078 0.24681 0.0
C3648 C 0.87488 0.60545 0.2798 0.0
C3649 C 0.8956 0.63847 0.27179 0.0
C3650 C 0.88878 0.60048 0.2913 0.0
C3651 C 0.88556 0.59704 0.30947 0.0
C3652 C 0.86833 0.59849 0.31658 0.0
C3653 C 0.85427 0.60232 0.30475 0.0
C3654 C 0.85752 0.60573 0.28653 0.0
H3655 H 0.89943 0.65187 0.26661 0.0
H3656 H 0.88559 0.64034 0.28255 0.0
H3657 H 0.9075 0.63209 0.27785 0.0
H3658 H 0.90223 0.59979 0.28632 0.0
H3659 H 0.89673 0.59404 0.3181 0.0
H3660 H 0.85454 0.36145 0.83558 0.0
H3661 H 0.84755 0.36671 0.80399 0.0
H3662 H 0.9031 0.36468 0.791 0.0
H3663 H 0.9102 0.35905 0.82254 0.0
H3664 H 0.85725 0.39558 0.78448 0.0
H3665 H 0.88299 0.33402 0.7515 0.0
H3666 H 0.87985 0.33552 0.77547 0.0
H3667 H 0.89918 0.34496 0.76517 0.0
C3668 C 0.86528 0.36168 0.82597 0.0
C3669 C 0.88296 0.35974 0.83168 0.0
C3670 C 0.86125 0.3648 0.80788 0.0
C3671 C 0.87476 0.36602 0.795 0.0
C3672 C 0.89238 0.36346 0.80054 0.0
H3673 H 0.87913 0.39516 0.68206 0.0
H3674 H 0.88555 0.38944 0.71369 0.0
C3675 C 0.89644 0.36024 0.81865 0.0
C3676 C 0.87045 0.37123 0.77612 0.0
H3677 H 0.87546 0.35848 0.7323 0.0
C3678 C 0.86113 0.38738 0.77309 0.0
C3679 C 0.87553 0.36062 0.76118 0.0
C3680 C 0.88479 0.34273 0.76345 0.0
C3681 C 0.85707 0.39334 0.75562 0.0
C3682 C 0.86226 0.38279 0.7407 0.0
C3683 C 0.87154 0.36663 0.74371 0.0
C3684 C 0.85814 0.38813 0.72185 0.0
C3685 C 0.8476 0.4111 0.75326 0.0
C3686 C 0.84056 0.3897 0.71587 0.0
C3687 C 0.8368 0.39305 0.69773 0.0
C3688 C 0.85056 0.39482 0.68512 0.0
C3689 C 0.86816 0.39395 0.69132 0.0
C3690 C 0.87188 0.39057 0.70943 0.0
H3691 H 0.84855 0.41959 0.76548 0.0
H3692 H 0.85307 0.41864 0.74169 0.0
H3693 H 0.83339 0.40864 0.7506 0.0
H3694 H 0.82971 0.38762 0.72511 0.0
H3695 H 0.82311 0.39345 0.69347 0.0
H3696 H 0.67894 0.85299 0.64997 0.0
H3697 H 0.71058 0.85444 0.65659 0.0
H3698 H 0.72164 0.86208 0.60033 0.0
H3699 H 0.69011 0.85982 0.59355 0.0
H3700 H 0.74639 0.84196 0.61434 0.0
H3701 H 0.7368 0.90034 0.65944 0.0
H3702 H 0.72518 0.88089 0.66701 0.0
H3703 H 0.71909 0.89138 0.64608 0.0
C3704 C 0.68813 0.85467 0.63896 0.0
C3705 C 0.68192 0.85637 0.62122 0.0
C3706 C 0.70625 0.85574 0.6428 0.0
C3707 C 0.71857 0.859 0.62907 0.0
C3708 C 0.71247 0.85974 0.61124 0.0
H3709 H 0.82221 0.9069 0.63997 0.0
H3710 H 0.79067 0.90043 0.63761 0.0
C3711 C 0.69438 0.85837 0.60735 0.0
C3712 C 0.7377 0.86208 0.63319 0.0
H3713 H 0.76574 0.88795 0.65809 0.0
C3714 C 0.75059 0.85202 0.62392 0.0
C3715 C 0.74333 0.87544 0.64546 0.0
C3716 C 0.73039 0.88776 0.65493 0.0
C3717 C 0.7688 0.85493 0.62649 0.0
C3718 C 0.77443 0.86785 0.63923 0.0
C3719 C 0.76153 0.87788 0.64852 0.0
C3720 C 0.79356 0.87187 0.64236 0.0
C3721 C 0.78176 0.84458 0.61495 0.0
C3722 C 0.80579 0.85817 0.64659 0.0
C3723 C 0.82393 0.86182 0.64772 0.0
C3724 C 0.83024 0.87935 0.64511 0.0
C3725 C 0.81786 0.89326 0.64213 0.0
C3726 C 0.79976 0.88955 0.64071 0.0
H3727 H 0.77539 0.83944 0.60255 0.0
H3728 H 0.79313 0.85304 0.611 0.0
H3729 H 0.78685 0.83284 0.62258 0.0
H3730 H 0.80138 0.84454 0.64861 0.0
H3731 H 0.83305 0.8508 0.65017 0.0
H3732 H 0.66783 0.17989 0.10225 0.0
H3733 H 0.66105 0.21172 0.10724 0.0
H3734 H 0.60533 0.20075 0.1033 0.0
H3735 H 0.61189 0.16896 0.09836 0.0
H3736 H 0.64049 0.23823 0.08755 0.0
H3737 H 0.6114 0.22263 0.15418 0.0
H3738 H 0.625 0.20676 0.14197 0.0
H3739 H 0.60232 0.21037 0.13561 0.0
C3740 C 0.65414 0.18427 0.10204 0.0
C3741 C 0.64043 0.17175 0.10004 0.0
C3742 C 0.65029 0.20249 0.10499 0.0
C3743 C 0.63267 0.20854 0.10609 0.0
C3744 C 0.61901 0.19632 0.10289 0.0
H3745 H 0.58224 0.31041 0.13443 0.0
H3746 H 0.58902 0.27881 0.12809 0.0
C3747 C 0.62282 0.17814 0.0999 0.0
C3748 C 0.62856 0.2274 0.11136 0.0
H3749 H 0.60935 0.25277 0.14444 0.0
C3750 C 0.63373 0.24143 0.1 0.0
C3751 C 0.61971 0.23156 0.12761 0.0
C3752 C 0.61438 0.21709 0.14066 0.0
C3753 C 0.63 0.25948 0.10428 0.0
C3754 C 0.62125 0.26367 0.12062 0.0
C3755 C 0.61606 0.2496 0.13196 0.0
C3756 C 0.61731 0.28255 0.1261 0.0
C3757 C 0.63506 0.27385 0.09101 0.0
C3758 C 0.63098 0.29505 0.12791 0.0
C3759 C 0.62715 0.31311 0.13151 0.0
C3760 C 0.60954 0.31909 0.13361 0.0
C3761 C 0.59594 0.30632 0.13293 0.0
C3762 C 0.5998 0.28824 0.12921 0.0
H3763 H 0.63696 0.26827 0.07731 0.0
H3764 H 0.62484 0.28463 0.0904 0.0
H3765 H 0.64774 0.27993 0.09525 0.0
H3766 H 0.64464 0.29092 0.12613 0.0
H3767 H 0.63798 0.32251 0.13208 0.0
H3768 H 0.16925 0.15152 0.65075 0.0
H3769 H 0.20084 0.15803 0.64865 0.0
H3770 H 0.21179 0.10229 0.63716 0.0
H3771 H 0.18032 0.09556 0.63993 0.0
H3772 H 0.23692 0.11518 0.65763 0.0
H3773 H 0.22596 0.16316 0.60184 0.0
H3774 H 0.21462 0.16963 0.62199 0.0
H3775 H 0.20854 0.14929 0.61057 0.0
C3776 C 0.17841 0.14057 0.64808 0.0
C3777 C 0.17217 0.12302 0.64541 0.0
C3778 C 0.19649 0.14437 0.64665 0.0
C3779 C 0.20874 0.13079 0.64213 0.0
C3780 C 0.20265 0.11308 0.64047 0.0
H3781 H 0.31195 0.14306 0.59253 0.0
H3782 H 0.28039 0.14064 0.5993 0.0
C3783 C 0.18461 0.10922 0.64215 0.0
C3784 C 0.22777 0.13499 0.63869 0.0
H3785 H 0.25517 0.16099 0.61319 0.0
C3786 C 0.24089 0.12522 0.64792 0.0
C3787 C 0.23307 0.14786 0.62576 0.0
C3788 C 0.21983 0.15795 0.61433 0.0
C3789 C 0.25902 0.12791 0.64464 0.0
C3790 C 0.26432 0.14123 0.63218 0.0
C3791 C 0.2512 0.15098 0.62292 0.0
C3792 C 0.28336 0.1446 0.62794 0.0
C3793 C 0.27224 0.11593 0.65412 0.0
C3794 C 0.29558 0.14847 0.64159 0.0
C3795 C 0.31368 0.14968 0.63777 0.0
C3796 C 0.31998 0.14746 0.62011 0.0
C3797 C 0.3076 0.14491 0.60626 0.0
C3798 C 0.28951 0.14344 0.61015 0.0
H3799 H 0.26608 0.10332 0.65891 0.0
H3800 H 0.28349 0.11236 0.64519 0.0
H3801 H 0.2775 0.12306 0.66603 0.0
H3802 H 0.29118 0.15009 0.65533 0.0
H3803 H 0.32281 0.15179 0.64875 0.0
H3804 H 0.33219 0.82329 0.10412 0.0
H3805 H 0.33855 0.79136 0.10906 0.0
H3806 H 0.39426 0.80113 0.10246 0.0
H3807 H 0.38811 0.83299 0.09751 0.0
H3808 H 0.35821 0.76426 0.08844 0.0
H3809 H 0.38944 0.77993 0.15406 0.0
H3810 H 0.3755 0.79581 0.14225 0.0
H3811 H 0.39792 0.79205 0.1351 0.0
C3812 C 0.34577 0.81861 0.1033 0.0
C3813 C 0.35963 0.83082 0.10056 0.0
C3814 C 0.34938 0.80034 0.10622 0.0
C3815 C 0.36691 0.79395 0.10656 0.0
C3816 C 0.38066 0.80584 0.10263 0.0
H3817 H 0.41738 0.69201 0.13391 0.0
H3818 H 0.4105 0.72362 0.12779 0.0
C3819 C 0.37708 0.82406 0.09965 0.0
C3820 C 0.37089 0.77507 0.11184 0.0
H3821 H 0.39079 0.7497 0.14449 0.0
C3822 C 0.36528 0.76105 0.10071 0.0
C3823 C 0.38016 0.77092 0.12786 0.0
C3824 C 0.38601 0.78542 0.14063 0.0
C3825 C 0.36898 0.743 0.10497 0.0
C3826 C 0.37814 0.73881 0.12108 0.0
C3827 C 0.38375 0.75287 0.13219 0.0
C3828 C 0.38217 0.71993 0.12648 0.0
C3829 C 0.36346 0.72862 0.0919 0.0
C3830 C 0.36852 0.70745 0.12864 0.0
C3831 C 0.37241 0.68938 0.13211 0.0
C3832 C 0.39005 0.68338 0.13375 0.0
C3833 C 0.40365 0.69613 0.13277 0.0
C3834 C 0.39974 0.71421 0.12917 0.0
H3835 H 0.36124 0.73417 0.07823 0.0
H3836 H 0.37358 0.71776 0.09104 0.0
H3837 H 0.35086 0.72264 0.09651 0.0
H3838 H 0.35483 0.71161 0.1272 0.0
H3839 H 0.36158 0.67999 0.13292 0.0
H3840 H 0.67464 0.11518 0.38791 0.0
H3841 H 0.70621 0.10843 0.38527 0.0
H3842 H 0.71661 0.1643 0.37503 0.0
H3843 H 0.68506 0.17124 0.37789 0.0
H3844 H 0.7261 0.11298 0.35508 0.0
H3845 H 0.75508 0.15187 0.41104 0.0
H3846 H 0.73172 0.14728 0.4096 0.0
H3847 H 0.74118 0.16514 0.39661 0.0
C3848 C 0.68365 0.12615 0.38554 0.0
C3849 C 0.6772 0.1438 0.38317 0.0
C3850 C 0.70174 0.12222 0.38392 0.0
C3851 C 0.71388 0.13583 0.38001 0.0
C3852 C 0.70761 0.15358 0.37836 0.0
H3853 H 0.81719 0.12554 0.32937 0.0
H3854 H 0.78552 0.12816 0.33562 0.0
C3855 C 0.68949 0.15754 0.38 0.0
C3856 C 0.73283 0.13122 0.37639 0.0
H3857 H 0.77522 0.14065 0.38902 0.0
C3858 C 0.73683 0.11895 0.36259 0.0
C3859 C 0.74689 0.13884 0.38627 0.0
C3860 C 0.74355 0.15138 0.40182 0.0
C3861 C 0.75442 0.1144 0.35817 0.0
C3862 C 0.76849 0.12251 0.36761 0.0
C3863 C 0.76449 0.13449 0.38167 0.0
C3864 C 0.78747 0.11896 0.36311 0.0
C3865 C 0.75774 0.10075 0.34357 0.0
C3866 C 0.79921 0.11272 0.37637 0.0
C3867 C 0.81737 0.11122 0.37283 0.0
C3868 C 0.82429 0.11605 0.35596 0.0
C3869 C 0.81238 0.12151 0.34244 0.0
C3870 C 0.7942 0.12303 0.34601 0.0
H3871 H 0.74604 0.09211 0.34138 0.0
H3872 H 0.76053 0.10786 0.3308 0.0
H3873 H 0.7693 0.09205 0.34682 0.0
H3874 H 0.79438 0.10948 0.38966 0.0
H3875 H 0.82607 0.10704 0.38363 0.0
H3876 H 0.35536 0.31358 0.87021 0.0
H3877 H 0.34886 0.2819 0.87548 0.0
H3878 H 0.40453 0.26916 0.87341 0.0
H3879 H 0.41121 0.30083 0.86816 0.0
H3880 H 0.35795 0.24959 0.85567 0.0
H3881 H 0.38814 0.25118 0.92363 0.0
H3882 H 0.38234 0.27133 0.91143 0.0
H3883 H 0.40202 0.25893 0.9057 0.0
C3884 C 0.36624 0.30403 0.87059 0.0
C3885 C 0.38384 0.30984 0.86886 0.0
C3886 C 0.36248 0.28591 0.87365 0.0
C3887 C 0.37622 0.27321 0.8752 0.0
C3888 C 0.39373 0.27878 0.87258 0.0
H3889 H 0.38449 0.16036 0.90092 0.0
H3890 H 0.38901 0.19238 0.89609 0.0
C3891 C 0.39752 0.29689 0.86942 0.0
C3892 C 0.37226 0.2543 0.88013 0.0
H3893 H 0.37861 0.22292 0.91307 0.0
C3894 C 0.36239 0.24376 0.86824 0.0
C3895 C 0.37802 0.24673 0.89657 0.0
C3896 C 0.3881 0.25762 0.91018 0.0
C3897 C 0.35856 0.2257 0.8721 0.0
C3898 C 0.36436 0.21809 0.88855 0.0
C3899 C 0.3741 0.22873 0.9005 0.0
C3900 C 0.36121 0.19889 0.8932 0.0
C3901 C 0.34887 0.21479 0.85822 0.0
C3902 C 0.34401 0.19191 0.89399 0.0
C3903 C 0.34135 0.1735 0.89674 0.0
C3904 C 0.35585 0.1617 0.89892 0.0
C3905 C 0.37298 0.16897 0.89926 0.0
C3906 C 0.37562 0.18732 0.89644 0.0
H3907 H 0.34944 0.22111 0.84472 0.0
H3908 H 0.35448 0.201 0.85726 0.0
H3909 H 0.33476 0.21378 0.86212 0.0
H3910 H 0.33263 0.20063 0.89205 0.0
H3911 H 0.32797 0.16843 0.89646 0.0
H3912 H 0.18602 0.87636 0.32937 0.0
H3913 H 0.21763 0.87345 0.33593 0.0
H3914 H 0.20818 0.89066 0.39035 0.0
H3915 H 0.17655 0.89334 0.38402 0.0
H3916 H 0.24388 0.89568 0.34833 0.0
H3917 H 0.23112 0.84154 0.39768 0.0
H3918 H 0.21429 0.84994 0.38263 0.0
H3919 H 0.21983 0.86228 0.40256 0.0
C3920 C 0.19067 0.8799 0.34264 0.0
C3921 C 0.17862 0.88492 0.3562 0.0
C3922 C 0.20879 0.87813 0.3464 0.0
C3923 C 0.21527 0.88133 0.36378 0.0
C3924 C 0.20347 0.88762 0.37697 0.0
H3925 H 0.32829 0.88535 0.38969 0.0
H3926 H 0.29675 0.89222 0.38684 0.0
C3927 C 0.18536 0.88933 0.37326 0.0
C3928 C 0.23417 0.87734 0.36825 0.0
H3929 H 0.26072 0.85132 0.39513 0.0
C3930 C 0.24755 0.88603 0.3586 0.0
C3931 C 0.23902 0.86448 0.38144 0.0
C3932 C 0.22534 0.85388 0.39157 0.0
C3933 C 0.26558 0.88236 0.36186 0.0
C3934 C 0.27043 0.86987 0.3754 0.0
C3935 C 0.25704 0.86106 0.38493 0.0
C3936 C 0.28932 0.86527 0.37931 0.0
C3937 C 0.27924 0.89154 0.35039 0.0
C3938 C 0.29559 0.84757 0.37716 0.0
C3939 C 0.31365 0.84351 0.37904 0.0
C3940 C 0.32587 0.85707 0.38315 0.0
C3941 C 0.31935 0.87455 0.38643 0.0
C3942 C 0.30129 0.87857 0.3846 0.0
H3943 H 0.2734 0.89698 0.33781 0.0
H3944 H 0.28493 0.90292 0.35799 0.0
H3945 H 0.29017 0.88214 0.34682 0.0
H3946 H 0.28661 0.83702 0.37326 0.0
H3947 H 0.31813 0.82992 0.37638 0.0
H3948 H 0.6509 0.68436 0.87156 0.0
H3949 H 0.65786 0.71595 0.8766 0.0
H3950 H 0.60241 0.72962 0.87369 0.0
H3951 H 0.59534 0.69812 0.86822 0.0
H3952 H 0.62262 0.75435 0.85668 0.0
H3953 H 0.65053 0.74086 0.92426 0.0
H3954 H 0.6613 0.72853 0.90662 0.0
H3955 H 0.63849 0.72419 0.91179 0.0
C3956 C 0.64017 0.6941 0.87174 0.0
C3957 C 0.62252 0.6886 0.86959 0.0
C3958 C 0.64418 0.71217 0.87483 0.0
C3959 C 0.63063 0.72515 0.87608 0.0
C3960 C 0.6131 0.71986 0.87299 0.0
H3961 H 0.62135 0.83858 0.90169 0.0
H3962 H 0.61649 0.80658 0.89685 0.0
C3963 C 0.60907 0.70181 0.86979 0.0
C3964 C 0.63464 0.74415 0.88084 0.0
H3965 H 0.65317 0.77061 0.91327 0.0
C3966 C 0.62926 0.75788 0.86907 0.0
C3967 C 0.64329 0.74883 0.89706 0.0
C3968 C 0.6486 0.73486 0.91075 0.0
C3969 C 0.63244 0.77605 0.87295 0.0
C3970 C 0.64105 0.78071 0.88915 0.0
C3971 C 0.64658 0.76702 0.90086 0.0
C3972 C 0.64422 0.79977 0.89415 0.0
C3973 C 0.62676 0.79015 0.85954 0.0
C3974 C 0.6615 0.80647 0.89517 0.0
C3975 C 0.66437 0.82484 0.89803 0.0
C3976 C 0.65001 0.83684 0.90004 0.0
C3977 C 0.63276 0.82982 0.90014 0.0
C3978 C 0.62992 0.81151 0.89722 0.0
H3979 H 0.62411 0.78427 0.84611 0.0
H3980 H 0.61441 0.79675 0.86432 0.0
H3981 H 0.63702 0.80063 0.85813 0.0
H3982 H 0.67274 0.79762 0.89299 0.0
H3983 H 0.67782 0.82972 0.89785 0.0
H3984 H 0.90487 0.64786 0.81003 0.0
H3985 H 0.89693 0.64405 0.7783 0.0
H3986 H 0.86437 0.59889 0.79241 0.0
H3987 H 0.87118 0.60351 0.82395 0.0
H3988 H 0.90297 0.6198 0.75571 0.0
H3989 H 0.83037 0.62262 0.76092 0.0
H3990 H 0.84439 0.62822 0.77959 0.0
H3991 H 0.83867 0.60515 0.77516 0.0
C3992 C 0.89572 0.63739 0.80633 0.0
C3993 C 0.8884 0.62622 0.81953 0.0
C3994 C 0.89123 0.63514 0.78818 0.0
C3995 C 0.87964 0.62142 0.78282 0.0
C3996 C 0.87268 0.61006 0.79606 0.0
H3997 H 0.88102 0.58122 0.67202 0.0
H3998 H 0.88556 0.58521 0.70433 0.0
C3999 C 0.87672 0.61265 0.81417 0.0
C4000 C 0.87556 0.6183 0.7634 0.0
H4001 H 0.842 0.60852 0.73434 0.0
C4002 C 0.88959 0.61758 0.75103 0.0
C4003 C 0.85809 0.61568 0.75702 0.0
C4004 C 0.84205 0.61818 0.76887 0.0
C4005 C 0.88673 0.61407 0.7327 0.0
C4006 C 0.86941 0.61013 0.72659 0.0
C4007 C 0.85535 0.61113 0.73892 0.0
C4008 C 0.86539 0.60587 0.70736 0.0
C4009 C 0.90232 0.61529 0.72011 0.0
C4010 C 0.85154 0.61491 0.69845 0.0
C4011 C 0.84835 0.61194 0.6802 0.0
C4012 C 0.85917 0.60013 0.67028 0.0
C4013 C 0.87252 0.59047 0.67929 0.0
C4014 C 0.87533 0.59301 0.69773 0.0
H4015 H 0.91276 0.62413 0.72563 0.0
H4016 H 0.90827 0.60174 0.71832 0.0
H4017 H 0.89831 0.6206 0.70678 0.0
H4018 H 0.84354 0.62481 0.70545 0.0
H4019 H 0.83808 0.61975 0.67362 0.0
H4020 H 0.87566 0.39713 0.33285 0.0
H4021 H 0.88105 0.39162 0.301 0.0
H4022 H 0.82518 0.38466 0.29235 0.0
H4023 H 0.81959 0.39014 0.32429 0.0
H4024 H 0.87155 0.35863 0.28353 0.0
H4025 H 0.84064 0.41809 0.25065 0.0
H4026 H 0.8469 0.41799 0.27405 0.0
H4027 H 0.82722 0.40673 0.26694 0.0
C4028 C 0.86442 0.39485 0.32416 0.0
C4029 C 0.84715 0.39411 0.33125 0.0
C4030 C 0.86757 0.39159 0.30592 0.0
C4031 C 0.85355 0.38773 0.29425 0.0
C4032 C 0.83621 0.3878 0.30105 0.0
H4033 H 0.84942 0.36119 0.1802 0.0
H4034 H 0.84231 0.36628 0.21182 0.0
C4035 C 0.83303 0.39097 0.31935 0.0
C4036 C 0.85725 0.38236 0.27533 0.0
H4037 H 0.85082 0.39479 0.23165 0.0
C4038 C 0.86706 0.36656 0.27217 0.0
C4039 C 0.85126 0.3926 0.26051 0.0
C4040 C 0.84102 0.40988 0.2631 0.0
C4041 C 0.87088 0.36062 0.25464 0.0
C4042 C 0.86515 0.37102 0.23978 0.0
C4043 C 0.85523 0.38678 0.24297 0.0
C4044 C 0.86952 0.36605 0.22083 0.0
C4045 C 0.88067 0.34304 0.25227 0.0
C4046 C 0.88718 0.36384 0.21527 0.0
C4047 C 0.89129 0.36068 0.19718 0.0
C4048 C 0.87784 0.35993 0.18414 0.0
C4049 C 0.86014 0.36162 0.18983 0.0
C4050 C 0.85604 0.36464 0.20794 0.0
H4051 H 0.87905 0.33419 0.26415 0.0
H4052 H 0.87602 0.33576 0.24018 0.0
H4053 H 0.895 0.34572 0.2507 0.0
H4054 H 0.89789 0.36526 0.22481 0.0
H4055 H 0.90508 0.3597 0.19331 0.0
H4056 H 0.13929 0.3746 0.81949 0.0
H4057 H 0.14606 0.37993 0.78783 0.0
H4058 H 0.09038 0.3807 0.77547 0.0
H4059 H 0.08343 0.37536 0.80713 0.0
H4060 H 0.13561 0.36074 0.75509 0.0
H4061 H 0.10955 0.43068 0.75863 0.0
H4062 H 0.11504 0.41778 0.77842 0.0
H4063 H 0.09492 0.41345 0.76645 0.0
C4064 C 0.12846 0.3756 0.81002 0.0
C4065 C 0.11079 0.37465 0.81592 0.0
C4066 C 0.13238 0.37869 0.79192 0.0
C4067 C 0.11873 0.38105 0.77937 0.0
C4068 C 0.10111 0.3792 0.785 0.0
H4069 H 0.11193 0.40967 0.66739 0.0
H4070 H 0.10727 0.40493 0.6994 0.0
C4071 C 0.09717 0.37598 0.8031 0.0
C4072 C 0.12294 0.38611 0.76055 0.0
H4073 H 0.11879 0.42026 0.73015 0.0
C4074 C 0.13201 0.37376 0.74962 0.0
C4075 C 0.11825 0.40313 0.75349 0.0
C4076 C 0.10902 0.41714 0.76484 0.0
C4077 C 0.13608 0.37779 0.73164 0.0
C4078 C 0.13141 0.39485 0.72454 0.0
C4079 C 0.12246 0.40724 0.73558 0.0
C4080 C 0.13482 0.39971 0.70545 0.0
C4081 C 0.14481 0.36347 0.72027 0.0
C4082 C 0.15201 0.39922 0.69824 0.0
C4083 C 0.15475 0.40189 0.67981 0.0
C4084 C 0.14037 0.40527 0.66826 0.0
C4085 C 0.12335 0.40704 0.6758 0.0
C4086 C 0.12062 0.40428 0.69416 0.0
H4087 H 0.14335 0.3499 0.72625 0.0
H4088 H 0.13913 0.36331 0.70652 0.0
H4089 H 0.15915 0.36628 0.71918 0.0
H4090 H 0.16326 0.39626 0.70676 0.0
H4091 H 0.16804 0.40051 0.67453 0.0
H4092 H 0.13031 0.60194 0.33645 0.0
H4093 H 0.12516 0.60676 0.30456 0.0
H4094 H 0.18131 0.61132 0.29575 0.0
H4095 H 0.1866 0.60699 0.32792 0.0
H4096 H 0.16371 0.63884 0.28061 0.0
H4097 H 0.13058 0.57598 0.26093 0.0
H4098 H 0.11977 0.58652 0.27962 0.0
H4099 H 0.14212 0.57824 0.282 0.0
C4100 C 0.14166 0.60353 0.32773 0.0
C4101 C 0.15891 0.60402 0.33486 0.0
C4102 C 0.13866 0.60623 0.30939 0.0
C4103 C 0.15283 0.60924 0.29761 0.0
C4104 C 0.17014 0.609 0.30453 0.0
H4105 H 0.1563 0.63453 0.18312 0.0
H4106 H 0.16392 0.62862 0.2145 0.0
C4107 C 0.17316 0.60638 0.32294 0.0
C4108 C 0.14941 0.61404 0.27844 0.0
H4109 H 0.12722 0.60084 0.24073 0.0
C4110 C 0.1559 0.63041 0.27184 0.0
C4111 C 0.13917 0.60312 0.26692 0.0
C4112 C 0.13267 0.58491 0.27267 0.0
C4113 C 0.15206 0.63632 0.25431 0.0
C4114 C 0.14149 0.62559 0.243 0.0
C4115 C 0.13516 0.60915 0.24948 0.0
C4116 C 0.13707 0.63098 0.22428 0.0
C4117 C 0.15896 0.65421 0.24811 0.0
C4118 C 0.11945 0.63453 0.21934 0.0
C4119 C 0.11504 0.63808 0.20139 0.0
C4120 C 0.12814 0.63787 0.18795 0.0
C4121 C 0.14586 0.63487 0.19308 0.0
C4122 C 0.15027 0.63149 0.21104 0.0
H4123 H 0.16391 0.66244 0.25946 0.0
H4124 H 0.17005 0.65196 0.23859 0.0
H4125 H 0.14847 0.66191 0.24095 0.0
H4126 H 0.10905 0.63417 0.22933 0.0
H4127 H 0.10126 0.64017 0.19795 0.0
loop_
_geom_bond_atom_site_label_1
_geom_bond_atom_site_label_2
_geom_bond_distance
_geom_bond_site_symmetry_2
_ccdc_geom_bond_type
Zn0 O3 2.031 . S
Zn0 O5 2.049 . S
Zn0 O10 2.067 . S
Zn1 O2 1.962 . S
Zn1 O4 1.986 . S
Zn1 O6 1.996 . S
Zn1 O9 1.943 . S
O2 Zn1 1.962 . S
O2 C7 1.254 . S
O3 Zn0 2.031 . S
O3 C7 1.269 . S
O4 Zn1 1.986 . S
O4 C11 1.262 . S
O5 Zn0 2.049 . S
O5 C13 1.260 . S
O6 Zn1 1.996 . S
O6 C13 1.257 . S
C7 O2 1.254 . S
C7 O3 1.269 . S
C8 O9 1.249 . S
C8 O10 1.270 . S
O9 Zn1 1.943 . S
O9 C8 1.249 . S
O10 Zn0 2.067 . S
O10 C8 1.270 . S
C11 O4 1.262 . S
C11 O12 1.232 . S
O12 C11 1.232 . S
C13 O5 1.260 . S
C13 O6 1.257 . S
Zn14 O17 2.031 . S
Zn14 O19 2.049 . S
Zn14 O24 2.067 . S
Zn15 O16 1.962 . S
Zn15 O18 1.986 . S
Zn15 O20 1.996 . S
Zn15 O23 1.943 . S
O16 Zn15 1.962 . S
O16 C21 1.254 . S
O17 Zn14 2.031 . S
O17 C21 1.269 . S
O18 Zn15 1.986 . S
O18 C25 1.262 . S
O19 Zn14 2.049 . S
O19 C27 1.260 . S
O20 Zn15 1.996 . S
O20 C27 1.257 . S
C21 O16 1.254 . S
C21 O17 1.269 . S
C22 O23 1.249 . S
C22 O24 1.270 . S
O23 Zn15 1.943 . S
O23 C22 1.249 . S
O24 Zn14 2.067 . S
O24 C22 1.270 . S
C25 O18 1.262 . S
C25 O26 1.232 . S
O26 C25 1.232 . S
C27 O19 1.260 . S
C27 O20 1.257 . S
Zn28 O31 2.031 . S
Zn28 O33 2.049 . S
Zn28 O38 2.067 . S
Zn29 O30 1.962 . S
Zn29 O32 1.986 . S
Zn29 O34 1.996 . S
Zn29 O37 1.943 . S
O30 Zn29 1.962 . S
O30 C35 1.254 . S
O31 Zn28 2.031 . S
O31 C35 1.269 . S
O32 Zn29 1.986 . S
O32 C39 1.262 . S
O33 Zn28 2.049 . S
O33 C41 1.260 . S
O34 Zn29 1.996 . S
O34 C41 1.257 . S
C35 O30 1.254 . S
C35 O31 1.269 . S
C36 O37 1.249 . S
C36 O38 1.270 . S
O37 Zn29 1.943 . S
O37 C36 1.249 . S
O38 Zn28 2.067 . S
O38 C36 1.270 . S
C39 O32 1.262 . S
C39 O40 1.232 . S
O40 C39 1.232 . S
C41 O33 1.260 . S
C41 O34 1.257 . S
Zn42 O45 2.031 . S
Zn42 O47 2.049 . S
Zn42 O52 2.067 . S
Zn43 O44 1.962 . S
Zn43 O46 1.986 . S
Zn43 O48 1.996 . S
Zn43 O51 1.943 . S
O44 Zn43 1.962 . S
O44 C49 1.254 . S
O45 Zn42 2.031 . S
O45 C49 1.269 . S
O46 Zn43 1.986 . S
O46 C53 1.262 . S
O47 Zn42 2.049 . S
O47 C55 1.260 . S
O48 Zn43 1.996 . S
O48 C55 1.257 . S
C49 O44 1.254 . S
C49 O45 1.269 . S
C50 O51 1.249 . S
C50 O52 1.270 . S
O51 Zn43 1.943 . S
O51 C50 1.249 . S
O52 Zn42 2.067 . S
O52 C50 1.270 . S
C53 O46 1.262 . S
C53 O54 1.232 . S
O54 C53 1.232 . S
C55 O47 1.260 . S
C55 O48 1.257 . S
Zn56 O59 2.031 . S
Zn56 O61 2.049 . S
Zn56 O66 2.067 . S
Zn57 O58 1.962 . S
Zn57 O60 1.986 . S
Zn57 O62 1.996 . S
Zn57 O65 1.943 . S
O58 Zn57 1.962 . S
O58 C63 1.254 . S
O59 Zn56 2.031 . S
O59 C63 1.269 . S
O60 Zn57 1.986 . S
O60 C67 1.262 . S
O61 Zn56 2.049 . S
O61 C69 1.260 . S
O62 Zn57 1.996 . S
O62 C69 1.257 . S
C63 O58 1.254 . S
C63 O59 1.269 . S
C64 O65 1.249 . S
C64 O66 1.270 . S
O65 Zn57 1.943 . S
O65 C64 1.249 . S
O66 Zn56 2.067 . S
O66 C64 1.270 . S
C67 O60 1.262 . S
C67 O68 1.232 . S
O68 C67 1.232 . S
C69 O61 1.260 . S
C69 O62 1.257 . S
Zn70 O73 2.031 . S
Zn70 O75 2.049 . S
Zn70 O80 2.067 . S
Zn71 O72 1.962 . S
Zn71 O74 1.986 . S
Zn71 O76 1.996 . S
Zn71 O79 1.943 . S
O72 Zn71 1.962 . S
O72 C77 1.254 . S
O73 Zn70 2.031 . S
O73 C77 1.269 . S
O74 Zn71 1.986 . S
O74 C81 1.262 . S
O75 Zn70 2.049 . S
O75 C83 1.260 . S
O76 Zn71 1.996 . S
O76 C83 1.257 . S
C77 O72 1.254 . S
C77 O73 1.269 . S
C78 O79 1.249 . S
C78 O80 1.270 . S
O79 Zn71 1.943 . S
O79 C78 1.249 . S
O80 Zn70 2.067 . S
O80 C78 1.270 . S
C81 O74 1.262 . S
C81 O82 1.232 . S
O82 C81 1.232 . S
C83 O75 1.260 . S
C83 O76 1.257 . S
Zn84 O87 2.031 . S
Zn84 O89 2.049 . S
Zn84 O94 2.067 . S
Zn85 O86 1.962 . S
Zn85 O88 1.986 . S
Zn85 O90 1.996 . S
Zn85 O93 1.943 . S
O86 Zn85 1.962 . S
O86 C91 1.254 . S
O87 Zn84 2.031 . S
O87 C91 1.269 . S
O88 Zn85 1.986 . S
O88 C95 1.262 . S
O89 Zn84 2.049 . S
O89 C97 1.260 . S
O90 Zn85 1.996 . S
O90 C97 1.257 . S
C91 O86 1.254 . S
C91 O87 1.269 . S
C92 O93 1.249 . S
C92 O94 1.270 . S
O93 Zn85 1.943 . S
O93 C92 1.249 . S
O94 Zn84 2.067 . S
O94 C92 1.270 . S
C95 O88 1.262 . S
C95 O96 1.232 . S
O96 C95 1.232 . S
C97 O89 1.260 . S
C97 O90 1.257 . S
Zn98 O101 2.031 . S
Zn98 O103 2.049 . S
Zn98 O108 2.067 . S
Zn99 O100 1.962 . S
Zn99 O102 1.986 . S
Zn99 O104 1.996 . S
Zn99 O107 1.943 . S
O100 Zn99 1.962 . S
O100 C105 1.254 . S
O101 Zn98 2.031 . S
O101 C105 1.269 . S
O102 Zn99 1.986 . S
O102 C109 1.262 . S
O103 Zn98 2.049 . S
O103 C111 1.260 . S
O104 Zn99 1.996 . S
O104 C111 1.257 . S
C105 O100 1.254 . S
C105 O101 1.269 . S
C106 O107 1.249 . S
C106 O108 1.270 . S
O107 Zn99 1.943 . S
O107 C106 1.249 . S
O108 Zn98 2.067 . S
O108 C106 1.270 . S
C109 O102 1.262 . S
C109 O110 1.232 . S
O110 C109 1.232 . S
C111 O103 1.260 . S
C111 O104 1.257 . S
Zn112 O115 2.031 . S
Zn112 O117 2.049 . S
Zn112 O122 2.067 . S
Zn113 O114 1.962 . S
Zn113 O116 1.986 . S
Zn113 O118 1.996 . S
Zn113 O121 1.943 . S
O114 Zn113 1.962 . S
O114 C119 1.254 . S
O115 Zn112 2.031 . S
O115 C119 1.269 . S
O116 Zn113 1.986 . S
O116 C123 1.262 . S
O117 Zn112 2.049 . S
O117 C125 1.260 . S
O118 Zn113 1.996 . S
O118 C125 1.257 . S
C119 O114 1.254 . S
C119 O115 1.269 . S
C120 O121 1.249 . S
C120 O122 1.270 . S
O121 Zn113 1.943 . S
O121 C120 1.249 . S
O122 Zn112 2.067 . S
O122 C120 1.270 . S
C123 O116 1.262 . S
C123 O124 1.232 . S
O124 C123 1.232 . S
C125 O117 1.260 . S
C125 O118 1.257 . S
Zn126 O129 2.031 . S
Zn126 O131 2.049 . S
Zn126 O136 2.067 . S
Zn127 O128 1.962 . S
Zn127 O130 1.986 . S
Zn127 O132 1.996 . S
Zn127 O135 1.943 . S
O128 Zn127 1.962 . S
O128 C133 1.254 . S
O129 Zn126 2.031 . S
O129 C133 1.269 . S
O130 Zn127 1.986 . S
O130 C137 1.262 . S
O131 Zn126 2.049 . S
O131 C139 1.260 . S
O132 Zn127 1.996 . S
O132 C139 1.257 . S
C133 O128 1.254 . S
C133 O129 1.269 . S
C134 O135 1.249 . S
C134 O136 1.270 . S
O135 Zn127 1.943 . S
O135 C134 1.249 . S
O136 Zn126 2.067 . S
O136 C134 1.270 . S
C137 O130 1.262 . S
C137 O138 1.232 . S
O138 C137 1.232 . S
C139 O131 1.260 . S
C139 O132 1.257 . S
Zn140 O143 2.031 . S
Zn140 O145 2.049 . S
Zn140 O150 2.067 . S
Zn141 O142 1.962 . S
Zn141 O144 1.986 . S
Zn141 O146 1.996 . S
Zn141 O149 1.943 . S
O142 Zn141 1.962 . S
O142 C147 1.254 . S
O143 Zn140 2.031 . S
O143 C147 1.269 . S
O144 Zn141 1.986 . S
O144 C151 1.262 . S
O145 Zn140 2.049 . S
O145 C153 1.260 . S
O146 Zn141 1.996 . S
O146 C153 1.257 . S
C147 O142 1.254 . S
C147 O143 1.269 . S
C148 O149 1.249 . S
C148 O150 1.270 . S
O149 Zn141 1.943 . S
O149 C148 1.249 . S
O150 Zn140 2.067 . S
O150 C148 1.270 . S
C151 O144 1.262 . S
C151 O152 1.232 . S
O152 C151 1.232 . S
C153 O145 1.260 . S
C153 O146 1.257 . S
Zn154 O157 2.031 . S
Zn154 O159 2.049 . S
Zn154 O164 2.067 . S
Zn155 O156 1.962 . S
Zn155 O158 1.986 . S
Zn155 O160 1.996 . S
Zn155 O163 1.943 . S
O156 Zn155 1.962 . S
O156 C161 1.254 . S
O157 Zn154 2.031 . S
O157 C161 1.269 . S
O158 Zn155 1.986 . S
O158 C165 1.262 . S
O159 Zn154 2.049 . S
O159 C167 1.260 . S
O160 Zn155 1.996 . S
O160 C167 1.257 . S
C161 O156 1.254 . S
C161 O157 1.269 . S
C162 O163 1.249 . S
C162 O164 1.270 . S
O163 Zn155 1.943 . S
O163 C162 1.249 . S
O164 Zn154 2.067 . S
O164 C162 1.270 . S
C165 O158 1.262 . S
C165 O166 1.232 . S
O166 C165 1.232 . S
C167 O159 1.260 . S
C167 O160 1.257 . S
Zn168 O171 2.031 . S
Zn168 O173 2.049 . S
Zn168 O178 2.067 . S
Zn169 O170 1.962 . S
Zn169 O172 1.986 . S
Zn169 O174 1.996 . S
Zn169 O177 1.943 . S
O170 Zn169 1.962 . S
O170 C175 1.254 . S
O171 Zn168 2.031 . S
O171 C175 1.269 . S
O172 Zn169 1.986 . S
O172 C179 1.262 . S
O173 Zn168 2.049 . S
O173 C181 1.260 . S
O174 Zn169 1.996 . S
O174 C181 1.257 . S
C175 O170 1.254 . S
C175 O171 1.269 . S
C176 O177 1.249 . S
C176 O178 1.270 . S
O177 Zn169 1.943 . S
O177 C176 1.249 . S
O178 Zn168 2.067 . S
O178 C176 1.270 . S
C179 O172 1.262 . S
C179 O180 1.232 . S
O180 C179 1.232 . S
C181 O173 1.260 . S
C181 O174 1.257 . S
Zn182 O185 2.031 . S
Zn182 O187 2.049 . S
Zn182 O192 2.067 . S
Zn183 O184 1.962 . S
Zn183 O186 1.986 . S
Zn183 O188 1.996 . S
Zn183 O191 1.943 . S
O184 Zn183 1.962 . S
O184 C189 1.254 . S
O185 Zn182 2.031 . S
O185 C189 1.269 . S
O186 Zn183 1.986 . S
O186 C193 1.262 . S
O187 Zn182 2.049 . S
O187 C195 1.260 . S
O188 Zn183 1.996 . S
O188 C195 1.257 . S
C189 O184 1.254 . S
C189 O185 1.269 . S
C190 O191 1.249 . S
C190 O192 1.270 . S
O191 Zn183 1.943 . S
O191 C190 1.249 . S
O192 Zn182 2.067 . S
O192 C190 1.270 . S
C193 O186 1.262 . S
C193 O194 1.232 . S
O194 C193 1.232 . S
C195 O187 1.260 . S
C195 O188 1.257 . S
Zn196 O199 2.031 . S
Zn196 O201 2.049 . S
Zn196 O206 2.067 . S
Zn197 O198 1.962 . S
Zn197 O200 1.986 . S
Zn197 O202 1.996 . S
Zn197 O205 1.943 . S
O198 Zn197 1.962 . S
O198 C203 1.254 . S
O199 Zn196 2.031 . S
O199 C203 1.269 . S
O200 Zn197 1.986 . S
O200 C207 1.262 . S
O201 Zn196 2.049 . S
O201 C209 1.260 . S
O202 Zn197 1.996 . S
O202 C209 1.257 . S
C203 O198 1.254 . S
C203 O199 1.269 . S
C204 O205 1.249 . S
C204 O206 1.270 . S
O205 Zn197 1.943 . S
O205 C204 1.249 . S
O206 Zn196 2.067 . S
O206 C204 1.270 . S
C207 O200 1.262 . S
C207 O208 1.232 . S
O208 C207 1.232 . S
C209 O201 1.260 . S
C209 O202 1.257 . S
Zn210 O213 2.031 . S
Zn210 O215 2.049 . S
Zn210 O220 2.067 . S
Zn211 O212 1.962 . S
Zn211 O214 1.986 . S
Zn211 O216 1.996 . S
Zn211 O219 1.943 . S
O212 Zn211 1.962 . S
O212 C217 1.254 . S
O213 Zn210 2.031 . S
O213 C217 1.269 . S
O214 Zn211 1.986 . S
O214 C221 1.262 . S
O215 Zn210 2.049 . S
O215 C223 1.260 . S
O216 Zn211 1.996 . S
O216 C223 1.257 . S
C217 O212 1.254 . S
C217 O213 1.269 . S
C218 O219 1.249 . S
C218 O220 1.270 . S
O219 Zn211 1.943 . S
O219 C218 1.249 . S
O220 Zn210 2.067 . S
O220 C218 1.270 . S
C221 O214 1.262 . S
C221 O222 1.232 . S
O222 C221 1.232 . S
C223 O215 1.260 . S
C223 O216 1.257 . S
Zn224 O227 2.031 . S
Zn224 O229 2.049 . S
Zn224 O234 2.067 . S
Zn225 O226 1.962 . S
Zn225 O228 1.986 . S
Zn225 O230 1.996 . S
Zn225 O233 1.943 . S
O226 Zn225 1.962 . S
O226 C231 1.254 . S
O227 Zn224 2.031 . S
O227 C231 1.269 . S
O228 Zn225 1.986 . S
O228 C235 1.262 . S
O229 Zn224 2.049 . S
O229 C237 1.260 . S
O230 Zn225 1.996 . S
O230 C237 1.257 . S
C231 O226 1.254 . S
C231 O227 1.269 . S
C232 O233 1.249 . S
C232 O234 1.270 . S
O233 Zn225 1.943 . S
O233 C232 1.249 . S
O234 Zn224 2.067 . S
O234 C232 1.270 . S
C235 O228 1.262 . S
C235 O236 1.232 . S
O236 C235 1.232 . S
C237 O229 1.260 . S
C237 O230 1.257 . S
Zn238 O241 2.031 . S
Zn238 O243 2.049 . S
Zn238 O248 2.067 . S
Zn239 O240 1.962 . S
Zn239 O242 1.986 . S
Zn239 O244 1.996 . S
Zn239 O247 1.943 . S
O240 Zn239 1.962 . S
O240 C245 1.254 . S
O241 Zn238 2.031 . S
O241 C245 1.269 . S
O242 Zn239 1.986 . S
O242 C249 1.262 . S
O243 Zn238 2.049 . S
O243 C251 1.260 . S
O244 Zn239 1.996 . S
O244 C251 1.257 . S
C245 O240 1.254 . S
C245 O241 1.269 . S
C246 O247 1.249 . S
C246 O248 1.270 . S
O247 Zn239 1.943 . S
O247 C246 1.249 . S
O248 Zn238 2.067 . S
O248 C246 1.270 . S
C249 O242 1.262 . S
C249 O250 1.232 . S
O250 C249 1.232 . S
C251 O243 1.260 . S
C251 O244 1.257 . S
Zn252 O255 2.031 . S
Zn252 O257 2.049 . S
Zn252 O262 2.067 . S
Zn253 O254 1.962 . S
Zn253 O256 1.986 . S
Zn253 O258 1.996 . S
Zn253 O261 1.943 . S
O254 Zn253 1.962 . S
O254 C259 1.254 . S
O255 Zn252 2.031 . S
O255 C259 1.269 . S
O256 Zn253 1.986 . S
O256 C263 1.262 . S
O257 Zn252 2.049 . S
O257 C265 1.260 . S
O258 Zn253 1.996 . S
O258 C265 1.257 . S
C259 O254 1.254 . S
C259 O255 1.269 . S
C260 O261 1.249 . S
C260 O262 1.270 . S
O261 Zn253 1.943 . S
O261 C260 1.249 . S
O262 Zn252 2.067 . S
O262 C260 1.270 . S
C263 O256 1.262 . S
C263 O264 1.232 . S
O264 C263 1.232 . S
C265 O257 1.260 . S
C265 O258 1.257 . S
Zn266 O269 2.031 . S
Zn266 O271 2.049 . S
Zn266 O276 2.067 . S
Zn267 O268 1.962 . S
Zn267 O270 1.986 . S
Zn267 O272 1.996 . S
Zn267 O275 1.943 . S
O268 Zn267 1.962 . S
O268 C273 1.254 . S
O269 Zn266 2.031 . S
O269 C273 1.269 . S
O270 Zn267 1.986 . S
O270 C277 1.262 . S
O271 Zn266 2.049 . S
O271 C279 1.260 . S
O272 Zn267 1.996 . S
O272 C279 1.257 . S
C273 O268 1.254 . S
C273 O269 1.269 . S
C274 O275 1.249 . S
C274 O276 1.270 . S
O275 Zn267 1.943 . S
O275 C274 1.249 . S
O276 Zn266 2.067 . S
O276 C274 1.270 . S
C277 O270 1.262 . S
C277 O278 1.232 . S
O278 C277 1.232 . S
C279 O271 1.260 . S
C279 O272 1.257 . S
Zn280 O283 2.031 . S
Zn280 O285 2.049 . S
Zn280 O290 2.067 . S
Zn281 O282 1.962 . S
Zn281 O284 1.986 . S
Zn281 O286 1.996 . S
Zn281 O289 1.943 . S
O282 Zn281 1.962 . S
O282 C287 1.254 . S
O283 Zn280 2.031 . S
O283 C287 1.269 . S
O284 Zn281 1.986 . S
O284 C291 1.262 . S
O285 Zn280 2.049 . S
O285 C293 1.260 . S
O286 Zn281 1.996 . S
O286 C293 1.257 . S
C287 O282 1.254 . S
C287 O283 1.269 . S
C288 O289 1.249 . S
C288 O290 1.270 . S
O289 Zn281 1.943 . S
O289 C288 1.249 . S
O290 Zn280 2.067 . S
O290 C288 1.270 . S
C291 O284 1.262 . S
C291 O292 1.232 . S
O292 C291 1.232 . S
C293 O285 1.260 . S
C293 O286 1.257 . S
Zn294 O297 2.031 . S
Zn294 O299 2.049 . S
Zn294 O304 2.067 . S
Zn295 O296 1.962 . S
Zn295 O298 1.986 . S
Zn295 O300 1.996 . S
Zn295 O303 1.943 . S
O296 Zn295 1.962 . S
O296 C301 1.254 . S
O297 Zn294 2.031 . S
O297 C301 1.269 . S
O298 Zn295 1.986 . S
O298 C305 1.262 . S
O299 Zn294 2.049 . S
O299 C307 1.260 . S
O300 Zn295 1.996 . S
O300 C307 1.257 . S
C301 O296 1.254 . S
C301 O297 1.269 . S
C302 O303 1.249 . S
C302 O304 1.270 . S
O303 Zn295 1.943 . S
O303 C302 1.249 . S
O304 Zn294 2.067 . S
O304 C302 1.270 . S
C305 O298 1.262 . S
C305 O306 1.232 . S
O306 C305 1.232 . S
C307 O299 1.260 . S
C307 O300 1.257 . S
Zn308 O311 2.031 . S
Zn308 O313 2.049 . S
Zn308 O318 2.067 . S
Zn309 O310 1.962 . S
Zn309 O312 1.986 . S
Zn309 O314 1.996 . S
Zn309 O317 1.943 . S
O310 Zn309 1.962 . S
O310 C315 1.254 . S
O311 Zn308 2.031 . S
O311 C315 1.269 . S
O312 Zn309 1.986 . S
O312 C319 1.262 . S
O313 Zn308 2.049 . S
O313 C321 1.260 . S
O314 Zn309 1.996 . S
O314 C321 1.257 . S
C315 O310 1.254 . S
C315 O311 1.269 . S
C316 O317 1.249 . S
C316 O318 1.270 . S
O317 Zn309 1.943 . S
O317 C316 1.249 . S
O318 Zn308 2.067 . S
O318 C316 1.270 . S
C319 O312 1.262 . S
C319 O320 1.232 . S
O320 C319 1.232 . S
C321 O313 1.260 . S
C321 O314 1.257 . S
Zn322 O325 2.031 . S
Zn322 O327 2.049 . S
Zn322 O332 2.067 . S
Zn323 O324 1.962 . S
Zn323 O326 1.986 . S
Zn323 O328 1.996 . S
Zn323 O331 1.943 . S
O324 Zn323 1.962 . S
O324 C329 1.254 . S
O325 Zn322 2.031 . S
O325 C329 1.269 . S
O326 Zn323 1.986 . S
O326 C333 1.262 . S
O327 Zn322 2.049 . S
O327 C335 1.260 . S
O328 Zn323 1.996 . S
O328 C335 1.257 . S
C329 O324 1.254 . S
C329 O325 1.269 . S
C330 O331 1.249 . S
C330 O332 1.270 . S
O331 Zn323 1.943 . S
O331 C330 1.249 . S
O332 Zn322 2.067 . S
O332 C330 1.270 . S
C333 O326 1.262 . S
C333 O334 1.232 . S
O334 C333 1.232 . S
C335 O327 1.260 . S
C335 O328 1.257 . S
Zn336 O339 2.031 . S
Zn336 O341 2.049 . S
Zn336 O346 2.067 . S
Zn337 O338 1.962 . S
Zn337 O340 1.986 . S
Zn337 O342 1.996 . S
Zn337 O345 1.943 . S
O338 Zn337 1.962 . S
O338 C343 1.254 . S
O339 Zn336 2.031 . S
O339 C343 1.269 . S
O340 Zn337 1.986 . S
O340 C347 1.262 . S
O341 Zn336 2.049 . S
O341 C349 1.260 . S
O342 Zn337 1.996 . S
O342 C349 1.257 . S
C343 O338 1.254 . S
C343 O339 1.269 . S
C344 O345 1.249 . S
C344 O346 1.270 . S
O345 Zn337 1.943 . S
O345 C344 1.249 . S
O346 Zn336 2.067 . S
O346 C344 1.270 . S
C347 O340 1.262 . S
C347 O348 1.232 . S
O348 C347 1.232 . S
C349 O341 1.260 . S
C349 O342 1.257 . S
Zn350 O353 2.031 . S
Zn350 O355 2.049 . S
Zn350 O360 2.067 . S
Zn351 O352 1.962 . S
Zn351 O354 1.986 . S
Zn351 O356 1.996 . S
Zn351 O359 1.943 . S
O352 Zn351 1.962 . S
O352 C357 1.254 . S
O353 Zn350 2.031 . S
O353 C357 1.269 . S
O354 Zn351 1.986 . S
O354 C361 1.262 . S
O355 Zn350 2.049 . S
O355 C363 1.260 . S
O356 Zn351 1.996 . S
O356 C363 1.257 . S
C357 O352 1.254 . S
C357 O353 1.269 . S
C358 O359 1.249 . S
C358 O360 1.270 . S
O359 Zn351 1.943 . S
O359 C358 1.249 . S
O360 Zn350 2.067 . S
O360 C358 1.270 . S
C361 O354 1.262 . S
C361 O362 1.232 . S
O362 C361 1.232 . S
C363 O355 1.260 . S
C363 O356 1.257 . S
Zn364 O367 2.031 . S
Zn364 O369 2.049 . S
Zn364 O374 2.067 . S
Zn365 O366 1.962 . S
Zn365 O368 1.986 . S
Zn365 O370 1.996 . S
Zn365 O373 1.943 . S
O366 Zn365 1.962 . S
O366 C371 1.254 . S
O367 Zn364 2.031 . S
O367 C371 1.269 . S
O368 Zn365 1.986 . S
O368 C375 1.262 . S
O369 Zn364 2.049 . S
O369 C377 1.260 . S
O370 Zn365 1.996 . S
O370 C377 1.257 . S
C371 O366 1.254 . S
C371 O367 1.269 . S
C372 O373 1.249 . S
C372 O374 1.270 . S
O373 Zn365 1.943 . S
O373 C372 1.249 . S
O374 Zn364 2.067 . S
O374 C372 1.270 . S
C375 O368 1.262 . S
C375 O376 1.232 . S
O376 C375 1.232 . S
C377 O369 1.260 . S
C377 O370 1.257 . S
Zn378 O381 2.031 . S
Zn378 O383 2.049 . S
Zn378 O388 2.067 . S
Zn379 O380 1.962 . S
Zn379 O382 1.986 . S
Zn379 O384 1.996 . S
Zn379 O387 1.943 . S
O380 Zn379 1.962 . S
O380 C385 1.254 . S
O381 Zn378 2.031 . S
O381 C385 1.269 . S
O382 Zn379 1.986 . S
O382 C389 1.262 . S
O383 Zn378 2.049 . S
O383 C391 1.260 . S
O384 Zn379 1.996 . S
O384 C391 1.257 . S
C385 O380 1.254 . S
C385 O381 1.269 . S
C386 O387 1.249 . S
C386 O388 1.270 . S
O387 Zn379 1.943 . S
O387 C386 1.249 . S
O388 Zn378 2.067 . S
O388 C386 1.270 . S
C389 O382 1.262 . S
C389 O390 1.232 . S
O390 C389 1.232 . S
C391 O383 1.260 . S
C391 O384 1.257 . S
Zn392 O395 2.031 . S
Zn392 O397 2.049 . S
Zn392 O402 2.067 . S
Zn393 O394 1.962 . S
Zn393 O396 1.986 . S
Zn393 O398 1.996 . S
Zn393 O401 1.943 . S
O394 Zn393 1.962 . S
O394 C399 1.254 . S
O395 Zn392 2.031 . S
O395 C399 1.269 . S
O396 Zn393 1.986 . S
O396 C403 1.262 . S
O397 Zn392 2.049 . S
O397 C405 1.260 . S
O398 Zn393 1.996 . S
O398 C405 1.257 . S
C399 O394 1.254 . S
C399 O395 1.269 . S
C400 O401 1.249 . S
C400 O402 1.270 . S
O401 Zn393 1.943 . S
O401 C400 1.249 . S
O402 Zn392 2.067 . S
O402 C400 1.270 . S
C403 O396 1.262 . S
C403 O404 1.232 . S
O404 C403 1.232 . S
C405 O397 1.260 . S
C405 O398 1.257 . S
Zn406 O409 2.031 . S
Zn406 O411 2.049 . S
Zn406 O416 2.067 . S
Zn407 O408 1.962 . S
Zn407 O410 1.986 . S
Zn407 O412 1.996 . S
Zn407 O415 1.943 . S
O408 Zn407 1.962 . S
O408 C413 1.254 . S
O409 Zn406 2.031 . S
O409 C413 1.269 . S
O410 Zn407 1.986 . S
O410 C417 1.262 . S
O411 Zn406 2.049 . S
O411 C419 1.260 . S
O412 Zn407 1.996 . S
O412 C419 1.257 . S
C413 O408 1.254 . S
C413 O409 1.269 . S
C414 O415 1.249 . S
C414 O416 1.270 . S
O415 Zn407 1.943 . S
O415 C414 1.249 . S
O416 Zn406 2.067 . S
O416 C414 1.270 . S
C417 O410 1.262 . S
C417 O418 1.232 . S
O418 C417 1.232 . S
C419 O411 1.260 . S
C419 O412 1.257 . S
Zn420 O423 2.031 . S
Zn420 O425 2.049 . S
Zn420 O430 2.067 . S
Zn421 O422 1.962 . S
Zn421 O424 1.986 . S
Zn421 O426 1.996 . S
Zn421 O429 1.943 . S
O422 Zn421 1.962 . S
O422 C427 1.254 . S
O423 Zn420 2.031 . S
O423 C427 1.269 . S
O424 Zn421 1.986 . S
O424 C431 1.262 . S
O425 Zn420 2.049 . S
O425 C433 1.260 . S
O426 Zn421 1.996 . S
O426 C433 1.257 . S
C427 O422 1.254 . S
C427 O423 1.269 . S
C428 O429 1.249 . S
C428 O430 1.270 . S
O429 Zn421 1.943 . S
O429 C428 1.249 . S
O430 Zn420 2.067 . S
O430 C428 1.270 . S
C431 O424 1.262 . S
C431 O432 1.232 . S
O432 C431 1.232 . S
C433 O425 1.260 . S
C433 O426 1.257 . S
Zn434 O437 2.031 . S
Zn434 O439 2.049 . S
Zn434 O444 2.067 . S
Zn435 O436 1.962 . S
Zn435 O438 1.986 . S
Zn435 O440 1.996 . S
Zn435 O443 1.943 . S
O436 Zn435 1.962 . S
O436 C441 1.254 . S
O437 Zn434 2.031 . S
O437 C441 1.269 . S
O438 Zn435 1.986 . S
O438 C445 1.262 . S
O439 Zn434 2.049 . S
O439 C447 1.260 . S
O440 Zn435 1.996 . S
O440 C447 1.257 . S
C441 O436 1.254 . S
C441 O437 1.269 . S
C442 O443 1.249 . S
C442 O444 1.270 . S
O443 Zn435 1.943 . S
O443 C442 1.249 . S
O444 Zn434 2.067 . S
O444 C442 1.270 . S
C445 O438 1.262 . S
C445 O446 1.232 . S
O446 C445 1.232 . S
C447 O439 1.260 . S
C447 O440 1.257 . S
Zn448 O451 2.031 . S
Zn448 O453 2.049 . S
Zn448 O458 2.067 . S
Zn449 O450 1.962 . S
Zn449 O452 1.986 . S
Zn449 O454 1.996 . S
Zn449 O457 1.943 . S
O450 Zn449 1.962 . S
O450 C455 1.254 . S
O451 Zn448 2.031 . S
O451 C455 1.269 . S
O452 Zn449 1.986 . S
O452 C459 1.262 . S
O453 Zn448 2.049 . S
O453 C461 1.260 . S
O454 Zn449 1.996 . S
O454 C461 1.257 . S
C455 O450 1.254 . S
C455 O451 1.269 . S
C456 O457 1.249 . S
C456 O458 1.270 . S
O457 Zn449 1.943 . S
O457 C456 1.249 . S
O458 Zn448 2.067 . S
O458 C456 1.270 . S
C459 O452 1.262 . S
C459 O460 1.232 . S
O460 C459 1.232 . S
C461 O453 1.260 . S
C461 O454 1.257 . S
Zn462 O465 2.031 . S
Zn462 O467 2.049 . S
Zn462 O472 2.067 . S
Zn463 O464 1.962 . S
Zn463 O466 1.986 . S
Zn463 O468 1.996 . S
Zn463 O471 1.943 . S
O464 Zn463 1.962 . S
O464 C469 1.254 . S
O465 Zn462 2.031 . S
O465 C469 1.269 . S
O466 Zn463 1.986 . S
O466 C473 1.262 . S
O467 Zn462 2.049 . S
O467 C475 1.260 . S
O468 Zn463 1.996 . S
O468 C475 1.257 . S
C469 O464 1.254 . S
C469 O465 1.269 . S
C470 O471 1.249 . S
C470 O472 1.270 . S
O471 Zn463 1.943 . S
O471 C470 1.249 . S
O472 Zn462 2.067 . S
O472 C470 1.270 . S
C473 O466 1.262 . S
C473 O474 1.232 . S
O474 C473 1.232 . S
C475 O467 1.260 . S
C475 O468 1.257 . S
Zn476 O479 2.031 . S
Zn476 O481 2.049 . S
Zn476 O486 2.067 . S
Zn477 O478 1.962 . S
Zn477 O480 1.986 . S
Zn477 O482 1.996 . S
Zn477 O485 1.943 . S
O478 Zn477 1.962 . S
O478 C483 1.254 . S
O479 Zn476 2.031 . S
O479 C483 1.269 . S
O480 Zn477 1.986 . S
O480 C487 1.262 . S
O481 Zn476 2.049 . S
O481 C489 1.260 . S
O482 Zn477 1.996 . S
O482 C489 1.257 . S
C483 O478 1.254 . S
C483 O479 1.269 . S
C484 O485 1.249 . S
C484 O486 1.270 . S
O485 Zn477 1.943 . S
O485 C484 1.249 . S
O486 Zn476 2.067 . S
O486 C484 1.270 . S
C487 O480 1.262 . S
C487 O488 1.232 . S
O488 C487 1.232 . S
C489 O481 1.260 . S
C489 O482 1.257 . S
Zn490 O493 2.031 . S
Zn490 O495 2.049 . S
Zn490 O500 2.067 . S
Zn491 O492 1.962 . S
Zn491 O494 1.986 . S
Zn491 O496 1.996 . S
Zn491 O499 1.943 . S
O492 Zn491 1.962 . S
O492 C497 1.254 . S
O493 Zn490 2.031 . S
O493 C497 1.269 . S
O494 Zn491 1.986 . S
O494 C501 1.262 . S
O495 Zn490 2.049 . S
O495 C503 1.260 . S
O496 Zn491 1.996 . S
O496 C503 1.257 . S
C497 O492 1.254 . S
C497 O493 1.269 . S
C498 O499 1.249 . S
C498 O500 1.270 . S
O499 Zn491 1.943 . S
O499 C498 1.249 . S
O500 Zn490 2.067 . S
O500 C498 1.270 . S
C501 O494 1.262 . S
C501 O502 1.232 . S
O502 C501 1.232 . S
C503 O495 1.260 . S
C503 O496 1.257 . S
Zn504 O507 2.031 . S
Zn504 O509 2.049 . S
Zn504 O514 2.067 . S
Zn505 O506 1.962 . S
Zn505 O508 1.986 . S
Zn505 O510 1.996 . S
Zn505 O513 1.943 . S
O506 Zn505 1.962 . S
O506 C511 1.254 . S
O507 Zn504 2.031 . S
O507 C511 1.269 . S
O508 Zn505 1.986 . S
O508 C515 1.262 . S
O509 Zn504 2.049 . S
O509 C517 1.260 . S
O510 Zn505 1.996 . S
O510 C517 1.257 . S
C511 O506 1.254 . S
C511 O507 1.269 . S
C512 O513 1.249 . S
C512 O514 1.270 . S
O513 Zn505 1.943 . S
O513 C512 1.249 . S
O514 Zn504 2.067 . S
O514 C512 1.270 . S
C515 O508 1.262 . S
C515 O516 1.232 . S
O516 C515 1.232 . S
C517 O509 1.260 . S
C517 O510 1.257 . S
Zn518 O521 2.031 . S
Zn518 O523 2.049 . S
Zn518 O528 2.067 . S
Zn519 O520 1.962 . S
Zn519 O522 1.986 . S
Zn519 O524 1.996 . S
Zn519 O527 1.943 . S
O520 Zn519 1.962 . S
O520 C525 1.254 . S
O521 Zn518 2.031 . S
O521 C525 1.269 . S
O522 Zn519 1.986 . S
O522 C529 1.262 . S
O523 Zn518 2.049 . S
O523 C531 1.260 . S
O524 Zn519 1.996 . S
O524 C531 1.257 . S
C525 O520 1.254 . S
C525 O521 1.269 . S
C526 O527 1.249 . S
C526 O528 1.270 . S
O527 Zn519 1.943 . S
O527 C526 1.249 . S
O528 Zn518 2.067 . S
O528 C526 1.270 . S
C529 O522 1.262 . S
C529 O530 1.232 . S
O530 C529 1.232 . S
C531 O523 1.260 . S
C531 O524 1.257 . S
Zn532 O535 2.031 . S
Zn532 O537 2.049 . S
Zn532 O542 2.067 . S
Zn533 O534 1.962 . S
Zn533 O536 1.986 . S
Zn533 O538 1.996 . S
Zn533 O541 1.943 . S
O534 Zn533 1.962 . S
O534 C539 1.254 . S
O535 Zn532 2.031 . S
O535 C539 1.269 . S
O536 Zn533 1.986 . S
O536 C543 1.262 . S
O537 Zn532 2.049 . S
O537 C545 1.260 . S
O538 Zn533 1.996 . S
O538 C545 1.257 . S
C539 O534 1.254 . S
C539 O535 1.269 . S
C540 O541 1.249 . S
C540 O542 1.270 . S
O541 Zn533 1.943 . S
O541 C540 1.249 . S
O542 Zn532 2.067 . S
O542 C540 1.270 . S
C543 O536 1.262 . S
C543 O544 1.232 . S
O544 C543 1.232 . S
C545 O537 1.260 . S
C545 O538 1.257 . S
Zn546 O549 2.031 . S
Zn546 O551 2.049 . S
Zn546 O556 2.067 . S
Zn547 O548 1.962 . S
Zn547 O550 1.986 . S
Zn547 O552 1.996 . S
Zn547 O555 1.943 . S
O548 Zn547 1.962 . S
O548 C553 1.254 . S
O549 Zn546 2.031 . S
O549 C553 1.269 . S
O550 Zn547 1.986 . S
O550 C557 1.262 . S
O551 Zn546 2.049 . S
O551 C559 1.260 . S
O552 Zn547 1.996 . S
O552 C559 1.257 . S
C553 O548 1.254 . S
C553 O549 1.269 . S
C554 O555 1.249 . S
C554 O556 1.270 . S
O555 Zn547 1.943 . S
O555 C554 1.249 . S
O556 Zn546 2.067 . S
O556 C554 1.270 . S
C557 O550 1.262 . S
C557 O558 1.232 . S
O558 C557 1.232 . S
C559 O551 1.260 . S
C559 O552 1.257 . S
Zn560 O563 2.031 . S
Zn560 O565 2.049 . S
Zn560 O570 2.067 . S
Zn561 O562 1.962 . S
Zn561 O564 1.986 . S
Zn561 O566 1.996 . S
Zn561 O569 1.943 . S
O562 Zn561 1.962 . S
O562 C567 1.254 . S
O563 Zn560 2.031 . S
O563 C567 1.269 . S
O564 Zn561 1.986 . S
O564 C571 1.262 . S
O565 Zn560 2.049 . S
O565 C573 1.260 . S
O566 Zn561 1.996 . S
O566 C573 1.257 . S
C567 O562 1.254 . S
C567 O563 1.269 . S
C568 O569 1.249 . S
C568 O570 1.270 . S
O569 Zn561 1.943 . S
O569 C568 1.249 . S
O570 Zn560 2.067 . S
O570 C568 1.270 . S
C571 O564 1.262 . S
C571 O572 1.232 . S
O572 C571 1.232 . S
C573 O565 1.260 . S
C573 O566 1.257 . S
Zn574 O577 2.031 . S
Zn574 O579 2.049 . S
Zn574 O584 2.067 . S
Zn575 O576 1.962 . S
Zn575 O578 1.986 . S
Zn575 O580 1.996 . S
Zn575 O583 1.943 . S
O576 Zn575 1.962 . S
O576 C581 1.254 . S
O577 Zn574 2.031 . S
O577 C581 1.269 . S
O578 Zn575 1.986 . S
O578 C585 1.262 . S
O579 Zn574 2.049 . S
O579 C587 1.260 . S
O580 Zn575 1.996 . S
O580 C587 1.257 . S
C581 O576 1.254 . S
C581 O577 1.269 . S
C582 O583 1.249 . S
C582 O584 1.270 . S
O583 Zn575 1.943 . S
O583 C582 1.249 . S
O584 Zn574 2.067 . S
O584 C582 1.270 . S
C585 O578 1.262 . S
C585 O586 1.232 . S
O586 C585 1.232 . S
C587 O579 1.260 . S
C587 O580 1.257 . S
Zn588 O591 2.031 . S
Zn588 O593 2.049 . S
Zn588 O598 2.067 . S
Zn589 O590 1.962 . S
Zn589 O592 1.986 . S
Zn589 O594 1.996 . S
Zn589 O597 1.943 . S
O590 Zn589 1.962 . S
O590 C595 1.254 . S
O591 Zn588 2.031 . S
O591 C595 1.269 . S
O592 Zn589 1.986 . S
O592 C599 1.262 . S
O593 Zn588 2.049 . S
O593 C601 1.260 . S
O594 Zn589 1.996 . S
O594 C601 1.257 . S
C595 O590 1.254 . S
C595 O591 1.269 . S
C596 O597 1.249 . S
C596 O598 1.270 . S
O597 Zn589 1.943 . S
O597 C596 1.249 . S
O598 Zn588 2.067 . S
O598 C596 1.270 . S
C599 O592 1.262 . S
C599 O600 1.232 . S
O600 C599 1.232 . S
C601 O593 1.260 . S
C601 O594 1.257 . S
Zn602 O605 2.031 . S
Zn602 O607 2.049 . S
Zn602 O612 2.067 . S
Zn603 O604 1.962 . S
Zn603 O606 1.986 . S
Zn603 O608 1.996 . S
Zn603 O611 1.943 . S
O604 Zn603 1.962 . S
O604 C609 1.254 . S
O605 Zn602 2.031 . S
O605 C609 1.269 . S
O606 Zn603 1.986 . S
O606 C613 1.262 . S
O607 Zn602 2.049 . S
O607 C615 1.260 . S
O608 Zn603 1.996 . S
O608 C615 1.257 . S
C609 O604 1.254 . S
C609 O605 1.269 . S
C610 O611 1.249 . S
C610 O612 1.270 . S
O611 Zn603 1.943 . S
O611 C610 1.249 . S
O612 Zn602 2.067 . S
O612 C610 1.270 . S
C613 O606 1.262 . S
C613 O614 1.232 . S
O614 C613 1.232 . S
C615 O607 1.260 . S
C615 O608 1.257 . S
Zn616 O619 2.031 . S
Zn616 O621 2.049 . S
Zn616 O626 2.067 . S
Zn617 O618 1.962 . S
Zn617 O620 1.986 . S
Zn617 O622 1.996 . S
Zn617 O625 1.943 . S
O618 Zn617 1.962 . S
O618 C623 1.254 . S
O619 Zn616 2.031 . S
O619 C623 1.269 . S
O620 Zn617 1.986 . S
O620 C627 1.262 . S
O621 Zn616 2.049 . S
O621 C629 1.260 . S
O622 Zn617 1.996 . S
O622 C629 1.257 . S
C623 O618 1.254 . S
C623 O619 1.269 . S
C624 O625 1.249 . S
C624 O626 1.270 . S
O625 Zn617 1.943 . S
O625 C624 1.249 . S
O626 Zn616 2.067 . S
O626 C624 1.270 . S
C627 O620 1.262 . S
C627 O628 1.232 . S
O628 C627 1.232 . S
C629 O621 1.260 . S
C629 O622 1.257 . S
Zn630 O633 2.031 . S
Zn630 O635 2.049 . S
Zn630 O640 2.067 . S
Zn631 O632 1.962 . S
Zn631 O634 1.986 . S
Zn631 O636 1.996 . S
Zn631 O639 1.943 . S
O632 Zn631 1.962 . S
O632 C637 1.254 . S
O633 Zn630 2.031 . S
O633 C637 1.269 . S
O634 Zn631 1.986 . S
O634 C641 1.262 . S
O635 Zn630 2.049 . S
O635 C643 1.260 . S
O636 Zn631 1.996 . S
O636 C643 1.257 . S
C637 O632 1.254 . S
C637 O633 1.269 . S
C638 O639 1.249 . S
C638 O640 1.270 . S
O639 Zn631 1.943 . S
O639 C638 1.249 . S
O640 Zn630 2.067 . S
O640 C638 1.270 . S
C641 O634 1.262 . S
C641 O642 1.232 . S
O642 C641 1.232 . S
C643 O635 1.260 . S
C643 O636 1.257 . S
Zn644 O647 2.031 . S
Zn644 O649 2.049 . S
Zn644 O654 2.067 . S
Zn645 O646 1.962 . S
Zn645 O648 1.986 . S
Zn645 O650 1.996 . S
Zn645 O653 1.943 . S
O646 Zn645 1.962 . S
O646 C651 1.254 . S
O647 Zn644 2.031 . S
O647 C651 1.269 . S
O648 Zn645 1.986 . S
O648 C655 1.262 . S
O649 Zn644 2.049 . S
O649 C657 1.260 . S
O650 Zn645 1.996 . S
O650 C657 1.257 . S
C651 O646 1.254 . S
C651 O647 1.269 . S
C652 O653 1.249 . S
C652 O654 1.270 . S
O653 Zn645 1.943 . S
O653 C652 1.249 . S
O654 Zn644 2.067 . S
O654 C652 1.270 . S
C655 O648 1.262 . S
C655 O656 1.232 . S
O656 C655 1.232 . S
C657 O649 1.260 . S
C657 O650 1.257 . S
Zn658 O661 2.031 . S
Zn658 O663 2.049 . S
Zn658 O668 2.067 . S
Zn659 O660 1.962 . S
Zn659 O662 1.986 . S
Zn659 O664 1.996 . S
Zn659 O667 1.943 . S
O660 Zn659 1.962 . S
O660 C665 1.254 . S
O661 Zn658 2.031 . S
O661 C665 1.269 . S
O662 Zn659 1.986 . S
O662 C669 1.262 . S
O663 Zn658 2.049 . S
O663 C671 1.260 . S
O664 Zn659 1.996 . S
O664 C671 1.257 . S
C665 O660 1.254 . S
C665 O661 1.269 . S
C666 O667 1.249 . S
C666 O668 1.270 . S
O667 Zn659 1.943 . S
O667 C666 1.249 . S
O668 Zn658 2.067 . S
O668 C666 1.270 . S
C669 O662 1.262 . S
C669 O670 1.232 . S
O670 C669 1.232 . S
C671 O663 1.260 . S
C671 O664 1.257 . S
H672 C680 0.929 . S
H673 C682 0.930 . S
H674 C684 0.930 . S
H675 C687 0.929 . S
H676 C690 0.930 . S
H677 C692 0.960 . S
H678 C692 0.960 . S
H679 C692 0.960 . S
C680 H672 0.929 . S
C680 C681 1.377 . S
C680 C682 1.384 . S
C681 C680 1.377 . S
C681 C687 1.390 . S
C682 H673 0.930 . S
C682 C680 1.384 . S
C682 C683 1.372 . S
C683 C682 1.372 . S
C683 C684 1.400 . S
C683 C688 1.490 . S
C684 H674 0.930 . S
C684 C683 1.400 . S
C684 C687 1.386 . S
H685 C701 0.930 . S
H686 C702 0.931 . S
C687 H675 0.929 . S
C687 C681 1.390 . S
C687 C684 1.386 . S
C688 C683 1.490 . S
C688 C690 1.395 . S
C688 C691 1.403 . S
H689 C695 0.930 . S
C690 H676 0.930 . S
C690 C688 1.395 . S
C690 C693 1.403 . S
C691 C688 1.403 . S
C691 C692 1.524 . S
C691 C695 1.400 . S
C692 H677 0.960 . S
C692 H678 0.960 . S
C692 H679 0.960 . S
C692 C691 1.524 . S
C693 C690 1.403 . S
C693 C694 1.392 . S
C693 C697 1.495 . S
C694 C693 1.392 . S
C694 C695 1.385 . S
C694 C696 1.478 . S
C695 H689 0.930 . S
C695 C691 1.400 . S
C695 C694 1.385 . S
C696 C694 1.478 . S
C696 C698 1.381 . S
C696 C702 1.383 . S
C697 C693 1.495 . S
C697 H703 0.959 . S
C697 H704 0.961 . S
C697 H705 0.960 . S
C698 C696 1.381 . S
C698 C699 1.394 . S
C698 H706 0.930 . S
C699 C698 1.394 . S
C699 C700 1.383 . S
C699 H707 0.929 . S
C700 C699 1.383 . S
C700 C701 1.377 . S
C701 H685 0.930 . S
C701 C700 1.377 . S
C701 C702 1.379 . S
C702 H686 0.931 . S
C702 C696 1.383 . S
C702 C701 1.379 . S
H703 C697 0.959 . S
H704 C697 0.961 . S
H705 C697 0.960 . S
H706 C698 0.930 . S
H707 C699 0.929 . S
H708 C716 0.929 . S
H709 C718 0.930 . S
H710 C720 0.930 . S
H711 C723 0.929 . S
H712 C726 0.930 . S
H713 C728 0.960 . S
H714 C728 0.960 . S
H715 C728 0.960 . S
C716 H708 0.929 . S
C716 C717 1.377 . S
C716 C718 1.384 . S
C717 C716 1.377 . S
C717 C723 1.390 . S
C718 H709 0.930 . S
C718 C716 1.384 . S
C718 C719 1.372 . S
C719 C718 1.372 . S
C719 C720 1.400 . S
C719 C724 1.490 . S
C720 H710 0.930 . S
C720 C719 1.400 . S
C720 C723 1.386 . S
H721 C737 0.930 . S
H722 C738 0.931 . S
C723 H711 0.929 . S
C723 C717 1.390 . S
C723 C720 1.386 . S
C724 C719 1.490 . S
C724 C726 1.395 . S
C724 C727 1.403 . S
H725 C731 0.930 . S
C726 H712 0.930 . S
C726 C724 1.395 . S
C726 C729 1.403 . S
C727 C724 1.403 . S
C727 C728 1.524 . S
C727 C731 1.400 . S
C728 H713 0.960 . S
C728 H714 0.960 . S
C728 H715 0.960 . S
C728 C727 1.524 . S
C729 C726 1.403 . S
C729 C730 1.392 . S
C729 C733 1.495 . S
C730 C729 1.392 . S
C730 C731 1.385 . S
C730 C732 1.478 . S
C731 H725 0.930 . S
C731 C727 1.400 . S
C731 C730 1.385 . S
C732 C730 1.478 . S
C732 C734 1.381 . S
C732 C738 1.383 . S
C733 C729 1.495 . S
C733 H739 0.959 . S
C733 H740 0.961 . S
C733 H741 0.960 . S
C734 C732 1.381 . S
C734 C735 1.394 . S
C734 H742 0.930 . S
C735 C734 1.394 . S
C735 C736 1.383 . S
C735 H743 0.929 . S
C736 C735 1.383 . S
C736 C737 1.377 . S
C737 H721 0.930 . S
C737 C736 1.377 . S
C737 C738 1.379 . S
C738 H722 0.931 . S
C738 C732 1.383 . S
C738 C737 1.379 . S
H739 C733 0.959 . S
H740 C733 0.961 . S
H741 C733 0.960 . S
H742 C734 0.930 . S
H743 C735 0.929 . S
H744 C752 0.929 . S
H745 C754 0.930 . S
H746 C756 0.930 . S
H747 C759 0.929 . S
H748 C762 0.930 . S
H749 C764 0.960 . S
H750 C764 0.960 . S
H751 C764 0.960 . S
C752 H744 0.929 . S
C752 C753 1.377 . S
C752 C754 1.384 . S
C753 C752 1.377 . S
C753 C759 1.390 . S
C754 H745 0.930 . S
C754 C752 1.384 . S
C754 C755 1.372 . S
C755 C754 1.372 . S
C755 C756 1.400 . S
C755 C760 1.490 . S
C756 H746 0.930 . S
C756 C755 1.400 . S
C756 C759 1.386 . S
H757 C773 0.930 . S
H758 C774 0.931 . S
C759 H747 0.929 . S
C759 C753 1.390 . S
C759 C756 1.386 . S
C760 C755 1.490 . S
C760 C762 1.395 . S
C760 C763 1.403 . S
H761 C767 0.930 . S
C762 H748 0.930 . S
C762 C760 1.395 . S
C762 C765 1.403 . S
C763 C760 1.403 . S
C763 C764 1.524 . S
C763 C767 1.400 . S
C764 H749 0.960 . S
C764 H750 0.960 . S
C764 H751 0.960 . S
C764 C763 1.524 . S
C765 C762 1.403 . S
C765 C766 1.392 . S
C765 C769 1.495 . S
C766 C765 1.392 . S
C766 C767 1.385 . S
C766 C768 1.478 . S
C767 H761 0.930 . S
C767 C763 1.400 . S
C767 C766 1.385 . S
C768 C766 1.478 . S
C768 C770 1.381 . S
C768 C774 1.383 . S
C769 C765 1.495 . S
C769 H775 0.959 . S
C769 H776 0.961 . S
C769 H777 0.960 . S
C770 C768 1.381 . S
C770 C771 1.394 . S
C770 H778 0.930 . S
C771 C770 1.394 . S
C771 C772 1.383 . S
C771 H779 0.929 . S
C772 C771 1.383 . S
C772 C773 1.377 . S
C773 H757 0.930 . S
C773 C772 1.377 . S
C773 C774 1.379 . S
C774 H758 0.931 . S
C774 C768 1.383 . S
C774 C773 1.379 . S
H775 C769 0.959 . S
H776 C769 0.961 . S
H777 C769 0.960 . S
H778 C770 0.930 . S
H779 C771 0.929 . S
H780 C788 0.929 . S
H781 C790 0.930 . S
H782 C792 0.930 . S
H783 C795 0.929 . S
H784 C798 0.930 . S
H785 C800 0.960 . S
H786 C800 0.960 . S
H787 C800 0.960 . S
C788 H780 0.929 . S
C788 C789 1.377 . S
C788 C790 1.384 . S
C789 C788 1.377 . S
C789 C795 1.390 . S
C790 H781 0.930 . S
C790 C788 1.384 . S
C790 C791 1.372 . S
C791 C790 1.372 . S
C791 C792 1.400 . S
C791 C796 1.490 . S
C792 H782 0.930 . S
C792 C791 1.400 . S
C792 C795 1.386 . S
H793 C809 0.930 . S
H794 C810 0.931 . S
C795 H783 0.929 . S
C795 C789 1.390 . S
C795 C792 1.386 . S
C796 C791 1.490 . S
C796 C798 1.395 . S
C796 C799 1.403 . S
H797 C803 0.930 . S
C798 H784 0.930 . S
C798 C796 1.395 . S
C798 C801 1.403 . S
C799 C796 1.403 . S
C799 C800 1.524 . S
C799 C803 1.400 . S
C800 H785 0.960 . S
C800 H786 0.960 . S
C800 H787 0.960 . S
C800 C799 1.524 . S
C801 C798 1.403 . S
C801 C802 1.392 . S
C801 C805 1.495 . S
C802 C801 1.392 . S
C802 C803 1.385 . S
C802 C804 1.478 . S
C803 H797 0.930 . S
C803 C799 1.400 . S
C803 C802 1.385 . S
C804 C802 1.478 . S
C804 C806 1.381 . S
C804 C810 1.383 . S
C805 C801 1.495 . S
C805 H811 0.959 . S
C805 H812 0.961 . S
C805 H813 0.960 . S
C806 C804 1.381 . S
C806 C807 1.394 . S
C806 H814 0.930 . S
C807 C806 1.394 . S
C807 C808 1.383 . S
C807 H815 0.929 . S
C808 C807 1.383 . S
C808 C809 1.377 . S
C809 H793 0.930 . S
C809 C808 1.377 . S
C809 C810 1.379 . S
C810 H794 0.931 . S
C810 C804 1.383 . S
C810 C809 1.379 . S
H811 C805 0.959 . S
H812 C805 0.961 . S
H813 C805 0.960 . S
H814 C806 0.930 . S
H815 C807 0.929 . S
H816 C824 0.929 . S
H817 C826 0.930 . S
H818 C828 0.930 . S
H819 C831 0.929 . S
H820 C834 0.930 . S
H821 C836 0.960 . S
H822 C836 0.960 . S
H823 C836 0.960 . S
C824 H816 0.929 . S
C824 C825 1.377 . S
C824 C826 1.384 . S
C825 C824 1.377 . S
C825 C831 1.390 . S
C826 H817 0.930 . S
C826 C824 1.384 . S
C826 C827 1.372 . S
C827 C826 1.372 . S
C827 C828 1.400 . S
C827 C832 1.490 . S
C828 H818 0.930 . S
C828 C827 1.400 . S
C828 C831 1.386 . S
H829 C845 0.930 . S
H830 C846 0.931 . S
C831 H819 0.929 . S
C831 C825 1.390 . S
C831 C828 1.386 . S
C832 C827 1.490 . S
C832 C834 1.395 . S
C832 C835 1.403 . S
H833 C839 0.930 . S
C834 H820 0.930 . S
C834 C832 1.395 . S
C834 C837 1.403 . S
C835 C832 1.403 . S
C835 C836 1.524 . S
C835 C839 1.400 . S
C836 H821 0.960 . S
C836 H822 0.960 . S
C836 H823 0.960 . S
C836 C835 1.524 . S
C837 C834 1.403 . S
C837 C838 1.392 . S
C837 C841 1.495 . S
C838 C837 1.392 . S
C838 C839 1.385 . S
C838 C840 1.478 . S
C839 H833 0.930 . S
C839 C835 1.400 . S
C839 C838 1.385 . S
C840 C838 1.478 . S
C840 C842 1.381 . S
C840 C846 1.383 . S
C841 C837 1.495 . S
C841 H847 0.959 . S
C841 H848 0.961 . S
C841 H849 0.960 . S
C842 C840 1.381 . S
C842 C843 1.394 . S
C842 H850 0.930 . S
C843 C842 1.394 . S
C843 C844 1.383 . S
C843 H851 0.929 . S
C844 C843 1.383 . S
C844 C845 1.377 . S
C845 H829 0.930 . S
C845 C844 1.377 . S
C845 C846 1.379 . S
C846 H830 0.931 . S
C846 C840 1.383 . S
C846 C845 1.379 . S
H847 C841 0.959 . S
H848 C841 0.961 . S
H849 C841 0.960 . S
H850 C842 0.930 . S
H851 C843 0.929 . S
H852 C860 0.929 . S
H853 C862 0.930 . S
H854 C864 0.930 . S
H855 C867 0.929 . S
H856 C870 0.930 . S
H857 C872 0.960 . S
H858 C872 0.960 . S
H859 C872 0.960 . S
C860 H852 0.929 . S
C860 C861 1.377 . S
C860 C862 1.384 . S
C861 C860 1.377 . S
C861 C867 1.390 . S
C862 H853 0.930 . S
C862 C860 1.384 . S
C862 C863 1.372 . S
C863 C862 1.372 . S
C863 C864 1.400 . S
C863 C868 1.490 . S
C864 H854 0.930 . S
C864 C863 1.400 . S
C864 C867 1.386 . S
H865 C881 0.930 . S
H866 C882 0.931 . S
C867 H855 0.929 . S
C867 C861 1.390 . S
C867 C864 1.386 . S
C868 C863 1.490 . S
C868 C870 1.395 . S
C868 C871 1.403 . S
H869 C875 0.930 . S
C870 H856 0.930 . S
C870 C868 1.395 . S
C870 C873 1.403 . S
C871 C868 1.403 . S
C871 C872 1.524 . S
C871 C875 1.400 . S
C872 H857 0.960 . S
C872 H858 0.960 . S
C872 H859 0.960 . S
C872 C871 1.524 . S
C873 C870 1.403 . S
C873 C874 1.392 . S
C873 C877 1.495 . S
C874 C873 1.392 . S
C874 C875 1.385 . S
C874 C876 1.478 . S
C875 H869 0.930 . S
C875 C871 1.400 . S
C875 C874 1.385 . S
C876 C874 1.478 . S
C876 C878 1.381 . S
C876 C882 1.383 . S
C877 C873 1.495 . S
C877 H883 0.959 . S
C877 H884 0.961 . S
C877 H885 0.960 . S
C878 C876 1.381 . S
C878 C879 1.394 . S
C878 H886 0.930 . S
C879 C878 1.394 . S
C879 C880 1.383 . S
C879 H887 0.929 . S
C880 C879 1.383 . S
C880 C881 1.377 . S
C881 H865 0.930 . S
C881 C880 1.377 . S
C881 C882 1.379 . S
C882 H866 0.931 . S
C882 C876 1.383 . S
C882 C881 1.379 . S
H883 C877 0.959 . S
H884 C877 0.961 . S
H885 C877 0.960 . S
H886 C878 0.930 . S
H887 C879 0.929 . S
H888 C896 0.929 . S
H889 C898 0.930 . S
H890 C900 0.930 . S
H891 C903 0.929 . S
H892 C906 0.930 . S
H893 C908 0.960 . S
H894 C908 0.960 . S
H895 C908 0.960 . S
C896 H888 0.929 . S
C896 C897 1.377 . S
C896 C898 1.384 . S
C897 C896 1.377 . S
C897 C903 1.390 . S
C898 H889 0.930 . S
C898 C896 1.384 . S
C898 C899 1.372 . S
C899 C898 1.372 . S
C899 C900 1.400 . S
C899 C904 1.490 . S
C900 H890 0.930 . S
C900 C899 1.400 . S
C900 C903 1.386 . S
H901 C917 0.930 . S
H902 C918 0.931 . S
C903 H891 0.929 . S
C903 C897 1.390 . S
C903 C900 1.386 . S
C904 C899 1.490 . S
C904 C906 1.395 . S
C904 C907 1.403 . S
H905 C911 0.930 . S
C906 H892 0.930 . S
C906 C904 1.395 . S
C906 C909 1.403 . S
C907 C904 1.403 . S
C907 C908 1.524 . S
C907 C911 1.400 . S
C908 H893 0.960 . S
C908 H894 0.960 . S
C908 H895 0.960 . S
C908 C907 1.524 . S
C909 C906 1.403 . S
C909 C910 1.392 . S
C909 C913 1.495 . S
C910 C909 1.392 . S
C910 C911 1.385 . S
C910 C912 1.478 . S
C911 H905 0.930 . S
C911 C907 1.400 . S
C911 C910 1.385 . S
C912 C910 1.478 . S
C912 C914 1.381 . S
C912 C918 1.383 . S
C913 C909 1.495 . S
C913 H919 0.959 . S
C913 H920 0.961 . S
C913 H921 0.960 . S
C914 C912 1.381 . S
C914 C915 1.394 . S
C914 H922 0.930 . S
C915 C914 1.394 . S
C915 C916 1.383 . S
C915 H923 0.929 . S
C916 C915 1.383 . S
C916 C917 1.377 . S
C917 H901 0.930 . S
C917 C916 1.377 . S
C917 C918 1.379 . S
C918 H902 0.931 . S
C918 C912 1.383 . S
C918 C917 1.379 . S
H919 C913 0.959 . S
H920 C913 0.961 . S
H921 C913 0.960 . S
H922 C914 0.930 . S
H923 C915 0.929 . S
H924 C932 0.929 . S
H925 C934 0.930 . S
H926 C936 0.930 . S
H927 C939 0.929 . S
H928 C942 0.930 . S
H929 C944 0.960 . S
H930 C944 0.960 . S
H931 C944 0.960 . S
C932 H924 0.929 . S
C932 C933 1.377 . S
C932 C934 1.384 . S
C933 C932 1.377 . S
C933 C939 1.390 . S
C934 H925 0.930 . S
C934 C932 1.384 . S
C934 C935 1.372 . S
C935 C934 1.372 . S
C935 C936 1.400 . S
C935 C940 1.490 . S
C936 H926 0.930 . S
C936 C935 1.400 . S
C936 C939 1.386 . S
H937 C953 0.930 . S
H938 C954 0.931 . S
C939 H927 0.929 . S
C939 C933 1.390 . S
C939 C936 1.386 . S
C940 C935 1.490 . S
C940 C942 1.395 . S
C940 C943 1.403 . S
H941 C947 0.930 . S
C942 H928 0.930 . S
C942 C940 1.395 . S
C942 C945 1.403 . S
C943 C940 1.403 . S
C943 C944 1.524 . S
C943 C947 1.400 . S
C944 H929 0.960 . S
C944 H930 0.960 . S
C944 H931 0.960 . S
C944 C943 1.524 . S
C945 C942 1.403 . S
C945 C946 1.392 . S
C945 C949 1.495 . S
C946 C945 1.392 . S
C946 C947 1.385 . S
C946 C948 1.478 . S
C947 H941 0.930 . S
C947 C943 1.400 . S
C947 C946 1.385 . S
C948 C946 1.478 . S
C948 C950 1.381 . S
C948 C954 1.383 . S
C949 C945 1.495 . S
C949 H955 0.959 . S
C949 H956 0.961 . S
C949 H957 0.960 . S
C950 C948 1.381 . S
C950 C951 1.394 . S
C950 H958 0.930 . S
C951 C950 1.394 . S
C951 C952 1.383 . S
C951 H959 0.929 . S
C952 C951 1.383 . S
C952 C953 1.377 . S
C953 H937 0.930 . S
C953 C952 1.377 . S
C953 C954 1.379 . S
C954 H938 0.931 . S
C954 C948 1.383 . S
C954 C953 1.379 . S
H955 C949 0.959 . S
H956 C949 0.961 . S
H957 C949 0.960 . S
H958 C950 0.930 . S
H959 C951 0.929 . S
H960 C968 0.929 . S
H961 C970 0.930 . S
H962 C972 0.930 . S
H963 C975 0.929 . S
H964 C978 0.930 . S
H965 C980 0.960 . S
H966 C980 0.960 . S
H967 C980 0.960 . S
C968 H960 0.929 . S
C968 C969 1.377 . S
C968 C970 1.384 . S
C969 C968 1.377 . S
C969 C975 1.390 . S
C970 H961 0.930 . S
C970 C968 1.384 . S
C970 C971 1.372 . S
C971 C970 1.372 . S
C971 C972 1.400 . S
C971 C976 1.490 . S
C972 H962 0.930 . S
C972 C971 1.400 . S
C972 C975 1.386 . S
H973 C989 0.930 . S
H974 C990 0.931 . S
C975 H963 0.929 . S
C975 C969 1.390 . S
C975 C972 1.386 . S
C976 C971 1.490 . S
C976 C978 1.395 . S
C976 C979 1.403 . S
H977 C983 0.930 . S
C978 H964 0.930 . S
C978 C976 1.395 . S
C978 C981 1.403 . S
C979 C976 1.403 . S
C979 C980 1.524 . S
C979 C983 1.400 . S
C980 H965 0.960 . S
C980 H966 0.960 . S
C980 H967 0.960 . S
C980 C979 1.524 . S
C981 C978 1.403 . S
C981 C982 1.392 . S
C981 C985 1.495 . S
C982 C981 1.392 . S
C982 C983 1.385 . S
C982 C984 1.478 . S
C983 H977 0.930 . S
C983 C979 1.400 . S
C983 C982 1.385 . S
C984 C982 1.478 . S
C984 C986 1.381 . S
C984 C990 1.383 . S
C985 C981 1.495 . S
C985 H991 0.959 . S
C985 H992 0.961 . S
C985 H993 0.960 . S
C986 C984 1.381 . S
C986 C987 1.394 . S
C986 H994 0.930 . S
C987 C986 1.394 . S
C987 C988 1.383 . S
C987 H995 0.929 . S
C988 C987 1.383 . S
C988 C989 1.377 . S
C989 H973 0.930 . S
C989 C988 1.377 . S
C989 C990 1.379 . S
C990 H974 0.931 . S
C990 C984 1.383 . S
C990 C989 1.379 . S
H991 C985 0.959 . S
H992 C985 0.961 . S
H993 C985 0.960 . S
H994 C986 0.930 . S
H995 C987 0.929 . S
H996 C1004 0.929 . S
H997 C1006 0.930 . S
H998 C1008 0.930 . S
H999 C1011 0.929 . S
H1000 C1014 0.930 . S
H1001 C1016 0.960 . S
H1002 C1016 0.960 . S
H1003 C1016 0.960 . S
C1004 H996 0.929 . S
C1004 C1005 1.377 . S
C1004 C1006 1.384 . S
C1005 C1004 1.377 . S
C1005 C1011 1.390 . S
C1006 H997 0.930 . S
C1006 C1004 1.384 . S
C1006 C1007 1.372 . S
C1007 C1006 1.372 . S
C1007 C1008 1.400 . S
C1007 C1012 1.490 . S
C1008 H998 0.930 . S
C1008 C1007 1.400 . S
C1008 C1011 1.386 . S
H1009 C1025 0.930 . S
H1010 C1026 0.931 . S
C1011 H999 0.929 . S
C1011 C1005 1.390 . S
C1011 C1008 1.386 . S
C1012 C1007 1.490 . S
C1012 C1014 1.395 . S
C1012 C1015 1.403 . S
H1013 C1019 0.930 . S
C1014 H1000 0.930 . S
C1014 C1012 1.395 . S
C1014 C1017 1.403 . S
C1015 C1012 1.403 . S
C1015 C1016 1.524 . S
C1015 C1019 1.400 . S
C1016 H1001 0.960 . S
C1016 H1002 0.960 . S
C1016 H1003 0.960 . S
C1016 C1015 1.524 . S
C1017 C1014 1.403 . S
C1017 C1018 1.392 . S
C1017 C1021 1.495 . S
C1018 C1017 1.392 . S
C1018 C1019 1.385 . S
C1018 C1020 1.478 . S
C1019 H1013 0.930 . S
C1019 C1015 1.400 . S
C1019 C1018 1.385 . S
C1020 C1018 1.478 . S
C1020 C1022 1.381 . S
C1020 C1026 1.383 . S
C1021 C1017 1.495 . S
C1021 H1027 0.959 . S
C1021 H1028 0.961 . S
C1021 H1029 0.960 . S
C1022 C1020 1.381 . S
C1022 C1023 1.394 . S
C1022 H1030 0.930 . S
C1023 C1022 1.394 . S
C1023 C1024 1.383 . S
C1023 H1031 0.929 . S
C1024 C1023 1.383 . S
C1024 C1025 1.377 . S
C1025 H1009 0.930 . S
C1025 C1024 1.377 . S
C1025 C1026 1.379 . S
C1026 H1010 0.931 . S
C1026 C1020 1.383 . S
C1026 C1025 1.379 . S
H1027 C1021 0.959 . S
H1028 C1021 0.961 . S
H1029 C1021 0.960 . S
H1030 C1022 0.930 . S
H1031 C1023 0.929 . S
H1032 C1040 0.929 . S
H1033 C1042 0.930 . S
H1034 C1044 0.930 . S
H1035 C1047 0.929 . S
H1036 C1050 0.930 . S
H1037 C1052 0.960 . S
H1038 C1052 0.960 . S
H1039 C1052 0.960 . S
C1040 H1032 0.929 . S
C1040 C1041 1.377 . S
C1040 C1042 1.384 . S
C1041 C1040 1.377 . S
C1041 C1047 1.390 . S
C1042 H1033 0.930 . S
C1042 C1040 1.384 . S
C1042 C1043 1.372 . S
C1043 C1042 1.372 . S
C1043 C1044 1.400 . S
C1043 C1048 1.490 . S
C1044 H1034 0.930 . S
C1044 C1043 1.400 . S
C1044 C1047 1.386 . S
H1045 C1061 0.930 . S
H1046 C1062 0.931 . S
C1047 H1035 0.929 . S
C1047 C1041 1.390 . S
C1047 C1044 1.386 . S
C1048 C1043 1.490 . S
C1048 C1050 1.395 . S
C1048 C1051 1.403 . S
H1049 C1055 0.930 . S
C1050 H1036 0.930 . S
C1050 C1048 1.395 . S
C1050 C1053 1.403 . S
C1051 C1048 1.403 . S
C1051 C1052 1.524 . S
C1051 C1055 1.400 . S
C1052 H1037 0.960 . S
C1052 H1038 0.960 . S
C1052 H1039 0.960 . S
C1052 C1051 1.524 . S
C1053 C1050 1.403 . S
C1053 C1054 1.392 . S
C1053 C1057 1.495 . S
C1054 C1053 1.392 . S
C1054 C1055 1.385 . S
C1054 C1056 1.478 . S
C1055 H1049 0.930 . S
C1055 C1051 1.400 . S
C1055 C1054 1.385 . S
C1056 C1054 1.478 . S
C1056 C1058 1.381 . S
C1056 C1062 1.383 . S
C1057 C1053 1.495 . S
C1057 H1063 0.959 . S
C1057 H1064 0.961 . S
C1057 H1065 0.960 . S
C1058 C1056 1.381 . S
C1058 C1059 1.394 . S
C1058 H1066 0.930 . S
C1059 C1058 1.394 . S
C1059 C1060 1.383 . S
C1059 H1067 0.929 . S
C1060 C1059 1.383 . S
C1060 C1061 1.377 . S
C1061 H1045 0.930 . S
C1061 C1060 1.377 . S
C1061 C1062 1.379 . S
C1062 H1046 0.931 . S
C1062 C1056 1.383 . S
C1062 C1061 1.379 . S
H1063 C1057 0.959 . S
H1064 C1057 0.961 . S
H1065 C1057 0.960 . S
H1066 C1058 0.930 . S
H1067 C1059 0.929 . S
H1068 C1076 0.929 . S
H1069 C1078 0.930 . S
H1070 C1080 0.930 . S
H1071 C1083 0.929 . S
H1072 C1086 0.930 . S
H1073 C1088 0.960 . S
H1074 C1088 0.960 . S
H1075 C1088 0.960 . S
C1076 H1068 0.929 . S
C1076 C1077 1.377 . S
C1076 C1078 1.384 . S
C1077 C1076 1.377 . S
C1077 C1083 1.390 . S
C1078 H1069 0.930 . S
C1078 C1076 1.384 . S
C1078 C1079 1.372 . S
C1079 C1078 1.372 . S
C1079 C1080 1.400 . S
C1079 C1084 1.490 . S
C1080 H1070 0.930 . S
C1080 C1079 1.400 . S
C1080 C1083 1.386 . S
H1081 C1097 0.930 . S
H1082 C1098 0.931 . S
C1083 H1071 0.929 . S
C1083 C1077 1.390 . S
C1083 C1080 1.386 . S
C1084 C1079 1.490 . S
C1084 C1086 1.395 . S
C1084 C1087 1.403 . S
H1085 C1091 0.930 . S
C1086 H1072 0.930 . S
C1086 C1084 1.395 . S
C1086 C1089 1.403 . S
C1087 C1084 1.403 . S
C1087 C1088 1.524 . S
C1087 C1091 1.400 . S
C1088 H1073 0.960 . S
C1088 H1074 0.960 . S
C1088 H1075 0.960 . S
C1088 C1087 1.524 . S
C1089 C1086 1.403 . S
C1089 C1090 1.392 . S
C1089 C1093 1.495 . S
C1090 C1089 1.392 . S
C1090 C1091 1.385 . S
C1090 C1092 1.478 . S
C1091 H1085 0.930 . S
C1091 C1087 1.400 . S
C1091 C1090 1.385 . S
C1092 C1090 1.478 . S
C1092 C1094 1.381 . S
C1092 C1098 1.383 . S
C1093 C1089 1.495 . S
C1093 H1099 0.959 . S
C1093 H1100 0.961 . S
C1093 H1101 0.960 . S
C1094 C1092 1.381 . S
C1094 C1095 1.394 . S
C1094 H1102 0.930 . S
C1095 C1094 1.394 . S
C1095 C1096 1.383 . S
C1095 H1103 0.929 . S
C1096 C1095 1.383 . S
C1096 C1097 1.377 . S
C1097 H1081 0.930 . S
C1097 C1096 1.377 . S
C1097 C1098 1.379 . S
C1098 H1082 0.931 . S
C1098 C1092 1.383 . S
C1098 C1097 1.379 . S
H1099 C1093 0.959 . S
H1100 C1093 0.961 . S
H1101 C1093 0.960 . S
H1102 C1094 0.930 . S
H1103 C1095 0.929 . S
H1104 C1112 0.929 . S
H1105 C1114 0.930 . S
H1106 C1116 0.930 . S
H1107 C1119 0.929 . S
H1108 C1122 0.930 . S
H1109 C1124 0.960 . S
H1110 C1124 0.960 . S
H1111 C1124 0.960 . S
C1112 H1104 0.929 . S
C1112 C1113 1.377 . S
C1112 C1114 1.384 . S
C1113 C1112 1.377 . S
C1113 C1119 1.390 . S
C1114 H1105 0.930 . S
C1114 C1112 1.384 . S
C1114 C1115 1.372 . S
C1115 C1114 1.372 . S
C1115 C1116 1.400 . S
C1115 C1120 1.490 . S
C1116 H1106 0.930 . S
C1116 C1115 1.400 . S
C1116 C1119 1.386 . S
H1117 C1133 0.930 . S
H1118 C1134 0.931 . S
C1119 H1107 0.929 . S
C1119 C1113 1.390 . S
C1119 C1116 1.386 . S
C1120 C1115 1.490 . S
C1120 C1122 1.395 . S
C1120 C1123 1.403 . S
H1121 C1127 0.930 . S
C1122 H1108 0.930 . S
C1122 C1120 1.395 . S
C1122 C1125 1.403 . S
C1123 C1120 1.403 . S
C1123 C1124 1.524 . S
C1123 C1127 1.400 . S
C1124 H1109 0.960 . S
C1124 H1110 0.960 . S
C1124 H1111 0.960 . S
C1124 C1123 1.524 . S
C1125 C1122 1.403 . S
C1125 C1126 1.392 . S
C1125 C1129 1.495 . S
C1126 C1125 1.392 . S
C1126 C1127 1.385 . S
C1126 C1128 1.478 . S
C1127 H1121 0.930 . S
C1127 C1123 1.400 . S
C1127 C1126 1.385 . S
C1128 C1126 1.478 . S
C1128 C1130 1.381 . S
C1128 C1134 1.383 . S
C1129 C1125 1.495 . S
C1129 H1135 0.959 . S
C1129 H1136 0.961 . S
C1129 H1137 0.960 . S
C1130 C1128 1.381 . S
C1130 C1131 1.394 . S
C1130 H1138 0.930 . S
C1131 C1130 1.394 . S
C1131 C1132 1.383 . S
C1131 H1139 0.929 . S
C1132 C1131 1.383 . S
C1132 C1133 1.377 . S
C1133 H1117 0.930 . S
C1133 C1132 1.377 . S
C1133 C1134 1.379 . S
C1134 H1118 0.931 . S
C1134 C1128 1.383 . S
C1134 C1133 1.379 . S
H1135 C1129 0.959 . S
H1136 C1129 0.961 . S
H1137 C1129 0.960 . S
H1138 C1130 0.930 . S
H1139 C1131 0.929 . S
H1140 C1148 0.929 . S
H1141 C1150 0.930 . S
H1142 C1152 0.930 . S
H1143 C1155 0.929 . S
H1144 C1158 0.930 . S
H1145 C1160 0.960 . S
H1146 C1160 0.960 . S
H1147 C1160 0.960 . S
C1148 H1140 0.929 . S
C1148 C1149 1.377 . S
C1148 C1150 1.384 . S
C1149 C1148 1.377 . S
C1149 C1155 1.390 . S
C1150 H1141 0.930 . S
C1150 C1148 1.384 . S
C1150 C1151 1.372 . S
C1151 C1150 1.372 . S
C1151 C1152 1.400 . S
C1151 C1156 1.490 . S
C1152 H1142 0.930 . S
C1152 C1151 1.400 . S
C1152 C1155 1.386 . S
H1153 C1169 0.930 . S
H1154 C1170 0.931 . S
C1155 H1143 0.929 . S
C1155 C1149 1.390 . S
C1155 C1152 1.386 . S
C1156 C1151 1.490 . S
C1156 C1158 1.395 . S
C1156 C1159 1.403 . S
H1157 C1163 0.930 . S
C1158 H1144 0.930 . S
C1158 C1156 1.395 . S
C1158 C1161 1.403 . S
C1159 C1156 1.403 . S
C1159 C1160 1.524 . S
C1159 C1163 1.400 . S
C1160 H1145 0.960 . S
C1160 H1146 0.960 . S
C1160 H1147 0.960 . S
C1160 C1159 1.524 . S
C1161 C1158 1.403 . S
C1161 C1162 1.392 . S
C1161 C1165 1.495 . S
C1162 C1161 1.392 . S
C1162 C1163 1.385 . S
C1162 C1164 1.478 . S
C1163 H1157 0.930 . S
C1163 C1159 1.400 . S
C1163 C1162 1.385 . S
C1164 C1162 1.478 . S
C1164 C1166 1.381 . S
C1164 C1170 1.383 . S
C1165 C1161 1.495 . S
C1165 H1171 0.959 . S
C1165 H1172 0.961 . S
C1165 H1173 0.960 . S
C1166 C1164 1.381 . S
C1166 C1167 1.394 . S
C1166 H1174 0.930 . S
C1167 C1166 1.394 . S
C1167 C1168 1.383 . S
C1167 H1175 0.929 . S
C1168 C1167 1.383 . S
C1168 C1169 1.377 . S
C1169 H1153 0.930 . S
C1169 C1168 1.377 . S
C1169 C1170 1.379 . S
C1170 H1154 0.931 . S
C1170 C1164 1.383 . S
C1170 C1169 1.379 . S
H1171 C1165 0.959 . S
H1172 C1165 0.961 . S
H1173 C1165 0.960 . S
H1174 C1166 0.930 . S
H1175 C1167 0.929 . S
H1176 C1184 0.929 . S
H1177 C1186 0.930 . S
H1178 C1188 0.930 . S
H1179 C1191 0.929 . S
H1180 C1194 0.930 . S
H1181 C1196 0.960 . S
H1182 C1196 0.960 . S
H1183 C1196 0.960 . S
C1184 H1176 0.929 . S
C1184 C1185 1.377 . S
C1184 C1186 1.384 . S
C1185 C1184 1.377 . S
C1185 C1191 1.390 . S
C1186 H1177 0.930 . S
C1186 C1184 1.384 . S
C1186 C1187 1.372 . S
C1187 C1186 1.372 . S
C1187 C1188 1.400 . S
C1187 C1192 1.490 . S
C1188 H1178 0.930 . S
C1188 C1187 1.400 . S
C1188 C1191 1.386 . S
H1189 C1205 0.930 . S
H1190 C1206 0.931 . S
C1191 H1179 0.929 . S
C1191 C1185 1.390 . S
C1191 C1188 1.386 . S
C1192 C1187 1.490 . S
C1192 C1194 1.395 . S
C1192 C1195 1.403 . S
H1193 C1199 0.930 . S
C1194 H1180 0.930 . S
C1194 C1192 1.395 . S
C1194 C1197 1.403 . S
C1195 C1192 1.403 . S
C1195 C1196 1.524 . S
C1195 C1199 1.400 . S
C1196 H1181 0.960 . S
C1196 H1182 0.960 . S
C1196 H1183 0.960 . S
C1196 C1195 1.524 . S
C1197 C1194 1.403 . S
C1197 C1198 1.392 . S
C1197 C1201 1.495 . S
C1198 C1197 1.392 . S
C1198 C1199 1.385 . S
C1198 C1200 1.478 . S
C1199 H1193 0.930 . S
C1199 C1195 1.400 . S
C1199 C1198 1.385 . S
C1200 C1198 1.478 . S
C1200 C1202 1.381 . S
C1200 C1206 1.383 . S
C1201 C1197 1.495 . S
C1201 H1207 0.959 . S
C1201 H1208 0.961 . S
C1201 H1209 0.960 . S
C1202 C1200 1.381 . S
C1202 C1203 1.394 . S
C1202 H1210 0.930 . S
C1203 C1202 1.394 . S
C1203 C1204 1.383 . S
C1203 H1211 0.929 . S
C1204 C1203 1.383 . S
C1204 C1205 1.377 . S
C1205 H1189 0.930 . S
C1205 C1204 1.377 . S
C1205 C1206 1.379 . S
C1206 H1190 0.931 . S
C1206 C1200 1.383 . S
C1206 C1205 1.379 . S
H1207 C1201 0.959 . S
H1208 C1201 0.961 . S
H1209 C1201 0.960 . S
H1210 C1202 0.930 . S
H1211 C1203 0.929 . S
H1212 C1220 0.929 . S
H1213 C1222 0.930 . S
H1214 C1224 0.930 . S
H1215 C1227 0.929 . S
H1216 C1230 0.930 . S
H1217 C1232 0.960 . S
H1218 C1232 0.960 . S
H1219 C1232 0.960 . S
C1220 H1212 0.929 . S
C1220 C1221 1.377 . S
C1220 C1222 1.384 . S
C1221 C1220 1.377 . S
C1221 C1227 1.390 . S
C1222 H1213 0.930 . S
C1222 C1220 1.384 . S
C1222 C1223 1.372 . S
C1223 C1222 1.372 . S
C1223 C1224 1.400 . S
C1223 C1228 1.490 . S
C1224 H1214 0.930 . S
C1224 C1223 1.400 . S
C1224 C1227 1.386 . S
H1225 C1241 0.930 . S
H1226 C1242 0.931 . S
C1227 H1215 0.929 . S
C1227 C1221 1.390 . S
C1227 C1224 1.386 . S
C1228 C1223 1.490 . S
C1228 C1230 1.395 . S
C1228 C1231 1.403 . S
H1229 C1235 0.930 . S
C1230 H1216 0.930 . S
C1230 C1228 1.395 . S
C1230 C1233 1.403 . S
C1231 C1228 1.403 . S
C1231 C1232 1.524 . S
C1231 C1235 1.400 . S
C1232 H1217 0.960 . S
C1232 H1218 0.960 . S
C1232 H1219 0.960 . S
C1232 C1231 1.524 . S
C1233 C1230 1.403 . S
C1233 C1234 1.392 . S
C1233 C1237 1.495 . S
C1234 C1233 1.392 . S
C1234 C1235 1.385 . S
C1234 C1236 1.478 . S
C1235 H1229 0.930 . S
C1235 C1231 1.400 . S
C1235 C1234 1.385 . S
C1236 C1234 1.478 . S
C1236 C1238 1.381 . S
C1236 C1242 1.383 . S
C1237 C1233 1.495 . S
C1237 H1243 0.959 . S
C1237 H1244 0.961 . S
C1237 H1245 0.960 . S
C1238 C1236 1.381 . S
C1238 C1239 1.394 . S
C1238 H1246 0.930 . S
C1239 C1238 1.394 . S
C1239 C1240 1.383 . S
C1239 H1247 0.929 . S
C1240 C1239 1.383 . S
C1240 C1241 1.377 . S
C1241 H1225 0.930 . S
C1241 C1240 1.377 . S
C1241 C1242 1.379 . S
C1242 H1226 0.931 . S
C1242 C1236 1.383 . S
C1242 C1241 1.379 . S
H1243 C1237 0.959 . S
H1244 C1237 0.961 . S
H1245 C1237 0.960 . S
H1246 C1238 0.930 . S
H1247 C1239 0.929 . S
H1248 C1256 0.929 . S
H1249 C1258 0.930 . S
H1250 C1260 0.930 . S
H1251 C1263 0.929 . S
H1252 C1266 0.930 . S
H1253 C1268 0.960 . S
H1254 C1268 0.960 . S
H1255 C1268 0.960 . S
C1256 H1248 0.929 . S
C1256 C1257 1.377 . S
C1256 C1258 1.384 . S
C1257 C1256 1.377 . S
C1257 C1263 1.390 . S
C1258 H1249 0.930 . S
C1258 C1256 1.384 . S
C1258 C1259 1.372 . S
C1259 C1258 1.372 . S
C1259 C1260 1.400 . S
C1259 C1264 1.490 . S
C1260 H1250 0.930 . S
C1260 C1259 1.400 . S
C1260 C1263 1.386 . S
H1261 C1277 0.930 . S
H1262 C1278 0.931 . S
C1263 H1251 0.929 . S
C1263 C1257 1.390 . S
C1263 C1260 1.386 . S
C1264 C1259 1.490 . S
C1264 C1266 1.395 . S
C1264 C1267 1.403 . S
H1265 C1271 0.930 . S
C1266 H1252 0.930 . S
C1266 C1264 1.395 . S
C1266 C1269 1.403 . S
C1267 C1264 1.403 . S
C1267 C1268 1.524 . S
C1267 C1271 1.400 . S
C1268 H1253 0.960 . S
C1268 H1254 0.960 . S
C1268 H1255 0.960 . S
C1268 C1267 1.524 . S
C1269 C1266 1.403 . S
C1269 C1270 1.392 . S
C1269 C1273 1.495 . S
C1270 C1269 1.392 . S
C1270 C1271 1.385 . S
C1270 C1272 1.478 . S
C1271 H1265 0.930 . S
C1271 C1267 1.400 . S
C1271 C1270 1.385 . S
C1272 C1270 1.478 . S
C1272 C1274 1.381 . S
C1272 C1278 1.383 . S
C1273 C1269 1.495 . S
C1273 H1279 0.959 . S
C1273 H1280 0.961 . S
C1273 H1281 0.960 . S
C1274 C1272 1.381 . S
C1274 C1275 1.394 . S
C1274 H1282 0.930 . S
C1275 C1274 1.394 . S
C1275 C1276 1.383 . S
C1275 H1283 0.929 . S
C1276 C1275 1.383 . S
C1276 C1277 1.377 . S
C1277 H1261 0.930 . S
C1277 C1276 1.377 . S
C1277 C1278 1.379 . S
C1278 H1262 0.931 . S
C1278 C1272 1.383 . S
C1278 C1277 1.379 . S
H1279 C1273 0.959 . S
H1280 C1273 0.961 . S
H1281 C1273 0.960 . S
H1282 C1274 0.930 . S
H1283 C1275 0.929 . S
H1284 C1292 0.929 . S
H1285 C1294 0.930 . S
H1286 C1296 0.930 . S
H1287 C1299 0.929 . S
H1288 C1302 0.930 . S
H1289 C1304 0.960 . S
H1290 C1304 0.960 . S
H1291 C1304 0.960 . S
C1292 H1284 0.929 . S
C1292 C1293 1.377 . S
C1292 C1294 1.384 . S
C1293 C1292 1.377 . S
C1293 C1299 1.390 . S
C1294 H1285 0.930 . S
C1294 C1292 1.384 . S
C1294 C1295 1.372 . S
C1295 C1294 1.372 . S
C1295 C1296 1.400 . S
C1295 C1300 1.490 . S
C1296 H1286 0.930 . S
C1296 C1295 1.400 . S
C1296 C1299 1.386 . S
H1297 C1313 0.930 . S
H1298 C1314 0.931 . S
C1299 H1287 0.929 . S
C1299 C1293 1.390 . S
C1299 C1296 1.386 . S
C1300 C1295 1.490 . S
C1300 C1302 1.395 . S
C1300 C1303 1.403 . S
H1301 C1307 0.930 . S
C1302 H1288 0.930 . S
C1302 C1300 1.395 . S
C1302 C1305 1.403 . S
C1303 C1300 1.403 . S
C1303 C1304 1.524 . S
C1303 C1307 1.400 . S
C1304 H1289 0.960 . S
C1304 H1290 0.960 . S
C1304 H1291 0.960 . S
C1304 C1303 1.524 . S
C1305 C1302 1.403 . S
C1305 C1306 1.392 . S
C1305 C1309 1.495 . S
C1306 C1305 1.392 . S
C1306 C1307 1.385 . S
C1306 C1308 1.478 . S
C1307 H1301 0.930 . S
C1307 C1303 1.400 . S
C1307 C1306 1.385 . S
C1308 C1306 1.478 . S
C1308 C1310 1.381 . S
C1308 C1314 1.383 . S
C1309 C1305 1.495 . S
C1309 H1315 0.959 . S
C1309 H1316 0.961 . S
C1309 H1317 0.960 . S
C1310 C1308 1.381 . S
C1310 C1311 1.394 . S
C1310 H1318 0.930 . S
C1311 C1310 1.394 . S
C1311 C1312 1.383 . S
C1311 H1319 0.929 . S
C1312 C1311 1.383 . S
C1312 C1313 1.377 . S
C1313 H1297 0.930 . S
C1313 C1312 1.377 . S
C1313 C1314 1.379 . S
C1314 H1298 0.931 . S
C1314 C1308 1.383 . S
C1314 C1313 1.379 . S
H1315 C1309 0.959 . S
H1316 C1309 0.961 . S
H1317 C1309 0.960 . S
H1318 C1310 0.930 . S
H1319 C1311 0.929 . S
H1320 C1328 0.929 . S
H1321 C1330 0.930 . S
H1322 C1332 0.930 . S
H1323 C1335 0.929 . S
H1324 C1338 0.930 . S
H1325 C1340 0.960 . S
H1326 C1340 0.960 . S
H1327 C1340 0.960 . S
C1328 H1320 0.929 . S
C1328 C1329 1.377 . S
C1328 C1330 1.384 . S
C1329 C1328 1.377 . S
C1329 C1335 1.390 . S
C1330 H1321 0.930 . S
C1330 C1328 1.384 . S
C1330 C1331 1.372 . S
C1331 C1330 1.372 . S
C1331 C1332 1.400 . S
C1331 C1336 1.490 . S
C1332 H1322 0.930 . S
C1332 C1331 1.400 . S
C1332 C1335 1.386 . S
H1333 C1349 0.930 . S
H1334 C1350 0.931 . S
C1335 H1323 0.929 . S
C1335 C1329 1.390 . S
C1335 C1332 1.386 . S
C1336 C1331 1.490 . S
C1336 C1338 1.395 . S
C1336 C1339 1.403 . S
H1337 C1343 0.930 . S
C1338 H1324 0.930 . S
C1338 C1336 1.395 . S
C1338 C1341 1.403 . S
C1339 C1336 1.403 . S
C1339 C1340 1.524 . S
C1339 C1343 1.400 . S
C1340 H1325 0.960 . S
C1340 H1326 0.960 . S
C1340 H1327 0.960 . S
C1340 C1339 1.524 . S
C1341 C1338 1.403 . S
C1341 C1342 1.392 . S
C1341 C1345 1.495 . S
C1342 C1341 1.392 . S
C1342 C1343 1.385 . S
C1342 C1344 1.478 . S
C1343 H1337 0.930 . S
C1343 C1339 1.400 . S
C1343 C1342 1.385 . S
C1344 C1342 1.478 . S
C1344 C1346 1.381 . S
C1344 C1350 1.383 . S
C1345 C1341 1.495 . S
C1345 H1351 0.959 . S
C1345 H1352 0.961 . S
C1345 H1353 0.960 . S
C1346 C1344 1.381 . S
C1346 C1347 1.394 . S
C1346 H1354 0.930 . S
C1347 C1346 1.394 . S
C1347 C1348 1.383 . S
C1347 H1355 0.929 . S
C1348 C1347 1.383 . S
C1348 C1349 1.377 . S
C1349 H1333 0.930 . S
C1349 C1348 1.377 . S
C1349 C1350 1.379 . S
C1350 H1334 0.931 . S
C1350 C1344 1.383 . S
C1350 C1349 1.379 . S
H1351 C1345 0.959 . S
H1352 C1345 0.961 . S
H1353 C1345 0.960 . S
H1354 C1346 0.930 . S
H1355 C1347 0.929 . S
H1356 C1364 0.929 . S
H1357 C1366 0.930 . S
H1358 C1368 0.930 . S
H1359 C1371 0.929 . S
H1360 C1374 0.930 . S
H1361 C1376 0.960 . S
H1362 C1376 0.960 . S
H1363 C1376 0.960 . S
C1364 H1356 0.929 . S
C1364 C1365 1.377 . S
C1364 C1366 1.384 . S
C1365 C1364 1.377 . S
C1365 C1371 1.390 . S
C1366 H1357 0.930 . S
C1366 C1364 1.384 . S
C1366 C1367 1.372 . S
C1367 C1366 1.372 . S
C1367 C1368 1.400 . S
C1367 C1372 1.490 . S
C1368 H1358 0.930 . S
C1368 C1367 1.400 . S
C1368 C1371 1.386 . S
H1369 C1385 0.930 . S
H1370 C1386 0.931 . S
C1371 H1359 0.929 . S
C1371 C1365 1.390 . S
C1371 C1368 1.386 . S
C1372 C1367 1.490 . S
C1372 C1374 1.395 . S
C1372 C1375 1.403 . S
H1373 C1379 0.930 . S
C1374 H1360 0.930 . S
C1374 C1372 1.395 . S
C1374 C1377 1.403 . S
C1375 C1372 1.403 . S
C1375 C1376 1.524 . S
C1375 C1379 1.400 . S
C1376 H1361 0.960 . S
C1376 H1362 0.960 . S
C1376 H1363 0.960 . S
C1376 C1375 1.524 . S
C1377 C1374 1.403 . S
C1377 C1378 1.392 . S
C1377 C1381 1.495 . S
C1378 C1377 1.392 . S
C1378 C1379 1.385 . S
C1378 C1380 1.478 . S
C1379 H1373 0.930 . S
C1379 C1375 1.400 . S
C1379 C1378 1.385 . S
C1380 C1378 1.478 . S
C1380 C1382 1.381 . S
C1380 C1386 1.383 . S
C1381 C1377 1.495 . S
C1381 H1387 0.959 . S
C1381 H1388 0.961 . S
C1381 H1389 0.960 . S
C1382 C1380 1.381 . S
C1382 C1383 1.394 . S
C1382 H1390 0.930 . S
C1383 C1382 1.394 . S
C1383 C1384 1.383 . S
C1383 H1391 0.929 . S
C1384 C1383 1.383 . S
C1384 C1385 1.377 . S
C1385 H1369 0.930 . S
C1385 C1384 1.377 . S
C1385 C1386 1.379 . S
C1386 H1370 0.931 . S
C1386 C1380 1.383 . S
C1386 C1385 1.379 . S
H1387 C1381 0.959 . S
H1388 C1381 0.961 . S
H1389 C1381 0.960 . S
H1390 C1382 0.930 . S
H1391 C1383 0.929 . S
H1392 C1400 0.929 . S
H1393 C1402 0.930 . S
H1394 C1404 0.930 . S
H1395 C1407 0.929 . S
H1396 C1410 0.930 . S
H1397 C1412 0.960 . S
H1398 C1412 0.960 . S
H1399 C1412 0.960 . S
C1400 H1392 0.929 . S
C1400 C1401 1.377 . S
C1400 C1402 1.384 . S
C1401 C1400 1.377 . S
C1401 C1407 1.390 . S
C1402 H1393 0.930 . S
C1402 C1400 1.384 . S
C1402 C1403 1.372 . S
C1403 C1402 1.372 . S
C1403 C1404 1.400 . S
C1403 C1408 1.490 . S
C1404 H1394 0.930 . S
C1404 C1403 1.400 . S
C1404 C1407 1.386 . S
H1405 C1421 0.930 . S
H1406 C1422 0.931 . S
C1407 H1395 0.929 . S
C1407 C1401 1.390 . S
C1407 C1404 1.386 . S
C1408 C1403 1.490 . S
C1408 C1410 1.395 . S
C1408 C1411 1.403 . S
H1409 C1415 0.930 . S
C1410 H1396 0.930 . S
C1410 C1408 1.395 . S
C1410 C1413 1.403 . S
C1411 C1408 1.403 . S
C1411 C1412 1.524 . S
C1411 C1415 1.400 . S
C1412 H1397 0.960 . S
C1412 H1398 0.960 . S
C1412 H1399 0.960 . S
C1412 C1411 1.524 . S
C1413 C1410 1.403 . S
C1413 C1414 1.392 . S
C1413 C1417 1.495 . S
C1414 C1413 1.392 . S
C1414 C1415 1.385 . S
C1414 C1416 1.478 . S
C1415 H1409 0.930 . S
C1415 C1411 1.400 . S
C1415 C1414 1.385 . S
C1416 C1414 1.478 . S
C1416 C1418 1.381 . S
C1416 C1422 1.383 . S
C1417 C1413 1.495 . S
C1417 H1423 0.959 . S
C1417 H1424 0.961 . S
C1417 H1425 0.960 . S
C1418 C1416 1.381 . S
C1418 C1419 1.394 . S
C1418 H1426 0.930 . S
C1419 C1418 1.394 . S
C1419 C1420 1.383 . S
C1419 H1427 0.929 . S
C1420 C1419 1.383 . S
C1420 C1421 1.377 . S
C1421 H1405 0.930 . S
C1421 C1420 1.377 . S
C1421 C1422 1.379 . S
C1422 H1406 0.931 . S
C1422 C1416 1.383 . S
C1422 C1421 1.379 . S
H1423 C1417 0.959 . S
H1424 C1417 0.961 . S
H1425 C1417 0.960 . S
H1426 C1418 0.930 . S
H1427 C1419 0.929 . S
H1428 C1436 0.929 . S
H1429 C1438 0.930 . S
H1430 C1440 0.930 . S
H1431 C1443 0.929 . S
H1432 C1446 0.930 . S
H1433 C1448 0.960 . S
H1434 C1448 0.960 . S
H1435 C1448 0.960 . S
C1436 H1428 0.929 . S
C1436 C1437 1.377 . S
C1436 C1438 1.384 . S
C1437 C1436 1.377 . S
C1437 C1443 1.390 . S
C1438 H1429 0.930 . S
C1438 C1436 1.384 . S
C1438 C1439 1.372 . S
C1439 C1438 1.372 . S
C1439 C1440 1.400 . S
C1439 C1444 1.490 . S
C1440 H1430 0.930 . S
C1440 C1439 1.400 . S
C1440 C1443 1.386 . S
H1441 C1457 0.930 . S
H1442 C1458 0.931 . S
C1443 H1431 0.929 . S
C1443 C1437 1.390 . S
C1443 C1440 1.386 . S
C1444 C1439 1.490 . S
C1444 C1446 1.395 . S
C1444 C1447 1.403 . S
H1445 C1451 0.930 . S
C1446 H1432 0.930 . S
C1446 C1444 1.395 . S
C1446 C1449 1.403 . S
C1447 C1444 1.403 . S
C1447 C1448 1.524 . S
C1447 C1451 1.400 . S
C1448 H1433 0.960 . S
C1448 H1434 0.960 . S
C1448 H1435 0.960 . S
C1448 C1447 1.524 . S
C1449 C1446 1.403 . S
C1449 C1450 1.392 . S
C1449 C1453 1.495 . S
C1450 C1449 1.392 . S
C1450 C1451 1.385 . S
C1450 C1452 1.478 . S
C1451 H1445 0.930 . S
C1451 C1447 1.400 . S
C1451 C1450 1.385 . S
C1452 C1450 1.478 . S
C1452 C1454 1.381 . S
C1452 C1458 1.383 . S
C1453 C1449 1.495 . S
C1453 H1459 0.959 . S
C1453 H1460 0.961 . S
C1453 H1461 0.960 . S
C1454 C1452 1.381 . S
C1454 C1455 1.394 . S
C1454 H1462 0.930 . S
C1455 C1454 1.394 . S
C1455 C1456 1.383 . S
C1455 H1463 0.929 . S
C1456 C1455 1.383 . S
C1456 C1457 1.377 . S
C1457 H1441 0.930 . S
C1457 C1456 1.377 . S
C1457 C1458 1.379 . S
C1458 H1442 0.931 . S
C1458 C1452 1.383 . S
C1458 C1457 1.379 . S
H1459 C1453 0.959 . S
H1460 C1453 0.961 . S
H1461 C1453 0.960 . S
H1462 C1454 0.930 . S
H1463 C1455 0.929 . S
H1464 C1472 0.929 . S
H1465 C1474 0.930 . S
H1466 C1476 0.930 . S
H1467 C1479 0.929 . S
H1468 C1482 0.930 . S
H1469 C1484 0.960 . S
H1470 C1484 0.960 . S
H1471 C1484 0.960 . S
C1472 H1464 0.929 . S
C1472 C1473 1.377 . S
C1472 C1474 1.384 . S
C1473 C1472 1.377 . S
C1473 C1479 1.390 . S
C1474 H1465 0.930 . S
C1474 C1472 1.384 . S
C1474 C1475 1.372 . S
C1475 C1474 1.372 . S
C1475 C1476 1.400 . S
C1475 C1480 1.490 . S
C1476 H1466 0.930 . S
C1476 C1475 1.400 . S
C1476 C1479 1.386 . S
H1477 C1493 0.930 . S
H1478 C1494 0.931 . S
C1479 H1467 0.929 . S
C1479 C1473 1.390 . S
C1479 C1476 1.386 . S
C1480 C1475 1.490 . S
C1480 C1482 1.395 . S
C1480 C1483 1.403 . S
H1481 C1487 0.930 . S
C1482 H1468 0.930 . S
C1482 C1480 1.395 . S
C1482 C1485 1.403 . S
C1483 C1480 1.403 . S
C1483 C1484 1.524 . S
C1483 C1487 1.400 . S
C1484 H1469 0.960 . S
C1484 H1470 0.960 . S
C1484 H1471 0.960 . S
C1484 C1483 1.524 . S
C1485 C1482 1.403 . S
C1485 C1486 1.392 . S
C1485 C1489 1.495 . S
C1486 C1485 1.392 . S
C1486 C1487 1.385 . S
C1486 C1488 1.478 . S
C1487 H1481 0.930 . S
C1487 C1483 1.400 . S
C1487 C1486 1.385 . S
C1488 C1486 1.478 . S
C1488 C1490 1.381 . S
C1488 C1494 1.383 . S
C1489 C1485 1.495 . S
C1489 H1495 0.959 . S
C1489 H1496 0.961 . S
C1489 H1497 0.960 . S
C1490 C1488 1.381 . S
C1490 C1491 1.394 . S
C1490 H1498 0.930 . S
C1491 C1490 1.394 . S
C1491 C1492 1.383 . S
C1491 H1499 0.929 . S
C1492 C1491 1.383 . S
C1492 C1493 1.377 . S
C1493 H1477 0.930 . S
C1493 C1492 1.377 . S
C1493 C1494 1.379 . S
C1494 H1478 0.931 . S
C1494 C1488 1.383 . S
C1494 C1493 1.379 . S
H1495 C1489 0.959 . S
H1496 C1489 0.961 . S
H1497 C1489 0.960 . S
H1498 C1490 0.930 . S
H1499 C1491 0.929 . S
H1500 C1508 0.929 . S
H1501 C1510 0.930 . S
H1502 C1512 0.930 . S
H1503 C1515 0.929 . S
H1504 C1518 0.930 . S
H1505 C1520 0.960 . S
H1506 C1520 0.960 . S
H1507 C1520 0.960 . S
C1508 H1500 0.929 . S
C1508 C1509 1.377 . S
C1508 C1510 1.384 . S
C1509 C1508 1.377 . S
C1509 C1515 1.390 . S
C1510 H1501 0.930 . S
C1510 C1508 1.384 . S
C1510 C1511 1.372 . S
C1511 C1510 1.372 . S
C1511 C1512 1.400 . S
C1511 C1516 1.490 . S
C1512 H1502 0.930 . S
C1512 C1511 1.400 . S
C1512 C1515 1.386 . S
H1513 C1529 0.930 . S
H1514 C1530 0.931 . S
C1515 H1503 0.929 . S
C1515 C1509 1.390 . S
C1515 C1512 1.386 . S
C1516 C1511 1.490 . S
C1516 C1518 1.395 . S
C1516 C1519 1.403 . S
H1517 C1523 0.930 . S
C1518 H1504 0.930 . S
C1518 C1516 1.395 . S
C1518 C1521 1.403 . S
C1519 C1516 1.403 . S
C1519 C1520 1.524 . S
C1519 C1523 1.400 . S
C1520 H1505 0.960 . S
C1520 H1506 0.960 . S
C1520 H1507 0.960 . S
C1520 C1519 1.524 . S
C1521 C1518 1.403 . S
C1521 C1522 1.392 . S
C1521 C1525 1.495 . S
C1522 C1521 1.392 . S
C1522 C1523 1.385 . S
C1522 C1524 1.478 . S
C1523 H1517 0.930 . S
C1523 C1519 1.400 . S
C1523 C1522 1.385 . S
C1524 C1522 1.478 . S
C1524 C1526 1.381 . S
C1524 C1530 1.383 . S
C1525 C1521 1.495 . S
C1525 H1531 0.959 . S
C1525 H1532 0.961 . S
C1525 H1533 0.960 . S
C1526 C1524 1.381 . S
C1526 C1527 1.394 . S
C1526 H1534 0.930 . S
C1527 C1526 1.394 . S
C1527 C1528 1.383 . S
C1527 H1535 0.929 . S
C1528 C1527 1.383 . S
C1528 C1529 1.377 . S
C1529 H1513 0.930 . S
C1529 C1528 1.377 . S
C1529 C1530 1.379 . S
C1530 H1514 0.931 . S
C1530 C1524 1.383 . S
C1530 C1529 1.379 . S
H1531 C1525 0.959 . S
H1532 C1525 0.961 . S
H1533 C1525 0.960 . S
H1534 C1526 0.930 . S
H1535 C1527 0.929 . S
H1536 C1544 0.929 . S
H1537 C1546 0.930 . S
H1538 C1548 0.930 . S
H1539 C1551 0.929 . S
H1540 C1554 0.930 . S
H1541 C1556 0.960 . S
H1542 C1556 0.960 . S
H1543 C1556 0.960 . S
C1544 H1536 0.929 . S
C1544 C1545 1.377 . S
C1544 C1546 1.384 . S
C1545 C1544 1.377 . S
C1545 C1551 1.390 . S
C1546 H1537 0.930 . S
C1546 C1544 1.384 . S
C1546 C1547 1.372 . S
C1547 C1546 1.372 . S
C1547 C1548 1.400 . S
C1547 C1552 1.490 . S
C1548 H1538 0.930 . S
C1548 C1547 1.400 . S
C1548 C1551 1.386 . S
H1549 C1565 0.930 . S
H1550 C1566 0.931 . S
C1551 H1539 0.929 . S
C1551 C1545 1.390 . S
C1551 C1548 1.386 . S
C1552 C1547 1.490 . S
C1552 C1554 1.395 . S
C1552 C1555 1.403 . S
H1553 C1559 0.930 . S
C1554 H1540 0.930 . S
C1554 C1552 1.395 . S
C1554 C1557 1.403 . S
C1555 C1552 1.403 . S
C1555 C1556 1.524 . S
C1555 C1559 1.400 . S
C1556 H1541 0.960 . S
C1556 H1542 0.960 . S
C1556 H1543 0.960 . S
C1556 C1555 1.524 . S
C1557 C1554 1.403 . S
C1557 C1558 1.392 . S
C1557 C1561 1.495 . S
C1558 C1557 1.392 . S
C1558 C1559 1.385 . S
C1558 C1560 1.478 . S
C1559 H1553 0.930 . S
C1559 C1555 1.400 . S
C1559 C1558 1.385 . S
C1560 C1558 1.478 . S
C1560 C1562 1.381 . S
C1560 C1566 1.383 . S
C1561 C1557 1.495 . S
C1561 H1567 0.959 . S
C1561 H1568 0.961 . S
C1561 H1569 0.960 . S
C1562 C1560 1.381 . S
C1562 C1563 1.394 . S
C1562 H1570 0.930 . S
C1563 C1562 1.394 . S
C1563 C1564 1.383 . S
C1563 H1571 0.929 . S
C1564 C1563 1.383 . S
C1564 C1565 1.377 . S
C1565 H1549 0.930 . S
C1565 C1564 1.377 . S
C1565 C1566 1.379 . S
C1566 H1550 0.931 . S
C1566 C1560 1.383 . S
C1566 C1565 1.379 . S
H1567 C1561 0.959 . S
H1568 C1561 0.961 . S
H1569 C1561 0.960 . S
H1570 C1562 0.930 . S
H1571 C1563 0.929 . S
H1572 C1580 0.929 . S
H1573 C1582 0.930 . S
H1574 C1584 0.930 . S
H1575 C1587 0.929 . S
H1576 C1590 0.921 1_556 S
H1577 C1592 0.960 1_554 S
H1578 C1592 0.960 . S
H1579 C1592 0.960 . S
C1580 H1572 0.929 . S
C1580 C1581 1.377 . S
C1580 C1582 1.384 . S
C1581 C1580 1.377 . S
C1581 C1587 1.390 . S
C1582 H1573 0.930 . S
C1582 C1580 1.384 . S
C1582 C1583 1.372 . S
C1583 C1582 1.372 . S
C1583 C1584 1.400 . S
C1583 C1588 1.490 . S
C1584 H1574 0.930 . S
C1584 C1583 1.400 . S
C1584 C1587 1.386 . S
H1585 C1601 0.930 . S
H1586 C1602 0.931 . S
C1587 H1575 0.929 . S
C1587 C1581 1.390 . S
C1587 C1584 1.386 . S
C1588 C1583 1.490 . S
C1588 C1590 1.386 1_556 S
C1588 C1591 1.374 1_556 S
H1589 C1595 0.930 . S
C1590 H1576 0.921 1_554 S
C1590 C1588 1.386 1_554 S
C1590 C1593 1.421 . S
C1591 C1588 1.374 1_554 S
C1591 C1592 1.499 1_554 S
C1591 C1595 1.458 . S
C1592 H1577 0.960 1_556 S
C1592 H1578 0.960 . S
C1592 H1579 0.960 . S
C1592 C1591 1.499 1_556 S
C1593 C1590 1.421 . S
C1593 C1594 1.392 . S
C1593 C1597 1.495 . S
C1594 C1593 1.392 . S
C1594 C1595 1.385 . S
C1594 C1596 1.478 . S
C1595 H1589 0.930 . S
C1595 C1591 1.458 . S
C1595 C1594 1.385 . S
C1596 C1594 1.478 . S
C1596 C1598 1.381 . S
C1596 C1602 1.383 . S
C1597 C1593 1.495 . S
C1597 H1603 0.959 . S
C1597 H1604 0.961 . S
C1597 H1605 0.960 . S
C1598 C1596 1.381 . S
C1598 C1599 1.394 . S
C1598 H1606 0.930 . S
C1599 C1598 1.394 . S
C1599 C1600 1.383 . S
C1599 H1607 0.929 . S
C1600 C1599 1.383 . S
C1600 C1601 1.377 . S
C1601 H1585 0.930 . S
C1601 C1600 1.377 . S
C1601 C1602 1.379 . S
C1602 H1586 0.931 . S
C1602 C1596 1.383 . S
C1602 C1601 1.379 . S
H1603 C1597 0.959 . S
H1604 C1597 0.961 . S
H1605 C1597 0.960 . S
H1606 C1598 0.930 . S
H1607 C1599 0.929 . S
H1608 C1616 0.929 . S
H1609 C1618 0.930 . S
H1610 C1620 0.930 . S
H1611 C1623 0.929 . S
H1612 C1626 0.930 . S
H1613 C1628 0.960 . S
H1614 C1628 0.960 . S
H1615 C1628 0.960 . S
C1616 H1608 0.929 . S
C1616 C1617 1.377 . S
C1616 C1618 1.384 . S
C1617 C1616 1.377 . S
C1617 C1623 1.390 . S
C1618 H1609 0.930 . S
C1618 C1616 1.384 . S
C1618 C1619 1.372 . S
C1619 C1618 1.372 . S
C1619 C1620 1.400 . S
C1619 C1624 1.490 . S
C1620 H1610 0.930 . S
C1620 C1619 1.400 . S
C1620 C1623 1.386 . S
H1621 C1637 0.930 . S
H1622 C1638 0.931 . S
C1623 H1611 0.929 . S
C1623 C1617 1.390 . S
C1623 C1620 1.386 . S
C1624 C1619 1.490 . S
C1624 C1626 1.395 . S
C1624 C1627 1.403 . S
H1625 C1631 0.930 . S
C1626 H1612 0.930 . S
C1626 C1624 1.395 . S
C1626 C1629 1.403 . S
C1627 C1624 1.403 . S
C1627 C1628 1.524 . S
C1627 C1631 1.400 . S
C1628 H1613 0.960 . S
C1628 H1614 0.960 . S
C1628 H1615 0.960 . S
C1628 C1627 1.524 . S
C1629 C1626 1.403 . S
C1629 C1630 1.392 . S
C1629 C1633 1.495 . S
C1630 C1629 1.392 . S
C1630 C1631 1.385 . S
C1630 C1632 1.478 . S
C1631 H1625 0.930 . S
C1631 C1627 1.400 . S
C1631 C1630 1.385 . S
C1632 C1630 1.478 . S
C1632 C1634 1.381 . S
C1632 C1638 1.383 . S
C1633 C1629 1.495 . S
C1633 H1639 0.959 . S
C1633 H1640 0.961 . S
C1633 H1641 0.960 . S
C1634 C1632 1.381 . S
C1634 C1635 1.394 . S
C1634 H1642 0.930 . S
C1635 C1634 1.394 . S
C1635 C1636 1.383 . S
C1635 H1643 0.929 . S
C1636 C1635 1.383 . S
C1636 C1637 1.377 . S
C1637 H1621 0.930 . S
C1637 C1636 1.377 . S
C1637 C1638 1.379 . S
C1638 H1622 0.931 . S
C1638 C1632 1.383 . S
C1638 C1637 1.379 . S
H1639 C1633 0.959 . S
H1640 C1633 0.961 . S
H1641 C1633 0.960 . S
H1642 C1634 0.930 . S
H1643 C1635 0.929 . S
H1644 C1652 0.929 . S
H1645 C1654 0.930 . S
H1646 C1656 0.930 . S
H1647 C1659 0.929 . S
H1648 C1662 0.946 . S
H1649 C1664 0.960 1_554 S
H1650 C1664 0.960 . S
H1651 C1664 0.960 . S
C1652 H1644 0.929 . S
C1652 C1653 1.377 . S
C1652 C1654 1.384 . S
C1653 C1652 1.377 . S
C1653 C1659 1.390 . S
C1654 H1645 0.930 . S
C1654 C1652 1.384 . S
C1654 C1655 1.372 . S
C1655 C1654 1.372 . S
C1655 C1656 1.400 . S
C1655 C1660 1.490 . S
C1656 H1646 0.930 . S
C1656 C1655 1.400 . S
C1656 C1659 1.386 . S
H1657 C1673 0.930 . S
H1658 C1674 0.931 . S
C1659 H1647 0.929 . S
C1659 C1653 1.390 . S
C1659 C1656 1.386 . S
C1660 C1655 1.490 . S
C1660 C1662 1.407 . S
C1660 C1663 1.403 1_556 S
H1661 C1667 0.930 . S
C1662 H1648 0.946 . S
C1662 C1660 1.407 . S
C1662 C1665 1.376 1_556 S
C1663 C1660 1.403 1_554 S
C1663 C1664 1.524 1_554 S
C1663 C1667 1.400 . S
C1664 H1649 0.960 1_556 S
C1664 H1650 0.960 . S
C1664 H1651 0.960 . S
C1664 C1663 1.524 1_556 S
C1665 C1662 1.376 1_554 S
C1665 C1666 1.392 . S
C1665 C1669 1.495 . S
C1666 C1665 1.392 . S
C1666 C1667 1.385 . S
C1666 C1668 1.478 . S
C1667 H1661 0.930 . S
C1667 C1663 1.400 . S
C1667 C1666 1.385 . S
C1668 C1666 1.478 . S
C1668 C1670 1.381 . S
C1668 C1674 1.383 . S
C1669 C1665 1.495 . S
C1669 H1675 0.959 . S
C1669 H1676 0.961 . S
C1669 H1677 0.960 . S
C1670 C1668 1.381 . S
C1670 C1671 1.394 . S
C1670 H1678 0.930 . S
C1671 C1670 1.394 . S
C1671 C1672 1.383 . S
C1671 H1679 0.929 . S
C1672 C1671 1.383 . S
C1672 C1673 1.377 . S
C1673 H1657 0.930 . S
C1673 C1672 1.377 . S
C1673 C1674 1.379 . S
C1674 H1658 0.931 . S
C1674 C1668 1.383 . S
C1674 C1673 1.379 . S
H1675 C1669 0.959 . S
H1676 C1669 0.961 . S
H1677 C1669 0.960 . S
H1678 C1670 0.930 . S
H1679 C1671 0.929 . S
H1680 C1688 0.929 . S
H1681 C1690 0.930 . S
H1682 C1692 0.930 . S
H1683 C1695 0.929 . S
H1684 C1698 0.930 . S
H1685 C1700 0.960 . S
H1686 C1700 0.960 . S
H1687 C1700 0.960 . S
C1688 H1680 0.929 . S
C1688 C1689 1.377 . S
C1688 C1690 1.384 . S
C1689 C1688 1.377 . S
C1689 C1695 1.390 . S
C1690 H1681 0.930 . S
C1690 C1688 1.384 . S
C1690 C1691 1.372 . S
C1691 C1690 1.372 . S
C1691 C1692 1.400 . S
C1691 C1696 1.490 . S
C1692 H1682 0.930 . S
C1692 C1691 1.400 . S
C1692 C1695 1.386 . S
H1693 C1709 0.930 . S
H1694 C1710 0.931 . S
C1695 H1683 0.929 . S
C1695 C1689 1.390 . S
C1695 C1692 1.386 . S
C1696 C1691 1.490 . S
C1696 C1698 1.395 . S
C1696 C1699 1.403 . S
H1697 C1703 0.930 . S
C1698 H1684 0.930 . S
C1698 C1696 1.395 . S
C1698 C1701 1.403 . S
C1699 C1696 1.403 . S
C1699 C1700 1.524 . S
C1699 C1703 1.400 . S
C1700 H1685 0.960 . S
C1700 H1686 0.960 . S
C1700 H1687 0.960 . S
C1700 C1699 1.524 . S
C1701 C1698 1.403 . S
C1701 C1702 1.392 . S
C1701 C1705 1.495 . S
C1702 C1701 1.392 . S
C1702 C1703 1.385 . S
C1702 C1704 1.478 . S
C1703 H1697 0.930 . S
C1703 C1699 1.400 . S
C1703 C1702 1.385 . S
C1704 C1702 1.478 . S
C1704 C1706 1.381 . S
C1704 C1710 1.383 . S
C1705 C1701 1.495 . S
C1705 H1711 0.959 . S
C1705 H1712 0.961 . S
C1705 H1713 0.960 . S
C1706 C1704 1.381 . S
C1706 C1707 1.394 . S
C1706 H1714 0.930 . S
C1707 C1706 1.394 . S
C1707 C1708 1.383 . S
C1707 H1715 0.929 . S
C1708 C1707 1.383 . S
C1708 C1709 1.377 . S
C1709 H1693 0.930 . S
C1709 C1708 1.377 . S
C1709 C1710 1.379 . S
C1710 H1694 0.931 . S
C1710 C1704 1.383 . S
C1710 C1709 1.379 . S
H1711 C1705 0.959 . S
H1712 C1705 0.961 . S
H1713 C1705 0.960 . S
H1714 C1706 0.930 . S
H1715 C1707 0.929 . S
H1716 C1724 0.929 . S
H1717 C1726 0.930 . S
H1718 C1728 0.930 . S
H1719 C1731 0.929 . S
H1720 C1734 0.930 . S
H1721 C1736 0.960 . S
H1722 C1736 0.960 . S
H1723 C1736 0.960 . S
C1724 H1716 0.929 . S
C1724 C1725 1.377 . S
C1724 C1726 1.384 . S
C1725 C1724 1.377 . S
C1725 C1731 1.390 . S
C1726 H1717 0.930 . S
C1726 C1724 1.384 . S
C1726 C1727 1.372 . S
C1727 C1726 1.372 . S
C1727 C1728 1.400 . S
C1727 C1732 1.490 . S
C1728 H1718 0.930 . S
C1728 C1727 1.400 . S
C1728 C1731 1.386 . S
H1729 C1745 0.930 . S
H1730 C1746 0.931 . S
C1731 H1719 0.929 . S
C1731 C1725 1.390 . S
C1731 C1728 1.386 . S
C1732 C1727 1.490 . S
C1732 C1734 1.395 . S
C1732 C1735 1.403 . S
H1733 C1739 0.930 . S
C1734 H1720 0.930 . S
C1734 C1732 1.395 . S
C1734 C1737 1.403 1_556 S
C1735 C1732 1.403 . S
C1735 C1736 1.524 . S
C1735 C1739 1.400 1_556 S
C1736 H1721 0.960 . S
C1736 H1722 0.960 . S
C1736 H1723 0.960 . S
C1736 C1735 1.524 . S
C1737 C1734 1.403 1_554 S
C1737 C1738 1.392 . S
C1737 C1741 1.495 . S
C1738 C1737 1.392 . S
C1738 C1739 1.385 . S
C1738 C1740 1.478 . S
C1739 H1733 0.930 . S
C1739 C1735 1.400 1_554 S
C1739 C1738 1.385 . S
C1740 C1738 1.478 . S
C1740 C1742 1.381 . S
C1740 C1746 1.383 . S
C1741 C1737 1.495 . S
C1741 H1747 0.959 . S
C1741 H1748 0.961 . S
C1741 H1749 0.960 . S
C1742 C1740 1.381 . S
C1742 C1743 1.394 . S
C1742 H1750 0.930 . S
C1743 C1742 1.394 . S
C1743 C1744 1.383 . S
C1743 H1751 0.929 . S
C1744 C1743 1.383 . S
C1744 C1745 1.377 . S
C1745 H1729 0.930 . S
C1745 C1744 1.377 . S
C1745 C1746 1.379 . S
C1746 H1730 0.931 . S
C1746 C1740 1.383 . S
C1746 C1745 1.379 . S
H1747 C1741 0.959 . S
H1748 C1741 0.961 . S
H1749 C1741 0.960 . S
H1750 C1742 0.930 . S
H1751 C1743 0.929 . S
H1752 C1760 0.929 . S
H1753 C1762 0.930 . S
H1754 C1764 0.930 . S
H1755 C1767 0.929 . S
H1756 C1770 0.930 . S
H1757 C1772 0.960 . S
H1758 C1772 0.960 . S
H1759 C1772 0.960 . S
C1760 H1752 0.929 . S
C1760 C1761 1.377 . S
C1760 C1762 1.384 . S
C1761 C1760 1.377 . S
C1761 C1767 1.390 . S
C1762 H1753 0.930 . S
C1762 C1760 1.384 . S
C1762 C1763 1.372 . S
C1763 C1762 1.372 . S
C1763 C1764 1.400 . S
C1763 C1768 1.490 . S
C1764 H1754 0.930 . S
C1764 C1763 1.400 . S
C1764 C1767 1.386 . S
H1765 C1781 0.930 . S
H1766 C1782 0.931 . S
C1767 H1755 0.929 . S
C1767 C1761 1.390 . S
C1767 C1764 1.386 . S
C1768 C1763 1.490 . S
C1768 C1770 1.395 . S
C1768 C1771 1.403 . S
H1769 C1775 0.930 . S
C1770 H1756 0.930 . S
C1770 C1768 1.395 . S
C1770 C1773 1.403 . S
C1771 C1768 1.403 . S
C1771 C1772 1.524 . S
C1771 C1775 1.400 . S
C1772 H1757 0.960 . S
C1772 H1758 0.960 . S
C1772 H1759 0.960 . S
C1772 C1771 1.524 . S
C1773 C1770 1.403 . S
C1773 C1774 1.392 . S
C1773 C1777 1.495 . S
C1774 C1773 1.392 . S
C1774 C1775 1.385 . S
C1774 C1776 1.478 . S
C1775 H1769 0.930 . S
C1775 C1771 1.400 . S
C1775 C1774 1.385 . S
C1776 C1774 1.478 . S
C1776 C1778 1.381 . S
C1776 C1782 1.383 . S
C1777 C1773 1.495 . S
C1777 H1783 0.959 . S
C1777 H1784 0.961 . S
C1777 H1785 0.960 . S
C1778 C1776 1.381 . S
C1778 C1779 1.394 . S
C1778 H1786 0.930 . S
C1779 C1778 1.394 . S
C1779 C1780 1.383 . S
C1779 H1787 0.929 . S
C1780 C1779 1.383 . S
C1780 C1781 1.377 . S
C1781 H1765 0.930 . S
C1781 C1780 1.377 . S
C1781 C1782 1.379 . S
C1782 H1766 0.931 . S
C1782 C1776 1.383 . S
C1782 C1781 1.379 . S
H1783 C1777 0.959 . S
H1784 C1777 0.961 . S
H1785 C1777 0.960 . S
H1786 C1778 0.930 . S
H1787 C1779 0.929 . S
H1788 C1796 0.929 . S
H1789 C1798 0.930 . S
H1790 C1800 0.930 . S
H1791 C1803 0.929 . S
H1792 C1806 0.930 . S
H1793 C1808 0.960 . S
H1794 C1808 0.960 . S
H1795 C1808 0.960 . S
C1796 H1788 0.929 . S
C1796 C1797 1.377 . S
C1796 C1798 1.384 . S
C1797 C1796 1.377 . S
C1797 C1803 1.390 . S
C1798 H1789 0.930 . S
C1798 C1796 1.384 . S
C1798 C1799 1.372 . S
C1799 C1798 1.372 . S
C1799 C1800 1.400 . S
C1799 C1804 1.490 . S
C1800 H1790 0.930 . S
C1800 C1799 1.400 . S
C1800 C1803 1.386 . S
H1801 C1817 0.930 . S
H1802 C1818 0.931 . S
C1803 H1791 0.929 . S
C1803 C1797 1.390 . S
C1803 C1800 1.386 . S
C1804 C1799 1.490 . S
C1804 C1806 1.395 . S
C1804 C1807 1.403 . S
H1805 C1811 0.930 . S
C1806 H1792 0.930 . S
C1806 C1804 1.395 . S
C1806 C1809 1.403 1_556 S
C1807 C1804 1.403 . S
C1807 C1808 1.524 . S
C1807 C1811 1.400 1_556 S
C1808 H1793 0.960 . S
C1808 H1794 0.960 . S
C1808 H1795 0.960 . S
C1808 C1807 1.524 . S
C1809 C1806 1.403 1_554 S
C1809 C1810 1.392 . S
C1809 C1813 1.495 . S
C1810 C1809 1.392 . S
C1810 C1811 1.385 . S
C1810 C1812 1.478 . S
C1811 H1805 0.930 . S
C1811 C1807 1.400 1_554 S
C1811 C1810 1.385 . S
C1812 C1810 1.478 . S
C1812 C1814 1.381 . S
C1812 C1818 1.383 . S
C1813 C1809 1.495 . S
C1813 H1819 0.959 . S
C1813 H1820 0.961 . S
C1813 H1821 0.960 . S
C1814 C1812 1.381 . S
C1814 C1815 1.394 . S
C1814 H1822 0.930 . S
C1815 C1814 1.394 . S
C1815 C1816 1.383 . S
C1815 H1823 0.929 . S
C1816 C1815 1.383 . S
C1816 C1817 1.377 . S
C1817 H1801 0.930 . S
C1817 C1816 1.377 . S
C1817 C1818 1.379 . S
C1818 H1802 0.931 . S
C1818 C1812 1.383 . S
C1818 C1817 1.379 . S
H1819 C1813 0.959 . S
H1820 C1813 0.961 . S
H1821 C1813 0.960 . S
H1822 C1814 0.930 . S
H1823 C1815 0.929 . S
H1824 C1832 0.929 . S
H1825 C1834 0.930 . S
H1826 C1836 0.930 . S
H1827 C1839 0.929 . S
H1828 C1842 0.930 . S
H1829 C1844 0.960 . S
H1830 C1844 0.960 . S
H1831 C1844 0.960 . S
C1832 H1824 0.929 . S
C1832 C1833 1.377 . S
C1832 C1834 1.384 . S
C1833 C1832 1.377 . S
C1833 C1839 1.390 . S
C1834 H1825 0.930 . S
C1834 C1832 1.384 . S
C1834 C1835 1.372 . S
C1835 C1834 1.372 . S
C1835 C1836 1.400 . S
C1835 C1840 1.490 . S
C1836 H1826 0.930 . S
C1836 C1835 1.400 . S
C1836 C1839 1.386 . S
H1837 C1853 0.930 . S
H1838 C1854 0.931 . S
C1839 H1827 0.929 . S
C1839 C1833 1.390 . S
C1839 C1836 1.386 . S
C1840 C1835 1.490 . S
C1840 C1842 1.395 . S
C1840 C1843 1.403 . S
H1841 C1847 0.930 . S
C1842 H1828 0.930 . S
C1842 C1840 1.395 . S
C1842 C1845 1.403 . S
C1843 C1840 1.403 . S
C1843 C1844 1.524 . S
C1843 C1847 1.400 . S
C1844 H1829 0.960 . S
C1844 H1830 0.960 . S
C1844 H1831 0.960 . S
C1844 C1843 1.524 . S
C1845 C1842 1.403 . S
C1845 C1846 1.392 . S
C1845 C1849 1.495 . S
C1846 C1845 1.392 . S
C1846 C1847 1.385 . S
C1846 C1848 1.478 . S
C1847 H1841 0.930 . S
C1847 C1843 1.400 . S
C1847 C1846 1.385 . S
C1848 C1846 1.478 . S
C1848 C1850 1.381 . S
C1848 C1854 1.383 . S
C1849 C1845 1.495 . S
C1849 H1855 0.959 . S
C1849 H1856 0.961 . S
C1849 H1857 0.960 . S
C1850 C1848 1.381 . S
C1850 C1851 1.394 . S
C1850 H1858 0.930 . S
C1851 C1850 1.394 . S
C1851 C1852 1.383 . S
C1851 H1859 0.929 . S
C1852 C1851 1.383 . S
C1852 C1853 1.377 . S
C1853 H1837 0.930 . S
C1853 C1852 1.377 . S
C1853 C1854 1.379 . S
C1854 H1838 0.931 . S
C1854 C1848 1.383 . S
C1854 C1853 1.379 . S
H1855 C1849 0.959 . S
H1856 C1849 0.961 . S
H1857 C1849 0.960 . S
H1858 C1850 0.930 . S
H1859 C1851 0.929 . S
H1860 C1868 0.929 . S
H1861 C1870 0.930 . S
H1862 C1872 0.930 . S
H1863 C1875 0.929 . S
H1864 C1878 0.930 . S
H1865 C1880 0.960 . S
H1866 C1880 0.960 . S
H1867 C1880 0.960 . S
C1868 H1860 0.929 . S
C1868 C1869 1.377 . S
C1868 C1870 1.384 . S
C1869 C1868 1.377 . S
C1869 C1875 1.390 . S
C1870 H1861 0.930 . S
C1870 C1868 1.384 . S
C1870 C1871 1.372 . S
C1871 C1870 1.372 . S
C1871 C1872 1.400 . S
C1871 C1876 1.490 . S
C1872 H1862 0.930 . S
C1872 C1871 1.400 . S
C1872 C1875 1.386 . S
H1873 C1889 0.930 . S
H1874 C1890 0.931 . S
C1875 H1863 0.929 . S
C1875 C1869 1.390 . S
C1875 C1872 1.386 . S
C1876 C1871 1.490 . S
C1876 C1878 1.395 . S
C1876 C1879 1.403 . S
H1877 C1883 0.930 . S
C1878 H1864 0.930 . S
C1878 C1876 1.395 . S
C1878 C1881 1.403 1_565 S
C1879 C1876 1.403 . S
C1879 C1880 1.524 . S
C1879 C1883 1.400 1_565 S
C1880 H1865 0.960 . S
C1880 H1866 0.960 . S
C1880 H1867 0.960 . S
C1880 C1879 1.524 . S
C1881 C1878 1.403 1_545 S
C1881 C1882 1.392 . S
C1881 C1885 1.495 . S
C1882 C1881 1.392 . S
C1882 C1883 1.385 . S
C1882 C1884 1.478 . S
C1883 H1877 0.930 . S
C1883 C1879 1.400 1_545 S
C1883 C1882 1.385 . S
C1884 C1882 1.478 . S
C1884 C1886 1.381 . S
C1884 C1890 1.383 . S
C1885 C1881 1.495 . S
C1885 H1891 0.959 . S
C1885 H1892 0.961 . S
C1885 H1893 0.960 . S
C1886 C1884 1.381 . S
C1886 C1887 1.394 . S
C1886 H1894 0.930 . S
C1887 C1886 1.394 . S
C1887 C1888 1.383 . S
C1887 H1895 0.929 . S
C1888 C1887 1.383 . S
C1888 C1889 1.377 . S
C1889 H1873 0.930 . S
C1889 C1888 1.377 . S
C1889 C1890 1.379 . S
C1890 H1874 0.931 . S
C1890 C1884 1.383 . S
C1890 C1889 1.379 . S
H1891 C1885 0.959 . S
H1892 C1885 0.961 . S
H1893 C1885 0.960 . S
H1894 C1886 0.930 . S
H1895 C1887 0.929 . S
H1896 C1904 0.929 . S
H1897 C1906 0.930 . S
H1898 C1908 0.930 . S
H1899 C1911 0.929 . S
H1900 C1914 0.930 . S
H1901 C1916 0.960 . S
H1902 C1916 0.960 . S
H1903 C1916 0.960 . S
C1904 H1896 0.929 . S
C1904 C1905 1.377 . S
C1904 C1906 1.384 . S
C1905 C1904 1.377 . S
C1905 C1911 1.390 . S
C1906 H1897 0.930 . S
C1906 C1904 1.384 . S
C1906 C1907 1.372 . S
C1907 C1906 1.372 . S
C1907 C1908 1.400 . S
C1907 C1912 1.490 . S
C1908 H1898 0.930 . S
C1908 C1907 1.400 . S
C1908 C1911 1.386 . S
H1909 C1925 0.930 . S
H1910 C1926 0.931 . S
C1911 H1899 0.929 . S
C1911 C1905 1.390 . S
C1911 C1908 1.386 . S
C1912 C1907 1.490 . S
C1912 C1914 1.395 . S
C1912 C1915 1.403 . S
H1913 C1919 0.930 . S
C1914 H1900 0.930 . S
C1914 C1912 1.395 . S
C1914 C1917 1.403 . S
C1915 C1912 1.403 . S
C1915 C1916 1.524 . S
C1915 C1919 1.400 . S
C1916 H1901 0.960 . S
C1916 H1902 0.960 . S
C1916 H1903 0.960 . S
C1916 C1915 1.524 . S
C1917 C1914 1.403 . S
C1917 C1918 1.392 . S
C1917 C1921 1.495 . S
C1918 C1917 1.392 . S
C1918 C1919 1.385 . S
C1918 C1920 1.478 . S
C1919 H1913 0.930 . S
C1919 C1915 1.400 . S
C1919 C1918 1.385 . S
C1920 C1918 1.478 . S
C1920 C1922 1.381 . S
C1920 C1926 1.383 . S
C1921 C1917 1.495 . S
C1921 H1927 0.959 . S
C1921 H1928 0.961 . S
C1921 H1929 0.960 . S
C1922 C1920 1.381 . S
C1922 C1923 1.394 . S
C1922 H1930 0.930 . S
C1923 C1922 1.394 . S
C1923 C1924 1.383 . S
C1923 H1931 0.929 . S
C1924 C1923 1.383 . S
C1924 C1925 1.377 . S
C1925 H1909 0.930 . S
C1925 C1924 1.377 . S
C1925 C1926 1.379 . S
C1926 H1910 0.931 . S
C1926 C1920 1.383 . S
C1926 C1925 1.379 . S
H1927 C1921 0.959 . S
H1928 C1921 0.961 . S
H1929 C1921 0.960 . S
H1930 C1922 0.930 . S
H1931 C1923 0.929 . S
H1932 C1940 0.929 . S
H1933 C1942 0.930 . S
H1934 C1944 0.930 . S
H1935 C1947 0.929 . S
H1936 C1950 0.930 . S
H1937 C1952 0.960 . S
H1938 C1952 0.960 . S
H1939 C1952 0.960 . S
C1940 H1932 0.929 . S
C1940 C1941 1.377 . S
C1940 C1942 1.384 . S
C1941 C1940 1.377 . S
C1941 C1947 1.390 . S
C1942 H1933 0.930 . S
C1942 C1940 1.384 . S
C1942 C1943 1.372 . S
C1943 C1942 1.372 . S
C1943 C1944 1.400 . S
C1943 C1948 1.490 . S
C1944 H1934 0.930 . S
C1944 C1943 1.400 . S
C1944 C1947 1.386 . S
H1945 C1961 0.930 . S
H1946 C1962 0.931 . S
C1947 H1935 0.929 . S
C1947 C1941 1.390 . S
C1947 C1944 1.386 . S
C1948 C1943 1.490 . S
C1948 C1950 1.395 . S
C1948 C1951 1.403 . S
H1949 C1955 0.930 . S
C1950 H1936 0.930 . S
C1950 C1948 1.395 . S
C1950 C1953 1.403 1_545 S
C1951 C1948 1.403 . S
C1951 C1952 1.524 . S
C1951 C1955 1.400 1_545 S
C1952 H1937 0.960 . S
C1952 H1938 0.960 . S
C1952 H1939 0.960 . S
C1952 C1951 1.524 . S
C1953 C1950 1.403 1_565 S
C1953 C1954 1.392 . S
C1953 C1957 1.495 . S
C1954 C1953 1.392 . S
C1954 C1955 1.385 . S
C1954 C1956 1.478 . S
C1955 H1949 0.930 . S
C1955 C1951 1.400 1_565 S
C1955 C1954 1.385 . S
C1956 C1954 1.478 . S
C1956 C1958 1.381 . S
C1956 C1962 1.383 . S
C1957 C1953 1.495 . S
C1957 H1963 0.959 . S
C1957 H1964 0.961 . S
C1957 H1965 0.960 . S
C1958 C1956 1.381 . S
C1958 C1959 1.394 . S
C1958 H1966 0.930 . S
C1959 C1958 1.394 . S
C1959 C1960 1.383 . S
C1959 H1967 0.929 . S
C1960 C1959 1.383 . S
C1960 C1961 1.377 . S
C1961 H1945 0.930 . S
C1961 C1960 1.377 . S
C1961 C1962 1.379 . S
C1962 H1946 0.931 . S
C1962 C1956 1.383 . S
C1962 C1961 1.379 . S
H1963 C1957 0.959 . S
H1964 C1957 0.961 . S
H1965 C1957 0.960 . S
H1966 C1958 0.930 . S
H1967 C1959 0.929 . S
H1968 C1976 0.929 . S
H1969 C1978 0.930 . S
H1970 C1980 0.930 . S
H1971 C1983 0.929 . S
H1972 C1986 0.930 . S
H1973 C1988 0.960 . S
H1974 C1988 0.960 . S
H1975 C1988 0.960 . S
C1976 H1968 0.929 . S
C1976 C1977 1.377 . S
C1976 C1978 1.384 . S
C1977 C1976 1.377 . S
C1977 C1983 1.390 . S
C1978 H1969 0.930 . S
C1978 C1976 1.384 . S
C1978 C1979 1.372 . S
C1979 C1978 1.372 . S
C1979 C1980 1.400 . S
C1979 C1984 1.490 . S
C1980 H1970 0.930 . S
C1980 C1979 1.400 . S
C1980 C1983 1.386 . S
H1981 C1997 0.930 . S
H1982 C1998 0.931 . S
C1983 H1971 0.929 . S
C1983 C1977 1.390 . S
C1983 C1980 1.386 . S
C1984 C1979 1.490 . S
C1984 C1986 1.395 . S
C1984 C1987 1.403 . S
H1985 C1991 0.930 . S
C1986 H1972 0.930 . S
C1986 C1984 1.395 . S
C1986 C1989 1.403 . S
C1987 C1984 1.403 . S
C1987 C1988 1.524 . S
C1987 C1991 1.400 . S
C1988 H1973 0.960 . S
C1988 H1974 0.960 . S
C1988 H1975 0.960 . S
C1988 C1987 1.524 . S
C1989 C1986 1.403 . S
C1989 C1990 1.392 . S
C1989 C1993 1.495 . S
C1990 C1989 1.392 . S
C1990 C1991 1.385 . S
C1990 C1992 1.478 . S
C1991 H1985 0.930 . S
C1991 C1987 1.400 . S
C1991 C1990 1.385 . S
C1992 C1990 1.478 . S
C1992 C1994 1.381 . S
C1992 C1998 1.383 . S
C1993 C1989 1.495 . S
C1993 H1999 0.959 . S
C1993 H2000 0.961 . S
C1993 H2001 0.960 . S
C1994 C1992 1.381 . S
C1994 C1995 1.394 . S
C1994 H2002 0.930 . S
C1995 C1994 1.394 . S
C1995 C1996 1.383 . S
C1995 H2003 0.929 . S
C1996 C1995 1.383 . S
C1996 C1997 1.377 . S
C1997 H1981 0.930 . S
C1997 C1996 1.377 . S
C1997 C1998 1.379 . S
C1998 H1982 0.931 . S
C1998 C1992 1.383 . S
C1998 C1997 1.379 . S
H1999 C1993 0.959 . S
H2000 C1993 0.961 . S
H2001 C1993 0.960 . S
H2002 C1994 0.930 . S
H2003 C1995 0.929 . S
H2004 C2012 0.929 . S
H2005 C2014 0.930 . S
H2006 C2016 0.930 . S
H2007 C2019 0.929 . S
H2008 C2022 0.930 . S
H2009 C2024 0.960 1_545 S
H2010 C2024 0.960 . S
H2011 C2024 0.960 . S
C2012 H2004 0.929 . S
C2012 C2013 1.377 . S
C2012 C2014 1.384 . S
C2013 C2012 1.377 . S
C2013 C2019 1.390 . S
C2014 H2005 0.930 . S
C2014 C2012 1.384 . S
C2014 C2015 1.372 . S
C2015 C2014 1.372 . S
C2015 C2016 1.400 . S
C2015 C2020 1.490 . S
C2016 H2006 0.930 . S
C2016 C2015 1.400 . S
C2016 C2019 1.386 . S
H2017 C2033 0.930 . S
H2018 C2034 0.931 . S
C2019 H2007 0.929 . S
C2019 C2013 1.390 . S
C2019 C2016 1.386 . S
C2020 C2015 1.490 . S
C2020 C2022 1.395 . S
C2020 C2023 1.424 . S
H2021 C2027 0.930 . S
C2022 H2008 0.930 . S
C2022 C2020 1.395 . S
C2022 C2025 1.403 1_565 S
C2023 C2020 1.424 . S
C2023 C2024 1.538 . S
C2023 C2027 1.364 1_565 S
C2024 H2009 0.960 1_565 S
C2024 H2010 0.960 . S
C2024 H2011 0.960 . S
C2024 C2023 1.538 . S
C2025 C2022 1.403 1_545 S
C2025 C2026 1.392 . S
C2025 C2029 1.495 . S
C2026 C2025 1.392 . S
C2026 C2027 1.385 . S
C2026 C2028 1.478 . S
C2027 H2021 0.930 . S
C2027 C2023 1.364 1_545 S
C2027 C2026 1.385 . S
C2028 C2026 1.478 . S
C2028 C2030 1.381 . S
C2028 C2034 1.383 . S
C2029 C2025 1.495 . S
C2029 H2035 0.959 . S
C2029 H2036 0.961 . S
C2029 H2037 0.960 . S
C2030 C2028 1.381 . S
C2030 C2031 1.394 . S
C2030 H2038 0.930 . S
C2031 C2030 1.394 . S
C2031 C2032 1.383 . S
C2031 H2039 0.929 . S
C2032 C2031 1.383 . S
C2032 C2033 1.377 . S
C2033 H2017 0.930 . S
C2033 C2032 1.377 . S
C2033 C2034 1.379 . S
C2034 H2018 0.931 . S
C2034 C2028 1.383 . S
C2034 C2033 1.379 . S
H2035 C2029 0.959 . S
H2036 C2029 0.961 . S
H2037 C2029 0.960 . S
H2038 C2030 0.930 . S
H2039 C2031 0.929 . S
H2040 C2048 0.929 . S
H2041 C2050 0.930 . S
H2042 C2052 0.930 . S
H2043 C2055 0.929 . S
H2044 C2058 0.930 . S
H2045 C2060 0.960 . S
H2046 C2060 0.960 . S
H2047 C2060 0.960 . S
C2048 H2040 0.929 . S
C2048 C2049 1.377 . S
C2048 C2050 1.384 . S
C2049 C2048 1.377 . S
C2049 C2055 1.390 . S
C2050 H2041 0.930 . S
C2050 C2048 1.384 . S
C2050 C2051 1.372 . S
C2051 C2050 1.372 . S
C2051 C2052 1.400 . S
C2051 C2056 1.490 . S
C2052 H2042 0.930 . S
C2052 C2051 1.400 . S
C2052 C2055 1.386 . S
H2053 C2069 0.930 . S
H2054 C2070 0.931 . S
C2055 H2043 0.929 . S
C2055 C2049 1.390 . S
C2055 C2052 1.386 . S
C2056 C2051 1.490 . S
C2056 C2058 1.395 . S
C2056 C2059 1.403 . S
H2057 C2063 0.930 . S
C2058 H2044 0.930 . S
C2058 C2056 1.395 . S
C2058 C2061 1.403 . S
C2059 C2056 1.403 . S
C2059 C2060 1.524 . S
C2059 C2063 1.400 . S
C2060 H2045 0.960 . S
C2060 H2046 0.960 . S
C2060 H2047 0.960 . S
C2060 C2059 1.524 . S
C2061 C2058 1.403 . S
C2061 C2062 1.392 . S
C2061 C2065 1.495 . S
C2062 C2061 1.392 . S
C2062 C2063 1.385 . S
C2062 C2064 1.478 . S
C2063 H2057 0.930 . S
C2063 C2059 1.400 . S
C2063 C2062 1.385 . S
C2064 C2062 1.478 . S
C2064 C2066 1.381 . S
C2064 C2070 1.383 . S
C2065 C2061 1.495 . S
C2065 H2071 0.959 . S
C2065 H2072 0.961 . S
C2065 H2073 0.960 . S
C2066 C2064 1.381 . S
C2066 C2067 1.394 . S
C2066 H2074 0.930 . S
C2067 C2066 1.394 . S
C2067 C2068 1.383 . S
C2067 H2075 0.929 . S
C2068 C2067 1.383 . S
C2068 C2069 1.377 . S
C2069 H2053 0.930 . S
C2069 C2068 1.377 . S
C2069 C2070 1.379 . S
C2070 H2054 0.931 . S
C2070 C2064 1.383 . S
C2070 C2069 1.379 . S
H2071 C2065 0.959 . S
H2072 C2065 0.961 . S
H2073 C2065 0.960 . S
H2074 C2066 0.930 . S
H2075 C2067 0.929 . S
H2076 C2084 0.929 . S
H2077 C2086 0.930 . S
H2078 C2088 0.930 . S
H2079 C2091 0.929 . S
H2080 C2094 0.930 . S
H2081 C2096 0.960 . S
H2082 C2096 0.960 . S
H2083 C2096 0.960 . S
C2084 H2076 0.929 . S
C2084 C2085 1.377 . S
C2084 C2086 1.384 . S
C2085 C2084 1.377 . S
C2085 C2091 1.390 . S
C2086 H2077 0.930 . S
C2086 C2084 1.384 . S
C2086 C2087 1.372 . S
C2087 C2086 1.372 . S
C2087 C2088 1.400 . S
C2087 C2092 1.490 . S
C2088 H2078 0.930 . S
C2088 C2087 1.400 . S
C2088 C2091 1.386 . S
H2089 C2105 0.930 . S
H2090 C2106 0.931 . S
C2091 H2079 0.929 . S
C2091 C2085 1.390 . S
C2091 C2088 1.386 . S
C2092 C2087 1.490 . S
C2092 C2094 1.395 . S
C2092 C2095 1.403 . S
H2093 C2099 0.930 . S
C2094 H2080 0.930 . S
C2094 C2092 1.395 . S
C2094 C2097 1.403 1_565 S
C2095 C2092 1.403 . S
C2095 C2096 1.524 . S
C2095 C2099 1.400 1_565 S
C2096 H2081 0.960 . S
C2096 H2082 0.960 . S
C2096 H2083 0.960 . S
C2096 C2095 1.524 . S
C2097 C2094 1.403 1_545 S
C2097 C2098 1.392 . S
C2097 C2101 1.495 . S
C2098 C2097 1.392 . S
C2098 C2099 1.385 . S
C2098 C2100 1.478 . S
C2099 H2093 0.930 . S
C2099 C2095 1.400 1_545 S
C2099 C2098 1.385 . S
C2100 C2098 1.478 . S
C2100 C2102 1.381 . S
C2100 C2106 1.383 . S
C2101 C2097 1.495 . S
C2101 H2107 0.994 . S
C2101 H2108 0.961 . S
C2101 H2109 0.960 . S
C2102 C2100 1.381 . S
C2102 C2103 1.394 . S
C2102 H2110 0.930 . S
C2103 C2102 1.394 . S
C2103 C2104 1.383 . S
C2103 H2111 0.929 . S
C2104 C2103 1.383 . S
C2104 C2105 1.377 . S
C2105 H2089 0.930 . S
C2105 C2104 1.377 . S
C2105 C2106 1.379 . S
C2106 H2090 0.931 . S
C2106 C2100 1.383 . S
C2106 C2105 1.379 . S
H2107 C2101 0.994 . S
H2108 C2101 0.961 . S
H2109 C2101 0.960 . S
H2110 C2102 0.930 . S
H2111 C2103 0.929 . S
H2112 C2120 0.929 . S
H2113 C2122 0.930 . S
H2114 C2124 0.930 . S
H2115 C2127 0.929 . S
H2116 C2130 0.930 . S
H2117 C2132 0.960 . S
H2118 C2132 0.960 . S
H2119 C2132 0.960 . S
C2120 H2112 0.929 . S
C2120 C2121 1.377 . S
C2120 C2122 1.384 . S
C2121 C2120 1.377 . S
C2121 C2127 1.390 . S
C2122 H2113 0.930 . S
C2122 C2120 1.384 . S
C2122 C2123 1.372 . S
C2123 C2122 1.372 . S
C2123 C2124 1.400 . S
C2123 C2128 1.490 . S
C2124 H2114 0.930 . S
C2124 C2123 1.400 . S
C2124 C2127 1.386 . S
H2125 C2141 0.930 . S
H2126 C2142 0.931 . S
C2127 H2115 0.929 . S
C2127 C2121 1.390 . S
C2127 C2124 1.386 . S
C2128 C2123 1.490 . S
C2128 C2130 1.395 . S
C2128 C2131 1.403 . S
H2129 C2135 0.930 . S
C2130 H2116 0.930 . S
C2130 C2128 1.395 . S
C2130 C2133 1.403 . S
C2131 C2128 1.403 . S
C2131 C2132 1.524 . S
C2131 C2135 1.400 . S
C2132 H2117 0.960 . S
C2132 H2118 0.960 . S
C2132 H2119 0.960 . S
C2132 C2131 1.524 . S
C2133 C2130 1.403 . S
C2133 C2134 1.392 . S
C2133 C2137 1.495 . S
C2134 C2133 1.392 . S
C2134 C2135 1.385 . S
C2134 C2136 1.478 . S
C2135 H2129 0.930 . S
C2135 C2131 1.400 . S
C2135 C2134 1.385 . S
C2136 C2134 1.478 . S
C2136 C2138 1.381 . S
C2136 C2142 1.383 . S
C2137 C2133 1.495 . S
C2137 H2143 0.959 . S
C2137 H2144 0.961 . S
C2137 H2145 0.960 . S
C2138 C2136 1.381 . S
C2138 C2139 1.394 . S
C2138 H2146 0.930 . S
C2139 C2138 1.394 . S
C2139 C2140 1.383 . S
C2139 H2147 0.929 . S
C2140 C2139 1.383 . S
C2140 C2141 1.377 . S
C2141 H2125 0.930 . S
C2141 C2140 1.377 . S
C2141 C2142 1.379 . S
C2142 H2126 0.931 . S
C2142 C2136 1.383 . S
C2142 C2141 1.379 . S
H2143 C2137 0.959 . S
H2144 C2137 0.961 . S
H2145 C2137 0.960 . S
H2146 C2138 0.930 . S
H2147 C2139 0.929 . S
H2148 C2156 0.929 . S
H2149 C2158 0.930 . S
H2150 C2160 0.930 . S
H2151 C2163 0.929 . S
H2152 C2166 0.930 . S
H2153 C2168 0.960 . S
H2154 C2168 0.960 . S
H2155 C2168 0.960 . S
C2156 H2148 0.929 . S
C2156 C2157 1.377 . S
C2156 C2158 1.384 . S
C2157 C2156 1.377 . S
C2157 C2163 1.390 . S
C2158 H2149 0.930 . S
C2158 C2156 1.384 . S
C2158 C2159 1.372 . S
C2159 C2158 1.372 . S
C2159 C2160 1.400 . S
C2159 C2164 1.490 . S
C2160 H2150 0.930 . S
C2160 C2159 1.400 . S
C2160 C2163 1.386 . S
H2161 C2177 0.930 . S
H2162 C2178 0.931 . S
C2163 H2151 0.929 . S
C2163 C2157 1.390 . S
C2163 C2160 1.386 . S
C2164 C2159 1.490 . S
C2164 C2166 1.395 . S
C2164 C2167 1.403 . S
H2165 C2171 0.930 . S
C2166 H2152 0.930 . S
C2166 C2164 1.395 . S
C2166 C2169 1.403 . S
C2167 C2164 1.403 . S
C2167 C2168 1.524 . S
C2167 C2171 1.400 . S
C2168 H2153 0.960 . S
C2168 H2154 0.960 . S
C2168 H2155 0.960 . S
C2168 C2167 1.524 . S
C2169 C2166 1.403 . S
C2169 C2170 1.392 . S
C2169 C2173 1.495 . S
C2170 C2169 1.392 . S
C2170 C2171 1.385 . S
C2170 C2172 1.478 . S
C2171 H2165 0.930 . S
C2171 C2167 1.400 . S
C2171 C2170 1.385 . S
C2172 C2170 1.478 . S
C2172 C2174 1.381 . S
C2172 C2178 1.383 . S
C2173 C2169 1.495 . S
C2173 H2179 0.959 . S
C2173 H2180 0.961 . S
C2173 H2181 0.960 . S
C2174 C2172 1.381 . S
C2174 C2175 1.394 . S
C2174 H2182 0.930 . S
C2175 C2174 1.394 . S
C2175 C2176 1.383 . S
C2175 H2183 0.929 . S
C2176 C2175 1.383 . S
C2176 C2177 1.377 . S
C2177 H2161 0.930 . S
C2177 C2176 1.377 . S
C2177 C2178 1.379 . S
C2178 H2162 0.931 . S
C2178 C2172 1.383 . S
C2178 C2177 1.379 . S
H2179 C2173 0.959 . S
H2180 C2173 0.961 . S
H2181 C2173 0.960 . S
H2182 C2174 0.930 . S
H2183 C2175 0.929 . S
H2184 C2192 0.929 . S
H2185 C2194 0.930 . S
H2186 C2196 0.930 . S
H2187 C2199 0.929 . S
H2188 C2202 0.930 . S
H2189 C2204 0.960 . S
H2190 C2204 0.960 . S
H2191 C2204 0.960 . S
C2192 H2184 0.929 . S
C2192 C2193 1.377 . S
C2192 C2194 1.384 . S
C2193 C2192 1.377 . S
C2193 C2199 1.390 . S
C2194 H2185 0.930 . S
C2194 C2192 1.384 . S
C2194 C2195 1.372 . S
C2195 C2194 1.372 . S
C2195 C2196 1.400 . S
C2195 C2200 1.490 . S
C2196 H2186 0.930 . S
C2196 C2195 1.400 . S
C2196 C2199 1.386 . S
H2197 C2213 0.930 . S
H2198 C2214 0.931 . S
C2199 H2187 0.929 . S
C2199 C2193 1.390 . S
C2199 C2196 1.386 . S
C2200 C2195 1.490 . S
C2200 C2202 1.395 . S
C2200 C2203 1.403 . S
H2201 C2207 0.930 . S
C2202 H2188 0.930 . S
C2202 C2200 1.395 . S
C2202 C2205 1.403 . S
C2203 C2200 1.403 . S
C2203 C2204 1.524 . S
C2203 C2207 1.400 . S
C2204 H2189 0.960 . S
C2204 H2190 0.960 . S
C2204 H2191 0.960 . S
C2204 C2203 1.524 . S
C2205 C2202 1.403 . S
C2205 C2206 1.392 . S
C2205 C2209 1.495 . S
C2206 C2205 1.392 . S
C2206 C2207 1.385 . S
C2206 C2208 1.478 1_455 S
C2207 H2201 0.930 . S
C2207 C2203 1.400 . S
C2207 C2206 1.385 . S
C2208 C2206 1.478 1_655 S
C2208 C2210 1.381 . S
C2208 C2214 1.383 . S
C2209 C2205 1.495 . S
C2209 H2215 0.959 . S
C2209 H2216 0.961 1_455 S
C2209 H2217 0.960 1_455 S
C2210 C2208 1.381 . S
C2210 C2211 1.394 . S
C2210 H2218 0.930 . S
C2211 C2210 1.394 . S
C2211 C2212 1.383 . S
C2211 H2219 0.929 . S
C2212 C2211 1.383 . S
C2212 C2213 1.377 . S
C2213 H2197 0.930 . S
C2213 C2212 1.377 . S
C2213 C2214 1.379 . S
C2214 H2198 0.931 . S
C2214 C2208 1.383 . S
C2214 C2213 1.379 . S
H2215 C2209 0.959 . S
H2216 C2209 0.961 1_655 S
H2217 C2209 0.960 1_655 S
H2218 C2210 0.930 . S
H2219 C2211 0.929 . S
H2220 C2228 0.929 . S
H2221 C2230 0.930 . S
H2222 C2232 0.930 . S
H2223 C2235 0.929 . S
H2224 C2238 0.930 . S
H2225 C2240 0.960 . S
H2226 C2240 0.960 . S
H2227 C2240 0.960 . S
C2228 H2220 0.929 . S
C2228 C2229 1.377 . S
C2228 C2230 1.384 . S
C2229 C2228 1.377 . S
C2229 C2235 1.390 . S
C2230 H2221 0.930 . S
C2230 C2228 1.384 . S
C2230 C2231 1.372 . S
C2231 C2230 1.372 . S
C2231 C2232 1.400 . S
C2231 C2236 1.490 . S
C2232 H2222 0.930 . S
C2232 C2231 1.400 . S
C2232 C2235 1.386 . S
H2233 C2249 0.930 . S
H2234 C2250 0.931 . S
C2235 H2223 0.929 . S
C2235 C2229 1.390 . S
C2235 C2232 1.386 . S
C2236 C2231 1.490 . S
C2236 C2238 1.395 . S
C2236 C2239 1.403 . S
H2237 C2243 0.930 . S
C2238 H2224 0.930 . S
C2238 C2236 1.395 . S
C2238 C2241 1.403 . S
C2239 C2236 1.403 . S
C2239 C2240 1.524 . S
C2239 C2243 1.400 . S
C2240 H2225 0.960 . S
C2240 H2226 0.960 . S
C2240 H2227 0.960 . S
C2240 C2239 1.524 . S
C2241 C2238 1.403 . S
C2241 C2242 1.392 . S
C2241 C2245 1.495 . S
C2242 C2241 1.392 . S
C2242 C2243 1.385 . S
C2242 C2244 1.478 . S
C2243 H2237 0.930 . S
C2243 C2239 1.400 . S
C2243 C2242 1.385 . S
C2244 C2242 1.478 . S
C2244 C2246 1.381 . S
C2244 C2250 1.383 . S
C2245 C2241 1.495 . S
C2245 H2251 0.959 . S
C2245 H2252 0.961 . S
C2245 H2253 0.960 . S
C2246 C2244 1.381 . S
C2246 C2247 1.394 . S
C2246 H2254 0.930 . S
C2247 C2246 1.394 . S
C2247 C2248 1.383 . S
C2247 H2255 0.929 . S
C2248 C2247 1.383 . S
C2248 C2249 1.377 . S
C2249 H2233 0.930 . S
C2249 C2248 1.377 . S
C2249 C2250 1.379 . S
C2250 H2234 0.931 . S
C2250 C2244 1.383 . S
C2250 C2249 1.379 . S
H2251 C2245 0.959 . S
H2252 C2245 0.961 . S
H2253 C2245 0.960 . S
H2254 C2246 0.930 . S
H2255 C2247 0.929 . S
H2256 C2264 0.929 . S
H2257 C2266 0.930 . S
H2258 C2268 0.930 . S
H2259 C2271 0.929 . S
H2260 C2274 0.930 . S
H2261 C2276 0.960 . S
H2262 C2276 0.944 1_455 S
H2263 C2276 0.960 1_455 S
C2264 H2256 0.929 . S
C2264 C2265 1.377 . S
C2264 C2266 1.384 . S
C2265 C2264 1.377 . S
C2265 C2271 1.390 . S
C2266 H2257 0.930 . S
C2266 C2264 1.384 . S
C2266 C2267 1.372 . S
C2267 C2266 1.372 . S
C2267 C2268 1.400 . S
C2267 C2272 1.490 1_455 S
C2268 H2258 0.930 . S
C2268 C2267 1.400 . S
C2268 C2271 1.386 . S
H2269 C2285 0.930 . S
H2270 C2286 0.931 . S
C2271 H2259 0.929 . S
C2271 C2265 1.390 . S
C2271 C2268 1.386 . S
C2272 C2267 1.490 1_655 S
C2272 C2274 1.395 . S
C2272 C2275 1.403 . S
H2273 C2279 0.930 . S
C2274 H2260 0.930 . S
C2274 C2272 1.395 . S
C2274 C2277 1.403 . S
C2275 C2272 1.403 . S
C2275 C2276 1.524 . S
C2275 C2279 1.400 . S
C2276 H2261 0.960 . S
C2276 H2262 0.944 1_655 S
C2276 H2263 0.960 1_655 S
C2276 C2275 1.524 . S
C2277 C2274 1.403 . S
C2277 C2278 1.392 . S
C2277 C2281 1.495 . S
C2278 C2277 1.392 . S
C2278 C2279 1.385 . S
C2278 C2280 1.478 . S
C2279 H2273 0.930 . S
C2279 C2275 1.400 . S
C2279 C2278 1.385 . S
C2280 C2278 1.478 . S
C2280 C2282 1.381 . S
C2280 C2286 1.383 . S
C2281 C2277 1.495 . S
C2281 H2287 0.959 . S
C2281 H2288 0.961 . S
C2281 H2289 0.960 . S
C2282 C2280 1.381 . S
C2282 C2283 1.394 . S
C2282 H2290 0.930 . S
C2283 C2282 1.394 . S
C2283 C2284 1.383 . S
C2283 H2291 0.929 . S
C2284 C2283 1.383 . S
C2284 C2285 1.377 . S
C2285 H2269 0.930 . S
C2285 C2284 1.377 . S
C2285 C2286 1.379 . S
C2286 H2270 0.931 . S
C2286 C2280 1.383 . S
C2286 C2285 1.379 . S
H2287 C2281 0.959 . S
H2288 C2281 0.961 . S
H2289 C2281 0.960 . S
H2290 C2282 0.930 . S
H2291 C2283 0.929 . S
H2292 C2300 0.929 . S
H2293 C2302 0.930 . S
H2294 C2304 0.930 . S
H2295 C2307 0.929 . S
H2296 C2310 0.930 . S
H2297 C2312 0.960 . S
H2298 C2312 0.960 . S
H2299 C2312 0.960 . S
C2300 H2292 0.929 . S
C2300 C2301 1.377 . S
C2300 C2302 1.384 . S
C2301 C2300 1.377 . S
C2301 C2307 1.390 . S
C2302 H2293 0.930 . S
C2302 C2300 1.384 . S
C2302 C2303 1.372 . S
C2303 C2302 1.372 . S
C2303 C2304 1.400 . S
C2303 C2308 1.490 . S
C2304 H2294 0.930 . S
C2304 C2303 1.400 . S
C2304 C2307 1.386 . S
H2305 C2321 0.930 . S
H2306 C2322 0.931 . S
C2307 H2295 0.929 . S
C2307 C2301 1.390 . S
C2307 C2304 1.386 . S
C2308 C2303 1.490 . S
C2308 C2310 1.395 . S
C2308 C2311 1.403 . S
H2309 C2315 0.930 . S
C2310 H2296 0.930 . S
C2310 C2308 1.395 . S
C2310 C2313 1.403 . S
C2311 C2308 1.403 . S
C2311 C2312 1.524 . S
C2311 C2315 1.400 . S
C2312 H2297 0.960 . S
C2312 H2298 0.960 . S
C2312 H2299 0.960 . S
C2312 C2311 1.524 . S
C2313 C2310 1.403 . S
C2313 C2314 1.392 . S
C2313 C2317 1.495 . S
C2314 C2313 1.392 . S
C2314 C2315 1.385 . S
C2314 C2316 1.478 . S
C2315 H2309 0.930 . S
C2315 C2311 1.400 . S
C2315 C2314 1.385 . S
C2316 C2314 1.478 . S
C2316 C2318 1.381 . S
C2316 C2322 1.383 . S
C2317 C2313 1.495 . S
C2317 H2323 0.959 . S
C2317 H2324 0.961 . S
C2317 H2325 0.960 . S
C2318 C2316 1.381 . S
C2318 C2319 1.394 . S
C2318 H2326 0.930 . S
C2319 C2318 1.394 . S
C2319 C2320 1.383 . S
C2319 H2327 0.929 . S
C2320 C2319 1.383 . S
C2320 C2321 1.377 . S
C2321 H2305 0.930 . S
C2321 C2320 1.377 . S
C2321 C2322 1.379 . S
C2322 H2306 0.931 . S
C2322 C2316 1.383 . S
C2322 C2321 1.379 . S
H2323 C2317 0.959 . S
H2324 C2317 0.961 . S
H2325 C2317 0.960 . S
H2326 C2318 0.930 . S
H2327 C2319 0.929 . S
H2328 C2336 0.929 . S
H2329 C2338 0.930 . S
H2330 C2340 0.930 . S
H2331 C2343 0.929 . S
H2332 C2346 0.930 . S
H2333 C2348 0.960 . S
H2334 C2348 0.960 . S
H2335 C2348 0.960 . S
C2336 H2328 0.929 . S
C2336 C2337 1.377 . S
C2336 C2338 1.384 . S
C2337 C2336 1.377 . S
C2337 C2343 1.390 . S
C2338 H2329 0.930 . S
C2338 C2336 1.384 . S
C2338 C2339 1.372 . S
C2339 C2338 1.372 . S
C2339 C2340 1.400 . S
C2339 C2344 1.490 . S
C2340 H2330 0.930 . S
C2340 C2339 1.400 . S
C2340 C2343 1.386 . S
H2341 C2357 0.930 . S
H2342 C2358 0.931 . S
C2343 H2331 0.929 . S
C2343 C2337 1.390 . S
C2343 C2340 1.386 . S
C2344 C2339 1.490 . S
C2344 C2346 1.395 . S
C2344 C2347 1.403 . S
H2345 C2351 0.930 . S
C2346 H2332 0.930 . S
C2346 C2344 1.395 . S
C2346 C2349 1.403 1_655 S
C2347 C2344 1.403 . S
C2347 C2348 1.524 . S
C2347 C2351 1.400 1_655 S
C2348 H2333 0.960 . S
C2348 H2334 0.960 . S
C2348 H2335 0.960 . S
C2348 C2347 1.524 . S
C2349 C2346 1.403 1_455 S
C2349 C2350 1.392 . S
C2349 C2353 1.495 . S
C2350 C2349 1.392 . S
C2350 C2351 1.385 . S
C2350 C2352 1.478 . S
C2351 H2345 0.930 . S
C2351 C2347 1.400 1_455 S
C2351 C2350 1.385 . S
C2352 C2350 1.478 . S
C2352 C2354 1.381 . S
C2352 C2358 1.383 . S
C2353 C2349 1.495 . S
C2353 H2359 0.954 1_455 S
C2353 H2360 0.961 . S
C2353 H2361 0.960 . S
C2354 C2352 1.381 . S
C2354 C2355 1.394 . S
C2354 H2362 0.930 . S
C2355 C2354 1.394 . S
C2355 C2356 1.383 . S
C2355 H2363 0.929 . S
C2356 C2355 1.383 . S
C2356 C2357 1.377 . S
C2357 H2341 0.930 . S
C2357 C2356 1.377 . S
C2357 C2358 1.379 . S
C2358 H2342 0.931 . S
C2358 C2352 1.383 . S
C2358 C2357 1.379 . S
H2359 C2353 0.954 1_655 S
H2360 C2353 0.961 . S
H2361 C2353 0.960 . S
H2362 C2354 0.930 . S
H2363 C2355 0.929 . S
H2364 C2372 0.929 . S
H2365 C2374 0.930 . S
H2366 C2376 0.930 . S
H2367 C2379 0.929 . S
H2368 C2382 0.930 . S
H2369 C2384 0.960 . S
H2370 C2384 0.960 . S
H2371 C2384 0.960 . S
C2372 H2364 0.929 . S
C2372 C2373 1.377 . S
C2372 C2374 1.384 . S
C2373 C2372 1.377 . S
C2373 C2379 1.390 . S
C2374 H2365 0.930 . S
C2374 C2372 1.384 . S
C2374 C2375 1.372 . S
C2375 C2374 1.372 . S
C2375 C2376 1.400 . S
C2375 C2380 1.490 . S
C2376 H2366 0.930 . S
C2376 C2375 1.400 . S
C2376 C2379 1.386 . S
H2377 C2393 0.930 . S
H2378 C2394 0.931 . S
C2379 H2367 0.929 . S
C2379 C2373 1.390 . S
C2379 C2376 1.386 . S
C2380 C2375 1.490 . S
C2380 C2382 1.395 . S
C2380 C2383 1.403 . S
H2381 C2387 0.930 . S
C2382 H2368 0.930 . S
C2382 C2380 1.395 . S
C2382 C2385 1.403 1_455 S
C2383 C2380 1.403 . S
C2383 C2384 1.524 . S
C2383 C2387 1.400 1_455 S
C2384 H2369 0.960 . S
C2384 H2370 0.960 . S
C2384 H2371 0.960 . S
C2384 C2383 1.524 . S
C2385 C2382 1.403 1_655 S
C2385 C2386 1.392 . S
C2385 C2389 1.495 . S
C2386 C2385 1.392 . S
C2386 C2387 1.385 . S
C2386 C2388 1.478 . S
C2387 H2381 0.930 . S
C2387 C2383 1.400 1_655 S
C2387 C2386 1.385 . S
C2388 C2386 1.478 . S
C2388 C2390 1.381 . S
C2388 C2394 1.383 . S
C2389 C2385 1.495 . S
C2389 H2395 0.959 . S
C2389 H2396 0.961 . S
C2389 H2397 0.960 . S
C2390 C2388 1.381 . S
C2390 C2391 1.394 . S
C2390 H2398 0.930 . S
C2391 C2390 1.394 . S
C2391 C2392 1.383 . S
C2391 H2399 0.929 . S
C2392 C2391 1.383 . S
C2392 C2393 1.377 . S
C2393 H2377 0.930 . S
C2393 C2392 1.377 . S
C2393 C2394 1.379 . S
C2394 H2378 0.931 . S
C2394 C2388 1.383 . S
C2394 C2393 1.379 . S
H2395 C2389 0.959 . S
H2396 C2389 0.961 . S
H2397 C2389 0.960 . S
H2398 C2390 0.930 . S
H2399 C2391 0.929 . S
H2400 C2408 0.929 . S
H2401 C2410 0.930 . S
H2402 C2412 0.930 . S
H2403 C2415 0.929 . S
H2404 C2418 0.930 . S
H2405 C2420 0.960 . S
H2406 C2420 0.960 . S
H2407 C2420 0.960 . S
C2408 H2400 0.929 . S
C2408 C2409 1.377 . S
C2408 C2410 1.384 . S
C2409 C2408 1.377 . S
C2409 C2415 1.390 . S
C2410 H2401 0.930 . S
C2410 C2408 1.384 . S
C2410 C2411 1.372 . S
C2411 C2410 1.372 . S
C2411 C2412 1.400 . S
C2411 C2416 1.490 . S
C2412 H2402 0.930 . S
C2412 C2411 1.400 . S
C2412 C2415 1.386 . S
H2413 C2429 0.930 . S
H2414 C2430 0.931 . S
C2415 H2403 0.929 . S
C2415 C2409 1.390 . S
C2415 C2412 1.386 . S
C2416 C2411 1.490 . S
C2416 C2418 1.395 . S
C2416 C2419 1.403 . S
H2417 C2423 0.930 . S
C2418 H2404 0.930 . S
C2418 C2416 1.395 . S
C2418 C2421 1.403 1_655 S
C2419 C2416 1.403 . S
C2419 C2420 1.524 . S
C2419 C2423 1.400 1_655 S
C2420 H2405 0.960 . S
C2420 H2406 0.960 . S
C2420 H2407 0.960 . S
C2420 C2419 1.524 . S
C2421 C2418 1.403 1_455 S
C2421 C2422 1.392 . S
C2421 C2425 1.495 . S
C2422 C2421 1.392 . S
C2422 C2423 1.385 . S
C2422 C2424 1.478 . S
C2423 H2417 0.930 . S
C2423 C2419 1.400 1_455 S
C2423 C2422 1.385 . S
C2424 C2422 1.478 . S
C2424 C2426 1.381 . S
C2424 C2430 1.383 . S
C2425 C2421 1.495 . S
C2425 H2431 0.962 1_455 S
C2425 H2432 0.961 . S
C2425 H2433 0.960 . S
C2426 C2424 1.381 . S
C2426 C2427 1.394 . S
C2426 H2434 0.930 . S
C2427 C2426 1.394 . S
C2427 C2428 1.383 . S
C2427 H2435 0.929 . S
C2428 C2427 1.383 . S
C2428 C2429 1.377 . S
C2429 H2413 0.930 . S
C2429 C2428 1.377 . S
C2429 C2430 1.379 . S
C2430 H2414 0.931 . S
C2430 C2424 1.383 . S
C2430 C2429 1.379 . S
H2431 C2425 0.962 1_655 S
H2432 C2425 0.961 . S
H2433 C2425 0.960 . S
H2434 C2426 0.930 . S
H2435 C2427 0.929 . S
H2436 C2444 0.929 . S
H2437 C2446 0.930 . S
H2438 C2448 0.930 . S
H2439 C2451 0.929 . S
H2440 C2454 0.930 . S
H2441 C2456 0.960 . S
H2442 C2456 0.960 . S
H2443 C2456 0.960 . S
C2444 H2436 0.929 . S
C2444 C2445 1.377 . S
C2444 C2446 1.384 . S
C2445 C2444 1.377 . S
C2445 C2451 1.390 . S
C2446 H2437 0.930 . S
C2446 C2444 1.384 . S
C2446 C2447 1.372 . S
C2447 C2446 1.372 . S
C2447 C2448 1.400 . S
C2447 C2452 1.490 . S
C2448 H2438 0.930 . S
C2448 C2447 1.400 . S
C2448 C2451 1.386 . S
H2449 C2465 0.930 . S
H2450 C2466 0.931 . S
C2451 H2439 0.929 . S
C2451 C2445 1.390 . S
C2451 C2448 1.386 . S
C2452 C2447 1.490 . S
C2452 C2454 1.395 . S
C2452 C2455 1.403 . S
H2453 C2459 0.930 . S
C2454 H2440 0.930 . S
C2454 C2452 1.395 . S
C2454 C2457 1.403 . S
C2455 C2452 1.403 . S
C2455 C2456 1.524 . S
C2455 C2459 1.400 . S
C2456 H2441 0.960 . S
C2456 H2442 0.960 . S
C2456 H2443 0.960 . S
C2456 C2455 1.524 . S
C2457 C2454 1.403 . S
C2457 C2458 1.392 . S
C2457 C2461 1.495 . S
C2458 C2457 1.392 . S
C2458 C2459 1.385 . S
C2458 C2460 1.478 . S
C2459 H2453 0.930 . S
C2459 C2455 1.400 . S
C2459 C2458 1.385 . S
C2460 C2458 1.478 . S
C2460 C2462 1.381 . S
C2460 C2466 1.383 . S
C2461 C2457 1.495 . S
C2461 H2467 0.959 . S
C2461 H2468 0.961 . S
C2461 H2469 0.960 . S
C2462 C2460 1.381 . S
C2462 C2463 1.394 . S
C2462 H2470 0.930 . S
C2463 C2462 1.394 . S
C2463 C2464 1.383 . S
C2463 H2471 0.929 . S
C2464 C2463 1.383 . S
C2464 C2465 1.377 . S
C2465 H2449 0.930 . S
C2465 C2464 1.377 . S
C2465 C2466 1.379 . S
C2466 H2450 0.931 . S
C2466 C2460 1.383 . S
C2466 C2465 1.379 . S
H2467 C2461 0.959 . S
H2468 C2461 0.961 . S
H2469 C2461 0.960 . S
H2470 C2462 0.930 . S
H2471 C2463 0.929 . S
H2472 C2480 0.929 . S
H2473 C2482 0.930 . S
H2474 C2484 0.930 . S
H2475 C2487 0.929 . S
H2476 C2490 0.930 . S
H2477 C2492 0.960 . S
H2478 C2492 0.960 . S
H2479 C2492 0.960 . S
C2480 H2472 0.929 . S
C2480 C2481 1.377 . S
C2480 C2482 1.384 . S
C2481 C2480 1.377 . S
C2481 C2487 1.390 . S
C2482 H2473 0.930 . S
C2482 C2480 1.384 . S
C2482 C2483 1.372 . S
C2483 C2482 1.372 . S
C2483 C2484 1.400 . S
C2483 C2488 1.490 . S
C2484 H2474 0.930 . S
C2484 C2483 1.400 . S
C2484 C2487 1.386 . S
H2485 C2501 0.930 . S
H2486 C2502 0.931 . S
C2487 H2475 0.929 . S
C2487 C2481 1.390 . S
C2487 C2484 1.386 . S
C2488 C2483 1.490 . S
C2488 C2490 1.395 . S
C2488 C2491 1.403 . S
H2489 C2495 0.930 . S
C2490 H2476 0.930 . S
C2490 C2488 1.395 . S
C2490 C2493 1.403 1_455 S
C2491 C2488 1.403 . S
C2491 C2492 1.524 . S
C2491 C2495 1.400 1_455 S
C2492 H2477 0.960 . S
C2492 H2478 0.960 . S
C2492 H2479 0.960 . S
C2492 C2491 1.524 . S
C2493 C2490 1.403 1_655 S
C2493 C2494 1.392 . S
C2493 C2497 1.495 . S
C2494 C2493 1.392 . S
C2494 C2495 1.385 . S
C2494 C2496 1.478 . S
C2495 H2489 0.930 . S
C2495 C2491 1.400 1_655 S
C2495 C2494 1.385 . S
C2496 C2494 1.478 . S
C2496 C2498 1.381 . S
C2496 C2502 1.383 . S
C2497 C2493 1.495 . S
C2497 H2503 0.959 . S
C2497 H2504 0.961 . S
C2497 H2505 0.960 . S
C2498 C2496 1.381 . S
C2498 C2499 1.394 . S
C2498 H2506 0.930 . S
C2499 C2498 1.394 . S
C2499 C2500 1.383 . S
C2499 H2507 0.929 . S
C2500 C2499 1.383 . S
C2500 C2501 1.377 . S
C2501 H2485 0.930 . S
C2501 C2500 1.377 . S
C2501 C2502 1.379 . S
C2502 H2486 0.931 . S
C2502 C2496 1.383 . S
C2502 C2501 1.379 . S
H2503 C2497 0.959 . S
H2504 C2497 0.961 . S
H2505 C2497 0.960 . S
H2506 C2498 0.930 . S
H2507 C2499 0.929 . S
H2508 C2516 0.929 . S
H2509 C2518 0.930 . S
H2510 C2520 0.930 . S
H2511 C2523 0.929 . S
H2512 C2526 0.930 . S
H2513 C2528 0.960 . S
H2514 C2528 0.960 . S
H2515 C2528 0.960 . S
C2516 H2508 0.929 . S
C2516 C2517 1.377 . S
C2516 C2518 1.384 . S
C2517 C2516 1.377 . S
C2517 C2523 1.390 . S
C2518 H2509 0.930 . S
C2518 C2516 1.384 . S
C2518 C2519 1.372 . S
C2519 C2518 1.372 . S
C2519 C2520 1.400 . S
C2519 C2524 1.490 . S
C2520 H2510 0.930 . S
C2520 C2519 1.400 . S
C2520 C2523 1.386 . S
H2521 C2537 0.930 . S
H2522 C2538 0.931 . S
C2523 H2511 0.929 . S
C2523 C2517 1.390 . S
C2523 C2520 1.386 . S
C2524 C2519 1.490 . S
C2524 C2526 1.395 . S
C2524 C2527 1.403 . S
H2525 C2531 0.930 . S
C2526 H2512 0.930 . S
C2526 C2524 1.395 . S
C2526 C2529 1.403 . S
C2527 C2524 1.403 . S
C2527 C2528 1.524 . S
C2527 C2531 1.400 . S
C2528 H2513 0.960 . S
C2528 H2514 0.960 . S
C2528 H2515 0.960 . S
C2528 C2527 1.524 . S
C2529 C2526 1.403 . S
C2529 C2530 1.392 . S
C2529 C2533 1.495 . S
C2530 C2529 1.392 . S
C2530 C2531 1.385 . S
C2530 C2532 1.478 . S
C2531 H2525 0.930 . S
C2531 C2527 1.400 . S
C2531 C2530 1.385 . S
C2532 C2530 1.478 . S
C2532 C2534 1.381 . S
C2532 C2538 1.383 . S
C2533 C2529 1.495 . S
C2533 H2539 0.959 . S
C2533 H2540 0.961 . S
C2533 H2541 0.960 . S
C2534 C2532 1.381 . S
C2534 C2535 1.394 . S
C2534 H2542 0.930 . S
C2535 C2534 1.394 . S
C2535 C2536 1.383 . S
C2535 H2543 0.929 . S
C2536 C2535 1.383 . S
C2536 C2537 1.377 . S
C2537 H2521 0.930 . S
C2537 C2536 1.377 . S
C2537 C2538 1.379 . S
C2538 H2522 0.931 . S
C2538 C2532 1.383 . S
C2538 C2537 1.379 . S
H2539 C2533 0.959 . S
H2540 C2533 0.961 . S
H2541 C2533 0.960 . S
H2542 C2534 0.930 . S
H2543 C2535 0.929 . S
H2544 C2552 0.929 . S
H2545 C2554 0.930 . S
H2546 C2556 0.930 . S
H2547 C2559 0.929 . S
H2548 C2562 0.930 . S
H2549 C2564 0.960 . S
H2550 C2564 0.960 . S
H2551 C2564 0.960 . S
C2552 H2544 0.929 . S
C2552 C2553 1.377 . S
C2552 C2554 1.384 . S
C2553 C2552 1.377 . S
C2553 C2559 1.390 . S
C2554 H2545 0.930 . S
C2554 C2552 1.384 . S
C2554 C2555 1.372 . S
C2555 C2554 1.372 . S
C2555 C2556 1.400 . S
C2555 C2560 1.490 . S
C2556 H2546 0.930 . S
C2556 C2555 1.400 . S
C2556 C2559 1.386 . S
H2557 C2573 0.930 . S
H2558 C2574 0.931 . S
C2559 H2547 0.929 . S
C2559 C2553 1.390 . S
C2559 C2556 1.386 . S
C2560 C2555 1.490 . S
C2560 C2562 1.395 . S
C2560 C2563 1.403 . S
H2561 C2567 0.930 . S
C2562 H2548 0.930 . S
C2562 C2560 1.395 . S
C2562 C2565 1.403 1_655 S
C2563 C2560 1.403 . S
C2563 C2564 1.524 . S
C2563 C2567 1.400 1_655 S
C2564 H2549 0.960 . S
C2564 H2550 0.960 . S
C2564 H2551 0.960 . S
C2564 C2563 1.524 . S
C2565 C2562 1.403 1_455 S
C2565 C2566 1.392 . S
C2565 C2569 1.495 . S
C2566 C2565 1.392 . S
C2566 C2567 1.385 . S
C2566 C2568 1.478 . S
C2567 H2561 0.930 . S
C2567 C2563 1.400 1_455 S
C2567 C2566 1.385 . S
C2568 C2566 1.478 . S
C2568 C2570 1.381 . S
C2568 C2574 1.383 . S
C2569 C2565 1.495 . S
C2569 H2575 0.959 . S
C2569 H2576 0.961 . S
C2569 H2577 0.960 . S
C2570 C2568 1.381 . S
C2570 C2571 1.394 . S
C2570 H2578 0.930 . S
C2571 C2570 1.394 . S
C2571 C2572 1.383 . S
C2571 H2579 0.929 . S
C2572 C2571 1.383 . S
C2572 C2573 1.377 . S
C2573 H2557 0.930 . S
C2573 C2572 1.377 . S
C2573 C2574 1.379 . S
C2574 H2558 0.931 . S
C2574 C2568 1.383 . S
C2574 C2573 1.379 . S
H2575 C2569 0.959 . S
H2576 C2569 0.961 . S
H2577 C2569 0.960 . S
H2578 C2570 0.930 . S
H2579 C2571 0.929 . S
H2580 C2588 0.929 . S
H2581 C2590 0.930 . S
H2582 C2592 0.930 . S
H2583 C2595 0.929 . S
H2584 C2598 0.930 . S
H2585 C2600 0.960 . S
H2586 C2600 0.960 . S
H2587 C2600 0.960 . S
C2588 H2580 0.929 . S
C2588 C2589 1.377 . S
C2588 C2590 1.384 . S
C2589 C2588 1.377 . S
C2589 C2595 1.390 . S
C2590 H2581 0.930 . S
C2590 C2588 1.384 . S
C2590 C2591 1.372 . S
C2591 C2590 1.372 . S
C2591 C2592 1.400 . S
C2591 C2596 1.490 . S
C2592 H2582 0.930 . S
C2592 C2591 1.400 . S
C2592 C2595 1.386 . S
H2593 C2609 0.930 . S
H2594 C2610 0.931 . S
C2595 H2583 0.929 . S
C2595 C2589 1.390 . S
C2595 C2592 1.386 . S
C2596 C2591 1.490 . S
C2596 C2598 1.395 . S
C2596 C2599 1.403 . S
H2597 C2603 0.930 . S
C2598 H2584 0.930 . S
C2598 C2596 1.395 . S
C2598 C2601 1.403 . S
C2599 C2596 1.403 . S
C2599 C2600 1.524 . S
C2599 C2603 1.400 . S
C2600 H2585 0.960 . S
C2600 H2586 0.960 . S
C2600 H2587 0.960 . S
C2600 C2599 1.524 . S
C2601 C2598 1.403 . S
C2601 C2602 1.392 . S
C2601 C2605 1.495 . S
C2602 C2601 1.392 . S
C2602 C2603 1.385 . S
C2602 C2604 1.478 . S
C2603 H2597 0.930 . S
C2603 C2599 1.400 . S
C2603 C2602 1.385 . S
C2604 C2602 1.478 . S
C2604 C2606 1.381 . S
C2604 C2610 1.383 . S
C2605 C2601 1.495 . S
C2605 H2611 0.959 . S
C2605 H2612 0.961 . S
C2605 H2613 0.960 . S
C2606 C2604 1.381 . S
C2606 C2607 1.394 . S
C2606 H2614 0.930 . S
C2607 C2606 1.394 . S
C2607 C2608 1.383 . S
C2607 H2615 0.929 . S
C2608 C2607 1.383 . S
C2608 C2609 1.377 . S
C2609 H2593 0.930 . S
C2609 C2608 1.377 . S
C2609 C2610 1.379 . S
C2610 H2594 0.931 . S
C2610 C2604 1.383 . S
C2610 C2609 1.379 . S
H2611 C2605 0.959 . S
H2612 C2605 0.961 . S
H2613 C2605 0.960 . S
H2614 C2606 0.930 . S
H2615 C2607 0.929 . S
H2616 C2624 0.929 . S
H2617 C2626 0.930 . S
H2618 C2628 0.930 . S
H2619 C2631 0.929 . S
H2620 C2634 0.930 . S
H2621 C2636 0.960 . S
H2622 C2636 0.960 . S
H2623 C2636 0.960 . S
C2624 H2616 0.929 . S
C2624 C2625 1.377 . S
C2624 C2626 1.384 . S
C2625 C2624 1.377 . S
C2625 C2631 1.390 . S
C2626 H2617 0.930 . S
C2626 C2624 1.384 . S
C2626 C2627 1.372 . S
C2627 C2626 1.372 . S
C2627 C2628 1.400 . S
C2627 C2632 1.490 . S
C2628 H2618 0.930 . S
C2628 C2627 1.400 . S
C2628 C2631 1.386 . S
H2629 C2645 0.930 . S
H2630 C2646 0.931 . S
C2631 H2619 0.929 . S
C2631 C2625 1.390 . S
C2631 C2628 1.386 . S
C2632 C2627 1.490 . S
C2632 C2634 1.395 . S
C2632 C2635 1.403 . S
H2633 C2639 0.930 . S
C2634 H2620 0.930 . S
C2634 C2632 1.395 . S
C2634 C2637 1.403 1_655 S
C2635 C2632 1.403 . S
C2635 C2636 1.524 . S
C2635 C2639 1.400 1_655 S
C2636 H2621 0.960 . S
C2636 H2622 0.960 . S
C2636 H2623 0.960 . S
C2636 C2635 1.524 . S
C2637 C2634 1.403 1_455 S
C2637 C2638 1.392 . S
C2637 C2641 1.495 . S
C2638 C2637 1.392 . S
C2638 C2639 1.385 . S
C2638 C2640 1.478 . S
C2639 H2633 0.930 . S
C2639 C2635 1.400 1_455 S
C2639 C2638 1.385 . S
C2640 C2638 1.478 . S
C2640 C2642 1.381 . S
C2640 C2646 1.383 . S
C2641 C2637 1.495 . S
C2641 H2647 0.959 . S
C2641 H2648 0.961 . S
C2641 H2649 0.960 . S
C2642 C2640 1.381 . S
C2642 C2643 1.394 . S
C2642 H2650 0.930 . S
C2643 C2642 1.394 . S
C2643 C2644 1.383 . S
C2643 H2651 0.929 . S
C2644 C2643 1.383 . S
C2644 C2645 1.377 . S
C2645 H2629 0.930 . S
C2645 C2644 1.377 . S
C2645 C2646 1.379 . S
C2646 H2630 0.931 . S
C2646 C2640 1.383 . S
C2646 C2645 1.379 . S
H2647 C2641 0.959 . S
H2648 C2641 0.961 . S
H2649 C2641 0.960 . S
H2650 C2642 0.930 . S
H2651 C2643 0.929 . S
H2652 C2660 0.929 . S
H2653 C2662 0.930 . S
H2654 C2664 0.930 . S
H2655 C2667 0.929 . S
H2656 C2670 0.930 . S
H2657 C2672 0.960 . S
H2658 C2672 0.960 . S
H2659 C2672 0.960 . S
C2660 H2652 0.929 . S
C2660 C2661 1.377 . S
C2660 C2662 1.384 . S
C2661 C2660 1.377 . S
C2661 C2667 1.390 . S
C2662 H2653 0.930 . S
C2662 C2660 1.384 . S
C2662 C2663 1.372 . S
C2663 C2662 1.372 . S
C2663 C2664 1.400 . S
C2663 C2668 1.490 . S
C2664 H2654 0.930 . S
C2664 C2663 1.400 . S
C2664 C2667 1.386 . S
H2665 C2681 0.930 . S
H2666 C2682 0.931 . S
C2667 H2655 0.929 . S
C2667 C2661 1.390 . S
C2667 C2664 1.386 . S
C2668 C2663 1.490 . S
C2668 C2670 1.395 . S
C2668 C2671 1.403 . S
H2669 C2675 0.930 . S
C2670 H2656 0.930 . S
C2670 C2668 1.395 . S
C2670 C2673 1.403 . S
C2671 C2668 1.403 . S
C2671 C2672 1.524 . S
C2671 C2675 1.400 . S
C2672 H2657 0.960 . S
C2672 H2658 0.960 . S
C2672 H2659 0.960 . S
C2672 C2671 1.524 . S
C2673 C2670 1.403 . S
C2673 C2674 1.392 . S
C2673 C2677 1.495 . S
C2674 C2673 1.392 . S
C2674 C2675 1.385 . S
C2674 C2676 1.478 . S
C2675 H2669 0.930 . S
C2675 C2671 1.400 . S
C2675 C2674 1.385 . S
C2676 C2674 1.478 . S
C2676 C2678 1.381 . S
C2676 C2682 1.383 . S
C2677 C2673 1.495 . S
C2677 H2683 0.959 . S
C2677 H2684 0.961 . S
C2677 H2685 0.960 . S
C2678 C2676 1.381 . S
C2678 C2679 1.394 . S
C2678 H2686 0.930 . S
C2679 C2678 1.394 . S
C2679 C2680 1.383 . S
C2679 H2687 0.929 . S
C2680 C2679 1.383 . S
C2680 C2681 1.377 . S
C2681 H2665 0.930 . S
C2681 C2680 1.377 . S
C2681 C2682 1.379 . S
C2682 H2666 0.931 . S
C2682 C2676 1.383 . S
C2682 C2681 1.379 . S
H2683 C2677 0.959 . S
H2684 C2677 0.961 . S
H2685 C2677 0.960 . S
H2686 C2678 0.930 . S
H2687 C2679 0.929 . S
H2688 C2696 0.929 . S
H2689 C2698 0.930 . S
H2690 C2700 0.930 . S
H2691 C2703 0.929 . S
H2692 C2706 0.930 . S
H2693 C2708 0.960 . S
H2694 C2708 0.960 . S
H2695 C2708 0.960 . S
C2696 H2688 0.929 . S
C2696 C2697 1.377 . S
C2696 C2698 1.384 . S
C2697 C2696 1.377 . S
C2697 C2703 1.390 . S
C2698 H2689 0.930 . S
C2698 C2696 1.384 . S
C2698 C2699 1.372 . S
C2699 C2698 1.372 . S
C2699 C2700 1.400 . S
C2699 C2704 1.490 . S
C2700 H2690 0.930 . S
C2700 C2699 1.400 . S
C2700 C2703 1.386 . S
H2701 C2717 0.930 . S
H2702 C2718 0.931 . S
C2703 H2691 0.929 . S
C2703 C2697 1.390 . S
C2703 C2700 1.386 . S
C2704 C2699 1.490 . S
C2704 C2706 1.395 . S
C2704 C2707 1.403 . S
H2705 C2711 0.930 . S
C2706 H2692 0.930 . S
C2706 C2704 1.395 . S
C2706 C2709 1.403 1_545 S
C2707 C2704 1.403 . S
C2707 C2708 1.524 . S
C2707 C2711 1.400 1_545 S
C2708 H2693 0.960 . S
C2708 H2694 0.960 . S
C2708 H2695 0.960 . S
C2708 C2707 1.524 . S
C2709 C2706 1.403 1_565 S
C2709 C2710 1.392 . S
C2709 C2713 1.495 . S
C2710 C2709 1.392 . S
C2710 C2711 1.385 . S
C2710 C2712 1.478 . S
C2711 H2705 0.930 . S
C2711 C2707 1.400 1_565 S
C2711 C2710 1.385 . S
C2712 C2710 1.478 . S
C2712 C2714 1.381 . S
C2712 C2718 1.383 . S
C2713 C2709 1.495 . S
C2713 H2719 0.959 . S
C2713 H2720 0.961 . S
C2713 H2721 0.960 . S
C2714 C2712 1.381 . S
C2714 C2715 1.394 . S
C2714 H2722 0.930 . S
C2715 C2714 1.394 . S
C2715 C2716 1.383 . S
C2715 H2723 0.929 . S
C2716 C2715 1.383 . S
C2716 C2717 1.377 . S
C2717 H2701 0.930 . S
C2717 C2716 1.377 . S
C2717 C2718 1.379 . S
C2718 H2702 0.931 . S
C2718 C2712 1.383 . S
C2718 C2717 1.379 . S
H2719 C2713 0.959 . S
H2720 C2713 0.961 . S
H2721 C2713 0.960 . S
H2722 C2714 0.930 . S
H2723 C2715 0.929 . S
H2724 C2732 0.929 . S
H2725 C2734 0.930 . S
H2726 C2736 0.930 . S
H2727 C2739 0.929 . S
H2728 C2742 0.930 . S
H2729 C2744 0.960 . S
H2730 C2744 0.960 . S
H2731 C2744 0.960 . S
C2732 H2724 0.929 . S
C2732 C2733 1.377 . S
C2732 C2734 1.384 . S
C2733 C2732 1.377 . S
C2733 C2739 1.390 . S
C2734 H2725 0.930 . S
C2734 C2732 1.384 . S
C2734 C2735 1.372 . S
C2735 C2734 1.372 . S
C2735 C2736 1.400 . S
C2735 C2740 1.490 . S
C2736 H2726 0.930 . S
C2736 C2735 1.400 . S
C2736 C2739 1.386 . S
H2737 C2753 0.930 . S
H2738 C2754 0.931 . S
C2739 H2727 0.929 . S
C2739 C2733 1.390 . S
C2739 C2736 1.386 . S
C2740 C2735 1.490 . S
C2740 C2742 1.395 . S
C2740 C2743 1.403 . S
H2741 C2747 0.930 . S
C2742 H2728 0.930 . S
C2742 C2740 1.395 . S
C2742 C2745 1.403 . S
C2743 C2740 1.403 . S
C2743 C2744 1.524 . S
C2743 C2747 1.400 . S
C2744 H2729 0.960 . S
C2744 H2730 0.960 . S
C2744 H2731 0.960 . S
C2744 C2743 1.524 . S
C2745 C2742 1.403 . S
C2745 C2746 1.392 . S
C2745 C2749 1.495 . S
C2746 C2745 1.392 . S
C2746 C2747 1.385 . S
C2746 C2748 1.478 . S
C2747 H2741 0.930 . S
C2747 C2743 1.400 . S
C2747 C2746 1.385 . S
C2748 C2746 1.478 . S
C2748 C2750 1.381 . S
C2748 C2754 1.383 . S
C2749 C2745 1.495 . S
C2749 H2755 0.959 . S
C2749 H2756 0.961 . S
C2749 H2757 0.960 . S
C2750 C2748 1.381 . S
C2750 C2751 1.394 . S
C2750 H2758 0.930 . S
C2751 C2750 1.394 . S
C2751 C2752 1.383 . S
C2751 H2759 0.929 . S
C2752 C2751 1.383 . S
C2752 C2753 1.377 . S
C2753 H2737 0.930 . S
C2753 C2752 1.377 . S
C2753 C2754 1.379 . S
C2754 H2738 0.931 . S
C2754 C2748 1.383 . S
C2754 C2753 1.379 . S
H2755 C2749 0.959 . S
H2756 C2749 0.961 . S
H2757 C2749 0.960 . S
H2758 C2750 0.930 . S
H2759 C2751 0.929 . S
H2760 C2768 0.929 . S
H2761 C2770 0.930 . S
H2762 C2772 0.930 . S
H2763 C2775 0.929 . S
H2764 C2778 0.930 . S
H2765 C2780 0.960 . S
H2766 C2780 0.960 . S
H2767 C2780 0.960 . S
C2768 H2760 0.929 . S
C2768 C2769 1.377 . S
C2768 C2770 1.384 . S
C2769 C2768 1.377 . S
C2769 C2775 1.390 . S
C2770 H2761 0.930 . S
C2770 C2768 1.384 . S
C2770 C2771 1.372 . S
C2771 C2770 1.372 . S
C2771 C2772 1.400 . S
C2771 C2776 1.490 . S
C2772 H2762 0.930 . S
C2772 C2771 1.400 . S
C2772 C2775 1.386 . S
H2773 C2789 0.930 . S
H2774 C2790 0.931 . S
C2775 H2763 0.929 . S
C2775 C2769 1.390 . S
C2775 C2772 1.386 . S
C2776 C2771 1.490 . S
C2776 C2778 1.395 . S
C2776 C2779 1.403 . S
H2777 C2783 0.930 . S
C2778 H2764 0.930 . S
C2778 C2776 1.395 . S
C2778 C2781 1.403 1_545 S
C2779 C2776 1.403 . S
C2779 C2780 1.524 . S
C2779 C2783 1.400 1_545 S
C2780 H2765 0.960 . S
C2780 H2766 0.960 . S
C2780 H2767 0.960 . S
C2780 C2779 1.524 . S
C2781 C2778 1.403 1_565 S
C2781 C2782 1.392 . S
C2781 C2785 1.495 . S
C2782 C2781 1.392 . S
C2782 C2783 1.385 . S
C2782 C2784 1.478 . S
C2783 H2777 0.930 . S
C2783 C2779 1.400 1_565 S
C2783 C2782 1.385 . S
C2784 C2782 1.478 . S
C2784 C2786 1.381 . S
C2784 C2790 1.383 . S
C2785 C2781 1.495 . S
C2785 H2791 0.959 . S
C2785 H2792 0.961 . S
C2785 H2793 0.960 . S
C2786 C2784 1.381 . S
C2786 C2787 1.394 . S
C2786 H2794 0.930 . S
C2787 C2786 1.394 . S
C2787 C2788 1.383 . S
C2787 H2795 0.929 . S
C2788 C2787 1.383 . S
C2788 C2789 1.377 . S
C2789 H2773 0.930 . S
C2789 C2788 1.377 . S
C2789 C2790 1.379 . S
C2790 H2774 0.931 . S
C2790 C2784 1.383 . S
C2790 C2789 1.379 . S
H2791 C2785 0.959 . S
H2792 C2785 0.961 . S
H2793 C2785 0.960 . S
H2794 C2786 0.930 . S
H2795 C2787 0.929 . S
H2796 C2804 0.929 . S
H2797 C2806 0.930 . S
H2798 C2808 0.930 . S
H2799 C2811 0.929 . S
H2800 C2814 0.930 . S
H2801 C2816 0.960 . S
H2802 C2816 0.960 . S
H2803 C2816 0.960 . S
C2804 H2796 0.929 . S
C2804 C2805 1.377 . S
C2804 C2806 1.384 . S
C2805 C2804 1.377 . S
C2805 C2811 1.390 . S
C2806 H2797 0.930 . S
C2806 C2804 1.384 . S
C2806 C2807 1.372 . S
C2807 C2806 1.372 . S
C2807 C2808 1.400 . S
C2807 C2812 1.490 . S
C2808 H2798 0.930 . S
C2808 C2807 1.400 . S
C2808 C2811 1.386 . S
H2809 C2825 0.930 . S
H2810 C2826 0.931 . S
C2811 H2799 0.929 . S
C2811 C2805 1.390 . S
C2811 C2808 1.386 . S
C2812 C2807 1.490 . S
C2812 C2814 1.395 . S
C2812 C2815 1.403 . S
H2813 C2819 0.930 . S
C2814 H2800 0.930 . S
C2814 C2812 1.395 . S
C2814 C2817 1.403 . S
C2815 C2812 1.403 . S
C2815 C2816 1.524 . S
C2815 C2819 1.400 . S
C2816 H2801 0.960 . S
C2816 H2802 0.960 . S
C2816 H2803 0.960 . S
C2816 C2815 1.524 . S
C2817 C2814 1.403 . S
C2817 C2818 1.392 . S
C2817 C2821 1.495 . S
C2818 C2817 1.392 . S
C2818 C2819 1.385 . S
C2818 C2820 1.478 . S
C2819 H2813 0.930 . S
C2819 C2815 1.400 . S
C2819 C2818 1.385 . S
C2820 C2818 1.478 . S
C2820 C2822 1.381 . S
C2820 C2826 1.383 . S
C2821 C2817 1.495 . S
C2821 H2827 0.959 . S
C2821 H2828 0.961 . S
C2821 H2829 0.960 . S
C2822 C2820 1.381 . S
C2822 C2823 1.394 . S
C2822 H2830 0.930 . S
C2823 C2822 1.394 . S
C2823 C2824 1.383 . S
C2823 H2831 0.929 . S
C2824 C2823 1.383 . S
C2824 C2825 1.377 . S
C2825 H2809 0.930 . S
C2825 C2824 1.377 . S
C2825 C2826 1.379 . S
C2826 H2810 0.931 . S
C2826 C2820 1.383 . S
C2826 C2825 1.379 . S
H2827 C2821 0.959 . S
H2828 C2821 0.961 . S
H2829 C2821 0.960 . S
H2830 C2822 0.930 . S
H2831 C2823 0.929 . S
H2832 C2840 0.929 . S
H2833 C2842 0.930 . S
H2834 C2844 0.930 . S
H2835 C2847 0.929 . S
H2836 C2850 0.930 . S
H2837 C2852 0.960 . S
H2838 C2852 0.960 . S
H2839 C2852 0.960 . S
C2840 H2832 0.929 . S
C2840 C2841 1.377 . S
C2840 C2842 1.384 . S
C2841 C2840 1.377 . S
C2841 C2847 1.390 . S
C2842 H2833 0.930 . S
C2842 C2840 1.384 . S
C2842 C2843 1.372 . S
C2843 C2842 1.372 . S
C2843 C2844 1.400 . S
C2843 C2848 1.490 . S
C2844 H2834 0.930 . S
C2844 C2843 1.400 . S
C2844 C2847 1.386 . S
H2845 C2861 0.930 . S
H2846 C2862 0.931 . S
C2847 H2835 0.929 . S
C2847 C2841 1.390 . S
C2847 C2844 1.386 . S
C2848 C2843 1.490 . S
C2848 C2850 1.395 . S
C2848 C2851 1.403 . S
H2849 C2855 0.930 . S
C2850 H2836 0.930 . S
C2850 C2848 1.395 . S
C2850 C2853 1.403 1_545 S
C2851 C2848 1.403 . S
C2851 C2852 1.524 . S
C2851 C2855 1.400 1_545 S
C2852 H2837 0.960 . S
C2852 H2838 0.960 . S
C2852 H2839 0.960 . S
C2852 C2851 1.524 . S
C2853 C2850 1.403 1_565 S
C2853 C2854 1.392 . S
C2853 C2857 1.495 . S
C2854 C2853 1.392 . S
C2854 C2855 1.385 . S
C2854 C2856 1.478 . S
C2855 H2849 0.930 . S
C2855 C2851 1.400 1_565 S
C2855 C2854 1.385 . S
C2856 C2854 1.478 . S
C2856 C2858 1.381 . S
C2856 C2862 1.383 . S
C2857 C2853 1.495 . S
C2857 H2863 0.959 . S
C2857 H2864 0.961 . S
C2857 H2865 0.960 . S
C2858 C2856 1.381 . S
C2858 C2859 1.394 . S
C2858 H2866 0.930 . S
C2859 C2858 1.394 . S
C2859 C2860 1.383 . S
C2859 H2867 0.929 . S
C2860 C2859 1.383 . S
C2860 C2861 1.377 . S
C2861 H2845 0.930 . S
C2861 C2860 1.377 . S
C2861 C2862 1.379 . S
C2862 H2846 0.931 . S
C2862 C2856 1.383 . S
C2862 C2861 1.379 . S
H2863 C2857 0.959 . S
H2864 C2857 0.961 . S
H2865 C2857 0.960 . S
H2866 C2858 0.930 . S
H2867 C2859 0.929 . S
H2868 C2876 0.929 . S
H2869 C2878 0.930 . S
H2870 C2880 0.930 . S
H2871 C2883 0.929 . S
H2872 C2886 0.930 . S
H2873 C2888 0.960 . S
H2874 C2888 0.960 . S
H2875 C2888 0.960 . S
C2876 H2868 0.929 . S
C2876 C2877 1.377 . S
C2876 C2878 1.384 . S
C2877 C2876 1.377 . S
C2877 C2883 1.390 . S
C2878 H2869 0.930 . S
C2878 C2876 1.384 . S
C2878 C2879 1.372 . S
C2879 C2878 1.372 . S
C2879 C2880 1.400 . S
C2879 C2884 1.490 . S
C2880 H2870 0.930 . S
C2880 C2879 1.400 . S
C2880 C2883 1.386 . S
H2881 C2897 0.930 . S
H2882 C2898 0.931 . S
C2883 H2871 0.929 . S
C2883 C2877 1.390 . S
C2883 C2880 1.386 . S
C2884 C2879 1.490 . S
C2884 C2886 1.395 . S
C2884 C2887 1.403 . S
H2885 C2891 0.930 . S
C2886 H2872 0.930 . S
C2886 C2884 1.395 . S
C2886 C2889 1.403 . S
C2887 C2884 1.403 . S
C2887 C2888 1.524 . S
C2887 C2891 1.400 . S
C2888 H2873 0.960 . S
C2888 H2874 0.960 . S
C2888 H2875 0.960 . S
C2888 C2887 1.524 . S
C2889 C2886 1.403 . S
C2889 C2890 1.392 . S
C2889 C2893 1.495 . S
C2890 C2889 1.392 . S
C2890 C2891 1.385 . S
C2890 C2892 1.478 . S
C2891 H2885 0.930 . S
C2891 C2887 1.400 . S
C2891 C2890 1.385 . S
C2892 C2890 1.478 . S
C2892 C2894 1.381 . S
C2892 C2898 1.383 . S
C2893 C2889 1.495 . S
C2893 H2899 0.959 . S
C2893 H2900 0.961 . S
C2893 H2901 0.960 . S
C2894 C2892 1.381 . S
C2894 C2895 1.394 . S
C2894 H2902 0.930 . S
C2895 C2894 1.394 . S
C2895 C2896 1.383 . S
C2895 H2903 0.929 . S
C2896 C2895 1.383 . S
C2896 C2897 1.377 . S
C2897 H2881 0.930 . S
C2897 C2896 1.377 . S
C2897 C2898 1.379 . S
C2898 H2882 0.931 . S
C2898 C2892 1.383 . S
C2898 C2897 1.379 . S
H2899 C2893 0.959 . S
H2900 C2893 0.961 . S
H2901 C2893 0.960 . S
H2902 C2894 0.930 . S
H2903 C2895 0.929 . S
H2904 C2912 0.929 . S
H2905 C2914 0.930 . S
H2906 C2916 0.930 . S
H2907 C2919 0.929 . S
H2908 C2922 0.930 . S
H2909 C2924 0.960 . S
H2910 C2924 0.960 . S
H2911 C2924 0.960 . S
C2912 H2904 0.929 . S
C2912 C2913 1.377 . S
C2912 C2914 1.384 . S
C2913 C2912 1.377 . S
C2913 C2919 1.390 . S
C2914 H2905 0.930 . S
C2914 C2912 1.384 . S
C2914 C2915 1.372 . S
C2915 C2914 1.372 . S
C2915 C2916 1.400 . S
C2915 C2920 1.490 . S
C2916 H2906 0.930 . S
C2916 C2915 1.400 . S
C2916 C2919 1.386 . S
H2917 C2933 0.930 . S
H2918 C2934 0.931 . S
C2919 H2907 0.929 . S
C2919 C2913 1.390 . S
C2919 C2916 1.386 . S
C2920 C2915 1.490 . S
C2920 C2922 1.395 . S
C2920 C2923 1.403 . S
H2921 C2927 0.930 . S
C2922 H2908 0.930 . S
C2922 C2920 1.395 . S
C2922 C2925 1.403 1_545 S
C2923 C2920 1.403 . S
C2923 C2924 1.524 . S
C2923 C2927 1.400 1_545 S
C2924 H2909 0.960 . S
C2924 H2910 0.960 . S
C2924 H2911 0.960 . S
C2924 C2923 1.524 . S
C2925 C2922 1.403 1_565 S
C2925 C2926 1.392 . S
C2925 C2929 1.495 . S
C2926 C2925 1.392 . S
C2926 C2927 1.385 . S
C2926 C2928 1.478 . S
C2927 H2921 0.930 . S
C2927 C2923 1.400 1_565 S
C2927 C2926 1.385 . S
C2928 C2926 1.478 . S
C2928 C2930 1.381 . S
C2928 C2934 1.383 . S
C2929 C2925 1.495 . S
C2929 H2935 0.959 . S
C2929 H2936 0.961 . S
C2929 H2937 0.960 . S
C2930 C2928 1.381 . S
C2930 C2931 1.394 . S
C2930 H2938 0.930 . S
C2931 C2930 1.394 . S
C2931 C2932 1.383 . S
C2931 H2939 0.929 . S
C2932 C2931 1.383 . S
C2932 C2933 1.377 . S
C2933 H2917 0.930 . S
C2933 C2932 1.377 . S
C2933 C2934 1.379 . S
C2934 H2918 0.931 . S
C2934 C2928 1.383 . S
C2934 C2933 1.379 . S
H2935 C2929 0.959 . S
H2936 C2929 0.961 . S
H2937 C2929 0.960 . S
H2938 C2930 0.930 . S
H2939 C2931 0.929 . S
H2940 C2948 0.929 . S
H2941 C2950 0.930 . S
H2942 C2952 0.930 . S
H2943 C2955 0.929 . S
H2944 C2958 0.930 . S
H2945 C2960 0.960 . S
H2946 C2960 0.960 . S
H2947 C2960 0.960 . S
C2948 H2940 0.929 . S
C2948 C2949 1.377 . S
C2948 C2950 1.384 . S
C2949 C2948 1.377 . S
C2949 C2955 1.390 . S
C2950 H2941 0.930 . S
C2950 C2948 1.384 . S
C2950 C2951 1.372 . S
C2951 C2950 1.372 . S
C2951 C2952 1.400 . S
C2951 C2956 1.490 . S
C2952 H2942 0.930 . S
C2952 C2951 1.400 . S
C2952 C2955 1.386 . S
H2953 C2969 0.930 . S
H2954 C2970 0.931 . S
C2955 H2943 0.929 . S
C2955 C2949 1.390 . S
C2955 C2952 1.386 . S
C2956 C2951 1.490 . S
C2956 C2958 1.395 . S
C2956 C2959 1.403 . S
H2957 C2963 0.930 . S
C2958 H2944 0.930 . S
C2958 C2956 1.395 . S
C2958 C2961 1.403 . S
C2959 C2956 1.403 . S
C2959 C2960 1.524 . S
C2959 C2963 1.400 . S
C2960 H2945 0.960 . S
C2960 H2946 0.960 . S
C2960 H2947 0.960 . S
C2960 C2959 1.524 . S
C2961 C2958 1.403 . S
C2961 C2962 1.392 . S
C2961 C2965 1.495 . S
C2962 C2961 1.392 . S
C2962 C2963 1.385 . S
C2962 C2964 1.478 . S
C2963 H2957 0.930 . S
C2963 C2959 1.400 . S
C2963 C2962 1.385 . S
C2964 C2962 1.478 . S
C2964 C2966 1.381 . S
C2964 C2970 1.383 . S
C2965 C2961 1.495 . S
C2965 H2971 0.959 . S
C2965 H2972 0.961 . S
C2965 H2973 0.960 . S
C2966 C2964 1.381 . S
C2966 C2967 1.394 . S
C2966 H2974 0.930 . S
C2967 C2966 1.394 . S
C2967 C2968 1.383 . S
C2967 H2975 0.929 . S
C2968 C2967 1.383 . S
C2968 C2969 1.377 . S
C2969 H2953 0.930 . S
C2969 C2968 1.377 . S
C2969 C2970 1.379 . S
C2970 H2954 0.931 . S
C2970 C2964 1.383 . S
C2970 C2969 1.379 . S
H2971 C2965 0.959 . S
H2972 C2965 0.961 . S
H2973 C2965 0.960 . S
H2974 C2966 0.930 . S
H2975 C2967 0.929 . S
H2976 C2984 0.929 . S
H2977 C2986 0.930 . S
H2978 C2988 0.930 . S
H2979 C2991 0.929 . S
H2980 C2994 0.930 . S
H2981 C2996 0.960 . S
H2982 C2996 0.960 . S
H2983 C2996 0.960 . S
C2984 H2976 0.929 . S
C2984 C2985 1.377 . S
C2984 C2986 1.384 . S
C2985 C2984 1.377 . S
C2985 C2991 1.390 . S
C2986 H2977 0.930 . S
C2986 C2984 1.384 . S
C2986 C2987 1.372 . S
C2987 C2986 1.372 . S
C2987 C2988 1.400 . S
C2987 C2992 1.490 . S
C2988 H2978 0.930 . S
C2988 C2987 1.400 . S
C2988 C2991 1.386 . S
H2989 C3005 0.930 . S
H2990 C3006 0.931 . S
C2991 H2979 0.929 . S
C2991 C2985 1.390 . S
C2991 C2988 1.386 . S
C2992 C2987 1.490 . S
C2992 C2994 1.395 . S
C2992 C2995 1.403 . S
H2993 C2999 0.930 . S
C2994 H2980 0.930 . S
C2994 C2992 1.395 . S
C2994 C2997 1.403 1_556 S
C2995 C2992 1.403 . S
C2995 C2996 1.524 . S
C2995 C2999 1.400 1_556 S
C2996 H2981 0.960 . S
C2996 H2982 0.960 . S
C2996 H2983 0.960 . S
C2996 C2995 1.524 . S
C2997 C2994 1.403 1_554 S
C2997 C2998 1.392 . S
C2997 C3001 1.495 . S
C2998 C2997 1.392 . S
C2998 C2999 1.385 . S
C2998 C3000 1.478 . S
C2999 H2993 0.930 . S
C2999 C2995 1.400 1_554 S
C2999 C2998 1.385 . S
C3000 C2998 1.478 . S
C3000 C3002 1.381 . S
C3000 C3006 1.383 . S
C3001 C2997 1.495 . S
C3001 H3007 0.959 . S
C3001 H3008 0.961 . S
C3001 H3009 0.960 . S
C3002 C3000 1.381 . S
C3002 C3003 1.394 . S
C3002 H3010 0.930 . S
C3003 C3002 1.394 . S
C3003 C3004 1.383 . S
C3003 H3011 0.929 . S
C3004 C3003 1.383 . S
C3004 C3005 1.377 . S
C3005 H2989 0.930 . S
C3005 C3004 1.377 . S
C3005 C3006 1.379 . S
C3006 H2990 0.931 . S
C3006 C3000 1.383 . S
C3006 C3005 1.379 . S
H3007 C3001 0.959 . S
H3008 C3001 0.961 . S
H3009 C3001 0.960 . S
H3010 C3002 0.930 . S
H3011 C3003 0.929 . S
H3012 C3020 0.929 . S
H3013 C3022 0.930 . S
H3014 C3024 0.930 . S
H3015 C3027 0.929 . S
H3016 C3030 0.930 . S
H3017 C3032 0.926 1_554 S
H3018 C3032 0.960 . S
H3019 C3032 0.960 . S
C3020 H3012 0.929 . S
C3020 C3021 1.377 . S
C3020 C3022 1.384 . S
C3021 C3020 1.377 . S
C3021 C3027 1.390 . S
C3022 H3013 0.930 . S
C3022 C3020 1.384 . S
C3022 C3023 1.372 . S
C3023 C3022 1.372 . S
C3023 C3024 1.400 . S
C3023 C3028 1.490 . S
C3024 H3014 0.930 . S
C3024 C3023 1.400 . S
C3024 C3027 1.386 . S
H3025 C3041 0.930 . S
H3026 C3042 0.931 . S
C3027 H3015 0.929 . S
C3027 C3021 1.390 . S
C3027 C3024 1.386 . S
C3028 C3023 1.490 . S
C3028 C3030 1.395 . S
C3028 C3031 1.403 . S
H3029 C3035 0.930 . S
C3030 H3016 0.930 . S
C3030 C3028 1.395 . S
C3030 C3033 1.403 1_556 S
C3031 C3028 1.403 . S
C3031 C3032 1.524 . S
C3031 C3035 1.400 1_556 S
C3032 H3017 0.926 1_556 S
C3032 H3018 0.960 . S
C3032 H3019 0.960 . S
C3032 C3031 1.524 . S
C3033 C3030 1.403 1_554 S
C3033 C3034 1.392 . S
C3033 C3037 1.495 . S
C3034 C3033 1.392 . S
C3034 C3035 1.385 . S
C3034 C3036 1.478 . S
C3035 H3029 0.930 . S
C3035 C3031 1.400 1_554 S
C3035 C3034 1.385 . S
C3036 C3034 1.478 . S
C3036 C3038 1.381 . S
C3036 C3042 1.383 . S
C3037 C3033 1.495 . S
C3037 H3043 0.959 . S
C3037 H3044 0.961 . S
C3037 H3045 0.960 . S
C3038 C3036 1.381 . S
C3038 C3039 1.394 . S
C3038 H3046 0.930 . S
C3039 C3038 1.394 . S
C3039 C3040 1.383 . S
C3039 H3047 0.929 . S
C3040 C3039 1.383 . S
C3040 C3041 1.377 . S
C3041 H3025 0.930 . S
C3041 C3040 1.377 . S
C3041 C3042 1.379 . S
C3042 H3026 0.931 . S
C3042 C3036 1.383 . S
C3042 C3041 1.379 . S
H3043 C3037 0.959 . S
H3044 C3037 0.961 . S
H3045 C3037 0.960 . S
H3046 C3038 0.930 . S
H3047 C3039 0.929 . S
H3048 C3056 0.929 . S
H3049 C3058 0.930 . S
H3050 C3060 0.930 . S
H3051 C3063 0.929 . S
H3052 C3066 0.930 . S
H3053 C3068 0.960 . S
H3054 C3068 0.960 . S
H3055 C3068 0.960 . S
C3056 H3048 0.929 . S
C3056 C3057 1.377 . S
C3056 C3058 1.384 . S
C3057 C3056 1.377 . S
C3057 C3063 1.390 . S
C3058 H3049 0.930 . S
C3058 C3056 1.384 . S
C3058 C3059 1.372 . S
C3059 C3058 1.372 . S
C3059 C3060 1.400 . S
C3059 C3064 1.490 . S
C3060 H3050 0.930 . S
C3060 C3059 1.400 . S
C3060 C3063 1.386 . S
H3061 C3077 0.930 . S
H3062 C3078 0.931 . S
C3063 H3051 0.929 . S
C3063 C3057 1.390 . S
C3063 C3060 1.386 . S
C3064 C3059 1.490 . S
C3064 C3066 1.395 . S
C3064 C3067 1.403 . S
H3065 C3071 0.930 . S
C3066 H3052 0.930 . S
C3066 C3064 1.395 . S
C3066 C3069 1.403 . S
C3067 C3064 1.403 . S
C3067 C3068 1.524 . S
C3067 C3071 1.400 . S
C3068 H3053 0.960 . S
C3068 H3054 0.960 . S
C3068 H3055 0.960 . S
C3068 C3067 1.524 . S
C3069 C3066 1.403 . S
C3069 C3070 1.392 . S
C3069 C3073 1.495 . S
C3070 C3069 1.392 . S
C3070 C3071 1.385 . S
C3070 C3072 1.478 . S
C3071 H3065 0.930 . S
C3071 C3067 1.400 . S
C3071 C3070 1.385 . S
C3072 C3070 1.478 . S
C3072 C3074 1.381 . S
C3072 C3078 1.383 . S
C3073 C3069 1.495 . S
C3073 H3079 0.959 . S
C3073 H3080 0.961 . S
C3073 H3081 0.960 . S
C3074 C3072 1.381 . S
C3074 C3075 1.394 . S
C3074 H3082 0.930 . S
C3075 C3074 1.394 . S
C3075 C3076 1.383 . S
C3075 H3083 0.929 . S
C3076 C3075 1.383 . S
C3076 C3077 1.377 . S
C3077 H3061 0.930 . S
C3077 C3076 1.377 . S
C3077 C3078 1.379 . S
C3078 H3062 0.931 . S
C3078 C3072 1.383 . S
C3078 C3077 1.379 . S
H3079 C3073 0.959 . S
H3080 C3073 0.961 . S
H3081 C3073 0.960 . S
H3082 C3074 0.930 . S
H3083 C3075 0.929 . S
H3084 C3092 0.929 . S
H3085 C3094 0.930 . S
H3086 C3096 0.930 . S
H3087 C3099 0.929 . S
H3088 C3102 0.930 . S
H3089 C3104 0.960 . S
H3090 C3104 0.960 . S
H3091 C3104 0.960 . S
C3092 H3084 0.929 . S
C3092 C3093 1.377 . S
C3092 C3094 1.384 . S
C3093 C3092 1.377 . S
C3093 C3099 1.390 . S
C3094 H3085 0.930 . S
C3094 C3092 1.384 . S
C3094 C3095 1.372 . S
C3095 C3094 1.372 . S
C3095 C3096 1.400 . S
C3095 C3100 1.490 . S
C3096 H3086 0.930 . S
C3096 C3095 1.400 . S
C3096 C3099 1.386 . S
H3097 C3113 0.930 . S
H3098 C3114 0.931 . S
C3099 H3087 0.929 . S
C3099 C3093 1.390 . S
C3099 C3096 1.386 . S
C3100 C3095 1.490 . S
C3100 C3102 1.395 . S
C3100 C3103 1.403 . S
H3101 C3107 0.930 . S
C3102 H3088 0.930 . S
C3102 C3100 1.395 . S
C3102 C3105 1.403 1_556 S
C3103 C3100 1.403 . S
C3103 C3104 1.524 . S
C3103 C3107 1.400 1_556 S
C3104 H3089 0.960 . S
C3104 H3090 0.960 . S
C3104 H3091 0.960 . S
C3104 C3103 1.524 . S
C3105 C3102 1.403 1_554 S
C3105 C3106 1.392 . S
C3105 C3109 1.495 . S
C3106 C3105 1.392 . S
C3106 C3107 1.385 . S
C3106 C3108 1.478 . S
C3107 H3101 0.930 . S
C3107 C3103 1.400 1_554 S
C3107 C3106 1.385 . S
C3108 C3106 1.478 . S
C3108 C3110 1.381 . S
C3108 C3114 1.383 . S
C3109 C3105 1.495 . S
C3109 H3115 0.959 . S
C3109 H3116 0.961 . S
C3109 H3117 0.960 . S
C3110 C3108 1.381 . S
C3110 C3111 1.394 . S
C3110 H3118 0.930 . S
C3111 C3110 1.394 . S
C3111 C3112 1.383 . S
C3111 H3119 0.929 . S
C3112 C3111 1.383 . S
C3112 C3113 1.377 . S
C3113 H3097 0.930 . S
C3113 C3112 1.377 . S
C3113 C3114 1.379 . S
C3114 H3098 0.931 . S
C3114 C3108 1.383 . S
C3114 C3113 1.379 . S
H3115 C3109 0.959 . S
H3116 C3109 0.961 . S
H3117 C3109 0.960 . S
H3118 C3110 0.930 . S
H3119 C3111 0.929 . S
H3120 C3128 0.929 . S
H3121 C3130 0.930 . S
H3122 C3132 0.930 . S
H3123 C3135 0.929 . S
H3124 C3138 0.930 . S
H3125 C3140 0.960 . S
H3126 C3140 0.960 . S
H3127 C3140 0.960 . S
C3128 H3120 0.929 . S
C3128 C3129 1.377 . S
C3128 C3130 1.384 . S
C3129 C3128 1.377 . S
C3129 C3135 1.390 . S
C3130 H3121 0.930 . S
C3130 C3128 1.384 . S
C3130 C3131 1.372 . S
C3131 C3130 1.372 . S
C3131 C3132 1.400 . S
C3131 C3136 1.490 . S
C3132 H3122 0.930 . S
C3132 C3131 1.400 . S
C3132 C3135 1.386 . S
H3133 C3149 0.930 . S
H3134 C3150 0.931 . S
C3135 H3123 0.929 . S
C3135 C3129 1.390 . S
C3135 C3132 1.386 . S
C3136 C3131 1.490 . S
C3136 C3138 1.395 . S
C3136 C3139 1.403 . S
H3137 C3143 0.930 . S
C3138 H3124 0.930 . S
C3138 C3136 1.395 . S
C3138 C3141 1.403 . S
C3139 C3136 1.403 . S
C3139 C3140 1.524 . S
C3139 C3143 1.400 . S
C3140 H3125 0.960 . S
C3140 H3126 0.960 . S
C3140 H3127 0.960 . S
C3140 C3139 1.524 . S
C3141 C3138 1.403 . S
C3141 C3142 1.392 . S
C3141 C3145 1.495 . S
C3142 C3141 1.392 . S
C3142 C3143 1.385 . S
C3142 C3144 1.478 . S
C3143 H3137 0.930 . S
C3143 C3139 1.400 . S
C3143 C3142 1.385 . S
C3144 C3142 1.478 . S
C3144 C3146 1.381 . S
C3144 C3150 1.383 . S
C3145 C3141 1.495 . S
C3145 H3151 0.959 . S
C3145 H3152 0.961 . S
C3145 H3153 0.960 . S
C3146 C3144 1.381 . S
C3146 C3147 1.394 . S
C3146 H3154 0.930 . S
C3147 C3146 1.394 . S
C3147 C3148 1.383 . S
C3147 H3155 0.929 . S
C3148 C3147 1.383 . S
C3148 C3149 1.377 . S
C3149 H3133 0.930 . S
C3149 C3148 1.377 . S
C3149 C3150 1.379 . S
C3150 H3134 0.931 . S
C3150 C3144 1.383 . S
C3150 C3149 1.379 . S
H3151 C3145 0.959 . S
H3152 C3145 0.961 . S
H3153 C3145 0.960 . S
H3154 C3146 0.930 . S
H3155 C3147 0.929 . S
H3156 C3164 0.929 . S
H3157 C3166 0.930 . S
H3158 C3168 0.930 . S
H3159 C3171 0.929 . S
H3160 C3174 0.930 . S
H3161 C3176 0.960 . S
H3162 C3176 0.960 . S
H3163 C3176 0.960 . S
C3164 H3156 0.929 . S
C3164 C3165 1.377 . S
C3164 C3166 1.384 . S
C3165 C3164 1.377 . S
C3165 C3171 1.390 . S
C3166 H3157 0.930 . S
C3166 C3164 1.384 . S
C3166 C3167 1.372 . S
C3167 C3166 1.372 . S
C3167 C3168 1.400 . S
C3167 C3172 1.490 . S
C3168 H3158 0.930 . S
C3168 C3167 1.400 . S
C3168 C3171 1.386 . S
H3169 C3185 0.930 . S
H3170 C3186 0.931 . S
C3171 H3159 0.929 . S
C3171 C3165 1.390 . S
C3171 C3168 1.386 . S
C3172 C3167 1.490 . S
C3172 C3174 1.395 . S
C3172 C3175 1.403 . S
H3173 C3179 0.930 . S
C3174 H3160 0.930 . S
C3174 C3172 1.395 . S
C3174 C3177 1.403 1_556 S
C3175 C3172 1.403 . S
C3175 C3176 1.524 . S
C3175 C3179 1.400 1_556 S
C3176 H3161 0.960 . S
C3176 H3162 0.960 . S
C3176 H3163 0.960 . S
C3176 C3175 1.524 . S
C3177 C3174 1.403 1_554 S
C3177 C3178 1.392 . S
C3177 C3181 1.495 . S
C3178 C3177 1.392 . S
C3178 C3179 1.385 . S
C3178 C3180 1.478 . S
C3179 H3173 0.930 . S
C3179 C3175 1.400 1_554 S
C3179 C3178 1.385 . S
C3180 C3178 1.478 . S
C3180 C3182 1.381 . S
C3180 C3186 1.383 . S
C3181 C3177 1.495 . S
C3181 H3187 0.959 . S
C3181 H3188 0.961 . S
C3181 H3189 0.960 . S
C3182 C3180 1.381 . S
C3182 C3183 1.394 . S
C3182 H3190 0.930 . S
C3183 C3182 1.394 . S
C3183 C3184 1.383 . S
C3183 H3191 0.929 . S
C3184 C3183 1.383 . S
C3184 C3185 1.377 . S
C3185 H3169 0.930 . S
C3185 C3184 1.377 . S
C3185 C3186 1.379 . S
C3186 H3170 0.931 . S
C3186 C3180 1.383 . S
C3186 C3185 1.379 . S
H3187 C3181 0.959 . S
H3188 C3181 0.961 . S
H3189 C3181 0.960 . S
H3190 C3182 0.930 . S
H3191 C3183 0.929 . S
H3192 C3200 0.929 . S
H3193 C3202 0.930 . S
H3194 C3204 0.930 . S
H3195 C3207 0.929 . S
H3196 C3210 0.930 . S
H3197 C3212 0.960 . S
H3198 C3212 0.960 . S
H3199 C3212 0.960 . S
C3200 H3192 0.929 . S
C3200 C3201 1.377 . S
C3200 C3202 1.384 . S
C3201 C3200 1.377 . S
C3201 C3207 1.390 . S
C3202 H3193 0.930 . S
C3202 C3200 1.384 . S
C3202 C3203 1.372 . S
C3203 C3202 1.372 . S
C3203 C3204 1.400 . S
C3203 C3208 1.490 . S
C3204 H3194 0.930 . S
C3204 C3203 1.400 . S
C3204 C3207 1.386 . S
H3205 C3221 0.930 . S
H3206 C3222 0.931 . S
C3207 H3195 0.929 . S
C3207 C3201 1.390 . S
C3207 C3204 1.386 . S
C3208 C3203 1.490 . S
C3208 C3210 1.395 . S
C3208 C3211 1.403 . S
H3209 C3215 0.930 . S
C3210 H3196 0.930 . S
C3210 C3208 1.395 . S
C3210 C3213 1.403 . S
C3211 C3208 1.403 . S
C3211 C3212 1.524 . S
C3211 C3215 1.400 . S
C3212 H3197 0.960 . S
C3212 H3198 0.960 . S
C3212 H3199 0.960 . S
C3212 C3211 1.524 . S
C3213 C3210 1.403 . S
C3213 C3214 1.392 . S
C3213 C3217 1.495 . S
C3214 C3213 1.392 . S
C3214 C3215 1.385 . S
C3214 C3216 1.478 . S
C3215 H3209 0.930 . S
C3215 C3211 1.400 . S
C3215 C3214 1.385 . S
C3216 C3214 1.478 . S
C3216 C3218 1.381 . S
C3216 C3222 1.383 . S
C3217 C3213 1.495 . S
C3217 H3223 0.959 . S
C3217 H3224 0.961 . S
C3217 H3225 0.960 . S
C3218 C3216 1.381 . S
C3218 C3219 1.394 . S
C3218 H3226 0.930 . S
C3219 C3218 1.394 . S
C3219 C3220 1.383 . S
C3219 H3227 0.929 . S
C3220 C3219 1.383 . S
C3220 C3221 1.377 . S
C3221 H3205 0.930 . S
C3221 C3220 1.377 . S
C3221 C3222 1.379 . S
C3222 H3206 0.931 . S
C3222 C3216 1.383 . S
C3222 C3221 1.379 . S
H3223 C3217 0.959 . S
H3224 C3217 0.961 . S
H3225 C3217 0.960 . S
H3226 C3218 0.930 . S
H3227 C3219 0.929 . S
H3228 C3236 0.929 . S
H3229 C3238 0.930 . S
H3230 C3240 0.930 . S
H3231 C3243 0.929 . S
H3232 C3246 0.930 . S
H3233 C3248 0.960 . S
H3234 C3248 0.960 . S
H3235 C3248 0.960 . S
C3236 H3228 0.929 . S
C3236 C3237 1.377 . S
C3236 C3238 1.384 . S
C3237 C3236 1.377 . S
C3237 C3243 1.390 . S
C3238 H3229 0.930 . S
C3238 C3236 1.384 . S
C3238 C3239 1.372 . S
C3239 C3238 1.372 . S
C3239 C3240 1.400 . S
C3239 C3244 1.490 . S
C3240 H3230 0.930 . S
C3240 C3239 1.400 . S
C3240 C3243 1.386 . S
H3241 C3257 0.930 . S
H3242 C3258 0.931 . S
C3243 H3231 0.929 . S
C3243 C3237 1.390 . S
C3243 C3240 1.386 . S
C3244 C3239 1.490 . S
C3244 C3246 1.395 . S
C3244 C3247 1.403 . S
H3245 C3251 0.930 . S
C3246 H3232 0.930 . S
C3246 C3244 1.395 . S
C3246 C3249 1.403 . S
C3247 C3244 1.403 . S
C3247 C3248 1.524 . S
C3247 C3251 1.400 . S
C3248 H3233 0.960 . S
C3248 H3234 0.960 . S
C3248 H3235 0.960 . S
C3248 C3247 1.524 . S
C3249 C3246 1.403 . S
C3249 C3250 1.392 . S
C3249 C3253 1.495 . S
C3250 C3249 1.392 . S
C3250 C3251 1.385 . S
C3250 C3252 1.478 . S
C3251 H3245 0.930 . S
C3251 C3247 1.400 . S
C3251 C3250 1.385 . S
C3252 C3250 1.478 . S
C3252 C3254 1.381 . S
C3252 C3258 1.383 . S
C3253 C3249 1.495 . S
C3253 H3259 0.959 . S
C3253 H3260 0.961 . S
C3253 H3261 0.960 . S
C3254 C3252 1.381 . S
C3254 C3255 1.394 . S
C3254 H3262 0.930 . S
C3255 C3254 1.394 . S
C3255 C3256 1.383 . S
C3255 H3263 0.929 . S
C3256 C3255 1.383 . S
C3256 C3257 1.377 . S
C3257 H3241 0.930 . S
C3257 C3256 1.377 . S
C3257 C3258 1.379 . S
C3258 H3242 0.931 . S
C3258 C3252 1.383 . S
C3258 C3257 1.379 . S
H3259 C3253 0.959 . S
H3260 C3253 0.961 . S
H3261 C3253 0.960 . S
H3262 C3254 0.930 . S
H3263 C3255 0.929 . S
H3264 C3272 0.929 . S
H3265 C3274 0.930 . S
H3266 C3276 0.930 . S
H3267 C3279 0.929 . S
H3268 C3282 0.930 . S
H3269 C3284 0.960 . S
H3270 C3284 0.960 . S
H3271 C3284 0.960 . S
C3272 H3264 0.929 . S
C3272 C3273 1.377 . S
C3272 C3274 1.384 . S
C3273 C3272 1.377 . S
C3273 C3279 1.390 . S
C3274 H3265 0.930 . S
C3274 C3272 1.384 . S
C3274 C3275 1.372 . S
C3275 C3274 1.372 . S
C3275 C3276 1.400 . S
C3275 C3280 1.490 . S
C3276 H3266 0.930 . S
C3276 C3275 1.400 . S
C3276 C3279 1.386 . S
H3277 C3293 0.930 . S
H3278 C3294 0.931 . S
C3279 H3267 0.929 . S
C3279 C3273 1.390 . S
C3279 C3276 1.386 . S
C3280 C3275 1.490 . S
C3280 C3282 1.395 . S
C3280 C3283 1.403 . S
H3281 C3287 0.930 . S
C3282 H3268 0.930 . S
C3282 C3280 1.395 . S
C3282 C3285 1.403 . S
C3283 C3280 1.403 . S
C3283 C3284 1.524 . S
C3283 C3287 1.400 . S
C3284 H3269 0.960 . S
C3284 H3270 0.960 . S
C3284 H3271 0.960 . S
C3284 C3283 1.524 . S
C3285 C3282 1.403 . S
C3285 C3286 1.392 . S
C3285 C3289 1.495 . S
C3286 C3285 1.392 . S
C3286 C3287 1.385 . S
C3286 C3288 1.478 . S
C3287 H3281 0.930 . S
C3287 C3283 1.400 . S
C3287 C3286 1.385 . S
C3288 C3286 1.478 . S
C3288 C3290 1.381 . S
C3288 C3294 1.383 . S
C3289 C3285 1.495 . S
C3289 H3295 0.959 . S
C3289 H3296 0.961 . S
C3289 H3297 0.960 . S
C3290 C3288 1.381 . S
C3290 C3291 1.394 . S
C3290 H3298 0.930 . S
C3291 C3290 1.394 . S
C3291 C3292 1.383 . S
C3291 H3299 0.929 . S
C3292 C3291 1.383 . S
C3292 C3293 1.377 . S
C3293 H3277 0.930 . S
C3293 C3292 1.377 . S
C3293 C3294 1.379 . S
C3294 H3278 0.931 . S
C3294 C3288 1.383 . S
C3294 C3293 1.379 . S
H3295 C3289 0.959 . S
H3296 C3289 0.961 . S
H3297 C3289 0.960 . S
H3298 C3290 0.930 . S
H3299 C3291 0.929 . S
H3300 C3308 0.929 . S
H3301 C3310 0.930 . S
H3302 C3312 0.930 . S
H3303 C3315 0.929 . S
H3304 C3318 0.930 . S
H3305 C3320 0.960 . S
H3306 C3320 0.960 . S
H3307 C3320 0.960 . S
C3308 H3300 0.929 . S
C3308 C3309 1.377 . S
C3308 C3310 1.384 . S
C3309 C3308 1.377 . S
C3309 C3315 1.390 . S
C3310 H3301 0.930 . S
C3310 C3308 1.384 . S
C3310 C3311 1.372 . S
C3311 C3310 1.372 . S
C3311 C3312 1.400 . S
C3311 C3316 1.490 . S
C3312 H3302 0.930 . S
C3312 C3311 1.400 . S
C3312 C3315 1.386 . S
H3313 C3329 0.930 . S
H3314 C3330 0.931 . S
C3315 H3303 0.929 . S
C3315 C3309 1.390 . S
C3315 C3312 1.386 . S
C3316 C3311 1.490 . S
C3316 C3318 1.395 . S
C3316 C3319 1.403 . S
H3317 C3323 0.930 . S
C3318 H3304 0.930 . S
C3318 C3316 1.395 . S
C3318 C3321 1.403 . S
C3319 C3316 1.403 . S
C3319 C3320 1.524 . S
C3319 C3323 1.400 . S
C3320 H3305 0.960 . S
C3320 H3306 0.960 . S
C3320 H3307 0.960 . S
C3320 C3319 1.524 . S
C3321 C3318 1.403 . S
C3321 C3322 1.392 . S
C3321 C3325 1.495 . S
C3322 C3321 1.392 . S
C3322 C3323 1.385 . S
C3322 C3324 1.478 . S
C3323 H3317 0.930 . S
C3323 C3319 1.400 . S
C3323 C3322 1.385 . S
C3324 C3322 1.478 . S
C3324 C3326 1.381 . S
C3324 C3330 1.383 . S
C3325 C3321 1.495 . S
C3325 H3331 0.959 . S
C3325 H3332 0.961 . S
C3325 H3333 0.960 . S
C3326 C3324 1.381 . S
C3326 C3327 1.394 . S
C3326 H3334 0.930 . S
C3327 C3326 1.394 . S
C3327 C3328 1.383 . S
C3327 H3335 0.929 . S
C3328 C3327 1.383 . S
C3328 C3329 1.377 . S
C3329 H3313 0.930 . S
C3329 C3328 1.377 . S
C3329 C3330 1.379 . S
C3330 H3314 0.931 . S
C3330 C3324 1.383 . S
C3330 C3329 1.379 . S
H3331 C3325 0.959 . S
H3332 C3325 0.961 . S
H3333 C3325 0.960 . S
H3334 C3326 0.930 . S
H3335 C3327 0.929 . S
H3336 C3344 0.929 . S
H3337 C3346 0.930 . S
H3338 C3348 0.930 . S
H3339 C3351 0.929 . S
H3340 C3354 0.930 . S
H3341 C3356 0.960 . S
H3342 C3356 0.960 . S
H3343 C3356 0.960 . S
C3344 H3336 0.929 . S
C3344 C3345 1.377 . S
C3344 C3346 1.384 . S
C3345 C3344 1.377 . S
C3345 C3351 1.390 . S
C3346 H3337 0.930 . S
C3346 C3344 1.384 . S
C3346 C3347 1.372 . S
C3347 C3346 1.372 . S
C3347 C3348 1.400 . S
C3347 C3352 1.490 . S
C3348 H3338 0.930 . S
C3348 C3347 1.400 . S
C3348 C3351 1.386 . S
H3349 C3365 0.930 . S
H3350 C3366 0.931 . S
C3351 H3339 0.929 . S
C3351 C3345 1.390 . S
C3351 C3348 1.386 . S
C3352 C3347 1.490 . S
C3352 C3354 1.395 . S
C3352 C3355 1.403 . S
H3353 C3359 0.930 . S
C3354 H3340 0.930 . S
C3354 C3352 1.395 . S
C3354 C3357 1.403 . S
C3355 C3352 1.403 . S
C3355 C3356 1.524 . S
C3355 C3359 1.400 . S
C3356 H3341 0.960 . S
C3356 H3342 0.960 . S
C3356 H3343 0.960 . S
C3356 C3355 1.524 . S
C3357 C3354 1.403 . S
C3357 C3358 1.392 . S
C3357 C3361 1.495 . S
C3358 C3357 1.392 . S
C3358 C3359 1.385 . S
C3358 C3360 1.478 . S
C3359 H3353 0.930 . S
C3359 C3355 1.400 . S
C3359 C3358 1.385 . S
C3360 C3358 1.478 . S
C3360 C3362 1.381 . S
C3360 C3366 1.383 . S
C3361 C3357 1.495 . S
C3361 H3367 0.959 . S
C3361 H3368 0.961 . S
C3361 H3369 0.960 . S
C3362 C3360 1.381 . S
C3362 C3363 1.394 . S
C3362 H3370 0.930 . S
C3363 C3362 1.394 . S
C3363 C3364 1.383 . S
C3363 H3371 0.929 . S
C3364 C3363 1.383 . S
C3364 C3365 1.377 . S
C3365 H3349 0.930 . S
C3365 C3364 1.377 . S
C3365 C3366 1.379 . S
C3366 H3350 0.931 . S
C3366 C3360 1.383 . S
C3366 C3365 1.379 . S
H3367 C3361 0.959 . S
H3368 C3361 0.961 . S
H3369 C3361 0.960 . S
H3370 C3362 0.930 . S
H3371 C3363 0.929 . S
H3372 C3380 0.929 . S
H3373 C3382 0.930 . S
H3374 C3384 0.930 . S
H3375 C3387 0.929 . S
H3376 C3390 0.930 . S
H3377 C3392 0.960 . S
H3378 C3392 0.960 . S
H3379 C3392 0.960 . S
C3380 H3372 0.929 . S
C3380 C3381 1.377 . S
C3380 C3382 1.384 . S
C3381 C3380 1.377 . S
C3381 C3387 1.390 . S
C3382 H3373 0.930 . S
C3382 C3380 1.384 . S
C3382 C3383 1.372 . S
C3383 C3382 1.372 . S
C3383 C3384 1.400 . S
C3383 C3388 1.490 . S
C3384 H3374 0.930 . S
C3384 C3383 1.400 . S
C3384 C3387 1.386 . S
H3385 C3401 0.930 . S
H3386 C3402 0.931 . S
C3387 H3375 0.929 . S
C3387 C3381 1.390 . S
C3387 C3384 1.386 . S
C3388 C3383 1.490 . S
C3388 C3390 1.395 . S
C3388 C3391 1.403 . S
H3389 C3395 0.930 . S
C3390 H3376 0.930 . S
C3390 C3388 1.395 . S
C3390 C3393 1.403 . S
C3391 C3388 1.403 . S
C3391 C3392 1.524 . S
C3391 C3395 1.400 . S
C3392 H3377 0.960 . S
C3392 H3378 0.960 . S
C3392 H3379 0.960 . S
C3392 C3391 1.524 . S
C3393 C3390 1.403 . S
C3393 C3394 1.392 . S
C3393 C3397 1.495 . S
C3394 C3393 1.392 . S
C3394 C3395 1.385 . S
C3394 C3396 1.478 . S
C3395 H3389 0.930 . S
C3395 C3391 1.400 . S
C3395 C3394 1.385 . S
C3396 C3394 1.478 . S
C3396 C3398 1.381 . S
C3396 C3402 1.383 . S
C3397 C3393 1.495 . S
C3397 H3403 0.959 . S
C3397 H3404 0.961 . S
C3397 H3405 0.960 . S
C3398 C3396 1.381 . S
C3398 C3399 1.394 . S
C3398 H3406 0.930 . S
C3399 C3398 1.394 . S
C3399 C3400 1.383 . S
C3399 H3407 0.929 . S
C3400 C3399 1.383 . S
C3400 C3401 1.377 . S
C3401 H3385 0.930 . S
C3401 C3400 1.377 . S
C3401 C3402 1.379 . S
C3402 H3386 0.931 . S
C3402 C3396 1.383 . S
C3402 C3401 1.379 . S
H3403 C3397 0.959 . S
H3404 C3397 0.961 . S
H3405 C3397 0.960 . S
H3406 C3398 0.930 . S
H3407 C3399 0.929 . S
H3408 C3416 0.929 . S
H3409 C3418 0.930 . S
H3410 C3420 0.930 . S
H3411 C3423 0.929 . S
H3412 C3426 0.930 . S
H3413 C3428 0.960 . S
H3414 C3428 0.960 . S
H3415 C3428 0.960 . S
C3416 H3408 0.929 . S
C3416 C3417 1.377 . S
C3416 C3418 1.384 . S
C3417 C3416 1.377 . S
C3417 C3423 1.390 . S
C3418 H3409 0.930 . S
C3418 C3416 1.384 . S
C3418 C3419 1.372 . S
C3419 C3418 1.372 . S
C3419 C3420 1.400 . S
C3419 C3424 1.490 . S
C3420 H3410 0.930 . S
C3420 C3419 1.400 . S
C3420 C3423 1.386 . S
H3421 C3437 0.930 . S
H3422 C3438 0.931 . S
C3423 H3411 0.929 . S
C3423 C3417 1.390 . S
C3423 C3420 1.386 . S
C3424 C3419 1.490 . S
C3424 C3426 1.395 . S
C3424 C3427 1.403 . S
H3425 C3431 0.930 . S
C3426 H3412 0.930 . S
C3426 C3424 1.395 . S
C3426 C3429 1.403 . S
C3427 C3424 1.403 . S
C3427 C3428 1.524 . S
C3427 C3431 1.400 . S
C3428 H3413 0.960 . S
C3428 H3414 0.960 . S
C3428 H3415 0.960 . S
C3428 C3427 1.524 . S
C3429 C3426 1.403 . S
C3429 C3430 1.392 . S
C3429 C3433 1.495 . S
C3430 C3429 1.392 . S
C3430 C3431 1.385 . S
C3430 C3432 1.478 . S
C3431 H3425 0.930 . S
C3431 C3427 1.400 . S
C3431 C3430 1.385 . S
C3432 C3430 1.478 . S
C3432 C3434 1.381 . S
C3432 C3438 1.383 . S
C3433 C3429 1.495 . S
C3433 H3439 0.959 . S
C3433 H3440 0.961 . S
C3433 H3441 0.960 . S
C3434 C3432 1.381 . S
C3434 C3435 1.394 . S
C3434 H3442 0.930 . S
C3435 C3434 1.394 . S
C3435 C3436 1.383 . S
C3435 H3443 0.929 . S
C3436 C3435 1.383 . S
C3436 C3437 1.377 . S
C3437 H3421 0.930 . S
C3437 C3436 1.377 . S
C3437 C3438 1.379 . S
C3438 H3422 0.931 . S
C3438 C3432 1.383 . S
C3438 C3437 1.379 . S
H3439 C3433 0.959 . S
H3440 C3433 0.961 . S
H3441 C3433 0.960 . S
H3442 C3434 0.930 . S
H3443 C3435 0.929 . S
H3444 C3452 0.929 . S
H3445 C3454 0.930 . S
H3446 C3456 0.930 . S
H3447 C3459 0.929 . S
H3448 C3462 0.930 . S
H3449 C3464 0.960 . S
H3450 C3464 0.960 . S
H3451 C3464 0.960 . S
C3452 H3444 0.929 . S
C3452 C3453 1.377 . S
C3452 C3454 1.384 . S
C3453 C3452 1.377 . S
C3453 C3459 1.390 . S
C3454 H3445 0.930 . S
C3454 C3452 1.384 . S
C3454 C3455 1.372 . S
C3455 C3454 1.372 . S
C3455 C3456 1.400 . S
C3455 C3460 1.490 . S
C3456 H3446 0.930 . S
C3456 C3455 1.400 . S
C3456 C3459 1.386 . S
H3457 C3473 0.930 . S
H3458 C3474 0.931 . S
C3459 H3447 0.929 . S
C3459 C3453 1.390 . S
C3459 C3456 1.386 . S
C3460 C3455 1.490 . S
C3460 C3462 1.395 . S
C3460 C3463 1.403 . S
H3461 C3467 0.930 . S
C3462 H3448 0.930 . S
C3462 C3460 1.395 . S
C3462 C3465 1.403 . S
C3463 C3460 1.403 . S
C3463 C3464 1.524 . S
C3463 C3467 1.400 . S
C3464 H3449 0.960 . S
C3464 H3450 0.960 . S
C3464 H3451 0.960 . S
C3464 C3463 1.524 . S
C3465 C3462 1.403 . S
C3465 C3466 1.392 . S
C3465 C3469 1.495 . S
C3466 C3465 1.392 . S
C3466 C3467 1.385 . S
C3466 C3468 1.478 . S
C3467 H3461 0.930 . S
C3467 C3463 1.400 . S
C3467 C3466 1.385 . S
C3468 C3466 1.478 . S
C3468 C3470 1.381 . S
C3468 C3474 1.383 . S
C3469 C3465 1.495 . S
C3469 H3475 0.959 . S
C3469 H3476 0.961 . S
C3469 H3477 0.960 . S
C3470 C3468 1.381 . S
C3470 C3471 1.394 . S
C3470 H3478 0.930 . S
C3471 C3470 1.394 . S
C3471 C3472 1.383 . S
C3471 H3479 0.929 . S
C3472 C3471 1.383 . S
C3472 C3473 1.377 . S
C3473 H3457 0.930 . S
C3473 C3472 1.377 . S
C3473 C3474 1.379 . S
C3474 H3458 0.931 . S
C3474 C3468 1.383 . S
C3474 C3473 1.379 . S
H3475 C3469 0.959 . S
H3476 C3469 0.961 . S
H3477 C3469 0.960 . S
H3478 C3470 0.930 . S
H3479 C3471 0.929 . S
H3480 C3488 0.929 . S
H3481 C3490 0.930 . S
H3482 C3492 0.930 . S
H3483 C3495 0.929 . S
H3484 C3498 0.930 . S
H3485 C3500 0.960 . S
H3486 C3500 0.960 . S
H3487 C3500 0.960 . S
C3488 H3480 0.929 . S
C3488 C3489 1.377 . S
C3488 C3490 1.384 . S
C3489 C3488 1.377 . S
C3489 C3495 1.390 . S
C3490 H3481 0.930 . S
C3490 C3488 1.384 . S
C3490 C3491 1.372 . S
C3491 C3490 1.372 . S
C3491 C3492 1.400 . S
C3491 C3496 1.490 . S
C3492 H3482 0.930 . S
C3492 C3491 1.400 . S
C3492 C3495 1.386 . S
H3493 C3509 0.930 . S
H3494 C3510 0.931 . S
C3495 H3483 0.929 . S
C3495 C3489 1.390 . S
C3495 C3492 1.386 . S
C3496 C3491 1.490 . S
C3496 C3498 1.395 . S
C3496 C3499 1.403 . S
H3497 C3503 0.930 . S
C3498 H3484 0.930 . S
C3498 C3496 1.395 . S
C3498 C3501 1.403 . S
C3499 C3496 1.403 . S
C3499 C3500 1.524 . S
C3499 C3503 1.400 . S
C3500 H3485 0.960 . S
C3500 H3486 0.960 . S
C3500 H3487 0.960 . S
C3500 C3499 1.524 . S
C3501 C3498 1.403 . S
C3501 C3502 1.392 . S
C3501 C3505 1.495 . S
C3502 C3501 1.392 . S
C3502 C3503 1.385 . S
C3502 C3504 1.478 . S
C3503 H3497 0.930 . S
C3503 C3499 1.400 . S
C3503 C3502 1.385 . S
C3504 C3502 1.478 . S
C3504 C3506 1.381 . S
C3504 C3510 1.383 . S
C3505 C3501 1.495 . S
C3505 H3511 0.959 . S
C3505 H3512 0.961 . S
C3505 H3513 0.960 . S
C3506 C3504 1.381 . S
C3506 C3507 1.394 . S
C3506 H3514 0.930 . S
C3507 C3506 1.394 . S
C3507 C3508 1.383 . S
C3507 H3515 0.929 . S
C3508 C3507 1.383 . S
C3508 C3509 1.377 . S
C3509 H3493 0.930 . S
C3509 C3508 1.377 . S
C3509 C3510 1.379 . S
C3510 H3494 0.931 . S
C3510 C3504 1.383 . S
C3510 C3509 1.379 . S
H3511 C3505 0.959 . S
H3512 C3505 0.961 . S
H3513 C3505 0.960 . S
H3514 C3506 0.930 . S
H3515 C3507 0.929 . S
H3516 C3524 0.929 . S
H3517 C3526 0.930 . S
H3518 C3528 0.930 . S
H3519 C3531 0.929 . S
H3520 C3534 0.930 . S
H3521 C3536 0.960 . S
H3522 C3536 0.960 . S
H3523 C3536 0.960 . S
C3524 H3516 0.929 . S
C3524 C3525 1.377 . S
C3524 C3526 1.384 . S
C3525 C3524 1.377 . S
C3525 C3531 1.390 . S
C3526 H3517 0.930 . S
C3526 C3524 1.384 . S
C3526 C3527 1.372 . S
C3527 C3526 1.372 . S
C3527 C3528 1.400 . S
C3527 C3532 1.490 . S
C3528 H3518 0.930 . S
C3528 C3527 1.400 . S
C3528 C3531 1.386 . S
H3529 C3545 0.930 . S
H3530 C3546 0.931 . S
C3531 H3519 0.929 . S
C3531 C3525 1.390 . S
C3531 C3528 1.386 . S
C3532 C3527 1.490 . S
C3532 C3534 1.395 . S
C3532 C3535 1.403 . S
H3533 C3539 0.930 . S
C3534 H3520 0.930 . S
C3534 C3532 1.395 . S
C3534 C3537 1.403 . S
C3535 C3532 1.403 . S
C3535 C3536 1.524 . S
C3535 C3539 1.400 . S
C3536 H3521 0.960 . S
C3536 H3522 0.960 . S
C3536 H3523 0.960 . S
C3536 C3535 1.524 . S
C3537 C3534 1.403 . S
C3537 C3538 1.392 . S
C3537 C3541 1.495 . S
C3538 C3537 1.392 . S
C3538 C3539 1.385 . S
C3538 C3540 1.478 . S
C3539 H3533 0.930 . S
C3539 C3535 1.400 . S
C3539 C3538 1.385 . S
C3540 C3538 1.478 . S
C3540 C3542 1.381 . S
C3540 C3546 1.383 . S
C3541 C3537 1.495 . S
C3541 H3547 0.959 . S
C3541 H3548 0.961 . S
C3541 H3549 0.960 . S
C3542 C3540 1.381 . S
C3542 C3543 1.394 . S
C3542 H3550 0.930 . S
C3543 C3542 1.394 . S
C3543 C3544 1.383 . S
C3543 H3551 0.929 . S
C3544 C3543 1.383 . S
C3544 C3545 1.377 . S
C3545 H3529 0.930 . S
C3545 C3544 1.377 . S
C3545 C3546 1.379 . S
C3546 H3530 0.931 . S
C3546 C3540 1.383 . S
C3546 C3545 1.379 . S
H3547 C3541 0.959 . S
H3548 C3541 0.961 . S
H3549 C3541 0.960 . S
H3550 C3542 0.930 . S
H3551 C3543 0.929 . S
H3552 C3560 0.929 . S
H3553 C3562 0.930 . S
H3554 C3564 0.930 . S
H3555 C3567 0.929 . S
H3556 C3570 0.930 . S
H3557 C3572 0.960 . S
H3558 C3572 0.960 . S
H3559 C3572 0.960 . S
C3560 H3552 0.929 . S
C3560 C3561 1.377 . S
C3560 C3562 1.384 . S
C3561 C3560 1.377 . S
C3561 C3567 1.390 . S
C3562 H3553 0.930 . S
C3562 C3560 1.384 . S
C3562 C3563 1.372 . S
C3563 C3562 1.372 . S
C3563 C3564 1.400 . S
C3563 C3568 1.490 . S
C3564 H3554 0.930 . S
C3564 C3563 1.400 . S
C3564 C3567 1.386 . S
H3565 C3581 0.930 . S
H3566 C3582 0.931 . S
C3567 H3555 0.929 . S
C3567 C3561 1.390 . S
C3567 C3564 1.386 . S
C3568 C3563 1.490 . S
C3568 C3570 1.395 . S
C3568 C3571 1.403 . S
H3569 C3575 0.930 . S
C3570 H3556 0.930 . S
C3570 C3568 1.395 . S
C3570 C3573 1.403 . S
C3571 C3568 1.403 . S
C3571 C3572 1.524 . S
C3571 C3575 1.400 . S
C3572 H3557 0.960 . S
C3572 H3558 0.960 . S
C3572 H3559 0.960 . S
C3572 C3571 1.524 . S
C3573 C3570 1.403 . S
C3573 C3574 1.392 . S
C3573 C3577 1.495 . S
C3574 C3573 1.392 . S
C3574 C3575 1.385 . S
C3574 C3576 1.478 . S
C3575 H3569 0.930 . S
C3575 C3571 1.400 . S
C3575 C3574 1.385 . S
C3576 C3574 1.478 . S
C3576 C3578 1.381 . S
C3576 C3582 1.383 . S
C3577 C3573 1.495 . S
C3577 H3583 0.959 . S
C3577 H3584 0.961 . S
C3577 H3585 0.960 . S
C3578 C3576 1.381 . S
C3578 C3579 1.394 . S
C3578 H3586 0.930 . S
C3579 C3578 1.394 . S
C3579 C3580 1.383 . S
C3579 H3587 0.929 . S
C3580 C3579 1.383 . S
C3580 C3581 1.377 . S
C3581 H3565 0.930 . S
C3581 C3580 1.377 . S
C3581 C3582 1.379 . S
C3582 H3566 0.931 . S
C3582 C3576 1.383 . S
C3582 C3581 1.379 . S
H3583 C3577 0.959 . S
H3584 C3577 0.961 . S
H3585 C3577 0.960 . S
H3586 C3578 0.930 . S
H3587 C3579 0.929 . S
H3588 C3596 0.929 . S
H3589 C3598 0.930 . S
H3590 C3600 0.930 . S
H3591 C3603 0.929 . S
H3592 C3606 0.930 . S
H3593 C3608 0.960 . S
H3594 C3608 0.960 . S
H3595 C3608 0.960 . S
C3596 H3588 0.929 . S
C3596 C3597 1.377 . S
C3596 C3598 1.384 . S
C3597 C3596 1.377 . S
C3597 C3603 1.390 . S
C3598 H3589 0.930 . S
C3598 C3596 1.384 . S
C3598 C3599 1.372 . S
C3599 C3598 1.372 . S
C3599 C3600 1.400 . S
C3599 C3604 1.490 . S
C3600 H3590 0.930 . S
C3600 C3599 1.400 . S
C3600 C3603 1.386 . S
H3601 C3617 0.930 . S
H3602 C3618 0.931 . S
C3603 H3591 0.929 . S
C3603 C3597 1.390 . S
C3603 C3600 1.386 . S
C3604 C3599 1.490 . S
C3604 C3606 1.395 . S
C3604 C3607 1.403 . S
H3605 C3611 0.930 . S
C3606 H3592 0.930 . S
C3606 C3604 1.395 . S
C3606 C3609 1.403 . S
C3607 C3604 1.403 . S
C3607 C3608 1.524 . S
C3607 C3611 1.400 . S
C3608 H3593 0.960 . S
C3608 H3594 0.960 . S
C3608 H3595 0.960 . S
C3608 C3607 1.524 . S
C3609 C3606 1.403 . S
C3609 C3610 1.392 . S
C3609 C3613 1.495 . S
C3610 C3609 1.392 . S
C3610 C3611 1.385 . S
C3610 C3612 1.478 . S
C3611 H3605 0.930 . S
C3611 C3607 1.400 . S
C3611 C3610 1.385 . S
C3612 C3610 1.478 . S
C3612 C3614 1.381 . S
C3612 C3618 1.383 . S
C3613 C3609 1.495 . S
C3613 H3619 0.959 . S
C3613 H3620 0.961 . S
C3613 H3621 0.960 . S
C3614 C3612 1.381 . S
C3614 C3615 1.394 . S
C3614 H3622 0.930 . S
C3615 C3614 1.394 . S
C3615 C3616 1.383 . S
C3615 H3623 0.929 . S
C3616 C3615 1.383 . S
C3616 C3617 1.377 . S
C3617 H3601 0.930 . S
C3617 C3616 1.377 . S
C3617 C3618 1.379 . S
C3618 H3602 0.931 . S
C3618 C3612 1.383 . S
C3618 C3617 1.379 . S
H3619 C3613 0.959 . S
H3620 C3613 0.961 . S
H3621 C3613 0.960 . S
H3622 C3614 0.930 . S
H3623 C3615 0.929 . S
H3624 C3632 0.929 . S
H3625 C3634 0.930 . S
H3626 C3636 0.930 . S
H3627 C3639 0.929 . S
H3628 C3642 0.930 . S
H3629 C3644 0.960 . S
H3630 C3644 0.960 . S
H3631 C3644 0.960 . S
C3632 H3624 0.929 . S
C3632 C3633 1.377 . S
C3632 C3634 1.384 . S
C3633 C3632 1.377 . S
C3633 C3639 1.390 . S
C3634 H3625 0.930 . S
C3634 C3632 1.384 . S
C3634 C3635 1.372 . S
C3635 C3634 1.372 . S
C3635 C3636 1.400 . S
C3635 C3640 1.490 . S
C3636 H3626 0.930 . S
C3636 C3635 1.400 . S
C3636 C3639 1.386 . S
H3637 C3653 0.930 . S
H3638 C3654 0.931 . S
C3639 H3627 0.929 . S
C3639 C3633 1.390 . S
C3639 C3636 1.386 . S
C3640 C3635 1.490 . S
C3640 C3642 1.395 . S
C3640 C3643 1.403 . S
H3641 C3647 0.930 . S
C3642 H3628 0.930 . S
C3642 C3640 1.395 . S
C3642 C3645 1.403 . S
C3643 C3640 1.403 . S
C3643 C3644 1.524 . S
C3643 C3647 1.400 . S
C3644 H3629 0.960 . S
C3644 H3630 0.960 . S
C3644 H3631 0.960 . S
C3644 C3643 1.524 . S
C3645 C3642 1.403 . S
C3645 C3646 1.392 . S
C3645 C3649 1.495 . S
C3646 C3645 1.392 . S
C3646 C3647 1.385 . S
C3646 C3648 1.478 . S
C3647 H3641 0.930 . S
C3647 C3643 1.400 . S
C3647 C3646 1.385 . S
C3648 C3646 1.478 . S
C3648 C3650 1.381 . S
C3648 C3654 1.383 . S
C3649 C3645 1.495 . S
C3649 H3655 0.959 . S
C3649 H3656 0.961 . S
C3649 H3657 0.960 . S
C3650 C3648 1.381 . S
C3650 C3651 1.394 . S
C3650 H3658 0.930 . S
C3651 C3650 1.394 . S
C3651 C3652 1.383 . S
C3651 H3659 0.929 . S
C3652 C3651 1.383 . S
C3652 C3653 1.377 . S
C3653 H3637 0.930 . S
C3653 C3652 1.377 . S
C3653 C3654 1.379 . S
C3654 H3638 0.931 . S
C3654 C3648 1.383 . S
C3654 C3653 1.379 . S
H3655 C3649 0.959 . S
H3656 C3649 0.961 . S
H3657 C3649 0.960 . S
H3658 C3650 0.930 . S
H3659 C3651 0.929 . S
H3660 C3668 0.929 . S
H3661 C3670 0.930 . S
H3662 C3672 0.930 . S
H3663 C3675 0.929 . S
H3664 C3678 0.930 . S
H3665 C3680 0.960 . S
H3666 C3680 0.960 . S
H3667 C3680 0.960 . S
C3668 H3660 0.929 . S
C3668 C3669 1.377 . S
C3668 C3670 1.384 . S
C3669 C3668 1.377 . S
C3669 C3675 1.390 . S
C3670 H3661 0.930 . S
C3670 C3668 1.384 . S
C3670 C3671 1.372 . S
C3671 C3670 1.372 . S
C3671 C3672 1.400 . S
C3671 C3676 1.490 . S
C3672 H3662 0.930 . S
C3672 C3671 1.400 . S
C3672 C3675 1.386 . S
H3673 C3689 0.930 . S
H3674 C3690 0.931 . S
C3675 H3663 0.929 . S
C3675 C3669 1.390 . S
C3675 C3672 1.386 . S
C3676 C3671 1.490 . S
C3676 C3678 1.395 . S
C3676 C3679 1.403 . S
H3677 C3683 0.930 . S
C3678 H3664 0.930 . S
C3678 C3676 1.395 . S
C3678 C3681 1.403 . S
C3679 C3676 1.403 . S
C3679 C3680 1.524 . S
C3679 C3683 1.400 . S
C3680 H3665 0.960 . S
C3680 H3666 0.960 . S
C3680 H3667 0.960 . S
C3680 C3679 1.524 . S
C3681 C3678 1.403 . S
C3681 C3682 1.392 . S
C3681 C3685 1.495 . S
C3682 C3681 1.392 . S
C3682 C3683 1.385 . S
C3682 C3684 1.478 . S
C3683 H3677 0.930 . S
C3683 C3679 1.400 . S
C3683 C3682 1.385 . S
C3684 C3682 1.478 . S
C3684 C3686 1.381 . S
C3684 C3690 1.383 . S
C3685 C3681 1.495 . S
C3685 H3691 0.959 . S
C3685 H3692 0.961 . S
C3685 H3693 0.960 . S
C3686 C3684 1.381 . S
C3686 C3687 1.394 . S
C3686 H3694 0.930 . S
C3687 C3686 1.394 . S
C3687 C3688 1.383 . S
C3687 H3695 0.929 . S
C3688 C3687 1.383 . S
C3688 C3689 1.377 . S
C3689 H3673 0.930 . S
C3689 C3688 1.377 . S
C3689 C3690 1.379 . S
C3690 H3674 0.931 . S
C3690 C3684 1.383 . S
C3690 C3689 1.379 . S
H3691 C3685 0.959 . S
H3692 C3685 0.961 . S
H3693 C3685 0.960 . S
H3694 C3686 0.930 . S
H3695 C3687 0.929 . S
H3696 C3704 0.929 . S
H3697 C3706 0.930 . S
H3698 C3708 0.930 . S
H3699 C3711 0.929 . S
H3700 C3714 0.930 . S
H3701 C3716 0.960 . S
H3702 C3716 0.960 . S
H3703 C3716 0.960 . S
C3704 H3696 0.929 . S
C3704 C3705 1.377 . S
C3704 C3706 1.384 . S
C3705 C3704 1.377 . S
C3705 C3711 1.390 . S
C3706 H3697 0.930 . S
C3706 C3704 1.384 . S
C3706 C3707 1.372 . S
C3707 C3706 1.372 . S
C3707 C3708 1.400 . S
C3707 C3712 1.490 . S
C3708 H3698 0.930 . S
C3708 C3707 1.400 . S
C3708 C3711 1.386 . S
H3709 C3725 0.930 . S
H3710 C3726 0.931 . S
C3711 H3699 0.929 . S
C3711 C3705 1.390 . S
C3711 C3708 1.386 . S
C3712 C3707 1.490 . S
C3712 C3714 1.395 . S
C3712 C3715 1.403 . S
H3713 C3719 0.930 . S
C3714 H3700 0.930 . S
C3714 C3712 1.395 . S
C3714 C3717 1.403 . S
C3715 C3712 1.403 . S
C3715 C3716 1.524 . S
C3715 C3719 1.400 . S
C3716 H3701 0.960 . S
C3716 H3702 0.960 . S
C3716 H3703 0.960 . S
C3716 C3715 1.524 . S
C3717 C3714 1.403 . S
C3717 C3718 1.392 . S
C3717 C3721 1.495 . S
C3718 C3717 1.392 . S
C3718 C3719 1.385 . S
C3718 C3720 1.478 . S
C3719 H3713 0.930 . S
C3719 C3715 1.400 . S
C3719 C3718 1.385 . S
C3720 C3718 1.478 . S
C3720 C3722 1.381 . S
C3720 C3726 1.383 . S
C3721 C3717 1.495 . S
C3721 H3727 0.959 . S
C3721 H3728 0.961 . S
C3721 H3729 0.960 . S
C3722 C3720 1.381 . S
C3722 C3723 1.394 . S
C3722 H3730 0.930 . S
C3723 C3722 1.394 . S
C3723 C3724 1.383 . S
C3723 H3731 0.929 . S
C3724 C3723 1.383 . S
C3724 C3725 1.377 . S
C3725 H3709 0.930 . S
C3725 C3724 1.377 . S
C3725 C3726 1.379 . S
C3726 H3710 0.931 . S
C3726 C3720 1.383 . S
C3726 C3725 1.379 . S
H3727 C3721 0.959 . S
H3728 C3721 0.961 . S
H3729 C3721 0.960 . S
H3730 C3722 0.930 . S
H3731 C3723 0.929 . S
H3732 C3740 0.929 . S
H3733 C3742 0.930 . S
H3734 C3744 0.930 . S
H3735 C3747 0.929 . S
H3736 C3750 0.930 . S
H3737 C3752 0.960 . S
H3738 C3752 0.960 . S
H3739 C3752 0.960 . S
C3740 H3732 0.929 . S
C3740 C3741 1.377 . S
C3740 C3742 1.384 . S
C3741 C3740 1.377 . S
C3741 C3747 1.390 . S
C3742 H3733 0.930 . S
C3742 C3740 1.384 . S
C3742 C3743 1.372 . S
C3743 C3742 1.372 . S
C3743 C3744 1.400 . S
C3743 C3748 1.490 . S
C3744 H3734 0.930 . S
C3744 C3743 1.400 . S
C3744 C3747 1.386 . S
H3745 C3761 0.930 . S
H3746 C3762 0.931 . S
C3747 H3735 0.929 . S
C3747 C3741 1.390 . S
C3747 C3744 1.386 . S
C3748 C3743 1.490 . S
C3748 C3750 1.395 . S
C3748 C3751 1.403 . S
H3749 C3755 0.930 . S
C3750 H3736 0.930 . S
C3750 C3748 1.395 . S
C3750 C3753 1.403 . S
C3751 C3748 1.403 . S
C3751 C3752 1.524 . S
C3751 C3755 1.400 . S
C3752 H3737 0.960 . S
C3752 H3738 0.960 . S
C3752 H3739 0.960 . S
C3752 C3751 1.524 . S
C3753 C3750 1.403 . S
C3753 C3754 1.392 . S
C3753 C3757 1.495 . S
C3754 C3753 1.392 . S
C3754 C3755 1.385 . S
C3754 C3756 1.478 . S
C3755 H3749 0.930 . S
C3755 C3751 1.400 . S
C3755 C3754 1.385 . S
C3756 C3754 1.478 . S
C3756 C3758 1.381 . S
C3756 C3762 1.383 . S
C3757 C3753 1.495 . S
C3757 H3763 0.959 . S
C3757 H3764 0.961 . S
C3757 H3765 0.960 . S
C3758 C3756 1.381 . S
C3758 C3759 1.394 . S
C3758 H3766 0.930 . S
C3759 C3758 1.394 . S
C3759 C3760 1.383 . S
C3759 H3767 0.929 . S
C3760 C3759 1.383 . S
C3760 C3761 1.377 . S
C3761 H3745 0.930 . S
C3761 C3760 1.377 . S
C3761 C3762 1.379 . S
C3762 H3746 0.931 . S
C3762 C3756 1.383 . S
C3762 C3761 1.379 . S
H3763 C3757 0.959 . S
H3764 C3757 0.961 . S
H3765 C3757 0.960 . S
H3766 C3758 0.930 . S
H3767 C3759 0.929 . S
H3768 C3776 0.929 . S
H3769 C3778 0.930 . S
H3770 C3780 0.930 . S
H3771 C3783 0.929 . S
H3772 C3786 0.930 . S
H3773 C3788 0.960 . S
H3774 C3788 0.960 . S
H3775 C3788 0.960 . S
C3776 H3768 0.929 . S
C3776 C3777 1.377 . S
C3776 C3778 1.384 . S
C3777 C3776 1.377 . S
C3777 C3783 1.390 . S
C3778 H3769 0.930 . S
C3778 C3776 1.384 . S
C3778 C3779 1.372 . S
C3779 C3778 1.372 . S
C3779 C3780 1.400 . S
C3779 C3784 1.490 . S
C3780 H3770 0.930 . S
C3780 C3779 1.400 . S
C3780 C3783 1.386 . S
H3781 C3797 0.930 . S
H3782 C3798 0.931 . S
C3783 H3771 0.929 . S
C3783 C3777 1.390 . S
C3783 C3780 1.386 . S
C3784 C3779 1.490 . S
C3784 C3786 1.395 . S
C3784 C3787 1.403 . S
H3785 C3791 0.930 . S
C3786 H3772 0.930 . S
C3786 C3784 1.395 . S
C3786 C3789 1.403 . S
C3787 C3784 1.403 . S
C3787 C3788 1.524 . S
C3787 C3791 1.400 . S
C3788 H3773 0.960 . S
C3788 H3774 0.960 . S
C3788 H3775 0.960 . S
C3788 C3787 1.524 . S
C3789 C3786 1.403 . S
C3789 C3790 1.392 . S
C3789 C3793 1.495 . S
C3790 C3789 1.392 . S
C3790 C3791 1.385 . S
C3790 C3792 1.478 . S
C3791 H3785 0.930 . S
C3791 C3787 1.400 . S
C3791 C3790 1.385 . S
C3792 C3790 1.478 . S
C3792 C3794 1.381 . S
C3792 C3798 1.383 . S
C3793 C3789 1.495 . S
C3793 H3799 0.959 . S
C3793 H3800 0.961 . S
C3793 H3801 0.960 . S
C3794 C3792 1.381 . S
C3794 C3795 1.394 . S
C3794 H3802 0.930 . S
C3795 C3794 1.394 . S
C3795 C3796 1.383 . S
C3795 H3803 0.929 . S
C3796 C3795 1.383 . S
C3796 C3797 1.377 . S
C3797 H3781 0.930 . S
C3797 C3796 1.377 . S
C3797 C3798 1.379 . S
C3798 H3782 0.931 . S
C3798 C3792 1.383 . S
C3798 C3797 1.379 . S
H3799 C3793 0.959 . S
H3800 C3793 0.961 . S
H3801 C3793 0.960 . S
H3802 C3794 0.930 . S
H3803 C3795 0.929 . S
H3804 C3812 0.929 . S
H3805 C3814 0.930 . S
H3806 C3816 0.930 . S
H3807 C3819 0.929 . S
H3808 C3822 0.930 . S
H3809 C3824 0.960 . S
H3810 C3824 0.960 . S
H3811 C3824 0.960 . S
C3812 H3804 0.929 . S
C3812 C3813 1.377 . S
C3812 C3814 1.384 . S
C3813 C3812 1.377 . S
C3813 C3819 1.390 . S
C3814 H3805 0.930 . S
C3814 C3812 1.384 . S
C3814 C3815 1.372 . S
C3815 C3814 1.372 . S
C3815 C3816 1.400 . S
C3815 C3820 1.490 . S
C3816 H3806 0.930 . S
C3816 C3815 1.400 . S
C3816 C3819 1.386 . S
H3817 C3833 0.930 . S
H3818 C3834 0.931 . S
C3819 H3807 0.929 . S
C3819 C3813 1.390 . S
C3819 C3816 1.386 . S
C3820 C3815 1.490 . S
C3820 C3822 1.395 . S
C3820 C3823 1.403 . S
H3821 C3827 0.930 . S
C3822 H3808 0.930 . S
C3822 C3820 1.395 . S
C3822 C3825 1.403 . S
C3823 C3820 1.403 . S
C3823 C3824 1.524 . S
C3823 C3827 1.400 . S
C3824 H3809 0.960 . S
C3824 H3810 0.960 . S
C3824 H3811 0.960 . S
C3824 C3823 1.524 . S
C3825 C3822 1.403 . S
C3825 C3826 1.392 . S
C3825 C3829 1.495 . S
C3826 C3825 1.392 . S
C3826 C3827 1.385 . S
C3826 C3828 1.478 . S
C3827 H3821 0.930 . S
C3827 C3823 1.400 . S
C3827 C3826 1.385 . S
C3828 C3826 1.478 . S
C3828 C3830 1.381 . S
C3828 C3834 1.383 . S
C3829 C3825 1.495 . S
C3829 H3835 0.959 . S
C3829 H3836 0.961 . S
C3829 H3837 0.960 . S
C3830 C3828 1.381 . S
C3830 C3831 1.394 . S
C3830 H3838 0.930 . S
C3831 C3830 1.394 . S
C3831 C3832 1.383 . S
C3831 H3839 0.929 . S
C3832 C3831 1.383 . S
C3832 C3833 1.377 . S
C3833 H3817 0.930 . S
C3833 C3832 1.377 . S
C3833 C3834 1.379 . S
C3834 H3818 0.931 . S
C3834 C3828 1.383 . S
C3834 C3833 1.379 . S
H3835 C3829 0.959 . S
H3836 C3829 0.961 . S
H3837 C3829 0.960 . S
H3838 C3830 0.930 . S
H3839 C3831 0.929 . S
H3840 C3848 0.929 . S
H3841 C3850 0.930 . S
H3842 C3852 0.930 . S
H3843 C3855 0.929 . S
H3844 C3858 0.930 . S
H3845 C3860 0.960 . S
H3846 C3860 0.960 . S
H3847 C3860 0.960 . S
C3848 H3840 0.929 . S
C3848 C3849 1.377 . S
C3848 C3850 1.384 . S
C3849 C3848 1.377 . S
C3849 C3855 1.390 . S
C3850 H3841 0.930 . S
C3850 C3848 1.384 . S
C3850 C3851 1.372 . S
C3851 C3850 1.372 . S
C3851 C3852 1.400 . S
C3851 C3856 1.490 . S
C3852 H3842 0.930 . S
C3852 C3851 1.400 . S
C3852 C3855 1.386 . S
H3853 C3869 0.930 . S
H3854 C3870 0.931 . S
C3855 H3843 0.929 . S
C3855 C3849 1.390 . S
C3855 C3852 1.386 . S
C3856 C3851 1.490 . S
C3856 C3858 1.395 . S
C3856 C3859 1.403 . S
H3857 C3863 0.930 . S
C3858 H3844 0.930 . S
C3858 C3856 1.395 . S
C3858 C3861 1.403 . S
C3859 C3856 1.403 . S
C3859 C3860 1.524 . S
C3859 C3863 1.400 . S
C3860 H3845 0.960 . S
C3860 H3846 0.960 . S
C3860 H3847 0.960 . S
C3860 C3859 1.524 . S
C3861 C3858 1.403 . S
C3861 C3862 1.392 . S
C3861 C3865 1.495 . S
C3862 C3861 1.392 . S
C3862 C3863 1.385 . S
C3862 C3864 1.478 . S
C3863 H3857 0.930 . S
C3863 C3859 1.400 . S
C3863 C3862 1.385 . S
C3864 C3862 1.478 . S
C3864 C3866 1.381 . S
C3864 C3870 1.383 . S
C3865 C3861 1.495 . S
C3865 H3871 0.959 . S
C3865 H3872 0.961 . S
C3865 H3873 0.960 . S
C3866 C3864 1.381 . S
C3866 C3867 1.394 . S
C3866 H3874 0.930 . S
C3867 C3866 1.394 . S
C3867 C3868 1.383 . S
C3867 H3875 0.929 . S
C3868 C3867 1.383 . S
C3868 C3869 1.377 . S
C3869 H3853 0.930 . S
C3869 C3868 1.377 . S
C3869 C3870 1.379 . S
C3870 H3854 0.931 . S
C3870 C3864 1.383 . S
C3870 C3869 1.379 . S
H3871 C3865 0.959 . S
H3872 C3865 0.961 . S
H3873 C3865 0.960 . S
H3874 C3866 0.930 . S
H3875 C3867 0.929 . S
H3876 C3884 0.929 . S
H3877 C3886 0.930 . S
H3878 C3888 0.930 . S
H3879 C3891 0.929 . S
H3880 C3894 0.930 . S
H3881 C3896 0.960 . S
H3882 C3896 0.960 . S
H3883 C3896 0.960 . S
C3884 H3876 0.929 . S
C3884 C3885 1.377 . S
C3884 C3886 1.384 . S
C3885 C3884 1.377 . S
C3885 C3891 1.390 . S
C3886 H3877 0.930 . S
C3886 C3884 1.384 . S
C3886 C3887 1.372 . S
C3887 C3886 1.372 . S
C3887 C3888 1.400 . S
C3887 C3892 1.490 . S
C3888 H3878 0.930 . S
C3888 C3887 1.400 . S
C3888 C3891 1.386 . S
H3889 C3905 0.930 . S
H3890 C3906 0.931 . S
C3891 H3879 0.929 . S
C3891 C3885 1.390 . S
C3891 C3888 1.386 . S
C3892 C3887 1.490 . S
C3892 C3894 1.395 . S
C3892 C3895 1.403 . S
H3893 C3899 0.930 . S
C3894 H3880 0.930 . S
C3894 C3892 1.395 . S
C3894 C3897 1.403 . S
C3895 C3892 1.403 . S
C3895 C3896 1.524 . S
C3895 C3899 1.400 . S
C3896 H3881 0.960 . S
C3896 H3882 0.960 . S
C3896 H3883 0.960 . S
C3896 C3895 1.524 . S
C3897 C3894 1.403 . S
C3897 C3898 1.392 . S
C3897 C3901 1.495 . S
C3898 C3897 1.392 . S
C3898 C3899 1.385 . S
C3898 C3900 1.478 . S
C3899 H3893 0.930 . S
C3899 C3895 1.400 . S
C3899 C3898 1.385 . S
C3900 C3898 1.478 . S
C3900 C3902 1.381 . S
C3900 C3906 1.383 . S
C3901 C3897 1.495 . S
C3901 H3907 0.959 . S
C3901 H3908 0.961 . S
C3901 H3909 0.960 . S
C3902 C3900 1.381 . S
C3902 C3903 1.394 . S
C3902 H3910 0.930 . S
C3903 C3902 1.394 . S
C3903 C3904 1.383 . S
C3903 H3911 0.929 . S
C3904 C3903 1.383 . S
C3904 C3905 1.377 . S
C3905 H3889 0.930 . S
C3905 C3904 1.377 . S
C3905 C3906 1.379 . S
C3906 H3890 0.931 . S
C3906 C3900 1.383 . S
C3906 C3905 1.379 . S
H3907 C3901 0.959 . S
H3908 C3901 0.961 . S
H3909 C3901 0.960 . S
H3910 C3902 0.930 . S
H3911 C3903 0.929 . S
H3912 C3920 0.929 . S
H3913 C3922 0.930 . S
H3914 C3924 0.930 . S
H3915 C3927 0.929 . S
H3916 C3930 0.930 . S
H3917 C3932 0.960 . S
H3918 C3932 0.960 . S
H3919 C3932 0.960 . S
C3920 H3912 0.929 . S
C3920 C3921 1.377 . S
C3920 C3922 1.384 . S
C3921 C3920 1.377 . S
C3921 C3927 1.390 . S
C3922 H3913 0.930 . S
C3922 C3920 1.384 . S
C3922 C3923 1.372 . S
C3923 C3922 1.372 . S
C3923 C3924 1.400 . S
C3923 C3928 1.490 . S
C3924 H3914 0.930 . S
C3924 C3923 1.400 . S
C3924 C3927 1.386 . S
H3925 C3941 0.930 . S
H3926 C3942 0.931 . S
C3927 H3915 0.929 . S
C3927 C3921 1.390 . S
C3927 C3924 1.386 . S
C3928 C3923 1.490 . S
C3928 C3930 1.395 . S
C3928 C3931 1.403 . S
H3929 C3935 0.930 . S
C3930 H3916 0.930 . S
C3930 C3928 1.395 . S
C3930 C3933 1.403 . S
C3931 C3928 1.403 . S
C3931 C3932 1.524 . S
C3931 C3935 1.400 . S
C3932 H3917 0.960 . S
C3932 H3918 0.960 . S
C3932 H3919 0.960 . S
C3932 C3931 1.524 . S
C3933 C3930 1.403 . S
C3933 C3934 1.392 . S
C3933 C3937 1.495 . S
C3934 C3933 1.392 . S
C3934 C3935 1.385 . S
C3934 C3936 1.478 . S
C3935 H3929 0.930 . S
C3935 C3931 1.400 . S
C3935 C3934 1.385 . S
C3936 C3934 1.478 . S
C3936 C3938 1.381 . S
C3936 C3942 1.383 . S
C3937 C3933 1.495 . S
C3937 H3943 0.959 . S
C3937 H3944 0.961 . S
C3937 H3945 0.960 . S
C3938 C3936 1.381 . S
C3938 C3939 1.394 . S
C3938 H3946 0.930 . S
C3939 C3938 1.394 . S
C3939 C3940 1.383 . S
C3939 H3947 0.929 . S
C3940 C3939 1.383 . S
C3940 C3941 1.377 . S
C3941 H3925 0.930 . S
C3941 C3940 1.377 . S
C3941 C3942 1.379 . S
C3942 H3926 0.931 . S
C3942 C3936 1.383 . S
C3942 C3941 1.379 . S
H3943 C3937 0.959 . S
H3944 C3937 0.961 . S
H3945 C3937 0.960 . S
H3946 C3938 0.930 . S
H3947 C3939 0.929 . S
H3948 C3956 0.929 . S
H3949 C3958 0.930 . S
H3950 C3960 0.930 . S
H3951 C3963 0.929 . S
H3952 C3966 0.930 . S
H3953 C3968 0.960 . S
H3954 C3968 0.960 . S
H3955 C3968 0.960 . S
C3956 H3948 0.929 . S
C3956 C3957 1.377 . S
C3956 C3958 1.384 . S
C3957 C3956 1.377 . S
C3957 C3963 1.390 . S
C3958 H3949 0.930 . S
C3958 C3956 1.384 . S
C3958 C3959 1.372 . S
C3959 C3958 1.372 . S
C3959 C3960 1.400 . S
C3959 C3964 1.490 . S
C3960 H3950 0.930 . S
C3960 C3959 1.400 . S
C3960 C3963 1.386 . S
H3961 C3977 0.930 . S
H3962 C3978 0.931 . S
C3963 H3951 0.929 . S
C3963 C3957 1.390 . S
C3963 C3960 1.386 . S
C3964 C3959 1.490 . S
C3964 C3966 1.395 . S
C3964 C3967 1.403 . S
H3965 C3971 0.930 . S
C3966 H3952 0.930 . S
C3966 C3964 1.395 . S
C3966 C3969 1.403 . S
C3967 C3964 1.403 . S
C3967 C3968 1.524 . S
C3967 C3971 1.400 . S
C3968 H3953 0.960 . S
C3968 H3954 0.960 . S
C3968 H3955 0.960 . S
C3968 C3967 1.524 . S
C3969 C3966 1.403 . S
C3969 C3970 1.392 . S
C3969 C3973 1.495 . S
C3970 C3969 1.392 . S
C3970 C3971 1.385 . S
C3970 C3972 1.478 . S
C3971 H3965 0.930 . S
C3971 C3967 1.400 . S
C3971 C3970 1.385 . S
C3972 C3970 1.478 . S
C3972 C3974 1.381 . S
C3972 C3978 1.383 . S
C3973 C3969 1.495 . S
C3973 H3979 0.959 . S
C3973 H3980 0.961 . S
C3973 H3981 0.960 . S
C3974 C3972 1.381 . S
C3974 C3975 1.394 . S
C3974 H3982 0.930 . S
C3975 C3974 1.394 . S
C3975 C3976 1.383 . S
C3975 H3983 0.929 . S
C3976 C3975 1.383 . S
C3976 C3977 1.377 . S
C3977 H3961 0.930 . S
C3977 C3976 1.377 . S
C3977 C3978 1.379 . S
C3978 H3962 0.931 . S
C3978 C3972 1.383 . S
C3978 C3977 1.379 . S
H3979 C3973 0.959 . S
H3980 C3973 0.961 . S
H3981 C3973 0.960 . S
H3982 C3974 0.930 . S
H3983 C3975 0.929 . S
H3984 C3992 0.929 . S
H3985 C3994 0.930 . S
H3986 C3996 0.930 . S
H3987 C3999 0.929 . S
H3988 C4002 0.930 . S
H3989 C4004 0.960 . S
H3990 C4004 0.960 . S
H3991 C4004 0.960 . S
C3992 H3984 0.929 . S
C3992 C3993 1.377 . S
C3992 C3994 1.384 . S
C3993 C3992 1.377 . S
C3993 C3999 1.390 . S
C3994 H3985 0.930 . S
C3994 C3992 1.384 . S
C3994 C3995 1.372 . S
C3995 C3994 1.372 . S
C3995 C3996 1.400 . S
C3995 C4000 1.490 . S
C3996 H3986 0.930 . S
C3996 C3995 1.400 . S
C3996 C3999 1.386 . S
H3997 C4013 0.930 . S
H3998 C4014 0.931 . S
C3999 H3987 0.929 . S
C3999 C3993 1.390 . S
C3999 C3996 1.386 . S
C4000 C3995 1.490 . S
C4000 C4002 1.395 . S
C4000 C4003 1.403 . S
H4001 C4007 0.930 . S
C4002 H3988 0.930 . S
C4002 C4000 1.395 . S
C4002 C4005 1.403 . S
C4003 C4000 1.403 . S
C4003 C4004 1.524 . S
C4003 C4007 1.400 . S
C4004 H3989 0.960 . S
C4004 H3990 0.960 . S
C4004 H3991 0.960 . S
C4004 C4003 1.524 . S
C4005 C4002 1.403 . S
C4005 C4006 1.392 . S
C4005 C4009 1.495 . S
C4006 C4005 1.392 . S
C4006 C4007 1.385 . S
C4006 C4008 1.478 . S
C4007 H4001 0.930 . S
C4007 C4003 1.400 . S
C4007 C4006 1.385 . S
C4008 C4006 1.478 . S
C4008 C4010 1.381 . S
C4008 C4014 1.383 . S
C4009 C4005 1.495 . S
C4009 H4015 0.959 . S
C4009 H4016 0.961 . S
C4009 H4017 0.960 . S
C4010 C4008 1.381 . S
C4010 C4011 1.394 . S
C4010 H4018 0.930 . S
C4011 C4010 1.394 . S
C4011 C4012 1.383 . S
C4011 H4019 0.929 . S
C4012 C4011 1.383 . S
C4012 C4013 1.377 . S
C4013 H3997 0.930 . S
C4013 C4012 1.377 . S
C4013 C4014 1.379 . S
C4014 H3998 0.931 . S
C4014 C4008 1.383 . S
C4014 C4013 1.379 . S
H4015 C4009 0.959 . S
H4016 C4009 0.961 . S
H4017 C4009 0.960 . S
H4018 C4010 0.930 . S
H4019 C4011 0.929 . S
H4020 C4028 0.929 . S
H4021 C4030 0.930 . S
H4022 C4032 0.930 . S
H4023 C4035 0.929 . S
H4024 C4038 0.930 . S
H4025 C4040 0.960 . S
H4026 C4040 0.960 . S
H4027 C4040 0.960 . S
C4028 H4020 0.929 . S
C4028 C4029 1.377 . S
C4028 C4030 1.384 . S
C4029 C4028 1.377 . S
C4029 C4035 1.390 . S
C4030 H4021 0.930 . S
C4030 C4028 1.384 . S
C4030 C4031 1.372 . S
C4031 C4030 1.372 . S
C4031 C4032 1.400 . S
C4031 C4036 1.490 . S
C4032 H4022 0.930 . S
C4032 C4031 1.400 . S
C4032 C4035 1.386 . S
H4033 C4049 0.930 . S
H4034 C4050 0.931 . S
C4035 H4023 0.929 . S
C4035 C4029 1.390 . S
C4035 C4032 1.386 . S
C4036 C4031 1.490 . S
C4036 C4038 1.395 . S
C4036 C4039 1.403 . S
H4037 C4043 0.930 . S
C4038 H4024 0.930 . S
C4038 C4036 1.395 . S
C4038 C4041 1.403 . S
C4039 C4036 1.403 . S
C4039 C4040 1.524 . S
C4039 C4043 1.400 . S
C4040 H4025 0.960 . S
C4040 H4026 0.960 . S
C4040 H4027 0.960 . S
C4040 C4039 1.524 . S
C4041 C4038 1.403 . S
C4041 C4042 1.392 . S
C4041 C4045 1.495 . S
C4042 C4041 1.392 . S
C4042 C4043 1.385 . S
C4042 C4044 1.478 . S
C4043 H4037 0.930 . S
C4043 C4039 1.400 . S
C4043 C4042 1.385 . S
C4044 C4042 1.478 . S
C4044 C4046 1.381 . S
C4044 C4050 1.383 . S
C4045 C4041 1.495 . S
C4045 H4051 0.959 . S
C4045 H4052 0.961 . S
C4045 H4053 0.960 . S
C4046 C4044 1.381 . S
C4046 C4047 1.394 . S
C4046 H4054 0.930 . S
C4047 C4046 1.394 . S
C4047 C4048 1.383 . S
C4047 H4055 0.929 . S
C4048 C4047 1.383 . S
C4048 C4049 1.377 . S
C4049 H4033 0.930 . S
C4049 C4048 1.377 . S
C4049 C4050 1.379 . S
C4050 H4034 0.931 . S
C4050 C4044 1.383 . S
C4050 C4049 1.379 . S
H4051 C4045 0.959 . S
H4052 C4045 0.961 . S
H4053 C4045 0.960 . S
H4054 C4046 0.930 . S
H4055 C4047 0.929 . S
H4056 C4064 0.929 . S
H4057 C4066 0.930 . S
H4058 C4068 0.930 . S
H4059 C4071 0.929 . S
H4060 C4074 0.930 . S
H4061 C4076 0.960 . S
H4062 C4076 0.960 . S
H4063 C4076 0.960 . S
C4064 H4056 0.929 . S
C4064 C4065 1.377 . S
C4064 C4066 1.384 . S
C4065 C4064 1.377 . S
C4065 C4071 1.390 . S
C4066 H4057 0.930 . S
C4066 C4064 1.384 . S
C4066 C4067 1.372 . S
C4067 C4066 1.372 . S
C4067 C4068 1.400 . S
C4067 C4072 1.490 . S
C4068 H4058 0.930 . S
C4068 C4067 1.400 . S
C4068 C4071 1.386 . S
H4069 C4085 0.930 . S
H4070 C4086 0.931 . S
C4071 H4059 0.929 . S
C4071 C4065 1.390 . S
C4071 C4068 1.386 . S
C4072 C4067 1.490 . S
C4072 C4074 1.395 . S
C4072 C4075 1.403 . S
H4073 C4079 0.930 . S
C4074 H4060 0.930 . S
C4074 C4072 1.395 . S
C4074 C4077 1.403 . S
C4075 C4072 1.403 . S
C4075 C4076 1.524 . S
C4075 C4079 1.400 . S
C4076 H4061 0.960 . S
C4076 H4062 0.960 . S
C4076 H4063 0.960 . S
C4076 C4075 1.524 . S
C4077 C4074 1.403 . S
C4077 C4078 1.392 . S
C4077 C4081 1.495 . S
C4078 C4077 1.392 . S
C4078 C4079 1.385 . S
C4078 C4080 1.478 . S
C4079 H4073 0.930 . S
C4079 C4075 1.400 . S
C4079 C4078 1.385 . S
C4080 C4078 1.478 . S
C4080 C4082 1.381 . S
C4080 C4086 1.383 . S
C4081 C4077 1.495 . S
C4081 H4087 0.959 . S
C4081 H4088 0.961 . S
C4081 H4089 0.960 . S
C4082 C4080 1.381 . S
C4082 C4083 1.394 . S
C4082 H4090 0.930 . S
C4083 C4082 1.394 . S
C4083 C4084 1.383 . S
C4083 H4091 0.929 . S
C4084 C4083 1.383 . S
C4084 C4085 1.377 . S
C4085 H4069 0.930 . S
C4085 C4084 1.377 . S
C4085 C4086 1.379 . S
C4086 H4070 0.931 . S
C4086 C4080 1.383 . S
C4086 C4085 1.379 . S
H4087 C4081 0.959 . S
H4088 C4081 0.961 . S
H4089 C4081 0.960 . S
H4090 C4082 0.930 . S
H4091 C4083 0.929 . S
H4092 C4100 0.929 . S
H4093 C4102 0.930 . S
H4094 C4104 0.930 . S
H4095 C4107 0.929 . S
H4096 C4110 0.930 . S
H4097 C4112 0.960 . S
H4098 C4112 0.960 . S
H4099 C4112 0.960 . S
C4100 H4092 0.929 . S
C4100 C4101 1.377 . S
C4100 C4102 1.384 . S
C4101 C4100 1.377 . S
C4101 C4107 1.390 . S
C4102 H4093 0.930 . S
C4102 C4100 1.384 . S
C4102 C4103 1.372 . S
C4103 C4102 1.372 . S
C4103 C4104 1.400 . S
C4103 C4108 1.490 . S
C4104 H4094 0.930 . S
C4104 C4103 1.400 . S
C4104 C4107 1.386 . S
H4105 C4121 0.930 . S
H4106 C4122 0.931 . S
C4107 H4095 0.929 . S
C4107 C4101 1.390 . S
C4107 C4104 1.386 . S
C4108 C4103 1.490 . S
C4108 C4110 1.395 . S
C4108 C4111 1.403 . S
H4109 C4115 0.930 . S
C4110 H4096 0.930 . S
C4110 C4108 1.395 . S
C4110 C4113 1.403 . S
C4111 C4108 1.403 . S
C4111 C4112 1.524 . S
C4111 C4115 1.400 . S
C4112 H4097 0.960 . S
C4112 H4098 0.960 . S
C4112 H4099 0.960 . S
C4112 C4111 1.524 . S
C4113 C4110 1.403 . S
C4113 C4114 1.392 . S
C4113 C4117 1.495 . S
C4114 C4113 1.392 . S
C4114 C4115 1.385 . S
C4114 C4116 1.478 . S
C4115 H4109 0.930 . S
C4115 C4111 1.400 . S
C4115 C4114 1.385 . S
C4116 C4114 1.478 . S
C4116 C4118 1.381 . S
C4116 C4122 1.383 . S
C4117 C4113 1.495 . S
C4117 H4123 0.959 . S
C4117 H4124 0.961 . S
C4117 H4125 0.960 . S
C4118 C4116 1.381 . S
C4118 C4119 1.394 . S
C4118 H4126 0.930 . S
C4119 C4118 1.394 . S
C4119 C4120 1.383 . S
C4119 H4127 0.929 . S
C4120 C4119 1.383 . S
C4120 C4121 1.377 . S
C4121 H4105 0.930 . S
C4121 C4120 1.377 . S
C4121 C4122 1.379 . S
C4122 H4106 0.931 . S
C4122 C4116 1.383 . S
C4122 C4121 1.379 . S
H4123 C4117 0.959 . S
H4124 C4117 0.961 . S
H4125 C4117 0.960 . S
H4126 C4118 0.930 . S
H4127 C4119 0.929 . S
C681 C288 1.262 . S
C700 C8 1.249 . S
C717 C25 0.841 . S
C736 C249 0.849 . S
C753 C36 1.265 . S
C772 C260 1.259 . S
C789 C277 0.835 . S
C808 C53 0.837 . S
C825 C330 1.103 . S
C844 C67 1.117 . S
C861 C81 0.925 . S
C880 C305 0.921 . S
C897 C95 1.108 . S
C916 C316 1.106 . S
C933 C109 0.922 . S
C952 C235 0.905 . S
C969 C120 1.164 . S
C988 C218 1.157 . S
C1005 C137 1.212 . S
C1024 C176 1.208 . S
C1041 C148 1.163 . S
C1060 C190 1.152 . S
C1077 C204 1.200 . S
C1096 C165 1.209 . S
C1113 C347 1.040 . S
C1132 C624 1.041 . S
C1149 C585 0.715 . S
C1168 C361 0.719 . S
C1185 C375 1.040 . S
C1204 C596 1.034 . S
C1221 C613 0.707 . S
C1240 C389 0.721 . S
C1257 C400 1.037 . S
C1276 C666 1.021 . S
C1293 C641 0.811 . S
C1312 C417 0.794 . S
C1329 C428 1.032 . S
C1348 C652 1.050 . S
C1365 C571 0.802 . S
C1384 C445 0.798 . S
C1401 C456 1.039 . S
C1420 C557 1.060 . S
C1437 C512 1.042 . S
C1456 C470 1.025 . S
C1473 C529 1.048 . S
C1492 C484 1.022 . S
C1509 C540 1.039 . S
C1528 C498 1.048 . S
C1545 C372 0.723 . S
C1564 C11 0.700 . S
C1581 C22 0.688 . S
C1600 C386 0.700 . S
C1617 C39 0.730 . S
C1636 C344 0.728 . S
C1653 C50 0.681 . S
C1672 C358 0.655 . S
C1689 C64 0.735 . S
C1708 C431 0.715 . S
C1725 C442 0.689 . S
C1744 C78 0.703 . S
C1761 C403 0.727 . S
C1780 C92 0.734 . S
C1797 C414 0.694 . S
C1816 C106 0.722 . S
C1833 C515 0.518 . S
C1852 C123 0.557 . S
C1869 C134 0.759 . S
C1888 C526 0.742 . S
C1905 C543 0.520 . S
C1924 C151 0.564 . S
C1941 C162 0.756 . S
C1960 C554 0.737 . S
C1977 C179 0.524 . S
C1996 C459 0.487 . S
C2013 C193 0.696 . S
C2032 C473 0.715 . S
C2049 C487 0.514 . S
C2068 C207 0.555 . S
C2085 C501 0.700 . S
C2104 C221 0.688 . S
C2121 C232 0.691 . S
C2140 C610 0.668 . S
C2157 C246 0.677 . S
C2176 C638 0.658 . S
C2193 C655 0.518 . S
C2212 C263 0.498 . S
C2229 C568 0.687 . S
C2248 C274 0.694 . S
C2265 C291 0.529 . S
C2284 C669 0.491 . S
C2301 C582 0.705 . S
C2320 C302 0.731 . S
C2337 C319 0.522 . S
C2356 C599 0.536 . S
C2373 C333 0.533 . S
C2392 C627 0.529 . S
C2409 C405 1.737 . S
C2428 C7 1.765 . S
C2445 C413 1.654 . S
C2464 C27 1.661 . S
C2481 C433 1.743 . S
C2500 C35 1.781 . S
C2517 C55 1.662 . S
C2536 C441 1.670 . S
C2553 C343 1.762 . S
C2572 C69 1.759 . S
C2589 C357 1.612 . S
C2608 C83 1.611 . S
C2625 C97 1.745 . S
C2644 C371 1.758 . S
C2661 C385 1.619 . S
C2680 C111 1.628 . S
C2697 C119 1.758 . S
C2716 C545 1.731 . S
C2733 C139 1.737 . S
C2752 C553 1.760 . S
C2769 C517 1.742 . S
C2788 C147 1.771 . S
C2805 C167 1.735 . S
C2824 C525 1.737 . S
C2841 C489 1.655 . S
C2860 C175 1.685 . S
C2877 C189 1.778 . S
C2896 C503 1.755 . S
C2913 C203 1.673 . S
C2932 C461 1.658 . S
C2949 C217 1.778 . S
C2968 C475 1.759 . S
C2985 C637 1.594 . S
C3004 C237 1.605 . S
C3021 C251 1.678 . S
C3040 C609 1.678 . S
C3057 C259 1.691 . S
C3076 C629 1.645 . S
C3093 C279 1.680 . S
C3112 C581 1.662 . S
C3129 C601 1.668 . S
C3148 C287 1.700 . S
C3165 C567 1.598 . S
C3184 C307 1.598 . S
C3201 C671 1.735 . S
C3220 C315 1.741 . S
C3237 C329 1.756 . S
C3256 C657 1.746 . S
C3273 C223 1.560 . S
C3292 C13 1.566 . S
C3309 C21 1.563 . S
C3328 C181 1.554 . S
C3345 C195 1.565 . S
C3364 C41 1.574 . S
C3381 C209 1.585 . S
C3400 C49 1.560 . S
C3417 C133 1.622 . S
C3436 C63 1.599 . S
C3453 C77 1.447 . S
C3472 C153 1.471 . S
C3489 C91 1.625 . S
C3508 C161 1.641 . S
C3525 C125 1.460 . S
C3544 C105 1.456 . S
C3561 C231 1.490 . S
C3580 C293 1.515 . S
C3597 C335 1.534 . S
C3616 C245 1.486 . S
C3633 C301 1.490 . S
C3652 C265 1.523 . S
C3669 C273 1.524 . S
C3688 C321 1.516 . S
C3705 C559 1.410 . S
C3724 C349 1.410 . S
C3741 C511 1.464 . S
C3760 C363 1.492 . S
C3777 C377 1.402 . S
C3796 C531 1.396 . S
C3813 C539 1.464 . S
C3832 C391 1.498 . S
C3849 C469 1.471 . S
C3868 C399 1.491 . S
C3885 C419 1.461 . S
C3904 C483 1.464 . S
C3921 C427 1.463 . S
C3940 C497 1.437 . S
C3957 C447 1.470 . S
C3976 C455 1.409 . S
C3993 C573 1.460 . S
C4012 C623 1.418 . S
C4029 C665 1.490 . S
C4048 C587 1.494 . S
C4065 C643 1.453 . S
C4084 C595 1.404 . S
C4101 C651 1.480 . S
C4120 C615 1.545 . S
