# Generated by pormake.
# Topology umg, (4)-cn, num edge types: 1
# Building blocks:
#     Node 0, Type 0, BuildingBlock: ICAMEG_clean_sbu_1, # of connection points: 4
#     Node 1, Type 0, BuildingBlock: ICAMEG_clean_sbu_1, # of connection points: 4
#     Node 2, Type 0, BuildingBlock: ICAMEG_clean_sbu_1, # of connection points: 4
#     Node 3, Type 0, BuildingBlock: ICAMEG_clean_sbu_1, # of connection points: 4
#     Node 4, Type 0, BuildingBlock: ICAMEG_clean_sbu_1, # of connection points: 4
#     Node 5, Type 0, BuildingBlock: ICAMEG_clean_sbu_1, # of connection points: 4
#     Node 6, Type 0, BuildingBlock: ICAMEG_clean_sbu_1, # of connection points: 4
#     Node 7, Type 0, BuildingBlock: ICAMEG_clean_sbu_1, # of connection points: 4
#     Node 8, Type 0, BuildingBlock: ICAMEG_clean_sbu_1, # of connection points: 4
#     Node 9, Type 0, BuildingBlock: ICAMEG_clean_sbu_1, # of connection points: 4
#     Node 10, Type 0, BuildingBlock: ICAMEG_clean_sbu_1, # of connection points: 4
#     Node 11, Type 0, BuildingBlock: ICAMEG_clean_sbu_1, # of connection points: 4
#     Edge 12, Type (0, 0), BuildingBlock: AJUNOK_clean_linker_0, # of connection points: 2
#     Edge 13, Type (0, 0), BuildingBlock: AJUNOK_clean_linker_0, # of connection points: 2
#     Edge 14, Type (0, 0), BuildingBlock: AJUNOK_clean_linker_0, # of connection points: 2
#     Edge 15, Type (0, 0), BuildingBlock: AJUNOK_clean_linker_0, # of connection points: 2
#     Edge 16, Type (0, 0), BuildingBlock: AJUNOK_clean_linker_0, # of connection points: 2
#     Edge 17, Type (0, 0), BuildingBlock: AJUNOK_clean_linker_0, # of connection points: 2
#     Edge 18, Type (0, 0), BuildingBlock: AJUNOK_clean_linker_0, # of connection points: 2
#     Edge 19, Type (0, 0), BuildingBlock: AJUNOK_clean_linker_0, # of connection points: 2
#     Edge 20, Type (0, 0), BuildingBlock: AJUNOK_clean_linker_0, # of connection points: 2
#     Edge 21, Type (0, 0), BuildingBlock: AJUNOK_clean_linker_0, # of connection points: 2
#     Edge 22, Type (0, 0), BuildingBlock: AJUNOK_clean_linker_0, # of connection points: 2
#     Edge 23, Type (0, 0), BuildingBlock: AJUNOK_clean_linker_0, # of connection points: 2
#     Edge 24, Type (0, 0), BuildingBlock: AJUNOK_clean_linker_0, # of connection points: 2
#     Edge 25, Type (0, 0), BuildingBlock: AJUNOK_clean_linker_0, # of connection points: 2
#     Edge 26, Type (0, 0), BuildingBlock: AJUNOK_clean_linker_0, # of connection points: 2
#     Edge 27, Type (0, 0), BuildingBlock: AJUNOK_clean_linker_0, # of connection points: 2
#     Edge 28, Type (0, 0), BuildingBlock: AJUNOK_clean_linker_0, # of connection points: 2
#     Edge 29, Type (0, 0), BuildingBlock: AJUNOK_clean_linker_0, # of connection points: 2
#     Edge 30, Type (0, 0), BuildingBlock: AJUNOK_clean_linker_0, # of connection points: 2
#     Edge 31, Type (0, 0), BuildingBlock: AJUNOK_clean_linker_0, # of connection points: 2
#     Edge 32, Type (0, 0), BuildingBlock: AJUNOK_clean_linker_0, # of connection points: 2
#     Edge 33, Type (0, 0), BuildingBlock: AJUNOK_clean_linker_0, # of connection points: 2
#     Edge 34, Type (0, 0), BuildingBlock: AJUNOK_clean_linker_0, # of connection points: 2
#     Edge 35, Type (0, 0), BuildingBlock: AJUNOK_clean_linker_0, # of connection points: 2
# Relax obj value: 0.063
# Max RMSD: 0.146
# Mean RMSD: 0.146
data_MOF--net-umg--node1-ICAMEG_clean_sbu_1--edge1-AJUNOK_clean_linker_0
_symmetry_space_group_name_H-M    P1
_symmetry_Int_Tables_number       1
_symmetry_cell_setting            triclinic
loop_
_symmetry_equiv_pos_as_xyz
'x, y, z'
_cell_length_a     22.676046
_cell_length_b     22.685284
_cell_length_c     67.63667
_cell_angle_alpha  89.936946
_cell_angle_beta   90.011936
_cell_angle_gamma 119.97253
loop_
_atom_site_label
_atom_site_type_symbol
_atom_site_fract_x
_atom_site_fract_y
_atom_site_fract_z
_atom_type_partial_charge
Co0 Co 0.29901 0.64893 0.09176 0.0
Co1 Co 0.2438 0.48697 0.10978 0.0
O2 O 0.29863 0.56275 0.09221 0.0
C3 C 0.26358 0.59246 0.05168 0.0
O4 O 0.21668 0.53724 0.06047 0.0
C5 C 0.3865 0.52519 0.11793 0.0
O6 O 0.398 0.58778 0.11918 0.0
O7 O 0.26932 0.54833 0.13281 0.0
O8 O 0.2985 0.65268 0.12149 0.0
H9 H 0.07408 0.36514 0.16399 0.0
H10 H 0.40348 0.63381 0.0694 0.0
O11 O 0.30003 0.64564 0.06196 0.0
H12 H 0.53198 0.82139 0.11634 0.0
H13 H 0.37121 0.88208 0.06472 0.0
H14 H 0.22996 0.70934 0.11433 0.0
H15 H 0.40664 0.76394 0.11501 0.0
H16 H 0.3701 0.7729 0.06657 0.0
O17 O 0.32607 0.47656 0.11464 0.0
H18 H 0.14174 0.46006 0.14105 0.0
H19 H 0.23242 0.35186 0.11665 0.0
H20 H 0.22999 0.818 0.11314 0.0
H21 H 0.52875 0.69012 0.07017 0.0
H22 H 0.30093 0.90526 0.08816 0.0
H23 H 0.59385 0.78447 0.09381 0.0
O24 O 0.19742 0.60114 0.09182 0.0
H25 H 0.29048 0.38492 0.05011 0.0
H26 H 0.1124 0.376 0.09392 0.0
H27 H 0.0799 0.29425 0.06642 0.0
H28 H 0.16945 0.29745 0.04456 0.0
H29 H 0.32051 0.46687 0.07746 0.0
H30 H 0.16631 0.25604 0.13944 0.0
H31 H 0.08622 0.26224 0.16328 0.0
O32 O 0.16172 0.49777 0.10518 0.0
C33 C 0.28798 0.61072 0.13553 0.0
C34 C 0.10863 0.36174 0.15363 0.0
C35 C 0.16047 0.30055 0.13987 0.0
N36 N 0.19053 0.41122 0.12743 0.0
C37 C 0.14688 0.41521 0.14056 0.0
C38 C 0.1979 0.35501 0.12704 0.0
C39 C 0.11553 0.30405 0.15324 0.0
C40 C 0.43144 0.67535 0.07958 0.0
N41 N 0.39776 0.69585 0.09206 0.0
C42 C 0.50238 0.70683 0.08001 0.0
C43 C 0.53887 0.7597 0.0933 0.0
C44 C 0.50418 0.7804 0.10595 0.0
C45 C 0.4332 0.74764 0.10514 0.0
C46 C 0.34011 0.84448 0.07567 0.0
C47 C 0.26139 0.74727 0.10354 0.0
C48 C 0.33911 0.78249 0.07675 0.0
N49 N 0.30018 0.73492 0.09059 0.0
C50 C 0.26101 0.80861 0.10288 0.0
C51 C 0.30072 0.85749 0.08884 0.0
C52 C 0.15025 0.54365 0.09817 0.0
C53 C 0.25107 0.38259 0.05966 0.0
C54 C 0.15149 0.37864 0.08421 0.0
C55 C 0.13284 0.33188 0.06876 0.0
C56 C 0.18313 0.33361 0.05653 0.0
N57 N 0.21832 0.4258 0.08738 0.0
C58 C 0.26777 0.42885 0.07517 0.0
Co59 Co 0.6595 0.29572 0.42597 0.0
Co60 Co 0.76436 0.23861 0.44441 0.0
O61 O 0.74441 0.29363 0.42663 0.0
C62 C 0.68017 0.25848 0.38599 0.0
O63 O 0.68874 0.21177 0.39481 0.0
C64 C 0.86937 0.38132 0.45236 0.0
O65 O 0.81858 0.39334 0.45356 0.0
O66 O 0.72742 0.26401 0.46735 0.0
O67 O 0.65566 0.29689 0.45565 0.0
H68 H 0.71295 0.0677 0.49854 0.0
H69 H 0.78013 0.39737 0.40334 0.0
O70 O 0.66355 0.29512 0.39621 0.0
H71 H 0.72409 0.53115 0.44918 0.0
H72 H 0.5019 0.37036 0.39766 0.0
H73 H 0.53135 0.23375 0.44927 0.0
H74 H 0.65431 0.40598 0.44844 0.0
H75 H 0.60825 0.36605 0.39978 0.0
O76 O 0.85705 0.32054 0.44944 0.0
H77 H 0.68732 0.13615 0.47541 0.0
H78 H 0.88751 0.22661 0.45193 0.0
H79 H 0.42432 0.23682 0.44781 0.0
H80 H 0.85102 0.52245 0.40353 0.0
H81 H 0.40902 0.30553 0.42182 0.0
H82 H 0.8233 0.59021 0.42662 0.0
O83 O 0.60395 0.19389 0.42656 0.0
H84 H 0.91407 0.28506 0.38492 0.0
H85 H 0.74528 0.10739 0.4289 0.0
H86 H 0.79471 0.07472 0.40146 0.0
H87 H 0.88076 0.16407 0.37949 0.0
H88 H 0.86191 0.31523 0.41219 0.0
H89 H 0.91561 0.15972 0.47493 0.0
H90 H 0.82782 0.07933 0.49839 0.0
O91 O 0.67169 0.15697 0.43941 0.0
C92 C 0.68464 0.28415 0.46992 0.0
C93 C 0.75154 0.10238 0.48834 0.0
C94 C 0.86533 0.15411 0.47511 0.0
N95 N 0.78572 0.1849 0.46225 0.0
C96 C 0.73726 0.14108 0.47517 0.0
C97 C 0.84922 0.192 0.46216 0.0
C98 C 0.81605 0.109 0.48826 0.0
C99 C 0.76724 0.42649 0.41328 0.0
N100 N 0.71285 0.39436 0.42578 0.0
C101 C 0.80777 0.49732 0.41338 0.0
C102 C 0.79226 0.5353 0.42636 0.0
C103 C 0.73663 0.50219 0.43903 0.0
C104 C 0.69733 0.43128 0.43856 0.0
C105 C 0.50782 0.34003 0.409 0.0
C106 C 0.52498 0.26348 0.4379 0.0
C107 C 0.56781 0.33709 0.41022 0.0
N108 N 0.57575 0.2991 0.42455 0.0
C109 C 0.46429 0.26516 0.43715 0.0
C110 C 0.45576 0.3037 0.42258 0.0
C111 C 0.61437 0.14637 0.43263 0.0
C112 C 0.87703 0.24573 0.39449 0.0
C113 C 0.78158 0.14636 0.41914 0.0
C114 C 0.80983 0.12764 0.40373 0.0
C115 C 0.85822 0.17781 0.39143 0.0
N116 N 0.80093 0.21315 0.4222 0.0
C117 C 0.84734 0.26251 0.40997 0.0
Co118 Co 0.37211 0.65957 0.75861 0.0
Co119 Co 0.53202 0.76727 0.77771 0.0
O120 O 0.45687 0.74644 0.75982 0.0
C121 C 0.42917 0.68695 0.71845 0.0
O122 O 0.48561 0.69727 0.72692 0.0
C123 C 0.48924 0.86782 0.78626 0.0
O124 O 0.4279 0.81482 0.78775 0.0
O125 O 0.46947 0.72806 0.8005 0.0
O126 O 0.36747 0.6516 0.78826 0.0
H127 H 0.65467 0.71784 0.83134 0.0
H128 H 0.38406 0.78022 0.73766 0.0
O129 O 0.37574 0.66721 0.7289 0.0
H130 H 0.19229 0.70857 0.78402 0.0
H131 H 0.14048 0.49703 0.73096 0.0
H132 H 0.31609 0.52698 0.77931 0.0
H133 H 0.25433 0.64523 0.78208 0.0
H134 H 0.24759 0.60678 0.73363 0.0
O135 O 0.53962 0.85862 0.783 0.0
H136 H 0.56003 0.6908 0.80833 0.0
H137 H 0.66465 0.89251 0.78576 0.0
H138 H 0.20953 0.41663 0.77729 0.0
H139 H 0.32305 0.84467 0.73901 0.0
H140 H 0.12081 0.4011 0.75295 0.0
H141 H 0.22636 0.80887 0.76229 0.0
O142 O 0.42272 0.60873 0.75783 0.0
H143 H 0.6369 0.92327 0.71949 0.0
H144 H 0.64498 0.75018 0.76173 0.0
H145 H 0.72816 0.80292 0.73467 0.0
H146 H 0.72527 0.89111 0.71358 0.0
H147 H 0.55302 0.86732 0.7462 0.0
H148 H 0.76021 0.92195 0.80865 0.0
H149 H 0.75566 0.83414 0.83158 0.0
O150 O 0.52373 0.67558 0.77252 0.0
C151 C 0.4076 0.68179 0.80274 0.0
C152 C 0.65735 0.75645 0.82136 0.0
C153 C 0.71654 0.87105 0.80865 0.0
N154 N 0.60718 0.78984 0.79559 0.0
C155 C 0.60405 0.74138 0.80825 0.0
C156 C 0.66226 0.85414 0.79575 0.0
C157 C 0.71397 0.82175 0.82151 0.0
C158 C 0.34166 0.76394 0.74771 0.0
N159 N 0.32246 0.70868 0.75967 0.0
C160 C 0.30745 0.80078 0.74845 0.0
C161 C 0.25327 0.78073 0.76155 0.0
C162 C 0.23418 0.72451 0.77375 0.0
C163 C 0.26962 0.68895 0.77263 0.0
C164 C 0.17867 0.50321 0.74165 0.0
C165 C 0.27746 0.5208 0.76881 0.0
C166 C 0.23947 0.56517 0.7432 0.0
N167 N 0.28773 0.57342 0.75674 0.0
C168 C 0.21734 0.45811 0.76768 0.0
C169 C 0.16765 0.44941 0.754 0.0
C170 C 0.47976 0.61914 0.76459 0.0
C171 C 0.63898 0.88526 0.72867 0.0
C172 C 0.64241 0.78738 0.75233 0.0
C173 C 0.69002 0.8175 0.73714 0.0
C174 C 0.68848 0.8671 0.72534 0.0
N175 N 0.59446 0.80597 0.75563 0.0
C176 C 0.59167 0.85346 0.74385 0.0
Co177 Co 0.72004 0.37067 0.09322 0.0
Co178 Co 0.76615 0.53174 0.11029 0.0
O179 O 0.71419 0.45356 0.09324 0.0
C180 C 0.75237 0.42587 0.05288 0.0
O181 O 0.79661 0.48292 0.06143 0.0
C182 C 0.62138 0.48403 0.11902 0.0
O183 O 0.61438 0.42326 0.12073 0.0
O184 O 0.74703 0.47238 0.13369 0.0
O185 O 0.72069 0.36839 0.12293 0.0
H186 H 0.93737 0.66591 0.16297 0.0
H187 H 0.61099 0.37667 0.07048 0.0
O188 O 0.71888 0.37253 0.0634 0.0
H189 H 0.49149 0.18777 0.11779 0.0
H190 H 0.66201 0.13982 0.06744 0.0
H191 H 0.79662 0.31913 0.1161 0.0
H192 H 0.61698 0.25322 0.11682 0.0
H193 H 0.6551 0.24492 0.06868 0.0
O194 O 0.68021 0.53507 0.11551 0.0
H195 H 0.87363 0.56861 0.14052 0.0
H196 H 0.76512 0.66102 0.11741 0.0
H197 H 0.80475 0.21472 0.11549 0.0
H198 H 0.48549 0.31222 0.07085 0.0
H199 H 0.7371 0.12414 0.09102 0.0
H200 H 0.42491 0.21698 0.09462 0.0
O201 O 0.8216 0.42381 0.09335 0.0
H202 H 0.70339 0.61576 0.04951 0.0
H203 H 0.88978 0.65323 0.09456 0.0
H204 H 0.91378 0.73102 0.06635 0.0
H205 H 0.81977 0.71325 0.04382 0.0
H206 H 0.68234 0.53812 0.07757 0.0
H207 H 0.8272 0.75904 0.13975 0.0
H208 H 0.91425 0.762 0.16267 0.0
O209 O 0.85229 0.52835 0.10508 0.0
C210 C 0.73105 0.4108 0.1368 0.0
C211 C 0.89979 0.66536 0.15298 0.0
C212 C 0.83786 0.71756 0.13997 0.0
N213 N 0.8163 0.60953 0.12751 0.0
C214 C 0.86377 0.61055 0.14017 0.0
C215 C 0.80277 0.66187 0.12739 0.0
C216 C 0.88672 0.71921 0.15283 0.0
C217 C 0.58505 0.33489 0.08074 0.0
N218 N 0.62132 0.31836 0.09349 0.0
C219 C 0.51395 0.29873 0.08093 0.0
C220 C 0.47999 0.24536 0.09429 0.0
C221 C 0.51732 0.229 0.10731 0.0
C222 C 0.58836 0.26633 0.10672 0.0
C223 C 0.6917 0.17889 0.07818 0.0
C224 C 0.76681 0.27982 0.10548 0.0
C225 C 0.68812 0.23856 0.07892 0.0
N226 N 0.72519 0.28792 0.09251 0.0
C227 C 0.77173 0.22087 0.10517 0.0
C228 C 0.73381 0.17011 0.09142 0.0
C229 C 0.86662 0.48364 0.09875 0.0
C230 C 0.74471 0.6242 0.05928 0.0
C231 C 0.84924 0.64405 0.08447 0.0
C232 C 0.86286 0.68872 0.06867 0.0
C233 C 0.81005 0.67883 0.05607 0.0
N234 N 0.78501 0.59089 0.0876 0.0
C235 C 0.73314 0.58033 0.07516 0.0
Co236 Co 0.36122 0.71711 0.42577 0.0
Co237 Co 0.24412 0.75984 0.44285 0.0
O238 O 0.27151 0.70848 0.42597 0.0
C239 C 0.33502 0.74288 0.38502 0.0
O240 O 0.32005 0.78674 0.39283 0.0
C241 C 0.14613 0.61521 0.45121 0.0
O242 O 0.19978 0.60818 0.45338 0.0
O243 O 0.28243 0.73929 0.46657 0.0
O244 O 0.36583 0.72177 0.45541 0.0
H245 H 0.2761 0.92899 0.49562 0.0
H246 H 0.24684 0.60344 0.4042 0.0
O247 O 0.35654 0.71206 0.39608 0.0
H248 H 0.32342 0.49408 0.45293 0.0
H249 H 0.53647 0.66037 0.40118 0.0
H250 H 0.49118 0.8021 0.447 0.0
H251 H 0.38045 0.61913 0.45051 0.0
H252 H 0.42291 0.65 0.40254 0.0
O253 O 0.15418 0.67398 0.44741 0.0
H254 H 0.31133 0.86472 0.47393 0.0
H255 H 0.11413 0.7607 0.44828 0.0
H256 H 0.60527 0.81369 0.44629 0.0
H257 H 0.18889 0.47823 0.40596 0.0
H258 H 0.62849 0.74247 0.42325 0.0
H259 H 0.22706 0.42274 0.43048 0.0
O260 O 0.40704 0.81836 0.42464 0.0
H261 H 0.11074 0.70214 0.37952 0.0
H262 H 0.25199 0.88555 0.42629 0.0
H263 H 0.20846 0.91263 0.39627 0.0
H264 H 0.13721 0.82044 0.37262 0.0
H265 H 0.15614 0.67764 0.40962 0.0
H266 H 0.07649 0.82332 0.46985 0.0
H267 H 0.15789 0.90841 0.49366 0.0
O268 O 0.33404 0.84601 0.43853 0.0
C269 C 0.3318 0.72841 0.46946 0.0
C270 C 0.24023 0.89223 0.48526 0.0
C271 C 0.12817 0.83285 0.47081 0.0
N272 N 0.21503 0.80957 0.45972 0.0
C273 C 0.25995 0.85586 0.47289 0.0
C274 C 0.14971 0.79745 0.45867 0.0
C275 C 0.17388 0.88061 0.48416 0.0
C276 C 0.26425 0.57972 0.41478 0.0
N277 N 0.31729 0.61863 0.42716 0.0
C278 C 0.23105 0.50877 0.41575 0.0
C279 C 0.25242 0.47767 0.42953 0.0
C280 C 0.30641 0.51767 0.44215 0.0
C281 C 0.33838 0.58847 0.44076 0.0
C282 C 0.52695 0.69157 0.41132 0.0
C283 C 0.50081 0.77065 0.43703 0.0
C284 C 0.46281 0.68603 0.41212 0.0
N285 N 0.45034 0.72497 0.42497 0.0
C286 C 0.56555 0.77758 0.43665 0.0
C287 C 0.57855 0.73764 0.42371 0.0
C288 C 0.39235 0.86224 0.4312 0.0
C289 C 0.14164 0.74273 0.38973 0.0
C290 C 0.2215 0.84538 0.41603 0.0
C291 C 0.19667 0.86089 0.39908 0.0
C292 C 0.1566 0.80913 0.38584 0.0
N293 N 0.20687 0.78022 0.4197 0.0
C294 C 0.16731 0.72913 0.40683 0.0
Co295 Co 0.65177 0.35999 0.76018 0.0
Co296 Co 0.48766 0.24516 0.77498 0.0
O297 O 0.56833 0.27217 0.75899 0.0
C298 C 0.60288 0.34257 0.71923 0.0
O299 O 0.54445 0.32919 0.727 0.0
C300 C 0.53009 0.14366 0.78369 0.0
O301 O 0.592 0.19552 0.78562 0.0
O302 O 0.5434 0.28076 0.79928 0.0
O303 O 0.64917 0.35906 0.78982 0.0
H304 H 0.34771 0.27737 0.82683 0.0
H305 H 0.6474 0.24702 0.73679 0.0
O306 O 0.65435 0.3605 0.73042 0.0
H307 H 0.82681 0.30595 0.78673 0.0
H308 H 0.88775 0.53232 0.73768 0.0
H309 H 0.70157 0.48562 0.78406 0.0
H310 H 0.76431 0.36893 0.78511 0.0
H311 H 0.78143 0.42132 0.73738 0.0
O312 O 0.481 0.15411 0.77966 0.0
H313 H 0.44841 0.31236 0.80562 0.0
H314 H 0.3546 0.11663 0.77914 0.0
H315 H 0.80719 0.59711 0.78501 0.0
H316 H 0.70894 0.1831 0.73781 0.0
H317 H 0.90121 0.62104 0.76168 0.0
H318 H 0.79922 0.21229 0.76295 0.0
O319 O 0.60024 0.41013 0.75994 0.0
H320 H 0.42045 0.11841 0.7105 0.0
H321 H 0.37014 0.2522 0.75793 0.0
H322 H 0.30333 0.21179 0.72714 0.0
H323 H 0.32841 0.14428 0.70316 0.0
H324 H 0.48661 0.16092 0.74132 0.0
H325 H 0.25319 0.07916 0.80022 0.0
H326 H 0.24923 0.15996 0.82422 0.0
O327 O 0.49387 0.33627 0.77042 0.0
C328 C 0.60481 0.32543 0.80313 0.0
C329 C 0.34873 0.24178 0.81638 0.0
C330 C 0.29573 0.13049 0.80147 0.0
N331 N 0.40712 0.21671 0.79108 0.0
C332 C 0.40548 0.26138 0.80429 0.0
C333 C 0.35335 0.15189 0.78963 0.0
C334 C 0.29353 0.17586 0.81493 0.0
C335 C 0.68714 0.26059 0.74764 0.0
N336 N 0.70255 0.31199 0.76079 0.0
C337 C 0.7216 0.22398 0.7482 0.0
C338 C 0.77217 0.24031 0.76233 0.0
C339 C 0.78764 0.29282 0.77568 0.0
C340 C 0.75203 0.32825 0.77471 0.0
C341 C 0.84717 0.52251 0.74792 0.0
C342 C 0.74237 0.49558 0.77393 0.0
C343 C 0.78678 0.45985 0.74777 0.0
N344 N 0.73548 0.44701 0.76073 0.0
C345 C 0.802 0.55884 0.7745 0.0
C346 C 0.8547 0.57225 0.7614 0.0
C347 C 0.53997 0.39565 0.76474 0.0
C348 C 0.40912 0.14788 0.7208 0.0
C349 C 0.38185 0.22374 0.74744 0.0
C350 C 0.34355 0.20048 0.7301 0.0
C351 C 0.35754 0.16248 0.71668 0.0
N352 N 0.43279 0.20984 0.75128 0.0
C353 C 0.44636 0.17203 0.73829 0.0
Co354 Co 0.3714 0.72252 0.59526 0.0
Co355 Co 0.53349 0.77178 0.57832 0.0
O356 O 0.45552 0.71879 0.59536 0.0
C357 C 0.42705 0.75739 0.63542 0.0
O358 O 0.48334 0.80236 0.62666 0.0
C359 C 0.48999 0.62737 0.57009 0.0
O360 O 0.42776 0.61701 0.56889 0.0
O361 O 0.47384 0.75067 0.55495 0.0
O362 O 0.36897 0.72213 0.56554 0.0
H363 H 0.66396 0.94214 0.52501 0.0
H364 H 0.38051 0.61592 0.61842 0.0
O365 O 0.37361 0.72241 0.62507 0.0
H366 H 0.19333 0.49149 0.57099 0.0
H367 H 0.1388 0.65925 0.6209 0.0
H368 H 0.31714 0.79619 0.57213 0.0
H369 H 0.25516 0.61696 0.57189 0.0
H370 H 0.2457 0.65558 0.61985 0.0
O371 O 0.53952 0.68734 0.57327 0.0
H372 H 0.56725 0.8772 0.54763 0.0
H373 H 0.66564 0.77587 0.5717 0.0
H374 H 0.2109 0.80108 0.57256 0.0
H375 H 0.31976 0.4905 0.6181 0.0
H376 H 0.12079 0.73222 0.59708 0.0
H377 H 0.22558 0.42743 0.59421 0.0
O378 O 0.42246 0.82418 0.59483 0.0
H379 H 0.61846 0.71339 0.63972 0.0
H380 H 0.65386 0.89701 0.59378 0.0
H381 H 0.73127 0.92324 0.62219 0.0
H382 H 0.71452 0.83065 0.64518 0.0
H383 H 0.54131 0.69001 0.6114 0.0
H384 H 0.76303 0.83899 0.54918 0.0
H385 H 0.76271 0.9231 0.52568 0.0
O386 O 0.52782 0.8566 0.58336 0.0
C387 C 0.41185 0.733 0.55176 0.0
C388 C 0.6648 0.90581 0.53523 0.0
C389 C 0.72035 0.84782 0.54876 0.0
N390 N 0.61105 0.82317 0.56106 0.0
C391 C 0.61033 0.8691 0.54812 0.0
C392 C 0.66495 0.81202 0.56143 0.0
C393 C 0.72015 0.89503 0.53559 0.0
C394 C 0.33907 0.58888 0.60813 0.0
N395 N 0.3211 0.62377 0.59528 0.0
C396 C 0.30506 0.51784 0.60796 0.0
C397 C 0.2523 0.48248 0.59453 0.0
C398 C 0.23421 0.5184 0.58149 0.0
C399 C 0.26945 0.58945 0.58205 0.0
C400 C 0.17764 0.68943 0.61014 0.0
C401 C 0.27804 0.76587 0.58278 0.0
C402 C 0.23832 0.68768 0.6095 0.0
N403 N 0.28739 0.72535 0.59587 0.0
C404 C 0.21806 0.76895 0.58299 0.0
C405 C 0.16756 0.73035 0.59676 0.0
C406 C 0.48218 0.86986 0.58953 0.0
C407 C 0.62645 0.7541 0.62976 0.0
C408 C 0.64515 0.85704 0.60405 0.0
C409 C 0.6896 0.87194 0.61997 0.0
C410 C 0.68029 0.81993 0.63283 0.0
N411 N 0.59277 0.79234 0.60106 0.0
C412 C 0.58285 0.74121 0.61373 0.0
Co413 Co 0.65537 0.36496 0.92963 0.0
Co414 Co 0.76111 0.52585 0.91082 0.0
O415 O 0.74127 0.45087 0.92862 0.0
C416 C 0.67997 0.4221 0.96971 0.0
O417 O 0.68839 0.47756 0.96105 0.0
C418 C 0.86528 0.48725 0.90244 0.0
O419 O 0.81409 0.4247 0.90126 0.0
O420 O 0.72391 0.46351 0.88801 0.0
O421 O 0.64852 0.36042 0.89992 0.0
H422 H 0.70979 0.64576 0.85679 0.0
H423 H 0.77655 0.37996 0.95103 0.0
O424 O 0.66209 0.36877 0.95939 0.0
H425 H 0.71272 0.19113 0.90419 0.0
H426 H 0.49661 0.1319 0.95712 0.0
H427 H 0.5233 0.30568 0.90851 0.0
H428 H 0.6454 0.24907 0.90621 0.0
H429 H 0.6047 0.24085 0.95468 0.0
O430 O 0.85359 0.53603 0.90565 0.0
H431 H 0.68408 0.55156 0.87986 0.0
H432 H 0.88439 0.66062 0.90324 0.0
H433 H 0.41461 0.19724 0.91027 0.0
H434 H 0.84499 0.32314 0.94958 0.0
H435 H 0.40073 0.10943 0.93474 0.0
H436 H 0.81334 0.22815 0.92598 0.0
O437 O 0.60205 0.41327 0.93011 0.0
H438 H 0.91405 0.6315 0.96952 0.0
H439 H 0.74086 0.63695 0.92668 0.0
H440 H 0.79153 0.71993 0.95383 0.0
H441 H 0.87984 0.71844 0.97521 0.0
H442 H 0.86042 0.54803 0.94262 0.0
H443 H 0.91258 0.75572 0.88028 0.0
H444 H 0.82477 0.74873 0.8569 0.0
O445 O 0.66838 0.51519 0.91578 0.0
C446 C 0.67887 0.40135 0.88557 0.0
C447 C 0.7484 0.6495 0.86695 0.0
C448 C 0.86225 0.71117 0.88011 0.0
N449 N 0.78253 0.60087 0.89297 0.0
C450 C 0.73407 0.59644 0.88009 0.0
C451 C 0.84608 0.65711 0.89304 0.0
C452 C 0.81296 0.70723 0.86701 0.0
C453 C 0.76194 0.33815 0.94089 0.0
N454 N 0.70676 0.31759 0.92881 0.0
C455 C 0.8011 0.30637 0.94007 0.0
C456 C 0.78338 0.25315 0.9268 0.0
C457 C 0.72697 0.23239 0.91456 0.0
C458 C 0.68909 0.26546 0.91575 0.0
C459 C 0.50207 0.16969 0.94637 0.0
C460 C 0.51783 0.26747 0.91906 0.0
C461 C 0.56308 0.23152 0.94496 0.0
N462 N 0.57043 0.27929 0.93134 0.0
C463 C 0.45608 0.20628 0.92005 0.0
C464 C 0.4483 0.1571 0.9338 0.0
C465 C 0.61175 0.47015 0.9234 0.0
C466 C 0.87605 0.63303 0.96019 0.0
C467 C 0.77813 0.635 0.9362 0.0
C468 C 0.80707 0.68249 0.95144 0.0
C469 C 0.85673 0.68172 0.9634 0.0
N470 N 0.79801 0.588 0.93298 0.0
C471 C 0.84553 0.58593 0.94493 0.0
Co472 Co 0.30188 0.65424 0.26134 0.0
Co473 Co 0.24613 0.76273 0.24529 0.0
O474 O 0.30128 0.73953 0.26194 0.0
C475 C 0.26673 0.67105 0.30203 0.0
O476 O 0.22075 0.68256 0.294 0.0
C477 C 0.38859 0.86482 0.23659 0.0
O478 O 0.39714 0.81214 0.23452 0.0
O479 O 0.26848 0.72711 0.22129 0.0
O480 O 0.30229 0.65453 0.23168 0.0
H481 H 0.0718 0.72155 0.19316 0.0
H482 H 0.40511 0.77111 0.2848 0.0
O483 O 0.30191 0.65449 0.29109 0.0
H484 H 0.53633 0.71738 0.23727 0.0
H485 H 0.37374 0.49056 0.28636 0.0
H486 H 0.2385 0.52966 0.23647 0.0
H487 H 0.41094 0.65009 0.23782 0.0
H488 H 0.37126 0.59796 0.28594 0.0
O489 O 0.32923 0.85511 0.24054 0.0
H490 H 0.14056 0.69109 0.21463 0.0
H491 H 0.23727 0.88844 0.24013 0.0
H492 H 0.23995 0.42176 0.23619 0.0
H493 H 0.53044 0.83934 0.28487 0.0
H494 H 0.30786 0.40155 0.26131 0.0
H495 H 0.59692 0.81261 0.26098 0.0
O496 O 0.20002 0.60007 0.26097 0.0
H497 H 0.29892 0.89544 0.3086 0.0
H498 H 0.11727 0.74488 0.2625 0.0
H499 H 0.08737 0.78483 0.29276 0.0
H500 H 0.17861 0.86067 0.31605 0.0
H501 H 0.32643 0.8538 0.27827 0.0
H502 H 0.16995 0.92129 0.21883 0.0
H503 H 0.08633 0.8374 0.19519 0.0
O504 O 0.16355 0.6703 0.24992 0.0
C505 C 0.28854 0.68458 0.21795 0.0
C506 C 0.10788 0.75846 0.20345 0.0
C507 C 0.16305 0.87061 0.21784 0.0
N508 N 0.19234 0.78776 0.22873 0.0
C509 C 0.14677 0.74143 0.21569 0.0
C510 C 0.20109 0.85179 0.22983 0.0
C511 C 0.11612 0.82351 0.20458 0.0
C512 C 0.43364 0.75874 0.27447 0.0
N513 N 0.40066 0.70633 0.26139 0.0
C514 C 0.50462 0.79773 0.27454 0.0
C515 C 0.5419 0.78276 0.26111 0.0
C516 C 0.50792 0.72938 0.24779 0.0
C517 C 0.43689 0.69156 0.24813 0.0
C518 C 0.34362 0.49856 0.27541 0.0
C519 C 0.26787 0.52115 0.24749 0.0
C520 C 0.34162 0.55911 0.27519 0.0
N521 N 0.30387 0.56968 0.26137 0.0
C522 C 0.26863 0.45998 0.24724 0.0
C523 C 0.30674 0.44868 0.26134 0.0
C524 C 0.15259 0.61187 0.25577 0.0
C525 C 0.25875 0.86261 0.29853 0.0
C526 C 0.15719 0.77778 0.27258 0.0
C527 C 0.14 0.80037 0.28967 0.0
C528 C 0.19122 0.84298 0.30272 0.0
N529 N 0.22352 0.79718 0.26859 0.0
C530 C 0.27404 0.83908 0.2813 0.0
Co531 Co 0.65319 0.30126 0.59538 0.0
Co532 Co 0.48997 0.25 0.57948 0.0
O533 O 0.56924 0.30466 0.59588 0.0
C534 C 0.60345 0.27265 0.6363 0.0
O535 O 0.54537 0.22668 0.62859 0.0
C536 C 0.53143 0.39268 0.57064 0.0
O537 O 0.59224 0.40048 0.5681 0.0
O538 O 0.54725 0.27196 0.55544 0.0
O539 O 0.6516 0.29687 0.56571 0.0
H540 H 0.35427 0.07766 0.52724 0.0
H541 H 0.64723 0.41141 0.61741 0.0
O542 O 0.655 0.30599 0.62511 0.0
H543 H 0.82878 0.52824 0.5678 0.0
H544 H 0.88864 0.36757 0.61913 0.0
H545 H 0.70416 0.22358 0.57289 0.0
H546 H 0.76614 0.40296 0.57016 0.0
H547 H 0.78224 0.3722 0.61839 0.0
O548 O 0.48174 0.33376 0.57494 0.0
H549 H 0.45417 0.1449 0.54856 0.0
H550 H 0.35595 0.24285 0.57493 0.0
H551 H 0.80992 0.21778 0.57298 0.0
H552 H 0.70897 0.53675 0.61567 0.0
H553 H 0.90305 0.29007 0.59626 0.0
H554 H 0.80048 0.59598 0.59073 0.0
O555 O 0.60212 0.20003 0.59649 0.0
H556 H 0.41172 0.30398 0.64294 0.0
H557 H 0.37936 0.12149 0.597 0.0
H558 H 0.31003 0.0923 0.62737 0.0
H559 H 0.32603 0.18394 0.65058 0.0
H560 H 0.48043 0.33081 0.61252 0.0
H561 H 0.25511 0.17703 0.55379 0.0
H562 H 0.25382 0.09358 0.52979 0.0
O563 O 0.49847 0.16635 0.58376 0.0
C564 C 0.60859 0.28724 0.55208 0.0
C565 C 0.35412 0.11367 0.5377 0.0
C566 C 0.2985 0.16952 0.55258 0.0
N567 N 0.41053 0.19718 0.56309 0.0
C568 C 0.41042 0.1517 0.54985 0.0
C569 C 0.35573 0.20669 0.56448 0.0
C570 C 0.2978 0.12269 0.53912 0.0
C571 C 0.68743 0.4368 0.60664 0.0
N572 N 0.70344 0.3999 0.59401 0.0
C573 C 0.72205 0.50779 0.60568 0.0
C574 C 0.77332 0.54099 0.59166 0.0
C575 C 0.78917 0.50301 0.57878 0.0
C576 C 0.75343 0.43209 0.58016 0.0
C577 C 0.84848 0.33589 0.6089 0.0
C578 C 0.74473 0.25566 0.58292 0.0
C579 C 0.78806 0.33816 0.60846 0.0
N580 N 0.73725 0.29846 0.59554 0.0
C581 C 0.80437 0.25195 0.58296 0.0
C582 C 0.85655 0.29243 0.59605 0.0
C583 C 0.54365 0.15361 0.59062 0.0
C584 C 0.40408 0.26364 0.6329 0.0
C585 C 0.38664 0.16162 0.60704 0.0
C586 C 0.34715 0.14481 0.62419 0.0
C587 C 0.35609 0.19626 0.6372 0.0
N588 N 0.43362 0.22782 0.60294 0.0
C589 C 0.44264 0.27855 0.61561 0.0
Co590 Co 0.35289 0.64153 0.92807 0.0
Co591 Co 0.23855 0.48025 0.91095 0.0
O592 O 0.26432 0.5583 0.92804 0.0
C593 C 0.33002 0.58669 0.96846 0.0
O594 O 0.31716 0.52946 0.96 0.0
C595 C 0.14129 0.52772 0.90206 0.0
O596 O 0.19505 0.5885 0.90043 0.0
O597 O 0.27883 0.53968 0.88759 0.0
O598 O 0.35598 0.64378 0.89838 0.0
H599 H 0.27697 0.34675 0.85836 0.0
H600 H 0.23745 0.63496 0.95072 0.0
O601 O 0.34986 0.63988 0.95787 0.0
H602 H 0.30618 0.82366 0.90337 0.0
H603 H 0.52469 0.87282 0.95381 0.0
H604 H 0.48117 0.69354 0.90527 0.0
H605 H 0.36673 0.75869 0.90441 0.0
H606 H 0.413 0.76741 0.95256 0.0
O607 O 0.14911 0.47667 0.90559 0.0
H608 H 0.30987 0.44389 0.88084 0.0
H609 H 0.10864 0.35077 0.90368 0.0
H610 H 0.59342 0.79827 0.9059 0.0
H611 H 0.17588 0.69893 0.95027 0.0
H612 H 0.61574 0.88883 0.93032 0.0
H613 H 0.21022 0.79408 0.92648 0.0
O614 O 0.40174 0.58877 0.92801 0.0
H615 H 0.0886 0.39317 0.971 0.0
H616 H 0.24221 0.35975 0.92683 0.0
H617 H 0.18736 0.28081 0.95474 0.0
H618 H 0.10868 0.29646 0.97679 0.0
H619 H 0.1466 0.47228 0.94334 0.0
H620 H 0.07336 0.2529 0.88133 0.0
H621 H 0.15793 0.25039 0.85852 0.0
O622 O 0.32829 0.48401 0.9163 0.0
C623 C 0.32418 0.60132 0.88451 0.0
C624 C 0.23974 0.34712 0.8683 0.0
C625 C 0.12543 0.2945 0.88116 0.0
N626 N 0.21143 0.4026 0.89371 0.0
C627 C 0.25814 0.40182 0.88112 0.0
C628 C 0.14565 0.35011 0.89376 0.0
C629 C 0.17291 0.29311 0.86837 0.0
C630 C 0.25313 0.6767 0.94045 0.0
N631 N 0.30605 0.69345 0.92773 0.0
C632 C 0.21791 0.71259 0.94022 0.0
C633 C 0.23714 0.76591 0.92684 0.0
C634 C 0.29093 0.78248 0.91386 0.0
C635 C 0.32493 0.74542 0.91449 0.0
C636 C 0.51557 0.83375 0.9431 0.0
C637 C 0.49042 0.73283 0.91587 0.0
C638 C 0.4525 0.7739 0.94235 0.0
N639 N 0.44054 0.72454 0.92879 0.0
C640 C 0.55412 0.79197 0.91619 0.0
C641 C 0.56662 0.84273 0.9299 0.0
C642 C 0.38722 0.52898 0.92266 0.0
C643 C 0.12254 0.38565 0.96144 0.0
C644 C 0.20987 0.36811 0.93676 0.0
C645 C 0.17821 0.32276 0.95238 0.0
C646 C 0.13392 0.33145 0.9647 0.0
N647 N 0.19812 0.42082 0.93357 0.0
C648 C 0.15562 0.43034 0.94578 0.0
Co649 Co 0.72235 0.35473 0.26275 0.0
Co650 Co 0.76765 0.24146 0.24387 0.0
O651 O 0.7159 0.26578 0.26166 0.0
C652 C 0.75205 0.32686 0.30282 0.0
O653 O 0.7965 0.31444 0.29417 0.0
C654 C 0.62278 0.14116 0.236 0.0
O655 O 0.61243 0.19309 0.23515 0.0
O656 O 0.74512 0.28118 0.22097 0.0
O657 O 0.72483 0.36152 0.23309 0.0
H658 H 0.93598 0.28344 0.18974 0.0
H659 H 0.61166 0.23723 0.28424 0.0
O660 O 0.71931 0.34801 0.29247 0.0
H661 H 0.49566 0.31263 0.23751 0.0
H662 H 0.66192 0.52429 0.28992 0.0
H663 H 0.80329 0.48643 0.24192 0.0
H664 H 0.62099 0.37289 0.2394 0.0
H665 H 0.65477 0.41233 0.28755 0.0
O666 O 0.68287 0.15141 0.23884 0.0
H667 H 0.87089 0.31394 0.21267 0.0
H668 H 0.77209 0.11405 0.23657 0.0
H669 H 0.81167 0.59897 0.24365 0.0
H670 H 0.48624 0.17583 0.28293 0.0
H671 H 0.74058 0.61844 0.26779 0.0
H672 H 0.42741 0.21332 0.25939 0.0
O673 O 0.82396 0.40266 0.26318 0.0
H674 H 0.71149 0.09103 0.30364 0.0
H675 H 0.89481 0.24939 0.25924 0.0
H676 H 0.92225 0.19615 0.28683 0.0
H677 H 0.82987 0.11523 0.30905 0.0
H678 H 0.68693 0.14734 0.27625 0.0
H679 H 0.8353 0.081 0.2137 0.0
H680 H 0.91829 0.16619 0.19015 0.0
O681 O 0.85292 0.33154 0.24867 0.0
C682 C 0.73207 0.32927 0.21866 0.0
C683 C 0.90009 0.24592 0.19997 0.0
C684 C 0.84351 0.13227 0.21339 0.0
N685 N 0.81806 0.21592 0.22603 0.0
C686 C 0.86325 0.26294 0.21303 0.0
C687 C 0.80764 0.15116 0.22625 0.0
C688 C 0.89009 0.1801 0.20019 0.0
C689 C 0.58647 0.25437 0.27411 0.0
N690 N 0.62366 0.30885 0.26199 0.0
C691 C 0.51541 0.21918 0.27338 0.0
C692 C 0.48244 0.24017 0.26014 0.0
C693 C 0.5207 0.29584 0.24784 0.0
C694 C 0.59167 0.3297 0.24896 0.0
C695 C 0.69301 0.51638 0.27931 0.0
C696 C 0.7719 0.49441 0.25237 0.0
C697 C 0.68925 0.45316 0.27792 0.0
N698 N 0.72802 0.44272 0.26445 0.0
C699 C 0.77701 0.55829 0.25333 0.0
C700 C 0.73715 0.56919 0.26688 0.0
C701 C 0.86839 0.38922 0.25629 0.0
C702 C 0.75212 0.12592 0.294 0.0
C703 C 0.85483 0.21583 0.26915 0.0
C704 C 0.87045 0.18516 0.28463 0.0
C705 C 0.81858 0.13962 0.29705 0.0
N706 N 0.78951 0.20177 0.26614 0.0
C707 C 0.73854 0.15799 0.27846 0.0
C708 C 0.33815 0.64947 0.99996 0.0
C709 C 0.3142 0.58748 0.98978 0.0
C710 C 0.32142 0.65091 0.01992 0.0
C711 C 0.27883 0.59048 0.03036 0.0
H712 H 0.3704 0.69733 0.99251 0.0
H713 H 0.34178 0.6998 0.02718 0.0
S714 S 0.2017 0.41483 1.0104 0.0
N715 N 0.24614 0.46413 0.99183 0.0
N716 N 0.21249 0.46691 0.02879 0.0
C717 C 0.25395 0.52829 0.02025 0.0
C718 C 0.27225 0.52677 1.00014 0.0
C719 C 0.67817 0.31557 0.35427 0.0
C720 C 0.69707 0.27367 0.36465 0.0
C721 C 0.69629 0.33282 0.33434 0.0
C722 C 0.73528 0.31006 0.3241 0.0
H723 H 0.6489 0.33509 0.36156 0.0
H724 H 0.67991 0.3646 0.32696 0.0
S725 S 0.79839 0.19969 0.34456 0.0
N726 N 0.75634 0.20924 0.36298 0.0
N727 N 0.79258 0.24377 0.32603 0.0
C728 C 0.755 0.26868 0.33438 0.0
C729 C 0.73529 0.2499 0.35449 0.0
C730 C 0.36786 0.67993 0.68674 0.0
C731 C 0.42935 0.70463 0.69726 0.0
C732 C 0.36727 0.69764 0.66684 0.0
C733 C 0.42805 0.74193 0.65678 0.0
H734 H 0.31978 0.6461 0.69387 0.0
H735 H 0.31875 0.67638 0.65929 0.0
S736 S 0.6025 0.8231 0.67797 0.0
N737 N 0.55249 0.77625 0.69612 0.0
N738 N 0.55134 0.8117 0.65924 0.0
C739 C 0.48971 0.768 0.6673 0.0
C740 C 0.49038 0.74875 0.68737 0.0
C741 C 0.69545 0.36377 0.02146 0.0
C742 C 0.73609 0.42552 0.03152 0.0
C743 C 0.67731 0.36286 1.00152 0.0
C744 C 0.69782 0.42367 0.99097 0.0
H745 H 0.6776 0.31566 0.02901 0.0
H746 H 0.64653 0.3141 0.99438 0.0
S747 S 0.80479 0.59897 1.01042 0.0
N748 N 0.79735 0.54909 0.02913 0.0
N749 N 0.76104 0.54734 0.9922 0.0
C750 C 0.73803 0.48565 1.00091 0.0
C751 C 0.75778 0.48659 0.02101 0.0
C752 C 0.26012 0.7244 0.33365 0.0
C753 C 0.28348 0.68613 0.32334 0.0
C754 C 0.27817 0.74336 0.3534 0.0
C755 C 0.31973 0.72423 0.36383 0.0
H756 H 0.22828 0.7409 0.32637 0.0
H757 H 0.25867 0.77283 0.36056 0.0
S758 S 0.39368 0.62288 0.34379 0.0
N759 N 0.35027 0.62931 0.32514 0.0
N760 N 0.38353 0.66425 0.36234 0.0
C761 C 0.34308 0.68543 0.35378 0.0
C762 C 0.32516 0.6666 0.33355 0.0
C763 C 0.54476 0.28863 0.68751 0.0
C764 C 0.60586 0.3279 0.69796 0.0
C765 C 0.54487 0.27011 0.66779 0.0
C766 C 0.60609 0.29086 0.65749 0.0
H767 H 0.49602 0.27103 0.69464 0.0
H768 H 0.49623 0.23977 0.66054 0.0
S769 S 0.78037 0.39511 0.67792 0.0
N770 N 0.7296 0.38715 0.69649 0.0
N771 N 0.7298 0.3533 0.65924 0.0
C772 C 0.66774 0.33067 0.66767 0.0
C773 C 0.66763 0.34891 0.68792 0.0
C774 C 0.28093 0.70242 0.18156 0.0
C775 C 0.29519 0.66913 0.19692 0.0
C776 C 0.28168 0.68556 0.16165 0.0
C777 C 0.29599 0.63423 0.15628 0.0
H778 H 0.26757 0.741 0.18488 0.0
H779 H 0.26836 0.71113 0.15047 0.0
S780 S 0.34442 0.53669 0.19024 0.0
N781 N 0.33014 0.58627 0.20491 0.0
N782 N 0.33057 0.55422 0.16762 0.0
C783 C 0.31321 0.60254 0.17132 0.0
C784 C 0.31308 0.62007 0.19157 0.0
C785 C 0.70222 0.28076 0.50641 0.0
C786 C 0.66735 0.2912 0.49072 0.0
C787 C 0.68434 0.28175 0.52616 0.0
C788 C 0.6303 0.29249 0.53115 0.0
H789 H 0.74321 0.27051 0.50349 0.0
H790 H 0.7119 0.27193 0.53756 0.0
S791 S 0.52668 0.32935 0.49608 0.0
N792 N 0.57939 0.31819 0.48186 0.0
N793 N 0.54513 0.31891 0.51895 0.0
C794 C 0.59644 0.30544 0.51575 0.0
C795 C 0.61514 0.30517 0.49558 0.0
C796 C 0.42464 0.69986 0.83935 0.0
C797 C 0.38229 0.6625 0.82339 0.0
C798 C 0.40462 0.6811 0.85901 0.0
C799 C 0.34159 0.62376 0.86364 0.0
H800 H 0.47442 0.74372 0.83672 0.0
H801 H 0.43981 0.71084 0.87064 0.0
S802 S 0.20894 0.51151 0.8276 0.0
N803 N 0.2721 0.56763 0.81379 0.0
N804 N 0.23466 0.53211 0.85067 0.0
C805 C 0.29764 0.5871 0.84791 0.0
C806 C 0.31787 0.60652 0.82784 0.0
C807 C 0.72983 0.33001 0.16234 0.0
C808 C 0.72586 0.38835 0.1577 0.0
C809 C 0.73053 0.31092 0.18202 0.0
C810 C 0.72674 0.34896 0.19798 0.0
H811 H 0.73425 0.29963 0.15072 0.0
H812 H 0.73508 0.26625 0.18466 0.0
S813 S 0.70949 0.50304 0.19377 0.0
N814 N 0.71372 0.48189 0.1707 0.0
N815 N 0.71475 0.44587 0.20757 0.0
C816 C 0.72022 0.4061 0.19351 0.0
C817 C 0.71989 0.4258 0.17345 0.0
C818 C 0.331 0.72951 0.52582 0.0
C819 C 0.3896 0.72642 0.53081 0.0
C820 C 0.31228 0.72894 0.50602 0.0
C821 C 0.35101 0.72471 0.49032 0.0
H822 H 0.30017 0.73422 0.53725 0.0
H823 H 0.2674 0.73285 0.50307 0.0
S824 S 0.50611 0.70946 0.49555 0.0
N825 N 0.48409 0.71461 0.51845 0.0
N826 N 0.44896 0.71339 0.4814 0.0
C827 C 0.40848 0.71913 0.49517 0.0
C828 C 0.42772 0.72005 0.51533 0.0
C829 C 0.70069 0.42005 0.84919 0.0
C830 C 0.66109 0.37717 0.8648 0.0
C831 C 0.68324 0.40197 0.8294 0.0
C832 C 0.625 0.34041 0.82423 0.0
H833 H 0.74538 0.46886 0.85221 0.0
H834 H 0.71488 0.43763 0.81809 0.0
S835 S 0.50695 0.20681 0.8592 0.0
N836 N 0.56324 0.26782 0.87354 0.0
N837 N 0.52996 0.23403 0.83633 0.0
C838 C 0.58605 0.29578 0.8396 0.0
C839 C 0.60423 0.31402 0.85984 0.0
C840 C 0.95587 0.44919 0.10121 0.0
C841 C 0.93924 0.5006 0.09804 0.0
C842 C 0.02374 0.46344 0.10117 0.0
C843 C 0.07829 0.52962 0.09756 0.0
H844 H 0.91615 0.39744 0.10414 0.0
H845 H 0.03329 0.42196 0.10401 0.0
S846 S 0.06185 0.682 0.08722 0.0
N847 N 0.98287 0.61996 0.09061 0.0
N848 N 0.10986 0.64688 0.09 0.0
C849 C 0.0621 0.58129 0.09392 0.0
C850 C 0.99294 0.56682 0.09432 0.0
C851 C 0.56888 0.02104 0.42763 0.0
C852 C 0.55672 0.07479 0.43178 0.0
C853 C 0.51542 0.95313 0.42702 0.0
C854 C 0.44733 0.93554 0.43094 0.0
H855 H 0.62013 0.03147 0.42466 0.0
H856 H 0.52808 0.91404 0.42374 0.0
S857 S 0.38873 0.05756 0.44341 0.0
N858 N 0.47155 0.10575 0.44008 0.0
N859 N 0.37176 0.97882 0.43957 0.0
C860 C 0.43471 0.98902 0.43527 0.0
C861 C 0.48907 0.05827 0.43551 0.0
C862 C 0.57331 0.51841 0.76939 0.0
C863 C 0.52373 0.45174 0.76399 0.0
C864 C 0.559 0.57206 0.7694 0.0
C865 C 0.49475 0.56181 0.76364 0.0
H866 H 0.62336 0.5291 0.77407 0.0
H867 H 0.59875 0.6219 0.77407 0.0
S868 S 0.34887 0.39734 0.74654 0.0
N869 N 0.40904 0.37919 0.75184 0.0
N870 N 0.38206 0.47915 0.75133 0.0
C871 C 0.44533 0.49547 0.75764 0.0
C872 C 0.45976 0.44078 0.75798 0.0
C873 C 0.46338 0.02757 0.58603 0.0
C874 C 0.52834 0.08124 0.59135 0.0
C875 C 0.44876 0.95955 0.58578 0.0
C876 C 0.49868 0.94214 0.5905 0.0
H877 H 0.42335 0.038 0.58188 0.0
H878 H 0.3982 0.9204 0.58144 0.0
S879 S 0.6753 0.06155 0.60675 0.0
N880 N 0.64207 0.11057 0.60257 0.0
N881 N 0.61435 0.98347 0.60168 0.0
C882 C 0.5633 0.99478 0.59613 0.0
C883 C 0.57813 0.06395 0.59669 0.0
C884 C 0.51058 0.56324 0.91921 0.0
C885 C 0.44314 0.51243 0.92343 0.0
C886 C 0.56444 0.5493 0.91934 0.0
C887 C 0.55371 0.48412 0.9241 0.0
H888 H 0.52185 0.61416 0.91537 0.0
H889 H 0.61491 0.59019 0.91562 0.0
S890 S 0.38686 0.33415 0.9377 0.0
N891 N 0.36903 0.39506 0.93322 0.0
N892 N 0.46956 0.36876 0.93404 0.0
C893 C 0.4865 0.43322 0.92886 0.0
C894 C 0.43153 0.44731 0.92835 0.0
C895 C 0.0267 0.56612 0.26032 0.0
C896 C 0.08083 0.55426 0.25635 0.0
C897 C 0.95874 0.5125 0.26068 0.0
C898 C 0.94154 0.44462 0.25666 0.0
H899 H 0.03687 0.61723 0.26334 0.0
H900 H 0.91932 0.52482 0.26384 0.0
S901 S 0.06449 0.38683 0.2445 0.0
N902 N 0.11234 0.46947 0.2481 0.0
N903 N 0.98553 0.36971 0.24805 0.0
C904 C 0.99536 0.43239 0.25245 0.0
C905 C 0.06456 0.48678 0.2525 0.0
C906 C 0.56848 0.55835 0.11886 0.0
C907 C 0.56046 0.49274 0.11979 0.0
C908 C 0.51204 0.56807 0.11861 0.0
C909 C 0.44491 0.51263 0.11913 0.0
H910 H 0.61884 0.60285 0.11815 0.0
H911 H 0.52142 0.61973 0.11765 0.0
S912 S 0.39545 0.3302 0.12213 0.0
N913 N 0.47945 0.37114 0.12173 0.0
N914 N 0.37377 0.38957 0.12106 0.0
C915 C 0.43601 0.44672 0.12029 0.0
C916 C 0.49357 0.43677 0.12069 0.0
C917 C 0.95264 0.50679 0.45234 0.0
C918 C 0.94062 0.43953 0.45294 0.0
C919 C 0.01893 0.56296 0.45196 0.0
C920 C 0.07638 0.55457 0.4523 0.0
H921 H 0.91047 0.51648 0.45186 0.0
H922 H 0.02501 0.61342 0.4513 0.0
S923 S 0.07326 0.38917 0.45422 0.0
N924 N 0.99225 0.36793 0.45406 0.0
N925 N 0.11657 0.4731 0.45353 0.0
C926 C 0.0652 0.48758 0.45316 0.0
C927 C 0.99754 0.43028 0.45342 0.0
C928 C 0.57366 0.06131 0.78379 0.0
C929 C 0.51838 0.0731 0.78526 0.0
C930 C 0.56401 0.99513 0.78445 0.0
C931 C 0.49871 0.93782 0.78676 0.0
H932 H 0.62491 0.10346 0.78174 0.0
H933 H 0.60818 0.98897 0.78289 0.0
S934 S 0.3372 0.94123 0.79243 0.0
N935 N 0.39621 0.02187 0.78985 0.0
N936 N 0.37789 0.89801 0.79129 0.0
C937 C 0.4431 0.94909 0.78869 0.0
C938 C 0.45296 0.01645 0.78787 0.0
C939 C 0.4466 0.5016 0.57141 0.0
C940 C 0.50168 0.5684 0.56919 0.0
C941 C 0.45645 0.44516 0.57166 0.0
C942 C 0.52177 0.453 0.56954 0.0
H943 H 0.39536 0.49267 0.57338 0.0
H944 H 0.41243 0.39506 0.5737 0.0
S945 S 0.6829 0.61705 0.56234 0.0
N946 N 0.62375 0.63882 0.56421 0.0
N947 N 0.64243 0.53344 0.5645 0.0
C948 C 0.57719 0.51953 0.5669 0.0
C949 C 0.56713 0.57695 0.56678 0.0
C950 C 0.01394 0.45357 0.90202 0.0
C951 C 0.07165 0.51909 0.90112 0.0
C952 C 0.94782 0.44403 0.90209 0.0
C953 C 0.93625 0.49958 0.90139 0.0
H954 H 0.01968 0.409 0.90286 0.0
H955 H 0.90545 0.39243 0.90303 0.0
S956 S 0.06958 0.68185 0.89839 0.0
N957 N 0.11246 0.64073 0.89902 0.0
N958 N 0.98847 0.62263 0.89935 0.0
C959 C 0.99339 0.56539 0.90026 0.0
C960 C 0.06086 0.57516 0.90005 0.0
C961 C 0.44059 0.99223 0.23762 0.0
C962 C 0.44865 0.93492 0.23542 0.0
C963 C 0.49692 0.05858 0.23738 0.0
C964 C 0.56381 0.07051 0.23507 0.0
H965 H 0.39041 0.98593 0.23974 0.0
H966 H 0.48786 0.10076 0.23941 0.0
S967 S 0.61299 0.93845 0.22795 0.0
N968 N 0.52939 0.89513 0.23019 0.0
N969 N 0.63449 0.01921 0.22989 0.0
C970 C 0.57254 0.01378 0.23256 0.0
C971 C 0.51527 0.94628 0.23269 0.0
loop_
_geom_bond_atom_site_label_1
_geom_bond_atom_site_label_2
_geom_bond_distance
_geom_bond_site_symmetry_2
_ccdc_geom_bond_type
Co0 O2 2.143 . S
Co0 O8 2.074 . S
Co0 O11 2.093 . S
Co0 O24 2.097 . S
Co0 N41 2.151 . S
Co0 N49 2.214 . S
Co1 O2 2.160 . S
Co1 O7 2.058 . S
Co1 O17 2.057 . S
Co1 O32 2.037 . S
Co1 N36 2.145 . S
Co1 N57 2.257 . S
O2 Co0 2.143 . S
O2 Co1 2.160 . S
C3 O4 1.278 . S
C3 O11 1.224 . S
O4 C3 1.278 . S
C5 O6 1.245 . S
C5 O17 1.232 . S
O6 C5 1.245 . S
O7 Co1 2.058 . S
O7 C33 1.269 . S
O8 Co0 2.074 . S
O8 C33 1.257 . S
H9 C34 0.930 . S
H10 C40 0.930 . S
O11 Co0 2.093 . S
O11 C3 1.224 . S
H12 C44 0.929 . S
H13 C46 0.930 . S
H14 C47 0.930 . S
H15 C45 0.929 . S
H16 C48 0.928 . S
O17 Co1 2.057 . S
O17 C5 1.232 . S
H18 C37 0.929 . S
H19 C38 0.929 . S
H20 C50 0.931 . S
H21 C42 0.929 . S
H22 C51 0.930 . S
H23 C43 0.931 . S
O24 Co0 2.097 . S
O24 C52 1.214 . S
H25 C53 0.929 . S
H26 C54 0.929 . S
H27 C55 0.930 . S
H28 C56 0.929 . S
H29 C58 0.930 . S
H30 C35 0.930 . S
H31 C39 0.930 . S
O32 Co1 2.037 . S
O32 C52 1.234 . S
C33 O7 1.269 . S
C33 O8 1.257 . S
C34 H9 0.930 . S
C34 C37 1.388 . S
C34 C39 1.418 . S
C35 H30 0.930 . S
C35 C38 1.404 . S
C35 C39 1.353 . S
N36 Co1 2.145 . S
N36 C37 1.397 . S
N36 C38 1.334 . S
C37 H18 0.929 . S
C37 C34 1.388 . S
C37 N36 1.397 . S
C38 H19 0.929 . S
C38 C35 1.404 . S
C38 N36 1.334 . S
C39 H31 0.930 . S
C39 C34 1.418 . S
C39 C35 1.353 . S
C40 H10 0.930 . S
C40 N41 1.330 . S
C40 C42 1.446 . S
N41 Co0 2.151 . S
N41 C40 1.330 . S
N41 C45 1.418 . S
C42 H21 0.929 . S
C42 C40 1.446 . S
C42 C43 1.332 . S
C43 H23 0.931 . S
C43 C42 1.332 . S
C43 C44 1.267 . S
C44 H12 0.929 . S
C44 C43 1.267 . S
C44 C45 1.251 . S
C45 H15 0.929 . S
C45 N41 1.418 . S
C45 C44 1.251 . S
C46 H13 0.930 . S
C46 C48 1.406 . S
C46 C51 1.261 . S
C47 H14 0.930 . S
C47 N49 1.325 . S
C47 C50 1.357 . S
C48 H16 0.928 . S
C48 C46 1.406 . S
C48 N49 1.261 . S
N49 Co0 2.214 . S
N49 C47 1.325 . S
N49 C48 1.261 . S
C50 H20 0.931 . S
C50 C47 1.357 . S
C50 C51 1.312 . S
C51 H22 0.930 . S
C51 C46 1.261 . S
C51 C50 1.312 . S
C52 O24 1.214 . S
C52 O32 1.234 . S
C53 H25 0.929 . S
C53 C56 1.391 . S
C53 C58 1.391 . S
C54 H26 0.929 . S
C54 C55 1.390 . S
C54 N57 1.391 . S
C55 H27 0.930 . S
C55 C54 1.390 . S
C55 C56 1.392 . S
C56 H28 0.929 . S
C56 C53 1.391 . S
C56 C55 1.392 . S
N57 Co1 2.257 . S
N57 C54 1.391 . S
N57 C58 1.388 . S
C58 H29 0.930 . S
C58 C53 1.391 . S
C58 N57 1.388 . S
Co59 O61 2.143 . S
Co59 O67 2.074 . S
Co59 O70 2.093 . S
Co59 O83 2.097 . S
Co59 N100 2.151 . S
Co59 N108 2.214 . S
Co60 O61 2.160 . S
Co60 O66 2.058 . S
Co60 O76 2.057 . S
Co60 O91 2.037 . S
Co60 N95 2.145 . S
Co60 N116 2.257 . S
O61 Co59 2.143 . S
O61 Co60 2.160 . S
C62 O63 1.278 . S
C62 O70 1.224 . S
O63 C62 1.278 . S
C64 O65 1.245 . S
C64 O76 1.232 . S
O65 C64 1.245 . S
O66 Co60 2.058 . S
O66 C92 1.269 . S
O67 Co59 2.074 . S
O67 C92 1.257 . S
H68 C93 0.930 . S
H69 C99 0.930 . S
O70 Co59 2.093 . S
O70 C62 1.224 . S
H71 C103 0.929 . S
H72 C105 0.930 . S
H73 C106 0.930 . S
H74 C104 0.929 . S
H75 C107 0.928 . S
O76 Co60 2.057 . S
O76 C64 1.232 . S
H77 C96 0.929 . S
H78 C97 0.929 . S
H79 C109 0.931 . S
H80 C101 0.929 . S
H81 C110 0.930 . S
H82 C102 0.931 . S
O83 Co59 2.097 . S
O83 C111 1.214 . S
H84 C112 0.929 . S
H85 C113 0.929 . S
H86 C114 0.930 . S
H87 C115 0.929 . S
H88 C117 0.930 . S
H89 C94 0.930 . S
H90 C98 0.930 . S
O91 Co60 2.037 . S
O91 C111 1.234 . S
C92 O66 1.269 . S
C92 O67 1.257 . S
C93 H68 0.930 . S
C93 C96 1.388 . S
C93 C98 1.418 . S
C94 H89 0.930 . S
C94 C97 1.404 . S
C94 C98 1.353 . S
N95 Co60 2.145 . S
N95 C96 1.397 . S
N95 C97 1.334 . S
C96 H77 0.929 . S
C96 C93 1.388 . S
C96 N95 1.397 . S
C97 H78 0.929 . S
C97 C94 1.404 . S
C97 N95 1.334 . S
C98 H90 0.930 . S
C98 C93 1.418 . S
C98 C94 1.353 . S
C99 H69 0.930 . S
C99 N100 1.330 . S
C99 C101 1.446 . S
N100 Co59 2.151 . S
N100 C99 1.330 . S
N100 C104 1.418 . S
C101 H80 0.929 . S
C101 C99 1.446 . S
C101 C102 1.332 . S
C102 H82 0.931 . S
C102 C101 1.332 . S
C102 C103 1.267 . S
C103 H71 0.929 . S
C103 C102 1.267 . S
C103 C104 1.251 . S
C104 H74 0.929 . S
C104 N100 1.418 . S
C104 C103 1.251 . S
C105 H72 0.930 . S
C105 C107 1.406 . S
C105 C110 1.261 . S
C106 H73 0.930 . S
C106 N108 1.325 . S
C106 C109 1.357 . S
C107 H75 0.928 . S
C107 C105 1.406 . S
C107 N108 1.261 . S
N108 Co59 2.214 . S
N108 C106 1.325 . S
N108 C107 1.261 . S
C109 H79 0.931 . S
C109 C106 1.357 . S
C109 C110 1.312 . S
C110 H81 0.930 . S
C110 C105 1.261 . S
C110 C109 1.312 . S
C111 O83 1.214 . S
C111 O91 1.234 . S
C112 H84 0.929 . S
C112 C115 1.391 . S
C112 C117 1.391 . S
C113 H85 0.929 . S
C113 C114 1.390 . S
C113 N116 1.391 . S
C114 H86 0.930 . S
C114 C113 1.390 . S
C114 C115 1.392 . S
C115 H87 0.929 . S
C115 C112 1.391 . S
C115 C114 1.392 . S
N116 Co60 2.257 . S
N116 C113 1.391 . S
N116 C117 1.388 . S
C117 H88 0.930 . S
C117 C112 1.391 . S
C117 N116 1.388 . S
Co118 O120 2.143 . S
Co118 O126 2.074 . S
Co118 O129 2.093 . S
Co118 O142 2.097 . S
Co118 N159 2.151 . S
Co118 N167 2.214 . S
Co119 O120 2.160 . S
Co119 O125 2.058 . S
Co119 O135 2.057 . S
Co119 O150 2.037 . S
Co119 N154 2.145 . S
Co119 N175 2.257 . S
O120 Co118 2.143 . S
O120 Co119 2.160 . S
C121 O122 1.278 . S
C121 O129 1.224 . S
O122 C121 1.278 . S
C123 O124 1.245 . S
C123 O135 1.232 . S
O124 C123 1.245 . S
O125 Co119 2.058 . S
O125 C151 1.269 . S
O126 Co118 2.074 . S
O126 C151 1.257 . S
H127 C152 0.930 . S
H128 C158 0.930 . S
O129 Co118 2.093 . S
O129 C121 1.224 . S
H130 C162 0.929 . S
H131 C164 0.930 . S
H132 C165 0.930 . S
H133 C163 0.929 . S
H134 C166 0.928 . S
O135 Co119 2.057 . S
O135 C123 1.232 . S
H136 C155 0.929 . S
H137 C156 0.929 . S
H138 C168 0.931 . S
H139 C160 0.929 . S
H140 C169 0.930 . S
H141 C161 0.931 . S
O142 Co118 2.097 . S
O142 C170 1.214 . S
H143 C171 0.929 . S
H144 C172 0.929 . S
H145 C173 0.930 . S
H146 C174 0.929 . S
H147 C176 0.930 . S
H148 C153 0.930 . S
H149 C157 0.930 . S
O150 Co119 2.037 . S
O150 C170 1.234 . S
C151 O125 1.269 . S
C151 O126 1.257 . S
C152 H127 0.930 . S
C152 C155 1.388 . S
C152 C157 1.418 . S
C153 H148 0.930 . S
C153 C156 1.404 . S
C153 C157 1.353 . S
N154 Co119 2.145 . S
N154 C155 1.397 . S
N154 C156 1.334 . S
C155 H136 0.929 . S
C155 C152 1.388 . S
C155 N154 1.397 . S
C156 H137 0.929 . S
C156 C153 1.404 . S
C156 N154 1.334 . S
C157 H149 0.930 . S
C157 C152 1.418 . S
C157 C153 1.353 . S
C158 H128 0.930 . S
C158 N159 1.330 . S
C158 C160 1.446 . S
N159 Co118 2.151 . S
N159 C158 1.330 . S
N159 C163 1.418 . S
C160 H139 0.929 . S
C160 C158 1.446 . S
C160 C161 1.332 . S
C161 H141 0.931 . S
C161 C160 1.332 . S
C161 C162 1.267 . S
C162 H130 0.929 . S
C162 C161 1.267 . S
C162 C163 1.251 . S
C163 H133 0.929 . S
C163 N159 1.418 . S
C163 C162 1.251 . S
C164 H131 0.930 . S
C164 C166 1.406 . S
C164 C169 1.261 . S
C165 H132 0.930 . S
C165 N167 1.325 . S
C165 C168 1.357 . S
C166 H134 0.928 . S
C166 C164 1.406 . S
C166 N167 1.261 . S
N167 Co118 2.214 . S
N167 C165 1.325 . S
N167 C166 1.261 . S
C168 H138 0.931 . S
C168 C165 1.357 . S
C168 C169 1.312 . S
C169 H140 0.930 . S
C169 C164 1.261 . S
C169 C168 1.312 . S
C170 O142 1.214 . S
C170 O150 1.234 . S
C171 H143 0.929 . S
C171 C174 1.391 . S
C171 C176 1.391 . S
C172 H144 0.929 . S
C172 C173 1.390 . S
C172 N175 1.391 . S
C173 H145 0.930 . S
C173 C172 1.390 . S
C173 C174 1.392 . S
C174 H146 0.929 . S
C174 C171 1.391 . S
C174 C173 1.392 . S
N175 Co119 2.257 . S
N175 C172 1.391 . S
N175 C176 1.388 . S
C176 H147 0.930 . S
C176 C171 1.391 . S
C176 N175 1.388 . S
Co177 O179 2.143 . S
Co177 O185 2.074 . S
Co177 O188 2.093 . S
Co177 O201 2.097 . S
Co177 N218 2.151 . S
Co177 N226 2.214 . S
Co178 O179 2.160 . S
Co178 O184 2.058 . S
Co178 O194 2.057 . S
Co178 O209 2.037 . S
Co178 N213 2.145 . S
Co178 N234 2.257 . S
O179 Co177 2.143 . S
O179 Co178 2.160 . S
C180 O181 1.278 . S
C180 O188 1.224 . S
O181 C180 1.278 . S
C182 O183 1.245 . S
C182 O194 1.232 . S
O183 C182 1.245 . S
O184 Co178 2.058 . S
O184 C210 1.269 . S
O185 Co177 2.074 . S
O185 C210 1.257 . S
H186 C211 0.930 . S
H187 C217 0.930 . S
O188 Co177 2.093 . S
O188 C180 1.224 . S
H189 C221 0.929 . S
H190 C223 0.930 . S
H191 C224 0.930 . S
H192 C222 0.929 . S
H193 C225 0.928 . S
O194 Co178 2.057 . S
O194 C182 1.232 . S
H195 C214 0.929 . S
H196 C215 0.929 . S
H197 C227 0.931 . S
H198 C219 0.929 . S
H199 C228 0.930 . S
H200 C220 0.931 . S
O201 Co177 2.097 . S
O201 C229 1.214 . S
H202 C230 0.929 . S
H203 C231 0.929 . S
H204 C232 0.930 . S
H205 C233 0.929 . S
H206 C235 0.930 . S
H207 C212 0.930 . S
H208 C216 0.930 . S
O209 Co178 2.037 . S
O209 C229 1.234 . S
C210 O184 1.269 . S
C210 O185 1.257 . S
C211 H186 0.930 . S
C211 C214 1.388 . S
C211 C216 1.418 . S
C212 H207 0.930 . S
C212 C215 1.404 . S
C212 C216 1.353 . S
N213 Co178 2.145 . S
N213 C214 1.397 . S
N213 C215 1.334 . S
C214 H195 0.929 . S
C214 C211 1.388 . S
C214 N213 1.397 . S
C215 H196 0.929 . S
C215 C212 1.404 . S
C215 N213 1.334 . S
C216 H208 0.930 . S
C216 C211 1.418 . S
C216 C212 1.353 . S
C217 H187 0.930 . S
C217 N218 1.330 . S
C217 C219 1.446 . S
N218 Co177 2.151 . S
N218 C217 1.330 . S
N218 C222 1.418 . S
C219 H198 0.929 . S
C219 C217 1.446 . S
C219 C220 1.332 . S
C220 H200 0.931 . S
C220 C219 1.332 . S
C220 C221 1.267 . S
C221 H189 0.929 . S
C221 C220 1.267 . S
C221 C222 1.251 . S
C222 H192 0.929 . S
C222 N218 1.418 . S
C222 C221 1.251 . S
C223 H190 0.930 . S
C223 C225 1.406 . S
C223 C228 1.261 . S
C224 H191 0.930 . S
C224 N226 1.325 . S
C224 C227 1.357 . S
C225 H193 0.928 . S
C225 C223 1.406 . S
C225 N226 1.261 . S
N226 Co177 2.214 . S
N226 C224 1.325 . S
N226 C225 1.261 . S
C227 H197 0.931 . S
C227 C224 1.357 . S
C227 C228 1.312 . S
C228 H199 0.930 . S
C228 C223 1.261 . S
C228 C227 1.312 . S
C229 O201 1.214 . S
C229 O209 1.234 . S
C230 H202 0.929 . S
C230 C233 1.391 . S
C230 C235 1.391 . S
C231 H203 0.929 . S
C231 C232 1.390 . S
C231 N234 1.391 . S
C232 H204 0.930 . S
C232 C231 1.390 . S
C232 C233 1.392 . S
C233 H205 0.929 . S
C233 C230 1.391 . S
C233 C232 1.392 . S
N234 Co178 2.257 . S
N234 C231 1.391 . S
N234 C235 1.388 . S
C235 H206 0.930 . S
C235 C230 1.391 . S
C235 N234 1.388 . S
Co236 O238 2.143 . S
Co236 O244 2.074 . S
Co236 O247 2.093 . S
Co236 O260 2.097 . S
Co236 N277 2.151 . S
Co236 N285 2.214 . S
Co237 O238 2.160 . S
Co237 O243 2.058 . S
Co237 O253 2.057 . S
Co237 O268 2.037 . S
Co237 N272 2.145 . S
Co237 N293 2.257 . S
O238 Co236 2.143 . S
O238 Co237 2.160 . S
C239 O240 1.278 . S
C239 O247 1.224 . S
O240 C239 1.278 . S
C241 O242 1.245 . S
C241 O253 1.232 . S
O242 C241 1.245 . S
O243 Co237 2.058 . S
O243 C269 1.269 . S
O244 Co236 2.074 . S
O244 C269 1.257 . S
H245 C270 0.930 . S
H246 C276 0.930 . S
O247 Co236 2.093 . S
O247 C239 1.224 . S
H248 C280 0.929 . S
H249 C282 0.930 . S
H250 C283 0.930 . S
H251 C281 0.929 . S
H252 C284 0.928 . S
O253 Co237 2.057 . S
O253 C241 1.232 . S
H254 C273 0.929 . S
H255 C274 0.929 . S
H256 C286 0.931 . S
H257 C278 0.929 . S
H258 C287 0.930 . S
H259 C279 0.931 . S
O260 Co236 2.097 . S
O260 C288 1.214 . S
H261 C289 0.929 . S
H262 C290 0.929 . S
H263 C291 0.930 . S
H264 C292 0.929 . S
H265 C294 0.930 . S
H266 C271 0.930 . S
H267 C275 0.930 . S
O268 Co237 2.037 . S
O268 C288 1.234 . S
C269 O243 1.269 . S
C269 O244 1.257 . S
C270 H245 0.930 . S
C270 C273 1.388 . S
C270 C275 1.418 . S
C271 H266 0.930 . S
C271 C274 1.404 . S
C271 C275 1.353 . S
N272 Co237 2.145 . S
N272 C273 1.397 . S
N272 C274 1.334 . S
C273 H254 0.929 . S
C273 C270 1.388 . S
C273 N272 1.397 . S
C274 H255 0.929 . S
C274 C271 1.404 . S
C274 N272 1.334 . S
C275 H267 0.930 . S
C275 C270 1.418 . S
C275 C271 1.353 . S
C276 H246 0.930 . S
C276 N277 1.330 . S
C276 C278 1.446 . S
N277 Co236 2.151 . S
N277 C276 1.330 . S
N277 C281 1.418 . S
C278 H257 0.929 . S
C278 C276 1.446 . S
C278 C279 1.332 . S
C279 H259 0.931 . S
C279 C278 1.332 . S
C279 C280 1.267 . S
C280 H248 0.929 . S
C280 C279 1.267 . S
C280 C281 1.251 . S
C281 H251 0.929 . S
C281 N277 1.418 . S
C281 C280 1.251 . S
C282 H249 0.930 . S
C282 C284 1.406 . S
C282 C287 1.261 . S
C283 H250 0.930 . S
C283 N285 1.325 . S
C283 C286 1.357 . S
C284 H252 0.928 . S
C284 C282 1.406 . S
C284 N285 1.261 . S
N285 Co236 2.214 . S
N285 C283 1.325 . S
N285 C284 1.261 . S
C286 H256 0.931 . S
C286 C283 1.357 . S
C286 C287 1.312 . S
C287 H258 0.930 . S
C287 C282 1.261 . S
C287 C286 1.312 . S
C288 O260 1.214 . S
C288 O268 1.234 . S
C289 H261 0.929 . S
C289 C292 1.391 . S
C289 C294 1.391 . S
C290 H262 0.929 . S
C290 C291 1.390 . S
C290 N293 1.391 . S
C291 H263 0.930 . S
C291 C290 1.390 . S
C291 C292 1.392 . S
C292 H264 0.929 . S
C292 C289 1.391 . S
C292 C291 1.392 . S
N293 Co237 2.257 . S
N293 C290 1.391 . S
N293 C294 1.388 . S
C294 H265 0.930 . S
C294 C289 1.391 . S
C294 N293 1.388 . S
Co295 O297 2.143 . S
Co295 O303 2.074 . S
Co295 O306 2.093 . S
Co295 O319 2.097 . S
Co295 N336 2.151 . S
Co295 N344 2.214 . S
Co296 O297 2.160 . S
Co296 O302 2.058 . S
Co296 O312 2.057 . S
Co296 O327 2.037 . S
Co296 N331 2.145 . S
Co296 N352 2.257 . S
O297 Co295 2.143 . S
O297 Co296 2.160 . S
C298 O299 1.278 . S
C298 O306 1.224 . S
O299 C298 1.278 . S
C300 O301 1.245 . S
C300 O312 1.232 . S
O301 C300 1.245 . S
O302 Co296 2.058 . S
O302 C328 1.269 . S
O303 Co295 2.074 . S
O303 C328 1.257 . S
H304 C329 0.930 . S
H305 C335 0.930 . S
O306 Co295 2.093 . S
O306 C298 1.224 . S
H307 C339 0.929 . S
H308 C341 0.930 . S
H309 C342 0.930 . S
H310 C340 0.929 . S
H311 C343 0.928 . S
O312 Co296 2.057 . S
O312 C300 1.232 . S
H313 C332 0.929 . S
H314 C333 0.929 . S
H315 C345 0.931 . S
H316 C337 0.929 . S
H317 C346 0.930 . S
H318 C338 0.931 . S
O319 Co295 2.097 . S
O319 C347 1.214 . S
H320 C348 0.929 . S
H321 C349 0.929 . S
H322 C350 0.930 . S
H323 C351 0.929 . S
H324 C353 0.930 . S
H325 C330 0.930 . S
H326 C334 0.930 . S
O327 Co296 2.037 . S
O327 C347 1.234 . S
C328 O302 1.269 . S
C328 O303 1.257 . S
C329 H304 0.930 . S
C329 C332 1.388 . S
C329 C334 1.418 . S
C330 H325 0.930 . S
C330 C333 1.404 . S
C330 C334 1.353 . S
N331 Co296 2.145 . S
N331 C332 1.397 . S
N331 C333 1.334 . S
C332 H313 0.929 . S
C332 C329 1.388 . S
C332 N331 1.397 . S
C333 H314 0.929 . S
C333 C330 1.404 . S
C333 N331 1.334 . S
C334 H326 0.930 . S
C334 C329 1.418 . S
C334 C330 1.353 . S
C335 H305 0.930 . S
C335 N336 1.330 . S
C335 C337 1.446 . S
N336 Co295 2.151 . S
N336 C335 1.330 . S
N336 C340 1.418 . S
C337 H316 0.929 . S
C337 C335 1.446 . S
C337 C338 1.332 . S
C338 H318 0.931 . S
C338 C337 1.332 . S
C338 C339 1.267 . S
C339 H307 0.929 . S
C339 C338 1.267 . S
C339 C340 1.251 . S
C340 H310 0.929 . S
C340 N336 1.418 . S
C340 C339 1.251 . S
C341 H308 0.930 . S
C341 C343 1.406 . S
C341 C346 1.261 . S
C342 H309 0.930 . S
C342 N344 1.325 . S
C342 C345 1.357 . S
C343 H311 0.928 . S
C343 C341 1.406 . S
C343 N344 1.261 . S
N344 Co295 2.214 . S
N344 C342 1.325 . S
N344 C343 1.261 . S
C345 H315 0.931 . S
C345 C342 1.357 . S
C345 C346 1.312 . S
C346 H317 0.930 . S
C346 C341 1.261 . S
C346 C345 1.312 . S
C347 O319 1.214 . S
C347 O327 1.234 . S
C348 H320 0.929 . S
C348 C351 1.391 . S
C348 C353 1.391 . S
C349 H321 0.929 . S
C349 C350 1.390 . S
C349 N352 1.391 . S
C350 H322 0.930 . S
C350 C349 1.390 . S
C350 C351 1.392 . S
C351 H323 0.929 . S
C351 C348 1.391 . S
C351 C350 1.392 . S
N352 Co296 2.257 . S
N352 C349 1.391 . S
N352 C353 1.388 . S
C353 H324 0.930 . S
C353 C348 1.391 . S
C353 N352 1.388 . S
Co354 O356 2.143 . S
Co354 O362 2.074 . S
Co354 O365 2.093 . S
Co354 O378 2.097 . S
Co354 N395 2.151 . S
Co354 N403 2.214 . S
Co355 O356 2.160 . S
Co355 O361 2.058 . S
Co355 O371 2.057 . S
Co355 O386 2.037 . S
Co355 N390 2.145 . S
Co355 N411 2.257 . S
O356 Co354 2.143 . S
O356 Co355 2.160 . S
C357 O358 1.278 . S
C357 O365 1.224 . S
O358 C357 1.278 . S
C359 O360 1.245 . S
C359 O371 1.232 . S
O360 C359 1.245 . S
O361 Co355 2.058 . S
O361 C387 1.269 . S
O362 Co354 2.074 . S
O362 C387 1.257 . S
H363 C388 0.930 . S
H364 C394 0.930 . S
O365 Co354 2.093 . S
O365 C357 1.224 . S
H366 C398 0.929 . S
H367 C400 0.930 . S
H368 C401 0.930 . S
H369 C399 0.929 . S
H370 C402 0.928 . S
O371 Co355 2.057 . S
O371 C359 1.232 . S
H372 C391 0.929 . S
H373 C392 0.929 . S
H374 C404 0.931 . S
H375 C396 0.929 . S
H376 C405 0.930 . S
H377 C397 0.931 . S
O378 Co354 2.097 . S
O378 C406 1.214 . S
H379 C407 0.929 . S
H380 C408 0.929 . S
H381 C409 0.930 . S
H382 C410 0.929 . S
H383 C412 0.930 . S
H384 C389 0.930 . S
H385 C393 0.930 . S
O386 Co355 2.037 . S
O386 C406 1.234 . S
C387 O361 1.269 . S
C387 O362 1.257 . S
C388 H363 0.930 . S
C388 C391 1.388 . S
C388 C393 1.418 . S
C389 H384 0.930 . S
C389 C392 1.404 . S
C389 C393 1.353 . S
N390 Co355 2.145 . S
N390 C391 1.397 . S
N390 C392 1.334 . S
C391 H372 0.929 . S
C391 C388 1.388 . S
C391 N390 1.397 . S
C392 H373 0.929 . S
C392 C389 1.404 . S
C392 N390 1.334 . S
C393 H385 0.930 . S
C393 C388 1.418 . S
C393 C389 1.353 . S
C394 H364 0.930 . S
C394 N395 1.330 . S
C394 C396 1.446 . S
N395 Co354 2.151 . S
N395 C394 1.330 . S
N395 C399 1.418 . S
C396 H375 0.929 . S
C396 C394 1.446 . S
C396 C397 1.332 . S
C397 H377 0.931 . S
C397 C396 1.332 . S
C397 C398 1.267 . S
C398 H366 0.929 . S
C398 C397 1.267 . S
C398 C399 1.251 . S
C399 H369 0.929 . S
C399 N395 1.418 . S
C399 C398 1.251 . S
C400 H367 0.930 . S
C400 C402 1.406 . S
C400 C405 1.261 . S
C401 H368 0.930 . S
C401 N403 1.325 . S
C401 C404 1.357 . S
C402 H370 0.928 . S
C402 C400 1.406 . S
C402 N403 1.261 . S
N403 Co354 2.214 . S
N403 C401 1.325 . S
N403 C402 1.261 . S
C404 H374 0.931 . S
C404 C401 1.357 . S
C404 C405 1.312 . S
C405 H376 0.930 . S
C405 C400 1.261 . S
C405 C404 1.312 . S
C406 O378 1.214 . S
C406 O386 1.234 . S
C407 H379 0.929 . S
C407 C410 1.391 . S
C407 C412 1.391 . S
C408 H380 0.929 . S
C408 C409 1.390 . S
C408 N411 1.391 . S
C409 H381 0.930 . S
C409 C408 1.390 . S
C409 C410 1.392 . S
C410 H382 0.929 . S
C410 C407 1.391 . S
C410 C409 1.392 . S
N411 Co355 2.257 . S
N411 C408 1.391 . S
N411 C412 1.388 . S
C412 H383 0.930 . S
C412 C407 1.391 . S
C412 N411 1.388 . S
Co413 O415 2.143 . S
Co413 O421 2.074 . S
Co413 O424 2.093 . S
Co413 O437 2.097 . S
Co413 N454 2.151 . S
Co413 N462 2.214 . S
Co414 O415 2.160 . S
Co414 O420 2.058 . S
Co414 O430 2.057 . S
Co414 O445 2.037 . S
Co414 N449 2.145 . S
Co414 N470 2.257 . S
O415 Co413 2.143 . S
O415 Co414 2.160 . S
C416 O417 1.278 . S
C416 O424 1.224 . S
O417 C416 1.278 . S
C418 O419 1.245 . S
C418 O430 1.232 . S
O419 C418 1.245 . S
O420 Co414 2.058 . S
O420 C446 1.269 . S
O421 Co413 2.074 . S
O421 C446 1.257 . S
H422 C447 0.930 . S
H423 C453 0.930 . S
O424 Co413 2.093 . S
O424 C416 1.224 . S
H425 C457 0.929 . S
H426 C459 0.930 . S
H427 C460 0.930 . S
H428 C458 0.929 . S
H429 C461 0.928 . S
O430 Co414 2.057 . S
O430 C418 1.232 . S
H431 C450 0.929 . S
H432 C451 0.929 . S
H433 C463 0.931 . S
H434 C455 0.929 . S
H435 C464 0.930 . S
H436 C456 0.931 . S
O437 Co413 2.097 . S
O437 C465 1.214 . S
H438 C466 0.929 . S
H439 C467 0.929 . S
H440 C468 0.930 . S
H441 C469 0.929 . S
H442 C471 0.930 . S
H443 C448 0.930 . S
H444 C452 0.930 . S
O445 Co414 2.037 . S
O445 C465 1.234 . S
C446 O420 1.269 . S
C446 O421 1.257 . S
C447 H422 0.930 . S
C447 C450 1.388 . S
C447 C452 1.418 . S
C448 H443 0.930 . S
C448 C451 1.404 . S
C448 C452 1.353 . S
N449 Co414 2.145 . S
N449 C450 1.397 . S
N449 C451 1.334 . S
C450 H431 0.929 . S
C450 C447 1.388 . S
C450 N449 1.397 . S
C451 H432 0.929 . S
C451 C448 1.404 . S
C451 N449 1.334 . S
C452 H444 0.930 . S
C452 C447 1.418 . S
C452 C448 1.353 . S
C453 H423 0.930 . S
C453 N454 1.330 . S
C453 C455 1.446 . S
N454 Co413 2.151 . S
N454 C453 1.330 . S
N454 C458 1.418 . S
C455 H434 0.929 . S
C455 C453 1.446 . S
C455 C456 1.332 . S
C456 H436 0.931 . S
C456 C455 1.332 . S
C456 C457 1.267 . S
C457 H425 0.929 . S
C457 C456 1.267 . S
C457 C458 1.251 . S
C458 H428 0.929 . S
C458 N454 1.418 . S
C458 C457 1.251 . S
C459 H426 0.930 . S
C459 C461 1.406 . S
C459 C464 1.261 . S
C460 H427 0.930 . S
C460 N462 1.325 . S
C460 C463 1.357 . S
C461 H429 0.928 . S
C461 C459 1.406 . S
C461 N462 1.261 . S
N462 Co413 2.214 . S
N462 C460 1.325 . S
N462 C461 1.261 . S
C463 H433 0.931 . S
C463 C460 1.357 . S
C463 C464 1.312 . S
C464 H435 0.930 . S
C464 C459 1.261 . S
C464 C463 1.312 . S
C465 O437 1.214 . S
C465 O445 1.234 . S
C466 H438 0.929 . S
C466 C469 1.391 . S
C466 C471 1.391 . S
C467 H439 0.929 . S
C467 C468 1.390 . S
C467 N470 1.391 . S
C468 H440 0.930 . S
C468 C467 1.390 . S
C468 C469 1.392 . S
C469 H441 0.929 . S
C469 C466 1.391 . S
C469 C468 1.392 . S
N470 Co414 2.257 . S
N470 C467 1.391 . S
N470 C471 1.388 . S
C471 H442 0.930 . S
C471 C466 1.391 . S
C471 N470 1.388 . S
Co472 O474 2.143 . S
Co472 O480 2.074 . S
Co472 O483 2.093 . S
Co472 O496 2.097 . S
Co472 N513 2.151 . S
Co472 N521 2.214 . S
Co473 O474 2.160 . S
Co473 O479 2.058 . S
Co473 O489 2.057 . S
Co473 O504 2.037 . S
Co473 N508 2.145 . S
Co473 N529 2.257 . S
O474 Co472 2.143 . S
O474 Co473 2.160 . S
C475 O476 1.278 . S
C475 O483 1.224 . S
O476 C475 1.278 . S
C477 O478 1.245 . S
C477 O489 1.232 . S
O478 C477 1.245 . S
O479 Co473 2.058 . S
O479 C505 1.269 . S
O480 Co472 2.074 . S
O480 C505 1.257 . S
H481 C506 0.930 . S
H482 C512 0.930 . S
O483 Co472 2.093 . S
O483 C475 1.224 . S
H484 C516 0.929 . S
H485 C518 0.930 . S
H486 C519 0.930 . S
H487 C517 0.929 . S
H488 C520 0.928 . S
O489 Co473 2.057 . S
O489 C477 1.232 . S
H490 C509 0.929 . S
H491 C510 0.929 . S
H492 C522 0.931 . S
H493 C514 0.929 . S
H494 C523 0.930 . S
H495 C515 0.931 . S
O496 Co472 2.097 . S
O496 C524 1.214 . S
H497 C525 0.929 . S
H498 C526 0.929 . S
H499 C527 0.930 . S
H500 C528 0.929 . S
H501 C530 0.930 . S
H502 C507 0.930 . S
H503 C511 0.930 . S
O504 Co473 2.037 . S
O504 C524 1.234 . S
C505 O479 1.269 . S
C505 O480 1.257 . S
C506 H481 0.930 . S
C506 C509 1.388 . S
C506 C511 1.418 . S
C507 H502 0.930 . S
C507 C510 1.404 . S
C507 C511 1.353 . S
N508 Co473 2.145 . S
N508 C509 1.397 . S
N508 C510 1.334 . S
C509 H490 0.929 . S
C509 C506 1.388 . S
C509 N508 1.397 . S
C510 H491 0.929 . S
C510 C507 1.404 . S
C510 N508 1.334 . S
C511 H503 0.930 . S
C511 C506 1.418 . S
C511 C507 1.353 . S
C512 H482 0.930 . S
C512 N513 1.330 . S
C512 C514 1.446 . S
N513 Co472 2.151 . S
N513 C512 1.330 . S
N513 C517 1.418 . S
C514 H493 0.929 . S
C514 C512 1.446 . S
C514 C515 1.332 . S
C515 H495 0.931 . S
C515 C514 1.332 . S
C515 C516 1.267 . S
C516 H484 0.929 . S
C516 C515 1.267 . S
C516 C517 1.251 . S
C517 H487 0.929 . S
C517 N513 1.418 . S
C517 C516 1.251 . S
C518 H485 0.930 . S
C518 C520 1.406 . S
C518 C523 1.261 . S
C519 H486 0.930 . S
C519 N521 1.325 . S
C519 C522 1.357 . S
C520 H488 0.928 . S
C520 C518 1.406 . S
C520 N521 1.261 . S
N521 Co472 2.214 . S
N521 C519 1.325 . S
N521 C520 1.261 . S
C522 H492 0.931 . S
C522 C519 1.357 . S
C522 C523 1.312 . S
C523 H494 0.930 . S
C523 C518 1.261 . S
C523 C522 1.312 . S
C524 O496 1.214 . S
C524 O504 1.234 . S
C525 H497 0.929 . S
C525 C528 1.391 . S
C525 C530 1.391 . S
C526 H498 0.929 . S
C526 C527 1.390 . S
C526 N529 1.391 . S
C527 H499 0.930 . S
C527 C526 1.390 . S
C527 C528 1.392 . S
C528 H500 0.929 . S
C528 C525 1.391 . S
C528 C527 1.392 . S
N529 Co473 2.257 . S
N529 C526 1.391 . S
N529 C530 1.388 . S
C530 H501 0.930 . S
C530 C525 1.391 . S
C530 N529 1.388 . S
Co531 O533 2.143 . S
Co531 O539 2.074 . S
Co531 O542 2.093 . S
Co531 O555 2.097 . S
Co531 N572 2.151 . S
Co531 N580 2.214 . S
Co532 O533 2.160 . S
Co532 O538 2.058 . S
Co532 O548 2.057 . S
Co532 O563 2.037 . S
Co532 N567 2.145 . S
Co532 N588 2.257 . S
O533 Co531 2.143 . S
O533 Co532 2.160 . S
C534 O535 1.278 . S
C534 O542 1.224 . S
O535 C534 1.278 . S
C536 O537 1.245 . S
C536 O548 1.232 . S
O537 C536 1.245 . S
O538 Co532 2.058 . S
O538 C564 1.269 . S
O539 Co531 2.074 . S
O539 C564 1.257 . S
H540 C565 0.930 . S
H541 C571 0.930 . S
O542 Co531 2.093 . S
O542 C534 1.224 . S
H543 C575 0.929 . S
H544 C577 0.930 . S
H545 C578 0.930 . S
H546 C576 0.929 . S
H547 C579 0.928 . S
O548 Co532 2.057 . S
O548 C536 1.232 . S
H549 C568 0.929 . S
H550 C569 0.929 . S
H551 C581 0.931 . S
H552 C573 0.929 . S
H553 C582 0.930 . S
H554 C574 0.931 . S
O555 Co531 2.097 . S
O555 C583 1.214 . S
H556 C584 0.929 . S
H557 C585 0.929 . S
H558 C586 0.930 . S
H559 C587 0.929 . S
H560 C589 0.930 . S
H561 C566 0.930 . S
H562 C570 0.930 . S
O563 Co532 2.037 . S
O563 C583 1.234 . S
C564 O538 1.269 . S
C564 O539 1.257 . S
C565 H540 0.930 . S
C565 C568 1.388 . S
C565 C570 1.418 . S
C566 H561 0.930 . S
C566 C569 1.404 . S
C566 C570 1.353 . S
N567 Co532 2.145 . S
N567 C568 1.397 . S
N567 C569 1.334 . S
C568 H549 0.929 . S
C568 C565 1.388 . S
C568 N567 1.397 . S
C569 H550 0.929 . S
C569 C566 1.404 . S
C569 N567 1.334 . S
C570 H562 0.930 . S
C570 C565 1.418 . S
C570 C566 1.353 . S
C571 H541 0.930 . S
C571 N572 1.330 . S
C571 C573 1.446 . S
N572 Co531 2.151 . S
N572 C571 1.330 . S
N572 C576 1.418 . S
C573 H552 0.929 . S
C573 C571 1.446 . S
C573 C574 1.332 . S
C574 H554 0.931 . S
C574 C573 1.332 . S
C574 C575 1.267 . S
C575 H543 0.929 . S
C575 C574 1.267 . S
C575 C576 1.251 . S
C576 H546 0.929 . S
C576 N572 1.418 . S
C576 C575 1.251 . S
C577 H544 0.930 . S
C577 C579 1.406 . S
C577 C582 1.261 . S
C578 H545 0.930 . S
C578 N580 1.325 . S
C578 C581 1.357 . S
C579 H547 0.928 . S
C579 C577 1.406 . S
C579 N580 1.261 . S
N580 Co531 2.214 . S
N580 C578 1.325 . S
N580 C579 1.261 . S
C581 H551 0.931 . S
C581 C578 1.357 . S
C581 C582 1.312 . S
C582 H553 0.930 . S
C582 C577 1.261 . S
C582 C581 1.312 . S
C583 O555 1.214 . S
C583 O563 1.234 . S
C584 H556 0.929 . S
C584 C587 1.391 . S
C584 C589 1.391 . S
C585 H557 0.929 . S
C585 C586 1.390 . S
C585 N588 1.391 . S
C586 H558 0.930 . S
C586 C585 1.390 . S
C586 C587 1.392 . S
C587 H559 0.929 . S
C587 C584 1.391 . S
C587 C586 1.392 . S
N588 Co532 2.257 . S
N588 C585 1.391 . S
N588 C589 1.388 . S
C589 H560 0.930 . S
C589 C584 1.391 . S
C589 N588 1.388 . S
Co590 O592 2.143 . S
Co590 O598 2.074 . S
Co590 O601 2.093 . S
Co590 O614 2.097 . S
Co590 N631 2.151 . S
Co590 N639 2.214 . S
Co591 O592 2.160 . S
Co591 O597 2.058 . S
Co591 O607 2.057 . S
Co591 O622 2.037 . S
Co591 N626 2.145 . S
Co591 N647 2.257 . S
O592 Co590 2.143 . S
O592 Co591 2.160 . S
C593 O594 1.278 . S
C593 O601 1.224 . S
O594 C593 1.278 . S
C595 O596 1.245 . S
C595 O607 1.232 . S
O596 C595 1.245 . S
O597 Co591 2.058 . S
O597 C623 1.269 . S
O598 Co590 2.074 . S
O598 C623 1.257 . S
H599 C624 0.930 . S
H600 C630 0.930 . S
O601 Co590 2.093 . S
O601 C593 1.224 . S
H602 C634 0.929 . S
H603 C636 0.930 . S
H604 C637 0.930 . S
H605 C635 0.929 . S
H606 C638 0.928 . S
O607 Co591 2.057 . S
O607 C595 1.232 . S
H608 C627 0.929 . S
H609 C628 0.929 . S
H610 C640 0.931 . S
H611 C632 0.929 . S
H612 C641 0.930 . S
H613 C633 0.931 . S
O614 Co590 2.097 . S
O614 C642 1.214 . S
H615 C643 0.929 . S
H616 C644 0.929 . S
H617 C645 0.930 . S
H618 C646 0.929 . S
H619 C648 0.930 . S
H620 C625 0.930 . S
H621 C629 0.930 . S
O622 Co591 2.037 . S
O622 C642 1.234 . S
C623 O597 1.269 . S
C623 O598 1.257 . S
C624 H599 0.930 . S
C624 C627 1.388 . S
C624 C629 1.418 . S
C625 H620 0.930 . S
C625 C628 1.404 . S
C625 C629 1.353 . S
N626 Co591 2.145 . S
N626 C627 1.397 . S
N626 C628 1.334 . S
C627 H608 0.929 . S
C627 C624 1.388 . S
C627 N626 1.397 . S
C628 H609 0.929 . S
C628 C625 1.404 . S
C628 N626 1.334 . S
C629 H621 0.930 . S
C629 C624 1.418 . S
C629 C625 1.353 . S
C630 H600 0.930 . S
C630 N631 1.330 . S
C630 C632 1.446 . S
N631 Co590 2.151 . S
N631 C630 1.330 . S
N631 C635 1.418 . S
C632 H611 0.929 . S
C632 C630 1.446 . S
C632 C633 1.332 . S
C633 H613 0.931 . S
C633 C632 1.332 . S
C633 C634 1.267 . S
C634 H602 0.929 . S
C634 C633 1.267 . S
C634 C635 1.251 . S
C635 H605 0.929 . S
C635 N631 1.418 . S
C635 C634 1.251 . S
C636 H603 0.930 . S
C636 C638 1.406 . S
C636 C641 1.261 . S
C637 H604 0.930 . S
C637 N639 1.325 . S
C637 C640 1.357 . S
C638 H606 0.928 . S
C638 C636 1.406 . S
C638 N639 1.261 . S
N639 Co590 2.214 . S
N639 C637 1.325 . S
N639 C638 1.261 . S
C640 H610 0.931 . S
C640 C637 1.357 . S
C640 C641 1.312 . S
C641 H612 0.930 . S
C641 C636 1.261 . S
C641 C640 1.312 . S
C642 O614 1.214 . S
C642 O622 1.234 . S
C643 H615 0.929 . S
C643 C646 1.391 . S
C643 C648 1.391 . S
C644 H616 0.929 . S
C644 C645 1.390 . S
C644 N647 1.391 . S
C645 H617 0.930 . S
C645 C644 1.390 . S
C645 C646 1.392 . S
C646 H618 0.929 . S
C646 C643 1.391 . S
C646 C645 1.392 . S
N647 Co591 2.257 . S
N647 C644 1.391 . S
N647 C648 1.388 . S
C648 H619 0.930 . S
C648 C643 1.391 . S
C648 N647 1.388 . S
Co649 O651 2.143 . S
Co649 O657 2.074 . S
Co649 O660 2.093 . S
Co649 O673 2.097 . S
Co649 N690 2.151 . S
Co649 N698 2.214 . S
Co650 O651 2.160 . S
Co650 O656 2.058 . S
Co650 O666 2.057 . S
Co650 O681 2.037 . S
Co650 N685 2.145 . S
Co650 N706 2.257 . S
O651 Co649 2.143 . S
O651 Co650 2.160 . S
C652 O653 1.278 . S
C652 O660 1.224 . S
O653 C652 1.278 . S
C654 O655 1.245 . S
C654 O666 1.232 . S
O655 C654 1.245 . S
O656 Co650 2.058 . S
O656 C682 1.269 . S
O657 Co649 2.074 . S
O657 C682 1.257 . S
H658 C683 0.930 . S
H659 C689 0.930 . S
O660 Co649 2.093 . S
O660 C652 1.224 . S
H661 C693 0.929 . S
H662 C695 0.930 . S
H663 C696 0.930 . S
H664 C694 0.929 . S
H665 C697 0.928 . S
O666 Co650 2.057 . S
O666 C654 1.232 . S
H667 C686 0.929 . S
H668 C687 0.929 . S
H669 C699 0.931 . S
H670 C691 0.929 . S
H671 C700 0.930 . S
H672 C692 0.931 . S
O673 Co649 2.097 . S
O673 C701 1.214 . S
H674 C702 0.929 . S
H675 C703 0.929 . S
H676 C704 0.930 . S
H677 C705 0.929 . S
H678 C707 0.930 . S
H679 C684 0.930 . S
H680 C688 0.930 . S
O681 Co650 2.037 . S
O681 C701 1.234 . S
C682 O656 1.269 . S
C682 O657 1.257 . S
C683 H658 0.930 . S
C683 C686 1.388 . S
C683 C688 1.418 . S
C684 H679 0.930 . S
C684 C687 1.404 . S
C684 C688 1.353 . S
N685 Co650 2.145 . S
N685 C686 1.397 . S
N685 C687 1.334 . S
C686 H667 0.929 . S
C686 C683 1.388 . S
C686 N685 1.397 . S
C687 H668 0.929 . S
C687 C684 1.404 . S
C687 N685 1.334 . S
C688 H680 0.930 . S
C688 C683 1.418 . S
C688 C684 1.353 . S
C689 H659 0.930 . S
C689 N690 1.330 . S
C689 C691 1.446 . S
N690 Co649 2.151 . S
N690 C689 1.330 . S
N690 C694 1.418 . S
C691 H670 0.929 . S
C691 C689 1.446 . S
C691 C692 1.332 . S
C692 H672 0.931 . S
C692 C691 1.332 . S
C692 C693 1.267 . S
C693 H661 0.929 . S
C693 C692 1.267 . S
C693 C694 1.251 . S
C694 H664 0.929 . S
C694 N690 1.418 . S
C694 C693 1.251 . S
C695 H662 0.930 . S
C695 C697 1.406 . S
C695 C700 1.261 . S
C696 H663 0.930 . S
C696 N698 1.325 . S
C696 C699 1.357 . S
C697 H665 0.928 . S
C697 C695 1.406 . S
C697 N698 1.261 . S
N698 Co649 2.214 . S
N698 C696 1.325 . S
N698 C697 1.261 . S
C699 H669 0.931 . S
C699 C696 1.357 . S
C699 C700 1.312 . S
C700 H671 0.930 . S
C700 C695 1.261 . S
C700 C699 1.312 . S
C701 O673 1.214 . S
C701 O681 1.234 . S
C702 H674 0.929 . S
C702 C705 1.391 . S
C702 C707 1.391 . S
C703 H675 0.929 . S
C703 C704 1.390 . S
C703 N706 1.391 . S
C704 H676 0.930 . S
C704 C703 1.390 . S
C704 C705 1.392 . S
C705 H677 0.929 . S
C705 C702 1.391 . S
C705 C704 1.392 . S
N706 Co650 2.257 . S
N706 C703 1.391 . S
N706 C707 1.388 . S
C707 H678 0.930 . S
C707 C702 1.391 . S
C707 N706 1.388 . S
C708 C709 1.369 . S
C708 C710 1.419 1_556 S
C708 H712 0.930 . S
C709 C708 1.369 . S
C709 C718 1.429 . S
C710 C708 1.419 1_554 S
C710 C711 1.363 . S
C710 H713 0.929 . S
C711 C710 1.363 . S
C711 C717 1.428 . S
H712 C708 0.930 . S
H713 C710 0.929 . S
S714 N715 1.613 . S
S714 N716 1.610 1_556 S
N715 S714 1.613 . S
N715 C718 1.350 . S
N716 S714 1.610 1_554 S
N716 C717 1.351 . S
C717 C711 1.428 . S
C717 N716 1.351 . S
C717 C718 1.434 1_554 S
C718 C709 1.429 . S
C718 N715 1.350 . S
C718 C717 1.434 1_556 S
C719 C720 1.369 . S
C719 C721 1.419 . S
C719 H723 0.930 . S
C720 C719 1.369 . S
C720 C729 1.429 . S
C721 C719 1.419 . S
C721 C722 1.363 . S
C721 H724 0.929 . S
C722 C721 1.363 . S
C722 C728 1.428 . S
H723 C719 0.930 . S
H724 C721 0.929 . S
S725 N726 1.613 . S
S725 N727 1.610 . S
N726 S725 1.613 . S
N726 C729 1.350 . S
N727 S725 1.610 . S
N727 C728 1.351 . S
C728 C722 1.428 . S
C728 N727 1.351 . S
C728 C729 1.434 . S
C729 C720 1.429 . S
C729 N726 1.350 . S
C729 C728 1.434 . S
C730 C731 1.369 . S
C730 C732 1.419 . S
C730 H734 0.930 . S
C731 C730 1.369 . S
C731 C740 1.429 . S
C732 C730 1.419 . S
C732 C733 1.363 . S
C732 H735 0.929 . S
C733 C732 1.363 . S
C733 C739 1.428 . S
H734 C730 0.930 . S
H735 C732 0.929 . S
S736 N737 1.613 . S
S736 N738 1.610 . S
N737 S736 1.613 . S
N737 C740 1.350 . S
N738 S736 1.610 . S
N738 C739 1.351 . S
C739 C733 1.428 . S
C739 N738 1.351 . S
C739 C740 1.434 . S
C740 C731 1.429 . S
C740 N737 1.350 . S
C740 C739 1.434 . S
C741 C742 1.369 . S
C741 C743 1.419 1_554 S
C741 H745 0.930 . S
C742 C741 1.369 . S
C742 C751 1.429 . S
C743 C741 1.419 1_556 S
C743 C744 1.363 . S
C743 H746 0.929 . S
C744 C743 1.363 . S
C744 C750 1.428 . S
H745 C741 0.930 . S
H746 C743 0.929 . S
S747 N748 1.613 . S
S747 N749 1.610 1_554 S
N748 S747 1.613 . S
N748 C751 1.350 . S
N749 S747 1.610 1_556 S
N749 C750 1.351 . S
C750 C744 1.428 . S
C750 N749 1.351 . S
C750 C751 1.434 1_556 S
C751 C742 1.429 . S
C751 N748 1.350 . S
C751 C750 1.434 1_554 S
C752 C753 1.369 . S
C752 C754 1.419 . S
C752 H756 0.930 . S
C753 C752 1.369 . S
C753 C762 1.429 . S
C754 C752 1.419 . S
C754 C755 1.363 . S
C754 H757 0.929 . S
C755 C754 1.363 . S
C755 C761 1.428 . S
H756 C752 0.930 . S
H757 C754 0.929 . S
S758 N759 1.613 . S
S758 N760 1.610 . S
N759 S758 1.613 . S
N759 C762 1.350 . S
N760 S758 1.610 . S
N760 C761 1.351 . S
C761 C755 1.428 . S
C761 N760 1.351 . S
C761 C762 1.434 . S
C762 C753 1.429 . S
C762 N759 1.350 . S
C762 C761 1.434 . S
C763 C764 1.369 . S
C763 C765 1.419 . S
C763 H767 0.930 . S
C764 C763 1.369 . S
C764 C773 1.429 . S
C765 C763 1.419 . S
C765 C766 1.363 . S
C765 H768 0.929 . S
C766 C765 1.363 . S
C766 C772 1.428 . S
H767 C763 0.930 . S
H768 C765 0.929 . S
S769 N770 1.613 . S
S769 N771 1.610 . S
N770 S769 1.613 . S
N770 C773 1.350 . S
N771 S769 1.610 . S
N771 C772 1.351 . S
C772 C766 1.428 . S
C772 N771 1.351 . S
C772 C773 1.434 . S
C773 C764 1.429 . S
C773 N770 1.350 . S
C773 C772 1.434 . S
C774 C775 1.369 . S
C774 C776 1.419 . S
C774 H778 0.930 . S
C775 C774 1.369 . S
C775 C784 1.429 . S
C776 C774 1.419 . S
C776 C777 1.363 . S
C776 H779 0.929 . S
C777 C776 1.363 . S
C777 C783 1.428 . S
H778 C774 0.930 . S
H779 C776 0.929 . S
S780 N781 1.613 . S
S780 N782 1.610 . S
N781 S780 1.613 . S
N781 C784 1.350 . S
N782 S780 1.610 . S
N782 C783 1.351 . S
C783 C777 1.428 . S
C783 N782 1.351 . S
C783 C784 1.434 . S
C784 C775 1.429 . S
C784 N781 1.350 . S
C784 C783 1.434 . S
C785 C786 1.369 . S
C785 C787 1.419 . S
C785 H789 0.930 . S
C786 C785 1.369 . S
C786 C795 1.429 . S
C787 C785 1.419 . S
C787 C788 1.363 . S
C787 H790 0.929 . S
C788 C787 1.363 . S
C788 C794 1.428 . S
H789 C785 0.930 . S
H790 C787 0.929 . S
S791 N792 1.613 . S
S791 N793 1.610 . S
N792 S791 1.613 . S
N792 C795 1.350 . S
N793 S791 1.610 . S
N793 C794 1.351 . S
C794 C788 1.428 . S
C794 N793 1.351 . S
C794 C795 1.434 . S
C795 C786 1.429 . S
C795 N792 1.350 . S
C795 C794 1.434 . S
C796 C797 1.369 . S
C796 C798 1.419 . S
C796 H800 0.930 . S
C797 C796 1.369 . S
C797 C806 1.429 . S
C798 C796 1.419 . S
C798 C799 1.363 . S
C798 H801 0.929 . S
C799 C798 1.363 . S
C799 C805 1.428 . S
H800 C796 0.930 . S
H801 C798 0.929 . S
S802 N803 1.613 . S
S802 N804 1.610 . S
N803 S802 1.613 . S
N803 C806 1.350 . S
N804 S802 1.610 . S
N804 C805 1.351 . S
C805 C799 1.428 . S
C805 N804 1.351 . S
C805 C806 1.434 . S
C806 C797 1.429 . S
C806 N803 1.350 . S
C806 C805 1.434 . S
C807 C808 1.369 . S
C807 C809 1.419 . S
C807 H811 0.930 . S
C808 C807 1.369 . S
C808 C817 1.429 . S
C809 C807 1.419 . S
C809 C810 1.363 . S
C809 H812 0.929 . S
C810 C809 1.363 . S
C810 C816 1.428 . S
H811 C807 0.930 . S
H812 C809 0.929 . S
S813 N814 1.613 . S
S813 N815 1.610 . S
N814 S813 1.613 . S
N814 C817 1.350 . S
N815 S813 1.610 . S
N815 C816 1.351 . S
C816 C810 1.428 . S
C816 N815 1.351 . S
C816 C817 1.434 . S
C817 C808 1.429 . S
C817 N814 1.350 . S
C817 C816 1.434 . S
C818 C819 1.369 . S
C818 C820 1.419 . S
C818 H822 0.930 . S
C819 C818 1.369 . S
C819 C828 1.429 . S
C820 C818 1.419 . S
C820 C821 1.363 . S
C820 H823 0.929 . S
C821 C820 1.363 . S
C821 C827 1.428 . S
H822 C818 0.930 . S
H823 C820 0.929 . S
S824 N825 1.613 . S
S824 N826 1.610 . S
N825 S824 1.613 . S
N825 C828 1.350 . S
N826 S824 1.610 . S
N826 C827 1.351 . S
C827 C821 1.428 . S
C827 N826 1.351 . S
C827 C828 1.434 . S
C828 C819 1.429 . S
C828 N825 1.350 . S
C828 C827 1.434 . S
C829 C830 1.369 . S
C829 C831 1.419 . S
C829 H833 0.930 . S
C830 C829 1.369 . S
C830 C839 1.429 . S
C831 C829 1.419 . S
C831 C832 1.363 . S
C831 H834 0.929 . S
C832 C831 1.363 . S
C832 C838 1.428 . S
H833 C829 0.930 . S
H834 C831 0.929 . S
S835 N836 1.613 . S
S835 N837 1.610 . S
N836 S835 1.613 . S
N836 C839 1.350 . S
N837 S835 1.610 . S
N837 C838 1.351 . S
C838 C832 1.428 . S
C838 N837 1.351 . S
C838 C839 1.434 . S
C839 C830 1.429 . S
C839 N836 1.350 . S
C839 C838 1.434 . S
C840 C841 1.369 . S
C840 C842 1.419 1_655 S
C840 H844 0.930 . S
C841 C840 1.369 . S
C841 C850 1.429 . S
C842 C840 1.419 1_455 S
C842 C843 1.363 . S
C842 H845 0.929 . S
C843 C842 1.363 . S
C843 C849 1.428 . S
H844 C840 0.930 . S
H845 C842 0.929 . S
S846 N847 1.613 1_455 S
S846 N848 1.610 . S
N847 S846 1.613 1_655 S
N847 C850 1.350 . S
N848 S846 1.610 . S
N848 C849 1.351 . S
C849 C843 1.428 . S
C849 N848 1.351 . S
C849 C850 1.434 1_455 S
C850 C841 1.429 . S
C850 N847 1.350 . S
C850 C849 1.434 1_655 S
C851 C852 1.369 . S
C851 C853 1.419 1_545 S
C851 H855 0.930 . S
C852 C851 1.369 . S
C852 C861 1.429 . S
C853 C851 1.419 1_565 S
C853 C854 1.363 . S
C853 H856 0.929 . S
C854 C853 1.363 . S
C854 C860 1.428 . S
H855 C851 0.930 . S
H856 C853 0.929 . S
S857 N858 1.613 . S
S857 N859 1.610 1_545 S
N858 S857 1.613 . S
N858 C861 1.350 . S
N859 S857 1.610 1_565 S
N859 C860 1.351 . S
C860 C854 1.428 . S
C860 N859 1.351 . S
C860 C861 1.434 1_565 S
C861 C852 1.429 . S
C861 N858 1.350 . S
C861 C860 1.434 1_545 S
C862 C863 1.369 . S
C862 C864 1.419 . S
C862 H866 0.930 . S
C863 C862 1.369 . S
C863 C872 1.429 . S
C864 C862 1.419 . S
C864 C865 1.363 . S
C864 H867 0.929 . S
C865 C864 1.363 . S
C865 C871 1.428 . S
H866 C862 0.930 . S
H867 C864 0.929 . S
S868 N869 1.613 . S
S868 N870 1.610 . S
N869 S868 1.613 . S
N869 C872 1.350 . S
N870 S868 1.610 . S
N870 C871 1.351 . S
C871 C865 1.428 . S
C871 N870 1.351 . S
C871 C872 1.434 . S
C872 C863 1.429 . S
C872 N869 1.350 . S
C872 C871 1.434 . S
C873 C874 1.369 . S
C873 C875 1.419 1_545 S
C873 H877 0.930 . S
C874 C873 1.369 . S
C874 C883 1.429 . S
C875 C873 1.419 1_565 S
C875 C876 1.363 . S
C875 H878 0.929 . S
C876 C875 1.363 . S
C876 C882 1.428 . S
H877 C873 0.930 . S
H878 C875 0.929 . S
S879 N880 1.613 . S
S879 N881 1.610 1_545 S
N880 S879 1.613 . S
N880 C883 1.350 . S
N881 S879 1.610 1_565 S
N881 C882 1.351 . S
C882 C876 1.428 . S
C882 N881 1.351 . S
C882 C883 1.434 1_565 S
C883 C874 1.429 . S
C883 N880 1.350 . S
C883 C882 1.434 1_545 S
C884 C885 1.369 . S
C884 C886 1.419 . S
C884 H888 0.930 . S
C885 C884 1.369 . S
C885 C894 1.429 . S
C886 C884 1.419 . S
C886 C887 1.363 . S
C886 H889 0.929 . S
C887 C886 1.363 . S
C887 C893 1.428 . S
H888 C884 0.930 . S
H889 C886 0.929 . S
S890 N891 1.613 . S
S890 N892 1.610 . S
N891 S890 1.613 . S
N891 C894 1.350 . S
N892 S890 1.610 . S
N892 C893 1.351 . S
C893 C887 1.428 . S
C893 N892 1.351 . S
C893 C894 1.434 . S
C894 C885 1.429 . S
C894 N891 1.350 . S
C894 C893 1.434 . S
C895 C896 1.369 . S
C895 C897 1.419 1_455 S
C895 H899 0.930 . S
C896 C895 1.369 . S
C896 C905 1.429 . S
C897 C895 1.419 1_655 S
C897 C898 1.363 . S
C897 H900 0.929 . S
C898 C897 1.363 . S
C898 C904 1.428 . S
H899 C895 0.930 . S
H900 C897 0.929 . S
S901 N902 1.613 . S
S901 N903 1.610 1_455 S
N902 S901 1.613 . S
N902 C905 1.350 . S
N903 S901 1.610 1_655 S
N903 C904 1.351 . S
C904 C898 1.428 . S
C904 N903 1.351 . S
C904 C905 1.434 1_655 S
C905 C896 1.429 . S
C905 N902 1.350 . S
C905 C904 1.434 1_455 S
C906 C907 1.369 . S
C906 C908 1.419 . S
C906 H910 0.930 . S
C907 C906 1.369 . S
C907 C916 1.429 . S
C908 C906 1.419 . S
C908 C909 1.363 . S
C908 H911 0.929 . S
C909 C908 1.363 . S
C909 C915 1.428 . S
H910 C906 0.930 . S
H911 C908 0.929 . S
S912 N913 1.613 . S
S912 N914 1.610 . S
N913 S912 1.613 . S
N913 C916 1.350 . S
N914 S912 1.610 . S
N914 C915 1.351 . S
C915 C909 1.428 . S
C915 N914 1.351 . S
C915 C916 1.434 . S
C916 C907 1.429 . S
C916 N913 1.350 . S
C916 C915 1.434 . S
C917 C918 1.369 . S
C917 C919 1.419 1_655 S
C917 H921 0.930 . S
C918 C917 1.369 . S
C918 C927 1.429 . S
C919 C917 1.419 1_455 S
C919 C920 1.363 . S
C919 H922 0.929 . S
C920 C919 1.363 . S
C920 C926 1.428 . S
H921 C917 0.930 . S
H922 C919 0.929 . S
S923 N924 1.613 1_455 S
S923 N925 1.610 . S
N924 S923 1.613 1_655 S
N924 C927 1.350 . S
N925 S923 1.610 . S
N925 C926 1.351 . S
C926 C920 1.428 . S
C926 N925 1.351 . S
C926 C927 1.434 1_455 S
C927 C918 1.429 . S
C927 N924 1.350 . S
C927 C926 1.434 1_655 S
C928 C929 1.369 . S
C928 C930 1.419 1_545 S
C928 H932 0.930 . S
C929 C928 1.369 . S
C929 C938 1.429 . S
C930 C928 1.419 1_565 S
C930 C931 1.363 . S
C930 H933 0.929 . S
C931 C930 1.363 . S
C931 C937 1.428 . S
H932 C928 0.930 . S
H933 C930 0.929 . S
S934 N935 1.613 1_565 S
S934 N936 1.610 . S
N935 S934 1.613 1_545 S
N935 C938 1.350 . S
N936 S934 1.610 . S
N936 C937 1.351 . S
C937 C931 1.428 . S
C937 N936 1.351 . S
C937 C938 1.434 1_565 S
C938 C929 1.429 . S
C938 N935 1.350 . S
C938 C937 1.434 1_545 S
C939 C940 1.369 . S
C939 C941 1.419 . S
C939 H943 0.930 . S
C940 C939 1.369 . S
C940 C949 1.429 . S
C941 C939 1.419 . S
C941 C942 1.363 . S
C941 H944 0.929 . S
C942 C941 1.363 . S
C942 C948 1.428 . S
H943 C939 0.930 . S
H944 C941 0.929 . S
S945 N946 1.613 . S
S945 N947 1.610 . S
N946 S945 1.613 . S
N946 C949 1.350 . S
N947 S945 1.610 . S
N947 C948 1.351 . S
C948 C942 1.428 . S
C948 N947 1.351 . S
C948 C949 1.434 . S
C949 C940 1.429 . S
C949 N946 1.350 . S
C949 C948 1.434 . S
C950 C951 1.369 . S
C950 C952 1.419 1_455 S
C950 H954 0.930 . S
C951 C950 1.369 . S
C951 C960 1.429 . S
C952 C950 1.419 1_655 S
C952 C953 1.363 . S
C952 H955 0.929 . S
C953 C952 1.363 . S
C953 C959 1.428 . S
H954 C950 0.930 . S
H955 C952 0.929 . S
S956 N957 1.613 . S
S956 N958 1.610 1_455 S
N957 S956 1.613 . S
N957 C960 1.350 . S
N958 S956 1.610 1_655 S
N958 C959 1.351 . S
C959 C953 1.428 . S
C959 N958 1.351 . S
C959 C960 1.434 1_655 S
C960 C951 1.429 . S
C960 N957 1.350 . S
C960 C959 1.434 1_455 S
C961 C962 1.369 . S
C961 C963 1.419 1_565 S
C961 H965 0.930 . S
C962 C961 1.369 . S
C962 C971 1.429 . S
C963 C961 1.419 1_545 S
C963 C964 1.363 . S
C963 H966 0.929 . S
C964 C963 1.363 . S
C964 C970 1.428 . S
H965 C961 0.930 . S
H966 C963 0.929 . S
S967 N968 1.613 . S
S967 N969 1.610 1_565 S
N968 S967 1.613 . S
N968 C971 1.350 . S
N969 S967 1.610 1_545 S
N969 C970 1.351 . S
C970 C964 1.428 . S
C970 N969 1.351 . S
C970 C971 1.434 1_545 S
C971 C962 1.429 . S
C971 N968 1.350 . S
C971 C970 1.434 1_565 S
C709 C593 1.471 . S
C711 C3 1.470 . S
C720 C62 1.470 . S
C722 C652 1.469 . S
C731 C121 1.469 . S
C733 C357 1.469 . S
C742 C180 1.470 . S
C744 C416 1.470 . S
C753 C475 1.473 . S
C755 C239 1.472 . S
C764 C298 1.473 . S
C766 C534 1.472 . S
C775 C505 1.386 . S
C777 C33 1.390 . S
C786 C92 1.393 . S
C788 C564 1.385 . S
C797 C151 1.392 . S
C799 C623 1.384 . S
C808 C210 1.383 . S
C810 C682 1.391 . S
C819 C387 1.386 . S
C821 C269 1.388 . S
C830 C446 1.392 . S
C832 C328 1.384 . S
C841 C229 1.655 . S
C843 C52 1.655 . S
C852 C111 1.657 . S
C854 C288 1.657 . S
C863 C347 1.655 . S
C865 C170 1.655 . S
C874 C583 1.654 . S
C876 C406 1.655 . S
C885 C642 1.655 . S
C887 C465 1.655 . S
C896 C524 1.656 . S
C898 C701 1.656 . S
C907 C182 1.328 . S
C909 C5 1.330 . S
C918 C64 1.330 . S
C920 C241 1.330 . S
C929 C300 1.330 . S
C931 C123 1.329 . S
C940 C359 1.331 . S
C942 C536 1.328 . S
C951 C595 1.328 . S
C953 C418 1.330 . S
C962 C477 1.328 . S
C964 C654 1.331 . S
