# Generated by pormake.
# Topology ukt, (4)-cn, num edge types: 1
# Building blocks:
#     Node 0, Type 0, BuildingBlock: CEKHIL_clean_sbu_0, # of connection points: 4
#     Node 1, Type 0, BuildingBlock: CEKHIL_clean_sbu_0, # of connection points: 4
#     Node 2, Type 0, BuildingBlock: CEKHIL_clean_sbu_0, # of connection points: 4
#     Node 3, Type 0, BuildingBlock: CEKHIL_clean_sbu_0, # of connection points: 4
#     Node 4, Type 0, BuildingBlock: CEKHIL_clean_sbu_0, # of connection points: 4
#     Node 5, Type 0, BuildingBlock: CEKHIL_clean_sbu_0, # of connection points: 4
#     Node 6, Type 0, BuildingBlock: CEKHIL_clean_sbu_0, # of connection points: 4
#     Node 7, Type 0, BuildingBlock: CEKHIL_clean_sbu_0, # of connection points: 4
#     Node 8, Type 0, BuildingBlock: CEKHIL_clean_sbu_0, # of connection points: 4
#     Node 9, Type 0, BuildingBlock: CEKHIL_clean_sbu_0, # of connection points: 4
#     Node 10, Type 0, BuildingBlock: CEKHIL_clean_sbu_0, # of connection points: 4
#     Node 11, Type 0, BuildingBlock: CEKHIL_clean_sbu_0, # of connection points: 4
#     Node 12, Type 0, BuildingBlock: CEKHIL_clean_sbu_0, # of connection points: 4
#     Node 13, Type 0, BuildingBlock: CEKHIL_clean_sbu_0, # of connection points: 4
#     Node 14, Type 0, BuildingBlock: CEKHIL_clean_sbu_0, # of connection points: 4
#     Node 15, Type 0, BuildingBlock: CEKHIL_clean_sbu_0, # of connection points: 4
#     Edge 16, Type (0, 0), BuildingBlock: CIFDUS_clean_linker_0, # of connection points: 2
#     Edge 17, Type (0, 0), BuildingBlock: CIFDUS_clean_linker_0, # of connection points: 2
#     Edge 18, Type (0, 0), BuildingBlock: CIFDUS_clean_linker_0, # of connection points: 2
#     Edge 19, Type (0, 0), BuildingBlock: CIFDUS_clean_linker_0, # of connection points: 2
#     Edge 20, Type (0, 0), BuildingBlock: CIFDUS_clean_linker_0, # of connection points: 2
#     Edge 21, Type (0, 0), BuildingBlock: CIFDUS_clean_linker_0, # of connection points: 2
#     Edge 22, Type (0, 0), BuildingBlock: CIFDUS_clean_linker_0, # of connection points: 2
#     Edge 23, Type (0, 0), BuildingBlock: CIFDUS_clean_linker_0, # of connection points: 2
#     Edge 24, Type (0, 0), BuildingBlock: CIFDUS_clean_linker_0, # of connection points: 2
#     Edge 25, Type (0, 0), BuildingBlock: CIFDUS_clean_linker_0, # of connection points: 2
#     Edge 26, Type (0, 0), BuildingBlock: CIFDUS_clean_linker_0, # of connection points: 2
#     Edge 27, Type (0, 0), BuildingBlock: CIFDUS_clean_linker_0, # of connection points: 2
#     Edge 28, Type (0, 0), BuildingBlock: CIFDUS_clean_linker_0, # of connection points: 2
#     Edge 29, Type (0, 0), BuildingBlock: CIFDUS_clean_linker_0, # of connection points: 2
#     Edge 30, Type (0, 0), BuildingBlock: CIFDUS_clean_linker_0, # of connection points: 2
#     Edge 31, Type (0, 0), BuildingBlock: CIFDUS_clean_linker_0, # of connection points: 2
#     Edge 32, Type (0, 0), BuildingBlock: CIFDUS_clean_linker_0, # of connection points: 2
#     Edge 33, Type (0, 0), BuildingBlock: CIFDUS_clean_linker_0, # of connection points: 2
#     Edge 34, Type (0, 0), BuildingBlock: CIFDUS_clean_linker_0, # of connection points: 2
#     Edge 35, Type (0, 0), BuildingBlock: CIFDUS_clean_linker_0, # of connection points: 2
#     Edge 36, Type (0, 0), BuildingBlock: CIFDUS_clean_linker_0, # of connection points: 2
#     Edge 37, Type (0, 0), BuildingBlock: CIFDUS_clean_linker_0, # of connection points: 2
#     Edge 38, Type (0, 0), BuildingBlock: CIFDUS_clean_linker_0, # of connection points: 2
#     Edge 39, Type (0, 0), BuildingBlock: CIFDUS_clean_linker_0, # of connection points: 2
#     Edge 40, Type (0, 0), BuildingBlock: CIFDUS_clean_linker_0, # of connection points: 2
#     Edge 41, Type (0, 0), BuildingBlock: CIFDUS_clean_linker_0, # of connection points: 2
#     Edge 42, Type (0, 0), BuildingBlock: CIFDUS_clean_linker_0, # of connection points: 2
#     Edge 43, Type (0, 0), BuildingBlock: CIFDUS_clean_linker_0, # of connection points: 2
#     Edge 44, Type (0, 0), BuildingBlock: CIFDUS_clean_linker_0, # of connection points: 2
#     Edge 45, Type (0, 0), BuildingBlock: CIFDUS_clean_linker_0, # of connection points: 2
#     Edge 46, Type (0, 0), BuildingBlock: CIFDUS_clean_linker_0, # of connection points: 2
#     Edge 47, Type (0, 0), BuildingBlock: CIFDUS_clean_linker_0, # of connection points: 2
# Relax obj value: 0.282
# Max RMSD: 0.165
# Mean RMSD: 0.165
data_MOF--net-ukt--node1-CEKHIL_clean_sbu_0--edge1-CIFDUS_clean_linker_0
_symmetry_space_group_name_H-M    P1
_symmetry_Int_Tables_number       1
_symmetry_cell_setting            triclinic
loop_
_symmetry_equiv_pos_as_xyz
'x, y, z'
_cell_length_a     36.636629
_cell_length_b     36.560752
_cell_length_c     29.961496
_cell_angle_alpha  89.973223
_cell_angle_beta   90.07109
_cell_angle_gamma 90.014381
loop_
_atom_site_label
_atom_site_type_symbol
_atom_site_fract_x
_atom_site_fract_y
_atom_site_fract_z
_atom_type_partial_charge
Co0 Co 0.54487 0.14307 0.0949 0.0
O1 O 0.52661 0.09357 0.10075 0.0
O2 O 0.52699 0.12578 0.03812 0.0
C3 C 0.51958 0.16888 0.15623 0.0
O4 O 0.56076 0.19341 0.07447 0.0
Co5 Co 0.59854 0.17655 0.16392 0.0
O6 O 0.59167 0.22233 0.12883 0.0
C7 C 0.6258 0.1227 0.09922 0.0
C8 C 0.52064 0.09481 0.05791 0.0
C9 C 0.57696 0.22175 0.09024 0.0
O10 O 0.59445 0.12307 0.07995 0.0
O11 O 0.63239 0.13997 0.13553 0.0
O12 O 0.50038 0.1648 0.11997 0.0
O13 O 0.55127 0.15345 0.15592 0.0
Co14 Co 0.36473 0.5215 0.10467 0.0
O15 O 0.41264 0.50335 0.11976 0.0
O16 O 0.38583 0.49725 0.05383 0.0
C17 C 0.33348 0.50425 0.1661 0.0
O18 O 0.3165 0.53609 0.07649 0.0
Co19 Co 0.33071 0.58452 0.15971 0.0
O20 O 0.28686 0.57462 0.12238 0.0
C21 C 0.38585 0.60213 0.09232 0.0
C22 C 0.41493 0.49318 0.07824 0.0
C23 C 0.28842 0.55533 0.08697 0.0
O24 O 0.38689 0.56811 0.08219 0.0
O25 O 0.36696 0.61463 0.12484 0.0
O26 O 0.34009 0.48084 0.13442 0.0
O27 O 0.35037 0.53519 0.16257 0.0
Co28 Co 0.95495 0.35983 0.10879 0.0
O29 O 0.97179 0.41006 0.11352 0.0
O30 O 0.97593 0.37577 0.05294 0.0
C31 C 0.97671 0.33655 0.17374 0.0
O32 O 0.94144 0.30828 0.08999 0.0
Co33 Co 0.89786 0.32755 0.17437 0.0
O34 O 0.90871 0.28051 0.14356 0.0
C35 C 0.8735 0.37807 0.10398 0.0
C36 C 0.98036 0.40761 0.07145 0.0
C37 C 0.92548 0.27996 0.10629 0.0
O38 O 0.90599 0.37799 0.08789 0.0
O39 O 0.86506 0.36196 0.14051 0.0
O40 O 0.99813 0.33996 0.13933 0.0
O41 O 0.94497 0.35148 0.16954 0.0
Co42 Co 0.1406 0.95937 0.11021 0.0
O43 O 0.09201 0.97641 0.12459 0.0
O44 O 0.11758 0.97957 0.05779 0.0
C45 C 0.17176 0.98231 0.16936 0.0
O46 O 0.18891 0.94578 0.08196 0.0
Co47 Co 0.18049 0.90273 0.16985 0.0
O48 O 0.22268 0.9126 0.12978 0.0
C49 C 0.12301 0.87736 0.10878 0.0
C50 C 0.08885 0.98456 0.08245 0.0
C51 C 0.21865 0.92941 0.0928 0.0
O52 O 0.12036 0.91005 0.0934 0.0
O53 O 0.1434 0.86901 0.14201 0.0
O54 O 0.16369 0.00309 0.13549 0.0
O55 O 0.15685 0.95027 0.16889 0.0
Co56 Co 0.52754 0.36145 0.39022 0.0
O57 O 0.51242 0.41179 0.3823 0.0
O58 O 0.50186 0.37805 0.44236 0.0
C59 C 0.51209 0.33755 0.32323 0.0
O60 O 0.53858 0.31042 0.41221 0.0
Co61 Co 0.59082 0.32826 0.335 0.0
O62 O 0.57977 0.2825 0.36855 0.0
C63 C 0.60786 0.37943 0.40743 0.0
C64 C 0.50063 0.40993 0.42328 0.0
C65 C 0.55815 0.28259 0.40188 0.0
O66 O 0.57399 0.37927 0.41809 0.0
O67 O 0.62023 0.36322 0.37272 0.0
O68 O 0.48745 0.34178 0.35409 0.0
O69 O 0.54348 0.35214 0.33163 0.0
Co70 Co 0.14273 0.54518 0.40298 0.0
O71 O 0.09508 0.52746 0.38594 0.0
O72 O 0.11741 0.52718 0.45473 0.0
C73 C 0.17627 0.52 0.34769 0.0
O74 O 0.1897 0.56011 0.43411 0.0
Co75 Co 0.18601 0.59919 0.34347 0.0
O76 O 0.22657 0.58896 0.38565 0.0
C77 C 0.12758 0.62741 0.40135 0.0
C78 C 0.08988 0.52136 0.42827 0.0
C79 C 0.22047 0.57465 0.4237 0.0
O80 O 0.12135 0.59479 0.41509 0.0
O81 O 0.15173 0.63523 0.37203 0.0
O82 O 0.16691 0.50061 0.38227 0.0
O83 O 0.16153 0.55205 0.34512 0.0
Co84 Co 0.9596 0.13959 0.40232 0.0
O85 O 0.97612 0.08956 0.39298 0.0
O86 O 0.97987 0.12022 0.45651 0.0
C87 C 0.98183 0.16714 0.34011 0.0
O88 O 0.94623 0.18915 0.42724 0.0
Co89 Co 0.90306 0.17783 0.3409 0.0
O90 O 0.91044 0.22105 0.38047 0.0
C91 C 0.87847 0.12091 0.40333 0.0
C92 C 0.98397 0.0895 0.43547 0.0
C93 C 0.9283 0.21804 0.41683 0.0
O94 O 0.91057 0.12027 0.42052 0.0
O95 O 0.87046 0.13967 0.36856 0.0
O96 O 0.00306 0.16118 0.37424 0.0
O97 O 0.94976 0.15266 0.34266 0.0
Co98 Co 0.35196 0.9794 0.42397 0.0
O99 O 0.40104 0.99607 0.41162 0.0
O100 O 0.37128 0.00442 0.4752 0.0
C101 C 0.323 0.99598 0.3603 0.0
O102 O 0.30276 0.96644 0.45016 0.0
Co103 Co 0.31789 0.91618 0.36909 0.0
O104 O 0.27355 0.92678 0.40528 0.0
C105 C 0.37311 0.89907 0.43669 0.0
C106 C 0.40158 0.00713 0.45295 0.0
C107 C 0.27475 0.94712 0.43983 0.0
O108 O 0.37257 0.93274 0.44849 0.0
O109 O 0.35552 0.88688 0.40286 0.0
O110 O 0.32908 0.01991 0.39161 0.0
O111 O 0.33911 0.96483 0.36572 0.0
Co112 Co 0.46393 0.84952 0.91853 0.0
O113 O 0.47895 0.89921 0.90485 0.0
O114 O 0.49535 0.86779 0.96478 0.0
C115 C 0.47125 0.82257 0.85049 0.0
O116 O 0.45459 0.79972 0.9459 0.0
Co117 Co 0.39525 0.81425 0.87526 0.0
O118 O 0.41017 0.76984 0.90911 0.0
C119 C 0.38626 0.87095 0.94364 0.0
C120 C 0.49528 0.89876 0.94354 0.0
C121 C 0.43442 0.77148 0.93959 0.0
O122 O 0.42063 0.86952 0.95204 0.0
O123 O 0.37133 0.85385 0.91113 0.0
O124 O 0.49942 0.82764 0.87639 0.0
O125 O 0.44162 0.83792 0.86411 0.0
Co126 Co 0.64865 0.44933 0.90392 0.0
O127 O 0.59926 0.46431 0.89132 0.0
O128 O 0.62623 0.46844 0.95736 0.0
C129 C 0.6766 0.4733 0.84351 0.0
O130 O 0.69859 0.43742 0.92961 0.0
Co131 Co 0.68754 0.39388 0.84187 0.0
O132 O 0.73124 0.40712 0.87796 0.0
C133 C 0.6335 0.3669 0.90608 0.0
C134 C 0.59669 0.47198 0.93357 0.0
C135 C 0.72854 0.42313 0.91563 0.0
O136 O 0.63071 0.39951 0.92143 0.0
O137 O 0.65281 0.35891 0.87185 0.0
O138 O 0.66917 0.49388 0.87776 0.0
O139 O 0.66282 0.44079 0.84464 0.0
Co140 Co 0.04422 0.64794 0.91939 0.0
O141 O 0.02749 0.59807 0.91046 0.0
O142 O 0.01431 0.63252 0.96891 0.0
C143 C 0.03464 0.67172 0.85001 0.0
O144 O 0.056 0.69923 0.94146 0.0
Co145 Co 0.11234 0.67752 0.86906 0.0
O146 O 0.09827 0.7249 0.89688 0.0
C147 C 0.12211 0.62467 0.94167 0.0
C148 C 0.01278 0.60059 0.94991 0.0
C149 C 0.07574 0.72655 0.92923 0.0
O150 O 0.08827 0.62839 0.95185 0.0
O151 O 0.13645 0.63914 0.90695 0.0
O152 O 0.00751 0.66861 0.87787 0.0
O153 O 0.06434 0.65595 0.86282 0.0
Co154 Co 0.85826 0.05206 0.91027 0.0
O155 O 0.90798 0.03848 0.89685 0.0
O156 O 0.87997 0.02755 0.96092 0.0
C157 C 0.83088 0.03448 0.84564 0.0
O158 O 0.80776 0.06115 0.93619 0.0
Co159 Co 0.82035 0.11351 0.85542 0.0
O160 O 0.7763 0.0967 0.8883 0.0
C161 C 0.87549 0.13351 0.92173 0.0
C162 C 0.90984 0.02623 0.93755 0.0
C163 C 0.77814 0.07678 0.92316 0.0
O164 O 0.87587 0.10018 0.93543 0.0
O165 O 0.85777 0.14394 0.88717 0.0
O166 O 0.83854 0.0103 0.87617 0.0
O167 O 0.84454 0.06651 0.8527 0.0
Co168 Co 0.47155 0.64911 0.58673 0.0
O169 O 0.48654 0.59873 0.59507 0.0
O170 O 0.49703 0.63209 0.53468 0.0
C171 C 0.4872 0.67374 0.65374 0.0
O172 O 0.46039 0.70014 0.56417 0.0
Co173 Co 0.40822 0.6822 0.64236 0.0
O174 O 0.41976 0.72784 0.60902 0.0
C175 C 0.39117 0.62981 0.57152 0.0
C176 C 0.49828 0.60033 0.55405 0.0
C177 C 0.44092 0.72788 0.57526 0.0
O178 O 0.42475 0.63106 0.55941 0.0
O179 O 0.37931 0.64577 0.60663 0.0
O180 O 0.51197 0.66859 0.62321 0.0
O181 O 0.45587 0.65915 0.64505 0.0
Co182 Co 0.85172 0.46692 0.58333 0.0
O183 O 0.89937 0.48366 0.60145 0.0
O184 O 0.87451 0.49285 0.53487 0.0
C185 C 0.81989 0.48244 0.64512 0.0
O186 O 0.80423 0.45428 0.55217 0.0
Co187 Co 0.81452 0.40284 0.63372 0.0
O188 O 0.77257 0.41412 0.59385 0.0
C189 C 0.87182 0.38653 0.56824 0.0
C190 C 0.90289 0.49559 0.56078 0.0
C191 C 0.77575 0.43475 0.55974 0.0
O192 O 0.8737 0.42075 0.55918 0.0
O193 O 0.8518 0.37362 0.59952 0.0
O194 O 0.82706 0.50686 0.61478 0.0
O195 O 0.83579 0.45121 0.63979 0.0
Co196 Co 0.02844 0.84922 0.58942 0.0
O197 O 0.00491 0.8961 0.59733 0.0
O198 O 0.0038 0.86342 0.53514 0.0
C199 C 0.01304 0.82073 0.65421 0.0
O200 O 0.05 0.80126 0.56761 0.0
Co201 Co 0.09341 0.82997 0.65248 0.0
O202 O 0.09961 0.7889 0.6097 0.0
C203 C 0.10492 0.88303 0.58115 0.0
C204 C 0.99651 0.89411 0.55513 0.0
C205 C 0.0787 0.78235 0.57657 0.0
O206 O 0.07291 0.87531 0.5666 0.0
O207 O 0.11743 0.87058 0.61804 0.0
O208 O 0.9897 0.82243 0.62144 0.0
O209 O 0.04172 0.84082 0.64907 0.0
Co210 Co 0.64814 0.04811 0.59178 0.0
O211 O 0.59804 0.0355 0.60356 0.0
O212 O 0.63037 0.0154 0.54612 0.0
C213 C 0.67197 0.04279 0.6614 0.0
O214 O 0.69963 0.05562 0.56864 0.0
Co215 Co 0.67977 0.1191 0.6342 0.0
O216 O 0.72641 0.09995 0.60943 0.0
C217 C 0.62831 0.12486 0.5599 0.0
C218 C 0.5988 0.018 0.56578 0.0
C219 C 0.72751 0.07498 0.57974 0.0
O220 O 0.63093 0.09022 0.55398 0.0
O221 O 0.64267 0.14159 0.59307 0.0
O222 O 0.66716 0.01365 0.63705 0.0
O223 O 0.65735 0.0721 0.64547 0.0
H224 H 0.58193 0.22171 1.0002 0.0
H225 H 0.58279 0.29343 0.11454 0.0
H226 H 0.59629 0.34561 0.0661 0.0
H227 H 0.61289 0.36953 0.99272 0.0
H228 H 0.61748 0.29696 0.8792 0.0
H229 H 0.59639 0.24628 0.92593 0.0
C230 C 0.58451 0.24888 0.0144 0.0
C231 C 0.58141 0.25381 0.06083 0.0
C232 C 0.59346 0.27843 0.98658 0.0
C233 C 0.5853 0.28901 0.07891 0.0
C234 C 0.593 0.31878 0.05125 0.0
C235 C 0.60876 0.34278 0.9779 0.0
C236 C 0.61677 0.33704 0.93245 0.0
C237 C 0.59789 0.31363 0.00522 0.0
C238 C 0.61164 0.30207 0.91407 0.0
C239 C 0.59964 0.2731 0.94079 0.0
H240 H 0.18676 0.59117 0.92433 0.0
H241 H 0.11163 0.61577 0.03102 0.0
H242 H 0.15538 0.59281 0.08575 0.0
H243 H 0.21756 0.57223 0.10374 0.0
H244 H 0.29209 0.54622 0.99695 0.0
H245 H 0.24579 0.56264 0.94187 0.0
C246 C 0.17983 0.59109 0.95953 0.0
C247 C 0.14632 0.60572 0.97365 0.0
C248 C 0.20504 0.57773 0.99083 0.0
C249 C 0.13735 0.60481 0.01927 0.0
C250 C 0.16241 0.59183 0.05064 0.0
C251 C 0.22343 0.56966 0.06839 0.0
C252 C 0.25832 0.55858 0.05443 0.0
C253 C 0.19672 0.57921 0.03688 0.0
C254 C 0.26543 0.55474 0.00857 0.0
C255 C 0.23906 0.56437 0.97702 0.0
H256 H 0.88785 0.13127 0.01104 0.0
H257 H 0.90198 0.19964 0.89487 0.0
H258 H 0.92339 0.24971 0.94207 0.0
H259 H 0.93166 0.27599 0.01642 0.0
H260 H 0.9125 0.20956 0.13318 0.0
H261 H 0.89984 0.15663 0.08565 0.0
C262 C 0.89628 0.1569 0.99599 0.0
C263 C 0.89324 0.1618 0.94953 0.0
C264 C 0.90733 0.186 0.02348 0.0
C265 C 0.90386 0.19529 0.93057 0.0
C266 C 0.91606 0.22394 0.95753 0.0
C267 C 0.92539 0.24978 0.03156 0.0
C268 C 0.92287 0.24675 0.07827 0.0
C269 C 0.91695 0.2199 0.00408 0.0
C270 C 0.91435 0.21266 0.09729 0.0
C271 C 0.90707 0.18242 0.07013 0.0
H272 H 0.31916 0.89936 0.92765 0.0
H273 H 0.39905 0.884 0.03193 0.0
H274 H 0.3548 0.90404 0.08772 0.0
H275 H 0.29121 0.91869 0.10755 0.0
H276 H 0.21196 0.93514 1.0027 0.0
H277 H 0.25826 0.92227 0.94652 0.0
C278 C 0.32703 0.90092 0.96252 0.0
C279 C 0.36206 0.88964 0.97574 0.0
C280 C 0.30148 0.91234 0.99439 0.0
C281 C 0.37217 0.89244 0.0209 0.0
C282 C 0.34681 0.90365 0.05288 0.0
C283 C 0.28425 0.91987 0.07237 0.0
C284 C 0.24811 0.92722 0.05934 0.0
C285 C 0.31104 0.9125 0.04014 0.0
C286 C 0.23957 0.92939 0.01365 0.0
C287 C 0.26597 0.92187 0.98145 0.0
H288 H 0.58475 0.21365 0.38864 0.0
H289 H 0.53657 0.28353 0.48873 0.0
H290 H 0.55195 0.23952 0.54657 0.0
H291 H 0.58602 0.18497 0.57013 0.0
H292 H 0.63176 0.11341 0.47052 0.0
H293 H 0.61034 0.15412 0.41124 0.0
C294 C 0.57701 0.21889 0.42298 0.0
C295 C 0.56014 0.25213 0.43431 0.0
C296 C 0.58596 0.19341 0.45635 0.0
C297 C 0.54973 0.25826 0.47892 0.0
C298 C 0.55876 0.23322 0.51223 0.0
C299 C 0.59083 0.17817 0.53539 0.0
C300 C 0.61087 0.14675 0.52458 0.0
C301 C 0.57802 0.20137 0.50153 0.0
C302 C 0.61644 0.13765 0.47953 0.0
C303 C 0.60434 0.16095 0.44566 0.0
H304 H 0.32007 0.61208 0.58817 0.0
H305 H 0.40287 0.60781 0.48572 0.0
H306 H 0.3577 0.58737 0.43162 0.0
H307 H 0.29365 0.57689 0.41138 0.0
H308 H 0.21091 0.57964 0.51362 0.0
H309 H 0.25714 0.59407 0.56979 0.0
C310 C 0.32833 0.60629 0.55415 0.0
C311 C 0.3647 0.61218 0.54096 0.0
C312 C 0.30219 0.59448 0.52301 0.0
C313 C 0.37502 0.60388 0.49686 0.0
C314 C 0.34918 0.59227 0.46574 0.0
C315 C 0.28587 0.58027 0.44607 0.0
C316 C 0.24897 0.57776 0.45829 0.0
C317 C 0.31253 0.58849 0.47814 0.0
C318 C 0.23921 0.58149 0.50341 0.0
C319 C 0.26558 0.58995 0.5355 0.0
H320 H 0.89246 0.3159 0.58344 0.0
H321 H 0.89056 0.3997 0.48192 0.0
H322 H 0.90988 0.3555 0.42599 0.0
H323 H 0.9214 0.29153 0.40427 0.0
H324 H 0.92673 0.20851 0.50641 0.0
H325 H 0.91235 0.25379 0.56348 0.0
C326 C 0.89682 0.32455 0.54923 0.0
C327 C 0.88962 0.36089 0.53688 0.0
C328 C 0.90827 0.29904 0.51711 0.0
C329 C 0.89587 0.37186 0.49246 0.0
C330 C 0.90671 0.34654 0.46026 0.0
C331 C 0.91983 0.28357 0.4391 0.0
C332 C 0.92468 0.24678 0.45107 0.0
C333 C 0.91204 0.30985 0.47195 0.0
C334 C 0.92314 0.23676 0.49637 0.0
C335 C 0.91472 0.26258 0.52905 0.0
H336 H 0.17074 0.91437 0.60074 0.0
H337 H 0.09484 0.89633 0.49248 0.0
H338 H 0.13977 0.91811 0.43909 0.0
H339 H 0.20319 0.93468 0.42202 0.0
H340 H 0.27863 0.95468 0.52991 0.0
H341 H 0.23125 0.94025 0.58435 0.0
C342 C 0.16383 0.91576 0.56557 0.0
C343 C 0.12974 0.90297 0.55071 0.0
C344 C 0.18983 0.92839 0.53478 0.0
C345 C 0.12099 0.90564 0.50502 0.0
C346 C 0.14674 0.91795 0.47426 0.0
C347 C 0.209 0.93642 0.45747 0.0
C348 C 0.24438 0.94512 0.47196 0.0
C349 C 0.18164 0.92817 0.48861 0.0
C350 C 0.25153 0.94796 0.51795 0.0
C351 C 0.22453 0.93948 0.54912 0.0
H352 H 0.42784 0.69832 0.92666 0.0
H353 H 0.4411 0.7801 0.02897 0.0
H354 H 0.42978 0.7343 0.08676 0.0
H355 H 0.40907 0.67227 0.10747 0.0
H356 H 0.40005 0.58989 0.0048 0.0
H357 H 0.41728 0.63434 0.94829 0.0
C358 C 0.42898 0.70582 0.96167 0.0
C359 C 0.43496 0.74239 0.97362 0.0
C360 C 0.42292 0.6793 0.99473 0.0
C361 C 0.43671 0.75194 0.01903 0.0
C362 C 0.42996 0.72585 0.05209 0.0
C363 C 0.41151 0.66398 0.07285 0.0
C364 C 0.40276 0.62798 0.06043 0.0
C365 C 0.42196 0.68963 0.04027 0.0
C366 C 0.40654 0.61746 0.01544 0.0
C367 C 0.41621 0.64291 0.9829 0.0
H368 H 0.72817 0.42354 0.00619 0.0
H369 H 0.80037 0.4201 0.89259 0.0
H370 H 0.85257 0.4104 0.94205 0.0
H371 H 0.87648 0.39653 0.01631 0.0
H372 H 0.80372 0.39519 0.12959 0.0
H373 H 0.753 0.41359 0.08152 0.0
C374 C 0.75543 0.42135 0.99236 0.0
C375 C 0.76043 0.42233 0.94582 0.0
C376 C 0.78514 0.41461 0.02089 0.0
C377 C 0.79583 0.4191 0.9283 0.0
C378 C 0.82565 0.41354 0.95654 0.0
C379 C 0.84969 0.40083 0.03076 0.0
C380 C 0.84392 0.39423 0.07652 0.0
C381 C 0.82047 0.41027 0.00275 0.0
C382 C 0.80891 0.39982 0.09446 0.0
C383 C 0.77986 0.41028 0.06697 0.0
H384 H 0.07199 0.73013 0.01924 0.0
H385 H 0.08179 0.79716 0.90142 0.0
H386 H 0.09201 0.85126 0.94789 0.0
H387 H 0.10526 0.87776 0.02111 0.0
H388 H 0.10266 0.80944 0.13854 0.0
H389 H 0.08217 0.75759 0.09329 0.0
C390 C 0.07552 0.75678 0.00388 0.0
C391 C 0.07596 0.75984 0.95707 0.0
C392 C 0.08308 0.78737 0.03075 0.0
C393 C 0.08133 0.79427 0.93742 0.0
C394 C 0.08728 0.82512 0.96395 0.0
C395 C 0.09949 0.85174 0.03703 0.0
C396 C 0.10544 0.84748 0.08319 0.0
C397 C 0.08926 0.82177 0.01057 0.0
C398 C 0.09837 0.8134 0.10309 0.0
C399 C 0.08674 0.78375 0.07721 0.0
H400 H 0.62626 0.09815 0.01382 0.0
H401 H 0.69478 0.10816 0.13059 0.0
H402 H 0.74771 0.08884 0.08698 0.0
H403 H 0.77573 0.07732 0.01354 0.0
H404 H 0.70752 0.07347 0.89623 0.0
H405 H 0.65315 0.08168 0.94229 0.0
C406 C 0.65259 0.09552 0.0301 0.0
C407 C 0.65654 0.10505 0.07537 0.0
C408 C 0.68306 0.08573 0.00453 0.0
C409 C 0.69097 0.10136 0.09571 0.0
C410 C 0.72129 0.09038 0.07076 0.0
C411 C 0.74885 0.0774 0.99832 0.0
C412 C 0.74548 0.07492 0.95168 0.0
C413 C 0.71787 0.0837 0.02483 0.0
C414 C 0.71065 0.07554 0.93211 0.0
C415 C 0.67962 0.08033 0.95839 0.0
H416 H 0.4258 0.79883 0.59435 0.0
H417 H 0.44917 0.72572 0.48513 0.0
H418 H 0.4321 0.77307 0.43155 0.0
H419 H 0.40377 0.83305 0.41614 0.0
H420 H 0.38344 0.90687 0.52572 0.0
H421 H 0.40621 0.86166 0.57848 0.0
C422 C 0.42782 0.79357 0.5588 0.0
C423 C 0.43834 0.75881 0.54375 0.0
C424 C 0.41806 0.82091 0.52816 0.0
C425 C 0.44126 0.75237 0.49759 0.0
C426 C 0.43117 0.77932 0.46689 0.0
C427 C 0.40478 0.8393 0.45151 0.0
C428 C 0.39148 0.87301 0.46699 0.0
C429 C 0.41844 0.81331 0.48183 0.0
C430 C 0.39346 0.88106 0.51286 0.0
C431 C 0.40636 0.85519 0.54318 0.0
H432 H 0.70328 0.42538 0.57251 0.0
H433 H 0.78439 0.43953 0.46981 0.0
H434 H 0.73893 0.42576 0.41239 0.0
H435 H 0.67747 0.40345 0.39225 0.0
H436 H 0.59611 0.39209 0.49554 0.0
H437 H 0.64015 0.41128 0.55158 0.0
C438 C 0.71078 0.42597 0.53749 0.0
C439 C 0.74706 0.43301 0.52534 0.0
C440 C 0.68454 0.41821 0.50474 0.0
C441 C 0.7565 0.43424 0.4799 0.0
C442 C 0.7306 0.4261 0.44709 0.0
C443 C 0.66933 0.40559 0.42694 0.0
C444 C 0.63373 0.39582 0.43966 0.0
C445 C 0.69476 0.41705 0.45922 0.0
C446 C 0.62338 0.3993 0.48471 0.0
C447 C 0.64858 0.41016 0.51694 0.0
H448 H 0.16181 0.68468 0.43737 0.0
H449 H 0.05578 0.63494 0.42449 0.0
H450 H 0.03004 0.67999 0.47654 0.0
H451 H 0.03912 0.73166 0.52945 0.0
H452 H 0.14771 0.77471 0.54824 0.0
H453 H 0.17117 0.73414 0.49063 0.0
C454 C 0.13289 0.68432 0.4452 0.0
C455 C 0.11043 0.65737 0.42645 0.0
C456 C 0.11898 0.70868 0.47697 0.0
C457 C 0.07332 0.65608 0.43804 0.0
C458 C 0.05874 0.68156 0.46803 0.0
C459 C 0.06787 0.7319 0.52086 0.0
C460 C 0.09174 0.75577 0.54326 0.0
C461 C 0.0815 0.70762 0.4884 0.0
C462 C 0.12896 0.75603 0.53198 0.0
C463 C 0.14237 0.7331 0.49878 0.0
H464 H 0.73129 0.06942 0.49027 0.0
H465 H 0.7978 0.07716 0.60868 0.0
H466 H 0.85227 0.08625 0.56276 0.0
H467 H 0.87884 0.10083 0.49024 0.0
H468 H 0.81099 0.1007 0.37232 0.0
H469 H 0.75911 0.07945 0.41662 0.0
C470 C 0.75792 0.07205 0.50583 0.0
C471 C 0.7608 0.07248 0.5526 0.0
C472 C 0.78865 0.07923 0.47932 0.0
C473 C 0.79517 0.0767 0.57265 0.0
C474 C 0.82617 0.08208 0.54644 0.0
C475 C 0.85292 0.09546 0.47396 0.0
C476 C 0.84871 0.1026 0.42807 0.0
C477 C 0.82296 0.08476 0.49988 0.0
C478 C 0.81485 0.09572 0.40765 0.0
C479 C 0.78519 0.08361 0.43297 0.0
H480 H 0.48217 0.96981 0.91927 0.0
H481 H 0.53354 0.904 0.02113 0.0
H482 H 0.54391 0.95835 0.06651 0.0
H483 H 0.53642 0.02436 0.07898 0.0
H484 H 0.48718 0.09097 0.9766 0.0
H485 H 0.47742 0.03668 0.93023 0.0
C486 C 0.49623 0.96746 0.95101 0.0
C487 C 0.5071 0.93276 0.96662 0.0
C488 C 0.50178 0.99894 0.9774 0.0
C489 C 0.52495 0.93028 0.00812 0.0
C490 C 0.53066 0.96136 0.03435 0.0
C491 C 0.52314 0.02691 0.04676 0.0
C492 C 0.51192 0.06156 0.03162 0.0
C493 C 0.5186 0.99573 0.01974 0.0
C494 C 0.49567 0.06454 0.98924 0.0
C495 C 0.4903 0.03353 0.96259 0.0
H496 H 0.4322 0.49339 0.99023 0.0
H497 H 0.47836 0.47468 0.12078 0.0
H498 H 0.5391 0.46829 0.08781 0.0
H499 H 0.57933 0.46949 0.02192 0.0
H500 H 0.53287 0.48899 0.89165 0.0
H501 H 0.47217 0.49432 0.9246 0.0
C502 C 0.45544 0.48732 0.01144 0.0
C503 C 0.45066 0.48413 0.05789 0.0
C504 C 0.49037 0.48458 0.99238 0.0
C505 C 0.48122 0.47695 0.08491 0.0
C506 C 0.51601 0.47358 0.0661 0.0
C507 C 0.55599 0.47537 1.00081 0.0
C508 C 0.56072 0.47917 0.95439 0.0
C509 C 0.52099 0.47784 0.01993 0.0
C510 C 0.53006 0.48618 0.92747 0.0
C511 C 0.49528 0.489 0.94626 0.0
H512 H 0.0221 0.52842 0.92837 0.0
H513 H 0.97775 0.59894 0.03018 0.0
H514 H 0.96561 0.54599 0.07758 0.0
H515 H 0.96898 0.47957 0.09135 0.0
H516 H 0.01238 0.40884 0.98925 0.0
H517 H 0.02394 0.46174 0.94133 0.0
C518 C 0.00926 0.53218 0.96063 0.0
C519 C 0.0007 0.56776 0.97544 0.0
C520 C 0.00278 0.50151 0.98817 0.0
C521 C 0.98448 0.57198 0.01768 0.0
C522 C 0.97774 0.54167 0.04504 0.0
C523 C 0.98136 0.47577 0.05882 0.0
C524 C 0.99023 0.44023 0.04424 0.0
C525 C 0.98723 0.50633 0.03095 0.0
C526 C 0.00556 0.43584 1.00155 0.0
C527 C 0.01199 0.46611 0.97397 0.0
H528 H 0.07254 0.99226 0.99431 0.0
H529 H 0.02457 0.99854 0.12554 0.0
H530 H 0.96465 0.00999 0.09231 0.0
H531 H 0.92571 0.01788 0.02586 0.0
H532 H 0.97398 0.01211 0.89477 0.0
H533 H 0.03375 1.00025 0.92804 0.0
C534 C 0.04906 0.99647 0.01571 0.0
C535 C 0.05317 0.99476 0.06242 0.0
C536 C 0.01459 0.00263 0.99635 0.0
C537 C 0.0223 0.99992 0.08953 0.0
C538 C 0.98795 0.00628 0.07053 0.0
C539 C 0.94922 0.01361 0.00455 0.0
C540 C 0.94527 0.0156 0.95783 0.0
C541 C 0.98371 0.00743 0.02396 0.0
C542 C 0.97618 0.01054 0.93078 0.0
C543 C 0.01043 0.00393 0.9498 0.0
H544 H 0.47527 0.5308 0.57068 0.0
H545 H 0.53541 0.59564 0.47559 0.0
H546 H 0.53877 0.54338 0.42493 0.0
H547 H 0.52374 0.4794 0.40691 0.0
H548 H 0.46373 0.41445 0.502 0.0
H549 H 0.4604 0.4667 0.55274 0.0
C550 C 0.48973 0.53327 0.53926 0.0
C551 C 0.5055 0.56699 0.52725 0.0
C552 C 0.49076 0.5033 0.50972 0.0
C553 C 0.52338 0.56992 0.48589 0.0
C554 C 0.52501 0.54013 0.45669 0.0
C555 C 0.50932 0.47689 0.43836 0.0
C556 C 0.49353 0.44317 0.45032 0.0
C557 C 0.50835 0.50682 0.46794 0.0
C558 C 0.47574 0.44018 0.49172 0.0
C559 C 0.47413 0.46997 0.52097 0.0
H560 H 0.06869 0.52218 0.51511 0.0
H561 H 0.02804 0.50445 0.38159 0.0
H562 H 0.96605 0.4979 0.41062 0.0
H563 H 0.92343 0.49722 0.47387 0.0
H564 H 0.9642 0.51403 0.60746 0.0
H565 H 0.02604 0.52179 0.57831 0.0
C566 C 0.04635 0.51648 0.49237 0.0
C567 C 0.05306 0.51351 0.44625 0.0
C568 C 0.01071 0.51328 0.50922 0.0
C569 C 0.02369 0.5066 0.41725 0.0
C570 C 0.98819 0.50311 0.43379 0.0
C571 C 0.94575 0.50319 0.49656 0.0
C572 C 0.93917 0.50543 0.54275 0.0
C573 C 0.98135 0.50668 0.47967 0.0
C574 C 0.9685 0.51247 0.57175 0.0
C575 C 0.0039 0.51663 0.55513 0.0
H576 H 0.0093 0.96476 0.57792 0.0
H577 H 0.96607 0.89796 0.47177 0.0
H578 H 0.96052 0.95202 0.42387 0.0
H579 H 0.96916 0.01857 0.41168 0.0
H580 H 0.01399 0.08428 0.51804 0.0
H581 H 0.01848 0.03041 0.56571 0.0
C582 C 0.99799 0.96208 0.54462 0.0
C583 C 0.98753 0.92738 0.52878 0.0
C584 C 0.996 0.99308 0.5168 0.0
C585 C 0.97385 0.92439 0.48504 0.0
C586 C 0.97102 0.95527 0.45747 0.0
C587 C 0.98049 0.02094 0.44501 0.0
C588 C 0.99153 0.05546 0.46104 0.0
C589 C 0.98248 0.98974 0.47275 0.0
C590 C 0.0055 0.05809 0.50467 0.0
C591 C 0.00783 0.0273 0.53216 0.0
H592 H 0.53004 0.03906 0.58743 0.0
H593 H 0.59079 0.97873 0.48858 0.0
H594 H 0.53566 0.97263 0.44296 0.0
H595 H 0.47024 0.98545 0.43056 0.0
H596 H 0.40994 0.04562 0.52991 0.0
H597 H 0.46506 0.05161 0.57532 0.0
C598 C 0.53117 0.02404 0.55626 0.0
C599 C 0.5645 0.00904 0.54172 0.0
C600 C 0.4996 0.02141 0.52973 0.0
C601 C 0.56546 0.99022 0.50083 0.0
C602 C 0.534 0.98703 0.4745 0.0
C603 C 0.46936 1.00047 0.46174 0.0
C604 C 0.43613 0.01555 0.47653 0.0
C605 C 0.50102 0.00297 0.48831 0.0
C606 C 0.43524 0.03412 0.51756 0.0
C607 C 0.46668 0.03727 0.54373 0.0
H608 H 0.49784 0.265 0.32924 0.0
H609 H 0.51902 0.35106 0.23461 0.0
H610 H 0.51841 0.30662 0.17327 0.0
H611 H 0.5161 0.24253 0.14729 0.0
H612 H 0.5043 0.15575 0.24335 0.0
H613 H 0.49638 0.20076 0.30331 0.0
C614 C 0.5016 0.27396 0.29503 0.0
C615 C 0.50769 0.31125 0.28613 0.0
C616 C 0.50296 0.24797 0.26029 0.0
C617 C 0.51375 0.32253 0.24199 0.0
C618 C 0.51352 0.29711 0.20701 0.0
C619 C 0.51126 0.23361 0.18128 0.0
C620 C 0.51015 0.19598 0.19097 0.0
C621 C 0.5087 0.25967 0.21581 0.0
C622 C 0.5047 0.18462 0.23519 0.0
C623 C 0.50038 0.21035 0.26943 0.0
H624 H 0.17914 0.50873 0.25834 0.0
H625 H 0.24579 0.5112 0.37677 0.0
H626 H 0.30112 0.50674 0.33132 0.0
H627 H 0.33065 0.5064 0.2568 0.0
H628 H 0.26366 0.49417 0.13951 0.0
H629 H 0.20842 0.4978 0.1851 0.0
C630 C 0.2058 0.5076 0.27405 0.0
C631 C 0.2086 0.51083 0.32061 0.0
C632 C 0.23739 0.50346 0.24779 0.0
C633 C 0.24312 0.50902 0.34087 0.0
C634 C 0.27474 0.50654 0.3149 0.0
C635 C 0.30391 0.50393 0.24151 0.0
C636 C 0.30105 0.5006 0.19494 0.0
C637 C 0.27226 0.50441 0.26821 0.0
C638 C 0.2664 0.497 0.17533 0.0
C639 C 0.23483 0.49913 0.20137 0.0
H640 H 0.9982 0.26542 0.16764 0.0
H641 H 0.96887 0.34897 0.2623 0.0
H642 H 0.97264 0.30456 0.32341 0.0
H643 H 0.97947 0.24082 0.34917 0.0
H644 H 1.00025 0.15566 0.2534 0.0
H645 H 0.00527 0.20141 0.19367 0.0
C646 C 0.99352 0.27395 0.20182 0.0
C647 C 0.98404 0.31057 0.2107 0.0
C648 C 0.99402 0.24777 0.23653 0.0
C649 C 0.97672 0.32106 0.25485 0.0
C650 C 0.97872 0.29563 0.28974 0.0
C651 C 0.98559 0.23243 0.31531 0.0
C652 C 0.99001 0.19504 0.30567 0.0
C653 C 0.98667 0.25876 0.28091 0.0
C654 C 0.99731 0.18437 0.26159 0.0
C655 C 0.99995 0.21052 0.22746 0.0
H656 H 0.32314 0.99338 0.26943 0.0
H657 H 0.25223 0.00629 0.38286 0.0
H658 H 0.1986 0.00291 0.33425 0.0
H659 H 0.17171 0.99258 0.25928 0.0
H660 H 0.24255 0.98957 0.14478 0.0
H661 H 0.29622 0.99306 0.19335 0.0
C662 C 0.29592 0.99602 0.28323 0.0
C663 C 0.29152 0.99956 0.32962 0.0
C664 C 0.2652 0.99567 0.25477 0.0
C665 C 0.25621 0.00332 0.34724 0.0
C666 C 0.22553 1.00134 0.31946 0.0
C667 C 0.19893 0.99327 0.24511 0.0
C668 C 0.20331 0.99019 0.19868 0.0
C669 C 0.22964 0.99695 0.2732 0.0
C670 C 0.2386 0.9915 0.18049 0.0
C671 C 0.26929 0.9935 0.20827 0.0
H672 H 0.52863 0.78731 0.80752 0.0
H673 H 0.41112 0.79726 0.80798 0.0
H674 H 0.40617 0.75077 0.75114 0.0
H675 H 0.434 0.70715 0.70103 0.0
H676 H 0.55105 0.70037 0.69062 0.0
H677 H 0.55737 0.74527 0.75132 0.0
C678 C 0.50202 0.77933 0.79503 0.0
C679 C 0.47028 0.79558 0.81308 0.0
C680 C 0.49919 0.75295 0.76046 0.0
C681 C 0.43608 0.78513 0.7958 0.0
C682 C 0.4331 0.75842 0.76294 0.0
C683 C 0.461 0.71535 0.71174 0.0
C684 C 0.49195 0.70012 0.69127 0.0
C685 C 0.46434 0.74206 0.74516 0.0
C686 C 0.52668 0.71152 0.70585 0.0
C687 C 0.53028 0.73728 0.74053 0.0
H688 H 0.82281 0.49077 0.73512 0.0
H689 H 0.74798 0.48321 0.62456 0.0
H690 H 0.69632 0.48004 0.67608 0.0
H691 H 0.67286 0.47505 0.75326 0.0
H692 H 0.74658 0.49078 0.86365 0.0
H693 H 0.79819 0.49563 0.81203 0.0
C694 C 0.7951 0.48904 0.72252 0.0
C695 C 0.78907 0.48653 0.67632 0.0
C696 C 0.76541 0.48865 0.75238 0.0
C697 C 0.75318 0.48465 0.66008 0.0
C698 C 0.72365 0.48289 0.68952 0.0
C699 C 0.70017 0.48024 0.76576 0.0
C700 C 0.70613 0.48234 0.81198 0.0
C701 C 0.72948 0.48417 0.73579 0.0
C702 C 0.74148 0.4892 0.82808 0.0
C703 C 0.77098 0.49179 0.7986 0.0
H704 H 0.0677 0.78288 0.69354 0.0
H705 H 0.95107 0.79685 0.6967 0.0
H706 H 0.94664 0.7522 0.75789 0.0
H707 H 0.97682 0.70928 0.81156 0.0
H708 H 0.09304 0.69195 0.80019 0.0
H709 H 0.09662 0.73737 0.74149 0.0
C710 C 0.0413 0.77632 0.70767 0.0
C711 C 0.00985 0.79362 0.69104 0.0
C712 C 0.0389 0.74977 0.74155 0.0
C713 C 0.97575 0.78407 0.70912 0.0
C714 C 0.97324 0.75852 0.7441 0.0
C715 C 0.00284 0.71534 0.79604 0.0
C716 C 0.0347 0.69745 0.81124 0.0
C717 C 0.00472 0.74113 0.76075 0.0
C718 C 0.06808 0.70543 0.7901 0.0
C719 C 0.07025 0.73152 0.75625 0.0
H720 H 0.71157 0.98717 0.70178 0.0
H721 H 0.69333 0.10391 0.70505 0.0
H722 H 0.74245 0.11132 0.75824 0.0
H723 H 0.79161 0.08591 0.80211 0.0
H724 H 0.80617 0.96921 0.8105 0.0
H725 H 0.75813 0.96053 0.75397 0.0
C726 C 0.71818 0.01413 0.7145 0.0
C727 C 0.6991 0.04501 0.69836 0.0
C728 C 0.74612 0.01829 0.74683 0.0
C729 C 0.70777 0.07966 0.71583 0.0
C730 C 0.73599 0.08404 0.74646 0.0
C731 C 0.78427 0.05846 0.79218 0.0
C732 C 0.80264 0.02832 0.81066 0.0
C733 C 0.75559 0.0537 0.76175 0.0
C734 C 0.79254 0.99298 0.79677 0.0
C735 C 0.76497 0.98802 0.76456 0.0
loop_
_geom_bond_atom_site_label_1
_geom_bond_atom_site_label_2
_geom_bond_distance
_geom_bond_site_symmetry_2
_ccdc_geom_bond_type
Co0 O1 2.216 . S
Co0 O2 2.091 . S
Co0 O4 2.004 . S
Co0 O10 2.021 . S
Co0 O12 2.137 . S
Co0 O13 2.244 . S
O1 Co0 2.216 . S
O1 C8 1.247 . S
O2 Co0 2.091 . S
O2 C8 1.261 . S
C3 O12 1.247 . S
C3 O13 1.272 . S
O4 Co0 2.004 . S
O4 C9 1.259 . S
Co5 O6 2.061 . S
Co5 O11 2.052 . S
Co5 O13 2.135 . S
O6 Co5 2.061 . S
O6 C9 1.235 . S
C7 O10 1.238 . S
C7 O11 1.241 . S
C8 O1 1.247 . S
C8 O2 1.261 . S
C9 O4 1.259 . S
C9 O6 1.235 . S
O10 Co0 2.021 . S
O10 C7 1.238 . S
O11 Co5 2.052 . S
O11 C7 1.241 . S
O12 Co0 2.137 . S
O12 C3 1.247 . S
O13 Co0 2.244 . S
O13 C3 1.272 . S
O13 Co5 2.135 . S
Co14 O15 2.216 . S
Co14 O16 2.091 . S
Co14 O18 2.004 . S
Co14 O24 2.021 . S
Co14 O26 2.137 . S
Co14 O27 2.244 . S
O15 Co14 2.216 . S
O15 C22 1.247 . S
O16 Co14 2.091 . S
O16 C22 1.261 . S
C17 O26 1.247 . S
C17 O27 1.272 . S
O18 Co14 2.004 . S
O18 C23 1.259 . S
Co19 O20 2.061 . S
Co19 O25 2.052 . S
Co19 O27 2.135 . S
O20 Co19 2.061 . S
O20 C23 1.235 . S
C21 O24 1.238 . S
C21 O25 1.241 . S
C22 O15 1.247 . S
C22 O16 1.261 . S
C23 O18 1.259 . S
C23 O20 1.235 . S
O24 Co14 2.021 . S
O24 C21 1.238 . S
O25 Co19 2.052 . S
O25 C21 1.241 . S
O26 Co14 2.137 . S
O26 C17 1.247 . S
O27 Co14 2.244 . S
O27 C17 1.272 . S
O27 Co19 2.135 . S
Co28 O29 2.216 . S
Co28 O30 2.091 1_655 S
Co28 O32 2.004 . S
Co28 O38 2.021 . S
Co28 O40 2.125 1_655 S
Co28 O41 2.244 . S
O29 Co28 2.216 . S
O29 C36 1.247 1_655 S
O30 Co28 2.091 1_455 S
O30 C36 1.261 . S
C31 O40 1.230 1_655 S
C31 O41 1.272 . S
O32 Co28 2.004 . S
O32 C37 1.259 . S
Co33 O34 2.061 . S
Co33 O39 2.052 . S
Co33 O41 2.135 . S
O34 Co33 2.061 . S
O34 C37 1.235 . S
C35 O38 1.238 . S
C35 O39 1.241 . S
C36 O29 1.247 1_455 S
C36 O30 1.261 . S
C37 O32 1.259 . S
C37 O34 1.235 . S
O38 Co28 2.021 . S
O38 C35 1.238 . S
O39 Co33 2.052 . S
O39 C35 1.241 . S
O40 Co28 2.125 1_455 S
O40 C31 1.230 1_455 S
O41 Co28 2.244 . S
O41 C31 1.272 . S
O41 Co33 2.135 . S
Co42 O43 2.216 . S
Co42 O44 2.091 1_565 S
Co42 O46 2.004 . S
Co42 O52 2.021 . S
Co42 O54 2.125 1_565 S
Co42 O55 2.244 . S
O43 Co42 2.216 . S
O43 C50 1.247 1_565 S
O44 Co42 2.091 1_545 S
O44 C50 1.261 . S
C45 O54 1.230 1_565 S
C45 O55 1.272 . S
O46 Co42 2.004 . S
O46 C51 1.259 . S
Co47 O48 2.061 . S
Co47 O53 2.052 . S
Co47 O55 2.135 . S
O48 Co47 2.061 . S
O48 C51 1.235 . S
C49 O52 1.238 . S
C49 O53 1.241 . S
C50 O43 1.247 1_545 S
C50 O44 1.261 . S
C51 O46 1.259 . S
C51 O48 1.235 . S
O52 Co42 2.021 . S
O52 C49 1.238 . S
O53 Co47 2.052 . S
O53 C49 1.241 . S
O54 Co42 2.125 1_545 S
O54 C45 1.230 1_545 S
O55 Co42 2.244 . S
O55 C45 1.272 . S
O55 Co47 2.135 . S
Co56 O57 2.216 . S
Co56 O58 2.091 . S
Co56 O60 2.004 . S
Co56 O66 2.021 . S
Co56 O68 2.137 . S
Co56 O69 2.244 . S
O57 Co56 2.216 . S
O57 C64 1.247 . S
O58 Co56 2.091 . S
O58 C64 1.261 . S
C59 O68 1.247 . S
C59 O69 1.272 . S
O60 Co56 2.004 . S
O60 C65 1.259 . S
Co61 O62 2.061 . S
Co61 O67 2.052 . S
Co61 O69 2.135 . S
O62 Co61 2.061 . S
O62 C65 1.235 . S
C63 O66 1.238 . S
C63 O67 1.241 . S
C64 O57 1.247 . S
C64 O58 1.261 . S
C65 O60 1.259 . S
C65 O62 1.235 . S
O66 Co56 2.021 . S
O66 C63 1.238 . S
O67 Co61 2.052 . S
O67 C63 1.241 . S
O68 Co56 2.137 . S
O68 C59 1.247 . S
O69 Co56 2.244 . S
O69 C59 1.272 . S
O69 Co61 2.135 . S
Co70 O71 2.216 . S
Co70 O72 2.091 . S
Co70 O74 2.004 . S
Co70 O80 2.021 . S
Co70 O82 2.137 . S
Co70 O83 2.244 . S
O71 Co70 2.216 . S
O71 C78 1.247 . S
O72 Co70 2.091 . S
O72 C78 1.261 . S
C73 O82 1.247 . S
C73 O83 1.272 . S
O74 Co70 2.004 . S
O74 C79 1.259 . S
Co75 O76 2.061 . S
Co75 O81 2.052 . S
Co75 O83 2.135 . S
O76 Co75 2.061 . S
O76 C79 1.235 . S
C77 O80 1.238 . S
C77 O81 1.241 . S
C78 O71 1.247 . S
C78 O72 1.261 . S
C79 O74 1.259 . S
C79 O76 1.235 . S
O80 Co70 2.021 . S
O80 C77 1.238 . S
O81 Co75 2.052 . S
O81 C77 1.241 . S
O82 Co70 2.137 . S
O82 C73 1.247 . S
O83 Co70 2.244 . S
O83 C73 1.272 . S
O83 Co75 2.135 . S
Co84 O85 2.216 . S
Co84 O86 2.091 1_655 S
Co84 O88 2.004 . S
Co84 O94 2.021 . S
Co84 O96 2.125 1_655 S
Co84 O97 2.244 . S
O85 Co84 2.216 . S
O85 C92 1.247 1_655 S
O86 Co84 2.091 1_455 S
O86 C92 1.261 . S
C87 O96 1.230 1_655 S
C87 O97 1.272 . S
O88 Co84 2.004 . S
O88 C93 1.259 . S
Co89 O90 2.061 . S
Co89 O95 2.052 . S
Co89 O97 2.135 . S
O90 Co89 2.061 . S
O90 C93 1.235 . S
C91 O94 1.238 . S
C91 O95 1.241 . S
C92 O85 1.247 1_455 S
C92 O86 1.261 . S
C93 O88 1.259 . S
C93 O90 1.235 . S
O94 Co84 2.021 . S
O94 C91 1.238 . S
O95 Co89 2.052 . S
O95 C91 1.241 . S
O96 Co84 2.125 1_455 S
O96 C87 1.230 1_455 S
O97 Co84 2.244 . S
O97 C87 1.272 . S
O97 Co89 2.135 . S
Co98 O99 2.216 . S
Co98 O100 2.091 1_565 S
Co98 O102 2.004 . S
Co98 O108 2.021 . S
Co98 O110 2.125 1_565 S
Co98 O111 2.244 . S
O99 Co98 2.216 . S
O99 C106 1.247 1_565 S
O100 Co98 2.091 1_545 S
O100 C106 1.261 . S
C101 O110 1.230 1_565 S
C101 O111 1.272 . S
O102 Co98 2.004 . S
O102 C107 1.259 . S
Co103 O104 2.061 . S
Co103 O109 2.052 . S
Co103 O111 2.135 . S
O104 Co103 2.061 . S
O104 C107 1.235 . S
C105 O108 1.238 . S
C105 O109 1.241 . S
C106 O99 1.247 1_545 S
C106 O100 1.261 . S
C107 O102 1.259 . S
C107 O104 1.235 . S
O108 Co98 2.021 . S
O108 C105 1.238 . S
O109 Co103 2.052 . S
O109 C105 1.241 . S
O110 Co98 2.125 1_545 S
O110 C101 1.230 1_545 S
O111 Co98 2.244 . S
O111 C101 1.272 . S
O111 Co103 2.135 . S
Co112 O113 2.216 . S
Co112 O114 2.091 . S
Co112 O116 2.004 . S
Co112 O122 2.021 . S
Co112 O124 2.137 . S
Co112 O125 2.244 . S
O113 Co112 2.216 . S
O113 C120 1.247 . S
O114 Co112 2.091 . S
O114 C120 1.261 . S
C115 O124 1.247 . S
C115 O125 1.272 . S
O116 Co112 2.004 . S
O116 C121 1.259 . S
Co117 O118 2.061 . S
Co117 O123 2.052 . S
Co117 O125 2.135 . S
O118 Co117 2.061 . S
O118 C121 1.235 . S
C119 O122 1.238 . S
C119 O123 1.241 . S
C120 O113 1.247 . S
C120 O114 1.261 . S
C121 O116 1.259 . S
C121 O118 1.235 . S
O122 Co112 2.021 . S
O122 C119 1.238 . S
O123 Co117 2.052 . S
O123 C119 1.241 . S
O124 Co112 2.137 . S
O124 C115 1.247 . S
O125 Co112 2.244 . S
O125 C115 1.272 . S
O125 Co117 2.135 . S
Co126 O127 2.216 . S
Co126 O128 2.091 . S
Co126 O130 2.004 . S
Co126 O136 2.021 . S
Co126 O138 2.137 . S
Co126 O139 2.244 . S
O127 Co126 2.216 . S
O127 C134 1.247 . S
O128 Co126 2.091 . S
O128 C134 1.261 . S
C129 O138 1.247 . S
C129 O139 1.272 . S
O130 Co126 2.004 . S
O130 C135 1.259 . S
Co131 O132 2.061 . S
Co131 O137 2.052 . S
Co131 O139 2.135 . S
O132 Co131 2.061 . S
O132 C135 1.235 . S
C133 O136 1.238 . S
C133 O137 1.241 . S
C134 O127 1.247 . S
C134 O128 1.261 . S
C135 O130 1.259 . S
C135 O132 1.235 . S
O136 Co126 2.021 . S
O136 C133 1.238 . S
O137 Co131 2.052 . S
O137 C133 1.241 . S
O138 Co126 2.137 . S
O138 C129 1.247 . S
O139 Co126 2.244 . S
O139 C129 1.272 . S
O139 Co131 2.135 . S
Co140 O141 2.216 . S
Co140 O142 2.091 1_455 S
Co140 O144 2.004 . S
Co140 O150 2.021 . S
Co140 O152 2.125 1_455 S
Co140 O153 2.244 . S
O141 Co140 2.216 . S
O141 C148 1.247 1_455 S
O142 Co140 2.091 1_655 S
O142 C148 1.261 . S
C143 O152 1.230 1_455 S
C143 O153 1.272 . S
O144 Co140 2.004 . S
O144 C149 1.259 . S
Co145 O146 2.061 . S
Co145 O151 2.052 . S
Co145 O153 2.135 . S
O146 Co145 2.061 . S
O146 C149 1.235 . S
C147 O150 1.238 . S
C147 O151 1.241 . S
C148 O141 1.247 1_655 S
C148 O142 1.261 . S
C149 O144 1.259 . S
C149 O146 1.235 . S
O150 Co140 2.021 . S
O150 C147 1.238 . S
O151 Co145 2.052 . S
O151 C147 1.241 . S
O152 Co140 2.125 1_655 S
O152 C143 1.230 1_655 S
O153 Co140 2.244 . S
O153 C143 1.272 . S
O153 Co145 2.135 . S
Co154 O155 2.216 . S
Co154 O156 2.091 1_545 S
Co154 O158 2.004 . S
Co154 O164 2.021 . S
Co154 O166 2.125 1_545 S
Co154 O167 2.244 . S
O155 Co154 2.216 . S
O155 C162 1.247 1_545 S
O156 Co154 2.091 1_565 S
O156 C162 1.261 . S
C157 O166 1.230 1_545 S
C157 O167 1.272 . S
O158 Co154 2.004 . S
O158 C163 1.259 . S
Co159 O160 2.061 . S
Co159 O165 2.052 . S
Co159 O167 2.135 . S
O160 Co159 2.061 . S
O160 C163 1.235 . S
C161 O164 1.238 . S
C161 O165 1.241 . S
C162 O155 1.247 1_565 S
C162 O156 1.261 . S
C163 O158 1.259 . S
C163 O160 1.235 . S
O164 Co154 2.021 . S
O164 C161 1.238 . S
O165 Co159 2.052 . S
O165 C161 1.241 . S
O166 Co154 2.125 1_565 S
O166 C157 1.230 1_565 S
O167 Co154 2.244 . S
O167 C157 1.272 . S
O167 Co159 2.135 . S
Co168 O169 2.216 . S
Co168 O170 2.091 . S
Co168 O172 2.004 . S
Co168 O178 2.021 . S
Co168 O180 2.137 . S
Co168 O181 2.244 . S
O169 Co168 2.216 . S
O169 C176 1.247 . S
O170 Co168 2.091 . S
O170 C176 1.261 . S
C171 O180 1.247 . S
C171 O181 1.272 . S
O172 Co168 2.004 . S
O172 C177 1.259 . S
Co173 O174 2.061 . S
Co173 O179 2.052 . S
Co173 O181 2.135 . S
O174 Co173 2.061 . S
O174 C177 1.235 . S
C175 O178 1.238 . S
C175 O179 1.241 . S
C176 O169 1.247 . S
C176 O170 1.261 . S
C177 O172 1.259 . S
C177 O174 1.235 . S
O178 Co168 2.021 . S
O178 C175 1.238 . S
O179 Co173 2.052 . S
O179 C175 1.241 . S
O180 Co168 2.137 . S
O180 C171 1.247 . S
O181 Co168 2.244 . S
O181 C171 1.272 . S
O181 Co173 2.135 . S
Co182 O183 2.216 . S
Co182 O184 2.091 . S
Co182 O186 2.004 . S
Co182 O192 2.021 . S
Co182 O194 2.137 . S
Co182 O195 2.244 . S
O183 Co182 2.216 . S
O183 C190 1.247 . S
O184 Co182 2.091 . S
O184 C190 1.261 . S
C185 O194 1.247 . S
C185 O195 1.272 . S
O186 Co182 2.004 . S
O186 C191 1.259 . S
Co187 O188 2.061 . S
Co187 O193 2.052 . S
Co187 O195 2.135 . S
O188 Co187 2.061 . S
O188 C191 1.235 . S
C189 O192 1.238 . S
C189 O193 1.241 . S
C190 O183 1.247 . S
C190 O184 1.261 . S
C191 O186 1.259 . S
C191 O188 1.235 . S
O192 Co182 2.021 . S
O192 C189 1.238 . S
O193 Co187 2.052 . S
O193 C189 1.241 . S
O194 Co182 2.137 . S
O194 C185 1.247 . S
O195 Co182 2.244 . S
O195 C185 1.272 . S
O195 Co187 2.135 . S
Co196 O197 2.216 . S
Co196 O198 2.091 1_455 S
Co196 O200 2.004 . S
Co196 O206 2.021 . S
Co196 O208 2.125 1_455 S
Co196 O209 2.244 . S
O197 Co196 2.216 . S
O197 C204 1.247 1_455 S
O198 Co196 2.091 1_655 S
O198 C204 1.261 . S
C199 O208 1.230 1_455 S
C199 O209 1.272 . S
O200 Co196 2.004 . S
O200 C205 1.259 . S
Co201 O202 2.061 . S
Co201 O207 2.052 . S
Co201 O209 2.135 . S
O202 Co201 2.061 . S
O202 C205 1.235 . S
C203 O206 1.238 . S
C203 O207 1.241 . S
C204 O197 1.247 1_655 S
C204 O198 1.261 . S
C205 O200 1.259 . S
C205 O202 1.235 . S
O206 Co196 2.021 . S
O206 C203 1.238 . S
O207 Co201 2.052 . S
O207 C203 1.241 . S
O208 Co196 2.125 1_655 S
O208 C199 1.230 1_655 S
O209 Co196 2.244 . S
O209 C199 1.272 . S
O209 Co201 2.135 . S
Co210 O211 2.216 . S
Co210 O212 2.091 1_545 S
Co210 O214 2.004 . S
Co210 O220 2.021 . S
Co210 O222 2.125 1_545 S
Co210 O223 2.244 . S
O211 Co210 2.216 . S
O211 C218 1.247 1_545 S
O212 Co210 2.091 1_565 S
O212 C218 1.261 . S
C213 O222 1.230 1_545 S
C213 O223 1.272 . S
O214 Co210 2.004 . S
O214 C219 1.259 . S
Co215 O216 2.061 . S
Co215 O221 2.052 . S
Co215 O223 2.135 . S
O216 Co215 2.061 . S
O216 C219 1.235 . S
C217 O220 1.238 . S
C217 O221 1.241 . S
C218 O211 1.247 1_565 S
C218 O212 1.261 . S
C219 O214 1.259 . S
C219 O216 1.235 . S
O220 Co210 2.021 . S
O220 C217 1.238 . S
O221 Co215 2.052 . S
O221 C217 1.241 . S
O222 Co210 2.125 1_565 S
O222 C213 1.230 1_565 S
O223 Co210 2.244 . S
O223 C213 1.272 . S
O223 Co215 2.135 . S
H224 C230 0.930 . S
H225 C233 0.930 . S
H226 C234 0.930 . S
H227 C235 0.926 1_554 S
H228 C238 0.930 . S
H229 C239 0.930 . S
C230 H224 0.930 . S
C230 C231 1.355 1_556 S
C230 C232 1.415 . S
C231 C230 1.355 1_554 S
C231 C233 1.419 . S
C232 C230 1.415 . S
C232 C237 1.425 1_556 S
C232 C239 1.409 . S
C233 H225 0.930 . S
C233 C231 1.419 . S
C233 C234 1.362 . S
C234 H226 0.930 . S
C234 C233 1.362 . S
C234 C237 1.409 . S
C235 H227 0.926 1_556 S
C235 C236 1.359 . S
C235 C237 1.414 1_556 S
C236 C235 1.359 . S
C236 C238 1.419 . S
C237 C232 1.425 1_554 S
C237 C234 1.409 . S
C237 C235 1.414 1_554 S
C238 H228 0.930 . S
C238 C236 1.419 . S
C238 C239 1.362 . S
C239 H229 0.930 . S
C239 C232 1.409 . S
C239 C238 1.362 . S
H240 C246 0.930 . S
H241 C249 0.930 . S
H242 C250 0.930 . S
H243 C251 0.930 . S
H244 C254 0.930 . S
H245 C255 0.930 . S
C246 H240 0.930 . S
C246 C247 1.355 . S
C246 C248 1.415 . S
C247 C246 1.355 . S
C247 C249 1.419 1_556 S
C248 C246 1.415 . S
C248 C253 1.425 1_556 S
C248 C255 1.409 . S
C249 H241 0.930 . S
C249 C247 1.419 1_554 S
C249 C250 1.362 . S
C250 H242 0.930 . S
C250 C249 1.362 . S
C250 C253 1.409 . S
C251 H243 0.930 . S
C251 C252 1.355 . S
C251 C253 1.415 . S
C252 C251 1.355 . S
C252 C254 1.419 1_554 S
C253 C248 1.425 1_554 S
C253 C250 1.409 . S
C253 C251 1.415 . S
C254 H244 0.930 . S
C254 C252 1.419 1_556 S
C254 C255 1.362 . S
C255 H245 0.930 . S
C255 C248 1.409 . S
C255 C254 1.362 . S
H256 C262 0.930 . S
H257 C265 0.930 . S
H258 C266 0.930 . S
H259 C267 0.930 . S
H260 C270 0.930 . S
H261 C271 0.930 . S
C262 H256 0.930 . S
C262 C263 1.355 . S
C262 C264 1.415 . S
C263 C262 1.355 . S
C263 C265 1.419 . S
C264 C262 1.415 . S
C264 C269 1.431 . S
C264 C271 1.409 . S
C265 H257 0.930 . S
C265 C263 1.419 . S
C265 C266 1.362 1_556 S
C266 H258 0.930 . S
C266 C265 1.362 1_554 S
C266 C269 1.408 1_554 S
C267 H259 0.930 . S
C267 C268 1.355 . S
C267 C269 1.411 1_554 S
C268 C267 1.355 . S
C268 C270 1.419 1_554 S
C269 C264 1.431 . S
C269 C266 1.408 1_556 S
C269 C267 1.411 1_556 S
C270 H260 0.930 . S
C270 C268 1.419 1_556 S
C270 C271 1.362 . S
C271 H261 0.930 . S
C271 C264 1.409 . S
C271 C270 1.362 . S
H272 C278 0.930 . S
H273 C281 0.930 . S
H274 C282 0.930 . S
H275 C283 0.930 . S
H276 C286 0.930 . S
H277 C287 0.930 . S
C278 H272 0.930 . S
C278 C279 1.355 . S
C278 C280 1.415 . S
C279 C278 1.355 . S
C279 C281 1.419 1_556 S
C280 C278 1.415 . S
C280 C285 1.425 1_556 S
C280 C287 1.409 . S
C281 H273 0.930 . S
C281 C279 1.419 1_554 S
C281 C282 1.362 . S
C282 H274 0.930 . S
C282 C281 1.362 . S
C282 C285 1.409 . S
C283 H275 0.930 . S
C283 C284 1.355 . S
C283 C285 1.415 . S
C284 C283 1.355 . S
C284 C286 1.419 1_554 S
C285 C280 1.425 1_554 S
C285 C282 1.409 . S
C285 C283 1.415 . S
C286 H276 0.930 . S
C286 C284 1.419 1_556 S
C286 C287 1.362 . S
C287 H277 0.930 . S
C287 C280 1.409 . S
C287 C286 1.362 . S
H288 C294 0.930 . S
H289 C297 0.930 . S
H290 C298 0.930 . S
H291 C299 0.930 . S
H292 C302 0.930 . S
H293 C303 0.930 . S
C294 H288 0.930 . S
C294 C295 1.355 . S
C294 C296 1.415 . S
C295 C294 1.355 . S
C295 C297 1.419 . S
C296 C294 1.415 . S
C296 C301 1.425 . S
C296 C303 1.409 . S
C297 H289 0.930 . S
C297 C295 1.419 . S
C297 C298 1.362 . S
C298 H290 0.930 . S
C298 C297 1.362 . S
C298 C301 1.409 . S
C299 H291 0.930 . S
C299 C300 1.355 . S
C299 C301 1.415 . S
C300 C299 1.355 . S
C300 C302 1.419 . S
C301 C296 1.425 . S
C301 C298 1.409 . S
C301 C299 1.415 . S
C302 H292 0.930 . S
C302 C300 1.419 . S
C302 C303 1.362 . S
C303 H293 0.930 . S
C303 C296 1.409 . S
C303 C302 1.362 . S
H304 C310 0.930 . S
H305 C313 0.930 . S
H306 C314 0.930 . S
H307 C315 0.930 . S
H308 C318 0.930 . S
H309 C319 0.930 . S
C310 H304 0.930 . S
C310 C311 1.355 . S
C310 C312 1.415 . S
C311 C310 1.355 . S
C311 C313 1.419 . S
C312 C310 1.415 . S
C312 C317 1.425 . S
C312 C319 1.409 . S
C313 H305 0.930 . S
C313 C311 1.419 . S
C313 C314 1.362 . S
C314 H306 0.930 . S
C314 C313 1.362 . S
C314 C317 1.409 . S
C315 H307 0.930 . S
C315 C316 1.355 . S
C315 C317 1.415 . S
C316 C315 1.355 . S
C316 C318 1.419 . S
C317 C312 1.425 . S
C317 C314 1.409 . S
C317 C315 1.415 . S
C318 H308 0.930 . S
C318 C316 1.419 . S
C318 C319 1.362 . S
C319 H309 0.930 . S
C319 C312 1.409 . S
C319 C318 1.362 . S
H320 C326 0.930 . S
H321 C329 0.930 . S
H322 C330 0.930 . S
H323 C331 0.930 . S
H324 C334 0.930 . S
H325 C335 0.930 . S
C326 H320 0.930 . S
C326 C327 1.355 . S
C326 C328 1.415 . S
C327 C326 1.355 . S
C327 C329 1.419 . S
C328 C326 1.415 . S
C328 C333 1.425 . S
C328 C335 1.409 . S
C329 H321 0.930 . S
C329 C327 1.419 . S
C329 C330 1.362 . S
C330 H322 0.930 . S
C330 C329 1.362 . S
C330 C333 1.409 . S
C331 H323 0.930 . S
C331 C332 1.355 . S
C331 C333 1.415 . S
C332 C331 1.355 . S
C332 C334 1.419 . S
C333 C328 1.425 . S
C333 C330 1.409 . S
C333 C331 1.415 . S
C334 H324 0.930 . S
C334 C332 1.419 . S
C334 C335 1.362 . S
C335 H325 0.930 . S
C335 C328 1.409 . S
C335 C334 1.362 . S
H336 C342 0.930 . S
H337 C345 0.930 . S
H338 C346 0.930 . S
H339 C347 0.930 . S
H340 C350 0.930 . S
H341 C351 0.930 . S
C342 H336 0.930 . S
C342 C343 1.355 . S
C342 C344 1.415 . S
C343 C342 1.355 . S
C343 C345 1.419 . S
C344 C342 1.415 . S
C344 C349 1.425 . S
C344 C351 1.409 . S
C345 H337 0.930 . S
C345 C343 1.419 . S
C345 C346 1.362 . S
C346 H338 0.930 . S
C346 C345 1.362 . S
C346 C349 1.409 . S
C347 H339 0.930 . S
C347 C348 1.355 . S
C347 C349 1.415 . S
C348 C347 1.355 . S
C348 C350 1.419 . S
C349 C344 1.425 . S
C349 C346 1.409 . S
C349 C347 1.415 . S
C350 H340 0.930 . S
C350 C348 1.419 . S
C350 C351 1.362 . S
C351 H341 0.930 . S
C351 C344 1.409 . S
C351 C350 1.362 . S
H352 C358 0.930 . S
H353 C361 0.930 . S
H354 C362 0.930 . S
H355 C363 0.930 . S
H356 C366 0.930 . S
H357 C367 0.930 . S
C358 H352 0.930 . S
C358 C359 1.355 . S
C358 C360 1.415 . S
C359 C358 1.355 . S
C359 C361 1.419 1_556 S
C360 C358 1.415 . S
C360 C365 1.425 1_556 S
C360 C367 1.409 . S
C361 H353 0.930 . S
C361 C359 1.419 1_554 S
C361 C362 1.362 . S
C362 H354 0.930 . S
C362 C361 1.362 . S
C362 C365 1.409 . S
C363 H355 0.930 . S
C363 C364 1.355 . S
C363 C365 1.415 . S
C364 C363 1.355 . S
C364 C366 1.419 1_554 S
C365 C360 1.425 1_554 S
C365 C362 1.409 . S
C365 C363 1.415 . S
C366 H356 0.930 . S
C366 C364 1.419 1_556 S
C366 C367 1.362 . S
C367 H357 0.930 . S
C367 C360 1.409 . S
C367 C366 1.362 . S
H368 C374 0.930 . S
H369 C377 0.930 . S
H370 C378 0.930 . S
H371 C379 0.930 . S
H372 C382 0.930 . S
H373 C383 0.930 . S
C374 H368 0.930 . S
C374 C375 1.355 1_554 S
C374 C376 1.415 . S
C375 C374 1.355 1_556 S
C375 C377 1.419 . S
C376 C374 1.415 . S
C376 C381 1.425 1_554 S
C376 C383 1.409 . S
C377 H369 0.930 . S
C377 C375 1.419 . S
C377 C378 1.362 . S
C378 H370 0.930 . S
C378 C377 1.362 . S
C378 C381 1.409 . S
C379 H371 0.930 . S
C379 C380 1.355 1_556 S
C379 C381 1.415 . S
C380 C379 1.355 1_554 S
C380 C382 1.419 . S
C381 C376 1.425 1_556 S
C381 C378 1.409 . S
C381 C379 1.415 . S
C382 H372 0.930 . S
C382 C380 1.419 . S
C382 C383 1.362 . S
C383 H373 0.930 . S
C383 C376 1.409 . S
C383 C382 1.362 . S
H384 C390 0.930 . S
H385 C393 0.930 . S
H386 C394 0.930 . S
H387 C395 0.930 . S
H388 C398 0.930 . S
H389 C399 0.930 . S
C390 H384 0.930 . S
C390 C391 1.355 1_554 S
C390 C392 1.415 . S
C391 C390 1.355 1_556 S
C391 C393 1.419 . S
C392 C390 1.415 . S
C392 C397 1.425 1_554 S
C392 C399 1.409 . S
C393 H385 0.930 . S
C393 C391 1.419 . S
C393 C394 1.362 . S
C394 H386 0.930 . S
C394 C393 1.362 . S
C394 C397 1.409 . S
C395 H387 0.930 . S
C395 C396 1.355 1_556 S
C395 C397 1.415 . S
C396 C395 1.355 1_554 S
C396 C398 1.419 . S
C397 C392 1.425 1_556 S
C397 C394 1.409 . S
C397 C395 1.415 . S
C398 H388 0.930 . S
C398 C396 1.419 . S
C398 C399 1.362 . S
C399 H389 0.930 . S
C399 C392 1.409 . S
C399 C398 1.362 . S
H400 C406 0.930 1_556 S
H401 C409 0.930 . S
H402 C410 0.930 . S
H403 C411 0.930 . S
H404 C414 0.930 . S
H405 C415 0.930 . S
C406 H400 0.930 1_554 S
C406 C407 1.355 . S
C406 C408 1.415 1_554 S
C407 C406 1.355 . S
C407 C409 1.419 . S
C408 C406 1.415 1_556 S
C408 C413 1.425 1_556 S
C408 C415 1.409 . S
C409 H401 0.930 . S
C409 C407 1.419 . S
C409 C410 1.362 . S
C410 H402 0.930 . S
C410 C409 1.362 . S
C410 C413 1.409 . S
C411 H403 0.930 . S
C411 C412 1.355 1_554 S
C411 C413 1.415 . S
C412 C411 1.355 1_556 S
C412 C414 1.419 . S
C413 C408 1.425 1_554 S
C413 C410 1.409 . S
C413 C411 1.415 . S
C414 H404 0.930 . S
C414 C412 1.419 . S
C414 C415 1.362 . S
C415 H405 0.930 . S
C415 C408 1.409 . S
C415 C414 1.362 . S
H416 C422 0.930 . S
H417 C425 0.930 . S
H418 C426 0.930 . S
H419 C427 0.930 . S
H420 C430 0.930 . S
H421 C431 0.930 . S
C422 H416 0.930 . S
C422 C423 1.355 . S
C422 C424 1.415 . S
C423 C422 1.355 . S
C423 C425 1.419 . S
C424 C422 1.415 . S
C424 C429 1.425 . S
C424 C431 1.409 . S
C425 H417 0.930 . S
C425 C423 1.419 . S
C425 C426 1.362 . S
C426 H418 0.930 . S
C426 C425 1.362 . S
C426 C429 1.409 . S
C427 H419 0.930 . S
C427 C428 1.355 . S
C427 C429 1.415 . S
C428 C427 1.355 . S
C428 C430 1.419 . S
C429 C424 1.425 . S
C429 C426 1.409 . S
C429 C427 1.415 . S
C430 H420 0.930 . S
C430 C428 1.419 . S
C430 C431 1.362 . S
C431 H421 0.930 . S
C431 C424 1.409 . S
C431 C430 1.362 . S
H432 C438 0.930 . S
H433 C441 0.930 . S
H434 C442 0.930 . S
H435 C443 0.930 . S
H436 C446 0.930 . S
H437 C447 0.930 . S
C438 H432 0.930 . S
C438 C439 1.355 . S
C438 C440 1.415 . S
C439 C438 1.355 . S
C439 C441 1.419 . S
C440 C438 1.415 . S
C440 C445 1.425 . S
C440 C447 1.409 . S
C441 H433 0.930 . S
C441 C439 1.419 . S
C441 C442 1.362 . S
C442 H434 0.930 . S
C442 C441 1.362 . S
C442 C445 1.409 . S
C443 H435 0.930 . S
C443 C444 1.355 . S
C443 C445 1.415 . S
C444 C443 1.355 . S
C444 C446 1.419 . S
C445 C440 1.425 . S
C445 C442 1.409 . S
C445 C443 1.415 . S
C446 H436 0.930 . S
C446 C444 1.419 . S
C446 C447 1.362 . S
C447 H437 0.930 . S
C447 C440 1.409 . S
C447 C446 1.362 . S
H448 C454 0.930 . S
H449 C457 0.930 . S
H450 C458 0.930 . S
H451 C459 0.930 . S
H452 C462 0.930 . S
H453 C463 0.930 . S
C454 H448 0.930 . S
C454 C455 1.355 . S
C454 C456 1.415 . S
C455 C454 1.355 . S
C455 C457 1.419 . S
C456 C454 1.415 . S
C456 C461 1.425 . S
C456 C463 1.409 . S
C457 H449 0.930 . S
C457 C455 1.419 . S
C457 C458 1.362 . S
C458 H450 0.930 . S
C458 C457 1.362 . S
C458 C461 1.409 . S
C459 H451 0.930 . S
C459 C460 1.355 . S
C459 C461 1.415 . S
C460 C459 1.355 . S
C460 C462 1.419 . S
C461 C456 1.425 . S
C461 C458 1.409 . S
C461 C459 1.415 . S
C462 H452 0.930 . S
C462 C460 1.419 . S
C462 C463 1.362 . S
C463 H453 0.930 . S
C463 C456 1.409 . S
C463 C462 1.362 . S
H464 C470 0.930 . S
H465 C473 0.930 . S
H466 C474 0.930 . S
H467 C475 0.930 . S
H468 C478 0.930 . S
H469 C479 0.930 . S
C470 H464 0.930 . S
C470 C471 1.355 . S
C470 C472 1.415 . S
C471 C470 1.355 . S
C471 C473 1.419 . S
C472 C470 1.415 . S
C472 C477 1.425 . S
C472 C479 1.409 . S
C473 H465 0.930 . S
C473 C471 1.419 . S
C473 C474 1.362 . S
C474 H466 0.930 . S
C474 C473 1.362 . S
C474 C477 1.409 . S
C475 H467 0.930 . S
C475 C476 1.355 . S
C475 C477 1.415 . S
C476 C475 1.355 . S
C476 C478 1.419 . S
C477 C472 1.425 . S
C477 C474 1.409 . S
C477 C475 1.415 . S
C478 H468 0.930 . S
C478 C476 1.419 . S
C478 C479 1.362 . S
C479 H469 0.930 . S
C479 C472 1.409 . S
C479 C478 1.362 . S
H480 C486 0.930 . S
H481 C489 0.930 . S
H482 C490 0.930 . S
H483 C491 0.930 . S
H484 C494 0.930 . S
H485 C495 0.930 . S
C486 H480 0.930 . S
C486 C487 1.355 . S
C486 C488 1.412 . S
C487 C486 1.355 . S
C487 C489 1.419 1_556 S
C488 C486 1.412 . S
C488 C493 1.425 1_566 S
C488 C495 1.412 1_565 S
C489 H481 0.930 . S
C489 C487 1.419 1_554 S
C489 C490 1.362 . S
C490 H482 0.930 . S
C490 C489 1.362 . S
C490 C493 1.412 1_565 S
C491 H483 0.930 . S
C491 C492 1.355 . S
C491 C493 1.412 . S
C492 C491 1.355 . S
C492 C494 1.419 1_554 S
C493 C488 1.425 1_544 S
C493 C490 1.412 1_545 S
C493 C491 1.412 . S
C494 H484 0.930 . S
C494 C492 1.419 1_556 S
C494 C495 1.362 . S
C495 H485 0.930 . S
C495 C488 1.412 1_545 S
C495 C494 1.362 . S
H496 C502 0.930 . S
H497 C505 0.930 . S
H498 C506 0.930 . S
H499 C507 0.930 . S
H500 C510 0.930 . S
H501 C511 0.930 . S
C502 H496 0.930 . S
C502 C503 1.355 1_556 S
C502 C504 1.415 . S
C503 C502 1.355 1_554 S
C503 C505 1.419 . S
C504 C502 1.415 . S
C504 C509 1.425 1_556 S
C504 C511 1.409 . S
C505 H497 0.930 . S
C505 C503 1.419 . S
C505 C506 1.362 . S
C506 H498 0.930 . S
C506 C505 1.362 . S
C506 C509 1.409 . S
C507 H499 0.930 . S
C507 C508 1.355 1_554 S
C507 C509 1.415 . S
C508 C507 1.355 1_556 S
C508 C510 1.419 . S
C509 C504 1.425 1_554 S
C509 C506 1.409 . S
C509 C507 1.415 . S
C510 H500 0.930 . S
C510 C508 1.419 . S
C510 C511 1.362 . S
C511 H501 0.930 . S
C511 C504 1.409 . S
C511 C510 1.362 . S
H512 C518 0.930 . S
H513 C521 0.928 1_554 S
H514 C522 0.930 . S
H515 C523 0.930 . S
H516 C526 0.928 1_556 S
H517 C527 0.930 . S
C518 H512 0.930 . S
C518 C519 1.355 . S
C518 C520 1.415 . S
C519 C518 1.355 . S
C519 C521 1.419 1_655 S
C520 C518 1.415 . S
C520 C525 1.425 1_656 S
C520 C527 1.409 . S
C521 H513 0.928 1_556 S
C521 C519 1.419 1_455 S
C521 C522 1.362 1_556 S
C522 H514 0.930 . S
C522 C521 1.362 1_554 S
C522 C525 1.409 . S
C523 H515 0.930 . S
C523 C524 1.355 . S
C523 C525 1.415 . S
C524 C523 1.355 . S
C524 C526 1.419 1_455 S
C525 C520 1.425 1_454 S
C525 C522 1.409 . S
C525 C523 1.415 . S
C526 H516 0.928 1_554 S
C526 C524 1.419 1_655 S
C526 C527 1.362 1_554 S
C527 H517 0.930 . S
C527 C520 1.409 . S
C527 C526 1.362 1_556 S
H528 C534 0.930 . S
H529 C537 0.930 . S
H530 C538 0.930 1_655 S
H531 C539 0.930 . S
H532 C542 0.930 . S
H533 C543 0.930 1_455 S
C534 H528 0.930 . S
C534 C535 1.355 1_556 S
C534 C536 1.411 1_545 S
C535 C534 1.355 1_554 S
C535 C537 1.419 . S
C536 C534 1.411 1_565 S
C536 C541 1.424 1_466 S
C536 C543 1.414 1_455 S
C537 H529 0.930 . S
C537 C535 1.419 . S
C537 C538 1.362 . S
C538 H530 0.930 1_455 S
C538 C537 1.362 . S
C538 C541 1.414 1_455 S
C539 H531 0.930 . S
C539 C540 1.355 1_554 S
C539 C541 1.411 1_565 S
C540 C539 1.355 1_556 S
C540 C542 1.419 . S
C541 C536 1.424 1_644 S
C541 C538 1.414 1_655 S
C541 C539 1.411 1_545 S
C542 H532 0.930 . S
C542 C540 1.419 . S
C542 C543 1.362 . S
C543 H533 0.930 1_655 S
C543 C536 1.414 1_655 S
C543 C542 1.362 . S
H544 C550 0.930 . S
H545 C553 0.930 . S
H546 C554 0.930 . S
H547 C555 0.930 . S
H548 C558 0.930 . S
H549 C559 0.930 . S
C550 H544 0.930 . S
C550 C551 1.355 . S
C550 C552 1.415 . S
C551 C550 1.355 . S
C551 C553 1.419 . S
C552 C550 1.415 . S
C552 C557 1.425 . S
C552 C559 1.409 . S
C553 H545 0.930 . S
C553 C551 1.419 . S
C553 C554 1.362 . S
C554 H546 0.930 . S
C554 C553 1.362 . S
C554 C557 1.409 . S
C555 H547 0.930 . S
C555 C556 1.355 . S
C555 C557 1.415 . S
C556 C555 1.355 . S
C556 C558 1.419 . S
C557 C552 1.425 . S
C557 C554 1.409 . S
C557 C555 1.415 . S
C558 H548 0.930 . S
C558 C556 1.419 . S
C558 C559 1.362 . S
C559 H549 0.930 . S
C559 C552 1.409 . S
C559 C558 1.362 . S
H560 C566 0.930 . S
H561 C569 0.930 . S
H562 C570 0.930 1_655 S
H563 C571 0.930 . S
H564 C574 0.930 . S
H565 C575 0.930 1_455 S
C566 H560 0.930 . S
C566 C567 1.355 . S
C566 C568 1.415 . S
C567 C566 1.355 . S
C567 C569 1.419 . S
C568 C566 1.415 . S
C568 C573 1.425 1_455 S
C568 C575 1.409 1_455 S
C569 H561 0.930 . S
C569 C567 1.419 . S
C569 C570 1.362 . S
C570 H562 0.930 1_455 S
C570 C569 1.362 . S
C570 C573 1.409 1_455 S
C571 H563 0.930 . S
C571 C572 1.355 . S
C571 C573 1.415 . S
C572 C571 1.355 . S
C572 C574 1.419 . S
C573 C568 1.425 1_655 S
C573 C570 1.409 1_655 S
C573 C571 1.415 . S
C574 H564 0.930 . S
C574 C572 1.419 . S
C574 C575 1.362 . S
C575 H565 0.930 1_655 S
C575 C568 1.409 1_655 S
C575 C574 1.362 . S
H576 C582 0.928 1_455 S
H577 C585 0.930 . S
H578 C586 0.930 . S
H579 C587 0.928 1_655 S
H580 C590 0.930 . S
H581 C591 0.930 . S
C582 H576 0.928 1_655 S
C582 C583 1.355 . S
C582 C584 1.415 1_655 S
C583 C582 1.355 . S
C583 C585 1.419 . S
C584 C582 1.415 1_455 S
C584 C589 1.425 1_465 S
C584 C591 1.409 1_565 S
C585 H577 0.930 . S
C585 C583 1.419 . S
C585 C586 1.362 . S
C586 H578 0.930 . S
C586 C585 1.362 . S
C586 C589 1.409 1_565 S
C587 H579 0.928 1_455 S
C587 C588 1.355 . S
C587 C589 1.415 1_455 S
C588 C587 1.355 . S
C588 C590 1.419 . S
C589 C584 1.425 1_645 S
C589 C586 1.409 1_545 S
C589 C587 1.415 1_655 S
C590 H580 0.930 . S
C590 C588 1.419 . S
C590 C591 1.362 . S
C591 H581 0.930 . S
C591 C584 1.409 1_545 S
C591 C590 1.362 . S
H592 C598 0.930 . S
H593 C601 0.930 . S
H594 C602 0.930 . S
H595 C603 0.930 . S
H596 C606 0.930 . S
H597 C607 0.930 . S
C598 H592 0.930 . S
C598 C599 1.355 1_545 S
C598 C600 1.415 . S
C599 C598 1.355 1_565 S
C599 C601 1.419 . S
C600 C598 1.415 . S
C600 C605 1.425 1_545 S
C600 C607 1.409 . S
C601 H593 0.930 . S
C601 C599 1.419 . S
C601 C602 1.362 . S
C602 H594 0.930 . S
C602 C601 1.362 . S
C602 C605 1.409 . S
C603 H595 0.930 . S
C603 C604 1.355 1_565 S
C603 C605 1.415 . S
C604 C603 1.355 1_545 S
C604 C606 1.419 . S
C605 C600 1.425 1_565 S
C605 C602 1.409 . S
C605 C603 1.415 . S
C606 H596 0.930 . S
C606 C604 1.419 . S
C606 C607 1.362 . S
C607 H597 0.930 . S
C607 C600 1.409 . S
C607 C606 1.362 . S
H608 C614 0.930 . S
H609 C617 0.930 . S
H610 C618 0.930 . S
H611 C619 0.930 . S
H612 C622 0.930 . S
H613 C623 0.930 . S
C614 H608 0.930 . S
C614 C615 1.355 . S
C614 C616 1.415 . S
C615 C614 1.355 . S
C615 C617 1.419 . S
C616 C614 1.415 . S
C616 C621 1.425 . S
C616 C623 1.409 . S
C617 H609 0.930 . S
C617 C615 1.419 . S
C617 C618 1.362 . S
C618 H610 0.930 . S
C618 C617 1.362 . S
C618 C621 1.409 . S
C619 H611 0.930 . S
C619 C620 1.355 . S
C619 C621 1.415 . S
C620 C619 1.355 . S
C620 C622 1.419 . S
C621 C616 1.425 . S
C621 C618 1.409 . S
C621 C619 1.415 . S
C622 H612 0.930 . S
C622 C620 1.419 . S
C622 C623 1.362 . S
C623 H613 0.930 . S
C623 C616 1.409 . S
C623 C622 1.362 . S
H624 C630 0.930 . S
H625 C633 0.930 . S
H626 C634 0.930 . S
H627 C635 0.930 . S
H628 C638 0.930 . S
H629 C639 0.930 . S
C630 H624 0.930 . S
C630 C631 1.355 . S
C630 C632 1.415 . S
C631 C630 1.355 . S
C631 C633 1.419 . S
C632 C630 1.415 . S
C632 C637 1.425 . S
C632 C639 1.409 . S
C633 H625 0.930 . S
C633 C631 1.419 . S
C633 C634 1.362 . S
C634 H626 0.930 . S
C634 C633 1.362 . S
C634 C637 1.409 . S
C635 H627 0.930 . S
C635 C636 1.355 . S
C635 C637 1.415 . S
C636 C635 1.355 . S
C636 C638 1.419 . S
C637 C632 1.425 . S
C637 C634 1.409 . S
C637 C635 1.415 . S
C638 H628 0.930 . S
C638 C636 1.419 . S
C638 C639 1.362 . S
C639 H629 0.930 . S
C639 C632 1.409 . S
C639 C638 1.362 . S
H640 C646 0.930 1_455 S
H641 C649 0.930 . S
H642 C650 0.930 . S
H643 C651 0.930 . S
H644 C654 0.930 . S
H645 C655 0.930 . S
C646 H640 0.930 1_655 S
C646 C647 1.355 . S
C646 C648 1.415 . S
C647 C646 1.355 . S
C647 C649 1.419 . S
C648 C646 1.415 . S
C648 C653 1.425 . S
C648 C655 1.409 1_655 S
C649 H641 0.930 . S
C649 C647 1.419 . S
C649 C650 1.362 . S
C650 H642 0.930 . S
C650 C649 1.362 . S
C650 C653 1.409 . S
C651 H643 0.930 . S
C651 C652 1.355 . S
C651 C653 1.415 . S
C652 C651 1.355 . S
C652 C654 1.419 1_655 S
C653 C648 1.425 . S
C653 C650 1.409 . S
C653 C651 1.415 . S
C654 H644 0.930 . S
C654 C652 1.419 1_455 S
C654 C655 1.362 . S
C655 H645 0.930 . S
C655 C648 1.409 1_455 S
C655 C654 1.362 . S
H656 C662 0.930 . S
H657 C665 0.930 . S
H658 C666 0.930 1_545 S
H659 C667 0.930 . S
H660 C670 0.930 . S
H661 C671 0.930 . S
C662 H656 0.930 . S
C662 C663 1.355 . S
C662 C664 1.415 . S
C663 C662 1.355 . S
C663 C665 1.419 . S
C664 C662 1.415 . S
C664 C669 1.425 . S
C664 C671 1.409 . S
C665 H657 0.930 . S
C665 C663 1.419 . S
C665 C666 1.362 . S
C666 H658 0.930 1_565 S
C666 C665 1.362 . S
C666 C669 1.409 . S
C667 H659 0.930 . S
C667 C668 1.355 . S
C667 C669 1.415 . S
C668 C667 1.355 . S
C668 C670 1.419 . S
C669 C664 1.425 . S
C669 C666 1.409 . S
C669 C667 1.415 . S
C670 H660 0.930 . S
C670 C668 1.419 . S
C670 C671 1.362 . S
C671 H661 0.930 . S
C671 C664 1.409 . S
C671 C670 1.362 . S
H672 C678 0.930 . S
H673 C681 0.930 . S
H674 C682 0.930 . S
H675 C683 0.930 . S
H676 C686 0.930 . S
H677 C687 0.930 . S
C678 H672 0.930 . S
C678 C679 1.355 . S
C678 C680 1.415 . S
C679 C678 1.355 . S
C679 C681 1.419 . S
C680 C678 1.415 . S
C680 C685 1.425 . S
C680 C687 1.409 . S
C681 H673 0.930 . S
C681 C679 1.419 . S
C681 C682 1.362 . S
C682 H674 0.930 . S
C682 C681 1.362 . S
C682 C685 1.409 . S
C683 H675 0.930 . S
C683 C684 1.355 . S
C683 C685 1.415 . S
C684 C683 1.355 . S
C684 C686 1.419 . S
C685 C680 1.425 . S
C685 C682 1.409 . S
C685 C683 1.415 . S
C686 H676 0.930 . S
C686 C684 1.419 . S
C686 C687 1.362 . S
C687 H677 0.930 . S
C687 C680 1.409 . S
C687 C686 1.362 . S
H688 C694 0.930 . S
H689 C697 0.930 . S
H690 C698 0.930 . S
H691 C699 0.930 . S
H692 C702 0.930 . S
H693 C703 0.930 . S
C694 H688 0.930 . S
C694 C695 1.355 . S
C694 C696 1.415 . S
C695 C694 1.355 . S
C695 C697 1.419 . S
C696 C694 1.415 . S
C696 C701 1.425 . S
C696 C703 1.409 . S
C697 H689 0.930 . S
C697 C695 1.419 . S
C697 C698 1.362 . S
C698 H690 0.930 . S
C698 C697 1.362 . S
C698 C701 1.409 . S
C699 H691 0.930 . S
C699 C700 1.355 . S
C699 C701 1.415 . S
C700 C699 1.355 . S
C700 C702 1.419 . S
C701 C696 1.425 . S
C701 C698 1.409 . S
C701 C699 1.415 . S
C702 H692 0.930 . S
C702 C700 1.419 . S
C702 C703 1.362 . S
C703 H693 0.930 . S
C703 C696 1.409 . S
C703 C702 1.362 . S
H704 C710 0.930 . S
H705 C713 0.930 . S
H706 C714 0.930 . S
H707 C715 0.932 . S
H708 C718 0.930 . S
H709 C719 0.930 . S
C710 H704 0.930 . S
C710 C711 1.355 . S
C710 C712 1.415 . S
C711 C710 1.355 . S
C711 C713 1.419 1_455 S
C712 C710 1.415 . S
C712 C717 1.425 . S
C712 C719 1.409 . S
C713 H705 0.930 . S
C713 C711 1.419 1_655 S
C713 C714 1.362 . S
C714 H706 0.930 . S
C714 C713 1.362 . S
C714 C717 1.409 1_655 S
C715 H707 0.932 . S
C715 C716 1.353 1_655 S
C715 C717 1.414 1_655 S
C716 C715 1.353 1_455 S
C716 C718 1.419 . S
C717 C712 1.425 . S
C717 C714 1.409 1_455 S
C717 C715 1.414 1_455 S
C718 H708 0.930 . S
C718 C716 1.419 . S
C718 C719 1.362 . S
C719 H709 0.930 . S
C719 C712 1.409 . S
C719 C718 1.362 . S
H720 C726 0.930 1_565 S
H721 C729 0.930 . S
H722 C730 0.930 . S
H723 C731 0.930 . S
H724 C734 0.930 . S
H725 C735 0.930 . S
C726 H720 0.930 1_545 S
C726 C727 1.355 . S
C726 C728 1.415 . S
C727 C726 1.355 . S
C727 C729 1.419 . S
C728 C726 1.415 . S
C728 C733 1.425 . S
C728 C735 1.409 1_545 S
C729 H721 0.930 . S
C729 C727 1.419 . S
C729 C730 1.362 . S
C730 H722 0.930 . S
C730 C729 1.362 . S
C730 C733 1.409 . S
C731 H723 0.930 . S
C731 C732 1.355 . S
C731 C733 1.415 . S
C732 C731 1.355 . S
C732 C734 1.419 1_545 S
C733 C728 1.425 . S
C733 C730 1.409 . S
C733 C731 1.415 . S
C734 H724 0.930 . S
C734 C732 1.419 1_565 S
C734 C735 1.362 . S
C735 H725 0.930 . S
C735 C728 1.409 1_565 S
C735 C734 1.362 . S
C231 C9 0.906 . S
C236 C133 0.918 . S
C247 C147 0.970 . S
C252 C23 0.992 . S
C263 C161 0.955 . S
C268 C37 0.994 . S
C279 C119 0.988 . S
C284 C51 0.968 . S
C295 C65 0.958 . S
C300 C217 0.926 . S
C311 C175 0.981 . S
C316 C79 0.861 . S
C327 C189 0.981 . S
C332 C93 0.862 . S
C343 C203 0.994 . S
C348 C107 0.915 . S
C359 C121 0.972 . S
C364 C21 0.987 . S
C375 C135 0.950 . S
C380 C35 0.924 . S
C391 C149 0.955 . S
C396 C49 0.925 . S
C407 C7 0.918 . S
C412 C163 0.914 . S
C423 C177 0.901 . S
C428 C105 0.993 . S
C439 C191 0.987 . S
C444 C63 0.977 . S
C455 C77 0.974 . S
C460 C205 0.850 . S
C471 C219 0.986 . S
C476 C91 0.943 . S
C487 C120 1.802 . S
C492 C8 1.802 . S
C503 C22 1.836 . S
C508 C134 1.836 . S
C519 C148 1.780 . S
C524 C36 1.780 . S
C535 C50 1.830 . S
C540 C162 1.830 . S
C551 C176 1.798 . S
C556 C64 1.798 . S
C567 C78 1.806 . S
C572 C190 1.806 . S
C583 C204 1.824 . S
C588 C92 1.824 . S
C599 C218 1.843 . S
C604 C106 1.843 . S
C615 C59 1.697 . S
C620 C3 1.707 . S
C631 C73 1.669 . S
C636 C17 1.668 . S
C647 C31 1.685 . S
C652 C87 1.702 . S
C663 C101 1.678 . S
C668 C45 1.667 . S
C679 C115 1.668 . S
C684 C171 1.681 . S
C695 C185 1.673 . S
C700 C129 1.666 . S
C711 C199 1.682 . S
C716 C143 1.668 . S
C727 C213 1.675 . S
C732 C157 1.693 . S
