# Generated by pormake.
# Topology lta, (4)-cn, num edge types: 1
# Building blocks:
#     Node 0, Type 0, BuildingBlock: NAHDIM_clean_sbu_0, # of connection points: 4
#     Node 1, Type 0, BuildingBlock: NAHDIM_clean_sbu_0, # of connection points: 4
#     Node 2, Type 0, BuildingBlock: NAHDIM_clean_sbu_0, # of connection points: 4
#     Node 3, Type 0, BuildingBlock: NAHDIM_clean_sbu_0, # of connection points: 4
#     Node 4, Type 0, BuildingBlock: NAHDIM_clean_sbu_0, # of connection points: 4
#     Node 5, Type 0, BuildingBlock: NAHDIM_clean_sbu_0, # of connection points: 4
#     Node 6, Type 0, BuildingBlock: NAHDIM_clean_sbu_0, # of connection points: 4
#     Node 7, Type 0, BuildingBlock: NAHDIM_clean_sbu_0, # of connection points: 4
#     Node 8, Type 0, BuildingBlock: NAHDIM_clean_sbu_0, # of connection points: 4
#     Node 9, Type 0, BuildingBlock: NAHDIM_clean_sbu_0, # of connection points: 4
#     Node 10, Type 0, BuildingBlock: NAHDIM_clean_sbu_0, # of connection points: 4
#     Node 11, Type 0, BuildingBlock: NAHDIM_clean_sbu_0, # of connection points: 4
#     Node 12, Type 0, BuildingBlock: NAHDIM_clean_sbu_0, # of connection points: 4
#     Node 13, Type 0, BuildingBlock: NAHDIM_clean_sbu_0, # of connection points: 4
#     Node 14, Type 0, BuildingBlock: NAHDIM_clean_sbu_0, # of connection points: 4
#     Node 15, Type 0, BuildingBlock: NAHDIM_clean_sbu_0, # of connection points: 4
#     Node 16, Type 0, BuildingBlock: NAHDIM_clean_sbu_0, # of connection points: 4
#     Node 17, Type 0, BuildingBlock: NAHDIM_clean_sbu_0, # of connection points: 4
#     Node 18, Type 0, BuildingBlock: NAHDIM_clean_sbu_0, # of connection points: 4
#     Node 19, Type 0, BuildingBlock: NAHDIM_clean_sbu_0, # of connection points: 4
#     Node 20, Type 0, BuildingBlock: NAHDIM_clean_sbu_0, # of connection points: 4
#     Node 21, Type 0, BuildingBlock: NAHDIM_clean_sbu_0, # of connection points: 4
#     Node 22, Type 0, BuildingBlock: NAHDIM_clean_sbu_0, # of connection points: 4
#     Node 23, Type 0, BuildingBlock: NAHDIM_clean_sbu_0, # of connection points: 4
#     Edge 24, Type (0, 0), BuildingBlock: EZIPEK_clean_linker_0, # of connection points: 2
#     Edge 25, Type (0, 0), BuildingBlock: EZIPEK_clean_linker_0, # of connection points: 2
#     Edge 26, Type (0, 0), BuildingBlock: EZIPEK_clean_linker_0, # of connection points: 2
#     Edge 27, Type (0, 0), BuildingBlock: EZIPEK_clean_linker_0, # of connection points: 2
#     Edge 28, Type (0, 0), BuildingBlock: EZIPEK_clean_linker_0, # of connection points: 2
#     Edge 29, Type (0, 0), BuildingBlock: EZIPEK_clean_linker_0, # of connection points: 2
#     Edge 30, Type (0, 0), BuildingBlock: EZIPEK_clean_linker_0, # of connection points: 2
#     Edge 31, Type (0, 0), BuildingBlock: EZIPEK_clean_linker_0, # of connection points: 2
#     Edge 32, Type (0, 0), BuildingBlock: EZIPEK_clean_linker_0, # of connection points: 2
#     Edge 33, Type (0, 0), BuildingBlock: EZIPEK_clean_linker_0, # of connection points: 2
#     Edge 34, Type (0, 0), BuildingBlock: EZIPEK_clean_linker_0, # of connection points: 2
#     Edge 35, Type (0, 0), BuildingBlock: EZIPEK_clean_linker_0, # of connection points: 2
#     Edge 36, Type (0, 0), BuildingBlock: EZIPEK_clean_linker_0, # of connection points: 2
#     Edge 37, Type (0, 0), BuildingBlock: EZIPEK_clean_linker_0, # of connection points: 2
#     Edge 38, Type (0, 0), BuildingBlock: EZIPEK_clean_linker_0, # of connection points: 2
#     Edge 39, Type (0, 0), BuildingBlock: EZIPEK_clean_linker_0, # of connection points: 2
#     Edge 40, Type (0, 0), BuildingBlock: EZIPEK_clean_linker_0, # of connection points: 2
#     Edge 41, Type (0, 0), BuildingBlock: EZIPEK_clean_linker_0, # of connection points: 2
#     Edge 42, Type (0, 0), BuildingBlock: EZIPEK_clean_linker_0, # of connection points: 2
#     Edge 43, Type (0, 0), BuildingBlock: EZIPEK_clean_linker_0, # of connection points: 2
#     Edge 44, Type (0, 0), BuildingBlock: EZIPEK_clean_linker_0, # of connection points: 2
#     Edge 45, Type (0, 0), BuildingBlock: EZIPEK_clean_linker_0, # of connection points: 2
#     Edge 46, Type (0, 0), BuildingBlock: EZIPEK_clean_linker_0, # of connection points: 2
#     Edge 47, Type (0, 0), BuildingBlock: EZIPEK_clean_linker_0, # of connection points: 2
#     Edge 48, Type (0, 0), BuildingBlock: EZIPEK_clean_linker_0, # of connection points: 2
#     Edge 49, Type (0, 0), BuildingBlock: EZIPEK_clean_linker_0, # of connection points: 2
#     Edge 50, Type (0, 0), BuildingBlock: EZIPEK_clean_linker_0, # of connection points: 2
#     Edge 51, Type (0, 0), BuildingBlock: EZIPEK_clean_linker_0, # of connection points: 2
#     Edge 52, Type (0, 0), BuildingBlock: EZIPEK_clean_linker_0, # of connection points: 2
#     Edge 53, Type (0, 0), BuildingBlock: EZIPEK_clean_linker_0, # of connection points: 2
#     Edge 54, Type (0, 0), BuildingBlock: EZIPEK_clean_linker_0, # of connection points: 2
#     Edge 55, Type (0, 0), BuildingBlock: EZIPEK_clean_linker_0, # of connection points: 2
#     Edge 56, Type (0, 0), BuildingBlock: EZIPEK_clean_linker_0, # of connection points: 2
#     Edge 57, Type (0, 0), BuildingBlock: EZIPEK_clean_linker_0, # of connection points: 2
#     Edge 58, Type (0, 0), BuildingBlock: EZIPEK_clean_linker_0, # of connection points: 2
#     Edge 59, Type (0, 0), BuildingBlock: EZIPEK_clean_linker_0, # of connection points: 2
#     Edge 60, Type (0, 0), BuildingBlock: EZIPEK_clean_linker_0, # of connection points: 2
#     Edge 61, Type (0, 0), BuildingBlock: EZIPEK_clean_linker_0, # of connection points: 2
#     Edge 62, Type (0, 0), BuildingBlock: EZIPEK_clean_linker_0, # of connection points: 2
#     Edge 63, Type (0, 0), BuildingBlock: EZIPEK_clean_linker_0, # of connection points: 2
#     Edge 64, Type (0, 0), BuildingBlock: EZIPEK_clean_linker_0, # of connection points: 2
#     Edge 65, Type (0, 0), BuildingBlock: EZIPEK_clean_linker_0, # of connection points: 2
#     Edge 66, Type (0, 0), BuildingBlock: EZIPEK_clean_linker_0, # of connection points: 2
#     Edge 67, Type (0, 0), BuildingBlock: EZIPEK_clean_linker_0, # of connection points: 2
#     Edge 68, Type (0, 0), BuildingBlock: EZIPEK_clean_linker_0, # of connection points: 2
#     Edge 69, Type (0, 0), BuildingBlock: EZIPEK_clean_linker_0, # of connection points: 2
#     Edge 70, Type (0, 0), BuildingBlock: EZIPEK_clean_linker_0, # of connection points: 2
#     Edge 71, Type (0, 0), BuildingBlock: EZIPEK_clean_linker_0, # of connection points: 2
# Relax obj value: 0.178
# Max RMSD: 0.072
# Mean RMSD: 0.072
data_MOF--net-lta--node1-NAHDIM_clean_sbu_0--edge1-EZIPEK_clean_linker_0
_symmetry_space_group_name_H-M    P1
_symmetry_Int_Tables_number       1
_symmetry_cell_setting            triclinic
loop_
_symmetry_equiv_pos_as_xyz
'x, y, z'
_cell_length_a     42.273162
_cell_length_b     42.275086
_cell_length_c     42.227413
_cell_angle_alpha  90.059197
_cell_angle_beta   89.902142
_cell_angle_gamma 89.857765
loop_
_atom_site_label
_atom_site_type_symbol
_atom_site_fract_x
_atom_site_fract_y
_atom_site_fract_z
_atom_type_partial_charge
C0 C 0.19685 0.28988 0.4922 0.0
O1 O 0.20266 0.31991 0.48701 0.0
O2 O 0.13187 0.33117 0.5471 0.0
Zn3 Zn 0.13385 0.31203 0.50359 0.0
O4 O 0.13924 0.34691 0.47193 0.0
C5 C 0.06844 0.30726 0.5023 0.0
O6 O 0.07227 0.33514 0.51541 0.0
O7 O 0.16923 0.28093 0.49978 0.0
C8 C 0.13931 0.34078 0.4425 0.0
O9 O 0.1362 0.31143 0.43279 0.0
C10 C 0.15254 0.35058 0.55686 0.0
O11 O 0.17719 0.3571 0.53912 0.0
O12 O 0.09249 0.29088 0.49481 0.0
C13 C 0.71205 0.17964 0.48836 0.0
O14 O 0.68223 0.1874 0.4926 0.0
O15 O 0.6614 0.1251 0.52898 0.0
Zn16 Zn 0.68494 0.11947 0.48809 0.0
O17 O 0.65433 0.12815 0.45284 0.0
C18 C 0.71442 0.06259 0.50985 0.0
O19 O 0.71654 0.07965 0.53572 0.0
O20 O 0.71981 0.15076 0.48573 0.0
C21 C 0.64116 0.10613 0.43729 0.0
O22 O 0.64822 0.07648 0.44337 0.0
C23 C 0.64022 0.10491 0.53553 0.0
O24 O 0.63564 0.08079 0.5165 0.0
O25 O 0.7017 0.07517 0.48569 0.0
C26 C 0.78624 0.70217 0.49047 0.0
O27 O 0.78146 0.67343 0.47971 0.0
O28 O 0.8498 0.65291 0.54064 0.0
Zn29 Zn 0.84915 0.67928 0.50083 0.0
O30 O 0.84842 0.65227 0.46139 0.0
C31 C 0.91411 0.68462 0.50541 0.0
O32 O 0.90941 0.6552 0.51409 0.0
O33 O 0.81321 0.70999 0.501 0.0
C34 C 0.83809 0.62414 0.45969 0.0
O35 O 0.82441 0.61119 0.48437 0.0
C36 C 0.82687 0.63836 0.55343 0.0
O37 O 0.79843 0.64042 0.54113 0.0
O38 O 0.89059 0.70212 0.4988 0.0
C39 C 0.27153 0.80403 0.48247 0.0
O40 O 0.29744 0.7988 0.4661 0.0
O41 O 0.33049 0.86045 0.53125 0.0
Zn42 Zn 0.30084 0.86359 0.49419 0.0
O43 O 0.32703 0.85692 0.45476 0.0
C44 C 0.29519 0.92986 0.50517 0.0
O45 O 0.32114 0.92443 0.52136 0.0
O46 O 0.26761 0.83016 0.49681 0.0
C47 C 0.34551 0.87848 0.44507 0.0
O48 O 0.34647 0.90575 0.45985 0.0
C49 C 0.3475 0.83596 0.53511 0.0
O50 O 0.34401 0.81156 0.5162 0.0
O51 O 0.28064 0.90681 0.49262 0.0
C52 C 0.17323 0.71036 0.48926 0.0
O53 O 0.17992 0.68004 0.48763 0.0
O54 O 0.11761 0.65825 0.45497 0.0
Zn55 Zn 0.11294 0.68486 0.49489 0.0
O56 O 0.12357 0.6588 0.53355 0.0
C57 C 0.04592 0.68691 0.4883 0.0
O58 O 0.05153 0.65997 0.47393 0.0
O59 O 0.14473 0.71931 0.49244 0.0
C60 C 0.10337 0.64068 0.54638 0.0
O61 O 0.07422 0.6404 0.53574 0.0
C62 C 0.11319 0.62851 0.4553 0.0
O63 O 0.10555 0.61443 0.48186 0.0
O64 O 0.06889 0.70312 0.49877 0.0
C65 C 0.28896 0.19008 0.48422 0.0
O66 O 0.31942 0.19435 0.47991 0.0
O67 O 0.33107 0.1266 0.44421 0.0
Zn68 Zn 0.30921 0.12694 0.48715 0.0
O69 O 0.34071 0.13629 0.52174 0.0
C70 C 0.29718 0.06089 0.48286 0.0
O71 O 0.32 0.06347 0.46202 0.0
O72 O 0.27814 0.16231 0.48757 0.0
C73 C 0.35613 0.11438 0.53531 0.0
O74 O 0.35129 0.08481 0.52716 0.0
C75 C 0.35997 0.11876 0.44093 0.0
O76 O 0.37619 0.10928 0.46563 0.0
O77 O 0.28675 0.08565 0.49632 0.0
C78 C 0.81029 0.27342 0.48262 0.0
O79 O 0.8037 0.30358 0.47906 0.0
O80 O 0.86572 0.3243 0.44642 0.0
Zn81 Zn 0.87027 0.2994 0.48724 0.0
O82 O 0.85904 0.32675 0.52506 0.0
C83 C 0.93727 0.29881 0.48134 0.0
O84 O 0.93105 0.32536 0.46658 0.0
O85 O 0.83877 0.26462 0.48632 0.0
C86 C 0.87901 0.34482 0.5383 0.0
O87 O 0.90844 0.34489 0.52838 0.0
C88 C 0.87006 0.35402 0.44623 0.0
O89 O 0.87701 0.36871 0.47265 0.0
O90 O 0.91464 0.28206 0.49175 0.0
C91 C 0.69557 0.80342 0.49081 0.0
O92 O 0.66474 0.80017 0.48898 0.0
O93 O 0.65383 0.86977 0.45454 0.0
Zn94 Zn 0.67793 0.86728 0.49555 0.0
O95 O 0.6471 0.85937 0.53075 0.0
C96 C 0.68537 0.93327 0.50309 0.0
O97 O 0.65457 0.93227 0.4995 0.0
O98 O 0.7076 0.83074 0.49357 0.0
C99 C 0.65262 0.86207 0.56014 0.0
O100 O 0.68072 0.87092 0.5699 0.0
C101 C 0.62433 0.8755 0.45536 0.0
O102 O 0.61008 0.87969 0.48268 0.0
O103 O 0.70138 0.90786 0.50254 0.0
C104 C 0.48857 0.1939 0.28466 0.0
O105 O 0.48708 0.19731 0.31553 0.0
O106 O 0.53872 0.12873 0.32415 0.0
Zn107 Zn 0.49725 0.12924 0.30073 0.0
O108 O 0.46256 0.12945 0.33302 0.0
C109 C 0.49954 0.06475 0.29312 0.0
O110 O 0.50859 0.06863 0.32259 0.0
O111 O 0.49304 0.16674 0.27263 0.0
C112 C 0.43339 0.12705 0.32653 0.0
O113 O 0.42412 0.12451 0.29698 0.0
C114 C 0.53973 0.13942 0.35224 0.0
O115 O 0.51471 0.15334 0.36442 0.0
O116 O 0.49346 0.08882 0.27626 0.0
C117 C 0.80459 0.4806 0.27467 0.0
O118 O 0.79695 0.47303 0.30385 0.0
O119 O 0.85457 0.53616 0.32985 0.0
Zn120 Zn 0.86279 0.49643 0.30373 0.0
O121 O 0.85615 0.4584 0.33174 0.0
C122 C 0.93028 0.50565 0.29787 0.0
O123 O 0.92639 0.52167 0.32416 0.0
O124 O 0.83144 0.49263 0.26883 0.0
C125 C 0.87823 0.44515 0.34716 0.0
O126 O 0.90736 0.4554 0.34435 0.0
C127 C 0.86397 0.53716 0.35845 0.0
O128 O 0.88039 0.51355 0.37008 0.0
O129 O 0.90633 0.49429 0.28392 0.0
C130 C 0.48979 0.80504 0.28642 0.0
O131 O 0.48402 0.8025 0.31688 0.0
O132 O 0.4484 0.86576 0.32677 0.0
Zn133 Zn 0.49059 0.86864 0.30375 0.0
O134 O 0.52675 0.86321 0.33459 0.0
C135 C 0.48281 0.93441 0.29252 0.0
O136 O 0.46577 0.93159 0.31832 0.0
O137 O 0.49342 0.83218 0.27412 0.0
C138 C 0.53849 0.88586 0.35045 0.0
O139 O 0.52789 0.91475 0.34618 0.0
C140 C 0.44604 0.87454 0.35547 0.0
O141 O 0.47077 0.88604 0.37014 0.0
O142 O 0.49522 0.90995 0.2802 0.0
C143 C 0.188 0.50157 0.28275 0.0
O144 O 0.19231 0.5172 0.30927 0.0
O145 O 0.12643 0.45075 0.33567 0.0
Zn146 Zn 0.12675 0.49006 0.30904 0.0
O147 O 0.13329 0.52732 0.33808 0.0
C148 C 0.0608 0.48253 0.29857 0.0
O149 O 0.06403 0.46404 0.32332 0.0
O150 O 0.16188 0.4878 0.27749 0.0
C151 C 0.11065 0.53749 0.35509 0.0
O152 O 0.08272 0.52419 0.35324 0.0
C153 C 0.14939 0.44424 0.35389 0.0
O154 O 0.17442 0.46257 0.35432 0.0
O155 O 0.08511 0.49532 0.28648 0.0
C156 C 0.51033 0.81907 0.72502 0.0
O157 O 0.53562 0.837 0.72359 0.0
O158 O 0.52952 0.86092 0.65173 0.0
Zn159 Zn 0.48858 0.85999 0.67607 0.0
O160 O 0.45198 0.85706 0.64602 0.0
C161 C 0.4911 0.92473 0.68115 0.0
O162 O 0.4988 0.91993 0.6514 0.0
O163 O 0.48719 0.82432 0.70668 0.0
C164 C 0.45027 0.83559 0.62507 0.0
O165 O 0.47263 0.8141 0.62293 0.0
C166 C 0.54576 0.83754 0.64201 0.0
O167 O 0.53655 0.80856 0.64823 0.0
O168 O 0.48503 0.90131 0.69887 0.0
C169 C 0.18434 0.50227 0.70547 0.0
O170 O 0.18728 0.50688 0.67485 0.0
O171 O 0.12231 0.5376 0.66208 0.0
Zn172 Zn 0.12189 0.49658 0.68633 0.0
O173 O 0.12898 0.46035 0.65645 0.0
C174 C 0.05716 0.49264 0.6857 0.0
O175 O 0.06454 0.49457 0.65557 0.0
O176 O 0.1572 0.49731 0.71735 0.0
C177 C 0.13188 0.4316 0.66459 0.0
O178 O 0.12972 0.42363 0.69457 0.0
C179 C 0.12254 0.53745 0.63201 0.0
O180 O 0.12398 0.51047 0.61667 0.0
O181 O 0.07899 0.49238 0.7063 0.0
C182 C 0.49593 0.18414 0.70535 0.0
O183 O 0.49492 0.19161 0.67518 0.0
O184 O 0.45834 0.12887 0.65347 0.0
Zn185 Zn 0.49839 0.12271 0.67937 0.0
O186 O 0.53735 0.12896 0.65189 0.0
C187 C 0.48631 0.05649 0.68455 0.0
O188 O 0.47192 0.06194 0.65764 0.0
O189 O 0.49802 0.15533 0.71349 0.0
C190 C 0.54869 0.10614 0.63581 0.0
O191 O 0.53598 0.07797 0.63821 0.0
C192 C 0.45746 0.12188 0.62421 0.0
O193 O 0.48297 0.11112 0.61013 0.0
O194 O 0.49913 0.07923 0.69936 0.0
C195 C 0.79654 0.48206 0.70173 0.0
O196 O 0.79204 0.47486 0.67181 0.0
O197 O 0.85771 0.44653 0.65543 0.0
Zn198 Zn 0.85867 0.48774 0.67959 0.0
O199 O 0.85133 0.52374 0.64958 0.0
C200 C 0.92431 0.49036 0.68037 0.0
O201 O 0.91862 0.48708 0.65001 0.0
O202 O 0.82418 0.4882 0.7116 0.0
C203 C 0.84897 0.55258 0.65766 0.0
O204 O 0.85197 0.56066 0.68755 0.0
C205 C 0.85922 0.44685 0.62539 0.0
O206 O 0.85995 0.47396 0.61028 0.0
O207 O 0.9014 0.49197 0.69976 0.0
C208 C 0.28076 0.4969 0.18302 0.0
O209 O 0.30943 0.48567 0.18722 0.0
O210 O 0.32714 0.54986 0.12154 0.0
Zn211 Zn 0.30406 0.50811 0.12096 0.0
O212 O 0.33357 0.47045 0.12545 0.0
C213 C 0.30166 0.50622 0.05589 0.0
O214 O 0.33196 0.50954 0.0615 0.0
O215 O 0.27265 0.50774 0.15621 0.0
C216 C 0.3632 0.47153 0.12057 0.0
O217 O 0.3767 0.49817 0.11234 0.0
C218 C 0.34796 0.55686 0.14201 0.0
O219 O 0.35406 0.537 0.16511 0.0
O220 O 0.2824 0.50456 0.07889 0.0
C221 C 0.2861 0.50324 0.79525 0.0
O222 O 0.31643 0.50062 0.78895 0.0
O223 O 0.33358 0.4631 0.85616 0.0
Zn224 Zn 0.30803 0.5035 0.85867 0.0
O225 O 0.33735 0.54059 0.85605 0.0
C226 C 0.30469 0.50419 0.92396 0.0
O227 O 0.33534 0.50347 0.919 0.0
O228 O 0.27673 0.50516 0.82373 0.0
C229 C 0.32958 0.56945 0.85333 0.0
O230 O 0.29963 0.57765 0.852 0.0
C231 C 0.36361 0.46407 0.85744 0.0
O232 O 0.37805 0.49148 0.85878 0.0
O233 O 0.28594 0.50457 0.90057 0.0
C234 C 0.48572 0.28056 0.80144 0.0
O235 O 0.47306 0.30807 0.7945 0.0
O236 O 0.53296 0.33488 0.86192 0.0
Zn237 Zn 0.49306 0.3091 0.86239 0.0
O238 O 0.4569 0.33873 0.85278 0.0
C239 C 0.50144 0.30201 0.92919 0.0
O240 O 0.52231 0.32437 0.92409 0.0
O241 O 0.49579 0.2752 0.82924 0.0
C242 C 0.44935 0.35955 0.87315 0.0
O243 O 0.46423 0.36053 0.90039 0.0
C244 C 0.54128 0.3514 0.83825 0.0
O245 O 0.52435 0.35091 0.81223 0.0
O246 O 0.48651 0.29015 0.90594 0.0
C247 C 0.69741 0.49205 0.79459 0.0
O248 O 0.66714 0.49103 0.78779 0.0
O249 O 0.65437 0.54326 0.85728 0.0
Zn250 Zn 0.6737 0.49989 0.85695 0.0
O251 O 0.63938 0.4681 0.85009 0.0
C252 C 0.67464 0.49992 0.92262 0.0
O253 O 0.64716 0.51323 0.91687 0.0
O254 O 0.70628 0.4958 0.82304 0.0
C255 C 0.64534 0.43868 0.85072 0.0
O256 O 0.67442 0.42881 0.8555 0.0
C257 C 0.62986 0.54925 0.84106 0.0
O258 O 0.61795 0.52744 0.82245 0.0
O259 O 0.69234 0.49174 0.89971 0.0
C260 C 0.49794 0.71713 0.81471 0.0
O261 O 0.49781 0.68763 0.80497 0.0
O262 O 0.44719 0.66861 0.87277 0.0
Zn263 Zn 0.49082 0.68774 0.87481 0.0
O264 O 0.52282 0.65401 0.86478 0.0
C265 C 0.49469 0.68216 0.94009 0.0
O266 O 0.48646 0.65346 0.93175 0.0
O267 O 0.49508 0.72325 0.84401 0.0
C268 C 0.55235 0.65836 0.86804 0.0
O269 O 0.56282 0.68572 0.87835 0.0
C270 C 0.44078 0.64718 0.85268 0.0
O271 O 0.4624 0.63799 0.8323 0.0
O272 O 0.49853 0.70315 0.91903 0.0
C273 C 0.72442 0.45379 0.16808 0.0
O274 O 0.71487 0.42538 0.16 0.0
O275 O 0.6585 0.43429 0.12009 0.0
Zn276 Zn 0.68142 0.47619 0.11973 0.0
O277 O 0.65217 0.51316 0.12777 0.0
C278 C 0.67893 0.4803 0.05502 0.0
O279 O 0.64947 0.47468 0.06294 0.0
O280 O 0.71424 0.4779 0.15341 0.0
C281 C 0.62219 0.51188 0.12856 0.0
O282 O 0.60763 0.48488 0.12435 0.0
C283 C 0.64106 0.42514 0.14279 0.0
O284 O 0.6388 0.44264 0.16844 0.0
O285 O 0.69987 0.48214 0.07643 0.0
C286 C 0.50206 0.69976 0.20126 0.0
O287 O 0.50242 0.66966 0.20896 0.0
O288 O 0.53986 0.64476 0.14441 0.0
Zn289 Zn 0.50268 0.67448 0.13931 0.0
O290 O 0.46271 0.6496 0.14345 0.0
C291 C 0.50623 0.67489 0.07293 0.0
O292 O 0.50918 0.64451 0.07848 0.0
O293 O 0.50289 0.70786 0.17237 0.0
C294 C 0.43497 0.66071 0.14053 0.0
O295 O 0.43074 0.69092 0.13471 0.0
C296 C 0.53541 0.61533 0.14008 0.0
O297 O 0.50686 0.60483 0.13405 0.0
O298 O 0.50361 0.69404 0.09596 0.0
C299 C 0.47727 0.29019 0.19007 0.0
O300 O 0.4718 0.32053 0.19404 0.0
O301 O 0.4479 0.34018 0.1287 0.0
Zn302 Zn 0.48478 0.30971 0.12675 0.0
O303 O 0.52499 0.33415 0.13092 0.0
C304 C 0.48767 0.30631 0.06127 0.0
O305 O 0.48936 0.33688 0.06631 0.0
O306 O 0.48255 0.27931 0.16254 0.0
C307 C 0.55199 0.32294 0.13781 0.0
O308 O 0.55559 0.29243 0.14244 0.0
C309 C 0.45275 0.36962 0.12505 0.0
O310 O 0.48163 0.38009 0.12067 0.0
O311 O 0.48508 0.28761 0.08461 0.0
C312 C 0.12214 0.41748 0.39918 0.0
C313 C 0.14681 0.41755 0.37632 0.0
C314 C 0.16799 0.36831 0.39845 0.0
C315 C 0.14169 0.3668 0.41932 0.0
N316 N 0.09051 0.38648 0.43549 0.0
N317 N 0.19012 0.39063 0.35047 0.0
C318 C 0.11783 0.39042 0.41856 0.0
C319 C 0.16894 0.3923 0.37492 0.0
N320 N 0.10367 0.44378 0.40335 0.0
N321 N 0.19264 0.3476 0.40191 0.0
H322 H 0.19137 0.40765 0.33265 0.0
H323 H 0.20453 0.37106 0.34626 0.0
H324 H 0.19292 0.32984 0.41901 0.0
H325 H 0.21396 0.34971 0.38971 0.0
H326 H 0.08766 0.44628 0.42196 0.0
H327 H 0.10638 0.46439 0.39009 0.0
H328 H 0.07088 0.40123 0.43314 0.0
H329 H 0.08623 0.36676 0.44968 0.0
C330 C 0.58439 0.10333 0.42102 0.0
C331 C 0.61559 0.11391 0.41477 0.0
C332 C 0.59679 0.14296 0.36814 0.0
C333 C 0.56616 0.13033 0.37315 0.0
N334 N 0.53223 0.09308 0.40005 0.0
N335 N 0.65285 0.13961 0.38002 0.0
C336 C 0.56036 0.10893 0.39835 0.0
C337 C 0.62221 0.13261 0.38765 0.0
N338 N 0.5773 0.08927 0.44931 0.0
N339 N 0.60133 0.16556 0.34547 0.0
H340 H 0.67205 0.1323 0.39369 0.0
H341 H 0.6595 0.15034 0.35886 0.0
H342 H 0.58326 0.17343 0.33059 0.0
H343 H 0.62226 0.17824 0.34293 0.0
H344 H 0.55426 0.0844 0.45657 0.0
H345 H 0.59404 0.08517 0.46693 0.0
H346 H 0.5281 0.07461 0.41582 0.0
H347 H 0.51398 0.09621 0.38375 0.0
C348 C 0.81822 0.58988 0.41546 0.0
C349 C 0.8439 0.60505 0.43082 0.0
C350 C 0.88038 0.58306 0.39139 0.0
C351 C 0.85572 0.56387 0.37952 0.0
N352 N 0.80131 0.54689 0.38149 0.0
N353 N 0.90046 0.61234 0.43613 0.0
C354 C 0.82454 0.5669 0.39163 0.0
C355 C 0.87528 0.60097 0.41934 0.0
N356 N 0.78783 0.598 0.4231 0.0
N357 N 0.9086 0.58438 0.37567 0.0
H358 H 0.89816 0.62439 0.45753 0.0
H359 H 0.92389 0.6071 0.43049 0.0
H360 H 0.91258 0.57216 0.35459 0.0
H361 H 0.92654 0.60021 0.38149 0.0
H362 H 0.7682 0.59001 0.41058 0.0
H363 H 0.78238 0.61514 0.44005 0.0
H364 H 0.77916 0.5454 0.39222 0.0
H365 H 0.80482 0.5302 0.36361 0.0
C366 C 0.36474 0.89009 0.39041 0.0
C367 C 0.36772 0.87239 0.41875 0.0
C368 C 0.41663 0.84838 0.39896 0.0
C369 C 0.41647 0.87009 0.37349 0.0
N370 N 0.39058 0.91121 0.34366 0.0
N371 N 0.39687 0.83535 0.45111 0.0
C372 C 0.39031 0.89052 0.36849 0.0
C373 C 0.39348 0.85125 0.42314 0.0
N374 N 0.33723 0.90604 0.38438 0.0
N375 N 0.43883 0.82481 0.3997 0.0
H376 H 0.38021 0.83632 0.46927 0.0
H377 H 0.41717 0.82281 0.45725 0.0
H378 H 0.45572 0.82191 0.38186 0.0
H379 H 0.43859 0.8064 0.41605 0.0
H380 H 0.33231 0.91719 0.36298 0.0
H381 H 0.31801 0.90572 0.3999 0.0
H382 H 0.37431 0.92952 0.34095 0.0
H383 H 0.40802 0.91085 0.3262 0.0
C384 C 0.09453 0.588 0.61768 0.0
C385 C 0.12077 0.56731 0.61397 0.0
C386 C 0.13842 0.59697 0.56753 0.0
C387 C 0.11255 0.61822 0.57168 0.0
N388 N 0.07234 0.63956 0.60624 0.0
N389 N 0.17243 0.55771 0.59176 0.0
C390 C 0.09268 0.61553 0.59863 0.0
C391 C 0.14428 0.57367 0.59095 0.0
N392 N 0.0704 0.58051 0.63789 0.0
N393 N 0.15623 0.59742 0.54048 0.0
H394 H 0.17768 0.54084 0.60901 0.0
H395 H 0.19169 0.56358 0.57752 0.0
H396 H 0.15329 0.6138 0.5224 0.0
H397 H 0.1725 0.57976 0.53476 0.0
H398 H 0.04913 0.59298 0.63873 0.0
H399 H 0.07036 0.56025 0.65187 0.0
H400 H 0.05932 0.64013 0.62721 0.0
H401 H 0.07116 0.66054 0.5933 0.0
C402 C 0.40614 0.14062 0.55398 0.0
C403 C 0.37917 0.12174 0.56056 0.0
C404 C 0.40089 0.1075 0.61241 0.0
C405 C 0.4282 0.12572 0.60544 0.0
N406 N 0.45267 0.16688 0.57473 0.0
N407 N 0.34654 0.09515 0.59898 0.0
C408 C 0.42943 0.14465 0.57781 0.0
C409 C 0.3752 0.10767 0.59077 0.0
N410 N 0.41046 0.15328 0.52452 0.0
N411 N 0.40002 0.08881 0.63878 0.0
H412 H 0.32704 0.09557 0.58386 0.0
H413 H 0.34111 0.08728 0.6217 0.0
H414 H 0.41743 0.08914 0.65616 0.0
H415 H 0.38276 0.07172 0.64272 0.0
H416 H 0.43156 0.16364 0.51718 0.0
H417 H 0.39376 0.15177 0.50652 0.0
H418 H 0.45323 0.18355 0.5566 0.0
H419 H 0.46966 0.17077 0.5922 0.0
C420 C 0.88617 0.39561 0.61131 0.0
C421 C 0.8607 0.4171 0.60705 0.0
C422 C 0.84418 0.38885 0.55928 0.0
C423 C 0.86941 0.36697 0.56381 0.0
N424 N 0.90773 0.34388 0.59918 0.0
N425 N 0.81038 0.42875 0.58303 0.0
C426 C 0.88824 0.36854 0.59152 0.0
C427 C 0.83803 0.4119 0.58297 0.0
N428 N 0.90945 0.4019 0.63281 0.0
N429 N 0.82732 0.38917 0.53168 0.0
H430 H 0.80497 0.44549 0.60042 0.0
H431 H 0.79157 0.4238 0.56793 0.0
H432 H 0.83046 0.37286 0.51351 0.0
H433 H 0.81165 0.40726 0.52571 0.0
H434 H 0.93039 0.38893 0.63418 0.0
H435 H 0.90919 0.42163 0.64758 0.0
H436 H 0.91988 0.34245 0.62058 0.0
H437 H 0.90901 0.32324 0.58566 0.0
C438 C 0.5701 0.86334 0.59461 0.0
C439 C 0.57352 0.8434 0.62141 0.0
C440 C 0.62917 0.83441 0.60752 0.0
C441 C 0.6264 0.85701 0.58284 0.0
N442 N 0.59625 0.899 0.55848 0.0
N443 N 0.60798 0.81515 0.65718 0.0
C444 C 0.59745 0.87329 0.57805 0.0
C445 C 0.60354 0.83033 0.62899 0.0
N446 N 0.54069 0.87164 0.58399 0.0
N447 N 0.65562 0.81589 0.60977 0.0
H448 H 0.59005 0.8125 0.67393 0.0
H449 H 0.63013 0.80798 0.66526 0.0
H450 H 0.67481 0.81787 0.59438 0.0
H451 H 0.65733 0.79671 0.62515 0.0
H452 H 0.53699 0.88365 0.56277 0.0
H453 H 0.51986 0.86349 0.59437 0.0
H454 H 0.57635 0.91347 0.5565 0.0
H455 H 0.61617 0.90797 0.54701 0.0
C456 C 0.37668 0.1489 0.39234 0.0
C457 C 0.37549 0.11996 0.40945 0.0
C458 C 0.41028 0.09486 0.37021 0.0
C459 C 0.41066 0.12348 0.35278 0.0
N460 N 0.38958 0.17552 0.34308 0.0
N461 N 0.38533 0.06368 0.41121 0.0
C462 C 0.39212 0.14971 0.3624 0.0
C463 C 0.39061 0.09241 0.39736 0.0
N464 N 0.36507 0.17609 0.4056 0.0
N465 N 0.42927 0.0702 0.36116 0.0
H466 H 0.37106 0.06079 0.43109 0.0
H467 H 0.39276 0.04228 0.40146 0.0
H468 H 0.44242 0.07028 0.34024 0.0
H469 H 0.43338 0.05034 0.37514 0.0
H470 H 0.36843 0.19845 0.39587 0.0
H471 H 0.35445 0.17688 0.42786 0.0
H472 H 0.37378 0.19402 0.34717 0.0
H473 H 0.40137 0.1772 0.32144 0.0
C474 C 0.84564 0.39861 0.41696 0.0
C475 C 0.86695 0.37274 0.41689 0.0
C476 C 0.88806 0.39003 0.36578 0.0
C477 C 0.87126 0.41892 0.36916 0.0
N478 N 0.83506 0.45186 0.3992 0.0
N479 N 0.90914 0.34344 0.39153 0.0
C480 C 0.84987 0.4234 0.39478 0.0
C481 C 0.88803 0.36797 0.39112 0.0
N482 N 0.82112 0.3992 0.43811 0.0
N483 N 0.90346 0.38346 0.33803 0.0
H484 H 0.90911 0.32594 0.40884 0.0
H485 H 0.92785 0.34135 0.37559 0.0
H486 H 0.9033 0.39888 0.31875 0.0
H487 H 0.91363 0.36158 0.33294 0.0
H488 H 0.803 0.41592 0.43746 0.0
H489 H 0.81711 0.38092 0.45421 0.0
H490 H 0.82248 0.45757 0.41966 0.0
H491 H 0.83713 0.47083 0.38367 0.0
C492 C 0.55752 0.85718 0.39925 0.0
C493 C 0.56286 0.87983 0.37492 0.0
C494 C 0.61023 0.89864 0.4025 0.0
C495 C 0.60537 0.87532 0.42608 0.0
N496 N 0.58004 0.82703 0.44245 0.0
N497 N 0.59878 0.91583 0.34903 0.0
C498 C 0.58079 0.85287 0.42301 0.0
C499 C 0.59064 0.89866 0.37521 0.0
N500 N 0.52958 0.84106 0.40098 0.0
N501 N 0.63249 0.92164 0.4068 0.0
H502 H 0.58557 0.91546 0.32819 0.0
H503 H 0.62023 0.92768 0.34678 0.0
H504 H 0.64736 0.92242 0.42646 0.0
H505 H 0.63454 0.94133 0.39214 0.0
H506 H 0.52306 0.82746 0.42048 0.0
H507 H 0.51158 0.84313 0.38438 0.0
H508 H 0.5646 0.80814 0.43915 0.0
H509 H 0.59701 0.8229 0.45989 0.0
C510 C 0.13819 0.58295 0.42752 0.0
C511 C 0.1172 0.60913 0.4264 0.0
C512 C 0.09913 0.59226 0.37399 0.0
C513 C 0.11575 0.56339 0.37794 0.0
N514 N 0.14945 0.52974 0.40953 0.0
N515 N 0.07632 0.63846 0.39912 0.0
C516 C 0.1352 0.55842 0.4048 0.0
C517 C 0.09759 0.61405 0.39957 0.0
N518 N 0.1614 0.58194 0.45 0.0
N519 N 0.08538 0.59905 0.34552 0.0
H520 H 0.07495 0.65557 0.4168 0.0
H521 H 0.05864 0.64068 0.38212 0.0
H522 H 0.0868 0.58379 0.32614 0.0
H523 H 0.07546 0.62095 0.3401 0.0
H524 H 0.17923 0.5649 0.45032 0.0
H525 H 0.1648 0.60016 0.46631 0.0
H526 H 0.16077 0.52359 0.43053 0.0
H527 H 0.14793 0.51109 0.39345 0.0
C528 C 0.37376 0.81352 0.5833 0.0
C529 C 0.37344 0.83619 0.55856 0.0
C530 C 0.42226 0.85986 0.57895 0.0
C531 C 0.42385 0.83573 0.60223 0.0
N532 N 0.40348 0.78759 0.62501 0.0
N533 N 0.39989 0.87744 0.52921 0.0
C534 C 0.40035 0.81186 0.60385 0.0
C535 C 0.39826 0.85857 0.55548 0.0
N536 N 0.348 0.79458 0.58801 0.0
N537 N 0.4437 0.88405 0.57921 0.0
H538 H 0.38303 0.87718 0.51125 0.0
H539 H 0.41934 0.89148 0.52371 0.0
H540 H 0.46294 0.88489 0.5946 0.0
H541 H 0.44136 0.9044 0.56554 0.0
H542 H 0.34521 0.77991 0.60759 0.0
H543 H 0.32797 0.7954 0.57364 0.0
H544 H 0.38929 0.76749 0.62484 0.0
H545 H 0.42159 0.78651 0.64172 0.0
C546 C 0.16319 0.38828 0.63796 0.0
C547 C 0.1355 0.40731 0.63961 0.0
C548 C 0.11962 0.38963 0.58686 0.0
C549 C 0.14635 0.3693 0.58578 0.0
N550 N 0.1904 0.34459 0.61223 0.0
N551 N 0.08344 0.41951 0.61981 0.0
C552 C 0.16722 0.36719 0.61195 0.0
C553 C 0.11247 0.40589 0.61533 0.0
N554 N 0.18627 0.39135 0.66037 0.0
N555 N 0.10206 0.39491 0.5602 0.0
H556 H 0.0771 0.43087 0.64083 0.0
H557 H 0.06463 0.41657 0.60417 0.0
H558 H 0.10721 0.38453 0.53838 0.0
H559 H 0.08437 0.41205 0.55888 0.0
H560 H 0.20858 0.38105 0.65836 0.0
H561 H 0.18391 0.40593 0.68015 0.0
H562 H 0.20428 0.33966 0.63198 0.0
H563 H 0.19403 0.32886 0.5935 0.0
C564 C 0.60177 0.09025 0.6155 0.0
C565 C 0.57528 0.1108 0.61338 0.0
C566 C 0.59633 0.13287 0.56392 0.0
C567 C 0.6199 0.10891 0.56371 0.0
N568 N 0.64512 0.06405 0.58836 0.0
N569 N 0.54601 0.1508 0.58468 0.0
C570 C 0.62274 0.08745 0.58933 0.0
C571 C 0.57246 0.13236 0.58769 0.0
N572 N 0.60729 0.07412 0.64301 0.0
N573 N 0.59644 0.15584 0.54113 0.0
H574 H 0.52828 0.15215 0.60173 0.0
H575 H 0.54049 0.16346 0.56429 0.0
H576 H 0.61225 0.15604 0.52217 0.0
H577 H 0.58236 0.17606 0.54221 0.0
H578 H 0.62766 0.06092 0.64724 0.0
H579 H 0.59287 0.07652 0.66296 0.0
H580 H 0.64588 0.0453 0.60431 0.0
H581 H 0.66207 0.06233 0.57045 0.0
C582 C 0.81812 0.59754 0.63343 0.0
C583 C 0.8446 0.57682 0.63277 0.0
C584 C 0.85778 0.59467 0.57931 0.0
C585 C 0.83296 0.61736 0.58089 0.0
N586 N 0.79413 0.64518 0.61246 0.0
N587 N 0.89431 0.56197 0.60879 0.0
C588 C 0.81441 0.6202 0.60883 0.0
C589 C 0.86588 0.57733 0.60683 0.0
N590 N 0.7958 0.59477 0.6567 0.0
N591 N 0.87262 0.58833 0.5512 0.0
H592 H 0.90159 0.5499 0.62906 0.0
H593 H 0.91202 0.56418 0.59175 0.0
H594 H 0.86666 0.5993 0.52996 0.0
H595 H 0.88855 0.5697 0.54828 0.0
H596 H 0.77425 0.60678 0.65621 0.0
H597 H 0.79755 0.57854 0.67517 0.0
H598 H 0.78244 0.65014 0.63364 0.0
H599 H 0.79138 0.66281 0.59542 0.0
C600 C 0.38462 0.4212 0.09786 0.0
C601 C 0.38267 0.44272 0.12358 0.0
C602 C 0.42416 0.41391 0.15193 0.0
C603 C 0.42633 0.39248 0.12612 0.0
N604 N 0.40559 0.3718 0.07713 0.0
N605 N 0.39523 0.4567 0.17737 0.0
C606 C 0.40537 0.39475 0.09999 0.0
C607 C 0.40083 0.43816 0.15137 0.0
N608 N 0.36773 0.42696 0.07086 0.0
N609 N 0.44489 0.41137 0.17665 0.0
H610 H 0.37835 0.47474 0.17758 0.0
H611 H 0.40538 0.45282 0.19945 0.0
H612 H 0.46084 0.39264 0.17891 0.0
H613 H 0.44734 0.42839 0.19429 0.0
H614 H 0.37065 0.41443 0.04983 0.0
H615 H 0.35179 0.4457 0.0688 0.0
H616 H 0.38882 0.37019 0.0592 0.0
H617 H 0.42139 0.35284 0.07721 0.0
C618 C 0.40287 0.61154 0.88094 0.0
C619 C 0.4102 0.63035 0.85412 0.0
C620 C 0.36255 0.61134 0.82716 0.0
C621 C 0.35473 0.59357 0.85454 0.0
N622 N 0.36267 0.58296 0.91001 0.0
N623 N 0.39436 0.65332 0.80438 0.0
C624 C 0.37338 0.59575 0.88228 0.0
C625 C 0.38916 0.63187 0.82802 0.0
N626 N 0.42486 0.60702 0.9042 0.0
N627 N 0.34551 0.60744 0.79996 0.0
H628 H 0.41363 0.66871 0.80437 0.0
H629 H 0.37826 0.65778 0.78628 0.0
H630 H 0.32558 0.59301 0.79863 0.0
H631 H 0.35228 0.61682 0.7782 0.0
H632 H 0.42206 0.59086 0.92259 0.0
H633 H 0.44731 0.61706 0.90349 0.0
H634 H 0.37371 0.58652 0.93175 0.0
H635 H 0.34096 0.57143 0.91179 0.0
C636 C 0.42998 0.40602 0.84158 0.0
C637 C 0.42494 0.38359 0.86605 0.0
C638 C 0.37843 0.41307 0.88421 0.0
C639 C 0.38257 0.43467 0.85882 0.0
N640 N 0.40727 0.44731 0.80893 0.0
N641 N 0.39008 0.36102 0.90508 0.0
C642 C 0.4068 0.42973 0.83608 0.0
C643 C 0.39777 0.38564 0.88562 0.0
N644 N 0.45763 0.40582 0.82474 0.0
N645 N 0.35738 0.41955 0.90797 0.0
H646 H 0.40327 0.34017 0.90582 0.0
H647 H 0.36896 0.35989 0.91777 0.0
H648 H 0.34309 0.43963 0.90827 0.0
H649 H 0.35607 0.40644 0.9288 0.0
H650 H 0.46408 0.4238 0.80919 0.0
H651 H 0.47542 0.3891 0.8282 0.0
H652 H 0.42252 0.44267 0.79007 0.0
H653 H 0.39027 0.46453 0.80391 0.0
C654 C 0.59395 0.41667 0.86988 0.0
C655 C 0.6192 0.41575 0.84773 0.0
C656 C 0.59472 0.37054 0.821 0.0
C657 C 0.56807 0.37356 0.84124 0.0
N658 N 0.53931 0.40365 0.88057 0.0
N659 N 0.64139 0.39554 0.79903 0.0
C660 C 0.56683 0.39776 0.86452 0.0
C661 C 0.61906 0.39365 0.82242 0.0
N662 N 0.59632 0.43476 0.89664 0.0
N663 N 0.59729 0.34505 0.8012 0.0
H664 H 0.65938 0.41237 0.79903 0.0
H665 H 0.64048 0.38229 0.77825 0.0
H666 H 0.57999 0.32756 0.79964 0.0
H667 H 0.6177 0.33978 0.78838 0.0
H668 H 0.58012 0.43367 0.91522 0.0
H669 H 0.61604 0.44862 0.90178 0.0
H670 H 0.53611 0.42316 0.89533 0.0
H671 H 0.51857 0.39092 0.87677 0.0
C672 C 0.61853 0.60695 0.83398 0.0
C673 C 0.61113 0.57772 0.84854 0.0
C674 C 0.56975 0.60323 0.88014 0.0
C675 C 0.57438 0.63158 0.86281 0.0
N676 N 0.60167 0.66041 0.82174 0.0
N677 N 0.57823 0.54668 0.8834 0.0
C678 C 0.5986 0.63359 0.8395 0.0
C679 C 0.58629 0.57546 0.87102 0.0
N680 N 0.64476 0.60926 0.81513 0.0
N681 N 0.55069 0.6033 0.90635 0.0
H682 H 0.5906 0.52587 0.87843 0.0
H683 H 0.55792 0.54296 0.89687 0.0
H684 H 0.53916 0.62355 0.91449 0.0
H685 H 0.54889 0.58432 0.92192 0.0
H686 H 0.6535 0.63061 0.80657 0.0
H687 H 0.65921 0.58992 0.80979 0.0
H688 H 0.61614 0.66203 0.80184 0.0
H689 H 0.58826 0.68072 0.82571 0.0
C690 C 0.6031 0.56491 0.11036 0.0
C691 C 0.60348 0.54089 0.13381 0.0
C692 C 0.5624 0.56858 0.16401 0.0
C693 C 0.56196 0.59258 0.14057 0.0
N694 N 0.5862 0.61758 0.09527 0.0
N695 N 0.58938 0.52289 0.18604 0.0
C696 C 0.58393 0.59216 0.11511 0.0
C697 C 0.58488 0.54365 0.16162 0.0
N698 N 0.61948 0.56074 0.08268 0.0
N699 N 0.5409 0.56939 0.18825 0.0
H700 H 0.60591 0.50454 0.1851 0.0
H701 H 0.57882 0.5253 0.20819 0.0
H702 H 0.5257 0.58851 0.19207 0.0
H703 H 0.53715 0.55067 0.20378 0.0
H704 H 0.6172 0.57549 0.0631 0.0
H705 H 0.6337 0.54105 0.07818 0.0
H706 H 0.60395 0.62011 0.07835 0.0
H707 H 0.57195 0.63758 0.09739 0.0
C708 C 0.36645 0.60846 0.16483 0.0
C709 C 0.36641 0.58657 0.13921 0.0
C710 C 0.40731 0.6174 0.1119 0.0
C711 C 0.4084 0.63824 0.13819 0.0
N712 N 0.38595 0.65808 0.18665 0.0
N713 N 0.38234 0.57319 0.08568 0.0
C714 C 0.38683 0.63524 0.16368 0.0
C715 C 0.38527 0.59212 0.1118 0.0
N716 N 0.34714 0.60335 0.19036 0.0
N717 N 0.42832 0.62123 0.08749 0.0
H718 H 0.36868 0.55285 0.08507 0.0
H719 H 0.39206 0.57845 0.06366 0.0
H720 H 0.44294 0.64095 0.08545 0.0
H721 H 0.43236 0.60453 0.06983 0.0
H722 H 0.34829 0.61599 0.21145 0.0
H723 H 0.33004 0.58563 0.19082 0.0
H724 H 0.36933 0.659 0.2048 0.0
H725 H 0.40086 0.67769 0.18645 0.0
C726 C 0.60272 0.39098 0.11233 0.0
C727 C 0.62175 0.396 0.13967 0.0
C728 C 0.59762 0.34977 0.16511 0.0
C729 C 0.57943 0.34451 0.13743 0.0
N730 N 0.57225 0.35359 0.08163 0.0
N731 N 0.64374 0.37485 0.18798 0.0
C732 C 0.58458 0.36298 0.11002 0.0
C733 C 0.6212 0.37371 0.16484 0.0
N734 N 0.59997 0.41371 0.08952 0.0
N735 N 0.59147 0.33303 0.19207 0.0
H736 H 0.66203 0.39136 0.18795 0.0
H737 H 0.64626 0.35746 0.20525 0.0
H738 H 0.57488 0.31488 0.19307 0.0
H739 H 0.60132 0.33859 0.21398 0.0
H740 H 0.58356 0.41248 0.07118 0.0
H741 H 0.61153 0.4353 0.09038 0.0
H742 H 0.57785 0.36444 0.0602 0.0
H743 H 0.55922 0.33282 0.07908 0.0
C744 C 0.01622 0.28981 0.5227 0.0
C745 C 0.03616 0.29567 0.49642 0.0
C746 C 0.99133 0.28945 0.46055 0.0
C747 C 0.97069 0.29033 0.487 0.0
N748 N 0.96301 0.29093 0.5438 0.0
N749 N 0.04356 0.30112 0.44002 0.0
C750 C 0.98294 0.28959 0.5183 0.0
C751 C 0.02412 0.29481 0.46513 0.0
N752 N 0.02928 0.28445 0.5518 0.0
N753 N 0.97932 0.28358 0.4311 0.0
H754 H 0.06783 0.30464 0.4424 0.0
H755 H 0.0354 0.30471 0.41705 0.0
H756 H 0.95532 0.2792 0.42735 0.0
H757 H 0.99332 0.27997 0.4111 0.0
H758 H 0.01629 0.2771 0.57142 0.0
H759 H 0.05369 0.28441 0.55552 0.0
H760 H 0.97067 0.29498 0.56687 0.0
H761 H 0.93852 0.28958 0.54194 0.0
C762 C 0.72238 0.0116 0.48056 0.0
C763 C 0.71992 0.02762 0.50996 0.0
C764 C 0.70424 0.97851 0.53608 0.0
C765 C 0.70129 0.96409 0.50592 0.0
N766 N 0.70946 0.96509 0.44942 0.0
N767 N 0.72642 0.02172 0.56641 0.0
C768 C 0.71161 0.97988 0.47815 0.0
C769 C 0.71634 0.00976 0.53814 0.0
N770 N 0.73629 0.0266 0.45552 0.0
N771 N 0.69432 0.96282 0.56257 0.0
H772 H 0.73976 0.04234 0.5679 0.0
H773 H 0.72606 0.009 0.58751 0.0
H774 H 0.68648 0.93943 0.56204 0.0
H775 H 0.69206 0.97354 0.58467 0.0
H776 H 0.74096 0.0159 0.43381 0.0
H777 H 0.74633 0.04903 0.45782 0.0
H778 H 0.71296 0.97641 0.42783 0.0
H779 H 0.70276 0.94147 0.44703 0.0
C780 C 0.95983 0.69584 0.46971 0.0
C781 C 0.94679 0.69556 0.50064 0.0
C782 C -0.00041 0.69831 0.52402 0.0
C783 C 0.01273 0.69688 0.49305 0.0
N784 N 0.00629 0.7042 0.43696 0.0
N785 N 0.9525 0.70561 0.55633 0.0
C786 C 0.99303 0.69908 0.46605 0.0
C787 C 0.9662 0.69999 0.52752 0.0
N788 N 0.94077 0.691 0.44404 0.0
N789 N 0.01867 0.6958 0.55 0.0
H790 H 0.928 0.7069 0.55928 0.0
H791 H 0.96518 0.71187 0.57648 0.0
H792 H 0.04326 0.69557 0.5487 0.0
H793 H 0.01017 0.69237 0.57289 0.0
H794 H 0.94935 0.68689 0.42128 0.0
H795 H 0.91622 0.68935 0.44575 0.0
H796 H 0.99316 0.70871 0.41661 0.0
H797 H 0.03063 0.707 0.43386 0.0
C798 C 0.27841 0.00852 0.46481 0.0
C799 C 0.28513 0.02891 0.49049 0.0
C800 C 0.28357 0.98355 0.52642 0.0
C801 C 0.28508 0.96301 0.49991 0.0
N802 N 0.28468 0.95622 0.44283 0.0
N803 N 0.2933 0.03606 0.5468 0.0
C804 C 0.28189 0.97539 0.46877 0.0
C805 C 0.28671 0.01667 0.52178 0.0
N806 N 0.26899 0.02104 0.43653 0.0
N807 N 0.27907 0.97124 0.55599 0.0
H808 H 0.29449 0.06055 0.54504 0.0
H809 H 0.29915 0.02766 0.56923 0.0
H810 H 0.27613 0.94704 0.55984 0.0
H811 H 0.27495 0.9851 0.57599 0.0
H812 H 0.26104 0.00732 0.41766 0.0
H813 H 0.26588 0.04534 0.43334 0.0
H814 H 0.2867 0.96488 0.41983 0.0
H815 H 0.28728 0.9318 0.44405 0.0
C816 C 0.46227 0.98602 0.27397 0.0
C817 C 0.48881 0.96648 0.28006 0.0
C818 C 0.52323 0.01289 0.27934 0.0
C819 C 0.49601 0.03235 0.28076 0.0
N820 N 0.43939 0.03853 0.27746 0.0
N821 N 0.54535 0.96055 0.28649 0.0
C822 C 0.46543 0.01933 0.27664 0.0
C823 C 0.51971 0.97956 0.28124 0.0
N824 N 0.43409 0.97244 0.266 0.0
N825 N 0.55235 0.02655 0.27643 0.0
H826 H 0.54419 0.93598 0.28655 0.0
H827 H 0.56773 0.96912 0.29206 0.0
H828 H 0.55523 0.05103 0.27487 0.0
H829 H 0.57311 0.01382 0.27251 0.0
H830 H 0.41431 0.98524 0.2588 0.0
H831 H 0.43157 0.94797 0.26369 0.0
H832 H 0.41629 0.03014 0.27872 0.0
H833 H 0.44091 0.06311 0.27832 0.0
C834 C 0.98347 0.52591 0.28405 0.0
C835 C 0.96283 0.49972 0.28631 0.0
C836 C 0.00807 0.46387 0.28106 0.0
C837 C 0.02856 0.48963 0.28691 0.0
N838 N 0.03608 0.5461 0.293 0.0
N839 N 0.95515 0.44293 0.28557 0.0
C840 C 0.01653 0.52106 0.28729 0.0
C841 C 0.97488 0.46841 0.28357 0.0
N842 N 0.97124 0.5554 0.27889 0.0
N843 N 0.02057 0.43509 0.27312 0.0
H844 H 0.93062 0.44473 0.28599 0.0
H845 H 0.9632 0.4198 0.28834 0.0
H846 H 0.0449 0.43147 0.27074 0.0
H847 H 0.00695 0.41595 0.26575 0.0
H848 H 0.98511 0.57518 0.27417 0.0
H849 H 0.94702 0.55931 0.27602 0.0
H850 H 0.02785 0.56881 0.298 0.0
H851 H 0.06054 0.54414 0.29439 0.0
C852 C 0.46037 0.97306 0.69592 0.0
C853 C 0.48987 0.95735 0.69326 0.0
C854 C 0.51814 0.00762 0.69601 0.0
C855 C 0.48851 0.02352 0.69582 0.0
N856 N 0.43257 0.02245 0.70589 0.0
N857 N 0.5462 0.95759 0.70056 0.0
C858 C 0.45995 0.00644 0.69941 0.0
C859 C 0.5186 0.97405 0.69675 0.0
N860 N 0.43291 0.95629 0.69313 0.0
N861 N 0.54561 0.02437 0.69326 0.0
H862 H 0.54688 0.9329 0.7012 0.0
H863 H 0.56776 0.96814 0.70595 0.0
H864 H 0.5465 0.04894 0.69432 0.0
H865 H 0.56754 0.01403 0.68878 0.0
H866 H 0.41068 0.96671 0.69102 0.0
H867 H 0.43247 0.93167 0.69154 0.0
H868 H 0.41121 0.01144 0.7112 0.0
H869 H 0.43203 0.04697 0.70884 0.0
C870 C 0.97383 0.46239 0.69552 0.0
C871 C 0.95733 0.49129 0.69136 0.0
C872 C 0.00671 0.52078 0.69672 0.0
C873 C 0.02352 0.49185 0.69474 0.0
N874 N 0.02437 0.43495 0.69396 0.0
N875 N 0.95672 0.54819 0.68919 0.0
C876 C 0.00743 0.46251 0.69523 0.0
C877 C 0.97333 0.52065 0.6929 0.0
N878 N 0.9572 0.43501 0.69967 0.0
N879 N 0.02286 0.54822 0.70211 0.0
H880 H 0.93209 0.5488 0.68764 0.0
H881 H 0.96725 0.57022 0.68631 0.0
H882 H 0.04733 0.54862 0.70537 0.0
H883 H 0.012 0.56998 0.70612 0.0
H884 H 0.96759 0.41336 0.70513 0.0
H885 H 0.93253 0.43456 0.70034 0.0
H886 H 0.01428 0.41281 0.69038 0.0
H887 H 0.04902 0.43443 0.69539 0.0
C888 C 0.28766 0.53296 0.97266 0.0
C889 C 0.29275 0.50391 0.95669 0.0
C890 C 0.29269 0.47508 0.00677 0.0
C891 C 0.29093 0.50443 0.02285 0.0
N892 N 0.27841 0.5599 0.0228 0.0
N893 N 0.29072 0.44712 0.95646 0.0
C894 C 0.28537 0.53296 0.00624 0.0
C895 C 0.292 0.4748 0.97316 0.0
N896 N 0.28655 0.56045 0.95569 0.0
N897 N 0.2965 0.44782 0.02374 0.0
H898 H 0.28956 0.44669 0.93177 0.0
H899 H 0.28814 0.42494 0.96677 0.0
H900 H 0.29524 0.44735 0.04842 0.0
H901 H 0.30172 0.42594 0.01368 0.0
H902 H 0.28643 0.58291 0.96577 0.0
H903 H 0.28643 0.56073 0.93097 0.0
H904 H 0.2721 0.58127 0.01236 0.0
H905 H 0.27664 0.56017 0.04746 0.0
C906 C 0.46461 0.29945 0.97603 0.0
C907 C 0.49459 0.29265 0.96227 0.0
C908 C 0.51772 0.28513 0.01488 0.0
C909 C 0.48853 0.29452 0.02844 0.0
N910 N 0.43232 0.30095 0.02371 0.0
N911 N 0.54647 0.26981 0.96737 0.0
C912 C 0.46128 0.29832 0.00949 0.0
C913 C 0.52012 0.28234 0.98142 0.0
N914 N 0.43999 0.30905 0.95743 0.0
N915 N 0.5434 0.28041 0.03393 0.0
H916 H 0.54835 0.26711 0.94285 0.0
H917 H 0.56508 0.25956 0.97981 0.0
H918 H 0.54181 0.2806 0.05859 0.0
H919 H 0.56636 0.2774 0.02549 0.0
H920 H 0.41903 0.31853 0.9663 0.0
H921 H 0.44089 0.3088 0.93283 0.0
H922 H 0.41101 0.30111 0.0114 0.0
H923 H 0.42952 0.29993 0.04825 0.0
C924 C 0.6904 0.51997 0.97565 0.0
C925 C 0.68394 0.49386 0.95565 0.0
C926 C 0.68586 0.45805 0.00107 0.0
C927 C 0.68678 0.4847 0.02136 0.0
N928 N 0.69017 0.54106 0.02911 0.0
N929 N 0.67519 0.43794 0.94838 0.0
C930 C 0.68974 0.51569 0.009 0.0
C931 C 0.68221 0.46271 0.96798 0.0
N932 N 0.69731 0.54871 0.96259 0.0
N933 N 0.68847 0.42837 0.01363 0.0
H934 H 0.6731 0.44033 0.9239 0.0
H935 H 0.66971 0.41534 0.95641 0.0
H936 H 0.6912 0.42446 0.03788 0.0
H937 H 0.69078 0.40793 5e-05 0.0
H938 H 0.70499 0.56812 0.97564 0.0
H939 H 0.69805 0.55235 0.93815 0.0
H940 H 0.68825 0.56444 0.02164 0.0
H941 H 0.69091 0.53866 0.05368 0.0
C942 C 0.52968 0.68177 0.98751 0.0
C943 C 0.50002 0.68914 0.97379 0.0
C944 C 0.47602 0.69515 0.02618 0.0
C945 C 0.50526 0.68596 0.03987 0.0
N946 N 0.56158 0.67954 0.03524 0.0
N947 N 0.44753 0.71068 0.9787 0.0
C948 C 0.53271 0.68225 0.02097 0.0
C949 C 0.47405 0.69863 0.99278 0.0
N950 N 0.55449 0.67315 0.96854 0.0
N951 N 0.44983 0.69867 0.0449 0.0
H952 H 0.44552 0.71317 0.9542 0.0
H953 H 0.42872 0.72063 0.99117 0.0
H954 H 0.45068 0.69749 0.06954 0.0
H955 H 0.42699 0.70135 0.03613 0.0
H956 H 0.5756 0.66373 0.97703 0.0
H957 H 0.55343 0.67427 0.94389 0.0
H958 H 0.58296 0.67912 0.02298 0.0
H959 H 0.56427 0.68075 0.05977 0.0
C960 C 0.22347 0.24716 0.46139 0.0
C961 C 0.22226 0.26627 0.48896 0.0
C962 C 0.26793 0.23842 0.51122 0.0
C963 C 0.26722 0.21736 0.48501 0.0
N964 N 0.24439 0.20027 0.43556 0.0
N965 N 0.24104 0.27963 0.5411 0.0
C966 C 0.24502 0.22137 0.46015 0.0
C967 C 0.24409 0.26202 0.51404 0.0
N968 N 0.20457 0.25431 0.43611 0.0
N969 N 0.29127 0.2357 0.53346 0.0
H970 H 0.22428 0.29761 0.54369 0.0
H971 H 0.25369 0.27536 0.56177 0.0
H972 H 0.308 0.21754 0.53335 0.0
H973 H 0.29537 0.2524 0.55109 0.0
H974 H 0.20646 0.24355 0.41402 0.0
H975 H 0.18828 0.27286 0.43642 0.0
H976 H 0.22643 0.19937 0.41877 0.0
H977 H 0.26125 0.18246 0.43258 0.0
C978 C 0.75394 0.20822 0.45812 0.0
C979 C 0.73648 0.20435 0.48657 0.0
C980 C 0.76525 0.24814 0.51112 0.0
C981 C 0.78461 0.25003 0.48372 0.0
N982 N 0.80008 0.23042 0.4323 0.0
N983 N 0.72801 0.21705 0.54165 0.0
C984 C 0.7798 0.22956 0.45757 0.0
C985 C 0.74261 0.2235 0.51345 0.0
N986 N 0.74487 0.19252 0.43129 0.0
N987 N 0.76852 0.26987 0.53491 0.0
H988 H 0.71147 0.19899 0.54442 0.0
H989 H 0.73406 0.22779 0.56298 0.0
H990 H 0.78602 0.28722 0.53496 0.0
H991 H 0.75264 0.2721 0.55366 0.0
H992 H 0.75446 0.19683 0.409 0.0
H993 H 0.72573 0.177 0.43067 0.0
H994 H 0.80015 0.21361 0.41427 0.0
H995 H 0.8183 0.24689 0.43027 0.0
C996 C 0.7526 0.74068 0.46096 0.0
C997 C 0.76055 0.72574 0.48995 0.0
C998 C 0.72173 0.75829 0.51833 0.0
C999 C 0.71629 0.77542 0.49001 0.0
N1000 N 0.72682 0.78484 0.43473 0.0
N1001 N 0.75446 0.72039 0.54647 0.0
C1002 C 0.73165 0.76702 0.46133 0.0
C1003 C 0.74549 0.73447 0.51872 0.0
N1004 N 0.76505 0.7296 0.43314 0.0
N1005 N 0.70393 0.76469 0.54468 0.0
H1006 H 0.77061 0.70173 0.54743 0.0
H1007 H 0.74725 0.7281 0.56875 0.0
H1008 H 0.68685 0.78253 0.54538 0.0
H1009 H 0.70436 0.75107 0.56518 0.0
H1010 H 0.75771 0.73714 0.41088 0.0
H1011 H 0.78144 0.71116 0.43207 0.0
H1012 H 0.73998 0.78246 0.41402 0.0
H1013 H 0.71057 0.80343 0.43381 0.0
C1014 C 0.20219 0.75218 0.45937 0.0
C1015 C 0.19874 0.73392 0.48732 0.0
C1016 C 0.24251 0.76229 0.51244 0.0
C1017 C 0.24679 0.77963 0.48402 0.0
N1018 N 0.23368 0.78963 0.42937 0.0
N1019 N 0.21675 0.71857 0.53926 0.0
C1020 C 0.2275 0.77411 0.45712 0.0
C1021 C 0.2193 0.73806 0.51352 0.0
N1022 N 0.18094 0.74878 0.43518 0.0
N1023 N 0.2604 0.76938 0.53848 0.0
H1024 H 0.19899 0.70165 0.54164 0.0
H1025 H 0.23312 0.71778 0.55761 0.0
H1026 H 0.27875 0.78582 0.53809 0.0
H1027 H 0.2562 0.76034 0.561 0.0
H1028 H 0.17969 0.76381 0.41573 0.0
H1029 H 0.16317 0.73171 0.43519 0.0
H1030 H 0.22304 0.78418 0.40786 0.0
H1031 H 0.25095 0.80708 0.42725 0.0
C1032 C 0.50761 0.24452 0.26086 0.0
C1033 C 0.4837 0.22123 0.26366 0.0
C1034 C 0.45387 0.24525 0.22026 0.0
C1035 C 0.47777 0.26856 0.21739 0.0
N1036 N 0.52418 0.29447 0.2381 0.0
N1037 N 0.4312 0.20285 0.25157 0.0
C1038 C 0.50352 0.26963 0.2389 0.0
C1039 C 0.45592 0.22263 0.24498 0.0
N1040 N 0.53496 0.24159 0.27792 0.0
N1041 N 0.4295 0.24449 0.19899 0.0
H1042 H 0.43195 0.18614 0.26971 0.0
H1043 H 0.40905 0.20464 0.24102 0.0
H1044 H 0.42599 0.26199 0.18194 0.0
H1045 H 0.41354 0.22587 0.1972 0.0
H1046 H 0.5549 0.25551 0.27426 0.0
H1047 H 0.53862 0.22373 0.29454 0.0
H1048 H 0.54141 0.29841 0.25522 0.0
H1049 H 0.52279 0.31262 0.22149 0.0
C1050 C 0.75284 0.48605 0.24658 0.0
C1051 C 0.78337 0.4723 0.24832 0.0
C1052 C 0.77538 0.44605 0.19723 0.0
C1053 C 0.74421 0.45838 0.19638 0.0
N1054 N 0.70058 0.48374 0.22339 0.0
N1055 N 0.82103 0.43354 0.22944 0.0
C1056 C 0.73211 0.47652 0.22201 0.0
C1057 C 0.79391 0.45062 0.22484 0.0
N1058 N 0.74411 0.50915 0.26756 0.0
N1059 N 0.78776 0.43115 0.17125 0.0
H1060 H 0.83495 0.43569 0.2497 0.0
H1061 H 0.82811 0.41506 0.21469 0.0
H1062 H 0.77488 0.42727 0.15057 0.0
H1063 H 0.81153 0.42492 0.16923 0.0
H1064 H 0.72351 0.52251 0.26523 0.0
H1065 H 0.75872 0.51691 0.28585 0.0
H1066 H 0.68986 0.4941 0.24307 0.0
H1067 H 0.68446 0.47656 0.20616 0.0
C1068 C 0.52631 0.74423 0.23147 0.0
C1069 C 0.49991 0.72439 0.22584 0.0
C1070 C 0.46686 0.75707 0.26062 0.0
C1071 C 0.49348 0.77645 0.26681 0.0
N1072 N 0.54972 0.78533 0.2639 0.0
N1073 N 0.44661 0.70825 0.23833 0.0
C1074 C 0.52359 0.76914 0.25386 0.0
C1075 C 0.4707 0.72954 0.24166 0.0
N1076 N 0.55386 0.73945 0.21507 0.0
N1077 N 0.43763 0.76594 0.27148 0.0
H1078 H 0.44799 0.68858 0.22349 0.0
H1079 H 0.42602 0.70874 0.25187 0.0
H1080 H 0.43389 0.78592 0.28551 0.0
H1081 H 0.41667 0.75494 0.26481 0.0
H1082 H 0.57259 0.75539 0.21503 0.0
H1083 H 0.55747 0.72017 0.20005 0.0
H1084 H 0.57279 0.77906 0.25792 0.0
H1085 H 0.54862 0.80357 0.28053 0.0
C1086 C 0.22229 0.5289 0.24311 0.0
C1087 C 0.21311 0.50061 0.25857 0.0
C1088 C 0.24765 0.4696 0.22379 0.0
C1089 C 0.25832 0.4981 0.20971 0.0
N1090 N 0.26102 0.55511 0.21007 0.0
N1091 N 0.22113 0.44495 0.26826 0.0
C1092 C 0.24716 0.52786 0.22057 0.0
C1093 C 0.227 0.47118 0.25027 0.0
N1094 N 0.20631 0.55649 0.2489 0.0
N1095 N 0.25614 0.44106 0.21102 0.0
H1096 H 0.20623 0.44531 0.28798 0.0
H1097 H 0.23314 0.4236 0.26543 0.0
H1098 H 0.27114 0.4389 0.1915 0.0
H1099 H 0.24628 0.41964 0.21807 0.0
H1100 H 0.20958 0.57701 0.23567 0.0
H1101 H 0.1878 0.55827 0.26516 0.0
H1102 H 0.25625 0.5773 0.21972 0.0
H1103 H 0.27949 0.55531 0.19366 0.0
C1104 C 0.47809 0.76743 0.79067 0.0
C1105 C 0.5013 0.74317 0.7917 0.0
C1106 C 0.52951 0.76768 0.74742 0.0
C1107 C 0.50806 0.79348 0.74858 0.0
N1108 N 0.46578 0.82119 0.77538 0.0
N1109 N 0.5522 0.723 0.77501 0.0
C1110 C 0.48342 0.79432 0.77139 0.0
C1111 C 0.5279 0.74402 0.77114 0.0
N1112 N 0.45029 0.76415 0.80693 0.0
N1113 N 0.55058 0.76506 0.72296 0.0
H1114 H 0.55206 0.70542 0.79225 0.0
H1115 H 0.57369 0.72475 0.76305 0.0
H1116 H 0.55236 0.78182 0.70498 0.0
H1117 H 0.56431 0.74496 0.71894 0.0
H1118 H 0.43122 0.77959 0.80436 0.0
H1119 H 0.44495 0.74431 0.82057 0.0
H1120 H 0.44975 0.82423 0.7939 0.0
H1121 H 0.46935 0.84167 0.7621 0.0
C1122 C 0.24337 0.53158 0.76621 0.0
C1123 C 0.26263 0.50429 0.76952 0.0
C1124 C 0.23417 0.47831 0.72632 0.0
C1125 C 0.21232 0.50382 0.7261 0.0
N1126 N 0.19464 0.55428 0.74626 0.0
N1127 N 0.27495 0.45032 0.75531 0.0
C1128 C 0.21651 0.53038 0.74616 0.0
C1129 C 0.25795 0.47737 0.75001 0.0
N1130 N 0.25152 0.55897 0.78138 0.0
N1131 N 0.23212 0.45499 0.70396 0.0
H1132 H 0.29255 0.4486 0.77248 0.0
H1133 H 0.27004 0.42879 0.7444 0.0
H1134 H 0.21443 0.45441 0.68681 0.0
H1135 H 0.24932 0.43759 0.70077 0.0
H1136 H 0.24032 0.58058 0.77756 0.0
H1137 H 0.27155 0.56081 0.79564 0.0
H1138 H 0.19424 0.57233 0.76305 0.0
H1139 H 0.17565 0.5552 0.73053 0.0
C1140 C 0.46711 0.20881 0.7509 0.0
C1141 C 0.49326 0.20901 0.72977 0.0
C1142 C 0.51298 0.25774 0.75407 0.0
C1143 C 0.48837 0.25594 0.77686 0.0
N1144 N 0.44426 0.22814 0.79995 0.0
N1145 N 0.54369 0.23042 0.71389 0.0
C1146 C 0.46615 0.2309 0.77623 0.0
C1147 C 0.51687 0.2327 0.73194 0.0
N1148 N 0.44245 0.18855 0.74581 0.0
N1149 N 0.5325 0.28348 0.75348 0.0
H1150 H 0.54755 0.21222 0.69763 0.0
H1151 H 0.56331 0.24496 0.71683 0.0
H1152 H 0.53126 0.30163 0.77018 0.0
H1153 H 0.5485 0.28799 0.73527 0.0
H1154 H 0.42121 0.18958 0.75829 0.0
H1155 H 0.44193 0.17242 0.72711 0.0
H1156 H 0.42989 0.20838 0.80285 0.0
H1157 H 0.44191 0.24465 0.81818 0.0
C1158 C 0.72462 0.51238 0.74614 0.0
C1159 C 0.72123 0.4884 0.76936 0.0
C1160 C 0.76693 0.4599 0.7478 0.0
C1161 C 0.76962 0.48327 0.72387 0.0
N1162 N 0.74871 0.52899 0.69676 0.0
N1163 N 0.7346 0.43658 0.78906 0.0
C1164 C 0.74758 0.50856 0.72183 0.0
C1165 C 0.74114 0.46136 0.76932 0.0
N1166 N 0.70705 0.53952 0.74835 0.0
N1167 N 0.7892 0.43648 0.75008 0.0
H1168 H 0.71573 0.43676 0.80499 0.0
H1169 H 0.74607 0.41479 0.78792 0.0
H1170 H 0.80726 0.43334 0.7335 0.0
H1171 H 0.79089 0.42115 0.76928 0.0
H1172 H 0.71091 0.55944 0.73442 0.0
H1173 H 0.68998 0.54322 0.76584 0.0
H1174 H 0.73123 0.54569 0.692 0.0
H1175 H 0.7661 0.52792 0.67925 0.0
loop_
_geom_bond_atom_site_label_1
_geom_bond_atom_site_label_2
_geom_bond_distance
_geom_bond_site_symmetry_2
_ccdc_geom_bond_type
C0 O1 1.160 . S
C0 O7 1.185 . S
O1 C0 1.160 . S
O2 Zn3 1.899 . S
O2 C10 1.284 . S
Zn3 O2 1.899 . S
Zn3 O4 2.032 . S
Zn3 O7 2.086 . S
Zn3 O12 1.977 . S
O4 Zn3 2.032 . S
O4 C8 1.278 . S
C5 O6 1.203 . S
C5 O12 1.267 . S
O6 C5 1.203 . S
O7 C0 1.185 . S
O7 Zn3 2.086 . S
C8 O4 1.278 . S
C8 O9 1.211 . S
O9 C8 1.211 . S
C10 O2 1.284 . S
C10 O11 1.273 . S
O11 C10 1.273 . S
O12 Zn3 1.977 . S
O12 C5 1.267 . S
C13 O14 1.160 . S
C13 O20 1.185 . S
O14 C13 1.160 . S
O15 Zn16 1.899 . S
O15 C23 1.284 . S
Zn16 O15 1.899 . S
Zn16 O17 2.032 . S
Zn16 O20 2.086 . S
Zn16 O25 1.977 . S
O17 Zn16 2.032 . S
O17 C21 1.278 . S
C18 O19 1.203 . S
C18 O25 1.267 . S
O19 C18 1.203 . S
O20 C13 1.185 . S
O20 Zn16 2.086 . S
C21 O17 1.278 . S
C21 O22 1.211 . S
O22 C21 1.211 . S
C23 O15 1.284 . S
C23 O24 1.273 . S
O24 C23 1.273 . S
O25 Zn16 1.977 . S
O25 C18 1.267 . S
C26 O27 1.160 . S
C26 O33 1.185 . S
O27 C26 1.160 . S
O28 Zn29 1.899 . S
O28 C36 1.284 . S
Zn29 O28 1.899 . S
Zn29 O30 2.032 . S
Zn29 O33 2.086 . S
Zn29 O38 1.977 . S
O30 Zn29 2.032 . S
O30 C34 1.278 . S
C31 O32 1.203 . S
C31 O38 1.267 . S
O32 C31 1.203 . S
O33 C26 1.185 . S
O33 Zn29 2.086 . S
C34 O30 1.278 . S
C34 O35 1.211 . S
O35 C34 1.211 . S
C36 O28 1.284 . S
C36 O37 1.273 . S
O37 C36 1.273 . S
O38 Zn29 1.977 . S
O38 C31 1.267 . S
C39 O40 1.160 . S
C39 O46 1.185 . S
O40 C39 1.160 . S
O41 Zn42 1.899 . S
O41 C49 1.284 . S
Zn42 O41 1.899 . S
Zn42 O43 2.032 . S
Zn42 O46 2.086 . S
Zn42 O51 1.977 . S
O43 Zn42 2.032 . S
O43 C47 1.278 . S
C44 O45 1.203 . S
C44 O51 1.267 . S
O45 C44 1.203 . S
O46 C39 1.185 . S
O46 Zn42 2.086 . S
C47 O43 1.278 . S
C47 O48 1.211 . S
O48 C47 1.211 . S
C49 O41 1.284 . S
C49 O50 1.273 . S
O50 C49 1.273 . S
O51 Zn42 1.977 . S
O51 C44 1.267 . S
C52 O53 1.160 . S
C52 O59 1.185 . S
O53 C52 1.160 . S
O54 Zn55 1.899 . S
O54 C62 1.284 . S
Zn55 O54 1.899 . S
Zn55 O56 2.032 . S
Zn55 O59 2.086 . S
Zn55 O64 1.977 . S
O56 Zn55 2.032 . S
O56 C60 1.278 . S
C57 O58 1.203 . S
C57 O64 1.267 . S
O58 C57 1.203 . S
O59 C52 1.185 . S
O59 Zn55 2.086 . S
C60 O56 1.278 . S
C60 O61 1.211 . S
O61 C60 1.211 . S
C62 O54 1.284 . S
C62 O63 1.273 . S
O63 C62 1.273 . S
O64 Zn55 1.977 . S
O64 C57 1.267 . S
C65 O66 1.160 . S
C65 O72 1.185 . S
O66 C65 1.160 . S
O67 Zn68 1.899 . S
O67 C75 1.284 . S
Zn68 O67 1.899 . S
Zn68 O69 2.032 . S
Zn68 O72 2.086 . S
Zn68 O77 1.977 . S
O69 Zn68 2.032 . S
O69 C73 1.278 . S
C70 O71 1.203 . S
C70 O77 1.267 . S
O71 C70 1.203 . S
O72 C65 1.185 . S
O72 Zn68 2.086 . S
C73 O69 1.278 . S
C73 O74 1.211 . S
O74 C73 1.211 . S
C75 O67 1.284 . S
C75 O76 1.273 . S
O76 C75 1.273 . S
O77 Zn68 1.977 . S
O77 C70 1.267 . S
C78 O79 1.160 . S
C78 O85 1.185 . S
O79 C78 1.160 . S
O80 Zn81 1.899 . S
O80 C88 1.284 . S
Zn81 O80 1.899 . S
Zn81 O82 2.032 . S
Zn81 O85 2.086 . S
Zn81 O90 1.977 . S
O82 Zn81 2.032 . S
O82 C86 1.278 . S
C83 O84 1.203 . S
C83 O90 1.267 . S
O84 C83 1.203 . S
O85 C78 1.185 . S
O85 Zn81 2.086 . S
C86 O82 1.278 . S
C86 O87 1.211 . S
O87 C86 1.211 . S
C88 O80 1.284 . S
C88 O89 1.273 . S
O89 C88 1.273 . S
O90 Zn81 1.977 . S
O90 C83 1.267 . S
C91 O92 1.160 . S
C91 O98 1.185 . S
O92 C91 1.160 . S
O93 Zn94 1.899 . S
O93 C101 1.284 . S
Zn94 O93 1.899 . S
Zn94 O95 2.032 . S
Zn94 O98 2.086 . S
Zn94 O103 1.977 . S
O95 Zn94 2.032 . S
O95 C99 1.278 . S
C96 O97 1.203 . S
C96 O103 1.267 . S
O97 C96 1.203 . S
O98 C91 1.185 . S
O98 Zn94 2.086 . S
C99 O95 1.278 . S
C99 O100 1.211 . S
O100 C99 1.211 . S
C101 O93 1.284 . S
C101 O102 1.273 . S
O102 C101 1.273 . S
O103 Zn94 1.977 . S
O103 C96 1.267 . S
C104 O105 1.160 . S
C104 O111 1.185 . S
O105 C104 1.160 . S
O106 Zn107 1.899 . S
O106 C114 1.284 . S
Zn107 O106 1.899 . S
Zn107 O108 2.032 . S
Zn107 O111 2.086 . S
Zn107 O116 1.977 . S
O108 Zn107 2.032 . S
O108 C112 1.278 . S
C109 O110 1.203 . S
C109 O116 1.267 . S
O110 C109 1.203 . S
O111 C104 1.185 . S
O111 Zn107 2.086 . S
C112 O108 1.278 . S
C112 O113 1.211 . S
O113 C112 1.211 . S
C114 O106 1.284 . S
C114 O115 1.273 . S
O115 C114 1.273 . S
O116 Zn107 1.977 . S
O116 C109 1.267 . S
C117 O118 1.160 . S
C117 O124 1.185 . S
O118 C117 1.160 . S
O119 Zn120 1.899 . S
O119 C127 1.284 . S
Zn120 O119 1.899 . S
Zn120 O121 2.032 . S
Zn120 O124 2.086 . S
Zn120 O129 1.977 . S
O121 Zn120 2.032 . S
O121 C125 1.278 . S
C122 O123 1.203 . S
C122 O129 1.267 . S
O123 C122 1.203 . S
O124 C117 1.185 . S
O124 Zn120 2.086 . S
C125 O121 1.278 . S
C125 O126 1.211 . S
O126 C125 1.211 . S
C127 O119 1.284 . S
C127 O128 1.273 . S
O128 C127 1.273 . S
O129 Zn120 1.977 . S
O129 C122 1.267 . S
C130 O131 1.160 . S
C130 O137 1.185 . S
O131 C130 1.160 . S
O132 Zn133 1.899 . S
O132 C140 1.284 . S
Zn133 O132 1.899 . S
Zn133 O134 2.032 . S
Zn133 O137 2.086 . S
Zn133 O142 1.977 . S
O134 Zn133 2.032 . S
O134 C138 1.278 . S
C135 O136 1.203 . S
C135 O142 1.267 . S
O136 C135 1.203 . S
O137 C130 1.185 . S
O137 Zn133 2.086 . S
C138 O134 1.278 . S
C138 O139 1.211 . S
O139 C138 1.211 . S
C140 O132 1.284 . S
C140 O141 1.273 . S
O141 C140 1.273 . S
O142 Zn133 1.977 . S
O142 C135 1.267 . S
C143 O144 1.160 . S
C143 O150 1.185 . S
O144 C143 1.160 . S
O145 Zn146 1.899 . S
O145 C153 1.284 . S
Zn146 O145 1.899 . S
Zn146 O147 2.032 . S
Zn146 O150 2.086 . S
Zn146 O155 1.977 . S
O147 Zn146 2.032 . S
O147 C151 1.278 . S
C148 O149 1.203 . S
C148 O155 1.267 . S
O149 C148 1.203 . S
O150 C143 1.185 . S
O150 Zn146 2.086 . S
C151 O147 1.278 . S
C151 O152 1.211 . S
O152 C151 1.211 . S
C153 O145 1.284 . S
C153 O154 1.273 . S
O154 C153 1.273 . S
O155 Zn146 1.977 . S
O155 C148 1.267 . S
C156 O157 1.160 . S
C156 O163 1.185 . S
O157 C156 1.160 . S
O158 Zn159 1.899 . S
O158 C166 1.284 . S
Zn159 O158 1.899 . S
Zn159 O160 2.032 . S
Zn159 O163 2.086 . S
Zn159 O168 1.977 . S
O160 Zn159 2.032 . S
O160 C164 1.278 . S
C161 O162 1.203 . S
C161 O168 1.267 . S
O162 C161 1.203 . S
O163 C156 1.185 . S
O163 Zn159 2.086 . S
C164 O160 1.278 . S
C164 O165 1.211 . S
O165 C164 1.211 . S
C166 O158 1.284 . S
C166 O167 1.273 . S
O167 C166 1.273 . S
O168 Zn159 1.977 . S
O168 C161 1.267 . S
C169 O170 1.160 . S
C169 O176 1.185 . S
O170 C169 1.160 . S
O171 Zn172 1.899 . S
O171 C179 1.284 . S
Zn172 O171 1.899 . S
Zn172 O173 2.032 . S
Zn172 O176 2.086 . S
Zn172 O181 1.977 . S
O173 Zn172 2.032 . S
O173 C177 1.278 . S
C174 O175 1.203 . S
C174 O181 1.267 . S
O175 C174 1.203 . S
O176 C169 1.185 . S
O176 Zn172 2.086 . S
C177 O173 1.278 . S
C177 O178 1.211 . S
O178 C177 1.211 . S
C179 O171 1.284 . S
C179 O180 1.273 . S
O180 C179 1.273 . S
O181 Zn172 1.977 . S
O181 C174 1.267 . S
C182 O183 1.160 . S
C182 O189 1.185 . S
O183 C182 1.160 . S
O184 Zn185 1.899 . S
O184 C192 1.284 . S
Zn185 O184 1.899 . S
Zn185 O186 2.032 . S
Zn185 O189 2.086 . S
Zn185 O194 1.977 . S
O186 Zn185 2.032 . S
O186 C190 1.278 . S
C187 O188 1.203 . S
C187 O194 1.267 . S
O188 C187 1.203 . S
O189 C182 1.185 . S
O189 Zn185 2.086 . S
C190 O186 1.278 . S
C190 O191 1.211 . S
O191 C190 1.211 . S
C192 O184 1.284 . S
C192 O193 1.273 . S
O193 C192 1.273 . S
O194 Zn185 1.977 . S
O194 C187 1.267 . S
C195 O196 1.160 . S
C195 O202 1.185 . S
O196 C195 1.160 . S
O197 Zn198 1.899 . S
O197 C205 1.284 . S
Zn198 O197 1.899 . S
Zn198 O199 2.032 . S
Zn198 O202 2.086 . S
Zn198 O207 1.977 . S
O199 Zn198 2.032 . S
O199 C203 1.278 . S
C200 O201 1.203 . S
C200 O207 1.267 . S
O201 C200 1.203 . S
O202 C195 1.185 . S
O202 Zn198 2.086 . S
C203 O199 1.278 . S
C203 O204 1.211 . S
O204 C203 1.211 . S
C205 O197 1.284 . S
C205 O206 1.273 . S
O206 C205 1.273 . S
O207 Zn198 1.977 . S
O207 C200 1.267 . S
C208 O209 1.160 . S
C208 O215 1.185 . S
O209 C208 1.160 . S
O210 Zn211 1.899 . S
O210 C218 1.284 . S
Zn211 O210 1.899 . S
Zn211 O212 2.032 . S
Zn211 O215 2.086 . S
Zn211 O220 1.977 . S
O212 Zn211 2.032 . S
O212 C216 1.278 . S
C213 O214 1.203 . S
C213 O220 1.267 . S
O214 C213 1.203 . S
O215 C208 1.185 . S
O215 Zn211 2.086 . S
C216 O212 1.278 . S
C216 O217 1.211 . S
O217 C216 1.211 . S
C218 O210 1.284 . S
C218 O219 1.273 . S
O219 C218 1.273 . S
O220 Zn211 1.977 . S
O220 C213 1.267 . S
C221 O222 1.160 . S
C221 O228 1.185 . S
O222 C221 1.160 . S
O223 Zn224 1.899 . S
O223 C231 1.284 . S
Zn224 O223 1.899 . S
Zn224 O225 2.032 . S
Zn224 O228 2.086 . S
Zn224 O233 1.977 . S
O225 Zn224 2.032 . S
O225 C229 1.278 . S
C226 O227 1.203 . S
C226 O233 1.267 . S
O227 C226 1.203 . S
O228 C221 1.185 . S
O228 Zn224 2.086 . S
C229 O225 1.278 . S
C229 O230 1.211 . S
O230 C229 1.211 . S
C231 O223 1.284 . S
C231 O232 1.273 . S
O232 C231 1.273 . S
O233 Zn224 1.977 . S
O233 C226 1.267 . S
C234 O235 1.160 . S
C234 O241 1.185 . S
O235 C234 1.160 . S
O236 Zn237 1.899 . S
O236 C244 1.284 . S
Zn237 O236 1.899 . S
Zn237 O238 2.032 . S
Zn237 O241 2.086 . S
Zn237 O246 1.977 . S
O238 Zn237 2.032 . S
O238 C242 1.278 . S
C239 O240 1.203 . S
C239 O246 1.267 . S
O240 C239 1.203 . S
O241 C234 1.185 . S
O241 Zn237 2.086 . S
C242 O238 1.278 . S
C242 O243 1.211 . S
O243 C242 1.211 . S
C244 O236 1.284 . S
C244 O245 1.273 . S
O245 C244 1.273 . S
O246 Zn237 1.977 . S
O246 C239 1.267 . S
C247 O248 1.160 . S
C247 O254 1.185 . S
O248 C247 1.160 . S
O249 Zn250 1.899 . S
O249 C257 1.284 . S
Zn250 O249 1.899 . S
Zn250 O251 2.032 . S
Zn250 O254 2.086 . S
Zn250 O259 1.977 . S
O251 Zn250 2.032 . S
O251 C255 1.278 . S
C252 O253 1.203 . S
C252 O259 1.267 . S
O253 C252 1.203 . S
O254 C247 1.185 . S
O254 Zn250 2.086 . S
C255 O251 1.278 . S
C255 O256 1.211 . S
O256 C255 1.211 . S
C257 O249 1.284 . S
C257 O258 1.273 . S
O258 C257 1.273 . S
O259 Zn250 1.977 . S
O259 C252 1.267 . S
C260 O261 1.160 . S
C260 O267 1.185 . S
O261 C260 1.160 . S
O262 Zn263 1.899 . S
O262 C270 1.284 . S
Zn263 O262 1.899 . S
Zn263 O264 2.032 . S
Zn263 O267 2.086 . S
Zn263 O272 1.977 . S
O264 Zn263 2.032 . S
O264 C268 1.278 . S
C265 O266 1.203 . S
C265 O272 1.267 . S
O266 C265 1.203 . S
O267 C260 1.185 . S
O267 Zn263 2.086 . S
C268 O264 1.278 . S
C268 O269 1.211 . S
O269 C268 1.211 . S
C270 O262 1.284 . S
C270 O271 1.273 . S
O271 C270 1.273 . S
O272 Zn263 1.977 . S
O272 C265 1.267 . S
C273 O274 1.160 . S
C273 O280 1.185 . S
O274 C273 1.160 . S
O275 Zn276 1.899 . S
O275 C283 1.284 . S
Zn276 O275 1.899 . S
Zn276 O277 2.032 . S
Zn276 O280 2.086 . S
Zn276 O285 1.977 . S
O277 Zn276 2.032 . S
O277 C281 1.278 . S
C278 O279 1.203 . S
C278 O285 1.267 . S
O279 C278 1.203 . S
O280 C273 1.185 . S
O280 Zn276 2.086 . S
C281 O277 1.278 . S
C281 O282 1.211 . S
O282 C281 1.211 . S
C283 O275 1.284 . S
C283 O284 1.273 . S
O284 C283 1.273 . S
O285 Zn276 1.977 . S
O285 C278 1.267 . S
C286 O287 1.160 . S
C286 O293 1.185 . S
O287 C286 1.160 . S
O288 Zn289 1.899 . S
O288 C296 1.284 . S
Zn289 O288 1.899 . S
Zn289 O290 2.032 . S
Zn289 O293 2.086 . S
Zn289 O298 1.977 . S
O290 Zn289 2.032 . S
O290 C294 1.278 . S
C291 O292 1.203 . S
C291 O298 1.267 . S
O292 C291 1.203 . S
O293 C286 1.185 . S
O293 Zn289 2.086 . S
C294 O290 1.278 . S
C294 O295 1.211 . S
O295 C294 1.211 . S
C296 O288 1.284 . S
C296 O297 1.273 . S
O297 C296 1.273 . S
O298 Zn289 1.977 . S
O298 C291 1.267 . S
C299 O300 1.160 . S
C299 O306 1.185 . S
O300 C299 1.160 . S
O301 Zn302 1.899 . S
O301 C309 1.284 . S
Zn302 O301 1.899 . S
Zn302 O303 2.032 . S
Zn302 O306 2.086 . S
Zn302 O311 1.977 . S
O303 Zn302 2.032 . S
O303 C307 1.278 . S
C304 O305 1.203 . S
C304 O311 1.267 . S
O305 C304 1.203 . S
O306 C299 1.185 . S
O306 Zn302 2.086 . S
C307 O303 1.278 . S
C307 O308 1.211 . S
O308 C307 1.211 . S
C309 O301 1.284 . S
C309 O310 1.273 . S
O310 C309 1.273 . S
O311 Zn302 1.977 . S
O311 C304 1.267 . S
C312 C313 1.363 . S
C312 C318 1.379 . S
C312 N320 1.356 . S
C313 C312 1.363 . S
C313 C319 1.363 . S
C314 C315 1.363 . S
C314 C319 1.379 . S
C314 N321 1.356 . S
C315 C314 1.363 . S
C315 C318 1.363 . S
N316 C318 1.356 . S
N316 H328 0.984 . S
N316 H329 0.985 . S
N317 C319 1.356 . S
N317 H322 0.984 . S
N317 H323 0.985 . S
C318 C312 1.379 . S
C318 C315 1.363 . S
C318 N316 1.356 . S
C319 C313 1.363 . S
C319 C314 1.379 . S
C319 N317 1.356 . S
N320 C312 1.356 . S
N320 H326 0.984 . S
N320 H327 0.984 . S
N321 C314 1.356 . S
N321 H324 0.984 . S
N321 H325 0.985 . S
H322 N317 0.984 . S
H323 N317 0.985 . S
H324 N321 0.984 . S
H325 N321 0.985 . S
H326 N320 0.984 . S
H327 N320 0.984 . S
H328 N316 0.984 . S
H329 N316 0.985 . S
C330 C331 1.363 . S
C330 C336 1.379 . S
C330 N338 1.356 . S
C331 C330 1.363 . S
C331 C337 1.363 . S
C332 C333 1.363 . S
C332 C337 1.379 . S
C332 N339 1.356 . S
C333 C332 1.363 . S
C333 C336 1.363 . S
N334 C336 1.356 . S
N334 H346 0.984 . S
N334 H347 0.985 . S
N335 C337 1.356 . S
N335 H340 0.984 . S
N335 H341 0.985 . S
C336 C330 1.379 . S
C336 C333 1.363 . S
C336 N334 1.356 . S
C337 C331 1.363 . S
C337 C332 1.379 . S
C337 N335 1.356 . S
N338 C330 1.356 . S
N338 H344 0.984 . S
N338 H345 0.984 . S
N339 C332 1.356 . S
N339 H342 0.984 . S
N339 H343 0.985 . S
H340 N335 0.984 . S
H341 N335 0.985 . S
H342 N339 0.984 . S
H343 N339 0.985 . S
H344 N338 0.984 . S
H345 N338 0.984 . S
H346 N334 0.984 . S
H347 N334 0.985 . S
C348 C349 1.363 . S
C348 C354 1.379 . S
C348 N356 1.356 . S
C349 C348 1.363 . S
C349 C355 1.363 . S
C350 C351 1.363 . S
C350 C355 1.379 . S
C350 N357 1.356 . S
C351 C350 1.363 . S
C351 C354 1.363 . S
N352 C354 1.356 . S
N352 H364 0.984 . S
N352 H365 0.985 . S
N353 C355 1.356 . S
N353 H358 0.984 . S
N353 H359 0.985 . S
C354 C348 1.379 . S
C354 C351 1.363 . S
C354 N352 1.356 . S
C355 C349 1.363 . S
C355 C350 1.379 . S
C355 N353 1.356 . S
N356 C348 1.356 . S
N356 H362 0.984 . S
N356 H363 0.984 . S
N357 C350 1.356 . S
N357 H360 0.984 . S
N357 H361 0.985 . S
H358 N353 0.984 . S
H359 N353 0.985 . S
H360 N357 0.984 . S
H361 N357 0.985 . S
H362 N356 0.984 . S
H363 N356 0.984 . S
H364 N352 0.984 . S
H365 N352 0.985 . S
C366 C367 1.363 . S
C366 C372 1.379 . S
C366 N374 1.356 . S
C367 C366 1.363 . S
C367 C373 1.363 . S
C368 C369 1.363 . S
C368 C373 1.379 . S
C368 N375 1.356 . S
C369 C368 1.363 . S
C369 C372 1.363 . S
N370 C372 1.356 . S
N370 H382 0.984 . S
N370 H383 0.985 . S
N371 C373 1.356 . S
N371 H376 0.984 . S
N371 H377 0.985 . S
C372 C366 1.379 . S
C372 C369 1.363 . S
C372 N370 1.356 . S
C373 C367 1.363 . S
C373 C368 1.379 . S
C373 N371 1.356 . S
N374 C366 1.356 . S
N374 H380 0.984 . S
N374 H381 0.984 . S
N375 C368 1.356 . S
N375 H378 0.984 . S
N375 H379 0.985 . S
H376 N371 0.984 . S
H377 N371 0.985 . S
H378 N375 0.984 . S
H379 N375 0.985 . S
H380 N374 0.984 . S
H381 N374 0.984 . S
H382 N370 0.984 . S
H383 N370 0.985 . S
C384 C385 1.363 . S
C384 C390 1.379 . S
C384 N392 1.356 . S
C385 C384 1.363 . S
C385 C391 1.363 . S
C386 C387 1.363 . S
C386 C391 1.379 . S
C386 N393 1.356 . S
C387 C386 1.363 . S
C387 C390 1.363 . S
N388 C390 1.356 . S
N388 H400 0.984 . S
N388 H401 0.985 . S
N389 C391 1.356 . S
N389 H394 0.984 . S
N389 H395 0.985 . S
C390 C384 1.379 . S
C390 C387 1.363 . S
C390 N388 1.356 . S
C391 C385 1.363 . S
C391 C386 1.379 . S
C391 N389 1.356 . S
N392 C384 1.356 . S
N392 H398 0.984 . S
N392 H399 0.984 . S
N393 C386 1.356 . S
N393 H396 0.984 . S
N393 H397 0.985 . S
H394 N389 0.984 . S
H395 N389 0.985 . S
H396 N393 0.984 . S
H397 N393 0.985 . S
H398 N392 0.984 . S
H399 N392 0.984 . S
H400 N388 0.984 . S
H401 N388 0.985 . S
C402 C403 1.363 . S
C402 C408 1.379 . S
C402 N410 1.356 . S
C403 C402 1.363 . S
C403 C409 1.363 . S
C404 C405 1.363 . S
C404 C409 1.379 . S
C404 N411 1.356 . S
C405 C404 1.363 . S
C405 C408 1.363 . S
N406 C408 1.356 . S
N406 H418 0.984 . S
N406 H419 0.985 . S
N407 C409 1.356 . S
N407 H412 0.984 . S
N407 H413 0.985 . S
C408 C402 1.379 . S
C408 C405 1.363 . S
C408 N406 1.356 . S
C409 C403 1.363 . S
C409 C404 1.379 . S
C409 N407 1.356 . S
N410 C402 1.356 . S
N410 H416 0.984 . S
N410 H417 0.984 . S
N411 C404 1.356 . S
N411 H414 0.984 . S
N411 H415 0.985 . S
H412 N407 0.984 . S
H413 N407 0.985 . S
H414 N411 0.984 . S
H415 N411 0.985 . S
H416 N410 0.984 . S
H417 N410 0.984 . S
H418 N406 0.984 . S
H419 N406 0.985 . S
C420 C421 1.363 . S
C420 C426 1.379 . S
C420 N428 1.356 . S
C421 C420 1.363 . S
C421 C427 1.363 . S
C422 C423 1.363 . S
C422 C427 1.379 . S
C422 N429 1.356 . S
C423 C422 1.363 . S
C423 C426 1.363 . S
N424 C426 1.356 . S
N424 H436 0.984 . S
N424 H437 0.985 . S
N425 C427 1.356 . S
N425 H430 0.984 . S
N425 H431 0.985 . S
C426 C420 1.379 . S
C426 C423 1.363 . S
C426 N424 1.356 . S
C427 C421 1.363 . S
C427 C422 1.379 . S
C427 N425 1.356 . S
N428 C420 1.356 . S
N428 H434 0.984 . S
N428 H435 0.984 . S
N429 C422 1.356 . S
N429 H432 0.984 . S
N429 H433 0.985 . S
H430 N425 0.984 . S
H431 N425 0.985 . S
H432 N429 0.984 . S
H433 N429 0.985 . S
H434 N428 0.984 . S
H435 N428 0.984 . S
H436 N424 0.984 . S
H437 N424 0.985 . S
C438 C439 1.363 . S
C438 C444 1.379 . S
C438 N446 1.356 . S
C439 C438 1.363 . S
C439 C445 1.363 . S
C440 C441 1.363 . S
C440 C445 1.379 . S
C440 N447 1.356 . S
C441 C440 1.363 . S
C441 C444 1.363 . S
N442 C444 1.356 . S
N442 H454 0.984 . S
N442 H455 0.985 . S
N443 C445 1.356 . S
N443 H448 0.984 . S
N443 H449 0.985 . S
C444 C438 1.379 . S
C444 C441 1.363 . S
C444 N442 1.356 . S
C445 C439 1.363 . S
C445 C440 1.379 . S
C445 N443 1.356 . S
N446 C438 1.356 . S
N446 H452 0.984 . S
N446 H453 0.984 . S
N447 C440 1.356 . S
N447 H450 0.984 . S
N447 H451 0.985 . S
H448 N443 0.984 . S
H449 N443 0.985 . S
H450 N447 0.984 . S
H451 N447 0.985 . S
H452 N446 0.984 . S
H453 N446 0.984 . S
H454 N442 0.984 . S
H455 N442 0.985 . S
C456 C457 1.363 . S
C456 C462 1.379 . S
C456 N464 1.356 . S
C457 C456 1.363 . S
C457 C463 1.363 . S
C458 C459 1.363 . S
C458 C463 1.379 . S
C458 N465 1.356 . S
C459 C458 1.363 . S
C459 C462 1.363 . S
N460 C462 1.356 . S
N460 H472 0.984 . S
N460 H473 0.985 . S
N461 C463 1.356 . S
N461 H466 0.984 . S
N461 H467 0.985 . S
C462 C456 1.379 . S
C462 C459 1.363 . S
C462 N460 1.356 . S
C463 C457 1.363 . S
C463 C458 1.379 . S
C463 N461 1.356 . S
N464 C456 1.356 . S
N464 H470 0.984 . S
N464 H471 0.984 . S
N465 C458 1.356 . S
N465 H468 0.984 . S
N465 H469 0.985 . S
H466 N461 0.984 . S
H467 N461 0.985 . S
H468 N465 0.984 . S
H469 N465 0.985 . S
H470 N464 0.984 . S
H471 N464 0.984 . S
H472 N460 0.984 . S
H473 N460 0.985 . S
C474 C475 1.363 . S
C474 C480 1.379 . S
C474 N482 1.356 . S
C475 C474 1.363 . S
C475 C481 1.363 . S
C476 C477 1.363 . S
C476 C481 1.379 . S
C476 N483 1.356 . S
C477 C476 1.363 . S
C477 C480 1.363 . S
N478 C480 1.356 . S
N478 H490 0.984 . S
N478 H491 0.985 . S
N479 C481 1.356 . S
N479 H484 0.984 . S
N479 H485 0.985 . S
C480 C474 1.379 . S
C480 C477 1.363 . S
C480 N478 1.356 . S
C481 C475 1.363 . S
C481 C476 1.379 . S
C481 N479 1.356 . S
N482 C474 1.356 . S
N482 H488 0.984 . S
N482 H489 0.984 . S
N483 C476 1.356 . S
N483 H486 0.984 . S
N483 H487 0.985 . S
H484 N479 0.984 . S
H485 N479 0.985 . S
H486 N483 0.984 . S
H487 N483 0.985 . S
H488 N482 0.984 . S
H489 N482 0.984 . S
H490 N478 0.984 . S
H491 N478 0.985 . S
C492 C493 1.363 . S
C492 C498 1.379 . S
C492 N500 1.356 . S
C493 C492 1.363 . S
C493 C499 1.363 . S
C494 C495 1.363 . S
C494 C499 1.379 . S
C494 N501 1.356 . S
C495 C494 1.363 . S
C495 C498 1.363 . S
N496 C498 1.356 . S
N496 H508 0.984 . S
N496 H509 0.985 . S
N497 C499 1.356 . S
N497 H502 0.984 . S
N497 H503 0.985 . S
C498 C492 1.379 . S
C498 C495 1.363 . S
C498 N496 1.356 . S
C499 C493 1.363 . S
C499 C494 1.379 . S
C499 N497 1.356 . S
N500 C492 1.356 . S
N500 H506 0.984 . S
N500 H507 0.984 . S
N501 C494 1.356 . S
N501 H504 0.984 . S
N501 H505 0.985 . S
H502 N497 0.984 . S
H503 N497 0.985 . S
H504 N501 0.984 . S
H505 N501 0.985 . S
H506 N500 0.984 . S
H507 N500 0.984 . S
H508 N496 0.984 . S
H509 N496 0.985 . S
C510 C511 1.363 . S
C510 C516 1.379 . S
C510 N518 1.356 . S
C511 C510 1.363 . S
C511 C517 1.363 . S
C512 C513 1.363 . S
C512 C517 1.379 . S
C512 N519 1.356 . S
C513 C512 1.363 . S
C513 C516 1.363 . S
N514 C516 1.356 . S
N514 H526 0.984 . S
N514 H527 0.985 . S
N515 C517 1.356 . S
N515 H520 0.984 . S
N515 H521 0.985 . S
C516 C510 1.379 . S
C516 C513 1.363 . S
C516 N514 1.356 . S
C517 C511 1.363 . S
C517 C512 1.379 . S
C517 N515 1.356 . S
N518 C510 1.356 . S
N518 H524 0.984 . S
N518 H525 0.984 . S
N519 C512 1.356 . S
N519 H522 0.984 . S
N519 H523 0.985 . S
H520 N515 0.984 . S
H521 N515 0.985 . S
H522 N519 0.984 . S
H523 N519 0.985 . S
H524 N518 0.984 . S
H525 N518 0.984 . S
H526 N514 0.984 . S
H527 N514 0.985 . S
C528 C529 1.363 . S
C528 C534 1.379 . S
C528 N536 1.356 . S
C529 C528 1.363 . S
C529 C535 1.363 . S
C530 C531 1.363 . S
C530 C535 1.379 . S
C530 N537 1.356 . S
C531 C530 1.363 . S
C531 C534 1.363 . S
N532 C534 1.356 . S
N532 H544 0.984 . S
N532 H545 0.985 . S
N533 C535 1.356 . S
N533 H538 0.984 . S
N533 H539 0.985 . S
C534 C528 1.379 . S
C534 C531 1.363 . S
C534 N532 1.356 . S
C535 C529 1.363 . S
C535 C530 1.379 . S
C535 N533 1.356 . S
N536 C528 1.356 . S
N536 H542 0.984 . S
N536 H543 0.984 . S
N537 C530 1.356 . S
N537 H540 0.984 . S
N537 H541 0.985 . S
H538 N533 0.984 . S
H539 N533 0.985 . S
H540 N537 0.984 . S
H541 N537 0.985 . S
H542 N536 0.984 . S
H543 N536 0.984 . S
H544 N532 0.984 . S
H545 N532 0.985 . S
C546 C547 1.363 . S
C546 C552 1.379 . S
C546 N554 1.356 . S
C547 C546 1.363 . S
C547 C553 1.363 . S
C548 C549 1.363 . S
C548 C553 1.379 . S
C548 N555 1.356 . S
C549 C548 1.363 . S
C549 C552 1.363 . S
N550 C552 1.356 . S
N550 H562 0.984 . S
N550 H563 0.985 . S
N551 C553 1.356 . S
N551 H556 0.984 . S
N551 H557 0.985 . S
C552 C546 1.379 . S
C552 C549 1.363 . S
C552 N550 1.356 . S
C553 C547 1.363 . S
C553 C548 1.379 . S
C553 N551 1.356 . S
N554 C546 1.356 . S
N554 H560 0.984 . S
N554 H561 0.984 . S
N555 C548 1.356 . S
N555 H558 0.984 . S
N555 H559 0.985 . S
H556 N551 0.984 . S
H557 N551 0.985 . S
H558 N555 0.984 . S
H559 N555 0.985 . S
H560 N554 0.984 . S
H561 N554 0.984 . S
H562 N550 0.984 . S
H563 N550 0.985 . S
C564 C565 1.363 . S
C564 C570 1.379 . S
C564 N572 1.356 . S
C565 C564 1.363 . S
C565 C571 1.363 . S
C566 C567 1.363 . S
C566 C571 1.379 . S
C566 N573 1.356 . S
C567 C566 1.363 . S
C567 C570 1.363 . S
N568 C570 1.356 . S
N568 H580 0.984 . S
N568 H581 0.985 . S
N569 C571 1.356 . S
N569 H574 0.984 . S
N569 H575 0.985 . S
C570 C564 1.379 . S
C570 C567 1.363 . S
C570 N568 1.356 . S
C571 C565 1.363 . S
C571 C566 1.379 . S
C571 N569 1.356 . S
N572 C564 1.356 . S
N572 H578 0.984 . S
N572 H579 0.984 . S
N573 C566 1.356 . S
N573 H576 0.984 . S
N573 H577 0.985 . S
H574 N569 0.984 . S
H575 N569 0.985 . S
H576 N573 0.984 . S
H577 N573 0.985 . S
H578 N572 0.984 . S
H579 N572 0.984 . S
H580 N568 0.984 . S
H581 N568 0.985 . S
C582 C583 1.363 . S
C582 C588 1.379 . S
C582 N590 1.356 . S
C583 C582 1.363 . S
C583 C589 1.363 . S
C584 C585 1.363 . S
C584 C589 1.379 . S
C584 N591 1.356 . S
C585 C584 1.363 . S
C585 C588 1.363 . S
N586 C588 1.356 . S
N586 H598 0.984 . S
N586 H599 0.985 . S
N587 C589 1.356 . S
N587 H592 0.984 . S
N587 H593 0.985 . S
C588 C582 1.379 . S
C588 C585 1.363 . S
C588 N586 1.356 . S
C589 C583 1.363 . S
C589 C584 1.379 . S
C589 N587 1.356 . S
N590 C582 1.356 . S
N590 H596 0.984 . S
N590 H597 0.984 . S
N591 C584 1.356 . S
N591 H594 0.984 . S
N591 H595 0.985 . S
H592 N587 0.984 . S
H593 N587 0.985 . S
H594 N591 0.984 . S
H595 N591 0.985 . S
H596 N590 0.984 . S
H597 N590 0.984 . S
H598 N586 0.984 . S
H599 N586 0.985 . S
C600 C601 1.363 . S
C600 C606 1.379 . S
C600 N608 1.356 . S
C601 C600 1.363 . S
C601 C607 1.363 . S
C602 C603 1.363 . S
C602 C607 1.379 . S
C602 N609 1.356 . S
C603 C602 1.363 . S
C603 C606 1.363 . S
N604 C606 1.356 . S
N604 H616 0.984 . S
N604 H617 0.985 . S
N605 C607 1.356 . S
N605 H610 0.984 . S
N605 H611 0.985 . S
C606 C600 1.379 . S
C606 C603 1.363 . S
C606 N604 1.356 . S
C607 C601 1.363 . S
C607 C602 1.379 . S
C607 N605 1.356 . S
N608 C600 1.356 . S
N608 H614 0.984 . S
N608 H615 0.984 . S
N609 C602 1.356 . S
N609 H612 0.984 . S
N609 H613 0.985 . S
H610 N605 0.984 . S
H611 N605 0.985 . S
H612 N609 0.984 . S
H613 N609 0.985 . S
H614 N608 0.984 . S
H615 N608 0.984 . S
H616 N604 0.984 . S
H617 N604 0.985 . S
C618 C619 1.363 . S
C618 C624 1.379 . S
C618 N626 1.356 . S
C619 C618 1.363 . S
C619 C625 1.363 . S
C620 C621 1.363 . S
C620 C625 1.379 . S
C620 N627 1.356 . S
C621 C620 1.363 . S
C621 C624 1.363 . S
N622 C624 1.356 . S
N622 H634 0.984 . S
N622 H635 0.985 . S
N623 C625 1.356 . S
N623 H628 0.984 . S
N623 H629 0.985 . S
C624 C618 1.379 . S
C624 C621 1.363 . S
C624 N622 1.356 . S
C625 C619 1.363 . S
C625 C620 1.379 . S
C625 N623 1.356 . S
N626 C618 1.356 . S
N626 H632 0.984 . S
N626 H633 0.984 . S
N627 C620 1.356 . S
N627 H630 0.984 . S
N627 H631 0.985 . S
H628 N623 0.984 . S
H629 N623 0.985 . S
H630 N627 0.984 . S
H631 N627 0.985 . S
H632 N626 0.984 . S
H633 N626 0.984 . S
H634 N622 0.984 . S
H635 N622 0.985 . S
C636 C637 1.363 . S
C636 C642 1.379 . S
C636 N644 1.356 . S
C637 C636 1.363 . S
C637 C643 1.363 . S
C638 C639 1.363 . S
C638 C643 1.379 . S
C638 N645 1.356 . S
C639 C638 1.363 . S
C639 C642 1.363 . S
N640 C642 1.356 . S
N640 H652 0.984 . S
N640 H653 0.985 . S
N641 C643 1.356 . S
N641 H646 0.984 . S
N641 H647 0.985 . S
C642 C636 1.379 . S
C642 C639 1.363 . S
C642 N640 1.356 . S
C643 C637 1.363 . S
C643 C638 1.379 . S
C643 N641 1.356 . S
N644 C636 1.356 . S
N644 H650 0.984 . S
N644 H651 0.984 . S
N645 C638 1.356 . S
N645 H648 0.984 . S
N645 H649 0.985 . S
H646 N641 0.984 . S
H647 N641 0.985 . S
H648 N645 0.984 . S
H649 N645 0.985 . S
H650 N644 0.984 . S
H651 N644 0.984 . S
H652 N640 0.984 . S
H653 N640 0.985 . S
C654 C655 1.363 . S
C654 C660 1.379 . S
C654 N662 1.356 . S
C655 C654 1.363 . S
C655 C661 1.363 . S
C656 C657 1.363 . S
C656 C661 1.379 . S
C656 N663 1.356 . S
C657 C656 1.363 . S
C657 C660 1.363 . S
N658 C660 1.356 . S
N658 H670 0.984 . S
N658 H671 0.985 . S
N659 C661 1.356 . S
N659 H664 0.984 . S
N659 H665 0.985 . S
C660 C654 1.379 . S
C660 C657 1.363 . S
C660 N658 1.356 . S
C661 C655 1.363 . S
C661 C656 1.379 . S
C661 N659 1.356 . S
N662 C654 1.356 . S
N662 H668 0.984 . S
N662 H669 0.984 . S
N663 C656 1.356 . S
N663 H666 0.984 . S
N663 H667 0.985 . S
H664 N659 0.984 . S
H665 N659 0.985 . S
H666 N663 0.984 . S
H667 N663 0.985 . S
H668 N662 0.984 . S
H669 N662 0.984 . S
H670 N658 0.984 . S
H671 N658 0.985 . S
C672 C673 1.363 . S
C672 C678 1.379 . S
C672 N680 1.356 . S
C673 C672 1.363 . S
C673 C679 1.363 . S
C674 C675 1.363 . S
C674 C679 1.379 . S
C674 N681 1.356 . S
C675 C674 1.363 . S
C675 C678 1.363 . S
N676 C678 1.356 . S
N676 H688 0.984 . S
N676 H689 0.985 . S
N677 C679 1.356 . S
N677 H682 0.984 . S
N677 H683 0.985 . S
C678 C672 1.379 . S
C678 C675 1.363 . S
C678 N676 1.356 . S
C679 C673 1.363 . S
C679 C674 1.379 . S
C679 N677 1.356 . S
N680 C672 1.356 . S
N680 H686 0.984 . S
N680 H687 0.984 . S
N681 C674 1.356 . S
N681 H684 0.984 . S
N681 H685 0.985 . S
H682 N677 0.984 . S
H683 N677 0.985 . S
H684 N681 0.984 . S
H685 N681 0.985 . S
H686 N680 0.984 . S
H687 N680 0.984 . S
H688 N676 0.984 . S
H689 N676 0.985 . S
C690 C691 1.363 . S
C690 C696 1.379 . S
C690 N698 1.356 . S
C691 C690 1.363 . S
C691 C697 1.363 . S
C692 C693 1.363 . S
C692 C697 1.379 . S
C692 N699 1.356 . S
C693 C692 1.363 . S
C693 C696 1.363 . S
N694 C696 1.356 . S
N694 H706 0.984 . S
N694 H707 0.985 . S
N695 C697 1.356 . S
N695 H700 0.984 . S
N695 H701 0.985 . S
C696 C690 1.379 . S
C696 C693 1.363 . S
C696 N694 1.356 . S
C697 C691 1.363 . S
C697 C692 1.379 . S
C697 N695 1.356 . S
N698 C690 1.356 . S
N698 H704 0.984 . S
N698 H705 0.984 . S
N699 C692 1.356 . S
N699 H702 0.984 . S
N699 H703 0.985 . S
H700 N695 0.984 . S
H701 N695 0.985 . S
H702 N699 0.984 . S
H703 N699 0.985 . S
H704 N698 0.984 . S
H705 N698 0.984 . S
H706 N694 0.984 . S
H707 N694 0.985 . S
C708 C709 1.363 . S
C708 C714 1.379 . S
C708 N716 1.356 . S
C709 C708 1.363 . S
C709 C715 1.363 . S
C710 C711 1.363 . S
C710 C715 1.379 . S
C710 N717 1.356 . S
C711 C710 1.363 . S
C711 C714 1.363 . S
N712 C714 1.356 . S
N712 H724 0.984 . S
N712 H725 0.985 . S
N713 C715 1.356 . S
N713 H718 0.984 . S
N713 H719 0.985 . S
C714 C708 1.379 . S
C714 C711 1.363 . S
C714 N712 1.356 . S
C715 C709 1.363 . S
C715 C710 1.379 . S
C715 N713 1.356 . S
N716 C708 1.356 . S
N716 H722 0.984 . S
N716 H723 0.984 . S
N717 C710 1.356 . S
N717 H720 0.984 . S
N717 H721 0.985 . S
H718 N713 0.984 . S
H719 N713 0.985 . S
H720 N717 0.984 . S
H721 N717 0.985 . S
H722 N716 0.984 . S
H723 N716 0.984 . S
H724 N712 0.984 . S
H725 N712 0.985 . S
C726 C727 1.363 . S
C726 C732 1.379 . S
C726 N734 1.356 . S
C727 C726 1.363 . S
C727 C733 1.363 . S
C728 C729 1.363 . S
C728 C733 1.379 . S
C728 N735 1.356 . S
C729 C728 1.363 . S
C729 C732 1.363 . S
N730 C732 1.356 . S
N730 H742 0.984 . S
N730 H743 0.985 . S
N731 C733 1.356 . S
N731 H736 0.984 . S
N731 H737 0.985 . S
C732 C726 1.379 . S
C732 C729 1.363 . S
C732 N730 1.356 . S
C733 C727 1.363 . S
C733 C728 1.379 . S
C733 N731 1.356 . S
N734 C726 1.356 . S
N734 H740 0.984 . S
N734 H741 0.984 . S
N735 C728 1.356 . S
N735 H738 0.984 . S
N735 H739 0.985 . S
H736 N731 0.984 . S
H737 N731 0.985 . S
H738 N735 0.984 . S
H739 N735 0.985 . S
H740 N734 0.984 . S
H741 N734 0.984 . S
H742 N730 0.984 . S
H743 N730 0.985 . S
C744 C745 1.363 . S
C744 C750 1.379 1_455 S
C744 N752 1.356 . S
C745 C744 1.363 . S
C745 C751 1.363 . S
C746 C747 1.363 . S
C746 C751 1.379 1_655 S
C746 N753 1.356 . S
C747 C746 1.363 . S
C747 C750 1.363 . S
N748 C750 1.356 . S
N748 H760 0.984 . S
N748 H761 0.985 . S
N749 C751 1.356 . S
N749 H754 0.984 . S
N749 H755 0.985 . S
C750 C744 1.379 1_655 S
C750 C747 1.363 . S
C750 N748 1.356 . S
C751 C745 1.363 . S
C751 C746 1.379 1_455 S
C751 N749 1.356 . S
N752 C744 1.356 . S
N752 H758 0.984 . S
N752 H759 0.984 . S
N753 C746 1.356 . S
N753 H756 0.984 . S
N753 H757 0.985 . S
H754 N749 0.984 . S
H755 N749 0.985 . S
H756 N753 0.984 . S
H757 N753 0.985 . S
H758 N752 0.984 . S
H759 N752 0.984 . S
H760 N748 0.984 . S
H761 N748 0.985 . S
C762 C763 1.363 . S
C762 C768 1.379 1_545 S
C762 N770 1.356 . S
C763 C762 1.363 . S
C763 C769 1.363 . S
C764 C765 1.363 . S
C764 C769 1.379 1_565 S
C764 N771 1.356 . S
C765 C764 1.363 . S
C765 C768 1.363 . S
N766 C768 1.356 . S
N766 H778 0.984 . S
N766 H779 0.985 . S
N767 C769 1.356 . S
N767 H772 0.984 . S
N767 H773 0.985 . S
C768 C762 1.379 1_565 S
C768 C765 1.363 . S
C768 N766 1.356 . S
C769 C763 1.363 . S
C769 C764 1.379 1_545 S
C769 N767 1.356 . S
N770 C762 1.356 . S
N770 H776 0.984 . S
N770 H777 0.984 . S
N771 C764 1.356 . S
N771 H774 0.984 . S
N771 H775 0.985 . S
H772 N767 0.984 . S
H773 N767 0.985 . S
H774 N771 0.984 . S
H775 N771 0.985 . S
H776 N770 0.984 . S
H777 N770 0.984 . S
H778 N766 0.984 . S
H779 N766 0.985 . S
C780 C781 1.363 . S
C780 C786 1.379 1_655 S
C780 N788 1.356 . S
C781 C780 1.363 . S
C781 C787 1.363 . S
C782 C783 1.363 . S
C782 C787 1.379 1_455 S
C782 N789 1.356 . S
C783 C782 1.363 . S
C783 C786 1.363 . S
N784 C786 1.356 . S
N784 H796 0.984 . S
N784 H797 0.985 . S
N785 C787 1.356 . S
N785 H790 0.984 . S
N785 H791 0.985 . S
C786 C780 1.379 1_455 S
C786 C783 1.363 . S
C786 N784 1.356 . S
C787 C781 1.363 . S
C787 C782 1.379 1_655 S
C787 N785 1.356 . S
N788 C780 1.356 . S
N788 H794 0.984 . S
N788 H795 0.984 . S
N789 C782 1.356 . S
N789 H792 0.984 . S
N789 H793 0.985 . S
H790 N785 0.984 . S
H791 N785 0.985 . S
H792 N789 0.984 . S
H793 N789 0.985 . S
H794 N788 0.984 . S
H795 N788 0.984 . S
H796 N784 0.984 . S
H797 N784 0.985 . S
C798 C799 1.363 . S
C798 C804 1.379 1_545 S
C798 N806 1.356 . S
C799 C798 1.363 . S
C799 C805 1.363 . S
C800 C801 1.363 . S
C800 C805 1.379 1_565 S
C800 N807 1.356 . S
C801 C800 1.363 . S
C801 C804 1.363 . S
N802 C804 1.356 . S
N802 H814 0.984 . S
N802 H815 0.985 . S
N803 C805 1.356 . S
N803 H808 0.984 . S
N803 H809 0.985 . S
C804 C798 1.379 1_565 S
C804 C801 1.363 . S
C804 N802 1.356 . S
C805 C799 1.363 . S
C805 C800 1.379 1_545 S
C805 N803 1.356 . S
N806 C798 1.356 . S
N806 H812 0.984 . S
N806 H813 0.984 . S
N807 C800 1.356 . S
N807 H810 0.984 . S
N807 H811 0.985 . S
H808 N803 0.984 . S
H809 N803 0.985 . S
H810 N807 0.984 . S
H811 N807 0.985 . S
H812 N806 0.984 . S
H813 N806 0.984 . S
H814 N802 0.984 . S
H815 N802 0.985 . S
C816 C817 1.363 . S
C816 C822 1.379 1_565 S
C816 N824 1.356 . S
C817 C816 1.363 . S
C817 C823 1.363 . S
C818 C819 1.363 . S
C818 C823 1.379 1_545 S
C818 N825 1.356 . S
C819 C818 1.363 . S
C819 C822 1.363 . S
N820 C822 1.356 . S
N820 H832 0.984 . S
N820 H833 0.985 . S
N821 C823 1.356 . S
N821 H826 0.984 . S
N821 H827 0.985 . S
C822 C816 1.379 1_545 S
C822 C819 1.363 . S
C822 N820 1.356 . S
C823 C817 1.363 . S
C823 C818 1.379 1_565 S
C823 N821 1.356 . S
N824 C816 1.356 . S
N824 H830 0.984 . S
N824 H831 0.984 . S
N825 C818 1.356 . S
N825 H828 0.984 . S
N825 H829 0.985 . S
H826 N821 0.984 . S
H827 N821 0.985 . S
H828 N825 0.984 . S
H829 N825 0.985 . S
H830 N824 0.984 . S
H831 N824 0.984 . S
H832 N820 0.984 . S
H833 N820 0.985 . S
C834 C835 1.363 . S
C834 C840 1.379 1_655 S
C834 N842 1.356 . S
C835 C834 1.363 . S
C835 C841 1.363 . S
C836 C837 1.363 . S
C836 C841 1.379 1_455 S
C836 N843 1.356 . S
C837 C836 1.363 . S
C837 C840 1.363 . S
N838 C840 1.356 . S
N838 H850 0.984 . S
N838 H851 0.985 . S
N839 C841 1.356 . S
N839 H844 0.984 . S
N839 H845 0.985 . S
C840 C834 1.379 1_455 S
C840 C837 1.363 . S
C840 N838 1.356 . S
C841 C835 1.363 . S
C841 C836 1.379 1_655 S
C841 N839 1.356 . S
N842 C834 1.356 . S
N842 H848 0.984 . S
N842 H849 0.984 . S
N843 C836 1.356 . S
N843 H846 0.984 . S
N843 H847 0.985 . S
H844 N839 0.984 . S
H845 N839 0.985 . S
H846 N843 0.984 . S
H847 N843 0.985 . S
H848 N842 0.984 . S
H849 N842 0.984 . S
H850 N838 0.984 . S
H851 N838 0.985 . S
C852 C853 1.363 . S
C852 C858 1.379 1_565 S
C852 N860 1.356 . S
C853 C852 1.363 . S
C853 C859 1.363 . S
C854 C855 1.363 . S
C854 C859 1.379 1_545 S
C854 N861 1.356 . S
C855 C854 1.363 . S
C855 C858 1.363 . S
N856 C858 1.356 . S
N856 H868 0.984 . S
N856 H869 0.985 . S
N857 C859 1.356 . S
N857 H862 0.984 . S
N857 H863 0.985 . S
C858 C852 1.379 1_545 S
C858 C855 1.363 . S
C858 N856 1.356 . S
C859 C853 1.363 . S
C859 C854 1.379 1_565 S
C859 N857 1.356 . S
N860 C852 1.356 . S
N860 H866 0.984 . S
N860 H867 0.984 . S
N861 C854 1.356 . S
N861 H864 0.984 . S
N861 H865 0.985 . S
H862 N857 0.984 . S
H863 N857 0.985 . S
H864 N861 0.984 . S
H865 N861 0.985 . S
H866 N860 0.984 . S
H867 N860 0.984 . S
H868 N856 0.984 . S
H869 N856 0.985 . S
C870 C871 1.363 . S
C870 C876 1.379 1_655 S
C870 N878 1.356 . S
C871 C870 1.363 . S
C871 C877 1.363 . S
C872 C873 1.363 . S
C872 C877 1.379 1_455 S
C872 N879 1.356 . S
C873 C872 1.363 . S
C873 C876 1.363 . S
N874 C876 1.356 . S
N874 H886 0.984 . S
N874 H887 0.985 . S
N875 C877 1.356 . S
N875 H880 0.984 . S
N875 H881 0.985 . S
C876 C870 1.379 1_455 S
C876 C873 1.363 . S
C876 N874 1.356 . S
C877 C871 1.363 . S
C877 C872 1.379 1_655 S
C877 N875 1.356 . S
N878 C870 1.356 . S
N878 H884 0.984 . S
N878 H885 0.984 . S
N879 C872 1.356 . S
N879 H882 0.984 . S
N879 H883 0.985 . S
H880 N875 0.984 . S
H881 N875 0.985 . S
H882 N879 0.984 . S
H883 N879 0.985 . S
H884 N878 0.984 . S
H885 N878 0.984 . S
H886 N874 0.984 . S
H887 N874 0.985 . S
C888 C889 1.363 . S
C888 C894 1.379 1_556 S
C888 N896 1.356 . S
C889 C888 1.363 . S
C889 C895 1.363 . S
C890 C891 1.363 . S
C890 C895 1.379 1_554 S
C890 N897 1.356 . S
C891 C890 1.363 . S
C891 C894 1.363 . S
N892 C894 1.356 . S
N892 H904 0.984 . S
N892 H905 0.985 . S
N893 C895 1.356 . S
N893 H898 0.984 . S
N893 H899 0.985 . S
C894 C888 1.379 1_554 S
C894 C891 1.363 . S
C894 N892 1.356 . S
C895 C889 1.363 . S
C895 C890 1.379 1_556 S
C895 N893 1.356 . S
N896 C888 1.356 . S
N896 H902 0.984 . S
N896 H903 0.984 . S
N897 C890 1.356 . S
N897 H900 0.984 . S
N897 H901 0.985 . S
H898 N893 0.984 . S
H899 N893 0.985 . S
H900 N897 0.984 . S
H901 N897 0.985 . S
H902 N896 0.984 . S
H903 N896 0.984 . S
H904 N892 0.984 . S
H905 N892 0.985 . S
C906 C907 1.363 . S
C906 C912 1.379 1_556 S
C906 N914 1.356 . S
C907 C906 1.363 . S
C907 C913 1.363 . S
C908 C909 1.363 . S
C908 C913 1.379 1_554 S
C908 N915 1.356 . S
C909 C908 1.363 . S
C909 C912 1.363 . S
N910 C912 1.356 . S
N910 H922 0.984 . S
N910 H923 0.985 . S
N911 C913 1.356 . S
N911 H916 0.984 . S
N911 H917 0.985 . S
C912 C906 1.379 1_554 S
C912 C909 1.363 . S
C912 N910 1.356 . S
C913 C907 1.363 . S
C913 C908 1.379 1_556 S
C913 N911 1.356 . S
N914 C906 1.356 . S
N914 H920 0.984 . S
N914 H921 0.984 . S
N915 C908 1.356 . S
N915 H918 0.984 . S
N915 H919 0.985 . S
H916 N911 0.984 . S
H917 N911 0.985 . S
H918 N915 0.984 . S
H919 N915 0.985 . S
H920 N914 0.984 . S
H921 N914 0.984 . S
H922 N910 0.984 . S
H923 N910 0.985 . S
C924 C925 1.363 . S
C924 C930 1.379 1_556 S
C924 N932 1.356 . S
C925 C924 1.363 . S
C925 C931 1.363 . S
C926 C927 1.363 . S
C926 C931 1.379 1_554 S
C926 N933 1.356 . S
C927 C926 1.363 . S
C927 C930 1.363 . S
N928 C930 1.356 . S
N928 H940 0.984 . S
N928 H941 0.985 . S
N929 C931 1.356 . S
N929 H934 0.984 . S
N929 H935 0.985 . S
C930 C924 1.379 1_554 S
C930 C927 1.363 . S
C930 N928 1.356 . S
C931 C925 1.363 . S
C931 C926 1.379 1_556 S
C931 N929 1.356 . S
N932 C924 1.356 . S
N932 H938 0.984 . S
N932 H939 0.984 . S
N933 C926 1.356 . S
N933 H936 0.984 . S
N933 H937 0.985 . S
H934 N929 0.984 . S
H935 N929 0.985 . S
H936 N933 0.984 . S
H937 N933 0.985 . S
H938 N932 0.984 . S
H939 N932 0.984 . S
H940 N928 0.984 . S
H941 N928 0.985 . S
C942 C943 1.363 . S
C942 C948 1.379 1_556 S
C942 N950 1.356 . S
C943 C942 1.363 . S
C943 C949 1.363 . S
C944 C945 1.363 . S
C944 C949 1.379 1_554 S
C944 N951 1.356 . S
C945 C944 1.363 . S
C945 C948 1.363 . S
N946 C948 1.356 . S
N946 H958 0.984 . S
N946 H959 0.985 . S
N947 C949 1.356 . S
N947 H952 0.984 . S
N947 H953 0.985 . S
C948 C942 1.379 1_554 S
C948 C945 1.363 . S
C948 N946 1.356 . S
C949 C943 1.363 . S
C949 C944 1.379 1_556 S
C949 N947 1.356 . S
N950 C942 1.356 . S
N950 H956 0.984 . S
N950 H957 0.984 . S
N951 C944 1.356 . S
N951 H954 0.984 . S
N951 H955 0.985 . S
H952 N947 0.984 . S
H953 N947 0.985 . S
H954 N951 0.984 . S
H955 N951 0.985 . S
H956 N950 0.984 . S
H957 N950 0.984 . S
H958 N946 0.984 . S
H959 N946 0.985 . S
C960 C961 1.363 . S
C960 C966 1.379 . S
C960 N968 1.356 . S
C961 C960 1.363 . S
C961 C967 1.363 . S
C962 C963 1.363 . S
C962 C967 1.379 . S
C962 N969 1.356 . S
C963 C962 1.363 . S
C963 C966 1.363 . S
N964 C966 1.356 . S
N964 H976 0.984 . S
N964 H977 0.985 . S
N965 C967 1.356 . S
N965 H970 0.984 . S
N965 H971 0.985 . S
C966 C960 1.379 . S
C966 C963 1.363 . S
C966 N964 1.356 . S
C967 C961 1.363 . S
C967 C962 1.379 . S
C967 N965 1.356 . S
N968 C960 1.356 . S
N968 H974 0.984 . S
N968 H975 0.984 . S
N969 C962 1.356 . S
N969 H972 0.984 . S
N969 H973 0.985 . S
H970 N965 0.984 . S
H971 N965 0.985 . S
H972 N969 0.984 . S
H973 N969 0.985 . S
H974 N968 0.984 . S
H975 N968 0.984 . S
H976 N964 0.984 . S
H977 N964 0.985 . S
C978 C979 1.363 . S
C978 C984 1.379 . S
C978 N986 1.356 . S
C979 C978 1.363 . S
C979 C985 1.363 . S
C980 C981 1.363 . S
C980 C985 1.379 . S
C980 N987 1.356 . S
C981 C980 1.363 . S
C981 C984 1.363 . S
N982 C984 1.356 . S
N982 H994 0.984 . S
N982 H995 0.985 . S
N983 C985 1.356 . S
N983 H988 0.984 . S
N983 H989 0.985 . S
C984 C978 1.379 . S
C984 C981 1.363 . S
C984 N982 1.356 . S
C985 C979 1.363 . S
C985 C980 1.379 . S
C985 N983 1.356 . S
N986 C978 1.356 . S
N986 H992 0.984 . S
N986 H993 0.984 . S
N987 C980 1.356 . S
N987 H990 0.984 . S
N987 H991 0.985 . S
H988 N983 0.984 . S
H989 N983 0.985 . S
H990 N987 0.984 . S
H991 N987 0.985 . S
H992 N986 0.984 . S
H993 N986 0.984 . S
H994 N982 0.984 . S
H995 N982 0.985 . S
C996 C997 1.363 . S
C996 C1002 1.379 . S
C996 N1004 1.356 . S
C997 C996 1.363 . S
C997 C1003 1.363 . S
C998 C999 1.363 . S
C998 C1003 1.379 . S
C998 N1005 1.356 . S
C999 C998 1.363 . S
C999 C1002 1.363 . S
N1000 C1002 1.356 . S
N1000 H1012 0.984 . S
N1000 H1013 0.985 . S
N1001 C1003 1.356 . S
N1001 H1006 0.984 . S
N1001 H1007 0.985 . S
C1002 C996 1.379 . S
C1002 C999 1.363 . S
C1002 N1000 1.356 . S
C1003 C997 1.363 . S
C1003 C998 1.379 . S
C1003 N1001 1.356 . S
N1004 C996 1.356 . S
N1004 H1010 0.984 . S
N1004 H1011 0.984 . S
N1005 C998 1.356 . S
N1005 H1008 0.984 . S
N1005 H1009 0.985 . S
H1006 N1001 0.984 . S
H1007 N1001 0.985 . S
H1008 N1005 0.984 . S
H1009 N1005 0.985 . S
H1010 N1004 0.984 . S
H1011 N1004 0.984 . S
H1012 N1000 0.984 . S
H1013 N1000 0.985 . S
C1014 C1015 1.363 . S
C1014 C1020 1.379 . S
C1014 N1022 1.356 . S
C1015 C1014 1.363 . S
C1015 C1021 1.363 . S
C1016 C1017 1.363 . S
C1016 C1021 1.379 . S
C1016 N1023 1.356 . S
C1017 C1016 1.363 . S
C1017 C1020 1.363 . S
N1018 C1020 1.356 . S
N1018 H1030 0.984 . S
N1018 H1031 0.985 . S
N1019 C1021 1.356 . S
N1019 H1024 0.984 . S
N1019 H1025 0.985 . S
C1020 C1014 1.379 . S
C1020 C1017 1.363 . S
C1020 N1018 1.356 . S
C1021 C1015 1.363 . S
C1021 C1016 1.379 . S
C1021 N1019 1.356 . S
N1022 C1014 1.356 . S
N1022 H1028 0.984 . S
N1022 H1029 0.984 . S
N1023 C1016 1.356 . S
N1023 H1026 0.984 . S
N1023 H1027 0.985 . S
H1024 N1019 0.984 . S
H1025 N1019 0.985 . S
H1026 N1023 0.984 . S
H1027 N1023 0.985 . S
H1028 N1022 0.984 . S
H1029 N1022 0.984 . S
H1030 N1018 0.984 . S
H1031 N1018 0.985 . S
C1032 C1033 1.363 . S
C1032 C1038 1.379 . S
C1032 N1040 1.356 . S
C1033 C1032 1.363 . S
C1033 C1039 1.363 . S
C1034 C1035 1.363 . S
C1034 C1039 1.379 . S
C1034 N1041 1.356 . S
C1035 C1034 1.363 . S
C1035 C1038 1.363 . S
N1036 C1038 1.356 . S
N1036 H1048 0.984 . S
N1036 H1049 0.985 . S
N1037 C1039 1.356 . S
N1037 H1042 0.984 . S
N1037 H1043 0.985 . S
C1038 C1032 1.379 . S
C1038 C1035 1.363 . S
C1038 N1036 1.356 . S
C1039 C1033 1.363 . S
C1039 C1034 1.379 . S
C1039 N1037 1.356 . S
N1040 C1032 1.356 . S
N1040 H1046 0.984 . S
N1040 H1047 0.984 . S
N1041 C1034 1.356 . S
N1041 H1044 0.984 . S
N1041 H1045 0.985 . S
H1042 N1037 0.984 . S
H1043 N1037 0.985 . S
H1044 N1041 0.984 . S
H1045 N1041 0.985 . S
H1046 N1040 0.984 . S
H1047 N1040 0.984 . S
H1048 N1036 0.984 . S
H1049 N1036 0.985 . S
C1050 C1051 1.363 . S
C1050 C1056 1.379 . S
C1050 N1058 1.356 . S
C1051 C1050 1.363 . S
C1051 C1057 1.363 . S
C1052 C1053 1.363 . S
C1052 C1057 1.379 . S
C1052 N1059 1.356 . S
C1053 C1052 1.363 . S
C1053 C1056 1.363 . S
N1054 C1056 1.356 . S
N1054 H1066 0.984 . S
N1054 H1067 0.985 . S
N1055 C1057 1.356 . S
N1055 H1060 0.984 . S
N1055 H1061 0.985 . S
C1056 C1050 1.379 . S
C1056 C1053 1.363 . S
C1056 N1054 1.356 . S
C1057 C1051 1.363 . S
C1057 C1052 1.379 . S
C1057 N1055 1.356 . S
N1058 C1050 1.356 . S
N1058 H1064 0.984 . S
N1058 H1065 0.984 . S
N1059 C1052 1.356 . S
N1059 H1062 0.984 . S
N1059 H1063 0.985 . S
H1060 N1055 0.984 . S
H1061 N1055 0.985 . S
H1062 N1059 0.984 . S
H1063 N1059 0.985 . S
H1064 N1058 0.984 . S
H1065 N1058 0.984 . S
H1066 N1054 0.984 . S
H1067 N1054 0.985 . S
C1068 C1069 1.363 . S
C1068 C1074 1.379 . S
C1068 N1076 1.356 . S
C1069 C1068 1.363 . S
C1069 C1075 1.363 . S
C1070 C1071 1.363 . S
C1070 C1075 1.379 . S
C1070 N1077 1.356 . S
C1071 C1070 1.363 . S
C1071 C1074 1.363 . S
N1072 C1074 1.356 . S
N1072 H1084 0.984 . S
N1072 H1085 0.985 . S
N1073 C1075 1.356 . S
N1073 H1078 0.984 . S
N1073 H1079 0.985 . S
C1074 C1068 1.379 . S
C1074 C1071 1.363 . S
C1074 N1072 1.356 . S
C1075 C1069 1.363 . S
C1075 C1070 1.379 . S
C1075 N1073 1.356 . S
N1076 C1068 1.356 . S
N1076 H1082 0.984 . S
N1076 H1083 0.984 . S
N1077 C1070 1.356 . S
N1077 H1080 0.984 . S
N1077 H1081 0.985 . S
H1078 N1073 0.984 . S
H1079 N1073 0.985 . S
H1080 N1077 0.984 . S
H1081 N1077 0.985 . S
H1082 N1076 0.984 . S
H1083 N1076 0.984 . S
H1084 N1072 0.984 . S
H1085 N1072 0.985 . S
C1086 C1087 1.363 . S
C1086 C1092 1.379 . S
C1086 N1094 1.356 . S
C1087 C1086 1.363 . S
C1087 C1093 1.363 . S
C1088 C1089 1.363 . S
C1088 C1093 1.379 . S
C1088 N1095 1.356 . S
C1089 C1088 1.363 . S
C1089 C1092 1.363 . S
N1090 C1092 1.356 . S
N1090 H1102 0.984 . S
N1090 H1103 0.985 . S
N1091 C1093 1.356 . S
N1091 H1096 0.984 . S
N1091 H1097 0.985 . S
C1092 C1086 1.379 . S
C1092 C1089 1.363 . S
C1092 N1090 1.356 . S
C1093 C1087 1.363 . S
C1093 C1088 1.379 . S
C1093 N1091 1.356 . S
N1094 C1086 1.356 . S
N1094 H1100 0.984 . S
N1094 H1101 0.984 . S
N1095 C1088 1.356 . S
N1095 H1098 0.984 . S
N1095 H1099 0.985 . S
H1096 N1091 0.984 . S
H1097 N1091 0.985 . S
H1098 N1095 0.984 . S
H1099 N1095 0.985 . S
H1100 N1094 0.984 . S
H1101 N1094 0.984 . S
H1102 N1090 0.984 . S
H1103 N1090 0.985 . S
C1104 C1105 1.363 . S
C1104 C1110 1.379 . S
C1104 N1112 1.356 . S
C1105 C1104 1.363 . S
C1105 C1111 1.363 . S
C1106 C1107 1.363 . S
C1106 C1111 1.379 . S
C1106 N1113 1.356 . S
C1107 C1106 1.363 . S
C1107 C1110 1.363 . S
N1108 C1110 1.356 . S
N1108 H1120 0.984 . S
N1108 H1121 0.985 . S
N1109 C1111 1.356 . S
N1109 H1114 0.984 . S
N1109 H1115 0.985 . S
C1110 C1104 1.379 . S
C1110 C1107 1.363 . S
C1110 N1108 1.356 . S
C1111 C1105 1.363 . S
C1111 C1106 1.379 . S
C1111 N1109 1.356 . S
N1112 C1104 1.356 . S
N1112 H1118 0.984 . S
N1112 H1119 0.984 . S
N1113 C1106 1.356 . S
N1113 H1116 0.984 . S
N1113 H1117 0.985 . S
H1114 N1109 0.984 . S
H1115 N1109 0.985 . S
H1116 N1113 0.984 . S
H1117 N1113 0.985 . S
H1118 N1112 0.984 . S
H1119 N1112 0.984 . S
H1120 N1108 0.984 . S
H1121 N1108 0.985 . S
C1122 C1123 1.363 . S
C1122 C1128 1.379 . S
C1122 N1130 1.356 . S
C1123 C1122 1.363 . S
C1123 C1129 1.363 . S
C1124 C1125 1.363 . S
C1124 C1129 1.379 . S
C1124 N1131 1.356 . S
C1125 C1124 1.363 . S
C1125 C1128 1.363 . S
N1126 C1128 1.356 . S
N1126 H1138 0.984 . S
N1126 H1139 0.985 . S
N1127 C1129 1.356 . S
N1127 H1132 0.984 . S
N1127 H1133 0.985 . S
C1128 C1122 1.379 . S
C1128 C1125 1.363 . S
C1128 N1126 1.356 . S
C1129 C1123 1.363 . S
C1129 C1124 1.379 . S
C1129 N1127 1.356 . S
N1130 C1122 1.356 . S
N1130 H1136 0.984 . S
N1130 H1137 0.984 . S
N1131 C1124 1.356 . S
N1131 H1134 0.984 . S
N1131 H1135 0.985 . S
H1132 N1127 0.984 . S
H1133 N1127 0.985 . S
H1134 N1131 0.984 . S
H1135 N1131 0.985 . S
H1136 N1130 0.984 . S
H1137 N1130 0.984 . S
H1138 N1126 0.984 . S
H1139 N1126 0.985 . S
C1140 C1141 1.363 . S
C1140 C1146 1.379 . S
C1140 N1148 1.356 . S
C1141 C1140 1.363 . S
C1141 C1147 1.363 . S
C1142 C1143 1.363 . S
C1142 C1147 1.379 . S
C1142 N1149 1.356 . S
C1143 C1142 1.363 . S
C1143 C1146 1.363 . S
N1144 C1146 1.356 . S
N1144 H1156 0.984 . S
N1144 H1157 0.985 . S
N1145 C1147 1.356 . S
N1145 H1150 0.984 . S
N1145 H1151 0.985 . S
C1146 C1140 1.379 . S
C1146 C1143 1.363 . S
C1146 N1144 1.356 . S
C1147 C1141 1.363 . S
C1147 C1142 1.379 . S
C1147 N1145 1.356 . S
N1148 C1140 1.356 . S
N1148 H1154 0.984 . S
N1148 H1155 0.984 . S
N1149 C1142 1.356 . S
N1149 H1152 0.984 . S
N1149 H1153 0.985 . S
H1150 N1145 0.984 . S
H1151 N1145 0.985 . S
H1152 N1149 0.984 . S
H1153 N1149 0.985 . S
H1154 N1148 0.984 . S
H1155 N1148 0.984 . S
H1156 N1144 0.984 . S
H1157 N1144 0.985 . S
C1158 C1159 1.363 . S
C1158 C1164 1.379 . S
C1158 N1166 1.356 . S
C1159 C1158 1.363 . S
C1159 C1165 1.363 . S
C1160 C1161 1.363 . S
C1160 C1165 1.379 . S
C1160 N1167 1.356 . S
C1161 C1160 1.363 . S
C1161 C1164 1.363 . S
N1162 C1164 1.356 . S
N1162 H1174 0.984 . S
N1162 H1175 0.985 . S
N1163 C1165 1.356 . S
N1163 H1168 0.984 . S
N1163 H1169 0.985 . S
C1164 C1158 1.379 . S
C1164 C1161 1.363 . S
C1164 N1162 1.356 . S
C1165 C1159 1.363 . S
C1165 C1160 1.379 . S
C1165 N1163 1.356 . S
N1166 C1158 1.356 . S
N1166 H1172 0.984 . S
N1166 H1173 0.984 . S
N1167 C1160 1.356 . S
N1167 H1170 0.984 . S
N1167 H1171 0.985 . S
H1168 N1163 0.984 . S
H1169 N1163 0.985 . S
H1170 N1167 0.984 . S
H1171 N1167 0.985 . S
H1172 N1166 0.984 . S
H1173 N1166 0.984 . S
H1174 N1162 0.984 . S
H1175 N1162 0.985 . S
C313 C153 1.442 . S
C315 C8 1.414 . S
C331 C21 1.414 . S
C333 C114 1.442 . S
C349 C34 1.414 . S
C351 C127 1.442 . S
C367 C47 1.414 . S
C369 C140 1.442 . S
C385 C179 1.442 . S
C387 C60 1.414 . S
C403 C73 1.414 . S
C405 C192 1.442 . S
C421 C205 1.442 . S
C423 C86 1.414 . S
C439 C166 1.442 . S
C441 C99 1.414 . S
C457 C75 1.442 . S
C459 C112 1.414 . S
C475 C88 1.442 . S
C477 C125 1.414 . S
C493 C138 1.414 . S
C495 C101 1.442 . S
C511 C62 1.442 . S
C513 C151 1.414 . S
C529 C49 1.442 . S
C531 C164 1.414 . S
C547 C177 1.414 . S
C549 C10 1.442 . S
C565 C190 1.414 . S
C567 C23 1.442 . S
C583 C203 1.414 . S
C585 C36 1.442 . S
C601 C216 1.414 . S
C603 C309 1.442 . S
C619 C270 1.442 . S
C621 C229 1.414 . S
C637 C242 1.414 . S
C639 C231 1.442 . S
C655 C255 1.414 . S
C657 C244 1.442 . S
C673 C257 1.442 . S
C675 C268 1.414 . S
C691 C281 1.414 . S
C693 C296 1.442 . S
C709 C218 1.442 . S
C711 C294 1.414 . S
C727 C283 1.442 . S
C729 C307 1.414 . S
C745 C5 1.381 . S
C747 C83 1.381 . S
C763 C18 1.381 . S
C765 C96 1.381 . S
C781 C31 1.381 . S
C783 C57 1.381 . S
C799 C70 1.381 . S
C801 C44 1.381 . S
C817 C135 1.381 . S
C819 C109 1.381 . S
C835 C122 1.381 . S
C837 C148 1.381 . S
C853 C161 1.381 . S
C855 C187 1.381 . S
C871 C200 1.381 . S
C873 C174 1.381 . S
C889 C226 1.381 . S
C891 C213 1.381 . S
C907 C239 1.381 . S
C909 C304 1.381 . S
C925 C252 1.381 . S
C927 C278 1.381 . S
C943 C265 1.381 . S
C945 C291 1.381 . S
C961 C0 1.114 . S
C963 C65 1.114 . S
C979 C13 1.114 . S
C981 C78 1.114 . S
C997 C26 1.114 . S
C999 C91 1.114 . S
C1015 C52 1.114 . S
C1017 C39 1.114 . S
C1033 C104 1.114 . S
C1035 C299 1.114 . S
C1051 C117 1.114 . S
C1053 C273 1.114 . S
C1069 C286 1.114 . S
C1071 C130 1.114 . S
C1087 C143 1.114 . S
C1089 C208 1.114 . S
C1105 C260 1.114 . S
C1107 C156 1.114 . S
C1123 C221 1.114 . S
C1125 C169 1.114 . S
C1141 C182 1.114 . S
C1143 C234 1.114 . S
C1159 C247 1.114 . S
C1161 C195 1.114 . S
