# Generated by pormake.
# Topology zga, (5)-cn, num edge types: 1
# Building blocks:
#     Node 0, Type 0, BuildingBlock: BEQFEK_clean_sbu_0, # of connection points: 5
#     Node 1, Type 0, BuildingBlock: BEQFEK_clean_sbu_0, # of connection points: 5
#     Node 2, Type 0, BuildingBlock: BEQFEK_clean_sbu_0, # of connection points: 5
#     Node 3, Type 0, BuildingBlock: BEQFEK_clean_sbu_0, # of connection points: 5
#     Node 4, Type 0, BuildingBlock: BEQFEK_clean_sbu_0, # of connection points: 5
#     Node 5, Type 0, BuildingBlock: BEQFEK_clean_sbu_0, # of connection points: 5
#     Node 6, Type 0, BuildingBlock: BEQFEK_clean_sbu_0, # of connection points: 5
#     Node 7, Type 0, BuildingBlock: BEQFEK_clean_sbu_0, # of connection points: 5
#     Node 8, Type 0, BuildingBlock: BEQFEK_clean_sbu_0, # of connection points: 5
#     Node 9, Type 0, BuildingBlock: BEQFEK_clean_sbu_0, # of connection points: 5
#     Node 10, Type 0, BuildingBlock: BEQFEK_clean_sbu_0, # of connection points: 5
#     Node 11, Type 0, BuildingBlock: BEQFEK_clean_sbu_0, # of connection points: 5
#     Node 12, Type 0, BuildingBlock: BEQFEK_clean_sbu_0, # of connection points: 5
#     Node 13, Type 0, BuildingBlock: BEQFEK_clean_sbu_0, # of connection points: 5
#     Node 14, Type 0, BuildingBlock: BEQFEK_clean_sbu_0, # of connection points: 5
#     Node 15, Type 0, BuildingBlock: BEQFEK_clean_sbu_0, # of connection points: 5
#     Edge 16, Type (0, 0), BuildingBlock: ZUJKAS_clean_linker_0, # of connection points: 2
#     Edge 17, Type (0, 0), BuildingBlock: ZUJKAS_clean_linker_0, # of connection points: 2
#     Edge 18, Type (0, 0), BuildingBlock: ZUJKAS_clean_linker_0, # of connection points: 2
#     Edge 19, Type (0, 0), BuildingBlock: ZUJKAS_clean_linker_0, # of connection points: 2
#     Edge 20, Type (0, 0), BuildingBlock: ZUJKAS_clean_linker_0, # of connection points: 2
#     Edge 21, Type (0, 0), BuildingBlock: ZUJKAS_clean_linker_0, # of connection points: 2
#     Edge 22, Type (0, 0), BuildingBlock: ZUJKAS_clean_linker_0, # of connection points: 2
#     Edge 23, Type (0, 0), BuildingBlock: ZUJKAS_clean_linker_0, # of connection points: 2
#     Edge 24, Type (0, 0), BuildingBlock: ZUJKAS_clean_linker_0, # of connection points: 2
#     Edge 25, Type (0, 0), BuildingBlock: ZUJKAS_clean_linker_0, # of connection points: 2
#     Edge 26, Type (0, 0), BuildingBlock: ZUJKAS_clean_linker_0, # of connection points: 2
#     Edge 27, Type (0, 0), BuildingBlock: ZUJKAS_clean_linker_0, # of connection points: 2
#     Edge 28, Type (0, 0), BuildingBlock: ZUJKAS_clean_linker_0, # of connection points: 2
#     Edge 29, Type (0, 0), BuildingBlock: ZUJKAS_clean_linker_0, # of connection points: 2
#     Edge 30, Type (0, 0), BuildingBlock: ZUJKAS_clean_linker_0, # of connection points: 2
#     Edge 31, Type (0, 0), BuildingBlock: ZUJKAS_clean_linker_0, # of connection points: 2
#     Edge 32, Type (0, 0), BuildingBlock: ZUJKAS_clean_linker_0, # of connection points: 2
#     Edge 33, Type (0, 0), BuildingBlock: ZUJKAS_clean_linker_0, # of connection points: 2
#     Edge 34, Type (0, 0), BuildingBlock: ZUJKAS_clean_linker_0, # of connection points: 2
#     Edge 35, Type (0, 0), BuildingBlock: ZUJKAS_clean_linker_0, # of connection points: 2
#     Edge 36, Type (0, 0), BuildingBlock: ZUJKAS_clean_linker_0, # of connection points: 2
#     Edge 37, Type (0, 0), BuildingBlock: ZUJKAS_clean_linker_0, # of connection points: 2
#     Edge 38, Type (0, 0), BuildingBlock: ZUJKAS_clean_linker_0, # of connection points: 2
#     Edge 39, Type (0, 0), BuildingBlock: ZUJKAS_clean_linker_0, # of connection points: 2
#     Edge 40, Type (0, 0), BuildingBlock: ZUJKAS_clean_linker_0, # of connection points: 2
#     Edge 41, Type (0, 0), BuildingBlock: ZUJKAS_clean_linker_0, # of connection points: 2
#     Edge 42, Type (0, 0), BuildingBlock: ZUJKAS_clean_linker_0, # of connection points: 2
#     Edge 43, Type (0, 0), BuildingBlock: ZUJKAS_clean_linker_0, # of connection points: 2
#     Edge 44, Type (0, 0), BuildingBlock: ZUJKAS_clean_linker_0, # of connection points: 2
#     Edge 45, Type (0, 0), BuildingBlock: ZUJKAS_clean_linker_0, # of connection points: 2
#     Edge 46, Type (0, 0), BuildingBlock: ZUJKAS_clean_linker_0, # of connection points: 2
#     Edge 47, Type (0, 0), BuildingBlock: ZUJKAS_clean_linker_0, # of connection points: 2
#     Edge 48, Type (0, 0), BuildingBlock: ZUJKAS_clean_linker_0, # of connection points: 2
#     Edge 49, Type (0, 0), BuildingBlock: ZUJKAS_clean_linker_0, # of connection points: 2
#     Edge 50, Type (0, 0), BuildingBlock: ZUJKAS_clean_linker_0, # of connection points: 2
#     Edge 51, Type (0, 0), BuildingBlock: ZUJKAS_clean_linker_0, # of connection points: 2
#     Edge 52, Type (0, 0), BuildingBlock: ZUJKAS_clean_linker_0, # of connection points: 2
#     Edge 53, Type (0, 0), BuildingBlock: ZUJKAS_clean_linker_0, # of connection points: 2
#     Edge 54, Type (0, 0), BuildingBlock: ZUJKAS_clean_linker_0, # of connection points: 2
#     Edge 55, Type (0, 0), BuildingBlock: ZUJKAS_clean_linker_0, # of connection points: 2
# Relax obj value: 0.155
# Max RMSD: 0.221
# Mean RMSD: 0.176
data_MOF--net-zga--node1-BEQFEK_clean_sbu_0--edge1-ZUJKAS_clean_linker_0
_symmetry_space_group_name_H-M    P1
_symmetry_Int_Tables_number       1
_symmetry_cell_setting            triclinic
loop_
_symmetry_equiv_pos_as_xyz
'x, y, z'
_cell_length_a     67.958913
_cell_length_b     115.57919
_cell_length_c     23.318622
_cell_angle_alpha  91.174468
_cell_angle_beta   90.056145
_cell_angle_gamma 101.03826
loop_
_atom_site_label
_atom_site_type_symbol
_atom_site_fract_x
_atom_site_fract_y
_atom_site_fract_z
_atom_type_partial_charge
Co0 Co 0.0829 0.53854 0.09506 0.0
Co1 Co 0.06936 0.53903 0.22321 0.0
C2 C 0.08281 0.56126 0.15756 0.0
O3 O 0.08605 0.55549 0.11272 0.0
O4 O 0.07642 0.55603 0.20339 0.0
C5 C 0.10643 0.54442 0.99375 0.0
O6 O 0.11544 0.55355 0.0246 0.0
C7 C 0.07519 0.54395 0.34673 0.0
C8 C 0.0513 0.53045 0.38327 0.0
C9 C 0.06743 0.53927 0.39816 0.0
N10 N 0.06444 0.53794 0.30351 0.0
N11 N 0.05 0.53 0.32565 0.0
C12 C 0.09206 0.5542 0.33837 0.0
H13 H 0.08757 0.56022 0.30671 0.0
H14 H 0.10528 0.55102 0.32088 0.0
H15 H 0.09624 0.55923 0.379 0.0
C16 C 0.11127 0.5249 0.1442 0.0
N17 N 0.09631 0.53098 0.14951 0.0
N18 N 0.09031 0.53079 0.20321 0.0
C19 C 0.10106 0.52432 0.23361 0.0
C20 C 0.11476 0.52047 0.19726 0.0
C21 C 0.12135 0.523 0.08873 0.0
H22 H 0.10984 0.51959 0.05566 0.0
H23 H 0.1299 0.53158 0.07404 0.0
H24 H 0.13166 0.5167 0.09306 0.0
O25 O 0.0541 0.53146 0.09255 0.0
O26 O 0.04412 0.53169 0.18306 0.0
H27 H 0.08246 0.51892 0.30608 0.0
H28 H 0.10718 0.51543 0.31102 0.0
C29 C 0.09854 0.52204 0.29642 0.0
H30 H 0.10392 0.53034 0.321 0.0
H31 H 0.03963 0.52404 0.30138 0.0
O32 O 0.09295 0.53678 0.01666 0.0
C33 C 0.04041 0.52927 0.13016 0.0
Co34 Co 0.13551 0.71017 0.19062 0.0
Co35 Co 0.12104 0.70974 0.06273 0.0
C36 C 0.11848 0.68754 0.12774 0.0
O37 O 0.12552 0.69335 0.17247 0.0
O38 O 0.11611 0.69269 0.08119 0.0
C39 C 0.15306 0.70261 0.29185 0.0
O40 O 0.15313 0.69296 0.26117 0.0
C41 C 0.12221 0.70505 0.93876 0.0
C42 C 0.10758 0.719 0.90472 0.0
C43 C 0.11726 0.70995 0.88796 0.0
N44 N 0.116 0.71106 0.98299 0.0
N45 N 0.10695 0.71924 0.96235 0.0
C46 C 0.13435 0.69564 0.94603 0.0
H47 H 0.1409 0.69614 0.98983 0.0
H48 H 0.14653 0.69651 0.91381 0.0
H49 H 0.12448 0.68688 0.93986 0.0
C50 C 0.17336 0.72251 0.13912 0.0
N51 N 0.15407 0.717 0.13494 0.0
N52 N 0.14795 0.71722 0.08141 0.0
C53 C 0.16315 0.72313 0.05001 0.0
C54 C 0.17975 0.7266 0.08548 0.0
C55 C 0.18502 0.72423 0.19409 0.0
H56 H 0.17639 0.72816 0.22712 0.0
H57 H 0.18704 0.71551 0.20955 0.0
H58 H 0.1999 0.73002 0.18876 0.0
O59 O 0.11284 0.71856 0.19453 0.0
O60 O 0.10189 0.71781 0.10464 0.0
H61 H 0.14813 0.72844 0.97698 0.0
H62 H 0.17508 0.73149 0.97126 0.0
C63 C 0.16199 0.72514 0.98694 0.0
H64 H 0.16162 0.7167 0.96341 0.0
H65 H 0.10103 0.72528 0.98766 0.0
O66 O 0.14729 0.71127 0.2688 0.0
C67 C 0.10062 0.72089 0.15707 0.0
Co68 Co 0.81443 0.44819 0.94743 0.0
Co69 Co 0.82879 0.45345 0.82142 0.0
C70 C 0.82974 0.43019 0.87791 0.0
O71 O 0.82179 0.43306 0.92412 0.0
O72 O 0.83321 0.43729 0.83653 0.0
C73 C 0.79645 0.4373 0.05028 0.0
O74 O 0.79512 0.4273 0.02136 0.0
C75 C 0.82343 0.44907 0.69797 0.0
C76 C 0.84289 0.46471 0.66169 0.0
C77 C 0.82952 0.45446 0.64659 0.0
N78 N 0.83246 0.45595 0.7413 0.0
N79 N 0.84419 0.46524 0.71935 0.0
C80 C 0.80973 0.43743 0.70603 0.0
H81 H 0.81272 0.43358 0.74742 0.0
H82 H 0.79395 0.43867 0.70646 0.0
H83 H 0.81149 0.43119 0.67042 0.0
C84 C 0.77824 0.45575 0.90272 0.0
N85 N 0.7964 0.45291 0.89522 0.0
N86 N 0.80272 0.45564 0.84301 0.0
C87 C 0.78897 0.46062 0.81606 0.0
C88 C 0.77296 0.46075 0.85282 0.0
C89 C 0.76733 0.45486 0.95862 0.0
H90 H 0.77651 0.4607 0.99103 0.0
H91 H 0.76536 0.44569 0.97391 0.0
H92 H 0.75248 0.45744 0.95476 0.0
O93 O 0.83918 0.46043 0.95352 0.0
O94 O 0.84938 0.4647 0.86465 0.0
H95 H 0.80693 0.47118 0.75369 0.0
H96 H 0.78044 0.47131 0.74809 0.0
C97 C 0.79165 0.46579 0.75754 0.0
H98 H 0.78983 0.45858 0.72491 0.0
H99 H 0.85289 0.47201 0.74374 0.0
O100 O 0.80335 0.44694 0.02579 0.0
C101 C 0.85151 0.46627 0.91872 0.0
Co102 Co 0.90961 0.30073 0.91604 0.0
Co103 Co 0.89561 0.29731 0.78766 0.0
C104 C 0.89939 0.32064 0.85125 0.0
O105 O 0.90581 0.31676 0.89691 0.0
O106 O 0.89499 0.314 0.80705 0.0
C107 C 0.93003 0.3102 0.02049 0.0
O108 O 0.93454 0.32011 0.99258 0.0
C109 C 0.90064 0.302 0.66521 0.0
C110 C 0.8812 0.28638 0.62539 0.0
C111 C 0.89461 0.29661 0.6127 0.0
N112 N 0.89159 0.29511 0.70697 0.0
N113 N 0.8798 0.28585 0.68291 0.0
C114 C 0.91431 0.31365 0.67612 0.0
H115 H 0.90712 0.31904 0.70645 0.0
H116 H 0.92839 0.31221 0.69644 0.0
H117 H 0.91781 0.31865 0.63618 0.0
C118 C 0.94314 0.29042 0.87017 0.0
N119 N 0.92631 0.29477 0.86293 0.0
N120 N 0.9203 0.29307 0.80922 0.0
C121 C 0.93308 0.28746 0.78059 0.0
C122 C 0.94797 0.28561 0.81824 0.0
C123 C 0.95302 0.2898 0.92712 0.0
H124 H 0.94185 0.28516 0.95764 0.0
H125 H 0.95837 0.29887 0.94438 0.0
H126 H 0.9658 0.28513 0.92407 0.0
O127 O 0.88305 0.29014 0.91805 0.0
O128 O 0.87294 0.28731 0.82739 0.0
H129 H 0.91567 0.27825 0.71128 0.0
H130 H 0.94232 0.27867 0.70466 0.0
C131 C 0.93079 0.2837 0.7187 0.0
H132 H 0.93232 0.29161 0.69189 0.0
H133 H 0.87114 0.27906 0.70578 0.0
O134 O 0.92033 0.30105 0.99494 0.0
C135 C 0.8701 0.28546 0.88071 0.0
Co136 Co 0.08336 0.03829 0.59659 0.0
Co137 Co 0.06892 0.03912 0.72373 0.0
C138 C 0.08135 0.06112 0.65538 0.0
O139 O 0.08539 0.05524 0.61179 0.0
O140 O 0.07481 0.05602 0.70139 0.0
C141 C 0.10639 0.04438 0.49494 0.0
O142 O 0.11446 0.05382 0.52512 0.0
C143 C 0.07567 0.04413 0.84665 0.0
C144 C 0.04972 0.03232 0.88448 0.0
C145 C 0.06721 0.04019 0.89862 0.0
N146 N 0.06394 0.03861 0.80402 0.0
N147 N 0.04834 0.03167 0.82691 0.0
C148 C 0.09419 0.05325 0.83723 0.0
H149 H 0.09299 0.05791 0.79677 0.0
H150 H 0.10737 0.04892 0.83366 0.0
H151 H 0.09672 0.05973 0.87351 0.0
C152 C 0.11266 0.02574 0.6498 0.0
N153 N 0.09721 0.03148 0.65308 0.0
N154 N 0.09059 0.03128 0.70615 0.0
C155 C 0.10125 0.02501 0.73799 0.0
C156 C 0.11576 0.02145 0.70358 0.0
C157 C 0.12446 0.02476 0.59637 0.0
H158 H 0.11526 0.01845 0.56589 0.0
H159 H 0.12795 0.03346 0.5757 0.0
H160 H 0.13869 0.02177 0.60544 0.0
O161 O 0.05473 0.0305 0.59404 0.0
O162 O 0.04424 0.03099 0.68398 0.0
H163 H 0.07974 0.0197 0.80453 0.0
H164 H 0.10147 0.01294 0.80745 0.0
C165 C 0.09616 0.02121 0.79808 0.0
H166 H 0.10354 0.02813 0.82878 0.0
H167 H 0.03702 0.02627 0.80322 0.0
O168 O 0.09377 0.03636 0.51857 0.0
C169 C 0.04092 0.02818 0.63129 0.0
Co170 Co 0.13498 0.20972 0.69037 0.0
Co171 Co 0.12083 0.20979 0.56248 0.0
C172 C 0.118 0.18731 0.62599 0.0
O173 O 0.1253 0.19294 0.67099 0.0
O174 O 0.11542 0.19269 0.58025 0.0
C175 C 0.15259 0.20217 0.79172 0.0
O176 O 0.15327 0.19264 0.76071 0.0
C177 C 0.12226 0.20522 0.43857 0.0
C178 C 0.10859 0.21953 0.40433 0.0
C179 C 0.11784 0.2103 0.38777 0.0
N180 N 0.11616 0.2113 0.4827 0.0
N181 N 0.10766 0.2197 0.46194 0.0
C182 C 0.13392 0.19558 0.44595 0.0
H183 H 0.14042 0.19599 0.48979 0.0
H184 H 0.14609 0.19626 0.41379 0.0
H185 H 0.12371 0.18693 0.43974 0.0
C186 C 0.1731 0.22204 0.64042 0.0
N187 N 0.15373 0.21671 0.63562 0.0
N188 N 0.14781 0.21708 0.58199 0.0
C189 C 0.16324 0.2229 0.55112 0.0
C190 C 0.17978 0.22616 0.58707 0.0
C191 C 0.18462 0.22349 0.69563 0.0
H192 H 0.17597 0.22731 0.72894 0.0
H193 H 0.18654 0.21469 0.71022 0.0
H194 H 0.19956 0.22927 0.69099 0.0
O195 O 0.11221 0.21807 0.6943 0.0
O196 O 0.10171 0.21788 0.60416 0.0
H197 H 0.14879 0.22849 0.47773 0.0
H198 H 0.17575 0.23115 0.47275 0.0
C199 C 0.1624 0.22496 0.48804 0.0
H200 H 0.16173 0.21649 0.46449 0.0
H201 H 0.10197 0.22585 0.48717 0.0
O202 O 0.14644 0.21072 0.76882 0.0
C203 C 0.10022 0.22067 0.65688 0.0
Co204 Co 0.81373 0.94767 0.44555 0.0
Co205 Co 0.8284 0.9533 0.32049 0.0
C206 C 0.82761 0.92955 0.37077 0.0
O207 O 0.82065 0.93263 0.41812 0.0
O208 O 0.83112 0.93665 0.3294 0.0
C209 C 0.7993 0.93606 0.54997 0.0
O210 O 0.80325 0.92652 0.52459 0.0
C211 C 0.82655 0.95045 0.19642 0.0
C212 C 0.84272 0.96777 0.16744 0.0
C213 C 0.83216 0.95694 0.14772 0.0
N214 N 0.83338 0.95716 0.24256 0.0
N215 N 0.84327 0.96744 0.22507 0.0
C216 C 0.81304 0.93863 0.20001 0.0
H217 H 0.8056 0.93763 0.24246 0.0
H218 H 0.80149 0.93744 0.16561 0.0
H219 H 0.82209 0.93165 0.19476 0.0
C220 C 0.77834 0.95631 0.40233 0.0
N221 N 0.79629 0.95323 0.39439 0.0
N222 N 0.80247 0.95579 0.34189 0.0
C223 C 0.78864 0.96066 0.31473 0.0
C224 C 0.7729 0.96116 0.35211 0.0
C225 C 0.76774 0.95566 0.45874 0.0
H226 H 0.77786 0.96071 0.4917 0.0
H227 H 0.7642 0.94634 0.47222 0.0
H228 H 0.75374 0.95923 0.45665 0.0
O229 O 0.83876 0.9595 0.4558 0.0
O230 O 0.84935 0.96357 0.36721 0.0
H231 H 0.80459 0.97144 0.24981 0.0
H232 H 0.77763 0.96876 0.24089 0.0
C233 C 0.79053 0.96485 0.25427 0.0
H234 H 0.79123 0.95729 0.22499 0.0
H235 H 0.84986 0.97435 0.25251 0.0
O236 O 0.80186 0.94564 0.52277 0.0
C237 C 0.85148 0.96507 0.42127 0.0
Co238 Co 0.90894 0.80061 0.40996 0.0
Co239 Co 0.89503 0.79697 0.28164 0.0
C240 C 0.89767 0.82023 0.34532 0.0
O241 O 0.90419 0.81644 0.39104 0.0
O242 O 0.89363 0.81359 0.301 0.0
C243 C 0.9289 0.81049 0.51405 0.0
O244 O 0.93264 0.82041 0.48602 0.0
C245 C 0.9006 0.80145 0.15885 0.0
C246 C 0.88026 0.78613 0.11952 0.0
C247 C 0.89421 0.79612 0.10647 0.0
N248 N 0.8912 0.79476 0.20087 0.0
N249 N 0.87891 0.78568 0.17706 0.0
C250 C 0.91507 0.81284 0.16895 0.0
H251 H 0.91195 0.81707 0.20998 0.0
H252 H 0.93055 0.81111 0.17134 0.0
H253 H 0.91431 0.81898 0.13341 0.0
C254 C 0.94306 0.79085 0.36441 0.0
N255 N 0.92603 0.795 0.35692 0.0
N256 N 0.91997 0.79308 0.30335 0.0
C257 C 0.93284 0.78746 0.27516 0.0
C258 C 0.94792 0.78591 0.31285 0.0
C259 C 0.95301 0.79046 0.42141 0.0
H260 H 0.94208 0.78554 0.45176 0.0
H261 H 0.95771 0.79957 0.43887 0.0
H262 H 0.96624 0.78616 0.4184 0.0
O263 O 0.88283 0.7896 0.41194 0.0
O264 O 0.87267 0.78667 0.32134 0.0
H265 H 0.91493 0.77801 0.20733 0.0
H266 H 0.9414 0.77782 0.20104 0.0
C267 C 0.93027 0.78322 0.21397 0.0
H268 H 0.93226 0.79091 0.18565 0.0
H269 H 0.86986 0.77907 0.20012 0.0
O270 O 0.91978 0.80117 0.4887 0.0
C271 C 0.86999 0.78475 0.37466 0.0
Co272 Co 0.58434 0.53954 0.60053 0.0
Co273 Co 0.56801 0.53845 0.72646 0.0
C274 C 0.5817 0.56143 0.66702 0.0
O275 O 0.58671 0.55628 0.6222 0.0
O276 O 0.57407 0.55564 0.71012 0.0
C277 C 0.60589 0.54711 0.49734 0.0
O278 O 0.61137 0.55714 0.52582 0.0
C279 C 0.57328 0.54223 0.84996 0.0
C280 C 0.54761 0.52966 0.88445 0.0
C281 C 0.5646 0.53775 0.90084 0.0
N282 N 0.56203 0.53694 0.80597 0.0
N283 N 0.54655 0.52956 0.82681 0.0
C284 C 0.59292 0.55047 0.84224 0.0
H285 H 0.59869 0.54953 0.79822 0.0
H286 H 0.60408 0.54875 0.87415 0.0
H287 H 0.59071 0.55967 0.84855 0.0
C288 C 0.6127 0.52612 0.65135 0.0
N289 N 0.59717 0.53177 0.6554 0.0
N290 N 0.59 0.5309 0.70791 0.0
C291 C 0.60052 0.52435 0.73859 0.0
C292 C 0.61537 0.52123 0.704 0.0
C293 C 0.62507 0.52584 0.59846 0.0
H294 H 0.61656 0.5195 0.56683 0.0
H295 H 0.62799 0.53468 0.57897 0.0
H296 H 0.63957 0.52321 0.608 0.0
O297 O 0.55563 0.53204 0.59369 0.0
O298 O 0.54388 0.53093 0.68254 0.0
H299 H 0.57888 0.51836 0.80384 0.0
H300 H 0.60109 0.51202 0.80677 0.0
C301 C 0.59535 0.52018 0.79805 0.0
H302 H 0.60224 0.52709 0.82955 0.0
H303 H 0.53564 0.52417 0.80165 0.0
O304 O 0.59543 0.53838 0.52242 0.0
C305 C 0.5413 0.52909 0.6288 0.0
Co306 Co 0.63583 0.70986 0.69219 0.0
Co307 Co 0.6199 0.70945 0.56539 0.0
C308 C 0.61729 0.68732 0.63234 0.0
O309 O 0.62595 0.69301 0.67552 0.0
O310 O 0.61366 0.69253 0.58705 0.0
C311 C 0.65386 0.70296 0.79459 0.0
O312 O 0.6545 0.69326 0.7649 0.0
C313 C 0.6195 0.70363 0.44192 0.0
C314 C 0.6073 0.71832 0.40554 0.0
C315 C 0.61531 0.70853 0.39043 0.0
N316 N 0.61471 0.71043 0.48525 0.0
N317 N 0.6071 0.71907 0.46321 0.0
C318 C 0.62733 0.69252 0.45044 0.0
H319 H 0.61728 0.68676 0.47995 0.0
H320 H 0.64235 0.69463 0.471 0.0
H321 H 0.62817 0.6876 0.40949 0.0
C322 C 0.67342 0.72156 0.63733 0.0
N323 N 0.65394 0.71635 0.63498 0.0
N324 N 0.64735 0.7164 0.58185 0.0
C325 C 0.66248 0.72186 0.54879 0.0
C326 C 0.67948 0.72524 0.58282 0.0
C327 C 0.68557 0.72336 0.69142 0.0
H328 H 0.67729 0.72737 0.72499 0.0
H329 H 0.6877 0.71466 0.70691 0.0
H330 H 0.70042 0.72911 0.68487 0.0
O331 O 0.61323 0.71833 0.69638 0.0
O332 O 0.60183 0.71829 0.6072 0.0
H333 H 0.64797 0.72781 0.47654 0.0
H334 H 0.67463 0.72887 0.46751 0.0
C335 C 0.66086 0.72351 0.48553 0.0
H336 H 0.6583 0.7148 0.46336 0.0
H337 H 0.60241 0.72571 0.48752 0.0
O338 O 0.6478 0.71139 0.77027 0.0
C339 C 0.60106 0.72114 0.6601 0.0
Co340 Co 0.31595 0.44909 0.43953 0.0
Co341 Co 0.3294 0.45318 0.31195 0.0
C342 C 0.32998 0.4303 0.37144 0.0
O343 O 0.32293 0.43377 0.41782 0.0
O344 O 0.3331 0.43695 0.32828 0.0
C345 C 0.29704 0.43849 0.54134 0.0
O346 O 0.29444 0.4286 0.51105 0.0
C347 C 0.3242 0.44841 0.18835 0.0
C348 C 0.34294 0.46428 0.15181 0.0
C349 C 0.33003 0.45385 0.13693 0.0
N350 N 0.33292 0.45545 0.2316 0.0
N351 N 0.34425 0.46486 0.20945 0.0
C352 C 0.31097 0.43661 0.19637 0.0
H353 H 0.29508 0.43762 0.19811 0.0
H354 H 0.31268 0.43051 0.16012 0.0
H355 H 0.31447 0.4327 0.23709 0.0
C356 C 0.27989 0.45685 0.39537 0.0
N357 N 0.29778 0.45368 0.38737 0.0
N358 N 0.30363 0.45583 0.33422 0.0
C359 C 0.28976 0.46065 0.30691 0.0
C360 C 0.27423 0.46139 0.34465 0.0
C361 C 0.26966 0.4567 0.45222 0.0
H362 H 0.27991 0.46213 0.48372 0.0
H363 H 0.26636 0.44754 0.46789 0.0
H364 H 0.25555 0.46015 0.44967 0.0
O365 O 0.34085 0.46118 0.44357 0.0
O366 O 0.35063 0.46442 0.35351 0.0
H367 H 0.30668 0.47068 0.24096 0.0
H368 H 0.27989 0.46983 0.23485 0.0
C369 C 0.29177 0.46494 0.24659 0.0
H370 H 0.29059 0.45729 0.21666 0.0
H371 H 0.35262 0.47177 0.23373 0.0
O372 O 0.30513 0.44808 0.51812 0.0
C373 C 0.35313 0.4665 0.40717 0.0
Co374 Co 0.41069 0.30094 0.41925 0.0
Co375 Co 0.39612 0.29749 0.29148 0.0
C376 C 0.39953 0.32074 0.35602 0.0
O377 O 0.40609 0.31685 0.40145 0.0
O378 O 0.39525 0.31416 0.31156 0.0
C379 C 0.43073 0.31047 0.52391 0.0
O380 O 0.43453 0.32046 0.49645 0.0
C381 C 0.40303 0.30185 0.16964 0.0
C382 C 0.37982 0.2882 0.12845 0.0
C383 C 0.39575 0.29726 0.11659 0.0
N384 N 0.39214 0.29564 0.21073 0.0
N385 N 0.3782 0.28755 0.18589 0.0
C386 C 0.4195 0.31225 0.18154 0.0
H387 H 0.43417 0.30939 0.18071 0.0
H388 H 0.41962 0.31903 0.14845 0.0
H389 H 0.41777 0.31614 0.22458 0.0
C390 C 0.44496 0.29162 0.37076 0.0
N391 N 0.42754 0.29542 0.36498 0.0
N392 N 0.421 0.29341 0.31189 0.0
C393 C 0.43384 0.28797 0.28251 0.0
C394 C 0.44957 0.28682 0.31857 0.0
C395 C 0.45664 0.29243 0.42557 0.0
H396 H 0.44858 0.28593 0.45598 0.0
H397 H 0.45772 0.30135 0.44522 0.0
H398 H 0.47195 0.29068 0.41843 0.0
O399 O 0.38441 0.29002 0.4214 0.0
O400 O 0.37375 0.28726 0.33118 0.0
H401 H 0.41341 0.27924 0.21771 0.0
H402 H 0.43742 0.27482 0.21804 0.0
C403 C 0.42972 0.2824 0.22405 0.0
H404 H 0.43532 0.28896 0.19102 0.0
H405 H 0.36774 0.2815 0.20813 0.0
O406 O 0.42165 0.3012 0.49792 0.0
C407 C 0.37131 0.28529 0.38452 0.0
Co408 Co 0.58246 0.0382 0.09431 0.0
Co409 Co 0.56816 0.03839 0.22212 0.0
C410 C 0.5813 0.06077 0.15706 0.0
O411 O 0.58491 0.05509 0.11226 0.0
O412 O 0.57486 0.05544 0.20261 0.0
C413 C 0.60545 0.04459 0.99241 0.0
O414 O 0.61345 0.05404 0.02265 0.0
C415 C 0.57392 0.0433 0.34563 0.0
C416 C 0.54978 0.02999 0.38242 0.0
C417 C 0.56604 0.03874 0.39718 0.0
N418 N 0.5631 0.03729 0.30248 0.0
N419 N 0.54853 0.02946 0.32478 0.0
C420 C 0.59094 0.05345 0.33699 0.0
H421 H 0.58631 0.05965 0.30652 0.0
H422 H 0.60384 0.05021 0.31774 0.0
H423 H 0.59565 0.05831 0.37773 0.0
C424 C 0.61113 0.0249 0.14456 0.0
N425 N 0.59593 0.0308 0.14932 0.0
N426 N 0.58954 0.03042 0.20268 0.0
C427 C 0.60024 0.02397 0.23332 0.0
C428 C 0.61434 0.02035 0.19756 0.0
C429 C 0.62165 0.02325 0.08955 0.0
H430 H 0.61044 0.01946 0.0563 0.0
H431 H 0.62952 0.03197 0.07461 0.0
H432 H 0.63261 0.01735 0.09456 0.0
O433 O 0.55384 0.03076 0.09113 0.0
O434 O 0.54321 0.03074 0.18108 0.0
H435 H 0.58102 0.01839 0.30438 0.0
H436 H 0.60551 0.01462 0.31005 0.0
C437 C 0.5972 0.02141 0.29574 0.0
H438 H 0.60266 0.02955 0.32137 0.0
H439 H 0.53807 0.02354 0.30061 0.0
O440 O 0.59282 0.03656 0.01592 0.0
C441 C 0.53993 0.02833 0.12795 0.0
Co442 Co 0.634 0.20989 0.18662 0.0
Co443 Co 0.61965 0.20899 0.05869 0.0
C444 C 0.61656 0.18704 0.12687 0.0
O445 O 0.62393 0.19297 0.17094 0.0
O446 O 0.61413 0.19206 0.07996 0.0
C447 C 0.65292 0.20334 0.2879 0.0
O448 O 0.65476 0.19396 0.25719 0.0
C449 C 0.62025 0.20343 0.93514 0.0
C450 C 0.60782 0.21804 0.89886 0.0
C451 C 0.6162 0.20839 0.88375 0.0
N452 N 0.61502 0.21006 0.97849 0.0
N453 N 0.60729 0.21865 0.9565 0.0
C454 C 0.62832 0.19239 0.94349 0.0
H455 H 0.61839 0.1866 0.97304 0.0
H456 H 0.64336 0.19458 0.96383 0.0
H457 H 0.62915 0.18748 0.90251 0.0
C458 C 0.67205 0.2218 0.13456 0.0
N459 N 0.65272 0.21635 0.13065 0.0
N460 N 0.6467 0.21627 0.07692 0.0
C461 C 0.66203 0.22188 0.045 0.0
C462 C 0.67859 0.2255 0.08045 0.0
C463 C 0.68359 0.2239 0.18968 0.0
H464 H 0.67468 0.22775 0.22221 0.0
H465 H 0.6861 0.21533 0.20585 0.0
H466 H 0.69826 0.2299 0.18418 0.0
O467 O 0.6115 0.21841 0.18886 0.0
O468 O 0.60074 0.21755 0.09877 0.0
H469 H 0.6481 0.22767 0.97128 0.0
H470 H 0.67488 0.22891 0.96452 0.0
C471 C 0.661 0.22348 0.98156 0.0
H472 H 0.65882 0.21476 0.95954 0.0
H473 H 0.60226 0.22517 0.98087 0.0
O474 O 0.64557 0.21144 0.26476 0.0
C475 C 0.59947 0.22079 0.15097 0.0
Co476 Co 0.31441 0.94702 0.94058 0.0
Co477 Co 0.32763 0.95299 0.81479 0.0
C478 C 0.32895 0.92935 0.867 0.0
O479 O 0.32165 0.93199 0.91466 0.0
O480 O 0.33193 0.93668 0.82646 0.0
C481 C 0.29667 0.93592 0.0438 0.0
O482 O 0.29476 0.92589 0.0149 0.0
C483 C 0.32061 0.9494 0.69206 0.0
C484 C 0.34127 0.96453 0.65549 0.0
C485 C 0.32683 0.95473 0.64063 0.0
N486 N 0.33067 0.95587 0.73509 0.0
N487 N 0.34305 0.96488 0.71303 0.0
C488 C 0.306 0.9381 0.7006 0.0
H489 H 0.29051 0.93983 0.69991 0.0
H490 H 0.30743 0.93162 0.66578 0.0
H491 H 0.30837 0.93432 0.74267 0.0
C492 C 0.27752 0.95443 0.89959 0.0
N493 N 0.29586 0.95194 0.89065 0.0
N494 N 0.30174 0.955 0.83846 0.0
C495 C 0.28749 0.9598 0.81292 0.0
C496 C 0.27157 0.95946 0.85052 0.0
C497 C 0.26623 0.95221 0.95456 0.0
H498 H 0.2734 0.95868 0.98776 0.0
H499 H 0.26695 0.94326 0.96952 0.0
H500 H 0.2503 0.95298 0.94934 0.0
O501 O 0.33919 0.95925 0.94681 0.0
O502 O 0.3486 0.964 0.85787 0.0
H503 H 0.30614 0.97041 0.75179 0.0
H504 H 0.28087 0.97302 0.75537 0.0
C505 C 0.29023 0.96615 0.75726 0.0
H506 H 0.28571 0.95977 0.72131 0.0
H507 H 0.35263 0.97129 0.73725 0.0
O508 O 0.30387 0.9455 0.01923 0.0
C509 C 0.35121 0.96528 0.9119 0.0
Co510 Co 0.40962 0.8017 0.916 0.0
Co511 Co 0.3976 0.79698 0.78727 0.0
C512 C 0.40093 0.82096 0.84219 0.0
O513 O 0.40633 0.81738 0.88992 0.0
O514 O 0.39713 0.81399 0.79888 0.0
C515 C 0.43269 0.8098 0.02216 0.0
O516 O 0.44623 0.81684 0.99246 0.0
C517 C 0.40239 0.7997 0.66363 0.0
C518 C 0.3884 0.78196 0.63073 0.0
C519 C 0.39903 0.7928 0.61408 0.0
N520 N 0.39433 0.79318 0.70779 0.0
N521 N 0.38558 0.78267 0.68772 0.0
C522 C 0.41535 0.81168 0.67027 0.0
H523 H 0.42259 0.81274 0.71322 0.0
H524 H 0.427 0.81317 0.6365 0.0
H525 H 0.40584 0.81844 0.66635 0.0
C526 C 0.44354 0.79038 0.87931 0.0
N527 N 0.42703 0.79487 0.86849 0.0
N528 N 0.4221 0.79303 0.81397 0.0
C529 C 0.43551 0.78743 0.78828 0.0
C530 C 0.44943 0.78552 0.82882 0.0
C531 C 0.45222 0.78966 0.93781 0.0
H532 H 0.44003 0.78759 0.96968 0.0
H533 H 0.46164 0.79831 0.94968 0.0
H534 H 0.46168 0.78283 0.9391 0.0
O535 O 0.38319 0.79122 0.91793 0.0
O536 O 0.37415 0.78758 0.82703 0.0
H537 H 0.42149 0.77732 0.71637 0.0
H538 H 0.44853 0.78037 0.71334 0.0
C539 C 0.43517 0.784 0.72597 0.0
H540 H 0.43495 0.79186 0.69993 0.0
H541 H 0.37863 0.77579 0.71336 0.0
O542 O 0.41801 0.80321 0.99691 0.0
C543 C 0.37067 0.78623 0.88036 0.0
H544 H 0.23462 0.45158 0.35241 0.0
H545 H 0.20591 0.46086 0.32939 0.0
H546 H 0.24655 0.49331 0.29251 0.0
H547 H 0.27513 0.48411 0.31595 0.0
H548 H 0.19571 0.48308 0.37689 0.0
H549 H 0.21187 0.48399 0.14324 0.0
H550 H 0.2218 0.47448 0.19154 0.0
H551 H 0.23281 0.48988 0.18919 0.0
C552 C 0.23729 0.46071 0.33982 0.0
C553 C 0.25694 0.46712 0.33495 0.0
C554 C 0.22099 0.46598 0.32667 0.0
C555 C 0.22421 0.47768 0.30834 0.0
C556 C 0.24383 0.4842 0.30561 0.0
H557 H 0.15498 0.5272 0.18618 0.0
H558 H 0.18093 0.51626 0.21421 0.0
C559 C 0.26007 0.47897 0.31896 0.0
C560 C 0.20718 0.48309 0.29094 0.0
H561 H 0.18719 0.49453 0.17572 0.0
C562 C 0.19368 0.48551 0.33289 0.0
C563 C 0.20469 0.48622 0.23349 0.0
C564 C 0.21844 0.48344 0.18653 0.0
C565 C 0.17807 0.49138 0.31917 0.0
C566 C 0.17573 0.49466 0.26175 0.0
C567 C 0.18905 0.49203 0.21969 0.0
C568 C 0.15994 0.50113 0.24455 0.0
C569 C 0.16469 0.4944 0.36656 0.0
C570 C 0.13957 0.49616 0.25135 0.0
C571 C 0.12481 0.50241 0.23548 0.0
C572 C 0.13022 0.51367 0.21228 0.0
C573 C 0.15054 0.51852 0.20414 0.0
C574 C 0.1653 0.5123 0.22017 0.0
H575 H 0.17149 0.49392 0.40959 0.0
H576 H 0.16146 0.50338 0.36136 0.0
H577 H 0.15024 0.48801 0.36497 0.0
H578 H 0.1351 0.48743 0.26872 0.0
H579 H 0.10916 0.49846 0.24124 0.0
H580 H 0.09494 0.73007 0.26349 0.0
H581 H 0.06927 0.74111 0.29264 0.0
H582 H 0.0448 0.73756 0.12107 0.0
H583 H 0.07068 0.72667 0.09103 0.0
H584 H 0.0492 0.76022 0.16573 0.0
H585 H 0.01014 0.72782 0.32009 0.0
H586 H 0.03653 0.73231 0.33372 0.0
H587 H 0.02803 0.72423 0.26876 0.0
C588 C 0.08407 0.73157 0.23189 0.0
C589 C 0.08483 0.72742 0.17492 0.0
C590 C 0.06933 0.73784 0.24878 0.0
C591 C 0.05495 0.73998 0.20926 0.0
C592 C 0.05572 0.73594 0.15229 0.0
H593 H 0.94358 0.76299 0.27851 0.0
H594 H 0.97016 0.7521 0.25439 0.0
C595 C 0.07051 0.7297 0.13525 0.0
C596 C 0.03936 0.74667 0.22701 0.0
H597 H 0.00042 0.74649 0.31955 0.0
C598 C 0.0385 0.75722 0.19928 0.0
C599 C 0.02532 0.74265 0.2704 0.0
C600 C 0.02486 0.73108 0.29965 0.0
C601 C 0.02402 0.76393 0.21404 0.0
C602 C 0.01033 0.76008 0.25852 0.0
C603 C 0.01111 0.74948 0.28596 0.0
C604 C 0.99445 0.76663 0.27532 0.0
C605 C 0.02322 0.77491 0.1809 0.0
C606 C -0.00068 0.77831 0.2963 0.0
C607 C 0.98414 0.78456 0.30953 0.0
C608 C 0.96396 0.77917 0.30224 0.0
C609 C 0.9591 0.76736 0.28347 0.0
C610 C 0.97423 0.76114 0.27 0.0
H611 H 0.03132 0.77501 0.13948 0.0
H612 H 0.00748 0.7757 0.17204 0.0
H613 H 0.03042 0.78277 0.20667 0.0
H614 H 0.01483 0.78262 0.30201 0.0
H615 H 0.98815 0.79365 0.32448 0.0
H616 H 0.33703 0.77738 0.81623 0.0
H617 H 0.30454 0.76701 0.85135 0.0
H618 H 0.32859 0.76847 0.02311 0.0
H619 H 0.36085 0.77897 0.98892 0.0
H620 H 0.29341 0.74596 0.90915 0.0
H621 H 0.27975 0.78386 0.04272 0.0
H622 H 0.29921 0.78525 0.98929 0.0
H623 H 0.30311 0.77951 0.05865 0.0
C624 C 0.33542 0.77544 0.86142 0.0
C625 C 0.35146 0.77913 0.89986 0.0
C626 C 0.31686 0.76953 0.88139 0.0
C627 C 0.31407 0.76722 0.94001 0.0
C628 C 0.33029 0.77045 0.97797 0.0
H629 H 0.21519 0.71924 0.09641 0.0
H630 H 0.24818 0.72913 0.06201 0.0
C631 C 0.34875 0.7764 0.95821 0.0
C632 C 0.2942 0.76155 0.96186 0.0
H633 H 0.2577 0.76552 0.05662 0.0
C634 C 0.28554 0.75024 0.94122 0.0
C635 C 0.28386 0.76724 0.00309 0.0
C636 C 0.29184 0.77968 0.02436 0.0
C637 C 0.26694 0.74435 0.96156 0.0
C638 C 0.257 0.74985 0.00449 0.0
C639 C 0.2655 0.76126 0.02431 0.0
C640 C 0.23743 0.7441 0.02812 0.0
C641 C 0.25795 0.73239 0.93614 0.0
C642 C 0.22071 0.7495 0.02282 0.0
C643 C 0.20204 0.74397 0.0432 0.0
C644 C 0.19981 0.73294 0.06894 0.0
C645 C 0.21664 0.72773 0.07631 0.0
C646 C 0.23536 0.7333 0.05616 0.0
H647 H 0.26471 0.73083 0.89398 0.0
H648 H 0.26078 0.72545 0.96556 0.0
H649 H 0.24149 0.73142 0.9304 0.0
H650 H 0.22204 0.7579 0.0019 0.0
H651 H 0.18925 0.74819 0.03792 0.0
H652 H 0.88369 0.47833 0.85987 0.0
H653 H 0.91433 0.49033 0.9004 0.0
H654 H 0.89004 0.48495 0.07064 0.0
H655 H 0.85951 0.47283 0.03089 0.0
H656 H 0.92089 0.51091 0.97199 0.0
H657 H 0.94287 0.47272 0.07907 0.0
H658 H 0.92352 0.47098 0.02478 0.0
H659 H 0.91831 0.47524 0.0969 0.0
C660 C 0.88478 0.47976 0.9059 0.0
C661 C 0.86923 0.47449 0.94216 0.0
C662 C 0.9023 0.48663 0.92895 0.0
C663 C 0.90456 0.48832 0.98853 0.0
C664 C 0.88874 0.48353 0.02462 0.0
H665 H 0.0076 0.52147 0.19739 0.0
H666 H 0.97374 0.51231 0.16531 0.0
C667 C 0.87127 0.47664 0.00172 0.0
C668 C 0.92372 0.49478 0.013 0.0
H669 H 0.96341 0.49137 0.09654 0.0
C670 C 0.9302 0.50666 -0.00072 0.0
C671 C 0.93576 0.48919 0.04866 0.0
C672 C 0.92991 0.4763 0.06294 0.0
C673 C 0.94846 0.51312 0.02042 0.0
C674 C 0.96061 0.50747 0.05542 0.0
C675 C 0.95398 0.49566 0.06988 0.0
C676 C 0.98077 0.51346 0.0749 0.0
C677 C 0.95457 0.52594 0.00541 0.0
C678 C 0.9959 0.51699 0.03463 0.0
C679 C 0.01522 0.52216 0.05268 0.0
C680 C 0.0198 0.52386 0.11149 0.0
C681 C 0.00456 0.52031 0.15181 0.0
C682 C 0.98522 0.51509 0.13361 0.0
H683 H 0.94149 0.52971 0.99181 0.0
H684 H 0.96202 0.53123 0.0424 0.0
H685 H 0.96535 0.52675 0.96933 0.0
H686 H 0.99285 0.51558 0.98915 0.0
H687 H 0.02657 0.52476 0.02042 0.0
H688 H 0.73358 0.45031 0.84751 0.0
H689 H 0.7051 0.45969 0.82344 0.0
H690 H 0.74526 0.49337 0.81407 0.0
H691 H 0.77363 0.48399 0.83758 0.0
H692 H 0.69029 0.47848 0.87641 0.0
H693 H 0.71754 0.48936 0.65618 0.0
H694 H 0.72742 0.4791 0.70009 0.0
H695 H 0.7357 0.49472 0.71118 0.0
C696 C 0.73617 0.45972 0.84064 0.0
C697 C 0.75565 0.46646 0.84344 0.0
C698 C 0.71999 0.46505 0.8269 0.0
C699 C 0.72318 0.47717 0.8158 0.0
C700 C 0.74257 0.48397 0.82116 0.0
H701 H 0.63993 0.52469 0.79722 0.0
H702 H 0.66509 0.51321 0.82484 0.0
C703 C 0.7587 0.47864 0.83477 0.0
C704 C 0.70635 0.48272 0.7977 0.0
H705 H 0.69071 0.49826 0.68937 0.0
C706 C 0.69028 0.48275 0.8354 0.0
C707 C 0.70624 0.48809 0.74375 0.0
C708 C 0.72254 0.48774 0.70017 0.0
C709 C 0.67439 0.48835 0.82128 0.0
C710 C 0.67479 0.49422 0.76848 0.0
C711 C 0.69054 0.49386 0.73007 0.0
C712 C 0.65922 0.50097 0.75254 0.0
C713 C 0.65726 0.48788 0.86283 0.0
C714 C 0.64794 0.49808 0.70199 0.0
C715 C 0.63367 0.50467 0.68603 0.0
C716 C 0.63056 0.51428 0.72024 0.0
C717 C 0.64192 0.51721 0.77057 0.0
C718 C 0.6562 0.51064 0.78647 0.0
H719 H 0.65629 0.48038 0.89239 0.0
H720 H 0.65967 0.49614 0.8892 0.0
H721 H 0.64273 0.48707 0.83982 0.0
H722 H 0.65013 0.49068 0.67507 0.0
H723 H 0.62494 0.5022 0.64729 0.0
H724 H 0.0941 0.22925 0.76425 0.0
H725 H 0.06838 0.24019 0.79418 0.0
H726 H 0.04477 0.23773 0.62171 0.0
H727 H 0.07069 0.22693 0.59092 0.0
H728 H 0.04918 0.26015 0.66941 0.0
H729 H 0.00903 0.22694 0.81835 0.0
H730 H 0.03537 0.23124 0.83321 0.0
H731 H 0.0271 0.22358 0.76703 0.0
C732 C 0.0834 0.23097 0.73262 0.0
C733 C 0.08441 0.22715 0.67518 0.0
C734 C 0.06864 0.23718 0.74994 0.0
C735 C 0.05448 0.2396 0.71038 0.0
C736 C 0.05551 0.23589 0.65297 0.0
H737 H 0.94334 0.26294 0.77974 0.0
H738 H 0.96974 0.25198 0.75461 0.0
C739 C 0.07032 0.22971 0.63549 0.0
C740 C 0.0389 0.24625 0.72859 0.0
H741 H -0.00042 0.2457 0.82015 0.0
C742 C 0.0383 0.25699 0.70229 0.0
C743 C 0.02462 0.24203 0.77107 0.0
C744 C 0.02388 0.23026 0.79872 0.0
C745 C 0.02388 0.26369 0.71766 0.0
C746 C 0.00996 0.25964 0.76128 0.0
C747 C 0.01045 0.24885 0.78723 0.0
C748 C 0.99417 0.2662 0.77874 0.0
C749 C 0.02339 0.27491 0.68609 0.0
C750 C -0.00083 0.27771 0.8018 0.0
C751 C 0.9841 0.28399 0.8157 0.0
C752 C 0.96389 0.27881 0.80694 0.0
C753 C 0.95889 0.26715 0.78594 0.0
C754 C 0.97391 0.26089 0.77187 0.0
H755 H 0.0317 0.27524 0.64496 0.0
H756 H 0.00772 0.27581 0.67693 0.0
H757 H 0.03052 0.28258 0.71315 0.0
H758 H 0.0147 0.28187 0.80863 0.0
H759 H 0.98822 0.29296 0.83228 0.0
H760 H 0.68807 0.24664 0.02835 0.0
H761 H 0.7211 0.25635 0.99394 0.0
H762 H 0.74732 0.22836 0.06263 0.0
H763 H 0.71415 0.21848 0.09573 0.0
H764 H 0.75634 0.26449 0.05301 0.0
H765 H 0.76544 0.22932 0.89508 0.0
H766 H 0.74174 0.23004 0.9285 0.0
H767 H 0.76055 0.22426 0.96692 0.0
C768 C 0.70093 0.24258 0.03583 0.0
C769 C 0.69868 0.23178 0.0638 0.0
C770 C 0.71973 0.24812 0.01639 0.0
C771 C 0.73656 0.24294 0.02472 0.0
C772 C 0.73444 0.23235 0.0546 0.0
H773 H 0.86025 0.2783 0.98964 0.0
H774 H 0.82802 0.26768 0.02367 0.0
C775 C 0.7156 0.22679 0.07393 0.0
C776 C 0.75631 0.24871 0.00236 0.0
H777 H 0.79366 0.24471 0.9105 0.0
C778 C 0.76451 0.26018 0.02183 0.0
C779 C 0.76674 0.24312 0.96095 0.0
C780 C 0.75812 0.23105 0.93613 0.0
C781 C 0.78303 0.26617 0.00165 0.0
C782 C 0.79379 0.26043 0.96176 0.0
C783 C 0.78546 0.24903 0.94156 0.0
C784 C 0.81367 0.26619 0.94028 0.0
C785 C 0.79073 0.27868 0.02243 0.0
C786 C 0.81652 0.26844 0.88166 0.0
C787 C 0.83503 0.27443 0.86183 0.0
C788 C 0.851 0.27825 0.9004 0.0
C789 C 0.84824 0.2756 0.95881 0.0
C790 C 0.82978 0.26958 0.97847 0.0
H791 H 0.77851 0.2828 0.04034 0.0
H792 H 0.802 0.27866 0.05688 0.0
H793 H 0.79805 0.28421 0.98716 0.0
H794 H 0.80428 0.2658 0.85146 0.0
H795 H 0.83666 0.2763 0.81658 0.0
H796 H 0.24567 0.95549 0.76048 0.0
H797 H 0.21776 0.96553 0.74049 0.0
H798 H 0.22931 0.98518 0.90016 0.0
H799 H 0.2574 0.97526 0.91989 0.0
H800 H 0.18242 0.96747 0.80997 0.0
H801 H 0.23333 0.01039 0.77226 0.0
H802 H 0.24205 0.99658 0.77189 0.0
H803 H 0.23687 0.00339 0.83863 0.0
C804 C 0.24209 0.96188 0.79143 0.0
C805 C 0.25357 0.96463 0.84167 0.0
C806 C 0.22618 0.96758 0.78008 0.0
C807 C 0.22166 0.97616 0.8186 0.0
C808 C 0.23272 0.97865 0.86972 0.0
H809 H 0.14054 0.02553 0.7962 0.0
H810 H 0.16543 0.01409 0.82653 0.0
C811 C 0.2486 0.97292 0.88117 0.0
C812 C 0.20586 0.98281 0.8041 0.0
H813 H 0.1986 0.01013 0.76754 0.0
C814 C 0.1859 0.97679 0.80071 0.0
C815 C 0.21054 0.99497 0.79209 0.0
C816 C 0.23186 0.00174 0.79339 0.0
C817 C 0.17038 0.98267 0.78618 0.0
C818 C 0.17508 0.9948 0.77349 0.0
C819 C 0.19505 0.00082 0.77727 0.0
C820 C 0.15956 0.00145 0.75585 0.0
C821 C 0.14907 0.97588 0.78555 0.0
C822 C 0.14815 0.9982 0.70582 0.0
C823 C 0.13386 0.00468 0.68871 0.0
C824 C 0.13093 0.01458 0.72104 0.0
C825 C 0.14244 0.01787 0.77084 0.0
C826 C 0.15667 0.01138 0.78803 0.0
H827 H 0.14746 0.96777 0.81126 0.0
H828 H 0.13859 0.98139 0.80253 0.0
H829 H 0.14459 0.97319 0.74074 0.0
H830 H 0.15043 0.99071 0.67974 0.0
H831 H 0.12502 0.00191 0.65043 0.0
H832 H 0.19037 0.24772 0.53968 0.0
H833 H 0.22365 0.25711 0.50577 0.0
H834 H 0.24815 0.22782 0.56701 0.0
H835 H 0.21469 0.21827 0.59941 0.0
H836 H 0.25919 0.26415 0.56368 0.0
H837 H 0.26577 0.22964 0.3995 0.0
H838 H 0.24241 0.23053 0.4345 0.0
H839 H 0.26103 0.22417 0.4707 0.0
C840 C 0.2029 0.24331 0.54563 0.0
C841 C 0.20008 0.23224 0.5712 0.0
C842 C 0.22186 0.24866 0.52649 0.0
C843 C 0.23827 0.24303 0.5328 0.0
C844 C 0.23559 0.23217 0.56049 0.0
H845 H 0.36257 0.2775 0.49311 0.0
H846 H 0.33061 0.26679 0.52866 0.0
C847 C 0.21659 0.22679 0.57944 0.0
C848 C 0.25814 0.2486 0.51046 0.0
H849 H 0.29457 0.24458 0.41541 0.0
C850 C 0.26694 0.25987 0.53129 0.0
C851 C 0.26804 0.24307 0.46751 0.0
C852 C 0.25878 0.23123 0.44125 0.0
C853 C 0.2855 0.26575 0.51075 0.0
C854 C 0.29569 0.26007 0.46911 0.0
C855 C 0.2868 0.24884 0.44778 0.0
C856 C 0.31546 0.26576 0.44656 0.0
C857 C 0.29379 0.27808 0.53289 0.0
C858 C 0.31777 0.26827 0.38805 0.0
C859 C 0.33612 0.2743 0.36733 0.0
C860 C 0.35245 0.27793 0.40488 0.0
C861 C 0.35025 0.27497 0.46309 0.0
C862 C 0.33196 0.2689 0.48362 0.0
H863 H 0.28192 0.28227 0.55254 0.0
H864 H 0.30528 0.27772 0.56631 0.0
H865 H 0.30099 0.28375 0.49795 0.0
H866 H 0.30523 0.26584 0.35869 0.0
H867 H 0.33731 0.27641 0.32226 0.0
H868 H 0.8603 0.97116 0.53372 0.0
H869 H 0.89104 0.98323 0.57267 0.0
H870 H 0.91452 0.98872 0.40154 0.0
H871 H 0.88371 0.97684 0.36199 0.0
H872 H 0.9289 0.97855 0.56189 0.0
H873 H 0.92569 0.02198 0.46975 0.0
H874 H 0.9042 0.01008 0.47113 0.0
H875 H 0.92306 0.01028 0.41686 0.0
C876 C 0.87188 0.97505 0.50422 0.0
C877 C 0.86952 0.97303 0.44466 0.0
C878 C 0.88945 0.98194 0.52662 0.0
C879 C 0.90494 0.98699 0.48998 0.0
C880 C 0.90256 0.98513 0.43051 0.0
H881 H 0.02796 0.02185 0.52203 0.0
H882 H 0.99449 0.012 0.49112 0.0
C883 C 0.88497 0.97826 0.40801 0.0
C884 C 0.92412 0.99354 0.51411 0.0
H885 H 0.95715 0.01977 0.50954 0.0
C886 C 0.93499 0.98761 0.55099 0.0
C887 C 0.932 0.00534 0.49975 0.0
C888 C 0.92055 0.01234 0.46265 0.0
C889 C 0.95386 0.99305 0.57247 0.0
C890 C 0.9619 0.00477 0.55712 0.0
C891 C 0.95092 0.01077 0.52102 0.0
C892 C 0.98203 0.01082 0.57657 0.0
C893 C 0.96532 0.98612 0.60988 0.0
C894 C 0.98601 0.01349 0.63488 0.0
C895 C 0.00515 0.01912 0.65283 0.0
C896 C 0.02061 0.0222 0.61265 0.0
C897 C 0.01645 0.01957 0.55418 0.0
C898 C 0.99732 0.01397 0.53635 0.0
H899 H 0.95888 0.97653 0.60808 0.0
H900 H 0.9813 0.98744 0.59682 0.0
H901 H 0.96481 0.98925 0.65505 0.0
H902 H 0.97429 0.01126 0.66645 0.0
H903 H 0.00781 0.02105 0.69813 0.0
H904 H 0.60861 0.99809 0.2386 0.0
H905 H 0.63448 0.98729 0.2696 0.0
H906 H 0.6805 0.01659 0.2215 0.0
H907 H 0.65465 0.02742 0.19105 0.0
H908 H 0.66731 0.98125 0.20383 0.0
H909 H 0.69297 0.01053 0.39195 0.0
H910 H 0.6692 0.01024 0.35665 0.0
H911 H 0.69198 0.018 0.32546 0.0
C912 C 0.62428 0.00218 0.23483 0.0
C913 C 0.62978 0.01358 0.21318 0.0
C914 C 0.63898 0.99603 0.25235 0.0
C915 C 0.65934 0.00124 0.24869 0.0
C916 C 0.66484 0.01252 0.22559 0.0
H917 H 0.7736 0.98374 0.32169 0.0
H918 H 0.74494 0.99289 0.29891 0.0
C919 C 0.65014 0.01864 0.2079 0.0
C920 C 0.6749 0.99489 0.26872 0.0
H921 H 0.71293 0.9965 0.36596 0.0
C922 C 0.6772 0.9845 0.23956 0.0
C923 C 0.68768 0.99917 0.31543 0.0
C924 C 0.6853 0.01004 0.34962 0.0
C925 C 0.69251 0.9785 0.25457 0.0
C926 C 0.70553 0.9829 0.30073 0.0
C927 C 0.70293 0.99316 0.3306 0.0
C928 C 0.72262 0.97736 0.31676 0.0
C929 C 0.69508 0.96777 0.21953 0.0
C930 C 0.71953 0.96568 0.33553 0.0
C931 C 0.73591 0.96043 0.34813 0.0
C932 C 0.75552 0.96682 0.34237 0.0
C933 C 0.75856 0.97862 0.32561 0.0
C934 C 0.74224 0.98384 0.31286 0.0
H935 H 0.6869 0.96716 0.17797 0.0
H936 H 0.71118 0.96788 0.21077 0.0
H937 H 0.68909 0.95972 0.24389 0.0
H938 H 0.70449 0.96061 0.34001 0.0
H939 H 0.73329 0.95133 0.36134 0.0
H940 H 0.68916 0.74635 0.53067 0.0
H941 H 0.72205 0.75574 0.49406 0.0
H942 H 0.74785 0.72728 0.5594 0.0
H943 H 0.71477 0.71771 0.59456 0.0
H944 H 0.75754 0.76352 0.55091 0.0
H945 H 0.76521 0.72832 0.39159 0.0
H946 H 0.74177 0.72912 0.42639 0.0
H947 H 0.76074 0.72322 0.46351 0.0
C948 C 0.70189 0.74211 0.53687 0.0
C949 C 0.69954 0.73128 0.56456 0.0
C950 C 0.72062 0.74747 0.51617 0.0
C951 C 0.73728 0.74208 0.52299 0.0
C952 C 0.73507 0.73143 0.55247 0.0
H953 H 0.86092 0.77711 0.48326 0.0
H954 H 0.82895 0.7663 0.51816 0.0
C955 C 0.7163 0.72605 0.57301 0.0
C956 C 0.75699 0.74773 0.49984 0.0
H957 H 0.79373 0.74358 0.40611 0.0
C958 C 0.76545 0.75917 0.51923 0.0
C959 C 0.7671 0.74209 0.45782 0.0
C960 C 0.75819 0.73006 0.43311 0.0
C961 C 0.78391 0.76508 0.4983 0.0
C962 C 0.79435 0.7593 0.45775 0.0
C963 C 0.78576 0.74792 0.43768 0.0
C964 C 0.81415 0.765 0.43548 0.0
C965 C 0.79187 0.77756 0.51901 0.0
C966 C 0.81666 0.76738 0.37689 0.0
C967 C 0.83501 0.77349 0.35654 0.0
C968 C 0.85115 0.7773 0.39457 0.0
C969 C 0.84876 0.77444 0.45286 0.0
C970 C 0.83047 0.76831 0.47301 0.0
H971 H 0.77984 0.78173 0.53772 0.0
H972 H 0.80334 0.77748 0.55284 0.0
H973 H 0.79903 0.78309 0.48351 0.0
H974 H 0.80425 0.76481 0.34718 0.0
H975 H 0.83636 0.7755 0.3114 0.0
H976 H 0.44579 0.76318 0.78638 0.0
H977 H 0.47273 0.75245 0.76473 0.0
H978 H 0.51625 0.78176 0.83198 0.0
H979 H 0.4892 0.79263 0.85278 0.0
H980 H 0.52571 0.7737 0.72307 0.0
H981 H 0.50652 0.73664 0.87289 0.0
H982 H 0.48583 0.73868 0.82884 0.0
H983 H 0.49651 0.74998 0.88013 0.0
C984 C 0.46111 0.76727 0.79684 0.0
C985 C 0.46556 0.77872 0.82074 0.0
C986 C 0.47644 0.76112 0.78492 0.0
C987 C 0.49645 0.76627 0.79728 0.0
C988 C 0.50088 0.77762 0.82236 0.0
H989 H 0.59571 0.72901 0.76924 0.0
H990 H 0.57106 0.74041 0.8026 0.0
C991 C 0.48549 0.78379 0.83438 0.0
C992 C 0.51274 0.76003 0.78073 0.0
H993 H 0.52968 0.73437 0.7984 0.0
C994 C 0.52671 0.76515 0.73988 0.0
C995 C 0.51407 0.74892 0.80309 0.0
C996 C 0.50005 0.74327 0.84908 0.0
C997 C 0.54171 0.7593 0.71961 0.0
C998 C 0.5425 0.74797 0.74017 0.0
C999 C 0.52887 0.743 0.78219 0.0
C1000 C 0.55751 0.74117 0.71915 0.0
C1001 C 0.55664 0.76534 0.67671 0.0
C1002 C 0.55791 0.73771 0.66116 0.0
C1003 C 0.57204 0.73119 0.64177 0.0
C1004 C 0.58592 0.72796 0.68019 0.0
C1005 C 0.58528 0.73136 0.73838 0.0
C1006 C 0.5712 0.73787 0.75763 0.0
H1007 H 0.55726 0.77502 0.67686 0.0
H1008 H 0.57189 0.76368 0.68569 0.0
H1009 H 0.55213 0.76182 0.63305 0.0
H1010 H 0.5472 0.73997 0.63098 0.0
H1011 H 0.57203 0.72868 0.59677 0.0
H1012 H 0.50684 0.52173 0.68966 0.0
H1013 H 0.47397 0.51222 0.65207 0.0
H1014 H 0.49756 0.51402 0.48022 0.0
H1015 H 0.5304 0.52366 0.51706 0.0
H1016 H 0.46008 0.52111 0.49075 0.0
H1017 H 0.45992 0.47794 0.59159 0.0
H1018 H 0.4643 0.49042 0.64031 0.0
H1019 H 0.48236 0.48908 0.58554 0.0
C1020 C 0.50507 0.5201 0.64386 0.0
C1021 C 0.52131 0.5234 0.60643 0.0
C1022 C 0.48629 0.51463 0.62252 0.0
C1023 C 0.48345 0.51229 0.5635 0.0
C1024 C 0.4995 0.51573 0.52595 0.0
H1025 H 0.3855 0.47737 0.34519 0.0
H1026 H 0.41665 0.48937 0.38259 0.0
C1027 C 0.51826 0.5212 0.54717 0.0
C1028 C 0.46377 0.50621 0.54076 0.0
H1029 H 0.43014 0.48022 0.54445 0.0
C1030 C 0.45351 0.51217 0.50235 0.0
C1031 C 0.45532 0.49454 0.556 0.0
C1032 C 0.46608 0.48755 0.59522 0.0
C1033 C 0.43479 0.50681 0.47938 0.0
C1034 C 0.42636 0.49514 0.4946 0.0
C1035 C 0.43664 0.4892 0.53305 0.0
C1036 C 0.40695 0.4888 0.47105 0.0
C1037 C 0.42406 0.51374 0.43988 0.0
C1038 C 0.39124 0.48447 0.5084 0.0
C1039 C 0.37352 0.47755 0.48731 0.0
C1040 C 0.37119 0.47476 0.42836 0.0
C1041 C 0.38677 0.47939 0.39077 0.0
C1042 C 0.40455 0.4863 0.41201 0.0
H1043 H 0.42988 0.52338 0.44445 0.0
H1044 H 0.42635 0.51106 0.3948 0.0
H1045 H 0.40769 0.51198 0.44838 0.0
H1046 H 0.39283 0.48628 0.55412 0.0
H1047 H 0.36182 0.47418 0.51751 0.0
H1048 H 0.47505 0.29084 0.22866 0.0
H1049 H 0.501 0.27973 0.20062 0.0
H1050 H 0.48735 0.25797 0.34886 0.0
H1051 H 0.46123 0.26901 0.37672 0.0
H1052 H 0.53542 0.27558 0.26704 0.0
H1053 H 0.48123 0.23468 0.20657 0.0
H1054 H 0.47398 0.24888 0.21405 0.0
H1055 H 0.47804 0.24084 0.27665 0.0
C1056 C 0.47772 0.28373 0.25534 0.0
C1057 C 0.46628 0.28076 0.30482 0.0
C1058 C 0.49251 0.27742 0.23938 0.0
C1059 C 0.49589 0.26798 0.27239 0.0
C1060 C 0.48478 0.26517 0.3226 0.0
H1061 H 0.59392 0.23018 0.25691 0.0
H1062 H 0.56887 0.24175 0.28505 0.0
C1063 C 0.47005 0.27152 0.33873 0.0
C1064 C 0.51086 0.26097 0.25365 0.0
H1065 H 0.51568 0.23368 0.2039 0.0
C1066 C 0.53115 0.26642 0.25323 0.0
C1067 C 0.50512 0.24909 0.23493 0.0
C1068 C 0.4834 0.243 0.2325 0.0
C1069 C 0.54597 0.2602 0.23547 0.0
C1070 C 0.54028 0.24823 0.21813 0.0
C1071 C 0.51995 0.24284 0.21758 0.0
C1072 C 0.55528 0.24112 0.20087 0.0
C1073 C 0.56757 0.2665 0.23476 0.0
C1074 C 0.55562 0.23672 0.14444 0.0
C1075 C 0.56993 0.23007 0.12807 0.0
C1076 C 0.58401 0.22763 0.1681 0.0
C1077 C 0.58336 0.23192 0.22488 0.0
C1078 C 0.56912 0.23859 0.24106 0.0
H1079 H 0.56892 0.27624 0.23661 0.0
H1080 H 0.57549 0.26389 0.2726 0.0
H1081 H 0.57524 0.26404 0.19561 0.0
H1082 H 0.54495 0.23854 0.11293 0.0
H1083 H 0.56997 0.22688 0.08407 0.0
H1084 H 0.36041 0.97117 0.02426 0.0
H1085 H 0.39139 0.98303 0.06282 0.0
H1086 H 0.41372 0.98955 0.89118 0.0
H1087 H 0.3828 0.97762 0.85193 0.0
H1088 H 0.43969 0.98046 0.9677 0.0
H1089 H 0.41278 0.01906 0.06292 0.0
H1090 H 0.39883 0.00487 0.08233 0.0
H1091 H 0.39866 0.00942 0.00918 0.0
C1092 C 0.37178 0.97524 0.99455 0.0
C1093 C 0.36913 0.97341 0.93493 0.0
C1094 C 0.38942 0.98208 0.01674 0.0
C1095 C 0.40472 0.98724 0.97981 0.0
C1096 C 0.402 0.98567 0.92031 0.0
H1097 H 0.52714 0.02377 0.01741 0.0
H1098 H 0.49414 0.01389 0.98373 0.0
C1099 C 0.38431 0.97886 0.898 0.0
C1100 C 0.42416 0.9935 0.00335 0.0
H1101 H 0.44634 0.0175 0.08366 0.0
C1102 C 0.44119 0.98859 0.99281 0.0
C1103 C 0.42594 0.004 0.0367 0.0
C1104 C 0.40813 0.00973 0.04823 0.0
C1105 C 0.46 0.99389 0.015 0.0
C1106 C 0.46189 0.00452 0.04752 0.0
C1107 C 0.44482 0.00936 0.05866 0.0
C1108 C 0.48162 0.0109 0.06861 0.0
C1109 C 0.47764 0.98795 0.00421 0.0
C1110 C 0.48532 0.01285 0.12758 0.0
C1111 C 0.50422 0.01861 0.14718 0.0
C1112 C 0.51968 0.02252 0.10799 0.0
C1113 C 0.51569 0.02076 0.04889 0.0
C1114 C 0.49684 0.01507 0.02946 0.0
H1115 H 0.47272 0.97843 0.9933 0.0
H1116 H 0.48638 0.99217 0.96749 0.0
H1117 H 0.4877 0.98884 0.04225 0.0
H1118 H 0.47369 0.00976 0.15843 0.0
H1119 H 0.50676 0.01986 0.19294 0.0
H1120 H 0.10674 0.54358 0.43281 0.0
H1121 H 0.11959 0.54635 0.53122 0.0
H1122 H 0.05909 0.54215 0.59463 0.0
H1123 H 0.04619 0.53982 0.49614 0.0
H1124 H 0.08591 0.56076 0.64817 0.0
H1125 H 0.11542 0.51903 0.64297 0.0
H1126 H 0.12455 0.52939 0.58819 0.0
H1127 H 0.09854 0.52245 0.58884 0.0
C1128 C 0.09622 0.54361 0.46761 0.0
C1129 C 0.07548 0.54178 0.45687 0.0
C1130 C 0.10357 0.54499 0.52383 0.0
C1131 C 0.09027 0.54436 0.57011 0.0
C1132 C 0.06959 0.54269 0.55941 0.0
H1133 H 0.08935 0.52705 0.91829 0.0
H1134 H 0.08956 0.52778 0.81393 0.0
C1135 C 0.06224 0.54134 0.50327 0.0
C1136 C 0.09766 0.54508 0.63 0.0
H1137 H 0.11906 0.53004 0.72959 0.0
C1138 C 0.09338 0.55414 0.66596 0.0
C1139 C 0.10728 0.53636 0.65286 0.0
C1140 C 0.11162 0.52619 0.6165 0.0
C1141 C 0.09786 0.55451 0.72477 0.0
C1142 C 0.1072 0.54569 0.74786 0.0
C1143 C 0.11208 0.53684 0.71152 0.0
C1144 C 0.10971 0.54469 0.81047 0.0
C1145 C 0.09155 0.56397 0.76215 0.0
C1146 C 0.12164 0.55374 0.84301 0.0
C1147 C 0.12147 0.55339 0.90294 0.0
C1148 C 0.10943 0.54394 0.93104 0.0
C1149 C 0.09863 0.53451 0.89804 0.0
C1150 C 0.09877 0.53489 0.83833 0.0
H1151 H 0.08128 0.56875 0.7393 0.0
H1152 H 0.08395 0.56012 0.80141 0.0
H1153 H 0.10503 0.57049 0.7756 0.0
H1154 H 0.1305 0.56126 0.82215 0.0
H1155 H 0.13009 0.56074 0.92714 0.0
H1156 H 0.12663 0.72598 0.80433 0.0
H1157 H 0.13678 0.7227 0.70597 0.0
H1158 H 0.13226 0.68568 0.7382 0.0
H1159 H 0.12118 0.68879 0.83619 0.0
H1160 H 0.16971 0.71392 0.66631 0.0
H1161 H 0.09797 0.68551 0.59452 0.0
H1162 H 0.10013 0.69399 0.66084 0.0
H1163 H 0.10963 0.68052 0.65607 0.0
C1164 C 0.12766 0.71711 0.79049 0.0
C1165 C 0.12335 0.70767 0.82843 0.0
C1166 C 0.1336 0.71528 0.73435 0.0
C1167 C 0.13523 0.70395 0.71474 0.0
C1168 C 0.13095 0.69448 0.75237 0.0
H1169 H 0.15656 0.68398 0.35911 0.0
H1170 H 0.15584 0.6835 0.46397 0.0
C1171 C 0.12491 0.69631 0.80868 0.0
C1172 C 0.14119 0.70221 0.65457 0.0
H1173 H 0.12361 0.68964 0.52621 0.0
C1174 C 0.15972 0.70853 0.63574 0.0
C1175 C 0.12815 0.69514 0.61488 0.0
C1176 C 0.10778 0.68846 0.63224 0.0
C1177 C 0.16533 0.7082 0.57792 0.0
C1178 C 0.15197 0.70147 0.53796 0.0
C1179 C 0.13383 0.69477 0.55713 0.0
C1180 C 0.15556 0.70208 0.47541 0.0
C1181 C 0.18537 0.71516 0.55992 0.0
C1182 C 0.156 0.71274 0.44727 0.0
C1183 C 0.15633 0.71305 0.38744 0.0
C1184 C 0.15616 0.70268 0.35467 0.0
C1185 C 0.15674 0.69213 0.38308 0.0
C1186 C 0.15629 0.69182 0.44298 0.0
H1187 H 0.19605 0.71691 0.5966 0.0
H1188 H 0.19207 0.71046 0.52527 0.0
H1189 H 0.18329 0.72379 0.5434 0.0
H1190 H 0.15511 0.72072 0.47148 0.0
H1191 H 0.15589 0.72132 0.3669 0.0
H1192 H 0.79195 0.44382 0.6089 0.0
H1193 H 0.78155 0.43783 0.51079 0.0
H1194 H 0.84131 0.45177 0.45145 0.0
H1195 H 0.85206 0.45728 0.55003 0.0
H1196 H 0.78122 0.45155 0.41882 0.0
H1197 H 0.83021 0.41934 0.3751 0.0
H1198 H 0.82617 0.42466 0.44664 0.0
H1199 H 0.84424 0.43327 0.40032 0.0
C1200 C 0.80307 0.44524 0.57538 0.0
C1201 C 0.82303 0.45065 0.58749 0.0
C1202 C 0.79702 0.44195 0.51915 0.0
C1203 C 0.81077 0.44408 0.47401 0.0
C1204 C 0.8306 0.44971 0.48584 0.0
H1205 H 0.79923 0.45646 0.1221 0.0
H1206 H 0.79862 0.45669 0.22642 0.0
C1207 C 0.83667 0.45296 0.54207 0.0
C1208 C 0.80421 0.44105 0.41408 0.0
H1209 H 0.81657 0.42724 0.29252 0.0
C1210 C 0.78873 0.44608 0.39138 0.0
C1211 C 0.81368 0.4337 0.37867 0.0
C1212 C 0.82934 0.42733 0.4016 0.0
C1213 C 0.78329 0.44452 0.33327 0.0
C1214 C 0.79391 0.43797 0.29683 0.0
C1215 C 0.80856 0.43237 0.32032 0.0
C1216 C 0.79148 0.4377 0.23364 0.0
C1217 C 0.76639 0.45003 0.31143 0.0
C1218 C 0.78772 0.42694 0.2028 0.0
C1219 C 0.7883 0.42677 0.14282 0.0
C1220 C 0.79281 0.43737 0.1128 0.0
C1221 C 0.79571 0.44813 0.14383 0.0
C1222 C 0.79519 0.44828 0.20361 0.0
H1223 H 0.75548 0.45087 0.34603 0.0
H1224 H 0.77259 0.45903 0.29636 0.0
H1225 H 0.7583 0.4448 0.27519 0.0
H1226 H 0.78494 0.41866 0.22519 0.0
H1227 H 0.786 0.41833 0.1202 0.0
H1228 H 0.94583 0.32868 0.09266 0.0
H1229 H 0.94721 0.32857 0.19761 0.0
H1230 H 0.92303 0.29123 0.19426 0.0
H1231 H 0.92198 0.2912 0.08995 0.0
H1232 H 0.91456 0.32312 0.26446 0.0
H1233 H 0.96656 0.29332 0.31371 0.0
H1234 H 0.9654 0.29963 0.24385 0.0
H1235 H 0.94779 0.28657 0.26296 0.0
C1236 C 0.94125 0.3204 0.11425 0.0
C1237 C 0.93368 0.30996 0.08296 0.0
C1238 C 0.94203 0.32036 0.1742 0.0
C1239 C 0.93543 0.30987 0.20375 0.0
C1240 C 0.92864 0.29937 0.17244 0.0
H1241 H 0.87251 0.29542 0.51513 0.0
H1242 H 0.88453 0.30019 0.41788 0.0
C1243 C 0.92789 0.29939 0.11268 0.0
C1244 C 0.9333 0.31004 0.26696 0.0
H1245 H 0.94202 0.29533 0.3869 0.0
C1246 C 0.92089 0.31721 0.29145 0.0
C1247 C 0.94176 0.30246 0.30234 0.0
C1248 C 0.95629 0.29516 0.2794 0.0
C1249 C 0.91574 0.31646 0.34963 0.0
C1250 C 0.92286 0.30817 0.38385 0.0
C1251 C 0.93629 0.30154 0.36032 0.0
C1252 C 0.91564 0.30573 0.44306 0.0
C1253 C 0.90243 0.32441 0.37368 0.0
C1254 C 0.92922 0.30696 0.48914 0.0
C1255 C 0.92238 0.30417 0.5446 0.0
C1256 C 0.90185 0.30013 0.55479 0.0
C1257 C 0.88835 0.29872 0.50849 0.0
C1258 C 0.89518 0.30152 0.4531 0.0
H1259 H 0.90352 0.33253 0.34819 0.0
H1260 H 0.8866 0.31968 0.37207 0.0
H1261 H 0.90636 0.327 0.419 0.0
H1262 H 0.94511 0.31 0.4821 0.0
H1263 H 0.93322 0.30489 0.57919 0.0
H1264 H 0.12955 0.06086 0.42818 0.0
H1265 H 0.12966 0.06147 0.32327 0.0
H1266 H 0.08942 0.02774 0.31509 0.0
H1267 H 0.08954 0.02691 0.41945 0.0
H1268 H 0.11833 0.03021 0.23007 0.0
H1269 H 0.08026 0.06876 0.24179 0.0
H1270 H 0.10416 0.07067 0.27735 0.0
H1271 H 0.08335 0.06016 0.30364 0.0
C1272 C 0.12101 0.05347 0.40401 0.0
C1273 C 0.10928 0.04392 0.43216 0.0
C1274 C 0.12101 0.05388 0.34412 0.0
C1275 C 0.10918 0.04478 0.31161 0.0
C1276 C 0.09855 0.03489 0.33946 0.0
H1277 H 0.04603 0.04129 0.99636 0.0
H1278 H 0.05871 0.04334 0.09493 0.0
C1279 C 0.09861 0.03445 0.39918 0.0
C1280 C 0.10649 0.04583 0.24908 0.0
H1281 H 0.08537 0.06115 0.1501 0.0
C1282 C 0.11136 0.03705 0.21233 0.0
C1283 C 0.09714 0.0547 0.22641 0.0
C1284 C 0.09075 0.06407 0.26422 0.0
C1285 C 0.10661 0.03668 0.15366 0.0
C1286 C 0.09709 0.04549 0.13113 0.0
C1287 C 0.09278 0.05447 0.16757 0.0
C1288 C 0.08987 0.04496 0.07107 0.0
C1289 C 0.11091 0.02655 0.11696 0.0
C1290 C 0.10323 0.04537 0.02501 0.0
C1291 C 0.09599 0.0441 0.96865 0.0
C1292 C 0.07531 0.04262 0.95744 0.0
C1293 C 0.06205 0.04248 0.00368 0.0
C1294 C 0.06927 0.04369 0.05994 0.0
H1295 H 0.11424 0.01925 0.14326 0.0
H1296 H 0.098 0.02302 0.0883 0.0
H1297 H 0.12414 0.02971 0.08972 0.0
H1298 H 0.1192 0.04646 0.03268 0.0
H1299 H 0.10658 0.04383 0.93432 0.0
H1300 H 0.12005 0.18898 0.33528 0.0
H1301 H 0.1314 0.18572 0.23758 0.0
H1302 H 0.13977 0.22304 0.20773 0.0
H1303 H 0.1292 0.22641 0.30554 0.0
H1304 H 0.11465 0.19089 0.13623 0.0
H1305 H 0.19277 0.21549 0.15301 0.0
H1306 H 0.17752 0.21116 0.21522 0.0
H1307 H 0.17502 0.22418 0.17695 0.0
C1308 C 0.12478 0.19652 0.3084 0.0
C1309 C 0.12418 0.20799 0.32859 0.0
C1310 C 0.13111 0.19463 0.25245 0.0
C1311 C 0.13695 0.20418 0.21596 0.0
C1312 C 0.13593 0.21558 0.2357 0.0
H1313 H 0.15383 0.22065 0.86731 0.0
H1314 H 0.15281 0.21988 0.9719 0.0
C1315 C 0.12964 0.21747 0.29142 0.0
C1316 C 0.1429 0.20226 0.15595 0.0
H1317 H 0.1791 0.212 0.05733 0.0
C1318 C 0.1289 0.1953 0.11912 0.0
C1319 C 0.16154 0.20801 0.13387 0.0
C1320 C 0.17765 0.21503 0.17199 0.0
C1321 C 0.13254 0.1945 0.0601 0.0
C1322 C 0.15076 0.20072 0.03764 0.0
C1323 C 0.16513 0.20728 0.07478 0.0
C1324 C 0.15427 0.20138 0.97514 0.0
C1325 C 0.11645 0.18752 0.0217 0.0
C1326 C 0.1562 0.19132 0.94262 0.0
C1327 C 0.15684 0.19173 0.88274 0.0
C1328 C 0.15548 0.2022 0.8546 0.0
C1329 C 0.15476 0.21243 0.88763 0.0
C1330 C 0.15421 0.21202 0.94739 0.0
H1331 H 0.10209 0.18468 0.04473 0.0
H1332 H 0.11369 0.19281 0.98437 0.0
H1333 H 0.12151 0.17952 0.00503 0.0
H1334 H 0.15653 0.18307 0.96346 0.0
H1335 H 0.15748 0.18371 0.85856 0.0
H1336 H 0.8224 0.97143 0.06694 0.0
H1337 H 0.81271 0.96649 0.96708 0.0
H1338 H 0.81991 0.93066 0.9922 0.0
H1339 H 0.82972 0.93556 0.09209 0.0
H1340 H 0.83583 0.95805 0.88427 0.0
H1341 H 0.76427 0.92641 0.91644 0.0
H1342 H 0.77619 0.93627 0.97275 0.0
H1343 H 0.7855 0.92314 0.95446 0.0
C1344 C 0.82185 0.96249 0.0512 0.0
C1345 C 0.82643 0.95382 0.08751 0.0
C1346 C 0.81622 0.95967 0.99433 0.0
C1347 C 0.81516 0.94815 0.97274 0.0
C1348 C 0.82004 0.93951 0.00861 0.0
H1349 H 0.80224 0.91895 0.62725 0.0
H1350 H 0.80358 0.92128 0.73185 0.0
C1351 C 0.82563 0.94232 0.06563 0.0
C1352 C 0.81019 0.94544 0.91164 0.0
H1353 H 0.77646 0.92847 0.82093 0.0
C1354 C 0.8228 0.95163 0.87042 0.0
C1355 C 0.79324 0.937 0.89391 0.0
C1356 C 0.77889 0.93038 0.93661 0.0
C1357 C 0.81901 0.94955 0.81175 0.0
C1358 C 0.80197 0.94121 0.79394 0.0
C1359 C 0.78943 0.93491 0.83501 0.0
C1360 C 0.7973 0.93893 0.73249 0.0
C1361 C 0.83345 0.95619 0.76919 0.0
C1362 C 0.79236 0.94788 0.69883 0.0
C1363 C 0.79166 0.94661 0.63923 0.0
C1364 C 0.79582 0.93634 0.61244 0.0
C1365 C 0.79909 0.92699 0.6466 0.0
C1366 C 0.79985 0.92829 0.70633 0.0
H1367 H 0.84794 0.96032 0.78963 0.0
H1368 H 0.83647 0.95023 0.73364 0.0
H1369 H 0.82674 0.96329 0.75042 0.0
H1370 H 0.79007 0.95608 0.71856 0.0
H1371 H 0.78884 0.95391 0.61412 0.0
H1372 H 0.93248 0.8054 0.07186 0.0
H1373 H 0.94372 0.81079 0.97487 0.0
H1374 H 0.88346 0.79891 0.91138 0.0
H1375 H 0.87195 0.79397 0.00882 0.0
H1376 H 0.9424 0.79641 0.88068 0.0
H1377 H 0.89872 0.83121 0.84035 0.0
H1378 H 0.90203 0.82589 0.91131 0.0
H1379 H 0.88313 0.81784 0.86376 0.0
C1380 C 0.92148 0.80432 0.03766 0.0
C1381 C 0.90118 0.79964 0.04823 0.0
C1382 C 0.928 0.80725 0.98211 0.0
C1383 C 0.91434 0.80552 0.93619 0.0
C1384 C 0.89414 0.80065 0.94648 0.0
H1385 H 0.92315 0.79143 0.58327 0.0
H1386 H 0.92407 0.79149 0.68761 0.0
C1387 C 0.88761 0.79773 0.00202 0.0
C1388 C 0.92133 0.80814 0.87693 0.0
H1389 H 0.91122 0.82239 0.75703 0.0
C1390 C 0.93583 0.80223 0.85384 0.0
C1391 C 0.91309 0.81594 0.84236 0.0
C1392 C 0.89854 0.82318 0.86589 0.0
C1393 C 0.94139 0.80337 0.79601 0.0
C1394 C 0.93191 0.81042 0.76031 0.0
C1395 C 0.91834 0.81689 0.7843 0.0
C1396 C 0.93427 0.81035 0.69721 0.0
C1397 C 0.95713 0.79687 0.77355 0.0
C1398 C 0.93972 0.82096 0.66777 0.0
C1399 C 0.93902 0.82097 0.60782 0.0
C1400 C 0.93266 0.81039 0.57647 0.0
C1401 C 0.92808 0.79974 0.60608 0.0
C1402 C 0.92878 0.79974 0.66584 0.0
H1403 H 0.96764 0.7955 0.80819 0.0
H1404 H 0.9497 0.78805 0.75683 0.0
H1405 H 0.96587 0.80169 0.7383 0.0
H1406 H 0.94389 0.82925 0.69125 0.0
H1407 H 0.94264 0.82932 0.58629 0.0
H1408 H 0.56142 0.52179 0.98557 0.0
H1409 H 0.57382 0.52488 0.08416 0.0
H1410 H 0.59795 0.56132 0.04916 0.0
H1411 H 0.58491 0.55841 0.95103 0.0
H1412 H 0.61348 0.53268 0.12465 0.0
H1413 H 0.56293 0.56311 0.19098 0.0
H1414 H 0.55895 0.55424 0.1259 0.0
H1415 H 0.57807 0.56733 0.12896 0.0
C1416 C 0.5693 0.53048 0.99889 0.0
C1417 C 0.57241 0.53982 0.96022 0.0
C1418 C 0.57648 0.53221 0.0551 0.0
C1419 C 0.58674 0.54333 0.07395 0.0
C1420 C 0.58995 0.55268 0.03551 0.0
H1421 H 0.62154 0.56515 0.42665 0.0
H1422 H 0.62099 0.56479 0.32172 0.0
C1423 C 0.58273 0.55096 0.97917 0.0
C1424 C 0.59368 0.54508 0.13426 0.0
H1425 H 0.58538 0.55878 0.26043 0.0
C1426 C 0.60747 0.53845 0.15432 0.0
C1427 C 0.58585 0.55265 0.1727 0.0
C1428 C 0.57051 0.55969 0.15391 0.0
C1429 C 0.61338 0.53904 0.21217 0.0
C1430 C 0.60504 0.54631 0.25095 0.0
C1431 C 0.59179 0.55324 0.23049 0.0
C1432 C 0.60841 0.54616 0.31365 0.0
C1433 C 0.62837 0.53182 0.23135 0.0
C1434 C 0.60188 0.53576 0.34379 0.0
C1435 C 0.60215 0.53593 0.40368 0.0
C1436 C 0.60882 0.54653 0.43455 0.0
C1437 C 0.6163 0.55683 0.4042 0.0
C1438 C 0.61597 0.55666 0.34424 0.0
H1439 H 0.63781 0.52975 0.19509 0.0
H1440 H 0.63829 0.53649 0.26582 0.0
H1441 H 0.62023 0.52335 0.24839 0.0
H1442 H 0.59563 0.52761 0.32108 0.0
H1443 H 0.59629 0.52784 0.42571 0.0
H1444 H 0.65191 0.72126 0.86917 0.0
H1445 H 0.6502 0.72062 0.97354 0.0
H1446 H 0.65949 0.68473 0.96788 0.0
H1447 H 0.66096 0.68523 0.86311 0.0
H1448 H 0.62612 0.68733 0.02896 0.0
H1449 H 0.69112 0.72098 0.1012 0.0
H1450 H 0.67608 0.72651 0.04893 0.0
H1451 H 0.68897 0.71481 0.02916 0.0
C1452 C 0.65403 0.71331 0.89007 0.0
C1453 C 0.65646 0.70327 0.85771 0.0
C1454 C 0.65317 0.71298 0.94987 0.0
C1455 C 0.65488 0.70266 0.97855 0.0
C1456 C 0.65821 0.6928 0.94657 0.0
H1457 H 0.65022 0.70231 0.3542 0.0
H1458 H 0.66034 0.69917 0.25524 0.0
C1459 C 0.6591 0.69312 0.88669 0.0
C1460 C 0.65104 0.70181 0.04105 0.0
H1461 H 0.66464 0.71564 0.16974 0.0
C1462 C 0.63473 0.6934 0.05989 0.0
C1463 C 0.6624 0.70965 0.08144 0.0
C1464 C 0.68075 0.71842 0.06428 0.0
C1465 C 0.62891 0.69298 0.11765 0.0
C1466 C 0.6395 0.70131 0.15737 0.0
C1467 C 0.65639 0.70935 0.13908 0.0
C1468 C 0.63274 0.70221 0.21744 0.0
C1469 C 0.61137 0.6837 0.13549 0.0
C1470 C 0.61387 0.70497 0.22898 0.0
C1471 C 0.60798 0.70663 0.28546 0.0
C1472 C 0.6208 0.70552 0.33141 0.0
C1473 C 0.63968 0.70275 0.31981 0.0
C1474 C 0.64559 0.7011 0.26328 0.0
H1475 H 0.60886 0.67602 0.10507 0.0
H1476 H 0.61367 0.68053 0.17919 0.0
H1477 H 0.59759 0.68753 0.13587 0.0
H1478 H 0.60392 0.70616 0.19421 0.0
H1479 H 0.59351 0.70898 0.29321 0.0
H1480 H 0.29246 0.44309 0.10015 0.0
H1481 H 0.28176 0.43724 0.00203 0.0
H1482 H 0.34134 0.45127 0.94156 0.0
H1483 H 0.35236 0.4567 0.04005 0.0
H1484 H 0.28155 0.4515 0.91074 0.0
H1485 H 0.32948 0.41884 0.86386 0.0
H1486 H 0.32551 0.42394 0.93587 0.0
H1487 H 0.34377 0.4326 0.89027 0.0
C1488 C 0.30347 0.44456 0.06632 0.0
C1489 C 0.32344 0.44999 0.07801 0.0
C1490 C 0.29725 0.44135 0.01014 0.0
C1491 C 0.31087 0.44357 0.96473 0.0
C1492 C 0.33073 0.44917 0.9762 0.0
H1493 H 0.3008 0.45741 0.615 0.0
H1494 H 0.2998 0.4572 0.7193 0.0
C1495 C 0.33696 0.45236 0.03235 0.0
C1496 C 0.30412 0.44072 0.90487 0.0
H1497 H 0.31601 0.42713 0.78213 0.0
C1498 C 0.28885 0.44601 0.88278 0.0
C1499 C 0.31332 0.43336 0.8688 0.0
C1500 C 0.32878 0.42676 0.89107 0.0
C1501 C 0.28342 0.44472 0.82461 0.0
C1502 C 0.29381 0.43816 0.78758 0.0
C1503 C 0.30819 0.43227 0.81044 0.0
C1504 C 0.29153 0.43821 0.72445 0.0
C1505 C 0.26685 0.45056 0.80327 0.0
C1506 C 0.28721 0.42759 0.69253 0.0
C1507 C 0.28797 0.42767 0.6326 0.0
C1508 C 0.29325 0.43838 0.60375 0.0
C1509 C 0.2967 0.44901 0.63585 0.0
C1510 C 0.29596 0.44891 0.69558 0.0
H1511 H 0.25603 0.45148 0.83798 0.0
H1512 H 0.27342 0.45955 0.78867 0.0
H1513 H 0.2586 0.44552 0.76676 0.0
H1514 H 0.28387 0.41923 0.71406 0.0
H1515 H 0.28523 0.41933 0.60911 0.0
H1516 H 0.43478 0.30441 0.08182 0.0
H1517 H 0.44666 0.30956 0.98514 0.0
H1518 H 0.38573 0.30178 0.92239 0.0
H1519 H 0.37368 0.29711 0.0195 0.0
H1520 H 0.44271 0.29547 0.89006 0.0
H1521 H 0.40657 0.33363 0.85279 0.0
H1522 H 0.40876 0.32783 0.92332 0.0
H1523 H 0.38881 0.32105 0.87562 0.0
C1524 C 0.42384 0.3042 0.04795 0.0
C1525 C 0.40321 0.30072 0.05865 0.0
C1526 C 0.43069 0.30699 0.9925 0.0
C1527 C 0.41705 0.30633 0.94683 0.0
C1528 C 0.39648 0.30269 0.95729 0.0
H1529 H 0.42246 0.2915 0.5936 0.0
H1530 H 0.42368 0.29157 0.69788 0.0
C1531 C 0.38963 0.29992 0.01268 0.0
C1532 C 0.42427 0.30869 0.88752 0.0
H1533 H 0.41647 0.32384 0.76836 0.0
C1534 C 0.43725 0.30181 0.86366 0.0
C1535 C 0.41754 0.31715 0.85348 0.0
C1536 C 0.40483 0.32543 0.87782 0.0
C1537 C 0.44264 0.30265 0.8056 0.0
C1538 C 0.43447 0.31039 0.77039 0.0
C1539 C 0.42255 0.3178 0.79518 0.0
C1540 C 0.43644 0.31018 0.70711 0.0
C1541 C 0.45678 0.29511 0.78246 0.0
C1542 C 0.44316 0.32063 0.67739 0.0
C1543 C 0.44224 0.32065 0.61746 0.0
C1544 C 0.43446 0.31022 0.58633 0.0
C1545 C 0.42856 0.29969 0.61618 0.0
C1546 C 0.42941 0.29969 0.67594 0.0
H1547 H 0.46707 0.29321 0.81656 0.0
H1548 H 0.44796 0.28656 0.76661 0.0
H1549 H 0.46586 0.29943 0.7465 0.0
H1550 H 0.44853 0.32884 0.70066 0.0
H1551 H 0.44692 0.32891 0.59576 0.0
H1552 H 0.54473 0.03994 0.49469 0.0
H1553 H 0.55751 0.04267 0.59321 0.0
H1554 H 0.61798 0.0456 0.53098 0.0
H1555 H 0.60521 0.04249 0.43253 0.0
H1556 H 0.60958 0.03023 0.6197 0.0
H1557 H 0.58668 0.07246 0.67615 0.0
H1558 H 0.56627 0.06167 0.64781 0.0
H1559 H 0.58741 0.06714 0.60297 0.0
C1560 C 0.56076 0.04134 0.50206 0.0
C1561 C 0.57402 0.04136 0.45593 0.0
C1562 C 0.56806 0.04297 0.55823 0.0
C1563 C 0.58873 0.04463 0.56926 0.0
C1564 C 0.602 0.04455 0.52327 0.0
H1565 H 0.62693 0.0616 0.92494 0.0
H1566 H 0.62739 0.06188 0.82001 0.0
C1567 C 0.59471 0.04292 0.46704 0.0
C1568 C 0.59625 0.04565 0.62913 0.0
H1569 H 0.59392 0.06085 0.75502 0.0
C1570 C 0.60644 0.03703 0.64915 0.0
C1571 C 0.5925 0.05465 0.66719 0.0
C1572 C 0.5828 0.06458 0.64732 0.0
C1573 C 0.61195 0.03679 0.70707 0.0
C1574 C 0.60683 0.04527 0.74597 0.0
C1575 C 0.59768 0.05428 0.72526 0.0
C1576 C 0.6092 0.04444 0.80882 0.0
C1577 C 0.62296 0.02737 0.72615 0.0
C1578 C 0.59913 0.03446 0.83726 0.0
C1579 C 0.59886 0.03426 0.89707 0.0
C1580 C 0.60851 0.04409 0.92967 0.0
C1581 C 0.61935 0.05388 0.90111 0.0
C1582 C 0.61961 0.05407 0.84116 0.0
H1583 H 0.6316 0.02433 0.69029 0.0
H1584 H 0.63341 0.03057 0.76219 0.0
H1585 H 0.61192 0.01965 0.74074 0.0
H1586 H 0.59063 0.02704 0.81326 0.0
H1587 H 0.59036 0.02658 0.91766 0.0
H1588 H 0.65129 0.20222 0.8485 0.0
H1589 H 0.66182 0.19929 0.74978 0.0
H1590 H 0.60567 0.20643 0.68732 0.0
H1591 H 0.59478 0.20896 0.7861 0.0
H1592 H 0.61791 0.18724 0.63112 0.0
H1593 H 0.67878 0.22701 0.64169 0.0
H1594 H 0.67975 0.21616 0.69522 0.0
H1595 H 0.65943 0.22406 0.69528 0.0
C1596 C 0.64093 0.20279 0.81382 0.0
C1597 C 0.622 0.20554 0.82491 0.0
C1598 C 0.64712 0.20131 0.75744 0.0
C1599 C 0.63459 0.20275 0.71134 0.0
C1600 C 0.61554 0.20527 0.72238 0.0
H1601 H 0.64895 0.22106 0.36361 0.0
H1602 H 0.64775 0.22011 0.46793 0.0
C1603 C 0.60935 0.20673 0.77868 0.0
C1604 C 0.64143 0.20206 0.65136 0.0
H1605 H 0.67439 0.21638 0.55396 0.0
C1606 C 0.6304 0.19351 0.61426 0.0
C1607 C 0.65763 0.21034 0.62967 0.0
C1608 C 0.66953 0.21998 0.66726 0.0
C1609 C 0.63478 0.19321 0.55554 0.0
C1610 C 0.65085 0.20157 0.53368 0.0
C1611 C 0.66223 0.20992 0.57109 0.0
C1612 C 0.65457 0.2026 0.4713 0.0
C1613 C 0.62151 0.18434 0.51696 0.0
C1614 C 0.65964 0.19325 0.43879 0.0
C1615 C 0.66025 0.19374 0.37891 0.0
C1616 C 0.65588 0.20361 0.35079 0.0
C1617 C 0.65221 0.21328 0.38385 0.0
C1618 C 0.65156 0.21277 0.44354 0.0
H1619 H 0.60758 0.18006 0.53888 0.0
H1620 H 0.6173 0.1886 0.47774 0.0
H1621 H 0.62979 0.17735 0.50351 0.0
H1622 H 0.66242 0.18542 0.45958 0.0
H1623 H 0.66329 0.18619 0.35471 0.0
H1624 H 0.34926 0.95736 0.54401 0.0
H1625 H 0.33841 0.95186 0.44558 0.0
H1626 H 0.27855 0.93826 0.50517 0.0
H1627 H 0.28897 0.94436 0.60302 0.0
H1628 H 0.32279 0.93017 0.3985 0.0
H1629 H 0.26854 0.96036 0.38062 0.0
H1630 H 0.28627 0.96144 0.43902 0.0
H1631 H 0.26397 0.9502 0.43852 0.0
C1632 C 0.33376 0.95323 0.53612 0.0
C1633 C 0.3201 0.95105 0.58156 0.0
C1634 C 0.32762 0.95004 0.47995 0.0
C1635 C 0.30766 0.94469 0.46809 0.0
C1636 C 0.29397 0.94247 0.51333 0.0
H1637 H 0.28377 0.91718 0.11384 0.0
H1638 H 0.28214 0.91769 0.2189 0.0
C1639 C 0.30008 0.94575 0.56952 0.0
C1640 C 0.30137 0.94157 0.4081 0.0
H1641 H 0.27192 0.94833 0.29996 0.0
C1642 C 0.31153 0.93404 0.37696 0.0
C1643 C 0.2867 0.94668 0.38034 0.0
C1644 C 0.27583 0.9552 0.41107 0.0
C1645 C 0.30806 0.93184 0.31811 0.0
C1646 C 0.29361 0.9371 0.29008 0.0
C1647 C 0.28284 0.94424 0.32178 0.0
C1648 C 0.2915 0.93664 0.22686 0.0
C1649 C 0.32073 0.92449 0.28596 0.0
C1650 C 0.29619 0.94716 0.19663 0.0
C1651 C 0.29686 0.94692 0.13695 0.0
C1652 C 0.29295 0.93613 0.10621 0.0
C1653 C 0.28708 0.92562 0.13636 0.0
C1654 C 0.28626 0.92589 0.19634 0.0
H1655 H 0.33374 0.92304 0.31184 0.0
H1656 H 0.31145 0.91575 0.27488 0.0
H1657 H 0.32642 0.92878 0.24546 0.0
H1658 H 0.30019 0.95557 0.21933 0.0
H1659 H 0.30124 0.9552 0.11513 0.0
H1660 H 0.46607 0.81522 0.09172 0.0
H1661 H 0.46722 0.81279 0.19636 0.0
H1662 H 0.40289 0.80172 0.19816 0.0
H1663 H 0.40171 0.80374 0.09476 0.0
H1664 H 0.4497 0.82232 0.28847 0.0
H1665 H 0.42127 0.77436 0.27267 0.0
H1666 H 0.43012 0.78299 0.21098 0.0
H1667 H 0.40477 0.78211 0.23588 0.0
C1668 C 0.45223 0.81231 0.11474 0.0
C1669 C 0.43385 0.80946 0.08518 0.0
C1670 C 0.4529 0.81092 0.17428 0.0
C1671 C 0.43519 0.80674 0.2046 0.0
C1672 C 0.4168 0.80456 0.17532 0.0
H1673 H 0.39671 0.81174 0.54882 0.0
H1674 H 0.40958 0.81548 0.45152 0.0
C1675 C 0.41615 0.80577 0.11622 0.0
C1676 C 0.43546 0.80448 0.26676 0.0
H1677 H 0.41594 0.78375 0.36336 0.0
C1678 C 0.44269 0.81384 0.30511 0.0
C1679 C 0.42686 0.79331 0.2884 0.0
C1680 C 0.42054 0.7826 0.24973 0.0
C1681 C 0.44023 0.81252 0.3646 0.0
C1682 C 0.42967 0.80169 0.38577 0.0
C1683 C 0.42372 0.79213 0.34742 0.0
C1684 C 0.42357 0.80012 0.44667 0.0
C1685 C 0.44888 0.82278 0.40383 0.0
C1686 C 0.42656 0.79008 0.47586 0.0
C1687 C 0.41854 0.78773 0.53037 0.0
C1688 C 0.40774 0.7955 0.55712 0.0
C1689 C 0.40516 0.8057 0.52894 0.0
C1690 C 0.41276 0.80791 0.47373 0.0
H1691 H 0.46247 0.82821 0.38478 0.0
H1692 H 0.43768 0.82853 0.40982 0.0
H1693 H 0.45291 0.81978 0.44646 0.0
H1694 H 0.43476 0.78391 0.45593 0.0
H1695 H 0.42081 0.77984 0.55173 0.0
H1696 H 0.08081 0.57704 0.24606 0.0
H1697 H 0.08594 0.59857 0.24095 0.0
H1698 H 0.09714 0.59645 0.05951 0.0
H1699 H 0.09224 0.57501 0.06394 0.0
H1700 H 0.12316 0.61419 0.19104 0.0
H1701 H 0.05108 0.61659 0.08251 0.0
H1702 H 0.0544 0.60406 0.124 0.0
H1703 H 0.06519 0.60611 0.05391 0.0
C1704 C 0.08438 0.58114 0.20507 0.0
C1705 C 0.08611 0.57429 0.15543 0.0
C1706 C 0.08728 0.59343 0.20227 0.0
C1707 C 0.09169 0.59901 0.14976 0.0
C1708 C 0.09352 0.59224 0.10027 0.0
H1709 H 0.1109 0.67153 0.03816 0.0
H1710 H 0.10445 0.64997 0.04355 0.0
C1711 C 0.09079 0.58 0.10303 0.0
C1712 C 0.09489 0.61198 0.14665 0.0
H1713 H 0.07442 0.63445 0.09501 0.0
C1714 C 0.1125 0.61866 0.17036 0.0
C1715 C 0.08101 0.61768 0.11901 0.0
C1716 C 0.06176 0.61079 0.0936 0.0
C1717 C 0.11677 0.63098 0.16647 0.0
C1718 C 0.10274 0.63674 0.13951 0.0
C1719 C 0.08512 0.63001 0.1157 0.0
C1720 C 0.106 0.64975 0.13624 0.0
C1721 C 0.1365 0.63766 0.18994 0.0
C1722 C 0.10851 0.65673 0.18657 0.0
C1723 C 0.11235 0.66899 0.18364 0.0
C1724 C 0.11343 0.67453 0.13027 0.0
C1725 C 0.11019 0.66752 0.0799 0.0
C1726 C 0.10652 0.65522 0.0829 0.0
H1727 H 0.14777 0.63189 0.19325 0.0
H1728 H 0.14272 0.64524 0.1626 0.0
H1729 H 0.13415 0.64111 0.23365 0.0
H1730 H 0.10759 0.65268 0.22822 0.0
H1731 H 0.11452 0.67412 0.22332 0.0
H1732 H 0.82498 0.41261 0.95676 0.0
H1733 H 0.83799 0.39428 0.95151 0.0
H1734 H 0.86228 0.4034 0.78413 0.0
H1735 H 0.8494 0.42173 0.78876 0.0
H1736 H 0.83043 0.37564 0.865 0.0
H1737 H 0.91077 0.39721 0.881 0.0
H1738 H 0.89067 0.40466 0.9011 0.0
H1739 H 0.8965 0.40282 0.82678 0.0
C1740 C 0.833 0.4107 0.91867 0.0
C1741 C 0.83625 0.41868 0.87333 0.0
C1742 C 0.84043 0.40024 0.91582 0.0
C1743 C 0.85136 0.39762 0.86788 0.0
C1744 C 0.85418 0.40539 0.82193 0.0
H1745 H 0.88266 0.33122 0.76479 0.0
H1746 H 0.87192 0.35021 0.76878 0.0
C1747 C 0.8467 0.41582 0.82458 0.0
C1748 C 0.85974 0.38672 0.86573 0.0
H1749 H 0.90376 0.3766 0.86117 0.0
C1750 C 0.84645 0.37583 0.86425 0.0
C1751 C 0.88065 0.38705 0.86539 0.0
C1752 C 0.89554 0.39854 0.86913 0.0
C1753 C 0.85354 0.36521 0.86134 0.0
C1754 C 0.87444 0.36554 0.85947 0.0
C1755 C 0.88775 0.37642 0.86207 0.0
C1756 C 0.88264 0.35461 0.85532 0.0
C1757 C 0.83866 0.3537 0.86081 0.0
C1758 C 0.89287 0.35104 0.902 0.0
C1759 C 0.89905 0.34017 0.89998 0.0
C1760 C 0.89519 0.33275 0.85102 0.0
C1761 C 0.88579 0.33667 0.80329 0.0
C1762 C 0.87956 0.3475 0.8055 0.0
H1763 H 0.82347 0.3549 0.87399 0.0
H1764 H 0.83758 0.3498 0.81676 0.0
H1765 H 0.84367 0.34732 0.88986 0.0
H1766 H 0.89546 0.35647 0.94069 0.0
H1767 H 0.90632 0.33746 0.93739 0.0
H1768 H 0.07244 0.07687 0.73649 0.0
H1769 H 0.07714 0.09834 0.72905 0.0
H1770 H 0.10125 0.09618 0.55907 0.0
H1771 H 0.0967 0.07481 0.56588 0.0
H1772 H 0.12467 0.11318 0.63495 0.0
H1773 H 0.0445 0.11728 0.62691 0.0
H1774 H 0.0514 0.10875 0.68468 0.0
H1775 H 0.05265 0.10354 0.61198 0.0
C1776 C 0.07869 0.08096 0.69745 0.0
C1777 C 0.08416 0.0741 0.65176 0.0
C1778 C 0.08124 0.09321 0.69318 0.0
C1779 C 0.0893 0.09879 0.64322 0.0
C1780 C 0.0949 0.092 0.59781 0.0
H1781 H 0.10077 0.17194 0.54057 0.0
H1782 H 0.09327 0.15032 0.54311 0.0
C1783 C 0.09229 0.07978 0.60189 0.0
C1784 C 0.09265 0.11175 0.63885 0.0
H1785 H 0.06858 0.13509 0.63384 0.0
C1786 C 0.11242 0.11798 0.63457 0.0
C1787 C 0.07659 0.11792 0.63773 0.0
C1788 C 0.05505 0.11156 0.64009 0.0
C1789 C 0.11661 0.13028 0.63035 0.0
C1790 C 0.10059 0.13648 0.63069 0.0
C1791 C 0.08078 0.13026 0.63382 0.0
C1792 C 0.10431 0.14947 0.62963 0.0
C1793 C 0.13811 0.13661 0.6255 0.0
C1794 C 0.11271 0.15605 0.67773 0.0
C1795 C 0.11692 0.16833 0.67661 0.0
C1796 C 0.11285 0.17428 0.62719 0.0
C1797 C 0.10413 0.16763 0.57922 0.0
C1798 C 0.09981 0.15531 0.58058 0.0
H1799 H 0.14834 0.13045 0.61494 0.0
H1800 H 0.13956 0.14342 0.59206 0.0
H1801 H 0.14301 0.14113 0.66698 0.0
H1802 H 0.11612 0.15166 0.71609 0.0
H1803 H 0.12355 0.17314 0.71442 0.0
H1804 H 0.83793 0.91861 0.27313 0.0
H1805 H 0.84932 0.8998 0.26544 0.0
H1806 H 0.84209 0.89542 0.44796 0.0
H1807 H 0.83018 0.91399 0.45585 0.0
H1808 H 0.88198 0.89399 0.31396 0.0
H1809 H 0.81414 0.86363 0.38869 0.0
H1810 H 0.81383 0.87864 0.36965 0.0
H1811 H 0.82268 0.87542 0.43925 0.0
C1812 C 0.83849 0.91356 0.31152 0.0
C1813 C 0.83304 0.91777 0.36507 0.0
C1814 C 0.84504 0.90283 0.30705 0.0
C1815 C 0.84629 0.89613 0.35598 0.0
C1816 C 0.84075 0.90028 0.40939 0.0
H1817 H 0.89678 0.83531 0.43687 0.0
H1818 H 0.88549 0.85419 0.43739 0.0
C1819 C 0.83402 0.91094 0.41384 0.0
C1820 C 0.8544 0.88511 0.35177 0.0
H1821 H 0.84438 0.85593 0.38487 0.0
C1822 C 0.87368 0.88564 0.32895 0.0
C1823 C 0.84353 0.87422 0.37129 0.0
C1824 C 0.82232 0.8729 0.39304 0.0
C1825 C 0.88255 0.87563 0.32639 0.0
C1826 C 0.87186 0.86487 0.34722 0.0
C1827 C 0.85255 0.86428 0.36947 0.0
C1828 C 0.88036 0.85404 0.34585 0.0
C1829 C 0.9034 0.87661 0.3025 0.0
C1830 C 0.88138 0.84784 0.29401 0.0
C1831 C 0.88769 0.83702 0.29351 0.0
C1832 C 0.89314 0.83226 0.34491 0.0
C1833 C 0.89275 0.83873 0.39652 0.0
C1834 C 0.88626 0.8495 0.39699 0.0
H1835 H 0.91066 0.88591 0.29479 0.0
H1836 H 0.91291 0.87269 0.33239 0.0
H1837 H 0.90265 0.87159 0.26123 0.0
H1838 H 0.87674 0.85121 0.25421 0.0
H1839 H 0.88786 0.83228 0.25302 0.0
H1840 H 0.58696 0.67265 0.57456 0.0
H1841 H 0.5769 0.65123 0.58361 0.0
H1842 H 0.62557 0.65141 0.70292 0.0
H1843 H 0.6349 0.67277 0.69648 0.0
H1844 H 0.59416 0.634 0.55822 0.0
H1845 H 0.58183 0.63259 0.79164 0.0
H1846 H 0.58566 0.64622 0.75331 0.0
H1847 H 0.60679 0.6402 0.77733 0.0
C1848 C 0.59538 0.6681 0.603 0.0
C1849 C 0.61154 0.67437 0.63538 0.0
C1850 C 0.58962 0.65587 0.60822 0.0
C1851 C 0.60011 0.64972 0.64528 0.0
C1852 C 0.6167 0.65598 0.67595 0.0
H1853 H 0.60953 0.57699 0.60993 0.0
H1854 H 0.61246 0.59832 0.60569 0.0
C1855 C 0.62215 0.66819 0.67178 0.0
C1856 C 0.59444 0.63672 0.64997 0.0
H1857 H 0.58794 0.61456 0.74676 0.0
C1858 C 0.5925 0.62976 0.59947 0.0
C1859 C 0.5917 0.63112 0.70365 0.0
C1860 C 0.59137 0.63795 0.75941 0.0
C1861 C 0.58888 0.61741 0.60124 0.0
C1862 C 0.58809 0.61187 0.65504 0.0
C1863 C 0.58902 0.61879 0.70548 0.0
C1864 C 0.58679 0.59895 0.65992 0.0
C1865 C 0.58575 0.6105 0.54527 0.0
C1866 C 0.5722 0.59226 0.69478 0.0
C1867 C 0.57095 0.58008 0.69885 0.0
C1868 C 0.5841 0.57439 0.66747 0.0
C1869 C 0.599 0.58113 0.63387 0.0
C1870 C 0.60054 0.59331 0.63091 0.0
H1871 H 0.57947 0.6155 0.51187 0.0
H1872 H 0.6004 0.60888 0.52949 0.0
H1873 H 0.57545 0.60188 0.55033 0.0
H1874 H 0.56156 0.59642 0.71809 0.0
H1875 H 0.5593 0.57508 0.72501 0.0
H1876 H 0.34102 0.41876 0.27671 0.0
H1877 H 0.35277 0.40006 0.27325 0.0
H1878 H 0.3448 0.39694 0.45616 0.0
H1879 H 0.33254 0.41546 0.45988 0.0
H1880 H 0.38542 0.39476 0.32531 0.0
H1881 H 0.3171 0.36472 0.4 0.0
H1882 H 0.31687 0.37959 0.37819 0.0
H1883 H 0.32545 0.37687 0.44882 0.0
C1884 C 0.34152 0.41403 0.31613 0.0
C1885 C 0.33577 0.41859 0.36856 0.0
C1886 C 0.34828 0.40335 0.31407 0.0
C1887 C 0.34943 0.39703 0.36431 0.0
C1888 C 0.34359 0.40152 0.41664 0.0
H1889 H 0.39852 0.3356 0.44834 0.0
H1890 H 0.3877 0.35462 0.44952 0.0
C1891 C 0.33666 0.41215 0.41871 0.0
C1892 C 0.3576 0.38603 0.36233 0.0
H1893 H 0.34711 0.35691 0.39644 0.0
C1894 C 0.37699 0.38646 0.34049 0.0
C1895 C 0.34656 0.37521 0.38214 0.0
C1896 C 0.32527 0.37401 0.40307 0.0
C1897 C 0.38574 0.37641 0.33878 0.0
C1898 C 0.37481 0.36569 0.35942 0.0
C1899 C 0.35545 0.36521 0.38111 0.0
C1900 C 0.38303 0.35476 0.35784 0.0
C1901 C 0.40668 0.37728 0.31571 0.0
C1902 C 0.38416 0.34867 0.30573 0.0
C1903 C 0.3902 0.33778 0.30484 0.0
C1904 C 0.39527 0.33282 0.35614 0.0
C1905 C 0.39478 0.33918 0.40807 0.0
C1906 C 0.38856 0.35002 0.40891 0.0
H1907 H 0.4142 0.38656 0.30885 0.0
H1908 H 0.41592 0.37317 0.34564 0.0
H1909 H 0.40602 0.37238 0.27409 0.0
H1910 H 0.37981 0.35219 0.26597 0.0
H1911 H 0.39046 0.33313 0.26413 0.0
H1912 H 0.60532 0.17085 0.0394 0.0
H1913 H 0.59812 0.14933 0.04582 0.0
H1914 H 0.60827 0.15227 0.22845 0.0
H1915 H 0.6157 0.17374 0.22268 0.0
H1916 H 0.6277 0.13564 0.10257 0.0
H1917 H 0.55133 0.12927 0.1977 0.0
H1918 H 0.56149 0.14196 0.1555 0.0
H1919 H 0.57036 0.1409 0.22726 0.0
C1920 C 0.60592 0.16694 0.08098 0.0
C1921 C 0.61117 0.17404 0.13046 0.0
C1922 C 0.6018 0.15465 0.08452 0.0
C1923 C 0.60256 0.14928 0.13763 0.0
C1924 C 0.60746 0.1563 0.18718 0.0
H1925 H 0.58064 0.07647 0.24672 0.0
H1926 H 0.5864 0.09801 0.24265 0.0
C1927 C 0.61175 0.16856 0.18367 0.0
C1928 C 0.5992 0.13632 0.14108 0.0
H1929 H 0.56592 0.1124 0.18696 0.0
C1930 C 0.61419 0.13052 0.12076 0.0
C1931 C 0.58167 0.12978 0.16561 0.0
C1932 C 0.56516 0.13573 0.18762 0.0
C1933 C 0.61219 0.11826 0.12479 0.0
C1934 C 0.59444 0.11163 0.14826 0.0
C1935 C 0.57949 0.11749 0.1689 0.0
C1936 C 0.59096 0.0986 0.15081 0.0
C1937 C 0.62934 0.11259 0.10514 0.0
C1938 C 0.59131 0.0918 0.10048 0.0
C1939 C 0.58828 0.07953 0.10274 0.0
C1940 C 0.58448 0.07379 0.15534 0.0
C1941 C 0.58365 0.08061 0.2056 0.0
C1942 C 0.58689 0.09292 0.20333 0.0
H1943 H 0.64376 0.11902 0.10545 0.0
H1944 H 0.63098 0.1051 0.13269 0.0
H1945 H 0.62643 0.10919 0.06047 0.0
H1946 H 0.59383 0.09597 0.05928 0.0
H1947 H 0.58877 0.07456 0.06306 0.0
H1948 H 0.39103 0.83224 0.74711 0.0
H1949 H 0.38103 0.85146 0.74412 0.0
H1950 H 0.39125 0.85612 0.92644 0.0
H1951 H 0.40173 0.83714 0.92968 0.0
H1952 H 0.34931 0.85742 0.79824 0.0
H1953 H 0.41828 0.88785 0.87053 0.0
H1954 H 0.41827 0.87282 0.84799 0.0
H1955 H 0.41085 0.87611 0.9197 0.0
C1956 C 0.39153 0.83746 0.78639 0.0
C1957 C 0.39719 0.83314 0.83865 0.0
C1958 C 0.38576 0.84843 0.7846 0.0
C1959 C 0.38561 0.85529 0.83492 0.0
C1960 C 0.39172 0.85112 0.88682 0.0
H1961 H 0.33213 0.91323 0.94925 0.0
H1962 H 0.34546 0.89508 0.93775 0.0
C1963 C 0.39761 0.84021 0.88862 0.0
C1964 C 0.37752 0.86632 0.83429 0.0
H1965 H 0.38766 0.89534 0.87642 0.0
C1966 C 0.3578 0.86575 0.81458 0.0
C1967 C 0.38862 0.87719 0.85559 0.0
C1968 C 0.41024 0.87857 0.87408 0.0
C1969 C 0.34867 0.87566 0.81744 0.0
C1970 C 0.35954 0.88635 0.84067 0.0
C1971 C 0.37936 0.88704 0.8592 0.0
C1972 C 0.35048 0.89694 0.84659 0.0
C1973 C 0.32732 0.87462 0.79708 0.0
C1974 C 0.34879 0.90386 0.7989 0.0
C1975 C 0.34127 0.91425 0.80525 0.0
C1976 C 0.33528 0.91785 0.85948 0.0
C1977 C 0.33655 0.9107 0.9069 0.0
C1978 C 0.34421 0.90036 0.90052 0.0
H1979 H 0.32039 0.86543 0.78429 0.0
H1980 H 0.31815 0.87771 0.83146 0.0
H1981 H 0.32697 0.88036 0.75967 0.0
H1982 H 0.35363 0.90133 0.757 0.0
H1983 H 0.34045 0.91953 0.76782 0.0
loop_
_geom_bond_atom_site_label_1
_geom_bond_atom_site_label_2
_geom_bond_distance
_geom_bond_site_symmetry_2
_ccdc_geom_bond_type
Co0 O3 1.970 . S
Co0 N17 1.989 . S
Co0 O25 1.967 . S
Co0 O32 1.920 . S
Co1 O4 1.966 . S
Co1 N10 2.022 . S
Co1 N18 1.993 . S
Co1 O26 1.941 . S
C2 O3 1.258 . S
C2 O4 1.263 . S
O3 Co0 1.970 . S
O3 C2 1.258 . S
O4 Co1 1.966 . S
O4 C2 1.263 . S
C5 O6 1.235 . S
C5 O32 1.289 . S
O6 C5 1.235 . S
C7 C9 1.400 . S
C7 N10 1.351 . S
C7 C12 1.501 . S
C8 C9 1.387 . S
C8 N11 1.341 . S
C9 C7 1.400 . S
C9 C8 1.387 . S
N10 Co1 2.022 . S
N10 C7 1.351 . S
N10 N11 1.365 . S
N11 C8 1.341 . S
N11 N10 1.365 . S
N11 H31 0.862 . S
C12 C7 1.501 . S
C12 H13 0.961 . S
C12 H14 0.961 . S
C12 H15 0.960 . S
H13 C12 0.961 . S
H14 C12 0.961 . S
H15 C12 0.960 . S
C16 N17 1.342 . S
C16 C20 1.401 . S
C16 C21 1.499 . S
N17 Co0 1.989 . S
N17 C16 1.342 . S
N17 N18 1.388 . S
N18 Co1 1.993 . S
N18 N17 1.388 . S
N18 C19 1.346 . S
C19 N18 1.346 . S
C19 C20 1.396 . S
C19 C29 1.510 . S
C20 C16 1.401 . S
C20 C19 1.396 . S
C21 C16 1.499 . S
C21 H22 0.959 . S
C21 H23 0.960 . S
C21 H24 0.961 . S
H22 C21 0.959 . S
H23 C21 0.960 . S
H24 C21 0.961 . S
O25 Co0 1.967 . S
O25 C33 1.258 . S
O26 Co1 1.941 . S
O26 C33 1.266 . S
H27 C29 0.959 . S
H28 C29 0.961 . S
C29 C19 1.510 . S
C29 H27 0.959 . S
C29 H28 0.961 . S
C29 H30 0.960 . S
H30 C29 0.960 . S
H31 N11 0.862 . S
O32 Co0 1.920 . S
O32 C5 1.289 . S
C33 O25 1.258 . S
C33 O26 1.266 . S
Co34 O37 1.970 . S
Co34 N51 1.989 . S
Co34 O59 1.967 . S
Co34 O66 1.920 . S
Co35 O38 1.966 . S
Co35 N44 2.022 1_554 S
Co35 N52 1.993 . S
Co35 O60 1.941 . S
C36 O37 1.258 . S
C36 O38 1.263 . S
O37 Co34 1.970 . S
O37 C36 1.258 . S
O38 Co35 1.966 . S
O38 C36 1.263 . S
C39 O40 1.235 . S
C39 O66 1.289 . S
O40 C39 1.235 . S
C41 C43 1.400 . S
C41 N44 1.351 . S
C41 C46 1.501 . S
C42 C43 1.387 . S
C42 N45 1.341 . S
C43 C41 1.400 . S
C43 C42 1.387 . S
N44 Co35 2.022 1_556 S
N44 C41 1.351 . S
N44 N45 1.365 . S
N45 C42 1.341 . S
N45 N44 1.365 . S
N45 H65 0.862 . S
C46 C41 1.501 . S
C46 H47 0.961 . S
C46 H48 0.961 . S
C46 H49 0.960 . S
H47 C46 0.961 . S
H48 C46 0.961 . S
H49 C46 0.960 . S
C50 N51 1.342 . S
C50 C54 1.401 . S
C50 C55 1.499 . S
N51 Co34 1.989 . S
N51 C50 1.342 . S
N51 N52 1.388 . S
N52 Co35 1.993 . S
N52 N51 1.388 . S
N52 C53 1.346 . S
C53 N52 1.346 . S
C53 C54 1.396 . S
C53 C63 1.510 1_554 S
C54 C50 1.401 . S
C54 C53 1.396 . S
C55 C50 1.499 . S
C55 H56 0.959 . S
C55 H57 0.960 . S
C55 H58 0.961 . S
H56 C55 0.959 . S
H57 C55 0.960 . S
H58 C55 0.961 . S
O59 Co34 1.967 . S
O59 C67 1.258 . S
O60 Co35 1.941 . S
O60 C67 1.266 . S
H61 C63 0.959 . S
H62 C63 0.961 . S
C63 C53 1.510 1_556 S
C63 H61 0.959 . S
C63 H62 0.961 . S
C63 H64 0.960 . S
H64 C63 0.960 . S
H65 N45 0.862 . S
O66 Co34 1.920 . S
O66 C39 1.289 . S
C67 O59 1.258 . S
C67 O60 1.266 . S
Co68 O71 1.970 . S
Co68 N85 1.989 . S
Co68 O93 1.967 . S
Co68 O100 1.920 1_556 S
Co69 O72 1.966 . S
Co69 N78 2.022 . S
Co69 N86 1.993 . S
Co69 O94 1.941 . S
C70 O71 1.258 . S
C70 O72 1.263 . S
O71 Co68 1.970 . S
O71 C70 1.258 . S
O72 Co69 1.966 . S
O72 C70 1.263 . S
C73 O74 1.235 . S
C73 O100 1.289 . S
O74 C73 1.235 . S
C75 C77 1.400 . S
C75 N78 1.351 . S
C75 C80 1.501 . S
C76 C77 1.387 . S
C76 N79 1.341 . S
C77 C75 1.400 . S
C77 C76 1.387 . S
N78 Co69 2.022 . S
N78 C75 1.351 . S
N78 N79 1.365 . S
N79 C76 1.341 . S
N79 N78 1.365 . S
N79 H99 0.862 . S
C80 C75 1.501 . S
C80 H81 0.961 . S
C80 H82 0.961 . S
C80 H83 0.960 . S
H81 C80 0.961 . S
H82 C80 0.961 . S
H83 C80 0.960 . S
C84 N85 1.342 . S
C84 C88 1.401 . S
C84 C89 1.499 . S
N85 Co68 1.989 . S
N85 C84 1.342 . S
N85 N86 1.388 . S
N86 Co69 1.993 . S
N86 N85 1.388 . S
N86 C87 1.346 . S
C87 N86 1.346 . S
C87 C88 1.396 . S
C87 C97 1.510 . S
C88 C84 1.401 . S
C88 C87 1.396 . S
C89 C84 1.499 . S
C89 H90 0.959 . S
C89 H91 0.960 . S
C89 H92 0.961 . S
H90 C89 0.959 . S
H91 C89 0.960 . S
H92 C89 0.961 . S
O93 Co68 1.967 . S
O93 C101 1.258 . S
O94 Co69 1.941 . S
O94 C101 1.266 . S
H95 C97 0.959 . S
H96 C97 0.961 . S
C97 C87 1.510 . S
C97 H95 0.959 . S
C97 H96 0.961 . S
C97 H98 0.960 . S
H98 C97 0.960 . S
H99 N79 0.862 . S
O100 Co68 1.920 1_554 S
O100 C73 1.289 . S
C101 O93 1.258 . S
C101 O94 1.266 . S
Co102 O105 1.970 . S
Co102 N119 1.989 . S
Co102 O127 1.967 . S
Co102 O134 1.920 1_556 S
Co103 O106 1.966 . S
Co103 N112 2.022 . S
Co103 N120 1.993 . S
Co103 O128 1.941 . S
C104 O105 1.258 . S
C104 O106 1.263 . S
O105 Co102 1.970 . S
O105 C104 1.258 . S
O106 Co103 1.966 . S
O106 C104 1.263 . S
C107 O108 1.235 . S
C107 O134 1.289 . S
O108 C107 1.235 . S
C109 C111 1.400 . S
C109 N112 1.351 . S
C109 C114 1.501 . S
C110 C111 1.387 . S
C110 N113 1.341 . S
C111 C109 1.400 . S
C111 C110 1.387 . S
N112 Co103 2.022 . S
N112 C109 1.351 . S
N112 N113 1.365 . S
N113 C110 1.341 . S
N113 N112 1.365 . S
N113 H133 0.862 . S
C114 C109 1.501 . S
C114 H115 0.961 . S
C114 H116 0.961 . S
C114 H117 0.960 . S
H115 C114 0.961 . S
H116 C114 0.961 . S
H117 C114 0.960 . S
C118 N119 1.342 . S
C118 C122 1.401 . S
C118 C123 1.499 . S
N119 Co102 1.989 . S
N119 C118 1.342 . S
N119 N120 1.388 . S
N120 Co103 1.993 . S
N120 N119 1.388 . S
N120 C121 1.346 . S
C121 N120 1.346 . S
C121 C122 1.396 . S
C121 C131 1.510 . S
C122 C118 1.401 . S
C122 C121 1.396 . S
C123 C118 1.499 . S
C123 H124 0.959 . S
C123 H125 0.960 . S
C123 H126 0.961 . S
H124 C123 0.959 . S
H125 C123 0.960 . S
H126 C123 0.961 . S
O127 Co102 1.967 . S
O127 C135 1.258 . S
O128 Co103 1.941 . S
O128 C135 1.266 . S
H129 C131 0.959 . S
H130 C131 0.961 . S
C131 C121 1.510 . S
C131 H129 0.959 . S
C131 H130 0.961 . S
C131 H132 0.960 . S
H132 C131 0.960 . S
H133 N113 0.862 . S
O134 Co102 1.920 1_554 S
O134 C107 1.289 . S
C135 O127 1.258 . S
C135 O128 1.266 . S
Co136 O139 1.970 . S
Co136 N153 1.989 . S
Co136 O161 1.967 . S
Co136 O168 1.920 . S
Co137 O140 1.966 . S
Co137 N146 2.022 . S
Co137 N154 1.993 . S
Co137 O162 1.941 . S
C138 O139 1.258 . S
C138 O140 1.263 . S
O139 Co136 1.970 . S
O139 C138 1.258 . S
O140 Co137 1.966 . S
O140 C138 1.263 . S
C141 O142 1.235 . S
C141 O168 1.289 . S
O142 C141 1.235 . S
C143 C145 1.400 . S
C143 N146 1.351 . S
C143 C148 1.501 . S
C144 C145 1.387 . S
C144 N147 1.341 . S
C145 C143 1.400 . S
C145 C144 1.387 . S
N146 Co137 2.022 . S
N146 C143 1.351 . S
N146 N147 1.365 . S
N147 C144 1.341 . S
N147 N146 1.365 . S
N147 H167 0.862 . S
C148 C143 1.501 . S
C148 H149 0.961 . S
C148 H150 0.961 . S
C148 H151 0.960 . S
H149 C148 0.961 . S
H150 C148 0.961 . S
H151 C148 0.960 . S
C152 N153 1.342 . S
C152 C156 1.401 . S
C152 C157 1.499 . S
N153 Co136 1.989 . S
N153 C152 1.342 . S
N153 N154 1.388 . S
N154 Co137 1.993 . S
N154 N153 1.388 . S
N154 C155 1.346 . S
C155 N154 1.346 . S
C155 C156 1.396 . S
C155 C165 1.510 . S
C156 C152 1.401 . S
C156 C155 1.396 . S
C157 C152 1.499 . S
C157 H158 0.959 . S
C157 H159 0.960 . S
C157 H160 0.961 . S
H158 C157 0.959 . S
H159 C157 0.960 . S
H160 C157 0.961 . S
O161 Co136 1.967 . S
O161 C169 1.258 . S
O162 Co137 1.941 . S
O162 C169 1.266 . S
H163 C165 0.959 . S
H164 C165 0.961 . S
C165 C155 1.510 . S
C165 H163 0.959 . S
C165 H164 0.961 . S
C165 H166 0.960 . S
H166 C165 0.960 . S
H167 N147 0.862 . S
O168 Co136 1.920 . S
O168 C141 1.289 . S
C169 O161 1.258 . S
C169 O162 1.266 . S
Co170 O173 1.970 . S
Co170 N187 1.989 . S
Co170 O195 1.967 . S
Co170 O202 1.920 . S
Co171 O174 1.966 . S
Co171 N180 2.022 . S
Co171 N188 1.993 . S
Co171 O196 1.941 . S
C172 O173 1.258 . S
C172 O174 1.263 . S
O173 Co170 1.970 . S
O173 C172 1.258 . S
O174 Co171 1.966 . S
O174 C172 1.263 . S
C175 O176 1.235 . S
C175 O202 1.289 . S
O176 C175 1.235 . S
C177 C179 1.400 . S
C177 N180 1.351 . S
C177 C182 1.501 . S
C178 C179 1.387 . S
C178 N181 1.341 . S
C179 C177 1.400 . S
C179 C178 1.387 . S
N180 Co171 2.022 . S
N180 C177 1.351 . S
N180 N181 1.365 . S
N181 C178 1.341 . S
N181 N180 1.365 . S
N181 H201 0.862 . S
C182 C177 1.501 . S
C182 H183 0.961 . S
C182 H184 0.961 . S
C182 H185 0.960 . S
H183 C182 0.961 . S
H184 C182 0.961 . S
H185 C182 0.960 . S
C186 N187 1.342 . S
C186 C190 1.401 . S
C186 C191 1.499 . S
N187 Co170 1.989 . S
N187 C186 1.342 . S
N187 N188 1.388 . S
N188 Co171 1.993 . S
N188 N187 1.388 . S
N188 C189 1.346 . S
C189 N188 1.346 . S
C189 C190 1.396 . S
C189 C199 1.510 . S
C190 C186 1.401 . S
C190 C189 1.396 . S
C191 C186 1.499 . S
C191 H192 0.959 . S
C191 H193 0.960 . S
C191 H194 0.961 . S
H192 C191 0.959 . S
H193 C191 0.960 . S
H194 C191 0.961 . S
O195 Co170 1.967 . S
O195 C203 1.258 . S
O196 Co171 1.941 . S
O196 C203 1.266 . S
H197 C199 0.959 . S
H198 C199 0.961 . S
C199 C189 1.510 . S
C199 H197 0.959 . S
C199 H198 0.961 . S
C199 H200 0.960 . S
H200 C199 0.960 . S
H201 N181 0.862 . S
O202 Co170 1.920 . S
O202 C175 1.289 . S
C203 O195 1.258 . S
C203 O196 1.266 . S
Co204 O207 1.970 . S
Co204 N221 1.989 . S
Co204 O229 1.967 . S
Co204 O236 1.920 . S
Co205 O208 1.966 . S
Co205 N214 2.022 . S
Co205 N222 1.993 . S
Co205 O230 1.941 . S
C206 O207 1.258 . S
C206 O208 1.263 . S
O207 Co204 1.970 . S
O207 C206 1.258 . S
O208 Co205 1.966 . S
O208 C206 1.263 . S
C209 O210 1.235 . S
C209 O236 1.289 . S
O210 C209 1.235 . S
C211 C213 1.400 . S
C211 N214 1.351 . S
C211 C216 1.501 . S
C212 C213 1.387 . S
C212 N215 1.341 . S
C213 C211 1.400 . S
C213 C212 1.387 . S
N214 Co205 2.022 . S
N214 C211 1.351 . S
N214 N215 1.365 . S
N215 C212 1.341 . S
N215 N214 1.365 . S
N215 H235 0.862 . S
C216 C211 1.501 . S
C216 H217 0.961 . S
C216 H218 0.961 . S
C216 H219 0.960 . S
H217 C216 0.961 . S
H218 C216 0.961 . S
H219 C216 0.960 . S
C220 N221 1.342 . S
C220 C224 1.401 . S
C220 C225 1.499 . S
N221 Co204 1.989 . S
N221 C220 1.342 . S
N221 N222 1.388 . S
N222 Co205 1.993 . S
N222 N221 1.388 . S
N222 C223 1.346 . S
C223 N222 1.346 . S
C223 C224 1.396 . S
C223 C233 1.510 . S
C224 C220 1.401 . S
C224 C223 1.396 . S
C225 C220 1.499 . S
C225 H226 0.959 . S
C225 H227 0.960 . S
C225 H228 0.961 . S
H226 C225 0.959 . S
H227 C225 0.960 . S
H228 C225 0.961 . S
O229 Co204 1.967 . S
O229 C237 1.258 . S
O230 Co205 1.941 . S
O230 C237 1.266 . S
H231 C233 0.959 . S
H232 C233 0.961 . S
C233 C223 1.510 . S
C233 H231 0.959 . S
C233 H232 0.961 . S
C233 H234 0.960 . S
H234 C233 0.960 . S
H235 N215 0.862 . S
O236 Co204 1.920 . S
O236 C209 1.289 . S
C237 O229 1.258 . S
C237 O230 1.266 . S
Co238 O241 1.970 . S
Co238 N255 1.989 . S
Co238 O263 1.967 . S
Co238 O270 1.920 . S
Co239 O242 1.966 . S
Co239 N248 2.022 . S
Co239 N256 1.993 . S
Co239 O264 1.941 . S
C240 O241 1.258 . S
C240 O242 1.263 . S
O241 Co238 1.970 . S
O241 C240 1.258 . S
O242 Co239 1.966 . S
O242 C240 1.263 . S
C243 O244 1.235 . S
C243 O270 1.289 . S
O244 C243 1.235 . S
C245 C247 1.400 . S
C245 N248 1.351 . S
C245 C250 1.501 . S
C246 C247 1.387 . S
C246 N249 1.341 . S
C247 C245 1.400 . S
C247 C246 1.387 . S
N248 Co239 2.022 . S
N248 C245 1.351 . S
N248 N249 1.365 . S
N249 C246 1.341 . S
N249 N248 1.365 . S
N249 H269 0.862 . S
C250 C245 1.501 . S
C250 H251 0.961 . S
C250 H252 0.961 . S
C250 H253 0.960 . S
H251 C250 0.961 . S
H252 C250 0.961 . S
H253 C250 0.960 . S
C254 N255 1.342 . S
C254 C258 1.401 . S
C254 C259 1.499 . S
N255 Co238 1.989 . S
N255 C254 1.342 . S
N255 N256 1.388 . S
N256 Co239 1.993 . S
N256 N255 1.388 . S
N256 C257 1.346 . S
C257 N256 1.346 . S
C257 C258 1.396 . S
C257 C267 1.510 . S
C258 C254 1.401 . S
C258 C257 1.396 . S
C259 C254 1.499 . S
C259 H260 0.959 . S
C259 H261 0.960 . S
C259 H262 0.961 . S
H260 C259 0.959 . S
H261 C259 0.960 . S
H262 C259 0.961 . S
O263 Co238 1.967 . S
O263 C271 1.258 . S
O264 Co239 1.941 . S
O264 C271 1.266 . S
H265 C267 0.959 . S
H266 C267 0.961 . S
C267 C257 1.510 . S
C267 H265 0.959 . S
C267 H266 0.961 . S
C267 H268 0.960 . S
H268 C267 0.960 . S
H269 N249 0.862 . S
O270 Co238 1.920 . S
O270 C243 1.289 . S
C271 O263 1.258 . S
C271 O264 1.266 . S
Co272 O275 1.970 . S
Co272 N289 1.989 . S
Co272 O297 1.967 . S
Co272 O304 1.920 . S
Co273 O276 1.966 . S
Co273 N282 2.022 . S
Co273 N290 1.993 . S
Co273 O298 1.941 . S
C274 O275 1.258 . S
C274 O276 1.263 . S
O275 Co272 1.970 . S
O275 C274 1.258 . S
O276 Co273 1.966 . S
O276 C274 1.263 . S
C277 O278 1.235 . S
C277 O304 1.289 . S
O278 C277 1.235 . S
C279 C281 1.400 . S
C279 N282 1.351 . S
C279 C284 1.501 . S
C280 C281 1.387 . S
C280 N283 1.341 . S
C281 C279 1.400 . S
C281 C280 1.387 . S
N282 Co273 2.022 . S
N282 C279 1.351 . S
N282 N283 1.365 . S
N283 C280 1.341 . S
N283 N282 1.365 . S
N283 H303 0.862 . S
C284 C279 1.501 . S
C284 H285 0.961 . S
C284 H286 0.961 . S
C284 H287 0.960 . S
H285 C284 0.961 . S
H286 C284 0.961 . S
H287 C284 0.960 . S
C288 N289 1.342 . S
C288 C292 1.401 . S
C288 C293 1.499 . S
N289 Co272 1.989 . S
N289 C288 1.342 . S
N289 N290 1.388 . S
N290 Co273 1.993 . S
N290 N289 1.388 . S
N290 C291 1.346 . S
C291 N290 1.346 . S
C291 C292 1.396 . S
C291 C301 1.510 . S
C292 C288 1.401 . S
C292 C291 1.396 . S
C293 C288 1.499 . S
C293 H294 0.959 . S
C293 H295 0.960 . S
C293 H296 0.961 . S
H294 C293 0.959 . S
H295 C293 0.960 . S
H296 C293 0.961 . S
O297 Co272 1.967 . S
O297 C305 1.258 . S
O298 Co273 1.941 . S
O298 C305 1.266 . S
H299 C301 0.959 . S
H300 C301 0.961 . S
C301 C291 1.510 . S
C301 H299 0.959 . S
C301 H300 0.961 . S
C301 H302 0.960 . S
H302 C301 0.960 . S
H303 N283 0.862 . S
O304 Co272 1.920 . S
O304 C277 1.289 . S
C305 O297 1.258 . S
C305 O298 1.266 . S
Co306 O309 1.970 . S
Co306 N323 1.989 . S
Co306 O331 1.967 . S
Co306 O338 1.920 . S
Co307 O310 1.966 . S
Co307 N316 2.022 . S
Co307 N324 1.993 . S
Co307 O332 1.941 . S
C308 O309 1.258 . S
C308 O310 1.263 . S
O309 Co306 1.970 . S
O309 C308 1.258 . S
O310 Co307 1.966 . S
O310 C308 1.263 . S
C311 O312 1.235 . S
C311 O338 1.289 . S
O312 C311 1.235 . S
C313 C315 1.400 . S
C313 N316 1.351 . S
C313 C318 1.501 . S
C314 C315 1.387 . S
C314 N317 1.341 . S
C315 C313 1.400 . S
C315 C314 1.387 . S
N316 Co307 2.022 . S
N316 C313 1.351 . S
N316 N317 1.365 . S
N317 C314 1.341 . S
N317 N316 1.365 . S
N317 H337 0.862 . S
C318 C313 1.501 . S
C318 H319 0.961 . S
C318 H320 0.961 . S
C318 H321 0.960 . S
H319 C318 0.961 . S
H320 C318 0.961 . S
H321 C318 0.960 . S
C322 N323 1.342 . S
C322 C326 1.401 . S
C322 C327 1.499 . S
N323 Co306 1.989 . S
N323 C322 1.342 . S
N323 N324 1.388 . S
N324 Co307 1.993 . S
N324 N323 1.388 . S
N324 C325 1.346 . S
C325 N324 1.346 . S
C325 C326 1.396 . S
C325 C335 1.510 . S
C326 C322 1.401 . S
C326 C325 1.396 . S
C327 C322 1.499 . S
C327 H328 0.959 . S
C327 H329 0.960 . S
C327 H330 0.961 . S
H328 C327 0.959 . S
H329 C327 0.960 . S
H330 C327 0.961 . S
O331 Co306 1.967 . S
O331 C339 1.258 . S
O332 Co307 1.941 . S
O332 C339 1.266 . S
H333 C335 0.959 . S
H334 C335 0.961 . S
C335 C325 1.510 . S
C335 H333 0.959 . S
C335 H334 0.961 . S
C335 H336 0.960 . S
H336 C335 0.960 . S
H337 N317 0.862 . S
O338 Co306 1.920 . S
O338 C311 1.289 . S
C339 O331 1.258 . S
C339 O332 1.266 . S
Co340 O343 1.970 . S
Co340 N357 1.989 . S
Co340 O365 1.967 . S
Co340 O372 1.920 . S
Co341 O344 1.966 . S
Co341 N350 2.022 . S
Co341 N358 1.993 . S
Co341 O366 1.941 . S
C342 O343 1.258 . S
C342 O344 1.263 . S
O343 Co340 1.970 . S
O343 C342 1.258 . S
O344 Co341 1.966 . S
O344 C342 1.263 . S
C345 O346 1.235 . S
C345 O372 1.289 . S
O346 C345 1.235 . S
C347 C349 1.400 . S
C347 N350 1.351 . S
C347 C352 1.501 . S
C348 C349 1.387 . S
C348 N351 1.341 . S
C349 C347 1.400 . S
C349 C348 1.387 . S
N350 Co341 2.022 . S
N350 C347 1.351 . S
N350 N351 1.365 . S
N351 C348 1.341 . S
N351 N350 1.365 . S
N351 H371 0.862 . S
C352 C347 1.501 . S
C352 H353 0.961 . S
C352 H354 0.961 . S
C352 H355 0.960 . S
H353 C352 0.961 . S
H354 C352 0.961 . S
H355 C352 0.960 . S
C356 N357 1.342 . S
C356 C360 1.401 . S
C356 C361 1.499 . S
N357 Co340 1.989 . S
N357 C356 1.342 . S
N357 N358 1.388 . S
N358 Co341 1.993 . S
N358 N357 1.388 . S
N358 C359 1.346 . S
C359 N358 1.346 . S
C359 C360 1.396 . S
C359 C369 1.510 . S
C360 C356 1.401 . S
C360 C359 1.396 . S
C361 C356 1.499 . S
C361 H362 0.959 . S
C361 H363 0.960 . S
C361 H364 0.961 . S
H362 C361 0.959 . S
H363 C361 0.960 . S
H364 C361 0.961 . S
O365 Co340 1.967 . S
O365 C373 1.258 . S
O366 Co341 1.941 . S
O366 C373 1.266 . S
H367 C369 0.959 . S
H368 C369 0.961 . S
C369 C359 1.510 . S
C369 H367 0.959 . S
C369 H368 0.961 . S
C369 H370 0.960 . S
H370 C369 0.960 . S
H371 N351 0.862 . S
O372 Co340 1.920 . S
O372 C345 1.289 . S
C373 O365 1.258 . S
C373 O366 1.266 . S
Co374 O377 1.970 . S
Co374 N391 1.989 . S
Co374 O399 1.967 . S
Co374 O406 1.920 . S
Co375 O378 1.966 . S
Co375 N384 2.022 . S
Co375 N392 1.993 . S
Co375 O400 1.941 . S
C376 O377 1.258 . S
C376 O378 1.263 . S
O377 Co374 1.970 . S
O377 C376 1.258 . S
O378 Co375 1.966 . S
O378 C376 1.263 . S
C379 O380 1.235 . S
C379 O406 1.289 . S
O380 C379 1.235 . S
C381 C383 1.400 . S
C381 N384 1.351 . S
C381 C386 1.501 . S
C382 C383 1.387 . S
C382 N385 1.341 . S
C383 C381 1.400 . S
C383 C382 1.387 . S
N384 Co375 2.022 . S
N384 C381 1.351 . S
N384 N385 1.365 . S
N385 C382 1.341 . S
N385 N384 1.365 . S
N385 H405 0.862 . S
C386 C381 1.501 . S
C386 H387 0.961 . S
C386 H388 0.961 . S
C386 H389 0.960 . S
H387 C386 0.961 . S
H388 C386 0.961 . S
H389 C386 0.960 . S
C390 N391 1.342 . S
C390 C394 1.401 . S
C390 C395 1.499 . S
N391 Co374 1.989 . S
N391 C390 1.342 . S
N391 N392 1.388 . S
N392 Co375 1.993 . S
N392 N391 1.388 . S
N392 C393 1.346 . S
C393 N392 1.346 . S
C393 C394 1.396 . S
C393 C403 1.510 . S
C394 C390 1.401 . S
C394 C393 1.396 . S
C395 C390 1.499 . S
C395 H396 0.959 . S
C395 H397 0.960 . S
C395 H398 0.961 . S
H396 C395 0.959 . S
H397 C395 0.960 . S
H398 C395 0.961 . S
O399 Co374 1.967 . S
O399 C407 1.258 . S
O400 Co375 1.941 . S
O400 C407 1.266 . S
H401 C403 0.959 . S
H402 C403 0.961 . S
C403 C393 1.510 . S
C403 H401 0.959 . S
C403 H402 0.961 . S
C403 H404 0.960 . S
H404 C403 0.960 . S
H405 N385 0.862 . S
O406 Co374 1.920 . S
O406 C379 1.289 . S
C407 O399 1.258 . S
C407 O400 1.266 . S
Co408 O411 1.970 . S
Co408 N425 1.989 . S
Co408 O433 1.967 . S
Co408 O440 1.920 . S
Co409 O412 1.966 . S
Co409 N418 2.022 . S
Co409 N426 1.993 . S
Co409 O434 1.941 . S
C410 O411 1.258 . S
C410 O412 1.263 . S
O411 Co408 1.970 . S
O411 C410 1.258 . S
O412 Co409 1.966 . S
O412 C410 1.263 . S
C413 O414 1.235 . S
C413 O440 1.289 . S
O414 C413 1.235 . S
C415 C417 1.400 . S
C415 N418 1.351 . S
C415 C420 1.501 . S
C416 C417 1.387 . S
C416 N419 1.341 . S
C417 C415 1.400 . S
C417 C416 1.387 . S
N418 Co409 2.022 . S
N418 C415 1.351 . S
N418 N419 1.365 . S
N419 C416 1.341 . S
N419 N418 1.365 . S
N419 H439 0.862 . S
C420 C415 1.501 . S
C420 H421 0.961 . S
C420 H422 0.961 . S
C420 H423 0.960 . S
H421 C420 0.961 . S
H422 C420 0.961 . S
H423 C420 0.960 . S
C424 N425 1.342 . S
C424 C428 1.401 . S
C424 C429 1.499 . S
N425 Co408 1.989 . S
N425 C424 1.342 . S
N425 N426 1.388 . S
N426 Co409 1.993 . S
N426 N425 1.388 . S
N426 C427 1.346 . S
C427 N426 1.346 . S
C427 C428 1.396 . S
C427 C437 1.510 . S
C428 C424 1.401 . S
C428 C427 1.396 . S
C429 C424 1.499 . S
C429 H430 0.959 . S
C429 H431 0.960 . S
C429 H432 0.961 . S
H430 C429 0.959 . S
H431 C429 0.960 . S
H432 C429 0.961 . S
O433 Co408 1.967 . S
O433 C441 1.258 . S
O434 Co409 1.941 . S
O434 C441 1.266 . S
H435 C437 0.959 . S
H436 C437 0.961 . S
C437 C427 1.510 . S
C437 H435 0.959 . S
C437 H436 0.961 . S
C437 H438 0.960 . S
H438 C437 0.960 . S
H439 N419 0.862 . S
O440 Co408 1.920 . S
O440 C413 1.289 . S
C441 O433 1.258 . S
C441 O434 1.266 . S
Co442 O445 1.970 . S
Co442 N459 1.989 . S
Co442 O467 1.967 . S
Co442 O474 1.920 . S
Co443 O446 1.966 . S
Co443 N452 2.022 1_554 S
Co443 N460 1.993 . S
Co443 O468 1.941 . S
C444 O445 1.258 . S
C444 O446 1.263 . S
O445 Co442 1.970 . S
O445 C444 1.258 . S
O446 Co443 1.966 . S
O446 C444 1.263 . S
C447 O448 1.235 . S
C447 O474 1.289 . S
O448 C447 1.235 . S
C449 C451 1.400 . S
C449 N452 1.351 . S
C449 C454 1.501 . S
C450 C451 1.387 . S
C450 N453 1.341 . S
C451 C449 1.400 . S
C451 C450 1.387 . S
N452 Co443 2.022 1_556 S
N452 C449 1.351 . S
N452 N453 1.365 . S
N453 C450 1.341 . S
N453 N452 1.365 . S
N453 H473 0.862 . S
C454 C449 1.501 . S
C454 H455 0.961 . S
C454 H456 0.961 . S
C454 H457 0.960 . S
H455 C454 0.961 . S
H456 C454 0.961 . S
H457 C454 0.960 . S
C458 N459 1.342 . S
C458 C462 1.401 . S
C458 C463 1.499 . S
N459 Co442 1.989 . S
N459 C458 1.342 . S
N459 N460 1.388 . S
N460 Co443 1.993 . S
N460 N459 1.388 . S
N460 C461 1.346 . S
C461 N460 1.346 . S
C461 C462 1.396 . S
C461 C471 1.510 1_554 S
C462 C458 1.401 . S
C462 C461 1.396 . S
C463 C458 1.499 . S
C463 H464 0.959 . S
C463 H465 0.960 . S
C463 H466 0.961 . S
H464 C463 0.959 . S
H465 C463 0.960 . S
H466 C463 0.961 . S
O467 Co442 1.967 . S
O467 C475 1.258 . S
O468 Co443 1.941 . S
O468 C475 1.266 . S
H469 C471 0.959 . S
H470 C471 0.961 . S
C471 C461 1.510 1_556 S
C471 H469 0.959 . S
C471 H470 0.961 . S
C471 H472 0.960 . S
H472 C471 0.960 . S
H473 N453 0.862 . S
O474 Co442 1.920 . S
O474 C447 1.289 . S
C475 O467 1.258 . S
C475 O468 1.266 . S
Co476 O479 1.970 . S
Co476 N493 1.989 . S
Co476 O501 1.967 . S
Co476 O508 1.920 1_556 S
Co477 O480 1.966 . S
Co477 N486 2.022 . S
Co477 N494 1.993 . S
Co477 O502 1.941 . S
C478 O479 1.258 . S
C478 O480 1.263 . S
O479 Co476 1.970 . S
O479 C478 1.258 . S
O480 Co477 1.966 . S
O480 C478 1.263 . S
C481 O482 1.235 . S
C481 O508 1.289 . S
O482 C481 1.235 . S
C483 C485 1.400 . S
C483 N486 1.351 . S
C483 C488 1.501 . S
C484 C485 1.387 . S
C484 N487 1.341 . S
C485 C483 1.400 . S
C485 C484 1.387 . S
N486 Co477 2.022 . S
N486 C483 1.351 . S
N486 N487 1.365 . S
N487 C484 1.341 . S
N487 N486 1.365 . S
N487 H507 0.862 . S
C488 C483 1.501 . S
C488 H489 0.961 . S
C488 H490 0.961 . S
C488 H491 0.960 . S
H489 C488 0.961 . S
H490 C488 0.961 . S
H491 C488 0.960 . S
C492 N493 1.342 . S
C492 C496 1.401 . S
C492 C497 1.499 . S
N493 Co476 1.989 . S
N493 C492 1.342 . S
N493 N494 1.388 . S
N494 Co477 1.993 . S
N494 N493 1.388 . S
N494 C495 1.346 . S
C495 N494 1.346 . S
C495 C496 1.396 . S
C495 C505 1.510 . S
C496 C492 1.401 . S
C496 C495 1.396 . S
C497 C492 1.499 . S
C497 H498 0.959 . S
C497 H499 0.960 . S
C497 H500 0.961 . S
H498 C497 0.959 . S
H499 C497 0.960 . S
H500 C497 0.961 . S
O501 Co476 1.967 . S
O501 C509 1.258 . S
O502 Co477 1.941 . S
O502 C509 1.266 . S
H503 C505 0.959 . S
H504 C505 0.961 . S
C505 C495 1.510 . S
C505 H503 0.959 . S
C505 H504 0.961 . S
C505 H506 0.960 . S
H506 C505 0.960 . S
H507 N487 0.862 . S
O508 Co476 1.920 1_554 S
O508 C481 1.289 . S
C509 O501 1.258 . S
C509 O502 1.266 . S
Co510 O513 1.970 . S
Co510 N527 1.989 . S
Co510 O535 1.967 . S
Co510 O542 1.920 1_556 S
Co511 O514 1.966 . S
Co511 N520 2.022 . S
Co511 N528 1.993 . S
Co511 O536 1.941 . S
C512 O513 1.258 . S
C512 O514 1.263 . S
O513 Co510 1.970 . S
O513 C512 1.258 . S
O514 Co511 1.966 . S
O514 C512 1.263 . S
C515 O516 1.235 . S
C515 O542 1.289 . S
O516 C515 1.235 . S
C517 C519 1.400 . S
C517 N520 1.351 . S
C517 C522 1.501 . S
C518 C519 1.387 . S
C518 N521 1.341 . S
C519 C517 1.400 . S
C519 C518 1.387 . S
N520 Co511 2.022 . S
N520 C517 1.351 . S
N520 N521 1.365 . S
N521 C518 1.341 . S
N521 N520 1.365 . S
N521 H541 0.862 . S
C522 C517 1.501 . S
C522 H523 0.961 . S
C522 H524 0.961 . S
C522 H525 0.960 . S
H523 C522 0.961 . S
H524 C522 0.961 . S
H525 C522 0.960 . S
C526 N527 1.342 . S
C526 C530 1.401 . S
C526 C531 1.499 . S
N527 Co510 1.989 . S
N527 C526 1.342 . S
N527 N528 1.388 . S
N528 Co511 1.993 . S
N528 N527 1.388 . S
N528 C529 1.346 . S
C529 N528 1.346 . S
C529 C530 1.396 . S
C529 C539 1.510 . S
C530 C526 1.401 . S
C530 C529 1.396 . S
C531 C526 1.499 . S
C531 H532 0.959 . S
C531 H533 0.960 . S
C531 H534 0.961 . S
H532 C531 0.959 . S
H533 C531 0.960 . S
H534 C531 0.961 . S
O535 Co510 1.967 . S
O535 C543 1.258 . S
O536 Co511 1.941 . S
O536 C543 1.266 . S
H537 C539 0.959 . S
H538 C539 0.961 . S
C539 C529 1.510 . S
C539 H537 0.959 . S
C539 H538 0.961 . S
C539 H540 0.960 . S
H540 C539 0.960 . S
H541 N521 0.862 . S
O542 Co510 1.920 1_554 S
O542 C515 1.289 . S
C543 O535 1.258 . S
C543 O536 1.266 . S
H544 C552 0.929 . S
H545 C554 0.930 . S
H546 C556 0.930 . S
H547 C559 0.929 . S
H548 C562 0.930 . S
H549 C564 0.960 . S
H550 C564 0.960 . S
H551 C564 0.960 . S
C552 H544 0.929 . S
C552 C553 1.377 . S
C552 C554 1.384 . S
C553 C552 1.377 . S
C553 C559 1.390 . S
C554 H545 0.930 . S
C554 C552 1.384 . S
C554 C555 1.372 . S
C555 C554 1.372 . S
C555 C556 1.400 . S
C555 C560 1.490 . S
C556 H546 0.930 . S
C556 C555 1.400 . S
C556 C559 1.386 . S
H557 C573 0.930 . S
H558 C574 0.931 . S
C559 H547 0.929 . S
C559 C553 1.390 . S
C559 C556 1.386 . S
C560 C555 1.490 . S
C560 C562 1.395 . S
C560 C563 1.403 . S
H561 C567 0.930 . S
C562 H548 0.930 . S
C562 C560 1.395 . S
C562 C565 1.403 . S
C563 C560 1.403 . S
C563 C564 1.524 . S
C563 C567 1.400 . S
C564 H549 0.960 . S
C564 H550 0.960 . S
C564 H551 0.960 . S
C564 C563 1.524 . S
C565 C562 1.403 . S
C565 C566 1.392 . S
C565 C569 1.495 . S
C566 C565 1.392 . S
C566 C567 1.385 . S
C566 C568 1.478 . S
C567 H561 0.930 . S
C567 C563 1.400 . S
C567 C566 1.385 . S
C568 C566 1.478 . S
C568 C570 1.381 . S
C568 C574 1.383 . S
C569 C565 1.495 . S
C569 H575 0.959 . S
C569 H576 0.961 . S
C569 H577 0.960 . S
C570 C568 1.381 . S
C570 C571 1.394 . S
C570 H578 0.930 . S
C571 C570 1.394 . S
C571 C572 1.383 . S
C571 H579 0.929 . S
C572 C571 1.383 . S
C572 C573 1.377 . S
C573 H557 0.930 . S
C573 C572 1.377 . S
C573 C574 1.379 . S
C574 H558 0.931 . S
C574 C568 1.383 . S
C574 C573 1.379 . S
H575 C569 0.959 . S
H576 C569 0.961 . S
H577 C569 0.960 . S
H578 C570 0.930 . S
H579 C571 0.929 . S
H580 C588 0.929 . S
H581 C590 0.930 . S
H582 C592 0.930 . S
H583 C595 0.929 . S
H584 C598 0.930 . S
H585 C600 0.960 1_655 S
H586 C600 0.960 . S
H587 C600 0.960 . S
C588 H580 0.929 . S
C588 C589 1.377 . S
C588 C590 1.384 . S
C589 C588 1.377 . S
C589 C595 1.390 . S
C590 H581 0.930 . S
C590 C588 1.384 . S
C590 C591 1.372 . S
C591 C590 1.372 . S
C591 C592 1.400 . S
C591 C596 1.490 . S
C592 H582 0.930 . S
C592 C591 1.400 . S
C592 C595 1.386 . S
H593 C609 0.930 . S
H594 C610 0.931 . S
C595 H583 0.929 . S
C595 C589 1.390 . S
C595 C592 1.386 . S
C596 C591 1.490 . S
C596 C598 1.395 . S
C596 C599 1.403 . S
H597 C603 0.930 1_655 S
C598 H584 0.930 . S
C598 C596 1.395 . S
C598 C601 1.403 . S
C599 C596 1.403 . S
C599 C600 1.524 . S
C599 C603 1.400 . S
C600 H585 0.960 1_455 S
C600 H586 0.960 . S
C600 H587 0.960 . S
C600 C599 1.524 . S
C601 C598 1.403 . S
C601 C602 1.392 . S
C601 C605 1.495 . S
C602 C601 1.392 . S
C602 C603 1.385 . S
C602 C604 1.489 . S
C603 H597 0.930 1_455 S
C603 C599 1.400 . S
C603 C602 1.385 . S
C604 C602 1.489 . S
C604 C606 1.376 1_455 S
C604 C610 1.372 1_455 S
C605 C601 1.495 . S
C605 H611 0.959 . S
C605 H612 0.961 . S
C605 H613 0.960 . S
C606 C604 1.376 1_655 S
C606 C607 1.438 . S
C606 H614 0.892 1_655 S
C607 C606 1.438 . S
C607 C608 1.383 . S
C607 H615 0.929 . S
C608 C607 1.383 . S
C608 C609 1.377 . S
C609 H593 0.930 . S
C609 C608 1.377 . S
C609 C610 1.379 . S
C610 H594 0.931 . S
C610 C604 1.372 1_655 S
C610 C609 1.379 . S
H611 C605 0.959 . S
H612 C605 0.961 . S
H613 C605 0.960 . S
H614 C606 0.892 1_455 S
H615 C607 0.929 . S
H616 C624 0.929 . S
H617 C626 0.930 . S
H618 C628 0.930 1_554 S
H619 C631 0.929 . S
H620 C634 0.930 . S
H621 C636 0.960 . S
H622 C636 0.960 1_556 S
H623 C636 0.960 . S
C624 H616 0.929 . S
C624 C625 1.377 . S
C624 C626 1.384 . S
C625 C624 1.377 . S
C625 C631 1.390 . S
C626 H617 0.930 . S
C626 C624 1.384 . S
C626 C627 1.372 . S
C627 C626 1.372 . S
C627 C628 1.400 . S
C627 C632 1.490 . S
C628 H618 0.930 1_556 S
C628 C627 1.400 . S
C628 C631 1.386 . S
H629 C645 0.930 . S
H630 C646 0.931 . S
C631 H619 0.929 . S
C631 C625 1.390 . S
C631 C628 1.386 . S
C632 C627 1.490 . S
C632 C634 1.395 . S
C632 C635 1.403 . S
H633 C639 0.930 . S
C634 H620 0.930 . S
C634 C632 1.395 . S
C634 C637 1.403 . S
C635 C632 1.403 . S
C635 C636 1.524 1_556 S
C635 C639 1.400 1_556 S
C636 H621 0.960 . S
C636 H622 0.960 1_554 S
C636 H623 0.960 . S
C636 C635 1.524 1_554 S
C637 C634 1.403 . S
C637 C638 1.392 . S
C637 C641 1.495 . S
C638 C637 1.392 . S
C638 C639 1.385 1_556 S
C638 C640 1.478 1_556 S
C639 H633 0.930 . S
C639 C635 1.400 1_554 S
C639 C638 1.385 1_554 S
C640 C638 1.478 1_554 S
C640 C642 1.381 1_554 S
C640 C646 1.383 . S
C641 C637 1.495 . S
C641 H647 0.959 . S
C641 H648 0.961 . S
C641 H649 0.960 . S
C642 C640 1.381 1_556 S
C642 C643 1.394 1_556 S
C642 H650 0.930 . S
C643 C642 1.394 1_554 S
C643 C644 1.383 . S
C643 H651 0.929 1_554 S
C644 C643 1.383 . S
C644 C645 1.377 . S
C645 H629 0.930 . S
C645 C644 1.377 . S
C645 C646 1.379 . S
C646 H630 0.931 . S
C646 C640 1.383 . S
C646 C645 1.379 . S
H647 C641 0.959 . S
H648 C641 0.961 . S
H649 C641 0.960 . S
H650 C642 0.930 . S
H651 C643 0.929 1_556 S
H652 C660 0.929 . S
H653 C662 0.930 . S
H654 C664 0.930 1_554 S
H655 C667 0.929 . S
H656 C670 0.930 . S
H657 C672 0.965 . S
H658 C672 0.960 . S
H659 C672 0.960 1_554 S
C660 H652 0.929 . S
C660 C661 1.377 . S
C660 C662 1.384 . S
C661 C660 1.377 . S
C661 C667 1.390 . S
C662 H653 0.930 . S
C662 C660 1.384 . S
C662 C663 1.372 . S
C663 C662 1.372 . S
C663 C664 1.400 . S
C663 C668 1.490 1_556 S
C664 H654 0.930 1_556 S
C664 C663 1.400 . S
C664 C667 1.386 . S
H665 C681 0.930 . S
H666 C682 0.931 . S
C667 H655 0.929 . S
C667 C661 1.390 . S
C667 C664 1.386 . S
C668 C663 1.490 1_554 S
C668 C670 1.395 . S
C668 C671 1.403 . S
H669 C675 0.930 . S
C670 H656 0.930 . S
C670 C668 1.395 . S
C670 C673 1.403 . S
C671 C668 1.403 . S
C671 C672 1.524 1_554 S
C671 C675 1.400 . S
C672 H657 0.965 . S
C672 H658 0.960 . S
C672 H659 0.960 1_556 S
C672 C671 1.524 1_556 S
C673 C670 1.403 . S
C673 C674 1.392 . S
C673 C677 1.495 . S
C674 C673 1.392 . S
C674 C675 1.385 . S
C674 C676 1.478 . S
C675 H669 0.930 . S
C675 C671 1.400 . S
C675 C674 1.385 . S
C676 C674 1.478 . S
C676 C678 1.381 . S
C676 C682 1.383 . S
C677 C673 1.495 . S
C677 H683 0.959 . S
C677 H684 0.961 . S
C677 H685 0.960 . S
C678 C676 1.381 . S
C678 C679 1.394 1_655 S
C678 H686 0.930 . S
C679 C678 1.394 1_455 S
C679 C680 1.383 . S
C679 H687 0.929 . S
C680 C679 1.383 . S
C680 C681 1.377 . S
C681 H665 0.930 . S
C681 C680 1.377 . S
C681 C682 1.379 1_455 S
C682 H666 0.931 . S
C682 C676 1.383 . S
C682 C681 1.379 1_655 S
H683 C677 0.959 . S
H684 C677 0.961 . S
H685 C677 0.960 . S
H686 C678 0.930 . S
H687 C679 0.929 . S
H688 C696 0.929 . S
H689 C698 0.930 . S
H690 C700 0.930 . S
H691 C703 0.929 . S
H692 C706 0.930 . S
H693 C708 0.960 . S
H694 C708 0.960 . S
H695 C708 0.960 . S
C696 H688 0.929 . S
C696 C697 1.377 . S
C696 C698 1.384 . S
C697 C696 1.377 . S
C697 C703 1.390 . S
C698 H689 0.930 . S
C698 C696 1.384 . S
C698 C699 1.372 . S
C699 C698 1.372 . S
C699 C700 1.400 . S
C699 C704 1.490 . S
C700 H690 0.930 . S
C700 C699 1.400 . S
C700 C703 1.386 . S
H701 C717 0.930 . S
H702 C718 0.931 . S
C703 H691 0.929 . S
C703 C697 1.390 . S
C703 C700 1.386 . S
C704 C699 1.490 . S
C704 C706 1.395 . S
C704 C707 1.403 . S
H705 C711 0.930 . S
C706 H692 0.930 . S
C706 C704 1.395 . S
C706 C709 1.403 . S
C707 C704 1.403 . S
C707 C708 1.524 . S
C707 C711 1.400 . S
C708 H693 0.960 . S
C708 H694 0.960 . S
C708 H695 0.960 . S
C708 C707 1.524 . S
C709 C706 1.403 . S
C709 C710 1.392 . S
C709 C713 1.495 . S
C710 C709 1.392 . S
C710 C711 1.385 . S
C710 C712 1.478 . S
C711 H705 0.930 . S
C711 C707 1.400 . S
C711 C710 1.385 . S
C712 C710 1.478 . S
C712 C714 1.381 . S
C712 C718 1.383 . S
C713 C709 1.495 . S
C713 H719 0.959 . S
C713 H720 0.961 . S
C713 H721 0.960 . S
C714 C712 1.381 . S
C714 C715 1.394 . S
C714 H722 0.930 . S
C715 C714 1.394 . S
C715 C716 1.383 . S
C715 H723 0.929 . S
C716 C715 1.383 . S
C716 C717 1.377 . S
C717 H701 0.930 . S
C717 C716 1.377 . S
C717 C718 1.379 . S
C718 H702 0.931 . S
C718 C712 1.383 . S
C718 C717 1.379 . S
H719 C713 0.959 . S
H720 C713 0.961 . S
H721 C713 0.960 . S
H722 C714 0.930 . S
H723 C715 0.929 . S
H724 C732 0.929 . S
H725 C734 0.930 . S
H726 C736 0.930 . S
H727 C739 0.929 . S
H728 C742 0.930 . S
H729 C744 0.960 1_655 S
H730 C744 0.960 . S
H731 C744 0.960 . S
C732 H724 0.929 . S
C732 C733 1.377 . S
C732 C734 1.384 . S
C733 C732 1.377 . S
C733 C739 1.390 . S
C734 H725 0.930 . S
C734 C732 1.384 . S
C734 C735 1.372 . S
C735 C734 1.372 . S
C735 C736 1.400 . S
C735 C740 1.490 . S
C736 H726 0.930 . S
C736 C735 1.400 . S
C736 C739 1.386 . S
H737 C753 0.930 . S
H738 C754 0.931 . S
C739 H727 0.929 . S
C739 C733 1.390 . S
C739 C736 1.386 . S
C740 C735 1.490 . S
C740 C742 1.395 . S
C740 C743 1.403 . S
H741 C747 0.930 1_655 S
C742 H728 0.930 . S
C742 C740 1.395 . S
C742 C745 1.403 . S
C743 C740 1.403 . S
C743 C744 1.524 . S
C743 C747 1.400 . S
C744 H729 0.960 1_455 S
C744 H730 0.960 . S
C744 H731 0.960 . S
C744 C743 1.524 . S
C745 C742 1.403 . S
C745 C746 1.392 . S
C745 C749 1.495 . S
C746 C745 1.392 . S
C746 C747 1.385 . S
C746 C748 1.476 . S
C747 H741 0.930 1_455 S
C747 C743 1.400 . S
C747 C746 1.385 . S
C748 C746 1.476 . S
C748 C750 1.381 . S
C748 C754 1.385 1_455 S
C749 C745 1.495 . S
C749 H755 0.959 . S
C749 H756 0.961 . S
C749 H757 0.960 . S
C750 C748 1.381 . S
C750 C751 1.394 1_455 S
C750 H758 0.930 . S
C751 C750 1.394 1_655 S
C751 C752 1.383 . S
C751 H759 0.929 . S
C752 C751 1.383 . S
C752 C753 1.377 . S
C753 H737 0.930 . S
C753 C752 1.377 . S
C753 C754 1.379 . S
C754 H738 0.931 . S
C754 C748 1.385 1_655 S
C754 C753 1.379 . S
H755 C749 0.959 . S
H756 C749 0.961 . S
H757 C749 0.960 . S
H758 C750 0.930 . S
H759 C751 0.929 . S
H760 C768 0.929 . S
H761 C770 0.931 . S
H762 C772 0.930 . S
H763 C775 0.929 . S
H764 C778 0.930 . S
H765 C780 0.960 . S
H766 C780 0.960 . S
H767 C780 0.960 . S
C768 H760 0.929 . S
C768 C769 1.377 . S
C768 C770 1.383 1_554 S
C769 C768 1.377 . S
C769 C775 1.390 . S
C770 H761 0.931 . S
C770 C768 1.383 1_556 S
C770 C771 1.371 1_556 S
C771 C770 1.371 1_554 S
C771 C772 1.400 . S
C771 C776 1.490 1_554 S
C772 H762 0.930 . S
C772 C771 1.400 . S
C772 C775 1.386 . S
H773 C789 0.930 . S
H774 C790 0.931 . S
C775 H763 0.929 . S
C775 C769 1.390 . S
C775 C772 1.386 . S
C776 C771 1.490 1_556 S
C776 C778 1.395 1_556 S
C776 C779 1.403 . S
H777 C783 0.930 . S
C778 H764 0.930 . S
C778 C776 1.395 1_554 S
C778 C781 1.403 1_554 S
C779 C776 1.403 . S
C779 C780 1.524 . S
C779 C783 1.400 . S
C780 H765 0.960 . S
C780 H766 0.960 . S
C780 H767 0.960 . S
C780 C779 1.524 . S
C781 C778 1.403 1_556 S
C781 C782 1.392 . S
C781 C785 1.495 1_556 S
C782 C781 1.392 . S
C782 C783 1.385 . S
C782 C784 1.478 . S
C783 H777 0.930 . S
C783 C779 1.400 . S
C783 C782 1.385 . S
C784 C782 1.478 . S
C784 C786 1.381 . S
C784 C790 1.383 . S
C785 C781 1.495 1_554 S
C785 H791 0.959 . S
C785 H792 0.961 . S
C785 H793 0.960 1_554 S
C786 C784 1.381 . S
C786 C787 1.394 . S
C786 H794 0.930 . S
C787 C786 1.394 . S
C787 C788 1.383 . S
C787 H795 0.929 . S
C788 C787 1.383 . S
C788 C789 1.377 . S
C789 H773 0.930 . S
C789 C788 1.377 . S
C789 C790 1.379 . S
C790 H774 0.931 . S
C790 C784 1.383 . S
C790 C789 1.379 . S
H791 C785 0.959 . S
H792 C785 0.961 . S
H793 C785 0.960 1_556 S
H794 C786 0.930 . S
H795 C787 0.929 . S
H796 C804 0.929 . S
H797 C806 0.930 . S
H798 C808 0.930 . S
H799 C811 0.929 . S
H800 C814 0.930 . S
H801 C816 0.938 1_545 S
H802 C816 0.984 . S
H803 C816 0.954 1_545 S
C804 H796 0.929 . S
C804 C805 1.377 . S
C804 C806 1.384 . S
C805 C804 1.377 . S
C805 C811 1.390 . S
C806 H797 0.930 . S
C806 C804 1.384 . S
C806 C807 1.372 . S
C807 C806 1.372 . S
C807 C808 1.400 . S
C807 C812 1.490 . S
C808 H798 0.930 . S
C808 C807 1.400 . S
C808 C811 1.386 . S
H809 C825 0.930 . S
H810 C826 0.931 . S
C811 H799 0.929 . S
C811 C805 1.390 . S
C811 C808 1.386 . S
C812 C807 1.490 . S
C812 C814 1.395 . S
C812 C815 1.403 . S
H813 C819 0.933 . S
C814 H800 0.930 . S
C814 C812 1.395 . S
C814 C817 1.403 . S
C815 C812 1.403 . S
C815 C816 1.529 . S
C815 C819 1.398 1_565 S
C816 H801 0.938 1_565 S
C816 H802 0.984 . S
C816 H803 0.954 1_565 S
C816 C815 1.529 . S
C817 C814 1.403 . S
C817 C818 1.392 . S
C817 C821 1.495 . S
C818 C817 1.392 . S
C818 C819 1.385 1_565 S
C818 C820 1.478 1_565 S
C819 H813 0.933 . S
C819 C815 1.398 1_545 S
C819 C818 1.385 1_545 S
C820 C818 1.478 1_545 S
C820 C822 1.381 1_545 S
C820 C826 1.383 . S
C821 C817 1.495 . S
C821 H827 0.959 . S
C821 H828 0.961 . S
C821 H829 0.960 . S
C822 C820 1.381 1_565 S
C822 C823 1.394 1_565 S
C822 H830 0.930 . S
C823 C822 1.394 1_545 S
C823 C824 1.383 . S
C823 H831 0.929 1_545 S
C824 C823 1.383 . S
C824 C825 1.377 . S
C825 H809 0.930 . S
C825 C824 1.377 . S
C825 C826 1.379 . S
C826 H810 0.931 . S
C826 C820 1.383 . S
C826 C825 1.379 . S
H827 C821 0.959 . S
H828 C821 0.961 . S
H829 C821 0.960 . S
H830 C822 0.930 . S
H831 C823 0.929 1_565 S
H832 C840 0.929 . S
H833 C842 0.930 . S
H834 C844 0.930 . S
H835 C847 0.929 . S
H836 C850 0.930 . S
H837 C852 0.960 . S
H838 C852 0.960 . S
H839 C852 0.960 . S
C840 H832 0.929 . S
C840 C841 1.377 . S
C840 C842 1.384 . S
C841 C840 1.377 . S
C841 C847 1.390 . S
C842 H833 0.930 . S
C842 C840 1.384 . S
C842 C843 1.372 . S
C843 C842 1.372 . S
C843 C844 1.400 . S
C843 C848 1.490 . S
C844 H834 0.930 . S
C844 C843 1.400 . S
C844 C847 1.386 . S
H845 C861 0.930 . S
H846 C862 0.931 . S
C847 H835 0.929 . S
C847 C841 1.390 . S
C847 C844 1.386 . S
C848 C843 1.490 . S
C848 C850 1.395 . S
C848 C851 1.403 . S
H849 C855 0.930 . S
C850 H836 0.930 . S
C850 C848 1.395 . S
C850 C853 1.403 . S
C851 C848 1.403 . S
C851 C852 1.524 . S
C851 C855 1.400 . S
C852 H837 0.960 . S
C852 H838 0.960 . S
C852 H839 0.960 . S
C852 C851 1.524 . S
C853 C850 1.403 . S
C853 C854 1.392 . S
C853 C857 1.495 . S
C854 C853 1.392 . S
C854 C855 1.385 . S
C854 C856 1.478 . S
C855 H849 0.930 . S
C855 C851 1.400 . S
C855 C854 1.385 . S
C856 C854 1.478 . S
C856 C858 1.381 . S
C856 C862 1.383 . S
C857 C853 1.495 . S
C857 H863 0.959 . S
C857 H864 0.961 . S
C857 H865 0.960 . S
C858 C856 1.381 . S
C858 C859 1.394 . S
C858 H866 0.930 . S
C859 C858 1.394 . S
C859 C860 1.383 . S
C859 H867 0.929 . S
C860 C859 1.383 . S
C860 C861 1.377 . S
C861 H845 0.930 . S
C861 C860 1.377 . S
C861 C862 1.379 . S
C862 H846 0.931 . S
C862 C856 1.383 . S
C862 C861 1.379 . S
H863 C857 0.959 . S
H864 C857 0.961 . S
H865 C857 0.960 . S
H866 C858 0.930 . S
H867 C859 0.929 . S
H868 C876 0.929 . S
H869 C878 0.930 . S
H870 C880 0.930 . S
H871 C883 0.929 . S
H872 C886 0.930 . S
H873 C888 0.960 . S
H874 C888 0.960 . S
H875 C888 0.960 . S
C876 H868 0.929 . S
C876 C877 1.377 . S
C876 C878 1.384 . S
C877 C876 1.377 . S
C877 C883 1.390 . S
C878 H869 0.930 . S
C878 C876 1.384 . S
C878 C879 1.372 . S
C879 C878 1.372 . S
C879 C880 1.400 . S
C879 C884 1.490 . S
C880 H870 0.930 . S
C880 C879 1.400 . S
C880 C883 1.386 . S
H881 C897 0.930 . S
H882 C898 0.931 . S
C883 H871 0.929 . S
C883 C877 1.390 . S
C883 C880 1.386 . S
C884 C879 1.490 . S
C884 C886 1.395 . S
C884 C887 1.403 1_565 S
H885 C891 0.930 . S
C886 H872 0.930 . S
C886 C884 1.395 . S
C886 C889 1.403 . S
C887 C884 1.403 1_545 S
C887 C888 1.524 . S
C887 C891 1.400 . S
C888 H873 0.960 . S
C888 H874 0.960 . S
C888 H875 0.960 . S
C888 C887 1.524 . S
C889 C886 1.403 . S
C889 C890 1.392 1_565 S
C889 C893 1.495 . S
C890 C889 1.392 1_545 S
C890 C891 1.385 . S
C890 C892 1.478 . S
C891 H885 0.930 . S
C891 C887 1.400 . S
C891 C890 1.385 . S
C892 C890 1.478 . S
C892 C894 1.381 . S
C892 C898 1.383 1_655 S
C893 C889 1.495 . S
C893 H899 0.959 . S
C893 H900 0.961 . S
C893 H901 0.960 . S
C894 C892 1.381 . S
C894 C895 1.394 1_655 S
C894 H902 0.930 . S
C895 C894 1.394 1_455 S
C895 C896 1.383 . S
C895 H903 0.929 . S
C896 C895 1.383 . S
C896 C897 1.377 . S
C897 H881 0.930 . S
C897 C896 1.377 . S
C897 C898 1.379 . S
C898 H882 0.931 . S
C898 C892 1.383 1_455 S
C898 C897 1.379 . S
H899 C893 0.959 . S
H900 C893 0.961 . S
H901 C893 0.960 . S
H902 C894 0.930 . S
H903 C895 0.929 . S
H904 C912 0.929 . S
H905 C914 0.899 1_565 S
H906 C916 0.930 . S
H907 C919 0.929 . S
H908 C922 0.930 . S
H909 C924 0.960 . S
H910 C924 0.960 . S
H911 C924 0.960 . S
C912 H904 0.929 . S
C912 C913 1.377 . S
C912 C914 1.384 . S
C913 C912 1.377 . S
C913 C919 1.390 . S
C914 H905 0.899 1_545 S
C914 C912 1.384 . S
C914 C915 1.372 . S
C915 C914 1.372 . S
C915 C916 1.400 . S
C915 C920 1.490 1_545 S
C916 H906 0.930 . S
C916 C915 1.400 . S
C916 C919 1.386 . S
H917 C933 0.930 . S
H918 C934 0.931 . S
C919 H907 0.929 . S
C919 C913 1.390 . S
C919 C916 1.386 . S
C920 C915 1.490 1_565 S
C920 C922 1.395 . S
C920 C923 1.403 1_565 S
H921 C927 0.930 1_545 S
C922 H908 0.930 . S
C922 C920 1.395 . S
C922 C925 1.403 . S
C923 C920 1.403 1_545 S
C923 C924 1.524 . S
C923 C927 1.400 1_545 S
C924 H909 0.960 . S
C924 H910 0.960 . S
C924 H911 0.960 . S
C924 C923 1.524 . S
C925 C922 1.403 . S
C925 C926 1.392 . S
C925 C929 1.495 . S
C926 C925 1.392 . S
C926 C927 1.385 . S
C926 C928 1.478 . S
C927 H921 0.930 1_565 S
C927 C923 1.400 1_565 S
C927 C926 1.385 . S
C928 C926 1.478 . S
C928 C930 1.381 . S
C928 C934 1.383 . S
C929 C925 1.495 . S
C929 H935 0.959 . S
C929 H936 0.961 . S
C929 H937 0.960 . S
C930 C928 1.381 . S
C930 C931 1.394 . S
C930 H938 0.930 . S
C931 C930 1.394 . S
C931 C932 1.383 . S
C931 H939 0.929 . S
C932 C931 1.383 . S
C932 C933 1.377 . S
C933 H917 0.930 . S
C933 C932 1.377 . S
C933 C934 1.379 . S
C934 H918 0.931 . S
C934 C928 1.383 . S
C934 C933 1.379 . S
H935 C929 0.959 . S
H936 C929 0.961 . S
H937 C929 0.960 . S
H938 C930 0.930 . S
H939 C931 0.929 . S
H940 C948 0.929 . S
H941 C950 0.930 . S
H942 C952 0.930 . S
H943 C955 0.929 . S
H944 C958 0.930 . S
H945 C960 0.960 . S
H946 C960 0.960 . S
H947 C960 0.960 . S
C948 H940 0.929 . S
C948 C949 1.377 . S
C948 C950 1.384 . S
C949 C948 1.377 . S
C949 C955 1.390 . S
C950 H941 0.930 . S
C950 C948 1.384 . S
C950 C951 1.372 . S
C951 C950 1.372 . S
C951 C952 1.400 . S
C951 C956 1.490 . S
C952 H942 0.930 . S
C952 C951 1.400 . S
C952 C955 1.386 . S
H953 C969 0.930 . S
H954 C970 0.931 . S
C955 H943 0.929 . S
C955 C949 1.390 . S
C955 C952 1.386 . S
C956 C951 1.490 . S
C956 C958 1.395 . S
C956 C959 1.403 . S
H957 C963 0.930 . S
C958 H944 0.930 . S
C958 C956 1.395 . S
C958 C961 1.403 . S
C959 C956 1.403 . S
C959 C960 1.524 . S
C959 C963 1.400 . S
C960 H945 0.960 . S
C960 H946 0.960 . S
C960 H947 0.960 . S
C960 C959 1.524 . S
C961 C958 1.403 . S
C961 C962 1.392 . S
C961 C965 1.495 . S
C962 C961 1.392 . S
C962 C963 1.385 . S
C962 C964 1.478 . S
C963 H957 0.930 . S
C963 C959 1.400 . S
C963 C962 1.385 . S
C964 C962 1.478 . S
C964 C966 1.381 . S
C964 C970 1.383 . S
C965 C961 1.495 . S
C965 H971 0.959 . S
C965 H972 0.961 . S
C965 H973 0.960 . S
C966 C964 1.381 . S
C966 C967 1.394 . S
C966 H974 0.930 . S
C967 C966 1.394 . S
C967 C968 1.383 . S
C967 H975 0.929 . S
C968 C967 1.383 . S
C968 C969 1.377 . S
C969 H953 0.930 . S
C969 C968 1.377 . S
C969 C970 1.379 . S
C970 H954 0.931 . S
C970 C964 1.383 . S
C970 C969 1.379 . S
H971 C965 0.959 . S
H972 C965 0.961 . S
H973 C965 0.960 . S
H974 C966 0.930 . S
H975 C967 0.929 . S
H976 C984 0.929 . S
H977 C986 0.930 . S
H978 C988 0.930 . S
H979 C991 0.929 . S
H980 C994 0.930 . S
H981 C996 0.960 . S
H982 C996 0.960 . S
H983 C996 0.960 . S
C984 H976 0.929 . S
C984 C985 1.377 . S
C984 C986 1.384 . S
C985 C984 1.377 . S
C985 C991 1.390 . S
C986 H977 0.930 . S
C986 C984 1.384 . S
C986 C987 1.372 . S
C987 C986 1.372 . S
C987 C988 1.400 . S
C987 C992 1.490 . S
C988 H978 0.930 . S
C988 C987 1.400 . S
C988 C991 1.386 . S
H989 C1005 0.930 . S
H990 C1006 0.931 . S
C991 H979 0.929 . S
C991 C985 1.390 . S
C991 C988 1.386 . S
C992 C987 1.490 . S
C992 C994 1.395 . S
C992 C995 1.403 . S
H993 C999 0.930 . S
C994 H980 0.930 . S
C994 C992 1.395 . S
C994 C997 1.403 . S
C995 C992 1.403 . S
C995 C996 1.524 . S
C995 C999 1.400 . S
C996 H981 0.960 . S
C996 H982 0.960 . S
C996 H983 0.960 . S
C996 C995 1.524 . S
C997 C994 1.403 . S
C997 C998 1.392 . S
C997 C1001 1.495 . S
C998 C997 1.392 . S
C998 C999 1.385 . S
C998 C1000 1.478 . S
C999 H993 0.930 . S
C999 C995 1.400 . S
C999 C998 1.385 . S
C1000 C998 1.478 . S
C1000 C1002 1.381 . S
C1000 C1006 1.383 . S
C1001 C997 1.495 . S
C1001 H1007 0.959 . S
C1001 H1008 0.961 . S
C1001 H1009 0.960 . S
C1002 C1000 1.381 . S
C1002 C1003 1.394 . S
C1002 H1010 0.930 . S
C1003 C1002 1.394 . S
C1003 C1004 1.383 . S
C1003 H1011 0.929 . S
C1004 C1003 1.383 . S
C1004 C1005 1.377 . S
C1005 H989 0.930 . S
C1005 C1004 1.377 . S
C1005 C1006 1.379 . S
C1006 H990 0.931 . S
C1006 C1000 1.383 . S
C1006 C1005 1.379 . S
H1007 C1001 0.959 . S
H1008 C1001 0.961 . S
H1009 C1001 0.960 . S
H1010 C1002 0.930 . S
H1011 C1003 0.929 . S
H1012 C1020 0.929 . S
H1013 C1022 0.930 . S
H1014 C1024 0.930 . S
H1015 C1027 0.929 . S
H1016 C1030 0.930 . S
H1017 C1032 0.960 . S
H1018 C1032 0.960 . S
H1019 C1032 0.960 . S
C1020 H1012 0.929 . S
C1020 C1021 1.377 . S
C1020 C1022 1.384 . S
C1021 C1020 1.377 . S
C1021 C1027 1.390 . S
C1022 H1013 0.930 . S
C1022 C1020 1.384 . S
C1022 C1023 1.372 . S
C1023 C1022 1.372 . S
C1023 C1024 1.400 . S
C1023 C1028 1.490 . S
C1024 H1014 0.930 . S
C1024 C1023 1.400 . S
C1024 C1027 1.386 . S
H1025 C1041 0.930 . S
H1026 C1042 0.931 . S
C1027 H1015 0.929 . S
C1027 C1021 1.390 . S
C1027 C1024 1.386 . S
C1028 C1023 1.490 . S
C1028 C1030 1.395 . S
C1028 C1031 1.403 . S
H1029 C1035 0.930 . S
C1030 H1016 0.930 . S
C1030 C1028 1.395 . S
C1030 C1033 1.403 . S
C1031 C1028 1.403 . S
C1031 C1032 1.524 . S
C1031 C1035 1.400 . S
C1032 H1017 0.960 . S
C1032 H1018 0.960 . S
C1032 H1019 0.960 . S
C1032 C1031 1.524 . S
C1033 C1030 1.403 . S
C1033 C1034 1.392 . S
C1033 C1037 1.495 . S
C1034 C1033 1.392 . S
C1034 C1035 1.385 . S
C1034 C1036 1.478 . S
C1035 H1029 0.930 . S
C1035 C1031 1.400 . S
C1035 C1034 1.385 . S
C1036 C1034 1.478 . S
C1036 C1038 1.381 . S
C1036 C1042 1.383 . S
C1037 C1033 1.495 . S
C1037 H1043 0.959 . S
C1037 H1044 0.961 . S
C1037 H1045 0.960 . S
C1038 C1036 1.381 . S
C1038 C1039 1.394 . S
C1038 H1046 0.930 . S
C1039 C1038 1.394 . S
C1039 C1040 1.383 . S
C1039 H1047 0.929 . S
C1040 C1039 1.383 . S
C1040 C1041 1.377 . S
C1041 H1025 0.930 . S
C1041 C1040 1.377 . S
C1041 C1042 1.379 . S
C1042 H1026 0.931 . S
C1042 C1036 1.383 . S
C1042 C1041 1.379 . S
H1043 C1037 0.959 . S
H1044 C1037 0.961 . S
H1045 C1037 0.960 . S
H1046 C1038 0.930 . S
H1047 C1039 0.929 . S
H1048 C1056 0.929 . S
H1049 C1058 0.930 . S
H1050 C1060 0.930 . S
H1051 C1063 0.929 . S
H1052 C1066 0.930 . S
H1053 C1068 0.960 . S
H1054 C1068 0.960 . S
H1055 C1068 0.960 . S
C1056 H1048 0.929 . S
C1056 C1057 1.377 . S
C1056 C1058 1.384 . S
C1057 C1056 1.377 . S
C1057 C1063 1.390 . S
C1058 H1049 0.930 . S
C1058 C1056 1.384 . S
C1058 C1059 1.372 . S
C1059 C1058 1.372 . S
C1059 C1060 1.400 . S
C1059 C1064 1.490 . S
C1060 H1050 0.930 . S
C1060 C1059 1.400 . S
C1060 C1063 1.386 . S
H1061 C1077 0.930 . S
H1062 C1078 0.931 . S
C1063 H1051 0.929 . S
C1063 C1057 1.390 . S
C1063 C1060 1.386 . S
C1064 C1059 1.490 . S
C1064 C1066 1.395 . S
C1064 C1067 1.403 . S
H1065 C1071 0.930 . S
C1066 H1052 0.930 . S
C1066 C1064 1.395 . S
C1066 C1069 1.403 . S
C1067 C1064 1.403 . S
C1067 C1068 1.524 . S
C1067 C1071 1.400 . S
C1068 H1053 0.960 . S
C1068 H1054 0.960 . S
C1068 H1055 0.960 . S
C1068 C1067 1.524 . S
C1069 C1066 1.403 . S
C1069 C1070 1.392 . S
C1069 C1073 1.495 . S
C1070 C1069 1.392 . S
C1070 C1071 1.385 . S
C1070 C1072 1.478 . S
C1071 H1065 0.930 . S
C1071 C1067 1.400 . S
C1071 C1070 1.385 . S
C1072 C1070 1.478 . S
C1072 C1074 1.381 . S
C1072 C1078 1.383 . S
C1073 C1069 1.495 . S
C1073 H1079 0.959 . S
C1073 H1080 0.961 . S
C1073 H1081 0.960 . S
C1074 C1072 1.381 . S
C1074 C1075 1.394 . S
C1074 H1082 0.930 . S
C1075 C1074 1.394 . S
C1075 C1076 1.383 . S
C1075 H1083 0.929 . S
C1076 C1075 1.383 . S
C1076 C1077 1.377 . S
C1077 H1061 0.930 . S
C1077 C1076 1.377 . S
C1077 C1078 1.379 . S
C1078 H1062 0.931 . S
C1078 C1072 1.383 . S
C1078 C1077 1.379 . S
H1079 C1073 0.959 . S
H1080 C1073 0.961 . S
H1081 C1073 0.960 . S
H1082 C1074 0.930 . S
H1083 C1075 0.929 . S
H1084 C1092 0.929 . S
H1085 C1094 0.930 . S
H1086 C1096 0.930 . S
H1087 C1099 0.929 . S
H1088 C1102 0.930 . S
H1089 C1104 0.960 . S
H1090 C1104 0.960 1_565 S
H1091 C1104 0.960 . S
C1092 H1084 0.929 . S
C1092 C1093 1.377 . S
C1092 C1094 1.384 . S
C1093 C1092 1.377 . S
C1093 C1099 1.390 . S
C1094 H1085 0.930 . S
C1094 C1092 1.384 . S
C1094 C1095 1.372 . S
C1095 C1094 1.372 . S
C1095 C1096 1.400 . S
C1095 C1100 1.490 1_556 S
C1096 H1086 0.930 . S
C1096 C1095 1.400 . S
C1096 C1099 1.386 . S
H1097 C1113 0.930 . S
H1098 C1114 0.931 . S
C1099 H1087 0.929 . S
C1099 C1093 1.390 . S
C1099 C1096 1.386 . S
C1100 C1095 1.490 1_554 S
C1100 C1102 1.395 1_554 S
C1100 C1103 1.403 . S
H1101 C1107 0.930 . S
C1102 H1088 0.930 . S
C1102 C1100 1.395 1_556 S
C1102 C1105 1.403 1_556 S
C1103 C1100 1.403 . S
C1103 C1104 1.524 1_565 S
C1103 C1107 1.400 1_565 S
C1104 H1089 0.960 . S
C1104 H1090 0.960 1_545 S
C1104 H1091 0.960 . S
C1104 C1103 1.524 1_545 S
C1105 C1102 1.403 1_554 S
C1105 C1106 1.392 1_565 S
C1105 C1109 1.495 1_554 S
C1106 C1105 1.392 1_545 S
C1106 C1107 1.385 . S
C1106 C1108 1.478 . S
C1107 H1101 0.930 . S
C1107 C1103 1.400 1_545 S
C1107 C1106 1.385 . S
C1108 C1106 1.478 . S
C1108 C1110 1.381 . S
C1108 C1114 1.383 . S
C1109 C1105 1.495 1_556 S
C1109 H1115 0.959 . S
C1109 H1116 0.961 . S
C1109 H1117 0.960 1_556 S
C1110 C1108 1.381 . S
C1110 C1111 1.394 . S
C1110 H1118 0.930 1_545 S
C1111 C1110 1.394 . S
C1111 C1112 1.383 . S
C1111 H1119 0.929 . S
C1112 C1111 1.383 . S
C1112 C1113 1.377 . S
C1113 H1097 0.930 . S
C1113 C1112 1.377 . S
C1113 C1114 1.379 . S
C1114 H1098 0.931 . S
C1114 C1108 1.383 . S
C1114 C1113 1.379 . S
H1115 C1109 0.959 . S
H1116 C1109 0.961 . S
H1117 C1109 0.960 1_554 S
H1118 C1110 0.930 1_565 S
H1119 C1111 0.929 . S
H1120 C1128 0.929 . S
H1121 C1130 0.930 . S
H1122 C1132 0.930 . S
H1123 C1135 0.929 . S
H1124 C1138 0.930 . S
H1125 C1140 0.960 . S
H1126 C1140 0.960 . S
H1127 C1140 0.960 . S
C1128 H1120 0.929 . S
C1128 C1129 1.377 . S
C1128 C1130 1.384 . S
C1129 C1128 1.377 . S
C1129 C1135 1.390 . S
C1130 H1121 0.930 . S
C1130 C1128 1.384 . S
C1130 C1131 1.372 . S
C1131 C1130 1.372 . S
C1131 C1132 1.400 . S
C1131 C1136 1.490 . S
C1132 H1122 0.930 . S
C1132 C1131 1.400 . S
C1132 C1135 1.386 . S
H1133 C1149 0.930 . S
H1134 C1150 0.931 . S
C1135 H1123 0.929 . S
C1135 C1129 1.390 . S
C1135 C1132 1.386 . S
C1136 C1131 1.490 . S
C1136 C1138 1.395 . S
C1136 C1139 1.403 . S
H1137 C1143 0.930 . S
C1138 H1124 0.930 . S
C1138 C1136 1.395 . S
C1138 C1141 1.403 . S
C1139 C1136 1.403 . S
C1139 C1140 1.524 . S
C1139 C1143 1.400 . S
C1140 H1125 0.960 . S
C1140 H1126 0.960 . S
C1140 H1127 0.960 . S
C1140 C1139 1.524 . S
C1141 C1138 1.403 . S
C1141 C1142 1.392 . S
C1141 C1145 1.495 . S
C1142 C1141 1.392 . S
C1142 C1143 1.385 . S
C1142 C1144 1.478 . S
C1143 H1137 0.930 . S
C1143 C1139 1.400 . S
C1143 C1142 1.385 . S
C1144 C1142 1.478 . S
C1144 C1146 1.381 . S
C1144 C1150 1.383 . S
C1145 C1141 1.495 . S
C1145 H1151 0.959 . S
C1145 H1152 0.961 . S
C1145 H1153 0.960 . S
C1146 C1144 1.381 . S
C1146 C1147 1.394 . S
C1146 H1154 0.930 . S
C1147 C1146 1.394 . S
C1147 C1148 1.383 . S
C1147 H1155 0.929 . S
C1148 C1147 1.383 . S
C1148 C1149 1.377 . S
C1149 H1133 0.930 . S
C1149 C1148 1.377 . S
C1149 C1150 1.379 . S
C1150 H1134 0.931 . S
C1150 C1144 1.383 . S
C1150 C1149 1.379 . S
H1151 C1145 0.959 . S
H1152 C1145 0.961 . S
H1153 C1145 0.960 . S
H1154 C1146 0.930 . S
H1155 C1147 0.929 . S
H1156 C1164 0.929 . S
H1157 C1166 0.930 . S
H1158 C1168 0.930 . S
H1159 C1171 0.929 . S
H1160 C1174 0.930 . S
H1161 C1176 0.960 . S
H1162 C1176 0.960 . S
H1163 C1176 0.960 . S
C1164 H1156 0.929 . S
C1164 C1165 1.377 . S
C1164 C1166 1.384 . S
C1165 C1164 1.377 . S
C1165 C1171 1.390 . S
C1166 H1157 0.930 . S
C1166 C1164 1.384 . S
C1166 C1167 1.372 . S
C1167 C1166 1.372 . S
C1167 C1168 1.400 . S
C1167 C1172 1.490 . S
C1168 H1158 0.930 . S
C1168 C1167 1.400 . S
C1168 C1171 1.386 . S
H1169 C1185 0.930 . S
H1170 C1186 0.931 . S
C1171 H1159 0.929 . S
C1171 C1165 1.390 . S
C1171 C1168 1.386 . S
C1172 C1167 1.490 . S
C1172 C1174 1.395 . S
C1172 C1175 1.403 . S
H1173 C1179 0.930 . S
C1174 H1160 0.930 . S
C1174 C1172 1.395 . S
C1174 C1177 1.403 . S
C1175 C1172 1.403 . S
C1175 C1176 1.524 . S
C1175 C1179 1.400 . S
C1176 H1161 0.960 . S
C1176 H1162 0.960 . S
C1176 H1163 0.960 . S
C1176 C1175 1.524 . S
C1177 C1174 1.403 . S
C1177 C1178 1.392 . S
C1177 C1181 1.495 . S
C1178 C1177 1.392 . S
C1178 C1179 1.385 . S
C1178 C1180 1.478 . S
C1179 H1173 0.930 . S
C1179 C1175 1.400 . S
C1179 C1178 1.385 . S
C1180 C1178 1.478 . S
C1180 C1182 1.381 . S
C1180 C1186 1.383 . S
C1181 C1177 1.495 . S
C1181 H1187 0.959 . S
C1181 H1188 0.961 . S
C1181 H1189 0.960 . S
C1182 C1180 1.381 . S
C1182 C1183 1.394 . S
C1182 H1190 0.930 . S
C1183 C1182 1.394 . S
C1183 C1184 1.383 . S
C1183 H1191 0.929 . S
C1184 C1183 1.383 . S
C1184 C1185 1.377 . S
C1185 H1169 0.930 . S
C1185 C1184 1.377 . S
C1185 C1186 1.379 . S
C1186 H1170 0.931 . S
C1186 C1180 1.383 . S
C1186 C1185 1.379 . S
H1187 C1181 0.959 . S
H1188 C1181 0.961 . S
H1189 C1181 0.960 . S
H1190 C1182 0.930 . S
H1191 C1183 0.929 . S
H1192 C1200 0.929 . S
H1193 C1202 0.930 . S
H1194 C1204 0.930 . S
H1195 C1207 0.929 . S
H1196 C1210 0.930 . S
H1197 C1212 0.960 . S
H1198 C1212 0.960 . S
H1199 C1212 0.960 . S
C1200 H1192 0.929 . S
C1200 C1201 1.377 . S
C1200 C1202 1.384 . S
C1201 C1200 1.377 . S
C1201 C1207 1.390 . S
C1202 H1193 0.930 . S
C1202 C1200 1.384 . S
C1202 C1203 1.372 . S
C1203 C1202 1.372 . S
C1203 C1204 1.400 . S
C1203 C1208 1.490 . S
C1204 H1194 0.930 . S
C1204 C1203 1.400 . S
C1204 C1207 1.386 . S
H1205 C1221 0.930 . S
H1206 C1222 0.931 . S
C1207 H1195 0.929 . S
C1207 C1201 1.390 . S
C1207 C1204 1.386 . S
C1208 C1203 1.490 . S
C1208 C1210 1.395 . S
C1208 C1211 1.403 . S
H1209 C1215 0.930 . S
C1210 H1196 0.930 . S
C1210 C1208 1.395 . S
C1210 C1213 1.403 . S
C1211 C1208 1.403 . S
C1211 C1212 1.524 . S
C1211 C1215 1.400 . S
C1212 H1197 0.960 . S
C1212 H1198 0.960 . S
C1212 H1199 0.960 . S
C1212 C1211 1.524 . S
C1213 C1210 1.403 . S
C1213 C1214 1.392 . S
C1213 C1217 1.495 . S
C1214 C1213 1.392 . S
C1214 C1215 1.385 . S
C1214 C1216 1.478 . S
C1215 H1209 0.930 . S
C1215 C1211 1.400 . S
C1215 C1214 1.385 . S
C1216 C1214 1.478 . S
C1216 C1218 1.381 . S
C1216 C1222 1.383 . S
C1217 C1213 1.495 . S
C1217 H1223 0.959 . S
C1217 H1224 0.961 . S
C1217 H1225 0.960 . S
C1218 C1216 1.381 . S
C1218 C1219 1.394 . S
C1218 H1226 0.930 . S
C1219 C1218 1.394 . S
C1219 C1220 1.383 . S
C1219 H1227 0.929 . S
C1220 C1219 1.383 . S
C1220 C1221 1.377 . S
C1221 H1205 0.930 . S
C1221 C1220 1.377 . S
C1221 C1222 1.379 . S
C1222 H1206 0.931 . S
C1222 C1216 1.383 . S
C1222 C1221 1.379 . S
H1223 C1217 0.959 . S
H1224 C1217 0.961 . S
H1225 C1217 0.960 . S
H1226 C1218 0.930 . S
H1227 C1219 0.929 . S
H1228 C1236 0.929 . S
H1229 C1238 0.930 . S
H1230 C1240 0.930 . S
H1231 C1243 0.929 . S
H1232 C1246 0.930 . S
H1233 C1248 0.960 . S
H1234 C1248 0.960 . S
H1235 C1248 0.960 . S
C1236 H1228 0.929 . S
C1236 C1237 1.377 . S
C1236 C1238 1.384 . S
C1237 C1236 1.377 . S
C1237 C1243 1.390 . S
C1238 H1229 0.930 . S
C1238 C1236 1.384 . S
C1238 C1239 1.372 . S
C1239 C1238 1.372 . S
C1239 C1240 1.400 . S
C1239 C1244 1.490 . S
C1240 H1230 0.930 . S
C1240 C1239 1.400 . S
C1240 C1243 1.386 . S
H1241 C1257 0.930 . S
H1242 C1258 0.931 . S
C1243 H1231 0.929 . S
C1243 C1237 1.390 . S
C1243 C1240 1.386 . S
C1244 C1239 1.490 . S
C1244 C1246 1.395 . S
C1244 C1247 1.403 . S
H1245 C1251 0.930 . S
C1246 H1232 0.930 . S
C1246 C1244 1.395 . S
C1246 C1249 1.403 . S
C1247 C1244 1.403 . S
C1247 C1248 1.524 . S
C1247 C1251 1.400 . S
C1248 H1233 0.960 . S
C1248 H1234 0.960 . S
C1248 H1235 0.960 . S
C1248 C1247 1.524 . S
C1249 C1246 1.403 . S
C1249 C1250 1.392 . S
C1249 C1253 1.495 . S
C1250 C1249 1.392 . S
C1250 C1251 1.385 . S
C1250 C1252 1.478 . S
C1251 H1245 0.930 . S
C1251 C1247 1.400 . S
C1251 C1250 1.385 . S
C1252 C1250 1.478 . S
C1252 C1254 1.381 . S
C1252 C1258 1.383 . S
C1253 C1249 1.495 . S
C1253 H1259 0.959 . S
C1253 H1260 0.961 . S
C1253 H1261 0.960 . S
C1254 C1252 1.381 . S
C1254 C1255 1.394 . S
C1254 H1262 0.930 . S
C1255 C1254 1.394 . S
C1255 C1256 1.383 . S
C1255 H1263 0.929 . S
C1256 C1255 1.383 . S
C1256 C1257 1.377 . S
C1257 H1241 0.930 . S
C1257 C1256 1.377 . S
C1257 C1258 1.379 . S
C1258 H1242 0.931 . S
C1258 C1252 1.383 . S
C1258 C1257 1.379 . S
H1259 C1253 0.959 . S
H1260 C1253 0.961 . S
H1261 C1253 0.960 . S
H1262 C1254 0.930 . S
H1263 C1255 0.929 . S
H1264 C1272 0.929 . S
H1265 C1274 0.930 . S
H1266 C1276 0.930 . S
H1267 C1279 0.929 . S
H1268 C1282 0.930 . S
H1269 C1284 0.960 . S
H1270 C1284 0.960 . S
H1271 C1284 0.960 . S
C1272 H1264 0.929 . S
C1272 C1273 1.377 . S
C1272 C1274 1.384 . S
C1273 C1272 1.377 . S
C1273 C1279 1.390 . S
C1274 H1265 0.930 . S
C1274 C1272 1.384 . S
C1274 C1275 1.372 . S
C1275 C1274 1.372 . S
C1275 C1276 1.400 . S
C1275 C1280 1.490 . S
C1276 H1266 0.930 . S
C1276 C1275 1.400 . S
C1276 C1279 1.386 . S
H1277 C1293 0.930 1_556 S
H1278 C1294 0.931 . S
C1279 H1267 0.929 . S
C1279 C1273 1.390 . S
C1279 C1276 1.386 . S
C1280 C1275 1.490 . S
C1280 C1282 1.395 . S
C1280 C1283 1.403 . S
H1281 C1287 0.930 . S
C1282 H1268 0.930 . S
C1282 C1280 1.395 . S
C1282 C1285 1.403 . S
C1283 C1280 1.403 . S
C1283 C1284 1.524 . S
C1283 C1287 1.400 . S
C1284 H1269 0.960 . S
C1284 H1270 0.960 . S
C1284 H1271 0.960 . S
C1284 C1283 1.524 . S
C1285 C1282 1.403 . S
C1285 C1286 1.392 . S
C1285 C1289 1.495 . S
C1286 C1285 1.392 . S
C1286 C1287 1.385 . S
C1286 C1288 1.478 . S
C1287 H1281 0.930 . S
C1287 C1283 1.400 . S
C1287 C1286 1.385 . S
C1288 C1286 1.478 . S
C1288 C1290 1.381 . S
C1288 C1294 1.383 . S
C1289 C1285 1.495 . S
C1289 H1295 0.959 . S
C1289 H1296 0.961 . S
C1289 H1297 0.960 . S
C1290 C1288 1.381 . S
C1290 C1291 1.394 1_554 S
C1290 H1298 0.930 . S
C1291 C1290 1.394 1_556 S
C1291 C1292 1.383 . S
C1291 H1299 0.929 . S
C1292 C1291 1.383 . S
C1292 C1293 1.377 1_556 S
C1293 H1277 0.930 1_554 S
C1293 C1292 1.377 1_554 S
C1293 C1294 1.379 . S
C1294 H1278 0.931 . S
C1294 C1288 1.383 . S
C1294 C1293 1.379 . S
H1295 C1289 0.959 . S
H1296 C1289 0.961 . S
H1297 C1289 0.960 . S
H1298 C1290 0.930 . S
H1299 C1291 0.929 . S
H1300 C1308 0.929 . S
H1301 C1310 0.930 . S
H1302 C1312 0.930 . S
H1303 C1315 0.929 . S
H1304 C1318 0.930 . S
H1305 C1320 0.960 . S
H1306 C1320 0.960 . S
H1307 C1320 0.960 . S
C1308 H1300 0.929 . S
C1308 C1309 1.377 . S
C1308 C1310 1.384 . S
C1309 C1308 1.377 . S
C1309 C1315 1.390 . S
C1310 H1301 0.930 . S
C1310 C1308 1.384 . S
C1310 C1311 1.372 . S
C1311 C1310 1.372 . S
C1311 C1312 1.400 . S
C1311 C1316 1.490 . S
C1312 H1302 0.930 . S
C1312 C1311 1.400 . S
C1312 C1315 1.386 . S
H1313 C1329 0.930 . S
H1314 C1330 0.931 . S
C1315 H1303 0.929 . S
C1315 C1309 1.390 . S
C1315 C1312 1.386 . S
C1316 C1311 1.490 . S
C1316 C1318 1.395 . S
C1316 C1319 1.403 . S
H1317 C1323 0.930 . S
C1318 H1304 0.930 . S
C1318 C1316 1.395 . S
C1318 C1321 1.403 . S
C1319 C1316 1.403 . S
C1319 C1320 1.524 . S
C1319 C1323 1.400 . S
C1320 H1305 0.960 . S
C1320 H1306 0.960 . S
C1320 H1307 0.960 . S
C1320 C1319 1.524 . S
C1321 C1318 1.403 . S
C1321 C1322 1.392 . S
C1321 C1325 1.495 . S
C1322 C1321 1.392 . S
C1322 C1323 1.385 . S
C1322 C1324 1.478 1_554 S
C1323 H1317 0.930 . S
C1323 C1319 1.400 . S
C1323 C1322 1.385 . S
C1324 C1322 1.478 1_556 S
C1324 C1326 1.381 . S
C1324 C1330 1.383 . S
C1325 C1321 1.495 . S
C1325 H1331 0.959 . S
C1325 H1332 0.961 1_554 S
C1325 H1333 0.960 1_554 S
C1326 C1324 1.381 . S
C1326 C1327 1.394 . S
C1326 H1334 0.930 . S
C1327 C1326 1.394 . S
C1327 C1328 1.383 . S
C1327 H1335 0.929 . S
C1328 C1327 1.383 . S
C1328 C1329 1.377 . S
C1329 H1313 0.930 . S
C1329 C1328 1.377 . S
C1329 C1330 1.379 . S
C1330 H1314 0.931 . S
C1330 C1324 1.383 . S
C1330 C1329 1.379 . S
H1331 C1325 0.959 . S
H1332 C1325 0.961 1_556 S
H1333 C1325 0.960 1_556 S
H1334 C1326 0.930 . S
H1335 C1327 0.929 . S
H1336 C1344 0.929 . S
H1337 C1346 0.924 1_556 S
H1338 C1348 0.930 . S
H1339 C1351 0.929 . S
H1340 C1354 0.930 . S
H1341 C1356 0.960 . S
H1342 C1356 0.960 . S
H1343 C1356 0.960 . S
C1344 H1336 0.929 . S
C1344 C1345 1.377 . S
C1344 C1346 1.397 . S
C1345 C1344 1.377 . S
C1345 C1351 1.390 . S
C1346 H1337 0.924 1_554 S
C1346 C1344 1.397 . S
C1346 C1347 1.365 1_554 S
C1347 C1346 1.365 1_556 S
C1347 C1348 1.400 . S
C1347 C1352 1.490 . S
C1348 H1338 0.930 . S
C1348 C1347 1.400 . S
C1348 C1351 1.386 1_556 S
H1349 C1365 0.930 . S
H1350 C1366 0.931 . S
C1351 H1339 0.929 . S
C1351 C1345 1.390 . S
C1351 C1348 1.386 1_554 S
C1352 C1347 1.490 . S
C1352 C1354 1.395 . S
C1352 C1355 1.403 . S
H1353 C1359 0.930 . S
C1354 H1340 0.930 . S
C1354 C1352 1.395 . S
C1354 C1357 1.403 . S
C1355 C1352 1.403 . S
C1355 C1356 1.524 . S
C1355 C1359 1.400 . S
C1356 H1341 0.960 . S
C1356 H1342 0.960 . S
C1356 H1343 0.960 . S
C1356 C1355 1.524 . S
C1357 C1354 1.403 . S
C1357 C1358 1.392 . S
C1357 C1361 1.495 . S
C1358 C1357 1.392 . S
C1358 C1359 1.385 . S
C1358 C1360 1.478 . S
C1359 H1353 0.930 . S
C1359 C1355 1.400 . S
C1359 C1358 1.385 . S
C1360 C1358 1.478 . S
C1360 C1362 1.381 . S
C1360 C1366 1.383 . S
C1361 C1357 1.495 . S
C1361 H1367 0.959 . S
C1361 H1368 0.961 . S
C1361 H1369 0.960 . S
C1362 C1360 1.381 . S
C1362 C1363 1.394 . S
C1362 H1370 0.930 . S
C1363 C1362 1.394 . S
C1363 C1364 1.383 . S
C1363 H1371 0.929 . S
C1364 C1363 1.383 . S
C1364 C1365 1.377 . S
C1365 H1349 0.930 . S
C1365 C1364 1.377 . S
C1365 C1366 1.379 . S
C1366 H1350 0.931 . S
C1366 C1360 1.383 . S
C1366 C1365 1.379 . S
H1367 C1361 0.959 . S
H1368 C1361 0.961 . S
H1369 C1361 0.960 . S
H1370 C1362 0.930 . S
H1371 C1363 0.929 . S
H1372 C1380 0.929 . S
H1373 C1382 0.930 . S
H1374 C1384 0.930 . S
H1375 C1387 0.929 . S
H1376 C1390 0.930 . S
H1377 C1392 0.960 . S
H1378 C1392 0.960 . S
H1379 C1392 0.960 . S
C1380 H1372 0.929 . S
C1380 C1381 1.377 . S
C1380 C1382 1.384 1_554 S
C1381 C1380 1.377 . S
C1381 C1387 1.390 . S
C1382 H1373 0.930 . S
C1382 C1380 1.384 1_556 S
C1382 C1383 1.372 . S
C1383 C1382 1.372 . S
C1383 C1384 1.400 . S
C1383 C1388 1.490 . S
C1384 H1374 0.930 . S
C1384 C1383 1.400 . S
C1384 C1387 1.386 1_556 S
H1385 C1401 0.930 . S
H1386 C1402 0.931 . S
C1387 H1375 0.929 . S
C1387 C1381 1.390 . S
C1387 C1384 1.386 1_554 S
C1388 C1383 1.490 . S
C1388 C1390 1.395 . S
C1388 C1391 1.403 . S
H1389 C1395 0.930 . S
C1390 H1376 0.930 . S
C1390 C1388 1.395 . S
C1390 C1393 1.403 . S
C1391 C1388 1.403 . S
C1391 C1392 1.524 . S
C1391 C1395 1.400 . S
C1392 H1377 0.960 . S
C1392 H1378 0.960 . S
C1392 H1379 0.960 . S
C1392 C1391 1.524 . S
C1393 C1390 1.403 . S
C1393 C1394 1.392 . S
C1393 C1397 1.495 . S
C1394 C1393 1.392 . S
C1394 C1395 1.385 . S
C1394 C1396 1.478 . S
C1395 H1389 0.930 . S
C1395 C1391 1.400 . S
C1395 C1394 1.385 . S
C1396 C1394 1.478 . S
C1396 C1398 1.381 . S
C1396 C1402 1.383 . S
C1397 C1393 1.495 . S
C1397 H1403 0.959 . S
C1397 H1404 0.961 . S
C1397 H1405 0.960 . S
C1398 C1396 1.381 . S
C1398 C1399 1.394 . S
C1398 H1406 0.930 . S
C1399 C1398 1.394 . S
C1399 C1400 1.383 . S
C1399 H1407 0.929 . S
C1400 C1399 1.383 . S
C1400 C1401 1.377 . S
C1401 H1385 0.930 . S
C1401 C1400 1.377 . S
C1401 C1402 1.379 . S
C1402 H1386 0.931 . S
C1402 C1396 1.383 . S
C1402 C1401 1.379 . S
H1403 C1397 0.959 . S
H1404 C1397 0.961 . S
H1405 C1397 0.960 . S
H1406 C1398 0.930 . S
H1407 C1399 0.929 . S
H1408 C1416 0.929 . S
H1409 C1418 0.930 . S
H1410 C1420 0.930 . S
H1411 C1423 0.929 1_556 S
H1412 C1426 0.930 . S
H1413 C1428 0.960 . S
H1414 C1428 0.960 . S
H1415 C1428 0.960 . S
C1416 H1408 0.929 . S
C1416 C1417 1.377 . S
C1416 C1418 1.384 1_556 S
C1417 C1416 1.377 . S
C1417 C1423 1.390 1_556 S
C1418 H1409 0.930 . S
C1418 C1416 1.384 1_554 S
C1418 C1419 1.372 . S
C1419 C1418 1.372 . S
C1419 C1420 1.400 . S
C1419 C1424 1.490 . S
C1420 H1410 0.930 . S
C1420 C1419 1.400 . S
C1420 C1423 1.386 . S
H1421 C1437 0.930 . S
H1422 C1438 0.931 . S
C1423 H1411 0.929 1_554 S
C1423 C1417 1.390 1_554 S
C1423 C1420 1.386 . S
C1424 C1419 1.490 . S
C1424 C1426 1.395 . S
C1424 C1427 1.403 . S
H1425 C1431 0.930 . S
C1426 H1412 0.930 . S
C1426 C1424 1.395 . S
C1426 C1429 1.403 . S
C1427 C1424 1.403 . S
C1427 C1428 1.524 . S
C1427 C1431 1.400 . S
C1428 H1413 0.960 . S
C1428 H1414 0.960 . S
C1428 H1415 0.960 . S
C1428 C1427 1.524 . S
C1429 C1426 1.403 . S
C1429 C1430 1.392 . S
C1429 C1433 1.495 . S
C1430 C1429 1.392 . S
C1430 C1431 1.385 . S
C1430 C1432 1.478 . S
C1431 H1425 0.930 . S
C1431 C1427 1.400 . S
C1431 C1430 1.385 . S
C1432 C1430 1.478 . S
C1432 C1434 1.381 . S
C1432 C1438 1.383 . S
C1433 C1429 1.495 . S
C1433 H1439 0.959 . S
C1433 H1440 0.961 . S
C1433 H1441 0.960 . S
C1434 C1432 1.381 . S
C1434 C1435 1.394 . S
C1434 H1442 0.930 . S
C1435 C1434 1.394 . S
C1435 C1436 1.383 . S
C1435 H1443 0.929 . S
C1436 C1435 1.383 . S
C1436 C1437 1.377 . S
C1437 H1421 0.930 . S
C1437 C1436 1.377 . S
C1437 C1438 1.379 . S
C1438 H1422 0.931 . S
C1438 C1432 1.383 . S
C1438 C1437 1.379 . S
H1439 C1433 0.959 . S
H1440 C1433 0.961 . S
H1441 C1433 0.960 . S
H1442 C1434 0.930 . S
H1443 C1435 0.929 . S
H1444 C1452 0.929 . S
H1445 C1454 0.930 . S
H1446 C1456 0.930 . S
H1447 C1459 0.929 . S
H1448 C1462 0.930 . S
H1449 C1464 0.960 . S
H1450 C1464 0.960 . S
H1451 C1464 0.960 . S
C1452 H1444 0.929 . S
C1452 C1453 1.377 . S
C1452 C1454 1.384 . S
C1453 C1452 1.377 . S
C1453 C1459 1.390 . S
C1454 H1445 0.930 . S
C1454 C1452 1.384 . S
C1454 C1455 1.372 . S
C1455 C1454 1.372 . S
C1455 C1456 1.400 . S
C1455 C1460 1.490 1_556 S
C1456 H1446 0.930 . S
C1456 C1455 1.400 . S
C1456 C1459 1.386 . S
H1457 C1473 0.930 . S
H1458 C1474 0.931 . S
C1459 H1447 0.929 . S
C1459 C1453 1.390 . S
C1459 C1456 1.386 . S
C1460 C1455 1.490 1_554 S
C1460 C1462 1.395 . S
C1460 C1463 1.403 . S
H1461 C1467 0.930 . S
C1462 H1448 0.930 . S
C1462 C1460 1.395 . S
C1462 C1465 1.403 . S
C1463 C1460 1.403 . S
C1463 C1464 1.524 . S
C1463 C1467 1.400 . S
C1464 H1449 0.960 . S
C1464 H1450 0.960 . S
C1464 H1451 0.960 . S
C1464 C1463 1.524 . S
C1465 C1462 1.403 . S
C1465 C1466 1.392 . S
C1465 C1469 1.495 . S
C1466 C1465 1.392 . S
C1466 C1467 1.385 . S
C1466 C1468 1.478 . S
C1467 H1461 0.930 . S
C1467 C1463 1.400 . S
C1467 C1466 1.385 . S
C1468 C1466 1.478 . S
C1468 C1470 1.381 . S
C1468 C1474 1.383 . S
C1469 C1465 1.495 . S
C1469 H1475 0.959 . S
C1469 H1476 0.961 . S
C1469 H1477 0.960 . S
C1470 C1468 1.381 . S
C1470 C1471 1.394 . S
C1470 H1478 0.930 . S
C1471 C1470 1.394 . S
C1471 C1472 1.383 . S
C1471 H1479 0.929 . S
C1472 C1471 1.383 . S
C1472 C1473 1.377 . S
C1473 H1457 0.930 . S
C1473 C1472 1.377 . S
C1473 C1474 1.379 . S
C1474 H1458 0.931 . S
C1474 C1468 1.383 . S
C1474 C1473 1.379 . S
H1475 C1469 0.959 . S
H1476 C1469 0.961 . S
H1477 C1469 0.960 . S
H1478 C1470 0.930 . S
H1479 C1471 0.929 . S
H1480 C1488 0.929 . S
H1481 C1490 0.930 1_556 S
H1482 C1492 0.930 . S
H1483 C1495 0.929 . S
H1484 C1498 0.930 . S
H1485 C1500 0.960 . S
H1486 C1500 0.960 . S
H1487 C1500 0.960 . S
C1488 H1480 0.929 . S
C1488 C1489 1.377 . S
C1488 C1490 1.384 . S
C1489 C1488 1.377 . S
C1489 C1495 1.390 . S
C1490 H1481 0.930 1_554 S
C1490 C1488 1.384 . S
C1490 C1491 1.372 1_554 S
C1491 C1490 1.372 1_556 S
C1491 C1492 1.400 . S
C1491 C1496 1.490 . S
C1492 H1482 0.930 . S
C1492 C1491 1.400 . S
C1492 C1495 1.386 1_556 S
H1493 C1509 0.930 . S
H1494 C1510 0.931 . S
C1495 H1483 0.929 . S
C1495 C1489 1.390 . S
C1495 C1492 1.386 1_554 S
C1496 C1491 1.490 . S
C1496 C1498 1.395 . S
C1496 C1499 1.403 . S
H1497 C1503 0.930 . S
C1498 H1484 0.930 . S
C1498 C1496 1.395 . S
C1498 C1501 1.403 . S
C1499 C1496 1.403 . S
C1499 C1500 1.524 . S
C1499 C1503 1.400 . S
C1500 H1485 0.960 . S
C1500 H1486 0.960 . S
C1500 H1487 0.960 . S
C1500 C1499 1.524 . S
C1501 C1498 1.403 . S
C1501 C1502 1.392 . S
C1501 C1505 1.495 . S
C1502 C1501 1.392 . S
C1502 C1503 1.385 . S
C1502 C1504 1.478 . S
C1503 H1497 0.930 . S
C1503 C1499 1.400 . S
C1503 C1502 1.385 . S
C1504 C1502 1.478 . S
C1504 C1506 1.381 . S
C1504 C1510 1.383 . S
C1505 C1501 1.495 . S
C1505 H1511 0.959 . S
C1505 H1512 0.961 . S
C1505 H1513 0.960 . S
C1506 C1504 1.381 . S
C1506 C1507 1.394 . S
C1506 H1514 0.930 . S
C1507 C1506 1.394 . S
C1507 C1508 1.383 . S
C1507 H1515 0.929 . S
C1508 C1507 1.383 . S
C1508 C1509 1.377 . S
C1509 H1493 0.930 . S
C1509 C1508 1.377 . S
C1509 C1510 1.379 . S
C1510 H1494 0.931 . S
C1510 C1504 1.383 . S
C1510 C1509 1.379 . S
H1511 C1505 0.959 . S
H1512 C1505 0.961 . S
H1513 C1505 0.960 . S
H1514 C1506 0.930 . S
H1515 C1507 0.929 . S
H1516 C1524 0.929 . S
H1517 C1526 0.930 . S
H1518 C1528 0.930 . S
H1519 C1531 0.929 . S
H1520 C1534 0.930 . S
H1521 C1536 0.960 . S
H1522 C1536 0.960 . S
H1523 C1536 0.960 . S
C1524 H1516 0.929 . S
C1524 C1525 1.377 . S
C1524 C1526 1.384 1_554 S
C1525 C1524 1.377 . S
C1525 C1531 1.390 . S
C1526 H1517 0.930 . S
C1526 C1524 1.384 1_556 S
C1526 C1527 1.372 . S
C1527 C1526 1.372 . S
C1527 C1528 1.400 . S
C1527 C1532 1.490 . S
C1528 H1518 0.930 . S
C1528 C1527 1.400 . S
C1528 C1531 1.386 1_556 S
H1529 C1545 0.930 . S
H1530 C1546 0.931 . S
C1531 H1519 0.929 . S
C1531 C1525 1.390 . S
C1531 C1528 1.386 1_554 S
C1532 C1527 1.490 . S
C1532 C1534 1.395 . S
C1532 C1535 1.403 . S
H1533 C1539 0.930 . S
C1534 H1520 0.930 . S
C1534 C1532 1.395 . S
C1534 C1537 1.403 . S
C1535 C1532 1.403 . S
C1535 C1536 1.524 . S
C1535 C1539 1.400 . S
C1536 H1521 0.960 . S
C1536 H1522 0.960 . S
C1536 H1523 0.960 . S
C1536 C1535 1.524 . S
C1537 C1534 1.403 . S
C1537 C1538 1.392 . S
C1537 C1541 1.495 . S
C1538 C1537 1.392 . S
C1538 C1539 1.385 . S
C1538 C1540 1.478 . S
C1539 H1533 0.930 . S
C1539 C1535 1.400 . S
C1539 C1538 1.385 . S
C1540 C1538 1.478 . S
C1540 C1542 1.381 . S
C1540 C1546 1.383 . S
C1541 C1537 1.495 . S
C1541 H1547 0.959 . S
C1541 H1548 0.961 . S
C1541 H1549 0.960 . S
C1542 C1540 1.381 . S
C1542 C1543 1.394 . S
C1542 H1550 0.930 . S
C1543 C1542 1.394 . S
C1543 C1544 1.383 . S
C1543 H1551 0.929 . S
C1544 C1543 1.383 . S
C1544 C1545 1.377 . S
C1545 H1529 0.930 . S
C1545 C1544 1.377 . S
C1545 C1546 1.379 . S
C1546 H1530 0.931 . S
C1546 C1540 1.383 . S
C1546 C1545 1.379 . S
H1547 C1541 0.959 . S
H1548 C1541 0.961 . S
H1549 C1541 0.960 . S
H1550 C1542 0.930 . S
H1551 C1543 0.929 . S
H1552 C1560 0.929 . S
H1553 C1562 0.930 . S
H1554 C1564 0.930 . S
H1555 C1567 0.929 . S
H1556 C1570 0.930 . S
H1557 C1572 0.960 . S
H1558 C1572 0.960 . S
H1559 C1572 0.960 . S
C1560 H1552 0.929 . S
C1560 C1561 1.377 . S
C1560 C1562 1.384 . S
C1561 C1560 1.377 . S
C1561 C1567 1.390 . S
C1562 H1553 0.930 . S
C1562 C1560 1.384 . S
C1562 C1563 1.372 . S
C1563 C1562 1.372 . S
C1563 C1564 1.400 . S
C1563 C1568 1.490 . S
C1564 H1554 0.930 . S
C1564 C1563 1.400 . S
C1564 C1567 1.386 . S
H1565 C1581 0.930 . S
H1566 C1582 0.931 . S
C1567 H1555 0.929 . S
C1567 C1561 1.390 . S
C1567 C1564 1.386 . S
C1568 C1563 1.490 . S
C1568 C1570 1.395 . S
C1568 C1571 1.403 . S
H1569 C1575 0.930 . S
C1570 H1556 0.930 . S
C1570 C1568 1.395 . S
C1570 C1573 1.403 . S
C1571 C1568 1.403 . S
C1571 C1572 1.524 . S
C1571 C1575 1.400 . S
C1572 H1557 0.960 . S
C1572 H1558 0.960 . S
C1572 H1559 0.960 . S
C1572 C1571 1.524 . S
C1573 C1570 1.403 . S
C1573 C1574 1.392 . S
C1573 C1577 1.495 . S
C1574 C1573 1.392 . S
C1574 C1575 1.385 . S
C1574 C1576 1.478 . S
C1575 H1569 0.930 . S
C1575 C1571 1.400 . S
C1575 C1574 1.385 . S
C1576 C1574 1.478 . S
C1576 C1578 1.381 . S
C1576 C1582 1.383 . S
C1577 C1573 1.495 . S
C1577 H1583 0.959 . S
C1577 H1584 0.961 . S
C1577 H1585 0.960 . S
C1578 C1576 1.381 . S
C1578 C1579 1.394 . S
C1578 H1586 0.930 . S
C1579 C1578 1.394 . S
C1579 C1580 1.383 . S
C1579 H1587 0.929 . S
C1580 C1579 1.383 . S
C1580 C1581 1.377 . S
C1581 H1565 0.930 . S
C1581 C1580 1.377 . S
C1581 C1582 1.379 . S
C1582 H1566 0.931 . S
C1582 C1576 1.383 . S
C1582 C1581 1.379 . S
H1583 C1577 0.959 . S
H1584 C1577 0.961 . S
H1585 C1577 0.960 . S
H1586 C1578 0.930 . S
H1587 C1579 0.929 . S
H1588 C1596 0.929 . S
H1589 C1598 0.930 . S
H1590 C1600 0.930 . S
H1591 C1603 0.929 . S
H1592 C1606 0.930 . S
H1593 C1608 0.960 . S
H1594 C1608 0.960 . S
H1595 C1608 0.960 . S
C1596 H1588 0.929 . S
C1596 C1597 1.377 . S
C1596 C1598 1.384 . S
C1597 C1596 1.377 . S
C1597 C1603 1.390 . S
C1598 H1589 0.930 . S
C1598 C1596 1.384 . S
C1598 C1599 1.372 . S
C1599 C1598 1.372 . S
C1599 C1600 1.400 . S
C1599 C1604 1.490 . S
C1600 H1590 0.930 . S
C1600 C1599 1.400 . S
C1600 C1603 1.386 . S
H1601 C1617 0.930 . S
H1602 C1618 0.931 . S
C1603 H1591 0.929 . S
C1603 C1597 1.390 . S
C1603 C1600 1.386 . S
C1604 C1599 1.490 . S
C1604 C1606 1.395 . S
C1604 C1607 1.403 . S
H1605 C1611 0.930 . S
C1606 H1592 0.930 . S
C1606 C1604 1.395 . S
C1606 C1609 1.403 . S
C1607 C1604 1.403 . S
C1607 C1608 1.524 . S
C1607 C1611 1.400 . S
C1608 H1593 0.960 . S
C1608 H1594 0.960 . S
C1608 H1595 0.960 . S
C1608 C1607 1.524 . S
C1609 C1606 1.403 . S
C1609 C1610 1.392 . S
C1609 C1613 1.495 . S
C1610 C1609 1.392 . S
C1610 C1611 1.385 . S
C1610 C1612 1.478 . S
C1611 H1605 0.930 . S
C1611 C1607 1.400 . S
C1611 C1610 1.385 . S
C1612 C1610 1.478 . S
C1612 C1614 1.381 . S
C1612 C1618 1.383 . S
C1613 C1609 1.495 . S
C1613 H1619 0.959 . S
C1613 H1620 0.961 . S
C1613 H1621 0.960 . S
C1614 C1612 1.381 . S
C1614 C1615 1.394 . S
C1614 H1622 0.930 . S
C1615 C1614 1.394 . S
C1615 C1616 1.383 . S
C1615 H1623 0.929 . S
C1616 C1615 1.383 . S
C1616 C1617 1.377 . S
C1617 H1601 0.930 . S
C1617 C1616 1.377 . S
C1617 C1618 1.379 . S
C1618 H1602 0.931 . S
C1618 C1612 1.383 . S
C1618 C1617 1.379 . S
H1619 C1613 0.959 . S
H1620 C1613 0.961 . S
H1621 C1613 0.960 . S
H1622 C1614 0.930 . S
H1623 C1615 0.929 . S
H1624 C1632 0.929 . S
H1625 C1634 0.930 . S
H1626 C1636 0.930 . S
H1627 C1639 0.929 . S
H1628 C1642 0.930 . S
H1629 C1644 0.960 . S
H1630 C1644 0.960 . S
H1631 C1644 0.960 . S
C1632 H1624 0.929 . S
C1632 C1633 1.377 . S
C1632 C1634 1.384 . S
C1633 C1632 1.377 . S
C1633 C1639 1.390 . S
C1634 H1625 0.930 . S
C1634 C1632 1.384 . S
C1634 C1635 1.372 . S
C1635 C1634 1.372 . S
C1635 C1636 1.400 . S
C1635 C1640 1.490 . S
C1636 H1626 0.930 . S
C1636 C1635 1.400 . S
C1636 C1639 1.386 . S
H1637 C1653 0.930 . S
H1638 C1654 0.931 . S
C1639 H1627 0.929 . S
C1639 C1633 1.390 . S
C1639 C1636 1.386 . S
C1640 C1635 1.490 . S
C1640 C1642 1.395 . S
C1640 C1643 1.403 . S
H1641 C1647 0.930 . S
C1642 H1628 0.930 . S
C1642 C1640 1.395 . S
C1642 C1645 1.403 . S
C1643 C1640 1.403 . S
C1643 C1644 1.524 . S
C1643 C1647 1.400 . S
C1644 H1629 0.960 . S
C1644 H1630 0.960 . S
C1644 H1631 0.960 . S
C1644 C1643 1.524 . S
C1645 C1642 1.403 . S
C1645 C1646 1.392 . S
C1645 C1649 1.495 . S
C1646 C1645 1.392 . S
C1646 C1647 1.385 . S
C1646 C1648 1.478 . S
C1647 H1641 0.930 . S
C1647 C1643 1.400 . S
C1647 C1646 1.385 . S
C1648 C1646 1.478 . S
C1648 C1650 1.381 . S
C1648 C1654 1.383 . S
C1649 C1645 1.495 . S
C1649 H1655 0.959 . S
C1649 H1656 0.961 . S
C1649 H1657 0.960 . S
C1650 C1648 1.381 . S
C1650 C1651 1.394 . S
C1650 H1658 0.930 . S
C1651 C1650 1.394 . S
C1651 C1652 1.383 . S
C1651 H1659 0.929 . S
C1652 C1651 1.383 . S
C1652 C1653 1.377 . S
C1653 H1637 0.930 . S
C1653 C1652 1.377 . S
C1653 C1654 1.379 . S
C1654 H1638 0.931 . S
C1654 C1648 1.383 . S
C1654 C1653 1.379 . S
H1655 C1649 0.959 . S
H1656 C1649 0.961 . S
H1657 C1649 0.960 . S
H1658 C1650 0.930 . S
H1659 C1651 0.929 . S
H1660 C1668 0.929 . S
H1661 C1670 0.930 . S
H1662 C1672 0.930 . S
H1663 C1675 0.929 . S
H1664 C1678 0.930 . S
H1665 C1680 0.960 . S
H1666 C1680 0.960 . S
H1667 C1680 0.960 . S
C1668 H1660 0.929 . S
C1668 C1669 1.377 . S
C1668 C1670 1.384 . S
C1669 C1668 1.377 . S
C1669 C1675 1.390 . S
C1670 H1661 0.930 . S
C1670 C1668 1.384 . S
C1670 C1671 1.372 . S
C1671 C1670 1.372 . S
C1671 C1672 1.400 . S
C1671 C1676 1.490 . S
C1672 H1662 0.930 . S
C1672 C1671 1.400 . S
C1672 C1675 1.386 . S
H1673 C1689 0.930 . S
H1674 C1690 0.931 . S
C1675 H1663 0.929 . S
C1675 C1669 1.390 . S
C1675 C1672 1.386 . S
C1676 C1671 1.490 . S
C1676 C1678 1.395 . S
C1676 C1679 1.403 . S
H1677 C1683 0.930 . S
C1678 H1664 0.930 . S
C1678 C1676 1.395 . S
C1678 C1681 1.403 . S
C1679 C1676 1.403 . S
C1679 C1680 1.524 . S
C1679 C1683 1.400 . S
C1680 H1665 0.960 . S
C1680 H1666 0.960 . S
C1680 H1667 0.960 . S
C1680 C1679 1.524 . S
C1681 C1678 1.403 . S
C1681 C1682 1.392 . S
C1681 C1685 1.495 . S
C1682 C1681 1.392 . S
C1682 C1683 1.385 . S
C1682 C1684 1.478 . S
C1683 H1677 0.930 . S
C1683 C1679 1.400 . S
C1683 C1682 1.385 . S
C1684 C1682 1.478 . S
C1684 C1686 1.381 . S
C1684 C1690 1.383 . S
C1685 C1681 1.495 . S
C1685 H1691 0.959 . S
C1685 H1692 0.961 . S
C1685 H1693 0.960 . S
C1686 C1684 1.381 . S
C1686 C1687 1.394 . S
C1686 H1694 0.930 . S
C1687 C1686 1.394 . S
C1687 C1688 1.383 . S
C1687 H1695 0.929 . S
C1688 C1687 1.383 . S
C1688 C1689 1.377 . S
C1689 H1673 0.930 . S
C1689 C1688 1.377 . S
C1689 C1690 1.379 . S
C1690 H1674 0.931 . S
C1690 C1684 1.383 . S
C1690 C1689 1.379 . S
H1691 C1685 0.959 . S
H1692 C1685 0.961 . S
H1693 C1685 0.960 . S
H1694 C1686 0.930 . S
H1695 C1687 0.929 . S
H1696 C1704 0.929 . S
H1697 C1706 0.930 . S
H1698 C1708 0.930 . S
H1699 C1711 0.929 . S
H1700 C1714 0.930 . S
H1701 C1716 0.960 . S
H1702 C1716 0.960 . S
H1703 C1716 0.960 . S
C1704 H1696 0.929 . S
C1704 C1705 1.377 . S
C1704 C1706 1.384 . S
C1705 C1704 1.377 . S
C1705 C1711 1.390 . S
C1706 H1697 0.930 . S
C1706 C1704 1.384 . S
C1706 C1707 1.372 . S
C1707 C1706 1.372 . S
C1707 C1708 1.400 . S
C1707 C1712 1.490 . S
C1708 H1698 0.930 . S
C1708 C1707 1.400 . S
C1708 C1711 1.386 . S
H1709 C1725 0.930 . S
H1710 C1726 0.931 . S
C1711 H1699 0.929 . S
C1711 C1705 1.390 . S
C1711 C1708 1.386 . S
C1712 C1707 1.490 . S
C1712 C1714 1.395 . S
C1712 C1715 1.403 . S
H1713 C1719 0.930 . S
C1714 H1700 0.930 . S
C1714 C1712 1.395 . S
C1714 C1717 1.403 . S
C1715 C1712 1.403 . S
C1715 C1716 1.524 . S
C1715 C1719 1.400 . S
C1716 H1701 0.960 . S
C1716 H1702 0.960 . S
C1716 H1703 0.960 . S
C1716 C1715 1.524 . S
C1717 C1714 1.403 . S
C1717 C1718 1.392 . S
C1717 C1721 1.495 . S
C1718 C1717 1.392 . S
C1718 C1719 1.385 . S
C1718 C1720 1.478 . S
C1719 H1713 0.930 . S
C1719 C1715 1.400 . S
C1719 C1718 1.385 . S
C1720 C1718 1.478 . S
C1720 C1722 1.381 . S
C1720 C1726 1.383 . S
C1721 C1717 1.495 . S
C1721 H1727 0.959 . S
C1721 H1728 0.961 . S
C1721 H1729 0.960 . S
C1722 C1720 1.381 . S
C1722 C1723 1.394 . S
C1722 H1730 0.930 . S
C1723 C1722 1.394 . S
C1723 C1724 1.383 . S
C1723 H1731 0.929 . S
C1724 C1723 1.383 . S
C1724 C1725 1.377 . S
C1725 H1709 0.930 . S
C1725 C1724 1.377 . S
C1725 C1726 1.379 . S
C1726 H1710 0.931 . S
C1726 C1720 1.383 . S
C1726 C1725 1.379 . S
H1727 C1721 0.959 . S
H1728 C1721 0.961 . S
H1729 C1721 0.960 . S
H1730 C1722 0.930 . S
H1731 C1723 0.929 . S
H1732 C1740 0.929 . S
H1733 C1742 0.930 . S
H1734 C1744 0.930 . S
H1735 C1747 0.929 . S
H1736 C1750 0.930 . S
H1737 C1752 0.960 . S
H1738 C1752 0.960 . S
H1739 C1752 0.960 . S
C1740 H1732 0.929 . S
C1740 C1741 1.377 . S
C1740 C1742 1.384 . S
C1741 C1740 1.377 . S
C1741 C1747 1.390 . S
C1742 H1733 0.930 . S
C1742 C1740 1.384 . S
C1742 C1743 1.372 . S
C1743 C1742 1.372 . S
C1743 C1744 1.400 . S
C1743 C1748 1.490 . S
C1744 H1734 0.930 . S
C1744 C1743 1.400 . S
C1744 C1747 1.386 . S
H1745 C1761 0.930 . S
H1746 C1762 0.931 . S
C1747 H1735 0.929 . S
C1747 C1741 1.390 . S
C1747 C1744 1.386 . S
C1748 C1743 1.490 . S
C1748 C1750 1.395 . S
C1748 C1751 1.403 . S
H1749 C1755 0.930 . S
C1750 H1736 0.930 . S
C1750 C1748 1.395 . S
C1750 C1753 1.403 . S
C1751 C1748 1.403 . S
C1751 C1752 1.524 . S
C1751 C1755 1.400 . S
C1752 H1737 0.960 . S
C1752 H1738 0.960 . S
C1752 H1739 0.960 . S
C1752 C1751 1.524 . S
C1753 C1750 1.403 . S
C1753 C1754 1.392 . S
C1753 C1757 1.495 . S
C1754 C1753 1.392 . S
C1754 C1755 1.385 . S
C1754 C1756 1.478 . S
C1755 H1749 0.930 . S
C1755 C1751 1.400 . S
C1755 C1754 1.385 . S
C1756 C1754 1.478 . S
C1756 C1758 1.381 . S
C1756 C1762 1.383 . S
C1757 C1753 1.495 . S
C1757 H1763 0.959 . S
C1757 H1764 0.961 . S
C1757 H1765 0.960 . S
C1758 C1756 1.381 . S
C1758 C1759 1.394 . S
C1758 H1766 0.930 . S
C1759 C1758 1.394 . S
C1759 C1760 1.383 . S
C1759 H1767 0.929 . S
C1760 C1759 1.383 . S
C1760 C1761 1.377 . S
C1761 H1745 0.930 . S
C1761 C1760 1.377 . S
C1761 C1762 1.379 . S
C1762 H1746 0.931 . S
C1762 C1756 1.383 . S
C1762 C1761 1.379 . S
H1763 C1757 0.959 . S
H1764 C1757 0.961 . S
H1765 C1757 0.960 . S
H1766 C1758 0.930 . S
H1767 C1759 0.929 . S
H1768 C1776 0.929 . S
H1769 C1778 0.930 . S
H1770 C1780 0.930 . S
H1771 C1783 0.929 . S
H1772 C1786 0.930 . S
H1773 C1788 0.960 . S
H1774 C1788 0.960 . S
H1775 C1788 0.960 . S
C1776 H1768 0.929 . S
C1776 C1777 1.377 . S
C1776 C1778 1.384 . S
C1777 C1776 1.377 . S
C1777 C1783 1.390 . S
C1778 H1769 0.930 . S
C1778 C1776 1.384 . S
C1778 C1779 1.372 . S
C1779 C1778 1.372 . S
C1779 C1780 1.400 . S
C1779 C1784 1.490 . S
C1780 H1770 0.930 . S
C1780 C1779 1.400 . S
C1780 C1783 1.386 . S
H1781 C1797 0.930 . S
H1782 C1798 0.931 . S
C1783 H1771 0.929 . S
C1783 C1777 1.390 . S
C1783 C1780 1.386 . S
C1784 C1779 1.490 . S
C1784 C1786 1.395 . S
C1784 C1787 1.403 . S
H1785 C1791 0.930 . S
C1786 H1772 0.930 . S
C1786 C1784 1.395 . S
C1786 C1789 1.403 . S
C1787 C1784 1.403 . S
C1787 C1788 1.524 . S
C1787 C1791 1.400 . S
C1788 H1773 0.960 . S
C1788 H1774 0.960 . S
C1788 H1775 0.960 . S
C1788 C1787 1.524 . S
C1789 C1786 1.403 . S
C1789 C1790 1.392 . S
C1789 C1793 1.495 . S
C1790 C1789 1.392 . S
C1790 C1791 1.385 . S
C1790 C1792 1.478 . S
C1791 H1785 0.930 . S
C1791 C1787 1.400 . S
C1791 C1790 1.385 . S
C1792 C1790 1.478 . S
C1792 C1794 1.381 . S
C1792 C1798 1.383 . S
C1793 C1789 1.495 . S
C1793 H1799 0.959 . S
C1793 H1800 0.961 . S
C1793 H1801 0.960 . S
C1794 C1792 1.381 . S
C1794 C1795 1.394 . S
C1794 H1802 0.930 . S
C1795 C1794 1.394 . S
C1795 C1796 1.383 . S
C1795 H1803 0.929 . S
C1796 C1795 1.383 . S
C1796 C1797 1.377 . S
C1797 H1781 0.930 . S
C1797 C1796 1.377 . S
C1797 C1798 1.379 . S
C1798 H1782 0.931 . S
C1798 C1792 1.383 . S
C1798 C1797 1.379 . S
H1799 C1793 0.959 . S
H1800 C1793 0.961 . S
H1801 C1793 0.960 . S
H1802 C1794 0.930 . S
H1803 C1795 0.929 . S
H1804 C1812 0.929 . S
H1805 C1814 0.930 . S
H1806 C1816 0.930 . S
H1807 C1819 0.929 . S
H1808 C1822 0.930 . S
H1809 C1824 0.960 . S
H1810 C1824 0.960 . S
H1811 C1824 0.960 . S
C1812 H1804 0.929 . S
C1812 C1813 1.377 . S
C1812 C1814 1.384 . S
C1813 C1812 1.377 . S
C1813 C1819 1.390 . S
C1814 H1805 0.930 . S
C1814 C1812 1.384 . S
C1814 C1815 1.372 . S
C1815 C1814 1.372 . S
C1815 C1816 1.400 . S
C1815 C1820 1.490 . S
C1816 H1806 0.930 . S
C1816 C1815 1.400 . S
C1816 C1819 1.386 . S
H1817 C1833 0.930 . S
H1818 C1834 0.931 . S
C1819 H1807 0.929 . S
C1819 C1813 1.390 . S
C1819 C1816 1.386 . S
C1820 C1815 1.490 . S
C1820 C1822 1.395 . S
C1820 C1823 1.403 . S
H1821 C1827 0.930 . S
C1822 H1808 0.930 . S
C1822 C1820 1.395 . S
C1822 C1825 1.403 . S
C1823 C1820 1.403 . S
C1823 C1824 1.524 . S
C1823 C1827 1.400 . S
C1824 H1809 0.960 . S
C1824 H1810 0.960 . S
C1824 H1811 0.960 . S
C1824 C1823 1.524 . S
C1825 C1822 1.403 . S
C1825 C1826 1.392 . S
C1825 C1829 1.495 . S
C1826 C1825 1.392 . S
C1826 C1827 1.385 . S
C1826 C1828 1.478 . S
C1827 H1821 0.930 . S
C1827 C1823 1.400 . S
C1827 C1826 1.385 . S
C1828 C1826 1.478 . S
C1828 C1830 1.381 . S
C1828 C1834 1.383 . S
C1829 C1825 1.495 . S
C1829 H1835 0.959 . S
C1829 H1836 0.961 . S
C1829 H1837 0.960 . S
C1830 C1828 1.381 . S
C1830 C1831 1.394 . S
C1830 H1838 0.930 . S
C1831 C1830 1.394 . S
C1831 C1832 1.383 . S
C1831 H1839 0.929 . S
C1832 C1831 1.383 . S
C1832 C1833 1.377 . S
C1833 H1817 0.930 . S
C1833 C1832 1.377 . S
C1833 C1834 1.379 . S
C1834 H1818 0.931 . S
C1834 C1828 1.383 . S
C1834 C1833 1.379 . S
H1835 C1829 0.959 . S
H1836 C1829 0.961 . S
H1837 C1829 0.960 . S
H1838 C1830 0.930 . S
H1839 C1831 0.929 . S
H1840 C1848 0.929 . S
H1841 C1850 0.930 . S
H1842 C1852 0.930 . S
H1843 C1855 0.929 . S
H1844 C1858 0.930 . S
H1845 C1860 0.960 . S
H1846 C1860 0.960 . S
H1847 C1860 0.960 . S
C1848 H1840 0.929 . S
C1848 C1849 1.377 . S
C1848 C1850 1.384 . S
C1849 C1848 1.377 . S
C1849 C1855 1.390 . S
C1850 H1841 0.930 . S
C1850 C1848 1.384 . S
C1850 C1851 1.372 . S
C1851 C1850 1.372 . S
C1851 C1852 1.400 . S
C1851 C1856 1.490 . S
C1852 H1842 0.930 . S
C1852 C1851 1.400 . S
C1852 C1855 1.386 . S
H1853 C1869 0.930 . S
H1854 C1870 0.931 . S
C1855 H1843 0.929 . S
C1855 C1849 1.390 . S
C1855 C1852 1.386 . S
C1856 C1851 1.490 . S
C1856 C1858 1.395 . S
C1856 C1859 1.403 . S
H1857 C1863 0.930 . S
C1858 H1844 0.930 . S
C1858 C1856 1.395 . S
C1858 C1861 1.403 . S
C1859 C1856 1.403 . S
C1859 C1860 1.524 . S
C1859 C1863 1.400 . S
C1860 H1845 0.960 . S
C1860 H1846 0.960 . S
C1860 H1847 0.960 . S
C1860 C1859 1.524 . S
C1861 C1858 1.403 . S
C1861 C1862 1.392 . S
C1861 C1865 1.495 . S
C1862 C1861 1.392 . S
C1862 C1863 1.385 . S
C1862 C1864 1.478 . S
C1863 H1857 0.930 . S
C1863 C1859 1.400 . S
C1863 C1862 1.385 . S
C1864 C1862 1.478 . S
C1864 C1866 1.381 . S
C1864 C1870 1.383 . S
C1865 C1861 1.495 . S
C1865 H1871 0.959 . S
C1865 H1872 0.961 . S
C1865 H1873 0.960 . S
C1866 C1864 1.381 . S
C1866 C1867 1.394 . S
C1866 H1874 0.930 . S
C1867 C1866 1.394 . S
C1867 C1868 1.383 . S
C1867 H1875 0.929 . S
C1868 C1867 1.383 . S
C1868 C1869 1.377 . S
C1869 H1853 0.930 . S
C1869 C1868 1.377 . S
C1869 C1870 1.379 . S
C1870 H1854 0.931 . S
C1870 C1864 1.383 . S
C1870 C1869 1.379 . S
H1871 C1865 0.959 . S
H1872 C1865 0.961 . S
H1873 C1865 0.960 . S
H1874 C1866 0.930 . S
H1875 C1867 0.929 . S
H1876 C1884 0.929 . S
H1877 C1886 0.930 . S
H1878 C1888 0.930 . S
H1879 C1891 0.929 . S
H1880 C1894 0.930 . S
H1881 C1896 0.960 . S
H1882 C1896 0.960 . S
H1883 C1896 0.960 . S
C1884 H1876 0.929 . S
C1884 C1885 1.377 . S
C1884 C1886 1.384 . S
C1885 C1884 1.377 . S
C1885 C1891 1.390 . S
C1886 H1877 0.930 . S
C1886 C1884 1.384 . S
C1886 C1887 1.372 . S
C1887 C1886 1.372 . S
C1887 C1888 1.400 . S
C1887 C1892 1.490 . S
C1888 H1878 0.930 . S
C1888 C1887 1.400 . S
C1888 C1891 1.386 . S
H1889 C1905 0.930 . S
H1890 C1906 0.931 . S
C1891 H1879 0.929 . S
C1891 C1885 1.390 . S
C1891 C1888 1.386 . S
C1892 C1887 1.490 . S
C1892 C1894 1.395 . S
C1892 C1895 1.403 . S
H1893 C1899 0.930 . S
C1894 H1880 0.930 . S
C1894 C1892 1.395 . S
C1894 C1897 1.403 . S
C1895 C1892 1.403 . S
C1895 C1896 1.524 . S
C1895 C1899 1.400 . S
C1896 H1881 0.960 . S
C1896 H1882 0.960 . S
C1896 H1883 0.960 . S
C1896 C1895 1.524 . S
C1897 C1894 1.403 . S
C1897 C1898 1.392 . S
C1897 C1901 1.495 . S
C1898 C1897 1.392 . S
C1898 C1899 1.385 . S
C1898 C1900 1.478 . S
C1899 H1893 0.930 . S
C1899 C1895 1.400 . S
C1899 C1898 1.385 . S
C1900 C1898 1.478 . S
C1900 C1902 1.381 . S
C1900 C1906 1.383 . S
C1901 C1897 1.495 . S
C1901 H1907 0.959 . S
C1901 H1908 0.961 . S
C1901 H1909 0.960 . S
C1902 C1900 1.381 . S
C1902 C1903 1.394 . S
C1902 H1910 0.930 . S
C1903 C1902 1.394 . S
C1903 C1904 1.383 . S
C1903 H1911 0.929 . S
C1904 C1903 1.383 . S
C1904 C1905 1.377 . S
C1905 H1889 0.930 . S
C1905 C1904 1.377 . S
C1905 C1906 1.379 . S
C1906 H1890 0.931 . S
C1906 C1900 1.383 . S
C1906 C1905 1.379 . S
H1907 C1901 0.959 . S
H1908 C1901 0.961 . S
H1909 C1901 0.960 . S
H1910 C1902 0.930 . S
H1911 C1903 0.929 . S
H1912 C1920 0.929 . S
H1913 C1922 0.930 . S
H1914 C1924 0.930 . S
H1915 C1927 0.929 . S
H1916 C1930 0.930 . S
H1917 C1932 0.960 . S
H1918 C1932 0.960 . S
H1919 C1932 0.960 . S
C1920 H1912 0.929 . S
C1920 C1921 1.377 . S
C1920 C1922 1.384 . S
C1921 C1920 1.377 . S
C1921 C1927 1.390 . S
C1922 H1913 0.930 . S
C1922 C1920 1.384 . S
C1922 C1923 1.372 . S
C1923 C1922 1.372 . S
C1923 C1924 1.400 . S
C1923 C1928 1.490 . S
C1924 H1914 0.930 . S
C1924 C1923 1.400 . S
C1924 C1927 1.386 . S
H1925 C1941 0.930 . S
H1926 C1942 0.931 . S
C1927 H1915 0.929 . S
C1927 C1921 1.390 . S
C1927 C1924 1.386 . S
C1928 C1923 1.490 . S
C1928 C1930 1.395 . S
C1928 C1931 1.403 . S
H1929 C1935 0.930 . S
C1930 H1916 0.930 . S
C1930 C1928 1.395 . S
C1930 C1933 1.403 . S
C1931 C1928 1.403 . S
C1931 C1932 1.524 . S
C1931 C1935 1.400 . S
C1932 H1917 0.960 . S
C1932 H1918 0.960 . S
C1932 H1919 0.960 . S
C1932 C1931 1.524 . S
C1933 C1930 1.403 . S
C1933 C1934 1.392 . S
C1933 C1937 1.495 . S
C1934 C1933 1.392 . S
C1934 C1935 1.385 . S
C1934 C1936 1.478 . S
C1935 H1929 0.930 . S
C1935 C1931 1.400 . S
C1935 C1934 1.385 . S
C1936 C1934 1.478 . S
C1936 C1938 1.381 . S
C1936 C1942 1.383 . S
C1937 C1933 1.495 . S
C1937 H1943 0.959 . S
C1937 H1944 0.961 . S
C1937 H1945 0.960 . S
C1938 C1936 1.381 . S
C1938 C1939 1.394 . S
C1938 H1946 0.930 . S
C1939 C1938 1.394 . S
C1939 C1940 1.383 . S
C1939 H1947 0.929 . S
C1940 C1939 1.383 . S
C1940 C1941 1.377 . S
C1941 H1925 0.930 . S
C1941 C1940 1.377 . S
C1941 C1942 1.379 . S
C1942 H1926 0.931 . S
C1942 C1936 1.383 . S
C1942 C1941 1.379 . S
H1943 C1937 0.959 . S
H1944 C1937 0.961 . S
H1945 C1937 0.960 . S
H1946 C1938 0.930 . S
H1947 C1939 0.929 . S
H1948 C1956 0.929 . S
H1949 C1958 0.930 . S
H1950 C1960 0.930 . S
H1951 C1963 0.929 . S
H1952 C1966 0.930 . S
H1953 C1968 0.960 . S
H1954 C1968 0.960 . S
H1955 C1968 0.960 . S
C1956 H1948 0.929 . S
C1956 C1957 1.377 . S
C1956 C1958 1.384 . S
C1957 C1956 1.377 . S
C1957 C1963 1.390 . S
C1958 H1949 0.930 . S
C1958 C1956 1.384 . S
C1958 C1959 1.372 . S
C1959 C1958 1.372 . S
C1959 C1960 1.400 . S
C1959 C1964 1.490 . S
C1960 H1950 0.930 . S
C1960 C1959 1.400 . S
C1960 C1963 1.386 . S
H1961 C1977 0.930 . S
H1962 C1978 0.931 . S
C1963 H1951 0.929 . S
C1963 C1957 1.390 . S
C1963 C1960 1.386 . S
C1964 C1959 1.490 . S
C1964 C1966 1.395 . S
C1964 C1967 1.403 . S
H1965 C1971 0.930 . S
C1966 H1952 0.930 . S
C1966 C1964 1.395 . S
C1966 C1969 1.403 . S
C1967 C1964 1.403 . S
C1967 C1968 1.524 . S
C1967 C1971 1.400 . S
C1968 H1953 0.960 . S
C1968 H1954 0.960 . S
C1968 H1955 0.960 . S
C1968 C1967 1.524 . S
C1969 C1966 1.403 . S
C1969 C1970 1.392 . S
C1969 C1973 1.495 . S
C1970 C1969 1.392 . S
C1970 C1971 1.385 . S
C1970 C1972 1.478 . S
C1971 H1965 0.930 . S
C1971 C1967 1.400 . S
C1971 C1970 1.385 . S
C1972 C1970 1.478 . S
C1972 C1974 1.381 . S
C1972 C1978 1.383 . S
C1973 C1969 1.495 . S
C1973 H1979 0.959 . S
C1973 H1980 0.961 . S
C1973 H1981 0.960 . S
C1974 C1972 1.381 . S
C1974 C1975 1.394 . S
C1974 H1982 0.930 . S
C1975 C1974 1.394 . S
C1975 C1976 1.383 . S
C1975 H1983 0.929 . S
C1976 C1975 1.383 . S
C1976 C1977 1.377 . S
C1977 H1961 0.930 . S
C1977 C1976 1.377 . S
C1977 C1978 1.379 . S
C1978 H1962 0.931 . S
C1978 C1972 1.383 . S
C1978 C1977 1.379 . S
H1979 C1973 0.959 . S
H1980 C1973 0.961 . S
H1981 C1973 0.960 . S
H1982 C1974 0.930 . S
H1983 C1975 0.929 . S
C553 C360 1.552 . S
C572 C20 1.540 . S
C589 C67 1.569 . S
C608 C258 1.565 . S
C625 C543 1.528 . S
C644 C54 1.497 . S
C661 C101 1.554 . S
C680 C33 1.552 . S
C697 C88 1.552 . S
C716 C292 1.543 . S
C733 C203 1.568 . S
C752 C122 1.561 . S
C769 C462 1.514 . S
C788 C135 1.518 . S
C805 C496 1.552 . S
C824 C156 1.546 . S
C841 C190 1.513 . S
C860 C407 1.519 . S
C877 C237 1.551 . S
C896 C169 1.542 . S
C913 C428 1.542 . S
C932 C224 1.545 . S
C949 C326 1.512 . S
C968 C271 1.522 . S
C985 C530 1.565 . S
C1004 C339 1.566 . S
C1021 C305 1.549 . S
C1040 C373 1.557 . S
C1057 C394 1.564 . S
C1076 C475 1.557 . S
C1093 C509 1.551 . S
C1112 C441 1.532 . S
C1129 C9 1.132 . S
C1148 C5 1.166 1_556 S
C1165 C43 1.132 . S
C1184 C39 1.201 . S
C1201 C77 1.141 . S
C1220 C73 1.176 . S
C1237 C107 1.164 . S
C1256 C111 1.153 . S
C1273 C141 1.176 . S
C1292 C145 1.139 . S
C1309 C179 1.147 . S
C1328 C175 1.175 . S
C1345 C213 1.135 . S
C1364 C209 1.164 . S
C1381 C247 1.128 . S
C1400 C243 1.169 . S
C1417 C281 1.126 . S
C1436 C277 1.185 . S
C1453 C311 1.191 . S
C1472 C315 1.162 . S
C1489 C349 1.141 . S
C1508 C345 1.176 . S
C1525 C383 1.129 . S
C1544 C379 1.169 . S
C1561 C417 1.132 . S
C1580 C413 1.190 1_556 S
C1597 C451 1.140 . S
C1616 C447 1.171 . S
C1633 C485 1.128 . S
C1652 C481 1.160 . S
C1669 C515 1.164 . S
C1688 C519 1.153 . S
C1705 C2 1.559 . S
C1724 C36 1.543 . S
C1741 C70 1.523 . S
C1760 C104 1.516 . S
C1777 C138 1.558 . S
C1796 C172 1.545 . S
C1813 C206 1.525 . S
C1832 C240 1.522 . S
C1849 C308 1.560 . S
C1868 C274 1.552 . S
C1885 C342 1.525 . S
C1904 C376 1.525 . S
C1921 C444 1.562 . S
C1940 C410 1.542 . S
C1957 C512 1.525 . S
C1976 C478 1.525 . S
