# Generated by pormake.
# Topology gme, (4)-cn, num edge types: 1
# Building blocks:
#     Node 0, Type 0, BuildingBlock: ICAMEG_clean_sbu_1, # of connection points: 4
#     Node 1, Type 0, BuildingBlock: ICAMEG_clean_sbu_1, # of connection points: 4
#     Node 2, Type 0, BuildingBlock: ICAMEG_clean_sbu_1, # of connection points: 4
#     Node 3, Type 0, BuildingBlock: ICAMEG_clean_sbu_1, # of connection points: 4
#     Node 4, Type 0, BuildingBlock: ICAMEG_clean_sbu_1, # of connection points: 4
#     Node 5, Type 0, BuildingBlock: ICAMEG_clean_sbu_1, # of connection points: 4
#     Node 6, Type 0, BuildingBlock: ICAMEG_clean_sbu_1, # of connection points: 4
#     Node 7, Type 0, BuildingBlock: ICAMEG_clean_sbu_1, # of connection points: 4
#     Node 8, Type 0, BuildingBlock: ICAMEG_clean_sbu_1, # of connection points: 4
#     Node 9, Type 0, BuildingBlock: ICAMEG_clean_sbu_1, # of connection points: 4
#     Node 10, Type 0, BuildingBlock: ICAMEG_clean_sbu_1, # of connection points: 4
#     Node 11, Type 0, BuildingBlock: ICAMEG_clean_sbu_1, # of connection points: 4
#     Node 12, Type 0, BuildingBlock: ICAMEG_clean_sbu_1, # of connection points: 4
#     Node 13, Type 0, BuildingBlock: ICAMEG_clean_sbu_1, # of connection points: 4
#     Node 14, Type 0, BuildingBlock: ICAMEG_clean_sbu_1, # of connection points: 4
#     Node 15, Type 0, BuildingBlock: ICAMEG_clean_sbu_1, # of connection points: 4
#     Node 16, Type 0, BuildingBlock: ICAMEG_clean_sbu_1, # of connection points: 4
#     Node 17, Type 0, BuildingBlock: ICAMEG_clean_sbu_1, # of connection points: 4
#     Node 18, Type 0, BuildingBlock: ICAMEG_clean_sbu_1, # of connection points: 4
#     Node 19, Type 0, BuildingBlock: ICAMEG_clean_sbu_1, # of connection points: 4
#     Node 20, Type 0, BuildingBlock: ICAMEG_clean_sbu_1, # of connection points: 4
#     Node 21, Type 0, BuildingBlock: ICAMEG_clean_sbu_1, # of connection points: 4
#     Node 22, Type 0, BuildingBlock: ICAMEG_clean_sbu_1, # of connection points: 4
#     Node 23, Type 0, BuildingBlock: ICAMEG_clean_sbu_1, # of connection points: 4
#     Edge 24, Type (0, 0), BuildingBlock: ZUJKAS_clean_linker_0, # of connection points: 2
#     Edge 25, Type (0, 0), BuildingBlock: ZUJKAS_clean_linker_0, # of connection points: 2
#     Edge 26, Type (0, 0), BuildingBlock: ZUJKAS_clean_linker_0, # of connection points: 2
#     Edge 27, Type (0, 0), BuildingBlock: ZUJKAS_clean_linker_0, # of connection points: 2
#     Edge 28, Type (0, 0), BuildingBlock: ZUJKAS_clean_linker_0, # of connection points: 2
#     Edge 29, Type (0, 0), BuildingBlock: ZUJKAS_clean_linker_0, # of connection points: 2
#     Edge 30, Type (0, 0), BuildingBlock: ZUJKAS_clean_linker_0, # of connection points: 2
#     Edge 31, Type (0, 0), BuildingBlock: ZUJKAS_clean_linker_0, # of connection points: 2
#     Edge 32, Type (0, 0), BuildingBlock: ZUJKAS_clean_linker_0, # of connection points: 2
#     Edge 33, Type (0, 0), BuildingBlock: ZUJKAS_clean_linker_0, # of connection points: 2
#     Edge 34, Type (0, 0), BuildingBlock: ZUJKAS_clean_linker_0, # of connection points: 2
#     Edge 35, Type (0, 0), BuildingBlock: ZUJKAS_clean_linker_0, # of connection points: 2
#     Edge 36, Type (0, 0), BuildingBlock: ZUJKAS_clean_linker_0, # of connection points: 2
#     Edge 37, Type (0, 0), BuildingBlock: ZUJKAS_clean_linker_0, # of connection points: 2
#     Edge 38, Type (0, 0), BuildingBlock: ZUJKAS_clean_linker_0, # of connection points: 2
#     Edge 39, Type (0, 0), BuildingBlock: ZUJKAS_clean_linker_0, # of connection points: 2
#     Edge 40, Type (0, 0), BuildingBlock: ZUJKAS_clean_linker_0, # of connection points: 2
#     Edge 41, Type (0, 0), BuildingBlock: ZUJKAS_clean_linker_0, # of connection points: 2
#     Edge 42, Type (0, 0), BuildingBlock: ZUJKAS_clean_linker_0, # of connection points: 2
#     Edge 43, Type (0, 0), BuildingBlock: ZUJKAS_clean_linker_0, # of connection points: 2
#     Edge 44, Type (0, 0), BuildingBlock: ZUJKAS_clean_linker_0, # of connection points: 2
#     Edge 45, Type (0, 0), BuildingBlock: ZUJKAS_clean_linker_0, # of connection points: 2
#     Edge 46, Type (0, 0), BuildingBlock: ZUJKAS_clean_linker_0, # of connection points: 2
#     Edge 47, Type (0, 0), BuildingBlock: ZUJKAS_clean_linker_0, # of connection points: 2
#     Edge 48, Type (0, 0), BuildingBlock: ZUJKAS_clean_linker_0, # of connection points: 2
#     Edge 49, Type (0, 0), BuildingBlock: ZUJKAS_clean_linker_0, # of connection points: 2
#     Edge 50, Type (0, 0), BuildingBlock: ZUJKAS_clean_linker_0, # of connection points: 2
#     Edge 51, Type (0, 0), BuildingBlock: ZUJKAS_clean_linker_0, # of connection points: 2
#     Edge 52, Type (0, 0), BuildingBlock: ZUJKAS_clean_linker_0, # of connection points: 2
#     Edge 53, Type (0, 0), BuildingBlock: ZUJKAS_clean_linker_0, # of connection points: 2
#     Edge 54, Type (0, 0), BuildingBlock: ZUJKAS_clean_linker_0, # of connection points: 2
#     Edge 55, Type (0, 0), BuildingBlock: ZUJKAS_clean_linker_0, # of connection points: 2
#     Edge 56, Type (0, 0), BuildingBlock: ZUJKAS_clean_linker_0, # of connection points: 2
#     Edge 57, Type (0, 0), BuildingBlock: ZUJKAS_clean_linker_0, # of connection points: 2
#     Edge 58, Type (0, 0), BuildingBlock: ZUJKAS_clean_linker_0, # of connection points: 2
#     Edge 59, Type (0, 0), BuildingBlock: ZUJKAS_clean_linker_0, # of connection points: 2
#     Edge 60, Type (0, 0), BuildingBlock: ZUJKAS_clean_linker_0, # of connection points: 2
#     Edge 61, Type (0, 0), BuildingBlock: ZUJKAS_clean_linker_0, # of connection points: 2
#     Edge 62, Type (0, 0), BuildingBlock: ZUJKAS_clean_linker_0, # of connection points: 2
#     Edge 63, Type (0, 0), BuildingBlock: ZUJKAS_clean_linker_0, # of connection points: 2
#     Edge 64, Type (0, 0), BuildingBlock: ZUJKAS_clean_linker_0, # of connection points: 2
#     Edge 65, Type (0, 0), BuildingBlock: ZUJKAS_clean_linker_0, # of connection points: 2
#     Edge 66, Type (0, 0), BuildingBlock: ZUJKAS_clean_linker_0, # of connection points: 2
#     Edge 67, Type (0, 0), BuildingBlock: ZUJKAS_clean_linker_0, # of connection points: 2
#     Edge 68, Type (0, 0), BuildingBlock: ZUJKAS_clean_linker_0, # of connection points: 2
#     Edge 69, Type (0, 0), BuildingBlock: ZUJKAS_clean_linker_0, # of connection points: 2
#     Edge 70, Type (0, 0), BuildingBlock: ZUJKAS_clean_linker_0, # of connection points: 2
#     Edge 71, Type (0, 0), BuildingBlock: ZUJKAS_clean_linker_0, # of connection points: 2
# Relax obj value: 0.062
# Max RMSD: 0.068
# Mean RMSD: 0.068
data_MOF--net-gme--node1-ICAMEG_clean_sbu_1--edge1-ZUJKAS_clean_linker_0
_symmetry_space_group_name_H-M    P1
_symmetry_Int_Tables_number       1
_symmetry_cell_setting            triclinic
loop_
_symmetry_equiv_pos_as_xyz
'x, y, z'
_cell_length_a     75.220743
_cell_length_b     75.222839
_cell_length_c     77.442602
_cell_angle_alpha  89.998651
_cell_angle_beta   90.001384
_cell_angle_gamma 119.99664
loop_
_atom_site_label
_atom_site_type_symbol
_atom_site_fract_x
_atom_site_fract_y
_atom_site_fract_z
_atom_type_partial_charge
Co0 Co 0.42397 0.09143 0.12702 0.0
Co1 Co 0.38785 0.03986 0.12458 0.0
O2 O 0.39972 0.06829 0.11691 0.0
C3 C 0.39245 0.10387 0.12992 0.0
O4 O 0.38008 0.0858 0.13669 0.0
C5 C 0.39743 0.03923 0.08789 0.0
O6 O 0.41549 0.05502 0.09152 0.0
O7 O 0.41519 0.04162 0.1247 0.0
O8 O 0.43798 0.07496 0.12898 0.0
H9 H 0.38265 0.98241 0.16134 0.0
H10 H 0.40744 0.09689 0.09394 0.0
O11 O 0.4105 0.10852 0.12524 0.0
H12 H 0.47815 0.11304 0.08095 0.0
H13 H 0.47769 0.16608 0.13241 0.0
H14 H 0.45175 0.09657 0.15613 0.0
H15 H 0.46431 0.10358 0.11048 0.0
H16 H 0.44739 0.13633 0.11959 0.0
O17 O 0.38405 0.03079 0.09979 0.0
H18 H 0.39763 0.01839 0.15185 0.0
H19 H 0.35231 0.00039 0.11268 0.0
H20 H 0.48218 0.12586 0.16926 0.0
H21 H 0.42072 0.10644 0.06425 0.0
H22 H 0.49534 0.16092 0.15738 0.0
H23 H 0.45629 0.11451 0.05759 0.0
O24 O 0.41267 0.08281 0.15069 0.0
H25 H 0.33175 0.0497 0.0995 0.0
H26 H 0.35327 0.02472 0.14972 0.0
H27 H 0.31971 0.0231 0.15021 0.0
H28 H 0.30874 0.03563 0.12496 0.0
H29 H 0.36526 0.05118 0.09961 0.0
H30 H 0.33694 0.96418 0.12165 0.0
H31 H 0.35209 0.95502 0.14619 0.0
O32 O 0.39162 0.0486 0.14938 0.0
C33 C 0.43342 0.05629 0.12735 0.0
C34 C 0.37588 0.98622 0.15066 0.0
C35 C 0.35023 0.97598 0.12837 0.0
N36 N 0.37574 0.01148 0.13182 0.0
C37 C 0.38425 0.00657 0.14527 0.0
C38 C 0.35903 0.9965 0.12333 0.0
C39 C 0.35874 0.97085 0.14215 0.0
C40 C 0.42301 0.10061 0.09118 0.0
N41 N 0.43511 0.09978 0.10395 0.0
C42 C 0.43041 0.10591 0.07433 0.0
C43 C 0.45036 0.11041 0.07059 0.0
C44 C 0.46263 0.10957 0.08369 0.0
C45 C 0.45469 0.10417 0.10039 0.0
C46 C 0.47213 0.15087 0.13767 0.0
C47 C 0.45747 0.11177 0.15083 0.0
C48 C 0.45496 0.13398 0.13049 0.0
N49 N 0.44793 0.11472 0.13702 0.0
C50 C 0.47467 0.1283 0.15835 0.0
C51 C 0.48203 0.14797 0.15168 0.0
C52 C 0.40095 0.06547 0.15776 0.0
C53 C 0.33633 0.04414 0.11056 0.0
C54 C 0.34862 0.03024 0.1387 0.0
C55 C 0.32959 0.02925 0.13904 0.0
C56 C 0.32344 0.03627 0.12486 0.0
N57 N 0.36116 0.03794 0.12461 0.0
C58 C 0.35525 0.04487 0.11067 0.0
Co59 Co 0.33396 0.42353 0.62753 0.0
Co60 Co 0.34952 0.38754 0.62426 0.0
O61 O 0.33286 0.39948 0.61696 0.0
C62 C 0.28988 0.39205 0.63015 0.0
O63 O 0.29539 0.37943 0.63671 0.0
C64 C 0.35962 0.39763 0.58762 0.0
O65 O 0.36168 0.41557 0.59138 0.0
O66 O 0.37506 0.41491 0.62449 0.0
O67 O 0.36443 0.43751 0.62946 0.0
H68 H 0.40206 0.382 0.66034 0.0
H69 H 0.31207 0.40773 0.59431 0.0
O70 O 0.30342 0.41015 0.62573 0.0
H71 H 0.36657 0.47877 0.5823 0.0
H72 H 0.31301 0.47711 0.63427 0.0
H73 H 0.35658 0.45064 0.65699 0.0
H74 H 0.36212 0.46426 0.61159 0.0
H75 H 0.31252 0.44715 0.62079 0.0
O76 O 0.35474 0.38413 0.5994 0.0
H77 H 0.38091 0.39701 0.65132 0.0
H78 H 0.35348 0.35222 0.61178 0.0
H79 H 0.35767 0.48073 0.67078 0.0
H80 H 0.31585 0.42169 0.56486 0.0
H81 H 0.33577 0.49415 0.65942 0.0
H82 H 0.34332 0.45743 0.55869 0.0
O83 O 0.3312 0.41168 0.65098 0.0
H84 H 0.28355 0.33173 0.599 0.0
H85 H 0.33025 0.35256 0.64905 0.0
H86 H 0.29837 0.31894 0.64933 0.0
H87 H 0.27478 0.30833 0.62415 0.0
H88 H 0.31552 0.36529 0.59932 0.0
H89 H 0.37445 0.33682 0.62026 0.0
H90 H 0.39889 0.35168 0.64475 0.0
O91 O 0.34463 0.3909 0.64916 0.0
C92 C 0.37858 0.43307 0.62744 0.0
C93 C 0.39141 0.37534 0.64968 0.0
C94 C 0.37594 0.35 0.62718 0.0
N95 N 0.36587 0.37539 0.63114 0.0
C96 C 0.37936 0.38374 0.64456 0.0
C97 C 0.36414 0.35881 0.62241 0.0
C98 C 0.38964 0.35834 0.64092 0.0
C99 C 0.32391 0.42337 0.59176 0.0
N100 N 0.3368 0.43519 0.60467 0.0
C101 C 0.32604 0.43116 0.57505 0.0
C102 C 0.34148 0.4512 0.57159 0.0
C103 C 0.35453 0.46318 0.58483 0.0
C104 C 0.35197 0.45487 0.60138 0.0
C105 C 0.32266 0.47143 0.63932 0.0
C106 C 0.3471 0.45647 0.6519 0.0
C107 C 0.32241 0.45445 0.63176 0.0
N108 N 0.33463 0.44727 0.63802 0.0
C109 C 0.34774 0.47348 0.6598 0.0
C110 C 0.33544 0.48099 0.65342 0.0
C111 C 0.33692 0.39991 0.65778 0.0
C112 C 0.29373 0.33616 0.61002 0.0
C113 C 0.32004 0.34807 0.63807 0.0
C114 C 0.30203 0.329 0.63828 0.0
C115 C 0.28881 0.32305 0.62415 0.0
N116 N 0.32478 0.36083 0.62414 0.0
C117 C 0.31189 0.35511 0.61025 0.0
Co118 Co 0.9101 0.3329 0.12752 0.0
Co119 Co 0.96154 0.34806 0.12416 0.0
O120 O 0.9329 0.33154 0.11695 0.0
C121 C 0.8973 0.28881 0.13034 0.0
O122 O 0.91552 0.29432 0.13669 0.0
C123 C 0.96138 0.35792 0.08746 0.0
O124 O 0.94568 0.36026 0.09133 0.0
O125 O 0.95996 0.37374 0.12436 0.0
O126 O 0.92678 0.36337 0.12931 0.0
H127 H 0.02 0.40048 0.15998 0.0
H128 H 0.90371 0.31068 0.09444 0.0
O129 O 0.89276 0.30236 0.12591 0.0
H130 H 0.88772 0.36549 0.08206 0.0
H131 H 0.83574 0.31257 0.13428 0.0
H132 H 0.90588 0.35584 0.15687 0.0
H133 H 0.89781 0.36119 0.11138 0.0
H134 H 0.86504 0.31172 0.12085 0.0
O135 O 0.97005 0.35307 0.09923 0.0
H136 H 0.98377 0.37952 0.1511 0.0
H137 H 0.00063 0.35164 0.11157 0.0
H138 H 0.87705 0.35729 0.17061 0.0
H139 H 0.89352 0.31433 0.06495 0.0
H140 H 0.84167 0.33555 0.1593 0.0
H141 H 0.88553 0.34195 0.0586 0.0
O142 O 0.91922 0.33026 0.15099 0.0
H143 H 0.95076 0.28176 0.09911 0.0
H144 H 0.97711 0.3287 0.14899 0.0
H145 H 0.97855 0.29666 0.14937 0.0
H146 H 0.96534 0.27295 0.12429 0.0
H147 H 0.94947 0.31388 0.09933 0.0
H148 H 0.03706 0.37241 0.11993 0.0
H149 H 0.04693 0.39698 0.14435 0.0
O150 O 0.95339 0.34336 0.14911 0.0
C151 C 0.94542 0.37741 0.12733 0.0
C152 C 0.01589 0.38978 0.14936 0.0
C153 C 0.02547 0.37405 0.12686 0.0
N154 N 0.9901 0.36427 0.13093 0.0
C155 C 0.9954 0.37783 0.14431 0.0
C156 C 0.00483 0.36236 0.12217 0.0
C157 C 0.03099 0.38782 0.14057 0.0
C158 C 0.90003 0.32259 0.09181 0.0
N159 N 0.90126 0.33564 0.10463 0.0
C160 C 0.89436 0.32464 0.07508 0.0
C161 C 0.88991 0.34016 0.07152 0.0
C162 C 0.89116 0.35339 0.08467 0.0
C163 C 0.89691 0.3509 0.10124 0.0
C164 C 0.85109 0.32215 0.1393 0.0
C165 C 0.89055 0.34643 0.15181 0.0
C166 C 0.86773 0.32171 0.13177 0.0
N167 N 0.88717 0.33385 0.13798 0.0
C168 C 0.87428 0.34727 0.15967 0.0
C169 C 0.85443 0.33505 0.15334 0.0
C170 C 0.93671 0.33588 0.15777 0.0
C171 C 0.95662 0.29199 0.1101 0.0
C172 C 0.97129 0.31844 0.13804 0.0
C173 C 0.97218 0.30034 0.13832 0.0
C174 C 0.96478 0.28705 0.12424 0.0
N175 N 0.9633 0.3232 0.12411 0.0
C176 C 0.956 0.31024 0.11026 0.0
Co177 Co 0.57725 0.91067 0.62738 0.0
Co178 Co 0.61357 0.96212 0.62398 0.0
O179 O 0.60158 0.93341 0.61694 0.0
C180 C 0.60845 0.89778 0.63103 0.0
O181 O 0.62129 0.91616 0.63703 0.0
C182 C 0.60384 0.96168 0.58718 0.0
O183 O 0.58583 0.94594 0.59101 0.0
O184 O 0.58627 0.9605 0.62385 0.0
O185 O 0.5634 0.92731 0.62858 0.0
H186 H 0.61915 0.02074 0.65927 0.0
H187 H 0.59371 0.90405 0.59476 0.0
O188 O 0.59043 0.89329 0.62639 0.0
H189 H 0.52311 0.88779 0.58113 0.0
H190 H 0.5231 0.83636 0.63427 0.0
H191 H 0.54961 0.90671 0.65624 0.0
H192 H 0.53693 0.89812 0.61058 0.0
H193 H 0.55345 0.86554 0.62095 0.0
O194 O 0.61727 0.97045 0.599 0.0
H195 H 0.60403 0.98447 0.65059 0.0
H196 H 0.64912 0.00116 0.61139 0.0
H197 H 0.51911 0.878 0.66986 0.0
H198 H 0.58044 0.89361 0.56515 0.0
H199 H 0.50567 0.84252 0.65887 0.0
H200 H 0.54493 0.88549 0.55817 0.0
O201 O 0.5886 0.92 0.65093 0.0
H202 H 0.66945 0.95138 0.59969 0.0
H203 H 0.64826 0.97791 0.64906 0.0
H204 H 0.6818 0.97948 0.64981 0.0
H205 H 0.69259 0.96618 0.62498 0.0
H206 H 0.63596 0.94997 0.59953 0.0
H207 H 0.66463 0.03764 0.61955 0.0
H208 H 0.64967 0.04761 0.6437 0.0
O209 O 0.60989 0.95412 0.64897 0.0
C210 C 0.56801 0.94594 0.62654 0.0
C211 C 0.62584 0.01658 0.64877 0.0
C212 C 0.65136 0.02607 0.62645 0.0
N213 N 0.62579 0.99071 0.6306 0.0
C214 C 0.61739 0.99607 0.64383 0.0
C215 C 0.64249 0.0054 0.62187 0.0
C216 C 0.64296 0.03165 0.64001 0.0
C217 C 0.57817 0.90032 0.59186 0.0
N218 N 0.56609 0.90161 0.6044 0.0
C219 C 0.57077 0.89451 0.57505 0.0
C220 C 0.55085 0.88998 0.57114 0.0
C221 C 0.53861 0.89129 0.58401 0.0
C222 C 0.54653 0.89718 0.60066 0.0
C223 C 0.52878 0.85176 0.63915 0.0
C224 C 0.54377 0.89133 0.65132 0.0
C225 C 0.54599 0.86833 0.63168 0.0
N226 N 0.55319 0.88782 0.63773 0.0
C227 C 0.52653 0.87513 0.65912 0.0
C228 C 0.51901 0.85522 0.65295 0.0
C229 C 0.60049 0.9375 0.65768 0.0
C230 C 0.66494 0.95728 0.61056 0.0
C231 C 0.65283 0.97204 0.63822 0.0
C232 C 0.67185 0.97301 0.63871 0.0
C233 C 0.6779 0.96556 0.62477 0.0
N234 N 0.64021 0.96394 0.62423 0.0
C235 C 0.64603 0.95659 0.61052 0.0
Co236 Co 0.66681 0.57648 0.12637 0.0
Co237 Co 0.65153 0.61276 0.12417 0.0
O238 O 0.66808 0.60088 0.1164 0.0
C239 C 0.71093 0.60774 0.12928 0.0
O240 O 0.70547 0.62037 0.13592 0.0
C241 C 0.64134 0.60345 0.08746 0.0
O242 O 0.63922 0.58542 0.09095 0.0
O243 O 0.62588 0.58546 0.12413 0.0
O244 O 0.63635 0.56259 0.12824 0.0
H245 H 0.59924 0.61781 0.16102 0.0
H246 H 0.68891 0.59318 0.09337 0.0
O247 O 0.69734 0.58975 0.12466 0.0
H248 H 0.63422 0.52265 0.08003 0.0
H249 H 0.6873 0.52241 0.13154 0.0
H250 H 0.644 0.54862 0.15537 0.0
H251 H 0.63858 0.53628 0.10964 0.0
H252 H 0.68803 0.55283 0.1188 0.0
O253 O 0.64629 0.61675 0.09943 0.0
H254 H 0.62022 0.60284 0.15141 0.0
H255 H 0.64773 0.64845 0.1125 0.0
H256 H 0.64268 0.51806 0.16843 0.0
H257 H 0.6852 0.5801 0.0636 0.0
H258 H 0.66445 0.50477 0.1565 0.0
H259 H 0.65764 0.54462 0.05677 0.0
O260 O 0.6695 0.58765 0.15007 0.0
H261 H 0.71754 0.66898 0.09931 0.0
H262 H 0.67098 0.64713 0.14951 0.0
H263 H 0.70295 0.68066 0.15014 0.0
H264 H 0.72647 0.6918 0.1249 0.0
H265 H 0.68548 0.63549 0.09929 0.0
H266 H 0.62692 0.66382 0.12158 0.0
H267 H 0.60253 0.64852 0.14605 0.0
O268 O 0.65641 0.60877 0.14894 0.0
C269 C 0.62227 0.56719 0.12662 0.0
C270 C 0.60987 0.62465 0.15037 0.0
C271 C 0.62538 0.65047 0.12823 0.0
N272 N 0.63529 0.62487 0.13152 0.0
C273 C 0.62183 0.61628 0.14492 0.0
C274 C 0.63709 0.64168 0.12312 0.0
C275 C 0.6117 0.64188 0.14196 0.0
C276 C 0.67702 0.57765 0.09053 0.0
N277 N 0.66404 0.56549 0.10324 0.0
C278 C 0.67494 0.57036 0.07364 0.0
C279 C 0.65945 0.55046 0.06981 0.0
C280 C 0.6463 0.53813 0.08285 0.0
C281 C 0.64881 0.54595 0.09959 0.0
C282 C 0.67772 0.52803 0.13683 0.0
C283 C 0.65342 0.54284 0.15004 0.0
C284 C 0.67809 0.54527 0.12969 0.0
N285 N 0.66595 0.55238 0.13626 0.0
C286 C 0.65265 0.52557 0.15752 0.0
C287 C 0.66488 0.51814 0.15083 0.0
C288 C 0.66392 0.59935 0.15724 0.0
C289 C 0.70739 0.66433 0.11037 0.0
C290 C 0.68116 0.65184 0.1385 0.0
C291 C 0.69922 0.67087 0.13891 0.0
C292 C 0.7124 0.67711 0.12474 0.0
N293 N 0.67633 0.63941 0.12434 0.0
C294 C 0.68918 0.64542 0.1104 0.0
Co295 Co 0.09186 0.66777 0.62778 0.0
Co296 Co 0.04038 0.65234 0.62404 0.0
O297 O 0.06911 0.66924 0.6172 0.0
C298 C 0.10436 0.71175 0.63138 0.0
O299 O 0.08602 0.70603 0.63757 0.0
C300 C 0.04116 0.64347 0.58718 0.0
O301 O 0.05694 0.64126 0.59102 0.0
O302 O 0.0422 0.62678 0.62378 0.0
O303 O 0.07536 0.63726 0.6289 0.0
H304 H 0.98161 0.59871 0.65884 0.0
H305 H 0.09856 0.69088 0.59514 0.0
O306 O 0.10906 0.69836 0.62679 0.0
H307 H 0.11543 0.63692 0.58172 0.0
H308 H 0.16625 0.68843 0.63509 0.0
H309 H 0.0958 0.64408 0.65664 0.0
H310 H 0.10482 0.64027 0.6111 0.0
H311 H 0.13705 0.68945 0.62162 0.0
O312 O 0.03225 0.64792 0.59902 0.0
H313 H 0.01794 0.62012 0.65039 0.0
H314 H 0.00133 0.64874 0.61132 0.0
H315 H 0.12453 0.64246 0.6704 0.0
H316 H 0.10928 0.6882 0.56561 0.0
H317 H 0.16006 0.66475 0.65962 0.0
H318 H 0.11771 0.661 0.55873 0.0
O319 O 0.0823 0.66965 0.65128 0.0
H320 H 0.051 0.71908 0.60019 0.0
H321 H 0.02416 0.6708 0.64916 0.0
H322 H 0.02242 0.70267 0.6501 0.0
H323 H 0.03588 0.72705 0.62548 0.0
H324 H 0.05258 0.68711 0.59985 0.0
H325 H 0.9648 0.62752 0.61924 0.0
H326 H 0.95476 0.60235 0.64321 0.0
O327 O 0.04815 0.65644 0.64908 0.0
C328 C 0.0568 0.62317 0.62662 0.0
C329 C 0.9858 0.60967 0.64841 0.0
C330 C 0.97636 0.62582 0.62617 0.0
N331 N 0.01174 0.63577 0.63048 0.0
C332 C 0.00634 0.62187 0.6436 0.0
C333 C 0.99706 0.63776 0.62172 0.0
C334 C 0.97074 0.6117 0.63962 0.0
C335 C 0.10242 0.67915 0.59229 0.0
N336 N 0.10114 0.6658 0.60485 0.0
C337 C 0.1084 0.67765 0.57553 0.0
C338 C 0.1131 0.66237 0.57167 0.0
C339 C 0.1118 0.64884 0.58456 0.0
C340 C 0.10574 0.65078 0.60117 0.0
C341 C 0.15084 0.67862 0.63988 0.0
C342 C 0.11121 0.65374 0.65181 0.0
C343 C 0.13425 0.67915 0.63233 0.0
N344 N 0.11473 0.66672 0.63826 0.0
C345 C 0.12742 0.65279 0.65968 0.0
C346 C 0.14735 0.66532 0.65364 0.0
C347 C 0.06468 0.66376 0.65791 0.0
C348 C 0.04503 0.70855 0.61098 0.0
C349 C 0.0301 0.68136 0.63842 0.0
C350 C 0.02903 0.69936 0.63901 0.0
C351 C 0.03657 0.71303 0.62518 0.0
N352 N 0.03838 0.67706 0.62443 0.0
C353 C 0.04582 0.69039 0.61083 0.0
Co354 Co 0.9104 0.57651 0.37473 0.0
Co355 Co 0.96208 0.61242 0.37648 0.0
O356 O 0.93377 0.60092 0.38441 0.0
C357 C 0.89802 0.60807 0.37134 0.0
O358 O 0.91595 0.62024 0.36425 0.0
C359 C 0.96318 0.60366 0.41332 0.0
O360 O 0.94718 0.58562 0.41003 0.0
O361 O 0.96012 0.58499 0.37679 0.0
O362 O 0.92667 0.56228 0.37296 0.0
H363 H 0.01881 0.61626 0.33954 0.0
H364 H 0.90555 0.59392 0.40755 0.0
O365 O 0.89347 0.59015 0.37635 0.0
H366 H 0.8891 0.52339 0.4217 0.0
H367 H 0.83556 0.52302 0.37033 0.0
H368 H 0.90467 0.548 0.34606 0.0
H369 H 0.89823 0.53651 0.39193 0.0
H370 H 0.8656 0.55348 0.38263 0.0
O371 O 0.97152 0.61673 0.40119 0.0
H372 H 0.98299 0.60178 0.34933 0.0
H373 H 0.00185 0.64805 0.38773 0.0
H374 H 0.87508 0.51739 0.33344 0.0
H375 H 0.89633 0.58136 0.43747 0.0
H376 H 0.84022 0.50471 0.3456 0.0
H377 H 0.88812 0.54588 0.44471 0.0
O378 O 0.91873 0.58722 0.35087 0.0
H379 H 0.95314 0.66943 0.40072 0.0
H380 H 0.97708 0.64641 0.35077 0.0
H381 H 0.97899 0.6801 0.34977 0.0
H382 H 0.967 0.69182 0.37489 0.0
H383 H 0.95136 0.63578 0.40112 0.0
H384 H 0.03791 0.66295 0.37846 0.0
H385 H 0.04656 0.64707 0.35416 0.0
O386 O 0.95299 0.60811 0.35176 0.0
C387 C 0.94533 0.56675 0.37447 0.0
C388 C 0.01523 0.62336 0.35011 0.0
C389 C 0.02595 0.64954 0.37197 0.0
N390 N 0.99034 0.62417 0.36898 0.0
C391 C 0.99497 0.61526 0.35567 0.0
C392 C 0.00552 0.64102 0.37719 0.0
C393 C 0.03079 0.64063 0.35833 0.0
C394 C 0.90177 0.57839 0.41057 0.0
N395 N 0.90233 0.56594 0.39799 0.0
C396 C 0.89665 0.57139 0.42754 0.0
C397 C 0.89207 0.5515 0.4316 0.0
C398 C 0.89264 0.53887 0.4187 0.0
C399 C 0.89785 0.5464 0.40187 0.0
C400 C 0.85068 0.52837 0.36495 0.0
C401 C 0.88957 0.54249 0.35149 0.0
C402 C 0.86774 0.54562 0.37184 0.0
N403 N 0.88689 0.55239 0.36516 0.0
C404 C 0.87286 0.52519 0.34426 0.0
C405 C 0.85331 0.5181 0.35107 0.0
C406 C 0.93599 0.59867 0.34356 0.0
C407 C 0.95847 0.66452 0.38972 0.0
C408 C 0.97178 0.65139 0.36174 0.0
C409 C 0.97294 0.67049 0.36111 0.0
C410 C 0.96622 0.67706 0.37521 0.0
N411 N 0.96421 0.6392 0.37603 0.0
C412 C 0.95757 0.64552 0.3899 0.0
Co413 Co 0.33337 0.91122 0.87327 0.0
Co414 Co 0.34923 0.96281 0.87688 0.0
O415 O 0.33216 0.93411 0.88384 0.0
C416 C 0.28931 0.89863 0.86976 0.0
O417 O 0.29488 0.91691 0.86353 0.0
C418 C 0.35825 0.96217 0.91372 0.0
O419 O 0.36019 0.94621 0.90998 0.0
O420 O 0.37467 0.96076 0.87711 0.0
O421 O 0.36387 0.92755 0.8719 0.0
H422 H 0.40304 0.02116 0.84185 0.0
H423 H 0.31061 0.90476 0.90606 0.0
O424 O 0.3028 0.89412 0.87446 0.0
H425 H 0.36448 0.88763 0.91909 0.0
H426 H 0.31229 0.8367 0.8661 0.0
H427 H 0.35658 0.90698 0.84417 0.0
H428 H 0.36094 0.8982 0.88974 0.0
H429 H 0.31164 0.86606 0.87963 0.0
O430 O 0.35385 0.97109 0.90186 0.0
H431 H 0.38139 0.98491 0.85042 0.0
H432 H 0.35324 0.00207 0.88948 0.0
H433 H 0.35784 0.87809 0.83034 0.0
H434 H 0.31349 0.89408 0.93556 0.0
H435 H 0.33557 0.84264 0.84131 0.0
H436 H 0.34064 0.88551 0.94224 0.0
O437 O 0.33128 0.92069 0.8498 0.0
H438 H 0.28286 0.95297 0.90093 0.0
H439 H 0.33089 0.97914 0.85175 0.0
H440 H 0.29922 0.98126 0.8509 0.0
H441 H 0.27497 0.96814 0.87563 0.0
H442 H 0.31463 0.95101 0.90118 0.0
H443 H 0.3747 0.03853 0.88144 0.0
H444 H 0.39977 0.04826 0.85742 0.0
O445 O 0.34494 0.95491 0.85187 0.0
C446 C 0.37809 0.94605 0.87416 0.0
C447 C 0.39213 0.01711 0.8523 0.0
C448 C 0.37625 0.02686 0.87454 0.0
N449 N 0.36597 0.99139 0.87033 0.0
C450 C 0.37979 0.99661 0.85717 0.0
C451 C 0.36417 0.0062 0.87906 0.0
C452 C 0.3903 0.03231 0.86105 0.0
C453 C 0.32232 0.90084 0.90883 0.0
N454 N 0.33553 0.90202 0.89618 0.0
C455 C 0.32393 0.89489 0.92557 0.0
C456 C 0.33919 0.89011 0.92932 0.0
C457 C 0.35258 0.89132 0.91634 0.0
C458 C 0.35053 0.89736 0.89975 0.0
C459 C 0.3221 0.85208 0.86123 0.0
C460 C 0.34694 0.89161 0.84908 0.0
C461 C 0.32177 0.86876 0.86881 0.0
N462 N 0.33418 0.88823 0.86278 0.0
C463 C 0.34768 0.87531 0.84117 0.0
C464 C 0.33517 0.85543 0.84732 0.0
C465 C 0.33732 0.93831 0.84311 0.0
C466 C 0.29334 0.95879 0.89009 0.0
C467 C 0.32039 0.97335 0.86254 0.0
C468 C 0.3025 0.97463 0.862 0.0
C469 C 0.2889 0.96728 0.87589 0.0
N470 N 0.32465 0.96505 0.87654 0.0
C471 C 0.31138 0.95779 0.8902 0.0
Co472 Co 0.42388 0.33416 0.37328 0.0
Co473 Co 0.38803 0.34988 0.37668 0.0
O474 O 0.39991 0.33315 0.38391 0.0
C475 C 0.39223 0.29017 0.37059 0.0
O476 O 0.37965 0.29584 0.36422 0.0
C477 C 0.39833 0.35994 0.41329 0.0
O478 O 0.41627 0.36206 0.4094 0.0
O479 O 0.41544 0.37537 0.37633 0.0
O480 O 0.43797 0.36464 0.37139 0.0
H481 H 0.38251 0.4025 0.3407 0.0
H482 H 0.40804 0.31218 0.40646 0.0
O483 O 0.41039 0.3036 0.375 0.0
H484 H 0.47915 0.36645 0.41852 0.0
H485 H 0.47723 0.31292 0.36641 0.0
H486 H 0.451 0.35674 0.34382 0.0
H487 H 0.46465 0.36217 0.38925 0.0
H488 H 0.44735 0.31255 0.37994 0.0
O489 O 0.38477 0.35512 0.40157 0.0
H490 H 0.39745 0.38126 0.34961 0.0
H491 H 0.35287 0.35402 0.38933 0.0
H492 H 0.48102 0.35771 0.32998 0.0
H493 H 0.42199 0.31581 0.4359 0.0
H494 H 0.49432 0.33568 0.34129 0.0
H495 H 0.45776 0.34317 0.44209 0.0
O496 O 0.41204 0.33152 0.34985 0.0
H497 H 0.33217 0.28404 0.4021 0.0
H498 H 0.35293 0.33069 0.35201 0.0
H499 H 0.31924 0.29889 0.35183 0.0
H500 H 0.30866 0.27533 0.37702 0.0
H501 H 0.36579 0.31593 0.40168 0.0
H502 H 0.33754 0.37509 0.38095 0.0
H503 H 0.35234 0.39948 0.35642 0.0
O504 O 0.39125 0.34494 0.35176 0.0
C505 C 0.43357 0.37883 0.37333 0.0
C506 C 0.37589 0.39188 0.35137 0.0
C507 C 0.35066 0.37651 0.37398 0.0
N508 N 0.37593 0.36631 0.36988 0.0
C509 C 0.38424 0.37977 0.35644 0.0
C510 C 0.35943 0.36466 0.37869 0.0
C511 C 0.35897 0.39019 0.36021 0.0
C512 C 0.42369 0.32397 0.40902 0.0
N513 N 0.43554 0.33688 0.39614 0.0
C514 C 0.43148 0.32602 0.42573 0.0
C515 C 0.45154 0.34139 0.4292 0.0
C516 C 0.46355 0.35447 0.41598 0.0
C517 C 0.45524 0.35199 0.39944 0.0
C518 C 0.4716 0.32262 0.36139 0.0
C519 C 0.45679 0.34721 0.34888 0.0
C520 C 0.45467 0.32245 0.36898 0.0
N521 N 0.44756 0.33474 0.36276 0.0
C522 C 0.47375 0.34778 0.34096 0.0
C523 C 0.48119 0.3354 0.3473 0.0
C524 C 0.40025 0.33726 0.3431 0.0
C525 C 0.33658 0.29422 0.39107 0.0
C526 C 0.34845 0.32049 0.363 0.0
C527 C 0.32934 0.30253 0.36284 0.0
C528 C 0.32341 0.28932 0.37698 0.0
N529 N 0.36127 0.32521 0.37688 0.0
C530 C 0.35557 0.31233 0.39079 0.0
Co531 Co 0.09081 0.42443 0.87415 0.0
Co532 Co 0.0393 0.38805 0.87651 0.0
O533 O 0.06777 0.39999 0.88416 0.0
C534 C 0.10354 0.39313 0.87095 0.0
O535 O 0.08538 0.38061 0.86441 0.0
C536 C 0.0386 0.39722 0.91331 0.0
O537 O 0.05445 0.41529 0.90983 0.0
O538 O 0.04088 0.41531 0.87665 0.0
O539 O 0.07418 0.4383 0.87248 0.0
H540 H 0.98167 0.38291 0.84003 0.0
H541 H 0.09649 0.40765 0.907 0.0
O542 O 0.1081 0.41115 0.87564 0.0
H543 H 0.11226 0.47809 0.92066 0.0
H544 H 0.16533 0.47856 0.86878 0.0
H545 H 0.09567 0.45241 0.84529 0.0
H546 H 0.10277 0.46454 0.89105 0.0
H547 H 0.13572 0.44807 0.88153 0.0
O548 O 0.03021 0.38397 0.90131 0.0
H549 H 0.01768 0.39794 0.84946 0.0
H550 H 0.99993 0.35225 0.88826 0.0
H551 H 0.12481 0.48303 0.83223 0.0
H552 H 0.10607 0.42065 0.93677 0.0
H553 H 0.15994 0.4963 0.84399 0.0
H554 H 0.11395 0.45608 0.94377 0.0
O555 O 0.0822 0.41336 0.85044 0.0
H556 H 0.04947 0.33192 0.90103 0.0
H557 H 0.02434 0.35374 0.85111 0.0
H558 H 0.0229 0.32027 0.85032 0.0
H559 H 0.03551 0.30915 0.87542 0.0
H560 H 0.05077 0.36534 0.90122 0.0
H561 H 0.9637 0.33681 0.87935 0.0
H562 H 0.95439 0.35212 0.85503 0.0
O563 O 0.04802 0.39211 0.85168 0.0
C564 C 0.05548 0.43361 0.87415 0.0
C565 C 0.98554 0.37606 0.85061 0.0
C566 C 0.97545 0.3502 0.8727 0.0
N567 N 0.0109 0.37588 0.86929 0.0
C568 C 0.00591 0.38447 0.85597 0.0
C569 C 0.99598 0.35903 0.87771 0.0
C570 C 0.97024 0.35879 0.85904 0.0
C571 C 0.10012 0.42316 0.90991 0.0
N572 N 0.09917 0.43535 0.89729 0.0
C573 C 0.10544 0.43041 0.92681 0.0
C574 C 0.10983 0.45028 0.93073 0.0
C575 C 0.10887 0.46263 0.91777 0.0
C576 C 0.10345 0.45486 0.90103 0.0
C577 C 0.15009 0.47295 0.86357 0.0
C578 C 0.1109 0.45817 0.85055 0.0
C579 C 0.13327 0.45568 0.87071 0.0
N580 N 0.11397 0.44858 0.86425 0.0
C581 C 0.12735 0.47548 0.84307 0.0
C582 C 0.14705 0.4829 0.84966 0.0
C583 C 0.06489 0.40163 0.84332 0.0
C584 C 0.04388 0.33657 0.89003 0.0
C585 C 0.02989 0.34903 0.86206 0.0
C586 C 0.029 0.33005 0.86156 0.0
C587 C 0.03607 0.32381 0.87565 0.0
N588 N 0.03754 0.36143 0.87623 0.0
C589 C 0.0445 0.35544 0.89009 0.0
Co590 Co 0.6669 0.09077 0.37375 0.0
Co591 Co 0.6511 0.03912 0.37619 0.0
O592 O 0.66793 0.06755 0.3838 0.0
C593 C 0.71084 0.10304 0.37062 0.0
O594 O 0.70509 0.08497 0.36381 0.0
C595 C 0.64137 0.03864 0.41299 0.0
O596 O 0.63936 0.05461 0.40949 0.0
O597 O 0.62564 0.04111 0.37633 0.0
O598 O 0.63641 0.07448 0.372 0.0
H599 H 0.59811 0.9818 0.33978 0.0
H600 H 0.68915 0.09616 0.40668 0.0
O601 O 0.69748 0.10772 0.37536 0.0
H602 H 0.6351 0.1129 0.4201 0.0
H603 H 0.68828 0.16553 0.36832 0.0
H604 H 0.64412 0.09602 0.34482 0.0
H605 H 0.63909 0.10326 0.39052 0.0
H606 H 0.68869 0.1357 0.38111 0.0
O607 O 0.64603 0.03008 0.40099 0.0
H608 H 0.61949 0.01778 0.34916 0.0
H609 H 0.64697 0.99953 0.38798 0.0
H610 H 0.64311 0.12539 0.33172 0.0
H611 H 0.6858 0.10589 0.43641 0.0
H612 H 0.6653 0.16046 0.34349 0.0
H613 H 0.65856 0.11426 0.44329 0.0
O614 O 0.6693 0.08205 0.35006 0.0
H615 H 0.7171 0.04845 0.40066 0.0
H616 H 0.67002 0.02367 0.35081 0.0
H617 H 0.70179 0.02175 0.35001 0.0
H618 H 0.72557 0.03416 0.37507 0.0
H619 H 0.68524 0.05023 0.40086 0.0
H620 H 0.62577 0.96332 0.37912 0.0
H621 H 0.60118 0.95428 0.35481 0.0
O622 O 0.65584 0.0478 0.35136 0.0
C623 C 0.6222 0.05586 0.37374 0.0
C624 C 0.60881 0.98555 0.35035 0.0
C625 C 0.62432 0.97518 0.37245 0.0
N626 N 0.63456 0.01074 0.369 0.0
C627 C 0.621 0.0059 0.35568 0.0
C628 C 0.63625 0.99569 0.37743 0.0
C629 C 0.61053 0.97012 0.3588 0.0
C630 C 0.6774 0.1 0.40954 0.0
N631 N 0.6644 0.09923 0.39686 0.0
C632 C 0.67552 0.10541 0.42641 0.0
C633 C 0.66022 0.11007 0.43027 0.0
C634 C 0.64703 0.10929 0.41726 0.0
C635 C 0.64934 0.10379 0.40054 0.0
C636 C 0.6785 0.15033 0.3631 0.0
C637 C 0.65372 0.11121 0.35008 0.0
C638 C 0.67869 0.13338 0.37027 0.0
N639 N 0.66631 0.11412 0.36381 0.0
C640 C 0.65313 0.12779 0.34258 0.0
C641 C 0.6656 0.14747 0.34917 0.0
C642 C 0.66344 0.06467 0.34297 0.0
C643 C 0.70684 0.04293 0.38968 0.0
C644 C 0.68032 0.02915 0.36175 0.0
C645 C 0.69826 0.02798 0.36123 0.0
C646 C 0.71159 0.03494 0.37531 0.0
N647 N 0.67574 0.03697 0.3759 0.0
C648 C 0.68874 0.04383 0.38974 0.0
Co649 Co 0.57661 0.66616 0.87262 0.0
Co650 Co 0.61261 0.65071 0.87653 0.0
O651 O 0.60059 0.66742 0.88347 0.0
C652 C 0.60801 0.71027 0.86999 0.0
O653 O 0.62082 0.70479 0.86382 0.0
C654 C 0.60239 0.64118 0.91323 0.0
O655 O 0.5844 0.63886 0.90925 0.0
O656 O 0.58526 0.62512 0.8764 0.0
O657 O 0.56273 0.63569 0.87085 0.0
H658 H 0.61843 0.59775 0.8413 0.0
H659 H 0.59204 0.6883 0.90579 0.0
O660 O 0.58985 0.6967 0.87424 0.0
H661 H 0.52099 0.63368 0.91756 0.0
H662 H 0.52285 0.68674 0.86504 0.0
H663 H 0.54984 0.64332 0.84307 0.0
H664 H 0.53575 0.638 0.8884 0.0
H665 H 0.55275 0.68746 0.87887 0.0
O666 O 0.61595 0.64589 0.90152 0.0
H667 H 0.60331 0.61896 0.84984 0.0
H668 H 0.64791 0.64699 0.88945 0.0
H669 H 0.51982 0.642 0.82892 0.0
H670 H 0.57782 0.68464 0.93513 0.0
H671 H 0.50613 0.66383 0.83992 0.0
H672 H 0.54208 0.65711 0.94117 0.0
O673 O 0.58869 0.66881 0.8493 0.0
H674 H 0.66827 0.71707 0.90135 0.0
H675 H 0.64766 0.66967 0.8518 0.0
H676 H 0.68126 0.70158 0.85138 0.0
H677 H 0.69176 0.72552 0.8763 0.0
H678 H 0.63474 0.68507 0.90118 0.0
H679 H 0.66342 0.62597 0.88144 0.0
H680 H 0.64871 0.6012 0.85716 0.0
O681 O 0.60932 0.65523 0.85151 0.0
C682 C 0.56714 0.62156 0.87317 0.0
C683 C 0.62502 0.60854 0.85187 0.0
C684 C 0.65026 0.62436 0.87441 0.0
N685 N 0.62483 0.6343 0.87003 0.0
C686 C 0.61657 0.62063 0.85673 0.0
C687 C 0.64139 0.63618 0.87891 0.0
C688 C 0.642 0.61047 0.86078 0.0
C689 C 0.5764 0.67643 0.90828 0.0
N690 N 0.56472 0.66344 0.89538 0.0
C691 C 0.56846 0.67437 0.92493 0.0
C692 C 0.54842 0.6589 0.92832 0.0
C693 C 0.53658 0.64574 0.91509 0.0
C694 C 0.54504 0.64824 0.8986 0.0
C695 C 0.52864 0.67713 0.86015 0.0
C696 C 0.54389 0.65276 0.84799 0.0
C697 C 0.54559 0.6775 0.86791 0.0
N698 N 0.55292 0.66532 0.86186 0.0
C699 C 0.52693 0.652 0.8399 0.0
C700 C 0.51927 0.66426 0.84606 0.0
C701 C 0.60044 0.66293 0.8427 0.0
C702 C 0.66389 0.70673 0.89044 0.0
C703 C 0.6521 0.68003 0.86267 0.0
C704 C 0.67116 0.69806 0.86237 0.0
C705 C 0.67705 0.71148 0.87637 0.0
N706 N 0.6393 0.67547 0.87654 0.0
C707 C 0.64496 0.68856 0.8903 0.0
Co708 Co 0.57589 0.90933 0.87307 0.0
Co709 Co 0.61186 0.96083 0.87668 0.0
O710 O 0.59994 0.93216 0.88374 0.0
C711 C 0.60739 0.89677 0.87024 0.0
O712 O 0.62 0.91496 0.86378 0.0
C713 C 0.60188 0.96039 0.91341 0.0
O714 O 0.58388 0.94466 0.90954 0.0
O715 O 0.58448 0.959 0.87666 0.0
O716 O 0.56191 0.92584 0.87137 0.0
H717 H 0.61729 0.01931 0.84126 0.0
H718 H 0.59171 0.90293 0.90617 0.0
O719 O 0.58927 0.89214 0.87466 0.0
H720 H 0.52069 0.88631 0.91838 0.0
H721 H 0.52228 0.83488 0.86594 0.0
H722 H 0.54876 0.90511 0.84372 0.0
H723 H 0.53517 0.89661 0.88911 0.0
H724 H 0.55227 0.86421 0.87953 0.0
O725 O 0.61537 0.96916 0.90164 0.0
H726 H 0.6023 0.98305 0.84997 0.0
H727 H 0.64721 0.99997 0.88935 0.0
H728 H 0.51865 0.87625 0.82982 0.0
H729 H 0.57778 0.89251 0.9356 0.0
H730 H 0.50522 0.84082 0.84094 0.0
H731 H 0.54205 0.8842 0.94187 0.0
O732 O 0.58772 0.91864 0.84965 0.0
H733 H 0.66776 0.95037 0.90131 0.0
H734 H 0.64674 0.97682 0.85177 0.0
H735 H 0.68035 0.97854 0.85121 0.0
H736 H 0.69106 0.96528 0.87612 0.0
H737 H 0.63421 0.94881 0.90127 0.0
H738 H 0.6626 0.03643 0.88117 0.0
H739 H 0.64767 0.04628 0.85692 0.0
O740 O 0.6084 0.95285 0.85169 0.0
C741 C 0.56633 0.9444 0.87361 0.0
C742 C 0.62398 0.0152 0.85181 0.0
C743 C 0.64939 0.02481 0.87423 0.0
N744 N 0.62398 0.98941 0.87005 0.0
C745 C 0.61559 0.9947 0.85676 0.0
C746 C 0.64059 0.00416 0.87882 0.0
C747 C 0.64101 0.03033 0.86061 0.0
C748 C 0.57608 0.89911 0.90876 0.0
N749 N 0.56425 0.90029 0.89592 0.0
C750 C 0.5683 0.89331 0.92546 0.0
C751 C 0.54827 0.88868 0.92898 0.0
C752 C 0.53628 0.88988 0.91581 0.0
C753 C 0.54457 0.89576 0.89927 0.0
C754 C 0.52796 0.85024 0.861 0.0
C755 C 0.54292 0.88975 0.84869 0.0
C756 C 0.54496 0.86691 0.86862 0.0
N757 N 0.55214 0.88636 0.8625 0.0
C758 C 0.52591 0.87347 0.84074 0.0
C759 C 0.51839 0.85359 0.84698 0.0
C760 C 0.59942 0.93622 0.84295 0.0
C761 C 0.66329 0.95625 0.8904 0.0
C762 C 0.65127 0.97097 0.86264 0.0
C763 C 0.67034 0.97203 0.86226 0.0
C764 C 0.67635 0.96459 0.87625 0.0
N765 N 0.63857 0.96281 0.87658 0.0
C766 C 0.64435 0.95548 0.89034 0.0
Co767 Co 0.66728 0.57646 0.37353 0.0
Co768 Co 0.65177 0.61254 0.376 0.0
O769 O 0.66837 0.6007 0.38367 0.0
C770 C 0.71128 0.60795 0.37066 0.0
O771 O 0.70563 0.62042 0.36402 0.0
C772 C 0.64156 0.60298 0.4127 0.0
O773 O 0.63945 0.58497 0.40914 0.0
O774 O 0.62621 0.58519 0.37589 0.0
O775 O 0.63681 0.56244 0.37155 0.0
H776 H 0.59941 0.61762 0.33929 0.0
H777 H 0.68926 0.59292 0.40661 0.0
O778 O 0.69783 0.5899 0.3753 0.0
H779 H 0.63471 0.52218 0.41952 0.0
H780 H 0.68823 0.52276 0.36801 0.0
H781 H 0.6447 0.54878 0.34435 0.0
H782 H 0.63908 0.53609 0.39001 0.0
H783 H 0.68872 0.55299 0.38092 0.0
O784 O 0.64647 0.61632 0.40078 0.0
H785 H 0.6205 0.60272 0.34875 0.0
H786 H 0.64778 0.64805 0.3879 0.0
H787 H 0.64361 0.51842 0.33112 0.0
H788 H 0.68554 0.57956 0.43628 0.0
H789 H 0.6655 0.50522 0.34297 0.0
H790 H 0.65805 0.54397 0.4429 0.0
O791 O 0.66998 0.58781 0.34989 0.0
H792 H 0.71765 0.66872 0.40109 0.0
H793 H 0.67116 0.64713 0.35086 0.0
H794 H 0.70306 0.68073 0.35038 0.0
H795 H 0.72654 0.69173 0.37564 0.0
H796 H 0.68567 0.63517 0.40097 0.0
H797 H 0.62687 0.66336 0.37896 0.0
H798 H 0.60253 0.64816 0.35444 0.0
O799 O 0.65674 0.60879 0.35119 0.0
C800 C 0.62267 0.56698 0.37321 0.0
C801 C 0.61001 0.62442 0.34995 0.0
C802 C 0.6254 0.65007 0.37224 0.0
N803 N 0.63546 0.62461 0.36876 0.0
C804 C 0.62203 0.61609 0.35533 0.0
C805 C 0.63717 0.64132 0.37726 0.0
C806 C 0.61175 0.64154 0.35847 0.0
C807 C 0.67741 0.57734 0.40936 0.0
N808 N 0.66448 0.56527 0.39658 0.0
C809 C 0.67531 0.56989 0.42619 0.0
C810 C 0.65987 0.54994 0.4299 0.0
C811 C 0.64676 0.5377 0.41679 0.0
C812 C 0.64929 0.54568 0.40011 0.0
C813 C 0.67859 0.52834 0.36276 0.0
C814 C 0.65416 0.54305 0.34964 0.0
C815 C 0.67883 0.54547 0.37 0.0
N816 N 0.66661 0.55252 0.36348 0.0
C817 C 0.65353 0.52589 0.34207 0.0
C818 C 0.66583 0.5185 0.34871 0.0
C819 C 0.66432 0.5995 0.34281 0.0
C820 C 0.70751 0.66412 0.39003 0.0
C821 C 0.68132 0.65179 0.36188 0.0
C822 C 0.69934 0.67085 0.36155 0.0
C823 C 0.7125 0.67702 0.37574 0.0
N824 N 0.67651 0.63925 0.37597 0.0
C825 C 0.68935 0.64518 0.38991 0.0
Co826 Co 0.08977 0.66622 0.8736 0.0
Co827 Co 0.03825 0.65083 0.87687 0.0
O828 O 0.06689 0.66755 0.88405 0.0
C829 C 0.10248 0.71027 0.87025 0.0
O830 O 0.08412 0.70468 0.86417 0.0
C831 C 0.03855 0.64118 0.9136 0.0
O832 O 0.05434 0.63901 0.90975 0.0
O833 O 0.04 0.62523 0.87676 0.0
O834 O 0.07324 0.63574 0.87204 0.0
H835 H 0.97996 0.59805 0.84112 0.0
H836 H 0.09613 0.68884 0.90644 0.0
O837 O 0.10702 0.69678 0.87489 0.0
H838 H 0.11245 0.63442 0.91953 0.0
H839 H 0.16422 0.68681 0.86695 0.0
H840 H 0.0941 0.64309 0.84446 0.0
H841 H 0.10226 0.63827 0.89011 0.0
H842 H 0.13484 0.68762 0.88028 0.0
O843 O 0.02976 0.64587 0.90181 0.0
H844 H 0.01616 0.61923 0.84999 0.0
H845 H 0.99905 0.647 0.88942 0.0
H846 H 0.12301 0.64168 0.83083 0.0
H847 H 0.10641 0.68564 0.93601 0.0
H848 H 0.15837 0.66365 0.84208 0.0
H849 H 0.11457 0.65821 0.94272 0.0
O850 O 0.08057 0.66853 0.85008 0.0
H851 H 0.04851 0.71702 0.90172 0.0
H852 H 0.02249 0.6699 0.85194 0.0
H853 H 0.02075 0.70178 0.85146 0.0
H854 H 0.03379 0.72558 0.87649 0.0
H855 H 0.0501 0.68505 0.90161 0.0
H856 H 0.96263 0.626 0.88109 0.0
H857 H 0.95291 0.60137 0.85673 0.0
O858 O 0.04641 0.65548 0.8519 0.0
C859 C 0.05462 0.62164 0.87394 0.0
C860 C 0.98401 0.60877 0.85172 0.0
C861 C 0.97428 0.62444 0.87417 0.0
N862 N 0.00971 0.63444 0.87011 0.0
C863 C 0.00448 0.62085 0.85676 0.0
C864 C 0.99491 0.63626 0.87885 0.0
C865 C 0.96884 0.61063 0.86049 0.0
C866 C 0.09988 0.67702 0.90922 0.0
N867 N 0.09869 0.66383 0.89655 0.0
C868 C 0.1056 0.67522 0.92601 0.0
C869 C 0.11015 0.6598 0.92977 0.0
C870 C 0.10894 0.64644 0.91676 0.0
C871 C 0.10313 0.64867 0.90013 0.0
C872 C 0.14887 0.67713 0.86195 0.0
C873 C 0.10943 0.6526 0.8495 0.0
C874 C 0.13219 0.67755 0.86943 0.0
N875 N 0.11276 0.66529 0.86324 0.0
C876 C 0.12574 0.65178 0.8417 0.0
C877 C 0.14558 0.66413 0.848 0.0
C878 C 0.06309 0.66289 0.84327 0.0
C879 C 0.04272 0.70675 0.89076 0.0
C880 C 0.02824 0.6802 0.86287 0.0
C881 C 0.02718 0.69821 0.86253 0.0
C882 C 0.03449 0.71155 0.87659 0.0
N883 N 0.0363 0.67558 0.87683 0.0
C884 C 0.04351 0.68859 0.89065 0.0
Co885 Co 0.42404 0.09138 0.374 0.0
Co886 Co 0.38815 0.03973 0.3764 0.0
O887 O 0.39983 0.06814 0.38408 0.0
C888 C 0.39239 0.10367 0.37097 0.0
O889 O 0.3801 0.08563 0.3641 0.0
C890 C 0.39761 0.03906 0.41312 0.0
O891 O 0.41558 0.05504 0.40962 0.0
O892 O 0.41559 0.04169 0.37635 0.0
O893 O 0.43822 0.07507 0.3721 0.0
H894 H 0.38354 0.98253 0.33964 0.0
H895 H 0.40731 0.09671 0.40701 0.0
O896 O 0.41041 0.10832 0.37573 0.0
H897 H 0.47811 0.1133 0.42021 0.0
H898 H 0.47744 0.16614 0.36868 0.0
H899 H 0.45198 0.09671 0.34496 0.0
H900 H 0.46438 0.10376 0.39064 0.0
H901 H 0.44721 0.13628 0.38144 0.0
O902 O 0.38432 0.0306 0.40116 0.0
H903 H 0.39824 0.01847 0.34916 0.0
H904 H 0.35274 0.00011 0.3882 0.0
H905 H 0.48235 0.12612 0.33188 0.0
H906 H 0.42048 0.10634 0.43673 0.0
H907 H 0.49527 0.16114 0.34376 0.0
H908 H 0.4561 0.11464 0.44349 0.0
O909 O 0.41285 0.08272 0.3503 0.0
H910 H 0.33168 0.04907 0.40133 0.0
H911 H 0.35362 0.02438 0.35118 0.0
H912 H 0.31994 0.0225 0.35062 0.0
H913 H 0.30876 0.03487 0.37584 0.0
H914 H 0.36532 0.05081 0.40129 0.0
H915 H 0.33764 0.96393 0.3792 0.0
H916 H 0.35302 0.95497 0.35471 0.0
O917 O 0.39195 0.04849 0.35161 0.0
C918 C 0.43378 0.05644 0.37374 0.0
C919 C 0.37666 0.98625 0.35029 0.0
C920 C 0.35091 0.97581 0.37251 0.0
N921 N 0.37625 0.01138 0.36912 0.0
C922 C 0.38488 0.00657 0.35571 0.0
C923 C 0.35955 0.9963 0.37757 0.0
C924 C 0.35955 0.97079 0.35877 0.0
C925 C 0.4229 0.10052 0.40982 0.0
N926 N 0.43508 0.09977 0.39709 0.0
C927 C 0.43024 0.10587 0.42668 0.0
C928 C 0.45022 0.1105 0.43047 0.0
C929 C 0.46257 0.10973 0.41742 0.0
C930 C 0.45469 0.10428 0.40071 0.0
C931 C 0.47198 0.15095 0.36342 0.0
C932 C 0.45759 0.11189 0.35026 0.0
C933 C 0.45486 0.13399 0.37057 0.0
N934 N 0.44796 0.11475 0.36404 0.0
C935 C 0.47476 0.12849 0.34278 0.0
C936 C 0.48199 0.14813 0.34944 0.0
C937 C 0.40122 0.06535 0.34322 0.0
C938 C 0.33636 0.04358 0.39029 0.0
C939 C 0.34889 0.02984 0.36219 0.0
C940 C 0.32978 0.0287 0.36181 0.0
C941 C 0.32351 0.03563 0.37597 0.0
N942 N 0.36138 0.03761 0.37629 0.0
C943 C 0.35535 0.04445 0.39022 0.0
Co944 Co 0.33375 0.42299 0.87315 0.0
Co945 Co 0.34923 0.38695 0.87646 0.0
O946 O 0.33259 0.39893 0.88373 0.0
C947 C 0.28963 0.3916 0.87053 0.0
O948 O 0.29507 0.37895 0.86392 0.0
C949 C 0.35924 0.39701 0.91312 0.0
O950 O 0.36139 0.41499 0.90932 0.0
O951 O 0.37481 0.4143 0.87626 0.0
O952 O 0.36421 0.43691 0.87121 0.0
H953 H 0.40176 0.3813 0.84046 0.0
H954 H 0.31184 0.40724 0.90637 0.0
O955 O 0.30322 0.40968 0.87496 0.0
H956 H 0.36643 0.47824 0.91836 0.0
H957 H 0.31296 0.47669 0.86638 0.0
H958 H 0.35639 0.45005 0.84367 0.0
H959 H 0.36198 0.46371 0.88908 0.0
H960 H 0.3124 0.4467 0.87988 0.0
O961 O 0.35437 0.38351 0.90134 0.0
H962 H 0.38065 0.39637 0.84944 0.0
H963 H 0.35311 0.35159 0.88898 0.0
H964 H 0.35755 0.48017 0.82986 0.0
H965 H 0.31564 0.42123 0.93581 0.0
H966 H 0.33572 0.49368 0.84122 0.0
H967 H 0.34316 0.45694 0.94197 0.0
O968 O 0.33098 0.41114 0.8497 0.0
H969 H 0.28316 0.3312 0.90163 0.0
H970 H 0.32998 0.35199 0.85166 0.0
H971 H 0.29807 0.31839 0.85134 0.0
H972 H 0.27442 0.3078 0.87648 0.0
H973 H 0.31516 0.36473 0.90135 0.0
H974 H 0.37404 0.33614 0.88053 0.0
H975 H 0.39851 0.35096 0.85607 0.0
O976 O 0.34441 0.39035 0.85155 0.0
C977 C 0.37835 0.43246 0.87325 0.0
C978 C 0.3911 0.37466 0.85111 0.0
C979 C 0.37556 0.34933 0.87361 0.0
N980 N 0.36556 0.37476 0.86962 0.0
C981 C 0.37907 0.38309 0.85621 0.0
C982 C 0.36379 0.35817 0.87836 0.0
C983 C 0.38929 0.35765 0.85988 0.0
C984 C 0.3237 0.42287 0.90891 0.0
N985 N 0.33661 0.43467 0.89601 0.0
C986 C 0.32584 0.43068 0.92562 0.0
C987 C 0.3413 0.45071 0.92907 0.0
C988 C 0.35438 0.46266 0.91584 0.0
C989 C 0.35181 0.45433 0.89929 0.0
C990 C 0.32258 0.47097 0.86133 0.0
C991 C 0.34694 0.45593 0.84876 0.0
C992 C 0.32229 0.45398 0.8689 0.0
N993 N 0.33448 0.44675 0.86265 0.0
C994 C 0.34762 0.47294 0.84085 0.0
C995 C 0.33535 0.4805 0.84722 0.0
C996 C 0.33674 0.39938 0.84292 0.0
C997 C 0.29337 0.33562 0.89063 0.0
C998 C 0.31974 0.34751 0.86262 0.0
C999 C 0.30171 0.32845 0.86239 0.0
C1000 C 0.28846 0.32251 0.8765 0.0
N1001 N 0.32447 0.36026 0.87655 0.0
C1002 C 0.31154 0.35455 0.89042 0.0
Co1003 Co 0.91001 0.33336 0.37327 0.0
Co1004 Co 0.96153 0.3489 0.37678 0.0
O1005 O 0.93288 0.33219 0.38391 0.0
C1006 C 0.89756 0.28935 0.37047 0.0
O1007 O 0.91584 0.295 0.36419 0.0
C1008 C 0.96119 0.35859 0.4135 0.0
O1009 O 0.94543 0.36083 0.40964 0.0
O1010 O 0.95971 0.37445 0.37661 0.0
O1011 O 0.92651 0.36384 0.37149 0.0
H1012 H 0.01989 0.40171 0.34112 0.0
H1013 H 0.90366 0.31115 0.40635 0.0
O1014 O 0.89285 0.3028 0.37486 0.0
H1015 H 0.88708 0.36556 0.41863 0.0
H1016 H 0.83552 0.31248 0.36631 0.0
H1017 H 0.90567 0.35618 0.34389 0.0
H1018 H 0.89738 0.36141 0.38935 0.0
H1019 H 0.86492 0.31188 0.37984 0.0
O1020 O 0.96994 0.35387 0.40172 0.0
H1021 H 0.98366 0.3805 0.34991 0.0
H1022 H 0.00071 0.35277 0.38943 0.0
H1023 H 0.87675 0.35738 0.33006 0.0
H1024 H 0.89327 0.31465 0.4358 0.0
H1025 H 0.84137 0.33542 0.34128 0.0
H1026 H 0.88498 0.34207 0.4421 0.0
O1027 O 0.91927 0.33083 0.34983 0.0
H1028 H 0.95118 0.2827 0.40171 0.0
H1029 H 0.97744 0.32985 0.35196 0.0
H1030 H 0.97917 0.29797 0.35153 0.0
H1031 H 0.966 0.27415 0.37655 0.0
H1032 H 0.94959 0.31468 0.40153 0.0
H1033 H 0.03715 0.3738 0.38116 0.0
H1034 H 0.04692 0.39842 0.35679 0.0
O1035 O 0.95347 0.34423 0.3518 0.0
C1036 C 0.94509 0.37798 0.37356 0.0
C1037 C 0.01582 0.39099 0.35172 0.0
C1038 C 0.02551 0.37534 0.37421 0.0
N1039 N 0.99009 0.36531 0.37007 0.0
C1040 C 0.99533 0.3789 0.35672 0.0
C1041 C 0.00487 0.36351 0.37886 0.0
C1042 C 0.03098 0.38915 0.36053 0.0
C1043 C 0.89985 0.32297 0.40896 0.0
N1044 N 0.90103 0.33599 0.39613 0.0
C1045 C 0.89407 0.32494 0.42567 0.0
C1046 C 0.88945 0.34035 0.4292 0.0
C1047 C 0.89065 0.35355 0.41604 0.0
C1048 C 0.89652 0.35115 0.39949 0.0
C1049 C 0.85087 0.32215 0.36133 0.0
C1050 C 0.89034 0.34667 0.34891 0.0
C1051 C 0.86757 0.32185 0.36891 0.0
N1052 N 0.887 0.33411 0.36274 0.0
C1053 C 0.87401 0.34737 0.341 0.0
C1054 C 0.85417 0.33503 0.34729 0.0
C1055 C 0.93682 0.33664 0.34309 0.0
C1056 C 0.95702 0.29298 0.39075 0.0
C1057 C 0.97163 0.31954 0.36287 0.0
C1058 C 0.97269 0.30153 0.36258 0.0
C1059 C 0.96531 0.28818 0.37662 0.0
N1060 N 0.96351 0.32416 0.37679 0.0
C1061 C 0.95623 0.31115 0.39061 0.0
Co1062 Co 0.0909 0.4242 0.62679 0.0
Co1063 Co 0.03926 0.3882 0.6244 0.0
O1064 O 0.06773 0.39984 0.6168 0.0
C1065 C 0.10341 0.3927 0.63007 0.0
O1066 O 0.08525 0.38021 0.63665 0.0
C1067 C 0.03869 0.39728 0.58756 0.0
O1068 O 0.05467 0.41528 0.591 0.0
O1069 O 0.04115 0.41561 0.62413 0.0
O1070 O 0.07451 0.43831 0.62835 0.0
H1071 H 0.98189 0.38385 0.66075 0.0
H1072 H 0.09636 0.40717 0.59399 0.0
O1073 O 0.10799 0.41072 0.62536 0.0
H1074 H 0.11289 0.47781 0.58016 0.0
H1075 H 0.16557 0.47789 0.63219 0.0
H1076 H 0.09596 0.45234 0.65556 0.0
H1077 H 0.10331 0.46438 0.6098 0.0
H1078 H 0.13584 0.44751 0.61946 0.0
O1079 O 0.0302 0.3841 0.5996 0.0
H1080 H 0.01787 0.39852 0.65135 0.0
H1081 H 0.99972 0.35261 0.61269 0.0
H1082 H 0.12523 0.48287 0.6686 0.0
H1083 H 0.10604 0.42005 0.5642 0.0
H1084 H 0.16034 0.49584 0.6569 0.0
H1085 H 0.11431 0.45558 0.55712 0.0
O1086 O 0.08219 0.41319 0.65052 0.0
H1087 H 0.04875 0.33153 0.60017 0.0
H1088 H 0.02394 0.35396 0.64991 0.0
H1089 H 0.02212 0.32031 0.65084 0.0
H1090 H 0.03456 0.30889 0.62583 0.0
H1091 H 0.05044 0.36513 0.59984 0.0
H1092 H 0.96351 0.33754 0.62157 0.0
H1093 H 0.95442 0.35314 0.64581 0.0
O1094 O 0.04796 0.39227 0.64923 0.0
C1095 C 0.05589 0.43384 0.62658 0.0
C1096 C 0.98566 0.37687 0.65021 0.0
C1097 C 0.97534 0.3509 0.6282 0.0
N1098 N 0.01089 0.37632 0.63159 0.0
C1099 C 0.00601 0.38507 0.64486 0.0
C1100 C 0.99586 0.35952 0.62321 0.0
C1101 C 0.97026 0.35965 0.64181 0.0
C1102 C 0.10016 0.42272 0.59105 0.0
N1103 N 0.09935 0.43503 0.60364 0.0
C1104 C 0.10554 0.4299 0.57414 0.0
C1105 C 0.11014 0.44983 0.57017 0.0
C1106 C 0.10934 0.4623 0.58309 0.0
C1107 C 0.10386 0.45459 0.59985 0.0
C1108 C 0.15034 0.47242 0.63738 0.0
C1109 C 0.11118 0.45797 0.65033 0.0
C1110 C 0.13346 0.4552 0.63024 0.0
N1111 N 0.11417 0.44826 0.63668 0.0
C1112 C 0.1277 0.47523 0.6578 0.0
C1113 C 0.14739 0.48248 0.65124 0.0
C1114 C 0.06482 0.40162 0.65762 0.0
C1115 C 0.04323 0.33631 0.61113 0.0
C1116 C 0.02943 0.34912 0.63899 0.0
C1117 C 0.02832 0.33003 0.63958 0.0
C1118 C 0.03529 0.32363 0.62554 0.0
N1119 N 0.0372 0.36145 0.6248 0.0
C1120 C 0.04408 0.35528 0.61099 0.0
Co1121 Co 0.66619 0.09024 0.12638 0.0
Co1122 Co 0.65043 0.03858 0.12421 0.0
O1123 O 0.66721 0.06697 0.11646 0.0
C1124 C 0.71013 0.10256 0.12955 0.0
O1125 O 0.70438 0.08453 0.13643 0.0
C1126 C 0.64045 0.03784 0.08745 0.0
O1127 O 0.63848 0.05385 0.0909 0.0
O1128 O 0.62495 0.04054 0.12413 0.0
O1129 O 0.6357 0.07396 0.12819 0.0
H1130 H 0.59767 0.98149 0.16096 0.0
H1131 H 0.68838 0.09543 0.09346 0.0
O1132 O 0.69676 0.1072 0.12473 0.0
H1133 H 0.63426 0.11203 0.07987 0.0
H1134 H 0.68753 0.16503 0.13145 0.0
H1135 H 0.64346 0.09567 0.15526 0.0
H1136 H 0.63832 0.1026 0.10951 0.0
H1137 H 0.68793 0.13513 0.11881 0.0
O1138 O 0.6452 0.02937 0.09946 0.0
H1139 H 0.61897 0.01741 0.15139 0.0
H1140 H 0.64626 0.99893 0.11257 0.0
H1141 H 0.64246 0.12511 0.16821 0.0
H1142 H 0.68496 0.10496 0.06367 0.0
H1143 H 0.66461 0.1601 0.15629 0.0
H1144 H 0.65769 0.11325 0.05671 0.0
O1145 O 0.66863 0.08168 0.15013 0.0
H1146 H 0.71628 0.04776 0.09954 0.0
H1147 H 0.66953 0.02335 0.14961 0.0
H1148 H 0.70132 0.02144 0.15034 0.0
H1149 H 0.72493 0.03368 0.12516 0.0
H1150 H 0.68441 0.04953 0.09942 0.0
H1151 H 0.62513 0.96278 0.12162 0.0
H1152 H 0.60069 0.95389 0.14602 0.0
O1153 O 0.6553 0.04743 0.149 0.0
C1154 C 0.62151 0.05531 0.12661 0.0
C1155 C 0.60832 0.98518 0.15035 0.0
C1156 C 0.62371 0.97467 0.12825 0.0
N1157 N 0.63395 0.01025 0.13154 0.0
C1158 C 0.62046 0.00549 0.14491 0.0
C1159 C 0.6356 0.99515 0.12316 0.0
C1160 C 0.61 0.96969 0.14195 0.0
C1161 C 0.67662 0.09924 0.09056 0.0
N1162 N 0.66363 0.09855 0.10322 0.0
C1163 C 0.6747 0.10453 0.07366 0.0
C1164 C 0.65937 0.10916 0.06976 0.0
C1165 C 0.64621 0.10846 0.08275 0.0
C1166 C 0.64856 0.10307 0.0995 0.0
C1167 C 0.67777 0.14986 0.13673 0.0
C1168 C 0.65305 0.11083 0.14994 0.0
C1169 C 0.67796 0.13287 0.12965 0.0
N1170 N 0.6656 0.11365 0.13621 0.0
C1171 C 0.65246 0.12745 0.15735 0.0
C1172 C 0.66491 0.14708 0.15067 0.0
C1173 C 0.66286 0.06436 0.1573 0.0
C1174 C 0.70609 0.04233 0.11057 0.0
C1175 C 0.67975 0.02875 0.13862 0.0
C1176 C 0.69771 0.02759 0.13909 0.0
C1177 C 0.71094 0.03445 0.12496 0.0
N1178 N 0.67508 0.03645 0.12445 0.0
C1179 C 0.68798 0.04322 0.11055 0.0
Co1180 Co 0.5775 0.66621 0.62749 0.0
Co1181 Co 0.61352 0.65073 0.62377 0.0
O1182 O 0.60165 0.66759 0.61685 0.0
C1183 C 0.60881 0.71031 0.63093 0.0
O1184 O 0.62167 0.7048 0.63695 0.0
C1185 C 0.60354 0.64147 0.58701 0.0
O1186 O 0.58558 0.63929 0.59092 0.0
O1187 O 0.58614 0.62516 0.62374 0.0
O1188 O 0.56353 0.63573 0.62886 0.0
H1189 H 0.61894 0.59747 0.65889 0.0
H1190 H 0.5936 0.689 0.5947 0.0
O1191 O 0.59078 0.69677 0.62634 0.0
H1192 H 0.52272 0.6348 0.58177 0.0
H1193 H 0.52372 0.6868 0.63486 0.0
H1194 H 0.55021 0.64286 0.65664 0.0
H1195 H 0.53692 0.63845 0.6111 0.0
H1196 H 0.5538 0.68767 0.62124 0.0
O1197 O 0.61702 0.64605 0.59877 0.0
H1198 H 0.60398 0.61881 0.65035 0.0
H1199 H 0.64884 0.64696 0.61095 0.0
H1200 H 0.52 0.64138 0.67056 0.0
H1201 H 0.57995 0.686 0.56522 0.0
H1202 H 0.50657 0.66347 0.65966 0.0
H1203 H 0.54429 0.65869 0.55859 0.0
O1204 O 0.58915 0.66836 0.65093 0.0
H1205 H 0.66951 0.71716 0.59931 0.0
H1206 H 0.64841 0.66945 0.64867 0.0
H1207 H 0.68207 0.70127 0.6493 0.0
H1208 H 0.69282 0.72537 0.62447 0.0
H1209 H 0.63591 0.68524 0.59929 0.0
H1210 H 0.66419 0.62581 0.61896 0.0
H1211 H 0.64927 0.60091 0.64313 0.0
O1212 O 0.61007 0.65511 0.64879 0.0
C1213 C 0.56797 0.6216 0.62668 0.0
C1214 C 0.62562 0.60832 0.64837 0.0
C1215 C 0.651 0.6242 0.62594 0.0
N1216 N 0.62563 0.63422 0.63027 0.0
C1217 C 0.61725 0.62048 0.64351 0.0
C1218 C 0.64222 0.6361 0.62144 0.0
C1219 C 0.64263 0.61023 0.63951 0.0
C1220 C 0.578 0.67722 0.59195 0.0
N1221 N 0.56605 0.66398 0.60462 0.0
C1222 C 0.57038 0.67554 0.57522 0.0
C1223 C 0.55038 0.66019 0.5715 0.0
C1224 C 0.53828 0.64677 0.5845 0.0
C1225 C 0.54642 0.64889 0.60108 0.0
C1226 C 0.52941 0.67707 0.6397 0.0
C1227 C 0.54437 0.65242 0.65176 0.0
C1228 C 0.54645 0.67753 0.63206 0.0
N1229 N 0.55364 0.66521 0.63806 0.0
C1230 C 0.5273 0.65156 0.65972 0.0
C1231 C 0.51978 0.66397 0.65361 0.0
C1232 C 0.60094 0.66256 0.65758 0.0
C1233 C 0.66502 0.70675 0.61018 0.0
C1234 C 0.65295 0.67988 0.63784 0.0
C1235 C 0.67205 0.69786 0.63825 0.0
C1236 C 0.67808 0.71136 0.62431 0.0
N1237 N 0.64025 0.67545 0.62392 0.0
C1238 C 0.64605 0.68862 0.61021 0.0
Co1239 Co 0.90968 0.57481 0.12708 0.0
Co1240 Co 0.9612 0.61111 0.12469 0.0
O1241 O 0.93276 0.59911 0.11697 0.0
C1242 C 0.89697 0.60615 0.12975 0.0
O1243 O 0.915 0.61863 0.13654 0.0
C1244 C 0.962 0.60169 0.08797 0.0
O1245 O 0.94622 0.58359 0.09152 0.0
O1246 O 0.95959 0.58383 0.12476 0.0
O1247 O 0.9263 0.56097 0.12918 0.0
H1248 H 0.01871 0.61651 0.16149 0.0
H1249 H 0.90416 0.59112 0.09391 0.0
O1250 O 0.89244 0.58811 0.12516 0.0
H1251 H 0.88849 0.52051 0.08117 0.0
H1252 H 0.83513 0.52078 0.1324 0.0
H1253 H 0.90463 0.5472 0.15631 0.0
H1254 H 0.89783 0.53448 0.11068 0.0
H1255 H 0.86481 0.55112 0.11956 0.0
O1256 O 0.97034 0.61502 0.09992 0.0
H1257 H 0.98273 0.6014 0.15195 0.0
H1258 H 0.00059 0.64682 0.11289 0.0
H1259 H 0.87541 0.51674 0.16947 0.0
H1260 H 0.89472 0.5777 0.06424 0.0
H1261 H 0.84035 0.50333 0.15749 0.0
H1262 H 0.88689 0.54218 0.05771 0.0
O1263 O 0.91818 0.5862 0.15073 0.0
H1264 H 0.95104 0.66704 0.0997 0.0
H1265 H 0.9761 0.64559 0.14991 0.0
H1266 H 0.97751 0.67905 0.15046 0.0
H1267 H 0.96494 0.68998 0.12521 0.0
H1268 H 0.94977 0.63363 0.09975 0.0
H1269 H 0.0368 0.66233 0.12191 0.0
H1270 H 0.04603 0.6472 0.14642 0.0
O1271 O 0.9524 0.60721 0.1495 0.0
C1272 C 0.94499 0.5656 0.1275 0.0
C1273 C 0.01487 0.62328 0.15083 0.0
C1274 C 0.02503 0.64898 0.1286 0.0
N1275 N 0.98957 0.62333 0.13198 0.0
C1276 C 0.99452 0.61483 0.14541 0.0
C1277 C 0.00452 0.64011 0.12353 0.0
C1278 C 0.0302 0.64049 0.14236 0.0
C1279 C 0.90055 0.57557 0.0912 0.0
N1280 N 0.90145 0.56357 0.10402 0.0
C1281 C 0.89531 0.56809 0.07436 0.0
C1282 C 0.89095 0.54817 0.0707 0.0
C1283 C 0.89186 0.53601 0.08386 0.0
C1284 C 0.89719 0.54402 0.10054 0.0
C1285 C 0.85033 0.52645 0.1377 0.0
C1286 C 0.88944 0.54138 0.15096 0.0
C1287 C 0.86719 0.54364 0.13051 0.0
N1288 N 0.88645 0.5508 0.13709 0.0
C1289 C 0.87294 0.52416 0.1585 0.0
C1290 C 0.85328 0.51666 0.15178 0.0
C1291 C 0.9355 0.59789 0.15785 0.0
C1292 C 0.95662 0.66248 0.11076 0.0
C1293 C 0.97056 0.65022 0.13889 0.0
C1294 C 0.97143 0.6692 0.13926 0.0
C1295 C 0.96439 0.67533 0.12509 0.0
N1296 N 0.96295 0.63772 0.12478 0.0
C1297 C 0.95601 0.64361 0.11083 0.0
Co1298 Co 0.33471 0.91137 0.62784 0.0
Co1299 Co 0.35032 0.96288 0.62407 0.0
O1300 O 0.33343 0.93417 0.61717 0.0
C1301 C 0.29069 0.89886 0.63108 0.0
O1302 O 0.29633 0.91706 0.63755 0.0
C1303 C 0.35944 0.96212 0.58728 0.0
O1304 O 0.36167 0.94637 0.59117 0.0
O1305 O 0.37583 0.96099 0.62394 0.0
O1306 O 0.36522 0.92784 0.62928 0.0
H1307 H 0.40381 0.02155 0.65904 0.0
H1308 H 0.3121 0.9048 0.59493 0.0
O1309 O 0.30414 0.89423 0.62651 0.0
H1310 H 0.3662 0.88787 0.58229 0.0
H1311 H 0.3138 0.83693 0.63523 0.0
H1312 H 0.35795 0.90731 0.65701 0.0
H1313 H 0.36243 0.89842 0.61158 0.0
H1314 H 0.31305 0.8662 0.62161 0.0
O1315 O 0.3549 0.97103 0.59906 0.0
H1316 H 0.38237 0.98524 0.65055 0.0
H1317 H 0.35409 0.00197 0.61129 0.0
H1318 H 0.3593 0.87851 0.67093 0.0
H1319 H 0.31521 0.89414 0.56549 0.0
H1320 H 0.3371 0.84301 0.66003 0.0
H1321 H 0.34247 0.88567 0.559 0.0
O1322 O 0.33252 0.92088 0.65127 0.0
H1323 H 0.28378 0.95244 0.59986 0.0
H1324 H 0.33176 0.97914 0.64905 0.0
H1325 H 0.29994 0.98098 0.6498 0.0
H1326 H 0.27571 0.96759 0.62506 0.0
H1327 H 0.3157 0.95075 0.59971 0.0
H1328 H 0.37533 0.03849 0.61925 0.0
H1329 H 0.40035 0.04845 0.64333 0.0
O1330 O 0.34603 0.95508 0.6491 0.0
C1331 C 0.37936 0.94637 0.62696 0.0
C1332 C 0.39291 0.01739 0.64856 0.0
C1333 C 0.37695 0.0269 0.62621 0.0
N1334 N 0.36689 0.9915 0.63054 0.0
C1335 C 0.3807 0.99686 0.64373 0.0
C1336 C 0.365 0.00621 0.62174 0.0
C1337 C 0.39098 0.03248 0.63973 0.0
C1338 C 0.32386 0.90092 0.59225 0.0
N1339 N 0.33701 0.90216 0.60498 0.0
C1340 C 0.3256 0.89498 0.57554 0.0
C1341 C 0.34092 0.89027 0.5719 0.0
C1342 C 0.35425 0.89151 0.58496 0.0
C1343 C 0.35207 0.89754 0.60151 0.0
C1344 C 0.32357 0.85233 0.64007 0.0
C1345 C 0.34834 0.89192 0.65213 0.0
C1346 C 0.32319 0.86896 0.63243 0.0
N1347 N 0.33557 0.88846 0.63842 0.0
C1348 C 0.34913 0.87567 0.66009 0.0
C1349 C 0.33666 0.85575 0.65398 0.0
C1350 C 0.33848 0.93851 0.6579 0.0
C1351 C 0.29424 0.95837 0.6107 0.0
C1352 C 0.32127 0.97323 0.63826 0.0
C1353 C 0.30329 0.97436 0.63874 0.0
C1354 C 0.28971 0.96685 0.62485 0.0
N1355 N 0.32562 0.96493 0.62431 0.0
C1356 C 0.31238 0.95753 0.61065 0.0
Co1357 Co 0.42326 0.33411 0.1277 0.0
Co1358 Co 0.38739 0.34981 0.12435 0.0
O1359 O 0.39918 0.33298 0.11717 0.0
C1360 C 0.39168 0.29009 0.13063 0.0
O1361 O 0.37906 0.29572 0.13701 0.0
C1362 C 0.39738 0.35947 0.08766 0.0
O1363 O 0.41533 0.3616 0.09151 0.0
O1364 O 0.41481 0.37531 0.12443 0.0
O1365 O 0.43734 0.36459 0.12936 0.0
H1366 H 0.38221 0.4028 0.16008 0.0
H1367 H 0.40712 0.31183 0.09468 0.0
O1368 O 0.40979 0.30355 0.12617 0.0
H1369 H 0.47812 0.36599 0.08208 0.0
H1370 H 0.47673 0.31302 0.13448 0.0
H1371 H 0.45063 0.357 0.15694 0.0
H1372 H 0.4639 0.36195 0.11144 0.0
H1373 H 0.44672 0.31247 0.12106 0.0
O1374 O 0.3839 0.35479 0.09943 0.0
H1375 H 0.39706 0.38146 0.15122 0.0
H1376 H 0.35214 0.35386 0.11179 0.0
H1377 H 0.48078 0.35815 0.17067 0.0
H1378 H 0.42079 0.31522 0.06516 0.0
H1379 H 0.49402 0.33604 0.15943 0.0
H1380 H 0.45651 0.34252 0.0587 0.0
O1381 O 0.41161 0.33169 0.15118 0.0
H1382 H 0.33126 0.28372 0.09954 0.0
H1383 H 0.35252 0.33092 0.14926 0.0
H1384 H 0.31882 0.29914 0.14976 0.0
H1385 H 0.30799 0.27529 0.12475 0.0
H1386 H 0.3649 0.31559 0.09964 0.0
H1387 H 0.3369 0.37502 0.12012 0.0
H1388 H 0.35191 0.39964 0.14448 0.0
O1389 O 0.39085 0.34514 0.14929 0.0
C1390 C 0.43296 0.37877 0.12731 0.0
C1391 C 0.37549 0.39208 0.14948 0.0
C1392 C 0.35008 0.37651 0.12704 0.0
N1393 N 0.37537 0.36633 0.1311 0.0
C1394 C 0.3838 0.37992 0.14444 0.0
C1395 C 0.3588 0.3646 0.12236 0.0
C1396 C 0.3585 0.39031 0.14071 0.0
C1397 C 0.42275 0.3236 0.092 0.0
N1398 N 0.43471 0.33661 0.10478 0.0
C1399 C 0.43038 0.3255 0.07525 0.0
C1400 C 0.45041 0.34084 0.07163 0.0
C1401 C 0.46254 0.35403 0.08474 0.0
C1402 C 0.45438 0.35169 0.10133 0.0
C1403 C 0.47113 0.32276 0.13947 0.0
C1404 C 0.45638 0.34743 0.15191 0.0
C1405 C 0.45412 0.32248 0.13195 0.0
N1406 N 0.44704 0.33482 0.13813 0.0
C1407 C 0.47342 0.34811 0.15977 0.0
C1408 C 0.48083 0.33568 0.15347 0.0
C1409 C 0.39991 0.33752 0.15795 0.0
C1410 C 0.33578 0.29401 0.11049 0.0
C1411 C 0.34794 0.3206 0.13835 0.0
C1412 C 0.32882 0.30264 0.13869 0.0
C1413 C 0.32274 0.28928 0.12465 0.0
N1414 N 0.36062 0.32515 0.1244 0.0
C1415 C 0.35478 0.31212 0.11059 0.0
H1416 H 0.37764 0.03178 0.32285 0.0
H1417 H 0.37484 0.03061 0.29139 0.0
H1418 H 0.41645 0.0959 0.28889 0.0
H1419 H 0.41921 0.09737 0.32033 0.0
H1420 H 0.38163 0.08199 0.26744 0.0
H1421 H 0.42012 0.03591 0.25852 0.0
H1422 H 0.39848 0.02491 0.27289 0.0
H1423 H 0.42112 0.04853 0.27862 0.0
C1424 C 0.38617 0.04593 0.31565 0.0
C1425 C 0.39875 0.06466 0.32418 0.0
C1426 C 0.38462 0.04519 0.29765 0.0
C1427 C 0.39569 0.06311 0.28781 0.0
C1428 C 0.40785 0.08188 0.29626 0.0
H1429 H 0.41846 0.09766 0.1805 0.0
H1430 H 0.41555 0.09641 0.2119 0.0
C1431 C 0.40941 0.08267 0.31425 0.0
C1432 C 0.39479 0.06235 0.26869 0.0
H1433 H 0.40692 0.04316 0.2335 0.0
C1434 C 0.38714 0.07349 0.26 0.0
C1435 C 0.40195 0.05121 0.25905 0.0
C1436 C 0.41105 0.03958 0.26769 0.0
C1437 C 0.38639 0.07375 0.24189 0.0
C1438 C 0.39382 0.06284 0.23225 0.0
C1439 C 0.4012 0.05146 0.24094 0.0
C1440 C 0.39479 0.06362 0.21313 0.0
C1441 C 0.37746 0.08551 0.23324 0.0
C1442 C 0.38435 0.04552 0.2034 0.0
C1443 C 0.38605 0.04613 0.1854 0.0
C1444 C 0.39837 0.06486 0.17679 0.0
C1445 C 0.40874 0.08297 0.18663 0.0
C1446 C 0.40701 0.08233 0.20461 0.0
H1447 H 0.36735 0.08805 0.24214 0.0
H1448 H 0.39014 0.10076 0.22917 0.0
H1449 H 0.3685 0.07732 0.22159 0.0
H1450 H 0.37495 0.0309 0.20975 0.0
H1451 H 0.3779 0.03187 0.17828 0.0
H1452 H 0.34803 0.37689 0.67775 0.0
H1453 H 0.34581 0.37306 0.70916 0.0
H1454 H 0.31945 0.41236 0.71226 0.0
H1455 H 0.32139 0.41617 0.68093 0.0
H1456 H 0.36477 0.40456 0.73343 0.0
H1457 H 0.28025 0.36296 0.74176 0.0
H1458 H 0.29238 0.36485 0.72118 0.0
H1459 H 0.28977 0.38592 0.72908 0.0
C1460 C 0.34156 0.38457 0.68507 0.0
C1461 C 0.33484 0.39681 0.67675 0.0
C1462 C 0.34032 0.38236 0.70303 0.0
C1463 C 0.33219 0.39217 0.713 0.0
C1464 C 0.32537 0.40429 0.70477 0.0
H1465 H 0.32217 0.41646 0.81964 0.0
H1466 H 0.32082 0.41307 0.78825 0.0
C1467 C 0.32661 0.40654 0.68683 0.0
C1468 C 0.33191 0.39077 0.73209 0.0
H1469 H 0.30033 0.37762 0.76719 0.0
C1470 C 0.35067 0.39844 0.74083 0.0
C1471 C 0.31348 0.3828 0.74167 0.0
C1472 C 0.2928 0.37348 0.73296 0.0
C1473 C 0.3516 0.39908 0.75894 0.0
C1474 C 0.33321 0.39152 0.76852 0.0
C1475 C 0.31439 0.38345 0.75979 0.0
C1476 C 0.33328 0.39266 0.78762 0.0
C1477 C 0.3723 0.40855 0.76764 0.0
C1478 C 0.34039 0.38198 0.79768 0.0
C1479 C 0.34124 0.3839 0.81566 0.0
C1480 C 0.33488 0.39646 0.82392 0.0
C1481 C 0.32725 0.4067 0.81377 0.0
C1482 C 0.32643 0.40477 0.7958 0.0
H1483 H 0.38504 0.41762 0.75848 0.0
H1484 H 0.37322 0.4187 0.77843 0.0
H1485 H 0.37458 0.39618 0.77307 0.0
H1486 H 0.34541 0.37227 0.79161 0.0
H1487 H 0.34709 0.37569 0.82304 0.0
H1488 H 0.9708 0.34686 0.1778 0.0
H1489 H 0.97238 0.345 0.20926 0.0
H1490 H 0.90683 0.31942 0.2123 0.0
H1491 H 0.90496 0.32098 0.18095 0.0
H1492 H 0.96023 0.36446 0.23339 0.0
H1493 H 0.9163 0.28003 0.24214 0.0
H1494 H 0.92662 0.29194 0.22152 0.0
H1495 H 0.9031 0.28974 0.22937 0.0
C1496 C 0.95666 0.34064 0.18512 0.0
C1497 C 0.93773 0.33401 0.17678 0.0
C1498 C 0.95762 0.33961 0.20311 0.0
C1499 C 0.93969 0.33179 0.21309 0.0
C1500 C 0.92079 0.32509 0.20483 0.0
H1501 H 0.90528 0.32236 0.31973 0.0
H1502 H 0.90739 0.32106 0.28835 0.0
C1503 C 0.9198 0.32612 0.18687 0.0
C1504 C 0.94079 0.33164 0.2322 0.0
H1505 H 0.92196 0.30035 0.26744 0.0
C1506 C 0.95208 0.35043 0.24086 0.0
C1507 C 0.93011 0.31331 0.24188 0.0
C1508 C 0.9185 0.29258 0.23327 0.0
C1509 C 0.95235 0.35149 0.25897 0.0
C1510 C 0.94132 0.33319 0.26865 0.0
C1511 C 0.93037 0.31435 0.25998 0.0
C1512 C 0.94024 0.33339 0.28775 0.0
C1513 C 0.96381 0.37223 0.26758 0.0
C1514 C 0.958 0.34042 0.29786 0.0
C1515 C 0.95689 0.34124 0.31585 0.0
C1516 C 0.93796 0.33491 0.32408 0.0
C1517 C 0.92014 0.3274 0.31388 0.0
C1518 C 0.92128 0.32662 0.29592 0.0
H1519 H 0.96757 0.38495 0.25835 0.0
H1520 H 0.95468 0.37335 0.27836 0.0
H1521 H 0.97841 0.37439 0.27299 0.0
H1522 H 0.97273 0.34537 0.29182 0.0
H1523 H 0.97092 0.347 0.32326 0.0
H1524 H 0.58295 0.90593 0.68098 0.0
H1525 H 0.58613 0.90794 0.71237 0.0
H1526 H 0.62727 0.97327 0.70908 0.0
H1527 H 0.62407 0.97155 0.67761 0.0
H1528 H 0.62151 0.92259 0.7334 0.0
H1529 H 0.58212 0.96786 0.74234 0.0
H1530 H 0.58091 0.95496 0.72234 0.0
H1531 H 0.60356 0.97871 0.72774 0.0
C1532 C 0.59273 0.92076 0.68686 0.0
C1533 C 0.60315 0.9386 0.67671 0.0
C1534 C 0.59453 0.92185 0.70483 0.0
C1535 C 0.6067 0.94078 0.71304 0.0
C1536 C 0.61751 0.95856 0.70299 0.0
H1537 H 0.62244 0.97053 0.82315 0.0
H1538 H 0.62623 0.97241 0.79173 0.0
C1539 C 0.61572 0.95751 0.68499 0.0
C1540 C 0.60784 0.94178 0.73215 0.0
H1541 H 0.59494 0.96028 0.76735 0.0
C1542 C 0.61577 0.93088 0.74084 0.0
C1543 C 0.6004 0.95267 0.7418 0.0
C1544 C 0.5911 0.9641 0.73314 0.0
C1545 C 0.61637 0.93049 0.75895 0.0
C1546 C 0.60849 0.94098 0.7686 0.0
C1547 C 0.60098 0.95226 0.75991 0.0
C1548 C 0.60702 0.93972 0.78769 0.0
C1549 C 0.62553 0.91894 0.76759 0.0
C1550 C 0.59485 0.92073 0.79582 0.0
C1551 C 0.59264 0.91956 0.81376 0.0
C1552 C 0.60245 0.93742 0.82396 0.0
C1553 C 0.6147 0.95645 0.81574 0.0
C1554 C 0.61689 0.95758 0.79778 0.0
H1555 H 0.63606 0.91693 0.75878 0.0
H1556 H 0.63412 0.92699 0.77943 0.0
H1557 H 0.61302 0.90346 0.77135 0.0
H1558 H 0.58674 0.90681 0.78825 0.0
H1559 H 0.58298 0.90466 0.81958 0.0
H1560 H 0.67925 0.58218 0.32016 0.0
H1561 H 0.68059 0.58472 0.28873 0.0
H1562 H 0.65449 0.62431 0.29069 0.0
H1563 H 0.65328 0.62212 0.3222 0.0
H1564 H 0.64682 0.57258 0.26695 0.0
H1565 H 0.70389 0.6553 0.25829 0.0
H1566 H 0.70082 0.642 0.27846 0.0
H1567 H 0.68281 0.64995 0.27238 0.0
C1568 C 0.67398 0.59163 0.31398 0.0
C1569 C 0.66617 0.60197 0.32378 0.0
C1570 C 0.67475 0.59304 0.29599 0.0
C1571 C 0.66786 0.60488 0.28739 0.0
C1572 C 0.66026 0.6154 0.29708 0.0
H1573 H 0.65258 0.62156 0.17809 0.0
H1574 H 0.65361 0.62332 0.20965 0.0
C1575 C 0.65948 0.61402 0.31511 0.0
C1576 C 0.66757 0.60519 0.26827 0.0
H1577 H 0.68698 0.63654 0.23309 0.0
C1578 C 0.65565 0.58655 0.25954 0.0
C1579 C 0.67898 0.62347 0.25866 0.0
C1580 C 0.6925 0.64382 0.26737 0.0
C1581 C 0.65475 0.58568 0.24146 0.0
C1582 C 0.6664 0.6039 0.23183 0.0
C1583 C 0.67812 0.6226 0.24053 0.0
C1584 C 0.66677 0.60369 0.21271 0.0
C1585 C 0.64108 0.56531 0.23281 0.0
C1586 C 0.67428 0.59246 0.20398 0.0
C1587 C 0.67369 0.59136 0.18598 0.0
C1588 C 0.66569 0.60161 0.1763 0.0
C1589 C 0.65877 0.6134 0.18509 0.0
C1590 C 0.65936 0.61446 0.20314 0.0
H1591 H 0.62924 0.55416 0.2418 0.0
H1592 H 0.63327 0.5672 0.22138 0.0
H1593 H 0.65057 0.55868 0.22838 0.0
H1594 H 0.68044 0.58437 0.21113 0.0
H1595 H 0.67929 0.58225 0.17968 0.0
H1596 H 0.09594 0.67756 0.68153 0.0
H1597 H 0.09347 0.67842 0.71292 0.0
H1598 H 0.02818 0.65422 0.70897 0.0
H1599 H 0.03035 0.65303 0.67753 0.0
H1600 H 0.07861 0.69898 0.73379 0.0
H1601 H 0.03297 0.6143 0.74235 0.0
H1602 H 0.04612 0.62607 0.72246 0.0
H1603 H 0.02232 0.62498 0.72764 0.0
C1604 C 0.08102 0.67244 0.68728 0.0
C1605 C 0.06332 0.66511 0.67694 0.0
C1606 C 0.07966 0.67297 0.70524 0.0
C1607 C 0.06061 0.66612 0.71327 0.0
C1608 C 0.04298 0.65922 0.70304 0.0
H1609 H 0.02908 0.65182 0.82309 0.0
H1610 H 0.02767 0.65378 0.79163 0.0
C1611 C 0.04429 0.65866 0.68505 0.0
C1612 C 0.05932 0.66614 0.73237 0.0
H1613 H 0.04006 0.63456 0.76741 0.0
C1614 C 0.07014 0.68491 0.74115 0.0
C1615 C 0.0482 0.64776 0.74192 0.0
C1616 C 0.03686 0.62709 0.73318 0.0
C1617 C 0.07019 0.6858 0.75926 0.0
C1618 C 0.05944 0.66738 0.76882 0.0
C1619 C 0.04827 0.64866 0.76004 0.0
C1620 C 0.06039 0.66708 0.78794 0.0
C1621 C 0.08166 0.70646 0.768 0.0
C1622 C 0.07924 0.67377 0.79627 0.0
C1623 C 0.08014 0.67268 0.81423 0.0
C1624 C 0.06214 0.66474 0.82425 0.0
C1625 C 0.04325 0.65808 0.81583 0.0
C1626 C 0.04239 0.65917 0.79784 0.0
H1627 H 0.08389 0.71906 0.75918 0.0
H1628 H 0.07343 0.70697 0.77973 0.0
H1629 H 0.09705 0.70932 0.77197 0.0
H1630 H 0.09326 0.6795 0.78885 0.0
H1631 H 0.09494 0.67784 0.8202 0.0
H1632 H 0.9032 0.58031 0.18046 0.0
H1633 H 0.9043 0.58281 0.21189 0.0
H1634 H 0.96993 0.62276 0.21007 0.0
H1635 H 0.96905 0.62061 0.17855 0.0
H1636 H 0.9259 0.57092 0.23386 0.0
H1637 H 0.95119 0.65357 0.24226 0.0
H1638 H 0.94112 0.64021 0.22209 0.0
H1639 H 0.9671 0.64834 0.22829 0.0
C1640 C 0.91789 0.58983 0.18667 0.0
C1641 C 0.93605 0.60029 0.1769 0.0
C1642 C 0.91846 0.59121 0.20467 0.0
C1643 C 0.93715 0.60315 0.2133 0.0
C1644 C 0.95529 0.61377 0.20364 0.0
H1645 H 0.96937 0.62067 0.32251 0.0
H1646 H 0.96991 0.62207 0.29094 0.0
C1647 C 0.95475 0.61242 0.18561 0.0
C1648 C 0.93768 0.60351 0.23244 0.0
H1649 H 0.94956 0.63499 0.26752 0.0
C1650 C 0.93101 0.58491 0.24123 0.0
C1651 C 0.94449 0.62182 0.242 0.0
C1652 C 0.95123 0.64212 0.23323 0.0
C1653 C 0.93105 0.58412 0.25932 0.0
C1654 C 0.9376 0.60237 0.2689 0.0
C1655 C 0.9445 0.62103 0.26013 0.0
C1656 C 0.93712 0.60228 0.28803 0.0
C1657 C 0.92441 0.5638 0.26804 0.0
C1658 C 0.91845 0.59106 0.29686 0.0
C1659 C 0.91805 0.59017 0.31488 0.0
C1660 C 0.93634 0.60062 0.32448 0.0
C1661 C 0.95499 0.61237 0.31557 0.0
C1662 C 0.95535 0.61322 0.29752 0.0
H1663 H 0.92509 0.55261 0.25908 0.0
H1664 H 0.93416 0.56576 0.27945 0.0
H1665 H 0.90831 0.55717 0.2725 0.0
H1666 H 0.90416 0.58283 0.28978 0.0
H1667 H 0.90338 0.58108 0.32125 0.0
H1668 H 0.34952 0.97275 0.82325 0.0
H1669 H 0.3479 0.97465 0.7918 0.0
H1670 H 0.32039 0.90889 0.78843 0.0
H1671 H 0.32172 0.90671 0.81978 0.0
H1672 H 0.36661 0.96162 0.76758 0.0
H1673 H 0.28218 0.92036 0.75872 0.0
H1674 H 0.29424 0.93036 0.77937 0.0
H1675 H 0.29109 0.90645 0.7715 0.0
C1676 C 0.34294 0.95864 0.81586 0.0
C1677 C 0.33569 0.93955 0.82411 0.0
C1678 C 0.34205 0.95979 0.79788 0.0
C1679 C 0.33375 0.94189 0.78782 0.0
C1680 C 0.32645 0.92284 0.79598 0.0
H1681 H 0.32366 0.90709 0.68141 0.0
H1682 H 0.32244 0.90946 0.71277 0.0
C1683 C 0.32735 0.92166 0.81393 0.0
C1684 C 0.33368 0.94313 0.76872 0.0
H1685 H 0.30234 0.92524 0.73344 0.0
C1686 C 0.35256 0.9539 0.76009 0.0
C1687 C 0.31531 0.93302 0.75903 0.0
C1688 C 0.29453 0.92206 0.76761 0.0
C1689 C 0.35363 0.95414 0.74198 0.0
C1690 C 0.33529 0.94361 0.73229 0.0
C1691 C 0.31638 0.93325 0.74092 0.0
C1692 C 0.33548 0.94241 0.7132 0.0
C1693 C 0.37442 0.965 0.73339 0.0
C1694 C 0.34291 0.96015 0.70303 0.0
C1695 C 0.34367 0.9589 0.68505 0.0
C1696 C 0.33691 0.93983 0.67691 0.0
C1697 C 0.32905 0.92204 0.68718 0.0
C1698 C 0.32831 0.92334 0.70514 0.0
H1699 H 0.38703 0.96852 0.74265 0.0
H1700 H 0.37521 0.95556 0.72272 0.0
H1701 H 0.37702 0.9797 0.72781 0.0
H1702 H 0.3482 0.97498 0.709 0.0
H1703 H 0.34972 0.97291 0.67757 0.0
H1704 H 0.37726 0.34847 0.32318 0.0
H1705 H 0.3735 0.3464 0.29176 0.0
H1706 H 0.41278 0.32003 0.28856 0.0
H1707 H 0.41652 0.3218 0.31989 0.0
H1708 H 0.40508 0.36546 0.26754 0.0
H1709 H 0.36341 0.28098 0.25896 0.0
H1710 H 0.36528 0.29303 0.27957 0.0
H1711 H 0.38634 0.29042 0.27167 0.0
C1712 C 0.38495 0.34203 0.31584 0.0
C1713 C 0.39716 0.33525 0.32413 0.0
C1714 C 0.38278 0.34088 0.29788 0.0
C1715 C 0.39261 0.33279 0.28787 0.0
C1716 C 0.4047 0.32591 0.29607 0.0
H1717 H 0.417 0.32298 0.18123 0.0
H1718 H 0.41362 0.32165 0.21262 0.0
C1719 C 0.40691 0.32706 0.31401 0.0
C1720 C 0.39125 0.33259 0.26878 0.0
H1721 H 0.37815 0.30116 0.23359 0.0
C1722 C 0.39896 0.3514 0.2601 0.0
C1723 C 0.38328 0.31421 0.25914 0.0
C1724 C 0.37392 0.29349 0.26779 0.0
C1725 C 0.39965 0.3524 0.24199 0.0
C1726 C 0.39209 0.33405 0.23235 0.0
C1727 C 0.38397 0.3152 0.24103 0.0
C1728 C 0.39328 0.33419 0.21326 0.0
C1729 C 0.40916 0.37314 0.23334 0.0
C1730 C 0.38265 0.34136 0.2032 0.0
C1731 C 0.38455 0.34219 0.18521 0.0
C1732 C 0.39706 0.33576 0.17695 0.0
C1733 C 0.40727 0.32812 0.18711 0.0
C1734 C 0.40535 0.32731 0.20507 0.0
H1735 H 0.41823 0.38584 0.24255 0.0
H1736 H 0.41934 0.37408 0.22256 0.0
H1737 H 0.39683 0.37547 0.22792 0.0
H1738 H 0.37296 0.3464 0.20927 0.0
H1739 H 0.37636 0.34807 0.17783 0.0
H1740 H 0.09702 0.41928 0.68032 0.0
H1741 H 0.09579 0.41685 0.71176 0.0
H1742 H 0.03016 0.37697 0.70977 0.0
H1743 H 0.03116 0.37907 0.67826 0.0
H1744 H 0.07403 0.42878 0.73361 0.0
H1745 H 0.0488 0.34614 0.74211 0.0
H1746 H 0.05899 0.3595 0.72196 0.0
H1747 H 0.03299 0.35141 0.72805 0.0
C1748 C 0.08231 0.4098 0.6865 0.0
C1749 C 0.06419 0.39934 0.67668 0.0
C1750 C 0.08165 0.40846 0.7045 0.0
C1751 C 0.06293 0.39655 0.71309 0.0
C1752 C 0.04482 0.38594 0.70339 0.0
H1753 H 0.03128 0.37935 0.82254 0.0
H1754 H 0.0304 0.37773 0.79097 0.0
C1755 C 0.04544 0.38726 0.68535 0.0
C1756 C 0.06233 0.3962 0.73223 0.0
H1757 H 0.05058 0.36479 0.76735 0.0
C1758 C 0.06896 0.4148 0.74099 0.0
C1759 C 0.05555 0.37791 0.7418 0.0
C1760 C 0.04882 0.3576 0.73305 0.0
C1761 C 0.06894 0.41562 0.75908 0.0
C1762 C 0.06248 0.3974 0.76868 0.0
C1763 C 0.05557 0.37873 0.75994 0.0
C1764 C 0.06314 0.39757 0.78781 0.0
C1765 C 0.07556 0.43596 0.76777 0.0
C1766 C 0.08191 0.40888 0.79649 0.0
C1767 C 0.0825 0.40989 0.8145 0.0
C1768 C 0.06431 0.39948 0.82424 0.0
C1769 C 0.04558 0.38763 0.81549 0.0
C1770 C 0.04502 0.38665 0.79744 0.0
H1771 H 0.07474 0.44707 0.75882 0.0
H1772 H 0.06589 0.43399 0.77924 0.0
H1773 H 0.09171 0.44268 0.77213 0.0
H1774 H 0.09611 0.41708 0.7893 0.0
H1775 H 0.09723 0.41906 0.82075 0.0
H1776 H 0.65236 0.03098 0.32237 0.0
H1777 H 0.65333 0.02991 0.29085 0.0
H1778 H 0.67901 0.09553 0.28879 0.0
H1779 H 0.67792 0.09683 0.32023 0.0
H1780 H 0.64514 0.0736 0.26706 0.0
H1781 H 0.70275 0.04865 0.25838 0.0
H1782 H 0.68177 0.03286 0.27253 0.0
H1783 H 0.69965 0.0589 0.27852 0.0
C1784 C 0.6584 0.04524 0.31526 0.0
C1785 C 0.66508 0.064 0.3239 0.0
C1786 C 0.65905 0.04459 0.29722 0.0
C1787 C 0.66647 0.06268 0.2875 0.0
C1788 C 0.67331 0.08141 0.29607 0.0
H1789 H 0.6778 0.09675 0.17982 0.0
H1790 H 0.67875 0.0957 0.21127 0.0
C1791 C 0.67269 0.0821 0.31407 0.0
C1792 C 0.66613 0.06203 0.26837 0.0
H1793 H 0.68575 0.05035 0.23319 0.0
C1794 C 0.65406 0.06857 0.25965 0.0
C1795 C 0.67767 0.05531 0.25876 0.0
C1796 C 0.69134 0.04867 0.26747 0.0
C1797 C 0.65315 0.06852 0.24156 0.0
C1798 C 0.66493 0.06212 0.23193 0.0
C1799 C 0.67679 0.0553 0.24063 0.0
C1800 C 0.66534 0.06274 0.2128 0.0
C1801 C 0.63933 0.07504 0.23291 0.0
C1802 C 0.65812 0.0446 0.2032 0.0
C1803 C 0.65764 0.04512 0.18515 0.0
C1804 C 0.66449 0.06384 0.17638 0.0
C1805 C 0.67228 0.08204 0.18609 0.0
C1806 C 0.67275 0.08148 0.2041 0.0
H1807 H 0.62743 0.07421 0.2419 0.0
H1808 H 0.64869 0.09117 0.22849 0.0
H1809 H 0.63159 0.06531 0.22148 0.0
H1810 H 0.65245 0.02999 0.20969 0.0
H1811 H 0.65161 0.03081 0.17812 0.0
H1812 H 0.62445 0.65178 0.67728 0.0
H1813 H 0.628 0.65334 0.70872 0.0
H1814 H 0.58751 0.67828 0.71241 0.0
H1815 H 0.58399 0.67704 0.68104 0.0
H1816 H 0.6232 0.6987 0.73319 0.0
H1817 H 0.58286 0.61401 0.7422 0.0
H1818 H 0.60417 0.62436 0.72747 0.0
H1819 H 0.58164 0.62577 0.72226 0.0
C1820 C 0.61633 0.65766 0.68474 0.0
C1821 C 0.60384 0.66418 0.67658 0.0
C1822 C 0.61831 0.65844 0.70273 0.0
C1823 C 0.60778 0.66564 0.71288 0.0
C1824 C 0.5957 0.67259 0.70479 0.0
H1825 H 0.58448 0.67844 0.81925 0.0
H1826 H 0.58841 0.68008 0.78794 0.0
C1827 C 0.5937 0.67184 0.68684 0.0
C1828 C 0.60909 0.6658 0.73197 0.0
H1829 H 0.59595 0.63439 0.76719 0.0
C1830 C 0.61732 0.68466 0.74064 0.0
C1831 C 0.60147 0.64745 0.74162 0.0
C1832 C 0.59188 0.6267 0.73298 0.0
C1833 C 0.618 0.68567 0.75875 0.0
C1834 C 0.60991 0.66728 0.7684 0.0
C1835 C 0.60214 0.64846 0.75973 0.0
C1836 C 0.60841 0.66711 0.78749 0.0
C1837 C 0.62745 0.7064 0.76738 0.0
C1838 C 0.61806 0.65893 0.79762 0.0
C1839 C 0.61578 0.65786 0.81558 0.0
C1840 C 0.60363 0.66481 0.82373 0.0
C1841 C 0.59404 0.67305 0.81348 0.0
C1842 C 0.59637 0.67413 0.79556 0.0
H1843 H 0.6381 0.71885 0.75856 0.0
H1844 H 0.6151 0.70961 0.77115 0.0
H1845 H 0.63598 0.70679 0.77922 0.0
H1846 H 0.6273 0.65329 0.79162 0.0
H1847 H 0.62334 0.65137 0.82303 0.0
H1848 H 0.3578 0.10249 0.14296 0.0
H1849 H 0.34879 0.12967 0.14167 0.0
H1850 H 0.40367 0.16753 0.11222 0.0
H1851 H 0.4127 0.14067 0.11334 0.0
H1852 H 0.37306 0.16981 0.15463 0.0
H1853 H 0.35937 0.17158 0.08469 0.0
H1854 H 0.35914 0.14993 0.09504 0.0
H1855 H 0.38307 0.17213 0.08899 0.0
C1856 C 0.36778 0.11651 0.13601 0.0
C1857 C 0.38598 0.11943 0.12827 0.0
C1858 C 0.36262 0.13199 0.1353 0.0
C1859 C 0.3754 0.15046 0.12662 0.0
C1860 C 0.39335 0.15322 0.11866 0.0
H1861 H 0.41312 0.27389 0.11559 0.0
H1862 H 0.40437 0.23808 0.11471 0.0
C1863 C 0.39857 0.13788 0.11944 0.0
C1864 C 0.37116 0.16769 0.12691 0.0
H1865 H 0.36898 0.20286 0.1005 0.0
C1866 C 0.37162 0.17679 0.14285 0.0
C1867 C 0.36921 0.17667 0.11152 0.0
C1868 C 0.36745 0.16694 0.0941 0.0
C1869 C 0.37184 0.19555 0.14371 0.0
C1870 C 0.37131 0.20524 0.12821 0.0
C1871 C 0.36948 0.19544 0.11236 0.0
C1872 C 0.37541 0.22664 0.12803 0.0
C1873 C 0.37408 0.20559 0.16106 0.0
C1874 C 0.3618 0.23206 0.13558 0.0
C1875 C 0.36678 0.25267 0.13614 0.0
C1876 C 0.38544 0.26811 0.12917 0.0
C1877 C 0.39869 0.26245 0.1212 0.0
C1878 C 0.39369 0.24195 0.12062 0.0
H1879 H 0.3769 0.19729 0.17161 0.0
H1880 H 0.38695 0.2217 0.16079 0.0
H1881 H 0.35982 0.20588 0.1641 0.0
H1882 H 0.34749 0.22041 0.14118 0.0
H1883 H 0.35621 0.25653 0.14229 0.0
H1884 H 0.10132 0.35709 0.64158 0.0
H1885 H 0.12864 0.34825 0.64055 0.0
H1886 H 0.16826 0.4054 0.61458 0.0
H1887 H 0.14126 0.41424 0.61538 0.0
H1888 H 0.16826 0.37042 0.60012 0.0
H1889 H 0.18069 0.37667 0.67136 0.0
H1890 H 0.15512 0.35971 0.66359 0.0
H1891 H 0.16642 0.3869 0.66065 0.0
C1892 C 0.11582 0.3677 0.63557 0.0
C1893 C 0.11916 0.38645 0.6287 0.0
C1894 C 0.13141 0.36266 0.63505 0.0
C1895 C 0.15053 0.37629 0.62767 0.0
C1896 C 0.15363 0.39468 0.62037 0.0
H1897 H 0.27382 0.41294 0.6139 0.0
H1898 H 0.23806 0.40427 0.6126 0.0
C1899 C 0.13816 0.39973 0.6209 0.0
C1900 C 0.16778 0.37209 0.62786 0.0
H1901 H 0.20436 0.37282 0.65443 0.0
C1902 C 0.17596 0.37056 0.612 0.0
C1903 C 0.1777 0.37215 0.64339 0.0
C1904 C 0.16969 0.37405 0.66076 0.0
C1905 C 0.19437 0.37013 0.61123 0.0
C1906 C 0.20501 0.37159 0.62669 0.0
C1907 C 0.19616 0.37175 0.6426 0.0
C1908 C 0.22642 0.37564 0.62653 0.0
C1909 C 0.20257 0.36872 0.59382 0.0
C1910 C 0.23184 0.36254 0.63503 0.0
C1911 C 0.25244 0.3675 0.63585 0.0
C1912 C 0.26792 0.3858 0.62841 0.0
C1913 C 0.26233 0.39872 0.61977 0.0
C1914 C 0.24183 0.39371 0.61889 0.0
H1915 H 0.18998 0.36094 0.58424 0.0
H1916 H 0.21317 0.38444 0.58898 0.0
H1917 H 0.21115 0.36028 0.59465 0.0
H1918 H 0.22017 0.34862 0.64116 0.0
H1919 H 0.25625 0.35726 0.64264 0.0
H1920 H 0.85954 0.27277 0.11552 0.0
H1921 H 0.83237 0.23698 0.11466 0.0
H1922 H 0.8716 0.21908 0.1408 0.0
H1923 H 0.89908 0.25515 0.14187 0.0
H1924 H 0.83253 0.2017 0.10026 0.0
H1925 H 0.81909 0.19599 0.17138 0.0
H1926 H 0.83339 0.22043 0.16058 0.0
H1927 H 0.84477 0.20466 0.16382 0.0
C1928 C 0.86251 0.26128 0.12106 0.0
C1929 C 0.88145 0.26686 0.12892 0.0
C1930 C 0.84695 0.2408 0.12049 0.0
C1931 C 0.84991 0.22543 0.12781 0.0
C1932 C 0.86895 0.23078 0.13526 0.0
H1933 H 0.74339 0.10124 0.14275 0.0
H1934 H 0.77957 0.12845 0.1415 0.0
C1935 C 0.88464 0.25136 0.1358 0.0
C1936 C 0.83258 0.20404 0.12797 0.0
H1937 H 0.79545 0.16853 0.15437 0.0
C1938 C 0.82462 0.19426 0.11211 0.0
C1939 C 0.82238 0.19432 0.14346 0.0
C1940 C 0.83018 0.20433 0.16082 0.0
C1941 C 0.80616 0.17546 0.11126 0.0
C1942 C 0.79523 0.16644 0.12665 0.0
C1943 C 0.80386 0.17553 0.1426 0.0
C1944 C 0.77377 0.14919 0.12634 0.0
C1945 C 0.79822 0.16574 0.09384 0.0
C1946 C 0.75859 0.1519 0.11832 0.0
C1947 C 0.73803 0.13654 0.11906 0.0
C1948 C 0.73216 0.11812 0.12794 0.0
C1949 C 0.74742 0.11524 0.13576 0.0
C1950 C 0.76807 0.13074 0.13508 0.0
H1951 H 0.81097 0.17037 0.08446 0.0
H1952 H 0.78949 0.14873 0.09476 0.0
H1953 H 0.78782 0.17096 0.08869 0.0
H1954 H 0.76257 0.16619 0.11185 0.0
H1955 H 0.7267 0.1393 0.1129 0.0
H1956 H 0.64411 0.74394 0.64287 0.0
H1957 H 0.65126 0.77961 0.64433 0.0
H1958 H 0.59334 0.76156 0.61962 0.0
H1959 H 0.58606 0.72622 0.61803 0.0
H1960 H 0.64829 0.80675 0.61421 0.0
H1961 H 0.59475 0.78783 0.66954 0.0
H1962 H 0.60699 0.77304 0.66438 0.0
H1963 H 0.58536 0.76974 0.65199 0.0
C1964 C 0.63301 0.74764 0.63758 0.0
C1965 C 0.61441 0.73219 0.6305 0.0
C1966 C 0.63714 0.76799 0.63841 0.0
C1967 C 0.62271 0.77306 0.63223 0.0
C1968 C 0.60457 0.75785 0.62457 0.0
H1969 H 0.5855 0.85888 0.61867 0.0
H1970 H 0.59313 0.83105 0.61996 0.0
C1971 C 0.60045 0.73764 0.62371 0.0
C1972 C 0.62567 0.79388 0.63441 0.0
H1973 H 0.60366 0.81864 0.65414 0.0
C1974 C 0.63896 0.80961 0.62321 0.0
C1975 C 0.61346 0.79745 0.64619 0.0
C1976 C 0.59943 0.7812 0.65883 0.0
C1977 C 0.6393 0.82848 0.62276 0.0
C1978 C 0.6261 0.83152 0.6338 0.0
C1979 C 0.61373 0.8162 0.64567 0.0
C1980 C 0.62288 0.84926 0.63189 0.0
C1981 C 0.65276 0.8446 0.60981 0.0
C1982 C 0.63726 0.86881 0.63802 0.0
C1983 C 0.63293 0.8849 0.63735 0.0
C1984 C 0.61412 0.88155 0.63059 0.0
C1985 C 0.60008 0.86202 0.62405 0.0
C1986 C 0.60441 0.84606 0.62475 0.0
H1987 H 0.66168 0.83961 0.60174 0.0
H1988 H 0.64318 0.84825 0.60124 0.0
H1989 H 0.66364 0.85892 0.61668 0.0
H1990 H 0.65155 0.87148 0.6437 0.0
H1991 H 0.64406 0.89976 0.64249 0.0
H1992 H 0.72682 0.58594 0.11436 0.0
H1993 H 0.76253 0.59433 0.11355 0.0
H1994 H 0.78072 0.65149 0.13974 0.0
H1995 H 0.7447 0.64311 0.1408 0.0
H1996 H 0.79786 0.62901 0.09928 0.0
H1997 H 0.80346 0.62228 0.17053 0.0
H1998 H 0.77908 0.6125 0.15972 0.0
H1999 H 0.79531 0.63962 0.16279 0.0
C2000 C 0.73835 0.60036 0.11992 0.0
C2001 C 0.73286 0.61377 0.12781 0.0
C2002 C 0.7588 0.60515 0.11938 0.0
C2003 C 0.77422 0.6234 0.12675 0.0
C2004 C 0.76897 0.63719 0.13419 0.0
H2005 H 0.89829 0.641 0.14223 0.0
H2006 H 0.87106 0.6499 0.14061 0.0
C2007 C 0.74842 0.63241 0.13472 0.0
C2008 C 0.79556 0.62728 0.12701 0.0
H2009 H 0.83097 0.62591 0.15372 0.0
C2010 C 0.80529 0.62871 0.1112 0.0
C2011 C 0.80525 0.627 0.14259 0.0
C2012 C 0.79529 0.62516 0.15991 0.0
C2013 C 0.824 0.62887 0.11049 0.0
C2014 C 0.83301 0.62721 0.12598 0.0
C2015 C 0.82397 0.62712 0.14186 0.0
C2016 C 0.85025 0.62298 0.1259 0.0
C2017 C 0.83366 0.63021 0.09311 0.0
C2018 C 0.84749 0.60488 0.11825 0.0
C2019 C 0.86287 0.59971 0.11922 0.0
C2020 C 0.88135 0.61251 0.12794 0.0
C2021 C 0.88425 0.63084 0.13538 0.0
C2022 C 0.86874 0.63596 0.13448 0.0
H2023 H 0.82901 0.63809 0.08351 0.0
H2024 H 0.85068 0.63851 0.094 0.0
H2025 H 0.82844 0.61447 0.08827 0.0
H2026 H 0.83317 0.59441 0.1119 0.0
H2027 H 0.86009 0.58547 0.11334 0.0
H2028 H 0.27439 0.86184 0.61495 0.0
H2029 H 0.2386 0.8348 0.6139 0.0
H2030 H 0.22112 0.87273 0.6427 0.0
H2031 H 0.25725 0.90012 0.64393 0.0
H2032 H 0.20526 0.83265 0.65595 0.0
H2033 H 0.19039 0.83028 0.58586 0.0
H2034 H 0.21361 0.82994 0.5904 0.0
H2035 H 0.21165 0.85208 0.59621 0.0
C2036 C 0.26298 0.86461 0.62094 0.0
C2037 C 0.2687 0.88316 0.62956 0.0
C2038 C 0.24246 0.84915 0.62019 0.0
C2039 C 0.22716 0.85188 0.62797 0.0
C2040 C 0.23271 0.87043 0.63647 0.0
H2041 H 0.10208 0.74517 0.64291 0.0
H2042 H 0.12933 0.78136 0.64201 0.0
C2043 C 0.25332 0.88604 0.63715 0.0
C2044 C 0.20573 0.83457 0.62821 0.0
H2045 H 0.16884 0.799 0.60172 0.0
C2046 C 0.19699 0.82554 0.64414 0.0
C2047 C 0.19498 0.82541 0.61278 0.0
C2048 C 0.20305 0.83506 0.59535 0.0
C2049 C 0.17854 0.80667 0.64497 0.0
C2050 C 0.16855 0.79681 0.62946 0.0
C2051 C 0.1766 0.80655 0.61359 0.0
C2052 C 0.15139 0.77532 0.62928 0.0
C2053 C 0.17063 0.79672 0.66233 0.0
C2054 C 0.15463 0.7601 0.62206 0.0
C2055 C 0.13921 0.73956 0.62253 0.0
C2056 C 0.12011 0.73377 0.63018 0.0
C2057 C 0.11665 0.74912 0.637 0.0
C2058 C 0.1322 0.76977 0.63656 0.0
H2059 H 0.18157 0.80521 0.67294 0.0
H2060 H 0.15593 0.79623 0.66515 0.0
H2061 H 0.1676 0.78068 0.66222 0.0
H2062 H 0.16932 0.76408 0.61637 0.0
H2063 H 0.1424 0.72819 0.61705 0.0
H2064 H 0.89889 0.64211 0.35742 0.0
H2065 H 0.87158 0.65096 0.35859 0.0
H2066 H 0.83473 0.59726 0.38967 0.0
H2067 H 0.86172 0.58841 0.38868 0.0
H2068 H 0.83128 0.62606 0.34641 0.0
H2069 H 0.83075 0.6423 0.41595 0.0
H2070 H 0.85227 0.64226 0.4056 0.0
H2071 H 0.83028 0.61851 0.41232 0.0
C2072 C 0.88508 0.63237 0.36471 0.0
C2073 C 0.88246 0.61454 0.37293 0.0
C2074 C 0.86951 0.63744 0.36535 0.0
C2075 C 0.85129 0.62494 0.37445 0.0
C2076 C 0.84885 0.60738 0.3829 0.0
H2077 H 0.72767 0.58693 0.38619 0.0
H2078 H 0.76354 0.59574 0.38696 0.0
C2079 C 0.86427 0.60225 0.3822 0.0
C2080 C 0.83393 0.62899 0.37407 0.0
H2081 H 0.79907 0.63179 0.40045 0.0
C2082 C 0.82448 0.62786 0.35816 0.0
C2083 C 0.82517 0.63141 0.38942 0.0
C2084 C 0.83528 0.63391 0.40677 0.0
C2085 C 0.80562 0.62744 0.35733 0.0
C2086 C 0.79619 0.62845 0.37281 0.0
C2087 C 0.8063 0.63092 0.38861 0.0
C2088 C 0.77477 0.62434 0.37309 0.0
C2089 C 0.79524 0.62451 0.34005 0.0
C2090 C 0.76925 0.63772 0.36528 0.0
C2091 C 0.74863 0.63272 0.36481 0.0
C2092 C 0.73328 0.61423 0.3721 0.0
C2093 C 0.73905 0.60122 0.38033 0.0
C2094 C 0.75957 0.60625 0.38085 0.0
H2095 H 0.8034 0.62139 0.32956 0.0
H2096 H 0.77917 0.6116 0.34065 0.0
H2097 H 0.79477 0.63861 0.33666 0.0
H2098 H 0.78083 0.65189 0.35941 0.0
H2099 H 0.7447 0.64311 0.35844 0.0
H2100 H 0.10052 0.74374 0.85833 0.0
H2101 H 0.12886 0.77946 0.85674 0.0
H2102 H 0.16915 0.76182 0.88129 0.0
H2103 H 0.14125 0.72641 0.88298 0.0
H2104 H 0.15838 0.807 0.88605 0.0
H2105 H 0.19444 0.78794 0.83199 0.0
H2106 H 0.16745 0.77264 0.83714 0.0
H2107 H 0.18617 0.77026 0.84981 0.0
C2108 C 0.11537 0.74754 0.86355 0.0
C2109 C 0.11867 0.73218 0.87061 0.0
C2110 C 0.13149 0.76792 0.86264 0.0
C2111 C 0.15107 0.77312 0.86872 0.0
C2112 C 0.15416 0.75801 0.87638 0.0
H2113 H 0.27326 0.8604 0.88359 0.0
H2114 H 0.23789 0.83238 0.88229 0.0
C2115 C 0.13816 0.73776 0.87732 0.0
C2116 C 0.16881 0.79402 0.86649 0.0
H2117 H 0.2159 0.81902 0.84731 0.0
C2118 C 0.1708 0.80988 0.87731 0.0
C2119 C 0.18488 0.79763 0.85501 0.0
C2120 C 0.18314 0.78129 0.84269 0.0
C2121 C 0.18914 0.82892 0.87772 0.0
C2122 C 0.20566 0.83199 0.86704 0.0
C2123 C 0.20317 0.81654 0.85551 0.0
C2124 C 0.22646 0.84994 0.86905 0.0
C2125 C 0.1913 0.84521 0.89026 0.0
C2126 C 0.23165 0.86921 0.8622 0.0
C2127 C 0.25201 0.8854 0.86287 0.0
C2128 C 0.26741 0.88243 0.87033 0.0
C2129 C 0.26188 0.86323 0.87764 0.0
C2130 C 0.24165 0.84717 0.87695 0.0
H2131 H 0.1771 0.8403 0.89792 0.0
H2132 H 0.20422 0.84899 0.89925 0.0
H2133 H 0.19499 0.85943 0.88311 0.0
H2134 H 0.22009 0.87154 0.85594 0.0
H2135 H 0.25578 0.9 0.85713 0.0
H2136 H 0.41229 0.14017 0.388 0.0
H2137 H 0.40333 0.16707 0.38909 0.0
H2138 H 0.34908 0.12976 0.35875 0.0
H2139 H 0.35803 0.10253 0.35749 0.0
H2140 H 0.37371 0.17004 0.34625 0.0
H2141 H 0.35856 0.17097 0.41598 0.0
H2142 H 0.38231 0.17146 0.41204 0.0
H2143 H 0.35847 0.14941 0.40559 0.0
C2144 C 0.39831 0.13751 0.38169 0.0
C2145 C 0.38589 0.1192 0.37261 0.0
C2146 C 0.39312 0.15287 0.38246 0.0
C2147 C 0.37537 0.15028 0.37425 0.0
C2148 C 0.36274 0.13194 0.36532 0.0
H2149 H 0.35685 0.25674 0.35869 0.0
H2150 H 0.34803 0.2206 0.35965 0.0
C2151 C 0.36788 0.11643 0.36462 0.0
C2152 C 0.37122 0.16757 0.37393 0.0
H2153 H 0.36872 0.20252 0.4004 0.0
C2154 C 0.37206 0.17689 0.35802 0.0
C2155 C 0.369 0.17639 0.38932 0.0
C2156 C 0.36681 0.16641 0.40668 0.0
C2157 C 0.37241 0.19572 0.35722 0.0
C2158 C 0.37162 0.20524 0.37273 0.0
C2159 C 0.36942 0.19523 0.38853 0.0
C2160 C 0.37578 0.22667 0.373 0.0
C2161 C 0.37505 0.20599 0.33992 0.0
C2162 C 0.394 0.24189 0.38057 0.0
C2163 C 0.39906 0.26241 0.38006 0.0
C2164 C 0.38593 0.26817 0.37201 0.0
C2165 C 0.36732 0.25281 0.3649 0.0
C2166 C 0.36229 0.23219 0.36538 0.0
H2167 H 0.37797 0.19776 0.32938 0.0
H2168 H 0.36091 0.20647 0.33672 0.0
H2169 H 0.38799 0.22206 0.34039 0.0
H2170 H 0.40459 0.23793 0.38653 0.0
H2171 H 0.41345 0.27379 0.38577 0.0
H2172 H 0.27376 0.41252 0.88699 0.0
H2173 H 0.23806 0.40407 0.88834 0.0
H2174 H 0.21987 0.34857 0.85945 0.0
H2175 H 0.25589 0.35701 0.85792 0.0
H2176 H 0.20432 0.37305 0.84638 0.0
H2177 H 0.1898 0.36077 0.91652 0.0
H2178 H 0.21308 0.38422 0.91189 0.0
H2179 H 0.2109 0.36003 0.90608 0.0
C2180 C 0.26221 0.39838 0.88106 0.0
C2181 C 0.2677 0.38545 0.87231 0.0
C2182 C 0.24175 0.39349 0.88197 0.0
C2183 C 0.22628 0.37553 0.87425 0.0
C2184 C 0.23159 0.36241 0.86565 0.0
H2185 H 0.1014 0.35752 0.85945 0.0
H2186 H 0.12869 0.34866 0.86041 0.0
C2187 C 0.25215 0.36725 0.86479 0.0
C2188 C 0.20492 0.37163 0.87411 0.0
H2189 H 0.16828 0.3706 0.90074 0.0
C2190 C 0.19613 0.37197 0.85821 0.0
C2191 C 0.19429 0.37016 0.88958 0.0
C2192 C 0.20242 0.36855 0.90697 0.0
C2193 C 0.17775 0.37252 0.85746 0.0
C2194 C 0.16785 0.37244 0.87301 0.0
C2195 C 0.17597 0.37076 0.88884 0.0
C2196 C 0.15064 0.37671 0.87324 0.0
C2197 C 0.1698 0.37458 0.84012 0.0
C2198 C 0.1538 0.39512 0.88052 0.0
C2199 C 0.13835 0.4002 0.88003 0.0
C2200 C 0.11931 0.38691 0.87228 0.0
C2201 C 0.11593 0.36813 0.86543 0.0
C2202 C 0.1315 0.36308 0.8659 0.0
H2203 H 0.18078 0.37718 0.8295 0.0
H2204 H 0.15516 0.36032 0.83725 0.0
H2205 H 0.16664 0.38751 0.8403 0.0
H2206 H 0.16846 0.40583 0.88627 0.0
H2207 H 0.14147 0.41472 0.88553 0.0
H2208 H 0.74415 0.10155 0.35776 0.0
H2209 H 0.78036 0.12868 0.35918 0.0
H2210 H 0.76325 0.16668 0.38832 0.0
H2211 H 0.72737 0.13988 0.3871 0.0
H2212 H 0.79654 0.16872 0.34617 0.0
H2213 H 0.81126 0.17078 0.41625 0.0
H2214 H 0.78986 0.14914 0.40587 0.0
H2215 H 0.78819 0.17142 0.41176 0.0
C2216 C 0.74817 0.11559 0.36466 0.0
C2217 C 0.73287 0.11856 0.37229 0.0
C2218 C 0.76883 0.13105 0.36545 0.0
C2219 C 0.77451 0.14954 0.3741 0.0
C2220 C 0.75928 0.15236 0.38193 0.0
H2221 H 0.85961 0.27306 0.38497 0.0
H2222 H 0.83265 0.23718 0.3858 0.0
C2223 C 0.73872 0.13705 0.38108 0.0
C2224 C 0.79599 0.16674 0.37391 0.0
H2225 H 0.83294 0.20213 0.40046 0.0
C2226 C 0.80481 0.17577 0.35799 0.0
C2227 C 0.80674 0.17582 0.38936 0.0
C2228 C 0.79861 0.16616 0.40676 0.0
C2229 C 0.82332 0.19458 0.3572 0.0
C2230 C 0.83331 0.20437 0.37273 0.0
C2231 C 0.82518 0.19463 0.38858 0.0
C2232 C 0.85052 0.22583 0.37293 0.0
C2233 C 0.83131 0.20453 0.33985 0.0
C2234 C 0.86969 0.23131 0.36566 0.0
C2235 C 0.88526 0.25195 0.36514 0.0
C2236 C 0.88183 0.26736 0.37187 0.0
C2237 C 0.86277 0.26164 0.37956 0.0
C2238 C 0.84733 0.24111 0.3801 0.0
H2239 H 0.82038 0.1961 0.32922 0.0
H2240 H 0.83443 0.2206 0.33996 0.0
H2241 H 0.84598 0.20494 0.33705 0.0
H2242 H 0.87252 0.21968 0.36025 0.0
H2243 H 0.8998 0.25584 0.35921 0.0
H2244 H 0.58589 0.72619 0.88423 0.0
H2245 H 0.5945 0.76197 0.88516 0.0
H2246 H 0.65238 0.78012 0.86027 0.0
H2247 H 0.6438 0.74404 0.85912 0.0
H2248 H 0.62921 0.79693 0.90027 0.0
H2249 H 0.62427 0.80378 0.82894 0.0
H2250 H 0.61384 0.77918 0.83951 0.0
H2251 H 0.64108 0.7951 0.83698 0.0
C2252 C 0.60051 0.73773 0.87898 0.0
C2253 C 0.61408 0.73222 0.87145 0.0
C2254 C 0.60543 0.75821 0.87959 0.0
C2255 C 0.62396 0.77364 0.87263 0.0
C2256 C 0.63787 0.76836 0.86551 0.0
H2257 H 0.64241 0.89822 0.858 0.0
H2258 H 0.65123 0.87091 0.85949 0.0
C2259 C 0.63297 0.74778 0.86492 0.0
C2260 C 0.62805 0.79505 0.87251 0.0
H2261 H 0.62751 0.83101 0.84594 0.0
C2262 C 0.62923 0.80458 0.88838 0.0
C2263 C 0.62819 0.80503 0.85698 0.0
C2264 C 0.62668 0.79531 0.83959 0.0
C2265 C 0.62952 0.82335 0.88917 0.0
C2266 C 0.62825 0.83263 0.8737 0.0
C2267 C 0.62843 0.82381 0.85778 0.0
C2268 C 0.62404 0.84989 0.87382 0.0
C2269 C 0.63057 0.83278 0.90661 0.0
C2270 C 0.60582 0.84705 0.88129 0.0
C2271 C 0.60071 0.86246 0.88039 0.0
C2272 C 0.61368 0.88109 0.87193 0.0
C2273 C 0.63212 0.88407 0.86465 0.0
C2274 C 0.63719 0.86851 0.86548 0.0
H2275 H 0.63827 0.82797 0.91626 0.0
H2276 H 0.63891 0.8498 0.90589 0.0
H2277 H 0.61475 0.8275 0.91127 0.0
H2278 H 0.59522 0.83263 0.88744 0.0
H2279 H 0.58639 0.85961 0.88614 0.0
H2280 H 0.36077 0.99769 0.92545 0.0
H2281 H 0.36705 0.0108 0.95507 0.0
H2282 H 0.36843 0.95696 0.97227 0.0
H2283 H 0.36259 0.94395 0.94268 0.0
H2284 H 0.345 0.99476 0.9848 0.0
H2285 H 0.42225 0.00303 0.99095 0.0
H2286 H 0.40922 0.99856 0.97049 0.0
H2287 H 0.40264 0.97759 0.98512 0.0
C2288 C 0.36244 0.98865 0.93553 0.0
C2289 C 0.3614 0.96988 0.93168 0.0
C2290 C 0.366 0.99615 0.95245 0.0
C2291 C 0.36858 0.98504 0.96582 0.0
C2292 C 0.367 0.96604 0.96209 0.0
H2293 H 0.36345 0.00446 0.07621 0.0
H2294 H 0.35605 0.99143 0.04659 0.0
C2295 C 0.36357 0.95859 0.94517 0.0
C2296 C 0.37284 0.99329 0.98368 0.0
H2297 H 0.40747 0.00729 0.01661 0.0
C2298 C 0.35868 0.99757 0.99175 0.0
C2299 C 0.39085 0.99721 0.99263 0.0
C2300 C 0.40722 0.99406 0.98431 0.0
C2301 C 0.3619 0.00539 0.00864 0.0
C2302 C 0.37956 0.00863 0.0178 0.0
C2303 C 0.39384 0.00461 0.00963 0.0
C2304 C 0.38379 0.01657 0.03576 0.0
C2305 C 0.34658 0.01049 0.01638 0.0
C2306 C 0.40205 0.03477 0.03959 0.0
C2307 C 0.40644 0.04213 0.05651 0.0
C2308 C 0.39264 0.0314 0.06997 0.0
C2309 C 0.37434 0.01315 0.06612 0.0
C2310 C 0.37002 0.00575 0.04917 0.0
H2311 H 0.33723 0.01247 0.00626 0.0
H2312 H 0.33596 0.99775 0.02494 0.0
H2313 H 0.35439 0.02475 0.02421 0.0
H2314 H 0.41292 0.04333 0.02944 0.0
H2315 H 0.42064 0.05627 0.05902 0.0
H2316 H 0.42161 0.36528 0.44197 0.0
H2317 H 0.41432 0.37046 0.47171 0.0
H2318 H 0.35806 0.36727 0.45511 0.0
H2319 H 0.365 0.36165 0.42535 0.0
H2320 H 0.40991 0.40134 0.48513 0.0
H2321 H 0.33843 0.32689 0.49494 0.0
H2322 H 0.35538 0.3316 0.47688 0.0
H2323 H 0.33745 0.34082 0.47649 0.0
C2324 C 0.40763 0.3656 0.44464 0.0
C2325 C 0.39385 0.363 0.4313 0.0
C2326 C 0.40349 0.36855 0.46165 0.0
C2327 C 0.3855 0.36895 0.46567 0.0
C2328 C 0.37179 0.36653 0.45237 0.0
H2329 H 0.3654 0.42083 0.55878 0.0
H2330 H 0.37159 0.41372 0.52929 0.0
C2331 C 0.37585 0.36345 0.43535 0.0
C2332 C 0.38149 0.37259 0.48371 0.0
H2333 H 0.34663 0.35238 0.51654 0.0
C2334 C 0.39611 0.3906 0.49203 0.0
C2335 C 0.36361 0.35842 0.49277 0.0
C2336 C 0.34791 0.33825 0.48489 0.0
C2337 C 0.39322 0.395 0.50906 0.0
C2338 C 0.37497 0.38121 0.51789 0.0
C2339 C 0.3605 0.36303 0.50968 0.0
C2340 C 0.37072 0.38529 0.53571 0.0
C2341 C 0.40991 0.41418 0.51754 0.0
C2342 C 0.36748 0.37132 0.54902 0.0
C2343 C 0.36372 0.37522 0.56588 0.0
C2344 C 0.36312 0.39319 0.56973 0.0
C2345 C 0.36601 0.40697 0.5563 0.0
C2346 C 0.36965 0.40299 0.53944 0.0
H2347 H 0.42494 0.41984 0.51101 0.0
H2348 H 0.40586 0.42647 0.51674 0.0
H2349 H 0.41163 0.41146 0.53137 0.0
H2350 H 0.36812 0.3575 0.5464 0.0
H2351 H 0.3615 0.36427 0.57592 0.0
H2352 H 0.00342 0.36341 0.92461 0.0
H2353 H 0.98974 0.35605 0.95405 0.0
H2354 H 0.04201 0.41224 0.97183 0.0
H2355 H 0.05559 0.41992 0.94244 0.0
H2356 H 0.00589 0.35072 0.98407 0.0
H2357 H 0.99428 0.41768 0.98986 0.0
H2358 H 0.9995 0.40959 0.96948 0.0
H2359 H 0.0201 0.42462 0.98425 0.0
C2360 C 0.01198 0.37422 0.93478 0.0
C2361 C 0.03049 0.39236 0.93115 0.0
C2362 C 0.00415 0.36998 0.9516 0.0
C2363 C 0.01466 0.38378 0.96507 0.0
C2364 C 0.03338 0.40163 0.96156 0.0
H2365 H 0.99633 0.35942 0.07538 0.0
H2366 H 0.00889 0.365 0.04561 0.0
C2367 C 0.04117 0.40594 0.94475 0.0
C2368 C 0.00614 0.37944 0.98284 0.0
H2369 H 0.99094 0.39913 0.01567 0.0
C2370 C 0.00253 0.36125 0.99097 0.0
C2371 C 0.00148 0.39305 0.99173 0.0
C2372 C 0.00383 0.41223 0.98334 0.0
C2373 C 0.99474 0.35648 0.00787 0.0
C2374 C 0.99086 0.37049 0.01699 0.0
C2375 C 0.99412 0.3885 0.00874 0.0
C2376 C 0.98314 0.36671 0.03503 0.0
C2377 C 0.99041 0.33631 0.01566 0.0
C2378 C 0.96476 0.36632 0.03906 0.0
C2379 C 0.95768 0.3634 0.05608 0.0
C2380 C 0.96887 0.36083 0.06943 0.0
C2381 C 0.98728 0.36121 0.06538 0.0
C2382 C 0.99442 0.36427 0.04835 0.0
H2383 H 0.98861 0.32504 0.00555 0.0
H2384 H 0.00347 0.33892 0.02403 0.0
H2385 H 0.97629 0.32954 0.02368 0.0
H2386 H 0.95585 0.36825 0.02901 0.0
H2387 H 0.9434 0.36312 0.05875 0.0
H2388 H 0.63931 0.00315 0.42428 0.0
H2389 H 0.63313 0.98963 0.45377 0.0
H2390 H 0.63073 0.04272 0.47161 0.0
H2391 H 0.63648 0.05613 0.44217 0.0
H2392 H 0.65512 0.00562 0.48357 0.0
H2393 H 0.57732 0.99584 0.49012 0.0
H2394 H 0.59033 0.00071 0.46962 0.0
H2395 H 0.59655 0.02148 0.48439 0.0
C2396 C 0.63742 0.01192 0.43447 0.0
C2397 C 0.63817 0.03061 0.43085 0.0
C2398 C 0.63391 0.00419 0.45132 0.0
C2399 C 0.63109 0.01498 0.46483 0.0
C2400 C 0.63235 0.03388 0.46131 0.0
H2401 H 0.63754 0.9964 0.57507 0.0
H2402 H 0.64452 0.009 0.54531 0.0
C2403 C 0.63573 0.04156 0.44447 0.0
C2404 C 0.62698 0.00655 0.48263 0.0
H2405 H 0.59252 0.99204 0.51574 0.0
C2406 C 0.6414 0.00257 0.4906 0.0
C2407 C 0.60893 0.0023 0.49168 0.0
C2408 C 0.59229 0.0051 0.48347 0.0
C2409 C 0.63842 0.99478 0.50749 0.0
C2410 C 0.62074 0.99127 0.51676 0.0
C2411 C 0.60617 0.99493 0.50868 0.0
C2412 C 0.61683 0.9835 0.53478 0.0
C2413 C 0.65405 0.99004 0.51512 0.0
C2414 C 0.59874 0.96523 0.53882 0.0
C2415 C 0.59459 0.95811 0.55583 0.0
C2416 C 0.60846 0.96916 0.56916 0.0
C2417 C 0.62661 0.98746 0.56508 0.0
C2418 C 0.63068 0.99462 0.54806 0.0
H2419 H 0.66336 0.98812 0.50493 0.0
H2420 H 0.66467 0.00294 0.52355 0.0
H2421 H 0.64652 0.97586 0.52306 0.0
H2422 H 0.5878 0.95644 0.52878 0.0
H2423 H 0.5805 0.94393 0.5585 0.0
H2424 H 0.63969 0.63712 0.0762 0.0
H2425 H 0.63298 0.64427 0.04681 0.0
H2426 H 0.62905 0.58806 0.02906 0.0
H2427 H 0.63534 0.58059 0.05839 0.0
H2428 H 0.6542 0.64949 0.01667 0.0
H2429 H 0.57565 0.58242 0.01137 0.0
H2430 H 0.58914 0.59064 0.03167 0.0
H2431 H 0.59458 0.57552 0.01689 0.0
C2432 C 0.63735 0.62626 0.06604 0.0
C2433 C 0.63784 0.60818 0.06966 0.0
C2434 C 0.63354 0.63037 0.04926 0.0
C2435 C 0.63013 0.61651 0.03581 0.0
C2436 C 0.63111 0.59872 0.03932 0.0
H2437 H 0.63579 0.63977 0.92552 0.0
H2438 H 0.64274 0.63452 0.95538 0.0
C2439 C 0.63481 0.59452 0.05609 0.0
C2440 C 0.62578 0.62074 0.01807 0.0
H2441 H 0.59071 0.60073 0.9854 0.0
C2442 C 0.64028 0.63889 0.00985 0.0
C2443 C 0.60746 0.60704 0.0093 0.0
C2444 C 0.59071 0.58792 0.01781 0.0
C2445 C 0.63716 0.64351 0.99293 0.0
C2446 C 0.61924 0.62938 0.9839 0.0
C2447 C 0.60455 0.61144 0.99227 0.0
C2448 C 0.61528 0.63293 0.96581 0.0
C2449 C 0.65293 0.66362 0.98502 0.0
C2450 C 0.59728 0.63326 0.96167 0.0
C2451 C 0.59313 0.63599 0.9446 0.0
C2452 C 0.60691 0.63842 0.93131 0.0
C2453 C 0.62494 0.63808 0.93548 0.0
C2454 C 0.62901 0.63522 0.95256 0.0
H2455 H 0.66238 0.67501 0.99506 0.0
H2456 H 0.66341 0.66098 0.97672 0.0
H2457 H 0.64553 0.67027 0.97691 0.0
H2458 H 0.58644 0.63144 0.97169 0.0
H2459 H 0.57914 0.63624 0.94184 0.0
H2460 H 0.05938 0.63869 0.55843 0.0
H2461 H 0.047 0.63366 0.52867 0.0
H2462 H 0.99374 0.63648 0.54529 0.0
H2463 H 0.00621 0.64194 0.57508 0.0
H2464 H 0.01192 0.60259 0.51538 0.0
H2465 H 0.01385 0.67648 0.5052 0.0
H2466 H 0.02629 0.6721 0.5233 0.0
H2467 H 0.99909 0.6626 0.52372 0.0
C2468 C 0.04508 0.63835 0.55576 0.0
C2469 C 0.03378 0.64074 0.56913 0.0
C2470 C 0.03804 0.63549 0.53873 0.0
C2471 C 0.0196 0.63499 0.5347 0.0
C2472 C 0.00825 0.6373 0.54802 0.0
H2473 H 0.94651 0.58123 0.44263 0.0
H2474 H 0.96042 0.58917 0.4719 0.0
C2475 C 0.01533 0.64028 0.56507 0.0
C2476 C 0.01187 0.63116 0.51667 0.0
H2477 H 0.99654 0.6507 0.48378 0.0
C2478 C 0.00865 0.61316 0.50844 0.0
C2479 C 0.00787 0.6451 0.50755 0.0
C2480 C 0.01214 0.66525 0.51532 0.0
C2481 C 0.0012 0.60852 0.49146 0.0
C2482 C 0.9964 0.62204 0.48259 0.0
C2483 C 1.0 0.64024 0.49068 0.0
C2484 C 0.9877 0.61755 0.46488 0.0
C2485 C 0.99885 0.58933 0.4831 0.0
C2486 C 0.99807 0.63123 0.4513 0.0
C2487 C 0.99006 0.62683 0.43454 0.0
C2488 C 0.97151 0.60867 0.43109 0.0
C2489 C 0.96097 0.59522 0.4448 0.0
C2490 C 0.96894 0.59968 0.46154 0.0
H2491 H 0.00848 0.58395 0.48959 0.0
H2492 H 0.9826 0.57691 0.48409 0.0
H2493 H 0.00308 0.59193 0.46922 0.0
H2494 H 0.01251 0.64518 0.45362 0.0
H2495 H 0.99852 0.63755 0.42428 0.0
H2496 H 0.63556 0.99507 0.92558 0.0
H2497 H 0.64255 0.00758 0.95535 0.0
H2498 H 0.58579 0.95504 0.97182 0.0
H2499 H 0.57847 0.94261 0.94207 0.0
H2500 H 0.59062 0.99057 0.98505 0.0
H2501 H 0.66141 0.9865 0.99553 0.0
H2502 H 0.66274 0.00142 0.97698 0.0
H2503 H 0.64453 0.97435 0.97741 0.0
C2504 C 0.62461 0.98612 0.93555 0.0
C2505 C 0.60645 0.96784 0.93145 0.0
C2506 C 0.6287 0.99323 0.95258 0.0
C2507 C 0.61485 0.98208 0.96586 0.0
C2508 C 0.59673 0.96384 0.96179 0.0
H2509 H 0.63825 0.00224 0.07629 0.0
H2510 H 0.63172 0.98846 0.04687 0.0
C2511 C 0.59257 0.95677 0.94476 0.0
C2512 C 0.61882 0.98978 0.98389 0.0
H2513 H 0.6534 0.00418 0.01692 0.0
C2514 C 0.6043 0.99346 0.99205 0.0
C2515 C 0.63654 0.99328 0.99308 0.0
C2516 C 0.65211 0.9885 0.98539 0.0
C2517 C 0.60717 0.00087 0.00904 0.0
C2518 C 0.62529 0.00515 0.018 0.0
C2519 C 0.63963 0.00111 0.00997 0.0
C2520 C 0.62956 0.01371 0.03575 0.0
C2521 C 0.59059 0.0037 0.01733 0.0
C2522 C 0.63086 0.03264 0.03921 0.0
C2523 C 0.63445 0.04048 0.05599 0.0
C2524 C 0.63705 0.02965 0.06964 0.0
C2525 C 0.63624 0.01092 0.06608 0.0
C2526 C 0.63254 0.00304 0.04928 0.0
H2527 H 0.57556 0.99438 0.01078 0.0
H2528 H 0.58877 0.99941 0.0312 0.0
H2529 H 0.59482 0.02007 0.01635 0.0
H2530 H 0.62914 0.04139 0.02889 0.0
H2531 H 0.63524 0.05507 0.05825 0.0
H2532 H 0.63569 0.58007 0.44173 0.0
H2533 H 0.62968 0.58758 0.47114 0.0
H2534 H 0.63361 0.64384 0.45357 0.0
H2535 H 0.64004 0.63666 0.4241 0.0
H2536 H 0.65511 0.64903 0.48354 0.0
H2537 H 0.5765 0.58211 0.48923 0.0
H2538 H 0.59537 0.57517 0.48356 0.0
H2539 H 0.58982 0.59028 0.46885 0.0
C2540 C 0.63522 0.59402 0.44409 0.0
C2541 C 0.63817 0.60768 0.43054 0.0
C2542 C 0.63168 0.59823 0.4609 0.0
C2543 C 0.63079 0.61606 0.46448 0.0
C2544 C 0.63411 0.62993 0.45106 0.0
H2545 H 0.5804 0.63661 0.55834 0.0
H2546 H 0.58766 0.63158 0.52855 0.0
C2547 C 0.63776 0.62578 0.43423 0.0
C2548 C 0.62661 0.62034 0.48227 0.0
H2549 H 0.59172 0.60058 0.51508 0.0
C2550 C 0.64122 0.63849 0.49043 0.0
C2551 C 0.60833 0.60672 0.49113 0.0
C2552 C 0.5915 0.58758 0.4827 0.0
C2553 C 0.63821 0.64321 0.50734 0.0
C2554 C 0.6203 0.62919 0.51644 0.0
C2555 C 0.60554 0.61122 0.50816 0.0
C2556 C 0.6164 0.6329 0.5345 0.0
C2557 C 0.65407 0.66334 0.51518 0.0
C2558 C 0.63009 0.63518 0.54778 0.0
C2559 C 0.62605 0.63817 0.56484 0.0
C2560 C 0.60809 0.63866 0.56895 0.0
C2561 C 0.59435 0.63625 0.55563 0.0
C2562 C 0.59847 0.63339 0.53858 0.0
H2563 H 0.66357 0.67464 0.5051 0.0
H2564 H 0.64674 0.67011 0.52323 0.0
H2565 H 0.66449 0.66066 0.52354 0.0
H2566 H 0.64378 0.63437 0.545 0.0
H2567 H 0.63687 0.63984 0.57482 0.0
H2568 H 0.94509 0.57873 0.05894 0.0
H2569 H 0.95848 0.58642 0.02949 0.0
H2570 H 0.0104 0.64304 0.047 0.0
H2571 H 0.99691 0.63567 0.07651 0.0
H2572 H 0.9938 0.64794 0.01703 0.0
H2573 H 0.00658 0.5817 0.01129 0.0
H2574 H 0.9807 0.57444 0.01701 0.0
H2575 H 0.00133 0.58975 0.03168 0.0
C2576 C 0.9594 0.5928 0.05656 0.0
C2577 C 0.97003 0.60651 0.0701 0.0
C2578 C 0.96707 0.59712 0.03972 0.0
C2579 C 0.98564 0.6151 0.03611 0.0
C2580 C 0.99611 0.62901 0.04953 0.0
H2581 H 0.0568 0.63644 0.94233 0.0
H2582 H 0.04438 0.63125 0.97208 0.0
C2583 C 0.98839 0.62476 0.06638 0.0
C2584 C 0.99405 0.61947 0.0183 0.0
H2585 H 0.00955 0.60008 0.98545 0.0
C2586 C 0.99733 0.63753 0.01013 0.0
C2587 C 0.99893 0.60602 0.00942 0.0
C2588 C 0.99691 0.58699 0.01784 0.0
C2589 C 0.00502 0.64233 0.99321 0.0
C2590 C 0.00914 0.62847 0.9841 0.0
C2591 C 0.00619 0.61059 0.99238 0.0
C2592 C 0.01683 0.6323 0.96605 0.0
C2593 C 0.009 0.66236 0.98538 0.0
C2594 C 0.00541 0.63451 0.95273 0.0
C2595 C 0.01253 0.6376 0.93569 0.0
C2596 C 0.03107 0.63826 0.93163 0.0
C2597 C 0.04242 0.63594 0.94499 0.0
C2598 C 0.03535 0.63299 0.96202 0.0
H2599 H 0.01064 0.6736 0.99546 0.0
H2600 H 0.02311 0.66931 0.97734 0.0
H2601 H 0.99586 0.65951 0.97702 0.0
H2602 H 0.99084 0.63355 0.95546 0.0
H2603 H 0.00336 0.6392 0.92568 0.0
H2604 H 0.36083 0.99697 0.57508 0.0
H2605 H 0.36615 0.00929 0.54526 0.0
H2606 H 0.36922 0.95612 0.52879 0.0
H2607 H 0.36434 0.94388 0.5586 0.0
H2608 H 0.4001 0.99125 0.5153 0.0
H2609 H 0.32583 0.98862 0.50539 0.0
H2610 H 0.33976 0.00354 0.52383 0.0
H2611 H 0.33046 0.97638 0.5235 0.0
C2612 C 0.36253 0.98784 0.5651 0.0
C2613 C 0.36216 0.96945 0.56921 0.0
C2614 C 0.36543 0.99484 0.54804 0.0
C2615 C 0.36776 0.98346 0.53475 0.0
C2616 C 0.36738 0.9651 0.53883 0.0
H2617 H 0.364 0.00371 0.42438 0.0
H2618 H 0.3568 0.98992 0.45379 0.0
C2619 C 0.3646 0.95814 0.55589 0.0
C2620 C 0.37141 0.99107 0.51669 0.0
H2621 H 0.35144 0.00598 0.48386 0.0
C2622 C 0.38941 0.99438 0.5084 0.0
C2623 C 0.35732 0.99488 0.50762 0.0
C2624 C 0.33716 0.99049 0.51546 0.0
C2625 C 0.39389 0.00174 0.49138 0.0
C2626 C 0.38021 0.00635 0.48255 0.0
C2627 C 0.36202 0.00266 0.49072 0.0
C2628 C 0.38449 0.01491 0.46481 0.0
C2629 C 0.41307 0.00417 0.48294 0.0
C2630 C 0.40227 0.0337 0.4613 0.0
C2631 C 0.40649 0.04155 0.44452 0.0
C2632 C 0.39288 0.03086 0.43093 0.0
C2633 C 0.37483 0.01228 0.43455 0.0
C2634 C 0.37068 0.00438 0.45134 0.0
H2635 H 0.4186 0.99466 0.48943 0.0
H2636 H 0.4104 0.99985 0.46908 0.0
H2637 H 0.42543 0.02046 0.48385 0.0
H2638 H 0.41288 0.04233 0.47157 0.0
H2639 H 0.4204 0.05603 0.44222 0.0
H2640 H 0.36407 0.36123 0.0756 0.0
H2641 H 0.3571 0.36677 0.04582 0.0
H2642 H 0.41318 0.36957 0.0292 0.0
H2643 H 0.4205 0.36448 0.05895 0.0
H2644 H 0.40901 0.40055 0.01576 0.0
H2645 H 0.33723 0.32634 0.00601 0.0
H2646 H 0.33638 0.34037 0.02443 0.0
H2647 H 0.35415 0.33096 0.02408 0.0
C2648 C 0.37488 0.36293 0.06559 0.0
C2649 C 0.39284 0.36241 0.06964 0.0
C2650 C 0.3708 0.36596 0.04856 0.0
C2651 C 0.38446 0.36825 0.03524 0.0
C2652 C 0.4024 0.36776 0.03927 0.0
H2653 H 0.36085 0.36354 0.92493 0.0
H2654 H 0.36725 0.35673 0.95451 0.0
C2655 C 0.40655 0.36485 0.05629 0.0
C2656 C 0.38048 0.3719 0.0172 0.0
H2657 H 0.34565 0.35179 0.98434 0.0
C2658 C 0.39519 0.38986 0.00886 0.0
C2659 C 0.36257 0.35779 0.00814 0.0
C2660 C 0.34677 0.33769 0.01604 0.0
C2661 C 0.39236 0.39424 0.99181 0.0
C2662 C 0.3741 0.38052 0.98298 0.0
C2663 C 0.35953 0.3624 0.9912 0.0
C2664 C 0.36994 0.38459 0.96512 0.0
C2665 C 0.40915 0.41335 0.98332 0.0
C2666 C 0.369 0.40234 0.96133 0.0
C2667 C 0.36549 0.40635 0.94444 0.0
C2668 C 0.3626 0.39254 0.93104 0.0
C2669 C 0.36307 0.37452 0.93494 0.0
C2670 C 0.3667 0.37059 0.95184 0.0
H2671 H 0.42415 0.41895 0.98989 0.0
H2672 H 0.41089 0.41056 0.9695 0.0
H2673 H 0.4052 0.42571 0.98404 0.0
H2674 H 0.37095 0.4131 0.97146 0.0
H2675 H 0.36497 0.42025 0.94191 0.0
H2676 H 0.05564 0.41994 0.5584 0.0
H2677 H 0.04191 0.41234 0.52906 0.0
H2678 H 0.98954 0.3563 0.54693 0.0
H2679 H 0.00336 0.36358 0.57634 0.0
H2680 H 0.00554 0.3509 0.5168 0.0
H2681 H 0.99421 0.41806 0.5113 0.0
H2682 H 0.02002 0.42489 0.51683 0.0
H2683 H 0.99944 0.40987 0.53163 0.0
C2684 C 0.04117 0.40601 0.55613 0.0
C2685 C 0.0305 0.39245 0.56975 0.0
C2686 C 0.0333 0.40174 0.53935 0.0
C2687 C 0.0145 0.38396 0.53587 0.0
C2688 C 0.00401 0.37018 0.54936 0.0
H2689 H 0.94318 0.36372 0.44224 0.0
H2690 H 0.95557 0.36872 0.47199 0.0
C2691 C 0.01192 0.37438 0.56615 0.0
C2692 C 0.0059 0.37967 0.51813 0.0
H2693 H 0.99073 0.39954 0.48542 0.0
C2694 C 0.00221 0.36148 0.50995 0.0
C2695 C 0.00128 0.39335 0.50931 0.0
C2696 C 0.00373 0.41253 0.51776 0.0
C2697 C 0.99438 0.35677 0.49307 0.0
C2698 C 0.99055 0.37086 0.484 0.0
C2699 C 0.99388 0.38886 0.49231 0.0
C2700 C 0.98286 0.36718 0.46596 0.0
C2701 C 0.98998 0.33661 0.48522 0.0
C2702 C 0.99415 0.36478 0.45263 0.0
C2703 C 0.98705 0.36181 0.43559 0.0
C2704 C 0.96865 0.36145 0.43154 0.0
C2705 C 0.95744 0.36398 0.4449 0.0
C2706 C 0.96449 0.36683 0.46193 0.0
H2707 H 0.98814 0.32529 0.49529 0.0
H2708 H 0.97585 0.32991 0.4772 0.0
H2709 H 0.00302 0.33921 0.47683 0.0
H2710 H 0.00861 0.36549 0.45536 0.0
H2711 H 0.99611 0.36004 0.42558 0.0
H2712 H 0.43193 0.01944 0.12161 0.0
H2713 H 0.46054 0.01255 0.12303 0.0
H2714 H 0.50173 0.07575 0.13663 0.0
H2715 H 0.47355 0.08282 0.13533 0.0
H2716 H 0.49826 0.03271 0.1036 0.0
H2717 H 0.51218 0.04292 0.17404 0.0
H2718 H 0.4884 0.03824 0.16429 0.0
H2719 H 0.5105 0.06363 0.16419 0.0
C2720 C 0.44706 0.03184 0.125 0.0
C2721 C 0.45039 0.05168 0.1284 0.0
C2722 C 0.46336 0.02787 0.12579 0.0
C2723 C 0.48314 0.04357 0.13021 0.0
C2724 C 0.48649 0.06333 0.13354 0.0
H2725 H 0.60815 0.08234 0.13335 0.0
H2726 H 0.57297 0.07551 0.13446 0.0
C2727 C 0.47033 0.06735 0.13268 0.0
C2728 C 0.5007 0.03987 0.1307 0.0
H2729 H 0.54024 0.04644 0.15659 0.0
C2730 C 0.50723 0.03523 0.11524 0.0
C2731 C 0.51227 0.04309 0.14594 0.0
C2732 C 0.50539 0.04704 0.1631 0.0
C2733 C 0.52587 0.03517 0.11437 0.0
C2734 C 0.53805 0.03966 0.1294 0.0
C2735 C 0.5309 0.04311 0.14507 0.0
C2736 C 0.55921 0.04313 0.12879 0.0
C2737 C 0.53304 0.03159 0.0972 0.0
C2738 C 0.56313 0.02709 0.12535 0.0
C2739 C 0.58336 0.03092 0.1247 0.0
C2740 C 0.59997 0.05087 0.12748 0.0
C2741 C 0.59584 0.0668 0.13107 0.0
C2742 C 0.5757 0.06294 0.13176 0.0
H2743 H 0.52299 0.03085 0.08638 0.0
H2744 H 0.54897 0.04401 0.09451 0.0
H2745 H 0.53309 0.01687 0.09764 0.0
H2746 H 0.55056 0.01164 0.12323 0.0
H2747 H 0.58597 0.01828 0.12197 0.0
H2748 H 0.52761 0.6082 0.63345 0.0
H2749 H 0.49893 0.57321 0.63267 0.0
H2750 H 0.54006 0.55086 0.61987 0.0
H2751 H 0.56922 0.58612 0.62066 0.0
H2752 H 0.48815 0.54664 0.60248 0.0
H2753 H 0.50404 0.51404 0.66127 0.0
H2754 H 0.51493 0.54137 0.65835 0.0
H2755 H 0.5245 0.5278 0.646 0.0
C2756 C 0.53073 0.59594 0.63055 0.0
C2757 C 0.5508 0.60006 0.62703 0.0
C2758 C 0.51425 0.57591 0.63012 0.0
C2759 C 0.5174 0.55949 0.62629 0.0
C2760 C 0.53738 0.56335 0.62303 0.0
H2761 H 0.41401 0.43169 0.62156 0.0
H2762 H 0.44925 0.46084 0.62029 0.0
C2763 C 0.55399 0.5835 0.62343 0.0
C2764 C 0.49939 0.53858 0.625 0.0
H2765 H 0.47283 0.49321 0.64679 0.0
C2766 C 0.48493 0.53483 0.61201 0.0
C2767 C 0.49535 0.5232 0.63738 0.0
C2768 C 0.51041 0.52667 0.65163 0.0
C2769 C 0.46613 0.51642 0.61149 0.0
C2770 C 0.46154 0.50153 0.62447 0.0
C2771 C 0.47642 0.50474 0.63692 0.0
C2772 C 0.44063 0.48362 0.6262 0.0
C2773 C 0.45103 0.51328 0.59735 0.0
C2774 C 0.42432 0.48681 0.63038 0.0
C2775 C 0.4043 0.47033 0.63114 0.0
C2776 C 0.40013 0.45022 0.62777 0.0
C2777 C 0.41665 0.44697 0.62415 0.0
C2778 C 0.43678 0.46357 0.62342 0.0
H2779 H 0.45878 0.5232 0.58599 0.0
H2780 H 0.44261 0.49701 0.59308 0.0
H2781 H 0.43965 0.5173 0.60232 0.0
H2782 H 0.42707 0.50217 0.63284 0.0
H2783 H 0.39208 0.47348 0.63416 0.0
H2784 H 0.91898 0.39119 0.13507 0.0
H2785 H 0.92612 0.42648 0.13607 0.0
H2786 H 0.98941 0.44822 0.12297 0.0
H2787 H 0.98243 0.4127 0.1218 0.0
H2788 H 0.95598 0.45956 0.15724 0.0
H2789 H 0.96915 0.47523 0.08664 0.0
H2790 H 0.9563 0.44944 0.09518 0.0
H2791 H 0.98354 0.46539 0.0976 0.0
C2792 C 0.93446 0.40338 0.13237 0.0
C2793 C 0.95011 0.39903 0.12825 0.0
C2794 C 0.9385 0.42358 0.133 0.0
C2795 C 0.95822 0.43991 0.12946 0.0
C2796 C 0.97402 0.43578 0.12554 0.0
H2797 H 0.98176 0.5671 0.12126 0.0
H2798 H 0.98879 0.53859 0.12275 0.0
C2799 C 0.97 0.41548 0.12494 0.0
C2800 C 0.96184 0.46114 0.12991 0.0
H2801 H 0.96799 0.50039 0.10377 0.0
C2802 C 0.95894 0.46865 0.1456 0.0
C2803 C 0.96584 0.47299 0.11472 0.0
C2804 C 0.96881 0.46543 0.09751 0.0
C2805 C 0.95901 0.48731 0.14639 0.0
C2806 C 0.96173 0.49854 0.13103 0.0
C2807 C 0.96586 0.49167 0.1155 0.0
C2808 C 0.95798 0.51606 0.13051 0.0
C2809 C 0.95561 0.49457 0.16357 0.0
C2810 C 0.93829 0.51272 0.13415 0.0
C2811 C 0.93418 0.52882 0.13323 0.0
C2812 C 0.9497 0.5487 0.1286 0.0
C2813 C 0.96947 0.55202 0.12492 0.0
C2814 C 0.97353 0.53578 0.12576 0.0
H2815 H 0.96003 0.48797 0.17447 0.0
H2816 H 0.96449 0.51158 0.1645 0.0
H2817 H 0.93907 0.48953 0.165 0.0
H2818 H 0.92597 0.49752 0.13751 0.0
H2819 H 0.91876 0.52561 0.13612 0.0
H2820 H 0.41481 0.98317 0.62107 0.0
H2821 H 0.45003 0.9892 0.61969 0.0
H2822 H 0.42777 0.92558 0.63181 0.0
H2823 H 0.39282 0.91933 0.63325 0.0
H2824 H 0.47335 0.97987 0.64631 0.0
H2825 H 0.45984 0.93697 0.58493 0.0
H2826 H 0.44375 0.94706 0.59207 0.0
H2827 H 0.44046 0.92356 0.60104 0.0
C2828 C 0.41742 0.97048 0.62352 0.0
C2829 C 0.40089 0.95071 0.62709 0.0
C2830 C 0.43754 0.97398 0.62273 0.0
C2831 C 0.44138 0.95775 0.62539 0.0
C2832 C 0.42505 0.93822 0.62946 0.0
H2833 H 0.52744 0.91911 0.63263 0.0
H2834 H 0.49899 0.92576 0.63165 0.0
C2835 C 0.40504 0.93471 0.63029 0.0
C2836 C 0.46228 0.96075 0.6237 0.0
H2837 H 0.48894 0.94239 0.60158 0.0
C2838 C 0.47702 0.97208 0.63634 0.0
C2839 C 0.46695 0.95063 0.61061 0.0
C2840 C 0.452 0.93901 0.59628 0.0
C2841 C 0.49585 0.97237 0.63689 0.0
C2842 C 0.49995 0.96119 0.62439 0.0
C2843 C 0.48567 0.95085 0.6112 0.0
C2844 C 0.51782 0.95805 0.62575 0.0
C2845 C 0.51072 0.98357 0.65136 0.0
C2846 C 0.53791 0.9741 0.62284 0.0
C2847 C 0.55439 0.97037 0.62336 0.0
C2848 C 0.55095 0.95048 0.62674 0.0
C2849 C 0.53075 0.93459 0.6299 0.0
C2850 C 0.51441 0.93834 0.62936 0.0
H2851 H 0.5043 0.98972 0.66104 0.0
H2852 H 0.515 0.97315 0.65798 0.0
H2853 H 0.52497 0.99657 0.64596 0.0
H2854 H 0.5408 0.98939 0.61986 0.0
H2855 H 0.56973 0.98295 0.62086 0.0
H2856 H 0.58691 0.56892 0.12149 0.0
H2857 H 0.55155 0.53999 0.12073 0.0
H2858 H 0.57353 0.49817 0.13192 0.0
H2859 H 0.60865 0.52663 0.13265 0.0
H2860 H 0.54663 0.48813 0.10219 0.0
H2861 H 0.51502 0.50347 0.16188 0.0
H2862 H 0.52862 0.52415 0.14676 0.0
H2863 H 0.54229 0.51429 0.15861 0.0
C2864 C 0.5842 0.55358 0.12392 0.0
C2865 C 0.60069 0.55014 0.12705 0.0
C2866 C 0.56398 0.53711 0.12354 0.0
C2867 C 0.55998 0.51701 0.12635 0.0
C2868 C 0.57633 0.51359 0.12972 0.0
H2869 H 0.47339 0.39206 0.13371 0.0
H2870 H 0.50217 0.42698 0.13241 0.0
C2871 C 0.59644 0.52994 0.13012 0.0
C2872 C 0.53898 0.49915 0.12506 0.0
H2873 H 0.49374 0.47265 0.14705 0.0
C2874 C 0.53494 0.48488 0.11184 0.0
C2875 C 0.52375 0.49508 0.13761 0.0
C2876 C 0.52751 0.50994 0.15211 0.0
C2877 C 0.51641 0.46621 0.11125 0.0
C2878 C 0.50166 0.46157 0.12437 0.0
C2879 C 0.50516 0.47629 0.13706 0.0
C2880 C 0.4837 0.44071 0.12604 0.0
C2881 C 0.51297 0.45126 0.09689 0.0
C2882 C 0.46367 0.43697 0.12339 0.0
C2883 C 0.44701 0.41687 0.12409 0.0
C2884 C 0.45018 0.40028 0.12758 0.0
C2885 C 0.47029 0.40434 0.13081 0.0
C2886 C 0.48682 0.42432 0.13005 0.0
H2887 H 0.52286 0.4591 0.08554 0.0
H2888 H 0.51682 0.43966 0.10161 0.0
H2889 H 0.49667 0.44309 0.0927 0.0
H2890 H 0.461 0.4495 0.12038 0.0
H2891 H 0.43173 0.41432 0.12163 0.0
H2892 H 0.08312 0.47445 0.63208 0.0
H2893 H 0.07672 0.50308 0.63106 0.0
H2894 H 0.01272 0.46145 0.62047 0.0
H2895 H 0.0189 0.43235 0.6215 0.0
H2896 H 0.05942 0.51276 0.60118 0.0
H2897 H 0.01379 0.49883 0.6615 0.0
H2898 H 0.03016 0.48792 0.65823 0.0
H2899 H 0.00642 0.47785 0.64665 0.0
C2900 C 0.06761 0.47122 0.62961 0.0
C2901 C 0.05153 0.45102 0.6268 0.0
C2902 C 0.064 0.48766 0.62904 0.0
C2903 C 0.04426 0.48435 0.62576 0.0
C2904 C 0.02803 0.46426 0.6232 0.0
H2905 H 0.01977 0.58778 0.62132 0.0
H2906 H 0.01351 0.55248 0.61998 0.0
C2907 C 0.03163 0.44769 0.62374 0.0
C2908 C 0.04124 0.50228 0.62436 0.0
H2909 H 0.0234 0.52951 0.64644 0.0
C2910 C 0.05127 0.51628 0.61092 0.0
C2911 C 0.03048 0.50671 0.63703 0.0
C2912 C 0.01962 0.49215 0.65176 0.0
C2913 C 0.05159 0.53505 0.61022 0.0
C2914 C 0.0419 0.54005 0.62345 0.0
C2915 C 0.03086 0.52559 0.63637 0.0
C2916 C 0.04508 0.56104 0.625 0.0
C2917 C 0.06285 0.54969 0.59562 0.0
C2918 C 0.06476 0.57736 0.62865 0.0
C2919 C 0.0684 0.5974 0.62947 0.0
C2920 C 0.05238 0.60162 0.62665 0.0
C2921 C 0.03247 0.58512 0.62345 0.0
C2922 C 0.02885 0.56495 0.6227 0.0
H2923 H 0.06449 0.54158 0.58427 0.0
H2924 H 0.05478 0.55796 0.59152 0.0
H2925 H 0.07847 0.56123 0.60004 0.0
H2926 H 0.07741 0.57457 0.63073 0.0
H2927 H 0.08388 0.6096 0.63213 0.0
H2928 H 0.9183 0.52632 0.36792 0.0
H2929 H 0.92517 0.49798 0.36685 0.0
H2930 H 0.98907 0.53955 0.3779 0.0
H2931 H 0.98238 0.56829 0.37909 0.0
H2932 H 0.95453 0.49457 0.34457 0.0
H2933 H 0.96975 0.49263 0.41483 0.0
H2934 H 0.95639 0.50526 0.40671 0.0
H2935 H 0.98357 0.51678 0.40365 0.0
C2936 C 0.93385 0.52957 0.37016 0.0
C2937 C 0.94978 0.54965 0.37367 0.0
C2938 C 0.93774 0.5133 0.3695 0.0
C2939 C 0.95757 0.51667 0.37242 0.0
C2940 C 0.9736 0.53664 0.37581 0.0
H2941 H 0.98173 0.41341 0.37983 0.0
H2942 H 0.98844 0.44885 0.37849 0.0
C2943 C 0.96975 0.55303 0.37642 0.0
C2944 C 0.9611 0.49901 0.3718 0.0
H2945 H 0.96805 0.46614 0.39757 0.0
C2946 C 0.95781 0.48851 0.3561 0.0
C2947 C 0.96552 0.49127 0.38684 0.0
C2948 C 0.96894 0.50193 0.40403 0.0
C2949 C 0.95796 0.46998 0.35518 0.0
C2950 C 0.96111 0.46156 0.37041 0.0
C2951 C 0.96558 0.47264 0.38593 0.0
C2952 C 0.95754 0.44035 0.37085 0.0
C2953 C 0.95423 0.45929 0.33797 0.0
C2954 C 0.9379 0.4239 0.36722 0.0
C2955 C 0.93398 0.40375 0.36803 0.0
C2956 C 0.94963 0.39954 0.37256 0.0
C2957 C 0.96934 0.41608 0.37625 0.0
C2958 C 0.97322 0.43633 0.3755 0.0
H2959 H 0.95852 0.47031 0.32709 0.0
H2960 H 0.96304 0.4511 0.33683 0.0
H2961 H 0.93766 0.44785 0.33671 0.0
H2962 H 0.92547 0.42665 0.36396 0.0
H2963 H 0.91859 0.39148 0.36515 0.0
H2964 H 0.56766 0.98111 0.87987 0.0
H2965 H 0.53849 0.98716 0.88122 0.0
H2966 H 0.49725 0.92383 0.86811 0.0
H2967 H 0.52595 0.91755 0.86673 0.0
H2968 H 0.50652 0.97895 0.85475 0.0
H2969 H 0.47563 0.93369 0.91485 0.0
H2970 H 0.50187 0.94368 0.90793 0.0
H2971 H 0.48158 0.92067 0.89837 0.0
C2972 C 0.55239 0.96849 0.87719 0.0
C2973 C 0.54917 0.94878 0.87338 0.0
C2974 C 0.53578 0.972 0.87796 0.0
C2975 C 0.51575 0.95585 0.87504 0.0
C2976 C 0.51259 0.9364 0.87069 0.0
H2977 H 0.39124 0.91892 0.86727 0.0
H2978 H 0.42612 0.92493 0.86819 0.0
C2979 C 0.52907 0.93288 0.86988 0.0
C2980 C 0.49784 0.95885 0.87676 0.0
H2981 H 0.45244 0.94001 0.89837 0.0
C2982 C 0.49484 0.97082 0.86447 0.0
C2983 C 0.48275 0.94829 0.88954 0.0
C2984 C 0.48565 0.936 0.90354 0.0
C2985 C 0.47642 0.97136 0.86396 0.0
C2986 C 0.46086 0.9598 0.87615 0.0
C2987 C 0.46438 0.94877 0.88899 0.0
C2988 C 0.44002 0.95708 0.87481 0.0
C2989 C 0.47321 0.9833 0.84987 0.0
C2990 C 0.43628 0.97326 0.87815 0.0
C2991 C 0.4162 0.96989 0.87767 0.0
C2992 C 0.39957 0.95025 0.8739 0.0
C2993 C 0.40356 0.93423 0.87031 0.0
C2994 C 0.42353 0.93761 0.87081 0.0
H2995 H 0.48589 0.98957 0.84027 0.0
H2996 H 0.4585 0.97338 0.84306 0.0
H2997 H 0.47227 0.9963 0.85566 0.0
H2998 H 0.44882 0.98835 0.88145 0.0
H2999 H 0.41369 0.98256 0.88052 0.0
H3000 H 0.47371 0.39221 0.36551 0.0
H3001 H 0.50211 0.42738 0.36453 0.0
H3002 H 0.46108 0.44973 0.37771 0.0
H3003 H 0.43228 0.41434 0.37886 0.0
H3004 H 0.50584 0.46064 0.34348 0.0
H3005 H 0.50824 0.47628 0.41407 0.0
H3006 H 0.49503 0.45052 0.40547 0.0
H3007 H 0.48407 0.46677 0.40309 0.0
C3008 C 0.47059 0.40452 0.36823 0.0
C3009 C 0.45065 0.40037 0.37237 0.0
C3010 C 0.48689 0.42464 0.36762 0.0
C3011 C 0.48372 0.44111 0.3712 0.0
C3012 C 0.46386 0.43718 0.37512 0.0
H3013 H 0.58729 0.56829 0.37935 0.0
H3014 H 0.55181 0.53965 0.37787 0.0
C3015 C 0.44743 0.41696 0.37571 0.0
C3016 C 0.50146 0.46226 0.37079 0.0
H3017 H 0.53453 0.5015 0.39695 0.0
C3018 C 0.51196 0.46973 0.35512 0.0
C3019 C 0.5093 0.47411 0.38598 0.0
C3020 C 0.49872 0.46658 0.40317 0.0
C3021 C 0.53056 0.48836 0.35435 0.0
C3022 C 0.53903 0.49962 0.36971 0.0
C3023 C 0.52798 0.49276 0.38521 0.0
C3024 C 0.56027 0.5172 0.37025 0.0
C3025 C 0.54129 0.4956 0.33719 0.0
C3026 C 0.57669 0.51395 0.36668 0.0
C3027 C 0.59686 0.53013 0.36758 0.0
C3028 C 0.6011 0.54999 0.37213 0.0
C3029 C 0.58458 0.55322 0.37575 0.0
C3030 C 0.56432 0.5369 0.37492 0.0
H3031 H 0.53032 0.48894 0.32626 0.0
H3032 H 0.54937 0.5126 0.33622 0.0
H3033 H 0.55284 0.49061 0.33585 0.0
H3034 H 0.57389 0.49877 0.36336 0.0
H3035 H 0.60912 0.52698 0.36474 0.0
H3036 H 0.082 0.47404 0.86716 0.0
H3037 H 0.0747 0.50209 0.86624 0.0
H3038 H 0.01116 0.46008 0.87821 0.0
H3039 H 0.01829 0.43162 0.87927 0.0
H3040 H 0.04481 0.50511 0.84452 0.0
H3041 H 0.03068 0.50707 0.915 0.0
H3042 H 0.04402 0.49455 0.90661 0.0
H3043 H 0.01678 0.48288 0.90389 0.0
C3044 C 0.06643 0.47063 0.86964 0.0
C3045 C 0.05074 0.45051 0.87337 0.0
C3046 C 0.0623 0.48674 0.86906 0.0
C3047 C 0.04245 0.48317 0.87229 0.0
C3048 C 0.02664 0.46315 0.87588 0.0
H3049 H 0.01793 0.58625 0.88022 0.0
H3050 H 0.01114 0.55077 0.87883 0.0
C3051 C 0.03075 0.44692 0.87641 0.0
C3052 C 0.03869 0.50069 0.87181 0.0
H3053 H 0.03194 0.53345 0.89788 0.0
C3054 C 0.04166 0.51114 0.85613 0.0
C3055 C 0.03444 0.50839 0.88696 0.0
C3056 C 0.03137 0.49779 0.90414 0.0
C3057 C 0.04139 0.52962 0.85533 0.0
C3058 C 0.03844 0.53801 0.87067 0.0
C3059 C 0.03425 0.52697 0.88617 0.0
C3060 C 0.04204 0.55924 0.87119 0.0
C3061 C 0.04486 0.54033 0.83815 0.0
C3062 C 0.0617 0.57566 0.8676 0.0
C3063 C 0.06567 0.59582 0.86845 0.0
C3064 C 0.05004 0.60006 0.87297 0.0
C3065 C 0.0303 0.58354 0.87664 0.0
C3066 C 0.02638 0.56328 0.87586 0.0
H3067 H 0.04055 0.52933 0.82724 0.0
H3068 H 0.03591 0.54838 0.83717 0.0
H3069 H 0.06139 0.55188 0.8368 0.0
H3070 H 0.0741 0.57288 0.86431 0.0
H3071 H 0.08107 0.60807 0.86558 0.0
H3072 H 0.60886 0.08288 0.36691 0.0
H3073 H 0.5737 0.07613 0.366 0.0
H3074 H 0.55127 0.01232 0.37756 0.0
H3075 H 0.58666 0.01891 0.37864 0.0
H3076 H 0.5408 0.04715 0.34419 0.0
H3077 H 0.52403 0.03168 0.41446 0.0
H3078 H 0.54995 0.04465 0.40617 0.0
H3079 H 0.53388 0.01752 0.40315 0.0
C3080 C 0.59654 0.06737 0.36931 0.0
C3081 C 0.60067 0.05145 0.37294 0.0
C3082 C 0.57642 0.06355 0.36873 0.0
C3083 C 0.55993 0.04379 0.37185 0.0
C3084 C 0.56384 0.02775 0.37533 0.0
H3085 H 0.43252 0.01968 0.3794 0.0
H3086 H 0.46127 0.013 0.37793 0.0
C3087 C 0.58406 0.03154 0.37587 0.0
C3088 C 0.53877 0.04035 0.37137 0.0
H3089 H 0.4991 0.03333 0.39737 0.0
C3090 C 0.53152 0.04381 0.35576 0.0
C3091 C 0.52668 0.03586 0.38646 0.0
C3092 C 0.53395 0.03229 0.40358 0.0
C3093 C 0.51288 0.04376 0.35498 0.0
C3094 C 0.50138 0.04051 0.37027 0.0
C3095 C 0.50802 0.03588 0.38569 0.0
C3096 C 0.48376 0.0441 0.37086 0.0
C3097 C 0.50589 0.04773 0.33788 0.0
C3098 C 0.487 0.06383 0.36761 0.0
C3099 C 0.47076 0.06773 0.36849 0.0
C3100 C 0.45085 0.05197 0.37272 0.0
C3101 C 0.44763 0.03216 0.37605 0.0
C3102 C 0.46401 0.0283 0.37523 0.0
H3103 H 0.5127 0.0437 0.32688 0.0
H3104 H 0.4889 0.03884 0.33673 0.0
H3105 H 0.5109 0.06429 0.33685 0.0
H3106 H 0.50222 0.07633 0.36454 0.0
H3107 H 0.4739 0.08319 0.36589 0.0
H3108 H 0.52688 0.60808 0.86584 0.0
H3109 H 0.49815 0.57313 0.86699 0.0
H3110 H 0.53914 0.55091 0.88068 0.0
H3111 H 0.56836 0.58613 0.87957 0.0
H3112 H 0.50717 0.52732 0.8537 0.0
H3113 H 0.47627 0.54156 0.91387 0.0
H3114 H 0.48258 0.56072 0.8975 0.0
H3115 H 0.50261 0.55761 0.90711 0.0
C3116 C 0.52995 0.59586 0.86907 0.0
C3117 C 0.54999 0.60002 0.87281 0.0
C3118 C 0.51344 0.57586 0.86974 0.0
C3119 C 0.51652 0.55955 0.87417 0.0
C3120 C 0.5365 0.56338 0.87733 0.0
H3121 H 0.41378 0.43117 0.87939 0.0
H3122 H 0.44903 0.46029 0.8802 0.0
C3123 C 0.55314 0.58351 0.87671 0.0
C3124 C 0.49855 0.53867 0.8758 0.0
H3125 H 0.45303 0.51223 0.89725 0.0
C3126 C 0.49547 0.52377 0.86341 0.0
C3127 C 0.48344 0.53415 0.88856 0.0
C3128 C 0.48641 0.54927 0.90263 0.0
C3129 C 0.47697 0.5049 0.86279 0.0
C3130 C 0.46139 0.50094 0.87494 0.0
C3131 C 0.46499 0.5154 0.88788 0.0
C3132 C 0.44049 0.48294 0.87352 0.0
C3133 C 0.47368 0.48983 0.8486 0.0
C3134 C 0.42411 0.48609 0.8695 0.0
C3135 C 0.40407 0.46963 0.86907 0.0
C3136 C 0.3999 0.44958 0.87275 0.0
C3137 C 0.41642 0.44639 0.87648 0.0
C3138 C 0.43658 0.46297 0.87689 0.0
H3139 H 0.48643 0.49619 0.83908 0.0
H3140 H 0.47248 0.47574 0.85432 0.0
H3141 H 0.45907 0.4853 0.84172 0.0
H3142 H 0.42685 0.5014 0.86685 0.0
H3143 H 0.39183 0.47275 0.86605 0.0
loop_
_geom_bond_atom_site_label_1
_geom_bond_atom_site_label_2
_geom_bond_distance
_geom_bond_site_symmetry_2
_ccdc_geom_bond_type
Co0 O2 2.143 . S
Co0 O8 2.074 . S
Co0 O11 2.093 . S
Co0 O24 2.097 . S
Co0 N41 2.151 . S
Co0 N49 2.214 . S
Co1 O2 2.160 . S
Co1 O7 2.058 . S
Co1 O17 2.057 . S
Co1 O32 2.037 . S
Co1 N36 2.145 1_545 S
Co1 N57 2.257 . S
O2 Co0 2.143 . S
O2 Co1 2.160 . S
C3 O4 1.278 . S
C3 O11 1.224 . S
O4 C3 1.278 . S
C5 O6 1.245 . S
C5 O17 1.232 . S
O6 C5 1.245 . S
O7 Co1 2.058 . S
O7 C33 1.269 . S
O8 Co0 2.074 . S
O8 C33 1.257 . S
H9 C34 0.930 . S
H10 C40 0.930 . S
O11 Co0 2.093 . S
O11 C3 1.224 . S
H12 C44 0.929 . S
H13 C46 0.930 . S
H14 C47 0.930 . S
H15 C45 0.929 . S
H16 C48 0.928 . S
O17 Co1 2.057 . S
O17 C5 1.232 . S
H18 C37 0.929 . S
H19 C38 0.929 . S
H20 C50 0.931 . S
H21 C42 0.929 . S
H22 C51 0.930 . S
H23 C43 0.931 . S
O24 Co0 2.097 . S
O24 C52 1.214 . S
H25 C53 0.929 . S
H26 C54 0.929 . S
H27 C55 0.923 1_565 S
H28 C56 0.929 . S
H29 C58 0.930 . S
H30 C35 0.930 . S
H31 C39 0.930 . S
O32 Co1 2.037 . S
O32 C52 1.234 . S
C33 O7 1.269 . S
C33 O8 1.257 . S
C34 H9 0.930 . S
C34 C37 1.388 . S
C34 C39 1.418 . S
C35 H30 0.930 . S
C35 C38 1.404 . S
C35 C39 1.353 . S
N36 Co1 2.145 1_565 S
N36 C37 1.397 . S
N36 C38 1.334 . S
C37 H18 0.929 . S
C37 C34 1.388 . S
C37 N36 1.397 . S
C38 H19 0.929 . S
C38 C35 1.404 . S
C38 N36 1.334 . S
C39 H31 0.930 . S
C39 C34 1.418 . S
C39 C35 1.353 . S
C40 H10 0.930 . S
C40 N41 1.330 . S
C40 C42 1.446 . S
N41 Co0 2.151 . S
N41 C40 1.330 . S
N41 C45 1.418 . S
C42 H21 0.929 . S
C42 C40 1.446 . S
C42 C43 1.332 . S
C43 H23 0.931 . S
C43 C42 1.332 . S
C43 C44 1.267 . S
C44 H12 0.929 . S
C44 C43 1.267 . S
C44 C45 1.251 . S
C45 H15 0.929 . S
C45 N41 1.418 . S
C45 C44 1.251 . S
C46 H13 0.930 . S
C46 C48 1.406 . S
C46 C51 1.261 . S
C47 H14 0.930 . S
C47 N49 1.325 . S
C47 C50 1.357 . S
C48 H16 0.928 . S
C48 C46 1.406 . S
C48 N49 1.261 . S
N49 Co0 2.214 . S
N49 C47 1.325 . S
N49 C48 1.261 . S
C50 H20 0.931 . S
C50 C47 1.357 . S
C50 C51 1.312 . S
C51 H22 0.930 . S
C51 C46 1.261 . S
C51 C50 1.312 . S
C52 O24 1.214 . S
C52 O32 1.234 . S
C53 H25 0.929 . S
C53 C56 1.391 . S
C53 C58 1.391 . S
C54 H26 0.929 . S
C54 C55 1.390 . S
C54 N57 1.391 . S
C55 H27 0.923 1_545 S
C55 C54 1.390 . S
C55 C56 1.392 . S
C56 H28 0.929 . S
C56 C53 1.391 . S
C56 C55 1.392 . S
N57 Co1 2.257 . S
N57 C54 1.391 . S
N57 C58 1.388 . S
C58 H29 0.930 . S
C58 C53 1.391 . S
C58 N57 1.388 . S
Co59 O61 2.143 . S
Co59 O67 2.074 . S
Co59 O70 2.093 . S
Co59 O83 2.097 . S
Co59 N100 2.151 . S
Co59 N108 2.214 . S
Co60 O61 2.160 . S
Co60 O66 2.058 . S
Co60 O76 2.057 . S
Co60 O91 2.037 . S
Co60 N95 2.145 . S
Co60 N116 2.257 . S
O61 Co59 2.143 . S
O61 Co60 2.160 . S
C62 O63 1.278 . S
C62 O70 1.224 . S
O63 C62 1.278 . S
C64 O65 1.245 . S
C64 O76 1.232 . S
O65 C64 1.245 . S
O66 Co60 2.058 . S
O66 C92 1.269 . S
O67 Co59 2.074 . S
O67 C92 1.257 . S
H68 C93 0.930 . S
H69 C99 0.930 . S
O70 Co59 2.093 . S
O70 C62 1.224 . S
H71 C103 0.929 . S
H72 C105 0.930 . S
H73 C106 0.930 . S
H74 C104 0.929 . S
H75 C107 0.928 . S
O76 Co60 2.057 . S
O76 C64 1.232 . S
H77 C96 0.929 . S
H78 C97 0.929 . S
H79 C109 0.931 . S
H80 C101 0.929 . S
H81 C110 0.930 . S
H82 C102 0.931 . S
O83 Co59 2.097 . S
O83 C111 1.214 . S
H84 C112 0.929 . S
H85 C113 0.929 . S
H86 C114 0.930 . S
H87 C115 0.929 . S
H88 C117 0.930 . S
H89 C94 0.930 . S
H90 C98 0.930 . S
O91 Co60 2.037 . S
O91 C111 1.234 . S
C92 O66 1.269 . S
C92 O67 1.257 . S
C93 H68 0.930 . S
C93 C96 1.388 . S
C93 C98 1.418 . S
C94 H89 0.930 . S
C94 C97 1.404 . S
C94 C98 1.353 . S
N95 Co60 2.145 . S
N95 C96 1.397 . S
N95 C97 1.334 . S
C96 H77 0.929 . S
C96 C93 1.388 . S
C96 N95 1.397 . S
C97 H78 0.929 . S
C97 C94 1.404 . S
C97 N95 1.334 . S
C98 H90 0.930 . S
C98 C93 1.418 . S
C98 C94 1.353 . S
C99 H69 0.930 . S
C99 N100 1.330 . S
C99 C101 1.446 . S
N100 Co59 2.151 . S
N100 C99 1.330 . S
N100 C104 1.418 . S
C101 H80 0.929 . S
C101 C99 1.446 . S
C101 C102 1.332 . S
C102 H82 0.931 . S
C102 C101 1.332 . S
C102 C103 1.267 . S
C103 H71 0.929 . S
C103 C102 1.267 . S
C103 C104 1.251 . S
C104 H74 0.929 . S
C104 N100 1.418 . S
C104 C103 1.251 . S
C105 H72 0.930 . S
C105 C107 1.406 . S
C105 C110 1.261 . S
C106 H73 0.930 . S
C106 N108 1.325 . S
C106 C109 1.357 . S
C107 H75 0.928 . S
C107 C105 1.406 . S
C107 N108 1.261 . S
N108 Co59 2.214 . S
N108 C106 1.325 . S
N108 C107 1.261 . S
C109 H79 0.931 . S
C109 C106 1.357 . S
C109 C110 1.312 . S
C110 H81 0.930 . S
C110 C105 1.261 . S
C110 C109 1.312 . S
C111 O83 1.214 . S
C111 O91 1.234 . S
C112 H84 0.929 . S
C112 C115 1.391 . S
C112 C117 1.391 . S
C113 H85 0.929 . S
C113 C114 1.390 . S
C113 N116 1.391 . S
C114 H86 0.930 . S
C114 C113 1.390 . S
C114 C115 1.392 . S
C115 H87 0.929 . S
C115 C112 1.391 . S
C115 C114 1.392 . S
N116 Co60 2.257 . S
N116 C113 1.391 . S
N116 C117 1.388 . S
C117 H88 0.930 . S
C117 C112 1.391 . S
C117 N116 1.388 . S
Co118 O120 2.143 . S
Co118 O126 2.074 . S
Co118 O129 2.093 . S
Co118 O142 2.097 . S
Co118 N159 2.151 . S
Co118 N167 2.214 . S
Co119 O120 2.160 . S
Co119 O125 2.058 . S
Co119 O135 2.057 . S
Co119 O150 2.037 . S
Co119 N154 2.145 1_655 S
Co119 N175 2.257 . S
O120 Co118 2.143 . S
O120 Co119 2.160 . S
C121 O122 1.278 . S
C121 O129 1.224 . S
O122 C121 1.278 . S
C123 O124 1.245 . S
C123 O135 1.232 . S
O124 C123 1.245 . S
O125 Co119 2.058 . S
O125 C151 1.269 . S
O126 Co118 2.074 . S
O126 C151 1.257 . S
H127 C152 0.930 . S
H128 C158 0.930 . S
O129 Co118 2.093 . S
O129 C121 1.224 . S
H130 C162 0.929 . S
H131 C164 0.930 . S
H132 C165 0.930 . S
H133 C163 0.929 . S
H134 C166 0.928 . S
O135 Co119 2.057 . S
O135 C123 1.232 . S
H136 C155 0.929 . S
H137 C156 0.929 . S
H138 C168 0.931 . S
H139 C160 0.929 . S
H140 C169 0.930 . S
H141 C161 0.931 . S
O142 Co118 2.097 . S
O142 C170 1.214 . S
H143 C171 0.929 . S
H144 C172 0.929 . S
H145 C173 0.912 1_455 S
H146 C174 0.929 . S
H147 C176 0.930 . S
H148 C153 0.930 . S
H149 C157 0.930 . S
O150 Co119 2.037 . S
O150 C170 1.234 . S
C151 O125 1.269 . S
C151 O126 1.257 . S
C152 H127 0.930 . S
C152 C155 1.388 . S
C152 C157 1.418 . S
C153 H148 0.930 . S
C153 C156 1.404 . S
C153 C157 1.353 . S
N154 Co119 2.145 1_455 S
N154 C155 1.397 . S
N154 C156 1.334 . S
C155 H136 0.929 . S
C155 C152 1.388 . S
C155 N154 1.397 . S
C156 H137 0.929 . S
C156 C153 1.404 . S
C156 N154 1.334 . S
C157 H149 0.930 . S
C157 C152 1.418 . S
C157 C153 1.353 . S
C158 H128 0.930 . S
C158 N159 1.330 . S
C158 C160 1.446 . S
N159 Co118 2.151 . S
N159 C158 1.330 . S
N159 C163 1.418 . S
C160 H139 0.929 . S
C160 C158 1.446 . S
C160 C161 1.332 . S
C161 H141 0.931 . S
C161 C160 1.332 . S
C161 C162 1.267 . S
C162 H130 0.929 . S
C162 C161 1.267 . S
C162 C163 1.251 . S
C163 H133 0.929 . S
C163 N159 1.418 . S
C163 C162 1.251 . S
C164 H131 0.930 . S
C164 C166 1.406 . S
C164 C169 1.261 . S
C165 H132 0.930 . S
C165 N167 1.325 . S
C165 C168 1.357 . S
C166 H134 0.928 . S
C166 C164 1.406 . S
C166 N167 1.261 . S
N167 Co118 2.214 . S
N167 C165 1.325 . S
N167 C166 1.261 . S
C168 H138 0.931 . S
C168 C165 1.357 . S
C168 C169 1.312 . S
C169 H140 0.930 . S
C169 C164 1.261 . S
C169 C168 1.312 . S
C170 O142 1.214 . S
C170 O150 1.234 . S
C171 H143 0.929 . S
C171 C174 1.391 . S
C171 C176 1.391 . S
C172 H144 0.929 . S
C172 C173 1.390 . S
C172 N175 1.391 . S
C173 H145 0.912 1_655 S
C173 C172 1.390 . S
C173 C174 1.392 . S
C174 H146 0.929 . S
C174 C171 1.391 . S
C174 C173 1.392 . S
N175 Co119 2.257 . S
N175 C172 1.391 . S
N175 C176 1.388 . S
C176 H147 0.930 . S
C176 C171 1.391 . S
C176 N175 1.388 . S
Co177 O179 2.143 . S
Co177 O185 2.074 . S
Co177 O188 2.093 . S
Co177 O201 2.097 . S
Co177 N218 2.151 . S
Co177 N226 2.214 . S
Co178 O179 2.160 . S
Co178 O184 2.058 . S
Co178 O194 2.057 . S
Co178 O209 2.037 . S
Co178 N213 2.145 1_565 S
Co178 N234 2.257 . S
O179 Co177 2.143 . S
O179 Co178 2.160 . S
C180 O181 1.278 . S
C180 O188 1.224 . S
O181 C180 1.278 . S
C182 O183 1.245 . S
C182 O194 1.232 . S
O183 C182 1.245 . S
O184 Co178 2.058 . S
O184 C210 1.269 . S
O185 Co177 2.074 . S
O185 C210 1.257 . S
H186 C211 0.930 . S
H187 C217 0.930 . S
O188 Co177 2.093 . S
O188 C180 1.224 . S
H189 C221 0.929 . S
H190 C223 0.930 . S
H191 C224 0.930 . S
H192 C222 0.929 . S
H193 C225 0.928 . S
O194 Co178 2.057 . S
O194 C182 1.232 . S
H195 C214 0.929 . S
H196 C215 0.929 . S
H197 C227 0.931 . S
H198 C219 0.929 . S
H199 C228 0.930 . S
H200 C220 0.931 . S
O201 Co177 2.097 . S
O201 C229 1.214 . S
H202 C230 0.929 . S
H203 C231 0.929 . S
H204 C232 0.923 1_545 S
H205 C233 0.929 . S
H206 C235 0.930 . S
H207 C212 0.930 . S
H208 C216 0.930 . S
O209 Co178 2.037 . S
O209 C229 1.234 . S
C210 O184 1.269 . S
C210 O185 1.257 . S
C211 H186 0.930 . S
C211 C214 1.388 . S
C211 C216 1.418 . S
C212 H207 0.930 . S
C212 C215 1.404 . S
C212 C216 1.353 . S
N213 Co178 2.145 1_545 S
N213 C214 1.397 . S
N213 C215 1.334 . S
C214 H195 0.929 . S
C214 C211 1.388 . S
C214 N213 1.397 . S
C215 H196 0.929 . S
C215 C212 1.404 . S
C215 N213 1.334 . S
C216 H208 0.930 . S
C216 C211 1.418 . S
C216 C212 1.353 . S
C217 H187 0.930 . S
C217 N218 1.330 . S
C217 C219 1.446 . S
N218 Co177 2.151 . S
N218 C217 1.330 . S
N218 C222 1.418 . S
C219 H198 0.929 . S
C219 C217 1.446 . S
C219 C220 1.332 . S
C220 H200 0.931 . S
C220 C219 1.332 . S
C220 C221 1.267 . S
C221 H189 0.929 . S
C221 C220 1.267 . S
C221 C222 1.251 . S
C222 H192 0.929 . S
C222 N218 1.418 . S
C222 C221 1.251 . S
C223 H190 0.930 . S
C223 C225 1.406 . S
C223 C228 1.261 . S
C224 H191 0.930 . S
C224 N226 1.325 . S
C224 C227 1.357 . S
C225 H193 0.928 . S
C225 C223 1.406 . S
C225 N226 1.261 . S
N226 Co177 2.214 . S
N226 C224 1.325 . S
N226 C225 1.261 . S
C227 H197 0.931 . S
C227 C224 1.357 . S
C227 C228 1.312 . S
C228 H199 0.930 . S
C228 C223 1.261 . S
C228 C227 1.312 . S
C229 O201 1.214 . S
C229 O209 1.234 . S
C230 H202 0.929 . S
C230 C233 1.391 . S
C230 C235 1.391 . S
C231 H203 0.929 . S
C231 C232 1.390 . S
C231 N234 1.391 . S
C232 H204 0.923 1_565 S
C232 C231 1.390 . S
C232 C233 1.392 . S
C233 H205 0.929 . S
C233 C230 1.391 . S
C233 C232 1.392 . S
N234 Co178 2.257 . S
N234 C231 1.391 . S
N234 C235 1.388 . S
C235 H206 0.930 . S
C235 C230 1.391 . S
C235 N234 1.388 . S
Co236 O238 2.143 . S
Co236 O244 2.074 . S
Co236 O247 2.093 . S
Co236 O260 2.097 . S
Co236 N277 2.151 . S
Co236 N285 2.214 . S
Co237 O238 2.160 . S
Co237 O243 2.058 . S
Co237 O253 2.057 . S
Co237 O268 2.037 . S
Co237 N272 2.145 . S
Co237 N293 2.257 . S
O238 Co236 2.143 . S
O238 Co237 2.160 . S
C239 O240 1.278 . S
C239 O247 1.224 . S
O240 C239 1.278 . S
C241 O242 1.245 . S
C241 O253 1.232 . S
O242 C241 1.245 . S
O243 Co237 2.058 . S
O243 C269 1.269 . S
O244 Co236 2.074 . S
O244 C269 1.257 . S
H245 C270 0.930 . S
H246 C276 0.930 . S
O247 Co236 2.093 . S
O247 C239 1.224 . S
H248 C280 0.929 . S
H249 C282 0.930 . S
H250 C283 0.930 . S
H251 C281 0.929 . S
H252 C284 0.928 . S
O253 Co237 2.057 . S
O253 C241 1.232 . S
H254 C273 0.929 . S
H255 C274 0.929 . S
H256 C286 0.931 . S
H257 C278 0.929 . S
H258 C287 0.930 . S
H259 C279 0.931 . S
O260 Co236 2.097 . S
O260 C288 1.214 . S
H261 C289 0.929 . S
H262 C290 0.929 . S
H263 C291 0.930 . S
H264 C292 0.929 . S
H265 C294 0.930 . S
H266 C271 0.930 . S
H267 C275 0.930 . S
O268 Co237 2.037 . S
O268 C288 1.234 . S
C269 O243 1.269 . S
C269 O244 1.257 . S
C270 H245 0.930 . S
C270 C273 1.388 . S
C270 C275 1.418 . S
C271 H266 0.930 . S
C271 C274 1.404 . S
C271 C275 1.353 . S
N272 Co237 2.145 . S
N272 C273 1.397 . S
N272 C274 1.334 . S
C273 H254 0.929 . S
C273 C270 1.388 . S
C273 N272 1.397 . S
C274 H255 0.929 . S
C274 C271 1.404 . S
C274 N272 1.334 . S
C275 H267 0.930 . S
C275 C270 1.418 . S
C275 C271 1.353 . S
C276 H246 0.930 . S
C276 N277 1.330 . S
C276 C278 1.446 . S
N277 Co236 2.151 . S
N277 C276 1.330 . S
N277 C281 1.418 . S
C278 H257 0.929 . S
C278 C276 1.446 . S
C278 C279 1.332 . S
C279 H259 0.931 . S
C279 C278 1.332 . S
C279 C280 1.267 . S
C280 H248 0.929 . S
C280 C279 1.267 . S
C280 C281 1.251 . S
C281 H251 0.929 . S
C281 N277 1.418 . S
C281 C280 1.251 . S
C282 H249 0.930 . S
C282 C284 1.406 . S
C282 C287 1.261 . S
C283 H250 0.930 . S
C283 N285 1.325 . S
C283 C286 1.357 . S
C284 H252 0.928 . S
C284 C282 1.406 . S
C284 N285 1.261 . S
N285 Co236 2.214 . S
N285 C283 1.325 . S
N285 C284 1.261 . S
C286 H256 0.931 . S
C286 C283 1.357 . S
C286 C287 1.312 . S
C287 H258 0.930 . S
C287 C282 1.261 . S
C287 C286 1.312 . S
C288 O260 1.214 . S
C288 O268 1.234 . S
C289 H261 0.929 . S
C289 C292 1.391 . S
C289 C294 1.391 . S
C290 H262 0.929 . S
C290 C291 1.390 . S
C290 N293 1.391 . S
C291 H263 0.930 . S
C291 C290 1.390 . S
C291 C292 1.392 . S
C292 H264 0.929 . S
C292 C289 1.391 . S
C292 C291 1.392 . S
N293 Co237 2.257 . S
N293 C290 1.391 . S
N293 C294 1.388 . S
C294 H265 0.930 . S
C294 C289 1.391 . S
C294 N293 1.388 . S
Co295 O297 2.143 . S
Co295 O303 2.074 . S
Co295 O306 2.093 . S
Co295 O319 2.097 . S
Co295 N336 2.151 . S
Co295 N344 2.214 . S
Co296 O297 2.160 . S
Co296 O302 2.058 . S
Co296 O312 2.057 . S
Co296 O327 2.037 . S
Co296 N331 2.145 1_455 S
Co296 N352 2.257 . S
O297 Co295 2.143 . S
O297 Co296 2.160 . S
C298 O299 1.278 . S
C298 O306 1.224 . S
O299 C298 1.278 . S
C300 O301 1.245 . S
C300 O312 1.232 . S
O301 C300 1.245 . S
O302 Co296 2.058 . S
O302 C328 1.269 . S
O303 Co295 2.074 . S
O303 C328 1.257 . S
H304 C329 0.930 . S
H305 C335 0.930 . S
O306 Co295 2.093 . S
O306 C298 1.224 . S
H307 C339 0.929 . S
H308 C341 0.930 . S
H309 C342 0.930 . S
H310 C340 0.929 . S
H311 C343 0.928 . S
O312 Co296 2.057 . S
O312 C300 1.232 . S
H313 C332 0.929 . S
H314 C333 0.929 . S
H315 C345 0.931 . S
H316 C337 0.929 . S
H317 C346 0.930 . S
H318 C338 0.931 . S
O319 Co295 2.097 . S
O319 C347 1.214 . S
H320 C348 0.929 . S
H321 C349 0.929 . S
H322 C350 0.912 1_655 S
H323 C351 0.929 . S
H324 C353 0.930 . S
H325 C330 0.930 . S
H326 C334 0.930 . S
O327 Co296 2.037 . S
O327 C347 1.234 . S
C328 O302 1.269 . S
C328 O303 1.257 . S
C329 H304 0.930 . S
C329 C332 1.388 . S
C329 C334 1.418 . S
C330 H325 0.930 . S
C330 C333 1.404 . S
C330 C334 1.353 . S
N331 Co296 2.145 1_655 S
N331 C332 1.397 . S
N331 C333 1.334 . S
C332 H313 0.929 . S
C332 C329 1.388 . S
C332 N331 1.397 . S
C333 H314 0.929 . S
C333 C330 1.404 . S
C333 N331 1.334 . S
C334 H326 0.930 . S
C334 C329 1.418 . S
C334 C330 1.353 . S
C335 H305 0.930 . S
C335 N336 1.330 . S
C335 C337 1.446 . S
N336 Co295 2.151 . S
N336 C335 1.330 . S
N336 C340 1.418 . S
C337 H316 0.929 . S
C337 C335 1.446 . S
C337 C338 1.332 . S
C338 H318 0.931 . S
C338 C337 1.332 . S
C338 C339 1.267 . S
C339 H307 0.929 . S
C339 C338 1.267 . S
C339 C340 1.251 . S
C340 H310 0.929 . S
C340 N336 1.418 . S
C340 C339 1.251 . S
C341 H308 0.930 . S
C341 C343 1.406 . S
C341 C346 1.261 . S
C342 H309 0.930 . S
C342 N344 1.325 . S
C342 C345 1.357 . S
C343 H311 0.928 . S
C343 C341 1.406 . S
C343 N344 1.261 . S
N344 Co295 2.214 . S
N344 C342 1.325 . S
N344 C343 1.261 . S
C345 H315 0.931 . S
C345 C342 1.357 . S
C345 C346 1.312 . S
C346 H317 0.930 . S
C346 C341 1.261 . S
C346 C345 1.312 . S
C347 O319 1.214 . S
C347 O327 1.234 . S
C348 H320 0.929 . S
C348 C351 1.391 . S
C348 C353 1.391 . S
C349 H321 0.929 . S
C349 C350 1.390 . S
C349 N352 1.391 . S
C350 H322 0.912 1_455 S
C350 C349 1.390 . S
C350 C351 1.392 . S
C351 H323 0.929 . S
C351 C348 1.391 . S
C351 C350 1.392 . S
N352 Co296 2.257 . S
N352 C349 1.391 . S
N352 C353 1.388 . S
C353 H324 0.930 . S
C353 C348 1.391 . S
C353 N352 1.388 . S
Co354 O356 2.143 . S
Co354 O362 2.074 . S
Co354 O365 2.093 . S
Co354 O378 2.097 . S
Co354 N395 2.151 . S
Co354 N403 2.214 . S
Co355 O356 2.160 . S
Co355 O361 2.058 . S
Co355 O371 2.057 . S
Co355 O386 2.037 . S
Co355 N390 2.145 1_655 S
Co355 N411 2.257 . S
O356 Co354 2.143 . S
O356 Co355 2.160 . S
C357 O358 1.278 . S
C357 O365 1.224 . S
O358 C357 1.278 . S
C359 O360 1.245 . S
C359 O371 1.232 . S
O360 C359 1.245 . S
O361 Co355 2.058 . S
O361 C387 1.269 . S
O362 Co354 2.074 . S
O362 C387 1.257 . S
H363 C388 0.930 . S
H364 C394 0.930 . S
O365 Co354 2.093 . S
O365 C357 1.224 . S
H366 C398 0.929 . S
H367 C400 0.930 . S
H368 C401 0.930 . S
H369 C399 0.929 . S
H370 C402 0.928 . S
O371 Co355 2.057 . S
O371 C359 1.232 . S
H372 C391 0.929 . S
H373 C392 0.929 . S
H374 C404 0.931 . S
H375 C396 0.929 . S
H376 C405 0.930 . S
H377 C397 0.931 . S
O378 Co354 2.097 . S
O378 C406 1.214 . S
H379 C407 0.929 . S
H380 C408 0.929 . S
H381 C409 0.923 1_455 S
H382 C410 0.929 . S
H383 C412 0.930 . S
H384 C389 0.930 . S
H385 C393 0.930 . S
O386 Co355 2.037 . S
O386 C406 1.234 . S
C387 O361 1.269 . S
C387 O362 1.257 . S
C388 H363 0.930 . S
C388 C391 1.388 . S
C388 C393 1.418 . S
C389 H384 0.930 . S
C389 C392 1.404 . S
C389 C393 1.353 . S
N390 Co355 2.145 1_455 S
N390 C391 1.397 . S
N390 C392 1.334 . S
C391 H372 0.929 . S
C391 C388 1.388 . S
C391 N390 1.397 . S
C392 H373 0.929 . S
C392 C389 1.404 . S
C392 N390 1.334 . S
C393 H385 0.930 . S
C393 C388 1.418 . S
C393 C389 1.353 . S
C394 H364 0.930 . S
C394 N395 1.330 . S
C394 C396 1.446 . S
N395 Co354 2.151 . S
N395 C394 1.330 . S
N395 C399 1.418 . S
C396 H375 0.929 . S
C396 C394 1.446 . S
C396 C397 1.332 . S
C397 H377 0.931 . S
C397 C396 1.332 . S
C397 C398 1.267 . S
C398 H366 0.929 . S
C398 C397 1.267 . S
C398 C399 1.251 . S
C399 H369 0.929 . S
C399 N395 1.418 . S
C399 C398 1.251 . S
C400 H367 0.930 . S
C400 C402 1.406 . S
C400 C405 1.261 . S
C401 H368 0.930 . S
C401 N403 1.325 . S
C401 C404 1.357 . S
C402 H370 0.928 . S
C402 C400 1.406 . S
C402 N403 1.261 . S
N403 Co354 2.214 . S
N403 C401 1.325 . S
N403 C402 1.261 . S
C404 H374 0.931 . S
C404 C401 1.357 . S
C404 C405 1.312 . S
C405 H376 0.930 . S
C405 C400 1.261 . S
C405 C404 1.312 . S
C406 O378 1.214 . S
C406 O386 1.234 . S
C407 H379 0.929 . S
C407 C410 1.391 . S
C407 C412 1.391 . S
C408 H380 0.929 . S
C408 C409 1.390 . S
C408 N411 1.391 . S
C409 H381 0.923 1_655 S
C409 C408 1.390 . S
C409 C410 1.392 . S
C410 H382 0.929 . S
C410 C407 1.391 . S
C410 C409 1.392 . S
N411 Co355 2.257 . S
N411 C408 1.391 . S
N411 C412 1.388 . S
C412 H383 0.930 . S
C412 C407 1.391 . S
C412 N411 1.388 . S
Co413 O415 2.143 . S
Co413 O421 2.074 . S
Co413 O424 2.093 . S
Co413 O437 2.097 . S
Co413 N454 2.151 . S
Co413 N462 2.214 . S
Co414 O415 2.160 . S
Co414 O420 2.058 . S
Co414 O430 2.057 . S
Co414 O445 2.037 . S
Co414 N449 2.145 1_565 S
Co414 N470 2.257 . S
O415 Co413 2.143 . S
O415 Co414 2.160 . S
C416 O417 1.278 . S
C416 O424 1.224 . S
O417 C416 1.278 . S
C418 O419 1.245 . S
C418 O430 1.232 . S
O419 C418 1.245 . S
O420 Co414 2.058 . S
O420 C446 1.269 . S
O421 Co413 2.074 . S
O421 C446 1.257 . S
H422 C447 0.930 . S
H423 C453 0.930 . S
O424 Co413 2.093 . S
O424 C416 1.224 . S
H425 C457 0.929 . S
H426 C459 0.930 . S
H427 C460 0.930 . S
H428 C458 0.929 . S
H429 C461 0.928 . S
O430 Co414 2.057 . S
O430 C418 1.232 . S
H431 C450 0.929 . S
H432 C451 0.929 . S
H433 C463 0.931 . S
H434 C455 0.929 . S
H435 C464 0.930 . S
H436 C456 0.931 . S
O437 Co413 2.097 . S
O437 C465 1.214 . S
H438 C466 0.929 . S
H439 C467 0.929 . S
H440 C468 0.912 1_545 S
H441 C469 0.929 . S
H442 C471 0.930 . S
H443 C448 0.930 . S
H444 C452 0.930 . S
O445 Co414 2.037 . S
O445 C465 1.234 . S
C446 O420 1.269 . S
C446 O421 1.257 . S
C447 H422 0.930 . S
C447 C450 1.388 . S
C447 C452 1.418 . S
C448 H443 0.930 . S
C448 C451 1.404 . S
C448 C452 1.353 . S
N449 Co414 2.145 1_545 S
N449 C450 1.397 . S
N449 C451 1.334 . S
C450 H431 0.929 . S
C450 C447 1.388 . S
C450 N449 1.397 . S
C451 H432 0.929 . S
C451 C448 1.404 . S
C451 N449 1.334 . S
C452 H444 0.930 . S
C452 C447 1.418 . S
C452 C448 1.353 . S
C453 H423 0.930 . S
C453 N454 1.330 . S
C453 C455 1.446 . S
N454 Co413 2.151 . S
N454 C453 1.330 . S
N454 C458 1.418 . S
C455 H434 0.929 . S
C455 C453 1.446 . S
C455 C456 1.332 . S
C456 H436 0.931 . S
C456 C455 1.332 . S
C456 C457 1.267 . S
C457 H425 0.929 . S
C457 C456 1.267 . S
C457 C458 1.251 . S
C458 H428 0.929 . S
C458 N454 1.418 . S
C458 C457 1.251 . S
C459 H426 0.930 . S
C459 C461 1.406 . S
C459 C464 1.261 . S
C460 H427 0.930 . S
C460 N462 1.325 . S
C460 C463 1.357 . S
C461 H429 0.928 . S
C461 C459 1.406 . S
C461 N462 1.261 . S
N462 Co413 2.214 . S
N462 C460 1.325 . S
N462 C461 1.261 . S
C463 H433 0.931 . S
C463 C460 1.357 . S
C463 C464 1.312 . S
C464 H435 0.930 . S
C464 C459 1.261 . S
C464 C463 1.312 . S
C465 O437 1.214 . S
C465 O445 1.234 . S
C466 H438 0.929 . S
C466 C469 1.391 . S
C466 C471 1.391 . S
C467 H439 0.929 . S
C467 C468 1.390 . S
C467 N470 1.391 . S
C468 H440 0.912 1_565 S
C468 C467 1.390 . S
C468 C469 1.392 . S
C469 H441 0.929 . S
C469 C466 1.391 . S
C469 C468 1.392 . S
N470 Co414 2.257 . S
N470 C467 1.391 . S
N470 C471 1.388 . S
C471 H442 0.930 . S
C471 C466 1.391 . S
C471 N470 1.388 . S
Co472 O474 2.143 . S
Co472 O480 2.074 . S
Co472 O483 2.093 . S
Co472 O496 2.097 . S
Co472 N513 2.151 . S
Co472 N521 2.214 . S
Co473 O474 2.160 . S
Co473 O479 2.058 . S
Co473 O489 2.057 . S
Co473 O504 2.037 . S
Co473 N508 2.145 . S
Co473 N529 2.257 . S
O474 Co472 2.143 . S
O474 Co473 2.160 . S
C475 O476 1.278 . S
C475 O483 1.224 . S
O476 C475 1.278 . S
C477 O478 1.245 . S
C477 O489 1.232 . S
O478 C477 1.245 . S
O479 Co473 2.058 . S
O479 C505 1.269 . S
O480 Co472 2.074 . S
O480 C505 1.257 . S
H481 C506 0.930 . S
H482 C512 0.930 . S
O483 Co472 2.093 . S
O483 C475 1.224 . S
H484 C516 0.929 . S
H485 C518 0.930 . S
H486 C519 0.930 . S
H487 C517 0.929 . S
H488 C520 0.928 . S
O489 Co473 2.057 . S
O489 C477 1.232 . S
H490 C509 0.929 . S
H491 C510 0.929 . S
H492 C522 0.931 . S
H493 C514 0.929 . S
H494 C523 0.930 . S
H495 C515 0.931 . S
O496 Co472 2.097 . S
O496 C524 1.214 . S
H497 C525 0.929 . S
H498 C526 0.929 . S
H499 C527 0.930 . S
H500 C528 0.929 . S
H501 C530 0.930 . S
H502 C507 0.930 . S
H503 C511 0.930 . S
O504 Co473 2.037 . S
O504 C524 1.234 . S
C505 O479 1.269 . S
C505 O480 1.257 . S
C506 H481 0.930 . S
C506 C509 1.388 . S
C506 C511 1.418 . S
C507 H502 0.930 . S
C507 C510 1.404 . S
C507 C511 1.353 . S
N508 Co473 2.145 . S
N508 C509 1.397 . S
N508 C510 1.334 . S
C509 H490 0.929 . S
C509 C506 1.388 . S
C509 N508 1.397 . S
C510 H491 0.929 . S
C510 C507 1.404 . S
C510 N508 1.334 . S
C511 H503 0.930 . S
C511 C506 1.418 . S
C511 C507 1.353 . S
C512 H482 0.930 . S
C512 N513 1.330 . S
C512 C514 1.446 . S
N513 Co472 2.151 . S
N513 C512 1.330 . S
N513 C517 1.418 . S
C514 H493 0.929 . S
C514 C512 1.446 . S
C514 C515 1.332 . S
C515 H495 0.931 . S
C515 C514 1.332 . S
C515 C516 1.267 . S
C516 H484 0.929 . S
C516 C515 1.267 . S
C516 C517 1.251 . S
C517 H487 0.929 . S
C517 N513 1.418 . S
C517 C516 1.251 . S
C518 H485 0.930 . S
C518 C520 1.406 . S
C518 C523 1.261 . S
C519 H486 0.930 . S
C519 N521 1.325 . S
C519 C522 1.357 . S
C520 H488 0.928 . S
C520 C518 1.406 . S
C520 N521 1.261 . S
N521 Co472 2.214 . S
N521 C519 1.325 . S
N521 C520 1.261 . S
C522 H492 0.931 . S
C522 C519 1.357 . S
C522 C523 1.312 . S
C523 H494 0.930 . S
C523 C518 1.261 . S
C523 C522 1.312 . S
C524 O496 1.214 . S
C524 O504 1.234 . S
C525 H497 0.929 . S
C525 C528 1.391 . S
C525 C530 1.391 . S
C526 H498 0.929 . S
C526 C527 1.390 . S
C526 N529 1.391 . S
C527 H499 0.930 . S
C527 C526 1.390 . S
C527 C528 1.392 . S
C528 H500 0.929 . S
C528 C525 1.391 . S
C528 C527 1.392 . S
N529 Co473 2.257 . S
N529 C526 1.391 . S
N529 C530 1.388 . S
C530 H501 0.930 . S
C530 C525 1.391 . S
C530 N529 1.388 . S
Co531 O533 2.143 . S
Co531 O539 2.074 . S
Co531 O542 2.093 . S
Co531 O555 2.097 . S
Co531 N572 2.151 . S
Co531 N580 2.214 . S
Co532 O533 2.160 . S
Co532 O538 2.058 . S
Co532 O548 2.057 . S
Co532 O563 2.037 . S
Co532 N567 2.145 1_455 S
Co532 N588 2.257 . S
O533 Co531 2.143 . S
O533 Co532 2.160 . S
C534 O535 1.278 . S
C534 O542 1.224 . S
O535 C534 1.278 . S
C536 O537 1.245 . S
C536 O548 1.232 . S
O537 C536 1.245 . S
O538 Co532 2.058 . S
O538 C564 1.269 . S
O539 Co531 2.074 . S
O539 C564 1.257 . S
H540 C565 0.930 . S
H541 C571 0.930 . S
O542 Co531 2.093 . S
O542 C534 1.224 . S
H543 C575 0.929 . S
H544 C577 0.930 . S
H545 C578 0.930 . S
H546 C576 0.929 . S
H547 C579 0.928 . S
O548 Co532 2.057 . S
O548 C536 1.232 . S
H549 C568 0.929 . S
H550 C569 0.929 . S
H551 C581 0.931 . S
H552 C573 0.929 . S
H553 C582 0.930 . S
H554 C574 0.931 . S
O555 Co531 2.097 . S
O555 C583 1.214 . S
H556 C584 0.929 . S
H557 C585 0.929 . S
H558 C586 0.923 1_655 S
H559 C587 0.929 . S
H560 C589 0.930 . S
H561 C566 0.930 . S
H562 C570 0.930 . S
O563 Co532 2.037 . S
O563 C583 1.234 . S
C564 O538 1.269 . S
C564 O539 1.257 . S
C565 H540 0.930 . S
C565 C568 1.388 . S
C565 C570 1.418 . S
C566 H561 0.930 . S
C566 C569 1.404 . S
C566 C570 1.353 . S
N567 Co532 2.145 1_655 S
N567 C568 1.397 . S
N567 C569 1.334 . S
C568 H549 0.929 . S
C568 C565 1.388 . S
C568 N567 1.397 . S
C569 H550 0.929 . S
C569 C566 1.404 . S
C569 N567 1.334 . S
C570 H562 0.930 . S
C570 C565 1.418 . S
C570 C566 1.353 . S
C571 H541 0.930 . S
C571 N572 1.330 . S
C571 C573 1.446 . S
N572 Co531 2.151 . S
N572 C571 1.330 . S
N572 C576 1.418 . S
C573 H552 0.929 . S
C573 C571 1.446 . S
C573 C574 1.332 . S
C574 H554 0.931 . S
C574 C573 1.332 . S
C574 C575 1.267 . S
C575 H543 0.929 . S
C575 C574 1.267 . S
C575 C576 1.251 . S
C576 H546 0.929 . S
C576 N572 1.418 . S
C576 C575 1.251 . S
C577 H544 0.930 . S
C577 C579 1.406 . S
C577 C582 1.261 . S
C578 H545 0.930 . S
C578 N580 1.325 . S
C578 C581 1.357 . S
C579 H547 0.928 . S
C579 C577 1.406 . S
C579 N580 1.261 . S
N580 Co531 2.214 . S
N580 C578 1.325 . S
N580 C579 1.261 . S
C581 H551 0.931 . S
C581 C578 1.357 . S
C581 C582 1.312 . S
C582 H553 0.930 . S
C582 C577 1.261 . S
C582 C581 1.312 . S
C583 O555 1.214 . S
C583 O563 1.234 . S
C584 H556 0.929 . S
C584 C587 1.391 . S
C584 C589 1.391 . S
C585 H557 0.929 . S
C585 C586 1.390 . S
C585 N588 1.391 . S
C586 H558 0.923 1_455 S
C586 C585 1.390 . S
C586 C587 1.392 . S
C587 H559 0.929 . S
C587 C584 1.391 . S
C587 C586 1.392 . S
N588 Co532 2.257 . S
N588 C585 1.391 . S
N588 C589 1.388 . S
C589 H560 0.930 . S
C589 C584 1.391 . S
C589 N588 1.388 . S
Co590 O592 2.143 . S
Co590 O598 2.074 . S
Co590 O601 2.093 . S
Co590 O614 2.097 . S
Co590 N631 2.151 . S
Co590 N639 2.214 . S
Co591 O592 2.160 . S
Co591 O597 2.058 . S
Co591 O607 2.057 . S
Co591 O622 2.037 . S
Co591 N626 2.145 1_545 S
Co591 N647 2.257 . S
O592 Co590 2.143 . S
O592 Co591 2.160 . S
C593 O594 1.278 . S
C593 O601 1.224 . S
O594 C593 1.278 . S
C595 O596 1.245 . S
C595 O607 1.232 . S
O596 C595 1.245 . S
O597 Co591 2.058 . S
O597 C623 1.269 . S
O598 Co590 2.074 . S
O598 C623 1.257 . S
H599 C624 0.930 . S
H600 C630 0.930 . S
O601 Co590 2.093 . S
O601 C593 1.224 . S
H602 C634 0.929 . S
H603 C636 0.930 . S
H604 C637 0.930 . S
H605 C635 0.929 . S
H606 C638 0.928 . S
O607 Co591 2.057 . S
O607 C595 1.232 . S
H608 C627 0.929 . S
H609 C628 0.929 . S
H610 C640 0.931 . S
H611 C632 0.929 . S
H612 C641 0.930 . S
H613 C633 0.931 . S
O614 Co590 2.097 . S
O614 C642 1.214 . S
H615 C643 0.929 . S
H616 C644 0.929 . S
H617 C645 0.912 1_565 S
H618 C646 0.929 . S
H619 C648 0.930 . S
H620 C625 0.930 . S
H621 C629 0.930 . S
O622 Co591 2.037 . S
O622 C642 1.234 . S
C623 O597 1.269 . S
C623 O598 1.257 . S
C624 H599 0.930 . S
C624 C627 1.388 . S
C624 C629 1.418 . S
C625 H620 0.930 . S
C625 C628 1.404 . S
C625 C629 1.353 . S
N626 Co591 2.145 1_565 S
N626 C627 1.397 . S
N626 C628 1.334 . S
C627 H608 0.929 . S
C627 C624 1.388 . S
C627 N626 1.397 . S
C628 H609 0.929 . S
C628 C625 1.404 . S
C628 N626 1.334 . S
C629 H621 0.930 . S
C629 C624 1.418 . S
C629 C625 1.353 . S
C630 H600 0.930 . S
C630 N631 1.330 . S
C630 C632 1.446 . S
N631 Co590 2.151 . S
N631 C630 1.330 . S
N631 C635 1.418 . S
C632 H611 0.929 . S
C632 C630 1.446 . S
C632 C633 1.332 . S
C633 H613 0.931 . S
C633 C632 1.332 . S
C633 C634 1.267 . S
C634 H602 0.929 . S
C634 C633 1.267 . S
C634 C635 1.251 . S
C635 H605 0.929 . S
C635 N631 1.418 . S
C635 C634 1.251 . S
C636 H603 0.930 . S
C636 C638 1.406 . S
C636 C641 1.261 . S
C637 H604 0.930 . S
C637 N639 1.325 . S
C637 C640 1.357 . S
C638 H606 0.928 . S
C638 C636 1.406 . S
C638 N639 1.261 . S
N639 Co590 2.214 . S
N639 C637 1.325 . S
N639 C638 1.261 . S
C640 H610 0.931 . S
C640 C637 1.357 . S
C640 C641 1.312 . S
C641 H612 0.930 . S
C641 C636 1.261 . S
C641 C640 1.312 . S
C642 O614 1.214 . S
C642 O622 1.234 . S
C643 H615 0.929 . S
C643 C646 1.391 . S
C643 C648 1.391 . S
C644 H616 0.929 . S
C644 C645 1.390 . S
C644 N647 1.391 . S
C645 H617 0.912 1_545 S
C645 C644 1.390 . S
C645 C646 1.392 . S
C646 H618 0.929 . S
C646 C643 1.391 . S
C646 C645 1.392 . S
N647 Co591 2.257 . S
N647 C644 1.391 . S
N647 C648 1.388 . S
C648 H619 0.930 . S
C648 C643 1.391 . S
C648 N647 1.388 . S
Co649 O651 2.143 . S
Co649 O657 2.074 . S
Co649 O660 2.093 . S
Co649 O673 2.097 . S
Co649 N690 2.151 . S
Co649 N698 2.214 . S
Co650 O651 2.160 . S
Co650 O656 2.058 . S
Co650 O666 2.057 . S
Co650 O681 2.037 . S
Co650 N685 2.145 . S
Co650 N706 2.257 . S
O651 Co649 2.143 . S
O651 Co650 2.160 . S
C652 O653 1.278 . S
C652 O660 1.224 . S
O653 C652 1.278 . S
C654 O655 1.245 . S
C654 O666 1.232 . S
O655 C654 1.245 . S
O656 Co650 2.058 . S
O656 C682 1.269 . S
O657 Co649 2.074 . S
O657 C682 1.257 . S
H658 C683 0.930 . S
H659 C689 0.930 . S
O660 Co649 2.093 . S
O660 C652 1.224 . S
H661 C693 0.929 . S
H662 C695 0.930 . S
H663 C696 0.930 . S
H664 C694 0.929 . S
H665 C697 0.928 . S
O666 Co650 2.057 . S
O666 C654 1.232 . S
H667 C686 0.929 . S
H668 C687 0.929 . S
H669 C699 0.931 . S
H670 C691 0.929 . S
H671 C700 0.930 . S
H672 C692 0.931 . S
O673 Co649 2.097 . S
O673 C701 1.214 . S
H674 C702 0.929 . S
H675 C703 0.929 . S
H676 C704 0.930 . S
H677 C705 0.929 . S
H678 C707 0.930 . S
H679 C684 0.930 . S
H680 C688 0.930 . S
O681 Co650 2.037 . S
O681 C701 1.234 . S
C682 O656 1.269 . S
C682 O657 1.257 . S
C683 H658 0.930 . S
C683 C686 1.388 . S
C683 C688 1.418 . S
C684 H679 0.930 . S
C684 C687 1.404 . S
C684 C688 1.353 . S
N685 Co650 2.145 . S
N685 C686 1.397 . S
N685 C687 1.334 . S
C686 H667 0.929 . S
C686 C683 1.388 . S
C686 N685 1.397 . S
C687 H668 0.929 . S
C687 C684 1.404 . S
C687 N685 1.334 . S
C688 H680 0.930 . S
C688 C683 1.418 . S
C688 C684 1.353 . S
C689 H659 0.930 . S
C689 N690 1.330 . S
C689 C691 1.446 . S
N690 Co649 2.151 . S
N690 C689 1.330 . S
N690 C694 1.418 . S
C691 H670 0.929 . S
C691 C689 1.446 . S
C691 C692 1.332 . S
C692 H672 0.931 . S
C692 C691 1.332 . S
C692 C693 1.267 . S
C693 H661 0.929 . S
C693 C692 1.267 . S
C693 C694 1.251 . S
C694 H664 0.929 . S
C694 N690 1.418 . S
C694 C693 1.251 . S
C695 H662 0.930 . S
C695 C697 1.406 . S
C695 C700 1.261 . S
C696 H663 0.930 . S
C696 N698 1.325 . S
C696 C699 1.357 . S
C697 H665 0.928 . S
C697 C695 1.406 . S
C697 N698 1.261 . S
N698 Co649 2.214 . S
N698 C696 1.325 . S
N698 C697 1.261 . S
C699 H669 0.931 . S
C699 C696 1.357 . S
C699 C700 1.312 . S
C700 H671 0.930 . S
C700 C695 1.261 . S
C700 C699 1.312 . S
C701 O673 1.214 . S
C701 O681 1.234 . S
C702 H674 0.929 . S
C702 C705 1.391 . S
C702 C707 1.391 . S
C703 H675 0.929 . S
C703 C704 1.390 . S
C703 N706 1.391 . S
C704 H676 0.930 . S
C704 C703 1.390 . S
C704 C705 1.392 . S
C705 H677 0.929 . S
C705 C702 1.391 . S
C705 C704 1.392 . S
N706 Co650 2.257 . S
N706 C703 1.391 . S
N706 C707 1.388 . S
C707 H678 0.930 . S
C707 C702 1.391 . S
C707 N706 1.388 . S
Co708 O710 2.143 . S
Co708 O716 2.074 . S
Co708 O719 2.093 . S
Co708 O732 2.097 . S
Co708 N749 2.151 . S
Co708 N757 2.214 . S
Co709 O710 2.160 . S
Co709 O715 2.058 . S
Co709 O725 2.057 . S
Co709 O740 2.037 . S
Co709 N744 2.145 1_565 S
Co709 N765 2.257 . S
O710 Co708 2.143 . S
O710 Co709 2.160 . S
C711 O712 1.278 . S
C711 O719 1.224 . S
O712 C711 1.278 . S
C713 O714 1.245 . S
C713 O725 1.232 . S
O714 C713 1.245 . S
O715 Co709 2.058 . S
O715 C741 1.269 . S
O716 Co708 2.074 . S
O716 C741 1.257 . S
H717 C742 0.930 . S
H718 C748 0.930 . S
O719 Co708 2.093 . S
O719 C711 1.224 . S
H720 C752 0.929 . S
H721 C754 0.930 . S
H722 C755 0.930 . S
H723 C753 0.929 . S
H724 C756 0.928 . S
O725 Co709 2.057 . S
O725 C713 1.232 . S
H726 C745 0.929 . S
H727 C746 0.929 . S
H728 C758 0.931 . S
H729 C750 0.929 . S
H730 C759 0.930 . S
H731 C751 0.931 . S
O732 Co708 2.097 . S
O732 C760 1.214 . S
H733 C761 0.929 . S
H734 C762 0.929 . S
H735 C763 0.923 1_545 S
H736 C764 0.929 . S
H737 C766 0.930 . S
H738 C743 0.930 . S
H739 C747 0.930 . S
O740 Co709 2.037 . S
O740 C760 1.234 . S
C741 O715 1.269 . S
C741 O716 1.257 . S
C742 H717 0.930 . S
C742 C745 1.388 . S
C742 C747 1.418 . S
C743 H738 0.930 . S
C743 C746 1.404 . S
C743 C747 1.353 . S
N744 Co709 2.145 1_545 S
N744 C745 1.397 . S
N744 C746 1.334 . S
C745 H726 0.929 . S
C745 C742 1.388 . S
C745 N744 1.397 . S
C746 H727 0.929 . S
C746 C743 1.404 . S
C746 N744 1.334 . S
C747 H739 0.930 . S
C747 C742 1.418 . S
C747 C743 1.353 . S
C748 H718 0.930 . S
C748 N749 1.330 . S
C748 C750 1.446 . S
N749 Co708 2.151 . S
N749 C748 1.330 . S
N749 C753 1.418 . S
C750 H729 0.929 . S
C750 C748 1.446 . S
C750 C751 1.332 . S
C751 H731 0.931 . S
C751 C750 1.332 . S
C751 C752 1.267 . S
C752 H720 0.929 . S
C752 C751 1.267 . S
C752 C753 1.251 . S
C753 H723 0.929 . S
C753 N749 1.418 . S
C753 C752 1.251 . S
C754 H721 0.930 . S
C754 C756 1.406 . S
C754 C759 1.261 . S
C755 H722 0.930 . S
C755 N757 1.325 . S
C755 C758 1.357 . S
C756 H724 0.928 . S
C756 C754 1.406 . S
C756 N757 1.261 . S
N757 Co708 2.214 . S
N757 C755 1.325 . S
N757 C756 1.261 . S
C758 H728 0.931 . S
C758 C755 1.357 . S
C758 C759 1.312 . S
C759 H730 0.930 . S
C759 C754 1.261 . S
C759 C758 1.312 . S
C760 O732 1.214 . S
C760 O740 1.234 . S
C761 H733 0.929 . S
C761 C764 1.391 . S
C761 C766 1.391 . S
C762 H734 0.929 . S
C762 C763 1.390 . S
C762 N765 1.391 . S
C763 H735 0.923 1_565 S
C763 C762 1.390 . S
C763 C764 1.392 . S
C764 H736 0.929 . S
C764 C761 1.391 . S
C764 C763 1.392 . S
N765 Co709 2.257 . S
N765 C762 1.391 . S
N765 C766 1.388 . S
C766 H737 0.930 . S
C766 C761 1.391 . S
C766 N765 1.388 . S
Co767 O769 2.143 . S
Co767 O775 2.074 . S
Co767 O778 2.093 . S
Co767 O791 2.097 . S
Co767 N808 2.151 . S
Co767 N816 2.214 . S
Co768 O769 2.160 . S
Co768 O774 2.058 . S
Co768 O784 2.057 . S
Co768 O799 2.037 . S
Co768 N803 2.145 . S
Co768 N824 2.257 . S
O769 Co767 2.143 . S
O769 Co768 2.160 . S
C770 O771 1.278 . S
C770 O778 1.224 . S
O771 C770 1.278 . S
C772 O773 1.245 . S
C772 O784 1.232 . S
O773 C772 1.245 . S
O774 Co768 2.058 . S
O774 C800 1.269 . S
O775 Co767 2.074 . S
O775 C800 1.257 . S
H776 C801 0.930 . S
H777 C807 0.930 . S
O778 Co767 2.093 . S
O778 C770 1.224 . S
H779 C811 0.929 . S
H780 C813 0.930 . S
H781 C814 0.930 . S
H782 C812 0.929 . S
H783 C815 0.928 . S
O784 Co768 2.057 . S
O784 C772 1.232 . S
H785 C804 0.929 . S
H786 C805 0.929 . S
H787 C817 0.931 . S
H788 C809 0.929 . S
H789 C818 0.930 . S
H790 C810 0.931 . S
O791 Co767 2.097 . S
O791 C819 1.214 . S
H792 C820 0.929 . S
H793 C821 0.929 . S
H794 C822 0.930 . S
H795 C823 0.929 . S
H796 C825 0.930 . S
H797 C802 0.930 . S
H798 C806 0.930 . S
O799 Co768 2.037 . S
O799 C819 1.234 . S
C800 O774 1.269 . S
C800 O775 1.257 . S
C801 H776 0.930 . S
C801 C804 1.388 . S
C801 C806 1.418 . S
C802 H797 0.930 . S
C802 C805 1.404 . S
C802 C806 1.353 . S
N803 Co768 2.145 . S
N803 C804 1.397 . S
N803 C805 1.334 . S
C804 H785 0.929 . S
C804 C801 1.388 . S
C804 N803 1.397 . S
C805 H786 0.929 . S
C805 C802 1.404 . S
C805 N803 1.334 . S
C806 H798 0.930 . S
C806 C801 1.418 . S
C806 C802 1.353 . S
C807 H777 0.930 . S
C807 N808 1.330 . S
C807 C809 1.446 . S
N808 Co767 2.151 . S
N808 C807 1.330 . S
N808 C812 1.418 . S
C809 H788 0.929 . S
C809 C807 1.446 . S
C809 C810 1.332 . S
C810 H790 0.931 . S
C810 C809 1.332 . S
C810 C811 1.267 . S
C811 H779 0.929 . S
C811 C810 1.267 . S
C811 C812 1.251 . S
C812 H782 0.929 . S
C812 N808 1.418 . S
C812 C811 1.251 . S
C813 H780 0.930 . S
C813 C815 1.406 . S
C813 C818 1.261 . S
C814 H781 0.930 . S
C814 N816 1.325 . S
C814 C817 1.357 . S
C815 H783 0.928 . S
C815 C813 1.406 . S
C815 N816 1.261 . S
N816 Co767 2.214 . S
N816 C814 1.325 . S
N816 C815 1.261 . S
C817 H787 0.931 . S
C817 C814 1.357 . S
C817 C818 1.312 . S
C818 H789 0.930 . S
C818 C813 1.261 . S
C818 C817 1.312 . S
C819 O791 1.214 . S
C819 O799 1.234 . S
C820 H792 0.929 . S
C820 C823 1.391 . S
C820 C825 1.391 . S
C821 H793 0.929 . S
C821 C822 1.390 . S
C821 N824 1.391 . S
C822 H794 0.930 . S
C822 C821 1.390 . S
C822 C823 1.392 . S
C823 H795 0.929 . S
C823 C820 1.391 . S
C823 C822 1.392 . S
N824 Co768 2.257 . S
N824 C821 1.391 . S
N824 C825 1.388 . S
C825 H796 0.930 . S
C825 C820 1.391 . S
C825 N824 1.388 . S
Co826 O828 2.143 . S
Co826 O834 2.074 . S
Co826 O837 2.093 . S
Co826 O850 2.097 . S
Co826 N867 2.151 . S
Co826 N875 2.214 . S
Co827 O828 2.160 . S
Co827 O833 2.058 . S
Co827 O843 2.057 . S
Co827 O858 2.037 . S
Co827 N862 2.145 1_455 S
Co827 N883 2.257 . S
O828 Co826 2.143 . S
O828 Co827 2.160 . S
C829 O830 1.278 . S
C829 O837 1.224 . S
O830 C829 1.278 . S
C831 O832 1.245 . S
C831 O843 1.232 . S
O832 C831 1.245 . S
O833 Co827 2.058 . S
O833 C859 1.269 . S
O834 Co826 2.074 . S
O834 C859 1.257 . S
H835 C860 0.930 . S
H836 C866 0.930 . S
O837 Co826 2.093 . S
O837 C829 1.224 . S
H838 C870 0.929 . S
H839 C872 0.930 . S
H840 C873 0.930 . S
H841 C871 0.929 . S
H842 C874 0.928 . S
O843 Co827 2.057 . S
O843 C831 1.232 . S
H844 C863 0.929 . S
H845 C864 0.929 . S
H846 C876 0.931 . S
H847 C868 0.929 . S
H848 C877 0.930 . S
H849 C869 0.931 . S
O850 Co826 2.097 . S
O850 C878 1.214 . S
H851 C879 0.929 . S
H852 C880 0.929 . S
H853 C881 0.912 1_655 S
H854 C882 0.929 . S
H855 C884 0.930 . S
H856 C861 0.930 . S
H857 C865 0.930 . S
O858 Co827 2.037 . S
O858 C878 1.234 . S
C859 O833 1.269 . S
C859 O834 1.257 . S
C860 H835 0.930 . S
C860 C863 1.388 . S
C860 C865 1.418 . S
C861 H856 0.930 . S
C861 C864 1.404 . S
C861 C865 1.353 . S
N862 Co827 2.145 1_655 S
N862 C863 1.397 . S
N862 C864 1.334 . S
C863 H844 0.929 . S
C863 C860 1.388 . S
C863 N862 1.397 . S
C864 H845 0.929 . S
C864 C861 1.404 . S
C864 N862 1.334 . S
C865 H857 0.930 . S
C865 C860 1.418 . S
C865 C861 1.353 . S
C866 H836 0.930 . S
C866 N867 1.330 . S
C866 C868 1.446 . S
N867 Co826 2.151 . S
N867 C866 1.330 . S
N867 C871 1.418 . S
C868 H847 0.929 . S
C868 C866 1.446 . S
C868 C869 1.332 . S
C869 H849 0.931 . S
C869 C868 1.332 . S
C869 C870 1.267 . S
C870 H838 0.929 . S
C870 C869 1.267 . S
C870 C871 1.251 . S
C871 H841 0.929 . S
C871 N867 1.418 . S
C871 C870 1.251 . S
C872 H839 0.930 . S
C872 C874 1.406 . S
C872 C877 1.261 . S
C873 H840 0.930 . S
C873 N875 1.325 . S
C873 C876 1.357 . S
C874 H842 0.928 . S
C874 C872 1.406 . S
C874 N875 1.261 . S
N875 Co826 2.214 . S
N875 C873 1.325 . S
N875 C874 1.261 . S
C876 H846 0.931 . S
C876 C873 1.357 . S
C876 C877 1.312 . S
C877 H848 0.930 . S
C877 C872 1.261 . S
C877 C876 1.312 . S
C878 O850 1.214 . S
C878 O858 1.234 . S
C879 H851 0.929 . S
C879 C882 1.391 . S
C879 C884 1.391 . S
C880 H852 0.929 . S
C880 C881 1.390 . S
C880 N883 1.391 . S
C881 H853 0.912 1_455 S
C881 C880 1.390 . S
C881 C882 1.392 . S
C882 H854 0.929 . S
C882 C879 1.391 . S
C882 C881 1.392 . S
N883 Co827 2.257 . S
N883 C880 1.391 . S
N883 C884 1.388 . S
C884 H855 0.930 . S
C884 C879 1.391 . S
C884 N883 1.388 . S
Co885 O887 2.143 . S
Co885 O893 2.074 . S
Co885 O896 2.093 . S
Co885 O909 2.097 . S
Co885 N926 2.151 . S
Co885 N934 2.214 . S
Co886 O887 2.160 . S
Co886 O892 2.058 . S
Co886 O902 2.057 . S
Co886 O917 2.037 . S
Co886 N921 2.145 1_545 S
Co886 N942 2.257 . S
O887 Co885 2.143 . S
O887 Co886 2.160 . S
C888 O889 1.278 . S
C888 O896 1.224 . S
O889 C888 1.278 . S
C890 O891 1.245 . S
C890 O902 1.232 . S
O891 C890 1.245 . S
O892 Co886 2.058 . S
O892 C918 1.269 . S
O893 Co885 2.074 . S
O893 C918 1.257 . S
H894 C919 0.930 . S
H895 C925 0.930 . S
O896 Co885 2.093 . S
O896 C888 1.224 . S
H897 C929 0.929 . S
H898 C931 0.930 . S
H899 C932 0.930 . S
H900 C930 0.929 . S
H901 C933 0.928 . S
O902 Co886 2.057 . S
O902 C890 1.232 . S
H903 C922 0.929 . S
H904 C923 0.929 . S
H905 C935 0.931 . S
H906 C927 0.929 . S
H907 C936 0.930 . S
H908 C928 0.931 . S
O909 Co885 2.097 . S
O909 C937 1.214 . S
H910 C938 0.929 . S
H911 C939 0.929 . S
H912 C940 0.923 1_565 S
H913 C941 0.929 . S
H914 C943 0.930 . S
H915 C920 0.930 . S
H916 C924 0.930 . S
O917 Co886 2.037 . S
O917 C937 1.234 . S
C918 O892 1.269 . S
C918 O893 1.257 . S
C919 H894 0.930 . S
C919 C922 1.388 . S
C919 C924 1.418 . S
C920 H915 0.930 . S
C920 C923 1.404 . S
C920 C924 1.353 . S
N921 Co886 2.145 1_565 S
N921 C922 1.397 . S
N921 C923 1.334 . S
C922 H903 0.929 . S
C922 C919 1.388 . S
C922 N921 1.397 . S
C923 H904 0.929 . S
C923 C920 1.404 . S
C923 N921 1.334 . S
C924 H916 0.930 . S
C924 C919 1.418 . S
C924 C920 1.353 . S
C925 H895 0.930 . S
C925 N926 1.330 . S
C925 C927 1.446 . S
N926 Co885 2.151 . S
N926 C925 1.330 . S
N926 C930 1.418 . S
C927 H906 0.929 . S
C927 C925 1.446 . S
C927 C928 1.332 . S
C928 H908 0.931 . S
C928 C927 1.332 . S
C928 C929 1.267 . S
C929 H897 0.929 . S
C929 C928 1.267 . S
C929 C930 1.251 . S
C930 H900 0.929 . S
C930 N926 1.418 . S
C930 C929 1.251 . S
C931 H898 0.930 . S
C931 C933 1.406 . S
C931 C936 1.261 . S
C932 H899 0.930 . S
C932 N934 1.325 . S
C932 C935 1.357 . S
C933 H901 0.928 . S
C933 C931 1.406 . S
C933 N934 1.261 . S
N934 Co885 2.214 . S
N934 C932 1.325 . S
N934 C933 1.261 . S
C935 H905 0.931 . S
C935 C932 1.357 . S
C935 C936 1.312 . S
C936 H907 0.930 . S
C936 C931 1.261 . S
C936 C935 1.312 . S
C937 O909 1.214 . S
C937 O917 1.234 . S
C938 H910 0.929 . S
C938 C941 1.391 . S
C938 C943 1.391 . S
C939 H911 0.929 . S
C939 C940 1.390 . S
C939 N942 1.391 . S
C940 H912 0.923 1_545 S
C940 C939 1.390 . S
C940 C941 1.392 . S
C941 H913 0.929 . S
C941 C938 1.391 . S
C941 C940 1.392 . S
N942 Co886 2.257 . S
N942 C939 1.391 . S
N942 C943 1.388 . S
C943 H914 0.930 . S
C943 C938 1.391 . S
C943 N942 1.388 . S
Co944 O946 2.143 . S
Co944 O952 2.074 . S
Co944 O955 2.093 . S
Co944 O968 2.097 . S
Co944 N985 2.151 . S
Co944 N993 2.214 . S
Co945 O946 2.160 . S
Co945 O951 2.058 . S
Co945 O961 2.057 . S
Co945 O976 2.037 . S
Co945 N980 2.145 . S
Co945 N1001 2.257 . S
O946 Co944 2.143 . S
O946 Co945 2.160 . S
C947 O948 1.278 . S
C947 O955 1.224 . S
O948 C947 1.278 . S
C949 O950 1.245 . S
C949 O961 1.232 . S
O950 C949 1.245 . S
O951 Co945 2.058 . S
O951 C977 1.269 . S
O952 Co944 2.074 . S
O952 C977 1.257 . S
H953 C978 0.930 . S
H954 C984 0.930 . S
O955 Co944 2.093 . S
O955 C947 1.224 . S
H956 C988 0.929 . S
H957 C990 0.930 . S
H958 C991 0.930 . S
H959 C989 0.929 . S
H960 C992 0.928 . S
O961 Co945 2.057 . S
O961 C949 1.232 . S
H962 C981 0.929 . S
H963 C982 0.929 . S
H964 C994 0.931 . S
H965 C986 0.929 . S
H966 C995 0.930 . S
H967 C987 0.931 . S
O968 Co944 2.097 . S
O968 C996 1.214 . S
H969 C997 0.929 . S
H970 C998 0.929 . S
H971 C999 0.930 . S
H972 C1000 0.929 . S
H973 C1002 0.930 . S
H974 C979 0.930 . S
H975 C983 0.930 . S
O976 Co945 2.037 . S
O976 C996 1.234 . S
C977 O951 1.269 . S
C977 O952 1.257 . S
C978 H953 0.930 . S
C978 C981 1.388 . S
C978 C983 1.418 . S
C979 H974 0.930 . S
C979 C982 1.404 . S
C979 C983 1.353 . S
N980 Co945 2.145 . S
N980 C981 1.397 . S
N980 C982 1.334 . S
C981 H962 0.929 . S
C981 C978 1.388 . S
C981 N980 1.397 . S
C982 H963 0.929 . S
C982 C979 1.404 . S
C982 N980 1.334 . S
C983 H975 0.930 . S
C983 C978 1.418 . S
C983 C979 1.353 . S
C984 H954 0.930 . S
C984 N985 1.330 . S
C984 C986 1.446 . S
N985 Co944 2.151 . S
N985 C984 1.330 . S
N985 C989 1.418 . S
C986 H965 0.929 . S
C986 C984 1.446 . S
C986 C987 1.332 . S
C987 H967 0.931 . S
C987 C986 1.332 . S
C987 C988 1.267 . S
C988 H956 0.929 . S
C988 C987 1.267 . S
C988 C989 1.251 . S
C989 H959 0.929 . S
C989 N985 1.418 . S
C989 C988 1.251 . S
C990 H957 0.930 . S
C990 C992 1.406 . S
C990 C995 1.261 . S
C991 H958 0.930 . S
C991 N993 1.325 . S
C991 C994 1.357 . S
C992 H960 0.928 . S
C992 C990 1.406 . S
C992 N993 1.261 . S
N993 Co944 2.214 . S
N993 C991 1.325 . S
N993 C992 1.261 . S
C994 H964 0.931 . S
C994 C991 1.357 . S
C994 C995 1.312 . S
C995 H966 0.930 . S
C995 C990 1.261 . S
C995 C994 1.312 . S
C996 O968 1.214 . S
C996 O976 1.234 . S
C997 H969 0.929 . S
C997 C1000 1.391 . S
C997 C1002 1.391 . S
C998 H970 0.929 . S
C998 C999 1.390 . S
C998 N1001 1.391 . S
C999 H971 0.930 . S
C999 C998 1.390 . S
C999 C1000 1.392 . S
C1000 H972 0.929 . S
C1000 C997 1.391 . S
C1000 C999 1.392 . S
N1001 Co945 2.257 . S
N1001 C998 1.391 . S
N1001 C1002 1.388 . S
C1002 H973 0.930 . S
C1002 C997 1.391 . S
C1002 N1001 1.388 . S
Co1003 O1005 2.143 . S
Co1003 O1011 2.074 . S
Co1003 O1014 2.093 . S
Co1003 O1027 2.097 . S
Co1003 N1044 2.151 . S
Co1003 N1052 2.214 . S
Co1004 O1005 2.160 . S
Co1004 O1010 2.058 . S
Co1004 O1020 2.057 . S
Co1004 O1035 2.037 . S
Co1004 N1039 2.145 1_655 S
Co1004 N1060 2.257 . S
O1005 Co1003 2.143 . S
O1005 Co1004 2.160 . S
C1006 O1007 1.278 . S
C1006 O1014 1.224 . S
O1007 C1006 1.278 . S
C1008 O1009 1.245 . S
C1008 O1020 1.232 . S
O1009 C1008 1.245 . S
O1010 Co1004 2.058 . S
O1010 C1036 1.269 . S
O1011 Co1003 2.074 . S
O1011 C1036 1.257 . S
H1012 C1037 0.930 . S
H1013 C1043 0.930 . S
O1014 Co1003 2.093 . S
O1014 C1006 1.224 . S
H1015 C1047 0.929 . S
H1016 C1049 0.930 . S
H1017 C1050 0.930 . S
H1018 C1048 0.929 . S
H1019 C1051 0.928 . S
O1020 Co1004 2.057 . S
O1020 C1008 1.232 . S
H1021 C1040 0.929 . S
H1022 C1041 0.929 . S
H1023 C1053 0.931 . S
H1024 C1045 0.929 . S
H1025 C1054 0.930 . S
H1026 C1046 0.931 . S
O1027 Co1003 2.097 . S
O1027 C1055 1.214 . S
H1028 C1056 0.929 . S
H1029 C1057 0.929 . S
H1030 C1058 0.912 1_455 S
H1031 C1059 0.929 . S
H1032 C1061 0.930 . S
H1033 C1038 0.930 . S
H1034 C1042 0.930 . S
O1035 Co1004 2.037 . S
O1035 C1055 1.234 . S
C1036 O1010 1.269 . S
C1036 O1011 1.257 . S
C1037 H1012 0.930 . S
C1037 C1040 1.388 . S
C1037 C1042 1.418 . S
C1038 H1033 0.930 . S
C1038 C1041 1.404 . S
C1038 C1042 1.353 . S
N1039 Co1004 2.145 1_455 S
N1039 C1040 1.397 . S
N1039 C1041 1.334 . S
C1040 H1021 0.929 . S
C1040 C1037 1.388 . S
C1040 N1039 1.397 . S
C1041 H1022 0.929 . S
C1041 C1038 1.404 . S
C1041 N1039 1.334 . S
C1042 H1034 0.930 . S
C1042 C1037 1.418 . S
C1042 C1038 1.353 . S
C1043 H1013 0.930 . S
C1043 N1044 1.330 . S
C1043 C1045 1.446 . S
N1044 Co1003 2.151 . S
N1044 C1043 1.330 . S
N1044 C1048 1.418 . S
C1045 H1024 0.929 . S
C1045 C1043 1.446 . S
C1045 C1046 1.332 . S
C1046 H1026 0.931 . S
C1046 C1045 1.332 . S
C1046 C1047 1.267 . S
C1047 H1015 0.929 . S
C1047 C1046 1.267 . S
C1047 C1048 1.251 . S
C1048 H1018 0.929 . S
C1048 N1044 1.418 . S
C1048 C1047 1.251 . S
C1049 H1016 0.930 . S
C1049 C1051 1.406 . S
C1049 C1054 1.261 . S
C1050 H1017 0.930 . S
C1050 N1052 1.325 . S
C1050 C1053 1.357 . S
C1051 H1019 0.928 . S
C1051 C1049 1.406 . S
C1051 N1052 1.261 . S
N1052 Co1003 2.214 . S
N1052 C1050 1.325 . S
N1052 C1051 1.261 . S
C1053 H1023 0.931 . S
C1053 C1050 1.357 . S
C1053 C1054 1.312 . S
C1054 H1025 0.930 . S
C1054 C1049 1.261 . S
C1054 C1053 1.312 . S
C1055 O1027 1.214 . S
C1055 O1035 1.234 . S
C1056 H1028 0.929 . S
C1056 C1059 1.391 . S
C1056 C1061 1.391 . S
C1057 H1029 0.929 . S
C1057 C1058 1.390 . S
C1057 N1060 1.391 . S
C1058 H1030 0.912 1_655 S
C1058 C1057 1.390 . S
C1058 C1059 1.392 . S
C1059 H1031 0.929 . S
C1059 C1056 1.391 . S
C1059 C1058 1.392 . S
N1060 Co1004 2.257 . S
N1060 C1057 1.391 . S
N1060 C1061 1.388 . S
C1061 H1032 0.930 . S
C1061 C1056 1.391 . S
C1061 N1060 1.388 . S
Co1062 O1064 2.143 . S
Co1062 O1070 2.074 . S
Co1062 O1073 2.093 . S
Co1062 O1086 2.097 . S
Co1062 N1103 2.151 . S
Co1062 N1111 2.214 . S
Co1063 O1064 2.160 . S
Co1063 O1069 2.058 . S
Co1063 O1079 2.057 . S
Co1063 O1094 2.037 . S
Co1063 N1098 2.145 1_455 S
Co1063 N1119 2.257 . S
O1064 Co1062 2.143 . S
O1064 Co1063 2.160 . S
C1065 O1066 1.278 . S
C1065 O1073 1.224 . S
O1066 C1065 1.278 . S
C1067 O1068 1.245 . S
C1067 O1079 1.232 . S
O1068 C1067 1.245 . S
O1069 Co1063 2.058 . S
O1069 C1095 1.269 . S
O1070 Co1062 2.074 . S
O1070 C1095 1.257 . S
H1071 C1096 0.930 . S
H1072 C1102 0.930 . S
O1073 Co1062 2.093 . S
O1073 C1065 1.224 . S
H1074 C1106 0.929 . S
H1075 C1108 0.930 . S
H1076 C1109 0.930 . S
H1077 C1107 0.929 . S
H1078 C1110 0.928 . S
O1079 Co1063 2.057 . S
O1079 C1067 1.232 . S
H1080 C1099 0.929 . S
H1081 C1100 0.929 . S
H1082 C1112 0.931 . S
H1083 C1104 0.929 . S
H1084 C1113 0.930 . S
H1085 C1105 0.931 . S
O1086 Co1062 2.097 . S
O1086 C1114 1.214 . S
H1087 C1115 0.929 . S
H1088 C1116 0.929 . S
H1089 C1117 0.923 1_655 S
H1090 C1118 0.929 . S
H1091 C1120 0.930 . S
H1092 C1097 0.930 . S
H1093 C1101 0.930 . S
O1094 Co1063 2.037 . S
O1094 C1114 1.234 . S
C1095 O1069 1.269 . S
C1095 O1070 1.257 . S
C1096 H1071 0.930 . S
C1096 C1099 1.388 . S
C1096 C1101 1.418 . S
C1097 H1092 0.930 . S
C1097 C1100 1.404 . S
C1097 C1101 1.353 . S
N1098 Co1063 2.145 1_655 S
N1098 C1099 1.397 . S
N1098 C1100 1.334 . S
C1099 H1080 0.929 . S
C1099 C1096 1.388 . S
C1099 N1098 1.397 . S
C1100 H1081 0.929 . S
C1100 C1097 1.404 . S
C1100 N1098 1.334 . S
C1101 H1093 0.930 . S
C1101 C1096 1.418 . S
C1101 C1097 1.353 . S
C1102 H1072 0.930 . S
C1102 N1103 1.330 . S
C1102 C1104 1.446 . S
N1103 Co1062 2.151 . S
N1103 C1102 1.330 . S
N1103 C1107 1.418 . S
C1104 H1083 0.929 . S
C1104 C1102 1.446 . S
C1104 C1105 1.332 . S
C1105 H1085 0.931 . S
C1105 C1104 1.332 . S
C1105 C1106 1.267 . S
C1106 H1074 0.929 . S
C1106 C1105 1.267 . S
C1106 C1107 1.251 . S
C1107 H1077 0.929 . S
C1107 N1103 1.418 . S
C1107 C1106 1.251 . S
C1108 H1075 0.930 . S
C1108 C1110 1.406 . S
C1108 C1113 1.261 . S
C1109 H1076 0.930 . S
C1109 N1111 1.325 . S
C1109 C1112 1.357 . S
C1110 H1078 0.928 . S
C1110 C1108 1.406 . S
C1110 N1111 1.261 . S
N1111 Co1062 2.214 . S
N1111 C1109 1.325 . S
N1111 C1110 1.261 . S
C1112 H1082 0.931 . S
C1112 C1109 1.357 . S
C1112 C1113 1.312 . S
C1113 H1084 0.930 . S
C1113 C1108 1.261 . S
C1113 C1112 1.312 . S
C1114 O1086 1.214 . S
C1114 O1094 1.234 . S
C1115 H1087 0.929 . S
C1115 C1118 1.391 . S
C1115 C1120 1.391 . S
C1116 H1088 0.929 . S
C1116 C1117 1.390 . S
C1116 N1119 1.391 . S
C1117 H1089 0.923 1_455 S
C1117 C1116 1.390 . S
C1117 C1118 1.392 . S
C1118 H1090 0.929 . S
C1118 C1115 1.391 . S
C1118 C1117 1.392 . S
N1119 Co1063 2.257 . S
N1119 C1116 1.391 . S
N1119 C1120 1.388 . S
C1120 H1091 0.930 . S
C1120 C1115 1.391 . S
C1120 N1119 1.388 . S
Co1121 O1123 2.143 . S
Co1121 O1129 2.074 . S
Co1121 O1132 2.093 . S
Co1121 O1145 2.097 . S
Co1121 N1162 2.151 . S
Co1121 N1170 2.214 . S
Co1122 O1123 2.160 . S
Co1122 O1128 2.058 . S
Co1122 O1138 2.057 . S
Co1122 O1153 2.037 . S
Co1122 N1157 2.145 1_545 S
Co1122 N1178 2.257 . S
O1123 Co1121 2.143 . S
O1123 Co1122 2.160 . S
C1124 O1125 1.278 . S
C1124 O1132 1.224 . S
O1125 C1124 1.278 . S
C1126 O1127 1.245 . S
C1126 O1138 1.232 . S
O1127 C1126 1.245 . S
O1128 Co1122 2.058 . S
O1128 C1154 1.269 . S
O1129 Co1121 2.074 . S
O1129 C1154 1.257 . S
H1130 C1155 0.930 . S
H1131 C1161 0.930 . S
O1132 Co1121 2.093 . S
O1132 C1124 1.224 . S
H1133 C1165 0.929 . S
H1134 C1167 0.930 . S
H1135 C1168 0.930 . S
H1136 C1166 0.929 . S
H1137 C1169 0.928 . S
O1138 Co1122 2.057 . S
O1138 C1126 1.232 . S
H1139 C1158 0.929 . S
H1140 C1159 0.929 . S
H1141 C1171 0.931 . S
H1142 C1163 0.929 . S
H1143 C1172 0.930 . S
H1144 C1164 0.931 . S
O1145 Co1121 2.097 . S
O1145 C1173 1.214 . S
H1146 C1174 0.929 . S
H1147 C1175 0.929 . S
H1148 C1176 0.912 1_565 S
H1149 C1177 0.929 . S
H1150 C1179 0.930 . S
H1151 C1156 0.930 . S
H1152 C1160 0.930 . S
O1153 Co1122 2.037 . S
O1153 C1173 1.234 . S
C1154 O1128 1.269 . S
C1154 O1129 1.257 . S
C1155 H1130 0.930 . S
C1155 C1158 1.388 . S
C1155 C1160 1.418 . S
C1156 H1151 0.930 . S
C1156 C1159 1.404 . S
C1156 C1160 1.353 . S
N1157 Co1122 2.145 1_565 S
N1157 C1158 1.397 . S
N1157 C1159 1.334 . S
C1158 H1139 0.929 . S
C1158 C1155 1.388 . S
C1158 N1157 1.397 . S
C1159 H1140 0.929 . S
C1159 C1156 1.404 . S
C1159 N1157 1.334 . S
C1160 H1152 0.930 . S
C1160 C1155 1.418 . S
C1160 C1156 1.353 . S
C1161 H1131 0.930 . S
C1161 N1162 1.330 . S
C1161 C1163 1.446 . S
N1162 Co1121 2.151 . S
N1162 C1161 1.330 . S
N1162 C1166 1.418 . S
C1163 H1142 0.929 . S
C1163 C1161 1.446 . S
C1163 C1164 1.332 . S
C1164 H1144 0.931 . S
C1164 C1163 1.332 . S
C1164 C1165 1.267 . S
C1165 H1133 0.929 . S
C1165 C1164 1.267 . S
C1165 C1166 1.251 . S
C1166 H1136 0.929 . S
C1166 N1162 1.418 . S
C1166 C1165 1.251 . S
C1167 H1134 0.930 . S
C1167 C1169 1.406 . S
C1167 C1172 1.261 . S
C1168 H1135 0.930 . S
C1168 N1170 1.325 . S
C1168 C1171 1.357 . S
C1169 H1137 0.928 . S
C1169 C1167 1.406 . S
C1169 N1170 1.261 . S
N1170 Co1121 2.214 . S
N1170 C1168 1.325 . S
N1170 C1169 1.261 . S
C1171 H1141 0.931 . S
C1171 C1168 1.357 . S
C1171 C1172 1.312 . S
C1172 H1143 0.930 . S
C1172 C1167 1.261 . S
C1172 C1171 1.312 . S
C1173 O1145 1.214 . S
C1173 O1153 1.234 . S
C1174 H1146 0.929 . S
C1174 C1177 1.391 . S
C1174 C1179 1.391 . S
C1175 H1147 0.929 . S
C1175 C1176 1.390 . S
C1175 N1178 1.391 . S
C1176 H1148 0.912 1_545 S
C1176 C1175 1.390 . S
C1176 C1177 1.392 . S
C1177 H1149 0.929 . S
C1177 C1174 1.391 . S
C1177 C1176 1.392 . S
N1178 Co1122 2.257 . S
N1178 C1175 1.391 . S
N1178 C1179 1.388 . S
C1179 H1150 0.930 . S
C1179 C1174 1.391 . S
C1179 N1178 1.388 . S
Co1180 O1182 2.143 . S
Co1180 O1188 2.074 . S
Co1180 O1191 2.093 . S
Co1180 O1204 2.097 . S
Co1180 N1221 2.151 . S
Co1180 N1229 2.214 . S
Co1181 O1182 2.160 . S
Co1181 O1187 2.058 . S
Co1181 O1197 2.057 . S
Co1181 O1212 2.037 . S
Co1181 N1216 2.145 . S
Co1181 N1237 2.257 . S
O1182 Co1180 2.143 . S
O1182 Co1181 2.160 . S
C1183 O1184 1.278 . S
C1183 O1191 1.224 . S
O1184 C1183 1.278 . S
C1185 O1186 1.245 . S
C1185 O1197 1.232 . S
O1186 C1185 1.245 . S
O1187 Co1181 2.058 . S
O1187 C1213 1.269 . S
O1188 Co1180 2.074 . S
O1188 C1213 1.257 . S
H1189 C1214 0.930 . S
H1190 C1220 0.930 . S
O1191 Co1180 2.093 . S
O1191 C1183 1.224 . S
H1192 C1224 0.929 . S
H1193 C1226 0.930 . S
H1194 C1227 0.930 . S
H1195 C1225 0.929 . S
H1196 C1228 0.928 . S
O1197 Co1181 2.057 . S
O1197 C1185 1.232 . S
H1198 C1217 0.929 . S
H1199 C1218 0.929 . S
H1200 C1230 0.931 . S
H1201 C1222 0.929 . S
H1202 C1231 0.930 . S
H1203 C1223 0.931 . S
O1204 Co1180 2.097 . S
O1204 C1232 1.214 . S
H1205 C1233 0.929 . S
H1206 C1234 0.929 . S
H1207 C1235 0.930 . S
H1208 C1236 0.929 . S
H1209 C1238 0.930 . S
H1210 C1215 0.930 . S
H1211 C1219 0.930 . S
O1212 Co1181 2.037 . S
O1212 C1232 1.234 . S
C1213 O1187 1.269 . S
C1213 O1188 1.257 . S
C1214 H1189 0.930 . S
C1214 C1217 1.388 . S
C1214 C1219 1.418 . S
C1215 H1210 0.930 . S
C1215 C1218 1.404 . S
C1215 C1219 1.353 . S
N1216 Co1181 2.145 . S
N1216 C1217 1.397 . S
N1216 C1218 1.334 . S
C1217 H1198 0.929 . S
C1217 C1214 1.388 . S
C1217 N1216 1.397 . S
C1218 H1199 0.929 . S
C1218 C1215 1.404 . S
C1218 N1216 1.334 . S
C1219 H1211 0.930 . S
C1219 C1214 1.418 . S
C1219 C1215 1.353 . S
C1220 H1190 0.930 . S
C1220 N1221 1.330 . S
C1220 C1222 1.446 . S
N1221 Co1180 2.151 . S
N1221 C1220 1.330 . S
N1221 C1225 1.418 . S
C1222 H1201 0.929 . S
C1222 C1220 1.446 . S
C1222 C1223 1.332 . S
C1223 H1203 0.931 . S
C1223 C1222 1.332 . S
C1223 C1224 1.267 . S
C1224 H1192 0.929 . S
C1224 C1223 1.267 . S
C1224 C1225 1.251 . S
C1225 H1195 0.929 . S
C1225 N1221 1.418 . S
C1225 C1224 1.251 . S
C1226 H1193 0.930 . S
C1226 C1228 1.406 . S
C1226 C1231 1.261 . S
C1227 H1194 0.930 . S
C1227 N1229 1.325 . S
C1227 C1230 1.357 . S
C1228 H1196 0.928 . S
C1228 C1226 1.406 . S
C1228 N1229 1.261 . S
N1229 Co1180 2.214 . S
N1229 C1227 1.325 . S
N1229 C1228 1.261 . S
C1230 H1200 0.931 . S
C1230 C1227 1.357 . S
C1230 C1231 1.312 . S
C1231 H1202 0.930 . S
C1231 C1226 1.261 . S
C1231 C1230 1.312 . S
C1232 O1204 1.214 . S
C1232 O1212 1.234 . S
C1233 H1205 0.929 . S
C1233 C1236 1.391 . S
C1233 C1238 1.391 . S
C1234 H1206 0.929 . S
C1234 C1235 1.390 . S
C1234 N1237 1.391 . S
C1235 H1207 0.930 . S
C1235 C1234 1.390 . S
C1235 C1236 1.392 . S
C1236 H1208 0.929 . S
C1236 C1233 1.391 . S
C1236 C1235 1.392 . S
N1237 Co1181 2.257 . S
N1237 C1234 1.391 . S
N1237 C1238 1.388 . S
C1238 H1209 0.930 . S
C1238 C1233 1.391 . S
C1238 N1237 1.388 . S
Co1239 O1241 2.143 . S
Co1239 O1247 2.074 . S
Co1239 O1250 2.093 . S
Co1239 O1263 2.097 . S
Co1239 N1280 2.151 . S
Co1239 N1288 2.214 . S
Co1240 O1241 2.160 . S
Co1240 O1246 2.058 . S
Co1240 O1256 2.057 . S
Co1240 O1271 2.037 . S
Co1240 N1275 2.145 1_655 S
Co1240 N1296 2.257 . S
O1241 Co1239 2.143 . S
O1241 Co1240 2.160 . S
C1242 O1243 1.278 . S
C1242 O1250 1.224 . S
O1243 C1242 1.278 . S
C1244 O1245 1.245 . S
C1244 O1256 1.232 . S
O1245 C1244 1.245 . S
O1246 Co1240 2.058 . S
O1246 C1272 1.269 . S
O1247 Co1239 2.074 . S
O1247 C1272 1.257 . S
H1248 C1273 0.930 . S
H1249 C1279 0.930 . S
O1250 Co1239 2.093 . S
O1250 C1242 1.224 . S
H1251 C1283 0.929 . S
H1252 C1285 0.930 . S
H1253 C1286 0.930 . S
H1254 C1284 0.929 . S
H1255 C1287 0.928 . S
O1256 Co1240 2.057 . S
O1256 C1244 1.232 . S
H1257 C1276 0.929 . S
H1258 C1277 0.929 . S
H1259 C1289 0.931 . S
H1260 C1281 0.929 . S
H1261 C1290 0.930 . S
H1262 C1282 0.931 . S
O1263 Co1239 2.097 . S
O1263 C1291 1.214 . S
H1264 C1292 0.929 . S
H1265 C1293 0.929 . S
H1266 C1294 0.923 1_455 S
H1267 C1295 0.929 . S
H1268 C1297 0.930 . S
H1269 C1274 0.930 . S
H1270 C1278 0.930 . S
O1271 Co1240 2.037 . S
O1271 C1291 1.234 . S
C1272 O1246 1.269 . S
C1272 O1247 1.257 . S
C1273 H1248 0.930 . S
C1273 C1276 1.388 . S
C1273 C1278 1.418 . S
C1274 H1269 0.930 . S
C1274 C1277 1.404 . S
C1274 C1278 1.353 . S
N1275 Co1240 2.145 1_455 S
N1275 C1276 1.397 . S
N1275 C1277 1.334 . S
C1276 H1257 0.929 . S
C1276 C1273 1.388 . S
C1276 N1275 1.397 . S
C1277 H1258 0.929 . S
C1277 C1274 1.404 . S
C1277 N1275 1.334 . S
C1278 H1270 0.930 . S
C1278 C1273 1.418 . S
C1278 C1274 1.353 . S
C1279 H1249 0.930 . S
C1279 N1280 1.330 . S
C1279 C1281 1.446 . S
N1280 Co1239 2.151 . S
N1280 C1279 1.330 . S
N1280 C1284 1.418 . S
C1281 H1260 0.929 . S
C1281 C1279 1.446 . S
C1281 C1282 1.332 . S
C1282 H1262 0.931 . S
C1282 C1281 1.332 . S
C1282 C1283 1.267 . S
C1283 H1251 0.929 . S
C1283 C1282 1.267 . S
C1283 C1284 1.251 . S
C1284 H1254 0.929 . S
C1284 N1280 1.418 . S
C1284 C1283 1.251 . S
C1285 H1252 0.930 . S
C1285 C1287 1.406 . S
C1285 C1290 1.261 . S
C1286 H1253 0.930 . S
C1286 N1288 1.325 . S
C1286 C1289 1.357 . S
C1287 H1255 0.928 . S
C1287 C1285 1.406 . S
C1287 N1288 1.261 . S
N1288 Co1239 2.214 . S
N1288 C1286 1.325 . S
N1288 C1287 1.261 . S
C1289 H1259 0.931 . S
C1289 C1286 1.357 . S
C1289 C1290 1.312 . S
C1290 H1261 0.930 . S
C1290 C1285 1.261 . S
C1290 C1289 1.312 . S
C1291 O1263 1.214 . S
C1291 O1271 1.234 . S
C1292 H1264 0.929 . S
C1292 C1295 1.391 . S
C1292 C1297 1.391 . S
C1293 H1265 0.929 . S
C1293 C1294 1.390 . S
C1293 N1296 1.391 . S
C1294 H1266 0.923 1_655 S
C1294 C1293 1.390 . S
C1294 C1295 1.392 . S
C1295 H1267 0.929 . S
C1295 C1292 1.391 . S
C1295 C1294 1.392 . S
N1296 Co1240 2.257 . S
N1296 C1293 1.391 . S
N1296 C1297 1.388 . S
C1297 H1268 0.930 . S
C1297 C1292 1.391 . S
C1297 N1296 1.388 . S
Co1298 O1300 2.143 . S
Co1298 O1306 2.074 . S
Co1298 O1309 2.093 . S
Co1298 O1322 2.097 . S
Co1298 N1339 2.151 . S
Co1298 N1347 2.214 . S
Co1299 O1300 2.160 . S
Co1299 O1305 2.058 . S
Co1299 O1315 2.057 . S
Co1299 O1330 2.037 . S
Co1299 N1334 2.145 1_565 S
Co1299 N1355 2.257 . S
O1300 Co1298 2.143 . S
O1300 Co1299 2.160 . S
C1301 O1302 1.278 . S
C1301 O1309 1.224 . S
O1302 C1301 1.278 . S
C1303 O1304 1.245 . S
C1303 O1315 1.232 . S
O1304 C1303 1.245 . S
O1305 Co1299 2.058 . S
O1305 C1331 1.269 . S
O1306 Co1298 2.074 . S
O1306 C1331 1.257 . S
H1307 C1332 0.930 . S
H1308 C1338 0.930 . S
O1309 Co1298 2.093 . S
O1309 C1301 1.224 . S
H1310 C1342 0.929 . S
H1311 C1344 0.930 . S
H1312 C1345 0.930 . S
H1313 C1343 0.929 . S
H1314 C1346 0.928 . S
O1315 Co1299 2.057 . S
O1315 C1303 1.232 . S
H1316 C1335 0.929 . S
H1317 C1336 0.929 . S
H1318 C1348 0.931 . S
H1319 C1340 0.929 . S
H1320 C1349 0.930 . S
H1321 C1341 0.931 . S
O1322 Co1298 2.097 . S
O1322 C1350 1.214 . S
H1323 C1351 0.929 . S
H1324 C1352 0.929 . S
H1325 C1353 0.912 1_545 S
H1326 C1354 0.929 . S
H1327 C1356 0.930 . S
H1328 C1333 0.930 . S
H1329 C1337 0.930 . S
O1330 Co1299 2.037 . S
O1330 C1350 1.234 . S
C1331 O1305 1.269 . S
C1331 O1306 1.257 . S
C1332 H1307 0.930 . S
C1332 C1335 1.388 . S
C1332 C1337 1.418 . S
C1333 H1328 0.930 . S
C1333 C1336 1.404 . S
C1333 C1337 1.353 . S
N1334 Co1299 2.145 1_545 S
N1334 C1335 1.397 . S
N1334 C1336 1.334 . S
C1335 H1316 0.929 . S
C1335 C1332 1.388 . S
C1335 N1334 1.397 . S
C1336 H1317 0.929 . S
C1336 C1333 1.404 . S
C1336 N1334 1.334 . S
C1337 H1329 0.930 . S
C1337 C1332 1.418 . S
C1337 C1333 1.353 . S
C1338 H1308 0.930 . S
C1338 N1339 1.330 . S
C1338 C1340 1.446 . S
N1339 Co1298 2.151 . S
N1339 C1338 1.330 . S
N1339 C1343 1.418 . S
C1340 H1319 0.929 . S
C1340 C1338 1.446 . S
C1340 C1341 1.332 . S
C1341 H1321 0.931 . S
C1341 C1340 1.332 . S
C1341 C1342 1.267 . S
C1342 H1310 0.929 . S
C1342 C1341 1.267 . S
C1342 C1343 1.251 . S
C1343 H1313 0.929 . S
C1343 N1339 1.418 . S
C1343 C1342 1.251 . S
C1344 H1311 0.930 . S
C1344 C1346 1.406 . S
C1344 C1349 1.261 . S
C1345 H1312 0.930 . S
C1345 N1347 1.325 . S
C1345 C1348 1.357 . S
C1346 H1314 0.928 . S
C1346 C1344 1.406 . S
C1346 N1347 1.261 . S
N1347 Co1298 2.214 . S
N1347 C1345 1.325 . S
N1347 C1346 1.261 . S
C1348 H1318 0.931 . S
C1348 C1345 1.357 . S
C1348 C1349 1.312 . S
C1349 H1320 0.930 . S
C1349 C1344 1.261 . S
C1349 C1348 1.312 . S
C1350 O1322 1.214 . S
C1350 O1330 1.234 . S
C1351 H1323 0.929 . S
C1351 C1354 1.391 . S
C1351 C1356 1.391 . S
C1352 H1324 0.929 . S
C1352 C1353 1.390 . S
C1352 N1355 1.391 . S
C1353 H1325 0.912 1_565 S
C1353 C1352 1.390 . S
C1353 C1354 1.392 . S
C1354 H1326 0.929 . S
C1354 C1351 1.391 . S
C1354 C1353 1.392 . S
N1355 Co1299 2.257 . S
N1355 C1352 1.391 . S
N1355 C1356 1.388 . S
C1356 H1327 0.930 . S
C1356 C1351 1.391 . S
C1356 N1355 1.388 . S
Co1357 O1359 2.143 . S
Co1357 O1365 2.074 . S
Co1357 O1368 2.093 . S
Co1357 O1381 2.097 . S
Co1357 N1398 2.151 . S
Co1357 N1406 2.214 . S
Co1358 O1359 2.160 . S
Co1358 O1364 2.058 . S
Co1358 O1374 2.057 . S
Co1358 O1389 2.037 . S
Co1358 N1393 2.145 . S
Co1358 N1414 2.257 . S
O1359 Co1357 2.143 . S
O1359 Co1358 2.160 . S
C1360 O1361 1.278 . S
C1360 O1368 1.224 . S
O1361 C1360 1.278 . S
C1362 O1363 1.245 . S
C1362 O1374 1.232 . S
O1363 C1362 1.245 . S
O1364 Co1358 2.058 . S
O1364 C1390 1.269 . S
O1365 Co1357 2.074 . S
O1365 C1390 1.257 . S
H1366 C1391 0.930 . S
H1367 C1397 0.930 . S
O1368 Co1357 2.093 . S
O1368 C1360 1.224 . S
H1369 C1401 0.929 . S
H1370 C1403 0.930 . S
H1371 C1404 0.930 . S
H1372 C1402 0.929 . S
H1373 C1405 0.928 . S
O1374 Co1358 2.057 . S
O1374 C1362 1.232 . S
H1375 C1394 0.929 . S
H1376 C1395 0.929 . S
H1377 C1407 0.931 . S
H1378 C1399 0.929 . S
H1379 C1408 0.930 . S
H1380 C1400 0.931 . S
O1381 Co1357 2.097 . S
O1381 C1409 1.214 . S
H1382 C1410 0.929 . S
H1383 C1411 0.929 . S
H1384 C1412 0.930 . S
H1385 C1413 0.929 . S
H1386 C1415 0.930 . S
H1387 C1392 0.930 . S
H1388 C1396 0.930 . S
O1389 Co1358 2.037 . S
O1389 C1409 1.234 . S
C1390 O1364 1.269 . S
C1390 O1365 1.257 . S
C1391 H1366 0.930 . S
C1391 C1394 1.388 . S
C1391 C1396 1.418 . S
C1392 H1387 0.930 . S
C1392 C1395 1.404 . S
C1392 C1396 1.353 . S
N1393 Co1358 2.145 . S
N1393 C1394 1.397 . S
N1393 C1395 1.334 . S
C1394 H1375 0.929 . S
C1394 C1391 1.388 . S
C1394 N1393 1.397 . S
C1395 H1376 0.929 . S
C1395 C1392 1.404 . S
C1395 N1393 1.334 . S
C1396 H1388 0.930 . S
C1396 C1391 1.418 . S
C1396 C1392 1.353 . S
C1397 H1367 0.930 . S
C1397 N1398 1.330 . S
C1397 C1399 1.446 . S
N1398 Co1357 2.151 . S
N1398 C1397 1.330 . S
N1398 C1402 1.418 . S
C1399 H1378 0.929 . S
C1399 C1397 1.446 . S
C1399 C1400 1.332 . S
C1400 H1380 0.931 . S
C1400 C1399 1.332 . S
C1400 C1401 1.267 . S
C1401 H1369 0.929 . S
C1401 C1400 1.267 . S
C1401 C1402 1.251 . S
C1402 H1372 0.929 . S
C1402 N1398 1.418 . S
C1402 C1401 1.251 . S
C1403 H1370 0.930 . S
C1403 C1405 1.406 . S
C1403 C1408 1.261 . S
C1404 H1371 0.930 . S
C1404 N1406 1.325 . S
C1404 C1407 1.357 . S
C1405 H1373 0.928 . S
C1405 C1403 1.406 . S
C1405 N1406 1.261 . S
N1406 Co1357 2.214 . S
N1406 C1404 1.325 . S
N1406 C1405 1.261 . S
C1407 H1377 0.931 . S
C1407 C1404 1.357 . S
C1407 C1408 1.312 . S
C1408 H1379 0.930 . S
C1408 C1403 1.261 . S
C1408 C1407 1.312 . S
C1409 O1381 1.214 . S
C1409 O1389 1.234 . S
C1410 H1382 0.929 . S
C1410 C1413 1.391 . S
C1410 C1415 1.391 . S
C1411 H1383 0.929 . S
C1411 C1412 1.390 . S
C1411 N1414 1.391 . S
C1412 H1384 0.930 . S
C1412 C1411 1.390 . S
C1412 C1413 1.392 . S
C1413 H1385 0.929 . S
C1413 C1410 1.391 . S
C1413 C1412 1.392 . S
N1414 Co1358 2.257 . S
N1414 C1411 1.391 . S
N1414 C1415 1.388 . S
C1415 H1386 0.930 . S
C1415 C1410 1.391 . S
C1415 N1414 1.388 . S
H1416 C1424 0.929 . S
H1417 C1426 0.930 . S
H1418 C1428 0.930 . S
H1419 C1431 0.929 . S
H1420 C1434 0.930 . S
H1421 C1436 0.960 . S
H1422 C1436 0.960 . S
H1423 C1436 0.960 . S
C1424 H1416 0.929 . S
C1424 C1425 1.377 . S
C1424 C1426 1.384 . S
C1425 C1424 1.377 . S
C1425 C1431 1.390 . S
C1426 H1417 0.930 . S
C1426 C1424 1.384 . S
C1426 C1427 1.372 . S
C1427 C1426 1.372 . S
C1427 C1428 1.400 . S
C1427 C1432 1.490 . S
C1428 H1418 0.930 . S
C1428 C1427 1.400 . S
C1428 C1431 1.386 . S
H1429 C1445 0.930 . S
H1430 C1446 0.931 . S
C1431 H1419 0.929 . S
C1431 C1425 1.390 . S
C1431 C1428 1.386 . S
C1432 C1427 1.490 . S
C1432 C1434 1.395 . S
C1432 C1435 1.403 . S
H1433 C1439 0.930 . S
C1434 H1420 0.930 . S
C1434 C1432 1.395 . S
C1434 C1437 1.403 . S
C1435 C1432 1.403 . S
C1435 C1436 1.524 . S
C1435 C1439 1.400 . S
C1436 H1421 0.960 . S
C1436 H1422 0.960 . S
C1436 H1423 0.960 . S
C1436 C1435 1.524 . S
C1437 C1434 1.403 . S
C1437 C1438 1.392 . S
C1437 C1441 1.495 . S
C1438 C1437 1.392 . S
C1438 C1439 1.385 . S
C1438 C1440 1.478 . S
C1439 H1433 0.930 . S
C1439 C1435 1.400 . S
C1439 C1438 1.385 . S
C1440 C1438 1.478 . S
C1440 C1442 1.381 . S
C1440 C1446 1.383 . S
C1441 C1437 1.495 . S
C1441 H1447 0.959 . S
C1441 H1448 0.961 . S
C1441 H1449 0.960 . S
C1442 C1440 1.381 . S
C1442 C1443 1.394 . S
C1442 H1450 0.930 . S
C1443 C1442 1.394 . S
C1443 C1444 1.383 . S
C1443 H1451 0.929 . S
C1444 C1443 1.383 . S
C1444 C1445 1.377 . S
C1445 H1429 0.930 . S
C1445 C1444 1.377 . S
C1445 C1446 1.379 . S
C1446 H1430 0.931 . S
C1446 C1440 1.383 . S
C1446 C1445 1.379 . S
H1447 C1441 0.959 . S
H1448 C1441 0.961 . S
H1449 C1441 0.960 . S
H1450 C1442 0.930 . S
H1451 C1443 0.929 . S
H1452 C1460 0.929 . S
H1453 C1462 0.930 . S
H1454 C1464 0.930 . S
H1455 C1467 0.929 . S
H1456 C1470 0.930 . S
H1457 C1472 0.960 . S
H1458 C1472 0.960 . S
H1459 C1472 0.960 . S
C1460 H1452 0.929 . S
C1460 C1461 1.377 . S
C1460 C1462 1.384 . S
C1461 C1460 1.377 . S
C1461 C1467 1.390 . S
C1462 H1453 0.930 . S
C1462 C1460 1.384 . S
C1462 C1463 1.372 . S
C1463 C1462 1.372 . S
C1463 C1464 1.400 . S
C1463 C1468 1.490 . S
C1464 H1454 0.930 . S
C1464 C1463 1.400 . S
C1464 C1467 1.386 . S
H1465 C1481 0.930 . S
H1466 C1482 0.931 . S
C1467 H1455 0.929 . S
C1467 C1461 1.390 . S
C1467 C1464 1.386 . S
C1468 C1463 1.490 . S
C1468 C1470 1.395 . S
C1468 C1471 1.403 . S
H1469 C1475 0.930 . S
C1470 H1456 0.930 . S
C1470 C1468 1.395 . S
C1470 C1473 1.403 . S
C1471 C1468 1.403 . S
C1471 C1472 1.524 . S
C1471 C1475 1.400 . S
C1472 H1457 0.960 . S
C1472 H1458 0.960 . S
C1472 H1459 0.960 . S
C1472 C1471 1.524 . S
C1473 C1470 1.403 . S
C1473 C1474 1.392 . S
C1473 C1477 1.495 . S
C1474 C1473 1.392 . S
C1474 C1475 1.385 . S
C1474 C1476 1.478 . S
C1475 H1469 0.930 . S
C1475 C1471 1.400 . S
C1475 C1474 1.385 . S
C1476 C1474 1.478 . S
C1476 C1478 1.381 . S
C1476 C1482 1.383 . S
C1477 C1473 1.495 . S
C1477 H1483 0.959 . S
C1477 H1484 0.961 . S
C1477 H1485 0.960 . S
C1478 C1476 1.381 . S
C1478 C1479 1.394 . S
C1478 H1486 0.930 . S
C1479 C1478 1.394 . S
C1479 C1480 1.383 . S
C1479 H1487 0.929 . S
C1480 C1479 1.383 . S
C1480 C1481 1.377 . S
C1481 H1465 0.930 . S
C1481 C1480 1.377 . S
C1481 C1482 1.379 . S
C1482 H1466 0.931 . S
C1482 C1476 1.383 . S
C1482 C1481 1.379 . S
H1483 C1477 0.959 . S
H1484 C1477 0.961 . S
H1485 C1477 0.960 . S
H1486 C1478 0.930 . S
H1487 C1479 0.929 . S
H1488 C1496 0.929 . S
H1489 C1498 0.930 . S
H1490 C1500 0.930 . S
H1491 C1503 0.929 . S
H1492 C1506 0.930 . S
H1493 C1508 0.960 . S
H1494 C1508 0.960 . S
H1495 C1508 0.960 . S
C1496 H1488 0.929 . S
C1496 C1497 1.377 . S
C1496 C1498 1.384 . S
C1497 C1496 1.377 . S
C1497 C1503 1.390 . S
C1498 H1489 0.930 . S
C1498 C1496 1.384 . S
C1498 C1499 1.372 . S
C1499 C1498 1.372 . S
C1499 C1500 1.400 . S
C1499 C1504 1.490 . S
C1500 H1490 0.930 . S
C1500 C1499 1.400 . S
C1500 C1503 1.386 . S
H1501 C1517 0.930 . S
H1502 C1518 0.931 . S
C1503 H1491 0.929 . S
C1503 C1497 1.390 . S
C1503 C1500 1.386 . S
C1504 C1499 1.490 . S
C1504 C1506 1.395 . S
C1504 C1507 1.403 . S
H1505 C1511 0.930 . S
C1506 H1492 0.930 . S
C1506 C1504 1.395 . S
C1506 C1509 1.403 . S
C1507 C1504 1.403 . S
C1507 C1508 1.524 . S
C1507 C1511 1.400 . S
C1508 H1493 0.960 . S
C1508 H1494 0.960 . S
C1508 H1495 0.960 . S
C1508 C1507 1.524 . S
C1509 C1506 1.403 . S
C1509 C1510 1.392 . S
C1509 C1513 1.495 . S
C1510 C1509 1.392 . S
C1510 C1511 1.385 . S
C1510 C1512 1.478 . S
C1511 H1505 0.930 . S
C1511 C1507 1.400 . S
C1511 C1510 1.385 . S
C1512 C1510 1.478 . S
C1512 C1514 1.381 . S
C1512 C1518 1.383 . S
C1513 C1509 1.495 . S
C1513 H1519 0.959 1_655 S
C1513 H1520 0.961 . S
C1513 H1521 0.960 1_655 S
C1514 C1512 1.381 . S
C1514 C1515 1.394 . S
C1514 H1522 0.930 . S
C1515 C1514 1.394 . S
C1515 C1516 1.383 . S
C1515 H1523 0.929 . S
C1516 C1515 1.383 . S
C1516 C1517 1.377 . S
C1517 H1501 0.930 . S
C1517 C1516 1.377 . S
C1517 C1518 1.379 . S
C1518 H1502 0.931 . S
C1518 C1512 1.383 . S
C1518 C1517 1.379 . S
H1519 C1513 0.959 1_455 S
H1520 C1513 0.961 . S
H1521 C1513 0.960 1_455 S
H1522 C1514 0.930 . S
H1523 C1515 0.929 . S
H1524 C1532 0.929 . S
H1525 C1534 0.930 . S
H1526 C1536 0.930 . S
H1527 C1539 0.929 . S
H1528 C1542 0.930 . S
H1529 C1544 0.960 1_545 S
H1530 C1544 0.960 . S
H1531 C1544 0.960 1_545 S
C1532 H1524 0.929 . S
C1532 C1533 1.377 . S
C1532 C1534 1.384 . S
C1533 C1532 1.377 . S
C1533 C1539 1.390 . S
C1534 H1525 0.930 . S
C1534 C1532 1.384 . S
C1534 C1535 1.372 . S
C1535 C1534 1.372 . S
C1535 C1536 1.400 . S
C1535 C1540 1.490 . S
C1536 H1526 0.930 . S
C1536 C1535 1.400 . S
C1536 C1539 1.386 . S
H1537 C1553 0.930 . S
H1538 C1554 0.931 . S
C1539 H1527 0.929 . S
C1539 C1533 1.390 . S
C1539 C1536 1.386 . S
C1540 C1535 1.490 . S
C1540 C1542 1.395 . S
C1540 C1543 1.403 . S
H1541 C1547 0.930 . S
C1542 H1528 0.930 . S
C1542 C1540 1.395 . S
C1542 C1545 1.403 . S
C1543 C1540 1.403 . S
C1543 C1544 1.524 . S
C1543 C1547 1.400 . S
C1544 H1529 0.960 1_565 S
C1544 H1530 0.960 . S
C1544 H1531 0.960 1_565 S
C1544 C1543 1.524 . S
C1545 C1542 1.403 . S
C1545 C1546 1.392 . S
C1545 C1549 1.495 . S
C1546 C1545 1.392 . S
C1546 C1547 1.385 . S
C1546 C1548 1.478 . S
C1547 H1541 0.930 . S
C1547 C1543 1.400 . S
C1547 C1546 1.385 . S
C1548 C1546 1.478 . S
C1548 C1550 1.381 . S
C1548 C1554 1.383 . S
C1549 C1545 1.495 . S
C1549 H1555 0.959 . S
C1549 H1556 0.961 . S
C1549 H1557 0.960 . S
C1550 C1548 1.381 . S
C1550 C1551 1.394 . S
C1550 H1558 0.930 . S
C1551 C1550 1.394 . S
C1551 C1552 1.383 . S
C1551 H1559 0.929 . S
C1552 C1551 1.383 . S
C1552 C1553 1.377 . S
C1553 H1537 0.930 . S
C1553 C1552 1.377 . S
C1553 C1554 1.379 . S
C1554 H1538 0.931 . S
C1554 C1548 1.383 . S
C1554 C1553 1.379 . S
H1555 C1549 0.959 . S
H1556 C1549 0.961 . S
H1557 C1549 0.960 . S
H1558 C1550 0.930 . S
H1559 C1551 0.929 . S
H1560 C1568 0.929 . S
H1561 C1570 0.930 . S
H1562 C1572 0.930 . S
H1563 C1575 0.929 . S
H1564 C1578 0.930 . S
H1565 C1580 0.960 . S
H1566 C1580 0.960 . S
H1567 C1580 0.960 . S
C1568 H1560 0.929 . S
C1568 C1569 1.377 . S
C1568 C1570 1.384 . S
C1569 C1568 1.377 . S
C1569 C1575 1.390 . S
C1570 H1561 0.930 . S
C1570 C1568 1.384 . S
C1570 C1571 1.372 . S
C1571 C1570 1.372 . S
C1571 C1572 1.400 . S
C1571 C1576 1.490 . S
C1572 H1562 0.930 . S
C1572 C1571 1.400 . S
C1572 C1575 1.386 . S
H1573 C1589 0.930 . S
H1574 C1590 0.931 . S
C1575 H1563 0.929 . S
C1575 C1569 1.390 . S
C1575 C1572 1.386 . S
C1576 C1571 1.490 . S
C1576 C1578 1.395 . S
C1576 C1579 1.403 . S
H1577 C1583 0.930 . S
C1578 H1564 0.930 . S
C1578 C1576 1.395 . S
C1578 C1581 1.403 . S
C1579 C1576 1.403 . S
C1579 C1580 1.524 . S
C1579 C1583 1.400 . S
C1580 H1565 0.960 . S
C1580 H1566 0.960 . S
C1580 H1567 0.960 . S
C1580 C1579 1.524 . S
C1581 C1578 1.403 . S
C1581 C1582 1.392 . S
C1581 C1585 1.495 . S
C1582 C1581 1.392 . S
C1582 C1583 1.385 . S
C1582 C1584 1.478 . S
C1583 H1577 0.930 . S
C1583 C1579 1.400 . S
C1583 C1582 1.385 . S
C1584 C1582 1.478 . S
C1584 C1586 1.381 . S
C1584 C1590 1.383 . S
C1585 C1581 1.495 . S
C1585 H1591 0.959 . S
C1585 H1592 0.961 . S
C1585 H1593 0.960 . S
C1586 C1584 1.381 . S
C1586 C1587 1.394 . S
C1586 H1594 0.930 . S
C1587 C1586 1.394 . S
C1587 C1588 1.383 . S
C1587 H1595 0.929 . S
C1588 C1587 1.383 . S
C1588 C1589 1.377 . S
C1589 H1573 0.930 . S
C1589 C1588 1.377 . S
C1589 C1590 1.379 . S
C1590 H1574 0.931 . S
C1590 C1584 1.383 . S
C1590 C1589 1.379 . S
H1591 C1585 0.959 . S
H1592 C1585 0.961 . S
H1593 C1585 0.960 . S
H1594 C1586 0.930 . S
H1595 C1587 0.929 . S
H1596 C1604 0.929 . S
H1597 C1606 0.930 . S
H1598 C1608 0.930 . S
H1599 C1611 0.929 . S
H1600 C1614 0.930 . S
H1601 C1616 0.960 1_655 S
H1602 C1616 0.960 . S
H1603 C1616 0.960 1_655 S
C1604 H1596 0.929 . S
C1604 C1605 1.377 . S
C1604 C1606 1.384 . S
C1605 C1604 1.377 . S
C1605 C1611 1.390 . S
C1606 H1597 0.930 . S
C1606 C1604 1.384 . S
C1606 C1607 1.372 . S
C1607 C1606 1.372 . S
C1607 C1608 1.400 . S
C1607 C1612 1.490 . S
C1608 H1598 0.930 . S
C1608 C1607 1.400 . S
C1608 C1611 1.386 . S
H1609 C1625 0.930 . S
H1610 C1626 0.931 . S
C1611 H1599 0.929 . S
C1611 C1605 1.390 . S
C1611 C1608 1.386 . S
C1612 C1607 1.490 . S
C1612 C1614 1.395 . S
C1612 C1615 1.403 . S
H1613 C1619 0.930 . S
C1614 H1600 0.930 . S
C1614 C1612 1.395 . S
C1614 C1617 1.403 . S
C1615 C1612 1.403 . S
C1615 C1616 1.524 . S
C1615 C1619 1.400 . S
C1616 H1601 0.960 1_455 S
C1616 H1602 0.960 . S
C1616 H1603 0.960 1_455 S
C1616 C1615 1.524 . S
C1617 C1614 1.403 . S
C1617 C1618 1.392 . S
C1617 C1621 1.495 . S
C1618 C1617 1.392 . S
C1618 C1619 1.385 . S
C1618 C1620 1.478 . S
C1619 H1613 0.930 . S
C1619 C1615 1.400 . S
C1619 C1618 1.385 . S
C1620 C1618 1.478 . S
C1620 C1622 1.381 . S
C1620 C1626 1.383 . S
C1621 C1617 1.495 . S
C1621 H1627 0.959 . S
C1621 H1628 0.961 . S
C1621 H1629 0.960 . S
C1622 C1620 1.381 . S
C1622 C1623 1.394 . S
C1622 H1630 0.930 . S
C1623 C1622 1.394 . S
C1623 C1624 1.383 . S
C1623 H1631 0.929 . S
C1624 C1623 1.383 . S
C1624 C1625 1.377 . S
C1625 H1609 0.930 . S
C1625 C1624 1.377 . S
C1625 C1626 1.379 . S
C1626 H1610 0.931 . S
C1626 C1620 1.383 . S
C1626 C1625 1.379 . S
H1627 C1621 0.959 . S
H1628 C1621 0.961 . S
H1629 C1621 0.960 . S
H1630 C1622 0.930 . S
H1631 C1623 0.929 . S
H1632 C1640 0.929 . S
H1633 C1642 0.930 . S
H1634 C1644 0.930 . S
H1635 C1647 0.929 . S
H1636 C1650 0.930 . S
H1637 C1652 0.960 1_455 S
H1638 C1652 0.960 . S
H1639 C1652 0.950 1_455 S
C1640 H1632 0.929 . S
C1640 C1641 1.377 . S
C1640 C1642 1.384 . S
C1641 C1640 1.377 . S
C1641 C1647 1.390 . S
C1642 H1633 0.930 . S
C1642 C1640 1.384 . S
C1642 C1643 1.372 . S
C1643 C1642 1.372 . S
C1643 C1644 1.400 . S
C1643 C1648 1.490 . S
C1644 H1634 0.930 . S
C1644 C1643 1.400 . S
C1644 C1647 1.386 . S
H1645 C1661 0.930 . S
H1646 C1662 0.931 . S
C1647 H1635 0.929 . S
C1647 C1641 1.390 . S
C1647 C1644 1.386 . S
C1648 C1643 1.490 . S
C1648 C1650 1.395 . S
C1648 C1651 1.403 . S
H1649 C1655 0.930 . S
C1650 H1636 0.930 . S
C1650 C1648 1.395 . S
C1650 C1653 1.403 . S
C1651 C1648 1.403 . S
C1651 C1652 1.524 . S
C1651 C1655 1.400 . S
C1652 H1637 0.960 1_655 S
C1652 H1638 0.960 . S
C1652 H1639 0.950 1_655 S
C1652 C1651 1.524 . S
C1653 C1650 1.403 . S
C1653 C1654 1.392 . S
C1653 C1657 1.495 . S
C1654 C1653 1.392 . S
C1654 C1655 1.385 . S
C1654 C1656 1.478 . S
C1655 H1649 0.930 . S
C1655 C1651 1.400 . S
C1655 C1654 1.385 . S
C1656 C1654 1.478 . S
C1656 C1658 1.381 . S
C1656 C1662 1.383 . S
C1657 C1653 1.495 . S
C1657 H1663 0.959 . S
C1657 H1664 0.961 . S
C1657 H1665 0.960 . S
C1658 C1656 1.381 . S
C1658 C1659 1.394 . S
C1658 H1666 0.930 . S
C1659 C1658 1.394 . S
C1659 C1660 1.383 . S
C1659 H1667 0.929 . S
C1660 C1659 1.383 . S
C1660 C1661 1.377 . S
C1661 H1645 0.930 . S
C1661 C1660 1.377 . S
C1661 C1662 1.379 . S
C1662 H1646 0.931 . S
C1662 C1656 1.383 . S
C1662 C1661 1.379 . S
H1663 C1657 0.959 . S
H1664 C1657 0.961 . S
H1665 C1657 0.960 . S
H1666 C1658 0.930 . S
H1667 C1659 0.929 . S
H1668 C1676 0.929 . S
H1669 C1678 0.930 . S
H1670 C1680 0.930 . S
H1671 C1683 0.929 . S
H1672 C1686 0.930 . S
H1673 C1688 0.960 . S
H1674 C1688 0.960 . S
H1675 C1688 0.960 . S
C1676 H1668 0.929 . S
C1676 C1677 1.377 . S
C1676 C1678 1.384 . S
C1677 C1676 1.377 . S
C1677 C1683 1.390 . S
C1678 H1669 0.930 . S
C1678 C1676 1.384 . S
C1678 C1679 1.372 . S
C1679 C1678 1.372 . S
C1679 C1680 1.400 . S
C1679 C1684 1.490 . S
C1680 H1670 0.930 . S
C1680 C1679 1.400 . S
C1680 C1683 1.386 . S
H1681 C1697 0.930 . S
H1682 C1698 0.931 . S
C1683 H1671 0.929 . S
C1683 C1677 1.390 . S
C1683 C1680 1.386 . S
C1684 C1679 1.490 . S
C1684 C1686 1.395 . S
C1684 C1687 1.403 . S
H1685 C1691 0.930 . S
C1686 H1672 0.930 . S
C1686 C1684 1.395 . S
C1686 C1689 1.403 . S
C1687 C1684 1.403 . S
C1687 C1688 1.524 . S
C1687 C1691 1.400 . S
C1688 H1673 0.960 . S
C1688 H1674 0.960 . S
C1688 H1675 0.960 . S
C1688 C1687 1.524 . S
C1689 C1686 1.403 . S
C1689 C1690 1.392 . S
C1689 C1693 1.495 . S
C1690 C1689 1.392 . S
C1690 C1691 1.385 . S
C1690 C1692 1.478 . S
C1691 H1685 0.930 . S
C1691 C1687 1.400 . S
C1691 C1690 1.385 . S
C1692 C1690 1.478 . S
C1692 C1694 1.381 . S
C1692 C1698 1.383 . S
C1693 C1689 1.495 . S
C1693 H1699 0.959 . S
C1693 H1700 0.961 . S
C1693 H1701 0.960 . S
C1694 C1692 1.381 . S
C1694 C1695 1.394 . S
C1694 H1702 0.930 . S
C1695 C1694 1.394 . S
C1695 C1696 1.383 . S
C1695 H1703 0.929 . S
C1696 C1695 1.383 . S
C1696 C1697 1.377 . S
C1697 H1681 0.930 . S
C1697 C1696 1.377 . S
C1697 C1698 1.379 . S
C1698 H1682 0.931 . S
C1698 C1692 1.383 . S
C1698 C1697 1.379 . S
H1699 C1693 0.959 . S
H1700 C1693 0.961 . S
H1701 C1693 0.960 . S
H1702 C1694 0.930 . S
H1703 C1695 0.929 . S
H1704 C1712 0.929 . S
H1705 C1714 0.930 . S
H1706 C1716 0.930 . S
H1707 C1719 0.929 . S
H1708 C1722 0.930 . S
H1709 C1724 0.960 . S
H1710 C1724 0.960 . S
H1711 C1724 0.960 . S
C1712 H1704 0.929 . S
C1712 C1713 1.377 . S
C1712 C1714 1.384 . S
C1713 C1712 1.377 . S
C1713 C1719 1.390 . S
C1714 H1705 0.930 . S
C1714 C1712 1.384 . S
C1714 C1715 1.372 . S
C1715 C1714 1.372 . S
C1715 C1716 1.400 . S
C1715 C1720 1.490 . S
C1716 H1706 0.930 . S
C1716 C1715 1.400 . S
C1716 C1719 1.386 . S
H1717 C1733 0.930 . S
H1718 C1734 0.931 . S
C1719 H1707 0.929 . S
C1719 C1713 1.390 . S
C1719 C1716 1.386 . S
C1720 C1715 1.490 . S
C1720 C1722 1.395 . S
C1720 C1723 1.403 . S
H1721 C1727 0.930 . S
C1722 H1708 0.930 . S
C1722 C1720 1.395 . S
C1722 C1725 1.403 . S
C1723 C1720 1.403 . S
C1723 C1724 1.524 . S
C1723 C1727 1.400 . S
C1724 H1709 0.960 . S
C1724 H1710 0.960 . S
C1724 H1711 0.960 . S
C1724 C1723 1.524 . S
C1725 C1722 1.403 . S
C1725 C1726 1.392 . S
C1725 C1729 1.495 . S
C1726 C1725 1.392 . S
C1726 C1727 1.385 . S
C1726 C1728 1.478 . S
C1727 H1721 0.930 . S
C1727 C1723 1.400 . S
C1727 C1726 1.385 . S
C1728 C1726 1.478 . S
C1728 C1730 1.381 . S
C1728 C1734 1.383 . S
C1729 C1725 1.495 . S
C1729 H1735 0.959 . S
C1729 H1736 0.961 . S
C1729 H1737 0.960 . S
C1730 C1728 1.381 . S
C1730 C1731 1.394 . S
C1730 H1738 0.930 . S
C1731 C1730 1.394 . S
C1731 C1732 1.383 . S
C1731 H1739 0.929 . S
C1732 C1731 1.383 . S
C1732 C1733 1.377 . S
C1733 H1717 0.930 . S
C1733 C1732 1.377 . S
C1733 C1734 1.379 . S
C1734 H1718 0.931 . S
C1734 C1728 1.383 . S
C1734 C1733 1.379 . S
H1735 C1729 0.959 . S
H1736 C1729 0.961 . S
H1737 C1729 0.960 . S
H1738 C1730 0.930 . S
H1739 C1731 0.929 . S
H1740 C1748 0.929 . S
H1741 C1750 0.930 . S
H1742 C1752 0.930 . S
H1743 C1755 0.929 . S
H1744 C1758 0.930 . S
H1745 C1760 0.955 1_655 S
H1746 C1760 0.960 . S
H1747 C1760 0.983 . S
C1748 H1740 0.929 . S
C1748 C1749 1.377 . S
C1748 C1750 1.384 . S
C1749 C1748 1.377 . S
C1749 C1755 1.390 . S
C1750 H1741 0.930 . S
C1750 C1748 1.384 . S
C1750 C1751 1.372 . S
C1751 C1750 1.372 . S
C1751 C1752 1.400 . S
C1751 C1756 1.490 . S
C1752 H1742 0.930 . S
C1752 C1751 1.400 . S
C1752 C1755 1.386 . S
H1753 C1769 0.930 . S
H1754 C1770 0.931 . S
C1755 H1743 0.929 . S
C1755 C1749 1.390 . S
C1755 C1752 1.386 . S
C1756 C1751 1.490 . S
C1756 C1758 1.395 . S
C1756 C1759 1.403 . S
H1757 C1763 0.930 . S
C1758 H1744 0.930 . S
C1758 C1756 1.395 . S
C1758 C1761 1.403 . S
C1759 C1756 1.403 . S
C1759 C1760 1.524 . S
C1759 C1763 1.400 . S
C1760 H1745 0.955 1_455 S
C1760 H1746 0.960 . S
C1760 H1747 0.983 . S
C1760 C1759 1.524 . S
C1761 C1758 1.403 . S
C1761 C1762 1.392 . S
C1761 C1765 1.495 . S
C1762 C1761 1.392 . S
C1762 C1763 1.385 . S
C1762 C1764 1.478 . S
C1763 H1757 0.930 . S
C1763 C1759 1.400 . S
C1763 C1762 1.385 . S
C1764 C1762 1.478 . S
C1764 C1766 1.381 . S
C1764 C1770 1.383 . S
C1765 C1761 1.495 . S
C1765 H1771 0.959 . S
C1765 H1772 0.961 . S
C1765 H1773 0.960 . S
C1766 C1764 1.381 . S
C1766 C1767 1.394 . S
C1766 H1774 0.930 . S
C1767 C1766 1.394 . S
C1767 C1768 1.383 . S
C1767 H1775 0.929 . S
C1768 C1767 1.383 . S
C1768 C1769 1.377 . S
C1769 H1753 0.930 . S
C1769 C1768 1.377 . S
C1769 C1770 1.379 . S
C1770 H1754 0.931 . S
C1770 C1764 1.383 . S
C1770 C1769 1.379 . S
H1771 C1765 0.959 . S
H1772 C1765 0.961 . S
H1773 C1765 0.960 . S
H1774 C1766 0.930 . S
H1775 C1767 0.929 . S
H1776 C1784 0.929 . S
H1777 C1786 0.930 . S
H1778 C1788 0.930 . S
H1779 C1791 0.929 . S
H1780 C1794 0.930 . S
H1781 C1796 0.960 . S
H1782 C1796 0.968 . S
H1783 C1796 0.960 . S
C1784 H1776 0.929 . S
C1784 C1785 1.377 . S
C1784 C1786 1.384 . S
C1785 C1784 1.377 . S
C1785 C1791 1.390 . S
C1786 H1777 0.930 . S
C1786 C1784 1.384 . S
C1786 C1787 1.372 . S
C1787 C1786 1.372 . S
C1787 C1788 1.400 . S
C1787 C1792 1.490 . S
C1788 H1778 0.930 . S
C1788 C1787 1.400 . S
C1788 C1791 1.386 . S
H1789 C1805 0.930 . S
H1790 C1806 0.931 . S
C1791 H1779 0.929 . S
C1791 C1785 1.390 . S
C1791 C1788 1.386 . S
C1792 C1787 1.490 . S
C1792 C1794 1.395 . S
C1792 C1795 1.403 . S
H1793 C1799 0.930 . S
C1794 H1780 0.930 . S
C1794 C1792 1.395 . S
C1794 C1797 1.403 . S
C1795 C1792 1.403 . S
C1795 C1796 1.524 . S
C1795 C1799 1.400 . S
C1796 H1781 0.960 . S
C1796 H1782 0.968 . S
C1796 H1783 0.960 . S
C1796 C1795 1.524 . S
C1797 C1794 1.403 . S
C1797 C1798 1.392 . S
C1797 C1801 1.495 . S
C1798 C1797 1.392 . S
C1798 C1799 1.385 . S
C1798 C1800 1.478 . S
C1799 H1793 0.930 . S
C1799 C1795 1.400 . S
C1799 C1798 1.385 . S
C1800 C1798 1.478 . S
C1800 C1802 1.381 . S
C1800 C1806 1.383 . S
C1801 C1797 1.495 . S
C1801 H1807 0.959 . S
C1801 H1808 0.961 . S
C1801 H1809 0.960 . S
C1802 C1800 1.381 . S
C1802 C1803 1.394 . S
C1802 H1810 0.930 . S
C1803 C1802 1.394 . S
C1803 C1804 1.383 . S
C1803 H1811 0.929 . S
C1804 C1803 1.383 . S
C1804 C1805 1.377 . S
C1805 H1789 0.930 . S
C1805 C1804 1.377 . S
C1805 C1806 1.379 . S
C1806 H1790 0.931 . S
C1806 C1800 1.383 . S
C1806 C1805 1.379 . S
H1807 C1801 0.959 . S
H1808 C1801 0.961 . S
H1809 C1801 0.960 . S
H1810 C1802 0.930 . S
H1811 C1803 0.929 . S
H1812 C1820 0.929 . S
H1813 C1822 0.930 . S
H1814 C1824 0.930 . S
H1815 C1827 0.929 . S
H1816 C1830 0.930 . S
H1817 C1832 0.960 . S
H1818 C1832 0.960 . S
H1819 C1832 0.960 . S
C1820 H1812 0.929 . S
C1820 C1821 1.377 . S
C1820 C1822 1.384 . S
C1821 C1820 1.377 . S
C1821 C1827 1.390 . S
C1822 H1813 0.930 . S
C1822 C1820 1.384 . S
C1822 C1823 1.372 . S
C1823 C1822 1.372 . S
C1823 C1824 1.400 . S
C1823 C1828 1.490 . S
C1824 H1814 0.930 . S
C1824 C1823 1.400 . S
C1824 C1827 1.386 . S
H1825 C1841 0.930 . S
H1826 C1842 0.931 . S
C1827 H1815 0.929 . S
C1827 C1821 1.390 . S
C1827 C1824 1.386 . S
C1828 C1823 1.490 . S
C1828 C1830 1.395 . S
C1828 C1831 1.403 . S
H1829 C1835 0.930 . S
C1830 H1816 0.930 . S
C1830 C1828 1.395 . S
C1830 C1833 1.403 . S
C1831 C1828 1.403 . S
C1831 C1832 1.524 . S
C1831 C1835 1.400 . S
C1832 H1817 0.960 . S
C1832 H1818 0.960 . S
C1832 H1819 0.960 . S
C1832 C1831 1.524 . S
C1833 C1830 1.403 . S
C1833 C1834 1.392 . S
C1833 C1837 1.495 . S
C1834 C1833 1.392 . S
C1834 C1835 1.385 . S
C1834 C1836 1.478 . S
C1835 H1829 0.930 . S
C1835 C1831 1.400 . S
C1835 C1834 1.385 . S
C1836 C1834 1.478 . S
C1836 C1838 1.381 . S
C1836 C1842 1.383 . S
C1837 C1833 1.495 . S
C1837 H1843 0.959 . S
C1837 H1844 0.961 . S
C1837 H1845 0.960 . S
C1838 C1836 1.381 . S
C1838 C1839 1.394 . S
C1838 H1846 0.930 . S
C1839 C1838 1.394 . S
C1839 C1840 1.383 . S
C1839 H1847 0.929 . S
C1840 C1839 1.383 . S
C1840 C1841 1.377 . S
C1841 H1825 0.930 . S
C1841 C1840 1.377 . S
C1841 C1842 1.379 . S
C1842 H1826 0.931 . S
C1842 C1836 1.383 . S
C1842 C1841 1.379 . S
H1843 C1837 0.959 . S
H1844 C1837 0.961 . S
H1845 C1837 0.960 . S
H1846 C1838 0.930 . S
H1847 C1839 0.929 . S
H1848 C1856 0.929 . S
H1849 C1858 0.930 . S
H1850 C1860 0.930 . S
H1851 C1863 0.929 . S
H1852 C1866 0.930 . S
H1853 C1868 0.960 . S
H1854 C1868 0.960 . S
H1855 C1868 0.960 . S
C1856 H1848 0.929 . S
C1856 C1857 1.377 . S
C1856 C1858 1.384 . S
C1857 C1856 1.377 . S
C1857 C1863 1.390 . S
C1858 H1849 0.930 . S
C1858 C1856 1.384 . S
C1858 C1859 1.372 . S
C1859 C1858 1.372 . S
C1859 C1860 1.400 . S
C1859 C1864 1.490 . S
C1860 H1850 0.930 . S
C1860 C1859 1.400 . S
C1860 C1863 1.386 . S
H1861 C1877 0.930 . S
H1862 C1878 0.931 . S
C1863 H1851 0.929 . S
C1863 C1857 1.390 . S
C1863 C1860 1.386 . S
C1864 C1859 1.490 . S
C1864 C1866 1.395 . S
C1864 C1867 1.403 . S
H1865 C1871 0.930 . S
C1866 H1852 0.930 . S
C1866 C1864 1.395 . S
C1866 C1869 1.403 . S
C1867 C1864 1.403 . S
C1867 C1868 1.524 . S
C1867 C1871 1.400 . S
C1868 H1853 0.960 . S
C1868 H1854 0.960 . S
C1868 H1855 0.960 . S
C1868 C1867 1.524 . S
C1869 C1866 1.403 . S
C1869 C1870 1.392 . S
C1869 C1873 1.495 . S
C1870 C1869 1.392 . S
C1870 C1871 1.385 . S
C1870 C1872 1.478 . S
C1871 H1865 0.930 . S
C1871 C1867 1.400 . S
C1871 C1870 1.385 . S
C1872 C1870 1.478 . S
C1872 C1874 1.381 . S
C1872 C1878 1.383 . S
C1873 C1869 1.495 . S
C1873 H1879 0.959 . S
C1873 H1880 0.961 . S
C1873 H1881 0.960 . S
C1874 C1872 1.381 . S
C1874 C1875 1.394 . S
C1874 H1882 0.930 . S
C1875 C1874 1.394 . S
C1875 C1876 1.383 . S
C1875 H1883 0.929 . S
C1876 C1875 1.383 . S
C1876 C1877 1.377 . S
C1877 H1861 0.930 . S
C1877 C1876 1.377 . S
C1877 C1878 1.379 . S
C1878 H1862 0.931 . S
C1878 C1872 1.383 . S
C1878 C1877 1.379 . S
H1879 C1873 0.959 . S
H1880 C1873 0.961 . S
H1881 C1873 0.960 . S
H1882 C1874 0.930 . S
H1883 C1875 0.929 . S
H1884 C1892 0.929 . S
H1885 C1894 0.930 . S
H1886 C1896 0.930 . S
H1887 C1899 0.929 . S
H1888 C1902 0.930 . S
H1889 C1904 0.960 . S
H1890 C1904 0.960 . S
H1891 C1904 0.960 . S
C1892 H1884 0.929 . S
C1892 C1893 1.377 . S
C1892 C1894 1.384 . S
C1893 C1892 1.377 . S
C1893 C1899 1.390 . S
C1894 H1885 0.930 . S
C1894 C1892 1.384 . S
C1894 C1895 1.372 . S
C1895 C1894 1.372 . S
C1895 C1896 1.400 . S
C1895 C1900 1.490 . S
C1896 H1886 0.930 . S
C1896 C1895 1.400 . S
C1896 C1899 1.386 . S
H1897 C1913 0.930 . S
H1898 C1914 0.931 . S
C1899 H1887 0.929 . S
C1899 C1893 1.390 . S
C1899 C1896 1.386 . S
C1900 C1895 1.490 . S
C1900 C1902 1.395 . S
C1900 C1903 1.403 . S
H1901 C1907 0.930 . S
C1902 H1888 0.930 . S
C1902 C1900 1.395 . S
C1902 C1905 1.403 . S
C1903 C1900 1.403 . S
C1903 C1904 1.524 . S
C1903 C1907 1.400 . S
C1904 H1889 0.960 . S
C1904 H1890 0.960 . S
C1904 H1891 0.960 . S
C1904 C1903 1.524 . S
C1905 C1902 1.403 . S
C1905 C1906 1.392 . S
C1905 C1909 1.495 . S
C1906 C1905 1.392 . S
C1906 C1907 1.385 . S
C1906 C1908 1.478 . S
C1907 H1901 0.930 . S
C1907 C1903 1.400 . S
C1907 C1906 1.385 . S
C1908 C1906 1.478 . S
C1908 C1910 1.381 . S
C1908 C1914 1.383 . S
C1909 C1905 1.495 . S
C1909 H1915 0.959 . S
C1909 H1916 0.961 . S
C1909 H1917 0.960 . S
C1910 C1908 1.381 . S
C1910 C1911 1.394 . S
C1910 H1918 0.930 . S
C1911 C1910 1.394 . S
C1911 C1912 1.383 . S
C1911 H1919 0.929 . S
C1912 C1911 1.383 . S
C1912 C1913 1.377 . S
C1913 H1897 0.930 . S
C1913 C1912 1.377 . S
C1913 C1914 1.379 . S
C1914 H1898 0.931 . S
C1914 C1908 1.383 . S
C1914 C1913 1.379 . S
H1915 C1909 0.959 . S
H1916 C1909 0.961 . S
H1917 C1909 0.960 . S
H1918 C1910 0.930 . S
H1919 C1911 0.929 . S
H1920 C1928 0.929 . S
H1921 C1930 0.930 . S
H1922 C1932 0.930 . S
H1923 C1935 0.929 . S
H1924 C1938 0.930 . S
H1925 C1940 0.960 . S
H1926 C1940 0.960 . S
H1927 C1940 0.960 . S
C1928 H1920 0.929 . S
C1928 C1929 1.377 . S
C1928 C1930 1.384 . S
C1929 C1928 1.377 . S
C1929 C1935 1.390 . S
C1930 H1921 0.930 . S
C1930 C1928 1.384 . S
C1930 C1931 1.372 . S
C1931 C1930 1.372 . S
C1931 C1932 1.400 . S
C1931 C1936 1.490 . S
C1932 H1922 0.930 . S
C1932 C1931 1.400 . S
C1932 C1935 1.386 . S
H1933 C1949 0.930 . S
H1934 C1950 0.931 . S
C1935 H1923 0.929 . S
C1935 C1929 1.390 . S
C1935 C1932 1.386 . S
C1936 C1931 1.490 . S
C1936 C1938 1.395 . S
C1936 C1939 1.403 . S
H1937 C1943 0.930 . S
C1938 H1924 0.930 . S
C1938 C1936 1.395 . S
C1938 C1941 1.403 . S
C1939 C1936 1.403 . S
C1939 C1940 1.524 . S
C1939 C1943 1.400 . S
C1940 H1925 0.960 . S
C1940 H1926 0.960 . S
C1940 H1927 0.960 . S
C1940 C1939 1.524 . S
C1941 C1938 1.403 . S
C1941 C1942 1.392 . S
C1941 C1945 1.495 . S
C1942 C1941 1.392 . S
C1942 C1943 1.385 . S
C1942 C1944 1.478 . S
C1943 H1937 0.930 . S
C1943 C1939 1.400 . S
C1943 C1942 1.385 . S
C1944 C1942 1.478 . S
C1944 C1946 1.381 . S
C1944 C1950 1.383 . S
C1945 C1941 1.495 . S
C1945 H1951 0.959 . S
C1945 H1952 0.961 . S
C1945 H1953 0.960 . S
C1946 C1944 1.381 . S
C1946 C1947 1.394 . S
C1946 H1954 0.930 . S
C1947 C1946 1.394 . S
C1947 C1948 1.383 . S
C1947 H1955 0.929 . S
C1948 C1947 1.383 . S
C1948 C1949 1.377 . S
C1949 H1933 0.930 . S
C1949 C1948 1.377 . S
C1949 C1950 1.379 . S
C1950 H1934 0.931 . S
C1950 C1944 1.383 . S
C1950 C1949 1.379 . S
H1951 C1945 0.959 . S
H1952 C1945 0.961 . S
H1953 C1945 0.960 . S
H1954 C1946 0.930 . S
H1955 C1947 0.929 . S
H1956 C1964 0.929 . S
H1957 C1966 0.930 . S
H1958 C1968 0.930 . S
H1959 C1971 0.929 . S
H1960 C1974 0.930 . S
H1961 C1976 0.960 . S
H1962 C1976 0.960 . S
H1963 C1976 0.960 . S
C1964 H1956 0.929 . S
C1964 C1965 1.377 . S
C1964 C1966 1.384 . S
C1965 C1964 1.377 . S
C1965 C1971 1.390 . S
C1966 H1957 0.930 . S
C1966 C1964 1.384 . S
C1966 C1967 1.372 . S
C1967 C1966 1.372 . S
C1967 C1968 1.400 . S
C1967 C1972 1.490 . S
C1968 H1958 0.930 . S
C1968 C1967 1.400 . S
C1968 C1971 1.386 . S
H1969 C1985 0.930 . S
H1970 C1986 0.931 . S
C1971 H1959 0.929 . S
C1971 C1965 1.390 . S
C1971 C1968 1.386 . S
C1972 C1967 1.490 . S
C1972 C1974 1.395 . S
C1972 C1975 1.403 . S
H1973 C1979 0.930 . S
C1974 H1960 0.930 . S
C1974 C1972 1.395 . S
C1974 C1977 1.403 . S
C1975 C1972 1.403 . S
C1975 C1976 1.524 . S
C1975 C1979 1.400 . S
C1976 H1961 0.960 . S
C1976 H1962 0.960 . S
C1976 H1963 0.960 . S
C1976 C1975 1.524 . S
C1977 C1974 1.403 . S
C1977 C1978 1.392 . S
C1977 C1981 1.495 . S
C1978 C1977 1.392 . S
C1978 C1979 1.385 . S
C1978 C1980 1.478 . S
C1979 H1973 0.930 . S
C1979 C1975 1.400 . S
C1979 C1978 1.385 . S
C1980 C1978 1.478 . S
C1980 C1982 1.381 . S
C1980 C1986 1.383 . S
C1981 C1977 1.495 . S
C1981 H1987 0.959 . S
C1981 H1988 0.961 . S
C1981 H1989 0.960 . S
C1982 C1980 1.381 . S
C1982 C1983 1.394 . S
C1982 H1990 0.930 . S
C1983 C1982 1.394 . S
C1983 C1984 1.383 . S
C1983 H1991 0.929 . S
C1984 C1983 1.383 . S
C1984 C1985 1.377 . S
C1985 H1969 0.930 . S
C1985 C1984 1.377 . S
C1985 C1986 1.379 . S
C1986 H1970 0.931 . S
C1986 C1980 1.383 . S
C1986 C1985 1.379 . S
H1987 C1981 0.959 . S
H1988 C1981 0.961 . S
H1989 C1981 0.960 . S
H1990 C1982 0.930 . S
H1991 C1983 0.929 . S
H1992 C2000 0.929 . S
H1993 C2002 0.930 . S
H1994 C2004 0.930 . S
H1995 C2007 0.929 . S
H1996 C2010 0.930 . S
H1997 C2012 0.960 . S
H1998 C2012 0.960 . S
H1999 C2012 0.960 . S
C2000 H1992 0.929 . S
C2000 C2001 1.377 . S
C2000 C2002 1.384 . S
C2001 C2000 1.377 . S
C2001 C2007 1.390 . S
C2002 H1993 0.930 . S
C2002 C2000 1.384 . S
C2002 C2003 1.372 . S
C2003 C2002 1.372 . S
C2003 C2004 1.400 . S
C2003 C2008 1.490 . S
C2004 H1994 0.930 . S
C2004 C2003 1.400 . S
C2004 C2007 1.386 . S
H2005 C2021 0.930 . S
H2006 C2022 0.931 . S
C2007 H1995 0.929 . S
C2007 C2001 1.390 . S
C2007 C2004 1.386 . S
C2008 C2003 1.490 . S
C2008 C2010 1.395 . S
C2008 C2011 1.403 . S
H2009 C2015 0.930 . S
C2010 H1996 0.930 . S
C2010 C2008 1.395 . S
C2010 C2013 1.403 . S
C2011 C2008 1.403 . S
C2011 C2012 1.524 . S
C2011 C2015 1.400 . S
C2012 H1997 0.960 . S
C2012 H1998 0.960 . S
C2012 H1999 0.960 . S
C2012 C2011 1.524 . S
C2013 C2010 1.403 . S
C2013 C2014 1.392 . S
C2013 C2017 1.495 . S
C2014 C2013 1.392 . S
C2014 C2015 1.385 . S
C2014 C2016 1.478 . S
C2015 H2009 0.930 . S
C2015 C2011 1.400 . S
C2015 C2014 1.385 . S
C2016 C2014 1.478 . S
C2016 C2018 1.381 . S
C2016 C2022 1.383 . S
C2017 C2013 1.495 . S
C2017 H2023 0.959 . S
C2017 H2024 0.961 . S
C2017 H2025 0.960 . S
C2018 C2016 1.381 . S
C2018 C2019 1.394 . S
C2018 H2026 0.930 . S
C2019 C2018 1.394 . S
C2019 C2020 1.383 . S
C2019 H2027 0.929 . S
C2020 C2019 1.383 . S
C2020 C2021 1.377 . S
C2021 H2005 0.930 . S
C2021 C2020 1.377 . S
C2021 C2022 1.379 . S
C2022 H2006 0.931 . S
C2022 C2016 1.383 . S
C2022 C2021 1.379 . S
H2023 C2017 0.959 . S
H2024 C2017 0.961 . S
H2025 C2017 0.960 . S
H2026 C2018 0.930 . S
H2027 C2019 0.929 . S
H2028 C2036 0.929 . S
H2029 C2038 0.930 . S
H2030 C2040 0.930 . S
H2031 C2043 0.929 . S
H2032 C2046 0.930 . S
H2033 C2048 0.960 . S
H2034 C2048 0.960 . S
H2035 C2048 0.960 . S
C2036 H2028 0.929 . S
C2036 C2037 1.377 . S
C2036 C2038 1.384 . S
C2037 C2036 1.377 . S
C2037 C2043 1.390 . S
C2038 H2029 0.930 . S
C2038 C2036 1.384 . S
C2038 C2039 1.372 . S
C2039 C2038 1.372 . S
C2039 C2040 1.400 . S
C2039 C2044 1.490 . S
C2040 H2030 0.930 . S
C2040 C2039 1.400 . S
C2040 C2043 1.386 . S
H2041 C2057 0.930 . S
H2042 C2058 0.931 . S
C2043 H2031 0.929 . S
C2043 C2037 1.390 . S
C2043 C2040 1.386 . S
C2044 C2039 1.490 . S
C2044 C2046 1.395 . S
C2044 C2047 1.403 . S
H2045 C2051 0.930 . S
C2046 H2032 0.930 . S
C2046 C2044 1.395 . S
C2046 C2049 1.403 . S
C2047 C2044 1.403 . S
C2047 C2048 1.524 . S
C2047 C2051 1.400 . S
C2048 H2033 0.960 . S
C2048 H2034 0.960 . S
C2048 H2035 0.960 . S
C2048 C2047 1.524 . S
C2049 C2046 1.403 . S
C2049 C2050 1.392 . S
C2049 C2053 1.495 . S
C2050 C2049 1.392 . S
C2050 C2051 1.385 . S
C2050 C2052 1.478 . S
C2051 H2045 0.930 . S
C2051 C2047 1.400 . S
C2051 C2050 1.385 . S
C2052 C2050 1.478 . S
C2052 C2054 1.381 . S
C2052 C2058 1.383 . S
C2053 C2049 1.495 . S
C2053 H2059 0.959 . S
C2053 H2060 0.961 . S
C2053 H2061 0.960 . S
C2054 C2052 1.381 . S
C2054 C2055 1.394 . S
C2054 H2062 0.930 . S
C2055 C2054 1.394 . S
C2055 C2056 1.383 . S
C2055 H2063 0.929 . S
C2056 C2055 1.383 . S
C2056 C2057 1.377 . S
C2057 H2041 0.930 . S
C2057 C2056 1.377 . S
C2057 C2058 1.379 . S
C2058 H2042 0.931 . S
C2058 C2052 1.383 . S
C2058 C2057 1.379 . S
H2059 C2053 0.959 . S
H2060 C2053 0.961 . S
H2061 C2053 0.960 . S
H2062 C2054 0.930 . S
H2063 C2055 0.929 . S
H2064 C2072 0.929 . S
H2065 C2074 0.930 . S
H2066 C2076 0.930 . S
H2067 C2079 0.929 . S
H2068 C2082 0.930 . S
H2069 C2084 0.960 . S
H2070 C2084 0.960 . S
H2071 C2084 0.960 . S
C2072 H2064 0.929 . S
C2072 C2073 1.377 . S
C2072 C2074 1.384 . S
C2073 C2072 1.377 . S
C2073 C2079 1.390 . S
C2074 H2065 0.930 . S
C2074 C2072 1.384 . S
C2074 C2075 1.372 . S
C2075 C2074 1.372 . S
C2075 C2076 1.400 . S
C2075 C2080 1.490 . S
C2076 H2066 0.930 . S
C2076 C2075 1.400 . S
C2076 C2079 1.386 . S
H2077 C2093 0.930 . S
H2078 C2094 0.931 . S
C2079 H2067 0.929 . S
C2079 C2073 1.390 . S
C2079 C2076 1.386 . S
C2080 C2075 1.490 . S
C2080 C2082 1.395 . S
C2080 C2083 1.403 . S
H2081 C2087 0.930 . S
C2082 H2068 0.930 . S
C2082 C2080 1.395 . S
C2082 C2085 1.403 . S
C2083 C2080 1.403 . S
C2083 C2084 1.524 . S
C2083 C2087 1.400 . S
C2084 H2069 0.960 . S
C2084 H2070 0.960 . S
C2084 H2071 0.960 . S
C2084 C2083 1.524 . S
C2085 C2082 1.403 . S
C2085 C2086 1.392 . S
C2085 C2089 1.495 . S
C2086 C2085 1.392 . S
C2086 C2087 1.385 . S
C2086 C2088 1.478 . S
C2087 H2081 0.930 . S
C2087 C2083 1.400 . S
C2087 C2086 1.385 . S
C2088 C2086 1.478 . S
C2088 C2090 1.381 . S
C2088 C2094 1.383 . S
C2089 C2085 1.495 . S
C2089 H2095 0.959 . S
C2089 H2096 0.961 . S
C2089 H2097 0.960 . S
C2090 C2088 1.381 . S
C2090 C2091 1.394 . S
C2090 H2098 0.930 . S
C2091 C2090 1.394 . S
C2091 C2092 1.383 . S
C2091 H2099 0.929 . S
C2092 C2091 1.383 . S
C2092 C2093 1.377 . S
C2093 H2077 0.930 . S
C2093 C2092 1.377 . S
C2093 C2094 1.379 . S
C2094 H2078 0.931 . S
C2094 C2088 1.383 . S
C2094 C2093 1.379 . S
H2095 C2089 0.959 . S
H2096 C2089 0.961 . S
H2097 C2089 0.960 . S
H2098 C2090 0.930 . S
H2099 C2091 0.929 . S
H2100 C2108 0.929 . S
H2101 C2110 0.930 . S
H2102 C2112 0.930 . S
H2103 C2115 0.929 . S
H2104 C2118 0.930 . S
H2105 C2120 0.960 . S
H2106 C2120 0.960 . S
H2107 C2120 0.960 . S
C2108 H2100 0.929 . S
C2108 C2109 1.377 . S
C2108 C2110 1.384 . S
C2109 C2108 1.377 . S
C2109 C2115 1.390 . S
C2110 H2101 0.930 . S
C2110 C2108 1.384 . S
C2110 C2111 1.372 . S
C2111 C2110 1.372 . S
C2111 C2112 1.400 . S
C2111 C2116 1.490 . S
C2112 H2102 0.930 . S
C2112 C2111 1.400 . S
C2112 C2115 1.386 . S
H2113 C2129 0.930 . S
H2114 C2130 0.931 . S
C2115 H2103 0.929 . S
C2115 C2109 1.390 . S
C2115 C2112 1.386 . S
C2116 C2111 1.490 . S
C2116 C2118 1.395 . S
C2116 C2119 1.403 . S
H2117 C2123 0.930 . S
C2118 H2104 0.930 . S
C2118 C2116 1.395 . S
C2118 C2121 1.403 . S
C2119 C2116 1.403 . S
C2119 C2120 1.524 . S
C2119 C2123 1.400 . S
C2120 H2105 0.960 . S
C2120 H2106 0.960 . S
C2120 H2107 0.960 . S
C2120 C2119 1.524 . S
C2121 C2118 1.403 . S
C2121 C2122 1.392 . S
C2121 C2125 1.495 . S
C2122 C2121 1.392 . S
C2122 C2123 1.385 . S
C2122 C2124 1.478 . S
C2123 H2117 0.930 . S
C2123 C2119 1.400 . S
C2123 C2122 1.385 . S
C2124 C2122 1.478 . S
C2124 C2126 1.381 . S
C2124 C2130 1.383 . S
C2125 C2121 1.495 . S
C2125 H2131 0.959 . S
C2125 H2132 0.961 . S
C2125 H2133 0.960 . S
C2126 C2124 1.381 . S
C2126 C2127 1.394 . S
C2126 H2134 0.930 . S
C2127 C2126 1.394 . S
C2127 C2128 1.383 . S
C2127 H2135 0.929 . S
C2128 C2127 1.383 . S
C2128 C2129 1.377 . S
C2129 H2113 0.930 . S
C2129 C2128 1.377 . S
C2129 C2130 1.379 . S
C2130 H2114 0.931 . S
C2130 C2124 1.383 . S
C2130 C2129 1.379 . S
H2131 C2125 0.959 . S
H2132 C2125 0.961 . S
H2133 C2125 0.960 . S
H2134 C2126 0.930 . S
H2135 C2127 0.929 . S
H2136 C2144 0.929 . S
H2137 C2146 0.930 . S
H2138 C2148 0.930 . S
H2139 C2151 0.929 . S
H2140 C2154 0.930 . S
H2141 C2156 0.960 . S
H2142 C2156 0.960 . S
H2143 C2156 0.960 . S
C2144 H2136 0.929 . S
C2144 C2145 1.377 . S
C2144 C2146 1.384 . S
C2145 C2144 1.377 . S
C2145 C2151 1.390 . S
C2146 H2137 0.930 . S
C2146 C2144 1.384 . S
C2146 C2147 1.372 . S
C2147 C2146 1.372 . S
C2147 C2148 1.400 . S
C2147 C2152 1.490 . S
C2148 H2138 0.930 . S
C2148 C2147 1.400 . S
C2148 C2151 1.386 . S
H2149 C2165 0.930 . S
H2150 C2166 0.931 . S
C2151 H2139 0.929 . S
C2151 C2145 1.390 . S
C2151 C2148 1.386 . S
C2152 C2147 1.490 . S
C2152 C2154 1.395 . S
C2152 C2155 1.403 . S
H2153 C2159 0.930 . S
C2154 H2140 0.930 . S
C2154 C2152 1.395 . S
C2154 C2157 1.403 . S
C2155 C2152 1.403 . S
C2155 C2156 1.524 . S
C2155 C2159 1.400 . S
C2156 H2141 0.960 . S
C2156 H2142 0.960 . S
C2156 H2143 0.960 . S
C2156 C2155 1.524 . S
C2157 C2154 1.403 . S
C2157 C2158 1.392 . S
C2157 C2161 1.495 . S
C2158 C2157 1.392 . S
C2158 C2159 1.385 . S
C2158 C2160 1.478 . S
C2159 H2153 0.930 . S
C2159 C2155 1.400 . S
C2159 C2158 1.385 . S
C2160 C2158 1.478 . S
C2160 C2162 1.381 . S
C2160 C2166 1.383 . S
C2161 C2157 1.495 . S
C2161 H2167 0.959 . S
C2161 H2168 0.961 . S
C2161 H2169 0.960 . S
C2162 C2160 1.381 . S
C2162 C2163 1.394 . S
C2162 H2170 0.930 . S
C2163 C2162 1.394 . S
C2163 C2164 1.383 . S
C2163 H2171 0.929 . S
C2164 C2163 1.383 . S
C2164 C2165 1.377 . S
C2165 H2149 0.930 . S
C2165 C2164 1.377 . S
C2165 C2166 1.379 . S
C2166 H2150 0.931 . S
C2166 C2160 1.383 . S
C2166 C2165 1.379 . S
H2167 C2161 0.959 . S
H2168 C2161 0.961 . S
H2169 C2161 0.960 . S
H2170 C2162 0.930 . S
H2171 C2163 0.929 . S
H2172 C2180 0.929 . S
H2173 C2182 0.930 . S
H2174 C2184 0.930 . S
H2175 C2187 0.929 . S
H2176 C2190 0.930 . S
H2177 C2192 0.960 . S
H2178 C2192 0.960 . S
H2179 C2192 0.960 . S
C2180 H2172 0.929 . S
C2180 C2181 1.377 . S
C2180 C2182 1.384 . S
C2181 C2180 1.377 . S
C2181 C2187 1.390 . S
C2182 H2173 0.930 . S
C2182 C2180 1.384 . S
C2182 C2183 1.372 . S
C2183 C2182 1.372 . S
C2183 C2184 1.400 . S
C2183 C2188 1.490 . S
C2184 H2174 0.930 . S
C2184 C2183 1.400 . S
C2184 C2187 1.386 . S
H2185 C2201 0.930 . S
H2186 C2202 0.931 . S
C2187 H2175 0.929 . S
C2187 C2181 1.390 . S
C2187 C2184 1.386 . S
C2188 C2183 1.490 . S
C2188 C2190 1.395 . S
C2188 C2191 1.403 . S
H2189 C2195 0.930 . S
C2190 H2176 0.930 . S
C2190 C2188 1.395 . S
C2190 C2193 1.403 . S
C2191 C2188 1.403 . S
C2191 C2192 1.524 . S
C2191 C2195 1.400 . S
C2192 H2177 0.960 . S
C2192 H2178 0.960 . S
C2192 H2179 0.960 . S
C2192 C2191 1.524 . S
C2193 C2190 1.403 . S
C2193 C2194 1.392 . S
C2193 C2197 1.495 . S
C2194 C2193 1.392 . S
C2194 C2195 1.385 . S
C2194 C2196 1.478 . S
C2195 H2189 0.930 . S
C2195 C2191 1.400 . S
C2195 C2194 1.385 . S
C2196 C2194 1.478 . S
C2196 C2198 1.381 . S
C2196 C2202 1.383 . S
C2197 C2193 1.495 . S
C2197 H2203 0.959 . S
C2197 H2204 0.961 . S
C2197 H2205 0.960 . S
C2198 C2196 1.381 . S
C2198 C2199 1.394 . S
C2198 H2206 0.930 . S
C2199 C2198 1.394 . S
C2199 C2200 1.383 . S
C2199 H2207 0.929 . S
C2200 C2199 1.383 . S
C2200 C2201 1.377 . S
C2201 H2185 0.930 . S
C2201 C2200 1.377 . S
C2201 C2202 1.379 . S
C2202 H2186 0.931 . S
C2202 C2196 1.383 . S
C2202 C2201 1.379 . S
H2203 C2197 0.959 . S
H2204 C2197 0.961 . S
H2205 C2197 0.960 . S
H2206 C2198 0.930 . S
H2207 C2199 0.929 . S
H2208 C2216 0.929 . S
H2209 C2218 0.930 . S
H2210 C2220 0.930 . S
H2211 C2223 0.929 . S
H2212 C2226 0.930 . S
H2213 C2228 0.960 . S
H2214 C2228 0.960 . S
H2215 C2228 0.960 . S
C2216 H2208 0.929 . S
C2216 C2217 1.377 . S
C2216 C2218 1.384 . S
C2217 C2216 1.377 . S
C2217 C2223 1.390 . S
C2218 H2209 0.930 . S
C2218 C2216 1.384 . S
C2218 C2219 1.372 . S
C2219 C2218 1.372 . S
C2219 C2220 1.400 . S
C2219 C2224 1.490 . S
C2220 H2210 0.930 . S
C2220 C2219 1.400 . S
C2220 C2223 1.386 . S
H2221 C2237 0.930 . S
H2222 C2238 0.931 . S
C2223 H2211 0.929 . S
C2223 C2217 1.390 . S
C2223 C2220 1.386 . S
C2224 C2219 1.490 . S
C2224 C2226 1.395 . S
C2224 C2227 1.403 . S
H2225 C2231 0.930 . S
C2226 H2212 0.930 . S
C2226 C2224 1.395 . S
C2226 C2229 1.403 . S
C2227 C2224 1.403 . S
C2227 C2228 1.524 . S
C2227 C2231 1.400 . S
C2228 H2213 0.960 . S
C2228 H2214 0.960 . S
C2228 H2215 0.960 . S
C2228 C2227 1.524 . S
C2229 C2226 1.403 . S
C2229 C2230 1.392 . S
C2229 C2233 1.495 . S
C2230 C2229 1.392 . S
C2230 C2231 1.385 . S
C2230 C2232 1.478 . S
C2231 H2225 0.930 . S
C2231 C2227 1.400 . S
C2231 C2230 1.385 . S
C2232 C2230 1.478 . S
C2232 C2234 1.381 . S
C2232 C2238 1.383 . S
C2233 C2229 1.495 . S
C2233 H2239 0.959 . S
C2233 H2240 0.961 . S
C2233 H2241 0.960 . S
C2234 C2232 1.381 . S
C2234 C2235 1.394 . S
C2234 H2242 0.930 . S
C2235 C2234 1.394 . S
C2235 C2236 1.383 . S
C2235 H2243 0.929 . S
C2236 C2235 1.383 . S
C2236 C2237 1.377 . S
C2237 H2221 0.930 . S
C2237 C2236 1.377 . S
C2237 C2238 1.379 . S
C2238 H2222 0.931 . S
C2238 C2232 1.383 . S
C2238 C2237 1.379 . S
H2239 C2233 0.959 . S
H2240 C2233 0.961 . S
H2241 C2233 0.960 . S
H2242 C2234 0.930 . S
H2243 C2235 0.929 . S
H2244 C2252 0.929 . S
H2245 C2254 0.930 . S
H2246 C2256 0.930 . S
H2247 C2259 0.929 . S
H2248 C2262 0.930 . S
H2249 C2264 0.960 . S
H2250 C2264 0.960 . S
H2251 C2264 0.960 . S
C2252 H2244 0.929 . S
C2252 C2253 1.377 . S
C2252 C2254 1.384 . S
C2253 C2252 1.377 . S
C2253 C2259 1.390 . S
C2254 H2245 0.930 . S
C2254 C2252 1.384 . S
C2254 C2255 1.372 . S
C2255 C2254 1.372 . S
C2255 C2256 1.400 . S
C2255 C2260 1.490 . S
C2256 H2246 0.930 . S
C2256 C2255 1.400 . S
C2256 C2259 1.386 . S
H2257 C2273 0.930 . S
H2258 C2274 0.931 . S
C2259 H2247 0.929 . S
C2259 C2253 1.390 . S
C2259 C2256 1.386 . S
C2260 C2255 1.490 . S
C2260 C2262 1.395 . S
C2260 C2263 1.403 . S
H2261 C2267 0.930 . S
C2262 H2248 0.930 . S
C2262 C2260 1.395 . S
C2262 C2265 1.403 . S
C2263 C2260 1.403 . S
C2263 C2264 1.524 . S
C2263 C2267 1.400 . S
C2264 H2249 0.960 . S
C2264 H2250 0.960 . S
C2264 H2251 0.960 . S
C2264 C2263 1.524 . S
C2265 C2262 1.403 . S
C2265 C2266 1.392 . S
C2265 C2269 1.495 . S
C2266 C2265 1.392 . S
C2266 C2267 1.385 . S
C2266 C2268 1.478 . S
C2267 H2261 0.930 . S
C2267 C2263 1.400 . S
C2267 C2266 1.385 . S
C2268 C2266 1.478 . S
C2268 C2270 1.381 . S
C2268 C2274 1.383 . S
C2269 C2265 1.495 . S
C2269 H2275 0.959 . S
C2269 H2276 0.961 . S
C2269 H2277 0.960 . S
C2270 C2268 1.381 . S
C2270 C2271 1.394 . S
C2270 H2278 0.930 . S
C2271 C2270 1.394 . S
C2271 C2272 1.383 . S
C2271 H2279 0.929 . S
C2272 C2271 1.383 . S
C2272 C2273 1.377 . S
C2273 H2257 0.930 . S
C2273 C2272 1.377 . S
C2273 C2274 1.379 . S
C2274 H2258 0.931 . S
C2274 C2268 1.383 . S
C2274 C2273 1.379 . S
H2275 C2269 0.959 . S
H2276 C2269 0.961 . S
H2277 C2269 0.960 . S
H2278 C2270 0.930 . S
H2279 C2271 0.929 . S
H2280 C2288 0.929 . S
H2281 C2290 0.928 . S
H2282 C2292 0.930 . S
H2283 C2295 0.929 . S
H2284 C2298 0.930 . S
H2285 C2300 0.960 1_554 S
H2286 C2300 0.960 . S
H2287 C2300 0.960 . S
C2288 H2280 0.929 . S
C2288 C2289 1.377 . S
C2288 C2290 1.384 . S
C2289 C2288 1.377 . S
C2289 C2295 1.390 . S
C2290 H2281 0.928 . S
C2290 C2288 1.384 . S
C2290 C2291 1.372 . S
C2291 C2290 1.372 . S
C2291 C2292 1.400 . S
C2291 C2296 1.490 . S
C2292 H2282 0.930 . S
C2292 C2291 1.400 . S
C2292 C2295 1.386 . S
H2293 C2309 0.930 . S
H2294 C2310 0.931 . S
C2295 H2283 0.929 . S
C2295 C2289 1.390 . S
C2295 C2292 1.386 . S
C2296 C2291 1.490 . S
C2296 C2298 1.395 1_565 S
C2296 C2299 1.403 . S
H2297 C2303 0.930 . S
C2298 H2284 0.930 . S
C2298 C2296 1.395 1_545 S
C2298 C2301 1.403 1_556 S
C2299 C2296 1.403 . S
C2299 C2300 1.524 . S
C2299 C2303 1.400 1_556 S
C2300 H2285 0.960 1_556 S
C2300 H2286 0.960 . S
C2300 H2287 0.960 . S
C2300 C2299 1.524 . S
C2301 C2298 1.403 1_554 S
C2301 C2302 1.392 . S
C2301 C2305 1.495 . S
C2302 C2301 1.392 . S
C2302 C2303 1.385 1_545 S
C2302 C2304 1.478 . S
C2303 H2297 0.930 . S
C2303 C2299 1.400 1_554 S
C2303 C2302 1.385 1_565 S
C2304 C2302 1.478 . S
C2304 C2306 1.381 . S
C2304 C2310 1.383 . S
C2305 C2301 1.495 . S
C2305 H2311 0.959 1_554 S
C2305 H2312 0.961 . S
C2305 H2313 0.960 . S
C2306 C2304 1.381 . S
C2306 C2307 1.394 . S
C2306 H2314 0.930 . S
C2307 C2306 1.394 . S
C2307 C2308 1.383 . S
C2307 H2315 0.929 . S
C2308 C2307 1.383 . S
C2308 C2309 1.377 . S
C2309 H2293 0.930 . S
C2309 C2308 1.377 . S
C2309 C2310 1.379 . S
C2310 H2294 0.931 . S
C2310 C2304 1.383 . S
C2310 C2309 1.379 . S
H2311 C2305 0.959 1_556 S
H2312 C2305 0.961 . S
H2313 C2305 0.960 . S
H2314 C2306 0.930 . S
H2315 C2307 0.929 . S
H2316 C2324 0.929 . S
H2317 C2326 0.930 . S
H2318 C2328 0.930 . S
H2319 C2331 0.929 . S
H2320 C2334 0.930 . S
H2321 C2336 0.960 . S
H2322 C2336 0.960 . S
H2323 C2336 0.960 . S
C2324 H2316 0.929 . S
C2324 C2325 1.377 . S
C2324 C2326 1.384 . S
C2325 C2324 1.377 . S
C2325 C2331 1.390 . S
C2326 H2317 0.930 . S
C2326 C2324 1.384 . S
C2326 C2327 1.372 . S
C2327 C2326 1.372 . S
C2327 C2328 1.400 . S
C2327 C2332 1.490 . S
C2328 H2318 0.930 . S
C2328 C2327 1.400 . S
C2328 C2331 1.386 . S
H2329 C2345 0.930 . S
H2330 C2346 0.931 . S
C2331 H2319 0.929 . S
C2331 C2325 1.390 . S
C2331 C2328 1.386 . S
C2332 C2327 1.490 . S
C2332 C2334 1.395 . S
C2332 C2335 1.403 . S
H2333 C2339 0.930 . S
C2334 H2320 0.930 . S
C2334 C2332 1.395 . S
C2334 C2337 1.403 . S
C2335 C2332 1.403 . S
C2335 C2336 1.524 . S
C2335 C2339 1.400 . S
C2336 H2321 0.960 . S
C2336 H2322 0.960 . S
C2336 H2323 0.960 . S
C2336 C2335 1.524 . S
C2337 C2334 1.403 . S
C2337 C2338 1.392 . S
C2337 C2341 1.495 . S
C2338 C2337 1.392 . S
C2338 C2339 1.385 . S
C2338 C2340 1.478 . S
C2339 H2333 0.930 . S
C2339 C2335 1.400 . S
C2339 C2338 1.385 . S
C2340 C2338 1.478 . S
C2340 C2342 1.381 . S
C2340 C2346 1.383 . S
C2341 C2337 1.495 . S
C2341 H2347 0.959 . S
C2341 H2348 0.961 . S
C2341 H2349 0.960 . S
C2342 C2340 1.381 . S
C2342 C2343 1.394 . S
C2342 H2350 0.930 . S
C2343 C2342 1.394 . S
C2343 C2344 1.383 . S
C2343 H2351 0.929 . S
C2344 C2343 1.383 . S
C2344 C2345 1.377 . S
C2345 H2329 0.930 . S
C2345 C2344 1.377 . S
C2345 C2346 1.379 . S
C2346 H2330 0.931 . S
C2346 C2340 1.383 . S
C2346 C2345 1.379 . S
H2347 C2341 0.959 . S
H2348 C2341 0.961 . S
H2349 C2341 0.960 . S
H2350 C2342 0.930 . S
H2351 C2343 0.929 . S
H2352 C2360 0.929 . S
H2353 C2362 0.930 1_655 S
H2354 C2364 0.930 . S
H2355 C2367 0.929 . S
H2356 C2370 0.930 . S
H2357 C2372 0.960 . S
H2358 C2372 0.960 . S
H2359 C2372 0.960 . S
C2360 H2352 0.929 . S
C2360 C2361 1.377 . S
C2360 C2362 1.384 . S
C2361 C2360 1.377 . S
C2361 C2367 1.390 . S
C2362 H2353 0.930 1_455 S
C2362 C2360 1.384 . S
C2362 C2363 1.372 . S
C2363 C2362 1.372 . S
C2363 C2364 1.400 . S
C2363 C2368 1.490 . S
C2364 H2354 0.930 . S
C2364 C2363 1.400 . S
C2364 C2367 1.386 . S
H2365 C2381 0.930 1_455 S
H2366 C2382 0.948 . S
C2367 H2355 0.929 . S
C2367 C2361 1.390 . S
C2367 C2364 1.386 . S
C2368 C2363 1.490 . S
C2368 C2370 1.395 . S
C2368 C2371 1.403 1_455 S
H2369 C2375 0.930 . S
C2370 H2356 0.930 . S
C2370 C2368 1.395 . S
C2370 C2373 1.403 1_556 S
C2371 C2368 1.403 1_655 S
C2371 C2372 1.524 . S
C2371 C2375 1.400 1_556 S
C2372 H2357 0.960 . S
C2372 H2358 0.960 . S
C2372 H2359 0.960 . S
C2372 C2371 1.524 . S
C2373 C2370 1.403 1_554 S
C2373 C2374 1.392 1_455 S
C2373 C2377 1.495 . S
C2374 C2373 1.392 1_655 S
C2374 C2375 1.385 . S
C2374 C2376 1.478 . S
C2375 H2369 0.930 . S
C2375 C2371 1.400 1_554 S
C2375 C2374 1.385 . S
C2376 C2374 1.478 . S
C2376 C2378 1.381 . S
C2376 C2382 1.382 1_655 S
C2377 C2373 1.495 . S
C2377 H2383 0.959 . S
C2377 H2384 0.961 . S
C2377 H2385 0.960 . S
C2378 C2376 1.381 . S
C2378 C2379 1.394 . S
C2378 H2386 0.930 . S
C2379 C2378 1.394 . S
C2379 C2380 1.383 . S
C2379 H2387 0.929 . S
C2380 C2379 1.383 . S
C2380 C2381 1.377 . S
C2381 H2365 0.930 1_655 S
C2381 C2380 1.377 . S
C2381 C2382 1.367 1_655 S
C2382 H2366 0.948 . S
C2382 C2376 1.382 1_455 S
C2382 C2381 1.367 1_455 S
H2383 C2377 0.959 . S
H2384 C2377 0.961 . S
H2385 C2377 0.960 . S
H2386 C2378 0.930 . S
H2387 C2379 0.929 . S
H2388 C2396 0.929 . S
H2389 C2398 0.931 1_565 S
H2390 C2400 0.930 . S
H2391 C2403 0.929 . S
H2392 C2406 0.930 . S
H2393 C2408 0.960 . S
H2394 C2408 0.960 . S
H2395 C2408 0.960 . S
C2396 H2388 0.929 . S
C2396 C2397 1.377 . S
C2396 C2398 1.384 . S
C2397 C2396 1.377 . S
C2397 C2403 1.390 . S
C2398 H2389 0.931 1_545 S
C2398 C2396 1.384 . S
C2398 C2399 1.372 . S
C2399 C2398 1.372 . S
C2399 C2400 1.400 . S
C2399 C2404 1.490 . S
C2400 H2390 0.930 . S
C2400 C2399 1.400 . S
C2400 C2403 1.386 . S
H2401 C2417 0.930 . S
H2402 C2418 0.931 . S
C2403 H2391 0.929 . S
C2403 C2397 1.390 . S
C2403 C2400 1.386 . S
C2404 C2399 1.490 . S
C2404 C2406 1.395 1_545 S
C2404 C2407 1.403 . S
H2405 C2411 0.930 . S
C2406 H2392 0.930 . S
C2406 C2404 1.395 1_565 S
C2406 C2409 1.403 . S
C2407 C2404 1.403 . S
C2407 C2408 1.524 . S
C2407 C2411 1.400 . S
C2408 H2393 0.960 . S
C2408 H2394 0.960 . S
C2408 H2395 0.960 . S
C2408 C2407 1.524 . S
C2409 C2406 1.403 . S
C2409 C2410 1.392 . S
C2409 C2413 1.495 . S
C2410 C2409 1.392 . S
C2410 C2411 1.385 1_565 S
C2410 C2412 1.478 . S
C2411 H2405 0.930 . S
C2411 C2407 1.400 . S
C2411 C2410 1.385 1_545 S
C2412 C2410 1.478 . S
C2412 C2414 1.381 . S
C2412 C2418 1.383 . S
C2413 C2409 1.495 . S
C2413 H2419 0.959 . S
C2413 H2420 0.961 . S
C2413 H2421 0.960 . S
C2414 C2412 1.381 . S
C2414 C2415 1.394 . S
C2414 H2422 0.930 . S
C2415 C2414 1.394 . S
C2415 C2416 1.383 . S
C2415 H2423 0.929 . S
C2416 C2415 1.383 . S
C2416 C2417 1.377 . S
C2417 H2401 0.930 . S
C2417 C2416 1.377 . S
C2417 C2418 1.379 . S
C2418 H2402 0.931 . S
C2418 C2412 1.383 . S
C2418 C2417 1.379 . S
H2419 C2413 0.959 . S
H2420 C2413 0.961 . S
H2421 C2413 0.960 . S
H2422 C2414 0.930 . S
H2423 C2415 0.929 . S
H2424 C2432 0.929 . S
H2425 C2434 0.930 . S
H2426 C2436 0.930 . S
H2427 C2439 0.929 . S
H2428 C2442 0.930 . S
H2429 C2444 0.960 . S
H2430 C2444 0.960 . S
H2431 C2444 0.960 . S
C2432 H2424 0.929 . S
C2432 C2433 1.377 . S
C2432 C2434 1.384 . S
C2433 C2432 1.377 . S
C2433 C2439 1.390 . S
C2434 H2425 0.930 . S
C2434 C2432 1.384 . S
C2434 C2435 1.372 . S
C2435 C2434 1.372 . S
C2435 C2436 1.400 . S
C2435 C2440 1.490 . S
C2436 H2426 0.930 . S
C2436 C2435 1.400 . S
C2436 C2439 1.386 . S
H2437 C2453 0.930 . S
H2438 C2454 0.931 . S
C2439 H2427 0.929 . S
C2439 C2433 1.390 . S
C2439 C2436 1.386 . S
C2440 C2435 1.490 . S
C2440 C2442 1.395 . S
C2440 C2443 1.403 . S
H2441 C2447 0.930 . S
C2442 H2428 0.930 . S
C2442 C2440 1.395 . S
C2442 C2445 1.403 1_554 S
C2443 C2440 1.403 . S
C2443 C2444 1.524 . S
C2443 C2447 1.400 1_554 S
C2444 H2429 0.960 . S
C2444 H2430 0.960 . S
C2444 H2431 0.960 . S
C2444 C2443 1.524 . S
C2445 C2442 1.403 1_556 S
C2445 C2446 1.392 . S
C2445 C2449 1.495 . S
C2446 C2445 1.392 . S
C2446 C2447 1.385 . S
C2446 C2448 1.478 . S
C2447 H2441 0.930 . S
C2447 C2443 1.400 1_556 S
C2447 C2446 1.385 . S
C2448 C2446 1.478 . S
C2448 C2450 1.381 . S
C2448 C2454 1.383 . S
C2449 C2445 1.495 . S
C2449 H2455 0.959 . S
C2449 H2456 0.961 . S
C2449 H2457 0.960 . S
C2450 C2448 1.381 . S
C2450 C2451 1.394 . S
C2450 H2458 0.930 . S
C2451 C2450 1.394 . S
C2451 C2452 1.383 . S
C2451 H2459 0.929 . S
C2452 C2451 1.383 . S
C2452 C2453 1.377 . S
C2453 H2437 0.930 . S
C2453 C2452 1.377 . S
C2453 C2454 1.379 . S
C2454 H2438 0.931 . S
C2454 C2448 1.383 . S
C2454 C2453 1.379 . S
H2455 C2449 0.959 . S
H2456 C2449 0.961 . S
H2457 C2449 0.960 . S
H2458 C2450 0.930 . S
H2459 C2451 0.929 . S
H2460 C2468 0.929 . S
H2461 C2470 0.930 . S
H2462 C2472 0.930 . S
H2463 C2475 0.908 1_655 S
H2464 C2478 0.930 . S
H2465 C2480 0.960 . S
H2466 C2480 0.960 . S
H2467 C2480 0.960 . S
C2468 H2460 0.929 . S
C2468 C2469 1.377 . S
C2468 C2470 1.384 . S
C2469 C2468 1.377 . S
C2469 C2475 1.423 . S
C2470 H2461 0.930 . S
C2470 C2468 1.384 . S
C2470 C2471 1.372 . S
C2471 C2470 1.372 . S
C2471 C2472 1.400 1_455 S
C2471 C2476 1.490 . S
C2472 H2462 0.930 . S
C2472 C2471 1.400 1_655 S
C2472 C2475 1.377 1_655 S
H2473 C2489 0.930 . S
H2474 C2490 0.931 . S
C2475 H2463 0.908 1_455 S
C2475 C2469 1.423 . S
C2475 C2472 1.377 1_455 S
C2476 C2471 1.490 . S
C2476 C2478 1.395 . S
C2476 C2479 1.403 1_455 S
H2477 C2483 0.930 . S
C2478 H2464 0.930 . S
C2478 C2476 1.395 . S
C2478 C2481 1.403 . S
C2479 C2476 1.403 1_655 S
C2479 C2480 1.524 . S
C2479 C2483 1.400 . S
C2480 H2465 0.960 . S
C2480 H2466 0.960 . S
C2480 H2467 0.960 . S
C2480 C2479 1.524 . S
C2481 C2478 1.403 . S
C2481 C2482 1.392 1_455 S
C2481 C2485 1.495 . S
C2482 C2481 1.392 1_655 S
C2482 C2483 1.385 . S
C2482 C2484 1.478 . S
C2483 H2477 0.930 . S
C2483 C2479 1.400 . S
C2483 C2482 1.385 . S
C2484 C2482 1.478 . S
C2484 C2486 1.381 1_655 S
C2484 C2490 1.383 . S
C2485 C2481 1.495 . S
C2485 H2491 0.959 . S
C2485 H2492 0.961 . S
C2485 H2493 0.960 . S
C2486 C2484 1.381 1_455 S
C2486 C2487 1.393 1_455 S
C2486 H2494 0.930 . S
C2487 C2486 1.393 1_655 S
C2487 C2488 1.385 . S
C2487 H2495 0.928 1_655 S
C2488 C2487 1.385 . S
C2488 C2489 1.377 . S
C2489 H2473 0.930 . S
C2489 C2488 1.377 . S
C2489 C2490 1.379 . S
C2490 H2474 0.931 . S
C2490 C2484 1.383 . S
C2490 C2489 1.379 . S
H2491 C2485 0.959 . S
H2492 C2485 0.961 . S
H2493 C2485 0.960 . S
H2494 C2486 0.930 . S
H2495 C2487 0.928 1_455 S
H2496 C2504 0.929 1_545 S
H2497 C2506 0.932 1_545 S
H2498 C2508 0.930 . S
H2499 C2511 0.929 . S
H2500 C2514 0.930 . S
H2501 C2516 0.960 1_554 S
H2502 C2516 0.960 . S
H2503 C2516 0.960 . S
C2504 H2496 0.929 1_565 S
C2504 C2505 1.377 . S
C2504 C2506 1.383 . S
C2505 C2504 1.377 . S
C2505 C2511 1.390 . S
C2506 H2497 0.932 1_565 S
C2506 C2504 1.383 . S
C2506 C2507 1.372 . S
C2507 C2506 1.372 . S
C2507 C2508 1.400 . S
C2507 C2512 1.490 . S
C2508 H2498 0.930 . S
C2508 C2507 1.400 . S
C2508 C2511 1.386 . S
H2509 C2525 0.930 . S
H2510 C2526 0.931 1_565 S
C2511 H2499 0.929 . S
C2511 C2505 1.390 . S
C2511 C2508 1.386 . S
C2512 C2507 1.490 . S
C2512 C2514 1.395 1_565 S
C2512 C2515 1.403 . S
H2513 C2519 0.930 . S
C2514 H2500 0.930 . S
C2514 C2512 1.395 1_545 S
C2514 C2517 1.403 1_556 S
C2515 C2512 1.403 . S
C2515 C2516 1.524 . S
C2515 C2519 1.400 1_556 S
C2516 H2501 0.960 1_556 S
C2516 H2502 0.960 . S
C2516 H2503 0.960 . S
C2516 C2515 1.524 . S
C2517 C2514 1.403 1_554 S
C2517 C2518 1.392 . S
C2517 C2521 1.495 . S
C2518 C2517 1.392 . S
C2518 C2519 1.385 1_545 S
C2518 C2520 1.478 . S
C2519 H2513 0.930 . S
C2519 C2515 1.400 1_554 S
C2519 C2518 1.385 1_565 S
C2520 C2518 1.478 . S
C2520 C2522 1.381 . S
C2520 C2526 1.383 . S
C2521 C2517 1.495 . S
C2521 H2527 0.959 1_554 S
C2521 H2528 0.961 . S
C2521 H2529 0.960 . S
C2522 C2520 1.381 . S
C2522 C2523 1.394 . S
C2522 H2530 0.930 . S
C2523 C2522 1.394 . S
C2523 C2524 1.383 . S
C2523 H2531 0.929 . S
C2524 C2523 1.383 . S
C2524 C2525 1.377 . S
C2525 H2509 0.930 . S
C2525 C2524 1.377 . S
C2525 C2526 1.379 . S
C2526 H2510 0.931 1_545 S
C2526 C2520 1.383 . S
C2526 C2525 1.379 . S
H2527 C2521 0.959 1_556 S
H2528 C2521 0.961 . S
H2529 C2521 0.960 . S
H2530 C2522 0.930 . S
H2531 C2523 0.929 . S
H2532 C2540 0.929 . S
H2533 C2542 0.930 . S
H2534 C2544 0.930 . S
H2535 C2547 0.929 . S
H2536 C2550 0.930 . S
H2537 C2552 0.960 . S
H2538 C2552 0.960 . S
H2539 C2552 0.960 . S
C2540 H2532 0.929 . S
C2540 C2541 1.377 . S
C2540 C2542 1.384 . S
C2541 C2540 1.377 . S
C2541 C2547 1.390 . S
C2542 H2533 0.930 . S
C2542 C2540 1.384 . S
C2542 C2543 1.372 . S
C2543 C2542 1.372 . S
C2543 C2544 1.400 . S
C2543 C2548 1.490 . S
C2544 H2534 0.930 . S
C2544 C2543 1.400 . S
C2544 C2547 1.386 . S
H2545 C2561 0.930 . S
H2546 C2562 0.931 . S
C2547 H2535 0.929 . S
C2547 C2541 1.390 . S
C2547 C2544 1.386 . S
C2548 C2543 1.490 . S
C2548 C2550 1.395 . S
C2548 C2551 1.403 . S
H2549 C2555 0.930 . S
C2550 H2536 0.930 . S
C2550 C2548 1.395 . S
C2550 C2553 1.403 . S
C2551 C2548 1.403 . S
C2551 C2552 1.524 . S
C2551 C2555 1.400 . S
C2552 H2537 0.960 . S
C2552 H2538 0.960 . S
C2552 H2539 0.960 . S
C2552 C2551 1.524 . S
C2553 C2550 1.403 . S
C2553 C2554 1.392 . S
C2553 C2557 1.495 . S
C2554 C2553 1.392 . S
C2554 C2555 1.385 . S
C2554 C2556 1.478 . S
C2555 H2549 0.930 . S
C2555 C2551 1.400 . S
C2555 C2554 1.385 . S
C2556 C2554 1.478 . S
C2556 C2558 1.381 . S
C2556 C2562 1.383 . S
C2557 C2553 1.495 . S
C2557 H2563 0.959 . S
C2557 H2564 0.961 . S
C2557 H2565 0.960 . S
C2558 C2556 1.381 . S
C2558 C2559 1.394 . S
C2558 H2566 0.930 . S
C2559 C2558 1.394 . S
C2559 C2560 1.383 . S
C2559 H2567 0.929 . S
C2560 C2559 1.383 . S
C2560 C2561 1.377 . S
C2561 H2545 0.930 . S
C2561 C2560 1.377 . S
C2561 C2562 1.379 . S
C2562 H2546 0.931 . S
C2562 C2556 1.383 . S
C2562 C2561 1.379 . S
H2563 C2557 0.959 . S
H2564 C2557 0.961 . S
H2565 C2557 0.960 . S
H2566 C2558 0.930 . S
H2567 C2559 0.929 . S
H2568 C2576 0.929 . S
H2569 C2578 0.930 . S
H2570 C2580 0.930 . S
H2571 C2583 0.910 1_455 S
H2572 C2586 0.930 . S
H2573 C2588 0.960 . S
H2574 C2588 0.960 . S
H2575 C2588 0.960 . S
C2576 H2568 0.929 . S
C2576 C2577 1.377 . S
C2576 C2578 1.384 . S
C2577 C2576 1.377 . S
C2577 C2583 1.420 . S
C2578 H2569 0.930 . S
C2578 C2576 1.384 . S
C2578 C2579 1.372 . S
C2579 C2578 1.372 . S
C2579 C2580 1.400 1_655 S
C2579 C2584 1.490 . S
C2580 H2570 0.930 . S
C2580 C2579 1.400 1_455 S
C2580 C2583 1.377 1_455 S
H2581 C2597 0.930 . S
H2582 C2598 0.931 . S
C2583 H2571 0.910 1_655 S
C2583 C2577 1.420 . S
C2583 C2580 1.377 1_655 S
C2584 C2579 1.490 . S
C2584 C2586 1.395 . S
C2584 C2587 1.403 1_655 S
H2585 C2591 0.930 . S
C2586 H2572 0.930 . S
C2586 C2584 1.395 . S
C2586 C2589 1.403 1_554 S
C2587 C2584 1.403 1_455 S
C2587 C2588 1.524 . S
C2587 C2591 1.400 1_554 S
C2588 H2573 0.960 . S
C2588 H2574 0.960 . S
C2588 H2575 0.960 . S
C2588 C2587 1.524 . S
C2589 C2586 1.403 1_556 S
C2589 C2590 1.392 1_655 S
C2589 C2593 1.495 . S
C2590 C2589 1.392 1_455 S
C2590 C2591 1.385 . S
C2590 C2592 1.478 . S
C2591 H2585 0.930 . S
C2591 C2587 1.400 1_556 S
C2591 C2590 1.385 . S
C2592 C2590 1.478 . S
C2592 C2594 1.381 1_455 S
C2592 C2598 1.383 . S
C2593 C2589 1.495 . S
C2593 H2599 0.959 . S
C2593 H2600 0.961 . S
C2593 H2601 0.960 . S
C2594 C2592 1.381 1_655 S
C2594 C2595 1.395 1_655 S
C2594 H2602 0.930 . S
C2595 C2594 1.395 1_455 S
C2595 C2596 1.382 . S
C2595 H2603 0.930 1_455 S
C2596 C2595 1.382 . S
C2596 C2597 1.377 . S
C2597 H2581 0.930 . S
C2597 C2596 1.377 . S
C2597 C2598 1.379 . S
C2598 H2582 0.931 . S
C2598 C2592 1.383 . S
C2598 C2597 1.379 . S
H2599 C2593 0.959 . S
H2600 C2593 0.961 . S
H2601 C2593 0.960 . S
H2602 C2594 0.930 . S
H2603 C2595 0.930 1_655 S
H2604 C2612 0.929 . S
H2605 C2614 0.930 1_545 S
H2606 C2616 0.930 . S
H2607 C2619 0.929 . S
H2608 C2622 0.930 . S
H2609 C2624 0.960 . S
H2610 C2624 0.960 . S
H2611 C2624 0.960 . S
C2612 H2604 0.929 . S
C2612 C2613 1.377 . S
C2612 C2614 1.384 . S
C2613 C2612 1.377 . S
C2613 C2619 1.390 . S
C2614 H2605 0.930 1_565 S
C2614 C2612 1.384 . S
C2614 C2615 1.372 . S
C2615 C2614 1.372 . S
C2615 C2616 1.400 . S
C2615 C2620 1.490 . S
C2616 H2606 0.930 . S
C2616 C2615 1.400 . S
C2616 C2619 1.386 . S
H2617 C2633 0.929 1_565 S
H2618 C2634 0.930 . S
C2619 H2607 0.929 . S
C2619 C2613 1.390 . S
C2619 C2616 1.386 . S
C2620 C2615 1.490 . S
C2620 C2622 1.395 . S
C2620 C2623 1.403 1_565 S
H2621 C2627 0.930 . S
C2622 H2608 0.930 . S
C2622 C2620 1.395 . S
C2622 C2625 1.403 . S
C2623 C2620 1.403 1_545 S
C2623 C2624 1.524 . S
C2623 C2627 1.400 . S
C2624 H2609 0.960 . S
C2624 H2610 0.960 . S
C2624 H2611 0.960 . S
C2624 C2623 1.524 . S
C2625 C2622 1.403 . S
C2625 C2626 1.392 1_565 S
C2625 C2629 1.495 . S
C2626 C2625 1.392 1_545 S
C2626 C2627 1.385 . S
C2626 C2628 1.478 . S
C2627 H2621 0.930 . S
C2627 C2623 1.400 . S
C2627 C2626 1.385 . S
C2628 C2626 1.478 . S
C2628 C2630 1.381 . S
C2628 C2634 1.382 1_545 S
C2629 C2625 1.495 . S
C2629 H2635 0.959 . S
C2629 H2636 0.961 . S
C2629 H2637 0.960 . S
C2630 C2628 1.381 . S
C2630 C2631 1.394 . S
C2630 H2638 0.930 . S
C2631 C2630 1.394 . S
C2631 C2632 1.383 . S
C2631 H2639 0.929 . S
C2632 C2631 1.383 . S
C2632 C2633 1.377 . S
C2633 H2617 0.929 1_545 S
C2633 C2632 1.377 . S
C2633 C2634 1.381 1_545 S
C2634 H2618 0.930 . S
C2634 C2628 1.382 1_565 S
C2634 C2633 1.381 1_565 S
H2635 C2629 0.959 . S
H2636 C2629 0.961 . S
H2637 C2629 0.960 . S
H2638 C2630 0.930 . S
H2639 C2631 0.929 . S
H2640 C2648 0.929 . S
H2641 C2650 0.930 . S
H2642 C2652 0.930 . S
H2643 C2655 0.929 . S
H2644 C2658 0.930 . S
H2645 C2660 0.960 . S
H2646 C2660 0.960 . S
H2647 C2660 0.960 . S
C2648 H2640 0.929 . S
C2648 C2649 1.377 . S
C2648 C2650 1.384 . S
C2649 C2648 1.377 . S
C2649 C2655 1.390 . S
C2650 H2641 0.930 . S
C2650 C2648 1.384 . S
C2650 C2651 1.372 . S
C2651 C2650 1.372 . S
C2651 C2652 1.400 . S
C2651 C2656 1.490 . S
C2652 H2642 0.930 . S
C2652 C2651 1.400 . S
C2652 C2655 1.386 . S
H2653 C2669 0.930 . S
H2654 C2670 0.931 . S
C2655 H2643 0.929 . S
C2655 C2649 1.390 . S
C2655 C2652 1.386 . S
C2656 C2651 1.490 . S
C2656 C2658 1.395 . S
C2656 C2659 1.403 . S
H2657 C2663 0.930 . S
C2658 H2644 0.930 . S
C2658 C2656 1.395 . S
C2658 C2661 1.403 1_554 S
C2659 C2656 1.403 . S
C2659 C2660 1.524 . S
C2659 C2663 1.400 1_554 S
C2660 H2645 0.960 . S
C2660 H2646 0.960 . S
C2660 H2647 0.960 . S
C2660 C2659 1.524 . S
C2661 C2658 1.403 1_556 S
C2661 C2662 1.392 . S
C2661 C2665 1.495 . S
C2662 C2661 1.392 . S
C2662 C2663 1.385 . S
C2662 C2664 1.478 . S
C2663 H2657 0.930 . S
C2663 C2659 1.400 1_556 S
C2663 C2662 1.385 . S
C2664 C2662 1.478 . S
C2664 C2666 1.381 . S
C2664 C2670 1.383 . S
C2665 C2661 1.495 . S
C2665 H2671 0.959 . S
C2665 H2672 0.961 . S
C2665 H2673 0.960 . S
C2666 C2664 1.381 . S
C2666 C2667 1.394 . S
C2666 H2674 0.930 . S
C2667 C2666 1.394 . S
C2667 C2668 1.383 . S
C2667 H2675 0.929 . S
C2668 C2667 1.383 . S
C2668 C2669 1.377 . S
C2669 H2653 0.930 . S
C2669 C2668 1.377 . S
C2669 C2670 1.379 . S
C2670 H2654 0.931 . S
C2670 C2664 1.383 . S
C2670 C2669 1.379 . S
H2671 C2665 0.959 . S
H2672 C2665 0.961 . S
H2673 C2665 0.960 . S
H2674 C2666 0.930 . S
H2675 C2667 0.929 . S
H2676 C2684 0.929 . S
H2677 C2686 0.930 . S
H2678 C2688 0.930 . S
H2679 C2691 0.929 1_655 S
H2680 C2694 0.930 . S
H2681 C2696 0.960 1_655 S
H2682 C2696 0.960 . S
H2683 C2696 0.960 1_655 S
C2684 H2676 0.929 . S
C2684 C2685 1.377 . S
C2684 C2686 1.384 . S
C2685 C2684 1.377 . S
C2685 C2691 1.390 . S
C2686 H2677 0.930 . S
C2686 C2684 1.384 . S
C2686 C2687 1.372 . S
C2687 C2686 1.372 . S
C2687 C2688 1.400 1_455 S
C2687 C2692 1.490 . S
C2688 H2678 0.930 . S
C2688 C2687 1.400 1_655 S
C2688 C2691 1.386 1_655 S
H2689 C2705 0.930 . S
H2690 C2706 0.931 . S
C2691 H2679 0.929 1_455 S
C2691 C2685 1.390 . S
C2691 C2688 1.386 1_455 S
C2692 C2687 1.490 . S
C2692 C2694 1.395 . S
C2692 C2695 1.403 . S
H2693 C2699 0.930 . S
C2694 H2680 0.930 . S
C2694 C2692 1.395 . S
C2694 C2697 1.414 . S
C2695 C2692 1.403 . S
C2695 C2696 1.524 . S
C2695 C2699 1.400 1_455 S
C2696 H2681 0.960 1_455 S
C2696 H2682 0.960 . S
C2696 H2683 0.960 1_455 S
C2696 C2695 1.524 . S
C2697 C2694 1.414 . S
C2697 C2698 1.355 1_455 S
C2697 C2701 1.504 . S
C2698 C2697 1.355 1_655 S
C2698 C2699 1.385 . S
C2698 C2700 1.478 . S
C2699 H2693 0.930 . S
C2699 C2695 1.400 1_655 S
C2699 C2698 1.385 . S
C2700 C2698 1.478 . S
C2700 C2702 1.381 1_655 S
C2700 C2706 1.383 . S
C2701 C2697 1.504 . S
C2701 H2707 0.985 . S
C2701 H2708 0.931 1_455 S
C2701 H2709 0.986 . S
C2702 C2700 1.381 1_455 S
C2702 C2703 1.395 1_455 S
C2702 H2710 0.930 . S
C2703 C2702 1.395 1_655 S
C2703 C2704 1.381 . S
C2703 H2711 0.931 1_655 S
C2704 C2703 1.381 . S
C2704 C2705 1.377 . S
C2705 H2689 0.930 . S
C2705 C2704 1.377 . S
C2705 C2706 1.379 . S
C2706 H2690 0.931 . S
C2706 C2700 1.383 . S
C2706 C2705 1.379 . S
H2707 C2701 0.985 . S
H2708 C2701 0.931 1_655 S
H2709 C2701 0.986 . S
H2710 C2702 0.930 . S
H2711 C2703 0.931 1_455 S
H2712 C2720 0.929 . S
H2713 C2722 0.930 . S
H2714 C2724 0.930 . S
H2715 C2727 0.929 . S
H2716 C2730 0.930 . S
H2717 C2732 0.960 . S
H2718 C2732 0.960 . S
H2719 C2732 0.960 . S
C2720 H2712 0.929 . S
C2720 C2721 1.377 . S
C2720 C2722 1.384 . S
C2721 C2720 1.377 . S
C2721 C2727 1.390 . S
C2722 H2713 0.930 . S
C2722 C2720 1.384 . S
C2722 C2723 1.372 . S
C2723 C2722 1.372 . S
C2723 C2724 1.400 . S
C2723 C2728 1.490 . S
C2724 H2714 0.930 . S
C2724 C2723 1.400 . S
C2724 C2727 1.386 . S
H2725 C2741 0.930 . S
H2726 C2742 0.931 . S
C2727 H2715 0.929 . S
C2727 C2721 1.390 . S
C2727 C2724 1.386 . S
C2728 C2723 1.490 . S
C2728 C2730 1.395 . S
C2728 C2731 1.403 . S
H2729 C2735 0.930 . S
C2730 H2716 0.930 . S
C2730 C2728 1.395 . S
C2730 C2733 1.403 . S
C2731 C2728 1.403 . S
C2731 C2732 1.524 . S
C2731 C2735 1.400 . S
C2732 H2717 0.960 . S
C2732 H2718 0.960 . S
C2732 H2719 0.960 . S
C2732 C2731 1.524 . S
C2733 C2730 1.403 . S
C2733 C2734 1.392 . S
C2733 C2737 1.495 1_545 S
C2734 C2733 1.392 . S
C2734 C2735 1.385 . S
C2734 C2736 1.478 . S
C2735 H2729 0.930 . S
C2735 C2731 1.400 . S
C2735 C2734 1.385 . S
C2736 C2734 1.478 . S
C2736 C2738 1.381 . S
C2736 C2742 1.383 . S
C2737 C2733 1.495 1_565 S
C2737 H2743 0.959 . S
C2737 H2744 0.961 . S
C2737 H2745 0.960 . S
C2738 C2736 1.381 . S
C2738 C2739 1.394 . S
C2738 H2746 0.930 . S
C2739 C2738 1.394 . S
C2739 C2740 1.383 . S
C2739 H2747 0.929 . S
C2740 C2739 1.383 . S
C2740 C2741 1.377 . S
C2741 H2725 0.930 . S
C2741 C2740 1.377 . S
C2741 C2742 1.379 . S
C2742 H2726 0.931 . S
C2742 C2736 1.383 . S
C2742 C2741 1.379 . S
H2743 C2737 0.959 . S
H2744 C2737 0.961 . S
H2745 C2737 0.960 . S
H2746 C2738 0.930 . S
H2747 C2739 0.929 . S
H2748 C2756 0.929 . S
H2749 C2758 0.930 . S
H2750 C2760 0.930 . S
H2751 C2763 0.929 . S
H2752 C2766 0.930 . S
H2753 C2768 0.960 . S
H2754 C2768 0.960 . S
H2755 C2768 0.960 . S
C2756 H2748 0.929 . S
C2756 C2757 1.377 . S
C2756 C2758 1.384 . S
C2757 C2756 1.377 . S
C2757 C2763 1.390 . S
C2758 H2749 0.930 . S
C2758 C2756 1.384 . S
C2758 C2759 1.372 . S
C2759 C2758 1.372 . S
C2759 C2760 1.400 . S
C2759 C2764 1.490 . S
C2760 H2750 0.930 . S
C2760 C2759 1.400 . S
C2760 C2763 1.386 . S
H2761 C2777 0.930 . S
H2762 C2778 0.931 . S
C2763 H2751 0.929 . S
C2763 C2757 1.390 . S
C2763 C2760 1.386 . S
C2764 C2759 1.490 . S
C2764 C2766 1.395 . S
C2764 C2767 1.403 . S
H2765 C2771 0.930 . S
C2766 H2752 0.930 . S
C2766 C2764 1.395 . S
C2766 C2769 1.403 . S
C2767 C2764 1.403 . S
C2767 C2768 1.524 . S
C2767 C2771 1.400 . S
C2768 H2753 0.960 . S
C2768 H2754 0.960 . S
C2768 H2755 0.960 . S
C2768 C2767 1.524 . S
C2769 C2766 1.403 . S
C2769 C2770 1.392 . S
C2769 C2773 1.495 . S
C2770 C2769 1.392 . S
C2770 C2771 1.385 . S
C2770 C2772 1.478 . S
C2771 H2765 0.930 . S
C2771 C2767 1.400 . S
C2771 C2770 1.385 . S
C2772 C2770 1.478 . S
C2772 C2774 1.381 . S
C2772 C2778 1.383 . S
C2773 C2769 1.495 . S
C2773 H2779 0.959 . S
C2773 H2780 0.961 . S
C2773 H2781 0.960 . S
C2774 C2772 1.381 . S
C2774 C2775 1.394 . S
C2774 H2782 0.930 . S
C2775 C2774 1.394 . S
C2775 C2776 1.383 . S
C2775 H2783 0.929 . S
C2776 C2775 1.383 . S
C2776 C2777 1.377 . S
C2777 H2761 0.930 . S
C2777 C2776 1.377 . S
C2777 C2778 1.379 . S
C2778 H2762 0.931 . S
C2778 C2772 1.383 . S
C2778 C2777 1.379 . S
H2779 C2773 0.959 . S
H2780 C2773 0.961 . S
H2781 C2773 0.960 . S
H2782 C2774 0.930 . S
H2783 C2775 0.929 . S
H2784 C2792 0.929 . S
H2785 C2794 0.930 . S
H2786 C2796 0.930 . S
H2787 C2799 0.929 . S
H2788 C2802 0.930 . S
H2789 C2804 0.960 1_455 S
H2790 C2804 0.960 . S
H2791 C2804 0.952 1_455 S
C2792 H2784 0.929 . S
C2792 C2793 1.377 . S
C2792 C2794 1.384 . S
C2793 C2792 1.377 . S
C2793 C2799 1.390 . S
C2794 H2785 0.930 . S
C2794 C2792 1.384 . S
C2794 C2795 1.372 . S
C2795 C2794 1.372 . S
C2795 C2796 1.400 . S
C2795 C2800 1.490 . S
C2796 H2786 0.930 . S
C2796 C2795 1.400 . S
C2796 C2799 1.386 . S
H2797 C2813 0.930 . S
H2798 C2814 0.931 . S
C2799 H2787 0.929 . S
C2799 C2793 1.390 . S
C2799 C2796 1.386 . S
C2800 C2795 1.490 . S
C2800 C2802 1.395 . S
C2800 C2803 1.403 . S
H2801 C2807 0.930 . S
C2802 H2788 0.930 . S
C2802 C2800 1.395 . S
C2802 C2805 1.403 . S
C2803 C2800 1.403 . S
C2803 C2804 1.524 . S
C2803 C2807 1.400 . S
C2804 H2789 0.960 1_655 S
C2804 H2790 0.960 . S
C2804 H2791 0.952 1_655 S
C2804 C2803 1.524 . S
C2805 C2802 1.403 . S
C2805 C2806 1.392 . S
C2805 C2809 1.495 . S
C2806 C2805 1.392 . S
C2806 C2807 1.385 . S
C2806 C2808 1.478 . S
C2807 H2801 0.930 . S
C2807 C2803 1.400 . S
C2807 C2806 1.385 . S
C2808 C2806 1.478 . S
C2808 C2810 1.381 . S
C2808 C2814 1.383 . S
C2809 C2805 1.495 . S
C2809 H2815 0.959 . S
C2809 H2816 0.961 . S
C2809 H2817 0.960 . S
C2810 C2808 1.381 . S
C2810 C2811 1.394 . S
C2810 H2818 0.930 . S
C2811 C2810 1.394 . S
C2811 C2812 1.383 . S
C2811 H2819 0.929 . S
C2812 C2811 1.383 . S
C2812 C2813 1.377 . S
C2813 H2797 0.930 . S
C2813 C2812 1.377 . S
C2813 C2814 1.379 . S
C2814 H2798 0.931 . S
C2814 C2808 1.383 . S
C2814 C2813 1.379 . S
H2815 C2809 0.959 . S
H2816 C2809 0.961 . S
H2817 C2809 0.960 . S
H2818 C2810 0.930 . S
H2819 C2811 0.929 . S
H2820 C2828 0.929 . S
H2821 C2830 0.930 . S
H2822 C2832 0.930 . S
H2823 C2835 0.929 . S
H2824 C2838 0.930 . S
H2825 C2840 0.960 . S
H2826 C2840 0.960 . S
H2827 C2840 0.960 . S
C2828 H2820 0.929 . S
C2828 C2829 1.377 . S
C2828 C2830 1.384 . S
C2829 C2828 1.377 . S
C2829 C2835 1.390 . S
C2830 H2821 0.930 . S
C2830 C2828 1.384 . S
C2830 C2831 1.372 . S
C2831 C2830 1.372 . S
C2831 C2832 1.400 . S
C2831 C2836 1.490 . S
C2832 H2822 0.930 . S
C2832 C2831 1.400 . S
C2832 C2835 1.386 . S
H2833 C2849 0.930 . S
H2834 C2850 0.931 . S
C2835 H2823 0.929 . S
C2835 C2829 1.390 . S
C2835 C2832 1.386 . S
C2836 C2831 1.490 . S
C2836 C2838 1.395 . S
C2836 C2839 1.403 . S
H2837 C2843 0.930 . S
C2838 H2824 0.930 . S
C2838 C2836 1.395 . S
C2838 C2841 1.403 . S
C2839 C2836 1.403 . S
C2839 C2840 1.524 . S
C2839 C2843 1.400 . S
C2840 H2825 0.960 . S
C2840 H2826 0.960 . S
C2840 H2827 0.960 . S
C2840 C2839 1.524 . S
C2841 C2838 1.403 . S
C2841 C2842 1.392 . S
C2841 C2845 1.495 . S
C2842 C2841 1.392 . S
C2842 C2843 1.385 . S
C2842 C2844 1.478 . S
C2843 H2837 0.930 . S
C2843 C2839 1.400 . S
C2843 C2842 1.385 . S
C2844 C2842 1.478 . S
C2844 C2846 1.381 . S
C2844 C2850 1.383 . S
C2845 C2841 1.495 . S
C2845 H2851 0.994 . S
C2845 H2852 0.961 . S
C2845 H2853 0.953 1_565 S
C2846 C2844 1.381 . S
C2846 C2847 1.394 . S
C2846 H2854 0.930 . S
C2847 C2846 1.394 . S
C2847 C2848 1.383 . S
C2847 H2855 0.929 . S
C2848 C2847 1.383 . S
C2848 C2849 1.377 . S
C2849 H2833 0.930 . S
C2849 C2848 1.377 . S
C2849 C2850 1.379 . S
C2850 H2834 0.931 . S
C2850 C2844 1.383 . S
C2850 C2849 1.379 . S
H2851 C2845 0.994 . S
H2852 C2845 0.961 . S
H2853 C2845 0.953 1_545 S
H2854 C2846 0.930 . S
H2855 C2847 0.929 . S
H2856 C2864 0.929 . S
H2857 C2866 0.930 . S
H2858 C2868 0.930 . S
H2859 C2871 0.929 . S
H2860 C2874 0.930 . S
H2861 C2876 0.960 . S
H2862 C2876 0.960 . S
H2863 C2876 0.960 . S
C2864 H2856 0.929 . S
C2864 C2865 1.377 . S
C2864 C2866 1.384 . S
C2865 C2864 1.377 . S
C2865 C2871 1.390 . S
C2866 H2857 0.930 . S
C2866 C2864 1.384 . S
C2866 C2867 1.372 . S
C2867 C2866 1.372 . S
C2867 C2868 1.400 . S
C2867 C2872 1.490 . S
C2868 H2858 0.930 . S
C2868 C2867 1.400 . S
C2868 C2871 1.386 . S
H2869 C2885 0.930 . S
H2870 C2886 0.931 . S
C2871 H2859 0.929 . S
C2871 C2865 1.390 . S
C2871 C2868 1.386 . S
C2872 C2867 1.490 . S
C2872 C2874 1.395 . S
C2872 C2875 1.403 . S
H2873 C2879 0.930 . S
C2874 H2860 0.930 . S
C2874 C2872 1.395 . S
C2874 C2877 1.403 . S
C2875 C2872 1.403 . S
C2875 C2876 1.524 . S
C2875 C2879 1.400 . S
C2876 H2861 0.960 . S
C2876 H2862 0.960 . S
C2876 H2863 0.960 . S
C2876 C2875 1.524 . S
C2877 C2874 1.403 . S
C2877 C2878 1.392 . S
C2877 C2881 1.495 . S
C2878 C2877 1.392 . S
C2878 C2879 1.385 . S
C2878 C2880 1.478 . S
C2879 H2873 0.930 . S
C2879 C2875 1.400 . S
C2879 C2878 1.385 . S
C2880 C2878 1.478 . S
C2880 C2882 1.381 . S
C2880 C2886 1.383 . S
C2881 C2877 1.495 . S
C2881 H2887 0.959 . S
C2881 H2888 0.961 . S
C2881 H2889 0.960 . S
C2882 C2880 1.381 . S
C2882 C2883 1.394 . S
C2882 H2890 0.930 . S
C2883 C2882 1.394 . S
C2883 C2884 1.383 . S
C2883 H2891 0.929 . S
C2884 C2883 1.383 . S
C2884 C2885 1.377 . S
C2885 H2869 0.930 . S
C2885 C2884 1.377 . S
C2885 C2886 1.379 . S
C2886 H2870 0.931 . S
C2886 C2880 1.383 . S
C2886 C2885 1.379 . S
H2887 C2881 0.959 . S
H2888 C2881 0.961 . S
H2889 C2881 0.960 . S
H2890 C2882 0.930 . S
H2891 C2883 0.929 . S
H2892 C2900 0.929 . S
H2893 C2902 0.930 . S
H2894 C2904 0.930 . S
H2895 C2907 0.929 . S
H2896 C2910 0.930 . S
H2897 C2912 0.960 . S
H2898 C2912 0.960 . S
H2899 C2912 0.960 . S
C2900 H2892 0.929 . S
C2900 C2901 1.377 . S
C2900 C2902 1.384 . S
C2901 C2900 1.377 . S
C2901 C2907 1.390 . S
C2902 H2893 0.930 . S
C2902 C2900 1.384 . S
C2902 C2903 1.372 . S
C2903 C2902 1.372 . S
C2903 C2904 1.400 . S
C2903 C2908 1.490 . S
C2904 H2894 0.930 . S
C2904 C2903 1.400 . S
C2904 C2907 1.386 . S
H2905 C2921 0.930 . S
H2906 C2922 0.931 . S
C2907 H2895 0.929 . S
C2907 C2901 1.390 . S
C2907 C2904 1.386 . S
C2908 C2903 1.490 . S
C2908 C2910 1.395 . S
C2908 C2911 1.403 . S
H2909 C2915 0.930 . S
C2910 H2896 0.930 . S
C2910 C2908 1.395 . S
C2910 C2913 1.403 . S
C2911 C2908 1.403 . S
C2911 C2912 1.524 . S
C2911 C2915 1.400 . S
C2912 H2897 0.960 . S
C2912 H2898 0.960 . S
C2912 H2899 0.960 . S
C2912 C2911 1.524 . S
C2913 C2910 1.403 . S
C2913 C2914 1.392 . S
C2913 C2917 1.495 . S
C2914 C2913 1.392 . S
C2914 C2915 1.385 . S
C2914 C2916 1.478 . S
C2915 H2909 0.930 . S
C2915 C2911 1.400 . S
C2915 C2914 1.385 . S
C2916 C2914 1.478 . S
C2916 C2918 1.381 . S
C2916 C2922 1.383 . S
C2917 C2913 1.495 . S
C2917 H2923 0.959 . S
C2917 H2924 0.961 . S
C2917 H2925 0.960 . S
C2918 C2916 1.381 . S
C2918 C2919 1.394 . S
C2918 H2926 0.930 . S
C2919 C2918 1.394 . S
C2919 C2920 1.383 . S
C2919 H2927 0.929 . S
C2920 C2919 1.383 . S
C2920 C2921 1.377 . S
C2921 H2905 0.930 . S
C2921 C2920 1.377 . S
C2921 C2922 1.379 . S
C2922 H2906 0.931 . S
C2922 C2916 1.383 . S
C2922 C2921 1.379 . S
H2923 C2917 0.959 . S
H2924 C2917 0.961 . S
H2925 C2917 0.960 . S
H2926 C2918 0.930 . S
H2927 C2919 0.929 . S
H2928 C2936 0.929 . S
H2929 C2938 0.930 . S
H2930 C2940 0.930 . S
H2931 C2943 0.929 . S
H2932 C2946 0.930 . S
H2933 C2948 0.960 1_455 S
H2934 C2948 0.960 . S
H2935 C2948 0.961 1_455 S
C2936 H2928 0.929 . S
C2936 C2937 1.377 . S
C2936 C2938 1.384 . S
C2937 C2936 1.377 . S
C2937 C2943 1.390 . S
C2938 H2929 0.930 . S
C2938 C2936 1.384 . S
C2938 C2939 1.372 . S
C2939 C2938 1.372 . S
C2939 C2940 1.400 . S
C2939 C2944 1.490 . S
C2940 H2930 0.930 . S
C2940 C2939 1.400 . S
C2940 C2943 1.386 . S
H2941 C2957 0.930 . S
H2942 C2958 0.931 . S
C2943 H2931 0.929 . S
C2943 C2937 1.390 . S
C2943 C2940 1.386 . S
C2944 C2939 1.490 . S
C2944 C2946 1.395 . S
C2944 C2947 1.403 . S
H2945 C2951 0.930 . S
C2946 H2932 0.930 . S
C2946 C2944 1.395 . S
C2946 C2949 1.403 . S
C2947 C2944 1.403 . S
C2947 C2948 1.524 . S
C2947 C2951 1.400 . S
C2948 H2933 0.960 1_655 S
C2948 H2934 0.960 . S
C2948 H2935 0.961 1_655 S
C2948 C2947 1.524 . S
C2949 C2946 1.403 . S
C2949 C2950 1.392 . S
C2949 C2953 1.495 . S
C2950 C2949 1.392 . S
C2950 C2951 1.385 . S
C2950 C2952 1.478 . S
C2951 H2945 0.930 . S
C2951 C2947 1.400 . S
C2951 C2950 1.385 . S
C2952 C2950 1.478 . S
C2952 C2954 1.381 . S
C2952 C2958 1.383 . S
C2953 C2949 1.495 . S
C2953 H2959 0.959 . S
C2953 H2960 0.961 . S
C2953 H2961 0.960 . S
C2954 C2952 1.381 . S
C2954 C2955 1.394 . S
C2954 H2962 0.930 . S
C2955 C2954 1.394 . S
C2955 C2956 1.383 . S
C2955 H2963 0.929 . S
C2956 C2955 1.383 . S
C2956 C2957 1.377 . S
C2957 H2941 0.930 . S
C2957 C2956 1.377 . S
C2957 C2958 1.379 . S
C2958 H2942 0.931 . S
C2958 C2952 1.383 . S
C2958 C2957 1.379 . S
H2959 C2953 0.959 . S
H2960 C2953 0.961 . S
H2961 C2953 0.960 . S
H2962 C2954 0.930 . S
H2963 C2955 0.929 . S
H2964 C2972 0.929 . S
H2965 C2974 0.930 . S
H2966 C2976 0.930 . S
H2967 C2979 0.929 . S
H2968 C2982 0.930 . S
H2969 C2984 0.960 . S
H2970 C2984 0.960 . S
H2971 C2984 0.960 . S
C2972 H2964 0.929 . S
C2972 C2973 1.377 . S
C2972 C2974 1.384 . S
C2973 C2972 1.377 . S
C2973 C2979 1.390 . S
C2974 H2965 0.930 . S
C2974 C2972 1.384 . S
C2974 C2975 1.372 . S
C2975 C2974 1.372 . S
C2975 C2976 1.400 . S
C2975 C2980 1.490 . S
C2976 H2966 0.930 . S
C2976 C2975 1.400 . S
C2976 C2979 1.386 . S
H2977 C2993 0.930 . S
H2978 C2994 0.931 . S
C2979 H2967 0.929 . S
C2979 C2973 1.390 . S
C2979 C2976 1.386 . S
C2980 C2975 1.490 . S
C2980 C2982 1.395 . S
C2980 C2983 1.403 . S
H2981 C2987 0.930 . S
C2982 H2968 0.930 . S
C2982 C2980 1.395 . S
C2982 C2985 1.403 . S
C2983 C2980 1.403 . S
C2983 C2984 1.524 . S
C2983 C2987 1.400 . S
C2984 H2969 0.960 . S
C2984 H2970 0.960 . S
C2984 H2971 0.960 . S
C2984 C2983 1.524 . S
C2985 C2982 1.403 . S
C2985 C2986 1.392 . S
C2985 C2989 1.495 . S
C2986 C2985 1.392 . S
C2986 C2987 1.385 . S
C2986 C2988 1.478 . S
C2987 H2981 0.930 . S
C2987 C2983 1.400 . S
C2987 C2986 1.385 . S
C2988 C2986 1.478 . S
C2988 C2990 1.381 . S
C2988 C2994 1.383 . S
C2989 C2985 1.495 . S
C2989 H2995 0.959 1_565 S
C2989 H2996 0.961 1_565 S
C2989 H2997 0.960 . S
C2990 C2988 1.381 . S
C2990 C2991 1.394 . S
C2990 H2998 0.930 . S
C2991 C2990 1.394 . S
C2991 C2992 1.383 . S
C2991 H2999 0.929 . S
C2992 C2991 1.383 . S
C2992 C2993 1.377 . S
C2993 H2977 0.930 . S
C2993 C2992 1.377 . S
C2993 C2994 1.379 . S
C2994 H2978 0.931 . S
C2994 C2988 1.383 . S
C2994 C2993 1.379 . S
H2995 C2989 0.959 1_545 S
H2996 C2989 0.961 1_545 S
H2997 C2989 0.960 . S
H2998 C2990 0.930 . S
H2999 C2991 0.929 . S
H3000 C3008 0.929 . S
H3001 C3010 0.930 . S
H3002 C3012 0.930 . S
H3003 C3015 0.929 . S
H3004 C3018 0.930 . S
H3005 C3020 0.960 . S
H3006 C3020 0.960 . S
H3007 C3020 0.960 . S
C3008 H3000 0.929 . S
C3008 C3009 1.377 . S
C3008 C3010 1.384 . S
C3009 C3008 1.377 . S
C3009 C3015 1.390 . S
C3010 H3001 0.930 . S
C3010 C3008 1.384 . S
C3010 C3011 1.372 . S
C3011 C3010 1.372 . S
C3011 C3012 1.400 . S
C3011 C3016 1.490 . S
C3012 H3002 0.930 . S
C3012 C3011 1.400 . S
C3012 C3015 1.386 . S
H3013 C3029 0.930 . S
H3014 C3030 0.931 . S
C3015 H3003 0.929 . S
C3015 C3009 1.390 . S
C3015 C3012 1.386 . S
C3016 C3011 1.490 . S
C3016 C3018 1.395 . S
C3016 C3019 1.403 . S
H3017 C3023 0.930 . S
C3018 H3004 0.930 . S
C3018 C3016 1.395 . S
C3018 C3021 1.403 . S
C3019 C3016 1.403 . S
C3019 C3020 1.524 . S
C3019 C3023 1.400 . S
C3020 H3005 0.960 . S
C3020 H3006 0.960 . S
C3020 H3007 0.960 . S
C3020 C3019 1.524 . S
C3021 C3018 1.403 . S
C3021 C3022 1.392 . S
C3021 C3025 1.495 . S
C3022 C3021 1.392 . S
C3022 C3023 1.385 . S
C3022 C3024 1.478 . S
C3023 H3017 0.930 . S
C3023 C3019 1.400 . S
C3023 C3022 1.385 . S
C3024 C3022 1.478 . S
C3024 C3026 1.381 . S
C3024 C3030 1.383 . S
C3025 C3021 1.495 . S
C3025 H3031 0.959 . S
C3025 H3032 0.961 . S
C3025 H3033 0.960 . S
C3026 C3024 1.381 . S
C3026 C3027 1.394 . S
C3026 H3034 0.930 . S
C3027 C3026 1.394 . S
C3027 C3028 1.383 . S
C3027 H3035 0.929 . S
C3028 C3027 1.383 . S
C3028 C3029 1.377 . S
C3029 H3013 0.930 . S
C3029 C3028 1.377 . S
C3029 C3030 1.379 . S
C3030 H3014 0.931 . S
C3030 C3024 1.383 . S
C3030 C3029 1.379 . S
H3031 C3025 0.959 . S
H3032 C3025 0.961 . S
H3033 C3025 0.960 . S
H3034 C3026 0.930 . S
H3035 C3027 0.929 . S
H3036 C3044 0.929 . S
H3037 C3046 0.930 . S
H3038 C3048 0.930 . S
H3039 C3051 0.929 . S
H3040 C3054 0.930 . S
H3041 C3056 0.960 1_655 S
H3042 C3056 0.960 . S
H3043 C3056 0.962 . S
C3044 H3036 0.929 . S
C3044 C3045 1.377 . S
C3044 C3046 1.384 . S
C3045 C3044 1.377 . S
C3045 C3051 1.390 . S
C3046 H3037 0.930 . S
C3046 C3044 1.384 . S
C3046 C3047 1.372 . S
C3047 C3046 1.372 . S
C3047 C3048 1.400 . S
C3047 C3052 1.490 . S
C3048 H3038 0.930 . S
C3048 C3047 1.400 . S
C3048 C3051 1.386 . S
H3049 C3065 0.930 . S
H3050 C3066 0.931 . S
C3051 H3039 0.929 . S
C3051 C3045 1.390 . S
C3051 C3048 1.386 . S
C3052 C3047 1.490 . S
C3052 C3054 1.395 . S
C3052 C3055 1.403 . S
H3053 C3059 0.930 . S
C3054 H3040 0.930 . S
C3054 C3052 1.395 . S
C3054 C3057 1.403 . S
C3055 C3052 1.403 . S
C3055 C3056 1.524 . S
C3055 C3059 1.400 . S
C3056 H3041 0.960 1_455 S
C3056 H3042 0.960 . S
C3056 H3043 0.962 . S
C3056 C3055 1.524 . S
C3057 C3054 1.403 . S
C3057 C3058 1.392 . S
C3057 C3061 1.495 . S
C3058 C3057 1.392 . S
C3058 C3059 1.385 . S
C3058 C3060 1.478 . S
C3059 H3053 0.930 . S
C3059 C3055 1.400 . S
C3059 C3058 1.385 . S
C3060 C3058 1.478 . S
C3060 C3062 1.381 . S
C3060 C3066 1.383 . S
C3061 C3057 1.495 . S
C3061 H3067 0.959 . S
C3061 H3068 0.961 . S
C3061 H3069 0.960 . S
C3062 C3060 1.381 . S
C3062 C3063 1.394 . S
C3062 H3070 0.930 . S
C3063 C3062 1.394 . S
C3063 C3064 1.383 . S
C3063 H3071 0.929 . S
C3064 C3063 1.383 . S
C3064 C3065 1.377 . S
C3065 H3049 0.930 . S
C3065 C3064 1.377 . S
C3065 C3066 1.379 . S
C3066 H3050 0.931 . S
C3066 C3060 1.383 . S
C3066 C3065 1.379 . S
H3067 C3061 0.959 . S
H3068 C3061 0.961 . S
H3069 C3061 0.960 . S
H3070 C3062 0.930 . S
H3071 C3063 0.929 . S
H3072 C3080 0.929 . S
H3073 C3082 0.930 . S
H3074 C3084 0.930 . S
H3075 C3087 0.929 . S
H3076 C3090 0.930 . S
H3077 C3092 0.960 1_565 S
H3078 C3092 0.960 . S
H3079 C3092 0.950 1_565 S
C3080 H3072 0.929 . S
C3080 C3081 1.377 . S
C3080 C3082 1.384 . S
C3081 C3080 1.377 . S
C3081 C3087 1.390 . S
C3082 H3073 0.930 . S
C3082 C3080 1.384 . S
C3082 C3083 1.372 . S
C3083 C3082 1.372 . S
C3083 C3084 1.400 . S
C3083 C3088 1.490 . S
C3084 H3074 0.930 . S
C3084 C3083 1.400 . S
C3084 C3087 1.386 . S
H3085 C3101 0.930 . S
H3086 C3102 0.931 . S
C3087 H3075 0.929 . S
C3087 C3081 1.390 . S
C3087 C3084 1.386 . S
C3088 C3083 1.490 . S
C3088 C3090 1.395 . S
C3088 C3091 1.403 . S
H3089 C3095 0.930 . S
C3090 H3076 0.930 . S
C3090 C3088 1.395 . S
C3090 C3093 1.403 . S
C3091 C3088 1.403 . S
C3091 C3092 1.524 . S
C3091 C3095 1.400 . S
C3092 H3077 0.960 1_545 S
C3092 H3078 0.960 . S
C3092 H3079 0.950 1_545 S
C3092 C3091 1.524 . S
C3093 C3090 1.403 . S
C3093 C3094 1.392 . S
C3093 C3097 1.495 . S
C3094 C3093 1.392 . S
C3094 C3095 1.385 . S
C3094 C3096 1.478 . S
C3095 H3089 0.930 . S
C3095 C3091 1.400 . S
C3095 C3094 1.385 . S
C3096 C3094 1.478 . S
C3096 C3098 1.381 . S
C3096 C3102 1.383 . S
C3097 C3093 1.495 . S
C3097 H3103 0.959 . S
C3097 H3104 0.961 . S
C3097 H3105 0.960 . S
C3098 C3096 1.381 . S
C3098 C3099 1.394 . S
C3098 H3106 0.930 . S
C3099 C3098 1.394 . S
C3099 C3100 1.383 . S
C3099 H3107 0.929 . S
C3100 C3099 1.383 . S
C3100 C3101 1.377 . S
C3101 H3085 0.930 . S
C3101 C3100 1.377 . S
C3101 C3102 1.379 . S
C3102 H3086 0.931 . S
C3102 C3096 1.383 . S
C3102 C3101 1.379 . S
H3103 C3097 0.959 . S
H3104 C3097 0.961 . S
H3105 C3097 0.960 . S
H3106 C3098 0.930 . S
H3107 C3099 0.929 . S
H3108 C3116 0.929 . S
H3109 C3118 0.930 . S
H3110 C3120 0.930 . S
H3111 C3123 0.929 . S
H3112 C3126 0.930 . S
H3113 C3128 0.960 . S
H3114 C3128 0.960 . S
H3115 C3128 0.960 . S
C3116 H3108 0.929 . S
C3116 C3117 1.377 . S
C3116 C3118 1.384 . S
C3117 C3116 1.377 . S
C3117 C3123 1.390 . S
C3118 H3109 0.930 . S
C3118 C3116 1.384 . S
C3118 C3119 1.372 . S
C3119 C3118 1.372 . S
C3119 C3120 1.400 . S
C3119 C3124 1.490 . S
C3120 H3110 0.930 . S
C3120 C3119 1.400 . S
C3120 C3123 1.386 . S
H3121 C3137 0.930 . S
H3122 C3138 0.931 . S
C3123 H3111 0.929 . S
C3123 C3117 1.390 . S
C3123 C3120 1.386 . S
C3124 C3119 1.490 . S
C3124 C3126 1.395 . S
C3124 C3127 1.403 . S
H3125 C3131 0.930 . S
C3126 H3112 0.930 . S
C3126 C3124 1.395 . S
C3126 C3129 1.403 . S
C3127 C3124 1.403 . S
C3127 C3128 1.524 . S
C3127 C3131 1.400 . S
C3128 H3113 0.960 . S
C3128 H3114 0.960 . S
C3128 H3115 0.960 . S
C3128 C3127 1.524 . S
C3129 C3126 1.403 . S
C3129 C3130 1.392 . S
C3129 C3133 1.495 . S
C3130 C3129 1.392 . S
C3130 C3131 1.385 . S
C3130 C3132 1.478 . S
C3131 H3125 0.930 . S
C3131 C3127 1.400 . S
C3131 C3130 1.385 . S
C3132 C3130 1.478 . S
C3132 C3134 1.381 . S
C3132 C3138 1.383 . S
C3133 C3129 1.495 . S
C3133 H3139 0.959 . S
C3133 H3140 0.961 . S
C3133 H3141 0.960 . S
C3134 C3132 1.381 . S
C3134 C3135 1.394 . S
C3134 H3142 0.930 . S
C3135 C3134 1.394 . S
C3135 C3136 1.383 . S
C3135 H3143 0.929 . S
C3136 C3135 1.383 . S
C3136 C3137 1.377 . S
C3137 H3121 0.930 . S
C3137 C3136 1.377 . S
C3137 C3138 1.379 . S
C3138 H3122 0.931 . S
C3138 C3132 1.383 . S
C3138 C3137 1.379 . S
H3139 C3133 0.959 . S
H3140 C3133 0.961 . S
H3141 C3133 0.960 . S
H3142 C3134 0.930 . S
H3143 C3135 0.929 . S
C1425 C937 1.236 . S
C1444 C52 1.227 . S
C1461 C111 1.235 . S
C1480 C996 1.237 . S
C1497 C170 1.234 . S
C1516 C1055 1.242 . S
C1533 C229 1.233 . S
C1552 C760 1.218 . S
C1569 C819 1.234 . S
C1588 C288 1.218 . S
C1605 C347 1.234 . S
C1624 C878 1.217 . S
C1641 C1291 1.233 . S
C1660 C406 1.219 . S
C1677 C465 1.236 . S
C1696 C1350 1.225 . S
C1713 C524 1.236 . S
C1732 C1409 1.229 . S
C1749 C1114 1.233 . S
C1768 C583 1.219 . S
C1785 C642 1.236 . S
C1804 C1173 1.220 . S
C1821 C1232 1.236 . S
C1840 C701 1.225 . S
C1857 C3 1.799 . S
C1876 C1360 1.790 . S
C1893 C1065 1.799 . S
C1912 C62 1.786 . S
C1929 C121 1.794 . S
C1948 C1124 1.788 . S
C1965 C1183 1.794 . S
C1984 C180 1.803 . S
C2001 C239 1.795 . S
C2020 C1242 1.787 . S
C2037 C1301 1.794 . S
C2056 C298 1.798 . S
C2073 C357 1.798 . S
C2092 C770 1.780 . S
C2109 C829 1.794 . S
C2128 C416 1.800 . S
C2145 C888 1.795 . S
C2164 C475 1.783 . S
C2181 C947 1.794 . S
C2200 C534 1.794 . S
C2217 C593 1.796 . S
C2236 C1006 1.804 . S
C2253 C652 1.795 . S
C2272 C711 1.787 . S
C2289 C418 1.294 . S
C2308 C5 1.280 . S
C2325 C477 1.294 . S
C2344 C64 1.276 . S
C2361 C536 1.301 . S
C2380 C123 1.313 . S
C2397 C595 1.294 . S
C2416 C182 1.281 . S
C2433 C241 1.301 . S
C2452 C654 1.314 . S
C2469 C300 1.300 . S
C2488 C359 1.296 . S
C2505 C713 1.300 . S
C2524 C1126 1.278 . S
C2541 C772 1.294 . S
C2560 C1185 1.312 . S
C2577 C1244 1.294 . S
C2596 C831 1.314 . S
C2613 C1303 1.300 . S
C2632 C890 1.292 . S
C2649 C1362 1.302 . S
C2668 C949 1.280 . S
C2685 C1067 1.294 . S
C2704 C1008 1.309 . S
C2721 C33 1.895 . S
C2740 C1154 1.895 . S
C2757 C1213 1.896 . S
C2776 C92 1.886 . S
C2793 C151 1.895 . S
C2812 C1272 1.888 . S
C2829 C1331 1.895 . S
C2848 C210 1.896 . S
C2865 C269 1.895 . S
C2884 C1390 1.887 . S
C2901 C1095 1.895 . S
C2920 C328 1.886 . S
C2937 C387 1.895 . S
C2956 C1036 1.887 . S
C2973 C741 1.894 . S
C2992 C446 1.895 . S
C3009 C505 1.894 . S
C3028 C800 1.890 . S
C3045 C564 1.895 . S
C3064 C859 1.888 . S
C3081 C623 1.895 . S
C3100 C918 1.887 . S
C3117 C682 1.895 . S
C3136 C977 1.896 . S
