# Generated by pormake.
# Topology sxg, (6)-cn, num edge types: 1
# Building blocks:
#     Node 0, Type 0, BuildingBlock: MIFKUJ_clean_sbu_0, # of connection points: 6
#     Node 1, Type 0, BuildingBlock: MIFKUJ_clean_sbu_0, # of connection points: 6
#     Node 2, Type 0, BuildingBlock: MIFKUJ_clean_sbu_0, # of connection points: 6
#     Node 3, Type 0, BuildingBlock: MIFKUJ_clean_sbu_0, # of connection points: 6
#     Node 4, Type 0, BuildingBlock: MIFKUJ_clean_sbu_0, # of connection points: 6
#     Node 5, Type 0, BuildingBlock: MIFKUJ_clean_sbu_0, # of connection points: 6
#     Node 6, Type 0, BuildingBlock: MIFKUJ_clean_sbu_0, # of connection points: 6
#     Node 7, Type 0, BuildingBlock: MIFKUJ_clean_sbu_0, # of connection points: 6
#     Node 8, Type 0, BuildingBlock: MIFKUJ_clean_sbu_0, # of connection points: 6
#     Node 9, Type 0, BuildingBlock: MIFKUJ_clean_sbu_0, # of connection points: 6
#     Node 10, Type 0, BuildingBlock: MIFKUJ_clean_sbu_0, # of connection points: 6
#     Node 11, Type 0, BuildingBlock: MIFKUJ_clean_sbu_0, # of connection points: 6
#     Node 12, Type 0, BuildingBlock: MIFKUJ_clean_sbu_0, # of connection points: 6
#     Node 13, Type 0, BuildingBlock: MIFKUJ_clean_sbu_0, # of connection points: 6
#     Node 14, Type 0, BuildingBlock: MIFKUJ_clean_sbu_0, # of connection points: 6
#     Node 15, Type 0, BuildingBlock: MIFKUJ_clean_sbu_0, # of connection points: 6
#     Node 16, Type 0, BuildingBlock: MIFKUJ_clean_sbu_0, # of connection points: 6
#     Node 17, Type 0, BuildingBlock: MIFKUJ_clean_sbu_0, # of connection points: 6
#     Node 18, Type 0, BuildingBlock: MIFKUJ_clean_sbu_0, # of connection points: 6
#     Node 19, Type 0, BuildingBlock: MIFKUJ_clean_sbu_0, # of connection points: 6
#     Node 20, Type 0, BuildingBlock: MIFKUJ_clean_sbu_0, # of connection points: 6
#     Node 21, Type 0, BuildingBlock: MIFKUJ_clean_sbu_0, # of connection points: 6
#     Node 22, Type 0, BuildingBlock: MIFKUJ_clean_sbu_0, # of connection points: 6
#     Node 23, Type 0, BuildingBlock: MIFKUJ_clean_sbu_0, # of connection points: 6
#     Edge 24, Type (0, 0), BuildingBlock: TEMPAE_clean_linker_10, # of connection points: 2
#     Edge 25, Type (0, 0), BuildingBlock: TEMPAE_clean_linker_10, # of connection points: 2
#     Edge 26, Type (0, 0), BuildingBlock: TEMPAE_clean_linker_10, # of connection points: 2
#     Edge 27, Type (0, 0), BuildingBlock: TEMPAE_clean_linker_10, # of connection points: 2
#     Edge 28, Type (0, 0), BuildingBlock: TEMPAE_clean_linker_10, # of connection points: 2
#     Edge 29, Type (0, 0), BuildingBlock: TEMPAE_clean_linker_10, # of connection points: 2
#     Edge 30, Type (0, 0), BuildingBlock: TEMPAE_clean_linker_10, # of connection points: 2
#     Edge 31, Type (0, 0), BuildingBlock: TEMPAE_clean_linker_10, # of connection points: 2
#     Edge 32, Type (0, 0), BuildingBlock: TEMPAE_clean_linker_10, # of connection points: 2
#     Edge 33, Type (0, 0), BuildingBlock: TEMPAE_clean_linker_10, # of connection points: 2
#     Edge 34, Type (0, 0), BuildingBlock: TEMPAE_clean_linker_10, # of connection points: 2
#     Edge 35, Type (0, 0), BuildingBlock: TEMPAE_clean_linker_10, # of connection points: 2
#     Edge 36, Type (0, 0), BuildingBlock: TEMPAE_clean_linker_10, # of connection points: 2
#     Edge 37, Type (0, 0), BuildingBlock: TEMPAE_clean_linker_10, # of connection points: 2
#     Edge 38, Type (0, 0), BuildingBlock: TEMPAE_clean_linker_10, # of connection points: 2
#     Edge 39, Type (0, 0), BuildingBlock: TEMPAE_clean_linker_10, # of connection points: 2
#     Edge 40, Type (0, 0), BuildingBlock: TEMPAE_clean_linker_10, # of connection points: 2
#     Edge 41, Type (0, 0), BuildingBlock: TEMPAE_clean_linker_10, # of connection points: 2
#     Edge 42, Type (0, 0), BuildingBlock: TEMPAE_clean_linker_10, # of connection points: 2
#     Edge 43, Type (0, 0), BuildingBlock: TEMPAE_clean_linker_10, # of connection points: 2
#     Edge 44, Type (0, 0), BuildingBlock: TEMPAE_clean_linker_10, # of connection points: 2
#     Edge 45, Type (0, 0), BuildingBlock: TEMPAE_clean_linker_10, # of connection points: 2
#     Edge 46, Type (0, 0), BuildingBlock: TEMPAE_clean_linker_10, # of connection points: 2
#     Edge 47, Type (0, 0), BuildingBlock: TEMPAE_clean_linker_10, # of connection points: 2
#     Edge 48, Type (0, 0), BuildingBlock: TEMPAE_clean_linker_10, # of connection points: 2
#     Edge 49, Type (0, 0), BuildingBlock: TEMPAE_clean_linker_10, # of connection points: 2
#     Edge 50, Type (0, 0), BuildingBlock: TEMPAE_clean_linker_10, # of connection points: 2
#     Edge 51, Type (0, 0), BuildingBlock: TEMPAE_clean_linker_10, # of connection points: 2
#     Edge 52, Type (0, 0), BuildingBlock: TEMPAE_clean_linker_10, # of connection points: 2
#     Edge 53, Type (0, 0), BuildingBlock: TEMPAE_clean_linker_10, # of connection points: 2
#     Edge 54, Type (0, 0), BuildingBlock: TEMPAE_clean_linker_10, # of connection points: 2
#     Edge 55, Type (0, 0), BuildingBlock: TEMPAE_clean_linker_10, # of connection points: 2
#     Edge 56, Type (0, 0), BuildingBlock: TEMPAE_clean_linker_10, # of connection points: 2
#     Edge 57, Type (0, 0), BuildingBlock: TEMPAE_clean_linker_10, # of connection points: 2
#     Edge 58, Type (0, 0), BuildingBlock: TEMPAE_clean_linker_10, # of connection points: 2
#     Edge 59, Type (0, 0), BuildingBlock: TEMPAE_clean_linker_10, # of connection points: 2
#     Edge 60, Type (0, 0), BuildingBlock: TEMPAE_clean_linker_10, # of connection points: 2
#     Edge 61, Type (0, 0), BuildingBlock: TEMPAE_clean_linker_10, # of connection points: 2
#     Edge 62, Type (0, 0), BuildingBlock: TEMPAE_clean_linker_10, # of connection points: 2
#     Edge 63, Type (0, 0), BuildingBlock: TEMPAE_clean_linker_10, # of connection points: 2
#     Edge 64, Type (0, 0), BuildingBlock: TEMPAE_clean_linker_10, # of connection points: 2
#     Edge 65, Type (0, 0), BuildingBlock: TEMPAE_clean_linker_10, # of connection points: 2
#     Edge 66, Type (0, 0), BuildingBlock: TEMPAE_clean_linker_10, # of connection points: 2
#     Edge 67, Type (0, 0), BuildingBlock: TEMPAE_clean_linker_10, # of connection points: 2
#     Edge 68, Type (0, 0), BuildingBlock: TEMPAE_clean_linker_10, # of connection points: 2
#     Edge 69, Type (0, 0), BuildingBlock: TEMPAE_clean_linker_10, # of connection points: 2
#     Edge 70, Type (0, 0), BuildingBlock: TEMPAE_clean_linker_10, # of connection points: 2
#     Edge 71, Type (0, 0), BuildingBlock: TEMPAE_clean_linker_10, # of connection points: 2
#     Edge 72, Type (0, 0), BuildingBlock: TEMPAE_clean_linker_10, # of connection points: 2
#     Edge 73, Type (0, 0), BuildingBlock: TEMPAE_clean_linker_10, # of connection points: 2
#     Edge 74, Type (0, 0), BuildingBlock: TEMPAE_clean_linker_10, # of connection points: 2
#     Edge 75, Type (0, 0), BuildingBlock: TEMPAE_clean_linker_10, # of connection points: 2
#     Edge 76, Type (0, 0), BuildingBlock: TEMPAE_clean_linker_10, # of connection points: 2
#     Edge 77, Type (0, 0), BuildingBlock: TEMPAE_clean_linker_10, # of connection points: 2
#     Edge 78, Type (0, 0), BuildingBlock: TEMPAE_clean_linker_10, # of connection points: 2
#     Edge 79, Type (0, 0), BuildingBlock: TEMPAE_clean_linker_10, # of connection points: 2
#     Edge 80, Type (0, 0), BuildingBlock: TEMPAE_clean_linker_10, # of connection points: 2
#     Edge 81, Type (0, 0), BuildingBlock: TEMPAE_clean_linker_10, # of connection points: 2
#     Edge 82, Type (0, 0), BuildingBlock: TEMPAE_clean_linker_10, # of connection points: 2
#     Edge 83, Type (0, 0), BuildingBlock: TEMPAE_clean_linker_10, # of connection points: 2
#     Edge 84, Type (0, 0), BuildingBlock: TEMPAE_clean_linker_10, # of connection points: 2
#     Edge 85, Type (0, 0), BuildingBlock: TEMPAE_clean_linker_10, # of connection points: 2
#     Edge 86, Type (0, 0), BuildingBlock: TEMPAE_clean_linker_10, # of connection points: 2
#     Edge 87, Type (0, 0), BuildingBlock: TEMPAE_clean_linker_10, # of connection points: 2
#     Edge 88, Type (0, 0), BuildingBlock: TEMPAE_clean_linker_10, # of connection points: 2
#     Edge 89, Type (0, 0), BuildingBlock: TEMPAE_clean_linker_10, # of connection points: 2
#     Edge 90, Type (0, 0), BuildingBlock: TEMPAE_clean_linker_10, # of connection points: 2
#     Edge 91, Type (0, 0), BuildingBlock: TEMPAE_clean_linker_10, # of connection points: 2
#     Edge 92, Type (0, 0), BuildingBlock: TEMPAE_clean_linker_10, # of connection points: 2
#     Edge 93, Type (0, 0), BuildingBlock: TEMPAE_clean_linker_10, # of connection points: 2
#     Edge 94, Type (0, 0), BuildingBlock: TEMPAE_clean_linker_10, # of connection points: 2
#     Edge 95, Type (0, 0), BuildingBlock: TEMPAE_clean_linker_10, # of connection points: 2
# Relax obj value: 0.175
# Max RMSD: 0.247
# Mean RMSD: 0.247
data_MOF--net-sxg--node1-MIFKUJ_clean_sbu_0--edge1-TEMPAE_clean_linker_10
_symmetry_space_group_name_H-M    P1
_symmetry_Int_Tables_number       1
_symmetry_cell_setting            triclinic
loop_
_symmetry_equiv_pos_as_xyz
'x, y, z'
_cell_length_a     47.486964
_cell_length_b     47.44564
_cell_length_c     47.543553
_cell_angle_alpha  90.007663
_cell_angle_beta   90.036846
_cell_angle_gamma 90.135302
loop_
_atom_site_label
_atom_site_type_symbol
_atom_site_fract_x
_atom_site_fract_y
_atom_site_fract_z
_atom_type_partial_charge
Zn0 Zn 0.03158 0.27052 0.25155 0.0
Zn1 Zn 0.98658 0.32136 0.25106 0.0
C2 C 0.05616 0.27151 0.19673 0.0
O3 O 0.04346 0.24699 0.19458 0.0
C4 C 0.9675 0.31929 0.3046 0.0
O5 O 0.97737 0.34499 0.30146 0.0
O6 O 0.05236 0.23433 0.26051 0.0
O7 O 0.03939 0.29974 0.28201 0.0
O8 O 0.02412 0.33717 0.25881 0.0
C9 C 0.07316 0.23237 0.27725 0.0
O10 O 0.08118 0.25465 0.2916 0.0
O11 O 0.05295 0.28596 0.21891 0.0
C12 C 0.94462 0.35994 0.22555 0.0
O13 O 0.95112 0.34899 0.20103 0.0
O14 O 0.9581 0.35255 0.2474 0.0
O15 O 0.98381 0.29892 0.21635 0.0
O16 O 0.99251 0.25864 0.23757 0.0
O17 O 0.97176 0.30132 0.28522 0.0
C18 C 0.0412 0.32587 0.27592 0.0
C19 C 0.98074 0.27253 0.218 0.0
Zn20 Zn 0.46544 0.72767 0.75276 0.0
Zn21 Zn 0.50339 0.67438 0.74633 0.0
C22 C 0.43731 0.73003 0.70025 0.0
O23 O 0.45021 0.75457 0.69991 0.0
C24 C 0.52861 0.67258 0.79795 0.0
O25 O 0.5181 0.64717 0.79453 0.0
O26 O 0.44612 0.76454 0.76216 0.0
O27 O 0.45887 0.6995 0.78442 0.0
O28 O 0.46535 0.66225 0.75733 0.0
C29 C 0.42513 0.76656 0.77866 0.0
O30 O 0.41681 0.74432 0.79288 0.0
O31 O 0.4418 0.71341 0.72069 0.0
C32 C 0.55232 0.64624 0.72798 0.0
O33 O 0.558 0.67187 0.71919 0.0
O34 O 0.52827 0.64095 0.7385 0.0
O35 O 0.50393 0.69816 0.71216 0.0
O36 O 0.50449 0.73715 0.73705 0.0
O37 O 0.52313 0.69149 0.77977 0.0
C38 C 0.45284 0.67424 0.7776 0.0
C39 C 0.51108 0.72367 0.71493 0.0
Zn40 Zn 0.53555 0.22494 0.74082 0.0
Zn41 Zn 0.49159 0.17448 0.74467 0.0
C42 C 0.56278 0.22363 0.79515 0.0
O43 O 0.54549 0.24425 0.80141 0.0
C44 C 0.46733 0.18495 0.6937 0.0
O45 O 0.47787 0.15951 0.69097 0.0
O46 O 0.55326 0.26226 0.7309 0.0
O47 O 0.5433 0.19613 0.70978 0.0
O48 O 0.52636 0.1579 0.73045 0.0
C49 C 0.57239 0.26555 0.71249 0.0
O50 O 0.5795 0.24427 0.69634 0.0
O51 O 0.56135 0.21184 0.77125 0.0
C52 C 0.43926 0.15068 0.76029 0.0
O53 O 0.43591 0.17595 0.77106 0.0
O54 O 0.46275 0.14404 0.74939 0.0
O55 O 0.49713 0.19313 0.78118 0.0
O56 O 0.4971 0.2335 0.75885 0.0
O57 O 0.47276 0.19885 0.71589 0.0
C58 C 0.54354 0.16953 0.71368 0.0
C59 C 0.49115 0.21902 0.78056 0.0
Zn60 Zn 0.95988 0.77026 0.24504 0.0
Zn61 Zn 0.00272 0.8219 0.24661 0.0
C62 C 0.93446 0.76349 0.29886 0.0
O63 O 0.94713 0.73898 0.29687 0.0
C64 C 0.02155 0.81688 0.19194 0.0
O65 O 0.01011 0.84207 0.19215 0.0
O66 O 0.94086 0.73456 0.23137 0.0
O67 O 0.95027 0.80046 0.2161 0.0
O68 O 0.96604 0.83827 0.23837 0.0
C69 C 0.91414 0.73384 0.23307 0.0
O70 O 0.90058 0.75613 0.24219 0.0
O71 O 0.93811 0.78153 0.27947 0.0
C72 C 0.05597 0.84764 0.24461 0.0
O73 O 0.06276 0.82149 0.23884 0.0
O74 O 0.03065 0.85364 0.25086 0.0
O75 O 0.00377 0.79992 0.28167 0.0
O76 O -0.00066 0.75984 0.25899 0.0
O77 O 0.01758 0.80082 0.21301 0.0
C78 C 0.94916 0.82677 0.22126 0.0
C79 C 0.00922 0.77396 0.27949 0.0
Zn80 Zn 0.2493 0.03061 0.2665 0.0
Zn81 Zn 0.24827 0.98374 0.32168 0.0
C82 C 0.19419 0.0575 0.28186 0.0
O83 O 0.18544 0.03326 0.29197 0.0
C84 C 0.30285 0.96583 0.32704 0.0
O85 O 0.29692 0.975 0.35243 0.0
O86 O 0.26947 0.04538 0.23248 0.0
O87 O 0.27624 0.03589 0.29943 0.0
O88 O 0.24999 0.02278 0.3354 0.0
C89 C 0.27438 0.07168 0.23344 0.0
O90 O 0.26794 0.0858 0.25627 0.0
O91 O 0.21879 0.05953 0.27163 0.0
C92 C 0.24087 0.93172 0.34637 0.0
O93 O 0.24428 0.92549 0.3197 0.0
O94 O 0.24122 0.95742 0.35397 0.0
O95 O 0.21801 0.9745 0.29538 0.0
O96 O 0.22975 0.99426 0.25482 0.0
O97 O 0.28553 0.97061 0.30722 0.0
C98 C 0.2679 0.03936 0.32461 0.0
C99 C 0.21565 0.97646 0.26898 0.0
Zn100 Zn 0.24501 0.96565 0.77305 0.0
Zn101 Zn 0.25032 0.01045 0.82299 0.0
C102 C 0.30068 0.9381 0.76995 0.0
O103 O 0.30759 0.9579 0.75195 0.0
C104 C 0.19561 0.02968 0.80478 0.0
O105 O 0.18653 0.01297 0.82482 0.0
O106 O 0.22894 0.94951 0.73735 0.0
O107 O 0.216 0.95731 0.80392 0.0
O108 O 0.23642 0.97607 0.84119 0.0
C109 C 0.2245 0.92311 0.73873 0.0
O110 O 0.22806 0.9102 0.76292 0.0
O111 O 0.27658 0.93832 0.78154 0.0
C112 C 0.26108 0.06453 0.84439 0.0
O113 O 0.26355 0.0693 0.81728 0.0
O114 O 0.25685 0.03944 0.85284 0.0
O115 O 0.28638 0.00465 0.80328 0.0
O116 O 0.26278 0.00428 0.7637 0.0
O117 O 0.22159 0.02985 0.79853 0.0
C118 C 0.21993 0.95805 0.83043 0.0
C119 C 0.28461 0.01121 0.7776 0.0
Zn120 Zn 0.75138 0.46486 0.72575 0.0
Zn121 Zn 0.75161 0.5111 0.67362 0.0
C122 C 0.69597 0.43767 0.72308 0.0
O123 O 0.68718 0.45856 0.73887 0.0
C124 C 0.80411 0.53448 0.68181 0.0
O125 O 0.80524 0.52465 0.65599 0.0
O126 O 0.76462 0.44788 0.7623 0.0
O127 O 0.78206 0.45817 0.69603 0.0
O128 O 0.75945 0.47363 0.65872 0.0
C129 C 0.77571 0.42352 0.76123 0.0
O130 O 0.78055 0.41205 0.73656 0.0
O131 O 0.72133 0.43712 0.7147 0.0
C132 C 0.7466 0.56379 0.64863 0.0
O133 O 0.7454 0.57007 0.67553 0.0
O134 O 0.74819 0.53806 0.6414 0.0
O135 O 0.71508 0.51186 0.6925 0.0
O136 O 0.73213 0.50308 0.73477 0.0
O137 O 0.78293 0.52807 0.69688 0.0
C138 C 0.77487 0.45533 0.67036 0.0
C139 C 0.71348 0.51401 0.7189 0.0
Zn140 Zn 0.74105 0.53384 0.22385 0.0
Zn141 Zn 0.74397 0.49147 0.17303 0.0
C142 C 0.79588 0.5598 0.22609 0.0
O143 O 0.79829 0.54459 0.24903 0.0
C144 C 0.68908 0.47009 0.17989 0.0
O145 O 0.6877 0.47999 0.15412 0.0
O146 O 0.7282 0.55294 0.25986 0.0
O147 O 0.71123 0.542 0.19353 0.0
O148 O 0.73896 0.52982 0.15863 0.0
C149 C 0.72878 0.57977 0.2601 0.0
O150 O 0.73542 0.59327 0.2369 0.0
O151 O 0.77379 0.55755 0.21124 0.0
C152 C 0.74347 0.43943 0.14626 0.0
O153 O 0.73982 0.43188 0.17257 0.0
O154 O 0.74734 0.46523 0.14024 0.0
O155 O 0.77891 0.48713 0.19424 0.0
O156 O 0.75764 0.49491 0.23469 0.0
O157 O 0.71065 0.47593 0.19468 0.0
C158 C 0.72067 0.54623 0.16881 0.0
C159 C 0.77729 0.48346 0.22048 0.0
Zn160 Zn 0.26544 0.24704 0.03953 0.0
Zn161 Zn 0.32263 0.25125 0.97986 0.0
C162 C 0.27728 0.19334 0.06436 0.0
O163 O 0.26092 0.18453 0.04389 0.0
C164 C 0.3219 0.29476 0.94532 0.0
O165 O 0.34765 0.29309 0.95524 0.0
O166 O 0.23306 0.26714 0.05842 0.0
O167 O 0.2955 0.27243 0.02428 0.0
O168 O 0.33928 0.27299 0.0115 0.0
C169 C 0.23173 0.26579 0.08509 0.0
O170 O 0.25242 0.25401 0.09909 0.0
O171 O 0.28283 0.21945 0.06644 0.0
C172 C 0.34882 0.22846 0.93144 0.0
O173 O 0.32285 0.22915 0.92201 0.0
O174 O 0.35376 0.23452 0.95699 0.0
O175 O 0.29692 0.22336 -0.0014 0.0
O176 O 0.25173 0.22476 0.00528 0.0
O177 O 0.30311 0.27825 0.95478 0.0
C178 C 0.32126 0.27527 0.03101 0.0
C179 C 0.27239 0.21758 0.98985 0.0
Zn180 Zn 0.76169 0.24667 0.96069 0.0
Zn181 Zn 0.81474 0.2396 0.01341 0.0
C182 C 0.78462 0.29555 0.93011 0.0
O183 O 0.79841 0.30185 0.95325 0.0
C184 C 0.81866 0.18367 0.02565 0.0
O185 O 0.84404 0.18938 0.0162 0.0
O186 O 0.7263 0.22899 0.94667 0.0
O187 O 0.79361 0.21838 0.96014 0.0
O188 O 0.8291 0.24403 0.97481 0.0
C189 C 0.7271 0.21196 0.92606 0.0
O190 O 0.75145 0.20211 0.9175 0.0
O191 O 0.76935 0.2736 0.92935 0.0
C192 C 0.85577 0.26379 0.05282 0.0
O193 O 0.8456 0.28858 0.04593 0.0
O194 O 0.8467 0.24188 0.04055 0.0
O195 O 0.78793 0.26815 0.02531 0.0
O196 O 0.75262 0.27098 0.99488 0.0
O197 O 0.7992 0.20153 0.02164 0.0
C198 C 0.81758 0.2294 0.95577 0.0
C199 C 0.76444 0.27818 0.01782 0.0
Zn200 Zn 0.72254 0.7532 0.46044 0.0
Zn201 Zn 0.6668 0.75301 0.50227 0.0
C202 C 0.72665 0.69927 0.43415 0.0
O203 O 0.74931 0.69825 0.45 0.0
C204 C 0.66723 0.8045 0.52783 0.0
O205 O 0.64184 0.80213 0.51707 0.0
O206 O 0.75955 0.76563 0.44321 0.0
O207 O 0.69377 0.78428 0.45242 0.0
O208 O 0.65459 0.76221 0.46438 0.0
C209 C 0.75965 0.76793 0.41654 0.0
O210 O 0.73594 0.76413 0.40277 0.0
O211 O 0.7106 0.72057 0.43601 0.0
C212 C 0.64023 0.73826 0.55218 0.0
O213 O 0.6669 0.73564 0.55893 0.0
O214 O 0.63357 0.74519 0.52723 0.0
O215 O 0.68831 0.71784 0.5017 0.0
O216 O 0.73047 0.73665 0.49968 0.0
O217 O 0.68548 0.78584 0.52181 0.0
C218 C 0.66811 0.778 0.4477 0.0
C219 C 0.71389 0.71766 0.5089 0.0
Zn220 Zn 0.22941 0.74925 0.54012 0.0
Zn221 Zn 0.1712 0.74599 0.48239 0.0
C222 C 0.23122 0.80008 0.56917 0.0
O223 O 0.25489 0.80095 0.5549 0.0
C224 C 0.17028 0.69943 0.45065 0.0
O225 O 0.14405 0.70389 0.4582 0.0
O226 O 0.26141 0.72871 0.55941 0.0
O227 O 0.19709 0.72541 0.52672 0.0
O228 O 0.15299 0.72755 0.51481 0.0
C229 C 0.26093 0.72796 0.58616 0.0
O230 O 0.23848 0.73721 0.59933 0.0
O231 O 0.21508 0.77893 0.56621 0.0
C232 C 0.14986 0.76478 0.43162 0.0
O233 O 0.17644 0.76065 0.42521 0.0
O234 O 0.14238 0.76358 0.45721 0.0
O235 O 0.19775 0.77383 0.49997 0.0
O236 O 0.24304 0.77027 0.50514 0.0
O237 O 0.18949 0.71548 0.46021 0.0
C238 C 0.17132 0.72516 0.53407 0.0
C239 C 0.22219 0.77847 0.4905 0.0
Zn240 Zn 0.01321 0.67944 0.73568 0.0
Zn241 Zn 0.95386 0.736 0.75108 0.0
C242 C 0.04527 0.68705 0.6889 0.0
O243 O 0.03634 0.66086 0.68701 0.0
C244 C 0.92738 0.71978 0.80415 0.0
O245 O 0.9524 0.7108 0.81173 0.0
O246 O 0.03884 0.64867 0.74808 0.0
O247 O 0.99791 0.70094 0.76828 0.0
O248 O 0.99079 0.74597 0.77074 0.0
C249 C 0.06449 0.6552 0.75197 0.0
O250 O 0.07199 0.68186 0.75105 0.0
O251 O 0.03589 0.70243 0.70864 0.0
C252 C 0.91327 0.76545 0.72086 0.0
O253 O 0.89981 0.7422 0.72766 0.0
O254 O 0.93947 0.76719 0.72615 0.0
O255 O 0.95552 0.69785 0.73235 0.0
O256 O 0.98012 0.66202 0.717 0.0
O257 O 0.92416 0.73136 0.78033 0.0
C258 C 0.00683 0.72507 0.77526 0.0
C259 C 0.95645 0.67385 0.72058 0.0
Zn260 Zn 0.48495 0.32668 0.22833 0.0
Zn261 Zn 0.54639 0.27291 0.24186 0.0
C262 C 0.45324 0.31836 0.18159 0.0
O263 O 0.4617 0.34469 0.17969 0.0
C264 C 0.57273 0.27203 0.29452 0.0
O265 O 0.55511 0.25078 0.29685 0.0
O266 O 0.45736 0.35493 0.24172 0.0
O267 O 0.50042 0.30496 0.26168 0.0
O268 O 0.51048 0.26012 0.26156 0.0
C269 C 0.43311 0.34518 0.24748 0.0
O270 O 0.42917 0.31776 0.24746 0.0
O271 O 0.46295 0.30309 0.20126 0.0
C272 C 0.59073 0.24106 0.21831 0.0
O273 O 0.6045 0.26411 0.22519 0.0
O274 O 0.56415 0.24051 0.22132 0.0
O275 O 0.53323 0.30475 0.21825 0.0
O276 O 0.51745 0.34604 0.20893 0.0
O277 O 0.57298 0.28619 0.27184 0.0
C278 C 0.49335 0.27984 0.26754 0.0
C279 C 0.53859 0.32998 0.21133 0.0
Zn280 Zn 0.5014 0.82384 0.2493 0.0
Zn281 Zn 0.45769 0.77074 0.24768 0.0
C282 C 0.52255 0.80796 0.30276 0.0
O283 O 0.50671 0.82927 0.31039 0.0
C284 C 0.42989 0.76732 0.19461 0.0
O285 O 0.44386 0.74345 0.19396 0.0
O286 O 0.52773 0.85673 0.24474 0.0
O287 O 0.49765 0.8055 0.21235 0.0
O288 O 0.49706 0.76355 0.23156 0.0
C289 C 0.55368 0.8503 0.24494 0.0
O290 O 0.56104 0.82369 0.24515 0.0
O291 O 0.52142 0.79927 0.27751 0.0
C292 C 0.41405 0.73313 0.26142 0.0
O293 O 0.40018 0.75674 0.25746 0.0
O294 O 0.44074 0.73331 0.25913 0.0
O295 O 0.44838 0.79776 0.27974 0.0
O296 O 0.46609 0.83818 0.26448 0.0
O297 O 0.43355 0.78381 0.21535 0.0
C298 C 0.50606 0.78025 0.21264 0.0
C299 C 0.44899 0.82459 0.27976 0.0
Zn300 Zn 0.98869 0.1688 0.76325 0.0
Zn301 Zn 0.04268 0.22752 0.74308 0.0
C302 C 0.96292 0.18096 0.81329 0.0
O303 O 0.9773 0.15818 0.81949 0.0
C304 C 0.07246 0.23868 0.69217 0.0
O305 O 0.06096 0.26365 0.69533 0.0
O306 O 0.96255 0.13658 0.75573 0.0
O307 O 0.99763 0.18877 0.72631 0.0
O308 O 0.00386 0.23466 0.72805 0.0
C309 C 0.93897 0.1428 0.74473 0.0
O310 O 0.93442 0.16881 0.73646 0.0
O311 O 0.96614 0.19237 0.78936 0.0
C312 C 0.08627 0.26217 0.76372 0.0
O313 O 0.10055 0.24096 0.75322 0.0
O314 O 0.05951 0.26092 0.76387 0.0
O315 O 0.04177 0.19207 0.76455 0.0
O316 O 0.0236 0.15429 0.78247 0.0
O317 O 0.06702 0.21947 0.7099 0.0
C318 C 0.98902 0.21353 0.7207 0.0
C319 C 0.04505 0.16953 0.77825 0.0
Zn320 Zn 0.74551 0.00254 0.6737 0.0
Zn321 Zn 0.74102 0.96336 0.72536 0.0
C322 C 0.69401 0.02734 0.67552 0.0
O323 O 0.69601 0.01647 0.65017 0.0
C324 C 0.7956 0.93767 0.72717 0.0
O325 O 0.79699 0.9513 0.7512 0.0
O326 O 0.75313 0.02937 0.64201 0.0
O327 O 0.78075 0.00035 0.69513 0.0
O328 O 0.7574 0.00265 0.73466 0.0
C329 C 0.75379 0.05506 0.64958 0.0
O330 O 0.75278 0.06113 0.67653 0.0
O331 O 0.71293 0.02139 0.69353 0.0
C332 C 0.72544 0.9182 0.76115 0.0
O333 O 0.72718 0.90527 0.73677 0.0
O334 O 0.7297 0.94468 0.762 0.0
O335 O 0.71018 0.95416 0.69641 0.0
O336 O 0.73358 0.96654 0.65816 0.0
O337 O 0.77375 0.94029 0.712 0.0
C338 C 0.77945 0.00815 0.72047 0.0
C339 C 0.71489 0.95175 0.6701 0.0
Zn340 Zn 0.74812 0.99009 0.1752 0.0
Zn341 Zn 0.74988 0.03144 0.22807 0.0
C342 C 0.80141 0.96961 0.17821 0.0
O343 O 0.79922 0.97987 0.15264 0.0
C344 C 0.69906 0.06179 0.23231 0.0
O345 O 0.69958 0.0504 0.2575 0.0
O346 O 0.74278 0.96388 0.14221 0.0
O347 O 0.71273 0.98807 0.19627 0.0
O348 O 0.73306 0.99282 0.23756 0.0
C349 C 0.74376 0.93773 0.14795 0.0
O350 O 0.74783 0.92952 0.17397 0.0
O351 O 0.78148 0.97382 0.19553 0.0
C352 C 0.7742 0.07282 0.26541 0.0
O353 O 0.78315 0.08403 0.24181 0.0
O354 O 0.76052 0.04978 0.26491 0.0
O355 O 0.78115 0.03941 0.19948 0.0
O356 O 0.75725 0.0276 0.16128 0.0
O357 O 0.71811 0.0553 0.21478 0.0
C358 C 0.71341 0.98287 0.2223 0.0
C359 C 0.77599 0.0423 0.17332 0.0
Zn360 Zn 0.24616 0.49151 0.31873 0.0
Zn361 Zn 0.24271 0.53118 0.2646 0.0
C362 C 0.19544 0.46422 0.31732 0.0
O363 O 0.19775 0.47387 0.34313 0.0
C364 C 0.2966 0.55803 0.25987 0.0
O365 O 0.29692 0.54363 0.23625 0.0
O366 O 0.25608 0.4658 0.35066 0.0
O367 O 0.28033 0.49713 0.29634 0.0
O368 O 0.25767 0.49139 0.25697 0.0
C369 C 0.25537 0.43975 0.34447 0.0
O370 O 0.25188 0.43215 0.31812 0.0
O371 O 0.21393 0.47137 0.29928 0.0
C372 C 0.22709 0.57536 0.22871 0.0
O373 O 0.2312 0.58845 0.2527 0.0
O374 O 0.22995 0.5487 0.22794 0.0
O375 O 0.21241 0.54025 0.29366 0.0
O376 O 0.23256 0.52676 0.33354 0.0
O377 O 0.2758 0.5551 0.2764 0.0
C378 C 0.27817 0.48495 0.27289 0.0
C379 C 0.21545 0.5422 0.32024 0.0
Zn380 Zn 0.25451 0.50777 0.82375 0.0
Zn381 Zn 0.25235 0.46566 0.77047 0.0
C382 C 0.30602 0.5315 0.81692 0.0
O383 O 0.30627 0.5213 0.84259 0.0
C384 C 0.19795 0.43976 0.77379 0.0
O385 O 0.19371 0.45609 0.75188 0.0
O386 O 0.24897 0.53548 0.85513 0.0
O387 O 0.21789 0.50384 0.80498 0.0
O388 O 0.23468 0.50405 0.76213 0.0
C389 C 0.24506 0.56046 0.84623 0.0
O390 O 0.2422 0.56459 0.81904 0.0
O391 O 0.28494 0.5265 0.80118 0.0
C392 C 0.26305 0.41957 0.73389 0.0
O393 O 0.25467 0.40636 0.75664 0.0
O394 O 0.2638 0.44642 0.73395 0.0
O395 O 0.28609 0.46125 0.79628 0.0
O396 O 0.26801 0.47188 0.83777 0.0
O397 O 0.22142 0.44119 0.78658 0.0
C398 C 0.21598 0.51169 0.77968 0.0
C399 C 0.28432 0.45722 0.82269 0.0
Zn400 Zn 0.66668 0.74896 0.00417 0.0
Zn401 Zn 0.71804 0.74559 0.96462 0.0
C402 C 0.67728 0.69401 0.02499 0.0
O403 O 0.65386 0.68921 0.01108 0.0
C404 C 0.72846 0.79552 0.93367 0.0
O405 O 0.75295 0.79225 0.9461 0.0
O406 O 0.63604 0.7549 0.03215 0.0
O407 O 0.68714 0.78542 0.00113 0.0
O408 O 0.72607 0.76117 0.00399 0.0
C409 C 0.64483 0.75664 0.05735 0.0
O410 O 0.67207 0.75741 0.06216 0.0
O411 O 0.68907 0.71802 0.02303 0.0
C412 C 0.75775 0.71428 0.93005 0.0
O413 O 0.73584 0.69902 0.92271 0.0
O414 O 0.7551 0.73325 0.9487 0.0
O415 O 0.68919 0.71536 0.95449 0.0
O416 O 0.64997 0.73577 0.96881 0.0
O417 O 0.70849 0.77868 0.9397 0.0
C418 C 0.71243 0.78356 0.00916 0.0
C419 C 0.66264 0.71858 0.95291 0.0
Zn420 Zn 0.16841 0.74829 0.98647 0.0
Zn421 Zn 0.22105 0.75217 0.03103 0.0
C422 C 0.16906 0.80095 0.9632 0.0
O423 O 0.14313 0.79736 0.9722 0.0
C424 C 0.23094 0.69937 0.05856 0.0
O425 O 0.25577 0.70267 0.04682 0.0
O426 O 0.13924 0.73801 0.95736 0.0
O427 O 0.19175 0.7148 0.9922 0.0
O428 O 0.23149 0.73772 0.99126 0.0
C429 C 0.14849 0.73632 0.93228 0.0
O430 O 0.17565 0.73927 0.92786 0.0
O431 O 0.18732 0.78225 0.96917 0.0
C432 C 0.25532 0.76988 0.07658 0.0
O433 O 0.23166 0.76373 0.08955 0.0
O434 O 0.25621 0.76784 0.04988 0.0
O435 O 0.18838 0.77902 0.04086 0.0
O436 O 0.1511 0.75802 0.02215 0.0
O437 O 0.2119 0.7175 0.05375 0.0
C438 C 0.21639 0.71726 0.98273 0.0
C439 C 0.16214 0.77305 0.04127 0.0
Zn440 Zn 0.33458 0.24295 0.47916 0.0
Zn441 Zn 0.28145 0.24909 0.53174 0.0
C442 C 0.33027 0.18947 0.45923 0.0
O443 O 0.3569 0.19182 0.46642 0.0
C444 C 0.27601 0.29926 0.56216 0.0
O445 O 0.25299 0.29948 0.54681 0.0
O446 O 0.36456 0.2483 0.44972 0.0
O447 O 0.31223 0.27692 0.47528 0.0
O448 O 0.27073 0.26984 0.49552 0.0
C449 C 0.35502 0.24967 0.42471 0.0
O450 O 0.32775 0.24733 0.42061 0.0
O451 O 0.31339 0.20888 0.4664 0.0
C452 C 0.24635 0.22717 0.57486 0.0
O453 O 0.27021 0.22944 0.58871 0.0
O454 O 0.24604 0.23294 0.54875 0.0
O455 O 0.31212 0.21957 0.53232 0.0
O456 O 0.35065 0.23991 0.51689 0.0
O457 O 0.29336 0.2792 0.55893 0.0
C458 C 0.28645 0.28284 0.47811 0.0
C459 C 0.33717 0.22808 0.5366 0.0
Zn460 Zn 0.82836 0.24948 0.50966 0.0
Zn461 Zn 0.77491 0.24857 0.46531 0.0
C462 C 0.82057 0.3018 0.53328 0.0
O463 O 0.84509 0.30419 0.5207 0.0
C464 C 0.77793 0.19252 0.43927 0.0
O465 O 0.76103 0.18437 0.45956 0.0
O466 O 0.85991 0.24257 0.53662 0.0
O467 O 0.80905 0.21298 0.50589 0.0
O468 O 0.76657 0.2307 0.50374 0.0
C469 C 0.85157 0.23812 0.56164 0.0
O470 O 0.8244 0.23783 0.56687 0.0
O471 O 0.80611 0.27954 0.52942 0.0
C472 C 0.7393 0.26465 0.42163 0.0
O473 O 0.7632 0.26025 0.4085 0.0
O474 O 0.73834 0.2619 0.44822 0.0
O475 O 0.803 0.28027 0.45799 0.0
O476 O 0.84332 0.26311 0.47398 0.0
O477 O 0.78712 0.21767 0.43892 0.0
C478 C 0.7835 0.21222 0.51314 0.0
C479 C 0.82974 0.27854 0.45706 0.0
C480 C 0.09239 0.33301 0.28495 0.0
C481 C 0.06474 0.3431 0.28634 0.0
C482 C 0.11532 0.35113 0.28983 0.0
C483 C 0.11026 0.37972 0.2968 0.0
C484 C 0.08226 0.38957 0.29939 0.0
C485 C 0.05984 0.37119 0.29378 0.0
C486 C 0.14489 0.33999 0.28657 0.0
C487 C 0.07596 0.41974 0.30727 0.0
C488 C 0.16489 0.42488 0.33337 0.0
C489 C 0.17464 0.44189 0.31127 0.0
C490 C 0.14492 0.40364 0.32869 0.0
C491 C 0.13404 0.39963 0.3013 0.0
C492 C 0.14434 0.41622 0.2787 0.0
C493 C 0.16481 0.43704 0.28393 0.0
C494 C 0.13486 0.38608 0.35322 0.0
C495 C 0.13319 0.41248 0.24919 0.0
H496 H 0.09609 0.3114 0.27856 0.0
H497 H 0.03838 0.37893 0.29465 0.0
H498 H 0.15594 0.35173 0.26966 0.0
H499 H 0.15698 0.34336 0.30626 0.0
H500 H 0.14521 0.31718 0.28132 0.0
H501 H 0.05303 0.42364 0.30968 0.0
H502 H 0.08662 0.42523 0.32732 0.0
H503 H 0.08428 0.43413 0.29085 0.0
H504 H 0.17298 0.42809 0.35447 0.0
H505 H 0.17256 0.44999 0.26681 0.0
H506 H 0.13651 0.36332 0.34819 0.0
H507 H 0.11234 0.39062 0.35741 0.0
H508 H 0.1471 0.39033 0.3727 0.0
H509 H 0.13585 0.39028 0.24237 0.0
H510 H 0.14398 0.42646 0.23384 0.0
H511 H 0.1103 0.41713 0.24872 0.0
C512 C 0.31944 0.58125 0.82308 0.0
C513 C 0.32477 0.55509 0.81061 0.0
C514 C 0.33828 0.60375 0.81987 0.0
C515 C 0.36317 0.59965 0.80412 0.0
C516 C 0.36854 0.57316 0.79136 0.0
C517 C 0.34911 0.55109 0.79473 0.0
C518 C 0.3317 0.63169 0.83358 0.0
C519 C 0.39502 0.568 0.77458 0.0
C520 C 0.4038 0.65946 0.771 0.0
C521 C 0.42746 0.66076 0.78846 0.0
C522 C 0.38173 0.64081 0.77684 0.0
C523 C 0.38365 0.62301 0.80064 0.0
C524 C 0.40669 0.62574 0.81944 0.0
C525 C 0.42855 0.64462 0.81299 0.0
C526 C 0.35752 0.63864 0.75632 0.0
C527 C 0.40918 0.60738 0.84524 0.0
H528 H 0.30069 0.58397 0.83573 0.0
H529 H 0.35323 0.53057 0.78558 0.0
H530 H 0.34843 0.63719 0.84893 0.0
H531 H 0.33132 0.64863 0.8175 0.0
H532 H 0.31111 0.63146 0.84469 0.0
H533 H 0.39572 0.5464 0.76559 0.0
H534 H 0.3966 0.58345 0.75714 0.0
H535 H 0.41375 0.57103 0.78822 0.0
H536 H 0.40337 0.67188 0.75185 0.0
H537 H 0.4472 0.64553 0.82615 0.0
H538 H 0.33711 0.6378 0.76761 0.0
H539 H 0.35952 0.61886 0.74404 0.0
H540 H 0.35713 0.65664 0.74137 0.0
H541 H 0.38944 0.60815 0.85768 0.0
H542 H 0.42701 0.61388 0.85895 0.0
H543 H 0.41242 0.58515 0.83879 0.0
C544 C 0.59394 0.16202 0.70099 0.0
C545 C 0.56623 0.15189 0.70218 0.0
C546 C 0.61653 0.14347 0.6964 0.0
C547 C 0.61103 0.11434 0.69259 0.0
C548 C 0.58292 0.10438 0.69238 0.0
C549 C 0.5609 0.12326 0.69728 0.0
C550 C 0.64626 0.15481 0.69672 0.0
C551 C 0.57614 0.07354 0.6881 0.0
C552 C 0.66251 0.06494 0.65755 0.0
C553 C 0.67351 0.05012 0.6806 0.0
C554 C 0.64328 0.08691 0.6613 0.0
C555 C 0.6344 0.09396 0.68876 0.0
C556 C 0.64594 0.07959 0.71224 0.0
C557 C 0.66564 0.05795 0.70788 0.0
C558 C 0.63183 0.10201 0.63577 0.0
C559 C 0.63689 0.08658 0.74186 0.0
H560 H 0.5981 0.18408 0.70529 0.0
H561 H 0.53944 0.11545 0.69831 0.0
H562 H 0.65843 0.14464 0.71385 0.0
H563 H 0.65698 0.14964 0.67666 0.0
H564 H 0.64693 0.17801 0.69984 0.0
H565 H 0.5531 0.06944 0.68756 0.0
H566 H 0.58548 0.06596 0.66811 0.0
H567 H 0.5855 0.06094 0.70538 0.0
H568 H 0.66905 0.05947 0.6364 0.0
H569 H 0.67439 0.04675 0.72573 0.0
H570 H 0.63396 0.12515 0.63838 0.0
H571 H 0.60905 0.09729 0.63345 0.0
H572 H 0.64275 0.09569 0.61611 0.0
H573 H 0.64031 0.10932 0.74612 0.0
H574 H 0.64851 0.07411 0.75785 0.0
H575 H 0.61402 0.08238 0.74431 0.0
C576 C 0.89858 0.83657 0.21344 0.0
C577 C 0.92675 0.84418 0.20941 0.0
C578 C 0.87697 0.85593 0.20798 0.0
C579 C 0.88395 0.88309 0.19769 0.0
C580 C 0.91237 0.89013 0.19206 0.0
C581 C 0.9335 0.87066 0.19839 0.0
C582 C 0.84689 0.8478 0.21434 0.0
C583 C 0.92056 0.91865 0.18052 0.0
C584 C 0.82997 0.92925 0.16212 0.0
C585 C 0.82258 0.94779 0.18381 0.0
C586 C 0.84893 0.90726 0.16673 0.0
C587 C 0.86175 0.90453 0.19339 0.0
C588 C 0.85451 0.92331 0.21544 0.0
C589 C 0.83447 0.94448 0.21052 0.0
C590 C 0.85547 0.8872 0.14294 0.0
C591 C 0.86827 0.9213 0.244 0.0
H592 H 0.89359 0.81618 0.22248 0.0
H593 H 0.95544 0.8764 0.19551 0.0
H594 H 0.8383 0.86184 0.2309 0.0
H595 H 0.83361 0.8506 0.19534 0.0
H596 H 0.84499 0.82563 0.22163 0.0
H597 H 0.9434 0.92004 0.17563 0.0
H598 H 0.90849 0.92326 0.16109 0.0
H599 H 0.91531 0.93525 0.19609 0.0
H600 H 0.8205 0.93163 0.14155 0.0
H601 H 0.8286 0.95881 0.22727 0.0
H602 H 0.85303 0.86505 0.15004 0.0
H603 H 0.87768 0.88999 0.13625 0.0
H604 H 0.8416 0.8906 0.12442 0.0
H605 H 0.86467 0.90008 0.25311 0.0
H606 H 0.86016 0.93739 0.25891 0.0
H607 H 0.89138 0.92415 0.24189 0.0
C608 C 0.29338 0.16449 0.43092 0.0
C609 C 0.32175 0.16812 0.4383 0.0
C610 C 0.28555 0.14505 0.41007 0.0
C611 C 0.30661 0.12906 0.39635 0.0
C612 C 0.33529 0.13344 0.40298 0.0
C613 C 0.3425 0.15277 0.42401 0.0
C614 C 0.25476 0.14117 0.40309 0.0
C615 C 0.35835 0.11731 0.38821 0.0
C616 C 0.28354 0.05719 0.37106 0.0
C617 C 0.2801 0.06174 0.34219 0.0
C618 C 0.29302 0.0788 0.38869 0.0
C619 C 0.29849 0.10578 0.37723 0.0
C620 C 0.29572 0.11035 0.34792 0.0
C621 C 0.28678 0.08806 0.33065 0.0
C622 C 0.29665 0.0729 0.41971 0.0
C623 C 0.30093 0.13892 0.33491 0.0
H624 H 0.2773 0.17669 0.44153 0.0
H625 H 0.36453 0.15599 0.42907 0.0
H626 H 0.25141 0.14312 0.38008 0.0
H627 H 0.24789 0.11969 0.40931 0.0
H628 H 0.2412 0.15679 0.41399 0.0
H629 H 0.37969 0.1247 0.39438 0.0
H630 H 0.35651 0.09456 0.39329 0.0
H631 H 0.35613 0.11947 0.36508 0.0
H632 H 0.27871 0.03666 0.37989 0.0
H633 H 0.28396 0.09157 0.30834 0.0
H634 H 0.28165 0.08591 0.43199 0.0
H635 H 0.31822 0.07881 0.42654 0.0
H636 H 0.29302 0.05037 0.42496 0.0
H637 H 0.28268 0.15277 0.33937 0.0
H638 H 0.30353 0.13754 0.31173 0.0
H639 H 0.31989 0.14912 0.34402 0.0
C640 C 0.21132 0.93837 0.87822 0.0
C641 C 0.20745 0.9363 0.84901 0.0
C642 C 0.20366 0.91631 0.8962 0.0
C643 C 0.19156 0.89156 0.88481 0.0
C644 C 0.18625 0.88979 0.85552 0.0
C645 C 0.19431 0.91223 0.83791 0.0
C646 C 0.20956 0.9191 0.92731 0.0
C647 C 0.17293 0.86388 0.84272 0.0
C648 C 0.20117 0.82574 0.9293 0.0
C649 C 0.17535 0.82431 0.94351 0.0
C650 C 0.2064 0.84704 0.90942 0.0
C651 C 0.18534 0.86738 0.90372 0.0
C652 C 0.15916 0.86585 0.91777 0.0
C653 C 0.15451 0.84439 0.9375 0.0
C654 C 0.23457 0.848 0.89474 0.0
C655 C 0.1362 0.88714 0.9123 0.0
H656 H 0.22125 0.95695 0.88708 0.0
H657 H 0.1912 0.91047 0.81539 0.0
H658 H 0.19015 0.91495 0.93962 0.0
H659 H 0.2254 0.90319 0.93374 0.0
H660 H 0.21765 0.94035 0.93299 0.0
H661 H 0.16897 0.86637 0.81982 0.0
H662 H 0.18688 0.84543 0.84591 0.0
H663 H 0.15267 0.85911 0.85333 0.0
H664 H 0.21723 0.81011 0.93353 0.0
H665 H 0.1344 0.84337 0.94823 0.0
H666 H 0.24571 0.86784 0.90021 0.0
H667 H 0.23153 0.84792 0.8716 0.0
H668 H 0.24821 0.82992 0.90055 0.0
H669 H 0.14329 0.90833 0.91924 0.0
H670 H 0.11636 0.88186 0.92351 0.0
H671 H 0.13171 0.8885 0.88944 0.0
C672 C 0.79686 0.31434 0.57852 0.0
C673 C 0.81273 0.32251 0.55502 0.0
C674 C 0.79175 0.33333 0.60062 0.0
C675 C 0.80225 0.36123 0.59877 0.0
C676 C 0.81827 0.3695 0.57504 0.0
C677 C 0.82353 0.34996 0.5536 0.0
C678 C 0.77497 0.32364 0.6258 0.0
C679 C 0.82936 0.39921 0.57199 0.0
C680 C 0.76346 0.42184 0.63211 0.0
C681 C 0.78144 0.42952 0.65426 0.0
C682 C 0.7693 0.39872 0.61494 0.0
C683 C 0.79396 0.38284 0.61979 0.0
C684 C 0.81164 0.38957 0.64293 0.0
C685 C 0.80505 0.41285 0.66012 0.0
C686 C 0.74968 0.39215 0.59075 0.0
C687 C 0.83791 0.37277 0.64889 0.0
H688 H 0.78902 0.2929 0.57996 0.0
H689 H 0.83597 0.35624 0.53553 0.0
H690 H 0.78679 0.32807 0.64545 0.0
H691 H 0.7549 0.3355 0.62699 0.0
H692 H 0.77004 0.30075 0.62494 0.0
H693 H 0.8422 0.402 0.55265 0.0
H694 H 0.81152 0.41426 0.57124 0.0
H695 H 0.84247 0.40486 0.59047 0.0
H696 H 0.74475 0.4342 0.62789 0.0
H697 H 0.81879 0.41853 0.67744 0.0
H698 H 0.7434 0.36963 0.59115 0.0
H699 H 0.76069 0.39599 0.57052 0.0
H700 H 0.73031 0.40522 0.59121 0.0
H701 H 0.83264 0.35006 0.65075 0.0
H702 H 0.8486 0.37972 0.6685 0.0
H703 H 0.85288 0.37497 0.63111 0.0
C704 C 0.73547 0.58555 0.1382 0.0
C705 C 0.71373 0.57183 0.15273 0.0
C706 C 0.7298 0.60738 0.1193 0.0
C707 C 0.70159 0.61558 0.11456 0.0
C708 C 0.67959 0.60281 0.13029 0.0
C709 C 0.68596 0.58105 0.14943 0.0
C710 C 0.75394 0.62067 0.10336 0.0
C711 C 0.64927 0.61115 0.12589 0.0
C712 C 0.69143 0.68408 0.0744 0.0
C713 C 0.68576 0.67415 0.04721 0.0
C714 C 0.69568 0.66528 0.0968 0.0
C715 C 0.69524 0.6359 0.09159 0.0
C716 C 0.6902 0.62584 0.06395 0.0
C717 C 0.68495 0.64512 0.04219 0.0
C718 C 0.7001 0.67681 0.12608 0.0
C719 C 0.69047 0.59471 0.05734 0.0
H720 H 0.75703 0.57863 0.14113 0.0
H721 H 0.66919 0.57035 0.16064 0.0
H722 H 0.75175 0.61603 0.08059 0.0
H723 H 0.75352 0.64391 0.10583 0.0
H724 H 0.77475 0.61285 0.1106 0.0
H725 H 0.63512 0.60174 0.14197 0.0
H726 H 0.64707 0.63442 0.1265 0.0
H727 H 0.64219 0.60402 0.10481 0.0
H728 H 0.69142 0.70656 0.0784 0.0
H729 H 0.68031 0.63753 0.02118 0.0
H730 H 0.72081 0.66994 0.13438 0.0
H731 H 0.68373 0.66832 0.14042 0.0
H732 H 0.69921 0.7002 0.12667 0.0
H733 H 0.71124 0.58562 0.06298 0.0
H734 H 0.68633 0.59038 0.03475 0.0
H735 H 0.67433 0.58364 0.07011 0.0
C736 C 0.35557 0.25662 0.065 0.0
C737 C 0.33147 0.27285 0.06006 0.0
C738 C 0.37179 0.26062 0.08915 0.0
C739 C 0.36337 0.28109 0.10902 0.0
C740 C 0.33705 0.29484 0.10592 0.0
C741 C 0.32129 0.2906 0.0812 0.0
C742 C 0.39969 0.24553 0.09145 0.0
C743 C 0.32701 0.31616 0.12717 0.0
C744 C 0.41213 0.28665 0.17206 0.0
C745 C 0.43027 0.30833 0.16332 0.0
C746 C 0.38911 0.27846 0.15533 0.0
C747 C 0.38468 0.29189 0.12914 0.0
C748 C 0.40284 0.31398 0.12046 0.0
C749 C 0.42524 0.32205 0.13778 0.0
C750 C 0.36969 0.25538 0.1655 0.0
C751 C 0.39921 0.32856 0.09241 0.0
H752 H 0.36308 0.24243 0.04877 0.0
H753 H 0.30249 0.30296 0.0774 0.0
H754 H 0.41704 0.26068 0.08725 0.0
H755 H 0.40282 0.23708 0.11295 0.0
H756 H 0.40143 0.22789 0.07619 0.0
H757 H 0.30404 0.32006 0.12519 0.0
H758 H 0.33169 0.30905 0.14891 0.0
H759 H 0.33823 0.33642 0.12378 0.0
H760 H 0.41563 0.27646 0.19216 0.0
H761 H 0.43914 0.33893 0.1311 0.0
H762 H 0.37105 0.23688 0.1513 0.0
H763 H 0.34754 0.26276 0.16499 0.0
H764 H 0.37485 0.24845 0.18722 0.0
H765 H 0.402 0.31311 0.07511 0.0
H766 H 0.41454 0.34601 0.08937 0.0
H767 H 0.37764 0.33727 0.09058 0.0
C768 C 0.85138 0.24399 0.91911 0.0
C769 C 0.83363 0.22321 0.93019 0.0
C770 C 0.87008 0.23773 0.89732 0.0
C771 C 0.87133 0.20987 0.88681 0.0
C772 C 0.85232 0.18914 0.89688 0.0
C773 C 0.83339 0.19618 0.91841 0.0
C774 C 0.88964 0.26052 0.88671 0.0
C775 C 0.85315 0.15919 0.88618 0.0
C776 C 0.91441 0.1991 0.82064 0.0
C777 C 0.94004 0.18988 0.83195 0.0
C778 C 0.89142 0.20485 0.83819 0.0
C779 C 0.89455 0.20198 0.86764 0.0
C780 C 0.92053 0.1929 0.8791 0.0
C781 C 0.94289 0.18659 0.86103 0.0
C782 C 0.86375 0.21368 0.82528 0.0
C783 C 0.9248 0.19005 0.91046 0.0
H784 H 0.85115 0.26502 0.92806 0.0
H785 H 0.81961 0.18015 0.92713 0.0
H786 H 0.91165 0.25531 0.89253 0.0
H787 H 0.88869 0.26178 0.86343 0.0
H788 H 0.88442 0.28155 0.89554 0.0
H789 H 0.8348 0.14664 0.89355 0.0
H790 H 0.85362 0.15884 0.86286 0.0
H791 H 0.87267 0.14882 0.8937 0.0
H792 H 0.91207 0.2009 0.79802 0.0
H793 H 0.9627 0.17922 0.86963 0.0
H794 H 0.85759 0.23475 0.83325 0.0
H795 H 0.84691 0.19868 0.83153 0.0
H796 H 0.86471 0.21448 0.80195 0.0
H797 H 0.92159 0.21078 0.92079 0.0
H798 H 0.9462 0.18233 0.91588 0.0
H799 H 0.90905 0.17524 0.91937 0.0
C800 C 0.5429 0.79967 0.35018 0.0
C801 C 0.54621 0.79969 0.32097 0.0
C802 C 0.56612 0.79587 0.36797 0.0
C803 C 0.59344 0.79351 0.35619 0.0
C804 C 0.5969 0.79348 0.32668 0.0
C805 C 0.57307 0.79568 0.3094 0.0
C806 C 0.56145 0.79476 0.39938 0.0
C807 C 0.62576 0.79221 0.3134 0.0
C808 C 0.64938 0.81004 0.41056 0.0
C809 C 0.65547 0.78287 0.42007 0.0
C810 C 0.63076 0.81393 0.38789 0.0
C811 C 0.61806 0.79007 0.37505 0.0
C812 C 0.62631 0.76264 0.38314 0.0
C813 C 0.64504 0.75942 0.40553 0.0
C814 C 0.62306 0.84349 0.37911 0.0
C815 C 0.61336 0.73663 0.37007 0.0
H816 H 0.52212 0.80279 0.35909 0.0
H817 H 0.57575 0.79568 0.28683 0.0
H818 H 0.57122 0.77549 0.40829 0.0
H819 H 0.57169 0.81317 0.40953 0.0
H820 H 0.53874 0.79482 0.40495 0.0
H821 H 0.62482 0.79317 0.29006 0.0
H822 H 0.63879 0.81008 0.32105 0.0
H823 H 0.63667 0.77255 0.31964 0.0
H824 H 0.65754 0.82809 0.42196 0.0
H825 H 0.65013 0.73841 0.41296 0.0
H826 H 0.60166 0.84857 0.38695 0.0
H827 H 0.62261 0.8453 0.35585 0.0
H828 H 0.63803 0.85936 0.38767 0.0
H829 H 0.59068 0.73556 0.3756 0.0
H830 H 0.62367 0.71696 0.3774 0.0
H831 H 0.61481 0.73755 0.34682 0.0
C832 C 0.17425 0.71474 0.58545 0.0
C833 C 0.16207 0.7296 0.56318 0.0
C834 C 0.15999 0.71241 0.61125 0.0
C835 C 0.13293 0.72465 0.6141 0.0
C836 C 0.12247 0.74259 0.5928 0.0
C837 C 0.13742 0.74511 0.56771 0.0
C838 C 0.17247 0.69439 0.63418 0.0
C839 C 0.09368 0.75597 0.59473 0.0
C840 C 0.07456 0.68141 0.64613 0.0
C841 C 0.06812 0.69688 0.67034 0.0
C842 C 0.09656 0.6896 0.62841 0.0
C843 C 0.1128 0.71373 0.63525 0.0
C844 C 0.10707 0.72898 0.66016 0.0
C845 C 0.08457 0.72046 0.6774 0.0
C846 C 0.10166 0.67294 0.60178 0.0
C847 C 0.12461 0.75423 0.66846 0.0
H848 H 0.19351 0.70302 0.58198 0.0
H849 H 0.12843 0.75731 0.55065 0.0
H850 H 0.16727 0.70293 0.65526 0.0
H851 H 0.16357 0.67279 0.63279 0.0
H852 H 0.19572 0.69287 0.63209 0.0
H853 H 0.09037 0.77211 0.57813 0.0
H854 H 0.0773 0.73942 0.59226 0.0
H855 H 0.09053 0.766 0.61553 0.0
H856 H 0.06205 0.66304 0.64073 0.0
H857 H 0.08006 0.73207 0.6965 0.0
H858 H 0.12371 0.66532 0.60119 0.0
H859 H 0.09847 0.68665 0.58314 0.0
H860 H 0.08741 0.65443 0.59989 0.0
H861 H 0.14678 0.74762 0.67168 0.0
H862 H 0.11688 0.76431 0.68808 0.0
H863 H 0.12468 0.77018 0.65141 0.0
C864 C 0.93165 0.62882 0.72805 0.0
C865 C 0.9308 0.65667 0.71841 0.0
C866 C 0.90806 0.61132 0.7261 0.0
C867 C 0.88318 0.62172 0.71352 0.0
C868 C 0.88163 0.65042 0.70527 0.0
C869 C 0.90554 0.66776 0.70812 0.0
C870 C 0.91045 0.58113 0.73591 0.0
C871 C 0.85538 0.66235 0.692 0.0
C872 C 0.84589 0.56477 0.67235 0.0
C873 C 0.82425 0.55666 0.69071 0.0
C874 C 0.86423 0.58689 0.67906 0.0
C875 C 0.86109 0.60124 0.70495 0.0
C876 C 0.83902 0.59361 0.72348 0.0
C877 C 0.82082 0.57132 0.71615 0.0
C878 C 0.88746 0.59444 0.65866 0.0
C879 C 0.83507 0.60848 0.75127 0.0
H880 H 0.95096 0.62061 0.73703 0.0
H881 H 0.90485 0.68953 0.70125 0.0
H882 H 0.89172 0.57498 0.74842 0.0
H883 H 0.91143 0.56698 0.71735 0.0
H884 H 0.9296 0.57763 0.74888 0.0
H885 H 0.85603 0.68573 0.69086 0.0
H886 H 0.85317 0.65394 0.67032 0.0
H887 H 0.8364 0.65583 0.70394 0.0
H888 H 0.84856 0.55384 0.65251 0.0
H889 H 0.80389 0.56547 0.73028 0.0
H890 H 0.90824 0.58986 0.6683 0.0
H891 H 0.88691 0.61732 0.65385 0.0
H892 H 0.88583 0.58255 0.63859 0.0
H893 H 0.85241 0.60265 0.76577 0.0
H894 H 0.81473 0.60286 0.76137 0.0
H895 H 0.83597 0.63167 0.74842 0.0
C896 C 0.58931 0.33468 0.19814 0.0
C897 C 0.56648 0.34309 0.2147 0.0
C898 C 0.61311 0.35226 0.19538 0.0
C899 C 0.61376 0.37859 0.20956 0.0
C900 C 0.59192 0.38553 0.22855 0.0
C901 C 0.56854 0.36771 0.23081 0.0
C902 C 0.63621 0.34379 0.17535 0.0
C903 C 0.59173 0.41319 0.24428 0.0
C904 C 0.67655 0.42865 0.2104 0.0
C905 C 0.66946 0.44736 0.18862 0.0
C906 C 0.65931 0.40534 0.21677 0.0
C907 C 0.63421 0.40094 0.20128 0.0
C908 C 0.62709 0.41968 0.17921 0.0
C909 C 0.64482 0.44253 0.17311 0.0
C910 C 0.66787 0.38545 0.24001 0.0
C911 C 0.60046 0.41584 0.1622 0.0
H912 H 0.58763 0.3156 0.18569 0.0
H913 H 0.55089 0.37401 0.24384 0.0
H914 H 0.63319 0.35489 0.15503 0.0
H915 H 0.6572 0.34987 0.18366 0.0
H916 H 0.63597 0.32075 0.17121 0.0
H917 H 0.57534 0.41364 0.26094 0.0
H918 H 0.61251 0.41732 0.25412 0.0
H919 H 0.58749 0.43061 0.2293 0.0
H920 H 0.6959 0.43184 0.2221 0.0
H921 H 0.63936 0.45667 0.15605 0.0
H922 H 0.66819 0.36346 0.23207 0.0
H923 H 0.65222 0.38624 0.2573 0.0
H924 H 0.68895 0.39066 0.24876 0.0
H925 H 0.60028 0.39469 0.15224 0.0
H926 H 0.59822 0.43199 0.14544 0.0
H927 H 0.58182 0.41706 0.17621 0.0
C928 C 0.39958 0.83248 0.29495 0.0
C929 C 0.42787 0.84079 0.29535 0.0
C930 C 0.37839 0.85134 0.30312 0.0
C931 C 0.38596 0.87879 0.31217 0.0
C932 C 0.41468 0.88623 0.31497 0.0
C933 C 0.43532 0.86716 0.30629 0.0
C934 C 0.34797 0.84262 0.29984 0.0
C935 C 0.4236 0.91507 0.32512 0.0
C936 C 0.33653 0.93942 0.29668 0.0
C937 C 0.32506 0.94458 0.32328 0.0
C938 C 0.35626 0.91783 0.29276 0.0
C939 C 0.36416 0.90076 0.31591 0.0
C940 C 0.35224 0.90558 0.34269 0.0
C941 C 0.33304 0.92767 0.34613 0.0
C942 C 0.36876 0.91338 0.2639 0.0
C943 C 0.35963 0.88732 0.36763 0.0
H944 H 0.39388 0.81213 0.28622 0.0
H945 H 0.45731 0.87342 0.30672 0.0
H946 H 0.3351 0.85019 0.31776 0.0
H947 H 0.33932 0.85222 0.2804 0.0
H948 H 0.34568 0.81937 0.29817 0.0
H949 H 0.44664 0.91637 0.32898 0.0
H950 H 0.41789 0.93108 0.3091 0.0
H951 H 0.41241 0.9206 0.34483 0.0
H952 H 0.33013 0.95233 0.27899 0.0
H953 H 0.32364 0.93115 0.36661 0.0
H954 H 0.36468 0.89149 0.25674 0.0
H955 H 0.39194 0.91627 0.26478 0.0
H956 H 0.36003 0.92819 0.24805 0.0
H957 H 0.35522 0.86488 0.36271 0.0
H958 H 0.34765 0.89322 0.3868 0.0
H959 H 0.38247 0.88908 0.37225 0.0
C960 C 0.18773 0.08076 0.79672 0.0
C961 C 0.17759 0.05301 0.79537 0.0
C962 C 0.16953 0.10373 0.79309 0.0
C963 C 0.14079 0.09866 0.78701 0.0
C964 C 0.13094 0.07059 0.7838 0.0
C965 C 0.14936 0.04806 0.78868 0.0
C966 C 0.18063 0.13322 0.79779 0.0
C967 C 0.10062 0.06433 0.77642 0.0
C968 C 0.07999 0.14502 0.80819 0.0
C969 C 0.07311 0.15754 0.78252 0.0
C970 C 0.10391 0.12796 0.81061 0.0
C971 C 0.12027 0.12221 0.78635 0.0
C972 C 0.11428 0.13626 0.76077 0.0
C973 C 0.09096 0.15428 0.75934 0.0
C974 C 0.11045 0.11451 0.83863 0.0
C975 C 0.13075 0.13029 0.7343 0.0
H976 H 0.20951 0.08455 0.80245 0.0
H977 H 0.14161 0.02656 0.78776 0.0
H978 H 0.17389 0.14749 0.78061 0.0
H979 H 0.17178 0.14169 0.81766 0.0
H980 H 0.20398 0.13375 0.7993 0.0
H981 H 0.09721 0.04172 0.77135 0.0
H982 H 0.08684 0.06997 0.79438 0.0
H983 H 0.09393 0.07722 0.75812 0.0
H984 H 0.06607 0.14773 0.82607 0.0
H985 H 0.08529 0.16386 0.73941 0.0
H986 H 0.1334 0.1153 0.84298 0.0
H987 H 0.10404 0.09201 0.83817 0.0
H988 H 0.09912 0.12502 0.85616 0.0
H989 H 0.15371 0.13156 0.73836 0.0
H990 H 0.12536 0.14513 0.71703 0.0
H991 H 0.1261 0.10851 0.7271 0.0
C992 C 0.69805 0.90257 0.66235 0.0
C993 C 0.70043 0.93043 0.65295 0.0
C994 C 0.69089 0.88088 0.6435 0.0
C995 C 0.68582 0.8875 0.61486 0.0
C996 C 0.68625 0.91593 0.60591 0.0
C997 C 0.69372 0.93702 0.62506 0.0
C998 C 0.69042 0.85082 0.65384 0.0
C999 C 0.68025 0.92395 0.57575 0.0
C1000 C 0.69992 0.83343 0.55766 0.0
C1001 C 0.67249 0.82568 0.55002 0.0
C1002 C 0.70461 0.85326 0.57914 0.0
C1003 C 0.68133 0.86488 0.59375 0.0
C1004 C 0.65367 0.85652 0.58658 0.0
C1005 C 0.64958 0.83738 0.56453 0.0
C1006 C 0.73439 0.86227 0.58577 0.0
C1007 C 0.62839 0.86769 0.60227 0.0
H1008 H 0.70362 0.89749 0.68386 0.0
H1009 H 0.69551 0.95867 0.61792 0.0
H1010 H 0.67154 0.83956 0.64585 0.0
H1011 H 0.70921 0.83958 0.64576 0.0
H1012 H 0.69063 0.84961 0.67718 0.0
H1013 H 0.68017 0.94715 0.57258 0.0
H1014 H 0.69643 0.91459 0.56177 0.0
H1015 H 0.65951 0.91543 0.56912 0.0
H1016 H 0.71765 0.82439 0.54653 0.0
H1017 H 0.6283 0.83128 0.55895 0.0
H1018 H 0.73902 0.85865 0.60835 0.0
H1019 H 0.73681 0.8852 0.58179 0.0
H1020 H 0.75019 0.85079 0.57295 0.0
H1021 H 0.62874 0.85964 0.62419 0.0
H1022 H 0.60821 0.86121 0.59234 0.0
H1023 H 0.62901 0.89103 0.60339 0.0
C1024 C 0.83838 0.15468 0.06441 0.0
C1025 C 0.81513 0.16244 0.04795 0.0
C1026 C 0.83517 0.137 0.08777 0.0
C1027 C 0.80816 0.12639 0.09441 0.0
C1028 C 0.78455 0.13425 0.07795 0.0
C1029 C 0.7883 0.15242 0.055 0.0
C1030 C 0.86065 0.1296 0.10527 0.0
C1031 C 0.7554 0.12318 0.08438 0.0
C1032 C 0.79967 0.05567 0.12936 0.0
C1033 C 0.79063 0.06338 0.15626 0.0
C1034 C 0.80704 0.07611 0.10953 0.0
C1035 C 0.80488 0.10493 0.11677 0.0
C1036 C 0.79738 0.11283 0.14452 0.0
C1037 C 0.79049 0.09178 0.16415 0.0
C1038 C 0.81519 0.06685 0.08024 0.0
C1039 C 0.79506 0.14342 0.15295 0.0
H1040 H 0.85907 0.16305 0.05954 0.0
H1041 H 0.77027 0.15877 0.04253 0.0
H1042 H 0.85711 0.13582 0.12748 0.0
H1043 H 0.86405 0.10648 0.10501 0.0
H1044 H 0.8801 0.14016 0.09761 0.0
H1045 H 0.73915 0.13217 0.07018 0.0
H1046 H 0.75509 0.09989 0.0822 0.0
H1047 H 0.74963 0.12817 0.10643 0.0
H1048 H 0.7996 0.03361 0.12338 0.0
H1049 H 0.78301 0.09761 0.18488 0.0
H1050 H 0.83509 0.07722 0.07371 0.0
H1051 H 0.79862 0.07332 0.06511 0.0
H1052 H 0.81794 0.04365 0.07872 0.0
H1053 H 0.81563 0.15411 0.14997 0.0
H1054 H 0.78845 0.14597 0.17522 0.0
H1055 H 0.77957 0.15432 0.1393 0.0
C1056 C 0.15495 0.66882 0.4114 0.0
C1057 C 0.17646 0.67786 0.42948 0.0
C1058 C 0.15985 0.64787 0.3914 0.0
C1059 C 0.18678 0.63544 0.38983 0.0
C1060 C 0.20882 0.64485 0.40764 0.0
C1061 C 0.20342 0.66627 0.42719 0.0
C1062 C 0.13607 0.6386 0.37238 0.0
C1063 C 0.2378 0.63186 0.40649 0.0
C1064 C 0.19279 0.56098 0.36285 0.0
C1065 C 0.20281 0.56556 0.33559 0.0
C1066 C 0.18666 0.58369 0.3805 0.0
C1067 C 0.19137 0.61145 0.37068 0.0
C1068 C 0.20075 0.61618 0.34284 0.0
C1069 C 0.20603 0.59302 0.32542 0.0
C1070 C 0.1763 0.57796 0.40999 0.0
C1071 C 0.2065 0.64553 0.33196 0.0
H1072 H 0.1342 0.6782 0.41281 0.0
H1073 H 0.22004 0.67341 0.44113 0.0
H1074 H 0.14236 0.64098 0.35004 0.0
H1075 H 0.13137 0.61596 0.37591 0.0
H1076 H 0.11652 0.65091 0.37594 0.0
H1077 H 0.25273 0.64208 0.42135 0.0
H1078 H 0.23647 0.6091 0.41168 0.0
H1079 H 0.24647 0.63354 0.38489 0.0
H1080 H 0.1907 0.53959 0.37064 0.0
H1081 H 0.21453 0.59637 0.30456 0.0
H1082 H 0.15644 0.58959 0.41393 0.0
H1083 H 0.19205 0.58561 0.42548 0.0
H1084 H 0.17249 0.55517 0.41381 0.0
H1085 H 0.18717 0.65854 0.33344 0.0
H1086 H 0.21383 0.64548 0.30977 0.0
H1087 H 0.22282 0.65588 0.34513 0.0
C1088 C 0.33741 0.32067 0.9032 0.0
C1089 C 0.31597 0.31428 0.92238 0.0
C1090 C 0.33361 0.34145 0.88282 0.0
C1091 C 0.30797 0.35643 0.88218 0.0
C1092 C 0.2856 0.34889 0.90043 0.0
C1093 C 0.28982 0.32754 0.92029 0.0
C1094 C 0.35763 0.34853 0.86323 0.0
C1095 C 0.2579 0.36449 0.9001 0.0
C1096 C 0.30789 0.4331 0.86201 0.0
C1097 C 0.29623 0.43184 0.83508 0.0
C1098 C 0.31324 0.4084 0.87703 0.0
C1099 C 0.30579 0.38212 0.86498 0.0
C1100 C 0.29509 0.38073 0.83728 0.0
C1101 C 0.29089 0.40578 0.82242 0.0
C1102 C 0.32532 0.41053 0.90636 0.0
C1103 C 0.28631 0.35311 0.8241 0.0
H1104 H 0.35744 0.30983 0.90453 0.0
H1105 H 0.27326 0.32229 0.9351 0.0
H1106 H 0.35 0.3504 0.84126 0.0
H1107 H 0.36679 0.3692 0.86925 0.0
H1108 H 0.37457 0.33242 0.86394 0.0
H1109 H 0.24196 0.35448 0.914 0.0
H1110 H 0.26125 0.38651 0.90724 0.0
H1111 H 0.24936 0.36542 0.8784 0.0
H1112 H 0.31178 0.45345 0.87168 0.0
H1113 H 0.28142 0.40507 0.80178 0.0
H1114 H 0.34369 0.3963 0.90861 0.0
H1115 H 0.30927 0.40375 0.92192 0.0
H1116 H 0.33209 0.43234 0.91161 0.0
H1117 H 0.30343 0.33736 0.82592 0.0
H1118 H 0.28061 0.35552 0.80155 0.0
H1119 H 0.26777 0.34452 0.83546 0.0
C1120 C 0.55291 0.70398 0.83258 0.0
C1121 C 0.54956 0.6774 0.82029 0.0
C1122 C 0.57275 0.70822 0.85409 0.0
C1123 C 0.59004 0.6855 0.86282 0.0
C1124 C 0.58719 0.65882 0.84989 0.0
C1125 C 0.56672 0.65501 0.82902 0.0
C1126 C 0.57501 0.73689 0.8677 0.0
C1127 C 0.6056 0.63428 0.85822 0.0
C1128 C 0.65606 0.70646 0.90262 0.0
C1129 C 0.64656 0.70483 0.93042 0.0
C1130 C 0.63817 0.69926 0.88023 0.0
C1131 C 0.61053 0.68961 0.88605 0.0
C1132 C 0.60175 0.68585 0.91425 0.0
C1133 C 0.61975 0.69401 0.93615 0.0
C1134 C 0.64821 0.70378 0.85044 0.0
C1135 C 0.57277 0.67479 0.92134 0.0
H1136 H 0.53963 0.72124 0.82578 0.0
H1137 H 0.56444 0.63451 0.81918 0.0
H1138 H 0.57081 0.73513 0.8906 0.0
H1139 H 0.59671 0.74525 0.86525 0.0
H1140 H 0.55999 0.75228 0.85854 0.0
H1141 H 0.60165 0.61532 0.84506 0.0
H1142 H 0.62814 0.64016 0.85633 0.0
H1143 H 0.60175 0.62874 0.88057 0.0
H1144 H 0.67673 0.71523 0.89831 0.0
H1145 H 0.61256 0.69277 0.95776 0.0
H1146 H 0.63686 0.72194 0.84112 0.0
H1147 H 0.64348 0.68506 0.83726 0.0
H1148 H 0.67118 0.70816 0.84945 0.0
H1149 H 0.55681 0.69097 0.91601 0.0
H1150 H 0.57071 0.66951 0.94401 0.0
H1151 H 0.56789 0.65569 0.90877 0.0
C1152 C 0.04741 0.82794 0.14774 0.0
C1153 C 0.04422 0.8108 0.17154 0.0
C1154 C 0.06984 0.82396 0.12905 0.0
C1155 C 0.08966 0.80239 0.13432 0.0
C1156 C 0.08733 0.7858 0.15896 0.0
C1157 C 0.06444 0.79 0.17716 0.0
C1158 C 0.07166 0.84211 0.10302 0.0
C1159 C 0.1086 0.76317 0.16567 0.0
C1160 C 0.11769 0.76868 0.0683 0.0
C1161 C 0.14428 0.78131 0.06538 0.0
C1162 C 0.10038 0.77471 0.0912 0.0
C1163 C 0.10959 0.7942 0.11173 0.0
C1164 C 0.13662 0.80673 0.10938 0.0
C1165 C 0.15375 0.80008 0.08615 0.0
C1166 C 0.07195 0.76041 0.09318 0.0
C1167 C 0.14722 0.82754 0.13094 0.0
H1168 H 0.03217 0.84438 0.14353 0.0
H1169 H 0.06259 0.77719 0.19594 0.0
H1170 H 0.09309 0.85123 0.10096 0.0
H1171 H 0.06776 0.82896 0.0841 0.0
H1172 H 0.05612 0.85957 0.10326 0.0
H1173 H 0.10551 0.7542 0.18704 0.0
H1174 H 0.10688 0.74587 0.15007 0.0
H1175 H 0.13028 0.77181 0.1642 0.0
H1176 H 0.11032 0.7537 0.05272 0.0
H1177 H 0.1744 0.80968 0.08419 0.0
H1178 H 0.05498 0.77644 0.0925 0.0
H1179 H 0.07007 0.74905 0.11349 0.0
H1180 H 0.06836 0.74509 0.07586 0.0
H1181 H 0.13661 0.84809 0.12769 0.0
H1182 H 0.17031 0.83092 0.12927 0.0
H1183 H 0.14219 0.82035 0.15257 0.0
C1184 C 0.42547 0.21437 0.68102 0.0
C1185 C 0.44626 0.19489 0.67323 0.0
C1186 C 0.4037 0.22154 0.66231 0.0
C1187 C 0.40312 0.20919 0.63521 0.0
C1188 C 0.42421 0.18971 0.62728 0.0
C1189 C 0.4454 0.1827 0.64645 0.0
C1190 C 0.38117 0.2419 0.67162 0.0
C1191 C 0.42463 0.17644 0.59837 0.0
C1192 C 0.34206 0.20563 0.58417 0.0
C1193 C 0.35058 0.22588 0.56448 0.0
C1194 C 0.35764 0.20147 0.60899 0.0
C1195 C 0.38207 0.21799 0.61392 0.0
C1196 C 0.38909 0.2401 0.59528 0.0
C1197 C 0.37328 0.24372 0.57079 0.0
C1198 C 0.34913 0.17816 0.62884 0.0
C1199 C 0.41467 0.25851 0.59997 0.0
H1200 H 0.42578 0.22339 0.70197 0.0
H1201 H 0.46139 0.16758 0.64043 0.0
H1202 H 0.37966 0.2598 0.6567 0.0
H1203 H 0.36041 0.23113 0.6716 0.0
H1204 H 0.3852 0.25037 0.69304 0.0
H1205 H 0.44238 0.16148 0.59568 0.0
H1206 H 0.40463 0.16495 0.59452 0.0
H1207 H 0.42644 0.19309 0.58207 0.0
H1208 H 0.3242 0.19212 0.57956 0.0
H1209 H 0.37941 0.26002 0.55601 0.0
H1210 H 0.35125 0.18506 0.65104 0.0
H1211 H 0.36327 0.15982 0.6258 0.0
H1212 H 0.3271 0.17112 0.62513 0.0
H1213 H 0.41461 0.26724 0.6216 0.0
H1214 H 0.41574 0.27629 0.58481 0.0
H1215 H 0.43404 0.24567 0.59767 0.0
C1216 C 0.8382 0.28302 0.40601 0.0
C1217 C 0.84522 0.29083 0.43351 0.0
C1218 C 0.85675 0.2885 0.38374 0.0
C1219 C 0.88259 0.30233 0.38934 0.0
C1220 C 0.88867 0.31209 0.41682 0.0
C1221 C 0.87005 0.3058 0.43874 0.0
C1222 C 0.84934 0.27837 0.35456 0.0
C1223 C 0.91528 0.32836 0.42318 0.0
C1224 C 0.94491 0.28899 0.34124 0.0
C1225 C 0.94591 0.31421 0.32609 0.0
C1226 C 0.92428 0.28484 0.36201 0.0
C1227 C 0.90375 0.306 0.36676 0.0
C1228 C 0.90432 0.33114 0.35084 0.0
C1229 C 0.92565 0.33505 0.33097 0.0
C1230 C 0.92478 0.25816 0.3793 0.0
C1231 C 0.8823 0.35384 0.35409 0.0
H1232 H 0.81916 0.27096 0.40222 0.0
H1233 H 0.8753 0.31173 0.46015 0.0
H1234 H 0.85136 0.29595 0.33928 0.0
H1235 H 0.86428 0.26166 0.34803 0.0
H1236 H 0.8276 0.26973 0.35339 0.0
H1237 H 0.91639 0.33521 0.44549 0.0
H1238 H 0.93393 0.31512 0.41846 0.0
H1239 H 0.9165 0.34731 0.40954 0.0
H1240 H 0.96064 0.27293 0.33735 0.0
H1241 H 0.92619 0.35441 0.31888 0.0
H1242 H 0.90446 0.24677 0.37712 0.0
H1243 H 0.92738 0.26351 0.40189 0.0
H1244 H 0.94212 0.24381 0.373 0.0
H1245 H 0.86523 0.34997 0.33859 0.0
H1246 H 0.89137 0.37498 0.3497 0.0
H1247 H 0.87274 0.35426 0.37535 0.0
C1248 C 0.18455 0.1074 0.2682 0.0
C1249 C 0.1756 0.08256 0.28158 0.0
C1250 C 0.16745 0.13143 0.26747 0.0
C1251 C 0.14075 0.13077 0.28066 0.0
C1252 C 0.13152 0.10578 0.29417 0.0
C1253 C 0.14902 0.08192 0.29438 0.0
C1254 C 0.17803 0.15752 0.25261 0.0
C1255 C 0.10316 0.10429 0.30843 0.0
C1256 C 0.10891 0.20147 0.30072 0.0
C1257 C 0.08951 0.2058 0.27889 0.0
C1258 C 0.12534 0.1769 0.30183 0.0
C1259 C 0.12259 0.15634 0.2804 0.0
C1260 C 0.10302 0.16057 0.25832 0.0
C1261 C 0.08657 0.18514 0.25795 0.0
C1262 C 0.14584 0.17304 0.32581 0.0
C1263 C 0.09993 0.13945 0.23474 0.0
H1264 H 0.20501 0.10812 0.2581 0.0
H1265 H 0.14191 0.06282 0.3047 0.0
H1266 H 0.16269 0.16424 0.23634 0.0
H1267 H 0.18012 0.17509 0.26787 0.0
H1268 H 0.19878 0.15414 0.24236 0.0
H1269 H 0.09942 0.08359 0.3187 0.0
H1270 H 0.10151 0.12111 0.32456 0.0
H1271 H 0.08622 0.10798 0.2928 0.0
H1272 H 0.11128 0.21731 0.31697 0.0
H1273 H 0.07186 0.18845 0.24083 0.0
H1274 H 0.16764 0.17177 0.31751 0.0
H1275 H 0.14143 0.15292 0.33687 0.0
H1276 H 0.14483 0.19055 0.34129 0.0
H1277 H 0.12015 0.13759 0.2232 0.0
H1278 H 0.0832 0.14547 0.21956 0.0
H1279 H 0.09491 0.11832 0.24339 0.0
C1280 C 0.30839 0.88654 0.76675 0.0
C1281 C 0.31889 0.91334 0.77332 0.0
C1282 C 0.32581 0.86272 0.76804 0.0
C1283 C 0.35406 0.86572 0.77722 0.0
C1284 C 0.36442 0.89276 0.78471 0.0
C1285 C 0.34684 0.9164 0.78204 0.0
C1286 C 0.31418 0.83452 0.75884 0.0
C1287 C 0.39411 0.89674 0.79538 0.0
C1288 C 0.39094 0.79906 0.80221 0.0
C1289 C 0.40814 0.79271 0.77911 0.0
C1290 C 0.37367 0.8231 0.80216 0.0
C1291 C 0.37301 0.84072 0.77812 0.0
C1292 C 0.39021 0.83427 0.75467 0.0
C1293 C 0.40786 0.81058 0.75562 0.0
C1294 C 0.3561 0.82962 0.8278 0.0
C1295 C 0.38943 0.85195 0.72827 0.0
H1296 H 0.28677 0.88439 0.75966 0.0
H1297 H 0.35479 0.93724 0.78712 0.0
H1298 H 0.32717 0.82589 0.74148 0.0
H1299 H 0.31519 0.81927 0.77648 0.0
H1300 H 0.29199 0.83598 0.75154 0.0
H1301 H 0.398 0.91858 0.80289 0.0
H1302 H 0.39839 0.88188 0.81288 0.0
H1303 H 0.40931 0.89199 0.77834 0.0
H1304 H 0.3911 0.78529 0.8204 0.0
H1305 H 0.42076 0.80552 0.73751 0.0
H1306 H 0.33341 0.829 0.82229 0.0
H1307 H 0.36085 0.85124 0.83538 0.0
H1308 H 0.3599 0.8145 0.84523 0.0
H1309 H 0.36771 0.85227 0.71965 0.0
H1310 H 0.40388 0.84391 0.71177 0.0
H1311 H 0.39531 0.87405 0.73318 0.0
C1312 C 0.68903 0.38584 0.72158 0.0
C1313 C 0.67782 0.41295 0.71854 0.0
C1314 C 0.67171 0.36194 0.71975 0.0
C1315 C 0.64272 0.36527 0.7136 0.0
C1316 C 0.63157 0.39264 0.70942 0.0
C1317 C 0.64918 0.41625 0.71257 0.0
C1318 C 0.68424 0.33326 0.72543 0.0
C1319 C 0.60097 0.39701 0.70205 0.0
C1320 C 0.60376 0.30006 0.68781 0.0
C1321 C 0.58909 0.29188 0.71205 0.0
C1322 C 0.62081 0.32432 0.68778 0.0
C1323 C 0.62385 0.34022 0.71282 0.0
C1324 C 0.60922 0.33191 0.73741 0.0
C1325 C 0.5917 0.30808 0.7366 0.0
C1326 C 0.63561 0.33291 0.66102 0.0
C1327 C 0.6127 0.34769 0.7648 0.0
H1328 H 0.71119 0.38341 0.72659 0.0
H1329 H 0.64063 0.43729 0.71017 0.0
H1330 H 0.67357 0.32348 0.74377 0.0
H1331 H 0.68079 0.31915 0.70716 0.0
H1332 H 0.70719 0.33435 0.72985 0.0
H1333 H 0.59645 0.4192 0.69617 0.0
H1334 H 0.5948 0.38308 0.68431 0.0
H1335 H 0.58758 0.39131 0.7203 0.0
H1336 H 0.6018 0.28755 0.66882 0.0
H1337 H 0.58078 0.30157 0.75555 0.0
H1338 H 0.65875 0.33212 0.66407 0.0
H1339 H 0.63014 0.35498 0.6556 0.0
H1340 H 0.62998 0.31908 0.643 0.0
H1341 H 0.63517 0.34756 0.77123 0.0
H1342 H 0.59993 0.33839 0.78204 0.0
H1343 H 0.60646 0.37003 0.76209 0.0
C1344 C 0.8066 0.60774 0.20758 0.0
C1345 C 0.81591 0.58296 0.22067 0.0
C1346 C 0.82386 0.63174 0.20648 0.0
C1347 C 0.85125 0.63067 0.2182 0.0
C1348 C 0.86145 0.60504 0.22955 0.0
C1349 C 0.84348 0.58156 0.231 0.0
C1350 C 0.81207 0.6587 0.19443 0.0
C1351 C 0.89072 0.60288 0.24172 0.0
C1352 C 0.90291 0.69072 0.20493 0.0
C1353 C 0.89867 0.7073 0.22891 0.0
C1354 C 0.88728 0.66584 0.2008 0.0
C1355 C 0.86785 0.65705 0.22167 0.0
C1356 C 0.86404 0.67357 0.24619 0.0
C1357 C 0.87919 0.69874 0.24926 0.0
C1358 C 0.89124 0.64916 0.17407 0.0
C1359 C 0.84399 0.66468 0.26923 0.0
H1360 H 0.78522 0.60893 0.19964 0.0
H1361 H 0.85076 0.56231 0.24088 0.0
H1362 H 0.80864 0.67409 0.21167 0.0
H1363 H 0.82722 0.66832 0.17949 0.0
H1364 H 0.79171 0.65525 0.18343 0.0
H1365 H 0.89675 0.5807 0.24611 0.0
H1366 H 0.90642 0.6122 0.22714 0.0
H1367 H 0.89176 0.61496 0.26168 0.0
H1368 H 0.91789 0.6976 0.18914 0.0
H1369 H 0.87619 0.71156 0.26792 0.0
H1370 H 0.87092 0.64752 0.16264 0.0
H1371 H 0.89801 0.62738 0.17913 0.0
H1372 H 0.90708 0.6589 0.15987 0.0
H1373 H 0.82222 0.66341 0.26083 0.0
H1374 H 0.84417 0.67951 0.28732 0.0
H1375 H 0.84966 0.64338 0.277 0.0
C1376 C 0.30467 0.08631 0.19321 0.0
C1377 C 0.27893 0.08733 0.2074 0.0
C1378 C 0.30904 0.10275 0.16901 0.0
C1379 C 0.28686 0.11985 0.1588 0.0
C1380 C 0.26062 0.12032 0.17293 0.0
C1381 C 0.25713 0.10427 0.1973 0.0
C1382 C 0.3374 0.10228 0.15472 0.0
C1383 C 0.23623 0.1378 0.16236 0.0
C1384 C 0.29543 0.18404 0.11272 0.0
C1385 C 0.28529 0.17374 0.08699 0.0
C1386 C 0.29811 0.16615 0.13601 0.0
C1387 C 0.29059 0.13738 0.13331 0.0
C1388 C 0.28261 0.12647 0.10678 0.0
C1389 C 0.28004 0.14483 0.0839 0.0
C1390 C 0.30684 0.17852 0.16396 0.0
C1391 C 0.27459 0.09588 0.10304 0.0
H1392 H 0.32147 0.07323 0.2014 0.0
H1393 H 0.23722 0.10478 0.20848 0.0
H1394 H 0.33496 0.09681 0.13217 0.0
H1395 H 0.34705 0.12359 0.15567 0.0
H1396 H 0.35204 0.087 0.16464 0.0
H1397 H 0.21711 0.13533 0.17561 0.0
H1398 H 0.24218 0.16041 0.162 0.0
H1399 H 0.23088 0.13161 0.14048 0.0
H1400 H 0.29974 0.20636 0.11517 0.0
H1401 H 0.27262 0.1367 0.06391 0.0
H1402 H 0.32224 0.16464 0.17467 0.0
H1403 H 0.28811 0.18023 0.17779 0.0
H1404 H 0.31625 0.19986 0.1616 0.0
H1405 H 0.2905 0.08194 0.1129 0.0
H1406 H 0.27243 0.09003 0.08051 0.0
H1407 H 0.25418 0.09181 0.11366 0.0
C1408 C 0.20779 0.91807 0.68897 0.0
C1409 C 0.22025 0.90634 0.71298 0.0
C1410 C 0.20557 0.90242 0.66396 0.0
C1411 C 0.21683 0.87483 0.66292 0.0
C1412 C 0.22916 0.86286 0.68724 0.0
C1413 C 0.23034 0.87863 0.71207 0.0
C1414 C 0.19157 0.91544 0.6386 0.0
C1415 C 0.24223 0.83383 0.68676 0.0
C1416 C 0.2009 0.82001 0.60725 0.0
C1417 C 0.22521 0.82173 0.5906 0.0
C1418 C 0.19686 0.83852 0.6299 0.0
C1419 C 0.21776 0.85892 0.63608 0.0
C1420 C 0.24154 0.86173 0.61836 0.0
C1421 C 0.24489 0.84318 0.59573 0.0
C1422 C 0.17102 0.83518 0.64809 0.0
C1423 C 0.2644 0.88311 0.62434 0.0
H1424 H 0.19984 0.93946 0.68976 0.0
H1425 H 0.24028 0.8696 0.73051 0.0
H1426 H 0.20655 0.91637 0.62074 0.0
H1427 H 0.17357 0.9021 0.63184 0.0
H1428 H 0.18376 0.93706 0.64291 0.0
H1429 H 0.2506 0.82748 0.70764 0.0
H1430 H 0.22646 0.81796 0.67992 0.0
H1431 H 0.25976 0.83336 0.67134 0.0
H1432 H 0.18547 0.80362 0.60321 0.0
H1433 H 0.26359 0.8448 0.58278 0.0
H1434 H 0.16134 0.85601 0.65234 0.0
H1435 H 0.17709 0.82594 0.66864 0.0
H1436 H 0.155 0.82122 0.63821 0.0
H1437 H 0.25522 0.90443 0.62685 0.0
H1438 H 0.28048 0.88391 0.60739 0.0
H1439 H 0.27508 0.87772 0.6444 0.0
C1440 C 0.76417 0.41265 0.8114 0.0
C1441 C 0.77978 0.40668 0.7871 0.0
C1442 C 0.76556 0.39497 0.83505 0.0
C1443 C 0.7835 0.37117 0.83458 0.0
C1444 C 0.79993 0.36553 0.81041 0.0
C1445 C 0.79766 0.3832 0.78685 0.0
C1446 C 0.74725 0.4013 0.86022 0.0
C1447 C 0.81942 0.34045 0.80921 0.0
C1448 C 0.80344 0.33777 0.90451 0.0
C1449 C 0.78515 0.31457 0.90545 0.0
C1450 C 0.80331 0.35628 0.88144 0.0
C1451 C 0.78427 0.35156 0.85897 0.0
C1452 C 0.76584 0.3281 0.85977 0.0
C1453 C 0.7666 0.30984 0.88292 0.0
C1454 C 0.82346 0.38092 0.88114 0.0
C1455 C 0.74497 0.32249 0.83641 0.0
H1456 H 0.75004 0.43056 0.81158 0.0
H1457 H 0.80975 0.3785 0.7681 0.0
H1458 H 0.73323 0.38309 0.86466 0.0
H1459 H 0.76057 0.40459 0.87911 0.0
H1460 H 0.73401 0.4203 0.85702 0.0
H1461 H 0.83195 0.33991 0.78949 0.0
H1462 H 0.8341 0.34082 0.82738 0.0
H1463 H 0.80701 0.32066 0.81067 0.0
H1464 H 0.81785 0.34151 0.92181 0.0
H1465 H 0.75226 0.29204 0.8835 0.0
H1466 H 0.81151 0.40097 0.88042 0.0
H1467 H 0.83674 0.3801 0.86196 0.0
H1468 H 0.83742 0.38124 0.89989 0.0
H1469 H 0.73008 0.3404 0.8347 0.0
H1470 H 0.73265 0.30286 0.83992 0.0
H1471 H 0.75606 0.32074 0.81597 0.0
C1472 C 0.70894 0.58511 0.30878 0.0
C1473 C 0.72528 0.59571 0.2866 0.0
C1474 C 0.70616 0.60028 0.33407 0.0
C1475 C 0.72064 0.62623 0.33739 0.0
C1476 C 0.73733 0.63683 0.31508 0.0
C1477 C 0.73913 0.62162 0.28987 0.0
C1478 C 0.68767 0.58867 0.35715 0.0
C1479 C 0.75373 0.66402 0.31798 0.0
C1480 C 0.70124 0.682 0.39124 0.0
C1481 C 0.7223 0.67814 0.4116 0.0
C1482 C 0.69947 0.66428 0.36763 0.0
C1483 C 0.7192 0.64219 0.36433 0.0
C1484 C 0.73948 0.63726 0.38559 0.0
C1485 C 0.74077 0.65527 0.40897 0.0
C1486 C 0.67737 0.67009 0.34554 0.0
C1487 C 0.76084 0.61388 0.38293 0.0
H1488 H 0.69809 0.56515 0.30622 0.0
H1489 H 0.75208 0.62973 0.27291 0.0
H1490 H 0.6997 0.58701 0.37709 0.0
H1491 H 0.66991 0.60332 0.36101 0.0
H1492 H 0.67894 0.56759 0.35183 0.0
H1493 H 0.76591 0.66921 0.29871 0.0
H1494 H 0.73918 0.6817 0.32254 0.0
H1495 H 0.76861 0.66247 0.33591 0.0
H1496 H 0.68679 0.69955 0.39314 0.0
H1497 H 0.75695 0.65198 0.42472 0.0
H1498 H 0.66562 0.6505 0.34049 0.0
H1499 H 0.68768 0.67733 0.32589 0.0
H1500 H 0.66215 0.68647 0.35235 0.0
H1501 H 0.75012 0.59352 0.37873 0.0
H1502 H 0.77396 0.61162 0.40215 0.0
H1503 H 0.77494 0.61822 0.36482 0.0
C1504 C 0.18881 0.29533 0.09317 0.0
C1505 C 0.20504 0.27158 0.09963 0.0
C1506 C 0.16309 0.30018 0.10703 0.0
C1507 C 0.15324 0.2803 0.12699 0.0
C1508 C 0.16947 0.25605 0.13309 0.0
C1509 C 0.19536 0.25226 0.11965 0.0
C1510 C 0.1467 0.32663 0.10065 0.0
C1511 C 0.1594 0.23392 0.15366 0.0
C1512 C 0.10203 0.29439 0.18591 0.0
C1513 C 0.07842 0.27923 0.1766 0.0
C1514 C 0.12605 0.29686 0.169 0.0
C1515 C 0.12612 0.28439 0.14195 0.0
C1516 C 0.10131 0.27151 0.13145 0.0
C1517 C 0.07781 0.26871 0.1491 0.0
C1518 C 0.15212 0.31054 0.1811 0.0
C1519 C 0.10031 0.2587 0.10241 0.0
H1520 H 0.19645 0.31027 0.07769 0.0
H1521 H 0.20777 0.23365 0.12427 0.0
H1522 H 0.12447 0.32143 0.09562 0.0
H1523 H 0.1465 0.34041 0.1195 0.0
H1524 H 0.15591 0.33866 0.08283 0.0
H1525 H 0.17442 0.21611 0.15569 0.0
H1526 H 0.15632 0.24347 0.17473 0.0
H1527 H 0.13876 0.22536 0.14674 0.0
H1528 H 0.10256 0.30256 0.20722 0.0
H1529 H 0.05938 0.25734 0.14178 0.0
H1530 H 0.16194 0.3249 0.16553 0.0
H1531 H 0.16779 0.29401 0.18628 0.0
H1532 H 0.14749 0.32262 0.20058 0.0
H1533 H 0.10955 0.27332 0.08671 0.0
H1534 H 0.07845 0.25341 0.09589 0.0
H1535 H 0.11301 0.2391 0.10213 0.0
C1536 C 0.69041 0.23605 0.89838 0.0
C1537 C 0.70283 0.21076 0.90701 0.0
C1538 C 0.66836 0.23612 0.87887 0.0
C1539 C 0.65779 0.21016 0.86864 0.0
C1540 C 0.67034 0.1845 0.87726 0.0
C1541 C 0.69323 0.18514 0.896 0.0
C1542 C 0.65653 0.26401 0.86912 0.0
C1543 C 0.65938 0.15647 0.86691 0.0
C1544 C 0.58261 0.21628 0.84295 0.0
C1545 C 0.58647 0.2172 0.81384 0.0
C1546 C 0.6056 0.21216 0.86099 0.0
C1547 C 0.63308 0.21016 0.84956 0.0
C1548 C 0.63695 0.2107 0.82004 0.0
C1549 C 0.61345 0.21374 0.80249 0.0
C1550 C 0.60059 0.21083 0.89232 0.0
C1551 C 0.66594 0.21003 0.80699 0.0
H1552 H 0.69851 0.2559 0.90636 0.0
H1553 H 0.70328 0.16569 0.90246 0.0
H1554 H 0.65608 0.26487 0.8458 0.0
H1555 H 0.63453 0.26627 0.8766 0.0
H1556 H 0.66899 0.28222 0.87701 0.0
H1557 H 0.67109 0.13843 0.87609 0.0
H1558 H 0.63676 0.15427 0.87235 0.0
H1559 H 0.66101 0.15535 0.84366 0.0
H1560 H 0.56163 0.21885 0.85157 0.0
H1561 H 0.61636 0.21489 0.77988 0.0
H1562 H 0.60914 0.2301 0.90245 0.0
H1563 H 0.61177 0.1925 0.90153 0.0
H1564 H 0.57785 0.20915 0.89753 0.0
H1565 H 0.67638 0.2307 0.81038 0.0
H1566 H 0.66505 0.20593 0.78399 0.0
H1567 H 0.67931 0.19373 0.81698 0.0
C1568 C 0.81092 0.78104 0.41425 0.0
C1569 C 0.78633 0.77159 0.40081 0.0
C1570 C 0.83657 0.78282 0.39956 0.0
C1571 C 0.83769 0.77445 0.37098 0.0
C1572 C 0.81282 0.76538 0.35723 0.0
C1573 C 0.78744 0.76432 0.37223 0.0
C1574 C 0.86256 0.79323 0.41466 0.0
C1575 C 0.81317 0.75583 0.3269 0.0
C1576 C 0.89721 0.79335 0.32113 0.0
C1577 C 0.91241 0.76803 0.32037 0.0
C1578 C 0.87364 0.79636 0.33867 0.0
C1579 C 0.86499 0.77344 0.35569 0.0
C1580 C 0.88109 0.74836 0.35602 0.0
C1581 C 0.90468 0.74601 0.33846 0.0
C1582 C 0.85718 0.82354 0.3379 0.0
C1583 C 0.87251 0.72338 0.37376 0.0
H1584 H 0.81013 0.78689 0.43627 0.0
H1585 H 0.76858 0.75685 0.36171 0.0
H1586 H 0.87903 0.77669 0.41453 0.0
H1587 H 0.87135 0.81182 0.40352 0.0
H1588 H 0.85814 0.79921 0.43681 0.0
H1589 H 0.79186 0.75011 0.31908 0.0
H1590 H 0.82186 0.77272 0.31328 0.0
H1591 H 0.82709 0.7372 0.32464 0.0
H1592 H 0.90312 0.81054 0.30729 0.0
H1593 H 0.91634 0.7264 0.33807 0.0
H1594 H 0.85291 0.8311 0.35956 0.0
H1595 H 0.83654 0.81985 0.32759 0.0
H1596 H 0.86845 0.84038 0.32616 0.0
H1597 H 0.86972 0.72987 0.39599 0.0
H1598 H 0.88821 0.70608 0.37294 0.0
H1599 H 0.85196 0.71507 0.36627 0.0
C1600 C 0.39711 0.70035 0.68308 0.0
C1601 C 0.41469 0.72393 0.67968 0.0
C1602 C 0.37299 0.69678 0.66634 0.0
C1603 C 0.3663 0.71733 0.64581 0.0
C1604 C 0.38494 0.7402 0.64113 0.0
C1605 C 0.40892 0.74319 0.65809 0.0
C1606 C 0.35385 0.67195 0.67186 0.0
C1607 C 0.3786 0.76261 0.61949 0.0
C1608 C 0.30953 0.70748 0.59012 0.0
C1609 C 0.28689 0.72195 0.60232 0.0
C1610 C 0.3352 0.7045 0.6046 0.0
C1611 C 0.33843 0.71692 0.63151 0.0
C1612 C 0.31537 0.73088 0.64416 0.0
C1613 C 0.28982 0.7329 0.62957 0.0
C1614 C 0.35912 0.68879 0.59085 0.0
C1615 C 0.31803 0.74484 0.67262 0.0
H1616 H 0.4015 0.68525 0.69961 0.0
H1617 H 0.42253 0.76133 0.65515 0.0
H1618 H 0.33514 0.67913 0.68381 0.0
H1619 H 0.34624 0.66264 0.65183 0.0
H1620 H 0.36454 0.65531 0.68433 0.0
H1621 H 0.39653 0.77739 0.6165 0.0
H1622 H 0.37342 0.75285 0.59892 0.0
H1623 H 0.35995 0.77492 0.62627 0.0
H1624 H 0.30731 0.69883 0.56913 0.0
H1625 H 0.27249 0.74427 0.63909 0.0
H1626 H 0.3674 0.67246 0.60535 0.0
H1627 H 0.37667 0.70357 0.58628 0.0
H1628 H 0.35258 0.6785 0.57089 0.0
H1629 H 0.32472 0.7292 0.6886 0.0
H1630 H 0.29797 0.75457 0.67966 0.0
H1631 H 0.33446 0.7615 0.67182 0.0
C1632 C 0.81381 0.89936 0.69599 0.0
C1633 C 0.81726 0.91661 0.71974 0.0
C1634 C 0.83169 0.87635 0.69123 0.0
C1635 C 0.85337 0.87043 0.71077 0.0
C1636 C 0.8583 0.88908 0.73352 0.0
C1637 C 0.8402 0.912 0.7377 0.0
C1638 C 0.82612 0.85731 0.6664 0.0
C1639 C 0.88138 0.88365 0.75469 0.0
C1640 C 0.86999 0.79407 0.72614 0.0
C1641 C 0.89701 0.7912 0.71466 0.0
C1642 C 0.85546 0.81963 0.72449 0.0
C1643 C 0.86785 0.8427 0.71019 0.0
C1644 C 0.89451 0.83953 0.69722 0.0
C1645 C 0.90902 0.81384 0.69998 0.0
C1646 C 0.82743 0.82232 0.73932 0.0
C1647 C 0.90778 0.8633 0.68078 0.0
H1648 H 0.79634 0.90301 0.68177 0.0
H1649 H 0.84327 0.92549 0.75585 0.0
H1650 H 0.84612 0.85172 0.65575 0.0
H1651 H 0.81629 0.83742 0.67382 0.0
H1652 H 0.81175 0.86721 0.65084 0.0
H1653 H 0.8843 0.90162 0.7694 0.0
H1654 H 0.87611 0.86458 0.76716 0.0
H1655 H 0.90164 0.87957 0.74386 0.0
H1656 H 0.86075 0.77673 0.73782 0.0
H1657 H 0.92984 0.81155 0.69094 0.0
H1658 H 0.81094 0.82912 0.72427 0.0
H1659 H 0.82889 0.83868 0.75595 0.0
H1660 H 0.82058 0.80224 0.74922 0.0
H1661 H 0.89497 0.86756 0.66173 0.0
H1662 H 0.92962 0.85833 0.67411 0.0
H1663 H 0.90811 0.88296 0.69341 0.0
C1664 C 0.66256 0.09634 0.24729 0.0
C1665 C 0.6796 0.08517 0.226 0.0
C1666 C 0.64692 0.12094 0.24281 0.0
C1667 C 0.64818 0.13452 0.21631 0.0
C1668 C 0.66425 0.12258 0.1943 0.0
C1669 C 0.67986 0.09806 0.19944 0.0
C1670 C 0.63011 0.13311 0.26687 0.0
C1671 C 0.66595 0.13635 0.16573 0.0
C1672 C 0.59194 0.18998 0.20497 0.0
C1673 C 0.60627 0.21458 0.21309 0.0
C1674 C 0.60573 0.16384 0.20442 0.0
C1675 C 0.63435 0.1623 0.21254 0.0
C1676 C 0.64927 0.18723 0.21937 0.0
C1677 C 0.6351 0.21311 0.21931 0.0
C1678 C 0.58937 0.13771 0.19645 0.0
C1679 C 0.67978 0.18642 0.2284 0.0
H1680 H 0.66226 0.0865 0.26787 0.0
H1681 H 0.69294 0.08948 0.18284 0.0
H1682 H 0.63871 0.15409 0.27268 0.0
H1683 H 0.60789 0.1362 0.2604 0.0
H1684 H 0.6305 0.11939 0.28581 0.0
H1685 H 0.67685 0.12284 0.15008 0.0
H1686 H 0.64454 0.14127 0.15779 0.0
H1687 H 0.6776 0.15658 0.16744 0.0
H1688 H 0.5697 0.191 0.19993 0.0
H1689 H 0.64636 0.23198 0.22563 0.0
H1690 H 0.58691 0.12393 0.21514 0.0
H1691 H 0.60101 0.12547 0.18034 0.0
H1692 H 0.5681 0.14277 0.18813 0.0
H1693 H 0.6816 0.17496 0.24867 0.0
H1694 H 0.68886 0.20784 0.23114 0.0
H1695 H 0.69259 0.17483 0.21272 0.0
C1696 C 0.37083 0.70415 0.25521 0.0
C1697 C 0.39837 0.70652 0.26556 0.0
C1698 C 0.35589 0.67874 0.25718 0.0
C1699 C 0.36852 0.65526 0.2705 0.0
C1700 C 0.39594 0.65782 0.28203 0.0
C1701 C 0.41076 0.68335 0.27901 0.0
C1702 C 0.32689 0.67682 0.24419 0.0
C1703 C 0.40974 0.63348 0.29707 0.0
C1704 C 0.31572 0.59798 0.28869 0.0
C1705 C 0.31788 0.5803 0.26511 0.0
C1706 C 0.33336 0.6216 0.29173 0.0
C1707 C 0.35345 0.62773 0.2706 0.0
C1708 C 0.35682 0.60902 0.24765 0.0
C1709 C 0.33906 0.58549 0.24524 0.0
C1710 C 0.32944 0.64077 0.31677 0.0
C1711 C 0.37793 0.61484 0.22461 0.0
H1712 H 0.36123 0.72197 0.24466 0.0
H1713 H 0.43198 0.68523 0.28725 0.0
H1714 H 0.32665 0.66029 0.22767 0.0
H1715 H 0.31123 0.67063 0.26036 0.0
H1716 H 0.3201 0.69705 0.2346 0.0
H1717 H 0.42969 0.63981 0.30755 0.0
H1718 H 0.39526 0.62459 0.31311 0.0
H1719 H 0.41442 0.61643 0.28183 0.0
H1720 H 0.29955 0.59401 0.30429 0.0
H1721 H 0.34103 0.57184 0.22707 0.0
H1722 H 0.31946 0.66072 0.30985 0.0
H1723 H 0.35009 0.64625 0.32624 0.0
H1724 H 0.31589 0.63103 0.33318 0.0
H1725 H 0.37133 0.63377 0.21261 0.0
H1726 H 0.37987 0.59689 0.20973 0.0
H1727 H 0.39897 0.61937 0.23369 0.0
C1728 C 0.1234 0.29712 0.7525 0.0
C1729 C 0.10101 0.28889 0.76983 0.0
C1730 C 0.1372 0.32291 0.75656 0.0
C1731 C 0.12903 0.34057 0.77913 0.0
C1732 C 0.10677 0.33212 0.79713 0.0
C1733 C 0.0926 0.30652 0.79192 0.0
C1734 C 0.16027 0.33143 0.73634 0.0
C1735 C 0.09791 0.35013 0.82172 0.0
C1736 C 0.18631 0.39353 0.79637 0.0
C1737 C 0.17791 0.41666 0.78004 0.0
C1738 C 0.16952 0.36918 0.79802 0.0
C1739 C 0.14371 0.36805 0.7831 0.0
C1740 C 0.13412 0.39221 0.7685 0.0
C1741 C 0.15139 0.4162 0.76709 0.0
C1742 C 0.18038 0.34398 0.81406 0.0
C1743 C 0.1067 0.39203 0.75241 0.0
H1744 H 0.1296 0.2837 0.73512 0.0
H1745 H 0.07526 0.3001 0.8053 0.0
H1746 H 0.15495 0.35186 0.72631 0.0
H1747 H 0.18036 0.3344 0.74788 0.0
H1748 H 0.16361 0.31553 0.71951 0.0
H1749 H 0.08174 0.33959 0.83496 0.0
H1750 H 0.11643 0.35526 0.83504 0.0
H1751 H 0.08921 0.37038 0.81398 0.0
H1752 H 0.20674 0.39375 0.80656 0.0
H1753 H 0.14461 0.43414 0.75472 0.0
H1754 H 0.18709 0.32745 0.79899 0.0
H1755 H 0.1635 0.33482 0.82736 0.0
H1756 H 0.19865 0.34946 0.82763 0.0
H1757 H 0.10927 0.37937 0.73295 0.0
H1758 H 0.10003 0.41362 0.74635 0.0
H1759 H 0.08968 0.38214 0.76497 0.0
C1760 C 0.74972 0.82584 0.89653 0.0
C1761 C 0.72556 0.81585 0.91026 0.0
C1762 C 0.74766 0.84322 0.87278 0.0
C1763 C 0.72077 0.85134 0.86282 0.0
C1764 C 0.69628 0.84194 0.87704 0.0
C1765 C 0.69896 0.82402 0.90045 0.0
C1766 C 0.7743 0.85225 0.8579 0.0
C1767 C 0.66726 0.85032 0.86719 0.0
C1768 C 0.7214 0.91464 0.81375 0.0
C1769 C 0.72125 0.90158 0.78727 0.0
C1770 C 0.72001 0.8986 0.83859 0.0
C1771 C 0.71857 0.86883 0.83689 0.0
C1772 C 0.7173 0.85562 0.81023 0.0
C1773 C 0.7186 0.87214 0.78578 0.0
C1774 C 0.72108 0.91343 0.86667 0.0
C1775 C 0.71589 0.82393 0.80745 0.0
H1776 H 0.77035 0.81931 0.90377 0.0
H1777 H 0.68022 0.81632 0.91099 0.0
H1778 H 0.77402 0.84455 0.83586 0.0
H1779 H 0.77557 0.87559 0.85713 0.0
H1780 H 0.79356 0.84411 0.86836 0.0
H1781 H 0.65053 0.84334 0.88197 0.0
H1782 H 0.66598 0.87354 0.86474 0.0
H1783 H 0.66301 0.84086 0.84627 0.0
H1784 H 0.7233 0.93737 0.81513 0.0
H1785 H 0.71832 0.86181 0.76545 0.0
H1786 H 0.74095 0.90801 0.87768 0.0
H1787 H 0.70344 0.90623 0.8802 0.0
H1788 H 0.71995 0.93671 0.86448 0.0
H1789 H 0.73587 0.81457 0.81512 0.0
H1790 H 0.71251 0.8171 0.78535 0.0
H1791 H 0.69864 0.81528 0.8206 0.0
C1792 C 0.75273 0.09684 0.30645 0.0
C1793 C 0.77692 0.0887 0.29179 0.0
C1794 C 0.75474 0.11373 0.33061 0.0
C1795 C 0.78165 0.12172 0.34079 0.0
C1796 C 0.80617 0.11291 0.32632 0.0
C1797 C 0.80346 0.09694 0.30158 0.0
C1798 C 0.72807 0.12361 0.34479 0.0
C1799 C 0.83521 0.12028 0.337 0.0
C1800 C 0.78462 0.18636 0.38771 0.0
C1801 C 0.78226 0.17429 0.41453 0.0
C1802 C 0.78502 0.16948 0.36351 0.0
C1803 C 0.78393 0.13978 0.36628 0.0
C1804 C 0.78319 0.12747 0.39343 0.0
C1805 C 0.78182 0.14492 0.41725 0.0
C1806 C 0.78503 0.18351 0.33499 0.0
C1807 C 0.78292 0.0959 0.3973 0.0
H1808 H 0.73219 0.09075 0.29846 0.0
H1809 H 0.82208 0.09057 0.29005 0.0
H1810 H 0.72754 0.11617 0.3669 0.0
H1811 H 0.7276 0.14699 0.34531 0.0
H1812 H 0.70881 0.11595 0.3339 0.0
H1813 H 0.85211 0.11123 0.32365 0.0
H1814 H 0.8379 0.1435 0.33771 0.0
H1815 H 0.83783 0.11235 0.3588 0.0
H1816 H 0.78471 0.20911 0.38553 0.0
H1817 H 0.78015 0.13559 0.438 0.0
H1818 H 0.76472 0.17919 0.32423 0.0
H1819 H 0.80199 0.17478 0.32158 0.0
H1820 H 0.7879 0.20671 0.33649 0.0
H1821 H 0.7622 0.08734 0.39066 0.0
H1822 H 0.78662 0.08977 0.41955 0.0
H1823 H 0.79924 0.08589 0.38395 0.0
C1824 C 0.20022 0.67416 0.09336 0.0
C1825 C 0.22647 0.67727 0.08013 0.0
C1826 C 0.19672 0.6556 0.11613 0.0
C1827 C 0.22012 0.64006 0.12605 0.0
C1828 C 0.24631 0.6422 0.11198 0.0
C1829 C 0.24912 0.66065 0.08911 0.0
C1830 C 0.16837 0.65371 0.13035 0.0
C1831 C 0.27182 0.62607 0.12198 0.0
C1832 C 0.22641 0.62122 0.20319 0.0
C1833 C 0.22226 0.59194 0.20276 0.0
C1834 C 0.22472 0.63724 0.17849 0.0
C1835 C 0.2183 0.62374 0.15272 0.0
C1836 C 0.21266 0.59441 0.15233 0.0
C1837 C 0.2149 0.57878 0.17737 0.0
C1838 C 0.23111 0.66844 0.17983 0.0
C1839 C 0.20487 0.57951 0.12537 0.0
H1840 H 0.18254 0.68682 0.08646 0.0
H1841 H 0.26945 0.66283 0.07899 0.0
H1842 H 0.16274 0.63143 0.13469 0.0
H1843 H 0.16924 0.66487 0.15083 0.0
H1844 H 0.15143 0.66337 0.11744 0.0
H1845 H 0.29022 0.62888 0.10784 0.0
H1846 H 0.27779 0.63332 0.14337 0.0
H1847 H 0.26688 0.60326 0.12343 0.0
H1848 H 0.23203 0.63161 0.22271 0.0
H1849 H 0.2113 0.55622 0.17697 0.0
H1850 H 0.21358 0.68066 0.17044 0.0
H1851 H 0.25032 0.67312 0.16737 0.0
H1852 H 0.23453 0.67592 0.20171 0.0
H1853 H 0.18555 0.58906 0.11637 0.0
H1854 H 0.2011 0.55662 0.12859 0.0
H1855 H 0.22188 0.58218 0.1096 0.0
C1856 C 0.28531 0.41494 0.68615 0.0
C1857 C 0.27024 0.40299 0.70854 0.0
C1858 C 0.29121 0.39915 0.66181 0.0
C1859 C 0.28116 0.37109 0.65966 0.0
C1860 C 0.26673 0.35871 0.68259 0.0
C1861 C 0.26167 0.37473 0.70679 0.0
C1862 C 0.30731 0.41279 0.63806 0.0
C1863 C 0.25541 0.32894 0.68111 0.0
C1864 C 0.25905 0.34056 0.5896 0.0
C1865 C 0.27975 0.32006 0.58504 0.0
C1866 C 0.26012 0.35825 0.61314 0.0
C1867 C 0.28259 0.3556 0.63252 0.0
C1868 C 0.30445 0.33604 0.62724 0.0
C1869 C 0.30273 0.31839 0.60355 0.0
C1870 C 0.23626 0.37867 0.61809 0.0
C1871 C 0.32902 0.33298 0.64717 0.0
H1872 H 0.29237 0.43663 0.68757 0.0
H1873 H 0.2501 0.36527 0.72405 0.0
H1874 H 0.32352 0.39821 0.62971 0.0
H1875 H 0.29265 0.4177 0.62058 0.0
H1876 H 0.31775 0.43266 0.64478 0.0
H1877 H 0.24587 0.32199 0.70129 0.0
H1878 H 0.23912 0.32751 0.6644 0.0
H1879 H 0.27247 0.31406 0.67547 0.0
H1880 H 0.24133 0.34213 0.57531 0.0
H1881 H 0.31894 0.30273 0.60004 0.0
H1882 H 0.24462 0.40021 0.6217 0.0
H1883 H 0.22448 0.3724 0.63727 0.0
H1884 H 0.22128 0.37937 0.60015 0.0
H1885 H 0.3389 0.35384 0.65105 0.0
H1886 H 0.34528 0.31833 0.63896 0.0
H1887 H 0.32152 0.3249 0.66774 0.0
C1888 C 0.90644 0.70878 0.85111 0.0
C1889 C 0.90287 0.71659 0.82292 0.0
C1890 C 0.88325 0.70679 0.86926 0.0
C1891 C 0.85593 0.71257 0.85885 0.0
C1892 C 0.85213 0.71979 0.83023 0.0
C1893 C 0.87566 0.72178 0.81263 0.0
C1894 C 0.88803 0.69911 0.8997 0.0
C1895 C 0.82332 0.72621 0.81837 0.0
C1896 C 0.79126 0.68829 0.89903 0.0
C1897 C 0.7839 0.71294 0.91344 0.0
C1898 C 0.81514 0.68762 0.88165 0.0
C1899 C 0.83144 0.7124 0.87815 0.0
C1900 C 0.82399 0.73736 0.89258 0.0
C1901 C 0.80052 0.7372 0.91038 0.0
C1902 C 0.82267 0.6606 0.8667 0.0
C1903 C 0.8404 0.76441 0.88876 0.0
H1904 H 0.92741 0.70473 0.85914 0.0
H1905 H 0.87272 0.7276 0.79077 0.0
H1906 H 0.8819 0.71703 0.91337 0.0
H1907 H 0.87458 0.68089 0.90559 0.0
H1908 H 0.91036 0.69374 0.90411 0.0
H1909 H 0.82378 0.72941 0.79522 0.0
H1910 H 0.80843 0.70883 0.82319 0.0
H1911 H 0.81491 0.74559 0.82834 0.0
H1912 H 0.77834 0.66956 0.90133 0.0
H1913 H 0.7946 0.75645 0.92112 0.0
H1914 H 0.84469 0.65462 0.87169 0.0
H1915 H 0.82142 0.66373 0.84361 0.0
H1916 H 0.80852 0.64288 0.8726 0.0
H1917 H 0.86244 0.76142 0.89586 0.0
H1918 H 0.8311 0.78226 0.90067 0.0
H1919 H 0.84112 0.77021 0.86616 0.0
C1920 C 0.3052 0.78738 0.08078 0.0
C1921 C 0.28117 0.77545 0.09321 0.0
C1922 C 0.33039 0.79046 0.09612 0.0
C1923 C 0.33174 0.78066 0.12424 0.0
C1924 C 0.30727 0.76947 0.13712 0.0
C1925 C 0.28226 0.7673 0.12156 0.0
C1926 C 0.35581 0.80322 0.08193 0.0
C1927 C 0.30784 0.75848 0.16696 0.0
C1928 C 0.3999 0.75203 0.15423 0.0
C1929 C 0.40714 0.77276 0.17398 0.0
C1930 C 0.37605 0.75496 0.13708 0.0
C1931 C 0.35914 0.7794 0.13946 0.0
C1932 C 0.36721 0.80115 0.15823 0.0
C1933 C 0.39107 0.79752 0.17537 0.0
C1934 C 0.3681 0.73115 0.11752 0.0
C1935 C 0.35007 0.82776 0.16098 0.0
H1936 H 0.30442 0.79399 0.05897 0.0
H1937 H 0.26382 0.75803 0.13135 0.0
H1938 H 0.36598 0.81902 0.09586 0.0
H1939 H 0.37154 0.78652 0.07768 0.0
H1940 H 0.35029 0.81353 0.06169 0.0
H1941 H 0.28675 0.75138 0.17423 0.0
H1942 H 0.3226 0.74043 0.16843 0.0
H1943 H 0.31561 0.77504 0.18149 0.0
H1944 H 0.41221 0.73287 0.15292 0.0
H1945 H 0.39663 0.81376 0.19045 0.0
H1946 H 0.36495 0.73922 0.09585 0.0
H1947 H 0.34787 0.72167 0.12444 0.0
H1948 H 0.38433 0.71433 0.11694 0.0
H1949 H 0.34659 0.83732 0.13997 0.0
H1950 H 0.3604 0.84358 0.17482 0.0
H1951 H 0.32906 0.82268 0.16985 0.0
C1952 C 0.21952 0.22258 0.61982 0.0
C1953 C 0.21964 0.22249 0.5903 0.0
C1954 C 0.19415 0.22237 0.63489 0.0
C1955 C 0.16828 0.22169 0.6201 0.0
C1956 C 0.16825 0.21983 0.5904 0.0
C1957 C 0.19396 0.2204 0.57581 0.0
C1958 C 0.19502 0.22435 0.66661 0.0
C1959 C 0.14105 0.21852 0.574 0.0
C1960 C 0.10408 0.20664 0.66513 0.0
C1961 C 0.09455 0.234 0.67089 0.0
C1962 C 0.12728 0.20211 0.64747 0.0
C1963 C 0.14148 0.22556 0.63571 0.0
C1964 C 0.13126 0.25316 0.64061 0.0
C1965 C 0.10776 0.25702 0.65798 0.0
C1966 C 0.13725 0.17235 0.6424 0.0
C1967 C 0.14603 0.27875 0.62875 0.0
H1968 H 0.23924 0.22406 0.63122 0.0
H1969 H 0.19387 0.22007 0.55302 0.0
H1970 H 0.18516 0.24437 0.67352 0.0
H1971 H 0.18274 0.20686 0.6761 0.0
H1972 H 0.21685 0.22358 0.67498 0.0
H1973 H 0.14462 0.2143 0.5513 0.0
H1974 H 0.12711 0.20183 0.58263 0.0
H1975 H 0.12971 0.23884 0.57607 0.0
H1976 H 0.0938 0.18874 0.67495 0.0
H1977 H 0.10055 0.27821 0.66246 0.0
H1978 H 0.15741 0.16888 0.65364 0.0
H1979 H 0.14122 0.16882 0.61968 0.0
H1980 H 0.12177 0.15644 0.64989 0.0
H1981 H 0.16721 0.28077 0.63844 0.0
H1982 H 0.13419 0.29852 0.63276 0.0
H1983 H 0.14907 0.27643 0.60574 0.0
C1984 C 0.59366 0.26065 0.34116 0.0
C1985 C 0.59402 0.27702 0.31661 0.0
C1986 C 0.61586 0.26193 0.36051 0.0
C1987 C 0.63887 0.28017 0.35524 0.0
C1988 C 0.63837 0.29827 0.33157 0.0
C1989 C 0.61593 0.29643 0.31243 0.0
C1990 C 0.61559 0.24225 0.38548 0.0
C1991 C 0.66235 0.31829 0.32543 0.0
C1992 C 0.69276 0.2881 0.41396 0.0
C1993 C 0.71359 0.26928 0.40503 0.0
C1994 C 0.6686 0.29271 0.39748 0.0
C1995 C 0.66495 0.2773 0.37221 0.0
C1996 C 0.68588 0.25802 0.36341 0.0
C1997 C 0.71015 0.25461 0.37972 0.0
C1998 C 0.64708 0.31404 0.40697 0.0
C1999 C 0.68242 0.24055 0.33703 0.0
H2000 H 0.57659 0.24588 0.34472 0.0
H2001 H 0.61621 0.30934 0.29362 0.0
H2002 H 0.63204 0.22591 0.38267 0.0
H2003 H 0.62058 0.25388 0.40509 0.0
H2004 H 0.59492 0.23155 0.38812 0.0
H2005 H 0.65652 0.33426 0.30937 0.0
H2006 H 0.66916 0.32932 0.34487 0.0
H2007 H 0.68064 0.3062 0.31744 0.0
H2008 H 0.69566 0.29959 0.43346 0.0
H2009 H 0.72622 0.23985 0.373 0.0
H2010 H 0.62672 0.3034 0.41127 0.0
H2011 H 0.64328 0.32965 0.39002 0.0
H2012 H 0.65384 0.32544 0.42625 0.0
H2013 H 0.66306 0.22748 0.33857 0.0
H2014 H 0.70062 0.22636 0.3333 0.0
H2015 H 0.67996 0.25451 0.31848 0.0
C2016 C 0.97304 0.24989 0.17195 0.0
C2017 C 0.962 0.25918 0.19756 0.0
C2018 C 0.9555 0.24607 0.14853 0.0
C2019 C 0.92642 0.25201 0.15098 0.0
C2020 C 0.91488 0.25893 0.17753 0.0
C2021 C 0.93294 0.26273 0.20055 0.0
C2022 C 0.9684 0.238 0.12068 0.0
C2023 C 0.88379 0.26437 0.1811 0.0
C2024 C 0.88937 0.28389 0.08798 0.0
C2025 C 0.87494 0.26061 0.07705 0.0
C2026 C 0.90655 0.28115 0.11182 0.0
C2027 C 0.90884 0.25459 0.12532 0.0
C2028 C 0.89419 0.23101 0.11442 0.0
C2029 C 0.87777 0.23423 0.09016 0.0
C2030 C 0.9221 0.30675 0.1227 0.0
C2031 C 0.89572 0.20227 0.12799 0.0
H2032 H 0.9956 0.24774 0.16957 0.0
H2033 H 0.9246 0.27037 0.22037 0.0
H2034 H 0.95637 0.22041 0.11102 0.0
H2035 H 0.96732 0.25619 0.10604 0.0
H2036 H 0.99078 0.23155 0.12287 0.0
H2037 H 0.87775 0.26634 0.20359 0.0
H2038 H 0.87803 0.28418 0.17012 0.0
H2039 H 0.87136 0.24704 0.17143 0.0
H2040 H 0.88727 0.30427 0.07788 0.0
H2041 H 0.86656 0.21609 0.0819 0.0
H2042 H 0.94502 0.30236 0.12369 0.0
H2043 H 0.91501 0.31171 0.14437 0.0
H2044 H 0.91872 0.32562 0.10929 0.0
H2045 H 0.913 0.19011 0.11806 0.0
H2046 H 0.87584 0.19035 0.12466 0.0
H2047 H 0.89988 0.20347 0.15092 0.0
C2048 C 0.61059 0.76511 0.58523 0.0
C2049 C 0.61927 0.73906 0.57464 0.0
C2050 C 0.59277 0.76665 0.60866 0.0
C2051 C 0.58329 0.74143 0.62145 0.0
C2052 C 0.59177 0.71498 0.61043 0.0
C2053 C 0.61004 0.71414 0.58726 0.0
C2054 C 0.58481 0.7952 0.62015 0.0
C2055 C 0.58174 0.68761 0.62324 0.0
C2056 C 0.5576 0.73858 0.69691 0.0
C2057 C 0.52856 0.73597 0.6928 0.0
C2058 C 0.57578 0.74171 0.67383 0.0
C2059 C 0.56439 0.7425 0.64628 0.0
C2060 C 0.53485 0.74191 0.64236 0.0
C2061 C 0.51728 0.7383 0.66573 0.0
C2062 C 0.60718 0.74209 0.67878 0.0
C2063 C 0.52191 0.74319 0.61337 0.0
H2064 H 0.61841 0.78426 0.57562 0.0
H2065 H 0.61724 0.69407 0.57908 0.0
H2066 H 0.56181 0.79639 0.62401 0.0
H2067 H 0.59556 0.79859 0.6406 0.0
H2068 H 0.59092 0.81253 0.60569 0.0
H2069 H 0.58998 0.6689 0.61188 0.0
H2070 H 0.58848 0.68635 0.64555 0.0
H2071 H 0.55838 0.68675 0.62296 0.0
H2072 H 0.56621 0.73601 0.71788 0.0
H2073 H 0.49478 0.73572 0.66271 0.0
H2074 H 0.61704 0.75992 0.66731 0.0
H2075 H 0.61658 0.72238 0.6705 0.0
H2076 H 0.61252 0.74388 0.70146 0.0
H2077 H 0.53006 0.76179 0.60177 0.0
H2078 H 0.49856 0.74442 0.61413 0.0
H2079 H 0.52792 0.72416 0.60124 0.0
C2080 C 0.38977 0.25291 0.91064 0.0
C2081 C 0.37194 0.22936 0.91116 0.0
C2082 C 0.40978 0.25627 0.88932 0.0
C2083 C 0.41285 0.23483 0.86894 0.0
C2084 C 0.39533 0.21057 0.86985 0.0
C2085 C 0.37451 0.20849 0.89064 0.0
C2086 C 0.42714 0.28297 0.88825 0.0
C2087 C 0.39869 0.1868 0.84899 0.0
C2088 C 0.4487 0.24383 0.79843 0.0
C2089 C 0.47424 0.23019 0.80371 0.0
C2090 C 0.42891 0.24725 0.8201 0.0
C2091 C 0.4352 0.23689 0.84734 0.0
C2092 C 0.46207 0.22551 0.85314 0.0
C2093 C 0.48124 0.22217 0.83114 0.0
C2094 C 0.40058 0.25994 0.81338 0.0
C2095 C 0.46976 0.21471 0.88203 0.0
H2096 H 0.38736 0.26926 0.92634 0.0
H2097 H 0.36043 0.19047 0.89106 0.0
H2098 H 0.44991 0.27789 0.88884 0.0
H2099 H 0.42309 0.29416 0.86816 0.0
H2100 H 0.42224 0.29749 0.90591 0.0
H2101 H 0.38373 0.1692 0.85297 0.0
H2102 H 0.39527 0.19469 0.8273 0.0
H2103 H 0.42047 0.17841 0.84998 0.0
H2104 H 0.44333 0.24977 0.77707 0.0
H2105 H 0.50118 0.21174 0.83504 0.0
H2106 H 0.39462 0.27568 0.82957 0.0
H2107 H 0.38427 0.24316 0.81356 0.0
H2108 H 0.40035 0.27024 0.79239 0.0
H2109 H 0.46559 0.23102 0.89819 0.0
H2110 H 0.49226 0.20846 0.88344 0.0
H2111 H 0.45651 0.19612 0.8872 0.0
C2112 C 0.13223 0.74132 0.38858 0.0
C2113 C 0.12836 0.76156 0.40968 0.0
C2114 C 0.11165 0.73677 0.36798 0.0
C2115 C 0.08719 0.75369 0.36791 0.0
C2116 C 0.08278 0.77356 0.38977 0.0
C2117 C 0.10331 0.77691 0.41075 0.0
C2118 C 0.11652 0.71458 0.34575 0.0
C2119 C 0.05715 0.79234 0.39016 0.0
C2120 C 0.05703 0.77686 0.29853 0.0
C2121 C 0.03116 0.76281 0.29801 0.0
C2122 C 0.07603 0.77287 0.32052 0.0
C2123 C 0.06889 0.75429 0.34266 0.0
C2124 C 0.04351 0.73853 0.34138 0.0
C2125 C 0.02477 0.74301 0.31887 0.0
C2126 C 0.10281 0.79018 0.321 0.0
C2127 C 0.0356 0.71808 0.36438 0.0
H2128 H 0.15129 0.72878 0.38835 0.0
H2129 H 0.10024 0.79217 0.42745 0.0
H2130 H 0.09796 0.7004 0.34432 0.0
H2131 H 0.11916 0.72474 0.32491 0.0
H2132 H 0.13549 0.70166 0.35019 0.0
H2133 H 0.05571 0.80492 0.40981 0.0
H2134 H 0.05801 0.80706 0.37203 0.0
H2135 H 0.03767 0.77959 0.38792 0.0
H2136 H 0.06166 0.79235 0.28253 0.0
H2137 H 0.00448 0.73249 0.31855 0.0
H2138 H 0.12139 0.77627 0.32343 0.0
H2139 H 0.10251 0.80472 0.3393 0.0
H2140 H 0.10558 0.8029 0.30157 0.0
H2141 H 0.05185 0.7014 0.36603 0.0
H2142 H 0.01483 0.70796 0.36052 0.0
H2143 H 0.03489 0.72905 0.38497 0.0
C2144 C 0.1756 0.96765 0.23608 0.0
C2145 C 0.19537 0.95751 0.25539 0.0
C2146 C 0.1521 0.95113 0.22872 0.0
C2147 C 0.14866 0.9242 0.24116 0.0
C2148 C 0.16988 0.91316 0.25885 0.0
C2149 C 0.19301 0.92996 0.26562 0.0
C2150 C 0.13012 0.96324 0.2093 0.0
C2151 C 0.16721 0.88444 0.27242 0.0
C2152 C 0.07807 0.89275 0.25967 0.0
C2153 C 0.07728 0.86975 0.24134 0.0
C2154 C 0.10048 0.91198 0.25861 0.0
C2155 C 0.12198 0.90832 0.23825 0.0
C2156 C 0.1199 0.88639 0.21824 0.0
C2157 C 0.09774 0.86705 0.22031 0.0
C2158 C 0.10226 0.93488 0.2806 0.0
C2159 C 0.14197 0.88226 0.19579 0.0
H2160 H 0.17746 0.98905 0.22827 0.0
H2161 H 0.2086 0.92203 0.28018 0.0
H2162 H 0.12237 0.94702 0.19435 0.0
H2163 H 0.11185 0.97048 0.22188 0.0
H2164 H 0.1384 0.98149 0.1972 0.0
H2165 H 0.18641 0.87846 0.28437 0.0
H2166 H 0.14907 0.88435 0.28713 0.0
H2167 H 0.16314 0.86808 0.25626 0.0
H2168 H 0.06208 0.89476 0.27582 0.0
H2169 H 0.09668 0.84947 0.20573 0.0
H2170 H 0.10676 0.95553 0.27063 0.0
H2171 H 0.11987 0.93024 0.29525 0.0
H2172 H 0.08255 0.93665 0.29304 0.0
H2173 H 0.14836 0.90275 0.18651 0.0
H2174 H 0.13432 0.86824 0.17871 0.0
H2175 H 0.16099 0.87257 0.20526 0.0
C2176 C 0.39491 0.13059 0.77977 0.0
C2177 C 0.41515 0.13124 0.75842 0.0
C2178 C 0.37226 0.1116 0.77854 0.0
C2179 C 0.36948 0.09347 0.75498 0.0
C2180 C 0.38904 0.09526 0.73261 0.0
C2181 C 0.41194 0.11385 0.7348 0.0
C2182 C 0.35207 0.11006 0.80304 0.0
C2183 C 0.38614 0.07704 0.70672 0.0
C2184 C 0.33458 0.02446 0.77337 0.0
C2185 C 0.30657 0.02963 0.76593 0.0
C2186 C 0.35559 0.04445 0.76818 0.0
C2187 C 0.34827 0.07045 0.75558 0.0
C2188 C 0.32027 0.07504 0.74629 0.0
C2189 C 0.29962 0.05438 0.7515 0.0
C2190 C 0.38524 0.03849 0.77802 0.0
C2191 C 0.31175 0.10241 0.7326 0.0
H2192 H 0.39733 0.14427 0.79789 0.0
H2193 H 0.42725 0.11495 0.71792 0.0
H2194 H 0.33003 0.11203 0.79556 0.0
H2195 H 0.35399 0.08923 0.81348 0.0
H2196 H 0.35615 0.12677 0.81891 0.0
H2197 H 0.40177 0.08264 0.69025 0.0
H2198 H 0.38902 0.05457 0.71245 0.0
H2199 H 0.36467 0.07916 0.69775 0.0
H2200 H 0.33982 0.00517 0.78442 0.0
H2201 H 0.27783 0.05841 0.74603 0.0
H2202 H 0.39067 0.05282 0.79567 0.0
H2203 H 0.40052 0.04254 0.76085 0.0
H2204 H 0.38785 0.01639 0.78527 0.0
H2205 H 0.31083 0.11924 0.74878 0.0
H2206 H 0.29074 0.10084 0.7224 0.0
H2207 H 0.32748 0.10898 0.71665 0.0
C2208 C 0.6936 0.55553 0.74389 0.0
C2209 C 0.68948 0.52978 0.73015 0.0
C2210 C 0.67108 0.57448 0.74721 0.0
C2211 C 0.64408 0.56717 0.73667 0.0
C2212 C 0.63961 0.54024 0.72466 0.0
C2213 C 0.66246 0.522 0.72132 0.0
C2214 C 0.67659 0.603 0.76018 0.0
C2215 C 0.61122 0.53152 0.71321 0.0
C2216 C 0.5776 0.60811 0.75356 0.0
C2217 C 0.57519 0.62544 0.72982 0.0
C2218 C 0.60067 0.58993 0.75677 0.0
C2219 C 0.62119 0.58843 0.73525 0.0
C2220 C 0.61872 0.60588 0.71116 0.0
C2221 C 0.59597 0.62455 0.70899 0.0
C2222 C 0.60307 0.57234 0.78311 0.0
C2223 C 0.63987 0.60455 0.68747 0.0
H2224 H 0.7147 0.5617 0.75012 0.0
H2225 H 0.65951 0.50219 0.71028 0.0
H2226 H 0.67471 0.61958 0.74384 0.0
H2227 H 0.66067 0.6076 0.7766 0.0
H2228 H 0.69793 0.60442 0.76969 0.0
H2229 H 0.61064 0.50891 0.70715 0.0
H2230 H 0.59448 0.53538 0.729 0.0
H2231 H 0.60618 0.54438 0.69438 0.0
H2232 H 0.56185 0.60934 0.77 0.0
H2233 H 0.59418 0.63822 0.69079 0.0
H2234 H 0.62385 0.5759 0.79319 0.0
H2235 H 0.60175 0.54964 0.77767 0.0
H2236 H 0.58628 0.57728 0.79861 0.0
H2237 H 0.66122 0.60965 0.69551 0.0
H2238 H 0.63474 0.61937 0.67012 0.0
H2239 H 0.64066 0.58287 0.67876 0.0
C2240 C 0.90958 0.39406 0.20604 0.0
C2241 C 0.91955 0.37805 0.22864 0.0
C2242 C 0.88535 0.41074 0.20887 0.0
C2243 C 0.87044 0.4109 0.23473 0.0
C2244 C 0.88035 0.39456 0.25754 0.0
C2245 C 0.90483 0.37845 0.25422 0.0
C2246 C 0.87571 0.42825 0.18416 0.0
C2247 C 0.86511 0.3931 0.28535 0.0
C2248 C 0.8228 0.47418 0.24388 0.0
C2249 C 0.79747 0.46379 0.23298 0.0
C2250 C 0.8464 0.45659 0.24642 0.0
C2251 C 0.84449 0.42817 0.23749 0.0
C2252 C 0.8182 0.41705 0.22884 0.0
C2253 C 0.79498 0.43512 0.2265 0.0
C2254 C 0.87384 0.46882 0.25682 0.0
C2255 C 0.81509 0.38658 0.22028 0.0
H2256 H 0.92088 0.39374 0.18624 0.0
H2257 H 0.91205 0.36556 0.27158 0.0
H2258 H 0.85419 0.42174 0.17774 0.0
H2259 H 0.87469 0.4508 0.19031 0.0
H2260 H 0.88993 0.42621 0.16573 0.0
H2261 H 0.88053 0.39338 0.3029 0.0
H2262 H 0.84997 0.41054 0.28856 0.0
H2263 H 0.85344 0.37283 0.28655 0.0
H2264 H 0.82484 0.49645 0.2484 0.0
H2265 H 0.77539 0.42725 0.21776 0.0
H2266 H 0.88945 0.46899 0.23945 0.0
H2267 H 0.88252 0.45548 0.27392 0.0
H2268 H 0.87137 0.49069 0.26481 0.0
H2269 H 0.82717 0.38271 0.20068 0.0
H2270 H 0.79275 0.38065 0.21653 0.0
H2271 H 0.82391 0.37266 0.23683 0.0
C2272 C 0.24226 0.19159 0.95492 0.0
C2273 C 0.26892 0.19813 0.96581 0.0
C2274 C 0.23916 0.17114 0.93372 0.0
C2275 C 0.2633 0.15709 0.92329 0.0
C2276 C 0.29027 0.16423 0.93369 0.0
C2277 C 0.29267 0.18435 0.95502 0.0
C2278 C 0.21005 0.16387 0.92319 0.0
C2279 C 0.31659 0.15001 0.92292 0.0
C2280 C 0.25862 0.08323 0.89344 0.0
C2281 C 0.26117 0.08828 0.86451 0.0
C2282 C 0.2583 0.10557 0.91273 0.0
C2283 C 0.26058 0.13362 0.90283 0.0
C2284 C 0.26267 0.13892 0.87362 0.0
C2285 C 0.26295 0.11616 0.85478 0.0
C2286 C 0.25623 0.0991 0.94377 0.0
C2287 C 0.26514 0.16858 0.86235 0.0
H2288 H 0.2238 0.202 0.96336 0.0
H2289 H 0.31331 0.18879 0.9637 0.0
H2290 H 0.2095 0.16415 0.89986 0.0
H2291 H 0.20443 0.1422 0.92999 0.0
H2292 H 0.19383 0.17863 0.93127 0.0
H2293 H 0.33607 0.15898 0.93234 0.0
H2294 H 0.31579 0.12715 0.92779 0.0
H2295 H 0.31795 0.15214 0.89973 0.0
H2296 H 0.25707 0.06177 0.9011 0.0
H2297 H 0.26465 0.12026 0.83242 0.0
H2298 H 0.23865 0.1111 0.95333 0.0
H2299 H 0.27589 0.10579 0.95452 0.0
H2300 H 0.25285 0.07629 0.94789 0.0
H2301 H 0.2472 0.18149 0.86983 0.0
H2302 H 0.26556 0.16917 0.839 0.0
H2303 H 0.28469 0.17859 0.87041 0.0
C2304 C 0.7362 0.32213 0.02464 0.0
C2305 C 0.75213 0.30006 0.03595 0.0
C2306 C 0.72974 0.34589 0.04105 0.0
C2307 C 0.73958 0.34732 0.06915 0.0
C2308 C 0.7538 0.3241 0.08115 0.0
C2309 C 0.75977 0.30072 0.06442 0.0
C2310 C 0.71405 0.37012 0.02781 0.0
C2311 C 0.76458 0.32471 0.11108 0.0
C2312 C 0.76112 0.41593 0.10323 0.0
C2313 C 0.7406 0.41832 0.12409 0.0
C2314 C 0.76025 0.39351 0.08407 0.0
C2315 C 0.73776 0.37383 0.08544 0.0
C2316 C 0.71587 0.37755 0.10524 0.0
C2317 C 0.71787 0.39952 0.12478 0.0
C2318 C 0.7844 0.38976 0.06377 0.0
C2319 C 0.69115 0.35755 0.10674 0.0
H2320 H 0.73027 0.32163 0.00261 0.0
H2321 H 0.77172 0.28342 0.07332 0.0
H2322 H 0.69796 0.37853 0.04247 0.0
H2323 H 0.72904 0.38746 0.02314 0.0
H2324 H 0.70358 0.36382 0.00787 0.0
H2325 H 0.77384 0.30424 0.11761 0.0
H2326 H 0.78098 0.34129 0.11321 0.0
H2327 H 0.74732 0.33003 0.12583 0.0
H2328 H 0.77866 0.43061 0.10296 0.0
H2329 H 0.70182 0.40184 0.14086 0.0
H2330 H 0.77638 0.38678 0.04206 0.0
H2331 H 0.79643 0.37055 0.06946 0.0
H2332 H 0.79908 0.40804 0.06395 0.0
H2333 H 0.68277 0.35323 0.08538 0.0
H2334 H 0.6739 0.36602 0.12003 0.0
H2335 H 0.69806 0.33716 0.11579 0.0
C2336 C 0.70214 0.67929 0.54219 0.0
C2337 C 0.72295 0.69556 0.52882 0.0
C2338 C 0.70912 0.65803 0.56113 0.0
C2339 C 0.73777 0.65239 0.56666 0.0
C2340 C 0.75907 0.6684 0.55314 0.0
C2341 C 0.75138 0.69006 0.5344 0.0
C2342 C 0.68568 0.64178 0.57538 0.0
C2343 C 0.78983 0.66251 0.55838 0.0
C2344 C 0.7469 0.61475 0.63594 0.0
C2345 C 0.74692 0.58647 0.62738 0.0
C2346 C 0.74587 0.63661 0.61619 0.0
C2347 C 0.74482 0.63 0.5872 0.0
C2348 C 0.74611 0.60154 0.57835 0.0
C2349 C 0.74715 0.58006 0.59859 0.0
C2350 C 0.74427 0.66671 0.62641 0.0
C2351 C 0.74481 0.5937 0.5476 0.0
H2352 H 0.68005 0.68324 0.53804 0.0
H2353 H 0.76752 0.70238 0.52394 0.0
H2354 H 0.68757 0.61899 0.57056 0.0
H2355 H 0.68731 0.64418 0.59854 0.0
H2356 H 0.66445 0.64897 0.56871 0.0
H2357 H 0.8038 0.67736 0.54688 0.0
H2358 H 0.79453 0.66397 0.5812 0.0
H2359 H 0.79486 0.6407 0.55168 0.0
H2360 H 0.74705 0.61989 0.65815 0.0
H2361 H 0.74742 0.55825 0.59183 0.0
H2362 H 0.72305 0.67535 0.62188 0.0
H2363 H 0.75979 0.68005 0.61513 0.0
H2364 H 0.74822 0.66847 0.64938 0.0
H2365 H 0.72332 0.59777 0.53941 0.0
H2366 H 0.74986 0.57113 0.54403 0.0
H2367 H 0.75964 0.60685 0.5352 0.0
C2368 C 0.2491 0.79905 0.45005 0.0
C2369 C 0.22559 0.79924 0.46777 0.0
C2370 C 0.25216 0.81959 0.42894 0.0
C2371 C 0.23168 0.84112 0.42635 0.0
C2372 C 0.20795 0.8413 0.44426 0.0
C2373 C 0.20502 0.82015 0.46447 0.0
C2374 C 0.27731 0.81843 0.4096 0.0
C2375 C 0.18586 0.86412 0.44243 0.0
C2376 C 0.25026 0.91157 0.39373 0.0
C2377 C 0.23824 0.90888 0.367 0.0
C2378 C 0.24914 0.88921 0.41296 0.0
C2379 C 0.23509 0.86396 0.40537 0.0
C2380 C 0.22269 0.86129 0.37843 0.0
C2381 C 0.22478 0.88372 0.35938 0.0
C2382 C 0.26273 0.89268 0.44148 0.0
C2383 C 0.20703 0.83491 0.36982 0.0
H2384 H 0.26487 0.78275 0.45253 0.0
H2385 H 0.18689 0.8205 0.47832 0.0
H2386 H 0.27028 0.81849 0.38734 0.0
H2387 H 0.29061 0.83744 0.41273 0.0
H2388 H 0.29041 0.79941 0.41327 0.0
H2389 H 0.1687 0.86116 0.45804 0.0
H2390 H 0.19571 0.88504 0.44606 0.0
H2391 H 0.17645 0.86447 0.42108 0.0
H2392 H 0.26105 0.93094 0.39936 0.0
H2393 H 0.21549 0.88175 0.33862 0.0
H2394 H 0.27814 0.87552 0.44512 0.0
H2395 H 0.2465 0.89107 0.45819 0.0
H2396 H 0.27376 0.91324 0.44366 0.0
H2397 H 0.2215 0.8166 0.37034 0.0
H2398 H 0.19786 0.83662 0.34838 0.0
H2399 H 0.18976 0.83046 0.3849 0.0
C2400 C 0.04229 0.70266 0.8067 0.0
C2401 C 0.03093 0.72727 0.7949 0.0
C2402 C 0.06296 0.70393 0.82765 0.0
C2403 C 0.07248 0.7305 0.83723 0.0
C2404 C 0.06198 0.75546 0.82468 0.0
C2405 C 0.04122 0.75355 0.80366 0.0
C2406 C 0.07365 0.6768 0.84037 0.0
C2407 C 0.07209 0.78415 0.83403 0.0
C2408 C 0.09979 0.7341 0.9122 0.0
C2409 C 0.12901 0.73377 0.90809 0.0
C2410 C 0.08119 0.73326 0.88927 0.0
C2411 C 0.09208 0.73208 0.86156 0.0
C2412 C 0.12154 0.73153 0.85725 0.0
C2413 C 0.13966 0.73232 0.88057 0.0
C2414 C 0.04986 0.73364 0.89469 0.0
C2415 C 0.13391 0.73002 0.82802 0.0
H2416 H 0.03433 0.68222 0.80028 0.0
H2417 H 0.0326 0.77262 0.79457 0.0
H2418 H 0.097 0.6765 0.84047 0.0
H2419 H 0.06657 0.67527 0.86255 0.0
H2420 H 0.06598 0.65792 0.82882 0.0
H2421 H 0.06295 0.80141 0.82117 0.0
H2422 H 0.0663 0.78764 0.85636 0.0
H2423 H 0.09539 0.78534 0.83265 0.0
H2424 H 0.0914 0.73528 0.93337 0.0
H2425 H 0.16222 0.73201 0.87718 0.0
H2426 H 0.04002 0.71427 0.88601 0.0
H2427 H 0.04013 0.75188 0.88382 0.0
H2428 H 0.04481 0.73498 0.91747 0.0
H2429 H 0.12785 0.70981 0.81793 0.0
H2430 H 0.15726 0.73158 0.82818 0.0
H2431 H 0.12537 0.74723 0.81475 0.0
C2432 C 0.46001 0.29756 0.30383 0.0
C2433 C 0.47016 0.27498 0.28771 0.0
C2434 C 0.43993 0.29332 0.32495 0.0
C2435 C 0.42944 0.26585 0.32988 0.0
C2436 C 0.43862 0.24313 0.31289 0.0
C2437 C 0.45913 0.24792 0.29212 0.0
C2438 C 0.43086 0.31809 0.34273 0.0
C2439 C 0.42722 0.21371 0.31709 0.0
C2440 C 0.40321 0.25071 0.40369 0.0
C2441 C 0.37404 0.2535 0.40043 0.0
C2442 C 0.42141 0.2542 0.38074 0.0
C2443 C 0.41016 0.26077 0.35394 0.0
C2444 C 0.38071 0.26359 0.35048 0.0
C2445 C 0.36298 0.25985 0.37379 0.0
C2446 C 0.45274 0.25115 0.38524 0.0
C2447 C 0.36798 0.27092 0.32229 0.0
H2448 H 0.46846 0.31856 0.30062 0.0
H2449 H 0.46674 0.23047 0.27953 0.0
H2450 H 0.40757 0.31955 0.34336 0.0
H2451 H 0.43824 0.31504 0.36467 0.0
H2452 H 0.43943 0.33839 0.3348 0.0
H2453 H 0.43539 0.19866 0.30118 0.0
H2454 H 0.43303 0.20596 0.33833 0.0
H2455 H 0.40389 0.21388 0.31592 0.0
H2456 H 0.41185 0.2457 0.4242 0.0
H2457 H 0.34043 0.26221 0.37115 0.0
H2458 H 0.46353 0.27122 0.37992 0.0
H2459 H 0.46124 0.23467 0.37106 0.0
H2460 H 0.45805 0.24547 0.40728 0.0
H2461 H 0.37531 0.29208 0.31555 0.0
H2462 H 0.34459 0.27097 0.32284 0.0
H2463 H 0.37503 0.25566 0.30609 0.0
C2464 C 0.63427 0.74747 0.10779 0.0
C2465 C 0.62498 0.75587 0.08108 0.0
C2466 C 0.61581 0.74706 0.13077 0.0
C2467 C 0.58758 0.75569 0.12691 0.0
C2468 C 0.57792 0.76338 0.09979 0.0
C2469 C 0.59674 0.76319 0.07712 0.0
C2470 C 0.6268 0.73848 0.15931 0.0
C2471 C 0.54804 0.77307 0.09493 0.0
C2472 C 0.53066 0.74496 0.18208 0.0
C2473 C 0.52877 0.77223 0.19316 0.0
C2474 C 0.55044 0.73877 0.16095 0.0
C2475 C 0.56904 0.7602 0.15155 0.0
C2476 C 0.56829 0.78719 0.16408 0.0
C2477 C 0.5478 0.793 0.18426 0.0
C2478 C 0.55053 0.70985 0.14773 0.0
C2479 C 0.58827 0.81043 0.15528 0.0
H2480 H 0.65603 0.74127 0.11079 0.0
H2481 H 0.58953 0.76958 0.05644 0.0
H2482 H 0.62708 0.75705 0.1735 0.0
H2483 H 0.61271 0.72251 0.16896 0.0
H2484 H 0.64844 0.72969 0.15819 0.0
H2485 H 0.54317 0.77574 0.07223 0.0
H2486 H 0.53292 0.75777 0.10408 0.0
H2487 H 0.54468 0.79358 0.10564 0.0
H2488 H 0.51582 0.72895 0.18889 0.0
H2489 H 0.54637 0.81414 0.19274 0.0
H2490 H 0.57218 0.70113 0.14747 0.0
H2491 H 0.54344 0.71142 0.12554 0.0
H2492 H 0.53646 0.69489 0.15897 0.0
H2493 H 0.61033 0.80282 0.15576 0.0
H2494 H 0.58666 0.82927 0.16906 0.0
H2495 H 0.58356 0.81691 0.13335 0.0
C2496 C 0.86244 0.22382 0.61079 0.0
C2497 C 0.87177 0.23429 0.58484 0.0
C2498 C 0.88107 0.22071 0.63341 0.0
C2499 C 0.90963 0.22848 0.63 0.0
C2500 C 0.9192 0.23906 0.60384 0.0
C2501 C 0.90014 0.24173 0.58148 0.0
C2502 C 0.87018 0.20913 0.66095 0.0
C2503 C 0.94959 0.24744 0.59946 0.0
C2504 C 0.95385 0.24298 0.69494 0.0
C2505 C 0.9679 0.21726 0.69823 0.0
C2506 C 0.93453 0.24689 0.67294 0.0
C2507 C 0.92967 0.22471 0.65359 0.0
C2508 C 0.94385 0.19874 0.6568 0.0
C2509 C 0.96257 0.19523 0.67926 0.0
C2510 C 0.91936 0.2747 0.67034 0.0
C2511 C 0.93941 0.17471 0.6364 0.0
H2512 H 0.84053 0.21789 0.61342 0.0
H2513 H 0.90737 0.24997 0.56147 0.0
H2514 H 0.88195 0.18981 0.66676 0.0
H2515 H 0.87364 0.22475 0.67798 0.0
H2516 H 0.84738 0.20389 0.66004 0.0
H2517 H 0.95347 0.25593 0.57803 0.0
H2518 H 0.95582 0.26365 0.6151 0.0
H2519 H 0.96341 0.22891 0.60278 0.0
H2520 H 0.95787 0.25998 0.70965 0.0
H2521 H 0.97352 0.17534 0.68156 0.0
H2522 H 0.89626 0.27121 0.67103 0.0
H2523 H 0.92426 0.28457 0.64976 0.0
H2524 H 0.92523 0.28967 0.68734 0.0
H2525 H 0.91707 0.16783 0.63687 0.0
H2526 H 0.95292 0.15627 0.64128 0.0
H2527 H 0.94403 0.18179 0.61464 0.0
C2528 C 0.79951 0.04678 0.75058 0.0
C2529 C 0.80336 0.02447 0.73172 0.0
C2530 C 0.82172 0.06565 0.75631 0.0
C2531 C 0.84807 0.06189 0.74279 0.0
C2532 C 0.85244 0.03821 0.72531 0.0
C2533 C 0.83008 0.01977 0.72012 0.0
C2534 C 0.81653 0.09045 0.77547 0.0
C2535 C 0.88019 0.03332 0.71054 0.0
C2536 C 0.89371 0.12504 0.72496 0.0
C2537 C 0.91584 0.12205 0.74419 0.0
C2538 C 0.87113 0.10593 0.72474 0.0
C2539 C 0.87044 0.08373 0.74467 0.0
C2540 C 0.89244 0.08104 0.76457 0.0
C2541 C 0.91507 0.10007 0.76388 0.0
C2542 C 0.84842 0.10908 0.7027 0.0
C2543 C 0.8921 0.05799 0.78646 0.0
H2544 H 0.77883 0.05044 0.75951 0.0
H2545 H 0.83318 0.00221 0.70584 0.0
H2546 H 0.83419 0.09304 0.79054 0.0
H2547 H 0.81533 0.11001 0.76276 0.0
H2548 H 0.79657 0.08815 0.78745 0.0
H2549 H 0.88059 0.01296 0.69899 0.0
H2550 H 0.88411 0.0506 0.6953 0.0
H2551 H 0.89777 0.03351 0.7259 0.0
H2552 H 0.89427 0.14207 0.70976 0.0
H2553 H 0.93195 0.09806 0.77912 0.0
H2554 H 0.82748 0.11068 0.71288 0.0
H2555 H 0.84801 0.09014 0.68901 0.0
H2556 H 0.85168 0.12797 0.68925 0.0
H2557 H 0.87251 0.05933 0.79908 0.0
H2558 H 0.91047 0.05926 0.80089 0.0
H2559 H 0.89216 0.03704 0.7761 0.0
C2560 C 0.67388 0.97014 0.25443 0.0
C2561 C 0.69274 0.96266 0.23313 0.0
C2562 C 0.65028 0.95309 0.26014 0.0
C2563 C 0.64607 0.92802 0.24442 0.0
C2564 C 0.66603 0.91983 0.22396 0.0
C2565 C 0.68892 0.93743 0.21843 0.0
C2566 C 0.62924 0.96244 0.28197 0.0
C2567 C 0.6625 0.89323 0.20677 0.0
C2568 C 0.59849 0.86772 0.265 0.0
C2569 C 0.57551 0.87206 0.24706 0.0
C2570 C 0.62074 0.88709 0.26603 0.0
C2571 C 0.62028 0.91078 0.248 0.0
C2572 C 0.59661 0.91568 0.23047 0.0
C2573 C 0.57419 0.89638 0.23056 0.0
C2574 C 0.64537 0.88137 0.28528 0.0
C2575 C 0.59572 0.94033 0.21041 0.0
H2576 H 0.67665 0.99002 0.26536 0.0
H2577 H 0.70332 0.93196 0.20172 0.0
H2578 H 0.6085 0.96616 0.27188 0.0
H2579 H 0.62621 0.9456 0.29787 0.0
H2580 H 0.63593 0.98208 0.29283 0.0
H2581 H 0.6809 0.88913 0.19294 0.0
H2582 H 0.65949 0.87478 0.22078 0.0
H2583 H 0.64344 0.89496 0.19337 0.0
H2584 H 0.59918 0.84898 0.27804 0.0
H2585 H 0.55634 0.89952 0.21669 0.0
H2586 H 0.65116 0.90068 0.29713 0.0
H2587 H 0.66395 0.87519 0.27257 0.0
H2588 H 0.64079 0.86421 0.30052 0.0
H2589 H 0.60044 0.96025 0.2217 0.0
H2590 H 0.57494 0.94235 0.19985 0.0
H2591 H 0.61211 0.93764 0.194 0.0
C2592 C 0.41284 0.39351 0.24764 0.0
C2593 C 0.40891 0.36434 0.25005 0.0
C2594 C 0.3899 0.41192 0.24853 0.0
C2595 C 0.36244 0.40084 0.252 0.0
C2596 C 0.35826 0.3714 0.25409 0.0
C2597 C 0.38161 0.35345 0.25317 0.0
C2598 C 0.39516 0.44328 0.24658 0.0
C2599 C 0.32921 0.35895 0.2579 0.0
C2600 C 0.31292 0.44993 0.28923 0.0
C2601 C 0.2976 0.4616 0.26684 0.0
C2602 C 0.33329 0.42937 0.28466 0.0
C2603 C 0.33869 0.4203 0.25691 0.0
C2604 C 0.32268 0.43114 0.2342 0.0
C2605 C 0.30211 0.45176 0.23946 0.0
C2606 C 0.34974 0.41817 0.3095 0.0
C2607 C 0.32805 0.42182 0.20434 0.0
H2608 H 0.43388 0.40204 0.24506 0.0
H2609 H 0.37842 0.33088 0.25484 0.0
H2610 H 0.38159 0.45273 0.23011 0.0
H2611 H 0.38962 0.45345 0.26685 0.0
H2612 H 0.41749 0.44831 0.24169 0.0
H2613 H 0.32939 0.33554 0.25742 0.0
H2614 H 0.3203 0.36587 0.27832 0.0
H2615 H 0.31491 0.36668 0.24114 0.0
H2616 H 0.30931 0.45718 0.31055 0.0
H2617 H 0.29031 0.46078 0.22215 0.0
H2618 H 0.37221 0.42429 0.30748 0.0
H2619 H 0.34882 0.39482 0.30997 0.0
H2620 H 0.34171 0.4263 0.32989 0.0
H2621 H 0.34853 0.43049 0.19712 0.0
H2622 H 0.31134 0.42913 0.18972 0.0
H2623 H 0.32947 0.39851 0.20311 0.0
C2624 C 0.18902 0.5409 0.74471 0.0
C2625 C 0.19246 0.53046 0.77205 0.0
C2626 C 0.16733 0.56008 0.73859 0.0
C2627 C 0.14907 0.56896 0.76042 0.0
C2628 C 0.152 0.5578 0.78777 0.0
C2629 C 0.17352 0.53865 0.79319 0.0
C2630 C 0.16438 0.57141 0.70909 0.0
C2631 C 0.13295 0.56674 0.81164 0.0
C2632 C 0.11407 0.6403 0.75992 0.0
C2633 C 0.08608 0.63306 0.75398 0.0
C2634 C 0.13508 0.61969 0.76081 0.0
C2635 C 0.12786 0.59121 0.75558 0.0
C2636 C 0.09974 0.58379 0.74911 0.0
C2637 C 0.07911 0.60484 0.74848 0.0
C2638 C 0.16482 0.62825 0.76829 0.0
C2639 C 0.09136 0.55359 0.74345 0.0
H2640 H 0.20346 0.53448 0.72828 0.0
H2641 H 0.1758 0.53057 0.81439 0.0
H2642 H 0.14235 0.569 0.70167 0.0
H2643 H 0.16935 0.59427 0.70893 0.0
H2644 H 0.17861 0.56058 0.69404 0.0
H2645 H 0.13771 0.55546 0.83156 0.0
H2646 H 0.13524 0.58971 0.81543 0.0
H2647 H 0.11062 0.56273 0.80606 0.0
H2648 H 0.11957 0.66209 0.76411 0.0
H2649 H 0.05754 0.59918 0.74354 0.0
H2650 H 0.17978 0.62025 0.75227 0.0
H2651 H 0.17082 0.61874 0.78875 0.0
H2652 H 0.1673 0.65149 0.76989 0.0
H2653 H 0.10445 0.54477 0.72627 0.0
H2654 H 0.06882 0.55153 0.73752 0.0
H2655 H 0.09523 0.54056 0.76243 0.0
C2656 C 0.71888 0.83413 0.01954 0.0
C2657 C 0.72389 0.80606 0.027 0.0
C2658 C 0.72504 0.85612 0.03819 0.0
C2659 C 0.73586 0.84972 0.06517 0.0
C2660 C 0.74214 0.82142 0.07234 0.0
C2661 C 0.7363 0.79982 0.05295 0.0
C2662 C 0.71853 0.88604 0.02957 0.0
C2663 C 0.75342 0.81381 0.10103 0.0
C2664 C 0.7642 0.91088 0.10827 0.0
C2665 C 0.7413 0.91651 0.12582 0.0
C2666 C 0.7631 0.88862 0.08887 0.0
C2667 C 0.73814 0.8724 0.08655 0.0
C2668 C 0.71476 0.87849 0.10405 0.0
C2669 C 0.71683 0.90027 0.12386 0.0
C2670 C 0.78866 0.88227 0.07113 0.0
C2671 C 0.68755 0.86209 0.10179 0.0
H2672 H 0.70933 0.83879 -0.00067 0.0
H2673 H 0.73978 0.778 0.05874 0.0
H2674 H 0.70128 0.89445 0.04287 0.0
H2675 H 0.7372 0.89973 0.03291 0.0
H2676 H 0.71205 0.88757 0.00717 0.0
H2677 H 0.75986 0.79135 0.1023 0.0
H2678 H 0.77176 0.8273 0.10644 0.0
H2679 H 0.73697 0.81767 0.11713 0.0
H2680 H 0.78314 0.92349 0.11014 0.0
H2681 H 0.6993 0.90471 0.13779 0.0
H2682 H 0.78332 0.88416 0.04849 0.0
H2683 H 0.79554 0.86024 0.07479 0.0
H2684 H 0.80656 0.89662 0.07587 0.0
H2685 H 0.67877 0.86423 0.08026 0.0
H2686 H 0.67148 0.8694 0.11711 0.0
H2687 H 0.69151 0.83934 0.10543 0.0
C2688 C 0.24942 0.5809 0.89455 0.0
C2689 C 0.24616 0.58484 0.86553 0.0
C2690 C 0.24971 0.60399 0.91299 0.0
C2691 C 0.24668 0.6316 0.90208 0.0
C2692 C 0.24497 0.63577 0.87268 0.0
C2693 C 0.24463 0.61233 0.85476 0.0
C2694 C 0.25148 0.59869 0.94424 0.0
C2695 C 0.24185 0.66489 0.86026 0.0
C2696 C 0.20446 0.68038 0.94796 0.0
C2697 C 0.22528 0.69719 0.96066 0.0
C2698 C 0.21129 0.65955 0.92852 0.0
C2699 C 0.2398 0.65514 0.92141 0.0
C2700 C 0.26104 0.67253 0.93331 0.0
C2701 C 0.25351 0.6935 0.95293 0.0
C2702 C 0.18785 0.6418 0.91611 0.0
C2703 C 0.29165 0.66843 0.92595 0.0
H2704 H 0.25105 0.55974 0.90298 0.0
H2705 H 0.24265 0.61561 0.83228 0.0
H2706 H 0.26704 0.61311 0.9541 0.0
H2707 H 0.23071 0.603 0.95402 0.0
H2708 H 0.25747 0.5766 0.94911 0.0
H2709 H 0.24429 0.66485 0.83702 0.0
H2710 H 0.22072 0.67336 0.86543 0.0
H2711 H 0.25767 0.67947 0.86945 0.0
H2712 H 0.1825 0.68322 0.95346 0.0
H2713 H 0.26965 0.70641 0.96268 0.0
H2714 H 0.19087 0.61937 0.92196 0.0
H2715 H 0.18828 0.64308 0.89282 0.0
H2716 H 0.16669 0.64851 0.92343 0.0
H2717 H 0.29927 0.64848 0.93542 0.0
H2718 H 0.30503 0.68599 0.93379 0.0
H2719 H 0.29437 0.66661 0.90284 0.0
C2720 C 0.25205 0.32143 0.4665 0.0
C2721 C 0.27542 0.30495 0.45941 0.0
C2722 C 0.2444 0.34455 0.4496 0.0
C2723 C 0.26043 0.3508 0.42522 0.0
C2724 C 0.28329 0.33346 0.41755 0.0
C2725 C 0.2904 0.31086 0.43469 0.0
C2726 C 0.21972 0.36262 0.45806 0.0
C2727 C 0.30099 0.33924 0.3917 0.0
C2728 C 0.23854 0.39378 0.3626 0.0
C2729 C 0.25441 0.41836 0.36672 0.0
C2730 C 0.23804 0.37253 0.38298 0.0
C2731 C 0.25438 0.37576 0.40764 0.0
C2732 C 0.26936 0.40117 0.41249 0.0
C2733 C 0.26894 0.4224 0.39199 0.0
C2734 C 0.22159 0.34586 0.37721 0.0
C2735 C 0.28745 0.4051 0.43833 0.0
H2736 H 0.24047 0.31691 0.48563 0.0
H2737 H 0.30836 0.2981 0.42891 0.0
H2738 H 0.22662 0.38481 0.46078 0.0
H2739 H 0.20362 0.36241 0.44115 0.0
H2740 H 0.20982 0.3553 0.47793 0.0
H2741 H 0.31747 0.32299 0.38834 0.0
H2742 H 0.28749 0.34002 0.37268 0.0
H2743 H 0.3115 0.36006 0.39376 0.0
H2744 H 0.2267 0.39101 0.34328 0.0
H2745 H 0.28099 0.44157 0.39517 0.0
H2746 H 0.20971 0.33923 0.39618 0.0
H2747 H 0.23638 0.3286 0.37185 0.0
H2748 H 0.20657 0.34848 0.35948 0.0
H2749 H 0.27559 0.39919 0.45754 0.0
H2750 H 0.29503 0.42716 0.44057 0.0
H2751 H 0.30605 0.39104 0.43701 0.0
C2752 C 0.74687 0.1805 0.53466 0.0
C2753 C 0.77469 0.19032 0.53332 0.0
C2754 C 0.73965 0.15812 0.55274 0.0
C2755 C 0.7606 0.14617 0.57029 0.0
C2756 C 0.78844 0.15673 0.56957 0.0
C2757 C 0.7952 0.17822 0.55074 0.0
C2758 C 0.70987 0.14697 0.55276 0.0
C2759 C 0.81132 0.14509 0.5884 0.0
C2760 C 0.74649 0.10543 0.63695 0.0
C2761 C 0.75323 0.07792 0.62859 0.0
C2762 C 0.74673 0.12769 0.61762 0.0
C2763 C 0.75414 0.12229 0.58933 0.0
C2764 C 0.75965 0.09434 0.58047 0.0
C2765 C 0.75905 0.07242 0.60024 0.0
C2766 C 0.74067 0.15719 0.62786 0.0
C2767 C 0.76765 0.08782 0.55044 0.0
H2768 H 0.73106 0.18965 0.521 0.0
H2769 H 0.8168 0.18553 0.54968 0.0
H2770 H 0.70986 0.12406 0.54805 0.0
H2771 H 0.70043 0.14961 0.57393 0.0
H2772 H 0.69634 0.15785 0.53711 0.0
H2773 H 0.83145 0.1569 0.58634 0.0
H2774 H 0.80458 0.14593 0.61073 0.0
H2775 H 0.81525 0.12267 0.58312 0.0
H2776 H 0.74139 0.10972 0.65876 0.0
H2777 H 0.76395 0.05112 0.59363 0.0
H2778 H 0.72563 0.16789 0.61358 0.0
H2779 H 0.76044 0.16971 0.62782 0.0
H2780 H 0.73185 0.15735 0.6495 0.0
H2781 H 0.75258 0.09781 0.53566 0.0
H2782 H 0.76817 0.06479 0.54624 0.0
H2783 H 0.7888 0.09669 0.5459 0.0
loop_
_geom_bond_atom_site_label_1
_geom_bond_atom_site_label_2
_geom_bond_distance
_geom_bond_site_symmetry_2
_ccdc_geom_bond_type
Zn0 O6 1.969 . S
Zn0 O7 1.965 . S
Zn0 O11 2.024 . S
Zn0 O16 1.969 . S
Zn1 O8 1.969 1_655 S
Zn1 O14 1.969 . S
Zn1 O15 1.965 . S
Zn1 O17 2.024 . S
C2 O3 1.229 . S
C2 O11 1.058 . S
O3 C2 1.229 . S
C4 O5 1.229 . S
C4 O17 1.058 . S
O5 C4 1.229 . S
O6 Zn0 1.969 . S
O6 C9 1.267 . S
O7 Zn0 1.965 . S
O7 C18 1.260 . S
O8 Zn1 1.969 1_455 S
O8 C18 1.258 . S
C9 O6 1.267 . S
C9 O10 1.228 . S
O10 C9 1.228 . S
O11 Zn0 2.024 . S
O11 C2 1.058 . S
C12 O13 1.228 . S
C12 O14 1.267 . S
O13 C12 1.228 . S
O14 Zn1 1.969 . S
O14 C12 1.267 . S
O15 Zn1 1.965 . S
O15 C19 1.260 . S
O16 Zn0 1.969 . S
O16 C19 1.258 1_455 S
O17 Zn1 2.024 . S
O17 C4 1.058 . S
C18 O7 1.260 . S
C18 O8 1.258 . S
C19 O15 1.260 . S
C19 O16 1.258 1_655 S
Zn20 O26 1.969 . S
Zn20 O27 1.965 . S
Zn20 O31 2.024 . S
Zn20 O36 1.969 . S
Zn21 O28 1.969 . S
Zn21 O34 1.969 . S
Zn21 O35 1.965 . S
Zn21 O37 2.024 . S
C22 O23 1.229 . S
C22 O31 1.058 . S
O23 C22 1.229 . S
C24 O25 1.229 . S
C24 O37 1.058 . S
O25 C24 1.229 . S
O26 Zn20 1.969 . S
O26 C29 1.267 . S
O27 Zn20 1.965 . S
O27 C38 1.260 . S
O28 Zn21 1.969 . S
O28 C38 1.258 . S
C29 O26 1.267 . S
C29 O30 1.228 . S
O30 C29 1.228 . S
O31 Zn20 2.024 . S
O31 C22 1.058 . S
C32 O33 1.228 . S
C32 O34 1.267 . S
O33 C32 1.228 . S
O34 Zn21 1.969 . S
O34 C32 1.267 . S
O35 Zn21 1.965 . S
O35 C39 1.260 . S
O36 Zn20 1.969 . S
O36 C39 1.258 . S
O37 Zn21 2.024 . S
O37 C24 1.058 . S
C38 O27 1.260 . S
C38 O28 1.258 . S
C39 O35 1.260 . S
C39 O36 1.258 . S
Zn40 O46 1.969 . S
Zn40 O47 1.965 . S
Zn40 O51 2.024 . S
Zn40 O56 1.969 . S
Zn41 O48 1.969 . S
Zn41 O54 1.969 . S
Zn41 O55 1.965 . S
Zn41 O57 2.024 . S
C42 O43 1.229 . S
C42 O51 1.058 . S
O43 C42 1.229 . S
C44 O45 1.229 . S
C44 O57 1.058 . S
O45 C44 1.229 . S
O46 Zn40 1.969 . S
O46 C49 1.267 . S
O47 Zn40 1.965 . S
O47 C58 1.260 . S
O48 Zn41 1.969 . S
O48 C58 1.258 . S
C49 O46 1.267 . S
C49 O50 1.228 . S
O50 C49 1.228 . S
O51 Zn40 2.024 . S
O51 C42 1.058 . S
C52 O53 1.228 . S
C52 O54 1.267 . S
O53 C52 1.228 . S
O54 Zn41 1.969 . S
O54 C52 1.267 . S
O55 Zn41 1.965 . S
O55 C59 1.260 . S
O56 Zn40 1.969 . S
O56 C59 1.258 . S
O57 Zn41 2.024 . S
O57 C44 1.058 . S
C58 O47 1.260 . S
C58 O48 1.258 . S
C59 O55 1.260 . S
C59 O56 1.258 . S
Zn60 O66 1.969 . S
Zn60 O67 1.965 . S
Zn60 O71 2.024 . S
Zn60 O76 1.969 . S
Zn61 O68 1.969 1_455 S
Zn61 O74 1.969 . S
Zn61 O75 1.965 . S
Zn61 O77 2.024 . S
C62 O63 1.229 . S
C62 O71 1.058 . S
O63 C62 1.229 . S
C64 O65 1.229 . S
C64 O77 1.058 . S
O65 C64 1.229 . S
O66 Zn60 1.969 . S
O66 C69 1.267 . S
O67 Zn60 1.965 . S
O67 C78 1.260 . S
O68 Zn61 1.969 1_655 S
O68 C78 1.258 . S
C69 O66 1.267 . S
C69 O70 1.228 . S
O70 C69 1.228 . S
O71 Zn60 2.024 . S
O71 C62 1.058 . S
C72 O73 1.228 . S
C72 O74 1.267 . S
O73 C72 1.228 . S
O74 Zn61 1.969 . S
O74 C72 1.267 . S
O75 Zn61 1.965 . S
O75 C79 1.260 . S
O76 Zn60 1.969 . S
O76 C79 1.258 1_655 S
O77 Zn61 2.024 . S
O77 C64 1.058 . S
C78 O67 1.260 . S
C78 O68 1.258 . S
C79 O75 1.260 . S
C79 O76 1.258 1_455 S
Zn80 O86 1.969 . S
Zn80 O87 1.965 . S
Zn80 O91 2.024 . S
Zn80 O96 1.969 . S
Zn81 O88 1.969 1_565 S
Zn81 O94 1.969 . S
Zn81 O95 1.965 . S
Zn81 O97 2.024 . S
C82 O83 1.229 . S
C82 O91 1.058 . S
O83 C82 1.229 . S
C84 O85 1.229 . S
C84 O97 1.058 . S
O85 C84 1.229 . S
O86 Zn80 1.969 . S
O86 C89 1.267 . S
O87 Zn80 1.965 . S
O87 C98 1.260 . S
O88 Zn81 1.969 1_545 S
O88 C98 1.258 . S
C89 O86 1.267 . S
C89 O90 1.228 . S
O90 C89 1.228 . S
O91 Zn80 2.024 . S
O91 C82 1.058 . S
C92 O93 1.228 . S
C92 O94 1.267 . S
O93 C92 1.228 . S
O94 Zn81 1.969 . S
O94 C92 1.267 . S
O95 Zn81 1.965 . S
O95 C99 1.260 . S
O96 Zn80 1.969 . S
O96 C99 1.258 1_545 S
O97 Zn81 2.024 . S
O97 C84 1.058 . S
C98 O87 1.260 . S
C98 O88 1.258 . S
C99 O95 1.260 . S
C99 O96 1.258 1_565 S
Zn100 O106 1.969 . S
Zn100 O107 1.965 . S
Zn100 O111 2.024 . S
Zn100 O116 1.969 . S
Zn101 O108 1.969 1_545 S
Zn101 O114 1.969 . S
Zn101 O115 1.965 . S
Zn101 O117 2.024 . S
C102 O103 1.229 . S
C102 O111 1.058 . S
O103 C102 1.229 . S
C104 O105 1.229 . S
C104 O117 1.058 . S
O105 C104 1.229 . S
O106 Zn100 1.969 . S
O106 C109 1.267 . S
O107 Zn100 1.965 . S
O107 C118 1.260 . S
O108 Zn101 1.969 1_565 S
O108 C118 1.258 . S
C109 O106 1.267 . S
C109 O110 1.228 . S
O110 C109 1.228 . S
O111 Zn100 2.024 . S
O111 C102 1.058 . S
C112 O113 1.228 . S
C112 O114 1.267 . S
O113 C112 1.228 . S
O114 Zn101 1.969 . S
O114 C112 1.267 . S
O115 Zn101 1.965 . S
O115 C119 1.260 . S
O116 Zn100 1.969 . S
O116 C119 1.258 1_565 S
O117 Zn101 2.024 . S
O117 C104 1.058 . S
C118 O107 1.260 . S
C118 O108 1.258 . S
C119 O115 1.260 . S
C119 O116 1.258 1_545 S
Zn120 O126 1.969 . S
Zn120 O127 1.965 . S
Zn120 O131 2.024 . S
Zn120 O136 1.969 . S
Zn121 O128 1.969 . S
Zn121 O134 1.969 . S
Zn121 O135 1.965 . S
Zn121 O137 2.024 . S
C122 O123 1.229 . S
C122 O131 1.058 . S
O123 C122 1.229 . S
C124 O125 1.229 . S
C124 O137 1.058 . S
O125 C124 1.229 . S
O126 Zn120 1.969 . S
O126 C129 1.267 . S
O127 Zn120 1.965 . S
O127 C138 1.260 . S
O128 Zn121 1.969 . S
O128 C138 1.258 . S
C129 O126 1.267 . S
C129 O130 1.228 . S
O130 C129 1.228 . S
O131 Zn120 2.024 . S
O131 C122 1.058 . S
C132 O133 1.228 . S
C132 O134 1.267 . S
O133 C132 1.228 . S
O134 Zn121 1.969 . S
O134 C132 1.267 . S
O135 Zn121 1.965 . S
O135 C139 1.260 . S
O136 Zn120 1.969 . S
O136 C139 1.258 . S
O137 Zn121 2.024 . S
O137 C124 1.058 . S
C138 O127 1.260 . S
C138 O128 1.258 . S
C139 O135 1.260 . S
C139 O136 1.258 . S
Zn140 O146 1.969 . S
Zn140 O147 1.965 . S
Zn140 O151 2.024 . S
Zn140 O156 1.969 . S
Zn141 O148 1.969 . S
Zn141 O154 1.969 . S
Zn141 O155 1.965 . S
Zn141 O157 2.024 . S
C142 O143 1.229 . S
C142 O151 1.058 . S
O143 C142 1.229 . S
C144 O145 1.229 . S
C144 O157 1.058 . S
O145 C144 1.229 . S
O146 Zn140 1.969 . S
O146 C149 1.267 . S
O147 Zn140 1.965 . S
O147 C158 1.260 . S
O148 Zn141 1.969 . S
O148 C158 1.258 . S
C149 O146 1.267 . S
C149 O150 1.228 . S
O150 C149 1.228 . S
O151 Zn140 2.024 . S
O151 C142 1.058 . S
C152 O153 1.228 . S
C152 O154 1.267 . S
O153 C152 1.228 . S
O154 Zn141 1.969 . S
O154 C152 1.267 . S
O155 Zn141 1.965 . S
O155 C159 1.260 . S
O156 Zn140 1.969 . S
O156 C159 1.258 . S
O157 Zn141 2.024 . S
O157 C144 1.058 . S
C158 O147 1.260 . S
C158 O148 1.258 . S
C159 O155 1.260 . S
C159 O156 1.258 . S
Zn160 O166 1.969 . S
Zn160 O167 1.965 . S
Zn160 O171 2.024 . S
Zn160 O176 1.969 . S
Zn161 O168 1.969 1_556 S
Zn161 O174 1.969 . S
Zn161 O175 1.965 . S
Zn161 O177 2.024 . S
C162 O163 1.229 . S
C162 O171 1.058 . S
O163 C162 1.229 . S
C164 O165 1.229 . S
C164 O177 1.058 . S
O165 C164 1.229 . S
O166 Zn160 1.969 . S
O166 C169 1.267 . S
O167 Zn160 1.965 . S
O167 C178 1.260 . S
O168 Zn161 1.969 1_554 S
O168 C178 1.258 . S
C169 O166 1.267 . S
C169 O170 1.228 . S
O170 C169 1.228 . S
O171 Zn160 2.024 . S
O171 C162 1.058 . S
C172 O173 1.228 . S
C172 O174 1.267 . S
O173 C172 1.228 . S
O174 Zn161 1.969 . S
O174 C172 1.267 . S
O175 Zn161 1.965 . S
O175 C179 1.260 . S
O176 Zn160 1.969 . S
O176 C179 1.258 1_554 S
O177 Zn161 2.024 . S
O177 C164 1.058 . S
C178 O167 1.260 . S
C178 O168 1.258 . S
C179 O175 1.260 . S
C179 O176 1.258 1_556 S
Zn180 O186 1.969 . S
Zn180 O187 1.965 . S
Zn180 O191 2.024 . S
Zn180 O196 1.969 . S
Zn181 O188 1.969 1_554 S
Zn181 O194 1.969 . S
Zn181 O195 1.965 . S
Zn181 O197 2.024 . S
C182 O183 1.229 . S
C182 O191 1.058 . S
O183 C182 1.229 . S
C184 O185 1.229 . S
C184 O197 1.058 . S
O185 C184 1.229 . S
O186 Zn180 1.969 . S
O186 C189 1.267 . S
O187 Zn180 1.965 . S
O187 C198 1.260 . S
O188 Zn181 1.969 1_556 S
O188 C198 1.258 . S
C189 O186 1.267 . S
C189 O190 1.228 . S
O190 C189 1.228 . S
O191 Zn180 2.024 . S
O191 C182 1.058 . S
C192 O193 1.228 . S
C192 O194 1.267 . S
O193 C192 1.228 . S
O194 Zn181 1.969 . S
O194 C192 1.267 . S
O195 Zn181 1.965 . S
O195 C199 1.260 . S
O196 Zn180 1.969 . S
O196 C199 1.258 1_556 S
O197 Zn181 2.024 . S
O197 C184 1.058 . S
C198 O187 1.260 . S
C198 O188 1.258 . S
C199 O195 1.260 . S
C199 O196 1.258 1_554 S
Zn200 O206 1.969 . S
Zn200 O207 1.965 . S
Zn200 O211 2.024 . S
Zn200 O216 1.969 . S
Zn201 O208 1.969 . S
Zn201 O214 1.969 . S
Zn201 O215 1.965 . S
Zn201 O217 2.024 . S
C202 O203 1.229 . S
C202 O211 1.058 . S
O203 C202 1.229 . S
C204 O205 1.229 . S
C204 O217 1.058 . S
O205 C204 1.229 . S
O206 Zn200 1.969 . S
O206 C209 1.267 . S
O207 Zn200 1.965 . S
O207 C218 1.260 . S
O208 Zn201 1.969 . S
O208 C218 1.258 . S
C209 O206 1.267 . S
C209 O210 1.228 . S
O210 C209 1.228 . S
O211 Zn200 2.024 . S
O211 C202 1.058 . S
C212 O213 1.228 . S
C212 O214 1.267 . S
O213 C212 1.228 . S
O214 Zn201 1.969 . S
O214 C212 1.267 . S
O215 Zn201 1.965 . S
O215 C219 1.260 . S
O216 Zn200 1.969 . S
O216 C219 1.258 . S
O217 Zn201 2.024 . S
O217 C204 1.058 . S
C218 O207 1.260 . S
C218 O208 1.258 . S
C219 O215 1.260 . S
C219 O216 1.258 . S
Zn220 O226 1.969 . S
Zn220 O227 1.965 . S
Zn220 O231 2.024 . S
Zn220 O236 1.969 . S
Zn221 O228 1.969 . S
Zn221 O234 1.969 . S
Zn221 O235 1.965 . S
Zn221 O237 2.024 . S
C222 O223 1.229 . S
C222 O231 1.058 . S
O223 C222 1.229 . S
C224 O225 1.229 . S
C224 O237 1.058 . S
O225 C224 1.229 . S
O226 Zn220 1.969 . S
O226 C229 1.267 . S
O227 Zn220 1.965 . S
O227 C238 1.260 . S
O228 Zn221 1.969 . S
O228 C238 1.258 . S
C229 O226 1.267 . S
C229 O230 1.228 . S
O230 C229 1.228 . S
O231 Zn220 2.024 . S
O231 C222 1.058 . S
C232 O233 1.228 . S
C232 O234 1.267 . S
O233 C232 1.228 . S
O234 Zn221 1.969 . S
O234 C232 1.267 . S
O235 Zn221 1.965 . S
O235 C239 1.260 . S
O236 Zn220 1.969 . S
O236 C239 1.258 . S
O237 Zn221 2.024 . S
O237 C224 1.058 . S
C238 O227 1.260 . S
C238 O228 1.258 . S
C239 O235 1.260 . S
C239 O236 1.258 . S
Zn240 O246 1.969 . S
Zn240 O247 1.965 . S
Zn240 O251 2.024 . S
Zn240 O256 1.969 1_455 S
Zn241 O248 1.969 . S
Zn241 O254 1.969 . S
Zn241 O255 1.965 . S
Zn241 O257 2.024 . S
C242 O243 1.229 . S
C242 O251 1.058 . S
O243 C242 1.229 . S
C244 O245 1.229 . S
C244 O257 1.058 . S
O245 C244 1.229 . S
O246 Zn240 1.969 . S
O246 C249 1.267 . S
O247 Zn240 1.965 . S
O247 C258 1.260 . S
O248 Zn241 1.969 . S
O248 C258 1.258 1_655 S
C249 O246 1.267 . S
C249 O250 1.228 . S
O250 C249 1.228 . S
O251 Zn240 2.024 . S
O251 C242 1.058 . S
C252 O253 1.228 . S
C252 O254 1.267 . S
O253 C252 1.228 . S
O254 Zn241 1.969 . S
O254 C252 1.267 . S
O255 Zn241 1.965 . S
O255 C259 1.260 . S
O256 Zn240 1.969 1_655 S
O256 C259 1.258 . S
O257 Zn241 2.024 . S
O257 C244 1.058 . S
C258 O247 1.260 . S
C258 O248 1.258 1_455 S
C259 O255 1.260 . S
C259 O256 1.258 . S
Zn260 O266 1.969 . S
Zn260 O267 1.965 . S
Zn260 O271 2.024 . S
Zn260 O276 1.969 . S
Zn261 O268 1.969 . S
Zn261 O274 1.969 . S
Zn261 O275 1.965 . S
Zn261 O277 2.024 . S
C262 O263 1.229 . S
C262 O271 1.058 . S
O263 C262 1.229 . S
C264 O265 1.229 . S
C264 O277 1.058 . S
O265 C264 1.229 . S
O266 Zn260 1.969 . S
O266 C269 1.267 . S
O267 Zn260 1.965 . S
O267 C278 1.260 . S
O268 Zn261 1.969 . S
O268 C278 1.258 . S
C269 O266 1.267 . S
C269 O270 1.228 . S
O270 C269 1.228 . S
O271 Zn260 2.024 . S
O271 C262 1.058 . S
C272 O273 1.228 . S
C272 O274 1.267 . S
O273 C272 1.228 . S
O274 Zn261 1.969 . S
O274 C272 1.267 . S
O275 Zn261 1.965 . S
O275 C279 1.260 . S
O276 Zn260 1.969 . S
O276 C279 1.258 . S
O277 Zn261 2.024 . S
O277 C264 1.058 . S
C278 O267 1.260 . S
C278 O268 1.258 . S
C279 O275 1.260 . S
C279 O276 1.258 . S
Zn280 O286 1.969 . S
Zn280 O287 1.965 . S
Zn280 O291 2.024 . S
Zn280 O296 1.969 . S
Zn281 O288 1.969 . S
Zn281 O294 1.969 . S
Zn281 O295 1.965 . S
Zn281 O297 2.024 . S
C282 O283 1.229 . S
C282 O291 1.058 . S
O283 C282 1.229 . S
C284 O285 1.229 . S
C284 O297 1.058 . S
O285 C284 1.229 . S
O286 Zn280 1.969 . S
O286 C289 1.267 . S
O287 Zn280 1.965 . S
O287 C298 1.260 . S
O288 Zn281 1.969 . S
O288 C298 1.258 . S
C289 O286 1.267 . S
C289 O290 1.228 . S
O290 C289 1.228 . S
O291 Zn280 2.024 . S
O291 C282 1.058 . S
C292 O293 1.228 . S
C292 O294 1.267 . S
O293 C292 1.228 . S
O294 Zn281 1.969 . S
O294 C292 1.267 . S
O295 Zn281 1.965 . S
O295 C299 1.260 . S
O296 Zn280 1.969 . S
O296 C299 1.258 . S
O297 Zn281 2.024 . S
O297 C284 1.058 . S
C298 O287 1.260 . S
C298 O288 1.258 . S
C299 O295 1.260 . S
C299 O296 1.258 . S
Zn300 O306 1.969 . S
Zn300 O307 1.965 . S
Zn300 O311 2.024 . S
Zn300 O316 1.969 1_655 S
Zn301 O308 1.969 . S
Zn301 O314 1.969 . S
Zn301 O315 1.965 . S
Zn301 O317 2.024 . S
C302 O303 1.229 . S
C302 O311 1.058 . S
O303 C302 1.229 . S
C304 O305 1.229 . S
C304 O317 1.058 . S
O305 C304 1.229 . S
O306 Zn300 1.969 . S
O306 C309 1.267 . S
O307 Zn300 1.965 . S
O307 C318 1.260 . S
O308 Zn301 1.969 . S
O308 C318 1.258 1_455 S
C309 O306 1.267 . S
C309 O310 1.228 . S
O310 C309 1.228 . S
O311 Zn300 2.024 . S
O311 C302 1.058 . S
C312 O313 1.228 . S
C312 O314 1.267 . S
O313 C312 1.228 . S
O314 Zn301 1.969 . S
O314 C312 1.267 . S
O315 Zn301 1.965 . S
O315 C319 1.260 . S
O316 Zn300 1.969 1_455 S
O316 C319 1.258 . S
O317 Zn301 2.024 . S
O317 C304 1.058 . S
C318 O307 1.260 . S
C318 O308 1.258 1_655 S
C319 O315 1.260 . S
C319 O316 1.258 . S
Zn320 O326 1.969 . S
Zn320 O327 1.965 . S
Zn320 O331 2.024 . S
Zn320 O336 1.969 1_545 S
Zn321 O328 1.969 . S
Zn321 O334 1.969 . S
Zn321 O335 1.965 . S
Zn321 O337 2.024 . S
C322 O323 1.229 . S
C322 O331 1.058 . S
O323 C322 1.229 . S
C324 O325 1.229 . S
C324 O337 1.058 . S
O325 C324 1.229 . S
O326 Zn320 1.969 . S
O326 C329 1.267 . S
O327 Zn320 1.965 . S
O327 C338 1.260 . S
O328 Zn321 1.969 . S
O328 C338 1.258 1_565 S
C329 O326 1.267 . S
C329 O330 1.228 . S
O330 C329 1.228 . S
O331 Zn320 2.024 . S
O331 C322 1.058 . S
C332 O333 1.228 . S
C332 O334 1.267 . S
O333 C332 1.228 . S
O334 Zn321 1.969 . S
O334 C332 1.267 . S
O335 Zn321 1.965 . S
O335 C339 1.260 . S
O336 Zn320 1.969 1_565 S
O336 C339 1.258 . S
O337 Zn321 2.024 . S
O337 C324 1.058 . S
C338 O327 1.260 . S
C338 O328 1.258 1_545 S
C339 O335 1.260 . S
C339 O336 1.258 . S
Zn340 O346 1.969 . S
Zn340 O347 1.965 . S
Zn340 O351 2.024 . S
Zn340 O356 1.969 1_565 S
Zn341 O348 1.969 . S
Zn341 O354 1.969 . S
Zn341 O355 1.965 . S
Zn341 O357 2.024 . S
C342 O343 1.229 . S
C342 O351 1.058 . S
O343 C342 1.229 . S
C344 O345 1.229 . S
C344 O357 1.058 . S
O345 C344 1.229 . S
O346 Zn340 1.969 . S
O346 C349 1.267 . S
O347 Zn340 1.965 . S
O347 C358 1.260 . S
O348 Zn341 1.969 . S
O348 C358 1.258 1_545 S
C349 O346 1.267 . S
C349 O350 1.228 . S
O350 C349 1.228 . S
O351 Zn340 2.024 . S
O351 C342 1.058 . S
C352 O353 1.228 . S
C352 O354 1.267 . S
O353 C352 1.228 . S
O354 Zn341 1.969 . S
O354 C352 1.267 . S
O355 Zn341 1.965 . S
O355 C359 1.260 . S
O356 Zn340 1.969 1_545 S
O356 C359 1.258 . S
O357 Zn341 2.024 . S
O357 C344 1.058 . S
C358 O347 1.260 . S
C358 O348 1.258 1_565 S
C359 O355 1.260 . S
C359 O356 1.258 . S
Zn360 O366 1.969 . S
Zn360 O367 1.965 . S
Zn360 O371 2.024 . S
Zn360 O376 1.969 . S
Zn361 O368 1.969 . S
Zn361 O374 1.969 . S
Zn361 O375 1.965 . S
Zn361 O377 2.024 . S
C362 O363 1.229 . S
C362 O371 1.058 . S
O363 C362 1.229 . S
C364 O365 1.229 . S
C364 O377 1.058 . S
O365 C364 1.229 . S
O366 Zn360 1.969 . S
O366 C369 1.267 . S
O367 Zn360 1.965 . S
O367 C378 1.260 . S
O368 Zn361 1.969 . S
O368 C378 1.258 . S
C369 O366 1.267 . S
C369 O370 1.228 . S
O370 C369 1.228 . S
O371 Zn360 2.024 . S
O371 C362 1.058 . S
C372 O373 1.228 . S
C372 O374 1.267 . S
O373 C372 1.228 . S
O374 Zn361 1.969 . S
O374 C372 1.267 . S
O375 Zn361 1.965 . S
O375 C379 1.260 . S
O376 Zn360 1.969 . S
O376 C379 1.258 . S
O377 Zn361 2.024 . S
O377 C364 1.058 . S
C378 O367 1.260 . S
C378 O368 1.258 . S
C379 O375 1.260 . S
C379 O376 1.258 . S
Zn380 O386 1.969 . S
Zn380 O387 1.965 . S
Zn380 O391 2.024 . S
Zn380 O396 1.969 . S
Zn381 O388 1.969 . S
Zn381 O394 1.969 . S
Zn381 O395 1.965 . S
Zn381 O397 2.024 . S
C382 O383 1.229 . S
C382 O391 1.058 . S
O383 C382 1.229 . S
C384 O385 1.229 . S
C384 O397 1.058 . S
O385 C384 1.229 . S
O386 Zn380 1.969 . S
O386 C389 1.267 . S
O387 Zn380 1.965 . S
O387 C398 1.260 . S
O388 Zn381 1.969 . S
O388 C398 1.258 . S
C389 O386 1.267 . S
C389 O390 1.228 . S
O390 C389 1.228 . S
O391 Zn380 2.024 . S
O391 C382 1.058 . S
C392 O393 1.228 . S
C392 O394 1.267 . S
O393 C392 1.228 . S
O394 Zn381 1.969 . S
O394 C392 1.267 . S
O395 Zn381 1.965 . S
O395 C399 1.260 . S
O396 Zn380 1.969 . S
O396 C399 1.258 . S
O397 Zn381 2.024 . S
O397 C384 1.058 . S
C398 O387 1.260 . S
C398 O388 1.258 . S
C399 O395 1.260 . S
C399 O396 1.258 . S
Zn400 O406 1.969 . S
Zn400 O407 1.965 . S
Zn400 O411 2.024 . S
Zn400 O416 1.969 1_554 S
Zn401 O408 1.969 . S
Zn401 O414 1.969 . S
Zn401 O415 1.965 . S
Zn401 O417 2.024 . S
C402 O403 1.229 . S
C402 O411 1.058 . S
O403 C402 1.229 . S
C404 O405 1.229 . S
C404 O417 1.058 . S
O405 C404 1.229 . S
O406 Zn400 1.969 . S
O406 C409 1.267 . S
O407 Zn400 1.965 . S
O407 C418 1.260 . S
O408 Zn401 1.969 . S
O408 C418 1.258 1_556 S
C409 O406 1.267 . S
C409 O410 1.228 . S
O410 C409 1.228 . S
O411 Zn400 2.024 . S
O411 C402 1.058 . S
C412 O413 1.228 . S
C412 O414 1.267 . S
O413 C412 1.228 . S
O414 Zn401 1.969 . S
O414 C412 1.267 . S
O415 Zn401 1.965 . S
O415 C419 1.260 . S
O416 Zn400 1.969 1_556 S
O416 C419 1.258 . S
O417 Zn401 2.024 . S
O417 C404 1.058 . S
C418 O407 1.260 . S
C418 O408 1.258 1_554 S
C419 O415 1.260 . S
C419 O416 1.258 . S
Zn420 O426 1.969 . S
Zn420 O427 1.965 . S
Zn420 O431 2.024 . S
Zn420 O436 1.969 1_556 S
Zn421 O428 1.969 . S
Zn421 O434 1.969 . S
Zn421 O435 1.965 . S
Zn421 O437 2.024 . S
C422 O423 1.229 . S
C422 O431 1.058 . S
O423 C422 1.229 . S
C424 O425 1.229 . S
C424 O437 1.058 . S
O425 C424 1.229 . S
O426 Zn420 1.969 . S
O426 C429 1.267 . S
O427 Zn420 1.965 . S
O427 C438 1.260 . S
O428 Zn421 1.969 . S
O428 C438 1.258 1_554 S
C429 O426 1.267 . S
C429 O430 1.228 . S
O430 C429 1.228 . S
O431 Zn420 2.024 . S
O431 C422 1.058 . S
C432 O433 1.228 . S
C432 O434 1.267 . S
O433 C432 1.228 . S
O434 Zn421 1.969 . S
O434 C432 1.267 . S
O435 Zn421 1.965 . S
O435 C439 1.260 . S
O436 Zn420 1.969 1_554 S
O436 C439 1.258 . S
O437 Zn421 2.024 . S
O437 C424 1.058 . S
C438 O427 1.260 . S
C438 O428 1.258 1_556 S
C439 O435 1.260 . S
C439 O436 1.258 . S
Zn440 O446 1.969 . S
Zn440 O447 1.965 . S
Zn440 O451 2.024 . S
Zn440 O456 1.969 . S
Zn441 O448 1.969 . S
Zn441 O454 1.969 . S
Zn441 O455 1.965 . S
Zn441 O457 2.024 . S
C442 O443 1.229 . S
C442 O451 1.058 . S
O443 C442 1.229 . S
C444 O445 1.229 . S
C444 O457 1.058 . S
O445 C444 1.229 . S
O446 Zn440 1.969 . S
O446 C449 1.267 . S
O447 Zn440 1.965 . S
O447 C458 1.260 . S
O448 Zn441 1.969 . S
O448 C458 1.258 . S
C449 O446 1.267 . S
C449 O450 1.228 . S
O450 C449 1.228 . S
O451 Zn440 2.024 . S
O451 C442 1.058 . S
C452 O453 1.228 . S
C452 O454 1.267 . S
O453 C452 1.228 . S
O454 Zn441 1.969 . S
O454 C452 1.267 . S
O455 Zn441 1.965 . S
O455 C459 1.260 . S
O456 Zn440 1.969 . S
O456 C459 1.258 . S
O457 Zn441 2.024 . S
O457 C444 1.058 . S
C458 O447 1.260 . S
C458 O448 1.258 . S
C459 O455 1.260 . S
C459 O456 1.258 . S
Zn460 O466 1.969 . S
Zn460 O467 1.965 . S
Zn460 O471 2.024 . S
Zn460 O476 1.969 . S
Zn461 O468 1.969 . S
Zn461 O474 1.969 . S
Zn461 O475 1.965 . S
Zn461 O477 2.024 . S
C462 O463 1.229 . S
C462 O471 1.058 . S
O463 C462 1.229 . S
C464 O465 1.229 . S
C464 O477 1.058 . S
O465 C464 1.229 . S
O466 Zn460 1.969 . S
O466 C469 1.267 . S
O467 Zn460 1.965 . S
O467 C478 1.260 . S
O468 Zn461 1.969 . S
O468 C478 1.258 . S
C469 O466 1.267 . S
C469 O470 1.228 . S
O470 C469 1.228 . S
O471 Zn460 2.024 . S
O471 C462 1.058 . S
C472 O473 1.228 . S
C472 O474 1.267 . S
O473 C472 1.228 . S
O474 Zn461 1.969 . S
O474 C472 1.267 . S
O475 Zn461 1.965 . S
O475 C479 1.260 . S
O476 Zn460 1.969 . S
O476 C479 1.258 . S
O477 Zn461 2.024 . S
O477 C464 1.058 . S
C478 O467 1.260 . S
C478 O468 1.258 . S
C479 O475 1.260 . S
C479 O476 1.258 . S
C480 C481 1.391 . S
C480 C482 1.394 . S
C480 H496 0.931 . S
C481 C480 1.391 . S
C481 C485 1.376 . S
C482 C480 1.394 . S
C482 C483 1.369 . S
C482 C486 1.531 . S
C483 C482 1.369 . S
C483 C484 1.410 . S
C483 C491 1.503 . S
C484 C483 1.410 . S
C484 C485 1.392 . S
C484 C487 1.511 . S
C485 C481 1.376 . S
C485 C484 1.392 . S
C485 H497 0.929 . S
C486 C482 1.531 . S
C486 H498 0.960 . S
C486 H499 0.962 . S
C486 H500 0.960 . S
C487 C484 1.511 . S
C487 H501 0.961 . S
C487 H502 0.961 . S
C487 H503 0.961 . S
C488 C489 1.370 . S
C488 C490 1.363 . S
C488 H504 0.931 . S
C489 C488 1.370 . S
C489 C493 1.408 . S
C490 C488 1.363 . S
C490 C491 1.370 . S
C490 C494 1.524 . S
C491 C483 1.503 . S
C491 C490 1.370 . S
C491 C492 1.403 . S
C492 C491 1.403 . S
C492 C493 1.404 . S
C492 C495 1.539 . S
C493 C489 1.408 . S
C493 C492 1.404 . S
C493 H505 0.930 . S
C494 C490 1.524 . S
C494 H506 0.956 . S
C494 H507 0.961 . S
C494 H508 0.961 . S
C495 C492 1.539 . S
C495 H509 0.958 . S
C495 H510 0.961 . S
C495 H511 0.960 . S
H496 C480 0.931 . S
H497 C485 0.929 . S
H498 C486 0.960 . S
H499 C486 0.962 . S
H500 C486 0.960 . S
H501 C487 0.961 . S
H502 C487 0.961 . S
H503 C487 0.961 . S
H504 C488 0.931 . S
H505 C493 0.930 . S
H506 C494 0.956 . S
H507 C494 0.961 . S
H508 C494 0.961 . S
H509 C495 0.958 . S
H510 C495 0.961 . S
H511 C495 0.960 . S
C512 C513 1.391 . S
C512 C514 1.394 . S
C512 H528 0.931 . S
C513 C512 1.391 . S
C513 C517 1.376 . S
C514 C512 1.394 . S
C514 C515 1.369 . S
C514 C518 1.531 . S
C515 C514 1.369 . S
C515 C516 1.410 . S
C515 C523 1.503 . S
C516 C515 1.410 . S
C516 C517 1.392 . S
C516 C519 1.511 . S
C517 C513 1.376 . S
C517 C516 1.392 . S
C517 H529 0.929 . S
C518 C514 1.531 . S
C518 H530 0.960 . S
C518 H531 0.962 . S
C518 H532 0.960 . S
C519 C516 1.511 . S
C519 H533 0.961 . S
C519 H534 0.961 . S
C519 H535 0.961 . S
C520 C521 1.370 . S
C520 C522 1.363 . S
C520 H536 0.931 . S
C521 C520 1.370 . S
C521 C525 1.408 . S
C522 C520 1.363 . S
C522 C523 1.370 . S
C522 C526 1.524 . S
C523 C515 1.503 . S
C523 C522 1.370 . S
C523 C524 1.403 . S
C524 C523 1.403 . S
C524 C525 1.404 . S
C524 C527 1.539 . S
C525 C521 1.408 . S
C525 C524 1.404 . S
C525 H537 0.930 . S
C526 C522 1.524 . S
C526 H538 0.956 . S
C526 H539 0.961 . S
C526 H540 0.961 . S
C527 C524 1.539 . S
C527 H541 0.958 . S
C527 H542 0.961 . S
C527 H543 0.960 . S
H528 C512 0.931 . S
H529 C517 0.929 . S
H530 C518 0.960 . S
H531 C518 0.962 . S
H532 C518 0.960 . S
H533 C519 0.961 . S
H534 C519 0.961 . S
H535 C519 0.961 . S
H536 C520 0.931 . S
H537 C525 0.930 . S
H538 C526 0.956 . S
H539 C526 0.961 . S
H540 C526 0.961 . S
H541 C527 0.958 . S
H542 C527 0.961 . S
H543 C527 0.960 . S
C544 C545 1.391 . S
C544 C546 1.394 . S
C544 H560 0.931 . S
C545 C544 1.391 . S
C545 C549 1.376 . S
C546 C544 1.394 . S
C546 C547 1.369 . S
C546 C550 1.531 . S
C547 C546 1.369 . S
C547 C548 1.410 . S
C547 C555 1.503 . S
C548 C547 1.410 . S
C548 C549 1.392 . S
C548 C551 1.511 . S
C549 C545 1.376 . S
C549 C548 1.392 . S
C549 H561 0.929 . S
C550 C546 1.531 . S
C550 H562 0.960 . S
C550 H563 0.962 . S
C550 H564 0.960 . S
C551 C548 1.511 . S
C551 H565 0.961 . S
C551 H566 0.961 . S
C551 H567 0.961 . S
C552 C553 1.370 . S
C552 C554 1.363 . S
C552 H568 0.931 . S
C553 C552 1.370 . S
C553 C557 1.408 . S
C554 C552 1.363 . S
C554 C555 1.370 . S
C554 C558 1.524 . S
C555 C547 1.503 . S
C555 C554 1.370 . S
C555 C556 1.403 . S
C556 C555 1.403 . S
C556 C557 1.404 . S
C556 C559 1.539 . S
C557 C553 1.408 . S
C557 C556 1.404 . S
C557 H569 0.930 . S
C558 C554 1.524 . S
C558 H570 0.956 . S
C558 H571 0.961 . S
C558 H572 0.961 . S
C559 C556 1.539 . S
C559 H573 0.958 . S
C559 H574 0.961 . S
C559 H575 0.960 . S
H560 C544 0.931 . S
H561 C549 0.929 . S
H562 C550 0.960 . S
H563 C550 0.962 . S
H564 C550 0.960 . S
H565 C551 0.961 . S
H566 C551 0.961 . S
H567 C551 0.961 . S
H568 C552 0.931 . S
H569 C557 0.930 . S
H570 C558 0.956 . S
H571 C558 0.961 . S
H572 C558 0.961 . S
H573 C559 0.958 . S
H574 C559 0.961 . S
H575 C559 0.960 . S
C576 C577 1.391 . S
C576 C578 1.394 . S
C576 H592 0.931 . S
C577 C576 1.391 . S
C577 C581 1.376 . S
C578 C576 1.394 . S
C578 C579 1.369 . S
C578 C582 1.531 . S
C579 C578 1.369 . S
C579 C580 1.410 . S
C579 C587 1.503 . S
C580 C579 1.410 . S
C580 C581 1.392 . S
C580 C583 1.511 . S
C581 C577 1.376 . S
C581 C580 1.392 . S
C581 H593 0.929 . S
C582 C578 1.531 . S
C582 H594 0.960 . S
C582 H595 0.962 . S
C582 H596 0.960 . S
C583 C580 1.511 . S
C583 H597 0.961 . S
C583 H598 0.961 . S
C583 H599 0.961 . S
C584 C585 1.370 . S
C584 C586 1.363 . S
C584 H600 0.931 . S
C585 C584 1.370 . S
C585 C589 1.408 . S
C586 C584 1.363 . S
C586 C587 1.370 . S
C586 C590 1.524 . S
C587 C579 1.503 . S
C587 C586 1.370 . S
C587 C588 1.403 . S
C588 C587 1.403 . S
C588 C589 1.404 . S
C588 C591 1.539 . S
C589 C585 1.408 . S
C589 C588 1.404 . S
C589 H601 0.930 . S
C590 C586 1.524 . S
C590 H602 0.956 . S
C590 H603 0.961 . S
C590 H604 0.961 . S
C591 C588 1.539 . S
C591 H605 0.958 . S
C591 H606 0.961 . S
C591 H607 0.960 . S
H592 C576 0.931 . S
H593 C581 0.929 . S
H594 C582 0.960 . S
H595 C582 0.962 . S
H596 C582 0.960 . S
H597 C583 0.961 . S
H598 C583 0.961 . S
H599 C583 0.961 . S
H600 C584 0.931 . S
H601 C589 0.930 . S
H602 C590 0.956 . S
H603 C590 0.961 . S
H604 C590 0.961 . S
H605 C591 0.958 . S
H606 C591 0.961 . S
H607 C591 0.960 . S
C608 C609 1.391 . S
C608 C610 1.394 . S
C608 H624 0.931 . S
C609 C608 1.391 . S
C609 C613 1.376 . S
C610 C608 1.394 . S
C610 C611 1.369 . S
C610 C614 1.531 . S
C611 C610 1.369 . S
C611 C612 1.410 . S
C611 C619 1.503 . S
C612 C611 1.410 . S
C612 C613 1.392 . S
C612 C615 1.511 . S
C613 C609 1.376 . S
C613 C612 1.392 . S
C613 H625 0.929 . S
C614 C610 1.531 . S
C614 H626 0.960 . S
C614 H627 0.962 . S
C614 H628 0.960 . S
C615 C612 1.511 . S
C615 H629 0.961 . S
C615 H630 0.961 . S
C615 H631 0.961 . S
C616 C617 1.370 . S
C616 C618 1.363 . S
C616 H632 0.931 . S
C617 C616 1.370 . S
C617 C621 1.408 . S
C618 C616 1.363 . S
C618 C619 1.370 . S
C618 C622 1.524 . S
C619 C611 1.503 . S
C619 C618 1.370 . S
C619 C620 1.403 . S
C620 C619 1.403 . S
C620 C621 1.404 . S
C620 C623 1.539 . S
C621 C617 1.408 . S
C621 C620 1.404 . S
C621 H633 0.930 . S
C622 C618 1.524 . S
C622 H634 0.956 . S
C622 H635 0.961 . S
C622 H636 0.961 . S
C623 C620 1.539 . S
C623 H637 0.958 . S
C623 H638 0.961 . S
C623 H639 0.960 . S
H624 C608 0.931 . S
H625 C613 0.929 . S
H626 C614 0.960 . S
H627 C614 0.962 . S
H628 C614 0.960 . S
H629 C615 0.961 . S
H630 C615 0.961 . S
H631 C615 0.961 . S
H632 C616 0.931 . S
H633 C621 0.930 . S
H634 C622 0.956 . S
H635 C622 0.961 . S
H636 C622 0.961 . S
H637 C623 0.958 . S
H638 C623 0.961 . S
H639 C623 0.960 . S
C640 C641 1.391 . S
C640 C642 1.394 . S
C640 H656 0.931 . S
C641 C640 1.391 . S
C641 C645 1.376 . S
C642 C640 1.394 . S
C642 C643 1.369 . S
C642 C646 1.531 . S
C643 C642 1.369 . S
C643 C644 1.410 . S
C643 C651 1.503 . S
C644 C643 1.410 . S
C644 C645 1.392 . S
C644 C647 1.511 . S
C645 C641 1.376 . S
C645 C644 1.392 . S
C645 H657 0.929 . S
C646 C642 1.531 . S
C646 H658 0.960 . S
C646 H659 0.962 . S
C646 H660 0.960 . S
C647 C644 1.511 . S
C647 H661 0.961 . S
C647 H662 0.961 . S
C647 H663 0.961 . S
C648 C649 1.370 . S
C648 C650 1.363 . S
C648 H664 0.931 . S
C649 C648 1.370 . S
C649 C653 1.408 . S
C650 C648 1.363 . S
C650 C651 1.370 . S
C650 C654 1.524 . S
C651 C643 1.503 . S
C651 C650 1.370 . S
C651 C652 1.403 . S
C652 C651 1.403 . S
C652 C653 1.404 . S
C652 C655 1.539 . S
C653 C649 1.408 . S
C653 C652 1.404 . S
C653 H665 0.930 . S
C654 C650 1.524 . S
C654 H666 0.956 . S
C654 H667 0.961 . S
C654 H668 0.961 . S
C655 C652 1.539 . S
C655 H669 0.958 . S
C655 H670 0.961 . S
C655 H671 0.960 . S
H656 C640 0.931 . S
H657 C645 0.929 . S
H658 C646 0.960 . S
H659 C646 0.962 . S
H660 C646 0.960 . S
H661 C647 0.961 . S
H662 C647 0.961 . S
H663 C647 0.961 . S
H664 C648 0.931 . S
H665 C653 0.930 . S
H666 C654 0.956 . S
H667 C654 0.961 . S
H668 C654 0.961 . S
H669 C655 0.958 . S
H670 C655 0.961 . S
H671 C655 0.960 . S
C672 C673 1.391 . S
C672 C674 1.394 . S
C672 H688 0.931 . S
C673 C672 1.391 . S
C673 C677 1.376 . S
C674 C672 1.394 . S
C674 C675 1.369 . S
C674 C678 1.531 . S
C675 C674 1.369 . S
C675 C676 1.410 . S
C675 C683 1.503 . S
C676 C675 1.410 . S
C676 C677 1.392 . S
C676 C679 1.511 . S
C677 C673 1.376 . S
C677 C676 1.392 . S
C677 H689 0.929 . S
C678 C674 1.531 . S
C678 H690 0.960 . S
C678 H691 0.962 . S
C678 H692 0.960 . S
C679 C676 1.511 . S
C679 H693 0.961 . S
C679 H694 0.961 . S
C679 H695 0.961 . S
C680 C681 1.370 . S
C680 C682 1.363 . S
C680 H696 0.931 . S
C681 C680 1.370 . S
C681 C685 1.408 . S
C682 C680 1.363 . S
C682 C683 1.370 . S
C682 C686 1.524 . S
C683 C675 1.503 . S
C683 C682 1.370 . S
C683 C684 1.403 . S
C684 C683 1.403 . S
C684 C685 1.404 . S
C684 C687 1.539 . S
C685 C681 1.408 . S
C685 C684 1.404 . S
C685 H697 0.930 . S
C686 C682 1.524 . S
C686 H698 0.956 . S
C686 H699 0.961 . S
C686 H700 0.961 . S
C687 C684 1.539 . S
C687 H701 0.958 . S
C687 H702 0.961 . S
C687 H703 0.960 . S
H688 C672 0.931 . S
H689 C677 0.929 . S
H690 C678 0.960 . S
H691 C678 0.962 . S
H692 C678 0.960 . S
H693 C679 0.961 . S
H694 C679 0.961 . S
H695 C679 0.961 . S
H696 C680 0.931 . S
H697 C685 0.930 . S
H698 C686 0.956 . S
H699 C686 0.961 . S
H700 C686 0.961 . S
H701 C687 0.958 . S
H702 C687 0.961 . S
H703 C687 0.960 . S
C704 C705 1.391 . S
C704 C706 1.394 . S
C704 H720 0.931 . S
C705 C704 1.391 . S
C705 C709 1.376 . S
C706 C704 1.394 . S
C706 C707 1.369 . S
C706 C710 1.531 . S
C707 C706 1.369 . S
C707 C708 1.410 . S
C707 C715 1.503 . S
C708 C707 1.410 . S
C708 C709 1.392 . S
C708 C711 1.511 . S
C709 C705 1.376 . S
C709 C708 1.392 . S
C709 H721 0.929 . S
C710 C706 1.531 . S
C710 H722 0.960 . S
C710 H723 0.962 . S
C710 H724 0.960 . S
C711 C708 1.511 . S
C711 H725 0.961 . S
C711 H726 0.961 . S
C711 H727 0.961 . S
C712 C713 1.370 . S
C712 C714 1.363 . S
C712 H728 0.931 . S
C713 C712 1.370 . S
C713 C717 1.408 . S
C714 C712 1.363 . S
C714 C715 1.370 . S
C714 C718 1.524 . S
C715 C707 1.503 . S
C715 C714 1.370 . S
C715 C716 1.403 . S
C716 C715 1.403 . S
C716 C717 1.404 . S
C716 C719 1.539 . S
C717 C713 1.408 . S
C717 C716 1.404 . S
C717 H729 0.930 . S
C718 C714 1.524 . S
C718 H730 0.956 . S
C718 H731 0.961 . S
C718 H732 0.961 . S
C719 C716 1.539 . S
C719 H733 0.958 . S
C719 H734 0.961 . S
C719 H735 0.960 . S
H720 C704 0.931 . S
H721 C709 0.929 . S
H722 C710 0.960 . S
H723 C710 0.962 . S
H724 C710 0.960 . S
H725 C711 0.961 . S
H726 C711 0.961 . S
H727 C711 0.961 . S
H728 C712 0.931 . S
H729 C717 0.930 . S
H730 C718 0.956 . S
H731 C718 0.961 . S
H732 C718 0.961 . S
H733 C719 0.958 . S
H734 C719 0.961 . S
H735 C719 0.960 . S
C736 C737 1.391 . S
C736 C738 1.394 . S
C736 H752 0.931 . S
C737 C736 1.391 . S
C737 C741 1.376 . S
C738 C736 1.394 . S
C738 C739 1.369 . S
C738 C742 1.531 . S
C739 C738 1.369 . S
C739 C740 1.410 . S
C739 C747 1.503 . S
C740 C739 1.410 . S
C740 C741 1.392 . S
C740 C743 1.511 . S
C741 C737 1.376 . S
C741 C740 1.392 . S
C741 H753 0.929 . S
C742 C738 1.531 . S
C742 H754 0.960 . S
C742 H755 0.962 . S
C742 H756 0.960 . S
C743 C740 1.511 . S
C743 H757 0.961 . S
C743 H758 0.961 . S
C743 H759 0.961 . S
C744 C745 1.370 . S
C744 C746 1.363 . S
C744 H760 0.931 . S
C745 C744 1.370 . S
C745 C749 1.408 . S
C746 C744 1.363 . S
C746 C747 1.370 . S
C746 C750 1.524 . S
C747 C739 1.503 . S
C747 C746 1.370 . S
C747 C748 1.403 . S
C748 C747 1.403 . S
C748 C749 1.404 . S
C748 C751 1.539 . S
C749 C745 1.408 . S
C749 C748 1.404 . S
C749 H761 0.930 . S
C750 C746 1.524 . S
C750 H762 0.956 . S
C750 H763 0.961 . S
C750 H764 0.961 . S
C751 C748 1.539 . S
C751 H765 0.958 . S
C751 H766 0.961 . S
C751 H767 0.960 . S
H752 C736 0.931 . S
H753 C741 0.929 . S
H754 C742 0.960 . S
H755 C742 0.962 . S
H756 C742 0.960 . S
H757 C743 0.961 . S
H758 C743 0.961 . S
H759 C743 0.961 . S
H760 C744 0.931 . S
H761 C749 0.930 . S
H762 C750 0.956 . S
H763 C750 0.961 . S
H764 C750 0.961 . S
H765 C751 0.958 . S
H766 C751 0.961 . S
H767 C751 0.960 . S
C768 C769 1.391 . S
C768 C770 1.394 . S
C768 H784 0.931 . S
C769 C768 1.391 . S
C769 C773 1.376 . S
C770 C768 1.394 . S
C770 C771 1.369 . S
C770 C774 1.531 . S
C771 C770 1.369 . S
C771 C772 1.410 . S
C771 C779 1.503 . S
C772 C771 1.410 . S
C772 C773 1.392 . S
C772 C775 1.511 . S
C773 C769 1.376 . S
C773 C772 1.392 . S
C773 H785 0.929 . S
C774 C770 1.531 . S
C774 H786 0.960 . S
C774 H787 0.962 . S
C774 H788 0.960 . S
C775 C772 1.511 . S
C775 H789 0.961 . S
C775 H790 0.961 . S
C775 H791 0.961 . S
C776 C777 1.370 . S
C776 C778 1.363 . S
C776 H792 0.931 . S
C777 C776 1.370 . S
C777 C781 1.408 . S
C778 C776 1.363 . S
C778 C779 1.370 . S
C778 C782 1.524 . S
C779 C771 1.503 . S
C779 C778 1.370 . S
C779 C780 1.403 . S
C780 C779 1.403 . S
C780 C781 1.404 . S
C780 C783 1.539 . S
C781 C777 1.408 . S
C781 C780 1.404 . S
C781 H793 0.930 . S
C782 C778 1.524 . S
C782 H794 0.956 . S
C782 H795 0.961 . S
C782 H796 0.961 . S
C783 C780 1.539 . S
C783 H797 0.958 . S
C783 H798 0.961 . S
C783 H799 0.960 . S
H784 C768 0.931 . S
H785 C773 0.929 . S
H786 C774 0.960 . S
H787 C774 0.962 . S
H788 C774 0.960 . S
H789 C775 0.961 . S
H790 C775 0.961 . S
H791 C775 0.961 . S
H792 C776 0.931 . S
H793 C781 0.930 . S
H794 C782 0.956 . S
H795 C782 0.961 . S
H796 C782 0.961 . S
H797 C783 0.958 . S
H798 C783 0.961 . S
H799 C783 0.960 . S
C800 C801 1.391 . S
C800 C802 1.394 . S
C800 H816 0.931 . S
C801 C800 1.391 . S
C801 C805 1.376 . S
C802 C800 1.394 . S
C802 C803 1.369 . S
C802 C806 1.531 . S
C803 C802 1.369 . S
C803 C804 1.410 . S
C803 C811 1.503 . S
C804 C803 1.410 . S
C804 C805 1.392 . S
C804 C807 1.511 . S
C805 C801 1.376 . S
C805 C804 1.392 . S
C805 H817 0.929 . S
C806 C802 1.531 . S
C806 H818 0.960 . S
C806 H819 0.962 . S
C806 H820 0.960 . S
C807 C804 1.511 . S
C807 H821 0.961 . S
C807 H822 0.961 . S
C807 H823 0.961 . S
C808 C809 1.370 . S
C808 C810 1.363 . S
C808 H824 0.931 . S
C809 C808 1.370 . S
C809 C813 1.408 . S
C810 C808 1.363 . S
C810 C811 1.370 . S
C810 C814 1.524 . S
C811 C803 1.503 . S
C811 C810 1.370 . S
C811 C812 1.403 . S
C812 C811 1.403 . S
C812 C813 1.404 . S
C812 C815 1.539 . S
C813 C809 1.408 . S
C813 C812 1.404 . S
C813 H825 0.930 . S
C814 C810 1.524 . S
C814 H826 0.956 . S
C814 H827 0.961 . S
C814 H828 0.961 . S
C815 C812 1.539 . S
C815 H829 0.958 . S
C815 H830 0.961 . S
C815 H831 0.960 . S
H816 C800 0.931 . S
H817 C805 0.929 . S
H818 C806 0.960 . S
H819 C806 0.962 . S
H820 C806 0.960 . S
H821 C807 0.961 . S
H822 C807 0.961 . S
H823 C807 0.961 . S
H824 C808 0.931 . S
H825 C813 0.930 . S
H826 C814 0.956 . S
H827 C814 0.961 . S
H828 C814 0.961 . S
H829 C815 0.958 . S
H830 C815 0.961 . S
H831 C815 0.960 . S
C832 C833 1.391 . S
C832 C834 1.394 . S
C832 H848 0.931 . S
C833 C832 1.391 . S
C833 C837 1.376 . S
C834 C832 1.394 . S
C834 C835 1.369 . S
C834 C838 1.531 . S
C835 C834 1.369 . S
C835 C836 1.410 . S
C835 C843 1.503 . S
C836 C835 1.410 . S
C836 C837 1.392 . S
C836 C839 1.511 . S
C837 C833 1.376 . S
C837 C836 1.392 . S
C837 H849 0.929 . S
C838 C834 1.531 . S
C838 H850 0.960 . S
C838 H851 0.962 . S
C838 H852 0.960 . S
C839 C836 1.511 . S
C839 H853 0.961 . S
C839 H854 0.961 . S
C839 H855 0.961 . S
C840 C841 1.370 . S
C840 C842 1.363 . S
C840 H856 0.931 . S
C841 C840 1.370 . S
C841 C845 1.408 . S
C842 C840 1.363 . S
C842 C843 1.370 . S
C842 C846 1.524 . S
C843 C835 1.503 . S
C843 C842 1.370 . S
C843 C844 1.403 . S
C844 C843 1.403 . S
C844 C845 1.404 . S
C844 C847 1.539 . S
C845 C841 1.408 . S
C845 C844 1.404 . S
C845 H857 0.930 . S
C846 C842 1.524 . S
C846 H858 0.956 . S
C846 H859 0.961 . S
C846 H860 0.961 . S
C847 C844 1.539 . S
C847 H861 0.958 . S
C847 H862 0.961 . S
C847 H863 0.960 . S
H848 C832 0.931 . S
H849 C837 0.929 . S
H850 C838 0.960 . S
H851 C838 0.962 . S
H852 C838 0.960 . S
H853 C839 0.961 . S
H854 C839 0.961 . S
H855 C839 0.961 . S
H856 C840 0.931 . S
H857 C845 0.930 . S
H858 C846 0.956 . S
H859 C846 0.961 . S
H860 C846 0.961 . S
H861 C847 0.958 . S
H862 C847 0.961 . S
H863 C847 0.960 . S
C864 C865 1.391 . S
C864 C866 1.394 . S
C864 H880 0.931 . S
C865 C864 1.391 . S
C865 C869 1.376 . S
C866 C864 1.394 . S
C866 C867 1.369 . S
C866 C870 1.531 . S
C867 C866 1.369 . S
C867 C868 1.410 . S
C867 C875 1.503 . S
C868 C867 1.410 . S
C868 C869 1.392 . S
C868 C871 1.511 . S
C869 C865 1.376 . S
C869 C868 1.392 . S
C869 H881 0.929 . S
C870 C866 1.531 . S
C870 H882 0.960 . S
C870 H883 0.962 . S
C870 H884 0.960 . S
C871 C868 1.511 . S
C871 H885 0.961 . S
C871 H886 0.961 . S
C871 H887 0.961 . S
C872 C873 1.370 . S
C872 C874 1.363 . S
C872 H888 0.931 . S
C873 C872 1.370 . S
C873 C877 1.408 . S
C874 C872 1.363 . S
C874 C875 1.370 . S
C874 C878 1.524 . S
C875 C867 1.503 . S
C875 C874 1.370 . S
C875 C876 1.403 . S
C876 C875 1.403 . S
C876 C877 1.404 . S
C876 C879 1.539 . S
C877 C873 1.408 . S
C877 C876 1.404 . S
C877 H889 0.930 . S
C878 C874 1.524 . S
C878 H890 0.956 . S
C878 H891 0.961 . S
C878 H892 0.961 . S
C879 C876 1.539 . S
C879 H893 0.958 . S
C879 H894 0.961 . S
C879 H895 0.960 . S
H880 C864 0.931 . S
H881 C869 0.929 . S
H882 C870 0.960 . S
H883 C870 0.962 . S
H884 C870 0.960 . S
H885 C871 0.961 . S
H886 C871 0.961 . S
H887 C871 0.961 . S
H888 C872 0.931 . S
H889 C877 0.930 . S
H890 C878 0.956 . S
H891 C878 0.961 . S
H892 C878 0.961 . S
H893 C879 0.958 . S
H894 C879 0.961 . S
H895 C879 0.960 . S
C896 C897 1.391 . S
C896 C898 1.394 . S
C896 H912 0.931 . S
C897 C896 1.391 . S
C897 C901 1.376 . S
C898 C896 1.394 . S
C898 C899 1.369 . S
C898 C902 1.531 . S
C899 C898 1.369 . S
C899 C900 1.410 . S
C899 C907 1.503 . S
C900 C899 1.410 . S
C900 C901 1.392 . S
C900 C903 1.511 . S
C901 C897 1.376 . S
C901 C900 1.392 . S
C901 H913 0.929 . S
C902 C898 1.531 . S
C902 H914 0.960 . S
C902 H915 0.962 . S
C902 H916 0.960 . S
C903 C900 1.511 . S
C903 H917 0.961 . S
C903 H918 0.961 . S
C903 H919 0.961 . S
C904 C905 1.370 . S
C904 C906 1.363 . S
C904 H920 0.931 . S
C905 C904 1.370 . S
C905 C909 1.408 . S
C906 C904 1.363 . S
C906 C907 1.370 . S
C906 C910 1.524 . S
C907 C899 1.503 . S
C907 C906 1.370 . S
C907 C908 1.403 . S
C908 C907 1.403 . S
C908 C909 1.404 . S
C908 C911 1.539 . S
C909 C905 1.408 . S
C909 C908 1.404 . S
C909 H921 0.930 . S
C910 C906 1.524 . S
C910 H922 0.956 . S
C910 H923 0.961 . S
C910 H924 0.961 . S
C911 C908 1.539 . S
C911 H925 0.958 . S
C911 H926 0.961 . S
C911 H927 0.960 . S
H912 C896 0.931 . S
H913 C901 0.929 . S
H914 C902 0.960 . S
H915 C902 0.962 . S
H916 C902 0.960 . S
H917 C903 0.961 . S
H918 C903 0.961 . S
H919 C903 0.961 . S
H920 C904 0.931 . S
H921 C909 0.930 . S
H922 C910 0.956 . S
H923 C910 0.961 . S
H924 C910 0.961 . S
H925 C911 0.958 . S
H926 C911 0.961 . S
H927 C911 0.960 . S
C928 C929 1.391 . S
C928 C930 1.394 . S
C928 H944 0.931 . S
C929 C928 1.391 . S
C929 C933 1.376 . S
C930 C928 1.394 . S
C930 C931 1.369 . S
C930 C934 1.531 . S
C931 C930 1.369 . S
C931 C932 1.410 . S
C931 C939 1.503 . S
C932 C931 1.410 . S
C932 C933 1.392 . S
C932 C935 1.511 . S
C933 C929 1.376 . S
C933 C932 1.392 . S
C933 H945 0.929 . S
C934 C930 1.531 . S
C934 H946 0.960 . S
C934 H947 0.962 . S
C934 H948 0.960 . S
C935 C932 1.511 . S
C935 H949 0.961 . S
C935 H950 0.961 . S
C935 H951 0.961 . S
C936 C937 1.370 . S
C936 C938 1.363 . S
C936 H952 0.931 . S
C937 C936 1.370 . S
C937 C941 1.408 . S
C938 C936 1.363 . S
C938 C939 1.370 . S
C938 C942 1.524 . S
C939 C931 1.503 . S
C939 C938 1.370 . S
C939 C940 1.403 . S
C940 C939 1.403 . S
C940 C941 1.404 . S
C940 C943 1.539 . S
C941 C937 1.408 . S
C941 C940 1.404 . S
C941 H953 0.930 . S
C942 C938 1.524 . S
C942 H954 0.956 . S
C942 H955 0.961 . S
C942 H956 0.961 . S
C943 C940 1.539 . S
C943 H957 0.958 . S
C943 H958 0.961 . S
C943 H959 0.960 . S
H944 C928 0.931 . S
H945 C933 0.929 . S
H946 C934 0.960 . S
H947 C934 0.962 . S
H948 C934 0.960 . S
H949 C935 0.961 . S
H950 C935 0.961 . S
H951 C935 0.961 . S
H952 C936 0.931 . S
H953 C941 0.930 . S
H954 C942 0.956 . S
H955 C942 0.961 . S
H956 C942 0.961 . S
H957 C943 0.958 . S
H958 C943 0.961 . S
H959 C943 0.960 . S
C960 C961 1.391 . S
C960 C962 1.394 . S
C960 H976 0.931 . S
C961 C960 1.391 . S
C961 C965 1.376 . S
C962 C960 1.394 . S
C962 C963 1.369 . S
C962 C966 1.531 . S
C963 C962 1.369 . S
C963 C964 1.410 . S
C963 C971 1.503 . S
C964 C963 1.410 . S
C964 C965 1.392 . S
C964 C967 1.511 . S
C965 C961 1.376 . S
C965 C964 1.392 . S
C965 H977 0.929 . S
C966 C962 1.531 . S
C966 H978 0.960 . S
C966 H979 0.962 . S
C966 H980 0.960 . S
C967 C964 1.511 . S
C967 H981 0.961 . S
C967 H982 0.961 . S
C967 H983 0.961 . S
C968 C969 1.370 . S
C968 C970 1.363 . S
C968 H984 0.931 . S
C969 C968 1.370 . S
C969 C973 1.408 . S
C970 C968 1.363 . S
C970 C971 1.370 . S
C970 C974 1.524 . S
C971 C963 1.503 . S
C971 C970 1.370 . S
C971 C972 1.403 . S
C972 C971 1.403 . S
C972 C973 1.404 . S
C972 C975 1.539 . S
C973 C969 1.408 . S
C973 C972 1.404 . S
C973 H985 0.930 . S
C974 C970 1.524 . S
C974 H986 0.956 . S
C974 H987 0.961 . S
C974 H988 0.961 . S
C975 C972 1.539 . S
C975 H989 0.958 . S
C975 H990 0.961 . S
C975 H991 0.960 . S
H976 C960 0.931 . S
H977 C965 0.929 . S
H978 C966 0.960 . S
H979 C966 0.962 . S
H980 C966 0.960 . S
H981 C967 0.961 . S
H982 C967 0.961 . S
H983 C967 0.961 . S
H984 C968 0.931 . S
H985 C973 0.930 . S
H986 C974 0.956 . S
H987 C974 0.961 . S
H988 C974 0.961 . S
H989 C975 0.958 . S
H990 C975 0.961 . S
H991 C975 0.960 . S
C992 C993 1.391 . S
C992 C994 1.394 . S
C992 H1008 0.931 . S
C993 C992 1.391 . S
C993 C997 1.376 . S
C994 C992 1.394 . S
C994 C995 1.369 . S
C994 C998 1.531 . S
C995 C994 1.369 . S
C995 C996 1.410 . S
C995 C1003 1.503 . S
C996 C995 1.410 . S
C996 C997 1.392 . S
C996 C999 1.511 . S
C997 C993 1.376 . S
C997 C996 1.392 . S
C997 H1009 0.929 . S
C998 C994 1.531 . S
C998 H1010 0.960 . S
C998 H1011 0.962 . S
C998 H1012 0.960 . S
C999 C996 1.511 . S
C999 H1013 0.961 . S
C999 H1014 0.961 . S
C999 H1015 0.961 . S
C1000 C1001 1.370 . S
C1000 C1002 1.363 . S
C1000 H1016 0.931 . S
C1001 C1000 1.370 . S
C1001 C1005 1.408 . S
C1002 C1000 1.363 . S
C1002 C1003 1.370 . S
C1002 C1006 1.524 . S
C1003 C995 1.503 . S
C1003 C1002 1.370 . S
C1003 C1004 1.403 . S
C1004 C1003 1.403 . S
C1004 C1005 1.404 . S
C1004 C1007 1.539 . S
C1005 C1001 1.408 . S
C1005 C1004 1.404 . S
C1005 H1017 0.930 . S
C1006 C1002 1.524 . S
C1006 H1018 0.956 . S
C1006 H1019 0.961 . S
C1006 H1020 0.961 . S
C1007 C1004 1.539 . S
C1007 H1021 0.958 . S
C1007 H1022 0.961 . S
C1007 H1023 0.960 . S
H1008 C992 0.931 . S
H1009 C997 0.929 . S
H1010 C998 0.960 . S
H1011 C998 0.962 . S
H1012 C998 0.960 . S
H1013 C999 0.961 . S
H1014 C999 0.961 . S
H1015 C999 0.961 . S
H1016 C1000 0.931 . S
H1017 C1005 0.930 . S
H1018 C1006 0.956 . S
H1019 C1006 0.961 . S
H1020 C1006 0.961 . S
H1021 C1007 0.958 . S
H1022 C1007 0.961 . S
H1023 C1007 0.960 . S
C1024 C1025 1.391 . S
C1024 C1026 1.394 . S
C1024 H1040 0.931 . S
C1025 C1024 1.391 . S
C1025 C1029 1.376 . S
C1026 C1024 1.394 . S
C1026 C1027 1.369 . S
C1026 C1030 1.531 . S
C1027 C1026 1.369 . S
C1027 C1028 1.410 . S
C1027 C1035 1.503 . S
C1028 C1027 1.410 . S
C1028 C1029 1.392 . S
C1028 C1031 1.511 . S
C1029 C1025 1.376 . S
C1029 C1028 1.392 . S
C1029 H1041 0.929 . S
C1030 C1026 1.531 . S
C1030 H1042 0.960 . S
C1030 H1043 0.962 . S
C1030 H1044 0.960 . S
C1031 C1028 1.511 . S
C1031 H1045 0.961 . S
C1031 H1046 0.961 . S
C1031 H1047 0.961 . S
C1032 C1033 1.370 . S
C1032 C1034 1.363 . S
C1032 H1048 0.931 . S
C1033 C1032 1.370 . S
C1033 C1037 1.408 . S
C1034 C1032 1.363 . S
C1034 C1035 1.370 . S
C1034 C1038 1.524 . S
C1035 C1027 1.503 . S
C1035 C1034 1.370 . S
C1035 C1036 1.403 . S
C1036 C1035 1.403 . S
C1036 C1037 1.404 . S
C1036 C1039 1.539 . S
C1037 C1033 1.408 . S
C1037 C1036 1.404 . S
C1037 H1049 0.930 . S
C1038 C1034 1.524 . S
C1038 H1050 0.956 . S
C1038 H1051 0.961 . S
C1038 H1052 0.961 . S
C1039 C1036 1.539 . S
C1039 H1053 0.958 . S
C1039 H1054 0.961 . S
C1039 H1055 0.960 . S
H1040 C1024 0.931 . S
H1041 C1029 0.929 . S
H1042 C1030 0.960 . S
H1043 C1030 0.962 . S
H1044 C1030 0.960 . S
H1045 C1031 0.961 . S
H1046 C1031 0.961 . S
H1047 C1031 0.961 . S
H1048 C1032 0.931 . S
H1049 C1037 0.930 . S
H1050 C1038 0.956 . S
H1051 C1038 0.961 . S
H1052 C1038 0.961 . S
H1053 C1039 0.958 . S
H1054 C1039 0.961 . S
H1055 C1039 0.960 . S
C1056 C1057 1.391 . S
C1056 C1058 1.394 . S
C1056 H1072 0.931 . S
C1057 C1056 1.391 . S
C1057 C1061 1.376 . S
C1058 C1056 1.394 . S
C1058 C1059 1.369 . S
C1058 C1062 1.531 . S
C1059 C1058 1.369 . S
C1059 C1060 1.410 . S
C1059 C1067 1.503 . S
C1060 C1059 1.410 . S
C1060 C1061 1.392 . S
C1060 C1063 1.511 . S
C1061 C1057 1.376 . S
C1061 C1060 1.392 . S
C1061 H1073 0.929 . S
C1062 C1058 1.531 . S
C1062 H1074 0.960 . S
C1062 H1075 0.962 . S
C1062 H1076 0.960 . S
C1063 C1060 1.511 . S
C1063 H1077 0.961 . S
C1063 H1078 0.961 . S
C1063 H1079 0.961 . S
C1064 C1065 1.370 . S
C1064 C1066 1.363 . S
C1064 H1080 0.931 . S
C1065 C1064 1.370 . S
C1065 C1069 1.408 . S
C1066 C1064 1.363 . S
C1066 C1067 1.370 . S
C1066 C1070 1.524 . S
C1067 C1059 1.503 . S
C1067 C1066 1.370 . S
C1067 C1068 1.403 . S
C1068 C1067 1.403 . S
C1068 C1069 1.404 . S
C1068 C1071 1.539 . S
C1069 C1065 1.408 . S
C1069 C1068 1.404 . S
C1069 H1081 0.930 . S
C1070 C1066 1.524 . S
C1070 H1082 0.956 . S
C1070 H1083 0.961 . S
C1070 H1084 0.961 . S
C1071 C1068 1.539 . S
C1071 H1085 0.958 . S
C1071 H1086 0.961 . S
C1071 H1087 0.960 . S
H1072 C1056 0.931 . S
H1073 C1061 0.929 . S
H1074 C1062 0.960 . S
H1075 C1062 0.962 . S
H1076 C1062 0.960 . S
H1077 C1063 0.961 . S
H1078 C1063 0.961 . S
H1079 C1063 0.961 . S
H1080 C1064 0.931 . S
H1081 C1069 0.930 . S
H1082 C1070 0.956 . S
H1083 C1070 0.961 . S
H1084 C1070 0.961 . S
H1085 C1071 0.958 . S
H1086 C1071 0.961 . S
H1087 C1071 0.960 . S
C1088 C1089 1.391 . S
C1088 C1090 1.394 . S
C1088 H1104 0.931 . S
C1089 C1088 1.391 . S
C1089 C1093 1.376 . S
C1090 C1088 1.394 . S
C1090 C1091 1.369 . S
C1090 C1094 1.531 . S
C1091 C1090 1.369 . S
C1091 C1092 1.410 . S
C1091 C1099 1.503 . S
C1092 C1091 1.410 . S
C1092 C1093 1.392 . S
C1092 C1095 1.511 . S
C1093 C1089 1.376 . S
C1093 C1092 1.392 . S
C1093 H1105 0.929 . S
C1094 C1090 1.531 . S
C1094 H1106 0.960 . S
C1094 H1107 0.962 . S
C1094 H1108 0.960 . S
C1095 C1092 1.511 . S
C1095 H1109 0.961 . S
C1095 H1110 0.961 . S
C1095 H1111 0.961 . S
C1096 C1097 1.370 . S
C1096 C1098 1.363 . S
C1096 H1112 0.931 . S
C1097 C1096 1.370 . S
C1097 C1101 1.408 . S
C1098 C1096 1.363 . S
C1098 C1099 1.370 . S
C1098 C1102 1.524 . S
C1099 C1091 1.503 . S
C1099 C1098 1.370 . S
C1099 C1100 1.403 . S
C1100 C1099 1.403 . S
C1100 C1101 1.404 . S
C1100 C1103 1.539 . S
C1101 C1097 1.408 . S
C1101 C1100 1.404 . S
C1101 H1113 0.930 . S
C1102 C1098 1.524 . S
C1102 H1114 0.956 . S
C1102 H1115 0.961 . S
C1102 H1116 0.961 . S
C1103 C1100 1.539 . S
C1103 H1117 0.958 . S
C1103 H1118 0.961 . S
C1103 H1119 0.960 . S
H1104 C1088 0.931 . S
H1105 C1093 0.929 . S
H1106 C1094 0.960 . S
H1107 C1094 0.962 . S
H1108 C1094 0.960 . S
H1109 C1095 0.961 . S
H1110 C1095 0.961 . S
H1111 C1095 0.961 . S
H1112 C1096 0.931 . S
H1113 C1101 0.930 . S
H1114 C1102 0.956 . S
H1115 C1102 0.961 . S
H1116 C1102 0.961 . S
H1117 C1103 0.958 . S
H1118 C1103 0.961 . S
H1119 C1103 0.960 . S
C1120 C1121 1.391 . S
C1120 C1122 1.394 . S
C1120 H1136 0.931 . S
C1121 C1120 1.391 . S
C1121 C1125 1.376 . S
C1122 C1120 1.394 . S
C1122 C1123 1.369 . S
C1122 C1126 1.531 . S
C1123 C1122 1.369 . S
C1123 C1124 1.410 . S
C1123 C1131 1.503 . S
C1124 C1123 1.410 . S
C1124 C1125 1.392 . S
C1124 C1127 1.511 . S
C1125 C1121 1.376 . S
C1125 C1124 1.392 . S
C1125 H1137 0.929 . S
C1126 C1122 1.531 . S
C1126 H1138 0.960 . S
C1126 H1139 0.962 . S
C1126 H1140 0.960 . S
C1127 C1124 1.511 . S
C1127 H1141 0.961 . S
C1127 H1142 0.961 . S
C1127 H1143 0.961 . S
C1128 C1129 1.370 . S
C1128 C1130 1.363 . S
C1128 H1144 0.931 . S
C1129 C1128 1.370 . S
C1129 C1133 1.408 . S
C1130 C1128 1.363 . S
C1130 C1131 1.370 . S
C1130 C1134 1.524 . S
C1131 C1123 1.503 . S
C1131 C1130 1.370 . S
C1131 C1132 1.403 . S
C1132 C1131 1.403 . S
C1132 C1133 1.404 . S
C1132 C1135 1.539 . S
C1133 C1129 1.408 . S
C1133 C1132 1.404 . S
C1133 H1145 0.930 . S
C1134 C1130 1.524 . S
C1134 H1146 0.956 . S
C1134 H1147 0.961 . S
C1134 H1148 0.961 . S
C1135 C1132 1.539 . S
C1135 H1149 0.958 . S
C1135 H1150 0.961 . S
C1135 H1151 0.960 . S
H1136 C1120 0.931 . S
H1137 C1125 0.929 . S
H1138 C1126 0.960 . S
H1139 C1126 0.962 . S
H1140 C1126 0.960 . S
H1141 C1127 0.961 . S
H1142 C1127 0.961 . S
H1143 C1127 0.961 . S
H1144 C1128 0.931 . S
H1145 C1133 0.930 . S
H1146 C1134 0.956 . S
H1147 C1134 0.961 . S
H1148 C1134 0.961 . S
H1149 C1135 0.958 . S
H1150 C1135 0.961 . S
H1151 C1135 0.960 . S
C1152 C1153 1.391 . S
C1152 C1154 1.394 . S
C1152 H1168 0.931 . S
C1153 C1152 1.391 . S
C1153 C1157 1.376 . S
C1154 C1152 1.394 . S
C1154 C1155 1.369 . S
C1154 C1158 1.531 . S
C1155 C1154 1.369 . S
C1155 C1156 1.410 . S
C1155 C1163 1.503 . S
C1156 C1155 1.410 . S
C1156 C1157 1.392 . S
C1156 C1159 1.511 . S
C1157 C1153 1.376 . S
C1157 C1156 1.392 . S
C1157 H1169 0.929 . S
C1158 C1154 1.531 . S
C1158 H1170 0.960 . S
C1158 H1171 0.962 . S
C1158 H1172 0.960 . S
C1159 C1156 1.511 . S
C1159 H1173 0.961 . S
C1159 H1174 0.961 . S
C1159 H1175 0.961 . S
C1160 C1161 1.370 . S
C1160 C1162 1.363 . S
C1160 H1176 0.931 . S
C1161 C1160 1.370 . S
C1161 C1165 1.408 . S
C1162 C1160 1.363 . S
C1162 C1163 1.370 . S
C1162 C1166 1.524 . S
C1163 C1155 1.503 . S
C1163 C1162 1.370 . S
C1163 C1164 1.403 . S
C1164 C1163 1.403 . S
C1164 C1165 1.404 . S
C1164 C1167 1.539 . S
C1165 C1161 1.408 . S
C1165 C1164 1.404 . S
C1165 H1177 0.930 . S
C1166 C1162 1.524 . S
C1166 H1178 0.956 . S
C1166 H1179 0.961 . S
C1166 H1180 0.961 . S
C1167 C1164 1.539 . S
C1167 H1181 0.958 . S
C1167 H1182 0.961 . S
C1167 H1183 0.960 . S
H1168 C1152 0.931 . S
H1169 C1157 0.929 . S
H1170 C1158 0.960 . S
H1171 C1158 0.962 . S
H1172 C1158 0.960 . S
H1173 C1159 0.961 . S
H1174 C1159 0.961 . S
H1175 C1159 0.961 . S
H1176 C1160 0.931 . S
H1177 C1165 0.930 . S
H1178 C1166 0.956 . S
H1179 C1166 0.961 . S
H1180 C1166 0.961 . S
H1181 C1167 0.958 . S
H1182 C1167 0.961 . S
H1183 C1167 0.960 . S
C1184 C1185 1.391 . S
C1184 C1186 1.394 . S
C1184 H1200 0.931 . S
C1185 C1184 1.391 . S
C1185 C1189 1.376 . S
C1186 C1184 1.394 . S
C1186 C1187 1.369 . S
C1186 C1190 1.531 . S
C1187 C1186 1.369 . S
C1187 C1188 1.410 . S
C1187 C1195 1.503 . S
C1188 C1187 1.410 . S
C1188 C1189 1.392 . S
C1188 C1191 1.511 . S
C1189 C1185 1.376 . S
C1189 C1188 1.392 . S
C1189 H1201 0.929 . S
C1190 C1186 1.531 . S
C1190 H1202 0.960 . S
C1190 H1203 0.962 . S
C1190 H1204 0.960 . S
C1191 C1188 1.511 . S
C1191 H1205 0.961 . S
C1191 H1206 0.961 . S
C1191 H1207 0.961 . S
C1192 C1193 1.370 . S
C1192 C1194 1.363 . S
C1192 H1208 0.931 . S
C1193 C1192 1.370 . S
C1193 C1197 1.408 . S
C1194 C1192 1.363 . S
C1194 C1195 1.370 . S
C1194 C1198 1.524 . S
C1195 C1187 1.503 . S
C1195 C1194 1.370 . S
C1195 C1196 1.403 . S
C1196 C1195 1.403 . S
C1196 C1197 1.404 . S
C1196 C1199 1.539 . S
C1197 C1193 1.408 . S
C1197 C1196 1.404 . S
C1197 H1209 0.930 . S
C1198 C1194 1.524 . S
C1198 H1210 0.956 . S
C1198 H1211 0.961 . S
C1198 H1212 0.961 . S
C1199 C1196 1.539 . S
C1199 H1213 0.958 . S
C1199 H1214 0.961 . S
C1199 H1215 0.960 . S
H1200 C1184 0.931 . S
H1201 C1189 0.929 . S
H1202 C1190 0.960 . S
H1203 C1190 0.962 . S
H1204 C1190 0.960 . S
H1205 C1191 0.961 . S
H1206 C1191 0.961 . S
H1207 C1191 0.961 . S
H1208 C1192 0.931 . S
H1209 C1197 0.930 . S
H1210 C1198 0.956 . S
H1211 C1198 0.961 . S
H1212 C1198 0.961 . S
H1213 C1199 0.958 . S
H1214 C1199 0.961 . S
H1215 C1199 0.960 . S
C1216 C1217 1.391 . S
C1216 C1218 1.394 . S
C1216 H1232 0.931 . S
C1217 C1216 1.391 . S
C1217 C1221 1.376 . S
C1218 C1216 1.394 . S
C1218 C1219 1.369 . S
C1218 C1222 1.531 . S
C1219 C1218 1.369 . S
C1219 C1220 1.410 . S
C1219 C1227 1.503 . S
C1220 C1219 1.410 . S
C1220 C1221 1.392 . S
C1220 C1223 1.511 . S
C1221 C1217 1.376 . S
C1221 C1220 1.392 . S
C1221 H1233 0.929 . S
C1222 C1218 1.531 . S
C1222 H1234 0.960 . S
C1222 H1235 0.962 . S
C1222 H1236 0.960 . S
C1223 C1220 1.511 . S
C1223 H1237 0.961 . S
C1223 H1238 0.961 . S
C1223 H1239 0.961 . S
C1224 C1225 1.370 . S
C1224 C1226 1.363 . S
C1224 H1240 0.931 . S
C1225 C1224 1.370 . S
C1225 C1229 1.408 . S
C1226 C1224 1.363 . S
C1226 C1227 1.370 . S
C1226 C1230 1.524 . S
C1227 C1219 1.503 . S
C1227 C1226 1.370 . S
C1227 C1228 1.403 . S
C1228 C1227 1.403 . S
C1228 C1229 1.404 . S
C1228 C1231 1.539 . S
C1229 C1225 1.408 . S
C1229 C1228 1.404 . S
C1229 H1241 0.930 . S
C1230 C1226 1.524 . S
C1230 H1242 0.956 . S
C1230 H1243 0.961 . S
C1230 H1244 0.961 . S
C1231 C1228 1.539 . S
C1231 H1245 0.958 . S
C1231 H1246 0.961 . S
C1231 H1247 0.960 . S
H1232 C1216 0.931 . S
H1233 C1221 0.929 . S
H1234 C1222 0.960 . S
H1235 C1222 0.962 . S
H1236 C1222 0.960 . S
H1237 C1223 0.961 . S
H1238 C1223 0.961 . S
H1239 C1223 0.961 . S
H1240 C1224 0.931 . S
H1241 C1229 0.930 . S
H1242 C1230 0.956 . S
H1243 C1230 0.961 . S
H1244 C1230 0.961 . S
H1245 C1231 0.958 . S
H1246 C1231 0.961 . S
H1247 C1231 0.960 . S
C1248 C1249 1.391 . S
C1248 C1250 1.394 . S
C1248 H1264 0.931 . S
C1249 C1248 1.391 . S
C1249 C1253 1.376 . S
C1250 C1248 1.394 . S
C1250 C1251 1.369 . S
C1250 C1254 1.531 . S
C1251 C1250 1.369 . S
C1251 C1252 1.410 . S
C1251 C1259 1.503 . S
C1252 C1251 1.410 . S
C1252 C1253 1.392 . S
C1252 C1255 1.511 . S
C1253 C1249 1.376 . S
C1253 C1252 1.392 . S
C1253 H1265 0.929 . S
C1254 C1250 1.531 . S
C1254 H1266 0.960 . S
C1254 H1267 0.962 . S
C1254 H1268 0.960 . S
C1255 C1252 1.511 . S
C1255 H1269 0.961 . S
C1255 H1270 0.961 . S
C1255 H1271 0.961 . S
C1256 C1257 1.370 . S
C1256 C1258 1.363 . S
C1256 H1272 0.931 . S
C1257 C1256 1.370 . S
C1257 C1261 1.408 . S
C1258 C1256 1.363 . S
C1258 C1259 1.370 . S
C1258 C1262 1.524 . S
C1259 C1251 1.503 . S
C1259 C1258 1.370 . S
C1259 C1260 1.403 . S
C1260 C1259 1.403 . S
C1260 C1261 1.404 . S
C1260 C1263 1.539 . S
C1261 C1257 1.408 . S
C1261 C1260 1.404 . S
C1261 H1273 0.930 . S
C1262 C1258 1.524 . S
C1262 H1274 0.956 . S
C1262 H1275 0.961 . S
C1262 H1276 0.961 . S
C1263 C1260 1.539 . S
C1263 H1277 0.958 . S
C1263 H1278 0.961 . S
C1263 H1279 0.960 . S
H1264 C1248 0.931 . S
H1265 C1253 0.929 . S
H1266 C1254 0.960 . S
H1267 C1254 0.962 . S
H1268 C1254 0.960 . S
H1269 C1255 0.961 . S
H1270 C1255 0.961 . S
H1271 C1255 0.961 . S
H1272 C1256 0.931 . S
H1273 C1261 0.930 . S
H1274 C1262 0.956 . S
H1275 C1262 0.961 . S
H1276 C1262 0.961 . S
H1277 C1263 0.958 . S
H1278 C1263 0.961 . S
H1279 C1263 0.960 . S
C1280 C1281 1.391 . S
C1280 C1282 1.394 . S
C1280 H1296 0.931 . S
C1281 C1280 1.391 . S
C1281 C1285 1.376 . S
C1282 C1280 1.394 . S
C1282 C1283 1.369 . S
C1282 C1286 1.531 . S
C1283 C1282 1.369 . S
C1283 C1284 1.410 . S
C1283 C1291 1.503 . S
C1284 C1283 1.410 . S
C1284 C1285 1.392 . S
C1284 C1287 1.511 . S
C1285 C1281 1.376 . S
C1285 C1284 1.392 . S
C1285 H1297 0.929 . S
C1286 C1282 1.531 . S
C1286 H1298 0.960 . S
C1286 H1299 0.962 . S
C1286 H1300 0.960 . S
C1287 C1284 1.511 . S
C1287 H1301 0.961 . S
C1287 H1302 0.961 . S
C1287 H1303 0.961 . S
C1288 C1289 1.370 . S
C1288 C1290 1.363 . S
C1288 H1304 0.931 . S
C1289 C1288 1.370 . S
C1289 C1293 1.408 . S
C1290 C1288 1.363 . S
C1290 C1291 1.370 . S
C1290 C1294 1.524 . S
C1291 C1283 1.503 . S
C1291 C1290 1.370 . S
C1291 C1292 1.403 . S
C1292 C1291 1.403 . S
C1292 C1293 1.404 . S
C1292 C1295 1.539 . S
C1293 C1289 1.408 . S
C1293 C1292 1.404 . S
C1293 H1305 0.930 . S
C1294 C1290 1.524 . S
C1294 H1306 0.956 . S
C1294 H1307 0.961 . S
C1294 H1308 0.961 . S
C1295 C1292 1.539 . S
C1295 H1309 0.958 . S
C1295 H1310 0.961 . S
C1295 H1311 0.960 . S
H1296 C1280 0.931 . S
H1297 C1285 0.929 . S
H1298 C1286 0.960 . S
H1299 C1286 0.962 . S
H1300 C1286 0.960 . S
H1301 C1287 0.961 . S
H1302 C1287 0.961 . S
H1303 C1287 0.961 . S
H1304 C1288 0.931 . S
H1305 C1293 0.930 . S
H1306 C1294 0.956 . S
H1307 C1294 0.961 . S
H1308 C1294 0.961 . S
H1309 C1295 0.958 . S
H1310 C1295 0.961 . S
H1311 C1295 0.960 . S
C1312 C1313 1.391 . S
C1312 C1314 1.394 . S
C1312 H1328 0.931 . S
C1313 C1312 1.391 . S
C1313 C1317 1.376 . S
C1314 C1312 1.394 . S
C1314 C1315 1.369 . S
C1314 C1318 1.531 . S
C1315 C1314 1.369 . S
C1315 C1316 1.410 . S
C1315 C1323 1.503 . S
C1316 C1315 1.410 . S
C1316 C1317 1.392 . S
C1316 C1319 1.511 . S
C1317 C1313 1.376 . S
C1317 C1316 1.392 . S
C1317 H1329 0.929 . S
C1318 C1314 1.531 . S
C1318 H1330 0.960 . S
C1318 H1331 0.962 . S
C1318 H1332 0.960 . S
C1319 C1316 1.511 . S
C1319 H1333 0.961 . S
C1319 H1334 0.961 . S
C1319 H1335 0.961 . S
C1320 C1321 1.370 . S
C1320 C1322 1.363 . S
C1320 H1336 0.931 . S
C1321 C1320 1.370 . S
C1321 C1325 1.408 . S
C1322 C1320 1.363 . S
C1322 C1323 1.370 . S
C1322 C1326 1.524 . S
C1323 C1315 1.503 . S
C1323 C1322 1.370 . S
C1323 C1324 1.403 . S
C1324 C1323 1.403 . S
C1324 C1325 1.404 . S
C1324 C1327 1.539 . S
C1325 C1321 1.408 . S
C1325 C1324 1.404 . S
C1325 H1337 0.930 . S
C1326 C1322 1.524 . S
C1326 H1338 0.956 . S
C1326 H1339 0.961 . S
C1326 H1340 0.961 . S
C1327 C1324 1.539 . S
C1327 H1341 0.958 . S
C1327 H1342 0.961 . S
C1327 H1343 0.960 . S
H1328 C1312 0.931 . S
H1329 C1317 0.929 . S
H1330 C1318 0.960 . S
H1331 C1318 0.962 . S
H1332 C1318 0.960 . S
H1333 C1319 0.961 . S
H1334 C1319 0.961 . S
H1335 C1319 0.961 . S
H1336 C1320 0.931 . S
H1337 C1325 0.930 . S
H1338 C1326 0.956 . S
H1339 C1326 0.961 . S
H1340 C1326 0.961 . S
H1341 C1327 0.958 . S
H1342 C1327 0.961 . S
H1343 C1327 0.960 . S
C1344 C1345 1.391 . S
C1344 C1346 1.394 . S
C1344 H1360 0.931 . S
C1345 C1344 1.391 . S
C1345 C1349 1.376 . S
C1346 C1344 1.394 . S
C1346 C1347 1.369 . S
C1346 C1350 1.531 . S
C1347 C1346 1.369 . S
C1347 C1348 1.410 . S
C1347 C1355 1.503 . S
C1348 C1347 1.410 . S
C1348 C1349 1.392 . S
C1348 C1351 1.511 . S
C1349 C1345 1.376 . S
C1349 C1348 1.392 . S
C1349 H1361 0.929 . S
C1350 C1346 1.531 . S
C1350 H1362 0.960 . S
C1350 H1363 0.962 . S
C1350 H1364 0.960 . S
C1351 C1348 1.511 . S
C1351 H1365 0.961 . S
C1351 H1366 0.961 . S
C1351 H1367 0.961 . S
C1352 C1353 1.370 . S
C1352 C1354 1.363 . S
C1352 H1368 0.931 . S
C1353 C1352 1.370 . S
C1353 C1357 1.408 . S
C1354 C1352 1.363 . S
C1354 C1355 1.370 . S
C1354 C1358 1.524 . S
C1355 C1347 1.503 . S
C1355 C1354 1.370 . S
C1355 C1356 1.403 . S
C1356 C1355 1.403 . S
C1356 C1357 1.404 . S
C1356 C1359 1.539 . S
C1357 C1353 1.408 . S
C1357 C1356 1.404 . S
C1357 H1369 0.930 . S
C1358 C1354 1.524 . S
C1358 H1370 0.956 . S
C1358 H1371 0.961 . S
C1358 H1372 0.961 . S
C1359 C1356 1.539 . S
C1359 H1373 0.958 . S
C1359 H1374 0.961 . S
C1359 H1375 0.960 . S
H1360 C1344 0.931 . S
H1361 C1349 0.929 . S
H1362 C1350 0.960 . S
H1363 C1350 0.962 . S
H1364 C1350 0.960 . S
H1365 C1351 0.961 . S
H1366 C1351 0.961 . S
H1367 C1351 0.961 . S
H1368 C1352 0.931 . S
H1369 C1357 0.930 . S
H1370 C1358 0.956 . S
H1371 C1358 0.961 . S
H1372 C1358 0.961 . S
H1373 C1359 0.958 . S
H1374 C1359 0.961 . S
H1375 C1359 0.960 . S
C1376 C1377 1.391 . S
C1376 C1378 1.394 . S
C1376 H1392 0.931 . S
C1377 C1376 1.391 . S
C1377 C1381 1.376 . S
C1378 C1376 1.394 . S
C1378 C1379 1.369 . S
C1378 C1382 1.531 . S
C1379 C1378 1.369 . S
C1379 C1380 1.410 . S
C1379 C1387 1.503 . S
C1380 C1379 1.410 . S
C1380 C1381 1.392 . S
C1380 C1383 1.511 . S
C1381 C1377 1.376 . S
C1381 C1380 1.392 . S
C1381 H1393 0.929 . S
C1382 C1378 1.531 . S
C1382 H1394 0.960 . S
C1382 H1395 0.962 . S
C1382 H1396 0.960 . S
C1383 C1380 1.511 . S
C1383 H1397 0.961 . S
C1383 H1398 0.961 . S
C1383 H1399 0.961 . S
C1384 C1385 1.370 . S
C1384 C1386 1.363 . S
C1384 H1400 0.931 . S
C1385 C1384 1.370 . S
C1385 C1389 1.408 . S
C1386 C1384 1.363 . S
C1386 C1387 1.370 . S
C1386 C1390 1.524 . S
C1387 C1379 1.503 . S
C1387 C1386 1.370 . S
C1387 C1388 1.403 . S
C1388 C1387 1.403 . S
C1388 C1389 1.404 . S
C1388 C1391 1.539 . S
C1389 C1385 1.408 . S
C1389 C1388 1.404 . S
C1389 H1401 0.930 . S
C1390 C1386 1.524 . S
C1390 H1402 0.956 . S
C1390 H1403 0.961 . S
C1390 H1404 0.961 . S
C1391 C1388 1.539 . S
C1391 H1405 0.958 . S
C1391 H1406 0.961 . S
C1391 H1407 0.960 . S
H1392 C1376 0.931 . S
H1393 C1381 0.929 . S
H1394 C1382 0.960 . S
H1395 C1382 0.962 . S
H1396 C1382 0.960 . S
H1397 C1383 0.961 . S
H1398 C1383 0.961 . S
H1399 C1383 0.961 . S
H1400 C1384 0.931 . S
H1401 C1389 0.930 . S
H1402 C1390 0.956 . S
H1403 C1390 0.961 . S
H1404 C1390 0.961 . S
H1405 C1391 0.958 . S
H1406 C1391 0.961 . S
H1407 C1391 0.960 . S
C1408 C1409 1.391 . S
C1408 C1410 1.394 . S
C1408 H1424 0.931 . S
C1409 C1408 1.391 . S
C1409 C1413 1.376 . S
C1410 C1408 1.394 . S
C1410 C1411 1.369 . S
C1410 C1414 1.531 . S
C1411 C1410 1.369 . S
C1411 C1412 1.410 . S
C1411 C1419 1.503 . S
C1412 C1411 1.410 . S
C1412 C1413 1.392 . S
C1412 C1415 1.511 . S
C1413 C1409 1.376 . S
C1413 C1412 1.392 . S
C1413 H1425 0.929 . S
C1414 C1410 1.531 . S
C1414 H1426 0.960 . S
C1414 H1427 0.962 . S
C1414 H1428 0.960 . S
C1415 C1412 1.511 . S
C1415 H1429 0.961 . S
C1415 H1430 0.961 . S
C1415 H1431 0.961 . S
C1416 C1417 1.370 . S
C1416 C1418 1.363 . S
C1416 H1432 0.931 . S
C1417 C1416 1.370 . S
C1417 C1421 1.408 . S
C1418 C1416 1.363 . S
C1418 C1419 1.370 . S
C1418 C1422 1.524 . S
C1419 C1411 1.503 . S
C1419 C1418 1.370 . S
C1419 C1420 1.403 . S
C1420 C1419 1.403 . S
C1420 C1421 1.404 . S
C1420 C1423 1.539 . S
C1421 C1417 1.408 . S
C1421 C1420 1.404 . S
C1421 H1433 0.930 . S
C1422 C1418 1.524 . S
C1422 H1434 0.956 . S
C1422 H1435 0.961 . S
C1422 H1436 0.961 . S
C1423 C1420 1.539 . S
C1423 H1437 0.958 . S
C1423 H1438 0.961 . S
C1423 H1439 0.960 . S
H1424 C1408 0.931 . S
H1425 C1413 0.929 . S
H1426 C1414 0.960 . S
H1427 C1414 0.962 . S
H1428 C1414 0.960 . S
H1429 C1415 0.961 . S
H1430 C1415 0.961 . S
H1431 C1415 0.961 . S
H1432 C1416 0.931 . S
H1433 C1421 0.930 . S
H1434 C1422 0.956 . S
H1435 C1422 0.961 . S
H1436 C1422 0.961 . S
H1437 C1423 0.958 . S
H1438 C1423 0.961 . S
H1439 C1423 0.960 . S
C1440 C1441 1.391 . S
C1440 C1442 1.394 . S
C1440 H1456 0.931 . S
C1441 C1440 1.391 . S
C1441 C1445 1.376 . S
C1442 C1440 1.394 . S
C1442 C1443 1.369 . S
C1442 C1446 1.531 . S
C1443 C1442 1.369 . S
C1443 C1444 1.410 . S
C1443 C1451 1.503 . S
C1444 C1443 1.410 . S
C1444 C1445 1.392 . S
C1444 C1447 1.511 . S
C1445 C1441 1.376 . S
C1445 C1444 1.392 . S
C1445 H1457 0.929 . S
C1446 C1442 1.531 . S
C1446 H1458 0.960 . S
C1446 H1459 0.962 . S
C1446 H1460 0.960 . S
C1447 C1444 1.511 . S
C1447 H1461 0.961 . S
C1447 H1462 0.961 . S
C1447 H1463 0.961 . S
C1448 C1449 1.370 . S
C1448 C1450 1.363 . S
C1448 H1464 0.931 . S
C1449 C1448 1.370 . S
C1449 C1453 1.408 . S
C1450 C1448 1.363 . S
C1450 C1451 1.370 . S
C1450 C1454 1.524 . S
C1451 C1443 1.503 . S
C1451 C1450 1.370 . S
C1451 C1452 1.403 . S
C1452 C1451 1.403 . S
C1452 C1453 1.404 . S
C1452 C1455 1.539 . S
C1453 C1449 1.408 . S
C1453 C1452 1.404 . S
C1453 H1465 0.930 . S
C1454 C1450 1.524 . S
C1454 H1466 0.956 . S
C1454 H1467 0.961 . S
C1454 H1468 0.961 . S
C1455 C1452 1.539 . S
C1455 H1469 0.958 . S
C1455 H1470 0.961 . S
C1455 H1471 0.960 . S
H1456 C1440 0.931 . S
H1457 C1445 0.929 . S
H1458 C1446 0.960 . S
H1459 C1446 0.962 . S
H1460 C1446 0.960 . S
H1461 C1447 0.961 . S
H1462 C1447 0.961 . S
H1463 C1447 0.961 . S
H1464 C1448 0.931 . S
H1465 C1453 0.930 . S
H1466 C1454 0.956 . S
H1467 C1454 0.961 . S
H1468 C1454 0.961 . S
H1469 C1455 0.958 . S
H1470 C1455 0.961 . S
H1471 C1455 0.960 . S
C1472 C1473 1.391 . S
C1472 C1474 1.394 . S
C1472 H1488 0.931 . S
C1473 C1472 1.391 . S
C1473 C1477 1.376 . S
C1474 C1472 1.394 . S
C1474 C1475 1.369 . S
C1474 C1478 1.531 . S
C1475 C1474 1.369 . S
C1475 C1476 1.410 . S
C1475 C1483 1.503 . S
C1476 C1475 1.410 . S
C1476 C1477 1.392 . S
C1476 C1479 1.511 . S
C1477 C1473 1.376 . S
C1477 C1476 1.392 . S
C1477 H1489 0.929 . S
C1478 C1474 1.531 . S
C1478 H1490 0.960 . S
C1478 H1491 0.962 . S
C1478 H1492 0.960 . S
C1479 C1476 1.511 . S
C1479 H1493 0.961 . S
C1479 H1494 0.961 . S
C1479 H1495 0.961 . S
C1480 C1481 1.370 . S
C1480 C1482 1.363 . S
C1480 H1496 0.931 . S
C1481 C1480 1.370 . S
C1481 C1485 1.408 . S
C1482 C1480 1.363 . S
C1482 C1483 1.370 . S
C1482 C1486 1.524 . S
C1483 C1475 1.503 . S
C1483 C1482 1.370 . S
C1483 C1484 1.403 . S
C1484 C1483 1.403 . S
C1484 C1485 1.404 . S
C1484 C1487 1.539 . S
C1485 C1481 1.408 . S
C1485 C1484 1.404 . S
C1485 H1497 0.930 . S
C1486 C1482 1.524 . S
C1486 H1498 0.956 . S
C1486 H1499 0.961 . S
C1486 H1500 0.961 . S
C1487 C1484 1.539 . S
C1487 H1501 0.958 . S
C1487 H1502 0.961 . S
C1487 H1503 0.960 . S
H1488 C1472 0.931 . S
H1489 C1477 0.929 . S
H1490 C1478 0.960 . S
H1491 C1478 0.962 . S
H1492 C1478 0.960 . S
H1493 C1479 0.961 . S
H1494 C1479 0.961 . S
H1495 C1479 0.961 . S
H1496 C1480 0.931 . S
H1497 C1485 0.930 . S
H1498 C1486 0.956 . S
H1499 C1486 0.961 . S
H1500 C1486 0.961 . S
H1501 C1487 0.958 . S
H1502 C1487 0.961 . S
H1503 C1487 0.960 . S
C1504 C1505 1.391 . S
C1504 C1506 1.394 . S
C1504 H1520 0.931 . S
C1505 C1504 1.391 . S
C1505 C1509 1.376 . S
C1506 C1504 1.394 . S
C1506 C1507 1.369 . S
C1506 C1510 1.531 . S
C1507 C1506 1.369 . S
C1507 C1508 1.410 . S
C1507 C1515 1.503 . S
C1508 C1507 1.410 . S
C1508 C1509 1.392 . S
C1508 C1511 1.511 . S
C1509 C1505 1.376 . S
C1509 C1508 1.392 . S
C1509 H1521 0.929 . S
C1510 C1506 1.531 . S
C1510 H1522 0.960 . S
C1510 H1523 0.962 . S
C1510 H1524 0.960 . S
C1511 C1508 1.511 . S
C1511 H1525 0.961 . S
C1511 H1526 0.961 . S
C1511 H1527 0.961 . S
C1512 C1513 1.370 . S
C1512 C1514 1.363 . S
C1512 H1528 0.931 . S
C1513 C1512 1.370 . S
C1513 C1517 1.408 . S
C1514 C1512 1.363 . S
C1514 C1515 1.370 . S
C1514 C1518 1.524 . S
C1515 C1507 1.503 . S
C1515 C1514 1.370 . S
C1515 C1516 1.403 . S
C1516 C1515 1.403 . S
C1516 C1517 1.404 . S
C1516 C1519 1.539 . S
C1517 C1513 1.408 . S
C1517 C1516 1.404 . S
C1517 H1529 0.930 . S
C1518 C1514 1.524 . S
C1518 H1530 0.956 . S
C1518 H1531 0.961 . S
C1518 H1532 0.961 . S
C1519 C1516 1.539 . S
C1519 H1533 0.958 . S
C1519 H1534 0.961 . S
C1519 H1535 0.960 . S
H1520 C1504 0.931 . S
H1521 C1509 0.929 . S
H1522 C1510 0.960 . S
H1523 C1510 0.962 . S
H1524 C1510 0.960 . S
H1525 C1511 0.961 . S
H1526 C1511 0.961 . S
H1527 C1511 0.961 . S
H1528 C1512 0.931 . S
H1529 C1517 0.930 . S
H1530 C1518 0.956 . S
H1531 C1518 0.961 . S
H1532 C1518 0.961 . S
H1533 C1519 0.958 . S
H1534 C1519 0.961 . S
H1535 C1519 0.960 . S
C1536 C1537 1.391 . S
C1536 C1538 1.394 . S
C1536 H1552 0.931 . S
C1537 C1536 1.391 . S
C1537 C1541 1.376 . S
C1538 C1536 1.394 . S
C1538 C1539 1.369 . S
C1538 C1542 1.531 . S
C1539 C1538 1.369 . S
C1539 C1540 1.410 . S
C1539 C1547 1.503 . S
C1540 C1539 1.410 . S
C1540 C1541 1.392 . S
C1540 C1543 1.511 . S
C1541 C1537 1.376 . S
C1541 C1540 1.392 . S
C1541 H1553 0.929 . S
C1542 C1538 1.531 . S
C1542 H1554 0.960 . S
C1542 H1555 0.962 . S
C1542 H1556 0.960 . S
C1543 C1540 1.511 . S
C1543 H1557 0.961 . S
C1543 H1558 0.961 . S
C1543 H1559 0.961 . S
C1544 C1545 1.370 . S
C1544 C1546 1.363 . S
C1544 H1560 0.931 . S
C1545 C1544 1.370 . S
C1545 C1549 1.408 . S
C1546 C1544 1.363 . S
C1546 C1547 1.370 . S
C1546 C1550 1.524 . S
C1547 C1539 1.503 . S
C1547 C1546 1.370 . S
C1547 C1548 1.403 . S
C1548 C1547 1.403 . S
C1548 C1549 1.404 . S
C1548 C1551 1.539 . S
C1549 C1545 1.408 . S
C1549 C1548 1.404 . S
C1549 H1561 0.930 . S
C1550 C1546 1.524 . S
C1550 H1562 0.956 . S
C1550 H1563 0.961 . S
C1550 H1564 0.961 . S
C1551 C1548 1.539 . S
C1551 H1565 0.958 . S
C1551 H1566 0.961 . S
C1551 H1567 0.960 . S
H1552 C1536 0.931 . S
H1553 C1541 0.929 . S
H1554 C1542 0.960 . S
H1555 C1542 0.962 . S
H1556 C1542 0.960 . S
H1557 C1543 0.961 . S
H1558 C1543 0.961 . S
H1559 C1543 0.961 . S
H1560 C1544 0.931 . S
H1561 C1549 0.930 . S
H1562 C1550 0.956 . S
H1563 C1550 0.961 . S
H1564 C1550 0.961 . S
H1565 C1551 0.958 . S
H1566 C1551 0.961 . S
H1567 C1551 0.960 . S
C1568 C1569 1.391 . S
C1568 C1570 1.394 . S
C1568 H1584 0.931 . S
C1569 C1568 1.391 . S
C1569 C1573 1.376 . S
C1570 C1568 1.394 . S
C1570 C1571 1.369 . S
C1570 C1574 1.531 . S
C1571 C1570 1.369 . S
C1571 C1572 1.410 . S
C1571 C1579 1.503 . S
C1572 C1571 1.410 . S
C1572 C1573 1.392 . S
C1572 C1575 1.511 . S
C1573 C1569 1.376 . S
C1573 C1572 1.392 . S
C1573 H1585 0.929 . S
C1574 C1570 1.531 . S
C1574 H1586 0.960 . S
C1574 H1587 0.962 . S
C1574 H1588 0.960 . S
C1575 C1572 1.511 . S
C1575 H1589 0.961 . S
C1575 H1590 0.961 . S
C1575 H1591 0.961 . S
C1576 C1577 1.370 . S
C1576 C1578 1.363 . S
C1576 H1592 0.931 . S
C1577 C1576 1.370 . S
C1577 C1581 1.408 . S
C1578 C1576 1.363 . S
C1578 C1579 1.370 . S
C1578 C1582 1.524 . S
C1579 C1571 1.503 . S
C1579 C1578 1.370 . S
C1579 C1580 1.403 . S
C1580 C1579 1.403 . S
C1580 C1581 1.404 . S
C1580 C1583 1.539 . S
C1581 C1577 1.408 . S
C1581 C1580 1.404 . S
C1581 H1593 0.930 . S
C1582 C1578 1.524 . S
C1582 H1594 0.956 . S
C1582 H1595 0.961 . S
C1582 H1596 0.961 . S
C1583 C1580 1.539 . S
C1583 H1597 0.958 . S
C1583 H1598 0.961 . S
C1583 H1599 0.960 . S
H1584 C1568 0.931 . S
H1585 C1573 0.929 . S
H1586 C1574 0.960 . S
H1587 C1574 0.962 . S
H1588 C1574 0.960 . S
H1589 C1575 0.961 . S
H1590 C1575 0.961 . S
H1591 C1575 0.961 . S
H1592 C1576 0.931 . S
H1593 C1581 0.930 . S
H1594 C1582 0.956 . S
H1595 C1582 0.961 . S
H1596 C1582 0.961 . S
H1597 C1583 0.958 . S
H1598 C1583 0.961 . S
H1599 C1583 0.960 . S
C1600 C1601 1.391 . S
C1600 C1602 1.394 . S
C1600 H1616 0.931 . S
C1601 C1600 1.391 . S
C1601 C1605 1.376 . S
C1602 C1600 1.394 . S
C1602 C1603 1.369 . S
C1602 C1606 1.531 . S
C1603 C1602 1.369 . S
C1603 C1604 1.410 . S
C1603 C1611 1.503 . S
C1604 C1603 1.410 . S
C1604 C1605 1.392 . S
C1604 C1607 1.511 . S
C1605 C1601 1.376 . S
C1605 C1604 1.392 . S
C1605 H1617 0.929 . S
C1606 C1602 1.531 . S
C1606 H1618 0.960 . S
C1606 H1619 0.962 . S
C1606 H1620 0.960 . S
C1607 C1604 1.511 . S
C1607 H1621 0.961 . S
C1607 H1622 0.961 . S
C1607 H1623 0.961 . S
C1608 C1609 1.370 . S
C1608 C1610 1.363 . S
C1608 H1624 0.931 . S
C1609 C1608 1.370 . S
C1609 C1613 1.408 . S
C1610 C1608 1.363 . S
C1610 C1611 1.370 . S
C1610 C1614 1.524 . S
C1611 C1603 1.503 . S
C1611 C1610 1.370 . S
C1611 C1612 1.403 . S
C1612 C1611 1.403 . S
C1612 C1613 1.404 . S
C1612 C1615 1.539 . S
C1613 C1609 1.408 . S
C1613 C1612 1.404 . S
C1613 H1625 0.930 . S
C1614 C1610 1.524 . S
C1614 H1626 0.956 . S
C1614 H1627 0.961 . S
C1614 H1628 0.961 . S
C1615 C1612 1.539 . S
C1615 H1629 0.958 . S
C1615 H1630 0.961 . S
C1615 H1631 0.960 . S
H1616 C1600 0.931 . S
H1617 C1605 0.929 . S
H1618 C1606 0.960 . S
H1619 C1606 0.962 . S
H1620 C1606 0.960 . S
H1621 C1607 0.961 . S
H1622 C1607 0.961 . S
H1623 C1607 0.961 . S
H1624 C1608 0.931 . S
H1625 C1613 0.930 . S
H1626 C1614 0.956 . S
H1627 C1614 0.961 . S
H1628 C1614 0.961 . S
H1629 C1615 0.958 . S
H1630 C1615 0.961 . S
H1631 C1615 0.960 . S
C1632 C1633 1.391 . S
C1632 C1634 1.394 . S
C1632 H1648 0.931 . S
C1633 C1632 1.391 . S
C1633 C1637 1.376 . S
C1634 C1632 1.394 . S
C1634 C1635 1.369 . S
C1634 C1638 1.531 . S
C1635 C1634 1.369 . S
C1635 C1636 1.410 . S
C1635 C1643 1.503 . S
C1636 C1635 1.410 . S
C1636 C1637 1.392 . S
C1636 C1639 1.511 . S
C1637 C1633 1.376 . S
C1637 C1636 1.392 . S
C1637 H1649 0.929 . S
C1638 C1634 1.531 . S
C1638 H1650 0.960 . S
C1638 H1651 0.962 . S
C1638 H1652 0.960 . S
C1639 C1636 1.511 . S
C1639 H1653 0.961 . S
C1639 H1654 0.961 . S
C1639 H1655 0.961 . S
C1640 C1641 1.370 . S
C1640 C1642 1.363 . S
C1640 H1656 0.931 . S
C1641 C1640 1.370 . S
C1641 C1645 1.408 . S
C1642 C1640 1.363 . S
C1642 C1643 1.370 . S
C1642 C1646 1.524 . S
C1643 C1635 1.503 . S
C1643 C1642 1.370 . S
C1643 C1644 1.403 . S
C1644 C1643 1.403 . S
C1644 C1645 1.404 . S
C1644 C1647 1.539 . S
C1645 C1641 1.408 . S
C1645 C1644 1.404 . S
C1645 H1657 0.930 . S
C1646 C1642 1.524 . S
C1646 H1658 0.956 . S
C1646 H1659 0.961 . S
C1646 H1660 0.961 . S
C1647 C1644 1.539 . S
C1647 H1661 0.958 . S
C1647 H1662 0.961 . S
C1647 H1663 0.960 . S
H1648 C1632 0.931 . S
H1649 C1637 0.929 . S
H1650 C1638 0.960 . S
H1651 C1638 0.962 . S
H1652 C1638 0.960 . S
H1653 C1639 0.961 . S
H1654 C1639 0.961 . S
H1655 C1639 0.961 . S
H1656 C1640 0.931 . S
H1657 C1645 0.930 . S
H1658 C1646 0.956 . S
H1659 C1646 0.961 . S
H1660 C1646 0.961 . S
H1661 C1647 0.958 . S
H1662 C1647 0.961 . S
H1663 C1647 0.960 . S
C1664 C1665 1.391 . S
C1664 C1666 1.394 . S
C1664 H1680 0.931 . S
C1665 C1664 1.391 . S
C1665 C1669 1.376 . S
C1666 C1664 1.394 . S
C1666 C1667 1.369 . S
C1666 C1670 1.531 . S
C1667 C1666 1.369 . S
C1667 C1668 1.410 . S
C1667 C1675 1.503 . S
C1668 C1667 1.410 . S
C1668 C1669 1.392 . S
C1668 C1671 1.511 . S
C1669 C1665 1.376 . S
C1669 C1668 1.392 . S
C1669 H1681 0.929 . S
C1670 C1666 1.531 . S
C1670 H1682 0.960 . S
C1670 H1683 0.962 . S
C1670 H1684 0.960 . S
C1671 C1668 1.511 . S
C1671 H1685 0.961 . S
C1671 H1686 0.961 . S
C1671 H1687 0.961 . S
C1672 C1673 1.370 . S
C1672 C1674 1.363 . S
C1672 H1688 0.931 . S
C1673 C1672 1.370 . S
C1673 C1677 1.408 . S
C1674 C1672 1.363 . S
C1674 C1675 1.370 . S
C1674 C1678 1.524 . S
C1675 C1667 1.503 . S
C1675 C1674 1.370 . S
C1675 C1676 1.403 . S
C1676 C1675 1.403 . S
C1676 C1677 1.404 . S
C1676 C1679 1.539 . S
C1677 C1673 1.408 . S
C1677 C1676 1.404 . S
C1677 H1689 0.930 . S
C1678 C1674 1.524 . S
C1678 H1690 0.956 . S
C1678 H1691 0.961 . S
C1678 H1692 0.961 . S
C1679 C1676 1.539 . S
C1679 H1693 0.958 . S
C1679 H1694 0.961 . S
C1679 H1695 0.960 . S
H1680 C1664 0.931 . S
H1681 C1669 0.929 . S
H1682 C1670 0.960 . S
H1683 C1670 0.962 . S
H1684 C1670 0.960 . S
H1685 C1671 0.961 . S
H1686 C1671 0.961 . S
H1687 C1671 0.961 . S
H1688 C1672 0.931 . S
H1689 C1677 0.930 . S
H1690 C1678 0.956 . S
H1691 C1678 0.961 . S
H1692 C1678 0.961 . S
H1693 C1679 0.958 . S
H1694 C1679 0.961 . S
H1695 C1679 0.960 . S
C1696 C1697 1.391 . S
C1696 C1698 1.394 . S
C1696 H1712 0.931 . S
C1697 C1696 1.391 . S
C1697 C1701 1.376 . S
C1698 C1696 1.394 . S
C1698 C1699 1.369 . S
C1698 C1702 1.531 . S
C1699 C1698 1.369 . S
C1699 C1700 1.410 . S
C1699 C1707 1.503 . S
C1700 C1699 1.410 . S
C1700 C1701 1.392 . S
C1700 C1703 1.511 . S
C1701 C1697 1.376 . S
C1701 C1700 1.392 . S
C1701 H1713 0.929 . S
C1702 C1698 1.531 . S
C1702 H1714 0.960 . S
C1702 H1715 0.962 . S
C1702 H1716 0.960 . S
C1703 C1700 1.511 . S
C1703 H1717 0.961 . S
C1703 H1718 0.961 . S
C1703 H1719 0.961 . S
C1704 C1705 1.370 . S
C1704 C1706 1.363 . S
C1704 H1720 0.931 . S
C1705 C1704 1.370 . S
C1705 C1709 1.408 . S
C1706 C1704 1.363 . S
C1706 C1707 1.370 . S
C1706 C1710 1.524 . S
C1707 C1699 1.503 . S
C1707 C1706 1.370 . S
C1707 C1708 1.403 . S
C1708 C1707 1.403 . S
C1708 C1709 1.404 . S
C1708 C1711 1.539 . S
C1709 C1705 1.408 . S
C1709 C1708 1.404 . S
C1709 H1721 0.930 . S
C1710 C1706 1.524 . S
C1710 H1722 0.956 . S
C1710 H1723 0.961 . S
C1710 H1724 0.961 . S
C1711 C1708 1.539 . S
C1711 H1725 0.958 . S
C1711 H1726 0.961 . S
C1711 H1727 0.960 . S
H1712 C1696 0.931 . S
H1713 C1701 0.929 . S
H1714 C1702 0.960 . S
H1715 C1702 0.962 . S
H1716 C1702 0.960 . S
H1717 C1703 0.961 . S
H1718 C1703 0.961 . S
H1719 C1703 0.961 . S
H1720 C1704 0.931 . S
H1721 C1709 0.930 . S
H1722 C1710 0.956 . S
H1723 C1710 0.961 . S
H1724 C1710 0.961 . S
H1725 C1711 0.958 . S
H1726 C1711 0.961 . S
H1727 C1711 0.960 . S
C1728 C1729 1.391 . S
C1728 C1730 1.394 . S
C1728 H1744 0.931 . S
C1729 C1728 1.391 . S
C1729 C1733 1.376 . S
C1730 C1728 1.394 . S
C1730 C1731 1.369 . S
C1730 C1734 1.531 . S
C1731 C1730 1.369 . S
C1731 C1732 1.410 . S
C1731 C1739 1.503 . S
C1732 C1731 1.410 . S
C1732 C1733 1.392 . S
C1732 C1735 1.511 . S
C1733 C1729 1.376 . S
C1733 C1732 1.392 . S
C1733 H1745 0.929 . S
C1734 C1730 1.531 . S
C1734 H1746 0.960 . S
C1734 H1747 0.962 . S
C1734 H1748 0.960 . S
C1735 C1732 1.511 . S
C1735 H1749 0.961 . S
C1735 H1750 0.961 . S
C1735 H1751 0.961 . S
C1736 C1737 1.370 . S
C1736 C1738 1.363 . S
C1736 H1752 0.931 . S
C1737 C1736 1.370 . S
C1737 C1741 1.408 . S
C1738 C1736 1.363 . S
C1738 C1739 1.370 . S
C1738 C1742 1.524 . S
C1739 C1731 1.503 . S
C1739 C1738 1.370 . S
C1739 C1740 1.403 . S
C1740 C1739 1.403 . S
C1740 C1741 1.404 . S
C1740 C1743 1.539 . S
C1741 C1737 1.408 . S
C1741 C1740 1.404 . S
C1741 H1753 0.930 . S
C1742 C1738 1.524 . S
C1742 H1754 0.956 . S
C1742 H1755 0.961 . S
C1742 H1756 0.961 . S
C1743 C1740 1.539 . S
C1743 H1757 0.958 . S
C1743 H1758 0.961 . S
C1743 H1759 0.960 . S
H1744 C1728 0.931 . S
H1745 C1733 0.929 . S
H1746 C1734 0.960 . S
H1747 C1734 0.962 . S
H1748 C1734 0.960 . S
H1749 C1735 0.961 . S
H1750 C1735 0.961 . S
H1751 C1735 0.961 . S
H1752 C1736 0.931 . S
H1753 C1741 0.930 . S
H1754 C1742 0.956 . S
H1755 C1742 0.961 . S
H1756 C1742 0.961 . S
H1757 C1743 0.958 . S
H1758 C1743 0.961 . S
H1759 C1743 0.960 . S
C1760 C1761 1.391 . S
C1760 C1762 1.394 . S
C1760 H1776 0.931 . S
C1761 C1760 1.391 . S
C1761 C1765 1.376 . S
C1762 C1760 1.394 . S
C1762 C1763 1.369 . S
C1762 C1766 1.531 . S
C1763 C1762 1.369 . S
C1763 C1764 1.410 . S
C1763 C1771 1.503 . S
C1764 C1763 1.410 . S
C1764 C1765 1.392 . S
C1764 C1767 1.511 . S
C1765 C1761 1.376 . S
C1765 C1764 1.392 . S
C1765 H1777 0.929 . S
C1766 C1762 1.531 . S
C1766 H1778 0.960 . S
C1766 H1779 0.962 . S
C1766 H1780 0.960 . S
C1767 C1764 1.511 . S
C1767 H1781 0.961 . S
C1767 H1782 0.961 . S
C1767 H1783 0.961 . S
C1768 C1769 1.370 . S
C1768 C1770 1.363 . S
C1768 H1784 0.931 . S
C1769 C1768 1.370 . S
C1769 C1773 1.408 . S
C1770 C1768 1.363 . S
C1770 C1771 1.370 . S
C1770 C1774 1.524 . S
C1771 C1763 1.503 . S
C1771 C1770 1.370 . S
C1771 C1772 1.403 . S
C1772 C1771 1.403 . S
C1772 C1773 1.404 . S
C1772 C1775 1.539 . S
C1773 C1769 1.408 . S
C1773 C1772 1.404 . S
C1773 H1785 0.930 . S
C1774 C1770 1.524 . S
C1774 H1786 0.956 . S
C1774 H1787 0.961 . S
C1774 H1788 0.961 . S
C1775 C1772 1.539 . S
C1775 H1789 0.958 . S
C1775 H1790 0.961 . S
C1775 H1791 0.960 . S
H1776 C1760 0.931 . S
H1777 C1765 0.929 . S
H1778 C1766 0.960 . S
H1779 C1766 0.962 . S
H1780 C1766 0.960 . S
H1781 C1767 0.961 . S
H1782 C1767 0.961 . S
H1783 C1767 0.961 . S
H1784 C1768 0.931 . S
H1785 C1773 0.930 . S
H1786 C1774 0.956 . S
H1787 C1774 0.961 . S
H1788 C1774 0.961 . S
H1789 C1775 0.958 . S
H1790 C1775 0.961 . S
H1791 C1775 0.960 . S
C1792 C1793 1.391 . S
C1792 C1794 1.394 . S
C1792 H1808 0.931 . S
C1793 C1792 1.391 . S
C1793 C1797 1.376 . S
C1794 C1792 1.394 . S
C1794 C1795 1.369 . S
C1794 C1798 1.531 . S
C1795 C1794 1.369 . S
C1795 C1796 1.410 . S
C1795 C1803 1.503 . S
C1796 C1795 1.410 . S
C1796 C1797 1.392 . S
C1796 C1799 1.511 . S
C1797 C1793 1.376 . S
C1797 C1796 1.392 . S
C1797 H1809 0.929 . S
C1798 C1794 1.531 . S
C1798 H1810 0.960 . S
C1798 H1811 0.962 . S
C1798 H1812 0.960 . S
C1799 C1796 1.511 . S
C1799 H1813 0.961 . S
C1799 H1814 0.961 . S
C1799 H1815 0.961 . S
C1800 C1801 1.370 . S
C1800 C1802 1.363 . S
C1800 H1816 0.931 . S
C1801 C1800 1.370 . S
C1801 C1805 1.408 . S
C1802 C1800 1.363 . S
C1802 C1803 1.370 . S
C1802 C1806 1.524 . S
C1803 C1795 1.503 . S
C1803 C1802 1.370 . S
C1803 C1804 1.403 . S
C1804 C1803 1.403 . S
C1804 C1805 1.404 . S
C1804 C1807 1.539 . S
C1805 C1801 1.408 . S
C1805 C1804 1.404 . S
C1805 H1817 0.930 . S
C1806 C1802 1.524 . S
C1806 H1818 0.956 . S
C1806 H1819 0.961 . S
C1806 H1820 0.961 . S
C1807 C1804 1.539 . S
C1807 H1821 0.958 . S
C1807 H1822 0.961 . S
C1807 H1823 0.960 . S
H1808 C1792 0.931 . S
H1809 C1797 0.929 . S
H1810 C1798 0.960 . S
H1811 C1798 0.962 . S
H1812 C1798 0.960 . S
H1813 C1799 0.961 . S
H1814 C1799 0.961 . S
H1815 C1799 0.961 . S
H1816 C1800 0.931 . S
H1817 C1805 0.930 . S
H1818 C1806 0.956 . S
H1819 C1806 0.961 . S
H1820 C1806 0.961 . S
H1821 C1807 0.958 . S
H1822 C1807 0.961 . S
H1823 C1807 0.960 . S
C1824 C1825 1.391 . S
C1824 C1826 1.394 . S
C1824 H1840 0.931 . S
C1825 C1824 1.391 . S
C1825 C1829 1.376 . S
C1826 C1824 1.394 . S
C1826 C1827 1.369 . S
C1826 C1830 1.531 . S
C1827 C1826 1.369 . S
C1827 C1828 1.410 . S
C1827 C1835 1.503 . S
C1828 C1827 1.410 . S
C1828 C1829 1.392 . S
C1828 C1831 1.511 . S
C1829 C1825 1.376 . S
C1829 C1828 1.392 . S
C1829 H1841 0.929 . S
C1830 C1826 1.531 . S
C1830 H1842 0.960 . S
C1830 H1843 0.962 . S
C1830 H1844 0.960 . S
C1831 C1828 1.511 . S
C1831 H1845 0.961 . S
C1831 H1846 0.961 . S
C1831 H1847 0.961 . S
C1832 C1833 1.370 . S
C1832 C1834 1.363 . S
C1832 H1848 0.931 . S
C1833 C1832 1.370 . S
C1833 C1837 1.408 . S
C1834 C1832 1.363 . S
C1834 C1835 1.370 . S
C1834 C1838 1.524 . S
C1835 C1827 1.503 . S
C1835 C1834 1.370 . S
C1835 C1836 1.403 . S
C1836 C1835 1.403 . S
C1836 C1837 1.404 . S
C1836 C1839 1.539 . S
C1837 C1833 1.408 . S
C1837 C1836 1.404 . S
C1837 H1849 0.930 . S
C1838 C1834 1.524 . S
C1838 H1850 0.956 . S
C1838 H1851 0.961 . S
C1838 H1852 0.961 . S
C1839 C1836 1.539 . S
C1839 H1853 0.958 . S
C1839 H1854 0.961 . S
C1839 H1855 0.960 . S
H1840 C1824 0.931 . S
H1841 C1829 0.929 . S
H1842 C1830 0.960 . S
H1843 C1830 0.962 . S
H1844 C1830 0.960 . S
H1845 C1831 0.961 . S
H1846 C1831 0.961 . S
H1847 C1831 0.961 . S
H1848 C1832 0.931 . S
H1849 C1837 0.930 . S
H1850 C1838 0.956 . S
H1851 C1838 0.961 . S
H1852 C1838 0.961 . S
H1853 C1839 0.958 . S
H1854 C1839 0.961 . S
H1855 C1839 0.960 . S
C1856 C1857 1.391 . S
C1856 C1858 1.394 . S
C1856 H1872 0.931 . S
C1857 C1856 1.391 . S
C1857 C1861 1.376 . S
C1858 C1856 1.394 . S
C1858 C1859 1.369 . S
C1858 C1862 1.531 . S
C1859 C1858 1.369 . S
C1859 C1860 1.410 . S
C1859 C1867 1.503 . S
C1860 C1859 1.410 . S
C1860 C1861 1.392 . S
C1860 C1863 1.511 . S
C1861 C1857 1.376 . S
C1861 C1860 1.392 . S
C1861 H1873 0.929 . S
C1862 C1858 1.531 . S
C1862 H1874 0.960 . S
C1862 H1875 0.962 . S
C1862 H1876 0.960 . S
C1863 C1860 1.511 . S
C1863 H1877 0.961 . S
C1863 H1878 0.961 . S
C1863 H1879 0.961 . S
C1864 C1865 1.370 . S
C1864 C1866 1.363 . S
C1864 H1880 0.931 . S
C1865 C1864 1.370 . S
C1865 C1869 1.408 . S
C1866 C1864 1.363 . S
C1866 C1867 1.370 . S
C1866 C1870 1.524 . S
C1867 C1859 1.503 . S
C1867 C1866 1.370 . S
C1867 C1868 1.403 . S
C1868 C1867 1.403 . S
C1868 C1869 1.404 . S
C1868 C1871 1.539 . S
C1869 C1865 1.408 . S
C1869 C1868 1.404 . S
C1869 H1881 0.930 . S
C1870 C1866 1.524 . S
C1870 H1882 0.956 . S
C1870 H1883 0.961 . S
C1870 H1884 0.961 . S
C1871 C1868 1.539 . S
C1871 H1885 0.958 . S
C1871 H1886 0.961 . S
C1871 H1887 0.960 . S
H1872 C1856 0.931 . S
H1873 C1861 0.929 . S
H1874 C1862 0.960 . S
H1875 C1862 0.962 . S
H1876 C1862 0.960 . S
H1877 C1863 0.961 . S
H1878 C1863 0.961 . S
H1879 C1863 0.961 . S
H1880 C1864 0.931 . S
H1881 C1869 0.930 . S
H1882 C1870 0.956 . S
H1883 C1870 0.961 . S
H1884 C1870 0.961 . S
H1885 C1871 0.958 . S
H1886 C1871 0.961 . S
H1887 C1871 0.960 . S
C1888 C1889 1.391 . S
C1888 C1890 1.394 . S
C1888 H1904 0.931 . S
C1889 C1888 1.391 . S
C1889 C1893 1.376 . S
C1890 C1888 1.394 . S
C1890 C1891 1.369 . S
C1890 C1894 1.531 . S
C1891 C1890 1.369 . S
C1891 C1892 1.410 . S
C1891 C1899 1.503 . S
C1892 C1891 1.410 . S
C1892 C1893 1.392 . S
C1892 C1895 1.511 . S
C1893 C1889 1.376 . S
C1893 C1892 1.392 . S
C1893 H1905 0.929 . S
C1894 C1890 1.531 . S
C1894 H1906 0.960 . S
C1894 H1907 0.962 . S
C1894 H1908 0.960 . S
C1895 C1892 1.511 . S
C1895 H1909 0.961 . S
C1895 H1910 0.961 . S
C1895 H1911 0.961 . S
C1896 C1897 1.370 . S
C1896 C1898 1.363 . S
C1896 H1912 0.931 . S
C1897 C1896 1.370 . S
C1897 C1901 1.408 . S
C1898 C1896 1.363 . S
C1898 C1899 1.370 . S
C1898 C1902 1.524 . S
C1899 C1891 1.503 . S
C1899 C1898 1.370 . S
C1899 C1900 1.403 . S
C1900 C1899 1.403 . S
C1900 C1901 1.404 . S
C1900 C1903 1.539 . S
C1901 C1897 1.408 . S
C1901 C1900 1.404 . S
C1901 H1913 0.930 . S
C1902 C1898 1.524 . S
C1902 H1914 0.956 . S
C1902 H1915 0.961 . S
C1902 H1916 0.961 . S
C1903 C1900 1.539 . S
C1903 H1917 0.958 . S
C1903 H1918 0.961 . S
C1903 H1919 0.960 . S
H1904 C1888 0.931 . S
H1905 C1893 0.929 . S
H1906 C1894 0.960 . S
H1907 C1894 0.962 . S
H1908 C1894 0.960 . S
H1909 C1895 0.961 . S
H1910 C1895 0.961 . S
H1911 C1895 0.961 . S
H1912 C1896 0.931 . S
H1913 C1901 0.930 . S
H1914 C1902 0.956 . S
H1915 C1902 0.961 . S
H1916 C1902 0.961 . S
H1917 C1903 0.958 . S
H1918 C1903 0.961 . S
H1919 C1903 0.960 . S
C1920 C1921 1.391 . S
C1920 C1922 1.394 . S
C1920 H1936 0.931 . S
C1921 C1920 1.391 . S
C1921 C1925 1.376 . S
C1922 C1920 1.394 . S
C1922 C1923 1.369 . S
C1922 C1926 1.531 . S
C1923 C1922 1.369 . S
C1923 C1924 1.410 . S
C1923 C1931 1.503 . S
C1924 C1923 1.410 . S
C1924 C1925 1.392 . S
C1924 C1927 1.511 . S
C1925 C1921 1.376 . S
C1925 C1924 1.392 . S
C1925 H1937 0.929 . S
C1926 C1922 1.531 . S
C1926 H1938 0.960 . S
C1926 H1939 0.962 . S
C1926 H1940 0.960 . S
C1927 C1924 1.511 . S
C1927 H1941 0.961 . S
C1927 H1942 0.961 . S
C1927 H1943 0.961 . S
C1928 C1929 1.370 . S
C1928 C1930 1.363 . S
C1928 H1944 0.931 . S
C1929 C1928 1.370 . S
C1929 C1933 1.408 . S
C1930 C1928 1.363 . S
C1930 C1931 1.370 . S
C1930 C1934 1.524 . S
C1931 C1923 1.503 . S
C1931 C1930 1.370 . S
C1931 C1932 1.403 . S
C1932 C1931 1.403 . S
C1932 C1933 1.404 . S
C1932 C1935 1.539 . S
C1933 C1929 1.408 . S
C1933 C1932 1.404 . S
C1933 H1945 0.930 . S
C1934 C1930 1.524 . S
C1934 H1946 0.956 . S
C1934 H1947 0.961 . S
C1934 H1948 0.961 . S
C1935 C1932 1.539 . S
C1935 H1949 0.958 . S
C1935 H1950 0.961 . S
C1935 H1951 0.960 . S
H1936 C1920 0.931 . S
H1937 C1925 0.929 . S
H1938 C1926 0.960 . S
H1939 C1926 0.962 . S
H1940 C1926 0.960 . S
H1941 C1927 0.961 . S
H1942 C1927 0.961 . S
H1943 C1927 0.961 . S
H1944 C1928 0.931 . S
H1945 C1933 0.930 . S
H1946 C1934 0.956 . S
H1947 C1934 0.961 . S
H1948 C1934 0.961 . S
H1949 C1935 0.958 . S
H1950 C1935 0.961 . S
H1951 C1935 0.960 . S
C1952 C1953 1.391 . S
C1952 C1954 1.394 . S
C1952 H1968 0.931 . S
C1953 C1952 1.391 . S
C1953 C1957 1.376 . S
C1954 C1952 1.394 . S
C1954 C1955 1.369 . S
C1954 C1958 1.531 . S
C1955 C1954 1.369 . S
C1955 C1956 1.410 . S
C1955 C1963 1.503 . S
C1956 C1955 1.410 . S
C1956 C1957 1.392 . S
C1956 C1959 1.511 . S
C1957 C1953 1.376 . S
C1957 C1956 1.392 . S
C1957 H1969 0.929 . S
C1958 C1954 1.531 . S
C1958 H1970 0.960 . S
C1958 H1971 0.962 . S
C1958 H1972 0.960 . S
C1959 C1956 1.511 . S
C1959 H1973 0.961 . S
C1959 H1974 0.961 . S
C1959 H1975 0.961 . S
C1960 C1961 1.370 . S
C1960 C1962 1.363 . S
C1960 H1976 0.931 . S
C1961 C1960 1.370 . S
C1961 C1965 1.408 . S
C1962 C1960 1.363 . S
C1962 C1963 1.370 . S
C1962 C1966 1.524 . S
C1963 C1955 1.503 . S
C1963 C1962 1.370 . S
C1963 C1964 1.403 . S
C1964 C1963 1.403 . S
C1964 C1965 1.404 . S
C1964 C1967 1.539 . S
C1965 C1961 1.408 . S
C1965 C1964 1.404 . S
C1965 H1977 0.930 . S
C1966 C1962 1.524 . S
C1966 H1978 0.956 . S
C1966 H1979 0.961 . S
C1966 H1980 0.961 . S
C1967 C1964 1.539 . S
C1967 H1981 0.958 . S
C1967 H1982 0.961 . S
C1967 H1983 0.960 . S
H1968 C1952 0.931 . S
H1969 C1957 0.929 . S
H1970 C1958 0.960 . S
H1971 C1958 0.962 . S
H1972 C1958 0.960 . S
H1973 C1959 0.961 . S
H1974 C1959 0.961 . S
H1975 C1959 0.961 . S
H1976 C1960 0.931 . S
H1977 C1965 0.930 . S
H1978 C1966 0.956 . S
H1979 C1966 0.961 . S
H1980 C1966 0.961 . S
H1981 C1967 0.958 . S
H1982 C1967 0.961 . S
H1983 C1967 0.960 . S
C1984 C1985 1.391 . S
C1984 C1986 1.394 . S
C1984 H2000 0.931 . S
C1985 C1984 1.391 . S
C1985 C1989 1.376 . S
C1986 C1984 1.394 . S
C1986 C1987 1.369 . S
C1986 C1990 1.531 . S
C1987 C1986 1.369 . S
C1987 C1988 1.410 . S
C1987 C1995 1.503 . S
C1988 C1987 1.410 . S
C1988 C1989 1.392 . S
C1988 C1991 1.511 . S
C1989 C1985 1.376 . S
C1989 C1988 1.392 . S
C1989 H2001 0.929 . S
C1990 C1986 1.531 . S
C1990 H2002 0.960 . S
C1990 H2003 0.962 . S
C1990 H2004 0.960 . S
C1991 C1988 1.511 . S
C1991 H2005 0.961 . S
C1991 H2006 0.961 . S
C1991 H2007 0.961 . S
C1992 C1993 1.370 . S
C1992 C1994 1.363 . S
C1992 H2008 0.931 . S
C1993 C1992 1.370 . S
C1993 C1997 1.408 . S
C1994 C1992 1.363 . S
C1994 C1995 1.370 . S
C1994 C1998 1.524 . S
C1995 C1987 1.503 . S
C1995 C1994 1.370 . S
C1995 C1996 1.403 . S
C1996 C1995 1.403 . S
C1996 C1997 1.404 . S
C1996 C1999 1.539 . S
C1997 C1993 1.408 . S
C1997 C1996 1.404 . S
C1997 H2009 0.930 . S
C1998 C1994 1.524 . S
C1998 H2010 0.956 . S
C1998 H2011 0.961 . S
C1998 H2012 0.961 . S
C1999 C1996 1.539 . S
C1999 H2013 0.958 . S
C1999 H2014 0.961 . S
C1999 H2015 0.960 . S
H2000 C1984 0.931 . S
H2001 C1989 0.929 . S
H2002 C1990 0.960 . S
H2003 C1990 0.962 . S
H2004 C1990 0.960 . S
H2005 C1991 0.961 . S
H2006 C1991 0.961 . S
H2007 C1991 0.961 . S
H2008 C1992 0.931 . S
H2009 C1997 0.930 . S
H2010 C1998 0.956 . S
H2011 C1998 0.961 . S
H2012 C1998 0.961 . S
H2013 C1999 0.958 . S
H2014 C1999 0.961 . S
H2015 C1999 0.960 . S
C2016 C2017 1.391 . S
C2016 C2018 1.394 . S
C2016 H2032 0.931 . S
C2017 C2016 1.391 . S
C2017 C2021 1.376 . S
C2018 C2016 1.394 . S
C2018 C2019 1.369 . S
C2018 C2022 1.531 . S
C2019 C2018 1.369 . S
C2019 C2020 1.410 . S
C2019 C2027 1.503 . S
C2020 C2019 1.410 . S
C2020 C2021 1.392 . S
C2020 C2023 1.511 . S
C2021 C2017 1.376 . S
C2021 C2020 1.392 . S
C2021 H2033 0.929 . S
C2022 C2018 1.531 . S
C2022 H2034 0.960 . S
C2022 H2035 0.962 . S
C2022 H2036 0.960 . S
C2023 C2020 1.511 . S
C2023 H2037 0.961 . S
C2023 H2038 0.961 . S
C2023 H2039 0.961 . S
C2024 C2025 1.370 . S
C2024 C2026 1.363 . S
C2024 H2040 0.931 . S
C2025 C2024 1.370 . S
C2025 C2029 1.408 . S
C2026 C2024 1.363 . S
C2026 C2027 1.370 . S
C2026 C2030 1.524 . S
C2027 C2019 1.503 . S
C2027 C2026 1.370 . S
C2027 C2028 1.403 . S
C2028 C2027 1.403 . S
C2028 C2029 1.404 . S
C2028 C2031 1.539 . S
C2029 C2025 1.408 . S
C2029 C2028 1.404 . S
C2029 H2041 0.930 . S
C2030 C2026 1.524 . S
C2030 H2042 0.956 . S
C2030 H2043 0.961 . S
C2030 H2044 0.961 . S
C2031 C2028 1.539 . S
C2031 H2045 0.958 . S
C2031 H2046 0.961 . S
C2031 H2047 0.960 . S
H2032 C2016 0.931 . S
H2033 C2021 0.929 . S
H2034 C2022 0.960 . S
H2035 C2022 0.962 . S
H2036 C2022 0.960 . S
H2037 C2023 0.961 . S
H2038 C2023 0.961 . S
H2039 C2023 0.961 . S
H2040 C2024 0.931 . S
H2041 C2029 0.930 . S
H2042 C2030 0.956 . S
H2043 C2030 0.961 . S
H2044 C2030 0.961 . S
H2045 C2031 0.958 . S
H2046 C2031 0.961 . S
H2047 C2031 0.960 . S
C2048 C2049 1.391 . S
C2048 C2050 1.394 . S
C2048 H2064 0.931 . S
C2049 C2048 1.391 . S
C2049 C2053 1.376 . S
C2050 C2048 1.394 . S
C2050 C2051 1.369 . S
C2050 C2054 1.531 . S
C2051 C2050 1.369 . S
C2051 C2052 1.410 . S
C2051 C2059 1.503 . S
C2052 C2051 1.410 . S
C2052 C2053 1.392 . S
C2052 C2055 1.511 . S
C2053 C2049 1.376 . S
C2053 C2052 1.392 . S
C2053 H2065 0.929 . S
C2054 C2050 1.531 . S
C2054 H2066 0.960 . S
C2054 H2067 0.962 . S
C2054 H2068 0.960 . S
C2055 C2052 1.511 . S
C2055 H2069 0.961 . S
C2055 H2070 0.961 . S
C2055 H2071 0.961 . S
C2056 C2057 1.370 . S
C2056 C2058 1.363 . S
C2056 H2072 0.931 . S
C2057 C2056 1.370 . S
C2057 C2061 1.408 . S
C2058 C2056 1.363 . S
C2058 C2059 1.370 . S
C2058 C2062 1.524 . S
C2059 C2051 1.503 . S
C2059 C2058 1.370 . S
C2059 C2060 1.403 . S
C2060 C2059 1.403 . S
C2060 C2061 1.404 . S
C2060 C2063 1.539 . S
C2061 C2057 1.408 . S
C2061 C2060 1.404 . S
C2061 H2073 0.930 . S
C2062 C2058 1.524 . S
C2062 H2074 0.956 . S
C2062 H2075 0.961 . S
C2062 H2076 0.961 . S
C2063 C2060 1.539 . S
C2063 H2077 0.958 . S
C2063 H2078 0.961 . S
C2063 H2079 0.960 . S
H2064 C2048 0.931 . S
H2065 C2053 0.929 . S
H2066 C2054 0.960 . S
H2067 C2054 0.962 . S
H2068 C2054 0.960 . S
H2069 C2055 0.961 . S
H2070 C2055 0.961 . S
H2071 C2055 0.961 . S
H2072 C2056 0.931 . S
H2073 C2061 0.930 . S
H2074 C2062 0.956 . S
H2075 C2062 0.961 . S
H2076 C2062 0.961 . S
H2077 C2063 0.958 . S
H2078 C2063 0.961 . S
H2079 C2063 0.960 . S
C2080 C2081 1.391 . S
C2080 C2082 1.394 . S
C2080 H2096 0.931 . S
C2081 C2080 1.391 . S
C2081 C2085 1.376 . S
C2082 C2080 1.394 . S
C2082 C2083 1.369 . S
C2082 C2086 1.531 . S
C2083 C2082 1.369 . S
C2083 C2084 1.410 . S
C2083 C2091 1.503 . S
C2084 C2083 1.410 . S
C2084 C2085 1.392 . S
C2084 C2087 1.511 . S
C2085 C2081 1.376 . S
C2085 C2084 1.392 . S
C2085 H2097 0.929 . S
C2086 C2082 1.531 . S
C2086 H2098 0.960 . S
C2086 H2099 0.962 . S
C2086 H2100 0.960 . S
C2087 C2084 1.511 . S
C2087 H2101 0.961 . S
C2087 H2102 0.961 . S
C2087 H2103 0.961 . S
C2088 C2089 1.370 . S
C2088 C2090 1.363 . S
C2088 H2104 0.931 . S
C2089 C2088 1.370 . S
C2089 C2093 1.408 . S
C2090 C2088 1.363 . S
C2090 C2091 1.370 . S
C2090 C2094 1.524 . S
C2091 C2083 1.503 . S
C2091 C2090 1.370 . S
C2091 C2092 1.403 . S
C2092 C2091 1.403 . S
C2092 C2093 1.404 . S
C2092 C2095 1.539 . S
C2093 C2089 1.408 . S
C2093 C2092 1.404 . S
C2093 H2105 0.930 . S
C2094 C2090 1.524 . S
C2094 H2106 0.956 . S
C2094 H2107 0.961 . S
C2094 H2108 0.961 . S
C2095 C2092 1.539 . S
C2095 H2109 0.958 . S
C2095 H2110 0.961 . S
C2095 H2111 0.960 . S
H2096 C2080 0.931 . S
H2097 C2085 0.929 . S
H2098 C2086 0.960 . S
H2099 C2086 0.962 . S
H2100 C2086 0.960 . S
H2101 C2087 0.961 . S
H2102 C2087 0.961 . S
H2103 C2087 0.961 . S
H2104 C2088 0.931 . S
H2105 C2093 0.930 . S
H2106 C2094 0.956 . S
H2107 C2094 0.961 . S
H2108 C2094 0.961 . S
H2109 C2095 0.958 . S
H2110 C2095 0.961 . S
H2111 C2095 0.960 . S
C2112 C2113 1.391 . S
C2112 C2114 1.394 . S
C2112 H2128 0.931 . S
C2113 C2112 1.391 . S
C2113 C2117 1.376 . S
C2114 C2112 1.394 . S
C2114 C2115 1.369 . S
C2114 C2118 1.531 . S
C2115 C2114 1.369 . S
C2115 C2116 1.410 . S
C2115 C2123 1.503 . S
C2116 C2115 1.410 . S
C2116 C2117 1.392 . S
C2116 C2119 1.511 . S
C2117 C2113 1.376 . S
C2117 C2116 1.392 . S
C2117 H2129 0.929 . S
C2118 C2114 1.531 . S
C2118 H2130 0.960 . S
C2118 H2131 0.962 . S
C2118 H2132 0.960 . S
C2119 C2116 1.511 . S
C2119 H2133 0.961 . S
C2119 H2134 0.961 . S
C2119 H2135 0.961 . S
C2120 C2121 1.370 . S
C2120 C2122 1.363 . S
C2120 H2136 0.931 . S
C2121 C2120 1.370 . S
C2121 C2125 1.408 . S
C2122 C2120 1.363 . S
C2122 C2123 1.370 . S
C2122 C2126 1.524 . S
C2123 C2115 1.503 . S
C2123 C2122 1.370 . S
C2123 C2124 1.403 . S
C2124 C2123 1.403 . S
C2124 C2125 1.404 . S
C2124 C2127 1.539 . S
C2125 C2121 1.408 . S
C2125 C2124 1.404 . S
C2125 H2137 0.930 . S
C2126 C2122 1.524 . S
C2126 H2138 0.956 . S
C2126 H2139 0.961 . S
C2126 H2140 0.961 . S
C2127 C2124 1.539 . S
C2127 H2141 0.958 . S
C2127 H2142 0.961 . S
C2127 H2143 0.960 . S
H2128 C2112 0.931 . S
H2129 C2117 0.929 . S
H2130 C2118 0.960 . S
H2131 C2118 0.962 . S
H2132 C2118 0.960 . S
H2133 C2119 0.961 . S
H2134 C2119 0.961 . S
H2135 C2119 0.961 . S
H2136 C2120 0.931 . S
H2137 C2125 0.930 . S
H2138 C2126 0.956 . S
H2139 C2126 0.961 . S
H2140 C2126 0.961 . S
H2141 C2127 0.958 . S
H2142 C2127 0.961 . S
H2143 C2127 0.960 . S
C2144 C2145 1.391 . S
C2144 C2146 1.394 . S
C2144 H2160 0.931 . S
C2145 C2144 1.391 . S
C2145 C2149 1.376 . S
C2146 C2144 1.394 . S
C2146 C2147 1.369 . S
C2146 C2150 1.531 . S
C2147 C2146 1.369 . S
C2147 C2148 1.410 . S
C2147 C2155 1.503 . S
C2148 C2147 1.410 . S
C2148 C2149 1.392 . S
C2148 C2151 1.511 . S
C2149 C2145 1.376 . S
C2149 C2148 1.392 . S
C2149 H2161 0.929 . S
C2150 C2146 1.531 . S
C2150 H2162 0.960 . S
C2150 H2163 0.962 . S
C2150 H2164 0.960 . S
C2151 C2148 1.511 . S
C2151 H2165 0.961 . S
C2151 H2166 0.961 . S
C2151 H2167 0.961 . S
C2152 C2153 1.370 . S
C2152 C2154 1.363 . S
C2152 H2168 0.931 . S
C2153 C2152 1.370 . S
C2153 C2157 1.408 . S
C2154 C2152 1.363 . S
C2154 C2155 1.370 . S
C2154 C2158 1.524 . S
C2155 C2147 1.503 . S
C2155 C2154 1.370 . S
C2155 C2156 1.403 . S
C2156 C2155 1.403 . S
C2156 C2157 1.404 . S
C2156 C2159 1.539 . S
C2157 C2153 1.408 . S
C2157 C2156 1.404 . S
C2157 H2169 0.930 . S
C2158 C2154 1.524 . S
C2158 H2170 0.956 . S
C2158 H2171 0.961 . S
C2158 H2172 0.961 . S
C2159 C2156 1.539 . S
C2159 H2173 0.958 . S
C2159 H2174 0.961 . S
C2159 H2175 0.960 . S
H2160 C2144 0.931 . S
H2161 C2149 0.929 . S
H2162 C2150 0.960 . S
H2163 C2150 0.962 . S
H2164 C2150 0.960 . S
H2165 C2151 0.961 . S
H2166 C2151 0.961 . S
H2167 C2151 0.961 . S
H2168 C2152 0.931 . S
H2169 C2157 0.930 . S
H2170 C2158 0.956 . S
H2171 C2158 0.961 . S
H2172 C2158 0.961 . S
H2173 C2159 0.958 . S
H2174 C2159 0.961 . S
H2175 C2159 0.960 . S
C2176 C2177 1.391 . S
C2176 C2178 1.394 . S
C2176 H2192 0.931 . S
C2177 C2176 1.391 . S
C2177 C2181 1.376 . S
C2178 C2176 1.394 . S
C2178 C2179 1.369 . S
C2178 C2182 1.531 . S
C2179 C2178 1.369 . S
C2179 C2180 1.410 . S
C2179 C2187 1.503 . S
C2180 C2179 1.410 . S
C2180 C2181 1.392 . S
C2180 C2183 1.511 . S
C2181 C2177 1.376 . S
C2181 C2180 1.392 . S
C2181 H2193 0.929 . S
C2182 C2178 1.531 . S
C2182 H2194 0.960 . S
C2182 H2195 0.962 . S
C2182 H2196 0.960 . S
C2183 C2180 1.511 . S
C2183 H2197 0.961 . S
C2183 H2198 0.961 . S
C2183 H2199 0.961 . S
C2184 C2185 1.370 . S
C2184 C2186 1.363 . S
C2184 H2200 0.931 . S
C2185 C2184 1.370 . S
C2185 C2189 1.408 . S
C2186 C2184 1.363 . S
C2186 C2187 1.370 . S
C2186 C2190 1.524 . S
C2187 C2179 1.503 . S
C2187 C2186 1.370 . S
C2187 C2188 1.403 . S
C2188 C2187 1.403 . S
C2188 C2189 1.404 . S
C2188 C2191 1.539 . S
C2189 C2185 1.408 . S
C2189 C2188 1.404 . S
C2189 H2201 0.930 . S
C2190 C2186 1.524 . S
C2190 H2202 0.956 . S
C2190 H2203 0.961 . S
C2190 H2204 0.961 . S
C2191 C2188 1.539 . S
C2191 H2205 0.958 . S
C2191 H2206 0.961 . S
C2191 H2207 0.960 . S
H2192 C2176 0.931 . S
H2193 C2181 0.929 . S
H2194 C2182 0.960 . S
H2195 C2182 0.962 . S
H2196 C2182 0.960 . S
H2197 C2183 0.961 . S
H2198 C2183 0.961 . S
H2199 C2183 0.961 . S
H2200 C2184 0.931 . S
H2201 C2189 0.930 . S
H2202 C2190 0.956 . S
H2203 C2190 0.961 . S
H2204 C2190 0.961 . S
H2205 C2191 0.958 . S
H2206 C2191 0.961 . S
H2207 C2191 0.960 . S
C2208 C2209 1.391 . S
C2208 C2210 1.394 . S
C2208 H2224 0.931 . S
C2209 C2208 1.391 . S
C2209 C2213 1.376 . S
C2210 C2208 1.394 . S
C2210 C2211 1.369 . S
C2210 C2214 1.531 . S
C2211 C2210 1.369 . S
C2211 C2212 1.410 . S
C2211 C2219 1.503 . S
C2212 C2211 1.410 . S
C2212 C2213 1.392 . S
C2212 C2215 1.511 . S
C2213 C2209 1.376 . S
C2213 C2212 1.392 . S
C2213 H2225 0.929 . S
C2214 C2210 1.531 . S
C2214 H2226 0.960 . S
C2214 H2227 0.962 . S
C2214 H2228 0.960 . S
C2215 C2212 1.511 . S
C2215 H2229 0.961 . S
C2215 H2230 0.961 . S
C2215 H2231 0.961 . S
C2216 C2217 1.370 . S
C2216 C2218 1.363 . S
C2216 H2232 0.931 . S
C2217 C2216 1.370 . S
C2217 C2221 1.408 . S
C2218 C2216 1.363 . S
C2218 C2219 1.370 . S
C2218 C2222 1.524 . S
C2219 C2211 1.503 . S
C2219 C2218 1.370 . S
C2219 C2220 1.403 . S
C2220 C2219 1.403 . S
C2220 C2221 1.404 . S
C2220 C2223 1.539 . S
C2221 C2217 1.408 . S
C2221 C2220 1.404 . S
C2221 H2233 0.930 . S
C2222 C2218 1.524 . S
C2222 H2234 0.956 . S
C2222 H2235 0.961 . S
C2222 H2236 0.961 . S
C2223 C2220 1.539 . S
C2223 H2237 0.958 . S
C2223 H2238 0.961 . S
C2223 H2239 0.960 . S
H2224 C2208 0.931 . S
H2225 C2213 0.929 . S
H2226 C2214 0.960 . S
H2227 C2214 0.962 . S
H2228 C2214 0.960 . S
H2229 C2215 0.961 . S
H2230 C2215 0.961 . S
H2231 C2215 0.961 . S
H2232 C2216 0.931 . S
H2233 C2221 0.930 . S
H2234 C2222 0.956 . S
H2235 C2222 0.961 . S
H2236 C2222 0.961 . S
H2237 C2223 0.958 . S
H2238 C2223 0.961 . S
H2239 C2223 0.960 . S
C2240 C2241 1.391 . S
C2240 C2242 1.394 . S
C2240 H2256 0.931 . S
C2241 C2240 1.391 . S
C2241 C2245 1.376 . S
C2242 C2240 1.394 . S
C2242 C2243 1.369 . S
C2242 C2246 1.531 . S
C2243 C2242 1.369 . S
C2243 C2244 1.410 . S
C2243 C2251 1.503 . S
C2244 C2243 1.410 . S
C2244 C2245 1.392 . S
C2244 C2247 1.511 . S
C2245 C2241 1.376 . S
C2245 C2244 1.392 . S
C2245 H2257 0.929 . S
C2246 C2242 1.531 . S
C2246 H2258 0.960 . S
C2246 H2259 0.962 . S
C2246 H2260 0.960 . S
C2247 C2244 1.511 . S
C2247 H2261 0.961 . S
C2247 H2262 0.961 . S
C2247 H2263 0.961 . S
C2248 C2249 1.370 . S
C2248 C2250 1.363 . S
C2248 H2264 0.931 . S
C2249 C2248 1.370 . S
C2249 C2253 1.408 . S
C2250 C2248 1.363 . S
C2250 C2251 1.370 . S
C2250 C2254 1.524 . S
C2251 C2243 1.503 . S
C2251 C2250 1.370 . S
C2251 C2252 1.403 . S
C2252 C2251 1.403 . S
C2252 C2253 1.404 . S
C2252 C2255 1.539 . S
C2253 C2249 1.408 . S
C2253 C2252 1.404 . S
C2253 H2265 0.930 . S
C2254 C2250 1.524 . S
C2254 H2266 0.956 . S
C2254 H2267 0.961 . S
C2254 H2268 0.961 . S
C2255 C2252 1.539 . S
C2255 H2269 0.958 . S
C2255 H2270 0.961 . S
C2255 H2271 0.960 . S
H2256 C2240 0.931 . S
H2257 C2245 0.929 . S
H2258 C2246 0.960 . S
H2259 C2246 0.962 . S
H2260 C2246 0.960 . S
H2261 C2247 0.961 . S
H2262 C2247 0.961 . S
H2263 C2247 0.961 . S
H2264 C2248 0.931 . S
H2265 C2253 0.930 . S
H2266 C2254 0.956 . S
H2267 C2254 0.961 . S
H2268 C2254 0.961 . S
H2269 C2255 0.958 . S
H2270 C2255 0.961 . S
H2271 C2255 0.960 . S
C2272 C2273 1.391 . S
C2272 C2274 1.394 . S
C2272 H2288 0.931 . S
C2273 C2272 1.391 . S
C2273 C2277 1.376 . S
C2274 C2272 1.394 . S
C2274 C2275 1.369 . S
C2274 C2278 1.531 . S
C2275 C2274 1.369 . S
C2275 C2276 1.410 . S
C2275 C2283 1.503 . S
C2276 C2275 1.410 . S
C2276 C2277 1.392 . S
C2276 C2279 1.511 . S
C2277 C2273 1.376 . S
C2277 C2276 1.392 . S
C2277 H2289 0.929 . S
C2278 C2274 1.531 . S
C2278 H2290 0.960 . S
C2278 H2291 0.962 . S
C2278 H2292 0.960 . S
C2279 C2276 1.511 . S
C2279 H2293 0.961 . S
C2279 H2294 0.961 . S
C2279 H2295 0.961 . S
C2280 C2281 1.370 . S
C2280 C2282 1.363 . S
C2280 H2296 0.931 . S
C2281 C2280 1.370 . S
C2281 C2285 1.408 . S
C2282 C2280 1.363 . S
C2282 C2283 1.370 . S
C2282 C2286 1.524 . S
C2283 C2275 1.503 . S
C2283 C2282 1.370 . S
C2283 C2284 1.403 . S
C2284 C2283 1.403 . S
C2284 C2285 1.404 . S
C2284 C2287 1.539 . S
C2285 C2281 1.408 . S
C2285 C2284 1.404 . S
C2285 H2297 0.930 . S
C2286 C2282 1.524 . S
C2286 H2298 0.956 . S
C2286 H2299 0.961 . S
C2286 H2300 0.961 . S
C2287 C2284 1.539 . S
C2287 H2301 0.958 . S
C2287 H2302 0.961 . S
C2287 H2303 0.960 . S
H2288 C2272 0.931 . S
H2289 C2277 0.929 . S
H2290 C2278 0.960 . S
H2291 C2278 0.962 . S
H2292 C2278 0.960 . S
H2293 C2279 0.961 . S
H2294 C2279 0.961 . S
H2295 C2279 0.961 . S
H2296 C2280 0.931 . S
H2297 C2285 0.930 . S
H2298 C2286 0.956 . S
H2299 C2286 0.961 . S
H2300 C2286 0.961 . S
H2301 C2287 0.958 . S
H2302 C2287 0.961 . S
H2303 C2287 0.960 . S
C2304 C2305 1.391 . S
C2304 C2306 1.394 . S
C2304 H2320 0.931 . S
C2305 C2304 1.391 . S
C2305 C2309 1.376 . S
C2306 C2304 1.394 . S
C2306 C2307 1.369 . S
C2306 C2310 1.531 . S
C2307 C2306 1.369 . S
C2307 C2308 1.410 . S
C2307 C2315 1.503 . S
C2308 C2307 1.410 . S
C2308 C2309 1.392 . S
C2308 C2311 1.511 . S
C2309 C2305 1.376 . S
C2309 C2308 1.392 . S
C2309 H2321 0.929 . S
C2310 C2306 1.531 . S
C2310 H2322 0.960 . S
C2310 H2323 0.962 . S
C2310 H2324 0.960 . S
C2311 C2308 1.511 . S
C2311 H2325 0.961 . S
C2311 H2326 0.961 . S
C2311 H2327 0.961 . S
C2312 C2313 1.370 . S
C2312 C2314 1.363 . S
C2312 H2328 0.931 . S
C2313 C2312 1.370 . S
C2313 C2317 1.408 . S
C2314 C2312 1.363 . S
C2314 C2315 1.370 . S
C2314 C2318 1.524 . S
C2315 C2307 1.503 . S
C2315 C2314 1.370 . S
C2315 C2316 1.403 . S
C2316 C2315 1.403 . S
C2316 C2317 1.404 . S
C2316 C2319 1.539 . S
C2317 C2313 1.408 . S
C2317 C2316 1.404 . S
C2317 H2329 0.930 . S
C2318 C2314 1.524 . S
C2318 H2330 0.956 . S
C2318 H2331 0.961 . S
C2318 H2332 0.961 . S
C2319 C2316 1.539 . S
C2319 H2333 0.958 . S
C2319 H2334 0.961 . S
C2319 H2335 0.960 . S
H2320 C2304 0.931 . S
H2321 C2309 0.929 . S
H2322 C2310 0.960 . S
H2323 C2310 0.962 . S
H2324 C2310 0.960 . S
H2325 C2311 0.961 . S
H2326 C2311 0.961 . S
H2327 C2311 0.961 . S
H2328 C2312 0.931 . S
H2329 C2317 0.930 . S
H2330 C2318 0.956 . S
H2331 C2318 0.961 . S
H2332 C2318 0.961 . S
H2333 C2319 0.958 . S
H2334 C2319 0.961 . S
H2335 C2319 0.960 . S
C2336 C2337 1.391 . S
C2336 C2338 1.394 . S
C2336 H2352 0.931 . S
C2337 C2336 1.391 . S
C2337 C2341 1.376 . S
C2338 C2336 1.394 . S
C2338 C2339 1.369 . S
C2338 C2342 1.531 . S
C2339 C2338 1.369 . S
C2339 C2340 1.410 . S
C2339 C2347 1.503 . S
C2340 C2339 1.410 . S
C2340 C2341 1.392 . S
C2340 C2343 1.511 . S
C2341 C2337 1.376 . S
C2341 C2340 1.392 . S
C2341 H2353 0.929 . S
C2342 C2338 1.531 . S
C2342 H2354 0.960 . S
C2342 H2355 0.962 . S
C2342 H2356 0.960 . S
C2343 C2340 1.511 . S
C2343 H2357 0.961 . S
C2343 H2358 0.961 . S
C2343 H2359 0.961 . S
C2344 C2345 1.370 . S
C2344 C2346 1.363 . S
C2344 H2360 0.931 . S
C2345 C2344 1.370 . S
C2345 C2349 1.408 . S
C2346 C2344 1.363 . S
C2346 C2347 1.370 . S
C2346 C2350 1.524 . S
C2347 C2339 1.503 . S
C2347 C2346 1.370 . S
C2347 C2348 1.403 . S
C2348 C2347 1.403 . S
C2348 C2349 1.404 . S
C2348 C2351 1.539 . S
C2349 C2345 1.408 . S
C2349 C2348 1.404 . S
C2349 H2361 0.930 . S
C2350 C2346 1.524 . S
C2350 H2362 0.956 . S
C2350 H2363 0.961 . S
C2350 H2364 0.961 . S
C2351 C2348 1.539 . S
C2351 H2365 0.958 . S
C2351 H2366 0.961 . S
C2351 H2367 0.960 . S
H2352 C2336 0.931 . S
H2353 C2341 0.929 . S
H2354 C2342 0.960 . S
H2355 C2342 0.962 . S
H2356 C2342 0.960 . S
H2357 C2343 0.961 . S
H2358 C2343 0.961 . S
H2359 C2343 0.961 . S
H2360 C2344 0.931 . S
H2361 C2349 0.930 . S
H2362 C2350 0.956 . S
H2363 C2350 0.961 . S
H2364 C2350 0.961 . S
H2365 C2351 0.958 . S
H2366 C2351 0.961 . S
H2367 C2351 0.960 . S
C2368 C2369 1.391 . S
C2368 C2370 1.394 . S
C2368 H2384 0.931 . S
C2369 C2368 1.391 . S
C2369 C2373 1.376 . S
C2370 C2368 1.394 . S
C2370 C2371 1.369 . S
C2370 C2374 1.531 . S
C2371 C2370 1.369 . S
C2371 C2372 1.410 . S
C2371 C2379 1.503 . S
C2372 C2371 1.410 . S
C2372 C2373 1.392 . S
C2372 C2375 1.511 . S
C2373 C2369 1.376 . S
C2373 C2372 1.392 . S
C2373 H2385 0.929 . S
C2374 C2370 1.531 . S
C2374 H2386 0.960 . S
C2374 H2387 0.962 . S
C2374 H2388 0.960 . S
C2375 C2372 1.511 . S
C2375 H2389 0.961 . S
C2375 H2390 0.961 . S
C2375 H2391 0.961 . S
C2376 C2377 1.370 . S
C2376 C2378 1.363 . S
C2376 H2392 0.931 . S
C2377 C2376 1.370 . S
C2377 C2381 1.408 . S
C2378 C2376 1.363 . S
C2378 C2379 1.370 . S
C2378 C2382 1.524 . S
C2379 C2371 1.503 . S
C2379 C2378 1.370 . S
C2379 C2380 1.403 . S
C2380 C2379 1.403 . S
C2380 C2381 1.404 . S
C2380 C2383 1.539 . S
C2381 C2377 1.408 . S
C2381 C2380 1.404 . S
C2381 H2393 0.930 . S
C2382 C2378 1.524 . S
C2382 H2394 0.956 . S
C2382 H2395 0.961 . S
C2382 H2396 0.961 . S
C2383 C2380 1.539 . S
C2383 H2397 0.958 . S
C2383 H2398 0.961 . S
C2383 H2399 0.960 . S
H2384 C2368 0.931 . S
H2385 C2373 0.929 . S
H2386 C2374 0.960 . S
H2387 C2374 0.962 . S
H2388 C2374 0.960 . S
H2389 C2375 0.961 . S
H2390 C2375 0.961 . S
H2391 C2375 0.961 . S
H2392 C2376 0.931 . S
H2393 C2381 0.930 . S
H2394 C2382 0.956 . S
H2395 C2382 0.961 . S
H2396 C2382 0.961 . S
H2397 C2383 0.958 . S
H2398 C2383 0.961 . S
H2399 C2383 0.960 . S
C2400 C2401 1.391 . S
C2400 C2402 1.394 . S
C2400 H2416 0.931 . S
C2401 C2400 1.391 . S
C2401 C2405 1.376 . S
C2402 C2400 1.394 . S
C2402 C2403 1.369 . S
C2402 C2406 1.531 . S
C2403 C2402 1.369 . S
C2403 C2404 1.410 . S
C2403 C2411 1.503 . S
C2404 C2403 1.410 . S
C2404 C2405 1.392 . S
C2404 C2407 1.511 . S
C2405 C2401 1.376 . S
C2405 C2404 1.392 . S
C2405 H2417 0.929 . S
C2406 C2402 1.531 . S
C2406 H2418 0.960 . S
C2406 H2419 0.962 . S
C2406 H2420 0.960 . S
C2407 C2404 1.511 . S
C2407 H2421 0.961 . S
C2407 H2422 0.961 . S
C2407 H2423 0.961 . S
C2408 C2409 1.370 . S
C2408 C2410 1.363 . S
C2408 H2424 0.931 . S
C2409 C2408 1.370 . S
C2409 C2413 1.408 . S
C2410 C2408 1.363 . S
C2410 C2411 1.370 . S
C2410 C2414 1.524 . S
C2411 C2403 1.503 . S
C2411 C2410 1.370 . S
C2411 C2412 1.403 . S
C2412 C2411 1.403 . S
C2412 C2413 1.404 . S
C2412 C2415 1.539 . S
C2413 C2409 1.408 . S
C2413 C2412 1.404 . S
C2413 H2425 0.930 . S
C2414 C2410 1.524 . S
C2414 H2426 0.956 . S
C2414 H2427 0.961 . S
C2414 H2428 0.961 . S
C2415 C2412 1.539 . S
C2415 H2429 0.958 . S
C2415 H2430 0.961 . S
C2415 H2431 0.960 . S
H2416 C2400 0.931 . S
H2417 C2405 0.929 . S
H2418 C2406 0.960 . S
H2419 C2406 0.962 . S
H2420 C2406 0.960 . S
H2421 C2407 0.961 . S
H2422 C2407 0.961 . S
H2423 C2407 0.961 . S
H2424 C2408 0.931 . S
H2425 C2413 0.930 . S
H2426 C2414 0.956 . S
H2427 C2414 0.961 . S
H2428 C2414 0.961 . S
H2429 C2415 0.958 . S
H2430 C2415 0.961 . S
H2431 C2415 0.960 . S
C2432 C2433 1.391 . S
C2432 C2434 1.394 . S
C2432 H2448 0.931 . S
C2433 C2432 1.391 . S
C2433 C2437 1.376 . S
C2434 C2432 1.394 . S
C2434 C2435 1.369 . S
C2434 C2438 1.531 . S
C2435 C2434 1.369 . S
C2435 C2436 1.410 . S
C2435 C2443 1.503 . S
C2436 C2435 1.410 . S
C2436 C2437 1.392 . S
C2436 C2439 1.511 . S
C2437 C2433 1.376 . S
C2437 C2436 1.392 . S
C2437 H2449 0.929 . S
C2438 C2434 1.531 . S
C2438 H2450 0.960 . S
C2438 H2451 0.962 . S
C2438 H2452 0.960 . S
C2439 C2436 1.511 . S
C2439 H2453 0.961 . S
C2439 H2454 0.961 . S
C2439 H2455 0.961 . S
C2440 C2441 1.370 . S
C2440 C2442 1.363 . S
C2440 H2456 0.931 . S
C2441 C2440 1.370 . S
C2441 C2445 1.408 . S
C2442 C2440 1.363 . S
C2442 C2443 1.370 . S
C2442 C2446 1.524 . S
C2443 C2435 1.503 . S
C2443 C2442 1.370 . S
C2443 C2444 1.403 . S
C2444 C2443 1.403 . S
C2444 C2445 1.404 . S
C2444 C2447 1.539 . S
C2445 C2441 1.408 . S
C2445 C2444 1.404 . S
C2445 H2457 0.930 . S
C2446 C2442 1.524 . S
C2446 H2458 0.956 . S
C2446 H2459 0.961 . S
C2446 H2460 0.961 . S
C2447 C2444 1.539 . S
C2447 H2461 0.958 . S
C2447 H2462 0.961 . S
C2447 H2463 0.960 . S
H2448 C2432 0.931 . S
H2449 C2437 0.929 . S
H2450 C2438 0.960 . S
H2451 C2438 0.962 . S
H2452 C2438 0.960 . S
H2453 C2439 0.961 . S
H2454 C2439 0.961 . S
H2455 C2439 0.961 . S
H2456 C2440 0.931 . S
H2457 C2445 0.930 . S
H2458 C2446 0.956 . S
H2459 C2446 0.961 . S
H2460 C2446 0.961 . S
H2461 C2447 0.958 . S
H2462 C2447 0.961 . S
H2463 C2447 0.960 . S
C2464 C2465 1.391 . S
C2464 C2466 1.394 . S
C2464 H2480 0.931 . S
C2465 C2464 1.391 . S
C2465 C2469 1.376 . S
C2466 C2464 1.394 . S
C2466 C2467 1.369 . S
C2466 C2470 1.531 . S
C2467 C2466 1.369 . S
C2467 C2468 1.410 . S
C2467 C2475 1.503 . S
C2468 C2467 1.410 . S
C2468 C2469 1.392 . S
C2468 C2471 1.511 . S
C2469 C2465 1.376 . S
C2469 C2468 1.392 . S
C2469 H2481 0.929 . S
C2470 C2466 1.531 . S
C2470 H2482 0.960 . S
C2470 H2483 0.962 . S
C2470 H2484 0.960 . S
C2471 C2468 1.511 . S
C2471 H2485 0.961 . S
C2471 H2486 0.961 . S
C2471 H2487 0.961 . S
C2472 C2473 1.370 . S
C2472 C2474 1.363 . S
C2472 H2488 0.931 . S
C2473 C2472 1.370 . S
C2473 C2477 1.408 . S
C2474 C2472 1.363 . S
C2474 C2475 1.370 . S
C2474 C2478 1.524 . S
C2475 C2467 1.503 . S
C2475 C2474 1.370 . S
C2475 C2476 1.403 . S
C2476 C2475 1.403 . S
C2476 C2477 1.404 . S
C2476 C2479 1.539 . S
C2477 C2473 1.408 . S
C2477 C2476 1.404 . S
C2477 H2489 0.930 . S
C2478 C2474 1.524 . S
C2478 H2490 0.956 . S
C2478 H2491 0.961 . S
C2478 H2492 0.961 . S
C2479 C2476 1.539 . S
C2479 H2493 0.958 . S
C2479 H2494 0.961 . S
C2479 H2495 0.960 . S
H2480 C2464 0.931 . S
H2481 C2469 0.929 . S
H2482 C2470 0.960 . S
H2483 C2470 0.962 . S
H2484 C2470 0.960 . S
H2485 C2471 0.961 . S
H2486 C2471 0.961 . S
H2487 C2471 0.961 . S
H2488 C2472 0.931 . S
H2489 C2477 0.930 . S
H2490 C2478 0.956 . S
H2491 C2478 0.961 . S
H2492 C2478 0.961 . S
H2493 C2479 0.958 . S
H2494 C2479 0.961 . S
H2495 C2479 0.960 . S
C2496 C2497 1.391 . S
C2496 C2498 1.394 . S
C2496 H2512 0.931 . S
C2497 C2496 1.391 . S
C2497 C2501 1.376 . S
C2498 C2496 1.394 . S
C2498 C2499 1.369 . S
C2498 C2502 1.531 . S
C2499 C2498 1.369 . S
C2499 C2500 1.410 . S
C2499 C2507 1.503 . S
C2500 C2499 1.410 . S
C2500 C2501 1.392 . S
C2500 C2503 1.511 . S
C2501 C2497 1.376 . S
C2501 C2500 1.392 . S
C2501 H2513 0.929 . S
C2502 C2498 1.531 . S
C2502 H2514 0.960 . S
C2502 H2515 0.962 . S
C2502 H2516 0.960 . S
C2503 C2500 1.511 . S
C2503 H2517 0.961 . S
C2503 H2518 0.961 . S
C2503 H2519 0.961 . S
C2504 C2505 1.370 . S
C2504 C2506 1.363 . S
C2504 H2520 0.931 . S
C2505 C2504 1.370 . S
C2505 C2509 1.408 . S
C2506 C2504 1.363 . S
C2506 C2507 1.370 . S
C2506 C2510 1.524 . S
C2507 C2499 1.503 . S
C2507 C2506 1.370 . S
C2507 C2508 1.403 . S
C2508 C2507 1.403 . S
C2508 C2509 1.404 . S
C2508 C2511 1.539 . S
C2509 C2505 1.408 . S
C2509 C2508 1.404 . S
C2509 H2521 0.930 . S
C2510 C2506 1.524 . S
C2510 H2522 0.956 . S
C2510 H2523 0.961 . S
C2510 H2524 0.961 . S
C2511 C2508 1.539 . S
C2511 H2525 0.958 . S
C2511 H2526 0.961 . S
C2511 H2527 0.960 . S
H2512 C2496 0.931 . S
H2513 C2501 0.929 . S
H2514 C2502 0.960 . S
H2515 C2502 0.962 . S
H2516 C2502 0.960 . S
H2517 C2503 0.961 . S
H2518 C2503 0.961 . S
H2519 C2503 0.961 . S
H2520 C2504 0.931 . S
H2521 C2509 0.930 . S
H2522 C2510 0.956 . S
H2523 C2510 0.961 . S
H2524 C2510 0.961 . S
H2525 C2511 0.958 . S
H2526 C2511 0.961 . S
H2527 C2511 0.960 . S
C2528 C2529 1.391 . S
C2528 C2530 1.394 . S
C2528 H2544 0.931 . S
C2529 C2528 1.391 . S
C2529 C2533 1.376 . S
C2530 C2528 1.394 . S
C2530 C2531 1.369 . S
C2530 C2534 1.531 . S
C2531 C2530 1.369 . S
C2531 C2532 1.410 . S
C2531 C2539 1.503 . S
C2532 C2531 1.410 . S
C2532 C2533 1.392 . S
C2532 C2535 1.511 . S
C2533 C2529 1.376 . S
C2533 C2532 1.392 . S
C2533 H2545 0.929 . S
C2534 C2530 1.531 . S
C2534 H2546 0.960 . S
C2534 H2547 0.962 . S
C2534 H2548 0.960 . S
C2535 C2532 1.511 . S
C2535 H2549 0.961 . S
C2535 H2550 0.961 . S
C2535 H2551 0.961 . S
C2536 C2537 1.370 . S
C2536 C2538 1.363 . S
C2536 H2552 0.931 . S
C2537 C2536 1.370 . S
C2537 C2541 1.408 . S
C2538 C2536 1.363 . S
C2538 C2539 1.370 . S
C2538 C2542 1.524 . S
C2539 C2531 1.503 . S
C2539 C2538 1.370 . S
C2539 C2540 1.403 . S
C2540 C2539 1.403 . S
C2540 C2541 1.404 . S
C2540 C2543 1.539 . S
C2541 C2537 1.408 . S
C2541 C2540 1.404 . S
C2541 H2553 0.930 . S
C2542 C2538 1.524 . S
C2542 H2554 0.956 . S
C2542 H2555 0.961 . S
C2542 H2556 0.961 . S
C2543 C2540 1.539 . S
C2543 H2557 0.958 . S
C2543 H2558 0.961 . S
C2543 H2559 0.960 . S
H2544 C2528 0.931 . S
H2545 C2533 0.929 . S
H2546 C2534 0.960 . S
H2547 C2534 0.962 . S
H2548 C2534 0.960 . S
H2549 C2535 0.961 . S
H2550 C2535 0.961 . S
H2551 C2535 0.961 . S
H2552 C2536 0.931 . S
H2553 C2541 0.930 . S
H2554 C2542 0.956 . S
H2555 C2542 0.961 . S
H2556 C2542 0.961 . S
H2557 C2543 0.958 . S
H2558 C2543 0.961 . S
H2559 C2543 0.960 . S
C2560 C2561 1.391 . S
C2560 C2562 1.394 . S
C2560 H2576 0.931 . S
C2561 C2560 1.391 . S
C2561 C2565 1.376 . S
C2562 C2560 1.394 . S
C2562 C2563 1.369 . S
C2562 C2566 1.531 . S
C2563 C2562 1.369 . S
C2563 C2564 1.410 . S
C2563 C2571 1.503 . S
C2564 C2563 1.410 . S
C2564 C2565 1.392 . S
C2564 C2567 1.511 . S
C2565 C2561 1.376 . S
C2565 C2564 1.392 . S
C2565 H2577 0.929 . S
C2566 C2562 1.531 . S
C2566 H2578 0.960 . S
C2566 H2579 0.962 . S
C2566 H2580 0.960 . S
C2567 C2564 1.511 . S
C2567 H2581 0.961 . S
C2567 H2582 0.961 . S
C2567 H2583 0.961 . S
C2568 C2569 1.370 . S
C2568 C2570 1.363 . S
C2568 H2584 0.931 . S
C2569 C2568 1.370 . S
C2569 C2573 1.408 . S
C2570 C2568 1.363 . S
C2570 C2571 1.370 . S
C2570 C2574 1.524 . S
C2571 C2563 1.503 . S
C2571 C2570 1.370 . S
C2571 C2572 1.403 . S
C2572 C2571 1.403 . S
C2572 C2573 1.404 . S
C2572 C2575 1.539 . S
C2573 C2569 1.408 . S
C2573 C2572 1.404 . S
C2573 H2585 0.930 . S
C2574 C2570 1.524 . S
C2574 H2586 0.956 . S
C2574 H2587 0.961 . S
C2574 H2588 0.961 . S
C2575 C2572 1.539 . S
C2575 H2589 0.958 . S
C2575 H2590 0.961 . S
C2575 H2591 0.960 . S
H2576 C2560 0.931 . S
H2577 C2565 0.929 . S
H2578 C2566 0.960 . S
H2579 C2566 0.962 . S
H2580 C2566 0.960 . S
H2581 C2567 0.961 . S
H2582 C2567 0.961 . S
H2583 C2567 0.961 . S
H2584 C2568 0.931 . S
H2585 C2573 0.930 . S
H2586 C2574 0.956 . S
H2587 C2574 0.961 . S
H2588 C2574 0.961 . S
H2589 C2575 0.958 . S
H2590 C2575 0.961 . S
H2591 C2575 0.960 . S
C2592 C2593 1.391 . S
C2592 C2594 1.394 . S
C2592 H2608 0.931 . S
C2593 C2592 1.391 . S
C2593 C2597 1.376 . S
C2594 C2592 1.394 . S
C2594 C2595 1.369 . S
C2594 C2598 1.531 . S
C2595 C2594 1.369 . S
C2595 C2596 1.410 . S
C2595 C2603 1.503 . S
C2596 C2595 1.410 . S
C2596 C2597 1.392 . S
C2596 C2599 1.511 . S
C2597 C2593 1.376 . S
C2597 C2596 1.392 . S
C2597 H2609 0.929 . S
C2598 C2594 1.531 . S
C2598 H2610 0.960 . S
C2598 H2611 0.962 . S
C2598 H2612 0.960 . S
C2599 C2596 1.511 . S
C2599 H2613 0.961 . S
C2599 H2614 0.961 . S
C2599 H2615 0.961 . S
C2600 C2601 1.370 . S
C2600 C2602 1.363 . S
C2600 H2616 0.931 . S
C2601 C2600 1.370 . S
C2601 C2605 1.408 . S
C2602 C2600 1.363 . S
C2602 C2603 1.370 . S
C2602 C2606 1.524 . S
C2603 C2595 1.503 . S
C2603 C2602 1.370 . S
C2603 C2604 1.403 . S
C2604 C2603 1.403 . S
C2604 C2605 1.404 . S
C2604 C2607 1.539 . S
C2605 C2601 1.408 . S
C2605 C2604 1.404 . S
C2605 H2617 0.930 . S
C2606 C2602 1.524 . S
C2606 H2618 0.956 . S
C2606 H2619 0.961 . S
C2606 H2620 0.961 . S
C2607 C2604 1.539 . S
C2607 H2621 0.958 . S
C2607 H2622 0.961 . S
C2607 H2623 0.960 . S
H2608 C2592 0.931 . S
H2609 C2597 0.929 . S
H2610 C2598 0.960 . S
H2611 C2598 0.962 . S
H2612 C2598 0.960 . S
H2613 C2599 0.961 . S
H2614 C2599 0.961 . S
H2615 C2599 0.961 . S
H2616 C2600 0.931 . S
H2617 C2605 0.930 . S
H2618 C2606 0.956 . S
H2619 C2606 0.961 . S
H2620 C2606 0.961 . S
H2621 C2607 0.958 . S
H2622 C2607 0.961 . S
H2623 C2607 0.960 . S
C2624 C2625 1.391 . S
C2624 C2626 1.394 . S
C2624 H2640 0.931 . S
C2625 C2624 1.391 . S
C2625 C2629 1.376 . S
C2626 C2624 1.394 . S
C2626 C2627 1.369 . S
C2626 C2630 1.531 . S
C2627 C2626 1.369 . S
C2627 C2628 1.410 . S
C2627 C2635 1.503 . S
C2628 C2627 1.410 . S
C2628 C2629 1.392 . S
C2628 C2631 1.511 . S
C2629 C2625 1.376 . S
C2629 C2628 1.392 . S
C2629 H2641 0.929 . S
C2630 C2626 1.531 . S
C2630 H2642 0.960 . S
C2630 H2643 0.962 . S
C2630 H2644 0.960 . S
C2631 C2628 1.511 . S
C2631 H2645 0.961 . S
C2631 H2646 0.961 . S
C2631 H2647 0.961 . S
C2632 C2633 1.370 . S
C2632 C2634 1.363 . S
C2632 H2648 0.931 . S
C2633 C2632 1.370 . S
C2633 C2637 1.408 . S
C2634 C2632 1.363 . S
C2634 C2635 1.370 . S
C2634 C2638 1.524 . S
C2635 C2627 1.503 . S
C2635 C2634 1.370 . S
C2635 C2636 1.403 . S
C2636 C2635 1.403 . S
C2636 C2637 1.404 . S
C2636 C2639 1.539 . S
C2637 C2633 1.408 . S
C2637 C2636 1.404 . S
C2637 H2649 0.930 . S
C2638 C2634 1.524 . S
C2638 H2650 0.956 . S
C2638 H2651 0.961 . S
C2638 H2652 0.961 . S
C2639 C2636 1.539 . S
C2639 H2653 0.958 . S
C2639 H2654 0.961 . S
C2639 H2655 0.960 . S
H2640 C2624 0.931 . S
H2641 C2629 0.929 . S
H2642 C2630 0.960 . S
H2643 C2630 0.962 . S
H2644 C2630 0.960 . S
H2645 C2631 0.961 . S
H2646 C2631 0.961 . S
H2647 C2631 0.961 . S
H2648 C2632 0.931 . S
H2649 C2637 0.930 . S
H2650 C2638 0.956 . S
H2651 C2638 0.961 . S
H2652 C2638 0.961 . S
H2653 C2639 0.958 . S
H2654 C2639 0.961 . S
H2655 C2639 0.960 . S
C2656 C2657 1.391 . S
C2656 C2658 1.394 . S
C2656 H2672 0.931 . S
C2657 C2656 1.391 . S
C2657 C2661 1.376 . S
C2658 C2656 1.394 . S
C2658 C2659 1.369 . S
C2658 C2662 1.531 . S
C2659 C2658 1.369 . S
C2659 C2660 1.410 . S
C2659 C2667 1.503 . S
C2660 C2659 1.410 . S
C2660 C2661 1.392 . S
C2660 C2663 1.511 . S
C2661 C2657 1.376 . S
C2661 C2660 1.392 . S
C2661 H2673 0.929 . S
C2662 C2658 1.531 . S
C2662 H2674 0.960 . S
C2662 H2675 0.962 . S
C2662 H2676 0.960 . S
C2663 C2660 1.511 . S
C2663 H2677 0.961 . S
C2663 H2678 0.961 . S
C2663 H2679 0.961 . S
C2664 C2665 1.370 . S
C2664 C2666 1.363 . S
C2664 H2680 0.931 . S
C2665 C2664 1.370 . S
C2665 C2669 1.408 . S
C2666 C2664 1.363 . S
C2666 C2667 1.370 . S
C2666 C2670 1.524 . S
C2667 C2659 1.503 . S
C2667 C2666 1.370 . S
C2667 C2668 1.403 . S
C2668 C2667 1.403 . S
C2668 C2669 1.404 . S
C2668 C2671 1.539 . S
C2669 C2665 1.408 . S
C2669 C2668 1.404 . S
C2669 H2681 0.930 . S
C2670 C2666 1.524 . S
C2670 H2682 0.956 . S
C2670 H2683 0.961 . S
C2670 H2684 0.961 . S
C2671 C2668 1.539 . S
C2671 H2685 0.958 . S
C2671 H2686 0.961 . S
C2671 H2687 0.960 . S
H2672 C2656 0.931 . S
H2673 C2661 0.929 . S
H2674 C2662 0.960 . S
H2675 C2662 0.962 . S
H2676 C2662 0.960 . S
H2677 C2663 0.961 . S
H2678 C2663 0.961 . S
H2679 C2663 0.961 . S
H2680 C2664 0.931 . S
H2681 C2669 0.930 . S
H2682 C2670 0.956 . S
H2683 C2670 0.961 . S
H2684 C2670 0.961 . S
H2685 C2671 0.958 . S
H2686 C2671 0.961 . S
H2687 C2671 0.960 . S
C2688 C2689 1.391 . S
C2688 C2690 1.394 . S
C2688 H2704 0.931 . S
C2689 C2688 1.391 . S
C2689 C2693 1.376 . S
C2690 C2688 1.394 . S
C2690 C2691 1.369 . S
C2690 C2694 1.531 . S
C2691 C2690 1.369 . S
C2691 C2692 1.410 . S
C2691 C2699 1.503 . S
C2692 C2691 1.410 . S
C2692 C2693 1.392 . S
C2692 C2695 1.511 . S
C2693 C2689 1.376 . S
C2693 C2692 1.392 . S
C2693 H2705 0.929 . S
C2694 C2690 1.531 . S
C2694 H2706 0.960 . S
C2694 H2707 0.962 . S
C2694 H2708 0.960 . S
C2695 C2692 1.511 . S
C2695 H2709 0.961 . S
C2695 H2710 0.961 . S
C2695 H2711 0.961 . S
C2696 C2697 1.370 . S
C2696 C2698 1.363 . S
C2696 H2712 0.931 . S
C2697 C2696 1.370 . S
C2697 C2701 1.408 . S
C2698 C2696 1.363 . S
C2698 C2699 1.370 . S
C2698 C2702 1.524 . S
C2699 C2691 1.503 . S
C2699 C2698 1.370 . S
C2699 C2700 1.403 . S
C2700 C2699 1.403 . S
C2700 C2701 1.404 . S
C2700 C2703 1.539 . S
C2701 C2697 1.408 . S
C2701 C2700 1.404 . S
C2701 H2713 0.930 . S
C2702 C2698 1.524 . S
C2702 H2714 0.956 . S
C2702 H2715 0.961 . S
C2702 H2716 0.961 . S
C2703 C2700 1.539 . S
C2703 H2717 0.958 . S
C2703 H2718 0.961 . S
C2703 H2719 0.960 . S
H2704 C2688 0.931 . S
H2705 C2693 0.929 . S
H2706 C2694 0.960 . S
H2707 C2694 0.962 . S
H2708 C2694 0.960 . S
H2709 C2695 0.961 . S
H2710 C2695 0.961 . S
H2711 C2695 0.961 . S
H2712 C2696 0.931 . S
H2713 C2701 0.930 . S
H2714 C2702 0.956 . S
H2715 C2702 0.961 . S
H2716 C2702 0.961 . S
H2717 C2703 0.958 . S
H2718 C2703 0.961 . S
H2719 C2703 0.960 . S
C2720 C2721 1.391 . S
C2720 C2722 1.394 . S
C2720 H2736 0.931 . S
C2721 C2720 1.391 . S
C2721 C2725 1.376 . S
C2722 C2720 1.394 . S
C2722 C2723 1.369 . S
C2722 C2726 1.531 . S
C2723 C2722 1.369 . S
C2723 C2724 1.410 . S
C2723 C2731 1.503 . S
C2724 C2723 1.410 . S
C2724 C2725 1.392 . S
C2724 C2727 1.511 . S
C2725 C2721 1.376 . S
C2725 C2724 1.392 . S
C2725 H2737 0.929 . S
C2726 C2722 1.531 . S
C2726 H2738 0.960 . S
C2726 H2739 0.962 . S
C2726 H2740 0.960 . S
C2727 C2724 1.511 . S
C2727 H2741 0.961 . S
C2727 H2742 0.961 . S
C2727 H2743 0.961 . S
C2728 C2729 1.370 . S
C2728 C2730 1.363 . S
C2728 H2744 0.931 . S
C2729 C2728 1.370 . S
C2729 C2733 1.408 . S
C2730 C2728 1.363 . S
C2730 C2731 1.370 . S
C2730 C2734 1.524 . S
C2731 C2723 1.503 . S
C2731 C2730 1.370 . S
C2731 C2732 1.403 . S
C2732 C2731 1.403 . S
C2732 C2733 1.404 . S
C2732 C2735 1.539 . S
C2733 C2729 1.408 . S
C2733 C2732 1.404 . S
C2733 H2745 0.930 . S
C2734 C2730 1.524 . S
C2734 H2746 0.956 . S
C2734 H2747 0.961 . S
C2734 H2748 0.961 . S
C2735 C2732 1.539 . S
C2735 H2749 0.958 . S
C2735 H2750 0.961 . S
C2735 H2751 0.960 . S
H2736 C2720 0.931 . S
H2737 C2725 0.929 . S
H2738 C2726 0.960 . S
H2739 C2726 0.962 . S
H2740 C2726 0.960 . S
H2741 C2727 0.961 . S
H2742 C2727 0.961 . S
H2743 C2727 0.961 . S
H2744 C2728 0.931 . S
H2745 C2733 0.930 . S
H2746 C2734 0.956 . S
H2747 C2734 0.961 . S
H2748 C2734 0.961 . S
H2749 C2735 0.958 . S
H2750 C2735 0.961 . S
H2751 C2735 0.960 . S
C2752 C2753 1.391 . S
C2752 C2754 1.394 . S
C2752 H2768 0.931 . S
C2753 C2752 1.391 . S
C2753 C2757 1.376 . S
C2754 C2752 1.394 . S
C2754 C2755 1.369 . S
C2754 C2758 1.531 . S
C2755 C2754 1.369 . S
C2755 C2756 1.410 . S
C2755 C2763 1.503 . S
C2756 C2755 1.410 . S
C2756 C2757 1.392 . S
C2756 C2759 1.511 . S
C2757 C2753 1.376 . S
C2757 C2756 1.392 . S
C2757 H2769 0.929 . S
C2758 C2754 1.531 . S
C2758 H2770 0.960 . S
C2758 H2771 0.962 . S
C2758 H2772 0.960 . S
C2759 C2756 1.511 . S
C2759 H2773 0.961 . S
C2759 H2774 0.961 . S
C2759 H2775 0.961 . S
C2760 C2761 1.370 . S
C2760 C2762 1.363 . S
C2760 H2776 0.931 . S
C2761 C2760 1.370 . S
C2761 C2765 1.408 . S
C2762 C2760 1.363 . S
C2762 C2763 1.370 . S
C2762 C2766 1.524 . S
C2763 C2755 1.503 . S
C2763 C2762 1.370 . S
C2763 C2764 1.403 . S
C2764 C2763 1.403 . S
C2764 C2765 1.404 . S
C2764 C2767 1.539 . S
C2765 C2761 1.408 . S
C2765 C2764 1.404 . S
C2765 H2777 0.930 . S
C2766 C2762 1.524 . S
C2766 H2778 0.956 . S
C2766 H2779 0.961 . S
C2766 H2780 0.961 . S
C2767 C2764 1.539 . S
C2767 H2781 0.958 . S
C2767 H2782 0.961 . S
C2767 H2783 0.960 . S
H2768 C2752 0.931 . S
H2769 C2757 0.929 . S
H2770 C2758 0.960 . S
H2771 C2758 0.962 . S
H2772 C2758 0.960 . S
H2773 C2759 0.961 . S
H2774 C2759 0.961 . S
H2775 C2759 0.961 . S
H2776 C2760 0.931 . S
H2777 C2765 0.930 . S
H2778 C2766 0.956 . S
H2779 C2766 0.961 . S
H2780 C2766 0.961 . S
H2781 C2767 0.958 . S
H2782 C2767 0.961 . S
H2783 C2767 0.960 . S
C481 C18 1.236 . S
C489 C362 1.242 . S
C513 C382 1.202 . S
C521 C38 1.259 . S
C545 C58 1.238 . S
C553 C322 1.242 . S
C577 C78 1.233 . S
C585 C342 1.242 . S
C609 C442 1.204 . S
C617 C98 1.267 . S
C641 C118 1.262 . S
C649 C422 1.214 . S
C673 C462 1.183 . S
C681 C138 1.267 . S
C705 C158 1.238 . S
C713 C402 1.231 . S
C737 C178 1.257 . S
C745 C262 1.217 . S
C769 C198 1.241 . S
C777 C302 1.229 . S
C801 C282 1.255 . S
C809 C218 1.254 . S
C833 C238 1.249 . S
C841 C242 1.238 . S
C865 C259 1.246 . S
C873 C124 1.235 . S
C897 C279 1.259 . S
C905 C144 1.221 . S
C929 C299 1.276 . S
C937 C84 1.211 . S
C961 C104 1.251 . S
C969 C319 1.253 . S
C993 C339 1.276 . S
C1001 C204 1.211 . S
C1025 C184 1.217 . S
C1033 C359 1.262 . S
C1057 C224 1.221 . S
C1065 C379 1.261 . S
C1089 C164 1.220 . S
C1097 C399 1.261 . S
C1121 C24 1.228 . S
C1129 C419 1.256 . S
C1153 C64 1.186 . S
C1161 C439 1.268 . S
C1185 C44 1.261 . S
C1193 C459 1.249 . S
C1217 C479 1.279 . S
C1225 C4 1.210 . S
C1249 C82 1.289 . S
C1257 C9 1.438 . S
C1281 C102 1.284 . S
C1289 C29 1.437 . S
C1313 C122 1.278 . S
C1321 C49 1.436 . S
C1345 C142 1.263 . S
C1353 C69 1.433 . S
C1377 C89 1.446 . S
C1385 C162 1.321 . S
C1409 C109 1.430 . S
C1417 C222 1.303 . S
C1441 C129 1.416 . S
C1449 C182 1.295 . S
C1473 C149 1.434 . S
C1481 C202 1.307 . S
C1505 C169 1.444 . S
C1513 C2 1.319 . S
C1537 C189 1.421 . S
C1545 C42 1.306 . S
C1569 C209 1.427 . S
C1577 C62 1.300 . S
C1601 C22 1.264 . S
C1609 C229 1.431 . S
C1633 C324 1.362 . S
C1641 C252 1.446 . S
C1665 C344 1.273 . S
C1673 C272 1.433 . S
C1697 C292 1.430 . S
C1705 C364 1.309 . S
C1729 C312 1.440 . S
C1737 C384 1.321 . S
C1761 C404 1.289 . S
C1769 C332 1.435 . S
C1793 C352 1.449 . S
C1801 C464 1.332 . S
C1825 C424 1.349 . S
C1833 C372 1.445 . S
C1857 C392 1.441 . S
C1865 C444 1.323 . S
C1889 C244 1.276 . S
C1897 C412 1.434 . S
C1921 C432 1.442 . S
C1929 C284 1.325 . S
C1953 C452 1.421 . S
C1961 C304 1.299 . S
C1985 C264 1.260 . S
C1993 C472 1.431 . S
C2017 C19 1.541 . S
C2025 C192 1.518 . S
C2049 C212 1.557 . S
C2057 C39 1.500 . S
C2081 C172 1.562 . S
C2089 C59 1.497 . S
C2113 C232 1.542 . S
C2121 C79 1.506 . S
C2145 C99 1.548 . S
C2153 C72 1.515 . S
C2177 C52 1.489 . S
C2185 C119 1.531 . S
C2209 C139 1.499 . S
C2217 C32 1.534 . S
C2241 C12 1.504 . S
C2249 C159 1.524 . S
C2273 C179 1.543 . S
C2281 C112 1.517 . S
C2305 C199 1.545 . S
C2313 C152 1.516 . S
C2337 C219 1.475 . S
C2345 C132 1.543 . S
C2369 C239 1.520 . S
C2377 C92 1.526 . S
C2401 C258 1.542 . S
C2409 C429 1.515 . S
C2433 C278 1.536 . S
C2441 C449 1.517 . S
C2465 C409 1.525 . S
C2473 C298 1.509 . S
C2497 C469 1.555 . S
C2505 C318 1.498 . S
C2529 C338 1.508 . S
C2537 C309 1.535 . S
C2561 C358 1.472 . S
C2569 C289 1.543 . S
C2593 C269 1.505 . S
C2601 C378 1.527 . S
C2625 C398 1.481 . S
C2633 C249 1.543 . S
C2657 C418 1.494 . S
C2665 C349 1.532 . S
C2689 C389 1.505 . S
C2697 C438 1.527 . S
C2721 C458 1.470 . S
C2729 C369 1.543 . S
C2753 C478 1.471 . S
C2761 C329 1.545 . S
