# Generated by pormake.
# Topology ato, (4)-cn, num edge types: 1
# Building blocks:
#     Node 0, Type 0, BuildingBlock: GALJAG_clean_sbu_0, # of connection points: 4
#     Node 1, Type 0, BuildingBlock: GALJAG_clean_sbu_0, # of connection points: 4
#     Node 2, Type 0, BuildingBlock: GALJAG_clean_sbu_0, # of connection points: 4
#     Node 3, Type 0, BuildingBlock: GALJAG_clean_sbu_0, # of connection points: 4
#     Node 4, Type 0, BuildingBlock: GALJAG_clean_sbu_0, # of connection points: 4
#     Node 5, Type 0, BuildingBlock: GALJAG_clean_sbu_0, # of connection points: 4
#     Node 6, Type 0, BuildingBlock: GALJAG_clean_sbu_0, # of connection points: 4
#     Node 7, Type 0, BuildingBlock: GALJAG_clean_sbu_0, # of connection points: 4
#     Node 8, Type 0, BuildingBlock: GALJAG_clean_sbu_0, # of connection points: 4
#     Node 9, Type 0, BuildingBlock: GALJAG_clean_sbu_0, # of connection points: 4
#     Node 10, Type 0, BuildingBlock: GALJAG_clean_sbu_0, # of connection points: 4
#     Node 11, Type 0, BuildingBlock: GALJAG_clean_sbu_0, # of connection points: 4
#     Node 12, Type 0, BuildingBlock: GALJAG_clean_sbu_0, # of connection points: 4
#     Node 13, Type 0, BuildingBlock: GALJAG_clean_sbu_0, # of connection points: 4
#     Node 14, Type 0, BuildingBlock: GALJAG_clean_sbu_0, # of connection points: 4
#     Node 15, Type 0, BuildingBlock: GALJAG_clean_sbu_0, # of connection points: 4
#     Node 16, Type 0, BuildingBlock: GALJAG_clean_sbu_0, # of connection points: 4
#     Node 17, Type 0, BuildingBlock: GALJAG_clean_sbu_0, # of connection points: 4
#     Node 18, Type 0, BuildingBlock: GALJAG_clean_sbu_0, # of connection points: 4
#     Node 19, Type 0, BuildingBlock: GALJAG_clean_sbu_0, # of connection points: 4
#     Node 20, Type 0, BuildingBlock: GALJAG_clean_sbu_0, # of connection points: 4
#     Node 21, Type 0, BuildingBlock: GALJAG_clean_sbu_0, # of connection points: 4
#     Node 22, Type 0, BuildingBlock: GALJAG_clean_sbu_0, # of connection points: 4
#     Node 23, Type 0, BuildingBlock: GALJAG_clean_sbu_0, # of connection points: 4
#     Node 24, Type 0, BuildingBlock: GALJAG_clean_sbu_0, # of connection points: 4
#     Node 25, Type 0, BuildingBlock: GALJAG_clean_sbu_0, # of connection points: 4
#     Node 26, Type 0, BuildingBlock: GALJAG_clean_sbu_0, # of connection points: 4
#     Node 27, Type 0, BuildingBlock: GALJAG_clean_sbu_0, # of connection points: 4
#     Node 28, Type 0, BuildingBlock: GALJAG_clean_sbu_0, # of connection points: 4
#     Node 29, Type 0, BuildingBlock: GALJAG_clean_sbu_0, # of connection points: 4
#     Node 30, Type 0, BuildingBlock: GALJAG_clean_sbu_0, # of connection points: 4
#     Node 31, Type 0, BuildingBlock: GALJAG_clean_sbu_0, # of connection points: 4
#     Node 32, Type 0, BuildingBlock: GALJAG_clean_sbu_0, # of connection points: 4
#     Node 33, Type 0, BuildingBlock: GALJAG_clean_sbu_0, # of connection points: 4
#     Node 34, Type 0, BuildingBlock: GALJAG_clean_sbu_0, # of connection points: 4
#     Node 35, Type 0, BuildingBlock: GALJAG_clean_sbu_0, # of connection points: 4
#     Edge 36, Type (0, 0), BuildingBlock: CIFDUS_clean_linker_0, # of connection points: 2
#     Edge 37, Type (0, 0), BuildingBlock: CIFDUS_clean_linker_0, # of connection points: 2
#     Edge 38, Type (0, 0), BuildingBlock: CIFDUS_clean_linker_0, # of connection points: 2
#     Edge 39, Type (0, 0), BuildingBlock: CIFDUS_clean_linker_0, # of connection points: 2
#     Edge 40, Type (0, 0), BuildingBlock: CIFDUS_clean_linker_0, # of connection points: 2
#     Edge 41, Type (0, 0), BuildingBlock: CIFDUS_clean_linker_0, # of connection points: 2
#     Edge 42, Type (0, 0), BuildingBlock: CIFDUS_clean_linker_0, # of connection points: 2
#     Edge 43, Type (0, 0), BuildingBlock: CIFDUS_clean_linker_0, # of connection points: 2
#     Edge 44, Type (0, 0), BuildingBlock: CIFDUS_clean_linker_0, # of connection points: 2
#     Edge 45, Type (0, 0), BuildingBlock: CIFDUS_clean_linker_0, # of connection points: 2
#     Edge 46, Type (0, 0), BuildingBlock: CIFDUS_clean_linker_0, # of connection points: 2
#     Edge 47, Type (0, 0), BuildingBlock: CIFDUS_clean_linker_0, # of connection points: 2
#     Edge 48, Type (0, 0), BuildingBlock: CIFDUS_clean_linker_0, # of connection points: 2
#     Edge 49, Type (0, 0), BuildingBlock: CIFDUS_clean_linker_0, # of connection points: 2
#     Edge 50, Type (0, 0), BuildingBlock: CIFDUS_clean_linker_0, # of connection points: 2
#     Edge 51, Type (0, 0), BuildingBlock: CIFDUS_clean_linker_0, # of connection points: 2
#     Edge 52, Type (0, 0), BuildingBlock: CIFDUS_clean_linker_0, # of connection points: 2
#     Edge 53, Type (0, 0), BuildingBlock: CIFDUS_clean_linker_0, # of connection points: 2
#     Edge 54, Type (0, 0), BuildingBlock: CIFDUS_clean_linker_0, # of connection points: 2
#     Edge 55, Type (0, 0), BuildingBlock: CIFDUS_clean_linker_0, # of connection points: 2
#     Edge 56, Type (0, 0), BuildingBlock: CIFDUS_clean_linker_0, # of connection points: 2
#     Edge 57, Type (0, 0), BuildingBlock: CIFDUS_clean_linker_0, # of connection points: 2
#     Edge 58, Type (0, 0), BuildingBlock: CIFDUS_clean_linker_0, # of connection points: 2
#     Edge 59, Type (0, 0), BuildingBlock: CIFDUS_clean_linker_0, # of connection points: 2
#     Edge 60, Type (0, 0), BuildingBlock: CIFDUS_clean_linker_0, # of connection points: 2
#     Edge 61, Type (0, 0), BuildingBlock: CIFDUS_clean_linker_0, # of connection points: 2
#     Edge 62, Type (0, 0), BuildingBlock: CIFDUS_clean_linker_0, # of connection points: 2
#     Edge 63, Type (0, 0), BuildingBlock: CIFDUS_clean_linker_0, # of connection points: 2
#     Edge 64, Type (0, 0), BuildingBlock: CIFDUS_clean_linker_0, # of connection points: 2
#     Edge 65, Type (0, 0), BuildingBlock: CIFDUS_clean_linker_0, # of connection points: 2
#     Edge 66, Type (0, 0), BuildingBlock: CIFDUS_clean_linker_0, # of connection points: 2
#     Edge 67, Type (0, 0), BuildingBlock: CIFDUS_clean_linker_0, # of connection points: 2
#     Edge 68, Type (0, 0), BuildingBlock: CIFDUS_clean_linker_0, # of connection points: 2
#     Edge 69, Type (0, 0), BuildingBlock: CIFDUS_clean_linker_0, # of connection points: 2
#     Edge 70, Type (0, 0), BuildingBlock: CIFDUS_clean_linker_0, # of connection points: 2
#     Edge 71, Type (0, 0), BuildingBlock: CIFDUS_clean_linker_0, # of connection points: 2
#     Edge 72, Type (0, 0), BuildingBlock: CIFDUS_clean_linker_0, # of connection points: 2
#     Edge 73, Type (0, 0), BuildingBlock: CIFDUS_clean_linker_0, # of connection points: 2
#     Edge 74, Type (0, 0), BuildingBlock: CIFDUS_clean_linker_0, # of connection points: 2
#     Edge 75, Type (0, 0), BuildingBlock: CIFDUS_clean_linker_0, # of connection points: 2
#     Edge 76, Type (0, 0), BuildingBlock: CIFDUS_clean_linker_0, # of connection points: 2
#     Edge 77, Type (0, 0), BuildingBlock: CIFDUS_clean_linker_0, # of connection points: 2
#     Edge 78, Type (0, 0), BuildingBlock: CIFDUS_clean_linker_0, # of connection points: 2
#     Edge 79, Type (0, 0), BuildingBlock: CIFDUS_clean_linker_0, # of connection points: 2
#     Edge 80, Type (0, 0), BuildingBlock: CIFDUS_clean_linker_0, # of connection points: 2
#     Edge 81, Type (0, 0), BuildingBlock: CIFDUS_clean_linker_0, # of connection points: 2
#     Edge 82, Type (0, 0), BuildingBlock: CIFDUS_clean_linker_0, # of connection points: 2
#     Edge 83, Type (0, 0), BuildingBlock: CIFDUS_clean_linker_0, # of connection points: 2
#     Edge 84, Type (0, 0), BuildingBlock: CIFDUS_clean_linker_0, # of connection points: 2
#     Edge 85, Type (0, 0), BuildingBlock: CIFDUS_clean_linker_0, # of connection points: 2
#     Edge 86, Type (0, 0), BuildingBlock: CIFDUS_clean_linker_0, # of connection points: 2
#     Edge 87, Type (0, 0), BuildingBlock: CIFDUS_clean_linker_0, # of connection points: 2
#     Edge 88, Type (0, 0), BuildingBlock: CIFDUS_clean_linker_0, # of connection points: 2
#     Edge 89, Type (0, 0), BuildingBlock: CIFDUS_clean_linker_0, # of connection points: 2
#     Edge 90, Type (0, 0), BuildingBlock: CIFDUS_clean_linker_0, # of connection points: 2
#     Edge 91, Type (0, 0), BuildingBlock: CIFDUS_clean_linker_0, # of connection points: 2
#     Edge 92, Type (0, 0), BuildingBlock: CIFDUS_clean_linker_0, # of connection points: 2
#     Edge 93, Type (0, 0), BuildingBlock: CIFDUS_clean_linker_0, # of connection points: 2
#     Edge 94, Type (0, 0), BuildingBlock: CIFDUS_clean_linker_0, # of connection points: 2
#     Edge 95, Type (0, 0), BuildingBlock: CIFDUS_clean_linker_0, # of connection points: 2
#     Edge 96, Type (0, 0), BuildingBlock: CIFDUS_clean_linker_0, # of connection points: 2
#     Edge 97, Type (0, 0), BuildingBlock: CIFDUS_clean_linker_0, # of connection points: 2
#     Edge 98, Type (0, 0), BuildingBlock: CIFDUS_clean_linker_0, # of connection points: 2
#     Edge 99, Type (0, 0), BuildingBlock: CIFDUS_clean_linker_0, # of connection points: 2
#     Edge 100, Type (0, 0), BuildingBlock: CIFDUS_clean_linker_0, # of connection points: 2
#     Edge 101, Type (0, 0), BuildingBlock: CIFDUS_clean_linker_0, # of connection points: 2
#     Edge 102, Type (0, 0), BuildingBlock: CIFDUS_clean_linker_0, # of connection points: 2
#     Edge 103, Type (0, 0), BuildingBlock: CIFDUS_clean_linker_0, # of connection points: 2
#     Edge 104, Type (0, 0), BuildingBlock: CIFDUS_clean_linker_0, # of connection points: 2
#     Edge 105, Type (0, 0), BuildingBlock: CIFDUS_clean_linker_0, # of connection points: 2
#     Edge 106, Type (0, 0), BuildingBlock: CIFDUS_clean_linker_0, # of connection points: 2
#     Edge 107, Type (0, 0), BuildingBlock: CIFDUS_clean_linker_0, # of connection points: 2
# Relax obj value: 0.074
# Max RMSD: 0.099
# Mean RMSD: 0.099
data_MOF--net-ato--node1-GALJAG_clean_sbu_0--edge1-CIFDUS_clean_linker_0
_symmetry_space_group_name_H-M    P1
_symmetry_Int_Tables_number       1
_symmetry_cell_setting            triclinic
loop_
_symmetry_equiv_pos_as_xyz
'x, y, z'
_cell_length_a     94.755188
_cell_length_b     94.699106
_cell_length_c     18.755771
_cell_angle_alpha  89.998169
_cell_angle_beta   89.981822
_cell_angle_gamma 120.01692
loop_
_atom_site_label
_atom_site_type_symbol
_atom_site_fract_x
_atom_site_fract_y
_atom_site_fract_z
_atom_type_partial_charge
In0 In 0.25845 0.06181 0.25953 0.0
O1 O 0.25931 0.0447 0.34383 0.0
O2 O 0.23914 0.04861 0.34573 0.0
C3 C 0.28997 0.07781 0.21637 0.0
C4 C 0.24281 0.03915 0.15777 0.0
C5 C 0.2549 0.0881 0.28043 0.0
O6 O 0.28599 0.07355 0.2805 0.0
O7 O 0.27814 0.07404 0.17495 0.0
O8 O 0.24885 0.07875 0.22736 0.0
O9 O 0.26246 0.08401 0.3235 0.0
C10 C 0.24587 0.04122 0.37219 0.0
O11 O 0.23814 0.04899 0.17628 0.0
O12 O 0.25523 0.0409 0.19022 0.0
In13 In 0.94209 0.1954 0.2402 0.0
O14 O 0.95953 0.21383 0.32128 0.0
O15 O 0.95551 0.18974 0.32742 0.0
C16 C 0.92492 0.21086 0.22066 0.0
C17 C 0.96463 0.20405 0.1363 0.0
C18 C 0.9168 0.16442 0.24043 0.0
O19 O 0.92954 0.20538 0.17005 0.0
O20 O 0.92884 0.20845 0.28194 0.0
O21 O 0.92585 0.17086 0.18691 0.0
O22 O 0.9207 0.17351 0.29468 0.0
C23 C 0.96305 0.2041 0.35144 0.0
O24 O 0.95772 0.19001 0.16391 0.0
O25 O 0.96004 0.2135 0.16065 0.0
In26 In 0.80666 0.74771 0.24035 0.0
O27 O 0.81275 0.76619 0.15066 0.0
O28 O 0.78786 0.75102 0.17923 0.0
C29 C 0.83786 0.75422 0.24905 0.0
C30 C 0.79862 0.75977 0.35502 0.0
C31 C 0.79139 0.71586 0.20097 0.0
O32 O 0.83282 0.7598 0.20053 0.0
O33 O 0.82719 0.74546 0.29445 0.0
O34 O 0.79717 0.72747 0.15699 0.0
O35 O 0.79339 0.72024 0.26551 0.0
C36 C 0.7981 0.76226 0.13964 0.0
O37 O 0.78947 0.74561 0.33098 0.0
O38 O 0.81213 0.76755 0.32342 0.0
In39 In 0.05739 0.25757 0.7402 0.0
O40 O 0.04015 0.23829 0.81961 0.0
O41 O 0.04009 0.26067 0.81363 0.0
C42 C 0.08016 0.24824 0.74004 0.0
C43 C 0.03682 0.24746 0.62722 0.0
C44 C 0.07719 0.28982 0.76305 0.0
O45 O 0.07131 0.24651 0.7932 0.0
O46 O 0.07727 0.2543 0.68595 0.0
O47 O 0.07321 0.28383 0.70122 0.0
O48 O 0.07134 0.27953 0.81294 0.0
C49 C 0.03424 0.2468 0.84216 0.0
O50 O 0.04476 0.26213 0.64691 0.0
O51 O 0.03972 0.23789 0.66274 0.0
In52 In 0.74554 0.80197 0.74247 0.0
O53 O 0.74143 0.78183 0.6639 0.0
O54 O 0.76406 0.80385 0.65818 0.0
C55 C 0.71305 0.78901 0.7576 0.0
C56 C 0.75628 0.79151 0.85234 0.0
C57 C 0.75469 0.8341 0.74146 0.0
O58 O 0.71965 0.79054 0.69729 0.0
O59 O 0.72287 0.79426 0.80931 0.0
O60 O 0.7574 0.82729 0.79312 0.0
O61 O 0.74781 0.82484 0.68898 0.0
C62 C 0.75525 0.78955 0.63488 0.0
O63 O 0.74144 0.78522 0.83618 0.0
O64 O 0.76588 0.80325 0.81309 0.0
In65 In 0.19962 0.94622 0.76041 0.0
O66 O 0.21413 0.95565 0.65669 0.0
O67 O 0.20033 0.96644 0.69036 0.0
C68 C 0.21259 0.9274 0.79509 0.0
C69 C 0.21179 0.96847 0.86667 0.0
C70 C 0.16773 0.92301 0.74784 0.0
O71 O 0.21724 0.93676 0.74157 0.0
O72 O 0.20121 0.92733 0.8304 0.0
O73 O 0.17328 0.9327 0.79987 0.0
O74 O 0.17814 0.92542 0.70033 0.0
C75 C 0.21023 0.96639 0.64554 0.0
O76 O 0.19801 0.96395 0.83936 0.0
O77 O 0.2192 0.96176 0.84065 0.0
In78 In 0.74696 0.94186 0.75733 0.0
O79 O 0.76447 0.95709 0.84769 0.0
O80 O 0.74606 0.96228 0.81391 0.0
C81 C 0.75273 0.91716 0.73102 0.0
C82 C 0.75966 0.96227 0.64553 0.0
C83 C 0.71586 0.92411 0.80205 0.0
O84 O 0.7583 0.92608 0.78581 0.0
O85 O 0.7447 0.92101 0.68964 0.0
O86 O 0.71946 0.9295 0.73899 0.0
O87 O 0.72792 0.92748 0.84159 0.0
C88 C 0.75791 0.96584 0.85499 0.0
O89 O 0.74457 0.95474 0.65917 0.0
O90 O 0.76818 0.95898 0.68657 0.0
In91 In 0.06316 0.80511 0.75285 0.0
O92 O 0.05134 0.78808 0.65788 0.0
O93 O 0.04401 0.80547 0.67985 0.0
C94 C 0.08155 0.79253 0.79908 0.0
C95 C 0.0405 0.79405 0.85706 0.0
C96 C 0.08709 0.83607 0.72493 0.0
O97 O 0.07522 0.78958 0.73765 0.0
O98 O 0.07892 0.8021 0.83615 0.0
O99 O 0.07813 0.8324 0.77953 0.0
O100 O 0.08365 0.82426 0.68373 0.0
C101 C 0.04215 0.79368 0.64171 0.0
O102 O 0.04708 0.80862 0.83513 0.0
O103 O 0.0454 0.78543 0.82659 0.0
In104 In 0.19343 0.25146 0.75053 0.0
O105 O 0.21141 0.25393 0.66351 0.0
O106 O 0.18929 0.23133 0.6718 0.0
C107 C 0.2078 0.28296 0.79201 0.0
C108 C 0.2019 0.23772 0.85554 0.0
C109 C 0.16349 0.24701 0.72303 0.0
O110 O 0.20967 0.27886 0.73009 0.0
O111 O 0.1986 0.27121 0.83207 0.0
O112 O 0.16663 0.24159 0.77871 0.0
O113 O 0.17532 0.25427 0.68058 0.0
C114 C 0.20286 0.23952 0.64092 0.0
O115 O 0.1873 0.23154 0.83485 0.0
O116 O 0.21187 0.25061 0.82363 0.0
In117 In 0.94782 0.75031 0.25271 0.0
O118 O 0.96117 0.77083 0.17034 0.0
O119 O 0.96816 0.75283 0.1816 0.0
C120 C 0.92137 0.75333 0.27731 0.0
C121 C 0.96835 0.7622 0.36533 0.0
C122 C 0.93164 0.71908 0.20691 0.0
O123 O 0.93091 0.76024 0.22549 0.0
O124 O 0.92546 0.74531 0.31763 0.0
O125 O 0.93655 0.72277 0.27051 0.0
O126 O 0.93489 0.73108 0.16723 0.0
C127 C 0.97046 0.76558 0.15033 0.0
O128 O 0.96398 0.7484 0.33841 0.0
O129 O 0.96189 0.7697 0.33731 0.0
In130 In 0.25903 0.20216 0.2499 0.0
O131 O 0.26318 0.21958 0.34201 0.0
O132 O 0.23939 0.19935 0.32946 0.0
C133 C 0.29119 0.21658 0.22041 0.0
C134 C 0.24668 0.21307 0.14851 0.0
C135 C 0.25191 0.17063 0.25294 0.0
O136 O 0.2858 0.21397 0.28352 0.0
O137 O 0.28038 0.21167 0.17271 0.0
O138 O 0.24875 0.17684 0.20024 0.0
O139 O 0.25827 0.18018 0.30501 0.0
C140 C 0.24862 0.21222 0.36339 0.0
O141 O 0.23876 0.19869 0.17251 0.0
O142 O 0.26062 0.22168 0.17548 0.0
In143 In 0.80054 0.05692 0.2574 0.0
O144 O 0.80749 0.04084 0.19182 0.0
O145 O 0.78627 0.04164 0.1623 0.0
C146 C 0.83127 0.0822 0.27435 0.0
C147 C 0.78754 0.03412 0.36135 0.0
C148 C 0.78512 0.07412 0.23803 0.0
O149 O 0.82592 0.07508 0.21546 0.0
O150 O 0.82124 0.07635 0.32515 0.0
O151 O 0.79131 0.07029 0.1873 0.0
O152 O 0.78678 0.06935 0.29868 0.0
C153 C 0.79538 0.03573 0.15063 0.0
O154 O 0.77937 0.03899 0.32686 0.0
O155 O 0.80245 0.04113 0.34507 0.0
In156 In 0.9238 0.39333 0.56141 0.0
O157 O 0.90564 0.37681 0.47624 0.0
O158 O 0.92708 0.37543 0.49329 0.0
C159 C 0.91634 0.41742 0.55781 0.0
C160 C 0.9103 0.37259 0.67263 0.0
C161 C 0.95644 0.41221 0.54799 0.0
O162 O 0.91457 0.40852 0.50462 0.0
O163 O 0.92147 0.4139 0.61326 0.0
O164 O 0.94954 0.40765 0.60797 0.0
O165 O 0.94688 0.40737 0.49535 0.0
C166 C 0.91391 0.3702 0.45949 0.0
O167 O 0.92499 0.37842 0.6544 0.0
O168 O 0.90254 0.37771 0.63654 0.0
In169 In 0.61102 0.53181 0.60191 0.0
O170 O 0.62748 0.52906 0.51989 0.0
O171 O 0.63033 0.55257 0.53761 0.0
C172 C 0.58694 0.50049 0.61995 0.0
C173 C 0.63091 0.54236 0.71703 0.0
C174 C 0.59303 0.54449 0.55151 0.0
O175 O 0.5968 0.50491 0.56836 0.0
O176 O 0.58967 0.5117 0.66367 0.0
O177 O 0.59748 0.546 0.61595 0.0
O178 O 0.59742 0.53639 0.51341 0.0
C179 C 0.63496 0.54407 0.50408 0.0
O180 O 0.62158 0.5478 0.70091 0.0
O181 O 0.62961 0.53104 0.67714 0.0
In182 In 0.47214 0.0808 0.59375 0.0
O183 O 0.45326 0.07608 0.68001 0.0
O184 O 0.47363 0.09996 0.67349 0.0
C185 C 0.45956 0.04854 0.57194 0.0
C186 C 0.46084 0.09143 0.48671 0.0
C187 C 0.50417 0.0897 0.59659 0.0
O188 O 0.46084 0.05449 0.63354 0.0
O189 O 0.46486 0.05889 0.52215 0.0
O190 O 0.49748 0.09218 0.54382 0.0
O191 O 0.49486 0.08323 0.64935 0.0
C192 C 0.46023 0.09048 0.70339 0.0
O193 O 0.45348 0.07696 0.50921 0.0
O194 O 0.47408 0.10075 0.51821 0.0
In195 In 0.72625 0.58739 0.10263 0.0
O196 O 0.71111 0.56577 0.17728 0.0
O197 O 0.70767 0.58627 0.1815 0.0
C198 C 0.75166 0.58208 0.09303 0.0
C199 C 0.70573 0.57587 0.98925 0.0
C200 C 0.74335 0.61932 0.13899 0.0
O201 O 0.74159 0.57679 0.14391 0.0
O202 O 0.74874 0.58982 0.04597 0.0
O203 O 0.7389 0.61475 0.07551 0.0
O204 O 0.73926 0.60786 0.18298 0.0
C205 C 0.70365 0.5723 0.2052 0.0
O206 O 0.71379 0.56942 0.0109 0.0
O207 O 0.70856 0.58858 0.02261 0.0
In208 In 0.41744 0.14151 0.09538 0.0
O209 O 0.41531 0.12403 0.00597 0.0
O210 O 0.43707 0.14692 0.01164 0.0
C211 C 0.38588 0.12627 0.1384 0.0
C212 C 0.4324 0.13321 0.19521 0.0
C213 C 0.42296 0.1723 0.08121 0.0
O214 O 0.38983 0.12702 0.07356 0.0
O215 O 0.39776 0.13331 0.18059 0.0
O216 O 0.42842 0.16786 0.13264 0.0
O217 O 0.41485 0.16124 0.03621 0.0
C218 C 0.42936 0.13328 0.98101 0.0
O219 O 0.43714 0.14791 0.18005 0.0
O220 O 0.42022 0.12289 0.16017 0.0
In221 In 0.86716 0.27783 0.0619 0.0
O222 O 0.86071 0.2932 0.13485 0.0
O223 O 0.88365 0.29464 0.14876 0.0
C224 C 0.83617 0.25316 0.04321 0.0
C225 C 0.87991 0.30007 0.95536 0.0
C226 C 0.88118 0.25953 0.0874 0.0
O227 O 0.84115 0.26087 0.10112 0.0
O228 O 0.84669 0.25818 0.99416 0.0
O229 O 0.87999 0.26414 0.02567 0.0
O230 O 0.87523 0.26409 0.13643 0.0
C231 C 0.87408 0.29954 0.16813 0.0
O232 O 0.88751 0.29389 0.98475 0.0
O233 O 0.86557 0.29465 0.97802 0.0
In234 In 0.41394 0.27918 0.03355 0.0
O235 O 0.41391 0.28754 0.91924 0.0
O236 O 0.43651 0.29836 0.97521 0.0
C237 C 0.38186 0.26501 0.0667 0.0
C238 C 0.4265 0.30343 0.12993 0.0
C239 C 0.41943 0.2538 0.02053 0.0
O240 O 0.38744 0.27156 0.00695 0.0
O241 O 0.39245 0.26581 0.10963 0.0
O242 O 0.41088 0.25649 0.97732 0.0
O243 O 0.42574 0.26424 0.06963 0.0
C244 C 0.42896 0.29789 0.91906 0.0
O245 O 0.42681 0.29035 0.13904 0.0
O246 O 0.41958 0.30406 0.07354 0.0
In247 In 0.72565 0.14071 0.0957 0.0
O248 O 0.70855 0.1226 0.01336 0.0
O249 O 0.71221 0.14665 0.01001 0.0
C250 C 0.7406 0.12287 0.1158 0.0
C251 C 0.70436 0.13429 0.20377 0.0
C252 C 0.75004 0.17214 0.08326 0.0
O253 O 0.739 0.12768 0.05535 0.0
O254 O 0.73454 0.1269 0.16612 0.0
O255 O 0.73925 0.16744 0.13096 0.0
O256 O 0.74829 0.1611 0.04055 0.0
C257 C 0.705 0.13242 0.98407 0.0
O258 O 0.7195 0.14377 0.21087 0.0
O259 O 0.70005 0.128 0.14277 0.0
In260 In 0.86853 0.59268 0.07008 0.0
O261 O 0.86096 0.57119 0.1466 0.0
O262 O 0.88619 0.5885 0.13534 0.0
C263 C 0.83801 0.58766 0.05118 0.0
C264 C 0.87939 0.58401 0.95388 0.0
C265 C 0.88371 0.62369 0.12004 0.0
O266 O 0.84221 0.58293 0.10587 0.0
O267 O 0.8491 0.59459 0.00514 0.0
O268 O 0.88262 0.62038 0.05441 0.0
O269 O 0.87707 0.61139 0.16029 0.0
C270 C 0.87542 0.57557 0.16462 0.0
O271 O 0.88673 0.59819 0.97996 0.0
O272 O 0.8662 0.57432 0.98476 0.0
In273 In 0.61168 0.08119 0.59049 0.0
O274 O 0.62619 0.07587 0.67288 0.0
O275 O 0.62832 0.09929 0.67455 0.0
C276 C 0.59892 0.04918 0.55739 0.0
C277 C 0.63077 0.09838 0.47968 0.0
C278 C 0.58685 0.08714 0.61502 0.0
O279 O 0.59268 0.05405 0.60371 0.0
O280 O 0.61172 0.06036 0.52925 0.0
O281 O 0.59469 0.09083 0.5572 0.0
O282 O 0.59177 0.08085 0.66073 0.0
C283 C 0.63275 0.08986 0.70087 0.0
O284 O 0.61608 0.08737 0.47175 0.0
O285 O 0.63553 0.10118 0.54356 0.0
In286 In 0.92375 0.53302 0.56759 0.0
O287 O 0.90446 0.52977 0.48418 0.0
O288 O 0.92823 0.55027 0.47586 0.0
C289 C 0.91807 0.50225 0.58555 0.0
C290 C 0.90963 0.54204 0.66984 0.0
C291 C 0.95653 0.54838 0.55994 0.0
O292 O 0.91505 0.50706 0.52779 0.0
O293 O 0.92356 0.51281 0.63439 0.0
O294 O 0.94912 0.54945 0.61394 0.0
O295 O 0.94738 0.53929 0.51086 0.0
C296 C 0.91403 0.54265 0.4509 0.0
O297 O 0.90268 0.52796 0.64284 0.0
O298 O 0.92379 0.55143 0.64642 0.0
In299 In 0.47362 0.3927 0.54129 0.0
O300 O 0.46554 0.38552 0.65719 0.0
O301 O 0.47462 0.37227 0.59995 0.0
C302 C 0.4575 0.40855 0.50418 0.0
C303 C 0.46119 0.36867 0.4436 0.0
C304 C 0.50528 0.41593 0.55886 0.0
O305 O 0.45362 0.3994 0.55816 0.0
O306 O 0.46945 0.40974 0.46975 0.0
O307 O 0.50061 0.40557 0.50913 0.0
O308 O 0.49407 0.41432 0.6002 0.0
C309 C 0.46853 0.37391 0.65698 0.0
O310 O 0.47484 0.38146 0.43473 0.0
O311 O 0.45384 0.36824 0.50027 0.0
In312 In 0.5875 0.72334 0.90175 0.0
O313 O 0.56466 0.7054 0.83998 0.0
O314 O 0.58754 0.7087 0.8064 0.0
C315 C 0.57975 0.74723 0.90836 0.0
C316 C 0.57927 0.70118 0.00798 0.0
C317 C 0.61996 0.74211 0.88125 0.0
O318 O 0.57793 0.73899 0.8529 0.0
O319 O 0.58512 0.74318 0.96142 0.0
O320 O 0.61363 0.73851 0.94263 0.0
O321 O 0.60991 0.73631 0.83049 0.0
C322 C 0.57233 0.70142 0.79705 0.0
O323 O 0.57074 0.70756 0.9923 0.0
O324 O 0.59218 0.70646 0.97215 0.0
In325 In 0.28125 0.86852 0.90328 0.0
O326 O 0.2962 0.88891 0.9834 0.0
O327 O 0.29703 0.86705 0.99197 0.0
C328 C 0.26702 0.88654 0.87505 0.0
C329 C 0.3017 0.87182 0.79634 0.0
C330 C 0.25618 0.8374 0.90902 0.0
O331 O 0.28013 0.88909 0.8464 0.0
O332 O 0.26116 0.87506 0.92004 0.0
O333 O 0.26471 0.84349 0.85387 0.0
O334 O 0.26038 0.84694 0.96165 0.0
C335 C 0.30217 0.88132 0.01464 0.0
O336 O 0.2909 0.87582 0.79067 0.0
O337 O 0.30177 0.86543 0.85525 0.0
In338 In 0.1396 0.41438 0.9245 0.0
O339 O 0.11947 0.40991 0.00291 0.0
O340 O 0.1413 0.43281 0.00823 0.0
C341 C 0.12497 0.38201 0.89906 0.0
C342 C 0.1328 0.42969 0.8199 0.0
C343 C 0.1703 0.42002 0.94456 0.0
O344 O 0.12622 0.38785 0.96074 0.0
O345 O 0.13119 0.39251 0.85008 0.0
O346 O 0.16522 0.42176 0.88486 0.0
O347 O 0.16007 0.41593 0.99445 0.0
C348 C 0.12708 0.42374 0.03193 0.0
O349 O 0.14636 0.43641 0.8518 0.0
O350 O 0.12306 0.41529 0.83964 0.0
In351 In 0.3954 0.92439 0.40539 0.0
O352 O 0.38021 0.90676 0.4945 0.0
O353 O 0.37407 0.92439 0.45974 0.0
C354 C 0.41904 0.91639 0.40653 0.0
C355 C 0.37575 0.91172 0.29067 0.0
C356 C 0.41382 0.9567 0.43158 0.0
O357 O 0.40922 0.91321 0.4576 0.0
O358 O 0.41671 0.92331 0.35396 0.0
O359 O 0.41036 0.95095 0.36923 0.0
O360 O 0.40805 0.94617 0.48049 0.0
C361 C 0.37078 0.91252 0.50029 0.0
O362 O 0.38156 0.92635 0.31 0.0
O363 O 0.38056 0.9037 0.32684 0.0
In364 In 0.08309 0.47331 0.42461 0.0
O365 O 0.10093 0.47583 0.51375 0.0
O366 O 0.07981 0.45274 0.49659 0.0
C367 C 0.08988 0.50454 0.41136 0.0
C368 C 0.09714 0.46549 0.31807 0.0
C369 C 0.05044 0.45917 0.43824 0.0
O370 O 0.09171 0.49889 0.46943 0.0
O371 O 0.08503 0.49458 0.36019 0.0
O372 O 0.05725 0.45968 0.37961 0.0
O373 O 0.06011 0.46593 0.48966 0.0
C374 C 0.09275 0.46099 0.53157 0.0
O375 O 0.0822 0.45703 0.33322 0.0
O376 O 0.10494 0.47819 0.35536 0.0
In377 In 0.53152 0.60843 0.40256 0.0
O378 O 0.5286 0.62351 0.49096 0.0
O379 O 0.55248 0.62993 0.45596 0.0
C380 C 0.50108 0.58304 0.38505 0.0
C381 C 0.53809 0.62806 0.28838 0.0
C382 C 0.54573 0.59173 0.45082 0.0
O383 O 0.50493 0.59274 0.4372 0.0
O384 O 0.51245 0.58647 0.34113 0.0
O385 O 0.54671 0.59592 0.38611 0.0
O386 O 0.53754 0.59582 0.48987 0.0
C387 C 0.54382 0.63301 0.49698 0.0
O388 O 0.54645 0.62141 0.30333 0.0
O389 O 0.52605 0.62413 0.32888 0.0
In390 In 0.08376 0.61299 0.44881 0.0
O391 O 0.07925 0.62949 0.37445 0.0
O392 O 0.10194 0.63033 0.36559 0.0
C393 C 0.05088 0.59557 0.45634 0.0
C394 C 0.09646 0.63203 0.56479 0.0
C395 C 0.0921 0.58938 0.44812 0.0
O396 O 0.05965 0.60592 0.50252 0.0
O397 O 0.05866 0.59418 0.40467 0.0
O398 O 0.09291 0.59742 0.50293 0.0
O399 O 0.08754 0.59355 0.39285 0.0
C400 C 0.09297 0.6358 0.34437 0.0
O401 O 0.10475 0.63415 0.50897 0.0
O402 O 0.08207 0.6202 0.56214 0.0
In403 In 0.39012 0.46972 0.42301 0.0
O404 O 0.37097 0.45013 0.34949 0.0
O405 O 0.3783 0.47479 0.32756 0.0
C406 C 0.4028 0.44982 0.44019 0.0
C407 C 0.37072 0.46711 0.53311 0.0
C408 C 0.4161 0.5004 0.42397 0.0
O409 O 0.40859 0.46146 0.39611 0.0
O410 O 0.39042 0.44797 0.47328 0.0
O411 O 0.40669 0.4943 0.47662 0.0
O412 O 0.41239 0.49107 0.37073 0.0
C413 C 0.36912 0.46004 0.31129 0.0
O414 O 0.38195 0.46369 0.53804 0.0
O415 O 0.3697 0.47259 0.47317 0.0
In416 In 0.53351 0.92252 0.42944 0.0
O417 O 0.55324 0.92769 0.34693 0.0
O418 O 0.53246 0.90396 0.34855 0.0
C419 C 0.5473 0.95386 0.47259 0.0
C420 C 0.53957 0.90694 0.53519 0.0
C421 C 0.50358 0.91758 0.39662 0.0
O422 O 0.55124 0.94977 0.41511 0.0
O423 O 0.53632 0.94216 0.50786 0.0
O424 O 0.50661 0.91264 0.4539 0.0
O425 O 0.51556 0.92464 0.35476 0.0
C426 C 0.54621 0.91346 0.32149 0.0
O427 O 0.52643 0.90016 0.50032 0.0
O428 O 0.54932 0.92147 0.51741 0.0
In429 In 0.27673 0.40985 0.91739 0.0
O430 O 0.28622 0.404 0.01869 0.0
O431 O 0.29322 0.42875 -0.00077 0.0
C432 C 0.25977 0.37854 0.87159 0.0
C433 C 0.30291 0.42471 0.83172 0.0
C434 C 0.25332 0.41833 0.91759 0.0
O435 O 0.26025 0.38236 0.93638 0.0
O436 O 0.26775 0.39045 0.83045 0.0
O437 O 0.26243 0.42053 0.86482 0.0
O438 O 0.25624 0.41218 0.97131 0.0
C439 C 0.29462 0.41867 0.03833 0.0
O440 O 0.29275 0.42959 0.83721 0.0
O441 O 0.29968 0.41229 0.86845 0.0
In442 In 0.58928 0.86334 0.92959 0.0
O443 O 0.57135 0.86085 0.84128 0.0
O444 O 0.59015 0.88455 0.87186 0.0
C445 C 0.5831 0.83251 0.94799 0.0
C446 C 0.5767 0.87079 0.04279 0.0
C447 C 0.62049 0.87679 0.88611 0.0
O448 O 0.57787 0.83669 0.89469 0.0
O449 O 0.59105 0.84377 0.99234 0.0
O450 O 0.61682 0.87772 0.95014 0.0
O451 O 0.60849 0.86893 0.84521 0.0
C452 C 0.57805 0.87612 0.83226 0.0
O453 O 0.59162 0.879 0.0264 0.0
O454 O 0.56836 0.85847 0.00399 0.0
In455 In 0.14255 0.72759 0.94361 0.0
O456 O 0.12544 0.71268 0.03455 0.0
O457 O 0.14831 0.71373 0.02751 0.0
C458 C 0.12595 0.74216 0.8956 0.0
C459 C 0.13624 0.70424 0.84671 0.0
C460 C 0.17253 0.75397 0.95981 0.0
O461 O 0.12814 0.74097 0.9612 0.0
O462 O 0.13194 0.73592 0.85511 0.0
O463 O 0.16878 0.74433 0.90769 0.0
O464 O 0.16128 0.75007 0.00486 0.0
C465 C 0.1348 0.70798 0.05927 0.0
O466 O 0.15033 0.71649 0.85422 0.0
O467 O 0.12553 0.70389 0.88792 0.0
H468 H 0.20364 0.99045 0.6112 0.0
H469 H 0.23421 0.9705 0.55316 0.0
H470 H 0.24842 0.99228 0.46588 0.0
H471 H 0.25243 0.01724 0.40678 0.0
H472 H 0.22123 0.03663 0.46139 0.0
H473 H 0.20714 0.01498 0.54962 0.0
C474 C 0.21334 0.99081 0.57908 0.0
C475 C 0.21784 0.97885 0.58869 0.0
C476 C 0.22147 0.00338 0.52885 0.0
C477 C 0.23045 0.97951 0.54668 0.0
C478 C 0.23864 0.99201 0.49696 0.0
C479 C 0.24263 0.01679 0.43844 0.0
C480 C 0.23798 0.0286 0.4281 0.0
C481 C 0.23435 0.00409 0.48794 0.0
C482 C 0.22508 0.02771 0.46862 0.0
C483 C 0.21699 0.01531 0.51892 0.0
H484 H 0.01605 0.21623 0.58496 0.0
H485 H 0.02911 0.26617 0.54412 0.0
H486 H 0.00715 0.25711 0.45696 0.0
H487 H 0.98404 0.23506 0.39334 0.0
H488 H 0.97099 0.18508 0.43235 0.0
H489 H 0.99303 0.19408 0.51966 0.0
C490 C 0.01415 0.22512 0.55657 0.0
C491 C 0.02422 0.24185 0.57091 0.0
C492 C 1.00141 0.21982 0.50672 0.0
C493 C 0.02156 0.25323 0.53397 0.0
C494 C 0.00897 0.24806 0.48428 0.0
C495 C 0.98595 0.22613 0.42126 0.0
C496 C 0.97584 0.20943 0.40675 0.0
C497 C 0.99875 0.23139 0.4706 0.0
C498 C 0.97857 0.19801 0.44282 0.0
C499 C 0.9912 0.20315 0.49257 0.0
H500 H 0.76873 0.74684 0.41658 0.0
H501 H 0.81661 0.78961 0.41763 0.0
H502 H 0.8074 0.80279 0.50311 0.0
H503 H 0.78555 0.80233 0.57627 0.0
H504 H 0.73766 0.75954 0.57422 0.0
H505 H 0.74701 0.74629 0.49014 0.0
C506 C 0.77719 0.75899 0.43597 0.0
C507 C 0.79335 0.76719 0.41097 0.0
C508 C 0.77175 0.76657 0.48447 0.0
C509 C 0.80412 0.78299 0.43623 0.0
C510 C 0.79884 0.79056 0.48491 0.0
C511 C 0.77715 0.79015 0.5571 0.0
C512 C 0.76091 0.78198 0.58125 0.0
C513 C 0.78265 0.78252 0.509 0.0
C514 C 0.7502 0.76614 0.5563 0.0
C515 C 0.75555 0.75852 0.50836 0.0
H516 H 0.74488 0.97562 0.56936 0.0
H517 H 0.79111 0.97785 0.59883 0.0
H518 H 0.80391 1.00043 0.51412 0.0
H519 H 0.80209 0.01994 0.43352 0.0
H520 H 0.75592 0.01793 0.40552 0.0
H521 H 0.74302 0.99498 0.48821 0.0
C522 C 0.75772 0.98095 0.55671 0.0
C523 C 0.76702 0.97503 0.59007 0.0
C524 C 0.76506 0.99409 0.50879 0.0
C525 C 0.78368 0.98216 0.57369 0.0
C526 C 0.79102 0.99511 0.52546 0.0
C527 C 0.78923 0.01452 0.44577 0.0
C528 C 0.78 0.02067 0.41367 0.0
C529 C 0.78186 1.00127 0.49317 0.0
C530 C 0.76331 0.01346 0.42972 0.0
C531 C 0.75591 1.0003 0.47684 0.0
H532 H 0.02088 0.80341 0.59956 0.0
H533 H 0.03467 0.76704 0.55984 0.0
H534 H 0.01261 0.75368 0.47315 0.0
H535 H 0.9893 0.75224 0.40886 0.0
H536 H 0.97597 0.789 0.4461 0.0
H537 H 0.99782 0.80219 0.53398 0.0
C538 C 0.01911 0.79261 0.57164 0.0
C539 C 0.02942 0.78625 0.58606 0.0
C540 C 0.00638 0.78497 0.52188 0.0
C541 C 0.02694 0.77223 0.54955 0.0
C542 C 0.01429 0.76454 0.50016 0.0
C543 C 0.99111 0.76306 0.43667 0.0
C544 C 0.98097 0.76957 0.42141 0.0
C545 C 0.00388 0.77075 0.48616 0.0
C546 C 0.98358 0.78372 0.45712 0.0
C547 C 0.9961 0.7913 0.50721 0.0
H548 H 0.21762 0.19937 0.41352 0.0
H549 H 0.26625 0.24038 0.4381 0.0
H550 H 0.25629 0.2527 0.52415 0.0
H551 H 0.23372 0.25205 0.59134 0.0
H552 H 0.18518 0.21082 0.56931 0.0
H553 H 0.1951 0.19845 0.48292 0.0
C554 C 0.22605 0.21095 0.43812 0.0
C555 C 0.24266 0.21894 0.41947 0.0
C556 C 0.22022 0.21801 0.48748 0.0
C557 C 0.25342 0.23395 0.45165 0.0
C558 C 0.24772 0.24105 0.50067 0.0
C559 C 0.2253 0.24041 0.56724 0.0
C560 C 0.20873 0.23242 0.58623 0.0
C561 C 0.23114 0.23325 0.51858 0.0
C562 C 0.19799 0.21724 0.55532 0.0
C563 C 0.20366 0.21014 0.50609 0.0
H564 H 0.9233 0.35638 0.7395 0.0
H565 H 0.87967 0.35986 0.7283 0.0
H566 H 0.86624 0.33753 0.81412 0.0
H567 H 0.86683 0.31673 0.89123 0.0
H568 H 0.91045 0.31316 0.90012 0.0
H569 H 0.92388 0.3357 0.81591 0.0
C570 C 0.91089 0.35234 0.75623 0.0
C571 C 0.90252 0.35981 0.72785 0.0
C572 C 0.90319 0.33937 0.80471 0.0
C573 C 0.8864 0.35434 0.74957 0.0
C574 C 0.8787 0.34154 0.79845 0.0
C575 C 0.87924 0.32085 0.87444 0.0
C576 C 0.8876 0.31324 0.90175 0.0
C577 C 0.88694 0.33388 0.82603 0.0
C578 C 0.90372 0.31876 0.87976 0.0
C579 C 0.91144 0.33169 0.83175 0.0
H580 H 0.65407 0.53461 0.75196 0.0
H581 H 0.63608 0.56695 0.80823 0.0
H582 H 0.65799 0.58058 0.89544 0.0
H583 H 0.68249 0.58354 0.95489 0.0
H584 H 0.70024 0.55097 0.8997 0.0
H585 H 0.67834 0.53734 0.81244 0.0
C586 C 0.65487 0.54455 0.78371 0.0
C587 C 0.64342 0.54971 0.77372 0.0
C588 C 0.66758 0.55242 0.83342 0.0
C589 C 0.64469 0.56269 0.81502 0.0
C590 C 0.65727 0.57054 0.8647 0.0
C591 C 0.68163 0.57354 0.92334 0.0
C592 C 0.69305 0.56835 0.9334 0.0
C593 C 0.66885 0.5656 0.87399 0.0
C594 C 0.69166 0.55525 0.89276 0.0
C595 C 0.6791 0.54741 0.84302 0.0
H596 H 0.47166 0.12128 0.7544 0.0
H597 H 0.43154 0.07197 0.77328 0.0
H598 H 0.41809 0.08096 0.85802 0.0
H599 H 0.41769 0.10279 0.92722 0.0
H600 H 0.45796 0.15204 0.91026 0.0
H601 H 0.47126 0.14316 0.82392 0.0
C602 C 0.46002 0.1125 0.7774 0.0
C603 C 0.45266 0.09597 0.75773 0.0
C604 C 0.45229 0.11776 0.826 0.0
C605 C 0.43752 0.08475 0.7877 0.0
C606 C 0.42977 0.08989 0.836 0.0
C607 C 0.42931 0.1116 0.90414 0.0
C608 C 0.43677 0.12806 0.92486 0.0
C609 C 0.43701 0.10637 0.85538 0.0
C610 C 0.45192 0.1393 0.89503 0.0
C611 C 0.45957 0.13423 0.84584 0.0
H612 H 0.45419 0.34139 0.64284 0.0
H613 H 0.47093 0.37957 0.80022 0.0
H614 H 0.46143 0.35918 0.89606 0.0
H615 H 0.44732 0.33038 0.93433 0.0
H616 H 0.42718 0.29228 0.7763 0.0
H617 H 0.43907 0.31267 0.68084 0.0
C618 C 0.45588 0.3452 0.69825 0.0
C619 C 0.46342 0.36188 0.715 0.0
C620 C 0.44974 0.33341 0.75249 0.0
C621 C 0.46522 0.36676 0.78656 0.0
C622 C 0.45979 0.35512 0.8411 0.0
C623 C 0.44574 0.32661 0.87888 0.0
C624 C 0.43668 0.30995 0.86177 0.0
C625 C 0.45192 0.33842 0.82464 0.0
C626 C 0.43424 0.30509 0.79016 0.0
C627 C 0.441 0.31672 0.73585 0.0
H628 H 0.68641 0.102 0.93 0.0
H629 H 0.6951 0.15117 0.91333 0.0
H630 H 0.67319 0.14224 0.82555 0.0
H631 H 0.65141 0.1204 0.75432 0.0
H632 H 0.64287 0.07128 0.7709 0.0
H633 H 0.66479 0.08023 0.85848 0.0
C634 C 0.68358 0.11079 0.90687 0.0
C635 C 0.6924 0.12723 0.92799 0.0
C636 C 0.6709 0.10555 0.8569 0.0
C637 C 0.68852 0.13845 0.89779 0.0
C638 C 0.67596 0.13334 0.84779 0.0
C639 C 0.65429 0.11164 0.77743 0.0
C640 C 0.64548 0.09518 0.75641 0.0
C641 C 0.66701 0.1169 0.82724 0.0
C642 C 0.64943 0.084 0.78637 0.0
C643 C 0.66199 0.08912 0.83629 0.0
H644 H 0.92069 0.57261 0.72089 0.0
H645 H 0.88056 0.52327 0.73743 0.0
H646 H 0.86728 0.53199 0.82463 0.0
H647 H 0.86733 0.5536 0.8979 0.0
H648 H 0.90748 0.60294 0.88053 0.0
H649 H 0.92039 0.59429 0.79145 0.0
C650 C 0.90905 0.56376 0.74368 0.0
C651 C 0.90167 0.5473 0.72305 0.0
C652 C 0.90144 0.56888 0.79335 0.0
C653 C 0.88652 0.53601 0.7526 0.0
C654 C 0.87891 0.54099 0.80238 0.0
C655 C 0.87883 0.56248 0.87414 0.0
C656 C 0.88643 0.57889 0.89581 0.0
C657 C 0.88627 0.55739 0.82326 0.0
C658 C 0.90137 0.59023 0.86474 0.0
C659 C 0.90879 0.58529 0.81395 0.0
H660 H 0.56659 0.64329 0.21447 0.0
H661 H 0.52054 0.64167 0.23943 0.0
H662 H 0.52932 0.66438 0.15615 0.0
H663 H 0.55031 0.68513 0.07812 0.0
H664 H 0.59646 0.68692 0.05397 0.0
H665 H 0.58749 0.66387 0.13549 0.0
C666 C 0.55842 0.6478 0.20105 0.0
C667 C 0.54292 0.64076 0.23283 0.0
C668 C 0.56364 0.66104 0.15393 0.0
C669 C 0.53253 0.64685 0.21551 0.0
C670 C 0.53756 0.65988 0.16812 0.0
C671 C 0.55843 0.68053 0.09104 0.0
C672 C 0.57405 0.68779 0.06033 0.0
C673 C 0.55315 0.66718 0.13756 0.0
C674 C 0.58439 0.6816 0.07713 0.0
C675 C 0.57925 0.66837 0.12354 0.0
H676 H 0.35903 0.9247 0.22811 0.0
H677 H 0.36339 0.88149 0.2316 0.0
H678 H 0.34063 0.86806 0.14811 0.0
H679 H 0.31925 0.86848 0.07547 0.0
H680 H 0.31471 0.91161 0.07319 0.0
H681 H 0.33764 0.92511 0.15571 0.0
C682 C 0.3551 0.9124 0.21002 0.0
C683 C 0.36295 0.90414 0.23558 0.0
C684 C 0.34184 0.90467 0.16303 0.0
C685 C 0.3576 0.88814 0.21239 0.0
C686 C 0.34454 0.88043 0.16494 0.0
C687 C 0.32321 0.8808 0.09345 0.0
C688 C 0.31525 0.88901 0.06852 0.0
C689 C 0.33649 0.88853 0.14037 0.0
C690 C 0.32059 0.905 0.09186 0.0
C691 C 0.33375 0.91275 0.13877 0.0
H692 H 0.08394 0.43648 0.24954 0.0
H693 H 0.12814 0.48307 0.26599 0.0
H694 H 0.14148 0.47422 0.17955 0.0
H695 H 0.14056 0.45311 0.09959 0.0
H696 H 0.09639 0.4064 0.08573 0.0
H697 H 0.08312 0.41539 0.17125 0.0
C698 C 0.09647 0.44473 0.23392 0.0
C699 C 0.10502 0.46043 0.26378 0.0
C700 C 0.1041 0.43949 0.18504 0.0
C701 C 0.12128 0.47093 0.24356 0.0
C702 C 0.12893 0.46586 0.19428 0.0
C703 C 0.12806 0.44489 0.11559 0.0
C704 C 0.11949 0.42911 0.08642 0.0
C705 C 0.12047 0.45015 0.16485 0.0
C706 C 0.10328 0.4186 0.10751 0.0
C707 C 0.09566 0.42374 0.15627 0.0
H708 H 0.12304 0.65359 0.28475 0.0
H709 H 0.07493 0.64789 0.28508 0.0
H710 H 0.08378 0.67018 0.19938 0.0
H711 H 0.10511 0.69111 0.12311 0.0
H712 H 0.15322 0.69678 0.12255 0.0
H713 H 0.14451 0.67484 0.21 0.0
C714 C 0.11449 0.6572 0.26588 0.0
C715 C 0.09833 0.64904 0.291 0.0
C716 C 0.11969 0.67011 0.2169 0.0
C717 C 0.08742 0.65393 0.26642 0.0
C718 C 0.09248 0.66671 0.21752 0.0
C719 C 0.11373 0.68764 0.14261 0.0
C720 C 0.1298 0.6956 0.11646 0.0
C721 C 0.10859 0.67489 0.19239 0.0
C722 C 0.14078 0.69088 0.14193 0.0
C723 C 0.1358 0.67829 0.19176 0.0
H724 H 0.34507 0.42914 0.28127 0.0
H725 H 0.3643 0.4793 0.21821 0.0
H726 H 0.34239 0.47101 0.13114 0.0
H727 H 0.31789 0.44953 0.07227 0.0
H728 H 0.2987 0.39932 0.1342 0.0
H729 H 0.32031 0.40762 0.22308 0.0
C730 C 0.34451 0.43823 0.24814 0.0
C731 C 0.35635 0.4548 0.25591 0.0
C732 C 0.33178 0.43339 0.19857 0.0
C733 C 0.35538 0.46646 0.21307 0.0
C734 C 0.34282 0.46174 0.16345 0.0
C735 C 0.31832 0.44042 0.10577 0.0
C736 C 0.30665 0.42384 0.09691 0.0
C737 C 0.33093 0.44525 0.1559 0.0
C738 C 0.30749 0.41217 0.14021 0.0
C739 C 0.3199 0.4169 0.19078 0.0
H740 H 0.53369 0.88339 0.26198 0.0
H741 H 0.57636 0.93138 0.26215 0.0
H742 H 0.58993 0.92217 0.17903 0.0
H743 H 0.58965 0.90049 0.10583 0.0
H744 H 0.5467 0.85273 0.1029 0.0
H745 H 0.53334 0.86177 0.18819 0.0
C746 C 0.54593 0.89185 0.24354 0.0
C747 C 0.55399 0.90805 0.26804 0.0
C748 C 0.55367 0.88646 0.19579 0.0
C749 C 0.56986 0.91886 0.24385 0.0
C750 C 0.57766 0.91358 0.19655 0.0
C751 C 0.57743 0.89202 0.12448 0.0
C752 C 0.56921 0.87594 0.09855 0.0
C753 C 0.56971 0.8974 0.17236 0.0
C754 C 0.5533 0.86516 0.12233 0.0
C755 C 0.54563 0.87033 0.17088 0.0
H756 H 0.20092 0.98832 0.9181 0.0
H757 H 0.23893 0.97622 0.94323 0.0
H758 H 0.25164 0.99685 0.03575 0.0
H759 H 0.25229 0.0185 0.10819 0.0
H760 H 0.21493 0.03146 0.08348 0.0
H761 H 0.20163 0.01035 0.99197 0.0
C762 C 0.21194 0.99019 0.94413 0.0
C763 C 0.21897 0.98076 0.9239 0.0
C764 C 0.21932 0.00224 0.99707 0.0
C765 C 0.2333 0.98334 0.95772 0.0
C766 C 0.24058 0.99514 0.01066 0.0
C767 C 0.24122 0.01672 0.0829 0.0
C768 C 0.2346 0.02651 0.1025 0.0
C769 C 0.23375 0.00469 0.03047 0.0
C770 C 0.22027 0.02407 0.06915 0.0
C771 C 0.21266 0.012 0.01694 0.0
H772 H 0.98042 0.23343 0.07146 0.0
H773 H 0.97734 0.18642 0.07694 0.0
H774 H 0.99876 0.19551 0.98636 0.0
H775 H 0.01846 0.21697 0.90595 0.0
H776 H 0.02116 0.26384 0.90143 0.0
H777 H 0.9998 0.25464 0.9915 0.0
C778 C 0.98441 0.22515 0.0528 0.0
C779 C 0.97732 0.20928 0.08077 0.0
C780 C 0.99669 0.23045 0.00102 0.0
C781 C 0.98262 0.1987 0.05609 0.0
C782 C 0.99487 0.20389 0.00441 0.0
C783 C 0.01437 0.22515 0.92481 0.0
C784 C 0.02139 0.24106 0.89715 0.0
C785 C 1.00201 0.21976 0.97658 0.0
C786 C 0.01596 0.25153 0.92188 0.0
C787 C 0.00374 0.24629 0.97337 0.0
H788 H 0.78739 0.79952 0.8851 0.0
H789 H 0.73742 0.76943 0.95254 0.0
H790 H 0.74606 0.75808 0.04848 0.0
H791 H 0.76759 0.75609 0.11109 0.0
H792 H 0.8176 0.78567 0.04364 0.0
H793 H 0.80916 0.79784 0.94973 0.0
C794 C 0.77843 0.79054 0.92109 0.0
C795 C 0.7618 0.78528 0.91172 0.0
C796 C 0.78346 0.78393 0.97584 0.0
C797 C 0.75029 0.77361 0.9585 0.0
C798 C 0.75521 0.76711 0.01337 0.0
C799 C 0.77666 0.76523 0.07595 0.0
C800 C 0.79317 0.76996 0.08409 0.0
C801 C 0.77173 0.77208 0.02214 0.0
C802 C 0.80479 0.78183 0.03833 0.0
C803 C 0.79998 0.78878 0.98465 0.0
H804 H 0.78462 0.9785 0.94286 0.0
H805 H 0.74334 0.98355 0.88306 0.0
H806 H 0.75167 0.00587 0.96696 0.0
H807 H 0.77022 0.0237 0.0584 0.0
H808 H 0.81164 0.01926 0.12061 0.0
H809 H 0.80382 0.99711 0.03441 0.0
C810 C 0.77748 0.9845 0.9484 0.0
C811 C 0.76336 0.97932 0.90691 0.0
C812 C 0.78238 0.99749 0.99692 0.0
C813 C 0.75426 0.98726 0.91433 0.0
C814 C 0.759 1.00006 0.9623 0.0
C815 C 0.7776 0.01796 0.05292 0.0
C816 C 0.79146 0.02309 0.09578 0.0
C817 C 0.77299 0.00524 0.0039 0.0
C818 C 0.80091 0.01553 0.08802 0.0
C819 C 0.79641 0.00284 0.03894 0.0
H820 H 0.02285 0.80704 0.91422 0.0
H821 H 0.03019 0.76563 0.92704 0.0
H822 H 0.00934 0.75341 0.01868 0.0
H823 H 0.9889 0.75415 0.09416 0.0
H824 H 0.98039 0.79476 0.082 0.0
H825 H 1.00175 0.80761 0.99097 0.0
C826 C 0.01989 0.79539 0.93743 0.0
C827 C 0.02807 0.78726 0.91392 0.0
C828 C 0.00766 0.78826 0.98992 0.0
C829 C 0.02406 0.77212 0.94401 0.0
C830 C 0.01213 0.7651 0.99649 0.0
C831 C 0.9917 0.76583 0.07173 0.0
C832 C 0.98311 0.77351 0.0948 0.0
C833 C 0.00383 0.77302 0.01958 0.0
C834 C 0.98684 0.7886 0.06496 0.0
C835 C 0.99906 0.79595 0.01306 0.0
H836 H 0.21587 0.19889 0.09338 0.0
H837 H 0.26352 0.2419 0.07937 0.0
H838 H 0.25374 0.25318 0.98812 0.0
H839 H 0.23192 0.25098 0.91238 0.0
H840 H 0.18394 0.20853 0.92539 0.0
H841 H 0.19355 0.19688 0.01726 0.0
C842 C 0.22408 0.2107 0.07016 0.0
C843 C 0.2404 0.21953 0.09299 0.0
C844 C 0.21833 0.21723 0.01779 0.0
C845 C 0.2509 0.23487 0.06281 0.0
C846 C 0.24533 0.24134 0.01058 0.0
C847 C 0.22353 0.23917 0.93526 0.0
C848 C 0.20726 0.2306 0.9121 0.0
C849 C 0.2291 0.23264 0.98776 0.0
C850 C 0.19653 0.21536 0.94248 0.0
C851 C 0.20203 0.2087 0.99485 0.0
H852 H 0.88496 0.35469 0.38801 0.0
H853 H 0.93105 0.35626 0.41105 0.0
H854 H 0.9226 0.33433 0.32436 0.0
H855 H 0.90231 0.31482 0.2418 0.0
H856 H 0.8561 0.31287 0.21731 0.0
H857 H 0.86435 0.33476 0.30511 0.0
C858 C 0.89314 0.35024 0.37383 0.0
C859 C 0.90862 0.35711 0.40576 0.0
C860 C 0.88817 0.33753 0.32399 0.0
C861 C 0.91908 0.35119 0.3872 0.0
C862 C 0.91426 0.33863 0.33767 0.0
C863 C 0.89401 0.31913 0.25582 0.0
C864 C 0.87863 0.31224 0.22321 0.0
C865 C 0.89885 0.33171 0.30583 0.0
C866 C 0.86801 0.31797 0.24185 0.0
C867 C 0.87273 0.33051 0.29188 0.0
H868 H 0.68919 0.5859 0.27942 0.0
H869 H 0.69001 0.54101 0.25589 0.0
H870 H 0.66865 0.52808 0.34673 0.0
H871 H 0.64952 0.52963 0.43212 0.0
H872 H 0.64958 0.57505 0.4547 0.0
H873 H 0.67083 0.58765 0.36486 0.0
C874 C 0.68472 0.57328 0.29412 0.0
C875 C 0.6911 0.5644 0.26095 0.0
C876 C 0.67258 0.56602 0.34617 0.0
C877 C 0.68526 0.54809 0.28082 0.0
C878 C 0.67305 0.5407 0.33261 0.0
C879 C 0.65421 0.54228 0.41724 0.0
C880 C 0.64796 0.55137 0.44988 0.0
C881 C 0.66657 0.54955 0.36552 0.0
C882 C 0.65418 0.56777 0.43043 0.0
C883 C 0.66634 0.57501 0.379 0.0
H884 H 0.42304 0.10255 0.23766 0.0
H885 H 0.45919 0.15282 0.27638 0.0
H886 H 0.47159 0.14434 0.36918 0.0
H887 H 0.47174 0.12252 0.44079 0.0
H888 H 0.435 0.07241 0.40212 0.0
H889 H 0.42328 0.08097 0.30757 0.0
C890 C 0.43366 0.11167 0.26626 0.0
C891 C 0.44019 0.12827 0.25033 0.0
C892 C 0.44061 0.10673 0.31955 0.0
C893 C 0.45394 0.13995 0.28783 0.0
C894 C 0.46102 0.13511 0.34083 0.0
C895 C 0.46122 0.1135 0.4114 0.0
C896 C 0.45423 0.09687 0.42843 0.0
C897 C 0.45441 0.11852 0.35736 0.0
C898 C 0.44056 0.0853 0.39018 0.0
C899 C 0.43385 0.09017 0.33608 0.0
H900 H 0.42766 0.30234 0.27393 0.0
H901 H 0.44248 0.3355 0.09585 0.0
H902 H 0.45561 0.35883 0.17692 0.0
H903 H 0.46242 0.3698 0.29921 0.0
H904 H 0.4448 0.33666 0.47747 0.0
H905 H 0.43325 0.31332 0.3962 0.0
C906 C 0.43383 0.3147 0.2532 0.0
C907 C 0.43424 0.3173 0.17945 0.0
C908 C 0.44081 0.32802 0.30022 0.0
C909 C 0.44201 0.33329 0.15274 0.0
C910 C 0.44954 0.3466 0.19895 0.0
C911 C 0.45611 0.35744 0.31989 0.0
C912 C 0.45452 0.35484 0.39376 0.0
C913 C 0.44897 0.34412 0.27284 0.0
C914 C 0.44611 0.33886 0.42049 0.0
C915 C 0.43953 0.32554 0.37416 0.0
H916 H 0.67142 0.11668 0.19537 0.0
H917 H 0.71084 0.14343 0.34339 0.0
H918 H 0.6913 0.13581 0.44133 0.0
H919 H 0.66319 0.12012 0.48575 0.0
H920 H 0.62383 0.09306 0.33775 0.0
H921 H 0.64318 0.10243 0.23866 0.0
C922 C 0.67573 0.12091 0.24902 0.0
C923 C 0.69255 0.13048 0.2623 0.0
C924 C 0.66444 0.11646 0.30495 0.0
C925 C 0.69795 0.13599 0.33191 0.0
C926 C 0.68679 0.13164 0.38789 0.0
C927 C 0.65882 0.11646 0.43169 0.0
C928 C 0.64211 0.10586 0.41911 0.0
C929 C 0.67003 0.12169 0.37516 0.0
C930 C 0.63663 0.10121 0.34882 0.0
C931 C 0.64769 0.1065 0.29219 0.0
H932 H 0.88319 0.53296 0.40419 0.0
H933 H 0.93394 0.56698 0.36173 0.0
H934 H 0.92638 0.57968 0.26775 0.0
H935 H 0.90557 0.58213 0.20194 0.0
H936 H 0.85468 0.54876 0.2438 0.0
H937 H 0.86206 0.53477 0.33361 0.0
C938 C 0.89255 0.54302 0.37372 0.0
C939 C 0.90908 0.54906 0.39001 0.0
C940 C 0.88811 0.55047 0.32013 0.0
C941 C 0.92112 0.56216 0.35044 0.0
C942 C 0.91683 0.56945 0.29673 0.0
C943 C 0.89607 0.57176 0.23049 0.0
C944 C 0.87962 0.56655 0.21666 0.0
C945 C 0.90039 0.56388 0.28192 0.0
C946 C 0.86745 0.55303 0.25375 0.0
C947 C 0.87166 0.54504 0.30506 0.0
H948 H 0.52843 0.64321 0.5894 0.0
H949 H 0.57604 0.65347 0.51893 0.0
H950 H 0.58892 0.67581 0.60374 0.0
H951 H 0.58686 0.69204 0.69943 0.0
H952 H 0.5396 0.68226 0.77198 0.0
H953 H 0.52639 0.6602 0.68456 0.0
C954 C 0.54161 0.65037 0.59267 0.0
C955 C 0.55125 0.64665 0.54815 0.0
C956 C 0.54901 0.66329 0.64177 0.0
C957 C 0.56832 0.65605 0.55269 0.0
C958 C 0.57573 0.66885 0.60116 0.0
C959 C 0.57366 0.68514 0.69596 0.0
C960 C 0.56421 0.68873 0.74207 0.0
C961 C 0.56621 0.67251 0.64613 0.0
C962 C 0.54714 0.67971 0.73688 0.0
C963 C 0.53959 0.66708 0.68709 0.0
H964 H 0.30794 0.8919 0.68434 0.0
H965 H 0.32423 0.86186 0.78737 0.0
H966 H 0.34694 0.87143 0.70297 0.0
H967 H 0.36285 0.88942 0.60321 0.0
H968 H 0.34694 0.92038 0.50573 0.0
H969 H 0.32344 0.90943 0.585 0.0
C970 C 0.31634 0.88728 0.68783 0.0
C971 C 0.3144 0.87615 0.74167 0.0
C972 C 0.32954 0.89315 0.64063 0.0
C973 C 0.32547 0.87042 0.74611 0.0
C974 C 0.33848 0.87593 0.69811 0.0
C975 C 0.35421 0.89372 0.59937 0.0
C976 C 0.35665 0.90572 0.54894 0.0
C977 C 0.34076 0.88749 0.64577 0.0
C978 C 0.34538 0.91122 0.54443 0.0
C979 C 0.3319 0.90493 0.58956 0.0
H980 H 0.10403 0.41741 0.75129 0.0
H981 H 0.15121 0.46083 0.76836 0.0
H982 H 0.14291 0.47469 0.6818 0.0
H983 H 0.12205 0.47432 0.60088 0.0
H984 H 0.07506 0.4305 0.58553 0.0
H985 H 0.08346 0.41702 0.6722 0.0
C986 C 0.11254 0.4299 0.73599 0.0
C987 C 0.12822 0.43806 0.76599 0.0
C988 C 0.10768 0.43776 0.68675 0.0
C989 C 0.13907 0.45426 0.74577 0.0
C990 C 0.13432 0.4622 0.69646 0.0
C991 C 0.11366 0.46186 0.61694 0.0
C992 C 0.09796 0.45344 0.58688 0.0
C993 C 0.11862 0.45407 0.66667 0.0
C994 C 0.08722 0.43726 0.6078 0.0
C995 C 0.09201 0.42952 0.65731 0.0
H996 H 0.10852 0.67523 0.83704 0.0
H997 H 0.15498 0.70489 0.73435 0.0
H998 H 0.14716 0.68459 0.63918 0.0
H999 H 0.12634 0.65914 0.58183 0.0
H1000 H 0.08 0.62977 0.68652 0.0
H1001 H 0.08862 0.6492 0.78454 0.0
C1002 C 0.11698 0.67722 0.79404 0.0
C1003 C 0.13223 0.69156 0.79223 0.0
C1004 C 0.11241 0.66557 0.73984 0.0
C1005 C 0.14314 0.69392 0.73669 0.0
C1006 C 0.13867 0.68235 0.68226 0.0
C1007 C 0.11822 0.65694 0.62649 0.0
C1008 C 0.10253 0.64311 0.6267 0.0
C1009 C 0.12322 0.66823 0.68276 0.0
C1010 C 0.09213 0.64036 0.68494 0.0
C1011 C 0.09702 0.65147 0.741 0.0
H1012 H 0.30969 0.44756 0.72916 0.0
H1013 H 0.32874 0.41977 0.83157 0.0
H1014 H 0.35236 0.4319 0.75268 0.0
H1015 H 0.36666 0.44894 0.65013 0.0
H1016 H 0.34706 0.47554 0.54178 0.0
H1017 H 0.3247 0.46555 0.62812 0.0
C1018 C 0.31909 0.44428 0.73441 0.0
C1019 C 0.31745 0.43273 0.78572 0.0
C1020 C 0.33252 0.4511 0.68796 0.0
C1021 C 0.32967 0.42854 0.79204 0.0
C1022 C 0.3432 0.43549 0.7471 0.0
C1023 C 0.35764 0.45276 0.646 0.0
C1024 C 0.35849 0.46296 0.58983 0.0
C1025 C 0.34462 0.44659 0.69428 0.0
C1026 C 0.34664 0.46769 0.58473 0.0
C1027 C 0.33383 0.46193 0.63384 0.0
H1028 H 0.55038 0.86183 0.75071 0.0
H1029 H 0.5935 0.908 0.79575 0.0
H1030 H 0.58513 0.92151 0.70935 0.0
H1031 H 0.56597 0.92036 0.62025 0.0
H1032 H 0.52253 0.87468 0.57375 0.0
H1033 H 0.53054 0.86085 0.66181 0.0
C1034 C 0.55791 0.87483 0.74142 0.0
C1035 C 0.57255 0.88388 0.77942 0.0
C1036 C 0.55296 0.88263 0.69167 0.0
C1037 C 0.58217 0.90074 0.76725 0.0
C1038 C 0.5774 0.90851 0.71783 0.0
C1039 C 0.5582 0.90738 0.62947 0.0
C1040 C 0.54372 0.89854 0.59056 0.0
C1041 C 0.56287 0.89958 0.67973 0.0
C1042 C 0.53375 0.88175 0.60326 0.0
C1043 C 0.53835 0.87384 0.6534 0.0
H1044 H 0.3581 0.11287 0.05863 0.0
H1045 H 0.3753 0.12023 0.27587 0.0
H1046 H 0.34727 0.10574 0.31942 0.0
H1047 H 0.31774 0.0909 0.29606 0.0
H1048 H 0.30054 0.08417 0.07894 0.0
H1049 H 0.32857 0.09841 0.03533 0.0
C1050 C 0.3557 0.11129 0.11546 0.0
C1051 C 0.36878 0.11761 0.16385 0.0
C1052 C 0.33951 0.10303 0.14029 0.0
C1053 C 0.36546 0.11552 0.2374 0.0
C1054 C 0.34942 0.1072 0.26243 0.0
C1055 C 0.32015 0.09254 0.23923 0.0
C1056 C 0.30707 0.08646 0.1909 0.0
C1057 C 0.33634 0.10089 0.21441 0.0
C1058 C 0.31038 0.08875 0.11738 0.0
C1059 C 0.32642 0.09689 0.09231 0.0
H1060 H 0.88741 0.2504 0.21589 0.0
H1061 H 0.89296 0.24689 0.98926 0.0
H1062 H 0.90665 0.23125 0.01072 0.0
H1063 H 0.9174 0.21894 0.09349 0.0
H1064 H 0.91243 0.22274 0.32028 0.0
H1065 H 0.89813 0.23787 0.29916 0.0
C1066 C 0.89158 0.24616 0.17125 0.0
C1067 C 0.88917 0.2498 0.10108 0.0
C1068 C 0.89955 0.23725 0.18399 0.0
C1069 C 0.89468 0.24427 0.04377 0.0
C1070 C 0.9025 0.23532 0.05598 0.0
C1071 C 0.91315 0.22303 0.13835 0.0
C1072 C 0.91596 0.21972 0.20835 0.0
C1073 C 0.90506 0.2318 0.1258 0.0
C1074 C 0.91042 0.22514 0.26588 0.0
C1075 C 0.90224 0.2338 0.25382 0.0
H1076 H 0.7551 0.64639 0.05472 0.0
H1077 H 0.75187 0.63114 0.2738 0.0
H1078 H 0.7664 0.65953 0.31249 0.0
H1079 H 0.77991 0.6888 0.28453 0.0
H1080 H 0.78354 0.70415 0.06546 0.0
H1081 H 0.76904 0.67573 0.02655 0.0
C1082 C 0.7576 0.6493 0.11088 0.0
C1083 C 0.75239 0.63665 0.16122 0.0
C1084 C 0.76604 0.6657 0.13289 0.0
C1085 C 0.75575 0.64063 0.23384 0.0
C1086 C 0.76405 0.65688 0.25612 0.0
C1087 C 0.77753 0.68592 0.2283 0.0
C1088 C 0.78279 0.69858 0.17806 0.0
C1089 C 0.76924 0.66953 0.20618 0.0
C1090 C 0.77965 0.69463 0.10531 0.0
C1091 C 0.77133 0.67838 0.08295 0.0
H1092 H 0.08527 0.30513 0.8911 0.0
H1093 H 0.09177 0.31425 0.66474 0.0
H1094 H 0.1076 0.34361 0.68686 0.0
H1095 H 0.1189 0.36673 0.77059 0.0
H1096 H 0.11187 0.35747 0.99679 0.0
H1097 H 0.09696 0.32813 0.97464 0.0
C1098 C 0.09022 0.31354 0.8466 0.0
C1099 C 0.08735 0.30753 0.77639 0.0
C1100 C 0.09917 0.33038 0.85969 0.0
C1101 C 0.09381 0.31857 0.7193 0.0
C1102 C 0.10284 0.33536 0.7319 0.0
C1103 C 0.11417 0.35828 0.81501 0.0
C1104 C 0.11647 0.36426 0.88521 0.0
C1105 C 0.1055 0.34141 0.80187 0.0
C1106 C 0.11024 0.35317 0.94224 0.0
C1107 C 0.10171 0.33639 0.92964 0.0
H1108 H 0.69679 0.78303 0.88286 0.0
H1109 H 0.68926 0.7766 0.65558 0.0
H1110 H 0.65972 0.76189 0.67374 0.0
H1111 H 0.63608 0.75012 0.7546 0.0
H1112 H 0.64378 0.75623 0.98194 0.0
H1113 H 0.67323 0.77183 0.96331 0.0
C1114 C 0.68869 0.7785 0.83722 0.0
C1115 C 0.6952 0.7809 0.76795 0.0
C1116 C 0.67176 0.76995 0.84812 0.0
C1117 C 0.68455 0.77492 0.70943 0.0
C1118 C 0.66766 0.76649 0.7198 0.0
C1119 C 0.64421 0.75493 0.80005 0.0
C1120 C 0.63775 0.752 0.86958 0.0
C1121 C 0.66114 0.76381 0.78895 0.0
C1122 C 0.64844 0.7583 0.9279 0.0
C1123 C 0.66528 0.76721 0.9173 0.0
H1124 H 0.24064 0.93025 0.74391 0.0
H1125 H 0.20228 0.90362 0.89664 0.0
H1126 H 0.21577 0.88869 0.93587 0.0
H1127 H 0.23863 0.88328 0.92689 0.0
H1128 H 0.2772 0.91053 0.77558 0.0
H1129 H 0.26355 0.92519 0.73617 0.0
C1130 C 0.2352 0.92112 0.78553 0.0
C1131 C 0.22045 0.91798 0.81707 0.0
C1132 C 0.24312 0.91276 0.80844 0.0
C1133 C 0.21362 0.90623 0.87142 0.0
C1134 C 0.22134 0.89771 0.89396 0.0
C1135 C 0.24406 0.89248 0.88553 0.0
C1136 C 0.25891 0.89581 0.85428 0.0
C1137 C 0.23613 0.90091 0.86301 0.0
C1138 C 0.2658 0.90774 0.80066 0.0
C1139 C 0.25798 0.91612 0.77788 0.0
H1140 H 0.68794 0.9106 0.7243 0.0
H1141 H 0.7059 0.91744 0.94015 0.0
H1142 H 0.678 0.90343 0.9857 0.0
H1143 H 0.64841 0.88961 0.96427 0.0
H1144 H 0.63052 0.88185 0.74808 0.0
H1145 H 0.6584 0.89578 0.70271 0.0
C1146 C 0.68572 0.90898 0.78127 0.0
C1147 C 0.69894 0.91509 0.82876 0.0
C1148 C 0.66965 0.90076 0.80709 0.0
C1149 C 0.69591 0.91282 0.90245 0.0
C1150 C 0.67997 0.90484 0.92859 0.0
C1151 C 0.65065 0.89095 0.90728 0.0
C1152 C 0.63745 0.88477 0.85966 0.0
C1153 C 0.66673 0.89882 0.88143 0.0
C1154 C 0.64049 0.88649 0.78589 0.0
C1155 C 0.65643 0.89448 0.75984 0.0
H1156 H 0.09011 0.77294 0.72786 0.0
H1157 H 0.09296 0.79438 0.93412 0.0
H1158 H 0.1066 0.78042 0.98295 0.0
H1159 H 0.11753 0.76185 0.96737 0.0
H1160 H 0.1153 0.74106 0.76013 0.0
H1161 H 0.10157 0.75493 0.71161 0.0
C1162 C 0.09378 0.7746 0.78341 0.0
C1163 C 0.09052 0.78467 0.82725 0.0
C1164 C 0.10166 0.76657 0.81113 0.0
C1165 C 0.09537 0.78673 0.89913 0.0
C1166 C 0.10312 0.7787 0.92721 0.0
C1167 C 0.11398 0.76033 0.91169 0.0
C1168 C 0.11736 0.7504 0.86752 0.0
C1169 C 0.10627 0.76853 0.8838 0.0
C1170 C 0.11283 0.74865 0.79529 0.0
C1171 C 0.10498 0.75658 0.76743 0.0
H1172 H 0.22708 0.31036 0.71507 0.0
H1173 H 0.20716 0.2939 0.92548 0.0
H1174 H 0.2214 0.32196 0.96882 0.0
H1175 H 0.23986 0.35121 0.94753 0.0
H1176 H 0.25951 0.36774 0.73681 0.0
H1177 H 0.24506 0.33969 0.69315 0.0
C1178 C 0.22583 0.31294 0.77033 0.0
C1179 C 0.2161 0.30007 0.81695 0.0
C1180 C 0.23404 0.32913 0.79495 0.0
C1181 C 0.21457 0.30359 0.88842 0.0
C1182 C 0.22273 0.31964 0.91333 0.0
C1183 C 0.24096 0.34866 0.89207 0.0
C1184 C 0.25077 0.36153 0.84558 0.0
C1185 C 0.23255 0.3325 0.86718 0.0
C1186 C 0.25203 0.35805 0.77375 0.0
C1187 C 0.24378 0.34201 0.7487 0.0
H1188 H 0.91963 0.69099 0.28394 0.0
H1189 H 0.92394 0.70915 0.06935 0.0
H1190 H 0.90959 0.68132 0.02349 0.0
H1191 H 0.89583 0.65178 0.044 0.0
H1192 H 0.89081 0.63344 0.25857 0.0
H1193 H 0.90536 0.66131 0.30469 0.0
C1194 C 0.91743 0.68883 0.22717 0.0
C1195 C 0.92288 0.70212 0.18015 0.0
C1196 C 0.90902 0.67275 0.20111 0.0
C1197 C 0.91986 0.69914 0.10673 0.0
C1198 C 0.91166 0.68322 0.0804 0.0
C1199 C 0.89792 0.65389 0.10085 0.0
C1200 C 0.89229 0.64057 0.14774 0.0
C1201 C 0.90619 0.66993 0.12704 0.0
C1202 C 0.89502 0.64349 0.22132 0.0
C1203 C 0.90336 0.65943 0.24775 0.0
H1204 H 0.36789 0.25283 0.19525 0.0
H1205 H 0.35646 0.25824 0.97783 0.0
H1206 H 0.32737 0.24341 0.00606 0.0
H1207 H 0.30521 0.22876 0.09223 0.0
H1208 H 0.3166 0.22404 0.31052 0.0
H1209 H 0.34571 0.23871 0.28221 0.0
C1210 C 0.35903 0.25078 0.15408 0.0
C1211 C 0.36431 0.25659 0.0845 0.0
C1212 C 0.34234 0.24233 0.1708 0.0
C1213 C 0.3527 0.25391 0.03181 0.0
C1214 C 0.33607 0.2454 0.04787 0.0
C1215 C 0.31406 0.23089 0.13354 0.0
C1216 C 0.30877 0.22525 0.20327 0.0
C1217 C 0.33076 0.23951 0.11709 0.0
C1218 C 0.32038 0.22824 0.25642 0.0
C1219 C 0.33702 0.23663 0.24027 0.0
H1220 H 0.74616 0.11216 0.24138 0.0
H1221 H 0.75431 0.11279 0.01476 0.0
H1222 H 0.76886 0.09784 0.03257 0.0
H1223 H 0.77937 0.08467 0.11253 0.0
H1224 H 0.77124 0.08403 0.33918 0.0
H1225 H 0.75662 0.09892 0.32138 0.0
C1226 C 0.75109 0.109 0.1959 0.0
C1227 C 0.74915 0.11357 0.12686 0.0
C1228 C 0.75948 0.10043 0.20655 0.0
C1229 C 0.75563 0.1094 0.06846 0.0
C1230 C 0.76397 0.10087 0.0786 0.0
C1231 C 0.77441 0.08781 0.15803 0.0
C1232 C 0.7764 0.08327 0.22707 0.0
C1233 C 0.76599 0.09634 0.14739 0.0
C1234 C 0.76988 0.08739 0.28548 0.0
C1235 C 0.76151 0.0959 0.27534 0.0
H1236 H 0.0333 0.45304 0.56155 0.0
H1237 H 0.02742 0.4464 0.33369 0.0
H1238 H 0.9978 0.43175 0.34755 0.0
H1239 H 0.97361 0.42023 0.42451 0.0
H1240 H 0.97941 0.42611 0.65265 0.0
H1241 H 0.00904 0.44169 0.6386 0.0
C1242 C 0.02553 0.44845 0.51492 0.0
C1243 C 0.03254 0.45081 0.44668 0.0
C1244 C 0.00851 0.43988 0.52336 0.0
C1245 C 0.02232 0.44473 0.38679 0.0
C1246 C 0.00539 0.43635 0.39467 0.0
C1247 C 0.98136 0.42499 0.47115 0.0
C1248 C 0.97434 0.42204 0.53952 0.0
C1249 C 0.99836 0.43376 0.4627 0.0
C1250 C 0.98453 0.42821 0.59945 0.0
C1251 C 1.00146 0.43711 0.59144 0.0
H1252 H 0.5788 0.55889 0.62419 0.0
H1253 H 0.58727 0.54737 0.41159 0.0
H1254 H 0.57349 0.56104 0.36114 0.0
H1255 H 0.55937 0.57671 0.37737 0.0
H1256 H 0.55014 0.58736 0.59035 0.0
H1257 H 0.56384 0.57363 0.64052 0.0
C1258 C 0.57758 0.55934 0.56685 0.0
C1259 C 0.58407 0.55218 0.52175 0.0
C1260 C 0.56953 0.56711 0.53818 0.0
C1261 C 0.58234 0.55277 0.44753 0.0
C1262 C 0.5745 0.56062 0.41857 0.0
C1263 C 0.56037 0.576 0.43471 0.0
C1264 C 0.55382 0.58309 0.48001 0.0
C1265 C 0.56811 0.56791 0.46336 0.0
C1266 C 0.55508 0.58198 0.55426 0.0
C1267 C 0.56293 0.57415 0.58308 0.0
H1268 H 0.45398 0.03354 0.4436 0.0
H1269 H 0.44731 0.02378 0.66951 0.0
H1270 H 0.43296 0.99444 0.646 0.0
H1271 H 0.42153 0.97159 0.56096 0.0
H1272 H 0.42785 0.98149 0.33506 0.0
H1273 H 0.44315 0.01077 0.3589 0.0
C1274 C 0.44948 0.025 0.48775 0.0
C1275 C 0.45169 0.03082 0.5582 0.0
C1276 C 0.44112 0.00818 0.47381 0.0
C1277 C 0.44576 0.0196 0.6148 0.0
C1278 C 0.43753 0.00283 0.60138 0.0
C1279 C 0.42632 0.98016 0.51697 0.0
C1280 C 0.42353 0.97439 0.44633 0.0
C1281 C 0.43502 0.99699 0.53107 0.0
C1282 C 0.4298 0.98563 0.3899 0.0
C1283 C 0.43855 0.00237 0.40348 0.0
H1284 H 0.57236 0.02288 0.61432 0.0
H1285 H 0.6088 0.03685 0.44975 0.0
H1286 H 0.59595 0.00866 0.40843 0.0
H1287 H 0.57414 0.98007 0.4178 0.0
H1288 H 0.53802 0.9659 0.58386 0.0
H1289 H 0.55092 0.9941 0.62568 0.0
C1290 C 0.57751 0.01973 0.56961 0.0
C1291 C 0.59149 0.03194 0.53513 0.0
C1292 C 0.57008 0.00346 0.54617 0.0
C1293 C 0.59805 0.02767 0.47733 0.0
C1294 C 0.59069 0.01156 0.45351 0.0
C1295 C 0.56908 0.98317 0.46305 0.0
C1296 C 0.55511 0.97094 0.49745 0.0
C1297 C 0.57666 0.99937 0.48725 0.0
C1298 C 0.54877 0.9751 0.55639 0.0
C1299 C 0.55614 0.99122 0.58036 0.0
H1300 H 0.97463 0.54845 0.44747 0.0
H1301 H 0.97864 0.5695 0.65582 0.0
H1302 H 0.00817 0.58606 0.64148 0.0
H1303 H 0.03274 0.59484 0.56927 0.0
H1304 H 0.02892 0.57376 0.36125 0.0
H1305 H 0.99936 0.55696 0.37579 0.0
C1306 C 0.98198 0.55661 0.48988 0.0
C1307 C 0.97446 0.55774 0.55266 0.0
C1308 C 0.99894 0.56614 0.48115 0.0
C1309 C 0.98414 0.56838 0.60707 0.0
C1310 C 1.00101 0.57788 0.59882 0.0
C1311 C 0.02544 0.5866 0.527 0.0
C1312 C 0.03299 0.58559 0.46412 0.0
C1313 C 0.00852 0.57693 0.53596 0.0
C1314 C 0.02339 0.57478 0.41006 0.0
C1315 C 0.0065 0.56517 0.41841 0.0
H1316 H 0.42996 0.452 0.37964 0.0
H1317 H 0.39293 0.42544 0.53795 0.0
H1318 H 0.40649 0.41029 0.57178 0.0
H1319 H 0.42935 0.40512 0.55905 0.0
H1320 H 0.46623 0.43143 0.3999 0.0
H1321 H 0.45231 0.44612 0.36399 0.0
C1322 C 0.4248 0.44281 0.42114 0.0
C1323 C 0.41047 0.43988 0.45622 0.0
C1324 C 0.4327 0.43415 0.44059 0.0
C1325 C 0.40394 0.42793 0.50998 0.0
C1326 C 0.41172 0.41929 0.52958 0.0
C1327 C 0.43432 0.41406 0.51652 0.0
C1328 C 0.44884 0.41724 0.4825 0.0
C1329 C 0.42619 0.4224 0.49575 0.0
C1330 C 0.45508 0.42878 0.42709 0.0
C1331 C 0.44712 0.43719 0.40646 0.0
H1332 H 0.24171 0.10069 0.18922 0.0
H1333 H 0.26625 0.10944 0.39186 0.0
H1334 H 0.26657 0.13529 0.40347 0.0
H1335 H 0.26121 0.15613 0.35302 0.0
H1336 H 0.23735 0.14771 0.14884 0.0
H1337 H 0.23533 0.12101 0.14113 0.0
C1338 C 0.247 0.10819 0.2362 0.0
C1339 C 0.25399 0.10317 0.28947 0.0
C1340 C 0.24731 0.12314 0.24216 0.0
C1341 C 0.26082 0.11304 0.34998 0.0
C1342 C 0.26102 0.12784 0.35664 0.0
C1343 C 0.25542 0.14838 0.30719 0.0
C1344 C 0.24947 0.15392 0.25153 0.0
C1345 C 0.2545 0.13312 0.30264 0.0
C1346 C 0.24205 0.14375 0.19238 0.0
C1347 C 0.24091 0.12848 0.18785 0.0
H1348 H 0.8547 0.09647 0.17292 0.0
H1349 H 0.84433 0.10096 0.39309 0.0
H1350 H 0.87031 0.12644 0.40327 0.0
H1351 H 0.8953 0.14823 0.34762 0.0
H1352 H 0.90548 0.14369 0.12717 0.0
H1353 H 0.88032 0.11744 0.11927 0.0
C1354 C 0.85818 0.10295 0.2233 0.0
C1355 C 0.84757 0.09687 0.28203 0.0
C1356 C 0.87309 0.11764 0.22866 0.0
C1357 C 0.85228 0.10539 0.34701 0.0
C1358 C 0.86711 0.11999 0.35284 0.0
C1359 C 0.89207 0.14142 0.29805 0.0
C1360 C 0.90221 0.14795 0.23799 0.0
C1361 C 0.87752 0.12635 0.29373 0.0
C1362 C 0.89788 0.13897 0.17417 0.0
C1363 C 0.88347 0.12396 0.16953 0.0
H1364 H 0.90962 0.76877 0.19517 0.0
H1365 H 0.89843 0.73809 0.38089 0.0
H1366 H 0.87187 0.7363 0.39099 0.0
H1367 H 0.85116 0.74217 0.34289 0.0
H1368 H 0.86234 0.77258 0.15619 0.0
H1369 H 0.88953 0.77581 0.15093 0.0
C1370 C 0.90143 0.76183 0.23825 0.0
C1371 C 0.90597 0.75354 0.287 0.0
C1372 C 0.88612 0.76073 0.24339 0.0
C1373 C 0.89523 0.74459 0.34258 0.0
C1374 C 0.88001 0.74352 0.34831 0.0
C1375 C 0.8596 0.74961 0.30145 0.0
C1376 C 0.8547 0.75705 0.24982 0.0
C1377 C 0.87522 0.75134 0.29839 0.0
C1378 C 0.86578 0.76667 0.19647 0.0
C1379 C 0.88134 0.76852 0.19333 0.0
H1380 H 0.10328 0.25479 0.6392 0.0
H1381 H 0.08756 0.234 0.84885 0.0
H1382 H 0.11139 0.23063 0.85995 0.0
H1383 H 0.13767 0.23537 0.81368 0.0
H1384 H 0.15386 0.25699 0.60569 0.0
H1385 H 0.12886 0.25814 0.59017 0.0
C1386 C 0.10498 0.24934 0.68694 0.0
C1387 C 0.0937 0.24471 0.7432 0.0
C1388 C 0.11885 0.24767 0.69344 0.0
C1389 C 0.09609 0.23771 0.80482 0.0
C1390 C 0.10973 0.2358 0.81129 0.0
C1391 C 0.13564 0.24016 0.76463 0.0
C1392 C 0.14764 0.24615 0.71106 0.0
C1393 C 0.12134 0.24101 0.75649 0.0
C1394 C 0.14484 0.25234 0.64785 0.0
C1395 C 0.13055 0.25303 0.63897 0.0
H1396 H 0.74692 0.85021 0.64322 0.0
H1397 H 0.76944 0.85601 0.84916 0.0
H1398 H 0.772 0.88287 0.86214 0.0
H1399 H 0.7659 0.90383 0.81895 0.0
H1400 H 0.74273 0.89754 0.6142 0.0
H1401 H 0.74247 0.8719 0.5967 0.0
C1402 C 0.75258 0.85744 0.69052 0.0
C1403 C 0.7579 0.85108 0.74524 0.0
C1404 C 0.7538 0.87278 0.69811 0.0
C1405 C 0.76519 0.8606 0.80628 0.0
C1406 C 0.76662 0.87595 0.81386 0.0
C1407 C 0.76098 0.89694 0.77017 0.0
C1408 C 0.75426 0.90256 0.7182 0.0
C1409 C 0.76068 0.88204 0.76074 0.0
C1410 C 0.74792 0.89347 0.65525 0.0
C1411 C 0.74774 0.87877 0.64518 0.0
H1412 H 0.15399 0.89876 0.64889 0.0
H1413 H 0.14378 0.91537 0.84612 0.0
H1414 H 0.11731 0.89043 0.85384 0.0
H1415 H 0.09802 0.86289 0.80979 0.0
H1416 H 0.10847 0.84607 0.61373 0.0
H1417 H 0.13374 0.87207 0.60014 0.0
C1418 C 0.14587 0.89702 0.69301 0.0
C1419 C 0.1509 0.90888 0.74701 0.0
C1420 C 0.13073 0.88253 0.69765 0.0
C1421 C 0.14024 0.90643 0.80388 0.0
C1422 C 0.1251 0.89213 0.80849 0.0
C1423 C 0.10573 0.86499 0.76365 0.0
C1424 C 0.1014 0.85251 0.71313 0.0
C1425 C 0.12037 0.87994 0.7565 0.0
C1426 C 0.11153 0.85544 0.65358 0.0
C1427 C 0.12602 0.87031 0.6458 0.0
H1428 H 0.92096 0.43897 0.66326 0.0
H1429 H 0.90627 0.42785 0.44322 0.0
H1430 H 0.90449 0.45266 0.43348 0.0
H1431 H 0.90879 0.4784 0.48542 0.0
H1432 H 0.924 0.48967 0.70488 0.0
H1433 H 0.9238 0.4639 0.71696 0.0
C1434 C 0.91721 0.44189 0.61337 0.0
C1435 C 0.91382 0.43162 0.55398 0.0
C1436 C 0.91638 0.45626 0.60793 0.0
C1437 C 0.90898 0.43557 0.48972 0.0
C1438 C 0.90799 0.44978 0.48405 0.0
C1439 C 0.9119 0.47513 0.53607 0.0
C1440 C 0.91647 0.48597 0.59405 0.0
C1441 C 0.91192 0.46034 0.54248 0.0
C1442 C 0.92047 0.48156 0.65934 0.0
C1443 C 0.92039 0.46684 0.6663 0.0
H1444 H 0.51794 0.43827 0.66523 0.0
H1445 H 0.53058 0.42455 0.46621 0.0
H1446 H 0.55763 0.44894 0.4704 0.0
H1447 H 0.57686 0.47529 0.52596 0.0
H1448 H 0.56388 0.48896 0.72433 0.0
H1449 H 0.5379 0.46342 0.72537 0.0
C1450 C 0.52667 0.44053 0.62312 0.0
C1451 C 0.52221 0.42968 0.56521 0.0
C1452 C 0.54214 0.45461 0.62563 0.0
C1453 C 0.5337 0.43273 0.51131 0.0
C1454 C 0.54915 0.4467 0.51357 0.0
C1455 C 0.56844 0.47256 0.56991 0.0
C1456 C 0.57227 0.48407 0.62475 0.0
C1457 C 0.5534 0.45789 0.56979 0.0
C1458 C 0.56123 0.48035 0.68134 0.0
C1459 C 0.54633 0.46576 0.68188 0.0
H1460 H 0.57332 0.09918 0.52266 0.0
H1461 H 0.56752 0.07856 0.73308 0.0
H1462 H 0.54198 0.07867 0.74832 0.0
H1463 H 0.52028 0.08279 0.69853 0.0
H1464 H 0.52588 0.10299 0.48732 0.0
H1465 H 0.55251 0.10502 0.47608 0.0
C1466 C 0.56655 0.09488 0.57213 0.0
C1467 C 0.57227 0.08878 0.62645 0.0
C1468 C 0.55178 0.09484 0.58033 0.0
C1469 C 0.56337 0.08328 0.69031 0.0
C1470 C 0.54873 0.0833 0.69905 0.0
C1471 C 0.52742 0.08783 0.65043 0.0
C1472 C 0.52106 0.09265 0.59375 0.0
C1473 C 0.54267 0.08879 0.64394 0.0
C1474 C 0.53047 0.09915 0.53173 0.0
C1475 C 0.54569 0.10028 0.52513 0.0
H1476 H 0.7752 0.59276 0.99085 0.0
H1477 H 0.76089 0.56724 0.19196 0.0
H1478 H 0.78595 0.5659 0.19475 0.0
H1479 H 0.81262 0.57333 0.14358 0.0
H1480 H 0.82713 0.59903 0.943 0.0
H1481 H 0.80128 0.59884 0.93624 0.0
C1482 C 0.77751 0.58679 0.03496 0.0
C1483 C 0.76623 0.58019 0.09127 0.0
C1484 C 0.79201 0.58614 0.03646 0.0
C1485 C 0.76938 0.57245 0.148 0.0
C1486 C 0.78373 0.5717 0.14973 0.0
C1487 C 0.81006 0.57876 0.09808 0.0
C1488 C 0.82181 0.58625 0.04407 0.0
C1489 C 0.79523 0.57871 0.09478 0.0
C1490 C 0.8183 0.5932 0.98536 0.0
C1491 C 0.80354 0.59314 0.98153 0.0
H1492 H 0.41215 0.18445 0.97677 0.0
H1493 H 0.43889 0.19744 0.1748 0.0
H1494 H 0.44116 0.22429 0.17123 0.0
H1495 H 0.43418 0.24353 0.11534 0.0
H1496 H 0.40708 0.23029 0.91821 0.0
H1497 H 0.40646 0.20421 0.91765 0.0
C1498 C 0.41858 0.1932 0.01886 0.0
C1499 C 0.42525 0.18892 0.07613 0.0
C1500 C 0.41976 0.20859 0.01672 0.0
C1501 C 0.43359 0.20041 0.13018 0.0
C1502 C 0.43488 0.21577 0.12824 0.0
C1503 C 0.42831 0.23501 0.07187 0.0
C1504 C 0.42064 0.23883 0.01707 0.0
C1505 C 0.42783 0.21992 0.07227 0.0
C1506 C 0.41305 0.22764 0.96115 0.0
C1507 C 0.41265 0.2127 0.96085 0.0
H1508 H 0.77322 0.18559 0.98009 0.0
H1509 H 0.75895 0.19606 0.18285 0.0
H1510 H 0.78399 0.22254 0.18659 0.0
H1511 H 0.81081 0.2419 0.1362 0.0
H1512 H 0.82493 0.23159 0.93272 0.0
H1513 H 0.79906 0.20596 0.92505 0.0
C1514 C 0.77553 0.19374 0.02472 0.0
C1515 C 0.76431 0.18882 0.08135 0.0
C1516 C 0.78996 0.20896 0.02656 0.0
C1517 C 0.7674 0.19955 0.13861 0.0
C1518 C 0.78174 0.21468 0.14092 0.0
C1519 C 0.80815 0.23412 0.08987 0.0
C1520 C 0.81982 0.23858 0.03539 0.0
C1521 C 0.79324 0.21938 0.08581 0.0
C1522 C 0.81616 0.22843 0.97544 0.0
C1523 C 0.80139 0.21374 0.97111 0.0
H1524 H 0.58685 0.76925 0.01486 0.0
H1525 H 0.56685 0.75698 0.80244 0.0
H1526 H 0.5649 0.78172 0.79799 0.0
H1527 H 0.57073 0.80784 0.85105 0.0
H1528 H 0.59164 0.82054 0.0618 0.0
H1529 H 0.59126 0.79464 0.07048 0.0
C1530 C 0.58188 0.7719 0.96796 0.0
C1531 C 0.57706 0.76133 0.909 0.0
C1532 C 0.58104 0.78629 0.96529 0.0
C1533 C 0.57069 0.76495 0.8485 0.0
C1534 C 0.5696 0.77911 0.84583 0.0
C1535 C 0.57501 0.80484 0.89919 0.0
C1536 C 0.58126 0.81612 0.95554 0.0
C1537 C 0.57501 0.79002 0.9034 0.0
C1538 C 0.58682 0.81209 0.01752 0.0
C1539 C 0.58664 0.79729 0.02252 0.0
H1540 H 0.19657 0.76666 0.86057 0.0
H1541 H 0.18396 0.77566 0.0701 0.0
H1542 H 0.20922 0.80197 0.07454 0.0
H1543 H 0.23419 0.82303 0.01615 0.0
H1544 H 0.24625 0.81433 0.80491 0.0
H1545 H 0.22194 0.78728 0.80395 0.0
C1546 C 0.19943 0.77431 0.90749 0.0
C1547 C 0.18841 0.76923 0.96488 0.0
C1548 C 0.21383 0.78952 0.90919 0.0
C1549 C 0.19224 0.7793 0.02519 0.0
C1550 C 0.20666 0.79436 0.0277 0.0
C1551 C 0.23156 0.81516 0.97015 0.0
C1552 C 0.24198 0.82069 0.91062 0.0
C1553 C 0.21744 0.79969 0.96961 0.0
C1554 C 0.23839 0.81037 0.85133 0.0
C1555 C 0.22449 0.7949 0.85072 0.0
H1556 H 0.19414 0.42866 0.84534 0.0
H1557 H 0.18242 0.41384 0.065 0.0
H1558 H 0.20762 0.41295 0.07755 0.0
H1559 H 0.23207 0.41453 0.02366 0.0
H1560 H 0.24365 0.42924 0.80378 0.0
H1561 H 0.21953 0.43212 0.79397 0.0
C1562 C 0.19719 0.42541 0.89616 0.0
C1563 C 0.18637 0.42123 0.95399 0.0
C1564 C 0.21165 0.42481 0.90288 0.0
C1565 C 0.19052 0.41709 0.01958 0.0
C1566 C 0.20491 0.41652 0.02677 0.0
C1567 C 0.22939 0.41852 0.97384 0.0
C1568 C 0.23958 0.42156 0.91444 0.0
C1569 C 0.21543 0.42007 0.96841 0.0
C1570 C 0.23599 0.42678 0.85029 0.0
C1571 C 0.22217 0.4284 0.84455 0.0
H1572 H 0.44314 0.92459 0.30878 0.0
H1573 H 0.42611 0.90155 0.51382 0.0
H1574 H 0.45026 0.89879 0.52634 0.0
H1575 H 0.47707 0.90462 0.48299 0.0
H1576 H 0.49454 0.92826 0.27943 0.0
H1577 H 0.46932 0.92895 0.2621 0.0
C1578 C 0.44464 0.9188 0.35583 0.0
C1579 C 0.43289 0.91336 0.41044 0.0
C1580 C 0.45867 0.91743 0.36309 0.0
C1581 C 0.435 0.9059 0.4711 0.0
C1582 C 0.44882 0.90433 0.47838 0.0
C1583 C 0.47528 0.90976 0.43447 0.0
C1584 C 0.48768 0.91644 0.38274 0.0
C1585 C 0.46086 0.91031 0.4253 0.0
C1586 C 0.48519 0.92306 0.32014 0.0
C1587 C 0.47079 0.9235 0.31028 0.0
H1588 H 0.089 0.56911 0.33911 0.0
H1589 H 0.10091 0.57783 0.56271 0.0
H1590 H 0.10239 0.55285 0.5702 0.0
H1591 H 0.09833 0.52748 0.51524 0.0
H1592 H 0.08595 0.51859 0.29206 0.0
H1593 H 0.08673 0.54467 0.28236 0.0
C1594 C 0.09211 0.56564 0.38926 0.0
C1595 C 0.09476 0.57526 0.45031 0.0
C1596 C 0.09276 0.55115 0.3934 0.0
C1597 C 0.09878 0.57061 0.51492 0.0
C1598 C 0.09959 0.5563 0.51933 0.0
C1599 C 0.09598 0.53134 0.46433 0.0
C1600 C 0.092 0.52106 0.40461 0.0
C1601 C 0.0963 0.54631 0.45923 0.0
C1602 C 0.089 0.52625 0.33896 0.0
C1603 C 0.08941 0.54116 0.33335 0.0
H1604 H 0.47663 0.57019 0.48307 0.0
H1605 H 0.48953 0.56222 0.27223 0.0
H1606 H 0.46402 0.53628 0.26438 0.0
H1607 H 0.43872 0.51517 0.31973 0.0
H1608 H 0.42609 0.52268 0.53185 0.0
H1609 H 0.45077 0.54945 0.53684 0.0
C1610 C 0.47376 0.56285 0.43514 0.0
C1611 C 0.48496 0.56811 0.37838 0.0
C1612 C 0.45917 0.5478 0.4314 0.0
C1613 C 0.48112 0.55843 0.31674 0.0
C1614 C 0.46655 0.54357 0.31224 0.0
C1615 C 0.44132 0.52271 0.36688 0.0
C1616 C 0.43063 0.51692 0.42541 0.0
C1617 C 0.4556 0.53802 0.36963 0.0
C1618 C 0.43416 0.52683 0.48612 0.0
C1619 C 0.44827 0.54215 0.48903 0.0
loop_
_geom_bond_atom_site_label_1
_geom_bond_atom_site_label_2
_geom_bond_distance
_geom_bond_site_symmetry_2
_ccdc_geom_bond_type
In0 O1 2.294 . S
In0 O2 2.326 . S
In0 O6 2.266 . S
In0 O7 2.326 . S
In0 O8 2.266 . S
In0 O9 2.326 . S
In0 O11 2.294 . S
In0 O12 2.326 . S
O1 In0 2.294 . S
O1 C10 1.240 . S
O2 In0 2.326 . S
O2 C10 1.252 . S
C3 O6 1.252 . S
C3 O7 1.260 . S
C4 O11 1.240 . S
C4 O12 1.252 . S
C5 O8 1.252 . S
C5 O9 1.260 . S
O6 In0 2.266 . S
O6 C3 1.252 . S
O7 In0 2.326 . S
O7 C3 1.260 . S
O8 In0 2.266 . S
O8 C5 1.252 . S
O9 In0 2.326 . S
O9 C5 1.260 . S
C10 O1 1.240 . S
C10 O2 1.252 . S
O11 In0 2.294 . S
O11 C4 1.240 . S
O12 In0 2.326 . S
O12 C4 1.252 . S
In13 O14 2.294 . S
In13 O15 2.326 . S
In13 O19 2.266 . S
In13 O20 2.326 . S
In13 O21 2.266 . S
In13 O22 2.326 . S
In13 O24 2.294 . S
In13 O25 2.326 . S
O14 In13 2.294 . S
O14 C23 1.240 . S
O15 In13 2.326 . S
O15 C23 1.252 . S
C16 O19 1.252 . S
C16 O20 1.260 . S
C17 O24 1.240 . S
C17 O25 1.252 . S
C18 O21 1.252 . S
C18 O22 1.260 . S
O19 In13 2.266 . S
O19 C16 1.252 . S
O20 In13 2.326 . S
O20 C16 1.260 . S
O21 In13 2.266 . S
O21 C18 1.252 . S
O22 In13 2.326 . S
O22 C18 1.260 . S
C23 O14 1.240 . S
C23 O15 1.252 . S
O24 In13 2.294 . S
O24 C17 1.240 . S
O25 In13 2.326 . S
O25 C17 1.252 . S
In26 O27 2.294 . S
In26 O28 2.326 . S
In26 O32 2.266 . S
In26 O33 2.326 . S
In26 O34 2.266 . S
In26 O35 2.326 . S
In26 O37 2.294 . S
In26 O38 2.326 . S
O27 In26 2.294 . S
O27 C36 1.240 . S
O28 In26 2.326 . S
O28 C36 1.252 . S
C29 O32 1.252 . S
C29 O33 1.260 . S
C30 O37 1.240 . S
C30 O38 1.252 . S
C31 O34 1.252 . S
C31 O35 1.260 . S
O32 In26 2.266 . S
O32 C29 1.252 . S
O33 In26 2.326 . S
O33 C29 1.260 . S
O34 In26 2.266 . S
O34 C31 1.252 . S
O35 In26 2.326 . S
O35 C31 1.260 . S
C36 O27 1.240 . S
C36 O28 1.252 . S
O37 In26 2.294 . S
O37 C30 1.240 . S
O38 In26 2.326 . S
O38 C30 1.252 . S
In39 O40 2.294 . S
In39 O41 2.326 . S
In39 O45 2.266 . S
In39 O46 2.326 . S
In39 O47 2.266 . S
In39 O48 2.326 . S
In39 O50 2.294 . S
In39 O51 2.326 . S
O40 In39 2.294 . S
O40 C49 1.240 . S
O41 In39 2.326 . S
O41 C49 1.252 . S
C42 O45 1.252 . S
C42 O46 1.260 . S
C43 O50 1.240 . S
C43 O51 1.252 . S
C44 O47 1.252 . S
C44 O48 1.260 . S
O45 In39 2.266 . S
O45 C42 1.252 . S
O46 In39 2.326 . S
O46 C42 1.260 . S
O47 In39 2.266 . S
O47 C44 1.252 . S
O48 In39 2.326 . S
O48 C44 1.260 . S
C49 O40 1.240 . S
C49 O41 1.252 . S
O50 In39 2.294 . S
O50 C43 1.240 . S
O51 In39 2.326 . S
O51 C43 1.252 . S
In52 O53 2.294 . S
In52 O54 2.326 . S
In52 O58 2.266 . S
In52 O59 2.326 . S
In52 O60 2.266 . S
In52 O61 2.326 . S
In52 O63 2.294 . S
In52 O64 2.326 . S
O53 In52 2.294 . S
O53 C62 1.240 . S
O54 In52 2.326 . S
O54 C62 1.252 . S
C55 O58 1.252 . S
C55 O59 1.260 . S
C56 O63 1.240 . S
C56 O64 1.252 . S
C57 O60 1.252 . S
C57 O61 1.260 . S
O58 In52 2.266 . S
O58 C55 1.252 . S
O59 In52 2.326 . S
O59 C55 1.260 . S
O60 In52 2.266 . S
O60 C57 1.252 . S
O61 In52 2.326 . S
O61 C57 1.260 . S
C62 O53 1.240 . S
C62 O54 1.252 . S
O63 In52 2.294 . S
O63 C56 1.240 . S
O64 In52 2.326 . S
O64 C56 1.252 . S
In65 O66 2.294 . S
In65 O67 2.326 . S
In65 O71 2.266 . S
In65 O72 2.326 . S
In65 O73 2.266 . S
In65 O74 2.326 . S
In65 O76 2.294 . S
In65 O77 2.326 . S
O66 In65 2.294 . S
O66 C75 1.240 . S
O67 In65 2.326 . S
O67 C75 1.252 . S
C68 O71 1.252 . S
C68 O72 1.260 . S
C69 O76 1.240 . S
C69 O77 1.252 . S
C70 O73 1.252 . S
C70 O74 1.260 . S
O71 In65 2.266 . S
O71 C68 1.252 . S
O72 In65 2.326 . S
O72 C68 1.260 . S
O73 In65 2.266 . S
O73 C70 1.252 . S
O74 In65 2.326 . S
O74 C70 1.260 . S
C75 O66 1.240 . S
C75 O67 1.252 . S
O76 In65 2.294 . S
O76 C69 1.240 . S
O77 In65 2.326 . S
O77 C69 1.252 . S
In78 O79 2.294 . S
In78 O80 2.326 . S
In78 O84 2.266 . S
In78 O85 2.326 . S
In78 O86 2.266 . S
In78 O87 2.326 . S
In78 O89 2.294 . S
In78 O90 2.326 . S
O79 In78 2.294 . S
O79 C88 1.240 . S
O80 In78 2.326 . S
O80 C88 1.252 . S
C81 O84 1.252 . S
C81 O85 1.260 . S
C82 O89 1.240 . S
C82 O90 1.252 . S
C83 O86 1.252 . S
C83 O87 1.260 . S
O84 In78 2.266 . S
O84 C81 1.252 . S
O85 In78 2.326 . S
O85 C81 1.260 . S
O86 In78 2.266 . S
O86 C83 1.252 . S
O87 In78 2.326 . S
O87 C83 1.260 . S
C88 O79 1.240 . S
C88 O80 1.252 . S
O89 In78 2.294 . S
O89 C82 1.240 . S
O90 In78 2.326 . S
O90 C82 1.252 . S
In91 O92 2.294 . S
In91 O93 2.326 . S
In91 O97 2.266 . S
In91 O98 2.326 . S
In91 O99 2.266 . S
In91 O100 2.326 . S
In91 O102 2.294 . S
In91 O103 2.326 . S
O92 In91 2.294 . S
O92 C101 1.240 . S
O93 In91 2.326 . S
O93 C101 1.252 . S
C94 O97 1.252 . S
C94 O98 1.260 . S
C95 O102 1.240 . S
C95 O103 1.252 . S
C96 O99 1.252 . S
C96 O100 1.260 . S
O97 In91 2.266 . S
O97 C94 1.252 . S
O98 In91 2.326 . S
O98 C94 1.260 . S
O99 In91 2.266 . S
O99 C96 1.252 . S
O100 In91 2.326 . S
O100 C96 1.260 . S
C101 O92 1.240 . S
C101 O93 1.252 . S
O102 In91 2.294 . S
O102 C95 1.240 . S
O103 In91 2.326 . S
O103 C95 1.252 . S
In104 O105 2.294 . S
In104 O106 2.326 . S
In104 O110 2.266 . S
In104 O111 2.326 . S
In104 O112 2.266 . S
In104 O113 2.326 . S
In104 O115 2.294 . S
In104 O116 2.326 . S
O105 In104 2.294 . S
O105 C114 1.240 . S
O106 In104 2.326 . S
O106 C114 1.252 . S
C107 O110 1.252 . S
C107 O111 1.260 . S
C108 O115 1.240 . S
C108 O116 1.252 . S
C109 O112 1.252 . S
C109 O113 1.260 . S
O110 In104 2.266 . S
O110 C107 1.252 . S
O111 In104 2.326 . S
O111 C107 1.260 . S
O112 In104 2.266 . S
O112 C109 1.252 . S
O113 In104 2.326 . S
O113 C109 1.260 . S
C114 O105 1.240 . S
C114 O106 1.252 . S
O115 In104 2.294 . S
O115 C108 1.240 . S
O116 In104 2.326 . S
O116 C108 1.252 . S
In117 O118 2.294 . S
In117 O119 2.326 . S
In117 O123 2.266 . S
In117 O124 2.326 . S
In117 O125 2.266 . S
In117 O126 2.326 . S
In117 O128 2.294 . S
In117 O129 2.326 . S
O118 In117 2.294 . S
O118 C127 1.240 . S
O119 In117 2.326 . S
O119 C127 1.252 . S
C120 O123 1.252 . S
C120 O124 1.260 . S
C121 O128 1.240 . S
C121 O129 1.252 . S
C122 O125 1.252 . S
C122 O126 1.260 . S
O123 In117 2.266 . S
O123 C120 1.252 . S
O124 In117 2.326 . S
O124 C120 1.260 . S
O125 In117 2.266 . S
O125 C122 1.252 . S
O126 In117 2.326 . S
O126 C122 1.260 . S
C127 O118 1.240 . S
C127 O119 1.252 . S
O128 In117 2.294 . S
O128 C121 1.240 . S
O129 In117 2.326 . S
O129 C121 1.252 . S
In130 O131 2.294 . S
In130 O132 2.326 . S
In130 O136 2.266 . S
In130 O137 2.326 . S
In130 O138 2.266 . S
In130 O139 2.326 . S
In130 O141 2.294 . S
In130 O142 2.326 . S
O131 In130 2.294 . S
O131 C140 1.240 . S
O132 In130 2.326 . S
O132 C140 1.252 . S
C133 O136 1.252 . S
C133 O137 1.260 . S
C134 O141 1.240 . S
C134 O142 1.252 . S
C135 O138 1.252 . S
C135 O139 1.260 . S
O136 In130 2.266 . S
O136 C133 1.252 . S
O137 In130 2.326 . S
O137 C133 1.260 . S
O138 In130 2.266 . S
O138 C135 1.252 . S
O139 In130 2.326 . S
O139 C135 1.260 . S
C140 O131 1.240 . S
C140 O132 1.252 . S
O141 In130 2.294 . S
O141 C134 1.240 . S
O142 In130 2.326 . S
O142 C134 1.252 . S
In143 O144 2.294 . S
In143 O145 2.326 . S
In143 O149 2.266 . S
In143 O150 2.326 . S
In143 O151 2.266 . S
In143 O152 2.326 . S
In143 O154 2.294 . S
In143 O155 2.326 . S
O144 In143 2.294 . S
O144 C153 1.240 . S
O145 In143 2.326 . S
O145 C153 1.252 . S
C146 O149 1.252 . S
C146 O150 1.260 . S
C147 O154 1.240 . S
C147 O155 1.252 . S
C148 O151 1.252 . S
C148 O152 1.260 . S
O149 In143 2.266 . S
O149 C146 1.252 . S
O150 In143 2.326 . S
O150 C146 1.260 . S
O151 In143 2.266 . S
O151 C148 1.252 . S
O152 In143 2.326 . S
O152 C148 1.260 . S
C153 O144 1.240 . S
C153 O145 1.252 . S
O154 In143 2.294 . S
O154 C147 1.240 . S
O155 In143 2.326 . S
O155 C147 1.252 . S
In156 O157 2.294 . S
In156 O158 2.326 . S
In156 O162 2.266 . S
In156 O163 2.326 . S
In156 O164 2.266 . S
In156 O165 2.326 . S
In156 O167 2.294 . S
In156 O168 2.326 . S
O157 In156 2.294 . S
O157 C166 1.240 . S
O158 In156 2.326 . S
O158 C166 1.252 . S
C159 O162 1.252 . S
C159 O163 1.260 . S
C160 O167 1.240 . S
C160 O168 1.252 . S
C161 O164 1.252 . S
C161 O165 1.260 . S
O162 In156 2.266 . S
O162 C159 1.252 . S
O163 In156 2.326 . S
O163 C159 1.260 . S
O164 In156 2.266 . S
O164 C161 1.252 . S
O165 In156 2.326 . S
O165 C161 1.260 . S
C166 O157 1.240 . S
C166 O158 1.252 . S
O167 In156 2.294 . S
O167 C160 1.240 . S
O168 In156 2.326 . S
O168 C160 1.252 . S
In169 O170 2.294 . S
In169 O171 2.326 . S
In169 O175 2.266 . S
In169 O176 2.326 . S
In169 O177 2.266 . S
In169 O178 2.326 . S
In169 O180 2.294 . S
In169 O181 2.326 . S
O170 In169 2.294 . S
O170 C179 1.240 . S
O171 In169 2.326 . S
O171 C179 1.252 . S
C172 O175 1.252 . S
C172 O176 1.260 . S
C173 O180 1.240 . S
C173 O181 1.252 . S
C174 O177 1.252 . S
C174 O178 1.260 . S
O175 In169 2.266 . S
O175 C172 1.252 . S
O176 In169 2.326 . S
O176 C172 1.260 . S
O177 In169 2.266 . S
O177 C174 1.252 . S
O178 In169 2.326 . S
O178 C174 1.260 . S
C179 O170 1.240 . S
C179 O171 1.252 . S
O180 In169 2.294 . S
O180 C173 1.240 . S
O181 In169 2.326 . S
O181 C173 1.252 . S
In182 O183 2.294 . S
In182 O184 2.326 . S
In182 O188 2.266 . S
In182 O189 2.326 . S
In182 O190 2.266 . S
In182 O191 2.326 . S
In182 O193 2.294 . S
In182 O194 2.326 . S
O183 In182 2.294 . S
O183 C192 1.240 . S
O184 In182 2.326 . S
O184 C192 1.252 . S
C185 O188 1.252 . S
C185 O189 1.260 . S
C186 O193 1.240 . S
C186 O194 1.252 . S
C187 O190 1.252 . S
C187 O191 1.260 . S
O188 In182 2.266 . S
O188 C185 1.252 . S
O189 In182 2.326 . S
O189 C185 1.260 . S
O190 In182 2.266 . S
O190 C187 1.252 . S
O191 In182 2.326 . S
O191 C187 1.260 . S
C192 O183 1.240 . S
C192 O184 1.252 . S
O193 In182 2.294 . S
O193 C186 1.240 . S
O194 In182 2.326 . S
O194 C186 1.252 . S
In195 O196 2.294 . S
In195 O197 2.326 . S
In195 O201 2.266 . S
In195 O202 2.326 . S
In195 O203 2.266 . S
In195 O204 2.326 . S
In195 O206 2.294 1_554 S
In195 O207 2.326 . S
O196 In195 2.294 . S
O196 C205 1.240 . S
O197 In195 2.326 . S
O197 C205 1.252 . S
C198 O201 1.252 . S
C198 O202 1.260 . S
C199 O206 1.240 . S
C199 O207 1.252 1_556 S
C200 O203 1.252 . S
C200 O204 1.260 . S
O201 In195 2.266 . S
O201 C198 1.252 . S
O202 In195 2.326 . S
O202 C198 1.260 . S
O203 In195 2.266 . S
O203 C200 1.252 . S
O204 In195 2.326 . S
O204 C200 1.260 . S
C205 O196 1.240 . S
C205 O197 1.252 . S
O206 In195 2.294 1_556 S
O206 C199 1.240 . S
O207 In195 2.326 . S
O207 C199 1.252 1_554 S
In208 O209 2.294 1_554 S
In208 O210 2.326 . S
In208 O214 2.266 . S
In208 O215 2.326 . S
In208 O216 2.266 . S
In208 O217 2.326 . S
In208 O219 2.294 . S
In208 O220 2.326 . S
O209 In208 2.294 1_556 S
O209 C218 1.240 . S
O210 In208 2.326 . S
O210 C218 1.252 1_554 S
C211 O214 1.252 . S
C211 O215 1.260 . S
C212 O219 1.240 . S
C212 O220 1.252 . S
C213 O216 1.252 . S
C213 O217 1.260 . S
O214 In208 2.266 . S
O214 C211 1.252 . S
O215 In208 2.326 . S
O215 C211 1.260 . S
O216 In208 2.266 . S
O216 C213 1.252 . S
O217 In208 2.326 . S
O217 C213 1.260 . S
C218 O209 1.240 . S
C218 O210 1.252 1_556 S
O219 In208 2.294 . S
O219 C212 1.240 . S
O220 In208 2.326 . S
O220 C212 1.252 . S
In221 O222 2.294 . S
In221 O223 2.326 . S
In221 O227 2.266 . S
In221 O228 2.326 . S
In221 O229 2.266 . S
In221 O230 2.326 . S
In221 O232 2.294 1_554 S
In221 O233 2.326 . S
O222 In221 2.294 . S
O222 C231 1.240 . S
O223 In221 2.326 . S
O223 C231 1.252 . S
C224 O227 1.252 . S
C224 O228 1.260 . S
C225 O232 1.240 . S
C225 O233 1.252 1_556 S
C226 O229 1.252 . S
C226 O230 1.260 . S
O227 In221 2.266 . S
O227 C224 1.252 . S
O228 In221 2.326 . S
O228 C224 1.260 . S
O229 In221 2.266 . S
O229 C226 1.252 . S
O230 In221 2.326 . S
O230 C226 1.260 . S
C231 O222 1.240 . S
C231 O223 1.252 . S
O232 In221 2.294 1_556 S
O232 C225 1.240 . S
O233 In221 2.326 . S
O233 C225 1.252 1_554 S
In234 O235 2.294 1_554 S
In234 O236 2.326 . S
In234 O240 2.266 . S
In234 O241 2.326 . S
In234 O242 2.266 . S
In234 O243 2.326 . S
In234 O245 2.294 . S
In234 O246 2.326 . S
O235 In234 2.294 1_556 S
O235 C244 1.240 . S
O236 In234 2.326 . S
O236 C244 1.252 1_554 S
C237 O240 1.252 . S
C237 O241 1.260 . S
C238 O245 1.240 . S
C238 O246 1.252 . S
C239 O242 1.252 . S
C239 O243 1.260 . S
O240 In234 2.266 . S
O240 C237 1.252 . S
O241 In234 2.326 . S
O241 C237 1.260 . S
O242 In234 2.266 . S
O242 C239 1.252 . S
O243 In234 2.326 . S
O243 C239 1.260 . S
C244 O235 1.240 . S
C244 O236 1.252 1_556 S
O245 In234 2.294 . S
O245 C238 1.240 . S
O246 In234 2.326 . S
O246 C238 1.252 . S
In247 O248 2.294 1_554 S
In247 O249 2.326 . S
In247 O253 2.266 . S
In247 O254 2.326 . S
In247 O255 2.266 . S
In247 O256 2.326 . S
In247 O258 2.294 . S
In247 O259 2.326 . S
O248 In247 2.294 1_556 S
O248 C257 1.240 . S
O249 In247 2.326 . S
O249 C257 1.252 1_554 S
C250 O253 1.252 . S
C250 O254 1.260 . S
C251 O258 1.240 . S
C251 O259 1.252 . S
C252 O255 1.252 . S
C252 O256 1.260 . S
O253 In247 2.266 . S
O253 C250 1.252 . S
O254 In247 2.326 . S
O254 C250 1.260 . S
O255 In247 2.266 . S
O255 C252 1.252 . S
O256 In247 2.326 . S
O256 C252 1.260 . S
C257 O248 1.240 . S
C257 O249 1.252 1_556 S
O258 In247 2.294 . S
O258 C251 1.240 . S
O259 In247 2.326 . S
O259 C251 1.252 . S
In260 O261 2.294 . S
In260 O262 2.326 . S
In260 O266 2.266 . S
In260 O267 2.326 . S
In260 O268 2.266 . S
In260 O269 2.326 . S
In260 O271 2.294 1_554 S
In260 O272 2.326 . S
O261 In260 2.294 . S
O261 C270 1.240 . S
O262 In260 2.326 . S
O262 C270 1.252 . S
C263 O266 1.252 . S
C263 O267 1.260 . S
C264 O271 1.240 . S
C264 O272 1.252 1_556 S
C265 O268 1.252 . S
C265 O269 1.260 . S
O266 In260 2.266 . S
O266 C263 1.252 . S
O267 In260 2.326 . S
O267 C263 1.260 . S
O268 In260 2.266 . S
O268 C265 1.252 . S
O269 In260 2.326 . S
O269 C265 1.260 . S
C270 O261 1.240 . S
C270 O262 1.252 . S
O271 In260 2.294 1_556 S
O271 C264 1.240 . S
O272 In260 2.326 . S
O272 C264 1.252 1_554 S
In273 O274 2.294 . S
In273 O275 2.326 . S
In273 O279 2.266 . S
In273 O280 2.326 . S
In273 O281 2.266 . S
In273 O282 2.326 . S
In273 O284 2.294 . S
In273 O285 2.326 . S
O274 In273 2.294 . S
O274 C283 1.240 . S
O275 In273 2.326 . S
O275 C283 1.252 . S
C276 O279 1.252 . S
C276 O280 1.260 . S
C277 O284 1.240 . S
C277 O285 1.252 . S
C278 O281 1.252 . S
C278 O282 1.260 . S
O279 In273 2.266 . S
O279 C276 1.252 . S
O280 In273 2.326 . S
O280 C276 1.260 . S
O281 In273 2.266 . S
O281 C278 1.252 . S
O282 In273 2.326 . S
O282 C278 1.260 . S
C283 O274 1.240 . S
C283 O275 1.252 . S
O284 In273 2.294 . S
O284 C277 1.240 . S
O285 In273 2.326 . S
O285 C277 1.252 . S
In286 O287 2.294 . S
In286 O288 2.326 . S
In286 O292 2.266 . S
In286 O293 2.326 . S
In286 O294 2.266 . S
In286 O295 2.326 . S
In286 O297 2.294 . S
In286 O298 2.326 . S
O287 In286 2.294 . S
O287 C296 1.240 . S
O288 In286 2.326 . S
O288 C296 1.252 . S
C289 O292 1.252 . S
C289 O293 1.260 . S
C290 O297 1.240 . S
C290 O298 1.252 . S
C291 O294 1.252 . S
C291 O295 1.260 . S
O292 In286 2.266 . S
O292 C289 1.252 . S
O293 In286 2.326 . S
O293 C289 1.260 . S
O294 In286 2.266 . S
O294 C291 1.252 . S
O295 In286 2.326 . S
O295 C291 1.260 . S
C296 O287 1.240 . S
C296 O288 1.252 . S
O297 In286 2.294 . S
O297 C290 1.240 . S
O298 In286 2.326 . S
O298 C290 1.252 . S
In299 O300 2.294 . S
In299 O301 2.326 . S
In299 O305 2.266 . S
In299 O306 2.326 . S
In299 O307 2.266 . S
In299 O308 2.326 . S
In299 O310 2.294 . S
In299 O311 2.326 . S
O300 In299 2.294 . S
O300 C309 1.240 . S
O301 In299 2.326 . S
O301 C309 1.252 . S
C302 O305 1.252 . S
C302 O306 1.260 . S
C303 O310 1.240 . S
C303 O311 1.252 . S
C304 O307 1.252 . S
C304 O308 1.260 . S
O305 In299 2.266 . S
O305 C302 1.252 . S
O306 In299 2.326 . S
O306 C302 1.260 . S
O307 In299 2.266 . S
O307 C304 1.252 . S
O308 In299 2.326 . S
O308 C304 1.260 . S
C309 O300 1.240 . S
C309 O301 1.252 . S
O310 In299 2.294 . S
O310 C303 1.240 . S
O311 In299 2.326 . S
O311 C303 1.252 . S
In312 O313 2.294 . S
In312 O314 2.326 . S
In312 O318 2.266 . S
In312 O319 2.326 . S
In312 O320 2.266 . S
In312 O321 2.326 . S
In312 O323 2.294 1_556 S
In312 O324 2.326 . S
O313 In312 2.294 . S
O313 C322 1.240 . S
O314 In312 2.326 . S
O314 C322 1.252 . S
C315 O318 1.252 . S
C315 O319 1.260 . S
C316 O323 1.240 . S
C316 O324 1.252 1_554 S
C317 O320 1.252 . S
C317 O321 1.260 . S
O318 In312 2.266 . S
O318 C315 1.252 . S
O319 In312 2.326 . S
O319 C315 1.260 . S
O320 In312 2.266 . S
O320 C317 1.252 . S
O321 In312 2.326 . S
O321 C317 1.260 . S
C322 O313 1.240 . S
C322 O314 1.252 . S
O323 In312 2.294 1_554 S
O323 C316 1.240 . S
O324 In312 2.326 . S
O324 C316 1.252 1_556 S
In325 O326 2.294 1_556 S
In325 O327 2.326 . S
In325 O331 2.266 . S
In325 O332 2.326 . S
In325 O333 2.266 . S
In325 O334 2.326 . S
In325 O336 2.294 . S
In325 O337 2.326 . S
O326 In325 2.294 1_554 S
O326 C335 1.240 . S
O327 In325 2.326 . S
O327 C335 1.252 1_556 S
C328 O331 1.252 . S
C328 O332 1.260 . S
C329 O336 1.240 . S
C329 O337 1.252 . S
C330 O333 1.252 . S
C330 O334 1.260 . S
O331 In325 2.266 . S
O331 C328 1.252 . S
O332 In325 2.326 . S
O332 C328 1.260 . S
O333 In325 2.266 . S
O333 C330 1.252 . S
O334 In325 2.326 . S
O334 C330 1.260 . S
C335 O326 1.240 . S
C335 O327 1.252 1_554 S
O336 In325 2.294 . S
O336 C329 1.240 . S
O337 In325 2.326 . S
O337 C329 1.252 . S
In338 O339 2.294 1_556 S
In338 O340 2.326 . S
In338 O344 2.266 . S
In338 O345 2.326 . S
In338 O346 2.266 . S
In338 O347 2.326 . S
In338 O349 2.294 . S
In338 O350 2.326 . S
O339 In338 2.294 1_554 S
O339 C348 1.240 . S
O340 In338 2.326 . S
O340 C348 1.252 1_556 S
C341 O344 1.252 . S
C341 O345 1.260 . S
C342 O349 1.240 . S
C342 O350 1.252 . S
C343 O346 1.252 . S
C343 O347 1.260 . S
O344 In338 2.266 . S
O344 C341 1.252 . S
O345 In338 2.326 . S
O345 C341 1.260 . S
O346 In338 2.266 . S
O346 C343 1.252 . S
O347 In338 2.326 . S
O347 C343 1.260 . S
C348 O339 1.240 . S
C348 O340 1.252 1_554 S
O349 In338 2.294 . S
O349 C342 1.240 . S
O350 In338 2.326 . S
O350 C342 1.252 . S
In351 O352 2.294 . S
In351 O353 2.326 . S
In351 O357 2.266 . S
In351 O358 2.326 . S
In351 O359 2.266 . S
In351 O360 2.326 . S
In351 O362 2.294 . S
In351 O363 2.326 . S
O352 In351 2.294 . S
O352 C361 1.240 . S
O353 In351 2.326 . S
O353 C361 1.252 . S
C354 O357 1.252 . S
C354 O358 1.260 . S
C355 O362 1.240 . S
C355 O363 1.252 . S
C356 O359 1.252 . S
C356 O360 1.260 . S
O357 In351 2.266 . S
O357 C354 1.252 . S
O358 In351 2.326 . S
O358 C354 1.260 . S
O359 In351 2.266 . S
O359 C356 1.252 . S
O360 In351 2.326 . S
O360 C356 1.260 . S
C361 O352 1.240 . S
C361 O353 1.252 . S
O362 In351 2.294 . S
O362 C355 1.240 . S
O363 In351 2.326 . S
O363 C355 1.252 . S
In364 O365 2.294 . S
In364 O366 2.326 . S
In364 O370 2.266 . S
In364 O371 2.326 . S
In364 O372 2.266 . S
In364 O373 2.326 . S
In364 O375 2.294 . S
In364 O376 2.326 . S
O365 In364 2.294 . S
O365 C374 1.240 . S
O366 In364 2.326 . S
O366 C374 1.252 . S
C367 O370 1.252 . S
C367 O371 1.260 . S
C368 O375 1.240 . S
C368 O376 1.252 . S
C369 O372 1.252 . S
C369 O373 1.260 . S
O370 In364 2.266 . S
O370 C367 1.252 . S
O371 In364 2.326 . S
O371 C367 1.260 . S
O372 In364 2.266 . S
O372 C369 1.252 . S
O373 In364 2.326 . S
O373 C369 1.260 . S
C374 O365 1.240 . S
C374 O366 1.252 . S
O375 In364 2.294 . S
O375 C368 1.240 . S
O376 In364 2.326 . S
O376 C368 1.252 . S
In377 O378 2.294 . S
In377 O379 2.326 . S
In377 O383 2.266 . S
In377 O384 2.326 . S
In377 O385 2.266 . S
In377 O386 2.326 . S
In377 O388 2.294 . S
In377 O389 2.326 . S
O378 In377 2.294 . S
O378 C387 1.240 . S
O379 In377 2.326 . S
O379 C387 1.252 . S
C380 O383 1.252 . S
C380 O384 1.260 . S
C381 O388 1.240 . S
C381 O389 1.252 . S
C382 O385 1.252 . S
C382 O386 1.260 . S
O383 In377 2.266 . S
O383 C380 1.252 . S
O384 In377 2.326 . S
O384 C380 1.260 . S
O385 In377 2.266 . S
O385 C382 1.252 . S
O386 In377 2.326 . S
O386 C382 1.260 . S
C387 O378 1.240 . S
C387 O379 1.252 . S
O388 In377 2.294 . S
O388 C381 1.240 . S
O389 In377 2.326 . S
O389 C381 1.252 . S
In390 O391 2.294 . S
In390 O392 2.326 . S
In390 O396 2.266 . S
In390 O397 2.326 . S
In390 O398 2.266 . S
In390 O399 2.326 . S
In390 O401 2.294 . S
In390 O402 2.326 . S
O391 In390 2.294 . S
O391 C400 1.240 . S
O392 In390 2.326 . S
O392 C400 1.252 . S
C393 O396 1.252 . S
C393 O397 1.260 . S
C394 O401 1.240 . S
C394 O402 1.252 . S
C395 O398 1.252 . S
C395 O399 1.260 . S
O396 In390 2.266 . S
O396 C393 1.252 . S
O397 In390 2.326 . S
O397 C393 1.260 . S
O398 In390 2.266 . S
O398 C395 1.252 . S
O399 In390 2.326 . S
O399 C395 1.260 . S
C400 O391 1.240 . S
C400 O392 1.252 . S
O401 In390 2.294 . S
O401 C394 1.240 . S
O402 In390 2.326 . S
O402 C394 1.252 . S
In403 O404 2.294 . S
In403 O405 2.326 . S
In403 O409 2.266 . S
In403 O410 2.326 . S
In403 O411 2.266 . S
In403 O412 2.326 . S
In403 O414 2.294 . S
In403 O415 2.326 . S
O404 In403 2.294 . S
O404 C413 1.240 . S
O405 In403 2.326 . S
O405 C413 1.252 . S
C406 O409 1.252 . S
C406 O410 1.260 . S
C407 O414 1.240 . S
C407 O415 1.252 . S
C408 O411 1.252 . S
C408 O412 1.260 . S
O409 In403 2.266 . S
O409 C406 1.252 . S
O410 In403 2.326 . S
O410 C406 1.260 . S
O411 In403 2.266 . S
O411 C408 1.252 . S
O412 In403 2.326 . S
O412 C408 1.260 . S
C413 O404 1.240 . S
C413 O405 1.252 . S
O414 In403 2.294 . S
O414 C407 1.240 . S
O415 In403 2.326 . S
O415 C407 1.252 . S
In416 O417 2.294 . S
In416 O418 2.326 . S
In416 O422 2.266 . S
In416 O423 2.326 . S
In416 O424 2.266 . S
In416 O425 2.326 . S
In416 O427 2.294 . S
In416 O428 2.326 . S
O417 In416 2.294 . S
O417 C426 1.240 . S
O418 In416 2.326 . S
O418 C426 1.252 . S
C419 O422 1.252 . S
C419 O423 1.260 . S
C420 O427 1.240 . S
C420 O428 1.252 . S
C421 O424 1.252 . S
C421 O425 1.260 . S
O422 In416 2.266 . S
O422 C419 1.252 . S
O423 In416 2.326 . S
O423 C419 1.260 . S
O424 In416 2.266 . S
O424 C421 1.252 . S
O425 In416 2.326 . S
O425 C421 1.260 . S
C426 O417 1.240 . S
C426 O418 1.252 . S
O427 In416 2.294 . S
O427 C420 1.240 . S
O428 In416 2.326 . S
O428 C420 1.252 . S
In429 O430 2.294 1_556 S
In429 O431 2.326 . S
In429 O435 2.266 . S
In429 O436 2.326 . S
In429 O437 2.266 . S
In429 O438 2.326 . S
In429 O440 2.294 . S
In429 O441 2.326 . S
O430 In429 2.294 1_554 S
O430 C439 1.240 . S
O431 In429 2.326 . S
O431 C439 1.252 1_556 S
C432 O435 1.252 . S
C432 O436 1.260 . S
C433 O440 1.240 . S
C433 O441 1.252 . S
C434 O437 1.252 . S
C434 O438 1.260 . S
O435 In429 2.266 . S
O435 C432 1.252 . S
O436 In429 2.326 . S
O436 C432 1.260 . S
O437 In429 2.266 . S
O437 C434 1.252 . S
O438 In429 2.326 . S
O438 C434 1.260 . S
C439 O430 1.240 . S
C439 O431 1.252 1_554 S
O440 In429 2.294 . S
O440 C433 1.240 . S
O441 In429 2.326 . S
O441 C433 1.252 . S
In442 O443 2.294 . S
In442 O444 2.326 . S
In442 O448 2.266 . S
In442 O449 2.326 . S
In442 O450 2.266 . S
In442 O451 2.326 . S
In442 O453 2.294 1_556 S
In442 O454 2.326 . S
O443 In442 2.294 . S
O443 C452 1.240 . S
O444 In442 2.326 . S
O444 C452 1.252 . S
C445 O448 1.252 . S
C445 O449 1.260 . S
C446 O453 1.240 . S
C446 O454 1.252 1_554 S
C447 O450 1.252 . S
C447 O451 1.260 . S
O448 In442 2.266 . S
O448 C445 1.252 . S
O449 In442 2.326 . S
O449 C445 1.260 . S
O450 In442 2.266 . S
O450 C447 1.252 . S
O451 In442 2.326 . S
O451 C447 1.260 . S
C452 O443 1.240 . S
C452 O444 1.252 . S
O453 In442 2.294 1_554 S
O453 C446 1.240 . S
O454 In442 2.326 . S
O454 C446 1.252 1_556 S
In455 O456 2.294 1_556 S
In455 O457 2.326 . S
In455 O461 2.266 . S
In455 O462 2.326 . S
In455 O463 2.266 . S
In455 O464 2.326 . S
In455 O466 2.294 . S
In455 O467 2.326 . S
O456 In455 2.294 1_554 S
O456 C465 1.240 . S
O457 In455 2.326 . S
O457 C465 1.252 1_556 S
C458 O461 1.252 . S
C458 O462 1.260 . S
C459 O466 1.240 . S
C459 O467 1.252 . S
C460 O463 1.252 . S
C460 O464 1.260 . S
O461 In455 2.266 . S
O461 C458 1.252 . S
O462 In455 2.326 . S
O462 C458 1.260 . S
O463 In455 2.266 . S
O463 C460 1.252 . S
O464 In455 2.326 . S
O464 C460 1.260 . S
C465 O456 1.240 . S
C465 O457 1.252 1_554 S
O466 In455 2.294 . S
O466 C459 1.240 . S
O467 In455 2.326 . S
O467 C459 1.252 . S
H468 C474 0.930 . S
H469 C477 0.930 . S
H470 C478 0.930 . S
H471 C479 0.930 . S
H472 C482 0.930 . S
H473 C483 0.930 . S
C474 H468 0.930 . S
C474 C475 1.355 . S
C474 C476 1.415 1_565 S
C475 C474 1.355 . S
C475 C477 1.419 . S
C476 C474 1.415 1_545 S
C476 C481 1.425 1_545 S
C476 C483 1.409 . S
C477 H469 0.930 . S
C477 C475 1.419 . S
C477 C478 1.362 . S
C478 H470 0.930 . S
C478 C477 1.362 . S
C478 C481 1.409 . S
C479 H471 0.930 . S
C479 C480 1.355 . S
C479 C481 1.415 1_545 S
C480 C479 1.355 . S
C480 C482 1.419 . S
C481 C476 1.425 1_565 S
C481 C478 1.409 . S
C481 C479 1.415 1_565 S
C482 H472 0.930 . S
C482 C480 1.419 . S
C482 C483 1.362 . S
C483 H473 0.930 . S
C483 C476 1.409 . S
C483 C482 1.362 . S
H484 C490 0.930 . S
H485 C493 0.930 . S
H486 C494 0.930 . S
H487 C495 0.930 . S
H488 C498 0.930 . S
H489 C499 0.930 . S
C490 H484 0.930 . S
C490 C491 1.355 . S
C490 C492 1.415 . S
C491 C490 1.355 . S
C491 C493 1.419 . S
C492 C490 1.415 . S
C492 C497 1.425 1_455 S
C492 C499 1.409 1_455 S
C493 H485 0.930 . S
C493 C491 1.419 . S
C493 C494 1.362 . S
C494 H486 0.930 . S
C494 C493 1.362 . S
C494 C497 1.409 1_455 S
C495 H487 0.930 . S
C495 C496 1.355 . S
C495 C497 1.415 . S
C496 C495 1.355 . S
C496 C498 1.419 . S
C497 C492 1.425 1_655 S
C497 C494 1.409 1_655 S
C497 C495 1.415 . S
C498 H488 0.930 . S
C498 C496 1.419 . S
C498 C499 1.362 . S
C499 H489 0.930 . S
C499 C492 1.409 1_655 S
C499 C498 1.362 . S
H500 C506 0.930 . S
H501 C509 0.930 . S
H502 C510 0.930 . S
H503 C511 0.930 . S
H504 C514 0.930 . S
H505 C515 0.930 . S
C506 H500 0.930 . S
C506 C507 1.355 . S
C506 C508 1.415 . S
C507 C506 1.355 . S
C507 C509 1.419 . S
C508 C506 1.415 . S
C508 C513 1.425 . S
C508 C515 1.409 . S
C509 H501 0.930 . S
C509 C507 1.419 . S
C509 C510 1.362 . S
C510 H502 0.930 . S
C510 C509 1.362 . S
C510 C513 1.409 . S
C511 H503 0.930 . S
C511 C512 1.355 . S
C511 C513 1.415 . S
C512 C511 1.355 . S
C512 C514 1.419 . S
C513 C508 1.425 . S
C513 C510 1.409 . S
C513 C511 1.415 . S
C514 H504 0.930 . S
C514 C512 1.419 . S
C514 C515 1.362 . S
C515 H505 0.930 . S
C515 C508 1.409 . S
C515 C514 1.362 . S
H516 C522 0.930 . S
H517 C525 0.930 . S
H518 C526 0.930 . S
H519 C527 0.930 . S
H520 C530 0.930 . S
H521 C531 0.930 . S
C522 H516 0.930 . S
C522 C523 1.355 . S
C522 C524 1.452 . S
C523 C522 1.355 . S
C523 C525 1.419 . S
C524 C522 1.452 . S
C524 C529 1.480 1_565 S
C524 C531 1.349 1_565 S
C525 H517 0.930 . S
C525 C523 1.419 . S
C525 C526 1.362 . S
C526 H518 0.930 . S
C526 C525 1.362 . S
C526 C529 1.349 1_565 S
C527 H519 0.930 . S
C527 C528 1.355 . S
C527 C529 1.453 . S
C528 C527 1.355 . S
C528 C530 1.419 . S
C529 C524 1.480 1_545 S
C529 C526 1.349 1_545 S
C529 C527 1.453 . S
C530 H520 0.930 . S
C530 C528 1.419 . S
C530 C531 1.362 . S
C531 H521 0.930 . S
C531 C524 1.349 1_545 S
C531 C530 1.362 . S
H532 C538 0.930 . S
H533 C541 0.930 . S
H534 C542 0.930 . S
H535 C543 0.930 . S
H536 C546 0.930 . S
H537 C547 0.930 . S
C538 H532 0.930 . S
C538 C539 1.355 . S
C538 C540 1.445 . S
C539 C538 1.355 . S
C539 C541 1.419 . S
C540 C538 1.445 . S
C540 C545 1.471 1_455 S
C540 C547 1.359 1_455 S
C541 H533 0.930 . S
C541 C539 1.419 . S
C541 C542 1.362 . S
C542 H534 0.930 . S
C542 C541 1.362 . S
C542 C545 1.360 1_455 S
C543 H535 0.930 . S
C543 C544 1.355 . S
C543 C545 1.445 . S
C544 C543 1.355 . S
C544 C546 1.419 . S
C545 C540 1.471 1_655 S
C545 C542 1.360 1_655 S
C545 C543 1.445 . S
C546 H536 0.930 . S
C546 C544 1.419 . S
C546 C547 1.362 . S
C547 H537 0.930 . S
C547 C540 1.359 1_655 S
C547 C546 1.362 . S
H548 C554 0.930 . S
H549 C557 0.930 . S
H550 C558 0.930 . S
H551 C559 0.930 . S
H552 C562 0.930 . S
H553 C563 0.930 . S
C554 H548 0.930 . S
C554 C555 1.355 . S
C554 C556 1.415 . S
C555 C554 1.355 . S
C555 C557 1.419 . S
C556 C554 1.415 . S
C556 C561 1.425 . S
C556 C563 1.409 . S
C557 H549 0.930 . S
C557 C555 1.419 . S
C557 C558 1.362 . S
C558 H550 0.930 . S
C558 C557 1.362 . S
C558 C561 1.409 . S
C559 H551 0.930 . S
C559 C560 1.355 . S
C559 C561 1.415 . S
C560 C559 1.355 . S
C560 C562 1.419 . S
C561 C556 1.425 . S
C561 C558 1.409 . S
C561 C559 1.415 . S
C562 H552 0.930 . S
C562 C560 1.419 . S
C562 C563 1.362 . S
C563 H553 0.930 . S
C563 C556 1.409 . S
C563 C562 1.362 . S
H564 C570 0.930 . S
H565 C573 0.930 . S
H566 C574 0.930 . S
H567 C575 0.930 . S
H568 C578 0.930 . S
H569 C579 0.930 . S
C570 H564 0.930 . S
C570 C571 1.355 . S
C570 C572 1.415 . S
C571 C570 1.355 . S
C571 C573 1.419 . S
C572 C570 1.415 . S
C572 C577 1.425 . S
C572 C579 1.409 . S
C573 H565 0.930 . S
C573 C571 1.419 . S
C573 C574 1.362 . S
C574 H566 0.930 . S
C574 C573 1.362 . S
C574 C577 1.409 . S
C575 H567 0.930 . S
C575 C576 1.355 . S
C575 C577 1.415 . S
C576 C575 1.355 . S
C576 C578 1.419 . S
C577 C572 1.425 . S
C577 C574 1.409 . S
C577 C575 1.415 . S
C578 H568 0.930 . S
C578 C576 1.419 . S
C578 C579 1.362 . S
C579 H569 0.930 . S
C579 C572 1.409 . S
C579 C578 1.362 . S
H580 C586 0.930 . S
H581 C589 0.930 . S
H582 C590 0.930 . S
H583 C591 0.930 . S
H584 C594 0.930 . S
H585 C595 0.930 . S
C586 H580 0.930 . S
C586 C587 1.355 . S
C586 C588 1.415 . S
C587 C586 1.355 . S
C587 C589 1.419 . S
C588 C586 1.415 . S
C588 C593 1.425 . S
C588 C595 1.409 . S
C589 H581 0.930 . S
C589 C587 1.419 . S
C589 C590 1.362 . S
C590 H582 0.930 . S
C590 C589 1.362 . S
C590 C593 1.409 . S
C591 H583 0.930 . S
C591 C592 1.355 . S
C591 C593 1.415 . S
C592 C591 1.355 . S
C592 C594 1.419 . S
C593 C588 1.425 . S
C593 C590 1.409 . S
C593 C591 1.415 . S
C594 H584 0.930 . S
C594 C592 1.419 . S
C594 C595 1.362 . S
C595 H585 0.930 . S
C595 C588 1.409 . S
C595 C594 1.362 . S
H596 C602 0.930 . S
H597 C605 0.930 . S
H598 C606 0.930 . S
H599 C607 0.930 . S
H600 C610 0.930 . S
H601 C611 0.930 . S
C602 H596 0.930 . S
C602 C603 1.355 . S
C602 C604 1.415 . S
C603 C602 1.355 . S
C603 C605 1.419 . S
C604 C602 1.415 . S
C604 C609 1.425 . S
C604 C611 1.409 . S
C605 H597 0.930 . S
C605 C603 1.419 . S
C605 C606 1.362 . S
C606 H598 0.930 . S
C606 C605 1.362 . S
C606 C609 1.409 . S
C607 H599 0.930 . S
C607 C608 1.355 . S
C607 C609 1.415 . S
C608 C607 1.355 . S
C608 C610 1.419 . S
C609 C604 1.425 . S
C609 C606 1.409 . S
C609 C607 1.415 . S
C610 H600 0.930 . S
C610 C608 1.419 . S
C610 C611 1.362 . S
C611 H601 0.930 . S
C611 C604 1.409 . S
C611 C610 1.362 . S
H612 C618 0.930 . S
H613 C621 0.930 . S
H614 C622 0.930 . S
H615 C623 0.930 . S
H616 C626 0.930 . S
H617 C627 0.930 . S
C618 H612 0.930 . S
C618 C619 1.355 . S
C618 C620 1.415 . S
C619 C618 1.355 . S
C619 C621 1.419 . S
C620 C618 1.415 . S
C620 C625 1.425 . S
C620 C627 1.409 . S
C621 H613 0.930 . S
C621 C619 1.419 . S
C621 C622 1.362 . S
C622 H614 0.930 . S
C622 C621 1.362 . S
C622 C625 1.409 . S
C623 H615 0.930 . S
C623 C624 1.355 . S
C623 C625 1.415 . S
C624 C623 1.355 . S
C624 C626 1.419 . S
C625 C620 1.425 . S
C625 C622 1.409 . S
C625 C623 1.415 . S
C626 H616 0.930 . S
C626 C624 1.419 . S
C626 C627 1.362 . S
C627 H617 0.930 . S
C627 C620 1.409 . S
C627 C626 1.362 . S
H628 C634 0.930 . S
H629 C637 0.930 . S
H630 C638 0.930 . S
H631 C639 0.930 . S
H632 C642 0.930 . S
H633 C643 0.930 . S
C634 H628 0.930 . S
C634 C635 1.355 . S
C634 C636 1.415 . S
C635 C634 1.355 . S
C635 C637 1.419 . S
C636 C634 1.415 . S
C636 C641 1.425 . S
C636 C643 1.409 . S
C637 H629 0.930 . S
C637 C635 1.419 . S
C637 C638 1.362 . S
C638 H630 0.930 . S
C638 C637 1.362 . S
C638 C641 1.409 . S
C639 H631 0.930 . S
C639 C640 1.355 . S
C639 C641 1.415 . S
C640 C639 1.355 . S
C640 C642 1.419 . S
C641 C636 1.425 . S
C641 C638 1.409 . S
C641 C639 1.415 . S
C642 H632 0.930 . S
C642 C640 1.419 . S
C642 C643 1.362 . S
C643 H633 0.930 . S
C643 C636 1.409 . S
C643 C642 1.362 . S
H644 C650 0.930 . S
H645 C653 0.930 . S
H646 C654 0.930 . S
H647 C655 0.930 . S
H648 C658 0.930 . S
H649 C659 0.930 . S
C650 H644 0.930 . S
C650 C651 1.355 . S
C650 C652 1.415 . S
C651 C650 1.355 . S
C651 C653 1.419 . S
C652 C650 1.415 . S
C652 C657 1.425 . S
C652 C659 1.409 . S
C653 H645 0.930 . S
C653 C651 1.419 . S
C653 C654 1.362 . S
C654 H646 0.930 . S
C654 C653 1.362 . S
C654 C657 1.409 . S
C655 H647 0.930 . S
C655 C656 1.355 . S
C655 C657 1.415 . S
C656 C655 1.355 . S
C656 C658 1.419 . S
C657 C652 1.425 . S
C657 C654 1.409 . S
C657 C655 1.415 . S
C658 H648 0.930 . S
C658 C656 1.419 . S
C658 C659 1.362 . S
C659 H649 0.930 . S
C659 C652 1.409 . S
C659 C658 1.362 . S
H660 C666 0.930 . S
H661 C669 0.930 . S
H662 C670 0.930 . S
H663 C671 0.930 . S
H664 C674 0.930 1_556 S
H665 C675 0.930 . S
C666 H660 0.930 . S
C666 C667 1.355 . S
C666 C668 1.415 . S
C667 C666 1.355 . S
C667 C669 1.419 . S
C668 C666 1.415 . S
C668 C673 1.425 . S
C668 C675 1.409 . S
C669 H661 0.930 . S
C669 C667 1.419 . S
C669 C670 1.362 . S
C670 H662 0.930 . S
C670 C669 1.362 . S
C670 C673 1.409 . S
C671 H663 0.930 . S
C671 C672 1.355 . S
C671 C673 1.415 . S
C672 C671 1.355 . S
C672 C674 1.419 . S
C673 C668 1.425 . S
C673 C670 1.409 . S
C673 C671 1.415 . S
C674 H664 0.930 1_554 S
C674 C672 1.419 . S
C674 C675 1.362 . S
C675 H665 0.930 . S
C675 C668 1.409 . S
C675 C674 1.362 . S
H676 C682 0.930 . S
H677 C685 0.930 . S
H678 C686 0.930 . S
H679 C687 0.930 . S
H680 C690 0.930 . S
H681 C691 0.930 . S
C682 H676 0.930 . S
C682 C683 1.355 . S
C682 C684 1.415 . S
C683 C682 1.355 . S
C683 C685 1.419 . S
C684 C682 1.415 . S
C684 C689 1.425 . S
C684 C691 1.409 . S
C685 H677 0.930 . S
C685 C683 1.419 . S
C685 C686 1.362 . S
C686 H678 0.930 . S
C686 C685 1.362 . S
C686 C689 1.409 . S
C687 H679 0.930 . S
C687 C688 1.355 . S
C687 C689 1.415 . S
C688 C687 1.355 . S
C688 C690 1.419 . S
C689 C684 1.425 . S
C689 C686 1.409 . S
C689 C687 1.415 . S
C690 H680 0.930 . S
C690 C688 1.419 . S
C690 C691 1.362 . S
C691 H681 0.930 . S
C691 C684 1.409 . S
C691 C690 1.362 . S
H692 C698 0.930 . S
H693 C701 0.930 . S
H694 C702 0.930 . S
H695 C703 0.930 . S
H696 C706 0.930 . S
H697 C707 0.930 . S
C698 H692 0.930 . S
C698 C699 1.355 . S
C698 C700 1.415 . S
C699 C698 1.355 . S
C699 C701 1.419 . S
C700 C698 1.415 . S
C700 C705 1.425 . S
C700 C707 1.409 . S
C701 H693 0.930 . S
C701 C699 1.419 . S
C701 C702 1.362 . S
C702 H694 0.930 . S
C702 C701 1.362 . S
C702 C705 1.409 . S
C703 H695 0.930 . S
C703 C704 1.355 . S
C703 C705 1.415 . S
C704 C703 1.355 . S
C704 C706 1.419 . S
C705 C700 1.425 . S
C705 C702 1.409 . S
C705 C703 1.415 . S
C706 H696 0.930 . S
C706 C704 1.419 . S
C706 C707 1.362 . S
C707 H697 0.930 . S
C707 C700 1.409 . S
C707 C706 1.362 . S
H708 C714 0.930 . S
H709 C717 0.930 . S
H710 C718 0.930 . S
H711 C719 0.930 . S
H712 C722 0.930 . S
H713 C723 0.930 . S
C714 H708 0.930 . S
C714 C715 1.355 . S
C714 C716 1.415 . S
C715 C714 1.355 . S
C715 C717 1.419 . S
C716 C714 1.415 . S
C716 C721 1.425 . S
C716 C723 1.409 . S
C717 H709 0.930 . S
C717 C715 1.419 . S
C717 C718 1.362 . S
C718 H710 0.930 . S
C718 C717 1.362 . S
C718 C721 1.409 . S
C719 H711 0.930 . S
C719 C720 1.355 . S
C719 C721 1.415 . S
C720 C719 1.355 . S
C720 C722 1.419 . S
C721 C716 1.425 . S
C721 C718 1.409 . S
C721 C719 1.415 . S
C722 H712 0.930 . S
C722 C720 1.419 . S
C722 C723 1.362 . S
C723 H713 0.930 . S
C723 C716 1.409 . S
C723 C722 1.362 . S
H724 C730 0.930 . S
H725 C733 0.930 . S
H726 C734 0.930 . S
H727 C735 0.930 . S
H728 C738 0.930 . S
H729 C739 0.930 . S
C730 H724 0.930 . S
C730 C731 1.355 . S
C730 C732 1.415 . S
C731 C730 1.355 . S
C731 C733 1.419 . S
C732 C730 1.415 . S
C732 C737 1.425 . S
C732 C739 1.409 . S
C733 H725 0.930 . S
C733 C731 1.419 . S
C733 C734 1.362 . S
C734 H726 0.930 . S
C734 C733 1.362 . S
C734 C737 1.409 . S
C735 H727 0.930 . S
C735 C736 1.355 . S
C735 C737 1.415 . S
C736 C735 1.355 . S
C736 C738 1.419 . S
C737 C732 1.425 . S
C737 C734 1.409 . S
C737 C735 1.415 . S
C738 H728 0.930 . S
C738 C736 1.419 . S
C738 C739 1.362 . S
C739 H729 0.930 . S
C739 C732 1.409 . S
C739 C738 1.362 . S
H740 C746 0.930 . S
H741 C749 0.930 . S
H742 C750 0.930 . S
H743 C751 0.930 . S
H744 C754 0.930 . S
H745 C755 0.930 . S
C746 H740 0.930 . S
C746 C747 1.355 . S
C746 C748 1.415 . S
C747 C746 1.355 . S
C747 C749 1.419 . S
C748 C746 1.415 . S
C748 C753 1.425 . S
C748 C755 1.409 . S
C749 H741 0.930 . S
C749 C747 1.419 . S
C749 C750 1.362 . S
C750 H742 0.930 . S
C750 C749 1.362 . S
C750 C753 1.409 . S
C751 H743 0.930 . S
C751 C752 1.355 . S
C751 C753 1.415 . S
C752 C751 1.355 . S
C752 C754 1.419 . S
C753 C748 1.425 . S
C753 C750 1.409 . S
C753 C751 1.415 . S
C754 H744 0.930 . S
C754 C752 1.419 . S
C754 C755 1.362 . S
C755 H745 0.930 . S
C755 C748 1.409 . S
C755 C754 1.362 . S
H756 C762 0.930 . S
H757 C765 0.930 . S
H758 C766 0.930 1_554 S
H759 C767 0.930 . S
H760 C770 0.930 . S
H761 C771 0.930 1_556 S
C762 H756 0.930 . S
C762 C763 1.355 . S
C762 C764 1.384 1_565 S
C763 C762 1.355 . S
C763 C765 1.419 . S
C764 C762 1.384 1_545 S
C764 C769 1.357 1_546 S
C764 C771 1.477 1_556 S
C765 H757 0.930 . S
C765 C763 1.419 . S
C765 C766 1.362 . S
C766 H758 0.930 1_556 S
C766 C765 1.362 . S
C766 C769 1.477 1_556 S
C767 H759 0.930 . S
C767 C768 1.355 . S
C767 C769 1.384 1_545 S
C768 C767 1.355 . S
C768 C770 1.419 . S
C769 C764 1.357 1_564 S
C769 C766 1.477 1_554 S
C769 C767 1.384 1_565 S
C770 H760 0.930 . S
C770 C768 1.419 . S
C770 C771 1.362 . S
C771 H761 0.930 1_554 S
C771 C764 1.477 1_554 S
C771 C770 1.362 . S
H772 C778 0.930 . S
H773 C781 0.930 . S
H774 C782 0.930 . S
H775 C783 0.930 . S
H776 C786 0.930 . S
H777 C787 0.930 . S
C778 H772 0.930 . S
C778 C779 1.355 . S
C778 C780 1.415 1_554 S
C779 C778 1.355 . S
C779 C781 1.419 . S
C780 C778 1.415 1_556 S
C780 C785 1.425 1_656 S
C780 C787 1.409 . S
C781 H773 0.930 . S
C781 C779 1.419 . S
C781 C782 1.362 1_655 S
C782 H774 0.930 . S
C782 C781 1.362 1_455 S
C782 C785 1.409 . S
C783 H775 0.930 . S
C783 C784 1.355 . S
C783 C785 1.415 1_556 S
C784 C783 1.355 . S
C784 C786 1.419 . S
C785 C780 1.425 1_454 S
C785 C782 1.409 . S
C785 C783 1.415 1_554 S
C786 H776 0.930 . S
C786 C784 1.419 . S
C786 C787 1.362 1_455 S
C787 H777 0.930 . S
C787 C780 1.409 . S
C787 C786 1.362 1_655 S
H788 C794 0.930 . S
H789 C797 0.930 . S
H790 C798 0.930 . S
H791 C799 0.930 . S
H792 C802 0.930 . S
H793 C803 0.930 . S
C794 H788 0.930 . S
C794 C795 1.355 . S
C794 C796 1.415 . S
C795 C794 1.355 . S
C795 C797 1.419 . S
C796 C794 1.415 . S
C796 C801 1.425 1_556 S
C796 C803 1.409 . S
C797 H789 0.930 . S
C797 C795 1.419 . S
C797 C798 1.362 1_556 S
C798 H790 0.930 . S
C798 C797 1.362 1_554 S
C798 C801 1.409 . S
C799 H791 0.930 . S
C799 C800 1.355 . S
C799 C801 1.415 . S
C800 C799 1.355 . S
C800 C802 1.419 . S
C801 C796 1.425 1_554 S
C801 C798 1.409 . S
C801 C799 1.415 . S
C802 H792 0.930 . S
C802 C800 1.419 . S
C802 C803 1.362 1_554 S
C803 H793 0.930 . S
C803 C796 1.409 . S
C803 C802 1.362 1_556 S
H804 C810 0.930 . S
H805 C813 0.930 . S
H806 C814 0.930 . S
H807 C815 0.930 . S
H808 C818 0.930 . S
H809 C819 0.930 . S
C810 H804 0.930 . S
C810 C811 1.355 . S
C810 C812 1.415 1_565 S
C811 C810 1.355 . S
C811 C813 1.419 . S
C812 C810 1.415 1_545 S
C812 C817 1.425 1_546 S
C812 C819 1.409 . S
C813 H805 0.930 . S
C813 C811 1.419 . S
C813 C814 1.362 1_556 S
C814 H806 0.930 . S
C814 C813 1.362 1_554 S
C814 C817 1.409 . S
C815 H807 0.930 . S
C815 C816 1.355 . S
C815 C817 1.415 1_545 S
C816 C815 1.355 . S
C816 C818 1.419 . S
C817 C812 1.425 1_564 S
C817 C814 1.409 . S
C817 C815 1.415 1_565 S
C818 H808 0.930 . S
C818 C816 1.419 . S
C818 C819 1.362 1_554 S
C819 H809 0.930 . S
C819 C812 1.409 . S
C819 C818 1.362 1_556 S
H820 C826 0.930 . S
H821 C829 0.930 . S
H822 C830 0.930 . S
H823 C831 0.930 . S
H824 C834 0.930 . S
H825 C835 0.930 . S
C826 H820 0.930 . S
C826 C827 1.355 . S
C826 C828 1.415 1_556 S
C827 C826 1.355 . S
C827 C829 1.419 . S
C828 C826 1.415 1_554 S
C828 C833 1.425 1_454 S
C828 C835 1.409 . S
C829 H821 0.930 . S
C829 C827 1.419 . S
C829 C830 1.362 1_455 S
C830 H822 0.930 . S
C830 C829 1.362 1_655 S
C830 C833 1.409 . S
C831 H823 0.930 . S
C831 C832 1.355 . S
C831 C833 1.415 1_554 S
C832 C831 1.355 . S
C832 C834 1.419 . S
C833 C828 1.425 1_656 S
C833 C830 1.409 . S
C833 C831 1.415 1_556 S
C834 H824 0.930 . S
C834 C832 1.419 . S
C834 C835 1.362 1_655 S
C835 H825 0.930 . S
C835 C828 1.409 . S
C835 C834 1.362 1_455 S
H836 C842 0.930 . S
H837 C845 0.930 . S
H838 C846 0.930 . S
H839 C847 0.930 . S
H840 C850 0.930 . S
H841 C851 0.930 . S
C842 H836 0.930 . S
C842 C843 1.355 . S
C842 C844 1.415 1_554 S
C843 C842 1.355 . S
C843 C845 1.419 . S
C844 C842 1.415 1_556 S
C844 C849 1.425 1_556 S
C844 C851 1.409 . S
C845 H837 0.930 . S
C845 C843 1.419 . S
C845 C846 1.362 . S
C846 H838 0.930 . S
C846 C845 1.362 . S
C846 C849 1.409 . S
C847 H839 0.930 . S
C847 C848 1.355 . S
C847 C849 1.415 1_556 S
C848 C847 1.355 . S
C848 C850 1.419 . S
C849 C844 1.425 1_554 S
C849 C846 1.409 . S
C849 C847 1.415 1_554 S
C850 H840 0.930 . S
C850 C848 1.419 . S
C850 C851 1.362 . S
C851 H841 0.930 . S
C851 C844 1.409 . S
C851 C850 1.362 . S
H852 C858 0.930 . S
H853 C861 0.930 . S
H854 C862 0.930 . S
H855 C863 0.930 . S
H856 C866 0.930 . S
H857 C867 0.930 . S
C858 H852 0.930 . S
C858 C859 1.355 . S
C858 C860 1.415 . S
C859 C858 1.355 . S
C859 C861 1.419 . S
C860 C858 1.415 . S
C860 C865 1.425 . S
C860 C867 1.409 . S
C861 H853 0.930 . S
C861 C859 1.419 . S
C861 C862 1.362 . S
C862 H854 0.930 . S
C862 C861 1.362 . S
C862 C865 1.409 . S
C863 H855 0.930 . S
C863 C864 1.355 . S
C863 C865 1.415 . S
C864 C863 1.355 . S
C864 C866 1.419 . S
C865 C860 1.425 . S
C865 C862 1.409 . S
C865 C863 1.415 . S
C866 H856 0.930 . S
C866 C864 1.419 . S
C866 C867 1.362 . S
C867 H857 0.930 . S
C867 C860 1.409 . S
C867 C866 1.362 . S
H868 C874 0.930 . S
H869 C877 0.930 . S
H870 C878 0.930 . S
H871 C879 0.930 . S
H872 C882 0.930 . S
H873 C883 0.930 . S
C874 H868 0.930 . S
C874 C875 1.355 . S
C874 C876 1.415 . S
C875 C874 1.355 . S
C875 C877 1.419 . S
C876 C874 1.415 . S
C876 C881 1.425 . S
C876 C883 1.409 . S
C877 H869 0.930 . S
C877 C875 1.419 . S
C877 C878 1.362 . S
C878 H870 0.930 . S
C878 C877 1.362 . S
C878 C881 1.409 . S
C879 H871 0.930 . S
C879 C880 1.355 . S
C879 C881 1.415 . S
C880 C879 1.355 . S
C880 C882 1.419 . S
C881 C876 1.425 . S
C881 C878 1.409 . S
C881 C879 1.415 . S
C882 H872 0.930 . S
C882 C880 1.419 . S
C882 C883 1.362 . S
C883 H873 0.930 . S
C883 C876 1.409 . S
C883 C882 1.362 . S
H884 C890 0.930 . S
H885 C893 0.930 . S
H886 C894 0.930 . S
H887 C895 0.930 . S
H888 C898 0.930 . S
H889 C899 0.930 . S
C890 H884 0.930 . S
C890 C891 1.355 . S
C890 C892 1.415 . S
C891 C890 1.355 . S
C891 C893 1.419 . S
C892 C890 1.415 . S
C892 C897 1.425 . S
C892 C899 1.409 . S
C893 H885 0.930 . S
C893 C891 1.419 . S
C893 C894 1.362 . S
C894 H886 0.930 . S
C894 C893 1.362 . S
C894 C897 1.409 . S
C895 H887 0.930 . S
C895 C896 1.355 . S
C895 C897 1.415 . S
C896 C895 1.355 . S
C896 C898 1.419 . S
C897 C892 1.425 . S
C897 C894 1.409 . S
C897 C895 1.415 . S
C898 H888 0.930 . S
C898 C896 1.419 . S
C898 C899 1.362 . S
C899 H889 0.930 . S
C899 C892 1.409 . S
C899 C898 1.362 . S
H900 C906 0.930 . S
H901 C909 0.930 . S
H902 C910 0.930 . S
H903 C911 0.930 . S
H904 C914 0.930 . S
H905 C915 0.930 . S
C906 H900 0.930 . S
C906 C907 1.355 . S
C906 C908 1.415 . S
C907 C906 1.355 . S
C907 C909 1.419 . S
C908 C906 1.415 . S
C908 C913 1.425 . S
C908 C915 1.409 . S
C909 H901 0.930 . S
C909 C907 1.419 . S
C909 C910 1.362 . S
C910 H902 0.930 . S
C910 C909 1.362 . S
C910 C913 1.409 . S
C911 H903 0.930 . S
C911 C912 1.355 . S
C911 C913 1.415 . S
C912 C911 1.355 . S
C912 C914 1.419 . S
C913 C908 1.425 . S
C913 C910 1.409 . S
C913 C911 1.415 . S
C914 H904 0.930 . S
C914 C912 1.419 . S
C914 C915 1.362 . S
C915 H905 0.930 . S
C915 C908 1.409 . S
C915 C914 1.362 . S
H916 C922 0.930 . S
H917 C925 0.930 . S
H918 C926 0.930 . S
H919 C927 0.930 . S
H920 C930 0.930 . S
H921 C931 0.930 . S
C922 H916 0.930 . S
C922 C923 1.355 . S
C922 C924 1.415 . S
C923 C922 1.355 . S
C923 C925 1.419 . S
C924 C922 1.415 . S
C924 C929 1.425 . S
C924 C931 1.409 . S
C925 H917 0.930 . S
C925 C923 1.419 . S
C925 C926 1.362 . S
C926 H918 0.930 . S
C926 C925 1.362 . S
C926 C929 1.409 . S
C927 H919 0.930 . S
C927 C928 1.355 . S
C927 C929 1.415 . S
C928 C927 1.355 . S
C928 C930 1.419 . S
C929 C924 1.425 . S
C929 C926 1.409 . S
C929 C927 1.415 . S
C930 H920 0.930 . S
C930 C928 1.419 . S
C930 C931 1.362 . S
C931 H921 0.930 . S
C931 C924 1.409 . S
C931 C930 1.362 . S
H932 C938 0.930 . S
H933 C941 0.930 . S
H934 C942 0.930 . S
H935 C943 0.930 . S
H936 C946 0.930 . S
H937 C947 0.930 . S
C938 H932 0.930 . S
C938 C939 1.355 . S
C938 C940 1.415 . S
C939 C938 1.355 . S
C939 C941 1.419 . S
C940 C938 1.415 . S
C940 C945 1.425 . S
C940 C947 1.409 . S
C941 H933 0.930 . S
C941 C939 1.419 . S
C941 C942 1.362 . S
C942 H934 0.930 . S
C942 C941 1.362 . S
C942 C945 1.409 . S
C943 H935 0.930 . S
C943 C944 1.355 . S
C943 C945 1.415 . S
C944 C943 1.355 . S
C944 C946 1.419 . S
C945 C940 1.425 . S
C945 C942 1.409 . S
C945 C943 1.415 . S
C946 H936 0.930 . S
C946 C944 1.419 . S
C946 C947 1.362 . S
C947 H937 0.930 . S
C947 C940 1.409 . S
C947 C946 1.362 . S
H948 C954 0.930 . S
H949 C957 0.930 . S
H950 C958 0.930 . S
H951 C959 0.930 . S
H952 C962 0.930 . S
H953 C963 0.930 . S
C954 H948 0.930 . S
C954 C955 1.355 . S
C954 C956 1.415 . S
C955 C954 1.355 . S
C955 C957 1.419 . S
C956 C954 1.415 . S
C956 C961 1.425 . S
C956 C963 1.409 . S
C957 H949 0.930 . S
C957 C955 1.419 . S
C957 C958 1.362 . S
C958 H950 0.930 . S
C958 C957 1.362 . S
C958 C961 1.409 . S
C959 H951 0.930 . S
C959 C960 1.355 . S
C959 C961 1.415 . S
C960 C959 1.355 . S
C960 C962 1.419 . S
C961 C956 1.425 . S
C961 C958 1.409 . S
C961 C959 1.415 . S
C962 H952 0.930 . S
C962 C960 1.419 . S
C962 C963 1.362 . S
C963 H953 0.930 . S
C963 C956 1.409 . S
C963 C962 1.362 . S
H964 C970 0.930 . S
H965 C973 0.930 . S
H966 C974 0.930 . S
H967 C975 0.930 . S
H968 C978 0.930 . S
H969 C979 0.930 . S
C970 H964 0.930 . S
C970 C971 1.355 . S
C970 C972 1.415 . S
C971 C970 1.355 . S
C971 C973 1.419 . S
C972 C970 1.415 . S
C972 C977 1.425 . S
C972 C979 1.409 . S
C973 H965 0.930 . S
C973 C971 1.419 . S
C973 C974 1.362 . S
C974 H966 0.930 . S
C974 C973 1.362 . S
C974 C977 1.409 . S
C975 H967 0.930 . S
C975 C976 1.355 . S
C975 C977 1.415 . S
C976 C975 1.355 . S
C976 C978 1.419 . S
C977 C972 1.425 . S
C977 C974 1.409 . S
C977 C975 1.415 . S
C978 H968 0.930 . S
C978 C976 1.419 . S
C978 C979 1.362 . S
C979 H969 0.930 . S
C979 C972 1.409 . S
C979 C978 1.362 . S
H980 C986 0.930 . S
H981 C989 0.930 . S
H982 C990 0.930 . S
H983 C991 0.930 . S
H984 C994 0.930 . S
H985 C995 0.930 . S
C986 H980 0.930 . S
C986 C987 1.355 . S
C986 C988 1.415 . S
C987 C986 1.355 . S
C987 C989 1.419 . S
C988 C986 1.415 . S
C988 C993 1.425 . S
C988 C995 1.409 . S
C989 H981 0.930 . S
C989 C987 1.419 . S
C989 C990 1.362 . S
C990 H982 0.930 . S
C990 C989 1.362 . S
C990 C993 1.409 . S
C991 H983 0.930 . S
C991 C992 1.355 . S
C991 C993 1.415 . S
C992 C991 1.355 . S
C992 C994 1.419 . S
C993 C988 1.425 . S
C993 C990 1.409 . S
C993 C991 1.415 . S
C994 H984 0.930 . S
C994 C992 1.419 . S
C994 C995 1.362 . S
C995 H985 0.930 . S
C995 C988 1.409 . S
C995 C994 1.362 . S
H996 C1002 0.930 . S
H997 C1005 0.930 . S
H998 C1006 0.930 . S
H999 C1007 0.930 . S
H1000 C1010 0.930 . S
H1001 C1011 0.930 . S
C1002 H996 0.930 . S
C1002 C1003 1.355 . S
C1002 C1004 1.415 . S
C1003 C1002 1.355 . S
C1003 C1005 1.419 . S
C1004 C1002 1.415 . S
C1004 C1009 1.425 . S
C1004 C1011 1.409 . S
C1005 H997 0.930 . S
C1005 C1003 1.419 . S
C1005 C1006 1.362 . S
C1006 H998 0.930 . S
C1006 C1005 1.362 . S
C1006 C1009 1.409 . S
C1007 H999 0.930 . S
C1007 C1008 1.355 . S
C1007 C1009 1.415 . S
C1008 C1007 1.355 . S
C1008 C1010 1.419 . S
C1009 C1004 1.425 . S
C1009 C1006 1.409 . S
C1009 C1007 1.415 . S
C1010 H1000 0.930 . S
C1010 C1008 1.419 . S
C1010 C1011 1.362 . S
C1011 H1001 0.930 . S
C1011 C1004 1.409 . S
C1011 C1010 1.362 . S
H1012 C1018 0.930 . S
H1013 C1021 0.930 . S
H1014 C1022 0.930 . S
H1015 C1023 0.930 . S
H1016 C1026 0.930 . S
H1017 C1027 0.930 . S
C1018 H1012 0.930 . S
C1018 C1019 1.355 . S
C1018 C1020 1.415 . S
C1019 C1018 1.355 . S
C1019 C1021 1.419 . S
C1020 C1018 1.415 . S
C1020 C1025 1.425 . S
C1020 C1027 1.409 . S
C1021 H1013 0.930 . S
C1021 C1019 1.419 . S
C1021 C1022 1.362 . S
C1022 H1014 0.930 . S
C1022 C1021 1.362 . S
C1022 C1025 1.409 . S
C1023 H1015 0.930 . S
C1023 C1024 1.355 . S
C1023 C1025 1.415 . S
C1024 C1023 1.355 . S
C1024 C1026 1.419 . S
C1025 C1020 1.425 . S
C1025 C1022 1.409 . S
C1025 C1023 1.415 . S
C1026 H1016 0.930 . S
C1026 C1024 1.419 . S
C1026 C1027 1.362 . S
C1027 H1017 0.930 . S
C1027 C1020 1.409 . S
C1027 C1026 1.362 . S
H1028 C1034 0.930 . S
H1029 C1037 0.930 . S
H1030 C1038 0.930 . S
H1031 C1039 0.930 . S
H1032 C1042 0.930 . S
H1033 C1043 0.930 . S
C1034 H1028 0.930 . S
C1034 C1035 1.355 . S
C1034 C1036 1.415 . S
C1035 C1034 1.355 . S
C1035 C1037 1.419 . S
C1036 C1034 1.415 . S
C1036 C1041 1.425 . S
C1036 C1043 1.409 . S
C1037 H1029 0.930 . S
C1037 C1035 1.419 . S
C1037 C1038 1.362 . S
C1038 H1030 0.930 . S
C1038 C1037 1.362 . S
C1038 C1041 1.409 . S
C1039 H1031 0.930 . S
C1039 C1040 1.355 . S
C1039 C1041 1.415 . S
C1040 C1039 1.355 . S
C1040 C1042 1.419 . S
C1041 C1036 1.425 . S
C1041 C1038 1.409 . S
C1041 C1039 1.415 . S
C1042 H1032 0.930 . S
C1042 C1040 1.419 . S
C1042 C1043 1.362 . S
C1043 H1033 0.930 . S
C1043 C1036 1.409 . S
C1043 C1042 1.362 . S
H1044 C1050 0.930 . S
H1045 C1053 0.930 . S
H1046 C1054 0.930 . S
H1047 C1055 0.930 . S
H1048 C1058 0.930 . S
H1049 C1059 0.930 . S
C1050 H1044 0.930 . S
C1050 C1051 1.355 . S
C1050 C1052 1.415 . S
C1051 C1050 1.355 . S
C1051 C1053 1.419 . S
C1052 C1050 1.415 . S
C1052 C1057 1.425 . S
C1052 C1059 1.409 . S
C1053 H1045 0.930 . S
C1053 C1051 1.419 . S
C1053 C1054 1.362 . S
C1054 H1046 0.930 . S
C1054 C1053 1.362 . S
C1054 C1057 1.409 . S
C1055 H1047 0.930 . S
C1055 C1056 1.355 . S
C1055 C1057 1.415 . S
C1056 C1055 1.355 . S
C1056 C1058 1.419 . S
C1057 C1052 1.425 . S
C1057 C1054 1.409 . S
C1057 C1055 1.415 . S
C1058 H1048 0.930 . S
C1058 C1056 1.419 . S
C1058 C1059 1.362 . S
C1059 H1049 0.930 . S
C1059 C1052 1.409 . S
C1059 C1058 1.362 . S
H1060 C1066 0.930 . S
H1061 C1069 0.930 . S
H1062 C1070 0.930 . S
H1063 C1071 0.930 . S
H1064 C1074 0.930 . S
H1065 C1075 0.930 . S
C1066 H1060 0.930 . S
C1066 C1067 1.355 . S
C1066 C1068 1.415 . S
C1067 C1066 1.355 . S
C1067 C1069 1.419 . S
C1068 C1066 1.415 . S
C1068 C1073 1.425 . S
C1068 C1075 1.409 . S
C1069 H1061 0.930 . S
C1069 C1067 1.419 . S
C1069 C1070 1.362 . S
C1070 H1062 0.930 . S
C1070 C1069 1.362 . S
C1070 C1073 1.409 . S
C1071 H1063 0.930 . S
C1071 C1072 1.355 . S
C1071 C1073 1.415 . S
C1072 C1071 1.355 . S
C1072 C1074 1.419 . S
C1073 C1068 1.425 . S
C1073 C1070 1.409 . S
C1073 C1071 1.415 . S
C1074 H1064 0.930 . S
C1074 C1072 1.419 . S
C1074 C1075 1.362 . S
C1075 H1065 0.930 . S
C1075 C1068 1.409 . S
C1075 C1074 1.362 . S
H1076 C1082 0.930 . S
H1077 C1085 0.930 . S
H1078 C1086 0.930 . S
H1079 C1087 0.930 . S
H1080 C1090 0.930 . S
H1081 C1091 0.930 . S
C1082 H1076 0.930 . S
C1082 C1083 1.355 . S
C1082 C1084 1.415 . S
C1083 C1082 1.355 . S
C1083 C1085 1.419 . S
C1084 C1082 1.415 . S
C1084 C1089 1.425 . S
C1084 C1091 1.409 . S
C1085 H1077 0.930 . S
C1085 C1083 1.419 . S
C1085 C1086 1.362 . S
C1086 H1078 0.930 . S
C1086 C1085 1.362 . S
C1086 C1089 1.409 . S
C1087 H1079 0.930 . S
C1087 C1088 1.355 . S
C1087 C1089 1.415 . S
C1088 C1087 1.355 . S
C1088 C1090 1.419 . S
C1089 C1084 1.425 . S
C1089 C1086 1.409 . S
C1089 C1087 1.415 . S
C1090 H1080 0.930 . S
C1090 C1088 1.419 . S
C1090 C1091 1.362 . S
C1091 H1081 0.930 . S
C1091 C1084 1.409 . S
C1091 C1090 1.362 . S
H1092 C1098 0.930 . S
H1093 C1101 0.930 . S
H1094 C1102 0.930 . S
H1095 C1103 0.930 . S
H1096 C1106 0.930 . S
H1097 C1107 0.930 . S
C1098 H1092 0.930 . S
C1098 C1099 1.355 . S
C1098 C1100 1.415 . S
C1099 C1098 1.355 . S
C1099 C1101 1.419 . S
C1100 C1098 1.415 . S
C1100 C1105 1.425 . S
C1100 C1107 1.409 . S
C1101 H1093 0.930 . S
C1101 C1099 1.419 . S
C1101 C1102 1.362 . S
C1102 H1094 0.930 . S
C1102 C1101 1.362 . S
C1102 C1105 1.409 . S
C1103 H1095 0.930 . S
C1103 C1104 1.355 . S
C1103 C1105 1.415 . S
C1104 C1103 1.355 . S
C1104 C1106 1.419 . S
C1105 C1100 1.425 . S
C1105 C1102 1.409 . S
C1105 C1103 1.415 . S
C1106 H1096 0.930 . S
C1106 C1104 1.419 . S
C1106 C1107 1.362 . S
C1107 H1097 0.930 . S
C1107 C1100 1.409 . S
C1107 C1106 1.362 . S
H1108 C1114 0.930 . S
H1109 C1117 0.930 . S
H1110 C1118 0.930 . S
H1111 C1119 0.930 . S
H1112 C1122 0.930 . S
H1113 C1123 0.930 . S
C1114 H1108 0.930 . S
C1114 C1115 1.355 . S
C1114 C1116 1.415 . S
C1115 C1114 1.355 . S
C1115 C1117 1.419 . S
C1116 C1114 1.415 . S
C1116 C1121 1.425 . S
C1116 C1123 1.409 . S
C1117 H1109 0.930 . S
C1117 C1115 1.419 . S
C1117 C1118 1.362 . S
C1118 H1110 0.930 . S
C1118 C1117 1.362 . S
C1118 C1121 1.409 . S
C1119 H1111 0.930 . S
C1119 C1120 1.355 . S
C1119 C1121 1.415 . S
C1120 C1119 1.355 . S
C1120 C1122 1.419 . S
C1121 C1116 1.425 . S
C1121 C1118 1.409 . S
C1121 C1119 1.415 . S
C1122 H1112 0.930 . S
C1122 C1120 1.419 . S
C1122 C1123 1.362 . S
C1123 H1113 0.930 . S
C1123 C1116 1.409 . S
C1123 C1122 1.362 . S
H1124 C1130 0.930 . S
H1125 C1133 0.930 . S
H1126 C1134 0.930 . S
H1127 C1135 0.930 . S
H1128 C1138 0.930 . S
H1129 C1139 0.930 . S
C1130 H1124 0.930 . S
C1130 C1131 1.355 . S
C1130 C1132 1.415 . S
C1131 C1130 1.355 . S
C1131 C1133 1.419 . S
C1132 C1130 1.415 . S
C1132 C1137 1.425 . S
C1132 C1139 1.409 . S
C1133 H1125 0.930 . S
C1133 C1131 1.419 . S
C1133 C1134 1.362 . S
C1134 H1126 0.930 . S
C1134 C1133 1.362 . S
C1134 C1137 1.409 . S
C1135 H1127 0.930 . S
C1135 C1136 1.355 . S
C1135 C1137 1.415 . S
C1136 C1135 1.355 . S
C1136 C1138 1.419 . S
C1137 C1132 1.425 . S
C1137 C1134 1.409 . S
C1137 C1135 1.415 . S
C1138 H1128 0.930 . S
C1138 C1136 1.419 . S
C1138 C1139 1.362 . S
C1139 H1129 0.930 . S
C1139 C1132 1.409 . S
C1139 C1138 1.362 . S
H1140 C1146 0.930 . S
H1141 C1149 0.930 . S
H1142 C1150 0.930 . S
H1143 C1151 0.930 . S
H1144 C1154 0.930 . S
H1145 C1155 0.930 . S
C1146 H1140 0.930 . S
C1146 C1147 1.355 . S
C1146 C1148 1.415 . S
C1147 C1146 1.355 . S
C1147 C1149 1.419 . S
C1148 C1146 1.415 . S
C1148 C1153 1.425 . S
C1148 C1155 1.409 . S
C1149 H1141 0.930 . S
C1149 C1147 1.419 . S
C1149 C1150 1.362 . S
C1150 H1142 0.930 . S
C1150 C1149 1.362 . S
C1150 C1153 1.409 . S
C1151 H1143 0.930 . S
C1151 C1152 1.355 . S
C1151 C1153 1.415 . S
C1152 C1151 1.355 . S
C1152 C1154 1.419 . S
C1153 C1148 1.425 . S
C1153 C1150 1.409 . S
C1153 C1151 1.415 . S
C1154 H1144 0.930 . S
C1154 C1152 1.419 . S
C1154 C1155 1.362 . S
C1155 H1145 0.930 . S
C1155 C1148 1.409 . S
C1155 C1154 1.362 . S
H1156 C1162 0.930 . S
H1157 C1165 0.930 . S
H1158 C1166 0.930 . S
H1159 C1167 0.930 . S
H1160 C1170 0.930 . S
H1161 C1171 0.930 . S
C1162 H1156 0.930 . S
C1162 C1163 1.355 . S
C1162 C1164 1.415 . S
C1163 C1162 1.355 . S
C1163 C1165 1.419 . S
C1164 C1162 1.415 . S
C1164 C1169 1.425 . S
C1164 C1171 1.409 . S
C1165 H1157 0.930 . S
C1165 C1163 1.419 . S
C1165 C1166 1.362 . S
C1166 H1158 0.930 . S
C1166 C1165 1.362 . S
C1166 C1169 1.409 . S
C1167 H1159 0.930 . S
C1167 C1168 1.355 . S
C1167 C1169 1.415 . S
C1168 C1167 1.355 . S
C1168 C1170 1.419 . S
C1169 C1164 1.425 . S
C1169 C1166 1.409 . S
C1169 C1167 1.415 . S
C1170 H1160 0.930 . S
C1170 C1168 1.419 . S
C1170 C1171 1.362 . S
C1171 H1161 0.930 . S
C1171 C1164 1.409 . S
C1171 C1170 1.362 . S
H1172 C1178 0.930 . S
H1173 C1181 0.930 . S
H1174 C1182 0.930 . S
H1175 C1183 0.930 . S
H1176 C1186 0.930 . S
H1177 C1187 0.930 . S
C1178 H1172 0.930 . S
C1178 C1179 1.355 . S
C1178 C1180 1.415 . S
C1179 C1178 1.355 . S
C1179 C1181 1.419 . S
C1180 C1178 1.415 . S
C1180 C1185 1.425 . S
C1180 C1187 1.409 . S
C1181 H1173 0.930 . S
C1181 C1179 1.419 . S
C1181 C1182 1.362 . S
C1182 H1174 0.930 . S
C1182 C1181 1.362 . S
C1182 C1185 1.409 . S
C1183 H1175 0.930 . S
C1183 C1184 1.355 . S
C1183 C1185 1.415 . S
C1184 C1183 1.355 . S
C1184 C1186 1.419 . S
C1185 C1180 1.425 . S
C1185 C1182 1.409 . S
C1185 C1183 1.415 . S
C1186 H1176 0.930 . S
C1186 C1184 1.419 . S
C1186 C1187 1.362 . S
C1187 H1177 0.930 . S
C1187 C1180 1.409 . S
C1187 C1186 1.362 . S
H1188 C1194 0.930 . S
H1189 C1197 0.930 . S
H1190 C1198 0.930 . S
H1191 C1199 0.930 . S
H1192 C1202 0.930 . S
H1193 C1203 0.930 . S
C1194 H1188 0.930 . S
C1194 C1195 1.355 . S
C1194 C1196 1.415 . S
C1195 C1194 1.355 . S
C1195 C1197 1.419 . S
C1196 C1194 1.415 . S
C1196 C1201 1.425 . S
C1196 C1203 1.409 . S
C1197 H1189 0.930 . S
C1197 C1195 1.419 . S
C1197 C1198 1.362 . S
C1198 H1190 0.930 . S
C1198 C1197 1.362 . S
C1198 C1201 1.409 . S
C1199 H1191 0.930 . S
C1199 C1200 1.355 . S
C1199 C1201 1.415 . S
C1200 C1199 1.355 . S
C1200 C1202 1.419 . S
C1201 C1196 1.425 . S
C1201 C1198 1.409 . S
C1201 C1199 1.415 . S
C1202 H1192 0.930 . S
C1202 C1200 1.419 . S
C1202 C1203 1.362 . S
C1203 H1193 0.930 . S
C1203 C1196 1.409 . S
C1203 C1202 1.362 . S
H1204 C1210 0.930 . S
H1205 C1213 0.930 . S
H1206 C1214 0.930 . S
H1207 C1215 0.930 . S
H1208 C1218 0.930 . S
H1209 C1219 0.930 . S
C1210 H1204 0.930 . S
C1210 C1211 1.355 . S
C1210 C1212 1.415 . S
C1211 C1210 1.355 . S
C1211 C1213 1.419 . S
C1212 C1210 1.415 . S
C1212 C1217 1.425 . S
C1212 C1219 1.409 . S
C1213 H1205 0.930 . S
C1213 C1211 1.419 . S
C1213 C1214 1.362 . S
C1214 H1206 0.930 . S
C1214 C1213 1.362 . S
C1214 C1217 1.409 . S
C1215 H1207 0.930 . S
C1215 C1216 1.355 . S
C1215 C1217 1.415 . S
C1216 C1215 1.355 . S
C1216 C1218 1.419 . S
C1217 C1212 1.425 . S
C1217 C1214 1.409 . S
C1217 C1215 1.415 . S
C1218 H1208 0.930 . S
C1218 C1216 1.419 . S
C1218 C1219 1.362 . S
C1219 H1209 0.930 . S
C1219 C1212 1.409 . S
C1219 C1218 1.362 . S
H1220 C1226 0.930 . S
H1221 C1229 0.930 . S
H1222 C1230 0.930 . S
H1223 C1231 0.930 . S
H1224 C1234 0.930 . S
H1225 C1235 0.930 . S
C1226 H1220 0.930 . S
C1226 C1227 1.355 . S
C1226 C1228 1.415 . S
C1227 C1226 1.355 . S
C1227 C1229 1.419 . S
C1228 C1226 1.415 . S
C1228 C1233 1.425 . S
C1228 C1235 1.409 . S
C1229 H1221 0.930 . S
C1229 C1227 1.419 . S
C1229 C1230 1.362 . S
C1230 H1222 0.930 . S
C1230 C1229 1.362 . S
C1230 C1233 1.409 . S
C1231 H1223 0.930 . S
C1231 C1232 1.355 . S
C1231 C1233 1.415 . S
C1232 C1231 1.355 . S
C1232 C1234 1.419 . S
C1233 C1228 1.425 . S
C1233 C1230 1.409 . S
C1233 C1231 1.415 . S
C1234 H1224 0.930 . S
C1234 C1232 1.419 . S
C1234 C1235 1.362 . S
C1235 H1225 0.930 . S
C1235 C1228 1.409 . S
C1235 C1234 1.362 . S
H1236 C1242 0.930 . S
H1237 C1245 0.930 . S
H1238 C1246 0.924 . S
H1239 C1247 0.930 . S
H1240 C1250 0.930 . S
H1241 C1251 0.937 1_455 S
C1242 H1236 0.930 . S
C1242 C1243 1.355 . S
C1242 C1244 1.415 . S
C1243 C1242 1.355 . S
C1243 C1245 1.419 . S
C1244 C1242 1.415 . S
C1244 C1249 1.425 1_455 S
C1244 C1251 1.409 1_455 S
C1245 H1237 0.930 . S
C1245 C1243 1.419 . S
C1245 C1246 1.362 . S
C1246 H1238 0.924 . S
C1246 C1245 1.362 . S
C1246 C1249 1.409 1_455 S
C1247 H1239 0.930 . S
C1247 C1248 1.355 . S
C1247 C1249 1.415 . S
C1248 C1247 1.355 . S
C1248 C1250 1.419 . S
C1249 C1244 1.425 1_655 S
C1249 C1246 1.409 1_655 S
C1249 C1247 1.415 . S
C1250 H1240 0.930 . S
C1250 C1248 1.419 . S
C1250 C1251 1.362 . S
C1251 H1241 0.937 1_655 S
C1251 C1244 1.409 1_655 S
C1251 C1250 1.362 . S
H1252 C1258 0.930 . S
H1253 C1261 0.930 . S
H1254 C1262 0.930 . S
H1255 C1263 0.930 . S
H1256 C1266 0.930 . S
H1257 C1267 0.930 . S
C1258 H1252 0.930 . S
C1258 C1259 1.355 . S
C1258 C1260 1.415 . S
C1259 C1258 1.355 . S
C1259 C1261 1.419 . S
C1260 C1258 1.415 . S
C1260 C1265 1.425 . S
C1260 C1267 1.409 . S
C1261 H1253 0.930 . S
C1261 C1259 1.419 . S
C1261 C1262 1.362 . S
C1262 H1254 0.930 . S
C1262 C1261 1.362 . S
C1262 C1265 1.409 . S
C1263 H1255 0.930 . S
C1263 C1264 1.355 . S
C1263 C1265 1.415 . S
C1264 C1263 1.355 . S
C1264 C1266 1.419 . S
C1265 C1260 1.425 . S
C1265 C1262 1.409 . S
C1265 C1263 1.415 . S
C1266 H1256 0.930 . S
C1266 C1264 1.419 . S
C1266 C1267 1.362 . S
C1267 H1257 0.930 . S
C1267 C1260 1.409 . S
C1267 C1266 1.362 . S
H1268 C1274 0.930 . S
H1269 C1277 0.930 . S
H1270 C1278 0.932 . S
H1271 C1279 0.930 . S
H1272 C1282 0.930 . S
H1273 C1283 0.932 . S
C1274 H1268 0.930 . S
C1274 C1275 1.355 . S
C1274 C1276 1.415 . S
C1275 C1274 1.355 . S
C1275 C1277 1.419 . S
C1276 C1274 1.415 . S
C1276 C1281 1.425 1_545 S
C1276 C1283 1.409 1_545 S
C1277 H1269 0.930 . S
C1277 C1275 1.419 . S
C1277 C1278 1.362 . S
C1278 H1270 0.932 . S
C1278 C1277 1.362 . S
C1278 C1281 1.409 1_545 S
C1279 H1271 0.930 . S
C1279 C1280 1.355 . S
C1279 C1281 1.415 . S
C1280 C1279 1.355 . S
C1280 C1282 1.419 . S
C1281 C1276 1.425 1_565 S
C1281 C1278 1.409 1_565 S
C1281 C1279 1.415 . S
C1282 H1272 0.930 . S
C1282 C1280 1.419 . S
C1282 C1283 1.362 . S
C1283 H1273 0.932 . S
C1283 C1276 1.409 1_565 S
C1283 C1282 1.362 . S
H1284 C1290 0.930 . S
H1285 C1293 0.930 . S
H1286 C1294 0.930 . S
H1287 C1295 0.930 . S
H1288 C1298 0.930 . S
H1289 C1299 0.930 . S
C1290 H1284 0.930 . S
C1290 C1291 1.355 . S
C1290 C1292 1.415 . S
C1291 C1290 1.355 . S
C1291 C1293 1.419 . S
C1292 C1290 1.415 . S
C1292 C1297 1.425 1_545 S
C1292 C1299 1.409 1_545 S
C1293 H1285 0.930 . S
C1293 C1291 1.419 . S
C1293 C1294 1.362 . S
C1294 H1286 0.930 . S
C1294 C1293 1.362 . S
C1294 C1297 1.409 1_545 S
C1295 H1287 0.930 . S
C1295 C1296 1.355 . S
C1295 C1297 1.415 . S
C1296 C1295 1.355 . S
C1296 C1298 1.419 . S
C1297 C1292 1.425 1_565 S
C1297 C1294 1.409 1_565 S
C1297 C1295 1.415 . S
C1298 H1288 0.930 . S
C1298 C1296 1.419 . S
C1298 C1299 1.362 . S
C1299 H1289 0.930 . S
C1299 C1292 1.409 1_565 S
C1299 C1298 1.362 . S
H1300 C1306 0.930 . S
H1301 C1309 0.930 . S
H1302 C1310 0.930 . S
H1303 C1311 0.930 . S
H1304 C1314 0.930 . S
H1305 C1315 0.930 . S
C1306 H1300 0.930 . S
C1306 C1307 1.355 . S
C1306 C1308 1.415 . S
C1307 C1306 1.355 . S
C1307 C1309 1.419 . S
C1308 C1306 1.415 . S
C1308 C1313 1.425 1_655 S
C1308 C1315 1.409 1_655 S
C1309 H1301 0.930 . S
C1309 C1307 1.419 . S
C1309 C1310 1.362 . S
C1310 H1302 0.930 . S
C1310 C1309 1.362 . S
C1310 C1313 1.409 1_655 S
C1311 H1303 0.930 . S
C1311 C1312 1.355 . S
C1311 C1313 1.415 . S
C1312 C1311 1.355 . S
C1312 C1314 1.419 . S
C1313 C1308 1.425 1_455 S
C1313 C1310 1.409 1_455 S
C1313 C1311 1.415 . S
C1314 H1304 0.930 . S
C1314 C1312 1.419 . S
C1314 C1315 1.362 . S
C1315 H1305 0.930 . S
C1315 C1308 1.409 1_455 S
C1315 C1314 1.362 . S
H1316 C1322 0.930 . S
H1317 C1325 0.930 . S
H1318 C1326 0.930 . S
H1319 C1327 0.930 . S
H1320 C1330 0.930 . S
H1321 C1331 0.930 . S
C1322 H1316 0.930 . S
C1322 C1323 1.355 . S
C1322 C1324 1.415 . S
C1323 C1322 1.355 . S
C1323 C1325 1.419 . S
C1324 C1322 1.415 . S
C1324 C1329 1.425 . S
C1324 C1331 1.409 . S
C1325 H1317 0.930 . S
C1325 C1323 1.419 . S
C1325 C1326 1.362 . S
C1326 H1318 0.930 . S
C1326 C1325 1.362 . S
C1326 C1329 1.409 . S
C1327 H1319 0.930 . S
C1327 C1328 1.355 . S
C1327 C1329 1.415 . S
C1328 C1327 1.355 . S
C1328 C1330 1.419 . S
C1329 C1324 1.425 . S
C1329 C1326 1.409 . S
C1329 C1327 1.415 . S
C1330 H1320 0.930 . S
C1330 C1328 1.419 . S
C1330 C1331 1.362 . S
C1331 H1321 0.930 . S
C1331 C1324 1.409 . S
C1331 C1330 1.362 . S
H1332 C1338 0.930 . S
H1333 C1341 0.930 . S
H1334 C1342 0.930 . S
H1335 C1343 0.930 . S
H1336 C1346 0.930 . S
H1337 C1347 0.930 . S
C1338 H1332 0.930 . S
C1338 C1339 1.355 . S
C1338 C1340 1.415 . S
C1339 C1338 1.355 . S
C1339 C1341 1.419 . S
C1340 C1338 1.415 . S
C1340 C1345 1.425 . S
C1340 C1347 1.409 . S
C1341 H1333 0.930 . S
C1341 C1339 1.419 . S
C1341 C1342 1.362 . S
C1342 H1334 0.930 . S
C1342 C1341 1.362 . S
C1342 C1345 1.409 . S
C1343 H1335 0.930 . S
C1343 C1344 1.355 . S
C1343 C1345 1.415 . S
C1344 C1343 1.355 . S
C1344 C1346 1.419 . S
C1345 C1340 1.425 . S
C1345 C1342 1.409 . S
C1345 C1343 1.415 . S
C1346 H1336 0.930 . S
C1346 C1344 1.419 . S
C1346 C1347 1.362 . S
C1347 H1337 0.930 . S
C1347 C1340 1.409 . S
C1347 C1346 1.362 . S
H1348 C1354 0.930 . S
H1349 C1357 0.930 . S
H1350 C1358 0.930 . S
H1351 C1359 0.930 . S
H1352 C1362 0.930 . S
H1353 C1363 0.930 . S
C1354 H1348 0.930 . S
C1354 C1355 1.355 . S
C1354 C1356 1.415 . S
C1355 C1354 1.355 . S
C1355 C1357 1.419 . S
C1356 C1354 1.415 . S
C1356 C1361 1.425 . S
C1356 C1363 1.409 . S
C1357 H1349 0.930 . S
C1357 C1355 1.419 . S
C1357 C1358 1.362 . S
C1358 H1350 0.930 . S
C1358 C1357 1.362 . S
C1358 C1361 1.409 . S
C1359 H1351 0.930 . S
C1359 C1360 1.355 . S
C1359 C1361 1.415 . S
C1360 C1359 1.355 . S
C1360 C1362 1.419 . S
C1361 C1356 1.425 . S
C1361 C1358 1.409 . S
C1361 C1359 1.415 . S
C1362 H1352 0.930 . S
C1362 C1360 1.419 . S
C1362 C1363 1.362 . S
C1363 H1353 0.930 . S
C1363 C1356 1.409 . S
C1363 C1362 1.362 . S
H1364 C1370 0.930 . S
H1365 C1373 0.930 . S
H1366 C1374 0.930 . S
H1367 C1375 0.930 . S
H1368 C1378 0.930 . S
H1369 C1379 0.930 . S
C1370 H1364 0.930 . S
C1370 C1371 1.355 . S
C1370 C1372 1.415 . S
C1371 C1370 1.355 . S
C1371 C1373 1.419 . S
C1372 C1370 1.415 . S
C1372 C1377 1.425 . S
C1372 C1379 1.409 . S
C1373 H1365 0.930 . S
C1373 C1371 1.419 . S
C1373 C1374 1.362 . S
C1374 H1366 0.930 . S
C1374 C1373 1.362 . S
C1374 C1377 1.409 . S
C1375 H1367 0.930 . S
C1375 C1376 1.355 . S
C1375 C1377 1.415 . S
C1376 C1375 1.355 . S
C1376 C1378 1.419 . S
C1377 C1372 1.425 . S
C1377 C1374 1.409 . S
C1377 C1375 1.415 . S
C1378 H1368 0.930 . S
C1378 C1376 1.419 . S
C1378 C1379 1.362 . S
C1379 H1369 0.930 . S
C1379 C1372 1.409 . S
C1379 C1378 1.362 . S
H1380 C1386 0.930 . S
H1381 C1389 0.930 . S
H1382 C1390 0.930 . S
H1383 C1391 0.930 . S
H1384 C1394 0.930 . S
H1385 C1395 0.930 . S
C1386 H1380 0.930 . S
C1386 C1387 1.355 . S
C1386 C1388 1.415 . S
C1387 C1386 1.355 . S
C1387 C1389 1.419 . S
C1388 C1386 1.415 . S
C1388 C1393 1.425 . S
C1388 C1395 1.409 . S
C1389 H1381 0.930 . S
C1389 C1387 1.419 . S
C1389 C1390 1.362 . S
C1390 H1382 0.930 . S
C1390 C1389 1.362 . S
C1390 C1393 1.409 . S
C1391 H1383 0.930 . S
C1391 C1392 1.355 . S
C1391 C1393 1.415 . S
C1392 C1391 1.355 . S
C1392 C1394 1.419 . S
C1393 C1388 1.425 . S
C1393 C1390 1.409 . S
C1393 C1391 1.415 . S
C1394 H1384 0.930 . S
C1394 C1392 1.419 . S
C1394 C1395 1.362 . S
C1395 H1385 0.930 . S
C1395 C1388 1.409 . S
C1395 C1394 1.362 . S
H1396 C1402 0.930 . S
H1397 C1405 0.930 . S
H1398 C1406 0.930 . S
H1399 C1407 0.930 . S
H1400 C1410 0.930 . S
H1401 C1411 0.930 . S
C1402 H1396 0.930 . S
C1402 C1403 1.355 . S
C1402 C1404 1.415 . S
C1403 C1402 1.355 . S
C1403 C1405 1.419 . S
C1404 C1402 1.415 . S
C1404 C1409 1.425 . S
C1404 C1411 1.409 . S
C1405 H1397 0.930 . S
C1405 C1403 1.419 . S
C1405 C1406 1.362 . S
C1406 H1398 0.930 . S
C1406 C1405 1.362 . S
C1406 C1409 1.409 . S
C1407 H1399 0.930 . S
C1407 C1408 1.355 . S
C1407 C1409 1.415 . S
C1408 C1407 1.355 . S
C1408 C1410 1.419 . S
C1409 C1404 1.425 . S
C1409 C1406 1.409 . S
C1409 C1407 1.415 . S
C1410 H1400 0.930 . S
C1410 C1408 1.419 . S
C1410 C1411 1.362 . S
C1411 H1401 0.930 . S
C1411 C1404 1.409 . S
C1411 C1410 1.362 . S
H1412 C1418 0.930 . S
H1413 C1421 0.930 . S
H1414 C1422 0.930 . S
H1415 C1423 0.930 . S
H1416 C1426 0.930 . S
H1417 C1427 0.930 . S
C1418 H1412 0.930 . S
C1418 C1419 1.355 . S
C1418 C1420 1.415 . S
C1419 C1418 1.355 . S
C1419 C1421 1.419 . S
C1420 C1418 1.415 . S
C1420 C1425 1.425 . S
C1420 C1427 1.409 . S
C1421 H1413 0.930 . S
C1421 C1419 1.419 . S
C1421 C1422 1.362 . S
C1422 H1414 0.930 . S
C1422 C1421 1.362 . S
C1422 C1425 1.409 . S
C1423 H1415 0.930 . S
C1423 C1424 1.355 . S
C1423 C1425 1.415 . S
C1424 C1423 1.355 . S
C1424 C1426 1.419 . S
C1425 C1420 1.425 . S
C1425 C1422 1.409 . S
C1425 C1423 1.415 . S
C1426 H1416 0.930 . S
C1426 C1424 1.419 . S
C1426 C1427 1.362 . S
C1427 H1417 0.930 . S
C1427 C1420 1.409 . S
C1427 C1426 1.362 . S
H1428 C1434 0.930 . S
H1429 C1437 0.930 . S
H1430 C1438 0.930 . S
H1431 C1439 0.930 . S
H1432 C1442 0.930 . S
H1433 C1443 0.930 . S
C1434 H1428 0.930 . S
C1434 C1435 1.355 . S
C1434 C1436 1.415 . S
C1435 C1434 1.355 . S
C1435 C1437 1.419 . S
C1436 C1434 1.415 . S
C1436 C1441 1.425 . S
C1436 C1443 1.409 . S
C1437 H1429 0.930 . S
C1437 C1435 1.419 . S
C1437 C1438 1.362 . S
C1438 H1430 0.930 . S
C1438 C1437 1.362 . S
C1438 C1441 1.409 . S
C1439 H1431 0.930 . S
C1439 C1440 1.355 . S
C1439 C1441 1.415 . S
C1440 C1439 1.355 . S
C1440 C1442 1.419 . S
C1441 C1436 1.425 . S
C1441 C1438 1.409 . S
C1441 C1439 1.415 . S
C1442 H1432 0.930 . S
C1442 C1440 1.419 . S
C1442 C1443 1.362 . S
C1443 H1433 0.930 . S
C1443 C1436 1.409 . S
C1443 C1442 1.362 . S
H1444 C1450 0.930 . S
H1445 C1453 0.930 . S
H1446 C1454 0.930 . S
H1447 C1455 0.930 . S
H1448 C1458 0.930 . S
H1449 C1459 0.930 . S
C1450 H1444 0.930 . S
C1450 C1451 1.355 . S
C1450 C1452 1.415 . S
C1451 C1450 1.355 . S
C1451 C1453 1.419 . S
C1452 C1450 1.415 . S
C1452 C1457 1.425 . S
C1452 C1459 1.409 . S
C1453 H1445 0.930 . S
C1453 C1451 1.419 . S
C1453 C1454 1.362 . S
C1454 H1446 0.930 . S
C1454 C1453 1.362 . S
C1454 C1457 1.409 . S
C1455 H1447 0.930 . S
C1455 C1456 1.355 . S
C1455 C1457 1.415 . S
C1456 C1455 1.355 . S
C1456 C1458 1.419 . S
C1457 C1452 1.425 . S
C1457 C1454 1.409 . S
C1457 C1455 1.415 . S
C1458 H1448 0.930 . S
C1458 C1456 1.419 . S
C1458 C1459 1.362 . S
C1459 H1449 0.930 . S
C1459 C1452 1.409 . S
C1459 C1458 1.362 . S
H1460 C1466 0.930 . S
H1461 C1469 0.930 . S
H1462 C1470 0.930 . S
H1463 C1471 0.930 . S
H1464 C1474 0.930 . S
H1465 C1475 0.930 . S
C1466 H1460 0.930 . S
C1466 C1467 1.355 . S
C1466 C1468 1.415 . S
C1467 C1466 1.355 . S
C1467 C1469 1.419 . S
C1468 C1466 1.415 . S
C1468 C1473 1.425 . S
C1468 C1475 1.409 . S
C1469 H1461 0.930 . S
C1469 C1467 1.419 . S
C1469 C1470 1.362 . S
C1470 H1462 0.930 . S
C1470 C1469 1.362 . S
C1470 C1473 1.409 . S
C1471 H1463 0.930 . S
C1471 C1472 1.355 . S
C1471 C1473 1.415 . S
C1472 C1471 1.355 . S
C1472 C1474 1.419 . S
C1473 C1468 1.425 . S
C1473 C1470 1.409 . S
C1473 C1471 1.415 . S
C1474 H1464 0.930 . S
C1474 C1472 1.419 . S
C1474 C1475 1.362 . S
C1475 H1465 0.930 . S
C1475 C1468 1.409 . S
C1475 C1474 1.362 . S
H1476 C1482 0.930 1_556 S
H1477 C1485 0.930 . S
H1478 C1486 0.930 . S
H1479 C1487 0.930 . S
H1480 C1490 0.930 . S
H1481 C1491 0.930 . S
C1482 H1476 0.930 1_554 S
C1482 C1483 1.355 . S
C1482 C1484 1.415 . S
C1483 C1482 1.355 . S
C1483 C1485 1.419 . S
C1484 C1482 1.415 . S
C1484 C1489 1.425 . S
C1484 C1491 1.409 1_554 S
C1485 H1477 0.930 . S
C1485 C1483 1.419 . S
C1485 C1486 1.362 . S
C1486 H1478 0.930 . S
C1486 C1485 1.362 . S
C1486 C1489 1.409 . S
C1487 H1479 0.930 . S
C1487 C1488 1.355 . S
C1487 C1489 1.415 . S
C1488 C1487 1.355 . S
C1488 C1490 1.419 1_554 S
C1489 C1484 1.425 . S
C1489 C1486 1.409 . S
C1489 C1487 1.415 . S
C1490 H1480 0.930 . S
C1490 C1488 1.419 1_556 S
C1490 C1491 1.362 . S
C1491 H1481 0.930 . S
C1491 C1484 1.409 1_556 S
C1491 C1490 1.362 . S
H1492 C1498 0.930 . S
H1493 C1501 0.930 . S
H1494 C1502 0.930 . S
H1495 C1503 0.930 . S
H1496 C1506 0.930 . S
H1497 C1507 0.930 . S
C1498 H1492 0.930 . S
C1498 C1499 1.355 . S
C1498 C1500 1.415 . S
C1499 C1498 1.355 . S
C1499 C1501 1.419 . S
C1500 C1498 1.415 . S
C1500 C1505 1.425 . S
C1500 C1507 1.409 . S
C1501 H1493 0.930 . S
C1501 C1499 1.419 . S
C1501 C1502 1.362 . S
C1502 H1494 0.930 . S
C1502 C1501 1.362 . S
C1502 C1505 1.409 . S
C1503 H1495 0.930 . S
C1503 C1504 1.355 . S
C1503 C1505 1.415 . S
C1504 C1503 1.355 . S
C1504 C1506 1.419 . S
C1505 C1500 1.425 . S
C1505 C1502 1.409 . S
C1505 C1503 1.415 . S
C1506 H1496 0.930 . S
C1506 C1504 1.419 . S
C1506 C1507 1.362 . S
C1507 H1497 0.930 . S
C1507 C1500 1.409 . S
C1507 C1506 1.362 . S
H1508 C1514 0.930 . S
H1509 C1517 0.930 . S
H1510 C1518 0.930 . S
H1511 C1519 0.930 . S
H1512 C1522 0.930 . S
H1513 C1523 0.930 . S
C1514 H1508 0.930 . S
C1514 C1515 1.355 . S
C1514 C1516 1.415 . S
C1515 C1514 1.355 . S
C1515 C1517 1.419 . S
C1516 C1514 1.415 . S
C1516 C1521 1.425 . S
C1516 C1523 1.409 . S
C1517 H1509 0.930 . S
C1517 C1515 1.419 . S
C1517 C1518 1.362 . S
C1518 H1510 0.930 . S
C1518 C1517 1.362 . S
C1518 C1521 1.409 . S
C1519 H1511 0.930 . S
C1519 C1520 1.355 . S
C1519 C1521 1.415 . S
C1520 C1519 1.355 . S
C1520 C1522 1.419 . S
C1521 C1516 1.425 . S
C1521 C1518 1.409 . S
C1521 C1519 1.415 . S
C1522 H1512 0.930 . S
C1522 C1520 1.419 . S
C1522 C1523 1.362 . S
C1523 H1513 0.930 . S
C1523 C1516 1.409 . S
C1523 C1522 1.362 . S
H1524 C1530 0.930 1_554 S
H1525 C1533 0.930 . S
H1526 C1534 0.930 . S
H1527 C1535 0.930 . S
H1528 C1538 0.930 . S
H1529 C1539 0.930 . S
C1530 H1524 0.930 1_556 S
C1530 C1531 1.355 . S
C1530 C1532 1.415 . S
C1531 C1530 1.355 . S
C1531 C1533 1.419 . S
C1532 C1530 1.415 . S
C1532 C1537 1.425 . S
C1532 C1539 1.409 1_556 S
C1533 H1525 0.930 . S
C1533 C1531 1.419 . S
C1533 C1534 1.362 . S
C1534 H1526 0.930 . S
C1534 C1533 1.362 . S
C1534 C1537 1.409 . S
C1535 H1527 0.930 . S
C1535 C1536 1.355 . S
C1535 C1537 1.415 . S
C1536 C1535 1.355 . S
C1536 C1538 1.419 1_556 S
C1537 C1532 1.425 . S
C1537 C1534 1.409 . S
C1537 C1535 1.415 . S
C1538 H1528 0.930 . S
C1538 C1536 1.419 1_554 S
C1538 C1539 1.362 . S
C1539 H1529 0.930 . S
C1539 C1532 1.409 1_554 S
C1539 C1538 1.362 . S
H1540 C1546 0.930 . S
H1541 C1549 0.930 1_554 S
H1542 C1550 0.930 . S
H1543 C1551 0.930 1_554 S
H1544 C1554 0.930 . S
H1545 C1555 0.930 . S
C1546 H1540 0.930 . S
C1546 C1547 1.355 . S
C1546 C1548 1.415 . S
C1547 C1546 1.355 . S
C1547 C1549 1.419 . S
C1548 C1546 1.415 . S
C1548 C1553 1.425 . S
C1548 C1555 1.409 . S
C1549 H1541 0.930 1_556 S
C1549 C1547 1.419 . S
C1549 C1550 1.362 1_556 S
C1550 H1542 0.930 . S
C1550 C1549 1.362 1_554 S
C1550 C1553 1.409 1_554 S
C1551 H1543 0.930 1_556 S
C1551 C1552 1.355 . S
C1551 C1553 1.415 . S
C1552 C1551 1.355 . S
C1552 C1554 1.419 . S
C1553 C1548 1.425 . S
C1553 C1550 1.409 1_556 S
C1553 C1551 1.415 . S
C1554 H1544 0.930 . S
C1554 C1552 1.419 . S
C1554 C1555 1.362 . S
C1555 H1545 0.930 . S
C1555 C1548 1.409 . S
C1555 C1554 1.362 . S
H1556 C1562 0.930 . S
H1557 C1565 0.930 . S
H1558 C1566 0.930 . S
H1559 C1567 0.930 1_554 S
H1560 C1570 0.930 . S
H1561 C1571 0.930 . S
C1562 H1556 0.930 . S
C1562 C1563 1.355 . S
C1562 C1564 1.415 . S
C1563 C1562 1.355 . S
C1563 C1565 1.419 1_556 S
C1564 C1562 1.415 . S
C1564 C1569 1.425 . S
C1564 C1571 1.409 . S
C1565 H1557 0.930 . S
C1565 C1563 1.419 1_554 S
C1565 C1566 1.362 . S
C1566 H1558 0.930 . S
C1566 C1565 1.362 . S
C1566 C1569 1.409 1_554 S
C1567 H1559 0.930 1_556 S
C1567 C1568 1.355 . S
C1567 C1569 1.415 . S
C1568 C1567 1.355 . S
C1568 C1570 1.419 . S
C1569 C1564 1.425 . S
C1569 C1566 1.409 1_556 S
C1569 C1567 1.415 . S
C1570 H1560 0.930 . S
C1570 C1568 1.419 . S
C1570 C1571 1.362 . S
C1571 H1561 0.930 . S
C1571 C1564 1.409 . S
C1571 C1570 1.362 . S
H1572 C1578 0.930 . S
H1573 C1581 0.930 . S
H1574 C1582 0.930 . S
H1575 C1583 0.930 . S
H1576 C1586 0.930 . S
H1577 C1587 0.930 . S
C1578 H1572 0.930 . S
C1578 C1579 1.355 . S
C1578 C1580 1.415 . S
C1579 C1578 1.355 . S
C1579 C1581 1.419 . S
C1580 C1578 1.415 . S
C1580 C1585 1.425 . S
C1580 C1587 1.409 . S
C1581 H1573 0.930 . S
C1581 C1579 1.419 . S
C1581 C1582 1.362 . S
C1582 H1574 0.930 . S
C1582 C1581 1.362 . S
C1582 C1585 1.409 . S
C1583 H1575 0.930 . S
C1583 C1584 1.355 . S
C1583 C1585 1.415 . S
C1584 C1583 1.355 . S
C1584 C1586 1.419 . S
C1585 C1580 1.425 . S
C1585 C1582 1.409 . S
C1585 C1583 1.415 . S
C1586 H1576 0.930 . S
C1586 C1584 1.419 . S
C1586 C1587 1.362 . S
C1587 H1577 0.930 . S
C1587 C1580 1.409 . S
C1587 C1586 1.362 . S
H1588 C1594 0.930 . S
H1589 C1597 0.930 . S
H1590 C1598 0.930 . S
H1591 C1599 0.930 . S
H1592 C1602 0.930 . S
H1593 C1603 0.930 . S
C1594 H1588 0.930 . S
C1594 C1595 1.355 . S
C1594 C1596 1.415 . S
C1595 C1594 1.355 . S
C1595 C1597 1.419 . S
C1596 C1594 1.415 . S
C1596 C1601 1.425 . S
C1596 C1603 1.409 . S
C1597 H1589 0.930 . S
C1597 C1595 1.419 . S
C1597 C1598 1.362 . S
C1598 H1590 0.930 . S
C1598 C1597 1.362 . S
C1598 C1601 1.409 . S
C1599 H1591 0.930 . S
C1599 C1600 1.355 . S
C1599 C1601 1.415 . S
C1600 C1599 1.355 . S
C1600 C1602 1.419 . S
C1601 C1596 1.425 . S
C1601 C1598 1.409 . S
C1601 C1599 1.415 . S
C1602 H1592 0.930 . S
C1602 C1600 1.419 . S
C1602 C1603 1.362 . S
C1603 H1593 0.930 . S
C1603 C1596 1.409 . S
C1603 C1602 1.362 . S
H1604 C1610 0.930 . S
H1605 C1613 0.930 . S
H1606 C1614 0.930 . S
H1607 C1615 0.930 . S
H1608 C1618 0.930 . S
H1609 C1619 0.930 . S
C1610 H1604 0.930 . S
C1610 C1611 1.355 . S
C1610 C1612 1.415 . S
C1611 C1610 1.355 . S
C1611 C1613 1.419 . S
C1612 C1610 1.415 . S
C1612 C1617 1.425 . S
C1612 C1619 1.409 . S
C1613 H1605 0.930 . S
C1613 C1611 1.419 . S
C1613 C1614 1.362 . S
C1614 H1606 0.930 . S
C1614 C1613 1.362 . S
C1614 C1617 1.409 . S
C1615 H1607 0.930 . S
C1615 C1616 1.355 . S
C1615 C1617 1.415 . S
C1616 C1615 1.355 . S
C1616 C1618 1.419 . S
C1617 C1612 1.425 . S
C1617 C1614 1.409 . S
C1617 C1615 1.415 . S
C1618 H1608 0.930 . S
C1618 C1616 1.419 . S
C1618 C1619 1.362 . S
C1619 H1609 0.930 . S
C1619 C1612 1.409 . S
C1619 C1618 1.362 . S
C475 C75 1.639 . S
C480 C10 1.639 . S
C491 C43 1.623 . S
C496 C23 1.645 . S
C507 C30 1.638 . S
C512 C62 1.613 . S
C523 C82 1.645 . S
C528 C147 1.624 . S
C539 C101 1.614 . S
C544 C121 1.640 . S
C555 C140 1.617 . S
C560 C114 1.643 . S
C571 C160 1.636 . S
C576 C225 1.612 . S
C587 C173 1.641 . S
C592 C199 1.637 . S
C603 C192 1.616 . S
C608 C218 1.641 . S
C619 C309 1.636 . S
C624 C244 1.642 . S
C635 C257 1.632 . S
C640 C283 1.610 . S
C651 C290 1.635 . S
C656 C264 1.643 . S
C667 C381 1.614 . S
C672 C316 1.618 . S
C683 C355 1.639 . S
C688 C335 1.613 . S
C699 C368 1.625 . S
C704 C348 1.611 . S
C715 C400 1.611 . S
C720 C465 1.624 . S
C731 C413 1.637 . S
C736 C439 1.642 . S
C747 C426 1.611 . S
C752 C446 1.627 . S
C763 C69 1.497 . S
C768 C4 1.499 . S
C779 C17 1.504 . S
C784 C49 1.502 . S
C795 C56 1.493 . S
C800 C36 1.493 . S
C811 C88 1.494 . S
C816 C153 1.495 . S
C827 C95 1.502 . S
C832 C127 1.504 . S
C843 C134 1.502 . S
C848 C108 1.504 . S
C859 C166 1.496 . S
C864 C231 1.499 . S
C875 C205 1.493 . S
C880 C179 1.493 . S
C891 C212 1.493 . S
C896 C186 1.494 . S
C907 C238 1.503 . S
C912 C303 1.504 . S
C923 C251 1.493 . S
C928 C277 1.493 . S
C939 C296 1.493 . S
C944 C270 1.494 . S
C955 C387 1.496 . S
C960 C322 1.498 . S
C971 C329 1.504 . S
C976 C361 1.503 . S
C987 C342 1.504 . S
C992 C374 1.502 . S
C1003 C459 1.501 . S
C1008 C394 1.498 . S
C1019 C433 1.502 . S
C1024 C407 1.503 . S
C1035 C452 1.493 . S
C1040 C420 1.494 . S
C1051 C211 1.704 . S
C1056 C3 1.710 . S
C1067 C226 1.702 . S
C1072 C16 1.711 . S
C1083 C200 1.710 . S
C1088 C31 1.700 . S
C1099 C44 1.704 . S
C1104 C341 1.702 . S
C1115 C55 1.707 . S
C1120 C317 1.700 . S
C1131 C68 1.709 . S
C1136 C328 1.699 . S
C1147 C83 1.703 . S
C1152 C447 1.711 . S
C1163 C94 1.701 . S
C1168 C458 1.711 . S
C1179 C107 1.710 . S
C1184 C432 1.705 . S
C1195 C122 1.708 . S
C1200 C265 1.707 . S
C1211 C237 1.708 . S
C1216 C133 1.700 . S
C1227 C250 1.700 . S
C1232 C148 1.708 . S
C1243 C369 1.705 . S
C1248 C161 1.702 . S
C1259 C174 1.704 . S
C1264 C382 1.710 . S
C1275 C185 1.700 . S
C1280 C356 1.709 . S
C1291 C276 1.700 . S
C1296 C419 1.710 . S
C1307 C291 1.701 . S
C1312 C393 1.711 . S
C1323 C406 1.701 . S
C1328 C302 1.711 . S
C1339 C5 1.343 . S
C1344 C135 1.356 . S
C1355 C146 1.361 . S
C1360 C18 1.337 . S
C1371 C120 1.361 . S
C1376 C29 1.338 . S
C1387 C42 1.341 . S
C1392 C109 1.358 . S
C1403 C57 1.361 . S
C1408 C81 1.338 . S
C1419 C70 1.340 . S
C1424 C96 1.359 . S
C1435 C159 1.337 . S
C1440 C289 1.361 . S
C1451 C304 1.342 . S
C1456 C172 1.357 . S
C1467 C278 1.359 . S
C1472 C187 1.339 . S
C1483 C198 1.339 . S
C1488 C263 1.359 . S
C1499 C213 1.361 . S
C1504 C239 1.338 . S
C1515 C252 1.356 . S
C1520 C224 1.342 . S
C1531 C315 1.337 . S
C1536 C445 1.361 . S
C1547 C460 1.359 . S
C1552 C330 1.340 . S
C1563 C343 1.351 . S
C1568 C434 1.347 . S
C1579 C354 1.339 . S
C1584 C421 1.359 . S
C1595 C395 1.346 . S
C1600 C367 1.353 . S
C1611 C380 1.338 . S
C1616 C408 1.361 . S
