# Generated by pormake.
# Topology vmn, (7)-cn, num edge types: 1
# Building blocks:
#     Node 0, Type 0, BuildingBlock: HICVOG_clean_sbu_0, # of connection points: 7
#     Node 1, Type 0, BuildingBlock: HICVOG_clean_sbu_0, # of connection points: 7
#     Node 2, Type 0, BuildingBlock: HICVOG_clean_sbu_0, # of connection points: 7
#     Node 3, Type 0, BuildingBlock: HICVOG_clean_sbu_0, # of connection points: 7
#     Node 4, Type 0, BuildingBlock: HICVOG_clean_sbu_0, # of connection points: 7
#     Node 5, Type 0, BuildingBlock: HICVOG_clean_sbu_0, # of connection points: 7
#     Node 6, Type 0, BuildingBlock: HICVOG_clean_sbu_0, # of connection points: 7
#     Node 7, Type 0, BuildingBlock: HICVOG_clean_sbu_0, # of connection points: 7
#     Edge 8, Type (0, 0), BuildingBlock: XIVTED_clean_linker_0, # of connection points: 2
#     Edge 9, Type (0, 0), BuildingBlock: XIVTED_clean_linker_0, # of connection points: 2
#     Edge 10, Type (0, 0), BuildingBlock: XIVTED_clean_linker_0, # of connection points: 2
#     Edge 11, Type (0, 0), BuildingBlock: XIVTED_clean_linker_0, # of connection points: 2
#     Edge 12, Type (0, 0), BuildingBlock: XIVTED_clean_linker_0, # of connection points: 2
#     Edge 13, Type (0, 0), BuildingBlock: XIVTED_clean_linker_0, # of connection points: 2
#     Edge 14, Type (0, 0), BuildingBlock: XIVTED_clean_linker_0, # of connection points: 2
#     Edge 15, Type (0, 0), BuildingBlock: XIVTED_clean_linker_0, # of connection points: 2
#     Edge 16, Type (0, 0), BuildingBlock: XIVTED_clean_linker_0, # of connection points: 2
#     Edge 17, Type (0, 0), BuildingBlock: XIVTED_clean_linker_0, # of connection points: 2
#     Edge 18, Type (0, 0), BuildingBlock: XIVTED_clean_linker_0, # of connection points: 2
#     Edge 19, Type (0, 0), BuildingBlock: XIVTED_clean_linker_0, # of connection points: 2
#     Edge 20, Type (0, 0), BuildingBlock: XIVTED_clean_linker_0, # of connection points: 2
#     Edge 21, Type (0, 0), BuildingBlock: XIVTED_clean_linker_0, # of connection points: 2
#     Edge 22, Type (0, 0), BuildingBlock: XIVTED_clean_linker_0, # of connection points: 2
#     Edge 23, Type (0, 0), BuildingBlock: XIVTED_clean_linker_0, # of connection points: 2
#     Edge 24, Type (0, 0), BuildingBlock: XIVTED_clean_linker_0, # of connection points: 2
#     Edge 25, Type (0, 0), BuildingBlock: XIVTED_clean_linker_0, # of connection points: 2
#     Edge 26, Type (0, 0), BuildingBlock: XIVTED_clean_linker_0, # of connection points: 2
#     Edge 27, Type (0, 0), BuildingBlock: XIVTED_clean_linker_0, # of connection points: 2
#     Edge 28, Type (0, 0), BuildingBlock: XIVTED_clean_linker_0, # of connection points: 2
#     Edge 29, Type (0, 0), BuildingBlock: XIVTED_clean_linker_0, # of connection points: 2
#     Edge 30, Type (0, 0), BuildingBlock: XIVTED_clean_linker_0, # of connection points: 2
#     Edge 31, Type (0, 0), BuildingBlock: XIVTED_clean_linker_0, # of connection points: 2
#     Edge 32, Type (0, 0), BuildingBlock: XIVTED_clean_linker_0, # of connection points: 2
#     Edge 33, Type (0, 0), BuildingBlock: XIVTED_clean_linker_0, # of connection points: 2
#     Edge 34, Type (0, 0), BuildingBlock: XIVTED_clean_linker_0, # of connection points: 2
#     Edge 35, Type (0, 0), BuildingBlock: XIVTED_clean_linker_0, # of connection points: 2
# Relax obj value: 0.162
# Max RMSD: 0.218
# Mean RMSD: 0.218
data_MOF--net-vmn--node1-HICVOG_clean_sbu_0--edge1-XIVTED_clean_linker_0
_symmetry_space_group_name_H-M    P1
_symmetry_Int_Tables_number       1
_symmetry_cell_setting            triclinic
loop_
_symmetry_equiv_pos_as_xyz
'x, y, z'
_cell_length_a     39.399998
_cell_length_b     31.619061
_cell_length_c     28.929169
_cell_angle_alpha  89.870051
_cell_angle_beta   98.229428
_cell_angle_gamma 89.849266
loop_
_atom_site_label
_atom_site_type_symbol
_atom_site_fract_x
_atom_site_fract_y
_atom_site_fract_z
_atom_type_partial_charge
Zn0 Zn 0.95863 0.35934 0.18419 0.0
C1 C 1.00667 0.34402 0.31523 0.0
N2 N 0.99489 0.3836 0.31996 0.0
C3 C 0.98104 0.39362 0.27628 0.0
N4 N 0.98384 0.36159 0.24639 0.0
N5 N 1.00094 0.33048 0.27028 0.0
C6 C 0.01498 0.21036 0.26534 0.0
O7 O 0.98506 0.22477 0.24555 0.0
O8 O 0.96272 0.41419 0.15209 0.0
Zn9 Zn 0.0339 0.29471 0.24228 0.0
N10 N 0.91058 0.34701 0.18632 0.0
C11 C 0.86729 0.3248 0.23033 0.0
C12 C 0.90148 0.33387 0.22755 0.0
C13 C 0.88677 0.35128 0.14742 0.0
N14 N 0.84356 0.32894 0.19168 0.0
C15 C 0.85204 0.3418 0.14982 0.0
O16 O 0.02397 0.28549 0.17103 0.0
C17 C 1.0018 0.2953 0.13604 0.0
O18 O 0.97689 0.3198 0.14024 0.0
H19 H 0.92065 0.33048 0.25805 0.0
H20 H 0.89502 0.3624 0.11549 0.0
C21 C 0.10833 0.3059 0.2554 0.0
C22 C 0.13846 0.33061 0.26146 0.0
C23 C 0.10432 0.39258 0.26192 0.0
C24 C 0.07478 0.36815 0.2552 0.0
N25 N 0.07718 0.32535 0.25257 0.0
N26 N 0.1353 0.37335 0.26482 0.0
H27 H 0.1094 0.2718 0.25314 0.0
C28 C 0.99251 0.41992 0.14134 0.0
O29 O 0.01717 0.39337 0.15726 0.0
O30 O 0.04033 0.2356 0.2709 0.0
H31 H 0.0501 0.38339 0.25184 0.0
H32 H 0.85962 0.31442 0.26295 0.0
H33 H 0.10267 0.42664 0.26434 0.0
Zn34 Zn 0.55617 0.35832 0.84102 0.0
C35 C 0.51019 0.34668 0.70924 0.0
N36 N 0.52087 0.38697 0.70628 0.0
C37 C 0.53346 0.39617 0.75064 0.0
N38 N 0.5308 0.36287 0.77912 0.0
N39 N 0.51501 0.33191 0.75381 0.0
C40 C 0.50002 0.20996 0.75661 0.0
O41 O 0.53081 0.2228 0.77443 0.0
O42 O 0.55297 0.41247 0.87436 0.0
Zn43 Zn 0.48135 0.29564 0.78018 0.0
N44 N 0.60403 0.34506 0.83845 0.0
C45 C 0.64698 0.32103 0.79478 0.0
C46 C 0.61285 0.33077 0.79756 0.0
C47 C 0.62802 0.34986 0.877 0.0
N48 N 0.6709 0.32567 0.83312 0.0
C49 C 0.66267 0.33969 0.87465 0.0
O50 O 0.49007 0.28603 0.85144 0.0
C51 C 0.51202 0.2945 0.88703 0.0
O52 O 0.53755 0.31813 0.88392 0.0
H53 H 0.59351 0.327 0.76734 0.0
H54 H 0.61997 0.36192 0.90864 0.0
C55 C 0.40712 0.3059 0.77224 0.0
C56 C 0.37641 0.32973 0.76622 0.0
C57 C 0.40824 0.39115 0.75308 0.0
C58 C 0.43835 0.36757 0.75924 0.0
N59 N 0.43742 0.32546 0.76857 0.0
N60 N 0.37814 0.37181 0.75681 0.0
H61 H 0.40725 0.27262 0.78098 0.0
C62 C 0.52366 0.41825 0.88672 0.0
O63 O 0.49872 0.39189 0.87205 0.0
O64 O 0.47537 0.23642 0.75229 0.0
H65 H 0.46228 0.38307 0.75717 0.0
H66 H 0.65444 0.30973 0.76242 0.0
H67 H 0.40878 0.42469 0.74577 0.0
Zn68 Zn 0.98447 0.74472 0.78325 0.0
C69 C 0.03749 0.64603 0.74943 0.0
N70 N 0.02436 0.65654 0.70559 0.0
C71 C 0.01271 0.69619 0.71042 0.0
N72 N 0.0178 0.70927 0.75554 0.0
N73 N 0.0344 0.67785 0.7795 0.0
C74 C 0.02523 0.61855 0.88357 0.0
O75 O 1.00056 0.64506 0.86758 0.0
O76 O 0.97763 0.80427 0.75589 0.0
Zn77 Zn 0.05928 0.67976 0.84192 0.0
N78 N 0.94117 0.71416 0.7721 0.0
C79 C 0.91363 0.64729 0.76091 0.0
C80 C 0.94332 0.67142 0.76827 0.0
C81 C 0.91013 0.7338 0.76983 0.0
N82 N 0.88276 0.66672 0.75856 0.0
C83 C 0.87985 0.70938 0.76311 0.0
O84 O 0.04078 0.71892 0.88612 0.0
C85 C 0.01569 0.74329 0.88977 0.0
O86 O 0.99392 0.75314 0.85439 0.0
H87 H 0.96792 0.656 0.77118 0.0
H88 H 0.90926 0.76783 0.77302 0.0
C89 C 0.13084 0.68841 0.87956 0.0
C90 C 0.1656 0.69818 0.87773 0.0
C91 C 0.15098 0.71471 0.79699 0.0
C92 C 0.11675 0.70538 0.79924 0.0
N93 N 0.10733 0.69234 0.84031 0.0
N94 N 0.17441 0.71094 0.83602 0.0
H95 H 0.12232 0.67734 0.91134 0.0
C96 C 1.00222 0.83064 0.76014 0.0
O97 O 0.03306 0.8176 0.77779 0.0
O98 O 0.05513 0.62463 0.87335 0.0
H99 H 0.09782 0.70851 0.76845 0.0
H100 H 0.91507 0.61329 0.75754 0.0
H101 H 0.15891 0.72502 0.76451 0.0
Zn102 Zn 0.5381 0.74686 0.24396 0.0
C103 C 0.48629 0.64649 0.2753 0.0
N104 N 0.49918 0.65599 0.31946 0.0
C105 C 0.50988 0.69623 0.31602 0.0
N106 N 0.50477 0.71065 0.2713 0.0
N107 N 0.48877 0.67956 0.24645 0.0
C108 C 0.49611 0.62423 0.13866 0.0
O109 O 0.52085 0.65095 0.15302 0.0
O110 O 0.54424 0.8061 0.27153 0.0
Zn111 Zn 0.46314 0.68353 0.18478 0.0
N112 N 0.58205 0.71705 0.25522 0.0
C113 C 0.6106 0.65095 0.27036 0.0
C114 C 0.58066 0.67477 0.26324 0.0
C115 C 0.61268 0.73657 0.25345 0.0
N116 N 0.64102 0.67024 0.26866 0.0
C117 C 0.64328 0.71245 0.26023 0.0
O118 O 0.48094 0.72398 0.14159 0.0
C119 C 0.5063 0.74764 0.13759 0.0
O120 O 0.52877 0.75622 0.17258 0.0
H121 H 0.55649 0.65944 0.26392 0.0
H122 H 0.61297 0.77027 0.24716 0.0
C123 C 0.39147 0.69134 0.14864 0.0
C124 C 0.35668 0.70086 0.15072 0.0
C125 C 0.37164 0.7182 0.23108 0.0
C126 C 0.40593 0.70913 0.22856 0.0
N127 N 0.41518 0.69582 0.18753 0.0
N128 N 0.348 0.71391 0.19237 0.0
H129 H 0.3999 0.68003 0.11693 0.0
C130 C 0.51954 0.83249 0.26684 0.0
O131 O 0.48882 0.81951 0.24889 0.0
O132 O 0.46687 0.62948 0.15145 0.0
H133 H 0.42506 0.71265 0.25906 0.0
H134 H 0.60971 0.6173 0.27689 0.0
H135 H 0.36383 0.72872 0.26353 0.0
Zn136 Zn 0.46193 0.85809 0.68407 0.0
C137 C 0.50966 0.84745 0.81538 0.0
N138 N 0.49915 0.8879 0.81798 0.0
C139 C 0.48574 0.89675 0.77377 0.0
N140 N 0.48771 0.86305 0.74569 0.0
N141 N 0.50388 0.83219 0.77114 0.0
C142 C 0.51762 0.70945 0.76794 0.0
O143 O 0.48698 0.72265 0.74961 0.0
O144 O 0.46451 0.91216 0.65028 0.0
Zn145 Zn 0.53701 0.79497 0.74478 0.0
N146 N 0.41419 0.84482 0.68713 0.0
C147 C 0.37137 0.82136 0.73128 0.0
C148 C 0.40546 0.83097 0.72829 0.0
C149 C 0.39015 0.84932 0.64853 0.0
N150 N 0.3474 0.82573 0.69289 0.0
C151 C 0.35554 0.83931 0.65111 0.0
O152 O 0.52836 0.7859 0.6735 0.0
C153 C 0.50629 0.79441 0.63796 0.0
O154 O 0.48058 0.8179 0.64113 0.0
H155 H 0.42484 0.82747 0.75855 0.0
H156 H 0.39813 0.86107 0.61668 0.0
C157 C 0.61187 0.80308 0.75928 0.0
C158 C 0.64263 0.82655 0.76701 0.0
C159 C 0.61005 0.88956 0.76968 0.0
C160 C 0.57993 0.86637 0.76149 0.0
N161 N 0.58119 0.82366 0.75688 0.0
N162 N 0.64053 0.86922 0.7722 0.0
H163 H 0.61209 0.76907 0.75549 0.0
C164 C 0.49366 0.91783 0.63745 0.0
O165 O 0.51876 0.89141 0.65194 0.0
O166 O 0.54233 0.73563 0.77271 0.0
H167 H 0.55568 0.88241 0.75867 0.0
H168 H 0.36398 0.81041 0.76385 0.0
H169 H 0.60926 0.92355 0.77364 0.0
Zn170 Zn 0.98775 0.79348 0.28298 0.0
C171 C 0.03292 0.89693 0.24881 0.0
N172 N 0.0186 0.88605 0.20563 0.0
C173 C 0.01128 0.84483 0.21024 0.0
N174 N 0.01945 0.83103 0.25485 0.0
N175 N 0.03438 0.86363 0.27837 0.0
C176 C 0.02676 0.92857 0.37649 0.0
O177 O 1.00162 0.90279 0.36104 0.0
O178 O 0.98538 0.73276 0.2577 0.0
Zn179 Zn 0.05988 0.86303 0.34063 0.0
N180 N 0.94284 0.82106 0.26985 0.0
C181 C 0.9137 0.88737 0.2645 0.0
C182 C 0.94389 0.86397 0.27194 0.0
C183 C 0.91223 0.80041 0.26154 0.0
N184 N 0.88327 0.86691 0.25691 0.0
C185 C 0.88137 0.82394 0.2557 0.0
O186 O 0.04087 0.82624 0.38677 0.0
C187 C 0.01677 0.80048 0.3904 0.0
O188 O 0.99667 0.78794 0.3546 0.0
H189 H 0.96806 0.87994 0.27982 0.0
H190 H 0.9119 0.76634 0.25969 0.0
C191 C 0.13152 0.85254 0.37792 0.0
C192 C 0.16608 0.84162 0.37587 0.0
C193 C 0.15062 0.82374 0.29574 0.0
C194 C 0.1166 0.83431 0.29817 0.0
N195 N 0.10769 0.84854 0.33904 0.0
N196 N 0.17437 0.82763 0.33437 0.0
H197 H 0.12346 0.8646 0.40955 0.0
C198 C 0.9687 0.70689 0.27979 0.0
O199 O 0.95448 0.72107 0.31514 0.0
O200 O 0.05691 0.91963 0.369 0.0
H201 H 0.09743 0.83124 0.26767 0.0
H202 H 0.91437 0.92156 0.26575 0.0
H203 H 0.15814 0.81246 0.26341 0.0
Zn204 Zn 0.48191 0.24752 0.28096 0.0
C205 C 0.53267 0.14586 0.24989 0.0
N206 N 0.51904 0.15517 0.20589 0.0
C207 C 0.50861 0.1956 0.20911 0.0
N208 N 0.51466 0.21037 0.25355 0.0
N209 N 0.5309 0.17925 0.27844 0.0
C210 C 0.52468 0.12381 0.38632 0.0
O211 O 0.49981 0.15068 0.3723 0.0
O212 O 0.47624 0.30688 0.25329 0.0
Zn213 Zn 0.55688 0.1833 0.33987 0.0
N214 N 0.43778 0.21872 0.26965 0.0
C215 C 0.40934 0.15243 0.25833 0.0
C216 C 0.43931 0.17597 0.26592 0.0
C217 C 0.40699 0.23907 0.2669 0.0
N218 N 0.37874 0.17253 0.25545 0.0
C219 C 0.37637 0.21527 0.25973 0.0
O220 O 0.53896 0.22346 0.38326 0.0
C221 C 0.51368 0.24738 0.38733 0.0
O222 O 0.49127 0.25644 0.35234 0.0
H223 H 0.46366 0.1602 0.26894 0.0
H224 H 0.40654 0.27314 0.26997 0.0
C225 C 0.62833 0.19182 0.37579 0.0
C226 C 0.66304 0.20155 0.37371 0.0
C227 C 0.64806 0.21823 0.29306 0.0
C228 C 0.61384 0.20895 0.29558 0.0
N229 N 0.60465 0.19589 0.33677 0.0
N230 N 0.67167 0.21437 0.33191 0.0
H231 H 0.61993 0.18067 0.40761 0.0
C232 C 0.50093 0.33309 0.25825 0.0
O233 O 0.53158 0.31984 0.27652 0.0
O234 O 0.55379 0.1291 0.37324 0.0
H235 H 0.59472 0.21212 0.26498 0.0
H236 H 0.41036 0.11839 0.25508 0.0
H237 H 0.65584 0.22857 0.26049 0.0
Zn238 Zn 0.03394 0.24531 0.74399 0.0
C239 C 0.98241 0.14383 0.77367 0.0
N240 N 0.99493 0.15334 0.81797 0.0
C241 C 1.0055 0.19365 0.81476 0.0
N242 N 1.00064 0.20814 0.77007 0.0
N243 N 0.98503 0.17695 0.7449 0.0
C244 C 0.99297 0.12146 0.63728 0.0
O245 O 0.01787 0.1474 0.65333 0.0
O246 O 0.03635 0.30602 0.76999 0.0
Zn247 Zn 0.95983 0.18086 0.68284 0.0
N248 N 0.07849 0.21647 0.7584 0.0
C249 C 0.10614 0.14944 0.77089 0.0
C250 C 0.07649 0.17377 0.76296 0.0
C251 C 0.10963 0.23584 0.76097 0.0
N252 N 0.13698 0.16856 0.77294 0.0
C253 C 0.13992 0.21116 0.76804 0.0
O254 O 0.97815 0.22097 0.63954 0.0
C255 C 1.00413 0.24383 0.63642 0.0
O256 O 0.02597 0.2523 0.67214 0.0
H257 H 0.05202 0.15845 0.75973 0.0
H258 H 0.11073 0.26959 0.75608 0.0
C259 C 0.88836 0.18989 0.6457 0.0
C260 C 0.85356 0.19958 0.64754 0.0
C261 C 0.86806 0.21535 0.72838 0.0
C262 C 0.90235 0.2061 0.72611 0.0
N263 N 0.91184 0.19351 0.68497 0.0
N264 N 0.84466 0.21191 0.68931 0.0
H265 H 0.89696 0.17911 0.61389 0.0
C266 C 0.05255 0.33238 0.74781 0.0
O267 O 0.06652 0.31876 0.71201 0.0
O268 O 0.96353 0.12678 0.6494 0.0
H269 H 0.92128 0.20891 0.75693 0.0
H270 H 0.10466 0.11546 0.77457 0.0
H271 H 0.86006 0.22531 0.76091 0.0
H272 H 0.08838 0.94864 0.27971 0.0
H273 H 0.96503 0.15215 0.27165 0.0
H274 H 0.97819 0.94736 0.24834 0.0
H275 H 0.07493 0.16354 0.28175 0.0
H276 H 0.9712 0.07569 0.27775 0.0
H277 H 0.08587 0.0258 0.2937 0.0
C278 C 0.06374 0.96446 0.27668 0.0
C279 C 0.03339 0.94171 0.26346 0.0
C280 C 0.99411 0.09474 0.27897 0.0
C281 C 0.03025 0.02917 0.27887 0.0
C282 C 0.99056 0.13858 0.27556 0.0
C283 C 0.01944 0.1644 0.27561 0.0
C284 C 0.02679 0.07609 0.28196 0.0
C285 C 0.05192 0.14483 0.28135 0.0
C286 C 0.06228 1.00835 0.28447 0.0
C287 C 1.00213 0.96358 0.2592 0.0
N288 N 0.05472 0.10178 0.2837 0.0
N289 N 1.00139 1.00583 0.26681 0.0
H290 H 0.5286 0.94161 0.72745 0.0
H291 H 0.43941 0.16632 0.75409 0.0
H292 H 0.43547 0.95383 0.78802 0.0
H293 H 0.54618 0.14897 0.74068 0.0
H294 H 0.43159 0.0892 0.74982 0.0
H295 H 0.52862 1.01758 0.71402 0.0
C296 C 0.50747 0.96012 0.73656 0.0
C297 C 0.48136 0.94108 0.75742 0.0
C298 C 0.45659 0.1024 0.7473 0.0
C299 C 0.4821 0.02904 0.74429 0.0
C300 C 0.46106 0.1464 0.74942 0.0
C301 C 0.49358 0.16416 0.74793 0.0
C302 C 0.4847 0.07605 0.74285 0.0
C303 C 0.52073 0.13673 0.74226 0.0
C304 C 0.50777 1.00374 0.72948 0.0
C305 C 0.45557 0.96719 0.77068 0.0
N306 N 0.51568 0.0942 0.73997 0.0
N307 N 0.45657 1.00993 0.76398 0.0
H308 H 0.93193 0.08758 0.78819 0.0
H309 H 0.04822 0.89062 0.74199 0.0
H310 H 0.02597 0.09785 0.72952 0.0
H311 H 0.94192 0.87524 0.75866 0.0
H312 H 0.03943 0.96703 0.7362 0.0
H313 H 0.93327 1.01033 0.7766 0.0
C314 C 0.95223 0.07371 0.77154 0.0
C315 C 0.97827 0.09928 0.75834 0.0
C316 C 0.01785 0.94703 0.74061 0.0
C317 C 0.98086 1.01119 0.74679 0.0
C318 C 0.0229 0.90332 0.74397 0.0
C319 C 0.99582 0.87645 0.75091 0.0
C320 C 0.9856 0.96438 0.7452 0.0
C321 C 0.96351 0.89478 0.75312 0.0
C322 C 0.95312 0.0297 0.76516 0.0
C323 C 1.00476 0.07964 0.73869 0.0
N324 N 0.9594 0.93765 0.75097 0.0
N325 N 1.0055 0.03695 0.73381 0.0
H326 H 0.57999 0.87637 0.26891 0.0
H327 H 0.49028 0.10044 0.29649 0.0
H328 H 0.47326 0.89323 0.28285 0.0
H329 H 0.58283 0.08903 0.2344 0.0
H330 H 0.49063 0.02452 0.30973 0.0
H331 H 0.58756 0.95355 0.27294 0.0
C332 C 0.5583 0.89621 0.27364 0.0
C333 C 0.52586 0.8783 0.27536 0.0
C334 C 0.51127 0.03852 0.29393 0.0
C335 C 0.53445 0.96643 0.28016 0.0
C336 C 0.51135 0.08213 0.28693 0.0
C337 C 0.53718 0.10139 0.26573 0.0
C338 C 0.53688 1.01343 0.27869 0.0
C339 C 0.56292 0.07549 0.25199 0.0
C340 C 0.56263 0.94022 0.27561 0.0
C341 C 0.49865 0.90559 0.28109 0.0
N342 N 0.56213 0.03272 0.25862 0.0
N343 N 0.50356 0.94814 0.28326 0.0
H344 H 0.57841 0.66558 0.77206 0.0
H345 H 0.4893 0.44069 0.79503 0.0
H346 H 0.47112 0.64847 0.78205 0.0
H347 H 0.58359 0.45356 0.73739 0.0
H348 H 0.48859 0.51668 0.80841 0.0
H349 H 0.58631 0.58843 0.77609 0.0
C350 C 0.55664 0.6457 0.77592 0.0
C351 C 0.52397 0.66355 0.77652 0.0
C352 C 0.50982 0.50297 0.79358 0.0
C353 C 0.53294 0.57538 0.7813 0.0
C354 C 0.51048 0.45939 0.78651 0.0
C355 C 0.53713 0.44058 0.76649 0.0
C356 C 0.5357 0.5284 0.77967 0.0
C357 C 0.56305 0.46679 0.75402 0.0
C358 C 0.56116 0.60168 0.7779 0.0
C359 C 0.49669 0.63616 0.78118 0.0
N360 N 0.56171 0.50947 0.76076 0.0
N361 N 0.50178 0.59359 0.78334 0.0
H362 H 0.92587 0.43959 0.29463 0.0
H363 H 1.00648 0.65996 0.22463 0.0
H364 H 0.01856 0.44862 0.23263 0.0
H365 H 0.9251 0.64926 0.30914 0.0
H366 H 1.00492 0.58281 0.21394 0.0
H367 H 0.91865 0.51663 0.28684 0.0
C368 C 0.94405 0.45772 0.27798 0.0
C369 C 0.97214 0.43771 0.2627 0.0
C370 C 0.98722 0.59749 0.23448 0.0
C371 C 0.96494 0.52581 0.25511 0.0
C372 C 0.98806 0.64152 0.24046 0.0
C373 C 0.9662 0.6611 0.2683 0.0
C374 C 0.9642 0.57295 0.25618 0.0
C375 C 0.94277 0.63556 0.28789 0.0
C376 C 0.94016 0.50167 0.27387 0.0
C377 C 0.99578 0.46269 0.24302 0.0
N378 N 0.94253 0.59297 0.28168 0.0
N379 N 0.99174 0.5054 0.23989 0.0
H380 H 0.44032 0.37711 0.25533 0.0
H381 H 0.52939 0.60147 0.22955 0.0
H382 H 0.54732 0.39387 0.2433 0.0
H383 H 0.4365 0.58935 0.29067 0.0
H384 H 0.52961 0.52551 0.21638 0.0
H385 H 0.43258 0.45432 0.25152 0.0
C386 C 0.46205 0.39694 0.25107 0.0
C387 C 0.4946 0.37899 0.24982 0.0
C388 C 0.50879 0.53937 0.23195 0.0
C389 C 0.48581 0.46715 0.24526 0.0
C390 C 0.50839 0.58296 0.23891 0.0
C391 C 0.48228 0.60199 0.25984 0.0
C392 C 0.4832 0.51413 0.24687 0.0
C393 C 0.45662 0.57595 0.27334 0.0
C394 C 0.45762 0.44096 0.24922 0.0
C395 C 0.52184 0.40626 0.24467 0.0
N396 N 0.4577 0.53324 0.26669 0.0
N397 N 0.51684 0.44884 0.24261 0.0
H398 H 0.01348 0.37901 0.80172 0.0
H399 H 0.09315 0.60032 0.73223 0.0
H400 H 0.0961 0.39053 0.71943 0.0
H401 H 0.99937 0.59049 0.79156 0.0
H402 H 0.10078 0.52336 0.74045 0.0
H403 H 0.01397 0.4563 0.81155 0.0
C404 C 0.03198 0.39765 0.78625 0.0
C405 C 0.0545 0.37823 0.75927 0.0
C406 C 0.07891 0.53812 0.7527 0.0
C407 C 0.05525 0.46657 0.77036 0.0
C408 C 0.07476 0.58203 0.74832 0.0
C409 C 0.04626 0.60181 0.76277 0.0
C410 C 0.054 0.51374 0.77091 0.0
C411 C 0.02242 0.57661 0.78178 0.0
C412 C 0.03218 0.44178 0.79171 0.0
C413 C 0.07794 0.40407 0.74004 0.0
N414 N 0.02674 0.53393 0.78522 0.0
N415 N 0.07758 0.44671 0.74575 0.0
H416 H 0.05239 0.43734 0.10839 0.0
H417 H 0.96521 0.60073 0.91599 0.0
H418 H 0.9459 0.4748 0.09447 0.0
H419 H 0.07174 0.56338 0.9301 0.0
H420 H 0.95733 0.55352 0.98025 0.0
H421 H 0.06016 0.48422 0.04382 0.0
C422 C 0.0307 0.45576 0.09204 0.0
C423 C 0.99839 0.45203 0.10659 0.0
C424 C 0.98239 0.55549 0.96916 0.0
C425 C 1.00702 0.50531 0.03237 0.0
C426 C 0.98688 0.58226 0.9323 0.0
C427 C 0.01925 0.58615 0.91794 0.0
C428 C 0.01049 0.53251 0.9918 0.0
C429 C 0.04638 0.56143 0.94022 0.0
C430 C 0.03513 0.48234 0.055 0.0
C431 C 0.97123 0.47666 0.08424 0.0
N432 N 0.04142 0.53579 0.97629 0.0
N433 N 0.97612 0.50214 0.048 0.0
H434 H 0.55456 0.60754 0.10178 0.0
H435 H 0.46509 0.43571 0.92295 0.0
H436 H 0.44953 0.567 0.09739 0.0
H437 H 0.57051 0.47499 0.9284 0.0
H438 H 0.45857 0.48487 0.98578 0.0
H439 H 0.56112 0.5585 0.03883 0.0
C440 C 0.53296 0.58803 0.08783 0.0
C441 C 0.50138 0.59146 0.10455 0.0
C442 C 0.48309 0.48287 0.97313 0.0
C443 C 0.50861 0.5357 0.0323 0.0
C444 C 0.48679 0.45497 0.9371 0.0
C445 C 0.51846 0.45113 0.92072 0.0
C446 C 0.51127 0.50705 0.99285 0.0
C447 C 0.54568 0.47688 0.94019 0.0
C448 C 0.53668 0.5602 0.05175 0.0
C449 C 0.47428 0.56542 0.08534 0.0
N450 N 0.5415 0.50366 0.97549 0.0
N451 N 0.47848 0.53872 0.04998 0.0
H452 H 0.57087 0.06433 0.42449 0.0
H453 H 0.44709 0.97662 0.59856 0.0
H454 H 0.46716 0.10851 0.4257 0.0
H455 H 0.55119 0.93349 0.59826 0.0
H456 H 0.45414 0.02592 0.53564 0.0
H457 H 0.56369 1.01485 0.48717 0.0
C458 C 0.54651 0.06336 0.4377 0.0
C459 C 0.51965 0.09069 0.42021 0.0
C460 C 0.47547 1.00576 0.54947 0.0
C461 C 0.51137 0.03468 0.49201 0.0
C462 C 0.4715 0.97778 0.58549 0.0
C463 C 0.49853 0.95082 0.60334 0.0
C464 C 0.50665 1.00661 0.53128 0.0
C465 C 0.52964 0.95365 0.58534 0.0
C466 C 0.54247 0.03528 0.4736 0.0
C467 C 0.48859 0.08808 0.43837 0.0
N468 N 0.5328 0.98093 0.55006 0.0
N469 N 0.48535 0.06069 0.47353 0.0
H470 H 0.07373 0.98425 0.42018 0.0
H471 H 0.94561 0.06803 0.59042 0.0
H472 H 0.96692 0.94927 0.40788 0.0
H473 H 0.05153 0.10638 0.60002 0.0
H474 H 0.95298 0.02415 0.52328 0.0
H475 H 0.06552 0.03172 0.48409 0.0
C476 C 0.04846 0.98697 0.43054 0.0
C477 C 0.02107 0.96242 0.40921 0.0
C478 C 0.97463 0.0421 0.54016 0.0
C479 C 0.01162 1.01604 0.4825 0.0
C480 C 0.9705 0.06689 0.57868 0.0
C481 C 0.99797 0.09093 0.60066 0.0
C482 C 1.00645 0.04141 0.52364 0.0
C483 C 0.02964 0.08837 0.58402 0.0
C484 C 0.04383 1.01386 0.46718 0.0
C485 C 0.98882 0.96735 0.4237 0.0
N486 N 0.03299 0.06415 0.54634 0.0
N487 N 0.98506 0.99333 0.45982 0.0
H488 H 0.78308 0.34966 0.15095 0.0
H489 H 0.73168 0.34615 0.87296 0.0
H490 H 0.85699 0.34039 0.05449 0.0
H491 H 0.65798 0.34077 0.97001 0.0
H492 H 0.77774 0.34905 0.9388 0.0
H493 H 0.73715 0.3515 0.08495 0.0
C494 C 0.78983 0.34821 0.11599 0.0
C495 C 0.82433 0.34516 0.1088 0.0
C496 C 0.75147 0.34749 0.94566 0.0
C497 C 0.77131 0.34728 0.03249 0.0
C498 C 0.725 0.34578 0.90799 0.0
C499 C 0.69051 0.34355 0.9154 0.0
C500 C 0.74366 0.3469 0.99148 0.0
C501 C 0.68383 0.34333 0.96193 0.0
C502 C 0.76344 0.34931 0.07822 0.0
C503 C 0.83111 0.34358 0.06234 0.0
N504 N 0.71011 0.34491 0.99802 0.0
N505 N 0.80488 0.34457 0.02612 0.0
H506 H 0.36232 0.70127 0.05561 0.0
H507 H 0.15959 0.69933 0.97277 0.0
H508 H 0.28752 0.69383 0.15103 0.0
H509 H 0.2348 0.69171 0.87797 0.0
H510 H 0.20589 0.69711 0.03829 0.0
H511 H 0.31598 0.69763 0.99042 0.0
C512 C 0.33636 0.69821 0.06322 0.0
C513 C 0.32919 0.69734 0.1095 0.0
C514 C 0.21221 0.69563 1.00311 0.0
C515 C 0.27553 0.69422 0.03407 0.0
C516 C 0.18563 0.69654 0.96539 0.0
C517 C 0.19295 0.69526 0.91919 0.0
C518 C 0.24649 0.69374 0.99488 0.0
C519 C 0.22765 0.6929 0.9127 0.0
C520 C 0.30974 0.69649 0.02566 0.0
C521 C 0.29455 0.69469 0.11622 0.0
N522 N 0.25299 0.69231 0.94994 0.0
N523 N 0.26914 0.6933 0.07908 0.0
H524 H 0.28654 0.84658 0.65273 0.0
H525 H 0.23515 0.84708 0.37464 0.0
H526 H 0.36018 0.83909 0.55575 0.0
H527 H 0.16109 0.84209 0.47121 0.0
H528 H 0.28107 0.84866 0.44062 0.0
H529 H 0.24045 0.84936 0.58685 0.0
C530 C 0.2932 0.84572 0.6177 0.0
C531 C 0.32768 0.84296 0.61031 0.0
C532 C 0.25476 0.84747 0.44739 0.0
C533 C 0.27451 0.84617 0.53419 0.0
C534 C 0.22836 0.84651 0.40962 0.0
C535 C 0.19382 0.84475 0.41684 0.0
C536 C 0.24686 0.84658 0.49315 0.0
C537 C 0.18702 0.84426 0.46332 0.0
C538 C 0.26672 0.84737 0.58001 0.0
C539 C 0.33434 0.8421 0.56378 0.0
N540 N 0.21325 0.84508 0.49955 0.0
N541 N 0.30805 0.84362 0.52768 0.0
H542 H 0.85973 0.2014 0.55255 0.0
H543 H 0.65714 0.20238 0.46874 0.0
H544 H 0.78434 0.19302 0.64704 0.0
H545 H 0.7323 0.19505 0.37383 0.0
H546 H 0.70333 0.19914 0.53417 0.0
H547 H 0.81359 0.19921 0.4869 0.0
C548 C 0.83368 0.19845 0.55984 0.0
C549 C 0.82627 0.1969 0.606 0.0
C550 C 0.70969 0.19794 0.499 0.0
C551 C 0.7729 0.19544 0.53011 0.0
C552 C 0.68316 0.19943 0.46129 0.0
C553 C 0.69047 0.19844 0.41508 0.0
C554 C 0.74396 0.19579 0.49079 0.0
C555 C 0.72516 0.19597 0.40858 0.0
C556 C 0.80719 0.19756 0.52203 0.0
C557 C 0.79156 0.1944 0.61235 0.0
N558 N 0.75049 0.1948 0.44584 0.0
N559 N 0.7663 0.19383 0.57501 0.0
H560 H 0.31634 0.18406 0.21477 0.0
H561 H 0.19852 0.36364 0.30454 0.0
H562 H 0.35668 0.28925 0.30041 0.0
H563 H 0.15866 0.25676 0.22135 0.0
H564 H 0.25652 0.33726 0.30301 0.0
H565 H 0.25859 0.21109 0.21587 0.0
C566 C 0.31315 0.21304 0.23361 0.0
C567 C 0.34167 0.23442 0.25733 0.0
C568 C 0.23508 0.31944 0.28533 0.0
C569 C 0.27516 0.26553 0.25889 0.0
C570 C 0.20187 0.33445 0.28617 0.0
C571 C 0.17342 0.3123 0.26339 0.0
C572 C 0.24011 0.28201 0.26128 0.0
C573 C 0.17953 0.27461 0.24026 0.0
C574 C 0.28006 0.22843 0.23421 0.0
C575 C 0.33574 0.27194 0.28091 0.0
N576 N 0.21219 0.26078 0.23971 0.0
N577 N 0.30314 0.28618 0.28121 0.0
H578 H 0.32089 0.37002 0.79184 0.0
H579 H 0.19651 0.17062 0.74631 0.0
H580 H 0.35354 0.24764 0.74849 0.0
H581 H 0.16359 0.29237 0.79129 0.0
H582 H 0.25422 0.19819 0.74829 0.0
H583 H 0.26355 0.34186 0.79331 0.0
C584 C 0.31611 0.33712 0.78282 0.0
C585 C 0.34233 0.3112 0.77021 0.0
C586 C 0.2344 0.21893 0.75765 0.0
C587 C 0.27635 0.27874 0.77168 0.0
C588 C 0.20131 0.20322 0.75662 0.0
C589 C 0.1748 0.22918 0.76832 0.0
C590 C 0.24136 0.26105 0.77062 0.0
C591 C 0.1828 0.27123 0.7811 0.0
C592 C 0.28329 0.32108 0.78374 0.0
C593 C 0.3345 0.26877 0.75918 0.0
N594 N 0.21537 0.28581 0.78192 0.0
N595 N 0.3022 0.25396 0.76 0.0
H596 H 0.81953 0.6775 0.71937 0.0
H597 H 0.7029 0.85661 0.81258 0.0
H598 H 0.8601 0.78263 0.80491 0.0
H599 H 0.66186 0.75308 0.72484 0.0
H600 H 0.76047 0.82912 0.81104 0.0
H601 H 0.76171 0.70432 0.72138 0.0
C602 C 0.81638 0.7064 0.73836 0.0
C603 C 0.84499 0.72793 0.76165 0.0
C604 C 0.73889 0.81224 0.79233 0.0
C605 C 0.77848 0.75873 0.7643 0.0
C606 C 0.70589 0.8279 0.79319 0.0
C607 C 0.67723 0.80712 0.76903 0.0
C608 C 0.74354 0.77548 0.76695 0.0
C609 C 0.68291 0.76992 0.74471 0.0
C610 C 0.78326 0.72166 0.73948 0.0
C611 C 0.83912 0.76526 0.78559 0.0
N612 N 0.71542 0.75541 0.74418 0.0
N613 N 0.80655 0.77935 0.78638 0.0
H614 H 0.66138 0.78514 0.21493 0.0
H615 H 0.86292 0.74652 0.28942 0.0
H616 H 0.70472 0.68046 0.30022 0.0
H617 H 0.82079 0.85675 0.21306 0.0
H618 H 0.805 0.7194 0.28835 0.0
H619 H 0.71934 0.8106 0.21079 0.0
C620 C 0.68286 0.76774 0.23335 0.0
C621 C 0.67787 0.73067 0.25842 0.0
C622 C 0.80844 0.74938 0.27148 0.0
C623 C 0.7445 0.75926 0.25269 0.0
C624 C 0.84167 0.76471 0.27156 0.0
C625 C 0.84694 0.80398 0.25099 0.0
C626 C 0.78019 0.77344 0.25084 0.0
C627 C 0.81802 0.82642 0.22954 0.0
C628 C 0.71607 0.78212 0.23051 0.0
C629 C 0.70709 0.70908 0.28034 0.0
N630 N 0.78595 0.81094 0.23016 0.0
N631 N 0.73901 0.72365 0.27696 0.0
H632 H 0.04903 0.16613 0.88985 0.0
H633 H 0.96847 0.32669 0.05378 0.0
H634 H 0.98849 0.27416 0.8376 0.0
H635 H 0.04742 0.23724 0.10757 0.0
H636 H 0.97776 0.30945 0.97474 0.0
H637 H 0.05336 0.19474 0.96893 0.0
C638 C 0.03767 0.19672 0.89491 0.0
C639 C 0.01842 0.2179 0.85718 0.0
C640 C 0.9932 0.29364 1.00371 0.0
C641 C 0.02197 0.24998 0.94794 0.0
C642 C 0.98768 0.30312 0.04911 0.0
C643 C 1.00689 0.28297 0.08779 0.0
C644 C 0.01788 0.26332 0.9963 0.0
C645 C 0.03178 0.2533 0.079 0.0
C646 C 0.03985 0.21283 0.94016 0.0
C647 C 1.00387 0.25709 0.86565 0.0
N648 N 0.03633 0.24409 0.03421 0.0
N649 N 1.00532 0.27145 0.9103 0.0
H650 H 0.52523 0.27628 0.18701 0.0
H651 H 0.46514 0.23722 0.9133 0.0
H652 H 0.46568 0.16851 0.13339 0.0
H653 H 0.54423 0.32459 0.97021 0.0
H654 H 0.45541 0.22003 0.99336 0.0
H655 H 0.52039 0.30498 0.10748 0.0
C656 C 0.50984 0.25964 0.15881 0.0
C657 C 0.49574 0.22012 0.1667 0.0
C658 C 0.47479 0.24306 0.9881 0.0
C659 C 0.49123 0.25165 0.07548 0.0
C660 C 0.48048 0.25269 0.94244 0.0
C661 C 0.50592 0.28187 0.93479 0.0
C662 C 0.49433 0.26321 0.02632 0.0
C663 C 0.52471 0.30134 0.97409 0.0
C664 C 0.50764 0.27554 0.11324 0.0
C665 C 0.47694 0.19914 0.12862 0.0
N666 N 0.51856 0.29166 0.01789 0.0
N667 N 0.47561 0.21483 0.08459 0.0
H668 H 0.96823 0.7996 0.91626 0.0
H669 H 0.03117 0.76464 0.19027 0.0
H670 H 0.04928 0.71402 0.97302 0.0
H671 H 0.96642 0.86808 0.13454 0.0
H672 H 0.02729 0.73502 0.11127 0.0
H673 H 0.95871 0.81665 0.9962 0.0
C674 C 0.98407 0.7845 0.94537 0.0
C675 C 0.00993 0.7558 0.93766 0.0
C676 C 0.01327 0.7637 0.1165 0.0
C677 C 0.99866 0.77443 0.02926 0.0
C678 C 0.015 0.78015 0.16174 0.0
C679 C 0.9992 0.81888 0.16878 0.0
C680 C 0.99554 0.78619 0.07832 0.0
C681 C 0.97912 0.83819 0.13042 0.0
C682 C 0.9785 0.79404 0.99101 0.0
C683 C 0.02937 0.73683 0.97697 0.0
N684 N 0.97824 0.82201 0.08678 0.0
N685 N 0.02337 0.7465 0.02084 0.0
H686 H 0.47277 0.7168 0.05563 0.0
H687 H 0.55354 0.87514 0.88986 0.0
H688 H 0.55254 0.8047 0.10883 0.0
H689 H 0.49249 0.76756 0.83954 0.0
H690 H 0.55823 0.84694 0.96937 0.0
H691 H 0.48216 0.73354 0.9766 0.0
C692 C 0.49219 0.73995 0.05083 0.0
C693 C 0.51158 0.75982 0.08935 0.0
C694 C 0.54458 0.82884 0.94089 0.0
C695 C 0.52268 0.7789 0.99776 0.0
C696 C 0.54219 0.8447 0.89541 0.0
C697 C 0.52273 0.82349 0.8581 0.0
C698 C 0.52672 0.79192 0.94926 0.0
C699 C 0.50815 0.78454 0.86718 0.0
C700 C 0.49777 0.74913 1.0054 0.0
C701 C 0.53675 0.78891 0.08036 0.0
N702 N 0.50983 0.77044 0.912 0.0
N703 N 0.54134 0.79789 0.03548 0.0
H704 H 0.55325 0.73705 0.6117 0.0
H705 H 0.49294 0.77689 0.33785 0.0
H706 H 0.47397 0.82491 0.55474 0.0
H707 H 0.55289 0.66894 0.39182 0.0
H708 H 0.49762 0.80539 0.41732 0.0
H709 H 0.56293 0.72002 0.53165 0.0
C710 C 0.53786 0.75267 0.58254 0.0
C711 C 0.51238 0.78194 0.59018 0.0
C712 C 0.5105 0.77595 0.41164 0.0
C713 C 0.52389 0.76344 0.49864 0.0
C714 C 0.50839 0.76017 0.3661 0.0
C715 C 0.52269 0.72068 0.35833 0.0
C716 C 0.527 0.75197 0.44949 0.0
C717 C 0.54151 0.69957 0.39649 0.0
C718 C 0.54351 0.74312 0.53689 0.0
C719 C 0.49351 0.80158 0.55086 0.0
N720 N 0.54277 0.71515 0.44048 0.0
N721 N 0.49963 0.79198 0.50705 0.0
H722 H 0.03068 0.77691 0.69055 0.0
H723 H 0.97161 0.74111 0.41631 0.0
H724 H 0.96923 0.67164 0.63418 0.0
H725 H 0.04712 0.83259 0.47395 0.0
H726 H 0.96193 0.72292 0.49588 0.0
H727 H 0.02625 0.80735 0.61183 0.0
C728 C 0.0149 0.76125 0.66197 0.0
C729 C 1.00003 0.72197 0.66887 0.0
C730 C 0.98051 0.7471 0.491 0.0
C731 C 0.99614 0.75536 0.57844 0.0
C732 C 0.98617 0.75735 0.44555 0.0
C733 C 0.01057 0.78803 0.4382 0.0
C734 C 0.99916 0.76788 0.52946 0.0
C735 C 0.02838 0.8083 0.47767 0.0
C736 C 0.01297 0.77811 0.61681 0.0
C737 C 0.98096 0.70213 0.63024 0.0
N738 N 0.02239 0.79782 0.52139 0.0
N739 N 0.97992 0.7187 0.58664 0.0
H740 H 0.46602 0.3743 0.63478 0.0
H741 H 0.54727 0.21604 0.46932 0.0
H742 H 0.52788 0.26687 0.68546 0.0
H743 H 0.4675 0.30467 0.41609 0.0
H744 H 0.53794 0.23265 0.54838 0.0
H745 H 0.46147 0.34623 0.55538 0.0
C746 C 0.47758 0.3439 0.62933 0.0
C747 C 0.49719 0.32268 0.66671 0.0
C748 C 0.52232 0.24843 0.51955 0.0
C749 C 0.49338 0.29128 0.57566 0.0
C750 C 0.52786 0.23932 0.47412 0.0
C751 C 0.50845 0.25943 0.43558 0.0
C752 C 0.49742 0.27835 0.52718 0.0
C753 C 0.4833 0.28868 0.44456 0.0
C754 C 0.47527 0.32812 0.58392 0.0
C755 C 0.51206 0.28383 0.65776 0.0
N756 N 0.47875 0.29757 0.48944 0.0
N757 N 0.51045 0.2698 0.61299 0.0
H758 H 0.98957 0.2634 0.33654 0.0
H759 H 0.05106 0.30103 0.61008 0.0
H760 H 0.05096 0.36962 0.39027 0.0
H761 H 0.97262 0.2128 0.5533 0.0
H762 H 0.06078 0.31822 0.53003 0.0
H763 H 0.99492 0.23394 0.41572 0.0
C764 C 1.00555 0.27946 0.36462 0.0
C765 C 0.02009 0.31874 0.35685 0.0
C766 C 0.04156 0.29497 0.5353 0.0
C767 C 0.02501 0.2865 0.44788 0.0
C768 C 0.03589 0.28532 0.58097 0.0
C769 C 0.01058 0.25597 0.58865 0.0
C770 C 0.02211 0.2747 0.49708 0.0
C771 C 0.992 0.23622 0.54937 0.0
C772 C 1.00801 0.26317 0.41006 0.0
C773 C 0.03946 0.33911 0.39491 0.0
N774 N 0.99809 0.24597 0.50556 0.0
N775 N 0.04098 0.32311 0.43884 0.0
loop_
_geom_bond_atom_site_label_1
_geom_bond_atom_site_label_2
_geom_bond_distance
_geom_bond_site_symmetry_2
_ccdc_geom_bond_type
Zn0 N4 2.017 1_655 S
Zn0 O8 2.019 . S
Zn0 N10 2.119 . S
Zn0 O18 1.975 1_655 S
C1 N2 1.334 . S
C1 N5 1.336 . S
N2 C1 1.334 . S
N2 C3 1.334 1_455 S
C3 N2 1.334 1_655 S
C3 N4 1.330 1_655 S
N4 Zn0 2.017 1_455 S
N4 C3 1.330 1_455 S
N4 N5 1.361 . S
N5 C1 1.336 . S
N5 N4 1.361 . S
N5 Zn9 2.020 . S
C6 O7 1.244 1_455 S
C6 O30 1.257 . S
O7 C6 1.244 1_655 S
O8 Zn0 2.019 . S
O8 C28 1.257 1_655 S
Zn9 N5 2.020 . S
Zn9 O16 1.975 . S
Zn9 N25 2.119 . S
Zn9 O30 2.019 . S
N10 Zn0 2.119 . S
N10 C12 1.334 . S
N10 C13 1.328 . S
C11 C12 1.391 . S
C11 N14 1.329 . S
C11 H32 0.930 . S
C12 N10 1.334 . S
C12 C11 1.391 . S
C12 H19 0.930 . S
C13 N10 1.328 . S
C13 C15 1.392 . S
C13 H20 0.930 . S
N14 C11 1.329 . S
N14 C15 1.331 . S
C15 C13 1.392 . S
C15 N14 1.331 . S
O16 Zn9 1.975 . S
O16 C17 1.252 . S
C17 O16 1.252 . S
C17 O18 1.252 . S
O18 Zn0 1.975 1_455 S
O18 C17 1.252 . S
H19 C12 0.930 . S
H20 C13 0.930 . S
C21 C22 1.392 . S
C21 N25 1.328 . S
C21 H27 0.930 . S
C22 C21 1.392 . S
C22 N26 1.331 . S
C23 C24 1.391 . S
C23 N26 1.329 . S
C23 H33 0.930 . S
C24 C23 1.391 . S
C24 N25 1.334 . S
C24 H31 0.930 . S
N25 Zn9 2.119 . S
N25 C21 1.328 . S
N25 C24 1.334 . S
N26 C22 1.331 . S
N26 C23 1.329 . S
H27 C21 0.930 . S
C28 O8 1.257 1_455 S
C28 O29 1.244 . S
O29 C28 1.244 . S
O30 C6 1.257 . S
O30 Zn9 2.019 . S
H31 C24 0.930 . S
H32 C11 0.930 . S
H33 C23 0.930 . S
Zn34 N38 2.020 . S
Zn34 O42 2.019 . S
Zn34 N44 2.119 . S
Zn34 O52 1.975 . S
C35 N36 1.334 . S
C35 N39 1.336 . S
N36 C35 1.334 . S
N36 C37 1.334 . S
C37 N36 1.334 . S
C37 N38 1.336 . S
N38 Zn34 2.020 . S
N38 C37 1.336 . S
N38 N39 1.354 . S
N39 C35 1.336 . S
N39 N38 1.354 . S
N39 Zn43 2.020 . S
C40 O41 1.244 . S
C40 O64 1.257 . S
O41 C40 1.244 . S
O42 Zn34 2.019 . S
O42 C62 1.257 . S
Zn43 N39 2.020 . S
Zn43 O50 1.975 . S
Zn43 N59 2.119 . S
Zn43 O64 2.019 . S
N44 Zn34 2.119 . S
N44 C46 1.334 . S
N44 C47 1.328 . S
C45 C46 1.391 . S
C45 N48 1.329 . S
C45 H66 0.930 . S
C46 N44 1.334 . S
C46 C45 1.391 . S
C46 H53 0.930 . S
C47 N44 1.328 . S
C47 C49 1.392 . S
C47 H54 0.930 . S
N48 C45 1.329 . S
N48 C49 1.331 . S
C49 C47 1.392 . S
C49 N48 1.331 . S
O50 Zn43 1.975 . S
O50 C51 1.252 . S
C51 O50 1.252 . S
C51 O52 1.252 . S
O52 Zn34 1.975 . S
O52 C51 1.252 . S
H53 C46 0.930 . S
H54 C47 0.930 . S
C55 C56 1.392 . S
C55 N59 1.328 . S
C55 H61 0.930 . S
C56 C55 1.392 . S
C56 N60 1.331 . S
C57 C58 1.391 . S
C57 N60 1.329 . S
C57 H67 0.930 . S
C58 C57 1.391 . S
C58 N59 1.334 . S
C58 H65 0.930 . S
N59 Zn43 2.119 . S
N59 C55 1.328 . S
N59 C58 1.334 . S
N60 C56 1.331 . S
N60 C57 1.329 . S
H61 C55 0.930 . S
C62 O42 1.257 . S
C62 O63 1.244 . S
O63 C62 1.244 . S
O64 C40 1.257 . S
O64 Zn43 2.019 . S
H65 C58 0.930 . S
H66 C45 0.930 . S
H67 C57 0.930 . S
Zn68 N72 2.020 . S
Zn68 O76 2.019 . S
Zn68 N78 2.119 . S
Zn68 O86 1.975 . S
C69 N70 1.334 1_455 S
C69 N73 1.330 1_455 S
N70 C69 1.334 1_655 S
N70 C71 1.334 . S
C71 N70 1.334 . S
C71 N72 1.336 . S
N72 Zn68 2.020 . S
N72 C71 1.336 . S
N72 N73 1.361 . S
N73 C69 1.330 1_655 S
N73 N72 1.361 . S
N73 Zn77 2.017 1_655 S
C74 O75 1.244 . S
C74 O98 1.257 1_655 S
O75 C74 1.244 . S
O76 Zn68 2.019 . S
O76 C96 1.257 . S
Zn77 N73 2.017 1_455 S
Zn77 O84 1.975 1_455 S
Zn77 N93 2.119 . S
Zn77 O98 2.019 . S
N78 Zn68 2.119 . S
N78 C80 1.334 . S
N78 C81 1.328 . S
C79 C80 1.391 . S
C79 N82 1.329 . S
C79 H100 0.930 . S
C80 N78 1.334 . S
C80 C79 1.391 . S
C80 H87 0.930 . S
C81 N78 1.328 . S
C81 C83 1.392 . S
C81 H88 0.930 . S
N82 C79 1.329 . S
N82 C83 1.331 . S
C83 C81 1.392 . S
C83 N82 1.331 . S
O84 Zn77 1.975 1_655 S
O84 C85 1.252 . S
C85 O84 1.252 . S
C85 O86 1.252 . S
O86 Zn68 1.975 . S
O86 C85 1.252 . S
H87 C80 0.930 . S
H88 C81 0.930 . S
C89 C90 1.392 . S
C89 N93 1.328 . S
C89 H95 0.930 . S
C90 C89 1.392 . S
C90 N94 1.331 . S
C91 C92 1.391 . S
C91 N94 1.329 . S
C91 H101 0.930 . S
C92 C91 1.391 . S
C92 N93 1.334 . S
C92 H99 0.930 . S
N93 Zn77 2.119 . S
N93 C89 1.328 . S
N93 C92 1.334 . S
N94 C90 1.331 . S
N94 C91 1.329 . S
H95 C89 0.930 . S
C96 O76 1.257 . S
C96 O97 1.244 1_655 S
O97 C96 1.244 1_455 S
O98 C74 1.257 1_455 S
O98 Zn77 2.019 . S
H99 C92 0.930 . S
H100 C79 0.930 . S
H101 C91 0.930 . S
Zn102 N106 2.020 . S
Zn102 O110 2.019 . S
Zn102 N112 2.119 . S
Zn102 O120 1.975 . S
C103 N104 1.334 . S
C103 N107 1.336 . S
N104 C103 1.334 . S
N104 C105 1.334 . S
C105 N104 1.334 . S
C105 N106 1.336 . S
N106 Zn102 2.020 . S
N106 C105 1.336 . S
N106 N107 1.354 . S
N107 C103 1.336 . S
N107 N106 1.354 . S
N107 Zn111 2.020 . S
C108 O109 1.244 . S
C108 O132 1.257 . S
O109 C108 1.244 . S
O110 Zn102 2.019 . S
O110 C130 1.257 . S
Zn111 N107 2.020 . S
Zn111 O118 1.975 . S
Zn111 N127 2.119 . S
Zn111 O132 2.019 . S
N112 Zn102 2.119 . S
N112 C114 1.334 . S
N112 C115 1.328 . S
C113 C114 1.391 . S
C113 N116 1.329 . S
C113 H134 0.930 . S
C114 N112 1.334 . S
C114 C113 1.391 . S
C114 H121 0.930 . S
C115 N112 1.328 . S
C115 C117 1.392 . S
C115 H122 0.930 . S
N116 C113 1.329 . S
N116 C117 1.331 . S
C117 C115 1.392 . S
C117 N116 1.331 . S
O118 Zn111 1.975 . S
O118 C119 1.252 . S
C119 O118 1.252 . S
C119 O120 1.252 . S
O120 Zn102 1.975 . S
O120 C119 1.252 . S
H121 C114 0.930 . S
H122 C115 0.930 . S
C123 C124 1.392 . S
C123 N127 1.328 . S
C123 H129 0.930 . S
C124 C123 1.392 . S
C124 N128 1.331 . S
C125 C126 1.391 . S
C125 N128 1.329 . S
C125 H135 0.930 . S
C126 C125 1.391 . S
C126 N127 1.334 . S
C126 H133 0.930 . S
N127 Zn111 2.119 . S
N127 C123 1.328 . S
N127 C126 1.334 . S
N128 C124 1.331 . S
N128 C125 1.329 . S
H129 C123 0.930 . S
C130 O110 1.257 . S
C130 O131 1.244 . S
O131 C130 1.244 . S
O132 C108 1.257 . S
O132 Zn111 2.019 . S
H133 C126 0.930 . S
H134 C113 0.930 . S
H135 C125 0.930 . S
Zn136 N140 2.020 . S
Zn136 O144 2.019 . S
Zn136 N146 2.119 . S
Zn136 O154 1.975 . S
C137 N138 1.334 . S
C137 N141 1.336 . S
N138 C137 1.334 . S
N138 C139 1.334 . S
C139 N138 1.334 . S
C139 N140 1.336 . S
N140 Zn136 2.020 . S
N140 C139 1.336 . S
N140 N141 1.354 . S
N141 C137 1.336 . S
N141 N140 1.354 . S
N141 Zn145 2.020 . S
C142 O143 1.244 . S
C142 O166 1.257 . S
O143 C142 1.244 . S
O144 Zn136 2.019 . S
O144 C164 1.257 . S
Zn145 N141 2.020 . S
Zn145 O152 1.975 . S
Zn145 N161 2.119 . S
Zn145 O166 2.019 . S
N146 Zn136 2.119 . S
N146 C148 1.334 . S
N146 C149 1.328 . S
C147 C148 1.391 . S
C147 N150 1.329 . S
C147 H168 0.930 . S
C148 N146 1.334 . S
C148 C147 1.391 . S
C148 H155 0.930 . S
C149 N146 1.328 . S
C149 C151 1.392 . S
C149 H156 0.930 . S
N150 C147 1.329 . S
N150 C151 1.331 . S
C151 C149 1.392 . S
C151 N150 1.331 . S
O152 Zn145 1.975 . S
O152 C153 1.252 . S
C153 O152 1.252 . S
C153 O154 1.252 . S
O154 Zn136 1.975 . S
O154 C153 1.252 . S
H155 C148 0.930 . S
H156 C149 0.930 . S
C157 C158 1.392 . S
C157 N161 1.328 . S
C157 H163 0.930 . S
C158 C157 1.392 . S
C158 N162 1.331 . S
C159 C160 1.391 . S
C159 N162 1.329 . S
C159 H169 0.930 . S
C160 C159 1.391 . S
C160 N161 1.334 . S
C160 H167 0.930 . S
N161 Zn145 2.119 . S
N161 C157 1.328 . S
N161 C160 1.334 . S
N162 C158 1.331 . S
N162 C159 1.329 . S
H163 C157 0.930 . S
C164 O144 1.257 . S
C164 O165 1.244 . S
O165 C164 1.244 . S
O166 C142 1.257 . S
O166 Zn145 2.019 . S
H167 C160 0.930 . S
H168 C147 0.930 . S
H169 C159 0.930 . S
Zn170 N174 2.020 . S
Zn170 O178 2.019 . S
Zn170 N180 2.119 . S
Zn170 O188 1.975 . S
C171 N172 1.334 1_455 S
C171 N175 1.330 1_455 S
N172 C171 1.334 1_655 S
N172 C173 1.334 . S
C173 N172 1.334 . S
C173 N174 1.336 . S
N174 Zn170 2.020 . S
N174 C173 1.336 . S
N174 N175 1.361 . S
N175 C171 1.330 1_655 S
N175 N174 1.361 . S
N175 Zn179 2.017 1_655 S
C176 O177 1.244 . S
C176 O200 1.257 1_655 S
O177 C176 1.244 . S
O178 Zn170 2.019 . S
O178 C198 1.257 . S
Zn179 N175 2.017 1_455 S
Zn179 O186 1.975 1_455 S
Zn179 N195 2.119 . S
Zn179 O200 2.019 . S
N180 Zn170 2.119 . S
N180 C182 1.334 . S
N180 C183 1.328 . S
C181 C182 1.391 . S
C181 N184 1.329 . S
C181 H202 0.930 . S
C182 N180 1.334 . S
C182 C181 1.391 . S
C182 H189 0.930 . S
C183 N180 1.328 . S
C183 C185 1.392 . S
C183 H190 0.930 . S
N184 C181 1.329 . S
N184 C185 1.331 . S
C185 C183 1.392 . S
C185 N184 1.331 . S
O186 Zn179 1.975 1_655 S
O186 C187 1.252 . S
C187 O186 1.252 . S
C187 O188 1.252 . S
O188 Zn170 1.975 . S
O188 C187 1.252 . S
H189 C182 0.930 . S
H190 C183 0.930 . S
C191 C192 1.392 . S
C191 N195 1.328 . S
C191 H197 0.930 . S
C192 C191 1.392 . S
C192 N196 1.331 . S
C193 C194 1.391 . S
C193 N196 1.329 . S
C193 H203 0.930 . S
C194 C193 1.391 . S
C194 N195 1.334 . S
C194 H201 0.930 . S
N195 Zn179 2.119 . S
N195 C191 1.328 . S
N195 C194 1.334 . S
N196 C192 1.331 . S
N196 C193 1.329 . S
H197 C191 0.930 . S
C198 O178 1.257 . S
C198 O199 1.244 1_655 S
O199 C198 1.244 1_455 S
O200 C176 1.257 1_455 S
O200 Zn179 2.019 . S
H201 C194 0.930 . S
H202 C181 0.930 . S
H203 C193 0.930 . S
Zn204 N208 2.020 . S
Zn204 O212 2.019 . S
Zn204 N214 2.119 . S
Zn204 O222 1.975 . S
C205 N206 1.334 . S
C205 N209 1.336 . S
N206 C205 1.334 . S
N206 C207 1.334 . S
C207 N206 1.334 . S
C207 N208 1.336 . S
N208 Zn204 2.020 . S
N208 C207 1.336 . S
N208 N209 1.354 . S
N209 C205 1.336 . S
N209 N208 1.354 . S
N209 Zn213 2.020 . S
C210 O211 1.244 . S
C210 O234 1.257 . S
O211 C210 1.244 . S
O212 Zn204 2.019 . S
O212 C232 1.257 . S
Zn213 N209 2.020 . S
Zn213 O220 1.975 . S
Zn213 N229 2.119 . S
Zn213 O234 2.019 . S
N214 Zn204 2.119 . S
N214 C216 1.334 . S
N214 C217 1.328 . S
C215 C216 1.391 . S
C215 N218 1.329 . S
C215 H236 0.930 . S
C216 N214 1.334 . S
C216 C215 1.391 . S
C216 H223 0.930 . S
C217 N214 1.328 . S
C217 C219 1.392 . S
C217 H224 0.930 . S
N218 C215 1.329 . S
N218 C219 1.331 . S
C219 C217 1.392 . S
C219 N218 1.331 . S
O220 Zn213 1.975 . S
O220 C221 1.252 . S
C221 O220 1.252 . S
C221 O222 1.252 . S
O222 Zn204 1.975 . S
O222 C221 1.252 . S
H223 C216 0.930 . S
H224 C217 0.930 . S
C225 C226 1.392 . S
C225 N229 1.328 . S
C225 H231 0.930 . S
C226 C225 1.392 . S
C226 N230 1.331 . S
C227 C228 1.391 . S
C227 N230 1.329 . S
C227 H237 0.930 . S
C228 C227 1.391 . S
C228 N229 1.334 . S
C228 H235 0.930 . S
N229 Zn213 2.119 . S
N229 C225 1.328 . S
N229 C228 1.334 . S
N230 C226 1.331 . S
N230 C227 1.329 . S
H231 C225 0.930 . S
C232 O212 1.257 . S
C232 O233 1.244 . S
O233 C232 1.244 . S
O234 C210 1.257 . S
O234 Zn213 2.019 . S
H235 C228 0.930 . S
H236 C215 0.930 . S
H237 C227 0.930 . S
Zn238 N242 2.020 . S
Zn238 O246 2.019 . S
Zn238 N248 2.119 . S
Zn238 O256 1.975 . S
C239 N240 1.334 1_655 S
C239 N243 1.330 1_655 S
N240 C239 1.334 1_455 S
N240 C241 1.334 . S
C241 N240 1.334 . S
C241 N242 1.336 . S
N242 Zn238 2.020 . S
N242 C241 1.336 . S
N242 N243 1.361 . S
N243 C239 1.330 1_455 S
N243 N242 1.361 . S
N243 Zn247 2.017 1_455 S
C244 O245 1.244 . S
C244 O268 1.257 1_455 S
O245 C244 1.244 . S
O246 Zn238 2.019 . S
O246 C266 1.257 . S
Zn247 N243 2.017 1_655 S
Zn247 O254 1.975 1_655 S
Zn247 N263 2.119 . S
Zn247 O268 2.019 . S
N248 Zn238 2.119 . S
N248 C250 1.334 . S
N248 C251 1.328 . S
C249 C250 1.391 . S
C249 N252 1.329 . S
C249 H270 0.930 . S
C250 N248 1.334 . S
C250 C249 1.391 . S
C250 H257 0.930 . S
C251 N248 1.328 . S
C251 C253 1.392 . S
C251 H258 0.930 . S
N252 C249 1.329 . S
N252 C253 1.331 . S
C253 C251 1.392 . S
C253 N252 1.331 . S
O254 Zn247 1.975 1_455 S
O254 C255 1.252 . S
C255 O254 1.252 . S
C255 O256 1.252 . S
O256 Zn238 1.975 . S
O256 C255 1.252 . S
H257 C250 0.930 . S
H258 C251 0.930 . S
C259 C260 1.392 . S
C259 N263 1.328 . S
C259 H265 0.930 . S
C260 C259 1.392 . S
C260 N264 1.331 . S
C261 C262 1.391 . S
C261 N264 1.329 . S
C261 H271 0.930 . S
C262 C261 1.391 . S
C262 N263 1.334 . S
C262 H269 0.930 . S
N263 Zn247 2.119 . S
N263 C259 1.328 . S
N263 C262 1.334 . S
N264 C260 1.331 . S
N264 C261 1.329 . S
H265 C259 0.930 . S
C266 O246 1.257 . S
C266 O267 1.244 1_455 S
O267 C266 1.244 1_655 S
O268 C244 1.257 1_655 S
O268 Zn247 2.019 . S
H269 C262 0.930 . S
H270 C249 0.930 . S
H271 C261 0.930 . S
H272 C278 0.930 . S
H273 C282 0.930 . S
H274 C287 0.929 . S
H275 C285 0.929 . S
H276 C280 0.929 . S
H277 C286 0.929 . S
C278 H272 0.930 . S
C278 C279 1.367 . S
C278 C286 1.378 1_565 S
C279 C278 1.367 . S
C279 C287 1.433 . S
C280 H276 0.929 . S
C280 C282 1.378 . S
C280 C284 1.350 . S
C281 C284 1.463 . S
C281 C286 1.350 . S
C281 N289 1.427 1_545 S
C282 H273 0.930 . S
C282 C280 1.378 . S
C282 C283 1.367 . S
C283 C282 1.367 . S
C283 C285 1.433 . S
C284 C280 1.350 . S
C284 C281 1.463 . S
C284 N288 1.427 . S
C285 H275 0.929 . S
C285 C283 1.433 . S
C285 N288 1.384 . S
C286 H277 0.929 . S
C286 C278 1.378 1_545 S
C286 C281 1.350 . S
C287 H274 0.929 . S
C287 C279 1.433 . S
C287 N289 1.384 . S
N288 C284 1.427 . S
N288 C285 1.384 . S
N289 C281 1.427 1_565 S
N289 C287 1.384 . S
H290 C296 0.930 . S
H291 C300 0.930 . S
H292 C305 0.929 . S
H293 C303 0.929 . S
H294 C298 0.929 . S
H295 C304 0.929 . S
C296 H290 0.930 . S
C296 C297 1.367 . S
C296 C304 1.378 . S
C297 C296 1.367 . S
C297 C305 1.433 . S
C298 H294 0.929 . S
C298 C300 1.378 . S
C298 C302 1.350 . S
C299 C302 1.463 . S
C299 C304 1.350 1_545 S
C299 N307 1.427 . S
C300 H291 0.930 . S
C300 C298 1.378 . S
C300 C301 1.367 . S
C301 C300 1.367 . S
C301 C303 1.433 . S
C302 C298 1.350 . S
C302 C299 1.463 . S
C302 N306 1.427 . S
C303 H293 0.929 . S
C303 C301 1.433 . S
C303 N306 1.384 . S
C304 H295 0.929 . S
C304 C296 1.378 . S
C304 C299 1.350 1_565 S
C305 H292 0.929 . S
C305 C297 1.433 . S
C305 N307 1.384 1_565 S
N306 C302 1.427 . S
N306 C303 1.384 . S
N307 C299 1.427 . S
N307 C305 1.384 1_545 S
H308 C314 0.930 . S
H309 C318 0.930 1_455 S
H310 C323 0.913 1_455 S
H311 C321 0.929 . S
H312 C316 0.929 1_455 S
H313 C322 0.929 . S
C314 H308 0.930 . S
C314 C315 1.367 . S
C314 C322 1.378 . S
C315 C314 1.367 . S
C315 C323 1.450 . S
C316 H312 0.929 1_655 S
C316 C318 1.378 . S
C316 C320 1.350 . S
C317 C320 1.463 . S
C317 C322 1.350 1_565 S
C317 N325 1.427 . S
C318 H309 0.930 1_655 S
C318 C316 1.378 . S
C318 C319 1.367 . S
C319 C318 1.367 . S
C319 C321 1.433 . S
C320 C316 1.350 . S
C320 C317 1.463 . S
C320 N324 1.427 . S
C321 H311 0.929 . S
C321 C319 1.433 . S
C321 N324 1.384 . S
C322 H313 0.929 . S
C322 C314 1.378 . S
C322 C317 1.350 1_545 S
C323 H310 0.913 1_655 S
C323 C315 1.450 . S
C323 N325 1.386 1_545 S
N324 C320 1.427 . S
N324 C321 1.384 . S
N325 C317 1.427 . S
N325 C323 1.386 1_565 S
H326 C332 0.930 . S
H327 C336 0.930 . S
H328 C341 0.929 . S
H329 C339 0.929 . S
H330 C334 0.929 1_565 S
H331 C340 0.929 . S
C332 H326 0.930 . S
C332 C333 1.367 . S
C332 C340 1.378 . S
C333 C332 1.367 . S
C333 C341 1.433 . S
C334 H330 0.929 1_545 S
C334 C336 1.378 . S
C334 C338 1.350 1_545 S
C335 C338 1.463 . S
C335 C340 1.350 . S
C335 N343 1.427 . S
C336 H327 0.930 . S
C336 C334 1.378 . S
C336 C337 1.367 . S
C337 C336 1.367 . S
C337 C339 1.433 . S
C338 C334 1.350 1_565 S
C338 C335 1.463 . S
C338 N342 1.419 1_565 S
C339 H329 0.929 . S
C339 C337 1.433 . S
C339 N342 1.408 . S
C340 H331 0.929 . S
C340 C332 1.378 . S
C340 C335 1.350 . S
C341 H328 0.929 . S
C341 C333 1.433 . S
C341 N343 1.384 . S
N342 C338 1.419 1_545 S
N342 C339 1.408 . S
N343 C335 1.427 . S
N343 C341 1.384 . S
H344 C350 0.930 . S
H345 C354 0.930 . S
H346 C359 0.929 . S
H347 C357 0.929 . S
H348 C352 0.929 . S
H349 C358 0.929 . S
C350 H344 0.930 . S
C350 C351 1.367 . S
C350 C358 1.378 . S
C351 C350 1.367 . S
C351 C359 1.433 . S
C352 H348 0.929 . S
C352 C354 1.378 . S
C352 C356 1.350 . S
C353 C356 1.463 . S
C353 C358 1.350 . S
C353 N361 1.427 . S
C354 H345 0.930 . S
C354 C352 1.378 . S
C354 C355 1.367 . S
C355 C354 1.367 . S
C355 C357 1.433 . S
C356 C352 1.350 . S
C356 C353 1.463 . S
C356 N360 1.427 . S
C357 H347 0.929 . S
C357 C355 1.433 . S
C357 N360 1.384 . S
C358 H349 0.929 . S
C358 C350 1.378 . S
C358 C353 1.350 . S
C359 H346 0.929 . S
C359 C351 1.433 . S
C359 N361 1.384 . S
N360 C356 1.427 . S
N360 C357 1.384 . S
N361 C353 1.427 . S
N361 C359 1.384 . S
H362 C368 0.930 . S
H363 C372 0.930 . S
H364 C377 0.929 . S
H365 C375 0.929 . S
H366 C370 0.929 . S
H367 C376 0.929 . S
C368 H362 0.930 . S
C368 C369 1.367 . S
C368 C376 1.378 . S
C369 C368 1.367 . S
C369 C377 1.433 . S
C370 H366 0.929 . S
C370 C372 1.378 . S
C370 C374 1.350 . S
C371 C374 1.463 . S
C371 C376 1.350 . S
C371 N379 1.427 . S
C372 H363 0.930 . S
C372 C370 1.378 . S
C372 C373 1.367 . S
C373 C372 1.367 . S
C373 C375 1.433 . S
C374 C370 1.350 . S
C374 C371 1.463 . S
C374 N378 1.427 . S
C375 H365 0.929 . S
C375 C373 1.433 . S
C375 N378 1.384 . S
C376 H367 0.929 . S
C376 C368 1.378 . S
C376 C371 1.350 . S
C377 H364 0.929 . S
C377 C369 1.433 . S
C377 N379 1.384 . S
N378 C374 1.427 . S
N378 C375 1.384 . S
N379 C371 1.427 . S
N379 C377 1.384 . S
H380 C386 0.930 . S
H381 C390 0.930 . S
H382 C395 0.929 . S
H383 C393 0.929 . S
H384 C388 0.929 . S
H385 C394 0.929 . S
C386 H380 0.930 . S
C386 C387 1.367 . S
C386 C394 1.378 . S
C387 C386 1.367 . S
C387 C395 1.433 . S
C388 H384 0.929 . S
C388 C390 1.378 . S
C388 C392 1.350 . S
C389 C392 1.463 . S
C389 C394 1.350 . S
C389 N397 1.427 . S
C390 H381 0.930 . S
C390 C388 1.378 . S
C390 C391 1.367 . S
C391 C390 1.367 . S
C391 C393 1.433 . S
C392 C388 1.350 . S
C392 C389 1.463 . S
C392 N396 1.427 . S
C393 H383 0.929 . S
C393 C391 1.433 . S
C393 N396 1.384 . S
C394 H385 0.929 . S
C394 C386 1.378 . S
C394 C389 1.350 . S
C395 H382 0.929 . S
C395 C387 1.433 . S
C395 N397 1.384 . S
N396 C392 1.427 . S
N396 C393 1.384 . S
N397 C389 1.427 . S
N397 C395 1.384 . S
H398 C404 0.930 . S
H399 C408 0.930 . S
H400 C413 0.929 . S
H401 C411 0.929 . S
H402 C406 0.929 . S
H403 C412 0.929 . S
C404 H398 0.930 . S
C404 C405 1.367 . S
C404 C412 1.378 . S
C405 C404 1.367 . S
C405 C413 1.433 . S
C406 H402 0.929 . S
C406 C408 1.378 . S
C406 C410 1.350 . S
C407 C410 1.463 . S
C407 C412 1.350 . S
C407 N415 1.427 . S
C408 H399 0.930 . S
C408 C406 1.378 . S
C408 C409 1.367 . S
C409 C408 1.367 . S
C409 C411 1.433 . S
C410 C406 1.350 . S
C410 C407 1.463 . S
C410 N414 1.427 . S
C411 H401 0.929 . S
C411 C409 1.433 . S
C411 N414 1.384 . S
C412 H403 0.929 . S
C412 C404 1.378 . S
C412 C407 1.350 . S
C413 H400 0.929 . S
C413 C405 1.433 . S
C413 N415 1.384 . S
N414 C410 1.427 . S
N414 C411 1.384 . S
N415 C407 1.427 . S
N415 C413 1.384 . S
H416 C422 0.930 . S
H417 C426 0.930 . S
H418 C431 0.929 . S
H419 C429 0.929 . S
H420 C424 0.929 . S
H421 C430 0.929 . S
C422 H416 0.930 . S
C422 C423 1.367 . S
C422 C430 1.378 . S
C423 C422 1.367 . S
C423 C431 1.433 1_455 S
C424 H420 0.929 . S
C424 C426 1.378 . S
C424 C428 1.350 . S
C425 C428 1.463 1_454 S
C425 C430 1.350 . S
C425 N433 1.427 1_455 S
C426 H417 0.930 . S
C426 C424 1.378 . S
C426 C427 1.367 . S
C427 C426 1.367 . S
C427 C429 1.433 1_655 S
C428 C424 1.350 . S
C428 C425 1.463 1_656 S
C428 N432 1.427 1_655 S
C429 H419 0.929 . S
C429 C427 1.433 1_455 S
C429 N432 1.384 . S
C430 H421 0.929 . S
C430 C422 1.378 . S
C430 C425 1.350 . S
C431 H418 0.929 . S
C431 C423 1.433 1_655 S
C431 N433 1.384 . S
N432 C428 1.427 1_455 S
N432 C429 1.384 . S
N433 C425 1.427 1_655 S
N433 C431 1.384 . S
H434 C440 0.930 . S
H435 C444 0.930 . S
H436 C449 0.929 . S
H437 C447 0.929 . S
H438 C442 0.929 1_554 S
H439 C448 0.929 1_556 S
C440 H434 0.930 . S
C440 C441 1.367 . S
C440 C448 1.378 . S
C441 C440 1.367 . S
C441 C449 1.433 . S
C442 H438 0.929 1_556 S
C442 C444 1.378 . S
C442 C446 1.350 . S
C443 C446 1.463 1_554 S
C443 C448 1.350 . S
C443 N451 1.427 . S
C444 H435 0.930 . S
C444 C442 1.378 . S
C444 C445 1.367 . S
C445 C444 1.367 . S
C445 C447 1.433 . S
C446 C442 1.350 . S
C446 C443 1.463 1_556 S
C446 N450 1.427 . S
C447 H437 0.929 . S
C447 C445 1.433 . S
C447 N450 1.384 . S
C448 H439 0.929 1_554 S
C448 C440 1.378 . S
C448 C443 1.350 . S
C449 H436 0.929 . S
C449 C441 1.433 . S
C449 N451 1.384 . S
N450 C446 1.427 . S
N450 C447 1.384 . S
N451 C443 1.427 . S
N451 C449 1.384 . S
H452 C458 0.930 . S
H453 C462 0.930 . S
H454 C467 0.929 . S
H455 C465 0.929 . S
H456 C460 0.929 1_545 S
H457 C466 0.929 1_565 S
C458 H452 0.930 . S
C458 C459 1.367 . S
C458 C466 1.378 . S
C459 C458 1.367 . S
C459 C467 1.433 . S
C460 H456 0.929 1_565 S
C460 C462 1.378 . S
C460 C464 1.350 . S
C461 C464 1.463 1_545 S
C461 C466 1.350 . S
C461 N469 1.427 . S
C462 H453 0.930 . S
C462 C460 1.378 . S
C462 C463 1.367 . S
C463 C462 1.367 . S
C463 C465 1.433 . S
C464 C460 1.350 . S
C464 C461 1.463 1_565 S
C464 N468 1.427 . S
C465 H455 0.929 . S
C465 C463 1.433 . S
C465 N468 1.384 . S
C466 H457 0.929 1_545 S
C466 C458 1.378 . S
C466 C461 1.350 . S
C467 H454 0.929 . S
C467 C459 1.433 . S
C467 N469 1.384 . S
N468 C464 1.427 . S
N468 C465 1.384 . S
N469 C461 1.427 . S
N469 C467 1.384 . S
H470 C476 0.930 . S
H471 C480 0.930 . S
H472 C485 0.929 . S
H473 C483 0.929 . S
H474 C478 0.929 1_565 S
H475 C484 0.929 1_545 S
C476 H470 0.930 . S
C476 C477 1.367 . S
C476 C484 1.378 . S
C477 C476 1.367 . S
C477 C485 1.433 . S
C478 H474 0.929 1_545 S
C478 C480 1.378 . S
C478 C482 1.350 . S
C479 C482 1.463 1_665 S
C479 C484 1.350 . S
C479 N487 1.427 . S
C480 H471 0.930 . S
C480 C478 1.378 . S
C480 C481 1.367 . S
C481 C480 1.367 . S
C481 C483 1.433 . S
C482 C478 1.350 . S
C482 C479 1.463 1_445 S
C482 N486 1.427 . S
C483 H473 0.929 . S
C483 C481 1.433 . S
C483 N486 1.384 . S
C484 H475 0.929 1_565 S
C484 C476 1.378 . S
C484 C479 1.350 . S
C485 H472 0.929 . S
C485 C477 1.433 . S
C485 N487 1.384 . S
N486 C482 1.427 . S
N486 C483 1.384 . S
N487 C479 1.427 . S
N487 C485 1.384 . S
H488 C494 0.930 . S
H489 C498 0.930 . S
H490 C503 0.929 1_556 S
H491 C501 0.929 1_554 S
H492 C496 0.929 . S
H493 C502 0.929 . S
C494 H488 0.930 . S
C494 C495 1.367 . S
C494 C502 1.378 . S
C495 C494 1.367 . S
C495 C503 1.433 . S
C496 H492 0.929 . S
C496 C498 1.378 . S
C496 C500 1.350 . S
C497 C500 1.463 1_554 S
C497 C502 1.350 . S
C497 N505 1.427 1_554 S
C498 H489 0.930 . S
C498 C496 1.378 . S
C498 C499 1.367 . S
C499 C498 1.367 . S
C499 C501 1.433 . S
C500 C496 1.350 . S
C500 C497 1.463 1_556 S
C500 N504 1.427 1_556 S
C501 H491 0.929 1_556 S
C501 C499 1.433 . S
C501 N504 1.384 1_556 S
C502 H493 0.929 . S
C502 C494 1.378 . S
C502 C497 1.350 . S
C503 H490 0.929 1_554 S
C503 C495 1.433 . S
C503 N505 1.384 1_554 S
N504 C500 1.427 1_554 S
N504 C501 1.384 1_554 S
N505 C497 1.427 1_556 S
N505 C503 1.384 1_556 S
H506 C512 0.929 . S
H507 C516 0.929 . S
H508 C521 0.929 . S
H509 C519 0.929 . S
H510 C514 0.929 . S
H511 C520 0.929 . S
C512 H506 0.929 . S
C512 C513 1.369 1_556 S
C512 C520 1.377 . S
C513 C512 1.369 1_554 S
C513 C521 1.433 . S
C514 H510 0.929 . S
C514 C516 1.377 . S
C514 C518 1.350 1_554 S
C515 C518 1.463 1_554 S
C515 C520 1.350 1_554 S
C515 N523 1.427 . S
C516 H507 0.929 . S
C516 C514 1.377 . S
C516 C517 1.369 1_554 S
C517 C516 1.369 1_556 S
C517 C519 1.433 . S
C518 C514 1.350 1_556 S
C518 C515 1.463 1_556 S
C518 N522 1.427 . S
C519 H509 0.929 . S
C519 C517 1.433 . S
C519 N522 1.384 . S
C520 H511 0.929 . S
C520 C512 1.377 . S
C520 C515 1.350 1_556 S
C521 H508 0.929 . S
C521 C513 1.433 . S
C521 N523 1.384 . S
N522 C518 1.427 . S
N522 C519 1.384 . S
N523 C515 1.427 . S
N523 C521 1.384 . S
H524 C530 0.930 . S
H525 C534 0.930 . S
H526 C539 0.929 . S
H527 C537 0.929 . S
H528 C532 0.929 . S
H529 C538 0.929 . S
C530 H524 0.930 . S
C530 C531 1.367 . S
C530 C538 1.378 . S
C531 C530 1.367 . S
C531 C539 1.433 . S
C532 H528 0.929 . S
C532 C534 1.378 . S
C532 C536 1.350 . S
C533 C536 1.463 . S
C533 C538 1.350 . S
C533 N541 1.427 . S
C534 H525 0.930 . S
C534 C532 1.378 . S
C534 C535 1.367 . S
C535 C534 1.367 . S
C535 C537 1.433 . S
C536 C532 1.350 . S
C536 C533 1.463 . S
C536 N540 1.427 . S
C537 H527 0.929 . S
C537 C535 1.433 . S
C537 N540 1.384 . S
C538 H529 0.929 . S
C538 C530 1.378 . S
C538 C533 1.350 . S
C539 H526 0.929 . S
C539 C531 1.433 . S
C539 N541 1.384 . S
N540 C536 1.427 . S
N540 C537 1.384 . S
N541 C533 1.427 . S
N541 C539 1.384 . S
H542 C548 0.930 . S
H543 C552 0.930 . S
H544 C557 0.929 . S
H545 C555 0.929 . S
H546 C550 0.929 . S
H547 C556 0.929 . S
C548 H542 0.930 . S
C548 C549 1.367 . S
C548 C556 1.378 . S
C549 C548 1.367 . S
C549 C557 1.433 . S
C550 H546 0.929 . S
C550 C552 1.378 . S
C550 C554 1.350 . S
C551 C554 1.463 . S
C551 C556 1.350 . S
C551 N559 1.427 . S
C552 H543 0.930 . S
C552 C550 1.378 . S
C552 C553 1.367 . S
C553 C552 1.367 . S
C553 C555 1.433 . S
C554 C550 1.350 . S
C554 C551 1.463 . S
C554 N558 1.427 . S
C555 H545 0.929 . S
C555 C553 1.433 . S
C555 N558 1.384 . S
C556 H547 0.929 . S
C556 C548 1.378 . S
C556 C551 1.350 . S
C557 H544 0.929 . S
C557 C549 1.433 . S
C557 N559 1.384 . S
N558 C554 1.427 . S
N558 C555 1.384 . S
N559 C551 1.427 . S
N559 C557 1.384 . S
H560 C566 0.930 . S
H561 C570 0.930 . S
H562 C575 0.929 . S
H563 C573 0.929 . S
H564 C568 0.929 . S
H565 C574 0.929 . S
C566 H560 0.930 . S
C566 C567 1.367 . S
C566 C574 1.378 . S
C567 C566 1.367 . S
C567 C575 1.433 . S
C568 H564 0.929 . S
C568 C570 1.378 . S
C568 C572 1.350 . S
C569 C572 1.463 . S
C569 C574 1.350 . S
C569 N577 1.427 . S
C570 H561 0.930 . S
C570 C568 1.378 . S
C570 C571 1.367 . S
C571 C570 1.367 . S
C571 C573 1.433 . S
C572 C568 1.350 . S
C572 C569 1.463 . S
C572 N576 1.427 . S
C573 H563 0.929 . S
C573 C571 1.433 . S
C573 N576 1.384 . S
C574 H565 0.929 . S
C574 C566 1.378 . S
C574 C569 1.350 . S
C575 H562 0.929 . S
C575 C567 1.433 . S
C575 N577 1.384 . S
N576 C572 1.427 . S
N576 C573 1.384 . S
N577 C569 1.427 . S
N577 C575 1.384 . S
H578 C584 0.930 . S
H579 C588 0.930 . S
H580 C593 0.929 . S
H581 C591 0.929 . S
H582 C586 0.929 . S
H583 C592 0.929 . S
C584 H578 0.930 . S
C584 C585 1.367 . S
C584 C592 1.378 . S
C585 C584 1.367 . S
C585 C593 1.433 . S
C586 H582 0.929 . S
C586 C588 1.378 . S
C586 C590 1.350 . S
C587 C590 1.463 . S
C587 C592 1.350 . S
C587 N595 1.427 . S
C588 H579 0.930 . S
C588 C586 1.378 . S
C588 C589 1.367 . S
C589 C588 1.367 . S
C589 C591 1.433 . S
C590 C586 1.350 . S
C590 C587 1.463 . S
C590 N594 1.427 . S
C591 H581 0.929 . S
C591 C589 1.433 . S
C591 N594 1.384 . S
C592 H583 0.929 . S
C592 C584 1.378 . S
C592 C587 1.350 . S
C593 H580 0.929 . S
C593 C585 1.433 . S
C593 N595 1.384 . S
N594 C590 1.427 . S
N594 C591 1.384 . S
N595 C587 1.427 . S
N595 C593 1.384 . S
H596 C602 0.930 . S
H597 C606 0.930 . S
H598 C611 0.929 . S
H599 C609 0.929 . S
H600 C604 0.929 . S
H601 C610 0.929 . S
C602 H596 0.930 . S
C602 C603 1.367 . S
C602 C610 1.378 . S
C603 C602 1.367 . S
C603 C611 1.433 . S
C604 H600 0.929 . S
C604 C606 1.378 . S
C604 C608 1.350 . S
C605 C608 1.463 . S
C605 C610 1.350 . S
C605 N613 1.427 . S
C606 H597 0.930 . S
C606 C604 1.378 . S
C606 C607 1.367 . S
C607 C606 1.367 . S
C607 C609 1.433 . S
C608 C604 1.350 . S
C608 C605 1.463 . S
C608 N612 1.427 . S
C609 H599 0.929 . S
C609 C607 1.433 . S
C609 N612 1.384 . S
C610 H601 0.929 . S
C610 C602 1.378 . S
C610 C605 1.350 . S
C611 H598 0.929 . S
C611 C603 1.433 . S
C611 N613 1.384 . S
N612 C608 1.427 . S
N612 C609 1.384 . S
N613 C605 1.427 . S
N613 C611 1.384 . S
H614 C620 0.930 . S
H615 C624 0.930 . S
H616 C629 0.929 . S
H617 C627 0.929 . S
H618 C622 0.929 . S
H619 C628 0.929 . S
C620 H614 0.930 . S
C620 C621 1.367 . S
C620 C628 1.378 . S
C621 C620 1.367 . S
C621 C629 1.433 . S
C622 H618 0.929 . S
C622 C624 1.378 . S
C622 C626 1.350 . S
C623 C626 1.463 . S
C623 C628 1.350 . S
C623 N631 1.427 . S
C624 H615 0.930 . S
C624 C622 1.378 . S
C624 C625 1.367 . S
C625 C624 1.367 . S
C625 C627 1.433 . S
C626 C622 1.350 . S
C626 C623 1.463 . S
C626 N630 1.427 . S
C627 H617 0.929 . S
C627 C625 1.433 . S
C627 N630 1.384 . S
C628 H619 0.929 . S
C628 C620 1.378 . S
C628 C623 1.350 . S
C629 H616 0.929 . S
C629 C621 1.433 . S
C629 N631 1.384 . S
N630 C626 1.427 . S
N630 C627 1.384 . S
N631 C623 1.427 . S
N631 C629 1.384 . S
H632 C638 0.930 . S
H633 C642 0.930 . S
H634 C647 0.929 . S
H635 C645 0.929 . S
H636 C640 0.929 . S
H637 C646 0.929 . S
C638 H632 0.930 . S
C638 C639 1.367 . S
C638 C646 1.378 . S
C639 C638 1.367 . S
C639 C647 1.433 1_455 S
C640 H636 0.929 . S
C640 C642 1.378 1_556 S
C640 C644 1.350 1_655 S
C641 C644 1.463 . S
C641 C646 1.350 . S
C641 N649 1.427 1_455 S
C642 H633 0.930 . S
C642 C640 1.378 1_554 S
C642 C643 1.367 1_655 S
C643 C642 1.367 1_455 S
C643 C645 1.433 . S
C644 C640 1.350 1_455 S
C644 C641 1.463 . S
C644 N648 1.427 . S
C645 H635 0.929 . S
C645 C643 1.433 . S
C645 N648 1.384 1_554 S
C646 H637 0.929 . S
C646 C638 1.378 . S
C646 C641 1.350 . S
C647 H634 0.929 . S
C647 C639 1.433 1_655 S
C647 N649 1.384 . S
N648 C644 1.427 . S
N648 C645 1.384 1_556 S
N649 C641 1.427 1_655 S
N649 C647 1.384 . S
H650 C656 0.930 . S
H651 C660 0.930 . S
H652 C665 0.929 . S
H653 C663 0.929 . S
H654 C658 0.929 . S
H655 C664 0.929 . S
C656 H650 0.930 . S
C656 C657 1.367 . S
C656 C664 1.378 . S
C657 C656 1.367 . S
C657 C665 1.433 . S
C658 H654 0.929 . S
C658 C660 1.378 1_554 S
C658 C662 1.350 . S
C659 C662 1.463 . S
C659 C664 1.350 . S
C659 N667 1.427 . S
C660 H651 0.930 . S
C660 C658 1.378 1_556 S
C660 C661 1.367 . S
C661 C660 1.367 . S
C661 C663 1.433 1_556 S
C662 C658 1.350 . S
C662 C659 1.463 . S
C662 N666 1.427 . S
C663 H653 0.929 . S
C663 C661 1.433 1_554 S
C663 N666 1.384 . S
C664 H655 0.929 . S
C664 C656 1.378 . S
C664 C659 1.350 . S
C665 H652 0.929 . S
C665 C657 1.433 . S
C665 N667 1.384 . S
N666 C662 1.427 . S
N666 C663 1.384 . S
N667 C659 1.427 . S
N667 C665 1.384 . S
H668 C674 0.930 . S
H669 C678 0.930 1_455 S
H670 C683 0.929 . S
H671 C681 0.929 . S
H672 C676 0.929 1_455 S
H673 C682 0.929 . S
C674 H668 0.930 . S
C674 C675 1.367 . S
C674 C682 1.378 1_556 S
C675 C674 1.367 . S
C675 C683 1.433 1_656 S
C676 H672 0.929 1_655 S
C676 C678 1.378 . S
C676 C680 1.350 . S
C677 C680 1.463 . S
C677 C682 1.350 . S
C677 N685 1.428 . S
C678 H669 0.930 1_655 S
C678 C676 1.378 . S
C678 C679 1.367 . S
C679 C678 1.367 . S
C679 C681 1.433 . S
C680 C676 1.350 . S
C680 C677 1.463 . S
C680 N684 1.427 . S
C681 H671 0.929 . S
C681 C679 1.433 . S
C681 N684 1.384 . S
C682 H673 0.929 . S
C682 C674 1.378 1_554 S
C682 C677 1.350 . S
C683 H670 0.929 . S
C683 C675 1.433 1_454 S
C683 N685 1.383 1_455 S
N684 C680 1.427 . S
N684 C681 1.384 . S
N685 C677 1.428 . S
N685 C683 1.383 1_655 S
H686 C692 0.930 . S
H687 C696 0.930 . S
H688 C701 0.929 . S
H689 C699 0.929 . S
H690 C694 0.929 . S
H691 C700 0.929 . S
C692 H686 0.930 . S
C692 C693 1.367 . S
C692 C700 1.378 1_554 S
C693 C692 1.367 . S
C693 C701 1.433 . S
C694 H690 0.929 . S
C694 C696 1.378 . S
C694 C698 1.350 . S
C695 C698 1.463 . S
C695 C700 1.350 . S
C695 N703 1.427 . S
C696 H687 0.930 . S
C696 C694 1.378 . S
C696 C697 1.367 . S
C697 C696 1.367 . S
C697 C699 1.433 . S
C698 C694 1.350 . S
C698 C695 1.463 . S
C698 N702 1.427 . S
C699 H689 0.929 . S
C699 C697 1.433 . S
C699 N702 1.384 . S
C700 H691 0.929 . S
C700 C692 1.378 1_556 S
C700 C695 1.350 . S
C701 H688 0.929 . S
C701 C693 1.433 . S
C701 N703 1.384 1_554 S
N702 C698 1.427 . S
N702 C699 1.384 . S
N703 C695 1.427 . S
N703 C701 1.384 1_556 S
H704 C710 0.930 . S
H705 C714 0.930 . S
H706 C719 0.929 . S
H707 C717 0.929 . S
H708 C712 0.929 . S
H709 C718 0.929 . S
C710 H704 0.930 . S
C710 C711 1.367 . S
C710 C718 1.378 . S
C711 C710 1.367 . S
C711 C719 1.433 . S
C712 H708 0.929 . S
C712 C714 1.378 . S
C712 C716 1.350 . S
C713 C716 1.463 . S
C713 C718 1.350 . S
C713 N721 1.427 . S
C714 H705 0.930 . S
C714 C712 1.378 . S
C714 C715 1.367 . S
C715 C714 1.367 . S
C715 C717 1.433 . S
C716 C712 1.350 . S
C716 C713 1.463 . S
C716 N720 1.427 . S
C717 H707 0.929 . S
C717 C715 1.433 . S
C717 N720 1.384 . S
C718 H709 0.929 . S
C718 C710 1.378 . S
C718 C713 1.350 . S
C719 H706 0.929 . S
C719 C711 1.433 . S
C719 N721 1.384 . S
N720 C716 1.427 . S
N720 C717 1.384 . S
N721 C713 1.427 . S
N721 C719 1.384 . S
H722 C728 0.930 . S
H723 C732 0.930 1_455 S
H724 C737 0.929 . S
H725 C735 0.929 . S
H726 C730 0.931 . S
H727 C736 0.929 . S
C728 H722 0.930 . S
C728 C729 1.367 . S
C728 C736 1.378 . S
C729 C728 1.367 . S
C729 C737 1.433 . S
C730 H726 0.931 . S
C730 C732 1.378 . S
C730 C734 1.350 . S
C731 C734 1.463 . S
C731 C736 1.350 . S
C731 N739 1.427 . S
C732 H723 0.930 1_655 S
C732 C730 1.378 . S
C732 C733 1.367 . S
C733 C732 1.367 . S
C733 C735 1.433 . S
C734 C730 1.350 . S
C734 C731 1.463 . S
C734 N738 1.427 . S
C735 H725 0.929 . S
C735 C733 1.433 . S
C735 N738 1.384 . S
C736 H727 0.929 . S
C736 C728 1.378 . S
C736 C731 1.350 . S
C737 H724 0.929 . S
C737 C729 1.433 . S
C737 N739 1.384 . S
N738 C734 1.427 . S
N738 C735 1.384 . S
N739 C731 1.427 . S
N739 C737 1.384 . S
H740 C746 0.930 . S
H741 C750 0.930 . S
H742 C755 0.929 . S
H743 C753 0.929 . S
H744 C748 0.929 . S
H745 C754 0.929 . S
C746 H740 0.930 . S
C746 C747 1.367 . S
C746 C754 1.378 . S
C747 C746 1.367 . S
C747 C755 1.433 . S
C748 H744 0.929 . S
C748 C750 1.378 . S
C748 C752 1.350 . S
C749 C752 1.463 . S
C749 C754 1.350 . S
C749 N757 1.427 . S
C750 H741 0.930 . S
C750 C748 1.378 . S
C750 C751 1.367 . S
C751 C750 1.367 . S
C751 C753 1.433 . S
C752 C748 1.350 . S
C752 C749 1.463 . S
C752 N756 1.427 . S
C753 H743 0.929 . S
C753 C751 1.433 . S
C753 N756 1.384 . S
C754 H745 0.929 . S
C754 C746 1.378 . S
C754 C749 1.350 . S
C755 H742 0.929 . S
C755 C747 1.433 . S
C755 N757 1.384 . S
N756 C752 1.427 . S
N756 C753 1.384 . S
N757 C749 1.427 . S
N757 C755 1.384 . S
H758 C764 0.930 1_655 S
H759 C768 0.930 . S
H760 C773 0.929 . S
H761 C771 0.948 . S
H762 C766 0.929 . S
H763 C772 0.929 1_655 S
C764 H758 0.930 1_455 S
C764 C765 1.367 . S
C764 C772 1.378 . S
C765 C764 1.367 . S
C765 C773 1.433 . S
C766 H762 0.929 . S
C766 C768 1.378 . S
C766 C770 1.350 . S
C767 C770 1.463 . S
C767 C772 1.350 . S
C767 N775 1.427 . S
C768 H759 0.930 . S
C768 C766 1.378 . S
C768 C769 1.367 . S
C769 C768 1.367 . S
C769 C771 1.419 1_455 S
C770 C766 1.350 . S
C770 C767 1.463 . S
C770 N774 1.435 . S
C771 H761 0.948 . S
C771 C769 1.419 1_655 S
C771 N774 1.377 1_655 S
C772 H763 0.929 1_455 S
C772 C764 1.378 . S
C772 C767 1.350 . S
C773 H760 0.929 . S
C773 C765 1.433 . S
C773 N775 1.384 . S
N774 C770 1.435 . S
N774 C771 1.377 1_455 S
N775 C767 1.427 . S
N775 C773 1.384 . S
C279 C171 1.901 . S
C283 C6 1.969 . S
C297 C139 1.891 . S
C301 C40 1.971 . S
C315 C239 1.895 . S
C319 C96 1.972 . S
C333 C130 1.971 . S
C337 C205 1.890 . S
C351 C142 1.972 . S
C355 C37 1.892 . S
C369 C3 1.892 . S
C373 C198 1.972 . S
C387 C232 1.970 . S
C391 C103 1.891 . S
C405 C266 1.972 . S
C409 C69 1.893 . S
C423 C28 0.270 . S
C427 C74 0.270 . S
C441 C108 0.223 . S
C445 C62 0.223 . S
C459 C210 0.264 . S
C463 C164 0.264 . S
C477 C176 0.268 . S
C481 C244 0.268 . S
C495 C15 2.085 . S
C499 C49 2.091 . S
C513 C124 2.094 . S
C517 C90 2.090 . S
C531 C151 2.095 . S
C535 C192 2.083 . S
C549 C260 2.092 . S
C553 C226 2.092 . S
C567 C219 1.093 . S
C571 C22 1.093 . S
C585 C56 1.104 . S
C589 C253 1.104 . S
C603 C83 1.091 . S
C607 C158 1.091 . S
C621 C117 1.115 . S
C625 C185 1.115 . S
C639 C241 1.808 . S
C643 C17 1.879 . S
C657 C207 1.802 . S
C661 C51 1.880 . S
C675 C85 1.880 . S
C679 C173 1.803 . S
C693 C119 1.878 . S
C697 C137 1.808 . S
C711 C153 1.879 . S
C715 C105 1.796 . S
C729 C71 1.809 . S
C733 C187 1.880 . S
C747 C35 1.806 . S
C751 C221 1.878 . S
C765 C1 1.796 . S
C769 C255 1.878 . S
