# Generated by pormake.
# Topology kag, (6)-cn, num edge types: 1
# Building blocks:
#     Node 0, Type 0, BuildingBlock: BETGAK_clean_sbu_0, # of connection points: 6
#     Node 1, Type 0, BuildingBlock: BETGAK_clean_sbu_0, # of connection points: 6
#     Node 2, Type 0, BuildingBlock: BETGAK_clean_sbu_0, # of connection points: 6
#     Edge 3, Type (0, 0), BuildingBlock: KIFKEQ_clean_linker_1, # of connection points: 2
#     Edge 4, Type (0, 0), BuildingBlock: KIFKEQ_clean_linker_1, # of connection points: 2
#     Edge 5, Type (0, 0), BuildingBlock: KIFKEQ_clean_linker_1, # of connection points: 2
#     Edge 6, Type (0, 0), BuildingBlock: KIFKEQ_clean_linker_1, # of connection points: 2
#     Edge 7, Type (0, 0), BuildingBlock: KIFKEQ_clean_linker_1, # of connection points: 2
#     Edge 8, Type (0, 0), BuildingBlock: KIFKEQ_clean_linker_1, # of connection points: 2
#     Edge 9, Type (0, 0), BuildingBlock: KIFKEQ_clean_linker_1, # of connection points: 2
#     Edge 10, Type (0, 0), BuildingBlock: KIFKEQ_clean_linker_1, # of connection points: 2
#     Edge 11, Type (0, 0), BuildingBlock: KIFKEQ_clean_linker_1, # of connection points: 2
# Relax obj value: 0.077
# Max RMSD: 0.192
# Mean RMSD: 0.102
data_MOF--net-kag--node1-BETGAK_clean_sbu_0--edge1-KIFKEQ_clean_linker_1
_symmetry_space_group_name_H-M    P1
_symmetry_Int_Tables_number       1
_symmetry_cell_setting            triclinic
loop_
_symmetry_equiv_pos_as_xyz
'x, y, z'
_cell_length_a     31.379725
_cell_length_b     42.303222
_cell_length_c     14.644727
_cell_angle_alpha  94.961772
_cell_angle_beta   92.164434
_cell_angle_gamma 96.34857
loop_
_atom_site_label
_atom_site_type_symbol
_atom_site_fract_x
_atom_site_fract_y
_atom_site_fract_z
_atom_type_partial_charge
La0 La 1.07107 0.4879 0.03322 0.0
La1 La 0.07743 0.55718 1.01356 0.0
C2 C 1.05326 0.43239 0.08261 0.0
C3 C 1.0186 0.40539 0.06645 0.0
C4 C 1.02028 0.38169 0.9936 0.0
C5 C 0.98938 0.35503 0.98196 0.0
C6 C 0.95609 0.35126 0.04315 0.0
C7 C 0.95413 0.37514 0.11549 0.0
C8 C 0.98508 0.40185 0.12715 0.0
C9 C 0.07686 0.50275 0.86128 0.0
C10 C 0.98553 0.52176 1.01112 0.0
C11 C 0.0941 0.61281 0.96425 0.0
C12 C 0.12889 0.63949 0.97259 0.0
C13 C 0.15318 0.64854 0.05513 0.0
C14 C 0.18336 0.67576 0.06292 0.0
C15 C 0.18979 0.69435 0.9883 0.0
C16 C 0.16646 0.68439 0.9049 0.0
C17 C 0.1363 0.65731 0.89731 0.0
C18 C 1.07074 0.54156 0.1846 0.0
C19 C 0.16296 0.5234 0.03566 0.0
O20 O 0.07682 0.4389 1.01339 0.0
O21 O 1.04426 0.45836 0.12967 0.0
O22 O 0.09208 0.47857 0.89338 0.0
O23 O 1.056 0.516 0.92258 0.0
O24 O 1.00372 0.49771 0.04202 0.0
O25 O 1.00899 0.54614 0.98031 0.0
O26 O 0.07455 0.60642 0.03887 0.0
O27 O 0.10106 0.58691 0.91432 0.0
O28 O 1.05399 0.5651 0.15223 0.0
O29 O 0.09261 0.52914 0.12386 0.0
O30 O 0.14479 0.5474 1.00447 0.0
O31 O 0.13947 0.49912 0.06686 0.0
H32 H 1.046 0.38335 0.94635 0.0
H33 H 0.99238 0.33689 0.92645 0.0
H34 H 0.92871 0.37317 0.1634 0.0
H35 H 0.98307 0.41949 0.18453 0.0
H36 H 0.14815 0.63505 0.11415 0.0
H37 H 0.20058 0.68281 0.12826 0.0
H38 H 0.1712 0.69773 0.84552 0.0
H39 H 0.11807 0.65062 0.83288 0.0
La40 La 0.62098 0.02659 1.0089 0.0
La41 La 0.52711 1.01815 0.03066 0.0
C42 C 0.69368 0.04692 0.95656 0.0
C43 C 0.71938 0.07863 0.96548 0.0
C44 C 0.72952 0.0957 0.05167 0.0
C45 C 0.75301 0.12597 0.05843 0.0
C46 C 0.76661 0.14001 0.97922 0.0
C47 C 0.7561 0.12291 0.89304 0.0
C48 C 0.73289 0.09253 0.88637 0.0
C49 C 0.5991 1.01914 0.1787 0.0
C50 C 0.56936 0.08799 0.0453 0.0
C51 C 0.45277 0.99855 0.0764 0.0
C52 C 0.4272 0.96688 0.07284 0.0
C53 C 0.38671 0.96211 0.02667 0.0
C54 C 0.36277 0.93202 1.0184 0.0
C55 C 0.37875 0.90601 0.05645 0.0
C56 C 0.41906 0.91093 0.10404 0.0
C57 C 0.44307 0.94105 0.11209 0.0
C58 C 0.55055 0.02613 0.86203 0.0
C59 C 0.57896 0.95687 0.99744 0.0
O60 O 0.68794 0.0327 0.03178 0.0
O61 O 0.6584 0.04445 0.90459 0.0
O62 O 0.63269 1.00903 0.14239 0.0
O63 O 0.58082 0.03485 0.12237 0.0
O64 O 0.60407 0.07585 1.01596 0.0
O65 O 0.53528 0.06939 0.06708 0.0
O66 O 0.46086 1.0093 0.99709 0.0
O67 O 0.48639 1.00375 0.13361 0.0
O68 O 0.51802 0.03779 0.89851 0.0
O69 O 0.56727 1.00958 0.91806 0.0
O70 O 0.54469 0.96911 0.02896 0.0
O71 O 0.61241 0.97538 0.97248 0.0
H72 H 0.71932 0.08575 0.11405 0.0
H73 H 0.76096 0.13816 0.12601 0.0
H74 H 0.76536 0.13312 0.83044 0.0
H75 H 0.72512 0.07998 0.81912 0.0
H76 H 0.37374 0.98166 0.99614 0.0
H77 H 0.33157 0.92916 0.98253 0.0
H78 H 0.43247 0.89135 0.13335 0.0
H79 H 0.4743 0.94392 0.14784 0.0
La80 La 0.58097 0.55791 0.0262 0.0
La81 La 0.56745 0.48723 0.02129 0.0
C82 C 0.58086 0.61615 1.00497 0.0
C83 C 0.58099 0.65082 0.99703 0.0
C84 C 0.58402 0.67209 0.07677 0.0
C85 C 0.58369 0.70483 0.07106 0.0
C86 C 0.58019 0.71724 0.98542 0.0
C87 C 0.57766 0.69598 0.90535 0.0
C88 C 0.57803 0.66307 0.91113 0.0
C89 C 0.59119 0.53553 0.18702 0.0
C90 C 0.48573 0.52172 0.03007 0.0
C91 C 0.56757 0.42884 0.04067 0.0
C92 C 0.56751 0.39413 0.04806 0.0
C93 C 0.56469 0.37297 0.96811 0.0
C94 C 0.5651 0.34021 0.97351 0.0
C95 C 0.56846 0.32769 0.05902 0.0
C96 C 0.57079 0.34885 0.13926 0.0
C97 C 0.57036 0.38176 0.1338 0.0
C98 C 0.55814 0.51044 0.86103 0.0
C99 C 0.6628 0.52339 1.01852 0.0
O100 O 0.5802 0.60464 0.08489 0.0
O101 O 0.58121 0.59455 0.93523 0.0
O102 O 0.61424 0.55989 0.15966 0.0
O103 O 0.56262 0.52495 0.12563 0.0
O104 O 0.51052 0.54742 1.00995 0.0
O105 O 0.50209 0.49545 0.04899 0.0
O106 O 0.56732 0.44053 0.96102 0.0
O107 O 0.56805 0.45029 0.11094 0.0
O108 O 0.53416 0.48629 0.88704 0.0
O109 O 0.5865 0.52014 0.9232 0.0
O110 O 0.63793 0.4976 0.03774 0.0
O111 O 0.64649 0.54972 0.99986 0.0
H112 H 0.5867 0.66349 0.14406 0.0
H113 H 0.58655 0.72049 0.13407 0.0
H114 H 0.57462 0.7047 0.83831 0.0
H115 H 0.57566 0.64723 0.84851 0.0
H116 H 0.56214 0.38168 0.90094 0.0
H117 H 0.56241 0.32464 0.91036 0.0
H118 H 0.57373 0.34005 0.20622 0.0
H119 H 0.57257 0.39751 0.19659 0.0
H120 H 1.04768 0.5531 0.78091 0.0
H121 H 0.10274 0.46528 0.71807 0.0
H122 H 1.04739 0.56277 0.61909 0.0
H123 H 0.0997 0.47341 0.55586 0.0
H124 H 0.12603 0.50834 0.27691 0.0
H125 H 0.12844 0.50005 0.4396 0.0
H126 H 1.01618 0.54996 0.47488 0.0
H127 H 1.01595 0.55986 0.3135 0.0
C128 C 1.05951 0.53576 0.7323 0.0
C129 C 0.07558 0.50859 0.76255 0.0
C130 C 1.0589 0.54105 0.63886 0.0
C131 C 0.07352 0.51893 0.57265 0.0
C132 C 0.08906 0.49152 0.6037 0.0
C133 C 0.09046 0.48662 0.69717 0.0
C134 C 0.10195 0.51751 0.31974 0.0
C135 C 1.07093 0.53486 0.28253 0.0
C136 C 0.10303 0.51258 0.41336 0.0
C137 C 0.0725 0.52428 0.47215 0.0
C138 C 1.04096 0.54114 0.43358 0.0
C139 C 1.04048 0.5466 0.34044 0.0
H140 H 0.5316 0.04065 0.27 0.0
H141 H 0.6501 1.00009 0.31302 0.0
H142 H 0.51964 0.04156 0.4337 0.0
H143 H 0.64024 1.00313 0.47708 0.0
H144 H 0.59479 0.98474 0.75988 0.0
H145 H 0.60497 0.98219 0.59545 0.0
H146 H 0.53837 0.06591 0.57787 0.0
H147 H 0.52595 0.06684 0.74126 0.0
C148 C 0.55515 0.03199 0.3146 0.0
C149 C 0.59152 1.01997 0.27833 0.0
C150 C 0.54868 0.0329 0.40908 0.0
C151 C 0.57894 0.02246 0.47023 0.0
C152 C 0.61556 1.01074 0.43317 0.0
C153 C 0.6215 1.00923 0.33866 0.0
C154 C 0.58243 1.00258 0.7206 0.0
C155 C 0.55946 0.02591 0.76328 0.0
C156 C 0.58847 1.00132 0.62601 0.0
C157 C 0.57251 0.02382 0.57175 0.0
C158 C 0.55034 0.04762 0.61576 0.0
C159 C 0.54355 0.04843 0.70997 0.0
H160 H 0.62827 0.53757 0.7809 0.0
H161 H 0.49742 0.49564 0.72206 0.0
H162 H 0.63761 0.54169 0.61817 0.0
H163 H 0.50547 0.50159 0.55917 0.0
H164 H 0.54319 0.48755 0.26387 0.0
H165 H 0.53575 0.48149 0.4271 0.0
H166 H 0.62192 0.56831 0.49358 0.0
H167 H 0.63139 0.57282 0.33168 0.0
C168 C 0.6012 0.52985 0.73301 0.0
C169 C 0.56214 0.51628 0.76378 0.0
C170 C 0.60642 0.53231 0.63944 0.0
C171 C 0.57234 0.52191 0.57451 0.0
C172 C 0.53281 0.50917 0.6063 0.0
C173 C 0.52793 0.50612 0.6998 0.0
C174 C 0.56095 0.50496 0.31378 0.0
C175 C 0.58802 0.5305 0.28515 0.0
C176 C 0.55632 0.5018 0.40746 0.0
C177 C 0.57806 0.5245 0.47445 0.0
C178 C 0.60527 0.54994 0.4449 0.0
C179 C 0.61053 0.55268 0.35164 0.0
H180 H 0.22077 0.56296 0.95088 0.0
H181 H 0.2126 0.48562 0.12588 0.0
H182 H 0.29832 0.56268 0.94925 0.0
H183 H 0.29024 0.48615 0.12754 0.0
H184 H 0.42351 0.47129 0.03408 0.0
H185 H 0.3462 0.47226 0.03562 0.0
H186 H 0.36379 0.57508 0.03564 0.0
H187 H 0.44111 0.57387 0.03029 0.0
C188 C 0.23558 0.54612 0.98991 0.0
C189 C 0.21041 0.52422 0.03821 0.0
C190 C 0.2802 0.54607 0.98944 0.0
C191 C 0.30087 0.52432 0.03805 0.0
C192 C 0.27559 0.50281 0.08768 0.0
C193 C 0.23096 0.50264 0.08731 0.0
C194 C 0.4109 0.49412 0.03442 0.0
C195 C 0.43858 0.52249 0.032 0.0
C196 C 0.36644 0.49473 0.03595 0.0
C197 C 0.34841 0.52377 0.03616 0.0
C198 C 0.37624 0.55218 0.03408 0.0
C199 C 0.42072 0.55153 0.03153 0.0
H200 H 0.83394 0.16063 0.87689 0.0
H201 H 0.75716 0.19239 0.09841 0.0
H202 H 0.87649 0.2127 0.89085 0.0
H203 H 0.80048 0.2443 0.11341 0.0
H204 H 0.92317 0.31648 0.1791 0.0
H205 H 0.87513 0.26671 0.16226 0.0
H206 H 0.87037 0.26934 0.868 0.0
H207 H 0.91802 0.31934 0.8847 0.0
C208 C 0.82576 0.17878 0.92791 0.0
C209 C 0.79206 0.17216 0.98659 0.0
C210 C 0.85026 0.20865 0.93598 0.0
C211 C 0.8419 0.23264 1.00329 0.0
C212 C 0.80808 0.22618 0.06163 0.0
C213 C 0.78335 0.19636 0.05315 0.0
C214 C 0.91132 0.30678 0.11086 0.0
C215 C 0.92466 0.32191 0.03323 0.0
C216 C 0.88382 0.27819 0.10124 0.0
C217 C 0.86911 0.26397 1.01376 0.0
C218 C 0.8817 0.27941 0.93626 0.0
C219 C 0.90905 0.30806 0.94587 0.0
H220 H 0.51139 0.91176 1.01588 0.0
H221 H 0.64585 0.92203 0.9573 0.0
H222 H 0.51081 0.85414 1.00636 0.0
H223 H 0.6455 0.86405 0.94939 0.0
H224 H 0.6197 0.75625 0.86527 0.0
H225 H 0.61858 0.81383 0.8616 0.0
H226 H 0.5378 0.81487 0.09405 0.0
H227 H 0.53745 0.75746 0.09519 0.0
C228 C 0.54095 0.90176 1.00143 0.0
C229 C 0.57877 0.92163 0.98827 0.0
C230 C 0.54064 0.86861 0.99619 0.0
C231 C 0.5782 0.85435 0.9779 0.0
C232 C 0.61588 0.87417 0.96278 0.0
C233 C 0.61615 0.90744 0.96781 0.0
C234 C 0.60126 0.76874 0.91476 0.0
C235 C 0.5788 0.75218 0.98073 0.0
C236 C 0.60102 0.80182 0.91336 0.0
C237 C 0.57816 0.81908 0.97762 0.0
C238 C 0.55536 0.80239 0.0428 0.0
C239 C 0.5556 0.76944 0.04419 0.0
H240 H 0.93577 0.55975 0.92205 0.0
H241 H 0.92787 0.48202 0.09567 0.0
H242 H 0.85813 0.5592 0.92099 0.0
H243 H 0.85034 0.48228 0.09791 0.0
H244 H 0.70742 0.47121 1.01744 0.0
H245 H 0.78474 0.47003 1.01176 0.0
H246 H 0.80232 0.5729 1.0136 0.0
H247 H 0.72503 0.57386 1.01548 0.0
C248 C 0.91747 0.54263 0.96044 0.0
C249 C 0.93809 0.52094 1.00895 0.0
C250 C 0.87285 0.54245 0.96042 0.0
C251 C 0.84765 0.52083 1.00984 0.0
C252 C 0.86839 0.49898 0.0579 0.0
C253 C 0.913 0.49894 0.05706 0.0
C254 C 0.72782 0.49357 1.01656 0.0
C255 C 0.70995 0.52262 1.01668 0.0
C256 C 0.77229 0.49293 1.01382 0.0
C257 C 0.80011 0.52136 1.0121 0.0
C258 C 0.78208 0.55042 1.01297 0.0
C259 C 0.73763 0.55102 1.0147 0.0
H260 H 0.26922 0.7068 0.0785 0.0
H261 H 0.17667 0.75095 0.92128 0.0
H262 H 0.31669 0.75704 0.09445 0.0
H263 H 0.22384 0.80087 0.9371 0.0
H264 H 0.33473 0.87614 0.90262 0.0
H265 H 0.29121 0.82443 0.88561 0.0
H266 H 0.32197 0.81133 0.16891 0.0
H267 H 0.36587 0.8631 0.18566 0.0
C268 C 0.2589 0.72723 0.04773 0.0
C269 C 0.21923 0.72473 0.99804 0.0
C270 C 0.2861 0.75603 0.05689 0.0
C271 C 0.27423 0.78298 1.01659 0.0
C272 C 0.23447 0.78045 0.96739 0.0
C273 C 0.20737 0.75176 0.95827 0.0
C274 C 0.33204 0.86231 0.96144 0.0
C275 C 0.35348 0.87389 0.04571 0.0
C276 C 0.30708 0.83264 0.95171 0.0
C277 C 0.30276 0.81379 0.02609 0.0
C278 C 0.32493 0.82506 0.10993 0.0
C279 C 0.35005 0.85475 0.11959 0.0
H280 H 0.52878 0.28858 0.17868 0.0
H281 H 0.61136 0.28754 0.9493 0.0
H282 H 0.53 0.23102 0.1823 0.0
H283 H 0.6111 0.23012 0.95036 0.0
H284 H 0.63714 0.13302 0.02699 0.0
H285 H 0.63788 0.19069 0.03755 0.0
H286 H 0.50319 0.18091 0.09455 0.0
H287 H 0.50266 0.12294 0.08623 0.0
C288 C 0.54732 0.27613 0.12929 0.0
C289 C 0.56985 0.29273 0.0635 0.0
C290 C 0.54762 0.24306 0.13067 0.0
C291 C 0.57059 0.22584 0.06654 0.0
C292 C 0.59346 0.24257 1.00153 0.0
C293 C 0.59316 0.27552 1.00016 0.0
C294 C 0.60762 0.14307 0.04211 0.0
C295 C 0.56972 0.12324 0.05524 0.0
C296 C 0.60803 0.17624 0.04771 0.0
C297 C 0.57051 0.19055 0.06613 0.0
C298 C 0.53278 0.17076 0.08112 0.0
C299 C 0.5324 0.13749 0.07584 0.0
loop_
_geom_bond_atom_site_label_1
_geom_bond_atom_site_label_2
_geom_bond_distance
_geom_bond_site_symmetry_2
_ccdc_geom_bond_type
La0 C2 2.928 . S
La0 O20 2.521 . S
La0 O21 2.628 1_556 S
La0 O22 2.554 . S
La0 O23 2.757 1_655 S
La0 O24 2.470 . S
La0 O29 2.482 1_556 S
La0 O31 2.503 1_655 S
La1 C11 2.928 . S
La1 O23 2.482 1_554 S
La1 O25 2.503 1_455 S
La1 O26 2.521 . S
La1 O27 2.628 1_554 S
La1 O28 2.554 . S
La1 O29 2.757 1_455 S
La1 O30 2.470 . S
C2 La0 2.928 . S
C2 C3 1.503 . S
C2 O20 1.261 . S
C2 O21 1.243 1_556 S
C3 C2 1.503 . S
C3 C4 1.394 . S
C3 C8 1.373 1_556 S
C4 C3 1.394 . S
C4 C5 1.380 . S
C4 H32 0.930 . S
C5 C4 1.380 . S
C5 C6 1.376 . S
C5 H33 0.930 . S
C6 C5 1.376 . S
C6 C7 1.370 1_556 S
C7 C6 1.370 1_554 S
C7 C8 1.396 . S
C7 H34 0.929 . S
C8 C3 1.373 1_554 S
C8 C7 1.396 . S
C8 H35 0.929 . S
C9 O22 1.240 1_455 S
C9 O23 1.289 . S
C10 O24 1.258 . S
C10 O25 1.256 1_556 S
C11 La1 2.928 . S
C11 C12 1.503 . S
C11 O26 1.261 . S
C11 O27 1.243 1_554 S
C12 C11 1.503 . S
C12 C13 1.394 . S
C12 C17 1.373 1_554 S
C13 C12 1.394 . S
C13 C14 1.380 . S
C13 H36 0.930 . S
C14 C13 1.380 . S
C14 C15 1.376 . S
C14 H37 0.930 . S
C15 C14 1.376 . S
C15 C16 1.370 1_554 S
C16 C15 1.370 1_556 S
C16 C17 1.396 . S
C16 H38 0.929 . S
C17 C12 1.373 1_556 S
C17 C16 1.396 . S
C17 H39 0.929 . S
C18 O28 1.240 . S
C18 O29 1.289 1_455 S
C19 O30 1.258 . S
C19 O31 1.256 1_554 S
O20 La0 2.521 . S
O20 C2 1.261 . S
O21 La0 2.628 1_554 S
O21 C2 1.243 1_554 S
O22 La0 2.554 . S
O22 C9 1.240 1_655 S
O23 La0 2.757 1_455 S
O23 La1 2.482 1_556 S
O23 C9 1.289 . S
O24 La0 2.470 . S
O24 C10 1.258 . S
O25 La1 2.503 1_655 S
O25 C10 1.256 1_554 S
O26 La1 2.521 . S
O26 C11 1.261 . S
O27 La1 2.628 1_556 S
O27 C11 1.243 1_556 S
O28 La1 2.554 . S
O28 C18 1.240 . S
O29 La0 2.482 1_554 S
O29 La1 2.757 1_655 S
O29 C18 1.289 1_655 S
O30 La1 2.470 . S
O30 C19 1.258 . S
O31 La0 2.503 1_455 S
O31 C19 1.256 1_556 S
H32 C4 0.930 . S
H33 C5 0.930 . S
H34 C7 0.929 . S
H35 C8 0.929 . S
H36 C13 0.930 . S
H37 C14 0.930 . S
H38 C16 0.929 . S
H39 C17 0.929 . S
La40 C42 2.926 1_554 S
La40 O60 2.521 . S
La40 O61 2.628 1_554 S
La40 O62 2.554 . S
La40 O63 2.757 1_545 S
La40 O64 2.470 . S
La40 O69 2.482 1_554 S
La40 O71 2.503 1_544 S
La41 C51 2.928 1_556 S
La41 O63 2.482 1_556 S
La41 O65 2.503 1_566 S
La41 O66 2.521 . S
La41 O67 2.628 1_556 S
La41 O68 2.554 . S
La41 O69 2.757 1_565 S
La41 O70 2.470 . S
C42 La40 2.926 1_556 S
C42 C43 1.504 . S
C42 O60 1.252 1_556 S
C42 O61 1.251 . S
C43 C42 1.504 . S
C43 C44 1.394 1_556 S
C43 C48 1.373 . S
C44 C43 1.394 1_554 S
C44 C45 1.380 . S
C44 H72 0.930 . S
C45 C44 1.380 . S
C45 C46 1.376 1_554 S
C45 H73 0.930 . S
C46 C45 1.376 1_556 S
C46 C47 1.370 . S
C47 C46 1.370 . S
C47 C48 1.396 . S
C47 H74 0.929 . S
C48 C43 1.373 . S
C48 C47 1.396 . S
C48 H75 0.929 . S
C49 O62 1.240 . S
C49 O63 1.289 1_545 S
C50 O64 1.258 . S
C50 O65 1.256 . S
C51 La41 2.928 1_554 S
C51 C52 1.503 . S
C51 O66 1.261 1_554 S
C51 O67 1.243 . S
C52 C51 1.503 . S
C52 C53 1.394 1_554 S
C52 C57 1.373 . S
C53 C52 1.394 1_556 S
C53 C54 1.380 . S
C53 H76 0.930 . S
C54 C53 1.380 . S
C54 C55 1.376 1_556 S
C54 H77 0.930 . S
C55 C54 1.376 1_554 S
C55 C56 1.370 . S
C56 C55 1.370 . S
C56 C57 1.396 . S
C56 H78 0.929 . S
C57 C52 1.373 . S
C57 C56 1.396 . S
C57 H79 0.929 . S
C58 O68 1.240 . S
C58 O69 1.289 1_565 S
C59 O70 1.258 . S
C59 O71 1.256 . S
O60 La40 2.521 . S
O60 C42 1.252 1_554 S
O61 La40 2.628 1_556 S
O61 C42 1.251 . S
O62 La40 2.554 . S
O62 C49 1.240 . S
O63 La40 2.757 1_565 S
O63 La41 2.482 1_554 S
O63 C49 1.289 1_565 S
O64 La40 2.470 . S
O64 C50 1.258 . S
O65 La41 2.503 1_544 S
O65 C50 1.256 . S
O66 La41 2.521 . S
O66 C51 1.261 1_556 S
O67 La41 2.628 1_554 S
O67 C51 1.243 . S
O68 La41 2.554 . S
O68 C58 1.240 . S
O69 La40 2.482 1_556 S
O69 La41 2.757 1_545 S
O69 C58 1.289 1_545 S
O70 La41 2.470 . S
O70 C59 1.258 . S
O71 La40 2.503 1_566 S
O71 C59 1.256 . S
H72 C44 0.930 . S
H73 C45 0.930 . S
H74 C47 0.929 . S
H75 C48 0.929 . S
H76 C53 0.930 . S
H77 C54 0.930 . S
H78 C56 0.929 . S
H79 C57 0.929 . S
La80 C82 2.928 . S
La80 O100 2.521 . S
La80 O101 2.628 1_554 S
La80 O102 2.554 . S
La80 O103 2.757 . S
La80 O104 2.470 . S
La80 O109 2.482 1_554 S
La80 O111 2.503 . S
La81 C91 2.928 . S
La81 O103 2.482 1_556 S
La81 O105 2.503 . S
La81 O106 2.521 . S
La81 O107 2.628 1_556 S
La81 O108 2.554 . S
La81 O109 2.757 . S
La81 O110 2.470 . S
C82 La80 2.928 . S
C82 C83 1.503 . S
C82 O100 1.261 . S
C82 O101 1.243 1_554 S
C83 C82 1.503 . S
C83 C84 1.394 . S
C83 C88 1.373 1_554 S
C84 C83 1.394 . S
C84 C85 1.380 . S
C84 H112 0.930 . S
C85 C84 1.380 . S
C85 C86 1.381 . S
C85 H113 0.930 . S
C86 C85 1.381 . S
C86 C87 1.366 1_554 S
C87 C86 1.366 1_556 S
C87 C88 1.396 . S
C87 H114 0.929 . S
C88 C83 1.373 1_556 S
C88 C87 1.396 . S
C88 H115 0.929 . S
C89 O102 1.240 . S
C89 O103 1.289 . S
C90 O104 1.258 . S
C90 O105 1.256 1_554 S
C91 La81 2.928 . S
C91 C92 1.503 . S
C91 O106 1.261 . S
C91 O107 1.243 1_556 S
C92 C91 1.503 . S
C92 C93 1.394 . S
C92 C97 1.373 1_556 S
C93 C92 1.394 . S
C93 C94 1.380 . S
C93 H116 0.930 . S
C94 C93 1.380 . S
C94 C95 1.376 . S
C94 H117 0.930 . S
C95 C94 1.376 . S
C95 C96 1.371 1_556 S
C96 C95 1.371 1_554 S
C96 C97 1.396 . S
C96 H118 0.929 . S
C97 C92 1.373 1_554 S
C97 C96 1.396 . S
C97 H119 0.929 . S
C98 O108 1.240 . S
C98 O109 1.289 . S
C99 O110 1.258 . S
C99 O111 1.256 1_556 S
O100 La80 2.521 . S
O100 C82 1.261 . S
O101 La80 2.628 1_556 S
O101 C82 1.243 1_556 S
O102 La80 2.554 . S
O102 C89 1.240 . S
O103 La80 2.757 . S
O103 La81 2.482 1_554 S
O103 C89 1.289 . S
O104 La80 2.470 . S
O104 C90 1.258 . S
O105 La81 2.503 . S
O105 C90 1.256 1_556 S
O106 La81 2.521 . S
O106 C91 1.261 . S
O107 La81 2.628 1_554 S
O107 C91 1.243 1_554 S
O108 La81 2.554 . S
O108 C98 1.240 . S
O109 La80 2.482 1_556 S
O109 La81 2.757 . S
O109 C98 1.289 . S
O110 La81 2.470 . S
O110 C99 1.258 . S
O111 La80 2.503 . S
O111 C99 1.256 1_554 S
H112 C84 0.930 . S
H113 C85 0.930 . S
H114 C87 0.929 . S
H115 C88 0.929 . S
H116 C93 0.930 . S
H117 C94 0.930 . S
H118 C96 0.929 . S
H119 C97 0.929 . S
H120 C128 0.950 . S
H121 C133 0.950 . S
H122 C130 0.950 . S
H123 C132 0.950 . S
H124 C134 0.950 . S
H125 C136 0.950 . S
H126 C138 0.950 . S
H127 C139 0.950 . S
C128 H120 0.950 . S
C128 C129 1.386 1_655 S
C128 C130 1.391 . S
C129 C128 1.386 1_455 S
C129 C133 1.393 . S
C130 H122 0.950 . S
C130 C128 1.391 . S
C130 C131 1.400 1_655 S
C131 C130 1.400 1_455 S
C131 C132 1.398 . S
C131 C137 1.491 . S
C132 H123 0.950 . S
C132 C131 1.398 . S
C132 C133 1.391 . S
C133 H121 0.950 . S
C133 C129 1.393 . S
C133 C132 1.391 . S
C134 H124 0.950 . S
C134 C135 1.376 1_455 S
C134 C136 1.391 . S
C135 C134 1.376 1_655 S
C135 C139 1.403 . S
C136 H125 0.950 . S
C136 C134 1.391 . S
C136 C137 1.400 . S
C137 C131 1.491 . S
C137 C136 1.400 . S
C137 C138 1.398 1_455 S
C138 H126 0.950 . S
C138 C137 1.398 1_655 S
C138 C139 1.391 . S
C139 H127 0.950 . S
C139 C135 1.403 . S
C139 C138 1.391 . S
H140 C148 0.951 1_545 S
H141 C153 0.950 . S
H142 C150 0.948 . S
H143 C152 0.950 . S
H144 C154 0.949 . S
H145 C156 0.948 . S
H146 C158 0.950 . S
H147 C159 0.950 . S
C148 H140 0.951 1_565 S
C148 C149 1.384 . S
C148 C150 1.391 1_565 S
C149 C148 1.384 . S
C149 C153 1.395 . S
C150 H142 0.948 . S
C150 C148 1.391 1_545 S
C150 C151 1.399 1_545 S
C151 C150 1.399 1_565 S
C151 C152 1.398 . S
C151 C157 1.493 1_565 S
C152 H143 0.950 . S
C152 C151 1.398 . S
C152 C153 1.391 . S
C153 H141 0.950 . S
C153 C149 1.395 . S
C153 C152 1.391 . S
C154 H144 0.949 . S
C154 C155 1.389 . S
C154 C156 1.392 . S
C155 C154 1.389 . S
C155 C159 1.393 . S
C156 H145 0.948 . S
C156 C154 1.392 . S
C156 C157 1.398 . S
C157 C151 1.493 1_545 S
C157 C156 1.398 . S
C157 C158 1.403 . S
C158 H146 0.950 . S
C158 C157 1.403 . S
C158 C159 1.391 . S
C159 H147 0.950 . S
C159 C155 1.393 . S
C159 C158 1.391 . S
H160 C168 0.950 . S
H161 C173 0.950 . S
H162 C170 0.950 . S
H163 C172 0.950 . S
H164 C174 0.950 . S
H165 C176 0.950 . S
H166 C178 0.950 . S
H167 C179 0.950 . S
C168 H160 0.950 . S
C168 C169 1.386 . S
C168 C170 1.391 . S
C169 C168 1.386 . S
C169 C173 1.393 . S
C170 H162 0.950 . S
C170 C168 1.391 . S
C170 C171 1.400 . S
C171 C170 1.400 . S
C171 C172 1.398 . S
C171 C177 1.491 . S
C172 H163 0.950 . S
C172 C171 1.398 . S
C172 C173 1.391 . S
C173 H161 0.950 . S
C173 C169 1.393 . S
C173 C172 1.391 . S
C174 H164 0.950 . S
C174 C175 1.386 . S
C174 C176 1.391 . S
C175 C174 1.386 . S
C175 C179 1.393 . S
C176 H165 0.950 . S
C176 C174 1.391 . S
C176 C177 1.400 . S
C177 C171 1.491 . S
C177 C176 1.400 . S
C177 C178 1.398 . S
C178 H166 0.950 . S
C178 C177 1.398 . S
C178 C179 1.391 . S
C179 H167 0.950 . S
C179 C175 1.393 . S
C179 C178 1.391 . S
H180 C188 0.950 . S
H181 C193 0.950 . S
H182 C190 0.950 . S
H183 C192 0.950 . S
H184 C194 0.950 . S
H185 C196 0.950 . S
H186 C198 0.950 . S
H187 C199 0.950 . S
C188 H180 0.950 . S
C188 C189 1.386 1_554 S
C188 C190 1.391 . S
C189 C188 1.386 1_556 S
C189 C193 1.393 . S
C190 H182 0.950 . S
C190 C188 1.391 . S
C190 C191 1.400 1_554 S
C191 C190 1.400 1_556 S
C191 C192 1.398 . S
C191 C197 1.491 . S
C192 H183 0.950 . S
C192 C191 1.398 . S
C192 C193 1.391 . S
C193 H181 0.950 . S
C193 C189 1.393 . S
C193 C192 1.391 . S
C194 H184 0.950 . S
C194 C195 1.386 . S
C194 C196 1.391 . S
C195 C194 1.386 . S
C195 C199 1.393 1_556 S
C196 H185 0.950 . S
C196 C194 1.391 . S
C196 C197 1.400 . S
C197 C191 1.491 . S
C197 C196 1.400 . S
C197 C198 1.398 1_556 S
C198 H186 0.950 . S
C198 C197 1.398 1_554 S
C198 C199 1.391 . S
C199 H187 0.950 . S
C199 C195 1.393 1_554 S
C199 C198 1.391 . S
H200 C208 0.950 . S
H201 C213 0.950 . S
H202 C210 0.950 . S
H203 C212 0.950 . S
H204 C214 0.950 . S
H205 C216 0.950 . S
H206 C218 0.950 . S
H207 C219 0.950 . S
C208 H200 0.950 . S
C208 C209 1.386 . S
C208 C210 1.391 . S
C209 C208 1.386 . S
C209 C213 1.393 1_556 S
C210 H202 0.950 . S
C210 C208 1.391 . S
C210 C211 1.400 . S
C211 C210 1.400 . S
C211 C212 1.398 1_556 S
C211 C217 1.491 . S
C212 H203 0.950 . S
C212 C211 1.398 1_554 S
C212 C213 1.391 . S
C213 H201 0.950 . S
C213 C209 1.393 1_554 S
C213 C212 1.391 . S
C214 H204 0.950 . S
C214 C215 1.386 1_554 S
C214 C216 1.391 . S
C215 C214 1.386 1_556 S
C215 C219 1.393 . S
C216 H205 0.950 . S
C216 C214 1.391 . S
C216 C217 1.400 1_554 S
C217 C211 1.491 . S
C217 C216 1.400 1_556 S
C217 C218 1.398 . S
C218 H206 0.950 . S
C218 C217 1.398 . S
C218 C219 1.391 . S
C219 H207 0.950 . S
C219 C215 1.393 . S
C219 C218 1.391 . S
H220 C228 0.950 . S
H221 C233 0.950 . S
H222 C230 0.950 . S
H223 C232 0.950 . S
H224 C234 0.950 . S
H225 C236 0.950 . S
H226 C238 0.950 . S
H227 C239 0.950 . S
C228 H220 0.950 . S
C228 C229 1.386 1_554 S
C228 C230 1.391 . S
C229 C228 1.386 1_556 S
C229 C233 1.393 . S
C230 H222 0.950 . S
C230 C228 1.391 . S
C230 C231 1.400 1_554 S
C231 C230 1.400 1_556 S
C231 C232 1.398 . S
C231 C237 1.492 . S
C232 H223 0.950 . S
C232 C231 1.398 . S
C232 C233 1.391 . S
C233 H221 0.950 . S
C233 C229 1.393 . S
C233 C232 1.391 . S
C234 H224 0.950 . S
C234 C235 1.386 1_556 S
C234 C236 1.391 . S
C235 C234 1.386 1_554 S
C235 C239 1.393 . S
C236 H225 0.950 . S
C236 C234 1.391 . S
C236 C237 1.405 . S
C237 C231 1.492 . S
C237 C236 1.405 . S
C237 C238 1.393 1_556 S
C238 H226 0.950 . S
C238 C237 1.393 1_554 S
C238 C239 1.391 . S
C239 H227 0.950 . S
C239 C235 1.393 . S
C239 C238 1.391 . S
H240 C248 0.950 . S
H241 C253 0.950 . S
H242 C250 0.950 . S
H243 C252 0.950 . S
H244 C254 0.950 . S
H245 C256 0.950 . S
H246 C258 0.950 . S
H247 C259 0.950 . S
C248 H240 0.950 . S
C248 C249 1.386 . S
C248 C250 1.391 . S
C249 C248 1.386 . S
C249 C253 1.393 1_554 S
C250 H242 0.950 . S
C250 C248 1.391 . S
C250 C251 1.400 . S
C251 C250 1.400 . S
C251 C252 1.398 1_554 S
C251 C257 1.491 . S
C252 H243 0.950 . S
C252 C251 1.398 1_556 S
C252 C253 1.391 . S
C253 H241 0.950 . S
C253 C249 1.393 1_556 S
C253 C252 1.391 . S
C254 H244 0.950 . S
C254 C255 1.386 1_556 S
C254 C256 1.391 . S
C255 C254 1.386 1_554 S
C255 C259 1.393 . S
C256 H245 0.950 . S
C256 C254 1.391 . S
C256 C257 1.400 1_556 S
C257 C251 1.491 . S
C257 C256 1.400 1_554 S
C257 C258 1.398 . S
C258 H246 0.950 . S
C258 C257 1.398 . S
C258 C259 1.391 . S
C259 H247 0.950 . S
C259 C255 1.393 . S
C259 C258 1.391 . S
H260 C268 0.950 . S
H261 C273 0.950 . S
H262 C270 0.950 . S
H263 C272 0.950 . S
H264 C274 0.950 . S
H265 C276 0.950 . S
H266 C278 0.950 . S
H267 C279 0.950 . S
C268 H260 0.950 . S
C268 C269 1.386 . S
C268 C270 1.391 . S
C269 C268 1.386 . S
C269 C273 1.393 1_554 S
C270 H262 0.950 . S
C270 C268 1.391 . S
C270 C271 1.400 . S
C271 C270 1.400 . S
C271 C272 1.398 1_554 S
C271 C277 1.491 . S
C272 H263 0.950 . S
C272 C271 1.398 1_556 S
C272 C273 1.391 . S
C273 H261 0.950 . S
C273 C269 1.393 1_556 S
C273 C272 1.391 . S
C274 H264 0.950 . S
C274 C275 1.386 1_556 S
C274 C276 1.391 . S
C275 C274 1.386 1_554 S
C275 C279 1.393 . S
C276 H265 0.950 . S
C276 C274 1.391 . S
C276 C277 1.400 1_556 S
C277 C271 1.491 . S
C277 C276 1.400 1_554 S
C277 C278 1.398 . S
C278 H266 0.950 . S
C278 C277 1.398 . S
C278 C279 1.391 . S
C279 H267 0.950 . S
C279 C275 1.393 . S
C279 C278 1.391 . S
H280 C288 0.950 . S
H281 C293 0.950 . S
H282 C290 0.950 . S
H283 C292 0.950 . S
H284 C294 0.950 . S
H285 C296 0.950 . S
H286 C298 0.950 . S
H287 C299 0.950 . S
C288 H280 0.950 . S
C288 C289 1.386 1_554 S
C288 C290 1.391 . S
C289 C288 1.386 1_556 S
C289 C293 1.393 . S
C290 H282 0.950 . S
C290 C288 1.391 . S
C290 C291 1.401 . S
C291 C290 1.401 . S
C291 C292 1.397 1_554 S
C291 C297 1.491 . S
C292 H283 0.950 . S
C292 C291 1.397 1_556 S
C292 C293 1.391 . S
C293 H281 0.950 . S
C293 C289 1.393 . S
C293 C292 1.391 . S
C294 H284 0.950 . S
C294 C295 1.386 1_556 S
C294 C296 1.391 . S
C295 C294 1.386 1_554 S
C295 C299 1.393 . S
C296 H285 0.950 . S
C296 C294 1.391 . S
C296 C297 1.400 1_556 S
C297 C291 1.491 . S
C297 C296 1.400 1_554 S
C297 C298 1.398 . S
C298 H286 0.950 . S
C298 C297 1.398 . S
C298 C299 1.391 . S
C299 H287 0.950 . S
C299 C295 1.393 . S
C299 C298 1.391 . S
C129 C9 1.462 . S
C135 C18 1.462 1_655 S
C149 C49 1.447 1_565 S
C155 C58 1.449 1_545 S
C169 C98 1.441 . S
C175 C89 1.441 . S
C189 C19 2.610 1_556 S
C195 C90 2.568 1_556 S
C209 C46 0.854 . S
C215 C6 0.853 . S
C229 C59 2.012 . S
C235 C86 1.966 . S
C249 C10 2.610 1_554 S
C255 C99 2.568 1_554 S
C269 C15 0.872 . S
C275 C55 0.872 . S
C289 C95 1.973 . S
C295 C50 2.014 . S
