# Generated by pormake.
# Topology wkt, (7)-cn, num edge types: 1
# Building blocks:
#     Node 0, Type 0, BuildingBlock: HICVOG_clean_sbu_0, # of connection points: 7
#     Node 1, Type 0, BuildingBlock: HICVOG_clean_sbu_0, # of connection points: 7
#     Node 2, Type 0, BuildingBlock: HICVOG_clean_sbu_0, # of connection points: 7
#     Node 3, Type 0, BuildingBlock: HICVOG_clean_sbu_0, # of connection points: 7
#     Node 4, Type 0, BuildingBlock: HICVOG_clean_sbu_0, # of connection points: 7
#     Node 5, Type 0, BuildingBlock: HICVOG_clean_sbu_0, # of connection points: 7
#     Node 6, Type 0, BuildingBlock: HICVOG_clean_sbu_0, # of connection points: 7
#     Node 7, Type 0, BuildingBlock: HICVOG_clean_sbu_0, # of connection points: 7
#     Node 8, Type 0, BuildingBlock: HICVOG_clean_sbu_0, # of connection points: 7
#     Node 9, Type 0, BuildingBlock: HICVOG_clean_sbu_0, # of connection points: 7
#     Node 10, Type 0, BuildingBlock: HICVOG_clean_sbu_0, # of connection points: 7
#     Node 11, Type 0, BuildingBlock: HICVOG_clean_sbu_0, # of connection points: 7
#     Edge 12, Type (0, 0), BuildingBlock: ZUJKAS_clean_linker_0, # of connection points: 2
#     Edge 13, Type (0, 0), BuildingBlock: ZUJKAS_clean_linker_0, # of connection points: 2
#     Edge 14, Type (0, 0), BuildingBlock: ZUJKAS_clean_linker_0, # of connection points: 2
#     Edge 15, Type (0, 0), BuildingBlock: ZUJKAS_clean_linker_0, # of connection points: 2
#     Edge 16, Type (0, 0), BuildingBlock: ZUJKAS_clean_linker_0, # of connection points: 2
#     Edge 17, Type (0, 0), BuildingBlock: ZUJKAS_clean_linker_0, # of connection points: 2
#     Edge 18, Type (0, 0), BuildingBlock: ZUJKAS_clean_linker_0, # of connection points: 2
#     Edge 19, Type (0, 0), BuildingBlock: ZUJKAS_clean_linker_0, # of connection points: 2
#     Edge 20, Type (0, 0), BuildingBlock: ZUJKAS_clean_linker_0, # of connection points: 2
#     Edge 21, Type (0, 0), BuildingBlock: ZUJKAS_clean_linker_0, # of connection points: 2
#     Edge 22, Type (0, 0), BuildingBlock: ZUJKAS_clean_linker_0, # of connection points: 2
#     Edge 23, Type (0, 0), BuildingBlock: ZUJKAS_clean_linker_0, # of connection points: 2
#     Edge 24, Type (0, 0), BuildingBlock: ZUJKAS_clean_linker_0, # of connection points: 2
#     Edge 25, Type (0, 0), BuildingBlock: ZUJKAS_clean_linker_0, # of connection points: 2
#     Edge 26, Type (0, 0), BuildingBlock: ZUJKAS_clean_linker_0, # of connection points: 2
#     Edge 27, Type (0, 0), BuildingBlock: ZUJKAS_clean_linker_0, # of connection points: 2
#     Edge 28, Type (0, 0), BuildingBlock: ZUJKAS_clean_linker_0, # of connection points: 2
#     Edge 29, Type (0, 0), BuildingBlock: ZUJKAS_clean_linker_0, # of connection points: 2
#     Edge 30, Type (0, 0), BuildingBlock: ZUJKAS_clean_linker_0, # of connection points: 2
#     Edge 31, Type (0, 0), BuildingBlock: ZUJKAS_clean_linker_0, # of connection points: 2
#     Edge 32, Type (0, 0), BuildingBlock: ZUJKAS_clean_linker_0, # of connection points: 2
#     Edge 33, Type (0, 0), BuildingBlock: ZUJKAS_clean_linker_0, # of connection points: 2
#     Edge 34, Type (0, 0), BuildingBlock: ZUJKAS_clean_linker_0, # of connection points: 2
#     Edge 35, Type (0, 0), BuildingBlock: ZUJKAS_clean_linker_0, # of connection points: 2
#     Edge 36, Type (0, 0), BuildingBlock: ZUJKAS_clean_linker_0, # of connection points: 2
#     Edge 37, Type (0, 0), BuildingBlock: ZUJKAS_clean_linker_0, # of connection points: 2
#     Edge 38, Type (0, 0), BuildingBlock: ZUJKAS_clean_linker_0, # of connection points: 2
#     Edge 39, Type (0, 0), BuildingBlock: ZUJKAS_clean_linker_0, # of connection points: 2
#     Edge 40, Type (0, 0), BuildingBlock: ZUJKAS_clean_linker_0, # of connection points: 2
#     Edge 41, Type (0, 0), BuildingBlock: ZUJKAS_clean_linker_0, # of connection points: 2
#     Edge 42, Type (0, 0), BuildingBlock: ZUJKAS_clean_linker_0, # of connection points: 2
#     Edge 43, Type (0, 0), BuildingBlock: ZUJKAS_clean_linker_0, # of connection points: 2
#     Edge 44, Type (0, 0), BuildingBlock: ZUJKAS_clean_linker_0, # of connection points: 2
#     Edge 45, Type (0, 0), BuildingBlock: ZUJKAS_clean_linker_0, # of connection points: 2
#     Edge 46, Type (0, 0), BuildingBlock: ZUJKAS_clean_linker_0, # of connection points: 2
#     Edge 47, Type (0, 0), BuildingBlock: ZUJKAS_clean_linker_0, # of connection points: 2
#     Edge 48, Type (0, 0), BuildingBlock: ZUJKAS_clean_linker_0, # of connection points: 2
#     Edge 49, Type (0, 0), BuildingBlock: ZUJKAS_clean_linker_0, # of connection points: 2
#     Edge 50, Type (0, 0), BuildingBlock: ZUJKAS_clean_linker_0, # of connection points: 2
#     Edge 51, Type (0, 0), BuildingBlock: ZUJKAS_clean_linker_0, # of connection points: 2
#     Edge 52, Type (0, 0), BuildingBlock: ZUJKAS_clean_linker_0, # of connection points: 2
#     Edge 53, Type (0, 0), BuildingBlock: ZUJKAS_clean_linker_0, # of connection points: 2
# Relax obj value: 0.165
# Max RMSD: 0.204
# Mean RMSD: 0.204
data_MOF--net-wkt--node1-HICVOG_clean_sbu_0--edge1-ZUJKAS_clean_linker_0
_symmetry_space_group_name_H-M    P1
_symmetry_Int_Tables_number       1
_symmetry_cell_setting            triclinic
loop_
_symmetry_equiv_pos_as_xyz
'x, y, z'
_cell_length_a     40.536392
_cell_length_b     40.564516
_cell_length_c     74.254299
_cell_angle_alpha  90.129667
_cell_angle_beta   89.836448
_cell_angle_gamma 120.07827
loop_
_atom_site_label
_atom_site_type_symbol
_atom_site_fract_x
_atom_site_fract_y
_atom_site_fract_z
_atom_type_partial_charge
Zn0 Zn 0.38511 0.45428 0.06087 0.0
C1 C 0.40216 0.37701 0.08789 0.0
N2 N 0.38485 0.38458 0.1015 0.0
C3 C 0.37994 0.41254 0.0946 0.0
N4 N 0.39368 0.42189 0.07765 0.0
N5 N 0.40731 0.39923 0.07335 0.0
C6 C 0.42703 0.343 0.03549 0.0
O7 O 0.39599 0.34428 0.03188 0.0
O8 O 0.38032 0.49832 0.07288 0.0
Zn9 Zn 0.44442 0.41155 0.05447 0.0
N10 N 0.33657 0.41863 0.05079 0.0
C11 C 0.29872 0.36107 0.03463 0.0
C12 C 0.33404 0.38897 0.04114 0.0
C13 C 0.30532 0.42157 0.05433 0.0
N14 N 0.26733 0.36381 0.03823 0.0
C15 C 0.26951 0.39316 0.04812 0.0
O16 O 0.43743 0.43409 0.03143 0.0
C17 C 0.43305 0.46206 0.02726 0.0
O18 O 0.42027 0.47666 0.0386 0.0
H19 H 0.35922 0.38686 0.03871 0.0
H20 H 0.30858 0.44579 0.06194 0.0
C21 C 0.51921 0.44391 0.06965 0.0
C22 C 0.55072 0.4717 0.07933 0.0
C23 C 0.52182 0.51019 0.08034 0.0
C24 C 0.49078 0.4826 0.07072 0.0
N25 N 0.49021 0.45018 0.06554 0.0
N26 N 0.55104 0.50422 0.08432 0.0
H27 H 0.51767 0.41781 0.06515 0.0
C28 C 0.40314 0.52292 0.08418 0.0
O29 O 0.43215 0.52004 0.09003 0.0
O30 O 0.45164 0.36774 0.0461 0.0
H31 H 0.46698 0.48661 0.06765 0.0
H32 H 0.2962 0.33732 0.02687 0.0
H33 H 0.52273 0.53616 0.0846 0.0
Zn34 Zn 0.04534 0.44717 0.21919 0.0
C35 C 0.97675 0.35251 0.24713 0.0
N36 N 1.0094 0.35277 0.25078 0.0
C37 C 0.03563 0.38364 0.24183 0.0
N38 N 0.01947 0.401 0.23285 0.0
N39 N 0.98228 0.38155 0.23625 0.0
C40 C 0.89105 0.41791 0.23123 0.0
O41 O 0.89609 0.42403 0.21382 0.0
O42 O 0.09681 0.45562 0.21035 0.0
Zn43 Zn 0.94037 0.38491 0.22406 0.0
N44 N 0.05022 0.48657 0.23514 0.0
C45 C 0.01993 0.50774 0.25585 0.0
C46 C 1.018 0.48079 0.24361 0.0
C47 C 0.08445 0.5181 0.2384 0.0
N48 N 0.05401 0.53955 0.25899 0.0
C49 C 0.08655 0.54555 0.25066 0.0
O50 O 0.9544 0.41053 0.19905 0.0
C51 C 0.98397 0.43348 0.19002 0.0
O52 O 1.01726 0.44748 0.19668 0.0
H53 H 0.99107 0.45536 0.24087 0.0
H54 H 0.10932 0.52195 0.23116 0.0
C55 C 0.86701 0.31961 0.22591 0.0
C56 C 0.83975 0.28082 0.22494 0.0
C57 C 0.88549 0.26947 0.21048 0.0
C58 C 0.9126 0.30814 0.21176 0.0
N59 N 0.90278 0.33234 0.21955 0.0
N60 N 0.84977 0.25672 0.21705 0.0
H61 H 0.8599 0.33964 0.23165 0.0
C62 C 0.09495 0.43388 0.19751 0.0
O63 O 0.06113 0.40785 0.19176 0.0
O64 O 0.91012 0.405 0.23933 0.0
H65 H 0.94142 0.31868 0.207 0.0
H66 H 0.99454 0.50362 0.26269 0.0
H67 H 0.89282 0.24971 0.20442 0.0
Zn68 Zn 0.57251 0.93603 0.39357 0.0
C69 C 0.66415 0.02517 0.41825 0.0
N70 N 0.65982 0.99767 0.42968 0.0
C71 C 0.62732 0.96718 0.42394 0.0
N72 N 0.61259 0.97507 0.40933 0.0
N73 N 0.6359 1.01176 0.40584 0.0
C74 C 0.69492 0.06964 0.36194 0.0
O75 O 0.67662 0.03455 0.35578 0.0
O76 O 0.52527 0.89406 0.40738 0.0
Zn77 Zn 0.63143 0.04192 0.38713 0.0
N78 N 0.59471 0.9094 0.38206 0.0
C79 C 0.64365 0.89523 0.37564 0.0
C80 C 0.63007 0.91514 0.38557 0.0
C81 C 0.57277 0.88544 0.36882 0.0
N82 N 0.62153 0.87098 0.36247 0.0
C83 C 0.5862 0.86542 0.35863 0.0
O84 O 0.5963 0.01474 0.36627 0.0
C85 C 0.56818 0.98315 0.36128 0.0
O86 O 0.55525 0.95369 0.37126 0.0
H87 H 0.64782 0.93536 0.3957 0.0
H88 H 0.54562 0.88329 0.36618 0.0
C89 C 0.62846 0.10806 0.38971 0.0
C90 C 0.62153 0.13573 0.39717 0.0
C91 C 0.58613 0.09255 0.42067 0.0
C92 C 0.59354 0.06529 0.41318 0.0
N93 N 0.61488 0.07396 0.39794 0.0
N94 N 0.60011 0.12699 0.41247 0.0
H95 H 0.64386 0.11283 0.3772 0.0
C96 C 0.49184 0.87794 0.40057 0.0
O97 O 0.48694 0.89042 0.38507 0.0
O98 O 0.68255 0.07794 0.37596 0.0
H99 H 0.58325 0.03795 0.41963 0.0
H100 H 0.67169 0.89926 0.37823 0.0
H101 H 0.56941 0.08641 0.43286 0.0
Zn102 Zn 0.58852 0.60676 0.55345 0.0
C103 C 0.65297 0.60839 0.59423 0.0
N104 N 0.6468 0.63628 0.6002 0.0
C105 C 0.62983 0.64243 0.58619 0.0
N106 N 0.62554 0.61923 0.5722 0.0
N107 N 0.63978 0.59735 0.57714 0.0
C108 C 0.62856 0.49342 0.58218 0.0
O109 O 0.59993 0.4964 0.5886 0.0
O110 O 0.58295 0.65153 0.54531 0.0
Zn111 Zn 0.64805 0.56415 0.55991 0.0
N112 N 0.54237 0.56867 0.56453 0.0
C113 C 0.51038 0.5086 0.57916 0.0
C114 C 0.5413 0.53589 0.56937 0.0
C115 C 0.51397 0.57562 0.56913 0.0
N116 N 0.48186 0.51532 0.58372 0.0
C117 C 0.48257 0.54817 0.57907 0.0
O118 O 0.61336 0.54228 0.53741 0.0
C119 C 0.60073 0.55696 0.52611 0.0
O120 O 0.59565 0.5844 0.53045 0.0
H121 H 0.5647 0.53142 0.56594 0.0
H122 H 0.51606 0.60208 0.56492 0.0
C123 C 0.72792 0.59597 0.55096 0.0
C124 C 0.76331 0.62522 0.54475 0.0
C125 C 0.73336 0.65895 0.53424 0.0
C126 C 0.69862 0.63054 0.54106 0.0
N127 N 0.69662 0.59975 0.54934 0.0
N128 N 0.7649 0.65577 0.53632 0.0
H129 H 0.72523 0.5707 0.55724 0.0
C130 C 0.60615 0.67256 0.53317 0.0
O131 O 0.63334 0.66593 0.52805 0.0
O132 O 0.6513 0.5184 0.57099 0.0
H133 H 0.67344 0.63312 0.53999 0.0
H134 H 0.50908 0.48236 0.58319 0.0
H135 H 0.73539 0.6836 0.52759 0.0
Zn136 Zn 0.09169 0.6357 0.7246 0.0
C137 C 1.00534 0.64306 0.74976 0.0
N138 N 0.03347 0.66808 0.76047 0.0
C139 C 0.06443 0.6676 0.75419 0.0
N140 N 0.05598 0.64347 0.74009 0.0
N141 N 0.01874 0.6281 0.73735 0.0
C142 C 0.9393 0.60795 0.70622 0.0
O143 O 0.97074 0.64129 0.7058 0.0
O144 O 0.13886 0.63958 0.73815 0.0
Zn145 Zn 0.99092 0.58608 0.72129 0.0
N146 N 0.11018 0.67515 0.70683 0.0
C147 C 0.10343 0.71975 0.6888 0.0
C148 C 0.09304 0.69611 0.70386 0.0
C149 C 0.13705 0.67665 0.69542 0.0
N150 N 0.1301 0.721 0.67726 0.0
C151 C 0.14733 0.70004 0.68018 0.0
O152 O 0.01833 0.58967 0.69791 0.0
C153 C 0.04656 0.58493 0.69485 0.0
O154 O 0.06957 0.58915 0.70753 0.0
H155 H 0.07078 0.69365 0.71277 0.0
H156 H 0.14888 0.65833 0.69783 0.0
C157 C 0.94896 0.51191 0.73759 0.0
C158 C 0.94518 0.48226 0.74879 0.0
C159 C 1.01209 0.51626 0.75371 0.0
C160 C 1.01562 0.54533 0.74255 0.0
N161 N 0.98408 0.54256 0.73469 0.0
N162 N 0.97711 0.48551 0.75654 0.0
H163 H 0.92445 0.5114 0.73157 0.0
C164 C 0.14564 0.61198 0.7379 0.0
O165 O 0.12079 0.58003 0.73005 0.0
O166 O 0.94022 0.57986 0.71326 0.0
H167 H 0.04321 0.57032 0.74048 0.0
H168 H 0.08996 0.73647 0.68613 0.0
H169 H 0.03689 0.51812 0.76012 0.0
Zn170 Zn 0.41057 0.98769 0.88348 0.0
C171 C 0.43273 0.05709 0.92684 0.0
N172 N 0.40565 0.02471 0.93458 0.0
C173 C 0.39443 0.99922 0.92112 0.0
N174 N 0.4142 0.01513 0.90576 0.0
N175 N 0.43863 0.05162 0.90935 0.0
C176 C 0.53982 0.14329 0.91283 0.0
O177 O 0.5364 0.11151 0.91917 0.0
O178 O 0.36112 0.96788 0.86939 0.0
Zn179 Zn 0.46966 0.09104 0.89125 0.0
N180 N 0.41063 0.94162 0.88935 0.0
C181 C 0.41489 0.89729 0.90862 0.0
C182 C 0.41852 0.93293 0.90585 0.0
C183 C 0.40086 0.91695 0.87535 0.0
N184 N 0.4049 0.87251 0.89461 0.0
C185 C 0.39783 0.88126 0.87786 0.0
O186 O 0.49267 0.07626 0.87025 0.0
C187 C 0.4821 0.04624 0.86092 0.0
O188 O 0.45311 0.01492 0.86546 0.0
H189 H 0.42741 0.95329 0.91674 0.0
H190 H 0.39679 0.92616 0.86235 0.0
C191 C 0.44737 0.12437 0.86427 0.0
C192 C 0.42248 0.13197 0.85443 0.0
C193 C 0.37282 0.09444 0.87502 0.0
C194 C 0.39768 0.08687 0.88472 0.0
N195 N 0.43453 0.10234 0.87922 0.0
N196 N 0.38582 0.11701 0.86021 0.0
H197 H 0.47693 0.13632 0.86036 0.0
C198 C 0.36143 0.97236 0.8524 0.0
O199 O 0.39309 0.99797 0.8446 0.0
O200 O 0.5149 0.14123 0.9017 0.0
H201 H 0.38761 0.06884 0.89649 0.0
H202 H 0.42055 0.88957 0.92171 0.0
H203 H 0.34349 0.08263 0.87926 0.0
Zn204 Zn 0.56571 0.64273 0.81053 0.0
C205 C 0.66171 0.6445 0.79137 0.0
N206 N 0.6638 0.6731 0.78139 0.0
C207 C 0.63103 0.67229 0.78547 0.0
N208 N 0.60987 0.645 0.79763 0.0
N209 N 0.62937 0.62758 0.80141 0.0
C210 C 0.68058 0.60358 0.83423 0.0
O211 O 0.67982 0.63547 0.83578 0.0
O212 O 0.5152 0.62311 0.79586 0.0
Zn213 Zn 0.61087 0.58325 0.81636 0.0
N214 N 0.58266 0.69598 0.8144 0.0
C215 C 0.63119 0.75867 0.82212 0.0
C216 C 0.61741 0.7195 0.82171 0.0
C217 C 0.56109 0.70995 0.8076 0.0
N218 N 0.60966 0.77262 0.81516 0.0
C219 C 0.57486 0.74927 0.80769 0.0
O220 O 0.58393 0.58486 0.83904 0.0
C221 C 0.56299 0.59733 0.8453 0.0
O222 O 0.55397 0.61778 0.83577 0.0
H223 H 0.63461 0.70798 0.82669 0.0
H224 H 0.5335 0.69052 0.80212 0.0
C225 C 0.57756 0.50877 0.80063 0.0
C226 C 0.55383 0.48005 0.78848 0.0
C227 C 0.52932 0.51894 0.77831 0.0
C228 C 0.55243 0.54706 0.79059 0.0
N229 N 0.57628 0.54154 0.80137 0.0
N230 N 0.5305 0.48612 0.77754 0.0
H231 H 0.59725 0.50552 0.80923 0.0
C232 C 0.48454 0.61465 0.80447 0.0
O233 O 0.48496 0.61289 0.82212 0.0
O234 O 0.6541 0.5761 0.82548 0.0
H235 H 0.55179 0.57334 0.79134 0.0
H236 H 0.65889 0.77788 0.8278 0.0
H237 H 0.51048 0.52306 0.7695 0.0
Zn238 Zn 0.03969 0.62148 0.98587 0.0
C239 C 0.97714 0.62306 0.94462 0.0
N240 N 1.00945 0.65491 0.93971 0.0
C241 C 0.03405 0.65938 0.95285 0.0
N242 N 1.01745 0.63163 0.96537 0.0
N243 N 0.98161 0.60857 0.9603 0.0
C244 C 0.88319 0.48665 0.96902 0.0
O245 O 0.89469 0.48251 0.98494 0.0
O246 O 0.08975 0.66567 0.99482 0.0
Zn247 Zn 0.94338 0.56636 0.97565 0.0
N248 N 0.04881 0.58118 0.97919 0.0
C249 C 0.05172 0.53858 0.95818 0.0
C250 C 0.04753 0.56998 0.96184 0.0
C251 C 0.05435 0.56273 0.99299 0.0
N252 N 0.05683 0.51978 0.97203 0.0
C253 C 0.05825 0.53087 0.9895 0.0
O254 O 0.96416 0.54652 0.99581 0.0
C255 C 0.98207 0.56674 1.00947 0.0
O256 O 1.00502 0.60227 1.00759 0.0
H257 H 0.04285 0.58497 0.95103 0.0
H258 H 0.05452 0.57265 1.00648 0.0
C259 C 0.89677 0.56526 1.00349 0.0
C260 C 0.87868 0.57857 1.01512 0.0
C261 C 0.90642 0.63664 0.99859 0.0
C262 C 0.9241 0.62301 0.98709 0.0
N263 N 0.91854 0.58746 0.98972 0.0
N264 N 0.88417 0.61418 1.01224 0.0
H265 H 0.89468 0.53794 1.00536 0.0
C266 C 0.0947 0.69761 1.00022 0.0
O267 O 0.06674 0.70494 0.99862 0.0
O268 O 0.90066 0.51951 0.9616 0.0
H269 H 0.9422 0.64065 0.97627 0.0
H270 H 0.05066 0.52902 0.94447 0.0
H271 H 0.91035 0.66483 0.99673 0.0
Zn272 Zn 0.39901 0.93648 0.14494 0.0
C273 C 0.41188 0.03021 0.1177 0.0
N274 N 0.39721 1.0058 0.10387 0.0
C275 C 0.39259 0.97298 0.11071 0.0
N276 N 0.40469 0.97712 0.12805 0.0
N277 N 0.41664 0.01325 0.13239 0.0
C278 C 0.40762 0.0556 0.18577 0.0
O279 O 0.41763 0.03361 0.19426 0.0
O280 O 0.3963 0.8887 0.13225 0.0
Zn281 Zn 0.44095 0.03976 0.1546 0.0
N282 N 0.35235 0.92077 0.15784 0.0
C283 C 0.29888 0.92678 0.16597 0.0
C284 C 0.33028 0.93669 0.15488 0.0
C285 C 0.3447 0.89577 0.17147 0.0
N286 N 0.29126 0.90183 0.17968 0.0
C287 C 0.31357 0.88616 0.18291 0.0
O288 O 0.45674 0.01233 0.17207 0.0
C289 C 0.45557 0.98125 0.17586 0.0
O290 O 0.43731 0.95192 0.1659 0.0
H291 H 0.33719 0.95715 0.14417 0.0
H292 H 0.36295 0.88371 0.1732 0.0
C293 C 0.50037 0.1122 0.16234 0.0
C294 C 0.53185 0.14866 0.15942 0.0
C295 C 0.53384 0.13147 0.12893 0.0
C296 C 0.50292 0.09519 0.13208 0.0
N297 N 0.48643 0.08666 0.14864 0.0
N298 N 0.54762 0.15715 0.14262 0.0
H299 H 0.48726 0.10325 0.17542 0.0
C300 C 0.40822 0.86888 0.1404 0.0
O301 O 0.42299 0.87978 0.15652 0.0
O302 O 0.41038 0.05803 0.1687 0.0
H303 H 0.49201 0.07427 0.12141 0.0
H304 H 0.28086 0.93901 0.1638 0.0
H305 H 0.54709 0.13905 0.11577 0.0
Zn306 Zn 0.42927 0.45013 0.31345 0.0
C307 C 0.40305 0.35674 0.28447 0.0
N308 N 0.37105 0.35761 0.28067 0.0
C309 C 0.37593 0.38838 0.28973 0.0
N310 N 0.40911 0.40501 0.29904 0.0
N311 N 0.42663 0.3854 0.2956 0.0
C312 C 0.55486 0.42405 0.29819 0.0
O313 O 0.5591 0.43722 0.31471 0.0
O314 O 0.38726 0.4587 0.32324 0.0
Zn315 Zn 0.47229 0.38897 0.30767 0.0
N316 N 0.46331 0.49044 0.29784 0.0
C317 C 0.51542 0.51511 0.27736 0.0
C318 C 0.49214 0.48778 0.28993 0.0
C319 C 0.45648 0.519 0.29368 0.0
N320 N 0.50888 0.54395 0.27327 0.0
C321 C 0.47976 0.5466 0.28098 0.0
O322 O 0.48662 0.41608 0.3324 0.0
C323 C 0.47812 0.43697 0.34196 0.0
O324 O 0.45694 0.44919 0.33587 0.0
H325 H 0.49662 0.46436 0.29324 0.0
H326 H 0.43349 0.52022 0.30047 0.0
C327 C 0.48291 0.32601 0.31048 0.0
C328 C 0.47271 0.2877 0.31236 0.0
C329 C 0.41022 0.27316 0.32075 0.0
C330 C 0.42069 0.31138 0.31874 0.0
N331 N 0.45669 0.33683 0.31331 0.0
N332 N 0.43639 0.26223 0.31755 0.0
H333 H 0.51161 0.34746 0.30715 0.0
C334 C 0.36125 0.43171 0.33245 0.0
O335 O 0.36121 0.39937 0.33358 0.0
O336 O 0.52119 0.40629 0.29155 0.0
H337 H 0.40011 0.32053 0.32097 0.0
H338 H 0.53857 0.5135 0.27094 0.0
H339 H 0.38155 0.25235 0.3248 0.0
Zn340 Zn 0.1028 0.46265 0.48034 0.0
C341 C 1.01551 0.37203 0.45486 0.0
N342 N 0.0417 0.37797 0.4422 0.0
C343 C 0.07303 0.40973 0.44801 0.0
N344 N 0.06652 0.4227 0.46367 0.0
N345 N 0.03033 0.39896 0.46788 0.0
C346 C 0.95221 0.33682 0.50182 0.0
O347 O 0.9821 0.33226 0.50157 0.0
O348 O 0.14992 0.50793 0.46814 0.0
Zn349 Zn 1.00671 0.41042 0.48738 0.0
N350 N 0.12131 0.43737 0.49564 0.0
C351 C 0.11939 0.38185 0.50714 0.0
C352 C 0.10849 0.39944 0.49426 0.0
C353 C 0.14433 0.45843 0.50935 0.0
N354 N 0.14222 0.40285 0.52094 0.0
C355 C 0.15489 0.44083 0.52257 0.0
O356 O 0.03867 0.42744 0.50998 0.0
C357 C 0.06225 0.46252 0.51276 0.0
O358 O 0.08102 0.48392 0.49953 0.0
H359 H 0.08951 0.38287 0.48348 0.0
H360 H 0.15393 0.48855 0.50978 0.0
C361 C 0.99488 0.47289 0.49214 0.0
C362 C 0.99568 0.5067 0.48722 0.0
C363 C 1.00934 0.49772 0.45704 0.0
C364 C 1.00897 0.46451 0.46209 0.0
N365 N 1.00195 0.45294 0.47954 0.0
N366 N 1.00275 0.51797 0.46967 0.0
H367 H 0.98872 0.46215 0.50576 0.0
C368 C 0.15111 0.53743 0.4614 0.0
O369 O 0.11967 0.53926 0.46104 0.0
O370 O 0.95525 0.36716 0.49527 0.0
H371 H 1.01473 0.44844 0.45221 0.0
H372 H 0.10953 0.35169 0.50628 0.0
H373 H 1.015 0.50747 0.44323 0.0
Zn374 Zn 0.58716 0.98253 0.64807 0.0
C375 C 0.662 0.05357 0.61187 0.0
N376 N 0.65776 0.02055 0.60542 0.0
C377 C 0.63767 0.99545 0.6184 0.0
N378 N 0.62952 1.01215 0.63215 0.0
N379 N 0.64474 0.0489 0.62813 0.0
C380 C 0.63407 0.15377 0.63935 0.0
O381 O 0.6191 0.14255 0.65544 0.0
O382 O 0.58958 0.93883 0.65983 0.0
Zn383 Zn 0.64762 0.08914 0.64444 0.0
N384 N 0.54401 0.96316 0.63236 0.0
C385 C 0.51444 0.97586 0.60786 0.0
C386 C 0.54267 0.98863 0.62097 0.0
C387 C 0.51818 0.92536 0.63131 0.0
N388 N 0.4883 0.9382 0.60691 0.0
C389 C 0.48908 0.91238 0.61834 0.0
O390 O 0.61036 0.07263 0.66579 0.0
C391 C 0.5878 0.04279 0.67461 0.0
O392 O 0.5793 1.00993 0.6689 0.0
H393 H 0.56393 0.01852 0.62186 0.0
H394 H 0.52074 0.90584 0.64031 0.0
C395 C 0.70121 0.13276 0.6708 0.0
C396 C 0.73083 0.14198 0.68301 0.0
C397 C 0.74607 0.09995 0.66772 0.0
C398 C 0.71623 0.09051 0.65571 0.0
N399 N 0.6944 0.1071 0.65755 0.0
N400 N 0.75252 0.1252 0.68118 0.0
H401 H 0.6825 0.14444 0.67228 0.0
C402 C 0.6093 0.94628 0.67413 0.0
O403 O 0.62934 0.9819 0.67946 0.0
O404 O 0.64772 0.13516 0.6314 0.0
H405 H 0.70991 0.06934 0.6454 0.0
H406 H 0.51317 0.99568 0.59857 0.0
H407 H 0.76355 0.08683 0.66656 0.0
H408 H 0.35303 0.54487 0.07133 0.0
H409 H 0.35101 0.60289 0.07876 0.0
H410 H 0.44114 0.63412 0.11737 0.0
H411 H 0.44397 0.57704 0.10972 0.0
H412 H 0.33732 0.63199 0.10886 0.0
H413 H 0.48616 0.72954 0.08786 0.0
H414 H 0.46202 0.67922 0.08297 0.0
H415 H 0.48335 0.69669 0.10472 0.0
C416 C 0.37242 0.56407 0.08142 0.0
C417 C 0.39909 0.55634 0.08969 0.0
C418 C 0.37123 0.59736 0.08568 0.0
C419 C 0.39669 0.62382 0.09829 0.0
C420 C 0.42204 0.61513 0.10714 0.0
H421 H 0.44216 0.82973 0.15255 0.0
H422 H 0.43711 0.77119 0.14088 0.0
C423 C 0.42341 0.58211 0.10283 0.0
C424 C 0.39707 0.66048 0.10222 0.0
H425 H 0.45657 0.75711 0.10545 0.0
C426 C 0.36332 0.65936 0.10788 0.0
C427 C 0.43082 0.69657 0.10084 0.0
C428 C 0.46751 0.7007 0.09358 0.0
C429 C 0.36287 0.6928 0.11293 0.0
C430 C 0.39697 0.72858 0.11222 0.0
C431 C 0.43041 0.72981 0.10611 0.0
C432 C 0.39936 0.76469 0.11896 0.0
C433 C 0.32622 0.68951 0.11967 0.0
C434 C 0.3802 0.78132 0.11044 0.0
C435 C 0.38331 0.81545 0.11705 0.0
C436 C 0.40546 0.83354 0.13241 0.0
C437 C 0.42471 0.8168 0.14075 0.0
C438 C 0.42189 0.78313 0.13407 0.0
H439 H 0.30378 0.65943 0.12202 0.0
H440 H 0.33122 0.70572 0.13241 0.0
H441 H 0.31549 0.70196 0.10956 0.0
H442 H 0.36302 0.76805 0.09861 0.0
H443 H 0.36805 0.82739 0.11027 0.0
H444 H 0.86074 0.46184 0.2213 0.0
H445 H 0.8039 0.46095 0.23291 0.0
H446 H 0.78871 0.37539 0.27167 0.0
H447 H 0.84712 0.37793 0.26066 0.0
H448 H 0.7334 0.40987 0.23264 0.0
H449 H 0.77177 0.44188 0.30458 0.0
H450 H 0.80584 0.44581 0.28785 0.0
H451 H 0.7721 0.40001 0.2971 0.0
C452 C 0.84583 0.44341 0.23258 0.0
C453 C 0.85903 0.42034 0.24015 0.0
C454 C 0.81292 0.44266 0.23916 0.0
C455 C 0.79159 0.41843 0.25342 0.0
C456 C 0.8048 0.39531 0.26107 0.0
H457 H 0.55519 0.37517 0.2722 0.0
H458 H 0.60999 0.37055 0.26144 0.0
C459 C 0.83834 0.39665 0.2547 0.0
C460 C 0.75524 0.41696 0.25964 0.0
H461 H 0.70839 0.4238 0.29672 0.0
C462 C 0.72815 0.41312 0.24669 0.0
C463 C 0.74781 0.4213 0.27793 0.0
C464 C 0.77605 0.42785 0.29265 0.0
C465 C 0.69481 0.4142 0.25133 0.0
C466 C 0.68702 0.41786 0.26967 0.0
C467 C 0.71379 0.42097 0.28265 0.0
C468 C 0.65262 0.42045 0.27575 0.0
C469 C 0.66925 0.41297 0.2363 0.0
C470 C 0.65721 0.44925 0.28785 0.0
C471 C 0.62566 0.4511 0.29448 0.0
C472 C 0.58827 0.42462 0.28904 0.0
C473 C 0.58352 0.39642 0.27652 0.0
C474 C 0.61513 0.39393 0.27024 0.0
H475 H 0.6849 0.42233 0.2233 0.0
H476 H 0.64567 0.38323 0.23449 0.0
H477 H 0.65687 0.43136 0.23929 0.0
H478 H 0.68541 0.47031 0.29241 0.0
H479 H 0.6306 0.47315 0.30414 0.0
H480 H 0.16202 0.60159 0.44393 0.0
H481 H 0.222 0.65737 0.43488 0.0
H482 H 0.28422 0.60573 0.45621 0.0
H483 H 0.22404 0.54917 0.46481 0.0
H484 H 0.27964 0.70779 0.45431 0.0
H485 H 0.33565 0.63933 0.4084 0.0
H486 H 0.28733 0.61458 0.41674 0.0
H487 H 0.32584 0.61946 0.43064 0.0
C488 C 0.18839 0.60179 0.44654 0.0
C489 C 0.18795 0.5706 0.45507 0.0
C490 C 0.22285 0.63392 0.44138 0.0
C491 C 0.25803 0.63598 0.44459 0.0
C492 C 0.25769 0.6048 0.4531 0.0
H493 H 0.4924 0.83058 0.42724 0.0
H494 H 0.43753 0.77209 0.43921 0.0
C495 C 0.22312 0.57242 0.45814 0.0
C496 C 0.2947 0.67135 0.43962 0.0
H497 H 0.37742 0.70457 0.41525 0.0
C498 C 0.30092 0.70689 0.44577 0.0
C499 C 0.32289 0.67067 0.42846 0.0
C500 C 0.31753 0.63404 0.42052 0.0
C501 C 0.33395 0.7413 0.44106 0.0
C502 C 0.36187 0.74057 0.42987 0.0
C503 C 0.35621 0.70517 0.42397 0.0
C504 C 0.39552 0.77645 0.42307 0.0
C505 C 0.33878 0.77843 0.448 0.0
C506 C 0.39033 0.79846 0.41006 0.0
C507 C 0.42151 0.83159 0.40313 0.0
C508 C 0.45889 0.84394 0.40912 0.0
C509 C 0.46408 0.82218 0.4224 0.0
C510 C 0.43273 0.7886 0.42919 0.0
H511 H 0.31857 0.77402 0.45911 0.0
H512 H 0.36836 0.79718 0.45287 0.0
H513 H 0.33358 0.79345 0.43686 0.0
H514 H 0.36203 0.78968 0.40504 0.0
H515 H 0.41627 0.84745 0.39292 0.0
H516 H 0.587 0.43746 0.6069 0.0
H517 H 0.59193 0.38155 0.61454 0.0
H518 H 0.68391 0.41638 0.57643 0.0
H519 H 0.67973 0.47306 0.56904 0.0
H520 H 0.58065 0.32247 0.59437 0.0
H521 H 0.72972 0.39339 0.61899 0.0
H522 H 0.70487 0.41917 0.61504 0.0
H523 H 0.7252 0.40671 0.59651 0.0
C524 C 0.60859 0.43356 0.60023 0.0
C525 C 0.63302 0.4601 0.58735 0.0
C526 C 0.61133 0.40134 0.60461 0.0
C527 C 0.63862 0.39456 0.5963 0.0
C528 C 0.66316 0.42108 0.58343 0.0
H529 H 0.67361 0.19569 0.6092 0.0
H530 H 0.67582 0.25347 0.59721 0.0
C531 C 0.66057 0.45352 0.5791 0.0
C532 C 0.64002 0.35902 0.60068 0.0
H533 H 0.69782 0.3261 0.61638 0.0
C534 C 0.60638 0.32346 0.59916 0.0
C535 C 0.67353 0.35977 0.60687 0.0
C536 C 0.7103 0.39679 0.60963 0.0
C537 C 0.60519 0.28913 0.60374 0.0
C538 C 0.63842 0.28994 0.61022 0.0
C539 C 0.67235 0.32529 0.61134 0.0
C540 C 0.63751 0.25476 0.6172 0.0
C541 C 0.56816 0.25209 0.60161 0.0
C542 C 0.6156 0.23627 0.63248 0.0
C543 C 0.61445 0.20357 0.63937 0.0
C544 C 0.63511 0.18808 0.63118 0.0
C545 C 0.65711 0.20654 0.6158 0.0
C546 C 0.65852 0.23971 0.60898 0.0
H547 H 0.54854 0.25494 0.59215 0.0
H548 H 0.57328 0.22918 0.59665 0.0
H549 H 0.55375 0.24324 0.61489 0.0
H550 H 0.59953 0.2474 0.63926 0.0
H551 H 0.59724 0.19043 0.65123 0.0
H552 H 0.16383 0.55591 0.74118 0.0
H553 H 0.22295 0.56071 0.75165 0.0
H554 H 0.26989 0.68084 0.76133 0.0
H555 H 0.20995 0.67604 0.7511 0.0
H556 H 0.29332 0.59861 0.73872 0.0
H557 H 0.29442 0.64864 0.80829 0.0
H558 H 0.25394 0.63295 0.79362 0.0
H559 H 0.29438 0.68021 0.79139 0.0
C560 C 0.18649 0.58343 0.74565 0.0
C561 C 0.18174 0.61556 0.74531 0.0
C562 C 0.22057 0.58614 0.75162 0.0
C563 C 0.25122 0.62104 0.75749 0.0
C564 C 0.24666 0.65333 0.75723 0.0
H565 H 0.48077 0.64523 0.77175 0.0
H566 H 0.42676 0.64968 0.75964 0.0
C567 C 0.2123 0.6506 0.7513 0.0
C568 C 0.28774 0.6231 0.76348 0.0
H569 H 0.34898 0.64568 0.79912 0.0
C570 C 0.3055 0.60904 0.75193 0.0
C571 C 0.3038 0.63634 0.78077 0.0
C572 C 0.28551 0.65006 0.79431 0.0
C573 C 0.3381 0.60735 0.75718 0.0
C574 C 0.35437 0.62089 0.77441 0.0
C575 C 0.33694 0.63547 0.78587 0.0
C576 C 0.38778 0.61797 0.78131 0.0
C577 C 0.35382 0.58958 0.74442 0.0
C578 C 0.38464 0.59925 0.79768 0.0
C579 C 0.41558 0.59703 0.80468 0.0
C580 C 0.45076 0.61328 0.79553 0.0
C581 C 0.45392 0.63161 0.77899 0.0
C582 C 0.42292 0.63419 0.77204 0.0
H583 H 0.33262 0.57178 0.73403 0.0
H584 H 0.3791 0.61247 0.73738 0.0
H585 H 0.36278 0.57159 0.75178 0.0
H586 H 0.35812 0.58641 0.80518 0.0
H587 H 0.41204 0.58292 0.8175 0.0
H588 H 0.56229 0.21496 0.89927 0.0
H589 H 0.6203 0.27529 0.90651 0.0
H590 H 0.65138 0.21724 0.94557 0.0
H591 H 0.59423 0.15707 0.93819 0.0
H592 H 0.6482 0.3177 0.93727 0.0
H593 H 0.7472 0.26871 0.91569 0.0
H594 H 0.69694 0.24231 0.91064 0.0
H595 H 0.71403 0.23802 0.93238 0.0
C596 C 0.58145 0.21503 0.90942 0.0
C597 C 0.5736 0.18083 0.91796 0.0
C598 C 0.61471 0.24964 0.91356 0.0
C599 C 0.64102 0.25095 0.9263 0.0
C600 C 0.63239 0.21708 0.9353 0.0
H601 H 0.84786 0.41238 0.97972 0.0
H602 H 0.78996 0.35815 0.96793 0.0
C603 C 0.59937 0.18256 0.93113 0.0
C604 C 0.67741 0.28743 0.93026 0.0
H605 H 0.7742 0.3258 0.93324 0.0
C606 C 0.67577 0.31958 0.93617 0.0
C607 C 0.71369 0.29034 0.92874 0.0
C608 C 0.7182 0.25814 0.92134 0.0
C609 C 0.70894 0.35362 0.94134 0.0
C610 C 0.745 0.35596 0.94041 0.0
C611 C 0.74671 0.32418 0.93405 0.0
C612 C 0.78094 0.38994 0.94711 0.0
C613 C 0.70499 0.38633 0.94844 0.0
C614 C 0.796 0.42625 0.9392 0.0
C615 C 0.82967 0.45768 0.94589 0.0
C616 C 0.84893 0.45349 0.96071 0.0
C617 C 0.83396 0.41695 0.96835 0.0
C618 C 0.80068 0.38571 0.9616 0.0
H619 H 0.67486 0.37764 0.95149 0.0
H620 H 0.72221 0.39828 0.96085 0.0
H621 H 0.71576 0.40929 0.93819 0.0
H622 H 0.78179 0.4303 0.92781 0.0
H623 H 0.84022 0.48531 0.93967 0.0
H624 H 0.44928 0.12704 0.91327 0.0
H625 H 0.46286 0.18384 0.93051 0.0
H626 H 0.45659 0.12463 0.97975 0.0
H627 H 0.44644 0.0694 0.96243 0.0
H628 H 0.41806 0.19081 0.95132 0.0
H629 H 0.54206 0.22406 0.99351 0.0
H630 H 0.52858 0.19151 0.97476 0.0
H631 H 0.50705 0.17498 0.99665 0.0
C632 C 0.45297 0.12692 0.92764 0.0
C633 C 0.44798 0.09407 0.93637 0.0
C634 C 0.4601 0.15927 0.9376 0.0
C635 C 0.46146 0.15911 0.95655 0.0
C636 C 0.45719 0.12643 0.9652 0.0
H637 H 0.37492 0.27196 0.02399 0.0
H638 H 0.38609 0.22905 1.00511 0.0
C639 C 0.45095 0.09456 0.95524 0.0
C640 C 0.46222 0.19063 0.96737 0.0
H641 H 0.49809 0.24287 1.0059 0.0
C642 C 0.43615 0.20263 0.96305 0.0
C643 C 0.48621 0.20701 0.98254 0.0
C644 C 0.51781 0.19898 0.98697 0.0
C645 C 0.43214 0.22892 0.97384 0.0
C646 C 0.45339 0.2423 0.99001 0.0
C647 C 0.48089 0.2319 0.99384 0.0
C648 C 0.44718 0.26677 1.00307 0.0
C649 C 0.4054 0.24228 0.96755 0.0
C650 C 0.478 0.30105 1.00949 0.0
C651 C 0.47172 0.32499 0.02089 0.0
C652 C 0.43447 0.31536 0.02587 0.0
C653 C 0.40388 0.28036 1.02014 0.0
C654 C 0.41023 0.25603 1.00915 0.0
H655 H 0.40276 0.2409 0.95264 0.0
H656 H 0.37657 0.22334 0.97321 0.0
H657 H 0.41521 0.27199 0.97189 0.0
H658 H 0.50684 0.3099 1.00523 0.0
H659 H 0.49585 0.35186 0.0251 0.0
H660 H 0.09832 0.39981 0.16651 0.0
H661 H 0.15455 0.40768 0.15068 0.0
H662 H 0.22689 0.48619 0.19152 0.0
H663 H 0.17026 0.47841 0.20764 0.0
H664 H 0.21825 0.47861 0.13732 0.0
H665 H 0.26171 0.40526 0.18732 0.0
H666 H 0.21419 0.3986 0.18705 0.0
H667 H 0.25325 0.44233 0.19529 0.0
C668 C 0.12611 0.41868 0.17225 0.0
C669 C 0.12971 0.43849 0.18838 0.0
C670 C 0.15829 0.42324 0.16311 0.0
C671 C 0.19493 0.4474 0.16991 0.0
C672 C 0.19885 0.46716 0.18608 0.0
H673 H 0.40201 0.46099 0.12313 0.0
H674 H 0.36157 0.47709 0.14167 0.0
C675 C 0.16649 0.46279 0.19524 0.0
C676 C 0.22855 0.45153 0.1598 0.0
H677 H 0.29593 0.4244 0.16011 0.0
C678 C 0.23556 0.46719 0.1424 0.0
C679 C 0.25137 0.43696 0.16647 0.0
C680 C 0.24487 0.41962 0.18501 0.0
C681 C 0.26393 0.4676 0.1313 0.0
C682 C 0.28519 0.45095 0.13755 0.0
C683 C 0.27947 0.43696 0.15527 0.0
C684 C 0.311 0.44479 0.12546 0.0
C685 C 0.27062 0.48549 0.11288 0.0
C686 C 0.29613 0.4214 0.11019 0.0
C687 C 0.31924 0.41259 0.09955 0.0
C688 C 0.35762 0.42693 0.10401 0.0
C689 C 0.37266 0.45041 0.11922 0.0
C690 C 0.34957 0.45942 0.12983 0.0
H691 H 0.26165 0.50725 0.11235 0.0
H692 H 0.30111 0.49904 0.1089 0.0
H693 H 0.25347 0.46309 0.10288 0.0
H694 H 0.26615 0.40853 0.10697 0.0
H695 H 0.30662 0.39292 0.08842 0.0
H696 H 0.73633 0.0629 0.33449 0.0
H697 H 0.78135 0.11322 0.31439 0.0
H698 H 0.76391 0.1956 0.34337 0.0
H699 H 0.72069 0.14592 0.36404 0.0
H700 H 0.76939 0.15497 0.29158 0.0
H701 H 0.87657 0.25278 0.34076 0.0
H702 H 0.83978 0.20538 0.34681 0.0
H703 H 0.82958 0.24377 0.34596 0.0
C704 C 0.74274 0.0919 0.33679 0.0
C705 C 0.72516 0.10045 0.35094 0.0
C706 C 0.76831 0.12063 0.32523 0.0
C707 C 0.77652 0.15844 0.32744 0.0
C708 C 0.75907 0.16701 0.34164 0.0
H709 H 0.92278 0.36357 0.26375 0.0
H710 H 0.86825 0.3164 0.28163 0.0
C711 C 0.73412 0.13845 0.35342 0.0
C712 C 0.80191 0.18836 0.31439 0.0
H713 H 0.88169 0.27633 0.31104 0.0
C714 C 0.79395 0.18147 0.29589 0.0
C715 C 0.83398 0.22311 0.31992 0.0
C716 C 0.84573 0.23157 0.33942 0.0
C717 C 0.8173 0.20802 0.28285 0.0
C718 C 0.84928 0.2426 0.2884 0.0
C719 C 0.85677 0.25 0.30685 0.0
C720 C 0.87775 0.26966 0.27539 0.0
C721 C 0.80785 0.19852 0.26322 0.0
C722 C 0.90048 0.25876 0.26569 0.0
C723 C 0.93151 0.28556 0.25565 0.0
C724 C 0.94005 0.3236 0.2549 0.0
C725 C 0.91623 0.33421 0.26385 0.0
C726 C 0.88535 0.30741 0.27414 0.0
H727 H 0.77685 0.17872 0.26123 0.0
H728 H 0.81669 0.22453 0.25513 0.0
H729 H 0.82338 0.18437 0.25807 0.0
H730 H 0.89542 0.22994 0.26664 0.0
H731 H 0.94969 0.27684 0.24896 0.0
H732 H 0.66739 0.93153 0.42852 0.0
H733 H 0.65125 0.87691 0.44789 0.0
H734 H 0.54128 0.86511 0.45881 0.0
H735 H 0.55757 0.92018 0.43922 0.0
H736 H 0.63405 0.8812 0.4852 0.0
H737 H 0.51892 0.75294 0.45069 0.0
H738 H 0.55097 0.79568 0.43841 0.0
H739 H 0.51454 0.7949 0.45243 0.0
C740 C 0.63925 0.91644 0.43455 0.0
C741 C 0.61331 0.92933 0.43205 0.0
C742 C 0.63013 0.8854 0.44568 0.0
C743 C 0.59504 0.86686 0.45475 0.0
C744 C 0.56826 0.8786 0.4517 0.0
H745 H 0.5461 0.68614 0.53512 0.0
H746 H 0.53832 0.73368 0.51798 0.0
C747 C 0.5774 0.90977 0.4404 0.0
C748 C 0.58913 0.83848 0.46882 0.0
H749 H 0.54315 0.74301 0.47772 0.0
C750 C 0.61378 0.85103 0.48369 0.0
C751 C 0.56232 0.79926 0.46696 0.0
C752 C 0.53515 0.78457 0.45126 0.0
C753 C 0.61371 0.82527 0.49626 0.0
C754 C 0.58873 0.78582 0.49377 0.0
C755 C 0.5624 0.77331 0.47953 0.0
C756 C 0.59292 0.75738 0.50454 0.0
C757 C 0.64124 0.84036 0.51184 0.0
C758 C 0.62614 0.75509 0.50266 0.0
C759 C 0.63061 0.72813 0.51231 0.0
C760 C 0.60193 0.70276 0.5241 0.0
C761 C 0.56878 0.70539 0.5262 0.0
C762 C 0.5642 0.73235 0.51637 0.0
H763 H 0.65049 0.87066 0.51474 0.0
H764 H 0.62829 0.82327 0.52419 0.0
H765 H 0.66697 0.83857 0.50842 0.0
H766 H 0.64851 0.77394 0.49349 0.0
H767 H 0.65648 0.72694 0.51034 0.0
H768 H 0.65795 0.61032 0.63058 0.0
H769 H 0.70245 0.6019 0.64923 0.0
H770 H 0.74162 0.56829 0.60235 0.0
H771 H 0.69904 0.58004 0.5836 0.0
H772 H 0.71557 0.54766 0.65829 0.0
H773 H 0.83999 0.65474 0.61903 0.0
H774 H 0.79235 0.6455 0.61488 0.0
H775 H 0.80769 0.61397 0.60603 0.0
C776 C 0.67582 0.60082 0.6242 0.0
C777 C 0.67482 0.5956 0.60542 0.0
C778 C 0.70122 0.59585 0.63495 0.0
C779 C 0.72622 0.58529 0.62723 0.0
C780 C 0.72346 0.57747 0.60865 0.0
H781 H 0.8763 0.54076 0.69623 0.0
H782 H 0.82328 0.53257 0.67736 0.0
C783 C 0.69844 0.58326 0.59787 0.0
C784 C 0.75633 0.5849 0.63861 0.0
H785 H 0.85285 0.62521 0.64309 0.0
C786 C 0.74559 0.56452 0.65492 0.0
C787 C 0.79565 0.60736 0.6344 0.0
C788 C 0.8097 0.63192 0.61773 0.0
C789 C 0.77289 0.56649 0.66721 0.0
C790 C 0.8121 0.58851 0.66287 0.0
C791 C 0.82281 0.60825 0.64642 0.0
C792 C 0.84277 0.59285 0.67536 0.0
C793 C 0.75944 0.54621 0.68505 0.0
C794 C 0.87165 0.62941 0.68047 0.0
C795 C 0.90227 0.63419 0.69102 0.0
C796 C 0.90468 0.60248 0.69677 0.0
C797 C 0.87515 0.56578 0.69215 0.0
C798 C 0.84468 0.56104 0.6814 0.0
H799 H 0.73008 0.53987 0.68834 0.0
H800 H 0.75915 0.51874 0.68437 0.0
H801 H 0.77872 0.56344 0.69615 0.0
H802 H 0.87084 0.65442 0.67603 0.0
H803 H 0.92445 0.66283 0.69438 0.0
H804 H 0.07929 0.67953 0.78955 0.0
H805 H 0.13686 0.72981 0.80375 0.0
H806 H 0.19216 0.76223 0.75192 0.0
H807 H 0.13418 0.71158 0.73759 0.0
H808 H 0.21797 0.75146 0.80312 0.0
H809 H 0.18611 0.85681 0.77139 0.0
H810 H 0.15107 0.80675 0.77259 0.0
H811 H 0.18985 0.82319 0.75689 0.0
C812 C 0.10407 0.69671 0.78121 0.0
C813 C 0.10226 0.69166 0.76244 0.0
C814 C 0.13693 0.72543 0.78936 0.0
C815 C 0.16855 0.75008 0.77888 0.0
C816 C 0.16787 0.74364 0.76022 0.0
H817 H 0.35676 0.96901 0.81565 0.0
H818 H 0.31201 0.91535 0.79713 0.0
C819 C 0.13489 0.71446 0.75205 0.0
C820 C 0.20014 0.78438 0.7875 0.0
H821 H 0.23548 0.88004 0.79258 0.0
C822 C 0.22219 0.77967 0.80067 0.0
C823 C 0.20543 0.82111 0.78433 0.0
C824 C 0.18183 0.82757 0.77062 0.0
C825 C 0.24908 0.81067 0.81094 0.0
C826 C 0.25322 0.84715 0.8083 0.0
C827 C 0.23204 0.85204 0.79471 0.0
C828 C 0.27904 0.8805 0.81963 0.0
C829 C 0.27288 0.80403 0.82444 0.0
C830 C 0.27455 0.87942 0.83843 0.0
C831 C 0.30009 0.91015 0.84911 0.0
C832 C 0.33049 0.94273 0.84116 0.0
C833 C 0.3337 0.94444 0.82225 0.0
C834 C 0.30823 0.91368 0.81162 0.0
H835 H 0.27516 0.77862 0.82089 0.0
H836 H 0.30202 0.82911 0.82538 0.0
H837 H 0.25925 0.799 0.83791 0.0
H838 H 0.2516 0.85454 0.84489 0.0
H839 H 0.29673 0.90781 0.86361 0.0
H840 H 0.74627 0.65951 0.84917 0.0
H841 H 0.79196 0.6523 0.86763 0.0
H842 H 0.72675 0.53043 0.8605 0.0
H843 H 0.68127 0.53756 0.84155 0.0
H844 H 0.77822 0.61555 0.89933 0.0
H845 H 0.83373 0.55167 0.85022 0.0
H846 H 0.80621 0.5733 0.84345 0.0
H847 H 0.78282 0.5261 0.85281 0.0
C848 C 0.74185 0.63117 0.85132 0.0
C849 C 0.71007 0.5991 0.84391 0.0
C850 C 0.76798 0.62708 0.86193 0.0
C851 C 0.76298 0.59085 0.86544 0.0
C852 C 0.73167 0.55875 0.85776 0.0
H853 H 0.90112 0.58028 0.95509 0.0
H854 H 0.84496 0.56381 0.93663 0.0
C855 C 0.7056 0.56285 0.84696 0.0
C856 C 0.78975 0.58708 0.87783 0.0
H857 H 0.85543 0.55793 0.88019 0.0
C858 C 0.79499 0.60276 0.89519 0.0
C859 C 0.81167 0.57048 0.87239 0.0
C860 C 0.80869 0.55471 0.85366 0.0
C861 C 0.82234 0.60353 0.90703 0.0
C862 C 0.8444 0.58702 0.90161 0.0
C863 C 0.83827 0.5702 0.88445 0.0
C864 C 0.87719 0.59133 0.91251 0.0
C865 C 0.82869 0.62389 0.92484 0.0
C866 C 0.91382 0.61018 0.90493 0.0
C867 C 0.94567 0.61852 0.91533 0.0
C868 C 0.94192 0.60835 0.93364 0.0
C869 C 0.90513 0.58795 0.94106 0.0
C870 C 0.87297 0.57913 0.93053 0.0
H871 H 0.81547 0.64217 0.92516 0.0
H872 H 0.81566 0.60256 0.93578 0.0
H873 H 0.85959 0.64203 0.9277 0.0
H874 H 0.918 0.61984 0.89108 0.0
H875 H 0.97354 0.63409 0.90908 0.0
H876 H 0.39293 0.964 0.07478 0.0
H877 H 0.34571 0.91114 0.0568 0.0
H878 H 0.29456 0.84712 0.10529 0.0
H879 H 0.34066 0.90116 0.12338 0.0
H880 H 0.32135 0.83833 0.0509 0.0
H881 H 0.20627 0.85233 0.0844 0.0
H882 H 0.25602 0.88567 0.08822 0.0
H883 H 0.23317 0.84018 0.09938 0.0
C884 C 0.3721 0.93834 0.08164 0.0
C885 C 0.37066 0.93683 0.10056 0.0
C886 C 0.34505 0.90806 0.07131 0.0
C887 C 0.31581 0.87541 0.07964 0.0
C888 C 0.31618 0.87241 0.09852 0.0
H889 H 0.14866 0.6832 1.01414 0.0
H890 H 0.2028 0.72475 0.03323 0.0
C891 C 0.34311 0.90308 0.1089 0.0
C892 C 0.2837 0.8465 0.06847 0.0
H893 H 0.1876 0.80552 0.0619 0.0
C894 C 0.29206 0.83096 0.05338 0.0
C895 C 0.24549 0.83746 0.07143 0.0
C896 C 0.23461 0.855 0.08662 0.0
C897 C 0.26356 0.80716 0.0411 0.0
C898 C 0.22529 0.79761 0.04425 0.0
C899 C 0.21686 0.8127 0.05948 0.0
C900 C 0.19354 0.7728 0.0318 0.0
C901 C 0.27508 0.79383 0.0245 0.0
C902 C 0.16972 0.78557 0.02476 0.0
C903 C 0.13826 0.76158 1.01407 0.0
C904 C 0.12999 0.72431 1.0101 0.0
C905 C 0.1544 0.71188 1.01677 0.0
C906 C 0.18557 0.73572 0.02765 0.0
H907 H 0.30585 0.81248 0.02137 0.0
H908 H 0.26998 0.76463 0.02682 0.0
H909 H 0.25824 0.79313 1.01259 0.0
H910 H 0.1752 0.81403 0.02774 0.0
H911 H 0.12012 0.77207 1.00912 0.0
H912 H 0.35068 0.28226 0.28381 0.0
H913 H 0.35499 0.23097 0.26883 0.0
H914 H 0.47144 0.31014 0.25385 0.0
H915 H 0.46722 0.36166 0.26927 0.0
H916 H 0.36633 0.23105 0.23307 0.0
H917 H 0.47851 0.2176 0.26967 0.0
H918 H 0.45383 0.24009 0.27935 0.0
H919 H 0.49109 0.26514 0.2631 0.0
C920 C 0.37747 0.28853 0.27765 0.0
C921 C 0.40876 0.32573 0.27779 0.0
C922 C 0.3799 0.25923 0.2691 0.0
C923 C 0.41352 0.26659 0.26025 0.0
C924 C 0.44543 0.30358 0.2609 0.0
H925 H 0.41109 0.12052 0.17311 0.0
H926 H 0.41322 0.17231 0.19082 0.0
C927 C 0.44309 0.33299 0.2697 0.0
C928 C 0.4132 0.23626 0.24888 0.0
H929 H 0.45422 0.18119 0.24303 0.0
C930 C 0.38556 0.22014 0.23526 0.0
C931 C 0.43809 0.22189 0.25183 0.0
C932 C 0.46694 0.23676 0.26685 0.0
C933 C 0.38178 0.1898 0.22466 0.0
C934 C 0.4071 0.17583 0.22736 0.0
C935 C 0.43496 0.19208 0.2409 0.0
C936 C 0.40468 0.14391 0.2165 0.0
C937 C 0.34991 0.1723 0.21104 0.0
C938 C 0.39953 0.1108 0.22502 0.0
C939 C 0.39862 0.08121 0.21493 0.0
C940 C 0.40276 0.08414 0.1961 0.0
C941 C 0.40708 0.117 0.18755 0.0
C942 C 0.40838 0.14672 0.19767 0.0
H943 H 0.32692 0.17872 0.21423 0.0
H944 H 0.36137 0.18425 0.19753 0.0
H945 H 0.33725 0.1409 0.21039 0.0
H946 H 0.3966 0.10801 0.23953 0.0
H947 H 0.39554 0.05642 0.22193 0.0
H948 H 0.14699 0.44337 0.46072 0.0
H949 H 0.20496 0.46312 0.44273 0.0
H950 H 0.13727 0.42937 0.39428 0.0
H951 H 0.08027 0.41153 0.412 0.0
H952 H 0.21991 0.418 0.42307 0.0
H953 H 0.22543 0.52706 0.3773 0.0
H954 H 0.19594 0.51214 0.39725 0.0
H955 H 0.17883 0.48576 0.3765 0.0
C956 C 0.14487 0.44176 0.4462 0.0
C957 C 0.10924 0.42667 0.43776 0.0
C958 C 0.17791 0.45263 0.43592 0.0
C959 C 0.17575 0.44851 0.41704 0.0
C960 C 0.14014 0.4341 0.40869 0.0
H961 H 0.29419 0.37722 0.34694 0.0
H962 H 0.25279 0.38592 0.36797 0.0
C963 C 0.10741 0.42347 0.4189 0.0
C964 C 0.20923 0.45462 0.40608 0.0
H965 H 0.25331 0.49 0.36564 0.0
C966 C 0.22773 0.43441 0.41071 0.0
C967 C 0.22025 0.47663 0.39009 0.0
C968 C 0.20431 0.50195 0.38514 0.0
C969 C 0.25487 0.43349 0.39923 0.0
C970 C 0.2629 0.45225 0.38235 0.0
C971 C 0.24649 0.47471 0.37832 0.0
C972 C 0.28689 0.44749 0.36849 0.0
C973 C 0.2744 0.41208 0.40531 0.0
C974 C 0.3186 0.47924 0.3608 0.0
C975 C 0.34195 0.47432 0.34838 0.0
C976 C 0.33408 0.43753 0.34352 0.0
C977 C 0.30137 0.40592 0.35061 0.0
C978 C 0.27785 0.41086 0.36279 0.0
H979 H 0.2757 0.41138 0.42024 0.0
H980 H 0.25788 0.38217 0.40052 0.0
H981 H 0.30384 0.42507 0.39988 0.0
H982 H 0.3259 0.50782 0.36477 0.0
H983 H 0.36695 0.49926 0.34315 0.0
H984 H 0.70701 0.12745 0.62447 0.0
H985 H 0.75038 0.18354 0.60673 0.0
H986 H 0.71276 0.11582 0.55828 0.0
H987 H 0.66858 0.06058 0.57581 0.0
H988 H 0.80932 0.19078 0.58795 0.0
H989 H 0.71597 0.21031 0.54071 0.0
H990 H 0.69766 0.18097 0.56058 0.0
H991 H 0.70559 0.16189 0.54011 0.0
C992 C 0.70687 0.12488 0.61004 0.0
C993 C 0.68394 0.08957 0.60161 0.0
C994 C 0.732 0.15693 0.59986 0.0
C995 C 0.73456 0.15419 0.58106 0.0
C996 C 0.71073 0.11918 0.57264 0.0
H997 H 0.93276 0.26566 0.51375 0.0
H998 H 0.8792 0.22385 0.53317 0.0
C999 C 0.68567 0.0874 0.58276 0.0
C1000 C 0.76493 0.18608 0.57039 0.0
H1001 H 0.78107 0.23383 0.53052 0.0
C1002 C 0.80306 0.20067 0.57556 0.0
C1003 C 0.75699 0.1996 0.55434 0.0
C1004 C 0.71678 0.18764 0.54874 0.0
C1005 C 0.83334 0.22668 0.56467 0.0
C1006 C 0.82538 0.23761 0.54785 0.0
C1007 C 0.78728 0.22478 0.54318 0.0
C1008 C 0.8562 0.26178 0.53488 0.0
C1009 C 0.87358 0.2421 0.57134 0.0
C1010 C 0.8599 0.29602 0.52845 0.0
C1011 C 0.89016 0.31969 0.51703 0.0
C1012 C 0.9174 0.30962 0.51186 0.0
C1013 C 0.9126 0.27451 0.51765 0.0
C1014 C 0.88215 0.25072 0.52891 0.0
H1015 H 0.87454 0.24119 0.58627 0.0
H1016 H 0.88501 0.22427 0.56594 0.0
H1017 H 0.89248 0.27194 0.56686 0.0
H1018 H 0.84001 0.30499 0.53269 0.0
H1019 H 0.89297 0.34651 0.51279 0.0
H1020 H 0.56781 0.86901 0.66835 0.0
H1021 H 0.56201 0.81842 0.68842 0.0
H1022 H 0.64101 0.9031 0.72545 0.0
H1023 H 0.64644 0.95358 0.70575 0.0
H1024 H 0.61559 0.80207 0.70003 0.0
H1025 H 0.55418 0.836 0.75895 0.0
H1026 H 0.55639 0.85575 0.73691 0.0
H1027 H 0.5975 0.8767 0.75141 0.0
C1028 C 0.58389 0.87683 0.68079 0.0
C1029 C 0.60738 0.91536 0.6855 0.0
C1030 C 0.58046 0.84789 0.69226 0.0
C1031 C 0.60028 0.85695 0.70869 0.0
C1032 C 0.6245 0.89537 0.71315 0.0
H1033 H 0.67625 0.74821 0.78116 0.0
H1034 H 0.66291 0.791 0.76334 0.0
C1035 C 0.62789 0.92425 0.70174 0.0
C1036 C 0.59725 0.82645 0.72082 0.0
H1037 H 0.58197 0.79684 0.76467 0.0
C1038 C 0.60746 0.80042 0.71407 0.0
C1039 C 0.58647 0.82415 0.73916 0.0
C1040 C 0.57262 0.84941 0.74699 0.0
C1041 C 0.6089 0.77343 0.72534 0.0
C1042 C 0.6 0.77252 0.7438 0.0
C1043 C 0.58862 0.79759 0.75049 0.0
C1044 C 0.60547 0.74764 0.75648 0.0
C1045 C 0.62139 0.74694 0.71769 0.0
C1046 C 0.57715 0.70939 0.75881 0.0
C1047 C 0.58469 0.68495 0.76907 0.0
C1048 C 0.62054 0.69861 0.7771 0.0
C1049 C 0.64831 0.73717 0.77518 0.0
C1050 C 0.64073 0.76158 0.76507 0.0
H1051 H 0.62653 0.75064 0.70294 0.0
H1052 H 0.64804 0.75222 0.72442 0.0
H1053 H 0.5993 0.71693 0.72043 0.0
H1054 H 0.54986 0.69816 0.75215 0.0
H1055 H 0.56334 0.65508 0.76991 0.0
H1056 H 0.42337 0.42267 0.99614 0.0
H1057 H 0.44283 0.44753 0.96568 0.0
H1058 H 0.48852 0.5621 0.98578 0.0
H1059 H 0.46632 0.53681 1.01621 0.0
H1060 H 0.46051 0.56005 0.95511 0.0
H1061 H 0.54475 0.4889 0.94531 0.0
H1062 H 0.49587 0.4541 0.94927 0.0
H1063 H 0.52319 0.48808 0.96665 0.0
C1064 C 0.43743 0.45318 0.99406 0.0
C1065 C 0.4436 0.47777 1.00865 0.0
C1066 C 0.44902 0.46749 0.9766 0.0
C1067 C 0.46866 0.50698 0.97328 0.0
C1068 C 0.47386 0.53157 0.98782 0.0
H1069 H 0.60149 0.59141 0.87393 0.0
H1070 H 0.57936 0.57334 0.90487 0.0
C1071 C 0.46117 0.51711 1.00526 0.0
C1072 C 0.48357 0.5224 0.95474 0.0
H1073 H 0.53165 0.51346 0.91882 0.0
C1074 C 0.47641 0.55008 0.94727 0.0
C1075 C 0.50518 0.51035 0.94441 0.0
C1076 C 0.51806 0.48408 0.95192 0.0
C1077 C 0.48954 0.56542 0.92992 0.0
C1078 C 0.50898 0.55149 0.91915 0.0
C1079 C 0.51644 0.52411 0.92674 0.0
C1080 C 0.52301 0.56539 0.9003 0.0
C1081 C 0.48341 0.59733 0.92369 0.0
C1082 C 0.49928 0.56765 0.88708 0.0
C1083 C 0.51256 0.57941 0.86939 0.0
C1084 C 0.54938 0.58773 0.86428 0.0
C1085 C 0.57292 0.58511 0.8774 0.0
C1086 C 0.56013 0.57458 0.89515 0.0
H1087 H 0.48083 0.61324 0.9353 0.0
H1088 H 0.50715 0.61779 0.91498 0.0
H1089 H 0.45641 0.58519 0.91598 0.0
H1090 H 0.4701 0.55949 0.89025 0.0
H1091 H 0.49351 0.58058 0.85954 0.0
H1092 H 0.03968 0.48743 0.16838 0.0
H1093 H 0.03417 0.50481 0.13758 0.0
H1094 H 0.91458 0.42039 0.13749 0.0
H1095 H 0.91962 0.40352 0.16865 0.0
H1096 H 1.01627 0.46537 0.10711 0.0
H1097 H 0.90932 0.51032 0.11901 0.0
H1098 H 0.93302 0.50122 0.13721 0.0
H1099 H 0.8936 0.46227 0.12581 0.0
C1100 C 1.01204 0.47262 0.16192 0.0
C1101 C 0.98004 0.44414 0.17118 0.0
C1102 C 1.00896 0.4826 0.1442 0.0
C1103 C 0.97384 0.46444 0.13512 0.0
C1104 C 0.94184 0.43566 0.14424 0.0
H1105 H 0.92517 0.49754 0.02229 0.0
H1106 H 0.92095 0.46949 0.05218 0.0
C1107 C 0.94483 0.42582 0.16208 0.0
C1108 C 0.97139 0.47533 0.11607 0.0
H1109 H 0.92714 0.50934 0.08871 0.0
C1110 C 0.99666 0.47487 0.10315 0.0
C1111 C 0.94582 0.48778 0.11069 0.0
C1112 C 0.91914 0.49082 0.12392 0.0
C1113 C 0.99734 0.48677 0.08527 0.0
C1114 C 0.9722 0.49965 0.08002 0.0
C1115 C 0.94627 0.49927 0.09272 0.0
C1116 C 0.97442 0.51614 0.06179 0.0
C1117 C 0.02527 0.4859 0.07209 0.0
C1118 C 1.00564 0.55176 0.05728 0.0
C1119 C 1.00789 0.568 0.04037 0.0
C1120 C 0.97913 0.54885 0.0274 0.0
C1121 C 0.94791 0.51298 0.03189 0.0
C1122 C 0.94541 0.49696 0.04898 0.0
H1123 H 0.03719 0.46817 0.07701 0.0
H1124 H 1.0115 0.47475 0.05882 0.0
H1125 H 0.04922 0.51536 0.07003 0.0
H1126 H 0.02825 0.56722 0.06695 0.0
H1127 H 0.03244 0.59556 0.03742 0.0
H1128 H 0.50451 0.03941 0.19792 0.0
H1129 H 0.52223 0.03543 0.22889 0.0
H1130 H 0.45751 0.91281 0.22606 0.0
H1131 H 0.44021 0.91657 0.19482 0.0
H1132 H 0.47528 1.00646 0.25733 0.0
H1133 H 0.55385 0.92799 0.24946 0.0
H1134 H 0.54269 0.94857 0.23057 0.0
H1135 H 0.50684 0.90398 0.23996 0.0
C1136 C 0.49466 1.01149 0.20369 0.0
C1137 C 0.47113 0.9783 0.19368 0.0
C1138 C 0.5047 1.00927 0.22152 0.0
C1139 C 0.49158 0.97384 0.22996 0.0
C1140 C 0.46884 0.94056 0.21987 0.0
H1141 H 0.51763 0.91866 0.34233 0.0
H1142 H 0.49666 0.91469 0.31099 0.0
C1143 C 0.45892 0.94275 0.20193 0.0
C1144 C 0.49987 0.97222 0.24955 0.0
H1145 H 0.54059 0.93867 0.27935 0.0
C1146 C 0.48964 0.99165 0.26208 0.0
C1147 C 0.51833 0.95268 0.25597 0.0
C1148 C 0.53141 0.93239 0.2433 0.0
C1149 C 0.49732 0.9922 0.28062 0.0
C1150 C 0.51639 0.97329 0.28699 0.0
C1151 C 0.52597 0.95318 0.27456 0.0
C1152 C 0.52808 0.97552 0.30633 0.0
C1153 C 0.48448 0.01277 0.29326 0.0
C1154 C 0.55286 1.01095 0.31427 0.0
C1155 C 0.56482 0.01333 0.33218 0.0
C1156 C 0.55247 0.98031 0.34272 0.0
C1157 C 0.52743 0.94477 0.33478 0.0
C1158 C 0.51557 0.94242 0.31678 0.0
H1159 H 0.46084 0.01563 0.28739 0.0
H1160 H 0.47488 0.99772 0.30636 0.0
H1161 H 0.50868 0.04187 0.29582 0.0
H1162 H 0.56364 0.0369 0.3065 0.0
H1163 H 0.58435 0.0412 0.33766 0.0
H1164 H 0.44093 0.44559 0.37054 0.0
H1165 H 0.4629 0.4626 0.40152 0.0
H1166 H 0.56941 0.46942 0.38729 0.0
H1167 H 0.54612 0.44954 0.3564 0.0
H1168 H 0.55259 0.44202 0.41888 0.0
H1169 H 0.5298 0.56499 0.42007 0.0
H1170 H 0.4856 0.52228 0.41583 0.0
H1171 H 0.52416 0.53836 0.39977 0.0
C1172 C 0.46907 0.4507 0.374 0.0
C1173 C 0.49194 0.44664 0.3609 0.0
C1174 C 0.48184 0.46086 0.39176 0.0
C1175 C 0.51856 0.46888 0.39685 0.0
C1176 C 0.54114 0.46389 0.38385 0.0
H1177 H 0.61626 0.59906 0.49565 0.0
H1178 H 0.59976 0.5771 0.46462 0.0
C1179 C 0.52785 0.45256 0.36613 0.0
C1180 C 0.53307 0.48221 0.41566 0.0
H1181 H 0.53884 0.54392 0.44865 0.0
C1182 C 0.54992 0.46461 0.4253 0.0
C1183 C 0.5306 0.5123 0.42416 0.0
C1184 C 0.51697 0.53581 0.41432 0.0
C1185 C 0.5636 0.47565 0.44306 0.0
C1186 C 0.55882 0.50405 0.45194 0.0
C1187 C 0.54234 0.52186 0.44218 0.0
C1188 C 0.57157 0.5169 0.47103 0.0
C1189 C 0.58414 0.45746 0.45176 0.0
C1190 C 0.56205 0.49079 0.48535 0.0
C1191 C 0.57284 0.50355 0.50318 0.0
C1192 C 0.59207 0.54268 0.50722 0.0
C1193 C 0.60137 0.5687 0.49299 0.0
C1194 C 0.59173 0.55605 0.47518 0.0
H1195 H 0.59693 0.44722 0.44149 0.0
H1196 H 0.60715 0.47765 0.46085 0.0
H1197 H 0.56346 0.43237 0.45969 0.0
H1198 H 0.5454 0.46047 0.48288 0.0
H1199 H 0.56476 0.48279 0.51388 0.0
H1200 H 1.00958 0.58507 0.66417 0.0
H1201 H 1.01719 0.56755 0.6337 0.0
H1202 H 0.10349 0.54331 0.65221 0.0
H1203 H 0.09686 0.56212 0.68292 0.0
H1204 H 0.12297 0.57892 0.6197 0.0
H1205 H 0.97389 0.46046 0.61603 0.0
H1206 H 0.97647 0.50502 0.62082 0.0
H1207 H 0.99499 0.48504 0.6368 0.0
C1208 C 0.03016 0.5759 0.66188 0.0
C1209 C 0.05212 0.57442 0.6762 0.0
C1210 C 0.03436 0.56569 0.64435 0.0
C1211 C 0.06017 0.55301 0.64058 0.0
C1212 C 0.08306 0.55259 0.65471 0.0
H1213 H 0.04014 0.42221 0.54409 0.0
H1214 H 0.04316 0.44555 0.57464 0.0
C1215 C 0.07914 0.56322 0.67232 0.0
C1216 C 0.06263 0.53985 0.62196 0.0
H1217 H 1.00823 0.47903 0.58839 0.0
C1218 C 0.09791 0.55691 0.61289 0.0
C1219 C 0.03015 0.5107 0.61303 0.0
C1220 C 0.99185 0.48897 0.62223 0.0
C1221 C 0.10138 0.54617 0.59517 0.0
C1222 C 0.06853 0.51817 0.586 0.0
C1223 C 0.03345 0.50081 0.5952 0.0
C1224 C 0.06968 0.50501 0.5672 0.0
C1225 C 0.14041 0.56432 0.58663 0.0
C1226 C 0.08385 0.5305 0.55255 0.0
C1227 C 0.08253 0.51712 0.53489 0.0
C1228 C 0.06637 0.47788 0.53144 0.0
C1229 C 0.05257 0.4526 0.54614 0.0
C1230 C 0.05428 0.46595 0.56371 0.0
H1231 H 0.16336 0.57654 0.59692 0.0
H1232 H 0.14392 0.5434 0.57839 0.0
H1233 H 0.14415 0.58785 0.5777 0.0
H1234 H 0.09506 0.56067 0.55468 0.0
H1235 H 0.09311 0.53737 0.5239 0.0
H1236 H 0.53157 0.11022 0.84146 0.0
H1237 H 0.55098 0.11299 0.8099 0.0
H1238 H 0.49081 0.99033 0.80759 0.0
H1239 H 0.47102 0.98723 0.83891 0.0
H1240 H 0.59114 0.08384 0.79079 0.0
H1241 H 0.44221 0.01772 0.76652 0.0
H1242 H 0.45568 0.03557 0.78918 0.0
H1243 H 0.44915 0.98971 0.78313 0.0
C1244 C 0.52303 0.0838 0.83436 0.0
C1245 C 0.49958 0.04849 0.84284 0.0
C1246 C 0.534 0.08544 0.81623 0.0
C1247 C 0.52166 0.05188 0.80615 0.0
C1248 C 0.49996 0.01667 0.81487 0.0
H1249 H 0.53963 0.98536 0.69736 0.0
H1250 H 0.52459 0.9903 0.72876 0.0
C1251 C 0.48894 0.01498 0.83291 0.0
C1252 C 0.53054 0.0534 0.78645 0.0
H1253 H 0.48866 0.02392 0.74507 0.0
C1254 C 0.56875 0.07103 0.78077 0.0
C1255 C 0.50139 0.03682 0.77329 0.0
C1256 C 0.45981 0.0192 0.77827 0.0
C1257 C 0.57853 0.07126 0.76248 0.0
C1258 C 0.54932 0.05404 0.74935 0.0
C1259 C 0.51114 0.03705 0.75503 0.0
C1260 C 0.55757 0.05184 0.72981 0.0
C1261 C 0.62007 0.0887 0.75749 0.0
C1262 C 0.58033 0.08481 0.71958 0.0
C1263 C 0.58902 0.0821 0.70147 0.0
C1264 C 0.57494 0.04631 0.69309 0.0
C1265 C 0.55104 0.01346 0.70323 0.0
C1266 C 0.54242 0.01621 0.72129 0.0
H1267 H 0.638 0.09191 0.76939 0.0
H1268 H 0.62424 0.07114 0.74724 0.0
H1269 H 0.63032 0.11744 0.75172 0.0
H1270 H 0.59168 0.11273 0.72563 0.0
H1271 H 0.60754 0.10807 0.69419 0.0
H1272 H 0.38516 0.06568 0.14004 0.0
H1273 H 0.39005 0.12798 0.13587 0.0
H1274 H 0.45332 0.14391 0.08677 0.0
H1275 H 0.44991 0.08242 0.09149 0.0
H1276 H 0.48202 0.21127 0.10638 0.0
H1277 H 0.32524 0.14347 0.0988 0.0
H1278 H 0.34 0.13311 0.11979 0.0
H1279 H 0.34939 0.1163 0.09905 0.0
C1280 C 0.40176 0.08333 0.12891 0.0
C1281 C 0.41851 0.06979 0.11655 0.0
C1282 C 0.40366 0.11857 0.12621 0.0
C1283 C 0.42172 0.14075 0.11085 0.0
C1284 C 0.43926 0.12759 0.09873 0.0
H1285 H 0.37865 0.31532 0.06591 0.0
H1286 H 0.38689 0.25988 0.07038 0.0
C1287 C 0.4373 0.09239 0.10144 0.0
C1288 C 0.42085 0.17662 0.1069 0.0
H1289 H 0.36029 0.21088 0.09889 0.0
C1290 C 0.45538 0.21115 0.10478 0.0
C1291 C 0.38617 0.17663 0.10441 0.0
C1292 C 0.34807 0.14038 0.10545 0.0
C1293 C 0.45615 0.24551 0.10059 0.0
C1294 C 0.42144 0.24568 0.09863 0.0
C1295 C 0.38696 0.21104 0.10048 0.0
C1296 C 0.42006 0.28132 0.09481 0.0
C1297 C 0.4942 0.2812 0.09794 0.0
C1298 C 0.43618 0.3123 0.10685 0.0
C1299 C 0.43198 0.34427 0.10407 0.0
C1300 C 0.41191 0.34627 0.08909 0.0
C1301 C 0.39599 0.31548 0.077 0.0
C1302 C 0.40011 0.28346 0.07977 0.0
H1303 H 0.51706 0.27452 0.09487 0.0
H1304 H 0.49294 0.29888 0.08686 0.0
H1305 H 0.50214 0.29834 0.1105 0.0
H1306 H 0.45082 0.3112 0.11881 0.0
H1307 H 0.44359 0.36707 0.11391 0.0
H1308 H 0.30083 0.34562 0.297 0.0
H1309 H 0.25006 0.35881 0.28898 0.0
H1310 H 0.33411 0.47074 0.27061 0.0
H1311 H 0.38527 0.45748 0.27882 0.0
H1312 H 0.2341 0.41954 0.29837 0.0
H1313 H 0.26504 0.41548 0.22556 0.0
H1314 H 0.28347 0.39769 0.24274 0.0
H1315 H 0.30385 0.44805 0.23969 0.0
C1316 C 0.30855 0.37349 0.29174 0.0
C1317 C 0.34707 0.40074 0.28881 0.0
C1318 C 0.27946 0.38095 0.28708 0.0
C1319 C 0.28802 0.41558 0.27896 0.0
C1320 C 0.32665 0.44367 0.27673 0.0
H1321 H 0.09567 0.45396 0.25141 0.0
H1322 H 0.16079 0.4688 0.25934 0.0
C1323 C 0.35594 0.43632 0.28165 0.0
C1324 C 0.25616 0.42056 0.27188 0.0
H1325 H 0.21078 0.41966 0.23281 0.0
C1326 C 0.22941 0.42035 0.28404 0.0
C1327 C 0.24961 0.42106 0.25316 0.0
C1328 C 0.27676 0.42037 0.23943 0.0
C1329 C 0.19611 0.41977 0.27803 0.0
C1330 C 0.1891 0.41929 0.25932 0.0
C1331 C 0.21626 0.42041 0.24714 0.0
C1332 C 0.15173 0.41303 0.25233 0.0
C1333 C 0.1676 0.41775 0.29172 0.0
C1334 C 0.12535 0.37733 0.24517 0.0
C1335 C 0.08835 0.3689 0.24072 0.0
C1336 C 0.07693 0.39618 0.24292 0.0
C1337 C 0.10388 0.43266 0.24919 0.0
C1338 C 0.14096 0.44099 0.2539 0.0
H1339 H 0.17553 0.41484 0.30569 0.0
H1340 H 0.16567 0.44405 0.29094 0.0
H1341 H 0.13889 0.39323 0.28872 0.0
H1342 H 0.13281 0.35526 0.24384 0.0
H1343 H 0.06808 0.34041 0.23615 0.0
H1344 H 0.99665 0.2995 0.44802 0.0
H1345 H 0.93349 0.24441 0.44272 0.0
H1346 H 0.88226 0.31334 0.45365 0.0
H1347 H 0.94617 0.36911 0.45885 0.0
H1348 H 0.86816 0.20842 0.46541 0.0
H1349 H 0.84021 0.26645 0.40312 0.0
H1350 H 0.8873 0.28644 0.41269 0.0
H1351 H 0.85266 0.29564 0.42303 0.0
C1352 C 0.97189 0.30285 0.44953 0.0
C1353 C 0.97632 0.33848 0.45412 0.0
C1354 C 0.93575 0.2713 0.44646 0.0
C1355 C 0.90295 0.2746 0.44756 0.0
C1356 C 0.90711 0.31007 0.45251 0.0
H1357 H 0.6672 0.09417 0.42291 0.0
H1358 H 0.72361 0.15605 0.42936 0.0
C1359 C 0.94354 0.3418 0.45573 0.0
C1360 C 0.86496 0.24069 0.44322 0.0
H1361 H 0.79389 0.20419 0.41158 0.0
C1362 C 0.85181 0.20765 0.45371 0.0
C1363 C 0.84342 0.23949 0.42796 0.0
C1364 C 0.85653 0.27372 0.41591 0.0
C1365 C 0.81825 0.17355 0.4493 0.0
C1366 C 0.79745 0.17188 0.43366 0.0
C1367 C 0.80987 0.20525 0.42347 0.0
C1368 C 0.76346 0.13543 0.42754 0.0
C1369 C 0.80531 0.13959 0.46153 0.0
C1370 C 0.76692 0.10338 0.42359 0.0
C1371 C 0.73467 0.06817 0.41957 0.0
C1372 C 0.69816 0.06415 0.41906 0.0
C1373 C 0.69485 0.09653 0.4223 0.0
C1374 C 0.72719 0.13189 0.42634 0.0
H1375 H 0.81738 0.14831 0.47528 0.0
H1376 H 0.77374 0.12303 0.46258 0.0
H1377 H 0.81524 0.12064 0.45597 0.0
H1378 H 0.79454 0.10533 0.42409 0.0
H1379 H 0.73813 0.04366 0.41737 0.0
H1380 H 0.65479 0.70373 0.5638 0.0
H1381 H 0.6485 0.76039 0.56832 0.0
H1382 H 0.57999 0.70883 0.61564 0.0
H1383 H 0.58544 0.65186 0.61078 0.0
H1384 H 0.55401 0.75022 0.5953 0.0
H1385 H 0.70942 0.83608 0.60851 0.0
H1386 H 0.69727 0.81271 0.58698 0.0
H1387 H 0.68449 0.78475 0.60724 0.0
C1388 C 0.63706 0.7039 0.5747 0.0
C1389 C 0.61959 0.67287 0.58659 0.0
C1390 C 0.63408 0.73662 0.57751 0.0
C1391 C 0.6142 0.73932 0.59251 0.0
C1392 C 0.59546 0.70763 0.60397 0.0
H1393 H 0.65368 0.95295 0.64145 0.0
H1394 H 0.64403 0.88884 0.63622 0.0
C1395 C 0.59846 0.67498 0.60115 0.0
C1396 C 0.61498 0.77581 0.59698 0.0
H1397 H 0.67529 0.86921 0.60818 0.0
C1398 C 0.58054 0.77625 0.59808 0.0
C1399 C 0.64947 0.80976 0.60101 0.0
C1400 C 0.68727 0.81094 0.60106 0.0
C1401 C 0.57977 0.80967 0.60271 0.0
C1402 C 0.61439 0.84386 0.60624 0.0
C1403 C 0.64871 0.8432 0.60543 0.0
C1404 C 0.61595 0.88082 0.61049 0.0
C1405 C 0.54178 0.80789 0.60411 0.0
C1406 C 0.60298 0.89776 0.59799 0.0
C1407 C 0.6081 0.93419 0.60112 0.0
C1408 C 0.62596 0.95446 0.6169 0.0
C1409 C 0.63834 0.93735 0.62957 0.0
C1410 C 0.63333 0.90091 0.62642 0.0
H1411 H 0.51805 0.7782 0.60601 0.0
H1412 H 0.54152 0.82562 0.61547 0.0
H1413 H 0.5364 0.81899 0.59149 0.0
H1414 H 0.59033 0.88352 0.58541 0.0
H1415 H 0.59917 0.9471 0.59091 0.0
H1416 H 0.73731 0.6931 0.79352 0.0
H1417 H 0.78932 0.68061 0.78743 0.0
H1418 H 0.70801 0.56127 0.78026 0.0
H1419 H 0.65545 0.57395 0.78635 0.0
H1420 H 0.81146 0.63209 0.80409 0.0
H1421 H 0.76988 0.59138 0.73253 0.0
H1422 H 0.75073 0.61526 0.74583 0.0
H1423 H 0.73432 0.56571 0.74948 0.0
C1424 C 0.7305 0.66405 0.79096 0.0
C1425 C 0.69231 0.63445 0.79065 0.0
C1426 C 0.7603 0.65694 0.78742 0.0
C1427 C 0.75281 0.6201 0.78311 0.0
C1428 C 0.71464 0.59006 0.7833 0.0
H1429 H 0.93763 0.57364 0.74929 0.0
H1430 H 0.87338 0.56213 0.75698 0.0
C1431 C 0.68462 0.59719 0.78702 0.0
C1432 C 0.78536 0.61426 0.77801 0.0
H1433 H 0.82781 0.59705 0.74198 0.0
C1434 C 0.81469 0.62388 0.79057 0.0
C1435 C 0.78982 0.60347 0.76037 0.0
C1436 C 0.75974 0.59354 0.74616 0.0
C1437 C 0.84857 0.62423 0.78587 0.0
C1438 C 0.85385 0.61533 0.76801 0.0
C1439 C 0.82387 0.60393 0.75565 0.0
C1440 C 0.89168 0.62153 0.76169 0.0
C1441 C 0.87893 0.63497 0.80001 0.0
C1442 C 0.92311 0.65864 0.76122 0.0
C1443 C 0.95938 0.66517 0.75656 0.0
C1444 C 0.96536 0.63485 0.75208 0.0
C1445 C 0.93378 0.59765 0.75211 0.0
C1446 C 0.89714 0.59106 0.7567 0.0
H1447 H 0.86693 0.63082 0.81384 0.0
H1448 H 0.8933 0.61791 0.7985 0.0
H1449 H 0.90077 0.6655 0.79845 0.0
H1450 H 0.91972 0.68268 0.76481 0.0
H1451 H 0.9831 0.69416 0.75681 0.0
H1452 H 0.05608 0.73297 0.94655 0.0
H1453 H 0.1207 0.78678 0.94261 0.0
H1454 H 0.16676 0.71377 0.95436 0.0
H1455 H 0.10151 0.6594 0.95828 0.0
H1456 H 0.18467 0.81968 0.96656 0.0
H1457 H 0.21274 0.7617 0.90408 0.0
H1458 H 0.16527 0.74364 0.91302 0.0
H1459 H 0.19734 0.73124 0.92356 0.0
C1460 C 0.08 0.72847 0.94855 0.0
C1461 C 0.07375 0.69209 0.95298 0.0
C1462 C 0.11696 0.75927 0.94626 0.0
C1463 C 0.14874 0.75443 0.94798 0.0
C1464 C 0.14273 0.71822 0.95278 0.0
H1465 H 0.38157 0.95183 0.9493 0.0
H1466 H 0.32423 0.8907 0.95583 0.0
C1467 C 0.1055 0.68726 0.95523 0.0
C1468 C 0.18771 0.7874 0.94426 0.0
H1469 H 0.26114 0.82214 0.91375 0.0
C1470 C 0.20157 0.82006 0.95513 0.0
C1471 C 0.20956 0.78823 0.92916 0.0
C1472 C 0.19557 0.75452 0.91664 0.0
C1473 C 0.23633 0.85342 0.95127 0.0
C1474 C 0.25831 0.85427 0.93619 0.0
C1475 C 0.24454 0.82154 0.92535 0.0
C1476 C 0.295 0.8893 0.93126 0.0
C1477 C 0.24858 0.88798 0.96307 0.0
C1478 C 0.29859 0.9084 0.91493 0.0
C1479 C 0.33161 0.94337 0.91114 0.0
C1480 C 0.36198 0.95964 0.92343 0.0
C1481 C 0.3588 0.93985 0.93947 0.0
C1482 C 0.32591 0.90498 0.94327 0.0
H1483 H 0.22457 0.88571 0.97128 0.0
H1484 H 0.27113 0.89075 0.97242 0.0
H1485 H 0.26044 0.91433 0.95484 0.0
H1486 H 0.27511 0.89716 0.90549 0.0
H1487 H 0.33224 0.95883 0.89922 0.0
H1488 H 0.85347 0.6025 0.04355 0.0
H1489 H 0.80352 0.56375 0.06483 0.0
H1490 H 0.79623 0.46205 0.04254 0.0
H1491 H 0.84427 0.49993 0.02049 0.0
H1492 H 0.73133 0.45781 0.04081 0.0
H1493 H 0.78129 0.50312 0.10977 0.0
H1494 H 0.79579 0.5451 0.09661 0.0
H1495 H 0.81412 0.51382 0.09123 0.0
C1496 C 0.84188 0.57196 0.04329 0.0
C1497 C 0.8531 0.55481 0.03 0.0
C1498 C 0.8137 0.54978 0.0558 0.0
C1499 C 0.79647 0.50992 0.05553 0.0
C1500 C 0.80943 0.49279 0.04315 0.0
H1501 H 0.55527 0.40619 0.08406 0.0
H1502 H 0.61358 0.40225 0.08427 0.0
C1503 C 0.83727 0.51488 0.03046 0.0
C1504 C 0.75994 0.48675 0.06521 0.0
H1505 H 0.71476 0.48934 0.10349 0.0
C1506 C 0.7277 0.46332 0.05476 0.0
C1507 C 0.75517 0.49331 0.08348 0.0
C1508 C 0.78864 0.51489 0.09591 0.0
C1509 C 0.6909 0.45106 0.06125 0.0
C1510 C 0.68643 0.46226 0.07873 0.0
C1511 C 0.71834 0.48129 0.08999 0.0
C1512 C 0.65153 0.46327 0.08343 0.0
C1513 C 0.6576 0.43018 0.04857 0.0
C1514 C 0.65372 0.49885 0.08399 0.0
C1515 C 0.62068 0.50127 0.08374 0.0
C1516 C 0.58475 0.4681 0.08281 0.0
C1517 C 0.58252 0.43235 0.08398 0.0
C1518 C 0.61577 0.42998 0.08432 0.0
H1519 H 0.66655 0.42585 0.03503 0.0
H1520 H 0.63727 0.4018 0.05423 0.0
H1521 H 0.64229 0.44628 0.04695 0.0
H1522 H 0.68108 0.52492 0.08331 0.0
H1523 H 0.62352 0.52925 0.08307 0.0
H1524 H 0.36105 0.86867 0.20247 0.0
H1525 H 0.34144 0.81582 0.22351 0.0
H1526 H 0.22463 0.78907 0.21892 0.0
H1527 H 0.24343 0.84082 0.19741 0.0
H1528 H 0.25892 0.78596 0.25707 0.0
H1529 H 0.27199 0.70323 0.20005 0.0
H1530 H 0.30976 0.75094 0.20494 0.0
H1531 H 0.26586 0.74354 0.19558 0.0
C1532 C 0.33111 0.8515 0.2058 0.0
C1533 C 0.30353 0.85815 0.19768 0.0
C1534 C 0.32016 0.82172 0.21807 0.0
C1535 C 0.28167 0.79863 0.22259 0.0
C1536 C 0.25454 0.80682 0.21557 0.0
H1537 H 0.09325 0.61436 0.25678 0.0
H1538 H 0.15089 0.67618 0.25598 0.0
C1539 C 0.26535 0.83634 0.20323 0.0
C1540 C 0.26828 0.76297 0.23268 0.0
H1541 H 0.23331 0.66878 0.22433 0.0
C1542 C 0.25423 0.76034 0.2502 0.0
C1543 C 0.26303 0.72989 0.22379 0.0
C1544 C 0.27839 0.73167 0.20505 0.0
C1545 C 0.23198 0.72477 0.25845 0.0
C1546 C 0.22258 0.69129 0.24859 0.0
C1547 C 0.24016 0.69436 0.23187 0.0
C1548 C 0.18934 0.65385 0.25334 0.0
C1549 C 0.21735 0.72344 0.27728 0.0
C1550 C 0.19147 0.62039 0.25217 0.0
C1551 C 0.15819 0.58476 0.25219 0.0
C1552 C 0.12229 0.58211 0.25337 0.0
C1553 C 0.12046 0.61546 0.25587 0.0
C1554 C 0.15358 0.65095 0.25564 0.0
H1555 H 0.2392 0.74734 0.28548 0.0
H1556 H 0.1919 0.7269 0.2767 0.0
H1557 H 0.2095 0.69615 0.28412 0.0
H1558 H 0.21872 0.62193 0.25033 0.0
H1559 H 0.16057 0.55947 0.25072 0.0
H1560 H 0.5401 0.32134 0.29259 0.0
H1561 H 0.59377 0.31097 0.29693 0.0
H1562 H 0.52351 0.21373 0.33039 0.0
H1563 H 0.47055 0.22545 0.32728 0.0
H1564 H 0.61487 0.31295 0.33596 0.0
H1565 H 0.59417 0.18487 0.29966 0.0
H1566 H 0.57643 0.21503 0.29137 0.0
H1567 H 0.55028 0.17958 0.30826 0.0
C1568 C 0.53597 0.29788 0.30099 0.0
C1569 C 0.50163 0.27565 0.31055 0.0
C1570 C 0.56653 0.29152 0.30306 0.0
C1571 C 0.56253 0.26179 0.31404 0.0
C1572 C 0.52696 0.23674 0.32174 0.0
H1573 H 0.58693 0.17836 0.39798 0.0
H1574 H 0.59451 0.22604 0.376 0.0
C1575 C 0.49672 0.24361 0.32003 0.0
C1576 C 0.59616 0.26108 0.32088 0.0
H1577 H 0.62078 0.1943 0.33009 0.0
C1578 C 0.61768 0.28791 0.33418 0.0
C1579 C 0.60025 0.22891 0.31828 0.0
C1580 C 0.57931 0.20062 0.30347 0.0
C1581 C 0.63826 0.28003 0.34688 0.0
C1582 C 0.63723 0.24482 0.34597 0.0
C1583 C 0.62104 0.22115 0.3309 0.0
C1584 C 0.64223 0.22714 0.36224 0.0
C1585 C 0.6574 0.30734 0.36225 0.0
C1586 C 0.66789 0.21361 0.36234 0.0
C1587 C 0.66396 0.1867 0.37511 0.0
C1588 C 0.6333 0.17185 0.38745 0.0
C1589 C 0.61043 0.1887 0.38853 0.0
C1590 C 0.61487 0.21615 0.37599 0.0
H1591 H 0.6671 0.33712 0.35807 0.0
H1592 H 0.63667 0.30006 0.37344 0.0
H1593 H 0.68218 0.30552 0.36734 0.0
H1594 H 0.68925 0.22192 0.35185 0.0
H1595 H 0.68347 0.17585 0.37451 0.0
H1596 H 0.16711 0.50814 0.53862 0.0
H1597 H 0.21801 0.54785 0.55973 0.0
H1598 H 0.25105 0.46215 0.56233 0.0
H1599 H 0.2014 0.42285 0.54096 0.0
H1600 H 0.25348 0.50318 0.59712 0.0
H1601 H 0.33016 0.59652 0.53849 0.0
H1602 H 0.28245 0.5854 0.54427 0.0
H1603 H 0.29033 0.54939 0.53456 0.0
C1604 C 0.18527 0.49772 0.54358 0.0
C1605 C 0.18112 0.46284 0.53748 0.0
C1606 C 0.21395 0.52029 0.55588 0.0
C1607 C 0.2384 0.50802 0.56238 0.0
C1608 C 0.23231 0.47202 0.55745 0.0
H1609 H 0.41064 0.49167 0.58622 0.0
H1610 H 0.35375 0.4962 0.58941 0.0
C1611 C 0.20397 0.44964 0.54515 0.0
C1612 C 0.27378 0.53379 0.57214 0.0
H1613 H 0.36714 0.59118 0.5612 0.0
C1614 C 0.27833 0.52373 0.58962 0.0
C1615 C 0.30597 0.56134 0.56253 0.0
C1616 C 0.30232 0.57407 0.54392 0.0
C1617 C 0.31479 0.53647 0.59669 0.0
C1618 C 0.34703 0.55864 0.58571 0.0
C1619 C 0.3424 0.57353 0.56949 0.0
C1620 C 0.38289 0.55785 0.58809 0.0
C1621 C 0.31832 0.52336 0.61519 0.0
C1622 C 0.4186 0.591 0.58627 0.0
C1623 C 0.4516 0.58846 0.58418 0.0
C1624 C 0.44927 0.55259 0.58359 0.0
C1625 C 0.41371 0.51977 0.58654 0.0
C1626 C 0.38097 0.52235 0.58863 0.0
H1627 H 0.29679 0.52348 0.62444 0.0
H1628 H 0.31252 0.49359 0.6144 0.0
H1629 H 0.34718 0.54168 0.62095 0.0
H1630 H 0.42073 0.61869 0.5857 0.0
H1631 H 0.47857 0.61456 0.5826 0.0
H1632 H 0.73339 0.21006 0.68076 0.0
H1633 H 0.75333 0.25871 0.70407 0.0
H1634 H 0.76424 0.184 0.74185 0.0
H1635 H 0.74599 0.13569 0.71813 0.0
H1636 H 0.73103 0.26629 0.73755 0.0
H1637 H 0.87119 0.27144 0.74047 0.0
H1638 H 0.83596 0.24355 0.72379 0.0
H1639 H 0.82987 0.22736 0.74674 0.0
C1640 C 0.73955 0.20382 0.6941 0.0
C1641 C 0.73875 0.16947 0.69765 0.0
C1642 C 0.75074 0.23153 0.70744 0.0
C1643 C 0.76091 0.22523 0.72461 0.0
C1644 C 0.75746 0.1898 0.72856 0.0
H1645 H 0.92462 0.43409 0.77745 0.0
H1646 H 0.87035 0.36934 0.77931 0.0
C1647 C 0.74707 0.16231 0.71505 0.0
C1648 C 0.77942 0.25772 0.73725 0.0
H1649 H 0.86767 0.32187 0.75291 0.0
C1650 C 0.76067 0.27804 0.74135 0.0
C1651 C 0.81797 0.27281 0.74239 0.0
C1652 C 0.84013 0.25291 0.73808 0.0
C1653 C 0.7805 0.31468 0.74885 0.0
C1654 C 0.81985 0.33111 0.75231 0.0
C1655 C 0.83744 0.30912 0.75016 0.0
C1656 C 0.84517 0.37266 0.75425 0.0
C1657 C 0.75977 0.33635 0.75197 0.0
C1658 C 0.8483 0.39631 0.7398 0.0
C1659 C 0.8795 0.4331 0.73854 0.0
C1660 C 0.90819 0.4469 0.75174 0.0
C1661 C 0.90327 0.42419 0.76694 0.0
C1662 C 0.87208 0.38731 0.76815 0.0
H1663 H 0.72935 0.31665 0.75538 0.0
H1664 H 0.77315 0.35761 0.76296 0.0
H1665 H 0.76059 0.3516 0.73944 0.0
H1666 H 0.82846 0.38524 0.72866 0.0
H1667 H 0.88237 0.44923 0.72648 0.0
H1668 H 0.51845 0.72081 0.78147 0.0
H1669 H 0.47004 0.73889 0.77704 0.0
H1670 H 0.5293 0.83221 0.81428 0.0
H1671 H 0.57711 0.81398 0.81908 0.0
H1672 H 0.42547 0.73273 0.80447 0.0
H1673 H 0.48875 0.87957 0.78027 0.0
H1674 H 0.51052 0.85084 0.7759 0.0
H1675 H 0.52083 0.8783 0.7964 0.0
C1676 C 0.5214 0.74538 0.78865 0.0
C1677 C 0.55082 0.76496 0.80132 0.0
C1678 C 0.494 0.75608 0.78579 0.0
C1679 C 0.49599 0.78696 0.79526 0.0
C1680 C 0.52747 0.80877 0.80647 0.0
H1681 H 0.41383 0.82375 0.87678 0.0
H1682 H 0.41862 0.79127 0.85044 0.0
C1683 C 0.55472 0.79803 0.80939 0.0
C1684 C 0.46216 0.79162 0.79696 0.0
H1685 H 0.44472 0.86334 0.80686 0.0
C1686 C 0.42889 0.76103 0.80427 0.0
C1687 C 0.46548 0.82795 0.79607 0.0
C1688 C 0.49823 0.86084 0.7865 0.0
C1689 C 0.40256 0.76742 0.81364 0.0
C1690 C 0.4102 0.80518 0.81584 0.0
C1691 C 0.43947 0.83444 0.80568 0.0
C1692 C 0.39641 0.81646 0.83186 0.0
C1693 C 0.36896 0.73433 0.82263 0.0
C1694 C 0.38123 0.84067 0.83035 0.0
C1695 C 0.37831 0.85945 0.84556 0.0
C1696 C 0.39179 0.85526 0.86245 0.0
C1697 C 0.40365 0.82826 0.86407 0.0
C1698 C 0.40607 0.80923 0.84895 0.0
H1699 H 0.35841 0.70817 0.81434 0.0
H1700 H 0.37796 0.72865 0.83581 0.0
H1701 H 0.34534 0.74026 0.82491 0.0
H1702 H 0.37354 0.84657 0.81728 0.0
H1703 H 0.36705 0.87838 0.84376 0.0
H1704 H 0.54459 0.43569 0.75913 0.0
H1705 H 0.53291 0.37017 0.75902 0.0
H1706 H 0.5445 0.37451 0.81688 0.0
H1707 H 0.5574 0.43978 0.81699 0.0
H1708 H 0.57489 0.33534 0.80175 0.0
H1709 H 0.42974 0.28549 0.77382 0.0
H1710 H 0.46994 0.31702 0.76019 0.0
H1711 H 0.46024 0.33418 0.78072 0.0
C1712 C 0.54529 0.42272 0.77175 0.0
C1713 C 0.55189 0.44276 0.78806 0.0
C1714 C 0.53846 0.38533 0.77167 0.0
C1715 C 0.53712 0.36723 0.78796 0.0
C1716 C 0.54556 0.38794 0.80412 0.0
H1717 H 0.40277 0.18455 0.8461 0.0
H1718 H 0.43218 0.23502 0.82376 0.0
C1719 C 0.553 0.42536 0.80418 0.0
C1720 C 0.52337 0.3259 0.78894 0.0
H1721 H 0.44045 0.24054 0.78779 0.0
C1722 C 0.54578 0.31428 0.79833 0.0
C1723 C 0.4855 0.29856 0.78421 0.0
C1724 C 0.45976 0.30923 0.77426 0.0
C1725 C 0.53 0.27718 0.80512 0.0
C1726 C 0.49109 0.25074 0.80177 0.0
C1727 C 0.47015 0.26108 0.79043 0.0
C1728 C 0.46972 0.21617 0.81295 0.0
C1729 C 0.55406 0.268 0.81733 0.0
C1730 C 0.48 0.18794 0.81385 0.0
C1731 C 0.46364 0.15938 0.82693 0.0
C1732 C 0.43629 0.15837 0.83899 0.0
C1733 C 0.42388 0.18478 0.83704 0.0
C1734 C 0.44063 0.21357 0.82423 0.0
H1735 H 0.58214 0.29346 0.82034 0.0
H1736 H 0.53905 0.25595 0.83026 0.0
H1737 H 0.55934 0.24649 0.81075 0.0
H1738 H 0.50155 0.18876 0.80493 0.0
H1739 H 0.47295 0.13864 0.82784 0.0
H1740 H 0.04921 0.45978 0.98753 0.0
H1741 H 0.06805 0.4282 1.00951 0.0
H1742 H 0.09868 0.52048 0.04693 0.0
H1743 H 0.08212 0.55338 0.02493 0.0
H1744 H 0.15567 0.51145 0.04107 0.0
H1745 H 0.03483 0.36891 0.05518 0.0
H1746 H 0.03862 0.37607 0.03131 0.0
H1747 H 0.02842 0.40613 0.04547 0.0
C1748 C 0.05931 0.47322 1.00053 0.0
C1749 C 0.06425 0.50946 1.00415 0.0
C1750 C 0.06935 0.45463 1.01328 0.0
C1751 C 0.08405 0.47158 0.03005 0.0
C1752 C 0.08679 0.50658 0.03418 0.0
H1753 H 0.25138 0.42187 0.07768 0.0
H1754 H 0.19912 0.43535 0.08024 0.0
C1755 C 0.07715 0.52543 0.0214 0.0
C1756 C 0.1039 0.45692 0.04131 0.0
H1757 H 0.09838 0.37361 0.05408 0.0
C1758 C 0.14283 0.48156 0.04457 0.0
C1759 C 0.0871 0.41805 0.04604 0.0
C1760 C 0.04481 0.39098 0.04448 0.0
C1761 C 0.16631 0.46766 0.05039 0.0
C1762 C 0.15019 0.42804 0.05321 0.0
C1763 C 0.11064 0.40391 0.0517 0.0
C1764 C 0.17488 0.4111 0.05432 0.0
C1765 C 0.20873 0.49499 0.05177 0.0
C1766 C 0.17695 0.39094 0.03941 0.0
C1767 C 0.20665 0.38313 0.03793 0.0
C1768 C 0.23488 0.39576 0.05127 0.0
C1769 C 0.23074 0.41292 0.06694 0.0
C1770 C 0.20076 0.42033 0.06851 0.0
H1771 H 0.21689 0.52414 0.04715 0.0
H1772 H 0.21783 0.49693 0.066 0.0
H1773 H 0.2247 0.48461 0.04361 0.0
H1774 H 0.15716 0.38361 0.02831 0.0
H1775 H 0.20885 0.36948 0.02579 0.0
H1776 H 0.81384 0.30854 0.25238 0.0
H1777 H 0.748 0.29271 0.25763 0.0
H1778 H 0.70994 0.2033 0.21787 0.0
H1779 H 0.77546 0.21987 0.21203 0.0
H1780 H 0.70748 0.30137 0.23069 0.0
H1781 H 0.62571 0.15445 0.25509 0.0
H1782 H 0.67669 0.18331 0.25836 0.0
H1783 H 0.65765 0.15608 0.23794 0.0
C1784 C 0.79148 0.28552 0.24472 0.0
C1785 C 0.80004 0.26658 0.23112 0.0
C1786 C 0.75378 0.27606 0.24804 0.0
C1787 C 0.72404 0.24672 0.23824 0.0
C1788 C 0.73235 0.22558 0.22588 0.0
H1789 H 0.60405 0.20912 0.15996 0.0
H1790 H 0.64063 0.24374 0.18604 0.0
C1791 C 0.76995 0.23531 0.22241 0.0
C1792 C 0.68563 0.24247 0.23792 0.0
H1793 H 0.59554 0.1708 0.22966 0.0
C1794 C 0.68249 0.27312 0.2312 0.0
C1795 C 0.6526 0.20623 0.23934 0.0
C1796 C 0.65336 0.17333 0.24831 0.0
C1797 C 0.64897 0.26672 0.22268 0.0
C1798 C 0.61864 0.22891 0.22071 0.0
C1799 C 0.61929 0.19974 0.2306 0.0
C1800 C 0.59335 0.2173 0.2048 0.0
C1801 C 0.64785 0.29983 0.21417 0.0
C1802 C 0.5541 0.19187 0.20644 0.0
C1803 C 0.53281 0.1718 0.19137 0.0
C1804 C 0.55078 0.17601 0.17451 0.0
C1805 C 0.5892 0.20447 0.17268 0.0
C1806 C 0.61023 0.22478 0.18765 0.0
H1807 H 0.66258 0.32551 0.22288 0.0
H1808 H 0.66324 0.3068 0.2011 0.0
H1809 H 0.61812 0.29325 0.21178 0.0
H1810 H 0.54047 0.18579 0.21954 0.0
H1811 H 0.50281 0.15177 0.19329 0.0
H1812 H 0.5082 0.83249 0.35137 0.0
H1813 H 0.47199 0.78577 0.32849 0.0
H1814 H 0.57399 0.78781 0.31019 0.0
H1815 H 0.61147 0.83661 0.3323 0.0
H1816 H 0.52347 0.77849 0.28193 0.0
H1817 H 0.44946 0.67853 0.33899 0.0
H1818 H 0.44516 0.72038 0.33749 0.0
H1819 H 0.49053 0.72489 0.34265 0.0
C1820 C 0.52366 0.82431 0.34226 0.0
C1821 C 0.56328 0.83869 0.34394 0.0
C1822 C 0.50249 0.79708 0.32919 0.0
C1823 C 0.52019 0.78296 0.31785 0.0
C1824 C 0.55977 0.79842 0.31883 0.0
H1825 H 0.53621 0.61798 0.27292 0.0
H1826 H 0.53319 0.67608 0.27485 0.0
C1827 C 0.5811 0.82604 0.33168 0.0
C1828 C 0.49763 0.74879 0.30663 0.0
H1829 H 0.4455 0.65239 0.31084 0.0
C1830 C 0.50553 0.7509 0.28811 0.0
C1831 C 0.4736 0.71291 0.31466 0.0
C1832 C 0.46419 0.70874 0.33453 0.0
C1833 C 0.49316 0.71775 0.2778 0.0
C1834 C 0.47301 0.68191 0.28636 0.0
C1835 C 0.4612 0.67993 0.3043 0.0
C1836 C 0.47202 0.64757 0.27891 0.0
C1837 C 0.50373 0.72147 0.25814 0.0
C1838 C 0.43847 0.61199 0.27986 0.0
C1839 C 0.44026 0.57852 0.27905 0.0
C1840 C 0.47572 0.58027 0.27741 0.0
C1841 C 0.50854 0.61569 0.27437 0.0
C1842 C 0.50675 0.64907 0.27525 0.0
H1843 H 0.50272 0.74593 0.25203 0.0
H1844 H 0.53342 0.72718 0.25679 0.0
H1845 H 0.48447 0.69518 0.2505 0.0
H1846 H 0.41137 0.61019 0.28266 0.0
H1847 H 0.41419 0.55151 0.28073 0.0
H1848 H 1.00401 0.5112 0.52449 0.0
H1849 H 0.98084 0.54174 0.54539 0.0
H1850 H 0.94692 0.58535 0.50057 0.0
H1851 H 0.96879 0.55429 0.47958 0.0
H1852 H 0.98337 0.63766 0.53265 0.0
H1853 H 0.86063 0.49312 0.54801 0.0
H1854 H 0.90882 0.50247 0.55019 0.0
H1855 H 0.88962 0.50077 0.52826 0.0
C1856 C 0.99144 0.52705 0.51901 0.0
C1857 C 0.98697 0.52905 0.50027 0.0
C1858 C 0.97875 0.54493 0.53102 0.0
C1859 C 0.96192 0.56537 0.52446 0.0
C1860 C 0.95995 0.56969 0.50585 0.0
H1861 H 0.82272 0.65115 0.5215 0.0
H1862 H 0.87806 0.64286 0.5233 0.0
C1863 C 0.97236 0.55175 0.49387 0.0
C1864 C 0.94174 0.57842 0.53644 0.0
H1865 H 0.85233 0.54529 0.55311 0.0
C1866 C 0.95516 0.61761 0.53771 0.0
C1867 C 0.90531 0.55214 0.54328 0.0
C1868 C 0.88996 0.50972 0.54244 0.0
C1869 C 0.9315 0.63109 0.54408 0.0
C1870 C 0.89331 0.60457 0.54869 0.0
C1871 C 0.88148 0.56562 0.54936 0.0
C1872 C 0.86346 0.61538 0.54944 0.0
C1873 C 0.94705 0.6735 0.54488 0.0
C1874 C 0.83646 0.60229 0.56341 0.0
C1875 C 0.80421 0.60621 0.56218 0.0
C1876 C 0.79847 0.62323 0.54692 0.0
C1877 C 0.82642 0.63793 0.5334 0.0
C1878 C 0.85837 0.63366 0.53455 0.0
H1879 H 0.97761 0.68858 0.54878 0.0
H1880 H 0.94519 0.68391 0.53132 0.0
H1881 H 0.931 0.68102 0.5546 0.0
H1882 H 0.83969 0.5879 0.57497 0.0
H1883 H 0.7836 0.59547 0.57304 0.0
H1884 H 0.14708 0.70489 0.64363 0.0
H1885 H 0.19887 0.71637 0.62287 0.0
H1886 H 0.26552 0.7143 0.66764 0.0
H1887 H 0.21371 0.70158 0.68815 0.0
H1888 H 0.26235 0.77827 0.62395 0.0
H1889 H 0.29809 0.66528 0.63104 0.0
H1890 H 0.25294 0.65906 0.63867 0.0
H1891 H 0.29425 0.68068 0.65315 0.0
C1892 C 0.1725 0.70597 0.6489 0.0
C1893 C 0.17647 0.70242 0.66746 0.0
C1894 C 0.20189 0.71219 0.63704 0.0
C1895 C 0.23592 0.71553 0.6436 0.0
C1896 C 0.23914 0.71043 0.66208 0.0
H1897 H 0.45743 0.86192 0.64639 0.0
H1898 H 0.39611 0.80347 0.64629 0.0
C1899 C 0.20959 0.70359 0.67388 0.0
C1900 C 0.27059 0.732 0.63217 0.0
H1901 H 0.35364 0.73083 0.62685 0.0
C1902 C 0.28174 0.76716 0.62394 0.0
C1903 C 0.29585 0.71744 0.632 0.0
C1904 C 0.28433 0.67829 0.63904 0.0
C1905 C 0.3189 0.79019 0.61752 0.0
C1906 C 0.34545 0.77742 0.6192 0.0
C1907 C 0.33328 0.74065 0.62574 0.0
C1908 C 0.38669 0.80472 0.6177 0.0
C1909 C 0.3304 0.8296 0.61069 0.0
C1910 C 0.40272 0.82345 0.60143 0.0
C1911 C 0.43787 0.85724 0.60144 0.0
C1912 C 0.45759 0.87237 0.61768 0.0
C1913 C 0.44332 0.85111 0.6336 0.0
C1914 C 0.40812 0.81753 0.63358 0.0
H1915 H 0.30708 0.83632 0.61198 0.0
H1916 H 0.35554 0.85147 0.61822 0.0
H1917 H 0.33837 0.8318 0.59626 0.0
H1918 H 0.38672 0.81365 0.589 0.0
H1919 H 0.44846 0.87272 0.58891 0.0
loop_
_geom_bond_atom_site_label_1
_geom_bond_atom_site_label_2
_geom_bond_distance
_geom_bond_site_symmetry_2
_ccdc_geom_bond_type
Zn0 N4 2.020 . S
Zn0 O8 2.019 . S
Zn0 N10 2.119 . S
Zn0 O18 1.975 . S
C1 N2 1.334 . S
C1 N5 1.336 . S
N2 C1 1.334 . S
N2 C3 1.334 . S
C3 N2 1.334 . S
C3 N4 1.336 . S
N4 Zn0 2.020 . S
N4 C3 1.336 . S
N4 N5 1.354 . S
N5 C1 1.336 . S
N5 N4 1.354 . S
N5 Zn9 2.020 . S
C6 O7 1.244 . S
C6 O30 1.257 . S
O7 C6 1.244 . S
O8 Zn0 2.019 . S
O8 C28 1.257 . S
Zn9 N5 2.020 . S
Zn9 O16 1.975 1_554 S
Zn9 N25 2.119 . S
Zn9 O30 2.019 1_554 S
N10 Zn0 2.119 . S
N10 C12 1.334 1_554 S
N10 C13 1.328 . S
C11 C12 1.391 . S
C11 N14 1.329 . S
C11 H32 0.930 . S
C12 N10 1.334 1_556 S
C12 C11 1.391 . S
C12 H19 0.930 . S
C13 N10 1.328 . S
C13 C15 1.392 1_554 S
C13 H20 0.930 . S
N14 C11 1.329 . S
N14 C15 1.331 . S
C15 C13 1.392 1_556 S
C15 N14 1.331 . S
O16 Zn9 1.975 1_556 S
O16 C17 1.252 . S
C17 O16 1.252 . S
C17 O18 1.252 1_556 S
O18 Zn0 1.975 . S
O18 C17 1.252 1_554 S
H19 C12 0.930 . S
H20 C13 0.930 . S
C21 C22 1.392 . S
C21 N25 1.328 . S
C21 H27 0.930 . S
C22 C21 1.392 . S
C22 N26 1.331 . S
C23 C24 1.391 . S
C23 N26 1.329 . S
C23 H33 0.930 . S
C24 C23 1.391 . S
C24 N25 1.334 . S
C24 H31 0.930 . S
N25 Zn9 2.119 . S
N25 C21 1.328 . S
N25 C24 1.334 . S
N26 C22 1.331 . S
N26 C23 1.329 . S
H27 C21 0.930 . S
C28 O8 1.257 . S
C28 O29 1.244 . S
O29 C28 1.244 . S
O30 C6 1.257 . S
O30 Zn9 2.019 1_556 S
H31 C24 0.930 . S
H32 C11 0.930 . S
H33 C23 0.930 . S
Zn34 N38 2.020 . S
Zn34 O42 2.019 1_655 S
Zn34 N44 2.119 . S
Zn34 O52 1.975 . S
C35 N36 1.334 . S
C35 N39 1.336 . S
N36 C35 1.334 . S
N36 C37 1.334 . S
C37 N36 1.334 . S
C37 N38 1.336 . S
N38 Zn34 2.020 . S
N38 C37 1.336 . S
N38 N39 1.354 . S
N39 C35 1.336 . S
N39 N38 1.354 . S
N39 Zn43 2.020 . S
C40 O41 1.244 . S
C40 O64 1.257 . S
O41 C40 1.244 . S
O42 Zn34 2.019 1_455 S
O42 C62 1.257 . S
Zn43 N39 2.020 . S
Zn43 O50 1.975 . S
Zn43 N59 2.119 . S
Zn43 O64 2.019 . S
N44 Zn34 2.119 . S
N44 C46 1.334 . S
N44 C47 1.328 1_655 S
C45 C46 1.391 . S
C45 N48 1.329 1_655 S
C45 H66 0.930 . S
C46 N44 1.334 . S
C46 C45 1.391 . S
C46 H53 0.930 . S
C47 N44 1.328 1_455 S
C47 C49 1.392 . S
C47 H54 0.930 . S
N48 C45 1.329 1_455 S
N48 C49 1.331 . S
C49 C47 1.392 . S
C49 N48 1.331 . S
O50 Zn43 1.975 . S
O50 C51 1.252 . S
C51 O50 1.252 . S
C51 O52 1.252 . S
O52 Zn34 1.975 . S
O52 C51 1.252 . S
H53 C46 0.930 . S
H54 C47 0.930 . S
C55 C56 1.392 . S
C55 N59 1.328 . S
C55 H61 0.930 . S
C56 C55 1.392 . S
C56 N60 1.331 . S
C57 C58 1.391 . S
C57 N60 1.329 . S
C57 H67 0.930 . S
C58 C57 1.391 . S
C58 N59 1.334 . S
C58 H65 0.930 . S
N59 Zn43 2.119 . S
N59 C55 1.328 . S
N59 C58 1.334 . S
N60 C56 1.331 . S
N60 C57 1.329 . S
H61 C55 0.930 . S
C62 O42 1.257 . S
C62 O63 1.244 1_455 S
O63 C62 1.244 1_655 S
O64 C40 1.257 . S
O64 Zn43 2.019 . S
H65 C58 0.930 . S
H66 C45 0.930 . S
H67 C57 0.930 . S
Zn68 N72 2.020 . S
Zn68 O76 2.019 . S
Zn68 N78 2.119 . S
Zn68 O86 1.975 . S
C69 N70 1.334 . S
C69 N73 1.336 . S
N70 C69 1.334 . S
N70 C71 1.334 . S
C71 N70 1.334 . S
C71 N72 1.336 . S
N72 Zn68 2.020 . S
N72 C71 1.336 . S
N72 N73 1.354 . S
N73 C69 1.336 . S
N73 N72 1.354 . S
N73 Zn77 2.020 . S
C74 O75 1.244 1_545 S
C74 O98 1.257 . S
O75 C74 1.244 1_565 S
O76 Zn68 2.019 . S
O76 C96 1.257 . S
Zn77 N73 2.020 . S
Zn77 O84 1.975 . S
Zn77 N93 2.119 . S
Zn77 O98 2.019 1_565 S
N78 Zn68 2.119 . S
N78 C80 1.334 . S
N78 C81 1.328 . S
C79 C80 1.391 . S
C79 N82 1.329 . S
C79 H100 0.930 . S
C80 N78 1.334 . S
C80 C79 1.391 . S
C80 H87 0.930 . S
C81 N78 1.328 . S
C81 C83 1.392 . S
C81 H88 0.930 . S
N82 C79 1.329 . S
N82 C83 1.331 . S
C83 C81 1.392 . S
C83 N82 1.331 . S
O84 Zn77 1.975 . S
O84 C85 1.252 . S
C85 O84 1.252 . S
C85 O86 1.252 . S
O86 Zn68 1.975 . S
O86 C85 1.252 . S
H87 C80 0.930 . S
H88 C81 0.930 . S
C89 C90 1.392 . S
C89 N93 1.328 1_545 S
C89 H95 0.930 . S
C90 C89 1.392 . S
C90 N94 1.331 . S
C91 C92 1.391 . S
C91 N94 1.329 1_565 S
C91 H101 0.930 . S
C92 C91 1.391 . S
C92 N93 1.334 . S
C92 H99 0.930 . S
N93 Zn77 2.119 . S
N93 C89 1.328 1_565 S
N93 C92 1.334 . S
N94 C90 1.331 . S
N94 C91 1.329 1_545 S
H95 C89 0.930 . S
C96 O76 1.257 . S
C96 O97 1.244 . S
O97 C96 1.244 . S
O98 C74 1.257 . S
O98 Zn77 2.019 1_545 S
H99 C92 0.930 . S
H100 C79 0.930 . S
H101 C91 0.930 . S
Zn102 N106 2.020 . S
Zn102 O110 2.019 . S
Zn102 N112 2.119 . S
Zn102 O120 1.975 . S
C103 N104 1.334 . S
C103 N107 1.336 . S
N104 C103 1.334 . S
N104 C105 1.334 . S
C105 N104 1.334 . S
C105 N106 1.336 . S
N106 Zn102 2.020 . S
N106 C105 1.336 . S
N106 N107 1.354 . S
N107 C103 1.336 . S
N107 N106 1.354 . S
N107 Zn111 2.020 . S
C108 O109 1.244 . S
C108 O132 1.257 . S
O109 C108 1.244 . S
O110 Zn102 2.019 . S
O110 C130 1.257 . S
Zn111 N107 2.020 . S
Zn111 O118 1.975 . S
Zn111 N127 2.119 . S
Zn111 O132 2.019 . S
N112 Zn102 2.119 . S
N112 C114 1.334 . S
N112 C115 1.328 . S
C113 C114 1.391 . S
C113 N116 1.329 . S
C113 H134 0.930 . S
C114 N112 1.334 . S
C114 C113 1.391 . S
C114 H121 0.930 . S
C115 N112 1.328 . S
C115 C117 1.392 . S
C115 H122 0.930 . S
N116 C113 1.329 . S
N116 C117 1.331 . S
C117 C115 1.392 . S
C117 N116 1.331 . S
O118 Zn111 1.975 . S
O118 C119 1.252 . S
C119 O118 1.252 . S
C119 O120 1.252 . S
O120 Zn102 1.975 . S
O120 C119 1.252 . S
H121 C114 0.930 . S
H122 C115 0.930 . S
C123 C124 1.392 . S
C123 N127 1.328 . S
C123 H129 0.930 . S
C124 C123 1.392 . S
C124 N128 1.331 . S
C125 C126 1.391 . S
C125 N128 1.329 . S
C125 H135 0.930 . S
C126 C125 1.391 . S
C126 N127 1.334 . S
C126 H133 0.930 . S
N127 Zn111 2.119 . S
N127 C123 1.328 . S
N127 C126 1.334 . S
N128 C124 1.331 . S
N128 C125 1.329 . S
H129 C123 0.930 . S
C130 O110 1.257 . S
C130 O131 1.244 . S
O131 C130 1.244 . S
O132 C108 1.257 . S
O132 Zn111 2.019 . S
H133 C126 0.930 . S
H134 C113 0.930 . S
H135 C125 0.930 . S
Zn136 N140 2.020 . S
Zn136 O144 2.019 . S
Zn136 N146 2.119 . S
Zn136 O154 1.975 . S
C137 N138 1.334 . S
C137 N141 1.336 . S
N138 C137 1.334 . S
N138 C139 1.334 . S
C139 N138 1.334 . S
C139 N140 1.336 . S
N140 Zn136 2.020 . S
N140 C139 1.336 . S
N140 N141 1.354 . S
N141 C137 1.336 . S
N141 N140 1.354 . S
N141 Zn145 2.020 . S
C142 O143 1.244 1_655 S
C142 O166 1.257 . S
O143 C142 1.244 1_455 S
O144 Zn136 2.019 . S
O144 C164 1.257 . S
Zn145 N141 2.020 . S
Zn145 O152 1.975 . S
Zn145 N161 2.119 . S
Zn145 O166 2.019 1_455 S
N146 Zn136 2.119 . S
N146 C148 1.334 . S
N146 C149 1.328 . S
C147 C148 1.391 . S
C147 N150 1.329 . S
C147 H168 0.930 . S
C148 N146 1.334 . S
C148 C147 1.391 . S
C148 H155 0.930 . S
C149 N146 1.328 . S
C149 C151 1.392 . S
C149 H156 0.930 . S
N150 C147 1.329 . S
N150 C151 1.331 . S
C151 C149 1.392 . S
C151 N150 1.331 . S
O152 Zn145 1.975 . S
O152 C153 1.252 . S
C153 O152 1.252 . S
C153 O154 1.252 . S
O154 Zn136 1.975 . S
O154 C153 1.252 . S
H155 C148 0.930 . S
H156 C149 0.930 . S
C157 C158 1.392 . S
C157 N161 1.328 1_655 S
C157 H163 0.930 . S
C158 C157 1.392 . S
C158 N162 1.331 . S
C159 C160 1.391 . S
C159 N162 1.329 1_455 S
C159 H169 0.930 . S
C160 C159 1.391 . S
C160 N161 1.334 . S
C160 H167 0.930 . S
N161 Zn145 2.119 . S
N161 C157 1.328 1_455 S
N161 C160 1.334 . S
N162 C158 1.331 . S
N162 C159 1.329 1_655 S
H163 C157 0.930 . S
C164 O144 1.257 . S
C164 O165 1.244 . S
O165 C164 1.244 . S
O166 C142 1.257 . S
O166 Zn145 2.019 1_655 S
H167 C160 0.930 . S
H168 C147 0.930 . S
H169 C159 0.930 . S
Zn170 N174 2.020 . S
Zn170 O178 2.019 1_545 S
Zn170 N180 2.119 . S
Zn170 O188 1.975 . S
C171 N172 1.334 . S
C171 N175 1.336 . S
N172 C171 1.334 . S
N172 C173 1.334 . S
C173 N172 1.334 . S
C173 N174 1.336 . S
N174 Zn170 2.020 . S
N174 C173 1.336 . S
N174 N175 1.354 . S
N175 C171 1.336 . S
N175 N174 1.354 . S
N175 Zn179 2.020 . S
C176 O177 1.244 . S
C176 O200 1.257 . S
O177 C176 1.244 . S
O178 Zn170 2.019 1_565 S
O178 C198 1.257 . S
Zn179 N175 2.020 . S
Zn179 O186 1.975 . S
Zn179 N195 2.119 . S
Zn179 O200 2.019 . S
N180 Zn170 2.119 . S
N180 C182 1.334 . S
N180 C183 1.328 1_545 S
C181 C182 1.391 . S
C181 N184 1.329 1_545 S
C181 H202 0.930 . S
C182 N180 1.334 . S
C182 C181 1.391 . S
C182 H189 0.930 . S
C183 N180 1.328 1_565 S
C183 C185 1.392 . S
C183 H190 0.930 . S
N184 C181 1.329 1_565 S
N184 C185 1.331 . S
C185 C183 1.392 . S
C185 N184 1.331 . S
O186 Zn179 1.975 . S
O186 C187 1.252 . S
C187 O186 1.252 . S
C187 O188 1.252 . S
O188 Zn170 1.975 . S
O188 C187 1.252 . S
H189 C182 0.930 . S
H190 C183 0.930 . S
C191 C192 1.392 . S
C191 N195 1.328 . S
C191 H197 0.930 . S
C192 C191 1.392 . S
C192 N196 1.331 . S
C193 C194 1.391 . S
C193 N196 1.329 . S
C193 H203 0.930 . S
C194 C193 1.391 . S
C194 N195 1.334 . S
C194 H201 0.930 . S
N195 Zn179 2.119 . S
N195 C191 1.328 . S
N195 C194 1.334 . S
N196 C192 1.331 . S
N196 C193 1.329 . S
H197 C191 0.930 . S
C198 O178 1.257 . S
C198 O199 1.244 1_565 S
O199 C198 1.244 1_545 S
O200 C176 1.257 . S
O200 Zn179 2.019 . S
H201 C194 0.930 . S
H202 C181 0.930 . S
H203 C193 0.930 . S
Zn204 N208 2.020 . S
Zn204 O212 2.019 . S
Zn204 N214 2.119 . S
Zn204 O222 1.975 . S
C205 N206 1.334 . S
C205 N209 1.336 . S
N206 C205 1.334 . S
N206 C207 1.334 . S
C207 N206 1.334 . S
C207 N208 1.336 . S
N208 Zn204 2.020 . S
N208 C207 1.336 . S
N208 N209 1.354 . S
N209 C205 1.336 . S
N209 N208 1.354 . S
N209 Zn213 2.020 . S
C210 O211 1.244 . S
C210 O234 1.257 . S
O211 C210 1.244 . S
O212 Zn204 2.019 . S
O212 C232 1.257 . S
Zn213 N209 2.020 . S
Zn213 O220 1.975 . S
Zn213 N229 2.119 . S
Zn213 O234 2.019 . S
N214 Zn204 2.119 . S
N214 C216 1.334 . S
N214 C217 1.328 . S
C215 C216 1.391 . S
C215 N218 1.329 . S
C215 H236 0.930 . S
C216 N214 1.334 . S
C216 C215 1.391 . S
C216 H223 0.930 . S
C217 N214 1.328 . S
C217 C219 1.392 . S
C217 H224 0.930 . S
N218 C215 1.329 . S
N218 C219 1.331 . S
C219 C217 1.392 . S
C219 N218 1.331 . S
O220 Zn213 1.975 . S
O220 C221 1.252 . S
C221 O220 1.252 . S
C221 O222 1.252 . S
O222 Zn204 1.975 . S
O222 C221 1.252 . S
H223 C216 0.930 . S
H224 C217 0.930 . S
C225 C226 1.392 . S
C225 N229 1.328 . S
C225 H231 0.930 . S
C226 C225 1.392 . S
C226 N230 1.331 . S
C227 C228 1.391 . S
C227 N230 1.329 . S
C227 H237 0.930 . S
C228 C227 1.391 . S
C228 N229 1.334 . S
C228 H235 0.930 . S
N229 Zn213 2.119 . S
N229 C225 1.328 . S
N229 C228 1.334 . S
N230 C226 1.331 . S
N230 C227 1.329 . S
H231 C225 0.930 . S
C232 O212 1.257 . S
C232 O233 1.244 . S
O233 C232 1.244 . S
O234 C210 1.257 . S
O234 Zn213 2.019 . S
H235 C228 0.930 . S
H236 C215 0.930 . S
H237 C227 0.930 . S
Zn238 N242 2.020 . S
Zn238 O246 2.019 1_656 S
Zn238 N248 2.119 . S
Zn238 O256 1.975 1_556 S
C239 N240 1.334 . S
C239 N243 1.336 . S
N240 C239 1.334 . S
N240 C241 1.334 . S
C241 N240 1.334 . S
C241 N242 1.336 . S
N242 Zn238 2.020 . S
N242 C241 1.336 . S
N242 N243 1.354 . S
N243 C239 1.336 . S
N243 N242 1.354 . S
N243 Zn247 2.020 . S
C244 O245 1.244 . S
C244 O268 1.257 . S
O245 C244 1.244 . S
O246 Zn238 2.019 1_454 S
O246 C266 1.257 . S
Zn247 N243 2.020 . S
Zn247 O254 1.975 . S
Zn247 N263 2.119 . S
Zn247 O268 2.019 . S
N248 Zn238 2.119 . S
N248 C250 1.334 . S
N248 C251 1.328 1_655 S
C249 C250 1.391 . S
C249 N252 1.329 1_655 S
C249 H270 0.930 . S
C250 N248 1.334 . S
C250 C249 1.391 . S
C250 H257 0.930 . S
C251 N248 1.328 1_455 S
C251 C253 1.392 . S
C251 H258 0.930 . S
N252 C249 1.329 1_455 S
N252 C253 1.331 . S
C253 C251 1.392 . S
C253 N252 1.331 . S
O254 Zn247 1.975 . S
O254 C255 1.252 1_556 S
C255 O254 1.252 1_554 S
C255 O256 1.252 . S
O256 Zn238 1.975 1_554 S
O256 C255 1.252 . S
H257 C250 0.930 . S
H258 C251 0.930 . S
C259 C260 1.392 1_556 S
C259 N263 1.328 . S
C259 H265 0.930 . S
C260 C259 1.392 1_554 S
C260 N264 1.331 . S
C261 C262 1.391 . S
C261 N264 1.329 . S
C261 H271 0.930 . S
C262 C261 1.391 . S
C262 N263 1.334 1_554 S
C262 H269 0.930 . S
N263 Zn247 2.119 . S
N263 C259 1.328 . S
N263 C262 1.334 1_556 S
N264 C260 1.331 . S
N264 C261 1.329 . S
H265 C259 0.930 . S
C266 O246 1.257 . S
C266 O267 1.244 1_455 S
O267 C266 1.244 1_655 S
O268 C244 1.257 . S
O268 Zn247 2.019 . S
H269 C262 0.930 . S
H270 C249 0.930 . S
H271 C261 0.930 . S
Zn272 N276 2.020 . S
Zn272 O280 2.019 . S
Zn272 N282 2.119 . S
Zn272 O290 1.975 . S
C273 N274 1.334 . S
C273 N277 1.336 . S
N274 C273 1.334 . S
N274 C275 1.334 . S
C275 N274 1.334 . S
C275 N276 1.336 . S
N276 Zn272 2.020 . S
N276 C275 1.336 . S
N276 N277 1.354 . S
N277 C273 1.336 . S
N277 N276 1.354 . S
N277 Zn281 2.020 . S
C278 O279 1.244 1_545 S
C278 O302 1.257 . S
O279 C278 1.244 1_565 S
O280 Zn272 2.019 . S
O280 C300 1.257 . S
Zn281 N277 2.020 . S
Zn281 O288 1.975 . S
Zn281 N297 2.119 . S
Zn281 O302 2.019 1_565 S
N282 Zn272 2.119 . S
N282 C284 1.334 . S
N282 C285 1.328 . S
C283 C284 1.391 . S
C283 N286 1.329 . S
C283 H304 0.930 . S
C284 N282 1.334 . S
C284 C283 1.391 . S
C284 H291 0.930 . S
C285 N282 1.328 . S
C285 C287 1.392 . S
C285 H292 0.930 . S
N286 C283 1.329 . S
N286 C287 1.331 . S
C287 C285 1.392 . S
C287 N286 1.331 . S
O288 Zn281 1.975 . S
O288 C289 1.252 . S
C289 O288 1.252 . S
C289 O290 1.252 . S
O290 Zn272 1.975 . S
O290 C289 1.252 . S
H291 C284 0.930 . S
H292 C285 0.930 . S
C293 C294 1.392 . S
C293 N297 1.328 1_545 S
C293 H299 0.930 . S
C294 C293 1.392 . S
C294 N298 1.331 . S
C295 C296 1.391 . S
C295 N298 1.329 1_565 S
C295 H305 0.930 . S
C296 C295 1.391 . S
C296 N297 1.334 . S
C296 H303 0.930 . S
N297 Zn281 2.119 . S
N297 C293 1.328 1_565 S
N297 C296 1.334 . S
N298 C294 1.331 . S
N298 C295 1.329 1_545 S
H299 C293 0.930 . S
C300 O280 1.257 . S
C300 O301 1.244 . S
O301 C300 1.244 . S
O302 C278 1.257 . S
O302 Zn281 2.019 1_545 S
H303 C296 0.930 . S
H304 C283 0.930 . S
H305 C295 0.930 . S
Zn306 N310 2.020 . S
Zn306 O314 2.019 . S
Zn306 N316 2.119 . S
Zn306 O324 1.975 . S
C307 N308 1.334 . S
C307 N311 1.336 . S
N308 C307 1.334 . S
N308 C309 1.334 . S
C309 N308 1.334 . S
C309 N310 1.336 . S
N310 Zn306 2.020 . S
N310 C309 1.336 . S
N310 N311 1.354 . S
N311 C307 1.336 . S
N311 N310 1.354 . S
N311 Zn315 2.020 . S
C312 O313 1.244 . S
C312 O336 1.257 . S
O313 C312 1.244 . S
O314 Zn306 2.019 . S
O314 C334 1.257 . S
Zn315 N311 2.020 . S
Zn315 O322 1.975 . S
Zn315 N331 2.119 . S
Zn315 O336 2.019 . S
N316 Zn306 2.119 . S
N316 C318 1.334 . S
N316 C319 1.328 . S
C317 C318 1.391 . S
C317 N320 1.329 . S
C317 H338 0.930 . S
C318 N316 1.334 . S
C318 C317 1.391 . S
C318 H325 0.930 . S
C319 N316 1.328 . S
C319 C321 1.392 . S
C319 H326 0.930 . S
N320 C317 1.329 . S
N320 C321 1.331 . S
C321 C319 1.392 . S
C321 N320 1.331 . S
O322 Zn315 1.975 . S
O322 C323 1.252 . S
C323 O322 1.252 . S
C323 O324 1.252 . S
O324 Zn306 1.975 . S
O324 C323 1.252 . S
H325 C318 0.930 . S
H326 C319 0.930 . S
C327 C328 1.392 . S
C327 N331 1.328 . S
C327 H333 0.930 . S
C328 C327 1.392 . S
C328 N332 1.331 . S
C329 C330 1.391 . S
C329 N332 1.329 . S
C329 H339 0.930 . S
C330 C329 1.391 . S
C330 N331 1.334 . S
C330 H337 0.930 . S
N331 Zn315 2.119 . S
N331 C327 1.328 . S
N331 C330 1.334 . S
N332 C328 1.331 . S
N332 C329 1.329 . S
H333 C327 0.930 . S
C334 O314 1.257 . S
C334 O335 1.244 . S
O335 C334 1.244 . S
O336 C312 1.257 . S
O336 Zn315 2.019 . S
H337 C330 0.930 . S
H338 C317 0.930 . S
H339 C329 0.930 . S
Zn340 N344 2.020 . S
Zn340 O348 2.019 . S
Zn340 N350 2.119 . S
Zn340 O358 1.975 . S
C341 N342 1.334 . S
C341 N345 1.336 . S
N342 C341 1.334 . S
N342 C343 1.334 . S
C343 N342 1.334 . S
C343 N344 1.336 . S
N344 Zn340 2.020 . S
N344 C343 1.336 . S
N344 N345 1.354 . S
N345 C341 1.336 . S
N345 N344 1.354 . S
N345 Zn349 2.020 . S
C346 O347 1.244 1_655 S
C346 O370 1.257 . S
O347 C346 1.244 1_455 S
O348 Zn340 2.019 . S
O348 C368 1.257 . S
Zn349 N345 2.020 . S
Zn349 O356 1.975 . S
Zn349 N365 2.119 . S
Zn349 O370 2.019 1_455 S
N350 Zn340 2.119 . S
N350 C352 1.334 . S
N350 C353 1.328 . S
C351 C352 1.391 . S
C351 N354 1.329 . S
C351 H372 0.930 . S
C352 N350 1.334 . S
C352 C351 1.391 . S
C352 H359 0.930 . S
C353 N350 1.328 . S
C353 C355 1.392 . S
C353 H360 0.930 . S
N354 C351 1.329 . S
N354 C355 1.331 . S
C355 C353 1.392 . S
C355 N354 1.331 . S
O356 Zn349 1.975 . S
O356 C357 1.252 . S
C357 O356 1.252 . S
C357 O358 1.252 . S
O358 Zn340 1.975 . S
O358 C357 1.252 . S
H359 C352 0.930 . S
H360 C353 0.930 . S
C361 C362 1.392 . S
C361 N365 1.328 1_655 S
C361 H367 0.930 . S
C362 C361 1.392 . S
C362 N366 1.331 . S
C363 C364 1.391 . S
C363 N366 1.329 1_455 S
C363 H373 0.930 . S
C364 C363 1.391 . S
C364 N365 1.334 . S
C364 H371 0.930 . S
N365 Zn349 2.119 . S
N365 C361 1.328 1_455 S
N365 C364 1.334 . S
N366 C362 1.331 . S
N366 C363 1.329 1_655 S
H367 C361 0.930 . S
C368 O348 1.257 . S
C368 O369 1.244 . S
O369 C368 1.244 . S
O370 C346 1.257 . S
O370 Zn349 2.019 1_655 S
H371 C364 0.930 . S
H372 C351 0.930 . S
H373 C363 0.930 . S
Zn374 N378 2.020 . S
Zn374 O382 2.019 1_545 S
Zn374 N384 2.119 . S
Zn374 O392 1.975 . S
C375 N376 1.334 . S
C375 N379 1.336 . S
N376 C375 1.334 . S
N376 C377 1.334 . S
C377 N376 1.334 . S
C377 N378 1.336 . S
N378 Zn374 2.020 . S
N378 C377 1.336 . S
N378 N379 1.354 . S
N379 C375 1.336 . S
N379 N378 1.354 . S
N379 Zn383 2.020 . S
C380 O381 1.244 . S
C380 O404 1.257 . S
O381 C380 1.244 . S
O382 Zn374 2.019 1_565 S
O382 C402 1.257 . S
Zn383 N379 2.020 . S
Zn383 O390 1.975 . S
Zn383 N399 2.119 . S
Zn383 O404 2.019 . S
N384 Zn374 2.119 . S
N384 C386 1.334 . S
N384 C387 1.328 1_545 S
C385 C386 1.391 . S
C385 N388 1.329 1_545 S
C385 H406 0.930 . S
C386 N384 1.334 . S
C386 C385 1.391 . S
C386 H393 0.930 . S
C387 N384 1.328 1_565 S
C387 C389 1.392 . S
C387 H394 0.930 . S
N388 C385 1.329 1_565 S
N388 C389 1.331 . S
C389 C387 1.392 . S
C389 N388 1.331 . S
O390 Zn383 1.975 . S
O390 C391 1.252 . S
C391 O390 1.252 . S
C391 O392 1.252 . S
O392 Zn374 1.975 . S
O392 C391 1.252 . S
H393 C386 0.930 . S
H394 C387 0.930 . S
C395 C396 1.392 . S
C395 N399 1.328 . S
C395 H401 0.930 . S
C396 C395 1.392 . S
C396 N400 1.331 . S
C397 C398 1.391 . S
C397 N400 1.329 . S
C397 H407 0.930 . S
C398 C397 1.391 . S
C398 N399 1.334 . S
C398 H405 0.930 . S
N399 Zn383 2.119 . S
N399 C395 1.328 . S
N399 C398 1.334 . S
N400 C396 1.331 . S
N400 C397 1.329 . S
H401 C395 0.930 . S
C402 O382 1.257 . S
C402 O403 1.244 1_565 S
O403 C402 1.244 1_545 S
O404 C380 1.257 . S
O404 Zn383 2.019 . S
H405 C398 0.930 . S
H406 C385 0.930 . S
H407 C397 0.930 . S
H408 C416 0.929 . S
H409 C418 0.930 . S
H410 C420 0.930 . S
H411 C423 0.929 . S
H412 C426 0.930 . S
H413 C428 0.960 . S
H414 C428 0.960 . S
H415 C428 0.960 . S
C416 H408 0.929 . S
C416 C417 1.377 . S
C416 C418 1.384 . S
C417 C416 1.377 . S
C417 C423 1.390 . S
C418 H409 0.930 . S
C418 C416 1.384 . S
C418 C419 1.372 . S
C419 C418 1.372 . S
C419 C420 1.400 . S
C419 C424 1.490 . S
C420 H410 0.930 . S
C420 C419 1.400 . S
C420 C423 1.386 . S
H421 C437 0.930 . S
H422 C438 0.931 . S
C423 H411 0.929 . S
C423 C417 1.390 . S
C423 C420 1.386 . S
C424 C419 1.490 . S
C424 C426 1.395 . S
C424 C427 1.403 . S
H425 C431 0.930 . S
C426 H412 0.930 . S
C426 C424 1.395 . S
C426 C429 1.403 . S
C427 C424 1.403 . S
C427 C428 1.524 . S
C427 C431 1.400 . S
C428 H413 0.960 . S
C428 H414 0.960 . S
C428 H415 0.960 . S
C428 C427 1.524 . S
C429 C426 1.403 . S
C429 C430 1.392 . S
C429 C433 1.495 . S
C430 C429 1.392 . S
C430 C431 1.385 . S
C430 C432 1.478 . S
C431 H425 0.930 . S
C431 C427 1.400 . S
C431 C430 1.385 . S
C432 C430 1.478 . S
C432 C434 1.381 . S
C432 C438 1.383 . S
C433 C429 1.495 . S
C433 H439 0.959 . S
C433 H440 0.961 . S
C433 H441 0.960 . S
C434 C432 1.381 . S
C434 C435 1.394 . S
C434 H442 0.930 . S
C435 C434 1.394 . S
C435 C436 1.383 . S
C435 H443 0.929 . S
C436 C435 1.383 . S
C436 C437 1.377 . S
C437 H421 0.930 . S
C437 C436 1.377 . S
C437 C438 1.379 . S
C438 H422 0.931 . S
C438 C432 1.383 . S
C438 C437 1.379 . S
H439 C433 0.959 . S
H440 C433 0.961 . S
H441 C433 0.960 . S
H442 C434 0.930 . S
H443 C435 0.929 . S
H444 C452 0.929 . S
H445 C454 0.930 . S
H446 C456 0.930 . S
H447 C459 0.929 . S
H448 C462 0.930 . S
H449 C464 0.960 . S
H450 C464 0.960 . S
H451 C464 0.960 . S
C452 H444 0.929 . S
C452 C453 1.377 . S
C452 C454 1.384 . S
C453 C452 1.377 . S
C453 C459 1.390 . S
C454 H445 0.930 . S
C454 C452 1.384 . S
C454 C455 1.372 . S
C455 C454 1.372 . S
C455 C456 1.400 . S
C455 C460 1.490 . S
C456 H446 0.930 . S
C456 C455 1.400 . S
C456 C459 1.386 . S
H457 C473 0.930 . S
H458 C474 0.931 . S
C459 H447 0.929 . S
C459 C453 1.390 . S
C459 C456 1.386 . S
C460 C455 1.490 . S
C460 C462 1.395 . S
C460 C463 1.403 . S
H461 C467 0.930 . S
C462 H448 0.930 . S
C462 C460 1.395 . S
C462 C465 1.403 . S
C463 C460 1.403 . S
C463 C464 1.524 . S
C463 C467 1.400 . S
C464 H449 0.960 . S
C464 H450 0.960 . S
C464 H451 0.960 . S
C464 C463 1.524 . S
C465 C462 1.403 . S
C465 C466 1.392 . S
C465 C469 1.495 . S
C466 C465 1.392 . S
C466 C467 1.385 . S
C466 C468 1.478 . S
C467 H461 0.930 . S
C467 C463 1.400 . S
C467 C466 1.385 . S
C468 C466 1.478 . S
C468 C470 1.381 . S
C468 C474 1.383 . S
C469 C465 1.495 . S
C469 H475 0.959 . S
C469 H476 0.961 . S
C469 H477 0.960 . S
C470 C468 1.381 . S
C470 C471 1.394 . S
C470 H478 0.930 . S
C471 C470 1.394 . S
C471 C472 1.383 . S
C471 H479 0.929 . S
C472 C471 1.383 . S
C472 C473 1.377 . S
C473 H457 0.930 . S
C473 C472 1.377 . S
C473 C474 1.379 . S
C474 H458 0.931 . S
C474 C468 1.383 . S
C474 C473 1.379 . S
H475 C469 0.959 . S
H476 C469 0.961 . S
H477 C469 0.960 . S
H478 C470 0.930 . S
H479 C471 0.929 . S
H480 C488 0.929 . S
H481 C490 0.930 . S
H482 C492 0.930 . S
H483 C495 0.929 . S
H484 C498 0.930 . S
H485 C500 0.960 . S
H486 C500 0.960 . S
H487 C500 0.960 . S
C488 H480 0.929 . S
C488 C489 1.377 . S
C488 C490 1.384 . S
C489 C488 1.377 . S
C489 C495 1.390 . S
C490 H481 0.930 . S
C490 C488 1.384 . S
C490 C491 1.372 . S
C491 C490 1.372 . S
C491 C492 1.400 . S
C491 C496 1.490 . S
C492 H482 0.930 . S
C492 C491 1.400 . S
C492 C495 1.386 . S
H493 C509 0.930 . S
H494 C510 0.931 . S
C495 H483 0.929 . S
C495 C489 1.390 . S
C495 C492 1.386 . S
C496 C491 1.490 . S
C496 C498 1.395 . S
C496 C499 1.403 . S
H497 C503 0.930 . S
C498 H484 0.930 . S
C498 C496 1.395 . S
C498 C501 1.403 . S
C499 C496 1.403 . S
C499 C500 1.524 . S
C499 C503 1.400 . S
C500 H485 0.960 . S
C500 H486 0.960 . S
C500 H487 0.960 . S
C500 C499 1.524 . S
C501 C498 1.403 . S
C501 C502 1.392 . S
C501 C505 1.495 . S
C502 C501 1.392 . S
C502 C503 1.385 . S
C502 C504 1.478 . S
C503 H497 0.930 . S
C503 C499 1.400 . S
C503 C502 1.385 . S
C504 C502 1.478 . S
C504 C506 1.381 . S
C504 C510 1.383 . S
C505 C501 1.495 . S
C505 H511 0.959 . S
C505 H512 0.961 . S
C505 H513 0.960 . S
C506 C504 1.381 . S
C506 C507 1.394 . S
C506 H514 0.930 . S
C507 C506 1.394 . S
C507 C508 1.383 . S
C507 H515 0.929 . S
C508 C507 1.383 . S
C508 C509 1.377 . S
C509 H493 0.930 . S
C509 C508 1.377 . S
C509 C510 1.379 . S
C510 H494 0.931 . S
C510 C504 1.383 . S
C510 C509 1.379 . S
H511 C505 0.959 . S
H512 C505 0.961 . S
H513 C505 0.960 . S
H514 C506 0.930 . S
H515 C507 0.929 . S
H516 C524 0.929 . S
H517 C526 0.930 . S
H518 C528 0.930 . S
H519 C531 0.929 . S
H520 C534 0.930 . S
H521 C536 0.960 . S
H522 C536 0.960 . S
H523 C536 0.960 . S
C524 H516 0.929 . S
C524 C525 1.377 . S
C524 C526 1.384 . S
C525 C524 1.377 . S
C525 C531 1.390 . S
C526 H517 0.930 . S
C526 C524 1.384 . S
C526 C527 1.372 . S
C527 C526 1.372 . S
C527 C528 1.400 . S
C527 C532 1.490 . S
C528 H518 0.930 . S
C528 C527 1.400 . S
C528 C531 1.386 . S
H529 C545 0.930 . S
H530 C546 0.931 . S
C531 H519 0.929 . S
C531 C525 1.390 . S
C531 C528 1.386 . S
C532 C527 1.490 . S
C532 C534 1.395 . S
C532 C535 1.403 . S
H533 C539 0.930 . S
C534 H520 0.930 . S
C534 C532 1.395 . S
C534 C537 1.403 . S
C535 C532 1.403 . S
C535 C536 1.524 . S
C535 C539 1.400 . S
C536 H521 0.960 . S
C536 H522 0.960 . S
C536 H523 0.960 . S
C536 C535 1.524 . S
C537 C534 1.403 . S
C537 C538 1.392 . S
C537 C541 1.495 . S
C538 C537 1.392 . S
C538 C539 1.385 . S
C538 C540 1.478 . S
C539 H533 0.930 . S
C539 C535 1.400 . S
C539 C538 1.385 . S
C540 C538 1.478 . S
C540 C542 1.381 . S
C540 C546 1.383 . S
C541 C537 1.495 . S
C541 H547 0.959 . S
C541 H548 0.961 . S
C541 H549 0.960 . S
C542 C540 1.381 . S
C542 C543 1.394 . S
C542 H550 0.930 . S
C543 C542 1.394 . S
C543 C544 1.383 . S
C543 H551 0.929 . S
C544 C543 1.383 . S
C544 C545 1.377 . S
C545 H529 0.930 . S
C545 C544 1.377 . S
C545 C546 1.379 . S
C546 H530 0.931 . S
C546 C540 1.383 . S
C546 C545 1.379 . S
H547 C541 0.959 . S
H548 C541 0.961 . S
H549 C541 0.960 . S
H550 C542 0.930 . S
H551 C543 0.929 . S
H552 C560 0.929 . S
H553 C562 0.930 . S
H554 C564 0.930 . S
H555 C567 0.929 . S
H556 C570 0.930 . S
H557 C572 0.960 . S
H558 C572 0.960 . S
H559 C572 0.960 . S
C560 H552 0.929 . S
C560 C561 1.377 . S
C560 C562 1.384 . S
C561 C560 1.377 . S
C561 C567 1.390 . S
C562 H553 0.930 . S
C562 C560 1.384 . S
C562 C563 1.372 . S
C563 C562 1.372 . S
C563 C564 1.400 . S
C563 C568 1.490 . S
C564 H554 0.930 . S
C564 C563 1.400 . S
C564 C567 1.386 . S
H565 C581 0.930 . S
H566 C582 0.931 . S
C567 H555 0.929 . S
C567 C561 1.390 . S
C567 C564 1.386 . S
C568 C563 1.490 . S
C568 C570 1.395 . S
C568 C571 1.403 . S
H569 C575 0.930 . S
C570 H556 0.930 . S
C570 C568 1.395 . S
C570 C573 1.403 . S
C571 C568 1.403 . S
C571 C572 1.524 . S
C571 C575 1.400 . S
C572 H557 0.960 . S
C572 H558 0.960 . S
C572 H559 0.960 . S
C572 C571 1.524 . S
C573 C570 1.403 . S
C573 C574 1.392 . S
C573 C577 1.495 . S
C574 C573 1.392 . S
C574 C575 1.385 . S
C574 C576 1.478 . S
C575 H569 0.930 . S
C575 C571 1.400 . S
C575 C574 1.385 . S
C576 C574 1.478 . S
C576 C578 1.381 . S
C576 C582 1.383 . S
C577 C573 1.495 . S
C577 H583 0.959 . S
C577 H584 0.961 . S
C577 H585 0.960 . S
C578 C576 1.381 . S
C578 C579 1.394 . S
C578 H586 0.930 . S
C579 C578 1.394 . S
C579 C580 1.383 . S
C579 H587 0.929 . S
C580 C579 1.383 . S
C580 C581 1.377 . S
C581 H565 0.930 . S
C581 C580 1.377 . S
C581 C582 1.379 . S
C582 H566 0.931 . S
C582 C576 1.383 . S
C582 C581 1.379 . S
H583 C577 0.959 . S
H584 C577 0.961 . S
H585 C577 0.960 . S
H586 C578 0.930 . S
H587 C579 0.929 . S
H588 C596 0.929 . S
H589 C598 0.930 . S
H590 C600 0.930 . S
H591 C603 0.929 . S
H592 C606 0.930 . S
H593 C608 0.960 . S
H594 C608 0.960 . S
H595 C608 0.960 . S
C596 H588 0.929 . S
C596 C597 1.377 . S
C596 C598 1.384 . S
C597 C596 1.377 . S
C597 C603 1.390 . S
C598 H589 0.930 . S
C598 C596 1.384 . S
C598 C599 1.372 . S
C599 C598 1.372 . S
C599 C600 1.400 . S
C599 C604 1.490 . S
C600 H590 0.930 . S
C600 C599 1.400 . S
C600 C603 1.386 . S
H601 C617 0.930 . S
H602 C618 0.931 . S
C603 H591 0.929 . S
C603 C597 1.390 . S
C603 C600 1.386 . S
C604 C599 1.490 . S
C604 C606 1.395 . S
C604 C607 1.403 . S
H605 C611 0.930 . S
C606 H592 0.930 . S
C606 C604 1.395 . S
C606 C609 1.403 . S
C607 C604 1.403 . S
C607 C608 1.524 . S
C607 C611 1.400 . S
C608 H593 0.960 . S
C608 H594 0.960 . S
C608 H595 0.960 . S
C608 C607 1.524 . S
C609 C606 1.403 . S
C609 C610 1.392 . S
C609 C613 1.495 . S
C610 C609 1.392 . S
C610 C611 1.385 . S
C610 C612 1.478 . S
C611 H605 0.930 . S
C611 C607 1.400 . S
C611 C610 1.385 . S
C612 C610 1.478 . S
C612 C614 1.381 . S
C612 C618 1.383 . S
C613 C609 1.495 . S
C613 H619 0.959 . S
C613 H620 0.961 . S
C613 H621 0.960 . S
C614 C612 1.381 . S
C614 C615 1.394 . S
C614 H622 0.930 . S
C615 C614 1.394 . S
C615 C616 1.383 . S
C615 H623 0.929 . S
C616 C615 1.383 . S
C616 C617 1.377 . S
C617 H601 0.930 . S
C617 C616 1.377 . S
C617 C618 1.379 . S
C618 H602 0.931 . S
C618 C612 1.383 . S
C618 C617 1.379 . S
H619 C613 0.959 . S
H620 C613 0.961 . S
H621 C613 0.960 . S
H622 C614 0.930 . S
H623 C615 0.929 . S
H624 C632 0.929 . S
H625 C634 0.930 . S
H626 C636 0.930 . S
H627 C639 0.929 . S
H628 C642 0.930 . S
H629 C644 0.960 . S
H630 C644 0.960 . S
H631 C644 0.960 . S
C632 H624 0.929 . S
C632 C633 1.377 . S
C632 C634 1.384 . S
C633 C632 1.377 . S
C633 C639 1.390 . S
C634 H625 0.930 . S
C634 C632 1.384 . S
C634 C635 1.372 . S
C635 C634 1.372 . S
C635 C636 1.400 . S
C635 C640 1.490 . S
C636 H626 0.930 . S
C636 C635 1.400 . S
C636 C639 1.386 . S
H637 C653 0.930 . S
H638 C654 0.931 . S
C639 H627 0.929 . S
C639 C633 1.390 . S
C639 C636 1.386 . S
C640 C635 1.490 . S
C640 C642 1.395 . S
C640 C643 1.403 . S
H641 C647 0.930 . S
C642 H628 0.930 . S
C642 C640 1.395 . S
C642 C645 1.403 . S
C643 C640 1.403 . S
C643 C644 1.524 . S
C643 C647 1.400 . S
C644 H629 0.960 . S
C644 H630 0.960 . S
C644 H631 0.960 . S
C644 C643 1.524 . S
C645 C642 1.403 . S
C645 C646 1.392 . S
C645 C649 1.495 . S
C646 C645 1.392 . S
C646 C647 1.385 . S
C646 C648 1.478 . S
C647 H641 0.930 . S
C647 C643 1.400 . S
C647 C646 1.385 . S
C648 C646 1.478 . S
C648 C650 1.381 . S
C648 C654 1.383 . S
C649 C645 1.495 . S
C649 H655 0.959 . S
C649 H656 0.961 . S
C649 H657 0.960 . S
C650 C648 1.381 . S
C650 C651 1.394 . S
C650 H658 0.930 . S
C651 C650 1.394 . S
C651 C652 1.383 . S
C651 H659 0.929 . S
C652 C651 1.383 . S
C652 C653 1.377 . S
C653 H637 0.930 . S
C653 C652 1.377 . S
C653 C654 1.379 . S
C654 H638 0.931 . S
C654 C648 1.383 . S
C654 C653 1.379 . S
H655 C649 0.959 . S
H656 C649 0.961 . S
H657 C649 0.960 . S
H658 C650 0.930 . S
H659 C651 0.929 . S
H660 C668 0.929 . S
H661 C670 0.930 . S
H662 C672 0.930 . S
H663 C675 0.929 . S
H664 C678 0.930 . S
H665 C680 0.960 . S
H666 C680 0.960 . S
H667 C680 0.960 . S
C668 H660 0.929 . S
C668 C669 1.377 . S
C668 C670 1.384 . S
C669 C668 1.377 . S
C669 C675 1.390 . S
C670 H661 0.930 . S
C670 C668 1.384 . S
C670 C671 1.372 . S
C671 C670 1.372 . S
C671 C672 1.400 . S
C671 C676 1.490 . S
C672 H662 0.930 . S
C672 C671 1.400 . S
C672 C675 1.386 . S
H673 C689 0.930 . S
H674 C690 0.931 . S
C675 H663 0.929 . S
C675 C669 1.390 . S
C675 C672 1.386 . S
C676 C671 1.490 . S
C676 C678 1.395 . S
C676 C679 1.403 . S
H677 C683 0.930 . S
C678 H664 0.930 . S
C678 C676 1.395 . S
C678 C681 1.403 . S
C679 C676 1.403 . S
C679 C680 1.524 . S
C679 C683 1.400 . S
C680 H665 0.960 . S
C680 H666 0.960 . S
C680 H667 0.960 . S
C680 C679 1.524 . S
C681 C678 1.403 . S
C681 C682 1.392 . S
C681 C685 1.495 . S
C682 C681 1.392 . S
C682 C683 1.385 . S
C682 C684 1.478 . S
C683 H677 0.930 . S
C683 C679 1.400 . S
C683 C682 1.385 . S
C684 C682 1.478 . S
C684 C686 1.381 . S
C684 C690 1.383 . S
C685 C681 1.495 . S
C685 H691 0.959 . S
C685 H692 0.961 . S
C685 H693 0.960 . S
C686 C684 1.381 . S
C686 C687 1.394 . S
C686 H694 0.930 . S
C687 C686 1.394 . S
C687 C688 1.383 . S
C687 H695 0.929 . S
C688 C687 1.383 . S
C688 C689 1.377 . S
C689 H673 0.930 . S
C689 C688 1.377 . S
C689 C690 1.379 . S
C690 H674 0.931 . S
C690 C684 1.383 . S
C690 C689 1.379 . S
H691 C685 0.959 . S
H692 C685 0.961 . S
H693 C685 0.960 . S
H694 C686 0.930 . S
H695 C687 0.929 . S
H696 C704 0.929 . S
H697 C706 0.930 . S
H698 C708 0.930 . S
H699 C711 0.929 . S
H700 C714 0.930 . S
H701 C716 0.960 . S
H702 C716 0.960 . S
H703 C716 0.960 . S
C704 H696 0.929 . S
C704 C705 1.377 . S
C704 C706 1.384 . S
C705 C704 1.377 . S
C705 C711 1.390 . S
C706 H697 0.930 . S
C706 C704 1.384 . S
C706 C707 1.372 . S
C707 C706 1.372 . S
C707 C708 1.400 . S
C707 C712 1.490 . S
C708 H698 0.930 . S
C708 C707 1.400 . S
C708 C711 1.386 . S
H709 C725 0.930 . S
H710 C726 0.931 . S
C711 H699 0.929 . S
C711 C705 1.390 . S
C711 C708 1.386 . S
C712 C707 1.490 . S
C712 C714 1.395 . S
C712 C715 1.403 . S
H713 C719 0.930 . S
C714 H700 0.930 . S
C714 C712 1.395 . S
C714 C717 1.403 . S
C715 C712 1.403 . S
C715 C716 1.524 . S
C715 C719 1.400 . S
C716 H701 0.960 . S
C716 H702 0.960 . S
C716 H703 0.960 . S
C716 C715 1.524 . S
C717 C714 1.403 . S
C717 C718 1.392 . S
C717 C721 1.495 . S
C718 C717 1.392 . S
C718 C719 1.385 . S
C718 C720 1.478 . S
C719 H713 0.930 . S
C719 C715 1.400 . S
C719 C718 1.385 . S
C720 C718 1.478 . S
C720 C722 1.381 . S
C720 C726 1.383 . S
C721 C717 1.495 . S
C721 H727 0.959 . S
C721 H728 0.961 . S
C721 H729 0.960 . S
C722 C720 1.381 . S
C722 C723 1.394 . S
C722 H730 0.930 . S
C723 C722 1.394 . S
C723 C724 1.383 . S
C723 H731 0.929 . S
C724 C723 1.383 . S
C724 C725 1.377 . S
C725 H709 0.930 . S
C725 C724 1.377 . S
C725 C726 1.379 . S
C726 H710 0.931 . S
C726 C720 1.383 . S
C726 C725 1.379 . S
H727 C721 0.959 . S
H728 C721 0.961 . S
H729 C721 0.960 . S
H730 C722 0.930 . S
H731 C723 0.929 . S
H732 C740 0.929 . S
H733 C742 0.930 . S
H734 C744 0.930 . S
H735 C747 0.929 . S
H736 C750 0.930 . S
H737 C752 0.960 . S
H738 C752 0.960 . S
H739 C752 0.960 . S
C740 H732 0.929 . S
C740 C741 1.377 . S
C740 C742 1.384 . S
C741 C740 1.377 . S
C741 C747 1.390 . S
C742 H733 0.930 . S
C742 C740 1.384 . S
C742 C743 1.372 . S
C743 C742 1.372 . S
C743 C744 1.400 . S
C743 C748 1.490 . S
C744 H734 0.930 . S
C744 C743 1.400 . S
C744 C747 1.386 . S
H745 C761 0.930 . S
H746 C762 0.931 . S
C747 H735 0.929 . S
C747 C741 1.390 . S
C747 C744 1.386 . S
C748 C743 1.490 . S
C748 C750 1.395 . S
C748 C751 1.403 . S
H749 C755 0.930 . S
C750 H736 0.930 . S
C750 C748 1.395 . S
C750 C753 1.403 . S
C751 C748 1.403 . S
C751 C752 1.524 . S
C751 C755 1.400 . S
C752 H737 0.960 . S
C752 H738 0.960 . S
C752 H739 0.960 . S
C752 C751 1.524 . S
C753 C750 1.403 . S
C753 C754 1.392 . S
C753 C757 1.495 . S
C754 C753 1.392 . S
C754 C755 1.385 . S
C754 C756 1.478 . S
C755 H749 0.930 . S
C755 C751 1.400 . S
C755 C754 1.385 . S
C756 C754 1.478 . S
C756 C758 1.381 . S
C756 C762 1.383 . S
C757 C753 1.495 . S
C757 H763 0.959 . S
C757 H764 0.961 . S
C757 H765 0.960 . S
C758 C756 1.381 . S
C758 C759 1.394 . S
C758 H766 0.930 . S
C759 C758 1.394 . S
C759 C760 1.383 . S
C759 H767 0.929 . S
C760 C759 1.383 . S
C760 C761 1.377 . S
C761 H745 0.930 . S
C761 C760 1.377 . S
C761 C762 1.379 . S
C762 H746 0.931 . S
C762 C756 1.383 . S
C762 C761 1.379 . S
H763 C757 0.959 . S
H764 C757 0.961 . S
H765 C757 0.960 . S
H766 C758 0.930 . S
H767 C759 0.929 . S
H768 C776 0.929 . S
H769 C778 0.930 . S
H770 C780 0.930 . S
H771 C783 0.929 . S
H772 C786 0.930 . S
H773 C788 0.960 . S
H774 C788 0.960 . S
H775 C788 0.960 . S
C776 H768 0.929 . S
C776 C777 1.377 . S
C776 C778 1.384 . S
C777 C776 1.377 . S
C777 C783 1.390 . S
C778 H769 0.930 . S
C778 C776 1.384 . S
C778 C779 1.372 . S
C779 C778 1.372 . S
C779 C780 1.400 . S
C779 C784 1.490 . S
C780 H770 0.930 . S
C780 C779 1.400 . S
C780 C783 1.386 . S
H781 C797 0.930 . S
H782 C798 0.931 . S
C783 H771 0.929 . S
C783 C777 1.390 . S
C783 C780 1.386 . S
C784 C779 1.490 . S
C784 C786 1.395 . S
C784 C787 1.403 . S
H785 C791 0.930 . S
C786 H772 0.930 . S
C786 C784 1.395 . S
C786 C789 1.403 . S
C787 C784 1.403 . S
C787 C788 1.524 . S
C787 C791 1.400 . S
C788 H773 0.960 . S
C788 H774 0.960 . S
C788 H775 0.960 . S
C788 C787 1.524 . S
C789 C786 1.403 . S
C789 C790 1.392 . S
C789 C793 1.495 . S
C790 C789 1.392 . S
C790 C791 1.385 . S
C790 C792 1.478 . S
C791 H785 0.930 . S
C791 C787 1.400 . S
C791 C790 1.385 . S
C792 C790 1.478 . S
C792 C794 1.381 . S
C792 C798 1.383 . S
C793 C789 1.495 . S
C793 H799 0.959 . S
C793 H800 0.961 . S
C793 H801 0.960 . S
C794 C792 1.381 . S
C794 C795 1.394 . S
C794 H802 0.930 . S
C795 C794 1.394 . S
C795 C796 1.383 . S
C795 H803 0.929 . S
C796 C795 1.383 . S
C796 C797 1.377 . S
C797 H781 0.930 . S
C797 C796 1.377 . S
C797 C798 1.379 . S
C798 H782 0.931 . S
C798 C792 1.383 . S
C798 C797 1.379 . S
H799 C793 0.959 . S
H800 C793 0.961 . S
H801 C793 0.960 . S
H802 C794 0.930 . S
H803 C795 0.929 . S
H804 C812 0.929 . S
H805 C814 0.930 . S
H806 C816 0.930 . S
H807 C819 0.929 . S
H808 C822 0.930 . S
H809 C824 0.960 . S
H810 C824 0.960 . S
H811 C824 0.960 . S
C812 H804 0.929 . S
C812 C813 1.377 . S
C812 C814 1.384 . S
C813 C812 1.377 . S
C813 C819 1.390 . S
C814 H805 0.930 . S
C814 C812 1.384 . S
C814 C815 1.372 . S
C815 C814 1.372 . S
C815 C816 1.400 . S
C815 C820 1.490 . S
C816 H806 0.930 . S
C816 C815 1.400 . S
C816 C819 1.386 . S
H817 C833 0.930 . S
H818 C834 0.931 . S
C819 H807 0.929 . S
C819 C813 1.390 . S
C819 C816 1.386 . S
C820 C815 1.490 . S
C820 C822 1.395 . S
C820 C823 1.403 . S
H821 C827 0.930 . S
C822 H808 0.930 . S
C822 C820 1.395 . S
C822 C825 1.403 . S
C823 C820 1.403 . S
C823 C824 1.524 . S
C823 C827 1.400 . S
C824 H809 0.960 . S
C824 H810 0.960 . S
C824 H811 0.960 . S
C824 C823 1.524 . S
C825 C822 1.403 . S
C825 C826 1.392 . S
C825 C829 1.495 . S
C826 C825 1.392 . S
C826 C827 1.385 . S
C826 C828 1.478 . S
C827 H821 0.930 . S
C827 C823 1.400 . S
C827 C826 1.385 . S
C828 C826 1.478 . S
C828 C830 1.381 . S
C828 C834 1.383 . S
C829 C825 1.495 . S
C829 H835 0.959 . S
C829 H836 0.961 . S
C829 H837 0.960 . S
C830 C828 1.381 . S
C830 C831 1.394 . S
C830 H838 0.930 . S
C831 C830 1.394 . S
C831 C832 1.383 . S
C831 H839 0.929 . S
C832 C831 1.383 . S
C832 C833 1.377 . S
C833 H817 0.930 . S
C833 C832 1.377 . S
C833 C834 1.379 . S
C834 H818 0.931 . S
C834 C828 1.383 . S
C834 C833 1.379 . S
H835 C829 0.959 . S
H836 C829 0.961 . S
H837 C829 0.960 . S
H838 C830 0.930 . S
H839 C831 0.929 . S
H840 C848 0.929 . S
H841 C850 0.930 . S
H842 C852 0.930 . S
H843 C855 0.929 . S
H844 C858 0.930 . S
H845 C860 0.960 . S
H846 C860 0.960 . S
H847 C860 0.960 . S
C848 H840 0.929 . S
C848 C849 1.377 . S
C848 C850 1.384 . S
C849 C848 1.377 . S
C849 C855 1.390 . S
C850 H841 0.930 . S
C850 C848 1.384 . S
C850 C851 1.372 . S
C851 C850 1.372 . S
C851 C852 1.400 . S
C851 C856 1.490 . S
C852 H842 0.930 . S
C852 C851 1.400 . S
C852 C855 1.386 . S
H853 C869 0.930 . S
H854 C870 0.931 . S
C855 H843 0.929 . S
C855 C849 1.390 . S
C855 C852 1.386 . S
C856 C851 1.490 . S
C856 C858 1.395 . S
C856 C859 1.403 . S
H857 C863 0.930 . S
C858 H844 0.930 . S
C858 C856 1.395 . S
C858 C861 1.403 . S
C859 C856 1.403 . S
C859 C860 1.524 . S
C859 C863 1.400 . S
C860 H845 0.960 . S
C860 H846 0.960 . S
C860 H847 0.960 . S
C860 C859 1.524 . S
C861 C858 1.403 . S
C861 C862 1.392 . S
C861 C865 1.495 . S
C862 C861 1.392 . S
C862 C863 1.385 . S
C862 C864 1.478 . S
C863 H857 0.930 . S
C863 C859 1.400 . S
C863 C862 1.385 . S
C864 C862 1.478 . S
C864 C866 1.381 . S
C864 C870 1.383 . S
C865 C861 1.495 . S
C865 H871 0.959 . S
C865 H872 0.961 . S
C865 H873 0.960 . S
C866 C864 1.381 . S
C866 C867 1.394 . S
C866 H874 0.930 . S
C867 C866 1.394 . S
C867 C868 1.383 . S
C867 H875 0.929 . S
C868 C867 1.383 . S
C868 C869 1.377 . S
C869 H853 0.930 . S
C869 C868 1.377 . S
C869 C870 1.379 . S
C870 H854 0.931 . S
C870 C864 1.383 . S
C870 C869 1.379 . S
H871 C865 0.959 . S
H872 C865 0.961 . S
H873 C865 0.960 . S
H874 C866 0.930 . S
H875 C867 0.929 . S
H876 C884 0.929 . S
H877 C886 0.930 . S
H878 C888 0.930 . S
H879 C891 0.929 . S
H880 C894 0.930 . S
H881 C896 0.960 . S
H882 C896 0.960 . S
H883 C896 0.960 . S
C884 H876 0.929 . S
C884 C885 1.377 . S
C884 C886 1.384 . S
C885 C884 1.377 . S
C885 C891 1.390 . S
C886 H877 0.930 . S
C886 C884 1.384 . S
C886 C887 1.372 . S
C887 C886 1.372 . S
C887 C888 1.400 . S
C887 C892 1.490 . S
C888 H878 0.930 . S
C888 C887 1.400 . S
C888 C891 1.386 . S
H889 C905 0.930 . S
H890 C906 0.931 . S
C891 H879 0.929 . S
C891 C885 1.390 . S
C891 C888 1.386 . S
C892 C887 1.490 . S
C892 C894 1.395 . S
C892 C895 1.403 . S
H893 C899 0.930 . S
C894 H880 0.930 . S
C894 C892 1.395 . S
C894 C897 1.403 . S
C895 C892 1.403 . S
C895 C896 1.524 . S
C895 C899 1.400 . S
C896 H881 0.960 . S
C896 H882 0.960 . S
C896 H883 0.960 . S
C896 C895 1.524 . S
C897 C894 1.403 . S
C897 C898 1.392 . S
C897 C901 1.495 . S
C898 C897 1.392 . S
C898 C899 1.385 . S
C898 C900 1.478 . S
C899 H893 0.930 . S
C899 C895 1.400 . S
C899 C898 1.385 . S
C900 C898 1.478 . S
C900 C902 1.381 . S
C900 C906 1.383 . S
C901 C897 1.495 . S
C901 H907 0.959 . S
C901 H908 0.961 . S
C901 H909 0.960 . S
C902 C900 1.381 . S
C902 C903 1.394 . S
C902 H910 0.930 . S
C903 C902 1.394 . S
C903 C904 1.383 . S
C903 H911 0.929 . S
C904 C903 1.383 . S
C904 C905 1.377 . S
C905 H889 0.930 . S
C905 C904 1.377 . S
C905 C906 1.379 . S
C906 H890 0.931 . S
C906 C900 1.383 . S
C906 C905 1.379 . S
H907 C901 0.959 . S
H908 C901 0.961 . S
H909 C901 0.960 . S
H910 C902 0.930 . S
H911 C903 0.929 . S
H912 C920 0.929 . S
H913 C922 0.930 . S
H914 C924 0.930 . S
H915 C927 0.929 . S
H916 C930 0.930 . S
H917 C932 0.960 . S
H918 C932 0.960 . S
H919 C932 0.960 . S
C920 H912 0.929 . S
C920 C921 1.377 . S
C920 C922 1.384 . S
C921 C920 1.377 . S
C921 C927 1.390 . S
C922 H913 0.930 . S
C922 C920 1.384 . S
C922 C923 1.372 . S
C923 C922 1.372 . S
C923 C924 1.400 . S
C923 C928 1.490 . S
C924 H914 0.930 . S
C924 C923 1.400 . S
C924 C927 1.386 . S
H925 C941 0.930 . S
H926 C942 0.931 . S
C927 H915 0.929 . S
C927 C921 1.390 . S
C927 C924 1.386 . S
C928 C923 1.490 . S
C928 C930 1.395 . S
C928 C931 1.403 . S
H929 C935 0.930 . S
C930 H916 0.930 . S
C930 C928 1.395 . S
C930 C933 1.403 . S
C931 C928 1.403 . S
C931 C932 1.524 . S
C931 C935 1.400 . S
C932 H917 0.960 . S
C932 H918 0.960 . S
C932 H919 0.960 . S
C932 C931 1.524 . S
C933 C930 1.403 . S
C933 C934 1.392 . S
C933 C937 1.495 . S
C934 C933 1.392 . S
C934 C935 1.385 . S
C934 C936 1.478 . S
C935 H929 0.930 . S
C935 C931 1.400 . S
C935 C934 1.385 . S
C936 C934 1.478 . S
C936 C938 1.381 . S
C936 C942 1.383 . S
C937 C933 1.495 . S
C937 H943 0.959 . S
C937 H944 0.961 . S
C937 H945 0.960 . S
C938 C936 1.381 . S
C938 C939 1.394 . S
C938 H946 0.930 . S
C939 C938 1.394 . S
C939 C940 1.383 . S
C939 H947 0.929 . S
C940 C939 1.383 . S
C940 C941 1.377 . S
C941 H925 0.930 . S
C941 C940 1.377 . S
C941 C942 1.379 . S
C942 H926 0.931 . S
C942 C936 1.383 . S
C942 C941 1.379 . S
H943 C937 0.959 . S
H944 C937 0.961 . S
H945 C937 0.960 . S
H946 C938 0.930 . S
H947 C939 0.929 . S
H948 C956 0.929 . S
H949 C958 0.930 . S
H950 C960 0.930 . S
H951 C963 0.929 . S
H952 C966 0.930 . S
H953 C968 0.960 . S
H954 C968 0.960 . S
H955 C968 0.960 . S
C956 H948 0.929 . S
C956 C957 1.377 . S
C956 C958 1.384 . S
C957 C956 1.377 . S
C957 C963 1.390 . S
C958 H949 0.930 . S
C958 C956 1.384 . S
C958 C959 1.372 . S
C959 C958 1.372 . S
C959 C960 1.400 . S
C959 C964 1.490 . S
C960 H950 0.930 . S
C960 C959 1.400 . S
C960 C963 1.386 . S
H961 C977 0.930 . S
H962 C978 0.931 . S
C963 H951 0.929 . S
C963 C957 1.390 . S
C963 C960 1.386 . S
C964 C959 1.490 . S
C964 C966 1.395 . S
C964 C967 1.403 . S
H965 C971 0.930 . S
C966 H952 0.930 . S
C966 C964 1.395 . S
C966 C969 1.403 . S
C967 C964 1.403 . S
C967 C968 1.524 . S
C967 C971 1.400 . S
C968 H953 0.960 . S
C968 H954 0.960 . S
C968 H955 0.960 . S
C968 C967 1.524 . S
C969 C966 1.403 . S
C969 C970 1.392 . S
C969 C973 1.495 . S
C970 C969 1.392 . S
C970 C971 1.385 . S
C970 C972 1.478 . S
C971 H965 0.930 . S
C971 C967 1.400 . S
C971 C970 1.385 . S
C972 C970 1.478 . S
C972 C974 1.381 . S
C972 C978 1.383 . S
C973 C969 1.495 . S
C973 H979 0.959 . S
C973 H980 0.961 . S
C973 H981 0.960 . S
C974 C972 1.381 . S
C974 C975 1.394 . S
C974 H982 0.930 . S
C975 C974 1.394 . S
C975 C976 1.383 . S
C975 H983 0.929 . S
C976 C975 1.383 . S
C976 C977 1.377 . S
C977 H961 0.930 . S
C977 C976 1.377 . S
C977 C978 1.379 . S
C978 H962 0.931 . S
C978 C972 1.383 . S
C978 C977 1.379 . S
H979 C973 0.959 . S
H980 C973 0.961 . S
H981 C973 0.960 . S
H982 C974 0.930 . S
H983 C975 0.929 . S
H984 C992 0.929 . S
H985 C994 0.930 . S
H986 C996 0.930 . S
H987 C999 0.929 . S
H988 C1002 0.930 . S
H989 C1004 0.960 . S
H990 C1004 0.960 . S
H991 C1004 0.960 . S
C992 H984 0.929 . S
C992 C993 1.377 . S
C992 C994 1.384 . S
C993 C992 1.377 . S
C993 C999 1.390 . S
C994 H985 0.930 . S
C994 C992 1.384 . S
C994 C995 1.372 . S
C995 C994 1.372 . S
C995 C996 1.400 . S
C995 C1000 1.490 . S
C996 H986 0.930 . S
C996 C995 1.400 . S
C996 C999 1.386 . S
H997 C1013 0.930 . S
H998 C1014 0.931 . S
C999 H987 0.929 . S
C999 C993 1.390 . S
C999 C996 1.386 . S
C1000 C995 1.490 . S
C1000 C1002 1.395 . S
C1000 C1003 1.403 . S
H1001 C1007 0.930 . S
C1002 H988 0.930 . S
C1002 C1000 1.395 . S
C1002 C1005 1.403 . S
C1003 C1000 1.403 . S
C1003 C1004 1.524 . S
C1003 C1007 1.400 . S
C1004 H989 0.960 . S
C1004 H990 0.960 . S
C1004 H991 0.960 . S
C1004 C1003 1.524 . S
C1005 C1002 1.403 . S
C1005 C1006 1.392 . S
C1005 C1009 1.495 . S
C1006 C1005 1.392 . S
C1006 C1007 1.385 . S
C1006 C1008 1.478 . S
C1007 H1001 0.930 . S
C1007 C1003 1.400 . S
C1007 C1006 1.385 . S
C1008 C1006 1.478 . S
C1008 C1010 1.381 . S
C1008 C1014 1.383 . S
C1009 C1005 1.495 . S
C1009 H1015 0.959 . S
C1009 H1016 0.961 . S
C1009 H1017 0.960 . S
C1010 C1008 1.381 . S
C1010 C1011 1.394 . S
C1010 H1018 0.930 . S
C1011 C1010 1.394 . S
C1011 C1012 1.383 . S
C1011 H1019 0.929 . S
C1012 C1011 1.383 . S
C1012 C1013 1.377 . S
C1013 H997 0.930 . S
C1013 C1012 1.377 . S
C1013 C1014 1.379 . S
C1014 H998 0.931 . S
C1014 C1008 1.383 . S
C1014 C1013 1.379 . S
H1015 C1009 0.959 . S
H1016 C1009 0.961 . S
H1017 C1009 0.960 . S
H1018 C1010 0.930 . S
H1019 C1011 0.929 . S
H1020 C1028 0.929 . S
H1021 C1030 0.930 . S
H1022 C1032 0.930 . S
H1023 C1035 0.929 . S
H1024 C1038 0.930 . S
H1025 C1040 0.960 . S
H1026 C1040 0.960 . S
H1027 C1040 0.960 . S
C1028 H1020 0.929 . S
C1028 C1029 1.377 . S
C1028 C1030 1.384 . S
C1029 C1028 1.377 . S
C1029 C1035 1.390 . S
C1030 H1021 0.930 . S
C1030 C1028 1.384 . S
C1030 C1031 1.372 . S
C1031 C1030 1.372 . S
C1031 C1032 1.400 . S
C1031 C1036 1.490 . S
C1032 H1022 0.930 . S
C1032 C1031 1.400 . S
C1032 C1035 1.386 . S
H1033 C1049 0.930 . S
H1034 C1050 0.931 . S
C1035 H1023 0.929 . S
C1035 C1029 1.390 . S
C1035 C1032 1.386 . S
C1036 C1031 1.490 . S
C1036 C1038 1.395 . S
C1036 C1039 1.403 . S
H1037 C1043 0.930 . S
C1038 H1024 0.930 . S
C1038 C1036 1.395 . S
C1038 C1041 1.403 . S
C1039 C1036 1.403 . S
C1039 C1040 1.524 . S
C1039 C1043 1.400 . S
C1040 H1025 0.960 . S
C1040 H1026 0.960 . S
C1040 H1027 0.960 . S
C1040 C1039 1.524 . S
C1041 C1038 1.403 . S
C1041 C1042 1.392 . S
C1041 C1045 1.495 . S
C1042 C1041 1.392 . S
C1042 C1043 1.385 . S
C1042 C1044 1.478 . S
C1043 H1037 0.930 . S
C1043 C1039 1.400 . S
C1043 C1042 1.385 . S
C1044 C1042 1.478 . S
C1044 C1046 1.381 . S
C1044 C1050 1.383 . S
C1045 C1041 1.495 . S
C1045 H1051 0.959 . S
C1045 H1052 0.961 . S
C1045 H1053 0.960 . S
C1046 C1044 1.381 . S
C1046 C1047 1.394 . S
C1046 H1054 0.930 . S
C1047 C1046 1.394 . S
C1047 C1048 1.383 . S
C1047 H1055 0.929 . S
C1048 C1047 1.383 . S
C1048 C1049 1.377 . S
C1049 H1033 0.930 . S
C1049 C1048 1.377 . S
C1049 C1050 1.379 . S
C1050 H1034 0.931 . S
C1050 C1044 1.383 . S
C1050 C1049 1.379 . S
H1051 C1045 0.959 . S
H1052 C1045 0.961 . S
H1053 C1045 0.960 . S
H1054 C1046 0.930 . S
H1055 C1047 0.929 . S
H1056 C1064 0.929 . S
H1057 C1066 0.930 . S
H1058 C1068 0.930 . S
H1059 C1071 0.929 . S
H1060 C1074 0.930 . S
H1061 C1076 0.960 . S
H1062 C1076 0.960 . S
H1063 C1076 0.960 . S
C1064 H1056 0.929 . S
C1064 C1065 1.377 . S
C1064 C1066 1.384 . S
C1065 C1064 1.377 . S
C1065 C1071 1.390 . S
C1066 H1057 0.930 . S
C1066 C1064 1.384 . S
C1066 C1067 1.372 . S
C1067 C1066 1.372 . S
C1067 C1068 1.400 . S
C1067 C1072 1.490 . S
C1068 H1058 0.930 . S
C1068 C1067 1.400 . S
C1068 C1071 1.386 . S
H1069 C1085 0.930 . S
H1070 C1086 0.931 . S
C1071 H1059 0.929 . S
C1071 C1065 1.390 . S
C1071 C1068 1.386 . S
C1072 C1067 1.490 . S
C1072 C1074 1.395 . S
C1072 C1075 1.403 . S
H1073 C1079 0.930 . S
C1074 H1060 0.930 . S
C1074 C1072 1.395 . S
C1074 C1077 1.403 . S
C1075 C1072 1.403 . S
C1075 C1076 1.524 . S
C1075 C1079 1.400 . S
C1076 H1061 0.960 . S
C1076 H1062 0.960 . S
C1076 H1063 0.960 . S
C1076 C1075 1.524 . S
C1077 C1074 1.403 . S
C1077 C1078 1.392 . S
C1077 C1081 1.495 . S
C1078 C1077 1.392 . S
C1078 C1079 1.385 . S
C1078 C1080 1.478 . S
C1079 H1073 0.930 . S
C1079 C1075 1.400 . S
C1079 C1078 1.385 . S
C1080 C1078 1.478 . S
C1080 C1082 1.381 . S
C1080 C1086 1.383 . S
C1081 C1077 1.495 . S
C1081 H1087 0.959 . S
C1081 H1088 0.961 . S
C1081 H1089 0.960 . S
C1082 C1080 1.381 . S
C1082 C1083 1.394 . S
C1082 H1090 0.930 . S
C1083 C1082 1.394 . S
C1083 C1084 1.383 . S
C1083 H1091 0.929 . S
C1084 C1083 1.383 . S
C1084 C1085 1.377 . S
C1085 H1069 0.930 . S
C1085 C1084 1.377 . S
C1085 C1086 1.379 . S
C1086 H1070 0.931 . S
C1086 C1080 1.383 . S
C1086 C1085 1.379 . S
H1087 C1081 0.959 . S
H1088 C1081 0.961 . S
H1089 C1081 0.960 . S
H1090 C1082 0.930 . S
H1091 C1083 0.929 . S
H1092 C1100 0.929 . S
H1093 C1102 0.930 . S
H1094 C1104 0.930 . S
H1095 C1107 0.929 . S
H1096 C1110 0.930 . S
H1097 C1112 0.960 . S
H1098 C1112 0.960 . S
H1099 C1112 0.960 . S
C1100 H1092 0.929 . S
C1100 C1101 1.377 . S
C1100 C1102 1.384 . S
C1101 C1100 1.377 . S
C1101 C1107 1.390 . S
C1102 H1093 0.930 . S
C1102 C1100 1.384 . S
C1102 C1103 1.372 . S
C1103 C1102 1.372 . S
C1103 C1104 1.400 . S
C1103 C1108 1.490 . S
C1104 H1094 0.930 . S
C1104 C1103 1.400 . S
C1104 C1107 1.386 . S
H1105 C1121 0.930 . S
H1106 C1122 0.931 . S
C1107 H1095 0.929 . S
C1107 C1101 1.390 . S
C1107 C1104 1.386 . S
C1108 C1103 1.490 . S
C1108 C1110 1.395 . S
C1108 C1111 1.403 . S
H1109 C1115 0.930 . S
C1110 H1096 0.930 . S
C1110 C1108 1.395 . S
C1110 C1113 1.403 . S
C1111 C1108 1.403 . S
C1111 C1112 1.524 . S
C1111 C1115 1.400 . S
C1112 H1097 0.960 . S
C1112 H1098 0.960 . S
C1112 H1099 0.960 . S
C1112 C1111 1.524 . S
C1113 C1110 1.403 . S
C1113 C1114 1.392 . S
C1113 C1117 1.495 . S
C1114 C1113 1.392 . S
C1114 C1115 1.385 . S
C1114 C1116 1.478 . S
C1115 H1109 0.930 . S
C1115 C1111 1.400 . S
C1115 C1114 1.385 . S
C1116 C1114 1.478 . S
C1116 C1118 1.381 . S
C1116 C1122 1.383 . S
C1117 C1113 1.495 . S
C1117 H1123 0.959 . S
C1117 H1124 0.961 . S
C1117 H1125 0.960 . S
C1118 C1116 1.381 . S
C1118 C1119 1.394 . S
C1118 H1126 0.930 . S
C1119 C1118 1.394 . S
C1119 C1120 1.383 . S
C1119 H1127 0.929 . S
C1120 C1119 1.383 . S
C1120 C1121 1.377 . S
C1121 H1105 0.930 . S
C1121 C1120 1.377 . S
C1121 C1122 1.379 . S
C1122 H1106 0.931 . S
C1122 C1116 1.383 . S
C1122 C1121 1.379 . S
H1123 C1117 0.959 . S
H1124 C1117 0.961 . S
H1125 C1117 0.960 . S
H1126 C1118 0.930 . S
H1127 C1119 0.929 . S
H1128 C1136 0.929 . S
H1129 C1138 0.930 . S
H1130 C1140 0.930 . S
H1131 C1143 0.929 . S
H1132 C1146 0.930 . S
H1133 C1148 0.960 . S
H1134 C1148 0.960 . S
H1135 C1148 0.960 . S
C1136 H1128 0.929 . S
C1136 C1137 1.377 . S
C1136 C1138 1.384 . S
C1137 C1136 1.377 . S
C1137 C1143 1.390 . S
C1138 H1129 0.930 . S
C1138 C1136 1.384 . S
C1138 C1139 1.372 . S
C1139 C1138 1.372 . S
C1139 C1140 1.400 . S
C1139 C1144 1.490 . S
C1140 H1130 0.930 . S
C1140 C1139 1.400 . S
C1140 C1143 1.386 . S
H1141 C1157 0.930 . S
H1142 C1158 0.931 . S
C1143 H1131 0.929 . S
C1143 C1137 1.390 . S
C1143 C1140 1.386 . S
C1144 C1139 1.490 . S
C1144 C1146 1.395 . S
C1144 C1147 1.403 . S
H1145 C1151 0.930 . S
C1146 H1132 0.930 . S
C1146 C1144 1.395 . S
C1146 C1149 1.403 . S
C1147 C1144 1.403 . S
C1147 C1148 1.524 . S
C1147 C1151 1.400 . S
C1148 H1133 0.960 . S
C1148 H1134 0.960 . S
C1148 H1135 0.960 . S
C1148 C1147 1.524 . S
C1149 C1146 1.403 . S
C1149 C1150 1.392 . S
C1149 C1153 1.495 . S
C1150 C1149 1.392 . S
C1150 C1151 1.385 . S
C1150 C1152 1.478 . S
C1151 H1145 0.930 . S
C1151 C1147 1.400 . S
C1151 C1150 1.385 . S
C1152 C1150 1.478 . S
C1152 C1154 1.381 . S
C1152 C1158 1.383 . S
C1153 C1149 1.495 . S
C1153 H1159 0.959 . S
C1153 H1160 0.961 . S
C1153 H1161 0.960 . S
C1154 C1152 1.381 . S
C1154 C1155 1.394 . S
C1154 H1162 0.930 . S
C1155 C1154 1.394 . S
C1155 C1156 1.383 . S
C1155 H1163 0.929 . S
C1156 C1155 1.383 . S
C1156 C1157 1.377 . S
C1157 H1141 0.930 . S
C1157 C1156 1.377 . S
C1157 C1158 1.379 . S
C1158 H1142 0.931 . S
C1158 C1152 1.383 . S
C1158 C1157 1.379 . S
H1159 C1153 0.959 . S
H1160 C1153 0.961 . S
H1161 C1153 0.960 . S
H1162 C1154 0.930 . S
H1163 C1155 0.929 . S
H1164 C1172 0.929 . S
H1165 C1174 0.930 . S
H1166 C1176 0.930 . S
H1167 C1179 0.929 . S
H1168 C1182 0.930 . S
H1169 C1184 0.960 . S
H1170 C1184 0.960 . S
H1171 C1184 0.960 . S
C1172 H1164 0.929 . S
C1172 C1173 1.377 . S
C1172 C1174 1.384 . S
C1173 C1172 1.377 . S
C1173 C1179 1.390 . S
C1174 H1165 0.930 . S
C1174 C1172 1.384 . S
C1174 C1175 1.372 . S
C1175 C1174 1.372 . S
C1175 C1176 1.400 . S
C1175 C1180 1.490 . S
C1176 H1166 0.930 . S
C1176 C1175 1.400 . S
C1176 C1179 1.386 . S
H1177 C1193 0.930 . S
H1178 C1194 0.931 . S
C1179 H1167 0.929 . S
C1179 C1173 1.390 . S
C1179 C1176 1.386 . S
C1180 C1175 1.490 . S
C1180 C1182 1.395 . S
C1180 C1183 1.403 . S
H1181 C1187 0.930 . S
C1182 H1168 0.930 . S
C1182 C1180 1.395 . S
C1182 C1185 1.403 . S
C1183 C1180 1.403 . S
C1183 C1184 1.524 . S
C1183 C1187 1.400 . S
C1184 H1169 0.960 . S
C1184 H1170 0.960 . S
C1184 H1171 0.960 . S
C1184 C1183 1.524 . S
C1185 C1182 1.403 . S
C1185 C1186 1.392 . S
C1185 C1189 1.495 . S
C1186 C1185 1.392 . S
C1186 C1187 1.385 . S
C1186 C1188 1.478 . S
C1187 H1181 0.930 . S
C1187 C1183 1.400 . S
C1187 C1186 1.385 . S
C1188 C1186 1.478 . S
C1188 C1190 1.381 . S
C1188 C1194 1.383 . S
C1189 C1185 1.495 . S
C1189 H1195 0.959 . S
C1189 H1196 0.961 . S
C1189 H1197 0.960 . S
C1190 C1188 1.381 . S
C1190 C1191 1.394 . S
C1190 H1198 0.930 . S
C1191 C1190 1.394 . S
C1191 C1192 1.383 . S
C1191 H1199 0.929 . S
C1192 C1191 1.383 . S
C1192 C1193 1.377 . S
C1193 H1177 0.930 . S
C1193 C1192 1.377 . S
C1193 C1194 1.379 . S
C1194 H1178 0.931 . S
C1194 C1188 1.383 . S
C1194 C1193 1.379 . S
H1195 C1189 0.959 . S
H1196 C1189 0.961 . S
H1197 C1189 0.960 . S
H1198 C1190 0.930 . S
H1199 C1191 0.929 . S
H1200 C1208 0.929 . S
H1201 C1210 0.930 . S
H1202 C1212 0.930 . S
H1203 C1215 0.929 . S
H1204 C1218 0.930 . S
H1205 C1220 0.960 . S
H1206 C1220 0.960 . S
H1207 C1220 0.960 . S
C1208 H1200 0.929 . S
C1208 C1209 1.377 . S
C1208 C1210 1.384 . S
C1209 C1208 1.377 . S
C1209 C1215 1.390 . S
C1210 H1201 0.930 . S
C1210 C1208 1.384 . S
C1210 C1211 1.372 . S
C1211 C1210 1.372 . S
C1211 C1212 1.400 . S
C1211 C1216 1.490 . S
C1212 H1202 0.930 . S
C1212 C1211 1.400 . S
C1212 C1215 1.386 . S
H1213 C1229 0.930 . S
H1214 C1230 0.931 . S
C1215 H1203 0.929 . S
C1215 C1209 1.390 . S
C1215 C1212 1.386 . S
C1216 C1211 1.490 . S
C1216 C1218 1.395 . S
C1216 C1219 1.403 . S
H1217 C1223 0.930 . S
C1218 H1204 0.930 . S
C1218 C1216 1.395 . S
C1218 C1221 1.403 . S
C1219 C1216 1.403 . S
C1219 C1220 1.524 . S
C1219 C1223 1.400 . S
C1220 H1205 0.960 . S
C1220 H1206 0.960 . S
C1220 H1207 0.960 . S
C1220 C1219 1.524 . S
C1221 C1218 1.403 . S
C1221 C1222 1.392 . S
C1221 C1225 1.495 . S
C1222 C1221 1.392 . S
C1222 C1223 1.385 . S
C1222 C1224 1.478 . S
C1223 H1217 0.930 . S
C1223 C1219 1.400 . S
C1223 C1222 1.385 . S
C1224 C1222 1.478 . S
C1224 C1226 1.381 . S
C1224 C1230 1.383 . S
C1225 C1221 1.495 . S
C1225 H1231 0.959 . S
C1225 H1232 0.961 . S
C1225 H1233 0.960 . S
C1226 C1224 1.381 . S
C1226 C1227 1.394 . S
C1226 H1234 0.930 . S
C1227 C1226 1.394 . S
C1227 C1228 1.383 . S
C1227 H1235 0.929 . S
C1228 C1227 1.383 . S
C1228 C1229 1.377 . S
C1229 H1213 0.930 . S
C1229 C1228 1.377 . S
C1229 C1230 1.379 . S
C1230 H1214 0.931 . S
C1230 C1224 1.383 . S
C1230 C1229 1.379 . S
H1231 C1225 0.959 . S
H1232 C1225 0.961 . S
H1233 C1225 0.960 . S
H1234 C1226 0.930 . S
H1235 C1227 0.929 . S
H1236 C1244 0.929 . S
H1237 C1246 0.930 . S
H1238 C1248 0.930 . S
H1239 C1251 0.929 . S
H1240 C1254 0.930 . S
H1241 C1256 0.960 . S
H1242 C1256 0.960 . S
H1243 C1256 0.960 . S
C1244 H1236 0.929 . S
C1244 C1245 1.377 . S
C1244 C1246 1.384 . S
C1245 C1244 1.377 . S
C1245 C1251 1.390 . S
C1246 H1237 0.930 . S
C1246 C1244 1.384 . S
C1246 C1247 1.372 . S
C1247 C1246 1.372 . S
C1247 C1248 1.400 . S
C1247 C1252 1.490 . S
C1248 H1238 0.930 . S
C1248 C1247 1.400 . S
C1248 C1251 1.386 . S
H1249 C1265 0.930 . S
H1250 C1266 0.931 . S
C1251 H1239 0.929 . S
C1251 C1245 1.390 . S
C1251 C1248 1.386 . S
C1252 C1247 1.490 . S
C1252 C1254 1.395 . S
C1252 C1255 1.403 . S
H1253 C1259 0.930 . S
C1254 H1240 0.930 . S
C1254 C1252 1.395 . S
C1254 C1257 1.403 . S
C1255 C1252 1.403 . S
C1255 C1256 1.524 . S
C1255 C1259 1.400 . S
C1256 H1241 0.960 . S
C1256 H1242 0.960 . S
C1256 H1243 0.960 . S
C1256 C1255 1.524 . S
C1257 C1254 1.403 . S
C1257 C1258 1.392 . S
C1257 C1261 1.495 . S
C1258 C1257 1.392 . S
C1258 C1259 1.385 . S
C1258 C1260 1.478 . S
C1259 H1253 0.930 . S
C1259 C1255 1.400 . S
C1259 C1258 1.385 . S
C1260 C1258 1.478 . S
C1260 C1262 1.381 . S
C1260 C1266 1.383 . S
C1261 C1257 1.495 . S
C1261 H1267 0.959 . S
C1261 H1268 0.961 . S
C1261 H1269 0.960 . S
C1262 C1260 1.381 . S
C1262 C1263 1.394 . S
C1262 H1270 0.930 . S
C1263 C1262 1.394 . S
C1263 C1264 1.383 . S
C1263 H1271 0.929 . S
C1264 C1263 1.383 . S
C1264 C1265 1.377 . S
C1265 H1249 0.930 . S
C1265 C1264 1.377 . S
C1265 C1266 1.379 . S
C1266 H1250 0.931 . S
C1266 C1260 1.383 . S
C1266 C1265 1.379 . S
H1267 C1261 0.959 . S
H1268 C1261 0.961 . S
H1269 C1261 0.960 . S
H1270 C1262 0.930 . S
H1271 C1263 0.929 . S
H1272 C1280 0.929 . S
H1273 C1282 0.930 . S
H1274 C1284 0.930 . S
H1275 C1287 0.929 . S
H1276 C1290 0.930 . S
H1277 C1292 0.960 . S
H1278 C1292 0.960 . S
H1279 C1292 0.960 . S
C1280 H1272 0.929 . S
C1280 C1281 1.377 . S
C1280 C1282 1.384 . S
C1281 C1280 1.377 . S
C1281 C1287 1.390 . S
C1282 H1273 0.930 . S
C1282 C1280 1.384 . S
C1282 C1283 1.372 . S
C1283 C1282 1.372 . S
C1283 C1284 1.400 . S
C1283 C1288 1.490 . S
C1284 H1274 0.930 . S
C1284 C1283 1.400 . S
C1284 C1287 1.386 . S
H1285 C1301 0.930 . S
H1286 C1302 0.931 . S
C1287 H1275 0.929 . S
C1287 C1281 1.390 . S
C1287 C1284 1.386 . S
C1288 C1283 1.490 . S
C1288 C1290 1.395 . S
C1288 C1291 1.403 . S
H1289 C1295 0.930 . S
C1290 H1276 0.930 . S
C1290 C1288 1.395 . S
C1290 C1293 1.403 . S
C1291 C1288 1.403 . S
C1291 C1292 1.524 . S
C1291 C1295 1.400 . S
C1292 H1277 0.960 . S
C1292 H1278 0.960 . S
C1292 H1279 0.960 . S
C1292 C1291 1.524 . S
C1293 C1290 1.403 . S
C1293 C1294 1.392 . S
C1293 C1297 1.495 . S
C1294 C1293 1.392 . S
C1294 C1295 1.385 . S
C1294 C1296 1.478 . S
C1295 H1289 0.930 . S
C1295 C1291 1.400 . S
C1295 C1294 1.385 . S
C1296 C1294 1.478 . S
C1296 C1298 1.381 . S
C1296 C1302 1.383 . S
C1297 C1293 1.495 . S
C1297 H1303 0.959 . S
C1297 H1304 0.961 . S
C1297 H1305 0.960 . S
C1298 C1296 1.381 . S
C1298 C1299 1.394 . S
C1298 H1306 0.930 . S
C1299 C1298 1.394 . S
C1299 C1300 1.383 . S
C1299 H1307 0.929 . S
C1300 C1299 1.383 . S
C1300 C1301 1.377 . S
C1301 H1285 0.930 . S
C1301 C1300 1.377 . S
C1301 C1302 1.379 . S
C1302 H1286 0.931 . S
C1302 C1296 1.383 . S
C1302 C1301 1.379 . S
H1303 C1297 0.959 . S
H1304 C1297 0.961 . S
H1305 C1297 0.960 . S
H1306 C1298 0.930 . S
H1307 C1299 0.929 . S
H1308 C1316 0.929 . S
H1309 C1318 0.930 . S
H1310 C1320 0.930 . S
H1311 C1323 0.929 . S
H1312 C1326 0.930 . S
H1313 C1328 0.960 . S
H1314 C1328 0.960 . S
H1315 C1328 0.960 . S
C1316 H1308 0.929 . S
C1316 C1317 1.377 . S
C1316 C1318 1.384 . S
C1317 C1316 1.377 . S
C1317 C1323 1.390 . S
C1318 H1309 0.930 . S
C1318 C1316 1.384 . S
C1318 C1319 1.372 . S
C1319 C1318 1.372 . S
C1319 C1320 1.400 . S
C1319 C1324 1.490 . S
C1320 H1310 0.930 . S
C1320 C1319 1.400 . S
C1320 C1323 1.386 . S
H1321 C1337 0.930 . S
H1322 C1338 0.931 . S
C1323 H1311 0.929 . S
C1323 C1317 1.390 . S
C1323 C1320 1.386 . S
C1324 C1319 1.490 . S
C1324 C1326 1.395 . S
C1324 C1327 1.403 . S
H1325 C1331 0.930 . S
C1326 H1312 0.930 . S
C1326 C1324 1.395 . S
C1326 C1329 1.403 . S
C1327 C1324 1.403 . S
C1327 C1328 1.524 . S
C1327 C1331 1.400 . S
C1328 H1313 0.960 . S
C1328 H1314 0.960 . S
C1328 H1315 0.960 . S
C1328 C1327 1.524 . S
C1329 C1326 1.403 . S
C1329 C1330 1.392 . S
C1329 C1333 1.495 . S
C1330 C1329 1.392 . S
C1330 C1331 1.385 . S
C1330 C1332 1.478 . S
C1331 H1325 0.930 . S
C1331 C1327 1.400 . S
C1331 C1330 1.385 . S
C1332 C1330 1.478 . S
C1332 C1334 1.381 . S
C1332 C1338 1.383 . S
C1333 C1329 1.495 . S
C1333 H1339 0.959 . S
C1333 H1340 0.961 . S
C1333 H1341 0.960 . S
C1334 C1332 1.381 . S
C1334 C1335 1.394 . S
C1334 H1342 0.930 . S
C1335 C1334 1.394 . S
C1335 C1336 1.383 . S
C1335 H1343 0.929 . S
C1336 C1335 1.383 . S
C1336 C1337 1.377 . S
C1337 H1321 0.930 . S
C1337 C1336 1.377 . S
C1337 C1338 1.379 . S
C1338 H1322 0.931 . S
C1338 C1332 1.383 . S
C1338 C1337 1.379 . S
H1339 C1333 0.959 . S
H1340 C1333 0.961 . S
H1341 C1333 0.960 . S
H1342 C1334 0.930 . S
H1343 C1335 0.929 . S
H1344 C1352 0.929 . S
H1345 C1354 0.930 . S
H1346 C1356 0.930 . S
H1347 C1359 0.929 . S
H1348 C1362 0.930 . S
H1349 C1364 0.960 . S
H1350 C1364 0.960 . S
H1351 C1364 0.960 . S
C1352 H1344 0.929 . S
C1352 C1353 1.377 . S
C1352 C1354 1.384 . S
C1353 C1352 1.377 . S
C1353 C1359 1.390 . S
C1354 H1345 0.930 . S
C1354 C1352 1.384 . S
C1354 C1355 1.372 . S
C1355 C1354 1.372 . S
C1355 C1356 1.400 . S
C1355 C1360 1.490 . S
C1356 H1346 0.930 . S
C1356 C1355 1.400 . S
C1356 C1359 1.386 . S
H1357 C1373 0.930 . S
H1358 C1374 0.931 . S
C1359 H1347 0.929 . S
C1359 C1353 1.390 . S
C1359 C1356 1.386 . S
C1360 C1355 1.490 . S
C1360 C1362 1.395 . S
C1360 C1363 1.403 . S
H1361 C1367 0.930 . S
C1362 H1348 0.930 . S
C1362 C1360 1.395 . S
C1362 C1365 1.403 . S
C1363 C1360 1.403 . S
C1363 C1364 1.524 . S
C1363 C1367 1.400 . S
C1364 H1349 0.960 . S
C1364 H1350 0.960 . S
C1364 H1351 0.960 . S
C1364 C1363 1.524 . S
C1365 C1362 1.403 . S
C1365 C1366 1.392 . S
C1365 C1369 1.495 . S
C1366 C1365 1.392 . S
C1366 C1367 1.385 . S
C1366 C1368 1.478 . S
C1367 H1361 0.930 . S
C1367 C1363 1.400 . S
C1367 C1366 1.385 . S
C1368 C1366 1.478 . S
C1368 C1370 1.381 . S
C1368 C1374 1.383 . S
C1369 C1365 1.495 . S
C1369 H1375 0.959 . S
C1369 H1376 0.961 . S
C1369 H1377 0.960 . S
C1370 C1368 1.381 . S
C1370 C1371 1.394 . S
C1370 H1378 0.930 . S
C1371 C1370 1.394 . S
C1371 C1372 1.383 . S
C1371 H1379 0.929 . S
C1372 C1371 1.383 . S
C1372 C1373 1.377 . S
C1373 H1357 0.930 . S
C1373 C1372 1.377 . S
C1373 C1374 1.379 . S
C1374 H1358 0.931 . S
C1374 C1368 1.383 . S
C1374 C1373 1.379 . S
H1375 C1369 0.959 . S
H1376 C1369 0.961 . S
H1377 C1369 0.960 . S
H1378 C1370 0.930 . S
H1379 C1371 0.929 . S
H1380 C1388 0.929 . S
H1381 C1390 0.930 . S
H1382 C1392 0.930 . S
H1383 C1395 0.929 . S
H1384 C1398 0.930 . S
H1385 C1400 0.960 . S
H1386 C1400 0.960 . S
H1387 C1400 0.960 . S
C1388 H1380 0.929 . S
C1388 C1389 1.377 . S
C1388 C1390 1.384 . S
C1389 C1388 1.377 . S
C1389 C1395 1.390 . S
C1390 H1381 0.930 . S
C1390 C1388 1.384 . S
C1390 C1391 1.372 . S
C1391 C1390 1.372 . S
C1391 C1392 1.400 . S
C1391 C1396 1.490 . S
C1392 H1382 0.930 . S
C1392 C1391 1.400 . S
C1392 C1395 1.386 . S
H1393 C1409 0.930 . S
H1394 C1410 0.931 . S
C1395 H1383 0.929 . S
C1395 C1389 1.390 . S
C1395 C1392 1.386 . S
C1396 C1391 1.490 . S
C1396 C1398 1.395 . S
C1396 C1399 1.403 . S
H1397 C1403 0.930 . S
C1398 H1384 0.930 . S
C1398 C1396 1.395 . S
C1398 C1401 1.403 . S
C1399 C1396 1.403 . S
C1399 C1400 1.524 . S
C1399 C1403 1.400 . S
C1400 H1385 0.960 . S
C1400 H1386 0.960 . S
C1400 H1387 0.960 . S
C1400 C1399 1.524 . S
C1401 C1398 1.403 . S
C1401 C1402 1.392 . S
C1401 C1405 1.495 . S
C1402 C1401 1.392 . S
C1402 C1403 1.385 . S
C1402 C1404 1.478 . S
C1403 H1397 0.930 . S
C1403 C1399 1.400 . S
C1403 C1402 1.385 . S
C1404 C1402 1.478 . S
C1404 C1406 1.381 . S
C1404 C1410 1.383 . S
C1405 C1401 1.495 . S
C1405 H1411 0.959 . S
C1405 H1412 0.961 . S
C1405 H1413 0.960 . S
C1406 C1404 1.381 . S
C1406 C1407 1.394 . S
C1406 H1414 0.930 . S
C1407 C1406 1.394 . S
C1407 C1408 1.383 . S
C1407 H1415 0.929 . S
C1408 C1407 1.383 . S
C1408 C1409 1.377 . S
C1409 H1393 0.930 . S
C1409 C1408 1.377 . S
C1409 C1410 1.379 . S
C1410 H1394 0.931 . S
C1410 C1404 1.383 . S
C1410 C1409 1.379 . S
H1411 C1405 0.959 . S
H1412 C1405 0.961 . S
H1413 C1405 0.960 . S
H1414 C1406 0.930 . S
H1415 C1407 0.929 . S
H1416 C1424 0.929 . S
H1417 C1426 0.930 . S
H1418 C1428 0.930 . S
H1419 C1431 0.929 . S
H1420 C1434 0.930 . S
H1421 C1436 0.960 . S
H1422 C1436 0.960 . S
H1423 C1436 0.960 . S
C1424 H1416 0.929 . S
C1424 C1425 1.377 . S
C1424 C1426 1.384 . S
C1425 C1424 1.377 . S
C1425 C1431 1.390 . S
C1426 H1417 0.930 . S
C1426 C1424 1.384 . S
C1426 C1427 1.372 . S
C1427 C1426 1.372 . S
C1427 C1428 1.400 . S
C1427 C1432 1.490 . S
C1428 H1418 0.930 . S
C1428 C1427 1.400 . S
C1428 C1431 1.386 . S
H1429 C1445 0.930 . S
H1430 C1446 0.931 . S
C1431 H1419 0.929 . S
C1431 C1425 1.390 . S
C1431 C1428 1.386 . S
C1432 C1427 1.490 . S
C1432 C1434 1.395 . S
C1432 C1435 1.403 . S
H1433 C1439 0.930 . S
C1434 H1420 0.930 . S
C1434 C1432 1.395 . S
C1434 C1437 1.403 . S
C1435 C1432 1.403 . S
C1435 C1436 1.524 . S
C1435 C1439 1.400 . S
C1436 H1421 0.960 . S
C1436 H1422 0.960 . S
C1436 H1423 0.960 . S
C1436 C1435 1.524 . S
C1437 C1434 1.403 . S
C1437 C1438 1.392 . S
C1437 C1441 1.495 . S
C1438 C1437 1.392 . S
C1438 C1439 1.385 . S
C1438 C1440 1.478 . S
C1439 H1433 0.930 . S
C1439 C1435 1.400 . S
C1439 C1438 1.385 . S
C1440 C1438 1.478 . S
C1440 C1442 1.381 . S
C1440 C1446 1.383 . S
C1441 C1437 1.495 . S
C1441 H1447 0.959 . S
C1441 H1448 0.961 . S
C1441 H1449 0.960 . S
C1442 C1440 1.381 . S
C1442 C1443 1.394 . S
C1442 H1450 0.930 . S
C1443 C1442 1.394 . S
C1443 C1444 1.383 . S
C1443 H1451 0.929 . S
C1444 C1443 1.383 . S
C1444 C1445 1.377 . S
C1445 H1429 0.930 . S
C1445 C1444 1.377 . S
C1445 C1446 1.379 . S
C1446 H1430 0.931 . S
C1446 C1440 1.383 . S
C1446 C1445 1.379 . S
H1447 C1441 0.959 . S
H1448 C1441 0.961 . S
H1449 C1441 0.960 . S
H1450 C1442 0.930 . S
H1451 C1443 0.929 . S
H1452 C1460 0.929 . S
H1453 C1462 0.930 . S
H1454 C1464 0.930 . S
H1455 C1467 0.929 . S
H1456 C1470 0.930 . S
H1457 C1472 0.960 . S
H1458 C1472 0.960 . S
H1459 C1472 0.960 . S
C1460 H1452 0.929 . S
C1460 C1461 1.377 . S
C1460 C1462 1.384 . S
C1461 C1460 1.377 . S
C1461 C1467 1.390 . S
C1462 H1453 0.930 . S
C1462 C1460 1.384 . S
C1462 C1463 1.372 . S
C1463 C1462 1.372 . S
C1463 C1464 1.400 . S
C1463 C1468 1.490 . S
C1464 H1454 0.930 . S
C1464 C1463 1.400 . S
C1464 C1467 1.386 . S
H1465 C1481 0.930 . S
H1466 C1482 0.931 . S
C1467 H1455 0.929 . S
C1467 C1461 1.390 . S
C1467 C1464 1.386 . S
C1468 C1463 1.490 . S
C1468 C1470 1.395 . S
C1468 C1471 1.403 . S
H1469 C1475 0.930 . S
C1470 H1456 0.930 . S
C1470 C1468 1.395 . S
C1470 C1473 1.403 . S
C1471 C1468 1.403 . S
C1471 C1472 1.524 . S
C1471 C1475 1.400 . S
C1472 H1457 0.960 . S
C1472 H1458 0.960 . S
C1472 H1459 0.960 . S
C1472 C1471 1.524 . S
C1473 C1470 1.403 . S
C1473 C1474 1.392 . S
C1473 C1477 1.495 . S
C1474 C1473 1.392 . S
C1474 C1475 1.385 . S
C1474 C1476 1.478 . S
C1475 H1469 0.930 . S
C1475 C1471 1.400 . S
C1475 C1474 1.385 . S
C1476 C1474 1.478 . S
C1476 C1478 1.381 . S
C1476 C1482 1.383 . S
C1477 C1473 1.495 . S
C1477 H1483 0.959 . S
C1477 H1484 0.961 . S
C1477 H1485 0.960 . S
C1478 C1476 1.381 . S
C1478 C1479 1.394 . S
C1478 H1486 0.930 . S
C1479 C1478 1.394 . S
C1479 C1480 1.383 . S
C1479 H1487 0.929 . S
C1480 C1479 1.383 . S
C1480 C1481 1.377 . S
C1481 H1465 0.930 . S
C1481 C1480 1.377 . S
C1481 C1482 1.379 . S
C1482 H1466 0.931 . S
C1482 C1476 1.383 . S
C1482 C1481 1.379 . S
H1483 C1477 0.959 . S
H1484 C1477 0.961 . S
H1485 C1477 0.960 . S
H1486 C1478 0.930 . S
H1487 C1479 0.929 . S
H1488 C1496 0.929 . S
H1489 C1498 0.930 . S
H1490 C1500 0.930 . S
H1491 C1503 0.929 . S
H1492 C1506 0.930 1_556 S
H1493 C1508 0.960 . S
H1494 C1508 0.960 . S
H1495 C1508 0.960 . S
C1496 H1488 0.929 . S
C1496 C1497 1.377 . S
C1496 C1498 1.384 . S
C1497 C1496 1.377 . S
C1497 C1503 1.390 1_554 S
C1498 H1489 0.930 . S
C1498 C1496 1.384 . S
C1498 C1499 1.372 . S
C1499 C1498 1.372 . S
C1499 C1500 1.400 1_554 S
C1499 C1504 1.490 . S
C1500 H1490 0.930 . S
C1500 C1499 1.400 1_556 S
C1500 C1503 1.386 . S
H1501 C1517 0.930 . S
H1502 C1518 0.908 1_556 S
C1503 H1491 0.929 . S
C1503 C1497 1.390 1_556 S
C1503 C1500 1.386 . S
C1504 C1499 1.490 . S
C1504 C1506 1.395 . S
C1504 C1507 1.403 . S
H1505 C1511 0.930 . S
C1506 H1492 0.930 1_554 S
C1506 C1504 1.395 . S
C1506 C1509 1.403 . S
C1507 C1504 1.403 . S
C1507 C1508 1.524 . S
C1507 C1511 1.400 . S
C1508 H1493 0.960 . S
C1508 H1494 0.960 . S
C1508 H1495 0.960 . S
C1508 C1507 1.524 . S
C1509 C1506 1.403 . S
C1509 C1510 1.392 . S
C1509 C1513 1.474 1_554 S
C1510 C1509 1.392 . S
C1510 C1511 1.385 . S
C1510 C1512 1.478 . S
C1511 H1505 0.930 . S
C1511 C1507 1.400 . S
C1511 C1510 1.385 . S
C1512 C1510 1.478 . S
C1512 C1514 1.381 . S
C1512 C1518 1.383 . S
C1513 C1509 1.474 1_556 S
C1513 H1519 0.986 . S
C1513 H1520 1.008 . S
C1513 H1521 0.912 1_556 S
C1514 C1512 1.381 . S
C1514 C1515 1.394 . S
C1514 H1522 0.930 . S
C1515 C1514 1.394 . S
C1515 C1516 1.383 . S
C1515 H1523 0.929 . S
C1516 C1515 1.383 . S
C1516 C1517 1.377 . S
C1517 H1501 0.930 . S
C1517 C1516 1.377 . S
C1517 C1518 1.379 . S
C1518 H1502 0.908 1_554 S
C1518 C1512 1.383 . S
C1518 C1517 1.379 . S
H1519 C1513 0.986 . S
H1520 C1513 1.008 . S
H1521 C1513 0.912 1_554 S
H1522 C1514 0.930 . S
H1523 C1515 0.929 . S
H1524 C1532 0.929 . S
H1525 C1534 0.930 . S
H1526 C1536 0.930 . S
H1527 C1539 0.929 . S
H1528 C1542 0.930 . S
H1529 C1544 0.960 . S
H1530 C1544 0.960 . S
H1531 C1544 0.960 . S
C1532 H1524 0.929 . S
C1532 C1533 1.377 . S
C1532 C1534 1.384 . S
C1533 C1532 1.377 . S
C1533 C1539 1.390 . S
C1534 H1525 0.930 . S
C1534 C1532 1.384 . S
C1534 C1535 1.372 . S
C1535 C1534 1.372 . S
C1535 C1536 1.400 . S
C1535 C1540 1.490 . S
C1536 H1526 0.930 . S
C1536 C1535 1.400 . S
C1536 C1539 1.386 . S
H1537 C1553 0.930 . S
H1538 C1554 0.931 . S
C1539 H1527 0.929 . S
C1539 C1533 1.390 . S
C1539 C1536 1.386 . S
C1540 C1535 1.490 . S
C1540 C1542 1.395 . S
C1540 C1543 1.403 . S
H1541 C1547 0.930 . S
C1542 H1528 0.930 . S
C1542 C1540 1.395 . S
C1542 C1545 1.403 . S
C1543 C1540 1.403 . S
C1543 C1544 1.524 . S
C1543 C1547 1.400 . S
C1544 H1529 0.960 . S
C1544 H1530 0.960 . S
C1544 H1531 0.960 . S
C1544 C1543 1.524 . S
C1545 C1542 1.403 . S
C1545 C1546 1.392 . S
C1545 C1549 1.495 . S
C1546 C1545 1.392 . S
C1546 C1547 1.385 . S
C1546 C1548 1.478 . S
C1547 H1541 0.930 . S
C1547 C1543 1.400 . S
C1547 C1546 1.385 . S
C1548 C1546 1.478 . S
C1548 C1550 1.381 . S
C1548 C1554 1.383 . S
C1549 C1545 1.495 . S
C1549 H1555 0.959 . S
C1549 H1556 0.961 . S
C1549 H1557 0.960 . S
C1550 C1548 1.381 . S
C1550 C1551 1.394 . S
C1550 H1558 0.930 . S
C1551 C1550 1.394 . S
C1551 C1552 1.383 . S
C1551 H1559 0.929 . S
C1552 C1551 1.383 . S
C1552 C1553 1.377 . S
C1553 H1537 0.930 . S
C1553 C1552 1.377 . S
C1553 C1554 1.379 . S
C1554 H1538 0.931 . S
C1554 C1548 1.383 . S
C1554 C1553 1.379 . S
H1555 C1549 0.959 . S
H1556 C1549 0.961 . S
H1557 C1549 0.960 . S
H1558 C1550 0.930 . S
H1559 C1551 0.929 . S
H1560 C1568 0.929 . S
H1561 C1570 0.930 . S
H1562 C1572 0.930 . S
H1563 C1575 0.929 . S
H1564 C1578 0.930 . S
H1565 C1580 0.960 . S
H1566 C1580 0.960 . S
H1567 C1580 0.960 . S
C1568 H1560 0.929 . S
C1568 C1569 1.377 . S
C1568 C1570 1.384 . S
C1569 C1568 1.377 . S
C1569 C1575 1.390 . S
C1570 H1561 0.930 . S
C1570 C1568 1.384 . S
C1570 C1571 1.372 . S
C1571 C1570 1.372 . S
C1571 C1572 1.400 . S
C1571 C1576 1.490 . S
C1572 H1562 0.930 . S
C1572 C1571 1.400 . S
C1572 C1575 1.386 . S
H1573 C1589 0.930 . S
H1574 C1590 0.931 . S
C1575 H1563 0.929 . S
C1575 C1569 1.390 . S
C1575 C1572 1.386 . S
C1576 C1571 1.490 . S
C1576 C1578 1.395 . S
C1576 C1579 1.403 . S
H1577 C1583 0.930 . S
C1578 H1564 0.930 . S
C1578 C1576 1.395 . S
C1578 C1581 1.403 . S
C1579 C1576 1.403 . S
C1579 C1580 1.524 . S
C1579 C1583 1.400 . S
C1580 H1565 0.960 . S
C1580 H1566 0.960 . S
C1580 H1567 0.960 . S
C1580 C1579 1.524 . S
C1581 C1578 1.403 . S
C1581 C1582 1.392 . S
C1581 C1585 1.495 . S
C1582 C1581 1.392 . S
C1582 C1583 1.385 . S
C1582 C1584 1.478 . S
C1583 H1577 0.930 . S
C1583 C1579 1.400 . S
C1583 C1582 1.385 . S
C1584 C1582 1.478 . S
C1584 C1586 1.381 . S
C1584 C1590 1.383 . S
C1585 C1581 1.495 . S
C1585 H1591 0.959 . S
C1585 H1592 0.961 . S
C1585 H1593 0.960 . S
C1586 C1584 1.381 . S
C1586 C1587 1.394 . S
C1586 H1594 0.930 . S
C1587 C1586 1.394 . S
C1587 C1588 1.383 . S
C1587 H1595 0.929 . S
C1588 C1587 1.383 . S
C1588 C1589 1.377 . S
C1589 H1573 0.930 . S
C1589 C1588 1.377 . S
C1589 C1590 1.379 . S
C1590 H1574 0.931 . S
C1590 C1584 1.383 . S
C1590 C1589 1.379 . S
H1591 C1585 0.959 . S
H1592 C1585 0.961 . S
H1593 C1585 0.960 . S
H1594 C1586 0.930 . S
H1595 C1587 0.929 . S
H1596 C1604 0.929 . S
H1597 C1606 0.930 . S
H1598 C1608 0.930 . S
H1599 C1611 0.929 . S
H1600 C1614 0.930 . S
H1601 C1616 0.960 . S
H1602 C1616 0.960 . S
H1603 C1616 0.960 . S
C1604 H1596 0.929 . S
C1604 C1605 1.377 . S
C1604 C1606 1.384 . S
C1605 C1604 1.377 . S
C1605 C1611 1.390 . S
C1606 H1597 0.930 . S
C1606 C1604 1.384 . S
C1606 C1607 1.372 . S
C1607 C1606 1.372 . S
C1607 C1608 1.400 . S
C1607 C1612 1.490 . S
C1608 H1598 0.930 . S
C1608 C1607 1.400 . S
C1608 C1611 1.386 . S
H1609 C1625 0.930 . S
H1610 C1626 0.931 . S
C1611 H1599 0.929 . S
C1611 C1605 1.390 . S
C1611 C1608 1.386 . S
C1612 C1607 1.490 . S
C1612 C1614 1.395 . S
C1612 C1615 1.403 . S
H1613 C1619 0.930 . S
C1614 H1600 0.930 . S
C1614 C1612 1.395 . S
C1614 C1617 1.403 . S
C1615 C1612 1.403 . S
C1615 C1616 1.524 . S
C1615 C1619 1.400 . S
C1616 H1601 0.960 . S
C1616 H1602 0.960 . S
C1616 H1603 0.960 . S
C1616 C1615 1.524 . S
C1617 C1614 1.403 . S
C1617 C1618 1.392 . S
C1617 C1621 1.495 . S
C1618 C1617 1.392 . S
C1618 C1619 1.385 . S
C1618 C1620 1.478 . S
C1619 H1613 0.930 . S
C1619 C1615 1.400 . S
C1619 C1618 1.385 . S
C1620 C1618 1.478 . S
C1620 C1622 1.381 . S
C1620 C1626 1.383 . S
C1621 C1617 1.495 . S
C1621 H1627 0.959 . S
C1621 H1628 0.961 . S
C1621 H1629 0.960 . S
C1622 C1620 1.381 . S
C1622 C1623 1.394 . S
C1622 H1630 0.930 . S
C1623 C1622 1.394 . S
C1623 C1624 1.383 . S
C1623 H1631 0.929 . S
C1624 C1623 1.383 . S
C1624 C1625 1.377 . S
C1625 H1609 0.930 . S
C1625 C1624 1.377 . S
C1625 C1626 1.379 . S
C1626 H1610 0.931 . S
C1626 C1620 1.383 . S
C1626 C1625 1.379 . S
H1627 C1621 0.959 . S
H1628 C1621 0.961 . S
H1629 C1621 0.960 . S
H1630 C1622 0.930 . S
H1631 C1623 0.929 . S
H1632 C1640 0.929 . S
H1633 C1642 0.930 . S
H1634 C1644 0.930 . S
H1635 C1647 0.929 . S
H1636 C1650 0.930 . S
H1637 C1652 0.960 . S
H1638 C1652 0.960 . S
H1639 C1652 0.960 . S
C1640 H1632 0.929 . S
C1640 C1641 1.377 . S
C1640 C1642 1.384 . S
C1641 C1640 1.377 . S
C1641 C1647 1.390 . S
C1642 H1633 0.930 . S
C1642 C1640 1.384 . S
C1642 C1643 1.372 . S
C1643 C1642 1.372 . S
C1643 C1644 1.400 . S
C1643 C1648 1.490 . S
C1644 H1634 0.930 . S
C1644 C1643 1.400 . S
C1644 C1647 1.386 . S
H1645 C1661 0.930 . S
H1646 C1662 0.931 . S
C1647 H1635 0.929 . S
C1647 C1641 1.390 . S
C1647 C1644 1.386 . S
C1648 C1643 1.490 . S
C1648 C1650 1.395 . S
C1648 C1651 1.403 . S
H1649 C1655 0.930 . S
C1650 H1636 0.930 . S
C1650 C1648 1.395 . S
C1650 C1653 1.403 . S
C1651 C1648 1.403 . S
C1651 C1652 1.524 . S
C1651 C1655 1.400 . S
C1652 H1637 0.960 . S
C1652 H1638 0.960 . S
C1652 H1639 0.960 . S
C1652 C1651 1.524 . S
C1653 C1650 1.403 . S
C1653 C1654 1.392 . S
C1653 C1657 1.495 . S
C1654 C1653 1.392 . S
C1654 C1655 1.385 . S
C1654 C1656 1.478 . S
C1655 H1649 0.930 . S
C1655 C1651 1.400 . S
C1655 C1654 1.385 . S
C1656 C1654 1.478 . S
C1656 C1658 1.381 . S
C1656 C1662 1.383 . S
C1657 C1653 1.495 . S
C1657 H1663 0.959 . S
C1657 H1664 0.961 . S
C1657 H1665 0.960 . S
C1658 C1656 1.381 . S
C1658 C1659 1.394 . S
C1658 H1666 0.930 . S
C1659 C1658 1.394 . S
C1659 C1660 1.383 . S
C1659 H1667 0.929 . S
C1660 C1659 1.383 . S
C1660 C1661 1.377 . S
C1661 H1645 0.930 . S
C1661 C1660 1.377 . S
C1661 C1662 1.379 . S
C1662 H1646 0.931 . S
C1662 C1656 1.383 . S
C1662 C1661 1.379 . S
H1663 C1657 0.959 . S
H1664 C1657 0.961 . S
H1665 C1657 0.960 . S
H1666 C1658 0.930 . S
H1667 C1659 0.929 . S
H1668 C1676 0.929 . S
H1669 C1678 0.930 . S
H1670 C1680 0.930 . S
H1671 C1683 0.929 . S
H1672 C1686 0.930 . S
H1673 C1688 0.960 . S
H1674 C1688 0.960 . S
H1675 C1688 0.960 . S
C1676 H1668 0.929 . S
C1676 C1677 1.377 . S
C1676 C1678 1.384 . S
C1677 C1676 1.377 . S
C1677 C1683 1.390 . S
C1678 H1669 0.930 . S
C1678 C1676 1.384 . S
C1678 C1679 1.372 . S
C1679 C1678 1.372 . S
C1679 C1680 1.400 . S
C1679 C1684 1.490 . S
C1680 H1670 0.930 . S
C1680 C1679 1.400 . S
C1680 C1683 1.386 . S
H1681 C1697 0.930 . S
H1682 C1698 0.931 . S
C1683 H1671 0.929 . S
C1683 C1677 1.390 . S
C1683 C1680 1.386 . S
C1684 C1679 1.490 . S
C1684 C1686 1.395 . S
C1684 C1687 1.403 . S
H1685 C1691 0.930 . S
C1686 H1672 0.930 . S
C1686 C1684 1.395 . S
C1686 C1689 1.403 . S
C1687 C1684 1.403 . S
C1687 C1688 1.524 . S
C1687 C1691 1.400 . S
C1688 H1673 0.960 . S
C1688 H1674 0.960 . S
C1688 H1675 0.960 . S
C1688 C1687 1.524 . S
C1689 C1686 1.403 . S
C1689 C1690 1.392 . S
C1689 C1693 1.495 . S
C1690 C1689 1.392 . S
C1690 C1691 1.385 . S
C1690 C1692 1.478 . S
C1691 H1685 0.930 . S
C1691 C1687 1.400 . S
C1691 C1690 1.385 . S
C1692 C1690 1.478 . S
C1692 C1694 1.381 . S
C1692 C1698 1.383 . S
C1693 C1689 1.495 . S
C1693 H1699 0.959 . S
C1693 H1700 0.961 . S
C1693 H1701 0.960 . S
C1694 C1692 1.381 . S
C1694 C1695 1.394 . S
C1694 H1702 0.930 . S
C1695 C1694 1.394 . S
C1695 C1696 1.383 . S
C1695 H1703 0.929 . S
C1696 C1695 1.383 . S
C1696 C1697 1.377 . S
C1697 H1681 0.930 . S
C1697 C1696 1.377 . S
C1697 C1698 1.379 . S
C1698 H1682 0.931 . S
C1698 C1692 1.383 . S
C1698 C1697 1.379 . S
H1699 C1693 0.959 . S
H1700 C1693 0.961 . S
H1701 C1693 0.960 . S
H1702 C1694 0.930 . S
H1703 C1695 0.929 . S
H1704 C1712 0.929 . S
H1705 C1714 0.930 . S
H1706 C1716 0.930 . S
H1707 C1719 0.929 . S
H1708 C1722 0.930 . S
H1709 C1724 0.960 . S
H1710 C1724 0.960 . S
H1711 C1724 0.960 . S
C1712 H1704 0.929 . S
C1712 C1713 1.377 . S
C1712 C1714 1.384 . S
C1713 C1712 1.377 . S
C1713 C1719 1.390 . S
C1714 H1705 0.930 . S
C1714 C1712 1.384 . S
C1714 C1715 1.372 . S
C1715 C1714 1.372 . S
C1715 C1716 1.400 . S
C1715 C1720 1.490 . S
C1716 H1706 0.930 . S
C1716 C1715 1.400 . S
C1716 C1719 1.386 . S
H1717 C1733 0.930 . S
H1718 C1734 0.931 . S
C1719 H1707 0.929 . S
C1719 C1713 1.390 . S
C1719 C1716 1.386 . S
C1720 C1715 1.490 . S
C1720 C1722 1.395 . S
C1720 C1723 1.403 . S
H1721 C1727 0.930 . S
C1722 H1708 0.930 . S
C1722 C1720 1.395 . S
C1722 C1725 1.403 . S
C1723 C1720 1.403 . S
C1723 C1724 1.524 . S
C1723 C1727 1.400 . S
C1724 H1709 0.960 . S
C1724 H1710 0.960 . S
C1724 H1711 0.960 . S
C1724 C1723 1.524 . S
C1725 C1722 1.403 . S
C1725 C1726 1.392 . S
C1725 C1729 1.495 . S
C1726 C1725 1.392 . S
C1726 C1727 1.385 . S
C1726 C1728 1.478 . S
C1727 H1721 0.930 . S
C1727 C1723 1.400 . S
C1727 C1726 1.385 . S
C1728 C1726 1.478 . S
C1728 C1730 1.381 . S
C1728 C1734 1.383 . S
C1729 C1725 1.495 . S
C1729 H1735 0.959 . S
C1729 H1736 0.961 . S
C1729 H1737 0.960 . S
C1730 C1728 1.381 . S
C1730 C1731 1.394 . S
C1730 H1738 0.930 . S
C1731 C1730 1.394 . S
C1731 C1732 1.383 . S
C1731 H1739 0.929 . S
C1732 C1731 1.383 . S
C1732 C1733 1.377 . S
C1733 H1717 0.930 . S
C1733 C1732 1.377 . S
C1733 C1734 1.379 . S
C1734 H1718 0.931 . S
C1734 C1728 1.383 . S
C1734 C1733 1.379 . S
H1735 C1729 0.959 . S
H1736 C1729 0.961 . S
H1737 C1729 0.960 . S
H1738 C1730 0.930 . S
H1739 C1731 0.929 . S
H1740 C1748 0.929 . S
H1741 C1750 0.930 . S
H1742 C1752 0.930 1_554 S
H1743 C1755 0.929 1_554 S
H1744 C1758 0.930 . S
H1745 C1760 0.960 . S
H1746 C1760 0.960 . S
H1747 C1760 0.944 1_554 S
C1748 H1740 0.929 . S
C1748 C1749 1.377 . S
C1748 C1750 1.384 . S
C1749 C1748 1.377 . S
C1749 C1755 1.390 . S
C1750 H1741 0.930 . S
C1750 C1748 1.384 . S
C1750 C1751 1.372 . S
C1751 C1750 1.372 . S
C1751 C1752 1.400 . S
C1751 C1756 1.490 . S
C1752 H1742 0.930 1_556 S
C1752 C1751 1.400 . S
C1752 C1755 1.386 . S
H1753 C1769 0.930 . S
H1754 C1770 0.931 . S
C1755 H1743 0.929 1_556 S
C1755 C1749 1.390 . S
C1755 C1752 1.386 . S
C1756 C1751 1.490 . S
C1756 C1758 1.395 . S
C1756 C1759 1.403 . S
H1757 C1763 0.930 . S
C1758 H1744 0.930 . S
C1758 C1756 1.395 . S
C1758 C1761 1.403 . S
C1759 C1756 1.403 . S
C1759 C1760 1.524 . S
C1759 C1763 1.400 . S
C1760 H1745 0.960 . S
C1760 H1746 0.960 . S
C1760 H1747 0.944 1_556 S
C1760 C1759 1.524 . S
C1761 C1758 1.403 . S
C1761 C1762 1.392 . S
C1761 C1765 1.495 . S
C1762 C1761 1.392 . S
C1762 C1763 1.385 . S
C1762 C1764 1.478 . S
C1763 H1757 0.930 . S
C1763 C1759 1.400 . S
C1763 C1762 1.385 . S
C1764 C1762 1.478 . S
C1764 C1766 1.381 . S
C1764 C1770 1.383 1_556 S
C1765 C1761 1.495 . S
C1765 H1771 0.959 . S
C1765 H1772 0.961 . S
C1765 H1773 0.960 . S
C1766 C1764 1.381 . S
C1766 C1767 1.394 . S
C1766 H1774 0.930 . S
C1767 C1766 1.394 . S
C1767 C1768 1.442 . S
C1767 H1775 0.929 . S
C1768 C1767 1.442 . S
C1768 C1769 1.330 1_556 S
C1769 H1753 0.930 . S
C1769 C1768 1.330 1_554 S
C1769 C1770 1.379 . S
C1770 H1754 0.931 . S
C1770 C1764 1.383 1_554 S
C1770 C1769 1.379 . S
H1771 C1765 0.959 . S
H1772 C1765 0.961 . S
H1773 C1765 0.960 . S
H1774 C1766 0.930 . S
H1775 C1767 0.929 . S
H1776 C1784 0.929 . S
H1777 C1786 0.930 . S
H1778 C1788 0.930 . S
H1779 C1791 0.929 . S
H1780 C1794 0.930 . S
H1781 C1796 0.960 . S
H1782 C1796 0.960 . S
H1783 C1796 0.960 . S
C1784 H1776 0.929 . S
C1784 C1785 1.377 . S
C1784 C1786 1.384 . S
C1785 C1784 1.377 . S
C1785 C1791 1.390 . S
C1786 H1777 0.930 . S
C1786 C1784 1.384 . S
C1786 C1787 1.372 . S
C1787 C1786 1.372 . S
C1787 C1788 1.400 . S
C1787 C1792 1.490 . S
C1788 H1778 0.930 . S
C1788 C1787 1.400 . S
C1788 C1791 1.386 . S
H1789 C1805 0.930 . S
H1790 C1806 0.931 . S
C1791 H1779 0.929 . S
C1791 C1785 1.390 . S
C1791 C1788 1.386 . S
C1792 C1787 1.490 . S
C1792 C1794 1.395 . S
C1792 C1795 1.403 . S
H1793 C1799 0.930 . S
C1794 H1780 0.930 . S
C1794 C1792 1.395 . S
C1794 C1797 1.403 . S
C1795 C1792 1.403 . S
C1795 C1796 1.524 . S
C1795 C1799 1.400 . S
C1796 H1781 0.960 . S
C1796 H1782 0.960 . S
C1796 H1783 0.960 . S
C1796 C1795 1.524 . S
C1797 C1794 1.403 . S
C1797 C1798 1.392 . S
C1797 C1801 1.495 . S
C1798 C1797 1.392 . S
C1798 C1799 1.385 . S
C1798 C1800 1.478 . S
C1799 H1793 0.930 . S
C1799 C1795 1.400 . S
C1799 C1798 1.385 . S
C1800 C1798 1.478 . S
C1800 C1802 1.381 . S
C1800 C1806 1.383 . S
C1801 C1797 1.495 . S
C1801 H1807 0.959 . S
C1801 H1808 0.961 . S
C1801 H1809 0.960 . S
C1802 C1800 1.381 . S
C1802 C1803 1.394 . S
C1802 H1810 0.930 . S
C1803 C1802 1.394 . S
C1803 C1804 1.383 . S
C1803 H1811 0.929 . S
C1804 C1803 1.383 . S
C1804 C1805 1.377 . S
C1805 H1789 0.930 . S
C1805 C1804 1.377 . S
C1805 C1806 1.379 . S
C1806 H1790 0.931 . S
C1806 C1800 1.383 . S
C1806 C1805 1.379 . S
H1807 C1801 0.959 . S
H1808 C1801 0.961 . S
H1809 C1801 0.960 . S
H1810 C1802 0.930 . S
H1811 C1803 0.929 . S
H1812 C1820 0.929 . S
H1813 C1822 0.930 . S
H1814 C1824 0.930 . S
H1815 C1827 0.929 . S
H1816 C1830 0.930 . S
H1817 C1832 0.960 . S
H1818 C1832 0.960 . S
H1819 C1832 0.960 . S
C1820 H1812 0.929 . S
C1820 C1821 1.377 . S
C1820 C1822 1.384 . S
C1821 C1820 1.377 . S
C1821 C1827 1.390 . S
C1822 H1813 0.930 . S
C1822 C1820 1.384 . S
C1822 C1823 1.372 . S
C1823 C1822 1.372 . S
C1823 C1824 1.400 . S
C1823 C1828 1.490 . S
C1824 H1814 0.930 . S
C1824 C1823 1.400 . S
C1824 C1827 1.386 . S
H1825 C1841 0.930 . S
H1826 C1842 0.931 . S
C1827 H1815 0.929 . S
C1827 C1821 1.390 . S
C1827 C1824 1.386 . S
C1828 C1823 1.490 . S
C1828 C1830 1.395 . S
C1828 C1831 1.403 . S
H1829 C1835 0.930 . S
C1830 H1816 0.930 . S
C1830 C1828 1.395 . S
C1830 C1833 1.403 . S
C1831 C1828 1.403 . S
C1831 C1832 1.524 . S
C1831 C1835 1.400 . S
C1832 H1817 0.960 . S
C1832 H1818 0.960 . S
C1832 H1819 0.960 . S
C1832 C1831 1.524 . S
C1833 C1830 1.403 . S
C1833 C1834 1.392 . S
C1833 C1837 1.495 . S
C1834 C1833 1.392 . S
C1834 C1835 1.385 . S
C1834 C1836 1.478 . S
C1835 H1829 0.930 . S
C1835 C1831 1.400 . S
C1835 C1834 1.385 . S
C1836 C1834 1.478 . S
C1836 C1838 1.381 . S
C1836 C1842 1.383 . S
C1837 C1833 1.495 . S
C1837 H1843 0.959 . S
C1837 H1844 0.961 . S
C1837 H1845 0.960 . S
C1838 C1836 1.381 . S
C1838 C1839 1.394 . S
C1838 H1846 0.930 . S
C1839 C1838 1.394 . S
C1839 C1840 1.383 . S
C1839 H1847 0.929 . S
C1840 C1839 1.383 . S
C1840 C1841 1.377 . S
C1841 H1825 0.930 . S
C1841 C1840 1.377 . S
C1841 C1842 1.379 . S
C1842 H1826 0.931 . S
C1842 C1836 1.383 . S
C1842 C1841 1.379 . S
H1843 C1837 0.959 . S
H1844 C1837 0.961 . S
H1845 C1837 0.960 . S
H1846 C1838 0.930 . S
H1847 C1839 0.929 . S
H1848 C1856 0.929 . S
H1849 C1858 0.930 . S
H1850 C1860 0.930 . S
H1851 C1863 0.929 . S
H1852 C1866 0.930 . S
H1853 C1868 0.960 . S
H1854 C1868 0.960 . S
H1855 C1868 0.960 . S
C1856 H1848 0.929 . S
C1856 C1857 1.377 . S
C1856 C1858 1.384 . S
C1857 C1856 1.377 . S
C1857 C1863 1.390 . S
C1858 H1849 0.930 . S
C1858 C1856 1.384 . S
C1858 C1859 1.372 . S
C1859 C1858 1.372 . S
C1859 C1860 1.400 . S
C1859 C1864 1.490 . S
C1860 H1850 0.930 . S
C1860 C1859 1.400 . S
C1860 C1863 1.386 . S
H1861 C1877 0.930 . S
H1862 C1878 0.931 . S
C1863 H1851 0.929 . S
C1863 C1857 1.390 . S
C1863 C1860 1.386 . S
C1864 C1859 1.490 . S
C1864 C1866 1.395 . S
C1864 C1867 1.403 . S
H1865 C1871 0.930 . S
C1866 H1852 0.930 . S
C1866 C1864 1.395 . S
C1866 C1869 1.403 . S
C1867 C1864 1.403 . S
C1867 C1868 1.524 . S
C1867 C1871 1.400 . S
C1868 H1853 0.960 . S
C1868 H1854 0.960 . S
C1868 H1855 0.960 . S
C1868 C1867 1.524 . S
C1869 C1866 1.403 . S
C1869 C1870 1.392 . S
C1869 C1873 1.495 . S
C1870 C1869 1.392 . S
C1870 C1871 1.385 . S
C1870 C1872 1.478 . S
C1871 H1865 0.930 . S
C1871 C1867 1.400 . S
C1871 C1870 1.385 . S
C1872 C1870 1.478 . S
C1872 C1874 1.381 . S
C1872 C1878 1.383 . S
C1873 C1869 1.495 . S
C1873 H1879 0.959 . S
C1873 H1880 0.961 . S
C1873 H1881 0.960 . S
C1874 C1872 1.381 . S
C1874 C1875 1.394 . S
C1874 H1882 0.930 . S
C1875 C1874 1.394 . S
C1875 C1876 1.383 . S
C1875 H1883 0.929 . S
C1876 C1875 1.383 . S
C1876 C1877 1.377 . S
C1877 H1861 0.930 . S
C1877 C1876 1.377 . S
C1877 C1878 1.379 . S
C1878 H1862 0.931 . S
C1878 C1872 1.383 . S
C1878 C1877 1.379 . S
H1879 C1873 0.959 . S
H1880 C1873 0.961 . S
H1881 C1873 0.960 . S
H1882 C1874 0.930 . S
H1883 C1875 0.929 . S
H1884 C1892 0.929 . S
H1885 C1894 0.930 . S
H1886 C1896 0.930 . S
H1887 C1899 0.929 . S
H1888 C1902 0.930 . S
H1889 C1904 0.960 . S
H1890 C1904 0.960 . S
H1891 C1904 0.960 . S
C1892 H1884 0.929 . S
C1892 C1893 1.377 . S
C1892 C1894 1.384 . S
C1893 C1892 1.377 . S
C1893 C1899 1.390 . S
C1894 H1885 0.930 . S
C1894 C1892 1.384 . S
C1894 C1895 1.372 . S
C1895 C1894 1.372 . S
C1895 C1896 1.400 . S
C1895 C1900 1.490 . S
C1896 H1886 0.930 . S
C1896 C1895 1.400 . S
C1896 C1899 1.386 . S
H1897 C1913 0.930 . S
H1898 C1914 0.931 . S
C1899 H1887 0.929 . S
C1899 C1893 1.390 . S
C1899 C1896 1.386 . S
C1900 C1895 1.490 . S
C1900 C1902 1.395 . S
C1900 C1903 1.403 . S
H1901 C1907 0.930 . S
C1902 H1888 0.930 . S
C1902 C1900 1.395 . S
C1902 C1905 1.403 . S
C1903 C1900 1.403 . S
C1903 C1904 1.524 . S
C1903 C1907 1.400 . S
C1904 H1889 0.960 . S
C1904 H1890 0.960 . S
C1904 H1891 0.960 . S
C1904 C1903 1.524 . S
C1905 C1902 1.403 . S
C1905 C1906 1.392 . S
C1905 C1909 1.495 . S
C1906 C1905 1.392 . S
C1906 C1907 1.385 . S
C1906 C1908 1.478 . S
C1907 H1901 0.930 . S
C1907 C1903 1.400 . S
C1907 C1906 1.385 . S
C1908 C1906 1.478 . S
C1908 C1910 1.381 . S
C1908 C1914 1.383 . S
C1909 C1905 1.495 . S
C1909 H1915 0.959 . S
C1909 H1916 0.961 . S
C1909 H1917 0.960 . S
C1910 C1908 1.381 . S
C1910 C1911 1.394 . S
C1910 H1918 0.930 . S
C1911 C1910 1.394 . S
C1911 C1912 1.383 . S
C1911 H1919 0.929 . S
C1912 C1911 1.383 . S
C1912 C1913 1.377 . S
C1913 H1897 0.930 . S
C1913 C1912 1.377 . S
C1913 C1914 1.379 . S
C1914 H1898 0.931 . S
C1914 C1908 1.383 . S
C1914 C1913 1.379 . S
H1915 C1909 0.959 . S
H1916 C1909 0.961 . S
H1917 C1909 0.960 . S
H1918 C1910 0.930 . S
H1919 C1911 0.929 . S
C417 C28 1.828 . S
C436 C300 1.820 . S
C453 C40 1.828 . S
C472 C312 1.826 . S
C489 C368 1.828 . S
C508 C96 1.828 . S
C525 C108 1.828 . S
C544 C380 1.828 . S
C561 C164 1.829 . S
C580 C232 1.823 . S
C597 C176 1.828 . S
C616 C244 1.821 . S
C633 C171 1.155 . S
C652 C6 1.181 . S
C669 C62 1.181 . S
C688 C3 1.168 . S
C705 C74 1.180 . S
C724 C35 1.131 . S
C741 C71 1.154 . S
C760 C130 1.185 . S
C777 C103 1.143 . S
C796 C142 1.173 . S
C813 C139 1.143 . S
C832 C198 1.170 . S
C849 C210 1.179 . S
C868 C239 1.126 . S
C885 C275 1.143 . S
C904 C266 1.175 . S
C921 C307 1.143 . S
C940 C278 1.176 . S
C957 C343 1.154 . S
C976 C334 1.179 . S
C993 C375 1.155 . S
C1012 C346 1.181 . S
C1029 C402 1.178 . S
C1048 C207 1.115 . S
C1065 C17 1.385 . S
C1084 C221 1.395 . S
C1101 C51 1.386 . S
C1120 C255 1.393 . S
C1137 C289 1.388 . S
C1156 C85 1.378 . S
C1173 C323 1.385 . S
C1192 C119 1.394 . S
C1209 C153 1.385 . S
C1228 C357 1.394 . S
C1245 C187 1.387 . S
C1264 C391 1.386 . S
C1281 C273 3.054 1_545 S
C1300 C1 3.055 . S
C1317 C309 3.050 . S
C1336 C37 3.035 1_455 S
C1353 C341 3.049 1_655 S
C1372 C69 3.035 1_545 S
C1389 C105 3.052 . S
C1408 C377 3.049 1_565 S
C1425 C205 3.049 . S
C1444 C137 3.034 1_655 S
C1461 C241 3.050 1_455 S
C1480 C173 3.038 1_565 S
C1497 C260 0.286 . S
C1516 C22 0.501 . S
C1533 C287 0.303 . S
C1552 C49 0.632 . S
C1569 C328 0.313 . S
C1588 C90 0.676 . S
C1605 C355 0.304 . S
C1624 C117 0.636 . S
C1641 C396 0.313 . S
C1660 C158 0.680 . S
C1677 C219 0.313 . S
C1696 C185 0.673 . S
C1713 C226 0.583 . S
C1732 C192 0.310 . S
C1749 C253 0.567 . S
C1768 C15 0.288 . S
C1785 C56 0.312 . S
C1804 C294 0.677 . S
C1821 C83 0.310 . S
C1840 C321 0.668 . S
C1857 C362 0.588 . S
C1876 C124 0.342 . S
C1893 C151 0.282 . S
C1912 C389 0.492 . S
