# Generated by pormake.
# Topology pbp, (3)-cn, num edge types: 1
# Building blocks:
#     Node 0, Type 0, BuildingBlock: WUSLED_clean_sbu_0, # of connection points: 3
#     Node 1, Type 0, BuildingBlock: WUSLED_clean_sbu_0, # of connection points: 3
#     Node 2, Type 0, BuildingBlock: WUSLED_clean_sbu_0, # of connection points: 3
#     Node 3, Type 0, BuildingBlock: WUSLED_clean_sbu_0, # of connection points: 3
#     Node 4, Type 0, BuildingBlock: WUSLED_clean_sbu_0, # of connection points: 3
#     Node 5, Type 0, BuildingBlock: WUSLED_clean_sbu_0, # of connection points: 3
#     Node 6, Type 0, BuildingBlock: WUSLED_clean_sbu_0, # of connection points: 3
#     Node 7, Type 0, BuildingBlock: WUSLED_clean_sbu_0, # of connection points: 3
#     Node 8, Type 0, BuildingBlock: WUSLED_clean_sbu_0, # of connection points: 3
#     Node 9, Type 0, BuildingBlock: WUSLED_clean_sbu_0, # of connection points: 3
#     Node 10, Type 0, BuildingBlock: WUSLED_clean_sbu_0, # of connection points: 3
#     Node 11, Type 0, BuildingBlock: WUSLED_clean_sbu_0, # of connection points: 3
#     Node 12, Type 0, BuildingBlock: WUSLED_clean_sbu_0, # of connection points: 3
#     Node 13, Type 0, BuildingBlock: WUSLED_clean_sbu_0, # of connection points: 3
#     Node 14, Type 0, BuildingBlock: WUSLED_clean_sbu_0, # of connection points: 3
#     Node 15, Type 0, BuildingBlock: WUSLED_clean_sbu_0, # of connection points: 3
#     Node 16, Type 0, BuildingBlock: WUSLED_clean_sbu_0, # of connection points: 3
#     Node 17, Type 0, BuildingBlock: WUSLED_clean_sbu_0, # of connection points: 3
#     Node 18, Type 0, BuildingBlock: WUSLED_clean_sbu_0, # of connection points: 3
#     Node 19, Type 0, BuildingBlock: WUSLED_clean_sbu_0, # of connection points: 3
#     Node 20, Type 0, BuildingBlock: WUSLED_clean_sbu_0, # of connection points: 3
#     Node 21, Type 0, BuildingBlock: WUSLED_clean_sbu_0, # of connection points: 3
#     Node 22, Type 0, BuildingBlock: WUSLED_clean_sbu_0, # of connection points: 3
#     Node 23, Type 0, BuildingBlock: WUSLED_clean_sbu_0, # of connection points: 3
#     Node 24, Type 0, BuildingBlock: WUSLED_clean_sbu_0, # of connection points: 3
#     Node 25, Type 0, BuildingBlock: WUSLED_clean_sbu_0, # of connection points: 3
#     Node 26, Type 0, BuildingBlock: WUSLED_clean_sbu_0, # of connection points: 3
#     Node 27, Type 0, BuildingBlock: WUSLED_clean_sbu_0, # of connection points: 3
#     Node 28, Type 0, BuildingBlock: WUSLED_clean_sbu_0, # of connection points: 3
#     Node 29, Type 0, BuildingBlock: WUSLED_clean_sbu_0, # of connection points: 3
#     Node 30, Type 0, BuildingBlock: WUSLED_clean_sbu_0, # of connection points: 3
#     Node 31, Type 0, BuildingBlock: WUSLED_clean_sbu_0, # of connection points: 3
#     Node 32, Type 0, BuildingBlock: WUSLED_clean_sbu_0, # of connection points: 3
#     Node 33, Type 0, BuildingBlock: WUSLED_clean_sbu_0, # of connection points: 3
#     Node 34, Type 0, BuildingBlock: WUSLED_clean_sbu_0, # of connection points: 3
#     Node 35, Type 0, BuildingBlock: WUSLED_clean_sbu_0, # of connection points: 3
#     Node 36, Type 0, BuildingBlock: WUSLED_clean_sbu_0, # of connection points: 3
#     Node 37, Type 0, BuildingBlock: WUSLED_clean_sbu_0, # of connection points: 3
#     Node 38, Type 0, BuildingBlock: WUSLED_clean_sbu_0, # of connection points: 3
#     Node 39, Type 0, BuildingBlock: WUSLED_clean_sbu_0, # of connection points: 3
#     Node 40, Type 0, BuildingBlock: WUSLED_clean_sbu_0, # of connection points: 3
#     Node 41, Type 0, BuildingBlock: WUSLED_clean_sbu_0, # of connection points: 3
#     Node 42, Type 0, BuildingBlock: WUSLED_clean_sbu_0, # of connection points: 3
#     Node 43, Type 0, BuildingBlock: WUSLED_clean_sbu_0, # of connection points: 3
#     Node 44, Type 0, BuildingBlock: WUSLED_clean_sbu_0, # of connection points: 3
#     Node 45, Type 0, BuildingBlock: WUSLED_clean_sbu_0, # of connection points: 3
#     Node 46, Type 0, BuildingBlock: WUSLED_clean_sbu_0, # of connection points: 3
#     Node 47, Type 0, BuildingBlock: WUSLED_clean_sbu_0, # of connection points: 3
#     Edge 48, Type (0, 0), BuildingBlock: ZUJKAS_clean_linker_0, # of connection points: 2
#     Edge 49, Type (0, 0), BuildingBlock: ZUJKAS_clean_linker_0, # of connection points: 2
#     Edge 50, Type (0, 0), BuildingBlock: ZUJKAS_clean_linker_0, # of connection points: 2
#     Edge 51, Type (0, 0), BuildingBlock: ZUJKAS_clean_linker_0, # of connection points: 2
#     Edge 52, Type (0, 0), BuildingBlock: ZUJKAS_clean_linker_0, # of connection points: 2
#     Edge 53, Type (0, 0), BuildingBlock: ZUJKAS_clean_linker_0, # of connection points: 2
#     Edge 54, Type (0, 0), BuildingBlock: ZUJKAS_clean_linker_0, # of connection points: 2
#     Edge 55, Type (0, 0), BuildingBlock: ZUJKAS_clean_linker_0, # of connection points: 2
#     Edge 56, Type (0, 0), BuildingBlock: ZUJKAS_clean_linker_0, # of connection points: 2
#     Edge 57, Type (0, 0), BuildingBlock: ZUJKAS_clean_linker_0, # of connection points: 2
#     Edge 58, Type (0, 0), BuildingBlock: ZUJKAS_clean_linker_0, # of connection points: 2
#     Edge 59, Type (0, 0), BuildingBlock: ZUJKAS_clean_linker_0, # of connection points: 2
#     Edge 60, Type (0, 0), BuildingBlock: ZUJKAS_clean_linker_0, # of connection points: 2
#     Edge 61, Type (0, 0), BuildingBlock: ZUJKAS_clean_linker_0, # of connection points: 2
#     Edge 62, Type (0, 0), BuildingBlock: ZUJKAS_clean_linker_0, # of connection points: 2
#     Edge 63, Type (0, 0), BuildingBlock: ZUJKAS_clean_linker_0, # of connection points: 2
#     Edge 64, Type (0, 0), BuildingBlock: ZUJKAS_clean_linker_0, # of connection points: 2
#     Edge 65, Type (0, 0), BuildingBlock: ZUJKAS_clean_linker_0, # of connection points: 2
#     Edge 66, Type (0, 0), BuildingBlock: ZUJKAS_clean_linker_0, # of connection points: 2
#     Edge 67, Type (0, 0), BuildingBlock: ZUJKAS_clean_linker_0, # of connection points: 2
#     Edge 68, Type (0, 0), BuildingBlock: ZUJKAS_clean_linker_0, # of connection points: 2
#     Edge 69, Type (0, 0), BuildingBlock: ZUJKAS_clean_linker_0, # of connection points: 2
#     Edge 70, Type (0, 0), BuildingBlock: ZUJKAS_clean_linker_0, # of connection points: 2
#     Edge 71, Type (0, 0), BuildingBlock: ZUJKAS_clean_linker_0, # of connection points: 2
#     Edge 72, Type (0, 0), BuildingBlock: ZUJKAS_clean_linker_0, # of connection points: 2
#     Edge 73, Type (0, 0), BuildingBlock: ZUJKAS_clean_linker_0, # of connection points: 2
#     Edge 74, Type (0, 0), BuildingBlock: ZUJKAS_clean_linker_0, # of connection points: 2
#     Edge 75, Type (0, 0), BuildingBlock: ZUJKAS_clean_linker_0, # of connection points: 2
#     Edge 76, Type (0, 0), BuildingBlock: ZUJKAS_clean_linker_0, # of connection points: 2
#     Edge 77, Type (0, 0), BuildingBlock: ZUJKAS_clean_linker_0, # of connection points: 2
#     Edge 78, Type (0, 0), BuildingBlock: ZUJKAS_clean_linker_0, # of connection points: 2
#     Edge 79, Type (0, 0), BuildingBlock: ZUJKAS_clean_linker_0, # of connection points: 2
#     Edge 80, Type (0, 0), BuildingBlock: ZUJKAS_clean_linker_0, # of connection points: 2
#     Edge 81, Type (0, 0), BuildingBlock: ZUJKAS_clean_linker_0, # of connection points: 2
#     Edge 82, Type (0, 0), BuildingBlock: ZUJKAS_clean_linker_0, # of connection points: 2
#     Edge 83, Type (0, 0), BuildingBlock: ZUJKAS_clean_linker_0, # of connection points: 2
#     Edge 84, Type (0, 0), BuildingBlock: ZUJKAS_clean_linker_0, # of connection points: 2
#     Edge 85, Type (0, 0), BuildingBlock: ZUJKAS_clean_linker_0, # of connection points: 2
#     Edge 86, Type (0, 0), BuildingBlock: ZUJKAS_clean_linker_0, # of connection points: 2
#     Edge 87, Type (0, 0), BuildingBlock: ZUJKAS_clean_linker_0, # of connection points: 2
#     Edge 88, Type (0, 0), BuildingBlock: ZUJKAS_clean_linker_0, # of connection points: 2
#     Edge 89, Type (0, 0), BuildingBlock: ZUJKAS_clean_linker_0, # of connection points: 2
#     Edge 90, Type (0, 0), BuildingBlock: ZUJKAS_clean_linker_0, # of connection points: 2
#     Edge 91, Type (0, 0), BuildingBlock: ZUJKAS_clean_linker_0, # of connection points: 2
#     Edge 92, Type (0, 0), BuildingBlock: ZUJKAS_clean_linker_0, # of connection points: 2
#     Edge 93, Type (0, 0), BuildingBlock: ZUJKAS_clean_linker_0, # of connection points: 2
#     Edge 94, Type (0, 0), BuildingBlock: ZUJKAS_clean_linker_0, # of connection points: 2
#     Edge 95, Type (0, 0), BuildingBlock: ZUJKAS_clean_linker_0, # of connection points: 2
#     Edge 96, Type (0, 0), BuildingBlock: ZUJKAS_clean_linker_0, # of connection points: 2
#     Edge 97, Type (0, 0), BuildingBlock: ZUJKAS_clean_linker_0, # of connection points: 2
#     Edge 98, Type (0, 0), BuildingBlock: ZUJKAS_clean_linker_0, # of connection points: 2
#     Edge 99, Type (0, 0), BuildingBlock: ZUJKAS_clean_linker_0, # of connection points: 2
#     Edge 100, Type (0, 0), BuildingBlock: ZUJKAS_clean_linker_0, # of connection points: 2
#     Edge 101, Type (0, 0), BuildingBlock: ZUJKAS_clean_linker_0, # of connection points: 2
#     Edge 102, Type (0, 0), BuildingBlock: ZUJKAS_clean_linker_0, # of connection points: 2
#     Edge 103, Type (0, 0), BuildingBlock: ZUJKAS_clean_linker_0, # of connection points: 2
#     Edge 104, Type (0, 0), BuildingBlock: ZUJKAS_clean_linker_0, # of connection points: 2
#     Edge 105, Type (0, 0), BuildingBlock: ZUJKAS_clean_linker_0, # of connection points: 2
#     Edge 106, Type (0, 0), BuildingBlock: ZUJKAS_clean_linker_0, # of connection points: 2
#     Edge 107, Type (0, 0), BuildingBlock: ZUJKAS_clean_linker_0, # of connection points: 2
#     Edge 108, Type (0, 0), BuildingBlock: ZUJKAS_clean_linker_0, # of connection points: 2
#     Edge 109, Type (0, 0), BuildingBlock: ZUJKAS_clean_linker_0, # of connection points: 2
#     Edge 110, Type (0, 0), BuildingBlock: ZUJKAS_clean_linker_0, # of connection points: 2
#     Edge 111, Type (0, 0), BuildingBlock: ZUJKAS_clean_linker_0, # of connection points: 2
#     Edge 112, Type (0, 0), BuildingBlock: ZUJKAS_clean_linker_0, # of connection points: 2
#     Edge 113, Type (0, 0), BuildingBlock: ZUJKAS_clean_linker_0, # of connection points: 2
#     Edge 114, Type (0, 0), BuildingBlock: ZUJKAS_clean_linker_0, # of connection points: 2
#     Edge 115, Type (0, 0), BuildingBlock: ZUJKAS_clean_linker_0, # of connection points: 2
#     Edge 116, Type (0, 0), BuildingBlock: ZUJKAS_clean_linker_0, # of connection points: 2
#     Edge 117, Type (0, 0), BuildingBlock: ZUJKAS_clean_linker_0, # of connection points: 2
#     Edge 118, Type (0, 0), BuildingBlock: ZUJKAS_clean_linker_0, # of connection points: 2
#     Edge 119, Type (0, 0), BuildingBlock: ZUJKAS_clean_linker_0, # of connection points: 2
# Relax obj value: 0.000
# Max RMSD: 0.009
# Mean RMSD: 0.006
data_MOF--net-pbp--node1-WUSLED_clean_sbu_0--edge1-ZUJKAS_clean_linker_0
_symmetry_space_group_name_H-M    P1
_symmetry_Int_Tables_number       1
_symmetry_cell_setting            triclinic
loop_
_symmetry_equiv_pos_as_xyz
'x, y, z'
_cell_length_a     148.58271
_cell_length_b     148.69514
_cell_length_c     148.57633
_cell_angle_alpha  89.876016
_cell_angle_beta   89.985938
_cell_angle_gamma 90.653908
loop_
_atom_site_label
_atom_site_type_symbol
_atom_site_fract_x
_atom_site_fract_y
_atom_site_fract_z
_atom_type_partial_charge
C0 C 0.1168 0.30617 0.34336 0.0
C1 C 0.12589 0.30874 0.34413 0.0
C2 C 0.12894 0.29531 0.35304 0.0
C3 C 0.1319 0.30337 0.34895 0.0
C4 C 0.11983 0.29276 0.35217 0.0
C5 C 0.11383 0.29815 0.34739 0.0
U6 U 0.11139 0.32463 0.32629 0.0
O7 O 0.10069 0.3252 0.31606 0.0
O8 O 0.10126 0.33529 0.3268 0.0
C9 C 0.09672 0.33204 0.31992 0.0
C10 C 0.11034 0.31176 0.3384 0.0
C11 C 0.08693 0.33111 0.32121 0.0
C12 C 0.07393 0.32505 0.32923 0.0
C13 C 0.08328 0.32575 0.32812 0.0
C14 C 0.07181 0.33502 0.31651 0.0
C15 C 0.06807 0.32968 0.32342 0.0
C16 C 0.08114 0.33573 0.31543 0.0
C17 C 0.13093 0.33672 0.31408 0.0
C18 C 0.12982 0.34559 0.30035 0.0
C19 C 0.14343 0.34627 0.30931 0.0
C20 C 0.13963 0.34018 0.31544 0.0
C21 C 0.1386 0.34902 0.30166 0.0
C22 C 0.12601 0.33951 0.30653 0.0
C23 C 0.12726 0.33008 0.32052 0.0
O24 O 0.11038 0.32036 0.34044 0.0
O25 O 0.10986 0.31027 0.3297 0.0
O26 O 0.12282 0.32323 0.31703 0.0
O27 O 0.12337 0.33338 0.32772 0.0
H28 H 0.12833 0.31489 0.341 0.0
H29 H 0.13889 0.30548 0.3494 0.0
H30 H 0.1173 0.28666 0.35532 0.0
H31 H 0.10684 0.29606 0.34687 0.0
H32 H 0.07128 0.3208 0.33456 0.0
H33 H 0.08767 0.32211 0.33263 0.0
H34 H 0.06752 0.33878 0.31201 0.0
H35 H 0.08383 0.33992 0.31007 0.0
H36 H 0.12589 0.34764 0.29458 0.0
H37 H 0.15023 0.34869 0.31047 0.0
H38 H 0.14354 0.33809 0.32122 0.0
H39 H 0.11925 0.33696 0.30538 0.0
C40 C 0.69319 0.11552 0.30819 0.0
C41 C 0.69373 0.12482 0.30972 0.0
C42 C 0.68291 0.12746 0.29765 0.0
C43 C 0.68863 0.13074 0.30449 0.0
C44 C 0.68248 0.11812 0.29615 0.0
C45 C 0.68756 0.11222 0.30137 0.0
U46 U 0.71121 0.11012 0.32582 0.0
O47 O 0.71123 0.0998 0.33644 0.0
O48 O 0.72141 0.09948 0.32574 0.0
C49 C 0.7178 0.09529 0.33268 0.0
C50 C 0.69845 0.10915 0.3136 0.0
C51 C 0.71645 0.08547 0.33167 0.0
C52 C 0.70686 0.07207 0.33143 0.0
C53 C 0.70785 0.08143 0.33205 0.0
C54 C 0.723 0.07066 0.32986 0.0
C55 C 0.71443 0.06657 0.33035 0.0
C56 C 0.72399 0.07999 0.33055 0.0
C57 C 0.72431 0.12944 0.33724 0.0
C58 C 0.73302 0.12843 0.35107 0.0
C59 C 0.73479 0.14141 0.34133 0.0
C60 C 0.72844 0.13776 0.33539 0.0
C61 C 0.73713 0.13682 0.34927 0.0
C62 C 0.72669 0.12475 0.34509 0.0
C63 C 0.71746 0.1259 0.33095 0.0
O64 O 0.70707 0.10879 0.31166 0.0
O65 O 0.69685 0.10917 0.3223 0.0
O66 O 0.71038 0.12197 0.3346 0.0
O67 O 0.72057 0.12158 0.32392 0.0
H68 H 0.69806 0.12749 0.31496 0.0
H69 H 0.68906 0.13788 0.3059 0.0
H70 H 0.67828 0.11535 0.29085 0.0
H71 H 0.6871 0.10506 0.30007 0.0
H72 H 0.70016 0.06913 0.33174 0.0
H73 H 0.7019 0.08548 0.33287 0.0
H74 H 0.72898 0.06662 0.32915 0.0
H75 H 0.73069 0.08295 0.33028 0.0
H76 H 0.73474 0.12468 0.35707 0.0
H77 H 0.73774 0.14793 0.33979 0.0
H78 H 0.72668 0.14148 0.32938 0.0
H79 H 0.72362 0.11828 0.34661 0.0
C80 C 0.92154 0.72908 0.34475 0.0
C81 C 0.91288 0.73065 0.34138 0.0
C82 C 0.90955 0.74022 0.35425 0.0
C83 C 0.90694 0.7362 0.34607 0.0
C84 C 0.9182 0.7385 0.35766 0.0
C85 C 0.92414 0.73299 0.35294 0.0
U86 U 0.9269 0.71097 0.32737 0.0
O87 O 0.9377 0.71047 0.31726 0.0
O88 O 0.93688 0.70014 0.3278 0.0
C89 C 0.94154 0.70349 0.32104 0.0
C90 C 0.92798 0.72347 0.3398 0.0
C91 C 0.95132 0.70431 0.32249 0.0
C92 C 0.96433 0.71169 0.32927 0.0
C93 C 0.95499 0.71097 0.32812 0.0
C94 C 0.9664 0.69906 0.31923 0.0
C95 C 0.97016 0.70574 0.32483 0.0
C96 C 0.95707 0.69837 0.31808 0.0
C97 C 0.90735 0.69958 0.31462 0.0
C98 C 0.90902 0.69004 0.30145 0.0
C99 C 0.89447 0.69133 0.30867 0.0
C100 C 0.89821 0.69721 0.31501 0.0
C101 C 0.89981 0.6877 0.30178 0.0
C102 C 0.91276 0.69592 0.30784 0.0
C103 C 0.91102 0.70597 0.32126 0.0
O104 O 0.92767 0.71483 0.34166 0.0
O105 O 0.92872 0.72516 0.33114 0.0
O106 O 0.91563 0.71282 0.31798 0.0
O107 O 0.91476 0.70239 0.32842 0.0
H108 H 0.91072 0.72763 0.3351 0.0
H109 H 0.90029 0.73729 0.34332 0.0
H110 H 0.92045 0.74155 0.36388 0.0
H111 H 0.9308 0.73185 0.35565 0.0
H112 H 0.96699 0.71685 0.3337 0.0
H113 H 0.95063 0.71561 0.3316 0.0
H114 H 0.97066 0.69446 0.3156 0.0
H115 H 0.95436 0.6932 0.31368 0.0
H116 H 0.91334 0.6873 0.2963 0.0
H117 H 0.88734 0.68978 0.30906 0.0
H118 H 0.89392 0.69998 0.32019 0.0
H119 H 0.91986 0.69764 0.30746 0.0
C120 C 0.30882 0.9212 0.34352 0.0
C121 C 0.31042 0.91192 0.3433 0.0
C122 C 0.29726 0.90913 0.35277 0.0
C123 C 0.30471 0.90593 0.34791 0.0
C124 C 0.2957 0.91844 0.35293 0.0
C125 C 0.30143 0.92441 0.34835 0.0
U126 U 0.32755 0.9267 0.3266 0.0
O127 O 0.32863 0.93769 0.31673 0.0
O128 O 0.33863 0.93664 0.32753 0.0
C129 C 0.33552 0.94149 0.32083 0.0
C130 C 0.31474 0.92763 0.33875 0.0
C131 C 0.33481 0.95122 0.32254 0.0
C132 C 0.32609 0.96436 0.32662 0.0
C133 C 0.32669 0.95505 0.32539 0.0
C134 C 0.34177 0.9661 0.32241 0.0
C135 C 0.33362 0.97001 0.32509 0.0
C136 C 0.34234 0.9568 0.32113 0.0
C137 C 0.33861 0.90734 0.31365 0.0
C138 C 0.34938 0.90939 0.30146 0.0
C139 C 0.34553 0.89438 0.30667 0.0
C140 C 0.33969 0.89802 0.31304 0.0
C141 C 0.35041 0.90001 0.30075 0.0
C142 C 0.34352 0.91303 0.30786 0.0
C143 C 0.33222 0.91093 0.32026 0.0
O144 O 0.32334 0.92723 0.34078 0.0
O145 O 0.31327 0.92845 0.33007 0.0
O146 O 0.32559 0.91568 0.31693 0.0
O147 O 0.33578 0.91451 0.32754 0.0
H148 H 0.31608 0.90932 0.33955 0.0
H149 H 0.30604 0.8988 0.34756 0.0
H150 H 0.29011 0.92114 0.35669 0.0
H151 H 0.3001 0.93156 0.3486 0.0
H152 H 0.31975 0.96714 0.32879 0.0
H153 H 0.3208 0.95085 0.32659 0.0
H154 H 0.34766 0.97025 0.32107 0.0
H155 H 0.34866 0.95398 0.31893 0.0
H156 H 0.35297 0.91392 0.29697 0.0
H157 H 0.34627 0.88715 0.30643 0.0
H158 H 0.33598 0.89354 0.31748 0.0
H159 H 0.34276 0.92026 0.30824 0.0
C160 C 0.11567 0.69174 0.72923 0.0
C161 C 0.12431 0.69515 0.73113 0.0
C162 C 0.12766 0.68179 0.74003 0.0
C163 C 0.13024 0.69024 0.73651 0.0
C164 C 0.11902 0.67839 0.73802 0.0
C165 C 0.11309 0.68332 0.73268 0.0
U166 U 0.11041 0.70958 0.71146 0.0
O167 O 0.10041 0.7094 0.70053 0.0
O168 O 0.0997 0.71967 0.71108 0.0
C169 C 0.09581 0.71607 0.70398 0.0
C170 C 0.10926 0.69684 0.7237 0.0
C171 C 0.08602 0.71462 0.70468 0.0
C172 C 0.07298 0.70663 0.71074 0.0
C173 C 0.08234 0.70778 0.71011 0.0
C174 C 0.07093 0.71915 0.70051 0.0
C175 C 0.06715 0.71234 0.70597 0.0
C176 C 0.08026 0.72027 0.69988 0.0
C177 C 0.13009 0.72265 0.70051 0.0
C178 C 0.12921 0.73173 0.6869 0.0
C179 C 0.14261 0.73237 0.69616 0.0
C180 C 0.13872 0.72617 0.70212 0.0
C181 C 0.13795 0.73518 0.68842 0.0
C182 C 0.12531 0.72553 0.6929 0.0
C183 C 0.12633 0.71587 0.70675 0.0
O184 O 0.10863 0.70545 0.72557 0.0
O185 O 0.1095 0.6952 0.71501 0.0
O186 O 0.12254 0.70877 0.70303 0.0
O187 O 0.12175 0.71902 0.7136 0.0
H188 H 0.12647 0.70161 0.72846 0.0
H189 H 0.13688 0.693 0.73784 0.0
H190 H 0.11678 0.67196 0.7407 0.0
H191 H 0.10645 0.68058 0.73129 0.0
H192 H 0.07031 0.70138 0.71507 0.0
H193 H 0.0867 0.70337 0.7139 0.0
H194 H 0.06666 0.72357 0.69663 0.0
H195 H 0.08299 0.72557 0.69563 0.0
H196 H 0.12545 0.73368 0.68098 0.0
H197 H 0.14927 0.735 0.69766 0.0
H198 H 0.14249 0.72407 0.70799 0.0
H199 H 0.11861 0.7229 0.69154 0.0
C200 C 0.30903 0.11574 0.69236 0.0
C201 C 0.30746 0.12438 0.69576 0.0
C202 C 0.29775 0.12773 0.68296 0.0
C203 C 0.30185 0.13031 0.69112 0.0
C204 C 0.29948 0.11909 0.67954 0.0
C205 C 0.30506 0.11316 0.6842 0.0
U206 U 0.32724 0.11039 0.7097 0.0
O207 O 0.32794 0.09942 0.71963 0.0
O208 O 0.33825 0.1006 0.7091 0.0
C209 C 0.33497 0.09576 0.71578 0.0
C210 C 0.31474 0.10932 0.69724 0.0
C211 C 0.33432 0.08601 0.71417 0.0
C212 C 0.32665 0.0729 0.70793 0.0
C213 C 0.32719 0.08222 0.70921 0.0
C214 C 0.3404 0.07108 0.71647 0.0
C215 C 0.33325 0.0672 0.71156 0.0
C216 C 0.34091 0.08039 0.71776 0.0
C217 C 0.33838 0.12991 0.72271 0.0
C218 C 0.34771 0.12834 0.73606 0.0
C219 C 0.34667 0.14279 0.72859 0.0
C220 C 0.34085 0.13902 0.72221 0.0
C221 C 0.35015 0.13752 0.73563 0.0
C222 C 0.34189 0.12456 0.72964 0.0
C223 C 0.33202 0.12623 0.71603 0.0
O224 O 0.32338 0.10979 0.69539 0.0
O225 O 0.31306 0.10843 0.70589 0.0
O226 O 0.32524 0.12145 0.71926 0.0
O227 O 0.33564 0.12266 0.70882 0.0
H228 H 0.31049 0.1265 0.70205 0.0
H229 H 0.3006 0.13685 0.69401 0.0
H230 H 0.29659 0.11692 0.6732 0.0
H231 H 0.30625 0.10654 0.68144 0.0
H232 H 0.32111 0.07015 0.70403 0.0
H233 H 0.32205 0.08648 0.70635 0.0
H234 H 0.34552 0.06691 0.71948 0.0
H235 H 0.34645 0.08319 0.72163 0.0
H236 H 0.35033 0.12408 0.74134 0.0
H237 H 0.3483 0.14989 0.72811 0.0
H238 H 0.33819 0.14325 0.71692 0.0
H239 H 0.34009 0.1175 0.73011 0.0
C240 C 0.92223 0.34598 0.72851 0.0
C241 C 0.9134 0.34281 0.72985 0.0
C242 C 0.91017 0.35572 0.7394 0.0
C243 C 0.90743 0.34762 0.73526 0.0
C244 C 0.91901 0.35891 0.7379 0.0
C245 C 0.92497 0.35407 0.73252 0.0
U246 U 0.92764 0.32839 0.71062 0.0
O247 O 0.93795 0.32853 0.69999 0.0
O248 O 0.93815 0.31807 0.71042 0.0
C249 C 0.9423 0.32171 0.70348 0.0
C250 C 0.9287 0.34089 0.72305 0.0
C251 C 0.9521 0.32292 0.70444 0.0
C252 C 0.96517 0.33118 0.71003 0.0
C253 C 0.95581 0.33018 0.70925 0.0
C254 C 0.96718 0.31763 0.70127 0.0
C255 C 0.97098 0.32489 0.70606 0.0
C256 C 0.95785 0.31666 0.70047 0.0
C257 C 0.90807 0.3159 0.69895 0.0
C258 C 0.90959 0.30252 0.68969 0.0
C259 C 0.89532 0.3102 0.69038 0.0
C260 C 0.89906 0.31653 0.69627 0.0
C261 C 0.90051 0.30309 0.68704 0.0
C262 C 0.91335 0.30889 0.69558 0.0
C263 C 0.91174 0.32253 0.70536 0.0
O264 O 0.92914 0.33223 0.72482 0.0
O265 O 0.92871 0.34269 0.71439 0.0
O266 O 0.9158 0.32958 0.70179 0.0
O267 O 0.91604 0.31923 0.71233 0.0
H268 H 0.91115 0.33657 0.72678 0.0
H269 H 0.90072 0.3449 0.73634 0.0
H270 H 0.92131 0.36518 0.74083 0.0
H271 H 0.93175 0.35665 0.73151 0.0
H272 H 0.96786 0.33679 0.71385 0.0
H273 H 0.95147 0.33507 0.7124 0.0
H274 H 0.97143 0.31274 0.69801 0.0
H275 H 0.9551 0.31103 0.69672 0.0
H276 H 0.9138 0.29719 0.68718 0.0
H277 H 0.88828 0.31078 0.68859 0.0
H278 H 0.89489 0.32188 0.69882 0.0
H279 H 0.92034 0.30832 0.69754 0.0
C280 C 0.69353 0.92053 0.7285 0.0
C281 C 0.69689 0.91186 0.72999 0.0
C282 C 0.68384 0.90809 0.73929 0.0
C283 C 0.69211 0.90571 0.73536 0.0
C284 C 0.68045 0.91674 0.73764 0.0
C285 C 0.68526 0.9229 0.73231 0.0
U286 U 0.71148 0.92644 0.711 0.0
O287 O 0.71149 0.93656 0.70017 0.0
O288 O 0.72163 0.93736 0.7109 0.0
C289 C 0.71811 0.94126 0.7038 0.0
C290 C 0.6986 0.92717 0.72308 0.0
C291 C 0.71675 0.95103 0.70453 0.0
C292 C 0.70739 0.96397 0.70773 0.0
C293 C 0.7085 0.95463 0.70729 0.0
C294 C 0.7228 0.9662 0.70281 0.0
C295 C 0.71452 0.96988 0.70544 0.0
C296 C 0.72388 0.95688 0.70235 0.0
C297 C 0.72465 0.90703 0.70019 0.0
C298 C 0.73331 0.90751 0.68629 0.0
C299 C 0.73483 0.8949 0.6965 0.0
C300 C 0.72862 0.8988 0.70234 0.0
C301 C 0.73719 0.89915 0.68834 0.0
C302 C 0.72711 0.91142 0.69217 0.0
C303 C 0.71781 0.9107 0.70631 0.0
O304 O 0.70718 0.92804 0.72506 0.0
O305 O 0.69705 0.92697 0.71437 0.0
O306 O 0.71077 0.91439 0.70249 0.0
O307 O 0.72088 0.91529 0.71323 0.0
H308 H 0.70323 0.90988 0.72704 0.0
H309 H 0.69485 0.89907 0.7364 0.0
H310 H 0.67416 0.91882 0.74063 0.0
H311 H 0.68256 0.92955 0.73122 0.0
H312 H 0.7009 0.96656 0.70971 0.0
H313 H 0.70291 0.95022 0.70904 0.0
H314 H 0.72849 0.97051 0.70117 0.0
H315 H 0.73032 0.95424 0.70026 0.0
H316 H 0.73491 0.91094 0.68004 0.0
H317 H 0.7378 0.88856 0.6984 0.0
H318 H 0.72685 0.89533 0.70852 0.0
H319 H 0.72413 0.9178 0.69039 0.0
C320 C 0.30902 0.11612 0.34548 0.0
C321 C 0.31095 0.12539 0.34533 0.0
C322 C 0.298 0.1282 0.355 0.0
C323 C 0.3055 0.13138 0.35008 0.0
C324 C 0.29615 0.1189 0.35512 0.0
C325 C 0.30161 0.11293 0.35041 0.0
U326 U 0.3267 0.11054 0.3276 0.0
O327 O 0.33738 0.10041 0.32771 0.0
O328 O 0.32664 0.09964 0.31759 0.0
C329 C 0.33361 0.09566 0.32123 0.0
C330 C 0.31454 0.1097 0.34044 0.0
C331 C 0.33268 0.08583 0.32268 0.0
C332 C 0.334 0.07243 0.33205 0.0
C333 C 0.33451 0.08179 0.33105 0.0
C334 C 0.32966 0.07099 0.31641 0.0
C335 C 0.33159 0.06691 0.32473 0.0
C336 C 0.33024 0.08033 0.3154 0.0
C337 C 0.3376 0.12978 0.31381 0.0
C338 C 0.35204 0.13037 0.30603 0.0
C339 C 0.34012 0.14043 0.3016 0.0
C340 C 0.33452 0.1367 0.30822 0.0
C341 C 0.34896 0.13735 0.30044 0.0
C342 C 0.3464 0.12659 0.31263 0.0
C343 C 0.33155 0.12621 0.32089 0.0
O344 O 0.31258 0.10891 0.33185 0.0
O345 O 0.32325 0.11003 0.342 0.0
O346 O 0.33538 0.12261 0.328 0.0
O347 O 0.32449 0.12165 0.31805 0.0
H348 H 0.31662 0.12798 0.34151 0.0
H349 H 0.30706 0.1385 0.34977 0.0
H350 H 0.29051 0.11621 0.35893 0.0
H351 H 0.30003 0.1058 0.35061 0.0
H352 H 0.33544 0.0695 0.33856 0.0
H353 H 0.33641 0.08584 0.33681 0.0
H354 H 0.32792 0.06694 0.3106 0.0
H355 H 0.32887 0.08325 0.30886 0.0
H356 H 0.35878 0.1278 0.30526 0.0
H357 H 0.33757 0.14587 0.2975 0.0
H358 H 0.32778 0.13929 0.30903 0.0
H359 H 0.34893 0.12122 0.31683 0.0
C360 C 0.92295 0.34459 0.30768 0.0
C361 C 0.91363 0.34419 0.30922 0.0
C362 C 0.91105 0.35403 0.29633 0.0
C363 C 0.90773 0.34889 0.30361 0.0
C364 C 0.92041 0.35439 0.29485 0.0
C365 C 0.92629 0.34972 0.30047 0.0
U366 U 0.92807 0.32707 0.32584 0.0
O367 O 0.9389 0.31714 0.32648 0.0
O368 O 0.93793 0.32751 0.3369 0.0
C369 C 0.94266 0.32088 0.33357 0.0
C370 C 0.92928 0.33967 0.31345 0.0
C371 C 0.95244 0.32249 0.33294 0.0
C372 C 0.96549 0.32928 0.32562 0.0
C373 C 0.95614 0.32807 0.32624 0.0
C374 C 0.96749 0.31943 0.33846 0.0
C375 C 0.97129 0.32495 0.33171 0.0
C376 C 0.95816 0.31822 0.33906 0.0
C377 C 0.90843 0.31356 0.33642 0.0
C378 C 0.90801 0.30566 0.3508 0.0
C379 C 0.89716 0.3019 0.33919 0.0
C380 C 0.90105 0.30838 0.33353 0.0
C381 C 0.90056 0.30048 0.34791 0.0
C382 C 0.91194 0.31212 0.34509 0.0
C383 C 0.9122 0.32047 0.33031 0.0
O384 O 0.9288 0.34139 0.32211 0.0
O385 O 0.93004 0.33105 0.31169 0.0
O386 O 0.91693 0.31745 0.3235 0.0
O387 O 0.91578 0.32767 0.33408 0.0
H388 H 0.91093 0.34022 0.31474 0.0
H389 H 0.90057 0.34839 0.30489 0.0
H390 H 0.9232 0.35837 0.28939 0.0
H391 H 0.93346 0.35011 0.29919 0.0
H392 H 0.96818 0.33365 0.32041 0.0
H393 H 0.95181 0.33144 0.32147 0.0
H394 H 0.97173 0.31589 0.34318 0.0
H395 H 0.95542 0.31386 0.34425 0.0
H396 H 0.91084 0.30466 0.35744 0.0
H397 H 0.89137 0.29813 0.3368 0.0
H398 H 0.89823 0.3094 0.32689 0.0
H399 H 0.91768 0.316 0.34746 0.0
C400 C 0.69375 0.9206 0.30807 0.0
C401 C 0.69716 0.912 0.30638 0.0
C402 C 0.68422 0.90846 0.29685 0.0
C403 C 0.69245 0.906 0.30081 0.0
C404 C 0.68079 0.91705 0.2987 0.0
C405 C 0.68552 0.92305 0.30424 0.0
U406 U 0.71112 0.92624 0.32627 0.0
O407 O 0.72113 0.9372 0.32698 0.0
O408 O 0.71052 0.9362 0.33722 0.0
C409 C 0.7172 0.94103 0.33389 0.0
C410 C 0.69867 0.9271 0.31376 0.0
C411 C 0.71563 0.95078 0.3331 0.0
C412 C 0.71251 0.96414 0.32418 0.0
C413 C 0.71354 0.9548 0.32481 0.0
C414 C 0.71536 0.96552 0.34017 0.0
C415 C 0.71346 0.96961 0.33185 0.0
C416 C 0.71645 0.9562 0.34077 0.0
C417 C 0.72398 0.90676 0.33737 0.0
C418 C 0.73712 0.90839 0.34703 0.0
C419 C 0.73001 0.89377 0.34515 0.0
C420 C 0.72365 0.89756 0.3394 0.0
C421 C 0.73689 0.89911 0.34898 0.0
C422 C 0.73072 0.91218 0.34127 0.0
C423 C 0.71733 0.91045 0.33106 0.0
O424 O 0.69682 0.92673 0.3224 0.0
O425 O 0.70732 0.928 0.31208 0.0
O426 O 0.7206 0.91518 0.3243 0.0
O427 O 0.71018 0.91406 0.33472 0.0
H428 H 0.7035 0.90997 0.30931 0.0
H429 H 0.69535 0.89949 0.29947 0.0
H430 H 0.6744 0.91913 0.29592 0.0
H431 H 0.68274 0.92964 0.30552 0.0
H432 H 0.71094 0.96707 0.31769 0.0
H433 H 0.7128 0.95074 0.3188 0.0
H434 H 0.71623 0.96954 0.34618 0.0
H435 H 0.71806 0.95323 0.34724 0.0
H436 H 0.74235 0.91269 0.3498 0.0
H437 H 0.72951 0.88665 0.34663 0.0
H438 H 0.71846 0.89328 0.33649 0.0
H439 H 0.73107 0.91932 0.33978 0.0
C440 C 0.11543 0.69328 0.3071 0.0
C441 C 0.12474 0.69386 0.30862 0.0
C442 C 0.12743 0.68318 0.29648 0.0
C443 C 0.13069 0.68886 0.30336 0.0
C444 C 0.11808 0.6827 0.29497 0.0
C445 C 0.11215 0.68769 0.30024 0.0
U446 U 0.11026 0.71064 0.3253 0.0
O447 O 0.09979 0.721 0.3257 0.0
O448 O 0.09997 0.71036 0.33595 0.0
C449 C 0.09564 0.71725 0.33258 0.0
C450 C 0.10906 0.69841 0.3126 0.0
C451 C 0.08584 0.71604 0.33162 0.0
C452 C 0.07279 0.7082 0.32542 0.0
C453 C 0.08215 0.70924 0.32616 0.0
C454 C 0.07074 0.72075 0.33554 0.0
C455 C 0.06697 0.71396 0.33009 0.0
C456 C 0.08007 0.72177 0.33629 0.0
C457 C 0.12988 0.72269 0.33732 0.0
C458 C 0.12881 0.73639 0.34618 0.0
C459 C 0.14231 0.72744 0.34688 0.0
C460 C 0.13853 0.72133 0.34078 0.0
C461 C 0.13753 0.73507 0.34962 0.0
C462 C 0.125 0.73023 0.34011 0.0
C463 C 0.12618 0.71625 0.33073 0.0
O464 O 0.10898 0.69646 0.32124 0.0
O465 O 0.10885 0.7071 0.31099 0.0
O466 O 0.12193 0.71973 0.32381 0.0
O467 O 0.12208 0.70913 0.33411 0.0
H468 H 0.1274 0.69814 0.31391 0.0
H469 H 0.13783 0.68932 0.30477 0.0
H470 H 0.11533 0.67853 0.28966 0.0
H471 H 0.10499 0.6872 0.29895 0.0
H472 H 0.07013 0.70296 0.32109 0.0
H473 H 0.08652 0.70476 0.32248 0.0
H474 H 0.06647 0.72522 0.33934 0.0
H475 H 0.0828 0.72704 0.34056 0.0
H476 H 0.1249 0.74214 0.34824 0.0
H477 H 0.14908 0.72628 0.3493 0.0
H478 H 0.1424 0.71557 0.3387 0.0
H479 H 0.11828 0.73138 0.33756 0.0
C480 C 0.31004 0.92098 0.69269 0.0
C481 C 0.30841 0.91236 0.69624 0.0
C482 C 0.29905 0.90855 0.68327 0.0
C483 C 0.30293 0.90621 0.69158 0.0
C484 C 0.30082 0.91717 0.67971 0.0
C485 C 0.30625 0.92332 0.68439 0.0
U486 U 0.32781 0.92702 0.71037 0.0
O487 O 0.33883 0.93704 0.70985 0.0
O488 O 0.32827 0.93814 0.72009 0.0
C489 C 0.33539 0.9419 0.71635 0.0
C490 C 0.31563 0.92761 0.69757 0.0
C491 C 0.33478 0.95162 0.71457 0.0
C492 C 0.32717 0.96449 0.70806 0.0
C493 C 0.32775 0.95518 0.7094 0.0
C494 C 0.34068 0.96673 0.71693 0.0
C495 C 0.33362 0.97039 0.71184 0.0
C496 C 0.34124 0.95745 0.71828 0.0
C497 C 0.33849 0.90794 0.72415 0.0
C498 C 0.35226 0.909 0.73296 0.0
C499 C 0.34238 0.89604 0.73464 0.0
C500 C 0.33653 0.89965 0.72826 0.0
C501 C 0.35036 0.90063 0.73704 0.0
C502 C 0.34636 0.91264 0.7266 0.0
C503 C 0.33232 0.9114 0.71723 0.0
O504 O 0.31373 0.92862 0.70615 0.0
O505 O 0.32432 0.92729 0.69596 0.0
O506 O 0.33611 0.91488 0.71 0.0
O507 O 0.3255 0.9161 0.72019 0.0
H508 H 0.31134 0.91039 0.70261 0.0
H509 H 0.3018 0.89959 0.69446 0.0
H510 H 0.29786 0.91923 0.67338 0.0
H511 H 0.30744 0.92995 0.68155 0.0
H512 H 0.3217 0.96707 0.70403 0.0
H513 H 0.32271 0.95077 0.70646 0.0
H514 H 0.34569 0.97106 0.72005 0.0
H515 H 0.3467 0.95482 0.72231 0.0
H516 H 0.35829 0.91276 0.73473 0.0
H517 H 0.34076 0.88953 0.73755 0.0
H518 H 0.33049 0.89592 0.72645 0.0
H519 H 0.34798 0.91908 0.72354 0.0
C520 C 0.11642 0.30706 0.69367 0.0
C521 C 0.12566 0.30913 0.69358 0.0
C522 C 0.12852 0.29605 0.68416 0.0
C523 C 0.13166 0.30369 0.68884 0.0
C524 C 0.11925 0.29398 0.68435 0.0
C525 C 0.11327 0.29945 0.68906 0.0
U526 U 0.11101 0.32524 0.71097 0.0
O527 O 0.10133 0.33633 0.71026 0.0
O528 O 0.09991 0.32598 0.72073 0.0
C529 C 0.09636 0.33306 0.71685 0.0
C530 C 0.10998 0.31277 0.69849 0.0
C531 C 0.08662 0.33249 0.71509 0.0
C532 C 0.07354 0.32492 0.70865 0.0
C533 C 0.08286 0.32544 0.71001 0.0
C534 C 0.07167 0.33856 0.71731 0.0
C535 C 0.06782 0.33147 0.71231 0.0
C536 C 0.08097 0.33905 0.71869 0.0
C537 C 0.13043 0.33602 0.72445 0.0
C538 C 0.12982 0.34995 0.73298 0.0
C539 C 0.14228 0.33981 0.7351 0.0
C540 C 0.13854 0.33394 0.72875 0.0
C541 C 0.138 0.34791 0.73727 0.0
C542 C 0.12605 0.34404 0.72665 0.0
C543 C 0.12679 0.32976 0.71765 0.0
O544 O 0.10904 0.31105 0.70712 0.0
O545 O 0.1105 0.32142 0.69669 0.0
O546 O 0.1234 0.33343 0.71035 0.0
O547 O 0.12189 0.32304 0.72077 0.0
H548 H 0.12823 0.31496 0.69716 0.0
H549 H 0.13876 0.30541 0.68891 0.0
H550 H 0.11658 0.28822 0.68074 0.0
H551 H 0.10616 0.29775 0.68905 0.0
H552 H 0.07082 0.31944 0.70467 0.0
H553 H 0.08714 0.32033 0.70715 0.0
H554 H 0.06748 0.34364 0.72034 0.0
H555 H 0.08376 0.34453 0.72265 0.0
H556 H 0.1263 0.35609 0.73456 0.0
H557 H 0.14864 0.33807 0.73819 0.0
H558 H 0.14203 0.32778 0.72714 0.0
H559 H 0.11974 0.34574 0.72344 0.0
C560 C 0.6932 0.11558 0.73 0.0
C561 C 0.69323 0.12482 0.72806 0.0
C562 C 0.68317 0.12751 0.74075 0.0
C563 C 0.68825 0.13074 0.73338 0.0
C564 C 0.6833 0.11824 0.7427 0.0
C565 C 0.68826 0.11235 0.73737 0.0
U566 U 0.71048 0.11028 0.71168 0.0
O567 O 0.72042 0.09947 0.71094 0.0
O568 O 0.70977 0.10029 0.70074 0.0
C569 C 0.71644 0.09559 0.70403 0.0
C570 C 0.69817 0.1092 0.72435 0.0
C571 C 0.71489 0.08576 0.70466 0.0
C572 C 0.71322 0.07192 0.71332 0.0
C573 C 0.71421 0.0813 0.71298 0.0
C574 C 0.7133 0.07137 0.69704 0.0
C575 C 0.71284 0.06681 0.70535 0.0
C576 C 0.71434 0.08072 0.69671 0.0
C577 C 0.72323 0.12987 0.70017 0.0
C578 C 0.73689 0.12872 0.69122 0.0
C579 C 0.72856 0.14263 0.69134 0.0
C580 C 0.72226 0.13875 0.6972 0.0
C581 C 0.73602 0.13771 0.68833 0.0
C582 C 0.73055 0.12484 0.69709 0.0
C583 C 0.71666 0.12614 0.70664 0.0
O584 O 0.69626 0.10939 0.71571 0.0
O585 O 0.70684 0.10865 0.72597 0.0
O586 O 0.72 0.12156 0.71342 0.0
O587 O 0.70942 0.12237 0.70315 0.0
H588 H 0.69702 0.12744 0.72238 0.0
H589 H 0.68824 0.13781 0.73162 0.0
H590 H 0.67961 0.11553 0.7484 0.0
H591 H 0.6882 0.10524 0.739 0.0
H592 H 0.71297 0.06865 0.71984 0.0
H593 H 0.71459 0.08503 0.71923 0.0
H594 H 0.71285 0.06771 0.69076 0.0
H595 H 0.7148 0.08403 0.69022 0.0
H596 H 0.74257 0.12475 0.68911 0.0
H597 H 0.72756 0.14949 0.68913 0.0
H598 H 0.71663 0.14273 0.69947 0.0
H599 H 0.73141 0.11795 0.69929 0.0
C600 C 0.92229 0.72919 0.69234 0.0
C601 C 0.91296 0.72763 0.69273 0.0
C602 C 0.9104 0.74051 0.68289 0.0
C603 C 0.90707 0.73322 0.68802 0.0
C604 C 0.91976 0.74202 0.68255 0.0
C605 C 0.92564 0.73641 0.68723 0.0
U606 U 0.92726 0.71092 0.70973 0.0
O607 O 0.93689 0.69979 0.70923 0.0
O608 O 0.93814 0.71009 0.71972 0.0
C609 C 0.94174 0.70302 0.71591 0.0
C610 C 0.9286 0.72341 0.69726 0.0
C611 C 0.95151 0.7036 0.71431 0.0
C612 C 0.96457 0.71074 0.70733 0.0
C613 C 0.95524 0.71019 0.7086 0.0
C614 C 0.96652 0.69808 0.7174 0.0
C615 C 0.97034 0.70469 0.71173 0.0
C616 C 0.9572 0.69755 0.71867 0.0
C617 C 0.90743 0.70027 0.7228 0.0
C618 C 0.9083 0.68698 0.73233 0.0
C619 C 0.89473 0.69586 0.73218 0.0
C620 C 0.89868 0.70173 0.72594 0.0
C621 C 0.89946 0.68836 0.73542 0.0
C622 C 0.91226 0.69289 0.72607 0.0
C623 C 0.9113 0.7065 0.71608 0.0
O624 O 0.92942 0.72509 0.7059 0.0
O625 O 0.92803 0.71477 0.69545 0.0
O626 O 0.91483 0.70278 0.7089 0.0
O627 O 0.91619 0.71316 0.71931 0.0
H628 H 0.91025 0.7221 0.69669 0.0
H629 H 0.8999 0.73193 0.68851 0.0
H630 H 0.92257 0.74749 0.67858 0.0
H631 H 0.93282 0.73771 0.68685 0.0
H632 H 0.96727 0.71585 0.70284 0.0
H633 H 0.95093 0.71491 0.70515 0.0
H634 H 0.97075 0.6934 0.721 0.0
H635 H 0.95444 0.69244 0.72312 0.0
H636 H 0.91211 0.68125 0.73462 0.0
H637 H 0.88799 0.69725 0.73453 0.0
H638 H 0.89488 0.70743 0.72353 0.0
H639 H 0.91904 0.69167 0.72374 0.0
C640 C 0.30908 0.34459 0.1158 0.0
C641 C 0.30697 0.3409 0.12426 0.0
C642 C 0.29794 0.35401 0.12789 0.0
C643 C 0.30142 0.34555 0.13023 0.0
C644 C 0.3002 0.35772 0.11945 0.0
C645 C 0.3057 0.35304 0.11347 0.0
U646 U 0.32726 0.32743 0.11024 0.0
O647 O 0.32793 0.31752 0.0993 0.0
O648 O 0.33823 0.32817 0.10028 0.0
C649 C 0.33494 0.32146 0.09552 0.0
C650 C 0.31475 0.33974 0.10932 0.0
C651 C 0.33424 0.32307 0.08576 0.0
C652 C 0.3265 0.32922 0.07274 0.0
C653 C 0.32708 0.32793 0.08207 0.0
C654 C 0.34029 0.32092 0.07073 0.0
C655 C 0.3331 0.32573 0.06695 0.0
C656 C 0.34084 0.31961 0.08004 0.0
C657 C 0.33857 0.31469 0.12973 0.0
C658 C 0.34774 0.3013 0.12835 0.0
C659 C 0.34745 0.3095 0.14241 0.0
C660 C 0.34148 0.31565 0.13865 0.0
C661 C 0.35064 0.30223 0.13733 0.0
C662 C 0.34178 0.3075 0.12457 0.0
C663 C 0.33214 0.32122 0.12606 0.0
O664 O 0.32339 0.34168 0.10961 0.0
O665 O 0.31307 0.33107 0.10851 0.0
O666 O 0.32538 0.31785 0.1214 0.0
O667 O 0.3357 0.32848 0.1224 0.0
H668 H 0.30958 0.33441 0.12623 0.0
H669 H 0.2999 0.34256 0.13672 0.0
H670 H 0.29757 0.36417 0.11739 0.0
H671 H 0.30726 0.356 0.10697 0.0
H672 H 0.32093 0.33303 0.07007 0.0
H673 H 0.32194 0.33068 0.0864 0.0
H674 H 0.34542 0.31802 0.06649 0.0
H675 H 0.34641 0.31583 0.08277 0.0
H676 H 0.35014 0.29584 0.12422 0.0
H677 H 0.34944 0.31036 0.14937 0.0
H678 H 0.33907 0.32115 0.14274 0.0
H679 H 0.33965 0.30667 0.11764 0.0
C680 C 0.30872 0.69265 0.92198 0.0
C681 C 0.30767 0.69566 0.91309 0.0
C682 C 0.29739 0.68313 0.90994 0.0
C683 C 0.30204 0.69096 0.90713 0.0
C684 C 0.29859 0.6801 0.91884 0.0
C685 C 0.30419 0.68482 0.9248 0.0
U686 U 0.32719 0.70996 0.92723 0.0
O687 O 0.32797 0.72018 0.93789 0.0
O688 O 0.33808 0.70956 0.93727 0.0
C689 C 0.33491 0.71641 0.9418 0.0
C690 C 0.31445 0.69761 0.92841 0.0
C691 C 0.33417 0.71515 0.95161 0.0
C692 C 0.32677 0.70876 0.96479 0.0
C693 C 0.32745 0.70963 0.95542 0.0
C694 C 0.33957 0.71884 0.9666 0.0
C695 C 0.33278 0.71342 0.9705 0.0
C696 C 0.34024 0.71969 0.95725 0.0
C697 C 0.33868 0.72247 0.90758 0.0
C698 C 0.34803 0.73594 0.90897 0.0
C699 C 0.34732 0.72797 0.89478 0.0
C700 C 0.34137 0.72168 0.89859 0.0
C701 C 0.35069 0.73521 0.8999 0.0
C702 C 0.3421 0.7296 0.91279 0.0
C703 C 0.33219 0.71588 0.9113 0.0
O704 O 0.32306 0.69571 0.92816 0.0
O705 O 0.31293 0.70628 0.92903 0.0
O706 O 0.32541 0.71923 0.91584 0.0
O707 O 0.33568 0.70876 0.91514 0.0
H708 H 0.31113 0.70169 0.91079 0.0
H709 H 0.30121 0.69356 0.90037 0.0
H710 H 0.29526 0.67403 0.92121 0.0
H711 H 0.30498 0.68237 0.93162 0.0
H712 H 0.32142 0.70459 0.96757 0.0
H713 H 0.3227 0.70607 0.95115 0.0
H714 H 0.3444 0.72239 0.97077 0.0
H715 H 0.34549 0.72395 0.95442 0.0
H716 H 0.35057 0.74137 0.91312 0.0
H717 H 0.34912 0.72726 0.88775 0.0
H718 H 0.33879 0.71623 0.89446 0.0
H719 H 0.34013 0.7303 0.91977 0.0
C720 C 0.30956 0.34515 0.92121 0.0
C721 C 0.3105 0.34383 0.91191 0.0
C722 C 0.29853 0.35456 0.90898 0.0
C723 C 0.30503 0.3485 0.90585 0.0
C724 C 0.29766 0.35585 0.91833 0.0
C725 C 0.30312 0.35119 0.92437 0.0
U726 U 0.32736 0.32762 0.92677 0.0
O727 O 0.33841 0.32812 0.93665 0.0
O728 O 0.32783 0.31777 0.93781 0.0
C729 C 0.33497 0.32154 0.94151 0.0
C730 C 0.31517 0.34025 0.9277 0.0
C731 C 0.33436 0.32322 0.95125 0.0
C732 C 0.32676 0.32953 0.96426 0.0
C733 C 0.32733 0.32826 0.95493 0.0
C734 C 0.3403 0.32084 0.96629 0.0
C735 C 0.33323 0.32581 0.97006 0.0
C736 C 0.34085 0.31956 0.95699 0.0
C737 C 0.33793 0.31413 0.90744 0.0
C738 C 0.35163 0.30536 0.90827 0.0
C739 C 0.34161 0.30363 0.89552 0.0
C740 C 0.33585 0.31001 0.89921 0.0
C741 C 0.3496 0.30125 0.89997 0.0
C742 C 0.34583 0.31172 0.91199 0.0
C743 C 0.33181 0.32099 0.91102 0.0
O744 O 0.31327 0.33164 0.92859 0.0
O745 O 0.32386 0.34195 0.92724 0.0
O746 O 0.33563 0.3282 0.9145 0.0
O747 O 0.32499 0.31792 0.9158 0.0
H748 H 0.31545 0.33919 0.90935 0.0
H749 H 0.30596 0.34741 0.89871 0.0
H750 H 0.29264 0.36035 0.921 0.0
H751 H 0.30229 0.35226 0.93153 0.0
H752 H 0.32128 0.33347 0.96692 0.0
H753 H 0.32227 0.33117 0.95059 0.0
H754 H 0.34532 0.31777 0.97055 0.0
H755 H 0.34631 0.31563 0.95427 0.0
H756 H 0.35768 0.30361 0.91192 0.0
H757 H 0.33989 0.30069 0.88907 0.0
H758 H 0.3298 0.31179 0.89559 0.0
H759 H 0.34753 0.31479 0.91839 0.0
C760 C 0.69333 0.30761 0.92158 0.0
C761 C 0.69334 0.30956 0.91233 0.0
C762 C 0.68373 0.29646 0.90947 0.0
C763 C 0.68855 0.30405 0.90633 0.0
C764 C 0.68376 0.29457 0.91876 0.0
C765 C 0.68851 0.3001 0.92475 0.0
U766 U 0.71091 0.32582 0.92681 0.0
O767 O 0.71076 0.33665 0.93689 0.0
O768 O 0.72119 0.32633 0.93746 0.0
C769 C 0.71754 0.33329 0.94143 0.0
C770 C 0.69839 0.31325 0.928 0.0
C771 C 0.71626 0.33244 0.95123 0.0
C772 C 0.70775 0.32717 0.96425 0.0
C773 C 0.70875 0.32792 0.95489 0.0
C774 C 0.72176 0.33539 0.96634 0.0
C775 C 0.71427 0.33087 0.97009 0.0
C776 C 0.72273 0.33617 0.95702 0.0
C777 C 0.72364 0.33697 0.90703 0.0
C778 C 0.73268 0.35071 0.90769 0.0
C779 C 0.73343 0.34111 0.89457 0.0
C780 C 0.72721 0.33519 0.89851 0.0
C781 C 0.7362 0.34899 0.89906 0.0
C782 C 0.72645 0.34474 0.91165 0.0
C783 C 0.71693 0.33067 0.91087 0.0
O784 O 0.70704 0.31159 0.92857 0.0
O785 O 0.69662 0.3219 0.92778 0.0
O786 O 0.70987 0.3343 0.91471 0.0
O787 O 0.72018 0.32387 0.91543 0.0
H788 H 0.69708 0.31531 0.90976 0.0
H789 H 0.68876 0.30564 0.89922 0.0
H790 H 0.68002 0.28886 0.92142 0.0
H791 H 0.68842 0.2985 0.93186 0.0
H792 H 0.70195 0.32357 0.9669 0.0
H793 H 0.7037 0.32496 0.95051 0.0
H794 H 0.72683 0.33844 0.97063 0.0
H795 H 0.72856 0.33969 0.95431 0.0
H796 H 0.7346 0.35674 0.91132 0.0
H797 H 0.73612 0.33946 0.88801 0.0
H798 H 0.72516 0.32919 0.89487 0.0
H799 H 0.72379 0.34623 0.91826 0.0
C800 C 0.69355 0.72804 0.92159 0.0
C801 C 0.69695 0.73019 0.91301 0.0
C802 C 0.68338 0.73862 0.90957 0.0
C803 C 0.69192 0.73547 0.90707 0.0
C804 C 0.67999 0.73636 0.91814 0.0
C805 C 0.68504 0.73114 0.92408 0.0
U806 U 0.71134 0.7104 0.92718 0.0
O807 O 0.72142 0.71017 0.93802 0.0
O808 O 0.71101 0.69961 0.93735 0.0
C809 C 0.71771 0.70313 0.94197 0.0
C810 C 0.69874 0.72262 0.92803 0.0
C811 C 0.71622 0.70392 0.95174 0.0
C812 C 0.70986 0.71152 0.96471 0.0
C813 C 0.7111 0.7109 0.95538 0.0
C814 C 0.71877 0.69814 0.96682 0.0
C815 C 0.71368 0.70513 0.97055 0.0
C816 C 0.72002 0.69755 0.95751 0.0
C817 C 0.72403 0.69887 0.90784 0.0
C818 C 0.73832 0.69106 0.90868 0.0
C819 C 0.72851 0.68874 0.89587 0.0
C820 C 0.7223 0.69468 0.89957 0.0
C821 C 0.73662 0.68689 0.90035 0.0
C822 C 0.73206 0.69697 0.91242 0.0
C823 C 0.71742 0.70527 0.91142 0.0
O824 O 0.697 0.71394 0.92798 0.0
O825 O 0.70739 0.72453 0.9286 0.0
O826 O 0.72069 0.71224 0.91583 0.0
O827 O 0.71025 0.70168 0.91524 0.0
H828 H 0.70349 0.7278 0.91093 0.0
H829 H 0.69468 0.737 0.90049 0.0
H830 H 0.67349 0.73876 0.92032 0.0
H831 H 0.6823 0.72955 0.93066 0.0
H832 H 0.70582 0.71694 0.96734 0.0
H833 H 0.70807 0.71587 0.951 0.0
H834 H 0.72192 0.69319 0.9711 0.0
H835 H 0.72401 0.69212 0.95482 0.0
H836 H 0.74446 0.6897 0.91235 0.0
H837 H 0.72703 0.68574 0.88939 0.0
H838 H 0.71615 0.69606 0.89592 0.0
H839 H 0.73352 0.70008 0.91885 0.0
C840 C 0.6937 0.72891 0.1158 0.0
C841 C 0.69344 0.72702 0.12506 0.0
C842 C 0.68361 0.73983 0.12755 0.0
C843 C 0.68843 0.73243 0.13088 0.0
C844 C 0.68401 0.74172 0.11826 0.0
C845 C 0.68899 0.7363 0.11246 0.0
U846 U 0.71128 0.71095 0.11068 0.0
O847 O 0.71086 0.69994 0.10079 0.0
O848 O 0.72131 0.71044 0.09981 0.0
C849 C 0.71754 0.70335 0.09604 0.0
C850 C 0.69878 0.72325 0.10951 0.0
C851 C 0.716 0.704 0.08627 0.0
C852 C 0.70955 0.71144 0.07322 0.0
C853 C 0.71074 0.71086 0.08256 0.0
C854 C 0.71876 0.69825 0.07124 0.0
C855 C 0.71356 0.70515 0.06744 0.0
C856 C 0.71996 0.6977 0.08056 0.0
C857 C 0.72437 0.70011 0.13013 0.0
C858 C 0.73325 0.6865 0.12907 0.0
C859 C 0.73459 0.69605 0.14221 0.0
C860 C 0.72826 0.7019 0.13854 0.0
C861 C 0.73714 0.68826 0.13754 0.0
C862 C 0.72694 0.6924 0.12538 0.0
C863 C 0.71761 0.70634 0.12653 0.0
O864 O 0.70742 0.72509 0.10886 0.0
O865 O 0.697 0.71458 0.1099 0.0
O866 O 0.7104 0.70263 0.12291 0.0
O867 O 0.72081 0.71316 0.12184 0.0
H868 H 0.69706 0.72133 0.12776 0.0
H869 H 0.68822 0.73071 0.13797 0.0
H870 H 0.68053 0.74744 0.11547 0.0
H871 H 0.68915 0.7379 0.10534 0.0
H872 H 0.70543 0.71678 0.07054 0.0
H873 H 0.70761 0.71578 0.08689 0.0
H874 H 0.72205 0.69337 0.067 0.0
H875 H 0.72406 0.69237 0.0833 0.0
H876 H 0.73514 0.68062 0.12527 0.0
H877 H 0.73736 0.69755 0.14878 0.0
H878 H 0.72635 0.70781 0.14231 0.0
H879 H 0.72405 0.69093 0.11885 0.0
C880 C 0.30912 0.69214 0.11569 0.0
C881 C 0.31038 0.69302 0.12501 0.0
C882 C 0.29807 0.68238 0.12783 0.0
C883 C 0.30491 0.68818 0.13102 0.0
C884 C 0.29686 0.68154 0.11847 0.0
C885 C 0.30234 0.68638 0.11246 0.0
U886 U 0.32715 0.70991 0.11061 0.0
O887 O 0.33823 0.70983 0.10076 0.0
O888 O 0.32782 0.72014 0.09992 0.0
C889 C 0.33491 0.71656 0.09612 0.0
C890 C 0.31477 0.69723 0.10927 0.0
C891 C 0.33431 0.71522 0.08632 0.0
C892 C 0.32699 0.70878 0.07314 0.0
C893 C 0.32758 0.70972 0.08251 0.0
C894 C 0.3399 0.71872 0.07134 0.0
C895 C 0.33311 0.71333 0.06743 0.0
C896 C 0.34048 0.71965 0.08069 0.0
C897 C 0.33773 0.72268 0.13061 0.0
C898 C 0.35018 0.73341 0.1295 0.0
C899 C 0.34264 0.73102 0.14378 0.0
C900 C 0.33689 0.72472 0.13976 0.0
C901 C 0.34939 0.73542 0.13873 0.0
C902 C 0.34439 0.72708 0.12547 0.0
C903 C 0.33159 0.71595 0.12664 0.0
O904 O 0.313 0.70584 0.10862 0.0
O905 O 0.32343 0.69558 0.10963 0.0
O906 O 0.3354 0.70896 0.12286 0.0
O907 O 0.32488 0.71915 0.12191 0.0
H908 H 0.3156 0.69745 0.12761 0.0
H909 H 0.30611 0.68892 0.13817 0.0
H910 H 0.29158 0.67726 0.11576 0.0
H911 H 0.30125 0.68565 0.10529 0.0
H912 H 0.32164 0.70464 0.07036 0.0
H913 H 0.32275 0.70624 0.08677 0.0
H914 H 0.34482 0.72219 0.06718 0.0
H915 H 0.34574 0.72389 0.08352 0.0
H916 H 0.35534 0.73662 0.12543 0.0
H917 H 0.34171 0.73252 0.15085 0.0
H918 H 0.33175 0.72143 0.14381 0.0
H919 H 0.34513 0.72558 0.11838 0.0
C920 C 0.6938 0.30738 0.11606 0.0
C921 C 0.69728 0.30563 0.12466 0.0
C922 C 0.6841 0.29638 0.12829 0.0
C923 C 0.69249 0.30014 0.13071 0.0
C924 C 0.68059 0.29829 0.11971 0.0
C925 C 0.68541 0.30372 0.11365 0.0
U926 U 0.71133 0.32554 0.11033 0.0
O927 O 0.7216 0.32592 0.09965 0.0
O928 O 0.7111 0.33617 0.10002 0.0
C929 C 0.7179 0.33279 0.09554 0.0
C930 C 0.69885 0.31292 0.1095 0.0
C931 C 0.71663 0.3318 0.08576 0.0
C932 C 0.70796 0.32668 0.07281 0.0
C933 C 0.70898 0.32749 0.08216 0.0
C934 C 0.72223 0.33441 0.0706 0.0
C935 C 0.71459 0.33012 0.06692 0.0
C936 C 0.72322 0.33524 0.07992 0.0
C937 C 0.72385 0.33733 0.12979 0.0
C938 C 0.73709 0.34697 0.12819 0.0
C939 C 0.72942 0.34594 0.14255 0.0
C940 C 0.72319 0.33989 0.13883 0.0
C941 C 0.73647 0.34954 0.13729 0.0
C942 C 0.73081 0.34094 0.12446 0.0
C943 C 0.71725 0.33083 0.12615 0.0
O944 O 0.69702 0.32155 0.10951 0.0
O945 O 0.7075 0.31129 0.10889 0.0
O946 O 0.72058 0.32396 0.12177 0.0
O947 O 0.71017 0.3343 0.12221 0.0
H948 H 0.70372 0.30846 0.12668 0.0
H949 H 0.69533 0.2989 0.1373 0.0
H950 H 0.6742 0.29543 0.1176 0.0
H951 H 0.68261 0.305 0.10704 0.0
H952 H 0.70204 0.32326 0.07021 0.0
H953 H 0.70383 0.32475 0.08658 0.0
H954 H 0.7274 0.33725 0.06627 0.0
H955 H 0.72916 0.33861 0.08257 0.0
H956 H 0.74238 0.3497 0.12393 0.0
H957 H 0.72881 0.34766 0.1496 0.0
H958 H 0.71787 0.33716 0.14305 0.0
H959 H 0.7314 0.33906 0.11745 0.0
C960 C 0.61625 0.80674 0.8444 0.0
C961 C 0.62502 0.80523 0.84129 0.0
C962 C 0.62804 0.79571 0.85434 0.0
C963 C 0.63087 0.79975 0.84621 0.0
C964 C 0.61927 0.79738 0.85745 0.0
C965 C 0.61344 0.80283 0.85252 0.0
U966 U 0.61114 0.82444 0.82641 0.0
O967 O 0.60024 0.82484 0.8164 0.0
O968 O 0.60139 0.83547 0.82656 0.0
C969 C 0.59658 0.83201 0.81997 0.0
C970 C 0.60992 0.81233 0.83926 0.0
C971 C 0.58681 0.83143 0.82152 0.0
C972 C 0.57384 0.82588 0.82995 0.0
C973 C 0.58318 0.82635 0.82865 0.0
C974 C 0.57169 0.83553 0.81699 0.0
C975 C 0.56797 0.83048 0.82413 0.0
C976 C 0.58101 0.83599 0.81571 0.0
C977 C 0.63079 0.83509 0.8131 0.0
C978 C 0.63004 0.84867 0.80398 0.0
C979 C 0.64314 0.83916 0.80312 0.0
C980 C 0.63926 0.8333 0.80943 0.0
C981 C 0.63862 0.84697 0.80036 0.0
C982 C 0.62615 0.84277 0.81029 0.0
C983 C 0.62704 0.82893 0.81997 0.0
O984 O 0.61041 0.82101 0.84083 0.0
O985 O 0.60913 0.81039 0.83067 0.0
O986 O 0.62226 0.82211 0.81691 0.0
O987 O 0.62347 0.83274 0.82708 0.0
H988 H 0.62733 0.80822 0.83504 0.0
H989 H 0.63753 0.79856 0.84356 0.0
H990 H 0.61691 0.79454 0.86376 0.0
H991 H 0.60671 0.80397 0.85506 0.0
H992 H 0.57123 0.82201 0.83557 0.0
H993 H 0.58757 0.82277 0.83321 0.0
H994 H 0.56739 0.83903 0.81229 0.0
H995 H 0.58369 0.8399 0.81014 0.0
H996 H 0.6264 0.85465 0.80208 0.0
H997 H 0.64966 0.83753 0.80037 0.0
H998 H 0.64292 0.82737 0.81149 0.0
H999 H 0.61958 0.84426 0.81303 0.0
C1000 C 0.1927 0.61514 0.80871 0.0
C1001 C 0.1958 0.62396 0.80714 0.0
C1002 C 0.18277 0.6269 0.79762 0.0
C1003 C 0.19089 0.62978 0.80163 0.0
C1004 C 0.17964 0.61809 0.79936 0.0
C1005 C 0.18457 0.61228 0.80484 0.0
U1006 U 0.21064 0.61 0.82646 0.0
O1007 O 0.21047 0.59997 0.83738 0.0
O1008 O 0.22073 0.59931 0.8268 0.0
C1009 C 0.21716 0.59541 0.83391 0.0
C1010 C 0.19785 0.60882 0.81429 0.0
C1011 C 0.21578 0.58562 0.83325 0.0
C1012 C 0.20882 0.57246 0.82632 0.0
C1013 C 0.20977 0.58183 0.827 0.0
C1014 C 0.21981 0.57062 0.83821 0.0
C1015 C 0.2139 0.56674 0.83188 0.0
C1016 C 0.22073 0.57996 0.83888 0.0
C1017 C 0.22393 0.62948 0.83732 0.0
C1018 C 0.23249 0.62879 0.85127 0.0
C1019 C 0.23468 0.64134 0.84105 0.0
C1020 C 0.22829 0.63762 0.8352 0.0
C1021 C 0.23682 0.637 0.84919 0.0
C1022 C 0.22613 0.62504 0.84537 0.0
C1023 C 0.21705 0.62586 0.83112 0.0
O1024 O 0.20646 0.60821 0.81237 0.0
O1025 O 0.19624 0.60912 0.82298 0.0
O1026 O 0.20991 0.62212 0.83486 0.0
O1027 O 0.2201 0.62131 0.82421 0.0
H1028 H 0.20206 0.62631 0.8101 0.0
H1029 H 0.19355 0.63648 0.80038 0.0
H1030 H 0.17334 0.61568 0.79654 0.0
H1031 H 0.18203 0.60552 0.80603 0.0
H1032 H 0.20427 0.5697 0.82133 0.0
H1033 H 0.20589 0.58611 0.82258 0.0
H1034 H 0.2237 0.56644 0.8427 0.0
H1035 H 0.22538 0.58277 0.84377 0.0
H1036 H 0.23406 0.62523 0.85743 0.0
H1037 H 0.2378 0.64772 0.83929 0.0
H1038 H 0.22668 0.64115 0.82903 0.0
H1039 H 0.22289 0.6187 0.84711 0.0
C1040 C 0.42166 0.2298 0.84465 0.0
C1041 C 0.41286 0.23114 0.84152 0.0
C1042 C 0.40972 0.24083 0.85437 0.0
C1043 C 0.40695 0.23662 0.84633 0.0
C1044 C 0.41852 0.23934 0.85751 0.0
C1045 C 0.42442 0.23389 0.85269 0.0
U1046 U 0.42685 0.21167 0.82724 0.0
O1047 O 0.43743 0.21126 0.81687 0.0
O1048 O 0.43697 0.20098 0.82748 0.0
C1049 C 0.44143 0.20435 0.82059 0.0
C1050 C 0.42806 0.22425 0.83958 0.0
C1051 C 0.45124 0.20525 0.82176 0.0
C1052 C 0.46434 0.21122 0.82964 0.0
C1053 C 0.45497 0.2105 0.82868 0.0
C1054 C 0.4663 0.2015 0.81674 0.0
C1055 C 0.47012 0.20675 0.82366 0.0
C1056 C 0.45695 0.20077 0.81581 0.0
C1057 C 0.40715 0.19995 0.81501 0.0
C1058 C 0.40845 0.19073 0.80157 0.0
C1059 C 0.39433 0.19116 0.80971 0.0
C1060 C 0.39817 0.19711 0.81593 0.0
C1061 C 0.3994 0.18793 0.80243 0.0
C1062 C 0.4123 0.19668 0.80783 0.0
C1063 C 0.4109 0.20643 0.82153 0.0
O1064 O 0.42791 0.21562 0.84149 0.0
O1065 O 0.42857 0.2259 0.8309 0.0
O1066 O 0.41535 0.21333 0.81811 0.0
O1067 O 0.41485 0.20294 0.82862 0.0
H1068 H 0.41059 0.22802 0.83533 0.0
H1069 H 0.40028 0.23769 0.84364 0.0
H1070 H 0.42084 0.24232 0.86375 0.0
H1071 H 0.43117 0.23289 0.85523 0.0
H1072 H 0.46705 0.21539 0.83498 0.0
H1073 H 0.45065 0.21404 0.83332 0.0
H1074 H 0.47053 0.19786 0.8121 0.0
H1075 H 0.45419 0.19667 0.81044 0.0
H1076 H 0.41257 0.1883 0.7961 0.0
H1077 H 0.38732 0.18925 0.81051 0.0
H1078 H 0.39409 0.19958 0.82142 0.0
H1079 H 0.41927 0.19875 0.80704 0.0
C1080 C 0.80925 0.42154 0.84406 0.0
C1081 C 0.80754 0.4129 0.84062 0.0
C1082 C 0.79809 0.4093 0.8536 0.0
C1083 C 0.80199 0.40685 0.84533 0.0
C1084 C 0.79993 0.41794 0.85705 0.0
C1085 C 0.80545 0.42399 0.85232 0.0
U1086 U 0.82707 0.42736 0.82631 0.0
O1087 O 0.82763 0.4385 0.81657 0.0
O1088 O 0.8382 0.43726 0.82678 0.0
C1089 C 0.8348 0.44217 0.82028 0.0
C1090 C 0.81492 0.42808 0.83913 0.0
C1091 C 0.83428 0.45189 0.82207 0.0
C1092 C 0.82741 0.46467 0.82946 0.0
C1093 C 0.82789 0.45537 0.82804 0.0
C1094 C 0.83974 0.46705 0.81903 0.0
C1095 C 0.83333 0.47063 0.82496 0.0
C1096 C 0.8402 0.45777 0.8176 0.0
C1097 C 0.83761 0.40827 0.81256 0.0
C1098 C 0.85132 0.40943 0.80365 0.0
C1099 C 0.84157 0.39635 0.80217 0.0
C1100 C 0.83571 0.39994 0.80855 0.0
C1101 C 0.84948 0.40102 0.79967 0.0
C1102 C 0.84541 0.41304 0.81002 0.0
C1103 C 0.83144 0.41171 0.81948 0.0
O1104 O 0.8236 0.42766 0.84073 0.0
O1105 O 0.81302 0.42909 0.83055 0.0
O1106 O 0.82467 0.41648 0.81651 0.0
O1107 O 0.83525 0.41514 0.82671 0.0
H1108 H 0.81048 0.41085 0.83428 0.0
H1109 H 0.8008 0.40022 0.84254 0.0
H1110 H 0.79697 0.42008 0.86334 0.0
H1111 H 0.80669 0.43063 0.85508 0.0
H1112 H 0.82245 0.46719 0.83414 0.0
H1113 H 0.82326 0.45091 0.83156 0.0
H1114 H 0.84431 0.47143 0.81534 0.0
H1115 H 0.84515 0.4552 0.81294 0.0
H1116 H 0.85729 0.41325 0.8018 0.0
H1117 H 0.84 0.38981 0.79933 0.0
H1118 H 0.82973 0.39615 0.81044 0.0
H1119 H 0.84697 0.41952 0.81299 0.0
C1120 C 0.61509 0.19253 0.23011 0.0
C1121 C 0.62437 0.19259 0.22837 0.0
C1122 C 0.62684 0.18257 0.24116 0.0
C1123 C 0.6302 0.18764 0.23385 0.0
C1124 C 0.61752 0.18263 0.24288 0.0
C1125 C 0.61171 0.18755 0.2374 0.0
U1126 U 0.61027 0.21004 0.21187 0.0
O1127 O 0.60028 0.20982 0.20093 0.0
O1128 O 0.59972 0.22031 0.21127 0.0
C1129 C 0.59578 0.2166 0.20426 0.0
C1130 C 0.60883 0.19763 0.22442 0.0
C1131 C 0.58597 0.21528 0.20502 0.0
C1132 C 0.57288 0.20691 0.21045 0.0
C1133 C 0.58225 0.20799 0.20981 0.0
C1134 C 0.57089 0.22043 0.20157 0.0
C1135 C 0.56709 0.21314 0.20636 0.0
C1136 C 0.58023 0.22147 0.20091 0.0
C1137 C 0.63021 0.2226 0.20079 0.0
C1138 C 0.62944 0.23177 0.18723 0.0
C1139 C 0.64291 0.23207 0.19641 0.0
C1140 C 0.63893 0.22591 0.20236 0.0
C1141 C 0.63825 0.23504 0.18872 0.0
C1142 C 0.62545 0.22561 0.19322 0.0
C1143 C 0.62631 0.21598 0.20711 0.0
O1144 O 0.60842 0.20629 0.2261 0.0
O1145 O 0.60907 0.1958 0.21577 0.0
O1146 O 0.6224 0.20888 0.20348 0.0
O1147 O 0.62175 0.21932 0.21388 0.0
H1148 H 0.6271 0.19642 0.22277 0.0
H1149 H 0.63732 0.18769 0.23227 0.0
H1150 H 0.6147 0.17895 0.24853 0.0
H1151 H 0.60457 0.18748 0.23887 0.0
H1152 H 0.57019 0.20128 0.21426 0.0
H1153 H 0.58658 0.20315 0.21306 0.0
H1154 H 0.56665 0.22528 0.19824 0.0
H1155 H 0.58299 0.22714 0.19718 0.0
H1156 H 0.62568 0.23384 0.18135 0.0
H1157 H 0.64962 0.23456 0.19788 0.0
H1158 H 0.64269 0.22371 0.2082 0.0
H1159 H 0.61869 0.22314 0.19191 0.0
C1160 C 0.8083 0.61559 0.19268 0.0
C1161 C 0.80703 0.62435 0.1959 0.0
C1162 C 0.79727 0.6277 0.18313 0.0
C1163 C 0.80155 0.63034 0.19118 0.0
C1164 C 0.7987 0.61894 0.17989 0.0
C1165 C 0.80415 0.61295 0.18463 0.0
U1166 U 0.82651 0.61028 0.20998 0.0
O1167 O 0.82701 0.59966 0.2203 0.0
O1168 O 0.83725 0.60021 0.20966 0.0
C1169 C 0.83394 0.59572 0.21656 0.0
C1170 C 0.81388 0.60913 0.19765 0.0
C1171 C 0.83313 0.58591 0.21544 0.0
C1172 C 0.82723 0.5727 0.2077 0.0
C1173 C 0.8279 0.58208 0.20855 0.0
C1174 C 0.83699 0.57094 0.22062 0.0
C1175 C 0.83174 0.56701 0.21376 0.0
C1176 C 0.83767 0.58029 0.22145 0.0
C1177 C 0.83815 0.62996 0.22231 0.0
C1178 C 0.84716 0.62877 0.23593 0.0
C1179 C 0.84702 0.64275 0.22754 0.0
C1180 C 0.84112 0.63888 0.22129 0.0
C1181 C 0.85008 0.63776 0.23497 0.0
C1182 C 0.84126 0.62489 0.22964 0.0
C1183 C 0.83169 0.6262 0.21577 0.0
O1184 O 0.82251 0.60932 0.19572 0.0
O1185 O 0.81227 0.60851 0.20634 0.0
O1186 O 0.82481 0.6217 0.21916 0.0
O1187 O 0.83519 0.62233 0.20867 0.0
H1188 H 0.8102 0.62653 0.2021 0.0
H1189 H 0.80053 0.63699 0.19394 0.0
H1190 H 0.79566 0.61671 0.17365 0.0
H1191 H 0.80511 0.60623 0.18201 0.0
H1192 H 0.82308 0.5699 0.20238 0.0
H1193 H 0.82432 0.58633 0.20386 0.0
H1194 H 0.84068 0.56679 0.22532 0.0
H1195 H 0.84176 0.58313 0.22679 0.0
H1196 H 0.84946 0.62471 0.24152 0.0
H1197 H 0.84903 0.64972 0.22665 0.0
H1198 H 0.83877 0.64291 0.21569 0.0
H1199 H 0.83909 0.61796 0.23052 0.0
C1200 C 0.42262 0.84564 0.22863 0.0
C1201 C 0.41335 0.84552 0.22678 0.0
C1202 C 0.41061 0.85537 0.2396 0.0
C1203 C 0.4074 0.85035 0.2322 0.0
C1204 C 0.41991 0.85541 0.24141 0.0
C1205 C 0.42584 0.85061 0.23597 0.0
U1206 U 0.42776 0.82782 0.21089 0.0
O1207 O 0.43772 0.82797 0.1999 0.0
O1208 O 0.43848 0.81775 0.21053 0.0
C1209 C 0.44233 0.82132 0.20338 0.0
C1210 C 0.42898 0.84059 0.22304 0.0
C1211 C 0.45212 0.82276 0.20401 0.0
C1212 C 0.46529 0.82941 0.21122 0.0
C1213 C 0.45592 0.8284 0.21058 0.0
C1214 C 0.46712 0.81924 0.19866 0.0
C1215 C 0.47102 0.82478 0.2053 0.0
C1216 C 0.45777 0.81825 0.19803 0.0
C1217 C 0.40812 0.81434 0.20041 0.0
C1218 C 0.408 0.80601 0.18631 0.0
C1219 C 0.3967 0.80284 0.19766 0.0
C1220 C 0.40053 0.80941 0.20322 0.0
C1221 C 0.40037 0.80107 0.18913 0.0
C1222 C 0.41188 0.81257 0.19192 0.0
C1223 C 0.41187 0.82132 0.20642 0.0
O1224 O 0.42965 0.83199 0.22498 0.0
O1225 O 0.42863 0.84218 0.21434 0.0
O1226 O 0.41556 0.82842 0.20254 0.0
O1227 O 0.4165 0.81837 0.21333 0.0
H1228 H 0.41073 0.8417 0.22113 0.0
H1229 H 0.40031 0.85023 0.23054 0.0
H1230 H 0.42262 0.85906 0.24713 0.0
H1231 H 0.43297 0.85073 0.23754 0.0
H1232 H 0.46806 0.83366 0.21647 0.0
H1233 H 0.45165 0.83194 0.21527 0.0
H1234 H 0.4713 0.81569 0.19389 0.0
H1235 H 0.45495 0.81389 0.19289 0.0
H1236 H 0.41104 0.80475 0.17981 0.0
H1237 H 0.39076 0.79925 0.2 0.0
H1238 H 0.39752 0.81069 0.20973 0.0
H1239 H 0.41778 0.81625 0.18962 0.0
C1240 C 0.19407 0.42113 0.22878 0.0
C1241 C 0.1944 0.41185 0.22715 0.0
C1242 C 0.18454 0.40897 0.24 0.0
C1243 C 0.18965 0.40582 0.2327 0.0
C1244 C 0.18423 0.4183 0.24156 0.0
C1245 C 0.18895 0.42431 0.23599 0.0
U1246 U 0.21151 0.42645 0.21057 0.0
O1247 O 0.21135 0.4365 0.19968 0.0
O1248 O 0.22186 0.43717 0.21004 0.0
C1249 C 0.21816 0.4411 0.20306 0.0
C1250 C 0.19912 0.42757 0.22312 0.0
C1251 C 0.21698 0.4509 0.20379 0.0
C1252 C 0.20789 0.46399 0.20718 0.0
C1253 C 0.20885 0.45463 0.20673 0.0
C1254 C 0.22321 0.46597 0.20191 0.0
C1255 C 0.21506 0.46979 0.20472 0.0
C1256 C 0.22415 0.45664 0.20144 0.0
C1257 C 0.22395 0.4068 0.19943 0.0
C1258 C 0.23328 0.40789 0.186 0.0
C1259 C 0.23308 0.39416 0.19481 0.0
C1260 C 0.22698 0.39801 0.2008 0.0
C1261 C 0.23626 0.39901 0.18729 0.0
C1262 C 0.22718 0.41175 0.19203 0.0
C1263 C 0.21737 0.41056 0.20576 0.0
O1264 O 0.20779 0.42817 0.22479 0.0
O1265 O 0.19727 0.42735 0.21447 0.0
O1266 O 0.21029 0.41436 0.20214 0.0
O1267 O 0.22075 0.41513 0.21254 0.0
H1268 H 0.19837 0.40927 0.22163 0.0
H1269 H 0.19012 0.39868 0.23137 0.0
H1270 H 0.18027 0.42097 0.24704 0.0
H1271 H 0.18861 0.43146 0.23734 0.0
H1272 H 0.20149 0.46668 0.2093 0.0
H1273 H 0.20323 0.45032 0.20862 0.0
H1274 H 0.22894 0.47019 0.20014 0.0
H1275 H 0.23049 0.45389 0.19921 0.0
H1276 H 0.23553 0.41179 0.18025 0.0
H1277 H 0.23534 0.38739 0.19613 0.0
H1278 H 0.2246 0.39411 0.20651 0.0
H1279 H 0.22493 0.41856 0.19087 0.0
C1280 C 0.80949 0.61577 0.84582 0.0
C1281 C 0.81055 0.62508 0.84462 0.0
C1282 C 0.79829 0.62781 0.85517 0.0
C1283 C 0.80501 0.63106 0.84927 0.0
C1284 C 0.79732 0.61845 0.85636 0.0
C1285 C 0.80287 0.6125 0.85173 0.0
U1286 U 0.82728 0.61053 0.82806 0.0
O1287 O 0.83841 0.60087 0.8284 0.0
O1288 O 0.82779 0.59952 0.81822 0.0
C1289 C 0.83498 0.59597 0.82187 0.0
C1290 C 0.81514 0.60937 0.84089 0.0
C1291 C 0.83447 0.58622 0.82356 0.0
C1292 C 0.82746 0.57313 0.83063 0.0
C1293 C 0.82794 0.58246 0.82931 0.0
C1294 C 0.84011 0.57125 0.82053 0.0
C1295 C 0.83354 0.5674 0.82624 0.0
C1296 C 0.84056 0.58056 0.81922 0.0
C1297 C 0.83759 0.63002 0.81429 0.0
C1298 C 0.85109 0.62929 0.80505 0.0
C1299 C 0.84108 0.64196 0.80362 0.0
C1300 C 0.83546 0.63823 0.81022 0.0
C1301 C 0.84898 0.63756 0.80096 0.0
C1302 C 0.84542 0.62553 0.81163 0.0
C1303 C 0.83156 0.62635 0.82129 0.0
O1304 O 0.81322 0.60841 0.83231 0.0
O1305 O 0.82384 0.60999 0.84246 0.0
O1306 O 0.83547 0.62294 0.82845 0.0
O1307 O 0.82474 0.62145 0.81838 0.0
H1308 H 0.81561 0.62772 0.84004 0.0
H1309 H 0.80588 0.63821 0.84812 0.0
H1310 H 0.79231 0.61572 0.86094 0.0
H1311 H 0.80197 0.60533 0.85275 0.0
H1312 H 0.82239 0.5704 0.83513 0.0
H1313 H 0.82319 0.58674 0.83274 0.0
H1314 H 0.8448 0.56706 0.81693 0.0
H1315 H 0.84562 0.58334 0.81473 0.0
H1316 H 0.85707 0.62569 0.80309 0.0
H1317 H 0.83931 0.64839 0.8007 0.0
H1318 H 0.82945 0.6418 0.81218 0.0
H1319 H 0.84715 0.61915 0.81466 0.0
C1320 C 0.42271 0.8452 0.80853 0.0
C1321 C 0.41386 0.84206 0.8072 0.0
C1322 C 0.41074 0.85491 0.79747 0.0
C1323 C 0.40794 0.84686 0.8017 0.0
C1324 C 0.41959 0.85806 0.79896 0.0
C1325 C 0.42551 0.85324 0.80442 0.0
U1326 U 0.42789 0.82766 0.82662 0.0
O1327 O 0.43843 0.81741 0.8271 0.0
O1328 O 0.43802 0.82791 0.83744 0.0
C1329 C 0.44246 0.8211 0.83408 0.0
C1330 C 0.42911 0.84014 0.81412 0.0
C1331 C 0.45227 0.82236 0.83327 0.0
C1332 C 0.46546 0.82838 0.82554 0.0
C1333 C 0.45608 0.82749 0.82628 0.0
C1334 C 0.46726 0.81913 0.83884 0.0
C1335 C 0.47117 0.82415 0.83178 0.0
C1336 C 0.45791 0.81824 0.83956 0.0
C1337 C 0.40819 0.81507 0.838 0.0
C1338 C 0.40978 0.80197 0.84768 0.0
C1339 C 0.39522 0.80895 0.84598 0.0
C1340 C 0.39902 0.81533 0.84014 0.0
C1341 C 0.40054 0.80216 0.84979 0.0
C1342 C 0.41358 0.80839 0.84184 0.0
C1343 C 0.41192 0.82172 0.83162 0.0
O1344 O 0.42895 0.84196 0.82277 0.0
O1345 O 0.42961 0.83149 0.81242 0.0
O1346 O 0.41637 0.81844 0.82475 0.0
O1347 O 0.41588 0.82879 0.83523 0.0
H1348 H 0.41156 0.83587 0.81034 0.0
H1349 H 0.40122 0.84418 0.80064 0.0
H1350 H 0.42195 0.8643 0.79595 0.0
H1351 H 0.43229 0.85579 0.80542 0.0
H1352 H 0.46823 0.83223 0.81998 0.0
H1353 H 0.45181 0.83072 0.82135 0.0
H1354 H 0.47143 0.81591 0.84385 0.0
H1355 H 0.45508 0.81429 0.84503 0.0
H1356 H 0.41408 0.79689 0.85056 0.0
H1357 H 0.38807 0.80923 0.84735 0.0
H1358 H 0.39476 0.82043 0.83722 0.0
H1359 H 0.42069 0.80811 0.84029 0.0
C1360 C 0.19376 0.42123 0.80846 0.0
C1361 C 0.19676 0.4124 0.80731 0.0
C1362 C 0.18403 0.40909 0.79743 0.0
C1363 C 0.19196 0.40638 0.80183 0.0
C1364 C 0.18102 0.41794 0.79872 0.0
C1365 C 0.18585 0.42394 0.80417 0.0
U1366 U 0.21132 0.42669 0.82649 0.0
O1367 O 0.2216 0.43745 0.82697 0.0
O1368 O 0.2111 0.43675 0.83734 0.0
C1369 C 0.21791 0.44136 0.83396 0.0
C1370 C 0.19882 0.42771 0.81404 0.0
C1371 C 0.21661 0.45113 0.83315 0.0
C1372 C 0.20948 0.46407 0.82624 0.0
C1373 C 0.21045 0.45473 0.827 0.0
C1374 C 0.22079 0.46626 0.8378 0.0
C1375 C 0.21469 0.46996 0.83159 0.0
C1376 C 0.22173 0.45694 0.83855 0.0
C1377 C 0.22387 0.4071 0.83772 0.0
C1378 C 0.23733 0.40855 0.84696 0.0
C1379 C 0.2295 0.39421 0.84596 0.0
C1380 C 0.22316 0.39803 0.8402 0.0
C1381 C 0.23672 0.39939 0.84936 0.0
C1382 C 0.23095 0.41238 0.84119 0.0
C1383 C 0.21723 0.41082 0.8314 0.0
O1384 O 0.19702 0.42748 0.8227 0.0
O1385 O 0.20748 0.42841 0.81231 0.0
O1386 O 0.22054 0.41539 0.82455 0.0
O1387 O 0.21018 0.41461 0.83506 0.0
H1388 H 0.20286 0.41017 0.81059 0.0
H1389 H 0.19454 0.39967 0.80092 0.0
H1390 H 0.17488 0.42021 0.79558 0.0
H1391 H 0.1834 0.43072 0.80503 0.0
H1392 H 0.20478 0.46669 0.82134 0.0
H1393 H 0.20644 0.45032 0.82275 0.0
H1394 H 0.2248 0.47056 0.84213 0.0
H1395 H 0.2265 0.45428 0.84336 0.0
H1396 H 0.24283 0.41272 0.84939 0.0
H1397 H 0.2287 0.38719 0.84779 0.0
H1398 H 0.2177 0.39387 0.83763 0.0
H1399 H 0.2316 0.41941 0.83936 0.0
C1400 C 0.61535 0.19311 0.80749 0.0
C1401 C 0.62467 0.19372 0.80892 0.0
C1402 C 0.62728 0.18312 0.7967 0.0
C1403 C 0.63059 0.18878 0.80357 0.0
C1404 C 0.61792 0.18262 0.79527 0.0
C1405 C 0.61202 0.18756 0.80062 0.0
U1406 U 0.61019 0.2104 0.82578 0.0
O1407 O 0.59956 0.22056 0.82639 0.0
O1408 O 0.60008 0.20991 0.83661 0.0
C1409 C 0.59558 0.21673 0.83333 0.0
C1410 C 0.60899 0.19815 0.8131 0.0
C1411 C 0.58578 0.21535 0.83253 0.0
C1412 C 0.57269 0.2089 0.82501 0.0
C1413 C 0.58204 0.21003 0.82566 0.0
C1414 C 0.57074 0.21833 0.83813 0.0
C1415 C 0.56691 0.21304 0.83125 0.0
C1416 C 0.58008 0.21947 0.83876 0.0
C1417 C 0.62976 0.22277 0.83753 0.0
C1418 C 0.62837 0.23618 0.84676 0.0
C1419 C 0.64233 0.22794 0.84669 0.0
C1420 C 0.63861 0.22178 0.8406 0.0
C1421 C 0.63728 0.23523 0.84983 0.0
C1422 C 0.62463 0.22998 0.84069 0.0
C1423 C 0.62611 0.21627 0.83097 0.0
O1424 O 0.60908 0.19621 0.82173 0.0
O1425 O 0.60862 0.20684 0.81149 0.0
O1426 O 0.62168 0.2197 0.82413 0.0
O1427 O 0.62218 0.20908 0.83439 0.0
H1428 H 0.62735 0.19799 0.81421 0.0
H1429 H 0.63774 0.18926 0.80492 0.0
H1430 H 0.61514 0.17847 0.78996 0.0
H1431 H 0.60485 0.18704 0.79939 0.0
H1432 H 0.56998 0.2047 0.81969 0.0
H1433 H 0.58636 0.20677 0.82081 0.0
H1434 H 0.56652 0.22172 0.84296 0.0
H1435 H 0.58285 0.22361 0.84409 0.0
H1436 H 0.62426 0.24166 0.84913 0.0
H1437 H 0.64924 0.22707 0.84881 0.0
H1438 H 0.64268 0.21627 0.83822 0.0
H1439 H 0.61775 0.23083 0.83844 0.0
C1440 C 0.80906 0.42136 0.19333 0.0
C1441 C 0.81124 0.41222 0.19277 0.0
C1442 C 0.79781 0.40931 0.18372 0.0
C1443 C 0.80567 0.40625 0.18798 0.0
C1444 C 0.79568 0.41849 0.18433 0.0
C1445 C 0.80126 0.42445 0.18908 0.0
U1446 U 0.82767 0.42675 0.21038 0.0
O1447 O 0.83834 0.43713 0.20995 0.0
O1448 O 0.82829 0.43728 0.22077 0.0
C1449 C 0.83512 0.44147 0.21692 0.0
C1450 C 0.81477 0.42777 0.19834 0.0
C1451 C 0.83418 0.45126 0.21583 0.0
C1452 C 0.82821 0.46432 0.20806 0.0
C1453 C 0.82896 0.45496 0.20891 0.0
C1454 C 0.83785 0.46632 0.22106 0.0
C1455 C 0.83262 0.47012 0.21415 0.0
C1456 C 0.83861 0.457 0.22188 0.0
C1457 C 0.83968 0.40736 0.22244 0.0
C1458 C 0.84863 0.40868 0.2361 0.0
C1459 C 0.84902 0.39497 0.22734 0.0
C1460 C 0.84297 0.39866 0.22118 0.0
C1461 C 0.85188 0.3999 0.23491 0.0
C1462 C 0.8426 0.41239 0.2299 0.0
C1463 C 0.83306 0.41093 0.216 0.0
O1464 O 0.81331 0.42811 0.20706 0.0
O1465 O 0.82337 0.42782 0.19626 0.0
O1466 O 0.83641 0.41497 0.20884 0.0
O1467 O 0.8262 0.41518 0.21951 0.0
H1468 H 0.81721 0.4097 0.19605 0.0
H1469 H 0.80746 0.39921 0.18772 0.0
H1470 H 0.78975 0.4211 0.18104 0.0
H1471 H 0.79948 0.43148 0.18944 0.0
H1472 H 0.82407 0.467 0.20271 0.0
H1473 H 0.82547 0.45061 0.20418 0.0
H1474 H 0.84146 0.47057 0.22578 0.0
H1475 H 0.8427 0.45427 0.22725 0.0
H1476 H 0.85078 0.4127 0.24179 0.0
H1477 H 0.8513 0.38816 0.22627 0.0
H1478 H 0.84078 0.39467 0.21548 0.0
H1479 H 0.84017 0.41915 0.23096 0.0
C1480 C 0.61592 0.80694 0.19291 0.0
C1481 C 0.62526 0.80818 0.19369 0.0
C1482 C 0.62779 0.79606 0.18295 0.0
C1483 C 0.63115 0.8028 0.18875 0.0
C1484 C 0.6184 0.79482 0.18229 0.0
C1485 C 0.61254 0.80021 0.18721 0.0
U1486 U 0.61091 0.82485 0.21061 0.0
O1487 O 0.60125 0.83596 0.21027 0.0
O1488 O 0.59998 0.82545 0.22058 0.0
C1489 C 0.59639 0.8326 0.21689 0.0
C1490 C 0.60961 0.81258 0.19796 0.0
C1491 C 0.58662 0.83208 0.2153 0.0
C1492 C 0.57364 0.8261 0.20724 0.0
C1493 C 0.58297 0.82653 0.20857 0.0
C1494 C 0.57155 0.83676 0.21935 0.0
C1495 C 0.5678 0.83122 0.21262 0.0
C1496 C 0.58086 0.83718 0.22066 0.0
C1497 C 0.63048 0.83552 0.22387 0.0
C1498 C 0.62951 0.84906 0.23296 0.0
C1499 C 0.64268 0.83966 0.23399 0.0
C1500 C 0.63894 0.8338 0.22763 0.0
C1501 C 0.63804 0.84739 0.23671 0.0
C1502 C 0.62575 0.84316 0.22662 0.0
C1503 C 0.62681 0.8293 0.21706 0.0
O1504 O 0.60885 0.81074 0.20658 0.0
O1505 O 0.61013 0.82125 0.19628 0.0
O1506 O 0.6233 0.83305 0.20986 0.0
O1507 O 0.62197 0.82253 0.22018 0.0
H1508 H 0.62799 0.81335 0.19807 0.0
H1509 H 0.63832 0.80401 0.18936 0.0
H1510 H 0.61557 0.78962 0.17802 0.0
H1511 H 0.60534 0.79913 0.18657 0.0
H1512 H 0.571 0.82183 0.20194 0.0
H1513 H 0.58734 0.82254 0.20436 0.0
H1514 H 0.56727 0.84068 0.22371 0.0
H1515 H 0.58357 0.84147 0.22591 0.0
H1516 H 0.62572 0.8549 0.23498 0.0
H1517 H 0.6493 0.83823 0.23664 0.0
H1518 H 0.6427 0.82794 0.22558 0.0
H1519 H 0.61917 0.84457 0.22384 0.0
C1520 C 0.1933 0.6154 0.22997 0.0
C1521 C 0.19329 0.62465 0.22811 0.0
C1522 C 0.18336 0.62722 0.24092 0.0
C1523 C 0.18836 0.63052 0.23353 0.0
C1524 C 0.18352 0.61793 0.24279 0.0
C1525 C 0.18843 0.61209 0.23736 0.0
U1526 U 0.2106 0.61026 0.21161 0.0
O1527 O 0.2206 0.59951 0.21084 0.0
O1528 O 0.20993 0.6003 0.20065 0.0
C1529 C 0.21664 0.59562 0.20392 0.0
C1530 C 0.19828 0.60907 0.22426 0.0
C1531 C 0.21516 0.58579 0.20453 0.0
C1532 C 0.21372 0.5719 0.21317 0.0
C1533 C 0.21455 0.5813 0.21285 0.0
C1534 C 0.21381 0.57138 0.19689 0.0
C1535 C 0.21345 0.56681 0.2052 0.0
C1536 C 0.21468 0.58075 0.19657 0.0
C1537 C 0.22343 0.62983 0.20027 0.0
C1538 C 0.23633 0.62811 0.19037 0.0
C1539 C 0.22974 0.64279 0.19242 0.0
C1540 C 0.22336 0.63904 0.19829 0.0
C1541 C 0.23636 0.63739 0.18844 0.0
C1542 C 0.22991 0.62436 0.19624 0.0
C1543 C 0.21679 0.62615 0.2067 0.0
O1544 O 0.19637 0.60935 0.21562 0.0
O1545 O 0.20695 0.60852 0.22588 0.0
O1546 O 0.22009 0.62154 0.21347 0.0
O1547 O 0.20958 0.62239 0.20315 0.0
H1548 H 0.19703 0.62733 0.22242 0.0
H1549 H 0.18833 0.6376 0.23184 0.0
H1550 H 0.17989 0.61517 0.2485 0.0
H1551 H 0.1884 0.60497 0.23892 0.0
H1552 H 0.21355 0.56863 0.21969 0.0
H1553 H 0.21487 0.58503 0.2191 0.0
H1554 H 0.21344 0.56772 0.19061 0.0
H1555 H 0.21509 0.58407 0.19008 0.0
H1556 H 0.24136 0.62376 0.18748 0.0
H1557 H 0.22945 0.64992 0.19097 0.0
H1558 H 0.21837 0.64336 0.20131 0.0
H1559 H 0.23006 0.61722 0.19769 0.0
C1560 C 0.42201 0.22948 0.19199 0.0
C1561 C 0.41274 0.2275 0.19195 0.0
C1562 C 0.40996 0.24076 0.18269 0.0
C1563 C 0.40678 0.23308 0.18731 0.0
C1564 C 0.41926 0.24269 0.18279 0.0
C1565 C 0.42521 0.23709 0.18739 0.0
U1566 U 0.42712 0.21107 0.20917 0.0
O1567 O 0.43686 0.20003 0.20859 0.0
O1568 O 0.43795 0.21022 0.21921 0.0
C1569 C 0.44165 0.20323 0.21533 0.0
C1570 C 0.42839 0.22372 0.19685 0.0
C1571 C 0.45142 0.20392 0.21378 0.0
C1572 C 0.46455 0.21172 0.20768 0.0
C1573 C 0.45521 0.21109 0.20886 0.0
C1574 C 0.46639 0.19796 0.21621 0.0
C1575 C 0.47027 0.20517 0.21137 0.0
C1576 C 0.45706 0.19735 0.21741 0.0
C1577 C 0.40721 0.20015 0.22194 0.0
C1578 C 0.40859 0.18827 0.23312 0.0
C1579 C 0.39394 0.19437 0.22964 0.0
C1580 C 0.3979 0.20022 0.22339 0.0
C1581 C 0.39922 0.1883 0.23458 0.0
C1582 C 0.41256 0.19416 0.22684 0.0
C1583 C 0.41113 0.20645 0.21533 0.0
O1584 O 0.42916 0.22531 0.20551 0.0
O1585 O 0.42794 0.2151 0.19494 0.0
O1586 O 0.41478 0.20281 0.20817 0.0
O1587 O 0.41597 0.2131 0.21868 0.0
H1588 H 0.41013 0.22167 0.19552 0.0
H1589 H 0.39965 0.23145 0.18746 0.0
H1590 H 0.42195 0.24848 0.17921 0.0
H1591 H 0.43234 0.23872 0.18735 0.0
H1592 H 0.4673 0.21729 0.20382 0.0
H1593 H 0.45094 0.2162 0.20597 0.0
H1594 H 0.47057 0.19287 0.21925 0.0
H1595 H 0.45426 0.19179 0.22124 0.0
H1596 H 0.41284 0.18365 0.23676 0.0
H1597 H 0.38674 0.1947 0.2307 0.0
H1598 H 0.39368 0.20484 0.2197 0.0
H1599 H 0.41977 0.19402 0.2258 0.0
C1600 C 0.8094 0.84443 0.61643 0.0
C1601 C 0.80811 0.84116 0.62521 0.0
C1602 C 0.79842 0.85384 0.62866 0.0
C1603 C 0.80264 0.84581 0.63127 0.0
C1604 C 0.79984 0.85711 0.61987 0.0
C1605 C 0.80527 0.85244 0.61382 0.0
U1606 U 0.82758 0.82732 0.61064 0.0
O1607 O 0.82814 0.8174 0.59972 0.0
O1608 O 0.83838 0.82814 0.60048 0.0
C1609 C 0.83501 0.82143 0.59576 0.0
C1610 C 0.815 0.83958 0.6099 0.0
C1611 C 0.83415 0.82302 0.58599 0.0
C1612 C 0.82515 0.82598 0.57265 0.0
C1613 C 0.82582 0.82493 0.582 0.0
C1614 C 0.84116 0.82349 0.5712 0.0
C1615 C 0.8328 0.82522 0.56713 0.0
C1616 C 0.84181 0.82239 0.58053 0.0
C1617 C 0.83922 0.81452 0.62988 0.0
C1618 C 0.84792 0.80082 0.62844 0.0
C1619 C 0.84859 0.80943 0.64225 0.0
C1620 C 0.84261 0.81565 0.63861 0.0
C1621 C 0.85129 0.80191 0.63724 0.0
C1622 C 0.84196 0.80709 0.62478 0.0
C1623 C 0.83273 0.82107 0.62636 0.0
O1624 O 0.82364 0.84155 0.61008 0.0
O1625 O 0.81334 0.83091 0.60915 0.0
O1626 O 0.82587 0.81774 0.62183 0.0
O1627 O 0.83623 0.82835 0.62265 0.0
H1628 H 0.81131 0.83501 0.62738 0.0
H1629 H 0.80178 0.84316 0.63801 0.0
H1630 H 0.79661 0.86321 0.61761 0.0
H1631 H 0.80619 0.85506 0.60707 0.0
H1632 H 0.81863 0.82742 0.56974 0.0
H1633 H 0.81982 0.82553 0.58609 0.0
H1634 H 0.84717 0.82275 0.56715 0.0
H1635 H 0.8483 0.82091 0.58348 0.0
H1636 H 0.84994 0.79516 0.62436 0.0
H1637 H 0.85096 0.81042 0.64907 0.0
H1638 H 0.84056 0.82133 0.64265 0.0
H1639 H 0.83946 0.80612 0.618 0.0
C1640 C 0.80847 0.19266 0.42244 0.0
C1641 C 0.80708 0.19582 0.41365 0.0
C1642 C 0.79722 0.18297 0.41046 0.0
C1643 C 0.80149 0.19103 0.40772 0.0
C1644 C 0.79875 0.1798 0.41926 0.0
C1645 C 0.80431 0.1846 0.42518 0.0
U1646 U 0.82656 0.21038 0.42739 0.0
O1647 O 0.82737 0.22054 0.4381 0.0
O1648 O 0.83776 0.21022 0.4371 0.0
C1649 C 0.83453 0.21693 0.44179 0.0
C1650 C 0.81421 0.19768 0.42881 0.0
C1651 C 0.83411 0.21559 0.4516 0.0
C1652 C 0.82706 0.20916 0.46497 0.0
C1653 C 0.82746 0.21009 0.45558 0.0
C1654 C 0.84 0.21911 0.46643 0.0
C1655 C 0.83329 0.21373 0.47052 0.0
C1656 C 0.84039 0.22003 0.45708 0.0
C1657 C 0.83697 0.22324 0.4073 0.0
C1658 C 0.84931 0.23408 0.40836 0.0
C1659 C 0.84207 0.23132 0.394 0.0
C1660 C 0.83628 0.22507 0.39808 0.0
C1661 C 0.8487 0.23588 0.39906 0.0
C1662 C 0.84349 0.2278 0.41244 0.0
C1663 C 0.83083 0.21652 0.41133 0.0
O1664 O 0.82286 0.19602 0.42833 0.0
O1665 O 0.81246 0.20629 0.42959 0.0
O1666 O 0.82418 0.21972 0.41615 0.0
O1667 O 0.83465 0.2095 0.41503 0.0
H1668 H 0.81026 0.20202 0.4114 0.0
H1669 H 0.80039 0.19374 0.40104 0.0
H1670 H 0.79572 0.17355 0.42156 0.0
H1671 H 0.80536 0.18203 0.43193 0.0
H1672 H 0.82177 0.20502 0.46788 0.0
H1673 H 0.82255 0.20661 0.45143 0.0
H1674 H 0.845 0.22259 0.47047 0.0
H1675 H 0.84559 0.22427 0.45412 0.0
H1676 H 0.85437 0.23741 0.41244 0.0
H1677 H 0.84129 0.23265 0.38688 0.0
H1678 H 0.83126 0.22165 0.39402 0.0
H1679 H 0.8441 0.22646 0.41959 0.0
C1680 C 0.80964 0.84498 0.42089 0.0
C1681 C 0.81093 0.84398 0.41159 0.0
C1682 C 0.79894 0.85468 0.40858 0.0
C1683 C 0.80563 0.84879 0.40549 0.0
C1684 C 0.79773 0.85565 0.41793 0.0
C1685 C 0.80303 0.85085 0.42401 0.0
U1686 U 0.82714 0.82717 0.42655 0.0
O1687 O 0.83781 0.82719 0.43681 0.0
O1688 O 0.82705 0.81696 0.43733 0.0
C1689 C 0.83402 0.82061 0.44143 0.0
C1690 C 0.81501 0.83987 0.42741 0.0
C1691 C 0.83304 0.82196 0.45124 0.0
C1692 C 0.83273 0.83157 0.4645 0.0
C1693 C 0.83338 0.83057 0.45515 0.0
C1694 C 0.8312 0.81543 0.46617 0.0
C1695 C 0.83164 0.82401 0.47013 0.0
C1696 C 0.83192 0.81443 0.45685 0.0
C1697 C 0.83823 0.81419 0.40711 0.0
C1698 C 0.85184 0.80528 0.40798 0.0
C1699 C 0.84225 0.80424 0.39484 0.0
C1700 C 0.8364 0.81047 0.39865 0.0
C1701 C 0.8501 0.80162 0.3994 0.0
C1702 C 0.84595 0.8115 0.41181 0.0
C1703 C 0.83207 0.82097 0.41077 0.0
O1704 O 0.81303 0.83125 0.42799 0.0
O1705 O 0.82372 0.84151 0.4273 0.0
O1706 O 0.83586 0.82802 0.41461 0.0
O1707 O 0.82507 0.81782 0.41523 0.0
H1708 H 0.81602 0.83948 0.40906 0.0
H1709 H 0.80682 0.84795 0.39835 0.0
H1710 H 0.79256 0.85999 0.42056 0.0
H1711 H 0.80191 0.85166 0.43117 0.0
H1712 H 0.83301 0.83828 0.46733 0.0
H1713 H 0.83419 0.83652 0.45099 0.0
H1714 H 0.83048 0.80946 0.47031 0.0
H1715 H 0.83167 0.80772 0.454 0.0
H1716 H 0.85785 0.80347 0.41166 0.0
H1717 H 0.84058 0.80145 0.38831 0.0
H1718 H 0.83045 0.81242 0.39495 0.0
H1719 H 0.84748 0.81428 0.41837 0.0
C1720 C 0.19343 0.80734 0.42169 0.0
C1721 C 0.1939 0.80899 0.41239 0.0
C1722 C 0.18401 0.79609 0.40952 0.0
C1723 C 0.18921 0.80343 0.40636 0.0
C1724 C 0.18356 0.79452 0.41886 0.0
C1725 C 0.18823 0.8001 0.42487 0.0
U1726 U 0.21054 0.82597 0.42693 0.0
O1727 O 0.2102 0.83665 0.43714 0.0
O1728 O 0.22096 0.82667 0.43744 0.0
C1729 C 0.21716 0.83348 0.44153 0.0
C1730 C 0.19842 0.81302 0.42812 0.0
C1731 C 0.21609 0.83255 0.45134 0.0
C1732 C 0.20822 0.82667 0.46449 0.0
C1733 C 0.20905 0.82742 0.45511 0.0
C1734 C 0.22146 0.83612 0.46636 0.0
C1735 C 0.21444 0.83099 0.47023 0.0
C1736 C 0.22227 0.83689 0.45702 0.0
C1737 C 0.22254 0.83794 0.40722 0.0
C1738 C 0.23627 0.84698 0.40821 0.0
C1739 C 0.22735 0.8472 0.39456 0.0
C1740 C 0.22121 0.84115 0.39845 0.0
C1741 C 0.23499 0.85015 0.39937 0.0
C1742 C 0.23008 0.84095 0.41211 0.0
C1743 C 0.21611 0.83132 0.41098 0.0
O1744 O 0.20712 0.81162 0.42852 0.0
O1745 O 0.19638 0.8216 0.42806 0.0
O1746 O 0.209 0.83465 0.41499 0.0
O1747 O 0.21962 0.82452 0.41536 0.0
H1748 H 0.19793 0.81454 0.40981 0.0
H1749 H 0.18979 0.80477 0.39922 0.0
H1750 H 0.17953 0.78902 0.42154 0.0
H1751 H 0.18778 0.79874 0.43203 0.0
H1752 H 0.20278 0.8226 0.46724 0.0
H1753 H 0.20423 0.82399 0.45082 0.0
H1754 H 0.22629 0.83966 0.47056 0.0
H1755 H 0.22773 0.8409 0.45422 0.0
H1756 H 0.24202 0.84919 0.41212 0.0
H1757 H 0.22622 0.84941 0.38771 0.0
H1758 H 0.21545 0.83889 0.39456 0.0
H1759 H 0.23121 0.83859 0.41892 0.0
C1760 C 0.19468 0.22937 0.42169 0.0
C1761 C 0.19456 0.22728 0.41248 0.0
C1762 C 0.18495 0.24014 0.40948 0.0
C1763 C 0.18972 0.2326 0.40643 0.0
C1764 C 0.18518 0.24223 0.41871 0.0
C1765 C 0.18999 0.23689 0.42475 0.0
U1766 U 0.21181 0.21117 0.42723 0.0
O1767 O 0.22183 0.21051 0.4381 0.0
O1768 O 0.21113 0.20025 0.43727 0.0
C1769 C 0.21792 0.20352 0.44194 0.0
C1770 C 0.1996 0.22378 0.42818 0.0
C1771 C 0.21653 0.2041 0.45174 0.0
C1772 C 0.212 0.21226 0.46516 0.0
C1773 C 0.21295 0.21181 0.45578 0.0
C1774 C 0.21803 0.19725 0.46651 0.0
C1775 C 0.21462 0.205 0.47065 0.0
C1776 C 0.21899 0.19682 0.45716 0.0
C1777 C 0.22441 0.19969 0.40786 0.0
C1778 C 0.23787 0.19065 0.40942 0.0
C1779 C 0.22969 0.1907 0.39533 0.0
C1780 C 0.22348 0.19667 0.39898 0.0
C1781 C 0.23699 0.18764 0.40048 0.0
C1782 C 0.23162 0.19661 0.41309 0.0
C1783 C 0.21788 0.20617 0.41143 0.0
O1784 O 0.19762 0.21514 0.42804 0.0
O1785 O 0.20828 0.22543 0.4288 0.0
O1786 O 0.22127 0.21297 0.41598 0.0
O1787 O 0.21062 0.20266 0.41516 0.0
H1788 H 0.19819 0.22152 0.40998 0.0
H1789 H 0.18977 0.23086 0.39935 0.0
H1790 H 0.1815 0.24791 0.42131 0.0
H1791 H 0.19 0.2386 0.43183 0.0
H1792 H 0.2094 0.21835 0.46811 0.0
H1793 H 0.21098 0.2175 0.45169 0.0
H1794 H 0.21995 0.19147 0.47049 0.0
H1795 H 0.22171 0.1908 0.45417 0.0
H1796 H 0.24336 0.18835 0.4136 0.0
H1797 H 0.22886 0.18861 0.3884 0.0
H1798 H 0.21797 0.19899 0.39484 0.0
H1799 H 0.23243 0.19882 0.41999 0.0
C1800 C 0.19421 0.22934 0.61647 0.0
C1801 C 0.19325 0.22687 0.62555 0.0
C1802 C 0.18453 0.24036 0.62845 0.0
C1803 C 0.18842 0.23231 0.63148 0.0
C1804 C 0.1856 0.24283 0.61936 0.0
C1805 C 0.19039 0.23736 0.61344 0.0
U1806 U 0.21149 0.21121 0.61106 0.0
O1807 O 0.21083 0.20018 0.60118 0.0
O1808 O 0.22141 0.21056 0.60011 0.0
C1809 C 0.21753 0.20349 0.59639 0.0
C1810 C 0.19912 0.22365 0.61006 0.0
C1811 C 0.21603 0.20403 0.5866 0.0
C1812 C 0.21148 0.2122 0.57316 0.0
C1813 C 0.21242 0.21173 0.58254 0.0
C1814 C 0.21753 0.1972 0.57184 0.0
C1815 C 0.21412 0.20497 0.56768 0.0
C1816 C 0.21848 0.19676 0.58119 0.0
C1817 C 0.22467 0.20029 0.63042 0.0
C1818 C 0.23349 0.18665 0.62928 0.0
C1819 C 0.23492 0.19616 0.64243 0.0
C1820 C 0.2286 0.20205 0.63881 0.0
C1821 C 0.23743 0.18837 0.63774 0.0
C1822 C 0.22718 0.19258 0.62564 0.0
C1823 C 0.21793 0.20657 0.62685 0.0
O1824 O 0.20777 0.2254 0.60926 0.0
O1825 O 0.19724 0.21499 0.61041 0.0
O1826 O 0.21066 0.20291 0.62331 0.0
O1827 O 0.22115 0.21335 0.62212 0.0
H1828 H 0.19621 0.22072 0.62804 0.0
H1829 H 0.1878 0.23027 0.63845 0.0
H1830 H 0.18261 0.24892 0.61677 0.0
H1831 H 0.19106 0.23938 0.60645 0.0
H1832 H 0.20889 0.2183 0.57019 0.0
H1833 H 0.21046 0.21742 0.58661 0.0
H1834 H 0.21946 0.19144 0.56787 0.0
H1835 H 0.22122 0.19074 0.58421 0.0
H1836 H 0.23534 0.18077 0.62545 0.0
H1837 H 0.23773 0.19764 0.649 0.0
H1838 H 0.22674 0.20796 0.6426 0.0
H1839 H 0.22426 0.19114 0.61911 0.0
C1840 C 0.80984 0.19204 0.6163 0.0
C1841 C 0.81042 0.19381 0.62556 0.0
C1842 C 0.79881 0.18246 0.6286 0.0
C1843 C 0.80495 0.18907 0.63165 0.0
C1844 C 0.79832 0.1807 0.61931 0.0
C1845 C 0.80379 0.18544 0.61322 0.0
U1846 U 0.82796 0.20962 0.61086 0.0
O1847 O 0.83882 0.20943 0.60077 0.0
O1848 O 0.8285 0.21985 0.60016 0.0
C1849 C 0.83551 0.21623 0.59623 0.0
C1850 C 0.81543 0.19707 0.60979 0.0
C1851 C 0.83481 0.215 0.58643 0.0
C1852 C 0.82745 0.2087 0.5732 0.0
C1853 C 0.82807 0.20955 0.58258 0.0
C1854 C 0.84036 0.21865 0.57147 0.0
C1855 C 0.83355 0.21331 0.56752 0.0
C1856 C 0.84097 0.21949 0.58082 0.0
C1857 C 0.83929 0.22237 0.63037 0.0
C1858 C 0.84883 0.23567 0.62862 0.0
C1859 C 0.84732 0.22855 0.64323 0.0
C1860 C 0.84152 0.22208 0.63952 0.0
C1861 C 0.85102 0.23546 0.63784 0.0
C1862 C 0.84303 0.22916 0.62491 0.0
C1863 C 0.83292 0.21564 0.62674 0.0
O1864 O 0.81374 0.20571 0.60917 0.0
O1865 O 0.82408 0.19532 0.60999 0.0
O1866 O 0.83653 0.20859 0.62292 0.0
O1867 O 0.82606 0.21885 0.62222 0.0
H1868 H 0.81508 0.19888 0.62805 0.0
H1869 H 0.80558 0.19053 0.63876 0.0
H1870 H 0.7936 0.17575 0.6167 0.0
H1871 H 0.80324 0.18401 0.6061 0.0
H1872 H 0.82209 0.20458 0.5704 0.0
H1873 H 0.82325 0.20603 0.58683 0.0
H1874 H 0.84527 0.22216 0.56733 0.0
H1875 H 0.84624 0.22369 0.58367 0.0
H1876 H 0.85163 0.24083 0.62426 0.0
H1877 H 0.84875 0.22825 0.65037 0.0
H1878 H 0.83868 0.2169 0.64385 0.0
H1879 H 0.84141 0.22946 0.6178 0.0
C1880 C 0.19343 0.80778 0.61604 0.0
C1881 C 0.19683 0.8061 0.62469 0.0
C1882 C 0.18368 0.79678 0.62824 0.0
C1883 C 0.19202 0.80062 0.63072 0.0
C1884 C 0.18025 0.79861 0.61961 0.0
C1885 C 0.18509 0.80405 0.61357 0.0
U1886 U 0.21133 0.82559 0.61054 0.0
O1887 O 0.22153 0.82598 0.59981 0.0
O1888 O 0.21129 0.83648 0.60047 0.0
C1889 C 0.21801 0.83305 0.5959 0.0
C1890 C 0.19851 0.81333 0.60952 0.0
C1891 C 0.21674 0.83237 0.5861 0.0
C1892 C 0.20867 0.82676 0.57297 0.0
C1893 C 0.2096 0.82738 0.58235 0.0
C1894 C 0.222 0.8361 0.57106 0.0
C1895 C 0.2149 0.83108 0.56721 0.0
C1896 C 0.2229 0.83673 0.5804 0.0
C1897 C 0.22443 0.83647 0.63014 0.0
C1898 C 0.23367 0.85006 0.62928 0.0
C1899 C 0.23429 0.8406 0.64255 0.0
C1900 C 0.22798 0.83472 0.63869 0.0
C1901 C 0.23716 0.8484 0.63793 0.0
C1902 C 0.22737 0.84414 0.62541 0.0
C1903 C 0.21759 0.83027 0.62642 0.0
O1904 O 0.19691 0.822 0.60977 0.0
O1905 O 0.20711 0.81149 0.60876 0.0
O1906 O 0.22068 0.82342 0.62183 0.0
O1907 O 0.21055 0.83402 0.62265 0.0
H1908 H 0.20323 0.80899 0.62676 0.0
H1909 H 0.1948 0.79944 0.63735 0.0
H1910 H 0.1739 0.79569 0.61745 0.0
H1911 H 0.18235 0.80528 0.60693 0.0
H1912 H 0.20317 0.82278 0.57024 0.0
H1913 H 0.20479 0.82394 0.58666 0.0
H1914 H 0.22684 0.83963 0.56684 0.0
H1915 H 0.22844 0.84063 0.58317 0.0
H1916 H 0.23567 0.85603 0.62556 0.0
H1917 H 0.23695 0.839 0.64914 0.0
H1918 H 0.22584 0.8288 0.64242 0.0
H1919 H 0.22472 0.8456 0.61878 0.0
H1920 H 0.18377 0.25852 0.40892 0.0
H1921 H 0.17455 0.26768 0.39886 0.0
H1922 H 0.16513 0.2437 0.38542 0.0
H1923 H 0.17416 0.23447 0.39558 0.0
H1924 H 0.17472 0.26876 0.37964 0.0
H1925 H 0.14178 0.25656 0.39285 0.0
H1926 H 0.15222 0.25489 0.39881 0.0
H1927 H 0.14936 0.24791 0.38935 0.0
C1928 C 0.17969 0.25519 0.40387 0.0
C1929 C 0.17966 0.24575 0.4031 0.0
C1930 C 0.17447 0.26044 0.39809 0.0
C1931 C 0.16906 0.25637 0.39148 0.0
C1932 C 0.16915 0.24697 0.39057 0.0
H1933 H 0.13025 0.27694 0.35294 0.0
H1934 H 0.14031 0.26757 0.36191 0.0
C1935 C 0.17439 0.24171 0.39632 0.0
C1936 C 0.16331 0.26196 0.38557 0.0
H1937 H 0.14141 0.26617 0.38018 0.0
C1938 C 0.16744 0.26822 0.37976 0.0
C1939 C 0.15381 0.26122 0.38573 0.0
C1940 C 0.14899 0.25484 0.39206 0.0
C1941 C 0.16232 0.27367 0.374 0.0
C1942 C 0.15281 0.27298 0.37421 0.0
C1943 C 0.14869 0.26669 0.38001 0.0
C1944 C 0.14696 0.27875 0.36854 0.0
C1945 C 0.16716 0.27998 0.36762 0.0
C1946 C 0.14731 0.28816 0.36931 0.0
C1947 C 0.14157 0.29354 0.36419 0.0
C1948 C 0.13528 0.28961 0.35826 0.0
C1949 C 0.13495 0.28018 0.35751 0.0
C1950 C 0.14072 0.27481 0.3626 0.0
H1951 H 0.17422 0.27787 0.36644 0.0
H1952 H 0.16365 0.28033 0.36103 0.0
H1953 H 0.16736 0.28682 0.37057 0.0
H1954 H 0.15191 0.29135 0.37401 0.0
H1955 H 0.1419 0.30077 0.36504 0.0
H1956 H 0.7993 0.18022 0.39229 0.0
H1957 H 0.78911 0.17223 0.38205 0.0
H1958 H 0.7714 0.16596 0.40424 0.0
H1959 H 0.78132 0.17424 0.41445 0.0
H1960 H 0.78355 0.15451 0.38206 0.0
H1961 H 0.75418 0.17683 0.38617 0.0
H1962 H 0.7653 0.17991 0.39006 0.0
H1963 H 0.75833 0.17239 0.3966 0.0
C1964 C 0.79317 0.17726 0.39498 0.0
C1965 C 0.79112 0.17795 0.40421 0.0
C1966 C 0.78739 0.17263 0.38912 0.0
C1967 C 0.77941 0.16861 0.39234 0.0
C1968 C 0.77742 0.16915 0.40156 0.0
H1969 H 0.73606 0.13743 0.36767 0.0
H1970 H 0.74659 0.14469 0.37815 0.0
C1971 C 0.78317 0.1738 0.40742 0.0
C1972 C 0.77326 0.16375 0.38608 0.0
H1973 H 0.75166 0.16323 0.37816 0.0
C1974 C 0.77659 0.15644 0.38117 0.0
C1975 C 0.76416 0.16627 0.38493 0.0
C1976 C 0.76029 0.17433 0.38965 0.0
C1977 C 0.77105 0.15151 0.37527 0.0
C1978 C 0.76196 0.15401 0.37416 0.0
C1979 C 0.75862 0.1613 0.37906 0.0
C1980 C 0.75583 0.14925 0.36781 0.0
C1981 C 0.77492 0.14355 0.37038 0.0
C1982 C 0.75752 0.14943 0.35852 0.0
C1983 C 0.75153 0.14528 0.35252 0.0
C1984 C 0.74371 0.14089 0.35569 0.0
C1985 C 0.74208 0.14066 0.36502 0.0
C1986 C 0.74805 0.14485 0.37101 0.0
H1987 H 0.78122 0.14119 0.37359 0.0
H1988 H 0.77 0.13788 0.37017 0.0
H1989 H 0.77651 0.14553 0.36335 0.0
H1990 H 0.76341 0.1529 0.35589 0.0
H1991 H 0.75302 0.14553 0.34539 0.0
H1992 H 0.85524 0.80082 0.38171 0.0
H1993 H 0.86527 0.79005 0.3746 0.0
H1994 H 0.8698 0.77738 0.40031 0.0
H1995 H 0.85946 0.7879 0.40743 0.0
H1996 H 0.88311 0.78693 0.37769 0.0
H1997 H 0.86299 0.756 0.38464 0.0
H1998 H 0.85848 0.76714 0.38603 0.0
H1999 H 0.86574 0.76247 0.39447 0.0
C2000 C 0.85825 0.79566 0.38585 0.0
C2001 C 0.85644 0.79518 0.39514 0.0
C2002 C 0.86405 0.78955 0.38178 0.0
C2003 C 0.86818 0.78281 0.38688 0.0
C2004 C 0.86655 0.7824 0.39619 0.0
H2005 H 0.90627 0.74094 0.37241 0.0
H2006 H 0.89643 0.75132 0.38045 0.0
C2007 C 0.86071 0.7885 0.40028 0.0
C2008 C 0.87432 0.77634 0.38245 0.0
H2009 H 0.8774 0.754 0.37817 0.0
C2010 C 0.88185 0.77974 0.37778 0.0
C2011 C 0.87268 0.76694 0.38257 0.0
C2012 C 0.8645 0.7629 0.38712 0.0
C2013 C 0.88781 0.774 0.3733 0.0
C2014 C 0.88613 0.76462 0.37338 0.0
C2015 C 0.87867 0.7612 0.37812 0.0
C2016 C 0.892 0.75826 0.36847 0.0
C2017 C 0.89592 0.77801 0.36861 0.0
C2018 C 0.89266 0.75863 0.35905 0.0
C2019 C 0.89828 0.75272 0.35444 0.0
C2020 C 0.90334 0.74631 0.35915 0.0
C2021 C 0.90255 0.74588 0.36858 0.0
C2022 C 0.8969 0.75176 0.37319 0.0
H2023 H 0.89743 0.78495 0.37098 0.0
H2024 H 0.90195 0.7738 0.36969 0.0
H2025 H 0.8946 0.77832 0.36126 0.0
H2026 H 0.88884 0.76351 0.35527 0.0
H2027 H 0.89877 0.75329 0.34718 0.0
H2028 H 0.27885 0.90949 0.35361 0.0
H2029 H 0.26877 0.89934 0.36191 0.0
H2030 H 0.29157 0.88413 0.37104 0.0
H2031 H 0.30173 0.89439 0.36293 0.0
H2032 H 0.26674 0.88048 0.35997 0.0
H2033 H 0.27786 0.88973 0.39448 0.0
H2034 H 0.28047 0.89658 0.38475 0.0
H2035 H 0.28668 0.88651 0.3869 0.0
C2036 C 0.28174 0.90405 0.35746 0.0
C2037 C 0.29112 0.9028 0.35765 0.0
C2038 C 0.27596 0.89822 0.36216 0.0
C2039 C 0.27942 0.89105 0.3672 0.0
C2040 C 0.28876 0.8897 0.36732 0.0
H2041 H 0.25343 0.84949 0.40007 0.0
H2042 H 0.2643 0.8593 0.39231 0.0
C2043 C 0.29455 0.89552 0.3626 0.0
C2044 C 0.27321 0.88492 0.37216 0.0
H2045 H 0.26733 0.87775 0.39326 0.0
C2046 C 0.26686 0.87989 0.36725 0.0
C2047 C 0.27341 0.88412 0.38165 0.0
C2048 C 0.27991 0.88956 0.38729 0.0
C2049 C 0.26073 0.87405 0.37156 0.0
C2050 C 0.26082 0.87335 0.38107 0.0
C2051 C 0.26725 0.8783 0.38598 0.0
C2052 C 0.25423 0.86761 0.38603 0.0
C2053 C 0.25431 0.86855 0.36587 0.0
C2054 C 0.24495 0.86916 0.38525 0.0
C2055 C 0.23873 0.86358 0.38968 0.0
C2056 C 0.24165 0.85637 0.39505 0.0
C2057 C 0.25095 0.85501 0.39604 0.0
C2058 C 0.25718 0.86058 0.39158 0.0
H2059 H 0.25676 0.86792 0.35883 0.0
H2060 H 0.25332 0.8617 0.36872 0.0
H2061 H 0.24769 0.8719 0.36567 0.0
H2062 H 0.24252 0.87469 0.3812 0.0
H2063 H 0.23163 0.86493 0.38892 0.0
H2064 H 0.13022 0.74923 0.67928 0.0
H2065 H 0.13745 0.75965 0.66865 0.0
H2066 H 0.16275 0.74627 0.67253 0.0
H2067 H 0.15553 0.73564 0.68285 0.0
H2068 H 0.15152 0.77154 0.67144 0.0
H2069 H 0.16078 0.74675 0.64534 0.0
H2070 H 0.15292 0.74414 0.65426 0.0
H2071 H 0.16485 0.74384 0.65632 0.0
C2072 C 0.13729 0.74841 0.67777 0.0
C2073 C 0.14228 0.74156 0.68192 0.0
C2074 C 0.14143 0.75442 0.67174 0.0
C2075 C 0.15061 0.75366 0.66968 0.0
C2076 C 0.15562 0.74688 0.67387 0.0
H2077 H 0.19043 0.78345 0.63894 0.0
H2078 H 0.18214 0.77334 0.64908 0.0
C2079 C 0.15149 0.74087 0.67987 0.0
C2080 C 0.15505 0.7601 0.66337 0.0
H2081 H 0.16763 0.7613 0.64414 0.0
C2082 C 0.15497 0.76932 0.66542 0.0
C2083 C 0.15955 0.75719 0.65552 0.0
C2084 C 0.15947 0.74745 0.65266 0.0
C2085 C 0.15949 0.77566 0.65998 0.0
C2086 C 0.16413 0.77272 0.65223 0.0
C2087 C 0.16412 0.76353 0.65011 0.0
C2088 C 0.16912 0.77905 0.64626 0.0
C2089 C 0.15947 0.78544 0.66267 0.0
C2090 C 0.16454 0.7856 0.64127 0.0
C2091 C 0.16926 0.79139 0.63547 0.0
C2092 C 0.17866 0.79076 0.63455 0.0
C2093 C 0.18322 0.7842 0.63959 0.0
C2094 C 0.17848 0.77838 0.64534 0.0
H2095 H 0.15725 0.78634 0.66975 0.0
H2096 H 0.16628 0.78849 0.66187 0.0
H2097 H 0.15478 0.78915 0.65825 0.0
H2098 H 0.15729 0.78615 0.64179 0.0
H2099 H 0.16556 0.7964 0.63174 0.0
H2100 H 0.29954 0.14602 0.68072 0.0
H2101 H 0.2893 0.15619 0.67293 0.0
H2102 H 0.27211 0.13372 0.66597 0.0
H2103 H 0.28207 0.12356 0.67406 0.0
H2104 H 0.28409 0.15653 0.65515 0.0
H2105 H 0.25437 0.15095 0.67714 0.0
H2106 H 0.26549 0.1473 0.68022 0.0
H2107 H 0.25878 0.14078 0.6725 0.0
C2108 C 0.29351 0.14325 0.67765 0.0
C2109 C 0.29162 0.13395 0.67808 0.0
C2110 C 0.2877 0.14907 0.67313 0.0
C2111 C 0.27986 0.14575 0.66898 0.0
C2112 C 0.27802 0.13647 0.66928 0.0
H2113 H 0.23663 0.16994 0.63803 0.0
H2114 H 0.2472 0.15959 0.64515 0.0
C2115 C 0.2838 0.13065 0.67381 0.0
C2116 C 0.27368 0.15196 0.66422 0.0
H2117 H 0.25195 0.15924 0.66369 0.0
C2118 C 0.27707 0.15715 0.65704 0.0
C2119 C 0.26452 0.15277 0.66669 0.0
C2120 C 0.26058 0.14773 0.67461 0.0
C2121 C 0.27152 0.16301 0.65218 0.0
C2122 C 0.26236 0.16379 0.65463 0.0
C2123 C 0.25897 0.1586 0.66179 0.0
C2124 C 0.2562 0.17006 0.64996 0.0
C2125 C 0.27545 0.16821 0.64436 0.0
C2126 C 0.25773 0.17938 0.65032 0.0
C2127 C 0.25172 0.18531 0.64624 0.0
C2128 C 0.24402 0.18204 0.64174 0.0
C2129 C 0.24255 0.17268 0.64133 0.0
C2130 C 0.24855 0.16676 0.64545 0.0
H2131 H 0.28184 0.16524 0.64196 0.0
H2132 H 0.27063 0.16845 0.63865 0.0
H2133 H 0.2769 0.17522 0.6465 0.0
H2134 H 0.26352 0.18209 0.65388 0.0
H2135 H 0.2531 0.19247 0.64662 0.0
H2136 H 0.86437 0.2333 0.65038 0.0
H2137 H 0.8733 0.24502 0.65786 0.0
H2138 H 0.86018 0.26527 0.64191 0.0
H2139 H 0.85104 0.25362 0.63457 0.0
H2140 H 0.8852 0.25832 0.65072 0.0
H2141 H 0.85589 0.2735 0.66798 0.0
H2142 H 0.85534 0.26254 0.66279 0.0
H2143 H 0.85481 0.27252 0.65598 0.0
C2144 C 0.86334 0.24025 0.64849 0.0
C2145 C 0.85692 0.24252 0.64193 0.0
C2146 C 0.8685 0.24694 0.65273 0.0
C2147 C 0.86731 0.25603 0.65054 0.0
C2148 C 0.86111 0.25831 0.64381 0.0
H2149 H 0.88886 0.3058 0.67302 0.0
H2150 H 0.88131 0.29444 0.66373 0.0
C2151 C 0.85595 0.25163 0.63955 0.0
C2152 C 0.87243 0.26312 0.65545 0.0
H2153 H 0.86989 0.281 0.66958 0.0
C2154 C 0.88187 0.26328 0.65485 0.0
C2155 C 0.86806 0.26958 0.66084 0.0
C2156 C 0.85797 0.26952 0.66203 0.0
C2157 C 0.88704 0.26981 0.65941 0.0
C2158 C 0.88267 0.27623 0.66485 0.0
C2159 C 0.87324 0.27609 0.6654 0.0
C2160 C 0.88772 0.28311 0.67014 0.0
C2161 C 0.89713 0.26986 0.65824 0.0
C2162 C 0.89384 0.28053 0.67684 0.0
C2163 C 0.89816 0.28701 0.68218 0.0
C2164 C 0.89637 0.29622 0.68099 0.0
C2165 C 0.89031 0.29877 0.6742 0.0
C2166 C 0.88602 0.29229 0.66885 0.0
H2167 H 0.89916 0.26626 0.65203 0.0
H2168 H 0.89985 0.27684 0.65794 0.0
H2169 H 0.90025 0.26641 0.66406 0.0
H2170 H 0.8951 0.27348 0.67811 0.0
H2171 H 0.90267 0.2848 0.68744 0.0
H2172 H 0.75058 0.90704 0.67815 0.0
H2173 H 0.76092 0.89971 0.6677 0.0
H2174 H 0.74877 0.87398 0.67395 0.0
H2175 H 0.73821 0.88126 0.6841 0.0
H2176 H 0.7735 0.8866 0.67108 0.0
H2177 H 0.74815 0.87404 0.64666 0.0
H2178 H 0.74556 0.88235 0.65508 0.0
H2179 H 0.74583 0.87061 0.65802 0.0
C2180 C 0.75002 0.89984 0.6772 0.0
C2181 C 0.74353 0.89476 0.68197 0.0
C2182 C 0.75598 0.89565 0.67127 0.0
C2183 C 0.75554 0.88631 0.66993 0.0
C2184 C 0.74913 0.88122 0.67473 0.0
H2185 H 0.78576 0.84673 0.64014 0.0
H2186 H 0.77571 0.85482 0.6503 0.0
C2187 C 0.74317 0.88539 0.68063 0.0
C2188 C 0.76192 0.88184 0.66371 0.0
H2189 H 0.76294 0.86815 0.6453 0.0
C2190 C 0.7712 0.88263 0.6654 0.0
C2191 C 0.75891 0.87665 0.6563 0.0
C2192 C 0.74908 0.87592 0.65384 0.0
C2193 C 0.77752 0.87818 0.66001 0.0
C2194 C 0.7745 0.87289 0.65269 0.0
C2195 C 0.76524 0.87217 0.65095 0.0
C2196 C 0.78083 0.86803 0.64674 0.0
C2197 C 0.78738 0.87899 0.66234 0.0
C2198 C 0.78701 0.87278 0.64134 0.0
C2199 C 0.79277 0.86818 0.63554 0.0
C2200 C 0.79246 0.85873 0.63502 0.0
C2201 C 0.78627 0.854 0.64047 0.0
C2202 C 0.78048 0.85861 0.64623 0.0
H2203 H 0.78843 0.88155 0.66928 0.0
H2204 H 0.79075 0.87239 0.66169 0.0
H2205 H 0.79069 0.88376 0.6576 0.0
H2206 H 0.7873 0.88006 0.64152 0.0
H2207 H 0.7975 0.87203 0.63148 0.0
H2208 H 0.34467 0.14196 0.28314 0.0
H2209 H 0.35415 0.14976 0.27209 0.0
H2210 H 0.37615 0.15019 0.29101 0.0
H2211 H 0.36671 0.14234 0.3021 0.0
H2212 H 0.36172 0.16647 0.27386 0.0
H2213 H 0.38845 0.14129 0.26833 0.0
H2214 H 0.37796 0.13852 0.27387 0.0
H2215 H 0.38678 0.14428 0.2799 0.0
C2216 C 0.35154 0.14368 0.28494 0.0
C2217 C 0.35493 0.14154 0.29352 0.0
C2218 C 0.35696 0.14811 0.2786 0.0
C2219 C 0.3659 0.15048 0.28067 0.0
C2220 C 0.36935 0.14825 0.28918 0.0
H2221 H 0.40533 0.18353 0.25139 0.0
H2222 H 0.39761 0.17415 0.26265 0.0
C2223 C 0.36394 0.14377 0.29552 0.0
C2224 C 0.37136 0.15577 0.27409 0.0
H2225 H 0.39071 0.15565 0.26162 0.0
C2226 C 0.36804 0.16408 0.27117 0.0
C2227 C 0.37964 0.15268 0.27063 0.0
C2228 C 0.3834 0.14367 0.27327 0.0
C2229 C 0.37277 0.16939 0.26489 0.0
C2230 C 0.38098 0.16626 0.26134 0.0
C2231 C 0.3844 0.15802 0.26435 0.0
C2232 C 0.38597 0.1714 0.25432 0.0
C2233 C 0.36897 0.17837 0.26218 0.0
C2234 C 0.3821 0.17276 0.24583 0.0
C2235 C 0.38649 0.17806 0.23937 0.0
C2236 C 0.39489 0.18212 0.24126 0.0
C2237 C 0.3989 0.18048 0.24968 0.0
C2238 C 0.39449 0.17515 0.25614 0.0
H2239 H 0.36387 0.18075 0.26707 0.0
H2240 H 0.37439 0.18354 0.26159 0.0
H2241 H 0.36566 0.17771 0.25551 0.0
H2242 H 0.3756 0.16978 0.24422 0.0
H2243 H 0.38329 0.179 0.2329 0.0
H2244 H 0.8668 0.38977 0.23158 0.0
H2245 H 0.87662 0.38244 0.24253 0.0
H2246 H 0.86109 0.39358 0.26425 0.0
H2247 H 0.85111 0.40078 0.25334 0.0
H2248 H 0.8871 0.39035 0.25662 0.0
H2249 H 0.86133 0.36631 0.26977 0.0
H2250 H 0.85991 0.37236 0.25933 0.0
H2251 H 0.85821 0.37796 0.26988 0.0
C2252 C 0.86543 0.39061 0.23868 0.0
C2253 C 0.85812 0.39581 0.24157 0.0
C2254 C 0.87108 0.38646 0.24493 0.0
C2255 C 0.86951 0.38736 0.2542 0.0
C2256 C 0.86234 0.39268 0.25713 0.0
H2257 H 0.89617 0.36379 0.30096 0.0
H2258 H 0.88616 0.37215 0.29095 0.0
C2259 C 0.8567 0.39687 0.25088 0.0
C2260 C 0.87541 0.38273 0.26077 0.0
H2261 H 0.87555 0.36628 0.27686 0.0
C2262 C 0.88458 0.38509 0.26105 0.0
C2263 C 0.8721 0.37589 0.26657 0.0
C2264 C 0.86237 0.3729 0.26636 0.0
C2265 C 0.89053 0.38083 0.267 0.0
C2266 C 0.88725 0.37387 0.27269 0.0
C2267 C 0.87806 0.37159 0.27249 0.0
C2268 C 0.8933 0.36874 0.27876 0.0
C2269 C 0.90023 0.38392 0.26724 0.0
C2270 C 0.90054 0.3639 0.27522 0.0
C2271 C 0.90626 0.35912 0.28091 0.0
C2272 C 0.90482 0.35899 0.29028 0.0
C2273 C 0.89744 0.36369 0.29378 0.0
C2274 C 0.89174 0.36851 0.28808 0.0
H2275 H 0.90104 0.39086 0.26454 0.0
H2276 H 0.90294 0.38375 0.2742 0.0
H2277 H 0.90432 0.37939 0.26301 0.0
H2278 H 0.90174 0.36377 0.26803 0.0
H2279 H 0.91176 0.35542 0.27796 0.0
H2280 H 0.68209 0.89014 0.29854 0.0
H2281 H 0.67417 0.87984 0.28836 0.0
H2282 H 0.66685 0.90219 0.27144 0.0
H2283 H 0.67506 0.91247 0.28134 0.0
H2284 H 0.65631 0.87926 0.28343 0.0
H2285 H 0.6778 0.88507 0.2534 0.0
H2286 H 0.68104 0.88878 0.2645 0.0
H2287 H 0.67319 0.89519 0.25795 0.0
C2288 C 0.67891 0.89286 0.29259 0.0
C2289 C 0.67927 0.90215 0.29076 0.0
C2290 C 0.67432 0.88696 0.28681 0.0
C2291 C 0.67003 0.89022 0.27906 0.0
C2292 C 0.67026 0.89949 0.27728 0.0
H2293 H 0.63832 0.86582 0.23617 0.0
H2294 H 0.64565 0.87618 0.24674 0.0
C2295 C 0.67487 0.90538 0.28303 0.0
C2296 C 0.66519 0.88393 0.27291 0.0
H2297 H 0.6643 0.87666 0.25112 0.0
C2298 C 0.65808 0.87866 0.27637 0.0
C2299 C 0.66751 0.88315 0.2637 0.0
C2300 C 0.67535 0.88828 0.25967 0.0
C2301 C 0.65314 0.87275 0.27085 0.0
C2302 C 0.65542 0.87201 0.26164 0.0
C2303 C 0.66252 0.87728 0.25817 0.0
C2304 C 0.65063 0.86572 0.25549 0.0
C2305 C 0.64539 0.86746 0.27486 0.0
C2306 C 0.65102 0.85639 0.25689 0.0
C2307 C 0.64683 0.85046 0.25088 0.0
C2308 C 0.64217 0.85372 0.24332 0.0
C2309 C 0.64174 0.86308 0.24198 0.0
C2310 C 0.64597 0.86901 0.24798 0.0
H2311 H 0.64312 0.87038 0.28134 0.0
H2312 H 0.63959 0.86719 0.27015 0.0
H2313 H 0.64756 0.86046 0.27617 0.0
H2314 H 0.65469 0.8537 0.26257 0.0
H2315 H 0.64723 0.8433 0.25215 0.0
H2316 H 0.18779 0.64429 0.24667 0.0
H2317 H 0.1789 0.65421 0.25627 0.0
H2318 H 0.15786 0.63406 0.25774 0.0
H2319 H 0.16659 0.62417 0.24807 0.0
H2320 H 0.16123 0.66094 0.25358 0.0
H2321 H 0.16321 0.63982 0.28432 0.0
H2322 H 0.1706 0.63833 0.2748 0.0
H2323 H 0.1593 0.63389 0.27453 0.0
C2324 C 0.18124 0.64199 0.24897 0.0
C2325 C 0.17795 0.63338 0.24664 0.0
C2326 C 0.17619 0.64765 0.2545 0.0
C2327 C 0.16779 0.64481 0.25785 0.0
C2328 C 0.16442 0.63631 0.25541 0.0
H2329 H 0.12516 0.66581 0.29073 0.0
H2330 H 0.13523 0.65699 0.2813 0.0
C2331 C 0.16944 0.63065 0.24988 0.0
C2332 C 0.16247 0.65075 0.2638 0.0
H2333 H 0.15277 0.65182 0.28461 0.0
C2334 C 0.15944 0.65899 0.26039 0.0
C2335 C 0.16015 0.6482 0.27269 0.0
C2336 C 0.16354 0.63962 0.27686 0.0
C2337 C 0.15389 0.66461 0.26553 0.0
C2338 C 0.15144 0.66198 0.27438 0.0
C2339 C 0.15461 0.65381 0.27783 0.0
C2340 C 0.14538 0.66746 0.28007 0.0
C2341 C 0.15043 0.67315 0.26133 0.0
C2342 C 0.14779 0.67626 0.28262 0.0
C2343 C 0.142 0.68136 0.28797 0.0
C2344 C 0.1337 0.67774 0.29092 0.0
C2345 C 0.1314 0.66887 0.28846 0.0
C2346 C 0.13719 0.66379 0.28312 0.0
H2347 H 0.1511 0.67309 0.25388 0.0
H2348 H 0.14325 0.67419 0.26308 0.0
H2349 H 0.15439 0.67896 0.26393 0.0
H2350 H 0.15415 0.67918 0.2805 0.0
H2351 H 0.14397 0.68817 0.28969 0.0
H2352 H 0.41473 0.86352 0.78158 0.0
H2353 H 0.40458 0.87188 0.7718 0.0
H2354 H 0.38242 0.86572 0.78961 0.0
H2355 H 0.3926 0.85767 0.79964 0.0
H2356 H 0.38975 0.86588 0.76271 0.0
H2357 H 0.38001 0.89268 0.78659 0.0
H2358 H 0.38937 0.88533 0.78865 0.0
H2359 H 0.37804 0.88152 0.79081 0.0
C2360 C 0.40773 0.86407 0.78352 0.0
C2361 C 0.40452 0.85996 0.79146 0.0
C2362 C 0.40191 0.8688 0.77787 0.0
C2363 C 0.39276 0.86956 0.78003 0.0
C2364 C 0.3895 0.8654 0.78789 0.0
H2365 H 0.34634 0.89191 0.75284 0.0
H2366 H 0.35675 0.88449 0.76317 0.0
C2367 C 0.39531 0.86068 0.79357 0.0
C2368 C 0.3866 0.87447 0.77389 0.0
H2369 H 0.37173 0.89183 0.7729 0.0
C2370 C 0.38586 0.87159 0.76493 0.0
C2371 C 0.3815 0.88192 0.77679 0.0
C2372 C 0.38231 0.88561 0.78621 0.0
C2373 C 0.38005 0.87583 0.75883 0.0
C2374 C 0.37493 0.88325 0.76173 0.0
C2375 C 0.37566 0.88614 0.77069 0.0
C2376 C 0.3687 0.88801 0.75558 0.0
C2377 C 0.37929 0.87223 0.74937 0.0
C2378 C 0.37199 0.89261 0.74798 0.0
C2379 C 0.36606 0.89684 0.74204 0.0
C2380 C 0.35672 0.89657 0.74361 0.0
C2381 C 0.35348 0.89214 0.75136 0.0
C2382 C 0.35942 0.88794 0.7573 0.0
H2383 H 0.38202 0.86532 0.74881 0.0
H2384 H 0.37217 0.87212 0.7471 0.0
H2385 H 0.38317 0.87667 0.74474 0.0
H2386 H 0.37915 0.89287 0.7466 0.0
H2387 H 0.36878 0.90014 0.73612 0.0
H2388 H 0.13945 0.36628 0.73611 0.0
H2389 H 0.14698 0.37655 0.74662 0.0
H2390 H 0.15346 0.35417 0.76385 0.0
H2391 H 0.14597 0.34386 0.75337 0.0
H2392 H 0.1439 0.38011 0.76463 0.0
H2393 H 0.17798 0.36596 0.75993 0.0
H2394 H 0.16871 0.36329 0.75253 0.0
H2395 H 0.16964 0.35779 0.76327 0.0
C2396 C 0.14241 0.36355 0.74217 0.0
C2397 C 0.14217 0.35424 0.74386 0.0
C2398 C 0.14675 0.36943 0.74816 0.0
C2399 C 0.15095 0.36612 0.75594 0.0
C2400 C 0.15049 0.35686 0.75777 0.0
H2401 H 0.18086 0.391 0.7999 0.0
H2402 H 0.17267 0.38065 0.78997 0.0
C2403 C 0.14619 0.35098 0.75178 0.0
C2404 C 0.15579 0.37235 0.76213 0.0
H2405 H 0.17635 0.37673 0.77157 0.0
C2406 C 0.151 0.37939 0.76612 0.0
C2407 C 0.16506 0.37141 0.76407 0.0
C2408 C 0.17068 0.36426 0.75967 0.0
C2409 C 0.15521 0.38543 0.7721 0.0
C2410 C 0.16447 0.38447 0.77405 0.0
C2411 C 0.16925 0.37742 0.77009 0.0
C2412 C 0.16936 0.39079 0.78009 0.0
C2413 C 0.14967 0.39269 0.77641 0.0
C2414 C 0.17033 0.3999 0.77777 0.0
C2415 C 0.17507 0.40582 0.78339 0.0
C2416 C 0.17897 0.40275 0.79145 0.0
C2417 C 0.17803 0.39359 0.79371 0.0
C2418 C 0.17331 0.38767 0.78807 0.0
H2419 H 0.14234 0.39118 0.77597 0.0
H2420 H 0.15152 0.39357 0.7836 0.0
H2421 H 0.15098 0.39916 0.77288 0.0
H2422 H 0.16751 0.40242 0.77155 0.0
H2423 H 0.1758 0.41278 0.78132 0.0
H2424 H 0.62499 0.16579 0.79081 0.0
H2425 H 0.63499 0.15709 0.7812 0.0
H2426 H 0.65373 0.17942 0.78018 0.0
H2427 H 0.64371 0.18824 0.78972 0.0
H2428 H 0.641 0.16148 0.76368 0.0
H2429 H 0.66963 0.1581 0.78748 0.0
H2430 H 0.65856 0.16146 0.79108 0.0
H2431 H 0.66589 0.16939 0.78553 0.0
C2432 C 0.63121 0.16889 0.78851 0.0
C2433 C 0.63352 0.17774 0.79104 0.0
C2434 C 0.63695 0.16388 0.78306 0.0
C2435 C 0.64515 0.16756 0.78005 0.0
C2436 C 0.64751 0.17638 0.78256 0.0
H2437 H 0.6875 0.14461 0.74644 0.0
H2438 H 0.67832 0.15474 0.75552 0.0
C2439 C 0.64177 0.18141 0.78802 0.0
C2440 C 0.65107 0.16223 0.77407 0.0
H2441 H 0.67167 0.15232 0.77283 0.0
C2442 C 0.64771 0.15948 0.76568 0.0
C2443 C 0.65984 0.15968 0.77666 0.0
C2444 C 0.6637 0.16223 0.78571 0.0
C2445 C 0.65287 0.15425 0.7598 0.0
C2446 C 0.66157 0.15152 0.76247 0.0
C2447 C 0.665 0.1544 0.7708 0.0
C2448 C 0.66709 0.14544 0.75683 0.0
C2449 C 0.649 0.15179 0.75073 0.0
C2450 C 0.66388 0.13681 0.75462 0.0
C2451 C 0.66907 0.13104 0.74938 0.0
C2452 C 0.67764 0.13372 0.74629 0.0
C2453 C 0.68088 0.14236 0.74859 0.0
C2454 C 0.67567 0.14814 0.75383 0.0
H2455 H 0.64362 0.1565 0.74867 0.0
H2456 H 0.65429 0.15179 0.74546 0.0
H2457 H 0.64597 0.14494 0.75111 0.0
H2458 H 0.65736 0.1345 0.757 0.0
H2459 H 0.66631 0.12449 0.74768 0.0
H2460 H 0.90701 0.68016 0.75016 0.0
H2461 H 0.89962 0.67012 0.76105 0.0
H2462 H 0.87461 0.67255 0.74658 0.0
H2463 H 0.88199 0.68227 0.73551 0.0
H2464 H 0.88547 0.67384 0.77218 0.0
H2465 H 0.87619 0.64558 0.74972 0.0
H2466 H 0.88418 0.65423 0.74647 0.0
H2467 H 0.87227 0.65618 0.74558 0.0
C2468 C 0.89998 0.67842 0.7492 0.0
C2469 C 0.8951 0.68203 0.74194 0.0
C2470 C 0.89575 0.67273 0.75547 0.0
C2471 C 0.88659 0.67046 0.75457 0.0
C2472 C 0.88173 0.67403 0.74732 0.0
H2473 H 0.84411 0.64571 0.78519 0.0
H2474 H 0.85389 0.65322 0.77419 0.0
C2475 C 0.88594 0.6797 0.74106 0.0
C2476 C 0.88197 0.66476 0.76143 0.0
H2477 H 0.86858 0.64608 0.76394 0.0
C2478 C 0.88188 0.6677 0.77041 0.0
C2479 C 0.8773 0.65674 0.75912 0.0
C2480 C 0.87755 0.65294 0.74971 0.0
C2481 C 0.87694 0.66304 0.77705 0.0
C2482 C 0.87204 0.65519 0.77467 0.0
C2483 C 0.87231 0.65212 0.76574 0.0
C2484 C 0.86625 0.65031 0.78124 0.0
C2485 C 0.87671 0.66676 0.78649 0.0
C2486 C 0.86997 0.64604 0.78879 0.0
C2487 C 0.86439 0.64175 0.79512 0.0
C2488 C 0.85498 0.64167 0.79401 0.0
C2489 C 0.85131 0.64578 0.78632 0.0
C2490 C 0.85689 0.65002 0.78 0.0
H2491 H 0.87938 0.67376 0.78681 0.0
H2492 H 0.86973 0.66666 0.78917 0.0
H2493 H 0.88089 0.6625 0.79094 0.0
H2494 H 0.87719 0.64608 0.78982 0.0
H2495 H 0.86743 0.63869 0.80098 0.0
H2496 H 0.2509 0.40668 0.17879 0.0
H2497 H 0.26131 0.39955 0.16828 0.0
H2498 H 0.24663 0.37451 0.17094 0.0
H2499 H 0.23601 0.38165 0.18113 0.0
H2500 H 0.27245 0.38516 0.17111 0.0
H2501 H 0.24822 0.37721 0.14385 0.0
H2502 H 0.24562 0.38485 0.15288 0.0
H2503 H 0.24473 0.37289 0.15459 0.0
C2504 C 0.24979 0.3997 0.17702 0.0
C2505 C 0.24259 0.39476 0.18081 0.0
C2506 C 0.25579 0.39561 0.17106 0.0
C2507 C 0.25468 0.38652 0.16871 0.0
C2508 C 0.24753 0.38157 0.1725 0.0
H2509 H 0.28399 0.34712 0.13789 0.0
H2510 H 0.27382 0.35523 0.14791 0.0
C2511 C 0.24152 0.38564 0.17843 0.0
C2512 C 0.26115 0.38212 0.16253 0.0
H2513 H 0.26251 0.3701 0.143 0.0
C2514 C 0.27029 0.38194 0.16492 0.0
C2515 C 0.25833 0.37792 0.15444 0.0
C2516 C 0.24871 0.37829 0.15123 0.0
C2517 C 0.27664 0.37746 0.15959 0.0
C2518 C 0.27378 0.37312 0.1516 0.0
C2519 C 0.26467 0.37339 0.14915 0.0
C2520 C 0.28013 0.36823 0.14571 0.0
C2521 C 0.28631 0.37719 0.16266 0.0
C2522 C 0.28702 0.37286 0.14112 0.0
C2523 C 0.29284 0.36825 0.13539 0.0
C2524 C 0.29189 0.3589 0.13414 0.0
C2525 C 0.28499 0.35429 0.13879 0.0
C2526 C 0.27914 0.35892 0.14447 0.0
H2527 H 0.28704 0.37914 0.16983 0.0
H2528 H 0.28911 0.37036 0.16174 0.0
H2529 H 0.29038 0.38195 0.15853 0.0
H2530 H 0.28784 0.38007 0.14189 0.0
H2531 H 0.29813 0.37199 0.13197 0.0
H2532 H 0.29976 0.67985 0.8919 0.0
H2533 H 0.2895 0.67197 0.88163 0.0
H2534 H 0.27106 0.66701 0.90354 0.0
H2535 H 0.28107 0.67518 0.91377 0.0
H2536 H 0.28328 0.65446 0.88203 0.0
H2537 H 0.25471 0.67797 0.88474 0.0
H2538 H 0.26584 0.68076 0.8888 0.0
H2539 H 0.25843 0.67372 0.8954 0.0
C2540 C 0.29346 0.6772 0.89452 0.0
C2541 C 0.29124 0.67821 0.90367 0.0
C2542 C 0.28764 0.67263 0.88865 0.0
C2543 C 0.27944 0.66902 0.89178 0.0
C2544 C 0.27726 0.6699 0.90092 0.0
H2545 H 0.23556 0.63837 0.86753 0.0
H2546 H 0.24616 0.64573 0.87786 0.0
C2547 C 0.28306 0.67448 0.90679 0.0
C2548 C 0.27326 0.6642 0.88552 0.0
H2549 H 0.25181 0.66416 0.87719 0.0
C2550 C 0.27642 0.65661 0.88093 0.0
C2551 C 0.26429 0.667 0.88409 0.0
C2552 C 0.26062 0.67536 0.88845 0.0
C2553 C 0.27081 0.65166 0.87509 0.0
C2554 C 0.26184 0.65444 0.87372 0.0
C2555 C 0.25868 0.66202 0.87829 0.0
C2556 C 0.25564 0.64964 0.86748 0.0
C2557 C 0.27448 0.6434 0.87056 0.0
C2558 C 0.25744 0.64942 0.85821 0.0
C2559 C 0.2514 0.64521 0.85229 0.0
C2560 C 0.24343 0.64115 0.85553 0.0
C2561 C 0.24169 0.64133 0.86483 0.0
C2562 C 0.24771 0.64558 0.87074 0.0
H2563 H 0.28067 0.64097 0.87393 0.0
H2564 H 0.26938 0.63788 0.87052 0.0
H2565 H 0.27619 0.64505 0.86347 0.0
H2566 H 0.26346 0.65262 0.85553 0.0
H2567 H 0.25298 0.64514 0.84518 0.0
H2568 H 0.36803 0.30209 0.89903 0.0
H2569 H 0.37814 0.29154 0.89158 0.0
H2570 H 0.35538 0.27487 0.88421 0.0
H2571 H 0.34525 0.28538 0.89161 0.0
H2572 H 0.38116 0.27343 0.89441 0.0
H2573 H 0.36766 0.27906 0.86007 0.0
H2574 H 0.36505 0.28632 0.86941 0.0
H2575 H 0.35926 0.27571 0.86813 0.0
C2576 C 0.36518 0.29614 0.89589 0.0
C2577 C 0.35581 0.29462 0.89585 0.0
C2578 C 0.37096 0.29014 0.8916 0.0
C2579 C 0.36751 0.28251 0.88717 0.0
C2580 C 0.35819 0.28084 0.88736 0.0
H2581 H 0.39152 0.23864 0.85715 0.0
H2582 H 0.38137 0.24862 0.86527 0.0
C2583 C 0.3524 0.28685 0.89161 0.0
C2584 C 0.37364 0.2763 0.88238 0.0
H2585 H 0.37805 0.26717 0.86177 0.0
C2586 C 0.38051 0.27209 0.88727 0.0
C2587 C 0.37279 0.27456 0.87305 0.0
C2588 C 0.36585 0.27921 0.86733 0.0
C2589 C 0.38643 0.26607 0.88312 0.0
C2590 C 0.38555 0.26431 0.8738 0.0
C2591 C 0.37869 0.26851 0.86891 0.0
C2592 C 0.39176 0.25823 0.86896 0.0
C2593 C 0.39349 0.26152 0.88876 0.0
C2594 C 0.40095 0.26038 0.86823 0.0
C2595 C 0.40676 0.25474 0.86352 0.0
C2596 C 0.4035 0.24682 0.85942 0.0
C2597 C 0.39426 0.24472 0.86013 0.0
C2598 C 0.38845 0.25039 0.86482 0.0
H2599 H 0.39191 0.26186 0.89606 0.0
H2600 H 0.39417 0.25435 0.88681 0.0
H2601 H 0.40009 0.26492 0.88765 0.0
H2602 H 0.40361 0.2665 0.87121 0.0
H2603 H 0.41378 0.25668 0.86297 0.0
H2604 H 0.78485 0.39836 0.84667 0.0
H2605 H 0.77465 0.38823 0.85486 0.0
H2606 H 0.78741 0.39567 0.87987 0.0
H2607 H 0.79762 0.40585 0.87173 0.0
H2608 H 0.77823 0.3736 0.86553 0.0
H2609 H 0.76106 0.39983 0.88552 0.0
H2610 H 0.76818 0.40251 0.87602 0.0
H2611 H 0.77308 0.39987 0.88676 0.0
C2612 C 0.78553 0.39781 0.85391 0.0
C2613 C 0.79202 0.40296 0.85855 0.0
C2614 C 0.77966 0.39204 0.85859 0.0
C2615 C 0.78015 0.39131 0.868 0.0
C2616 C 0.78674 0.3963 0.87263 0.0
H2617 H 0.75017 0.35845 0.90688 0.0
H2618 H 0.76095 0.36867 0.89952 0.0
C2619 C 0.79259 0.4021 0.86797 0.0
C2620 C 0.77384 0.3852 0.87291 0.0
H2621 H 0.75754 0.38465 0.88916 0.0
C2622 C 0.77369 0.37603 0.87067 0.0
C2623 C 0.76793 0.38836 0.87966 0.0
C2624 C 0.76748 0.39819 0.88209 0.0
C2625 C 0.76784 0.36993 0.87503 0.0
C2626 C 0.7619 0.3731 0.88172 0.0
C2627 C 0.76211 0.38224 0.88404 0.0
C2628 C 0.75526 0.36705 0.88622 0.0
C2629 C 0.76815 0.36011 0.8725 0.0
C2630 C 0.74838 0.36291 0.88121 0.0
C2631 C 0.74217 0.35713 0.88539 0.0
C2632 C 0.74269 0.35537 0.8947 0.0
C2633 C 0.74951 0.35969 0.89973 0.0
C2634 C 0.75571 0.3655 0.89553 0.0
H2635 H 0.7745 0.35843 0.86898 0.0
H2636 H 0.76746 0.35576 0.87856 0.0
H2637 H 0.76246 0.35853 0.86791 0.0
H2638 H 0.74779 0.36417 0.87406 0.0
H2639 H 0.7369 0.3541 0.88134 0.0
H2640 H 0.68929 0.75263 0.89898 0.0
H2641 H 0.68029 0.7624 0.8893 0.0
H2642 H 0.6564 0.7472 0.89629 0.0
H2643 H 0.66533 0.73745 0.906 0.0
H2644 H 0.66954 0.75876 0.87455 0.0
H2645 H 0.64906 0.77271 0.90229 0.0
H2646 H 0.65914 0.76635 0.90429 0.0
H2647 H 0.64868 0.76065 0.90181 0.0
C2648 C 0.68213 0.75133 0.89841 0.0
C2649 C 0.67802 0.74432 0.90334 0.0
C2650 C 0.67699 0.75694 0.89289 0.0
C2651 C 0.66764 0.75565 0.89221 0.0
C2652 C 0.66356 0.74848 0.8969 0.0
H2653 H 0.62375 0.78009 0.86329 0.0
H2654 H 0.63367 0.77057 0.8722 0.0
C2655 C 0.66868 0.74291 0.90244 0.0
C2656 C 0.66212 0.76179 0.88659 0.0
H2657 H 0.64416 0.77592 0.88739 0.0
C2658 C 0.66403 0.76256 0.87736 0.0
C2659 C 0.65496 0.76679 0.89028 0.0
C2660 C 0.65288 0.76667 0.90022 0.0
C2661 C 0.6588 0.76798 0.87168 0.0
C2662 C 0.65154 0.77284 0.87534 0.0
C2663 C 0.6497 0.77215 0.88459 0.0
C2664 C 0.64566 0.77857 0.86971 0.0
C2665 C 0.66093 0.7683 0.86175 0.0
C2666 C 0.64909 0.78628 0.86539 0.0
C2667 C 0.64341 0.79181 0.86035 0.0
C2668 C 0.63417 0.78975 0.85955 0.0
C2669 C 0.63079 0.78198 0.86386 0.0
C2670 C 0.63646 0.77648 0.86892 0.0
H2671 H 0.66541 0.76274 0.8597 0.0
H2672 H 0.65467 0.76793 0.85769 0.0
H2673 H 0.66439 0.77476 0.86016 0.0
H2674 H 0.65613 0.78812 0.86605 0.0
H2675 H 0.64623 0.79781 0.85724 0.0
H2676 H 0.75278 0.69245 0.14645 0.0
H2677 H 0.7633 0.68214 0.15364 0.0
H2678 H 0.74694 0.65956 0.14516 0.0
H2679 H 0.73641 0.66983 0.13791 0.0
H2680 H 0.76009 0.6703 0.16733 0.0
H2681 H 0.77176 0.65186 0.13718 0.0
H2682 H 0.7656 0.66222 0.13641 0.0
H2683 H 0.75975 0.65176 0.13847 0.0
C2684 C 0.75142 0.68529 0.1461 0.0
C2685 C 0.74376 0.68197 0.14158 0.0
C2686 C 0.75746 0.6794 0.15019 0.0
C2687 C 0.75599 0.67006 0.14984 0.0
C2688 C 0.74835 0.66672 0.14533 0.0
H2689 H 0.78137 0.62385 0.17448 0.0
H2690 H 0.77156 0.63421 0.1664 0.0
C2691 C 0.74233 0.67261 0.1412 0.0
C2692 C 0.76224 0.66387 0.15455 0.0
H2693 H 0.77589 0.64579 0.15142 0.0
C2694 C 0.76359 0.66498 0.16384 0.0
C2695 C 0.7668 0.65692 0.14999 0.0
C2696 C 0.76599 0.65565 0.13995 0.0
C2697 C 0.76924 0.65923 0.16872 0.0
C2698 C 0.77374 0.65225 0.16418 0.0
C2699 C 0.77241 0.65114 0.15489 0.0
C2700 C 0.77982 0.64599 0.16897 0.0
C2701 C 0.77018 0.66055 0.17874 0.0
C2702 C 0.78779 0.64916 0.17299 0.0
C2703 C 0.79346 0.64324 0.17756 0.0
C2704 C 0.79129 0.63402 0.17818 0.0
C2705 C 0.78333 0.63087 0.17405 0.0
C2706 C 0.77768 0.63679 0.16946 0.0
H2707 H 0.76477 0.66483 0.18151 0.0
H2708 H 0.77004 0.65398 0.18232 0.0
H2709 H 0.77675 0.66388 0.18018 0.0
H2710 H 0.78965 0.65621 0.17255 0.0
H2711 H 0.79961 0.64589 0.1805 0.0
H2712 H 0.39409 0.78435 0.19387 0.0
H2713 H 0.38627 0.77336 0.18439 0.0
H2714 H 0.38907 0.79113 0.16156 0.0
H2715 H 0.39695 0.80216 0.17101 0.0
H2716 H 0.37039 0.77576 0.17549 0.0
H2717 H 0.39733 0.76736 0.1511 0.0
H2718 H 0.39959 0.77324 0.16149 0.0
H2719 H 0.39503 0.77915 0.15199 0.0
C2720 C 0.39307 0.78591 0.18682 0.0
C2721 C 0.39613 0.79415 0.1832 0.0
C2722 C 0.38863 0.77961 0.1814 0.0
C2723 C 0.38716 0.78136 0.17223 0.0
C2724 C 0.3903 0.78953 0.16856 0.0
H2725 H 0.35562 0.75162 0.13206 0.0
H2726 H 0.36498 0.76288 0.13981 0.0
C2727 C 0.39479 0.79584 0.17398 0.0
C2728 C 0.38188 0.77485 0.16672 0.0
H2729 H 0.38277 0.76132 0.14815 0.0
C2730 C 0.37311 0.77259 0.16953 0.0
C2731 C 0.38541 0.77076 0.15889 0.0
C2732 C 0.39488 0.77267 0.15571 0.0
C2733 C 0.36779 0.76637 0.16475 0.0
C2734 C 0.37136 0.76219 0.15702 0.0
C2735 C 0.38006 0.76454 0.15409 0.0
C2736 C 0.36621 0.75515 0.15208 0.0
C2737 C 0.35835 0.76438 0.16799 0.0
C2738 C 0.36401 0.74699 0.15633 0.0
C2739 C 0.35873 0.74053 0.15192 0.0
C2740 C 0.35552 0.74209 0.14315 0.0
C2741 C 0.358 0.75017 0.13879 0.0
C2742 C 0.36332 0.75663 0.14321 0.0
H2743 H 0.35587 0.76968 0.17259 0.0
H2744 H 0.35362 0.76374 0.16223 0.0
H2745 H 0.35827 0.7579 0.17172 0.0
H2746 H 0.36633 0.74564 0.16311 0.0
H2747 H 0.35714 0.73431 0.15541 0.0
H2748 H 0.69084 0.28295 0.13888 0.0
H2749 H 0.68256 0.27284 0.14902 0.0
H2750 H 0.6578 0.28612 0.14226 0.0
H2751 H 0.66603 0.29621 0.13205 0.0
H2752 H 0.67244 0.27647 0.16389 0.0
H2753 H 0.65112 0.26001 0.1379 0.0
H2754 H 0.66075 0.26696 0.13508 0.0
H2755 H 0.65024 0.27203 0.13811 0.0
C2756 C 0.68364 0.28375 0.13958 0.0
C2757 C 0.67909 0.29036 0.13462 0.0
C2758 C 0.67891 0.27794 0.14535 0.0
C2759 C 0.66953 0.2786 0.14628 0.0
C2760 C 0.66499 0.28531 0.14147 0.0
H2761 H 0.63065 0.24929 0.17979 0.0
H2762 H 0.63805 0.25998 0.16954 0.0
C2763 C 0.66971 0.29109 0.13566 0.0
C2764 C 0.66457 0.27237 0.15241 0.0
H2765 H 0.64778 0.25645 0.15312 0.0
C2766 C 0.66707 0.27208 0.16152 0.0
C2767 C 0.65753 0.26665 0.14933 0.0
C2768 C 0.65479 0.26634 0.13956 0.0
C2769 C 0.6627 0.26627 0.16764 0.0
C2770 C 0.65572 0.26053 0.16455 0.0
C2771 C 0.65313 0.26088 0.15547 0.0
C2772 C 0.65118 0.25394 0.1706 0.0
C2773 C 0.66554 0.26641 0.17739 0.0
C2774 C 0.65606 0.24689 0.17445 0.0
C2775 C 0.65185 0.24073 0.18024 0.0
C2776 C 0.64264 0.24147 0.18232 0.0
C2777 C 0.63772 0.24846 0.1783 0.0
C2778 C 0.64195 0.25461 0.17247 0.0
H2779 H 0.66935 0.27265 0.1791 0.0
H2780 H 0.6596 0.26584 0.1819 0.0
H2781 H 0.66996 0.26059 0.17874 0.0
H2782 H 0.66314 0.24612 0.17294 0.0
H2783 H 0.65581 0.23533 0.18303 0.0
H2784 H 0.8954 0.73582 0.67309 0.0
H2785 H 0.88537 0.74578 0.66472 0.0
H2786 H 0.90119 0.76875 0.67313 0.0
H2787 H 0.91123 0.75886 0.68149 0.0
H2788 H 0.87492 0.75981 0.67061 0.0
H2789 H 0.90023 0.77223 0.64601 0.0
H2790 H 0.90214 0.76258 0.65312 0.0
H2791 H 0.90365 0.77377 0.65749 0.0
C2792 C 0.89672 0.743 0.67319 0.0
C2793 C 0.90417 0.74653 0.67791 0.0
C2794 C 0.891 0.74867 0.66837 0.0
C2795 C 0.89263 0.75799 0.66814 0.0
C2796 C 0.89995 0.76156 0.67299 0.0
H2797 H 0.86638 0.80514 0.64736 0.0
H2798 H 0.87616 0.79414 0.65458 0.0
C2799 C 0.90568 0.75589 0.67779 0.0
C2800 C 0.88657 0.76403 0.66301 0.0
H2801 H 0.88636 0.78012 0.64655 0.0
C2802 C 0.8774 0.76419 0.66529 0.0
C2803 C 0.88981 0.76973 0.65605 0.0
C2804 C 0.89948 0.76952 0.65295 0.0
C2805 C 0.87145 0.77011 0.661 0.0
C2806 C 0.87473 0.77593 0.65418 0.0
C2807 C 0.88387 0.77568 0.65181 0.0
C2808 C 0.86884 0.78253 0.6496 0.0
C2809 C 0.86175 0.77028 0.66401 0.0
C2810 C 0.86157 0.77964 0.64426 0.0
C2811 C 0.85595 0.78592 0.64013 0.0
C2812 C 0.8575 0.79521 0.64126 0.0
C2813 C 0.86491 0.79805 0.64646 0.0
C2814 C 0.87054 0.79177 0.65056 0.0
H2815 H 0.86075 0.76683 0.67058 0.0
H2816 H 0.85937 0.77731 0.6646 0.0
H2817 H 0.8575 0.7668 0.65892 0.0
H2818 H 0.86022 0.77253 0.64332 0.0
H2819 H 0.85028 0.7835 0.63621 0.0
H2820 H 0.23788 0.85369 0.65559 0.0
H2821 H 0.24878 0.86382 0.66272 0.0
H2822 H 0.26208 0.86784 0.63721 0.0
H2823 H 0.25128 0.85758 0.63002 0.0
H2824 H 0.2679 0.86203 0.66323 0.0
H2825 H 0.25751 0.89367 0.64638 0.0
H2826 H 0.25045 0.8837 0.64658 0.0
H2827 H 0.25988 0.88441 0.63904 0.0
C2828 C 0.24315 0.85666 0.65148 0.0
C2829 C 0.24369 0.85478 0.64221 0.0
C2830 C 0.24935 0.8625 0.65557 0.0
C2831 C 0.25618 0.86665 0.65048 0.0
C2832 C 0.25676 0.86483 0.64124 0.0
H2833 H 0.29864 0.90496 0.66517 0.0
H2834 H 0.28859 0.89456 0.65715 0.0
C2835 C 0.25057 0.85897 0.63713 0.0
C2836 C 0.26282 0.87271 0.65495 0.0
H2837 H 0.27025 0.89452 0.65585 0.0
C2838 C 0.26842 0.86913 0.66163 0.0
C2839 C 0.26351 0.88197 0.65281 0.0
C2840 C 0.25748 0.88622 0.64586 0.0
C2841 C 0.27474 0.87454 0.66619 0.0
C2842 C 0.27533 0.88384 0.66417 0.0
C2843 C 0.26979 0.8874 0.65741 0.0
C2844 C 0.28153 0.89003 0.66909 0.0
C2845 C 0.28084 0.8702 0.67302 0.0
C2846 C 0.28085 0.89102 0.67847 0.0
C2847 C 0.2866 0.89694 0.68307 0.0
C2848 C 0.29307 0.9021 0.67839 0.0
C2849 C 0.29368 0.90115 0.66898 0.0
C2850 C 0.28796 0.89519 0.66439 0.0
H2851 H 0.28143 0.86285 0.67184 0.0
H2852 H 0.28769 0.87327 0.67286 0.0
H2853 H 0.278 0.87115 0.67985 0.0
H2854 H 0.27579 0.8873 0.68222 0.0
H2855 H 0.28583 0.89763 0.69029 0.0
H2856 H 0.17218 0.23505 0.64118 0.0
H2857 H 0.16312 0.24461 0.65096 0.0
H2858 H 0.17595 0.26822 0.63967 0.0
H2859 H 0.185 0.25873 0.62985 0.0
H2860 H 0.16797 0.25705 0.66392 0.0
H2861 H 0.14945 0.27367 0.63619 0.0
H2862 H 0.15612 0.26376 0.63445 0.0
H2863 H 0.16146 0.27465 0.63521 0.0
C2864 C 0.17312 0.24228 0.64082 0.0
C2865 C 0.17926 0.24613 0.63467 0.0
C2866 C 0.16791 0.24774 0.6464 0.0
C2867 C 0.16872 0.25714 0.64593 0.0
C2868 C 0.17503 0.26099 0.63998 0.0
H2869 H 0.14247 0.30145 0.67326 0.0
H2870 H 0.15255 0.29198 0.66443 0.0
C2871 C 0.18021 0.25555 0.63438 0.0
C2872 C 0.16298 0.26292 0.65167 0.0
H2873 H 0.14735 0.2796 0.65084 0.0
C2874 C 0.16344 0.26196 0.66106 0.0
C2875 C 0.15705 0.26932 0.64793 0.0
C2876 C 0.1559 0.27038 0.6379 0.0
C2877 C 0.15825 0.26731 0.66682 0.0
C2878 C 0.15236 0.27373 0.66308 0.0
C2879 C 0.1519 0.2747 0.65369 0.0
C2880 C 0.14649 0.27941 0.66876 0.0
C2881 C 0.15922 0.26618 0.67687 0.0
C2882 C 0.13971 0.27548 0.67411 0.0
C2883 C 0.13395 0.28087 0.67917 0.0
C2884 C 0.13483 0.2903 0.67899 0.0
C2885 C 0.14167 0.29421 0.67366 0.0
C2886 C 0.1474 0.28881 0.66856 0.0
H2887 H 0.16554 0.26267 0.67866 0.0
H2888 H 0.15916 0.2728 0.68031 0.0
H2889 H 0.15348 0.26211 0.67946 0.0
H2890 H 0.13878 0.26825 0.67426 0.0
H2891 H 0.1288 0.27764 0.68325 0.0
H2892 H 0.78989 0.18919 0.64323 0.0
H2893 H 0.77981 0.18114 0.65358 0.0
H2894 H 0.78379 0.15663 0.63871 0.0
H2895 H 0.7941 0.16455 0.62851 0.0
H2896 H 0.76385 0.17228 0.64938 0.0
H2897 H 0.78813 0.14859 0.66462 0.0
H2898 H 0.79167 0.15836 0.65825 0.0
H2899 H 0.78785 0.14838 0.65254 0.0
C2900 C 0.78875 0.18205 0.64225 0.0
C2901 C 0.79284 0.17752 0.63504 0.0
C2902 C 0.78294 0.17747 0.64814 0.0
C2903 C 0.78113 0.16826 0.647 0.0
C2904 C 0.78521 0.1637 0.63983 0.0
H2905 H 0.74483 0.13026 0.67392 0.0
H2906 H 0.75581 0.13755 0.66389 0.0
C2907 C 0.79102 0.16828 0.63393 0.0
C2908 C 0.77469 0.16352 0.65308 0.0
H2909 H 0.77268 0.14612 0.66806 0.0
C2910 C 0.76579 0.16658 0.65349 0.0
C2911 C 0.77722 0.15606 0.65841 0.0
C2912 C 0.78675 0.15268 0.65852 0.0
C2913 C 0.75934 0.16234 0.65901 0.0
C2914 C 0.76188 0.15492 0.66438 0.0
C2915 C 0.77075 0.15181 0.66393 0.0
C2916 C 0.75544 0.15042 0.67062 0.0
C2917 C 0.74981 0.16575 0.65894 0.0
C2918 C 0.75173 0.15518 0.67784 0.0
C2919 C 0.74551 0.15103 0.68361 0.0
C2920 C 0.74286 0.142 0.68231 0.0
C2921 C 0.74675 0.13719 0.67517 0.0
C2922 C 0.753 0.14135 0.6694 0.0
H2923 H 0.74844 0.1699 0.65288 0.0
H2924 H 0.74489 0.16008 0.65917 0.0
H2925 H 0.74873 0.17 0.66497 0.0
H2926 H 0.75367 0.16212 0.67903 0.0
H2927 H 0.74283 0.15489 0.68915 0.0
H2928 H 0.85467 0.25228 0.40537 0.0
H2929 H 0.86415 0.26339 0.3975 0.0
H2930 H 0.86616 0.24554 0.37478 0.0
H2931 H 0.85684 0.23438 0.38261 0.0
H2932 H 0.88208 0.26182 0.38973 0.0
H2933 H 0.8559 0.26915 0.36418 0.0
H2934 H 0.85339 0.26345 0.37464 0.0
H2935 H 0.85841 0.25743 0.36547 0.0
C2936 C 0.85722 0.25067 0.39874 0.0
C2937 C 0.85489 0.24247 0.39458 0.0
C2938 C 0.86261 0.25704 0.39425 0.0
C2939 C 0.86572 0.25535 0.3855 0.0
C2940 C 0.86367 0.24706 0.38146 0.0
H2941 H 0.89471 0.28352 0.3436 0.0
H2942 H 0.88671 0.27273 0.35322 0.0
C2943 C 0.85831 0.2407 0.38594 0.0
C2944 C 0.87096 0.26228 0.38047 0.0
H2945 H 0.87047 0.27524 0.36149 0.0
C2946 C 0.87954 0.26482 0.38359 0.0
C2947 C 0.86761 0.26618 0.37247 0.0
C2948 C 0.85829 0.26399 0.36901 0.0
C2949 C 0.88498 0.27094 0.37874 0.0
C2950 C 0.88167 0.27474 0.37066 0.0
C2951 C 0.87303 0.2723 0.36765 0.0
C2952 C 0.88707 0.28114 0.36508 0.0
C2953 C 0.89432 0.27307 0.38216 0.0
C2954 C 0.88997 0.28946 0.36855 0.0
C2955 C 0.89456 0.29565 0.36305 0.0
C2956 C 0.89624 0.29369 0.35395 0.0
C2957 C 0.89342 0.28529 0.35054 0.0
C2958 C 0.88888 0.2791 0.35605 0.0
H2959 H 0.89667 0.26794 0.38705 0.0
H2960 H 0.89922 0.2735 0.37652 0.0
H2961 H 0.89428 0.27967 0.38563 0.0
H2962 H 0.88847 0.29127 0.37544 0.0
H2963 H 0.89652 0.3021 0.36585 0.0
H2964 H 0.79153 0.84856 0.39279 0.0
H2965 H 0.78168 0.85664 0.38244 0.0
H2966 H 0.78298 0.87998 0.39958 0.0
H2967 H 0.7931 0.87208 0.40979 0.0
H2968 H 0.76499 0.86358 0.38611 0.0
H2969 H 0.7883 0.89082 0.37496 0.0
H2970 H 0.79214 0.88089 0.38074 0.0
H2971 H 0.78716 0.88993 0.38696 0.0
C2972 C 0.78987 0.85547 0.39428 0.0
C2973 C 0.79315 0.85967 0.40213 0.0
C2974 C 0.78418 0.86006 0.38839 0.0
C2975 C 0.78168 0.86896 0.39016 0.0
C2976 C 0.78495 0.87318 0.39797 0.0
H2977 H 0.74427 0.90589 0.36457 0.0
H2978 H 0.75521 0.89871 0.37453 0.0
C2979 C 0.79065 0.86861 0.40386 0.0
C2980 C 0.77532 0.87365 0.38408 0.0
H2981 H 0.77295 0.89223 0.37072 0.0
C2982 C 0.76675 0.86982 0.38271 0.0
C2983 C 0.77761 0.88182 0.37967 0.0
C2984 C 0.78683 0.88608 0.38057 0.0
C2985 C 0.76037 0.87398 0.37716 0.0
C2986 C 0.76266 0.88213 0.37274 0.0
C2987 C 0.77121 0.886 0.37413 0.0
C2988 C 0.7563 0.88663 0.36653 0.0
C2989 C 0.75116 0.8697 0.3762 0.0
C2990 C 0.75344 0.88232 0.35863 0.0
C2991 C 0.74724 0.88641 0.35291 0.0
C2992 C 0.74377 0.89495 0.35494 0.0
C2993 C 0.74683 0.89936 0.36276 0.0
C2994 C 0.75306 0.89524 0.36848 0.0
H2995 H 0.74973 0.86481 0.38171 0.0
H2996 H 0.74583 0.87488 0.37619 0.0
H2997 H 0.75081 0.86602 0.36972 0.0
H2998 H 0.756 0.87576 0.35689 0.0
H2999 H 0.7452 0.88291 0.34685 0.0
H3000 H 0.14742 0.73157 0.36476 0.0
H3001 H 0.15488 0.74237 0.37474 0.0
H3002 H 0.14472 0.76426 0.35876 0.0
H3003 H 0.13721 0.75349 0.34875 0.0
H3004 H 0.168 0.75482 0.37039 0.0
H3005 H 0.13799 0.77196 0.38411 0.0
H3006 H 0.13721 0.76144 0.3781 0.0
H3007 H 0.13857 0.77185 0.37204 0.0
C3008 C 0.14676 0.73868 0.36337 0.0
C3009 C 0.1417 0.74166 0.35595 0.0
C3010 C 0.15101 0.74485 0.3691 0.0
C3011 C 0.15028 0.75413 0.36758 0.0
C3012 C 0.14521 0.75714 0.36021 0.0
H3013 H 0.17442 0.80075 0.39446 0.0
H3014 H 0.16645 0.79072 0.384 0.0
C3015 C 0.14092 0.75098 0.35448 0.0
C3016 C 0.15515 0.76061 0.37349 0.0
H3017 H 0.15223 0.77829 0.38783 0.0
C3018 C 0.16455 0.75993 0.37422 0.0
C3019 C 0.15065 0.76731 0.37846 0.0
C3020 C 0.14054 0.76816 0.37823 0.0
C3021 C 0.16956 0.76579 0.37973 0.0
C3022 C 0.16505 0.77243 0.38476 0.0
C3023 C 0.15567 0.77319 0.38396 0.0
C3024 C 0.16993 0.77851 0.39106 0.0
C3025 C 0.17966 0.7649 0.38003 0.0
C3026 C 0.17445 0.77498 0.39854 0.0
C3027 C 0.17903 0.78068 0.4045 0.0
C3028 C 0.17915 0.79004 0.40313 0.0
C3029 C 0.17456 0.79357 0.39565 0.0
C3030 C 0.16996 0.78785 0.3897 0.0
H3031 H 0.18225 0.76117 0.37411 0.0
H3032 H 0.18301 0.77161 0.38027 0.0
H3033 H 0.18157 0.76113 0.38618 0.0
H3034 H 0.17441 0.7678 0.3998 0.0
H3035 H 0.18255 0.77773 0.41015 0.0
H3036 H 0.30295 0.14279 0.36525 0.0
H3037 H 0.29312 0.15291 0.37364 0.0
H3038 H 0.26985 0.13812 0.36421 0.0
H3039 H 0.2796 0.128 0.35585 0.0
H3040 H 0.27955 0.164 0.36776 0.0
H3041 H 0.26575 0.13833 0.39123 0.0
H3042 H 0.27551 0.13634 0.38431 0.0
H3043 H 0.26437 0.1353 0.37963 0.0
C3044 C 0.29574 0.14172 0.36493 0.0
C3045 C 0.29207 0.13453 0.35994 0.0
C3046 C 0.29013 0.14749 0.36976 0.0
C3047 C 0.28075 0.14617 0.36971 0.0
C3048 C 0.27707 0.13912 0.36457 0.0
H3049 H 0.23373 0.17302 0.38974 0.0
H3050 H 0.24473 0.16322 0.38258 0.0
C3051 C 0.28266 0.13335 0.35977 0.0
C3052 C 0.27478 0.15225 0.37487 0.0
H3053 H 0.25821 0.15241 0.39083 0.0
C3054 C 0.27495 0.16148 0.37287 0.0
C3055 C 0.26879 0.14896 0.38156 0.0
C3056 C 0.26864 0.13921 0.38438 0.0
C3057 C 0.26907 0.16746 0.37714 0.0
C3058 C 0.26295 0.16414 0.38368 0.0
C3059 C 0.26288 0.15493 0.38579 0.0
C3060 C 0.25635 0.17005 0.3882 0.0
C3061 C 0.26926 0.17725 0.37444 0.0
C3062 C 0.25923 0.17706 0.39386 0.0
C3063 C 0.25296 0.18269 0.39796 0.0
C3064 C 0.24367 0.18142 0.39647 0.0
C3065 C 0.24082 0.17427 0.39092 0.0
C3066 C 0.2471 0.16863 0.38686 0.0
H3067 H 0.27297 0.17837 0.36803 0.0
H3068 H 0.26232 0.17984 0.37366 0.0
H3069 H 0.27266 0.18124 0.37977 0.0
H3070 H 0.26634 0.17819 0.39509 0.0
H3071 H 0.25538 0.18816 0.40214 0.0
H3072 H 0.63069 0.85625 0.78648 0.0
H3073 H 0.63794 0.86654 0.77573 0.0
H3074 H 0.66352 0.86236 0.78866 0.0
H3075 H 0.65635 0.85222 0.79951 0.0
H3076 H 0.64821 0.88264 0.77927 0.0
H3077 H 0.66849 0.85683 0.76185 0.0
H3078 H 0.65898 0.85398 0.76892 0.0
H3079 H 0.66964 0.85689 0.77389 0.0
C3080 C 0.63785 0.85756 0.78709 0.0
C3081 C 0.64294 0.85333 0.79384 0.0
C3082 C 0.64198 0.86341 0.7809 0.0
C3083 C 0.65129 0.86509 0.7813 0.0
C3084 C 0.65636 0.861 0.7881 0.0
H3085 H 0.69071 0.89708 0.75232 0.0
H3086 H 0.68249 0.88676 0.76228 0.0
C3087 C 0.65224 0.85518 0.7943 0.0
C3088 C 0.65571 0.87123 0.77472 0.0
H3089 H 0.67189 0.87208 0.75838 0.0
C3090 C 0.65334 0.88034 0.77465 0.0
C3091 C 0.66241 0.8682 0.76871 0.0
C3092 C 0.665 0.85843 0.76826 0.0
C3093 C 0.65768 0.88656 0.76892 0.0
C3094 C 0.66444 0.88354 0.76296 0.0
C3095 C 0.66673 0.8744 0.76296 0.0
C3096 C 0.66937 0.88977 0.7568 0.0
C3097 C 0.65519 0.89635 0.76953 0.0
C3098 C 0.66476 0.8948 0.75029 0.0
C3099 C 0.66944 0.90072 0.74459 0.0
C3100 C 0.67886 0.90165 0.74521 0.0
C3101 C 0.68347 0.89647 0.75161 0.0
C3102 C 0.67878 0.89059 0.75734 0.0
H3103 H 0.65173 0.89788 0.77597 0.0
H3104 H 0.66124 0.90076 0.76893 0.0
H3105 H 0.65053 0.89801 0.76395 0.0
H3106 H 0.65753 0.89411 0.74958 0.0
H3107 H 0.6657 0.90449 0.73963 0.0
H3108 H 0.13097 0.66372 0.73956 0.0
H3109 H 0.14084 0.65506 0.74943 0.0
H3110 H 0.14848 0.67936 0.76339 0.0
H3111 H 0.1385 0.68805 0.75364 0.0
H3112 H 0.15994 0.65748 0.7524 0.0
H3113 H 0.13984 0.66195 0.78363 0.0
H3114 H 0.13528 0.66399 0.77255 0.0
H3115 H 0.14278 0.67207 0.77762 0.0
C3116 C 0.1347 0.66721 0.74477 0.0
C3117 C 0.1339 0.67657 0.74584 0.0
C3118 C 0.14037 0.66227 0.75037 0.0
C3119 C 0.1453 0.66655 0.75721 0.0
C3120 C 0.14464 0.6759 0.75823 0.0
H3121 H 0.17988 0.64504 0.79952 0.0
H3122 H 0.17138 0.65494 0.78955 0.0
C3123 C 0.139 0.68087 0.7526 0.0
C3124 C 0.15115 0.66121 0.76325 0.0
H3125 H 0.15354 0.65421 0.78503 0.0
C3126 C 0.15856 0.65676 0.75954 0.0
C3127 C 0.14935 0.66033 0.77257 0.0
C3128 C 0.14135 0.66477 0.77686 0.0
C3129 C 0.16424 0.65148 0.7649 0.0
C3130 C 0.16234 0.65044 0.77419 0.0
C3131 C 0.155 0.655 0.77792 0.0
C3132 C 0.16772 0.64447 0.7801 0.0
C3133 C 0.17231 0.64719 0.76058 0.0
C3134 C 0.16842 0.63527 0.77817 0.0
C3135 C 0.17335 0.62961 0.7838 0.0
C3136 C 0.1776 0.63299 0.79157 0.0
C3137 C 0.17682 0.64221 0.79353 0.0
C3138 C 0.17191 0.64788 0.78787 0.0
H3139 H 0.17435 0.65078 0.75432 0.0
H3140 H 0.17814 0.64709 0.76525 0.0
H3141 H 0.17058 0.64015 0.75874 0.0
H3142 H 0.1651 0.63243 0.77233 0.0
H3143 H 0.17387 0.62258 0.78202 0.0
H3144 H 0.40123 0.18836 0.78405 0.0
H3145 H 0.39348 0.1789 0.77295 0.0
H3146 H 0.38023 0.16427 0.79435 0.0
H3147 H 0.38795 0.17367 0.80548 0.0
H3148 H 0.39314 0.1602 0.7703 0.0
H3149 H 0.35919 0.17282 0.77892 0.0
H3150 H 0.3694 0.17831 0.7827 0.0
H3151 H 0.36531 0.16834 0.7883 0.0
C3152 C 0.39674 0.18306 0.7864 0.0
C3153 C 0.39515 0.18183 0.79567 0.0
C3154 C 0.39229 0.17769 0.78004 0.0
C3155 C 0.38614 0.171 0.78281 0.0
C3156 C 0.38477 0.16954 0.79205 0.0
H3157 H 0.34982 0.13481 0.75389 0.0
H3158 H 0.35905 0.1423 0.76535 0.0
C3159 C 0.3892 0.17492 0.79841 0.0
C3160 C 0.38106 0.16563 0.77603 0.0
H3161 H 0.35981 0.16077 0.76858 0.0
C3162 C 0.38586 0.16033 0.76991 0.0
C3163 C 0.37155 0.16581 0.77553 0.0
C3164 C 0.36605 0.17168 0.78165 0.0
C3165 C 0.38138 0.15511 0.76337 0.0
C3166 C 0.37188 0.15532 0.76286 0.0
C3167 C 0.36709 0.16058 0.76901 0.0
C3168 C 0.36674 0.15033 0.75585 0.0
C3169 C 0.38687 0.14931 0.75716 0.0
C3170 C 0.36799 0.15234 0.7467 0.0
C3171 C 0.36275 0.14805 0.74013 0.0
C3172 C 0.3561 0.14168 0.74258 0.0
C3173 C 0.35495 0.13959 0.75176 0.0
C3174 C 0.36018 0.14391 0.75832 0.0
H3175 H 0.39366 0.14799 0.75996 0.0
H3176 H 0.38341 0.14278 0.75588 0.0
H3177 H 0.38775 0.15283 0.75062 0.0
H3178 H 0.37289 0.15738 0.74463 0.0
H3179 H 0.36387 0.14976 0.73313 0.0
H3180 H 0.84547 0.39217 0.78397 0.0
H3181 H 0.85591 0.38483 0.77364 0.0
H3182 H 0.8783 0.39354 0.79001 0.0
H3183 H 0.86791 0.40074 0.80049 0.0
H3184 H 0.87079 0.39233 0.76376 0.0
H3185 H 0.88145 0.36601 0.78801 0.0
H3186 H 0.87153 0.37269 0.7897 0.0
H3187 H 0.88248 0.37738 0.79199 0.0
C3188 C 0.85262 0.39249 0.78541 0.0
C3189 C 0.85585 0.39699 0.7931 0.0
C3190 C 0.85857 0.38833 0.77946 0.0
C3191 C 0.86787 0.38853 0.78112 0.0
C3192 C 0.87114 0.39319 0.78867 0.0
H3193 H 0.91409 0.36445 0.7552 0.0
H3194 H 0.90386 0.37275 0.76492 0.0
C3195 C 0.8652 0.39738 0.79461 0.0
C3196 C 0.87412 0.38381 0.77498 0.0
H3197 H 0.88914 0.36661 0.77408 0.0
C3198 C 0.87479 0.38669 0.766 0.0
C3199 C 0.87933 0.37647 0.77792 0.0
C3200 C 0.87864 0.37288 0.78741 0.0
C3201 C 0.88066 0.38252 0.75991 0.0
C3202 C 0.88585 0.37514 0.76284 0.0
C3203 C 0.88517 0.37227 0.77183 0.0
C3204 C 0.89206 0.37029 0.75672 0.0
C3205 C 0.88141 0.3862 0.75047 0.0
C3206 C 0.88883 0.36607 0.7489 0.0
C3207 C 0.89469 0.36139 0.74325 0.0
C3208 C 0.9039 0.36076 0.74536 0.0
C3209 C 0.90708 0.36493 0.75326 0.0
C3210 C 0.90123 0.36962 0.75888 0.0
H3211 H 0.87902 0.39324 0.75005 0.0
H3212 H 0.88846 0.38599 0.74801 0.0
H3213 H 0.87717 0.38205 0.7459 0.0
H3214 H 0.88176 0.36632 0.74719 0.0
H3215 H 0.892 0.35833 0.7372 0.0
H3216 H 0.66551 0.12507 0.29193 0.0
H3217 H 0.65665 0.13501 0.28238 0.0
H3218 H 0.6787 0.15409 0.28155 0.0
H3219 H 0.68776 0.14403 0.29083 0.0
H3220 H 0.65125 0.15245 0.28539 0.0
H3221 H 0.67287 0.15078 0.25494 0.0
H3222 H 0.67399 0.14306 0.26425 0.0
H3223 H 0.67862 0.15425 0.265 0.0
C3224 C 0.66854 0.13133 0.28963 0.0
C3225 C 0.6774 0.1337 0.29209 0.0
C3226 C 0.66343 0.13703 0.28422 0.0
C3227 C 0.66705 0.14523 0.28112 0.0
C3228 C 0.67582 0.14772 0.2837 0.0
H3229 H 0.64378 0.18719 0.24718 0.0
H3230 H 0.65367 0.17843 0.25696 0.0
C3231 C 0.68096 0.142 0.28911 0.0
C3232 C 0.66156 0.15118 0.2753 0.0
H3233 H 0.66062 0.1608 0.2544 0.0
C3234 C 0.6533 0.15427 0.27862 0.0
C3235 C 0.66425 0.15359 0.26646 0.0
C3236 C 0.67287 0.1502 0.2624 0.0
C3237 C 0.64767 0.1597 0.27335 0.0
C3238 C 0.6503 0.16199 0.26448 0.0
C3239 C 0.65862 0.15903 0.26121 0.0
C3240 C 0.64438 0.16723 0.25842 0.0
C3241 C 0.63899 0.163 0.27737 0.0
C3242 C 0.63595 0.16375 0.25584 0.0
C3243 C 0.63031 0.1687 0.25021 0.0
C3244 C 0.63299 0.17723 0.24699 0.0
C3245 C 0.64152 0.18062 0.24946 0.0
C3246 C 0.64717 0.17565 0.25509 0.0
H3247 H 0.63909 0.16268 0.28484 0.0
H3248 H 0.63767 0.17004 0.27527 0.0
H3249 H 0.63334 0.1587 0.27496 0.0
H3250 H 0.63374 0.15718 0.25816 0.0
H3251 H 0.62388 0.16578 0.2483 0.0
H3252 H 0.8493 0.63624 0.25336 0.0
H3253 H 0.85863 0.64409 0.26451 0.0
H3254 H 0.87379 0.65683 0.24317 0.0
H3255 H 0.86453 0.649 0.23199 0.0
H3256 H 0.8773 0.64432 0.26756 0.0
H3257 H 0.86512 0.67819 0.258 0.0
H3258 H 0.85962 0.66796 0.2543 0.0
H3259 H 0.86973 0.67187 0.24883 0.0
C3260 C 0.85469 0.64063 0.25104 0.0
C3261 C 0.85611 0.64206 0.24177 0.0
C3262 C 0.85999 0.64514 0.25742 0.0
C3263 C 0.86679 0.65118 0.25468 0.0
C3264 C 0.86844 0.65237 0.24545 0.0
H3265 H 0.9028 0.68769 0.28357 0.0
H3266 H 0.8954 0.67832 0.27216 0.0
C3267 C 0.86313 0.64789 0.23906 0.0
C3268 C 0.87207 0.65633 0.26147 0.0
H3269 H 0.87699 0.67766 0.26858 0.0
C3270 C 0.87722 0.65161 0.2678 0.0
C3271 C 0.87197 0.66584 0.26178 0.0
C3272 C 0.86625 0.67128 0.25543 0.0
C3273 C 0.88236 0.65615 0.27435 0.0
C3274 C 0.88223 0.66566 0.27466 0.0
C3275 C 0.87712 0.67037 0.26831 0.0
C3276 C 0.88716 0.67088 0.28166 0.0
C3277 C 0.888 0.65074 0.28078 0.0
C3278 C 0.88498 0.66981 0.2908 0.0
C3279 C 0.88922 0.67513 0.29734 0.0
C3280 C 0.89569 0.68167 0.29487 0.0
C3281 C 0.89794 0.68264 0.28571 0.0
C3282 C 0.89368 0.67733 0.27918 0.0
H3283 H 0.88931 0.64389 0.27815 0.0
H3284 H 0.89455 0.65415 0.28213 0.0
H3285 H 0.88436 0.65 0.28727 0.0
H3286 H 0.87986 0.665 0.29287 0.0
H3287 H 0.88738 0.67415 0.30433 0.0
H3288 H 0.36717 0.90599 0.29547 0.0
H3289 H 0.37724 0.8992 0.2844 0.0
H3290 H 0.35769 0.87809 0.27967 0.0
H3291 H 0.34748 0.88499 0.29045 0.0
H3292 H 0.38467 0.88231 0.28484 0.0
H3293 H 0.36376 0.88608 0.25421 0.0
H3294 H 0.36146 0.89206 0.26451 0.0
H3295 H 0.35794 0.88051 0.26327 0.0
C3296 C 0.36495 0.89999 0.29196 0.0
C3297 C 0.3565 0.89605 0.29386 0.0
C3298 C 0.37074 0.89609 0.28568 0.0
C3299 C 0.36817 0.88821 0.28111 0.0
C3300 C 0.35975 0.88427 0.28297 0.0
H3301 H 0.3937 0.85031 0.24531 0.0
H3302 H 0.38355 0.85857 0.2552 0.0
C3303 C 0.35396 0.88816 0.28924 0.0
C3304 C 0.37446 0.88386 0.27469 0.0
H3305 H 0.37633 0.87631 0.25306 0.0
C3306 C 0.38288 0.88108 0.27787 0.0
C3307 C 0.37211 0.88223 0.2656 0.0
C3308 C 0.36336 0.88545 0.26166 0.0
C3309 C 0.38892 0.8765 0.27228 0.0
C3310 C 0.38652 0.87476 0.26322 0.0
C3311 C 0.37814 0.87762 0.26002 0.0
C3312 C 0.3926 0.86992 0.25701 0.0
C3313 C 0.39772 0.87333 0.27617 0.0
C3314 C 0.40099 0.87363 0.25461 0.0
C3315 C 0.40679 0.86896 0.2489 0.0
C3316 C 0.40431 0.86047 0.24545 0.0
C3317 C 0.39581 0.85685 0.24776 0.0
C3318 C 0.39001 0.86155 0.25345 0.0
H3319 H 0.39766 0.87338 0.28364 0.0
H3320 H 0.39924 0.86642 0.27384 0.0
H3321 H 0.40323 0.87787 0.27385 0.0
H3322 H 0.40305 0.88016 0.25713 0.0
H3323 H 0.41319 0.87204 0.24714 0.0
H3324 H 0.13801 0.34817 0.28322 0.0
H3325 H 0.14562 0.35813 0.27239 0.0
H3326 H 0.15624 0.37406 0.29424 0.0
H3327 H 0.14868 0.36415 0.30509 0.0
H3328 H 0.1443 0.37649 0.26932 0.0
H3329 H 0.17885 0.36788 0.28017 0.0
H3330 H 0.16908 0.36139 0.28355 0.0
H3331 H 0.17187 0.37174 0.2892 0.0
C3332 C 0.14191 0.35384 0.28571 0.0
C3333 C 0.14281 0.35532 0.29503 0.0
C3334 C 0.14628 0.3595 0.27952 0.0
C3335 C 0.15165 0.36673 0.28251 0.0
C3336 C 0.15233 0.36838 0.29178 0.0
H3337 H 0.18327 0.4095 0.25837 0.0
H3338 H 0.17503 0.39915 0.26829 0.0
C3339 C 0.148 0.36272 0.29797 0.0
C3340 C 0.15653 0.37256 0.27595 0.0
H3341 H 0.1775 0.38037 0.27024 0.0
C3342 C 0.15156 0.37729 0.26947 0.0
C3343 C 0.16602 0.37358 0.27613 0.0
C3344 C 0.17179 0.36831 0.28258 0.0
C3345 C 0.1558 0.38321 0.26337 0.0
C3346 C 0.16526 0.38434 0.26367 0.0
C3347 C 0.17024 0.37953 0.27005 0.0
C3348 C 0.17013 0.39062 0.25754 0.0
C3349 C 0.15009 0.3884 0.25681 0.0
C3350 C 0.1702 0.38921 0.2482 0.0
C3351 C 0.17489 0.39513 0.2425 0.0
C3352 C 0.17961 0.40259 0.24603 0.0
C3353 C 0.17959 0.40392 0.25541 0.0
C3354 C 0.17493 0.39798 0.2611 0.0
H3355 H 0.14287 0.3883 0.25876 0.0
H3356 H 0.15244 0.39551 0.25633 0.0
H3357 H 0.15067 0.38534 0.25003 0.0
H3358 H 0.16666 0.38349 0.24532 0.0
H3359 H 0.17472 0.39394 0.23531 0.0
H3360 H 0.75497 0.68901 0.89944 0.0
H3361 H 0.7658 0.67922 0.89193 0.0
H3362 H 0.74423 0.66106 0.88451 0.0
H3363 H 0.73338 0.6708 0.89196 0.0
H3364 H 0.77009 0.66134 0.89463 0.0
H3365 H 0.75616 0.66625 0.86039 0.0
H3366 H 0.7531 0.67327 0.86977 0.0
H3367 H 0.74794 0.66235 0.86839 0.0
C3368 C 0.75254 0.68289 0.89627 0.0
C3369 C 0.74329 0.68073 0.89622 0.0
C3370 C 0.75873 0.67733 0.89195 0.0
C3371 C 0.7558 0.66951 0.88749 0.0
C3372 C 0.74662 0.66719 0.88769 0.0
H3373 H 0.78013 0.62612 0.85794 0.0
H3374 H 0.77023 0.63636 0.86602 0.0
C3375 C 0.74043 0.67276 0.89196 0.0
C3376 C 0.76233 0.66375 0.88266 0.0
H3377 H 0.76692 0.65464 0.86208 0.0
C3378 C 0.76944 0.65992 0.8875 0.0
C3379 C 0.7615 0.66194 0.87334 0.0
C3380 C 0.75432 0.66623 0.86764 0.0
C3381 C 0.77558 0.65411 0.88335 0.0
C3382 C 0.77464 0.65218 0.87407 0.0
C3383 C 0.7676 0.6561 0.8692 0.0
C3384 C 0.78077 0.64596 0.86931 0.0
C3385 C 0.78286 0.64989 0.88897 0.0
C3386 C 0.78997 0.648 0.86839 0.0
C3387 C 0.79567 0.64214 0.86379 0.0
C3388 C 0.79226 0.63412 0.86001 0.0
C3389 C 0.78301 0.63215 0.86089 0.0
C3390 C 0.77733 0.63803 0.86546 0.0
H3391 H 0.78145 0.65044 0.89629 0.0
H3392 H 0.78364 0.64268 0.88724 0.0
H3393 H 0.78936 0.65337 0.88759 0.0
H3394 H 0.79274 0.65416 0.87118 0.0
H3395 H 0.80276 0.64383 0.86329 0.0
H3396 H 0.80264 0.39574 0.17225 0.0
H3397 H 0.7927 0.38564 0.1637 0.0
H3398 H 0.76953 0.39844 0.17527 0.0
H3399 H 0.77939 0.40853 0.18381 0.0
H3400 H 0.77979 0.37344 0.16952 0.0
H3401 H 0.76407 0.39979 0.1485 0.0
H3402 H 0.77411 0.40185 0.15505 0.0
H3403 H 0.76322 0.40195 0.16034 0.0
C3404 C 0.79543 0.39637 0.17301 0.0
C3405 C 0.79182 0.403 0.17866 0.0
C3406 C 0.78976 0.39062 0.16808 0.0
C3407 C 0.78037 0.3914 0.1687 0.0
C3408 C 0.77675 0.39787 0.17449 0.0
H3409 H 0.73328 0.36344 0.14888 0.0
H3410 H 0.7443 0.37337 0.15616 0.0
C3411 C 0.7824 0.40364 0.17938 0.0
C3412 C 0.77433 0.38535 0.16343 0.0
H3413 H 0.75705 0.38529 0.14825 0.0
C3414 C 0.77487 0.37602 0.1648 0.0
C3415 C 0.76793 0.38872 0.15726 0.0
C3416 C 0.76734 0.39862 0.15512 0.0
C3417 C 0.76899 0.37 0.1604 0.0
C3418 C 0.76247 0.37339 0.15437 0.0
C3419 C 0.76203 0.3827 0.15289 0.0
C3420 C 0.75586 0.36742 0.14976 0.0
C3421 C 0.7696 0.36008 0.16246 0.0
C3422 C 0.75869 0.36087 0.14361 0.0
C3423 C 0.7524 0.35515 0.13945 0.0
C3424 C 0.74316 0.35588 0.14136 0.0
C3425 C 0.74035 0.36259 0.14737 0.0
C3426 C 0.74663 0.36831 0.1515 0.0
H3427 H 0.77357 0.35878 0.16865 0.0
H3428 H 0.76279 0.35705 0.1633 0.0
H3429 H 0.77295 0.35665 0.15676 0.0
H3430 H 0.76577 0.36016 0.14205 0.0
H3431 H 0.7548 0.35004 0.13489 0.0
H3432 H 0.6258 0.79048 0.16549 0.0
H3433 H 0.63577 0.78087 0.15677 0.0
H3434 H 0.65403 0.77947 0.17927 0.0
H3435 H 0.64393 0.78882 0.18817 0.0
H3436 H 0.6535 0.78378 0.15187 0.0
H3437 H 0.65029 0.75301 0.17296 0.0
H3438 H 0.64274 0.76238 0.17403 0.0
H3439 H 0.65378 0.76293 0.17895 0.0
C3440 C 0.63187 0.78804 0.16864 0.0
C3441 C 0.63401 0.79038 0.17757 0.0
C3442 C 0.6376 0.78259 0.16362 0.0
C3443 C 0.64558 0.77933 0.1674 0.0
C3444 C 0.64782 0.78176 0.17626 0.0
H3445 H 0.68773 0.74549 0.14469 0.0
H3446 H 0.67879 0.75513 0.15453 0.0
C3447 C 0.64209 0.7872 0.1813 0.0
C3448 C 0.6516 0.77353 0.16198 0.0
H3449 H 0.66079 0.75258 0.16099 0.0
C3450 C 0.65508 0.77696 0.15386 0.0
C3451 C 0.6537 0.76464 0.1646 0.0
C3452 C 0.64988 0.76047 0.17307 0.0
C3453 C 0.66061 0.77174 0.14831 0.0
C3454 C 0.66261 0.76281 0.15087 0.0
C3455 C 0.65925 0.75943 0.15905 0.0
C3456 C 0.66794 0.75681 0.14499 0.0
C3457 C 0.66435 0.77587 0.13979 0.0
C3458 C 0.66472 0.7544 0.13645 0.0
C3459 C 0.66976 0.74885 0.13084 0.0
C3460 C 0.67815 0.74555 0.13366 0.0
C3461 C 0.68128 0.74784 0.14232 0.0
C3462 C 0.6762 0.75339 0.14794 0.0
H3463 H 0.66418 0.78333 0.13998 0.0
H3464 H 0.6714 0.77374 0.13863 0.0
H3465 H 0.66023 0.77358 0.13398 0.0
H3466 H 0.65826 0.75679 0.13412 0.0
H3467 H 0.66704 0.74707 0.12432 0.0
H3468 H 0.24317 0.63056 0.1727 0.0
H3469 H 0.25435 0.63748 0.16265 0.0
H3470 H 0.25608 0.66055 0.18012 0.0
H3471 H 0.2452 0.65356 0.19035 0.0
H3472 H 0.2532 0.65351 0.15343 0.0
H3473 H 0.28241 0.65455 0.17659 0.0
H3474 H 0.27246 0.64785 0.17886 0.0
H3475 H 0.27258 0.65973 0.18118 0.0
C3476 C 0.24604 0.63704 0.17449 0.0
C3477 C 0.24328 0.64148 0.18235 0.0
C3478 C 0.25239 0.64101 0.1687 0.0
C3479 C 0.25616 0.64948 0.17069 0.0
C3480 C 0.25341 0.65394 0.17853 0.0
H3481 H 0.29088 0.6882 0.14379 0.0
H3482 H 0.28091 0.67991 0.15405 0.0
C3483 C 0.24709 0.64997 0.18431 0.0
C3484 C 0.26266 0.65385 0.1644 0.0
H3485 H 0.28373 0.66324 0.16313 0.0
C3486 C 0.2599 0.65556 0.15552 0.0
C3487 C 0.27141 0.65654 0.16714 0.0
C3488 C 0.27494 0.6545 0.17644 0.0
C3489 C 0.26556 0.6601 0.1494 0.0
C3490 C 0.27425 0.6629 0.15218 0.0
C3491 C 0.27705 0.66112 0.16102 0.0
C3492 C 0.2805 0.66779 0.14603 0.0
C3493 C 0.26208 0.6621 0.14007 0.0
C3494 C 0.28372 0.66367 0.13819 0.0
C3495 C 0.28947 0.66837 0.13233 0.0
C3496 C 0.29215 0.67729 0.13421 0.0
C3497 C 0.28903 0.68132 0.14217 0.0
C3498 C 0.2833 0.67661 0.14803 0.0
H3499 H 0.25464 0.66138 0.13967 0.0
H3500 H 0.26402 0.66902 0.13794 0.0
H3501 H 0.26508 0.65731 0.13523 0.0
H3502 H 0.28181 0.65681 0.13662 0.0
H3503 H 0.29187 0.66498 0.12637 0.0
H3504 H 0.35037 0.28383 0.13573 0.0
H3505 H 0.3602 0.27301 0.14321 0.0
H3506 H 0.37487 0.29484 0.15569 0.0
H3507 H 0.3651 0.30567 0.14826 0.0
H3508 H 0.37876 0.27079 0.14261 0.0
H3509 H 0.36781 0.27928 0.17721 0.0
H3510 H 0.36177 0.28291 0.16734 0.0
H3511 H 0.37176 0.28884 0.17091 0.0
C3512 C 0.35574 0.28633 0.14001 0.0
C3513 C 0.35688 0.29563 0.14147 0.0
C3514 C 0.36133 0.28013 0.14431 0.0
C3515 C 0.36815 0.2831 0.15016 0.0
C3516 C 0.3695 0.29238 0.1514 0.0
H3517 H 0.40998 0.25917 0.18236 0.0
H3518 H 0.39975 0.26906 0.1742 0.0
C3519 C 0.3639 0.29857 0.14714 0.0
C3520 C 0.37391 0.27653 0.15496 0.0
H3521 H 0.38071 0.27002 0.17594 0.0
C3522 C 0.37913 0.27057 0.1499 0.0
C3523 C 0.37437 0.27622 0.16448 0.0
C3524 C 0.36857 0.28209 0.17031 0.0
C3525 C 0.38502 0.26451 0.15409 0.0
C3526 C 0.3856 0.26433 0.16359 0.0
C3527 C 0.38029 0.2702 0.16865 0.0
C3528 C 0.39182 0.25824 0.16843 0.0
C3529 C 0.39076 0.25853 0.14831 0.0
C3530 C 0.39069 0.24886 0.16798 0.0
C3531 C 0.39654 0.24318 0.17262 0.0
C3532 C 0.40364 0.24677 0.17782 0.0
C3533 C 0.40468 0.25618 0.17831 0.0
C3534 C 0.39881 0.26184 0.1737 0.0
H3535 H 0.39097 0.26085 0.1412 0.0
H3536 H 0.39774 0.25826 0.15094 0.0
H3537 H 0.38791 0.25159 0.14842 0.0
H3538 H 0.38525 0.24594 0.16406 0.0
H3539 H 0.39558 0.23597 0.17206 0.0
H3540 H 0.29304 0.37211 0.9098 0.0
H3541 H 0.28274 0.37988 0.89965 0.0
H3542 H 0.28053 0.35604 0.88331 0.0
H3543 H 0.29056 0.34811 0.89359 0.0
H3544 H 0.28407 0.3835 0.88133 0.0
H3545 H 0.25429 0.36181 0.88853 0.0
H3546 H 0.26428 0.36171 0.89544 0.0
H3547 H 0.26401 0.35571 0.88495 0.0
C3548 C 0.29029 0.36848 0.9041 0.0
C3549 C 0.29258 0.35944 0.90258 0.0
C3550 C 0.28446 0.37296 0.89827 0.0
C3551 C 0.28074 0.3685 0.89081 0.0
C3552 C 0.28317 0.35956 0.88913 0.0
H3553 H 0.24413 0.38267 0.84785 0.0
H3554 H 0.25497 0.37554 0.85788 0.0
C3555 C 0.289 0.35507 0.89496 0.0
C3556 C 0.27434 0.37321 0.88477 0.0
H3557 H 0.25292 0.37216 0.87644 0.0
C3558 C 0.27724 0.38105 0.88029 0.0
C3559 C 0.26543 0.37002 0.88344 0.0
C3560 C 0.26177 0.3619 0.8884 0.0
C3561 C 0.27153 0.38567 0.87436 0.0
C3562 C 0.26265 0.38242 0.87297 0.0
C3563 C 0.25974 0.37462 0.87749 0.0
C3564 C 0.25627 0.38695 0.86679 0.0
C3565 C 0.27512 0.39385 0.86946 0.0
C3566 C 0.25336 0.39574 0.8685 0.0
C3567 C 0.2471 0.39983 0.8628 0.0
C3568 C 0.24358 0.39519 0.85531 0.0
C3569 C 0.24657 0.3864 0.85362 0.0
C3570 C 0.25282 0.38232 0.85932 0.0
H3571 H 0.28259 0.39422 0.86962 0.0
H3572 H 0.27286 0.39387 0.86234 0.0
H3573 H 0.2725 0.39999 0.87274 0.0
H3574 H 0.25581 0.39938 0.87433 0.0
H3575 H 0.24485 0.40654 0.86439 0.0
H3576 H 0.68288 0.27805 0.90944 0.0
H3577 H 0.67451 0.26825 0.89915 0.0
H3578 H 0.66481 0.29149 0.88488 0.0
H3579 H 0.67319 0.30135 0.89514 0.0
H3580 H 0.65627 0.26735 0.89593 0.0
H3581 H 0.67466 0.27621 0.86454 0.0
H3582 H 0.67881 0.27923 0.87555 0.0
H3583 H 0.67003 0.28566 0.87038 0.0
C3584 C 0.67895 0.28109 0.90413 0.0
C3585 C 0.67873 0.2905 0.90311 0.0
C3586 C 0.67419 0.27547 0.89823 0.0
C3587 C 0.66912 0.27912 0.89116 0.0
C3588 C 0.66883 0.28851 0.89015 0.0
H3589 H 0.63598 0.25362 0.84954 0.0
H3590 H 0.64313 0.26447 0.85977 0.0
C3591 C 0.67363 0.29414 0.89603 0.0
C3592 C 0.66399 0.27307 0.88502 0.0
H3593 H 0.66185 0.2667 0.86302 0.0
C3594 C 0.6575 0.26721 0.88874 0.0
C3595 C 0.66557 0.2729 0.87563 0.0
C3596 C 0.6727 0.27877 0.87127 0.0
C3597 C 0.65254 0.26121 0.88333 0.0
C3598 C 0.6542 0.26097 0.87396 0.0
C3599 C 0.66059 0.26691 0.87021 0.0
C3600 C 0.64959 0.25439 0.86797 0.0
C3601 C 0.6455 0.25524 0.88767 0.0
C3602 C 0.65088 0.24513 0.86916 0.0
C3603 C 0.6468 0.23892 0.86335 0.0
C3604 C 0.64135 0.24184 0.8562 0.0
C3605 C 0.64003 0.25114 0.85505 0.0
C3606 C 0.64416 0.25735 0.86085 0.0
H3607 H 0.64337 0.25787 0.89433 0.0
H3608 H 0.63947 0.25454 0.8833 0.0
H3609 H 0.64832 0.24844 0.88873 0.0
H3610 H 0.65516 0.24269 0.87452 0.0
H3611 H 0.6479 0.23182 0.86448 0.0
H3612 H 0.36474 0.73237 0.88832 0.0
H3613 H 0.37411 0.74366 0.88067 0.0
H3614 H 0.35977 0.76478 0.89415 0.0
H3615 H 0.35036 0.75354 0.90183 0.0
H3616 H 0.3684 0.75678 0.86907 0.0
H3617 H 0.38584 0.77234 0.89823 0.0
H3618 H 0.37987 0.76173 0.89903 0.0
H3619 H 0.3738 0.77212 0.89925 0.0
C3620 C 0.36359 0.73942 0.88968 0.0
C3621 C 0.35679 0.74205 0.89569 0.0
C3622 C 0.36898 0.74586 0.88533 0.0
C3623 C 0.36773 0.75507 0.88692 0.0
C3624 C 0.36101 0.75772 0.89298 0.0
H3625 H 0.38791 0.80452 0.86302 0.0
H3626 H 0.38029 0.79294 0.87205 0.0
C3627 C 0.35563 0.75127 0.89736 0.0
C3628 C 0.37308 0.76188 0.88181 0.0
H3629 H 0.38727 0.77998 0.88417 0.0
C3630 C 0.37259 0.7618 0.87237 0.0
C3631 C 0.37852 0.76845 0.88612 0.0
C3632 C 0.37963 0.76864 0.89621 0.0
C3633 C 0.37721 0.76823 0.86714 0.0
C3634 C 0.38261 0.77484 0.87145 0.0
C3635 C 0.38314 0.7749 0.88088 0.0
C3636 C 0.38758 0.78185 0.86626 0.0
C3637 C 0.37609 0.76805 0.85704 0.0
C3638 C 0.39435 0.77948 0.86013 0.0
C3639 C 0.39869 0.78608 0.85492 0.0
C3640 C 0.39636 0.79519 0.85575 0.0
C3641 C 0.38976 0.79755 0.8621 0.0
C3642 C 0.38544 0.79095 0.86731 0.0
H3643 H 0.37013 0.76398 0.85498 0.0
H3644 H 0.37538 0.77497 0.85431 0.0
H3645 H 0.38214 0.76503 0.85395 0.0
H3646 H 0.39621 0.77251 0.85931 0.0
H3647 H 0.40369 0.78401 0.85007 0.0
H3648 H 0.9836 0.32693 0.34536 0.0
H3649 H 1.0 0.32805 0.34413 0.0
H3650 H 0.99799 0.32645 0.31523 0.0
H3651 H 0.9816 0.32527 0.31639 0.0
H3652 H 1.01176 0.31572 0.33662 0.0
H3653 H 1.01422 0.3485 0.31884 0.0
H3654 H 1.00403 0.34466 0.32431 0.0
H3655 H 1.00699 0.34043 0.31339 0.0
C3656 C 0.98664 0.3268 0.33873 0.0
C3657 C 0.98126 0.32602 0.33097 0.0
C3658 C 0.99602 0.32748 0.33805 0.0
C3659 C 1.00022 0.32745 0.32959 0.0
C3660 C 0.99489 0.32669 0.32182 0.0
H3661 H 0.05524 0.3281 0.31025 0.0
H3662 H 0.03889 0.32745 0.31205 0.0
C3663 C 0.9855 0.32602 0.3225 0.0
C3664 C 1.0102 0.32788 0.32891 0.0
H3665 H 0.02766 0.34004 0.31989 0.0
C3666 C 1.01525 0.32107 0.33301 0.0
C3667 C 1.01475 0.33486 0.3242 0.0
C3668 C 1.00974 0.34258 0.32 0.0
C3669 C 0.02468 0.32092 0.33234 0.0
C3670 C 0.02922 0.32787 0.32757 0.0
C3671 C 0.02418 0.33471 0.32353 0.0
C3672 C 0.03918 0.32811 0.32659 0.0
C3673 C 0.02969 0.3132 0.33654 0.0
C3674 C 0.0448 0.32875 0.33417 0.0
C3675 C 0.05417 0.32915 0.33316 0.0
C3676 C 0.05811 0.32898 0.32455 0.0
C3677 C 0.05244 0.32835 0.31698 0.0
C3678 C 0.04309 0.32794 0.31799 0.0
H3679 H 0.02517 0.30735 0.3379 0.0
H3680 H 0.03526 0.31098 0.33212 0.0
H3681 H 0.03263 0.31542 0.34304 0.0
H3682 H 0.04194 0.3291 0.34086 0.0
H3683 H 0.05832 0.32979 0.33912 0.0
H3684 H 0.72295 0.055 0.31893 0.0
H3685 H 0.72191 0.03857 0.31867 0.0
H3686 H 0.70289 0.03912 0.34059 0.0
H3687 H 0.70383 0.05556 0.34083 0.0
H3688 H 0.72631 0.02687 0.33183 0.0
H3689 H 0.69022 0.02231 0.32331 0.0
H3690 H 0.69598 0.03301 0.32223 0.0
H3691 H 0.69207 0.0292 0.33305 0.0
C3692 C 0.71852 0.05162 0.32368 0.0
C3693 C 0.71346 0.0566 0.32989 0.0
C3694 C 0.7179 0.04223 0.3235 0.0
C3695 C 0.71222 0.03759 0.32952 0.0
C3696 C 0.70714 0.04254 0.33572 0.0
H3697 H 0.70482 0.9811 0.3433 0.0
H3698 H 0.70443 0.99757 0.34257 0.0
C3699 C 0.7077 0.05194 0.33586 0.0
C3700 C 0.71201 0.02758 0.32961 0.0
H3701 H 0.69805 1.0092 0.32799 0.0
C3702 C 0.72014 0.02301 0.33093 0.0
C3703 C 0.70395 0.02253 0.32846 0.0
C3704 C 0.69507 0.027 0.3266 0.0
C3705 C 0.7204 1.01358 0.33125 0.0
C3706 C 0.71235 1.00855 0.33014 0.0
C3707 C 0.70421 1.01308 0.32885 0.0
C3708 C 0.71227 0.99857 0.33034 0.0
C3709 C 0.72928 1.00905 0.33295 0.0
C3710 C 0.71667 0.99367 0.32361 0.0
C3711 C 0.71691 0.98427 0.32401 0.0
C3712 C 0.71276 0.97958 0.33116 0.0
C3713 C 0.70819 0.98451 0.33778 0.0
C3714 C 0.70791 0.99391 0.33734 0.0
H3715 H 0.73444 1.01384 0.33557 0.0
H3716 H 0.72846 1.00344 0.33784 0.0
H3717 H 0.73182 1.00621 0.32655 0.0
H3718 H 0.71999 0.99713 0.31809 0.0
H3719 H 0.72054 0.98069 0.31884 0.0
H3720 H 0.98237 0.69216 0.32663 0.0
H3721 H 0.99876 0.69345 0.3278 0.0
H3722 H 0.99693 0.72234 0.32659 0.0
H3723 H 0.98054 0.72112 0.32536 0.0
H3724 H 1.01074 0.70124 0.3156 0.0
H3725 H 1.01282 0.71843 0.34866 0.0
H3726 H 1.00265 0.71298 0.34471 0.0
H3727 H 1.00576 0.72397 0.34061 0.0
C3728 C 0.98545 0.69879 0.32659 0.0
C3729 C 0.98012 0.70654 0.32591 0.0
C3730 C 0.99482 0.69952 0.3273 0.0
C3731 C 0.99907 0.70799 0.3274 0.0
C3732 C 0.99379 0.71574 0.32673 0.0
H3733 H 0.05437 0.72721 0.32865 0.0
H3734 H 0.038 0.72551 0.32787 0.0
C3735 C 0.98441 0.71502 0.32603 0.0
C3736 C 1.00905 0.70871 0.32787 0.0
H3737 H 0.02639 0.71749 0.34027 0.0
C3738 C 1.01417 0.70475 0.32102 0.0
C3739 C 1.01352 0.71329 0.33494 0.0
C3740 C 1.00842 0.71735 0.3427 0.0
C3741 C 0.02361 0.70541 0.32094 0.0
C3742 C 0.02808 0.71004 0.32799 0.0
C3743 C 0.02297 0.71397 0.33486 0.0
C3744 C 0.03805 0.71097 0.32833 0.0
C3745 C 0.02871 0.70136 0.31319 0.0
C3746 C 0.04354 0.70336 0.32891 0.0
C3747 C 0.05291 0.70431 0.32937 0.0
C3748 C 0.057 0.7129 0.32935 0.0
C3749 C 0.05146 0.7205 0.32879 0.0
C3750 C 0.0421 0.71955 0.32831 0.0
H3751 H 0.02428 0.70014 0.30728 0.0
H3752 H 0.03439 0.70581 0.31108 0.0
H3753 H 0.03151 0.69481 0.31532 0.0
H3754 H 0.04056 0.69669 0.32913 0.0
H3755 H 0.05695 0.69832 0.32995 0.0
H3756 H 0.34362 0.05604 0.33338 0.0
H3757 H 0.34354 0.03957 0.33408 0.0
H3758 H 0.31878 0.03876 0.31896 0.0
H3759 H 0.31885 0.05519 0.31818 0.0
H3760 H 0.3313 0.02723 0.34095 0.0
H3761 H 0.33493 0.02274 0.30408 0.0
H3762 H 0.3366 0.03348 0.30949 0.0
H3763 H 0.3254 0.02936 0.30718 0.0
C3764 C 0.33812 0.05235 0.33027 0.0
C3765 C 0.33128 0.05693 0.32564 0.0
C3766 C 0.3381 0.04294 0.33065 0.0
C3767 C 0.33126 0.03792 0.32641 0.0
C3768 C 0.32426 0.04248 0.32207 0.0
H3769 H 0.31998 0.98087 0.3194 0.0
H3770 H 0.3192 0.99729 0.32032 0.0
C3771 C 0.3243 0.05188 0.32164 0.0
C3772 C 0.33148 0.02792 0.32647 0.0
H3773 H 0.33193 1.00957 0.31266 0.0
C3774 C 0.33148 0.02337 0.33477 0.0
C3775 C 0.33174 0.02288 0.3184 0.0
C3776 C 0.33226 0.02735 0.30928 0.0
C3777 C 0.33155 1.01391 0.3352 0.0
C3778 C 0.33172 1.00889 0.32713 0.0
C3779 C 0.33174 1.01344 0.31884 0.0
C3780 C 0.332 0.99891 0.32709 0.0
C3781 C 0.33127 1.00937 0.34428 0.0
C3782 C 0.33946 0.99437 0.33058 0.0
C3783 C 0.33993 0.98499 0.33007 0.0
C3784 C 0.33294 0.97995 0.32605 0.0
C3785 C 0.32542 0.98453 0.32265 0.0
C3786 C 0.32498 0.99391 0.32312 0.0
H3787 H 0.32902 1.01401 0.34966 0.0
H3788 H 0.32669 1.00341 0.34417 0.0
H3789 H 0.33811 1.00703 0.34603 0.0
H3790 H 0.34501 0.9981 0.33355 0.0
H3791 H 0.34578 0.98168 0.33281 0.0
H3792 H 0.05454 0.72556 0.7073 0.0
H3793 H 0.03817 0.72384 0.70809 0.0
H3794 H 0.04077 0.69501 0.707 0.0
H3795 H 0.05717 0.69668 0.70617 0.0
H3796 H 0.02656 0.71581 0.69577 0.0
H3797 H 0.02452 0.69846 0.72886 0.0
H3798 H 0.03462 0.70413 0.725 0.0
H3799 H 0.03172 0.69314 0.72081 0.0
C3800 C 0.05164 0.71885 0.7072 0.0
C3801 C 0.05719 0.71126 0.70668 0.0
C3802 C 0.04228 0.71788 0.70769 0.0
C3803 C 0.03824 0.7093 0.70772 0.0
C3804 C 0.04374 0.7017 0.70718 0.0
H3805 H 0.98236 0.69093 0.70991 0.0
H3806 H 0.99875 0.69201 0.70858 0.0
C3807 C 0.05312 0.70266 0.70671 0.0
C3808 C 0.02827 0.70836 0.70809 0.0
H3809 H 1.01094 0.69967 0.72062 0.0
C3810 C 0.02314 0.7123 0.70122 0.0
C3811 C 0.02382 0.70376 0.71518 0.0
C3812 C 0.02893 0.69969 0.72293 0.0
C3813 C 1.01369 0.71169 0.7012 0.0
C3814 C 1.00924 0.70715 0.70833 0.0
C3815 C 1.01437 0.70315 0.71516 0.0
C3816 C 0.99926 0.70655 0.70889 0.0
C3817 C 1.00858 0.71576 0.69345 0.0
C3818 C 0.99408 0.71436 0.70957 0.0
C3819 C 0.9847 0.71377 0.71036 0.0
C3820 C 0.9803 0.70534 0.71056 0.0
C3821 C 0.98552 0.69753 0.70988 0.0
C3822 C 0.99489 0.69813 0.70908 0.0
H3823 H 1.01294 0.71678 0.68745 0.0
H3824 H 1.00274 0.71146 0.69152 0.0
H3825 H 1.006 0.72243 0.69551 0.0
H3826 H 0.99731 0.72093 0.70965 0.0
H3827 H 0.98093 0.71992 0.71104 0.0
H3828 H 0.34723 0.98258 0.70859 0.0
H3829 H 0.34622 0.99896 0.70768 0.0
H3830 H 0.31746 0.99712 0.71126 0.0
H3831 H 0.31844 0.98074 0.71244 0.0
H3832 H 0.33652 1.01004 0.69585 0.0
H3833 H 0.32538 1.01446 0.73126 0.0
H3834 H 0.33001 1.00406 0.7272 0.0
H3835 H 0.31855 1.00689 0.72469 0.0
C3836 C 0.34069 0.98565 0.70925 0.0
C3837 C 0.33292 0.98033 0.71068 0.0
C3838 C 0.34012 0.99502 0.70866 0.0
C3839 C 0.33179 0.99928 0.70955 0.0
C3840 C 0.32399 0.99399 0.71071 0.0
H3841 H 0.31826 0.0563 0.71262 0.0
H3842 H 0.31747 0.03989 0.71134 0.0
C3843 C 0.32454 0.98461 0.71129 0.0
C3844 C 0.33133 1.00926 0.70936 0.0
H3845 H 0.32612 0.02751 0.72221 0.0
C3846 C 0.33423 1.01387 0.7016 0.0
C3847 C 0.32833 1.01424 0.71687 0.0
C3848 C 0.32546 1.00969 0.72551 0.0
C3849 C 0.33419 0.02331 0.70115 0.0
C3850 C 0.33132 0.0283 0.70871 0.0
C3851 C 0.32829 0.02369 0.71641 0.0
C3852 C 0.33172 0.03829 0.70892 0.0
C3853 C 0.33713 0.02787 0.69253 0.0
C3854 C 0.33999 0.04286 0.708 0.0
C3855 C 0.34046 0.05223 0.70869 0.0
C3856 C 0.33266 0.05726 0.71037 0.0
C3857 C 0.32437 0.05266 0.7112 0.0
C3858 C 0.32391 0.04327 0.71053 0.0
H3859 H 0.33657 0.02325 0.68668 0.0
H3860 H 0.33305 0.03393 0.69116 0.0
H3861 H 0.34428 0.03 0.69315 0.0
H3862 H 0.34613 0.03916 0.70693 0.0
H3863 H 0.34694 0.05555 0.70793 0.0
H3864 H 0.9833 0.31166 0.70916 0.0
H3865 H 0.99968 0.31317 0.71003 0.0
H3866 H 0.99767 0.34174 0.70562 0.0
H3867 H 0.98126 0.3403 0.70472 0.0
H3868 H 1.01157 0.31956 0.69705 0.0
H3869 H 1.01362 0.34045 0.72793 0.0
H3870 H 1.00345 0.3346 0.72461 0.0
H3871 H 1.00662 0.34499 0.71922 0.0
C3872 C 0.98633 0.31827 0.70835 0.0
C3873 C 0.98094 0.32586 0.70688 0.0
C3874 C 0.9957 0.31912 0.70889 0.0
C3875 C 0.9999 0.32758 0.70801 0.0
C3876 C 0.99457 0.33517 0.70652 0.0
H3877 H 0.05607 0.34514 0.7088 0.0
H3878 H 0.03967 0.34419 0.7074 0.0
C3879 C 0.98518 0.33434 0.706 0.0
C3880 C 1.00988 0.32837 0.70839 0.0
H3881 H 0.02725 0.33811 0.72004 0.0
C3882 C 1.015 0.3236 0.70209 0.0
C3883 C 1.01436 0.33366 0.71496 0.0
C3884 C 1.00925 0.33866 0.72212 0.0
C3885 C 0.02446 0.32405 0.70211 0.0
C3886 C 0.02893 0.32928 0.70871 0.0
C3887 C 0.02382 0.3341 0.71498 0.0
C3888 C 0.03892 0.32977 0.70932 0.0
C3889 C 0.02956 0.31904 0.69494 0.0
C3890 C 0.04395 0.32199 0.71092 0.0
C3891 C 0.05333 0.32252 0.71175 0.0
C3892 C 0.05787 0.33085 0.71107 0.0
C3893 C 0.05279 0.33863 0.70946 0.0
C3894 C 0.04342 0.33809 0.70862 0.0
H3895 H 0.02524 0.31746 0.68904 0.0
H3896 H 0.0355 0.323 0.69261 0.0
H3897 H 0.03197 0.3126 0.69778 0.0
H3898 H 0.04061 0.31553 0.71169 0.0
H3899 H 0.05699 0.31642 0.71314 0.0
H3900 H 0.72107 0.98246 0.69354 0.0
H3901 H 0.71976 0.99879 0.69426 0.0
H3902 H 0.70368 0.99628 0.71832 0.0
H3903 H 0.70527 0.97992 0.71787 0.0
H3904 H 0.70484 1.00941 0.69372 0.0
H3905 H 0.72293 1.01424 0.72611 0.0
H3906 H 0.72313 1.00376 0.72001 0.0
H3907 H 0.71347 1.00663 0.72665 0.0
C3908 C 0.71735 0.98536 0.69907 0.0
C3909 C 0.71337 0.97984 0.70571 0.0
C3910 C 0.71655 0.99471 0.69943 0.0
C3911 C 0.71175 0.99879 0.70643 0.0
C3912 C 0.70757 0.99331 0.71295 0.0
H3913 H 0.70304 0.05613 0.71704 0.0
H3914 H 0.70218 0.03967 0.71748 0.0
C3915 C 0.7084 0.98394 0.71262 0.0
C3916 C 0.71111 1.00876 0.70677 0.0
H3917 H 0.71669 0.02718 0.71943 0.0
C3918 C 0.70742 1.01329 0.69936 0.0
C3919 C 0.71444 1.01383 0.71414 0.0
C3920 C 0.71879 1.0094 0.72216 0.0
C3921 C 0.70703 0.02272 0.69907 0.0
C3922 C 0.71053 0.02779 0.70635 0.0
C3923 C 0.71401 0.02328 0.71387 0.0
C3924 C 0.71101 0.03777 0.70609 0.0
C3925 C 0.70286 0.0272 0.69099 0.0
C3926 C 0.71637 0.04216 0.69963 0.0
C3927 C 0.71696 0.05155 0.69941 0.0
C3928 C 0.71218 0.05678 0.70565 0.0
C3929 C 0.70687 0.05234 0.71218 0.0
C3930 C 0.70633 0.04293 0.71241 0.0
H3931 H 0.69842 0.02249 0.6872 0.0
H3932 H 0.69888 0.03313 0.69302 0.0
H3933 H 0.70829 0.02955 0.68638 0.0
H3934 H 0.72021 0.03831 0.69481 0.0
H3935 H 0.72128 0.0547 0.69442 0.0
H3936 H 0.34686 0.32921 0.98207 0.0
H3937 H 0.34589 0.33003 0.99848 0.0
H3938 H 0.31714 0.32603 0.99704 0.0
H3939 H 0.31808 0.32492 0.98063 0.0
H3940 H 0.33612 0.34169 1.00969 0.0
H3941 H 0.32522 0.30609 1.0143 0.0
H3942 H 0.32982 0.31027 1.00383 0.0
H3943 H 0.31835 0.31257 1.0068 0.0
C3944 C 0.34033 0.32844 0.98523 0.0
C3945 C 0.33256 0.3269 0.98002 0.0
C3946 C 0.33978 0.32898 0.99462 0.0
C3947 C 0.33146 0.32795 0.999 0.0
C3948 C 0.32365 0.32668 0.99381 0.0
H3949 H 0.31809 0.32444 0.05625 0.0
H3950 H 0.31725 0.32577 0.03984 0.0
C3951 C 0.32419 0.32615 0.98442 0.0
C3952 C 0.33102 0.3281 1.00899 0.0
H3953 H 0.32594 0.3151 0.02734 0.0
C3954 C 0.33388 0.33588 1.01355 0.0
C3955 C 0.32809 0.32052 1.01403 0.0
C3956 C 0.32526 0.31185 1.00952 0.0
C3957 C 0.33386 0.33631 0.02301 0.0
C3958 C 0.33105 0.32868 0.02804 0.0
C3959 C 0.32807 0.32095 0.02348 0.0
C3960 C 0.33148 0.32844 0.03804 0.0
C3961 C 0.33674 0.34495 0.02752 0.0
C3962 C 0.33975 0.32949 0.04249 0.0
C3963 C 0.34025 0.32878 0.05186 0.0
C3964 C 0.33248 0.32694 0.05701 0.0
C3965 C 0.32418 0.32598 0.05253 0.0
C3966 C 0.3237 0.32668 0.04314 0.0
H3967 H 0.33613 0.3508 0.0229 0.0
H3968 H 0.33267 0.34623 0.03364 0.0
H3969 H 0.3439 0.34446 0.02955 0.0
H3970 H 0.34588 0.33069 0.0387 0.0
H3971 H 0.34674 0.32964 0.05509 0.0
H3972 H 0.3291 0.69843 0.98081 0.0
H3973 H 0.32797 0.69749 0.99726 0.0
H3974 H 0.33375 0.7259 0.99921 0.0
H3975 H 0.33463 0.72695 0.98284 0.0
H3976 H 0.34115 0.70172 1.01009 0.0
H3977 H 0.31118 0.72305 1.01466 0.0
H3978 H 0.31431 0.71848 1.00387 0.0
H3979 H 0.31988 0.72841 1.00811 0.0
C3980 C 0.33 0.7045 0.98474 0.0
C3981 C 0.33195 0.71277 0.98049 0.0
C3982 C 0.32941 0.70394 0.99414 0.0
C3983 C 0.33065 0.71165 0.99947 0.0
C3984 C 0.3326 0.71989 0.99525 0.0
H3985 H 0.33521 0.72675 0.05494 0.0
H3986 H 0.33439 0.72559 0.03857 0.0
C3987 C 0.33321 0.72046 0.98587 0.0
C3988 C 0.33022 0.71108 1.00945 0.0
H3989 H 0.31988 0.72007 0.02783 0.0
C3990 C 0.33643 0.70564 1.01398 0.0
C3991 C 0.32405 0.71619 1.01451 0.0
C3992 C 0.31691 0.72179 1.01004 0.0
C3993 C 0.33688 0.70547 0.02344 0.0
C3994 C 0.33087 0.71078 0.02849 0.0
C3995 C 0.32451 0.71604 0.02396 0.0
C3996 C 0.33133 0.71133 0.03847 0.0
C3997 C 0.34402 0.69989 0.02793 0.0
C3998 C 0.32978 0.70372 0.04389 0.0
C3999 C 0.3303 0.70435 0.05328 0.0
C4000 C 0.33237 0.71261 0.05745 0.0
C4001 C 0.33377 0.72024 0.05198 0.0
C4002 C 0.33324 0.71961 0.04261 0.0
H4003 H 0.34931 0.6978 0.02311 0.0
H4004 H 0.34726 0.70368 0.03351 0.0
H4005 H 0.34086 0.69373 0.0308 0.0
H4006 H 0.32814 0.69729 0.04085 0.0
H4007 H 0.32922 0.69833 0.05728 0.0
H4008 H 0.69941 0.33255 0.05668 0.0
H4009 H 0.69802 0.33165 0.04026 0.0
H4010 H 0.72616 0.32519 0.03824 0.0
H4011 H 0.72755 0.32585 0.0546 0.0
H4012 H 0.70727 0.34196 0.02745 0.0
H4013 H 0.71427 0.30576 0.02277 0.0
H4014 H 0.71142 0.31047 0.03358 0.0
H4015 H 0.72271 0.3115 0.0293 0.0
C4016 C 0.70527 0.33079 0.05275 0.0
C4017 C 0.71359 0.32927 0.05697 0.0
C4018 C 0.70447 0.33033 0.04336 0.0
C4019 C 0.71196 0.32823 0.03802 0.0
C4020 C 0.72026 0.32666 0.04222 0.0
H4021 H 0.72739 0.32705 0.98239 0.0
H4022 H 0.72606 0.32633 0.99878 0.0
C4023 C 0.72106 0.32714 0.05158 0.0
C4024 C 0.71125 0.3281 0.02804 0.0
H4025 H 0.71509 0.31499 1.00959 0.0
C4026 C 0.70886 0.33603 0.02354 0.0
C4027 C 0.71333 0.32036 0.02295 0.0
C4028 C 0.71549 0.31151 0.02739 0.0
C4029 C 0.70886 0.33655 1.01408 0.0
C4030 C 0.71118 0.32888 1.009 0.0
C4031 C 0.71335 0.32088 1.0135 0.0
C4032 C 0.71181 0.32913 0.99902 0.0
C4033 C 0.70673 0.3454 1.00962 0.0
C4034 C 0.7042 0.33081 0.99368 0.0
C4035 C 0.70495 0.33126 0.98429 0.0
C4036 C 0.71333 0.33004 0.98005 0.0
C4037 C 0.72088 0.32818 0.98543 0.0
C4038 C 0.72012 0.3277 0.9948 0.0
H4039 H 0.70697 0.35108 1.01446 0.0
H4040 H 0.71152 0.34685 1.00405 0.0
H4041 H 0.69985 0.34503 1.00673 0.0
H4042 H 0.69769 0.33179 0.99678 0.0
H4043 H 0.69901 0.33274 0.98036 0.0
H4044 H 0.71074 0.69144 0.05541 0.0
H4045 H 0.70991 0.69242 0.039 0.0
H4046 H 0.71278 0.72126 0.04046 0.0
H4047 H 0.7139 0.72033 0.05688 0.0
H4048 H 0.69788 0.70169 0.02779 0.0
H4049 H 0.73302 0.71408 0.02321 0.0
H4050 H 0.72904 0.70931 0.03368 0.0
H4051 H 0.72625 0.72066 0.03068 0.0
C4052 C 0.71127 0.698 0.05225 0.0
C4053 C 0.71248 0.7058 0.05748 0.0
C4054 C 0.71072 0.69854 0.04287 0.0
C4055 C 0.71143 0.70689 0.03849 0.0
C4056 C 0.71238 0.71473 0.04368 0.0
H4057 H 0.71434 0.72024 0.98114 0.0
H4058 H 0.713 0.72111 0.99755 0.0
C4059 C 0.71292 0.71419 0.05308 0.0
C4060 C 0.71126 0.70735 0.02849 0.0
H4061 H 0.72404 0.71295 1.01015 0.0
C4062 C 0.70359 0.70416 0.02393 0.0
C4063 C 0.71871 0.7106 0.02346 0.0
C4064 C 0.72726 0.71379 0.02798 0.0
C4065 C 0.70316 0.70416 1.01447 0.0
C4066 C 0.71067 0.70726 1.00945 0.0
C4067 C 0.71828 0.71059 1.01401 0.0
C4068 C 0.71094 0.7068 0.99945 0.0
C4069 C 0.69464 0.7009 1.00996 0.0
C4070 C 0.71025 0.69847 0.99506 0.0
C4071 C 0.71098 0.69796 0.98569 0.0
C4072 C 0.71247 0.70576 0.98049 0.0
C4073 C 0.71308 0.71411 0.98491 0.0
C4074 C 0.71237 0.71462 0.9943 0.0
H4075 H 0.68876 0.70129 1.01456 0.0
H4076 H 0.6932 0.70489 1.00381 0.0
H4077 H 0.69543 0.69377 1.00797 0.0
H4078 H 0.70932 0.69233 0.9989 0.0
H4079 H 0.71039 0.69143 0.98251 0.0
H4080 H 0.48139 0.83899 0.82719 0.0
H4081 H 0.4978 0.84007 0.82583 0.0
H4082 H 0.49999 0.81217 0.83339 0.0
H4083 H 0.48362 0.81095 0.83448 0.0
H4084 H 0.51091 0.83693 0.83905 0.0
H4085 H 0.51487 0.81358 0.81028 0.0
H4086 H 0.50414 0.81822 0.81339 0.0
H4087 H 0.50866 0.80891 0.81957 0.0
C4088 C 0.48535 0.83305 0.82844 0.0
C4089 C 0.48116 0.82487 0.83092 0.0
C4090 C 0.49474 0.8337 0.82772 0.0
C4091 C 0.50012 0.82617 0.82939 0.0
C4092 C 0.49597 0.81803 0.83192 0.0
H4093 H 0.55762 0.8158 0.82888 0.0
H4094 H 0.54125 0.81497 0.83061 0.0
C4095 C 0.4866 0.81737 0.83264 0.0
C4096 C 0.51009 0.82688 0.82868 0.0
H4097 H 0.52826 0.81828 0.81769 0.0
C4098 C 0.51471 0.8329 0.83435 0.0
C4099 C 0.51503 0.82158 0.82256 0.0
C4100 C 0.51043 0.81526 0.81604 0.0
C4101 C 0.52415 0.83364 0.83419 0.0
C4102 C 0.5291 0.82833 0.82808 0.0
C4103 C 0.52447 0.82232 0.8224 0.0
C4104 C 0.53907 0.82897 0.82738 0.0
C4105 C 0.52875 0.83994 0.84073 0.0
C4106 C 0.54331 0.8371 0.82495 0.0
C4107 C 0.55267 0.83762 0.82402 0.0
C4108 C 0.55802 0.82999 0.82543 0.0
C4109 C 0.55374 0.82184 0.82787 0.0
C4110 C 0.54437 0.82133 0.8288 0.0
H4111 H 0.52432 0.84156 0.84651 0.0
H4112 H 0.53507 0.837 0.84334 0.0
H4113 H 0.53046 0.84633 0.83722 0.0
H4114 H 0.53936 0.84304 0.82365 0.0
H4115 H 0.55572 0.84402 0.82222 0.0
H4116 H 0.19933 0.47989 0.82951 0.0
H4117 H 0.19813 0.49629 0.82833 0.0
H4118 H 0.22696 0.49891 0.83077 0.0
H4119 H 0.22824 0.48259 0.83169 0.0
H4120 H 0.20354 0.50925 0.84084 0.0
H4121 H 0.22167 0.5142 0.80861 0.0
H4122 H 0.21757 0.50332 0.81229 0.0
H4123 H 0.22796 0.50783 0.81667 0.0
C4124 C 0.20543 0.48396 0.82966 0.0
C4125 C 0.21389 0.47991 0.83069 0.0
C4126 C 0.20472 0.49333 0.82904 0.0
C4127 C 0.21247 0.49883 0.82933 0.0
C4128 C 0.2209 0.49481 0.83035 0.0
H4129 H 0.22752 0.55452 0.83237 0.0
H4130 H 0.22638 0.53814 0.83152 0.0
C4131 C 0.22161 0.48546 0.83099 0.0
C4132 C 0.21176 0.50879 0.82893 0.0
H4133 H 0.21951 0.52733 0.81758 0.0
C4134 C 0.20693 0.51321 0.83569 0.0
C4135 C 0.21617 0.51394 0.82219 0.0
C4136 C 0.22106 0.50958 0.81448 0.0
C4137 C 0.20672 0.52266 0.83614 0.0
C4138 C 0.21137 0.52781 0.82955 0.0
C4139 C 0.21599 0.52338 0.82265 0.0
C4140 C 0.21191 0.53779 0.82996 0.0
C4141 C 0.20186 0.52704 0.84386 0.0
C4142 C 0.20415 0.54306 0.82924 0.0
C4143 C 0.20478 0.55246 0.82978 0.0
C4144 C 0.21317 0.55676 0.83104 0.0
C4145 C 0.22093 0.55144 0.83158 0.0
C4146 C 0.2203 0.54207 0.83102 0.0
H4147 H 0.20029 0.52218 0.84934 0.0
H4148 H 0.20593 0.53267 0.84668 0.0
H4149 H 0.19542 0.52983 0.84138 0.0
H4150 H 0.19762 0.53991 0.82827 0.0
H4151 H 0.19867 0.55634 0.82937 0.0
H4152 H 0.55647 0.21312 0.81601 0.0
H4153 H 0.54005 0.21189 0.81499 0.0
H4154 H 0.53836 0.2093 0.84385 0.0
H4155 H 0.55475 0.21047 0.84493 0.0
H4156 H 0.52832 0.1981 0.82074 0.0
H4157 H 0.52126 0.23004 0.83854 0.0
H4158 H 0.5323 0.22734 0.83434 0.0
H4159 H 0.52828 0.22242 0.84467 0.0
C4160 C 0.55262 0.21221 0.82214 0.0
C4161 C 0.55694 0.21197 0.83056 0.0
C4162 C 0.54323 0.21155 0.82155 0.0
C4163 C 0.53796 0.21067 0.82936 0.0
C4164 C 0.54226 0.2102 0.83775 0.0
H4165 H 0.48018 0.2065 0.83917 0.0
H4166 H 0.4966 0.20731 0.84058 0.0
C4167 C 0.55165 0.21087 0.83835 0.0
C4168 C 0.52799 0.21015 0.82871 0.0
H4169 H 0.5087 0.22071 0.83512 0.0
C4170 C 0.52403 0.20305 0.82385 0.0
C4171 C 0.52239 0.21661 0.83281 0.0
C4172 C 0.52625 0.22458 0.83782 0.0
C4173 C 0.51463 0.20217 0.82308 0.0
C4174 C 0.50903 0.20866 0.82713 0.0
C4175 C 0.51299 0.21573 0.83202 0.0
C4176 C 0.49907 0.20829 0.82626 0.0
C4177 C 0.51077 0.19418 0.81809 0.0
C4178 C 0.49498 0.20876 0.81776 0.0
C4179 C 0.48561 0.20833 0.81693 0.0
C4180 C 0.4801 0.20748 0.8246 0.0
C4181 C 0.48421 0.20722 0.83313 0.0
C4182 C 0.49359 0.20764 0.83395 0.0
H4183 H 0.51571 0.18865 0.81758 0.0
H4184 H 0.5046 0.19156 0.82145 0.0
H4185 H 0.50896 0.19627 0.81115 0.0
H4186 H 0.49905 0.20951 0.81175 0.0
H4187 H 0.48268 0.20874 0.81027 0.0
H4188 H 0.81841 0.55665 0.82697 0.0
H4189 H 0.81761 0.54024 0.82823 0.0
H4190 H 0.84659 0.53918 0.82908 0.0
H4191 H 0.84744 0.55557 0.82811 0.0
H4192 H 0.82464 0.52792 0.81632 0.0
H4193 H 0.8395 0.5231 0.85016 0.0
H4194 H 0.8356 0.53388 0.84626 0.0
H4195 H 0.84644 0.52983 0.84284 0.0
C4196 C 0.82461 0.55295 0.8276 0.0
C4197 C 0.833 0.55745 0.82744 0.0
C4198 C 0.82414 0.54355 0.82827 0.0
C4199 C 0.83203 0.53848 0.82887 0.0
C4200 C 0.8404 0.54296 0.8288 0.0
H4201 H 0.84723 0.4828 0.82659 0.0
H4202 H 0.84634 0.49917 0.8278 0.0
C4203 C 0.84088 0.55233 0.82813 0.0
C4204 C 0.83156 0.52848 0.82904 0.0
H4205 H 0.83826 0.51002 0.84091 0.0
C4206 C 0.82752 0.524 0.82175 0.0
C4207 C 0.83534 0.52337 0.83611 0.0
C4208 C 0.83939 0.52778 0.84433 0.0
C4209 C 0.82744 0.51457 0.82118 0.0
C4210 C 0.83137 0.50946 0.82818 0.0
C4211 C 0.83526 0.51393 0.83555 0.0
C4212 C 0.83179 0.49948 0.82779 0.0
C4213 C 0.82344 0.51016 0.81293 0.0
C4214 C 0.8239 0.4942 0.82756 0.0
C4215 C 0.82439 0.48483 0.8268 0.0
C4216 C 0.83278 0.48055 0.82629 0.0
C4217 C 0.84066 0.48587 0.82679 0.0
C4218 C 0.84017 0.49523 0.82756 0.0
H4219 H 0.82262 0.51502 0.80731 0.0
H4220 H 0.82772 0.50455 0.81059 0.0
H4221 H 0.8167 0.50735 0.81463 0.0
H4222 H 0.81736 0.49732 0.82789 0.0
H4223 H 0.81818 0.48096 0.82638 0.0
H4224 H 0.48091 0.22031 0.21259 0.0
H4225 H 0.49731 0.22142 0.21136 0.0
H4226 H 0.49864 0.19281 0.20696 0.0
H4227 H 0.48223 0.19168 0.20792 0.0
H4228 H 0.51003 0.21288 0.22216 0.0
H4229 H 0.51401 0.20297 0.18639 0.0
H4230 H 0.50332 0.20624 0.19108 0.0
H4231 H 0.50757 0.19514 0.19307 0.0
C4232 C 0.48467 0.21427 0.21121 0.0
C4233 C 0.48023 0.20591 0.21033 0.0
C4234 C 0.49406 0.21491 0.21057 0.0
C4235 C 0.49921 0.20722 0.20896 0.0
C4236 C 0.49481 0.19886 0.20805 0.0
H4237 H 0.55692 0.19767 0.20499 0.0
H4238 H 0.54051 0.19609 0.20597 0.0
C4239 C 0.48542 0.19822 0.2087 0.0
C4240 C 0.50919 0.20789 0.2086 0.0
H4241 H 0.52738 0.20429 0.19504 0.0
C4242 C 0.51383 0.21104 0.21622 0.0
C4243 C 0.51414 0.20544 0.20085 0.0
C4244 C 0.50952 0.20233 0.19235 0.0
C4245 C 0.52327 0.21171 0.21635 0.0
C4246 C 0.52821 0.20931 0.20859 0.0
C4247 C 0.52358 0.20611 0.20098 0.0
C4248 C 0.53817 0.21025 0.20818 0.0
C4249 C 0.52788 0.21482 0.22486 0.0
C4250 C 0.54231 0.21874 0.20903 0.0
C4251 C 0.55167 0.21965 0.20851 0.0
C4252 C 0.55712 0.2121 0.20708 0.0
C4253 C 0.55294 0.2036 0.20622 0.0
C4254 C 0.54356 0.20269 0.20671 0.0
H4255 H 0.52343 0.21407 0.23083 0.0
H4256 H 0.53414 0.21099 0.22607 0.0
H4257 H 0.52972 0.22204 0.22418 0.0
H4258 H 0.53828 0.22468 0.21001 0.0
H4259 H 0.55466 0.22629 0.20928 0.0
H4260 H 0.83297 0.48053 0.19883 0.0
H4261 H 0.83247 0.49699 0.19779 0.0
H4262 H 0.82998 0.49866 0.22664 0.0
H4263 H 0.83041 0.48228 0.22774 0.0
H4264 H 0.8194 0.50947 0.20371 0.0
H4265 H 0.85202 0.51464 0.22117 0.0
H4266 H 0.84848 0.50385 0.21679 0.0
H4267 H 0.84418 0.50776 0.22738 0.0
C4268 C 0.83223 0.4844 0.20495 0.0
C4269 C 0.83184 0.48008 0.21338 0.0
C4270 C 0.83198 0.4938 0.20434 0.0
C4271 C 0.83137 0.49906 0.21215 0.0
C4272 C 0.83068 0.49476 0.22054 0.0
H4273 H 0.82981 0.55473 0.22739 0.0
H4274 H 0.8295 0.53834 0.22631 0.0
C4275 C 0.83093 0.48538 0.22116 0.0
C4276 C 0.83153 0.50904 0.21161 0.0
H4277 H 0.84299 0.5276 0.21912 0.0
C4278 C 0.82459 0.51345 0.207 0.0
C4279 C 0.83834 0.51422 0.21587 0.0
C4280 C 0.84623 0.50989 0.22051 0.0
C4281 C 0.8241 0.5229 0.20686 0.0
C4282 C 0.83079 0.52806 0.21133 0.0
C4283 C 0.83783 0.52364 0.21575 0.0
C4284 C 0.83052 0.53804 0.21179 0.0
C4285 C 0.81626 0.52727 0.20219 0.0
C4286 C 0.83119 0.54334 0.20398 0.0
C4287 C 0.8314 0.55275 0.20457 0.0
C4288 C 0.83103 0.55703 0.21301 0.0
C4289 C 0.83024 0.55167 0.2208 0.0
C4290 C 0.83002 0.5423 0.22019 0.0
H4291 H 0.8107 0.5224 0.20086 0.0
H4292 H 0.81361 0.53289 0.20628 0.0
H4293 H 0.81856 0.53007 0.19564 0.0
H4294 H 0.83176 0.54021 0.19743 0.0
H4295 H 0.83213 0.55666 0.19846 0.0
H4296 H 0.55731 0.81631 0.20912 0.0
H4297 H 0.54093 0.81551 0.20742 0.0
H4298 H 0.53933 0.84408 0.2119 0.0
H4299 H 0.5557 0.84501 0.21329 0.0
H4300 H 0.52802 0.82004 0.22003 0.0
H4301 H 0.52424 0.84083 0.18924 0.0
H4302 H 0.53495 0.83645 0.1928 0.0
H4303 H 0.53045 0.84629 0.19808 0.0
C4304 C 0.5535 0.82246 0.20958 0.0
C4305 C 0.55785 0.83073 0.21132 0.0
C4306 C 0.54412 0.82198 0.20868 0.0
C4307 C 0.5389 0.82975 0.20942 0.0
C4308 C 0.54322 0.83802 0.21113 0.0
H4309 H 0.48121 0.83994 0.20868 0.0
H4310 H 0.49763 0.84114 0.20997 0.0
C4311 C 0.55258 0.83851 0.21204 0.0
C4312 C 0.52893 0.82915 0.20878 0.0
H4313 H 0.5108 0.83689 0.19704 0.0
C4314 C 0.52426 0.82368 0.21497 0.0
C4315 C 0.52402 0.83395 0.20221 0.0
C4316 C 0.52866 0.83965 0.19515 0.0
C4317 C 0.51482 0.82298 0.21485 0.0
C4318 C 0.50991 0.82776 0.20827 0.0
C4319 C 0.51457 0.83325 0.20209 0.0
C4320 C 0.49995 0.82701 0.20757 0.0
C4321 C 0.51017 0.81727 0.2219 0.0
C4322 C 0.49581 0.81869 0.20571 0.0
C4323 C 0.48645 0.81797 0.20502 0.0
C4324 C 0.481 0.82558 0.20611 0.0
C4325 C 0.48518 0.83393 0.20792 0.0
C4326 C 0.49457 0.83463 0.2086 0.0
H4327 H 0.51459 0.81605 0.2278 0.0
H4328 H 0.50389 0.82048 0.22426 0.0
H4329 H 0.50836 0.81064 0.21894 0.0
H4330 H 0.49984 0.81274 0.20475 0.0
H4331 H 0.48347 0.81143 0.20371 0.0
H4332 H 0.2039 0.55584 0.21683 0.0
H4333 H 0.2038 0.53938 0.2175 0.0
H4334 H 0.22175 0.53857 0.19472 0.0
H4335 H 0.22221 0.55495 0.19423 0.0
H4336 H 0.19855 0.52673 0.2049 0.0
H4337 H 0.23473 0.52299 0.21285 0.0
H4338 H 0.22907 0.53363 0.21362 0.0
H4339 H 0.23287 0.52955 0.20289 0.0
C4340 C 0.20792 0.55217 0.21203 0.0
C4341 C 0.2131 0.55677 0.2055 0.0
C4342 C 0.20779 0.54275 0.21238 0.0
C4343 C 0.21289 0.53773 0.20626 0.0
C4344 C 0.21791 0.54228 0.19964 0.0
H4345 H 0.2216 0.48228 0.19272 0.0
H4346 H 0.22062 0.49865 0.19354 0.0
C4347 C 0.21807 0.55168 0.19929 0.0
C4348 C 0.2129 0.52773 0.20669 0.0
H4349 H 0.22687 0.50969 0.20821 0.0
C4350 C 0.20472 0.523 0.20572 0.0
C4351 C 0.22096 0.52286 0.20781 0.0
C4352 C 0.22989 0.52751 0.20944 0.0
C4353 C 0.20444 0.51354 0.20548 0.0
C4354 C 0.21254 0.5087 0.20634 0.0
C4355 C 0.22068 0.51342 0.2075 0.0
C4356 C 0.21278 0.49873 0.2058 0.0
C4357 C 0.19553 0.50879 0.20405 0.0
C4358 C 0.20872 0.49333 0.21244 0.0
C4359 C 0.20934 0.48394 0.21206 0.0
C4360 C 0.21408 0.47977 0.20502 0.0
C4361 C 0.21804 0.48524 0.19833 0.0
C4362 C 0.21744 0.4946 0.19874 0.0
H4363 H 0.19022 0.51348 0.20178 0.0
H4364 H 0.19621 0.50335 0.19898 0.0
H4365 H 0.19331 0.50565 0.21047 0.0
H4366 H 0.20521 0.49638 0.21803 0.0
H4367 H 0.20631 0.47997 0.21739 0.0
H4368 H 0.82017 0.81539 0.4818 0.0
H4369 H 0.81979 0.81648 0.49823 0.0
H4370 H 0.84169 0.83576 0.49744 0.0
H4371 H 0.84204 0.83477 0.48101 0.0
H4372 H 0.83289 0.81229 0.51006 0.0
H4373 H 0.82429 0.84825 0.51399 0.0
H4374 H 0.82328 0.84244 0.50337 0.0
H4375 H 0.83408 0.84651 0.50717 0.0
C4376 C 0.82488 0.81989 0.48512 0.0
C4377 C 0.83112 0.825 0.48009 0.0
C4378 C 0.82464 0.82053 0.49451 0.0
C4379 C 0.83062 0.8263 0.49908 0.0
C4380 C 0.83685 0.83144 0.49407 0.0
H4381 H 0.84416 0.83409 0.55548 0.0
H4382 H 0.84343 0.83445 0.539 0.0
C4383 C 0.83705 0.83085 0.48467 0.0
C4384 C 0.83065 0.82654 0.5091 0.0
H4385 H 0.82892 0.84053 0.52725 0.0
C4386 C 0.83195 0.81845 0.51381 0.0
C4387 C 0.82946 0.8346 0.51401 0.0
C4388 C 0.82761 0.84343 0.50939 0.0
C4389 C 0.83223 0.81822 0.52326 0.0
C4390 C 0.83108 0.82627 0.52815 0.0
C4391 C 0.8298 0.83437 0.52347 0.0
C4392 C 0.83126 0.82639 0.53814 0.0
C4393 C 0.83393 0.80938 0.52793 0.0
C4394 C 0.82456 0.82188 0.54313 0.0
C4395 C 0.82496 0.82165 0.55253 0.0
C4396 C 0.83208 0.82593 0.55715 0.0
C4397 C 0.83866 0.83062 0.55213 0.0
C4398 C 0.83823 0.83088 0.54272 0.0
H4399 H 0.8366 0.80425 0.52324 0.0
H4400 H 0.83878 0.81029 0.53356 0.0
H4401 H 0.82752 0.80676 0.53079 0.0
H4402 H 0.81907 0.81845 0.53972 0.0
H4403 H 0.81982 0.81792 0.55618 0.0
H4404 H 0.83571 0.2268 0.55513 0.0
H4405 H 0.83519 0.22571 0.53875 0.0
H4406 H 0.82922 0.19734 0.54079 0.0
H4407 H 0.8298 0.19835 0.55725 0.0
H4408 H 0.84607 0.21496 0.52781 0.0
H4409 H 0.80981 0.20641 0.52334 0.0
H4410 H 0.81425 0.21092 0.53372 0.0
H4411 H 0.81591 0.19931 0.53094 0.0
C4412 C 0.83432 0.22031 0.55212 0.0
C4413 C 0.83284 0.21266 0.55753 0.0
C4414 C 0.83398 0.21971 0.54274 0.0
C4415 C 0.83209 0.21147 0.53854 0.0
C4416 C 0.83052 0.20381 0.54389 0.0
H4417 H 0.82968 0.19872 0.48085 0.0
H4418 H 0.82939 0.19763 0.49732 0.0
C4419 C 0.83086 0.2044 0.5533 0.0
C4420 C 0.83213 0.2109 0.52855 0.0
H4421 H 0.8188 0.20684 0.51021 0.0
C4422 C 0.84011 0.21317 0.52396 0.0
C4423 C 0.82437 0.20849 0.52354 0.0
C4424 C 0.81557 0.2062 0.5281 0.0
C4425 C 0.84052 0.21317 0.51452 0.0
C4426 C 0.8327 0.21102 0.5095 0.0
C4427 C 0.82478 0.20852 0.51407 0.0
C4428 C 0.83256 0.21169 0.49952 0.0
C4429 C 0.84936 0.21544 0.51 0.0
C4430 C 0.83422 0.21999 0.4953 0.0
C4431 C 0.83436 0.22064 0.48591 0.0
C4432 C 0.83279 0.21301 0.48052 0.0
C4433 C 0.83088 0.20474 0.48478 0.0
C4434 C 0.83074 0.20409 0.4942 0.0
H4435 H 0.85515 0.2144 0.51461 0.0
H4436 H 0.85035 0.21129 0.50388 0.0
H4437 H 0.84939 0.22262 0.50796 0.0
H4438 H 0.83542 0.22598 0.49927 0.0
H4439 H 0.83565 0.22716 0.48288 0.0
H4440 H 0.22801 0.82862 0.48243 0.0
H4441 H 0.22694 0.82818 0.49883 0.0
H4442 H 0.19816 0.83113 0.49712 0.0
H4443 H 0.19918 0.83163 0.48066 0.0
H4444 H 0.22028 0.8417 0.50986 0.0
H4445 H 0.20082 0.80988 0.51455 0.0
H4446 H 0.20631 0.81275 0.50407 0.0
H4447 H 0.19587 0.81793 0.50705 0.0
C4448 C 0.22145 0.82919 0.48552 0.0
C4449 C 0.21368 0.8302 0.48021 0.0
C4450 C 0.22084 0.82888 0.49491 0.0
C4451 C 0.21247 0.82953 0.49921 0.0
C4452 C 0.20468 0.83043 0.49395 0.0
H4453 H 0.1996 0.8319 0.55684 0.0
H4454 H 0.19854 0.83153 0.54036 0.0
C4455 C 0.20527 0.83073 0.48453 0.0
C4456 C 0.21203 0.82973 0.50921 0.0
H4457 H 0.20397 0.81841 0.52763 0.0
C4458 C 0.21671 0.8366 0.51374 0.0
C4459 C 0.2073 0.82312 0.51427 0.0
C4460 C 0.20234 0.81545 0.50977 0.0
C4461 C 0.21685 0.83704 0.52318 0.0
C4462 C 0.21232 0.83031 0.52825 0.0
C4463 C 0.20746 0.82354 0.52373 0.0
C4464 C 0.21285 0.83006 0.53824 0.0
C4465 C 0.22178 0.84476 0.52763 0.0
C4466 C 0.22121 0.82911 0.54251 0.0
C4467 C 0.22183 0.82929 0.55189 0.0
C4468 C 0.2141 0.83038 0.55723 0.0
C4469 C 0.20568 0.83102 0.55294 0.0
C4470 C 0.20507 0.83084 0.54352 0.0
H4471 H 0.22267 0.85056 0.52298 0.0
H4472 H 0.21815 0.84706 0.53372 0.0
H4473 H 0.22857 0.84251 0.52971 0.0
H4474 H 0.22728 0.82827 0.53857 0.0
H4475 H 0.22839 0.82857 0.55497 0.0
H4476 H 0.22627 0.19897 0.55527 0.0
H4477 H 0.2252 0.19953 0.53889 0.0
H4478 H 0.19967 0.21285 0.54091 0.0
H4479 H 0.20062 0.21223 0.55737 0.0
H4480 H 0.21163 0.19197 0.52795 0.0
H4481 H 0.21408 0.22906 0.52344 0.0
H4482 H 0.21715 0.22356 0.53382 0.0
H4483 H 0.20551 0.22512 0.53107 0.0
C4484 C 0.22039 0.20197 0.55226 0.0
C4485 C 0.21352 0.20553 0.55767 0.0
C4486 C 0.21982 0.20233 0.54288 0.0
C4487 C 0.21241 0.20631 0.53866 0.0
C4488 C 0.20553 0.2099 0.54401 0.0
H4489 H 0.20108 0.21228 0.4809 0.0
H4490 H 0.19996 0.21269 0.49737 0.0
C4491 C 0.20609 0.20954 0.55342 0.0
C4492 C 0.21183 0.20643 0.52868 0.0
H4493 H 0.21188 0.22035 0.51033 0.0
C4494 C 0.21166 0.19817 0.5241 0.0
C4495 C 0.21181 0.21453 0.52366 0.0
C4496 C 0.21221 0.22358 0.52821 0.0
C4497 C 0.21156 0.1978 0.51466 0.0
C4498 C 0.2118 0.20589 0.50963 0.0
C4499 C 0.21173 0.21415 0.51419 0.0
C4500 C 0.21254 0.20588 0.49966 0.0
C4501 C 0.21115 0.18872 0.51014 0.0
C4502 C 0.22007 0.20209 0.49549 0.0
C4503 C 0.22076 0.20189 0.48611 0.0
C4504 C 0.21394 0.2055 0.48066 0.0
C4505 C 0.20648 0.20949 0.48487 0.0
C4506 C 0.20581 0.20969 0.49428 0.0
H4507 H 0.20846 0.18344 0.51474 0.0
H4508 H 0.20689 0.18892 0.50401 0.0
H4509 H 0.21804 0.18676 0.50811 0.0
H4510 H 0.22545 0.19931 0.4995 0.0
H4511 H 0.2267 0.19897 0.48313 0.0
loop_
_geom_bond_atom_site_label_1
_geom_bond_atom_site_label_2
_geom_bond_distance
_geom_bond_site_symmetry_2
_ccdc_geom_bond_type
C0 C1 1.264 . S
C0 C5 1.479 . S
C0 C10 1.465 . S
C1 C0 1.264 . S
C1 C3 1.339 . S
C1 H28 0.931 . S
C2 C3 1.395 . S
C2 C4 1.320 . S
C3 C1 1.339 . S
C3 C2 1.395 . S
C3 H29 0.929 . S
C4 C2 1.320 . S
C4 C5 1.405 . S
C4 H30 0.930 . S
C5 C0 1.479 . S
C5 C4 1.405 . S
C5 H31 0.931 . S
U6 O7 2.454 . S
U6 O8 2.458 . S
U6 C9 2.984 . S
U6 C10 2.847 . S
U6 C23 2.882 . S
U6 O24 2.441 . S
U6 O25 2.420 . S
U6 O26 2.455 . S
U6 O27 2.449 . S
O7 U6 2.454 . S
O7 C9 1.353 . S
O8 U6 2.458 . S
O8 C9 1.286 . S
C9 U6 2.984 . S
C9 O7 1.353 . S
C9 O8 1.286 . S
C9 C11 1.363 . S
C10 C0 1.465 . S
C10 U6 2.847 . S
C10 O24 1.249 . S
C10 O25 1.202 . S
C11 C9 1.363 . S
C11 C13 1.408 . S
C11 C16 1.342 . S
C12 C13 1.310 . S
C12 C15 1.461 . S
C12 H32 0.932 . S
C13 C11 1.408 . S
C13 C12 1.310 . S
C13 H33 0.930 . S
C14 C15 1.474 . S
C14 C16 1.285 . S
C14 H34 0.929 . S
C15 C12 1.461 . S
C15 C14 1.474 . S
C16 C11 1.342 . S
C16 C14 1.285 . S
C16 H35 0.930 . S
C17 C20 1.424 . S
C17 C22 1.245 . S
C17 C23 1.428 . S
C18 C21 1.260 . S
C18 C22 1.477 . S
C18 H36 0.932 . S
C19 C20 1.384 . S
C19 C21 1.479 . S
C19 H37 0.929 . S
C20 C17 1.424 . S
C20 C19 1.384 . S
C20 H38 0.928 . S
C21 C18 1.260 . S
C21 C19 1.479 . S
C22 C17 1.245 . S
C22 C18 1.477 . S
C22 H39 0.932 . S
C23 U6 2.882 . S
C23 C17 1.428 . S
C23 O26 1.301 . S
C23 O27 1.282 . S
O24 U6 2.441 . S
O24 C10 1.249 . S
O25 U6 2.420 . S
O25 C10 1.202 . S
O26 U6 2.455 . S
O26 C23 1.301 . S
O27 U6 2.449 . S
O27 C23 1.282 . S
H28 C1 0.931 . S
H29 C3 0.929 . S
H30 C4 0.930 . S
H31 C5 0.931 . S
H32 C12 0.932 . S
H33 C13 0.930 . S
H34 C14 0.929 . S
H35 C16 0.930 . S
H36 C18 0.932 . S
H37 C19 0.929 . S
H38 C20 0.928 . S
H39 C22 0.932 . S
C40 C41 1.264 . S
C40 C45 1.479 . S
C40 C50 1.465 . S
C41 C40 1.264 . S
C41 C43 1.339 . S
C41 H68 0.931 . S
C42 C43 1.395 . S
C42 C44 1.320 . S
C43 C41 1.339 . S
C43 C42 1.395 . S
C43 H69 0.929 . S
C44 C42 1.320 . S
C44 C45 1.405 . S
C44 H70 0.930 . S
C45 C40 1.479 . S
C45 C44 1.405 . S
C45 H71 0.931 . S
U46 O47 2.454 . S
U46 O48 2.458 . S
U46 C49 2.984 . S
U46 C50 2.847 . S
U46 C63 2.882 . S
U46 O64 2.441 . S
U46 O65 2.420 . S
U46 O66 2.455 . S
U46 O67 2.449 . S
O47 U46 2.454 . S
O47 C49 1.353 . S
O48 U46 2.458 . S
O48 C49 1.286 . S
C49 U46 2.984 . S
C49 O47 1.353 . S
C49 O48 1.286 . S
C49 C51 1.363 . S
C50 C40 1.465 . S
C50 U46 2.847 . S
C50 O64 1.249 . S
C50 O65 1.202 . S
C51 C49 1.363 . S
C51 C53 1.408 . S
C51 C56 1.342 . S
C52 C53 1.310 . S
C52 C55 1.461 . S
C52 H72 0.932 . S
C53 C51 1.408 . S
C53 C52 1.310 . S
C53 H73 0.930 . S
C54 C55 1.474 . S
C54 C56 1.285 . S
C54 H74 0.929 . S
C55 C52 1.461 . S
C55 C54 1.474 . S
C56 C51 1.342 . S
C56 C54 1.285 . S
C56 H75 0.930 . S
C57 C60 1.424 . S
C57 C62 1.245 . S
C57 C63 1.428 . S
C58 C61 1.260 . S
C58 C62 1.477 . S
C58 H76 0.932 . S
C59 C60 1.384 . S
C59 C61 1.479 . S
C59 H77 0.929 . S
C60 C57 1.424 . S
C60 C59 1.384 . S
C60 H78 0.928 . S
C61 C58 1.260 . S
C61 C59 1.479 . S
C62 C57 1.245 . S
C62 C58 1.477 . S
C62 H79 0.932 . S
C63 U46 2.882 . S
C63 C57 1.428 . S
C63 O66 1.301 . S
C63 O67 1.282 . S
O64 U46 2.441 . S
O64 C50 1.249 . S
O65 U46 2.420 . S
O65 C50 1.202 . S
O66 U46 2.455 . S
O66 C63 1.301 . S
O67 U46 2.449 . S
O67 C63 1.282 . S
H68 C41 0.931 . S
H69 C43 0.929 . S
H70 C44 0.930 . S
H71 C45 0.931 . S
H72 C52 0.932 . S
H73 C53 0.930 . S
H74 C54 0.929 . S
H75 C56 0.930 . S
H76 C58 0.932 . S
H77 C59 0.929 . S
H78 C60 0.928 . S
H79 C62 0.932 . S
C80 C81 1.264 . S
C80 C85 1.479 . S
C80 C90 1.465 . S
C81 C80 1.264 . S
C81 C83 1.339 . S
C81 H108 0.931 . S
C82 C83 1.395 . S
C82 C84 1.320 . S
C83 C81 1.339 . S
C83 C82 1.395 . S
C83 H109 0.929 . S
C84 C82 1.320 . S
C84 C85 1.405 . S
C84 H110 0.930 . S
C85 C80 1.479 . S
C85 C84 1.405 . S
C85 H111 0.931 . S
U86 O87 2.454 . S
U86 O88 2.458 . S
U86 C89 2.984 . S
U86 C90 2.847 . S
U86 C103 2.882 . S
U86 O104 2.441 . S
U86 O105 2.420 . S
U86 O106 2.455 . S
U86 O107 2.449 . S
O87 U86 2.454 . S
O87 C89 1.353 . S
O88 U86 2.458 . S
O88 C89 1.286 . S
C89 U86 2.984 . S
C89 O87 1.353 . S
C89 O88 1.286 . S
C89 C91 1.363 . S
C90 C80 1.465 . S
C90 U86 2.847 . S
C90 O104 1.249 . S
C90 O105 1.202 . S
C91 C89 1.363 . S
C91 C93 1.408 . S
C91 C96 1.342 . S
C92 C93 1.310 . S
C92 C95 1.461 . S
C92 H112 0.932 . S
C93 C91 1.408 . S
C93 C92 1.310 . S
C93 H113 0.930 . S
C94 C95 1.474 . S
C94 C96 1.285 . S
C94 H114 0.929 . S
C95 C92 1.461 . S
C95 C94 1.474 . S
C96 C91 1.342 . S
C96 C94 1.285 . S
C96 H115 0.930 . S
C97 C100 1.424 . S
C97 C102 1.245 . S
C97 C103 1.428 . S
C98 C101 1.260 . S
C98 C102 1.477 . S
C98 H116 0.932 . S
C99 C100 1.384 . S
C99 C101 1.479 . S
C99 H117 0.929 . S
C100 C97 1.424 . S
C100 C99 1.384 . S
C100 H118 0.928 . S
C101 C98 1.260 . S
C101 C99 1.479 . S
C102 C97 1.245 . S
C102 C98 1.477 . S
C102 H119 0.932 . S
C103 U86 2.882 . S
C103 C97 1.428 . S
C103 O106 1.301 . S
C103 O107 1.282 . S
O104 U86 2.441 . S
O104 C90 1.249 . S
O105 U86 2.420 . S
O105 C90 1.202 . S
O106 U86 2.455 . S
O106 C103 1.301 . S
O107 U86 2.449 . S
O107 C103 1.282 . S
H108 C81 0.931 . S
H109 C83 0.929 . S
H110 C84 0.930 . S
H111 C85 0.931 . S
H112 C92 0.932 . S
H113 C93 0.930 . S
H114 C94 0.929 . S
H115 C96 0.930 . S
H116 C98 0.932 . S
H117 C99 0.929 . S
H118 C100 0.928 . S
H119 C102 0.932 . S
C120 C121 1.264 . S
C120 C125 1.479 . S
C120 C130 1.465 . S
C121 C120 1.264 . S
C121 C123 1.339 . S
C121 H148 0.931 . S
C122 C123 1.395 . S
C122 C124 1.320 . S
C123 C121 1.339 . S
C123 C122 1.395 . S
C123 H149 0.929 . S
C124 C122 1.320 . S
C124 C125 1.405 . S
C124 H150 0.930 . S
C125 C120 1.479 . S
C125 C124 1.405 . S
C125 H151 0.931 . S
U126 O127 2.454 . S
U126 O128 2.458 . S
U126 C129 2.984 . S
U126 C130 2.847 . S
U126 C143 2.882 . S
U126 O144 2.441 . S
U126 O145 2.420 . S
U126 O146 2.455 . S
U126 O147 2.449 . S
O127 U126 2.454 . S
O127 C129 1.353 . S
O128 U126 2.458 . S
O128 C129 1.286 . S
C129 U126 2.984 . S
C129 O127 1.353 . S
C129 O128 1.286 . S
C129 C131 1.363 . S
C130 C120 1.465 . S
C130 U126 2.847 . S
C130 O144 1.249 . S
C130 O145 1.202 . S
C131 C129 1.363 . S
C131 C133 1.408 . S
C131 C136 1.342 . S
C132 C133 1.310 . S
C132 C135 1.461 . S
C132 H152 0.932 . S
C133 C131 1.408 . S
C133 C132 1.310 . S
C133 H153 0.930 . S
C134 C135 1.474 . S
C134 C136 1.285 . S
C134 H154 0.929 . S
C135 C132 1.461 . S
C135 C134 1.474 . S
C136 C131 1.342 . S
C136 C134 1.285 . S
C136 H155 0.930 . S
C137 C140 1.424 . S
C137 C142 1.245 . S
C137 C143 1.428 . S
C138 C141 1.260 . S
C138 C142 1.477 . S
C138 H156 0.932 . S
C139 C140 1.384 . S
C139 C141 1.479 . S
C139 H157 0.929 . S
C140 C137 1.424 . S
C140 C139 1.384 . S
C140 H158 0.928 . S
C141 C138 1.260 . S
C141 C139 1.479 . S
C142 C137 1.245 . S
C142 C138 1.477 . S
C142 H159 0.932 . S
C143 U126 2.882 . S
C143 C137 1.428 . S
C143 O146 1.301 . S
C143 O147 1.282 . S
O144 U126 2.441 . S
O144 C130 1.249 . S
O145 U126 2.420 . S
O145 C130 1.202 . S
O146 U126 2.455 . S
O146 C143 1.301 . S
O147 U126 2.449 . S
O147 C143 1.282 . S
H148 C121 0.931 . S
H149 C123 0.929 . S
H150 C124 0.930 . S
H151 C125 0.931 . S
H152 C132 0.932 . S
H153 C133 0.930 . S
H154 C134 0.929 . S
H155 C136 0.930 . S
H156 C138 0.932 . S
H157 C139 0.929 . S
H158 C140 0.928 . S
H159 C142 0.932 . S
C160 C161 1.264 . S
C160 C165 1.479 . S
C160 C170 1.465 . S
C161 C160 1.264 . S
C161 C163 1.339 . S
C161 H188 0.931 . S
C162 C163 1.395 . S
C162 C164 1.320 . S
C163 C161 1.339 . S
C163 C162 1.395 . S
C163 H189 0.929 . S
C164 C162 1.320 . S
C164 C165 1.405 . S
C164 H190 0.930 . S
C165 C160 1.479 . S
C165 C164 1.405 . S
C165 H191 0.931 . S
U166 O167 2.454 . S
U166 O168 2.458 . S
U166 C169 2.984 . S
U166 C170 2.847 . S
U166 C183 2.882 . S
U166 O184 2.441 . S
U166 O185 2.420 . S
U166 O186 2.455 . S
U166 O187 2.449 . S
O167 U166 2.454 . S
O167 C169 1.353 . S
O168 U166 2.458 . S
O168 C169 1.286 . S
C169 U166 2.984 . S
C169 O167 1.353 . S
C169 O168 1.286 . S
C169 C171 1.363 . S
C170 C160 1.465 . S
C170 U166 2.847 . S
C170 O184 1.249 . S
C170 O185 1.202 . S
C171 C169 1.363 . S
C171 C173 1.408 . S
C171 C176 1.342 . S
C172 C173 1.310 . S
C172 C175 1.461 . S
C172 H192 0.932 . S
C173 C171 1.408 . S
C173 C172 1.310 . S
C173 H193 0.930 . S
C174 C175 1.474 . S
C174 C176 1.285 . S
C174 H194 0.929 . S
C175 C172 1.461 . S
C175 C174 1.474 . S
C176 C171 1.342 . S
C176 C174 1.285 . S
C176 H195 0.930 . S
C177 C180 1.424 . S
C177 C182 1.245 . S
C177 C183 1.428 . S
C178 C181 1.260 . S
C178 C182 1.477 . S
C178 H196 0.932 . S
C179 C180 1.384 . S
C179 C181 1.479 . S
C179 H197 0.929 . S
C180 C177 1.424 . S
C180 C179 1.384 . S
C180 H198 0.928 . S
C181 C178 1.260 . S
C181 C179 1.479 . S
C182 C177 1.245 . S
C182 C178 1.477 . S
C182 H199 0.932 . S
C183 U166 2.882 . S
C183 C177 1.428 . S
C183 O186 1.301 . S
C183 O187 1.282 . S
O184 U166 2.441 . S
O184 C170 1.249 . S
O185 U166 2.420 . S
O185 C170 1.202 . S
O186 U166 2.455 . S
O186 C183 1.301 . S
O187 U166 2.449 . S
O187 C183 1.282 . S
H188 C161 0.931 . S
H189 C163 0.929 . S
H190 C164 0.930 . S
H191 C165 0.931 . S
H192 C172 0.932 . S
H193 C173 0.930 . S
H194 C174 0.929 . S
H195 C176 0.930 . S
H196 C178 0.932 . S
H197 C179 0.929 . S
H198 C180 0.928 . S
H199 C182 0.932 . S
C200 C201 1.264 . S
C200 C205 1.479 . S
C200 C210 1.465 . S
C201 C200 1.264 . S
C201 C203 1.339 . S
C201 H228 0.931 . S
C202 C203 1.395 . S
C202 C204 1.320 . S
C203 C201 1.339 . S
C203 C202 1.395 . S
C203 H229 0.929 . S
C204 C202 1.320 . S
C204 C205 1.405 . S
C204 H230 0.930 . S
C205 C200 1.479 . S
C205 C204 1.405 . S
C205 H231 0.931 . S
U206 O207 2.454 . S
U206 O208 2.458 . S
U206 C209 2.984 . S
U206 C210 2.847 . S
U206 C223 2.882 . S
U206 O224 2.441 . S
U206 O225 2.420 . S
U206 O226 2.455 . S
U206 O227 2.449 . S
O207 U206 2.454 . S
O207 C209 1.353 . S
O208 U206 2.458 . S
O208 C209 1.286 . S
C209 U206 2.984 . S
C209 O207 1.353 . S
C209 O208 1.286 . S
C209 C211 1.363 . S
C210 C200 1.465 . S
C210 U206 2.847 . S
C210 O224 1.249 . S
C210 O225 1.202 . S
C211 C209 1.363 . S
C211 C213 1.408 . S
C211 C216 1.342 . S
C212 C213 1.310 . S
C212 C215 1.461 . S
C212 H232 0.932 . S
C213 C211 1.408 . S
C213 C212 1.310 . S
C213 H233 0.930 . S
C214 C215 1.474 . S
C214 C216 1.285 . S
C214 H234 0.929 . S
C215 C212 1.461 . S
C215 C214 1.474 . S
C216 C211 1.342 . S
C216 C214 1.285 . S
C216 H235 0.930 . S
C217 C220 1.424 . S
C217 C222 1.245 . S
C217 C223 1.428 . S
C218 C221 1.260 . S
C218 C222 1.477 . S
C218 H236 0.932 . S
C219 C220 1.384 . S
C219 C221 1.479 . S
C219 H237 0.929 . S
C220 C217 1.424 . S
C220 C219 1.384 . S
C220 H238 0.928 . S
C221 C218 1.260 . S
C221 C219 1.479 . S
C222 C217 1.245 . S
C222 C218 1.477 . S
C222 H239 0.932 . S
C223 U206 2.882 . S
C223 C217 1.428 . S
C223 O226 1.301 . S
C223 O227 1.282 . S
O224 U206 2.441 . S
O224 C210 1.249 . S
O225 U206 2.420 . S
O225 C210 1.202 . S
O226 U206 2.455 . S
O226 C223 1.301 . S
O227 U206 2.449 . S
O227 C223 1.282 . S
H228 C201 0.931 . S
H229 C203 0.929 . S
H230 C204 0.930 . S
H231 C205 0.931 . S
H232 C212 0.932 . S
H233 C213 0.930 . S
H234 C214 0.929 . S
H235 C216 0.930 . S
H236 C218 0.932 . S
H237 C219 0.929 . S
H238 C220 0.928 . S
H239 C222 0.932 . S
C240 C241 1.264 . S
C240 C245 1.479 . S
C240 C250 1.465 . S
C241 C240 1.264 . S
C241 C243 1.339 . S
C241 H268 0.931 . S
C242 C243 1.395 . S
C242 C244 1.320 . S
C243 C241 1.339 . S
C243 C242 1.395 . S
C243 H269 0.929 . S
C244 C242 1.320 . S
C244 C245 1.405 . S
C244 H270 0.930 . S
C245 C240 1.479 . S
C245 C244 1.405 . S
C245 H271 0.931 . S
U246 O247 2.454 . S
U246 O248 2.458 . S
U246 C249 2.984 . S
U246 C250 2.847 . S
U246 C263 2.882 . S
U246 O264 2.441 . S
U246 O265 2.420 . S
U246 O266 2.455 . S
U246 O267 2.449 . S
O247 U246 2.454 . S
O247 C249 1.353 . S
O248 U246 2.458 . S
O248 C249 1.286 . S
C249 U246 2.984 . S
C249 O247 1.353 . S
C249 O248 1.286 . S
C249 C251 1.363 . S
C250 C240 1.465 . S
C250 U246 2.847 . S
C250 O264 1.249 . S
C250 O265 1.202 . S
C251 C249 1.363 . S
C251 C253 1.408 . S
C251 C256 1.342 . S
C252 C253 1.310 . S
C252 C255 1.461 . S
C252 H272 0.932 . S
C253 C251 1.408 . S
C253 C252 1.310 . S
C253 H273 0.930 . S
C254 C255 1.474 . S
C254 C256 1.285 . S
C254 H274 0.929 . S
C255 C252 1.461 . S
C255 C254 1.474 . S
C256 C251 1.342 . S
C256 C254 1.285 . S
C256 H275 0.930 . S
C257 C260 1.424 . S
C257 C262 1.245 . S
C257 C263 1.428 . S
C258 C261 1.260 . S
C258 C262 1.477 . S
C258 H276 0.932 . S
C259 C260 1.384 . S
C259 C261 1.479 . S
C259 H277 0.929 . S
C260 C257 1.424 . S
C260 C259 1.384 . S
C260 H278 0.928 . S
C261 C258 1.260 . S
C261 C259 1.479 . S
C262 C257 1.245 . S
C262 C258 1.477 . S
C262 H279 0.932 . S
C263 U246 2.882 . S
C263 C257 1.428 . S
C263 O266 1.301 . S
C263 O267 1.282 . S
O264 U246 2.441 . S
O264 C250 1.249 . S
O265 U246 2.420 . S
O265 C250 1.202 . S
O266 U246 2.455 . S
O266 C263 1.301 . S
O267 U246 2.449 . S
O267 C263 1.282 . S
H268 C241 0.931 . S
H269 C243 0.929 . S
H270 C244 0.930 . S
H271 C245 0.931 . S
H272 C252 0.932 . S
H273 C253 0.930 . S
H274 C254 0.929 . S
H275 C256 0.930 . S
H276 C258 0.932 . S
H277 C259 0.929 . S
H278 C260 0.928 . S
H279 C262 0.932 . S
C280 C281 1.264 . S
C280 C285 1.479 . S
C280 C290 1.465 . S
C281 C280 1.264 . S
C281 C283 1.339 . S
C281 H308 0.931 . S
C282 C283 1.395 . S
C282 C284 1.320 . S
C283 C281 1.339 . S
C283 C282 1.395 . S
C283 H309 0.929 . S
C284 C282 1.320 . S
C284 C285 1.405 . S
C284 H310 0.930 . S
C285 C280 1.479 . S
C285 C284 1.405 . S
C285 H311 0.931 . S
U286 O287 2.454 . S
U286 O288 2.458 . S
U286 C289 2.984 . S
U286 C290 2.847 . S
U286 C303 2.882 . S
U286 O304 2.441 . S
U286 O305 2.420 . S
U286 O306 2.455 . S
U286 O307 2.449 . S
O287 U286 2.454 . S
O287 C289 1.353 . S
O288 U286 2.458 . S
O288 C289 1.286 . S
C289 U286 2.984 . S
C289 O287 1.353 . S
C289 O288 1.286 . S
C289 C291 1.363 . S
C290 C280 1.465 . S
C290 U286 2.847 . S
C290 O304 1.249 . S
C290 O305 1.202 . S
C291 C289 1.363 . S
C291 C293 1.408 . S
C291 C296 1.342 . S
C292 C293 1.310 . S
C292 C295 1.461 . S
C292 H312 0.932 . S
C293 C291 1.408 . S
C293 C292 1.310 . S
C293 H313 0.930 . S
C294 C295 1.474 . S
C294 C296 1.285 . S
C294 H314 0.929 . S
C295 C292 1.461 . S
C295 C294 1.474 . S
C296 C291 1.342 . S
C296 C294 1.285 . S
C296 H315 0.930 . S
C297 C300 1.424 . S
C297 C302 1.245 . S
C297 C303 1.428 . S
C298 C301 1.260 . S
C298 C302 1.477 . S
C298 H316 0.932 . S
C299 C300 1.384 . S
C299 C301 1.479 . S
C299 H317 0.929 . S
C300 C297 1.424 . S
C300 C299 1.384 . S
C300 H318 0.928 . S
C301 C298 1.260 . S
C301 C299 1.479 . S
C302 C297 1.245 . S
C302 C298 1.477 . S
C302 H319 0.932 . S
C303 U286 2.882 . S
C303 C297 1.428 . S
C303 O306 1.301 . S
C303 O307 1.282 . S
O304 U286 2.441 . S
O304 C290 1.249 . S
O305 U286 2.420 . S
O305 C290 1.202 . S
O306 U286 2.455 . S
O306 C303 1.301 . S
O307 U286 2.449 . S
O307 C303 1.282 . S
H308 C281 0.931 . S
H309 C283 0.929 . S
H310 C284 0.930 . S
H311 C285 0.931 . S
H312 C292 0.932 . S
H313 C293 0.930 . S
H314 C294 0.929 . S
H315 C296 0.930 . S
H316 C298 0.932 . S
H317 C299 0.929 . S
H318 C300 0.928 . S
H319 C302 0.932 . S
C320 C321 1.264 . S
C320 C325 1.479 . S
C320 C330 1.465 . S
C321 C320 1.264 . S
C321 C323 1.339 . S
C321 H348 0.931 . S
C322 C323 1.395 . S
C322 C324 1.320 . S
C323 C321 1.339 . S
C323 C322 1.395 . S
C323 H349 0.929 . S
C324 C322 1.320 . S
C324 C325 1.405 . S
C324 H350 0.930 . S
C325 C320 1.479 . S
C325 C324 1.405 . S
C325 H351 0.931 . S
U326 O327 2.454 . S
U326 O328 2.458 . S
U326 C329 2.984 . S
U326 C330 2.847 . S
U326 C343 2.882 . S
U326 O344 2.441 . S
U326 O345 2.420 . S
U326 O346 2.455 . S
U326 O347 2.449 . S
O327 U326 2.454 . S
O327 C329 1.353 . S
O328 U326 2.458 . S
O328 C329 1.286 . S
C329 U326 2.984 . S
C329 O327 1.353 . S
C329 O328 1.286 . S
C329 C331 1.363 . S
C330 C320 1.465 . S
C330 U326 2.847 . S
C330 O344 1.249 . S
C330 O345 1.202 . S
C331 C329 1.363 . S
C331 C333 1.408 . S
C331 C336 1.342 . S
C332 C333 1.310 . S
C332 C335 1.461 . S
C332 H352 0.932 . S
C333 C331 1.408 . S
C333 C332 1.310 . S
C333 H353 0.930 . S
C334 C335 1.474 . S
C334 C336 1.285 . S
C334 H354 0.929 . S
C335 C332 1.461 . S
C335 C334 1.474 . S
C336 C331 1.342 . S
C336 C334 1.285 . S
C336 H355 0.930 . S
C337 C340 1.424 . S
C337 C342 1.245 . S
C337 C343 1.428 . S
C338 C341 1.260 . S
C338 C342 1.477 . S
C338 H356 0.932 . S
C339 C340 1.384 . S
C339 C341 1.479 . S
C339 H357 0.929 . S
C340 C337 1.424 . S
C340 C339 1.384 . S
C340 H358 0.928 . S
C341 C338 1.260 . S
C341 C339 1.479 . S
C342 C337 1.245 . S
C342 C338 1.477 . S
C342 H359 0.932 . S
C343 U326 2.882 . S
C343 C337 1.428 . S
C343 O346 1.301 . S
C343 O347 1.282 . S
O344 U326 2.441 . S
O344 C330 1.249 . S
O345 U326 2.420 . S
O345 C330 1.202 . S
O346 U326 2.455 . S
O346 C343 1.301 . S
O347 U326 2.449 . S
O347 C343 1.282 . S
H348 C321 0.931 . S
H349 C323 0.929 . S
H350 C324 0.930 . S
H351 C325 0.931 . S
H352 C332 0.932 . S
H353 C333 0.930 . S
H354 C334 0.929 . S
H355 C336 0.930 . S
H356 C338 0.932 . S
H357 C339 0.929 . S
H358 C340 0.928 . S
H359 C342 0.932 . S
C360 C361 1.264 . S
C360 C365 1.479 . S
C360 C370 1.465 . S
C361 C360 1.264 . S
C361 C363 1.339 . S
C361 H388 0.931 . S
C362 C363 1.395 . S
C362 C364 1.320 . S
C363 C361 1.339 . S
C363 C362 1.395 . S
C363 H389 0.929 . S
C364 C362 1.320 . S
C364 C365 1.405 . S
C364 H390 0.930 . S
C365 C360 1.479 . S
C365 C364 1.405 . S
C365 H391 0.931 . S
U366 O367 2.454 . S
U366 O368 2.458 . S
U366 C369 2.984 . S
U366 C370 2.847 . S
U366 C383 2.882 . S
U366 O384 2.441 . S
U366 O385 2.420 . S
U366 O386 2.455 . S
U366 O387 2.449 . S
O367 U366 2.454 . S
O367 C369 1.353 . S
O368 U366 2.458 . S
O368 C369 1.286 . S
C369 U366 2.984 . S
C369 O367 1.353 . S
C369 O368 1.286 . S
C369 C371 1.363 . S
C370 C360 1.465 . S
C370 U366 2.847 . S
C370 O384 1.249 . S
C370 O385 1.202 . S
C371 C369 1.363 . S
C371 C373 1.408 . S
C371 C376 1.342 . S
C372 C373 1.310 . S
C372 C375 1.461 . S
C372 H392 0.932 . S
C373 C371 1.408 . S
C373 C372 1.310 . S
C373 H393 0.930 . S
C374 C375 1.474 . S
C374 C376 1.285 . S
C374 H394 0.929 . S
C375 C372 1.461 . S
C375 C374 1.474 . S
C376 C371 1.342 . S
C376 C374 1.285 . S
C376 H395 0.930 . S
C377 C380 1.424 . S
C377 C382 1.245 . S
C377 C383 1.428 . S
C378 C381 1.260 . S
C378 C382 1.477 . S
C378 H396 0.932 . S
C379 C380 1.384 . S
C379 C381 1.479 . S
C379 H397 0.929 . S
C380 C377 1.424 . S
C380 C379 1.384 . S
C380 H398 0.928 . S
C381 C378 1.260 . S
C381 C379 1.479 . S
C382 C377 1.245 . S
C382 C378 1.477 . S
C382 H399 0.932 . S
C383 U366 2.882 . S
C383 C377 1.428 . S
C383 O386 1.301 . S
C383 O387 1.282 . S
O384 U366 2.441 . S
O384 C370 1.249 . S
O385 U366 2.420 . S
O385 C370 1.202 . S
O386 U366 2.455 . S
O386 C383 1.301 . S
O387 U366 2.449 . S
O387 C383 1.282 . S
H388 C361 0.931 . S
H389 C363 0.929 . S
H390 C364 0.930 . S
H391 C365 0.931 . S
H392 C372 0.932 . S
H393 C373 0.930 . S
H394 C374 0.929 . S
H395 C376 0.930 . S
H396 C378 0.932 . S
H397 C379 0.929 . S
H398 C380 0.928 . S
H399 C382 0.932 . S
C400 C401 1.264 . S
C400 C405 1.479 . S
C400 C410 1.465 . S
C401 C400 1.264 . S
C401 C403 1.339 . S
C401 H428 0.931 . S
C402 C403 1.395 . S
C402 C404 1.320 . S
C403 C401 1.339 . S
C403 C402 1.395 . S
C403 H429 0.929 . S
C404 C402 1.320 . S
C404 C405 1.405 . S
C404 H430 0.930 . S
C405 C400 1.479 . S
C405 C404 1.405 . S
C405 H431 0.931 . S
U406 O407 2.454 . S
U406 O408 2.458 . S
U406 C409 2.984 . S
U406 C410 2.847 . S
U406 C423 2.882 . S
U406 O424 2.441 . S
U406 O425 2.420 . S
U406 O426 2.455 . S
U406 O427 2.449 . S
O407 U406 2.454 . S
O407 C409 1.353 . S
O408 U406 2.458 . S
O408 C409 1.286 . S
C409 U406 2.984 . S
C409 O407 1.353 . S
C409 O408 1.286 . S
C409 C411 1.363 . S
C410 C400 1.465 . S
C410 U406 2.847 . S
C410 O424 1.249 . S
C410 O425 1.202 . S
C411 C409 1.363 . S
C411 C413 1.408 . S
C411 C416 1.342 . S
C412 C413 1.310 . S
C412 C415 1.461 . S
C412 H432 0.932 . S
C413 C411 1.408 . S
C413 C412 1.310 . S
C413 H433 0.930 . S
C414 C415 1.474 . S
C414 C416 1.285 . S
C414 H434 0.929 . S
C415 C412 1.461 . S
C415 C414 1.474 . S
C416 C411 1.342 . S
C416 C414 1.285 . S
C416 H435 0.930 . S
C417 C420 1.424 . S
C417 C422 1.245 . S
C417 C423 1.428 . S
C418 C421 1.260 . S
C418 C422 1.477 . S
C418 H436 0.932 . S
C419 C420 1.384 . S
C419 C421 1.479 . S
C419 H437 0.929 . S
C420 C417 1.424 . S
C420 C419 1.384 . S
C420 H438 0.928 . S
C421 C418 1.260 . S
C421 C419 1.479 . S
C422 C417 1.245 . S
C422 C418 1.477 . S
C422 H439 0.932 . S
C423 U406 2.882 . S
C423 C417 1.428 . S
C423 O426 1.301 . S
C423 O427 1.282 . S
O424 U406 2.441 . S
O424 C410 1.249 . S
O425 U406 2.420 . S
O425 C410 1.202 . S
O426 U406 2.455 . S
O426 C423 1.301 . S
O427 U406 2.449 . S
O427 C423 1.282 . S
H428 C401 0.931 . S
H429 C403 0.929 . S
H430 C404 0.930 . S
H431 C405 0.931 . S
H432 C412 0.932 . S
H433 C413 0.930 . S
H434 C414 0.929 . S
H435 C416 0.930 . S
H436 C418 0.932 . S
H437 C419 0.929 . S
H438 C420 0.928 . S
H439 C422 0.932 . S
C440 C441 1.264 . S
C440 C445 1.479 . S
C440 C450 1.465 . S
C441 C440 1.264 . S
C441 C443 1.339 . S
C441 H468 0.931 . S
C442 C443 1.395 . S
C442 C444 1.320 . S
C443 C441 1.339 . S
C443 C442 1.395 . S
C443 H469 0.929 . S
C444 C442 1.320 . S
C444 C445 1.405 . S
C444 H470 0.930 . S
C445 C440 1.479 . S
C445 C444 1.405 . S
C445 H471 0.931 . S
U446 O447 2.454 . S
U446 O448 2.458 . S
U446 C449 2.984 . S
U446 C450 2.847 . S
U446 C463 2.882 . S
U446 O464 2.441 . S
U446 O465 2.420 . S
U446 O466 2.455 . S
U446 O467 2.449 . S
O447 U446 2.454 . S
O447 C449 1.353 . S
O448 U446 2.458 . S
O448 C449 1.286 . S
C449 U446 2.984 . S
C449 O447 1.353 . S
C449 O448 1.286 . S
C449 C451 1.363 . S
C450 C440 1.465 . S
C450 U446 2.847 . S
C450 O464 1.249 . S
C450 O465 1.202 . S
C451 C449 1.363 . S
C451 C453 1.408 . S
C451 C456 1.342 . S
C452 C453 1.310 . S
C452 C455 1.461 . S
C452 H472 0.932 . S
C453 C451 1.408 . S
C453 C452 1.310 . S
C453 H473 0.930 . S
C454 C455 1.474 . S
C454 C456 1.285 . S
C454 H474 0.929 . S
C455 C452 1.461 . S
C455 C454 1.474 . S
C456 C451 1.342 . S
C456 C454 1.285 . S
C456 H475 0.930 . S
C457 C460 1.424 . S
C457 C462 1.245 . S
C457 C463 1.428 . S
C458 C461 1.260 . S
C458 C462 1.477 . S
C458 H476 0.932 . S
C459 C460 1.384 . S
C459 C461 1.479 . S
C459 H477 0.929 . S
C460 C457 1.424 . S
C460 C459 1.384 . S
C460 H478 0.928 . S
C461 C458 1.260 . S
C461 C459 1.479 . S
C462 C457 1.245 . S
C462 C458 1.477 . S
C462 H479 0.932 . S
C463 U446 2.882 . S
C463 C457 1.428 . S
C463 O466 1.301 . S
C463 O467 1.282 . S
O464 U446 2.441 . S
O464 C450 1.249 . S
O465 U446 2.420 . S
O465 C450 1.202 . S
O466 U446 2.455 . S
O466 C463 1.301 . S
O467 U446 2.449 . S
O467 C463 1.282 . S
H468 C441 0.931 . S
H469 C443 0.929 . S
H470 C444 0.930 . S
H471 C445 0.931 . S
H472 C452 0.932 . S
H473 C453 0.930 . S
H474 C454 0.929 . S
H475 C456 0.930 . S
H476 C458 0.932 . S
H477 C459 0.929 . S
H478 C460 0.928 . S
H479 C462 0.932 . S
C480 C481 1.264 . S
C480 C485 1.479 . S
C480 C490 1.465 . S
C481 C480 1.264 . S
C481 C483 1.339 . S
C481 H508 0.931 . S
C482 C483 1.395 . S
C482 C484 1.320 . S
C483 C481 1.339 . S
C483 C482 1.395 . S
C483 H509 0.929 . S
C484 C482 1.320 . S
C484 C485 1.405 . S
C484 H510 0.930 . S
C485 C480 1.479 . S
C485 C484 1.405 . S
C485 H511 0.931 . S
U486 O487 2.454 . S
U486 O488 2.458 . S
U486 C489 2.984 . S
U486 C490 2.847 . S
U486 C503 2.882 . S
U486 O504 2.441 . S
U486 O505 2.420 . S
U486 O506 2.455 . S
U486 O507 2.449 . S
O487 U486 2.454 . S
O487 C489 1.353 . S
O488 U486 2.458 . S
O488 C489 1.286 . S
C489 U486 2.984 . S
C489 O487 1.353 . S
C489 O488 1.286 . S
C489 C491 1.363 . S
C490 C480 1.465 . S
C490 U486 2.847 . S
C490 O504 1.249 . S
C490 O505 1.202 . S
C491 C489 1.363 . S
C491 C493 1.408 . S
C491 C496 1.342 . S
C492 C493 1.310 . S
C492 C495 1.461 . S
C492 H512 0.932 . S
C493 C491 1.408 . S
C493 C492 1.310 . S
C493 H513 0.930 . S
C494 C495 1.474 . S
C494 C496 1.285 . S
C494 H514 0.929 . S
C495 C492 1.461 . S
C495 C494 1.474 . S
C496 C491 1.342 . S
C496 C494 1.285 . S
C496 H515 0.930 . S
C497 C500 1.424 . S
C497 C502 1.245 . S
C497 C503 1.428 . S
C498 C501 1.260 . S
C498 C502 1.477 . S
C498 H516 0.932 . S
C499 C500 1.384 . S
C499 C501 1.479 . S
C499 H517 0.929 . S
C500 C497 1.424 . S
C500 C499 1.384 . S
C500 H518 0.928 . S
C501 C498 1.260 . S
C501 C499 1.479 . S
C502 C497 1.245 . S
C502 C498 1.477 . S
C502 H519 0.932 . S
C503 U486 2.882 . S
C503 C497 1.428 . S
C503 O506 1.301 . S
C503 O507 1.282 . S
O504 U486 2.441 . S
O504 C490 1.249 . S
O505 U486 2.420 . S
O505 C490 1.202 . S
O506 U486 2.455 . S
O506 C503 1.301 . S
O507 U486 2.449 . S
O507 C503 1.282 . S
H508 C481 0.931 . S
H509 C483 0.929 . S
H510 C484 0.930 . S
H511 C485 0.931 . S
H512 C492 0.932 . S
H513 C493 0.930 . S
H514 C494 0.929 . S
H515 C496 0.930 . S
H516 C498 0.932 . S
H517 C499 0.929 . S
H518 C500 0.928 . S
H519 C502 0.932 . S
C520 C521 1.264 . S
C520 C525 1.479 . S
C520 C530 1.465 . S
C521 C520 1.264 . S
C521 C523 1.339 . S
C521 H548 0.931 . S
C522 C523 1.395 . S
C522 C524 1.320 . S
C523 C521 1.339 . S
C523 C522 1.395 . S
C523 H549 0.929 . S
C524 C522 1.320 . S
C524 C525 1.405 . S
C524 H550 0.930 . S
C525 C520 1.479 . S
C525 C524 1.405 . S
C525 H551 0.931 . S
U526 O527 2.454 . S
U526 O528 2.458 . S
U526 C529 2.984 . S
U526 C530 2.847 . S
U526 C543 2.882 . S
U526 O544 2.441 . S
U526 O545 2.420 . S
U526 O546 2.455 . S
U526 O547 2.449 . S
O527 U526 2.454 . S
O527 C529 1.353 . S
O528 U526 2.458 . S
O528 C529 1.286 . S
C529 U526 2.984 . S
C529 O527 1.353 . S
C529 O528 1.286 . S
C529 C531 1.363 . S
C530 C520 1.465 . S
C530 U526 2.847 . S
C530 O544 1.249 . S
C530 O545 1.202 . S
C531 C529 1.363 . S
C531 C533 1.408 . S
C531 C536 1.342 . S
C532 C533 1.310 . S
C532 C535 1.461 . S
C532 H552 0.932 . S
C533 C531 1.408 . S
C533 C532 1.310 . S
C533 H553 0.930 . S
C534 C535 1.474 . S
C534 C536 1.285 . S
C534 H554 0.929 . S
C535 C532 1.461 . S
C535 C534 1.474 . S
C536 C531 1.342 . S
C536 C534 1.285 . S
C536 H555 0.930 . S
C537 C540 1.424 . S
C537 C542 1.245 . S
C537 C543 1.428 . S
C538 C541 1.260 . S
C538 C542 1.477 . S
C538 H556 0.932 . S
C539 C540 1.384 . S
C539 C541 1.479 . S
C539 H557 0.929 . S
C540 C537 1.424 . S
C540 C539 1.384 . S
C540 H558 0.928 . S
C541 C538 1.260 . S
C541 C539 1.479 . S
C542 C537 1.245 . S
C542 C538 1.477 . S
C542 H559 0.932 . S
C543 U526 2.882 . S
C543 C537 1.428 . S
C543 O546 1.301 . S
C543 O547 1.282 . S
O544 U526 2.441 . S
O544 C530 1.249 . S
O545 U526 2.420 . S
O545 C530 1.202 . S
O546 U526 2.455 . S
O546 C543 1.301 . S
O547 U526 2.449 . S
O547 C543 1.282 . S
H548 C521 0.931 . S
H549 C523 0.929 . S
H550 C524 0.930 . S
H551 C525 0.931 . S
H552 C532 0.932 . S
H553 C533 0.930 . S
H554 C534 0.929 . S
H555 C536 0.930 . S
H556 C538 0.932 . S
H557 C539 0.929 . S
H558 C540 0.928 . S
H559 C542 0.932 . S
C560 C561 1.264 . S
C560 C565 1.479 . S
C560 C570 1.465 . S
C561 C560 1.264 . S
C561 C563 1.339 . S
C561 H588 0.931 . S
C562 C563 1.395 . S
C562 C564 1.320 . S
C563 C561 1.339 . S
C563 C562 1.395 . S
C563 H589 0.929 . S
C564 C562 1.320 . S
C564 C565 1.405 . S
C564 H590 0.930 . S
C565 C560 1.479 . S
C565 C564 1.405 . S
C565 H591 0.931 . S
U566 O567 2.454 . S
U566 O568 2.458 . S
U566 C569 2.984 . S
U566 C570 2.847 . S
U566 C583 2.882 . S
U566 O584 2.441 . S
U566 O585 2.420 . S
U566 O586 2.455 . S
U566 O587 2.449 . S
O567 U566 2.454 . S
O567 C569 1.353 . S
O568 U566 2.458 . S
O568 C569 1.286 . S
C569 U566 2.984 . S
C569 O567 1.353 . S
C569 O568 1.286 . S
C569 C571 1.363 . S
C570 C560 1.465 . S
C570 U566 2.847 . S
C570 O584 1.249 . S
C570 O585 1.202 . S
C571 C569 1.363 . S
C571 C573 1.408 . S
C571 C576 1.342 . S
C572 C573 1.310 . S
C572 C575 1.461 . S
C572 H592 0.932 . S
C573 C571 1.408 . S
C573 C572 1.310 . S
C573 H593 0.930 . S
C574 C575 1.474 . S
C574 C576 1.285 . S
C574 H594 0.929 . S
C575 C572 1.461 . S
C575 C574 1.474 . S
C576 C571 1.342 . S
C576 C574 1.285 . S
C576 H595 0.930 . S
C577 C580 1.424 . S
C577 C582 1.245 . S
C577 C583 1.428 . S
C578 C581 1.260 . S
C578 C582 1.477 . S
C578 H596 0.932 . S
C579 C580 1.384 . S
C579 C581 1.479 . S
C579 H597 0.929 . S
C580 C577 1.424 . S
C580 C579 1.384 . S
C580 H598 0.928 . S
C581 C578 1.260 . S
C581 C579 1.479 . S
C582 C577 1.245 . S
C582 C578 1.477 . S
C582 H599 0.932 . S
C583 U566 2.882 . S
C583 C577 1.428 . S
C583 O586 1.301 . S
C583 O587 1.282 . S
O584 U566 2.441 . S
O584 C570 1.249 . S
O585 U566 2.420 . S
O585 C570 1.202 . S
O586 U566 2.455 . S
O586 C583 1.301 . S
O587 U566 2.449 . S
O587 C583 1.282 . S
H588 C561 0.931 . S
H589 C563 0.929 . S
H590 C564 0.930 . S
H591 C565 0.931 . S
H592 C572 0.932 . S
H593 C573 0.930 . S
H594 C574 0.929 . S
H595 C576 0.930 . S
H596 C578 0.932 . S
H597 C579 0.929 . S
H598 C580 0.928 . S
H599 C582 0.932 . S
C600 C601 1.264 . S
C600 C605 1.479 . S
C600 C610 1.465 . S
C601 C600 1.264 . S
C601 C603 1.339 . S
C601 H628 0.931 . S
C602 C603 1.395 . S
C602 C604 1.320 . S
C603 C601 1.339 . S
C603 C602 1.395 . S
C603 H629 0.929 . S
C604 C602 1.320 . S
C604 C605 1.405 . S
C604 H630 0.930 . S
C605 C600 1.479 . S
C605 C604 1.405 . S
C605 H631 0.931 . S
U606 O607 2.454 . S
U606 O608 2.458 . S
U606 C609 2.984 . S
U606 C610 2.847 . S
U606 C623 2.882 . S
U606 O624 2.441 . S
U606 O625 2.420 . S
U606 O626 2.455 . S
U606 O627 2.449 . S
O607 U606 2.454 . S
O607 C609 1.353 . S
O608 U606 2.458 . S
O608 C609 1.286 . S
C609 U606 2.984 . S
C609 O607 1.353 . S
C609 O608 1.286 . S
C609 C611 1.363 . S
C610 C600 1.465 . S
C610 U606 2.847 . S
C610 O624 1.249 . S
C610 O625 1.202 . S
C611 C609 1.363 . S
C611 C613 1.408 . S
C611 C616 1.342 . S
C612 C613 1.310 . S
C612 C615 1.461 . S
C612 H632 0.932 . S
C613 C611 1.408 . S
C613 C612 1.310 . S
C613 H633 0.930 . S
C614 C615 1.474 . S
C614 C616 1.285 . S
C614 H634 0.929 . S
C615 C612 1.461 . S
C615 C614 1.474 . S
C616 C611 1.342 . S
C616 C614 1.285 . S
C616 H635 0.930 . S
C617 C620 1.424 . S
C617 C622 1.245 . S
C617 C623 1.428 . S
C618 C621 1.260 . S
C618 C622 1.477 . S
C618 H636 0.932 . S
C619 C620 1.384 . S
C619 C621 1.479 . S
C619 H637 0.929 . S
C620 C617 1.424 . S
C620 C619 1.384 . S
C620 H638 0.928 . S
C621 C618 1.260 . S
C621 C619 1.479 . S
C622 C617 1.245 . S
C622 C618 1.477 . S
C622 H639 0.932 . S
C623 U606 2.882 . S
C623 C617 1.428 . S
C623 O626 1.301 . S
C623 O627 1.282 . S
O624 U606 2.441 . S
O624 C610 1.249 . S
O625 U606 2.420 . S
O625 C610 1.202 . S
O626 U606 2.455 . S
O626 C623 1.301 . S
O627 U606 2.449 . S
O627 C623 1.282 . S
H628 C601 0.931 . S
H629 C603 0.929 . S
H630 C604 0.930 . S
H631 C605 0.931 . S
H632 C612 0.932 . S
H633 C613 0.930 . S
H634 C614 0.929 . S
H635 C616 0.930 . S
H636 C618 0.932 . S
H637 C619 0.929 . S
H638 C620 0.928 . S
H639 C622 0.932 . S
C640 C641 1.264 . S
C640 C645 1.479 . S
C640 C650 1.465 . S
C641 C640 1.264 . S
C641 C643 1.339 . S
C641 H668 0.931 . S
C642 C643 1.395 . S
C642 C644 1.320 . S
C643 C641 1.339 . S
C643 C642 1.395 . S
C643 H669 0.929 . S
C644 C642 1.320 . S
C644 C645 1.405 . S
C644 H670 0.930 . S
C645 C640 1.479 . S
C645 C644 1.405 . S
C645 H671 0.931 . S
U646 O647 2.454 . S
U646 O648 2.458 . S
U646 C649 2.984 . S
U646 C650 2.847 . S
U646 C663 2.882 . S
U646 O664 2.441 . S
U646 O665 2.420 . S
U646 O666 2.455 . S
U646 O667 2.449 . S
O647 U646 2.454 . S
O647 C649 1.353 . S
O648 U646 2.458 . S
O648 C649 1.286 . S
C649 U646 2.984 . S
C649 O647 1.353 . S
C649 O648 1.286 . S
C649 C651 1.363 . S
C650 C640 1.465 . S
C650 U646 2.847 . S
C650 O664 1.249 . S
C650 O665 1.202 . S
C651 C649 1.363 . S
C651 C653 1.408 . S
C651 C656 1.342 . S
C652 C653 1.310 . S
C652 C655 1.461 . S
C652 H672 0.932 . S
C653 C651 1.408 . S
C653 C652 1.310 . S
C653 H673 0.930 . S
C654 C655 1.474 . S
C654 C656 1.285 . S
C654 H674 0.929 . S
C655 C652 1.461 . S
C655 C654 1.474 . S
C656 C651 1.342 . S
C656 C654 1.285 . S
C656 H675 0.930 . S
C657 C660 1.424 . S
C657 C662 1.245 . S
C657 C663 1.428 . S
C658 C661 1.260 . S
C658 C662 1.477 . S
C658 H676 0.932 . S
C659 C660 1.384 . S
C659 C661 1.479 . S
C659 H677 0.929 . S
C660 C657 1.424 . S
C660 C659 1.384 . S
C660 H678 0.928 . S
C661 C658 1.260 . S
C661 C659 1.479 . S
C662 C657 1.245 . S
C662 C658 1.477 . S
C662 H679 0.932 . S
C663 U646 2.882 . S
C663 C657 1.428 . S
C663 O666 1.301 . S
C663 O667 1.282 . S
O664 U646 2.441 . S
O664 C650 1.249 . S
O665 U646 2.420 . S
O665 C650 1.202 . S
O666 U646 2.455 . S
O666 C663 1.301 . S
O667 U646 2.449 . S
O667 C663 1.282 . S
H668 C641 0.931 . S
H669 C643 0.929 . S
H670 C644 0.930 . S
H671 C645 0.931 . S
H672 C652 0.932 . S
H673 C653 0.930 . S
H674 C654 0.929 . S
H675 C656 0.930 . S
H676 C658 0.932 . S
H677 C659 0.929 . S
H678 C660 0.928 . S
H679 C662 0.932 . S
C680 C681 1.264 . S
C680 C685 1.479 . S
C680 C690 1.465 . S
C681 C680 1.264 . S
C681 C683 1.339 . S
C681 H708 0.931 . S
C682 C683 1.395 . S
C682 C684 1.320 . S
C683 C681 1.339 . S
C683 C682 1.395 . S
C683 H709 0.929 . S
C684 C682 1.320 . S
C684 C685 1.405 . S
C684 H710 0.930 . S
C685 C680 1.479 . S
C685 C684 1.405 . S
C685 H711 0.931 . S
U686 O687 2.454 . S
U686 O688 2.458 . S
U686 C689 2.984 . S
U686 C690 2.847 . S
U686 C703 2.882 . S
U686 O704 2.441 . S
U686 O705 2.420 . S
U686 O706 2.455 . S
U686 O707 2.449 . S
O687 U686 2.454 . S
O687 C689 1.353 . S
O688 U686 2.458 . S
O688 C689 1.286 . S
C689 U686 2.984 . S
C689 O687 1.353 . S
C689 O688 1.286 . S
C689 C691 1.363 . S
C690 C680 1.465 . S
C690 U686 2.847 . S
C690 O704 1.249 . S
C690 O705 1.202 . S
C691 C689 1.363 . S
C691 C693 1.408 . S
C691 C696 1.342 . S
C692 C693 1.310 . S
C692 C695 1.461 . S
C692 H712 0.932 . S
C693 C691 1.408 . S
C693 C692 1.310 . S
C693 H713 0.930 . S
C694 C695 1.474 . S
C694 C696 1.285 . S
C694 H714 0.929 . S
C695 C692 1.461 . S
C695 C694 1.474 . S
C696 C691 1.342 . S
C696 C694 1.285 . S
C696 H715 0.930 . S
C697 C700 1.424 . S
C697 C702 1.245 . S
C697 C703 1.428 . S
C698 C701 1.260 . S
C698 C702 1.477 . S
C698 H716 0.932 . S
C699 C700 1.384 . S
C699 C701 1.479 . S
C699 H717 0.929 . S
C700 C697 1.424 . S
C700 C699 1.384 . S
C700 H718 0.928 . S
C701 C698 1.260 . S
C701 C699 1.479 . S
C702 C697 1.245 . S
C702 C698 1.477 . S
C702 H719 0.932 . S
C703 U686 2.882 . S
C703 C697 1.428 . S
C703 O706 1.301 . S
C703 O707 1.282 . S
O704 U686 2.441 . S
O704 C690 1.249 . S
O705 U686 2.420 . S
O705 C690 1.202 . S
O706 U686 2.455 . S
O706 C703 1.301 . S
O707 U686 2.449 . S
O707 C703 1.282 . S
H708 C681 0.931 . S
H709 C683 0.929 . S
H710 C684 0.930 . S
H711 C685 0.931 . S
H712 C692 0.932 . S
H713 C693 0.930 . S
H714 C694 0.929 . S
H715 C696 0.930 . S
H716 C698 0.932 . S
H717 C699 0.929 . S
H718 C700 0.928 . S
H719 C702 0.932 . S
C720 C721 1.264 . S
C720 C725 1.479 . S
C720 C730 1.465 . S
C721 C720 1.264 . S
C721 C723 1.339 . S
C721 H748 0.931 . S
C722 C723 1.395 . S
C722 C724 1.320 . S
C723 C721 1.339 . S
C723 C722 1.395 . S
C723 H749 0.929 . S
C724 C722 1.320 . S
C724 C725 1.405 . S
C724 H750 0.930 . S
C725 C720 1.479 . S
C725 C724 1.405 . S
C725 H751 0.931 . S
U726 O727 2.454 . S
U726 O728 2.458 . S
U726 C729 2.984 . S
U726 C730 2.847 . S
U726 C743 2.882 . S
U726 O744 2.441 . S
U726 O745 2.420 . S
U726 O746 2.455 . S
U726 O747 2.449 . S
O727 U726 2.454 . S
O727 C729 1.353 . S
O728 U726 2.458 . S
O728 C729 1.286 . S
C729 U726 2.984 . S
C729 O727 1.353 . S
C729 O728 1.286 . S
C729 C731 1.363 . S
C730 C720 1.465 . S
C730 U726 2.847 . S
C730 O744 1.249 . S
C730 O745 1.202 . S
C731 C729 1.363 . S
C731 C733 1.408 . S
C731 C736 1.342 . S
C732 C733 1.310 . S
C732 C735 1.461 . S
C732 H752 0.932 . S
C733 C731 1.408 . S
C733 C732 1.310 . S
C733 H753 0.930 . S
C734 C735 1.474 . S
C734 C736 1.285 . S
C734 H754 0.929 . S
C735 C732 1.461 . S
C735 C734 1.474 . S
C736 C731 1.342 . S
C736 C734 1.285 . S
C736 H755 0.930 . S
C737 C740 1.424 . S
C737 C742 1.245 . S
C737 C743 1.428 . S
C738 C741 1.260 . S
C738 C742 1.477 . S
C738 H756 0.932 . S
C739 C740 1.384 . S
C739 C741 1.479 . S
C739 H757 0.929 . S
C740 C737 1.424 . S
C740 C739 1.384 . S
C740 H758 0.928 . S
C741 C738 1.260 . S
C741 C739 1.479 . S
C742 C737 1.245 . S
C742 C738 1.477 . S
C742 H759 0.932 . S
C743 U726 2.882 . S
C743 C737 1.428 . S
C743 O746 1.301 . S
C743 O747 1.282 . S
O744 U726 2.441 . S
O744 C730 1.249 . S
O745 U726 2.420 . S
O745 C730 1.202 . S
O746 U726 2.455 . S
O746 C743 1.301 . S
O747 U726 2.449 . S
O747 C743 1.282 . S
H748 C721 0.931 . S
H749 C723 0.929 . S
H750 C724 0.930 . S
H751 C725 0.931 . S
H752 C732 0.932 . S
H753 C733 0.930 . S
H754 C734 0.929 . S
H755 C736 0.930 . S
H756 C738 0.932 . S
H757 C739 0.929 . S
H758 C740 0.928 . S
H759 C742 0.932 . S
C760 C761 1.264 . S
C760 C765 1.479 . S
C760 C770 1.465 . S
C761 C760 1.264 . S
C761 C763 1.339 . S
C761 H788 0.931 . S
C762 C763 1.395 . S
C762 C764 1.320 . S
C763 C761 1.339 . S
C763 C762 1.395 . S
C763 H789 0.929 . S
C764 C762 1.320 . S
C764 C765 1.405 . S
C764 H790 0.930 . S
C765 C760 1.479 . S
C765 C764 1.405 . S
C765 H791 0.931 . S
U766 O767 2.454 . S
U766 O768 2.458 . S
U766 C769 2.984 . S
U766 C770 2.847 . S
U766 C783 2.882 . S
U766 O784 2.441 . S
U766 O785 2.420 . S
U766 O786 2.455 . S
U766 O787 2.449 . S
O767 U766 2.454 . S
O767 C769 1.353 . S
O768 U766 2.458 . S
O768 C769 1.286 . S
C769 U766 2.984 . S
C769 O767 1.353 . S
C769 O768 1.286 . S
C769 C771 1.363 . S
C770 C760 1.465 . S
C770 U766 2.847 . S
C770 O784 1.249 . S
C770 O785 1.202 . S
C771 C769 1.363 . S
C771 C773 1.408 . S
C771 C776 1.342 . S
C772 C773 1.310 . S
C772 C775 1.461 . S
C772 H792 0.932 . S
C773 C771 1.408 . S
C773 C772 1.310 . S
C773 H793 0.930 . S
C774 C775 1.474 . S
C774 C776 1.285 . S
C774 H794 0.929 . S
C775 C772 1.461 . S
C775 C774 1.474 . S
C776 C771 1.342 . S
C776 C774 1.285 . S
C776 H795 0.930 . S
C777 C780 1.424 . S
C777 C782 1.245 . S
C777 C783 1.428 . S
C778 C781 1.260 . S
C778 C782 1.477 . S
C778 H796 0.932 . S
C779 C780 1.384 . S
C779 C781 1.479 . S
C779 H797 0.929 . S
C780 C777 1.424 . S
C780 C779 1.384 . S
C780 H798 0.928 . S
C781 C778 1.260 . S
C781 C779 1.479 . S
C782 C777 1.245 . S
C782 C778 1.477 . S
C782 H799 0.932 . S
C783 U766 2.882 . S
C783 C777 1.428 . S
C783 O786 1.301 . S
C783 O787 1.282 . S
O784 U766 2.441 . S
O784 C770 1.249 . S
O785 U766 2.420 . S
O785 C770 1.202 . S
O786 U766 2.455 . S
O786 C783 1.301 . S
O787 U766 2.449 . S
O787 C783 1.282 . S
H788 C761 0.931 . S
H789 C763 0.929 . S
H790 C764 0.930 . S
H791 C765 0.931 . S
H792 C772 0.932 . S
H793 C773 0.930 . S
H794 C774 0.929 . S
H795 C776 0.930 . S
H796 C778 0.932 . S
H797 C779 0.929 . S
H798 C780 0.928 . S
H799 C782 0.932 . S
C800 C801 1.264 . S
C800 C805 1.479 . S
C800 C810 1.465 . S
C801 C800 1.264 . S
C801 C803 1.339 . S
C801 H828 0.931 . S
C802 C803 1.395 . S
C802 C804 1.320 . S
C803 C801 1.339 . S
C803 C802 1.395 . S
C803 H829 0.929 . S
C804 C802 1.320 . S
C804 C805 1.405 . S
C804 H830 0.930 . S
C805 C800 1.479 . S
C805 C804 1.405 . S
C805 H831 0.931 . S
U806 O807 2.454 . S
U806 O808 2.458 . S
U806 C809 2.984 . S
U806 C810 2.847 . S
U806 C823 2.882 . S
U806 O824 2.441 . S
U806 O825 2.420 . S
U806 O826 2.455 . S
U806 O827 2.449 . S
O807 U806 2.454 . S
O807 C809 1.353 . S
O808 U806 2.458 . S
O808 C809 1.286 . S
C809 U806 2.984 . S
C809 O807 1.353 . S
C809 O808 1.286 . S
C809 C811 1.363 . S
C810 C800 1.465 . S
C810 U806 2.847 . S
C810 O824 1.249 . S
C810 O825 1.202 . S
C811 C809 1.363 . S
C811 C813 1.408 . S
C811 C816 1.342 . S
C812 C813 1.310 . S
C812 C815 1.461 . S
C812 H832 0.932 . S
C813 C811 1.408 . S
C813 C812 1.310 . S
C813 H833 0.930 . S
C814 C815 1.474 . S
C814 C816 1.285 . S
C814 H834 0.929 . S
C815 C812 1.461 . S
C815 C814 1.474 . S
C816 C811 1.342 . S
C816 C814 1.285 . S
C816 H835 0.930 . S
C817 C820 1.424 . S
C817 C822 1.245 . S
C817 C823 1.428 . S
C818 C821 1.260 . S
C818 C822 1.477 . S
C818 H836 0.932 . S
C819 C820 1.384 . S
C819 C821 1.479 . S
C819 H837 0.929 . S
C820 C817 1.424 . S
C820 C819 1.384 . S
C820 H838 0.928 . S
C821 C818 1.260 . S
C821 C819 1.479 . S
C822 C817 1.245 . S
C822 C818 1.477 . S
C822 H839 0.932 . S
C823 U806 2.882 . S
C823 C817 1.428 . S
C823 O826 1.301 . S
C823 O827 1.282 . S
O824 U806 2.441 . S
O824 C810 1.249 . S
O825 U806 2.420 . S
O825 C810 1.202 . S
O826 U806 2.455 . S
O826 C823 1.301 . S
O827 U806 2.449 . S
O827 C823 1.282 . S
H828 C801 0.931 . S
H829 C803 0.929 . S
H830 C804 0.930 . S
H831 C805 0.931 . S
H832 C812 0.932 . S
H833 C813 0.930 . S
H834 C814 0.929 . S
H835 C816 0.930 . S
H836 C818 0.932 . S
H837 C819 0.929 . S
H838 C820 0.928 . S
H839 C822 0.932 . S
C840 C841 1.264 . S
C840 C845 1.479 . S
C840 C850 1.465 . S
C841 C840 1.264 . S
C841 C843 1.339 . S
C841 H868 0.931 . S
C842 C843 1.395 . S
C842 C844 1.320 . S
C843 C841 1.339 . S
C843 C842 1.395 . S
C843 H869 0.929 . S
C844 C842 1.320 . S
C844 C845 1.405 . S
C844 H870 0.930 . S
C845 C840 1.479 . S
C845 C844 1.405 . S
C845 H871 0.931 . S
U846 O847 2.454 . S
U846 O848 2.458 . S
U846 C849 2.984 . S
U846 C850 2.847 . S
U846 C863 2.882 . S
U846 O864 2.441 . S
U846 O865 2.420 . S
U846 O866 2.455 . S
U846 O867 2.449 . S
O847 U846 2.454 . S
O847 C849 1.353 . S
O848 U846 2.458 . S
O848 C849 1.286 . S
C849 U846 2.984 . S
C849 O847 1.353 . S
C849 O848 1.286 . S
C849 C851 1.363 . S
C850 C840 1.465 . S
C850 U846 2.847 . S
C850 O864 1.249 . S
C850 O865 1.202 . S
C851 C849 1.363 . S
C851 C853 1.408 . S
C851 C856 1.342 . S
C852 C853 1.310 . S
C852 C855 1.461 . S
C852 H872 0.932 . S
C853 C851 1.408 . S
C853 C852 1.310 . S
C853 H873 0.930 . S
C854 C855 1.474 . S
C854 C856 1.285 . S
C854 H874 0.929 . S
C855 C852 1.461 . S
C855 C854 1.474 . S
C856 C851 1.342 . S
C856 C854 1.285 . S
C856 H875 0.930 . S
C857 C860 1.424 . S
C857 C862 1.245 . S
C857 C863 1.428 . S
C858 C861 1.260 . S
C858 C862 1.477 . S
C858 H876 0.932 . S
C859 C860 1.384 . S
C859 C861 1.479 . S
C859 H877 0.929 . S
C860 C857 1.424 . S
C860 C859 1.384 . S
C860 H878 0.928 . S
C861 C858 1.260 . S
C861 C859 1.479 . S
C862 C857 1.245 . S
C862 C858 1.477 . S
C862 H879 0.932 . S
C863 U846 2.882 . S
C863 C857 1.428 . S
C863 O866 1.301 . S
C863 O867 1.282 . S
O864 U846 2.441 . S
O864 C850 1.249 . S
O865 U846 2.420 . S
O865 C850 1.202 . S
O866 U846 2.455 . S
O866 C863 1.301 . S
O867 U846 2.449 . S
O867 C863 1.282 . S
H868 C841 0.931 . S
H869 C843 0.929 . S
H870 C844 0.930 . S
H871 C845 0.931 . S
H872 C852 0.932 . S
H873 C853 0.930 . S
H874 C854 0.929 . S
H875 C856 0.930 . S
H876 C858 0.932 . S
H877 C859 0.929 . S
H878 C860 0.928 . S
H879 C862 0.932 . S
C880 C881 1.264 . S
C880 C885 1.479 . S
C880 C890 1.465 . S
C881 C880 1.264 . S
C881 C883 1.339 . S
C881 H908 0.931 . S
C882 C883 1.395 . S
C882 C884 1.320 . S
C883 C881 1.339 . S
C883 C882 1.395 . S
C883 H909 0.929 . S
C884 C882 1.320 . S
C884 C885 1.405 . S
C884 H910 0.930 . S
C885 C880 1.479 . S
C885 C884 1.405 . S
C885 H911 0.931 . S
U886 O887 2.454 . S
U886 O888 2.458 . S
U886 C889 2.984 . S
U886 C890 2.847 . S
U886 C903 2.882 . S
U886 O904 2.441 . S
U886 O905 2.420 . S
U886 O906 2.455 . S
U886 O907 2.449 . S
O887 U886 2.454 . S
O887 C889 1.353 . S
O888 U886 2.458 . S
O888 C889 1.286 . S
C889 U886 2.984 . S
C889 O887 1.353 . S
C889 O888 1.286 . S
C889 C891 1.363 . S
C890 C880 1.465 . S
C890 U886 2.847 . S
C890 O904 1.249 . S
C890 O905 1.202 . S
C891 C889 1.363 . S
C891 C893 1.408 . S
C891 C896 1.342 . S
C892 C893 1.310 . S
C892 C895 1.461 . S
C892 H912 0.932 . S
C893 C891 1.408 . S
C893 C892 1.310 . S
C893 H913 0.930 . S
C894 C895 1.474 . S
C894 C896 1.285 . S
C894 H914 0.929 . S
C895 C892 1.461 . S
C895 C894 1.474 . S
C896 C891 1.342 . S
C896 C894 1.285 . S
C896 H915 0.930 . S
C897 C900 1.424 . S
C897 C902 1.245 . S
C897 C903 1.428 . S
C898 C901 1.260 . S
C898 C902 1.477 . S
C898 H916 0.932 . S
C899 C900 1.384 . S
C899 C901 1.479 . S
C899 H917 0.929 . S
C900 C897 1.424 . S
C900 C899 1.384 . S
C900 H918 0.928 . S
C901 C898 1.260 . S
C901 C899 1.479 . S
C902 C897 1.245 . S
C902 C898 1.477 . S
C902 H919 0.932 . S
C903 U886 2.882 . S
C903 C897 1.428 . S
C903 O906 1.301 . S
C903 O907 1.282 . S
O904 U886 2.441 . S
O904 C890 1.249 . S
O905 U886 2.420 . S
O905 C890 1.202 . S
O906 U886 2.455 . S
O906 C903 1.301 . S
O907 U886 2.449 . S
O907 C903 1.282 . S
H908 C881 0.931 . S
H909 C883 0.929 . S
H910 C884 0.930 . S
H911 C885 0.931 . S
H912 C892 0.932 . S
H913 C893 0.930 . S
H914 C894 0.929 . S
H915 C896 0.930 . S
H916 C898 0.932 . S
H917 C899 0.929 . S
H918 C900 0.928 . S
H919 C902 0.932 . S
C920 C921 1.264 . S
C920 C925 1.479 . S
C920 C930 1.465 . S
C921 C920 1.264 . S
C921 C923 1.339 . S
C921 H948 0.931 . S
C922 C923 1.395 . S
C922 C924 1.320 . S
C923 C921 1.339 . S
C923 C922 1.395 . S
C923 H949 0.929 . S
C924 C922 1.320 . S
C924 C925 1.405 . S
C924 H950 0.930 . S
C925 C920 1.479 . S
C925 C924 1.405 . S
C925 H951 0.931 . S
U926 O927 2.454 . S
U926 O928 2.458 . S
U926 C929 2.984 . S
U926 C930 2.847 . S
U926 C943 2.882 . S
U926 O944 2.441 . S
U926 O945 2.420 . S
U926 O946 2.455 . S
U926 O947 2.449 . S
O927 U926 2.454 . S
O927 C929 1.353 . S
O928 U926 2.458 . S
O928 C929 1.286 . S
C929 U926 2.984 . S
C929 O927 1.353 . S
C929 O928 1.286 . S
C929 C931 1.363 . S
C930 C920 1.465 . S
C930 U926 2.847 . S
C930 O944 1.249 . S
C930 O945 1.202 . S
C931 C929 1.363 . S
C931 C933 1.408 . S
C931 C936 1.342 . S
C932 C933 1.310 . S
C932 C935 1.461 . S
C932 H952 0.932 . S
C933 C931 1.408 . S
C933 C932 1.310 . S
C933 H953 0.930 . S
C934 C935 1.474 . S
C934 C936 1.285 . S
C934 H954 0.929 . S
C935 C932 1.461 . S
C935 C934 1.474 . S
C936 C931 1.342 . S
C936 C934 1.285 . S
C936 H955 0.930 . S
C937 C940 1.424 . S
C937 C942 1.245 . S
C937 C943 1.428 . S
C938 C941 1.260 . S
C938 C942 1.477 . S
C938 H956 0.932 . S
C939 C940 1.384 . S
C939 C941 1.479 . S
C939 H957 0.929 . S
C940 C937 1.424 . S
C940 C939 1.384 . S
C940 H958 0.928 . S
C941 C938 1.260 . S
C941 C939 1.479 . S
C942 C937 1.245 . S
C942 C938 1.477 . S
C942 H959 0.932 . S
C943 U926 2.882 . S
C943 C937 1.428 . S
C943 O946 1.301 . S
C943 O947 1.282 . S
O944 U926 2.441 . S
O944 C930 1.249 . S
O945 U926 2.420 . S
O945 C930 1.202 . S
O946 U926 2.455 . S
O946 C943 1.301 . S
O947 U926 2.449 . S
O947 C943 1.282 . S
H948 C921 0.931 . S
H949 C923 0.929 . S
H950 C924 0.930 . S
H951 C925 0.931 . S
H952 C932 0.932 . S
H953 C933 0.930 . S
H954 C934 0.929 . S
H955 C936 0.930 . S
H956 C938 0.932 . S
H957 C939 0.929 . S
H958 C940 0.928 . S
H959 C942 0.932 . S
C960 C961 1.264 . S
C960 C965 1.479 . S
C960 C970 1.465 . S
C961 C960 1.264 . S
C961 C963 1.339 . S
C961 H988 0.931 . S
C962 C963 1.395 . S
C962 C964 1.320 . S
C963 C961 1.339 . S
C963 C962 1.395 . S
C963 H989 0.929 . S
C964 C962 1.320 . S
C964 C965 1.405 . S
C964 H990 0.930 . S
C965 C960 1.479 . S
C965 C964 1.405 . S
C965 H991 0.931 . S
U966 O967 2.454 . S
U966 O968 2.458 . S
U966 C969 2.984 . S
U966 C970 2.847 . S
U966 C983 2.882 . S
U966 O984 2.441 . S
U966 O985 2.420 . S
U966 O986 2.455 . S
U966 O987 2.449 . S
O967 U966 2.454 . S
O967 C969 1.353 . S
O968 U966 2.458 . S
O968 C969 1.286 . S
C969 U966 2.984 . S
C969 O967 1.353 . S
C969 O968 1.286 . S
C969 C971 1.363 . S
C970 C960 1.465 . S
C970 U966 2.847 . S
C970 O984 1.249 . S
C970 O985 1.202 . S
C971 C969 1.363 . S
C971 C973 1.408 . S
C971 C976 1.342 . S
C972 C973 1.310 . S
C972 C975 1.461 . S
C972 H992 0.932 . S
C973 C971 1.408 . S
C973 C972 1.310 . S
C973 H993 0.930 . S
C974 C975 1.474 . S
C974 C976 1.285 . S
C974 H994 0.929 . S
C975 C972 1.461 . S
C975 C974 1.474 . S
C976 C971 1.342 . S
C976 C974 1.285 . S
C976 H995 0.930 . S
C977 C980 1.424 . S
C977 C982 1.245 . S
C977 C983 1.428 . S
C978 C981 1.260 . S
C978 C982 1.477 . S
C978 H996 0.932 . S
C979 C980 1.384 . S
C979 C981 1.479 . S
C979 H997 0.929 . S
C980 C977 1.424 . S
C980 C979 1.384 . S
C980 H998 0.928 . S
C981 C978 1.260 . S
C981 C979 1.479 . S
C982 C977 1.245 . S
C982 C978 1.477 . S
C982 H999 0.932 . S
C983 U966 2.882 . S
C983 C977 1.428 . S
C983 O986 1.301 . S
C983 O987 1.282 . S
O984 U966 2.441 . S
O984 C970 1.249 . S
O985 U966 2.420 . S
O985 C970 1.202 . S
O986 U966 2.455 . S
O986 C983 1.301 . S
O987 U966 2.449 . S
O987 C983 1.282 . S
H988 C961 0.931 . S
H989 C963 0.929 . S
H990 C964 0.930 . S
H991 C965 0.931 . S
H992 C972 0.932 . S
H993 C973 0.930 . S
H994 C974 0.929 . S
H995 C976 0.930 . S
H996 C978 0.932 . S
H997 C979 0.929 . S
H998 C980 0.928 . S
H999 C982 0.932 . S
C1000 C1001 1.264 . S
C1000 C1005 1.479 . S
C1000 C1010 1.465 . S
C1001 C1000 1.264 . S
C1001 C1003 1.339 . S
C1001 H1028 0.931 . S
C1002 C1003 1.395 . S
C1002 C1004 1.320 . S
C1003 C1001 1.339 . S
C1003 C1002 1.395 . S
C1003 H1029 0.929 . S
C1004 C1002 1.320 . S
C1004 C1005 1.405 . S
C1004 H1030 0.930 . S
C1005 C1000 1.479 . S
C1005 C1004 1.405 . S
C1005 H1031 0.931 . S
U1006 O1007 2.454 . S
U1006 O1008 2.458 . S
U1006 C1009 2.984 . S
U1006 C1010 2.847 . S
U1006 C1023 2.882 . S
U1006 O1024 2.441 . S
U1006 O1025 2.420 . S
U1006 O1026 2.455 . S
U1006 O1027 2.449 . S
O1007 U1006 2.454 . S
O1007 C1009 1.353 . S
O1008 U1006 2.458 . S
O1008 C1009 1.286 . S
C1009 U1006 2.984 . S
C1009 O1007 1.353 . S
C1009 O1008 1.286 . S
C1009 C1011 1.363 . S
C1010 C1000 1.465 . S
C1010 U1006 2.847 . S
C1010 O1024 1.249 . S
C1010 O1025 1.202 . S
C1011 C1009 1.363 . S
C1011 C1013 1.408 . S
C1011 C1016 1.342 . S
C1012 C1013 1.310 . S
C1012 C1015 1.461 . S
C1012 H1032 0.932 . S
C1013 C1011 1.408 . S
C1013 C1012 1.310 . S
C1013 H1033 0.930 . S
C1014 C1015 1.474 . S
C1014 C1016 1.285 . S
C1014 H1034 0.929 . S
C1015 C1012 1.461 . S
C1015 C1014 1.474 . S
C1016 C1011 1.342 . S
C1016 C1014 1.285 . S
C1016 H1035 0.930 . S
C1017 C1020 1.424 . S
C1017 C1022 1.245 . S
C1017 C1023 1.428 . S
C1018 C1021 1.260 . S
C1018 C1022 1.477 . S
C1018 H1036 0.932 . S
C1019 C1020 1.384 . S
C1019 C1021 1.479 . S
C1019 H1037 0.929 . S
C1020 C1017 1.424 . S
C1020 C1019 1.384 . S
C1020 H1038 0.928 . S
C1021 C1018 1.260 . S
C1021 C1019 1.479 . S
C1022 C1017 1.245 . S
C1022 C1018 1.477 . S
C1022 H1039 0.932 . S
C1023 U1006 2.882 . S
C1023 C1017 1.428 . S
C1023 O1026 1.301 . S
C1023 O1027 1.282 . S
O1024 U1006 2.441 . S
O1024 C1010 1.249 . S
O1025 U1006 2.420 . S
O1025 C1010 1.202 . S
O1026 U1006 2.455 . S
O1026 C1023 1.301 . S
O1027 U1006 2.449 . S
O1027 C1023 1.282 . S
H1028 C1001 0.931 . S
H1029 C1003 0.929 . S
H1030 C1004 0.930 . S
H1031 C1005 0.931 . S
H1032 C1012 0.932 . S
H1033 C1013 0.930 . S
H1034 C1014 0.929 . S
H1035 C1016 0.930 . S
H1036 C1018 0.932 . S
H1037 C1019 0.929 . S
H1038 C1020 0.928 . S
H1039 C1022 0.932 . S
C1040 C1041 1.264 . S
C1040 C1045 1.479 . S
C1040 C1050 1.465 . S
C1041 C1040 1.264 . S
C1041 C1043 1.339 . S
C1041 H1068 0.931 . S
C1042 C1043 1.395 . S
C1042 C1044 1.320 . S
C1043 C1041 1.339 . S
C1043 C1042 1.395 . S
C1043 H1069 0.929 . S
C1044 C1042 1.320 . S
C1044 C1045 1.405 . S
C1044 H1070 0.930 . S
C1045 C1040 1.479 . S
C1045 C1044 1.405 . S
C1045 H1071 0.931 . S
U1046 O1047 2.454 . S
U1046 O1048 2.458 . S
U1046 C1049 2.984 . S
U1046 C1050 2.847 . S
U1046 C1063 2.882 . S
U1046 O1064 2.441 . S
U1046 O1065 2.420 . S
U1046 O1066 2.455 . S
U1046 O1067 2.449 . S
O1047 U1046 2.454 . S
O1047 C1049 1.353 . S
O1048 U1046 2.458 . S
O1048 C1049 1.286 . S
C1049 U1046 2.984 . S
C1049 O1047 1.353 . S
C1049 O1048 1.286 . S
C1049 C1051 1.363 . S
C1050 C1040 1.465 . S
C1050 U1046 2.847 . S
C1050 O1064 1.249 . S
C1050 O1065 1.202 . S
C1051 C1049 1.363 . S
C1051 C1053 1.408 . S
C1051 C1056 1.342 . S
C1052 C1053 1.310 . S
C1052 C1055 1.461 . S
C1052 H1072 0.932 . S
C1053 C1051 1.408 . S
C1053 C1052 1.310 . S
C1053 H1073 0.930 . S
C1054 C1055 1.474 . S
C1054 C1056 1.285 . S
C1054 H1074 0.929 . S
C1055 C1052 1.461 . S
C1055 C1054 1.474 . S
C1056 C1051 1.342 . S
C1056 C1054 1.285 . S
C1056 H1075 0.930 . S
C1057 C1060 1.424 . S
C1057 C1062 1.245 . S
C1057 C1063 1.428 . S
C1058 C1061 1.260 . S
C1058 C1062 1.477 . S
C1058 H1076 0.932 . S
C1059 C1060 1.384 . S
C1059 C1061 1.479 . S
C1059 H1077 0.929 . S
C1060 C1057 1.424 . S
C1060 C1059 1.384 . S
C1060 H1078 0.928 . S
C1061 C1058 1.260 . S
C1061 C1059 1.479 . S
C1062 C1057 1.245 . S
C1062 C1058 1.477 . S
C1062 H1079 0.932 . S
C1063 U1046 2.882 . S
C1063 C1057 1.428 . S
C1063 O1066 1.301 . S
C1063 O1067 1.282 . S
O1064 U1046 2.441 . S
O1064 C1050 1.249 . S
O1065 U1046 2.420 . S
O1065 C1050 1.202 . S
O1066 U1046 2.455 . S
O1066 C1063 1.301 . S
O1067 U1046 2.449 . S
O1067 C1063 1.282 . S
H1068 C1041 0.931 . S
H1069 C1043 0.929 . S
H1070 C1044 0.930 . S
H1071 C1045 0.931 . S
H1072 C1052 0.932 . S
H1073 C1053 0.930 . S
H1074 C1054 0.929 . S
H1075 C1056 0.930 . S
H1076 C1058 0.932 . S
H1077 C1059 0.929 . S
H1078 C1060 0.928 . S
H1079 C1062 0.932 . S
C1080 C1081 1.264 . S
C1080 C1085 1.479 . S
C1080 C1090 1.465 . S
C1081 C1080 1.264 . S
C1081 C1083 1.339 . S
C1081 H1108 0.931 . S
C1082 C1083 1.395 . S
C1082 C1084 1.320 . S
C1083 C1081 1.339 . S
C1083 C1082 1.395 . S
C1083 H1109 0.929 . S
C1084 C1082 1.320 . S
C1084 C1085 1.405 . S
C1084 H1110 0.930 . S
C1085 C1080 1.479 . S
C1085 C1084 1.405 . S
C1085 H1111 0.931 . S
U1086 O1087 2.454 . S
U1086 O1088 2.458 . S
U1086 C1089 2.984 . S
U1086 C1090 2.847 . S
U1086 C1103 2.882 . S
U1086 O1104 2.441 . S
U1086 O1105 2.420 . S
U1086 O1106 2.455 . S
U1086 O1107 2.449 . S
O1087 U1086 2.454 . S
O1087 C1089 1.353 . S
O1088 U1086 2.458 . S
O1088 C1089 1.286 . S
C1089 U1086 2.984 . S
C1089 O1087 1.353 . S
C1089 O1088 1.286 . S
C1089 C1091 1.363 . S
C1090 C1080 1.465 . S
C1090 U1086 2.847 . S
C1090 O1104 1.249 . S
C1090 O1105 1.202 . S
C1091 C1089 1.363 . S
C1091 C1093 1.408 . S
C1091 C1096 1.342 . S
C1092 C1093 1.310 . S
C1092 C1095 1.461 . S
C1092 H1112 0.932 . S
C1093 C1091 1.408 . S
C1093 C1092 1.310 . S
C1093 H1113 0.930 . S
C1094 C1095 1.474 . S
C1094 C1096 1.285 . S
C1094 H1114 0.929 . S
C1095 C1092 1.461 . S
C1095 C1094 1.474 . S
C1096 C1091 1.342 . S
C1096 C1094 1.285 . S
C1096 H1115 0.930 . S
C1097 C1100 1.424 . S
C1097 C1102 1.245 . S
C1097 C1103 1.428 . S
C1098 C1101 1.260 . S
C1098 C1102 1.477 . S
C1098 H1116 0.932 . S
C1099 C1100 1.384 . S
C1099 C1101 1.479 . S
C1099 H1117 0.929 . S
C1100 C1097 1.424 . S
C1100 C1099 1.384 . S
C1100 H1118 0.928 . S
C1101 C1098 1.260 . S
C1101 C1099 1.479 . S
C1102 C1097 1.245 . S
C1102 C1098 1.477 . S
C1102 H1119 0.932 . S
C1103 U1086 2.882 . S
C1103 C1097 1.428 . S
C1103 O1106 1.301 . S
C1103 O1107 1.282 . S
O1104 U1086 2.441 . S
O1104 C1090 1.249 . S
O1105 U1086 2.420 . S
O1105 C1090 1.202 . S
O1106 U1086 2.455 . S
O1106 C1103 1.301 . S
O1107 U1086 2.449 . S
O1107 C1103 1.282 . S
H1108 C1081 0.931 . S
H1109 C1083 0.929 . S
H1110 C1084 0.930 . S
H1111 C1085 0.931 . S
H1112 C1092 0.932 . S
H1113 C1093 0.930 . S
H1114 C1094 0.929 . S
H1115 C1096 0.930 . S
H1116 C1098 0.932 . S
H1117 C1099 0.929 . S
H1118 C1100 0.928 . S
H1119 C1102 0.932 . S
C1120 C1121 1.264 . S
C1120 C1125 1.479 . S
C1120 C1130 1.465 . S
C1121 C1120 1.264 . S
C1121 C1123 1.339 . S
C1121 H1148 0.931 . S
C1122 C1123 1.395 . S
C1122 C1124 1.320 . S
C1123 C1121 1.339 . S
C1123 C1122 1.395 . S
C1123 H1149 0.929 . S
C1124 C1122 1.320 . S
C1124 C1125 1.405 . S
C1124 H1150 0.930 . S
C1125 C1120 1.479 . S
C1125 C1124 1.405 . S
C1125 H1151 0.931 . S
U1126 O1127 2.454 . S
U1126 O1128 2.458 . S
U1126 C1129 2.984 . S
U1126 C1130 2.847 . S
U1126 C1143 2.882 . S
U1126 O1144 2.441 . S
U1126 O1145 2.420 . S
U1126 O1146 2.455 . S
U1126 O1147 2.449 . S
O1127 U1126 2.454 . S
O1127 C1129 1.353 . S
O1128 U1126 2.458 . S
O1128 C1129 1.286 . S
C1129 U1126 2.984 . S
C1129 O1127 1.353 . S
C1129 O1128 1.286 . S
C1129 C1131 1.363 . S
C1130 C1120 1.465 . S
C1130 U1126 2.847 . S
C1130 O1144 1.249 . S
C1130 O1145 1.202 . S
C1131 C1129 1.363 . S
C1131 C1133 1.408 . S
C1131 C1136 1.342 . S
C1132 C1133 1.310 . S
C1132 C1135 1.461 . S
C1132 H1152 0.932 . S
C1133 C1131 1.408 . S
C1133 C1132 1.310 . S
C1133 H1153 0.930 . S
C1134 C1135 1.474 . S
C1134 C1136 1.285 . S
C1134 H1154 0.929 . S
C1135 C1132 1.461 . S
C1135 C1134 1.474 . S
C1136 C1131 1.342 . S
C1136 C1134 1.285 . S
C1136 H1155 0.930 . S
C1137 C1140 1.424 . S
C1137 C1142 1.245 . S
C1137 C1143 1.428 . S
C1138 C1141 1.260 . S
C1138 C1142 1.477 . S
C1138 H1156 0.932 . S
C1139 C1140 1.384 . S
C1139 C1141 1.479 . S
C1139 H1157 0.929 . S
C1140 C1137 1.424 . S
C1140 C1139 1.384 . S
C1140 H1158 0.928 . S
C1141 C1138 1.260 . S
C1141 C1139 1.479 . S
C1142 C1137 1.245 . S
C1142 C1138 1.477 . S
C1142 H1159 0.932 . S
C1143 U1126 2.882 . S
C1143 C1137 1.428 . S
C1143 O1146 1.301 . S
C1143 O1147 1.282 . S
O1144 U1126 2.441 . S
O1144 C1130 1.249 . S
O1145 U1126 2.420 . S
O1145 C1130 1.202 . S
O1146 U1126 2.455 . S
O1146 C1143 1.301 . S
O1147 U1126 2.449 . S
O1147 C1143 1.282 . S
H1148 C1121 0.931 . S
H1149 C1123 0.929 . S
H1150 C1124 0.930 . S
H1151 C1125 0.931 . S
H1152 C1132 0.932 . S
H1153 C1133 0.930 . S
H1154 C1134 0.929 . S
H1155 C1136 0.930 . S
H1156 C1138 0.932 . S
H1157 C1139 0.929 . S
H1158 C1140 0.928 . S
H1159 C1142 0.932 . S
C1160 C1161 1.264 . S
C1160 C1165 1.479 . S
C1160 C1170 1.465 . S
C1161 C1160 1.264 . S
C1161 C1163 1.339 . S
C1161 H1188 0.931 . S
C1162 C1163 1.395 . S
C1162 C1164 1.320 . S
C1163 C1161 1.339 . S
C1163 C1162 1.395 . S
C1163 H1189 0.929 . S
C1164 C1162 1.320 . S
C1164 C1165 1.405 . S
C1164 H1190 0.930 . S
C1165 C1160 1.479 . S
C1165 C1164 1.405 . S
C1165 H1191 0.931 . S
U1166 O1167 2.454 . S
U1166 O1168 2.458 . S
U1166 C1169 2.984 . S
U1166 C1170 2.847 . S
U1166 C1183 2.882 . S
U1166 O1184 2.441 . S
U1166 O1185 2.420 . S
U1166 O1186 2.455 . S
U1166 O1187 2.449 . S
O1167 U1166 2.454 . S
O1167 C1169 1.353 . S
O1168 U1166 2.458 . S
O1168 C1169 1.286 . S
C1169 U1166 2.984 . S
C1169 O1167 1.353 . S
C1169 O1168 1.286 . S
C1169 C1171 1.363 . S
C1170 C1160 1.465 . S
C1170 U1166 2.847 . S
C1170 O1184 1.249 . S
C1170 O1185 1.202 . S
C1171 C1169 1.363 . S
C1171 C1173 1.408 . S
C1171 C1176 1.342 . S
C1172 C1173 1.310 . S
C1172 C1175 1.461 . S
C1172 H1192 0.932 . S
C1173 C1171 1.408 . S
C1173 C1172 1.310 . S
C1173 H1193 0.930 . S
C1174 C1175 1.474 . S
C1174 C1176 1.285 . S
C1174 H1194 0.929 . S
C1175 C1172 1.461 . S
C1175 C1174 1.474 . S
C1176 C1171 1.342 . S
C1176 C1174 1.285 . S
C1176 H1195 0.930 . S
C1177 C1180 1.424 . S
C1177 C1182 1.245 . S
C1177 C1183 1.428 . S
C1178 C1181 1.260 . S
C1178 C1182 1.477 . S
C1178 H1196 0.932 . S
C1179 C1180 1.384 . S
C1179 C1181 1.479 . S
C1179 H1197 0.929 . S
C1180 C1177 1.424 . S
C1180 C1179 1.384 . S
C1180 H1198 0.928 . S
C1181 C1178 1.260 . S
C1181 C1179 1.479 . S
C1182 C1177 1.245 . S
C1182 C1178 1.477 . S
C1182 H1199 0.932 . S
C1183 U1166 2.882 . S
C1183 C1177 1.428 . S
C1183 O1186 1.301 . S
C1183 O1187 1.282 . S
O1184 U1166 2.441 . S
O1184 C1170 1.249 . S
O1185 U1166 2.420 . S
O1185 C1170 1.202 . S
O1186 U1166 2.455 . S
O1186 C1183 1.301 . S
O1187 U1166 2.449 . S
O1187 C1183 1.282 . S
H1188 C1161 0.931 . S
H1189 C1163 0.929 . S
H1190 C1164 0.930 . S
H1191 C1165 0.931 . S
H1192 C1172 0.932 . S
H1193 C1173 0.930 . S
H1194 C1174 0.929 . S
H1195 C1176 0.930 . S
H1196 C1178 0.932 . S
H1197 C1179 0.929 . S
H1198 C1180 0.928 . S
H1199 C1182 0.932 . S
C1200 C1201 1.264 . S
C1200 C1205 1.479 . S
C1200 C1210 1.465 . S
C1201 C1200 1.264 . S
C1201 C1203 1.339 . S
C1201 H1228 0.931 . S
C1202 C1203 1.395 . S
C1202 C1204 1.320 . S
C1203 C1201 1.339 . S
C1203 C1202 1.395 . S
C1203 H1229 0.929 . S
C1204 C1202 1.320 . S
C1204 C1205 1.405 . S
C1204 H1230 0.930 . S
C1205 C1200 1.479 . S
C1205 C1204 1.405 . S
C1205 H1231 0.931 . S
U1206 O1207 2.454 . S
U1206 O1208 2.458 . S
U1206 C1209 2.984 . S
U1206 C1210 2.847 . S
U1206 C1223 2.882 . S
U1206 O1224 2.441 . S
U1206 O1225 2.420 . S
U1206 O1226 2.455 . S
U1206 O1227 2.449 . S
O1207 U1206 2.454 . S
O1207 C1209 1.353 . S
O1208 U1206 2.458 . S
O1208 C1209 1.286 . S
C1209 U1206 2.984 . S
C1209 O1207 1.353 . S
C1209 O1208 1.286 . S
C1209 C1211 1.363 . S
C1210 C1200 1.465 . S
C1210 U1206 2.847 . S
C1210 O1224 1.249 . S
C1210 O1225 1.202 . S
C1211 C1209 1.363 . S
C1211 C1213 1.408 . S
C1211 C1216 1.342 . S
C1212 C1213 1.310 . S
C1212 C1215 1.461 . S
C1212 H1232 0.932 . S
C1213 C1211 1.408 . S
C1213 C1212 1.310 . S
C1213 H1233 0.930 . S
C1214 C1215 1.474 . S
C1214 C1216 1.285 . S
C1214 H1234 0.929 . S
C1215 C1212 1.461 . S
C1215 C1214 1.474 . S
C1216 C1211 1.342 . S
C1216 C1214 1.285 . S
C1216 H1235 0.930 . S
C1217 C1220 1.424 . S
C1217 C1222 1.245 . S
C1217 C1223 1.428 . S
C1218 C1221 1.260 . S
C1218 C1222 1.477 . S
C1218 H1236 0.932 . S
C1219 C1220 1.384 . S
C1219 C1221 1.479 . S
C1219 H1237 0.929 . S
C1220 C1217 1.424 . S
C1220 C1219 1.384 . S
C1220 H1238 0.928 . S
C1221 C1218 1.260 . S
C1221 C1219 1.479 . S
C1222 C1217 1.245 . S
C1222 C1218 1.477 . S
C1222 H1239 0.932 . S
C1223 U1206 2.882 . S
C1223 C1217 1.428 . S
C1223 O1226 1.301 . S
C1223 O1227 1.282 . S
O1224 U1206 2.441 . S
O1224 C1210 1.249 . S
O1225 U1206 2.420 . S
O1225 C1210 1.202 . S
O1226 U1206 2.455 . S
O1226 C1223 1.301 . S
O1227 U1206 2.449 . S
O1227 C1223 1.282 . S
H1228 C1201 0.931 . S
H1229 C1203 0.929 . S
H1230 C1204 0.930 . S
H1231 C1205 0.931 . S
H1232 C1212 0.932 . S
H1233 C1213 0.930 . S
H1234 C1214 0.929 . S
H1235 C1216 0.930 . S
H1236 C1218 0.932 . S
H1237 C1219 0.929 . S
H1238 C1220 0.928 . S
H1239 C1222 0.932 . S
C1240 C1241 1.264 . S
C1240 C1245 1.479 . S
C1240 C1250 1.465 . S
C1241 C1240 1.264 . S
C1241 C1243 1.339 . S
C1241 H1268 0.931 . S
C1242 C1243 1.395 . S
C1242 C1244 1.320 . S
C1243 C1241 1.339 . S
C1243 C1242 1.395 . S
C1243 H1269 0.929 . S
C1244 C1242 1.320 . S
C1244 C1245 1.405 . S
C1244 H1270 0.930 . S
C1245 C1240 1.479 . S
C1245 C1244 1.405 . S
C1245 H1271 0.931 . S
U1246 O1247 2.454 . S
U1246 O1248 2.458 . S
U1246 C1249 2.984 . S
U1246 C1250 2.847 . S
U1246 C1263 2.882 . S
U1246 O1264 2.441 . S
U1246 O1265 2.420 . S
U1246 O1266 2.455 . S
U1246 O1267 2.449 . S
O1247 U1246 2.454 . S
O1247 C1249 1.353 . S
O1248 U1246 2.458 . S
O1248 C1249 1.286 . S
C1249 U1246 2.984 . S
C1249 O1247 1.353 . S
C1249 O1248 1.286 . S
C1249 C1251 1.363 . S
C1250 C1240 1.465 . S
C1250 U1246 2.847 . S
C1250 O1264 1.249 . S
C1250 O1265 1.202 . S
C1251 C1249 1.363 . S
C1251 C1253 1.408 . S
C1251 C1256 1.342 . S
C1252 C1253 1.310 . S
C1252 C1255 1.461 . S
C1252 H1272 0.932 . S
C1253 C1251 1.408 . S
C1253 C1252 1.310 . S
C1253 H1273 0.930 . S
C1254 C1255 1.474 . S
C1254 C1256 1.285 . S
C1254 H1274 0.929 . S
C1255 C1252 1.461 . S
C1255 C1254 1.474 . S
C1256 C1251 1.342 . S
C1256 C1254 1.285 . S
C1256 H1275 0.930 . S
C1257 C1260 1.424 . S
C1257 C1262 1.245 . S
C1257 C1263 1.428 . S
C1258 C1261 1.260 . S
C1258 C1262 1.477 . S
C1258 H1276 0.932 . S
C1259 C1260 1.384 . S
C1259 C1261 1.479 . S
C1259 H1277 0.929 . S
C1260 C1257 1.424 . S
C1260 C1259 1.384 . S
C1260 H1278 0.928 . S
C1261 C1258 1.260 . S
C1261 C1259 1.479 . S
C1262 C1257 1.245 . S
C1262 C1258 1.477 . S
C1262 H1279 0.932 . S
C1263 U1246 2.882 . S
C1263 C1257 1.428 . S
C1263 O1266 1.301 . S
C1263 O1267 1.282 . S
O1264 U1246 2.441 . S
O1264 C1250 1.249 . S
O1265 U1246 2.420 . S
O1265 C1250 1.202 . S
O1266 U1246 2.455 . S
O1266 C1263 1.301 . S
O1267 U1246 2.449 . S
O1267 C1263 1.282 . S
H1268 C1241 0.931 . S
H1269 C1243 0.929 . S
H1270 C1244 0.930 . S
H1271 C1245 0.931 . S
H1272 C1252 0.932 . S
H1273 C1253 0.930 . S
H1274 C1254 0.929 . S
H1275 C1256 0.930 . S
H1276 C1258 0.932 . S
H1277 C1259 0.929 . S
H1278 C1260 0.928 . S
H1279 C1262 0.932 . S
C1280 C1281 1.264 . S
C1280 C1285 1.479 . S
C1280 C1290 1.465 . S
C1281 C1280 1.264 . S
C1281 C1283 1.339 . S
C1281 H1308 0.931 . S
C1282 C1283 1.395 . S
C1282 C1284 1.320 . S
C1283 C1281 1.339 . S
C1283 C1282 1.395 . S
C1283 H1309 0.929 . S
C1284 C1282 1.320 . S
C1284 C1285 1.405 . S
C1284 H1310 0.930 . S
C1285 C1280 1.479 . S
C1285 C1284 1.405 . S
C1285 H1311 0.931 . S
U1286 O1287 2.454 . S
U1286 O1288 2.458 . S
U1286 C1289 2.984 . S
U1286 C1290 2.847 . S
U1286 C1303 2.882 . S
U1286 O1304 2.441 . S
U1286 O1305 2.420 . S
U1286 O1306 2.455 . S
U1286 O1307 2.449 . S
O1287 U1286 2.454 . S
O1287 C1289 1.353 . S
O1288 U1286 2.458 . S
O1288 C1289 1.286 . S
C1289 U1286 2.984 . S
C1289 O1287 1.353 . S
C1289 O1288 1.286 . S
C1289 C1291 1.363 . S
C1290 C1280 1.465 . S
C1290 U1286 2.847 . S
C1290 O1304 1.249 . S
C1290 O1305 1.202 . S
C1291 C1289 1.363 . S
C1291 C1293 1.408 . S
C1291 C1296 1.342 . S
C1292 C1293 1.310 . S
C1292 C1295 1.461 . S
C1292 H1312 0.932 . S
C1293 C1291 1.408 . S
C1293 C1292 1.310 . S
C1293 H1313 0.930 . S
C1294 C1295 1.474 . S
C1294 C1296 1.285 . S
C1294 H1314 0.929 . S
C1295 C1292 1.461 . S
C1295 C1294 1.474 . S
C1296 C1291 1.342 . S
C1296 C1294 1.285 . S
C1296 H1315 0.930 . S
C1297 C1300 1.424 . S
C1297 C1302 1.245 . S
C1297 C1303 1.428 . S
C1298 C1301 1.260 . S
C1298 C1302 1.477 . S
C1298 H1316 0.932 . S
C1299 C1300 1.384 . S
C1299 C1301 1.479 . S
C1299 H1317 0.929 . S
C1300 C1297 1.424 . S
C1300 C1299 1.384 . S
C1300 H1318 0.928 . S
C1301 C1298 1.260 . S
C1301 C1299 1.479 . S
C1302 C1297 1.245 . S
C1302 C1298 1.477 . S
C1302 H1319 0.932 . S
C1303 U1286 2.882 . S
C1303 C1297 1.428 . S
C1303 O1306 1.301 . S
C1303 O1307 1.282 . S
O1304 U1286 2.441 . S
O1304 C1290 1.249 . S
O1305 U1286 2.420 . S
O1305 C1290 1.202 . S
O1306 U1286 2.455 . S
O1306 C1303 1.301 . S
O1307 U1286 2.449 . S
O1307 C1303 1.282 . S
H1308 C1281 0.931 . S
H1309 C1283 0.929 . S
H1310 C1284 0.930 . S
H1311 C1285 0.931 . S
H1312 C1292 0.932 . S
H1313 C1293 0.930 . S
H1314 C1294 0.929 . S
H1315 C1296 0.930 . S
H1316 C1298 0.932 . S
H1317 C1299 0.929 . S
H1318 C1300 0.928 . S
H1319 C1302 0.932 . S
C1320 C1321 1.264 . S
C1320 C1325 1.479 . S
C1320 C1330 1.465 . S
C1321 C1320 1.264 . S
C1321 C1323 1.339 . S
C1321 H1348 0.931 . S
C1322 C1323 1.395 . S
C1322 C1324 1.320 . S
C1323 C1321 1.339 . S
C1323 C1322 1.395 . S
C1323 H1349 0.929 . S
C1324 C1322 1.320 . S
C1324 C1325 1.405 . S
C1324 H1350 0.930 . S
C1325 C1320 1.479 . S
C1325 C1324 1.405 . S
C1325 H1351 0.931 . S
U1326 O1327 2.454 . S
U1326 O1328 2.458 . S
U1326 C1329 2.984 . S
U1326 C1330 2.847 . S
U1326 C1343 2.882 . S
U1326 O1344 2.441 . S
U1326 O1345 2.420 . S
U1326 O1346 2.455 . S
U1326 O1347 2.449 . S
O1327 U1326 2.454 . S
O1327 C1329 1.353 . S
O1328 U1326 2.458 . S
O1328 C1329 1.286 . S
C1329 U1326 2.984 . S
C1329 O1327 1.353 . S
C1329 O1328 1.286 . S
C1329 C1331 1.363 . S
C1330 C1320 1.465 . S
C1330 U1326 2.847 . S
C1330 O1344 1.249 . S
C1330 O1345 1.202 . S
C1331 C1329 1.363 . S
C1331 C1333 1.408 . S
C1331 C1336 1.342 . S
C1332 C1333 1.310 . S
C1332 C1335 1.461 . S
C1332 H1352 0.932 . S
C1333 C1331 1.408 . S
C1333 C1332 1.310 . S
C1333 H1353 0.930 . S
C1334 C1335 1.474 . S
C1334 C1336 1.285 . S
C1334 H1354 0.929 . S
C1335 C1332 1.461 . S
C1335 C1334 1.474 . S
C1336 C1331 1.342 . S
C1336 C1334 1.285 . S
C1336 H1355 0.930 . S
C1337 C1340 1.424 . S
C1337 C1342 1.245 . S
C1337 C1343 1.428 . S
C1338 C1341 1.260 . S
C1338 C1342 1.477 . S
C1338 H1356 0.932 . S
C1339 C1340 1.384 . S
C1339 C1341 1.479 . S
C1339 H1357 0.929 . S
C1340 C1337 1.424 . S
C1340 C1339 1.384 . S
C1340 H1358 0.928 . S
C1341 C1338 1.260 . S
C1341 C1339 1.479 . S
C1342 C1337 1.245 . S
C1342 C1338 1.477 . S
C1342 H1359 0.932 . S
C1343 U1326 2.882 . S
C1343 C1337 1.428 . S
C1343 O1346 1.301 . S
C1343 O1347 1.282 . S
O1344 U1326 2.441 . S
O1344 C1330 1.249 . S
O1345 U1326 2.420 . S
O1345 C1330 1.202 . S
O1346 U1326 2.455 . S
O1346 C1343 1.301 . S
O1347 U1326 2.449 . S
O1347 C1343 1.282 . S
H1348 C1321 0.931 . S
H1349 C1323 0.929 . S
H1350 C1324 0.930 . S
H1351 C1325 0.931 . S
H1352 C1332 0.932 . S
H1353 C1333 0.930 . S
H1354 C1334 0.929 . S
H1355 C1336 0.930 . S
H1356 C1338 0.932 . S
H1357 C1339 0.929 . S
H1358 C1340 0.928 . S
H1359 C1342 0.932 . S
C1360 C1361 1.264 . S
C1360 C1365 1.479 . S
C1360 C1370 1.465 . S
C1361 C1360 1.264 . S
C1361 C1363 1.339 . S
C1361 H1388 0.931 . S
C1362 C1363 1.395 . S
C1362 C1364 1.320 . S
C1363 C1361 1.339 . S
C1363 C1362 1.395 . S
C1363 H1389 0.929 . S
C1364 C1362 1.320 . S
C1364 C1365 1.405 . S
C1364 H1390 0.930 . S
C1365 C1360 1.479 . S
C1365 C1364 1.405 . S
C1365 H1391 0.931 . S
U1366 O1367 2.454 . S
U1366 O1368 2.458 . S
U1366 C1369 2.984 . S
U1366 C1370 2.847 . S
U1366 C1383 2.882 . S
U1366 O1384 2.441 . S
U1366 O1385 2.420 . S
U1366 O1386 2.455 . S
U1366 O1387 2.449 . S
O1367 U1366 2.454 . S
O1367 C1369 1.353 . S
O1368 U1366 2.458 . S
O1368 C1369 1.286 . S
C1369 U1366 2.984 . S
C1369 O1367 1.353 . S
C1369 O1368 1.286 . S
C1369 C1371 1.363 . S
C1370 C1360 1.465 . S
C1370 U1366 2.847 . S
C1370 O1384 1.249 . S
C1370 O1385 1.202 . S
C1371 C1369 1.363 . S
C1371 C1373 1.408 . S
C1371 C1376 1.342 . S
C1372 C1373 1.310 . S
C1372 C1375 1.461 . S
C1372 H1392 0.932 . S
C1373 C1371 1.408 . S
C1373 C1372 1.310 . S
C1373 H1393 0.930 . S
C1374 C1375 1.474 . S
C1374 C1376 1.285 . S
C1374 H1394 0.929 . S
C1375 C1372 1.461 . S
C1375 C1374 1.474 . S
C1376 C1371 1.342 . S
C1376 C1374 1.285 . S
C1376 H1395 0.930 . S
C1377 C1380 1.424 . S
C1377 C1382 1.245 . S
C1377 C1383 1.428 . S
C1378 C1381 1.260 . S
C1378 C1382 1.477 . S
C1378 H1396 0.932 . S
C1379 C1380 1.384 . S
C1379 C1381 1.479 . S
C1379 H1397 0.929 . S
C1380 C1377 1.424 . S
C1380 C1379 1.384 . S
C1380 H1398 0.928 . S
C1381 C1378 1.260 . S
C1381 C1379 1.479 . S
C1382 C1377 1.245 . S
C1382 C1378 1.477 . S
C1382 H1399 0.932 . S
C1383 U1366 2.882 . S
C1383 C1377 1.428 . S
C1383 O1386 1.301 . S
C1383 O1387 1.282 . S
O1384 U1366 2.441 . S
O1384 C1370 1.249 . S
O1385 U1366 2.420 . S
O1385 C1370 1.202 . S
O1386 U1366 2.455 . S
O1386 C1383 1.301 . S
O1387 U1366 2.449 . S
O1387 C1383 1.282 . S
H1388 C1361 0.931 . S
H1389 C1363 0.929 . S
H1390 C1364 0.930 . S
H1391 C1365 0.931 . S
H1392 C1372 0.932 . S
H1393 C1373 0.930 . S
H1394 C1374 0.929 . S
H1395 C1376 0.930 . S
H1396 C1378 0.932 . S
H1397 C1379 0.929 . S
H1398 C1380 0.928 . S
H1399 C1382 0.932 . S
C1400 C1401 1.264 . S
C1400 C1405 1.479 . S
C1400 C1410 1.465 . S
C1401 C1400 1.264 . S
C1401 C1403 1.339 . S
C1401 H1428 0.931 . S
C1402 C1403 1.395 . S
C1402 C1404 1.320 . S
C1403 C1401 1.339 . S
C1403 C1402 1.395 . S
C1403 H1429 0.929 . S
C1404 C1402 1.320 . S
C1404 C1405 1.405 . S
C1404 H1430 0.930 . S
C1405 C1400 1.479 . S
C1405 C1404 1.405 . S
C1405 H1431 0.931 . S
U1406 O1407 2.454 . S
U1406 O1408 2.458 . S
U1406 C1409 2.984 . S
U1406 C1410 2.847 . S
U1406 C1423 2.882 . S
U1406 O1424 2.441 . S
U1406 O1425 2.420 . S
U1406 O1426 2.455 . S
U1406 O1427 2.449 . S
O1407 U1406 2.454 . S
O1407 C1409 1.353 . S
O1408 U1406 2.458 . S
O1408 C1409 1.286 . S
C1409 U1406 2.984 . S
C1409 O1407 1.353 . S
C1409 O1408 1.286 . S
C1409 C1411 1.363 . S
C1410 C1400 1.465 . S
C1410 U1406 2.847 . S
C1410 O1424 1.249 . S
C1410 O1425 1.202 . S
C1411 C1409 1.363 . S
C1411 C1413 1.408 . S
C1411 C1416 1.342 . S
C1412 C1413 1.310 . S
C1412 C1415 1.461 . S
C1412 H1432 0.932 . S
C1413 C1411 1.408 . S
C1413 C1412 1.310 . S
C1413 H1433 0.930 . S
C1414 C1415 1.474 . S
C1414 C1416 1.285 . S
C1414 H1434 0.929 . S
C1415 C1412 1.461 . S
C1415 C1414 1.474 . S
C1416 C1411 1.342 . S
C1416 C1414 1.285 . S
C1416 H1435 0.930 . S
C1417 C1420 1.424 . S
C1417 C1422 1.245 . S
C1417 C1423 1.428 . S
C1418 C1421 1.260 . S
C1418 C1422 1.477 . S
C1418 H1436 0.932 . S
C1419 C1420 1.384 . S
C1419 C1421 1.479 . S
C1419 H1437 0.929 . S
C1420 C1417 1.424 . S
C1420 C1419 1.384 . S
C1420 H1438 0.928 . S
C1421 C1418 1.260 . S
C1421 C1419 1.479 . S
C1422 C1417 1.245 . S
C1422 C1418 1.477 . S
C1422 H1439 0.932 . S
C1423 U1406 2.882 . S
C1423 C1417 1.428 . S
C1423 O1426 1.301 . S
C1423 O1427 1.282 . S
O1424 U1406 2.441 . S
O1424 C1410 1.249 . S
O1425 U1406 2.420 . S
O1425 C1410 1.202 . S
O1426 U1406 2.455 . S
O1426 C1423 1.301 . S
O1427 U1406 2.449 . S
O1427 C1423 1.282 . S
H1428 C1401 0.931 . S
H1429 C1403 0.929 . S
H1430 C1404 0.930 . S
H1431 C1405 0.931 . S
H1432 C1412 0.932 . S
H1433 C1413 0.930 . S
H1434 C1414 0.929 . S
H1435 C1416 0.930 . S
H1436 C1418 0.932 . S
H1437 C1419 0.929 . S
H1438 C1420 0.928 . S
H1439 C1422 0.932 . S
C1440 C1441 1.264 . S
C1440 C1445 1.479 . S
C1440 C1450 1.465 . S
C1441 C1440 1.264 . S
C1441 C1443 1.339 . S
C1441 H1468 0.931 . S
C1442 C1443 1.395 . S
C1442 C1444 1.320 . S
C1443 C1441 1.339 . S
C1443 C1442 1.395 . S
C1443 H1469 0.929 . S
C1444 C1442 1.320 . S
C1444 C1445 1.405 . S
C1444 H1470 0.930 . S
C1445 C1440 1.479 . S
C1445 C1444 1.405 . S
C1445 H1471 0.931 . S
U1446 O1447 2.454 . S
U1446 O1448 2.458 . S
U1446 C1449 2.984 . S
U1446 C1450 2.847 . S
U1446 C1463 2.882 . S
U1446 O1464 2.441 . S
U1446 O1465 2.420 . S
U1446 O1466 2.455 . S
U1446 O1467 2.449 . S
O1447 U1446 2.454 . S
O1447 C1449 1.353 . S
O1448 U1446 2.458 . S
O1448 C1449 1.286 . S
C1449 U1446 2.984 . S
C1449 O1447 1.353 . S
C1449 O1448 1.286 . S
C1449 C1451 1.363 . S
C1450 C1440 1.465 . S
C1450 U1446 2.847 . S
C1450 O1464 1.249 . S
C1450 O1465 1.202 . S
C1451 C1449 1.363 . S
C1451 C1453 1.408 . S
C1451 C1456 1.342 . S
C1452 C1453 1.310 . S
C1452 C1455 1.461 . S
C1452 H1472 0.932 . S
C1453 C1451 1.408 . S
C1453 C1452 1.310 . S
C1453 H1473 0.930 . S
C1454 C1455 1.474 . S
C1454 C1456 1.285 . S
C1454 H1474 0.929 . S
C1455 C1452 1.461 . S
C1455 C1454 1.474 . S
C1456 C1451 1.342 . S
C1456 C1454 1.285 . S
C1456 H1475 0.930 . S
C1457 C1460 1.424 . S
C1457 C1462 1.245 . S
C1457 C1463 1.428 . S
C1458 C1461 1.260 . S
C1458 C1462 1.477 . S
C1458 H1476 0.932 . S
C1459 C1460 1.384 . S
C1459 C1461 1.479 . S
C1459 H1477 0.929 . S
C1460 C1457 1.424 . S
C1460 C1459 1.384 . S
C1460 H1478 0.928 . S
C1461 C1458 1.260 . S
C1461 C1459 1.479 . S
C1462 C1457 1.245 . S
C1462 C1458 1.477 . S
C1462 H1479 0.932 . S
C1463 U1446 2.882 . S
C1463 C1457 1.428 . S
C1463 O1466 1.301 . S
C1463 O1467 1.282 . S
O1464 U1446 2.441 . S
O1464 C1450 1.249 . S
O1465 U1446 2.420 . S
O1465 C1450 1.202 . S
O1466 U1446 2.455 . S
O1466 C1463 1.301 . S
O1467 U1446 2.449 . S
O1467 C1463 1.282 . S
H1468 C1441 0.931 . S
H1469 C1443 0.929 . S
H1470 C1444 0.930 . S
H1471 C1445 0.931 . S
H1472 C1452 0.932 . S
H1473 C1453 0.930 . S
H1474 C1454 0.929 . S
H1475 C1456 0.930 . S
H1476 C1458 0.932 . S
H1477 C1459 0.929 . S
H1478 C1460 0.928 . S
H1479 C1462 0.932 . S
C1480 C1481 1.264 . S
C1480 C1485 1.479 . S
C1480 C1490 1.465 . S
C1481 C1480 1.264 . S
C1481 C1483 1.339 . S
C1481 H1508 0.931 . S
C1482 C1483 1.395 . S
C1482 C1484 1.320 . S
C1483 C1481 1.339 . S
C1483 C1482 1.395 . S
C1483 H1509 0.929 . S
C1484 C1482 1.320 . S
C1484 C1485 1.405 . S
C1484 H1510 0.930 . S
C1485 C1480 1.479 . S
C1485 C1484 1.405 . S
C1485 H1511 0.931 . S
U1486 O1487 2.454 . S
U1486 O1488 2.458 . S
U1486 C1489 2.984 . S
U1486 C1490 2.847 . S
U1486 C1503 2.882 . S
U1486 O1504 2.441 . S
U1486 O1505 2.420 . S
U1486 O1506 2.455 . S
U1486 O1507 2.449 . S
O1487 U1486 2.454 . S
O1487 C1489 1.353 . S
O1488 U1486 2.458 . S
O1488 C1489 1.286 . S
C1489 U1486 2.984 . S
C1489 O1487 1.353 . S
C1489 O1488 1.286 . S
C1489 C1491 1.363 . S
C1490 C1480 1.465 . S
C1490 U1486 2.847 . S
C1490 O1504 1.249 . S
C1490 O1505 1.202 . S
C1491 C1489 1.363 . S
C1491 C1493 1.408 . S
C1491 C1496 1.342 . S
C1492 C1493 1.310 . S
C1492 C1495 1.461 . S
C1492 H1512 0.932 . S
C1493 C1491 1.408 . S
C1493 C1492 1.310 . S
C1493 H1513 0.930 . S
C1494 C1495 1.474 . S
C1494 C1496 1.285 . S
C1494 H1514 0.929 . S
C1495 C1492 1.461 . S
C1495 C1494 1.474 . S
C1496 C1491 1.342 . S
C1496 C1494 1.285 . S
C1496 H1515 0.930 . S
C1497 C1500 1.424 . S
C1497 C1502 1.245 . S
C1497 C1503 1.428 . S
C1498 C1501 1.260 . S
C1498 C1502 1.477 . S
C1498 H1516 0.932 . S
C1499 C1500 1.384 . S
C1499 C1501 1.479 . S
C1499 H1517 0.929 . S
C1500 C1497 1.424 . S
C1500 C1499 1.384 . S
C1500 H1518 0.928 . S
C1501 C1498 1.260 . S
C1501 C1499 1.479 . S
C1502 C1497 1.245 . S
C1502 C1498 1.477 . S
C1502 H1519 0.932 . S
C1503 U1486 2.882 . S
C1503 C1497 1.428 . S
C1503 O1506 1.301 . S
C1503 O1507 1.282 . S
O1504 U1486 2.441 . S
O1504 C1490 1.249 . S
O1505 U1486 2.420 . S
O1505 C1490 1.202 . S
O1506 U1486 2.455 . S
O1506 C1503 1.301 . S
O1507 U1486 2.449 . S
O1507 C1503 1.282 . S
H1508 C1481 0.931 . S
H1509 C1483 0.929 . S
H1510 C1484 0.930 . S
H1511 C1485 0.931 . S
H1512 C1492 0.932 . S
H1513 C1493 0.930 . S
H1514 C1494 0.929 . S
H1515 C1496 0.930 . S
H1516 C1498 0.932 . S
H1517 C1499 0.929 . S
H1518 C1500 0.928 . S
H1519 C1502 0.932 . S
C1520 C1521 1.264 . S
C1520 C1525 1.479 . S
C1520 C1530 1.465 . S
C1521 C1520 1.264 . S
C1521 C1523 1.339 . S
C1521 H1548 0.931 . S
C1522 C1523 1.395 . S
C1522 C1524 1.320 . S
C1523 C1521 1.339 . S
C1523 C1522 1.395 . S
C1523 H1549 0.929 . S
C1524 C1522 1.320 . S
C1524 C1525 1.405 . S
C1524 H1550 0.930 . S
C1525 C1520 1.479 . S
C1525 C1524 1.405 . S
C1525 H1551 0.931 . S
U1526 O1527 2.454 . S
U1526 O1528 2.458 . S
U1526 C1529 2.984 . S
U1526 C1530 2.847 . S
U1526 C1543 2.882 . S
U1526 O1544 2.441 . S
U1526 O1545 2.420 . S
U1526 O1546 2.455 . S
U1526 O1547 2.449 . S
O1527 U1526 2.454 . S
O1527 C1529 1.353 . S
O1528 U1526 2.458 . S
O1528 C1529 1.286 . S
C1529 U1526 2.984 . S
C1529 O1527 1.353 . S
C1529 O1528 1.286 . S
C1529 C1531 1.363 . S
C1530 C1520 1.465 . S
C1530 U1526 2.847 . S
C1530 O1544 1.249 . S
C1530 O1545 1.202 . S
C1531 C1529 1.363 . S
C1531 C1533 1.408 . S
C1531 C1536 1.342 . S
C1532 C1533 1.310 . S
C1532 C1535 1.461 . S
C1532 H1552 0.932 . S
C1533 C1531 1.408 . S
C1533 C1532 1.310 . S
C1533 H1553 0.930 . S
C1534 C1535 1.474 . S
C1534 C1536 1.285 . S
C1534 H1554 0.929 . S
C1535 C1532 1.461 . S
C1535 C1534 1.474 . S
C1536 C1531 1.342 . S
C1536 C1534 1.285 . S
C1536 H1555 0.930 . S
C1537 C1540 1.424 . S
C1537 C1542 1.245 . S
C1537 C1543 1.428 . S
C1538 C1541 1.260 . S
C1538 C1542 1.477 . S
C1538 H1556 0.932 . S
C1539 C1540 1.384 . S
C1539 C1541 1.479 . S
C1539 H1557 0.929 . S
C1540 C1537 1.424 . S
C1540 C1539 1.384 . S
C1540 H1558 0.928 . S
C1541 C1538 1.260 . S
C1541 C1539 1.479 . S
C1542 C1537 1.245 . S
C1542 C1538 1.477 . S
C1542 H1559 0.932 . S
C1543 U1526 2.882 . S
C1543 C1537 1.428 . S
C1543 O1546 1.301 . S
C1543 O1547 1.282 . S
O1544 U1526 2.441 . S
O1544 C1530 1.249 . S
O1545 U1526 2.420 . S
O1545 C1530 1.202 . S
O1546 U1526 2.455 . S
O1546 C1543 1.301 . S
O1547 U1526 2.449 . S
O1547 C1543 1.282 . S
H1548 C1521 0.931 . S
H1549 C1523 0.929 . S
H1550 C1524 0.930 . S
H1551 C1525 0.931 . S
H1552 C1532 0.932 . S
H1553 C1533 0.930 . S
H1554 C1534 0.929 . S
H1555 C1536 0.930 . S
H1556 C1538 0.932 . S
H1557 C1539 0.929 . S
H1558 C1540 0.928 . S
H1559 C1542 0.932 . S
C1560 C1561 1.264 . S
C1560 C1565 1.479 . S
C1560 C1570 1.465 . S
C1561 C1560 1.264 . S
C1561 C1563 1.339 . S
C1561 H1588 0.931 . S
C1562 C1563 1.395 . S
C1562 C1564 1.320 . S
C1563 C1561 1.339 . S
C1563 C1562 1.395 . S
C1563 H1589 0.929 . S
C1564 C1562 1.320 . S
C1564 C1565 1.405 . S
C1564 H1590 0.930 . S
C1565 C1560 1.479 . S
C1565 C1564 1.405 . S
C1565 H1591 0.931 . S
U1566 O1567 2.454 . S
U1566 O1568 2.458 . S
U1566 C1569 2.984 . S
U1566 C1570 2.847 . S
U1566 C1583 2.882 . S
U1566 O1584 2.441 . S
U1566 O1585 2.420 . S
U1566 O1586 2.455 . S
U1566 O1587 2.449 . S
O1567 U1566 2.454 . S
O1567 C1569 1.353 . S
O1568 U1566 2.458 . S
O1568 C1569 1.286 . S
C1569 U1566 2.984 . S
C1569 O1567 1.353 . S
C1569 O1568 1.286 . S
C1569 C1571 1.363 . S
C1570 C1560 1.465 . S
C1570 U1566 2.847 . S
C1570 O1584 1.249 . S
C1570 O1585 1.202 . S
C1571 C1569 1.363 . S
C1571 C1573 1.408 . S
C1571 C1576 1.342 . S
C1572 C1573 1.310 . S
C1572 C1575 1.461 . S
C1572 H1592 0.932 . S
C1573 C1571 1.408 . S
C1573 C1572 1.310 . S
C1573 H1593 0.930 . S
C1574 C1575 1.474 . S
C1574 C1576 1.285 . S
C1574 H1594 0.929 . S
C1575 C1572 1.461 . S
C1575 C1574 1.474 . S
C1576 C1571 1.342 . S
C1576 C1574 1.285 . S
C1576 H1595 0.930 . S
C1577 C1580 1.424 . S
C1577 C1582 1.245 . S
C1577 C1583 1.428 . S
C1578 C1581 1.260 . S
C1578 C1582 1.477 . S
C1578 H1596 0.932 . S
C1579 C1580 1.384 . S
C1579 C1581 1.479 . S
C1579 H1597 0.929 . S
C1580 C1577 1.424 . S
C1580 C1579 1.384 . S
C1580 H1598 0.928 . S
C1581 C1578 1.260 . S
C1581 C1579 1.479 . S
C1582 C1577 1.245 . S
C1582 C1578 1.477 . S
C1582 H1599 0.932 . S
C1583 U1566 2.882 . S
C1583 C1577 1.428 . S
C1583 O1586 1.301 . S
C1583 O1587 1.282 . S
O1584 U1566 2.441 . S
O1584 C1570 1.249 . S
O1585 U1566 2.420 . S
O1585 C1570 1.202 . S
O1586 U1566 2.455 . S
O1586 C1583 1.301 . S
O1587 U1566 2.449 . S
O1587 C1583 1.282 . S
H1588 C1561 0.931 . S
H1589 C1563 0.929 . S
H1590 C1564 0.930 . S
H1591 C1565 0.931 . S
H1592 C1572 0.932 . S
H1593 C1573 0.930 . S
H1594 C1574 0.929 . S
H1595 C1576 0.930 . S
H1596 C1578 0.932 . S
H1597 C1579 0.929 . S
H1598 C1580 0.928 . S
H1599 C1582 0.932 . S
C1600 C1601 1.264 . S
C1600 C1605 1.479 . S
C1600 C1610 1.465 . S
C1601 C1600 1.264 . S
C1601 C1603 1.339 . S
C1601 H1628 0.931 . S
C1602 C1603 1.395 . S
C1602 C1604 1.320 . S
C1603 C1601 1.339 . S
C1603 C1602 1.395 . S
C1603 H1629 0.929 . S
C1604 C1602 1.320 . S
C1604 C1605 1.405 . S
C1604 H1630 0.930 . S
C1605 C1600 1.479 . S
C1605 C1604 1.405 . S
C1605 H1631 0.931 . S
U1606 O1607 2.454 . S
U1606 O1608 2.458 . S
U1606 C1609 2.984 . S
U1606 C1610 2.847 . S
U1606 C1623 2.882 . S
U1606 O1624 2.441 . S
U1606 O1625 2.420 . S
U1606 O1626 2.455 . S
U1606 O1627 2.449 . S
O1607 U1606 2.454 . S
O1607 C1609 1.353 . S
O1608 U1606 2.458 . S
O1608 C1609 1.286 . S
C1609 U1606 2.984 . S
C1609 O1607 1.353 . S
C1609 O1608 1.286 . S
C1609 C1611 1.363 . S
C1610 C1600 1.465 . S
C1610 U1606 2.847 . S
C1610 O1624 1.249 . S
C1610 O1625 1.202 . S
C1611 C1609 1.363 . S
C1611 C1613 1.408 . S
C1611 C1616 1.342 . S
C1612 C1613 1.310 . S
C1612 C1615 1.461 . S
C1612 H1632 0.932 . S
C1613 C1611 1.408 . S
C1613 C1612 1.310 . S
C1613 H1633 0.930 . S
C1614 C1615 1.474 . S
C1614 C1616 1.285 . S
C1614 H1634 0.929 . S
C1615 C1612 1.461 . S
C1615 C1614 1.474 . S
C1616 C1611 1.342 . S
C1616 C1614 1.285 . S
C1616 H1635 0.930 . S
C1617 C1620 1.424 . S
C1617 C1622 1.245 . S
C1617 C1623 1.428 . S
C1618 C1621 1.260 . S
C1618 C1622 1.477 . S
C1618 H1636 0.932 . S
C1619 C1620 1.384 . S
C1619 C1621 1.479 . S
C1619 H1637 0.929 . S
C1620 C1617 1.424 . S
C1620 C1619 1.384 . S
C1620 H1638 0.928 . S
C1621 C1618 1.260 . S
C1621 C1619 1.479 . S
C1622 C1617 1.245 . S
C1622 C1618 1.477 . S
C1622 H1639 0.932 . S
C1623 U1606 2.882 . S
C1623 C1617 1.428 . S
C1623 O1626 1.301 . S
C1623 O1627 1.282 . S
O1624 U1606 2.441 . S
O1624 C1610 1.249 . S
O1625 U1606 2.420 . S
O1625 C1610 1.202 . S
O1626 U1606 2.455 . S
O1626 C1623 1.301 . S
O1627 U1606 2.449 . S
O1627 C1623 1.282 . S
H1628 C1601 0.931 . S
H1629 C1603 0.929 . S
H1630 C1604 0.930 . S
H1631 C1605 0.931 . S
H1632 C1612 0.932 . S
H1633 C1613 0.930 . S
H1634 C1614 0.929 . S
H1635 C1616 0.930 . S
H1636 C1618 0.932 . S
H1637 C1619 0.929 . S
H1638 C1620 0.928 . S
H1639 C1622 0.932 . S
C1640 C1641 1.264 . S
C1640 C1645 1.479 . S
C1640 C1650 1.465 . S
C1641 C1640 1.264 . S
C1641 C1643 1.339 . S
C1641 H1668 0.931 . S
C1642 C1643 1.395 . S
C1642 C1644 1.320 . S
C1643 C1641 1.339 . S
C1643 C1642 1.395 . S
C1643 H1669 0.929 . S
C1644 C1642 1.320 . S
C1644 C1645 1.405 . S
C1644 H1670 0.930 . S
C1645 C1640 1.479 . S
C1645 C1644 1.405 . S
C1645 H1671 0.931 . S
U1646 O1647 2.454 . S
U1646 O1648 2.458 . S
U1646 C1649 2.984 . S
U1646 C1650 2.847 . S
U1646 C1663 2.882 . S
U1646 O1664 2.441 . S
U1646 O1665 2.420 . S
U1646 O1666 2.455 . S
U1646 O1667 2.449 . S
O1647 U1646 2.454 . S
O1647 C1649 1.353 . S
O1648 U1646 2.458 . S
O1648 C1649 1.286 . S
C1649 U1646 2.984 . S
C1649 O1647 1.353 . S
C1649 O1648 1.286 . S
C1649 C1651 1.363 . S
C1650 C1640 1.465 . S
C1650 U1646 2.847 . S
C1650 O1664 1.249 . S
C1650 O1665 1.202 . S
C1651 C1649 1.363 . S
C1651 C1653 1.408 . S
C1651 C1656 1.342 . S
C1652 C1653 1.310 . S
C1652 C1655 1.461 . S
C1652 H1672 0.932 . S
C1653 C1651 1.408 . S
C1653 C1652 1.310 . S
C1653 H1673 0.930 . S
C1654 C1655 1.474 . S
C1654 C1656 1.285 . S
C1654 H1674 0.929 . S
C1655 C1652 1.461 . S
C1655 C1654 1.474 . S
C1656 C1651 1.342 . S
C1656 C1654 1.285 . S
C1656 H1675 0.930 . S
C1657 C1660 1.424 . S
C1657 C1662 1.245 . S
C1657 C1663 1.428 . S
C1658 C1661 1.260 . S
C1658 C1662 1.477 . S
C1658 H1676 0.932 . S
C1659 C1660 1.384 . S
C1659 C1661 1.479 . S
C1659 H1677 0.929 . S
C1660 C1657 1.424 . S
C1660 C1659 1.384 . S
C1660 H1678 0.928 . S
C1661 C1658 1.260 . S
C1661 C1659 1.479 . S
C1662 C1657 1.245 . S
C1662 C1658 1.477 . S
C1662 H1679 0.932 . S
C1663 U1646 2.882 . S
C1663 C1657 1.428 . S
C1663 O1666 1.301 . S
C1663 O1667 1.282 . S
O1664 U1646 2.441 . S
O1664 C1650 1.249 . S
O1665 U1646 2.420 . S
O1665 C1650 1.202 . S
O1666 U1646 2.455 . S
O1666 C1663 1.301 . S
O1667 U1646 2.449 . S
O1667 C1663 1.282 . S
H1668 C1641 0.931 . S
H1669 C1643 0.929 . S
H1670 C1644 0.930 . S
H1671 C1645 0.931 . S
H1672 C1652 0.932 . S
H1673 C1653 0.930 . S
H1674 C1654 0.929 . S
H1675 C1656 0.930 . S
H1676 C1658 0.932 . S
H1677 C1659 0.929 . S
H1678 C1660 0.928 . S
H1679 C1662 0.932 . S
C1680 C1681 1.264 . S
C1680 C1685 1.479 . S
C1680 C1690 1.465 . S
C1681 C1680 1.264 . S
C1681 C1683 1.339 . S
C1681 H1708 0.931 . S
C1682 C1683 1.395 . S
C1682 C1684 1.320 . S
C1683 C1681 1.339 . S
C1683 C1682 1.395 . S
C1683 H1709 0.929 . S
C1684 C1682 1.320 . S
C1684 C1685 1.405 . S
C1684 H1710 0.930 . S
C1685 C1680 1.479 . S
C1685 C1684 1.405 . S
C1685 H1711 0.931 . S
U1686 O1687 2.454 . S
U1686 O1688 2.458 . S
U1686 C1689 2.984 . S
U1686 C1690 2.847 . S
U1686 C1703 2.882 . S
U1686 O1704 2.441 . S
U1686 O1705 2.420 . S
U1686 O1706 2.455 . S
U1686 O1707 2.449 . S
O1687 U1686 2.454 . S
O1687 C1689 1.353 . S
O1688 U1686 2.458 . S
O1688 C1689 1.286 . S
C1689 U1686 2.984 . S
C1689 O1687 1.353 . S
C1689 O1688 1.286 . S
C1689 C1691 1.363 . S
C1690 C1680 1.465 . S
C1690 U1686 2.847 . S
C1690 O1704 1.249 . S
C1690 O1705 1.202 . S
C1691 C1689 1.363 . S
C1691 C1693 1.408 . S
C1691 C1696 1.342 . S
C1692 C1693 1.310 . S
C1692 C1695 1.461 . S
C1692 H1712 0.932 . S
C1693 C1691 1.408 . S
C1693 C1692 1.310 . S
C1693 H1713 0.930 . S
C1694 C1695 1.474 . S
C1694 C1696 1.285 . S
C1694 H1714 0.929 . S
C1695 C1692 1.461 . S
C1695 C1694 1.474 . S
C1696 C1691 1.342 . S
C1696 C1694 1.285 . S
C1696 H1715 0.930 . S
C1697 C1700 1.424 . S
C1697 C1702 1.245 . S
C1697 C1703 1.428 . S
C1698 C1701 1.260 . S
C1698 C1702 1.477 . S
C1698 H1716 0.932 . S
C1699 C1700 1.384 . S
C1699 C1701 1.479 . S
C1699 H1717 0.929 . S
C1700 C1697 1.424 . S
C1700 C1699 1.384 . S
C1700 H1718 0.928 . S
C1701 C1698 1.260 . S
C1701 C1699 1.479 . S
C1702 C1697 1.245 . S
C1702 C1698 1.477 . S
C1702 H1719 0.932 . S
C1703 U1686 2.882 . S
C1703 C1697 1.428 . S
C1703 O1706 1.301 . S
C1703 O1707 1.282 . S
O1704 U1686 2.441 . S
O1704 C1690 1.249 . S
O1705 U1686 2.420 . S
O1705 C1690 1.202 . S
O1706 U1686 2.455 . S
O1706 C1703 1.301 . S
O1707 U1686 2.449 . S
O1707 C1703 1.282 . S
H1708 C1681 0.931 . S
H1709 C1683 0.929 . S
H1710 C1684 0.930 . S
H1711 C1685 0.931 . S
H1712 C1692 0.932 . S
H1713 C1693 0.930 . S
H1714 C1694 0.929 . S
H1715 C1696 0.930 . S
H1716 C1698 0.932 . S
H1717 C1699 0.929 . S
H1718 C1700 0.928 . S
H1719 C1702 0.932 . S
C1720 C1721 1.264 . S
C1720 C1725 1.479 . S
C1720 C1730 1.465 . S
C1721 C1720 1.264 . S
C1721 C1723 1.339 . S
C1721 H1748 0.931 . S
C1722 C1723 1.395 . S
C1722 C1724 1.320 . S
C1723 C1721 1.339 . S
C1723 C1722 1.395 . S
C1723 H1749 0.929 . S
C1724 C1722 1.320 . S
C1724 C1725 1.405 . S
C1724 H1750 0.930 . S
C1725 C1720 1.479 . S
C1725 C1724 1.405 . S
C1725 H1751 0.931 . S
U1726 O1727 2.454 . S
U1726 O1728 2.458 . S
U1726 C1729 2.984 . S
U1726 C1730 2.847 . S
U1726 C1743 2.882 . S
U1726 O1744 2.441 . S
U1726 O1745 2.420 . S
U1726 O1746 2.455 . S
U1726 O1747 2.449 . S
O1727 U1726 2.454 . S
O1727 C1729 1.353 . S
O1728 U1726 2.458 . S
O1728 C1729 1.286 . S
C1729 U1726 2.984 . S
C1729 O1727 1.353 . S
C1729 O1728 1.286 . S
C1729 C1731 1.363 . S
C1730 C1720 1.465 . S
C1730 U1726 2.847 . S
C1730 O1744 1.249 . S
C1730 O1745 1.202 . S
C1731 C1729 1.363 . S
C1731 C1733 1.408 . S
C1731 C1736 1.342 . S
C1732 C1733 1.310 . S
C1732 C1735 1.461 . S
C1732 H1752 0.932 . S
C1733 C1731 1.408 . S
C1733 C1732 1.310 . S
C1733 H1753 0.930 . S
C1734 C1735 1.474 . S
C1734 C1736 1.285 . S
C1734 H1754 0.929 . S
C1735 C1732 1.461 . S
C1735 C1734 1.474 . S
C1736 C1731 1.342 . S
C1736 C1734 1.285 . S
C1736 H1755 0.930 . S
C1737 C1740 1.424 . S
C1737 C1742 1.245 . S
C1737 C1743 1.428 . S
C1738 C1741 1.260 . S
C1738 C1742 1.477 . S
C1738 H1756 0.932 . S
C1739 C1740 1.384 . S
C1739 C1741 1.479 . S
C1739 H1757 0.929 . S
C1740 C1737 1.424 . S
C1740 C1739 1.384 . S
C1740 H1758 0.928 . S
C1741 C1738 1.260 . S
C1741 C1739 1.479 . S
C1742 C1737 1.245 . S
C1742 C1738 1.477 . S
C1742 H1759 0.932 . S
C1743 U1726 2.882 . S
C1743 C1737 1.428 . S
C1743 O1746 1.301 . S
C1743 O1747 1.282 . S
O1744 U1726 2.441 . S
O1744 C1730 1.249 . S
O1745 U1726 2.420 . S
O1745 C1730 1.202 . S
O1746 U1726 2.455 . S
O1746 C1743 1.301 . S
O1747 U1726 2.449 . S
O1747 C1743 1.282 . S
H1748 C1721 0.931 . S
H1749 C1723 0.929 . S
H1750 C1724 0.930 . S
H1751 C1725 0.931 . S
H1752 C1732 0.932 . S
H1753 C1733 0.930 . S
H1754 C1734 0.929 . S
H1755 C1736 0.930 . S
H1756 C1738 0.932 . S
H1757 C1739 0.929 . S
H1758 C1740 0.928 . S
H1759 C1742 0.932 . S
C1760 C1761 1.264 . S
C1760 C1765 1.479 . S
C1760 C1770 1.465 . S
C1761 C1760 1.264 . S
C1761 C1763 1.339 . S
C1761 H1788 0.931 . S
C1762 C1763 1.395 . S
C1762 C1764 1.320 . S
C1763 C1761 1.339 . S
C1763 C1762 1.395 . S
C1763 H1789 0.929 . S
C1764 C1762 1.320 . S
C1764 C1765 1.405 . S
C1764 H1790 0.930 . S
C1765 C1760 1.479 . S
C1765 C1764 1.405 . S
C1765 H1791 0.931 . S
U1766 O1767 2.454 . S
U1766 O1768 2.458 . S
U1766 C1769 2.984 . S
U1766 C1770 2.847 . S
U1766 C1783 2.882 . S
U1766 O1784 2.441 . S
U1766 O1785 2.420 . S
U1766 O1786 2.455 . S
U1766 O1787 2.449 . S
O1767 U1766 2.454 . S
O1767 C1769 1.353 . S
O1768 U1766 2.458 . S
O1768 C1769 1.286 . S
C1769 U1766 2.984 . S
C1769 O1767 1.353 . S
C1769 O1768 1.286 . S
C1769 C1771 1.363 . S
C1770 C1760 1.465 . S
C1770 U1766 2.847 . S
C1770 O1784 1.249 . S
C1770 O1785 1.202 . S
C1771 C1769 1.363 . S
C1771 C1773 1.408 . S
C1771 C1776 1.342 . S
C1772 C1773 1.310 . S
C1772 C1775 1.461 . S
C1772 H1792 0.932 . S
C1773 C1771 1.408 . S
C1773 C1772 1.310 . S
C1773 H1793 0.930 . S
C1774 C1775 1.474 . S
C1774 C1776 1.285 . S
C1774 H1794 0.929 . S
C1775 C1772 1.461 . S
C1775 C1774 1.474 . S
C1776 C1771 1.342 . S
C1776 C1774 1.285 . S
C1776 H1795 0.930 . S
C1777 C1780 1.424 . S
C1777 C1782 1.245 . S
C1777 C1783 1.428 . S
C1778 C1781 1.260 . S
C1778 C1782 1.477 . S
C1778 H1796 0.932 . S
C1779 C1780 1.384 . S
C1779 C1781 1.479 . S
C1779 H1797 0.929 . S
C1780 C1777 1.424 . S
C1780 C1779 1.384 . S
C1780 H1798 0.928 . S
C1781 C1778 1.260 . S
C1781 C1779 1.479 . S
C1782 C1777 1.245 . S
C1782 C1778 1.477 . S
C1782 H1799 0.932 . S
C1783 U1766 2.882 . S
C1783 C1777 1.428 . S
C1783 O1786 1.301 . S
C1783 O1787 1.282 . S
O1784 U1766 2.441 . S
O1784 C1770 1.249 . S
O1785 U1766 2.420 . S
O1785 C1770 1.202 . S
O1786 U1766 2.455 . S
O1786 C1783 1.301 . S
O1787 U1766 2.449 . S
O1787 C1783 1.282 . S
H1788 C1761 0.931 . S
H1789 C1763 0.929 . S
H1790 C1764 0.930 . S
H1791 C1765 0.931 . S
H1792 C1772 0.932 . S
H1793 C1773 0.930 . S
H1794 C1774 0.929 . S
H1795 C1776 0.930 . S
H1796 C1778 0.932 . S
H1797 C1779 0.929 . S
H1798 C1780 0.928 . S
H1799 C1782 0.932 . S
C1800 C1801 1.264 . S
C1800 C1805 1.479 . S
C1800 C1810 1.465 . S
C1801 C1800 1.264 . S
C1801 C1803 1.339 . S
C1801 H1828 0.931 . S
C1802 C1803 1.395 . S
C1802 C1804 1.320 . S
C1803 C1801 1.339 . S
C1803 C1802 1.395 . S
C1803 H1829 0.929 . S
C1804 C1802 1.320 . S
C1804 C1805 1.405 . S
C1804 H1830 0.930 . S
C1805 C1800 1.479 . S
C1805 C1804 1.405 . S
C1805 H1831 0.931 . S
U1806 O1807 2.454 . S
U1806 O1808 2.458 . S
U1806 C1809 2.984 . S
U1806 C1810 2.847 . S
U1806 C1823 2.882 . S
U1806 O1824 2.441 . S
U1806 O1825 2.420 . S
U1806 O1826 2.455 . S
U1806 O1827 2.449 . S
O1807 U1806 2.454 . S
O1807 C1809 1.353 . S
O1808 U1806 2.458 . S
O1808 C1809 1.286 . S
C1809 U1806 2.984 . S
C1809 O1807 1.353 . S
C1809 O1808 1.286 . S
C1809 C1811 1.363 . S
C1810 C1800 1.465 . S
C1810 U1806 2.847 . S
C1810 O1824 1.249 . S
C1810 O1825 1.202 . S
C1811 C1809 1.363 . S
C1811 C1813 1.408 . S
C1811 C1816 1.342 . S
C1812 C1813 1.310 . S
C1812 C1815 1.461 . S
C1812 H1832 0.932 . S
C1813 C1811 1.408 . S
C1813 C1812 1.310 . S
C1813 H1833 0.930 . S
C1814 C1815 1.474 . S
C1814 C1816 1.285 . S
C1814 H1834 0.929 . S
C1815 C1812 1.461 . S
C1815 C1814 1.474 . S
C1816 C1811 1.342 . S
C1816 C1814 1.285 . S
C1816 H1835 0.930 . S
C1817 C1820 1.424 . S
C1817 C1822 1.245 . S
C1817 C1823 1.428 . S
C1818 C1821 1.260 . S
C1818 C1822 1.477 . S
C1818 H1836 0.932 . S
C1819 C1820 1.384 . S
C1819 C1821 1.479 . S
C1819 H1837 0.929 . S
C1820 C1817 1.424 . S
C1820 C1819 1.384 . S
C1820 H1838 0.928 . S
C1821 C1818 1.260 . S
C1821 C1819 1.479 . S
C1822 C1817 1.245 . S
C1822 C1818 1.477 . S
C1822 H1839 0.932 . S
C1823 U1806 2.882 . S
C1823 C1817 1.428 . S
C1823 O1826 1.301 . S
C1823 O1827 1.282 . S
O1824 U1806 2.441 . S
O1824 C1810 1.249 . S
O1825 U1806 2.420 . S
O1825 C1810 1.202 . S
O1826 U1806 2.455 . S
O1826 C1823 1.301 . S
O1827 U1806 2.449 . S
O1827 C1823 1.282 . S
H1828 C1801 0.931 . S
H1829 C1803 0.929 . S
H1830 C1804 0.930 . S
H1831 C1805 0.931 . S
H1832 C1812 0.932 . S
H1833 C1813 0.930 . S
H1834 C1814 0.929 . S
H1835 C1816 0.930 . S
H1836 C1818 0.932 . S
H1837 C1819 0.929 . S
H1838 C1820 0.928 . S
H1839 C1822 0.932 . S
C1840 C1841 1.264 . S
C1840 C1845 1.479 . S
C1840 C1850 1.465 . S
C1841 C1840 1.264 . S
C1841 C1843 1.339 . S
C1841 H1868 0.931 . S
C1842 C1843 1.395 . S
C1842 C1844 1.320 . S
C1843 C1841 1.339 . S
C1843 C1842 1.395 . S
C1843 H1869 0.929 . S
C1844 C1842 1.320 . S
C1844 C1845 1.405 . S
C1844 H1870 0.930 . S
C1845 C1840 1.479 . S
C1845 C1844 1.405 . S
C1845 H1871 0.931 . S
U1846 O1847 2.454 . S
U1846 O1848 2.458 . S
U1846 C1849 2.984 . S
U1846 C1850 2.847 . S
U1846 C1863 2.882 . S
U1846 O1864 2.441 . S
U1846 O1865 2.420 . S
U1846 O1866 2.455 . S
U1846 O1867 2.449 . S
O1847 U1846 2.454 . S
O1847 C1849 1.353 . S
O1848 U1846 2.458 . S
O1848 C1849 1.286 . S
C1849 U1846 2.984 . S
C1849 O1847 1.353 . S
C1849 O1848 1.286 . S
C1849 C1851 1.363 . S
C1850 C1840 1.465 . S
C1850 U1846 2.847 . S
C1850 O1864 1.249 . S
C1850 O1865 1.202 . S
C1851 C1849 1.363 . S
C1851 C1853 1.408 . S
C1851 C1856 1.342 . S
C1852 C1853 1.310 . S
C1852 C1855 1.461 . S
C1852 H1872 0.932 . S
C1853 C1851 1.408 . S
C1853 C1852 1.310 . S
C1853 H1873 0.930 . S
C1854 C1855 1.474 . S
C1854 C1856 1.285 . S
C1854 H1874 0.929 . S
C1855 C1852 1.461 . S
C1855 C1854 1.474 . S
C1856 C1851 1.342 . S
C1856 C1854 1.285 . S
C1856 H1875 0.930 . S
C1857 C1860 1.424 . S
C1857 C1862 1.245 . S
C1857 C1863 1.428 . S
C1858 C1861 1.260 . S
C1858 C1862 1.477 . S
C1858 H1876 0.932 . S
C1859 C1860 1.384 . S
C1859 C1861 1.479 . S
C1859 H1877 0.929 . S
C1860 C1857 1.424 . S
C1860 C1859 1.384 . S
C1860 H1878 0.928 . S
C1861 C1858 1.260 . S
C1861 C1859 1.479 . S
C1862 C1857 1.245 . S
C1862 C1858 1.477 . S
C1862 H1879 0.932 . S
C1863 U1846 2.882 . S
C1863 C1857 1.428 . S
C1863 O1866 1.301 . S
C1863 O1867 1.282 . S
O1864 U1846 2.441 . S
O1864 C1850 1.249 . S
O1865 U1846 2.420 . S
O1865 C1850 1.202 . S
O1866 U1846 2.455 . S
O1866 C1863 1.301 . S
O1867 U1846 2.449 . S
O1867 C1863 1.282 . S
H1868 C1841 0.931 . S
H1869 C1843 0.929 . S
H1870 C1844 0.930 . S
H1871 C1845 0.931 . S
H1872 C1852 0.932 . S
H1873 C1853 0.930 . S
H1874 C1854 0.929 . S
H1875 C1856 0.930 . S
H1876 C1858 0.932 . S
H1877 C1859 0.929 . S
H1878 C1860 0.928 . S
H1879 C1862 0.932 . S
C1880 C1881 1.264 . S
C1880 C1885 1.479 . S
C1880 C1890 1.465 . S
C1881 C1880 1.264 . S
C1881 C1883 1.339 . S
C1881 H1908 0.931 . S
C1882 C1883 1.395 . S
C1882 C1884 1.320 . S
C1883 C1881 1.339 . S
C1883 C1882 1.395 . S
C1883 H1909 0.929 . S
C1884 C1882 1.320 . S
C1884 C1885 1.405 . S
C1884 H1910 0.930 . S
C1885 C1880 1.479 . S
C1885 C1884 1.405 . S
C1885 H1911 0.931 . S
U1886 O1887 2.454 . S
U1886 O1888 2.458 . S
U1886 C1889 2.984 . S
U1886 C1890 2.847 . S
U1886 C1903 2.882 . S
U1886 O1904 2.441 . S
U1886 O1905 2.420 . S
U1886 O1906 2.455 . S
U1886 O1907 2.449 . S
O1887 U1886 2.454 . S
O1887 C1889 1.353 . S
O1888 U1886 2.458 . S
O1888 C1889 1.286 . S
C1889 U1886 2.984 . S
C1889 O1887 1.353 . S
C1889 O1888 1.286 . S
C1889 C1891 1.363 . S
C1890 C1880 1.465 . S
C1890 U1886 2.847 . S
C1890 O1904 1.249 . S
C1890 O1905 1.202 . S
C1891 C1889 1.363 . S
C1891 C1893 1.408 . S
C1891 C1896 1.342 . S
C1892 C1893 1.310 . S
C1892 C1895 1.461 . S
C1892 H1912 0.932 . S
C1893 C1891 1.408 . S
C1893 C1892 1.310 . S
C1893 H1913 0.930 . S
C1894 C1895 1.474 . S
C1894 C1896 1.285 . S
C1894 H1914 0.929 . S
C1895 C1892 1.461 . S
C1895 C1894 1.474 . S
C1896 C1891 1.342 . S
C1896 C1894 1.285 . S
C1896 H1915 0.930 . S
C1897 C1900 1.424 . S
C1897 C1902 1.245 . S
C1897 C1903 1.428 . S
C1898 C1901 1.260 . S
C1898 C1902 1.477 . S
C1898 H1916 0.932 . S
C1899 C1900 1.384 . S
C1899 C1901 1.479 . S
C1899 H1917 0.929 . S
C1900 C1897 1.424 . S
C1900 C1899 1.384 . S
C1900 H1918 0.928 . S
C1901 C1898 1.260 . S
C1901 C1899 1.479 . S
C1902 C1897 1.245 . S
C1902 C1898 1.477 . S
C1902 H1919 0.932 . S
C1903 U1886 2.882 . S
C1903 C1897 1.428 . S
C1903 O1906 1.301 . S
C1903 O1907 1.282 . S
O1904 U1886 2.441 . S
O1904 C1890 1.249 . S
O1905 U1886 2.420 . S
O1905 C1890 1.202 . S
O1906 U1886 2.455 . S
O1906 C1903 1.301 . S
O1907 U1886 2.449 . S
O1907 C1903 1.282 . S
H1908 C1881 0.931 . S
H1909 C1883 0.929 . S
H1910 C1884 0.930 . S
H1911 C1885 0.931 . S
H1912 C1892 0.932 . S
H1913 C1893 0.930 . S
H1914 C1894 0.929 . S
H1915 C1896 0.930 . S
H1916 C1898 0.932 . S
H1917 C1899 0.929 . S
H1918 C1900 0.928 . S
H1919 C1902 0.932 . S
H1920 C1928 0.929 . S
H1921 C1930 0.930 . S
H1922 C1932 0.930 . S
H1923 C1935 0.929 . S
H1924 C1938 0.930 . S
H1925 C1940 0.960 . S
H1926 C1940 0.960 . S
H1927 C1940 0.960 . S
C1928 H1920 0.929 . S
C1928 C1929 1.377 . S
C1928 C1930 1.384 . S
C1929 C1928 1.377 . S
C1929 C1935 1.390 . S
C1930 H1921 0.930 . S
C1930 C1928 1.384 . S
C1930 C1931 1.372 . S
C1931 C1930 1.372 . S
C1931 C1932 1.400 . S
C1931 C1936 1.490 . S
C1932 H1922 0.930 . S
C1932 C1931 1.400 . S
C1932 C1935 1.386 . S
H1933 C1949 0.930 . S
H1934 C1950 0.931 . S
C1935 H1923 0.929 . S
C1935 C1929 1.390 . S
C1935 C1932 1.386 . S
C1936 C1931 1.490 . S
C1936 C1938 1.395 . S
C1936 C1939 1.403 . S
H1937 C1943 0.930 . S
C1938 H1924 0.930 . S
C1938 C1936 1.395 . S
C1938 C1941 1.403 . S
C1939 C1936 1.403 . S
C1939 C1940 1.524 . S
C1939 C1943 1.400 . S
C1940 H1925 0.960 . S
C1940 H1926 0.960 . S
C1940 H1927 0.960 . S
C1940 C1939 1.524 . S
C1941 C1938 1.403 . S
C1941 C1942 1.392 . S
C1941 C1945 1.495 . S
C1942 C1941 1.392 . S
C1942 C1943 1.385 . S
C1942 C1944 1.478 . S
C1943 H1937 0.930 . S
C1943 C1939 1.400 . S
C1943 C1942 1.385 . S
C1944 C1942 1.478 . S
C1944 C1946 1.381 . S
C1944 C1950 1.383 . S
C1945 C1941 1.495 . S
C1945 H1951 0.959 . S
C1945 H1952 0.961 . S
C1945 H1953 0.960 . S
C1946 C1944 1.381 . S
C1946 C1947 1.394 . S
C1946 H1954 0.930 . S
C1947 C1946 1.394 . S
C1947 C1948 1.383 . S
C1947 H1955 0.929 . S
C1948 C1947 1.383 . S
C1948 C1949 1.377 . S
C1949 H1933 0.930 . S
C1949 C1948 1.377 . S
C1949 C1950 1.379 . S
C1950 H1934 0.931 . S
C1950 C1944 1.383 . S
C1950 C1949 1.379 . S
H1951 C1945 0.959 . S
H1952 C1945 0.961 . S
H1953 C1945 0.960 . S
H1954 C1946 0.930 . S
H1955 C1947 0.929 . S
H1956 C1964 0.929 . S
H1957 C1966 0.930 . S
H1958 C1968 0.930 . S
H1959 C1971 0.929 . S
H1960 C1974 0.930 . S
H1961 C1976 0.960 . S
H1962 C1976 0.960 . S
H1963 C1976 0.960 . S
C1964 H1956 0.929 . S
C1964 C1965 1.377 . S
C1964 C1966 1.384 . S
C1965 C1964 1.377 . S
C1965 C1971 1.390 . S
C1966 H1957 0.930 . S
C1966 C1964 1.384 . S
C1966 C1967 1.372 . S
C1967 C1966 1.372 . S
C1967 C1968 1.400 . S
C1967 C1972 1.490 . S
C1968 H1958 0.930 . S
C1968 C1967 1.400 . S
C1968 C1971 1.386 . S
H1969 C1985 0.930 . S
H1970 C1986 0.931 . S
C1971 H1959 0.929 . S
C1971 C1965 1.390 . S
C1971 C1968 1.386 . S
C1972 C1967 1.490 . S
C1972 C1974 1.395 . S
C1972 C1975 1.403 . S
H1973 C1979 0.930 . S
C1974 H1960 0.930 . S
C1974 C1972 1.395 . S
C1974 C1977 1.403 . S
C1975 C1972 1.403 . S
C1975 C1976 1.524 . S
C1975 C1979 1.400 . S
C1976 H1961 0.960 . S
C1976 H1962 0.960 . S
C1976 H1963 0.960 . S
C1976 C1975 1.524 . S
C1977 C1974 1.403 . S
C1977 C1978 1.392 . S
C1977 C1981 1.495 . S
C1978 C1977 1.392 . S
C1978 C1979 1.385 . S
C1978 C1980 1.478 . S
C1979 H1973 0.930 . S
C1979 C1975 1.400 . S
C1979 C1978 1.385 . S
C1980 C1978 1.478 . S
C1980 C1982 1.381 . S
C1980 C1986 1.383 . S
C1981 C1977 1.495 . S
C1981 H1987 0.959 . S
C1981 H1988 0.961 . S
C1981 H1989 0.960 . S
C1982 C1980 1.381 . S
C1982 C1983 1.394 . S
C1982 H1990 0.930 . S
C1983 C1982 1.394 . S
C1983 C1984 1.383 . S
C1983 H1991 0.929 . S
C1984 C1983 1.383 . S
C1984 C1985 1.377 . S
C1985 H1969 0.930 . S
C1985 C1984 1.377 . S
C1985 C1986 1.379 . S
C1986 H1970 0.931 . S
C1986 C1980 1.383 . S
C1986 C1985 1.379 . S
H1987 C1981 0.959 . S
H1988 C1981 0.961 . S
H1989 C1981 0.960 . S
H1990 C1982 0.930 . S
H1991 C1983 0.929 . S
H1992 C2000 0.929 . S
H1993 C2002 0.930 . S
H1994 C2004 0.930 . S
H1995 C2007 0.929 . S
H1996 C2010 0.930 . S
H1997 C2012 0.960 . S
H1998 C2012 0.960 . S
H1999 C2012 0.960 . S
C2000 H1992 0.929 . S
C2000 C2001 1.377 . S
C2000 C2002 1.384 . S
C2001 C2000 1.377 . S
C2001 C2007 1.390 . S
C2002 H1993 0.930 . S
C2002 C2000 1.384 . S
C2002 C2003 1.372 . S
C2003 C2002 1.372 . S
C2003 C2004 1.400 . S
C2003 C2008 1.490 . S
C2004 H1994 0.930 . S
C2004 C2003 1.400 . S
C2004 C2007 1.386 . S
H2005 C2021 0.930 . S
H2006 C2022 0.931 . S
C2007 H1995 0.929 . S
C2007 C2001 1.390 . S
C2007 C2004 1.386 . S
C2008 C2003 1.490 . S
C2008 C2010 1.395 . S
C2008 C2011 1.403 . S
H2009 C2015 0.930 . S
C2010 H1996 0.930 . S
C2010 C2008 1.395 . S
C2010 C2013 1.403 . S
C2011 C2008 1.403 . S
C2011 C2012 1.524 . S
C2011 C2015 1.400 . S
C2012 H1997 0.960 . S
C2012 H1998 0.960 . S
C2012 H1999 0.960 . S
C2012 C2011 1.524 . S
C2013 C2010 1.403 . S
C2013 C2014 1.392 . S
C2013 C2017 1.495 . S
C2014 C2013 1.392 . S
C2014 C2015 1.385 . S
C2014 C2016 1.478 . S
C2015 H2009 0.930 . S
C2015 C2011 1.400 . S
C2015 C2014 1.385 . S
C2016 C2014 1.478 . S
C2016 C2018 1.381 . S
C2016 C2022 1.383 . S
C2017 C2013 1.495 . S
C2017 H2023 0.959 . S
C2017 H2024 0.961 . S
C2017 H2025 0.960 . S
C2018 C2016 1.381 . S
C2018 C2019 1.394 . S
C2018 H2026 0.930 . S
C2019 C2018 1.394 . S
C2019 C2020 1.383 . S
C2019 H2027 0.929 . S
C2020 C2019 1.383 . S
C2020 C2021 1.377 . S
C2021 H2005 0.930 . S
C2021 C2020 1.377 . S
C2021 C2022 1.379 . S
C2022 H2006 0.931 . S
C2022 C2016 1.383 . S
C2022 C2021 1.379 . S
H2023 C2017 0.959 . S
H2024 C2017 0.961 . S
H2025 C2017 0.960 . S
H2026 C2018 0.930 . S
H2027 C2019 0.929 . S
H2028 C2036 0.929 . S
H2029 C2038 0.930 . S
H2030 C2040 0.930 . S
H2031 C2043 0.929 . S
H2032 C2046 0.930 . S
H2033 C2048 0.960 . S
H2034 C2048 0.960 . S
H2035 C2048 0.960 . S
C2036 H2028 0.929 . S
C2036 C2037 1.377 . S
C2036 C2038 1.384 . S
C2037 C2036 1.377 . S
C2037 C2043 1.390 . S
C2038 H2029 0.930 . S
C2038 C2036 1.384 . S
C2038 C2039 1.372 . S
C2039 C2038 1.372 . S
C2039 C2040 1.400 . S
C2039 C2044 1.490 . S
C2040 H2030 0.930 . S
C2040 C2039 1.400 . S
C2040 C2043 1.386 . S
H2041 C2057 0.930 . S
H2042 C2058 0.931 . S
C2043 H2031 0.929 . S
C2043 C2037 1.390 . S
C2043 C2040 1.386 . S
C2044 C2039 1.490 . S
C2044 C2046 1.395 . S
C2044 C2047 1.403 . S
H2045 C2051 0.930 . S
C2046 H2032 0.930 . S
C2046 C2044 1.395 . S
C2046 C2049 1.403 . S
C2047 C2044 1.403 . S
C2047 C2048 1.524 . S
C2047 C2051 1.400 . S
C2048 H2033 0.960 . S
C2048 H2034 0.960 . S
C2048 H2035 0.960 . S
C2048 C2047 1.524 . S
C2049 C2046 1.403 . S
C2049 C2050 1.392 . S
C2049 C2053 1.495 . S
C2050 C2049 1.392 . S
C2050 C2051 1.385 . S
C2050 C2052 1.478 . S
C2051 H2045 0.930 . S
C2051 C2047 1.400 . S
C2051 C2050 1.385 . S
C2052 C2050 1.478 . S
C2052 C2054 1.381 . S
C2052 C2058 1.383 . S
C2053 C2049 1.495 . S
C2053 H2059 0.959 . S
C2053 H2060 0.961 . S
C2053 H2061 0.960 . S
C2054 C2052 1.381 . S
C2054 C2055 1.394 . S
C2054 H2062 0.930 . S
C2055 C2054 1.394 . S
C2055 C2056 1.383 . S
C2055 H2063 0.929 . S
C2056 C2055 1.383 . S
C2056 C2057 1.377 . S
C2057 H2041 0.930 . S
C2057 C2056 1.377 . S
C2057 C2058 1.379 . S
C2058 H2042 0.931 . S
C2058 C2052 1.383 . S
C2058 C2057 1.379 . S
H2059 C2053 0.959 . S
H2060 C2053 0.961 . S
H2061 C2053 0.960 . S
H2062 C2054 0.930 . S
H2063 C2055 0.929 . S
H2064 C2072 0.929 . S
H2065 C2074 0.930 . S
H2066 C2076 0.930 . S
H2067 C2079 0.929 . S
H2068 C2082 0.930 . S
H2069 C2084 0.960 . S
H2070 C2084 0.960 . S
H2071 C2084 0.960 . S
C2072 H2064 0.929 . S
C2072 C2073 1.377 . S
C2072 C2074 1.384 . S
C2073 C2072 1.377 . S
C2073 C2079 1.390 . S
C2074 H2065 0.930 . S
C2074 C2072 1.384 . S
C2074 C2075 1.372 . S
C2075 C2074 1.372 . S
C2075 C2076 1.400 . S
C2075 C2080 1.490 . S
C2076 H2066 0.930 . S
C2076 C2075 1.400 . S
C2076 C2079 1.386 . S
H2077 C2093 0.930 . S
H2078 C2094 0.931 . S
C2079 H2067 0.929 . S
C2079 C2073 1.390 . S
C2079 C2076 1.386 . S
C2080 C2075 1.490 . S
C2080 C2082 1.395 . S
C2080 C2083 1.403 . S
H2081 C2087 0.930 . S
C2082 H2068 0.930 . S
C2082 C2080 1.395 . S
C2082 C2085 1.403 . S
C2083 C2080 1.403 . S
C2083 C2084 1.524 . S
C2083 C2087 1.400 . S
C2084 H2069 0.960 . S
C2084 H2070 0.960 . S
C2084 H2071 0.960 . S
C2084 C2083 1.524 . S
C2085 C2082 1.403 . S
C2085 C2086 1.392 . S
C2085 C2089 1.495 . S
C2086 C2085 1.392 . S
C2086 C2087 1.385 . S
C2086 C2088 1.478 . S
C2087 H2081 0.930 . S
C2087 C2083 1.400 . S
C2087 C2086 1.385 . S
C2088 C2086 1.478 . S
C2088 C2090 1.381 . S
C2088 C2094 1.383 . S
C2089 C2085 1.495 . S
C2089 H2095 0.959 . S
C2089 H2096 0.961 . S
C2089 H2097 0.960 . S
C2090 C2088 1.381 . S
C2090 C2091 1.394 . S
C2090 H2098 0.930 . S
C2091 C2090 1.394 . S
C2091 C2092 1.383 . S
C2091 H2099 0.929 . S
C2092 C2091 1.383 . S
C2092 C2093 1.377 . S
C2093 H2077 0.930 . S
C2093 C2092 1.377 . S
C2093 C2094 1.379 . S
C2094 H2078 0.931 . S
C2094 C2088 1.383 . S
C2094 C2093 1.379 . S
H2095 C2089 0.959 . S
H2096 C2089 0.961 . S
H2097 C2089 0.960 . S
H2098 C2090 0.930 . S
H2099 C2091 0.929 . S
H2100 C2108 0.929 . S
H2101 C2110 0.930 . S
H2102 C2112 0.930 . S
H2103 C2115 0.929 . S
H2104 C2118 0.930 . S
H2105 C2120 0.960 . S
H2106 C2120 0.960 . S
H2107 C2120 0.960 . S
C2108 H2100 0.929 . S
C2108 C2109 1.377 . S
C2108 C2110 1.384 . S
C2109 C2108 1.377 . S
C2109 C2115 1.390 . S
C2110 H2101 0.930 . S
C2110 C2108 1.384 . S
C2110 C2111 1.372 . S
C2111 C2110 1.372 . S
C2111 C2112 1.400 . S
C2111 C2116 1.490 . S
C2112 H2102 0.930 . S
C2112 C2111 1.400 . S
C2112 C2115 1.386 . S
H2113 C2129 0.930 . S
H2114 C2130 0.931 . S
C2115 H2103 0.929 . S
C2115 C2109 1.390 . S
C2115 C2112 1.386 . S
C2116 C2111 1.490 . S
C2116 C2118 1.395 . S
C2116 C2119 1.403 . S
H2117 C2123 0.930 . S
C2118 H2104 0.930 . S
C2118 C2116 1.395 . S
C2118 C2121 1.403 . S
C2119 C2116 1.403 . S
C2119 C2120 1.524 . S
C2119 C2123 1.400 . S
C2120 H2105 0.960 . S
C2120 H2106 0.960 . S
C2120 H2107 0.960 . S
C2120 C2119 1.524 . S
C2121 C2118 1.403 . S
C2121 C2122 1.392 . S
C2121 C2125 1.495 . S
C2122 C2121 1.392 . S
C2122 C2123 1.385 . S
C2122 C2124 1.478 . S
C2123 H2117 0.930 . S
C2123 C2119 1.400 . S
C2123 C2122 1.385 . S
C2124 C2122 1.478 . S
C2124 C2126 1.381 . S
C2124 C2130 1.383 . S
C2125 C2121 1.495 . S
C2125 H2131 0.959 . S
C2125 H2132 0.961 . S
C2125 H2133 0.960 . S
C2126 C2124 1.381 . S
C2126 C2127 1.394 . S
C2126 H2134 0.930 . S
C2127 C2126 1.394 . S
C2127 C2128 1.383 . S
C2127 H2135 0.929 . S
C2128 C2127 1.383 . S
C2128 C2129 1.377 . S
C2129 H2113 0.930 . S
C2129 C2128 1.377 . S
C2129 C2130 1.379 . S
C2130 H2114 0.931 . S
C2130 C2124 1.383 . S
C2130 C2129 1.379 . S
H2131 C2125 0.959 . S
H2132 C2125 0.961 . S
H2133 C2125 0.960 . S
H2134 C2126 0.930 . S
H2135 C2127 0.929 . S
H2136 C2144 0.929 . S
H2137 C2146 0.930 . S
H2138 C2148 0.930 . S
H2139 C2151 0.929 . S
H2140 C2154 0.930 . S
H2141 C2156 0.960 . S
H2142 C2156 0.960 . S
H2143 C2156 0.960 . S
C2144 H2136 0.929 . S
C2144 C2145 1.377 . S
C2144 C2146 1.384 . S
C2145 C2144 1.377 . S
C2145 C2151 1.390 . S
C2146 H2137 0.930 . S
C2146 C2144 1.384 . S
C2146 C2147 1.372 . S
C2147 C2146 1.372 . S
C2147 C2148 1.400 . S
C2147 C2152 1.490 . S
C2148 H2138 0.930 . S
C2148 C2147 1.400 . S
C2148 C2151 1.386 . S
H2149 C2165 0.930 . S
H2150 C2166 0.931 . S
C2151 H2139 0.929 . S
C2151 C2145 1.390 . S
C2151 C2148 1.386 . S
C2152 C2147 1.490 . S
C2152 C2154 1.395 . S
C2152 C2155 1.403 . S
H2153 C2159 0.930 . S
C2154 H2140 0.930 . S
C2154 C2152 1.395 . S
C2154 C2157 1.403 . S
C2155 C2152 1.403 . S
C2155 C2156 1.524 . S
C2155 C2159 1.400 . S
C2156 H2141 0.960 . S
C2156 H2142 0.960 . S
C2156 H2143 0.960 . S
C2156 C2155 1.524 . S
C2157 C2154 1.403 . S
C2157 C2158 1.392 . S
C2157 C2161 1.495 . S
C2158 C2157 1.392 . S
C2158 C2159 1.385 . S
C2158 C2160 1.478 . S
C2159 H2153 0.930 . S
C2159 C2155 1.400 . S
C2159 C2158 1.385 . S
C2160 C2158 1.478 . S
C2160 C2162 1.381 . S
C2160 C2166 1.383 . S
C2161 C2157 1.495 . S
C2161 H2167 0.959 . S
C2161 H2168 0.961 . S
C2161 H2169 0.960 . S
C2162 C2160 1.381 . S
C2162 C2163 1.394 . S
C2162 H2170 0.930 . S
C2163 C2162 1.394 . S
C2163 C2164 1.383 . S
C2163 H2171 0.929 . S
C2164 C2163 1.383 . S
C2164 C2165 1.377 . S
C2165 H2149 0.930 . S
C2165 C2164 1.377 . S
C2165 C2166 1.379 . S
C2166 H2150 0.931 . S
C2166 C2160 1.383 . S
C2166 C2165 1.379 . S
H2167 C2161 0.959 . S
H2168 C2161 0.961 . S
H2169 C2161 0.960 . S
H2170 C2162 0.930 . S
H2171 C2163 0.929 . S
H2172 C2180 0.929 . S
H2173 C2182 0.930 . S
H2174 C2184 0.930 . S
H2175 C2187 0.929 . S
H2176 C2190 0.930 . S
H2177 C2192 0.960 . S
H2178 C2192 0.960 . S
H2179 C2192 0.960 . S
C2180 H2172 0.929 . S
C2180 C2181 1.377 . S
C2180 C2182 1.384 . S
C2181 C2180 1.377 . S
C2181 C2187 1.390 . S
C2182 H2173 0.930 . S
C2182 C2180 1.384 . S
C2182 C2183 1.372 . S
C2183 C2182 1.372 . S
C2183 C2184 1.400 . S
C2183 C2188 1.490 . S
C2184 H2174 0.930 . S
C2184 C2183 1.400 . S
C2184 C2187 1.386 . S
H2185 C2201 0.930 . S
H2186 C2202 0.931 . S
C2187 H2175 0.929 . S
C2187 C2181 1.390 . S
C2187 C2184 1.386 . S
C2188 C2183 1.490 . S
C2188 C2190 1.395 . S
C2188 C2191 1.403 . S
H2189 C2195 0.930 . S
C2190 H2176 0.930 . S
C2190 C2188 1.395 . S
C2190 C2193 1.403 . S
C2191 C2188 1.403 . S
C2191 C2192 1.524 . S
C2191 C2195 1.400 . S
C2192 H2177 0.960 . S
C2192 H2178 0.960 . S
C2192 H2179 0.960 . S
C2192 C2191 1.524 . S
C2193 C2190 1.403 . S
C2193 C2194 1.392 . S
C2193 C2197 1.495 . S
C2194 C2193 1.392 . S
C2194 C2195 1.385 . S
C2194 C2196 1.478 . S
C2195 H2189 0.930 . S
C2195 C2191 1.400 . S
C2195 C2194 1.385 . S
C2196 C2194 1.478 . S
C2196 C2198 1.381 . S
C2196 C2202 1.383 . S
C2197 C2193 1.495 . S
C2197 H2203 0.959 . S
C2197 H2204 0.961 . S
C2197 H2205 0.960 . S
C2198 C2196 1.381 . S
C2198 C2199 1.394 . S
C2198 H2206 0.930 . S
C2199 C2198 1.394 . S
C2199 C2200 1.383 . S
C2199 H2207 0.929 . S
C2200 C2199 1.383 . S
C2200 C2201 1.377 . S
C2201 H2185 0.930 . S
C2201 C2200 1.377 . S
C2201 C2202 1.379 . S
C2202 H2186 0.931 . S
C2202 C2196 1.383 . S
C2202 C2201 1.379 . S
H2203 C2197 0.959 . S
H2204 C2197 0.961 . S
H2205 C2197 0.960 . S
H2206 C2198 0.930 . S
H2207 C2199 0.929 . S
H2208 C2216 0.929 . S
H2209 C2218 0.930 . S
H2210 C2220 0.930 . S
H2211 C2223 0.929 . S
H2212 C2226 0.930 . S
H2213 C2228 0.960 . S
H2214 C2228 0.960 . S
H2215 C2228 0.960 . S
C2216 H2208 0.929 . S
C2216 C2217 1.377 . S
C2216 C2218 1.384 . S
C2217 C2216 1.377 . S
C2217 C2223 1.390 . S
C2218 H2209 0.930 . S
C2218 C2216 1.384 . S
C2218 C2219 1.372 . S
C2219 C2218 1.372 . S
C2219 C2220 1.400 . S
C2219 C2224 1.490 . S
C2220 H2210 0.930 . S
C2220 C2219 1.400 . S
C2220 C2223 1.386 . S
H2221 C2237 0.930 . S
H2222 C2238 0.931 . S
C2223 H2211 0.929 . S
C2223 C2217 1.390 . S
C2223 C2220 1.386 . S
C2224 C2219 1.490 . S
C2224 C2226 1.395 . S
C2224 C2227 1.403 . S
H2225 C2231 0.930 . S
C2226 H2212 0.930 . S
C2226 C2224 1.395 . S
C2226 C2229 1.403 . S
C2227 C2224 1.403 . S
C2227 C2228 1.524 . S
C2227 C2231 1.400 . S
C2228 H2213 0.960 . S
C2228 H2214 0.960 . S
C2228 H2215 0.960 . S
C2228 C2227 1.524 . S
C2229 C2226 1.403 . S
C2229 C2230 1.392 . S
C2229 C2233 1.495 . S
C2230 C2229 1.392 . S
C2230 C2231 1.385 . S
C2230 C2232 1.478 . S
C2231 H2225 0.930 . S
C2231 C2227 1.400 . S
C2231 C2230 1.385 . S
C2232 C2230 1.478 . S
C2232 C2234 1.381 . S
C2232 C2238 1.383 . S
C2233 C2229 1.495 . S
C2233 H2239 0.959 . S
C2233 H2240 0.961 . S
C2233 H2241 0.960 . S
C2234 C2232 1.381 . S
C2234 C2235 1.394 . S
C2234 H2242 0.930 . S
C2235 C2234 1.394 . S
C2235 C2236 1.383 . S
C2235 H2243 0.929 . S
C2236 C2235 1.383 . S
C2236 C2237 1.377 . S
C2237 H2221 0.930 . S
C2237 C2236 1.377 . S
C2237 C2238 1.379 . S
C2238 H2222 0.931 . S
C2238 C2232 1.383 . S
C2238 C2237 1.379 . S
H2239 C2233 0.959 . S
H2240 C2233 0.961 . S
H2241 C2233 0.960 . S
H2242 C2234 0.930 . S
H2243 C2235 0.929 . S
H2244 C2252 0.929 . S
H2245 C2254 0.930 . S
H2246 C2256 0.930 . S
H2247 C2259 0.929 . S
H2248 C2262 0.930 . S
H2249 C2264 0.960 . S
H2250 C2264 0.960 . S
H2251 C2264 0.960 . S
C2252 H2244 0.929 . S
C2252 C2253 1.377 . S
C2252 C2254 1.384 . S
C2253 C2252 1.377 . S
C2253 C2259 1.390 . S
C2254 H2245 0.930 . S
C2254 C2252 1.384 . S
C2254 C2255 1.372 . S
C2255 C2254 1.372 . S
C2255 C2256 1.400 . S
C2255 C2260 1.490 . S
C2256 H2246 0.930 . S
C2256 C2255 1.400 . S
C2256 C2259 1.386 . S
H2257 C2273 0.930 . S
H2258 C2274 0.931 . S
C2259 H2247 0.929 . S
C2259 C2253 1.390 . S
C2259 C2256 1.386 . S
C2260 C2255 1.490 . S
C2260 C2262 1.395 . S
C2260 C2263 1.403 . S
H2261 C2267 0.930 . S
C2262 H2248 0.930 . S
C2262 C2260 1.395 . S
C2262 C2265 1.403 . S
C2263 C2260 1.403 . S
C2263 C2264 1.524 . S
C2263 C2267 1.400 . S
C2264 H2249 0.960 . S
C2264 H2250 0.960 . S
C2264 H2251 0.960 . S
C2264 C2263 1.524 . S
C2265 C2262 1.403 . S
C2265 C2266 1.392 . S
C2265 C2269 1.495 . S
C2266 C2265 1.392 . S
C2266 C2267 1.385 . S
C2266 C2268 1.478 . S
C2267 H2261 0.930 . S
C2267 C2263 1.400 . S
C2267 C2266 1.385 . S
C2268 C2266 1.478 . S
C2268 C2270 1.381 . S
C2268 C2274 1.383 . S
C2269 C2265 1.495 . S
C2269 H2275 0.959 . S
C2269 H2276 0.961 . S
C2269 H2277 0.960 . S
C2270 C2268 1.381 . S
C2270 C2271 1.394 . S
C2270 H2278 0.930 . S
C2271 C2270 1.394 . S
C2271 C2272 1.383 . S
C2271 H2279 0.929 . S
C2272 C2271 1.383 . S
C2272 C2273 1.377 . S
C2273 H2257 0.930 . S
C2273 C2272 1.377 . S
C2273 C2274 1.379 . S
C2274 H2258 0.931 . S
C2274 C2268 1.383 . S
C2274 C2273 1.379 . S
H2275 C2269 0.959 . S
H2276 C2269 0.961 . S
H2277 C2269 0.960 . S
H2278 C2270 0.930 . S
H2279 C2271 0.929 . S
H2280 C2288 0.929 . S
H2281 C2290 0.930 . S
H2282 C2292 0.930 . S
H2283 C2295 0.929 . S
H2284 C2298 0.930 . S
H2285 C2300 0.960 . S
H2286 C2300 0.960 . S
H2287 C2300 0.960 . S
C2288 H2280 0.929 . S
C2288 C2289 1.377 . S
C2288 C2290 1.384 . S
C2289 C2288 1.377 . S
C2289 C2295 1.390 . S
C2290 H2281 0.930 . S
C2290 C2288 1.384 . S
C2290 C2291 1.372 . S
C2291 C2290 1.372 . S
C2291 C2292 1.400 . S
C2291 C2296 1.490 . S
C2292 H2282 0.930 . S
C2292 C2291 1.400 . S
C2292 C2295 1.386 . S
H2293 C2309 0.930 . S
H2294 C2310 0.931 . S
C2295 H2283 0.929 . S
C2295 C2289 1.390 . S
C2295 C2292 1.386 . S
C2296 C2291 1.490 . S
C2296 C2298 1.395 . S
C2296 C2299 1.403 . S
H2297 C2303 0.930 . S
C2298 H2284 0.930 . S
C2298 C2296 1.395 . S
C2298 C2301 1.403 . S
C2299 C2296 1.403 . S
C2299 C2300 1.524 . S
C2299 C2303 1.400 . S
C2300 H2285 0.960 . S
C2300 H2286 0.960 . S
C2300 H2287 0.960 . S
C2300 C2299 1.524 . S
C2301 C2298 1.403 . S
C2301 C2302 1.392 . S
C2301 C2305 1.495 . S
C2302 C2301 1.392 . S
C2302 C2303 1.385 . S
C2302 C2304 1.478 . S
C2303 H2297 0.930 . S
C2303 C2299 1.400 . S
C2303 C2302 1.385 . S
C2304 C2302 1.478 . S
C2304 C2306 1.381 . S
C2304 C2310 1.383 . S
C2305 C2301 1.495 . S
C2305 H2311 0.959 . S
C2305 H2312 0.961 . S
C2305 H2313 0.960 . S
C2306 C2304 1.381 . S
C2306 C2307 1.394 . S
C2306 H2314 0.930 . S
C2307 C2306 1.394 . S
C2307 C2308 1.383 . S
C2307 H2315 0.929 . S
C2308 C2307 1.383 . S
C2308 C2309 1.377 . S
C2309 H2293 0.930 . S
C2309 C2308 1.377 . S
C2309 C2310 1.379 . S
C2310 H2294 0.931 . S
C2310 C2304 1.383 . S
C2310 C2309 1.379 . S
H2311 C2305 0.959 . S
H2312 C2305 0.961 . S
H2313 C2305 0.960 . S
H2314 C2306 0.930 . S
H2315 C2307 0.929 . S
H2316 C2324 0.929 . S
H2317 C2326 0.930 . S
H2318 C2328 0.930 . S
H2319 C2331 0.929 . S
H2320 C2334 0.930 . S
H2321 C2336 0.960 . S
H2322 C2336 0.960 . S
H2323 C2336 0.960 . S
C2324 H2316 0.929 . S
C2324 C2325 1.377 . S
C2324 C2326 1.384 . S
C2325 C2324 1.377 . S
C2325 C2331 1.390 . S
C2326 H2317 0.930 . S
C2326 C2324 1.384 . S
C2326 C2327 1.372 . S
C2327 C2326 1.372 . S
C2327 C2328 1.400 . S
C2327 C2332 1.490 . S
C2328 H2318 0.930 . S
C2328 C2327 1.400 . S
C2328 C2331 1.386 . S
H2329 C2345 0.930 . S
H2330 C2346 0.931 . S
C2331 H2319 0.929 . S
C2331 C2325 1.390 . S
C2331 C2328 1.386 . S
C2332 C2327 1.490 . S
C2332 C2334 1.395 . S
C2332 C2335 1.403 . S
H2333 C2339 0.930 . S
C2334 H2320 0.930 . S
C2334 C2332 1.395 . S
C2334 C2337 1.403 . S
C2335 C2332 1.403 . S
C2335 C2336 1.524 . S
C2335 C2339 1.400 . S
C2336 H2321 0.960 . S
C2336 H2322 0.960 . S
C2336 H2323 0.960 . S
C2336 C2335 1.524 . S
C2337 C2334 1.403 . S
C2337 C2338 1.392 . S
C2337 C2341 1.495 . S
C2338 C2337 1.392 . S
C2338 C2339 1.385 . S
C2338 C2340 1.478 . S
C2339 H2333 0.930 . S
C2339 C2335 1.400 . S
C2339 C2338 1.385 . S
C2340 C2338 1.478 . S
C2340 C2342 1.381 . S
C2340 C2346 1.383 . S
C2341 C2337 1.495 . S
C2341 H2347 0.959 . S
C2341 H2348 0.961 . S
C2341 H2349 0.960 . S
C2342 C2340 1.381 . S
C2342 C2343 1.394 . S
C2342 H2350 0.930 . S
C2343 C2342 1.394 . S
C2343 C2344 1.383 . S
C2343 H2351 0.929 . S
C2344 C2343 1.383 . S
C2344 C2345 1.377 . S
C2345 H2329 0.930 . S
C2345 C2344 1.377 . S
C2345 C2346 1.379 . S
C2346 H2330 0.931 . S
C2346 C2340 1.383 . S
C2346 C2345 1.379 . S
H2347 C2341 0.959 . S
H2348 C2341 0.961 . S
H2349 C2341 0.960 . S
H2350 C2342 0.930 . S
H2351 C2343 0.929 . S
H2352 C2360 0.929 . S
H2353 C2362 0.930 . S
H2354 C2364 0.930 . S
H2355 C2367 0.929 . S
H2356 C2370 0.930 . S
H2357 C2372 0.960 . S
H2358 C2372 0.960 . S
H2359 C2372 0.960 . S
C2360 H2352 0.929 . S
C2360 C2361 1.377 . S
C2360 C2362 1.384 . S
C2361 C2360 1.377 . S
C2361 C2367 1.390 . S
C2362 H2353 0.930 . S
C2362 C2360 1.384 . S
C2362 C2363 1.372 . S
C2363 C2362 1.372 . S
C2363 C2364 1.400 . S
C2363 C2368 1.490 . S
C2364 H2354 0.930 . S
C2364 C2363 1.400 . S
C2364 C2367 1.386 . S
H2365 C2381 0.930 . S
H2366 C2382 0.931 . S
C2367 H2355 0.929 . S
C2367 C2361 1.390 . S
C2367 C2364 1.386 . S
C2368 C2363 1.490 . S
C2368 C2370 1.395 . S
C2368 C2371 1.403 . S
H2369 C2375 0.930 . S
C2370 H2356 0.930 . S
C2370 C2368 1.395 . S
C2370 C2373 1.403 . S
C2371 C2368 1.403 . S
C2371 C2372 1.524 . S
C2371 C2375 1.400 . S
C2372 H2357 0.960 . S
C2372 H2358 0.960 . S
C2372 H2359 0.960 . S
C2372 C2371 1.524 . S
C2373 C2370 1.403 . S
C2373 C2374 1.392 . S
C2373 C2377 1.495 . S
C2374 C2373 1.392 . S
C2374 C2375 1.385 . S
C2374 C2376 1.478 . S
C2375 H2369 0.930 . S
C2375 C2371 1.400 . S
C2375 C2374 1.385 . S
C2376 C2374 1.478 . S
C2376 C2378 1.381 . S
C2376 C2382 1.383 . S
C2377 C2373 1.495 . S
C2377 H2383 0.959 . S
C2377 H2384 0.961 . S
C2377 H2385 0.960 . S
C2378 C2376 1.381 . S
C2378 C2379 1.394 . S
C2378 H2386 0.930 . S
C2379 C2378 1.394 . S
C2379 C2380 1.383 . S
C2379 H2387 0.929 . S
C2380 C2379 1.383 . S
C2380 C2381 1.377 . S
C2381 H2365 0.930 . S
C2381 C2380 1.377 . S
C2381 C2382 1.379 . S
C2382 H2366 0.931 . S
C2382 C2376 1.383 . S
C2382 C2381 1.379 . S
H2383 C2377 0.959 . S
H2384 C2377 0.961 . S
H2385 C2377 0.960 . S
H2386 C2378 0.930 . S
H2387 C2379 0.929 . S
H2388 C2396 0.929 . S
H2389 C2398 0.930 . S
H2390 C2400 0.930 . S
H2391 C2403 0.929 . S
H2392 C2406 0.930 . S
H2393 C2408 0.960 . S
H2394 C2408 0.960 . S
H2395 C2408 0.960 . S
C2396 H2388 0.929 . S
C2396 C2397 1.377 . S
C2396 C2398 1.384 . S
C2397 C2396 1.377 . S
C2397 C2403 1.390 . S
C2398 H2389 0.930 . S
C2398 C2396 1.384 . S
C2398 C2399 1.372 . S
C2399 C2398 1.372 . S
C2399 C2400 1.400 . S
C2399 C2404 1.490 . S
C2400 H2390 0.930 . S
C2400 C2399 1.400 . S
C2400 C2403 1.386 . S
H2401 C2417 0.930 . S
H2402 C2418 0.931 . S
C2403 H2391 0.929 . S
C2403 C2397 1.390 . S
C2403 C2400 1.386 . S
C2404 C2399 1.490 . S
C2404 C2406 1.395 . S
C2404 C2407 1.403 . S
H2405 C2411 0.930 . S
C2406 H2392 0.930 . S
C2406 C2404 1.395 . S
C2406 C2409 1.403 . S
C2407 C2404 1.403 . S
C2407 C2408 1.524 . S
C2407 C2411 1.400 . S
C2408 H2393 0.960 . S
C2408 H2394 0.960 . S
C2408 H2395 0.960 . S
C2408 C2407 1.524 . S
C2409 C2406 1.403 . S
C2409 C2410 1.392 . S
C2409 C2413 1.495 . S
C2410 C2409 1.392 . S
C2410 C2411 1.385 . S
C2410 C2412 1.478 . S
C2411 H2405 0.930 . S
C2411 C2407 1.400 . S
C2411 C2410 1.385 . S
C2412 C2410 1.478 . S
C2412 C2414 1.381 . S
C2412 C2418 1.383 . S
C2413 C2409 1.495 . S
C2413 H2419 0.959 . S
C2413 H2420 0.961 . S
C2413 H2421 0.960 . S
C2414 C2412 1.381 . S
C2414 C2415 1.394 . S
C2414 H2422 0.930 . S
C2415 C2414 1.394 . S
C2415 C2416 1.383 . S
C2415 H2423 0.929 . S
C2416 C2415 1.383 . S
C2416 C2417 1.377 . S
C2417 H2401 0.930 . S
C2417 C2416 1.377 . S
C2417 C2418 1.379 . S
C2418 H2402 0.931 . S
C2418 C2412 1.383 . S
C2418 C2417 1.379 . S
H2419 C2413 0.959 . S
H2420 C2413 0.961 . S
H2421 C2413 0.960 . S
H2422 C2414 0.930 . S
H2423 C2415 0.929 . S
H2424 C2432 0.929 . S
H2425 C2434 0.930 . S
H2426 C2436 0.930 . S
H2427 C2439 0.929 . S
H2428 C2442 0.930 . S
H2429 C2444 0.960 . S
H2430 C2444 0.960 . S
H2431 C2444 0.960 . S
C2432 H2424 0.929 . S
C2432 C2433 1.377 . S
C2432 C2434 1.384 . S
C2433 C2432 1.377 . S
C2433 C2439 1.390 . S
C2434 H2425 0.930 . S
C2434 C2432 1.384 . S
C2434 C2435 1.372 . S
C2435 C2434 1.372 . S
C2435 C2436 1.400 . S
C2435 C2440 1.490 . S
C2436 H2426 0.930 . S
C2436 C2435 1.400 . S
C2436 C2439 1.386 . S
H2437 C2453 0.930 . S
H2438 C2454 0.931 . S
C2439 H2427 0.929 . S
C2439 C2433 1.390 . S
C2439 C2436 1.386 . S
C2440 C2435 1.490 . S
C2440 C2442 1.395 . S
C2440 C2443 1.403 . S
H2441 C2447 0.930 . S
C2442 H2428 0.930 . S
C2442 C2440 1.395 . S
C2442 C2445 1.403 . S
C2443 C2440 1.403 . S
C2443 C2444 1.524 . S
C2443 C2447 1.400 . S
C2444 H2429 0.960 . S
C2444 H2430 0.960 . S
C2444 H2431 0.960 . S
C2444 C2443 1.524 . S
C2445 C2442 1.403 . S
C2445 C2446 1.392 . S
C2445 C2449 1.495 . S
C2446 C2445 1.392 . S
C2446 C2447 1.385 . S
C2446 C2448 1.478 . S
C2447 H2441 0.930 . S
C2447 C2443 1.400 . S
C2447 C2446 1.385 . S
C2448 C2446 1.478 . S
C2448 C2450 1.381 . S
C2448 C2454 1.383 . S
C2449 C2445 1.495 . S
C2449 H2455 0.959 . S
C2449 H2456 0.961 . S
C2449 H2457 0.960 . S
C2450 C2448 1.381 . S
C2450 C2451 1.394 . S
C2450 H2458 0.930 . S
C2451 C2450 1.394 . S
C2451 C2452 1.383 . S
C2451 H2459 0.929 . S
C2452 C2451 1.383 . S
C2452 C2453 1.377 . S
C2453 H2437 0.930 . S
C2453 C2452 1.377 . S
C2453 C2454 1.379 . S
C2454 H2438 0.931 . S
C2454 C2448 1.383 . S
C2454 C2453 1.379 . S
H2455 C2449 0.959 . S
H2456 C2449 0.961 . S
H2457 C2449 0.960 . S
H2458 C2450 0.930 . S
H2459 C2451 0.929 . S
H2460 C2468 0.929 . S
H2461 C2470 0.930 . S
H2462 C2472 0.930 . S
H2463 C2475 0.929 . S
H2464 C2478 0.930 . S
H2465 C2480 0.960 . S
H2466 C2480 0.960 . S
H2467 C2480 0.960 . S
C2468 H2460 0.929 . S
C2468 C2469 1.377 . S
C2468 C2470 1.384 . S
C2469 C2468 1.377 . S
C2469 C2475 1.390 . S
C2470 H2461 0.930 . S
C2470 C2468 1.384 . S
C2470 C2471 1.372 . S
C2471 C2470 1.372 . S
C2471 C2472 1.400 . S
C2471 C2476 1.490 . S
C2472 H2462 0.930 . S
C2472 C2471 1.400 . S
C2472 C2475 1.386 . S
H2473 C2489 0.930 . S
H2474 C2490 0.931 . S
C2475 H2463 0.929 . S
C2475 C2469 1.390 . S
C2475 C2472 1.386 . S
C2476 C2471 1.490 . S
C2476 C2478 1.395 . S
C2476 C2479 1.403 . S
H2477 C2483 0.930 . S
C2478 H2464 0.930 . S
C2478 C2476 1.395 . S
C2478 C2481 1.403 . S
C2479 C2476 1.403 . S
C2479 C2480 1.524 . S
C2479 C2483 1.400 . S
C2480 H2465 0.960 . S
C2480 H2466 0.960 . S
C2480 H2467 0.960 . S
C2480 C2479 1.524 . S
C2481 C2478 1.403 . S
C2481 C2482 1.392 . S
C2481 C2485 1.495 . S
C2482 C2481 1.392 . S
C2482 C2483 1.385 . S
C2482 C2484 1.478 . S
C2483 H2477 0.930 . S
C2483 C2479 1.400 . S
C2483 C2482 1.385 . S
C2484 C2482 1.478 . S
C2484 C2486 1.381 . S
C2484 C2490 1.383 . S
C2485 C2481 1.495 . S
C2485 H2491 0.959 . S
C2485 H2492 0.961 . S
C2485 H2493 0.960 . S
C2486 C2484 1.381 . S
C2486 C2487 1.394 . S
C2486 H2494 0.930 . S
C2487 C2486 1.394 . S
C2487 C2488 1.383 . S
C2487 H2495 0.929 . S
C2488 C2487 1.383 . S
C2488 C2489 1.377 . S
C2489 H2473 0.930 . S
C2489 C2488 1.377 . S
C2489 C2490 1.379 . S
C2490 H2474 0.931 . S
C2490 C2484 1.383 . S
C2490 C2489 1.379 . S
H2491 C2485 0.959 . S
H2492 C2485 0.961 . S
H2493 C2485 0.960 . S
H2494 C2486 0.930 . S
H2495 C2487 0.929 . S
H2496 C2504 0.929 . S
H2497 C2506 0.930 . S
H2498 C2508 0.930 . S
H2499 C2511 0.929 . S
H2500 C2514 0.930 . S
H2501 C2516 0.960 . S
H2502 C2516 0.960 . S
H2503 C2516 0.960 . S
C2504 H2496 0.929 . S
C2504 C2505 1.377 . S
C2504 C2506 1.384 . S
C2505 C2504 1.377 . S
C2505 C2511 1.390 . S
C2506 H2497 0.930 . S
C2506 C2504 1.384 . S
C2506 C2507 1.372 . S
C2507 C2506 1.372 . S
C2507 C2508 1.400 . S
C2507 C2512 1.490 . S
C2508 H2498 0.930 . S
C2508 C2507 1.400 . S
C2508 C2511 1.386 . S
H2509 C2525 0.930 . S
H2510 C2526 0.931 . S
C2511 H2499 0.929 . S
C2511 C2505 1.390 . S
C2511 C2508 1.386 . S
C2512 C2507 1.490 . S
C2512 C2514 1.395 . S
C2512 C2515 1.403 . S
H2513 C2519 0.930 . S
C2514 H2500 0.930 . S
C2514 C2512 1.395 . S
C2514 C2517 1.403 . S
C2515 C2512 1.403 . S
C2515 C2516 1.524 . S
C2515 C2519 1.400 . S
C2516 H2501 0.960 . S
C2516 H2502 0.960 . S
C2516 H2503 0.960 . S
C2516 C2515 1.524 . S
C2517 C2514 1.403 . S
C2517 C2518 1.392 . S
C2517 C2521 1.495 . S
C2518 C2517 1.392 . S
C2518 C2519 1.385 . S
C2518 C2520 1.478 . S
C2519 H2513 0.930 . S
C2519 C2515 1.400 . S
C2519 C2518 1.385 . S
C2520 C2518 1.478 . S
C2520 C2522 1.381 . S
C2520 C2526 1.383 . S
C2521 C2517 1.495 . S
C2521 H2527 0.959 . S
C2521 H2528 0.961 . S
C2521 H2529 0.960 . S
C2522 C2520 1.381 . S
C2522 C2523 1.394 . S
C2522 H2530 0.930 . S
C2523 C2522 1.394 . S
C2523 C2524 1.383 . S
C2523 H2531 0.929 . S
C2524 C2523 1.383 . S
C2524 C2525 1.377 . S
C2525 H2509 0.930 . S
C2525 C2524 1.377 . S
C2525 C2526 1.379 . S
C2526 H2510 0.931 . S
C2526 C2520 1.383 . S
C2526 C2525 1.379 . S
H2527 C2521 0.959 . S
H2528 C2521 0.961 . S
H2529 C2521 0.960 . S
H2530 C2522 0.930 . S
H2531 C2523 0.929 . S
H2532 C2540 0.929 . S
H2533 C2542 0.930 . S
H2534 C2544 0.930 . S
H2535 C2547 0.929 . S
H2536 C2550 0.930 . S
H2537 C2552 0.960 . S
H2538 C2552 0.960 . S
H2539 C2552 0.960 . S
C2540 H2532 0.929 . S
C2540 C2541 1.377 . S
C2540 C2542 1.384 . S
C2541 C2540 1.377 . S
C2541 C2547 1.390 . S
C2542 H2533 0.930 . S
C2542 C2540 1.384 . S
C2542 C2543 1.372 . S
C2543 C2542 1.372 . S
C2543 C2544 1.400 . S
C2543 C2548 1.490 . S
C2544 H2534 0.930 . S
C2544 C2543 1.400 . S
C2544 C2547 1.386 . S
H2545 C2561 0.930 . S
H2546 C2562 0.931 . S
C2547 H2535 0.929 . S
C2547 C2541 1.390 . S
C2547 C2544 1.386 . S
C2548 C2543 1.490 . S
C2548 C2550 1.395 . S
C2548 C2551 1.403 . S
H2549 C2555 0.930 . S
C2550 H2536 0.930 . S
C2550 C2548 1.395 . S
C2550 C2553 1.403 . S
C2551 C2548 1.403 . S
C2551 C2552 1.524 . S
C2551 C2555 1.400 . S
C2552 H2537 0.960 . S
C2552 H2538 0.960 . S
C2552 H2539 0.960 . S
C2552 C2551 1.524 . S
C2553 C2550 1.403 . S
C2553 C2554 1.392 . S
C2553 C2557 1.495 . S
C2554 C2553 1.392 . S
C2554 C2555 1.385 . S
C2554 C2556 1.478 . S
C2555 H2549 0.930 . S
C2555 C2551 1.400 . S
C2555 C2554 1.385 . S
C2556 C2554 1.478 . S
C2556 C2558 1.381 . S
C2556 C2562 1.383 . S
C2557 C2553 1.495 . S
C2557 H2563 0.959 . S
C2557 H2564 0.961 . S
C2557 H2565 0.960 . S
C2558 C2556 1.381 . S
C2558 C2559 1.394 . S
C2558 H2566 0.930 . S
C2559 C2558 1.394 . S
C2559 C2560 1.383 . S
C2559 H2567 0.929 . S
C2560 C2559 1.383 . S
C2560 C2561 1.377 . S
C2561 H2545 0.930 . S
C2561 C2560 1.377 . S
C2561 C2562 1.379 . S
C2562 H2546 0.931 . S
C2562 C2556 1.383 . S
C2562 C2561 1.379 . S
H2563 C2557 0.959 . S
H2564 C2557 0.961 . S
H2565 C2557 0.960 . S
H2566 C2558 0.930 . S
H2567 C2559 0.929 . S
H2568 C2576 0.929 . S
H2569 C2578 0.930 . S
H2570 C2580 0.930 . S
H2571 C2583 0.929 . S
H2572 C2586 0.930 . S
H2573 C2588 0.960 . S
H2574 C2588 0.960 . S
H2575 C2588 0.960 . S
C2576 H2568 0.929 . S
C2576 C2577 1.377 . S
C2576 C2578 1.384 . S
C2577 C2576 1.377 . S
C2577 C2583 1.390 . S
C2578 H2569 0.930 . S
C2578 C2576 1.384 . S
C2578 C2579 1.372 . S
C2579 C2578 1.372 . S
C2579 C2580 1.400 . S
C2579 C2584 1.490 . S
C2580 H2570 0.930 . S
C2580 C2579 1.400 . S
C2580 C2583 1.386 . S
H2581 C2597 0.930 . S
H2582 C2598 0.931 . S
C2583 H2571 0.929 . S
C2583 C2577 1.390 . S
C2583 C2580 1.386 . S
C2584 C2579 1.490 . S
C2584 C2586 1.395 . S
C2584 C2587 1.403 . S
H2585 C2591 0.930 . S
C2586 H2572 0.930 . S
C2586 C2584 1.395 . S
C2586 C2589 1.403 . S
C2587 C2584 1.403 . S
C2587 C2588 1.524 . S
C2587 C2591 1.400 . S
C2588 H2573 0.960 . S
C2588 H2574 0.960 . S
C2588 H2575 0.960 . S
C2588 C2587 1.524 . S
C2589 C2586 1.403 . S
C2589 C2590 1.392 . S
C2589 C2593 1.495 . S
C2590 C2589 1.392 . S
C2590 C2591 1.385 . S
C2590 C2592 1.478 . S
C2591 H2585 0.930 . S
C2591 C2587 1.400 . S
C2591 C2590 1.385 . S
C2592 C2590 1.478 . S
C2592 C2594 1.381 . S
C2592 C2598 1.383 . S
C2593 C2589 1.495 . S
C2593 H2599 0.959 . S
C2593 H2600 0.961 . S
C2593 H2601 0.960 . S
C2594 C2592 1.381 . S
C2594 C2595 1.394 . S
C2594 H2602 0.930 . S
C2595 C2594 1.394 . S
C2595 C2596 1.383 . S
C2595 H2603 0.929 . S
C2596 C2595 1.383 . S
C2596 C2597 1.377 . S
C2597 H2581 0.930 . S
C2597 C2596 1.377 . S
C2597 C2598 1.379 . S
C2598 H2582 0.931 . S
C2598 C2592 1.383 . S
C2598 C2597 1.379 . S
H2599 C2593 0.959 . S
H2600 C2593 0.961 . S
H2601 C2593 0.960 . S
H2602 C2594 0.930 . S
H2603 C2595 0.929 . S
H2604 C2612 0.929 . S
H2605 C2614 0.930 . S
H2606 C2616 0.930 . S
H2607 C2619 0.929 . S
H2608 C2622 0.930 . S
H2609 C2624 0.960 . S
H2610 C2624 0.960 . S
H2611 C2624 0.960 . S
C2612 H2604 0.929 . S
C2612 C2613 1.377 . S
C2612 C2614 1.384 . S
C2613 C2612 1.377 . S
C2613 C2619 1.390 . S
C2614 H2605 0.930 . S
C2614 C2612 1.384 . S
C2614 C2615 1.372 . S
C2615 C2614 1.372 . S
C2615 C2616 1.400 . S
C2615 C2620 1.490 . S
C2616 H2606 0.930 . S
C2616 C2615 1.400 . S
C2616 C2619 1.386 . S
H2617 C2633 0.930 . S
H2618 C2634 0.931 . S
C2619 H2607 0.929 . S
C2619 C2613 1.390 . S
C2619 C2616 1.386 . S
C2620 C2615 1.490 . S
C2620 C2622 1.395 . S
C2620 C2623 1.403 . S
H2621 C2627 0.930 . S
C2622 H2608 0.930 . S
C2622 C2620 1.395 . S
C2622 C2625 1.403 . S
C2623 C2620 1.403 . S
C2623 C2624 1.524 . S
C2623 C2627 1.400 . S
C2624 H2609 0.960 . S
C2624 H2610 0.960 . S
C2624 H2611 0.960 . S
C2624 C2623 1.524 . S
C2625 C2622 1.403 . S
C2625 C2626 1.392 . S
C2625 C2629 1.495 . S
C2626 C2625 1.392 . S
C2626 C2627 1.385 . S
C2626 C2628 1.478 . S
C2627 H2621 0.930 . S
C2627 C2623 1.400 . S
C2627 C2626 1.385 . S
C2628 C2626 1.478 . S
C2628 C2630 1.381 . S
C2628 C2634 1.383 . S
C2629 C2625 1.495 . S
C2629 H2635 0.959 . S
C2629 H2636 0.961 . S
C2629 H2637 0.960 . S
C2630 C2628 1.381 . S
C2630 C2631 1.394 . S
C2630 H2638 0.930 . S
C2631 C2630 1.394 . S
C2631 C2632 1.383 . S
C2631 H2639 0.929 . S
C2632 C2631 1.383 . S
C2632 C2633 1.377 . S
C2633 H2617 0.930 . S
C2633 C2632 1.377 . S
C2633 C2634 1.379 . S
C2634 H2618 0.931 . S
C2634 C2628 1.383 . S
C2634 C2633 1.379 . S
H2635 C2629 0.959 . S
H2636 C2629 0.961 . S
H2637 C2629 0.960 . S
H2638 C2630 0.930 . S
H2639 C2631 0.929 . S
H2640 C2648 0.929 . S
H2641 C2650 0.930 . S
H2642 C2652 0.930 . S
H2643 C2655 0.929 . S
H2644 C2658 0.930 . S
H2645 C2660 0.960 . S
H2646 C2660 0.960 . S
H2647 C2660 0.960 . S
C2648 H2640 0.929 . S
C2648 C2649 1.377 . S
C2648 C2650 1.384 . S
C2649 C2648 1.377 . S
C2649 C2655 1.390 . S
C2650 H2641 0.930 . S
C2650 C2648 1.384 . S
C2650 C2651 1.372 . S
C2651 C2650 1.372 . S
C2651 C2652 1.400 . S
C2651 C2656 1.490 . S
C2652 H2642 0.930 . S
C2652 C2651 1.400 . S
C2652 C2655 1.386 . S
H2653 C2669 0.930 . S
H2654 C2670 0.931 . S
C2655 H2643 0.929 . S
C2655 C2649 1.390 . S
C2655 C2652 1.386 . S
C2656 C2651 1.490 . S
C2656 C2658 1.395 . S
C2656 C2659 1.403 . S
H2657 C2663 0.930 . S
C2658 H2644 0.930 . S
C2658 C2656 1.395 . S
C2658 C2661 1.403 . S
C2659 C2656 1.403 . S
C2659 C2660 1.524 . S
C2659 C2663 1.400 . S
C2660 H2645 0.960 . S
C2660 H2646 0.960 . S
C2660 H2647 0.960 . S
C2660 C2659 1.524 . S
C2661 C2658 1.403 . S
C2661 C2662 1.392 . S
C2661 C2665 1.495 . S
C2662 C2661 1.392 . S
C2662 C2663 1.385 . S
C2662 C2664 1.478 . S
C2663 H2657 0.930 . S
C2663 C2659 1.400 . S
C2663 C2662 1.385 . S
C2664 C2662 1.478 . S
C2664 C2666 1.381 . S
C2664 C2670 1.383 . S
C2665 C2661 1.495 . S
C2665 H2671 0.959 . S
C2665 H2672 0.961 . S
C2665 H2673 0.960 . S
C2666 C2664 1.381 . S
C2666 C2667 1.394 . S
C2666 H2674 0.930 . S
C2667 C2666 1.394 . S
C2667 C2668 1.383 . S
C2667 H2675 0.929 . S
C2668 C2667 1.383 . S
C2668 C2669 1.377 . S
C2669 H2653 0.930 . S
C2669 C2668 1.377 . S
C2669 C2670 1.379 . S
C2670 H2654 0.931 . S
C2670 C2664 1.383 . S
C2670 C2669 1.379 . S
H2671 C2665 0.959 . S
H2672 C2665 0.961 . S
H2673 C2665 0.960 . S
H2674 C2666 0.930 . S
H2675 C2667 0.929 . S
H2676 C2684 0.929 . S
H2677 C2686 0.930 . S
H2678 C2688 0.930 . S
H2679 C2691 0.929 . S
H2680 C2694 0.930 . S
H2681 C2696 0.960 . S
H2682 C2696 0.960 . S
H2683 C2696 0.960 . S
C2684 H2676 0.929 . S
C2684 C2685 1.377 . S
C2684 C2686 1.384 . S
C2685 C2684 1.377 . S
C2685 C2691 1.390 . S
C2686 H2677 0.930 . S
C2686 C2684 1.384 . S
C2686 C2687 1.372 . S
C2687 C2686 1.372 . S
C2687 C2688 1.400 . S
C2687 C2692 1.490 . S
C2688 H2678 0.930 . S
C2688 C2687 1.400 . S
C2688 C2691 1.386 . S
H2689 C2705 0.930 . S
H2690 C2706 0.931 . S
C2691 H2679 0.929 . S
C2691 C2685 1.390 . S
C2691 C2688 1.386 . S
C2692 C2687 1.490 . S
C2692 C2694 1.395 . S
C2692 C2695 1.403 . S
H2693 C2699 0.930 . S
C2694 H2680 0.930 . S
C2694 C2692 1.395 . S
C2694 C2697 1.403 . S
C2695 C2692 1.403 . S
C2695 C2696 1.524 . S
C2695 C2699 1.400 . S
C2696 H2681 0.960 . S
C2696 H2682 0.960 . S
C2696 H2683 0.960 . S
C2696 C2695 1.524 . S
C2697 C2694 1.403 . S
C2697 C2698 1.392 . S
C2697 C2701 1.495 . S
C2698 C2697 1.392 . S
C2698 C2699 1.385 . S
C2698 C2700 1.478 . S
C2699 H2693 0.930 . S
C2699 C2695 1.400 . S
C2699 C2698 1.385 . S
C2700 C2698 1.478 . S
C2700 C2702 1.381 . S
C2700 C2706 1.383 . S
C2701 C2697 1.495 . S
C2701 H2707 0.959 . S
C2701 H2708 0.961 . S
C2701 H2709 0.960 . S
C2702 C2700 1.381 . S
C2702 C2703 1.394 . S
C2702 H2710 0.930 . S
C2703 C2702 1.394 . S
C2703 C2704 1.383 . S
C2703 H2711 0.929 . S
C2704 C2703 1.383 . S
C2704 C2705 1.377 . S
C2705 H2689 0.930 . S
C2705 C2704 1.377 . S
C2705 C2706 1.379 . S
C2706 H2690 0.931 . S
C2706 C2700 1.383 . S
C2706 C2705 1.379 . S
H2707 C2701 0.959 . S
H2708 C2701 0.961 . S
H2709 C2701 0.960 . S
H2710 C2702 0.930 . S
H2711 C2703 0.929 . S
H2712 C2720 0.929 . S
H2713 C2722 0.930 . S
H2714 C2724 0.930 . S
H2715 C2727 0.929 . S
H2716 C2730 0.930 . S
H2717 C2732 0.960 . S
H2718 C2732 0.960 . S
H2719 C2732 0.960 . S
C2720 H2712 0.929 . S
C2720 C2721 1.377 . S
C2720 C2722 1.384 . S
C2721 C2720 1.377 . S
C2721 C2727 1.390 . S
C2722 H2713 0.930 . S
C2722 C2720 1.384 . S
C2722 C2723 1.372 . S
C2723 C2722 1.372 . S
C2723 C2724 1.400 . S
C2723 C2728 1.490 . S
C2724 H2714 0.930 . S
C2724 C2723 1.400 . S
C2724 C2727 1.386 . S
H2725 C2741 0.930 . S
H2726 C2742 0.931 . S
C2727 H2715 0.929 . S
C2727 C2721 1.390 . S
C2727 C2724 1.386 . S
C2728 C2723 1.490 . S
C2728 C2730 1.395 . S
C2728 C2731 1.403 . S
H2729 C2735 0.930 . S
C2730 H2716 0.930 . S
C2730 C2728 1.395 . S
C2730 C2733 1.403 . S
C2731 C2728 1.403 . S
C2731 C2732 1.524 . S
C2731 C2735 1.400 . S
C2732 H2717 0.960 . S
C2732 H2718 0.960 . S
C2732 H2719 0.960 . S
C2732 C2731 1.524 . S
C2733 C2730 1.403 . S
C2733 C2734 1.392 . S
C2733 C2737 1.495 . S
C2734 C2733 1.392 . S
C2734 C2735 1.385 . S
C2734 C2736 1.478 . S
C2735 H2729 0.930 . S
C2735 C2731 1.400 . S
C2735 C2734 1.385 . S
C2736 C2734 1.478 . S
C2736 C2738 1.381 . S
C2736 C2742 1.383 . S
C2737 C2733 1.495 . S
C2737 H2743 0.959 . S
C2737 H2744 0.961 . S
C2737 H2745 0.960 . S
C2738 C2736 1.381 . S
C2738 C2739 1.394 . S
C2738 H2746 0.930 . S
C2739 C2738 1.394 . S
C2739 C2740 1.383 . S
C2739 H2747 0.929 . S
C2740 C2739 1.383 . S
C2740 C2741 1.377 . S
C2741 H2725 0.930 . S
C2741 C2740 1.377 . S
C2741 C2742 1.379 . S
C2742 H2726 0.931 . S
C2742 C2736 1.383 . S
C2742 C2741 1.379 . S
H2743 C2737 0.959 . S
H2744 C2737 0.961 . S
H2745 C2737 0.960 . S
H2746 C2738 0.930 . S
H2747 C2739 0.929 . S
H2748 C2756 0.929 . S
H2749 C2758 0.930 . S
H2750 C2760 0.930 . S
H2751 C2763 0.929 . S
H2752 C2766 0.930 . S
H2753 C2768 0.960 . S
H2754 C2768 0.960 . S
H2755 C2768 0.960 . S
C2756 H2748 0.929 . S
C2756 C2757 1.377 . S
C2756 C2758 1.384 . S
C2757 C2756 1.377 . S
C2757 C2763 1.390 . S
C2758 H2749 0.930 . S
C2758 C2756 1.384 . S
C2758 C2759 1.372 . S
C2759 C2758 1.372 . S
C2759 C2760 1.400 . S
C2759 C2764 1.490 . S
C2760 H2750 0.930 . S
C2760 C2759 1.400 . S
C2760 C2763 1.386 . S
H2761 C2777 0.930 . S
H2762 C2778 0.931 . S
C2763 H2751 0.929 . S
C2763 C2757 1.390 . S
C2763 C2760 1.386 . S
C2764 C2759 1.490 . S
C2764 C2766 1.395 . S
C2764 C2767 1.403 . S
H2765 C2771 0.930 . S
C2766 H2752 0.930 . S
C2766 C2764 1.395 . S
C2766 C2769 1.403 . S
C2767 C2764 1.403 . S
C2767 C2768 1.524 . S
C2767 C2771 1.400 . S
C2768 H2753 0.960 . S
C2768 H2754 0.960 . S
C2768 H2755 0.960 . S
C2768 C2767 1.524 . S
C2769 C2766 1.403 . S
C2769 C2770 1.392 . S
C2769 C2773 1.495 . S
C2770 C2769 1.392 . S
C2770 C2771 1.385 . S
C2770 C2772 1.478 . S
C2771 H2765 0.930 . S
C2771 C2767 1.400 . S
C2771 C2770 1.385 . S
C2772 C2770 1.478 . S
C2772 C2774 1.381 . S
C2772 C2778 1.383 . S
C2773 C2769 1.495 . S
C2773 H2779 0.959 . S
C2773 H2780 0.961 . S
C2773 H2781 0.960 . S
C2774 C2772 1.381 . S
C2774 C2775 1.394 . S
C2774 H2782 0.930 . S
C2775 C2774 1.394 . S
C2775 C2776 1.383 . S
C2775 H2783 0.929 . S
C2776 C2775 1.383 . S
C2776 C2777 1.377 . S
C2777 H2761 0.930 . S
C2777 C2776 1.377 . S
C2777 C2778 1.379 . S
C2778 H2762 0.931 . S
C2778 C2772 1.383 . S
C2778 C2777 1.379 . S
H2779 C2773 0.959 . S
H2780 C2773 0.961 . S
H2781 C2773 0.960 . S
H2782 C2774 0.930 . S
H2783 C2775 0.929 . S
H2784 C2792 0.929 . S
H2785 C2794 0.930 . S
H2786 C2796 0.930 . S
H2787 C2799 0.929 . S
H2788 C2802 0.930 . S
H2789 C2804 0.960 . S
H2790 C2804 0.960 . S
H2791 C2804 0.960 . S
C2792 H2784 0.929 . S
C2792 C2793 1.377 . S
C2792 C2794 1.384 . S
C2793 C2792 1.377 . S
C2793 C2799 1.390 . S
C2794 H2785 0.930 . S
C2794 C2792 1.384 . S
C2794 C2795 1.372 . S
C2795 C2794 1.372 . S
C2795 C2796 1.400 . S
C2795 C2800 1.490 . S
C2796 H2786 0.930 . S
C2796 C2795 1.400 . S
C2796 C2799 1.386 . S
H2797 C2813 0.930 . S
H2798 C2814 0.931 . S
C2799 H2787 0.929 . S
C2799 C2793 1.390 . S
C2799 C2796 1.386 . S
C2800 C2795 1.490 . S
C2800 C2802 1.395 . S
C2800 C2803 1.403 . S
H2801 C2807 0.930 . S
C2802 H2788 0.930 . S
C2802 C2800 1.395 . S
C2802 C2805 1.403 . S
C2803 C2800 1.403 . S
C2803 C2804 1.524 . S
C2803 C2807 1.400 . S
C2804 H2789 0.960 . S
C2804 H2790 0.960 . S
C2804 H2791 0.960 . S
C2804 C2803 1.524 . S
C2805 C2802 1.403 . S
C2805 C2806 1.392 . S
C2805 C2809 1.495 . S
C2806 C2805 1.392 . S
C2806 C2807 1.385 . S
C2806 C2808 1.478 . S
C2807 H2801 0.930 . S
C2807 C2803 1.400 . S
C2807 C2806 1.385 . S
C2808 C2806 1.478 . S
C2808 C2810 1.381 . S
C2808 C2814 1.383 . S
C2809 C2805 1.495 . S
C2809 H2815 0.959 . S
C2809 H2816 0.961 . S
C2809 H2817 0.960 . S
C2810 C2808 1.381 . S
C2810 C2811 1.394 . S
C2810 H2818 0.930 . S
C2811 C2810 1.394 . S
C2811 C2812 1.383 . S
C2811 H2819 0.929 . S
C2812 C2811 1.383 . S
C2812 C2813 1.377 . S
C2813 H2797 0.930 . S
C2813 C2812 1.377 . S
C2813 C2814 1.379 . S
C2814 H2798 0.931 . S
C2814 C2808 1.383 . S
C2814 C2813 1.379 . S
H2815 C2809 0.959 . S
H2816 C2809 0.961 . S
H2817 C2809 0.960 . S
H2818 C2810 0.930 . S
H2819 C2811 0.929 . S
H2820 C2828 0.929 . S
H2821 C2830 0.930 . S
H2822 C2832 0.930 . S
H2823 C2835 0.929 . S
H2824 C2838 0.930 . S
H2825 C2840 0.960 . S
H2826 C2840 0.960 . S
H2827 C2840 0.960 . S
C2828 H2820 0.929 . S
C2828 C2829 1.377 . S
C2828 C2830 1.384 . S
C2829 C2828 1.377 . S
C2829 C2835 1.390 . S
C2830 H2821 0.930 . S
C2830 C2828 1.384 . S
C2830 C2831 1.372 . S
C2831 C2830 1.372 . S
C2831 C2832 1.400 . S
C2831 C2836 1.490 . S
C2832 H2822 0.930 . S
C2832 C2831 1.400 . S
C2832 C2835 1.386 . S
H2833 C2849 0.930 . S
H2834 C2850 0.931 . S
C2835 H2823 0.929 . S
C2835 C2829 1.390 . S
C2835 C2832 1.386 . S
C2836 C2831 1.490 . S
C2836 C2838 1.395 . S
C2836 C2839 1.403 . S
H2837 C2843 0.930 . S
C2838 H2824 0.930 . S
C2838 C2836 1.395 . S
C2838 C2841 1.403 . S
C2839 C2836 1.403 . S
C2839 C2840 1.524 . S
C2839 C2843 1.400 . S
C2840 H2825 0.960 . S
C2840 H2826 0.960 . S
C2840 H2827 0.960 . S
C2840 C2839 1.524 . S
C2841 C2838 1.403 . S
C2841 C2842 1.392 . S
C2841 C2845 1.495 . S
C2842 C2841 1.392 . S
C2842 C2843 1.385 . S
C2842 C2844 1.478 . S
C2843 H2837 0.930 . S
C2843 C2839 1.400 . S
C2843 C2842 1.385 . S
C2844 C2842 1.478 . S
C2844 C2846 1.381 . S
C2844 C2850 1.383 . S
C2845 C2841 1.495 . S
C2845 H2851 0.959 . S
C2845 H2852 0.961 . S
C2845 H2853 0.960 . S
C2846 C2844 1.381 . S
C2846 C2847 1.394 . S
C2846 H2854 0.930 . S
C2847 C2846 1.394 . S
C2847 C2848 1.383 . S
C2847 H2855 0.929 . S
C2848 C2847 1.383 . S
C2848 C2849 1.377 . S
C2849 H2833 0.930 . S
C2849 C2848 1.377 . S
C2849 C2850 1.379 . S
C2850 H2834 0.931 . S
C2850 C2844 1.383 . S
C2850 C2849 1.379 . S
H2851 C2845 0.959 . S
H2852 C2845 0.961 . S
H2853 C2845 0.960 . S
H2854 C2846 0.930 . S
H2855 C2847 0.929 . S
H2856 C2864 0.929 . S
H2857 C2866 0.930 . S
H2858 C2868 0.930 . S
H2859 C2871 0.929 . S
H2860 C2874 0.930 . S
H2861 C2876 0.960 . S
H2862 C2876 0.960 . S
H2863 C2876 0.960 . S
C2864 H2856 0.929 . S
C2864 C2865 1.377 . S
C2864 C2866 1.384 . S
C2865 C2864 1.377 . S
C2865 C2871 1.390 . S
C2866 H2857 0.930 . S
C2866 C2864 1.384 . S
C2866 C2867 1.372 . S
C2867 C2866 1.372 . S
C2867 C2868 1.400 . S
C2867 C2872 1.490 . S
C2868 H2858 0.930 . S
C2868 C2867 1.400 . S
C2868 C2871 1.386 . S
H2869 C2885 0.930 . S
H2870 C2886 0.931 . S
C2871 H2859 0.929 . S
C2871 C2865 1.390 . S
C2871 C2868 1.386 . S
C2872 C2867 1.490 . S
C2872 C2874 1.395 . S
C2872 C2875 1.403 . S
H2873 C2879 0.930 . S
C2874 H2860 0.930 . S
C2874 C2872 1.395 . S
C2874 C2877 1.403 . S
C2875 C2872 1.403 . S
C2875 C2876 1.524 . S
C2875 C2879 1.400 . S
C2876 H2861 0.960 . S
C2876 H2862 0.960 . S
C2876 H2863 0.960 . S
C2876 C2875 1.524 . S
C2877 C2874 1.403 . S
C2877 C2878 1.392 . S
C2877 C2881 1.495 . S
C2878 C2877 1.392 . S
C2878 C2879 1.385 . S
C2878 C2880 1.478 . S
C2879 H2873 0.930 . S
C2879 C2875 1.400 . S
C2879 C2878 1.385 . S
C2880 C2878 1.478 . S
C2880 C2882 1.381 . S
C2880 C2886 1.383 . S
C2881 C2877 1.495 . S
C2881 H2887 0.959 . S
C2881 H2888 0.961 . S
C2881 H2889 0.960 . S
C2882 C2880 1.381 . S
C2882 C2883 1.394 . S
C2882 H2890 0.930 . S
C2883 C2882 1.394 . S
C2883 C2884 1.383 . S
C2883 H2891 0.929 . S
C2884 C2883 1.383 . S
C2884 C2885 1.377 . S
C2885 H2869 0.930 . S
C2885 C2884 1.377 . S
C2885 C2886 1.379 . S
C2886 H2870 0.931 . S
C2886 C2880 1.383 . S
C2886 C2885 1.379 . S
H2887 C2881 0.959 . S
H2888 C2881 0.961 . S
H2889 C2881 0.960 . S
H2890 C2882 0.930 . S
H2891 C2883 0.929 . S
H2892 C2900 0.929 . S
H2893 C2902 0.930 . S
H2894 C2904 0.930 . S
H2895 C2907 0.929 . S
H2896 C2910 0.930 . S
H2897 C2912 0.960 . S
H2898 C2912 0.960 . S
H2899 C2912 0.960 . S
C2900 H2892 0.929 . S
C2900 C2901 1.377 . S
C2900 C2902 1.384 . S
C2901 C2900 1.377 . S
C2901 C2907 1.390 . S
C2902 H2893 0.930 . S
C2902 C2900 1.384 . S
C2902 C2903 1.372 . S
C2903 C2902 1.372 . S
C2903 C2904 1.400 . S
C2903 C2908 1.490 . S
C2904 H2894 0.930 . S
C2904 C2903 1.400 . S
C2904 C2907 1.386 . S
H2905 C2921 0.930 . S
H2906 C2922 0.931 . S
C2907 H2895 0.929 . S
C2907 C2901 1.390 . S
C2907 C2904 1.386 . S
C2908 C2903 1.490 . S
C2908 C2910 1.395 . S
C2908 C2911 1.403 . S
H2909 C2915 0.930 . S
C2910 H2896 0.930 . S
C2910 C2908 1.395 . S
C2910 C2913 1.403 . S
C2911 C2908 1.403 . S
C2911 C2912 1.524 . S
C2911 C2915 1.400 . S
C2912 H2897 0.960 . S
C2912 H2898 0.960 . S
C2912 H2899 0.960 . S
C2912 C2911 1.524 . S
C2913 C2910 1.403 . S
C2913 C2914 1.392 . S
C2913 C2917 1.495 . S
C2914 C2913 1.392 . S
C2914 C2915 1.385 . S
C2914 C2916 1.478 . S
C2915 H2909 0.930 . S
C2915 C2911 1.400 . S
C2915 C2914 1.385 . S
C2916 C2914 1.478 . S
C2916 C2918 1.381 . S
C2916 C2922 1.383 . S
C2917 C2913 1.495 . S
C2917 H2923 0.959 . S
C2917 H2924 0.961 . S
C2917 H2925 0.960 . S
C2918 C2916 1.381 . S
C2918 C2919 1.394 . S
C2918 H2926 0.930 . S
C2919 C2918 1.394 . S
C2919 C2920 1.383 . S
C2919 H2927 0.929 . S
C2920 C2919 1.383 . S
C2920 C2921 1.377 . S
C2921 H2905 0.930 . S
C2921 C2920 1.377 . S
C2921 C2922 1.379 . S
C2922 H2906 0.931 . S
C2922 C2916 1.383 . S
C2922 C2921 1.379 . S
H2923 C2917 0.959 . S
H2924 C2917 0.961 . S
H2925 C2917 0.960 . S
H2926 C2918 0.930 . S
H2927 C2919 0.929 . S
H2928 C2936 0.929 . S
H2929 C2938 0.930 . S
H2930 C2940 0.930 . S
H2931 C2943 0.929 . S
H2932 C2946 0.930 . S
H2933 C2948 0.960 . S
H2934 C2948 0.960 . S
H2935 C2948 0.960 . S
C2936 H2928 0.929 . S
C2936 C2937 1.377 . S
C2936 C2938 1.384 . S
C2937 C2936 1.377 . S
C2937 C2943 1.390 . S
C2938 H2929 0.930 . S
C2938 C2936 1.384 . S
C2938 C2939 1.372 . S
C2939 C2938 1.372 . S
C2939 C2940 1.400 . S
C2939 C2944 1.490 . S
C2940 H2930 0.930 . S
C2940 C2939 1.400 . S
C2940 C2943 1.386 . S
H2941 C2957 0.930 . S
H2942 C2958 0.931 . S
C2943 H2931 0.929 . S
C2943 C2937 1.390 . S
C2943 C2940 1.386 . S
C2944 C2939 1.490 . S
C2944 C2946 1.395 . S
C2944 C2947 1.403 . S
H2945 C2951 0.930 . S
C2946 H2932 0.930 . S
C2946 C2944 1.395 . S
C2946 C2949 1.403 . S
C2947 C2944 1.403 . S
C2947 C2948 1.524 . S
C2947 C2951 1.400 . S
C2948 H2933 0.960 . S
C2948 H2934 0.960 . S
C2948 H2935 0.960 . S
C2948 C2947 1.524 . S
C2949 C2946 1.403 . S
C2949 C2950 1.392 . S
C2949 C2953 1.495 . S
C2950 C2949 1.392 . S
C2950 C2951 1.385 . S
C2950 C2952 1.478 . S
C2951 H2945 0.930 . S
C2951 C2947 1.400 . S
C2951 C2950 1.385 . S
C2952 C2950 1.478 . S
C2952 C2954 1.381 . S
C2952 C2958 1.383 . S
C2953 C2949 1.495 . S
C2953 H2959 0.959 . S
C2953 H2960 0.961 . S
C2953 H2961 0.960 . S
C2954 C2952 1.381 . S
C2954 C2955 1.394 . S
C2954 H2962 0.930 . S
C2955 C2954 1.394 . S
C2955 C2956 1.383 . S
C2955 H2963 0.929 . S
C2956 C2955 1.383 . S
C2956 C2957 1.377 . S
C2957 H2941 0.930 . S
C2957 C2956 1.377 . S
C2957 C2958 1.379 . S
C2958 H2942 0.931 . S
C2958 C2952 1.383 . S
C2958 C2957 1.379 . S
H2959 C2953 0.959 . S
H2960 C2953 0.961 . S
H2961 C2953 0.960 . S
H2962 C2954 0.930 . S
H2963 C2955 0.929 . S
H2964 C2972 0.929 . S
H2965 C2974 0.930 . S
H2966 C2976 0.930 . S
H2967 C2979 0.929 . S
H2968 C2982 0.930 . S
H2969 C2984 0.960 . S
H2970 C2984 0.960 . S
H2971 C2984 0.960 . S
C2972 H2964 0.929 . S
C2972 C2973 1.377 . S
C2972 C2974 1.384 . S
C2973 C2972 1.377 . S
C2973 C2979 1.390 . S
C2974 H2965 0.930 . S
C2974 C2972 1.384 . S
C2974 C2975 1.372 . S
C2975 C2974 1.372 . S
C2975 C2976 1.400 . S
C2975 C2980 1.490 . S
C2976 H2966 0.930 . S
C2976 C2975 1.400 . S
C2976 C2979 1.386 . S
H2977 C2993 0.930 . S
H2978 C2994 0.931 . S
C2979 H2967 0.929 . S
C2979 C2973 1.390 . S
C2979 C2976 1.386 . S
C2980 C2975 1.490 . S
C2980 C2982 1.395 . S
C2980 C2983 1.403 . S
H2981 C2987 0.930 . S
C2982 H2968 0.930 . S
C2982 C2980 1.395 . S
C2982 C2985 1.403 . S
C2983 C2980 1.403 . S
C2983 C2984 1.524 . S
C2983 C2987 1.400 . S
C2984 H2969 0.960 . S
C2984 H2970 0.960 . S
C2984 H2971 0.960 . S
C2984 C2983 1.524 . S
C2985 C2982 1.403 . S
C2985 C2986 1.392 . S
C2985 C2989 1.495 . S
C2986 C2985 1.392 . S
C2986 C2987 1.385 . S
C2986 C2988 1.478 . S
C2987 H2981 0.930 . S
C2987 C2983 1.400 . S
C2987 C2986 1.385 . S
C2988 C2986 1.478 . S
C2988 C2990 1.381 . S
C2988 C2994 1.383 . S
C2989 C2985 1.495 . S
C2989 H2995 0.959 . S
C2989 H2996 0.961 . S
C2989 H2997 0.960 . S
C2990 C2988 1.381 . S
C2990 C2991 1.394 . S
C2990 H2998 0.930 . S
C2991 C2990 1.394 . S
C2991 C2992 1.383 . S
C2991 H2999 0.929 . S
C2992 C2991 1.383 . S
C2992 C2993 1.377 . S
C2993 H2977 0.930 . S
C2993 C2992 1.377 . S
C2993 C2994 1.379 . S
C2994 H2978 0.931 . S
C2994 C2988 1.383 . S
C2994 C2993 1.379 . S
H2995 C2989 0.959 . S
H2996 C2989 0.961 . S
H2997 C2989 0.960 . S
H2998 C2990 0.930 . S
H2999 C2991 0.929 . S
H3000 C3008 0.929 . S
H3001 C3010 0.930 . S
H3002 C3012 0.930 . S
H3003 C3015 0.929 . S
H3004 C3018 0.930 . S
H3005 C3020 0.960 . S
H3006 C3020 0.960 . S
H3007 C3020 0.960 . S
C3008 H3000 0.929 . S
C3008 C3009 1.377 . S
C3008 C3010 1.384 . S
C3009 C3008 1.377 . S
C3009 C3015 1.390 . S
C3010 H3001 0.930 . S
C3010 C3008 1.384 . S
C3010 C3011 1.372 . S
C3011 C3010 1.372 . S
C3011 C3012 1.400 . S
C3011 C3016 1.490 . S
C3012 H3002 0.930 . S
C3012 C3011 1.400 . S
C3012 C3015 1.386 . S
H3013 C3029 0.930 . S
H3014 C3030 0.931 . S
C3015 H3003 0.929 . S
C3015 C3009 1.390 . S
C3015 C3012 1.386 . S
C3016 C3011 1.490 . S
C3016 C3018 1.395 . S
C3016 C3019 1.403 . S
H3017 C3023 0.930 . S
C3018 H3004 0.930 . S
C3018 C3016 1.395 . S
C3018 C3021 1.403 . S
C3019 C3016 1.403 . S
C3019 C3020 1.524 . S
C3019 C3023 1.400 . S
C3020 H3005 0.960 . S
C3020 H3006 0.960 . S
C3020 H3007 0.960 . S
C3020 C3019 1.524 . S
C3021 C3018 1.403 . S
C3021 C3022 1.392 . S
C3021 C3025 1.495 . S
C3022 C3021 1.392 . S
C3022 C3023 1.385 . S
C3022 C3024 1.478 . S
C3023 H3017 0.930 . S
C3023 C3019 1.400 . S
C3023 C3022 1.385 . S
C3024 C3022 1.478 . S
C3024 C3026 1.381 . S
C3024 C3030 1.383 . S
C3025 C3021 1.495 . S
C3025 H3031 0.959 . S
C3025 H3032 0.961 . S
C3025 H3033 0.960 . S
C3026 C3024 1.381 . S
C3026 C3027 1.394 . S
C3026 H3034 0.930 . S
C3027 C3026 1.394 . S
C3027 C3028 1.383 . S
C3027 H3035 0.929 . S
C3028 C3027 1.383 . S
C3028 C3029 1.377 . S
C3029 H3013 0.930 . S
C3029 C3028 1.377 . S
C3029 C3030 1.379 . S
C3030 H3014 0.931 . S
C3030 C3024 1.383 . S
C3030 C3029 1.379 . S
H3031 C3025 0.959 . S
H3032 C3025 0.961 . S
H3033 C3025 0.960 . S
H3034 C3026 0.930 . S
H3035 C3027 0.929 . S
H3036 C3044 0.929 . S
H3037 C3046 0.930 . S
H3038 C3048 0.930 . S
H3039 C3051 0.929 . S
H3040 C3054 0.930 . S
H3041 C3056 0.960 . S
H3042 C3056 0.960 . S
H3043 C3056 0.960 . S
C3044 H3036 0.929 . S
C3044 C3045 1.377 . S
C3044 C3046 1.384 . S
C3045 C3044 1.377 . S
C3045 C3051 1.390 . S
C3046 H3037 0.930 . S
C3046 C3044 1.384 . S
C3046 C3047 1.372 . S
C3047 C3046 1.372 . S
C3047 C3048 1.400 . S
C3047 C3052 1.490 . S
C3048 H3038 0.930 . S
C3048 C3047 1.400 . S
C3048 C3051 1.386 . S
H3049 C3065 0.930 . S
H3050 C3066 0.931 . S
C3051 H3039 0.929 . S
C3051 C3045 1.390 . S
C3051 C3048 1.386 . S
C3052 C3047 1.490 . S
C3052 C3054 1.395 . S
C3052 C3055 1.403 . S
H3053 C3059 0.930 . S
C3054 H3040 0.930 . S
C3054 C3052 1.395 . S
C3054 C3057 1.403 . S
C3055 C3052 1.403 . S
C3055 C3056 1.524 . S
C3055 C3059 1.400 . S
C3056 H3041 0.960 . S
C3056 H3042 0.960 . S
C3056 H3043 0.960 . S
C3056 C3055 1.524 . S
C3057 C3054 1.403 . S
C3057 C3058 1.392 . S
C3057 C3061 1.495 . S
C3058 C3057 1.392 . S
C3058 C3059 1.385 . S
C3058 C3060 1.478 . S
C3059 H3053 0.930 . S
C3059 C3055 1.400 . S
C3059 C3058 1.385 . S
C3060 C3058 1.478 . S
C3060 C3062 1.381 . S
C3060 C3066 1.383 . S
C3061 C3057 1.495 . S
C3061 H3067 0.959 . S
C3061 H3068 0.961 . S
C3061 H3069 0.960 . S
C3062 C3060 1.381 . S
C3062 C3063 1.394 . S
C3062 H3070 0.930 . S
C3063 C3062 1.394 . S
C3063 C3064 1.383 . S
C3063 H3071 0.929 . S
C3064 C3063 1.383 . S
C3064 C3065 1.377 . S
C3065 H3049 0.930 . S
C3065 C3064 1.377 . S
C3065 C3066 1.379 . S
C3066 H3050 0.931 . S
C3066 C3060 1.383 . S
C3066 C3065 1.379 . S
H3067 C3061 0.959 . S
H3068 C3061 0.961 . S
H3069 C3061 0.960 . S
H3070 C3062 0.930 . S
H3071 C3063 0.929 . S
H3072 C3080 0.929 . S
H3073 C3082 0.930 . S
H3074 C3084 0.930 . S
H3075 C3087 0.929 . S
H3076 C3090 0.930 . S
H3077 C3092 0.960 . S
H3078 C3092 0.960 . S
H3079 C3092 0.960 . S
C3080 H3072 0.929 . S
C3080 C3081 1.377 . S
C3080 C3082 1.384 . S
C3081 C3080 1.377 . S
C3081 C3087 1.390 . S
C3082 H3073 0.930 . S
C3082 C3080 1.384 . S
C3082 C3083 1.372 . S
C3083 C3082 1.372 . S
C3083 C3084 1.400 . S
C3083 C3088 1.490 . S
C3084 H3074 0.930 . S
C3084 C3083 1.400 . S
C3084 C3087 1.386 . S
H3085 C3101 0.930 . S
H3086 C3102 0.931 . S
C3087 H3075 0.929 . S
C3087 C3081 1.390 . S
C3087 C3084 1.386 . S
C3088 C3083 1.490 . S
C3088 C3090 1.395 . S
C3088 C3091 1.403 . S
H3089 C3095 0.930 . S
C3090 H3076 0.930 . S
C3090 C3088 1.395 . S
C3090 C3093 1.403 . S
C3091 C3088 1.403 . S
C3091 C3092 1.524 . S
C3091 C3095 1.400 . S
C3092 H3077 0.960 . S
C3092 H3078 0.960 . S
C3092 H3079 0.960 . S
C3092 C3091 1.524 . S
C3093 C3090 1.403 . S
C3093 C3094 1.392 . S
C3093 C3097 1.495 . S
C3094 C3093 1.392 . S
C3094 C3095 1.385 . S
C3094 C3096 1.478 . S
C3095 H3089 0.930 . S
C3095 C3091 1.400 . S
C3095 C3094 1.385 . S
C3096 C3094 1.478 . S
C3096 C3098 1.381 . S
C3096 C3102 1.383 . S
C3097 C3093 1.495 . S
C3097 H3103 0.959 . S
C3097 H3104 0.961 . S
C3097 H3105 0.960 . S
C3098 C3096 1.381 . S
C3098 C3099 1.394 . S
C3098 H3106 0.930 . S
C3099 C3098 1.394 . S
C3099 C3100 1.383 . S
C3099 H3107 0.929 . S
C3100 C3099 1.383 . S
C3100 C3101 1.377 . S
C3101 H3085 0.930 . S
C3101 C3100 1.377 . S
C3101 C3102 1.379 . S
C3102 H3086 0.931 . S
C3102 C3096 1.383 . S
C3102 C3101 1.379 . S
H3103 C3097 0.959 . S
H3104 C3097 0.961 . S
H3105 C3097 0.960 . S
H3106 C3098 0.930 . S
H3107 C3099 0.929 . S
H3108 C3116 0.929 . S
H3109 C3118 0.930 . S
H3110 C3120 0.930 . S
H3111 C3123 0.929 . S
H3112 C3126 0.930 . S
H3113 C3128 0.960 . S
H3114 C3128 0.960 . S
H3115 C3128 0.960 . S
C3116 H3108 0.929 . S
C3116 C3117 1.377 . S
C3116 C3118 1.384 . S
C3117 C3116 1.377 . S
C3117 C3123 1.390 . S
C3118 H3109 0.930 . S
C3118 C3116 1.384 . S
C3118 C3119 1.372 . S
C3119 C3118 1.372 . S
C3119 C3120 1.400 . S
C3119 C3124 1.490 . S
C3120 H3110 0.930 . S
C3120 C3119 1.400 . S
C3120 C3123 1.386 . S
H3121 C3137 0.930 . S
H3122 C3138 0.931 . S
C3123 H3111 0.929 . S
C3123 C3117 1.390 . S
C3123 C3120 1.386 . S
C3124 C3119 1.490 . S
C3124 C3126 1.395 . S
C3124 C3127 1.403 . S
H3125 C3131 0.930 . S
C3126 H3112 0.930 . S
C3126 C3124 1.395 . S
C3126 C3129 1.403 . S
C3127 C3124 1.403 . S
C3127 C3128 1.524 . S
C3127 C3131 1.400 . S
C3128 H3113 0.960 . S
C3128 H3114 0.960 . S
C3128 H3115 0.960 . S
C3128 C3127 1.524 . S
C3129 C3126 1.403 . S
C3129 C3130 1.392 . S
C3129 C3133 1.495 . S
C3130 C3129 1.392 . S
C3130 C3131 1.385 . S
C3130 C3132 1.478 . S
C3131 H3125 0.930 . S
C3131 C3127 1.400 . S
C3131 C3130 1.385 . S
C3132 C3130 1.478 . S
C3132 C3134 1.381 . S
C3132 C3138 1.383 . S
C3133 C3129 1.495 . S
C3133 H3139 0.959 . S
C3133 H3140 0.961 . S
C3133 H3141 0.960 . S
C3134 C3132 1.381 . S
C3134 C3135 1.394 . S
C3134 H3142 0.930 . S
C3135 C3134 1.394 . S
C3135 C3136 1.383 . S
C3135 H3143 0.929 . S
C3136 C3135 1.383 . S
C3136 C3137 1.377 . S
C3137 H3121 0.930 . S
C3137 C3136 1.377 . S
C3137 C3138 1.379 . S
C3138 H3122 0.931 . S
C3138 C3132 1.383 . S
C3138 C3137 1.379 . S
H3139 C3133 0.959 . S
H3140 C3133 0.961 . S
H3141 C3133 0.960 . S
H3142 C3134 0.930 . S
H3143 C3135 0.929 . S
H3144 C3152 0.929 . S
H3145 C3154 0.930 . S
H3146 C3156 0.930 . S
H3147 C3159 0.929 . S
H3148 C3162 0.930 . S
H3149 C3164 0.960 . S
H3150 C3164 0.960 . S
H3151 C3164 0.960 . S
C3152 H3144 0.929 . S
C3152 C3153 1.377 . S
C3152 C3154 1.384 . S
C3153 C3152 1.377 . S
C3153 C3159 1.390 . S
C3154 H3145 0.930 . S
C3154 C3152 1.384 . S
C3154 C3155 1.372 . S
C3155 C3154 1.372 . S
C3155 C3156 1.400 . S
C3155 C3160 1.490 . S
C3156 H3146 0.930 . S
C3156 C3155 1.400 . S
C3156 C3159 1.386 . S
H3157 C3173 0.930 . S
H3158 C3174 0.931 . S
C3159 H3147 0.929 . S
C3159 C3153 1.390 . S
C3159 C3156 1.386 . S
C3160 C3155 1.490 . S
C3160 C3162 1.395 . S
C3160 C3163 1.403 . S
H3161 C3167 0.930 . S
C3162 H3148 0.930 . S
C3162 C3160 1.395 . S
C3162 C3165 1.403 . S
C3163 C3160 1.403 . S
C3163 C3164 1.524 . S
C3163 C3167 1.400 . S
C3164 H3149 0.960 . S
C3164 H3150 0.960 . S
C3164 H3151 0.960 . S
C3164 C3163 1.524 . S
C3165 C3162 1.403 . S
C3165 C3166 1.392 . S
C3165 C3169 1.495 . S
C3166 C3165 1.392 . S
C3166 C3167 1.385 . S
C3166 C3168 1.478 . S
C3167 H3161 0.930 . S
C3167 C3163 1.400 . S
C3167 C3166 1.385 . S
C3168 C3166 1.478 . S
C3168 C3170 1.381 . S
C3168 C3174 1.383 . S
C3169 C3165 1.495 . S
C3169 H3175 0.959 . S
C3169 H3176 0.961 . S
C3169 H3177 0.960 . S
C3170 C3168 1.381 . S
C3170 C3171 1.394 . S
C3170 H3178 0.930 . S
C3171 C3170 1.394 . S
C3171 C3172 1.383 . S
C3171 H3179 0.929 . S
C3172 C3171 1.383 . S
C3172 C3173 1.377 . S
C3173 H3157 0.930 . S
C3173 C3172 1.377 . S
C3173 C3174 1.379 . S
C3174 H3158 0.931 . S
C3174 C3168 1.383 . S
C3174 C3173 1.379 . S
H3175 C3169 0.959 . S
H3176 C3169 0.961 . S
H3177 C3169 0.960 . S
H3178 C3170 0.930 . S
H3179 C3171 0.929 . S
H3180 C3188 0.929 . S
H3181 C3190 0.930 . S
H3182 C3192 0.930 . S
H3183 C3195 0.929 . S
H3184 C3198 0.930 . S
H3185 C3200 0.960 . S
H3186 C3200 0.960 . S
H3187 C3200 0.960 . S
C3188 H3180 0.929 . S
C3188 C3189 1.377 . S
C3188 C3190 1.384 . S
C3189 C3188 1.377 . S
C3189 C3195 1.390 . S
C3190 H3181 0.930 . S
C3190 C3188 1.384 . S
C3190 C3191 1.372 . S
C3191 C3190 1.372 . S
C3191 C3192 1.400 . S
C3191 C3196 1.490 . S
C3192 H3182 0.930 . S
C3192 C3191 1.400 . S
C3192 C3195 1.386 . S
H3193 C3209 0.930 . S
H3194 C3210 0.931 . S
C3195 H3183 0.929 . S
C3195 C3189 1.390 . S
C3195 C3192 1.386 . S
C3196 C3191 1.490 . S
C3196 C3198 1.395 . S
C3196 C3199 1.403 . S
H3197 C3203 0.930 . S
C3198 H3184 0.930 . S
C3198 C3196 1.395 . S
C3198 C3201 1.403 . S
C3199 C3196 1.403 . S
C3199 C3200 1.524 . S
C3199 C3203 1.400 . S
C3200 H3185 0.960 . S
C3200 H3186 0.960 . S
C3200 H3187 0.960 . S
C3200 C3199 1.524 . S
C3201 C3198 1.403 . S
C3201 C3202 1.392 . S
C3201 C3205 1.495 . S
C3202 C3201 1.392 . S
C3202 C3203 1.385 . S
C3202 C3204 1.478 . S
C3203 H3197 0.930 . S
C3203 C3199 1.400 . S
C3203 C3202 1.385 . S
C3204 C3202 1.478 . S
C3204 C3206 1.381 . S
C3204 C3210 1.383 . S
C3205 C3201 1.495 . S
C3205 H3211 0.959 . S
C3205 H3212 0.961 . S
C3205 H3213 0.960 . S
C3206 C3204 1.381 . S
C3206 C3207 1.394 . S
C3206 H3214 0.930 . S
C3207 C3206 1.394 . S
C3207 C3208 1.383 . S
C3207 H3215 0.929 . S
C3208 C3207 1.383 . S
C3208 C3209 1.377 . S
C3209 H3193 0.930 . S
C3209 C3208 1.377 . S
C3209 C3210 1.379 . S
C3210 H3194 0.931 . S
C3210 C3204 1.383 . S
C3210 C3209 1.379 . S
H3211 C3205 0.959 . S
H3212 C3205 0.961 . S
H3213 C3205 0.960 . S
H3214 C3206 0.930 . S
H3215 C3207 0.929 . S
H3216 C3224 0.929 . S
H3217 C3226 0.930 . S
H3218 C3228 0.930 . S
H3219 C3231 0.929 . S
H3220 C3234 0.930 . S
H3221 C3236 0.960 . S
H3222 C3236 0.960 . S
H3223 C3236 0.960 . S
C3224 H3216 0.929 . S
C3224 C3225 1.377 . S
C3224 C3226 1.384 . S
C3225 C3224 1.377 . S
C3225 C3231 1.390 . S
C3226 H3217 0.930 . S
C3226 C3224 1.384 . S
C3226 C3227 1.372 . S
C3227 C3226 1.372 . S
C3227 C3228 1.400 . S
C3227 C3232 1.490 . S
C3228 H3218 0.930 . S
C3228 C3227 1.400 . S
C3228 C3231 1.386 . S
H3229 C3245 0.930 . S
H3230 C3246 0.931 . S
C3231 H3219 0.929 . S
C3231 C3225 1.390 . S
C3231 C3228 1.386 . S
C3232 C3227 1.490 . S
C3232 C3234 1.395 . S
C3232 C3235 1.403 . S
H3233 C3239 0.930 . S
C3234 H3220 0.930 . S
C3234 C3232 1.395 . S
C3234 C3237 1.403 . S
C3235 C3232 1.403 . S
C3235 C3236 1.524 . S
C3235 C3239 1.400 . S
C3236 H3221 0.960 . S
C3236 H3222 0.960 . S
C3236 H3223 0.960 . S
C3236 C3235 1.524 . S
C3237 C3234 1.403 . S
C3237 C3238 1.392 . S
C3237 C3241 1.495 . S
C3238 C3237 1.392 . S
C3238 C3239 1.385 . S
C3238 C3240 1.478 . S
C3239 H3233 0.930 . S
C3239 C3235 1.400 . S
C3239 C3238 1.385 . S
C3240 C3238 1.478 . S
C3240 C3242 1.381 . S
C3240 C3246 1.383 . S
C3241 C3237 1.495 . S
C3241 H3247 0.959 . S
C3241 H3248 0.961 . S
C3241 H3249 0.960 . S
C3242 C3240 1.381 . S
C3242 C3243 1.394 . S
C3242 H3250 0.930 . S
C3243 C3242 1.394 . S
C3243 C3244 1.383 . S
C3243 H3251 0.929 . S
C3244 C3243 1.383 . S
C3244 C3245 1.377 . S
C3245 H3229 0.930 . S
C3245 C3244 1.377 . S
C3245 C3246 1.379 . S
C3246 H3230 0.931 . S
C3246 C3240 1.383 . S
C3246 C3245 1.379 . S
H3247 C3241 0.959 . S
H3248 C3241 0.961 . S
H3249 C3241 0.960 . S
H3250 C3242 0.930 . S
H3251 C3243 0.929 . S
H3252 C3260 0.929 . S
H3253 C3262 0.930 . S
H3254 C3264 0.930 . S
H3255 C3267 0.929 . S
H3256 C3270 0.930 . S
H3257 C3272 0.960 . S
H3258 C3272 0.960 . S
H3259 C3272 0.960 . S
C3260 H3252 0.929 . S
C3260 C3261 1.377 . S
C3260 C3262 1.384 . S
C3261 C3260 1.377 . S
C3261 C3267 1.390 . S
C3262 H3253 0.930 . S
C3262 C3260 1.384 . S
C3262 C3263 1.372 . S
C3263 C3262 1.372 . S
C3263 C3264 1.400 . S
C3263 C3268 1.490 . S
C3264 H3254 0.930 . S
C3264 C3263 1.400 . S
C3264 C3267 1.386 . S
H3265 C3281 0.930 . S
H3266 C3282 0.931 . S
C3267 H3255 0.929 . S
C3267 C3261 1.390 . S
C3267 C3264 1.386 . S
C3268 C3263 1.490 . S
C3268 C3270 1.395 . S
C3268 C3271 1.403 . S
H3269 C3275 0.930 . S
C3270 H3256 0.930 . S
C3270 C3268 1.395 . S
C3270 C3273 1.403 . S
C3271 C3268 1.403 . S
C3271 C3272 1.524 . S
C3271 C3275 1.400 . S
C3272 H3257 0.960 . S
C3272 H3258 0.960 . S
C3272 H3259 0.960 . S
C3272 C3271 1.524 . S
C3273 C3270 1.403 . S
C3273 C3274 1.392 . S
C3273 C3277 1.495 . S
C3274 C3273 1.392 . S
C3274 C3275 1.385 . S
C3274 C3276 1.478 . S
C3275 H3269 0.930 . S
C3275 C3271 1.400 . S
C3275 C3274 1.385 . S
C3276 C3274 1.478 . S
C3276 C3278 1.381 . S
C3276 C3282 1.383 . S
C3277 C3273 1.495 . S
C3277 H3283 0.959 . S
C3277 H3284 0.961 . S
C3277 H3285 0.960 . S
C3278 C3276 1.381 . S
C3278 C3279 1.394 . S
C3278 H3286 0.930 . S
C3279 C3278 1.394 . S
C3279 C3280 1.383 . S
C3279 H3287 0.929 . S
C3280 C3279 1.383 . S
C3280 C3281 1.377 . S
C3281 H3265 0.930 . S
C3281 C3280 1.377 . S
C3281 C3282 1.379 . S
C3282 H3266 0.931 . S
C3282 C3276 1.383 . S
C3282 C3281 1.379 . S
H3283 C3277 0.959 . S
H3284 C3277 0.961 . S
H3285 C3277 0.960 . S
H3286 C3278 0.930 . S
H3287 C3279 0.929 . S
H3288 C3296 0.929 . S
H3289 C3298 0.930 . S
H3290 C3300 0.930 . S
H3291 C3303 0.929 . S
H3292 C3306 0.930 . S
H3293 C3308 0.960 . S
H3294 C3308 0.960 . S
H3295 C3308 0.960 . S
C3296 H3288 0.929 . S
C3296 C3297 1.377 . S
C3296 C3298 1.384 . S
C3297 C3296 1.377 . S
C3297 C3303 1.390 . S
C3298 H3289 0.930 . S
C3298 C3296 1.384 . S
C3298 C3299 1.372 . S
C3299 C3298 1.372 . S
C3299 C3300 1.400 . S
C3299 C3304 1.490 . S
C3300 H3290 0.930 . S
C3300 C3299 1.400 . S
C3300 C3303 1.386 . S
H3301 C3317 0.930 . S
H3302 C3318 0.931 . S
C3303 H3291 0.929 . S
C3303 C3297 1.390 . S
C3303 C3300 1.386 . S
C3304 C3299 1.490 . S
C3304 C3306 1.395 . S
C3304 C3307 1.403 . S
H3305 C3311 0.930 . S
C3306 H3292 0.930 . S
C3306 C3304 1.395 . S
C3306 C3309 1.403 . S
C3307 C3304 1.403 . S
C3307 C3308 1.524 . S
C3307 C3311 1.400 . S
C3308 H3293 0.960 . S
C3308 H3294 0.960 . S
C3308 H3295 0.960 . S
C3308 C3307 1.524 . S
C3309 C3306 1.403 . S
C3309 C3310 1.392 . S
C3309 C3313 1.495 . S
C3310 C3309 1.392 . S
C3310 C3311 1.385 . S
C3310 C3312 1.478 . S
C3311 H3305 0.930 . S
C3311 C3307 1.400 . S
C3311 C3310 1.385 . S
C3312 C3310 1.478 . S
C3312 C3314 1.381 . S
C3312 C3318 1.383 . S
C3313 C3309 1.495 . S
C3313 H3319 0.959 . S
C3313 H3320 0.961 . S
C3313 H3321 0.960 . S
C3314 C3312 1.381 . S
C3314 C3315 1.394 . S
C3314 H3322 0.930 . S
C3315 C3314 1.394 . S
C3315 C3316 1.383 . S
C3315 H3323 0.929 . S
C3316 C3315 1.383 . S
C3316 C3317 1.377 . S
C3317 H3301 0.930 . S
C3317 C3316 1.377 . S
C3317 C3318 1.379 . S
C3318 H3302 0.931 . S
C3318 C3312 1.383 . S
C3318 C3317 1.379 . S
H3319 C3313 0.959 . S
H3320 C3313 0.961 . S
H3321 C3313 0.960 . S
H3322 C3314 0.930 . S
H3323 C3315 0.929 . S
H3324 C3332 0.929 . S
H3325 C3334 0.930 . S
H3326 C3336 0.930 . S
H3327 C3339 0.929 . S
H3328 C3342 0.930 . S
H3329 C3344 0.960 . S
H3330 C3344 0.960 . S
H3331 C3344 0.960 . S
C3332 H3324 0.929 . S
C3332 C3333 1.377 . S
C3332 C3334 1.384 . S
C3333 C3332 1.377 . S
C3333 C3339 1.390 . S
C3334 H3325 0.930 . S
C3334 C3332 1.384 . S
C3334 C3335 1.372 . S
C3335 C3334 1.372 . S
C3335 C3336 1.400 . S
C3335 C3340 1.490 . S
C3336 H3326 0.930 . S
C3336 C3335 1.400 . S
C3336 C3339 1.386 . S
H3337 C3353 0.930 . S
H3338 C3354 0.931 . S
C3339 H3327 0.929 . S
C3339 C3333 1.390 . S
C3339 C3336 1.386 . S
C3340 C3335 1.490 . S
C3340 C3342 1.395 . S
C3340 C3343 1.403 . S
H3341 C3347 0.930 . S
C3342 H3328 0.930 . S
C3342 C3340 1.395 . S
C3342 C3345 1.403 . S
C3343 C3340 1.403 . S
C3343 C3344 1.524 . S
C3343 C3347 1.400 . S
C3344 H3329 0.960 . S
C3344 H3330 0.960 . S
C3344 H3331 0.960 . S
C3344 C3343 1.524 . S
C3345 C3342 1.403 . S
C3345 C3346 1.392 . S
C3345 C3349 1.495 . S
C3346 C3345 1.392 . S
C3346 C3347 1.385 . S
C3346 C3348 1.478 . S
C3347 H3341 0.930 . S
C3347 C3343 1.400 . S
C3347 C3346 1.385 . S
C3348 C3346 1.478 . S
C3348 C3350 1.381 . S
C3348 C3354 1.383 . S
C3349 C3345 1.495 . S
C3349 H3355 0.959 . S
C3349 H3356 0.961 . S
C3349 H3357 0.960 . S
C3350 C3348 1.381 . S
C3350 C3351 1.394 . S
C3350 H3358 0.930 . S
C3351 C3350 1.394 . S
C3351 C3352 1.383 . S
C3351 H3359 0.929 . S
C3352 C3351 1.383 . S
C3352 C3353 1.377 . S
C3353 H3337 0.930 . S
C3353 C3352 1.377 . S
C3353 C3354 1.379 . S
C3354 H3338 0.931 . S
C3354 C3348 1.383 . S
C3354 C3353 1.379 . S
H3355 C3349 0.959 . S
H3356 C3349 0.961 . S
H3357 C3349 0.960 . S
H3358 C3350 0.930 . S
H3359 C3351 0.929 . S
H3360 C3368 0.929 . S
H3361 C3370 0.930 . S
H3362 C3372 0.930 . S
H3363 C3375 0.929 . S
H3364 C3378 0.930 . S
H3365 C3380 0.960 . S
H3366 C3380 0.960 . S
H3367 C3380 0.960 . S
C3368 H3360 0.929 . S
C3368 C3369 1.377 . S
C3368 C3370 1.384 . S
C3369 C3368 1.377 . S
C3369 C3375 1.390 . S
C3370 H3361 0.930 . S
C3370 C3368 1.384 . S
C3370 C3371 1.372 . S
C3371 C3370 1.372 . S
C3371 C3372 1.400 . S
C3371 C3376 1.490 . S
C3372 H3362 0.930 . S
C3372 C3371 1.400 . S
C3372 C3375 1.386 . S
H3373 C3389 0.930 . S
H3374 C3390 0.931 . S
C3375 H3363 0.929 . S
C3375 C3369 1.390 . S
C3375 C3372 1.386 . S
C3376 C3371 1.490 . S
C3376 C3378 1.395 . S
C3376 C3379 1.403 . S
H3377 C3383 0.930 . S
C3378 H3364 0.930 . S
C3378 C3376 1.395 . S
C3378 C3381 1.403 . S
C3379 C3376 1.403 . S
C3379 C3380 1.524 . S
C3379 C3383 1.400 . S
C3380 H3365 0.960 . S
C3380 H3366 0.960 . S
C3380 H3367 0.960 . S
C3380 C3379 1.524 . S
C3381 C3378 1.403 . S
C3381 C3382 1.392 . S
C3381 C3385 1.495 . S
C3382 C3381 1.392 . S
C3382 C3383 1.385 . S
C3382 C3384 1.478 . S
C3383 H3377 0.930 . S
C3383 C3379 1.400 . S
C3383 C3382 1.385 . S
C3384 C3382 1.478 . S
C3384 C3386 1.381 . S
C3384 C3390 1.383 . S
C3385 C3381 1.495 . S
C3385 H3391 0.959 . S
C3385 H3392 0.961 . S
C3385 H3393 0.960 . S
C3386 C3384 1.381 . S
C3386 C3387 1.394 . S
C3386 H3394 0.930 . S
C3387 C3386 1.394 . S
C3387 C3388 1.383 . S
C3387 H3395 0.929 . S
C3388 C3387 1.383 . S
C3388 C3389 1.377 . S
C3389 H3373 0.930 . S
C3389 C3388 1.377 . S
C3389 C3390 1.379 . S
C3390 H3374 0.931 . S
C3390 C3384 1.383 . S
C3390 C3389 1.379 . S
H3391 C3385 0.959 . S
H3392 C3385 0.961 . S
H3393 C3385 0.960 . S
H3394 C3386 0.930 . S
H3395 C3387 0.929 . S
H3396 C3404 0.929 . S
H3397 C3406 0.930 . S
H3398 C3408 0.930 . S
H3399 C3411 0.929 . S
H3400 C3414 0.930 . S
H3401 C3416 0.960 . S
H3402 C3416 0.960 . S
H3403 C3416 0.960 . S
C3404 H3396 0.929 . S
C3404 C3405 1.377 . S
C3404 C3406 1.384 . S
C3405 C3404 1.377 . S
C3405 C3411 1.390 . S
C3406 H3397 0.930 . S
C3406 C3404 1.384 . S
C3406 C3407 1.372 . S
C3407 C3406 1.372 . S
C3407 C3408 1.400 . S
C3407 C3412 1.490 . S
C3408 H3398 0.930 . S
C3408 C3407 1.400 . S
C3408 C3411 1.386 . S
H3409 C3425 0.930 . S
H3410 C3426 0.931 . S
C3411 H3399 0.929 . S
C3411 C3405 1.390 . S
C3411 C3408 1.386 . S
C3412 C3407 1.490 . S
C3412 C3414 1.395 . S
C3412 C3415 1.403 . S
H3413 C3419 0.930 . S
C3414 H3400 0.930 . S
C3414 C3412 1.395 . S
C3414 C3417 1.403 . S
C3415 C3412 1.403 . S
C3415 C3416 1.524 . S
C3415 C3419 1.400 . S
C3416 H3401 0.960 . S
C3416 H3402 0.960 . S
C3416 H3403 0.960 . S
C3416 C3415 1.524 . S
C3417 C3414 1.403 . S
C3417 C3418 1.392 . S
C3417 C3421 1.495 . S
C3418 C3417 1.392 . S
C3418 C3419 1.385 . S
C3418 C3420 1.478 . S
C3419 H3413 0.930 . S
C3419 C3415 1.400 . S
C3419 C3418 1.385 . S
C3420 C3418 1.478 . S
C3420 C3422 1.381 . S
C3420 C3426 1.383 . S
C3421 C3417 1.495 . S
C3421 H3427 0.959 . S
C3421 H3428 0.961 . S
C3421 H3429 0.960 . S
C3422 C3420 1.381 . S
C3422 C3423 1.394 . S
C3422 H3430 0.930 . S
C3423 C3422 1.394 . S
C3423 C3424 1.383 . S
C3423 H3431 0.929 . S
C3424 C3423 1.383 . S
C3424 C3425 1.377 . S
C3425 H3409 0.930 . S
C3425 C3424 1.377 . S
C3425 C3426 1.379 . S
C3426 H3410 0.931 . S
C3426 C3420 1.383 . S
C3426 C3425 1.379 . S
H3427 C3421 0.959 . S
H3428 C3421 0.961 . S
H3429 C3421 0.960 . S
H3430 C3422 0.930 . S
H3431 C3423 0.929 . S
H3432 C3440 0.929 . S
H3433 C3442 0.930 . S
H3434 C3444 0.930 . S
H3435 C3447 0.929 . S
H3436 C3450 0.930 . S
H3437 C3452 0.960 . S
H3438 C3452 0.960 . S
H3439 C3452 0.960 . S
C3440 H3432 0.929 . S
C3440 C3441 1.377 . S
C3440 C3442 1.384 . S
C3441 C3440 1.377 . S
C3441 C3447 1.390 . S
C3442 H3433 0.930 . S
C3442 C3440 1.384 . S
C3442 C3443 1.372 . S
C3443 C3442 1.372 . S
C3443 C3444 1.400 . S
C3443 C3448 1.490 . S
C3444 H3434 0.930 . S
C3444 C3443 1.400 . S
C3444 C3447 1.386 . S
H3445 C3461 0.930 . S
H3446 C3462 0.931 . S
C3447 H3435 0.929 . S
C3447 C3441 1.390 . S
C3447 C3444 1.386 . S
C3448 C3443 1.490 . S
C3448 C3450 1.395 . S
C3448 C3451 1.403 . S
H3449 C3455 0.930 . S
C3450 H3436 0.930 . S
C3450 C3448 1.395 . S
C3450 C3453 1.403 . S
C3451 C3448 1.403 . S
C3451 C3452 1.524 . S
C3451 C3455 1.400 . S
C3452 H3437 0.960 . S
C3452 H3438 0.960 . S
C3452 H3439 0.960 . S
C3452 C3451 1.524 . S
C3453 C3450 1.403 . S
C3453 C3454 1.392 . S
C3453 C3457 1.495 . S
C3454 C3453 1.392 . S
C3454 C3455 1.385 . S
C3454 C3456 1.478 . S
C3455 H3449 0.930 . S
C3455 C3451 1.400 . S
C3455 C3454 1.385 . S
C3456 C3454 1.478 . S
C3456 C3458 1.381 . S
C3456 C3462 1.383 . S
C3457 C3453 1.495 . S
C3457 H3463 0.959 . S
C3457 H3464 0.961 . S
C3457 H3465 0.960 . S
C3458 C3456 1.381 . S
C3458 C3459 1.394 . S
C3458 H3466 0.930 . S
C3459 C3458 1.394 . S
C3459 C3460 1.383 . S
C3459 H3467 0.929 . S
C3460 C3459 1.383 . S
C3460 C3461 1.377 . S
C3461 H3445 0.930 . S
C3461 C3460 1.377 . S
C3461 C3462 1.379 . S
C3462 H3446 0.931 . S
C3462 C3456 1.383 . S
C3462 C3461 1.379 . S
H3463 C3457 0.959 . S
H3464 C3457 0.961 . S
H3465 C3457 0.960 . S
H3466 C3458 0.930 . S
H3467 C3459 0.929 . S
H3468 C3476 0.929 . S
H3469 C3478 0.930 . S
H3470 C3480 0.930 . S
H3471 C3483 0.929 . S
H3472 C3486 0.930 . S
H3473 C3488 0.960 . S
H3474 C3488 0.960 . S
H3475 C3488 0.960 . S
C3476 H3468 0.929 . S
C3476 C3477 1.377 . S
C3476 C3478 1.384 . S
C3477 C3476 1.377 . S
C3477 C3483 1.390 . S
C3478 H3469 0.930 . S
C3478 C3476 1.384 . S
C3478 C3479 1.372 . S
C3479 C3478 1.372 . S
C3479 C3480 1.400 . S
C3479 C3484 1.490 . S
C3480 H3470 0.930 . S
C3480 C3479 1.400 . S
C3480 C3483 1.386 . S
H3481 C3497 0.930 . S
H3482 C3498 0.931 . S
C3483 H3471 0.929 . S
C3483 C3477 1.390 . S
C3483 C3480 1.386 . S
C3484 C3479 1.490 . S
C3484 C3486 1.395 . S
C3484 C3487 1.403 . S
H3485 C3491 0.930 . S
C3486 H3472 0.930 . S
C3486 C3484 1.395 . S
C3486 C3489 1.403 . S
C3487 C3484 1.403 . S
C3487 C3488 1.524 . S
C3487 C3491 1.400 . S
C3488 H3473 0.960 . S
C3488 H3474 0.960 . S
C3488 H3475 0.960 . S
C3488 C3487 1.524 . S
C3489 C3486 1.403 . S
C3489 C3490 1.392 . S
C3489 C3493 1.495 . S
C3490 C3489 1.392 . S
C3490 C3491 1.385 . S
C3490 C3492 1.478 . S
C3491 H3485 0.930 . S
C3491 C3487 1.400 . S
C3491 C3490 1.385 . S
C3492 C3490 1.478 . S
C3492 C3494 1.381 . S
C3492 C3498 1.383 . S
C3493 C3489 1.495 . S
C3493 H3499 0.959 . S
C3493 H3500 0.961 . S
C3493 H3501 0.960 . S
C3494 C3492 1.381 . S
C3494 C3495 1.394 . S
C3494 H3502 0.930 . S
C3495 C3494 1.394 . S
C3495 C3496 1.383 . S
C3495 H3503 0.929 . S
C3496 C3495 1.383 . S
C3496 C3497 1.377 . S
C3497 H3481 0.930 . S
C3497 C3496 1.377 . S
C3497 C3498 1.379 . S
C3498 H3482 0.931 . S
C3498 C3492 1.383 . S
C3498 C3497 1.379 . S
H3499 C3493 0.959 . S
H3500 C3493 0.961 . S
H3501 C3493 0.960 . S
H3502 C3494 0.930 . S
H3503 C3495 0.929 . S
H3504 C3512 0.929 . S
H3505 C3514 0.930 . S
H3506 C3516 0.930 . S
H3507 C3519 0.929 . S
H3508 C3522 0.930 . S
H3509 C3524 0.960 . S
H3510 C3524 0.960 . S
H3511 C3524 0.960 . S
C3512 H3504 0.929 . S
C3512 C3513 1.377 . S
C3512 C3514 1.384 . S
C3513 C3512 1.377 . S
C3513 C3519 1.390 . S
C3514 H3505 0.930 . S
C3514 C3512 1.384 . S
C3514 C3515 1.372 . S
C3515 C3514 1.372 . S
C3515 C3516 1.400 . S
C3515 C3520 1.490 . S
C3516 H3506 0.930 . S
C3516 C3515 1.400 . S
C3516 C3519 1.386 . S
H3517 C3533 0.930 . S
H3518 C3534 0.931 . S
C3519 H3507 0.929 . S
C3519 C3513 1.390 . S
C3519 C3516 1.386 . S
C3520 C3515 1.490 . S
C3520 C3522 1.395 . S
C3520 C3523 1.403 . S
H3521 C3527 0.930 . S
C3522 H3508 0.930 . S
C3522 C3520 1.395 . S
C3522 C3525 1.403 . S
C3523 C3520 1.403 . S
C3523 C3524 1.524 . S
C3523 C3527 1.400 . S
C3524 H3509 0.960 . S
C3524 H3510 0.960 . S
C3524 H3511 0.960 . S
C3524 C3523 1.524 . S
C3525 C3522 1.403 . S
C3525 C3526 1.392 . S
C3525 C3529 1.495 . S
C3526 C3525 1.392 . S
C3526 C3527 1.385 . S
C3526 C3528 1.478 . S
C3527 H3521 0.930 . S
C3527 C3523 1.400 . S
C3527 C3526 1.385 . S
C3528 C3526 1.478 . S
C3528 C3530 1.381 . S
C3528 C3534 1.383 . S
C3529 C3525 1.495 . S
C3529 H3535 0.959 . S
C3529 H3536 0.961 . S
C3529 H3537 0.960 . S
C3530 C3528 1.381 . S
C3530 C3531 1.394 . S
C3530 H3538 0.930 . S
C3531 C3530 1.394 . S
C3531 C3532 1.383 . S
C3531 H3539 0.929 . S
C3532 C3531 1.383 . S
C3532 C3533 1.377 . S
C3533 H3517 0.930 . S
C3533 C3532 1.377 . S
C3533 C3534 1.379 . S
C3534 H3518 0.931 . S
C3534 C3528 1.383 . S
C3534 C3533 1.379 . S
H3535 C3529 0.959 . S
H3536 C3529 0.961 . S
H3537 C3529 0.960 . S
H3538 C3530 0.930 . S
H3539 C3531 0.929 . S
H3540 C3548 0.929 . S
H3541 C3550 0.930 . S
H3542 C3552 0.930 . S
H3543 C3555 0.929 . S
H3544 C3558 0.930 . S
H3545 C3560 0.960 . S
H3546 C3560 0.960 . S
H3547 C3560 0.960 . S
C3548 H3540 0.929 . S
C3548 C3549 1.377 . S
C3548 C3550 1.384 . S
C3549 C3548 1.377 . S
C3549 C3555 1.390 . S
C3550 H3541 0.930 . S
C3550 C3548 1.384 . S
C3550 C3551 1.372 . S
C3551 C3550 1.372 . S
C3551 C3552 1.400 . S
C3551 C3556 1.490 . S
C3552 H3542 0.930 . S
C3552 C3551 1.400 . S
C3552 C3555 1.386 . S
H3553 C3569 0.930 . S
H3554 C3570 0.931 . S
C3555 H3543 0.929 . S
C3555 C3549 1.390 . S
C3555 C3552 1.386 . S
C3556 C3551 1.490 . S
C3556 C3558 1.395 . S
C3556 C3559 1.403 . S
H3557 C3563 0.930 . S
C3558 H3544 0.930 . S
C3558 C3556 1.395 . S
C3558 C3561 1.403 . S
C3559 C3556 1.403 . S
C3559 C3560 1.524 . S
C3559 C3563 1.400 . S
C3560 H3545 0.960 . S
C3560 H3546 0.960 . S
C3560 H3547 0.960 . S
C3560 C3559 1.524 . S
C3561 C3558 1.403 . S
C3561 C3562 1.392 . S
C3561 C3565 1.495 . S
C3562 C3561 1.392 . S
C3562 C3563 1.385 . S
C3562 C3564 1.478 . S
C3563 H3557 0.930 . S
C3563 C3559 1.400 . S
C3563 C3562 1.385 . S
C3564 C3562 1.478 . S
C3564 C3566 1.381 . S
C3564 C3570 1.383 . S
C3565 C3561 1.495 . S
C3565 H3571 0.959 . S
C3565 H3572 0.961 . S
C3565 H3573 0.960 . S
C3566 C3564 1.381 . S
C3566 C3567 1.394 . S
C3566 H3574 0.930 . S
C3567 C3566 1.394 . S
C3567 C3568 1.383 . S
C3567 H3575 0.929 . S
C3568 C3567 1.383 . S
C3568 C3569 1.377 . S
C3569 H3553 0.930 . S
C3569 C3568 1.377 . S
C3569 C3570 1.379 . S
C3570 H3554 0.931 . S
C3570 C3564 1.383 . S
C3570 C3569 1.379 . S
H3571 C3565 0.959 . S
H3572 C3565 0.961 . S
H3573 C3565 0.960 . S
H3574 C3566 0.930 . S
H3575 C3567 0.929 . S
H3576 C3584 0.929 . S
H3577 C3586 0.930 . S
H3578 C3588 0.930 . S
H3579 C3591 0.929 . S
H3580 C3594 0.930 . S
H3581 C3596 0.960 . S
H3582 C3596 0.960 . S
H3583 C3596 0.960 . S
C3584 H3576 0.929 . S
C3584 C3585 1.377 . S
C3584 C3586 1.384 . S
C3585 C3584 1.377 . S
C3585 C3591 1.390 . S
C3586 H3577 0.930 . S
C3586 C3584 1.384 . S
C3586 C3587 1.372 . S
C3587 C3586 1.372 . S
C3587 C3588 1.400 . S
C3587 C3592 1.490 . S
C3588 H3578 0.930 . S
C3588 C3587 1.400 . S
C3588 C3591 1.386 . S
H3589 C3605 0.930 . S
H3590 C3606 0.931 . S
C3591 H3579 0.929 . S
C3591 C3585 1.390 . S
C3591 C3588 1.386 . S
C3592 C3587 1.490 . S
C3592 C3594 1.395 . S
C3592 C3595 1.403 . S
H3593 C3599 0.930 . S
C3594 H3580 0.930 . S
C3594 C3592 1.395 . S
C3594 C3597 1.403 . S
C3595 C3592 1.403 . S
C3595 C3596 1.524 . S
C3595 C3599 1.400 . S
C3596 H3581 0.960 . S
C3596 H3582 0.960 . S
C3596 H3583 0.960 . S
C3596 C3595 1.524 . S
C3597 C3594 1.403 . S
C3597 C3598 1.392 . S
C3597 C3601 1.495 . S
C3598 C3597 1.392 . S
C3598 C3599 1.385 . S
C3598 C3600 1.478 . S
C3599 H3593 0.930 . S
C3599 C3595 1.400 . S
C3599 C3598 1.385 . S
C3600 C3598 1.478 . S
C3600 C3602 1.381 . S
C3600 C3606 1.383 . S
C3601 C3597 1.495 . S
C3601 H3607 0.959 . S
C3601 H3608 0.961 . S
C3601 H3609 0.960 . S
C3602 C3600 1.381 . S
C3602 C3603 1.394 . S
C3602 H3610 0.930 . S
C3603 C3602 1.394 . S
C3603 C3604 1.383 . S
C3603 H3611 0.929 . S
C3604 C3603 1.383 . S
C3604 C3605 1.377 . S
C3605 H3589 0.930 . S
C3605 C3604 1.377 . S
C3605 C3606 1.379 . S
C3606 H3590 0.931 . S
C3606 C3600 1.383 . S
C3606 C3605 1.379 . S
H3607 C3601 0.959 . S
H3608 C3601 0.961 . S
H3609 C3601 0.960 . S
H3610 C3602 0.930 . S
H3611 C3603 0.929 . S
H3612 C3620 0.929 . S
H3613 C3622 0.930 . S
H3614 C3624 0.930 . S
H3615 C3627 0.929 . S
H3616 C3630 0.930 . S
H3617 C3632 0.960 . S
H3618 C3632 0.960 . S
H3619 C3632 0.960 . S
C3620 H3612 0.929 . S
C3620 C3621 1.377 . S
C3620 C3622 1.384 . S
C3621 C3620 1.377 . S
C3621 C3627 1.390 . S
C3622 H3613 0.930 . S
C3622 C3620 1.384 . S
C3622 C3623 1.372 . S
C3623 C3622 1.372 . S
C3623 C3624 1.400 . S
C3623 C3628 1.490 . S
C3624 H3614 0.930 . S
C3624 C3623 1.400 . S
C3624 C3627 1.386 . S
H3625 C3641 0.930 . S
H3626 C3642 0.931 . S
C3627 H3615 0.929 . S
C3627 C3621 1.390 . S
C3627 C3624 1.386 . S
C3628 C3623 1.490 . S
C3628 C3630 1.395 . S
C3628 C3631 1.403 . S
H3629 C3635 0.930 . S
C3630 H3616 0.930 . S
C3630 C3628 1.395 . S
C3630 C3633 1.403 . S
C3631 C3628 1.403 . S
C3631 C3632 1.524 . S
C3631 C3635 1.400 . S
C3632 H3617 0.960 . S
C3632 H3618 0.960 . S
C3632 H3619 0.960 . S
C3632 C3631 1.524 . S
C3633 C3630 1.403 . S
C3633 C3634 1.392 . S
C3633 C3637 1.495 . S
C3634 C3633 1.392 . S
C3634 C3635 1.385 . S
C3634 C3636 1.478 . S
C3635 H3629 0.930 . S
C3635 C3631 1.400 . S
C3635 C3634 1.385 . S
C3636 C3634 1.478 . S
C3636 C3638 1.381 . S
C3636 C3642 1.383 . S
C3637 C3633 1.495 . S
C3637 H3643 0.959 . S
C3637 H3644 0.961 . S
C3637 H3645 0.960 . S
C3638 C3636 1.381 . S
C3638 C3639 1.394 . S
C3638 H3646 0.930 . S
C3639 C3638 1.394 . S
C3639 C3640 1.383 . S
C3639 H3647 0.929 . S
C3640 C3639 1.383 . S
C3640 C3641 1.377 . S
C3641 H3625 0.930 . S
C3641 C3640 1.377 . S
C3641 C3642 1.379 . S
C3642 H3626 0.931 . S
C3642 C3636 1.383 . S
C3642 C3641 1.379 . S
H3643 C3637 0.959 . S
H3644 C3637 0.961 . S
H3645 C3637 0.960 . S
H3646 C3638 0.930 . S
H3647 C3639 0.929 . S
H3648 C3656 0.929 . S
H3649 C3658 0.930 . S
H3650 C3660 0.930 . S
H3651 C3663 0.929 . S
H3652 C3666 0.930 . S
H3653 C3668 0.960 . S
H3654 C3668 0.960 . S
H3655 C3668 0.960 . S
C3656 H3648 0.929 . S
C3656 C3657 1.377 . S
C3656 C3658 1.384 . S
C3657 C3656 1.377 . S
C3657 C3663 1.390 . S
C3658 H3649 0.930 . S
C3658 C3656 1.384 . S
C3658 C3659 1.372 . S
C3659 C3658 1.372 . S
C3659 C3660 1.400 . S
C3659 C3664 1.490 . S
C3660 H3650 0.930 . S
C3660 C3659 1.400 . S
C3660 C3663 1.386 . S
H3661 C3677 0.930 . S
H3662 C3678 0.931 . S
C3663 H3651 0.929 . S
C3663 C3657 1.390 . S
C3663 C3660 1.386 . S
C3664 C3659 1.490 . S
C3664 C3666 1.395 . S
C3664 C3667 1.403 . S
H3665 C3671 0.930 . S
C3666 H3652 0.930 . S
C3666 C3664 1.395 . S
C3666 C3669 1.403 1_655 S
C3667 C3664 1.403 . S
C3667 C3668 1.524 . S
C3667 C3671 1.400 1_655 S
C3668 H3653 0.960 . S
C3668 H3654 0.960 . S
C3668 H3655 0.960 . S
C3668 C3667 1.524 . S
C3669 C3666 1.403 1_455 S
C3669 C3670 1.392 . S
C3669 C3673 1.495 . S
C3670 C3669 1.392 . S
C3670 C3671 1.385 . S
C3670 C3672 1.478 . S
C3671 H3665 0.930 . S
C3671 C3667 1.400 1_455 S
C3671 C3670 1.385 . S
C3672 C3670 1.478 . S
C3672 C3674 1.381 . S
C3672 C3678 1.383 . S
C3673 C3669 1.495 . S
C3673 H3679 0.959 . S
C3673 H3680 0.961 . S
C3673 H3681 0.960 . S
C3674 C3672 1.381 . S
C3674 C3675 1.394 . S
C3674 H3682 0.930 . S
C3675 C3674 1.394 . S
C3675 C3676 1.383 . S
C3675 H3683 0.929 . S
C3676 C3675 1.383 . S
C3676 C3677 1.377 . S
C3677 H3661 0.930 . S
C3677 C3676 1.377 . S
C3677 C3678 1.379 . S
C3678 H3662 0.931 . S
C3678 C3672 1.383 . S
C3678 C3677 1.379 . S
H3679 C3673 0.959 . S
H3680 C3673 0.961 . S
H3681 C3673 0.960 . S
H3682 C3674 0.930 . S
H3683 C3675 0.929 . S
H3684 C3692 0.929 . S
H3685 C3694 0.930 . S
H3686 C3696 0.930 . S
H3687 C3699 0.929 . S
H3688 C3702 0.930 . S
H3689 C3704 0.960 . S
H3690 C3704 0.960 . S
H3691 C3704 0.960 . S
C3692 H3684 0.929 . S
C3692 C3693 1.377 . S
C3692 C3694 1.384 . S
C3693 C3692 1.377 . S
C3693 C3699 1.390 . S
C3694 H3685 0.930 . S
C3694 C3692 1.384 . S
C3694 C3695 1.372 . S
C3695 C3694 1.372 . S
C3695 C3696 1.400 . S
C3695 C3700 1.490 . S
C3696 H3686 0.930 . S
C3696 C3695 1.400 . S
C3696 C3699 1.386 . S
H3697 C3713 0.930 . S
H3698 C3714 0.931 . S
C3699 H3687 0.929 . S
C3699 C3693 1.390 . S
C3699 C3696 1.386 . S
C3700 C3695 1.490 . S
C3700 C3702 1.395 . S
C3700 C3703 1.403 . S
H3701 C3707 0.930 . S
C3702 H3688 0.930 . S
C3702 C3700 1.395 . S
C3702 C3705 1.403 1_545 S
C3703 C3700 1.403 . S
C3703 C3704 1.524 . S
C3703 C3707 1.400 1_545 S
C3704 H3689 0.960 . S
C3704 H3690 0.960 . S
C3704 H3691 0.960 . S
C3704 C3703 1.524 . S
C3705 C3702 1.403 1_565 S
C3705 C3706 1.392 . S
C3705 C3709 1.495 . S
C3706 C3705 1.392 . S
C3706 C3707 1.385 . S
C3706 C3708 1.478 . S
C3707 H3701 0.930 . S
C3707 C3703 1.400 1_565 S
C3707 C3706 1.385 . S
C3708 C3706 1.478 . S
C3708 C3710 1.381 . S
C3708 C3714 1.383 . S
C3709 C3705 1.495 . S
C3709 H3715 0.959 . S
C3709 H3716 0.961 . S
C3709 H3717 0.960 . S
C3710 C3708 1.381 . S
C3710 C3711 1.394 . S
C3710 H3718 0.930 . S
C3711 C3710 1.394 . S
C3711 C3712 1.383 . S
C3711 H3719 0.929 . S
C3712 C3711 1.383 . S
C3712 C3713 1.377 . S
C3713 H3697 0.930 . S
C3713 C3712 1.377 . S
C3713 C3714 1.379 . S
C3714 H3698 0.931 . S
C3714 C3708 1.383 . S
C3714 C3713 1.379 . S
H3715 C3709 0.959 . S
H3716 C3709 0.961 . S
H3717 C3709 0.960 . S
H3718 C3710 0.930 . S
H3719 C3711 0.929 . S
H3720 C3728 0.929 . S
H3721 C3730 0.930 . S
H3722 C3732 0.930 . S
H3723 C3735 0.929 . S
H3724 C3738 0.930 . S
H3725 C3740 0.960 . S
H3726 C3740 0.960 . S
H3727 C3740 0.960 . S
C3728 H3720 0.929 . S
C3728 C3729 1.377 . S
C3728 C3730 1.384 . S
C3729 C3728 1.377 . S
C3729 C3735 1.390 . S
C3730 H3721 0.930 . S
C3730 C3728 1.384 . S
C3730 C3731 1.372 . S
C3731 C3730 1.372 . S
C3731 C3732 1.400 . S
C3731 C3736 1.490 . S
C3732 H3722 0.930 . S
C3732 C3731 1.400 . S
C3732 C3735 1.386 . S
H3733 C3749 0.930 . S
H3734 C3750 0.931 . S
C3735 H3723 0.929 . S
C3735 C3729 1.390 . S
C3735 C3732 1.386 . S
C3736 C3731 1.490 . S
C3736 C3738 1.395 . S
C3736 C3739 1.403 . S
H3737 C3743 0.930 . S
C3738 H3724 0.930 . S
C3738 C3736 1.395 . S
C3738 C3741 1.403 1_655 S
C3739 C3736 1.403 . S
C3739 C3740 1.524 . S
C3739 C3743 1.400 1_655 S
C3740 H3725 0.960 . S
C3740 H3726 0.960 . S
C3740 H3727 0.960 . S
C3740 C3739 1.524 . S
C3741 C3738 1.403 1_455 S
C3741 C3742 1.392 . S
C3741 C3745 1.495 . S
C3742 C3741 1.392 . S
C3742 C3743 1.385 . S
C3742 C3744 1.478 . S
C3743 H3737 0.930 . S
C3743 C3739 1.400 1_455 S
C3743 C3742 1.385 . S
C3744 C3742 1.478 . S
C3744 C3746 1.381 . S
C3744 C3750 1.383 . S
C3745 C3741 1.495 . S
C3745 H3751 0.959 . S
C3745 H3752 0.961 . S
C3745 H3753 0.960 . S
C3746 C3744 1.381 . S
C3746 C3747 1.394 . S
C3746 H3754 0.930 . S
C3747 C3746 1.394 . S
C3747 C3748 1.383 . S
C3747 H3755 0.929 . S
C3748 C3747 1.383 . S
C3748 C3749 1.377 . S
C3749 H3733 0.930 . S
C3749 C3748 1.377 . S
C3749 C3750 1.379 . S
C3750 H3734 0.931 . S
C3750 C3744 1.383 . S
C3750 C3749 1.379 . S
H3751 C3745 0.959 . S
H3752 C3745 0.961 . S
H3753 C3745 0.960 . S
H3754 C3746 0.930 . S
H3755 C3747 0.929 . S
H3756 C3764 0.929 . S
H3757 C3766 0.930 . S
H3758 C3768 0.930 . S
H3759 C3771 0.929 . S
H3760 C3774 0.930 . S
H3761 C3776 0.960 . S
H3762 C3776 0.960 . S
H3763 C3776 0.960 . S
C3764 H3756 0.929 . S
C3764 C3765 1.377 . S
C3764 C3766 1.384 . S
C3765 C3764 1.377 . S
C3765 C3771 1.390 . S
C3766 H3757 0.930 . S
C3766 C3764 1.384 . S
C3766 C3767 1.372 . S
C3767 C3766 1.372 . S
C3767 C3768 1.400 . S
C3767 C3772 1.490 . S
C3768 H3758 0.930 . S
C3768 C3767 1.400 . S
C3768 C3771 1.386 . S
H3769 C3785 0.930 . S
H3770 C3786 0.931 . S
C3771 H3759 0.929 . S
C3771 C3765 1.390 . S
C3771 C3768 1.386 . S
C3772 C3767 1.490 . S
C3772 C3774 1.395 . S
C3772 C3775 1.403 . S
H3773 C3779 0.930 . S
C3774 H3760 0.930 . S
C3774 C3772 1.395 . S
C3774 C3777 1.403 1_545 S
C3775 C3772 1.403 . S
C3775 C3776 1.524 . S
C3775 C3779 1.400 1_545 S
C3776 H3761 0.960 . S
C3776 H3762 0.960 . S
C3776 H3763 0.960 . S
C3776 C3775 1.524 . S
C3777 C3774 1.403 1_565 S
C3777 C3778 1.392 . S
C3777 C3781 1.495 . S
C3778 C3777 1.392 . S
C3778 C3779 1.385 . S
C3778 C3780 1.478 . S
C3779 H3773 0.930 . S
C3779 C3775 1.400 1_565 S
C3779 C3778 1.385 . S
C3780 C3778 1.478 . S
C3780 C3782 1.381 . S
C3780 C3786 1.383 . S
C3781 C3777 1.495 . S
C3781 H3787 0.959 . S
C3781 H3788 0.961 . S
C3781 H3789 0.960 . S
C3782 C3780 1.381 . S
C3782 C3783 1.394 . S
C3782 H3790 0.930 . S
C3783 C3782 1.394 . S
C3783 C3784 1.383 . S
C3783 H3791 0.929 . S
C3784 C3783 1.383 . S
C3784 C3785 1.377 . S
C3785 H3769 0.930 . S
C3785 C3784 1.377 . S
C3785 C3786 1.379 . S
C3786 H3770 0.931 . S
C3786 C3780 1.383 . S
C3786 C3785 1.379 . S
H3787 C3781 0.959 . S
H3788 C3781 0.961 . S
H3789 C3781 0.960 . S
H3790 C3782 0.930 . S
H3791 C3783 0.929 . S
H3792 C3800 0.929 . S
H3793 C3802 0.930 . S
H3794 C3804 0.930 . S
H3795 C3807 0.929 . S
H3796 C3810 0.930 . S
H3797 C3812 0.960 . S
H3798 C3812 0.960 . S
H3799 C3812 0.960 . S
C3800 H3792 0.929 . S
C3800 C3801 1.377 . S
C3800 C3802 1.384 . S
C3801 C3800 1.377 . S
C3801 C3807 1.390 . S
C3802 H3793 0.930 . S
C3802 C3800 1.384 . S
C3802 C3803 1.372 . S
C3803 C3802 1.372 . S
C3803 C3804 1.400 . S
C3803 C3808 1.490 . S
C3804 H3794 0.930 . S
C3804 C3803 1.400 . S
C3804 C3807 1.386 . S
H3805 C3821 0.930 . S
H3806 C3822 0.931 . S
C3807 H3795 0.929 . S
C3807 C3801 1.390 . S
C3807 C3804 1.386 . S
C3808 C3803 1.490 . S
C3808 C3810 1.395 . S
C3808 C3811 1.403 . S
H3809 C3815 0.930 . S
C3810 H3796 0.930 . S
C3810 C3808 1.395 . S
C3810 C3813 1.403 1_455 S
C3811 C3808 1.403 . S
C3811 C3812 1.524 . S
C3811 C3815 1.400 1_455 S
C3812 H3797 0.960 . S
C3812 H3798 0.960 . S
C3812 H3799 0.960 . S
C3812 C3811 1.524 . S
C3813 C3810 1.403 1_655 S
C3813 C3814 1.392 . S
C3813 C3817 1.495 . S
C3814 C3813 1.392 . S
C3814 C3815 1.385 . S
C3814 C3816 1.478 . S
C3815 H3809 0.930 . S
C3815 C3811 1.400 1_655 S
C3815 C3814 1.385 . S
C3816 C3814 1.478 . S
C3816 C3818 1.381 . S
C3816 C3822 1.383 . S
C3817 C3813 1.495 . S
C3817 H3823 0.959 . S
C3817 H3824 0.961 . S
C3817 H3825 0.960 . S
C3818 C3816 1.381 . S
C3818 C3819 1.394 . S
C3818 H3826 0.930 . S
C3819 C3818 1.394 . S
C3819 C3820 1.383 . S
C3819 H3827 0.929 . S
C3820 C3819 1.383 . S
C3820 C3821 1.377 . S
C3821 H3805 0.930 . S
C3821 C3820 1.377 . S
C3821 C3822 1.379 . S
C3822 H3806 0.931 . S
C3822 C3816 1.383 . S
C3822 C3821 1.379 . S
H3823 C3817 0.959 . S
H3824 C3817 0.961 . S
H3825 C3817 0.960 . S
H3826 C3818 0.930 . S
H3827 C3819 0.929 . S
H3828 C3836 0.929 . S
H3829 C3838 0.930 . S
H3830 C3840 0.930 . S
H3831 C3843 0.929 . S
H3832 C3846 0.930 . S
H3833 C3848 0.960 . S
H3834 C3848 0.960 . S
H3835 C3848 0.960 . S
C3836 H3828 0.929 . S
C3836 C3837 1.377 . S
C3836 C3838 1.384 . S
C3837 C3836 1.377 . S
C3837 C3843 1.390 . S
C3838 H3829 0.930 . S
C3838 C3836 1.384 . S
C3838 C3839 1.372 . S
C3839 C3838 1.372 . S
C3839 C3840 1.400 . S
C3839 C3844 1.490 . S
C3840 H3830 0.930 . S
C3840 C3839 1.400 . S
C3840 C3843 1.386 . S
H3841 C3857 0.930 . S
H3842 C3858 0.931 . S
C3843 H3831 0.929 . S
C3843 C3837 1.390 . S
C3843 C3840 1.386 . S
C3844 C3839 1.490 . S
C3844 C3846 1.395 . S
C3844 C3847 1.403 . S
H3845 C3851 0.930 . S
C3846 H3832 0.930 . S
C3846 C3844 1.395 . S
C3846 C3849 1.403 1_565 S
C3847 C3844 1.403 . S
C3847 C3848 1.524 . S
C3847 C3851 1.400 1_565 S
C3848 H3833 0.960 . S
C3848 H3834 0.960 . S
C3848 H3835 0.960 . S
C3848 C3847 1.524 . S
C3849 C3846 1.403 1_545 S
C3849 C3850 1.392 . S
C3849 C3853 1.495 . S
C3850 C3849 1.392 . S
C3850 C3851 1.385 . S
C3850 C3852 1.478 . S
C3851 H3845 0.930 . S
C3851 C3847 1.400 1_545 S
C3851 C3850 1.385 . S
C3852 C3850 1.478 . S
C3852 C3854 1.381 . S
C3852 C3858 1.383 . S
C3853 C3849 1.495 . S
C3853 H3859 0.959 . S
C3853 H3860 0.961 . S
C3853 H3861 0.960 . S
C3854 C3852 1.381 . S
C3854 C3855 1.394 . S
C3854 H3862 0.930 . S
C3855 C3854 1.394 . S
C3855 C3856 1.383 . S
C3855 H3863 0.929 . S
C3856 C3855 1.383 . S
C3856 C3857 1.377 . S
C3857 H3841 0.930 . S
C3857 C3856 1.377 . S
C3857 C3858 1.379 . S
C3858 H3842 0.931 . S
C3858 C3852 1.383 . S
C3858 C3857 1.379 . S
H3859 C3853 0.959 . S
H3860 C3853 0.961 . S
H3861 C3853 0.960 . S
H3862 C3854 0.930 . S
H3863 C3855 0.929 . S
H3864 C3872 0.929 . S
H3865 C3874 0.930 . S
H3866 C3876 0.930 . S
H3867 C3879 0.929 . S
H3868 C3882 0.930 . S
H3869 C3884 0.960 . S
H3870 C3884 0.960 . S
H3871 C3884 0.960 . S
C3872 H3864 0.929 . S
C3872 C3873 1.377 . S
C3872 C3874 1.384 . S
C3873 C3872 1.377 . S
C3873 C3879 1.390 . S
C3874 H3865 0.930 . S
C3874 C3872 1.384 . S
C3874 C3875 1.372 . S
C3875 C3874 1.372 . S
C3875 C3876 1.400 . S
C3875 C3880 1.490 . S
C3876 H3866 0.930 . S
C3876 C3875 1.400 . S
C3876 C3879 1.386 . S
H3877 C3893 0.930 . S
H3878 C3894 0.931 . S
C3879 H3867 0.929 . S
C3879 C3873 1.390 . S
C3879 C3876 1.386 . S
C3880 C3875 1.490 . S
C3880 C3882 1.395 . S
C3880 C3883 1.403 . S
H3881 C3887 0.930 . S
C3882 H3868 0.930 . S
C3882 C3880 1.395 . S
C3882 C3885 1.403 1_655 S
C3883 C3880 1.403 . S
C3883 C3884 1.524 . S
C3883 C3887 1.400 1_655 S
C3884 H3869 0.960 . S
C3884 H3870 0.960 . S
C3884 H3871 0.960 . S
C3884 C3883 1.524 . S
C3885 C3882 1.403 1_455 S
C3885 C3886 1.392 . S
C3885 C3889 1.495 . S
C3886 C3885 1.392 . S
C3886 C3887 1.385 . S
C3886 C3888 1.478 . S
C3887 H3881 0.930 . S
C3887 C3883 1.400 1_455 S
C3887 C3886 1.385 . S
C3888 C3886 1.478 . S
C3888 C3890 1.381 . S
C3888 C3894 1.383 . S
C3889 C3885 1.495 . S
C3889 H3895 0.959 . S
C3889 H3896 0.961 . S
C3889 H3897 0.960 . S
C3890 C3888 1.381 . S
C3890 C3891 1.394 . S
C3890 H3898 0.930 . S
C3891 C3890 1.394 . S
C3891 C3892 1.383 . S
C3891 H3899 0.929 . S
C3892 C3891 1.383 . S
C3892 C3893 1.377 . S
C3893 H3877 0.930 . S
C3893 C3892 1.377 . S
C3893 C3894 1.379 . S
C3894 H3878 0.931 . S
C3894 C3888 1.383 . S
C3894 C3893 1.379 . S
H3895 C3889 0.959 . S
H3896 C3889 0.961 . S
H3897 C3889 0.960 . S
H3898 C3890 0.930 . S
H3899 C3891 0.929 . S
H3900 C3908 0.929 . S
H3901 C3910 0.930 . S
H3902 C3912 0.930 . S
H3903 C3915 0.929 . S
H3904 C3918 0.930 . S
H3905 C3920 0.960 . S
H3906 C3920 0.960 . S
H3907 C3920 0.960 . S
C3908 H3900 0.929 . S
C3908 C3909 1.377 . S
C3908 C3910 1.384 . S
C3909 C3908 1.377 . S
C3909 C3915 1.390 . S
C3910 H3901 0.930 . S
C3910 C3908 1.384 . S
C3910 C3911 1.372 . S
C3911 C3910 1.372 . S
C3911 C3912 1.400 . S
C3911 C3916 1.490 . S
C3912 H3902 0.930 . S
C3912 C3911 1.400 . S
C3912 C3915 1.386 . S
H3913 C3929 0.930 . S
H3914 C3930 0.931 . S
C3915 H3903 0.929 . S
C3915 C3909 1.390 . S
C3915 C3912 1.386 . S
C3916 C3911 1.490 . S
C3916 C3918 1.395 . S
C3916 C3919 1.403 . S
H3917 C3923 0.930 . S
C3918 H3904 0.930 . S
C3918 C3916 1.395 . S
C3918 C3921 1.403 1_565 S
C3919 C3916 1.403 . S
C3919 C3920 1.524 . S
C3919 C3923 1.400 1_565 S
C3920 H3905 0.960 . S
C3920 H3906 0.960 . S
C3920 H3907 0.960 . S
C3920 C3919 1.524 . S
C3921 C3918 1.403 1_545 S
C3921 C3922 1.392 . S
C3921 C3925 1.495 . S
C3922 C3921 1.392 . S
C3922 C3923 1.385 . S
C3922 C3924 1.478 . S
C3923 H3917 0.930 . S
C3923 C3919 1.400 1_545 S
C3923 C3922 1.385 . S
C3924 C3922 1.478 . S
C3924 C3926 1.381 . S
C3924 C3930 1.383 . S
C3925 C3921 1.495 . S
C3925 H3931 0.959 . S
C3925 H3932 0.961 . S
C3925 H3933 0.960 . S
C3926 C3924 1.381 . S
C3926 C3927 1.394 . S
C3926 H3934 0.930 . S
C3927 C3926 1.394 . S
C3927 C3928 1.383 . S
C3927 H3935 0.929 . S
C3928 C3927 1.383 . S
C3928 C3929 1.377 . S
C3929 H3913 0.930 . S
C3929 C3928 1.377 . S
C3929 C3930 1.379 . S
C3930 H3914 0.931 . S
C3930 C3924 1.383 . S
C3930 C3929 1.379 . S
H3931 C3925 0.959 . S
H3932 C3925 0.961 . S
H3933 C3925 0.960 . S
H3934 C3926 0.930 . S
H3935 C3927 0.929 . S
H3936 C3944 0.929 . S
H3937 C3946 0.930 . S
H3938 C3948 0.930 . S
H3939 C3951 0.929 . S
H3940 C3954 0.930 . S
H3941 C3956 0.960 . S
H3942 C3956 0.960 . S
H3943 C3956 0.960 . S
C3944 H3936 0.929 . S
C3944 C3945 1.377 . S
C3944 C3946 1.384 . S
C3945 C3944 1.377 . S
C3945 C3951 1.390 . S
C3946 H3937 0.930 . S
C3946 C3944 1.384 . S
C3946 C3947 1.372 . S
C3947 C3946 1.372 . S
C3947 C3948 1.400 . S
C3947 C3952 1.490 . S
C3948 H3938 0.930 . S
C3948 C3947 1.400 . S
C3948 C3951 1.386 . S
H3949 C3965 0.930 . S
H3950 C3966 0.931 . S
C3951 H3939 0.929 . S
C3951 C3945 1.390 . S
C3951 C3948 1.386 . S
C3952 C3947 1.490 . S
C3952 C3954 1.395 . S
C3952 C3955 1.403 . S
H3953 C3959 0.930 . S
C3954 H3940 0.930 . S
C3954 C3952 1.395 . S
C3954 C3957 1.403 1_556 S
C3955 C3952 1.403 . S
C3955 C3956 1.524 . S
C3955 C3959 1.400 1_556 S
C3956 H3941 0.960 . S
C3956 H3942 0.960 . S
C3956 H3943 0.960 . S
C3956 C3955 1.524 . S
C3957 C3954 1.403 1_554 S
C3957 C3958 1.392 . S
C3957 C3961 1.495 . S
C3958 C3957 1.392 . S
C3958 C3959 1.385 . S
C3958 C3960 1.478 . S
C3959 H3953 0.930 . S
C3959 C3955 1.400 1_554 S
C3959 C3958 1.385 . S
C3960 C3958 1.478 . S
C3960 C3962 1.381 . S
C3960 C3966 1.383 . S
C3961 C3957 1.495 . S
C3961 H3967 0.959 . S
C3961 H3968 0.961 . S
C3961 H3969 0.960 . S
C3962 C3960 1.381 . S
C3962 C3963 1.394 . S
C3962 H3970 0.930 . S
C3963 C3962 1.394 . S
C3963 C3964 1.383 . S
C3963 H3971 0.929 . S
C3964 C3963 1.383 . S
C3964 C3965 1.377 . S
C3965 H3949 0.930 . S
C3965 C3964 1.377 . S
C3965 C3966 1.379 . S
C3966 H3950 0.931 . S
C3966 C3960 1.383 . S
C3966 C3965 1.379 . S
H3967 C3961 0.959 . S
H3968 C3961 0.961 . S
H3969 C3961 0.960 . S
H3970 C3962 0.930 . S
H3971 C3963 0.929 . S
H3972 C3980 0.929 . S
H3973 C3982 0.930 . S
H3974 C3984 0.930 . S
H3975 C3987 0.929 . S
H3976 C3990 0.930 . S
H3977 C3992 0.960 . S
H3978 C3992 0.960 . S
H3979 C3992 0.960 . S
C3980 H3972 0.929 . S
C3980 C3981 1.377 . S
C3980 C3982 1.384 . S
C3981 C3980 1.377 . S
C3981 C3987 1.390 . S
C3982 H3973 0.930 . S
C3982 C3980 1.384 . S
C3982 C3983 1.372 . S
C3983 C3982 1.372 . S
C3983 C3984 1.400 . S
C3983 C3988 1.490 . S
C3984 H3974 0.930 . S
C3984 C3983 1.400 . S
C3984 C3987 1.386 . S
H3985 C4001 0.930 . S
H3986 C4002 0.931 . S
C3987 H3975 0.929 . S
C3987 C3981 1.390 . S
C3987 C3984 1.386 . S
C3988 C3983 1.490 . S
C3988 C3990 1.395 . S
C3988 C3991 1.403 . S
H3989 C3995 0.930 . S
C3990 H3976 0.930 . S
C3990 C3988 1.395 . S
C3990 C3993 1.403 1_556 S
C3991 C3988 1.403 . S
C3991 C3992 1.524 . S
C3991 C3995 1.400 1_556 S
C3992 H3977 0.960 . S
C3992 H3978 0.960 . S
C3992 H3979 0.960 . S
C3992 C3991 1.524 . S
C3993 C3990 1.403 1_554 S
C3993 C3994 1.392 . S
C3993 C3997 1.495 . S
C3994 C3993 1.392 . S
C3994 C3995 1.385 . S
C3994 C3996 1.478 . S
C3995 H3989 0.930 . S
C3995 C3991 1.400 1_554 S
C3995 C3994 1.385 . S
C3996 C3994 1.478 . S
C3996 C3998 1.381 . S
C3996 C4002 1.383 . S
C3997 C3993 1.495 . S
C3997 H4003 0.959 . S
C3997 H4004 0.961 . S
C3997 H4005 0.960 . S
C3998 C3996 1.381 . S
C3998 C3999 1.394 . S
C3998 H4006 0.930 . S
C3999 C3998 1.394 . S
C3999 C4000 1.383 . S
C3999 H4007 0.929 . S
C4000 C3999 1.383 . S
C4000 C4001 1.377 . S
C4001 H3985 0.930 . S
C4001 C4000 1.377 . S
C4001 C4002 1.379 . S
C4002 H3986 0.931 . S
C4002 C3996 1.383 . S
C4002 C4001 1.379 . S
H4003 C3997 0.959 . S
H4004 C3997 0.961 . S
H4005 C3997 0.960 . S
H4006 C3998 0.930 . S
H4007 C3999 0.929 . S
H4008 C4016 0.929 . S
H4009 C4018 0.930 . S
H4010 C4020 0.930 . S
H4011 C4023 0.929 . S
H4012 C4026 0.930 . S
H4013 C4028 0.960 . S
H4014 C4028 0.960 . S
H4015 C4028 0.960 . S
C4016 H4008 0.929 . S
C4016 C4017 1.377 . S
C4016 C4018 1.384 . S
C4017 C4016 1.377 . S
C4017 C4023 1.390 . S
C4018 H4009 0.930 . S
C4018 C4016 1.384 . S
C4018 C4019 1.372 . S
C4019 C4018 1.372 . S
C4019 C4020 1.400 . S
C4019 C4024 1.490 . S
C4020 H4010 0.930 . S
C4020 C4019 1.400 . S
C4020 C4023 1.386 . S
H4021 C4037 0.930 . S
H4022 C4038 0.931 . S
C4023 H4011 0.929 . S
C4023 C4017 1.390 . S
C4023 C4020 1.386 . S
C4024 C4019 1.490 . S
C4024 C4026 1.395 . S
C4024 C4027 1.403 . S
H4025 C4031 0.930 . S
C4026 H4012 0.930 . S
C4026 C4024 1.395 . S
C4026 C4029 1.403 1_554 S
C4027 C4024 1.403 . S
C4027 C4028 1.524 . S
C4027 C4031 1.400 1_554 S
C4028 H4013 0.960 . S
C4028 H4014 0.960 . S
C4028 H4015 0.960 . S
C4028 C4027 1.524 . S
C4029 C4026 1.403 1_556 S
C4029 C4030 1.392 . S
C4029 C4033 1.495 . S
C4030 C4029 1.392 . S
C4030 C4031 1.385 . S
C4030 C4032 1.478 . S
C4031 H4025 0.930 . S
C4031 C4027 1.400 1_556 S
C4031 C4030 1.385 . S
C4032 C4030 1.478 . S
C4032 C4034 1.381 . S
C4032 C4038 1.383 . S
C4033 C4029 1.495 . S
C4033 H4039 0.959 . S
C4033 H4040 0.961 . S
C4033 H4041 0.960 . S
C4034 C4032 1.381 . S
C4034 C4035 1.394 . S
C4034 H4042 0.930 . S
C4035 C4034 1.394 . S
C4035 C4036 1.383 . S
C4035 H4043 0.929 . S
C4036 C4035 1.383 . S
C4036 C4037 1.377 . S
C4037 H4021 0.930 . S
C4037 C4036 1.377 . S
C4037 C4038 1.379 . S
C4038 H4022 0.931 . S
C4038 C4032 1.383 . S
C4038 C4037 1.379 . S
H4039 C4033 0.959 . S
H4040 C4033 0.961 . S
H4041 C4033 0.960 . S
H4042 C4034 0.930 . S
H4043 C4035 0.929 . S
H4044 C4052 0.929 . S
H4045 C4054 0.930 . S
H4046 C4056 0.930 . S
H4047 C4059 0.929 . S
H4048 C4062 0.930 . S
H4049 C4064 0.960 . S
H4050 C4064 0.960 . S
H4051 C4064 0.960 . S
C4052 H4044 0.929 . S
C4052 C4053 1.377 . S
C4052 C4054 1.384 . S
C4053 C4052 1.377 . S
C4053 C4059 1.390 . S
C4054 H4045 0.930 . S
C4054 C4052 1.384 . S
C4054 C4055 1.372 . S
C4055 C4054 1.372 . S
C4055 C4056 1.400 . S
C4055 C4060 1.490 . S
C4056 H4046 0.930 . S
C4056 C4055 1.400 . S
C4056 C4059 1.386 . S
H4057 C4073 0.930 . S
H4058 C4074 0.931 . S
C4059 H4047 0.929 . S
C4059 C4053 1.390 . S
C4059 C4056 1.386 . S
C4060 C4055 1.490 . S
C4060 C4062 1.395 . S
C4060 C4063 1.403 . S
H4061 C4067 0.930 . S
C4062 H4048 0.930 . S
C4062 C4060 1.395 . S
C4062 C4065 1.403 1_554 S
C4063 C4060 1.403 . S
C4063 C4064 1.524 . S
C4063 C4067 1.400 1_554 S
C4064 H4049 0.960 . S
C4064 H4050 0.960 . S
C4064 H4051 0.960 . S
C4064 C4063 1.524 . S
C4065 C4062 1.403 1_556 S
C4065 C4066 1.392 . S
C4065 C4069 1.495 . S
C4066 C4065 1.392 . S
C4066 C4067 1.385 . S
C4066 C4068 1.478 . S
C4067 H4061 0.930 . S
C4067 C4063 1.400 1_556 S
C4067 C4066 1.385 . S
C4068 C4066 1.478 . S
C4068 C4070 1.381 . S
C4068 C4074 1.383 . S
C4069 C4065 1.495 . S
C4069 H4075 0.959 . S
C4069 H4076 0.961 . S
C4069 H4077 0.960 . S
C4070 C4068 1.381 . S
C4070 C4071 1.394 . S
C4070 H4078 0.930 . S
C4071 C4070 1.394 . S
C4071 C4072 1.383 . S
C4071 H4079 0.929 . S
C4072 C4071 1.383 . S
C4072 C4073 1.377 . S
C4073 H4057 0.930 . S
C4073 C4072 1.377 . S
C4073 C4074 1.379 . S
C4074 H4058 0.931 . S
C4074 C4068 1.383 . S
C4074 C4073 1.379 . S
H4075 C4069 0.959 . S
H4076 C4069 0.961 . S
H4077 C4069 0.960 . S
H4078 C4070 0.930 . S
H4079 C4071 0.929 . S
H4080 C4088 0.929 . S
H4081 C4090 0.930 . S
H4082 C4092 0.930 . S
H4083 C4095 0.929 . S
H4084 C4098 0.930 . S
H4085 C4100 0.960 . S
H4086 C4100 0.960 . S
H4087 C4100 0.960 . S
C4088 H4080 0.929 . S
C4088 C4089 1.377 . S
C4088 C4090 1.384 . S
C4089 C4088 1.377 . S
C4089 C4095 1.390 . S
C4090 H4081 0.930 . S
C4090 C4088 1.384 . S
C4090 C4091 1.372 . S
C4091 C4090 1.372 . S
C4091 C4092 1.400 . S
C4091 C4096 1.490 . S
C4092 H4082 0.930 . S
C4092 C4091 1.400 . S
C4092 C4095 1.386 . S
H4093 C4109 0.930 . S
H4094 C4110 0.931 . S
C4095 H4083 0.929 . S
C4095 C4089 1.390 . S
C4095 C4092 1.386 . S
C4096 C4091 1.490 . S
C4096 C4098 1.395 . S
C4096 C4099 1.403 . S
H4097 C4103 0.930 . S
C4098 H4084 0.930 . S
C4098 C4096 1.395 . S
C4098 C4101 1.403 . S
C4099 C4096 1.403 . S
C4099 C4100 1.524 . S
C4099 C4103 1.400 . S
C4100 H4085 0.960 . S
C4100 H4086 0.960 . S
C4100 H4087 0.960 . S
C4100 C4099 1.524 . S
C4101 C4098 1.403 . S
C4101 C4102 1.392 . S
C4101 C4105 1.495 . S
C4102 C4101 1.392 . S
C4102 C4103 1.385 . S
C4102 C4104 1.478 . S
C4103 H4097 0.930 . S
C4103 C4099 1.400 . S
C4103 C4102 1.385 . S
C4104 C4102 1.478 . S
C4104 C4106 1.381 . S
C4104 C4110 1.383 . S
C4105 C4101 1.495 . S
C4105 H4111 0.959 . S
C4105 H4112 0.961 . S
C4105 H4113 0.960 . S
C4106 C4104 1.381 . S
C4106 C4107 1.394 . S
C4106 H4114 0.930 . S
C4107 C4106 1.394 . S
C4107 C4108 1.383 . S
C4107 H4115 0.929 . S
C4108 C4107 1.383 . S
C4108 C4109 1.377 . S
C4109 H4093 0.930 . S
C4109 C4108 1.377 . S
C4109 C4110 1.379 . S
C4110 H4094 0.931 . S
C4110 C4104 1.383 . S
C4110 C4109 1.379 . S
H4111 C4105 0.959 . S
H4112 C4105 0.961 . S
H4113 C4105 0.960 . S
H4114 C4106 0.930 . S
H4115 C4107 0.929 . S
H4116 C4124 0.929 . S
H4117 C4126 0.930 . S
H4118 C4128 0.930 . S
H4119 C4131 0.929 . S
H4120 C4134 0.930 . S
H4121 C4136 0.960 . S
H4122 C4136 0.960 . S
H4123 C4136 0.960 . S
C4124 H4116 0.929 . S
C4124 C4125 1.377 . S
C4124 C4126 1.384 . S
C4125 C4124 1.377 . S
C4125 C4131 1.390 . S
C4126 H4117 0.930 . S
C4126 C4124 1.384 . S
C4126 C4127 1.372 . S
C4127 C4126 1.372 . S
C4127 C4128 1.400 . S
C4127 C4132 1.490 . S
C4128 H4118 0.930 . S
C4128 C4127 1.400 . S
C4128 C4131 1.386 . S
H4129 C4145 0.930 . S
H4130 C4146 0.931 . S
C4131 H4119 0.929 . S
C4131 C4125 1.390 . S
C4131 C4128 1.386 . S
C4132 C4127 1.490 . S
C4132 C4134 1.395 . S
C4132 C4135 1.403 . S
H4133 C4139 0.930 . S
C4134 H4120 0.930 . S
C4134 C4132 1.395 . S
C4134 C4137 1.403 . S
C4135 C4132 1.403 . S
C4135 C4136 1.524 . S
C4135 C4139 1.400 . S
C4136 H4121 0.960 . S
C4136 H4122 0.960 . S
C4136 H4123 0.960 . S
C4136 C4135 1.524 . S
C4137 C4134 1.403 . S
C4137 C4138 1.392 . S
C4137 C4141 1.495 . S
C4138 C4137 1.392 . S
C4138 C4139 1.385 . S
C4138 C4140 1.478 . S
C4139 H4133 0.930 . S
C4139 C4135 1.400 . S
C4139 C4138 1.385 . S
C4140 C4138 1.478 . S
C4140 C4142 1.381 . S
C4140 C4146 1.383 . S
C4141 C4137 1.495 . S
C4141 H4147 0.959 . S
C4141 H4148 0.961 . S
C4141 H4149 0.960 . S
C4142 C4140 1.381 . S
C4142 C4143 1.394 . S
C4142 H4150 0.930 . S
C4143 C4142 1.394 . S
C4143 C4144 1.383 . S
C4143 H4151 0.929 . S
C4144 C4143 1.383 . S
C4144 C4145 1.377 . S
C4145 H4129 0.930 . S
C4145 C4144 1.377 . S
C4145 C4146 1.379 . S
C4146 H4130 0.931 . S
C4146 C4140 1.383 . S
C4146 C4145 1.379 . S
H4147 C4141 0.959 . S
H4148 C4141 0.961 . S
H4149 C4141 0.960 . S
H4150 C4142 0.930 . S
H4151 C4143 0.929 . S
H4152 C4160 0.929 . S
H4153 C4162 0.930 . S
H4154 C4164 0.930 . S
H4155 C4167 0.929 . S
H4156 C4170 0.930 . S
H4157 C4172 0.960 . S
H4158 C4172 0.960 . S
H4159 C4172 0.960 . S
C4160 H4152 0.929 . S
C4160 C4161 1.377 . S
C4160 C4162 1.384 . S
C4161 C4160 1.377 . S
C4161 C4167 1.390 . S
C4162 H4153 0.930 . S
C4162 C4160 1.384 . S
C4162 C4163 1.372 . S
C4163 C4162 1.372 . S
C4163 C4164 1.400 . S
C4163 C4168 1.490 . S
C4164 H4154 0.930 . S
C4164 C4163 1.400 . S
C4164 C4167 1.386 . S
H4165 C4181 0.930 . S
H4166 C4182 0.931 . S
C4167 H4155 0.929 . S
C4167 C4161 1.390 . S
C4167 C4164 1.386 . S
C4168 C4163 1.490 . S
C4168 C4170 1.395 . S
C4168 C4171 1.403 . S
H4169 C4175 0.930 . S
C4170 H4156 0.930 . S
C4170 C4168 1.395 . S
C4170 C4173 1.403 . S
C4171 C4168 1.403 . S
C4171 C4172 1.524 . S
C4171 C4175 1.400 . S
C4172 H4157 0.960 . S
C4172 H4158 0.960 . S
C4172 H4159 0.960 . S
C4172 C4171 1.524 . S
C4173 C4170 1.403 . S
C4173 C4174 1.392 . S
C4173 C4177 1.495 . S
C4174 C4173 1.392 . S
C4174 C4175 1.385 . S
C4174 C4176 1.478 . S
C4175 H4169 0.930 . S
C4175 C4171 1.400 . S
C4175 C4174 1.385 . S
C4176 C4174 1.478 . S
C4176 C4178 1.381 . S
C4176 C4182 1.383 . S
C4177 C4173 1.495 . S
C4177 H4183 0.959 . S
C4177 H4184 0.961 . S
C4177 H4185 0.960 . S
C4178 C4176 1.381 . S
C4178 C4179 1.394 . S
C4178 H4186 0.930 . S
C4179 C4178 1.394 . S
C4179 C4180 1.383 . S
C4179 H4187 0.929 . S
C4180 C4179 1.383 . S
C4180 C4181 1.377 . S
C4181 H4165 0.930 . S
C4181 C4180 1.377 . S
C4181 C4182 1.379 . S
C4182 H4166 0.931 . S
C4182 C4176 1.383 . S
C4182 C4181 1.379 . S
H4183 C4177 0.959 . S
H4184 C4177 0.961 . S
H4185 C4177 0.960 . S
H4186 C4178 0.930 . S
H4187 C4179 0.929 . S
H4188 C4196 0.929 . S
H4189 C4198 0.930 . S
H4190 C4200 0.930 . S
H4191 C4203 0.929 . S
H4192 C4206 0.930 . S
H4193 C4208 0.960 . S
H4194 C4208 0.960 . S
H4195 C4208 0.960 . S
C4196 H4188 0.929 . S
C4196 C4197 1.377 . S
C4196 C4198 1.384 . S
C4197 C4196 1.377 . S
C4197 C4203 1.390 . S
C4198 H4189 0.930 . S
C4198 C4196 1.384 . S
C4198 C4199 1.372 . S
C4199 C4198 1.372 . S
C4199 C4200 1.400 . S
C4199 C4204 1.490 . S
C4200 H4190 0.930 . S
C4200 C4199 1.400 . S
C4200 C4203 1.386 . S
H4201 C4217 0.930 . S
H4202 C4218 0.931 . S
C4203 H4191 0.929 . S
C4203 C4197 1.390 . S
C4203 C4200 1.386 . S
C4204 C4199 1.490 . S
C4204 C4206 1.395 . S
C4204 C4207 1.403 . S
H4205 C4211 0.930 . S
C4206 H4192 0.930 . S
C4206 C4204 1.395 . S
C4206 C4209 1.403 . S
C4207 C4204 1.403 . S
C4207 C4208 1.524 . S
C4207 C4211 1.400 . S
C4208 H4193 0.960 . S
C4208 H4194 0.960 . S
C4208 H4195 0.960 . S
C4208 C4207 1.524 . S
C4209 C4206 1.403 . S
C4209 C4210 1.392 . S
C4209 C4213 1.495 . S
C4210 C4209 1.392 . S
C4210 C4211 1.385 . S
C4210 C4212 1.478 . S
C4211 H4205 0.930 . S
C4211 C4207 1.400 . S
C4211 C4210 1.385 . S
C4212 C4210 1.478 . S
C4212 C4214 1.381 . S
C4212 C4218 1.383 . S
C4213 C4209 1.495 . S
C4213 H4219 0.959 . S
C4213 H4220 0.961 . S
C4213 H4221 0.960 . S
C4214 C4212 1.381 . S
C4214 C4215 1.394 . S
C4214 H4222 0.930 . S
C4215 C4214 1.394 . S
C4215 C4216 1.383 . S
C4215 H4223 0.929 . S
C4216 C4215 1.383 . S
C4216 C4217 1.377 . S
C4217 H4201 0.930 . S
C4217 C4216 1.377 . S
C4217 C4218 1.379 . S
C4218 H4202 0.931 . S
C4218 C4212 1.383 . S
C4218 C4217 1.379 . S
H4219 C4213 0.959 . S
H4220 C4213 0.961 . S
H4221 C4213 0.960 . S
H4222 C4214 0.930 . S
H4223 C4215 0.929 . S
H4224 C4232 0.929 . S
H4225 C4234 0.930 . S
H4226 C4236 0.930 . S
H4227 C4239 0.929 . S
H4228 C4242 0.930 . S
H4229 C4244 0.960 . S
H4230 C4244 0.960 . S
H4231 C4244 0.960 . S
C4232 H4224 0.929 . S
C4232 C4233 1.377 . S
C4232 C4234 1.384 . S
C4233 C4232 1.377 . S
C4233 C4239 1.390 . S
C4234 H4225 0.930 . S
C4234 C4232 1.384 . S
C4234 C4235 1.372 . S
C4235 C4234 1.372 . S
C4235 C4236 1.400 . S
C4235 C4240 1.490 . S
C4236 H4226 0.930 . S
C4236 C4235 1.400 . S
C4236 C4239 1.386 . S
H4237 C4253 0.930 . S
H4238 C4254 0.931 . S
C4239 H4227 0.929 . S
C4239 C4233 1.390 . S
C4239 C4236 1.386 . S
C4240 C4235 1.490 . S
C4240 C4242 1.395 . S
C4240 C4243 1.403 . S
H4241 C4247 0.930 . S
C4242 H4228 0.930 . S
C4242 C4240 1.395 . S
C4242 C4245 1.403 . S
C4243 C4240 1.403 . S
C4243 C4244 1.524 . S
C4243 C4247 1.400 . S
C4244 H4229 0.960 . S
C4244 H4230 0.960 . S
C4244 H4231 0.960 . S
C4244 C4243 1.524 . S
C4245 C4242 1.403 . S
C4245 C4246 1.392 . S
C4245 C4249 1.495 . S
C4246 C4245 1.392 . S
C4246 C4247 1.385 . S
C4246 C4248 1.478 . S
C4247 H4241 0.930 . S
C4247 C4243 1.400 . S
C4247 C4246 1.385 . S
C4248 C4246 1.478 . S
C4248 C4250 1.381 . S
C4248 C4254 1.383 . S
C4249 C4245 1.495 . S
C4249 H4255 0.959 . S
C4249 H4256 0.961 . S
C4249 H4257 0.960 . S
C4250 C4248 1.381 . S
C4250 C4251 1.394 . S
C4250 H4258 0.930 . S
C4251 C4250 1.394 . S
C4251 C4252 1.383 . S
C4251 H4259 0.929 . S
C4252 C4251 1.383 . S
C4252 C4253 1.377 . S
C4253 H4237 0.930 . S
C4253 C4252 1.377 . S
C4253 C4254 1.379 . S
C4254 H4238 0.931 . S
C4254 C4248 1.383 . S
C4254 C4253 1.379 . S
H4255 C4249 0.959 . S
H4256 C4249 0.961 . S
H4257 C4249 0.960 . S
H4258 C4250 0.930 . S
H4259 C4251 0.929 . S
H4260 C4268 0.929 . S
H4261 C4270 0.930 . S
H4262 C4272 0.930 . S
H4263 C4275 0.929 . S
H4264 C4278 0.930 . S
H4265 C4280 0.960 . S
H4266 C4280 0.960 . S
H4267 C4280 0.960 . S
C4268 H4260 0.929 . S
C4268 C4269 1.377 . S
C4268 C4270 1.384 . S
C4269 C4268 1.377 . S
C4269 C4275 1.390 . S
C4270 H4261 0.930 . S
C4270 C4268 1.384 . S
C4270 C4271 1.372 . S
C4271 C4270 1.372 . S
C4271 C4272 1.400 . S
C4271 C4276 1.490 . S
C4272 H4262 0.930 . S
C4272 C4271 1.400 . S
C4272 C4275 1.386 . S
H4273 C4289 0.930 . S
H4274 C4290 0.931 . S
C4275 H4263 0.929 . S
C4275 C4269 1.390 . S
C4275 C4272 1.386 . S
C4276 C4271 1.490 . S
C4276 C4278 1.395 . S
C4276 C4279 1.403 . S
H4277 C4283 0.930 . S
C4278 H4264 0.930 . S
C4278 C4276 1.395 . S
C4278 C4281 1.403 . S
C4279 C4276 1.403 . S
C4279 C4280 1.524 . S
C4279 C4283 1.400 . S
C4280 H4265 0.960 . S
C4280 H4266 0.960 . S
C4280 H4267 0.960 . S
C4280 C4279 1.524 . S
C4281 C4278 1.403 . S
C4281 C4282 1.392 . S
C4281 C4285 1.495 . S
C4282 C4281 1.392 . S
C4282 C4283 1.385 . S
C4282 C4284 1.478 . S
C4283 H4277 0.930 . S
C4283 C4279 1.400 . S
C4283 C4282 1.385 . S
C4284 C4282 1.478 . S
C4284 C4286 1.381 . S
C4284 C4290 1.383 . S
C4285 C4281 1.495 . S
C4285 H4291 0.959 . S
C4285 H4292 0.961 . S
C4285 H4293 0.960 . S
C4286 C4284 1.381 . S
C4286 C4287 1.394 . S
C4286 H4294 0.930 . S
C4287 C4286 1.394 . S
C4287 C4288 1.383 . S
C4287 H4295 0.929 . S
C4288 C4287 1.383 . S
C4288 C4289 1.377 . S
C4289 H4273 0.930 . S
C4289 C4288 1.377 . S
C4289 C4290 1.379 . S
C4290 H4274 0.931 . S
C4290 C4284 1.383 . S
C4290 C4289 1.379 . S
H4291 C4285 0.959 . S
H4292 C4285 0.961 . S
H4293 C4285 0.960 . S
H4294 C4286 0.930 . S
H4295 C4287 0.929 . S
H4296 C4304 0.929 . S
H4297 C4306 0.930 . S
H4298 C4308 0.930 . S
H4299 C4311 0.929 . S
H4300 C4314 0.930 . S
H4301 C4316 0.960 . S
H4302 C4316 0.960 . S
H4303 C4316 0.960 . S
C4304 H4296 0.929 . S
C4304 C4305 1.377 . S
C4304 C4306 1.384 . S
C4305 C4304 1.377 . S
C4305 C4311 1.390 . S
C4306 H4297 0.930 . S
C4306 C4304 1.384 . S
C4306 C4307 1.372 . S
C4307 C4306 1.372 . S
C4307 C4308 1.400 . S
C4307 C4312 1.490 . S
C4308 H4298 0.930 . S
C4308 C4307 1.400 . S
C4308 C4311 1.386 . S
H4309 C4325 0.930 . S
H4310 C4326 0.931 . S
C4311 H4299 0.929 . S
C4311 C4305 1.390 . S
C4311 C4308 1.386 . S
C4312 C4307 1.490 . S
C4312 C4314 1.395 . S
C4312 C4315 1.403 . S
H4313 C4319 0.930 . S
C4314 H4300 0.930 . S
C4314 C4312 1.395 . S
C4314 C4317 1.403 . S
C4315 C4312 1.403 . S
C4315 C4316 1.524 . S
C4315 C4319 1.400 . S
C4316 H4301 0.960 . S
C4316 H4302 0.960 . S
C4316 H4303 0.960 . S
C4316 C4315 1.524 . S
C4317 C4314 1.403 . S
C4317 C4318 1.392 . S
C4317 C4321 1.495 . S
C4318 C4317 1.392 . S
C4318 C4319 1.385 . S
C4318 C4320 1.478 . S
C4319 H4313 0.930 . S
C4319 C4315 1.400 . S
C4319 C4318 1.385 . S
C4320 C4318 1.478 . S
C4320 C4322 1.381 . S
C4320 C4326 1.383 . S
C4321 C4317 1.495 . S
C4321 H4327 0.959 . S
C4321 H4328 0.961 . S
C4321 H4329 0.960 . S
C4322 C4320 1.381 . S
C4322 C4323 1.394 . S
C4322 H4330 0.930 . S
C4323 C4322 1.394 . S
C4323 C4324 1.383 . S
C4323 H4331 0.929 . S
C4324 C4323 1.383 . S
C4324 C4325 1.377 . S
C4325 H4309 0.930 . S
C4325 C4324 1.377 . S
C4325 C4326 1.379 . S
C4326 H4310 0.931 . S
C4326 C4320 1.383 . S
C4326 C4325 1.379 . S
H4327 C4321 0.959 . S
H4328 C4321 0.961 . S
H4329 C4321 0.960 . S
H4330 C4322 0.930 . S
H4331 C4323 0.929 . S
H4332 C4340 0.929 . S
H4333 C4342 0.930 . S
H4334 C4344 0.930 . S
H4335 C4347 0.929 . S
H4336 C4350 0.930 . S
H4337 C4352 0.960 . S
H4338 C4352 0.960 . S
H4339 C4352 0.960 . S
C4340 H4332 0.929 . S
C4340 C4341 1.377 . S
C4340 C4342 1.384 . S
C4341 C4340 1.377 . S
C4341 C4347 1.390 . S
C4342 H4333 0.930 . S
C4342 C4340 1.384 . S
C4342 C4343 1.372 . S
C4343 C4342 1.372 . S
C4343 C4344 1.400 . S
C4343 C4348 1.490 . S
C4344 H4334 0.930 . S
C4344 C4343 1.400 . S
C4344 C4347 1.386 . S
H4345 C4361 0.930 . S
H4346 C4362 0.931 . S
C4347 H4335 0.929 . S
C4347 C4341 1.390 . S
C4347 C4344 1.386 . S
C4348 C4343 1.490 . S
C4348 C4350 1.395 . S
C4348 C4351 1.403 . S
H4349 C4355 0.930 . S
C4350 H4336 0.930 . S
C4350 C4348 1.395 . S
C4350 C4353 1.403 . S
C4351 C4348 1.403 . S
C4351 C4352 1.524 . S
C4351 C4355 1.400 . S
C4352 H4337 0.960 . S
C4352 H4338 0.960 . S
C4352 H4339 0.960 . S
C4352 C4351 1.524 . S
C4353 C4350 1.403 . S
C4353 C4354 1.392 . S
C4353 C4357 1.495 . S
C4354 C4353 1.392 . S
C4354 C4355 1.385 . S
C4354 C4356 1.478 . S
C4355 H4349 0.930 . S
C4355 C4351 1.400 . S
C4355 C4354 1.385 . S
C4356 C4354 1.478 . S
C4356 C4358 1.381 . S
C4356 C4362 1.383 . S
C4357 C4353 1.495 . S
C4357 H4363 0.959 . S
C4357 H4364 0.961 . S
C4357 H4365 0.960 . S
C4358 C4356 1.381 . S
C4358 C4359 1.394 . S
C4358 H4366 0.930 . S
C4359 C4358 1.394 . S
C4359 C4360 1.383 . S
C4359 H4367 0.929 . S
C4360 C4359 1.383 . S
C4360 C4361 1.377 . S
C4361 H4345 0.930 . S
C4361 C4360 1.377 . S
C4361 C4362 1.379 . S
C4362 H4346 0.931 . S
C4362 C4356 1.383 . S
C4362 C4361 1.379 . S
H4363 C4357 0.959 . S
H4364 C4357 0.961 . S
H4365 C4357 0.960 . S
H4366 C4358 0.930 . S
H4367 C4359 0.929 . S
H4368 C4376 0.929 . S
H4369 C4378 0.930 . S
H4370 C4380 0.930 . S
H4371 C4383 0.929 . S
H4372 C4386 0.930 . S
H4373 C4388 0.960 . S
H4374 C4388 0.960 . S
H4375 C4388 0.960 . S
C4376 H4368 0.929 . S
C4376 C4377 1.377 . S
C4376 C4378 1.384 . S
C4377 C4376 1.377 . S
C4377 C4383 1.390 . S
C4378 H4369 0.930 . S
C4378 C4376 1.384 . S
C4378 C4379 1.372 . S
C4379 C4378 1.372 . S
C4379 C4380 1.400 . S
C4379 C4384 1.490 . S
C4380 H4370 0.930 . S
C4380 C4379 1.400 . S
C4380 C4383 1.386 . S
H4381 C4397 0.930 . S
H4382 C4398 0.931 . S
C4383 H4371 0.929 . S
C4383 C4377 1.390 . S
C4383 C4380 1.386 . S
C4384 C4379 1.490 . S
C4384 C4386 1.395 . S
C4384 C4387 1.403 . S
H4385 C4391 0.930 . S
C4386 H4372 0.930 . S
C4386 C4384 1.395 . S
C4386 C4389 1.403 . S
C4387 C4384 1.403 . S
C4387 C4388 1.524 . S
C4387 C4391 1.400 . S
C4388 H4373 0.960 . S
C4388 H4374 0.960 . S
C4388 H4375 0.960 . S
C4388 C4387 1.524 . S
C4389 C4386 1.403 . S
C4389 C4390 1.392 . S
C4389 C4393 1.495 . S
C4390 C4389 1.392 . S
C4390 C4391 1.385 . S
C4390 C4392 1.478 . S
C4391 H4385 0.930 . S
C4391 C4387 1.400 . S
C4391 C4390 1.385 . S
C4392 C4390 1.478 . S
C4392 C4394 1.381 . S
C4392 C4398 1.383 . S
C4393 C4389 1.495 . S
C4393 H4399 0.959 . S
C4393 H4400 0.961 . S
C4393 H4401 0.960 . S
C4394 C4392 1.381 . S
C4394 C4395 1.394 . S
C4394 H4402 0.930 . S
C4395 C4394 1.394 . S
C4395 C4396 1.383 . S
C4395 H4403 0.929 . S
C4396 C4395 1.383 . S
C4396 C4397 1.377 . S
C4397 H4381 0.930 . S
C4397 C4396 1.377 . S
C4397 C4398 1.379 . S
C4398 H4382 0.931 . S
C4398 C4392 1.383 . S
C4398 C4397 1.379 . S
H4399 C4393 0.959 . S
H4400 C4393 0.961 . S
H4401 C4393 0.960 . S
H4402 C4394 0.930 . S
H4403 C4395 0.929 . S
H4404 C4412 0.929 . S
H4405 C4414 0.930 . S
H4406 C4416 0.930 . S
H4407 C4419 0.929 . S
H4408 C4422 0.930 . S
H4409 C4424 0.960 . S
H4410 C4424 0.960 . S
H4411 C4424 0.960 . S
C4412 H4404 0.929 . S
C4412 C4413 1.377 . S
C4412 C4414 1.384 . S
C4413 C4412 1.377 . S
C4413 C4419 1.390 . S
C4414 H4405 0.930 . S
C4414 C4412 1.384 . S
C4414 C4415 1.372 . S
C4415 C4414 1.372 . S
C4415 C4416 1.400 . S
C4415 C4420 1.490 . S
C4416 H4406 0.930 . S
C4416 C4415 1.400 . S
C4416 C4419 1.386 . S
H4417 C4433 0.930 . S
H4418 C4434 0.931 . S
C4419 H4407 0.929 . S
C4419 C4413 1.390 . S
C4419 C4416 1.386 . S
C4420 C4415 1.490 . S
C4420 C4422 1.395 . S
C4420 C4423 1.403 . S
H4421 C4427 0.930 . S
C4422 H4408 0.930 . S
C4422 C4420 1.395 . S
C4422 C4425 1.403 . S
C4423 C4420 1.403 . S
C4423 C4424 1.524 . S
C4423 C4427 1.400 . S
C4424 H4409 0.960 . S
C4424 H4410 0.960 . S
C4424 H4411 0.960 . S
C4424 C4423 1.524 . S
C4425 C4422 1.403 . S
C4425 C4426 1.392 . S
C4425 C4429 1.495 . S
C4426 C4425 1.392 . S
C4426 C4427 1.385 . S
C4426 C4428 1.478 . S
C4427 H4421 0.930 . S
C4427 C4423 1.400 . S
C4427 C4426 1.385 . S
C4428 C4426 1.478 . S
C4428 C4430 1.381 . S
C4428 C4434 1.383 . S
C4429 C4425 1.495 . S
C4429 H4435 0.959 . S
C4429 H4436 0.961 . S
C4429 H4437 0.960 . S
C4430 C4428 1.381 . S
C4430 C4431 1.394 . S
C4430 H4438 0.930 . S
C4431 C4430 1.394 . S
C4431 C4432 1.383 . S
C4431 H4439 0.929 . S
C4432 C4431 1.383 . S
C4432 C4433 1.377 . S
C4433 H4417 0.930 . S
C4433 C4432 1.377 . S
C4433 C4434 1.379 . S
C4434 H4418 0.931 . S
C4434 C4428 1.383 . S
C4434 C4433 1.379 . S
H4435 C4429 0.959 . S
H4436 C4429 0.961 . S
H4437 C4429 0.960 . S
H4438 C4430 0.930 . S
H4439 C4431 0.929 . S
H4440 C4448 0.929 . S
H4441 C4450 0.930 . S
H4442 C4452 0.930 . S
H4443 C4455 0.929 . S
H4444 C4458 0.930 . S
H4445 C4460 0.960 . S
H4446 C4460 0.960 . S
H4447 C4460 0.960 . S
C4448 H4440 0.929 . S
C4448 C4449 1.377 . S
C4448 C4450 1.384 . S
C4449 C4448 1.377 . S
C4449 C4455 1.390 . S
C4450 H4441 0.930 . S
C4450 C4448 1.384 . S
C4450 C4451 1.372 . S
C4451 C4450 1.372 . S
C4451 C4452 1.400 . S
C4451 C4456 1.490 . S
C4452 H4442 0.930 . S
C4452 C4451 1.400 . S
C4452 C4455 1.386 . S
H4453 C4469 0.930 . S
H4454 C4470 0.931 . S
C4455 H4443 0.929 . S
C4455 C4449 1.390 . S
C4455 C4452 1.386 . S
C4456 C4451 1.490 . S
C4456 C4458 1.395 . S
C4456 C4459 1.403 . S
H4457 C4463 0.930 . S
C4458 H4444 0.930 . S
C4458 C4456 1.395 . S
C4458 C4461 1.403 . S
C4459 C4456 1.403 . S
C4459 C4460 1.524 . S
C4459 C4463 1.400 . S
C4460 H4445 0.960 . S
C4460 H4446 0.960 . S
C4460 H4447 0.960 . S
C4460 C4459 1.524 . S
C4461 C4458 1.403 . S
C4461 C4462 1.392 . S
C4461 C4465 1.495 . S
C4462 C4461 1.392 . S
C4462 C4463 1.385 . S
C4462 C4464 1.478 . S
C4463 H4457 0.930 . S
C4463 C4459 1.400 . S
C4463 C4462 1.385 . S
C4464 C4462 1.478 . S
C4464 C4466 1.381 . S
C4464 C4470 1.383 . S
C4465 C4461 1.495 . S
C4465 H4471 0.959 . S
C4465 H4472 0.961 . S
C4465 H4473 0.960 . S
C4466 C4464 1.381 . S
C4466 C4467 1.394 . S
C4466 H4474 0.930 . S
C4467 C4466 1.394 . S
C4467 C4468 1.383 . S
C4467 H4475 0.929 . S
C4468 C4467 1.383 . S
C4468 C4469 1.377 . S
C4469 H4453 0.930 . S
C4469 C4468 1.377 . S
C4469 C4470 1.379 . S
C4470 H4454 0.931 . S
C4470 C4464 1.383 . S
C4470 C4469 1.379 . S
H4471 C4465 0.959 . S
H4472 C4465 0.961 . S
H4473 C4465 0.960 . S
H4474 C4466 0.930 . S
H4475 C4467 0.929 . S
H4476 C4484 0.929 . S
H4477 C4486 0.930 . S
H4478 C4488 0.930 . S
H4479 C4491 0.929 . S
H4480 C4494 0.930 . S
H4481 C4496 0.960 . S
H4482 C4496 0.960 . S
H4483 C4496 0.960 . S
C4484 H4476 0.929 . S
C4484 C4485 1.377 . S
C4484 C4486 1.384 . S
C4485 C4484 1.377 . S
C4485 C4491 1.390 . S
C4486 H4477 0.930 . S
C4486 C4484 1.384 . S
C4486 C4487 1.372 . S
C4487 C4486 1.372 . S
C4487 C4488 1.400 . S
C4487 C4492 1.490 . S
C4488 H4478 0.930 . S
C4488 C4487 1.400 . S
C4488 C4491 1.386 . S
H4489 C4505 0.930 . S
H4490 C4506 0.931 . S
C4491 H4479 0.929 . S
C4491 C4485 1.390 . S
C4491 C4488 1.386 . S
C4492 C4487 1.490 . S
C4492 C4494 1.395 . S
C4492 C4495 1.403 . S
H4493 C4499 0.930 . S
C4494 H4480 0.930 . S
C4494 C4492 1.395 . S
C4494 C4497 1.403 . S
C4495 C4492 1.403 . S
C4495 C4496 1.524 . S
C4495 C4499 1.400 . S
C4496 H4481 0.960 . S
C4496 H4482 0.960 . S
C4496 H4483 0.960 . S
C4496 C4495 1.524 . S
C4497 C4494 1.403 . S
C4497 C4498 1.392 . S
C4497 C4501 1.495 . S
C4498 C4497 1.392 . S
C4498 C4499 1.385 . S
C4498 C4500 1.478 . S
C4499 H4493 0.930 . S
C4499 C4495 1.400 . S
C4499 C4498 1.385 . S
C4500 C4498 1.478 . S
C4500 C4502 1.381 . S
C4500 C4506 1.383 . S
C4501 C4497 1.495 . S
C4501 H4507 0.959 . S
C4501 H4508 0.961 . S
C4501 H4509 0.960 . S
C4502 C4500 1.381 . S
C4502 C4503 1.394 . S
C4502 H4510 0.930 . S
C4503 C4502 1.394 . S
C4503 C4504 1.383 . S
C4503 H4511 0.929 . S
C4504 C4503 1.383 . S
C4504 C4505 1.377 . S
C4505 H4489 0.930 . S
C4505 C4504 1.377 . S
C4505 C4506 1.379 . S
C4506 H4490 0.931 . S
C4506 C4500 1.383 . S
C4506 C4505 1.379 . S
H4507 C4501 0.959 . S
H4508 C4501 0.961 . S
H4509 C4501 0.960 . S
H4510 C4502 0.930 . S
H4511 C4503 0.929 . S
C1929 C1762 1.518 . S
C1948 C2 1.529 . S
C1965 C1642 1.565 . S
C1984 C61 1.604 . S
C2001 C1701 1.647 . S
C2020 C82 1.580 . S
C2037 C122 1.562 . S
C2056 C1741 1.601 . S
C2073 C181 1.563 . S
C2092 C1882 1.542 . S
C2109 C202 1.563 . S
C2128 C1821 1.603 . S
C2145 C1861 1.654 . S
C2164 C261 1.650 . S
C2181 C301 1.603 . S
C2200 C1602 1.582 . S
C2217 C341 1.646 . S
C2236 C1581 1.644 . S
C2253 C1461 1.656 . S
C2272 C362 1.600 . S
C2289 C402 1.518 . S
C2308 C1501 1.554 . S
C2325 C1522 1.526 . S
C2344 C442 1.507 . S
C2361 C1322 1.612 . S
C2380 C501 1.652 . S
C2397 C541 1.552 . S
C2416 C1362 1.524 . S
C2433 C1402 1.534 . S
C2452 C562 1.542 . S
C2469 C621 1.644 . S
C2488 C1301 1.639 . S
C2505 C1261 1.604 . S
C2524 C642 1.580 . S
C2541 C682 1.566 . S
C2560 C1021 1.602 . S
C2577 C741 1.646 . S
C2596 C1042 1.611 . S
C2613 C1082 1.561 . S
C2632 C781 1.604 . S
C2649 C802 1.516 . S
C2668 C962 1.509 . S
C2685 C861 1.605 . S
C2704 C1162 1.547 . S
C2721 C1221 1.655 . S
C2740 C901 1.653 . S
C2757 C922 1.524 . S
C2776 C1141 1.563 . S
C2793 C602 1.639 . S
C2812 C1621 1.589 . S
C2829 C1901 1.574 . S
C2848 C482 1.604 . S
C2865 C1802 1.548 . S
C2884 C522 1.554 . S
C2901 C1842 1.601 . S
C2920 C581 1.585 . S
C2937 C1661 1.611 . S
C2956 C381 1.613 . S
C2973 C1682 1.599 . S
C2992 C421 1.575 . S
C3009 C461 1.535 . S
C3028 C1722 1.560 . S
C3045 C322 1.597 . S
C3064 C1781 1.548 . S
C3081 C981 1.521 . S
C3100 C282 1.537 . S
C3117 C162 1.558 . S
C3136 C1002 1.560 . S
C3153 C1061 1.602 . S
C3172 C221 1.615 . S
C3189 C1101 1.616 . S
C3208 C242 1.646 . S
C3225 C42 1.557 . S
C3244 C1122 1.552 . S
C3261 C1181 1.602 . S
C3280 C101 1.612 . S
C3297 C141 1.618 . S
C3316 C1202 1.646 . S
C3333 C21 1.521 . S
C3352 C1242 1.538 . S
C3369 C821 1.566 . S
C3388 C1282 1.590 . S
C3405 C1442 1.597 . S
C3424 C941 1.547 . S
C3441 C1482 1.549 . S
C3460 C842 1.544 . S
C3477 C1541 1.568 . S
C3496 C882 1.591 . S
C3513 C661 1.603 . S
C3532 C1562 1.628 . S
C3549 C722 1.596 . S
C3568 C1381 1.549 . S
C3585 C762 1.560 . S
C3604 C1421 1.546 . S
C3621 C701 1.619 . S
C3640 C1341 1.595 . S
C3657 C375 1.562 . S
C3676 C15 1.559 . S
C3693 C55 1.545 . S
C3712 C415 1.540 . S
C3729 C95 1.559 . S
C3748 C455 1.554 . S
C3765 C335 1.577 . S
C3784 C135 1.573 . S
C3801 C175 1.561 . S
C3820 C615 1.558 . S
C3837 C495 1.576 . S
C3856 C215 1.576 . S
C3873 C255 1.561 . S
C3892 C535 1.561 . S
C3909 C295 1.545 . S
C3928 C575 1.546 . S
C3945 C735 1.576 . S
C3964 C655 1.575 . S
C3981 C695 1.576 . S
C4000 C895 1.578 . S
C4017 C935 1.545 . S
C4036 C775 1.545 . S
C4053 C855 1.544 . S
C4072 C815 1.544 . S
C4089 C1335 1.559 . S
C4108 C975 1.564 . S
C4125 C1375 1.544 . S
C4144 C1015 1.545 . S
C4161 C1415 1.559 . S
C4180 C1055 1.556 . S
C4197 C1295 1.577 . S
C4216 C1095 1.566 . S
C4233 C1575 1.559 . S
C4252 C1135 1.556 . S
C4269 C1455 1.577 . S
C4288 C1175 1.570 . S
C4305 C1495 1.564 . S
C4324 C1215 1.553 . S
C4341 C1535 1.543 . S
C4360 C1255 1.545 . S
C4377 C1695 1.575 . S
C4396 C1615 1.568 . S
C4413 C1855 1.577 . S
C4432 C1655 1.575 . S
C4449 C1735 1.546 . S
C4468 C1895 1.542 . S
C4485 C1815 1.543 . S
C4504 C1775 1.543 . S
