# Generated by pormake.
# Topology sxc, (6)-cn, num edge types: 1
# Building blocks:
#     Node 0, Type 0, BuildingBlock: UKALOJ_clean_sbu_0, # of connection points: 6
#     Node 1, Type 0, BuildingBlock: UKALOJ_clean_sbu_0, # of connection points: 6
#     Node 2, Type 0, BuildingBlock: UKALOJ_clean_sbu_0, # of connection points: 6
#     Edge 3, Type (0, 0), BuildingBlock: FUNLAD_clean_linker_1, # of connection points: 2
#     Edge 4, Type (0, 0), BuildingBlock: FUNLAD_clean_linker_1, # of connection points: 2
#     Edge 5, Type (0, 0), BuildingBlock: FUNLAD_clean_linker_1, # of connection points: 2
#     Edge 6, Type (0, 0), BuildingBlock: FUNLAD_clean_linker_1, # of connection points: 2
#     Edge 7, Type (0, 0), BuildingBlock: FUNLAD_clean_linker_1, # of connection points: 2
#     Edge 8, Type (0, 0), BuildingBlock: FUNLAD_clean_linker_1, # of connection points: 2
#     Edge 9, Type (0, 0), BuildingBlock: FUNLAD_clean_linker_1, # of connection points: 2
#     Edge 10, Type (0, 0), BuildingBlock: FUNLAD_clean_linker_1, # of connection points: 2
#     Edge 11, Type (0, 0), BuildingBlock: FUNLAD_clean_linker_1, # of connection points: 2
# Relax obj value: 0.118
# Max RMSD: 0.183
# Mean RMSD: 0.183
data_MOF--net-sxc--node1-UKALOJ_clean_sbu_0--edge1-FUNLAD_clean_linker_1
_symmetry_space_group_name_H-M    P1
_symmetry_Int_Tables_number       1
_symmetry_cell_setting            triclinic
loop_
_symmetry_equiv_pos_as_xyz
'x, y, z'
_cell_length_a     15.31942
_cell_length_b     15.168364
_cell_length_c     62.3822
_cell_angle_alpha  89.63742
_cell_angle_beta   90.363533
_cell_angle_gamma 119.65868
loop_
_atom_site_label
_atom_site_type_symbol
_atom_site_fract_x
_atom_site_fract_y
_atom_site_fract_z
_atom_type_partial_charge
Zn0 Zn 0.05954 0.12104 1.00328 0.0
O1 O 0.09808 0.00963 0.99617 0.0
C2 C 0.85846 0.96148 1.01518 0.0
Zn3 Zn 0.05234 0.08985 0.0385 0.0
C4 C 0.10591 0.95989 1.01178 0.0
O5 O 0.09274 0.9799 0.03085 0.0
C6 C 0.006 0.25097 0.03007 0.0
O7 O 0.20368 0.19903 0.04271 0.0
O8 O 0.21233 0.23033 1.00812 0.0
N9 N 0.03877 0.04667 0.07007 0.0
C10 C 0.08152 0.09784 0.08828 0.0
C11 C -0.0156 0.94343 0.09698 0.0
N12 N 0.97837 0.95077 0.07555 0.0
N13 N 0.04875 0.03481 0.10536 0.0
C14 C 0.04916 0.11727 0.95285 0.0
C15 C 0.11337 0.27534 0.94625 0.0
N16 N 0.07321 0.16607 0.97185 0.0
N17 N 0.1131 0.26412 0.96764 0.0
N18 N 0.07443 0.18475 0.93647 0.0
H19 H 0.9621 0.96576 0.96593 0.0
H20 H 0.0526 0.98102 0.94616 0.0
H21 H 0.93807 0.97858 0.93806 0.0
C22 C -0.0031 0.00414 0.95068 0.0
C23 C 0.15409 0.20951 0.08939 0.0
H24 H 0.23179 0.22214 0.08857 0.0
H25 H 0.14583 0.24139 0.10471 0.0
H26 H 0.14242 0.25031 0.07589 0.0
O27 O 0.01339 0.20084 0.04563 0.0
O28 O 0.01946 0.23121 1.01101 0.0
C29 C 0.25351 0.24934 0.02654 0.0
O30 O 0.90809 0.01228 0.99902 0.0
O31 O 0.8997 0.98022 0.03359 0.0
Zn32 Zn 0.09093 0.07833 0.33786 0.0
O33 O 0.94212 0.04224 0.33143 0.0
C34 C 0.13881 0.28291 0.34985 0.0
Zn35 Zn 0.07117 0.08692 0.37315 0.0
C36 C 0.8876 0.03751 0.34709 0.0
O37 O 0.92249 0.0512 0.36605 0.0
C38 C 0.27436 0.12756 0.36402 0.0
O39 O 0.02464 0.93313 0.37724 0.0
O40 O 0.04539 0.92384 0.34264 0.0
N41 N 0.0448 0.10062 0.40479 0.0
C42 C 0.07228 0.07504 0.42339 0.0
C43 C 0.9745 0.13247 0.4312 0.0
N44 N -0.01554 0.13663 0.40974 0.0
N45 N 0.02959 0.09518 0.44019 0.0
C46 C 0.07968 0.07993 0.28776 0.0
C47 C 0.18261 0.02999 0.27926 0.0
N48 N 0.11716 0.06481 0.30617 0.0
N49 N 0.18133 0.03407 0.30081 0.0
N50 N 0.11935 0.05843 0.27067 0.0
H51 H 0.92871 0.05206 0.28694 0.0
H52 H 0.01527 0.16015 0.27134 0.0
H53 H 0.01612 0.16808 0.3002 0.0
C54 C 0.00611 0.11782 0.28649 0.0
C55 C 0.13482 0.02428 0.4249 0.0
H56 H 0.10679 0.96641 0.43785 0.0
H57 H 0.21346 0.08212 0.42872 0.0
H58 H 0.13474 -0.01227 0.40962 0.0
O59 O 0.21928 0.12114 0.37972 0.0
O60 O 0.24011 0.11567 0.34501 0.0
C61 C 0.0229 0.88219 0.36105 0.0
O62 O 0.13532 0.2314 0.3336 0.0
O63 O 0.11833 0.24192 0.36834 0.0
Zn64 Zn 0.06937 0.0832 0.70525 0.0
O65 O 0.95691 0.12335 0.70208 0.0
C66 C 0.92057 0.8742 0.6958 0.0
Zn67 Zn 0.06608 0.05468 0.67007 0.0
C68 C 0.92121 0.12087 0.6835 0.0
O69 O 0.95531 0.09718 0.66739 0.0
C70 C 0.21406 0.01691 0.69192 0.0
O71 O 0.17777 0.20407 0.66362 0.0
O72 O 0.18124 0.23295 0.69816 0.0
N73 N 0.04794 0.02015 0.63811 0.0
C74 C 0.11108 0.05006 0.62124 0.0
C75 C 0.96273 0.95903 0.60903 0.0
N76 N 0.95597 0.96303 0.63045 0.0
N77 N 0.05931 0.01354 0.60277 0.0
C78 C 0.0282 0.08172 0.75452 0.0
C79 C 0.17282 0.19329 0.76562 0.0
N80 N 0.08796 0.11915 0.73718 0.0
N81 N 0.17756 0.18884 0.74415 0.0
N82 N 0.07988 0.12655 0.77259 0.0
H83 H 0.88492 0.0073 0.73841 0.0
H84 H 0.87785 0.01096 0.76728 0.0
H85 H 0.9129 0.92619 0.75489 0.0
C86 C 0.91944 0.00226 0.75371 0.0
C87 C 0.22246 0.11861 0.62272 0.0
H88 H 0.24093 0.19649 0.61791 0.0
H89 H 0.26148 0.09293 0.61159 0.0
H90 H 0.25026 0.12046 0.63923 0.0
O91 O 0.17739 0.01289 0.67337 0.0
O92 O 0.18098 0.04214 0.70796 0.0
C93 C 0.21474 0.26374 0.6794 0.0
O94 O 0.95859 0.93337 0.71162 0.0
O95 O 0.95325 0.90539 0.677 0.0
H96 H 0.03567 0.38355 0.0491 0.0
C97 C 0.00191 0.34368 0.03426 0.0
H98 H 0.94108 0.34663 1.00421 0.0
H99 H 0.05124 0.77268 0.05993 0.0
H100 H 0.94186 0.66337 0.08766 0.0
H101 H 0.8542 0.47729 0.08371 0.0
H102 H 0.87949 0.40018 0.0522 0.0
C103 C 0.97515 0.38795 0.01887 0.0
C104 C 0.01159 0.49882 0.01949 0.0
C105 C -0.00893 0.54298 0.03735 0.0
C106 C 0.03832 0.65025 0.03914 0.0
C107 C 0.01837 0.69199 0.05752 0.0
C108 C 0.95486 0.62989 0.07362 0.0
C109 C 0.90591 0.52522 0.07145 0.0
C110 C 0.92218 0.48194 0.0534 0.0
H111 H 0.07685 0.82723 0.99283 0.0
C112 C 0.11062 0.86745 1.00764 0.0
H113 H 0.17221 0.86553 0.03767 0.0
H114 H 0.06323 0.43928 0.98215 0.0
H115 H 0.17275 0.5486 0.95445 0.0
H116 H 0.26015 0.7347 0.95837 0.0
H117 H 0.23432 0.8118 0.98983 0.0
C118 C 0.13805 0.82383 0.02305 0.0
C119 C 0.10224 0.71309 0.02252 0.0
C120 C 0.1229 0.66894 1.00468 0.0
C121 C 0.07575 0.56168 1.0029 0.0
C122 C 0.09596 0.51996 0.98455 0.0
C123 C 0.1596 0.58208 0.96847 0.0
C124 C 0.20838 0.68675 0.97062 0.0
C125 C 0.19182 0.73002 0.98864 0.0
H126 H 0.3768 0.09588 0.38282 0.0
C127 C 0.36986 0.12994 0.36799 0.0
H128 H 0.43191 0.19249 0.33803 0.0
H129 H 0.75076 0.09138 0.39554 0.0
H130 H 0.74426 0.19776 0.42326 0.0
H131 H 0.64377 0.28287 0.41852 0.0
H132 H 0.54463 0.25667 0.38634 0.0
C133 C 0.43997 0.15808 0.35268 0.0
C134 C 0.51696 0.12534 0.35363 0.0
C135 C 0.58032 0.14716 0.37183 0.0
C136 C 0.64237 0.10232 0.37399 0.0
C137 C 0.70191 0.12274 0.39279 0.0
C138 C 0.69959 0.18462 0.40889 0.0
C139 C 0.64262 0.23205 0.40628 0.0
C140 C 0.58491 0.21516 0.38785 0.0
H141 H 0.78523 0.06887 0.32817 0.0
C142 C 0.79212 0.03506 0.34304 0.0
H143 H 0.73008 0.973 0.37303 0.0
H144 H 0.41144 0.07425 0.31546 0.0
H145 H 0.41778 0.96773 0.28774 0.0
H146 H 0.51819 0.88253 0.29248 0.0
H147 H 0.61739 0.90876 0.32466 0.0
C148 C 0.72203 0.00725 0.35835 0.0
C149 C 0.64517 0.04016 0.35737 0.0
C150 C 0.58181 0.01836 0.33917 0.0
C151 C 0.51978 0.06322 0.337 0.0
C152 C 0.46024 0.04282 0.31821 0.0
C153 C 0.46248 0.98088 0.30211 0.0
C154 C 0.5194 0.9334 0.30472 0.0
C155 C 0.57716 0.95031 0.32315 0.0
H156 H 0.79849 0.75555 0.71499 0.0
C157 C 0.82949 0.77587 0.69891 0.0
H158 H 0.80419 0.74251 0.66589 0.0
H159 H 0.43823 0.32694 0.71211 0.0
H160 H 0.56933 0.29606 0.72563 0.0
H161 H 0.74804 0.42264 0.72052 0.0
H162 H 0.79649 0.58021 0.70153 0.0
C163 C 0.77619 0.72004 0.68212 0.0
C164 C 0.66955 0.64186 0.68475 0.0
C165 C 0.64298 0.55031 0.69584 0.0
C166 C 0.54016 0.47773 0.69881 0.0
C167 C 0.51523 0.38577 0.70965 0.0
C168 C 0.58978 0.36687 0.71748 0.0
C169 C 0.69037 0.43814 0.71461 0.0
C170 C 0.71713 0.52853 0.70377 0.0
H171 H 0.33706 0.38245 0.66027 0.0
C172 C 0.30552 0.36233 0.67631 0.0
H173 H 0.3296 0.39645 0.70932 0.0
H174 H 0.69592 0.81214 0.66328 0.0
H175 H 0.56479 0.84283 0.64971 0.0
H176 H 0.38609 0.71599 0.65472 0.0
H177 H 0.33768 0.55836 0.67369 0.0
C178 C 0.35806 0.41869 0.69311 0.0
C179 C 0.46467 0.49705 0.69057 0.0
C180 C 0.49122 0.58856 0.67947 0.0
C181 C 0.59404 0.6612 0.67652 0.0
C182 C 0.61893 0.7532 0.6657 0.0
C183 C 0.54436 0.772 0.65784 0.0
C184 C 0.44377 0.70058 0.66066 0.0
C185 C 0.41704 0.61018 0.67149 0.0
H186 H 0.80485 0.12852 0.66428 0.0
C187 C 0.83169 0.13103 0.68058 0.0
H188 H 0.79622 0.1204 0.71346 0.0
H189 H 0.44867 0.19292 0.66307 0.0
H190 H 0.58374 0.36247 0.65519 0.0
H191 H 0.75902 0.4136 0.66464 0.0
H192 H 0.79981 0.29577 0.68245 0.0
C193 C 0.77354 0.12463 0.69712 0.0
C194 C 0.66804 0.09808 0.69305 0.0
C195 C 0.64569 0.16825 0.68282 0.0
C196 C 0.54485 0.13862 0.67734 0.0
C197 C 0.52413 0.21063 0.66737 0.0
C198 C 0.601 0.30841 0.66274 0.0
C199 C 0.69967 0.33718 0.66806 0.0
C200 C 0.72211 0.2686 0.67817 0.0
H201 H 0.33065 0.00962 0.71112 0.0
C202 C 0.30352 0.00668 0.69483 0.0
H203 H 0.33854 0.01664 0.66192 0.0
H204 H 0.68621 0.94435 0.7123 0.0
H205 H 0.55107 0.77498 0.72028 0.0
H206 H 0.37578 0.72392 0.71086 0.0
H207 H 0.33506 0.84165 0.69298 0.0
C208 C 0.3614 0.01267 0.67827 0.0
C209 C 0.4669 0.0392 0.6823 0.0
C210 C 0.48923 0.96906 0.69256 0.0
C211 C 0.59007 -0.00132 0.69803 0.0
C212 C 0.61075 0.92669 0.70802 0.0
C213 C 0.53384 0.829 0.7127 0.0
C214 C 0.43516 0.80027 0.7074 0.0
C215 C 0.41277 0.86879 0.69726 0.0
H216 H 0.74358 0.83923 0.99569 0.0
C217 C 0.76082 0.87014 1.01182 0.0
H218 H 0.71928 0.84814 0.0443 0.0
H219 H 0.36142 0.47465 0.98278 0.0
H220 H 0.35205 0.60666 0.96297 0.0
H221 H 0.45548 0.78621 0.97327 0.0
H222 H 0.57583 0.83478 1.00242 0.0
C223 C 0.7012 0.81705 0.02822 0.0
C224 C 0.62266 0.70893 0.02532 0.0
C225 C 0.54747 0.68101 1.0093 0.0
C226 C 0.48323 0.57698 1.00432 0.0
C227 C 0.41188 0.55197 0.98756 0.0
C228 C 0.40453 0.62718 0.97616 0.0
C229 C 0.46365 0.72829 0.98178 0.0
C230 C 0.53347 0.7552 0.99833 0.0
H231 H 0.36884 0.37159 0.04596 0.0
C232 C 0.35148 0.34031 0.02986 0.0
H233 H 0.39325 0.3612 0.99738 0.0
H234 H 0.75217 0.73495 0.05866 0.0
H235 H 0.76148 0.60293 0.07847 0.0
H236 H 0.65748 0.42331 0.06828 0.0
H237 H 0.53665 0.37472 0.03921 0.0
C238 C 0.41139 0.39268 1.01344 0.0
C239 C 0.4903 0.5007 1.01625 0.0
C240 C 0.56549 0.52859 0.03226 0.0
C241 C 0.62989 0.63263 0.03722 0.0
C242 C 0.70147 0.65763 0.05392 0.0
C243 C 0.7088 0.5824 0.06532 0.0
C244 C 0.64937 0.48126 0.05975 0.0
C245 C 0.57932 0.45434 0.04325 0.0
H246 H 0.13297 0.40033 0.33045 0.0
C247 C 0.14747 0.38256 0.34654 0.0
H248 H 0.16849 0.4238 0.37908 0.0
H249 H 0.13967 0.7804 0.31789 0.0
H250 H 0.2834 0.7976 0.29877 0.0
H251 H 0.36397 0.69741 0.30917 0.0
H252 H 0.29499 0.57315 0.33787 0.0
C253 C 0.15482 0.44231 0.36301 0.0
C254 C 0.12237 0.51922 0.36022 0.0
C255 C 0.1673 0.5961 0.34438 0.0
C256 C 0.12428 0.6578 0.33923 0.0
C257 C 0.16885 0.73148 0.32275 0.0
C258 C 0.25268 0.74329 0.31174 0.0
C259 C 0.29725 0.68608 0.31743 0.0
C260 C 0.25607 0.61408 0.33373 0.0
H261 H 0.02812 0.76463 0.38051 0.0
C262 C 0.014 0.78247 0.36439 0.0
H263 H -0.00651 0.74139 0.33185 0.0
H264 H 0.02235 0.38496 0.39311 0.0
H265 H 0.87862 0.36776 0.41224 0.0
H266 H 0.79791 0.4678 0.40181 0.0
H267 H 0.86677 0.59193 0.37309 0.0
C268 C 0.00694 0.7228 0.34794 0.0
C269 C 0.03947 0.64597 0.35075 0.0
C270 C -0.00545 0.5691 0.36659 0.0
C271 C 0.0376 0.50743 0.37175 0.0
C272 C -0.0069 0.43382 0.38824 0.0
C273 C 0.90927 0.42201 0.39926 0.0
C274 C 0.86464 0.47914 0.39355 0.0
C275 C 0.90575 0.55108 0.37724 0.0
H276 H 0.02367 0.05369 0.24404 0.0
C277 C 0.09402 0.05687 0.24835 0.0
H278 H 0.22416 0.05899 0.23695 0.0
H279 H 0.0535 0.84319 0.14904 0.0
H280 H 0.08873 0.72354 0.16762 0.0
H281 H 0.13809 0.74726 0.20576 0.0
H282 H 0.15361 0.8913 0.22547 0.0
C283 C 0.15431 0.05703 0.23275 0.0
C284 C 0.1235 0.04361 0.20974 0.0
C285 C 0.11301 0.95776 0.19853 0.0
C286 C 0.08208 0.94266 0.17668 0.0
C287 C 0.07471 0.85751 0.16576 0.0
C288 C 0.09502 0.78822 0.17622 0.0
C289 C 0.12298 0.80168 0.19767 0.0
C290 C 0.13189 0.88511 0.20878 0.0
H291 H 0.14693 0.12779 0.13139 0.0
C292 C 0.07895 0.05758 0.12747 0.0
H293 H 0.95804 0.92257 0.13961 0.0
H294 H 0.15171 0.22487 0.22522 0.0
H295 H 0.10826 0.34005 0.20724 0.0
H296 H 0.03673 0.30392 0.1707 0.0
H297 H 0.01087 0.15393 0.15175 0.0
C298 C 0.02522 -0.0063 0.14337 0.0
C299 C 0.05973 0.01231 0.16613 0.0
C300 C 0.06904 0.09761 0.1774 0.0
C301 C 0.10421 0.11507 0.19899 0.0
C302 C 0.12012 0.20487 0.20927 0.0
C303 C 0.09631 0.2722 0.19906 0.0
C304 C 0.0565 0.25212 0.17845 0.0
C305 C 0.04279 0.16599 0.16769 0.0
H306 H 0.95927 0.05059 0.4715 0.0
C307 C 0.0279 0.07213 0.46263 0.0
H308 H 0.18147 0.1149 0.46545 0.0
H309 H 0.13801 0.20912 0.56418 0.0
H310 H 0.23324 0.37942 0.54992 0.0
H311 H 0.27233 0.40871 0.51136 0.0
H312 H 0.21502 0.26712 0.48678 0.0
C313 C 0.10939 0.08448 0.47337 0.0
C314 C 0.10355 0.06598 0.49692 0.0
C315 C 0.14172 0.14907 0.51124 0.0
C316 C 0.12147 0.13189 0.53358 0.0
C317 C 0.15416 0.21691 0.54723 0.0
C318 C 0.20838 0.31545 0.53921 0.0
C319 C 0.23021 0.33196 0.5175 0.0
C320 C 0.19693 0.25007 0.50357 0.0
H321 H 0.17627 0.07184 0.5781 0.0
C322 C 0.09595 0.03395 0.58104 0.0
H323 H 0.95186 0.97173 0.56708 0.0
H324 H 0.03158 0.89035 0.47405 0.0
H325 H 0.94149 0.71878 0.48824 0.0
H326 H 0.90893 0.68819 0.52702 0.0
H327 H 0.96609 0.82883 0.55182 0.0
C328 C 0.03237 0.01092 0.56434 0.0
C329 C 0.06605 0.03107 0.5416 0.0
C330 C 0.03329 0.948 0.52735 0.0
C331 C 0.052 0.96548 0.505 0.0
C332 C 0.01812 0.88116 0.49113 0.0
C333 C 0.96679 0.78234 0.49908 0.0
C334 C 0.94847 0.76513 0.52091 0.0
C335 C -0.01868 0.84661 0.53496 0.0
H336 H -0.01995 0.0319 0.7983 0.0
C337 C 0.04876 0.10179 0.79461 0.0
H338 H 0.17591 0.22995 0.80712 0.0
H339 H 0.88232 0.07076 0.89314 0.0
H340 H 0.75981 0.09314 0.87247 0.0
H341 H 0.78706 0.13787 0.83406 0.0
H342 H 0.9353 0.1579 0.81599 0.0
C343 C 0.10591 0.16131 0.81072 0.0
C344 C 0.08519 0.13108 0.83371 0.0
C345 C -0.00028 0.12362 0.84413 0.0
C346 C -0.01327 0.10354 0.86656 0.0
C347 C 0.89812 0.09079 0.87638 0.0
C348 C 0.82686 0.10263 0.86467 0.0
C349 C 0.84202 0.12739 0.84303 0.0
C350 C 0.92734 0.13807 0.8328 0.0
H351 H 0.06593 0.23609 0.90438 0.0
C352 C 0.06275 0.17324 0.91353 0.0
H353 H 0.06433 0.03521 0.91093 0.0
H354 H 0.25046 0.12768 0.81825 0.0
H355 H 0.37381 0.10786 0.83907 0.0
H356 H 0.35715 0.08453 0.87828 0.0
H357 H 0.2167 0.07967 0.89687 0.0
C358 C 0.05858 0.09495 0.90266 0.0
C359 C 0.06208 0.09717 0.87874 0.0
C360 C 0.14524 0.10031 0.86815 0.0
C361 C 0.15622 0.11633 0.84561 0.0
C362 C 0.23946 0.11799 0.83541 0.0
C363 C 0.31071 0.1063 0.84715 0.0
C364 C 0.30123 0.09298 0.86921 0.0
C365 C 0.21986 0.09017 0.87968 0.0
loop_
_geom_bond_atom_site_label_1
_geom_bond_atom_site_label_2
_geom_bond_distance
_geom_bond_site_symmetry_2
_ccdc_geom_bond_type
Zn0 O1 2.055 1_545 S
Zn0 O8 2.046 . S
Zn0 N16 2.036 . S
Zn0 O28 2.053 1_455 S
Zn0 O30 2.066 1_445 S
O1 Zn0 2.055 1_565 S
O1 C4 1.259 1_556 S
C2 O30 1.279 . S
C2 O31 1.222 1_556 S
Zn3 O5 2.046 1_545 S
Zn3 O7 2.055 . S
Zn3 N9 2.036 . S
Zn3 O27 2.066 1_455 S
Zn3 O31 2.053 1_445 S
C4 O1 1.259 1_554 S
C4 O5 1.254 . S
O5 Zn3 2.046 1_565 S
O5 C4 1.254 . S
C6 O27 1.256 . S
C6 O28 1.244 1_554 S
O7 Zn3 2.055 . S
O7 C29 1.259 . S
O8 Zn0 2.046 . S
O8 C29 1.254 1_556 S
N9 Zn3 2.036 . S
N9 C10 1.298 . S
N9 N12 1.398 1_445 S
C10 N9 1.298 . S
C10 N13 1.363 1_455 S
C10 C23 1.481 . S
C11 N12 1.299 1_545 S
C11 N13 1.382 . S
N12 N9 1.398 1_665 S
N12 C11 1.299 1_565 S
N13 C10 1.363 1_655 S
N13 C11 1.382 . S
C14 N16 1.298 1_655 S
C14 N18 1.367 . S
C14 C22 1.481 1_545 S
C15 N17 1.299 1_655 S
C15 N18 1.379 . S
N16 Zn0 2.036 . S
N16 C14 1.298 1_455 S
N16 N17 1.398 . S
N17 C15 1.299 1_455 S
N17 N16 1.398 . S
N18 C14 1.367 . S
N18 C15 1.379 . S
H19 C22 0.980 1_455 S
H20 C22 0.981 1_455 S
H21 C22 0.981 . S
C22 C14 1.481 1_565 S
C22 H19 0.980 1_655 S
C22 H20 0.981 1_655 S
C22 H21 0.981 . S
C23 C10 1.481 . S
C23 H24 0.980 . S
C23 H25 0.981 . S
C23 H26 0.981 . S
H24 C23 0.980 . S
H25 C23 0.981 . S
H26 C23 0.981 . S
O27 Zn3 2.066 1_655 S
O27 C6 1.256 . S
O28 Zn0 2.053 1_655 S
O28 C6 1.244 1_556 S
C29 O7 1.259 . S
C29 O8 1.254 1_554 S
O30 Zn0 2.066 1_665 S
O30 C2 1.279 . S
O31 C2 1.222 1_554 S
O31 Zn3 2.053 1_665 S
Zn32 O33 2.055 . S
Zn32 O40 2.046 . S
Zn32 N48 2.036 . S
Zn32 O60 2.053 . S
Zn32 O62 2.066 . S
O33 Zn32 2.055 . S
O33 C36 1.259 1_455 S
C34 O62 1.256 . S
C34 O63 1.244 . S
Zn35 O37 2.046 . S
Zn35 O39 2.055 . S
Zn35 N41 2.036 . S
Zn35 O59 2.066 . S
Zn35 O63 2.053 . S
C36 O33 1.259 1_655 S
C36 O37 1.254 1_655 S
O37 Zn35 2.046 . S
O37 C36 1.254 1_455 S
C38 O59 1.256 . S
C38 O60 1.244 . S
O39 Zn35 2.055 . S
O39 C61 1.259 1_545 S
O40 Zn32 2.046 . S
O40 C61 1.254 1_545 S
N41 Zn35 2.036 . S
N41 C42 1.298 . S
N41 N44 1.398 . S
C42 N41 1.298 . S
C42 N45 1.367 . S
C42 C55 1.481 . S
C43 N44 1.299 . S
C43 N45 1.379 . S
N44 N41 1.398 . S
N44 C43 1.299 . S
N45 C42 1.367 . S
N45 C43 1.379 . S
C46 N48 1.298 . S
C46 N50 1.367 . S
C46 C54 1.481 . S
C47 N49 1.299 . S
C47 N50 1.379 . S
N48 Zn32 2.036 . S
N48 C46 1.298 . S
N48 N49 1.398 . S
N49 C47 1.299 . S
N49 N48 1.398 . S
N50 C46 1.367 . S
N50 C47 1.379 . S
H51 C54 0.980 . S
H52 C54 0.981 1_655 S
H53 C54 0.981 . S
C54 C46 1.481 . S
C54 H51 0.980 . S
C54 H52 0.981 1_455 S
C54 H53 0.981 . S
C55 C42 1.481 . S
C55 H56 0.980 . S
C55 H57 0.981 1_545 S
C55 H58 0.981 . S
H56 C55 0.980 . S
H57 C55 0.981 1_565 S
H58 C55 0.981 . S
O59 Zn35 2.066 . S
O59 C38 1.256 . S
O60 Zn32 2.053 . S
O60 C38 1.244 . S
C61 O39 1.259 1_565 S
C61 O40 1.254 1_565 S
O62 Zn32 2.066 . S
O62 C34 1.256 . S
O63 C34 1.244 . S
O63 Zn35 2.053 . S
Zn64 O65 2.055 1_455 S
Zn64 O72 2.046 . S
Zn64 N80 2.036 . S
Zn64 O92 2.053 1_545 S
Zn64 O94 2.066 1_445 S
O65 Zn64 2.055 1_655 S
O65 C68 1.259 . S
C66 O94 1.256 . S
C66 O95 1.244 . S
Zn67 O69 2.046 1_455 S
Zn67 O71 2.055 . S
Zn67 N73 2.036 . S
Zn67 O91 2.066 1_545 S
Zn67 O95 2.053 1_445 S
C68 O65 1.259 . S
C68 O69 1.254 . S
O69 Zn67 2.046 1_655 S
O69 C68 1.254 . S
C70 O91 1.256 . S
C70 O92 1.244 . S
O71 Zn67 2.055 . S
O71 C93 1.259 . S
O72 Zn64 2.046 . S
O72 C93 1.254 . S
N73 Zn67 2.036 . S
N73 C74 1.298 . S
N73 N76 1.398 1_445 S
C74 N73 1.298 . S
C74 N77 1.363 1_545 S
C74 C87 1.481 . S
C75 N76 1.299 1_455 S
C75 N77 1.382 . S
N76 N73 1.398 1_665 S
N76 C75 1.299 1_655 S
N77 C74 1.363 1_565 S
N77 C75 1.382 . S
C78 N80 1.298 1_565 S
C78 N82 1.367 . S
C78 C86 1.481 1_455 S
C79 N81 1.299 1_565 S
C79 N82 1.379 . S
N80 Zn64 2.036 . S
N80 C78 1.298 1_545 S
N80 N81 1.398 . S
N81 C79 1.299 1_545 S
N81 N80 1.398 . S
N82 C78 1.367 . S
N82 C79 1.379 . S
H83 C86 0.980 1_545 S
H84 C86 0.981 1_545 S
H85 C86 0.981 . S
C86 C78 1.481 1_655 S
C86 H83 0.980 1_565 S
C86 H84 0.981 1_565 S
C86 H85 0.981 . S
C87 C74 1.481 . S
C87 H88 0.980 . S
C87 H89 0.981 . S
C87 H90 0.981 . S
H88 C87 0.980 . S
H89 C87 0.981 . S
H90 C87 0.981 . S
O91 Zn67 2.066 1_565 S
O91 C70 1.256 . S
O92 Zn64 2.053 1_565 S
O92 C70 1.244 . S
C93 O71 1.259 . S
C93 O72 1.254 . S
O94 Zn64 2.066 1_665 S
O94 C66 1.256 . S
O95 C66 1.244 . S
O95 Zn67 2.053 1_665 S
H96 C97 0.951 1_455 S
C97 H96 0.951 1_655 S
C97 C103 1.265 . S
H98 C103 0.950 . S
H99 C107 0.949 . S
H100 C108 0.950 . S
H101 C109 0.951 . S
H102 C110 0.951 . S
C103 C97 1.265 . S
C103 H98 0.950 . S
C103 C104 1.478 . S
C104 C103 1.478 . S
C104 C105 1.397 . S
C104 C121 1.394 1_654 S
C105 C104 1.397 . S
C105 C106 1.438 1_655 S
C105 C110 1.429 . S
C106 C105 1.438 1_455 S
C106 C107 1.428 . S
C106 C119 1.394 . S
C107 H99 0.949 . S
C107 C106 1.428 . S
C107 C108 1.345 1_455 S
C108 H100 0.950 . S
C108 C107 1.345 1_655 S
C108 C109 1.424 . S
C109 H101 0.951 . S
C109 C108 1.424 . S
C109 C110 1.347 . S
C110 H102 0.951 . S
C110 C105 1.429 . S
C110 C109 1.347 . S
H111 C112 0.951 1_655 S
C112 H111 0.951 1_455 S
C112 C118 1.265 . S
H113 C118 0.950 1_556 S
H114 C122 0.949 . S
H115 C123 0.950 . S
H116 C124 0.951 . S
H117 C125 0.951 . S
C118 C112 1.265 . S
C118 H113 0.950 1_554 S
C118 C119 1.478 . S
C119 C106 1.394 . S
C119 C118 1.478 . S
C119 C120 1.397 1_554 S
C120 C119 1.397 1_556 S
C120 C121 1.438 . S
C120 C125 1.429 . S
C121 C104 1.394 1_456 S
C121 C120 1.438 . S
C121 C122 1.428 . S
C122 H114 0.949 . S
C122 C121 1.428 . S
C122 C123 1.345 . S
C123 H115 0.950 . S
C123 C122 1.345 . S
C123 C124 1.424 . S
C124 H116 0.951 . S
C124 C123 1.424 . S
C124 C125 1.347 . S
C125 H117 0.951 . S
C125 C120 1.429 . S
C125 C124 1.347 . S
H126 C127 0.951 . S
C127 H126 0.951 . S
C127 C133 1.265 . S
H128 C133 0.950 . S
H129 C137 0.949 . S
H130 C138 0.950 . S
H131 C139 0.951 . S
H132 C140 0.951 . S
C133 C127 1.265 . S
C133 H128 0.950 . S
C133 C134 1.478 . S
C134 C133 1.478 . S
C134 C135 1.397 . S
C134 C151 1.394 . S
C135 C134 1.397 . S
C135 C136 1.438 . S
C135 C140 1.429 . S
C136 C135 1.438 . S
C136 C137 1.428 . S
C136 C149 1.394 . S
C137 H129 0.949 . S
C137 C136 1.428 . S
C137 C138 1.345 . S
C138 H130 0.950 . S
C138 C137 1.345 . S
C138 C139 1.424 . S
C139 H131 0.951 . S
C139 C138 1.424 . S
C139 C140 1.347 . S
C140 H132 0.951 . S
C140 C135 1.429 . S
C140 C139 1.347 . S
H141 C142 0.951 . S
C142 H141 0.951 . S
C142 C148 1.265 . S
H143 C148 0.950 . S
H144 C152 0.949 . S
H145 C153 0.950 . S
H146 C154 0.951 1_565 S
H147 C155 0.951 . S
C148 C142 1.265 . S
C148 H143 0.950 . S
C148 C149 1.478 . S
C149 C136 1.394 . S
C149 C148 1.478 . S
C149 C150 1.397 . S
C150 C149 1.397 . S
C150 C151 1.438 . S
C150 C155 1.429 . S
C151 C134 1.394 . S
C151 C150 1.438 . S
C151 C152 1.428 . S
C152 H144 0.949 . S
C152 C151 1.428 . S
C152 C153 1.345 . S
C153 H145 0.950 . S
C153 C152 1.345 . S
C153 C154 1.424 . S
C154 H146 0.951 1_545 S
C154 C153 1.424 . S
C154 C155 1.347 . S
C155 H147 0.951 . S
C155 C150 1.429 . S
C155 C154 1.347 . S
H156 C157 0.951 . S
C157 H156 0.951 . S
C157 C163 1.265 . S
H158 C163 0.950 . S
H159 C167 0.949 . S
H160 C168 0.950 . S
H161 C169 0.951 . S
H162 C170 0.951 . S
C163 C157 1.265 . S
C163 H158 0.950 . S
C163 C164 1.478 . S
C164 C163 1.478 . S
C164 C165 1.397 . S
C164 C181 1.394 . S
C165 C164 1.397 . S
C165 C166 1.438 . S
C165 C170 1.429 . S
C166 C165 1.438 . S
C166 C167 1.428 . S
C166 C179 1.394 . S
C167 H159 0.949 . S
C167 C166 1.428 . S
C167 C168 1.345 . S
C168 H160 0.950 . S
C168 C167 1.345 . S
C168 C169 1.424 . S
C169 H161 0.951 . S
C169 C168 1.424 . S
C169 C170 1.347 . S
C170 H162 0.951 . S
C170 C165 1.429 . S
C170 C169 1.347 . S
H171 C172 0.951 . S
C172 H171 0.951 . S
C172 C178 1.265 . S
H173 C178 0.950 . S
H174 C182 0.949 . S
H175 C183 0.950 . S
H176 C184 0.951 . S
H177 C185 0.951 . S
C178 C172 1.265 . S
C178 H173 0.950 . S
C178 C179 1.478 . S
C179 C166 1.394 . S
C179 C178 1.478 . S
C179 C180 1.397 . S
C180 C179 1.397 . S
C180 C181 1.438 . S
C180 C185 1.429 . S
C181 C164 1.394 . S
C181 C180 1.438 . S
C181 C182 1.428 . S
C182 H174 0.949 . S
C182 C181 1.428 . S
C182 C183 1.345 . S
C183 H175 0.950 . S
C183 C182 1.345 . S
C183 C184 1.424 . S
C184 H176 0.951 . S
C184 C183 1.424 . S
C184 C185 1.347 . S
C185 H177 0.951 . S
C185 C180 1.429 . S
C185 C184 1.347 . S
H186 C187 0.951 1_565 S
C187 H186 0.951 1_545 S
C187 C193 1.265 . S
H188 C193 0.950 . S
H189 C197 0.949 . S
H190 C198 0.950 . S
H191 C199 0.951 . S
H192 C200 0.951 . S
C193 C187 1.265 . S
C193 H188 0.950 . S
C193 C194 1.478 . S
C194 C193 1.478 . S
C194 C195 1.397 . S
C194 C211 1.394 1_545 S
C195 C194 1.397 . S
C195 C196 1.438 . S
C195 C200 1.429 . S
C196 C195 1.438 . S
C196 C197 1.428 . S
C196 C209 1.394 1_545 S
C197 H189 0.949 . S
C197 C196 1.428 . S
C197 C198 1.345 . S
C198 H190 0.950 . S
C198 C197 1.345 . S
C198 C199 1.424 . S
C199 H191 0.951 . S
C199 C198 1.424 . S
C199 C200 1.347 . S
C200 H192 0.951 . S
C200 C195 1.429 . S
C200 C199 1.347 . S
H201 C202 0.951 1_545 S
C202 H201 0.951 1_565 S
C202 C208 1.265 . S
H203 C208 0.950 . S
H204 C212 0.949 . S
H205 C213 0.950 . S
H206 C214 0.951 . S
H207 C215 0.951 . S
C208 C202 1.265 . S
C208 H203 0.950 . S
C208 C209 1.478 . S
C209 C196 1.394 1_565 S
C209 C208 1.478 . S
C209 C210 1.397 . S
C210 C209 1.397 . S
C210 C211 1.438 . S
C210 C215 1.429 . S
C211 C194 1.394 1_565 S
C211 C210 1.438 . S
C211 C212 1.428 . S
C212 H204 0.949 . S
C212 C211 1.428 . S
C212 C213 1.345 . S
C213 H205 0.950 . S
C213 C212 1.345 . S
C213 C214 1.424 . S
C214 H206 0.951 . S
C214 C213 1.424 . S
C214 C215 1.347 . S
C215 H207 0.951 . S
C215 C210 1.429 . S
C215 C214 1.347 . S
H216 C217 0.949 1_554 S
C217 H216 0.949 1_556 S
C217 C223 1.264 . S
H218 C223 0.956 . S
H219 C227 0.949 . S
H220 C228 0.950 . S
H221 C229 0.951 . S
H222 C230 0.951 . S
C223 C217 1.264 . S
C223 H218 0.956 . S
C223 C224 1.476 1_556 S
C224 C223 1.476 1_554 S
C224 C225 1.385 1_554 S
C224 C241 1.406 . S
C225 C224 1.385 1_556 S
C225 C226 1.438 . S
C225 C230 1.429 . S
C226 C225 1.438 . S
C226 C227 1.428 . S
C226 C239 1.394 1_556 S
C227 H219 0.949 . S
C227 C226 1.428 . S
C227 C228 1.345 . S
C228 H220 0.950 . S
C228 C227 1.345 . S
C228 C229 1.424 . S
C229 H221 0.951 . S
C229 C228 1.424 . S
C229 C230 1.347 . S
C230 H222 0.951 . S
C230 C225 1.429 . S
C230 C229 1.347 . S
H231 C232 0.951 . S
C232 H231 0.951 . S
C232 C238 1.265 . S
H233 C238 0.950 . S
H234 C242 0.949 . S
H235 C243 0.950 . S
H236 C244 0.951 . S
H237 C245 0.951 . S
C238 C232 1.265 . S
C238 H233 0.950 . S
C238 C239 1.478 . S
C239 C226 1.394 1_554 S
C239 C238 1.478 . S
C239 C240 1.397 . S
C240 C239 1.397 . S
C240 C241 1.438 . S
C240 C245 1.429 . S
C241 C224 1.406 . S
C241 C240 1.438 . S
C241 C242 1.428 . S
C242 H234 0.949 . S
C242 C241 1.428 . S
C242 C243 1.345 . S
C243 H235 0.950 . S
C243 C242 1.345 . S
C243 C244 1.424 . S
C244 H236 0.951 . S
C244 C243 1.424 . S
C244 C245 1.347 . S
C245 H237 0.951 . S
C245 C240 1.429 . S
C245 C244 1.347 . S
H246 C247 0.951 . S
C247 H246 0.951 . S
C247 C253 1.265 . S
H248 C253 0.950 . S
H249 C257 0.949 . S
H250 C258 0.950 . S
H251 C259 0.951 . S
H252 C260 0.951 . S
C253 C247 1.265 . S
C253 H248 0.950 . S
C253 C254 1.478 . S
C254 C253 1.478 . S
C254 C255 1.397 . S
C254 C271 1.394 . S
C255 C254 1.397 . S
C255 C256 1.438 . S
C255 C260 1.429 . S
C256 C255 1.438 . S
C256 C257 1.428 . S
C256 C269 1.394 . S
C257 H249 0.949 . S
C257 C256 1.428 . S
C257 C258 1.345 . S
C258 H250 0.950 . S
C258 C257 1.345 . S
C258 C259 1.424 . S
C259 H251 0.951 . S
C259 C258 1.424 . S
C259 C260 1.347 . S
C260 H252 0.951 . S
C260 C255 1.429 . S
C260 C259 1.347 . S
H261 C262 0.951 . S
C262 H261 0.951 . S
C262 C268 1.265 . S
H263 C268 0.950 . S
H264 C272 0.949 . S
H265 C273 0.950 . S
H266 C274 0.951 . S
H267 C275 0.947 1_655 S
C268 C262 1.265 . S
C268 H263 0.950 . S
C268 C269 1.478 . S
C269 C256 1.394 . S
C269 C268 1.478 . S
C269 C270 1.397 . S
C270 C269 1.397 . S
C270 C271 1.438 . S
C270 C275 1.429 . S
C271 C254 1.394 . S
C271 C270 1.438 . S
C271 C272 1.428 . S
C272 H264 0.949 . S
C272 C271 1.428 . S
C272 C273 1.345 . S
C273 H265 0.950 . S
C273 C272 1.345 . S
C273 C274 1.424 1_455 S
C274 H266 0.951 . S
C274 C273 1.424 1_655 S
C274 C275 1.347 1_655 S
C275 H267 0.947 1_455 S
C275 C270 1.429 . S
C275 C274 1.347 1_455 S
H276 C277 0.951 . S
C277 H276 0.951 . S
C277 C283 1.265 . S
H278 C283 0.950 . S
H279 C287 0.949 . S
H280 C288 0.950 . S
H281 C289 0.951 . S
H282 C290 0.951 . S
C283 C277 1.265 . S
C283 H278 0.950 . S
C283 C284 1.478 . S
C284 C283 1.478 . S
C284 C285 1.397 . S
C284 C301 1.394 . S
C285 C284 1.397 . S
C285 C286 1.438 . S
C285 C290 1.429 . S
C286 C285 1.438 . S
C286 C287 1.428 . S
C286 C299 1.394 . S
C287 H279 0.949 . S
C287 C286 1.428 . S
C287 C288 1.345 . S
C288 H280 0.950 . S
C288 C287 1.345 . S
C288 C289 1.424 . S
C289 H281 0.951 . S
C289 C288 1.424 . S
C289 C290 1.347 . S
C290 H282 0.951 . S
C290 C285 1.429 . S
C290 C289 1.347 . S
H291 C292 0.951 . S
C292 H291 0.951 . S
C292 C298 1.265 1_455 S
H293 C298 0.950 . S
H294 C302 0.949 . S
H295 C303 0.950 . S
H296 C304 0.951 . S
H297 C305 0.951 . S
C298 C292 1.265 1_655 S
C298 H293 0.950 . S
C298 C299 1.478 1_655 S
C299 C286 1.394 . S
C299 C298 1.478 1_455 S
C299 C300 1.397 . S
C300 C299 1.397 . S
C300 C301 1.438 . S
C300 C305 1.429 1_455 S
C301 C284 1.394 . S
C301 C300 1.438 . S
C301 C302 1.428 . S
C302 H294 0.949 . S
C302 C301 1.428 . S
C302 C303 1.345 1_455 S
C303 H295 0.950 . S
C303 C302 1.345 1_655 S
C303 C304 1.424 . S
C304 H296 0.951 . S
C304 C303 1.424 . S
C304 C305 1.347 . S
C305 H297 0.951 . S
C305 C300 1.429 1_655 S
C305 C304 1.347 . S
H306 C307 0.951 . S
C307 H306 0.951 . S
C307 C313 1.265 . S
H308 C313 0.950 . S
H309 C317 0.949 . S
H310 C318 0.950 . S
H311 C319 0.951 . S
H312 C320 0.951 . S
C313 C307 1.265 . S
C313 H308 0.950 . S
C313 C314 1.478 . S
C314 C313 1.478 . S
C314 C315 1.397 . S
C314 C331 1.394 . S
C315 C314 1.397 . S
C315 C316 1.438 . S
C315 C320 1.429 . S
C316 C315 1.438 . S
C316 C317 1.428 . S
C316 C329 1.394 . S
C317 H309 0.949 . S
C317 C316 1.428 . S
C317 C318 1.345 . S
C318 H310 0.950 . S
C318 C317 1.345 . S
C318 C319 1.424 . S
C319 H311 0.951 . S
C319 C318 1.424 . S
C319 C320 1.347 . S
C320 H312 0.951 . S
C320 C315 1.429 . S
C320 C319 1.347 . S
H321 C322 0.951 . S
C322 H321 0.951 . S
C322 C328 1.265 . S
H323 C328 0.950 . S
H324 C332 0.949 . S
H325 C333 0.950 . S
H326 C334 0.951 . S
H327 C335 0.951 . S
C328 C322 1.265 . S
C328 H323 0.950 . S
C328 C329 1.478 . S
C329 C316 1.394 . S
C329 C328 1.478 . S
C329 C330 1.397 . S
C330 C329 1.397 . S
C330 C331 1.438 . S
C330 C335 1.429 1_445 S
C331 C314 1.394 . S
C331 C330 1.438 . S
C331 C332 1.428 1_545 S
C332 H324 0.949 . S
C332 C331 1.428 1_565 S
C332 C333 1.345 1_455 S
C333 H325 0.950 . S
C333 C332 1.345 1_655 S
C333 C334 1.424 . S
C334 H326 0.951 . S
C334 C333 1.424 . S
C334 C335 1.347 . S
C335 H327 0.951 . S
C335 C330 1.429 1_665 S
C335 C334 1.347 . S
H336 C337 0.951 . S
C337 H336 0.951 . S
C337 C343 1.265 1_565 S
H338 C343 0.950 1_655 S
H339 C347 0.949 . S
H340 C348 0.950 . S
H341 C349 0.951 . S
H342 C350 0.951 . S
C343 C337 1.265 1_545 S
C343 H338 0.950 1_455 S
C343 C344 1.478 1_545 S
C344 C343 1.478 1_565 S
C344 C345 1.395 1_455 S
C344 C361 1.396 1_565 S
C345 C344 1.395 1_655 S
C345 C346 1.438 . S
C345 C350 1.429 . S
C346 C345 1.438 . S
C346 C347 1.428 . S
C346 C359 1.394 . S
C347 H339 0.949 . S
C347 C346 1.428 . S
C347 C348 1.345 . S
C348 H340 0.950 . S
C348 C347 1.345 . S
C348 C349 1.424 . S
C349 H341 0.951 . S
C349 C348 1.424 . S
C349 C350 1.347 . S
C350 H342 0.951 . S
C350 C345 1.429 . S
C350 C349 1.347 . S
H351 C352 0.951 . S
C352 H351 0.951 . S
C352 C358 1.265 1_545 S
H353 C358 0.950 1_455 S
H354 C362 0.949 . S
H355 C363 0.950 . S
H356 C364 0.951 . S
H357 C365 0.951 . S
C358 C352 1.265 1_565 S
C358 H353 0.950 1_655 S
C358 C359 1.478 . S
C359 C346 1.394 . S
C359 C358 1.478 . S
C359 C360 1.397 1_665 S
C360 C359 1.397 1_445 S
C360 C361 1.438 . S
C360 C365 1.429 . S
C361 C344 1.396 1_545 S
C361 C360 1.438 . S
C361 C362 1.428 . S
C362 H354 0.949 . S
C362 C361 1.428 . S
C362 C363 1.345 . S
C363 H355 0.950 . S
C363 C362 1.345 . S
C363 C364 1.424 . S
C364 H356 0.951 . S
C364 C363 1.424 . S
C364 C365 1.347 . S
C365 H357 0.951 . S
C365 C360 1.429 . S
C365 C364 1.347 . S
C97 C6 1.163 . S
C112 C4 1.179 . S
C127 C38 1.163 . S
C142 C36 1.180 . S
C157 C66 1.163 . S
C172 C93 1.180 . S
C187 C68 1.179 . S
C202 C70 1.163 . S
C217 C2 1.163 . S
C232 C29 1.180 . S
C247 C34 1.164 . S
C262 C61 1.182 . S
C277 N50 1.558 . S
C292 N13 1.574 1_455 S
C307 N45 1.525 . S
C322 N77 1.611 1_545 S
C337 N82 1.581 . S
C352 N18 1.559 . S
