# Generated by pormake.
# Topology wjs, (5)-cn, num edge types: 1
# Building blocks:
#     Node 0, Type 0, BuildingBlock: BEQFEK_clean_sbu_0, # of connection points: 5
#     Node 1, Type 0, BuildingBlock: BEQFEK_clean_sbu_0, # of connection points: 5
#     Node 2, Type 0, BuildingBlock: BEQFEK_clean_sbu_0, # of connection points: 5
#     Node 3, Type 0, BuildingBlock: BEQFEK_clean_sbu_0, # of connection points: 5
#     Node 4, Type 0, BuildingBlock: BEQFEK_clean_sbu_0, # of connection points: 5
#     Node 5, Type 0, BuildingBlock: BEQFEK_clean_sbu_0, # of connection points: 5
#     Node 6, Type 0, BuildingBlock: BEQFEK_clean_sbu_0, # of connection points: 5
#     Node 7, Type 0, BuildingBlock: BEQFEK_clean_sbu_0, # of connection points: 5
#     Node 8, Type 0, BuildingBlock: BEQFEK_clean_sbu_0, # of connection points: 5
#     Node 9, Type 0, BuildingBlock: BEQFEK_clean_sbu_0, # of connection points: 5
#     Node 10, Type 0, BuildingBlock: BEQFEK_clean_sbu_0, # of connection points: 5
#     Node 11, Type 0, BuildingBlock: BEQFEK_clean_sbu_0, # of connection points: 5
#     Edge 12, Type (0, 0), BuildingBlock: EYOCIG_clean_linker_4, # of connection points: 2
#     Edge 13, Type (0, 0), BuildingBlock: EYOCIG_clean_linker_4, # of connection points: 2
#     Edge 14, Type (0, 0), BuildingBlock: EYOCIG_clean_linker_4, # of connection points: 2
#     Edge 15, Type (0, 0), BuildingBlock: EYOCIG_clean_linker_4, # of connection points: 2
#     Edge 16, Type (0, 0), BuildingBlock: EYOCIG_clean_linker_4, # of connection points: 2
#     Edge 17, Type (0, 0), BuildingBlock: EYOCIG_clean_linker_4, # of connection points: 2
#     Edge 18, Type (0, 0), BuildingBlock: EYOCIG_clean_linker_4, # of connection points: 2
#     Edge 19, Type (0, 0), BuildingBlock: EYOCIG_clean_linker_4, # of connection points: 2
#     Edge 20, Type (0, 0), BuildingBlock: EYOCIG_clean_linker_4, # of connection points: 2
#     Edge 21, Type (0, 0), BuildingBlock: EYOCIG_clean_linker_4, # of connection points: 2
#     Edge 22, Type (0, 0), BuildingBlock: EYOCIG_clean_linker_4, # of connection points: 2
#     Edge 23, Type (0, 0), BuildingBlock: EYOCIG_clean_linker_4, # of connection points: 2
#     Edge 24, Type (0, 0), BuildingBlock: EYOCIG_clean_linker_4, # of connection points: 2
#     Edge 25, Type (0, 0), BuildingBlock: EYOCIG_clean_linker_4, # of connection points: 2
#     Edge 26, Type (0, 0), BuildingBlock: EYOCIG_clean_linker_4, # of connection points: 2
#     Edge 27, Type (0, 0), BuildingBlock: EYOCIG_clean_linker_4, # of connection points: 2
#     Edge 28, Type (0, 0), BuildingBlock: EYOCIG_clean_linker_4, # of connection points: 2
#     Edge 29, Type (0, 0), BuildingBlock: EYOCIG_clean_linker_4, # of connection points: 2
#     Edge 30, Type (0, 0), BuildingBlock: EYOCIG_clean_linker_4, # of connection points: 2
#     Edge 31, Type (0, 0), BuildingBlock: EYOCIG_clean_linker_4, # of connection points: 2
#     Edge 32, Type (0, 0), BuildingBlock: EYOCIG_clean_linker_4, # of connection points: 2
#     Edge 33, Type (0, 0), BuildingBlock: EYOCIG_clean_linker_4, # of connection points: 2
#     Edge 34, Type (0, 0), BuildingBlock: EYOCIG_clean_linker_4, # of connection points: 2
#     Edge 35, Type (0, 0), BuildingBlock: EYOCIG_clean_linker_4, # of connection points: 2
#     Edge 36, Type (0, 0), BuildingBlock: EYOCIG_clean_linker_4, # of connection points: 2
#     Edge 37, Type (0, 0), BuildingBlock: EYOCIG_clean_linker_4, # of connection points: 2
#     Edge 38, Type (0, 0), BuildingBlock: EYOCIG_clean_linker_4, # of connection points: 2
#     Edge 39, Type (0, 0), BuildingBlock: EYOCIG_clean_linker_4, # of connection points: 2
#     Edge 40, Type (0, 0), BuildingBlock: EYOCIG_clean_linker_4, # of connection points: 2
#     Edge 41, Type (0, 0), BuildingBlock: EYOCIG_clean_linker_4, # of connection points: 2
# Relax obj value: 0.276
# Max RMSD: 0.226
# Mean RMSD: 0.226
data_MOF--net-wjs--node1-BEQFEK_clean_sbu_0--edge1-EYOCIG_clean_linker_4
_symmetry_space_group_name_H-M    P1
_symmetry_Int_Tables_number       1
_symmetry_cell_setting            triclinic
loop_
_symmetry_equiv_pos_as_xyz
'x, y, z'
_cell_length_a     24.663918
_cell_length_b     24.665982
_cell_length_c     61.380876
_cell_angle_alpha  89.981059
_cell_angle_beta   90.027372
_cell_angle_gamma 120.00223
loop_
_atom_site_label
_atom_site_type_symbol
_atom_site_fract_x
_atom_site_fract_y
_atom_site_fract_z
_atom_type_partial_charge
Co0 Co 0.22608 0.30963 0.01356 0.0
Co1 Co 0.18492 0.40251 -0.00522 0.0
C2 C 0.20257 0.31051 0.9667 0.0
O3 O 0.21528 0.28585 0.98267 0.0
O4 O 0.18977 0.35426 0.9692 0.0
C5 C 0.23287 0.20036 0.02771 0.0
O6 O 0.20677 0.17387 0.00913 0.0
C7 C 0.08676 0.4236 0.97651 0.0
C8 C 0.12331 0.52384 0.98333 0.0
C9 C 0.07199 0.47073 0.97514 0.0
N10 N 0.14415 0.44748 0.98541 0.0
N11 N 0.16608 0.50771 0.98915 0.0
C12 C 0.04554 0.35618 0.9707 0.0
H13 H 0.06348 0.32706 0.97803 0.0
H14 H 0.99684 0.33956 0.9762 0.0
H15 H 0.04465 0.35125 0.95271 0.0
C16 C 0.11532 0.27228 0.0411 0.0
N17 N 0.1545 0.30781 0.02514 0.0
N18 N 0.13852 0.34859 0.01845 0.0
C19 C 0.08937 0.34116 0.03055 0.0
C20 C 0.07295 0.29213 0.04497 0.0
C21 C 0.11941 0.22133 0.0529 0.0
H22 H 0.16452 0.24168 0.0618 0.0
H23 H 0.11779 0.18694 0.04091 0.0
H24 H 0.08051 0.19676 0.0647 0.0
O25 O 0.30068 0.3934 0.01488 0.0
O26 O 0.27435 0.46255 0.00316 0.0
H27 H 0.0974 0.43113 0.02553 0.0
H28 H 0.03878 0.3821 0.04527 0.0
C29 C 0.06111 0.38247 0.02953 0.0
H30 H 0.02438 0.36483 0.01678 0.0
H31 H 0.20923 0.53725 -0.00354 0.0
O32 O 0.24542 0.25574 0.03185 0.0
C33 C 0.31475 0.44922 0.01046 0.0
Co34 Co 0.91995 0.22463 0.18023 0.0
Co35 Co 0.78582 0.18336 0.16148 0.0
C36 C 0.8955 0.20119 0.13337 0.0
O37 O 0.93291 0.21393 0.14933 0.0
O38 O 0.83893 0.18832 0.13589 0.0
C39 C 0.03624 0.23179 0.19436 0.0
O40 O 0.03688 0.20599 0.17575 0.0
C41 C 0.66654 0.08517 0.14324 0.0
C42 C 0.60282 0.12164 0.15011 0.0
C43 C 0.60462 0.07036 0.1419 0.0
N44 N 0.70005 0.14254 0.15214 0.0
N45 N 0.66173 0.16442 0.15592 0.0
C46 C 0.69277 0.044 0.13739 0.0
H47 H 0.73987 0.06196 0.14471 0.0
H48 H 0.66073 0.99529 0.14289 0.0
H49 H 0.69677 0.04316 0.1194 0.0
C50 C 0.84669 0.11376 0.20775 0.0
N51 N 0.85026 0.15297 0.19181 0.0
N52 N 0.79347 0.13695 0.18514 0.0
C53 C 0.7518 0.08773 0.19723 0.0
C54 C 0.7845 0.07133 0.21163 0.0
C55 C 0.90179 0.11788 0.21951 0.0
H56 H 0.92646 0.16291 0.22846 0.0
H57 H 0.93463 0.11648 0.2075 0.0
H58 H 0.88755 0.07888 0.23127 0.0
O59 O 0.91066 0.29915 0.18158 0.0
O60 O 0.81513 0.27274 0.16988 0.0
H61 H 0.66978 0.09565 0.19225 0.0
H62 H 0.66031 0.03703 0.21198 0.0
C63 C 0.68222 0.0594 0.19624 0.0
H64 H 0.66314 0.0227 0.18349 0.0
H65 H 0.67533 0.20755 0.16323 0.0
O66 O 0.99321 0.24402 0.19852 0.0
C67 C 0.86886 0.31316 0.17718 0.0
Co68 Co 0.69898 0.91809 0.34686 0.0
Co69 Co 0.60606 0.78406 0.32809 0.0
C70 C 0.69806 0.8937 0.3 0.0
O71 O 0.72274 0.93108 0.31597 0.0
O72 O 0.6543 0.83716 0.30251 0.0
C73 C 0.80826 0.03417 0.36099 0.0
O74 O 0.83473 0.03462 0.34241 0.0
C75 C 0.58497 0.66484 0.30984 0.0
C76 C 0.48472 0.60112 0.31666 0.0
C77 C 0.53783 0.60293 0.30848 0.0
N78 N 0.56108 0.69833 0.31874 0.0
N79 N 0.50085 0.66002 0.32248 0.0
C80 C 0.65239 0.69106 0.30403 0.0
H81 H 0.68151 0.73812 0.31136 0.0
H82 H 0.66902 0.65898 0.30953 0.0
H83 H 0.6573 0.69513 0.28604 0.0
C84 C 0.73636 0.84467 0.37441 0.0
N85 N 0.70081 0.84833 0.35845 0.0
N86 N 0.66001 0.79158 0.35177 0.0
C87 C 0.66745 0.74985 0.36387 0.0
C88 C 0.71651 0.78246 0.37829 0.0
C89 C 0.78734 0.89971 0.38619 0.0
H90 H 0.76701 0.92447 0.3951 0.0
H91 H 0.8217 0.9325 0.3742 0.0
H92 H 0.81195 0.88539 0.39799 0.0
O93 O 0.61521 0.90893 0.34817 0.0
O94 O 0.54603 0.81345 0.33646 0.0
H95 H 0.57747 0.66791 0.35886 0.0
H96 H 0.62653 0.65832 0.37861 0.0
C97 C 0.62614 0.68028 0.36286 0.0
H98 H 0.64376 0.6612 0.35012 0.0
H99 H 0.47131 0.67361 0.32979 0.0
O100 O 0.7529 0.99131 0.36513 0.0
C101 C 0.55939 0.86719 0.34376 0.0
Co102 Co 0.784 0.69681 0.51357 0.0
Co103 Co 0.82532 0.60401 0.49484 0.0
C104 C 0.80747 0.69586 0.46671 0.0
O105 O 0.79472 0.72051 0.48266 0.0
O106 O 0.82036 0.65218 0.46924 0.0
C107 C 0.77677 0.80589 0.52767 0.0
O108 O 0.80255 0.83235 0.50905 0.0
C109 C 0.92353 0.58295 0.47661 0.0
C110 C 0.88704 0.48275 0.48349 0.0
C111 C 0.93832 0.53583 0.47528 0.0
N112 N 0.86616 0.55908 0.48551 0.0
N113 N 0.84427 0.49888 0.4893 0.0
C114 C 0.9647 0.65035 0.47076 0.0
H115 H 0.94675 0.67948 0.47807 0.0
H116 H 0.01342 0.66702 0.47625 0.0
H117 H 0.96553 0.65519 0.45277 0.0
C118 C 0.89486 0.73441 0.5411 0.0
N119 N 0.85567 0.69879 0.52515 0.0
N120 N 0.87171 0.65804 0.51849 0.0
C121 C 0.92093 0.6656 0.5306 0.0
C122 C 0.93731 0.71467 0.54499 0.0
C123 C 0.8907 0.78535 0.55285 0.0
H124 H 0.84567 0.76495 0.5618 0.0
H125 H 0.89209 0.81959 0.54084 0.0
H126 H 0.9297 0.81011 0.56462 0.0
O127 O 0.70949 0.61299 0.51491 0.0
O128 O 0.73593 0.54391 0.50323 0.0
H129 H 0.91303 0.57568 0.52564 0.0
H130 H 0.97168 0.62485 0.54536 0.0
C131 C 0.94928 0.62437 0.52961 0.0
H132 H 0.98598 0.64201 0.51686 0.0
H133 H 0.80114 0.46935 0.49661 0.0
O134 O 0.76458 0.75064 0.53183 0.0
C135 C 0.69549 0.55718 0.51052 0.0
Co136 Co 0.09016 0.78204 0.68029 0.0
Co137 Co 0.22429 0.82333 0.66158 0.0
C138 C 0.11467 0.80568 0.63344 0.0
O139 O 0.07725 0.7929 0.64939 0.0
O140 O 0.17123 0.81851 0.63598 0.0
C141 C 0.97392 0.77499 0.69437 0.0
O142 O 0.9734 0.80092 0.67577 0.0
C143 C 0.34354 0.9215 0.64332 0.0
C144 C 0.40728 0.88503 0.65022 0.0
C145 C 0.40545 0.93629 0.64198 0.0
N146 N 0.31006 0.86415 0.65225 0.0
N147 N 0.34838 0.84227 0.65604 0.0
C148 C 0.31729 0.96264 0.63746 0.0
H149 H 0.27025 0.94474 0.6448 0.0
H150 H 0.34938 0.01139 0.64291 0.0
H151 H 0.31318 0.96338 0.61947 0.0
C152 C 0.16344 0.8928 0.70785 0.0
N153 N 0.15986 0.85362 0.6919 0.0
N154 N 0.21665 0.86967 0.68524 0.0
C155 C 0.25833 0.91887 0.69734 0.0
C156 C 0.22564 0.93525 0.71174 0.0
C157 C 0.10835 0.88867 0.7196 0.0
H158 H 0.08362 0.84359 0.72852 0.0
H159 H 0.07555 0.89018 0.70759 0.0
H160 H 0.1226 0.9276 0.73139 0.0
O161 O 0.09937 0.70747 0.68161 0.0
O162 O 0.1949 0.73389 0.66993 0.0
H163 H 0.34038 0.91104 0.69237 0.0
H164 H 0.34987 0.96972 0.71207 0.0
C165 C 0.32791 0.94727 0.69633 0.0
H166 H 0.34691 0.98392 0.68356 0.0
H167 H 0.3348 0.79916 0.66337 0.0
O168 O 0.01688 0.76264 0.69854 0.0
C169 C 0.14115 0.69344 0.6772 0.0
Co170 Co 0.31139 0.08853 0.84694 0.0
Co171 Co 0.40417 0.22261 0.82817 0.0
C172 C 0.31216 0.11292 0.80008 0.0
O173 O 0.28756 0.07554 0.81605 0.0
O174 O 0.35589 0.16949 0.80259 0.0
C175 C 0.20223 0.97236 0.86109 0.0
O176 O 0.17572 0.97184 0.84249 0.0
C177 C 0.42518 0.34184 0.80991 0.0
C178 C 0.52541 0.40558 0.81676 0.0
C179 C 0.47229 0.40375 0.80856 0.0
N180 N 0.44909 0.30836 0.81882 0.0
N181 N 0.50931 0.34669 0.82258 0.0
C182 C 0.35776 0.31559 0.80408 0.0
H183 H 0.32865 0.26854 0.81142 0.0
H184 H 0.34111 0.34766 0.80956 0.0
H185 H 0.35284 0.31151 0.78609 0.0
C186 C 0.27395 0.16185 0.87448 0.0
N187 N 0.30951 0.15824 0.85853 0.0
N188 N 0.35025 0.21502 0.85185 0.0
C189 C 0.34274 0.25671 0.86394 0.0
C190 C 0.29371 0.22404 0.87835 0.0
C191 C 0.22301 0.10677 0.88626 0.0
H192 H 0.24339 0.08207 0.89518 0.0
H193 H 0.18867 0.07397 0.87426 0.0
H194 H 0.19837 0.12105 0.89805 0.0
O195 O 0.39519 0.09777 0.84825 0.0
O196 O 0.46427 0.19326 0.83653 0.0
H197 H 0.43264 0.33873 0.85893 0.0
H198 H 0.38355 0.34823 0.87866 0.0
C199 C 0.38396 0.32628 0.86292 0.0
H200 H 0.36626 0.3453 0.85017 0.0
H201 H 0.53887 0.33311 0.82989 0.0
O202 O 0.25757 0.01529 0.86523 0.0
C203 C 0.45099 0.13954 0.84383 0.0
Co204 Co 0.69866 0.78215 0.79395 0.0
Co205 Co 0.60585 0.82344 0.81269 0.0
C206 C 0.69782 0.80576 0.84081 0.0
O207 O 0.72244 0.79297 0.82485 0.0
O208 O 0.6541 0.81859 0.83828 0.0
C209 C 0.8078 0.77504 0.77985 0.0
O210 O 0.83427 0.80092 0.79845 0.0
C211 C 0.58483 0.92166 0.83092 0.0
C212 C 0.4846 0.88518 0.82406 0.0
C213 C 0.53772 0.93647 0.83226 0.0
N214 N 0.56092 0.86428 0.82202 0.0
N215 N 0.50071 0.8424 0.81825 0.0
C216 C 0.65225 0.96282 0.83676 0.0
H217 H 0.68136 0.94487 0.82943 0.0
H218 H 0.66891 0.01154 0.83127 0.0
H219 H 0.65714 0.96363 0.85475 0.0
C220 C 0.73616 0.89293 0.7664 0.0
N221 N 0.70056 0.85375 0.78235 0.0
N222 N 0.65981 0.86979 0.78901 0.0
C223 C 0.66733 0.91898 0.77691 0.0
C224 C 0.7164 0.93536 0.76251 0.0
C225 C 0.78712 0.8888 0.75465 0.0
H226 H 0.76674 0.84374 0.74571 0.0
H227 H 0.8214 0.89027 0.76666 0.0
H228 H 0.81182 0.92776 0.74287 0.0
O229 O 0.61485 0.7076 0.79264 0.0
O230 O 0.54575 0.73401 0.80432 0.0
H231 H 0.57742 0.9111 0.78189 0.0
H232 H 0.62656 0.96972 0.76216 0.0
C233 C 0.62611 0.94734 0.77791 0.0
H234 H 0.64378 0.98404 0.79066 0.0
H235 H 0.47115 0.79927 0.81093 0.0
O236 O 0.7525 0.76274 0.77569 0.0
C237 C 0.55904 0.69358 0.79704 0.0
Co238 Co 0.91989 0.69709 0.96068 0.0
Co239 Co 0.78577 0.60417 0.97938 0.0
C240 C 0.89539 0.69604 0.00753 0.0
O241 O 0.93281 0.72075 -0.00842 0.0
O242 O 0.83884 0.65231 0.00499 0.0
C243 C 0.03617 0.80628 0.9466 0.0
O244 O 0.03676 0.83268 0.96522 0.0
C245 C 0.66651 0.58306 -0.0024 0.0
C246 C 0.60279 0.48285 -0.00928 0.0
C247 C 0.6046 0.53594 -0.00106 0.0
N248 N 0.70001 0.55919 0.9887 0.0
N249 N 0.66169 0.49899 0.98492 0.0
C250 C 0.69275 0.65045 0.00345 0.0
H251 H 0.73983 0.67959 -0.00386 0.0
H252 H 0.66069 0.66712 -0.00204 0.0
H253 H 0.69676 0.65529 0.02144 0.0
C254 C 0.8466 0.73464 0.93313 0.0
N255 N 0.85019 0.69901 0.94908 0.0
N256 N 0.7934 0.65821 0.95572 0.0
C257 C 0.75172 0.66573 0.94362 0.0
C258 C 0.7844 0.71484 0.92923 0.0
C259 C 0.90169 0.78565 0.92139 0.0
H260 H 0.9264 0.76531 0.91245 0.0
H261 H 0.93451 0.81989 0.93341 0.0
H262 H 0.88744 0.81039 0.90962 0.0
O263 O 0.91066 0.61331 0.95932 0.0
O264 O 0.81514 0.54414 0.97098 0.0
H265 H 0.66974 0.57576 0.94856 0.0
H266 H 0.66023 0.62492 0.92884 0.0
C267 C 0.68214 0.62444 0.94459 0.0
H268 H 0.66304 0.64203 0.95734 0.0
H269 H 0.67528 0.46947 0.9776 0.0
O270 O 0.99316 0.75101 0.94243 0.0
C271 C 0.86888 0.55748 0.9637 0.0
Co272 Co 0.22605 0.91815 0.12737 0.0
Co273 Co 0.18491 0.7841 0.14614 0.0
C274 C 0.20255 0.89372 0.17423 0.0
O275 O 0.21527 0.93111 0.15826 0.0
O276 O 0.18976 0.83718 0.17172 0.0
C277 C 0.2329 0.03426 0.11325 0.0
O278 O 0.2069 0.03471 0.13183 0.0
C279 C 0.08674 0.66488 0.16439 0.0
C280 C 0.12324 0.60115 0.15756 0.0
C281 C 0.07195 0.60297 0.16575 0.0
N282 N 0.14413 0.69836 0.15549 0.0
N283 N 0.16602 0.66004 0.15174 0.0
C284 C 0.04556 0.69111 0.1702 0.0
H285 H 0.06351 0.73817 0.16287 0.0
H286 H 0.99685 0.65905 0.1647 0.0
H287 H 0.04472 0.69517 0.18819 0.0
C288 C 0.11524 0.84476 0.09983 0.0
N289 N 0.15446 0.84841 0.11578 0.0
N290 N 0.13849 0.79165 0.12246 0.0
C291 C 0.0893 0.74993 0.11036 0.0
C292 C 0.07286 0.78256 0.09595 0.0
C293 C 0.11931 0.89981 0.08805 0.0
H294 H 0.16439 0.92456 0.07913 0.0
H295 H 0.11775 0.9326 0.10005 0.0
H296 H 0.08036 0.88551 0.07626 0.0
O297 O 0.30065 0.90897 0.12605 0.0
O298 O 0.27433 0.81349 0.13776 0.0
H299 H 0.09733 0.66798 0.11537 0.0
H300 H 0.03868 0.65842 0.09562 0.0
C301 C 0.06103 0.68036 0.11137 0.0
H302 H 0.02432 0.66127 0.12411 0.0
H303 H 0.20916 0.67363 0.14444 0.0
O304 O 0.24537 0.99138 0.1091 0.0
C305 C 0.31473 0.86722 0.13047 0.0
Co306 Co 0.31147 0.22452 0.29401 0.0
Co307 Co 0.4044 0.18331 0.31273 0.0
C308 C 0.31254 0.20104 0.34086 0.0
O309 O 0.28783 0.21377 0.32491 0.0
O310 O 0.35626 0.18821 0.33833 0.0
C311 C 0.20232 0.23172 0.27991 0.0
O312 O 0.17593 0.20599 0.29854 0.0
C313 C 0.42553 0.08513 0.33096 0.0
C314 C 0.52573 0.12164 0.32407 0.0
C315 C 0.47265 0.07034 0.33228 0.0
N316 N 0.44938 0.14251 0.32205 0.0
N317 N 0.50959 0.16441 0.31827 0.0
C318 C 0.35813 0.04394 0.3368 0.0
H319 H 0.32898 0.0619 0.3295 0.0
H320 H 0.34146 0.99524 0.3313 0.0
H321 H 0.3533 0.04308 0.35479 0.0
C322 C 0.27386 0.11368 0.26649 0.0
N323 N 0.30953 0.1529 0.28243 0.0
N324 N 0.35033 0.13691 0.28908 0.0
C325 C 0.34279 0.08772 0.27698 0.0
C326 C 0.29365 0.07128 0.2626 0.0
C327 C 0.22282 0.11776 0.25475 0.0
H328 H 0.24315 0.16277 0.24578 0.0
H329 H 0.18864 0.11639 0.26678 0.0
H330 H 0.19802 0.07873 0.24301 0.0
O331 O 0.39527 0.29907 0.29265 0.0
O332 O 0.46445 0.27271 0.30433 0.0
H333 H 0.43277 0.0957 0.28193 0.0
H334 H 0.3836 0.03708 0.2622 0.0
C335 C 0.38408 0.05943 0.27796 0.0
H336 H 0.36649 0.02271 0.2907 0.0
H337 H 0.53911 0.20754 0.31096 0.0
O338 O 0.25757 0.24389 0.27574 0.0
C339 C 0.45111 0.31312 0.29704 0.0
Co340 Co 0.09046 0.30945 0.46067 0.0
Co341 Co 0.22452 0.4023 0.47945 0.0
C342 C 0.11487 0.31025 0.50753 0.0
O343 O 0.07748 0.28562 0.49156 0.0
O344 O 0.17142 0.354 0.50503 0.0
C345 C 0.97436 0.20021 0.44653 0.0
O346 O 0.97392 0.17372 0.46512 0.0
C347 C 0.34375 0.42331 0.49772 0.0
C348 C 0.40748 0.52355 0.4909 0.0
C349 C 0.40566 0.47043 0.49908 0.0
N350 N 0.31026 0.44723 0.48882 0.0
N351 N 0.34859 0.50746 0.48508 0.0
C352 C 0.31751 0.35588 0.50352 0.0
H353 H 0.27044 0.32679 0.49618 0.0
H354 H 0.34957 0.33925 0.49803 0.0
H355 H 0.31344 0.35094 0.52151 0.0
C356 C 0.16385 0.27208 0.43313 0.0
N357 N 0.16021 0.30762 0.44909 0.0
N358 N 0.21697 0.34839 0.45577 0.0
C359 C 0.25869 0.34095 0.44368 0.0
C360 C 0.22606 0.29191 0.42926 0.0
C361 C 0.10879 0.22113 0.42135 0.0
H362 H 0.08404 0.24147 0.41243 0.0
H363 H 0.07601 0.18676 0.43334 0.0
H364 H 0.1231 0.19653 0.40955 0.0
O365 O 0.09964 0.39322 0.45936 0.0
O366 O 0.19513 0.46235 0.47109 0.0
H367 H 0.34066 0.4309 0.4487 0.0
H368 H 0.35022 0.38187 0.42895 0.0
C369 C 0.32827 0.38224 0.4447 0.0
H370 H 0.34735 0.36458 0.45744 0.0
H371 H 0.335 0.53702 0.47777 0.0
O372 O 0.01722 0.25557 0.44239 0.0
C373 C 0.1414 0.44903 0.46379 0.0
Co374 Co 0.78387 0.08827 0.62725 0.0
Co375 Co 0.82517 0.22241 0.64597 0.0
C376 C 0.80748 0.11279 0.67411 0.0
O377 O 0.7947 0.07536 0.65815 0.0
O378 O 0.82032 0.16935 0.67157 0.0
C379 C 0.77669 0.97196 0.61316 0.0
O380 O 0.80248 0.97133 0.63179 0.0
C381 C 0.92335 0.34168 0.66422 0.0
C382 C 0.88687 0.40539 0.65731 0.0
C383 C 0.93814 0.40359 0.66555 0.0
N384 N 0.86599 0.30818 0.65529 0.0
N385 N 0.84411 0.34649 0.65149 0.0
C386 C 0.96451 0.31545 0.6701 0.0
H387 H 0.94661 0.2684 0.66277 0.0
H388 H 0.01325 0.34753 0.66464 0.0
H389 H 0.96525 0.31137 0.68809 0.0
C390 C 0.89468 0.16152 0.59973 0.0
N391 N 0.85548 0.15796 0.61566 0.0
N392 N 0.87152 0.21475 0.62231 0.0
C393 C 0.92075 0.25641 0.61022 0.0
C394 C 0.93714 0.22371 0.59584 0.0
C395 C 0.89056 0.10642 0.58799 0.0
H396 H 0.84552 0.08173 0.57903 0.0
H397 H 0.89198 0.0736 0.60001 0.0
H398 H 0.92955 0.12065 0.57623 0.0
O399 O 0.7093 0.09751 0.62592 0.0
O400 O 0.73573 0.19303 0.6376 0.0
H401 H 0.91291 0.33846 0.61518 0.0
H402 H 0.97158 0.34792 0.59549 0.0
C403 C 0.94914 0.32599 0.61123 0.0
H404 H 0.98581 0.34501 0.624 0.0
H405 H 0.80099 0.3329 0.64416 0.0
O406 O 0.76446 0.015 0.60899 0.0
C407 C 0.69528 0.13929 0.63032 0.0
C408 C 0.24108 0.13729 0.06094 0.0
C409 C 0.23641 0.16382 0.0452 0.0
C410 C 0.24109 0.10555 0.08003 0.0
C411 C 0.23643 0.07435 0.09576 0.0
C412 C 0.13926 0.24002 0.24669 0.0
C413 C 0.16577 0.23532 0.26243 0.0
C414 C 0.10754 0.24003 0.22759 0.0
C415 C 0.07635 0.23536 0.21185 0.0
C416 C 0.90308 0.13716 0.41331 0.0
C417 C 0.93427 0.16368 0.42904 0.0
C418 C 0.87135 0.10543 0.39421 0.0
C419 C 0.84482 0.07425 0.37847 0.0
C420 C 0.76844 0.8689 0.56088 0.0
C421 C 0.77315 0.8424 0.54515 0.0
C422 C 0.76842 0.90064 0.57996 0.0
C423 C 0.7731 0.93184 0.59569 0.0
C424 C 0.90258 0.76673 0.72756 0.0
C425 C 0.9338 0.77142 0.71184 0.0
C426 C 0.87083 0.76674 0.74665 0.0
C427 C 0.84431 0.77144 0.76237 0.0
C428 C 0.13923 0.9011 0.89431 0.0
C429 C 0.16573 0.93228 0.87858 0.0
C430 C 0.1075 0.86937 0.91341 0.0
C431 C 0.0763 0.84285 0.92914 0.0
C432 C 0.50041 0.53659 0.0086 0.0
C433 C 0.55041 0.54087 0.00461 0.0
C434 C 0.43691 0.52065 0.01074 0.0
C435 C 0.38043 0.49496 0.01015 0.0
C436 C 0.91949 0.43529 0.1775 0.0
C437 C 0.88871 0.37882 0.1769 0.0
C438 C 0.96705 0.49879 0.17538 0.0
C439 C 0.0128 0.54879 0.17141 0.0
C440 C 0.47201 0.96547 0.34192 0.0
C441 C 0.46773 0.0112 0.33794 0.0
C442 C 0.48796 0.91792 0.34404 0.0
C443 C 0.51364 0.88712 0.34345 0.0
C444 C 0.50985 0.4697 0.50871 0.0
C445 C 0.45984 0.46544 0.50474 0.0
C446 C 0.57336 0.48565 0.51083 0.0
C447 C 0.62984 0.51136 0.51023 0.0
C448 C 0.04295 0.50779 0.67526 0.0
C449 C 0.99724 0.45778 0.67125 0.0
C450 C 0.09048 0.57129 0.67743 0.0
C451 C 0.12125 0.62778 0.67687 0.0
C452 C 0.53841 0.04132 0.84193 0.0
C453 C 0.54268 0.9956 0.83794 0.0
C454 C 0.52247 0.08887 0.84407 0.0
C455 C 0.49677 0.11965 0.8435 0.0
C456 C 0.4716 0.50794 0.79891 0.0
C457 C 0.46733 0.45793 0.80289 0.0
C458 C 0.48755 0.57144 0.79677 0.0
C459 C 0.51325 0.62792 0.79735 0.0
C460 C 0.91955 0.48601 0.96338 0.0
C461 C 0.88876 0.5117 0.96398 0.0
C462 C 0.9671 0.47006 0.9655 0.0
C463 C 0.01284 0.46579 0.96948 0.0
C464 C 0.43688 0.91793 0.13016 0.0
C465 C 0.3804 0.88714 0.13076 0.0
C466 C 0.50039 0.96548 0.13228 0.0
C467 C 0.55042 0.01122 0.13625 0.0
C468 C 0.53852 0.49875 0.29884 0.0
C469 C 0.54278 0.54875 0.30282 0.0
C470 C 0.52258 0.43526 0.29672 0.0
C471 C 0.49689 0.37878 0.29732 0.0
C472 C 0.04317 0.53646 0.46564 0.0
C473 C 0.99745 0.54077 0.46962 0.0
C474 C 0.0907 0.52049 0.46351 0.0
C475 C 0.12148 0.49478 0.4641 0.0
C476 C 0.50963 0.04109 0.63226 0.0
C477 C 0.45963 0.99539 0.63627 0.0
C478 C 0.57313 0.08862 0.63009 0.0
C479 C 0.62961 0.1194 0.63065 0.0
C480 C 0.24807 0.26396 0.90944 0.0
C481 C 0.27057 0.24834 0.89504 0.0
C482 C 0.22548 0.28031 0.92798 0.0
C483 C 0.21401 0.29608 0.94515 0.0
C484 C 0.98745 0.24664 0.07609 0.0
C485 C 0.02555 0.26908 0.06167 0.0
C486 C 0.94855 0.22411 0.09464 0.0
C487 C 0.92134 0.21263 0.11181 0.0
C488 C 0.72827 0.94682 0.26127 0.0
C489 C 0.7125 0.91958 0.27844 0.0
C490 C 0.74462 0.98575 0.24273 0.0
C491 C 0.76023 0.02389 0.22832 0.0
C492 C 0.76203 0.74244 0.40941 0.0
C493 C 0.73958 0.75811 0.39499 0.0
C494 C 0.78457 0.72605 0.42796 0.0
C495 C 0.79604 0.71029 0.44514 0.0
C496 C 0.02281 0.76031 0.57613 0.0
C497 C 0.98471 0.73781 0.5617 0.0
C498 C 0.06168 0.78287 0.59469 0.0
C499 C 0.08886 0.79429 0.61187 0.0
C500 C 0.26554 0.02083 0.74283 0.0
C501 C 0.24991 0.98269 0.72842 0.0
C502 C 0.2819 0.05978 0.76136 0.0
C503 C 0.2977 0.08704 0.77853 0.0
C504 C 0.72809 0.78297 0.87955 0.0
C505 C 0.71229 0.79438 0.86237 0.0
C506 C 0.74447 0.76044 0.8981 0.0
C507 C 0.76012 0.73796 0.91252 0.0
C508 C 0.9484 0.72619 0.04628 0.0
C509 C 0.9212 0.71044 0.02909 0.0
C510 C 0.98731 0.74256 0.06483 0.0
C511 C 0.02544 0.75822 0.07925 0.0
C512 C 0.2254 0.9468 0.21296 0.0
C513 C 0.21396 0.91958 0.19579 0.0
C514 C 0.24796 0.98573 0.2315 0.0
C515 C 0.27048 0.02386 0.24591 0.0
C516 C 0.26605 0.2464 0.39815 0.0
C517 C 0.2504 0.26885 0.41257 0.0
C518 C 0.28241 0.22388 0.37961 0.0
C519 C 0.29815 0.21244 0.36243 0.0
C520 C 0.02277 0.26359 0.56477 0.0
C521 C 0.9846 0.24797 0.57917 0.0
C522 C 0.06174 0.27997 0.54625 0.0
C523 C 0.08899 0.29578 0.52908 0.0
C524 C 0.78462 0.05979 0.71285 0.0
C525 C 0.79607 0.08698 0.69567 0.0
C526 C 0.76205 0.0209 0.7314 0.0
C527 C 0.73954 0.98278 0.74582 0.0
loop_
_geom_bond_atom_site_label_1
_geom_bond_atom_site_label_2
_geom_bond_distance
_geom_bond_site_symmetry_2
_ccdc_geom_bond_type
Co0 O3 1.925 1_554 S
Co0 N17 1.989 . S
Co0 O25 1.967 . S
Co0 O32 1.920 . S
Co1 O4 1.966 1_554 S
Co1 N10 2.022 . S
Co1 N18 1.993 . S
Co1 O26 1.941 . S
C2 O3 1.293 . S
C2 O4 1.263 . S
O3 Co0 1.925 1_556 S
O3 C2 1.293 . S
O4 Co1 1.966 1_556 S
O4 C2 1.263 . S
C5 O6 1.235 . S
C5 O32 1.289 . S
O6 C5 1.235 . S
C7 C9 1.400 . S
C7 N10 1.351 1_556 S
C7 C12 1.501 . S
C8 C9 1.387 1_554 S
C8 N11 1.341 . S
C9 C7 1.400 . S
C9 C8 1.387 1_556 S
N10 Co1 2.022 . S
N10 C7 1.351 1_554 S
N10 N11 1.365 . S
N11 C8 1.341 . S
N11 N10 1.365 . S
N11 H31 0.862 . S
C12 C7 1.501 . S
C12 H13 0.961 . S
C12 H14 0.961 . S
C12 H15 0.960 . S
H13 C12 0.961 . S
H14 C12 0.961 . S
H15 C12 0.960 . S
C16 N17 1.342 . S
C16 C20 1.401 . S
C16 C21 1.499 . S
N17 Co0 1.989 . S
N17 C16 1.342 . S
N17 N18 1.388 . S
N18 Co1 1.993 . S
N18 N17 1.388 . S
N18 C19 1.346 . S
C19 N18 1.346 . S
C19 C20 1.396 . S
C19 C29 1.510 . S
C20 C16 1.401 . S
C20 C19 1.396 . S
C21 C16 1.499 . S
C21 H22 0.959 . S
C21 H23 0.960 . S
C21 H24 0.961 . S
H22 C21 0.959 . S
H23 C21 0.960 . S
H24 C21 0.961 . S
O25 Co0 1.967 . S
O25 C33 1.258 . S
O26 Co1 1.941 . S
O26 C33 1.266 . S
H27 C29 0.959 . S
H28 C29 0.961 . S
C29 C19 1.510 . S
C29 H27 0.959 . S
C29 H28 0.961 . S
C29 H30 0.960 . S
H30 C29 0.960 . S
H31 N11 0.862 . S
O32 Co0 1.920 . S
O32 C5 1.289 . S
C33 O25 1.258 . S
C33 O26 1.266 . S
Co34 O37 1.970 . S
Co34 N51 1.989 . S
Co34 O59 1.967 . S
Co34 O66 1.920 . S
Co35 O38 1.966 . S
Co35 N44 2.022 . S
Co35 N52 1.993 . S
Co35 O60 1.941 . S
C36 O37 1.258 . S
C36 O38 1.263 . S
O37 Co34 1.970 . S
O37 C36 1.258 . S
O38 Co35 1.966 . S
O38 C36 1.263 . S
C39 O40 1.235 1_455 S
C39 O66 1.289 1_455 S
O40 C39 1.235 1_655 S
C41 C43 1.400 . S
C41 N44 1.351 . S
C41 C46 1.501 . S
C42 C43 1.387 . S
C42 N45 1.341 . S
C43 C41 1.400 . S
C43 C42 1.387 . S
N44 Co35 2.022 . S
N44 C41 1.351 . S
N44 N45 1.365 . S
N45 C42 1.341 . S
N45 N44 1.365 . S
N45 H65 0.862 . S
C46 C41 1.501 . S
C46 H47 0.961 . S
C46 H48 0.961 . S
C46 H49 0.960 . S
H47 C46 0.961 . S
H48 C46 0.961 . S
H49 C46 0.960 . S
C50 N51 1.342 . S
C50 C54 1.401 . S
C50 C55 1.499 . S
N51 Co34 1.989 . S
N51 C50 1.342 . S
N51 N52 1.388 . S
N52 Co35 1.993 . S
N52 N51 1.388 . S
N52 C53 1.346 . S
C53 N52 1.346 . S
C53 C54 1.396 . S
C53 C63 1.510 . S
C54 C50 1.401 . S
C54 C53 1.396 . S
C55 C50 1.499 . S
C55 H56 0.959 . S
C55 H57 0.960 . S
C55 H58 0.961 . S
H56 C55 0.959 . S
H57 C55 0.960 . S
H58 C55 0.961 . S
O59 Co34 1.967 . S
O59 C67 1.258 . S
O60 Co35 1.941 . S
O60 C67 1.266 . S
H61 C63 0.959 . S
H62 C63 0.961 . S
C63 C53 1.510 . S
C63 H61 0.959 . S
C63 H62 0.961 . S
C63 H64 0.960 . S
H64 C63 0.960 . S
H65 N45 0.862 . S
O66 Co34 1.920 . S
O66 C39 1.289 1_655 S
C67 O59 1.258 . S
C67 O60 1.266 . S
Co68 O71 1.970 . S
Co68 N85 1.989 . S
Co68 O93 1.967 . S
Co68 O100 1.920 . S
Co69 O72 1.966 . S
Co69 N78 2.022 . S
Co69 N86 1.993 . S
Co69 O94 1.941 . S
C70 O71 1.258 . S
C70 O72 1.263 . S
O71 Co68 1.970 . S
O71 C70 1.258 . S
O72 Co69 1.966 . S
O72 C70 1.263 . S
C73 O74 1.235 1_545 S
C73 O100 1.289 1_545 S
O74 C73 1.235 1_565 S
C75 C77 1.400 . S
C75 N78 1.351 . S
C75 C80 1.501 . S
C76 C77 1.387 . S
C76 N79 1.341 . S
C77 C75 1.400 . S
C77 C76 1.387 . S
N78 Co69 2.022 . S
N78 C75 1.351 . S
N78 N79 1.365 . S
N79 C76 1.341 . S
N79 N78 1.365 . S
N79 H99 0.862 . S
C80 C75 1.501 . S
C80 H81 0.961 . S
C80 H82 0.961 . S
C80 H83 0.960 . S
H81 C80 0.961 . S
H82 C80 0.961 . S
H83 C80 0.960 . S
C84 N85 1.342 . S
C84 C88 1.401 . S
C84 C89 1.499 . S
N85 Co68 1.989 . S
N85 C84 1.342 . S
N85 N86 1.388 . S
N86 Co69 1.993 . S
N86 N85 1.388 . S
N86 C87 1.346 . S
C87 N86 1.346 . S
C87 C88 1.396 . S
C87 C97 1.510 . S
C88 C84 1.401 . S
C88 C87 1.396 . S
C89 C84 1.499 . S
C89 H90 0.959 . S
C89 H91 0.960 . S
C89 H92 0.961 . S
H90 C89 0.959 . S
H91 C89 0.960 . S
H92 C89 0.961 . S
O93 Co68 1.967 . S
O93 C101 1.258 . S
O94 Co69 1.941 . S
O94 C101 1.266 . S
H95 C97 0.959 . S
H96 C97 0.961 . S
C97 C87 1.510 . S
C97 H95 0.959 . S
C97 H96 0.961 . S
C97 H98 0.960 . S
H98 C97 0.960 . S
H99 N79 0.862 . S
O100 Co68 1.920 . S
O100 C73 1.289 1_565 S
C101 O93 1.258 . S
C101 O94 1.266 . S
Co102 O105 1.970 . S
Co102 N119 1.989 . S
Co102 O127 1.967 . S
Co102 O134 1.920 . S
Co103 O106 1.966 . S
Co103 N112 2.022 . S
Co103 N120 1.993 . S
Co103 O128 1.941 . S
C104 O105 1.258 . S
C104 O106 1.263 . S
O105 Co102 1.970 . S
O105 C104 1.258 . S
O106 Co103 1.966 . S
O106 C104 1.263 . S
C107 O108 1.235 . S
C107 O134 1.289 . S
O108 C107 1.235 . S
C109 C111 1.400 . S
C109 N112 1.351 . S
C109 C114 1.501 . S
C110 C111 1.387 . S
C110 N113 1.341 . S
C111 C109 1.400 . S
C111 C110 1.387 . S
N112 Co103 2.022 . S
N112 C109 1.351 . S
N112 N113 1.365 . S
N113 C110 1.341 . S
N113 N112 1.365 . S
N113 H133 0.862 . S
C114 C109 1.501 . S
C114 H115 0.961 . S
C114 H116 0.961 . S
C114 H117 0.960 . S
H115 C114 0.961 . S
H116 C114 0.961 . S
H117 C114 0.960 . S
C118 N119 1.342 . S
C118 C122 1.401 . S
C118 C123 1.499 . S
N119 Co102 1.989 . S
N119 C118 1.342 . S
N119 N120 1.388 . S
N120 Co103 1.993 . S
N120 N119 1.388 . S
N120 C121 1.346 . S
C121 N120 1.346 . S
C121 C122 1.396 . S
C121 C131 1.510 . S
C122 C118 1.401 . S
C122 C121 1.396 . S
C123 C118 1.499 . S
C123 H124 0.959 . S
C123 H125 0.960 . S
C123 H126 0.961 . S
H124 C123 0.959 . S
H125 C123 0.960 . S
H126 C123 0.961 . S
O127 Co102 1.967 . S
O127 C135 1.258 . S
O128 Co103 1.941 . S
O128 C135 1.266 . S
H129 C131 0.959 . S
H130 C131 0.961 . S
C131 C121 1.510 . S
C131 H129 0.959 . S
C131 H130 0.961 . S
C131 H132 0.960 . S
H132 C131 0.960 . S
H133 N113 0.862 . S
O134 Co102 1.920 . S
O134 C107 1.289 . S
C135 O127 1.258 . S
C135 O128 1.266 . S
Co136 O139 1.970 . S
Co136 N153 1.989 . S
Co136 O161 1.967 . S
Co136 O168 1.920 . S
Co137 O140 1.966 . S
Co137 N146 2.022 . S
Co137 N154 1.993 . S
Co137 O162 1.941 . S
C138 O139 1.258 . S
C138 O140 1.263 . S
O139 Co136 1.970 . S
O139 C138 1.258 . S
O140 Co137 1.966 . S
O140 C138 1.263 . S
C141 O142 1.235 1_655 S
C141 O168 1.289 1_655 S
O142 C141 1.235 1_455 S
C143 C145 1.400 . S
C143 N146 1.351 . S
C143 C148 1.501 . S
C144 C145 1.387 . S
C144 N147 1.341 . S
C145 C143 1.400 . S
C145 C144 1.387 . S
N146 Co137 2.022 . S
N146 C143 1.351 . S
N146 N147 1.365 . S
N147 C144 1.341 . S
N147 N146 1.365 . S
N147 H167 0.862 . S
C148 C143 1.501 . S
C148 H149 0.961 . S
C148 H150 0.961 . S
C148 H151 0.960 . S
H149 C148 0.961 . S
H150 C148 0.961 . S
H151 C148 0.960 . S
C152 N153 1.342 . S
C152 C156 1.401 . S
C152 C157 1.499 . S
N153 Co136 1.989 . S
N153 C152 1.342 . S
N153 N154 1.388 . S
N154 Co137 1.993 . S
N154 N153 1.388 . S
N154 C155 1.346 . S
C155 N154 1.346 . S
C155 C156 1.396 . S
C155 C165 1.510 . S
C156 C152 1.401 . S
C156 C155 1.396 . S
C157 C152 1.499 . S
C157 H158 0.959 . S
C157 H159 0.960 . S
C157 H160 0.961 . S
H158 C157 0.959 . S
H159 C157 0.960 . S
H160 C157 0.961 . S
O161 Co136 1.967 . S
O161 C169 1.258 . S
O162 Co137 1.941 . S
O162 C169 1.266 . S
H163 C165 0.959 . S
H164 C165 0.961 . S
C165 C155 1.510 . S
C165 H163 0.959 . S
C165 H164 0.961 . S
C165 H166 0.960 . S
H166 C165 0.960 . S
H167 N147 0.862 . S
O168 Co136 1.920 . S
O168 C141 1.289 1_455 S
C169 O161 1.258 . S
C169 O162 1.266 . S
Co170 O173 1.970 . S
Co170 N187 1.989 . S
Co170 O195 1.967 . S
Co170 O202 1.920 . S
Co171 O174 1.966 . S
Co171 N180 2.022 . S
Co171 N188 1.993 . S
Co171 O196 1.941 . S
C172 O173 1.258 . S
C172 O174 1.263 . S
O173 Co170 1.970 . S
O173 C172 1.258 . S
O174 Co171 1.966 . S
O174 C172 1.263 . S
C175 O176 1.235 1_565 S
C175 O202 1.289 1_565 S
O176 C175 1.235 1_545 S
C177 C179 1.400 . S
C177 N180 1.351 . S
C177 C182 1.501 . S
C178 C179 1.387 . S
C178 N181 1.341 . S
C179 C177 1.400 . S
C179 C178 1.387 . S
N180 Co171 2.022 . S
N180 C177 1.351 . S
N180 N181 1.365 . S
N181 C178 1.341 . S
N181 N180 1.365 . S
N181 H201 0.862 . S
C182 C177 1.501 . S
C182 H183 0.961 . S
C182 H184 0.961 . S
C182 H185 0.960 . S
H183 C182 0.961 . S
H184 C182 0.961 . S
H185 C182 0.960 . S
C186 N187 1.342 . S
C186 C190 1.401 . S
C186 C191 1.499 . S
N187 Co170 1.989 . S
N187 C186 1.342 . S
N187 N188 1.388 . S
N188 Co171 1.993 . S
N188 N187 1.388 . S
N188 C189 1.346 . S
C189 N188 1.346 . S
C189 C190 1.396 . S
C189 C199 1.510 . S
C190 C186 1.401 . S
C190 C189 1.396 . S
C191 C186 1.499 . S
C191 H192 0.959 . S
C191 H193 0.960 . S
C191 H194 0.961 . S
H192 C191 0.959 . S
H193 C191 0.960 . S
H194 C191 0.961 . S
O195 Co170 1.967 . S
O195 C203 1.258 . S
O196 Co171 1.941 . S
O196 C203 1.266 . S
H197 C199 0.959 . S
H198 C199 0.961 . S
C199 C189 1.510 . S
C199 H197 0.959 . S
C199 H198 0.961 . S
C199 H200 0.960 . S
H200 C199 0.960 . S
H201 N181 0.862 . S
O202 Co170 1.920 . S
O202 C175 1.289 1_545 S
C203 O195 1.258 . S
C203 O196 1.266 . S
Co204 O207 1.970 . S
Co204 N221 1.989 . S
Co204 O229 1.967 . S
Co204 O236 1.920 . S
Co205 O208 1.966 . S
Co205 N214 2.022 . S
Co205 N222 1.993 . S
Co205 O230 1.941 . S
C206 O207 1.258 . S
C206 O208 1.263 . S
O207 Co204 1.970 . S
O207 C206 1.258 . S
O208 Co205 1.966 . S
O208 C206 1.263 . S
C209 O210 1.235 . S
C209 O236 1.289 . S
O210 C209 1.235 . S
C211 C213 1.400 . S
C211 N214 1.351 . S
C211 C216 1.501 . S
C212 C213 1.387 . S
C212 N215 1.341 . S
C213 C211 1.400 . S
C213 C212 1.387 . S
N214 Co205 2.022 . S
N214 C211 1.351 . S
N214 N215 1.365 . S
N215 C212 1.341 . S
N215 N214 1.365 . S
N215 H235 0.862 . S
C216 C211 1.501 . S
C216 H217 0.961 . S
C216 H218 0.961 . S
C216 H219 0.960 . S
H217 C216 0.961 . S
H218 C216 0.961 . S
H219 C216 0.960 . S
C220 N221 1.342 . S
C220 C224 1.401 . S
C220 C225 1.499 . S
N221 Co204 1.989 . S
N221 C220 1.342 . S
N221 N222 1.388 . S
N222 Co205 1.993 . S
N222 N221 1.388 . S
N222 C223 1.346 . S
C223 N222 1.346 . S
C223 C224 1.396 . S
C223 C233 1.510 . S
C224 C220 1.401 . S
C224 C223 1.396 . S
C225 C220 1.499 . S
C225 H226 0.959 . S
C225 H227 0.960 . S
C225 H228 0.961 . S
H226 C225 0.959 . S
H227 C225 0.960 . S
H228 C225 0.961 . S
O229 Co204 1.967 . S
O229 C237 1.258 . S
O230 Co205 1.941 . S
O230 C237 1.266 . S
H231 C233 0.959 . S
H232 C233 0.961 . S
C233 C223 1.510 . S
C233 H231 0.959 . S
C233 H232 0.961 . S
C233 H234 0.960 . S
H234 C233 0.960 . S
H235 N215 0.862 . S
O236 Co204 1.920 . S
O236 C209 1.289 . S
C237 O229 1.258 . S
C237 O230 1.266 . S
Co238 O241 1.970 . S
Co238 N255 1.989 . S
Co238 O263 1.967 . S
Co238 O270 1.920 . S
Co239 O242 1.966 1_556 S
Co239 N248 2.022 . S
Co239 N256 1.993 . S
Co239 O264 1.941 . S
C240 O241 1.258 1_554 S
C240 O242 1.263 . S
O241 Co238 1.970 . S
O241 C240 1.258 1_556 S
O242 Co239 1.966 1_554 S
O242 C240 1.263 . S
C243 O244 1.235 1_455 S
C243 O270 1.289 1_455 S
O244 C243 1.235 1_655 S
C245 C247 1.400 . S
C245 N248 1.351 1_554 S
C245 C250 1.501 . S
C246 C247 1.387 1_556 S
C246 N249 1.341 . S
C247 C245 1.400 . S
C247 C246 1.387 1_554 S
N248 Co239 2.022 . S
N248 C245 1.351 1_556 S
N248 N249 1.365 . S
N249 C246 1.341 . S
N249 N248 1.365 . S
N249 H269 0.862 . S
C250 C245 1.501 . S
C250 H251 0.961 . S
C250 H252 0.961 . S
C250 H253 0.960 . S
H251 C250 0.961 . S
H252 C250 0.961 . S
H253 C250 0.960 . S
C254 N255 1.342 . S
C254 C258 1.401 . S
C254 C259 1.499 . S
N255 Co238 1.989 . S
N255 C254 1.342 . S
N255 N256 1.388 . S
N256 Co239 1.993 . S
N256 N255 1.388 . S
N256 C257 1.346 . S
C257 N256 1.346 . S
C257 C258 1.396 . S
C257 C267 1.510 . S
C258 C254 1.401 . S
C258 C257 1.396 . S
C259 C254 1.499 . S
C259 H260 0.959 . S
C259 H261 0.960 . S
C259 H262 0.961 . S
H260 C259 0.959 . S
H261 C259 0.960 . S
H262 C259 0.961 . S
O263 Co238 1.967 . S
O263 C271 1.258 . S
O264 Co239 1.941 . S
O264 C271 1.266 . S
H265 C267 0.959 . S
H266 C267 0.961 . S
C267 C257 1.510 . S
C267 H265 0.959 . S
C267 H266 0.961 . S
C267 H268 0.960 . S
H268 C267 0.960 . S
H269 N249 0.862 . S
O270 Co238 1.920 . S
O270 C243 1.289 1_655 S
C271 O263 1.258 . S
C271 O264 1.266 . S
Co272 O275 1.970 . S
Co272 N289 1.989 . S
Co272 O297 1.967 . S
Co272 O304 1.920 . S
Co273 O276 1.966 . S
Co273 N282 2.022 . S
Co273 N290 1.993 . S
Co273 O298 1.941 . S
C274 O275 1.258 . S
C274 O276 1.263 . S
O275 Co272 1.970 . S
O275 C274 1.258 . S
O276 Co273 1.966 . S
O276 C274 1.263 . S
C277 O278 1.235 1_545 S
C277 O304 1.289 1_545 S
O278 C277 1.235 1_565 S
C279 C281 1.400 . S
C279 N282 1.351 . S
C279 C284 1.501 . S
C280 C281 1.387 . S
C280 N283 1.341 . S
C281 C279 1.400 . S
C281 C280 1.387 . S
N282 Co273 2.022 . S
N282 C279 1.351 . S
N282 N283 1.365 . S
N283 C280 1.341 . S
N283 N282 1.365 . S
N283 H303 0.862 . S
C284 C279 1.501 . S
C284 H285 0.961 . S
C284 H286 0.961 . S
C284 H287 0.960 . S
H285 C284 0.961 . S
H286 C284 0.961 . S
H287 C284 0.960 . S
C288 N289 1.342 . S
C288 C292 1.401 . S
C288 C293 1.499 . S
N289 Co272 1.989 . S
N289 C288 1.342 . S
N289 N290 1.388 . S
N290 Co273 1.993 . S
N290 N289 1.388 . S
N290 C291 1.346 . S
C291 N290 1.346 . S
C291 C292 1.396 . S
C291 C301 1.510 . S
C292 C288 1.401 . S
C292 C291 1.396 . S
C293 C288 1.499 . S
C293 H294 0.959 . S
C293 H295 0.960 . S
C293 H296 0.961 . S
H294 C293 0.959 . S
H295 C293 0.960 . S
H296 C293 0.961 . S
O297 Co272 1.967 . S
O297 C305 1.258 . S
O298 Co273 1.941 . S
O298 C305 1.266 . S
H299 C301 0.959 . S
H300 C301 0.961 . S
C301 C291 1.510 . S
C301 H299 0.959 . S
C301 H300 0.961 . S
C301 H302 0.960 . S
H302 C301 0.960 . S
H303 N283 0.862 . S
O304 Co272 1.920 . S
O304 C277 1.289 1_565 S
C305 O297 1.258 . S
C305 O298 1.266 . S
Co306 O309 1.970 . S
Co306 N323 1.989 . S
Co306 O331 1.967 . S
Co306 O338 1.920 . S
Co307 O310 1.966 . S
Co307 N316 2.022 . S
Co307 N324 1.993 . S
Co307 O332 1.941 . S
C308 O309 1.258 . S
C308 O310 1.263 . S
O309 Co306 1.970 . S
O309 C308 1.258 . S
O310 Co307 1.966 . S
O310 C308 1.263 . S
C311 O312 1.235 . S
C311 O338 1.289 . S
O312 C311 1.235 . S
C313 C315 1.400 . S
C313 N316 1.351 . S
C313 C318 1.501 . S
C314 C315 1.387 . S
C314 N317 1.341 . S
C315 C313 1.400 . S
C315 C314 1.387 . S
N316 Co307 2.022 . S
N316 C313 1.351 . S
N316 N317 1.365 . S
N317 C314 1.341 . S
N317 N316 1.365 . S
N317 H337 0.862 . S
C318 C313 1.501 . S
C318 H319 0.961 . S
C318 H320 0.961 . S
C318 H321 0.960 . S
H319 C318 0.961 . S
H320 C318 0.961 . S
H321 C318 0.960 . S
C322 N323 1.342 . S
C322 C326 1.401 . S
C322 C327 1.499 . S
N323 Co306 1.989 . S
N323 C322 1.342 . S
N323 N324 1.388 . S
N324 Co307 1.993 . S
N324 N323 1.388 . S
N324 C325 1.346 . S
C325 N324 1.346 . S
C325 C326 1.396 . S
C325 C335 1.510 . S
C326 C322 1.401 . S
C326 C325 1.396 . S
C327 C322 1.499 . S
C327 H328 0.959 . S
C327 H329 0.960 . S
C327 H330 0.961 . S
H328 C327 0.959 . S
H329 C327 0.960 . S
H330 C327 0.961 . S
O331 Co306 1.967 . S
O331 C339 1.258 . S
O332 Co307 1.941 . S
O332 C339 1.266 . S
H333 C335 0.959 . S
H334 C335 0.961 . S
C335 C325 1.510 . S
C335 H333 0.959 . S
C335 H334 0.961 . S
C335 H336 0.960 . S
H336 C335 0.960 . S
H337 N317 0.862 . S
O338 Co306 1.920 . S
O338 C311 1.289 . S
C339 O331 1.258 . S
C339 O332 1.266 . S
Co340 O343 1.970 . S
Co340 N357 1.989 . S
Co340 O365 1.967 . S
Co340 O372 1.920 . S
Co341 O344 1.966 . S
Co341 N350 2.022 . S
Co341 N358 1.993 . S
Co341 O366 1.941 . S
C342 O343 1.258 . S
C342 O344 1.263 . S
O343 Co340 1.970 . S
O343 C342 1.258 . S
O344 Co341 1.966 . S
O344 C342 1.263 . S
C345 O346 1.235 1_655 S
C345 O372 1.289 1_655 S
O346 C345 1.235 1_455 S
C347 C349 1.400 . S
C347 N350 1.351 . S
C347 C352 1.501 . S
C348 C349 1.387 . S
C348 N351 1.341 . S
C349 C347 1.400 . S
C349 C348 1.387 . S
N350 Co341 2.022 . S
N350 C347 1.351 . S
N350 N351 1.365 . S
N351 C348 1.341 . S
N351 N350 1.365 . S
N351 H371 0.862 . S
C352 C347 1.501 . S
C352 H353 0.961 . S
C352 H354 0.961 . S
C352 H355 0.960 . S
H353 C352 0.961 . S
H354 C352 0.961 . S
H355 C352 0.960 . S
C356 N357 1.342 . S
C356 C360 1.401 . S
C356 C361 1.499 . S
N357 Co340 1.989 . S
N357 C356 1.342 . S
N357 N358 1.388 . S
N358 Co341 1.993 . S
N358 N357 1.388 . S
N358 C359 1.346 . S
C359 N358 1.346 . S
C359 C360 1.396 . S
C359 C369 1.510 . S
C360 C356 1.401 . S
C360 C359 1.396 . S
C361 C356 1.499 . S
C361 H362 0.959 . S
C361 H363 0.960 . S
C361 H364 0.961 . S
H362 C361 0.959 . S
H363 C361 0.960 . S
H364 C361 0.961 . S
O365 Co340 1.967 . S
O365 C373 1.258 . S
O366 Co341 1.941 . S
O366 C373 1.266 . S
H367 C369 0.959 . S
H368 C369 0.961 . S
C369 C359 1.510 . S
C369 H367 0.959 . S
C369 H368 0.961 . S
C369 H370 0.960 . S
H370 C369 0.960 . S
H371 N351 0.862 . S
O372 Co340 1.920 . S
O372 C345 1.289 1_455 S
C373 O365 1.258 . S
C373 O366 1.266 . S
Co374 O377 1.970 . S
Co374 N391 1.989 . S
Co374 O399 1.967 . S
Co374 O406 1.920 . S
Co375 O378 1.966 . S
Co375 N384 2.022 . S
Co375 N392 1.993 . S
Co375 O400 1.941 . S
C376 O377 1.258 . S
C376 O378 1.263 . S
O377 Co374 1.970 . S
O377 C376 1.258 . S
O378 Co375 1.966 . S
O378 C376 1.263 . S
C379 O380 1.235 1_565 S
C379 O406 1.289 1_565 S
O380 C379 1.235 1_545 S
C381 C383 1.400 . S
C381 N384 1.351 . S
C381 C386 1.501 . S
C382 C383 1.387 . S
C382 N385 1.341 . S
C383 C381 1.400 . S
C383 C382 1.387 . S
N384 Co375 2.022 . S
N384 C381 1.351 . S
N384 N385 1.365 . S
N385 C382 1.341 . S
N385 N384 1.365 . S
N385 H405 0.862 . S
C386 C381 1.501 . S
C386 H387 0.961 . S
C386 H388 0.961 . S
C386 H389 0.960 . S
H387 C386 0.961 . S
H388 C386 0.961 . S
H389 C386 0.960 . S
C390 N391 1.342 . S
C390 C394 1.401 . S
C390 C395 1.499 . S
N391 Co374 1.989 . S
N391 C390 1.342 . S
N391 N392 1.388 . S
N392 Co375 1.993 . S
N392 N391 1.388 . S
N392 C393 1.346 . S
C393 N392 1.346 . S
C393 C394 1.396 . S
C393 C403 1.510 . S
C394 C390 1.401 . S
C394 C393 1.396 . S
C395 C390 1.499 . S
C395 H396 0.959 . S
C395 H397 0.960 . S
C395 H398 0.961 . S
H396 C395 0.959 . S
H397 C395 0.960 . S
H398 C395 0.961 . S
O399 Co374 1.967 . S
O399 C407 1.258 . S
O400 Co375 1.941 . S
O400 C407 1.266 . S
H401 C403 0.959 . S
H402 C403 0.961 . S
C403 C393 1.510 . S
C403 H401 0.959 . S
C403 H402 0.961 . S
C403 H404 0.960 . S
H404 C403 0.960 . S
H405 N385 0.862 . S
O406 Co374 1.920 . S
O406 C379 1.289 1_545 S
C407 O399 1.258 . S
C407 O400 1.266 . S
C408 C409 1.170 . S
C408 C410 1.380 . S
C409 C408 1.170 . S
C410 C408 1.380 . S
C410 C411 1.170 . S
C411 C410 1.170 . S
C412 C413 1.170 . S
C412 C414 1.380 . S
C413 C412 1.170 . S
C414 C412 1.380 . S
C414 C415 1.170 . S
C415 C414 1.170 . S
C416 C417 1.170 . S
C416 C418 1.380 . S
C417 C416 1.170 . S
C418 C416 1.380 . S
C418 C419 1.170 . S
C419 C418 1.170 . S
C420 C421 1.170 . S
C420 C422 1.380 . S
C421 C420 1.170 . S
C422 C420 1.380 . S
C422 C423 1.170 . S
C423 C422 1.170 . S
C424 C425 1.170 . S
C424 C426 1.380 . S
C425 C424 1.170 . S
C426 C424 1.380 . S
C426 C427 1.170 . S
C427 C426 1.170 . S
C428 C429 1.170 . S
C428 C430 1.380 . S
C429 C428 1.170 . S
C430 C428 1.380 . S
C430 C431 1.170 . S
C431 C430 1.170 . S
C432 C433 1.170 . S
C432 C434 1.380 . S
C433 C432 1.170 . S
C434 C432 1.380 . S
C434 C435 1.170 . S
C435 C434 1.170 . S
C436 C437 1.170 . S
C436 C438 1.380 . S
C437 C436 1.170 . S
C438 C436 1.380 . S
C438 C439 1.170 1_655 S
C439 C438 1.170 1_455 S
C440 C441 1.170 1_565 S
C440 C442 1.380 . S
C441 C440 1.170 1_545 S
C442 C440 1.380 . S
C442 C443 1.170 . S
C443 C442 1.170 . S
C444 C445 1.170 . S
C444 C446 1.380 . S
C445 C444 1.170 . S
C446 C444 1.380 . S
C446 C447 1.170 . S
C447 C446 1.170 . S
C448 C449 1.170 1_455 S
C448 C450 1.380 . S
C449 C448 1.170 1_655 S
C450 C448 1.380 . S
C450 C451 1.170 . S
C451 C450 1.170 . S
C452 C453 1.170 1_545 S
C452 C454 1.380 . S
C453 C452 1.170 1_565 S
C454 C452 1.380 . S
C454 C455 1.170 . S
C455 C454 1.170 . S
C456 C457 1.170 . S
C456 C458 1.380 . S
C457 C456 1.170 . S
C458 C456 1.380 . S
C458 C459 1.170 . S
C459 C458 1.170 . S
C460 C461 1.170 . S
C460 C462 1.380 . S
C461 C460 1.170 . S
C462 C460 1.380 . S
C462 C463 1.170 1_655 S
C463 C462 1.170 1_455 S
C464 C465 1.170 . S
C464 C466 1.380 . S
C465 C464 1.170 . S
C466 C464 1.380 . S
C466 C467 1.170 1_565 S
C467 C466 1.170 1_545 S
C468 C469 1.170 . S
C468 C470 1.380 . S
C469 C468 1.170 . S
C470 C468 1.380 . S
C470 C471 1.170 . S
C471 C470 1.170 . S
C472 C473 1.170 1_455 S
C472 C474 1.380 . S
C473 C472 1.170 1_655 S
C474 C472 1.380 . S
C474 C475 1.170 . S
C475 C474 1.170 . S
C476 C477 1.170 1_545 S
C476 C478 1.380 . S
C477 C476 1.170 1_565 S
C478 C476 1.380 . S
C478 C479 1.170 . S
C479 C478 1.170 . S
C480 C481 1.170 . S
C480 C482 1.380 . S
C481 C480 1.170 . S
C482 C480 1.380 . S
C482 C483 1.170 . S
C483 C482 1.170 . S
C484 C485 1.170 1_655 S
C484 C486 1.380 . S
C485 C484 1.170 1_455 S
C486 C484 1.380 . S
C486 C487 1.170 . S
C487 C486 1.170 . S
C488 C489 1.170 . S
C488 C490 1.380 . S
C489 C488 1.170 . S
C490 C488 1.380 . S
C490 C491 1.170 1_565 S
C491 C490 1.170 1_545 S
C492 C493 1.170 . S
C492 C494 1.380 . S
C493 C492 1.170 . S
C494 C492 1.380 . S
C494 C495 1.170 . S
C495 C494 1.170 . S
C496 C497 1.170 1_455 S
C496 C498 1.380 . S
C497 C496 1.170 1_655 S
C498 C496 1.380 . S
C498 C499 1.170 . S
C499 C498 1.170 . S
C500 C501 1.170 1_545 S
C500 C502 1.380 . S
C501 C500 1.170 1_565 S
C502 C500 1.380 . S
C502 C503 1.170 . S
C503 C502 1.170 . S
C504 C505 1.170 . S
C504 C506 1.380 . S
C505 C504 1.170 . S
C506 C504 1.380 . S
C506 C507 1.170 . S
C507 C506 1.170 . S
C508 C509 1.170 . S
C508 C510 1.380 . S
C509 C508 1.170 . S
C510 C508 1.380 . S
C510 C511 1.170 1_655 S
C511 C510 1.170 1_455 S
C512 C513 1.170 . S
C512 C514 1.380 . S
C513 C512 1.170 . S
C514 C512 1.380 . S
C514 C515 1.170 1_565 S
C515 C514 1.170 1_545 S
C516 C517 1.170 . S
C516 C518 1.380 . S
C517 C516 1.170 . S
C518 C516 1.380 . S
C518 C519 1.170 . S
C519 C518 1.170 . S
C520 C521 1.170 1_455 S
C520 C522 1.380 . S
C521 C520 1.170 1_655 S
C522 C520 1.380 . S
C522 C523 1.170 . S
C523 C522 1.170 . S
C524 C525 1.170 . S
C524 C526 1.380 . S
C525 C524 1.170 . S
C526 C524 1.380 . S
C526 C527 1.170 1_545 S
C527 C526 1.170 1_565 S
C409 C5 1.005 . S
C411 C277 1.011 . S
C413 C311 1.050 . S
C415 C39 1.009 . S
C417 C345 1.023 . S
C419 C73 0.995 . S
C421 C107 1.010 . S
C423 C379 1.049 . S
C425 C141 1.050 . S
C427 C209 1.008 . S
C429 C175 1.003 . S
C431 C243 1.051 . S
C433 C247 1.543 . S
C435 C33 1.565 . S
C437 C67 1.590 . S
C439 C281 1.555 . S
C441 C315 1.534 . S
C443 C101 1.565 . S
C445 C349 1.540 . S
C447 C135 1.583 . S
C449 C383 1.532 . S
C451 C169 1.567 . S
C453 C213 1.546 . S
C455 C203 1.566 . S
C457 C179 1.543 . S
C459 C237 1.565 . S
C461 C271 1.569 . S
C463 C9 1.552 . S
C465 C305 1.568 . S
C467 C43 1.551 . S
C469 C77 1.560 . S
C471 C339 1.574 . S
C473 C111 1.567 . S
C475 C373 1.581 . S
C477 C145 1.553 . S
C479 C407 1.569 . S
C481 C190 1.411 . S
C483 C2 1.341 . S
C485 C20 1.389 . S
C487 C36 1.362 . S
C489 C70 1.371 . S
C491 C54 1.382 . S
C493 C88 1.392 . S
C495 C104 1.359 . S
C497 C122 1.411 . S
C499 C138 1.341 . S
C501 C156 1.388 . S
C503 C172 1.371 . S
C505 C206 1.379 . S
C507 C258 1.375 . S
C509 C240 1.362 . S
C511 C292 1.396 . S
C513 C274 1.342 . S
C515 C326 1.409 . S
C517 C360 1.386 . S
C519 C308 1.365 . S
C521 C394 1.368 . S
C523 C342 1.389 . S
C525 C376 1.341 . S
C527 C224 1.411 . S
