# Generated by pormake.
# Topology ums, (4)-cn, num edge types: 1
# Building blocks:
#     Node 0, Type 0, BuildingBlock: AZAVOO_clean_sbu_0, # of connection points: 4
#     Node 1, Type 0, BuildingBlock: AZAVOO_clean_sbu_0, # of connection points: 4
#     Node 2, Type 0, BuildingBlock: AZAVOO_clean_sbu_0, # of connection points: 4
#     Node 3, Type 0, BuildingBlock: AZAVOO_clean_sbu_0, # of connection points: 4
#     Node 4, Type 0, BuildingBlock: AZAVOO_clean_sbu_0, # of connection points: 4
#     Node 5, Type 0, BuildingBlock: AZAVOO_clean_sbu_0, # of connection points: 4
#     Node 6, Type 0, BuildingBlock: AZAVOO_clean_sbu_0, # of connection points: 4
#     Node 7, Type 0, BuildingBlock: AZAVOO_clean_sbu_0, # of connection points: 4
#     Node 8, Type 0, BuildingBlock: AZAVOO_clean_sbu_0, # of connection points: 4
#     Node 9, Type 0, BuildingBlock: AZAVOO_clean_sbu_0, # of connection points: 4
#     Node 10, Type 0, BuildingBlock: AZAVOO_clean_sbu_0, # of connection points: 4
#     Node 11, Type 0, BuildingBlock: AZAVOO_clean_sbu_0, # of connection points: 4
#     Node 12, Type 0, BuildingBlock: AZAVOO_clean_sbu_0, # of connection points: 4
#     Node 13, Type 0, BuildingBlock: AZAVOO_clean_sbu_0, # of connection points: 4
#     Node 14, Type 0, BuildingBlock: AZAVOO_clean_sbu_0, # of connection points: 4
#     Node 15, Type 0, BuildingBlock: AZAVOO_clean_sbu_0, # of connection points: 4
#     Node 16, Type 0, BuildingBlock: AZAVOO_clean_sbu_0, # of connection points: 4
#     Node 17, Type 0, BuildingBlock: AZAVOO_clean_sbu_0, # of connection points: 4
#     Node 18, Type 0, BuildingBlock: AZAVOO_clean_sbu_0, # of connection points: 4
#     Node 19, Type 0, BuildingBlock: AZAVOO_clean_sbu_0, # of connection points: 4
#     Node 20, Type 0, BuildingBlock: AZAVOO_clean_sbu_0, # of connection points: 4
#     Node 21, Type 0, BuildingBlock: AZAVOO_clean_sbu_0, # of connection points: 4
#     Node 22, Type 0, BuildingBlock: AZAVOO_clean_sbu_0, # of connection points: 4
#     Node 23, Type 0, BuildingBlock: AZAVOO_clean_sbu_0, # of connection points: 4
#     Node 24, Type 0, BuildingBlock: AZAVOO_clean_sbu_0, # of connection points: 4
#     Node 25, Type 0, BuildingBlock: AZAVOO_clean_sbu_0, # of connection points: 4
#     Node 26, Type 0, BuildingBlock: AZAVOO_clean_sbu_0, # of connection points: 4
#     Node 27, Type 0, BuildingBlock: AZAVOO_clean_sbu_0, # of connection points: 4
#     Node 28, Type 0, BuildingBlock: AZAVOO_clean_sbu_0, # of connection points: 4
#     Node 29, Type 0, BuildingBlock: AZAVOO_clean_sbu_0, # of connection points: 4
#     Node 30, Type 0, BuildingBlock: AZAVOO_clean_sbu_0, # of connection points: 4
#     Node 31, Type 0, BuildingBlock: AZAVOO_clean_sbu_0, # of connection points: 4
#     Node 32, Type 0, BuildingBlock: AZAVOO_clean_sbu_0, # of connection points: 4
#     Node 33, Type 0, BuildingBlock: AZAVOO_clean_sbu_0, # of connection points: 4
#     Node 34, Type 0, BuildingBlock: AZAVOO_clean_sbu_0, # of connection points: 4
#     Node 35, Type 0, BuildingBlock: AZAVOO_clean_sbu_0, # of connection points: 4
#     Edge 36, Type (0, 0), BuildingBlock: UVAHIK_clean_linker_0, # of connection points: 2
#     Edge 37, Type (0, 0), BuildingBlock: UVAHIK_clean_linker_0, # of connection points: 2
#     Edge 38, Type (0, 0), BuildingBlock: UVAHIK_clean_linker_0, # of connection points: 2
#     Edge 39, Type (0, 0), BuildingBlock: UVAHIK_clean_linker_0, # of connection points: 2
#     Edge 40, Type (0, 0), BuildingBlock: UVAHIK_clean_linker_0, # of connection points: 2
#     Edge 41, Type (0, 0), BuildingBlock: UVAHIK_clean_linker_0, # of connection points: 2
#     Edge 42, Type (0, 0), BuildingBlock: UVAHIK_clean_linker_0, # of connection points: 2
#     Edge 43, Type (0, 0), BuildingBlock: UVAHIK_clean_linker_0, # of connection points: 2
#     Edge 44, Type (0, 0), BuildingBlock: UVAHIK_clean_linker_0, # of connection points: 2
#     Edge 45, Type (0, 0), BuildingBlock: UVAHIK_clean_linker_0, # of connection points: 2
#     Edge 46, Type (0, 0), BuildingBlock: UVAHIK_clean_linker_0, # of connection points: 2
#     Edge 47, Type (0, 0), BuildingBlock: UVAHIK_clean_linker_0, # of connection points: 2
#     Edge 48, Type (0, 0), BuildingBlock: UVAHIK_clean_linker_0, # of connection points: 2
#     Edge 49, Type (0, 0), BuildingBlock: UVAHIK_clean_linker_0, # of connection points: 2
#     Edge 50, Type (0, 0), BuildingBlock: UVAHIK_clean_linker_0, # of connection points: 2
#     Edge 51, Type (0, 0), BuildingBlock: UVAHIK_clean_linker_0, # of connection points: 2
#     Edge 52, Type (0, 0), BuildingBlock: UVAHIK_clean_linker_0, # of connection points: 2
#     Edge 53, Type (0, 0), BuildingBlock: UVAHIK_clean_linker_0, # of connection points: 2
#     Edge 54, Type (0, 0), BuildingBlock: UVAHIK_clean_linker_0, # of connection points: 2
#     Edge 55, Type (0, 0), BuildingBlock: UVAHIK_clean_linker_0, # of connection points: 2
#     Edge 56, Type (0, 0), BuildingBlock: UVAHIK_clean_linker_0, # of connection points: 2
#     Edge 57, Type (0, 0), BuildingBlock: UVAHIK_clean_linker_0, # of connection points: 2
#     Edge 58, Type (0, 0), BuildingBlock: UVAHIK_clean_linker_0, # of connection points: 2
#     Edge 59, Type (0, 0), BuildingBlock: UVAHIK_clean_linker_0, # of connection points: 2
#     Edge 60, Type (0, 0), BuildingBlock: UVAHIK_clean_linker_0, # of connection points: 2
#     Edge 61, Type (0, 0), BuildingBlock: UVAHIK_clean_linker_0, # of connection points: 2
#     Edge 62, Type (0, 0), BuildingBlock: UVAHIK_clean_linker_0, # of connection points: 2
#     Edge 63, Type (0, 0), BuildingBlock: UVAHIK_clean_linker_0, # of connection points: 2
#     Edge 64, Type (0, 0), BuildingBlock: UVAHIK_clean_linker_0, # of connection points: 2
#     Edge 65, Type (0, 0), BuildingBlock: UVAHIK_clean_linker_0, # of connection points: 2
#     Edge 66, Type (0, 0), BuildingBlock: UVAHIK_clean_linker_0, # of connection points: 2
#     Edge 67, Type (0, 0), BuildingBlock: UVAHIK_clean_linker_0, # of connection points: 2
#     Edge 68, Type (0, 0), BuildingBlock: UVAHIK_clean_linker_0, # of connection points: 2
#     Edge 69, Type (0, 0), BuildingBlock: UVAHIK_clean_linker_0, # of connection points: 2
#     Edge 70, Type (0, 0), BuildingBlock: UVAHIK_clean_linker_0, # of connection points: 2
#     Edge 71, Type (0, 0), BuildingBlock: UVAHIK_clean_linker_0, # of connection points: 2
#     Edge 72, Type (0, 0), BuildingBlock: UVAHIK_clean_linker_0, # of connection points: 2
#     Edge 73, Type (0, 0), BuildingBlock: UVAHIK_clean_linker_0, # of connection points: 2
#     Edge 74, Type (0, 0), BuildingBlock: UVAHIK_clean_linker_0, # of connection points: 2
#     Edge 75, Type (0, 0), BuildingBlock: UVAHIK_clean_linker_0, # of connection points: 2
#     Edge 76, Type (0, 0), BuildingBlock: UVAHIK_clean_linker_0, # of connection points: 2
#     Edge 77, Type (0, 0), BuildingBlock: UVAHIK_clean_linker_0, # of connection points: 2
#     Edge 78, Type (0, 0), BuildingBlock: UVAHIK_clean_linker_0, # of connection points: 2
#     Edge 79, Type (0, 0), BuildingBlock: UVAHIK_clean_linker_0, # of connection points: 2
#     Edge 80, Type (0, 0), BuildingBlock: UVAHIK_clean_linker_0, # of connection points: 2
#     Edge 81, Type (0, 0), BuildingBlock: UVAHIK_clean_linker_0, # of connection points: 2
#     Edge 82, Type (0, 0), BuildingBlock: UVAHIK_clean_linker_0, # of connection points: 2
#     Edge 83, Type (0, 0), BuildingBlock: UVAHIK_clean_linker_0, # of connection points: 2
#     Edge 84, Type (0, 0), BuildingBlock: UVAHIK_clean_linker_0, # of connection points: 2
#     Edge 85, Type (0, 0), BuildingBlock: UVAHIK_clean_linker_0, # of connection points: 2
#     Edge 86, Type (0, 0), BuildingBlock: UVAHIK_clean_linker_0, # of connection points: 2
#     Edge 87, Type (0, 0), BuildingBlock: UVAHIK_clean_linker_0, # of connection points: 2
#     Edge 88, Type (0, 0), BuildingBlock: UVAHIK_clean_linker_0, # of connection points: 2
#     Edge 89, Type (0, 0), BuildingBlock: UVAHIK_clean_linker_0, # of connection points: 2
#     Edge 90, Type (0, 0), BuildingBlock: UVAHIK_clean_linker_0, # of connection points: 2
#     Edge 91, Type (0, 0), BuildingBlock: UVAHIK_clean_linker_0, # of connection points: 2
#     Edge 92, Type (0, 0), BuildingBlock: UVAHIK_clean_linker_0, # of connection points: 2
#     Edge 93, Type (0, 0), BuildingBlock: UVAHIK_clean_linker_0, # of connection points: 2
#     Edge 94, Type (0, 0), BuildingBlock: UVAHIK_clean_linker_0, # of connection points: 2
#     Edge 95, Type (0, 0), BuildingBlock: UVAHIK_clean_linker_0, # of connection points: 2
#     Edge 96, Type (0, 0), BuildingBlock: UVAHIK_clean_linker_0, # of connection points: 2
#     Edge 97, Type (0, 0), BuildingBlock: UVAHIK_clean_linker_0, # of connection points: 2
#     Edge 98, Type (0, 0), BuildingBlock: UVAHIK_clean_linker_0, # of connection points: 2
#     Edge 99, Type (0, 0), BuildingBlock: UVAHIK_clean_linker_0, # of connection points: 2
#     Edge 100, Type (0, 0), BuildingBlock: UVAHIK_clean_linker_0, # of connection points: 2
#     Edge 101, Type (0, 0), BuildingBlock: UVAHIK_clean_linker_0, # of connection points: 2
#     Edge 102, Type (0, 0), BuildingBlock: UVAHIK_clean_linker_0, # of connection points: 2
#     Edge 103, Type (0, 0), BuildingBlock: UVAHIK_clean_linker_0, # of connection points: 2
#     Edge 104, Type (0, 0), BuildingBlock: UVAHIK_clean_linker_0, # of connection points: 2
#     Edge 105, Type (0, 0), BuildingBlock: UVAHIK_clean_linker_0, # of connection points: 2
#     Edge 106, Type (0, 0), BuildingBlock: UVAHIK_clean_linker_0, # of connection points: 2
#     Edge 107, Type (0, 0), BuildingBlock: UVAHIK_clean_linker_0, # of connection points: 2
# Relax obj value: 0.199
# Max RMSD: 0.160
# Mean RMSD: 0.152
data_MOF--net-ums--node1-AZAVOO_clean_sbu_0--edge1-UVAHIK_clean_linker_0
_symmetry_space_group_name_H-M    P1
_symmetry_Int_Tables_number       1
_symmetry_cell_setting            triclinic
loop_
_symmetry_equiv_pos_as_xyz
'x, y, z'
_cell_length_a     130.33536
_cell_length_b     129.17381
_cell_length_c     29.782807
_cell_angle_alpha  89.099303
_cell_angle_beta   89.998897
_cell_angle_gamma 120.25893
loop_
_atom_site_label
_atom_site_type_symbol
_atom_site_fract_x
_atom_site_fract_y
_atom_site_fract_z
_atom_type_partial_charge
Mg0 Mg 0.17232 0.24228 0.18794 0.0
O1 O 0.17849 0.26197 0.16792 0.0
O2 O 0.16286 0.2617 0.13562 0.0
Mg3 Mg 0.14682 0.24283 0.13923 0.0
C4 C 0.1737 0.26729 0.14785 0.0
C5 C 0.19892 0.2515 0.20557 0.0
O6 O 0.19928 0.2545 0.16301 0.0
O7 O 0.16246 0.24353 0.24934 0.0
O8 O 0.14719 0.24382 0.2162 0.0
O9 O 0.17691 0.23948 0.11858 0.0
O10 O 0.1592 0.23612 0.13956 0.0
C11 C 0.15292 0.24402 0.25134 0.0
C12 C 0.16624 0.2368 0.10793 0.0
O13 O 0.18921 0.24754 0.22722 0.0
Mg14 Mg 0.73351 0.89954 0.21632 0.0
O15 O 0.71338 0.88944 0.21389 0.0
O16 O 0.70551 0.88837 0.28133 0.0
Mg17 Mg 0.72145 0.89773 0.32869 0.0
C18 C 0.70439 0.88616 0.23945 0.0
C19 C 0.7419 0.9047 0.11359 0.0
O20 O 0.75266 0.90941 0.13005 0.0
O21 O 0.73377 0.91712 0.22335 0.0
O22 O 0.72726 0.916 0.29371 0.0
O23 O 0.73347 0.8826 0.23127 0.0
O24 O 0.73298 0.89435 0.28345 0.0
C25 C 0.73131 0.92169 0.25638 0.0
C26 C 0.73279 0.88457 0.27337 0.0
O27 O 0.73306 0.90058 0.14026 0.0
Mg28 Mg 0.0683 0.82938 0.16646 0.0
O29 O 0.08417 0.82736 0.14558 0.0
O30 O 0.09797 0.84475 0.11449 0.0
Mg31 Mg 0.0913 0.85802 0.11797 0.0
C32 C 0.09427 0.83388 0.12644 0.0
C33 C 0.05989 0.8082 0.24328 0.0
O34 O 0.06649 0.81637 0.27249 0.0
O35 O 0.07853 0.83995 0.22798 0.0
O36 O 0.09186 0.85722 0.19479 0.0
O37 O 0.06123 0.82413 0.09751 0.0
O38 O 0.07307 0.84286 0.11802 0.0
C39 C 0.08726 0.85069 0.23 0.0
C40 C 0.06781 0.83533 0.08643 0.0
O41 O 0.05968 0.81126 0.2027 0.0
Mg42 Mg 0.25958 0.16602 0.34736 0.0
O43 O 0.27976 0.17527 0.33605 0.0
O44 O 0.28515 0.16165 0.3507 0.0
Mg45 Mg 0.26853 0.14374 0.36868 0.0
C46 C 0.28771 0.17228 0.33949 0.0
C47 C 0.24891 0.17928 0.29881 0.0
O48 O 0.24041 0.16799 0.29783 0.0
O49 O 0.25632 0.15649 0.28029 0.0
O50 O 0.26115 0.1426 0.29743 0.0
O51 O 0.26281 0.17078 0.41966 0.0
O52 O 0.26024 0.15382 0.39237 0.0
C53 C 0.25728 0.14747 0.26974 0.0
C54 C 0.26279 0.16083 0.42603 0.0
O55 O 0.25886 0.18176 0.31538 0.0
Mg56 Mg 0.81999 0.07135 0.27371 0.0
O57 O 0.80969 0.08103 0.28714 0.0
O58 O 0.80021 0.08088 0.22445 0.0
Mg59 Mg 0.80558 0.0722 0.16973 0.0
C60 C 0.80273 0.08354 0.26563 0.0
C61 C 0.83261 0.07251 0.36057 0.0
O62 O 0.84033 0.07396 0.32914 0.0
O63 O 0.80281 0.0534 0.27341 0.0
O64 O 0.79496 0.054 0.2073 0.0
O65 O 0.83587 0.0885 0.25346 0.0
O66 O 0.82204 0.07655 0.20608 0.0
C67 C 0.79474 0.04853 0.2438 0.0
C68 C 0.83176 0.08649 0.213 0.0
O69 O 0.82235 0.07032 0.34884 0.0
Mg70 Mg 0.92863 0.74429 0.29506 0.0
O71 O 0.91541 0.72527 0.32194 0.0
O72 O 0.898 0.72429 0.33339 0.0
Mg73 Mg 0.89973 0.74212 0.3125 0.0
C74 C 0.90452 0.71954 0.33451 0.0
C75 C 0.94558 0.73471 0.3125 0.0
O76 O 0.93996 0.7326 0.35116 0.0
O77 O 0.92015 0.73946 0.2254 0.0
O78 O 0.90289 0.73861 0.24021 0.0
O79 O 0.93299 0.75081 0.36535 0.0
O80 O 0.91883 0.75098 0.32517 0.0
C81 C 0.91003 0.73779 0.21311 0.0
C82 C 0.92417 0.75272 0.363 0.0
O83 O 0.94226 0.73872 0.27971 0.0
Mg84 Mg 0.83388 0.74709 0.771 0.0
O85 O 0.84792 0.74912 0.8222 0.0
O86 O 0.86461 0.7664 0.80701 0.0
Mg87 Mg 0.86115 0.77565 0.74798 0.0
C88 C 0.85881 0.75669 0.82997 0.0
C89 C 0.81275 0.72202 0.79202 0.0
O90 O 0.81405 0.72178 0.74837 0.0
O91 O 0.83095 0.76078 0.80682 0.0
O92 O 0.84742 0.77796 0.78845 0.0
O93 O 0.84045 0.73835 0.72499 0.0
O94 O 0.8473 0.75789 0.72523 0.0
C95 C 0.83723 0.77219 0.80763 0.0
C96 C 0.84811 0.74901 0.71036 0.0
O97 O 0.81955 0.73161 0.81265 0.0
Mg98 Mg 0.26624 0.08369 0.82685 0.0
O99 O 0.25481 0.08988 0.8616 0.0
O100 O 0.24764 0.09778 0.81236 0.0
Mg101 Mg 0.25376 0.09518 0.74285 0.0
C102 C 0.24888 0.09504 0.85258 0.0
C103 C 0.27136 0.07142 0.91803 0.0
O104 O 0.26632 0.0639 0.95205 0.0
O105 O 0.24989 0.06726 0.80119 0.0
O106 O 0.24275 0.07451 0.74893 0.0
O107 O 0.28158 0.10279 0.83135 0.0
O108 O 0.26938 0.09556 0.77382 0.0
C109 C 0.24232 0.06574 0.77105 0.0
C110 C 0.27802 0.10454 0.7929 0.0
O111 O 0.26465 0.07292 0.89094 0.0
Mg112 Mg 0.90873 0.1693 0.74207 0.0
O113 O 0.90209 0.15837 0.80771 0.0
O114 O 0.90357 0.14195 0.80175 0.0
Mg115 Mg 0.91078 0.14218 0.73147 0.0
C116 C 0.90079 0.14857 0.82398 0.0
C117 C 0.91234 0.19502 0.75753 0.0
O118 O 0.91541 0.19643 0.71487 0.0
O119 O 0.92799 0.17542 0.75897 0.0
O120 O 0.92874 0.15875 0.74793 0.0
O121 O 0.8904 0.15935 0.71475 0.0
O122 O 0.90363 0.15352 0.70773 0.0
C123 C 0.93376 0.16986 0.75737 0.0
C124 C 0.89293 0.15135 0.70201 0.0
O125 O 0.90954 0.18516 0.77744 0.0
Mg126 Mg 0.73904 0.81815 0.76278 0.0
O127 O 0.74249 0.82455 0.689 0.0
O128 O 0.75744 0.84355 0.68803 0.0
Mg129 Mg 0.76303 0.84951 0.76027 0.0
C130 C 0.74965 0.83424 0.66783 0.0
C131 C 0.72038 0.7897 0.72906 0.0
O132 O 0.71965 0.7792 0.72651 0.0
O133 O 0.75615 0.81778 0.76602 0.0
O134 O 0.7706 0.83689 0.76936 0.0
O135 O 0.72577 0.82436 0.76987 0.0
O136 O 0.74497 0.83556 0.78209 0.0
C137 C 0.76706 0.8257 0.77008 0.0
C138 C 0.73472 0.8347 0.78002 0.0
O139 O 0.72994 0.7984 0.7439 0.0
Mg140 Mg 0.16762 0.91573 0.70842 0.0
O141 O 0.15432 0.90903 0.65086 0.0
O142 O 0.13842 0.91025 0.67034 0.0
Mg143 Mg 0.14181 0.91822 0.74047 0.0
C144 C 0.14403 0.90745 0.64245 0.0
C145 C 0.18845 0.91257 0.67733 0.0
O146 O 0.18795 0.91009 0.72051 0.0
O147 O 0.17335 0.9352 0.69113 0.0
O148 O 0.15747 0.93602 0.71434 0.0
O149 O 0.15816 0.89721 0.73788 0.0
O150 O 0.15385 0.91126 0.75393 0.0
C151 C 0.16796 0.94103 0.69768 0.0
C152 C 0.15127 0.90027 0.75778 0.0
O153 O 0.18141 0.91578 0.66148 0.0
Mg154 Mg 0.08713 0.25483 0.73459 0.0
O155 O 0.09195 0.24745 0.67358 0.0
O156 O 0.09037 0.22995 0.69362 0.0
Mg157 Mg 0.08341 0.22565 0.76598 0.0
C158 C 0.09294 0.23834 0.66477 0.0
C159 C 0.08565 0.27723 0.70773 0.0
O160 O 0.08415 0.27694 0.75146 0.0
O161 O 0.06744 0.24193 0.72477 0.0
O162 O 0.06573 0.22448 0.74641 0.0
O163 O 0.10592 0.26319 0.75657 0.0
O164 O 0.09175 0.24501 0.77742 0.0
C165 C 0.06116 0.23067 0.73247 0.0
C166 C 0.10283 0.25312 0.77714 0.0
O167 O 0.08679 0.26901 0.68977 0.0
Mg168 Mg 0.83833 0.569 0.49908 0.0
O169 O 0.84541 0.58907 0.48322 0.0
O170 O 0.83024 0.59004 0.45238 0.0
Mg171 Mg 0.81379 0.57147 0.45098 0.0
C172 C 0.84101 0.59504 0.46534 0.0
C173 C 0.85882 0.56649 0.52433 0.0
O174 O 0.85322 0.55925 0.49116 0.0
O175 O 0.82838 0.56992 0.56085 0.0
O176 O 0.81374 0.57142 0.52796 0.0
O177 O 0.84336 0.56726 0.42923 0.0
O178 O 0.82567 0.56416 0.44914 0.0
C179 C 0.81911 0.5709 0.56304 0.0
C180 C 0.83293 0.56516 0.41779 0.0
O181 O 0.85481 0.57296 0.53912 0.0
Mg182 Mg 0.42893 0.27458 0.50592 0.0
O183 O 0.41038 0.26216 0.47687 0.0
O184 O 0.39794 0.25741 0.53551 0.0
Mg185 Mg 0.40809 0.26481 0.60075 0.0
C186 C 0.39988 0.25693 0.49371 0.0
C187 C 0.43517 0.28084 0.39657 0.0
O188 O 0.44132 0.28932 0.36659 0.0
O189 O 0.42418 0.28906 0.51489 0.0
O190 O 0.41319 0.28392 0.57762 0.0
O191 O 0.43201 0.2591 0.52028 0.0
O192 O 0.42349 0.26554 0.56707 0.0
C193 C 0.41863 0.29123 0.54506 0.0
C194 C 0.42685 0.25797 0.55869 0.0
O195 O 0.43693 0.2834 0.43789 0.0
Mg196 Mg 0.73611 0.15834 0.49527 0.0
O197 O 0.74698 0.14927 0.47869 0.0
O198 O 0.76472 0.16369 0.45292 0.0
Mg199 Mg 0.7652 0.18158 0.4527 0.0
C200 C 0.7574 0.15275 0.46324 0.0
C201 C 0.71691 0.14297 0.56598 0.0
O202 O 0.72124 0.15377 0.5823 0.0
O203 O 0.74685 0.16638 0.55916 0.0
O204 O 0.76413 0.18057 0.52945 0.0
O205 O 0.72986 0.15541 0.42449 0.0
O206 O 0.74578 0.17178 0.44825 0.0
C207 C 0.75751 0.17502 0.56334 0.0
C208 C 0.73925 0.16563 0.41542 0.0
O209 O 0.72189 0.14162 0.53172 0.0
Mg210 Mg 0.92468 0.49232 0.71328 0.0
O211 O 0.94472 0.5037 0.70016 0.0
O212 O 0.95229 0.49157 0.70511 0.0
Mg213 Mg 0.93721 0.47268 0.72304 0.0
C214 C 0.95351 0.50193 0.69841 0.0
C215 C 0.91346 0.50789 0.7046 0.0
O216 O 0.90665 0.49957 0.73416 0.0
O217 O 0.92185 0.48407 0.64376 0.0
O218 O 0.92851 0.47132 0.65445 0.0
O219 O 0.92787 0.49626 0.78577 0.0
O220 O 0.92764 0.48077 0.75428 0.0
C221 C 0.92363 0.4758 0.62982 0.0
C222 C 0.9296 0.48726 0.78931 0.0
O223 O 0.92209 0.50742 0.687 0.0
Mg224 Mg 0.49593 0.43022 0.67836 0.0
O225 O 0.48776 0.44213 0.6755 0.0
O226 O 0.48811 0.44852 0.60519 0.0
Mg227 Mg 0.49694 0.44049 0.56199 0.0
C228 C 0.48547 0.44807 0.64674 0.0
C229 C 0.48675 0.42571 0.78641 0.0
O230 O 0.47819 0.41829 0.81382 0.0
O231 O 0.47955 0.41533 0.64516 0.0
O232 O 0.4809 0.42147 0.57369 0.0
O233 O 0.51445 0.4465 0.68567 0.0
O234 O 0.50604 0.43852 0.6213 0.0
C235 C 0.47565 0.41365 0.60507 0.0
C236 C 0.51495 0.44669 0.64221 0.0
O237 O 0.48641 0.42268 0.74581 0.0
Mg238 Mg 0.57369 0.08508 0.70713 0.0
O239 O 0.56198 0.06465 0.70374 0.0
O240 O 0.5434 0.0598 0.72138 0.0
Mg241 Mg 0.54323 0.07706 0.73604 0.0
C242 C 0.55104 0.05686 0.71017 0.0
C243 C 0.59549 0.09201 0.64403 0.0
O244 O 0.59286 0.10013 0.63051 0.0
O245 O 0.56622 0.08739 0.64021 0.0
O246 O 0.54811 0.08314 0.66248 0.0
O247 O 0.57645 0.08307 0.7801 0.0
O248 O 0.56207 0.0857 0.75347 0.0
C249 C 0.55613 0.08641 0.63208 0.0
C250 C 0.56692 0.08359 0.78732 0.0
O251 O 0.58889 0.08423 0.67332 0.0
Mg252 Mg 0.4813 0.07699 0.17569 0.0
O253 O 0.49765 0.08787 0.21899 0.0
O254 O 0.51373 0.09822 0.1754 0.0
Mg255 Mg 0.50727 0.09451 0.10252 0.0
C256 C 0.50882 0.09494 0.21411 0.0
C257 C 0.46163 0.06665 0.25995 0.0
O258 O 0.45588 0.06912 0.29024 0.0
O259 O 0.48066 0.09354 0.15519 0.0
O260 O 0.49635 0.10405 0.10991 0.0
O261 O 0.48575 0.06219 0.17503 0.0
O262 O 0.49215 0.07695 0.12472 0.0
C263 C 0.487 0.1026 0.12975 0.0
C264 C 0.49236 0.06776 0.14047 0.0
O265 O 0.46958 0.0752 0.2362 0.0
Mg266 Mg 0.92962 0.41083 0.19023 0.0
O267 O 0.9191 0.41837 0.22268 0.0
O268 O 0.91309 0.427 0.17195 0.0
Mg269 Mg 0.9191 0.42358 0.10355 0.0
C270 C 0.91387 0.42415 0.21253 0.0
C271 C 0.93364 0.3987 0.28339 0.0
O272 O 0.9285 0.39148 0.3181 0.0
O273 O 0.91283 0.39503 0.16381 0.0
O274 O 0.90697 0.40302 0.10961 0.0
O275 O 0.94597 0.42938 0.19368 0.0
O276 O 0.93383 0.42248 0.13589 0.0
C277 C 0.90573 0.39398 0.1324 0.0
C278 C 0.94297 0.43113 0.15408 0.0
O279 O 0.92706 0.4001 0.25537 0.0
Mg280 Mg 0.58819 0.51619 0.15217 0.0
O281 O 0.58022 0.50609 0.21882 0.0
O282 O 0.57658 0.48738 0.21086 0.0
Mg283 Mg 0.58031 0.48499 0.13717 0.0
C284 C 0.57672 0.49559 0.23474 0.0
C285 C 0.5951 0.54226 0.1995 0.0
O286 O 0.60377 0.5521 0.21667 0.0
O287 O 0.60496 0.51556 0.16349 0.0
O288 O 0.60058 0.49702 0.14636 0.0
O289 O 0.57019 0.51153 0.12425 0.0
O290 O 0.57862 0.5006 0.11674 0.0
C291 C 0.60807 0.50779 0.15703 0.0
C292 C 0.5698 0.50207 0.1082 0.0
O293 O 0.59735 0.53424 0.18717 0.0
Mg294 Mg 0.40983 0.17516 0.03955 0.0
O295 O 0.41635 0.1875 0.97766 0.0
O296 O 0.4338 0.20366 0.99227 0.0
Mg297 Mg 0.43813 0.20167 0.06568 0.0
C298 C 0.42529 0.19749 0.96551 0.0
C299 C 0.39072 0.14968 0.01083 0.0
O300 O 0.39375 0.14729 0.05007 0.0
O301 O 0.42342 0.16943 0.0273 0.0
O302 O 0.4404 0.18558 0.04776 0.0
O303 O 0.40073 0.18452 0.06613 0.0
O304 O 0.41916 0.18941 0.08263 0.0
C305 C 0.4346 0.17477 0.03427 0.0
C306 C 0.41045 0.19136 0.08743 0.0
O307 O 0.39605 0.16043 0.99611 0.0
Mg308 Mg 0.83652 0.24622 0.03038 0.0
O309 O 0.82285 0.23953 0.97408 0.0
O310 O 0.80673 0.23995 0.99679 0.0
Mg311 Mg 0.81058 0.24791 0.067 0.0
C312 C 0.81235 0.23757 0.96744 0.0
C313 C 0.86118 0.25189 0.99071 0.0
O314 O 0.8649 0.25754 0.02885 0.0
O315 O 0.84171 0.26558 0.01475 0.0
O316 O 0.8258 0.26598 0.04039 0.0
O317 O 0.82756 0.2276 0.05896 0.0
O318 O 0.82305 0.24135 0.07751 0.0
C319 C 0.8362 0.2712 0.02275 0.0
C320 C 0.8207 0.23042 0.08042 0.0
O321 O 0.8502 0.24682 0.98145 0.0
Mg322 Mg 0.75734 0.58746 0.04911 0.0
O323 O 0.76172 0.57999 0.98692 0.0
O324 O 0.76035 0.56262 0.00767 0.0
Mg325 Mg 0.75416 0.55844 0.08059 0.0
C326 C 0.76266 0.57083 0.97833 0.0
C327 C 0.75716 0.61049 0.02785 0.0
O328 O 0.75712 0.61001 0.07196 0.0
O329 O 0.73752 0.57434 0.04206 0.0
O330 O 0.73636 0.55712 0.06363 0.0
O331 O 0.77634 0.59596 0.06907 0.0
O332 O 0.76233 0.57779 0.09073 0.0
C333 C 0.7315 0.56308 0.05051 0.0
C334 C 0.7734 0.58592 0.08958 0.0
O335 O 0.75671 0.60186 0.0063 0.0
Mg336 Mg 0.50307 0.90833 0.82473 0.0
O337 O 0.50738 0.92649 0.79281 0.0
O338 O 0.49038 0.9248 0.76874 0.0
Mg339 Mg 0.47527 0.90609 0.78705 0.0
C340 C 0.50161 0.9309 0.7737 0.0
C341 C 0.52458 0.91463 0.88932 0.0
O342 O 0.51601 0.90871 0.91889 0.0
O343 O 0.496 0.91264 0.88786 0.0
O344 O 0.47919 0.91102 0.86109 0.0
O345 O 0.50446 0.90184 0.75734 0.0
O346 O 0.48781 0.8995 0.78651 0.0
C347 C 0.48651 0.91313 0.89295 0.0
C348 C 0.49333 0.89842 0.75269 0.0
O349 O 0.52197 0.9166 0.85024 0.0
Mg350 Mg 0.0973 0.59816 0.85603 0.0
O351 O 0.07834 0.58666 0.83003 0.0
O352 O 0.0668 0.58088 0.89189 0.0
Mg353 Mg 0.0781 0.58572 0.95548 0.0
C354 C 0.06814 0.58149 0.84922 0.0
C355 C 0.10197 0.60661 0.74807 0.0
O356 O 0.10649 0.61573 0.71952 0.0
O357 O 0.09265 0.61208 0.8781 0.0
O358 O 0.08311 0.60531 0.94393 0.0
O359 O 0.10035 0.5823 0.85783 0.0
O360 O 0.09267 0.58743 0.91297 0.0
C361 C 0.08781 0.61338 0.91314 0.0
C362 C 0.09558 0.58005 0.89755 0.0
O363 O 0.1037 0.60873 0.78973 0.0
Mg364 Mg 0.39811 0.50055 0.86933 0.0
O365 O 0.41301 0.4984 0.83726 0.0
O366 O 0.42661 0.51592 0.80646 0.0
Mg367 Mg 0.4216 0.52976 0.82673 0.0
C368 C 0.42254 0.50478 0.8145 0.0
C369 C 0.3871 0.47324 0.8695 0.0
O370 O 0.39128 0.47638 0.82834 0.0
O371 O 0.40963 0.50881 0.9311 0.0
O372 O 0.42385 0.52616 0.90087 0.0
O373 O 0.38983 0.49789 0.80205 0.0
O374 O 0.40285 0.51561 0.82883 0.0
C375 C 0.41932 0.51882 0.93409 0.0
C376 C 0.3967 0.5093 0.79554 0.0
O377 O 0.38933 0.48143 0.89756 0.0
Mg378 Mg 0.5693 0.82989 0.96734 0.0
O379 O 0.58659 0.83339 0.00177 0.0
O380 O 0.58376 0.81599 0.02979 0.0
Mg381 Mg 0.5654 0.80128 0.00863 0.0
C382 C 0.59021 0.82731 0.02393 0.0
C383 C 0.5832 0.85737 0.96723 0.0
O384 O 0.58369 0.85461 0.0095 0.0
O385 O 0.57371 0.82243 0.90594 0.0
O386 O 0.57134 0.80524 0.93468 0.0
O387 O 0.56285 0.83183 0.03395 0.0
O388 O 0.55959 0.81455 0.00707 0.0
C389 C 0.57395 0.81272 0.90207 0.0
C390 C 0.55915 0.82056 0.04038 0.0
O391 O 0.57859 0.84899 0.93892 0.0
Mg392 Mg 0.16243 0.75423 0.97611 0.0
O393 O 0.15619 0.76786 0.98186 0.0
O394 O 0.14842 0.76876 0.9161 0.0
Mg395 Mg 0.15067 0.75677 0.86617 0.0
C396 C 0.15101 0.77192 0.95683 0.0
C397 C 0.17139 0.73633 0.00511 0.0
O398 O 0.17312 0.72724 -8e-05 0.0
O399 O 0.14323 0.73895 0.97636 0.0
O400 O 0.13734 0.74012 0.90692 0.0
O401 O 0.18052 0.7688 0.94808 0.0
O402 O 0.16547 0.75792 0.90568 0.0
C403 C 0.13548 0.73489 0.94532 0.0
C404 C 0.17619 0.76645 0.9085 0.0
O405 O 0.16808 0.74012 0.97159 0.0
Mg406 Mg 0.25839 0.41725 0.98456 0.0
O407 O 0.24501 0.39837 0.01191 0.0
O408 O 0.23012 0.39928 0.04517 0.0
Mg409 Mg 0.23322 0.41819 0.03464 0.0
C410 C 0.23525 0.39347 0.03417 0.0
C411 C 0.27312 0.40504 0.9735 0.0
O412 O 0.27007 0.40312 0.01618 0.0
O413 O 0.24645 0.4147 0.92453 0.0
O414 O 0.23148 0.41545 0.95823 0.0
O415 O 0.26687 0.4218 0.05185 0.0
O416 O 0.25238 0.42496 0.03078 0.0
C417 C 0.23648 0.41437 0.92311 0.0
C418 C 0.25922 0.42499 0.06202 0.0
O419 O 0.26875 0.40992 0.94859 0.0
Mg420 Mg 0.16453 0.40956 0.43263 0.0
O421 O 0.17497 0.41588 0.49836 0.0
O422 O 0.19097 0.43388 0.48536 0.0
Mg423 Mg 0.18993 0.43966 0.41346 0.0
C424 C 0.18467 0.42488 0.51125 0.0
C425 C 0.14342 0.3843 0.45159 0.0
O426 O 0.14646 0.38333 0.41048 0.0
O427 O 0.15682 0.42168 0.4409 0.0
O428 O 0.17265 0.43989 0.42848 0.0
O429 O 0.17606 0.40225 0.41328 0.0
O430 O 0.17986 0.42058 0.39572 0.0
C431 C 0.1616 0.43304 0.43732 0.0
C432 C 0.18321 0.41275 0.39592 0.0
O433 O 0.14914 0.39433 0.47086 0.0
Mg434 Mg 0.59839 0.75545 0.42357 0.0
O435 O 0.59008 0.75903 0.48473 0.0
O436 O 0.57091 0.75249 0.47175 0.0
Mg437 Mg 0.56655 0.74312 0.40424 0.0
C438 C 0.58007 0.75771 0.49649 0.0
C439 C 0.6224 0.77188 0.47081 0.0
O440 O 0.62073 0.77995 0.45012 0.0
O441 O 0.59022 0.73565 0.44304 0.0
O442 O 0.57097 0.72897 0.43016 0.0
O443 O 0.60119 0.77251 0.39201 0.0
O444 O 0.58514 0.75482 0.38251 0.0
C445 C 0.57938 0.72722 0.44237 0.0
C446 C 0.59064 0.76624 0.37569 0.0
O447 O 0.61488 0.76082 0.46572 0.0
Mg448 Mg 0.2389 0.83356 0.40027 0.0
O449 O 0.23501 0.82443 0.46939 0.0
O450 O 0.23825 0.80906 0.46767 0.0
Mg451 Mg 0.24396 0.80815 0.39579 0.0
C452 C 0.23523 0.81566 0.48866 0.0
C453 C 0.2347 0.85516 0.41059 0.0
O454 O 0.23153 0.85251 0.36855 0.0
O455 O 0.25891 0.84211 0.41051 0.0
O456 O 0.26117 0.82619 0.40297 0.0
O457 O 0.22015 0.82102 0.37922 0.0
O458 O 0.23496 0.81757 0.36988 0.0
C459 C 0.2655 0.83742 0.40833 0.0
C460 C 0.22383 0.81393 0.3659 0.0
O461 O 0.23848 0.84922 0.43222 0.0
Mg462 Mg 0.07603 0.50057 0.38186 0.0
O463 O 0.08297 0.51168 0.31677 0.0
O464 O 0.10124 0.52701 0.32784 0.0
Mg465 Mg 0.106 0.5255 0.40089 0.0
C466 C 0.09234 0.52101 0.30249 0.0
C467 C 0.05496 0.47556 0.36093 0.0
O468 O 0.05826 0.47365 0.40041 0.0
O469 O 0.08776 0.49248 0.37083 0.0
O470 O 0.10587 0.508 0.385 0.0
O471 O 0.06917 0.51215 0.40735 0.0
O472 O 0.08709 0.51511 0.42112 0.0
C473 C 0.09897 0.49704 0.37482 0.0
C474 C 0.07934 0.51837 0.42675 0.0
O475 O 0.06079 0.48592 0.34285 0.0
Mg476 Mg 0.49951 0.57529 0.41448 0.0
O477 O 0.4885 0.57292 0.3518 0.0
O478 O 0.47666 0.58048 0.36325 0.0
Mg479 Mg 0.48138 0.5892 0.43212 0.0
C480 C 0.48037 0.57498 0.33887 0.0
C481 C 0.50541 0.55882 0.35919 0.0
O482 O 0.49422 0.55136 0.3696 0.0
O483 O 0.51216 0.59499 0.39778 0.0
O484 O 0.50058 0.60288 0.40988 0.0
O485 O 0.48451 0.55836 0.44275 0.0
O486 O 0.48686 0.5763 0.454 0.0
C487 C 0.51057 0.60396 0.39905 0.0
C488 C 0.48046 0.56484 0.45903 0.0
O489 O 0.51039 0.56949 0.37341 0.0
Mg490 Mg 0.41769 0.91946 0.37707 0.0
O491 O 0.42369 0.91471 0.31208 0.0
O492 O 0.41968 0.89577 0.31885 0.0
Mg493 Mg 0.41028 0.88816 0.38612 0.0
C494 C 0.42399 0.90567 0.29691 0.0
C495 C 0.42523 0.9458 0.36866 0.0
O496 O 0.42749 0.94448 0.4107 0.0
O497 O 0.39831 0.90906 0.35656 0.0
O498 O 0.39435 0.8902 0.36577 0.0
O499 O 0.43526 0.92495 0.40638 0.0
O500 O 0.41986 0.90652 0.41194 0.0
C501 C 0.39108 0.89778 0.3561 0.0
C502 C 0.431 0.91386 0.41858 0.0
O503 O 0.42045 0.93664 0.34397 0.0
C504 C 0.23511 0.18587 0.26972 0.0
C505 C 0.2463 0.18888 0.28678 0.0
C506 C 0.23195 0.19463 0.26359 0.0
C507 C 0.24333 0.22708 0.25265 0.0
H508 H 0.21147 0.21765 0.29314 0.0
C509 C 0.20739 0.24497 0.26802 0.0
C510 C 0.20833 0.24944 0.22397 0.0
C511 C 0.21437 0.24012 0.28167 0.0
C512 C 0.22047 0.22056 0.2824 0.0
H513 H 0.2632 0.20359 0.30868 0.0
H514 H 0.25765 0.21895 0.29792 0.0
H515 H 0.21884 0.20387 0.30286 0.0
H516 H 0.21825 0.25352 0.16134 0.0
H517 H 0.23023 0.24488 0.18483 0.0
H518 H 0.24488 0.24379 0.23186 0.0
C519 C 0.25133 0.20977 0.28934 0.0
C520 C 0.22463 0.21256 0.28731 0.0
C521 C 0.2545 0.20097 0.29554 0.0
C522 C 0.21722 0.25005 0.19541 0.0
C523 C 0.22415 0.24513 0.20898 0.0
C524 C 0.23915 0.23512 0.2476 0.0
C525 C 0.23991 0.20663 0.27439 0.0
C526 C 0.23599 0.21561 0.27167 0.0
C527 C 0.22239 0.23958 0.2515 0.0
C528 C 0.22759 0.23187 0.26181 0.0
H529 H 0.22862 0.17667 0.26219 0.0
H530 H 0.22318 0.19197 0.251 0.0
H531 H 0.25214 0.22969 0.24034 0.0
H532 H 0.20075 0.24453 0.29111 0.0
H533 H 0.21303 0.2362 0.31511 0.0
C534 C 0.78657 0.02849 0.28231 0.0
C535 C 0.78528 0.03586 0.25029 0.0
C536 C 0.77834 0.01623 0.28491 0.0
C537 C 0.75775 0.9909 0.29536 0.0
H538 H 0.74699 0.97507 0.18124 0.0
C539 C 0.73071 0.93941 0.28663 0.0
C540 C 0.73421 0.93434 0.25278 0.0
C541 C 0.73465 0.95168 0.28581 0.0
C542 C 0.74993 0.97933 0.2134 0.0
H543 H 0.77391 0.03623 0.19782 0.0
H544 H 0.75938 0.0149 0.20329 0.0
H545 H 0.75839 0.99681 0.18304 0.0
H546 H 0.74423 0.93814 0.1905 0.0
H547 H 0.75133 0.95948 0.18966 0.0
H548 H 0.74997 0.9734 0.32539 0.0
C549 C 0.76694 0.01853 0.22546 0.0
C550 C 0.75634 0.99184 0.21455 0.0
C551 C 0.77525 0.03078 0.22251 0.0
C552 C 0.74133 0.94172 0.21708 0.0
C553 C 0.74535 0.95399 0.21649 0.0
C554 C 0.75145 0.97838 0.29416 0.0
C555 C 0.76854 0.01104 0.25594 0.0
C556 C 0.76055 0.99779 0.25544 0.0
C557 C 0.74226 0.95918 0.25129 0.0
C558 C 0.74768 0.97244 0.25306 0.0
H559 H 0.7942 0.0321 0.30413 0.0
H560 H 0.77998 0.01074 0.3084 0.0
H561 H 0.76066 0.99516 0.32754 0.0
H562 H 0.72514 0.93396 0.31441 0.0
H563 H 0.7319 0.95532 0.31268 0.0
C564 C 0.96269 0.73465 0.35014 0.0
C565 C 0.95715 0.73518 0.31033 0.0
C566 C 0.97467 0.73791 0.34979 0.0
C567 C 0.00084 0.74571 0.27774 0.0
H568 H 0.01691 0.77326 0.35453 0.0
C569 C 0.04377 0.78747 0.22613 0.0
C570 C 0.05108 0.79583 0.25808 0.0
C571 C 0.03386 0.77667 0.23953 0.0
C572 C 0.01273 0.76541 0.33377 0.0
H573 H 0.95944 0.73825 0.2383 0.0
H574 H 0.98031 0.74383 0.23768 0.0
H575 H 0.99584 0.75947 0.36477 0.0
H576 H 0.05446 0.79882 0.32933 0.0
H577 H 0.03726 0.77975 0.35293 0.0
H578 H 0.01769 0.75184 0.24583 0.0
C579 C 0.97543 0.74098 0.26918 0.0
C580 C 0.00058 0.75749 0.33961 0.0
C581 C 0.96348 0.73785 0.26957 0.0
C582 C 0.0489 0.79264 0.30386 0.0
C583 C 0.03899 0.78173 0.31736 0.0
C584 C 0.01306 0.75353 0.27235 0.0
C585 C 0.98127 0.74158 0.30957 0.0
C586 C 0.99442 0.74791 0.3103 0.0
C587 C 0.03103 0.77386 0.28533 0.0
C588 C 0.01904 0.76384 0.29873 0.0
H589 H 0.95804 0.73253 0.3821 0.0
H590 H 0.97895 0.7382 0.38132 0.0
H591 H 0.99632 0.73829 0.25507 0.0
H592 H 0.04527 0.78955 0.19051 0.0
H593 H 0.02797 0.77098 0.21369 0.0
C594 C 0.83849 0.79167 0.82566 0.0
C595 C 0.83185 0.77907 0.82507 0.0
C596 C 0.83284 0.7983 0.83205 0.0
C597 C 0.8038 0.79584 0.86056 0.0
H598 H 0.81312 0.82033 0.76725 0.0
C599 C 0.77161 0.80944 0.78743 0.0
C600 C 0.77567 0.82168 0.7797 0.0
C601 C 0.77949 0.80562 0.80008 0.0
C602 C 0.81053 0.81367 0.794 0.0
H603 H 0.81426 0.76357 0.83506 0.0
H604 H 0.80443 0.77509 0.8454 0.0
H605 H 0.82533 0.81129 0.78125 0.0
H606 H 0.79129 0.83948 0.77841 0.0
H607 H 0.80511 0.83272 0.79993 0.0
H608 H 0.78868 0.79787 0.87168 0.0
C609 C 0.81399 0.77989 0.8412 0.0
C610 C 0.81755 0.80852 0.80223 0.0
C611 C 0.81964 0.77326 0.83504 0.0
C612 C 0.78787 0.82999 0.78403 0.0
C613 C 0.79578 0.82613 0.79638 0.0
C614 C 0.79674 0.80095 0.85213 0.0
C615 C 0.82045 0.79248 0.83786 0.0
C616 C 0.81409 0.7993 0.83478 0.0
C617 C 0.79162 0.81392 0.80504 0.0
C618 C 0.79988 0.80968 0.81793 0.0
H619 H 0.84795 0.79645 0.81877 0.0
H620 H 0.83811 0.808 0.83039 0.0
H621 H 0.801 0.78892 0.88639 0.0
H622 H 0.76229 0.80277 0.78443 0.0
H623 H 0.77607 0.79612 0.80563 0.0
C624 C 0.22756 0.05082 0.71781 0.0
C625 C 0.23318 0.05335 0.7598 0.0
C626 C 0.21963 0.03898 0.70591 0.0
C627 C 0.1999 0.00902 0.75303 0.0
H628 H 0.20501 0.99721 0.6411 0.0
C629 C 0.1866 0.96055 0.6798 0.0
C630 C 0.17443 0.95422 0.69086 0.0
C631 C 0.19305 0.97309 0.68105 0.0
C632 C 0.20347 0.00042 0.67232 0.0
H633 H 0.23462 0.04549 0.8227 0.0
H634 H 0.2206 0.02488 0.80222 0.0
H635 H 0.21752 0.01845 0.65927 0.0
H636 H 0.15932 0.9562 0.70835 0.0
H637 H 0.17059 0.97796 0.71066 0.0
H638 H 0.18602 0.99104 0.76661 0.0
C639 C 0.2224 0.03204 0.77846 0.0
C640 C 0.21055 0.01255 0.68256 0.0
C641 C 0.23046 0.04384 0.79008 0.0
C642 C 0.16871 0.96074 0.70019 0.0
C643 C 0.17516 0.97322 0.70168 0.0
C644 C 0.19274 0.99696 0.74256 0.0
C645 C 0.21703 0.02949 0.73608 0.0
C646 C 0.20894 0.01691 0.72335 0.0
C647 C 0.18745 0.9795 0.69355 0.0
C648 C 0.19454 0.9925 0.70238 0.0
H649 H 0.22952 0.05795 0.69365 0.0
H650 H 0.21554 0.03723 0.67314 0.0
H651 H 0.19845 0.01217 0.78457 0.0
H652 H 0.19128 0.95583 0.67229 0.0
H653 H 0.20254 0.97771 0.67472 0.0
C654 C 0.041 0.2122 0.73443 0.0
C655 C 0.04806 0.22471 0.729 0.0
C656 C 0.02864 0.20666 0.736 0.0
C657 C 0.00474 0.21269 0.76368 0.0
H658 H 0.98477 0.18235 0.70592 0.0
C659 C 0.95324 0.18923 0.75898 0.0
C660 C 0.94686 0.17663 0.76192 0.0
C661 C 0.96566 0.19548 0.75648 0.0
C662 C 0.99022 0.19074 0.72277 0.0
H663 H 0.04757 0.24116 0.71948 0.0
H664 H 0.02594 0.23142 0.72202 0.0
H665 H 0.00621 0.19256 0.69519 0.0
H666 H 0.94856 0.1608 0.76761 0.0
H667 H 0.97014 0.17168 0.76426 0.0
H668 H 0.98872 0.2108 0.79161 0.0
C669 C 0.03003 0.22595 0.72555 0.0
C670 C 0.00251 0.19661 0.71644 0.0
C671 C 0.04242 0.2315 0.72372 0.0
C672 C 0.95318 0.17049 0.7648 0.0
C673 C 0.96557 0.17672 0.76253 0.0
C674 C 0.99242 0.2068 0.77013 0.0
C675 C 0.02302 0.21349 0.73232 0.0
C676 C 0.00991 0.20761 0.73708 0.0
C677 C 0.97194 0.18926 0.75708 0.0
C678 C 0.98503 0.19569 0.75006 0.0
H679 H 0.04503 0.20668 0.73856 0.0
H680 H 0.02349 0.19705 0.74161 0.0
H681 H 0.01023 0.22108 0.78049 0.0
H682 H 0.94865 0.19425 0.75658 0.0
H683 H 0.9703 0.20513 0.75217 0.0
C684 C 0.87301 0.57073 0.58817 0.0
C685 C 0.86895 0.56619 0.54519 0.0
C686 C 0.88145 0.56872 0.60957 0.0
C687 C 0.90203 0.55684 0.58965 0.0
H688 H 0.89245 0.5436 0.71008 0.0
C689 C 0.91967 0.52801 0.66958 0.0
C690 C 0.9111 0.51763 0.69248 0.0
C691 C 0.91728 0.53711 0.65785 0.0
C692 C 0.89524 0.54725 0.6764 0.0
H693 H 0.87116 0.55679 0.48964 0.0
H694 H 0.8855 0.55312 0.52671 0.0
H695 H 0.8837 0.55451 0.67577 0.0
H696 H 0.89337 0.50869 0.72155 0.0
H697 H 0.88899 0.52419 0.6995 0.0
H698 H 0.91273 0.54867 0.58856 0.0
C699 C 0.88239 0.55833 0.54413 0.0
C700 C 0.89037 0.55371 0.65699 0.0
C701 C 0.87401 0.56031 0.52297 0.0
C702 C 0.90017 0.5166 0.70399 0.0
C703 C 0.89772 0.52559 0.69176 0.0
C704 C 0.90675 0.55023 0.60875 0.0
C705 C 0.886 0.56221 0.58814 0.0
C706 C 0.8933 0.55811 0.6126 0.0
C707 C 0.9062 0.53594 0.66826 0.0
C708 C 0.90302 0.5449 0.65165 0.0
H709 H 0.86929 0.57535 0.606 0.0
H710 H 0.88415 0.57194 0.64331 0.0
H711 H 0.90472 0.56038 0.55578 0.0
H712 H 0.92823 0.52912 0.66075 0.0
H713 H 0.92409 0.54502 0.64036 0.0
C714 C 0.41814 0.30802 0.5839 0.0
C715 C 0.41942 0.30306 0.54414 0.0
C716 C 0.42081 0.31994 0.58445 0.0
C717 C 0.43973 0.34817 0.52211 0.0
H718 H 0.42692 0.36096 0.60839 0.0
C719 C 0.46231 0.39868 0.54874 0.0
C720 C 0.46535 0.40183 0.5938 0.0
C721 C 0.45386 0.38693 0.53781 0.0
C722 C 0.43053 0.3575 0.58395 0.0
H723 H 0.42343 0.30632 0.4729 0.0
H724 H 0.42766 0.32696 0.47344 0.0
H725 H 0.41682 0.33934 0.59669 0.0
H726 H 0.46117 0.39533 0.66285 0.0
H727 H 0.44651 0.37486 0.64368 0.0
H728 H 0.45356 0.36624 0.51012 0.0
C729 C 0.42504 0.32182 0.50463 0.0
C730 C 0.42479 0.34512 0.57735 0.0
C731 C 0.42255 0.30996 0.50425 0.0
C732 C 0.45913 0.39319 0.62777 0.0
C733 C 0.45065 0.38147 0.61682 0.0
C734 C 0.44538 0.3605 0.52839 0.0
C735 C 0.42466 0.32711 0.54508 0.0
C736 C 0.42952 0.34028 0.54726 0.0
C737 C 0.44823 0.37812 0.5717 0.0
C738 C 0.44103 0.36528 0.56022 0.0
H739 H 0.41575 0.30292 0.61521 0.0
H740 H 0.42052 0.3237 0.61634 0.0
H741 H 0.4438 0.34481 0.49929 0.0
H742 H 0.46684 0.40512 0.52171 0.0
H743 H 0.45206 0.38462 0.50275 0.0
C744 C 0.69863 0.123 0.5545 0.0
C745 C 0.70501 0.13327 0.58066 0.0
C746 C 0.68655 0.11511 0.5628 0.0
C747 C 0.66052 0.10819 0.56285 0.0
H748 H 0.64554 0.1002 0.6806 0.0
C749 C 0.61426 0.10165 0.59831 0.0
C750 C 0.6069 0.09303 0.63054 0.0
C751 C 0.6257 0.10373 0.58988 0.0
C752 C 0.64956 0.10218 0.64742 0.0
H753 H 0.70398 0.14271 0.63848 0.0
H754 H 0.68295 0.12896 0.65299 0.0
H755 H 0.66697 0.10851 0.67397 0.0
H756 H 0.60554 0.07935 0.67749 0.0
H757 H 0.62554 0.08303 0.6628 0.0
H758 H 0.64318 0.10223 0.5364 0.0
C759 C 0.68725 0.12701 0.62599 0.0
C760 C 0.66184 0.10702 0.64369 0.0
C761 C 0.6993 0.13493 0.61752 0.0
C762 C 0.611 0.08611 0.65257 0.0
C763 C 0.62248 0.08825 0.64436 0.0
C764 C 0.64826 0.10342 0.56661 0.0
C765 C 0.68064 0.11728 0.59766 0.0
C766 C 0.66749 0.11035 0.60144 0.0
C767 C 0.63003 0.09726 0.61365 0.0
C768 C 0.64269 0.10065 0.60901 0.0
H769 H 0.70278 0.12141 0.52597 0.0
H770 H 0.68171 0.10758 0.54083 0.0
H771 H 0.66461 0.11077 0.52983 0.0
H772 H 0.61136 0.10711 0.58066 0.0
H773 H 0.63134 0.11081 0.56627 0.0
C774 C 0.47089 0.10767 0.12971 0.0
C775 C 0.48275 0.11109 0.1202 0.0
C776 C 0.46645 0.11516 0.11809 0.0
C777 C 0.46002 0.13431 0.11147 0.0
H778 H 0.47016 0.15329 0.00106 0.0
C779 C 0.43417 0.1552 0.03566 0.0
C780 C 0.44075 0.16779 0.03237 0.0
C781 C 0.43991 0.14865 0.04225 0.0
C782 C 0.4673 0.14804 0.032 0.0
H783 H 0.49935 0.12523 0.09182 0.0
H784 H 0.49173 0.13859 0.07312 0.0
H785 H 0.47917 0.14131 0.02297 0.0
H786 H 0.45856 0.18327 0.02995 0.0
H787 H 0.46859 0.17169 0.04032 0.0
H788 H 0.44784 0.1407 0.11945 0.0
C789 C 0.48575 0.12993 0.08846 0.0
C790 C 0.47251 0.14125 0.04482 0.0
C791 C 0.49016 0.12232 0.09951 0.0
C792 C 0.45324 0.1736 0.03261 0.0
C793 C 0.45899 0.16699 0.03841 0.0
C794 C 0.45468 0.14088 0.09821 0.0
C795 C 0.4738 0.1264 0.09734 0.0
C796 C 0.46884 0.1342 0.08458 0.0
C797 C 0.45234 0.15452 0.0448 0.0
C798 C 0.45821 0.14772 0.05826 0.0
H799 H 0.46487 0.09902 0.14504 0.0
H800 H 0.45714 0.11195 0.12451 0.0
H801 H 0.45718 0.1293 0.14291 0.0
H802 H 0.42455 0.15044 0.03567 0.0
H803 H 0.43462 0.13901 0.04679 0.0
C804 C 0.85458 0.29085 0.00454 0.0
C805 C 0.84252 0.28442 0.01706 0.0
C806 C 0.86107 0.30333 0.00771 0.0
C807 C 0.87379 0.32664 0.05722 0.0
H808 H 0.86122 0.34796 0.03957 0.0
C809 C 0.89467 0.37174 0.14461 0.0
C810 C 0.89664 0.38177 0.11871 0.0
C811 C 0.8875 0.36018 0.12862 0.0
C812 C 0.86489 0.34214 0.04435 0.0
H813 H 0.82759 0.2862 0.03894 0.0
H814 H 0.83892 0.30783 0.0452 0.0
H815 H 0.85027 0.32754 0.01139 0.0
H816 H 0.89205 0.38747 0.05665 0.0
H817 H 0.87959 0.36725 0.02862 0.0
H818 H 0.88843 0.34119 0.08986 0.0
C819 C 0.84338 0.30329 0.03272 0.0
C820 C 0.85859 0.33043 0.02847 0.0
C821 C 0.83689 0.29083 0.0294 0.0
C822 C 0.89073 0.37994 0.07749 0.0
C823 C 0.88358 0.36835 0.0614 0.0
C824 C 0.88008 0.33832 0.073 0.0
C825 C 0.85565 0.30964 0.02355 0.0
C826 C 0.86289 0.32249 0.03532 0.0
C827 C 0.88215 0.35837 0.08626 0.0
C828 C 0.87561 0.34614 0.06751 0.0
H829 H 0.85918 0.28622 0.99441 0.0
H830 H 0.87046 0.308 -0.00058 0.0
H831 H 0.87731 0.32075 0.06367 0.0
H832 H 0.89896 0.3728 0.17673 0.0
H833 H 0.88632 0.35265 0.14912 0.0
C834 C 0.62513 0.50449 0.14073 0.0
C835 C 0.62095 0.51199 0.15563 0.0
C836 C 0.63722 0.50918 0.13153 0.0
C837 C 0.66708 0.53644 0.14527 0.0
H838 H 0.67446 0.52595 0.03474 0.0
C839 C 0.71262 0.56348 0.05897 0.0
C840 C 0.71839 0.55695 0.05145 0.0
C841 C 0.70049 0.55752 0.06938 0.0
C842 C 0.6725 0.52892 0.06573 0.0
H843 H 0.62636 0.53015 0.17544 0.0
H844 H 0.6472 0.53828 0.1586 0.0
H845 H 0.65398 0.51593 0.06257 0.0
H846 H 0.71582 0.53907 0.04533 0.0
H847 H 0.69457 0.5287 0.0625 0.0
H848 H 0.68556 0.54967 0.14751 0.0
C849 C 0.64125 0.52877 0.15437 0.0
C850 C 0.66081 0.52312 0.08197 0.0
C851 C 0.62922 0.52409 0.16382 0.0
C852 C 0.71162 0.54435 0.05121 0.0
C853 C 0.69947 0.5384 0.06095 0.0
C854 C 0.67871 0.54232 0.1287 0.0
C855 C 0.64537 0.52146 0.13694 0.0
C856 C 0.65794 0.52689 0.12177 0.0
C857 C 0.6939 0.54494 0.0717 0.0
C858 C 0.68151 0.53869 0.08861 0.0
H859 H 0.61901 0.49511 0.1343 0.0
H860 H 0.64013 0.50324 0.11909 0.0
H861 H 0.66526 0.53943 0.17648 0.0
H862 H 0.71758 0.57319 0.05952 0.0
H863 H 0.69634 0.56275 0.07701 0.0
C864 C 0.54462 0.91941 0.86128 0.0
C865 C 0.53656 0.91638 0.89735 0.0
C866 C 0.55465 0.91823 0.86576 0.0
C867 C 0.56457 0.90147 0.87702 0.0
H868 H 0.58586 0.90928 0.97785 0.0
C869 C 0.58565 0.87294 0.91016 0.0
C870 C 0.585 0.86933 0.95526 0.0
C871 C 0.58462 0.88293 0.89883 0.0
C872 C 0.57995 0.90696 0.94949 0.0
H873 H 0.53344 0.91108 0.96774 0.0
H874 H 0.55107 0.90917 0.97561 0.0
H875 H 0.57448 0.91947 0.96808 0.0
H876 H 0.58386 0.87396 0.02404 0.0
H877 H 0.58141 0.89078 0.0046 0.0
H878 H 0.56893 0.88821 0.86042 0.0
C879 C 0.54954 0.91235 0.94383 0.0
C880 C 0.57353 0.91289 0.94379 0.0
C881 C 0.53941 0.91337 0.93923 0.0
C882 C 0.58434 0.87647 0.9889 0.0
C883 C 0.58302 0.88625 0.9776 0.0
C884 C 0.57075 0.89536 0.88323 0.0
C885 C 0.55692 0.91421 0.90654 0.0
C886 C 0.56552 0.90993 0.90822 0.0
C887 C 0.58258 0.8893 0.93232 0.0
C888 C 0.57821 0.89768 0.9205 0.0
H889 H 0.54276 0.92187 0.82862 0.0
H890 H 0.56026 0.9198 0.83662 0.0
H891 H 0.55835 0.89891 0.84956 0.0
H892 H 0.58637 0.86772 0.88353 0.0
H893 H 0.58479 0.88524 0.86364 0.0
C894 C 0.08719 0.63099 0.88121 0.0
C895 C 0.08798 0.62476 0.91876 0.0
C896 C 0.08823 0.64221 0.88603 0.0
C897 C 0.09098 0.66456 0.9717 0.0
H898 H 0.10956 0.68703 0.87629 0.0
C899 C 0.12381 0.71539 0.98779 0.0
C900 C 0.12481 0.72285 0.95109 0.0
C901 C 0.11552 0.70312 0.9872 0.0
C902 C 0.10415 0.68084 0.90286 0.0
H903 H 0.09011 0.6251 0.99091 0.0
H904 H 0.09272 0.645 0.9992 0.0
H905 H 0.10257 0.66596 0.86742 0.0
H906 H 0.11684 0.72354 0.88785 0.0
H907 H 0.10251 0.70216 0.88686 0.0
H908 H 0.09355 0.67988 0.00833 0.0
C909 C 0.09084 0.64113 0.96615 0.0
C910 C 0.10007 0.66869 0.89776 0.0
C911 C 0.08945 0.62975 0.96143 0.0
C912 C 0.11648 0.71803 0.91629 0.0
C913 C 0.10825 0.70578 0.91566 0.0
C914 C 0.09529 0.67682 0.97714 0.0
C915 C 0.0905 0.64763 0.92835 0.0
C916 C 0.09359 0.66037 0.93234 0.0
C917 C 0.10813 0.69814 0.94993 0.0
C918 C 0.10204 0.68507 0.94292 0.0
H919 H 0.08583 0.62722 0.84802 0.0
H920 H 0.08753 0.64674 0.8563 0.0
H921 H 0.08583 0.65843 0.99875 0.0
H922 H 0.13001 0.71883 0.01534 0.0
H923 H 0.11561 0.69741 0.01405 0.0
C924 C 0.29214 0.40559 0.98918 0.0
C925 C 0.28363 0.40457 0.95792 0.0
C926 C 0.30337 0.40811 0.97486 0.0
C927 C 0.32316 0.42284 0.8768 0.0
H928 H 0.34578 0.42052 0.9548 0.0
C929 C 0.37265 0.45257 0.84419 0.0
C930 C 0.3777 0.46072 0.87943 0.0
C931 C 0.36195 0.44183 0.8507 0.0
C932 C 0.33952 0.42108 0.93239 0.0
H933 H 0.27964 0.40389 0.8871 0.0
H934 H 0.29897 0.40748 0.86179 0.0
H935 H 0.3245 0.4075 0.96881 0.0
H936 H 0.37623 0.46336 0.95037 0.0
H937 H 0.3576 0.44447 0.9618 0.0
H938 H 0.33821 0.43645 0.84065 0.0
C939 C 0.29727 0.40703 0.89753 0.0
C940 C 0.32733 0.41372 0.94056 0.0
C941 C 0.28612 0.40484 0.91194 0.0
C942 C 0.37251 0.45732 0.92246 0.0
C943 C 0.36188 0.44648 0.92909 0.0
C944 C 0.3353 0.42994 0.86805 0.0
C945 C 0.30629 0.4094 0.9288 0.0
C946 C 0.31897 0.41491 0.91415 0.0
C947 C 0.35623 0.43894 0.89273 0.0
C948 C 0.34359 0.42948 0.89679 0.0
H949 H 0.29049 0.40541 0.02492 0.0
H950 H 0.30997 0.40993 0.00028 0.0
H951 H 0.31718 0.42427 0.85592 0.0
H952 H 0.37647 0.45485 0.81069 0.0
H953 H 0.35778 0.43611 0.82224 0.0
C954 C 0.11543 0.4933 0.35547 0.0
C955 C 0.10403 0.48911 0.37326 0.0
C956 C 0.1209 0.48642 0.35985 0.0
C957 C 0.1155 0.45618 0.39901 0.0
H958 H 0.14972 0.47407 0.41101 0.0
C959 C 0.15806 0.44989 0.45389 0.0
C960 C 0.15391 0.43836 0.43741 0.0
C961 C 0.15133 0.45549 0.44863 0.0
C962 C 0.14014 0.46888 0.40877 0.0
H963 H 0.08926 0.47442 0.40886 0.0
H964 H 0.09899 0.46274 0.41919 0.0
H965 H 0.13924 0.48466 0.3959 0.0
H966 H 0.13947 0.42355 0.40294 0.0
H967 H 0.12809 0.43349 0.39113 0.0
H968 H 0.11632 0.4405 0.41557 0.0
C969 C 0.10363 0.47106 0.40006 0.0
C970 C 0.1341 0.47498 0.39879 0.0
C971 C 0.09802 0.47778 0.39434 0.0
C972 C 0.1428 0.4324 0.41652 0.0
C973 C 0.13624 0.43813 0.40994 0.0
C974 C 0.12151 0.45011 0.41035 0.0
C975 C 0.11526 0.47537 0.38366 0.0
C976 C 0.12169 0.46874 0.39341 0.0
C977 C 0.14049 0.44986 0.42527 0.0
C978 C 0.13394 0.45635 0.41512 0.0
H979 H 0.1202 0.502 0.33878 0.0
H980 H 0.12966 0.48991 0.34524 0.0
H981 H 0.10599 0.45096 0.39453 0.0
H982 H 0.16658 0.45463 0.47038 0.0
H983 H 0.15477 0.46433 0.46235 0.0
C984 C 0.51939 0.62564 0.37843 0.0
C985 C 0.52091 0.6162 0.39417 0.0
C986 C 0.52863 0.63751 0.38139 0.0
C987 C 0.5511 0.65621 0.45601 0.0
H988 H 0.56329 0.68018 0.36002 0.0
C989 C 0.56553 0.7063 0.46896 0.0
C990 C 0.57644 0.71468 0.44911 0.0
C991 C 0.56139 0.69404 0.46625 0.0
C992 C 0.56011 0.67354 0.38704 0.0
H993 H 0.5334 0.61172 0.42397 0.0
H994 H 0.54944 0.63259 0.43061 0.0
H995 H 0.5509 0.6589 0.34197 0.0
H996 H 0.59181 0.7169 0.41252 0.0
H997 H 0.58432 0.69533 0.40638 0.0
H998 H 0.55952 0.67092 0.50126 0.0
C999 C 0.54116 0.63072 0.41521 0.0
C1000 C 0.55301 0.66143 0.37672 0.0
C1001 C 0.53202 0.61882 0.41115 0.0
C1002 C 0.58345 0.71062 0.42862 0.0
C1003 C 0.57914 0.69832 0.42482 0.0
C1004 C 0.55796 0.66835 0.46639 0.0
C1005 C 0.53944 0.64015 0.40113 0.0
C1006 C 0.5483 0.6527 0.41118 0.0
C1007 C 0.56795 0.68995 0.44265 0.0
C1008 C 0.56236 0.67711 0.43199 0.0
H1009 H 0.51091 0.62386 0.36531 0.0
H1010 H 0.52709 0.64466 0.37059 0.0
H1011 H 0.54744 0.64961 0.48311 0.0
H1012 H 0.55995 0.70923 0.48468 0.0
H1013 H 0.55269 0.68774 0.47995 0.0
C1014 C 0.37363 0.901 0.35138 0.0
C1015 C 0.37826 0.89325 0.34925 0.0
C1016 C 0.36134 0.89639 0.35211 0.0
C1017 C 0.33245 0.86877 0.33162 0.0
H1018 H 0.32056 0.88042 0.4261 0.0
C1019 C 0.28399 0.8578 0.4037 0.0
C1020 C 0.2786 0.84524 0.40677 0.0
C1021 C 0.29622 0.86492 0.39527 0.0
C1022 C 0.32376 0.87719 0.39922 0.0
H1023 H 0.3736 0.87465 0.3435 0.0
H1024 H 0.35231 0.86667 0.34495 0.0
H1025 H 0.34188 0.89079 0.40932 0.0
H1026 H 0.28201 0.83041 0.40629 0.0
H1027 H 0.30317 0.84278 0.3917 0.0
H1028 H 0.31441 0.85493 0.32264 0.0
C1029 C 0.35812 0.8763 0.34589 0.0
C1030 C 0.33594 0.88314 0.38944 0.0
C1031 C 0.37035 0.88089 0.34533 0.0
C1032 C 0.2858 0.84003 0.40362 0.0
C1033 C 0.29793 0.84711 0.39495 0.0
C1034 C 0.32033 0.86281 0.34158 0.0
C1035 C 0.35345 0.88396 0.35035 0.0
C1036 C 0.34044 0.8788 0.35629 0.0
C1037 C 0.30321 0.85958 0.38948 0.0
C1038 C 0.3159 0.86676 0.37623 0.0
H1039 H 0.37947 0.91058 0.35441 0.0
H1040 H 0.35801 0.90253 0.35499 0.0
H1041 H 0.33559 0.86535 0.30526 0.0
H1042 H 0.27872 0.86211 0.40602 0.0
H1043 H 0.30011 0.87453 0.39141 0.0
C1044 C 0.12396 0.2587 0.79152 0.0
C1045 C 0.11173 0.25069 0.79765 0.0
C1046 C 0.13229 0.25649 0.81254 0.0
C1047 C 0.13513 0.23279 0.87503 0.0
H1048 H 0.15967 0.25958 0.94019 0.0
C1049 C 0.15061 0.22936 0.04988 0.0
C1050 C 0.16265 0.23628 0.06086 0.0
C1051 C 0.14677 0.23011 0.00696 0.0
C1052 C 0.15308 0.25206 0.92134 0.0
H1053 H 0.09866 0.23405 0.83017 0.0
H1054 H 0.11305 0.23033 0.86725 0.0
H1055 H 0.14828 0.26316 0.88353 0.0
H1056 H 0.18024 0.24908 0.03555 0.0
H1057 H 0.1734 0.2507 0.96029 0.0
H1058 H 0.13936 0.22162 0.91562 0.0
C1059 C 0.11629 0.23815 0.8454 0.0
C1060 C 0.14654 0.2541 0.88884 0.0
C1061 C 0.108 0.24034 0.82438 0.0
C1062 C 0.1709 0.24359 0.02766 0.0
C1063 C 0.16701 0.24455 0.98482 0.0
C1064 C 0.14159 0.23075 0.90784 0.0
C1065 C 0.12853 0.24624 0.84013 0.0
C1066 C 0.13714 0.24442 0.86678 0.0
C1067 C 0.15487 0.23797 0.97446 0.0
C1068 C 0.15027 0.24032 0.93252 0.0
H1069 H 0.1271 0.26672 0.77085 0.0
H1070 H 0.14165 0.26285 0.80758 0.0
H1071 H 0.12815 0.22517 0.85778 0.0
H1072 H 0.14409 0.22366 0.07497 0.0
H1073 H 0.13734 0.22507 5e-05 0.0
C1074 C 0.74909 0.9043 0.03588 0.0
C1075 C 0.73978 0.90234 0.06501 0.0
C1076 C 0.74668 0.90001 0.99208 0.0
C1077 C 0.72303 0.87471 0.93464 0.0
H1078 H 0.7445 0.888 0.83254 0.0
C1079 C 0.72198 0.84354 0.79908 0.0
C1080 C 0.73329 0.84498 0.79205 0.0
C1081 C 0.72081 0.85265 0.81896 0.0
C1082 C 0.73835 0.88418 0.86062 0.0
H1083 H 0.72077 0.8954 0.06962 0.0
H1084 H 0.71662 0.88795 0.99329 0.0
H1085 H 0.74643 0.9009 0.89496 0.0
H1086 H 0.75221 0.85753 0.79681 0.0
H1087 H 0.75022 0.87315 0.83141 0.0
H1088 H 0.7155 0.85784 0.90232 0.0
C1089 C 0.72574 0.89261 0.00454 0.0
C1090 C 0.73947 0.89157 0.89632 0.0
C1091 C 0.72814 0.8969 0.04827 0.0
C1092 C 0.74336 0.85605 0.8018 0.0
C1093 C 0.7422 0.86512 0.82145 0.0
C1094 C 0.72198 0.86731 0.89919 0.0
C1095 C 0.73492 0.89369 0.97658 0.0
C1096 C 0.73214 0.88679 0.93454 0.0
C1097 C 0.73093 0.86337 0.83201 0.0
C1098 C 0.72998 0.87183 0.86273 0.0
H1099 H 0.75816 0.90853 0.04763 0.0
H1100 H 0.75395 0.90092 0.97149 0.0
H1101 H 0.7173 0.8707 0.96373 0.0
H1102 H 0.71404 0.83514 0.79161 0.0
H1103 H 0.71198 0.85109 0.82607 0.0
C1104 C 0.07595 0.85117 0.02672 0.0
C1105 C 0.07127 0.8391 0.03933 0.0
C1106 C 0.08134 0.85535 0.98477 0.0
C1107 C 0.08973 0.86136 0.88787 0.0
H1108 H 0.11555 0.85488 0.87394 0.0
C1109 C 0.13598 0.879 0.77769 0.0
C1110 C 0.14025 0.89135 0.78102 0.0
C1111 C 0.12546 0.87068 0.79976 0.0
C1112 C 0.10824 0.85658 0.87647 0.0
H1113 H 0.06791 0.82176 0.01728 0.0
H1114 H 0.07758 0.82914 0.9439 0.0
H1115 H 0.09976 0.84326 0.92847 0.0
H1116 H 0.13695 0.90466 0.81048 0.0
H1117 H 0.11883 0.89028 0.84916 0.0
H1118 H 0.09842 0.87498 0.8371 0.0
C1119 C 0.07699 0.83533 0.96645 0.0
C1120 C 0.09918 0.84991 0.90772 0.0
C1121 C 0.07141 0.8311 0.00826 0.0
C1122 C 0.13381 0.89521 0.80667 0.0
C1123 C 0.12336 0.88695 0.82864 0.0
C1124 C 0.09873 0.86797 0.85642 0.0
C1125 C 0.08229 0.84755 0.95489 0.0
C1126 C 0.09012 0.85258 0.91495 0.0
C1127 C 0.11904 0.87459 0.82552 0.0
C1128 C 0.10835 0.866 0.8518 0.0
H1129 H 0.07593 0.85751 0.05007 0.0
H1130 H 0.08546 0.86484 0.97696 0.0
H1131 H 0.08275 0.86349 0.89246 0.0
H1132 H 0.14074 0.87576 0.75798 0.0
H1133 H 0.12234 0.86121 0.79666 0.0
C1134 C 0.28945 0.12012 0.73531 0.0
C1135 C 0.28213 0.11651 0.77361 0.0
C1136 C 0.28978 0.12882 0.70589 0.0
C1137 C 0.28935 0.14888 0.65001 0.0
H1138 H 0.25653 0.13648 0.61551 0.0
C1139 C 0.27281 0.16686 0.50074 0.0
C1140 C 0.26615 0.15786 0.46966 0.0
C1141 C 0.27589 0.16394 0.54213 0.0
C1142 C 0.26572 0.14013 0.62512 0.0
H1143 H 0.27002 0.11956 0.81317 0.0
H1144 H 0.27051 0.13476 0.76162 0.0
H1145 H 0.26099 0.12898 0.68413 0.0
H1146 H 0.25745 0.13879 0.4575 0.0
H1147 H 0.26251 0.13367 0.53034 0.0
H1148 H 0.294 0.1598 0.5899 0.0
C1149 C 0.27611 0.13099 0.75452 0.0
C1150 C 0.26828 0.13594 0.66456 0.0
C1151 C 0.27591 0.1224 0.7842 0.0
C1152 C 0.2626 0.14591 0.48074 0.0
C1153 C 0.26545 0.14297 0.5224 0.0
C1154 C 0.28676 0.15325 0.61085 0.0
C1155 C 0.28258 0.13383 0.71398 0.0
C1156 C 0.28012 0.14004 0.67684 0.0
C1157 C 0.27211 0.15195 0.55342 0.0
C1158 C 0.27493 0.14864 0.59753 0.0
H1159 H 0.29408 0.11545 0.72605 0.0
H1160 H 0.29476 0.13074 0.67474 0.0
H1161 H 0.29854 0.15215 0.65865 0.0
H1162 H 0.27571 0.17616 0.49294 0.0
H1163 H 0.28103 0.171 0.56562 0.0
C1164 C 0.84865 0.08096 0.41771 0.0
C1165 C 0.83653 0.0756 0.40752 0.0
C1166 C 0.85277 0.08583 0.45985 0.0
C1167 C 0.86014 0.09385 0.55418 0.0
H1168 H 0.84576 0.11156 0.59988 0.0
C1169 C 0.88401 0.12946 0.688 0.0
C1170 C 0.88388 0.14016 0.68135 0.0
C1171 C 0.87612 0.11916 0.66486 0.0
C1172 C 0.84994 0.10673 0.58749 0.0
H1173 H 0.81908 0.0702 0.43477 0.0
H1174 H 0.82623 0.07834 0.50908 0.0
H1175 H 0.83623 0.09756 0.53959 0.0
H1176 H 0.87516 0.14846 0.647 0.0
H1177 H 0.86184 0.13078 0.60475 0.0
H1178 H 0.8744 0.1038 0.59902 0.0
C1179 C 0.83262 0.07916 0.48397 0.0
C1180 C 0.84433 0.09849 0.55332 0.0
C1181 C 0.8285 0.07441 0.44147 0.0
C1182 C 0.87541 0.14029 0.6527 0.0
C1183 C 0.86771 0.13008 0.62876 0.0
C1184 C 0.86586 0.10226 0.58768 0.0
C1185 C 0.84486 0.0853 0.49319 0.0
C1186 C 0.84958 0.09225 0.53511 0.0
C1187 C 0.86812 0.11943 0.63378 0.0
C1188 C 0.86104 0.10911 0.60376 0.0
H1189 H 0.85509 0.08202 0.39236 0.0
H1190 H 0.86227 0.09062 0.46517 0.0
H1191 H 0.86429 0.08898 0.54192 0.0
H1192 H 0.89022 0.12903 0.71089 0.0
H1193 H 0.87649 0.11106 0.67073 0.0
C1194 C 0.86659 0.76261 0.66648 0.0
C1195 C 0.85793 0.75096 0.68016 0.0
C1196 C 0.87586 0.76444 0.63787 0.0
C1197 C 0.88934 0.76537 0.55437 0.0
H1198 H 0.90179 0.74371 0.55474 0.0
C1199 C 0.91045 0.75835 0.39872 0.0
C1200 C 0.91939 0.75539 0.40325 0.0
C1201 C 0.90498 0.75971 0.43649 0.0
C1202 C 0.8986 0.75 0.55462 0.0
H1203 H 0.85213 0.73208 0.67427 0.0
H1204 H 0.86797 0.73523 0.6228 0.0
H1205 H 0.88855 0.74235 0.61503 0.0
H1206 H 0.93013 0.75223 0.45092 0.0
H1207 H 0.92071 0.75486 0.51733 0.0
H1208 H 0.89953 0.77315 0.49443 0.0
C1209 C 0.86788 0.743 0.63538 0.0
C1210 C 0.89085 0.74908 0.58882 0.0
C1211 C 0.85871 0.74118 0.66453 0.0
C1212 C 0.92319 0.75442 0.44643 0.0
C1213 C 0.91775 0.75585 0.48441 0.0
C1214 C 0.8972 0.76638 0.52054 0.0
C1215 C 0.87655 0.75466 0.62157 0.0
C1216 C 0.88586 0.75653 0.58838 0.0
C1217 C 0.90842 0.75827 0.47981 0.0
C1218 C 0.90163 0.75847 0.51948 0.0
H1219 H 0.86622 0.77034 0.67746 0.0
H1220 H 0.88245 0.77355 0.6284 0.0
H1221 H 0.88564 0.77121 0.55268 0.0
H1222 H 0.90746 0.75937 0.36591 0.0
H1223 H 0.89774 0.76142 0.43157 0.0
C1224 C 0.8776 0.76048 0.86723 0.0
C1225 C 0.86513 0.75382 0.86491 0.0
C1226 C 0.88365 0.7575 0.8988 0.0
C1227 C 0.87983 0.73296 0.97675 0.0
H1228 H 0.90626 0.75882 0.03874 0.0
C1229 C 0.89455 0.72924 0.15443 0.0
C1230 C 0.90663 0.73596 0.16545 0.0
C1231 C 0.8908 0.7297 0.111 0.0
C1232 C 0.89907 0.75148 0.02107 0.0
H1233 H 0.84925 0.73884 0.89432 0.0
H1234 H 0.85977 0.73388 0.95037 0.0
H1235 H 0.89688 0.76346 0.97726 0.0
H1236 H 0.92437 0.74776 0.13919 0.0
H1237 H 0.91776 0.74871 0.06288 0.0
H1238 H 0.88169 0.72103 0.02244 0.0
C1239 C 0.86491 0.74122 0.92697 0.0
C1240 C 0.89366 0.75414 0.98583 0.0
C1241 C 0.85886 0.74414 0.89511 0.0
C1242 C 0.91501 0.74245 0.13145 0.0
C1243 C 0.91122 0.74306 0.08798 0.0
C1244 C 0.88519 0.73031 0.01228 0.0
C1245 C 0.87739 0.74784 0.92915 0.0
C1246 C 0.8838 0.74493 0.96386 0.0
C1247 C 0.89904 0.73703 0.07784 0.0
C1248 C 0.8947 0.73956 0.0354 0.0
H1249 H 0.88274 0.76791 0.84417 0.0
H1250 H 0.89326 0.76269 0.89906 0.0
H1251 H 0.87243 0.72562 0.95991 0.0
H1252 H 0.88792 0.72414 0.18006 0.0
H1253 H 0.88135 0.72501 0.10436 0.0
C1254 C 0.24327 0.1092 0.88676 0.0
C1255 C 0.2446 0.09908 0.89084 0.0
C1256 C 0.24146 0.11429 0.92503 0.0
C1257 C 0.23403 0.10882 0.04728 0.0
H1258 H 0.25616 0.14291 0.05744 0.0
C1259 C 0.25226 0.13093 0.21596 0.0
C1260 C 0.25362 0.14223 0.2245 0.0
C1261 C 0.24884 0.12585 0.17369 0.0
C1262 C 0.24976 0.13343 0.0549 0.0
H1263 H 0.24427 0.08589 0.93775 0.0
H1264 H 0.24111 0.09467 0.00394 0.0
H1265 H 0.25361 0.1333 0.98507 0.0
H1266 H 0.25238 0.15703 0.19501 0.0
H1267 H 0.24657 0.14816 0.12051 0.0
H1268 H 0.23061 0.10886 0.11756 0.0
C1269 C 0.24142 0.09872 0.97147 0.0
C1270 C 0.24827 0.12792 0.01339 0.0
C1271 C 0.24332 0.09371 0.93345 0.0
C1272 C 0.25142 0.14831 0.18957 0.0
C1273 C 0.24812 0.14326 0.14692 0.0
C1274 C 0.23556 0.11431 0.08871 0.0
C1275 C 0.24082 0.10927 0.96796 0.0
C1276 C 0.24069 0.11547 0.00947 0.0
C1277 C 0.24677 0.13195 0.13863 0.0
C1278 C 0.24373 0.1266 0.09331 0.0
H1279 H 0.24428 0.11357 0.85439 0.0
H1280 H 0.24092 0.12235 0.92117 0.0
H1281 H 0.22794 0.09926 0.04521 0.0
H1282 H 0.25382 0.12595 0.24199 0.0
H1283 H 0.24808 0.11722 0.16821 0.0
C1284 C 0.8496 0.10512 0.18388 0.0
C1285 C 0.8384 0.09504 0.1759 0.0
C1286 C 0.85657 0.11247 0.14829 0.0
C1287 C 0.85594 0.12081 0.02987 0.0
H1288 H 0.88844 0.12734 0.02664 0.0
C1289 C 0.89493 0.13447 0.89031 0.0
C1290 C 0.89509 0.14431 0.86873 0.0
C1291 C 0.88868 0.12979 0.93063 0.0
C1292 C 0.8794 0.12561 0.02717 0.0
H1293 H 0.82553 0.08506 0.12446 0.0
H1294 H 0.83769 0.09798 0.0623 0.0
H1295 H 0.87576 0.11676 0.09144 0.0
H1296 H 0.88905 0.15716 0.87338 0.0
H1297 H 0.87807 0.1489 0.94365 0.0
H1298 H 0.85953 0.12945 0.96513 0.0
C1299 C 0.84105 0.10019 0.09616 0.0
C1300 C 0.87217 0.11965 0.06438 0.0
C1301 C 0.8341 0.09277 0.13176 0.0
C1302 C 0.88912 0.14957 0.88907 0.0
C1303 C 0.88276 0.14481 0.92916 0.0
C1304 C 0.86321 0.12688 0.99283 0.0
C1305 C 0.85246 0.10996 0.10399 0.0
C1306 C 0.86032 0.11705 0.06586 0.0
C1307 C 0.88236 0.13479 0.95004 0.0
C1308 C 0.87496 0.12919 0.99084 0.0
H1309 H 0.85316 0.10715 0.21751 0.0
H1310 H 0.86527 0.12003 0.15535 0.0
H1311 H 0.84687 0.11898 0.03026 0.0
H1312 H 0.89945 0.13022 0.87566 0.0
H1313 H 0.88845 0.12201 0.94582 0.0
C1314 C 0.73458 0.86692 0.29813 0.0
C1315 C 0.73225 0.87612 0.3087 0.0
C1316 C 0.73525 0.85968 0.33212 0.0
C1317 C 0.72691 0.84967 0.44974 0.0
H1318 H 0.75582 0.84804 0.45324 0.0
C1319 C 0.7369 0.82758 0.59927 0.0
C1320 C 0.74789 0.83532 0.61922 0.0
C1321 C 0.73441 0.83003 0.55599 0.0
C1322 C 0.74765 0.84832 0.45246 0.0
H1323 H 0.72845 0.88468 0.36315 0.0
H1324 H 0.7294 0.87194 0.42215 0.0
H1325 H 0.75179 0.85714 0.38794 0.0
H1326 H 0.76521 0.85111 0.608 0.0
H1327 H 0.7609 0.85527 0.53244 0.0
H1328 H 0.72295 0.84125 0.51485 0.0
C1329 C 0.7307 0.87032 0.38761 0.0
C1330 C 0.74531 0.85346 0.41502 0.0
C1331 C 0.7302 0.87765 0.35376 0.0
C1332 C 0.75663 0.84502 0.59371 0.0
C1333 C 0.75419 0.84737 0.55029 0.0
C1334 C 0.72917 0.84442 0.48691 0.0
C1335 C 0.73343 0.8614 0.37723 0.0
C1336 C 0.73507 0.85447 0.41387 0.0
C1337 C 0.74292 0.84014 0.53159 0.0
C1338 C 0.73972 0.84397 0.48917 0.0
H1339 H 0.73624 0.86553 0.26374 0.0
H1340 H 0.73732 0.85284 0.3232 0.0
H1341 H 0.71891 0.85027 0.44955 0.0
H1342 H 0.72996 0.82003 0.61796 0.0
H1343 H 0.72568 0.82424 0.5422 0.0
C1344 C 0.10137 0.86805 0.27613 0.0
C1345 C 0.09246 0.85591 0.274 0.0
C1346 C 0.10664 0.87309 0.31682 0.0
C1347 C 0.10261 0.8693 0.43948 0.0
H1348 H 0.1366 0.89152 0.43852 0.0
C1349 C 0.14357 0.8972 0.57108 0.0
C1350 C 0.13817 0.90159 0.60006 0.0
C1351 C 0.13783 0.89117 0.53219 0.0
C1352 C 0.12713 0.88526 0.43955 0.0
H1353 H 0.08199 0.8396 0.31347 0.0
H1354 H 0.09135 0.84845 0.38492 0.0
H1355 H 0.12685 0.88141 0.36992 0.0
H1356 H 0.12253 0.90316 0.61048 0.0
H1357 H 0.11264 0.89284 0.5421 0.0
H1358 H 0.10296 0.87303 0.50947 0.0
C1359 C 0.09415 0.85405 0.35483 0.0
C1360 C 0.1215 0.87956 0.40007 0.0
C1361 C 0.08882 0.84897 0.3139 0.0
C1362 C 0.12694 0.89989 0.58897 0.0
C1363 C 0.12122 0.89388 0.54996 0.0
C1364 C 0.10825 0.875 0.47911 0.0
C1365 C 0.1032 0.86614 0.35659 0.0
C1366 C 0.10916 0.87162 0.39941 0.0
C1367 C 0.12658 0.88942 0.52118 0.0
C1368 C 0.12057 0.88311 0.4795 0.0
H1369 H 0.10433 0.87373 0.24625 0.0
H1370 H 0.11339 0.8825 0.31711 0.0
H1371 H 0.09308 0.86329 0.44001 0.0
H1372 H 0.15217 0.89827 0.57867 0.0
H1373 H 0.14215 0.88772 0.51108 0.0
C1374 C 0.1034 0.23086 0.61596 0.0
C1375 C 0.09818 0.23802 0.62105 0.0
C1376 C 0.10935 0.23138 0.57619 0.0
C1377 C 0.11155 0.23891 0.45669 0.0
H1378 H 0.14369 0.24461 0.46471 0.0
C1379 C 0.14038 0.24922 0.29837 0.0
C1380 C 0.14792 0.24442 0.29542 0.0
C1381 C 0.13475 0.24874 0.33881 0.0
C1382 C 0.13467 0.24284 0.46178 0.0
H1383 H 0.09481 0.25107 0.58781 0.0
H1384 H 0.10497 0.25174 0.51788 0.0
H1385 H 0.13248 0.24252 0.53325 0.0
H1386 H 0.15568 0.23558 0.33281 0.0
H1387 H 0.14551 0.23434 0.40331 0.0
H1388 H 0.11349 0.23886 0.38556 0.0
C1389 C 0.10452 0.24581 0.54492 0.0
C1390 C 0.12827 0.24168 0.50108 0.0
C1391 C 0.09874 0.24544 0.58496 0.0
C1392 C 0.14996 0.23941 0.33416 0.0
C1393 C 0.14415 0.23874 0.3746 0.0
C1394 C 0.11786 0.23989 0.41744 0.0
C1395 C 0.11004 0.23893 0.54044 0.0
C1396 C 0.11669 0.23979 0.49886 0.0
C1397 C 0.13632 0.24324 0.37725 0.0
C1398 C 0.12956 0.24198 0.41937 0.0
H1399 H 0.10319 0.22509 0.64318 0.0
H1400 H 0.11344 0.22591 0.5734 0.0
H1401 H 0.10257 0.23731 0.45409 0.0
H1402 H 0.13876 0.2533 0.26922 0.0
H1403 H 0.12909 0.25264 0.33975 0.0
C1404 C 0.83883 0.57286 0.33905 0.0
C1405 C 0.82996 0.56558 0.3705 0.0
C1406 C 0.83572 0.57448 0.29565 0.0
C1407 C 0.81171 0.56231 0.21325 0.0
H1408 H 0.81886 0.59503 0.19343 0.0
C1409 C 0.77872 0.57302 0.13494 0.0
C1410 C 0.78239 0.58345 0.10879 0.0
C1411 C 0.78703 0.57063 0.15431 0.0
C1412 C 0.81704 0.58592 0.19743 0.0
H1413 H 0.81107 0.55375 0.38102 0.0
H1414 H 0.80566 0.55631 0.30497 0.0
H1415 H 0.8295 0.59066 0.25103 0.0
H1416 H 0.79768 0.59951 0.08178 0.0
H1417 H 0.81234 0.59535 0.11624 0.0
H1418 H 0.79888 0.55744 0.16122 0.0
C1419 C 0.81498 0.56081 0.3138 0.0
C1420 C 0.82314 0.58342 0.23045 0.0
C1421 C 0.81805 0.55942 0.35732 0.0
C1422 C 0.7946 0.59141 0.10191 0.0
C1423 C 0.80298 0.58902 0.12151 0.0
C1424 C 0.80573 0.56481 0.17992 0.0
C1425 C 0.82375 0.56858 0.28297 0.0
C1426 C 0.82005 0.57152 0.24016 0.0
C1427 C 0.79925 0.57863 0.14815 0.0
C1428 C 0.80784 0.57654 0.17354 0.0
H1429 H 0.84809 0.57776 0.34864 0.0
H1430 H 0.8426 0.58057 0.27242 0.0
H1431 H 0.80929 0.55308 0.21995 0.0
H1432 H 0.7694 0.5668 0.14155 0.0
H1433 H 0.78384 0.56272 0.17567 0.0
C1434 C 0.40262 0.20387 0.1198 0.0
C1435 C 0.41116 0.20026 0.11971 0.0
C1436 C 0.40267 0.21137 0.15334 0.0
C1437 C 0.41122 0.21983 0.26924 0.0
H1438 H 0.41413 0.25034 0.23662 0.0
C1439 C 0.42899 0.25935 0.39032 0.0
C1440 C 0.42685 0.26874 0.38084 0.0
C1441 C 0.42395 0.24916 0.36357 0.0
C1442 C 0.41296 0.24172 0.24678 0.0
H1443 H 0.42645 0.20172 0.15449 0.0
H1444 H 0.42637 0.21463 0.21335 0.0
H1445 H 0.41167 0.23638 0.17828 0.0
H1446 H 0.41684 0.27446 0.34 0.0
H1447 H 0.40725 0.25633 0.29572 0.0
H1448 H 0.41237 0.22502 0.33773 0.0
C1449 C 0.41969 0.21168 0.18742 0.0
C1450 C 0.41166 0.23377 0.21305 0.0
C1451 C 0.4198 0.20441 0.15345 0.0
C1452 C 0.41863 0.26729 0.3477 0.0
C1453 C 0.41331 0.25699 0.32185 0.0
C1454 C 0.41226 0.22767 0.30316 0.0
C1455 C 0.41108 0.21515 0.18785 0.0
C1456 C 0.41109 0.22291 0.2239 0.0
C1457 C 0.41651 0.24813 0.32742 0.0
C1458 C 0.41348 0.23889 0.29237 0.0
H1459 H 0.39583 0.20078 0.0943 0.0
H1460 H 0.39597 0.21399 0.15293 0.0
H1461 H 0.41064 0.2114 0.2784 0.0
H1462 H 0.43545 0.26038 0.41541 0.0
H1463 H 0.42671 0.24262 0.36909 0.0
C1464 C 0.80566 0.20901 0.09977 0.0
C1465 C 0.80993 0.22133 0.10445 0.0
C1466 C 0.7953 0.20055 0.12245 0.0
C1467 C 0.76906 0.19767 0.18372 0.0
H1468 H 0.77042 0.17264 0.25228 0.0
C1469 C 0.74971 0.18188 0.35869 0.0
C1470 C 0.74331 0.16958 0.36905 0.0
C1471 C 0.75486 0.1859 0.31637 0.0
C1472 C 0.76977 0.17938 0.23245 0.0
H1473 H 0.80686 0.23444 0.1371 0.0
H1474 H 0.78908 0.21984 0.17683 0.0
H1475 H 0.7857 0.18419 0.1956 0.0
H1476 H 0.73704 0.15177 0.3436 0.0
H1477 H 0.74655 0.1589 0.26939 0.0
H1478 H 0.75368 0.19348 0.22331 0.0
C1479 C 0.79344 0.21662 0.15475 0.0
C1480 C 0.77851 0.186 0.20002 0.0
C1481 C 0.80371 0.22502 0.13219 0.0
C1482 C 0.74185 0.1613 0.33605 0.0
C1483 C 0.74729 0.16536 0.29387 0.0
C1484 C 0.76043 0.19116 0.21645 0.0
C1485 C 0.78908 0.20429 0.15013 0.0
C1486 C 0.77853 0.19558 0.17679 0.0
C1487 C 0.75393 0.1777 0.28399 0.0
C1488 C 0.76101 0.1823 0.24227 0.0
H1489 H 0.81026 0.20591 0.07848 0.0
H1490 H 0.79216 0.19111 0.11824 0.0
H1491 H 0.76866 0.20479 0.16552 0.0
H1492 H 0.75096 0.18841 0.38371 0.0
H1493 H 0.76008 0.19546 0.30969 0.0
C1494 C 0.938 0.47654 0.83333 0.0
C1495 C 0.93439 0.48512 0.83128 0.0
C1496 C 0.94252 0.47459 0.87308 0.0
C1497 C 0.94027 0.4756 0.99367 0.0
H1498 H 0.96759 0.4712 0.99377 0.0
C1499 C 0.94781 0.45228 0.14366 0.0
C1500 C 0.9491 0.44267 0.12991 0.0
C1501 C 0.94989 0.4615 0.113 0.0
C1502 C 0.95996 0.47244 0.99443 0.0
H1503 H 0.93268 0.49835 0.86954 0.0
H1504 H 0.94028 0.49466 0.93934 0.0
H1505 H 0.963 0.4791 0.92647 0.0
H1506 H 0.95429 0.43541 0.07532 0.0
H1507 H 0.95797 0.45132 0.02216 0.0
H1508 H 0.93664 0.46813 0.06019 0.0
C1509 C 0.93975 0.48959 0.90991 0.0
C1510 C 0.95736 0.47696 0.95589 0.0
C1511 C 0.9354 0.49168 0.86994 0.0
C1512 C 0.95345 0.44288 0.08673 0.0
C1513 C 0.95556 0.45205 0.05627 0.0
C1514 C 0.94277 0.47092 0.03202 0.0
C1515 C 0.94335 0.48103 0.91183 0.0
C1516 C 0.94725 0.47819 0.95467 0.0
C1517 C 0.95323 0.46116 0.06825 0.0
C1518 C 0.95239 0.46884 0.03228 0.0
H1519 H 0.93727 0.47126 0.80445 0.0
H1520 H 0.94505 0.46779 0.87387 0.0
H1521 H 0.9324 0.47643 0.99357 0.0
H1522 H 0.94422 0.45213 0.17664 0.0
H1523 H 0.94815 0.46847 0.12349 0.0
C1524 C 0.5622 0.48585 0.05191 0.0
C1525 C 0.56047 0.49401 0.07677 0.0
C1526 C 0.55448 0.47936 0.01751 0.0
C1527 C 0.53147 0.47914 0.94242 0.0
H1528 H 0.52601 0.44753 0.91459 0.0
C1529 C 0.49347 0.44346 0.83416 0.0
C1530 C 0.49636 0.43699 0.80432 0.0
C1531 C 0.50217 0.45219 0.86123 0.0
C1532 C 0.52761 0.45643 0.92155 0.0
H1533 H 0.54896 0.5014 0.08615 0.0
H1534 H 0.53503 0.48956 0.02737 0.0
H1535 H 0.53825 0.45809 0.97837 0.0
H1536 H 0.51062 0.43491 0.77739 0.0
H1537 H 0.52591 0.45007 0.82578 0.0
H1538 H 0.52015 0.477 0.88663 0.0
C1539 C 0.54263 0.48849 0.03347 0.0
C1540 C 0.53464 0.46252 0.95819 0.0
C1541 C 0.55052 0.49517 0.06759 0.0
C1542 C 0.50824 0.43992 0.79973 0.0
C1543 C 0.51693 0.44848 0.82765 0.0
C1544 C 0.52422 0.47291 0.90623 0.0
C1545 C 0.54463 0.48064 0.00739 0.0
C1546 C 0.53674 0.474 0.96911 0.0
C1547 C 0.51386 0.45439 0.85969 0.0
C1548 C 0.52229 0.46153 0.89537 0.0
H1549 H 0.56985 0.48483 0.05762 0.0
H1550 H 0.55653 0.47364 0.99788 0.0
H1551 H 0.53301 0.48802 0.94911 0.0
H1552 H 0.48433 0.44126 0.83841 0.0
H1553 H 0.49957 0.45656 0.88576 0.0
C1554 C 0.55342 0.08515 0.84224 0.0
C1555 C 0.56122 0.081 0.83206 0.0
C1556 C 0.54779 0.08265 0.88405 0.0
C1557 C 0.53579 0.06099 0.97387 0.0
H1558 H 0.53657 0.08699 0.04009 0.0
C1559 C 0.51299 0.07189 0.13481 0.0
C1560 C 0.50107 0.0649 0.12249 0.0
C1561 C 0.52193 0.07201 0.10855 0.0
C1562 C 0.53642 0.07962 0.02265 0.0
H1563 H 0.5692 0.07087 0.85735 0.0
H1564 H 0.55897 0.06615 0.93061 0.0
H1565 H 0.54955 0.09149 0.97497 0.0
H1566 H 0.48891 0.052 0.07536 0.0
H1567 H 0.5045 0.05207 0.02938 0.0
H1568 H 0.52212 0.04908 0.02017 0.0
C1569 C 0.55741 0.07149 0.90618 0.0
C1570 C 0.54379 0.08221 0.98518 0.0
C1571 C 0.56327 0.07423 0.86449 0.0
C1572 C 0.49807 0.05729 0.08578 0.0
C1573 C 0.507 0.05735 0.05954 0.0
C1574 C 0.52827 0.05837 0.01114 0.0
C1575 C 0.54968 0.07575 0.91629 0.0
C1576 C 0.54331 0.07293 0.95981 0.0
C1577 C 0.51904 0.06516 0.06944 0.0
C1578 C 0.52832 0.06767 0.03525 0.0
H1579 H 0.55169 0.09041 0.81791 0.0
H1580 H 0.54177 0.08593 0.89096 0.0
H1581 H 0.53526 0.05369 0.95461 0.0
H1582 H 0.51546 0.0779 0.16287 0.0
H1583 H 0.53112 0.07802 0.11719 0.0
C1584 C 0.52841 0.10178 0.25167 0.0
C1585 C 0.51632 0.0983 0.25471 0.0
C1586 C 0.535 0.10317 0.29057 0.0
C1587 C 0.53489 0.10668 0.4138 0.0
H1588 H 0.5515 0.08882 0.41831 0.0
C1589 C 0.54269 0.089 0.57912 0.0
C1590 C 0.55354 0.08941 0.58669 0.0
C1591 C 0.54013 0.09205 0.53726 0.0
C1592 C 0.54711 0.09404 0.4174 0.0
H1593 H 0.50184 0.09418 0.30097 0.0
H1594 H 0.51331 0.09672 0.36848 0.0
H1595 H 0.54361 0.09126 0.34697 0.0
H1596 H 0.5702 0.0933 0.55558 0.0
H1597 H 0.56563 0.09861 0.48177 0.0
H1598 H 0.53806 0.10917 0.48432 0.0
C1599 C 0.51773 0.09837 0.33616 0.0
C1600 C 0.54259 0.09545 0.37653 0.0
C1601 C 0.51113 0.09685 0.29741 0.0
C1602 C 0.56175 0.09288 0.55093 0.0
C1603 C 0.55914 0.0959 0.50868 0.0
C1604 C 0.53941 0.10529 0.45451 0.0
C1605 C 0.52966 0.10128 0.33322 0.0
C1606 C 0.53611 0.10147 0.37463 0.0
C1607 C 0.54832 0.09561 0.50157 0.0
C1608 C 0.54523 0.09863 0.45708 0.0
H1609 H 0.53266 0.1029 0.21927 0.0
H1610 H 0.5442 0.10551 0.28728 0.0
H1611 H 0.53014 0.11155 0.41323 0.0
H1612 H 0.5361 0.08633 0.60564 0.0
H1613 H 0.5316 0.09147 0.53271 0.0
C1614 C 0.90916 0.43913 0.24537 0.0
C1615 C 0.90973 0.42859 0.24998 0.0
C1616 C 0.9074 0.44441 0.28322 0.0
C1617 C 0.89889 0.43887 0.40476 0.0
H1618 H 0.92241 0.4725 0.41741 0.0
C1619 C 0.91815 0.45964 0.57399 0.0
C1620 C 0.91972 0.47093 0.58427 0.0
C1621 C 0.91451 0.45489 0.53138 0.0
C1622 C 0.91563 0.46317 0.41411 0.0
H1623 H 0.9081 0.41488 0.29724 0.0
H1624 H 0.90506 0.42397 0.3626 0.0
H1625 H 0.9197 0.46308 0.3445 0.0
H1626 H 0.91867 0.48609 0.55763 0.0
H1627 H 0.91254 0.47782 0.48223 0.0
H1628 H 0.89533 0.43881 0.47498 0.0
C1629 C 0.90591 0.42822 0.33009 0.0
C1630 C 0.91404 0.45777 0.37231 0.0
C1631 C 0.90775 0.42303 0.29255 0.0
C1632 C 0.91752 0.47736 0.55077 0.0
C1633 C 0.91405 0.47266 0.50766 0.0
C1634 C 0.90055 0.44424 0.4465 0.0
C1635 C 0.90605 0.43915 0.32619 0.0
C1636 C 0.90597 0.44544 0.36757 0.0
C1637 C 0.91246 0.46134 0.49768 0.0
C1638 C 0.90922 0.45633 0.45196 0.0
H1639 H 0.9107 0.44365 0.21303 0.0
H1640 H 0.90744 0.45278 0.27905 0.0
H1641 H 0.89241 0.42942 0.40206 0.0
H1642 H 0.9197 0.45441 0.59899 0.0
H1643 H 0.91354 0.44623 0.5245 0.0
C1644 C 0.53193 0.45112 0.59317 0.0
C1645 C 0.52541 0.45536 0.61596 0.0
C1646 C 0.53979 0.45792 0.55858 0.0
C1647 C 0.54377 0.48058 0.47328 0.0
H1648 H 0.57136 0.47827 0.44106 0.0
C1649 C 0.5701 0.50057 0.30658 0.0
C1650 C 0.57253 0.49279 0.2822 0.0
C1651 C 0.56582 0.49773 0.35085 0.0
C1652 C 0.56367 0.47898 0.44958 0.0
H1653 H 0.52209 0.47008 0.62159 0.0
H1654 H 0.53614 0.48225 0.56147 0.0
H1655 H 0.56202 0.47101 0.51467 0.0
H1656 H 0.57255 0.476 0.28581 0.0
H1657 H 0.56516 0.47111 0.36293 0.0
H1658 H 0.54535 0.48841 0.40782 0.0
C1659 C 0.53516 0.47363 0.57024 0.0
C1660 C 0.5583 0.47482 0.49178 0.0
C1661 C 0.52726 0.46678 0.60509 0.0
C1662 C 0.57076 0.4822 0.30347 0.0
C1663 C 0.5666 0.47943 0.34784 0.0
C1664 C 0.5492 0.48483 0.43118 0.0
C1665 C 0.54124 0.4691 0.5456 0.0
C1666 C 0.54808 0.47526 0.50379 0.0
C1667 C 0.56401 0.48712 0.37198 0.0
C1668 C 0.55903 0.4838 0.41842 0.0
H1669 H 0.53039 0.44219 0.60032 0.0
H1670 H 0.54412 0.454 0.54011 0.0
H1671 H 0.53583 0.48093 0.48092 0.0
H1672 H 0.57135 0.50879 0.29129 0.0
H1673 H 0.56396 0.50387 0.36862 0.0
C1674 C 0.43183 0.24285 0.59015 0.0
C1675 C 0.42528 0.24877 0.59271 0.0
C1676 C 0.43145 0.23538 0.62561 0.0
C1677 C 0.41415 0.21898 0.72782 0.0
H1678 H 0.44439 0.2246 0.77316 0.0
C1679 C 0.43475 0.21347 0.90507 0.0
C1680 C 0.42568 0.20201 0.91899 0.0
C1681 C 0.43482 0.21781 0.86163 0.0
C1682 C 0.43588 0.22294 0.76095 0.0
H1683 H 0.41278 0.25097 0.63372 0.0
H1684 H 0.41207 0.23805 0.69468 0.0
H1685 H 0.44376 0.23419 0.70267 0.0
H1686 H 0.40976 0.18599 0.89736 0.0
H1687 H 0.40997 0.1935 0.82179 0.0
H1688 H 0.4063 0.20819 0.78683 0.0
C1689 C 0.41749 0.23911 0.66547 0.0
C1690 C 0.4355 0.22831 0.72024 0.0
C1691 C 0.41796 0.24662 0.63043 0.0
C1692 C 0.41683 0.19491 0.88806 0.0
C1693 C 0.41692 0.19923 0.84466 0.0
C1694 C 0.41453 0.21362 0.7684 0.0
C1695 C 0.42439 0.23357 0.66396 0.0
C1696 C 0.42465 0.2266 0.70373 0.0
C1697 C 0.42583 0.21078 0.83103 0.0
C1698 C 0.42542 0.21571 0.78594 0.0
H1699 H 0.43759 0.24435 0.56158 0.0
H1700 H 0.4368 0.23115 0.62331 0.0
H1701 H 0.40564 0.21738 0.71579 0.0
H1702 H 0.44171 0.21919 0.92795 0.0
H1703 H 0.44174 0.22681 0.85249 0.0
C1704 C 0.75493 0.17819 0.64466 0.0
C1705 C 0.76237 0.1794 0.60838 0.0
C1706 C 0.75981 0.18399 0.6851 0.0
C1707 C 0.78754 0.20978 0.72682 0.0
H1708 H 0.77457 0.19657 0.84483 0.0
C1709 C 0.81271 0.23063 0.88975 0.0
C1710 C 0.80625 0.23162 0.92556 0.0
C1711 C 0.8069 0.22434 0.85139 0.0
C1712 C 0.7782 0.2004 0.812 0.0
H1713 H 0.7807 0.18681 0.58706 0.0
H1714 H 0.78917 0.19652 0.6576 0.0
H1715 H 0.76523 0.18471 0.77817 0.0
H1716 H 0.7886 0.22685 0.94893 0.0
H1717 H 0.77845 0.21581 0.88177 0.0
H1718 H 0.80062 0.22537 0.76058 0.0
C1719 C 0.77959 0.19153 0.65453 0.0
C1720 C 0.77286 0.19362 0.77386 0.0
C1721 C 0.77473 0.18588 0.61418 0.0
C1722 C 0.79385 0.2263 0.92187 0.0
C1723 C 0.78802 0.21989 0.88363 0.0
C1724 C 0.79291 0.21649 0.76483 0.0
C1725 C 0.77221 0.19099 0.68999 0.0
C1726 C 0.77756 0.19819 0.73083 0.0
C1727 C 0.79449 0.21881 0.84811 0.0
C1728 C 0.78837 0.21185 0.80783 0.0
H1729 H 0.74536 0.17327 0.64107 0.0
H1730 H 0.75388 0.1834 0.71173 0.0
H1731 H 0.79121 0.21372 0.69416 0.0
H1732 H 0.82227 0.23461 0.89148 0.0
H1733 H 0.8121 0.22357 0.82467 0.0
C1734 C 0.76842 0.57769 0.89816 0.0
C1735 C 0.76759 0.57019 0.93434 0.0
C1736 C 0.77394 0.57766 0.85792 0.0
C1737 C 0.78479 0.56019 0.79501 0.0
H1738 H 0.8037 0.59041 0.73083 0.0
C1739 C 0.81627 0.56648 0.64607 0.0
C1740 C 0.8143 0.57153 0.60722 0.0
C1741 C 0.81098 0.5665 0.68698 0.0
C1742 C 0.79843 0.58191 0.74845 0.0
H1743 H 0.77186 0.55671 0.95647 0.0
H1744 H 0.78176 0.55693 0.88726 0.0
H1745 H 0.79323 0.58981 0.79954 0.0
H1746 H 0.80562 0.58092 0.58111 0.0
H1747 H 0.79664 0.58115 0.65254 0.0
H1748 H 0.7903 0.5524 0.74413 0.0
C1749 C 0.77789 0.56262 0.88922 0.0
C1750 C 0.79234 0.58153 0.78761 0.0
C1751 C 0.77223 0.56253 0.92913 0.0
C1752 C 0.80725 0.57689 0.61038 0.0
C1753 C 0.80216 0.5771 0.65129 0.0
C1754 C 0.79104 0.56062 0.75621 0.0
C1755 C 0.77891 0.57025 0.85316 0.0
C1756 C 0.78537 0.57064 0.81129 0.0
C1757 C 0.80385 0.57177 0.68984 0.0
C1758 C 0.79784 0.57146 0.73243 0.0
H1759 H 0.76488 0.58365 0.90101 0.0
H1760 H 0.77433 0.58347 0.83059 0.0
H1761 H 0.77937 0.5516 0.81179 0.0
H1762 H 0.82164 0.56227 0.6446 0.0
H1763 H 0.81246 0.56239 0.71639 0.0
C1764 C 0.43542 0.89765 0.43997 0.0
C1765 C 0.43879 0.90983 0.43855 0.0
C1766 C 0.44254 0.89389 0.4614 0.0
C1767 C 0.45352 0.88768 0.53852 0.0
H1768 H 0.48713 0.90929 0.55706 0.0
C1769 C 0.47527 0.89058 0.70555 0.0
C1770 C 0.48754 0.89512 0.70853 0.0
C1771 C 0.46994 0.88925 0.66392 0.0
C1772 C 0.47782 0.90294 0.55162 0.0
H1773 H 0.45244 0.92768 0.45722 0.0
H1774 H 0.46453 0.92114 0.49653 0.0
H1775 H 0.47718 0.91329 0.49617 0.0
H1776 H 0.50372 0.90079 0.67019 0.0
H1777 H 0.49433 0.89822 0.59698 0.0
H1778 H 0.45418 0.87729 0.59373 0.0
C1779 C 0.45662 0.91446 0.47987 0.0
C1780 C 0.47205 0.90537 0.51709 0.0
C1781 C 0.44961 0.91822 0.45771 0.0
C1782 C 0.49424 0.89739 0.66889 0.0
C1783 C 0.48888 0.89599 0.627 0.0
C1784 C 0.45933 0.88514 0.57246 0.0
C1785 C 0.45308 0.90221 0.4827 0.0
C1786 C 0.4597 0.89814 0.51174 0.0
C1787 C 0.47673 0.8923 0.62412 0.0
C1788 C 0.4714 0.89311 0.58107 0.0
H1789 H 0.42725 0.89097 0.42497 0.0
H1790 H 0.43964 0.88442 0.46204 0.0
H1791 H 0.44401 0.88186 0.53556 0.0
H1792 H 0.46982 0.8885 0.73549 0.0
H1793 H 0.4606 0.88651 0.66332 0.0
C1794 C 0.08732 0.59187 0.69579 0.0
C1795 C 0.09552 0.59442 0.73039 0.0
C1796 C 0.08368 0.5818 0.66931 0.0
C1797 C 0.09721 0.56645 0.62166 0.0
H1798 H 0.06599 0.54379 0.57694 0.0
C1799 C 0.0909 0.53171 0.48947 0.0
C1800 C 0.08151 0.52785 0.45895 0.0
C1801 C 0.09204 0.53928 0.52445 0.0
C1802 C 0.0748 0.55018 0.58849 0.0
H1803 H 0.10586 0.5882 0.76642 0.0
H1804 H 0.09971 0.57064 0.7193 0.0
H1805 H 0.06789 0.55677 0.63907 0.0
H1806 H 0.06625 0.52933 0.43994 0.0
H1807 H 0.0686 0.54309 0.49959 0.0
H1808 H 0.10428 0.56056 0.56994 0.0
C1809 C 0.09596 0.57634 0.71319 0.0
C1810 C 0.07584 0.55749 0.62449 0.0
C1811 C 0.09938 0.58629 0.74037 0.0
C1812 C 0.07357 0.53214 0.463 0.0
C1813 C 0.07484 0.53991 0.49763 0.0
C1814 C 0.0962 0.55934 0.58521 0.0
C1815 C 0.08845 0.5743 0.67634 0.0
C1816 C 0.08707 0.56567 0.64141 0.0
C1817 C 0.08396 0.54339 0.52942 0.0
C1818 C 0.08498 0.55109 0.56803 0.0
H1819 H 0.08431 0.5981 0.68738 0.0
H1820 H 0.07794 0.58047 0.64104 0.0
H1821 H 0.10599 0.57291 0.63336 0.0
H1822 H 0.0971 0.52847 0.48764 0.0
H1823 H 0.09906 0.54153 0.54846 0.0
C1824 C 0.40026 0.50785 0.71439 0.0
C1825 C 0.39967 0.51453 0.74996 0.0
C1826 C 0.40601 0.5136 0.67426 0.0
C1827 C 0.43011 0.5434 0.64016 0.0
H1828 H 0.42547 0.52902 0.52313 0.0
C1829 C 0.46496 0.56661 0.50188 0.0
C1830 C 0.46878 0.55933 0.48186 0.0
C1831 C 0.45444 0.56149 0.52688 0.0
C1832 C 0.42683 0.53314 0.55564 0.0
H1833 H 0.40335 0.53208 0.77028 0.0
H1834 H 0.41281 0.54204 0.69946 0.0
H1835 H 0.40987 0.51942 0.58063 0.0
H1836 H 0.46427 0.54097 0.47051 0.0
H1837 H 0.44596 0.53202 0.51506 0.0
H1838 H 0.44713 0.55691 0.61594 0.0
C1839 C 0.40932 0.53248 0.70297 0.0
C1840 C 0.41792 0.52765 0.58855 0.0
C1841 C 0.40382 0.52678 0.74336 0.0
C1842 C 0.46159 0.54681 0.48573 0.0
C1843 C 0.45105 0.54168 0.51087 0.0
C1844 C 0.43893 0.54889 0.60734 0.0
C1845 C 0.41108 0.52609 0.66892 0.0
C1846 C 0.41957 0.53261 0.63151 0.0
C1847 C 0.44754 0.54899 0.53261 0.0
C1848 C 0.43749 0.54372 0.56504 0.0
H1849 H 0.39719 0.49839 0.71887 0.0
H1850 H 0.40724 0.50839 0.64895 0.0
H1851 H 0.43188 0.54734 0.67311 0.0
H1852 H 0.47028 0.57628 0.49958 0.0
H1853 H 0.45188 0.56734 0.54285 0.0
C1854 C 0.56481 0.8224 0.1208 0.0
C1855 C 0.55743 0.81543 0.08596 0.0
C1856 C 0.56555 0.8169 0.16045 0.0
C1857 C 0.56184 0.78774 0.19307 0.0
H1858 H 0.5717 0.8021 0.31008 0.0
C1859 C 0.57379 0.7647 0.3309 0.0
C1860 C 0.5848 0.7719 0.35145 0.0
C1861 C 0.56853 0.76987 0.30544 0.0
C1862 C 0.56894 0.79801 0.27753 0.0
H1863 H 0.5441 0.79756 0.0666 0.0
H1864 H 0.54484 0.788 0.13677 0.0
H1865 H 0.56484 0.81126 0.25389 0.0
H1866 H 0.59874 0.79021 0.36284 0.0
H1867 H 0.58959 0.79929 0.31739 0.0
H1868 H 0.56611 0.77466 0.21606 0.0
C1869 C 0.55045 0.79762 0.13296 0.0
C1870 C 0.56502 0.80323 0.24539 0.0
C1871 C 0.54993 0.80308 0.09298 0.0
C1872 C 0.59027 0.78443 0.34724 0.0
C1873 C 0.58498 0.78963 0.32161 0.0
C1874 C 0.56564 0.7825 0.22513 0.0
C1875 C 0.55877 0.80437 0.16605 0.0
C1876 C 0.56156 0.79822 0.20255 0.0
C1877 C 0.57419 0.78237 0.29969 0.0
C1878 C 0.56937 0.78764 0.26747 0.0
H1879 H 0.57077 0.83195 0.11592 0.0
H1880 H 0.57209 0.82238 0.18503 0.0
H1881 H 0.55961 0.78381 0.16012 0.0
H1882 H 0.56935 0.75502 0.33328 0.0
H1883 H 0.56014 0.76407 0.2893 0.0
C1884 C 0.22028 0.79514 0.32963 0.0
C1885 C 0.21583 0.80246 0.34379 0.0
C1886 C 0.21364 0.78553 0.3015 0.0
C1887 C 0.18454 0.76626 0.24915 0.0
H1888 H 0.20387 0.77033 0.1439 0.0
C1889 C 0.1719 0.73565 0.08927 0.0
C1890 C 0.17372 0.74223 0.04901 0.0
C1891 C 0.17533 0.74154 0.1304 0.0
C1892 C 0.1984 0.76904 0.17321 0.0
H1893 H 0.20051 0.80484 0.3425 0.0
H1894 H 0.18891 0.78806 0.29256 0.0
H1895 H 0.213 0.78262 0.20926 0.0
H1896 H 0.18067 0.76001 0.02048 0.0
H1897 H 0.18663 0.77026 0.09163 0.0
H1898 H 0.16987 0.75269 0.21194 0.0
C1899 C 0.19753 0.78975 0.30361 0.0
C1900 C 0.20362 0.77599 0.21073 0.0
C1901 C 0.2042 0.7994 0.332 0.0
C1902 C 0.17879 0.75469 0.05077 0.0
C1903 C 0.18233 0.76057 0.09152 0.0
C1904 C 0.17931 0.75912 0.21154 0.0
C1905 C 0.20242 0.78306 0.28666 0.0
C1906 C 0.19674 0.7748 0.24891 0.0
C1907 C 0.18083 0.75408 0.13153 0.0
C1908 C 0.18621 0.76065 0.17307 0.0
H1909 H 0.22915 0.79716 0.33818 0.0
H1910 H 0.21754 0.7804 0.28944 0.0
H1911 H 0.17906 0.76518 0.27819 0.0
H1912 H 0.16805 0.72601 0.08881 0.0
H1913 H 0.17419 0.73639 0.16093 0.0
C1914 C 0.25174 0.43365 0.11824 0.0
C1915 C 0.25701 0.42676 0.1089 0.0
C1916 C 0.24799 0.43398 0.16173 0.0
C1917 C 0.23452 0.41408 0.25451 0.0
H1918 H 0.23646 0.44183 0.31111 0.0
C1919 C 0.19954 0.40814 0.38493 0.0
C1920 C 0.19494 0.41579 0.37767 0.0
C1921 C 0.21022 0.41063 0.36441 0.0
C1922 C 0.23582 0.43398 0.29579 0.0
H1923 H 0.26302 0.41523 0.13769 0.0
H1924 H 0.25603 0.41548 0.21394 0.0
H1925 H 0.25036 0.44462 0.25076 0.0
H1926 H 0.19807 0.43223 0.3447 0.0
H1927 H 0.21632 0.43632 0.30778 0.0
H1928 H 0.21937 0.40341 0.29625 0.0
C1929 C 0.25502 0.42078 0.18763 0.0
C1930 C 0.24384 0.43559 0.26157 0.0
C1931 C 0.25901 0.42066 0.14417 0.0
C1932 C 0.20141 0.42618 0.35104 0.0
C1933 C 0.21197 0.42859 0.33018 0.0
C1934 C 0.22637 0.41245 0.28821 0.0
C1935 C 0.24924 0.42724 0.19648 0.0
C1936 C 0.24295 0.42566 0.23951 0.0
C1937 C 0.2164 0.42072 0.33583 0.0
C1938 C 0.22661 0.4224 0.3079 0.0
H1939 H 0.25014 0.43846 0.09158 0.0
H1940 H 0.24342 0.43891 0.16756 0.0
H1941 H 0.23358 0.40627 0.23769 0.0
H1942 H 0.1948 0.40014 0.40577 0.0
H1943 H 0.21346 0.40448 0.37009 0.0
C1944 C 0.23763 0.41835 0.8401 0.0
C1945 C 0.23078 0.41353 0.87936 0.0
C1946 C 0.23233 0.41899 0.80009 0.0
C1947 C 0.20489 0.41825 0.75933 0.0
H1948 H 0.21729 0.41693 0.64258 0.0
C1949 C 0.182 0.41605 0.58906 0.0
C1950 C 0.18941 0.42431 0.55584 0.0
C1951 C 0.18677 0.41472 0.62936 0.0
C1952 C 0.21378 0.41736 0.67504 0.0
H1953 H 0.21291 0.40492 0.90697 0.0
H1954 H 0.20357 0.40544 0.83696 0.0
H1955 H 0.22591 0.41368 0.71022 0.0
H1956 H 0.20763 0.43776 0.53925 0.0
H1957 H 0.21592 0.43524 0.60924 0.0
H1958 H 0.19252 0.42157 0.72358 0.0
C1959 C 0.21311 0.40923 0.83719 0.0
C1960 C 0.21875 0.41556 0.71386 0.0
C1961 C 0.21844 0.40881 0.87731 0.0
C1962 C 0.20165 0.43136 0.5642 0.0
C1963 C 0.20643 0.42987 0.60407 0.0
C1964 C 0.19979 0.41983 0.72045 0.0
C1965 C 0.22001 0.41462 0.79827 0.0
C1966 C 0.21444 0.41607 0.75663 0.0
C1967 C 0.19906 0.42145 0.63678 0.0
C1968 C 0.20426 0.4195 0.678 0.0
H1969 H 0.24718 0.42215 0.8408 0.0
H1970 H 0.23799 0.42334 0.77112 0.0
H1971 H 0.20147 0.41898 0.7915 0.0
H1972 H 0.17254 0.41048 0.58363 0.0
H1973 H 0.18091 0.40815 0.65412 0.0
C1974 C 0.57291 0.81246 0.81812 0.0
C1975 C 0.57665 0.8095 0.85809 0.0
C1976 C 0.57399 0.80789 0.7772 0.0
C1977 C 0.58988 0.79597 0.71696 0.0
H1978 H 0.5601 0.77519 0.65775 0.0
C1979 C 0.58743 0.76546 0.57334 0.0
C1980 C 0.57935 0.76324 0.53854 0.0
C1981 C 0.58722 0.7714 0.61186 0.0
C1982 C 0.56855 0.78114 0.67314 0.0
H1983 H 0.58503 0.80007 0.88649 0.0
H1984 H 0.58729 0.79247 0.81472 0.0
H1985 H 0.56028 0.78623 0.72359 0.0
H1986 H 0.56478 0.76557 0.51652 0.0
H1987 H 0.56474 0.77637 0.58249 0.0
H1988 H 0.59828 0.79125 0.66619 0.0
C1989 C 0.58338 0.79814 0.81519 0.0
C1990 C 0.56862 0.78742 0.71099 0.0
C1991 C 0.58204 0.80245 0.85615 0.0
C1992 C 0.57102 0.76701 0.54309 0.0
C1993 C 0.57098 0.77318 0.58112 0.0
C1994 C 0.58987 0.7899 0.67853 0.0
C1995 C 0.5791 0.80057 0.77559 0.0
C1996 C 0.57926 0.79478 0.73344 0.0
C1997 C 0.57911 0.77551 0.61603 0.0
C1998 C 0.57918 0.78226 0.65635 0.0
H1999 H 0.56865 0.81781 0.81877 0.0
H2000 H 0.57065 0.80988 0.74694 0.0
H2001 H 0.5982 0.80164 0.73378 0.0
H2002 H 0.59391 0.76259 0.57084 0.0
H2003 H 0.59343 0.77272 0.63835 0.0
C2004 C 0.195 0.78254 0.87221 0.0
C2005 C 0.18309 0.77334 0.86844 0.0
C2006 C 0.20165 0.78862 0.83386 0.0
C2007 C 0.19855 0.79561 0.71618 0.0
H2008 H 0.2296 0.79902 0.69822 0.0
C2009 C 0.23145 0.80321 0.55899 0.0
C2010 C 0.23126 0.81273 0.53617 0.0
C2011 C 0.22684 0.79989 0.6026 0.0
C2012 C 0.22095 0.79815 0.70287 0.0
H2013 H 0.16889 0.76329 0.82141 0.0
H2014 H 0.18039 0.77401 0.75496 0.0
H2015 H 0.2188 0.79041 0.76888 0.0
H2016 H 0.22649 0.82652 0.5422 0.0
H2017 H 0.21845 0.82068 0.61811 0.0
H2018 H 0.20051 0.80303 0.64993 0.0
C2019 C 0.18455 0.77659 0.78751 0.0
C2020 C 0.21483 0.79333 0.74339 0.0
C2021 C 0.17796 0.77045 0.82567 0.0
C2022 C 0.22672 0.81909 0.55858 0.0
C2023 C 0.22206 0.81573 0.60204 0.0
C2024 C 0.2047 0.80051 0.6759 0.0
C2025 C 0.19647 0.7857 0.79114 0.0
C2026 C 0.20348 0.79182 0.75009 0.0
C2027 C 0.22189 0.80597 0.62423 0.0
C2028 C 0.21588 0.80166 0.66853 0.0
H2029 H 0.19922 0.78493 0.9047 0.0
H2030 H 0.21082 0.79564 0.83759 0.0
H2031 H 0.18986 0.79464 0.7206 0.0
H2032 H 0.23491 0.79813 0.54285 0.0
H2033 H 0.22674 0.79226 0.61873 0.0
C2034 C 0.08434 0.56454 0.95657 0.0
C2035 C 0.09377 0.5697 0.92546 0.0
C2036 C 0.08383 0.55657 0.98974 0.0
C2037 C 0.10401 0.55002 0.05394 0.0
H2038 H 0.07443 0.52632 0.11061 0.0
C2039 C 0.08489 0.51697 0.22336 0.0
C2040 C 0.09292 0.52489 0.25494 0.0
C2041 C 0.08533 0.52062 0.17861 0.0
C2042 C 0.08282 0.53274 0.09503 0.0
H2043 H 0.10955 0.56981 0.90216 0.0
H2044 H 0.1086 0.55561 0.96002 0.0
H2045 H 0.07409 0.53465 0.03742 0.0
H2046 H 0.10777 0.54285 0.26406 0.0
H2047 H 0.10825 0.5494 0.18665 0.0
H2048 H 0.11275 0.54799 0.11133 0.0
C2049 C 0.10172 0.55796 0.95931 0.0
C2050 C 0.0826 0.53764 0.05312 0.0
C2051 C 0.1022 0.56598 0.92588 0.0
C2052 C 0.10147 0.53651 0.24059 0.0
C2053 C 0.10181 0.54023 0.19597 0.0
C2054 C 0.10424 0.54501 0.09567 0.0
C2055 C 0.09273 0.55348 0.99259 0.0
C2056 C 0.09315 0.54665 0.03271 0.0
C2057 C 0.0937 0.53235 0.16436 0.0
C2058 C 0.09362 0.53658 0.11747 0.0
H2059 H 0.07755 0.56699 0.95637 0.0
H2060 H 0.07681 0.5534 0.01472 0.0
H2061 H 0.11232 0.55697 0.03947 0.0
H2062 H 0.07827 0.50789 0.23314 0.0
H2063 H 0.07908 0.51422 0.15521 0.0
C2064 C 0.43789 0.52911 0.97832 0.0
C2065 C 0.42544 0.52251 0.97749 0.0
C2066 C 0.44384 0.53402 0.01823 0.0
C2067 C 0.43955 0.53425 0.14246 0.0
H2068 H 0.46833 0.56527 0.13048 0.0
C2069 C 0.4625 0.56677 0.28963 0.0
C2070 C 0.47441 0.56991 0.29591 0.0
C2071 C 0.45648 0.56083 0.25093 0.0
C2072 C 0.46032 0.5566 0.1342 0.0
H2073 H 0.4094 0.51555 0.01765 0.0
H2074 H 0.41973 0.52459 0.08723 0.0
H2075 H 0.45776 0.55478 0.06348 0.0
H2076 H 0.48946 0.56964 0.26609 0.0
H2077 H 0.47901 0.55967 0.19757 0.0
H2078 H 0.44199 0.53651 0.21366 0.0
C2079 C 0.42498 0.52571 0.05747 0.0
C2080 C 0.4543 0.55049 0.09585 0.0
C2081 C 0.41902 0.52054 0.0176 0.0
C2082 C 0.48029 0.56734 0.26212 0.0
C2083 C 0.47434 0.56165 0.223 0.0
C2084 C 0.44546 0.5405 0.18087 0.0
C2085 C 0.43748 0.53274 0.0581 0.0
C2086 C 0.44386 0.53918 0.09935 0.0
C2087 C 0.46234 0.55818 0.21745 0.0
C2088 C 0.45593 0.55169 0.17697 0.0
H2089 H 0.44304 0.53064 0.94784 0.0
H2090 H 0.45346 0.53899 0.0175 0.0
H2091 H 0.43168 0.52551 0.14669 0.0
H2092 H 0.45771 0.56853 0.31527 0.0
H2093 H 0.44724 0.55829 0.24714 0.0
C2094 C 0.48458 0.91005 0.97626 0.0
C2095 C 0.4833 0.91554 0.93736 0.0
C2096 C 0.47935 0.91046 0.01675 0.0
C2097 C 0.45494 0.9151 0.05649 0.0
H2098 H 0.46643 0.91283 0.17416 0.0
C2099 C 0.43295 0.91647 0.22396 0.0
C2100 C 0.43049 0.90706 0.25448 0.0
C2101 C 0.43984 0.91824 0.18551 0.0
C2102 C 0.46314 0.91344 0.14141 0.0
H2103 H 0.47653 0.92661 0.91068 0.0
H2104 H 0.46806 0.92797 0.98157 0.0
H2105 H 0.47862 0.91562 0.10773 0.0
H2106 H 0.43333 0.89216 0.26856 0.0
H2107 H 0.4455 0.8954 0.20174 0.0
H2108 H 0.43956 0.91314 0.09056 0.0
C2109 C 0.47254 0.92284 0.98077 0.0
C2110 C 0.47008 0.91499 0.10333 0.0
C2111 C 0.47751 0.92218 0.94022 0.0
C2112 C 0.43499 0.89943 0.24557 0.0
C2113 C 0.44204 0.90134 0.20759 0.0
C2114 C 0.44812 0.91377 0.09459 0.0
C2115 C 0.47295 0.91658 0.01917 0.0
C2116 C 0.46602 0.91572 0.06026 0.0
C2117 C 0.44457 0.91078 0.17737 0.0
C2118 C 0.45209 0.91278 0.1373 0.0
H2119 H 0.48894 0.9048 0.97472 0.0
H2120 H 0.4798 0.90545 0.0454 0.0
H2121 H 0.45133 0.91531 0.02398 0.0
H2122 H 0.42962 0.9225 0.22994 0.0
H2123 H 0.44168 0.92559 0.16262 0.0
C2124 C 0.22051 0.37583 0.08039 0.0
C2125 C 0.22974 0.3807 0.04832 0.0
C2126 C 0.21516 0.36379 0.09358 0.0
C2127 C 0.21887 0.33705 0.09163 0.0
H2128 H 0.18475 0.32012 0.11009 0.0
C2129 C 0.17634 0.28567 0.10811 0.0
C2130 C 0.18085 0.28033 0.13751 0.0
C2131 C 0.1828 0.29793 0.0984 0.0
C2132 C 0.19427 0.32466 0.10473 0.0
H2133 H 0.24072 0.37672 0.00538 0.0
H2134 H 0.23114 0.35559 0.02745 0.0
H2135 H 0.19506 0.34127 0.09008 0.0
H2136 H 0.19582 0.28373 0.17932 0.0
H2137 H 0.20705 0.3053 0.16305 0.0
H2138 H 0.21794 0.32023 0.10467 0.0
C2139 C 0.22818 0.36115 0.04308 0.0
C2140 C 0.20023 0.33687 0.09387 0.0
C2141 C 0.23362 0.37326 0.03016 0.0
C2142 C 0.19208 0.28756 0.15656 0.0
C2143 C 0.19854 0.29992 0.14705 0.0
C2144 C 0.21288 0.32477 0.10226 0.0
C2145 C 0.21882 0.35624 0.07472 0.0
C2146 C 0.2126 0.34324 0.08706 0.0
C2147 C 0.19392 0.30526 0.11811 0.0
C2148 C 0.20048 0.31841 0.1086 0.0
H2149 H 0.2174 0.38133 0.09557 0.0
H2150 H 0.20816 0.36041 0.11874 0.0
H2151 H 0.22843 0.34169 0.08715 0.0
H2152 H 0.1678 0.28038 0.09225 0.0
H2153 H 0.17908 0.30166 0.0751 0.0
C2154 C 0.69121 0.87723 0.17307 0.0
C2155 C 0.69242 0.8799 0.21907 0.0
C2156 C 0.68007 0.87174 0.15298 0.0
C2157 C 0.64799 0.8536 0.17759 0.0
H2158 H 0.6452 0.8644 0.05832 0.0
C2159 C 0.60921 0.84614 0.04234 0.0
C2160 C 0.60207 0.83359 0.04523 0.0
C2161 C 0.62016 0.85204 0.06412 0.0
C2162 C 0.64579 0.86135 0.09178 0.0
H2163 H 0.68277 0.87875 0.28005 0.0
H2164 H 0.66326 0.86919 0.24472 0.0
H2165 H 0.66429 0.87434 0.09617 0.0
H2166 H 0.60095 0.8174 0.073 0.0
H2167 H 0.62006 0.82765 0.11027 0.0
H2168 H 0.62945 0.8407 0.1734 0.0
C2169 C 0.67098 0.87129 0.22439 0.0
C2170 C 0.65677 0.86696 0.11328 0.0
C2171 C 0.68216 0.8768 0.24459 0.0
C2172 C 0.60619 0.82708 0.07007 0.0
C2173 C 0.61712 0.83296 0.0918 0.0
C2174 C 0.63701 0.84798 0.15606 0.0
C2175 C 0.66983 0.86878 0.17825 0.0
C2176 C 0.65802 0.86309 0.15629 0.0
C2177 C 0.62421 0.84551 0.08931 0.0
C2178 C 0.6358 0.85173 0.11276 0.0
H2179 H 0.69889 0.87942 0.15231 0.0
H2180 H 0.67948 0.86973 0.11758 0.0
H2181 H 0.64867 0.85035 0.21056 0.0
H2182 H 0.6063 0.85146 0.02369 0.0
H2183 H 0.62536 0.86172 0.06187 0.0
C2184 C 0.14113 0.78423 0.95007 0.0
C2185 C 0.14729 0.78003 0.97632 0.0
C2186 C 0.13684 0.79114 0.96909 0.0
C2187 C 0.1278 0.79734 0.07773 0.0
H2188 H 0.12769 0.82316 0.00993 0.0
C2189 C 0.11308 0.83564 0.09648 0.0
C2190 C 0.10171 0.82855 0.1157 0.0
C2191 C 0.11977 0.83049 0.0833 0.0
C2192 C 0.12777 0.81608 0.02964 0.0
H2193 H 0.15407 0.78013 0.04302 0.0
H2194 H 0.14667 0.79231 0.07599 0.0
H2195 H 0.13779 0.81327 0.97933 0.0
H2196 H 0.08862 0.81048 0.13728 0.0
H2197 H 0.1002 0.80146 0.11367 0.0
H2198 H 0.11783 0.80021 0.12817 0.0
C2199 C 0.14502 0.79009 0.04084 0.0
C2200 C 0.13344 0.81032 0.0118 0.0
C2201 C 0.14932 0.78317 0.0218 0.0
C2202 C 0.09734 0.81622 0.12264 0.0
C2203 C 0.10402 0.81106 0.10931 0.0
C2204 C 0.12213 0.80312 0.09562 0.0
C2205 C 0.13861 0.79404 0.01478 0.0
C2206 C 0.13338 0.80077 0.03535 0.0
C2207 C 0.11524 0.8181 0.0889 0.0
C2208 C 0.12193 0.81246 0.07151 0.0
H2209 H 0.13938 0.78198 0.91497 0.0
H2210 H 0.1318 0.79389 0.94818 0.0
H2211 H 0.12749 0.78995 0.09659 0.0
H2212 H 0.11678 0.84519 0.09095 0.0
H2213 H 0.12846 0.8362 0.0684 0.0
C2214 C 0.30367 0.1934 0.32064 0.0
C2215 C 0.3004 0.1817 0.33489 0.0
C2216 C 0.3155 0.20265 0.32278 0.0
C2217 C 0.34648 0.20923 0.34637 0.0
H2218 H 0.34929 0.23752 0.40144 0.0
C2219 C 0.37804 0.2465 0.48039 0.0
C2220 C 0.3895 0.25 0.46443 0.0
C2221 C 0.36811 0.2396 0.45418 0.0
C2222 C 0.34868 0.22971 0.38591 0.0
H2223 H 0.30718 0.17043 0.35985 0.0
H2224 H 0.32763 0.18653 0.36481 0.0
H2225 H 0.33025 0.22239 0.37258 0.0
H2226 H 0.39949 0.24902 0.40812 0.0
H2227 H 0.38202 0.23694 0.36183 0.0
H2228 H 0.3648 0.21626 0.36277 0.0
C2229 C 0.32115 0.18859 0.35122 0.0
C2230 C 0.33777 0.22107 0.36875 0.0
C2231 C 0.30935 0.17933 0.34869 0.0
C2232 C 0.39079 0.24655 0.42119 0.0
C2233 C 0.38079 0.23957 0.39485 0.0
C2234 C 0.35741 0.21786 0.36384 0.0
C2235 C 0.32433 0.20045 0.33962 0.0
C2236 C 0.33642 0.21052 0.3501 0.0
C2237 C 0.36932 0.236 0.4112 0.0
C2238 C 0.3585 0.22798 0.38528 0.0
H2239 H 0.29703 0.19551 0.30925 0.0
H2240 H 0.31767 0.21162 0.31264 0.0
H2241 H 0.34582 0.20133 0.33145 0.0
H2242 H 0.37669 0.24899 0.51349 0.0
H2243 H 0.35941 0.23682 0.46825 0.0
C2244 C 0.77293 0.14699 0.45502 0.0
C2245 C 0.76091 0.14379 0.45341 0.0
C2246 C 0.77652 0.13908 0.4403 0.0
C2247 C 0.76989 0.11741 0.35627 0.0
H2248 H 0.78872 0.10726 0.42442 0.0
C2249 C 0.78624 0.08788 0.27628 0.0
C2250 C 0.79732 0.08959 0.28943 0.0
C2251 C 0.78103 0.09345 0.29923 0.0
C2252 C 0.78363 0.11015 0.40458 0.0
H2253 H 0.74318 0.12974 0.43616 0.0
H2254 H 0.74957 0.11603 0.40888 0.0
H2255 H 0.78106 0.11884 0.46082 0.0
H2256 H 0.81173 0.09857 0.3365 0.0
H2257 H 0.80303 0.10883 0.37491 0.0
H2258 H 0.77297 0.10952 0.29932 0.0
C2259 C 0.75613 0.12459 0.4223 0.0
C2260 C 0.77915 0.11667 0.42569 0.0
C2261 C 0.75249 0.13239 0.43809 0.0
C2262 C 0.80313 0.09703 0.32581 0.0
C2263 C 0.79806 0.10283 0.34811 0.0
C2264 C 0.77458 0.11115 0.33486 0.0
C2265 C 0.76819 0.12795 0.42274 0.0
C2266 C 0.77227 0.12036 0.40165 0.0
C2267 C 0.78691 0.10111 0.33525 0.0
C2268 C 0.78157 0.10745 0.35862 0.0
H2269 H 0.77959 0.15572 0.46672 0.0
H2270 H 0.78587 0.14187 0.44069 0.0
H2271 H 0.76473 0.12033 0.33692 0.0
H2272 H 0.78148 0.08206 0.2487 0.0
H2273 H 0.77233 0.09164 0.28883 0.0
C2274 C 0.88679 0.69999 0.35742 0.0
C2275 C 0.89912 0.70688 0.35005 0.0
C2276 C 0.8815 0.68798 0.3707 0.0
C2277 C 0.88681 0.66555 0.42505 0.0
H2278 H 0.85809 0.64326 0.36286 0.0
C2279 C 0.86109 0.61376 0.45796 0.0
C2280 C 0.84862 0.60812 0.45737 0.0
C2281 C 0.8681 0.62592 0.44601 0.0
C2282 C 0.86603 0.64937 0.38091 0.0
H2283 H 0.91561 0.70657 0.35195 0.0
H2284 H 0.90628 0.68546 0.37558 0.0
H2285 H 0.86883 0.66424 0.33946 0.0
H2286 H 0.83378 0.61102 0.44631 0.0
H2287 H 0.84593 0.6321 0.42653 0.0
H2288 H 0.88382 0.65063 0.46712 0.0
C2289 C 0.90077 0.68945 0.37088 0.0
C2290 C 0.87219 0.66139 0.36739 0.0
C2291 C 0.90608 0.7015 0.35715 0.0
C2292 C 0.84335 0.61501 0.44647 0.0
C2293 C 0.85032 0.6271 0.43484 0.0
C2294 C 0.88057 0.65347 0.43883 0.0
C2295 C 0.8884 0.68255 0.37722 0.0
C2296 C 0.88252 0.66965 0.38977 0.0
C2297 C 0.86277 0.63265 0.4334 0.0
C2298 C 0.86997 0.64531 0.41741 0.0
H2299 H 0.88113 0.70382 0.35245 0.0
H2300 H 0.87197 0.68293 0.37599 0.0
H2301 H 0.89474 0.67175 0.44296 0.0
H2302 H 0.86542 0.6087 0.46618 0.0
H2303 H 0.87767 0.62994 0.44518 0.0
C2304 C 0.80243 0.7112 0.86343 0.0
C2305 C 0.80421 0.71099 0.81701 0.0
C2306 C 0.79511 0.70057 0.88745 0.0
C2307 C 0.77255 0.6682 0.87393 0.0
H2308 H 0.78511 0.66469 0.98752 0.0
C2309 C 0.76024 0.62256 0.95707 0.0
C2310 C 0.75926 0.62156 0.00415 0.0
C2311 C 0.76368 0.63351 0.93529 0.0
C2312 C 0.78136 0.66557 0.95623 0.0
H2313 H 0.79939 0.6995 0.75914 0.0
H2314 H 0.78692 0.68101 0.80103 0.0
H2315 H 0.79493 0.6839 0.94783 0.0
H2316 H 0.76046 0.63112 0.06504 0.0
H2317 H 0.76646 0.65019 0.02699 0.0
H2318 H 0.75925 0.64965 0.88181 0.0
C2319 C 0.79097 0.68937 0.81892 0.0
C2320 C 0.78698 0.67662 0.93346 0.0
C2321 C 0.79821 0.69999 0.79489 0.0
C2322 C 0.76122 0.63159 0.02876 0.0
C2323 C 0.76471 0.64254 0.00702 0.0
C2324 C 0.76698 0.65711 0.89661 0.0
C2325 C 0.78948 0.68949 0.86564 0.0
C2326 C 0.78276 0.67804 0.89169 0.0
C2327 C 0.76625 0.64369 0.96016 0.0
C2328 C 0.77142 0.65565 0.93773 0.0
H2329 H 0.80685 0.71955 0.8814 0.0
H2330 H 0.794 0.70103 0.92326 0.0
H2331 H 0.76894 0.66902 0.84222 0.0
H2332 H 0.75876 0.61499 0.93712 0.0
H2333 H 0.76486 0.63414 0.89915 0.0
C2334 C 0.37694 0.14286 0.94513 0.0
C2335 C 0.38033 0.1403 0.9868 0.0
C2336 C 0.36633 0.13445 0.9251 0.0
C2337 C 0.34182 0.10253 0.93316 0.0
H2338 H 0.3223 0.11554 0.89202 0.0
C2339 C 0.29133 0.07745 0.94876 0.0
C2340 C 0.28447 0.07807 0.91354 0.0
C2341 C 0.30368 0.08405 0.94661 0.0
C2342 C 0.32771 0.11177 0.90246 0.0
H2343 H 0.37552 0.12669 0.03898 0.0
H2344 H 0.35696 0.11218 0.00478 0.0
H2345 H 0.34318 0.12908 0.90852 0.0
H2346 H 0.28528 0.08541 0.84693 0.0
H2347 H 0.30703 0.09756 0.84414 0.0
H2348 H 0.3261 0.08526 0.92975 0.0
C2349 C 0.36255 0.12058 0.98704 0.0
C2350 C 0.3397 0.11952 0.91188 0.0
C2351 C 0.37318 0.12895 0.00691 0.0
C2352 C 0.29029 0.08513 0.87531 0.0
C2353 C 0.30272 0.09194 0.87347 0.0
C2354 C 0.32983 0.0948 0.92415 0.0
C2355 C 0.35886 0.12332 0.94639 0.0
C2356 C 0.3468 0.11501 0.92883 0.0
C2357 C 0.30951 0.09151 0.90934 0.0
C2358 C 0.32258 0.09938 0.91014 0.0
H2359 H 0.38232 0.15149 0.92854 0.0
H2360 H 0.36385 0.13677 0.89344 0.0
H2361 H 0.3471 0.09874 0.94512 0.0
H2362 H 0.28717 0.07204 0.97866 0.0
H2363 H 0.30868 0.08364 0.97499 0.0
C2364 C 0.90686 0.20225 0.82585 0.0
C2365 C 0.91097 0.20425 0.78115 0.0
C2366 C 0.90436 0.21031 0.84694 0.0
C2367 C 0.89566 0.23261 0.81966 0.0
H2368 H 0.8989 0.23748 0.94817 0.0
C2369 C 0.86505 0.24323 0.92261 0.0
C2370 C 0.86935 0.25018 0.96132 0.0
C2371 C 0.87231 0.24037 0.89765 0.0
C2372 C 0.8981 0.23643 0.91211 0.0
H2373 H 0.91625 0.21664 0.72431 0.0
H2374 H 0.91202 0.23083 0.76141 0.0
H2375 H 0.90837 0.22772 0.9115 0.0
H2376 H 0.88491 0.26017 0.00267 0.0
H2377 H 0.89767 0.25529 0.95865 0.0
H2378 H 0.88533 0.24127 0.82032 0.0
C2379 C 0.91054 0.22289 0.77985 0.0
C2380 C 0.90342 0.23069 0.89117 0.0
C2381 C 0.91302 0.21479 0.75867 0.0
C2382 C 0.88129 0.25471 0.97322 0.0
C2383 C 0.88858 0.25187 0.94813 0.0
C2384 C 0.89039 0.23841 0.84057 0.0
C2385 C 0.90596 0.22062 0.82395 0.0
C2386 C 0.90195 0.22837 0.84493 0.0
C2387 C 0.8841 0.24444 0.91063 0.0
C2388 C 0.89124 0.24006 0.88727 0.0
H2389 H 0.90519 0.19423 0.84422 0.0
H2390 H 0.90069 0.20817 0.88068 0.0
H2391 H 0.89429 0.23094 0.78403 0.0
H2392 H 0.8559 0.23961 0.9124 0.0
H2393 H 0.8685 0.2345 0.86935 0.0
C2394 C 0.71164 0.8017 0.69705 0.0
C2395 C 0.71018 0.79087 0.71453 0.0
C2396 C 0.70207 0.80202 0.677 0.0
C2397 C 0.66921 0.78432 0.66458 0.0
H2398 H 0.67539 0.79788 0.5438 0.0
C2399 C 0.63333 0.76723 0.52944 0.0
C2400 C 0.6326 0.77565 0.50125 0.0
C2401 C 0.64275 0.77086 0.55926 0.0
C2402 C 0.67354 0.79422 0.57774 0.0
H2403 H 0.69743 0.77208 0.72733 0.0
H2404 H 0.68087 0.77262 0.69293 0.0
H2405 H 0.69202 0.80169 0.59227 0.0
H2406 H 0.64127 0.79448 0.48194 0.0
H2407 H 0.65782 0.80078 0.53379 0.0
H2408 H 0.65074 0.77642 0.64939 0.0
C2409 C 0.68932 0.7809 0.69452 0.0
C2410 C 0.68306 0.79645 0.60558 0.0
C2411 C 0.69886 0.78056 0.71396 0.0
C2412 C 0.64157 0.78777 0.50323 0.0
C2413 C 0.65106 0.79139 0.53281 0.0
C2414 C 0.65972 0.78205 0.63673 0.0
C2415 C 0.69085 0.79154 0.67483 0.0
C2416 C 0.68098 0.79119 0.64879 0.0
C2417 C 0.6517 0.78298 0.56134 0.0
C2418 C 0.66178 0.78667 0.59257 0.0
H2419 H 0.72026 0.80974 0.69688 0.0
H2420 H 0.7035 0.81037 0.66228 0.0
H2421 H 0.66733 0.78033 0.69801 0.0
H2422 H 0.62657 0.75783 0.52878 0.0
H2423 H 0.64312 0.76414 0.58034 0.0
C2424 C 0.19563 0.91161 0.60021 0.0
C2425 C 0.19605 0.91026 0.64699 0.0
C2426 C 0.20177 0.90812 0.57141 0.0
C2427 C 0.22506 0.8996 0.5673 0.0
H2428 H 0.20642 0.87983 0.46866 0.0
C2429 C 0.23502 0.86604 0.47999 0.0
C2430 C 0.2328 0.86413 0.43379 0.0
C2431 C 0.23218 0.87364 0.50284 0.0
C2432 C 0.21187 0.88551 0.49547 0.0
H2433 H 0.20372 0.90473 0.70023 0.0
H2434 H 0.21431 0.89855 0.65006 0.0
H2435 H 0.19864 0.88981 0.51425 0.0
H2436 H 0.22636 0.86914 0.37496 0.0
H2437 H 0.22152 0.88251 0.41478 0.0
H2438 H 0.23817 0.89503 0.54906 0.0
C2439 C 0.20932 0.90239 0.63557 0.0
C2440 C 0.20739 0.89125 0.52166 0.0
C2441 C 0.20317 0.90586 0.66437 0.0
C2442 C 0.2281 0.87035 0.41062 0.0
C2443 C 0.22527 0.87797 0.43348 0.0
C2444 C 0.22955 0.89386 0.54104 0.0
C2445 C 0.20847 0.90323 0.58874 0.0
C2446 C 0.21384 0.89819 0.55834 0.0
C2447 C 0.22707 0.87953 0.48002 0.0
C2448 C 0.22291 0.88659 0.50528 0.0
H2449 H 0.19028 0.91504 0.58572 0.0
H2450 H 0.20108 0.90905 0.53549 0.0
H2451 H 0.23033 0.90502 0.59493 0.0
H2452 H 0.23863 0.86139 0.49888 0.0
H2453 H 0.23355 0.87452 0.53876 0.0
C2454 C 0.12917 0.36223 0.45741 0.0
C2455 C 0.13416 0.37365 0.4763 0.0
C2456 C 0.12126 0.35202 0.48227 0.0
C2457 C 0.11391 0.34163 0.59958 0.0
H2458 H 0.0885 0.31306 0.54559 0.0
C2459 C 0.08806 0.2977 0.70137 0.0
C2460 C 0.08746 0.28772 0.68057 0.0
C2461 C 0.09127 0.30819 0.67659 0.0
C2462 C 0.09555 0.32098 0.56111 0.0
H2463 H 0.13427 0.38337 0.53521 0.0
H2464 H 0.1203 0.36555 0.57835 0.0
H2465 H 0.09869 0.33174 0.50165 0.0
H2466 H 0.08906 0.28067 0.61694 0.0
H2467 H 0.09473 0.29897 0.57386 0.0
H2468 H 0.11099 0.33084 0.6586 0.0
C2469 C 0.1227 0.36447 0.54465 0.0
C2470 C 0.10141 0.33167 0.53597 0.0
C2471 C 0.13067 0.37468 0.51986 0.0
C2472 C 0.0895 0.28822 0.63403 0.0
C2473 C 0.09267 0.29869 0.60925 0.0
C2474 C 0.10802 0.33098 0.62474 0.0
C2475 C 0.11811 0.35299 0.52651 0.0
C2476 C 0.11084 0.34205 0.5546 0.0
C2477 C 0.09389 0.30889 0.6305 0.0
C2478 C 0.09896 0.32047 0.60548 0.0
H2479 H 0.13166 0.36112 0.42392 0.0
H2480 H 0.11802 0.34333 0.4674 0.0
H2481 H 0.12125 0.34938 0.61483 0.0
H2482 H 0.08646 0.29757 0.73711 0.0
H2483 H 0.092 0.31586 0.69374 0.0
C2484 C 0.04783 0.57757 0.8334 0.0
C2485 C 0.05741 0.5761 0.82148 0.0
C2486 C 0.0372 0.57173 0.8099 0.0
C2487 C 0.02243 0.55246 0.71007 0.0
H2488 H 0.99458 0.54133 0.78629 0.0
C2489 C 0.97539 0.51078 0.68571 0.0
C2490 C 0.96567 0.51239 0.6943 0.0
C2491 C 0.98702 0.52029 0.69048 0.0
C2492 C 0.00227 0.54453 0.76439 0.0
H2493 H 0.0637 0.56782 0.77477 0.0
H2494 H 0.04482 0.55684 0.73545 0.0
H2495 H 0.01404 0.55443 0.81678 0.0
H2496 H 0.96056 0.52547 0.71124 0.0
H2497 H 0.98086 0.54195 0.72063 0.0
H2498 H 0.01035 0.54159 0.65873 0.0
C2499 C 0.04556 0.56283 0.76188 0.0
C2500 C 0.01348 0.55213 0.78173 0.0
C2501 C 0.05637 0.56903 0.78459 0.0
C2502 C 0.96783 0.5239 0.7045 0.0
C2503 C 0.97944 0.53335 0.70995 0.0
C2504 C 0.01115 0.54458 0.693 0.0
C2505 C 0.03573 0.56388 0.77497 0.0
C2506 C 0.02376 0.55622 0.75495 0.0
C2507 C 0.98909 0.5315 0.70448 0.0
C2508 C 0.001 0.54057 0.72013 0.0
H2509 H 0.04854 0.58321 0.8612 0.0
H2510 H 0.03006 0.5732 0.81994 0.0
H2511 H 0.03008 0.55551 0.68814 0.0
H2512 H 0.97402 0.50204 0.67743 0.0
H2513 H 0.99434 0.51866 0.68632 0.0
C2514 C 0.43707 0.50447 0.76032 0.0
C2515 C 0.42899 0.49906 0.7962 0.0
C2516 C 0.44307 0.49902 0.7426 0.0
C2517 C 0.44226 0.46976 0.74034 0.0
H2518 H 0.47475 0.48949 0.6979 0.0
C2519 C 0.4732 0.45103 0.70402 0.0
C2520 C 0.47919 0.45425 0.66232 0.0
C2521 C 0.46701 0.45657 0.71872 0.0
C2522 C 0.46565 0.48389 0.7093 0.0
H2523 H 0.42096 0.48373 0.84199 0.0
H2524 H 0.43175 0.47445 0.81238 0.0
H2525 H 0.46417 0.49901 0.72781 0.0
H2526 H 0.48351 0.46595 0.60374 0.0
H2527 H 0.47283 0.47584 0.63015 0.0
H2528 H 0.44397 0.45466 0.72318 0.0
C2529 C 0.43322 0.48273 0.79689 0.0
C2530 C 0.45954 0.48932 0.7263 0.0
C2531 C 0.42708 0.4881 0.81415 0.0
C2532 C 0.47896 0.46325 0.63593 0.0
C2533 C 0.4729 0.46894 0.65107 0.0
C2534 C 0.44843 0.46435 0.72399 0.0
C2535 C 0.44127 0.48809 0.76074 0.0
C2536 C 0.44776 0.48233 0.74214 0.0
C2537 C 0.4668 0.46556 0.69243 0.0
C2538 C 0.46018 0.47136 0.70841 0.0
H2539 H 0.43864 0.51285 0.74539 0.0
H2540 H 0.449 0.50332 0.71424 0.0
H2541 H 0.43313 0.46407 0.75123 0.0
H2542 H 0.47317 0.44412 0.72518 0.0
H2543 H 0.46246 0.45388 0.75093 0.0
C2544 C 0.50158 0.94897 0.74229 0.0
C2545 C 0.508 0.94362 0.75841 0.0
C2546 C 0.50739 0.96111 0.73034 0.0
C2547 C 0.53506 0.98958 0.75102 0.0
H2548 H 0.52302 0.00126 0.65572 0.0
C2549 C 0.55548 0.04009 0.70829 0.0
C2550 C 0.54715 0.04398 0.70676 0.0
C2551 C 0.55171 0.02786 0.70876 0.0
C2552 C 0.52647 0.99812 0.6824 0.0
H2553 H 0.52566 0.94685 0.77322 0.0
H2554 H 0.53585 0.96805 0.75149 0.0
H2555 H 0.51482 0.97974 0.66643 0.0
H2556 H 0.52837 0.03805 0.70281 0.0
H2557 H 0.52183 0.01674 0.70311 0.0
H2558 H 0.54667 0.00801 0.76701 0.0
C2559 C 0.52627 0.96286 0.74893 0.0
C2560 C 0.52176 0.98579 0.68869 0.0
C2561 C 0.52043 0.95068 0.76117 0.0
C2562 C 0.53501 0.03537 0.70417 0.0
C2563 C 0.53126 0.02316 0.70405 0.0
C2564 C 0.53985 0.00191 0.74442 0.0
C2565 C 0.5198 0.96825 0.73382 0.0
C2566 C 0.52579 0.98135 0.72378 0.0
C2567 C 0.53956 0.01927 0.70703 0.0
C2568 C 0.53542 0.00629 0.71069 0.0
H2569 H 0.49199 0.94385 0.73982 0.0
H2570 H 0.50208 0.96497 0.71966 0.0
H2571 H 0.53828 0.9865 0.77871 0.0
H2572 H 0.5649 0.04649 0.71039 0.0
H2573 H 0.55829 0.0251 0.71081 0.0
C2574 C 0.44674 0.04498 0.257 0.0
C2575 C 0.45865 0.05416 0.25459 0.0
C2576 C 0.44381 0.033 0.25899 0.0
C2577 C 0.45645 0.01488 0.29847 0.0
H2578 H 0.42728 0.98879 0.25106 0.0
C2579 C 0.43411 0.96784 0.37806 0.0
C2580 C 0.429 0.95788 0.34994 0.0
C2581 C 0.43827 0.97936 0.36045 0.0
C2582 C 0.43554 0.99596 0.26408 0.0
H2583 H 0.47686 0.0582 0.25327 0.0
H2584 H 0.47183 0.03719 0.25486 0.0
H2585 H 0.43397 0.00935 0.22653 0.0
H2586 H 0.42412 0.95216 0.28126 0.0
H2587 H 0.43148 0.97236 0.25039 0.0
H2588 H 0.45804 0.00153 0.33606 0.0
C2589 C 0.46471 0.03921 0.25498 0.0
C2590 C 0.43932 0.00775 0.25033 0.0
C2591 C 0.46762 0.05122 0.25308 0.0
C2592 C 0.42798 0.95966 0.30383 0.0
C2593 C 0.43218 0.97122 0.28615 0.0
C2594 C 0.4527 0.00311 0.31209 0.0
C2595 C 0.45278 0.02997 0.25905 0.0
C2596 C 0.44967 0.01737 0.26822 0.0
C2597 C 0.43747 0.98121 0.31425 0.0
C2598 C 0.44205 0.99354 0.29597 0.0
H2599 H 0.43968 0.04708 0.25887 0.0
H2600 H 0.43456 0.02616 0.26293 0.0
H2601 H 0.4644 0.02206 0.31329 0.0
H2602 H 0.43497 0.96678 0.41377 0.0
H2603 H 0.44206 0.98683 0.38319 0.0
C2604 C 0.03649 0.45545 0.36377 0.0
C2605 C 0.04392 0.46618 0.34015 0.0
C2606 C 0.02547 0.44709 0.34651 0.0
C2607 C 0.00251 0.44543 0.2702 0.0
H2608 H 0.98779 0.41152 0.29942 0.0
C2609 C 0.9526 0.4111 0.23906 0.0
C2610 C 0.94675 0.40519 0.27914 0.0
C2611 C 0.96504 0.41768 0.23689 0.0
C2612 C 0.99183 0.42096 0.29066 0.0
H2613 H 0.0459 0.47627 0.27863 0.0
H2614 H 0.02673 0.46154 0.24802 0.0
H2615 H 0.009 0.42465 0.31182 0.0
H2616 H 0.94935 0.40098 0.34759 0.0
H2617 H 0.9709 0.41214 0.34335 0.0
H2618 H 0.9852 0.44167 0.24982 0.0
C2619 C 0.02931 0.45971 0.28041 0.0
C2620 C 0.00395 0.42849 0.298 0.0
C2621 C 0.04032 0.46812 0.29785 0.0
C2622 C 0.95356 0.40549 0.31622 0.0
C2623 C 0.96592 0.41184 0.3138 0.0
C2624 C 0.99039 0.43785 0.26235 0.0
C2625 C 0.02164 0.4492 0.30497 0.0
C2626 C 0.00934 0.4409 0.28952 0.0
C2627 C 0.97178 0.41813 0.27438 0.0
C2628 C 0.98488 0.42563 0.27407 0.0
H2629 H 0.03897 0.45367 0.39645 0.0
H2630 H 0.01975 0.43921 0.36678 0.0
H2631 H 0.00632 0.45494 0.26359 0.0
H2632 H 0.94762 0.41058 0.20939 0.0
H2633 H 0.96939 0.42238 0.20595 0.0
C2634 C 0.57286 0.52976 0.20212 0.0
C2635 C 0.58323 0.54091 0.19562 0.0
C2636 C 0.56183 0.52906 0.20649 0.0
C2637 C 0.54686 0.5472 0.19561 0.0
H2638 H 0.53045 0.53027 0.30502 0.0
C2639 C 0.52302 0.56328 0.3117 0.0
C2640 C 0.51207 0.55484 0.3311 0.0
C2641 C 0.52942 0.55954 0.28567 0.0
C2642 C 0.53477 0.53485 0.27389 0.0
H2643 H 0.59019 0.55996 0.18575 0.0
H2644 H 0.57114 0.55883 0.19358 0.0
H2645 H 0.54569 0.52687 0.27305 0.0
H2646 H 0.49916 0.53587 0.33803 0.0
H2647 H 0.51053 0.52933 0.29321 0.0
H2648 H 0.53645 0.55577 0.19833 0.0
C2649 C 0.57136 0.55056 0.19489 0.0
C2650 C 0.54347 0.53286 0.2554 0.0
C2651 C 0.58232 0.55124 0.19082 0.0
C2652 C 0.50758 0.54258 0.32354 0.0
C2653 C 0.51407 0.53883 0.29796 0.0
C2654 C 0.53824 0.54926 0.21432 0.0
C2655 C 0.56102 0.53952 0.20418 0.0
C2656 C 0.54996 0.53939 0.2171 0.0
C2657 C 0.52506 0.54728 0.27889 0.0
C2658 C 0.53245 0.54344 0.25455 0.0
H2659 H 0.57335 0.5217 0.20654 0.0
H2660 H 0.55401 0.52042 0.21341 0.0
H2661 H 0.55153 0.55218 0.16555 0.0
H2662 H 0.52669 0.57279 0.31673 0.0
H2663 H 0.53796 0.56624 0.2719 0.0
loop_
_geom_bond_atom_site_label_1
_geom_bond_atom_site_label_2
_geom_bond_distance
_geom_bond_site_symmetry_2
_ccdc_geom_bond_type
Mg0 O1 2.028 . S
Mg0 O7 1.986 . S
Mg0 O9 2.114 . S
Mg0 O10 2.251 . S
Mg0 O13 2.010 . S
O1 Mg0 2.028 . S
O1 C4 1.250 . S
O2 Mg3 2.028 . S
O2 C4 1.248 . S
Mg3 O2 2.028 . S
Mg3 O8 2.032 . S
Mg3 O10 2.079 . S
C4 O1 1.250 . S
C4 O2 1.248 . S
C5 O6 1.264 . S
C5 O13 1.249 . S
O6 C5 1.264 . S
O7 Mg0 1.986 . S
O7 C11 1.246 . S
O8 Mg3 2.032 . S
O8 C11 1.259 . S
O9 Mg0 2.114 . S
O9 C12 1.252 . S
O10 Mg0 2.251 . S
O10 Mg3 2.079 . S
O10 C12 1.273 . S
C11 O7 1.246 . S
C11 O8 1.259 . S
C12 O9 1.252 . S
C12 O10 1.273 . S
O13 Mg0 2.010 . S
O13 C5 1.249 . S
Mg14 O15 2.028 . S
Mg14 O21 1.986 . S
Mg14 O23 2.114 . S
Mg14 O24 2.251 . S
Mg14 O27 2.010 . S
O15 Mg14 2.028 . S
O15 C18 1.250 . S
O16 Mg17 2.028 . S
O16 C18 1.248 . S
Mg17 O16 2.028 . S
Mg17 O22 2.032 . S
Mg17 O24 2.079 . S
C18 O15 1.250 . S
C18 O16 1.248 . S
C19 O20 1.264 . S
C19 O27 1.249 . S
O20 C19 1.264 . S
O21 Mg14 1.986 . S
O21 C25 1.246 . S
O22 Mg17 2.032 . S
O22 C25 1.259 . S
O23 Mg14 2.114 . S
O23 C26 1.252 . S
O24 Mg14 2.251 . S
O24 Mg17 2.079 . S
O24 C26 1.273 . S
C25 O21 1.246 . S
C25 O22 1.259 . S
C26 O23 1.252 . S
C26 O24 1.273 . S
O27 Mg14 2.010 . S
O27 C19 1.249 . S
Mg28 O29 2.028 . S
Mg28 O35 1.986 . S
Mg28 O37 2.114 . S
Mg28 O38 2.251 . S
Mg28 O41 2.010 . S
O29 Mg28 2.028 . S
O29 C32 1.250 . S
O30 Mg31 2.028 . S
O30 C32 1.248 . S
Mg31 O30 2.028 . S
Mg31 O36 2.032 . S
Mg31 O38 2.079 . S
C32 O29 1.250 . S
C32 O30 1.248 . S
C33 O34 1.264 . S
C33 O41 1.249 . S
O34 C33 1.264 . S
O35 Mg28 1.986 . S
O35 C39 1.246 . S
O36 Mg31 2.032 . S
O36 C39 1.259 . S
O37 Mg28 2.114 . S
O37 C40 1.252 . S
O38 Mg28 2.251 . S
O38 Mg31 2.079 . S
O38 C40 1.273 . S
C39 O35 1.246 . S
C39 O36 1.259 . S
C40 O37 1.252 . S
C40 O38 1.273 . S
O41 Mg28 2.010 . S
O41 C33 1.249 . S
Mg42 O43 2.028 . S
Mg42 O49 1.986 . S
Mg42 O51 2.114 . S
Mg42 O52 2.251 . S
Mg42 O55 2.010 . S
O43 Mg42 2.028 . S
O43 C46 1.250 . S
O44 Mg45 2.028 . S
O44 C46 1.248 . S
Mg45 O44 2.028 . S
Mg45 O50 2.032 . S
Mg45 O52 2.079 . S
C46 O43 1.250 . S
C46 O44 1.248 . S
C47 O48 1.264 . S
C47 O55 1.249 . S
O48 C47 1.264 . S
O49 Mg42 1.986 . S
O49 C53 1.246 . S
O50 Mg45 2.032 . S
O50 C53 1.259 . S
O51 Mg42 2.114 . S
O51 C54 1.252 . S
O52 Mg42 2.251 . S
O52 Mg45 2.079 . S
O52 C54 1.273 . S
C53 O49 1.246 . S
C53 O50 1.259 . S
C54 O51 1.252 . S
C54 O52 1.273 . S
O55 Mg42 2.010 . S
O55 C47 1.249 . S
Mg56 O57 2.028 . S
Mg56 O63 1.986 . S
Mg56 O65 2.114 . S
Mg56 O66 2.251 . S
Mg56 O69 2.010 . S
O57 Mg56 2.028 . S
O57 C60 1.250 . S
O58 Mg59 2.028 . S
O58 C60 1.248 . S
Mg59 O58 2.028 . S
Mg59 O64 2.032 . S
Mg59 O66 2.079 . S
C60 O57 1.250 . S
C60 O58 1.248 . S
C61 O62 1.264 . S
C61 O69 1.249 . S
O62 C61 1.264 . S
O63 Mg56 1.986 . S
O63 C67 1.246 . S
O64 Mg59 2.032 . S
O64 C67 1.259 . S
O65 Mg56 2.114 . S
O65 C68 1.252 . S
O66 Mg56 2.251 . S
O66 Mg59 2.079 . S
O66 C68 1.273 . S
C67 O63 1.246 . S
C67 O64 1.259 . S
C68 O65 1.252 . S
C68 O66 1.273 . S
O69 Mg56 2.010 . S
O69 C61 1.249 . S
Mg70 O71 2.028 . S
Mg70 O77 1.986 . S
Mg70 O79 2.114 . S
Mg70 O80 2.251 . S
Mg70 O83 2.010 . S
O71 Mg70 2.028 . S
O71 C74 1.250 . S
O72 Mg73 2.028 . S
O72 C74 1.248 . S
Mg73 O72 2.028 . S
Mg73 O78 2.032 . S
Mg73 O80 2.079 . S
C74 O71 1.250 . S
C74 O72 1.248 . S
C75 O76 1.264 . S
C75 O83 1.249 . S
O76 C75 1.264 . S
O77 Mg70 1.986 . S
O77 C81 1.246 . S
O78 Mg73 2.032 . S
O78 C81 1.259 . S
O79 Mg70 2.114 . S
O79 C82 1.252 . S
O80 Mg70 2.251 . S
O80 Mg73 2.079 . S
O80 C82 1.273 . S
C81 O77 1.246 . S
C81 O78 1.259 . S
C82 O79 1.252 . S
C82 O80 1.273 . S
O83 Mg70 2.010 . S
O83 C75 1.249 . S
Mg84 O85 2.028 . S
Mg84 O91 1.986 . S
Mg84 O93 2.114 . S
Mg84 O94 2.251 . S
Mg84 O97 2.010 . S
O85 Mg84 2.028 . S
O85 C88 1.250 . S
O86 Mg87 2.028 . S
O86 C88 1.248 . S
Mg87 O86 2.028 . S
Mg87 O92 2.032 . S
Mg87 O94 2.079 . S
C88 O85 1.250 . S
C88 O86 1.248 . S
C89 O90 1.264 . S
C89 O97 1.249 . S
O90 C89 1.264 . S
O91 Mg84 1.986 . S
O91 C95 1.246 . S
O92 Mg87 2.032 . S
O92 C95 1.259 . S
O93 Mg84 2.114 . S
O93 C96 1.252 . S
O94 Mg84 2.251 . S
O94 Mg87 2.079 . S
O94 C96 1.273 . S
C95 O91 1.246 . S
C95 O92 1.259 . S
C96 O93 1.252 . S
C96 O94 1.273 . S
O97 Mg84 2.010 . S
O97 C89 1.249 . S
Mg98 O99 2.028 . S
Mg98 O105 1.986 . S
Mg98 O107 2.114 . S
Mg98 O108 2.251 . S
Mg98 O111 2.010 . S
O99 Mg98 2.028 . S
O99 C102 1.250 . S
O100 Mg101 2.028 . S
O100 C102 1.248 . S
Mg101 O100 2.028 . S
Mg101 O106 2.032 . S
Mg101 O108 2.079 . S
C102 O99 1.250 . S
C102 O100 1.248 . S
C103 O104 1.264 . S
C103 O111 1.249 . S
O104 C103 1.264 . S
O105 Mg98 1.986 . S
O105 C109 1.246 . S
O106 Mg101 2.032 . S
O106 C109 1.259 . S
O107 Mg98 2.114 . S
O107 C110 1.252 . S
O108 Mg98 2.251 . S
O108 Mg101 2.079 . S
O108 C110 1.273 . S
C109 O105 1.246 . S
C109 O106 1.259 . S
C110 O107 1.252 . S
C110 O108 1.273 . S
O111 Mg98 2.010 . S
O111 C103 1.249 . S
Mg112 O113 2.028 . S
Mg112 O119 1.986 . S
Mg112 O121 2.114 . S
Mg112 O122 2.251 . S
Mg112 O125 2.010 . S
O113 Mg112 2.028 . S
O113 C116 1.250 . S
O114 Mg115 2.028 . S
O114 C116 1.248 . S
Mg115 O114 2.028 . S
Mg115 O120 2.032 . S
Mg115 O122 2.079 . S
C116 O113 1.250 . S
C116 O114 1.248 . S
C117 O118 1.264 . S
C117 O125 1.249 . S
O118 C117 1.264 . S
O119 Mg112 1.986 . S
O119 C123 1.246 . S
O120 Mg115 2.032 . S
O120 C123 1.259 . S
O121 Mg112 2.114 . S
O121 C124 1.252 . S
O122 Mg112 2.251 . S
O122 Mg115 2.079 . S
O122 C124 1.273 . S
C123 O119 1.246 . S
C123 O120 1.259 . S
C124 O121 1.252 . S
C124 O122 1.273 . S
O125 Mg112 2.010 . S
O125 C117 1.249 . S
Mg126 O127 2.028 . S
Mg126 O133 1.986 . S
Mg126 O135 2.114 . S
Mg126 O136 2.251 . S
Mg126 O139 2.010 . S
O127 Mg126 2.028 . S
O127 C130 1.250 . S
O128 Mg129 2.028 . S
O128 C130 1.248 . S
Mg129 O128 2.028 . S
Mg129 O134 2.032 . S
Mg129 O136 2.079 . S
C130 O127 1.250 . S
C130 O128 1.248 . S
C131 O132 1.264 . S
C131 O139 1.249 . S
O132 C131 1.264 . S
O133 Mg126 1.986 . S
O133 C137 1.246 . S
O134 Mg129 2.032 . S
O134 C137 1.259 . S
O135 Mg126 2.114 . S
O135 C138 1.252 . S
O136 Mg126 2.251 . S
O136 Mg129 2.079 . S
O136 C138 1.273 . S
C137 O133 1.246 . S
C137 O134 1.259 . S
C138 O135 1.252 . S
C138 O136 1.273 . S
O139 Mg126 2.010 . S
O139 C131 1.249 . S
Mg140 O141 2.028 . S
Mg140 O147 1.986 . S
Mg140 O149 2.114 . S
Mg140 O150 2.251 . S
Mg140 O153 2.010 . S
O141 Mg140 2.028 . S
O141 C144 1.250 . S
O142 Mg143 2.028 . S
O142 C144 1.248 . S
Mg143 O142 2.028 . S
Mg143 O148 2.032 . S
Mg143 O150 2.079 . S
C144 O141 1.250 . S
C144 O142 1.248 . S
C145 O146 1.264 . S
C145 O153 1.249 . S
O146 C145 1.264 . S
O147 Mg140 1.986 . S
O147 C151 1.246 . S
O148 Mg143 2.032 . S
O148 C151 1.259 . S
O149 Mg140 2.114 . S
O149 C152 1.252 . S
O150 Mg140 2.251 . S
O150 Mg143 2.079 . S
O150 C152 1.273 . S
C151 O147 1.246 . S
C151 O148 1.259 . S
C152 O149 1.252 . S
C152 O150 1.273 . S
O153 Mg140 2.010 . S
O153 C145 1.249 . S
Mg154 O155 2.028 . S
Mg154 O161 1.986 . S
Mg154 O163 2.114 . S
Mg154 O164 2.251 . S
Mg154 O167 2.010 . S
O155 Mg154 2.028 . S
O155 C158 1.250 . S
O156 Mg157 2.028 . S
O156 C158 1.248 . S
Mg157 O156 2.028 . S
Mg157 O162 2.032 . S
Mg157 O164 2.079 . S
C158 O155 1.250 . S
C158 O156 1.248 . S
C159 O160 1.264 . S
C159 O167 1.249 . S
O160 C159 1.264 . S
O161 Mg154 1.986 . S
O161 C165 1.246 . S
O162 Mg157 2.032 . S
O162 C165 1.259 . S
O163 Mg154 2.114 . S
O163 C166 1.252 . S
O164 Mg154 2.251 . S
O164 Mg157 2.079 . S
O164 C166 1.273 . S
C165 O161 1.246 . S
C165 O162 1.259 . S
C166 O163 1.252 . S
C166 O164 1.273 . S
O167 Mg154 2.010 . S
O167 C159 1.249 . S
Mg168 O169 2.028 . S
Mg168 O175 1.986 . S
Mg168 O177 2.114 . S
Mg168 O178 2.251 . S
Mg168 O181 2.010 . S
O169 Mg168 2.028 . S
O169 C172 1.250 . S
O170 Mg171 2.028 . S
O170 C172 1.248 . S
Mg171 O170 2.028 . S
Mg171 O176 2.032 . S
Mg171 O178 2.079 . S
C172 O169 1.250 . S
C172 O170 1.248 . S
C173 O174 1.264 . S
C173 O181 1.249 . S
O174 C173 1.264 . S
O175 Mg168 1.986 . S
O175 C179 1.246 . S
O176 Mg171 2.032 . S
O176 C179 1.259 . S
O177 Mg168 2.114 . S
O177 C180 1.252 . S
O178 Mg168 2.251 . S
O178 Mg171 2.079 . S
O178 C180 1.273 . S
C179 O175 1.246 . S
C179 O176 1.259 . S
C180 O177 1.252 . S
C180 O178 1.273 . S
O181 Mg168 2.010 . S
O181 C173 1.249 . S
Mg182 O183 2.028 . S
Mg182 O189 1.986 . S
Mg182 O191 2.114 . S
Mg182 O192 2.251 . S
Mg182 O195 2.010 . S
O183 Mg182 2.028 . S
O183 C186 1.250 . S
O184 Mg185 2.028 . S
O184 C186 1.248 . S
Mg185 O184 2.028 . S
Mg185 O190 2.032 . S
Mg185 O192 2.079 . S
C186 O183 1.250 . S
C186 O184 1.248 . S
C187 O188 1.264 . S
C187 O195 1.249 . S
O188 C187 1.264 . S
O189 Mg182 1.986 . S
O189 C193 1.246 . S
O190 Mg185 2.032 . S
O190 C193 1.259 . S
O191 Mg182 2.114 . S
O191 C194 1.252 . S
O192 Mg182 2.251 . S
O192 Mg185 2.079 . S
O192 C194 1.273 . S
C193 O189 1.246 . S
C193 O190 1.259 . S
C194 O191 1.252 . S
C194 O192 1.273 . S
O195 Mg182 2.010 . S
O195 C187 1.249 . S
Mg196 O197 2.028 . S
Mg196 O203 1.986 . S
Mg196 O205 2.114 . S
Mg196 O206 2.251 . S
Mg196 O209 2.010 . S
O197 Mg196 2.028 . S
O197 C200 1.250 . S
O198 Mg199 2.028 . S
O198 C200 1.248 . S
Mg199 O198 2.028 . S
Mg199 O204 2.032 . S
Mg199 O206 2.079 . S
C200 O197 1.250 . S
C200 O198 1.248 . S
C201 O202 1.264 . S
C201 O209 1.249 . S
O202 C201 1.264 . S
O203 Mg196 1.986 . S
O203 C207 1.246 . S
O204 Mg199 2.032 . S
O204 C207 1.259 . S
O205 Mg196 2.114 . S
O205 C208 1.252 . S
O206 Mg196 2.251 . S
O206 Mg199 2.079 . S
O206 C208 1.273 . S
C207 O203 1.246 . S
C207 O204 1.259 . S
C208 O205 1.252 . S
C208 O206 1.273 . S
O209 Mg196 2.010 . S
O209 C201 1.249 . S
Mg210 O211 2.028 . S
Mg210 O217 1.986 . S
Mg210 O219 2.114 . S
Mg210 O220 2.251 . S
Mg210 O223 2.010 . S
O211 Mg210 2.028 . S
O211 C214 1.250 . S
O212 Mg213 2.028 . S
O212 C214 1.248 . S
Mg213 O212 2.028 . S
Mg213 O218 2.032 . S
Mg213 O220 2.079 . S
C214 O211 1.250 . S
C214 O212 1.248 . S
C215 O216 1.264 . S
C215 O223 1.249 . S
O216 C215 1.264 . S
O217 Mg210 1.986 . S
O217 C221 1.246 . S
O218 Mg213 2.032 . S
O218 C221 1.259 . S
O219 Mg210 2.114 . S
O219 C222 1.252 . S
O220 Mg210 2.251 . S
O220 Mg213 2.079 . S
O220 C222 1.273 . S
C221 O217 1.246 . S
C221 O218 1.259 . S
C222 O219 1.252 . S
C222 O220 1.273 . S
O223 Mg210 2.010 . S
O223 C215 1.249 . S
Mg224 O225 2.028 . S
Mg224 O231 1.986 . S
Mg224 O233 2.114 . S
Mg224 O234 2.251 . S
Mg224 O237 2.010 . S
O225 Mg224 2.028 . S
O225 C228 1.250 . S
O226 Mg227 2.028 . S
O226 C228 1.248 . S
Mg227 O226 2.028 . S
Mg227 O232 2.032 . S
Mg227 O234 2.079 . S
C228 O225 1.250 . S
C228 O226 1.248 . S
C229 O230 1.264 . S
C229 O237 1.249 . S
O230 C229 1.264 . S
O231 Mg224 1.986 . S
O231 C235 1.246 . S
O232 Mg227 2.032 . S
O232 C235 1.259 . S
O233 Mg224 2.114 . S
O233 C236 1.252 . S
O234 Mg224 2.251 . S
O234 Mg227 2.079 . S
O234 C236 1.273 . S
C235 O231 1.246 . S
C235 O232 1.259 . S
C236 O233 1.252 . S
C236 O234 1.273 . S
O237 Mg224 2.010 . S
O237 C229 1.249 . S
Mg238 O239 2.028 . S
Mg238 O245 1.986 . S
Mg238 O247 2.114 . S
Mg238 O248 2.251 . S
Mg238 O251 2.010 . S
O239 Mg238 2.028 . S
O239 C242 1.250 . S
O240 Mg241 2.028 . S
O240 C242 1.248 . S
Mg241 O240 2.028 . S
Mg241 O246 2.032 . S
Mg241 O248 2.079 . S
C242 O239 1.250 . S
C242 O240 1.248 . S
C243 O244 1.264 . S
C243 O251 1.249 . S
O244 C243 1.264 . S
O245 Mg238 1.986 . S
O245 C249 1.246 . S
O246 Mg241 2.032 . S
O246 C249 1.259 . S
O247 Mg238 2.114 . S
O247 C250 1.252 . S
O248 Mg238 2.251 . S
O248 Mg241 2.079 . S
O248 C250 1.273 . S
C249 O245 1.246 . S
C249 O246 1.259 . S
C250 O247 1.252 . S
C250 O248 1.273 . S
O251 Mg238 2.010 . S
O251 C243 1.249 . S
Mg252 O253 2.028 . S
Mg252 O259 1.986 . S
Mg252 O261 2.114 . S
Mg252 O262 2.251 . S
Mg252 O265 2.010 . S
O253 Mg252 2.028 . S
O253 C256 1.250 . S
O254 Mg255 2.028 . S
O254 C256 1.248 . S
Mg255 O254 2.028 . S
Mg255 O260 2.032 . S
Mg255 O262 2.079 . S
C256 O253 1.250 . S
C256 O254 1.248 . S
C257 O258 1.264 . S
C257 O265 1.249 . S
O258 C257 1.264 . S
O259 Mg252 1.986 . S
O259 C263 1.246 . S
O260 Mg255 2.032 . S
O260 C263 1.259 . S
O261 Mg252 2.114 . S
O261 C264 1.252 . S
O262 Mg252 2.251 . S
O262 Mg255 2.079 . S
O262 C264 1.273 . S
C263 O259 1.246 . S
C263 O260 1.259 . S
C264 O261 1.252 . S
C264 O262 1.273 . S
O265 Mg252 2.010 . S
O265 C257 1.249 . S
Mg266 O267 2.028 . S
Mg266 O273 1.986 . S
Mg266 O275 2.114 . S
Mg266 O276 2.251 . S
Mg266 O279 2.010 . S
O267 Mg266 2.028 . S
O267 C270 1.250 . S
O268 Mg269 2.028 . S
O268 C270 1.248 . S
Mg269 O268 2.028 . S
Mg269 O274 2.032 . S
Mg269 O276 2.079 . S
C270 O267 1.250 . S
C270 O268 1.248 . S
C271 O272 1.264 . S
C271 O279 1.249 . S
O272 C271 1.264 . S
O273 Mg266 1.986 . S
O273 C277 1.246 . S
O274 Mg269 2.032 . S
O274 C277 1.259 . S
O275 Mg266 2.114 . S
O275 C278 1.252 . S
O276 Mg266 2.251 . S
O276 Mg269 2.079 . S
O276 C278 1.273 . S
C277 O273 1.246 . S
C277 O274 1.259 . S
C278 O275 1.252 . S
C278 O276 1.273 . S
O279 Mg266 2.010 . S
O279 C271 1.249 . S
Mg280 O281 2.028 . S
Mg280 O287 1.986 . S
Mg280 O289 2.114 . S
Mg280 O290 2.251 . S
Mg280 O293 2.010 . S
O281 Mg280 2.028 . S
O281 C284 1.250 . S
O282 Mg283 2.028 . S
O282 C284 1.248 . S
Mg283 O282 2.028 . S
Mg283 O288 2.032 . S
Mg283 O290 2.079 . S
C284 O281 1.250 . S
C284 O282 1.248 . S
C285 O286 1.264 . S
C285 O293 1.249 . S
O286 C285 1.264 . S
O287 Mg280 1.986 . S
O287 C291 1.246 . S
O288 Mg283 2.032 . S
O288 C291 1.259 . S
O289 Mg280 2.114 . S
O289 C292 1.252 . S
O290 Mg280 2.251 . S
O290 Mg283 2.079 . S
O290 C292 1.273 . S
C291 O287 1.246 . S
C291 O288 1.259 . S
C292 O289 1.252 . S
C292 O290 1.273 . S
O293 Mg280 2.010 . S
O293 C285 1.249 . S
Mg294 O295 2.028 1_554 S
Mg294 O301 1.986 . S
Mg294 O303 2.114 . S
Mg294 O304 2.251 . S
Mg294 O307 2.010 . S
O295 Mg294 2.028 1_556 S
O295 C298 1.250 . S
O296 Mg297 2.028 1_556 S
O296 C298 1.248 . S
Mg297 O296 2.028 1_554 S
Mg297 O302 2.032 . S
Mg297 O304 2.079 . S
C298 O295 1.250 . S
C298 O296 1.248 . S
C299 O300 1.264 1_556 S
C299 O307 1.249 1_556 S
O300 C299 1.264 1_554 S
O301 Mg294 1.986 . S
O301 C305 1.246 . S
O302 Mg297 2.032 . S
O302 C305 1.259 . S
O303 Mg294 2.114 . S
O303 C306 1.252 . S
O304 Mg294 2.251 . S
O304 Mg297 2.079 . S
O304 C306 1.273 . S
C305 O301 1.246 . S
C305 O302 1.259 . S
C306 O303 1.252 . S
C306 O304 1.273 . S
O307 Mg294 2.010 . S
O307 C299 1.249 1_554 S
Mg308 O309 2.028 1_554 S
Mg308 O315 1.986 . S
Mg308 O317 2.114 . S
Mg308 O318 2.251 . S
Mg308 O321 2.010 . S
O309 Mg308 2.028 1_556 S
O309 C312 1.250 . S
O310 Mg311 2.028 1_556 S
O310 C312 1.248 . S
Mg311 O310 2.028 1_554 S
Mg311 O316 2.032 . S
Mg311 O318 2.079 . S
C312 O309 1.250 . S
C312 O310 1.248 . S
C313 O314 1.264 . S
C313 O321 1.249 . S
O314 C313 1.264 . S
O315 Mg308 1.986 . S
O315 C319 1.246 . S
O316 Mg311 2.032 . S
O316 C319 1.259 . S
O317 Mg308 2.114 . S
O317 C320 1.252 . S
O318 Mg308 2.251 . S
O318 Mg311 2.079 . S
O318 C320 1.273 . S
C319 O315 1.246 . S
C319 O316 1.259 . S
C320 O317 1.252 . S
C320 O318 1.273 . S
O321 Mg308 2.010 . S
O321 C313 1.249 . S
Mg322 O323 2.028 1_554 S
Mg322 O329 1.986 . S
Mg322 O331 2.114 . S
Mg322 O332 2.251 . S
Mg322 O335 2.010 . S
O323 Mg322 2.028 1_556 S
O323 C326 1.250 . S
O324 Mg325 2.028 1_556 S
O324 C326 1.248 . S
Mg325 O324 2.028 1_554 S
Mg325 O330 2.032 . S
Mg325 O332 2.079 . S
C326 O323 1.250 . S
C326 O324 1.248 . S
C327 O328 1.264 . S
C327 O335 1.249 . S
O328 C327 1.264 . S
O329 Mg322 1.986 . S
O329 C333 1.246 . S
O330 Mg325 2.032 . S
O330 C333 1.259 . S
O331 Mg322 2.114 . S
O331 C334 1.252 . S
O332 Mg322 2.251 . S
O332 Mg325 2.079 . S
O332 C334 1.273 . S
C333 O329 1.246 . S
C333 O330 1.259 . S
C334 O331 1.252 . S
C334 O332 1.273 . S
O335 Mg322 2.010 . S
O335 C327 1.249 . S
Mg336 O337 2.028 . S
Mg336 O343 1.986 . S
Mg336 O345 2.114 . S
Mg336 O346 2.251 . S
Mg336 O349 2.010 . S
O337 Mg336 2.028 . S
O337 C340 1.250 . S
O338 Mg339 2.028 . S
O338 C340 1.248 . S
Mg339 O338 2.028 . S
Mg339 O344 2.032 . S
Mg339 O346 2.079 . S
C340 O337 1.250 . S
C340 O338 1.248 . S
C341 O342 1.264 . S
C341 O349 1.249 . S
O342 C341 1.264 . S
O343 Mg336 1.986 . S
O343 C347 1.246 . S
O344 Mg339 2.032 . S
O344 C347 1.259 . S
O345 Mg336 2.114 . S
O345 C348 1.252 . S
O346 Mg336 2.251 . S
O346 Mg339 2.079 . S
O346 C348 1.273 . S
C347 O343 1.246 . S
C347 O344 1.259 . S
C348 O345 1.252 . S
C348 O346 1.273 . S
O349 Mg336 2.010 . S
O349 C341 1.249 . S
Mg350 O351 2.028 . S
Mg350 O357 1.986 . S
Mg350 O359 2.114 . S
Mg350 O360 2.251 . S
Mg350 O363 2.010 . S
O351 Mg350 2.028 . S
O351 C354 1.250 . S
O352 Mg353 2.028 . S
O352 C354 1.248 . S
Mg353 O352 2.028 . S
Mg353 O358 2.032 . S
Mg353 O360 2.079 . S
C354 O351 1.250 . S
C354 O352 1.248 . S
C355 O356 1.264 . S
C355 O363 1.249 . S
O356 C355 1.264 . S
O357 Mg350 1.986 . S
O357 C361 1.246 . S
O358 Mg353 2.032 . S
O358 C361 1.259 . S
O359 Mg350 2.114 . S
O359 C362 1.252 . S
O360 Mg350 2.251 . S
O360 Mg353 2.079 . S
O360 C362 1.273 . S
C361 O357 1.246 . S
C361 O358 1.259 . S
C362 O359 1.252 . S
C362 O360 1.273 . S
O363 Mg350 2.010 . S
O363 C355 1.249 . S
Mg364 O365 2.028 . S
Mg364 O371 1.986 . S
Mg364 O373 2.114 . S
Mg364 O374 2.251 . S
Mg364 O377 2.010 . S
O365 Mg364 2.028 . S
O365 C368 1.250 . S
O366 Mg367 2.028 . S
O366 C368 1.248 . S
Mg367 O366 2.028 . S
Mg367 O372 2.032 . S
Mg367 O374 2.079 . S
C368 O365 1.250 . S
C368 O366 1.248 . S
C369 O370 1.264 . S
C369 O377 1.249 . S
O370 C369 1.264 . S
O371 Mg364 1.986 . S
O371 C375 1.246 . S
O372 Mg367 2.032 . S
O372 C375 1.259 . S
O373 Mg364 2.114 . S
O373 C376 1.252 . S
O374 Mg364 2.251 . S
O374 Mg367 2.079 . S
O374 C376 1.273 . S
C375 O371 1.246 . S
C375 O372 1.259 . S
C376 O373 1.252 . S
C376 O374 1.273 . S
O377 Mg364 2.010 . S
O377 C369 1.249 . S
Mg378 O379 2.028 . S
Mg378 O385 1.986 . S
Mg378 O387 2.114 1_556 S
Mg378 O388 2.251 1_556 S
Mg378 O391 2.010 . S
O379 Mg378 2.028 . S
O379 C382 1.250 . S
O380 Mg381 2.028 1_554 S
O380 C382 1.248 1_554 S
Mg381 O380 2.028 1_556 S
Mg381 O386 2.032 . S
Mg381 O388 2.079 1_556 S
C382 O379 1.250 . S
C382 O380 1.248 1_556 S
C383 O384 1.264 . S
C383 O391 1.249 . S
O384 C383 1.264 . S
O385 Mg378 1.986 . S
O385 C389 1.246 . S
O386 Mg381 2.032 . S
O386 C389 1.259 . S
O387 Mg378 2.114 1_554 S
O387 C390 1.252 . S
O388 Mg378 2.251 1_554 S
O388 Mg381 2.079 1_554 S
O388 C390 1.273 . S
C389 O385 1.246 . S
C389 O386 1.259 . S
C390 O387 1.252 . S
C390 O388 1.273 . S
O391 Mg378 2.010 . S
O391 C383 1.249 . S
Mg392 O393 2.028 1_556 S
Mg392 O399 1.986 1_556 S
Mg392 O401 2.114 . S
Mg392 O402 2.251 . S
Mg392 O405 2.010 1_556 S
O393 Mg392 2.028 1_554 S
O393 C396 1.243 1_554 S
O394 Mg395 2.028 . S
O394 C396 1.264 . S
Mg395 O394 2.028 . S
Mg395 O400 2.032 . S
Mg395 O402 2.079 . S
C396 O393 1.243 1_556 S
C396 O394 1.264 . S
C397 O398 1.264 . S
C397 O405 1.249 . S
O398 C397 1.264 . S
O399 Mg392 1.986 1_554 S
O399 C403 1.246 1_554 S
O400 Mg395 2.032 . S
O400 C403 1.259 . S
O401 Mg392 2.114 . S
O401 C404 1.252 . S
O402 Mg392 2.251 . S
O402 Mg395 2.079 . S
O402 C404 1.273 . S
C403 O399 1.246 1_556 S
C403 O400 1.259 . S
C404 O401 1.252 . S
C404 O402 1.273 . S
O405 Mg392 2.010 1_554 S
O405 C397 1.249 . S
Mg406 O407 2.028 . S
Mg406 O413 1.986 . S
Mg406 O415 2.114 1_556 S
Mg406 O416 2.251 1_556 S
Mg406 O419 2.010 . S
O407 Mg406 2.028 . S
O407 C410 1.253 . S
O408 Mg409 2.028 1_554 S
O408 C410 1.247 1_554 S
Mg409 O408 2.028 1_556 S
Mg409 O414 2.032 . S
Mg409 O416 2.079 1_556 S
C410 O407 1.253 . S
C410 O408 1.247 1_556 S
C411 O412 1.264 . S
C411 O419 1.249 . S
O412 C411 1.264 . S
O413 Mg406 1.986 . S
O413 C417 1.246 . S
O414 Mg409 2.032 . S
O414 C417 1.259 . S
O415 Mg406 2.114 1_554 S
O415 C418 1.252 . S
O416 Mg406 2.251 1_554 S
O416 Mg409 2.079 1_554 S
O416 C418 1.273 . S
C417 O413 1.246 . S
C417 O414 1.259 . S
C418 O415 1.252 . S
C418 O416 1.273 . S
O419 Mg406 2.010 . S
O419 C411 1.249 . S
Mg420 O421 2.028 . S
Mg420 O427 1.986 . S
Mg420 O429 2.114 . S
Mg420 O430 2.251 . S
Mg420 O433 2.010 . S
O421 Mg420 2.028 . S
O421 C424 1.250 . S
O422 Mg423 2.028 . S
O422 C424 1.248 . S
Mg423 O422 2.028 . S
Mg423 O428 2.032 . S
Mg423 O430 2.079 . S
C424 O421 1.250 . S
C424 O422 1.248 . S
C425 O426 1.264 . S
C425 O433 1.249 . S
O426 C425 1.264 . S
O427 Mg420 1.986 . S
O427 C431 1.246 . S
O428 Mg423 2.032 . S
O428 C431 1.259 . S
O429 Mg420 2.114 . S
O429 C432 1.252 . S
O430 Mg420 2.251 . S
O430 Mg423 2.079 . S
O430 C432 1.273 . S
C431 O427 1.246 . S
C431 O428 1.259 . S
C432 O429 1.252 . S
C432 O430 1.273 . S
O433 Mg420 2.010 . S
O433 C425 1.249 . S
Mg434 O435 2.028 . S
Mg434 O441 1.986 . S
Mg434 O443 2.114 . S
Mg434 O444 2.251 . S
Mg434 O447 2.010 . S
O435 Mg434 2.028 . S
O435 C438 1.250 . S
O436 Mg437 2.028 . S
O436 C438 1.248 . S
Mg437 O436 2.028 . S
Mg437 O442 2.032 . S
Mg437 O444 2.079 . S
C438 O435 1.250 . S
C438 O436 1.248 . S
C439 O440 1.264 . S
C439 O447 1.249 . S
O440 C439 1.264 . S
O441 Mg434 1.986 . S
O441 C445 1.246 . S
O442 Mg437 2.032 . S
O442 C445 1.259 . S
O443 Mg434 2.114 . S
O443 C446 1.252 . S
O444 Mg434 2.251 . S
O444 Mg437 2.079 . S
O444 C446 1.273 . S
C445 O441 1.246 . S
C445 O442 1.259 . S
C446 O443 1.252 . S
C446 O444 1.273 . S
O447 Mg434 2.010 . S
O447 C439 1.249 . S
Mg448 O449 2.028 . S
Mg448 O455 1.986 . S
Mg448 O457 2.114 . S
Mg448 O458 2.251 . S
Mg448 O461 2.010 . S
O449 Mg448 2.028 . S
O449 C452 1.250 . S
O450 Mg451 2.028 . S
O450 C452 1.248 . S
Mg451 O450 2.028 . S
Mg451 O456 2.032 . S
Mg451 O458 2.079 . S
C452 O449 1.250 . S
C452 O450 1.248 . S
C453 O454 1.264 . S
C453 O461 1.249 . S
O454 C453 1.264 . S
O455 Mg448 1.986 . S
O455 C459 1.246 . S
O456 Mg451 2.032 . S
O456 C459 1.259 . S
O457 Mg448 2.114 . S
O457 C460 1.252 . S
O458 Mg448 2.251 . S
O458 Mg451 2.079 . S
O458 C460 1.273 . S
C459 O455 1.246 . S
C459 O456 1.259 . S
C460 O457 1.252 . S
C460 O458 1.273 . S
O461 Mg448 2.010 . S
O461 C453 1.249 . S
Mg462 O463 2.028 . S
Mg462 O469 1.986 . S
Mg462 O471 2.114 . S
Mg462 O472 2.251 . S
Mg462 O475 2.010 . S
O463 Mg462 2.028 . S
O463 C466 1.250 . S
O464 Mg465 2.028 . S
O464 C466 1.248 . S
Mg465 O464 2.028 . S
Mg465 O470 2.032 . S
Mg465 O472 2.079 . S
C466 O463 1.250 . S
C466 O464 1.248 . S
C467 O468 1.264 . S
C467 O475 1.249 . S
O468 C467 1.264 . S
O469 Mg462 1.986 . S
O469 C473 1.246 . S
O470 Mg465 2.032 . S
O470 C473 1.259 . S
O471 Mg462 2.114 . S
O471 C474 1.252 . S
O472 Mg462 2.251 . S
O472 Mg465 2.079 . S
O472 C474 1.273 . S
C473 O469 1.246 . S
C473 O470 1.259 . S
C474 O471 1.252 . S
C474 O472 1.273 . S
O475 Mg462 2.010 . S
O475 C467 1.249 . S
Mg476 O477 2.028 . S
Mg476 O483 1.986 . S
Mg476 O485 2.114 . S
Mg476 O486 2.251 . S
Mg476 O489 2.010 . S
O477 Mg476 2.028 . S
O477 C480 1.250 . S
O478 Mg479 2.028 . S
O478 C480 1.248 . S
Mg479 O478 2.028 . S
Mg479 O484 2.032 . S
Mg479 O486 2.079 . S
C480 O477 1.250 . S
C480 O478 1.248 . S
C481 O482 1.264 . S
C481 O489 1.249 . S
O482 C481 1.264 . S
O483 Mg476 1.986 . S
O483 C487 1.246 . S
O484 Mg479 2.032 . S
O484 C487 1.259 . S
O485 Mg476 2.114 . S
O485 C488 1.252 . S
O486 Mg476 2.251 . S
O486 Mg479 2.079 . S
O486 C488 1.273 . S
C487 O483 1.246 . S
C487 O484 1.259 . S
C488 O485 1.252 . S
C488 O486 1.273 . S
O489 Mg476 2.010 . S
O489 C481 1.249 . S
Mg490 O491 2.028 . S
Mg490 O497 1.986 . S
Mg490 O499 2.114 . S
Mg490 O500 2.251 . S
Mg490 O503 2.010 . S
O491 Mg490 2.028 . S
O491 C494 1.250 . S
O492 Mg493 2.028 . S
O492 C494 1.248 . S
Mg493 O492 2.028 . S
Mg493 O498 2.032 . S
Mg493 O500 2.079 . S
C494 O491 1.250 . S
C494 O492 1.248 . S
C495 O496 1.264 . S
C495 O503 1.249 . S
O496 C495 1.264 . S
O497 Mg490 1.986 . S
O497 C501 1.246 . S
O498 Mg493 2.032 . S
O498 C501 1.259 . S
O499 Mg490 2.114 . S
O499 C502 1.252 . S
O500 Mg490 2.251 . S
O500 Mg493 2.079 . S
O500 C502 1.273 . S
C501 O497 1.246 . S
C501 O498 1.259 . S
C502 O499 1.252 . S
C502 O500 1.273 . S
O503 Mg490 2.010 . S
O503 C495 1.249 . S
C504 C505 1.349 . S
C504 C506 1.327 . S
C504 H529 0.950 . S
C505 C504 1.349 . S
C505 C521 1.349 . S
C506 C504 1.327 . S
C506 C525 1.429 . S
C506 H530 0.950 . S
C507 C524 1.574 . S
C507 C526 1.368 . S
C507 H531 0.949 . S
H508 C512 0.949 . S
C509 C510 1.349 . S
C509 C511 1.327 . S
C509 H532 0.950 . S
C510 C509 1.349 . S
C510 C522 1.349 . S
C511 C509 1.327 . S
C511 C527 1.429 . S
C511 H533 0.950 . S
C512 H508 0.949 . S
C512 C520 1.574 . S
C512 C528 1.368 . S
H513 C521 0.950 . S
H514 C519 0.950 . S
H515 C520 0.949 . S
H516 C522 0.950 . S
H517 C523 0.950 . S
H518 C524 0.949 . S
C519 H514 0.950 . S
C519 C521 1.327 . S
C519 C525 1.429 . S
C520 C512 1.574 . S
C520 H515 0.949 . S
C520 C526 1.368 . S
C521 C505 1.349 . S
C521 H513 0.950 . S
C521 C519 1.327 . S
C522 C510 1.349 . S
C522 H516 0.950 . S
C522 C523 1.327 . S
C523 H517 0.950 . S
C523 C522 1.327 . S
C523 C527 1.429 . S
C524 C507 1.574 . S
C524 H518 0.949 . S
C524 C528 1.368 . S
C525 C506 1.429 . S
C525 C519 1.429 . S
C525 C526 1.523 . S
C526 C507 1.368 . S
C526 C520 1.368 . S
C526 C525 1.523 . S
C527 C511 1.429 . S
C527 C523 1.429 . S
C527 C528 1.523 . S
C528 C512 1.368 . S
C528 C524 1.368 . S
C528 C527 1.523 . S
H529 C504 0.950 . S
H530 C506 0.950 . S
H531 C507 0.949 . S
H532 C509 0.950 . S
H533 C511 0.950 . S
C534 C535 1.349 . S
C534 C536 1.327 . S
C534 H559 0.950 . S
C535 C534 1.349 . S
C535 C551 1.349 . S
C536 C534 1.327 . S
C536 C555 1.429 . S
C536 H560 0.950 . S
C537 C554 1.574 1_545 S
C537 C556 1.368 . S
C537 H561 0.949 . S
H538 C542 0.949 . S
C539 C540 1.349 . S
C539 C541 1.327 . S
C539 H562 0.950 . S
C540 C539 1.349 . S
C540 C552 1.349 . S
C541 C539 1.327 . S
C541 C557 1.429 . S
C541 H563 0.950 . S
C542 H538 0.949 . S
C542 C550 1.574 1_565 S
C542 C558 1.368 . S
H543 C551 0.950 . S
H544 C549 0.950 . S
H545 C550 0.949 . S
H546 C552 0.950 . S
H547 C553 0.950 . S
H548 C554 0.949 . S
C549 H544 0.950 . S
C549 C551 1.327 . S
C549 C555 1.429 . S
C550 C542 1.574 1_545 S
C550 H545 0.949 . S
C550 C556 1.368 . S
C551 C535 1.349 . S
C551 H543 0.950 . S
C551 C549 1.327 . S
C552 C540 1.349 . S
C552 H546 0.950 . S
C552 C553 1.327 . S
C553 H547 0.950 . S
C553 C552 1.327 . S
C553 C557 1.429 . S
C554 C537 1.574 1_565 S
C554 H548 0.949 . S
C554 C558 1.368 . S
C555 C536 1.429 . S
C555 C549 1.429 . S
C555 C556 1.523 . S
C556 C537 1.368 . S
C556 C550 1.368 . S
C556 C555 1.523 . S
C557 C541 1.429 . S
C557 C553 1.429 . S
C557 C558 1.523 . S
C558 C542 1.368 . S
C558 C554 1.368 . S
C558 C557 1.523 . S
H559 C534 0.950 . S
H560 C536 0.950 . S
H561 C537 0.949 . S
H562 C539 0.950 . S
H563 C541 0.950 . S
C564 C565 1.349 . S
C564 C566 1.327 . S
C564 H589 0.950 . S
C565 C564 1.349 . S
C565 C581 1.349 . S
C566 C564 1.327 . S
C566 C585 1.429 . S
C566 H590 0.950 . S
C567 C584 1.574 1_655 S
C567 C586 1.368 . S
C567 H591 0.949 . S
H568 C572 0.949 . S
C569 C570 1.349 . S
C569 C571 1.327 . S
C569 H592 0.950 . S
C570 C569 1.349 . S
C570 C582 1.349 . S
C571 C569 1.327 . S
C571 C587 1.429 . S
C571 H593 0.950 . S
C572 H568 0.949 . S
C572 C580 1.574 1_455 S
C572 C588 1.368 . S
H573 C581 0.950 . S
H574 C579 0.950 . S
H575 C580 0.949 . S
H576 C582 0.950 . S
H577 C583 0.950 . S
H578 C584 0.949 . S
C579 H574 0.950 . S
C579 C581 1.327 . S
C579 C585 1.429 . S
C580 C572 1.574 1_655 S
C580 H575 0.949 . S
C580 C586 1.368 . S
C581 C565 1.349 . S
C581 H573 0.950 . S
C581 C579 1.327 . S
C582 C570 1.349 . S
C582 H576 0.950 . S
C582 C583 1.327 . S
C583 H577 0.950 . S
C583 C582 1.327 . S
C583 C587 1.429 . S
C584 C567 1.574 1_455 S
C584 H578 0.949 . S
C584 C588 1.368 . S
C585 C566 1.429 . S
C585 C579 1.429 . S
C585 C586 1.523 . S
C586 C567 1.368 . S
C586 C580 1.368 . S
C586 C585 1.523 . S
C587 C571 1.429 . S
C587 C583 1.429 . S
C587 C588 1.523 . S
C588 C572 1.368 . S
C588 C584 1.368 . S
C588 C587 1.523 . S
H589 C564 0.950 . S
H590 C566 0.950 . S
H591 C567 0.949 . S
H592 C569 0.950 . S
H593 C571 0.950 . S
C594 C595 1.349 . S
C594 C596 1.327 . S
C594 H619 0.950 . S
C595 C594 1.349 . S
C595 C611 1.349 . S
C596 C594 1.327 . S
C596 C615 1.429 . S
C596 H620 0.950 . S
C597 C614 1.574 . S
C597 C616 1.368 . S
C597 H621 0.949 . S
H598 C602 0.949 . S
C599 C600 1.349 . S
C599 C601 1.327 . S
C599 H622 0.950 . S
C600 C599 1.349 . S
C600 C612 1.349 . S
C601 C599 1.327 . S
C601 C617 1.429 . S
C601 H623 0.950 . S
C602 H598 0.949 . S
C602 C610 1.574 . S
C602 C618 1.368 . S
H603 C611 0.950 . S
H604 C609 0.950 . S
H605 C610 0.949 . S
H606 C612 0.950 . S
H607 C613 0.950 . S
H608 C614 0.949 . S
C609 H604 0.950 . S
C609 C611 1.327 . S
C609 C615 1.429 . S
C610 C602 1.574 . S
C610 H605 0.949 . S
C610 C616 1.368 . S
C611 C595 1.349 . S
C611 H603 0.950 . S
C611 C609 1.327 . S
C612 C600 1.349 . S
C612 H606 0.950 . S
C612 C613 1.327 . S
C613 H607 0.950 . S
C613 C612 1.327 . S
C613 C617 1.429 . S
C614 C597 1.574 . S
C614 H608 0.949 . S
C614 C618 1.368 . S
C615 C596 1.429 . S
C615 C609 1.429 . S
C615 C616 1.523 . S
C616 C597 1.368 . S
C616 C610 1.368 . S
C616 C615 1.523 . S
C617 C601 1.429 . S
C617 C613 1.429 . S
C617 C618 1.523 . S
C618 C602 1.368 . S
C618 C614 1.368 . S
C618 C617 1.523 . S
H619 C594 0.950 . S
H620 C596 0.950 . S
H621 C597 0.949 . S
H622 C599 0.950 . S
H623 C601 0.950 . S
C624 C625 1.349 . S
C624 C626 1.327 . S
C624 H649 0.950 . S
C625 C624 1.349 . S
C625 C641 1.349 . S
C626 C624 1.327 . S
C626 C645 1.429 . S
C626 H650 0.950 . S
C627 C644 1.574 1_545 S
C627 C646 1.368 . S
C627 H651 0.949 . S
H628 C632 0.949 . S
C629 C630 1.349 . S
C629 C631 1.327 . S
C629 H652 0.950 . S
C630 C629 1.349 . S
C630 C642 1.349 . S
C631 C629 1.327 . S
C631 C647 1.429 . S
C631 H653 0.950 . S
C632 H628 0.949 . S
C632 C640 1.574 1_565 S
C632 C648 1.368 . S
H633 C641 0.950 . S
H634 C639 0.950 . S
H635 C640 0.949 . S
H636 C642 0.950 . S
H637 C643 0.950 . S
H638 C644 0.949 . S
C639 H634 0.950 . S
C639 C641 1.327 . S
C639 C645 1.429 . S
C640 C632 1.574 1_545 S
C640 H635 0.949 . S
C640 C646 1.368 . S
C641 C625 1.349 . S
C641 H633 0.950 . S
C641 C639 1.327 . S
C642 C630 1.349 . S
C642 H636 0.950 . S
C642 C643 1.327 . S
C643 H637 0.950 . S
C643 C642 1.327 . S
C643 C647 1.429 . S
C644 C627 1.574 1_565 S
C644 H638 0.949 . S
C644 C648 1.368 . S
C645 C626 1.429 . S
C645 C639 1.429 . S
C645 C646 1.523 . S
C646 C627 1.368 . S
C646 C640 1.368 . S
C646 C645 1.523 . S
C647 C631 1.429 . S
C647 C643 1.429 . S
C647 C648 1.523 . S
C648 C632 1.368 . S
C648 C644 1.368 . S
C648 C647 1.523 . S
H649 C624 0.950 . S
H650 C626 0.950 . S
H651 C627 0.949 . S
H652 C629 0.950 . S
H653 C631 0.950 . S
C654 C655 1.349 . S
C654 C656 1.327 . S
C654 H679 0.950 . S
C655 C654 1.349 . S
C655 C671 1.349 . S
C656 C654 1.327 . S
C656 C675 1.429 . S
C656 H680 0.950 . S
C657 C674 1.574 1_455 S
C657 C676 1.368 . S
C657 H681 0.949 . S
H658 C662 0.949 . S
C659 C660 1.349 . S
C659 C661 1.327 . S
C659 H682 0.950 . S
C660 C659 1.349 . S
C660 C672 1.349 . S
C661 C659 1.327 . S
C661 C677 1.429 . S
C661 H683 0.950 . S
C662 H658 0.949 . S
C662 C670 1.574 1_655 S
C662 C678 1.368 . S
H663 C671 0.950 . S
H664 C669 0.950 . S
H665 C670 0.949 . S
H666 C672 0.950 . S
H667 C673 0.950 . S
H668 C674 0.949 . S
C669 H664 0.950 . S
C669 C671 1.327 . S
C669 C675 1.429 . S
C670 C662 1.574 1_455 S
C670 H665 0.949 . S
C670 C676 1.368 . S
C671 C655 1.349 . S
C671 H663 0.950 . S
C671 C669 1.327 . S
C672 C660 1.349 . S
C672 H666 0.950 . S
C672 C673 1.327 . S
C673 H667 0.950 . S
C673 C672 1.327 . S
C673 C677 1.429 . S
C674 C657 1.574 1_655 S
C674 H668 0.949 . S
C674 C678 1.368 . S
C675 C656 1.429 . S
C675 C669 1.429 . S
C675 C676 1.523 . S
C676 C657 1.368 . S
C676 C670 1.368 . S
C676 C675 1.523 . S
C677 C661 1.429 . S
C677 C673 1.429 . S
C677 C678 1.523 . S
C678 C662 1.368 . S
C678 C674 1.368 . S
C678 C677 1.523 . S
H679 C654 0.950 . S
H680 C656 0.950 . S
H681 C657 0.949 . S
H682 C659 0.950 . S
H683 C661 0.950 . S
C684 C685 1.349 . S
C684 C686 1.327 . S
C684 H709 0.950 . S
C685 C684 1.349 . S
C685 C701 1.349 . S
C686 C684 1.327 . S
C686 C705 1.429 . S
C686 H710 0.950 . S
C687 C704 1.574 . S
C687 C706 1.368 . S
C687 H711 0.949 . S
H688 C692 0.949 . S
C689 C690 1.349 . S
C689 C691 1.327 . S
C689 H712 0.950 . S
C690 C689 1.349 . S
C690 C702 1.349 . S
C691 C689 1.327 . S
C691 C707 1.429 . S
C691 H713 0.950 . S
C692 H688 0.949 . S
C692 C700 1.574 . S
C692 C708 1.368 . S
H693 C701 0.950 . S
H694 C699 0.950 . S
H695 C700 0.949 . S
H696 C702 0.950 . S
H697 C703 0.950 . S
H698 C704 0.949 . S
C699 H694 0.950 . S
C699 C701 1.327 . S
C699 C705 1.429 . S
C700 C692 1.574 . S
C700 H695 0.949 . S
C700 C706 1.368 . S
C701 C685 1.349 . S
C701 H693 0.950 . S
C701 C699 1.327 . S
C702 C690 1.349 . S
C702 H696 0.950 . S
C702 C703 1.327 . S
C703 H697 0.950 . S
C703 C702 1.327 . S
C703 C707 1.429 . S
C704 C687 1.574 . S
C704 H698 0.949 . S
C704 C708 1.368 . S
C705 C686 1.429 . S
C705 C699 1.429 . S
C705 C706 1.523 . S
C706 C687 1.368 . S
C706 C700 1.368 . S
C706 C705 1.523 . S
C707 C691 1.429 . S
C707 C703 1.429 . S
C707 C708 1.523 . S
C708 C692 1.368 . S
C708 C704 1.368 . S
C708 C707 1.523 . S
H709 C684 0.950 . S
H710 C686 0.950 . S
H711 C687 0.949 . S
H712 C689 0.950 . S
H713 C691 0.950 . S
C714 C715 1.349 . S
C714 C716 1.327 . S
C714 H739 0.950 . S
C715 C714 1.349 . S
C715 C731 1.349 . S
C716 C714 1.327 . S
C716 C735 1.429 . S
C716 H740 0.950 . S
C717 C734 1.574 . S
C717 C736 1.368 . S
C717 H741 0.949 . S
H718 C722 0.949 . S
C719 C720 1.349 . S
C719 C721 1.327 . S
C719 H742 0.950 . S
C720 C719 1.349 . S
C720 C732 1.349 . S
C721 C719 1.327 . S
C721 C737 1.429 . S
C721 H743 0.950 . S
C722 H718 0.949 . S
C722 C730 1.574 . S
C722 C738 1.368 . S
H723 C731 0.950 . S
H724 C729 0.950 . S
H725 C730 0.949 . S
H726 C732 0.950 . S
H727 C733 0.950 . S
H728 C734 0.949 . S
C729 H724 0.950 . S
C729 C731 1.327 . S
C729 C735 1.429 . S
C730 C722 1.574 . S
C730 H725 0.949 . S
C730 C736 1.368 . S
C731 C715 1.349 . S
C731 H723 0.950 . S
C731 C729 1.327 . S
C732 C720 1.349 . S
C732 H726 0.950 . S
C732 C733 1.327 . S
C733 H727 0.950 . S
C733 C732 1.327 . S
C733 C737 1.429 . S
C734 C717 1.574 . S
C734 H728 0.949 . S
C734 C738 1.368 . S
C735 C716 1.429 . S
C735 C729 1.429 . S
C735 C736 1.523 . S
C736 C717 1.368 . S
C736 C730 1.368 . S
C736 C735 1.523 . S
C737 C721 1.429 . S
C737 C733 1.429 . S
C737 C738 1.523 . S
C738 C722 1.368 . S
C738 C734 1.368 . S
C738 C737 1.523 . S
H739 C714 0.950 . S
H740 C716 0.950 . S
H741 C717 0.949 . S
H742 C719 0.950 . S
H743 C721 0.950 . S
C744 C745 1.349 . S
C744 C746 1.327 . S
C744 H769 0.950 . S
C745 C744 1.349 . S
C745 C761 1.349 . S
C746 C744 1.327 . S
C746 C765 1.429 . S
C746 H770 0.950 . S
C747 C764 1.574 . S
C747 C766 1.368 . S
C747 H771 0.949 . S
H748 C752 0.949 . S
C749 C750 1.349 . S
C749 C751 1.327 . S
C749 H772 0.950 . S
C750 C749 1.349 . S
C750 C762 1.349 . S
C751 C749 1.327 . S
C751 C767 1.429 . S
C751 H773 0.950 . S
C752 H748 0.949 . S
C752 C760 1.574 . S
C752 C768 1.368 . S
H753 C761 0.950 . S
H754 C759 0.950 . S
H755 C760 0.949 . S
H756 C762 0.950 . S
H757 C763 0.950 . S
H758 C764 0.949 . S
C759 H754 0.950 . S
C759 C761 1.327 . S
C759 C765 1.429 . S
C760 C752 1.574 . S
C760 H755 0.949 . S
C760 C766 1.368 . S
C761 C745 1.349 . S
C761 H753 0.950 . S
C761 C759 1.327 . S
C762 C750 1.349 . S
C762 H756 0.950 . S
C762 C763 1.327 . S
C763 H757 0.950 . S
C763 C762 1.327 . S
C763 C767 1.429 . S
C764 C747 1.574 . S
C764 H758 0.949 . S
C764 C768 1.368 . S
C765 C746 1.429 . S
C765 C759 1.429 . S
C765 C766 1.523 . S
C766 C747 1.368 . S
C766 C760 1.368 . S
C766 C765 1.523 . S
C767 C751 1.429 . S
C767 C763 1.429 . S
C767 C768 1.523 . S
C768 C752 1.368 . S
C768 C764 1.368 . S
C768 C767 1.523 . S
H769 C744 0.950 . S
H770 C746 0.950 . S
H771 C747 0.949 . S
H772 C749 0.950 . S
H773 C751 0.950 . S
C774 C775 1.349 . S
C774 C776 1.327 . S
C774 H799 0.950 . S
C775 C774 1.349 . S
C775 C791 1.349 . S
C776 C774 1.327 . S
C776 C795 1.429 . S
C776 H800 0.950 . S
C777 C794 1.574 . S
C777 C796 1.368 . S
C777 H801 0.949 . S
H778 C782 0.949 1_556 S
C779 C780 1.349 . S
C779 C781 1.327 . S
C779 H802 0.950 . S
C780 C779 1.349 . S
C780 C792 1.349 1_554 S
C781 C779 1.327 . S
C781 C797 1.429 . S
C781 H803 0.950 . S
C782 H778 0.949 1_554 S
C782 C790 1.574 . S
C782 C798 1.368 . S
H783 C791 0.950 . S
H784 C789 0.950 . S
H785 C790 0.949 . S
H786 C792 0.950 . S
H787 C793 0.951 . S
H788 C794 0.949 . S
C789 H784 0.950 . S
C789 C791 1.327 . S
C789 C795 1.429 . S
C790 C782 1.574 . S
C790 H785 0.949 . S
C790 C796 1.368 . S
C791 C775 1.349 . S
C791 H783 0.950 . S
C791 C789 1.327 . S
C792 C780 1.349 1_556 S
C792 H786 0.950 . S
C792 C793 1.328 . S
C793 H787 0.951 . S
C793 C792 1.328 . S
C793 C797 1.426 1_556 S
C794 C777 1.574 . S
C794 H788 0.949 . S
C794 C798 1.368 . S
C795 C776 1.429 . S
C795 C789 1.429 . S
C795 C796 1.523 . S
C796 C777 1.368 . S
C796 C790 1.368 . S
C796 C795 1.523 . S
C797 C781 1.429 . S
C797 C793 1.426 1_554 S
C797 C798 1.523 . S
C798 C782 1.368 . S
C798 C794 1.368 . S
C798 C797 1.523 . S
H799 C774 0.950 . S
H800 C776 0.950 . S
H801 C777 0.949 . S
H802 C779 0.950 . S
H803 C781 0.950 . S
C804 C805 1.349 1_556 S
C804 C806 1.327 1_556 S
C804 H829 0.950 . S
C805 C804 1.349 1_554 S
C805 C821 1.349 . S
C806 C804 1.327 1_554 S
C806 C825 1.429 . S
C806 H830 0.950 1_554 S
C807 C824 1.574 . S
C807 C826 1.368 . S
C807 H831 0.949 . S
H808 C812 0.949 . S
C809 C810 1.349 . S
C809 C811 1.327 . S
C809 H832 0.950 . S
C810 C809 1.349 . S
C810 C822 1.349 . S
C811 C809 1.327 . S
C811 C827 1.429 . S
C811 H833 0.950 . S
C812 H808 0.949 . S
C812 C820 1.574 . S
C812 C828 1.368 . S
H813 C821 0.950 . S
H814 C819 0.950 . S
H815 C820 0.949 . S
H816 C822 0.950 . S
H817 C823 0.950 . S
H818 C824 0.949 . S
C819 H814 0.950 . S
C819 C821 1.327 . S
C819 C825 1.429 . S
C820 C812 1.574 . S
C820 H815 0.949 . S
C820 C826 1.368 . S
C821 C805 1.349 . S
C821 H813 0.950 . S
C821 C819 1.327 . S
C822 C810 1.349 . S
C822 H816 0.950 . S
C822 C823 1.327 . S
C823 H817 0.950 . S
C823 C822 1.327 . S
C823 C827 1.429 . S
C824 C807 1.574 . S
C824 H818 0.949 . S
C824 C828 1.368 . S
C825 C806 1.429 . S
C825 C819 1.429 . S
C825 C826 1.523 . S
C826 C807 1.368 . S
C826 C820 1.368 . S
C826 C825 1.523 . S
C827 C811 1.429 . S
C827 C823 1.429 . S
C827 C828 1.523 . S
C828 C812 1.368 . S
C828 C824 1.368 . S
C828 C827 1.523 . S
H829 C804 0.950 . S
H830 C806 0.950 1_556 S
H831 C807 0.949 . S
H832 C809 0.950 . S
H833 C811 0.950 . S
C834 C835 1.349 . S
C834 C836 1.327 . S
C834 H859 0.950 . S
C835 C834 1.349 . S
C835 C851 1.349 . S
C836 C834 1.327 . S
C836 C855 1.429 . S
C836 H860 0.950 . S
C837 C854 1.574 . S
C837 C856 1.368 . S
C837 H861 0.949 . S
H838 C842 0.949 . S
C839 C840 1.349 . S
C839 C841 1.327 . S
C839 H862 0.950 . S
C840 C839 1.349 . S
C840 C852 1.349 . S
C841 C839 1.327 . S
C841 C857 1.429 . S
C841 H863 0.950 . S
C842 H838 0.949 . S
C842 C850 1.574 . S
C842 C858 1.368 . S
H843 C851 0.950 . S
H844 C849 0.950 . S
H845 C850 0.949 . S
H846 C852 0.950 1_556 S
H847 C853 0.950 . S
H848 C854 0.949 . S
C849 H844 0.950 . S
C849 C851 1.327 . S
C849 C855 1.429 . S
C850 C842 1.574 . S
C850 H845 0.949 . S
C850 C856 1.368 . S
C851 C835 1.349 . S
C851 H843 0.950 . S
C851 C849 1.327 . S
C852 C840 1.349 . S
C852 H846 0.950 1_554 S
C852 C853 1.327 . S
C853 H847 0.950 . S
C853 C852 1.327 . S
C853 C857 1.429 . S
C854 C837 1.574 . S
C854 H848 0.949 . S
C854 C858 1.368 . S
C855 C836 1.429 . S
C855 C849 1.429 . S
C855 C856 1.523 . S
C856 C837 1.368 . S
C856 C850 1.368 . S
C856 C855 1.523 . S
C857 C841 1.429 . S
C857 C853 1.429 . S
C857 C858 1.523 . S
C858 C842 1.368 . S
C858 C854 1.368 . S
C858 C857 1.523 . S
H859 C834 0.950 . S
H860 C836 0.950 . S
H861 C837 0.949 . S
H862 C839 0.950 . S
H863 C841 0.950 . S
C864 C865 1.349 . S
C864 C866 1.327 . S
C864 H889 0.950 . S
C865 C864 1.349 . S
C865 C881 1.349 . S
C866 C864 1.327 . S
C866 C885 1.429 . S
C866 H890 0.950 . S
C867 C884 1.574 . S
C867 C886 1.368 . S
C867 H891 0.949 . S
H868 C872 0.949 . S
C869 C870 1.349 . S
C869 C871 1.327 . S
C869 H892 0.950 . S
C870 C869 1.349 . S
C870 C882 1.349 1_556 S
C871 C869 1.327 . S
C871 C887 1.429 . S
C871 H893 0.950 . S
C872 H868 0.949 . S
C872 C880 1.574 . S
C872 C888 1.368 . S
H873 C881 0.950 . S
H874 C879 0.950 . S
H875 C880 0.949 . S
H876 C882 0.950 . S
H877 C883 0.950 1_554 S
H878 C884 0.949 . S
C879 H874 0.950 . S
C879 C881 1.327 . S
C879 C885 1.429 . S
C880 C872 1.574 . S
C880 H875 0.949 . S
C880 C886 1.368 . S
C881 C865 1.349 . S
C881 H873 0.950 . S
C881 C879 1.327 . S
C882 C870 1.349 1_554 S
C882 H876 0.950 . S
C882 C883 1.327 1_554 S
C883 H877 0.950 1_556 S
C883 C882 1.327 1_556 S
C883 C887 1.429 . S
C884 C867 1.574 . S
C884 H878 0.949 . S
C884 C888 1.368 . S
C885 C866 1.429 . S
C885 C879 1.429 . S
C885 C886 1.523 . S
C886 C867 1.368 . S
C886 C880 1.368 . S
C886 C885 1.523 . S
C887 C871 1.429 . S
C887 C883 1.429 . S
C887 C888 1.523 . S
C888 C872 1.368 . S
C888 C884 1.368 . S
C888 C887 1.523 . S
H889 C864 0.950 . S
H890 C866 0.950 . S
H891 C867 0.949 . S
H892 C869 0.950 . S
H893 C871 0.950 . S
C894 C895 1.349 . S
C894 C896 1.327 . S
C894 H919 0.950 . S
C895 C894 1.349 . S
C895 C911 1.349 . S
C896 C894 1.327 . S
C896 C915 1.429 . S
C896 H920 0.950 . S
C897 C914 1.574 . S
C897 C916 1.368 . S
C897 H921 0.949 . S
H898 C902 0.949 . S
C899 C900 1.349 1_554 S
C899 C901 1.327 1_554 S
C899 H922 0.950 . S
C900 C899 1.349 1_556 S
C900 C912 1.349 . S
C901 C899 1.327 1_556 S
C901 C917 1.429 . S
C901 H923 0.950 1_556 S
C902 H898 0.949 . S
C902 C910 1.574 . S
C902 C918 1.368 . S
H903 C911 0.950 . S
H904 C909 0.950 . S
H905 C910 0.949 . S
H906 C912 0.950 . S
H907 C913 0.950 . S
H908 C914 0.949 . S
C909 H904 0.950 . S
C909 C911 1.327 . S
C909 C915 1.429 . S
C910 C902 1.574 . S
C910 H905 0.949 . S
C910 C916 1.368 . S
C911 C895 1.349 . S
C911 H903 0.950 . S
C911 C909 1.327 . S
C912 C900 1.349 . S
C912 H906 0.950 . S
C912 C913 1.327 . S
C913 H907 0.950 . S
C913 C912 1.327 . S
C913 C917 1.429 . S
C914 C897 1.574 . S
C914 H908 0.949 . S
C914 C918 1.368 . S
C915 C896 1.429 . S
C915 C909 1.429 . S
C915 C916 1.523 . S
C916 C897 1.368 . S
C916 C910 1.368 . S
C916 C915 1.523 . S
C917 C901 1.429 . S
C917 C913 1.429 . S
C917 C918 1.523 . S
C918 C902 1.368 . S
C918 C914 1.368 . S
C918 C917 1.523 . S
H919 C894 0.950 . S
H920 C896 0.950 . S
H921 C897 0.949 . S
H922 C899 0.950 . S
H923 C901 0.950 1_554 S
C924 C925 1.349 . S
C924 C926 1.327 . S
C924 H949 0.950 1_556 S
C925 C924 1.349 . S
C925 C941 1.349 . S
C926 C924 1.327 . S
C926 C945 1.429 . S
C926 H950 0.956 . S
C927 C944 1.574 . S
C927 C946 1.368 . S
C927 H951 0.949 . S
H928 C932 0.949 . S
C929 C930 1.349 . S
C929 C931 1.327 . S
C929 H952 0.950 . S
C930 C929 1.349 . S
C930 C942 1.349 . S
C931 C929 1.327 . S
C931 C947 1.429 . S
C931 H953 0.950 . S
C932 H928 0.949 . S
C932 C940 1.574 . S
C932 C948 1.368 . S
H933 C941 0.950 . S
H934 C939 0.950 . S
H935 C940 0.949 . S
H936 C942 0.950 . S
H937 C943 0.950 . S
H938 C944 0.949 . S
C939 H934 0.950 . S
C939 C941 1.327 . S
C939 C945 1.429 . S
C940 C932 1.574 . S
C940 H935 0.949 . S
C940 C946 1.368 . S
C941 C925 1.349 . S
C941 H933 0.950 . S
C941 C939 1.327 . S
C942 C930 1.349 . S
C942 H936 0.950 . S
C942 C943 1.327 . S
C943 H937 0.950 . S
C943 C942 1.327 . S
C943 C947 1.429 . S
C944 C927 1.574 . S
C944 H938 0.949 . S
C944 C948 1.368 . S
C945 C926 1.429 . S
C945 C939 1.429 . S
C945 C946 1.523 . S
C946 C927 1.368 . S
C946 C940 1.368 . S
C946 C945 1.523 . S
C947 C931 1.429 . S
C947 C943 1.429 . S
C947 C948 1.523 . S
C948 C932 1.368 . S
C948 C944 1.368 . S
C948 C947 1.523 . S
H949 C924 0.950 1_554 S
H950 C926 0.956 . S
H951 C927 0.949 . S
H952 C929 0.950 . S
H953 C931 0.950 . S
C954 C955 1.349 . S
C954 C956 1.327 . S
C954 H979 0.950 . S
C955 C954 1.349 . S
C955 C971 1.349 . S
C956 C954 1.327 . S
C956 C975 1.429 . S
C956 H980 0.950 . S
C957 C974 1.574 . S
C957 C976 1.368 . S
C957 H981 0.949 . S
H958 C962 0.949 . S
C959 C960 1.349 . S
C959 C961 1.327 . S
C959 H982 0.950 . S
C960 C959 1.349 . S
C960 C972 1.349 . S
C961 C959 1.327 . S
C961 C977 1.429 . S
C961 H983 0.950 . S
C962 H958 0.949 . S
C962 C970 1.574 . S
C962 C978 1.368 . S
H963 C971 0.950 . S
H964 C969 0.950 . S
H965 C970 0.949 . S
H966 C972 0.950 . S
H967 C973 0.950 . S
H968 C974 0.949 . S
C969 H964 0.950 . S
C969 C971 1.327 . S
C969 C975 1.429 . S
C970 C962 1.574 . S
C970 H965 0.949 . S
C970 C976 1.368 . S
C971 C955 1.349 . S
C971 H963 0.950 . S
C971 C969 1.327 . S
C972 C960 1.349 . S
C972 H966 0.950 . S
C972 C973 1.327 . S
C973 H967 0.950 . S
C973 C972 1.327 . S
C973 C977 1.429 . S
C974 C957 1.574 . S
C974 H968 0.949 . S
C974 C978 1.368 . S
C975 C956 1.429 . S
C975 C969 1.429 . S
C975 C976 1.523 . S
C976 C957 1.368 . S
C976 C970 1.368 . S
C976 C975 1.523 . S
C977 C961 1.429 . S
C977 C973 1.429 . S
C977 C978 1.523 . S
C978 C962 1.368 . S
C978 C974 1.368 . S
C978 C977 1.523 . S
H979 C954 0.950 . S
H980 C956 0.950 . S
H981 C957 0.949 . S
H982 C959 0.950 . S
H983 C961 0.950 . S
C984 C985 1.349 . S
C984 C986 1.327 . S
C984 H1009 0.950 . S
C985 C984 1.349 . S
C985 C1001 1.349 . S
C986 C984 1.327 . S
C986 C1005 1.429 . S
C986 H1010 0.950 . S
C987 C1004 1.574 . S
C987 C1006 1.368 . S
C987 H1011 0.949 . S
H988 C992 0.949 . S
C989 C990 1.349 . S
C989 C991 1.327 . S
C989 H1012 0.950 . S
C990 C989 1.349 . S
C990 C1002 1.349 . S
C991 C989 1.327 . S
C991 C1007 1.429 . S
C991 H1013 0.950 . S
C992 H988 0.949 . S
C992 C1000 1.574 . S
C992 C1008 1.368 . S
H993 C1001 0.950 . S
H994 C999 0.950 . S
H995 C1000 0.949 . S
H996 C1002 0.950 . S
H997 C1003 0.950 . S
H998 C1004 0.949 . S
C999 H994 0.950 . S
C999 C1001 1.327 . S
C999 C1005 1.429 . S
C1000 C992 1.574 . S
C1000 H995 0.949 . S
C1000 C1006 1.368 . S
C1001 C985 1.349 . S
C1001 H993 0.950 . S
C1001 C999 1.327 . S
C1002 C990 1.349 . S
C1002 H996 0.950 . S
C1002 C1003 1.327 . S
C1003 H997 0.950 . S
C1003 C1002 1.327 . S
C1003 C1007 1.429 . S
C1004 C987 1.574 . S
C1004 H998 0.949 . S
C1004 C1008 1.368 . S
C1005 C986 1.429 . S
C1005 C999 1.429 . S
C1005 C1006 1.523 . S
C1006 C987 1.368 . S
C1006 C1000 1.368 . S
C1006 C1005 1.523 . S
C1007 C991 1.429 . S
C1007 C1003 1.429 . S
C1007 C1008 1.523 . S
C1008 C992 1.368 . S
C1008 C1004 1.368 . S
C1008 C1007 1.523 . S
H1009 C984 0.950 . S
H1010 C986 0.950 . S
H1011 C987 0.949 . S
H1012 C989 0.950 . S
H1013 C991 0.950 . S
C1014 C1015 1.349 . S
C1014 C1016 1.327 . S
C1014 H1039 0.950 . S
C1015 C1014 1.349 . S
C1015 C1031 1.349 . S
C1016 C1014 1.327 . S
C1016 C1035 1.429 . S
C1016 H1040 0.950 . S
C1017 C1034 1.574 . S
C1017 C1036 1.368 . S
C1017 H1041 0.949 . S
H1018 C1022 0.949 . S
C1019 C1020 1.349 . S
C1019 C1021 1.327 . S
C1019 H1042 0.950 . S
C1020 C1019 1.349 . S
C1020 C1032 1.349 . S
C1021 C1019 1.327 . S
C1021 C1037 1.429 . S
C1021 H1043 0.950 . S
C1022 H1018 0.949 . S
C1022 C1030 1.574 . S
C1022 C1038 1.368 . S
H1023 C1031 0.950 . S
H1024 C1029 0.950 . S
H1025 C1030 0.949 . S
H1026 C1032 0.950 . S
H1027 C1033 0.950 . S
H1028 C1034 0.949 . S
C1029 H1024 0.950 . S
C1029 C1031 1.327 . S
C1029 C1035 1.429 . S
C1030 C1022 1.574 . S
C1030 H1025 0.949 . S
C1030 C1036 1.368 . S
C1031 C1015 1.349 . S
C1031 H1023 0.950 . S
C1031 C1029 1.327 . S
C1032 C1020 1.349 . S
C1032 H1026 0.950 . S
C1032 C1033 1.327 . S
C1033 H1027 0.950 . S
C1033 C1032 1.327 . S
C1033 C1037 1.429 . S
C1034 C1017 1.574 . S
C1034 H1028 0.949 . S
C1034 C1038 1.368 . S
C1035 C1016 1.429 . S
C1035 C1029 1.429 . S
C1035 C1036 1.523 . S
C1036 C1017 1.368 . S
C1036 C1030 1.368 . S
C1036 C1035 1.523 . S
C1037 C1021 1.429 . S
C1037 C1033 1.429 . S
C1037 C1038 1.523 . S
C1038 C1022 1.368 . S
C1038 C1034 1.368 . S
C1038 C1037 1.523 . S
H1039 C1014 0.950 . S
H1040 C1016 0.950 . S
H1041 C1017 0.949 . S
H1042 C1019 0.950 . S
H1043 C1021 0.950 . S
C1044 C1045 1.349 . S
C1044 C1046 1.327 . S
C1044 H1069 0.950 . S
C1045 C1044 1.349 . S
C1045 C1061 1.349 . S
C1046 C1044 1.327 . S
C1046 C1065 1.429 . S
C1046 H1070 0.950 . S
C1047 C1064 1.574 . S
C1047 C1066 1.368 . S
C1047 H1071 0.949 . S
H1048 C1052 0.949 . S
C1049 C1050 1.349 . S
C1049 C1051 1.327 . S
C1049 H1072 0.950 . S
C1050 C1049 1.349 . S
C1050 C1062 1.349 . S
C1051 C1049 1.327 . S
C1051 C1067 1.429 . S
C1051 H1073 0.950 1_554 S
C1052 H1048 0.949 . S
C1052 C1060 1.574 . S
C1052 C1068 1.368 . S
H1053 C1061 0.950 . S
H1054 C1059 0.950 . S
H1055 C1060 0.949 . S
H1056 C1062 0.950 . S
H1057 C1063 0.950 . S
H1058 C1064 0.949 . S
C1059 H1054 0.950 . S
C1059 C1061 1.327 . S
C1059 C1065 1.429 . S
C1060 C1052 1.574 . S
C1060 H1055 0.949 . S
C1060 C1066 1.368 . S
C1061 C1045 1.349 . S
C1061 H1053 0.950 . S
C1061 C1059 1.327 . S
C1062 C1050 1.349 . S
C1062 H1056 0.950 . S
C1062 C1063 1.327 . S
C1063 H1057 0.950 . S
C1063 C1062 1.327 . S
C1063 C1067 1.429 . S
C1064 C1047 1.574 . S
C1064 H1058 0.949 . S
C1064 C1068 1.368 . S
C1065 C1046 1.429 . S
C1065 C1059 1.429 . S
C1065 C1066 1.523 . S
C1066 C1047 1.368 . S
C1066 C1060 1.368 . S
C1066 C1065 1.523 . S
C1067 C1051 1.429 . S
C1067 C1063 1.429 . S
C1067 C1068 1.523 1_554 S
C1068 C1052 1.368 . S
C1068 C1064 1.368 . S
C1068 C1067 1.523 1_556 S
H1069 C1044 0.950 . S
H1070 C1046 0.950 . S
H1071 C1047 0.949 . S
H1072 C1049 0.950 . S
H1073 C1051 0.950 1_556 S
C1074 C1075 1.349 . S
C1074 C1076 1.327 . S
C1074 H1099 0.950 . S
C1075 C1074 1.349 . S
C1075 C1091 1.349 . S
C1076 C1074 1.327 . S
C1076 C1095 1.429 1_554 S
C1076 H1100 0.950 . S
C1077 C1094 1.574 . S
C1077 C1096 1.368 . S
C1077 H1101 0.949 . S
H1078 C1082 0.949 . S
C1079 C1080 1.349 . S
C1079 C1081 1.327 . S
C1079 H1102 0.950 . S
C1080 C1079 1.349 . S
C1080 C1092 1.349 . S
C1081 C1079 1.327 . S
C1081 C1097 1.429 . S
C1081 H1103 0.950 . S
C1082 H1078 0.949 . S
C1082 C1090 1.574 . S
C1082 C1098 1.368 . S
H1083 C1091 0.950 . S
H1084 C1089 0.950 . S
H1085 C1090 0.949 . S
H1086 C1092 0.950 . S
H1087 C1093 0.950 . S
H1088 C1094 0.949 . S
C1089 H1084 0.950 . S
C1089 C1091 1.327 1_556 S
C1089 C1095 1.429 . S
C1090 C1082 1.574 . S
C1090 H1085 0.949 . S
C1090 C1096 1.368 . S
C1091 C1075 1.349 . S
C1091 H1083 0.950 . S
C1091 C1089 1.327 1_554 S
C1092 C1080 1.349 . S
C1092 H1086 0.950 . S
C1092 C1093 1.327 . S
C1093 H1087 0.950 . S
C1093 C1092 1.327 . S
C1093 C1097 1.429 . S
C1094 C1077 1.574 . S
C1094 H1088 0.949 . S
C1094 C1098 1.368 . S
C1095 C1076 1.429 1_556 S
C1095 C1089 1.429 . S
C1095 C1096 1.523 . S
C1096 C1077 1.368 . S
C1096 C1090 1.368 . S
C1096 C1095 1.523 . S
C1097 C1081 1.429 . S
C1097 C1093 1.429 . S
C1097 C1098 1.523 . S
C1098 C1082 1.368 . S
C1098 C1094 1.368 . S
C1098 C1097 1.523 . S
H1099 C1074 0.950 . S
H1100 C1076 0.950 . S
H1101 C1077 0.949 . S
H1102 C1079 0.950 . S
H1103 C1081 0.950 . S
C1104 C1105 1.349 . S
C1104 C1106 1.327 . S
C1104 H1129 0.950 . S
C1105 C1104 1.349 . S
C1105 C1121 1.349 . S
C1106 C1104 1.327 . S
C1106 C1125 1.429 . S
C1106 H1130 0.950 . S
C1107 C1124 1.574 . S
C1107 C1126 1.368 . S
C1107 H1131 0.949 . S
H1108 C1112 0.949 . S
C1109 C1110 1.349 . S
C1109 C1111 1.327 . S
C1109 H1132 0.950 . S
C1110 C1109 1.349 . S
C1110 C1122 1.349 . S
C1111 C1109 1.327 . S
C1111 C1127 1.429 . S
C1111 H1133 0.950 . S
C1112 H1108 0.949 . S
C1112 C1120 1.574 . S
C1112 C1128 1.368 . S
H1113 C1121 0.950 . S
H1114 C1119 0.950 1_556 S
H1115 C1120 0.949 1_554 S
H1116 C1122 0.950 . S
H1117 C1123 0.950 . S
H1118 C1124 0.949 . S
C1119 H1114 0.950 1_554 S
C1119 C1121 1.327 . S
C1119 C1125 1.429 . S
C1120 C1112 1.574 . S
C1120 H1115 0.949 1_556 S
C1120 C1126 1.368 . S
C1121 C1105 1.349 . S
C1121 H1113 0.950 . S
C1121 C1119 1.327 . S
C1122 C1110 1.349 . S
C1122 H1116 0.950 . S
C1122 C1123 1.327 . S
C1123 H1117 0.950 . S
C1123 C1122 1.327 . S
C1123 C1127 1.429 . S
C1124 C1107 1.574 . S
C1124 H1118 0.949 . S
C1124 C1128 1.368 . S
C1125 C1106 1.429 . S
C1125 C1119 1.429 . S
C1125 C1126 1.523 1_554 S
C1126 C1107 1.368 . S
C1126 C1120 1.368 . S
C1126 C1125 1.523 1_556 S
C1127 C1111 1.429 . S
C1127 C1123 1.429 . S
C1127 C1128 1.523 . S
C1128 C1112 1.368 . S
C1128 C1124 1.368 . S
C1128 C1127 1.523 . S
H1129 C1104 0.950 . S
H1130 C1106 0.950 . S
H1131 C1107 0.949 . S
H1132 C1109 0.950 . S
H1133 C1111 0.950 . S
C1134 C1135 1.349 . S
C1134 C1136 1.327 . S
C1134 H1159 0.950 . S
C1135 C1134 1.349 . S
C1135 C1151 1.349 . S
C1136 C1134 1.327 . S
C1136 C1155 1.429 . S
C1136 H1160 0.950 . S
C1137 C1154 1.574 . S
C1137 C1156 1.368 . S
C1137 H1161 0.949 . S
H1138 C1142 0.949 . S
C1139 C1140 1.349 . S
C1139 C1141 1.327 . S
C1139 H1162 0.950 . S
C1140 C1139 1.349 . S
C1140 C1152 1.349 . S
C1141 C1139 1.327 . S
C1141 C1157 1.429 . S
C1141 H1163 0.950 . S
C1142 H1138 0.949 . S
C1142 C1150 1.574 . S
C1142 C1158 1.368 . S
H1143 C1151 0.950 . S
H1144 C1149 0.950 . S
H1145 C1150 0.949 . S
H1146 C1152 0.950 . S
H1147 C1153 0.950 . S
H1148 C1154 0.949 . S
C1149 H1144 0.950 . S
C1149 C1151 1.327 . S
C1149 C1155 1.429 . S
C1150 C1142 1.574 . S
C1150 H1145 0.949 . S
C1150 C1156 1.368 . S
C1151 C1135 1.349 . S
C1151 H1143 0.950 . S
C1151 C1149 1.327 . S
C1152 C1140 1.349 . S
C1152 H1146 0.950 . S
C1152 C1153 1.327 . S
C1153 H1147 0.950 . S
C1153 C1152 1.327 . S
C1153 C1157 1.429 . S
C1154 C1137 1.574 . S
C1154 H1148 0.949 . S
C1154 C1158 1.368 . S
C1155 C1136 1.429 . S
C1155 C1149 1.429 . S
C1155 C1156 1.523 . S
C1156 C1137 1.368 . S
C1156 C1150 1.368 . S
C1156 C1155 1.523 . S
C1157 C1141 1.429 . S
C1157 C1153 1.429 . S
C1157 C1158 1.523 . S
C1158 C1142 1.368 . S
C1158 C1154 1.368 . S
C1158 C1157 1.523 . S
H1159 C1134 0.950 . S
H1160 C1136 0.950 . S
H1161 C1137 0.949 . S
H1162 C1139 0.950 . S
H1163 C1141 0.950 . S
C1164 C1165 1.349 . S
C1164 C1166 1.327 . S
C1164 H1189 0.950 . S
C1165 C1164 1.349 . S
C1165 C1181 1.349 . S
C1166 C1164 1.327 . S
C1166 C1185 1.429 . S
C1166 H1190 0.950 . S
C1167 C1184 1.574 . S
C1167 C1186 1.368 . S
C1167 H1191 0.949 . S
H1168 C1172 0.949 . S
C1169 C1170 1.349 . S
C1169 C1171 1.327 . S
C1169 H1192 0.950 . S
C1170 C1169 1.349 . S
C1170 C1182 1.349 . S
C1171 C1169 1.327 . S
C1171 C1187 1.429 . S
C1171 H1193 0.950 . S
C1172 H1168 0.949 . S
C1172 C1180 1.574 . S
C1172 C1188 1.368 . S
H1173 C1181 0.950 . S
H1174 C1179 0.950 . S
H1175 C1180 0.949 . S
H1176 C1182 0.950 . S
H1177 C1183 0.950 . S
H1178 C1184 0.949 . S
C1179 H1174 0.950 . S
C1179 C1181 1.327 . S
C1179 C1185 1.429 . S
C1180 C1172 1.574 . S
C1180 H1175 0.949 . S
C1180 C1186 1.368 . S
C1181 C1165 1.349 . S
C1181 H1173 0.950 . S
C1181 C1179 1.327 . S
C1182 C1170 1.349 . S
C1182 H1176 0.950 . S
C1182 C1183 1.327 . S
C1183 H1177 0.950 . S
C1183 C1182 1.327 . S
C1183 C1187 1.429 . S
C1184 C1167 1.574 . S
C1184 H1178 0.949 . S
C1184 C1188 1.368 . S
C1185 C1166 1.429 . S
C1185 C1179 1.429 . S
C1185 C1186 1.523 . S
C1186 C1167 1.368 . S
C1186 C1180 1.368 . S
C1186 C1185 1.523 . S
C1187 C1171 1.429 . S
C1187 C1183 1.429 . S
C1187 C1188 1.523 . S
C1188 C1172 1.368 . S
C1188 C1184 1.368 . S
C1188 C1187 1.523 . S
H1189 C1164 0.950 . S
H1190 C1166 0.950 . S
H1191 C1167 0.949 . S
H1192 C1169 0.950 . S
H1193 C1171 0.950 . S
C1194 C1195 1.349 . S
C1194 C1196 1.327 . S
C1194 H1219 0.950 . S
C1195 C1194 1.349 . S
C1195 C1211 1.349 . S
C1196 C1194 1.327 . S
C1196 C1215 1.429 . S
C1196 H1220 0.950 . S
C1197 C1214 1.574 . S
C1197 C1216 1.368 . S
C1197 H1221 0.949 . S
H1198 C1202 0.949 . S
C1199 C1200 1.349 . S
C1199 C1201 1.327 . S
C1199 H1222 0.950 . S
C1200 C1199 1.349 . S
C1200 C1212 1.349 . S
C1201 C1199 1.327 . S
C1201 C1217 1.429 . S
C1201 H1223 0.950 . S
C1202 H1198 0.949 . S
C1202 C1210 1.574 . S
C1202 C1218 1.368 . S
H1203 C1211 0.950 . S
H1204 C1209 0.950 . S
H1205 C1210 0.949 . S
H1206 C1212 0.950 . S
H1207 C1213 0.950 . S
H1208 C1214 0.949 . S
C1209 H1204 0.950 . S
C1209 C1211 1.327 . S
C1209 C1215 1.429 . S
C1210 C1202 1.574 . S
C1210 H1205 0.949 . S
C1210 C1216 1.368 . S
C1211 C1195 1.349 . S
C1211 H1203 0.950 . S
C1211 C1209 1.327 . S
C1212 C1200 1.349 . S
C1212 H1206 0.950 . S
C1212 C1213 1.327 . S
C1213 H1207 0.950 . S
C1213 C1212 1.327 . S
C1213 C1217 1.429 . S
C1214 C1197 1.574 . S
C1214 H1208 0.949 . S
C1214 C1218 1.368 . S
C1215 C1196 1.429 . S
C1215 C1209 1.429 . S
C1215 C1216 1.523 . S
C1216 C1197 1.368 . S
C1216 C1210 1.368 . S
C1216 C1215 1.523 . S
C1217 C1201 1.429 . S
C1217 C1213 1.429 . S
C1217 C1218 1.523 . S
C1218 C1202 1.368 . S
C1218 C1214 1.368 . S
C1218 C1217 1.523 . S
H1219 C1194 0.950 . S
H1220 C1196 0.950 . S
H1221 C1197 0.949 . S
H1222 C1199 0.950 . S
H1223 C1201 0.950 . S
C1224 C1225 1.349 . S
C1224 C1226 1.327 . S
C1224 H1249 0.950 . S
C1225 C1224 1.349 . S
C1225 C1241 1.349 . S
C1226 C1224 1.327 . S
C1226 C1245 1.429 . S
C1226 H1250 0.930 1_556 S
C1227 C1244 1.574 . S
C1227 C1246 1.368 . S
C1227 H1251 0.949 1_554 S
H1228 C1232 0.949 . S
C1229 C1230 1.349 . S
C1229 C1231 1.327 . S
C1229 H1252 0.950 . S
C1230 C1229 1.349 . S
C1230 C1242 1.349 . S
C1231 C1229 1.327 . S
C1231 C1247 1.429 . S
C1231 H1253 0.950 . S
C1232 H1228 0.949 . S
C1232 C1240 1.574 . S
C1232 C1248 1.368 . S
H1233 C1241 0.950 . S
H1234 C1239 0.950 . S
H1235 C1240 0.949 . S
H1236 C1242 0.950 . S
H1237 C1243 0.950 . S
H1238 C1244 0.949 . S
C1239 H1234 0.950 . S
C1239 C1241 1.327 . S
C1239 C1245 1.429 . S
C1240 C1232 1.574 . S
C1240 H1235 0.949 . S
C1240 C1246 1.368 . S
C1241 C1225 1.349 . S
C1241 H1233 0.950 . S
C1241 C1239 1.327 . S
C1242 C1230 1.349 . S
C1242 H1236 0.950 . S
C1242 C1243 1.327 . S
C1243 H1237 0.950 . S
C1243 C1242 1.327 . S
C1243 C1247 1.429 . S
C1244 C1227 1.574 . S
C1244 H1238 0.949 . S
C1244 C1248 1.368 . S
C1245 C1226 1.429 . S
C1245 C1239 1.429 . S
C1245 C1246 1.523 1_556 S
C1246 C1227 1.368 . S
C1246 C1240 1.368 . S
C1246 C1245 1.523 1_554 S
C1247 C1231 1.429 . S
C1247 C1243 1.429 . S
C1247 C1248 1.523 . S
C1248 C1232 1.368 . S
C1248 C1244 1.368 . S
C1248 C1247 1.523 . S
H1249 C1224 0.950 . S
H1250 C1226 0.930 1_554 S
H1251 C1227 0.949 1_556 S
H1252 C1229 0.950 . S
H1253 C1231 0.950 . S
C1254 C1255 1.349 . S
C1254 C1256 1.327 . S
C1254 H1279 0.950 . S
C1255 C1254 1.349 . S
C1255 C1271 1.349 . S
C1256 C1254 1.327 . S
C1256 C1275 1.429 . S
C1256 H1280 0.950 . S
C1257 C1274 1.574 . S
C1257 C1276 1.368 . S
C1257 H1281 0.949 . S
H1258 C1262 0.949 . S
C1259 C1260 1.349 . S
C1259 C1261 1.327 . S
C1259 H1282 0.950 . S
C1260 C1259 1.349 . S
C1260 C1272 1.349 . S
C1261 C1259 1.327 . S
C1261 C1277 1.429 . S
C1261 H1283 0.950 . S
C1262 H1258 0.949 . S
C1262 C1270 1.574 . S
C1262 C1278 1.368 . S
H1263 C1271 0.950 . S
H1264 C1269 0.950 . S
H1265 C1270 0.949 . S
H1266 C1272 0.950 . S
H1267 C1273 0.950 . S
H1268 C1274 0.949 . S
C1269 H1264 0.950 . S
C1269 C1271 1.327 . S
C1269 C1275 1.429 . S
C1270 C1262 1.574 . S
C1270 H1265 0.949 . S
C1270 C1276 1.368 . S
C1271 C1255 1.349 . S
C1271 H1263 0.950 . S
C1271 C1269 1.327 . S
C1272 C1260 1.349 . S
C1272 H1266 0.950 . S
C1272 C1273 1.327 . S
C1273 H1267 0.950 . S
C1273 C1272 1.327 . S
C1273 C1277 1.429 . S
C1274 C1257 1.574 . S
C1274 H1268 0.949 . S
C1274 C1278 1.368 . S
C1275 C1256 1.429 . S
C1275 C1269 1.429 . S
C1275 C1276 1.523 1_556 S
C1276 C1257 1.368 . S
C1276 C1270 1.368 . S
C1276 C1275 1.523 1_554 S
C1277 C1261 1.429 . S
C1277 C1273 1.429 . S
C1277 C1278 1.523 . S
C1278 C1262 1.368 . S
C1278 C1274 1.368 . S
C1278 C1277 1.523 . S
H1279 C1254 0.950 . S
H1280 C1256 0.950 . S
H1281 C1257 0.949 . S
H1282 C1259 0.950 . S
H1283 C1261 0.950 . S
C1284 C1285 1.349 . S
C1284 C1286 1.327 . S
C1284 H1309 0.950 . S
C1285 C1284 1.349 . S
C1285 C1301 1.349 . S
C1286 C1284 1.327 . S
C1286 C1305 1.429 . S
C1286 H1310 0.950 . S
C1287 C1304 1.574 . S
C1287 C1306 1.368 . S
C1287 H1311 0.949 . S
H1288 C1292 0.949 . S
C1289 C1290 1.349 . S
C1289 C1291 1.327 . S
C1289 H1312 0.950 . S
C1290 C1289 1.349 . S
C1290 C1302 1.349 . S
C1291 C1289 1.327 . S
C1291 C1307 1.429 1_556 S
C1291 H1313 0.950 . S
C1292 H1288 0.949 . S
C1292 C1300 1.574 . S
C1292 C1308 1.368 . S
H1293 C1301 0.950 . S
H1294 C1299 0.950 . S
H1295 C1300 0.949 . S
H1296 C1302 0.950 . S
H1297 C1303 0.950 . S
H1298 C1304 0.949 . S
C1299 H1294 0.950 . S
C1299 C1301 1.327 . S
C1299 C1305 1.429 . S
C1300 C1292 1.574 . S
C1300 H1295 0.949 . S
C1300 C1306 1.368 . S
C1301 C1285 1.349 . S
C1301 H1293 0.950 . S
C1301 C1299 1.327 . S
C1302 C1290 1.349 . S
C1302 H1296 0.950 . S
C1302 C1303 1.327 1_556 S
C1303 H1297 0.950 . S
C1303 C1302 1.327 1_554 S
C1303 C1307 1.429 . S
C1304 C1287 1.574 . S
C1304 H1298 0.949 . S
C1304 C1308 1.368 . S
C1305 C1286 1.429 . S
C1305 C1299 1.429 . S
C1305 C1306 1.523 . S
C1306 C1287 1.368 . S
C1306 C1300 1.368 . S
C1306 C1305 1.523 . S
C1307 C1291 1.429 1_554 S
C1307 C1303 1.429 . S
C1307 C1308 1.523 . S
C1308 C1292 1.368 . S
C1308 C1304 1.368 . S
C1308 C1307 1.523 . S
H1309 C1284 0.950 . S
H1310 C1286 0.950 . S
H1311 C1287 0.949 . S
H1312 C1289 0.950 . S
H1313 C1291 0.950 . S
C1314 C1315 1.349 . S
C1314 C1316 1.327 . S
C1314 H1339 0.950 . S
C1315 C1314 1.349 . S
C1315 C1331 1.349 . S
C1316 C1314 1.327 . S
C1316 C1335 1.429 . S
C1316 H1340 0.950 . S
C1317 C1334 1.574 . S
C1317 C1336 1.368 . S
C1317 H1341 0.949 . S
H1318 C1322 0.949 . S
C1319 C1320 1.349 . S
C1319 C1321 1.327 . S
C1319 H1342 0.950 . S
C1320 C1319 1.349 . S
C1320 C1332 1.349 . S
C1321 C1319 1.327 . S
C1321 C1337 1.429 . S
C1321 H1343 0.950 . S
C1322 H1318 0.949 . S
C1322 C1330 1.574 . S
C1322 C1338 1.368 . S
H1323 C1331 0.950 . S
H1324 C1329 0.950 . S
H1325 C1330 0.949 . S
H1326 C1332 0.950 . S
H1327 C1333 0.950 . S
H1328 C1334 0.949 . S
C1329 H1324 0.950 . S
C1329 C1331 1.327 . S
C1329 C1335 1.429 . S
C1330 C1322 1.574 . S
C1330 H1325 0.949 . S
C1330 C1336 1.368 . S
C1331 C1315 1.349 . S
C1331 H1323 0.950 . S
C1331 C1329 1.327 . S
C1332 C1320 1.349 . S
C1332 H1326 0.950 . S
C1332 C1333 1.327 . S
C1333 H1327 0.950 . S
C1333 C1332 1.327 . S
C1333 C1337 1.429 . S
C1334 C1317 1.574 . S
C1334 H1328 0.949 . S
C1334 C1338 1.368 . S
C1335 C1316 1.429 . S
C1335 C1329 1.429 . S
C1335 C1336 1.523 . S
C1336 C1317 1.368 . S
C1336 C1330 1.368 . S
C1336 C1335 1.523 . S
C1337 C1321 1.429 . S
C1337 C1333 1.429 . S
C1337 C1338 1.523 . S
C1338 C1322 1.368 . S
C1338 C1334 1.368 . S
C1338 C1337 1.523 . S
H1339 C1314 0.950 . S
H1340 C1316 0.950 . S
H1341 C1317 0.949 . S
H1342 C1319 0.950 . S
H1343 C1321 0.950 . S
C1344 C1345 1.349 . S
C1344 C1346 1.327 . S
C1344 H1369 0.950 . S
C1345 C1344 1.349 . S
C1345 C1361 1.349 . S
C1346 C1344 1.327 . S
C1346 C1365 1.429 . S
C1346 H1370 0.950 . S
C1347 C1364 1.574 . S
C1347 C1366 1.368 . S
C1347 H1371 0.949 . S
H1348 C1352 0.949 . S
C1349 C1350 1.349 . S
C1349 C1351 1.327 . S
C1349 H1372 0.950 . S
C1350 C1349 1.349 . S
C1350 C1362 1.349 . S
C1351 C1349 1.327 . S
C1351 C1367 1.429 . S
C1351 H1373 0.950 . S
C1352 H1348 0.949 . S
C1352 C1360 1.574 . S
C1352 C1368 1.368 . S
H1353 C1361 0.950 . S
H1354 C1359 0.950 . S
H1355 C1360 0.949 . S
H1356 C1362 0.950 . S
H1357 C1363 0.950 . S
H1358 C1364 0.949 . S
C1359 H1354 0.950 . S
C1359 C1361 1.327 . S
C1359 C1365 1.429 . S
C1360 C1352 1.574 . S
C1360 H1355 0.949 . S
C1360 C1366 1.368 . S
C1361 C1345 1.349 . S
C1361 H1353 0.950 . S
C1361 C1359 1.327 . S
C1362 C1350 1.349 . S
C1362 H1356 0.950 . S
C1362 C1363 1.327 . S
C1363 H1357 0.950 . S
C1363 C1362 1.327 . S
C1363 C1367 1.429 . S
C1364 C1347 1.574 . S
C1364 H1358 0.949 . S
C1364 C1368 1.368 . S
C1365 C1346 1.429 . S
C1365 C1359 1.429 . S
C1365 C1366 1.523 . S
C1366 C1347 1.368 . S
C1366 C1360 1.368 . S
C1366 C1365 1.523 . S
C1367 C1351 1.429 . S
C1367 C1363 1.429 . S
C1367 C1368 1.523 . S
C1368 C1352 1.368 . S
C1368 C1364 1.368 . S
C1368 C1367 1.523 . S
H1369 C1344 0.950 . S
H1370 C1346 0.950 . S
H1371 C1347 0.949 . S
H1372 C1349 0.950 . S
H1373 C1351 0.950 . S
C1374 C1375 1.349 . S
C1374 C1376 1.327 . S
C1374 H1399 0.950 . S
C1375 C1374 1.349 . S
C1375 C1391 1.349 . S
C1376 C1374 1.327 . S
C1376 C1395 1.429 . S
C1376 H1400 0.950 . S
C1377 C1394 1.574 . S
C1377 C1396 1.368 . S
C1377 H1401 0.949 . S
H1378 C1382 0.949 . S
C1379 C1380 1.349 . S
C1379 C1381 1.327 . S
C1379 H1402 0.950 . S
C1380 C1379 1.349 . S
C1380 C1392 1.349 . S
C1381 C1379 1.327 . S
C1381 C1397 1.429 . S
C1381 H1403 0.950 . S
C1382 H1378 0.949 . S
C1382 C1390 1.574 . S
C1382 C1398 1.368 . S
H1383 C1391 0.950 . S
H1384 C1389 0.950 . S
H1385 C1390 0.949 . S
H1386 C1392 0.950 . S
H1387 C1393 0.950 . S
H1388 C1394 0.949 . S
C1389 H1384 0.950 . S
C1389 C1391 1.327 . S
C1389 C1395 1.429 . S
C1390 C1382 1.574 . S
C1390 H1385 0.949 . S
C1390 C1396 1.368 . S
C1391 C1375 1.349 . S
C1391 H1383 0.950 . S
C1391 C1389 1.327 . S
C1392 C1380 1.349 . S
C1392 H1386 0.950 . S
C1392 C1393 1.327 . S
C1393 H1387 0.950 . S
C1393 C1392 1.327 . S
C1393 C1397 1.429 . S
C1394 C1377 1.574 . S
C1394 H1388 0.949 . S
C1394 C1398 1.368 . S
C1395 C1376 1.429 . S
C1395 C1389 1.429 . S
C1395 C1396 1.523 . S
C1396 C1377 1.368 . S
C1396 C1390 1.368 . S
C1396 C1395 1.523 . S
C1397 C1381 1.429 . S
C1397 C1393 1.429 . S
C1397 C1398 1.523 . S
C1398 C1382 1.368 . S
C1398 C1394 1.368 . S
C1398 C1397 1.523 . S
H1399 C1374 0.950 . S
H1400 C1376 0.950 . S
H1401 C1377 0.949 . S
H1402 C1379 0.950 . S
H1403 C1381 0.950 . S
C1404 C1405 1.349 . S
C1404 C1406 1.327 . S
C1404 H1429 0.950 . S
C1405 C1404 1.349 . S
C1405 C1421 1.349 . S
C1406 C1404 1.327 . S
C1406 C1425 1.429 . S
C1406 H1430 0.950 . S
C1407 C1424 1.574 . S
C1407 C1426 1.368 . S
C1407 H1431 0.949 . S
H1408 C1412 0.949 . S
C1409 C1410 1.349 . S
C1409 C1411 1.327 . S
C1409 H1432 0.950 . S
C1410 C1409 1.349 . S
C1410 C1422 1.349 . S
C1411 C1409 1.327 . S
C1411 C1427 1.429 . S
C1411 H1433 0.950 . S
C1412 H1408 0.949 . S
C1412 C1420 1.574 . S
C1412 C1428 1.368 . S
H1413 C1421 0.950 . S
H1414 C1419 0.950 . S
H1415 C1420 0.949 . S
H1416 C1422 0.950 . S
H1417 C1423 0.950 . S
H1418 C1424 0.949 . S
C1419 H1414 0.950 . S
C1419 C1421 1.327 . S
C1419 C1425 1.429 . S
C1420 C1412 1.574 . S
C1420 H1415 0.949 . S
C1420 C1426 1.368 . S
C1421 C1405 1.349 . S
C1421 H1413 0.950 . S
C1421 C1419 1.327 . S
C1422 C1410 1.349 . S
C1422 H1416 0.950 . S
C1422 C1423 1.327 . S
C1423 H1417 0.950 . S
C1423 C1422 1.327 . S
C1423 C1427 1.429 . S
C1424 C1407 1.574 . S
C1424 H1418 0.949 . S
C1424 C1428 1.368 . S
C1425 C1406 1.429 . S
C1425 C1419 1.429 . S
C1425 C1426 1.523 . S
C1426 C1407 1.368 . S
C1426 C1420 1.368 . S
C1426 C1425 1.523 . S
C1427 C1411 1.429 . S
C1427 C1423 1.429 . S
C1427 C1428 1.523 . S
C1428 C1412 1.368 . S
C1428 C1424 1.368 . S
C1428 C1427 1.523 . S
H1429 C1404 0.950 . S
H1430 C1406 0.950 . S
H1431 C1407 0.949 . S
H1432 C1409 0.950 . S
H1433 C1411 0.950 . S
C1434 C1435 1.349 . S
C1434 C1436 1.327 . S
C1434 H1459 0.950 . S
C1435 C1434 1.349 . S
C1435 C1451 1.349 . S
C1436 C1434 1.327 . S
C1436 C1455 1.429 . S
C1436 H1460 0.950 . S
C1437 C1454 1.574 . S
C1437 C1456 1.368 . S
C1437 H1461 0.949 . S
H1438 C1442 0.949 . S
C1439 C1440 1.349 . S
C1439 C1441 1.327 . S
C1439 H1462 0.950 . S
C1440 C1439 1.349 . S
C1440 C1452 1.349 . S
C1441 C1439 1.327 . S
C1441 C1457 1.429 . S
C1441 H1463 0.950 . S
C1442 H1438 0.949 . S
C1442 C1450 1.574 . S
C1442 C1458 1.368 . S
H1443 C1451 0.950 . S
H1444 C1449 0.950 . S
H1445 C1450 0.949 . S
H1446 C1452 0.950 . S
H1447 C1453 0.950 . S
H1448 C1454 0.949 . S
C1449 H1444 0.950 . S
C1449 C1451 1.327 . S
C1449 C1455 1.429 . S
C1450 C1442 1.574 . S
C1450 H1445 0.949 . S
C1450 C1456 1.368 . S
C1451 C1435 1.349 . S
C1451 H1443 0.950 . S
C1451 C1449 1.327 . S
C1452 C1440 1.349 . S
C1452 H1446 0.950 . S
C1452 C1453 1.327 . S
C1453 H1447 0.950 . S
C1453 C1452 1.327 . S
C1453 C1457 1.429 . S
C1454 C1437 1.574 . S
C1454 H1448 0.949 . S
C1454 C1458 1.368 . S
C1455 C1436 1.429 . S
C1455 C1449 1.429 . S
C1455 C1456 1.523 . S
C1456 C1437 1.368 . S
C1456 C1450 1.368 . S
C1456 C1455 1.523 . S
C1457 C1441 1.429 . S
C1457 C1453 1.429 . S
C1457 C1458 1.523 . S
C1458 C1442 1.368 . S
C1458 C1454 1.368 . S
C1458 C1457 1.523 . S
H1459 C1434 0.950 . S
H1460 C1436 0.950 . S
H1461 C1437 0.949 . S
H1462 C1439 0.950 . S
H1463 C1441 0.950 . S
C1464 C1465 1.349 . S
C1464 C1466 1.327 . S
C1464 H1489 0.950 . S
C1465 C1464 1.349 . S
C1465 C1481 1.349 . S
C1466 C1464 1.327 . S
C1466 C1485 1.429 . S
C1466 H1490 0.950 . S
C1467 C1484 1.574 . S
C1467 C1486 1.368 . S
C1467 H1491 0.949 . S
H1468 C1472 0.949 . S
C1469 C1470 1.349 . S
C1469 C1471 1.327 . S
C1469 H1492 0.950 . S
C1470 C1469 1.349 . S
C1470 C1482 1.349 . S
C1471 C1469 1.327 . S
C1471 C1487 1.429 . S
C1471 H1493 0.950 . S
C1472 H1468 0.949 . S
C1472 C1480 1.574 . S
C1472 C1488 1.368 . S
H1473 C1481 0.950 . S
H1474 C1479 0.950 . S
H1475 C1480 0.949 . S
H1476 C1482 0.950 . S
H1477 C1483 0.950 . S
H1478 C1484 0.949 . S
C1479 H1474 0.950 . S
C1479 C1481 1.327 . S
C1479 C1485 1.429 . S
C1480 C1472 1.574 . S
C1480 H1475 0.949 . S
C1480 C1486 1.368 . S
C1481 C1465 1.349 . S
C1481 H1473 0.950 . S
C1481 C1479 1.327 . S
C1482 C1470 1.349 . S
C1482 H1476 0.950 . S
C1482 C1483 1.327 . S
C1483 H1477 0.950 . S
C1483 C1482 1.327 . S
C1483 C1487 1.429 . S
C1484 C1467 1.574 . S
C1484 H1478 0.949 . S
C1484 C1488 1.368 . S
C1485 C1466 1.429 . S
C1485 C1479 1.429 . S
C1485 C1486 1.523 . S
C1486 C1467 1.368 . S
C1486 C1480 1.368 . S
C1486 C1485 1.523 . S
C1487 C1471 1.429 . S
C1487 C1483 1.429 . S
C1487 C1488 1.523 . S
C1488 C1472 1.368 . S
C1488 C1484 1.368 . S
C1488 C1487 1.523 . S
H1489 C1464 0.950 . S
H1490 C1466 0.950 . S
H1491 C1467 0.949 . S
H1492 C1469 0.950 . S
H1493 C1471 0.950 . S
C1494 C1495 1.349 . S
C1494 C1496 1.327 . S
C1494 H1519 0.950 . S
C1495 C1494 1.349 . S
C1495 C1511 1.349 . S
C1496 C1494 1.327 . S
C1496 C1515 1.429 . S
C1496 H1520 0.950 . S
C1497 C1514 1.574 . S
C1497 C1516 1.368 . S
C1497 H1521 0.949 . S
H1498 C1502 0.949 . S
C1499 C1500 1.349 . S
C1499 C1501 1.327 . S
C1499 H1522 0.950 . S
C1500 C1499 1.349 . S
C1500 C1512 1.349 . S
C1501 C1499 1.327 . S
C1501 C1517 1.429 1_554 S
C1501 H1523 0.950 . S
C1502 H1498 0.949 . S
C1502 C1510 1.574 . S
C1502 C1518 1.368 . S
H1503 C1511 0.950 . S
H1504 C1509 0.950 . S
H1505 C1510 0.949 . S
H1506 C1512 0.950 . S
H1507 C1513 0.950 . S
H1508 C1514 0.949 . S
C1509 H1504 0.950 . S
C1509 C1511 1.327 . S
C1509 C1515 1.429 . S
C1510 C1502 1.574 . S
C1510 H1505 0.949 . S
C1510 C1516 1.368 . S
C1511 C1495 1.349 . S
C1511 H1503 0.950 . S
C1511 C1509 1.327 . S
C1512 C1500 1.349 . S
C1512 H1506 0.950 . S
C1512 C1513 1.327 1_554 S
C1513 H1507 0.950 . S
C1513 C1512 1.327 1_556 S
C1513 C1517 1.429 . S
C1514 C1497 1.574 . S
C1514 H1508 0.949 . S
C1514 C1518 1.368 . S
C1515 C1496 1.429 . S
C1515 C1509 1.429 . S
C1515 C1516 1.523 . S
C1516 C1497 1.368 . S
C1516 C1510 1.368 . S
C1516 C1515 1.523 . S
C1517 C1501 1.429 1_556 S
C1517 C1513 1.429 . S
C1517 C1518 1.523 . S
C1518 C1502 1.368 . S
C1518 C1514 1.368 . S
C1518 C1517 1.523 . S
H1519 C1494 0.950 . S
H1520 C1496 0.950 . S
H1521 C1497 0.949 . S
H1522 C1499 0.950 . S
H1523 C1501 0.950 . S
C1524 C1525 1.349 . S
C1524 C1526 1.327 . S
C1524 H1549 0.950 . S
C1525 C1524 1.349 . S
C1525 C1541 1.349 . S
C1526 C1524 1.327 . S
C1526 C1545 1.429 . S
C1526 H1550 0.950 1_554 S
C1527 C1544 1.574 . S
C1527 C1546 1.368 . S
C1527 H1551 0.948 1_556 S
H1528 C1532 0.949 . S
C1529 C1530 1.349 . S
C1529 C1531 1.327 . S
C1529 H1552 0.950 . S
C1530 C1529 1.349 . S
C1530 C1542 1.349 . S
C1531 C1529 1.327 . S
C1531 C1547 1.429 . S
C1531 H1553 0.950 . S
C1532 H1528 0.949 . S
C1532 C1540 1.574 . S
C1532 C1548 1.368 . S
H1533 C1541 0.950 . S
H1534 C1539 0.950 . S
H1535 C1540 0.949 . S
H1536 C1542 0.950 . S
H1537 C1543 0.950 . S
H1538 C1544 0.949 . S
C1539 H1534 0.950 . S
C1539 C1541 1.327 . S
C1539 C1545 1.429 . S
C1540 C1532 1.574 . S
C1540 H1535 0.949 . S
C1540 C1546 1.368 . S
C1541 C1525 1.349 . S
C1541 H1533 0.950 . S
C1541 C1539 1.327 . S
C1542 C1530 1.349 . S
C1542 H1536 0.950 . S
C1542 C1543 1.327 . S
C1543 H1537 0.950 . S
C1543 C1542 1.327 . S
C1543 C1547 1.429 . S
C1544 C1527 1.574 . S
C1544 H1538 0.949 . S
C1544 C1548 1.368 . S
C1545 C1526 1.429 . S
C1545 C1539 1.429 . S
C1545 C1546 1.523 1_554 S
C1546 C1527 1.368 . S
C1546 C1540 1.368 . S
C1546 C1545 1.523 1_556 S
C1547 C1531 1.429 . S
C1547 C1543 1.429 . S
C1547 C1548 1.523 . S
C1548 C1532 1.368 . S
C1548 C1544 1.368 . S
C1548 C1547 1.523 . S
H1549 C1524 0.950 . S
H1550 C1526 0.950 1_556 S
H1551 C1527 0.948 1_554 S
H1552 C1529 0.950 . S
H1553 C1531 0.950 . S
C1554 C1555 1.349 . S
C1554 C1556 1.327 . S
C1554 H1579 0.950 . S
C1555 C1554 1.349 . S
C1555 C1571 1.349 . S
C1556 C1554 1.327 . S
C1556 C1575 1.429 . S
C1556 H1580 0.950 . S
C1557 C1574 1.574 . S
C1557 C1576 1.368 . S
C1557 H1581 0.949 . S
H1558 C1562 0.949 . S
C1559 C1560 1.349 . S
C1559 C1561 1.327 . S
C1559 H1582 0.950 . S
C1560 C1559 1.349 . S
C1560 C1572 1.349 . S
C1561 C1559 1.327 . S
C1561 C1577 1.429 1_554 S
C1561 H1583 0.950 . S
C1562 H1558 0.949 . S
C1562 C1570 1.574 . S
C1562 C1578 1.368 . S
H1563 C1571 0.950 . S
H1564 C1569 0.950 . S
H1565 C1570 0.949 . S
H1566 C1572 0.950 . S
H1567 C1573 0.950 . S
H1568 C1574 0.949 . S
C1569 H1564 0.950 . S
C1569 C1571 1.327 . S
C1569 C1575 1.429 . S
C1570 C1562 1.574 . S
C1570 H1565 0.949 . S
C1570 C1576 1.368 . S
C1571 C1555 1.349 . S
C1571 H1563 0.950 . S
C1571 C1569 1.327 . S
C1572 C1560 1.349 . S
C1572 H1566 0.950 . S
C1572 C1573 1.327 1_554 S
C1573 H1567 0.950 . S
C1573 C1572 1.327 1_556 S
C1573 C1577 1.429 . S
C1574 C1557 1.574 . S
C1574 H1568 0.949 . S
C1574 C1578 1.368 . S
C1575 C1556 1.429 . S
C1575 C1569 1.429 . S
C1575 C1576 1.523 . S
C1576 C1557 1.368 . S
C1576 C1570 1.368 . S
C1576 C1575 1.523 . S
C1577 C1561 1.429 1_556 S
C1577 C1573 1.429 . S
C1577 C1578 1.523 . S
C1578 C1562 1.368 . S
C1578 C1574 1.368 . S
C1578 C1577 1.523 . S
H1579 C1554 0.950 . S
H1580 C1556 0.950 . S
H1581 C1557 0.949 . S
H1582 C1559 0.950 . S
H1583 C1561 0.950 . S
C1584 C1585 1.349 . S
C1584 C1586 1.327 . S
C1584 H1609 0.950 . S
C1585 C1584 1.349 . S
C1585 C1601 1.349 . S
C1586 C1584 1.327 . S
C1586 C1605 1.429 . S
C1586 H1610 0.950 . S
C1587 C1604 1.574 . S
C1587 C1606 1.368 . S
C1587 H1611 0.949 . S
H1588 C1592 0.949 . S
C1589 C1590 1.349 . S
C1589 C1591 1.327 . S
C1589 H1612 0.950 . S
C1590 C1589 1.349 . S
C1590 C1602 1.349 . S
C1591 C1589 1.327 . S
C1591 C1607 1.429 . S
C1591 H1613 0.950 . S
C1592 H1588 0.949 . S
C1592 C1600 1.574 . S
C1592 C1608 1.368 . S
H1593 C1601 0.950 . S
H1594 C1599 0.950 . S
H1595 C1600 0.949 . S
H1596 C1602 0.950 . S
H1597 C1603 0.950 . S
H1598 C1604 0.949 . S
C1599 H1594 0.950 . S
C1599 C1601 1.327 . S
C1599 C1605 1.429 . S
C1600 C1592 1.574 . S
C1600 H1595 0.949 . S
C1600 C1606 1.368 . S
C1601 C1585 1.349 . S
C1601 H1593 0.950 . S
C1601 C1599 1.327 . S
C1602 C1590 1.349 . S
C1602 H1596 0.950 . S
C1602 C1603 1.327 . S
C1603 H1597 0.950 . S
C1603 C1602 1.327 . S
C1603 C1607 1.429 . S
C1604 C1587 1.574 . S
C1604 H1598 0.949 . S
C1604 C1608 1.368 . S
C1605 C1586 1.429 . S
C1605 C1599 1.429 . S
C1605 C1606 1.523 . S
C1606 C1587 1.368 . S
C1606 C1600 1.368 . S
C1606 C1605 1.523 . S
C1607 C1591 1.429 . S
C1607 C1603 1.429 . S
C1607 C1608 1.523 . S
C1608 C1592 1.368 . S
C1608 C1604 1.368 . S
C1608 C1607 1.523 . S
H1609 C1584 0.950 . S
H1610 C1586 0.950 . S
H1611 C1587 0.949 . S
H1612 C1589 0.950 . S
H1613 C1591 0.950 . S
C1614 C1615 1.349 . S
C1614 C1616 1.327 . S
C1614 H1639 0.950 . S
C1615 C1614 1.349 . S
C1615 C1631 1.349 . S
C1616 C1614 1.327 . S
C1616 C1635 1.429 . S
C1616 H1640 0.950 . S
C1617 C1634 1.574 . S
C1617 C1636 1.368 . S
C1617 H1641 0.949 . S
H1618 C1622 0.949 . S
C1619 C1620 1.349 . S
C1619 C1621 1.327 . S
C1619 H1642 0.950 . S
C1620 C1619 1.349 . S
C1620 C1632 1.349 . S
C1621 C1619 1.327 . S
C1621 C1637 1.429 . S
C1621 H1643 0.950 . S
C1622 H1618 0.949 . S
C1622 C1630 1.574 . S
C1622 C1638 1.368 . S
H1623 C1631 0.950 . S
H1624 C1629 0.950 . S
H1625 C1630 0.949 . S
H1626 C1632 0.950 . S
H1627 C1633 0.950 . S
H1628 C1634 0.949 . S
C1629 H1624 0.950 . S
C1629 C1631 1.327 . S
C1629 C1635 1.429 . S
C1630 C1622 1.574 . S
C1630 H1625 0.949 . S
C1630 C1636 1.368 . S
C1631 C1615 1.349 . S
C1631 H1623 0.950 . S
C1631 C1629 1.327 . S
C1632 C1620 1.349 . S
C1632 H1626 0.950 . S
C1632 C1633 1.327 . S
C1633 H1627 0.950 . S
C1633 C1632 1.327 . S
C1633 C1637 1.429 . S
C1634 C1617 1.574 . S
C1634 H1628 0.949 . S
C1634 C1638 1.368 . S
C1635 C1616 1.429 . S
C1635 C1629 1.429 . S
C1635 C1636 1.523 . S
C1636 C1617 1.368 . S
C1636 C1630 1.368 . S
C1636 C1635 1.523 . S
C1637 C1621 1.429 . S
C1637 C1633 1.429 . S
C1637 C1638 1.523 . S
C1638 C1622 1.368 . S
C1638 C1634 1.368 . S
C1638 C1637 1.523 . S
H1639 C1614 0.950 . S
H1640 C1616 0.950 . S
H1641 C1617 0.949 . S
H1642 C1619 0.950 . S
H1643 C1621 0.950 . S
C1644 C1645 1.349 . S
C1644 C1646 1.327 . S
C1644 H1669 0.950 . S
C1645 C1644 1.349 . S
C1645 C1661 1.349 . S
C1646 C1644 1.327 . S
C1646 C1665 1.429 . S
C1646 H1670 0.950 . S
C1647 C1664 1.574 . S
C1647 C1666 1.368 . S
C1647 H1671 0.949 . S
H1648 C1652 0.949 . S
C1649 C1650 1.349 . S
C1649 C1651 1.327 . S
C1649 H1672 0.950 . S
C1650 C1649 1.349 . S
C1650 C1662 1.349 . S
C1651 C1649 1.327 . S
C1651 C1667 1.429 . S
C1651 H1673 0.950 . S
C1652 H1648 0.949 . S
C1652 C1660 1.574 . S
C1652 C1668 1.368 . S
H1653 C1661 0.950 . S
H1654 C1659 0.950 . S
H1655 C1660 0.949 . S
H1656 C1662 0.950 . S
H1657 C1663 0.950 . S
H1658 C1664 0.949 . S
C1659 H1654 0.950 . S
C1659 C1661 1.327 . S
C1659 C1665 1.429 . S
C1660 C1652 1.574 . S
C1660 H1655 0.949 . S
C1660 C1666 1.368 . S
C1661 C1645 1.349 . S
C1661 H1653 0.950 . S
C1661 C1659 1.327 . S
C1662 C1650 1.349 . S
C1662 H1656 0.950 . S
C1662 C1663 1.327 . S
C1663 H1657 0.950 . S
C1663 C1662 1.327 . S
C1663 C1667 1.429 . S
C1664 C1647 1.574 . S
C1664 H1658 0.949 . S
C1664 C1668 1.368 . S
C1665 C1646 1.429 . S
C1665 C1659 1.429 . S
C1665 C1666 1.523 . S
C1666 C1647 1.368 . S
C1666 C1660 1.368 . S
C1666 C1665 1.523 . S
C1667 C1651 1.429 . S
C1667 C1663 1.429 . S
C1667 C1668 1.523 . S
C1668 C1652 1.368 . S
C1668 C1664 1.368 . S
C1668 C1667 1.523 . S
H1669 C1644 0.950 . S
H1670 C1646 0.950 . S
H1671 C1647 0.949 . S
H1672 C1649 0.950 . S
H1673 C1651 0.950 . S
C1674 C1675 1.349 . S
C1674 C1676 1.327 . S
C1674 H1699 0.950 . S
C1675 C1674 1.349 . S
C1675 C1691 1.349 . S
C1676 C1674 1.327 . S
C1676 C1695 1.429 . S
C1676 H1700 0.950 . S
C1677 C1694 1.574 . S
C1677 C1696 1.368 . S
C1677 H1701 0.949 . S
H1678 C1682 0.949 . S
C1679 C1680 1.349 . S
C1679 C1681 1.327 . S
C1679 H1702 0.950 . S
C1680 C1679 1.349 . S
C1680 C1692 1.349 . S
C1681 C1679 1.327 . S
C1681 C1697 1.429 . S
C1681 H1703 0.950 . S
C1682 H1678 0.949 . S
C1682 C1690 1.574 . S
C1682 C1698 1.368 . S
H1683 C1691 0.950 . S
H1684 C1689 0.950 . S
H1685 C1690 0.949 . S
H1686 C1692 0.950 . S
H1687 C1693 0.950 . S
H1688 C1694 0.949 . S
C1689 H1684 0.950 . S
C1689 C1691 1.327 . S
C1689 C1695 1.429 . S
C1690 C1682 1.574 . S
C1690 H1685 0.949 . S
C1690 C1696 1.368 . S
C1691 C1675 1.349 . S
C1691 H1683 0.950 . S
C1691 C1689 1.327 . S
C1692 C1680 1.349 . S
C1692 H1686 0.950 . S
C1692 C1693 1.327 . S
C1693 H1687 0.950 . S
C1693 C1692 1.327 . S
C1693 C1697 1.429 . S
C1694 C1677 1.574 . S
C1694 H1688 0.949 . S
C1694 C1698 1.368 . S
C1695 C1676 1.429 . S
C1695 C1689 1.429 . S
C1695 C1696 1.523 . S
C1696 C1677 1.368 . S
C1696 C1690 1.368 . S
C1696 C1695 1.523 . S
C1697 C1681 1.429 . S
C1697 C1693 1.429 . S
C1697 C1698 1.523 . S
C1698 C1682 1.368 . S
C1698 C1694 1.368 . S
C1698 C1697 1.523 . S
H1699 C1674 0.950 . S
H1700 C1676 0.950 . S
H1701 C1677 0.949 . S
H1702 C1679 0.950 . S
H1703 C1681 0.950 . S
C1704 C1705 1.349 . S
C1704 C1706 1.327 . S
C1704 H1729 0.950 . S
C1705 C1704 1.349 . S
C1705 C1721 1.349 . S
C1706 C1704 1.327 . S
C1706 C1725 1.429 . S
C1706 H1730 0.950 . S
C1707 C1724 1.574 . S
C1707 C1726 1.368 . S
C1707 H1731 0.949 . S
H1708 C1712 0.949 . S
C1709 C1710 1.349 . S
C1709 C1711 1.327 . S
C1709 H1732 0.950 . S
C1710 C1709 1.349 . S
C1710 C1722 1.349 . S
C1711 C1709 1.327 . S
C1711 C1727 1.429 . S
C1711 H1733 0.950 . S
C1712 H1708 0.949 . S
C1712 C1720 1.574 . S
C1712 C1728 1.368 . S
H1713 C1721 0.950 . S
H1714 C1719 0.950 . S
H1715 C1720 0.949 . S
H1716 C1722 0.950 . S
H1717 C1723 0.950 . S
H1718 C1724 0.949 . S
C1719 H1714 0.950 . S
C1719 C1721 1.327 . S
C1719 C1725 1.429 . S
C1720 C1712 1.574 . S
C1720 H1715 0.949 . S
C1720 C1726 1.368 . S
C1721 C1705 1.349 . S
C1721 H1713 0.950 . S
C1721 C1719 1.327 . S
C1722 C1710 1.349 . S
C1722 H1716 0.950 . S
C1722 C1723 1.327 . S
C1723 H1717 0.950 . S
C1723 C1722 1.327 . S
C1723 C1727 1.429 . S
C1724 C1707 1.574 . S
C1724 H1718 0.949 . S
C1724 C1728 1.368 . S
C1725 C1706 1.429 . S
C1725 C1719 1.429 . S
C1725 C1726 1.523 . S
C1726 C1707 1.368 . S
C1726 C1720 1.368 . S
C1726 C1725 1.523 . S
C1727 C1711 1.429 . S
C1727 C1723 1.429 . S
C1727 C1728 1.523 . S
C1728 C1712 1.368 . S
C1728 C1724 1.368 . S
C1728 C1727 1.523 . S
H1729 C1704 0.950 . S
H1730 C1706 0.950 . S
H1731 C1707 0.949 . S
H1732 C1709 0.950 . S
H1733 C1711 0.950 . S
C1734 C1735 1.349 . S
C1734 C1736 1.327 . S
C1734 H1759 0.950 . S
C1735 C1734 1.349 . S
C1735 C1751 1.349 . S
C1736 C1734 1.327 . S
C1736 C1755 1.429 . S
C1736 H1760 0.950 . S
C1737 C1754 1.574 . S
C1737 C1756 1.368 . S
C1737 H1761 0.949 . S
H1738 C1742 0.949 . S
C1739 C1740 1.349 . S
C1739 C1741 1.327 . S
C1739 H1762 0.950 . S
C1740 C1739 1.349 . S
C1740 C1752 1.349 . S
C1741 C1739 1.327 . S
C1741 C1757 1.429 . S
C1741 H1763 0.950 . S
C1742 H1738 0.949 . S
C1742 C1750 1.574 . S
C1742 C1758 1.368 . S
H1743 C1751 0.950 . S
H1744 C1749 0.950 . S
H1745 C1750 0.949 . S
H1746 C1752 0.950 . S
H1747 C1753 0.950 . S
H1748 C1754 0.949 . S
C1749 H1744 0.950 . S
C1749 C1751 1.327 . S
C1749 C1755 1.429 . S
C1750 C1742 1.574 . S
C1750 H1745 0.949 . S
C1750 C1756 1.368 . S
C1751 C1735 1.349 . S
C1751 H1743 0.950 . S
C1751 C1749 1.327 . S
C1752 C1740 1.349 . S
C1752 H1746 0.950 . S
C1752 C1753 1.327 . S
C1753 H1747 0.950 . S
C1753 C1752 1.327 . S
C1753 C1757 1.429 . S
C1754 C1737 1.574 . S
C1754 H1748 0.949 . S
C1754 C1758 1.368 . S
C1755 C1736 1.429 . S
C1755 C1749 1.429 . S
C1755 C1756 1.523 . S
C1756 C1737 1.368 . S
C1756 C1750 1.368 . S
C1756 C1755 1.523 . S
C1757 C1741 1.429 . S
C1757 C1753 1.429 . S
C1757 C1758 1.523 . S
C1758 C1742 1.368 . S
C1758 C1754 1.368 . S
C1758 C1757 1.523 . S
H1759 C1734 0.950 . S
H1760 C1736 0.950 . S
H1761 C1737 0.949 . S
H1762 C1739 0.950 . S
H1763 C1741 0.950 . S
C1764 C1765 1.349 . S
C1764 C1766 1.327 . S
C1764 H1789 0.950 . S
C1765 C1764 1.349 . S
C1765 C1781 1.349 . S
C1766 C1764 1.327 . S
C1766 C1785 1.429 . S
C1766 H1790 0.950 . S
C1767 C1784 1.574 . S
C1767 C1786 1.368 . S
C1767 H1791 0.949 . S
H1768 C1772 0.949 . S
C1769 C1770 1.349 . S
C1769 C1771 1.327 . S
C1769 H1792 0.950 . S
C1770 C1769 1.349 . S
C1770 C1782 1.349 . S
C1771 C1769 1.327 . S
C1771 C1787 1.429 . S
C1771 H1793 0.950 . S
C1772 H1768 0.949 . S
C1772 C1780 1.574 . S
C1772 C1788 1.368 . S
H1773 C1781 0.950 . S
H1774 C1779 0.950 . S
H1775 C1780 0.949 . S
H1776 C1782 0.950 . S
H1777 C1783 0.950 . S
H1778 C1784 0.949 . S
C1779 H1774 0.950 . S
C1779 C1781 1.327 . S
C1779 C1785 1.429 . S
C1780 C1772 1.574 . S
C1780 H1775 0.949 . S
C1780 C1786 1.368 . S
C1781 C1765 1.349 . S
C1781 H1773 0.950 . S
C1781 C1779 1.327 . S
C1782 C1770 1.349 . S
C1782 H1776 0.950 . S
C1782 C1783 1.327 . S
C1783 H1777 0.950 . S
C1783 C1782 1.327 . S
C1783 C1787 1.429 . S
C1784 C1767 1.574 . S
C1784 H1778 0.949 . S
C1784 C1788 1.368 . S
C1785 C1766 1.429 . S
C1785 C1779 1.429 . S
C1785 C1786 1.523 . S
C1786 C1767 1.368 . S
C1786 C1780 1.368 . S
C1786 C1785 1.523 . S
C1787 C1771 1.429 . S
C1787 C1783 1.429 . S
C1787 C1788 1.523 . S
C1788 C1772 1.368 . S
C1788 C1784 1.368 . S
C1788 C1787 1.523 . S
H1789 C1764 0.950 . S
H1790 C1766 0.950 . S
H1791 C1767 0.949 . S
H1792 C1769 0.950 . S
H1793 C1771 0.950 . S
C1794 C1795 1.349 . S
C1794 C1796 1.327 . S
C1794 H1819 0.950 . S
C1795 C1794 1.349 . S
C1795 C1811 1.349 . S
C1796 C1794 1.327 . S
C1796 C1815 1.429 . S
C1796 H1820 0.950 . S
C1797 C1814 1.574 . S
C1797 C1816 1.368 . S
C1797 H1821 0.949 . S
H1798 C1802 0.949 . S
C1799 C1800 1.349 . S
C1799 C1801 1.327 . S
C1799 H1822 0.950 . S
C1800 C1799 1.349 . S
C1800 C1812 1.349 . S
C1801 C1799 1.327 . S
C1801 C1817 1.429 . S
C1801 H1823 0.950 . S
C1802 H1798 0.949 . S
C1802 C1810 1.574 . S
C1802 C1818 1.368 . S
H1803 C1811 0.950 . S
H1804 C1809 0.950 . S
H1805 C1810 0.949 . S
H1806 C1812 0.950 . S
H1807 C1813 0.950 . S
H1808 C1814 0.949 . S
C1809 H1804 0.950 . S
C1809 C1811 1.327 . S
C1809 C1815 1.429 . S
C1810 C1802 1.574 . S
C1810 H1805 0.949 . S
C1810 C1816 1.368 . S
C1811 C1795 1.349 . S
C1811 H1803 0.950 . S
C1811 C1809 1.327 . S
C1812 C1800 1.349 . S
C1812 H1806 0.950 . S
C1812 C1813 1.327 . S
C1813 H1807 0.950 . S
C1813 C1812 1.327 . S
C1813 C1817 1.429 . S
C1814 C1797 1.574 . S
C1814 H1808 0.949 . S
C1814 C1818 1.368 . S
C1815 C1796 1.429 . S
C1815 C1809 1.429 . S
C1815 C1816 1.523 . S
C1816 C1797 1.368 . S
C1816 C1810 1.368 . S
C1816 C1815 1.523 . S
C1817 C1801 1.429 . S
C1817 C1813 1.429 . S
C1817 C1818 1.523 . S
C1818 C1802 1.368 . S
C1818 C1814 1.368 . S
C1818 C1817 1.523 . S
H1819 C1794 0.950 . S
H1820 C1796 0.950 . S
H1821 C1797 0.949 . S
H1822 C1799 0.950 . S
H1823 C1801 0.950 . S
C1824 C1825 1.349 . S
C1824 C1826 1.327 . S
C1824 H1849 0.950 . S
C1825 C1824 1.349 . S
C1825 C1841 1.349 . S
C1826 C1824 1.327 . S
C1826 C1845 1.429 . S
C1826 H1850 0.950 . S
C1827 C1844 1.574 . S
C1827 C1846 1.368 . S
C1827 H1851 0.949 . S
H1828 C1832 0.949 . S
C1829 C1830 1.349 . S
C1829 C1831 1.327 . S
C1829 H1852 0.950 . S
C1830 C1829 1.349 . S
C1830 C1842 1.349 . S
C1831 C1829 1.327 . S
C1831 C1847 1.429 . S
C1831 H1853 0.950 . S
C1832 H1828 0.949 . S
C1832 C1840 1.574 . S
C1832 C1848 1.368 . S
H1833 C1841 0.950 . S
H1834 C1839 0.950 . S
H1835 C1840 0.949 . S
H1836 C1842 0.950 . S
H1837 C1843 0.950 . S
H1838 C1844 0.949 . S
C1839 H1834 0.950 . S
C1839 C1841 1.327 . S
C1839 C1845 1.429 . S
C1840 C1832 1.574 . S
C1840 H1835 0.949 . S
C1840 C1846 1.368 . S
C1841 C1825 1.349 . S
C1841 H1833 0.950 . S
C1841 C1839 1.327 . S
C1842 C1830 1.349 . S
C1842 H1836 0.950 . S
C1842 C1843 1.327 . S
C1843 H1837 0.950 . S
C1843 C1842 1.327 . S
C1843 C1847 1.429 . S
C1844 C1827 1.574 . S
C1844 H1838 0.949 . S
C1844 C1848 1.368 . S
C1845 C1826 1.429 . S
C1845 C1839 1.429 . S
C1845 C1846 1.523 . S
C1846 C1827 1.368 . S
C1846 C1840 1.368 . S
C1846 C1845 1.523 . S
C1847 C1831 1.429 . S
C1847 C1843 1.429 . S
C1847 C1848 1.523 . S
C1848 C1832 1.368 . S
C1848 C1844 1.368 . S
C1848 C1847 1.523 . S
H1849 C1824 0.950 . S
H1850 C1826 0.950 . S
H1851 C1827 0.949 . S
H1852 C1829 0.950 . S
H1853 C1831 0.950 . S
C1854 C1855 1.349 . S
C1854 C1856 1.327 . S
C1854 H1879 0.950 . S
C1855 C1854 1.349 . S
C1855 C1871 1.349 . S
C1856 C1854 1.327 . S
C1856 C1875 1.429 . S
C1856 H1880 0.950 . S
C1857 C1874 1.574 . S
C1857 C1876 1.368 . S
C1857 H1881 0.949 . S
H1858 C1862 0.949 . S
C1859 C1860 1.349 . S
C1859 C1861 1.327 . S
C1859 H1882 0.950 . S
C1860 C1859 1.349 . S
C1860 C1872 1.349 . S
C1861 C1859 1.327 . S
C1861 C1877 1.429 . S
C1861 H1883 0.950 . S
C1862 H1858 0.949 . S
C1862 C1870 1.574 . S
C1862 C1878 1.368 . S
H1863 C1871 0.950 . S
H1864 C1869 0.950 . S
H1865 C1870 0.949 . S
H1866 C1872 0.950 . S
H1867 C1873 0.950 . S
H1868 C1874 0.949 . S
C1869 H1864 0.950 . S
C1869 C1871 1.327 . S
C1869 C1875 1.429 . S
C1870 C1862 1.574 . S
C1870 H1865 0.949 . S
C1870 C1876 1.368 . S
C1871 C1855 1.349 . S
C1871 H1863 0.950 . S
C1871 C1869 1.327 . S
C1872 C1860 1.349 . S
C1872 H1866 0.950 . S
C1872 C1873 1.327 . S
C1873 H1867 0.950 . S
C1873 C1872 1.327 . S
C1873 C1877 1.429 . S
C1874 C1857 1.574 . S
C1874 H1868 0.949 . S
C1874 C1878 1.368 . S
C1875 C1856 1.429 . S
C1875 C1869 1.429 . S
C1875 C1876 1.523 . S
C1876 C1857 1.368 . S
C1876 C1870 1.368 . S
C1876 C1875 1.523 . S
C1877 C1861 1.429 . S
C1877 C1873 1.429 . S
C1877 C1878 1.523 . S
C1878 C1862 1.368 . S
C1878 C1874 1.368 . S
C1878 C1877 1.523 . S
H1879 C1854 0.950 . S
H1880 C1856 0.950 . S
H1881 C1857 0.949 . S
H1882 C1859 0.950 . S
H1883 C1861 0.950 . S
C1884 C1885 1.349 . S
C1884 C1886 1.327 . S
C1884 H1909 0.950 . S
C1885 C1884 1.349 . S
C1885 C1901 1.349 . S
C1886 C1884 1.327 . S
C1886 C1905 1.429 . S
C1886 H1910 0.950 . S
C1887 C1904 1.574 . S
C1887 C1906 1.368 . S
C1887 H1911 0.949 . S
H1888 C1892 0.949 . S
C1889 C1890 1.349 . S
C1889 C1891 1.327 . S
C1889 H1912 0.950 . S
C1890 C1889 1.349 . S
C1890 C1902 1.349 . S
C1891 C1889 1.327 . S
C1891 C1907 1.429 . S
C1891 H1913 0.950 . S
C1892 H1888 0.949 . S
C1892 C1900 1.574 . S
C1892 C1908 1.368 . S
H1893 C1901 0.950 . S
H1894 C1899 0.950 . S
H1895 C1900 0.949 . S
H1896 C1902 0.950 . S
H1897 C1903 0.950 . S
H1898 C1904 0.949 . S
C1899 H1894 0.950 . S
C1899 C1901 1.327 . S
C1899 C1905 1.429 . S
C1900 C1892 1.574 . S
C1900 H1895 0.949 . S
C1900 C1906 1.368 . S
C1901 C1885 1.349 . S
C1901 H1893 0.950 . S
C1901 C1899 1.327 . S
C1902 C1890 1.349 . S
C1902 H1896 0.950 . S
C1902 C1903 1.327 . S
C1903 H1897 0.950 . S
C1903 C1902 1.327 . S
C1903 C1907 1.429 . S
C1904 C1887 1.574 . S
C1904 H1898 0.949 . S
C1904 C1908 1.368 . S
C1905 C1886 1.429 . S
C1905 C1899 1.429 . S
C1905 C1906 1.523 . S
C1906 C1887 1.368 . S
C1906 C1900 1.368 . S
C1906 C1905 1.523 . S
C1907 C1891 1.429 . S
C1907 C1903 1.429 . S
C1907 C1908 1.523 . S
C1908 C1892 1.368 . S
C1908 C1904 1.368 . S
C1908 C1907 1.523 . S
H1909 C1884 0.950 . S
H1910 C1886 0.950 . S
H1911 C1887 0.949 . S
H1912 C1889 0.950 . S
H1913 C1891 0.950 . S
C1914 C1915 1.349 . S
C1914 C1916 1.327 . S
C1914 H1939 0.950 . S
C1915 C1914 1.349 . S
C1915 C1931 1.349 . S
C1916 C1914 1.327 . S
C1916 C1935 1.429 . S
C1916 H1940 0.950 . S
C1917 C1934 1.574 . S
C1917 C1936 1.368 . S
C1917 H1941 0.949 . S
H1918 C1922 0.949 . S
C1919 C1920 1.349 . S
C1919 C1921 1.327 . S
C1919 H1942 0.950 . S
C1920 C1919 1.349 . S
C1920 C1932 1.349 . S
C1921 C1919 1.327 . S
C1921 C1937 1.429 . S
C1921 H1943 0.950 . S
C1922 H1918 0.949 . S
C1922 C1930 1.574 . S
C1922 C1938 1.368 . S
H1923 C1931 0.950 . S
H1924 C1929 0.950 . S
H1925 C1930 0.949 . S
H1926 C1932 0.950 . S
H1927 C1933 0.950 . S
H1928 C1934 0.949 . S
C1929 H1924 0.950 . S
C1929 C1931 1.327 . S
C1929 C1935 1.429 . S
C1930 C1922 1.574 . S
C1930 H1925 0.949 . S
C1930 C1936 1.368 . S
C1931 C1915 1.349 . S
C1931 H1923 0.950 . S
C1931 C1929 1.327 . S
C1932 C1920 1.349 . S
C1932 H1926 0.950 . S
C1932 C1933 1.327 . S
C1933 H1927 0.950 . S
C1933 C1932 1.327 . S
C1933 C1937 1.429 . S
C1934 C1917 1.574 . S
C1934 H1928 0.949 . S
C1934 C1938 1.368 . S
C1935 C1916 1.429 . S
C1935 C1929 1.429 . S
C1935 C1936 1.523 . S
C1936 C1917 1.368 . S
C1936 C1930 1.368 . S
C1936 C1935 1.523 . S
C1937 C1921 1.429 . S
C1937 C1933 1.429 . S
C1937 C1938 1.523 . S
C1938 C1922 1.368 . S
C1938 C1934 1.368 . S
C1938 C1937 1.523 . S
H1939 C1914 0.950 . S
H1940 C1916 0.950 . S
H1941 C1917 0.949 . S
H1942 C1919 0.950 . S
H1943 C1921 0.950 . S
C1944 C1945 1.349 . S
C1944 C1946 1.327 . S
C1944 H1969 0.950 . S
C1945 C1944 1.349 . S
C1945 C1961 1.349 . S
C1946 C1944 1.327 . S
C1946 C1965 1.429 . S
C1946 H1970 0.950 . S
C1947 C1964 1.574 . S
C1947 C1966 1.368 . S
C1947 H1971 0.949 . S
H1948 C1952 0.949 . S
C1949 C1950 1.349 . S
C1949 C1951 1.327 . S
C1949 H1972 0.950 . S
C1950 C1949 1.349 . S
C1950 C1962 1.349 . S
C1951 C1949 1.327 . S
C1951 C1967 1.429 . S
C1951 H1973 0.950 . S
C1952 H1948 0.949 . S
C1952 C1960 1.574 . S
C1952 C1968 1.368 . S
H1953 C1961 0.950 . S
H1954 C1959 0.950 . S
H1955 C1960 0.949 . S
H1956 C1962 0.950 . S
H1957 C1963 0.950 . S
H1958 C1964 0.949 . S
C1959 H1954 0.950 . S
C1959 C1961 1.327 . S
C1959 C1965 1.429 . S
C1960 C1952 1.574 . S
C1960 H1955 0.949 . S
C1960 C1966 1.368 . S
C1961 C1945 1.349 . S
C1961 H1953 0.950 . S
C1961 C1959 1.327 . S
C1962 C1950 1.349 . S
C1962 H1956 0.950 . S
C1962 C1963 1.327 . S
C1963 H1957 0.950 . S
C1963 C1962 1.327 . S
C1963 C1967 1.429 . S
C1964 C1947 1.574 . S
C1964 H1958 0.949 . S
C1964 C1968 1.368 . S
C1965 C1946 1.429 . S
C1965 C1959 1.429 . S
C1965 C1966 1.523 . S
C1966 C1947 1.368 . S
C1966 C1960 1.368 . S
C1966 C1965 1.523 . S
C1967 C1951 1.429 . S
C1967 C1963 1.429 . S
C1967 C1968 1.523 . S
C1968 C1952 1.368 . S
C1968 C1964 1.368 . S
C1968 C1967 1.523 . S
H1969 C1944 0.950 . S
H1970 C1946 0.950 . S
H1971 C1947 0.949 . S
H1972 C1949 0.950 . S
H1973 C1951 0.950 . S
C1974 C1975 1.349 . S
C1974 C1976 1.327 . S
C1974 H1999 0.950 . S
C1975 C1974 1.349 . S
C1975 C1991 1.349 . S
C1976 C1974 1.327 . S
C1976 C1995 1.429 . S
C1976 H2000 0.950 . S
C1977 C1994 1.574 . S
C1977 C1996 1.368 . S
C1977 H2001 0.949 . S
H1978 C1982 0.949 . S
C1979 C1980 1.349 . S
C1979 C1981 1.327 . S
C1979 H2002 0.950 . S
C1980 C1979 1.349 . S
C1980 C1992 1.349 . S
C1981 C1979 1.327 . S
C1981 C1997 1.429 . S
C1981 H2003 0.950 . S
C1982 H1978 0.949 . S
C1982 C1990 1.574 . S
C1982 C1998 1.368 . S
H1983 C1991 0.950 . S
H1984 C1989 0.950 . S
H1985 C1990 0.949 . S
H1986 C1992 0.950 . S
H1987 C1993 0.950 . S
H1988 C1994 0.949 . S
C1989 H1984 0.950 . S
C1989 C1991 1.327 . S
C1989 C1995 1.429 . S
C1990 C1982 1.574 . S
C1990 H1985 0.949 . S
C1990 C1996 1.368 . S
C1991 C1975 1.349 . S
C1991 H1983 0.950 . S
C1991 C1989 1.327 . S
C1992 C1980 1.349 . S
C1992 H1986 0.950 . S
C1992 C1993 1.327 . S
C1993 H1987 0.950 . S
C1993 C1992 1.327 . S
C1993 C1997 1.429 . S
C1994 C1977 1.574 . S
C1994 H1988 0.949 . S
C1994 C1998 1.368 . S
C1995 C1976 1.429 . S
C1995 C1989 1.429 . S
C1995 C1996 1.523 . S
C1996 C1977 1.368 . S
C1996 C1990 1.368 . S
C1996 C1995 1.523 . S
C1997 C1981 1.429 . S
C1997 C1993 1.429 . S
C1997 C1998 1.523 . S
C1998 C1982 1.368 . S
C1998 C1994 1.368 . S
C1998 C1997 1.523 . S
H1999 C1974 0.950 . S
H2000 C1976 0.950 . S
H2001 C1977 0.949 . S
H2002 C1979 0.950 . S
H2003 C1981 0.950 . S
C2004 C2005 1.349 . S
C2004 C2006 1.327 . S
C2004 H2029 0.950 . S
C2005 C2004 1.349 . S
C2005 C2021 1.349 . S
C2006 C2004 1.327 . S
C2006 C2025 1.429 . S
C2006 H2030 0.950 . S
C2007 C2024 1.574 . S
C2007 C2026 1.368 . S
C2007 H2031 0.949 . S
H2008 C2012 0.949 . S
C2009 C2010 1.349 . S
C2009 C2011 1.327 . S
C2009 H2032 0.950 . S
C2010 C2009 1.349 . S
C2010 C2022 1.349 . S
C2011 C2009 1.327 . S
C2011 C2027 1.429 . S
C2011 H2033 0.950 . S
C2012 H2008 0.949 . S
C2012 C2020 1.574 . S
C2012 C2028 1.368 . S
H2013 C2021 0.950 . S
H2014 C2019 0.950 . S
H2015 C2020 0.949 . S
H2016 C2022 0.950 . S
H2017 C2023 0.950 . S
H2018 C2024 0.949 . S
C2019 H2014 0.950 . S
C2019 C2021 1.327 . S
C2019 C2025 1.429 . S
C2020 C2012 1.574 . S
C2020 H2015 0.949 . S
C2020 C2026 1.368 . S
C2021 C2005 1.349 . S
C2021 H2013 0.950 . S
C2021 C2019 1.327 . S
C2022 C2010 1.349 . S
C2022 H2016 0.950 . S
C2022 C2023 1.327 . S
C2023 H2017 0.950 . S
C2023 C2022 1.327 . S
C2023 C2027 1.429 . S
C2024 C2007 1.574 . S
C2024 H2018 0.949 . S
C2024 C2028 1.368 . S
C2025 C2006 1.429 . S
C2025 C2019 1.429 . S
C2025 C2026 1.523 . S
C2026 C2007 1.368 . S
C2026 C2020 1.368 . S
C2026 C2025 1.523 . S
C2027 C2011 1.429 . S
C2027 C2023 1.429 . S
C2027 C2028 1.523 . S
C2028 C2012 1.368 . S
C2028 C2024 1.368 . S
C2028 C2027 1.523 . S
H2029 C2004 0.950 . S
H2030 C2006 0.950 . S
H2031 C2007 0.949 . S
H2032 C2009 0.950 . S
H2033 C2011 0.950 . S
C2034 C2035 1.349 . S
C2034 C2036 1.327 1_556 S
C2034 H2059 0.950 . S
C2035 C2034 1.349 . S
C2035 C2051 1.349 . S
C2036 C2034 1.327 1_554 S
C2036 C2055 1.429 . S
C2036 H2060 0.950 . S
C2037 C2054 1.574 . S
C2037 C2056 1.368 . S
C2037 H2061 0.949 . S
H2038 C2042 0.949 . S
C2039 C2040 1.349 . S
C2039 C2041 1.327 . S
C2039 H2062 0.950 . S
C2040 C2039 1.349 . S
C2040 C2052 1.349 . S
C2041 C2039 1.327 . S
C2041 C2057 1.429 . S
C2041 H2063 0.950 . S
C2042 H2038 0.949 . S
C2042 C2050 1.574 . S
C2042 C2058 1.368 . S
H2043 C2051 0.950 . S
H2044 C2049 0.950 . S
H2045 C2050 0.949 . S
H2046 C2052 0.950 . S
H2047 C2053 0.950 . S
H2048 C2054 0.949 . S
C2049 H2044 0.950 . S
C2049 C2051 1.327 . S
C2049 C2055 1.429 1_556 S
C2050 C2042 1.574 . S
C2050 H2045 0.949 . S
C2050 C2056 1.368 . S
C2051 C2035 1.349 . S
C2051 H2043 0.950 . S
C2051 C2049 1.327 . S
C2052 C2040 1.349 . S
C2052 H2046 0.950 . S
C2052 C2053 1.327 . S
C2053 H2047 0.950 . S
C2053 C2052 1.327 . S
C2053 C2057 1.429 . S
C2054 C2037 1.574 . S
C2054 H2048 0.949 . S
C2054 C2058 1.368 . S
C2055 C2036 1.429 . S
C2055 C2049 1.429 1_554 S
C2055 C2056 1.523 . S
C2056 C2037 1.368 . S
C2056 C2050 1.368 . S
C2056 C2055 1.523 . S
C2057 C2041 1.429 . S
C2057 C2053 1.429 . S
C2057 C2058 1.523 . S
C2058 C2042 1.368 . S
C2058 C2054 1.368 . S
C2058 C2057 1.523 . S
H2059 C2034 0.950 . S
H2060 C2036 0.950 . S
H2061 C2037 0.949 . S
H2062 C2039 0.950 . S
H2063 C2041 0.950 . S
C2064 C2065 1.349 . S
C2064 C2066 1.327 1_556 S
C2064 H2089 0.950 . S
C2065 C2064 1.349 . S
C2065 C2081 1.349 . S
C2066 C2064 1.327 1_554 S
C2066 C2085 1.429 . S
C2066 H2090 0.950 . S
C2067 C2084 1.574 . S
C2067 C2086 1.368 . S
C2067 H2091 0.949 . S
H2068 C2072 0.949 . S
C2069 C2070 1.349 . S
C2069 C2071 1.327 . S
C2069 H2092 0.950 . S
C2070 C2069 1.349 . S
C2070 C2082 1.349 . S
C2071 C2069 1.327 . S
C2071 C2087 1.429 . S
C2071 H2093 0.950 . S
C2072 H2068 0.949 . S
C2072 C2080 1.574 . S
C2072 C2088 1.368 . S
H2073 C2081 0.950 . S
H2074 C2079 0.950 . S
H2075 C2080 0.949 . S
H2076 C2082 0.950 . S
H2077 C2083 0.950 . S
H2078 C2084 0.949 . S
C2079 H2074 0.950 . S
C2079 C2081 1.327 1_554 S
C2079 C2085 1.429 . S
C2080 C2072 1.574 . S
C2080 H2075 0.949 . S
C2080 C2086 1.368 . S
C2081 C2065 1.349 . S
C2081 H2073 0.950 . S
C2081 C2079 1.327 1_556 S
C2082 C2070 1.349 . S
C2082 H2076 0.950 . S
C2082 C2083 1.327 . S
C2083 H2077 0.950 . S
C2083 C2082 1.327 . S
C2083 C2087 1.429 . S
C2084 C2067 1.574 . S
C2084 H2078 0.949 . S
C2084 C2088 1.368 . S
C2085 C2066 1.429 . S
C2085 C2079 1.429 . S
C2085 C2086 1.523 . S
C2086 C2067 1.368 . S
C2086 C2080 1.368 . S
C2086 C2085 1.523 . S
C2087 C2071 1.429 . S
C2087 C2083 1.429 . S
C2087 C2088 1.523 . S
C2088 C2072 1.368 . S
C2088 C2084 1.368 . S
C2088 C2087 1.523 . S
H2089 C2064 0.950 . S
H2090 C2066 0.950 . S
H2091 C2067 0.949 . S
H2092 C2069 0.950 . S
H2093 C2071 0.950 . S
C2094 C2095 1.349 . S
C2094 C2096 1.327 1_556 S
C2094 H2119 0.950 . S
C2095 C2094 1.349 . S
C2095 C2111 1.349 . S
C2096 C2094 1.327 1_554 S
C2096 C2115 1.429 . S
C2096 H2120 0.950 . S
C2097 C2114 1.574 . S
C2097 C2116 1.368 . S
C2097 H2121 0.949 . S
H2098 C2102 0.949 . S
C2099 C2100 1.349 . S
C2099 C2101 1.327 . S
C2099 H2122 0.950 . S
C2100 C2099 1.349 . S
C2100 C2112 1.349 . S
C2101 C2099 1.327 . S
C2101 C2117 1.429 . S
C2101 H2123 0.950 . S
C2102 H2098 0.949 . S
C2102 C2110 1.574 . S
C2102 C2118 1.368 . S
H2103 C2111 0.950 . S
H2104 C2109 0.950 . S
H2105 C2110 0.949 . S
H2106 C2112 0.950 . S
H2107 C2113 0.950 . S
H2108 C2114 0.949 . S
C2109 H2104 0.950 . S
C2109 C2111 1.327 1_554 S
C2109 C2115 1.429 . S
C2110 C2102 1.574 . S
C2110 H2105 0.949 . S
C2110 C2116 1.368 . S
C2111 C2095 1.349 . S
C2111 H2103 0.950 . S
C2111 C2109 1.327 1_556 S
C2112 C2100 1.349 . S
C2112 H2106 0.950 . S
C2112 C2113 1.327 . S
C2113 H2107 0.950 . S
C2113 C2112 1.327 . S
C2113 C2117 1.429 . S
C2114 C2097 1.574 . S
C2114 H2108 0.949 . S
C2114 C2118 1.368 . S
C2115 C2096 1.429 . S
C2115 C2109 1.429 . S
C2115 C2116 1.523 . S
C2116 C2097 1.368 . S
C2116 C2110 1.368 . S
C2116 C2115 1.523 . S
C2117 C2101 1.429 . S
C2117 C2113 1.429 . S
C2117 C2118 1.523 . S
C2118 C2102 1.368 . S
C2118 C2114 1.368 . S
C2118 C2117 1.523 . S
H2119 C2094 0.950 . S
H2120 C2096 0.950 . S
H2121 C2097 0.949 . S
H2122 C2099 0.950 . S
H2123 C2101 0.950 . S
C2124 C2125 1.349 . S
C2124 C2126 1.327 . S
C2124 H2149 0.950 . S
C2125 C2124 1.349 . S
C2125 C2141 1.349 1_554 S
C2126 C2124 1.327 . S
C2126 C2145 1.429 . S
C2126 H2150 0.950 . S
C2127 C2144 1.574 . S
C2127 C2146 1.368 . S
C2127 H2151 0.949 . S
H2128 C2132 0.949 . S
C2129 C2130 1.349 . S
C2129 C2131 1.327 . S
C2129 H2152 0.950 . S
C2130 C2129 1.349 . S
C2130 C2142 1.349 . S
C2131 C2129 1.327 . S
C2131 C2147 1.429 . S
C2131 H2153 0.950 . S
C2132 H2128 0.949 . S
C2132 C2140 1.574 . S
C2132 C2148 1.368 . S
H2133 C2141 0.950 . S
H2134 C2139 0.950 1_556 S
H2135 C2140 0.949 . S
H2136 C2142 0.950 . S
H2137 C2143 0.950 . S
H2138 C2144 0.949 . S
C2139 H2134 0.950 1_554 S
C2139 C2141 1.327 1_554 S
C2139 C2145 1.429 . S
C2140 C2132 1.574 . S
C2140 H2135 0.949 . S
C2140 C2146 1.368 . S
C2141 C2125 1.349 1_556 S
C2141 H2133 0.950 . S
C2141 C2139 1.327 1_556 S
C2142 C2130 1.349 . S
C2142 H2136 0.950 . S
C2142 C2143 1.327 . S
C2143 H2137 0.950 . S
C2143 C2142 1.327 . S
C2143 C2147 1.429 . S
C2144 C2127 1.574 . S
C2144 H2138 0.949 . S
C2144 C2148 1.368 . S
C2145 C2126 1.429 . S
C2145 C2139 1.429 . S
C2145 C2146 1.523 . S
C2146 C2127 1.368 . S
C2146 C2140 1.368 . S
C2146 C2145 1.523 . S
C2147 C2131 1.429 . S
C2147 C2143 1.429 . S
C2147 C2148 1.523 . S
C2148 C2132 1.368 . S
C2148 C2144 1.368 . S
C2148 C2147 1.523 . S
H2149 C2124 0.950 . S
H2150 C2126 0.950 . S
H2151 C2127 0.949 . S
H2152 C2129 0.950 . S
H2153 C2131 0.950 . S
C2154 C2155 1.349 . S
C2154 C2156 1.327 . S
C2154 H2179 0.950 . S
C2155 C2154 1.349 . S
C2155 C2171 1.349 . S
C2156 C2154 1.327 . S
C2156 C2175 1.429 . S
C2156 H2180 0.950 . S
C2157 C2174 1.574 . S
C2157 C2176 1.368 . S
C2157 H2181 0.949 . S
H2158 C2162 0.969 . S
C2159 C2160 1.349 . S
C2159 C2161 1.327 . S
C2159 H2182 0.950 . S
C2160 C2159 1.349 . S
C2160 C2172 1.349 1_554 S
C2161 C2159 1.327 . S
C2161 C2177 1.429 . S
C2161 H2183 0.950 . S
C2162 H2158 0.969 . S
C2162 C2170 1.574 . S
C2162 C2178 1.368 . S
H2163 C2171 0.950 . S
H2164 C2169 0.950 . S
H2165 C2170 0.949 . S
H2166 C2172 0.950 . S
H2167 C2173 0.957 . S
H2168 C2174 0.949 . S
C2169 H2164 0.950 . S
C2169 C2171 1.327 . S
C2169 C2175 1.429 . S
C2170 C2162 1.574 . S
C2170 H2165 0.949 . S
C2170 C2176 1.368 . S
C2171 C2155 1.349 . S
C2171 H2163 0.950 . S
C2171 C2169 1.327 . S
C2172 C2160 1.349 1_556 S
C2172 H2166 0.950 . S
C2172 C2173 1.331 . S
C2173 H2167 0.957 . S
C2173 C2172 1.331 . S
C2173 C2177 1.417 1_556 S
C2174 C2157 1.574 . S
C2174 H2168 0.949 . S
C2174 C2178 1.368 . S
C2175 C2156 1.429 . S
C2175 C2169 1.429 . S
C2175 C2176 1.523 . S
C2176 C2157 1.368 . S
C2176 C2170 1.368 . S
C2176 C2175 1.523 . S
C2177 C2161 1.429 . S
C2177 C2173 1.417 1_554 S
C2177 C2178 1.523 . S
C2178 C2162 1.368 . S
C2178 C2174 1.368 . S
C2178 C2177 1.523 . S
H2179 C2154 0.950 . S
H2180 C2156 0.950 . S
H2181 C2157 0.949 . S
H2182 C2159 0.950 . S
H2183 C2161 0.950 . S
C2184 C2185 1.346 1_556 S
C2184 C2186 1.325 1_556 S
C2184 H2209 0.954 . S
C2185 C2184 1.346 1_554 S
C2185 C2201 1.349 . S
C2186 C2184 1.325 1_554 S
C2186 C2205 1.429 . S
C2186 H2210 0.950 1_554 S
C2187 C2204 1.574 . S
C2187 C2206 1.368 . S
C2187 H2211 0.949 . S
H2188 C2192 0.949 . S
C2189 C2190 1.349 . S
C2189 C2191 1.327 . S
C2189 H2212 0.950 . S
C2190 C2189 1.349 . S
C2190 C2202 1.349 . S
C2191 C2189 1.327 . S
C2191 C2207 1.429 . S
C2191 H2213 0.950 . S
C2192 H2188 0.949 . S
C2192 C2200 1.574 . S
C2192 C2208 1.368 . S
H2193 C2201 0.950 . S
H2194 C2199 0.950 . S
H2195 C2200 0.949 . S
H2196 C2202 0.950 . S
H2197 C2203 0.950 . S
H2198 C2204 0.949 . S
C2199 H2194 0.950 . S
C2199 C2201 1.327 . S
C2199 C2205 1.429 . S
C2200 C2192 1.574 . S
C2200 H2195 0.949 . S
C2200 C2206 1.368 . S
C2201 C2185 1.349 . S
C2201 H2193 0.950 . S
C2201 C2199 1.327 . S
C2202 C2190 1.349 . S
C2202 H2196 0.950 . S
C2202 C2203 1.327 . S
C2203 H2197 0.950 . S
C2203 C2202 1.327 . S
C2203 C2207 1.429 . S
C2204 C2187 1.574 . S
C2204 H2198 0.949 . S
C2204 C2208 1.368 . S
C2205 C2186 1.429 . S
C2205 C2199 1.429 . S
C2205 C2206 1.523 . S
C2206 C2187 1.368 . S
C2206 C2200 1.368 . S
C2206 C2205 1.523 . S
C2207 C2191 1.429 . S
C2207 C2203 1.429 . S
C2207 C2208 1.523 . S
C2208 C2192 1.368 . S
C2208 C2204 1.368 . S
C2208 C2207 1.523 . S
H2209 C2184 0.954 . S
H2210 C2186 0.950 1_556 S
H2211 C2187 0.949 . S
H2212 C2189 0.950 . S
H2213 C2191 0.950 . S
C2214 C2215 1.349 . S
C2214 C2216 1.327 . S
C2214 H2239 0.950 . S
C2215 C2214 1.349 . S
C2215 C2231 1.349 . S
C2216 C2214 1.327 . S
C2216 C2235 1.429 . S
C2216 H2240 0.950 . S
C2217 C2234 1.574 . S
C2217 C2236 1.368 . S
C2217 H2241 0.949 . S
H2218 C2222 0.949 . S
C2219 C2220 1.349 . S
C2219 C2221 1.327 . S
C2219 H2242 0.950 . S
C2220 C2219 1.349 . S
C2220 C2232 1.349 . S
C2221 C2219 1.327 . S
C2221 C2237 1.429 . S
C2221 H2243 0.950 . S
C2222 H2218 0.949 . S
C2222 C2230 1.574 . S
C2222 C2238 1.368 . S
H2223 C2231 0.950 . S
H2224 C2229 0.950 . S
H2225 C2230 0.949 . S
H2226 C2232 0.950 . S
H2227 C2233 0.950 . S
H2228 C2234 0.949 . S
C2229 H2224 0.950 . S
C2229 C2231 1.327 . S
C2229 C2235 1.429 . S
C2230 C2222 1.574 . S
C2230 H2225 0.949 . S
C2230 C2236 1.368 . S
C2231 C2215 1.349 . S
C2231 H2223 0.950 . S
C2231 C2229 1.327 . S
C2232 C2220 1.349 . S
C2232 H2226 0.950 . S
C2232 C2233 1.327 . S
C2233 H2227 0.950 . S
C2233 C2232 1.327 . S
C2233 C2237 1.429 . S
C2234 C2217 1.574 . S
C2234 H2228 0.949 . S
C2234 C2238 1.368 . S
C2235 C2216 1.429 . S
C2235 C2229 1.429 . S
C2235 C2236 1.523 . S
C2236 C2217 1.368 . S
C2236 C2230 1.368 . S
C2236 C2235 1.523 . S
C2237 C2221 1.429 . S
C2237 C2233 1.429 . S
C2237 C2238 1.523 . S
C2238 C2222 1.368 . S
C2238 C2234 1.368 . S
C2238 C2237 1.523 . S
H2239 C2214 0.950 . S
H2240 C2216 0.950 . S
H2241 C2217 0.949 . S
H2242 C2219 0.950 . S
H2243 C2221 0.950 . S
C2244 C2245 1.349 . S
C2244 C2246 1.327 . S
C2244 H2269 0.950 . S
C2245 C2244 1.349 . S
C2245 C2261 1.349 . S
C2246 C2244 1.327 . S
C2246 C2265 1.429 . S
C2246 H2270 0.950 . S
C2247 C2264 1.574 . S
C2247 C2266 1.368 . S
C2247 H2271 0.949 . S
H2248 C2252 0.949 . S
C2249 C2250 1.349 . S
C2249 C2251 1.327 . S
C2249 H2272 0.950 . S
C2250 C2249 1.349 . S
C2250 C2262 1.349 . S
C2251 C2249 1.327 . S
C2251 C2267 1.429 . S
C2251 H2273 0.950 . S
C2252 H2248 0.949 . S
C2252 C2260 1.574 . S
C2252 C2268 1.368 . S
H2253 C2261 0.950 . S
H2254 C2259 0.950 . S
H2255 C2260 0.949 . S
H2256 C2262 0.950 . S
H2257 C2263 0.950 . S
H2258 C2264 0.949 . S
C2259 H2254 0.950 . S
C2259 C2261 1.327 . S
C2259 C2265 1.429 . S
C2260 C2252 1.574 . S
C2260 H2255 0.949 . S
C2260 C2266 1.368 . S
C2261 C2245 1.349 . S
C2261 H2253 0.950 . S
C2261 C2259 1.327 . S
C2262 C2250 1.349 . S
C2262 H2256 0.950 . S
C2262 C2263 1.327 . S
C2263 H2257 0.950 . S
C2263 C2262 1.327 . S
C2263 C2267 1.429 . S
C2264 C2247 1.574 . S
C2264 H2258 0.949 . S
C2264 C2268 1.368 . S
C2265 C2246 1.429 . S
C2265 C2259 1.429 . S
C2265 C2266 1.523 . S
C2266 C2247 1.368 . S
C2266 C2260 1.368 . S
C2266 C2265 1.523 . S
C2267 C2251 1.429 . S
C2267 C2263 1.429 . S
C2267 C2268 1.523 . S
C2268 C2252 1.368 . S
C2268 C2264 1.368 . S
C2268 C2267 1.523 . S
H2269 C2244 0.950 . S
H2270 C2246 0.950 . S
H2271 C2247 0.949 . S
H2272 C2249 0.950 . S
H2273 C2251 0.950 . S
C2274 C2275 1.349 . S
C2274 C2276 1.327 . S
C2274 H2299 0.950 . S
C2275 C2274 1.349 . S
C2275 C2291 1.349 . S
C2276 C2274 1.327 . S
C2276 C2295 1.429 . S
C2276 H2300 0.950 . S
C2277 C2294 1.574 . S
C2277 C2296 1.368 . S
C2277 H2301 0.949 . S
H2278 C2282 0.949 . S
C2279 C2280 1.349 . S
C2279 C2281 1.327 . S
C2279 H2302 0.950 . S
C2280 C2279 1.349 . S
C2280 C2292 1.349 . S
C2281 C2279 1.327 . S
C2281 C2297 1.429 . S
C2281 H2303 0.950 . S
C2282 H2278 0.949 . S
C2282 C2290 1.574 . S
C2282 C2298 1.368 . S
H2283 C2291 0.950 . S
H2284 C2289 0.950 . S
H2285 C2290 0.949 . S
H2286 C2292 0.950 . S
H2287 C2293 0.950 . S
H2288 C2294 0.949 . S
C2289 H2284 0.950 . S
C2289 C2291 1.327 . S
C2289 C2295 1.429 . S
C2290 C2282 1.574 . S
C2290 H2285 0.949 . S
C2290 C2296 1.368 . S
C2291 C2275 1.349 . S
C2291 H2283 0.950 . S
C2291 C2289 1.327 . S
C2292 C2280 1.349 . S
C2292 H2286 0.950 . S
C2292 C2293 1.327 . S
C2293 H2287 0.950 . S
C2293 C2292 1.327 . S
C2293 C2297 1.429 . S
C2294 C2277 1.574 . S
C2294 H2288 0.949 . S
C2294 C2298 1.368 . S
C2295 C2276 1.429 . S
C2295 C2289 1.429 . S
C2295 C2296 1.523 . S
C2296 C2277 1.368 . S
C2296 C2290 1.368 . S
C2296 C2295 1.523 . S
C2297 C2281 1.429 . S
C2297 C2293 1.429 . S
C2297 C2298 1.523 . S
C2298 C2282 1.368 . S
C2298 C2294 1.368 . S
C2298 C2297 1.523 . S
H2299 C2274 0.950 . S
H2300 C2276 0.950 . S
H2301 C2277 0.949 . S
H2302 C2279 0.950 . S
H2303 C2281 0.950 . S
C2304 C2305 1.349 . S
C2304 C2306 1.327 . S
C2304 H2329 0.950 . S
C2305 C2304 1.349 . S
C2305 C2321 1.349 . S
C2306 C2304 1.327 . S
C2306 C2325 1.429 . S
C2306 H2330 0.950 . S
C2307 C2324 1.574 . S
C2307 C2326 1.368 . S
C2307 H2331 0.949 . S
H2308 C2312 0.949 . S
C2309 C2310 1.349 . S
C2309 C2311 1.327 . S
C2309 H2332 0.950 . S
C2310 C2309 1.349 . S
C2310 C2322 1.349 1_556 S
C2311 C2309 1.327 . S
C2311 C2327 1.429 . S
C2311 H2333 0.950 . S
C2312 H2308 0.949 . S
C2312 C2320 1.574 . S
C2312 C2328 1.368 . S
H2313 C2321 0.950 . S
H2314 C2319 0.950 . S
H2315 C2320 0.949 . S
H2316 C2322 0.950 . S
H2317 C2323 0.950 1_554 S
H2318 C2324 0.949 . S
C2319 H2314 0.950 . S
C2319 C2321 1.327 . S
C2319 C2325 1.429 . S
C2320 C2312 1.574 . S
C2320 H2315 0.949 . S
C2320 C2326 1.368 . S
C2321 C2305 1.349 . S
C2321 H2313 0.950 . S
C2321 C2319 1.327 . S
C2322 C2310 1.349 1_554 S
C2322 H2316 0.950 . S
C2322 C2323 1.327 1_554 S
C2323 H2317 0.950 1_556 S
C2323 C2322 1.327 1_556 S
C2323 C2327 1.429 . S
C2324 C2307 1.574 . S
C2324 H2318 0.949 . S
C2324 C2328 1.368 . S
C2325 C2306 1.429 . S
C2325 C2319 1.429 . S
C2325 C2326 1.523 . S
C2326 C2307 1.368 . S
C2326 C2320 1.368 . S
C2326 C2325 1.523 . S
C2327 C2311 1.429 . S
C2327 C2323 1.429 . S
C2327 C2328 1.523 . S
C2328 C2312 1.368 . S
C2328 C2324 1.368 . S
C2328 C2327 1.523 . S
H2329 C2304 0.950 . S
H2330 C2306 0.950 . S
H2331 C2307 0.949 . S
H2332 C2309 0.950 . S
H2333 C2311 0.950 . S
C2334 C2335 1.349 . S
C2334 C2336 1.327 . S
C2334 H2359 0.950 . S
C2335 C2334 1.349 . S
C2335 C2351 1.349 . S
C2336 C2334 1.327 . S
C2336 C2355 1.429 . S
C2336 H2360 0.950 . S
C2337 C2354 1.574 . S
C2337 C2356 1.368 . S
C2337 H2361 0.949 . S
H2338 C2342 0.949 . S
C2339 C2340 1.349 . S
C2339 C2341 1.327 . S
C2339 H2362 0.950 . S
C2340 C2339 1.349 . S
C2340 C2352 1.349 . S
C2341 C2339 1.327 . S
C2341 C2357 1.429 . S
C2341 H2363 0.950 . S
C2342 H2338 0.949 . S
C2342 C2350 1.574 . S
C2342 C2358 1.368 . S
H2343 C2351 0.950 1_554 S
H2344 C2349 0.950 1_554 S
H2345 C2350 0.949 . S
H2346 C2352 0.950 . S
H2347 C2353 0.950 . S
H2348 C2354 0.949 . S
C2349 H2344 0.950 1_556 S
C2349 C2351 1.327 . S
C2349 C2355 1.429 . S
C2350 C2342 1.574 . S
C2350 H2345 0.949 . S
C2350 C2356 1.368 . S
C2351 C2335 1.349 . S
C2351 H2343 0.950 1_556 S
C2351 C2349 1.327 . S
C2352 C2340 1.349 . S
C2352 H2346 0.950 . S
C2352 C2353 1.327 . S
C2353 H2347 0.950 . S
C2353 C2352 1.327 . S
C2353 C2357 1.429 . S
C2354 C2337 1.574 . S
C2354 H2348 0.949 . S
C2354 C2358 1.368 . S
C2355 C2336 1.429 . S
C2355 C2349 1.429 . S
C2355 C2356 1.523 . S
C2356 C2337 1.368 . S
C2356 C2350 1.368 . S
C2356 C2355 1.523 . S
C2357 C2341 1.429 . S
C2357 C2353 1.429 . S
C2357 C2358 1.523 . S
C2358 C2342 1.368 . S
C2358 C2354 1.368 . S
C2358 C2357 1.523 . S
H2359 C2334 0.950 . S
H2360 C2336 0.950 . S
H2361 C2337 0.949 . S
H2362 C2339 0.950 . S
H2363 C2341 0.950 . S
C2364 C2365 1.349 . S
C2364 C2366 1.327 . S
C2364 H2389 0.950 . S
C2365 C2364 1.349 . S
C2365 C2381 1.349 . S
C2366 C2364 1.327 . S
C2366 C2385 1.429 . S
C2366 H2390 0.950 . S
C2367 C2384 1.574 . S
C2367 C2386 1.368 . S
C2367 H2391 0.949 . S
H2368 C2372 0.949 . S
C2369 C2370 1.349 . S
C2369 C2371 1.327 . S
C2369 H2392 0.950 . S
C2370 C2369 1.349 . S
C2370 C2382 1.349 . S
C2371 C2369 1.327 . S
C2371 C2387 1.429 . S
C2371 H2393 0.950 . S
C2372 H2368 0.949 . S
C2372 C2380 1.574 . S
C2372 C2388 1.368 . S
H2373 C2381 0.950 . S
H2374 C2379 0.950 . S
H2375 C2380 0.949 . S
H2376 C2382 0.950 1_554 S
H2377 C2383 0.950 . S
H2378 C2384 0.949 . S
C2379 H2374 0.950 . S
C2379 C2381 1.327 . S
C2379 C2385 1.429 . S
C2380 C2372 1.574 . S
C2380 H2375 0.949 . S
C2380 C2386 1.368 . S
C2381 C2365 1.349 . S
C2381 H2373 0.950 . S
C2381 C2379 1.327 . S
C2382 C2370 1.349 . S
C2382 H2376 0.950 1_556 S
C2382 C2383 1.327 . S
C2383 H2377 0.950 . S
C2383 C2382 1.327 . S
C2383 C2387 1.429 . S
C2384 C2367 1.574 . S
C2384 H2378 0.949 . S
C2384 C2388 1.368 . S
C2385 C2366 1.429 . S
C2385 C2379 1.429 . S
C2385 C2386 1.523 . S
C2386 C2367 1.368 . S
C2386 C2380 1.368 . S
C2386 C2385 1.523 . S
C2387 C2371 1.429 . S
C2387 C2383 1.429 . S
C2387 C2388 1.523 . S
C2388 C2372 1.368 . S
C2388 C2384 1.368 . S
C2388 C2387 1.523 . S
H2389 C2364 0.950 . S
H2390 C2366 0.950 . S
H2391 C2367 0.949 . S
H2392 C2369 0.950 . S
H2393 C2371 0.950 . S
C2394 C2395 1.349 . S
C2394 C2396 1.327 . S
C2394 H2419 0.950 . S
C2395 C2394 1.349 . S
C2395 C2411 1.349 . S
C2396 C2394 1.327 . S
C2396 C2415 1.429 . S
C2396 H2420 0.950 . S
C2397 C2414 1.574 . S
C2397 C2416 1.368 . S
C2397 H2421 0.949 . S
H2398 C2402 0.949 . S
C2399 C2400 1.349 . S
C2399 C2401 1.327 . S
C2399 H2422 0.950 . S
C2400 C2399 1.349 . S
C2400 C2412 1.349 . S
C2401 C2399 1.327 . S
C2401 C2417 1.429 . S
C2401 H2423 0.950 . S
C2402 H2398 0.949 . S
C2402 C2410 1.574 . S
C2402 C2418 1.368 . S
H2403 C2411 0.950 . S
H2404 C2409 0.950 . S
H2405 C2410 0.949 . S
H2406 C2412 0.950 . S
H2407 C2413 0.950 . S
H2408 C2414 0.949 . S
C2409 H2404 0.950 . S
C2409 C2411 1.327 . S
C2409 C2415 1.429 . S
C2410 C2402 1.574 . S
C2410 H2405 0.949 . S
C2410 C2416 1.368 . S
C2411 C2395 1.349 . S
C2411 H2403 0.950 . S
C2411 C2409 1.327 . S
C2412 C2400 1.349 . S
C2412 H2406 0.950 . S
C2412 C2413 1.327 . S
C2413 H2407 0.950 . S
C2413 C2412 1.327 . S
C2413 C2417 1.429 . S
C2414 C2397 1.574 . S
C2414 H2408 0.949 . S
C2414 C2418 1.368 . S
C2415 C2396 1.429 . S
C2415 C2409 1.429 . S
C2415 C2416 1.523 . S
C2416 C2397 1.368 . S
C2416 C2410 1.368 . S
C2416 C2415 1.523 . S
C2417 C2401 1.429 . S
C2417 C2413 1.429 . S
C2417 C2418 1.523 . S
C2418 C2402 1.368 . S
C2418 C2414 1.368 . S
C2418 C2417 1.523 . S
H2419 C2394 0.950 . S
H2420 C2396 0.950 . S
H2421 C2397 0.949 . S
H2422 C2399 0.950 . S
H2423 C2401 0.950 . S
C2424 C2425 1.349 . S
C2424 C2426 1.327 . S
C2424 H2449 0.950 . S
C2425 C2424 1.349 . S
C2425 C2441 1.349 . S
C2426 C2424 1.327 . S
C2426 C2445 1.429 . S
C2426 H2450 0.950 . S
C2427 C2444 1.574 . S
C2427 C2446 1.368 . S
C2427 H2451 0.949 . S
H2428 C2432 0.949 . S
C2429 C2430 1.349 . S
C2429 C2431 1.327 . S
C2429 H2452 0.950 . S
C2430 C2429 1.349 . S
C2430 C2442 1.349 . S
C2431 C2429 1.327 . S
C2431 C2447 1.429 . S
C2431 H2453 0.950 . S
C2432 H2428 0.949 . S
C2432 C2440 1.574 . S
C2432 C2448 1.368 . S
H2433 C2441 0.950 . S
H2434 C2439 0.950 . S
H2435 C2440 0.949 . S
H2436 C2442 0.950 . S
H2437 C2443 0.950 . S
H2438 C2444 0.949 . S
C2439 H2434 0.950 . S
C2439 C2441 1.327 . S
C2439 C2445 1.429 . S
C2440 C2432 1.574 . S
C2440 H2435 0.949 . S
C2440 C2446 1.368 . S
C2441 C2425 1.349 . S
C2441 H2433 0.950 . S
C2441 C2439 1.327 . S
C2442 C2430 1.349 . S
C2442 H2436 0.950 . S
C2442 C2443 1.327 . S
C2443 H2437 0.950 . S
C2443 C2442 1.327 . S
C2443 C2447 1.429 . S
C2444 C2427 1.574 . S
C2444 H2438 0.949 . S
C2444 C2448 1.368 . S
C2445 C2426 1.429 . S
C2445 C2439 1.429 . S
C2445 C2446 1.523 . S
C2446 C2427 1.368 . S
C2446 C2440 1.368 . S
C2446 C2445 1.523 . S
C2447 C2431 1.429 . S
C2447 C2443 1.429 . S
C2447 C2448 1.523 . S
C2448 C2432 1.368 . S
C2448 C2444 1.368 . S
C2448 C2447 1.523 . S
H2449 C2424 0.950 . S
H2450 C2426 0.950 . S
H2451 C2427 0.949 . S
H2452 C2429 0.950 . S
H2453 C2431 0.950 . S
C2454 C2455 1.349 . S
C2454 C2456 1.327 . S
C2454 H2479 0.950 . S
C2455 C2454 1.349 . S
C2455 C2471 1.349 . S
C2456 C2454 1.327 . S
C2456 C2475 1.429 . S
C2456 H2480 0.950 . S
C2457 C2474 1.574 . S
C2457 C2476 1.368 . S
C2457 H2481 0.949 . S
H2458 C2462 0.949 . S
C2459 C2460 1.349 . S
C2459 C2461 1.327 . S
C2459 H2482 0.950 . S
C2460 C2459 1.349 . S
C2460 C2472 1.349 . S
C2461 C2459 1.327 . S
C2461 C2477 1.429 . S
C2461 H2483 0.950 . S
C2462 H2458 0.949 . S
C2462 C2470 1.574 . S
C2462 C2478 1.368 . S
H2463 C2471 0.950 . S
H2464 C2469 0.950 . S
H2465 C2470 0.949 . S
H2466 C2472 0.950 . S
H2467 C2473 0.950 . S
H2468 C2474 0.949 . S
C2469 H2464 0.950 . S
C2469 C2471 1.327 . S
C2469 C2475 1.429 . S
C2470 C2462 1.574 . S
C2470 H2465 0.949 . S
C2470 C2476 1.368 . S
C2471 C2455 1.349 . S
C2471 H2463 0.950 . S
C2471 C2469 1.327 . S
C2472 C2460 1.349 . S
C2472 H2466 0.950 . S
C2472 C2473 1.327 . S
C2473 H2467 0.950 . S
C2473 C2472 1.327 . S
C2473 C2477 1.429 . S
C2474 C2457 1.574 . S
C2474 H2468 0.949 . S
C2474 C2478 1.368 . S
C2475 C2456 1.429 . S
C2475 C2469 1.429 . S
C2475 C2476 1.523 . S
C2476 C2457 1.368 . S
C2476 C2470 1.368 . S
C2476 C2475 1.523 . S
C2477 C2461 1.429 . S
C2477 C2473 1.429 . S
C2477 C2478 1.523 . S
C2478 C2462 1.368 . S
C2478 C2474 1.368 . S
C2478 C2477 1.523 . S
H2479 C2454 0.950 . S
H2480 C2456 0.950 . S
H2481 C2457 0.949 . S
H2482 C2459 0.950 . S
H2483 C2461 0.950 . S
C2484 C2485 1.349 . S
C2484 C2486 1.327 . S
C2484 H2509 0.950 . S
C2485 C2484 1.349 . S
C2485 C2501 1.349 . S
C2486 C2484 1.327 . S
C2486 C2505 1.429 . S
C2486 H2510 0.950 . S
C2487 C2504 1.574 1_455 S
C2487 C2506 1.368 . S
C2487 H2511 0.949 . S
H2488 C2492 0.949 . S
C2489 C2490 1.349 . S
C2489 C2491 1.327 . S
C2489 H2512 0.950 . S
C2490 C2489 1.349 . S
C2490 C2502 1.349 . S
C2491 C2489 1.327 . S
C2491 C2507 1.429 . S
C2491 H2513 0.950 . S
C2492 H2488 0.949 . S
C2492 C2500 1.574 1_655 S
C2492 C2508 1.368 . S
H2493 C2501 0.950 . S
H2494 C2499 0.950 . S
H2495 C2500 0.949 . S
H2496 C2502 0.950 . S
H2497 C2503 0.950 . S
H2498 C2504 0.949 . S
C2499 H2494 0.950 . S
C2499 C2501 1.327 . S
C2499 C2505 1.429 . S
C2500 C2492 1.574 1_455 S
C2500 H2495 0.949 . S
C2500 C2506 1.368 . S
C2501 C2485 1.349 . S
C2501 H2493 0.950 . S
C2501 C2499 1.327 . S
C2502 C2490 1.349 . S
C2502 H2496 0.950 . S
C2502 C2503 1.327 . S
C2503 H2497 0.950 . S
C2503 C2502 1.327 . S
C2503 C2507 1.429 . S
C2504 C2487 1.574 1_655 S
C2504 H2498 0.949 . S
C2504 C2508 1.368 . S
C2505 C2486 1.429 . S
C2505 C2499 1.429 . S
C2505 C2506 1.523 . S
C2506 C2487 1.368 . S
C2506 C2500 1.368 . S
C2506 C2505 1.523 . S
C2507 C2491 1.429 . S
C2507 C2503 1.429 . S
C2507 C2508 1.523 . S
C2508 C2492 1.368 . S
C2508 C2504 1.368 . S
C2508 C2507 1.523 . S
H2509 C2484 0.950 . S
H2510 C2486 0.950 . S
H2511 C2487 0.949 . S
H2512 C2489 0.950 . S
H2513 C2491 0.950 . S
C2514 C2515 1.349 . S
C2514 C2516 1.327 . S
C2514 H2539 0.950 . S
C2515 C2514 1.349 . S
C2515 C2531 1.349 . S
C2516 C2514 1.327 . S
C2516 C2535 1.429 . S
C2516 H2540 0.950 . S
C2517 C2534 1.574 . S
C2517 C2536 1.368 . S
C2517 H2541 0.949 . S
H2518 C2522 0.949 . S
C2519 C2520 1.349 . S
C2519 C2521 1.327 . S
C2519 H2542 0.950 . S
C2520 C2519 1.349 . S
C2520 C2532 1.349 . S
C2521 C2519 1.327 . S
C2521 C2537 1.429 . S
C2521 H2543 0.950 . S
C2522 H2518 0.949 . S
C2522 C2530 1.574 . S
C2522 C2538 1.368 . S
H2523 C2531 0.950 . S
H2524 C2529 0.950 . S
H2525 C2530 0.949 . S
H2526 C2532 0.950 . S
H2527 C2533 0.950 . S
H2528 C2534 0.949 . S
C2529 H2524 0.950 . S
C2529 C2531 1.327 . S
C2529 C2535 1.429 . S
C2530 C2522 1.574 . S
C2530 H2525 0.949 . S
C2530 C2536 1.368 . S
C2531 C2515 1.349 . S
C2531 H2523 0.950 . S
C2531 C2529 1.327 . S
C2532 C2520 1.349 . S
C2532 H2526 0.950 . S
C2532 C2533 1.327 . S
C2533 H2527 0.950 . S
C2533 C2532 1.327 . S
C2533 C2537 1.429 . S
C2534 C2517 1.574 . S
C2534 H2528 0.949 . S
C2534 C2538 1.368 . S
C2535 C2516 1.429 . S
C2535 C2529 1.429 . S
C2535 C2536 1.523 . S
C2536 C2517 1.368 . S
C2536 C2530 1.368 . S
C2536 C2535 1.523 . S
C2537 C2521 1.429 . S
C2537 C2533 1.429 . S
C2537 C2538 1.523 . S
C2538 C2522 1.368 . S
C2538 C2534 1.368 . S
C2538 C2537 1.523 . S
H2539 C2514 0.950 . S
H2540 C2516 0.950 . S
H2541 C2517 0.949 . S
H2542 C2519 0.950 . S
H2543 C2521 0.950 . S
C2544 C2545 1.349 . S
C2544 C2546 1.327 . S
C2544 H2569 0.950 . S
C2545 C2544 1.349 . S
C2545 C2561 1.349 . S
C2546 C2544 1.327 . S
C2546 C2565 1.429 . S
C2546 H2570 0.950 . S
C2547 C2564 1.574 1_565 S
C2547 C2566 1.368 . S
C2547 H2571 0.949 . S
H2548 C2552 0.949 . S
C2549 C2550 1.349 . S
C2549 C2551 1.327 . S
C2549 H2572 0.950 . S
C2550 C2549 1.349 . S
C2550 C2562 1.349 . S
C2551 C2549 1.327 . S
C2551 C2567 1.429 . S
C2551 H2573 0.950 . S
C2552 H2548 0.949 . S
C2552 C2560 1.574 1_545 S
C2552 C2568 1.368 . S
H2553 C2561 0.950 . S
H2554 C2559 0.950 . S
H2555 C2560 0.949 . S
H2556 C2562 0.950 . S
H2557 C2563 0.950 . S
H2558 C2564 0.949 . S
C2559 H2554 0.950 . S
C2559 C2561 1.327 . S
C2559 C2565 1.429 . S
C2560 C2552 1.574 1_565 S
C2560 H2555 0.949 . S
C2560 C2566 1.368 . S
C2561 C2545 1.349 . S
C2561 H2553 0.950 . S
C2561 C2559 1.327 . S
C2562 C2550 1.349 . S
C2562 H2556 0.950 . S
C2562 C2563 1.327 . S
C2563 H2557 0.950 . S
C2563 C2562 1.327 . S
C2563 C2567 1.429 . S
C2564 C2547 1.574 1_545 S
C2564 H2558 0.949 . S
C2564 C2568 1.368 . S
C2565 C2546 1.429 . S
C2565 C2559 1.429 . S
C2565 C2566 1.523 . S
C2566 C2547 1.368 . S
C2566 C2560 1.368 . S
C2566 C2565 1.523 . S
C2567 C2551 1.429 . S
C2567 C2563 1.429 . S
C2567 C2568 1.523 . S
C2568 C2552 1.368 . S
C2568 C2564 1.368 . S
C2568 C2567 1.523 . S
H2569 C2544 0.950 . S
H2570 C2546 0.950 . S
H2571 C2547 0.949 . S
H2572 C2549 0.950 . S
H2573 C2551 0.950 . S
C2574 C2575 1.349 . S
C2574 C2576 1.327 . S
C2574 H2599 0.950 . S
C2575 C2574 1.349 . S
C2575 C2591 1.349 . S
C2576 C2574 1.327 . S
C2576 C2595 1.429 . S
C2576 H2600 0.950 . S
C2577 C2594 1.574 1_545 S
C2577 C2596 1.368 . S
C2577 H2601 0.949 . S
H2578 C2582 0.949 . S
C2579 C2580 1.349 . S
C2579 C2581 1.327 . S
C2579 H2602 0.950 . S
C2580 C2579 1.349 . S
C2580 C2592 1.349 . S
C2581 C2579 1.327 . S
C2581 C2597 1.429 . S
C2581 H2603 0.950 . S
C2582 H2578 0.949 . S
C2582 C2590 1.574 1_565 S
C2582 C2598 1.368 . S
H2583 C2591 0.950 . S
H2584 C2589 0.950 . S
H2585 C2590 0.949 . S
H2586 C2592 0.950 . S
H2587 C2593 0.950 . S
H2588 C2594 0.949 . S
C2589 H2584 0.950 . S
C2589 C2591 1.327 . S
C2589 C2595 1.429 . S
C2590 C2582 1.574 1_545 S
C2590 H2585 0.949 . S
C2590 C2596 1.368 . S
C2591 C2575 1.349 . S
C2591 H2583 0.950 . S
C2591 C2589 1.327 . S
C2592 C2580 1.349 . S
C2592 H2586 0.950 . S
C2592 C2593 1.327 . S
C2593 H2587 0.950 . S
C2593 C2592 1.327 . S
C2593 C2597 1.429 . S
C2594 C2577 1.574 1_565 S
C2594 H2588 0.949 . S
C2594 C2598 1.368 . S
C2595 C2576 1.429 . S
C2595 C2589 1.429 . S
C2595 C2596 1.523 . S
C2596 C2577 1.368 . S
C2596 C2590 1.368 . S
C2596 C2595 1.523 . S
C2597 C2581 1.429 . S
C2597 C2593 1.429 . S
C2597 C2598 1.523 . S
C2598 C2582 1.368 . S
C2598 C2594 1.368 . S
C2598 C2597 1.523 . S
H2599 C2574 0.950 . S
H2600 C2576 0.950 . S
H2601 C2577 0.949 . S
H2602 C2579 0.950 . S
H2603 C2581 0.950 . S
C2604 C2605 1.349 . S
C2604 C2606 1.327 . S
C2604 H2629 0.950 . S
C2605 C2604 1.349 . S
C2605 C2621 1.349 . S
C2606 C2604 1.327 . S
C2606 C2625 1.429 . S
C2606 H2630 0.950 . S
C2607 C2624 1.574 1_455 S
C2607 C2626 1.368 . S
C2607 H2631 0.949 . S
H2608 C2612 0.949 . S
C2609 C2610 1.349 . S
C2609 C2611 1.327 . S
C2609 H2632 0.950 . S
C2610 C2609 1.349 . S
C2610 C2622 1.349 . S
C2611 C2609 1.327 . S
C2611 C2627 1.429 . S
C2611 H2633 0.950 . S
C2612 H2608 0.949 . S
C2612 C2620 1.574 1_655 S
C2612 C2628 1.368 . S
H2613 C2621 0.950 . S
H2614 C2619 0.950 . S
H2615 C2620 0.949 . S
H2616 C2622 0.950 . S
H2617 C2623 0.950 . S
H2618 C2624 0.949 . S
C2619 H2614 0.950 . S
C2619 C2621 1.327 . S
C2619 C2625 1.429 . S
C2620 C2612 1.574 1_455 S
C2620 H2615 0.949 . S
C2620 C2626 1.368 . S
C2621 C2605 1.349 . S
C2621 H2613 0.950 . S
C2621 C2619 1.327 . S
C2622 C2610 1.349 . S
C2622 H2616 0.950 . S
C2622 C2623 1.327 . S
C2623 H2617 0.950 . S
C2623 C2622 1.327 . S
C2623 C2627 1.429 . S
C2624 C2607 1.574 1_655 S
C2624 H2618 0.949 . S
C2624 C2628 1.368 . S
C2625 C2606 1.429 . S
C2625 C2619 1.429 . S
C2625 C2626 1.523 . S
C2626 C2607 1.368 . S
C2626 C2620 1.368 . S
C2626 C2625 1.523 . S
C2627 C2611 1.429 . S
C2627 C2623 1.429 . S
C2627 C2628 1.523 . S
C2628 C2612 1.368 . S
C2628 C2624 1.368 . S
C2628 C2627 1.523 . S
H2629 C2604 0.950 . S
H2630 C2606 0.950 . S
H2631 C2607 0.949 . S
H2632 C2609 0.950 . S
H2633 C2611 0.950 . S
C2634 C2635 1.349 . S
C2634 C2636 1.327 . S
C2634 H2659 0.950 . S
C2635 C2634 1.349 . S
C2635 C2651 1.349 . S
C2636 C2634 1.327 . S
C2636 C2655 1.429 . S
C2636 H2660 0.950 . S
C2637 C2654 1.574 . S
C2637 C2656 1.368 . S
C2637 H2661 0.949 . S
H2638 C2642 0.949 . S
C2639 C2640 1.349 . S
C2639 C2641 1.327 . S
C2639 H2662 0.950 . S
C2640 C2639 1.349 . S
C2640 C2652 1.349 . S
C2641 C2639 1.327 . S
C2641 C2657 1.429 . S
C2641 H2663 0.950 . S
C2642 H2638 0.949 . S
C2642 C2650 1.574 . S
C2642 C2658 1.368 . S
H2643 C2651 0.950 . S
H2644 C2649 0.950 . S
H2645 C2650 0.949 . S
H2646 C2652 0.950 . S
H2647 C2653 0.950 . S
H2648 C2654 0.949 . S
C2649 H2644 0.950 . S
C2649 C2651 1.327 . S
C2649 C2655 1.429 . S
C2650 C2642 1.574 . S
C2650 H2645 0.949 . S
C2650 C2656 1.368 . S
C2651 C2635 1.349 . S
C2651 H2643 0.950 . S
C2651 C2649 1.327 . S
C2652 C2640 1.349 . S
C2652 H2646 0.950 . S
C2652 C2653 1.327 . S
C2653 H2647 0.950 . S
C2653 C2652 1.327 . S
C2653 C2657 1.429 . S
C2654 C2637 1.574 . S
C2654 H2648 0.949 . S
C2654 C2658 1.368 . S
C2655 C2636 1.429 . S
C2655 C2649 1.429 . S
C2655 C2656 1.523 . S
C2656 C2637 1.368 . S
C2656 C2650 1.368 . S
C2656 C2655 1.523 . S
C2657 C2641 1.429 . S
C2657 C2653 1.429 . S
C2657 C2658 1.523 . S
C2658 C2642 1.368 . S
C2658 C2654 1.368 . S
C2658 C2657 1.523 . S
H2659 C2634 0.950 . S
H2660 C2636 0.950 . S
H2661 C2637 0.949 . S
H2662 C2639 0.950 . S
H2663 C2641 0.950 . S
C505 C47 0.978 . S
C510 C5 0.980 . S
C535 C67 1.081 . S
C540 C25 1.081 . S
C565 C75 0.980 . S
C570 C33 0.978 . S
C595 C95 1.113 . S
C600 C137 1.116 . S
C625 C109 1.064 . S
C630 C151 1.064 . S
C655 C165 1.114 . S
C660 C123 1.117 . S
C685 C173 0.978 . S
C690 C215 0.976 . S
C715 C193 1.079 . S
C720 C235 1.079 . S
C745 C201 0.976 . S
C750 C243 0.979 . S
C775 C263 1.107 . S
C780 C305 1.109 . S
C805 C319 1.053 . S
C810 C277 1.053 . S
C835 C291 1.122 . S
C840 C333 1.119 . S
C865 C341 0.978 . S
C870 C383 0.975 . S
C895 C361 1.077 . S
C900 C403 1.077 . S
C925 C411 0.978 . S
C930 C369 0.976 . S
C955 C473 1.122 . S
C960 C431 1.119 . S
C985 C487 1.053 . S
C990 C445 1.054 . S
C1015 C501 1.109 . S
C1020 C459 1.111 . S
C1045 C166 1.097 . S
C1050 C12 1.090 . S
C1075 C19 0.913 . S
C1080 C138 0.981 . S
C1105 C40 1.004 . S
C1110 C152 1.010 . S
C1135 C110 1.018 . S
C1140 C54 1.012 . S
C1165 C61 0.913 . S
C1170 C124 0.981 . S
C1195 C96 1.097 . S
C1200 C82 1.090 . S
C1225 C88 1.246 . S
C1230 C81 1.231 . S
C1255 C102 1.272 . S
C1260 C53 1.257 . S
C1285 C68 1.228 . S
C1290 C116 1.224 . S
C1315 C26 1.226 . S
C1320 C130 1.222 . S
C1345 C39 1.265 . S
C1350 C144 1.280 . S
C1375 C158 1.247 . S
C1380 C11 1.232 . S
C1405 C180 1.082 . S
C1410 C334 1.090 . S
C1435 C306 0.958 . S
C1440 C187 0.894 . S
C1465 C320 1.014 . S
C1470 C208 1.009 . S
C1495 C222 1.009 . S
C1500 C278 1.014 . S
C1525 C292 0.974 . S
C1530 C229 0.908 . S
C1555 C250 1.087 . S
C1560 C264 1.094 . S
C1585 C256 1.242 . S
C1590 C249 1.226 . S
C1615 C270 1.264 . S
C1620 C221 1.248 . S
C1645 C236 1.234 . S
C1650 C284 1.230 . S
C1675 C194 1.246 . S
C1680 C298 1.244 . S
C1705 C207 1.250 . S
C1710 C312 1.266 . S
C1735 C326 1.255 . S
C1740 C179 1.240 . S
C1765 C502 1.093 . S
C1770 C348 1.086 . S
C1795 C355 0.906 . S
C1800 C474 0.972 . S
C1825 C376 1.009 . S
C1830 C488 1.014 . S
C1855 C390 1.007 . S
C1860 C446 1.013 . S
C1885 C460 1.001 . S
C1890 C397 0.931 . S
C1915 C418 1.083 . S
C1920 C432 1.090 . S
C1945 C417 1.240 . S
C1950 C424 1.255 . S
C1975 C389 1.251 . S
C1980 C438 1.267 . S
C2005 C404 1.201 . S
C2010 C452 1.195 . S
C2035 C362 1.235 . S
C2040 C466 1.230 . S
C2065 C375 1.250 . S
C2070 C480 1.266 . S
C2095 C347 1.228 . S
C2100 C494 1.243 . S
C2125 C410 1.624 1_554 S
C2130 C4 1.629 . S
C2155 C18 1.740 . S
C2160 C382 1.643 1_554 S
C2185 C396 1.737 1_554 S
C2190 C32 1.647 . S
C2215 C46 1.645 . S
C2220 C186 1.743 . S
C2245 C200 1.643 . S
C2250 C60 1.740 . S
C2275 C74 1.628 . S
C2280 C172 1.629 . S
C2305 C89 0.995 . S
C2310 C327 0.995 1_556 S
C2335 C299 0.971 . S
C2340 C103 0.976 . S
C2365 C117 0.965 . S
C2370 C313 0.969 1_556 S
C2395 C131 0.965 . S
C2400 C439 0.969 . S
C2425 C145 0.972 . S
C2430 C453 0.969 . S
C2455 C425 0.995 . S
C2460 C159 0.995 . S
C2485 C354 1.740 . S
C2490 C214 1.643 . S
C2515 C368 1.643 . S
C2520 C228 1.740 . S
C2545 C340 1.627 . S
C2550 C242 1.627 . S
C2575 C257 0.991 . S
C2580 C495 0.991 . S
C2605 C467 0.967 . S
C2610 C271 0.970 . S
C2635 C285 0.967 . S
C2640 C481 0.970 . S
