# Generated by pormake.
# Topology wmt, (6)-cn, num edge types: 1
# Building blocks:
#     Node 0, Type 0, BuildingBlock: BETGAK_clean_sbu_0, # of connection points: 6
#     Node 1, Type 0, BuildingBlock: BETGAK_clean_sbu_0, # of connection points: 6
#     Node 2, Type 0, BuildingBlock: BETGAK_clean_sbu_0, # of connection points: 6
#     Node 3, Type 0, BuildingBlock: BETGAK_clean_sbu_0, # of connection points: 6
#     Node 4, Type 0, BuildingBlock: BETGAK_clean_sbu_0, # of connection points: 6
#     Node 5, Type 0, BuildingBlock: BETGAK_clean_sbu_0, # of connection points: 6
#     Node 6, Type 0, BuildingBlock: BETGAK_clean_sbu_0, # of connection points: 6
#     Node 7, Type 0, BuildingBlock: BETGAK_clean_sbu_0, # of connection points: 6
#     Node 8, Type 0, BuildingBlock: BETGAK_clean_sbu_0, # of connection points: 6
#     Node 9, Type 0, BuildingBlock: BETGAK_clean_sbu_0, # of connection points: 6
#     Node 10, Type 0, BuildingBlock: BETGAK_clean_sbu_0, # of connection points: 6
#     Node 11, Type 0, BuildingBlock: BETGAK_clean_sbu_0, # of connection points: 6
#     Node 12, Type 0, BuildingBlock: BETGAK_clean_sbu_0, # of connection points: 6
#     Node 13, Type 0, BuildingBlock: BETGAK_clean_sbu_0, # of connection points: 6
#     Node 14, Type 0, BuildingBlock: BETGAK_clean_sbu_0, # of connection points: 6
#     Node 15, Type 0, BuildingBlock: BETGAK_clean_sbu_0, # of connection points: 6
#     Node 16, Type 0, BuildingBlock: BETGAK_clean_sbu_0, # of connection points: 6
#     Node 17, Type 0, BuildingBlock: BETGAK_clean_sbu_0, # of connection points: 6
#     Node 18, Type 0, BuildingBlock: BETGAK_clean_sbu_0, # of connection points: 6
#     Node 19, Type 0, BuildingBlock: BETGAK_clean_sbu_0, # of connection points: 6
#     Node 20, Type 0, BuildingBlock: BETGAK_clean_sbu_0, # of connection points: 6
#     Node 21, Type 0, BuildingBlock: BETGAK_clean_sbu_0, # of connection points: 6
#     Node 22, Type 0, BuildingBlock: BETGAK_clean_sbu_0, # of connection points: 6
#     Node 23, Type 0, BuildingBlock: BETGAK_clean_sbu_0, # of connection points: 6
#     Node 24, Type 0, BuildingBlock: BETGAK_clean_sbu_0, # of connection points: 6
#     Node 25, Type 0, BuildingBlock: BETGAK_clean_sbu_0, # of connection points: 6
#     Node 26, Type 0, BuildingBlock: BETGAK_clean_sbu_0, # of connection points: 6
#     Node 27, Type 0, BuildingBlock: BETGAK_clean_sbu_0, # of connection points: 6
#     Node 28, Type 0, BuildingBlock: BETGAK_clean_sbu_0, # of connection points: 6
#     Node 29, Type 0, BuildingBlock: BETGAK_clean_sbu_0, # of connection points: 6
#     Node 30, Type 0, BuildingBlock: BETGAK_clean_sbu_0, # of connection points: 6
#     Node 31, Type 0, BuildingBlock: BETGAK_clean_sbu_0, # of connection points: 6
#     Node 32, Type 0, BuildingBlock: BETGAK_clean_sbu_0, # of connection points: 6
#     Node 33, Type 0, BuildingBlock: BETGAK_clean_sbu_0, # of connection points: 6
#     Node 34, Type 0, BuildingBlock: BETGAK_clean_sbu_0, # of connection points: 6
#     Node 35, Type 0, BuildingBlock: BETGAK_clean_sbu_0, # of connection points: 6
#     Edge 36, Type (0, 0), BuildingBlock: EZIPEK_clean_linker_0, # of connection points: 2
#     Edge 37, Type (0, 0), BuildingBlock: EZIPEK_clean_linker_0, # of connection points: 2
#     Edge 38, Type (0, 0), BuildingBlock: EZIPEK_clean_linker_0, # of connection points: 2
#     Edge 39, Type (0, 0), BuildingBlock: EZIPEK_clean_linker_0, # of connection points: 2
#     Edge 40, Type (0, 0), BuildingBlock: EZIPEK_clean_linker_0, # of connection points: 2
#     Edge 41, Type (0, 0), BuildingBlock: EZIPEK_clean_linker_0, # of connection points: 2
#     Edge 42, Type (0, 0), BuildingBlock: EZIPEK_clean_linker_0, # of connection points: 2
#     Edge 43, Type (0, 0), BuildingBlock: EZIPEK_clean_linker_0, # of connection points: 2
#     Edge 44, Type (0, 0), BuildingBlock: EZIPEK_clean_linker_0, # of connection points: 2
#     Edge 45, Type (0, 0), BuildingBlock: EZIPEK_clean_linker_0, # of connection points: 2
#     Edge 46, Type (0, 0), BuildingBlock: EZIPEK_clean_linker_0, # of connection points: 2
#     Edge 47, Type (0, 0), BuildingBlock: EZIPEK_clean_linker_0, # of connection points: 2
#     Edge 48, Type (0, 0), BuildingBlock: EZIPEK_clean_linker_0, # of connection points: 2
#     Edge 49, Type (0, 0), BuildingBlock: EZIPEK_clean_linker_0, # of connection points: 2
#     Edge 50, Type (0, 0), BuildingBlock: EZIPEK_clean_linker_0, # of connection points: 2
#     Edge 51, Type (0, 0), BuildingBlock: EZIPEK_clean_linker_0, # of connection points: 2
#     Edge 52, Type (0, 0), BuildingBlock: EZIPEK_clean_linker_0, # of connection points: 2
#     Edge 53, Type (0, 0), BuildingBlock: EZIPEK_clean_linker_0, # of connection points: 2
#     Edge 54, Type (0, 0), BuildingBlock: EZIPEK_clean_linker_0, # of connection points: 2
#     Edge 55, Type (0, 0), BuildingBlock: EZIPEK_clean_linker_0, # of connection points: 2
#     Edge 56, Type (0, 0), BuildingBlock: EZIPEK_clean_linker_0, # of connection points: 2
#     Edge 57, Type (0, 0), BuildingBlock: EZIPEK_clean_linker_0, # of connection points: 2
#     Edge 58, Type (0, 0), BuildingBlock: EZIPEK_clean_linker_0, # of connection points: 2
#     Edge 59, Type (0, 0), BuildingBlock: EZIPEK_clean_linker_0, # of connection points: 2
#     Edge 60, Type (0, 0), BuildingBlock: EZIPEK_clean_linker_0, # of connection points: 2
#     Edge 61, Type (0, 0), BuildingBlock: EZIPEK_clean_linker_0, # of connection points: 2
#     Edge 62, Type (0, 0), BuildingBlock: EZIPEK_clean_linker_0, # of connection points: 2
#     Edge 63, Type (0, 0), BuildingBlock: EZIPEK_clean_linker_0, # of connection points: 2
#     Edge 64, Type (0, 0), BuildingBlock: EZIPEK_clean_linker_0, # of connection points: 2
#     Edge 65, Type (0, 0), BuildingBlock: EZIPEK_clean_linker_0, # of connection points: 2
#     Edge 66, Type (0, 0), BuildingBlock: EZIPEK_clean_linker_0, # of connection points: 2
#     Edge 67, Type (0, 0), BuildingBlock: EZIPEK_clean_linker_0, # of connection points: 2
#     Edge 68, Type (0, 0), BuildingBlock: EZIPEK_clean_linker_0, # of connection points: 2
#     Edge 69, Type (0, 0), BuildingBlock: EZIPEK_clean_linker_0, # of connection points: 2
#     Edge 70, Type (0, 0), BuildingBlock: EZIPEK_clean_linker_0, # of connection points: 2
#     Edge 71, Type (0, 0), BuildingBlock: EZIPEK_clean_linker_0, # of connection points: 2
#     Edge 72, Type (0, 0), BuildingBlock: EZIPEK_clean_linker_0, # of connection points: 2
#     Edge 73, Type (0, 0), BuildingBlock: EZIPEK_clean_linker_0, # of connection points: 2
#     Edge 74, Type (0, 0), BuildingBlock: EZIPEK_clean_linker_0, # of connection points: 2
#     Edge 75, Type (0, 0), BuildingBlock: EZIPEK_clean_linker_0, # of connection points: 2
#     Edge 76, Type (0, 0), BuildingBlock: EZIPEK_clean_linker_0, # of connection points: 2
#     Edge 77, Type (0, 0), BuildingBlock: EZIPEK_clean_linker_0, # of connection points: 2
#     Edge 78, Type (0, 0), BuildingBlock: EZIPEK_clean_linker_0, # of connection points: 2
#     Edge 79, Type (0, 0), BuildingBlock: EZIPEK_clean_linker_0, # of connection points: 2
#     Edge 80, Type (0, 0), BuildingBlock: EZIPEK_clean_linker_0, # of connection points: 2
#     Edge 81, Type (0, 0), BuildingBlock: EZIPEK_clean_linker_0, # of connection points: 2
#     Edge 82, Type (0, 0), BuildingBlock: EZIPEK_clean_linker_0, # of connection points: 2
#     Edge 83, Type (0, 0), BuildingBlock: EZIPEK_clean_linker_0, # of connection points: 2
#     Edge 84, Type (0, 0), BuildingBlock: EZIPEK_clean_linker_0, # of connection points: 2
#     Edge 85, Type (0, 0), BuildingBlock: EZIPEK_clean_linker_0, # of connection points: 2
#     Edge 86, Type (0, 0), BuildingBlock: EZIPEK_clean_linker_0, # of connection points: 2
#     Edge 87, Type (0, 0), BuildingBlock: EZIPEK_clean_linker_0, # of connection points: 2
#     Edge 88, Type (0, 0), BuildingBlock: EZIPEK_clean_linker_0, # of connection points: 2
#     Edge 89, Type (0, 0), BuildingBlock: EZIPEK_clean_linker_0, # of connection points: 2
#     Edge 90, Type (0, 0), BuildingBlock: EZIPEK_clean_linker_0, # of connection points: 2
#     Edge 91, Type (0, 0), BuildingBlock: EZIPEK_clean_linker_0, # of connection points: 2
#     Edge 92, Type (0, 0), BuildingBlock: EZIPEK_clean_linker_0, # of connection points: 2
#     Edge 93, Type (0, 0), BuildingBlock: EZIPEK_clean_linker_0, # of connection points: 2
#     Edge 94, Type (0, 0), BuildingBlock: EZIPEK_clean_linker_0, # of connection points: 2
#     Edge 95, Type (0, 0), BuildingBlock: EZIPEK_clean_linker_0, # of connection points: 2
#     Edge 96, Type (0, 0), BuildingBlock: EZIPEK_clean_linker_0, # of connection points: 2
#     Edge 97, Type (0, 0), BuildingBlock: EZIPEK_clean_linker_0, # of connection points: 2
#     Edge 98, Type (0, 0), BuildingBlock: EZIPEK_clean_linker_0, # of connection points: 2
#     Edge 99, Type (0, 0), BuildingBlock: EZIPEK_clean_linker_0, # of connection points: 2
#     Edge 100, Type (0, 0), BuildingBlock: EZIPEK_clean_linker_0, # of connection points: 2
#     Edge 101, Type (0, 0), BuildingBlock: EZIPEK_clean_linker_0, # of connection points: 2
#     Edge 102, Type (0, 0), BuildingBlock: EZIPEK_clean_linker_0, # of connection points: 2
#     Edge 103, Type (0, 0), BuildingBlock: EZIPEK_clean_linker_0, # of connection points: 2
#     Edge 104, Type (0, 0), BuildingBlock: EZIPEK_clean_linker_0, # of connection points: 2
#     Edge 105, Type (0, 0), BuildingBlock: EZIPEK_clean_linker_0, # of connection points: 2
#     Edge 106, Type (0, 0), BuildingBlock: EZIPEK_clean_linker_0, # of connection points: 2
#     Edge 107, Type (0, 0), BuildingBlock: EZIPEK_clean_linker_0, # of connection points: 2
#     Edge 108, Type (0, 0), BuildingBlock: EZIPEK_clean_linker_0, # of connection points: 2
#     Edge 109, Type (0, 0), BuildingBlock: EZIPEK_clean_linker_0, # of connection points: 2
#     Edge 110, Type (0, 0), BuildingBlock: EZIPEK_clean_linker_0, # of connection points: 2
#     Edge 111, Type (0, 0), BuildingBlock: EZIPEK_clean_linker_0, # of connection points: 2
#     Edge 112, Type (0, 0), BuildingBlock: EZIPEK_clean_linker_0, # of connection points: 2
#     Edge 113, Type (0, 0), BuildingBlock: EZIPEK_clean_linker_0, # of connection points: 2
#     Edge 114, Type (0, 0), BuildingBlock: EZIPEK_clean_linker_0, # of connection points: 2
#     Edge 115, Type (0, 0), BuildingBlock: EZIPEK_clean_linker_0, # of connection points: 2
#     Edge 116, Type (0, 0), BuildingBlock: EZIPEK_clean_linker_0, # of connection points: 2
#     Edge 117, Type (0, 0), BuildingBlock: EZIPEK_clean_linker_0, # of connection points: 2
#     Edge 118, Type (0, 0), BuildingBlock: EZIPEK_clean_linker_0, # of connection points: 2
#     Edge 119, Type (0, 0), BuildingBlock: EZIPEK_clean_linker_0, # of connection points: 2
#     Edge 120, Type (0, 0), BuildingBlock: EZIPEK_clean_linker_0, # of connection points: 2
#     Edge 121, Type (0, 0), BuildingBlock: EZIPEK_clean_linker_0, # of connection points: 2
#     Edge 122, Type (0, 0), BuildingBlock: EZIPEK_clean_linker_0, # of connection points: 2
#     Edge 123, Type (0, 0), BuildingBlock: EZIPEK_clean_linker_0, # of connection points: 2
#     Edge 124, Type (0, 0), BuildingBlock: EZIPEK_clean_linker_0, # of connection points: 2
#     Edge 125, Type (0, 0), BuildingBlock: EZIPEK_clean_linker_0, # of connection points: 2
#     Edge 126, Type (0, 0), BuildingBlock: EZIPEK_clean_linker_0, # of connection points: 2
#     Edge 127, Type (0, 0), BuildingBlock: EZIPEK_clean_linker_0, # of connection points: 2
#     Edge 128, Type (0, 0), BuildingBlock: EZIPEK_clean_linker_0, # of connection points: 2
#     Edge 129, Type (0, 0), BuildingBlock: EZIPEK_clean_linker_0, # of connection points: 2
#     Edge 130, Type (0, 0), BuildingBlock: EZIPEK_clean_linker_0, # of connection points: 2
#     Edge 131, Type (0, 0), BuildingBlock: EZIPEK_clean_linker_0, # of connection points: 2
#     Edge 132, Type (0, 0), BuildingBlock: EZIPEK_clean_linker_0, # of connection points: 2
#     Edge 133, Type (0, 0), BuildingBlock: EZIPEK_clean_linker_0, # of connection points: 2
#     Edge 134, Type (0, 0), BuildingBlock: EZIPEK_clean_linker_0, # of connection points: 2
#     Edge 135, Type (0, 0), BuildingBlock: EZIPEK_clean_linker_0, # of connection points: 2
#     Edge 136, Type (0, 0), BuildingBlock: EZIPEK_clean_linker_0, # of connection points: 2
#     Edge 137, Type (0, 0), BuildingBlock: EZIPEK_clean_linker_0, # of connection points: 2
#     Edge 138, Type (0, 0), BuildingBlock: EZIPEK_clean_linker_0, # of connection points: 2
#     Edge 139, Type (0, 0), BuildingBlock: EZIPEK_clean_linker_0, # of connection points: 2
#     Edge 140, Type (0, 0), BuildingBlock: EZIPEK_clean_linker_0, # of connection points: 2
#     Edge 141, Type (0, 0), BuildingBlock: EZIPEK_clean_linker_0, # of connection points: 2
#     Edge 142, Type (0, 0), BuildingBlock: EZIPEK_clean_linker_0, # of connection points: 2
#     Edge 143, Type (0, 0), BuildingBlock: EZIPEK_clean_linker_0, # of connection points: 2
# Relax obj value: 0.484
# Max RMSD: 0.206
# Mean RMSD: 0.206
data_MOF--net-wmt--node1-BETGAK_clean_sbu_0--edge1-EZIPEK_clean_linker_0
_symmetry_space_group_name_H-M    P1
_symmetry_Int_Tables_number       1
_symmetry_cell_setting            triclinic
loop_
_symmetry_equiv_pos_as_xyz
'x, y, z'
_cell_length_a     59.589844
_cell_length_b     59.631949
_cell_length_c     27.319173
_cell_angle_alpha  90.086269
_cell_angle_beta   89.878028
_cell_angle_gamma 120.00174
loop_
_atom_site_label
_atom_site_type_symbol
_atom_site_fract_x
_atom_site_fract_y
_atom_site_fract_z
_atom_type_partial_charge
La0 La 0.06435 0.4747 0.19679 0.0
La1 La 0.01744 0.43326 0.15739 0.0
C2 C 0.09178 0.50997 0.25803 0.0
C3 C 0.08558 0.51867 0.30617 0.0
C4 C 0.08328 0.5058 0.35093 0.0
C5 C 0.07736 0.51413 0.39528 0.0
C6 C 0.07357 0.53566 0.39659 0.0
C7 C 0.07598 0.54861 0.3521 0.0
C8 C 0.08205 0.5404 0.30791 0.0
C9 C 0.07592 0.44804 0.12883 0.0
C10 C 0.02164 0.4307 0.27185 0.0
C11 C 0.98063 0.39729 0.11039 0.0
C12 C 0.97829 0.38861 0.05992 0.0
C13 C 0.96365 0.36221 1.04829 0.0
C14 C 0.96403 0.35399 1.00054 0.0
C15 C 0.98016 0.37204 0.9654 0.0
C16 C 0.99378 0.39846 0.97691 0.0
C17 C 0.99246 0.40671 1.02346 0.0
C18 C 0.01071 0.46992 0.19929 0.0
C19 C 0.05317 0.48352 0.08791 0.0
O20 O 0.0907 0.48739 0.25631 0.0
O21 O 0.08203 0.51392 0.21819 0.0
O22 O 0.09077 0.47161 0.1444 0.0
O23 O 0.0564 0.43807 0.1593 0.0
O24 O 0.04155 0.45433 0.26465 0.0
O25 O 0.01107 0.41636 0.23237 0.0
O26 O 0.99677 0.39392 0.13731 0.0
O27 O 0.98376 0.4204 0.11591 0.0
O28 O 0.99587 0.44536 0.2051 0.0
O29 O 0.0294 0.47216 0.17461 0.0
O30 O 0.03391 0.45888 0.09128 0.0
O31 O 0.0672 0.49508 0.12763 0.0
H32 H 0.08627 0.48935 0.35184 0.0
H33 H 0.07588 0.50379 0.42878 0.0
H34 H 0.07345 0.56537 0.35161 0.0
H35 H 0.08406 0.55125 0.27487 0.0
H36 H 0.95234 0.34808 0.0761 0.0
H37 H 0.95242 0.3337 0.99134 0.0
H38 H 0.00577 0.41276 0.94981 0.0
H39 H 0.00338 0.42719 1.03117 0.0
La40 La 0.51325 0.58565 0.20109 0.0
La41 La 0.55818 0.58472 0.15825 0.0
C42 C 0.47727 0.57658 0.26166 0.0
C43 C 0.46864 0.56099 0.30841 0.0
C44 C 0.45138 0.56323 0.34066 0.0
C45 C 0.44327 0.5489 0.3847 0.0
C46 C 0.45212 0.53181 0.39795 0.0
C47 C 0.46944 0.52956 0.36579 0.0
C48 C 0.47753 0.54389 0.32174 0.0
C49 C 0.53994 0.62527 0.13535 0.0
C50 C 0.55686 0.58555 0.27487 0.0
C51 C 0.59909 0.59309 0.11602 0.0
C52 C 0.6128 0.60319 0.07042 0.0
C53 C 0.63615 0.60342 0.06235 0.0
C54 C 0.64797 0.61021 1.01652 0.0
C55 C 0.63638 0.61682 0.97912 0.0
C56 C 0.61367 0.61777 0.98812 0.0
C57 C 0.60188 0.61099 1.03371 0.0
C58 C 0.52172 0.53812 0.19193 0.0
C59 C 0.50719 0.56754 0.09082 0.0
O60 O 0.50005 0.59777 0.26208 0.0
O61 O 0.47378 0.56371 0.2208 0.0
O62 O 0.5165 0.6167 0.15165 0.0
O63 O 0.54923 0.61534 0.16585 0.0
O64 O 0.53325 0.58182 0.26767 0.0
O65 O 0.57205 0.59074 0.23594 0.0
O66 O 0.577 0.57142 0.11218 0.0
O67 O 0.59765 0.60988 0.14487 0.0
O68 O 0.5465 0.54746 0.19384 0.0
O69 O 0.51963 0.55625 0.17403 0.0
O70 O 0.53313 0.5781 0.09181 0.0
O71 O 0.49453 0.56457 0.1329 0.0
H72 H 0.44418 0.5762 0.33186 0.0
H73 H 0.43012 0.55128 0.4087 0.0
H74 H 0.47682 0.51678 0.37491 0.0
H75 H 0.49086 0.54159 0.2982 0.0
H76 H 0.64465 0.59742 0.09086 0.0
H77 H 0.66528 0.60912 1.00952 0.0
H78 H 0.60454 0.62277 0.95915 0.0
H79 H 0.58387 0.61093 1.03982 0.0
La80 La 0.4082 0.93454 0.19615 0.0
La81 La 0.40396 0.97719 0.15383 0.0
C82 C 0.42365 0.91235 0.25566 0.0
C83 C 0.43912 0.92038 0.30307 0.0
C84 C 0.42854 0.92287 0.34775 0.0
C85 C 0.44299 0.92947 0.3918 0.0
C86 C 0.46858 0.93389 0.3929 0.0
C87 C 0.4793 0.93178 0.34825 0.0
C88 C 0.46484 0.9251 0.30428 0.0
C89 C 0.36468 0.91677 0.13861 0.0
C90 C 0.40728 0.97815 0.27033 0.0
C91 C 0.39226 0.00475 0.10219 0.0
C92 C 0.3815 4e-05 1.05316 0.0
C93 C 0.3809 0.01955 1.02578 0.0
C94 C 0.37185 0.01443 0.97755 0.0
C95 C 0.36278 0.98965 0.95759 0.0
C96 C 0.36388 0.97054 0.98511 0.0
C97 C 0.37349 0.97586 1.03215 0.0
C98 C 0.45212 0.99089 0.18028 0.0
C99 C 0.42112 0.9436 0.08361 0.0
O100 O 0.40004 0.90884 0.25572 0.0
O101 O 0.436 0.92396 0.21545 0.0
O102 O 0.37719 0.90483 0.15031 0.0
O103 O 0.37477 0.93703 0.16705 0.0
O104 O 0.4103 0.95779 0.26282 0.0
O105 O 0.40164 0.98798 0.23165 0.0
O106 O 0.41545 0.00773 0.10406 0.0
O107 O 0.37699 0.98843 0.13537 0.0
O108 O 0.44157 0.00511 0.18617 0.0
O109 O 0.4346 0.96997 0.16366 0.0
O110 O 0.41016 0.95842 0.08735 0.0
O111 O 0.42537 0.93391 0.12434 0.0
H112 H 0.40894 0.91952 0.34891 0.0
H113 H 0.43403 0.93084 0.42534 0.0
H114 H 0.49883 0.93489 0.34753 0.0
H115 H 0.47377 0.92331 0.27107 0.0
H116 H 0.38777 0.03863 1.04123 0.0
H117 H 0.37203 0.02964 0.95573 0.0
H118 H 0.35784 0.95163 0.9696 0.0
H119 H 0.3748 0.96105 1.05209 0.0
La120 La 0.46984 0.0593 0.56092 0.0
La121 La 0.42015 0.02097 0.59728 0.0
C122 C 0.51009 0.08276 0.50724 0.0
C123 C 0.51863 0.07828 0.45744 0.0
C124 C 0.51335 0.08747 0.41381 0.0
C125 C 0.52212 0.08391 0.36781 0.0
C126 C 0.5359 0.07039 0.36334 0.0
C127 C 0.54103 0.06114 0.40692 0.0
C128 C 0.53321 0.06565 0.45295 0.0
C129 C 0.44792 0.08083 0.62149 0.0
C130 C 0.42884 0.02315 0.47908 0.0
C131 C 0.37246 0.9954 0.61752 0.0
C132 C 0.35908 0.99156 0.66389 0.0
C133 C 0.33603 0.96838 0.67357 0.0
C134 C 0.32631 0.9627 0.72127 0.0
C135 C 0.34011 0.97994 0.75912 0.0
C136 C 0.36237 0.00356 0.74881 0.0
C137 C 0.37205 0.00909 0.70169 0.0
C138 C 0.4509 0.00238 0.59834 0.0
C139 C 0.46875 0.0473 0.67292 0.0
O140 O 0.4915 0.08849 0.50874 0.0
O141 O 0.50757 0.06696 0.54295 0.0
O142 O 0.4722 0.08903 0.61298 0.0
O143 O 0.43648 0.06222 0.59003 0.0
O144 O 0.44955 0.04576 0.48897 0.0
O145 O 0.41442 0.00945 0.51702 0.0
O146 O 0.38764 0.98559 0.61645 0.0
O147 O 0.38398 0.01897 0.60026 0.0
O148 O 0.43319 0.99755 0.6308 0.0
O149 O 0.45067 0.01742 0.56474 0.0
O150 O 0.44281 0.03688 0.66821 0.0
O151 O 0.48323 0.05362 0.63256 0.0
H152 H 0.50268 0.09776 0.41517 0.0
H153 H 0.51802 0.09171 0.33547 0.0
H154 H 0.55177 0.05091 0.4055 0.0
H155 H 0.53903 0.05952 0.48519 0.0
H156 H 0.32671 0.95394 0.64524 0.0
H157 H 0.30961 0.9441 0.72937 0.0
H158 H 0.37363 0.01664 0.77811 0.0
H159 H 0.39074 0.02612 0.69559 0.0
La160 La 0.93332 0.40325 0.55481 0.0
La161 La 0.9799 0.40834 0.59649 0.0
C162 C 0.90551 0.40998 0.49275 0.0
C163 C 0.91146 0.42477 0.44458 0.0
C164 C 0.91276 0.41367 0.39965 0.0
C165 C 0.91818 0.42753 0.35504 0.0
C166 C 0.92235 0.453 0.35346 0.0
C167 C 0.92098 0.4641 0.39818 0.0
C168 C 0.91556 0.45025 0.44276 0.0
C169 C 0.92194 0.36331 0.61864 0.0
C170 C 0.97798 0.4067 0.48004 0.0
C171 C 0.01658 0.40546 0.63718 0.0
C172 C 0.02213 0.39447 0.68037 0.0
C173 C 0.03861 0.41119 0.71677 0.0
C174 C 0.0367 0.40198 0.76435 0.0
C175 C 0.01803 0.37624 0.77492 0.0
C176 C 0.00626 0.35856 0.73671 0.0
C177 C 0.00819 0.36774 0.68933 0.0
C178 C 0.98751 0.45326 0.56 0.0
C179 C 0.94248 0.42193 0.66443 0.0
O180 O 0.9076 0.38906 0.49447 0.0
O181 O 0.91448 0.42364 0.53295 0.0
O182 O 0.90673 0.37189 0.60469 0.0
O183 O 0.94166 0.37414 0.58896 0.0
O184 O 0.95729 0.40899 0.48745 0.0
O185 O 0.98849 0.40247 0.51908 0.0
O186 O 0.01107 0.42376 0.64578 0.0
O187 O 0.00109 0.38911 0.60426 0.0
O188 O 0.00318 0.44441 0.55614 0.0
O189 O 0.96792 0.43555 0.58082 0.0
O190 O 0.96148 0.41587 0.66296 0.0
O191 O 0.92953 0.42027 0.62364 0.0
H192 H 0.90941 0.39408 0.39881 0.0
H193 H 0.91895 0.41825 0.32149 0.0
H194 H 0.92395 0.48357 0.3986 0.0
H195 H 0.91445 0.45956 0.47599 0.0
H196 H 0.05036 0.4318 0.70999 0.0
H197 H 0.04642 0.41572 0.79369 0.0
H198 H 0.99251 0.33842 0.74432 0.0
H199 H 0.99577 0.35442 0.66163 0.0
La200 La 0.5823 0.524 0.55835 0.0
La201 La 0.5839 0.57025 0.59992 0.0
C202 C 0.5724 0.48762 0.49809 0.0
C203 C 0.55789 0.4788 0.44965 0.0
C204 C 0.57063 0.48828 0.40427 0.0
C205 C 0.55729 0.47942 0.35923 0.0
C206 C 0.53069 0.46073 0.35772 0.0
C207 C 0.51788 0.45128 0.40285 0.0
C208 C 0.53123 0.46003 0.44788 0.0
C209 C 0.62399 0.5516 0.62 0.0
C210 C 0.58086 0.56632 0.48343 0.0
C211 C 0.59521 0.61141 0.64504 0.0
C212 C 0.60837 0.62351 0.69096 0.0
C213 C 0.59362 0.62322 0.73137 0.0
C214 C 0.60434 0.62802 0.77809 0.0
C215 C 0.62988 0.63341 0.78425 0.0
C216 C 0.64541 0.63691 0.74361 0.0
C217 C 0.63485 0.63217 0.69694 0.0
C218 C 0.53608 0.53444 0.57279 0.0
C219 C 0.56608 0.51908 0.66891 0.0
O220 O 0.59438 0.50974 0.4989 0.0
O221 O 0.55888 0.48469 0.53799 0.0
O222 O 0.61371 0.52733 0.60746 0.0
O223 O 0.61381 0.56054 0.58932 0.0
O224 O 0.57634 0.54256 0.49196 0.0
O225 O 0.58782 0.58252 0.52122 0.0
O226 O 0.57319 0.58979 0.65002 0.0
O227 O 0.60955 0.60986 0.61021 0.0
O228 O 0.54587 0.55912 0.56789 0.0
O229 O 0.55436 0.53194 0.58836 0.0
O230 O 0.57807 0.54517 0.66674 0.0
O231 O 0.56159 0.50593 0.62707 0.0
H232 H 0.59109 0.50247 0.40345 0.0
H233 H 0.56784 0.48712 0.32535 0.0
H234 H 0.49748 0.43682 0.40326 0.0
H235 H 0.52063 0.45182 0.48147 0.0
H236 H 0.57327 0.61712 0.72736 0.0
H237 H 0.59211 0.62523 0.80956 0.0
H238 H 0.66502 0.64115 0.74879 0.0
H239 H 0.64691 0.63338 0.66627 0.0
La240 La 0.97407 0.56308 0.0965 0.0
La241 La 0.9288 0.51688 1.055 0.0
C242 C 0.0022 0.60365 0.14402 0.0
C243 C -0.00067 0.61035 0.19358 0.0
C244 C 0.97831 0.59201 0.22095 0.0
C245 C 0.97709 0.59546 0.27052 0.0
C246 C 0.99601 0.61819 0.29267 0.0
C247 C 0.01644 0.63743 0.2651 0.0
C248 C 0.01838 0.63325 0.21538 0.0
C249 C 0.98589 0.52742 0.0695 0.0
C250 C 0.94125 0.511 0.1651 0.0
C251 C 0.90202 0.48161 0.99327 0.0
C252 C 0.90825 0.47353 0.94482 0.0
C253 C 0.89004 0.4642 0.9064 0.0
C254 C 0.89556 0.4563 0.86122 0.0
C255 C 0.91947 0.45738 0.85299 0.0
C256 C 0.93776 0.4669 0.89116 0.0
C257 C 0.93228 0.47493 0.93611 0.0
C258 C 0.91542 0.5443 0.11834 0.0
C259 C 0.97403 0.55916 0.98113 0.0
O260 O 0.00614 0.58402 0.14163 0.0
O261 O 0.98423 0.60132 0.11354 0.0
O262 O 0.00082 0.55216 0.06322 0.0
O263 O 0.96478 0.52476 0.08407 0.0
O264 O 0.95672 0.53686 0.16257 0.0
O265 O 0.92978 0.49797 0.12409 0.0
O266 O 0.90303 0.50413 0.99473 0.0
O267 O 0.9121 0.47784 1.03296 0.0
O268 O 0.90088 0.5204 0.10422 0.0
O269 O 0.93441 0.55315 0.08722 0.0
O270 O 0.95424 0.53559 0.9894 0.0
O271 O 0.98325 0.57551 1.01858 0.0
H272 H 0.96311 0.5747 0.20432 0.0
H273 H 0.96107 0.58066 0.29154 0.0
H274 H 0.03107 0.65509 0.28232 0.0
H275 H 0.03471 0.64754 0.19432 0.0
H276 H 0.87139 0.4629 0.91137 0.0
H277 H 0.88101 0.44911 0.83271 0.0
H278 H 0.95636 0.4681 0.8862 0.0
H279 H 0.94697 0.4823 0.96405 0.0
La280 La 0.42597 0.40655 0.09692 0.0
La281 La 0.47076 0.40623 1.05675 0.0
C282 C 0.38653 0.39995 0.14328 0.0
C283 C 0.37805 0.38954 0.19184 0.0
C284 C 0.35925 0.39228 0.21785 0.0
C285 C 0.35478 0.38502 0.26726 0.0
C286 C 0.36851 0.37424 0.28934 0.0
C287 C 0.38692 0.37149 0.2623 0.0
C288 C 0.39194 0.37951 0.21464 0.0
C289 C 0.46266 0.45344 0.06602 0.0
C290 C 0.47544 0.42173 0.16785 0.0
C291 C 0.50653 0.41627 0.99523 0.0
C292 C 0.5146 0.43214 0.94831 0.0
C293 C 0.49959 0.42338 0.90512 0.0
C294 C 0.50752 0.43809 0.86144 0.0
C295 C 0.53074 0.46213 0.85916 0.0
C296 C 0.54559 0.47111 0.90232 0.0
C297 C 0.53768 0.45639 0.94604 0.0
C298 C 0.44332 0.36411 0.11666 0.0
C299 C 0.42842 0.40761 0.98189 0.0
O300 O 0.38621 0.38339 0.1114 0.0
O301 O 0.40867 0.42157 0.14318 0.0
O302 O 0.43797 0.44392 0.06127 0.0
O303 O 0.46485 0.4356 0.08502 0.0
O304 O 0.44978 0.41205 0.1645 0.0
O305 O 0.48916 0.42446 0.1273 0.0
O306 O 0.48423 0.39449 0.99566 0.0
O307 O 0.51025 0.42879 1.0366 0.0
O308 O 0.46768 0.37536 0.10468 0.0
O309 O 0.43375 0.37453 0.08748 0.0
O310 O 0.45201 0.41162 0.99019 0.0
O311 O 0.41245 0.40134 1.01965 0.0
H312 H 0.34903 0.40097 0.20079 0.0
H313 H 0.34144 0.38851 0.28841 0.0
H314 H 0.39893 0.36481 0.27932 0.0
H315 H 0.40759 0.3789 0.1961 0.0
H316 H 0.48167 0.40499 0.90482 0.0
H317 H 0.49558 0.43051 0.82906 0.0
H318 H 0.56359 0.48944 0.90203 0.0
H319 H 0.54982 0.46396 0.97818 0.0
La320 La 0.58319 0.0155 0.09822 0.0
La321 La 0.58732 0.06259 1.05815 0.0
C322 C 0.58256 0.97751 0.14066 0.0
C323 C 0.58798 0.9705 0.18877 0.0
C324 C 0.56958 0.96288 0.22676 0.0
C325 C 0.57737 0.96385 0.27507 0.0
C326 C 0.60365 0.97332 0.28499 0.0
C327 C 0.62028 0.97515 0.24691 0.0
C328 C 0.61241 0.97363 0.19862 0.0
C329 C 0.53839 0.00902 0.06444 0.0
C330 C 0.57158 0.0527 0.16989 0.0
C331 C 0.57495 0.08774 0.99819 0.0
C332 C 0.55889 0.08112 0.95105 0.0
C333 C 0.55263 0.09896 0.93015 0.0
C334 C 0.53727 0.09302 0.88711 0.0
C335 C 0.52737 0.0689 0.86292 0.0
C336 C 0.53346 0.05097 0.884 0.0
C337 C 0.54882 0.05697 0.927 0.0
C338 C 0.62855 0.07425 0.11912 0.0
C339 C 0.58713 0.01952 0.9825 0.0
O340 O 0.56326 0.98192 0.13955 0.0
O341 O 0.60229 0.99464 0.11484 0.0
O342 O 0.54695 0.99326 1.05746 0.0
O343 O 0.5563 0.02802 0.08578 0.0
O344 O 0.57786 0.03397 0.16648 0.0
O345 O 0.572 0.06576 0.12993 0.0
O346 O 0.5972 0.0881 0.9973 0.0
O347 O 0.5625 0.07703 1.03878 0.0
O348 O 0.61965 0.08944 0.10598 0.0
O349 O 0.61707 0.05434 0.08978 0.0
O350 O 0.58537 0.04043 0.9904 0.0
O351 O 0.58974 0.00755 1.021 0.0
H352 H 0.54995 0.95862 0.21974 0.0
H353 H 0.56391 0.96096 0.30439 0.0
H354 H 0.63995 0.98002 0.25449 0.0
H355 H 0.62622 0.97747 0.16946 0.0
H356 H 0.55965 0.1177 0.9472 0.0
H357 H 0.53322 0.10749 0.87244 0.0
H358 H 0.52644 0.03223 0.86695 0.0
H359 H 0.55253 0.04243 0.94156 0.0
La360 La 0.57436 0.98332 0.65554 0.0
La361 La 0.52644 0.94174 0.69344 0.0
C362 C 0.61987 0.01258 0.62422 0.0
C363 C 0.62791 0.01226 0.57385 0.0
C364 C 0.65105 0.03204 0.55355 0.0
C365 C 0.65538 0.03204 0.50293 0.0
C366 C 0.63675 0.01196 0.47363 0.0
C367 C 0.61408 0.99238 0.49449 0.0
C368 C 0.60962 0.9929 0.54362 0.0
C369 C 0.5402 -0.00192 0.6611 0.0
C370 C 0.52476 0.95446 0.58351 0.0
C371 C 0.48718 0.91619 0.74896 0.0
C372 C 0.47787 0.92004 0.79848 0.0
C373 C 0.45448 0.92053 0.80229 0.0
C374 C 0.44513 0.92369 0.84795 0.0
C375 C 0.45892 0.92674 0.89172 0.0
C376 C 0.48226 0.92614 0.88809 0.0
C377 C 0.49144 0.92261 0.84244 0.0
C378 C 0.55013 0.92344 0.62921 0.0
C379 C 0.56856 0.9788 0.77309 0.0
O380 O 0.60238 0.01944 0.62751 0.0
O381 O 0.61303 0.99153 0.64935 0.0
O382 O 0.55794 0.00499 0.62814 0.0
O383 O 0.54247 0.98324 0.6923 0.0
O384 O 0.55061 0.96581 0.5871 0.0
O385 O 0.51072 0.947 0.62426 0.0
O386 O 0.50729 0.91278 0.74739 0.0
O387 O 0.4879 0.93095 0.71279 0.0
O388 O 0.52571 0.91334 0.63968 0.0
O389 O 0.56103 0.94221 0.6606 0.0
O390 O 0.54859 0.95563 0.76328 0.0
O391 O 0.58168 0.99383 0.73547 0.0
H392 H 0.66504 0.04774 0.57615 0.0
H393 H 0.67249 0.0479 0.48653 0.0
H394 H 0.59927 0.97706 0.47224 0.0
H395 H 0.59153 0.97805 0.55795 0.0
H396 H 0.44328 0.91841 0.76968 0.0
H397 H 0.42713 0.92402 0.84904 0.0
H398 H 0.49347 0.92844 0.92077 0.0
H399 H 0.50943 0.92226 0.84162 0.0
La400 La 0.01786 0.58468 0.66213 0.0
La401 La 0.06451 0.58781 0.69641 0.0
C402 C 0.98027 0.5887 0.63077 0.0
C403 C 0.97246 0.59893 0.59026 0.0
C404 C 0.95331 0.58124 0.55848 0.0
C405 C 0.95334 0.58826 0.51012 0.0
C406 C 0.97241 0.61287 0.49477 0.0
C407 C 0.98741 0.63201 0.52869 0.0
C408 C 0.98751 0.62497 0.57691 0.0
C409 C 0.01035 0.53796 0.68622 0.0
C410 C 0.05249 0.5724 0.58526 0.0
C411 C 0.09338 0.58088 0.7555 0.0
C412 C 0.08757 0.56695 0.80431 0.0
C413 C 0.10722 0.57318 0.83926 0.0
C414 C 0.10175 0.56021 0.88493 0.0
C415 C 0.07638 0.54068 0.89736 0.0
C416 C 0.05671 0.53474 0.86269 0.0
C417 C 0.06226 0.54747 0.81698 0.0
C418 C 0.07553 0.6287 0.63602 0.0
C419 C 0.02138 0.58291 0.7766 0.0
O420 O 0.98484 0.57016 0.61876 0.0
O421 O -0.00209 0.60537 0.6606 0.0
O422 O 0.99529 0.54676 0.69805 0.0
O423 O 0.02983 0.55687 0.6683 0.0
O424 O 0.03512 0.58035 0.59113 0.0
O425 O 0.06478 0.57052 0.62467 0.0
O426 O 0.09199 0.60216 0.75391 0.0
O427 O 0.08277 0.56661 0.71645 0.0
O428 O 0.09065 0.61955 0.64703 0.0
O429 O 0.05657 0.61816 0.66753 0.0
O430 O 0.04092 0.57939 0.76537 0.0
O431 O 0.0112 0.58954 0.74067 0.0
H432 H 0.94094 0.56119 0.56905 0.0
H433 H 0.94114 0.57363 0.48376 0.0
H434 H 0.00156 0.65121 0.51652 0.0
H435 H 0.00201 0.63884 0.60138 0.0
H436 H 0.12693 0.58807 0.83118 0.0
H437 H 0.11741 0.5654 0.91061 0.0
H438 H 0.037 0.51988 0.87071 0.0
H439 H 0.0466 0.54196 0.79147 0.0
La440 La 0.40563 0.42843 0.66355 0.0
La441 La 0.40197 0.47126 0.69959 0.0
C442 C 0.40099 0.38802 0.62485 0.0
C443 C 0.39175 0.3764 0.57768 0.0
C444 C 0.38745 0.3516 0.56648 0.0
C445 C 0.38021 0.34208 0.51894 0.0
C446 C 0.37692 0.35735 0.48405 0.0
C447 C 0.38008 0.38149 0.49658 0.0
C448 C 0.38804 0.39115 0.54265 0.0
C449 C 0.45135 0.46669 0.69424 0.0
C450 C 0.4185 0.47632 0.58889 0.0
C451 C 0.41145 0.5079 0.75819 0.0
C452 C 0.42556 0.51573 0.80696 0.0
C453 C 0.4159 0.50008 0.84924 0.0
C454 C 0.42937 0.5077 0.89429 0.0
C455 C 0.45299 0.53122 0.89885 0.0
C456 C 0.4628 0.54677 0.85666 0.0
C457 C 0.44935 0.53914 0.81158 0.0
C458 C 0.36157 0.44281 0.63698 0.0
C459 C 0.40414 0.4309 0.77842 0.0
O460 O 0.42203 0.41063 0.62283 0.0
O461 O 0.38336 0.38832 0.65287 0.0
O462 O 0.44234 0.44244 0.70316 0.0
O463 O 0.43346 0.46795 0.67316 0.0
O464 O 0.41307 0.45169 0.59415 0.0
O465 O 0.4171 0.48912 0.62775 0.0
O466 O 0.38895 0.4863 0.7561 0.0
O467 O 0.42555 0.51056 0.71936 0.0
O468 O 0.37145 0.46704 0.64923 0.0
O469 O 0.3718 0.43367 0.66781 0.0
O470 O 0.40639 0.45366 0.769 0.0
O471 O 0.40003 0.41533 0.74104 0.0
H472 H 0.39045 0.34018 0.5937 0.0
H473 H 0.37808 0.32359 0.50886 0.0
H474 H 0.37782 0.39356 0.46963 0.0
H475 H 0.39131 0.41023 0.55087 0.0
H476 H 0.39782 0.48187 0.84769 0.0
H477 H 0.42118 0.49525 0.92591 0.0
H478 H 0.48083 0.56502 0.85871 0.0
H479 H 0.45759 0.55173 0.78016 0.0
La480 La 0.72911 0.80943 0.53558 0.0
La481 La 0.68519 0.76497 0.49001 0.0
C482 C 0.75691 0.84647 0.59467 0.0
C483 C 0.75356 0.85682 0.64328 0.0
C484 C 0.77524 0.87583 0.66908 0.0
C485 C 0.77242 0.8866 0.71337 0.0
C486 C 0.74778 0.87848 0.73419 0.0
C487 C 0.72609 0.85918 0.70848 0.0
C488 C 0.72896 0.84888 0.6636 0.0
C489 C 0.74442 0.78309 0.47288 0.0
C490 C 0.6838 0.76514 0.60741 0.0
C491 C 0.65454 0.7261 0.43982 0.0
C492 C 0.6558 0.71532 0.3927 0.0
C493 C 0.63906 0.689 0.38253 0.0
C494 C 0.63968 0.67899 0.33656 0.0
C495 C 0.6574 0.69526 0.30114 0.0
C496 C 0.6743 0.72145 0.31191 0.0
C497 C 0.67361 0.73139 0.3574 0.0
C498 C 0.67299 0.79975 0.52243 0.0
C499 C 0.72066 0.81649 0.42368 0.0
O500 O 0.75602 0.82401 0.59431 0.0
O501 O 0.7445 0.84846 0.55697 0.0
O502 O 0.75742 0.80714 0.48675 0.0
O503 O 0.72443 0.77329 0.50178 0.0
O504 O 0.70429 0.78866 0.60141 0.0
O505 O 0.67425 0.75061 0.56742 0.0
O506 O 0.65543 0.74844 0.43809 0.0
O507 O 0.66969 0.72562 0.47367 0.0
O508 O 0.65878 0.77494 0.52668 0.0
O509 O 0.69393 0.80327 0.50488 0.0
O510 O 0.70474 0.79072 0.4247 0.0
O511 O 0.73048 0.82912 0.46571 0.0
H512 H 0.79452 0.88274 0.65454 0.0
H513 H 0.78964 0.90153 0.73132 0.0
H514 H 0.70678 0.8525 0.72259 0.0
H515 H 0.71193 0.83499 0.6441 0.0
H516 H 0.62519 0.67643 0.40966 0.0
H517 H 0.62598 0.65893 0.32813 0.0
H518 H 0.68773 0.73436 0.28453 0.0
H519 H 0.68676 0.75168 0.36469 0.0
La520 La 0.19294 0.92394 0.53425 0.0
La521 La 0.23368 0.91778 0.49397 0.0
C522 C 0.15851 0.91766 0.59656 0.0
C523 C 0.14987 0.9034 0.64531 0.0
C524 C 0.16091 0.91582 0.6902 0.0
C525 C 0.15262 0.90252 0.73542 0.0
C526 C 0.13289 0.87629 0.73762 0.0
C527 C 0.12177 0.86386 0.69296 0.0
C528 C 0.12997 0.87719 0.64779 0.0
C529 C 0.22316 0.96448 0.47311 0.0
C530 C 0.2339 0.92058 0.60897 0.0
C531 C 0.27046 0.91599 0.45081 0.0
C532 C 0.28088 0.91907 0.40122 0.0
C533 C 0.26694 0.90067 0.36454 0.0
C534 C 0.27193 0.90783 0.31554 0.0
C535 C 0.28987 0.9336 0.30405 0.0
C536 C 0.30752 0.94952 0.33982 0.0
C537 C 0.30324 0.94207 0.38855 0.0
C538 C 0.19478 0.87328 0.52809 0.0
C539 C 0.18459 0.90717 0.42392 0.0
O540 O 0.18148 0.93861 0.59411 0.0
O541 O 0.15377 0.90359 0.55687 0.0
O542 O 0.19916 0.95609 0.48556 0.0
O543 O 0.23126 0.95289 0.50255 0.0
O544 O 0.21044 0.91691 0.60104 0.0
O545 O 0.24907 0.92575 0.57025 0.0
O546 O 0.24716 0.89668 0.45635 0.0
O547 O 0.27323 0.93671 0.473 0.0
O548 O 0.21896 0.88198 0.53674 0.0
O549 O 0.19388 0.89125 0.50643 0.0
O550 O 0.20936 0.91257 0.42636 0.0
O551 O 0.17262 0.90812 0.46447 0.0
H552 H 0.17586 0.93601 0.69051 0.0
H553 H 0.16149 0.91285 0.76894 0.0
H554 H 0.10637 0.84383 0.69305 0.0
H555 H 0.12044 0.86693 0.61465 0.0
H556 H 0.25055 0.88189 0.37343 0.0
H557 H 0.25913 0.89473 0.28772 0.0
H558 H 0.32313 0.96856 0.33074 0.0
H559 H 0.31565 0.95543 0.41639 0.0
La560 La 0.06985 0.25799 0.54127 0.0
La561 La 0.07602 0.30459 0.50007 0.0
C562 C 0.07612 0.22859 0.60089 0.0
C563 C 0.09067 0.23255 0.64853 0.0
C564 C 0.09042 0.21139 0.672 0.0
C565 C 0.10433 0.2146 0.71582 0.0
C566 C 0.11889 0.2391 0.73825 0.0
C567 C 0.11896 0.26028 0.71504 0.0
C568 C 0.10538 0.25713 0.67068 0.0
C569 C 0.0296 0.24694 0.4786 0.0
C570 C 0.07286 0.30324 0.6152 0.0
C571 C 0.07721 0.34298 0.45936 0.0
C572 C 0.069 0.3494 0.41447 0.0
C573 C 0.06345 0.33332 0.37385 0.0
C574 C 0.05609 0.33966 0.33059 0.0
C575 C 0.05538 0.36275 0.32676 0.0
C576 C 0.06104 0.379 0.36732 0.0
C577 C 0.06767 0.37218 0.41149 0.0
C578 C 0.12118 0.31001 0.53257 0.0
C579 C 0.08527 0.26677 0.42895 0.0
O580 O 0.05593 0.23188 0.60115 0.0
O581 O 0.09002 0.23866 0.56143 0.0
O582 O 0.038 0.23163 0.49269 0.0
O583 O 0.04109 0.26688 0.50763 0.0
O584 O 0.07535 0.28256 0.60844 0.0
O585 O 0.06865 0.31333 0.57574 0.0
O586 O 0.09523 0.33678 0.45446 0.0
O587 O 0.05863 0.32725 0.48863 0.0
O588 O 0.11264 0.3257 0.54029 0.0
O589 O 0.10247 0.29105 0.51266 0.0
O590 O 0.07814 0.28479 0.43169 0.0
O591 O 0.08649 0.2552 0.47 0.0
H592 H 0.07953 0.19222 0.65615 0.0
H593 H 0.10374 0.19781 0.73234 0.0
H594 H 0.12987 0.27944 0.73093 0.0
H595 H 0.1067 0.27406 0.65361 0.0
H596 H 0.06504 0.31602 0.37542 0.0
H597 H 0.05259 0.32738 0.29889 0.0
H598 H 0.06138 0.39722 0.36418 0.0
H599 H 0.07247 0.38495 0.44278 0.0
La600 La 0.13813 0.39643 0.89054 0.0
La601 La 0.09079 0.35737 0.93468 0.0
C602 C 0.17508 0.4189 0.82936 0.0
C603 C 0.18279 0.41205 0.78091 0.0
C604 C 0.17656 0.41907 0.7357 0.0
C605 C 0.18508 0.4141 0.69069 0.0
C606 C 0.20021 0.40197 0.68914 0.0
C607 C 0.2062 0.39464 0.73412 0.0
C608 C 0.19773 0.39964 0.77912 0.0
C609 C 0.11301 0.41724 0.94211 0.0
C610 C 0.0945 0.35228 0.81927 0.0
C611 C 0.04868 0.33285 0.98153 0.0
C612 C 0.04314 0.33776 1.03073 0.0
C613 C 0.02355 0.31869 0.05999 0.0
C614 C 0.02215 0.32398 0.10961 0.0
C615 C 0.03969 0.34859 0.12848 0.0
C616 C 0.05812 0.36754 0.09808 0.0
C617 C 0.06054 0.36167 1.05057 0.0
C618 C 0.12255 0.33904 0.91981 0.0
C619 C 0.14313 0.39354 1.00328 0.0
O620 O 0.15459 0.42176 0.83017 0.0
O621 O 0.17623 0.40705 0.86894 0.0
O622 O 0.13759 0.42782 0.93255 0.0
O623 O 0.10281 0.39659 0.91505 0.0
O624 O 0.11902 0.36966 0.8273 0.0
O625 O 0.07818 0.34649 0.85655 0.0
O626 O 0.06606 0.32587 0.97958 0.0
O627 O 0.05383 0.3514 0.95033 0.0
O628 O 0.09798 0.32663 0.91068 0.0
O629 O 0.12841 0.36178 0.93102 0.0
O630 O 0.11707 0.37821 1.0004 0.0
O631 O 0.15665 0.40219 0.96203 0.0
H632 H 0.16531 0.42877 0.73504 0.0
H633 H 0.18007 0.42002 0.65692 0.0
H634 H 0.21783 0.38533 0.73448 0.0
H635 H 0.20322 0.39404 0.8127 0.0
H636 H 0.01046 0.29964 1.04534 0.0
H637 H 0.00832 0.30888 0.13344 0.0
H638 H 0.07218 0.38627 0.11259 0.0
H639 H 0.07677 0.3755 1.0295 0.0
La640 La 0.59491 0.73719 0.89276 0.0
La641 La 0.63811 0.7344 0.93297 0.0
C642 C 0.56933 0.74855 0.83265 0.0
C643 C 0.57488 0.76239 0.78346 0.0
C644 C 0.55488 0.75564 0.74898 0.0
C645 C 0.55944 0.76886 0.70369 0.0
C646 C 0.5843 0.78927 0.69059 0.0
C647 C 0.60439 0.79589 0.72497 0.0
C648 C 0.59972 0.78288 0.77059 0.0
C649 C 0.5792 0.69324 0.949 0.0
C650 C 0.63807 0.74042 0.81575 0.0
C651 C 0.6704 0.72216 0.96672 0.0
C652 C 0.67597 0.70918 1.00658 0.0
C653 C 0.69781 0.72393 1.03611 0.0
C654 C 0.69904 0.71511 0.08277 0.0
C655 C 0.67816 0.69176 0.09963 0.0
C656 C 0.65962 0.67481 0.0663 0.0
C657 C 0.6584 0.68355 1.01968 0.0
C658 C 0.65223 0.78373 0.91612 0.0
C659 C 0.60051 0.74855 1.00378 0.0
O660 O 0.56803 0.72589 0.83411 0.0
O661 O 0.58155 0.76249 0.87114 0.0
O662 O 0.56587 0.7045 0.93847 0.0
O663 O 0.599 0.70415 0.91964 0.0
O664 O 0.61895 0.74474 0.82549 0.0
O665 O 0.64721 0.73301 0.85287 0.0
O666 O 0.66942 0.7427 0.97921 0.0
O667 O 0.65216 0.70807 0.93534 0.0
O668 O 0.66588 0.77304 0.90566 0.0
O669 O 0.63031 0.7655 0.92874 0.0
O670 O 0.61714 0.73917 1.00071 0.0
O671 O 0.59009 0.75137 0.96306 0.0
H672 H 0.53547 0.74017 0.7573 0.0
H673 H 0.54339 0.76311 0.67869 0.0
H674 H 0.62376 0.81144 0.71676 0.0
H675 H 0.61559 0.78904 0.79611 0.0
H676 H 0.71224 0.74343 1.02558 0.0
H677 H 0.71388 0.7282 0.10793 0.0
H678 H 0.64399 0.6564 0.07867 0.0
H679 H 0.64214 0.67141 0.99636 0.0
La680 La 0.25465 0.85438 0.8909 0.0
La681 La 0.25164 0.89783 0.93035 0.0
C682 C 0.24548 0.81838 0.82999 0.0
C683 C 0.22931 0.80914 0.78361 0.0
C684 C 0.233 0.79354 0.74938 0.0
C685 C 0.21787 0.78449 0.70626 0.0
C686 C 0.1983 0.79053 0.69581 0.0
C687 C 0.19461 0.80621 0.72993 0.0
C688 C 0.20987 0.81541 0.77295 0.0
C689 C 0.29545 0.88269 0.95327 0.0
C690 C 0.25455 0.89742 0.81587 0.0
C691 C 0.25335 0.93538 0.97609 0.0
C692 C 0.26146 0.94494 1.02558 0.0
C693 C 0.27212 0.9713 1.03698 0.0
C694 C 0.27978 0.97977 0.08508 0.0
C695 C 0.27722 0.96181 0.12088 0.0
C696 C 0.26704 0.93571 0.10879 0.0
C697 C 0.25889 0.92732 0.0619 0.0
C698 C 0.20582 0.85955 0.89747 0.0
C699 C 0.23877 0.84935 1.00177 0.0
O700 O 0.26653 0.84128 0.82912 0.0
O701 O 0.23303 0.81487 0.87137 0.0
O702 O 0.28601 0.85868 0.93971 0.0
O703 O 0.28475 0.89173 0.9236 0.0
O704 O 0.24972 0.87351 0.82402 0.0
O705 O 0.2604 0.91291 0.85419 0.0
O706 O 0.23286 0.91238 0.97356 0.0
O707 O 0.27167 0.93764 0.94677 0.0
O708 O 0.21509 0.88398 0.89028 0.0
O709 O 0.22393 0.85849 0.91801 0.0
O710 O 0.2478 0.87484 0.99807 0.0
O711 O 0.23648 0.8357 0.96138 0.0
H712 H 0.24773 0.78832 0.75596 0.0
H713 H 0.22153 0.77275 0.68079 0.0
H714 H 0.18004 0.81161 0.72303 0.0
H715 H 0.20647 0.82754 0.79782 0.0
H716 H 0.27421 0.9851 1.00905 0.0
H717 H 0.28727 -8e-05 0.09442 0.0
H718 H 0.26488 0.92162 0.13622 0.0
H719 H 0.25055 0.90697 1.05441 0.0
La720 La 0.64135 0.89529 0.42846 0.0
La721 La 0.59489 0.85481 0.38679 0.0
C722 C 0.67763 0.93182 0.47522 0.0
C723 C 0.68132 0.94136 0.52542 0.0
C724 C 0.68371 0.92705 0.56381 0.0
C725 C 0.68158 0.93324 0.61184 0.0
C726 C 0.6769 0.95357 0.62147 0.0
C727 C 0.67709 0.96945 0.58386 0.0
C728 C 0.6797 0.96354 0.53581 0.0
C729 C 0.64749 0.85702 0.39308 0.0
C730 C 0.60364 0.8462 0.4985 0.0
C731 C 0.56664 0.81938 0.32599 0.0
C732 C 0.57203 0.80991 0.2783 0.0
C733 C 0.55147 0.79159 0.24924 0.0
C734 C 0.55614 0.78177 0.20553 0.0
C735 C 0.58157 0.79001 0.1892 0.0
C736 C 0.60218 0.80847 0.21803 0.0
C737 C 0.5975 0.81814 0.26193 0.0
C738 C 0.58361 0.8841 0.44874 0.0
C739 C 0.64057 0.89725 0.31375 0.0
O740 O 0.6753 0.90907 0.46932 0.0
O741 O 0.66048 0.93427 0.44967 0.0
O742 O 0.66316 0.88138 0.38611 0.0
O743 O 0.62826 0.85577 0.41415 0.0
O744 O 0.62358 0.87053 0.49523 0.0
O745 O 0.59 0.83509 0.45807 0.0
O746 O 0.56899 0.8425 0.32657 0.0
O747 O 0.57658 0.81556 0.36561 0.0
O748 O 0.56865 0.86008 0.43598 0.0
O749 O 0.60357 0.89252 0.41967 0.0
O750 O 0.6199 0.87405 0.32038 0.0
O751 O 0.65055 0.91163 0.35323 0.0
H752 H 0.68559 0.91016 0.55689 0.0
H753 H 0.68161 0.92104 0.64119 0.0
H754 H 0.67375 0.9854 0.59145 0.0
H755 H 0.6786 0.97516 0.5067 0.0
H756 H 0.53164 0.78464 0.26056 0.0
H757 H 0.5398 0.76766 0.18436 0.0
H758 H 0.62199 0.8153 0.20673 0.0
H759 H 0.61392 0.83191 0.28327 0.0
La760 La 0.09196 0.73889 0.43126 0.0
La761 La 0.13853 0.74045 0.39162 0.0
C762 C 0.04797 0.72387 0.46757 0.0
C763 C 0.03523 0.70861 0.51024 0.0
C764 C 0.01445 0.70961 0.53196 0.0
C765 C 0.00814 0.7019 0.58061 0.0
C766 C 0.02251 0.69294 0.60619 0.0
C767 C 0.04076 0.68873 0.58194 0.0
C768 C 0.04765 0.69738 0.53463 0.0
C769 C 0.12841 0.78674 0.40801 0.0
C770 C 0.14071 0.75434 0.5056 0.0
C771 C 0.17726 0.75459 0.335 0.0
C772 C 0.18567 0.76874 0.28627 0.0
C773 C 0.21129 0.78927 0.27967 0.0
C774 C 0.21978 0.80247 0.23441 0.0
C775 C 0.20289 0.79579 0.19405 0.0
C776 C 0.17718 0.77548 0.20064 0.0
C777 C 0.16875 0.76209 0.24578 0.0
C778 C 0.1118 0.69869 0.45198 0.0
C779 C 0.09724 0.74353 0.31521 0.0
O780 O 0.05245 0.71132 0.43306 0.0
O781 O 0.0685 0.74609 0.47794 0.0
O782 O 0.10387 0.77731 0.40058 0.0
O783 O 0.13077 0.76826 0.42309 0.0
O784 O 0.1156 0.74766 0.50056 0.0
O785 O 0.15407 0.75423 0.46611 0.0
O786 O 0.15697 0.73107 0.33557 0.0
O787 O 0.17725 0.76799 0.37315 0.0
O788 O 0.13552 0.70814 0.43636 0.0
O789 O 0.10225 0.709 0.42252 0.0
O790 O 0.11936 0.74395 0.32342 0.0
O791 O 0.0817 0.73941 0.35293 0.0
H792 H 0.00506 0.71872 0.5133 0.0
H793 H 0.99434 0.70562 0.59956 0.0
H794 H 0.05232 0.68239 0.60186 0.0
H795 H 0.06465 0.6982 0.51897 0.0
H796 H 0.22495 0.79506 0.30965 0.0
H797 H 0.23967 0.81796 0.23088 0.0
H798 H 0.16359 0.76975 0.17055 0.0
H799 H 0.14893 0.74642 0.24874 0.0
La800 La 0.25396 0.35259 0.42454 0.0
La801 La 0.25348 0.39769 0.38722 0.0
C802 C 0.26405 0.32063 0.46429 0.0
C803 C 0.27607 0.3209 0.51028 0.0
C804 C 0.27991 0.30043 0.52414 0.0
C805 C 0.28761 0.29944 0.572 0.0
C806 C 0.29154 0.31908 0.60502 0.0
C807 C 0.28945 0.34029 0.58953 0.0
C808 C 0.28135 0.34095 0.54282 0.0
C809 C 0.20593 0.34141 0.39919 0.0
C810 C 0.23889 0.38579 0.49876 0.0
C811 C 0.24452 0.42583 0.32943 0.0
C812 C 0.22976 0.42102 0.28165 0.0
C813 C 0.23971 0.43937 0.24342 0.0
C814 C 0.226 0.43542 0.19897 0.0
C815 C 0.20176 0.41296 0.19112 0.0
C816 C 0.19183 0.39454 0.22918 0.0
C817 C 0.20558 0.39846 0.27351 0.0
C818 C 0.29554 0.41162 0.44759 0.0
C819 C 0.25059 0.35434 0.30918 0.0
O820 O 0.24198 0.32013 0.46912 0.0
O821 O 0.27935 0.33811 0.43275 0.0
O822 O 0.21584 0.32669 0.3924 0.0
O823 O 0.22426 0.362 0.41592 0.0
O824 O 0.24855 0.36982 0.49395 0.0
O825 O 0.23578 0.39703 0.45901 0.0
O826 O 0.26596 0.42468 0.32868 0.0
O827 O 0.23109 0.41495 0.36915 0.0
O828 O 0.28427 0.42481 0.43666 0.0
O829 O 0.28533 0.39237 0.41671 0.0
O830 O 0.24739 0.37431 0.31891 0.0
O831 O 0.25711 0.34433 0.34592 0.0
H832 H 0.27552 0.28466 0.49911 0.0
H833 H 0.28847 0.28263 0.58425 0.0
H834 H 0.29176 0.35522 0.61515 0.0
H835 H 0.27796 0.35653 0.53292 0.0
H836 H 0.25819 0.45695 0.24796 0.0
H837 H 0.23436 0.44999 0.17057 0.0
H838 H 0.17337 0.37694 0.2245 0.0
H839 H 0.1972 0.38367 0.30134 0.0
La840 La 0.22211 0.30203 0.99204 0.0
La841 La 0.18488 0.25351 1.03967 0.0
C842 C 0.25822 0.33814 0.94419 0.0
C843 C 0.26945 0.33744 0.89769 0.0
C844 C 0.29035 0.35934 0.87648 0.0
C845 C 0.29911 0.35722 0.83 0.0
C846 C 0.28729 0.33308 0.80634 0.0
C847 C 0.26722 0.31139 0.82896 0.0
C848 C 0.25811 0.31375 0.87365 0.0
C849 C 0.17919 0.30102 1.02407 0.0
C850 C 0.17673 0.25649 0.92492 0.0
C851 C 0.15003 0.22718 0.10306 0.0
C852 C 0.14145 0.23367 0.15132 0.0
C853 C 0.14159 0.2216 0.19573 0.0
C854 C 0.13252 0.22668 0.24021 0.0
C855 C 0.12284 0.24401 0.24221 0.0
C856 C 0.12289 0.25624 0.19794 0.0
C857 C 0.13191 0.25115 0.15352 0.0
C858 C 0.21719 0.246 0.97953 0.0
C859 C 0.22466 0.30306 0.10808 0.0
O860 O 0.23394 0.33221 0.94142 0.0
O861 O 0.26191 0.32519 0.97881 0.0
O862 O 0.20235 0.32083 1.02663 0.0
O863 O 0.18194 0.28344 1.00577 0.0
O864 O 0.19935 0.27887 0.92668 0.0
O865 O 0.16601 0.24401 0.96672 0.0
O866 O 0.17254 0.22808 0.10111 0.0
O867 O 0.146 0.23661 0.06288 0.0
O868 O 0.19449 0.22861 0.99614 0.0
O869 O 0.22317 0.26657 1.00572 0.0
O870 O 0.2053 0.27893 0.10414 0.0
O871 O 0.23607 0.31581 0.06759 0.0
H872 H 0.2991 0.37793 0.89482 0.0
H873 H 0.31398 0.37434 0.81173 0.0
H874 H 0.25729 0.29296 0.81014 0.0
H875 H 0.24198 0.29703 0.8897 0.0
H876 H 0.14857 0.20796 0.19605 0.0
H877 H 0.13298 0.21692 0.27326 0.0
H878 H 0.11579 0.26978 0.19765 0.0
H879 H 0.13132 0.261 0.12069 0.0
La880 La 0.69028 0.92209 0.99574 0.0
La881 La 0.7383 0.93175 1.03759 0.0
C882 C 0.65083 0.91899 0.9554 0.0
C883 C 0.64341 0.92677 0.9105 0.0
C884 C 0.6315 0.9084 0.87326 0.0
C885 C 0.63104 0.91659 0.82611 0.0
C886 C 0.6422 0.9431 0.81642 0.0
C887 C 0.64994 0.96094 0.85484 0.0
C888 C 0.65053 0.95271 0.90209 0.0
C889 C 0.69096 0.87912 1.02375 0.0
C890 C 0.73223 0.92086 0.92214 0.0
C891 C 0.76478 0.92348 0.10036 0.0
C892 C 0.75728 0.90778 0.1479 0.0
C893 C 0.76462 0.91994 0.19422 0.0
C894 C 0.7583 0.90537 0.2383 0.0
C895 C 0.74438 0.87799 0.23803 0.0
C896 C 0.73673 0.86583 0.19185 0.0
C897 C 0.74303 0.88035 0.14782 0.0
C898 C 0.74753 0.97212 0.97839 0.0
C899 C 0.69045 0.92332 0.11053 0.0
O900 O 0.65838 0.902 0.94986 0.0
O901 O 0.66564 0.93736 0.98598 0.0
O902 O 0.67208 0.8835 1.03097 0.0
O903 O 0.70805 0.89924 1.00449 0.0
O904 O 0.71108 0.92308 0.92715 0.0
O905 O 0.74496 0.92108 0.96279 0.0
O906 O 0.7635 0.94488 0.0991 0.0
O907 O 0.75646 0.91067 0.0591 0.0
O908 O 0.7641 0.96545 0.9937 0.0
O909 O 0.72681 0.95878 1.00549 0.0
O910 O 0.71266 0.92373 0.10388 0.0
O911 O 0.67936 0.92625 0.0714 0.0
H912 H 0.6249 0.8881 0.87955 0.0
H913 H 0.62468 0.90258 0.79657 0.0
H914 H 0.65866 0.98145 0.84751 0.0
H915 H 0.6589 0.967 0.93074 0.0
H916 H 0.7755 0.94087 0.19644 0.0
H917 H 0.76451 0.91558 0.27284 0.0
H918 H 0.72599 0.84489 0.18976 0.0
H919 H 0.73678 0.86993 0.1135 0.0
La920 La 0.07516 0.77008 0.9965 0.0
La921 La 0.07367 0.8139 1.03768 0.0
C922 C 0.06802 0.73032 0.95185 0.0
C923 C 0.05924 0.72038 0.90344 0.0
C924 C 0.06197 0.69985 0.88567 0.0
C925 C 0.05542 0.69186 0.83735 0.0
C926 C 0.04562 0.7041 0.80773 0.0
C927 C 0.04319 0.72479 0.82575 0.0
C928 C 0.04996 0.7329 0.87349 0.0
C929 C 0.12182 0.80638 1.02862 0.0
C930 C 0.09268 0.82092 0.92807 0.0
C931 C 0.08143 0.84888 0.09958 0.0
C932 C 0.09711 0.85743 0.14634 0.0
C933 C 0.09181 0.87087 0.18282 0.0
C934 C 0.1062 0.87878 0.22684 0.0
C935 C 0.12639 0.87349 0.23595 0.0
C936 C 0.13171 0.86 0.19953 0.0
C937 C 0.11729 0.85208 0.15554 0.0
C938 C 0.03354 0.78677 0.97234 0.0
C939 C 0.07569 0.77164 0.11214 0.0
O940 O 0.09007 0.75206 0.95238 0.0
O941 O 0.05057 0.73093 0.9802 0.0
O942 O 0.11209 0.78163 1.03303 0.0
O943 O 0.10393 0.80883 1.01049 0.0
O944 O 0.08208 0.79503 0.92951 0.0
O945 O 0.09495 0.83345 0.96999 0.0
O946 O 0.06071 0.82574 0.09949 0.0
O947 O 0.09428 0.85328 1.05838 0.0
O948 O 0.04277 0.81053 0.98731 0.0
O949 O 0.04339 0.77758 1.00341 0.0
O950 O 0.08016 0.79542 0.10409 0.0
O951 O 0.06903 0.75589 0.07393 0.0
H952 H 0.06971 0.69054 0.90866 0.0
H953 H 0.05847 0.67671 0.82274 0.0
H954 H 0.0363 0.73482 0.80253 0.0
H955 H 0.04817 0.74904 0.88692 0.0
H956 H 0.07644 0.87529 0.17732 0.0
H957 H 0.10152 0.88908 0.25397 0.0
H958 H 0.14701 0.8555 0.20521 0.0
H959 H 0.12193 0.84167 0.12873 0.0
La960 La 0.39647 0.14202 0.86443 0.0
La961 La 0.3513 0.09457 0.8257 0.0
C962 C 0.41754 0.18037 0.92335 0.0
C963 C 0.4089 0.18786 0.97066 0.0
C964 C 0.40509 0.17438 1.01534 0.0
C965 C 0.39809 0.18233 0.05917 0.0
C966 C 0.39445 0.20402 0.06036 0.0
C967 C 0.39788 0.21726 1.01568 0.0
C968 C 0.40504 0.20943 0.97198 0.0
C969 C 0.41221 0.11481 0.80668 0.0
C970 C 0.35496 0.09834 0.94188 0.0
C971 C 0.31664 0.05484 0.78238 0.0
C972 C 0.3121 0.04257 0.73451 0.0
C973 C 0.29021 0.01814 0.72707 0.0
C974 C 0.2837 0.00791 0.67984 0.0
C975 C 0.29938 0.02185 0.64018 0.0
C976 C 0.32121 0.04627 0.64789 0.0
C977 C 0.32729 0.05674 0.69456 0.0
C978 C 0.34113 0.13176 0.85285 0.0
C979 C 0.38532 0.14287 0.75132 0.0
O980 O 0.42193 0.16083 0.92402 0.0
O981 O 0.40599 0.18037 0.88255 0.0
O982 O 0.42576 0.13919 0.81946 0.0
O983 O 0.39186 0.10512 0.83525 0.0
O984 O 0.37504 0.12156 0.93269 0.0
O985 O 0.34381 0.08241 0.90433 0.0
O986 O 0.31877 0.07761 0.78133 0.0
O987 O 0.33403 0.05436 0.81084 0.0
O988 O 0.32628 0.1074 0.86141 0.0
O989 O 0.3608 0.13319 0.8342 0.0
O990 O 0.37003 0.11712 0.75672 0.0
O991 O 0.39603 0.1577 0.79092 0.0
H992 H 0.40774 0.15771 1.01671 0.0
H993 H 0.39578 0.1716 0.09253 0.0
H994 H 0.39552 0.23412 1.01474 0.0
H995 H 0.40792 0.22061 0.939 0.0
H996 H 0.27769 0.00745 0.75743 0.0
H997 H 0.26639 0.9895 0.67405 0.0
H998 H 0.33326 0.05751 0.61742 0.0
H999 H 0.34367 0.07605 0.69932 0.0
La1000 La 0.85604 0.25294 0.86568 0.0
La1001 La 0.90358 0.25473 0.82293 0.0
C1002 C 0.81849 0.24069 0.92491 0.0
C1003 C 0.80892 0.2244 0.97145 0.0
C1004 C 0.8134 0.23599 1.01818 0.0
C1005 C 0.80434 0.22085 0.06135 0.0
C1006 C 0.7914 0.19343 0.05989 0.0
C1007 C 0.78695 0.18195 1.01314 0.0
C1008 C 0.7945 0.19707 0.97009 0.0
C1009 C 0.8826 0.29372 0.80243 0.0
C1010 C 0.9 0.25346 0.93994 0.0
C1011 C 0.94482 0.26648 0.77764 0.0
C1012 C 0.95522 0.27964 0.73146 0.0
C1013 C 0.97618 0.27951 0.70829 0.0
C1014 C 0.98325 0.28954 0.66088 0.0
C1015 C 0.97013 0.30078 0.63802 0.0
C1016 C 0.95043 0.30229 0.66318 0.0
C1017 C 0.94224 0.29059 0.70828 0.0
C1018 C 0.86784 0.20731 0.85334 0.0
C1019 C 0.8524 0.23622 0.75447 0.0
O1020 O 0.84057 0.26267 0.92686 0.0
O1021 O 0.81643 0.22879 0.88334 0.0
O1022 O 0.85896 0.28452 0.81831 0.0
O1023 O 0.89206 0.28359 0.83218 0.0
O1024 O 0.8768 0.25081 0.93238 0.0
O1025 O 0.91554 0.25813 0.90158 0.0
O1026 O 0.92345 0.24415 0.77329 0.0
O1027 O 0.94305 0.28095 0.81197 0.0
O1028 O 0.89267 0.21654 0.85379 0.0
O1029 O 0.86556 0.2258 0.83794 0.0
O1030 O 0.87843 0.24799 0.75653 0.0
O1031 O 0.839 0.23234 0.796 0.0
H1032 H 0.82375 0.25688 1.02147 0.0
H1033 H 0.80794 0.23068 0.09625 0.0
H1034 H 0.77705 0.16106 1.0097 0.0
H1035 H 0.78855 0.18709 0.93571 0.0
H1036 H 0.98601 0.2705 0.72563 0.0
H1037 H -0.00194 0.2876 0.64144 0.0
H1038 H 0.93954 0.31005 0.64544 0.0
H1039 H 0.92481 0.28867 0.72414 0.0
La1040 La 0.74365 0.61447 0.85611 0.0
La1041 La 0.73897 0.65653 0.81786 0.0
C1042 C 0.75626 0.58789 0.91125 0.0
C1043 C 0.76991 0.59121 0.96007 0.0
C1044 C 0.77416 0.57143 0.97787 0.0
C1045 C 0.78738 0.5741 1.0225 0.0
C1046 C 0.79689 0.59668 1.05138 0.0
C1047 C 0.79261 0.61652 1.03374 0.0
C1048 C 0.77949 0.61389 0.98887 0.0
C1049 C 0.70146 0.59817 0.7929 0.0
C1050 C 0.74193 0.65349 0.93665 0.0
C1051 C 0.72601 0.68969 0.7962 0.0
C1052 C 0.72622 0.7013 0.74886 0.0
C1053 C 0.74881 0.71259 0.71985 0.0
C1054 C 0.74664 0.71149 0.66905 0.0
C1055 C 0.72193 0.69791 0.64807 0.0
C1056 C 0.70004 0.69157 0.67672 0.0
C1057 C 0.70242 0.69428 0.72712 0.0
C1058 C 0.78682 0.6698 0.82041 0.0
C1059 C 0.7596 0.62611 0.74495 0.0
O1060 O 0.73326 0.58589 0.91125 0.0
O1061 O 0.77031 0.60226 0.87458 0.0
O1062 O 0.71472 0.58675 0.80222 0.0
O1063 O 0.70974 0.61641 0.82538 0.0
O1064 O 0.7406 0.63104 0.92782 0.0
O1065 O 0.74087 0.66643 0.89807 0.0
O1066 O 0.74858 0.69541 0.8134 0.0
O1067 O 0.7095 0.66491 0.80005 0.0
O1068 O 0.77599 0.67569 0.78553 0.0
O1069 O 0.77026 0.65588 0.85342 0.0
O1070 O 0.74809 0.64079 0.74772 0.0
O1071 O 0.76251 0.61594 0.78599 0.0
H1072 H 0.76731 0.55375 0.95697 0.0
H1073 H 0.79019 0.55838 1.03456 0.0
H1074 H 0.79961 0.63422 1.05462 0.0
H1075 H 0.77704 0.62977 0.97667 0.0
H1076 H 0.76774 0.71924 0.73579 0.0
H1077 H 0.76382 0.7175 0.64688 0.0
H1078 H 0.68087 0.68178 0.66079 0.0
H1079 H 0.68515 0.68716 0.74899 0.0
La1080 La 0.808 0.74582 0.218 0.0
La1081 La 0.76683 0.69714 0.26077 0.0
C1082 C 0.84224 0.76881 0.1517 0.0
C1083 C 0.84984 0.75883 0.10602 0.0
C1084 C 0.84074 0.75977 1.05863 0.0
C1085 C 0.84862 0.75151 1.01625 0.0
C1086 C 0.86608 0.74193 1.01895 0.0
C1087 C 0.8749 0.74064 0.06633 0.0
C1088 C 0.86699 0.74885 0.10873 0.0
C1089 C 0.77699 0.75545 0.27708 0.0
C1090 C 0.76598 0.69825 0.14548 0.0
C1091 C 0.73037 0.66131 0.30864 0.0
C1092 C 0.72169 0.66027 0.35862 0.0
C1093 C 0.70144 0.63744 0.37876 0.0
C1094 C 0.69511 0.63691 0.4283 0.0
C1095 C 0.70929 0.65923 0.45683 0.0
C1096 C 0.72917 0.68183 0.43623 0.0
C1097 C 0.73513 0.68235 0.38756 0.0
C1098 C 0.80972 0.69698 0.23077 0.0
C1099 C 0.81278 0.73701 0.3331 0.0
O1100 O 0.81982 0.76813 0.15238 0.0
O1101 O 0.84706 0.76259 0.19476 0.0
O1102 O 0.80029 0.7721 0.26143 0.0
O1103 O 0.76977 0.73488 0.24988 0.0
O1104 O 0.78828 0.72003 0.15259 0.0
O1105 O 0.75174 0.68682 0.18466 0.0
O1106 O 0.75354 0.66426 0.30506 0.0
O1107 O 0.72758 0.67726 0.27997 0.0
O1108 O 0.78632 0.67765 0.22627 0.0
O1109 O 0.80702 0.7141 0.25029 0.0
O1110 O 0.78837 0.71779 0.32832 0.0
O1111 O 0.82561 0.75076 0.29314 0.0
H1112 H 0.82766 0.76727 1.05407 0.0
H1113 H 0.84134 0.75305 0.98087 0.0
H1114 H 0.8884 0.73363 0.07057 0.0
H1115 H 0.87468 0.74763 0.14387 0.0
H1116 H 0.69097 0.62017 0.35661 0.0
H1117 H 0.67975 0.6193 0.44443 0.0
H1118 H 0.74026 0.69914 0.45811 0.0
H1119 H 0.75031 0.70015 0.37285 0.0
La1120 La 0.27727 0.08199 0.23322 0.0
La1121 La 0.31757 0.07297 0.27149 0.0
C1122 C 0.25199 0.09627 0.17864 0.0
C1123 C 0.25533 0.10866 0.12857 0.0
C1124 C 0.24597 0.09366 0.08552 0.0
C1125 C 0.24834 0.10535 1.03928 0.0
C1126 C 0.26079 0.13256 1.03398 0.0
C1127 C 0.26992 0.14746 0.07706 0.0
C1128 C 0.26671 0.13573 0.12333 0.0
C1129 C 0.25818 0.04017 0.29767 0.0
C1130 C 0.31449 0.07702 0.15312 0.0
C1131 C 0.34195 0.0515 0.30175 0.0
C1132 C 0.34164 0.04185 0.35142 0.0
C1133 C 0.35279 0.05914 0.39091 0.0
C1134 C 0.34489 0.05056 0.43866 0.0
C1135 C 0.32584 0.02473 0.44713 0.0
C1136 C 0.3173 0.00705 0.40859 0.0
C1137 C 0.3253 0.01552 0.36103 0.0
C1138 C 0.33467 0.12215 0.26819 0.0
C1139 C 0.2903 0.09575 0.34313 0.0
O1140 O 0.24777 0.07247 0.18067 0.0
O1141 O 0.26757 0.11044 0.21392 0.0
O1142 O 0.24797 0.05427 0.28638 0.0
O1143 O 0.27652 0.04769 0.26559 0.0
O1144 O 0.29162 0.07469 0.16276 0.0
O1145 O 0.32864 0.07714 0.1911 0.0
O1146 O 0.35228 0.07651 0.29761 0.0
O1147 O 0.31998 0.0392 0.278 0.0
O1148 O 0.34127 0.11056 0.30021 0.0
O1149 O 0.31921 0.10563 0.23641 0.0
O1150 O 0.30058 0.08014 0.34012 0.0
O1151 O 0.28441 0.10342 0.302 0.0
H1152 H 0.2365 0.07276 0.08752 0.0
H1153 H 0.24055 0.09304 1.00739 0.0
H1154 H 0.27916 0.16835 0.07504 0.0
H1155 H 0.27289 0.14801 0.15515 0.0
H1156 H 0.36575 0.07963 0.38485 0.0
H1157 H 0.35183 0.06447 0.46836 0.0
H1158 H 0.30317 0.9871 0.41531 0.0
H1159 H 0.31692 0.00204 0.33114 0.0
La1160 La 0.92121 0.1928 0.22762 0.0
La1161 La 0.93049 0.24184 0.26588 0.0
C1162 C 0.90539 0.15342 0.17198 0.0
C1163 C 0.89179 0.14515 0.12271 0.0
C1164 C 0.90411 0.15748 0.07845 0.0
C1165 C 0.89129 0.14917 1.03282 0.0
C1166 C 0.86573 0.12814 1.0296 0.0
C1167 C 0.85343 0.11575 0.07364 0.0
C1168 C 0.86622 0.12407 0.11925 0.0
C1169 C 0.96405 0.21512 0.28899 0.0
C1170 C 0.92489 0.23448 0.14821 0.0
C1171 C 0.95111 0.28882 0.29021 0.0
C1172 C 0.96088 0.30014 0.33803 0.0
C1173 C 0.96306 0.32379 0.35209 0.0
C1174 C 0.96894 0.33211 0.4007 0.0
C1175 C 0.97194 0.31635 0.43499 0.0
C1176 C 0.96992 0.29294 0.42047 0.0
C1177 C 0.96415 0.2848 0.37259 0.0
C1178 C 0.8813 0.2086 0.26693 0.0
C1179 C 0.91016 0.19334 0.33997 0.0
O1180 O 0.9294 0.17271 0.17303 0.0
O1181 O 0.89213 0.15467 0.20921 0.0
O1182 O 0.94897 0.19084 0.27871 0.0
O1183 O 0.95643 0.22654 0.25835 0.0
O1184 O 0.92808 0.21443 0.15718 0.0
O1185 O 0.92437 0.24801 0.18653 0.0
O1186 O 0.92622 0.27291 0.28978 0.0
O1187 O 0.96368 0.27879 0.26867 0.0
O1188 O 0.89348 0.22688 0.29859 0.0
O1189 O 0.8972 0.21027 0.23319 0.0
O1190 O 0.92493 0.21925 0.33564 0.0
O1191 O 0.90258 0.17882 0.2996 0.0
H1192 H 0.92374 0.1737 0.07894 0.0
H1193 H 0.90142 0.15919 0.99983 0.0
H1194 H 0.83384 0.09946 0.07272 0.0
H1195 H 0.85608 0.11379 0.15202 0.0
H1196 H 0.95883 0.33497 0.32642 0.0
H1197 H 0.96953 0.34974 0.41224 0.0
H1198 H 0.97116 0.28013 0.44708 0.0
H1199 H 0.96072 0.26574 0.3632 0.0
La1200 La 0.31392 0.2357 0.77101 0.0
La1201 La 0.26858 0.19146 0.7291 0.0
C1202 C 0.34847 0.27277 0.81988 0.0
C1203 C 0.35203 0.27797 0.87245 0.0
C1204 C 0.35463 0.26075 0.90398 0.0
C1205 C 0.35185 0.26218 0.95413 0.0
C1206 C 0.34659 0.28086 0.97299 0.0
C1207 C 0.34662 0.29968 0.94229 0.0
C1208 C 0.34949 0.29832 0.89203 0.0
C1209 C 0.3231 0.19921 0.7365 0.0
C1210 C 0.27793 0.18572 0.84098 0.0
C1211 C 0.24446 0.15454 0.66866 0.0
C1212 C 0.25234 0.14635 0.62181 0.0
C1213 C 0.26027 0.1619 0.57927 0.0
C1214 C 0.26745 0.15391 0.53602 0.0
C1215 C 0.26697 0.13002 0.53347 0.0
C1216 C 0.25914 0.11448 0.57592 0.0
C1217 C 0.25192 0.12247 0.61915 0.0
C1218 C 0.25413 0.21877 0.78937 0.0
C1219 C 0.31104 0.2365 0.65612 0.0
O1220 O 0.35006 0.25289 0.80508 0.0
O1221 O 0.32877 0.27318 0.80007 0.0
O1222 O 0.33804 0.22375 0.7302 0.0
O1223 O 0.30353 0.19684 0.7579 0.0
O1224 O 0.29615 0.21089 0.83809 0.0
O1225 O 0.26547 0.17298 0.80064 0.0
O1226 O 0.24323 0.17596 0.66845 0.0
O1227 O 0.25466 0.15237 0.70955 0.0
O1228 O 0.24034 0.19464 0.7759 0.0
O1229 O 0.27444 0.22835 0.76097 0.0
O1230 O 0.29218 0.21235 0.66296 0.0
O1231 O 0.32042 0.25157 0.69522 0.0
H1232 H 0.35694 0.24502 0.88997 0.0
H1233 H 0.3517 0.2475 0.9777 0.0
H1234 H 0.34235 0.31406 0.95683 0.0
H1235 H 0.34773 0.31189 0.86826 0.0
H1236 H 0.26073 0.18024 0.57916 0.0
H1237 H 0.27314 0.16634 0.50412 0.0
H1238 H 0.25827 0.0959 0.57543 0.0
H1239 H 0.24581 0.10977 0.65068 0.0
La1240 La 0.76421 0.07917 0.76715 0.0
La1241 La 0.80902 0.07767 0.72471 0.0
C1242 C 0.72738 0.0748 0.81951 0.0
C1243 C 0.71996 0.06548 0.86942 0.0
C1244 C 0.6997 0.06659 0.89327 0.0
C1245 C 0.69383 0.05833 0.94189 0.0
C1246 C 0.7076 0.04809 0.96557 0.0
C1247 C 0.7279 0.04732 0.94169 0.0
C1248 C 0.73441 0.05659 0.89451 0.0
C1249 C 0.80129 0.12481 0.73206 0.0
C1250 C 0.81439 0.0937 0.83536 0.0
C1251 C 0.84568 0.08866 0.66386 0.0
C1252 C 0.85513 0.10509 0.61773 0.0
C1253 C 0.87852 0.11019 0.59521 0.0
C1254 C 0.88772 0.12543 0.55224 0.0
C1255 C 0.87378 0.13604 0.52972 0.0
C1256 C 0.85049 0.13117 0.55251 0.0
C1257 C 0.84148 0.11618 0.5958 0.0
C1258 C 0.7811 0.03663 0.78723 0.0
C1259 C 0.76469 0.07694 0.65145 0.0
O1260 O 0.74981 0.09595 0.81612 0.0
O1261 O 0.725 0.0574 0.78747 0.0
O1262 O 0.77662 0.11632 0.73032 0.0
O1263 O 0.80305 0.10701 0.75207 0.0
O1264 O 0.78878 0.08382 0.83261 0.0
O1265 O 0.82792 0.09672 0.79444 0.0
O1266 O 0.82309 0.06725 0.66242 0.0
O1267 O 0.84853 0.10078 0.70536 0.0
O1268 O 0.80515 0.04647 0.77329 0.0
O1269 O 0.77208 0.04743 0.75791 0.0
O1270 O 0.78817 0.0804 0.65872 0.0
O1271 O 0.74948 0.07258 0.69013 0.0
H1272 H 0.68884 0.07415 0.87471 0.0
H1273 H 0.67875 0.05991 0.96101 0.0
H1274 H 0.73923 0.04026 0.96023 0.0
H1275 H 0.75066 0.05654 0.87758 0.0
H1276 H 0.88979 0.1023 0.61087 0.0
H1277 H 0.90573 0.12869 0.5361 0.0
H1278 H 0.83913 0.13892 0.53667 0.0
H1279 H 0.82385 0.11354 0.61207 0.0
La1280 La 0.92701 0.68712 0.76168 0.0
La1281 La 0.91992 0.72887 0.72317 0.0
C1282 C 0.94752 0.66039 0.78538 0.0
C1283 C 0.9593 0.6572 0.83009 0.0
C1284 C 0.94592 0.63439 0.85767 0.0
C1285 C 0.95287 0.63405 0.90626 0.0
C1286 C 0.97321 0.65657 0.92728 0.0
C1287 C 0.98868 0.67788 0.89765 0.0
C1288 C 0.98188 0.67811 0.84919 0.0
C1289 C 0.87844 0.67159 0.75738 0.0
C1290 C 0.90364 0.71591 0.83271 0.0
C1291 C 0.90733 0.75489 0.66611 0.0
C1292 C 0.89303 0.75122 0.61734 0.0
C1293 C 0.90382 0.75047 0.5715 0.0
C1294 C 0.89088 0.7486 0.52659 0.0
C1295 C 0.86664 0.74759 0.52532 0.0
C1296 C 0.85579 0.74817 0.57101 0.0
C1297 C 0.8687 0.75001 0.61586 0.0
C1298 C 0.96144 0.74553 0.7895 0.0
C1299 C 0.92225 0.68919 0.64248 0.0
O1300 O 0.92285 0.65242 0.78887 0.0
O1301 O 0.95994 0.68275 0.76295 0.0
O1302 O 0.8892 0.66342 0.78817 0.0
O1303 O 0.89543 0.68714 0.72636 0.0
O1304 O 0.91719 0.70331 0.83003 0.0
O1305 O 0.89819 0.72394 0.79137 0.0
O1306 O 0.93016 0.75647 0.66607 0.0
O1307 O 0.89378 0.74191 0.70448 0.0
O1308 O 0.94883 0.7573 0.77756 0.0
O1309 O 0.95355 0.72769 0.75653 0.0
O1310 O 0.92292 0.71143 0.65168 0.0
O1311 O 0.92349 0.67616 0.68118 0.0
H1312 H 0.92877 0.61773 0.84317 0.0
H1313 H 0.94089 0.61725 0.92871 0.0
H1314 H 0.00428 0.69532 0.91346 0.0
H1315 H 0.99254 0.69573 0.82838 0.0
H1316 H 0.92246 0.75149 0.57015 0.0
H1317 H 0.89991 0.74798 0.49256 0.0
H1318 H 0.83717 0.74723 0.57209 0.0
H1319 H 0.8596 0.75073 0.64972 0.0
La1320 La 0.90531 0.64787 0.31048 0.0
La1321 La 0.85842 0.60489 0.35346 0.0
C1322 C 0.94815 0.68032 0.27014 0.0
C1323 C 0.96384 0.68382 0.22616 0.0
C1324 C 0.96439 0.70045 0.18931 0.0
C1325 C 0.97296 0.69918 0.14259 0.0
C1326 C 0.98037 0.68074 0.13221 0.0
C1327 C 0.9837 0.66713 0.17059 0.0
C1328 C 0.97608 0.66923 0.2179 0.0
C1329 C 0.87003 0.66125 0.32892 0.0
C1330 C 0.85371 0.60969 0.24041 0.0
C1331 C 0.82015 0.58449 0.41288 0.0
C1332 C 0.81293 0.59221 0.4615 0.0
C1333 C 0.80785 0.5769 0.50398 0.0
C1334 C 0.79944 0.58284 0.54837 0.0
C1335 C 0.79554 0.6043 0.55237 0.0
C1336 C 0.80098 0.6199 0.5102 0.0
C1337 C 0.80943 0.61398 0.46577 0.0
C1338 C 0.88586 0.5878 0.29845 0.0
C1339 C 0.90114 0.64773 0.42927 0.0
O1340 O 0.92598 0.67877 0.26217 0.0
O1341 O 0.94593 0.66356 0.30307 0.0
O1342 O 0.89437 0.67527 0.33869 0.0
O1343 O 0.86659 0.63967 0.31579 0.0
O1344 O 0.87964 0.62649 0.24348 0.0
O1345 O 0.84038 0.59916 0.28128 0.0
O1346 O 0.83883 0.57877 0.41221 0.0
O1347 O 0.82115 0.59762 0.37364 0.0
O1348 O 0.86136 0.57454 0.31081 0.0
O1349 O 0.89509 0.60833 0.32601 0.0
O1350 O 0.87823 0.62709 0.42145 0.0
O1351 O 0.91629 0.65826 0.39022 0.0
H1352 H 0.95621 0.71286 0.19551 0.0
H1353 H 0.97093 0.71032 0.1134 0.0
H1354 H 0.99 0.65331 0.16321 0.0
H1355 H 0.97769 0.65774 0.24655 0.0
H1356 H 0.81009 0.55997 0.50278 0.0
H1357 H 0.79574 0.5704 0.57978 0.0
H1358 H 0.79849 0.63667 0.51152 0.0
H1359 H 0.81298 0.62646 0.43449 0.0
La1360 La 0.34613 0.26041 0.33008 0.0
La1361 La 0.38768 0.25231 0.36469 0.0
C1362 C 0.31246 0.27317 0.31104 0.0
C1363 C 0.3011 0.27319 0.26357 0.0
C1364 C 0.28737 0.24976 0.23758 0.0
C1365 C 0.28892 0.24996 0.18689 0.0
C1366 C 0.30359 0.27355 0.1627 0.0
C1367 C 0.31265 0.29694 0.18766 0.0
C1368 C 0.31106 0.29672 0.23828 0.0
C1369 C 0.33132 0.21147 0.33344 0.0
C1370 C 0.37356 0.23994 0.25288 0.0
C1371 C 0.41307 0.23786 0.41833 0.0
C1372 C 0.4086 0.22406 0.46746 0.0
C1373 C 0.4059 0.23478 0.51183 0.0
C1374 C 0.40243 0.22194 0.55728 0.0
C1375 C 0.40147 0.19783 0.56024 0.0
C1376 C 0.40412 0.18709 0.51605 0.0
C1377 C 0.40779 0.20003 0.47072 0.0
C1378 C 0.40627 0.2949 0.30253 0.0
C1379 C 0.35208 0.25842 0.44746 0.0
O1380 O 0.30701 0.25057 0.32769 0.0
O1381 O 0.33711 0.28951 0.31504 0.0
O1382 O 0.32466 0.22252 0.30047 0.0
O1383 O 0.34626 0.22846 0.36451 0.0
O1384 O 0.36164 0.25407 0.25834 0.0
O1385 O 0.38142 0.23287 0.29277 0.0
O1386 O 0.41668 0.26149 0.41805 0.0
O1387 O 0.39871 0.22441 0.38109 0.0
O1388 O 0.41632 0.28054 0.31246 0.0
O1389 O 0.3876 0.28724 0.33451 0.0
O1390 O 0.37234 0.25582 0.4372 0.0
O1391 O 0.33992 0.26207 0.41054 0.0
H1392 H 0.2787 0.23122 0.2561 0.0
H1393 H 0.28147 0.23179 0.16732 0.0
H1394 H 0.32385 0.31525 0.16878 0.0
H1395 H 0.32168 0.31495 0.25714 0.0
H1396 H 0.40664 0.25327 0.5116 0.0
H1397 H 0.40043 0.23088 0.59029 0.0
H1398 H 0.40352 0.16864 0.51662 0.0
H1399 H 0.41023 0.19122 0.438 0.0
La1400 La 0.73746 0.08602 0.32436 0.0
La1401 La 0.74547 0.13475 0.36157 0.0
C1402 C 0.71619 0.03803 0.3068 0.0
C1403 C 0.70556 0.02254 0.26222 0.0
C1404 C 0.71991 0.01334 0.23682 0.0
C1405 C 0.71611 0.00857 0.18659 0.0
C1406 C 0.69803 0.01316 0.1625 0.0
C1407 C 0.68074 0.01761 0.18939 0.0
C1408 C 0.68444 0.02212 0.23918 0.0
C1409 C 0.78637 0.1188 0.3265 0.0
C1410 C 0.75786 0.13367 0.24847 0.0
C1411 C 0.7626 0.17495 0.41551 0.0
C1412 C 0.77555 0.18356 0.46538 0.0
C1413 C 0.76201 0.17316 0.50969 0.0
C1414 C 0.77451 0.18139 0.55565 0.0
C1415 C 0.80101 0.20036 0.55925 0.0
C1416 C 0.81438 0.21115 0.51511 0.0
C1417 C 0.80185 0.20301 0.46922 0.0
C1418 C 0.70438 0.11264 0.29636 0.0
C1419 C 0.74055 0.09343 0.44187 0.0
O1420 O 0.74112 0.05394 0.3055 0.0
O1421 O 0.70389 0.04934 0.32444 0.0
O1422 O 0.77482 0.10103 0.29343 0.0
O1423 O 0.77005 0.11749 0.35906 0.0
O1424 O 0.74524 0.10772 0.25324 0.0
O1425 O 0.76239 0.14829 0.2883 0.0
O1426 O 0.73814 0.1566 0.41374 0.0
O1427 O 0.77597 0.17216 0.38014 0.0
O1428 O 0.71765 0.13677 0.30978 0.0
O1429 O 0.71149 0.1013 0.32821 0.0
O1430 O 0.73576 0.11235 0.43163 0.0
O1431 O 0.74362 0.08112 0.40417 0.0
H1432 H 0.73602 0.01293 0.25425 0.0
H1433 H 0.72948 0.00494 0.16587 0.0
H1434 H 0.66652 0.02082 0.17098 0.0
H1435 H 0.67221 0.02755 0.25855 0.0
H1436 H 0.74173 0.1584 0.50899 0.0
H1437 H 0.76343 0.17275 0.58865 0.0
H1438 H 0.83461 0.22608 0.51613 0.0
H1439 H 0.8128 0.21219 0.43651 0.0
C1440 C 0.07508 0.4146 0.99937 0.0
C1441 C 0.10202 0.42573 0.98765 0.0
C1442 C 0.11076 0.44829 0.06973 0.0
C1443 C 0.08393 0.4371 0.08244 0.0
N1444 N 0.04109 0.40427 0.06021 0.0
N1445 N 0.14325 0.46393 1.00582 0.0
C1446 C 0.06634 0.41882 1.04717 0.0
C1447 C 0.11914 0.4456 1.02119 0.0
N1448 N 0.05752 0.40105 0.96365 0.0
N1449 N 0.12894 0.46019 0.10549 0.0
H1450 H 0.14899 0.46623 0.96935 0.0
H1451 H 0.15571 0.4798 1.02724 0.0
H1452 H 0.12406 0.46027 0.14213 0.0
H1453 H 0.14849 0.46627 0.10021 0.0
H1454 H 0.03775 0.39393 0.96723 0.0
H1455 H 0.06312 0.3992 0.92839 0.0
H1456 H 0.02762 0.3881 1.04074 0.0
H1457 H 0.03491 0.40643 0.09436 0.0
C1458 C 0.54444 0.65318 0.99857 0.0
C1459 C 0.57102 0.67228 0.99212 0.0
C1460 C 0.57809 0.65781 0.07604 0.0
C1461 C 0.55098 0.64075 0.08482 0.0
N1462 N 0.50805 0.62544 1.05035 0.0
N1463 N 0.61292 0.69196 1.02821 0.0
C1464 C 0.53427 0.63943 1.04483 0.0
C1465 C 0.58769 0.67357 1.03138 0.0
N1466 N 0.52859 0.64673 0.95866 0.0
N1467 N 0.59517 0.6598 0.11129 0.0
H1468 H 0.62067 0.70118 0.99548 0.0
H1469 H 0.62524 0.69917 1.05801 0.0
H1470 H 0.58959 0.65162 0.14588 0.0
H1471 H 0.61504 0.66915 0.10616 0.0
H1472 H 0.50993 0.63077 0.95751 0.0
H1473 H 0.53522 0.65541 0.92453 0.0
H1474 H 0.49521 0.62759 1.02768 0.0
H1475 H 0.49876 0.61251 0.07838 0.0
C1476 C 0.33084 0.92062 0.07809 0.0
C1477 C 0.34502 0.90813 0.09315 0.0
C1478 C 0.3295 0.88273 1.01414 0.0
C1479 C 0.31477 0.89449 0.99897 0.0
N1480 N 0.30873 0.93063 1.01336 0.0
N1481 N 0.34429 0.86745 0.08167 0.0
C1482 C 0.31722 0.91488 1.0307 0.0
C1483 C 0.34057 0.88652 0.06277 0.0
N1484 N 0.3292 0.93721 0.11023 0.0
N1485 N 0.33472 0.86887 0.98078 0.0
H1486 H 0.34722 0.86599 0.11876 0.0
H1487 H 0.33961 0.85052 0.06255 0.0
H1488 H 0.32973 0.86772 0.94394 0.0
H1489 H 0.34739 0.862 0.98804 0.0
H1490 H 0.31827 0.94611 0.10433 0.0
H1491 H 0.33697 0.94011 0.14523 0.0
H1492 H 0.31179 0.94747 1.03066 0.0
H1493 H 0.30283 0.92905 0.97728 0.0
C1494 C 0.41103 0.07881 0.68125 0.0
C1495 C 0.4377 0.09003 0.66745 0.0
C1496 C 0.44744 0.11513 0.74733 0.0
C1497 C 0.42073 0.10341 0.76163 0.0
N1498 N 0.37933 0.06645 0.74712 0.0
N1499 N 0.47937 0.1282 0.68226 0.0
C1500 C 0.40319 0.08323 0.72958 0.0
C1501 C 0.45535 0.11063 0.69939 0.0
N1502 N 0.39274 0.06576 0.6465 0.0
N1503 N 0.46598 0.12933 0.78129 0.0
H1504 H 0.4849 0.12885 0.64594 0.0
H1505 H 0.4922 0.14484 0.70143 0.0
H1506 H 0.4615 0.13126 0.81739 0.0
H1507 H 0.48561 0.13589 0.77588 0.0
H1508 H 0.37305 0.05839 0.65244 0.0
H1509 H 0.39775 0.06544 0.61005 0.0
H1510 H 0.36582 0.05024 0.72796 0.0
H1511 H 0.37539 0.06661 0.78406 0.0
C1512 C 0.93029 0.34394 0.70123 0.0
C1513 C 0.9139 0.34232 0.66126 0.0
C1514 C 0.87713 0.30801 0.71197 0.0
C1515 C 0.89362 0.30996 0.75279 0.0
N1516 N 0.93758 0.33138 0.78146 0.0
N1517 N 0.87233 0.31513 0.62531 0.0
C1518 C 0.92051 0.32827 0.74549 0.0
C1519 C 0.88753 0.32223 0.66622 0.0
N1520 N 0.95579 0.36167 0.69972 0.0
N1521 N 0.85091 0.29295 0.71619 0.0
H1522 H 0.87933 0.32379 0.5913 0.0
H1523 H 0.85407 0.29862 0.62332 0.0
H1524 H 0.84168 0.28002 0.7443 0.0
H1525 H 0.83795 0.29431 0.69253 0.0
H1526 H 0.96445 0.37402 0.67014 0.0
H1527 H 0.96445 0.37402 0.67014 0.0
H1528 H 0.95742 0.34233 0.77599 0.0
H1529 H 0.93211 0.32263 0.81568 0.0
C1530 C 0.66235 0.59123 0.66783 0.0
C1531 C 0.64241 0.56459 0.66665 0.0
C1532 C 0.65946 0.56108 0.7506 0.0
C1533 C 0.67869 0.58795 0.75279 0.0
N1534 N 0.69546 0.62879 0.71174 0.0
N1535 N 0.62076 0.52538 0.71516 0.0
C1536 C 0.6787 0.60295 0.71119 0.0
C1537 C 0.64088 0.55004 0.71031 0.0
N1538 N 0.6673 0.60527 0.62572 0.0
N1539 N 0.65897 0.54539 0.78751 0.0
H1540 H 0.60789 0.51549 0.68739 0.0
H1541 H 0.61553 0.51525 0.74809 0.0
H1542 H 0.66919 0.55256 0.8201 0.0
H1543 H 0.64938 0.52528 0.78511 0.0
H1544 H 0.68312 0.62367 0.62079 0.0
H1545 H 0.65683 0.59775 0.59358 0.0
H1546 H 0.69491 0.64177 0.68713 0.0
H1547 H 0.70806 0.6374 0.7404 0.0
C1548 C 0.89066 0.55164 0.25218 0.0
C1549 C 0.89847 0.57844 0.25672 0.0
C1550 C 0.91983 0.58371 0.17273 0.0
C1551 C 0.91058 0.55651 0.16699 0.0
N1552 N 0.88787 0.51516 0.21103 0.0
N1553 N 0.92211 0.61987 0.21906 0.0
C1554 C 0.89629 0.54093 0.20903 0.0
C1555 C 0.91422 0.59434 0.21683 0.0
N1556 N 0.87804 0.5356 0.29073 0.0
N1557 N 0.93394 0.59981 0.13538 0.0
H1558 H 0.92077 0.62811 0.2513 0.0
H1559 H 0.92798 0.63212 0.18908 0.0
H1560 H 0.93564 0.59315 0.10115 0.0
H1561 H 0.94449 0.61982 0.13808 0.0
H1562 H 0.87118 0.51571 0.29003 0.0
H1563 H 0.87559 0.54238 0.32438 0.0
H1564 H 0.89109 0.50462 0.18444 0.0
H1565 H 0.89109 0.50462 0.18444 0.0
C1566 C 0.39929 0.32091 0.22915 0.0
C1567 C 0.41569 0.31442 0.25661 0.0
C1568 C 0.4478 0.33614 0.18723 0.0
C1569 C 0.4317 0.34384 0.161 0.0
N1570 N 0.38727 0.33426 0.15511 0.0
N1571 N 0.46021 0.32345 0.26085 0.0
C1572 C 0.40618 0.33338 0.1812 0.0
C1573 C 0.44098 0.32413 0.23529 0.0
N1574 N 0.37735 0.31709 0.25079 0.0
N1575 N 0.46964 0.33878 0.16546 0.0
H1576 H 0.45875 0.31792 0.29737 0.0
H1577 H 0.45875 0.31792 0.29737 0.0
H1578 H 0.47305 0.34167 0.12803 0.0
H1579 H 0.4824 0.33433 0.18333 0.0
H1580 H 0.36366 0.32 0.23265 0.0
H1581 H 0.37699 0.31713 0.28877 0.0
H1582 H 0.38977 0.3411 0.11935 0.0
H1583 H 0.38977 0.3411 0.11935 0.0
C1584 C 0.67023 0.10912 0.16618 0.0
C1585 C 0.6506 0.0825 0.16031 0.0
C1586 C 0.66585 0.07564 0.24351 0.0
C1587 C 0.68596 0.10212 0.24886 0.0
N1588 N 0.70615 0.14406 0.20645 0.0
N1589 N 0.63344 0.03992 0.19347 0.0
C1590 C 0.68754 0.11861 0.20829 0.0
C1591 C 0.65018 0.06569 0.19857 0.0
N1592 N 0.6737 0.12612 0.12945 0.0
N1593 N 0.6597 0.06015 0.28366 0.0
H1594 H 0.62103 0.03268 0.16385 0.0
H1595 H 0.633 0.02584 0.21634 0.0
H1596 H 0.66818 0.0667 0.3178 0.0
H1597 H 0.64474 0.04121 0.28445 0.0
H1598 H 0.68677 0.14596 0.13174 0.0
H1599 H 0.66475 0.12023 0.09543 0.0
H1600 H 0.72111 0.15365 0.23141 0.0
H1601 H 0.72111 0.15365 0.23141 0.0
C1602 C 0.5934 0.92063 0.517 0.0
C1603 C 0.5759 0.89717 0.49186 0.0
C1604 C 0.54378 0.89015 0.5591 0.0
C1605 C 0.56074 0.91386 0.58429 0.0
N1606 N 0.605 0.94712 0.59123 0.0
N1607 N 0.5301 0.86759 0.48154 0.0
C1608 C 0.58643 0.92787 0.56382 0.0
C1609 C 0.54996 0.88427 0.51103 0.0
N1610 N 0.6161 0.93716 0.49432 0.0
N1611 N 0.52226 0.87153 0.58259 0.0
H1612 H 0.53263 0.86538 0.44445 0.0
H1613 H 0.51068 0.85944 0.49156 0.0
H1614 H 0.51865 0.87265 0.61954 0.0
H1615 H 0.51045 0.85314 0.5679 0.0
H1616 H 0.62952 0.9553 0.5077 0.0
H1617 H 0.61965 0.93411 0.45835 0.0
H1618 H 0.62443 0.95787 0.58145 0.0
H1619 H 0.6013 0.9496 0.62731 0.0
C1620 C 0.1084 0.67047 0.58801 0.0
C1621 C 0.08258 0.64928 0.59303 0.0
C1622 C 0.07492 0.66115 0.50768 0.0
C1623 C 0.10119 0.68188 0.5013 0.0
N1624 N 0.14412 0.70189 0.53864 0.0
N1625 N 0.04047 0.62805 0.55711 0.0
C1626 C 0.11809 0.68513 0.5424 0.0
C1627 C 0.06589 0.64589 0.55269 0.0
N1628 N 0.12365 0.67816 0.62888 0.0
N1629 N 0.05748 0.65483 0.47079 0.0
H1630 H 0.03246 0.61928 0.59043 0.0
H1631 H 0.02755 0.62386 0.52857 0.0
H1632 H 0.06181 0.66409 0.43687 0.0
H1633 H 0.06181 0.66409 0.43687 0.0
H1634 H 0.14125 0.69543 0.63124 0.0
H1635 H 0.11722 0.66889 0.66259 0.0
H1636 H 0.15761 0.70141 0.56213 0.0
H1637 H 0.15292 0.71559 0.51141 0.0
C1638 C 0.3366 0.40837 0.56341 0.0
C1639 C 0.34197 0.43096 0.5915 0.0
C1640 C 0.32101 0.44168 0.5222 0.0
C1641 C 0.31407 0.41856 0.49461 0.0
N1642 N 0.32385 0.38449 0.48503 0.0
N1643 N 0.32655 0.46112 0.60229 0.0
C1644 C 0.3242 0.40308 0.51451 0.0
C1645 C 0.33044 0.44514 0.57202 0.0
N1646 N 0.34201 0.39108 0.58478 0.0
N1647 N 0.3212 0.46218 0.49961 0.0
H1648 H 0.32975 0.46191 0.63992 0.0
H1649 H 0.31626 0.47018 0.59144 0.0
H1650 H 0.31936 0.46307 0.46189 0.0
H1651 H 0.32782 0.48002 0.51683 0.0
H1652 H 0.33834 0.37375 0.56886 0.0
H1653 H 0.34781 0.39311 0.62115 0.0
H1654 H 0.33091 0.37237 0.49493 0.0
H1655 H 0.31806 0.38256 0.4486 0.0
C1656 C 0.77895 0.78611 0.34784 0.0
C1657 C 0.76522 0.76109 0.32523 0.0
C1658 C 0.73608 0.7483 0.40078 0.0
C1659 C 0.75169 0.77304 0.42424 0.0
N1660 N 0.79559 0.80929 0.42355 0.0
N1661 N 0.72544 0.72073 0.32712 0.0
C1662 C 0.77522 0.79003 0.39866 0.0
C1663 C 0.74229 0.74277 0.35124 0.0
N1664 N 0.79448 0.80732 0.32003 0.0
N1665 N 0.71631 0.72941 0.42724 0.0
H1666 H 0.72765 0.71846 0.28995 0.0
H1667 H 0.70842 0.70588 0.34195 0.0
H1668 H 0.71399 0.73195 0.46422 0.0
H1669 H 0.70392 0.71075 0.41474 0.0
H1670 H 0.80341 0.82609 0.33413 0.0
H1671 H 0.79473 0.80671 0.28194 0.0
H1672 H 0.8136 0.82101 0.4072 0.0
H1673 H 0.79607 0.81062 0.46159 0.0
C1674 C 0.25085 0.98421 0.39099 0.0
C1675 C 0.23739 0.98649 0.43274 0.0
C1676 C 0.23771 0.02358 0.38771 0.0
C1677 C 0.25097 0.02148 0.34466 0.0
N1678 N 0.26788 0.99666 0.30724 0.0
N1679 N 0.22262 0.01282 0.47167 0.0
C1680 C 0.25724 0.00113 0.34764 0.0
C1681 C 0.2324 0.00747 0.43079 0.0
N1682 N 0.2562 0.96458 0.39162 0.0
N1683 N 0.22897 0.04066 0.3901 0.0
H1684 H 0.22054 0.00349 0.50504 0.0
H1685 H 0.21833 0.02777 0.47332 0.0
H1686 H 0.22994 0.05282 0.36216 0.0
H1687 H 0.22994 0.05282 0.36216 0.0
H1688 H 0.26644 0.96111 0.36497 0.0
H1689 H 0.25158 0.95241 0.42149 0.0
H1690 H 0.27561 0.98456 0.30641 0.0
H1691 H 0.26869 0.00485 0.27324 0.0
C1692 C 0.98462 0.20676 0.36797 0.0
C1693 C 0.9824 0.22487 0.33634 0.0
C1694 C 0.00962 0.25857 0.40046 0.0
C1695 C 0.01078 0.24011 0.43245 0.0
N1696 N 0.98883 0.19451 0.4507 0.0
N1697 N 0.0025 0.27006 0.318 0.0
C1698 C 0.99527 0.2137 0.41706 0.0
C1699 C -0.00249 0.25136 0.35173 0.0
N1700 N 0.97918 0.18322 0.34986 0.0
N1701 N 0.01844 0.28286 0.41792 0.0
H1702 H 0.9971 0.26557 0.2815 0.0
H1703 H 0.01432 0.28971 0.32465 0.0
H1704 H 0.02464 0.28761 0.45386 0.0
H1705 H 0.01608 0.2968 0.39963 0.0
H1706 H 0.98246 0.17019 0.36961 0.0
H1707 H 0.97603 0.17854 0.31289 0.0
H1708 H 0.97547 0.17514 0.44353 0.0
H1709 H 0.99361 0.19829 0.48764 0.0
C1710 C 0.26192 0.25328 0.86126 0.0
C1711 C 0.24562 0.22987 0.83453 0.0
C1712 C 0.21511 0.21687 0.90572 0.0
C1713 C 0.22949 0.24097 0.93152 0.0
N1714 N 0.27031 0.28069 0.93455 0.0
N1715 N 0.20062 0.19694 0.82652 0.0
C1716 C 0.254 0.25886 0.90911 0.0
C1717 C 0.22047 0.21415 0.85535 0.0
N1718 N 0.28424 0.27104 0.83915 0.0
N1719 N 0.1976 0.1951 0.93006 0.0
H1720 H 0.20229 0.19653 0.78858 0.0
H1721 H 0.18162 0.18628 0.83942 0.0
H1722 H 0.1967 0.19389 0.96807 0.0
H1723 H 0.18778 0.17702 0.91307 0.0
H1724 H 0.29822 0.28825 0.85491 0.0
H1725 H 0.28706 0.26957 0.80192 0.0
H1726 H 0.28882 0.29445 0.92328 0.0
H1727 H 0.26567 0.28442 0.96917 0.0
C1728 C 0.74441 0.00903 0.85576 0.0
C1729 C 0.76984 0.01873 0.83497 0.0
C1730 C 0.78033 0.00375 0.91338 0.0
C1731 C 0.7543 0.99079 0.9319 0.0
N1732 N 0.7122 0.98644 0.91855 0.0
N1733 N 0.80688 0.01232 0.84154 0.0
C1734 C 0.73662 0.99481 0.90236 0.0
C1735 C 0.78621 0.0123 0.86312 0.0
N1736 N 0.7268 0.01257 0.83058 0.0
N1737 N 0.80044 0.00983 0.94454 0.0
H1738 H 0.80965 0.01336 0.80383 0.0
H1739 H 0.8184 0.00651 0.86013 0.0
H1740 H 0.79803 0.00786 0.98239 0.0
H1741 H 0.81976 0.0208 0.9335 0.0
H1742 H 0.70845 0.00716 0.8445 0.0
H1743 H 0.73027 0.01966 0.79501 0.0
H1744 H 0.70561 0.97791 0.95269 0.0
H1745 H 0.70561 0.97791 0.95269 0.0
C1746 C 0.01841 0.79083 0.88159 0.0
C1747 C 0.01622 0.77487 0.92361 0.0
C1748 C 0.97992 0.7382 0.87499 0.0
C1749 C 0.98227 0.75419 0.83338 0.0
N1750 N 0.00921 0.79525 0.79574 0.0
N1751 N 0.99274 0.73209 0.9575 0.0
C1752 C 0.00294 0.78034 0.83699 0.0
C1753 C 0.99633 0.74819 0.91905 0.0
N1754 N 0.03511 0.81682 0.88381 0.0
N1755 N 0.96174 0.71283 0.87219 0.0
H1756 H 0.00311 0.73844 0.99001 0.0
H1757 H 0.97953 0.71238 0.9582 0.0
H1758 H 0.95547 0.70423 0.83822 0.0
H1759 H 0.95408 0.70029 0.90173 0.0
H1760 H 0.03429 0.83014 0.86033 0.0
H1761 H 0.0492 0.82549 0.91024 0.0
H1762 H 0.02603 0.81315 0.792 0.0
H1763 H -0.00093 0.78848 0.76294 0.0
C1764 C 0.99616 0.35163 0.90416 0.0
C1765 C 0.98242 0.36477 0.9149 0.0
C1766 C 0.9882 0.38121 0.832 0.0
C1767 C 0.00437 0.37042 0.82224 0.0
N1768 N 0.02096 0.34242 0.84455 0.0
N1769 N 0.95666 0.38254 0.8862 0.0
C1770 C 0.00683 0.35399 0.85654 0.0
C1771 C 0.97553 0.37636 0.87753 0.0
N1772 N -0.00057 0.33752 0.93971 0.0
N1773 N 0.98503 0.39619 0.79791 0.0
H1774 H 0.94655 0.37822 0.91932 0.0
H1775 H 0.94941 0.3897 0.85974 0.0
H1776 H 0.99111 0.39784 0.76172 0.0
H1777 H 0.97708 0.40785 0.80589 0.0
H1778 H 0.00437 0.32343 0.93252 0.0
H1779 H 0.99584 0.33893 0.97653 0.0
H1780 H 0.0246 0.33097 0.86818 0.0
H1781 H 0.02944 0.3444 0.81021 0.0
C1782 C 0.63052 0.59805 0.89686 0.0
C1783 C 0.64513 0.61927 0.92831 0.0
C1784 C 0.65486 0.6499 0.86241 0.0
C1785 C 0.63811 0.62892 0.83195 0.0
N1786 N 0.61751 0.5831 0.81382 0.0
N1787 N 0.67976 0.66287 0.93776 0.0
C1788 C 0.62861 0.60292 0.84697 0.0
C1789 C 0.66049 0.64442 0.90962 0.0
N1790 N 0.61692 0.57361 0.91576 0.0
N1791 N 0.66394 0.6748 0.84754 0.0
H1792 H 0.6839 0.65849 0.97242 0.0
H1793 H 0.69294 0.68133 0.92506 0.0
H1794 H 0.65903 0.67924 0.8139 0.0
H1795 H 0.67479 0.69085 0.86976 0.0
H1796 H 0.60304 0.55771 0.89623 0.0
H1797 H 0.61903 0.56955 0.95207 0.0
H1798 H 0.61227 0.56404 0.82207 0.0
H1799 H 0.61557 0.58598 0.77678 0.0
C1800 C 0.33101 0.98467 0.89223 0.0
C1801 C 0.35327 0.98349 0.90698 0.0
C1802 C 0.35427 0.96495 0.82837 0.0
C1803 C 0.33631 0.97172 0.81037 0.0
N1804 N 0.30603 0.98643 0.82356 0.0
N1805 N 0.38923 0.97719 0.8853 0.0
C1806 C 0.32385 0.98075 0.84211 0.0
C1807 C 0.36564 0.97457 0.87425 0.0
N1808 N 0.31676 0.98922 0.9259 0.0
N1809 N 0.3617 0.95094 0.79995 0.0
H1810 H 0.39944 0.98618 0.91711 0.0
H1811 H 0.4 0.97312 0.86042 0.0
H1812 H 0.35366 0.94399 0.7655 0.0
H1813 H 0.37359 0.94403 0.8127 0.0
H1814 H 0.29958 0.98892 0.91755 0.0
H1815 H 0.32089 0.99108 0.96324 0.0
H1816 H 0.2983 0.99598 0.84319 0.0
H1817 H 0.29968 0.98208 0.78736 0.0
C1818 C 0.00696 0.614 0.37827 0.0
C1819 C 0.99358 0.62125 0.34505 0.0
C1820 C 0.97095 0.62814 0.41214 0.0
C1821 C 0.98073 0.61677 0.44398 0.0
N1822 N 0.00405 0.59352 0.45589 0.0
N1823 N 0.9562 0.62591 0.33062 0.0
C1824 C -0.00216 0.6083 0.42696 0.0
C1825 C 0.974 0.62615 0.36182 0.0
N1826 N 0.0275 0.61157 0.3631 0.0
N1827 N 0.95806 0.64007 0.42936 0.0
H1828 H 0.95643 0.62342 0.29302 0.0
H1829 H 0.93945 0.62495 0.34409 0.0
H1830 H 0.95444 0.64106 0.46647 0.0
H1831 H 0.9534 0.65109 0.40647 0.0
H1832 H 0.0393 0.60865 0.38729 0.0
H1833 H 0.03404 0.61466 0.32698 0.0
H1834 H 0.01443 0.58488 0.44323 0.0
H1835 H 0.99688 0.58787 0.49127 0.0
C1836 C 0.39241 0.38192 0.3656 0.0
C1837 C 0.36799 0.36942 0.34218 0.0
C1838 C 0.34962 0.33985 0.41158 0.0
C1839 C 0.37467 0.35162 0.43201 0.0
N1840 N 0.42075 0.37674 0.42147 0.0
N1841 N 0.32296 0.33589 0.34178 0.0
C1842 C 0.39643 0.36964 0.40534 0.0
C1843 C 0.34636 0.34801 0.3647 0.0
N1844 N 0.41149 0.40562 0.34984 0.0
N1845 N 0.32915 0.32188 0.43837 0.0
H1846 H 0.31969 0.34289 0.3095 0.0
H1847 H 0.30707 0.31874 0.35388 0.0
H1848 H 0.33181 0.31521 0.47197 0.0
H1849 H 0.30988 0.31392 0.428 0.0
H1850 H 0.42913 0.41631 0.36801 0.0
H1851 H 0.40848 0.41559 0.32158 0.0
H1852 H 0.43745 0.38917 0.40194 0.0
H1853 H 0.42364 0.36804 0.45215 0.0
C1854 C 0.63078 0.97893 0.35861 0.0
C1855 C 0.61495 0.98613 0.33215 0.0
C1856 C 0.62215 0.01878 0.39422 0.0
C1857 C 0.63794 0.01141 0.42006 0.0
N1858 N 0.6635 0.99074 0.42093 0.0
N1859 N 0.60013 0.01701 0.31904 0.0
C1860 C 0.6446 0.99381 0.39961 0.0
C1861 C 0.61186 0.00724 0.34828 0.0
N1862 N 0.6311 0.9568 0.34685 0.0
N1863 N 0.61607 0.03592 0.41519 0.0
H1864 H 0.59496 0.01145 0.28281 0.0
H1865 H 0.59847 0.03305 0.32811 0.0
H1866 H 0.62494 0.04596 0.44727 0.0
H1867 H 0.60162 0.03936 0.40241 0.0
H1868 H 0.64034 0.94939 0.36815 0.0
H1869 H 0.61994 0.94439 0.31874 0.0
H1870 H 0.67118 0.98009 0.40525 0.0
H1871 H 0.67312 0.00123 0.45192 0.0
C1872 C 0.66805 0.67278 0.2346 0.0
C1873 C 0.65613 0.68706 0.24986 0.0
C1874 C 0.65724 0.70251 0.16744 0.0
C1875 C 0.67052 0.68949 0.15162 0.0
N1876 N 0.68732 0.66096 0.16758 0.0
N1877 N 0.63015 0.70605 0.22928 0.0
C1878 C 0.6751 0.67372 0.18432 0.0
C1879 C 0.6476 0.69869 0.21551 0.0
N1880 N 0.6721 0.65821 0.2681 0.0
N1881 N 0.65495 0.71966 0.13758 0.0
H1882 H 0.62264 0.70322 0.26474 0.0
H1883 H 0.62099 0.71207 0.2045 0.0
H1884 H 0.66158 0.72349 0.10169 0.0
H1885 H 0.64825 0.73185 0.14967 0.0
H1886 H 0.6785 0.64537 0.25937 0.0
H1887 H 0.66756 0.65787 0.30507 0.0
H1888 H 0.69266 0.65016 0.18947 0.0
H1889 H 0.69273 0.66162 0.13102 0.0
C1890 C 0.26116 0.95593 0.20403 0.0
C1891 C 0.28278 0.96828 0.17276 0.0
C1892 C 0.30927 0.96001 0.22866 0.0
C1893 C 0.2872 0.94547 0.25864 0.0
N1894 N 0.24334 0.93503 0.28117 0.0
N1895 N 0.32873 0.99168 0.16395 0.0
C1896 C 0.26341 0.94499 0.24835 0.0
C1897 C 0.30739 0.97394 0.18873 0.0
N1898 N 0.23795 0.95265 0.18835 0.0
N1899 N 0.33127 0.9587 0.23565 0.0
H1900 H 0.32717 0.00035 0.13206 0.0
H1901 H 0.34731 -0.00032 0.17848 0.0
H1902 H 0.33267 0.94667 0.26166 0.0
H1903 H 0.34742 0.9679 0.21295 0.0
H1904 H 0.2202 0.93998 0.20437 0.0
H1905 H 0.23664 0.96191 0.15693 0.0
H1906 H 0.22692 0.93675 0.27729 0.0
H1907 H 0.24366 0.92709 0.31477 0.0
C1908 C 0.02935 0.36459 0.25815 0.0
C1909 C 0.05385 0.37116 0.27732 0.0
C1910 C 0.06761 0.36174 0.20125 0.0
C1911 C 0.04291 0.35428 0.18101 0.0
N1912 N 0.00135 0.35195 0.18646 0.0
N1913 N 0.09899 0.38717 0.26315 0.0
C1914 C 0.02405 0.35699 0.20818 0.0
C1915 C 0.07408 0.37432 0.24656 0.0
N1916 N 0.01159 0.36563 0.28814 0.0
N1917 N 0.08418 0.35542 0.17848 0.0
H1918 H 0.10356 0.39588 0.29768 0.0
H1919 H 0.11487 0.39119 0.24112 0.0
H1920 H 0.07928 0.34427 0.14665 0.0
H1921 H 0.10161 0.35887 0.19393 0.0
H1922 H 0.99329 0.36156 0.27701 0.0
H1923 H 0.01591 0.37173 0.32447 0.0
H1924 H 0.98682 0.3538 0.20381 0.0
H1925 H 0.99721 0.34649 0.14986 0.0
C1926 C 0.6866 0.96807 0.70711 0.0
C1927 C 0.66812 0.95557 0.67013 0.0
C1928 C 0.63313 0.94306 0.72866 0.0
C1929 C 0.65146 0.95181 0.76668 0.0
N1930 N 0.69519 0.96395 0.79092 0.0
N1931 N 0.62423 0.92357 0.64908 0.0
C1932 C 0.67825 0.96246 0.75596 0.0
C1933 C 0.64138 0.9411 0.68147 0.0
N1934 N 0.71216 0.98381 0.69582 0.0
N1935 N 0.60779 0.93539 0.73808 0.0
H1936 H 0.62942 0.92182 0.61343 0.0
H1937 H 0.60518 0.91009 0.6586 0.0
H1938 H 0.60136 0.93683 0.77292 0.0
H1939 H 0.59396 0.92987 0.7105 0.0
H1940 H 0.72609 0.99452 0.72221 0.0
H1941 H 0.71893 0.98764 0.65982 0.0
H1942 H 0.71391 0.96794 0.78242 0.0
H1943 H 0.69007 0.95903 0.82738 0.0
C1944 C 0.04935 0.71806 0.6754 0.0
C1945 C 0.02589 0.69651 0.65897 0.0
C1946 C 0.01746 0.67673 0.73956 0.0
C1947 C 0.04096 0.69829 0.75563 0.0
N1948 N 0.08258 0.73534 0.73754 0.0
N1949 N 0.98524 0.65805 0.67508 0.0
C1950 C 0.05795 0.71773 0.723 0.0
C1951 C 0.00925 0.67643 0.69087 0.0
N1952 N 0.06291 0.73911 0.64564 0.0
N1953 N 0.00365 0.65635 0.77034 0.0
H1954 H 0.97853 0.65846 0.64004 0.0
H1955 H 0.97121 0.64381 0.69741 0.0
H1956 H 0.00911 0.65637 0.80648 0.0
H1957 H 0.98783 0.63883 0.75955 0.0
H1958 H 0.07885 0.75637 0.65718 0.0
H1959 H 0.05681 0.74033 0.6105 0.0
H1960 H 0.09682 0.7485 0.71397 0.0
H1961 H 0.0896 0.73504 0.77236 0.0
C1962 C 0.26887 0.32378 0.72427 0.0
C1963 C 0.29068 0.33044 0.75413 0.0
C1964 C 0.31272 0.32334 0.68574 0.0
C1965 C 0.28996 0.31496 0.65781 0.0
N1966 N 0.24391 0.2985 0.65534 0.0
N1967 N 0.3311 0.33118 0.76735 0.0
C1968 C 0.26701 0.31171 0.67941 0.0
C1969 C 0.31206 0.32859 0.73624 0.0
N1970 N 0.25025 0.32948 0.73849 0.0
N1971 N 0.33484 0.32692 0.66371 0.0
H1972 H 0.33088 0.33491 0.80459 0.0
H1973 H 0.34595 0.32776 0.75684 0.0
H1974 H 0.33524 0.3222 0.62702 0.0
H1975 H 0.35273 0.33539 0.68127 0.0
H1976 H 0.23509 0.32684 0.71574 0.0
H1977 H 0.25151 0.33935 0.77087 0.0
H1978 H 0.2263 0.29435 0.67107 0.0
H1979 H 0.24227 0.28954 0.62162 0.0
C1980 C 0.28826 0.02741 0.55586 0.0
C1981 C 0.29326 0.01243 0.58938 0.0
C1982 C 0.31315 -0.00041 0.5259 0.0
C1983 C 0.31151 0.0174 0.49386 0.0
N1984 N 0.29059 0.04176 0.47193 0.0
N1985 N 0.29873 0.97566 0.60182 0.0
C1986 C 0.29649 0.02902 0.50666 0.0
C1987 C 0.30161 0.99545 0.57271 0.0
N1988 N 0.27699 0.0411 0.57243 0.0
N1989 N 0.32729 0.98817 0.51326 0.0
H1990 H 0.29056 0.97251 0.63666 0.0
H1991 H 0.30145 0.96074 0.58896 0.0
H1992 H 0.33622 0.99084 0.47935 0.0
H1993 H 0.33153 0.97734 0.53751 0.0
H1994 H 0.27504 0.05469 0.55184 0.0
H1995 H 0.26987 0.0389 0.60813 0.0
H1996 H 0.27921 0.05017 0.47838 0.0
H1997 H 0.29554 0.04233 0.43511 0.0
C1998 C 0.94821 0.30295 0.51135 0.0
C1999 C 0.97156 0.32032 0.48781 0.0
C2000 C 0.99546 0.32672 0.56405 0.0
C2001 C 0.97243 0.30628 0.58506 0.0
N2002 N 0.92918 0.26993 0.57302 0.0
N2003 N 0.01732 0.34982 0.4896 0.0
C2004 C 0.9494 0.29296 0.55704 0.0
C2005 C 0.99521 0.33284 0.51378 0.0
N2006 N 0.92506 0.29505 0.48858 0.0
N2007 N 0.0173 0.34 0.59175 0.0
H2008 H 0.01695 0.35534 0.4535 0.0
H2009 H 0.03579 0.35802 0.50462 0.0
H2010 H 0.0186 0.33493 0.62765 0.0
H2011 H 0.03382 0.35671 0.58007 0.0
H2012 H 0.90724 0.28369 0.50578 0.0
H2013 H 0.9239 0.30217 0.45435 0.0
H2014 H 0.91283 0.25848 0.55185 0.0
H2015 H 0.93007 0.26084 0.60497 0.0
C2016 C 0.70281 0.69049 0.56497 0.0
C2017 C 0.71808 0.68625 0.59904 0.0
C2018 C 0.72222 0.65726 0.54123 0.0
C2019 C 0.70526 0.66019 0.50925 0.0
N2020 N 0.67376 0.67338 0.49589 0.0
N2021 N 0.73762 0.66072 0.6238 0.0
C2022 C 0.69329 0.67439 0.5235 0.0
C2023 C 0.7265 0.66822 0.58856 0.0
N2024 N 0.69909 0.71111 0.57044 0.0
N2025 N 0.73527 0.6452 0.52532 0.0
H2026 H 0.73995 0.66681 0.66007 0.0
H2027 H 0.74228 0.64632 0.61805 0.0
H2028 H 0.73124 0.63543 0.49192 0.0
H2029 H 0.75107 0.64634 0.54386 0.0
H2030 H 0.6899 0.71625 0.54419 0.0
H2031 H 0.70754 0.72455 0.59875 0.0
H2032 H 0.66278 0.6816 0.5073 0.0
H2033 H 0.66697 0.66193 0.46446 0.0
C2034 C 0.35156 0.28267 0.06393 0.0
C2035 C 0.33569 0.27736 1.02229 0.0
C2036 C 0.29864 0.26901 0.0729 0.0
C2037 C 0.31419 0.27377 0.11449 0.0
N2038 N 0.35258 0.27706 0.15135 0.0
N2039 N 0.29254 0.25573 0.98875 0.0
C2040 C 0.33986 0.27813 0.11067 0.0
C2041 C 0.30873 0.26768 1.02712 0.0
N2042 N 0.37763 0.29241 0.0588 0.0
N2043 N 0.27446 0.26611 0.077 0.0
H2044 H 0.29896 0.25365 0.95439 0.0
H2045 H 0.27252 0.24572 0.99305 0.0
H2046 H 0.26626 0.26665 0.11046 0.0
H2047 H 0.26335 0.26509 1.04686 0.0
H2048 H 0.39046 0.29856 0.08817 0.0
H2049 H 0.38671 0.29594 1.02473 0.0
H2050 H 0.37013 0.27723 0.14985 0.0
H2051 H 0.34453 0.27375 0.18635 0.0
C2052 C 0.72189 0.05662 1.05181 0.0
C2053 C 0.70313 0.0403 1.01713 0.0
C2054 C 0.68363 0.0048 0.07598 0.0
C2055 C 0.70177 0.02127 0.11114 0.0
N2056 N 0.73651 0.06354 0.13592 0.0
N2057 N 0.66368 0.00108 0.99703 0.0
C2058 C 0.72059 0.04738 0.09997 0.0
C2059 C 0.68319 0.01502 1.02949 0.0
N2060 N 0.74086 0.08093 1.03823 0.0
N2061 N 0.66741 0.97925 0.08687 0.0
H2062 H 0.6632 0.00779 0.96207 0.0
H2063 H 0.64702 0.98378 1.0058 0.0
H2064 H 0.66759 0.97127 0.12076 0.0
H2065 H 0.65531 0.96553 0.06144 0.0
H2066 H 0.7571 0.09283 0.05915 0.0
H2067 H 0.74087 0.0892 1.00459 0.0
H2068 H 0.74979 0.08306 0.13106 0.0
H2069 H 0.73597 0.05795 0.17217 0.0
C2070 C 0.95362 0.65933 1.0059 0.0
C2071 C 0.9749 0.66016 0.98088 0.0
C2072 C 0.00085 0.67495 1.05589 0.0
C2073 C 0.97871 0.67189 0.08121 0.0
N2074 N 0.93213 0.65362 0.0831 0.0
N2075 N 0.01784 0.66549 0.98295 0.0
C2076 C 0.95448 0.66151 1.05713 0.0
C2077 C -0.00174 0.66687 1.00623 0.0
N2078 N 0.93335 0.65854 0.98085 0.0
N2079 N 0.02445 0.68655 0.07849 0.0
H2080 H 0.01704 0.66068 0.94609 0.0
H2081 H 0.03413 0.66743 1.00084 0.0
H2082 H 0.02694 0.69226 0.11506 0.0
H2083 H 0.04181 0.69211 0.06024 0.0
H2084 H 0.91897 0.66087 0.99784 0.0
H2085 H 0.93227 0.65869 0.94284 0.0
H2086 H 0.91384 0.64347 0.06722 0.0
H2087 H 0.93157 0.65479 0.12103 0.0
C2088 C 0.06394 0.49977 0.94737 0.0
C2089 C 0.07049 0.52618 0.94607 0.0
C2090 C 0.06542 0.52503 1.03673 0.0
C2091 C 0.05885 0.49835 1.03866 0.0
N2092 N 0.05652 0.46224 0.99394 0.0
N2093 N 0.07206 0.56223 0.98839 0.0
C2094 C 0.05897 0.48621 0.99324 0.0
C2095 C 0.07 0.53835 0.99056 0.0
N2096 N 0.06199 0.48727 0.90417 0.0
N2097 N 0.06787 0.53822 0.0791 0.0
H2098 H 0.07537 0.57255 0.95584 0.0
H2099 H 0.0682 0.57093 1.01778 0.0
H2100 H 0.06157 0.52942 0.11296 0.0
H2101 H 0.07714 0.55833 0.08114 0.0
H2102 H 0.05309 0.46724 0.90071 0.0
H2103 H 0.06791 0.4968 0.87063 0.0
H2104 H 0.05995 0.45351 0.9641 0.0
H2105 H 0.05318 0.4517 1.02566 0.0
C2106 C 0.46946 0.55876 1.03101 0.0
C2107 C 0.49211 0.55702 1.04254 0.0
C2108 C 0.48833 0.53732 0.96001 0.0
C2109 C 0.46659 0.54008 0.94828 0.0
N2110 N 0.43948 0.55778 0.96945 0.0
N2111 N 0.51668 0.53604 1.02223 0.0
C2112 C 0.45791 0.55174 0.98317 0.0
C2113 C 0.49993 0.54418 1.00787 0.0
N2114 N 0.45783 0.56598 0.06593 0.0
N2115 N 0.49842 0.52865 0.92472 0.0
H2116 H 0.52365 0.53808 1.05781 0.0
H2117 H 0.52106 0.52421 1.00107 0.0
H2118 H 0.48984 0.52233 0.89046 0.0
H2119 H 0.51625 0.52953 0.92792 0.0
H2120 H 0.43917 0.56306 0.06226 0.0
H2121 H 0.46549 0.57338 0.10007 0.0
H2122 H 0.43499 0.56985 0.98962 0.0
H2123 H 0.43024 0.55272 0.93554 0.0
C2124 C 0.42619 0.91425 1.02019 0.0
C2125 C 0.43016 0.93918 1.03347 0.0
C2126 C 0.4506 0.9551 0.95145 0.0
C2127 C 0.44912 0.93102 0.94081 0.0
N2128 N 0.43762 0.88824 0.96822 0.0
N2129 N 0.44965 0.98449 1.01172 0.0
C2130 C 0.43767 0.91088 0.97633 0.0
C2131 C 0.44308 0.95982 0.99881 0.0
N2132 N 0.40984 0.89318 1.04766 0.0
N2133 N 0.45929 0.97378 0.91607 0.0
H2134 H 0.44554 0.98945 1.0456 0.0
H2135 H 0.46144 0.00073 0.99063 0.0
H2136 H 0.46722 0.97235 0.88295 0.0
H2137 H 0.45691 0.98987 0.91811 0.0
H2138 H 0.40372 0.87417 1.03727 0.0
H2139 H 0.39996 0.89433 0.07812 0.0
H2140 H 0.43278 0.87414 0.99501 0.0
H2141 H 0.44413 0.88426 0.93568 0.0
C2142 C 0.47226 0.03585 0.76439 0.0
C2143 C 0.4827 0.05296 0.72328 0.0
C2144 C 0.52336 0.07806 0.77215 0.0
C2145 C 0.5118 0.06301 0.81481 0.0
N2146 N 0.47249 0.03033 0.85272 0.0
N2147 N 0.51702 0.09521 0.69687 0.0
C2148 C 0.48545 0.0427 0.81114 0.0
C2149 C 0.50794 0.07535 0.72973 0.0
N2150 N 0.45043 0.01229 0.75877 0.0
N2151 N 0.54951 0.09465 0.77113 0.0
H2152 H 0.50628 0.09553 0.66741 0.0
H2153 H 0.53387 0.11291 0.7025 0.0
H2154 H 0.5616 0.09693 0.80056 0.0
H2155 H 0.55949 0.10397 0.73932 0.0
H2156 H 0.44359 0.99802 0.78571 0.0
H2157 H 0.4407 0.00587 0.72565 0.0
H2158 H 0.45258 0.01748 0.85351 0.0
H2159 H 0.48118 0.03493 0.88717 0.0
C2160 C 0.93338 0.45352 0.71555 0.0
C2161 C 0.9354 0.43061 0.71271 0.0
C2162 C 0.9231 0.42342 0.80136 0.0
C2163 C 0.92514 0.44816 0.8049 0.0
N2164 N 0.93614 0.48846 0.76577 0.0
N2165 N 0.92868 0.3922 0.75369 0.0
C2166 C 0.93133 0.46358 0.76208 0.0
C2167 C 0.92953 0.41535 0.75625 0.0
N2168 N 0.93181 0.46522 0.67398 0.0
N2169 N 0.91365 0.40702 0.84057 0.0
H2170 H 0.92886 0.38427 0.72019 0.0
H2171 H 0.92749 0.38092 0.78363 0.0
H2172 H 0.90914 0.41235 0.87394 0.0
H2173 H 0.90838 0.38757 0.83937 0.0
H2174 H 0.92559 0.47874 0.67439 0.0
H2175 H 0.93402 0.45987 0.63899 0.0
H2176 H 0.94375 0.50168 0.73702 0.0
H2177 H 0.93481 0.49657 0.79875 0.0
C2178 C 0.55116 0.46882 0.77434 0.0
C2179 C 0.54003 0.47709 0.81104 0.0
C2180 C 0.54635 0.51316 0.75616 0.0
C2181 C 0.55662 0.50427 0.71794 0.0
N2182 N 0.56424 0.46962 0.69051 0.0
N2183 N 0.5247 0.50572 0.83543 0.0
C2184 C 0.55748 0.48088 0.72692 0.0
C2185 C 0.53727 0.49904 0.80159 0.0
N2186 N 0.55718 0.4501 0.78568 0.0
N2187 N 0.54451 0.53485 0.74896 0.0
H2188 H 0.51847 0.49639 0.86913 0.0
H2189 H 0.51878 0.51917 0.82919 0.0
H2190 H 0.54533 0.54273 0.71466 0.0
H2191 H 0.54209 0.54522 0.77714 0.0
H2192 H 0.56864 0.44558 0.7636 0.0
H2193 H 0.55282 0.44065 0.8194 0.0
H2194 H 0.56013 0.45048 0.69212 0.0
H2195 H 0.57326 0.47852 0.65797 0.0
C2196 C 0.95692 0.50472 0.25114 0.0
C2197 C 0.93748 0.49611 0.2136 0.0
C2198 C 0.90801 0.46 0.26905 0.0
C2199 C 0.9277 0.46783 0.30514 0.0
N2200 N 0.97264 0.49481 0.32583 0.0
N2201 N 0.89741 0.46183 0.18343 0.0
C2202 C 0.95256 0.48953 0.29492 0.0
C2203 C 0.91388 0.47246 0.22194 0.0
N2204 N 0.98002 0.52708 0.24516 0.0
N2205 N 0.88324 0.44142 0.28056 0.0
H2206 H 0.88071 0.44364 0.18375 0.0
H2207 H 0.88071 0.44364 0.18375 0.0
H2208 H 0.87819 0.43199 0.31429 0.0
H2209 H 0.86727 0.43721 0.25884 0.0
H2210 H 0.99266 0.53671 0.27397 0.0
H2211 H 0.98683 0.5363 0.21176 0.0
H2212 H 0.99194 0.50807 0.31799 0.0
H2213 H 0.97037 0.48422 0.35765 0.0
C2214 C 0.51693 0.42995 0.28402 0.0
C2215 C 0.51642 0.45064 0.30912 0.0
C2216 C 0.48708 0.45068 0.24457 0.0
C2217 C 0.4892 0.43134 0.21721 0.0
N2218 N 0.50809 0.4039 0.21029 0.0
N2219 N 0.50392 0.48322 0.30926 0.0
C2220 C 0.50481 0.4215 0.23679 0.0
C2221 C 0.50218 0.46158 0.28828 0.0
N2222 N 0.52836 0.41767 0.30626 0.0
N2223 N 0.47049 0.45875 0.22913 0.0
H2224 H 0.51426 0.49142 0.34138 0.0
H2225 H 0.49693 0.4943 0.29296 0.0
H2226 H 0.46096 0.45353 0.19562 0.0
H2227 H 0.46513 0.46972 0.2507 0.0
H2228 H 0.52689 0.40054 0.29351 0.0
H2229 H 0.53785 0.42359 0.33985 0.0
H2230 H 0.52169 0.39842 0.21873 0.0
H2231 H 0.49806 0.39558 0.1781 0.0
C2232 C 0.53791 0.05567 0.22539 0.0
C2233 C 0.56299 0.05856 0.21924 0.0
C2234 C 0.57194 0.07407 0.30566 0.0
C2235 C 0.54539 0.06644 0.31361 0.0
N2236 N 0.502 0.04425 0.28066 0.0
N2237 N 0.6041 0.07096 0.25619 0.0
C2238 C 0.52812 0.05567 0.27333 0.0
C2239 C 0.57988 0.06754 0.26056 0.0
N2240 N 0.52351 0.0541 0.18563 0.0
N2241 N 0.59003 0.08917 0.33969 0.0
H2242 H 0.61662 0.07466 0.28553 0.0
H2243 H 0.61104 0.06905 0.22268 0.0
H2244 H 0.58543 0.09592 0.37119 0.0
H2245 H 0.60991 0.09748 0.33429 0.0
H2246 H 0.5069 0.05566 0.18855 0.0
H2247 H 0.5295 0.05415 0.14989 0.0
H2248 H 0.48855 0.03402 0.25325 0.0
H2249 H 0.49376 0.04251 0.31512 0.0
C2250 C 0.5189 0.96907 0.49714 0.0
C2251 C 0.51108 0.94915 0.53343 0.0
C2252 C 0.47734 0.91885 0.47465 0.0
C2253 C 0.48355 0.93927 0.441 0.0
N2254 N 0.50857 0.98466 0.42273 0.0
N2255 N 0.48021 0.90481 0.55619 0.0
C2256 C 0.50398 0.96455 0.45294 0.0
C2257 C 0.48949 0.92407 0.52198 0.0
N2258 N 0.54065 0.99255 0.50444 0.0
N2259 N 0.46056 0.89394 0.46045 0.0
H2260 H 0.48951 0.9059 0.58881 0.0
H2261 H 0.4623 0.88793 0.55328 0.0
H2262 H 0.45116 0.88925 0.42667 0.0
H2263 H 0.45771 0.87774 0.47997 0.0
H2264 H 0.54946 0.00641 0.47708 0.0
H2265 H 0.55097 0.99792 0.53699 0.0
H2266 H 0.52065 0.00404 0.43171 0.0
H2267 H 0.49872 0.98207 0.38985 0.0
C2268 C 0.08864 0.56518 0.47201 0.0
C2269 C 0.06803 0.54531 0.44449 0.0
C2270 C 0.03685 0.54593 0.50449 0.0
C2271 C 0.05759 0.56421 0.53483 0.0
N2272 N 0.1038 0.59108 0.54609 0.0
N2273 N 0.02256 0.51452 0.43783 0.0
C2274 C 0.0836 0.57364 0.51808 0.0
C2275 C 0.04218 0.53518 0.46168 0.0
N2276 N 0.11321 0.57663 0.45321 0.0
N2277 N 0.01185 0.53892 0.5157 0.0
H2278 H 0.02548 0.50673 0.40584 0.0
H2279 H 0.0038 0.50378 0.45161 0.0
H2280 H 0.00636 0.54436 0.5476 0.0
H2281 H 0.99643 0.52891 0.49167 0.0
H2282 H 0.12882 0.59335 0.4674 0.0
H2283 H 0.11784 0.57037 0.42107 0.0
H2284 H 0.12293 0.59564 0.54094 0.0
H2285 H 0.10145 0.6007 0.57563 0.0
C2286 C 0.4234 0.49107 0.44845 0.0
C2287 C 0.44401 0.51718 0.44635 0.0
C2288 C 0.44886 0.51643 0.53646 0.0
C2289 C 0.42764 0.4903 0.5393 0.0
N2290 N 0.39174 0.45503 0.49712 0.0
N2291 N 0.4797 0.55291 0.48689 0.0
C2292 C 0.41438 0.47814 0.49484 0.0
C2293 C 0.45746 0.52937 0.49008 0.0
N2294 N 0.41274 0.47829 0.40563 0.0
N2295 N 0.46066 0.52951 0.5783 0.0
H2296 H 0.48639 0.56315 0.45416 0.0
H2297 H 0.49278 0.56145 0.51553 0.0
H2298 H 0.45832 0.52066 0.61203 0.0
H2299 H 0.47225 0.54956 0.58006 0.0
H2300 H 0.40025 0.45838 0.40333 0.0
H2301 H 0.41797 0.48729 0.37149 0.0
H2302 H 0.37937 0.44642 0.46754 0.0
H2303 H 0.38382 0.44547 0.52977 0.0
C2304 C 0.71233 0.847 0.30296 0.0
C2305 C 0.73827 0.86211 0.28557 0.0
C2306 C 0.75287 0.84836 0.35944 0.0
C2307 C 0.72671 0.83166 0.3751 0.0
N2308 N 0.68128 0.81221 0.35487 0.0
N2309 N 0.78277 0.87298 0.29356 0.0
C2310 C 0.70644 0.83005 0.34458 0.0
C2311 C 0.75838 0.86168 0.31303 0.0
N2312 N 0.69324 0.84979 0.28119 0.0
N2313 N 0.7728 0.85153 0.3887 0.0
H2314 H 0.78757 0.88265 0.26006 0.0
H2315 H 0.79769 0.8708 0.30817 0.0
H2316 H 0.77009 0.84076 0.42026 0.0
H2317 H 0.792 0.86586 0.38315 0.0
H2318 H 0.67458 0.84197 0.29544 0.0
H2319 H 0.69669 0.86201 0.25137 0.0
H2320 H 0.66611 0.80757 0.3306 0.0
H2321 H 0.67554 0.80089 0.38634 0.0
C2322 C 0.16285 0.90781 0.28919 0.0
C2323 C 0.14174 0.88208 0.28361 0.0
C2324 C 0.14728 0.87352 0.37029 0.0
C2325 C 0.16951 0.89868 0.37546 0.0
N2326 N 0.19382 0.94172 0.3432 0.0
N2327 N 0.11651 0.83921 0.31703 0.0
C2328 C 0.17618 0.91627 0.33543 0.0
C2329 C 0.13474 0.86468 0.32372 0.0
N2330 N 0.17038 0.92409 0.24974 0.0
N2331 N 0.13689 0.85843 0.41071 0.0
H2332 H 0.10631 0.83209 0.28438 0.0
H2333 H 0.113 0.82477 0.34235 0.0
H2334 H 0.14542 0.86358 0.44507 0.0
H2335 H 0.11857 0.84195 0.41107 0.0
H2336 H 0.18651 0.94257 0.24916 0.0
H2337 H 0.16108 0.91859 0.21592 0.0
H2338 H 0.1989 0.9565 0.3179 0.0
H2339 H 0.20169 0.94845 0.37755 0.0
C2340 C 0.08972 0.23029 0.31323 0.0
C2341 C 0.1129 0.24958 0.29022 0.0
C2342 C 0.11563 0.28078 0.35394 0.0
C2343 C 0.09405 0.26092 0.37999 0.0
N2344 N 0.06169 0.21568 0.38507 0.0
N2345 N 0.15073 0.29175 0.29644 0.0
C2346 C 0.08159 0.23534 0.35985 0.0
C2347 C 0.12644 0.27445 0.31259 0.0
N2348 N 0.07471 0.20738 0.28943 0.0
N2349 N 0.12615 0.30598 0.36846 0.0
H2350 H 0.15979 0.28756 0.26808 0.0
H2351 H 0.1629 0.30885 0.31498 0.0
H2352 H 0.12077 0.31162 0.40038 0.0
H2353 H 0.1393 0.32151 0.34711 0.0
H2354 H 0.05621 0.19356 0.30089 0.0
H2355 H 0.07983 0.20307 0.25564 0.0
H2356 H 0.0539 0.1962 0.37619 0.0
H2357 H 0.05381 0.21871 0.41668 0.0
C2358 C 0.19469 0.40036 0.10036 0.0
C2359 C 0.18701 0.40848 0.14299 0.0
C2360 C 0.14953 0.40497 0.09638 0.0
C2361 C 0.15794 0.39837 1.05222 0.0
N2362 N 0.19009 0.39039 1.01374 0.0
N2363 N 0.15942 0.42254 0.17926 0.0
C2364 C 0.18118 0.39667 1.05467 0.0
C2365 C 0.16498 0.41173 0.14027 0.0
N2366 N 0.21394 0.39429 0.10431 0.0
N2367 N 0.12657 0.40474 0.09703 0.0
H2368 H 0.16993 0.42742 0.21184 0.0
H2369 H 0.14593 0.42877 0.17815 0.0
H2370 H 0.11591 0.40265 0.06578 0.0
H2371 H 0.11747 0.4055 0.12904 0.0
H2372 H 0.21841 0.38488 0.07717 0.0
H2373 H 0.22424 0.3967 0.13657 0.0
H2374 H 0.17881 0.38159 0.98301 0.0
H2375 H 0.20895 0.39378 1.01027 0.0
C2376 C 0.59126 0.74576 0.09731 0.0
C2377 C 0.59565 0.75917 1.05192 0.0
C2378 C 0.58763 0.79126 0.09615 0.0
C2379 C 0.58653 0.77946 0.14192 0.0
N2380 N 0.59066 0.74694 0.18638 0.0
N2381 N 0.60254 0.79855 1.01208 0.0
C2382 C 0.58959 0.75729 0.14248 0.0
C2383 C 0.59472 0.78281 1.05233 0.0
N2384 N 0.58631 0.7209 0.09691 0.0
N2385 N 0.5819 0.81076 0.0943 0.0
H2386 H 0.60512 0.81716 1.01215 0.0
H2387 H 0.60982 0.79485 0.98039 0.0
H2388 H 0.57794 0.81833 0.12545 0.0
H2389 H 0.57903 0.81799 0.06168 0.0
H2390 H 0.58088 0.70901 0.12767 0.0
H2391 H 0.58396 0.71123 0.06417 0.0
H2392 H 0.59551 0.73249 0.18963 0.0
H2393 H 0.5886 0.75416 0.21987 0.0
C2394 C 0.2074 0.82993 0.1315 0.0
C2395 C 0.21226 0.8097 0.14492 0.0
C2396 C 0.23714 0.81759 0.06758 0.0
C2397 C 0.22979 0.83579 1.05148 0.0
N2398 N 0.20302 0.85502 0.06619 0.0
N2399 N 0.22872 0.78171 0.12143 0.0
C2400 C 0.21367 0.84087 0.08309 0.0
C2401 C 0.22621 0.8028 0.11157 0.0
N2402 N 0.19729 0.83925 0.16551 0.0
N2403 N 0.25578 0.81538 1.04249 0.0
H2404 H 0.22155 0.7708 0.15335 0.0
H2405 H 0.23594 0.77378 0.09621 0.0
H2406 H 0.2651 0.82645 1.01175 0.0
H2407 H 0.26402 0.80465 1.05511 0.0
H2408 H 0.19594 0.85583 0.16012 0.0
H2409 H 0.19229 0.83167 0.20082 0.0
H2410 H 0.18905 0.85709 0.08545 0.0
H2411 H 0.20583 0.8623 1.03071 0.0
C2412 C 0.58497 0.79047 0.59605 0.0
C2413 C 0.58908 0.80369 0.64144 0.0
C2414 C 0.60292 0.84427 0.59401 0.0
C2415 C 0.59748 0.83098 0.54784 0.0
N2416 N 0.57838 0.78862 0.5086 0.0
N2417 N 0.59733 0.84275 0.68249 0.0
C2418 C 0.58689 0.80331 0.55005 0.0
C2419 C 0.59707 0.8305 0.63993 0.0
N2420 N 0.58073 0.7657 0.59643 0.0
N2421 N 0.61338 0.87042 0.59504 0.0
H2422 H 0.59249 0.8335 0.71639 0.0
H2423 H 0.59999 0.86139 0.68379 0.0
H2424 H 0.61131 0.88097 0.56689 0.0
H2425 H 0.62436 0.88133 0.62472 0.0
H2426 H 0.58015 0.75553 0.56501 0.0
H2427 H 0.58019 0.756 0.62851 0.0
H2428 H 0.56581 0.76867 0.50944 0.0
H2429 H 0.58335 0.7957 0.47329 0.0
C2430 C 0.14273 0.75219 0.60119 0.0
C2431 C 0.15494 0.76394 0.5554 0.0
C2432 C 0.19423 0.79469 0.60362 0.0
C2433 C 0.18285 0.78162 0.64799 0.0
N2434 N 0.1471 0.74587 0.68834 0.0
N2435 N 0.19518 0.79522 0.51564 0.0
C2436 C 0.15725 0.75994 0.6465 0.0
C2437 C 0.18145 0.7847 0.55755 0.0
N2438 N 0.11725 0.73323 0.60202 0.0
N2439 N 0.21704 0.81775 0.60543 0.0
H2440 H 0.18695 0.79366 0.48154 0.0
H2441 H 0.21538 0.80557 0.51492 0.0
H2442 H 0.22711 0.82573 0.63789 0.0
H2443 H 0.22478 0.83018 0.57558 0.0
H2444 H 0.10623 0.72688 0.6339 0.0
H2445 H 0.10655 0.72406 0.57099 0.0
H2446 H 0.13011 0.72798 0.68946 0.0
H2447 H 0.15677 0.75118 0.72184 0.0
C2448 C 0.23934 0.41524 0.56827 0.0
C2449 C 0.22972 0.3898 0.54874 0.0
C2450 C 0.19967 0.37248 0.62004 0.0
C2451 C 0.21044 0.39768 0.64078 0.0
N2452 N 0.24391 0.44244 0.6385 0.0
N2453 N 0.20291 0.34363 0.56129 0.0
C2454 C 0.23116 0.41887 0.61578 0.0
C2455 C 0.21072 0.36829 0.57646 0.0
N2456 N 0.25649 0.43623 0.54153 0.0
N2457 N 0.17786 0.35258 0.64062 0.0
H2458 H 0.20814 0.33925 0.52779 0.0
H2459 H 0.1921 0.32737 0.58307 0.0
H2460 H 0.16926 0.35482 0.67214 0.0
H2461 H 0.16697 0.33449 0.62426 0.0
H2462 H 0.26155 0.4552 0.55011 0.0
H2463 H 0.26474 0.43471 0.50906 0.0
H2464 H 0.26112 0.45796 0.62556 0.0
H2465 H 0.23856 0.44591 0.67282 0.0
C2466 C 0.12061 0.2301 0.8297 0.0
C2467 C 0.13395 0.24222 0.7856 0.0
C2468 C 0.17539 0.25714 0.83023 0.0
C2469 C 0.16204 0.24741 0.87551 0.0
N2470 N 0.1222 0.21199 0.90793 0.0
N2471 N 0.17487 0.26815 0.74467 0.0
C2472 C 0.1347 0.23017 0.87242 0.0
C2473 C 0.16158 0.256 0.78622 0.0
N2474 N 0.09432 0.21941 0.83181 0.0
N2475 N 0.20089 0.26405 0.82773 0.0
H2476 H 0.16594 0.26599 0.71086 0.0
H2477 H 0.19463 0.28157 0.74433 0.0
H2478 H 0.21004 0.2606 0.85675 0.0
H2479 H 0.21152 0.26889 0.79536 0.0
H2480 H 0.08385 0.21315 0.86439 0.0
H2481 H 0.0833 0.21929 0.80209 0.0
H2482 H 0.10271 0.19782 0.90567 0.0
H2483 H 0.1319 0.20803 0.9351 0.0
C2484 C 0.75868 0.90698 0.86613 0.0
C2485 C 0.7395 0.91457 0.87109 0.0
C2486 C 0.72996 0.90364 0.78206 0.0
C2487 C 0.74478 0.89087 0.78139 0.0
N2488 N 0.76976 0.87692 0.82853 0.0
N2489 N 0.70913 0.92297 0.82747 0.0
C2490 C 0.75813 0.8916 0.82509 0.0
C2491 C 0.72568 0.91349 0.82727 0.0
N2492 N 0.77876 0.91585 0.89845 0.0
N2493 N 0.7215 0.90826 0.73877 0.0
H2494 H 0.71138 0.93755 0.8513 0.0
H2495 H 0.69423 0.91729 0.80203 0.0
H2496 H 0.72532 0.90281 0.70489 0.0
H2497 H 0.71301 0.9198 0.73573 0.0
H2498 H 0.79393 0.91201 0.8946 0.0
H2499 H 0.78269 0.93051 0.92355 0.0
H2500 H 0.77756 0.87483 0.86118 0.0
H2501 H 0.76902 0.86467 0.80053 0.0
C2502 C 0.11882 0.82931 0.8475 0.0
C2503 C 0.10424 0.83614 0.88013 0.0
C2504 C 0.10784 0.86839 0.81789 0.0
C2505 C 0.12311 0.8623 0.78664 0.0
N2506 N 0.14714 0.84017 0.77607 0.0
N2507 N 0.09248 0.86892 0.89935 0.0
C2508 C 0.12954 0.8435 0.80261 0.0
C2509 C 0.10113 0.8577 0.86635 0.0
N2510 N 0.12342 0.80979 0.85995 0.0
N2511 N 0.09863 0.88375 0.80059 0.0
H2512 H 0.08596 0.86208 0.93437 0.0
H2513 H 0.0936 0.88669 0.89305 0.0
H2514 H 0.10301 0.89203 0.76578 0.0
H2515 H 0.08461 0.88618 0.81884 0.0
H2516 H 0.12983 0.80092 0.83517 0.0
H2517 H 0.12086 0.80228 0.89518 0.0
H2518 H 0.1554 0.82935 0.78805 0.0
H2519 H 0.15522 0.85002 0.74345 0.0
C2520 C 0.41516 0.1734 0.68316 0.0
C2521 C 0.38958 0.15569 0.70058 0.0
C2522 C 0.37223 0.16734 0.6279 0.0
C2523 C 0.39757 0.18373 0.60918 0.0
N2524 N 0.44333 0.20015 0.61668 0.0
N2525 N 0.34382 0.13192 0.68102 0.0
C2526 C 0.41905 0.1861 0.63631 0.0
C2527 C 0.36821 0.15149 0.67036 0.0
N2528 N 0.43598 0.17795 0.71117 0.0
N2529 N 0.35174 0.16753 0.6061 0.0
H2530 H 0.33909 0.12067 0.7124 0.0
H2531 H 0.32842 0.12553 0.65657 0.0
H2532 H 0.35356 0.17815 0.57456 0.0
H2533 H 0.33333 0.15894 0.62168 0.0
H2534 H 0.45475 0.19302 0.70487 0.0
H2535 H 0.43443 0.16707 0.74203 0.0
H2536 H 0.45966 0.20043 0.63085 0.0
H2537 H 0.44697 0.21043 0.58398 0.0
C2538 C 0.84706 0.21362 0.67066 0.0
C2539 C 0.83813 0.22558 0.70532 0.0
C2540 C 0.8064 0.22245 0.64233 0.0
C2541 C 0.81436 0.20943 0.60909 0.0
N2542 N 0.83992 0.18907 0.59521 0.0
N2543 N 0.80285 0.2336 0.72568 0.0
C2544 C 0.83419 0.20425 0.6242 0.0
C2545 C 0.81588 0.22755 0.69176 0.0
N2546 N 0.86754 0.21037 0.6823 0.0
N2547 N 0.79056 0.23131 0.62605 0.0
H2548 H 0.80856 0.23876 0.76167 0.0
H2549 H 0.78469 0.2315 0.71887 0.0
H2550 H 0.78352 0.2285 0.59032 0.0
H2551 H 0.7867 0.24382 0.64632 0.0
H2552 H 0.87798 0.20643 0.65646 0.0
H2553 H 0.87428 0.21161 0.71785 0.0
H2554 H 0.85107 0.18111 0.60672 0.0
H2555 H 0.83178 0.1826 0.56075 0.0
C2556 C 0.80307 0.61974 0.64195 0.0
C2557 C 0.78632 0.61043 0.60085 0.0
C2558 C 0.75167 0.60951 0.65415 0.0
C2559 C 0.76881 0.62004 0.69516 0.0
N2560 N 0.80731 0.62217 0.7295 0.0
N2561 N 0.74434 0.5976 0.56747 0.0
C2562 C 0.79356 0.62161 0.68943 0.0
C2563 C 0.76056 0.6058 0.60695 0.0
N2564 N 0.82876 0.62777 0.63566 0.0
N2565 N 0.72592 0.59977 0.66218 0.0
H2566 H 0.7495 0.59324 0.53379 0.0
H2567 H 0.7264 0.59658 0.56686 0.0
H2568 H 0.71898 0.59861 0.69736 0.0
H2569 H 0.71143 0.58983 0.63644 0.0
H2570 H 0.84263 0.63758 0.66265 0.0
H2571 H 0.8366 0.62698 0.60196 0.0
H2572 H 0.82306 0.61912 0.72753 0.0
H2573 H 0.80148 0.62236 0.76502 0.0
C2574 C 0.85592 0.76729 0.45043 0.0
C2575 C 0.85225 0.74499 0.47671 0.0
C2576 C 0.82318 0.71758 0.40913 0.0
C2577 C 0.82659 0.74 0.38285 0.0
N2578 N 0.84207 0.78575 0.38544 0.0
N2579 N 0.83326 0.69883 0.47974 0.0
C2580 C 0.84202 0.76473 0.40537 0.0
C2581 C 0.83569 0.72012 0.45592 0.0
N2582 N 0.87341 0.79122 0.468 0.0
N2583 N 0.80855 0.69361 0.38862 0.0
H2584 H 0.84146 0.69985 0.51395 0.0
H2585 H 0.82409 0.68015 0.46564 0.0
H2586 H 0.80372 0.69073 0.35169 0.0
H2587 H 0.8014 0.67624 0.40748 0.0
H2588 H 0.87968 0.8083 0.44842 0.0
H2589 H 0.88313 0.7939 0.50111 0.0
H2590 H 0.85023 0.80378 0.40238 0.0
H2591 H 0.83175 0.78465 0.3539 0.0
C2592 C 0.26183 0.10707 0.39898 0.0
C2593 C 0.28449 0.10449 0.39261 0.0
C2594 C 0.29649 0.12021 0.47892 0.0
C2595 C 0.27301 0.1207 0.48556 0.0
N2596 N 0.231 0.10922 0.4544 0.0
N2597 N 0.32354 0.10915 0.42951 0.0
C2598 C 0.25525 0.11282 0.44614 0.0
C2599 C 0.30168 0.11101 0.43367 0.0
N2600 N 0.24611 0.10426 0.36029 0.0
N2601 N 0.31457 0.12986 0.51533 0.0
H2602 H 0.33103 0.10743 0.39626 0.0
H2603 H 0.33426 0.10898 0.45938 0.0
H2604 H 0.31109 0.13593 0.54881 0.0
H2605 H 0.33349 0.13351 0.51162 0.0
H2606 H 0.23324 0.1113 0.36085 0.0
H2607 H 0.24556 0.0953 0.32741 0.0
H2608 H 0.21579 0.10008 0.4296 0.0
H2609 H 0.2252 0.11297 0.488 0.0
C2610 C 0.88901 0.17749 0.4778 0.0
C2611 C 0.88309 0.15123 0.48162 0.0
C2612 C 0.89933 0.15469 0.39691 0.0
C2613 C 0.90191 0.17971 0.39017 0.0
N2614 N 0.89317 0.21202 0.42497 0.0
N2615 N 0.87662 0.11325 0.43826 0.0
C2616 C 0.89514 0.19035 0.43092 0.0
C2617 C 0.88645 0.13942 0.43919 0.0
N2618 N 0.88969 0.19065 0.51923 0.0
N2619 N 0.91049 0.14572 0.36456 0.0
H2620 H 0.86637 0.10119 0.46748 0.0
H2621 H 0.87613 0.10327 0.40653 0.0
H2622 H 0.92198 0.15661 0.33552 0.0
H2623 H 0.91126 0.12885 0.37047 0.0
H2624 H 0.89639 0.21048 0.51965 0.0
H2625 H 0.8861 0.1823 0.55394 0.0
H2626 H 0.88559 0.21882 0.45178 0.0
H2627 H 0.89635 0.22165 0.39181 0.0
C2628 C 0.27489 0.14898 0.89586 0.0
C2629 C 0.27219 0.17127 0.89009 0.0
C2630 C 0.25585 0.16392 0.97593 0.0
C2631 C 0.26403 0.14547 0.98397 0.0
N2632 N 0.28682 0.12488 0.95066 0.0
N2633 N 0.26062 0.20042 0.92852 0.0
C2634 C 0.27505 0.13925 0.94364 0.0
C2635 C 0.26304 0.17898 0.93154 0.0
N2636 N 0.27614 0.13595 0.85604 0.0
N2637 N 0.24003 0.16616 1.00947 0.0
H2638 H 0.26629 0.21221 0.89783 0.0
H2639 H 0.2546 0.20736 0.95756 0.0
H2640 H 0.23321 0.15455 1.0406 0.0
H2641 H 0.23113 0.17715 1.00373 0.0
H2642 H 0.2743 0.11768 0.85918 0.0
H2643 H 0.276 0.14171 0.82027 0.0
H2644 H 0.29707 0.12182 0.92299 0.0
H2645 H 0.2888 0.11851 0.985 0.0
C2646 C 0.85735 0.10257 0.94967 0.0
C2647 C 0.85212 0.11883 0.98018 0.0
C2648 C 0.8221 0.11841 0.91651 0.0
C2649 C 0.82789 0.10272 0.88506 0.0
N2650 N 0.8513 0.07988 0.87223 0.0
N2651 N 0.82919 0.14189 0.9935 0.0
C2652 C 0.84571 0.09495 0.90184 0.0
C2653 C 0.83418 0.12639 0.96385 0.0
N2654 N 0.87261 0.09336 0.96771 0.0
N2655 N 0.80508 0.12594 0.90089 0.0
H2656 H 0.83609 0.14645 1.02919 0.0
H2657 H 0.81875 0.15079 0.98324 0.0
H2658 H 0.799 0.1243 0.86473 0.0
H2659 H 0.79671 0.13387 0.92326 0.0
H2660 H 0.87551 0.07943 0.95064 0.0
H2661 H 0.88142 0.09854 1.002 0.0
H2662 H 0.86634 0.07615 0.87829 0.0
H2663 H 0.8412 0.07129 0.84024 0.0
C2664 C 0.88189 0.70347 0.91991 0.0
C2665 C 0.89516 0.72251 0.88242 0.0
C2666 C 0.89203 0.75455 0.93798 0.0
C2667 C 0.87627 0.73499 0.97228 0.0
N2668 N 0.85354 0.68964 0.99184 0.0
N2669 N 0.91036 0.76681 0.8568 0.0
C2670 C 0.87068 0.70917 0.96215 0.0
C2671 C 0.89928 0.74808 0.89183 0.0
N2672 N 0.87982 0.67969 0.91566 0.0
N2673 N 0.90157 0.77992 0.95062 0.0
H2674 H 0.91928 0.76511 0.82559 0.0
H2675 H 0.90966 0.78392 0.85774 0.0
H2676 H 0.89729 0.78564 0.98379 0.0
H2677 H 0.91583 0.79539 0.9307 0.0
H2678 H 0.87357 0.66624 0.94399 0.0
H2679 H 0.88588 0.67385 0.88496 0.0
H2680 H 0.84618 0.67007 0.98437 0.0
H2681 H 0.84489 0.69291 1.02216 0.0
C2682 C 0.81339 0.60308 0.19064 0.0
C2683 C 0.83852 0.60515 0.19167 0.0
C2684 C 0.83683 0.60348 0.10019 0.0
C2685 C 0.81117 0.59941 0.09977 0.0
N2686 N 0.77312 0.58965 0.14647 0.0
N2687 N 0.86954 0.59933 0.14533 0.0
C2688 C 0.7989 0.59731 0.14561 0.0
C2689 C 0.84898 0.6033 0.14567 0.0
N2690 N 0.80394 0.60887 0.23145 0.0
N2691 N 0.84987 0.60774 1.05692 0.0
H2692 H 0.87633 0.59581 0.17757 0.0
H2693 H 0.87709 0.59572 0.1138 0.0
H2694 H 0.84174 0.60792 1.02324 0.0
H2695 H 0.86937 0.61315 1.05479 0.0
H2696 H 0.81424 0.61582 0.26385 0.0
H2697 H 0.78728 0.6104 0.23121 0.0
H2698 H 0.76222 0.58471 0.17858 0.0
H2699 H 0.76208 0.58588 0.11475 0.0
C2700 C 0.40924 0.22814 0.14251 0.0
C2701 C 0.38891 0.21388 0.10867 0.0
C2702 C 0.35904 0.21967 0.16533 0.0
C2703 C 0.37894 0.23194 0.20171 0.0
N2704 N 0.42328 0.24514 0.224 0.0
N2705 N 0.34358 0.1938 0.09044 0.0
C2706 C 0.404 0.23526 0.1899 0.0
C2707 C 0.36364 0.20924 0.12078 0.0
N2708 N 0.43417 0.23609 0.12852 0.0
N2709 N 0.33547 0.21768 0.17303 0.0
H2710 H 0.3462 0.1864 1.05766 0.0
H2711 H 0.32421 0.18669 0.09926 0.0
H2712 H 0.33021 0.22269 0.20576 0.0
H2713 H 0.32146 0.21243 0.14594 0.0
H2714 H 0.45037 0.24952 0.14797 0.0
H2715 H 0.43889 0.23113 0.09496 0.0
H2716 H 0.43999 0.24377 0.22122 0.0
H2717 H 0.42237 0.25366 0.25635 0.0
C2718 C 0.80054 0.18325 0.14646 0.0
C2719 C 0.78303 0.177 0.10689 0.0
C2720 C 0.7515 0.13839 0.15479 0.0
C2721 C 0.76722 0.14739 0.19813 0.0
N2722 N 0.80644 0.18319 0.23322 0.0
N2723 N 0.73874 0.15106 0.08005 0.0
C2724 C 0.79148 0.17128 0.19336 0.0
C2725 C 0.75771 0.15513 0.11279 0.0
N2726 N 0.82641 0.19979 0.13903 0.0
N2727 N 0.73027 0.11417 0.15289 0.0
H2728 H 0.74156 0.16389 1.05171 0.0
H2729 H 0.71945 0.13671 0.08443 0.0
H2730 H 0.72364 0.10122 0.18185 0.0
H2731 H 0.7203 0.10599 0.12047 0.0
H2732 H 0.84039 0.20394 0.16575 0.0
H2733 H 0.83428 0.20704 0.10463 0.0
H2734 H 0.82157 0.20235 0.23242 0.0
H2735 H 0.80351 0.17474 0.26734 0.0
C2736 C 0.02692 0.42873 0.36677 0.0
C2737 C 0.01021 0.4217 0.32499 0.0
C2738 C 0.97321 0.3997 0.38509 0.0
C2739 C 0.98972 0.41038 0.42689 0.0
N2740 N 0.03373 0.43898 0.45359 0.0
N2741 N 0.96557 0.40282 0.29871 0.0
C2742 C 0.01696 0.42582 0.41647 0.0
C2743 C 0.98287 0.40768 0.33548 0.0
N2744 N 0.0526 0.43721 0.3594 0.0
N2745 N 0.94812 0.38068 0.39228 0.0
H2746 H 0.97086 0.40792 0.26248 0.0
H2747 H 0.94591 0.39579 0.30499 0.0
H2748 H 0.94058 0.37339 0.42686 0.0
H2749 H 0.93581 0.36994 0.36378 0.0
H2750 H 0.06547 0.44028 0.38779 0.0
H2751 H 0.06042 0.43811 0.32481 0.0
H2752 H 0.05298 0.45311 0.44769 0.0
H2753 H 0.02807 0.43757 0.48992 0.0
C2754 C 0.5628 0.58696 0.41971 0.0
C2755 C 0.57694 0.57382 0.42999 0.0
C2756 C 0.57769 0.56776 0.3386 0.0
C2757 C 0.56544 0.58273 0.32811 0.0
N2758 N 0.5524 0.61173 0.36219 0.0
N2759 N 0.60325 0.55773 0.39473 0.0
C2760 C 0.55977 0.59371 0.36984 0.0
C2761 C 0.58583 0.56598 0.38799 0.0
N2762 N 0.5509 0.59206 0.45728 0.0
N2763 N 0.58056 0.55387 0.30189 0.0
H2764 H 0.61063 0.55724 0.42902 0.0
H2765 H 0.61263 0.55429 0.36593 0.0
H2766 H 0.57517 0.55429 0.26593 0.0
H2767 H 0.58603 0.54002 0.30805 0.0
H2768 H 0.53773 0.59849 0.4519 0.0
H2769 H 0.5522 0.5876 0.49353 0.0
H2770 H 0.55064 0.62258 0.3903 0.0
H2771 H 0.55097 0.61801 0.32734 0.0
C2772 C 0.43594 0.99621 0.34968 0.0
C2773 C 0.41305 0.99113 0.32303 0.0
C2774 C 0.4002 0.00665 0.39889 0.0
C2775 C 0.42332 0.01231 0.42486 0.0
N2776 N 0.46575 0.0169 0.41783 0.0
N2777 N 0.37659 0.99805 0.32176 0.0
C2778 C 0.44178 0.00827 0.39801 0.0
C2779 C 0.39622 -0.00171 0.34766 0.0
N2780 N 0.45287 0.99 0.32844 0.0
N2781 N 0.38159 0.00917 0.42324 0.0
H2782 H 0.37224 0.99135 0.28602 0.0
H2783 H 0.36626 0.00677 0.33402 0.0
H2784 H 0.3842 0.01659 0.45868 0.0
H2785 H 0.36304 0.00236 0.40944 0.0
H2786 H 0.46704 0.98842 0.34777 0.0
H2787 H 0.45252 0.98584 0.29139 0.0
H2788 H 0.48135 0.01787 0.39877 0.0
H2789 H 0.47093 0.02529 0.45228 0.0
C2790 C 0.99484 0.59006 0.9052 0.0
C2791 C 0.98721 0.56601 0.92928 0.0
C2792 C -7e-05 0.55228 0.85186 0.0
C2793 C 0.00956 0.57712 0.8294 0.0
N2794 N 0.02119 0.62142 0.84253 0.0
N2795 N 0.99086 0.52754 0.92722 0.0
C2796 C 0.00835 0.59642 0.85841 0.0
C2797 C 0.99205 0.54806 0.90286 0.0
N2798 N 0.98813 0.60671 0.92547 0.0
N2799 N -0.0027 0.53206 0.82416 0.0
H2800 H 0.9872 0.52468 0.96464 0.0
H2801 H 0.9966 0.51522 0.9117 0.0
H2802 H 0.0024 0.53401 0.78734 0.0
H2803 H 0.98778 0.51297 0.83653 0.0
H2804 H 0.99047 0.62281 0.90656 0.0
H2805 H 0.97791 0.60306 0.95826 0.0
H2806 H 0.02437 0.63691 0.86488 0.0
H2807 H 0.03092 0.62684 0.80904 0.0
C2808 C 0.39165 0.40197 0.8574 0.0
C2809 C 0.40981 0.42454 0.83091 0.0
C2810 C 0.43843 0.43704 0.90512 0.0
C2811 C 0.42139 0.41335 0.93003 0.0
N2812 N 0.38281 0.37158 0.92467 0.0
N2813 N 0.45314 0.46123 0.82901 0.0
C2814 C 0.39821 0.39547 0.90467 0.0
C2815 C 0.43383 0.44136 0.85488 0.0
N2816 N 0.36748 0.38702 0.83828 0.0
N2817 N 0.45865 0.45643 0.93021 0.0
H2818 H 0.45091 0.46554 0.79317 0.0
H2819 H 0.47213 0.47192 0.84139 0.0
H2820 H 0.46263 0.45486 0.96664 0.0
H2821 H 0.4699 0.47512 0.91663 0.0
H2822 H 0.35218 0.37242 0.85792 0.0
H2823 H 0.36215 0.39078 0.80426 0.0
H2824 H 0.3672 0.35659 0.9064 0.0
H2825 H 0.38696 0.36599 0.95803 0.0
C2826 C 0.55766 0.9963 0.90733 0.0
C2827 C 0.58277 0.00802 0.92941 0.0
C2828 C 0.59884 -0.00076 0.84998 0.0
C2829 C 0.57392 0.98885 0.82732 0.0
N2830 N 0.53065 0.98203 0.83478 0.0
N2831 N 0.62781 0.02203 0.91902 0.0
C2832 C 0.55371 0.98851 0.85646 0.0
C2833 C 0.60345 0.00977 0.89974 0.0
N2834 N 0.53686 0.99165 0.93557 0.0
N2835 N 0.61807 -0.00162 0.82424 0.0
H2836 H 0.63154 0.02904 0.95483 0.0
H2837 H 0.64441 0.02643 0.89927 0.0
H2838 H 0.6152 0.99038 0.78925 0.0
H2839 H 0.63642 0.00423 0.83791 0.0
H2840 H 0.51766 0.97995 0.9249 0.0
H2841 H 0.53872 -0.00173 0.97121 0.0
H2842 H 0.51663 0.98535 0.85045 0.0
H2843 H 0.52604 0.97474 0.79953 0.0
C2844 C 0.65929 0.77066 0.73981 0.0
C2845 C 0.64989 0.74585 0.76227 0.0
C2846 C 0.65969 0.73153 0.68132 0.0
C2847 C 0.67024 0.75696 0.65983 0.0
N2848 N 0.66763 0.79583 0.66529 0.0
N2849 N 0.64059 0.70214 0.75181 0.0
C2850 C 0.66676 0.77516 0.68854 0.0
C2851 C 0.64999 0.72621 0.732 0.0
N2852 N 0.66195 0.79074 0.76803 0.0
N2853 N 0.65716 0.71179 0.65229 0.0
H2854 H 0.63204 0.69732 0.78639 0.0
H2855 H 0.64189 0.6871 0.7354 0.0
H2856 H 0.66319 0.71446 0.61614 0.0
H2857 H 0.64707 0.69235 0.66199 0.0
H2858 H 0.67161 0.80993 0.75629 0.0
H2859 H 0.65646 0.78851 0.80467 0.0
H2860 H 0.66247 0.80832 0.68196 0.0
H2861 H 0.67023 0.79858 0.6276 0.0
C2862 C 0.26131 0.89894 0.72109 0.0
C2863 C 0.25143 0.90572 0.76298 0.0
C2864 C 0.23484 0.92643 0.70389 0.0
C2865 C 0.24179 0.9168 0.66185 0.0
N2866 N 0.25872 0.88965 0.63389 0.0
N2867 N 0.22443 0.92285 0.79066 0.0
C2868 C 0.25437 0.90206 0.67156 0.0
C2869 C 0.23718 0.91877 0.75323 0.0
N2870 N 0.27861 0.89057 0.72825 0.0
N2871 N 0.22674 0.94396 0.69718 0.0
H2872 H 0.22539 0.91806 0.82681 0.0
H2873 H 0.21093 0.92884 0.78525 0.0
H2874 H 0.22539 0.95071 0.66279 0.0
H2875 H 0.22432 0.95412 0.7258 0.0
H2876 H 0.28891 0.88813 0.69989 0.0
H2877 H 0.28511 0.88913 0.76287 0.0
H2878 H 0.26448 0.87596 0.63912 0.0
H2879 H 0.25441 0.89109 0.59765 0.0
C2880 C 0.0951 0.35489 0.72368 0.0
C2881 C 0.08628 0.33939 0.76709 0.0
C2882 C 0.06482 0.30073 0.7105 0.0
C2883 C 0.07658 0.31601 0.6675 0.0
N2884 N 0.10716 0.35884 0.63774 0.0
N2885 N 0.06509 0.29595 0.79922 0.0
C2886 C 0.09272 0.3434 0.67555 0.0
C2887 C 0.07165 0.31189 0.75955 0.0
N2888 N 0.10497 0.381 0.72783 0.0
N2889 N 0.046 0.27546 0.70472 0.0
H2890 H 0.06931 0.30283 0.83496 0.0
H2891 H 0.05749 0.27602 0.79644 0.0
H2892 H 0.03986 0.26685 0.67044 0.0
H2893 H 0.03455 0.26391 0.73344 0.0
H2894 H 0.10914 0.39321 0.6978 0.0
H2895 H 0.10621 0.39007 0.76119 0.0
H2896 H 0.12188 0.37796 0.64247 0.0
H2897 H 0.10627 0.35208 0.60239 0.0
C2898 C 0.65009 0.90113 0.16995 0.0
C2899 C 0.6774 0.91807 0.16254 0.0
C2900 C 0.6812 0.92041 0.25438 0.0
C2901 C 0.65356 0.90585 0.26168 0.0
N2902 N 0.61226 0.88897 0.22127 0.0
N2903 N 0.71728 0.94898 0.20152 0.0
C2904 C 0.63829 0.89818 0.21788 0.0
C2905 C 0.69235 0.92914 0.20595 0.0
N2906 N 0.63513 0.88647 0.13189 0.0
N2907 N 0.6974 0.92493 0.293 0.0
H2908 H 0.72583 0.95677 0.1678 0.0
H2909 H 0.72832 0.9597 0.23136 0.0
H2910 H 0.69099 0.9185 0.32831 0.0
H2911 H 0.71731 0.9326 0.28882 0.0
H2912 H 0.61596 0.87176 0.13633 0.0
H2913 H 0.64249 0.88684 0.09718 0.0
H2914 H 0.60048 0.88536 0.19073 0.0
H2915 H 0.60304 0.8881 0.25426 0.0
C2916 C 0.11002 0.77302 0.23729 0.0
C2917 C 0.09124 0.75038 0.26302 0.0
C2918 C 0.0612 0.7432 0.1923 0.0
C2919 C 0.08098 0.76389 0.16414 0.0
N2920 N 0.12628 0.79606 0.16031 0.0
N2921 N 0.0493 0.7119 0.25891 0.0
C2922 C 0.10589 0.77803 0.18703 0.0
C2923 C 0.06691 0.73505 0.23874 0.0
N2924 N 0.1315 0.79096 0.26182 0.0
N2925 N 0.03629 0.73206 0.17628 0.0
H2926 H 0.05262 0.7052 0.29179 0.0
H2927 H 0.03258 0.69839 0.24079 0.0
H2928 H 0.03128 0.73707 0.14314 0.0
H2929 H 0.02063 0.71997 0.19837 0.0
H2930 H 0.14441 0.8092 0.24775 0.0
H2931 H 0.13489 0.78882 0.29837 0.0
H2932 H 0.14541 0.80463 0.17211 0.0
H2933 H 0.12441 0.80071 0.12451 0.0
C2934 C 0.21322 0.31968 0.18736 0.0
C2935 C 0.23189 0.31666 0.15934 0.0
C2936 C 0.26322 0.33876 0.22874 0.0
C2937 C 0.2445 0.3418 0.2567 0.0
N2938 N 0.20277 0.33907 0.25588 0.0
N2939 N 0.27585 0.32587 0.15263 0.0
C2940 C 0.21993 0.33343 0.23378 0.0
C2941 C 0.25724 0.32704 0.18001 0.0
N2942 N 0.18846 0.30892 0.16998 0.0
N2943 N 0.28717 0.34764 0.24861 0.0
H2944 H 0.27185 0.31613 0.11924 0.0
H2945 H 0.29544 0.33537 0.16132 0.0
H2946 H 0.29277 0.35813 0.28121 0.0
H2947 H 0.30138 0.34447 0.23368 0.0
H2948 H 0.173 0.3077 0.18987 0.0
H2949 H 0.18279 0.29989 0.13605 0.0
H2950 H 0.18695 0.33824 0.23804 0.0
H2951 H 0.20486 0.34588 0.29158 0.0
C2952 C 0.32592 0.1029 0.07016 0.0
C2953 C 0.32496 0.08216 0.09872 0.0
C2954 C 0.34045 0.06984 1.02244 0.0
C2955 C 0.34363 0.09186 0.9955 0.0
N2956 N 0.34062 0.13067 0.99793 0.0
N2957 N 0.33545 0.04814 0.10084 0.0
C2958 C 0.33679 0.10868 1.02091 0.0
C2959 C 0.33348 0.06641 0.07432 0.0
N2960 N 0.316 0.11723 0.0896 0.0
N2961 N 0.34347 0.05152 0.99826 0.0
H2962 H 0.32914 0.04374 0.13699 0.0
H2963 H 0.34514 0.03883 0.08799 0.0
H2964 H 0.3495 0.05363 0.96191 0.0
H2965 H 0.33785 0.03336 1.01299 0.0
H2966 H 0.31246 0.12991 0.06937 0.0
H2967 H 0.30964 0.11543 0.12552 0.0
H2968 H 0.3406 0.14604 1.01598 0.0
H2969 H 0.34489 0.13418 0.96084 0.0
C2970 C 0.88978 0.226 1.02033 0.0
C2971 C 0.90721 0.24869 0.99298 0.0
C2972 C 0.93527 0.26333 0.06886 0.0
C2973 C 0.91894 0.23976 0.09458 0.0
N2974 N 0.88176 0.19697 0.08907 0.0
N2975 N 0.9494 0.28692 0.99169 0.0
C2976 C 0.89656 0.22078 0.06848 0.0
C2977 C 0.93072 0.26664 1.01752 0.0
N2978 N 0.86641 0.20878 1.00027 0.0
N2979 N 0.95514 0.28314 0.09373 0.0
H2980 H 0.94665 0.29134 0.95612 0.0
H2981 H 0.96825 0.29805 1.00458 0.0
H2982 H 0.95975 0.28125 0.12971 0.0
H2983 H 0.96561 0.30194 0.08009 0.0
H2984 H 0.85083 0.19518 1.02093 0.0
H2985 H 0.86199 0.20873 0.96342 0.0
H2986 H 0.86688 0.18126 0.071 0.0
H2987 H 0.88578 0.19205 0.12298 0.0
C2988 C 0.73677 0.64877 1.03311 0.0
C2989 C 0.74657 0.66497 0.99047 0.0
C2990 C 0.76406 0.70252 1.0497 0.0
C2991 C 0.75792 0.68637 0.0922 0.0
N2992 N 0.74291 0.64249 0.11907 0.0
N2993 N 0.77662 0.70871 0.96395 0.0
C2994 C 0.74543 0.65904 0.08228 0.0
C2995 C 0.76208 0.69224 1.00052 0.0
N2996 N 0.71822 0.62341 1.02746 0.0
N2997 N 0.77098 0.7279 1.05557 0.0
H2998 H 0.77803 0.70247 0.92909 0.0
H2999 H 0.78998 0.72819 0.97017 0.0
H3000 H 0.77111 0.73589 0.08959 0.0
H3001 H 0.77336 0.74001 1.02614 0.0
H3002 H 0.70857 0.6113 1.05697 0.0
H3003 H 0.71014 0.61539 0.99364 0.0
H3004 H 0.73665 0.62297 0.11304 0.0
H3005 H 0.7499 0.64866 0.15429 0.0
C3006 C 0.35884 0.26558 0.54233 0.0
C3007 C 0.34172 0.25506 0.50129 0.0
C3008 C 0.3052 0.23858 0.56214 0.0
C3009 C 0.32221 0.24546 0.60325 0.0
N3010 N 0.36668 0.26311 0.62905 0.0
N3011 N 0.29748 0.22576 0.47667 0.0
C3012 C 0.34943 0.25845 0.59227 0.0
C3013 C 0.3146 0.24015 0.51256 0.0
N3014 N 0.38427 0.28337 0.5341 0.0
N3015 N 0.27983 0.23125 0.57001 0.0
H3016 H 0.30312 0.22447 0.44117 0.0
H3017 H 0.27803 0.2126 0.48372 0.0
H3018 H 0.27239 0.23075 0.60486 0.0
H3019 H 0.26703 0.22859 0.54169 0.0
H3020 H 0.39717 0.29391 0.56201 0.0
H3021 H 0.39177 0.28982 0.49916 0.0
H3022 H 0.38615 0.26922 0.62276 0.0
H3023 H 0.36128 0.25884 0.66552 0.0
C3024 C 0.74058 0.05934 0.56762 0.0
C3025 C 0.75701 0.0807 0.59848 0.0
C3026 C 0.76457 0.10944 0.52561 0.0
C3027 C 0.74602 0.08855 0.49605 0.0
N3028 N 0.71557 0.04294 0.49212 0.0
N3029 N 0.78288 0.12702 0.60542 0.0
C3030 C 0.73401 0.06333 0.51807 0.0
C3031 C 0.76843 0.10589 0.57677 0.0
N3032 N 0.73199 0.03493 0.58498 0.0
N3033 N 0.7803 0.13275 0.5039 0.0
H3034 H 0.78743 0.12558 0.64143 0.0
H3035 H 0.78874 0.14588 0.59466 0.0
H3036 H 0.77809 0.13671 0.46782 0.0
H3037 H 0.79697 0.14741 0.52022 0.0
H3038 H 0.7233 0.01843 0.56317 0.0
H3039 H 0.73551 0.03139 0.62074 0.0
H3040 H 0.7039 0.02474 0.50738 0.0
H3041 H 0.71054 0.04481 0.45646 0.0
C3042 C 0.92957 0.69523 0.54597 0.0
C3043 C 0.9186 0.67838 0.58766 0.0
C3044 C 0.90163 0.64185 0.52545 0.0
C3045 C 0.90899 0.65879 0.48371 0.0
N3046 N 0.92642 0.70334 0.45935 0.0
N3047 N 0.88855 0.63419 0.61118 0.0
C3048 C 0.92206 0.68594 0.49563 0.0
C3049 C 0.9032 0.65131 0.57553 0.0
N3050 N 0.9484 0.72029 0.55376 0.0
N3051 N 0.89402 0.6164 0.51793 0.0
H3052 H 0.88748 0.63976 0.64682 0.0
H3053 H 0.87498 0.61491 0.60385 0.0
H3054 H 0.89405 0.60894 0.4834 0.0
H3055 H 0.89091 0.60357 0.54644 0.0
H3056 H 0.95898 0.73288 0.52542 0.0
H3057 H 0.95569 0.72754 0.58844 0.0
H3058 H 0.93298 0.72285 0.46622 0.0
H3059 H 0.92092 0.6979 0.42319 0.0
C3060 C 0.97762 0.47413 0.15192 0.0
C3061 C -0.00023 0.48606 0.18214 0.0
C3062 C 0.01482 0.52649 0.1362 0.0
C3063 C 0.9949 0.51292 0.10092 0.0
N3064 N 0.95879 0.4724 0.07378 0.0
N3065 N 0.03713 0.52446 0.20982 0.0
C3066 C 0.97717 0.48619 0.10806 0.0
C3067 C 0.01754 0.51278 0.17655 0.0
N3068 N 0.95623 0.45148 0.16475 0.0
N3069 N 0.03033 0.55254 0.13076 0.0
H3070 H 0.03749 0.51468 0.24124 0.0
H3071 H 0.05283 0.54312 0.2067 0.0
H3072 H 0.04463 0.56475 0.1551 0.0
H3073 H 0.04463 0.56475 0.1551 0.0
H3074 H 0.9539 0.44281 0.19896 0.0
H3075 H 0.9539 0.44281 0.19896 0.0
H3076 H 0.94515 0.4528 0.07818 0.0
H3077 H 0.95853 0.48043 1.04017 0.0
C3078 C 0.51647 0.49983 0.14361 0.0
C3079 C 0.50489 0.51229 0.16864 0.0
C3080 C 0.46779 0.49211 0.11244 0.0
C3081 C 0.47939 0.47964 0.08767 0.0
N3082 N 0.51852 0.47972 0.06789 0.0
N3083 N 0.46581 0.51262 0.18756 0.0
C3084 C 0.50501 0.48612 0.09973 0.0
C3085 C 0.47933 0.50603 0.15613 0.0
N3086 N 0.53721 0.49944 0.16366 0.0
N3087 N 0.44691 0.49219 0.09236 0.0
H3088 H 0.47359 0.52106 0.22135 0.0
H3089 H 0.44634 0.50697 0.18283 0.0
H3090 H 0.4402 0.48479 1.05743 0.0
H3091 H 0.43882 0.50273 0.10693 0.0
H3092 H 0.54526 0.48897 0.14867 0.0
H3093 H 0.5438 0.5065 0.19883 0.0
H3094 H 0.53803 0.48548 0.07243 0.0
H3095 H 0.51068 0.47137 1.034 0.0
C3096 C 0.50147 0.01637 0.07744 0.0
C3097 C 0.51191 -0.0001 0.08408 0.0
C3098 C 0.48941 0.98547 0.16256 0.0
C3099 C 0.4776 0.00066 0.15545 0.0
N3100 N 0.47358 0.03231 0.10625 0.0
N3101 N 0.50658 0.96118 0.1227 0.0
C3102 C 0.48384 0.01655 0.11271 0.0
C3103 C 0.50319 0.98217 0.12362 0.0
N3104 N 0.50918 0.03234 1.03764 0.0
N3105 N 0.48723 0.97397 0.20681 0.0
H3106 H 0.51334 0.95614 0.09178 0.0
H3107 H 0.49906 0.94678 0.14942 0.0
H3108 H 0.47744 0.97645 0.23615 0.0
H3109 H 0.4974 0.9645 0.21557 0.0
H3110 H 0.50515 0.04722 1.03218 0.0
H3111 H 0.52001 0.03044 1.00959 0.0
H3112 H 0.47346 0.04067 0.07294 0.0
H3113 H 0.46618 0.03816 0.13489 0.0
C3114 C 0.49396 0.98789 0.67656 0.0
C3115 C 0.51757 0.00172 0.65103 0.0
C3116 C 0.4952 0.00909 0.5835 0.0
C3117 C 0.47189 0.99649 0.60949 0.0
N3118 N 0.44728 0.96414 0.67079 0.0
N3119 N 0.54116 0.0358 0.59188 0.0
C3120 C 0.47064 0.98302 0.65339 0.0
C3121 C 0.51841 0.01535 0.60777 0.0
N3122 N 0.49416 0.98189 0.72447 0.0
N3123 N 0.495 0.013 0.53458 0.0
H3124 H 0.55806 0.04373 0.61278 0.0
H3125 H 0.54208 0.04706 0.56205 0.0
H3126 H 0.47764 0.00559 0.51537 0.0
H3127 H 0.51153 0.01936 0.5131 0.0
H3128 H 0.47773 0.97376 0.74669 0.0
H3129 H 0.51159 0.98898 0.74307 0.0
H3130 H 0.44546 0.9525 0.70066 0.0
H3131 H 0.43015 0.9577 0.65111 0.0
C3132 C 0.97909 0.48875 0.58225 0.0
C3133 C 0.99702 0.4799 0.57949 0.0
C3134 C 0.01833 0.50399 0.65366 0.0
C3135 C 0.0008 0.51347 0.65723 0.0
N3136 N 0.96473 0.51579 0.62086 0.0
N3137 N 0.04047 0.4899 0.59829 0.0
C3138 C 0.98127 0.50622 0.62026 0.0
C3139 C 0.01877 0.49081 0.61082 0.0
N3140 N 0.9594 0.47961 0.54893 0.0
N3141 N 0.03482 0.5078 0.69138 0.0
H3142 H 0.04251 0.48337 0.56401 0.0
H3143 H 0.05759 0.49914 0.61844 0.0
H3144 H 0.03425 0.51667 0.72387 0.0
H3145 H 0.04671 0.49962 0.69234 0.0
H3146 H 0.94339 0.48215 0.55162 0.0
H3147 H 0.95913 0.46884 0.51852 0.0
H3148 H 0.95425 0.51579 0.59041 0.0
H3149 H 0.96023 0.52252 0.65233 0.0
C3150 C 0.50441 0.52765 0.64187 0.0
C3151 C 0.51108 0.5181 0.5993 0.0
C3152 C 0.48574 0.47405 0.63245 0.0
C3153 C 0.47769 0.48335 0.67298 0.0
N3154 N 0.48281 0.51958 0.72007 0.0
N3155 N 0.50489 0.48124 0.55232 0.0
C3156 C 0.4885 0.51031 0.67895 0.0
C3157 C 0.50033 0.49102 0.59401 0.0
N3158 N 0.51131 0.55297 0.6475 0.0
N3159 N 0.48092 0.44926 0.63011 0.0
H3160 H 0.51487 0.49293 0.52241 0.0
H3161 H 0.49747 0.46144 0.547 0.0
H3162 H 0.4732 0.43603 0.65891 0.0
H3163 H 0.4732 0.43603 0.65891 0.0
H3164 H 0.51984 0.56714 0.62052 0.0
H3165 H 0.51984 0.56714 0.62052 0.0
H3166 H 0.48999 0.53928 0.72622 0.0
H3167 H 0.47179 0.50743 0.7487 0.0
C3168 C 0.63828 0.81443 0.42451 0.0
C3169 C 0.65701 0.84065 0.41567 0.0
C3170 C 0.68055 0.84122 0.48908 0.0
C3171 C 0.66244 0.81484 0.49777 0.0
N3172 N 0.62037 0.77806 0.48084 0.0
N3173 N 0.70126 0.87431 0.42737 0.0
C3174 C 0.64014 0.80183 0.46737 0.0
C3175 C 0.67975 0.8528 0.44445 0.0
N3176 N 0.61898 0.80183 0.391 0.0
N3177 N 0.69871 0.85504 0.52379 0.0
H3178 H 0.70228 0.88104 0.39173 0.0
H3179 H 0.71901 0.8829 0.44548 0.0
H3180 H 0.69888 0.84682 0.55744 0.0
H3181 H 0.71138 0.87494 0.52123 0.0
H3182 H 0.60481 0.78239 0.3929 0.0
H3183 H 0.61865 0.8108 0.35844 0.0
H3184 H 0.604 0.7667 0.45984 0.0
H3185 H 0.61889 0.77097 0.51624 0.0
C3186 C 0.15155 0.8342 0.51564 0.0
C3187 C 0.17847 0.84697 0.50664 0.0
C3188 C 0.17067 0.82518 0.42705 0.0
C3189 C 0.14374 0.81126 0.43629 0.0
N3190 N 0.10823 0.80217 0.49185 0.0
N3191 N 0.213 0.84531 0.46368 0.0
C3192 C 0.13408 0.81546 0.48154 0.0
C3193 C 0.18793 0.83997 0.46505 0.0
N3194 N 0.14266 0.84109 0.55581 0.0
N3195 N 0.17987 0.82394 0.38191 0.0
H3196 H 0.22494 0.85186 0.49433 0.0
H3197 H 0.2205 0.83918 0.43553 0.0
H3198 H 0.16761 0.81322 0.35331 0.0
H3199 H 0.19919 0.83561 0.37166 0.0
H3200 H 0.12325 0.83525 0.56183 0.0
H3201 H 0.15515 0.85348 0.58272 0.0
H3202 H 0.1008 0.80001 0.52716 0.0
H3203 H 0.09407 0.79447 0.46497 0.0
C3204 C 0.16769 0.30584 0.44584 0.0
C3205 C 0.18056 0.33122 0.42585 0.0
C3206 C 0.16008 0.34499 0.48812 0.0
C3207 C 0.14682 0.31961 0.5076 0.0
N3208 N 0.14484 0.27868 0.51556 0.0
N3209 N 0.18081 0.37133 0.41699 0.0
C3210 C 0.15275 0.30087 0.48946 0.0
C3211 C 0.17419 0.34967 0.44383 0.0
N3212 N 0.16788 0.28606 0.42099 0.0
N3213 N 0.16086 0.36503 0.51375 0.0
H3214 H 0.18932 0.37384 0.38263 0.0
H3215 H 0.17497 0.38466 0.42581 0.0
H3216 H 0.15363 0.36271 0.54933 0.0
H3217 H 0.17202 0.38431 0.50299 0.0
H3218 H 0.17575 0.28851 0.38597 0.0
H3219 H 0.15709 0.26675 0.43163 0.0
H3220 H 0.1501 0.26491 0.50697 0.0
H3221 H 0.13566 0.27592 0.5494 0.0
C3222 C 0.15354 0.32398 1.02743 0.0
C3223 C 0.15782 0.30495 1.0067 0.0
C3224 C 0.13543 0.30498 0.93202 0.0
C3225 C 0.13276 0.3255 0.95087 0.0
N3226 N 0.12161 0.3369 1.02863 0.0
N3227 N 0.13278 0.26585 0.96059 0.0
C3228 C 0.13695 0.33059 1.00233 0.0
C3229 C 0.14338 0.29186 0.96443 0.0
N3230 N 0.16328 0.33397 0.07241 0.0
N3231 N 0.12942 0.2971 0.88464 0.0
H3232 H 0.13372 0.25509 0.98967 0.0
H3233 H 0.11915 0.25529 0.93366 0.0
H3234 H 0.12292 0.30597 0.86002 0.0
H3235 H 0.13243 0.28263 0.86998 0.0
H3236 H 0.16016 0.34779 0.08947 0.0
H3237 H 0.17462 0.32846 0.09228 0.0
H3238 H 0.10507 0.33515 1.01304 0.0
H3239 H 0.12248 0.3389 0.06661 0.0
C3240 C 0.69876 0.8524 0.96132 0.0
C3241 C 0.68571 0.85367 1.00389 0.0
C3242 C 0.66043 0.80715 0.99895 0.0
C3243 C 0.66517 0.80792 0.94724 0.0
N3244 N 0.6938 0.83339 0.88147 0.0
N3245 N 0.65712 0.82984 0.06991 0.0
C3246 C 0.68563 0.83135 0.92865 0.0
C3247 C 0.66671 0.8303 1.02431 0.0
N3248 N 0.72483 0.86772 0.95753 0.0
N3249 N 0.65613 0.78625 1.0255 0.0
H3250 H 0.66323 0.84654 0.0909 0.0
H3251 H 0.6432 0.81279 0.08655 0.0
H3252 H 0.65459 0.78536 0.06358 0.0
H3253 H 0.65945 0.77243 1.00979 0.0
H3254 H 0.73544 0.86529 0.9297 0.0
H3255 H 0.73567 0.87881 0.9872 0.0
H3256 H 0.70801 0.851 0.86687 0.0
H3257 H 0.68558 0.81793 0.85707 0.0
C3258 C 0.15392 0.84712 0.98741 0.0
C3259 C 0.14768 0.82225 1.00472 0.0
C3260 C 0.17394 0.81909 0.93921 0.0
C3261 C 0.18 0.84383 0.92156 0.0
N3262 N 0.16723 0.87621 0.91804 0.0
N3263 N 0.16085 0.79026 1.00899 0.0
C3264 C 0.16759 0.85649 0.94263 0.0
C3265 C 0.16031 0.80977 0.98403 0.0
N3266 N 0.14729 0.86197 1.01499 0.0
N3267 N 0.18063 0.80423 0.91182 0.0
H3268 H 0.15355 0.78528 1.04454 0.0
H3269 H 0.17156 0.78175 0.99751 0.0
H3270 H 0.18882 0.81026 0.87717 0.0
H3271 H 0.17522 0.78519 0.92059 0.0
H3272 H 0.15297 0.88113 1.00664 0.0
H3273 H 0.13859 0.8557 1.04919 0.0
H3274 H 0.15677 0.88491 0.92994 0.0
H3275 H 0.17423 0.88112 0.88231 0.0
C3276 C 0.31682 0.15556 0.74845 0.0
C3277 C 0.33299 0.18247 0.75546 0.0
C3278 C 0.34689 0.17459 0.83461 0.0
C3279 C 0.33174 0.1476 0.82744 0.0
N3280 N 0.29958 0.11193 0.77924 0.0
N3281 N 0.37085 0.21629 0.79547 0.0
C3282 C 0.31615 0.13789 0.78441 0.0
C3283 C 0.35029 0.19165 0.79565 0.0
N3284 N 0.30135 0.14724 0.7079 0.0
N3285 N 0.35788 0.1839 0.87923 0.0
H3286 H 0.37579 0.22818 0.76473 0.0
H3287 H 0.38499 0.22343 0.82267 0.0
H3288 H 0.35514 0.1716 0.90861 0.0
H3289 H 0.36709 0.20351 0.88817 0.0
H3290 H 0.28739 0.12814 0.70091 0.0
H3291 H 0.30283 0.16003 0.68033 0.0
H3292 H 0.29055 0.10297 0.74667 0.0
H3293 H 0.2935 0.09923 0.80873 0.0
C3294 C 0.86051 0.17092 0.79612 0.0
C3295 C 0.8503 0.18198 0.8291 0.0
C3296 C 0.81021 0.16333 0.78119 0.0
C3297 C 0.81978 0.15131 0.74984 0.0
N3298 N 0.8569 0.15177 0.7159 0.0
N3299 N 0.81251 0.18058 0.86185 0.0
C3300 C 0.84596 0.15774 0.75382 0.0
C3301 C 0.82419 0.17563 0.82411 0.0
N3302 N 0.88292 0.17113 0.80717 0.0
N3303 N 0.78857 0.16427 0.76853 0.0
H3304 H 0.82241 0.18826 0.89465 0.0
H3305 H 0.79271 0.17408 0.86208 0.0
H3306 H 0.77975 0.15776 0.73446 0.0
H3307 H 0.78184 0.17466 0.78843 0.0
H3308 H 0.8904 0.16186 0.78596 0.0
H3309 H 0.89189 0.17733 0.84116 0.0
H3310 H 0.87656 0.15776 0.71389 0.0
H3311 H 0.84635 0.14325 0.6841 0.0
C3312 C 0.84087 0.65614 0.81561 0.0
C3313 C 0.85356 0.66988 0.77172 0.0
C3314 C 0.82773 0.69089 0.77311 0.0
C3315 C 0.81405 0.676 0.81465 0.0
N3316 N 0.81561 0.65414 0.88684 0.0
N3317 N 0.85081 0.69176 0.70002 0.0
C3318 C 0.8232 0.66172 0.83975 0.0
C3319 C 0.84484 0.68502 0.74796 0.0
N3320 N 0.8427 0.63519 0.83023 0.0
N3321 N 0.82515 0.71143 0.75904 0.0
H3322 H 0.86124 0.68551 0.67893 0.0
H3323 H 0.84256 0.70064 0.67988 0.0
H3324 H 0.81458 0.71769 0.77982 0.0
H3325 H 0.83614 0.72401 0.73099 0.0
H3326 H 0.83234 0.62348 0.8597 0.0
H3327 H 0.85091 0.62687 0.80824 0.0
H3328 H 0.82316 0.64505 0.90828 0.0
H3329 H 0.80433 0.66003 0.90617 0.0
C3330 C 0.8525 0.66799 0.24816 0.0
C3331 C 0.85807 0.67358 0.29932 0.0
C3332 C 0.84769 0.70732 0.28662 0.0
C3333 C 0.83129 0.69307 0.24673 0.0
N3334 N 0.82487 0.66441 0.18008 0.0
N3335 N 0.86654 0.70475 0.36322 0.0
C3336 C 0.83501 0.67399 0.22513 0.0
C3337 C 0.85694 0.69495 0.31799 0.0
N3338 N 0.86863 0.66393 0.21941 0.0
N3339 N 0.85894 0.73345 0.28785 0.0
H3340 H 0.8731 0.69584 0.38759 0.0
H3341 H 0.86714 0.72135 0.37684 0.0
H3342 H 0.85785 0.74326 0.25753 0.0
H3343 H 0.87268 0.74501 0.31387 0.0
H3344 H 0.88631 0.66782 0.23297 0.0
H3345 H 0.86704 0.66223 0.1814 0.0
H3346 H 0.82797 0.65087 0.16189 0.0
H3347 H 0.81378 0.67048 0.16067 0.0
C3348 C 0.3164 0.17329 0.27845 0.0
C3349 C 0.3287 0.18579 0.32286 0.0
C3350 C 0.34991 0.16002 0.32577 0.0
C3351 C 0.33788 0.14796 0.28063 0.0
N3352 N 0.32084 0.15323 0.20528 0.0
N3353 N 0.34775 0.18259 0.39786 0.0
C3354 C 0.32426 0.15745 0.2543 0.0
C3355 C 0.34281 0.17676 0.34937 0.0
N3356 N 0.29581 0.17492 0.2612 0.0
N3357 N 0.36982 0.15739 0.34379 0.0
H3358 H 0.3409 0.19321 0.41665 0.0
H3359 H 0.35563 0.17417 0.4203 0.0
H3360 H 0.37837 0.14877 0.3236 0.0
H3361 H 0.38022 0.16704 0.37493 0.0
H3362 H 0.28534 0.16472 0.23054 0.0
H3363 H 0.287 0.18324 0.28156 0.0
H3364 H 0.31363 0.16248 0.18345 0.0
H3365 H 0.32921 0.14408 0.18631 0.0
C3366 C 0.84376 0.18588 0.3259 0.0
C3367 C 0.85573 0.18562 0.28058 0.0
C3368 C 0.82688 0.13892 0.27595 0.0
C3369 C 0.81393 0.13957 0.31914 0.0
N3370 N 0.81908 0.16074 0.39595 0.0
N3371 N 0.85017 0.16296 0.20486 0.0
C3372 C 0.82509 0.16221 0.34758 0.0
C3373 C 0.84517 0.16237 0.25352 0.0
N3374 N 0.84757 0.20868 0.34515 0.0
N3375 N 0.82295 0.11587 0.2579 0.0
H3376 H 0.86075 0.18035 0.1863 0.0
H3377 H 0.84065 0.14668 0.18223 0.0
H3378 H 0.81236 0.09856 0.27708 0.0
H3379 H 0.83333 0.11469 0.22827 0.0
H3380 H 0.83825 0.20958 0.3766 0.0
H3381 H 0.85646 0.22593 0.32567 0.0
H3382 H 0.82839 0.17641 0.4199 0.0
H3383 H 0.80786 0.14287 0.41277 0.0
loop_
_geom_bond_atom_site_label_1
_geom_bond_atom_site_label_2
_geom_bond_distance
_geom_bond_site_symmetry_2
_ccdc_geom_bond_type
La0 C2 2.928 . S
La0 O20 2.521 . S
La0 O21 2.628 . S
La0 O22 2.554 . S
La0 O23 2.757 . S
La0 O24 2.470 . S
La0 O29 2.482 . S
La0 O31 2.503 . S
La1 C11 2.928 1_554 S
La1 O23 2.482 . S
La1 O25 2.503 . S
La1 O26 2.521 . S
La1 O27 2.628 . S
La1 O28 2.554 . S
La1 O29 2.757 . S
La1 O30 2.470 . S
C2 La0 2.928 . S
C2 C3 1.503 . S
C2 O20 1.261 . S
C2 O21 1.243 . S
C3 C2 1.503 . S
C3 C4 1.394 . S
C3 C8 1.373 . S
C4 C3 1.394 . S
C4 C5 1.380 . S
C4 H32 0.930 . S
C5 C4 1.380 . S
C5 C6 1.376 . S
C5 H33 0.930 . S
C6 C5 1.376 . S
C6 C7 1.370 . S
C7 C6 1.370 . S
C7 C8 1.396 . S
C7 H34 0.929 . S
C8 C3 1.373 . S
C8 C7 1.396 . S
C8 H35 0.929 . S
C9 O22 1.240 . S
C9 O23 1.289 . S
C10 O24 1.258 . S
C10 O25 1.256 . S
C11 La1 2.928 1_556 S
C11 C12 1.503 . S
C11 O26 1.261 1_556 S
C11 O27 1.243 1_556 S
C12 C11 1.503 . S
C12 C13 1.355 1_455 S
C12 C17 1.373 . S
C13 C12 1.355 1_655 S
C13 C14 1.386 . S
C13 H36 0.964 . S
C14 C13 1.386 . S
C14 C15 1.376 1_655 S
C14 H37 0.930 . S
C15 C14 1.376 1_455 S
C15 C16 1.370 . S
C16 C15 1.370 . S
C16 C17 1.396 . S
C16 H38 0.929 . S
C17 C12 1.373 . S
C17 C16 1.396 . S
C17 H39 0.929 . S
C18 O28 1.240 . S
C18 O29 1.289 . S
C19 O30 1.258 . S
C19 O31 1.256 . S
O20 La0 2.521 . S
O20 C2 1.261 . S
O21 La0 2.628 . S
O21 C2 1.243 . S
O22 La0 2.554 . S
O22 C9 1.240 . S
O23 La0 2.757 . S
O23 La1 2.482 . S
O23 C9 1.289 . S
O24 La0 2.470 . S
O24 C10 1.258 . S
O25 La1 2.503 . S
O25 C10 1.256 . S
O26 La1 2.521 . S
O26 C11 1.261 1_554 S
O27 La1 2.628 . S
O27 C11 1.243 1_554 S
O28 La1 2.554 . S
O28 C18 1.240 . S
O29 La0 2.482 . S
O29 La1 2.757 . S
O29 C18 1.289 . S
O30 La1 2.470 . S
O30 C19 1.258 . S
O31 La0 2.503 . S
O31 C19 1.256 . S
H32 C4 0.930 . S
H33 C5 0.930 . S
H34 C7 0.929 . S
H35 C8 0.929 . S
H36 C13 0.964 . S
H37 C14 0.930 . S
H38 C16 0.929 . S
H39 C17 0.929 . S
La40 C42 2.928 . S
La40 O60 2.521 . S
La40 O61 2.628 . S
La40 O62 2.554 . S
La40 O63 2.757 . S
La40 O64 2.470 . S
La40 O69 2.482 . S
La40 O71 2.503 . S
La41 C51 2.928 1_554 S
La41 O63 2.482 . S
La41 O65 2.503 . S
La41 O66 2.521 . S
La41 O67 2.628 . S
La41 O68 2.554 . S
La41 O69 2.757 . S
La41 O70 2.470 . S
C42 La40 2.928 . S
C42 C43 1.503 . S
C42 O60 1.261 . S
C42 O61 1.243 . S
C43 C42 1.503 . S
C43 C44 1.394 . S
C43 C48 1.373 . S
C44 C43 1.394 . S
C44 C45 1.380 . S
C44 H72 0.930 . S
C45 C44 1.380 . S
C45 C46 1.376 . S
C45 H73 0.930 . S
C46 C45 1.376 . S
C46 C47 1.370 . S
C47 C46 1.370 . S
C47 C48 1.396 . S
C47 H74 0.929 . S
C48 C43 1.373 . S
C48 C47 1.396 . S
C48 H75 0.929 . S
C49 O62 1.240 . S
C49 O63 1.289 . S
C50 O64 1.258 . S
C50 O65 1.256 . S
C51 La41 2.928 1_556 S
C51 C52 1.503 . S
C51 O66 1.261 1_556 S
C51 O67 1.243 1_556 S
C52 C51 1.503 . S
C52 C53 1.394 . S
C52 C57 1.373 . S
C53 C52 1.394 . S
C53 C54 1.380 . S
C53 H76 0.930 . S
C54 C53 1.380 . S
C54 C55 1.376 . S
C54 H77 0.930 . S
C55 C54 1.376 . S
C55 C56 1.370 . S
C56 C55 1.370 . S
C56 C57 1.396 . S
C56 H78 0.929 . S
C57 C52 1.373 . S
C57 C56 1.396 . S
C57 H79 0.929 . S
C58 O68 1.240 . S
C58 O69 1.289 . S
C59 O70 1.258 . S
C59 O71 1.256 . S
O60 La40 2.521 . S
O60 C42 1.261 . S
O61 La40 2.628 . S
O61 C42 1.243 . S
O62 La40 2.554 . S
O62 C49 1.240 . S
O63 La40 2.757 . S
O63 La41 2.482 . S
O63 C49 1.289 . S
O64 La40 2.470 . S
O64 C50 1.258 . S
O65 La41 2.503 . S
O65 C50 1.256 . S
O66 La41 2.521 . S
O66 C51 1.261 1_554 S
O67 La41 2.628 . S
O67 C51 1.243 1_554 S
O68 La41 2.554 . S
O68 C58 1.240 . S
O69 La40 2.482 . S
O69 La41 2.757 . S
O69 C58 1.289 . S
O70 La41 2.470 . S
O70 C59 1.258 . S
O71 La40 2.503 . S
O71 C59 1.256 . S
H72 C44 0.930 . S
H73 C45 0.930 . S
H74 C47 0.929 . S
H75 C48 0.929 . S
H76 C53 0.930 . S
H77 C54 0.930 . S
H78 C56 0.929 . S
H79 C57 0.929 . S
La80 C82 2.928 . S
La80 O100 2.521 . S
La80 O101 2.628 . S
La80 O102 2.554 . S
La80 O103 2.757 . S
La80 O104 2.470 . S
La80 O109 2.482 . S
La80 O111 2.503 . S
La81 C91 2.928 1_554 S
La81 O103 2.482 . S
La81 O105 2.503 . S
La81 O106 2.521 . S
La81 O107 2.628 . S
La81 O108 2.554 . S
La81 O109 2.757 . S
La81 O110 2.470 . S
C82 La80 2.928 . S
C82 C83 1.503 . S
C82 O100 1.261 . S
C82 O101 1.243 . S
C83 C82 1.503 . S
C83 C84 1.394 . S
C83 C88 1.373 . S
C84 C83 1.394 . S
C84 C85 1.380 . S
C84 H112 0.930 . S
C85 C84 1.380 . S
C85 C86 1.376 . S
C85 H113 0.930 . S
C86 C85 1.376 . S
C86 C87 1.370 . S
C87 C86 1.370 . S
C87 C88 1.396 . S
C87 H114 0.929 . S
C88 C83 1.373 . S
C88 C87 1.396 . S
C88 H115 0.929 . S
C89 O102 1.240 . S
C89 O103 1.289 . S
C90 O104 1.258 . S
C90 O105 1.256 . S
C91 La81 2.928 1_556 S
C91 C92 1.503 . S
C91 O106 1.261 1_556 S
C91 O107 1.243 1_556 S
C92 C91 1.503 . S
C92 C93 1.364 1_565 S
C92 C97 1.373 . S
C93 C92 1.364 1_545 S
C93 C94 1.394 . S
C93 H116 0.948 . S
C94 C93 1.394 . S
C94 C95 1.376 1_545 S
C94 H117 0.930 . S
C95 C94 1.376 1_565 S
C95 C96 1.370 . S
C96 C95 1.370 . S
C96 C97 1.396 . S
C96 H118 0.929 . S
C97 C92 1.373 . S
C97 C96 1.396 . S
C97 H119 0.929 . S
C98 O108 1.240 . S
C98 O109 1.289 . S
C99 O110 1.258 . S
C99 O111 1.256 . S
O100 La80 2.521 . S
O100 C82 1.261 . S
O101 La80 2.628 . S
O101 C82 1.243 . S
O102 La80 2.554 . S
O102 C89 1.240 . S
O103 La80 2.757 . S
O103 La81 2.482 . S
O103 C89 1.289 . S
O104 La80 2.470 . S
O104 C90 1.258 . S
O105 La81 2.503 . S
O105 C90 1.256 . S
O106 La81 2.521 . S
O106 C91 1.261 1_554 S
O107 La81 2.628 . S
O107 C91 1.243 1_554 S
O108 La81 2.554 . S
O108 C98 1.240 . S
O109 La80 2.482 . S
O109 La81 2.757 . S
O109 C98 1.289 . S
O110 La81 2.470 . S
O110 C99 1.258 . S
O111 La80 2.503 . S
O111 C99 1.256 . S
H112 C84 0.930 . S
H113 C85 0.930 . S
H114 C87 0.929 . S
H115 C88 0.929 . S
H116 C93 0.948 . S
H117 C94 0.930 . S
H118 C96 0.929 . S
H119 C97 0.929 . S
La120 C122 2.928 . S
La120 O140 2.521 . S
La120 O141 2.628 . S
La120 O142 2.554 . S
La120 O143 2.757 . S
La120 O144 2.470 . S
La120 O149 2.482 . S
La120 O151 2.503 . S
La121 C131 2.928 . S
La121 O143 2.482 . S
La121 O145 2.503 . S
La121 O146 2.521 . S
La121 O147 2.628 . S
La121 O148 2.554 . S
La121 O149 2.757 . S
La121 O150 2.470 . S
C122 La120 2.928 . S
C122 C123 1.503 . S
C122 O140 1.261 . S
C122 O141 1.243 . S
C123 C122 1.503 . S
C123 C124 1.394 . S
C123 C128 1.373 . S
C124 C123 1.394 . S
C124 C125 1.380 . S
C124 H152 0.930 . S
C125 C124 1.380 . S
C125 C126 1.376 . S
C125 H153 0.930 . S
C126 C125 1.376 . S
C126 C127 1.370 . S
C127 C126 1.370 . S
C127 C128 1.396 . S
C127 H154 0.929 . S
C128 C123 1.373 . S
C128 C127 1.396 . S
C128 H155 0.929 . S
C129 O142 1.240 . S
C129 O143 1.289 . S
C130 O144 1.258 . S
C130 O145 1.256 . S
C131 La121 2.928 . S
C131 C132 1.503 . S
C131 O146 1.261 . S
C131 O147 1.243 . S
C132 C131 1.503 . S
C132 C133 1.354 1_545 S
C132 C137 1.373 . S
C133 C132 1.354 1_565 S
C133 C134 1.386 . S
C133 H156 0.965 . S
C134 C133 1.386 . S
C134 C135 1.376 1_565 S
C134 H157 0.930 . S
C135 C134 1.376 1_545 S
C135 C136 1.370 . S
C136 C135 1.370 . S
C136 C137 1.396 . S
C136 H158 0.929 . S
C137 C132 1.373 . S
C137 C136 1.396 . S
C137 H159 0.929 . S
C138 O148 1.240 . S
C138 O149 1.289 . S
C139 O150 1.258 . S
C139 O151 1.256 . S
O140 La120 2.521 . S
O140 C122 1.261 . S
O141 La120 2.628 . S
O141 C122 1.243 . S
O142 La120 2.554 . S
O142 C129 1.240 . S
O143 La120 2.757 . S
O143 La121 2.482 . S
O143 C129 1.289 . S
O144 La120 2.470 . S
O144 C130 1.258 . S
O145 La121 2.503 . S
O145 C130 1.256 . S
O146 La121 2.521 . S
O146 C131 1.261 . S
O147 La121 2.628 . S
O147 C131 1.243 . S
O148 La121 2.554 . S
O148 C138 1.240 . S
O149 La120 2.482 . S
O149 La121 2.757 . S
O149 C138 1.289 . S
O150 La121 2.470 . S
O150 C139 1.258 . S
O151 La120 2.503 . S
O151 C139 1.256 . S
H152 C124 0.930 . S
H153 C125 0.930 . S
H154 C127 0.929 . S
H155 C128 0.929 . S
H156 C133 0.965 . S
H157 C134 0.930 . S
H158 C136 0.929 . S
H159 C137 0.929 . S
La160 C162 2.928 . S
La160 O180 2.521 . S
La160 O181 2.628 . S
La160 O182 2.554 . S
La160 O183 2.757 . S
La160 O184 2.470 . S
La160 O189 2.482 . S
La160 O191 2.503 . S
La161 C171 2.928 . S
La161 O183 2.482 . S
La161 O185 2.503 . S
La161 O186 2.521 . S
La161 O187 2.628 . S
La161 O188 2.554 . S
La161 O189 2.757 . S
La161 O190 2.470 . S
C162 La160 2.928 . S
C162 C163 1.503 . S
C162 O180 1.261 . S
C162 O181 1.243 . S
C163 C162 1.503 . S
C163 C164 1.394 . S
C163 C168 1.373 . S
C164 C163 1.394 . S
C164 C165 1.380 . S
C164 H192 0.930 . S
C165 C164 1.380 . S
C165 C166 1.376 . S
C165 H193 0.930 . S
C166 C165 1.376 . S
C166 C167 1.370 . S
C167 C166 1.370 . S
C167 C168 1.396 . S
C167 H194 0.929 . S
C168 C163 1.373 . S
C168 C167 1.396 . S
C168 H195 0.929 . S
C169 O182 1.240 . S
C169 O183 1.289 . S
C170 O184 1.258 . S
C170 O185 1.256 . S
C171 La161 2.928 . S
C171 C172 1.503 . S
C171 O186 1.261 . S
C171 O187 1.243 . S
C172 C171 1.503 . S
C172 C173 1.364 1_655 S
C172 C177 1.373 . S
C173 C172 1.364 1_455 S
C173 C174 1.394 . S
C173 H196 0.949 . S
C174 C173 1.394 . S
C174 C175 1.376 1_455 S
C174 H197 0.930 . S
C175 C174 1.376 1_655 S
C175 C176 1.370 . S
C176 C175 1.370 . S
C176 C177 1.396 . S
C176 H198 0.929 . S
C177 C172 1.373 . S
C177 C176 1.396 . S
C177 H199 0.929 . S
C178 O188 1.240 . S
C178 O189 1.289 . S
C179 O190 1.258 . S
C179 O191 1.256 . S
O180 La160 2.521 . S
O180 C162 1.261 . S
O181 La160 2.628 . S
O181 C162 1.243 . S
O182 La160 2.554 . S
O182 C169 1.240 . S
O183 La160 2.757 . S
O183 La161 2.482 . S
O183 C169 1.289 . S
O184 La160 2.470 . S
O184 C170 1.258 . S
O185 La161 2.503 . S
O185 C170 1.256 . S
O186 La161 2.521 . S
O186 C171 1.261 . S
O187 La161 2.628 . S
O187 C171 1.243 . S
O188 La161 2.554 . S
O188 C178 1.240 . S
O189 La160 2.482 . S
O189 La161 2.757 . S
O189 C178 1.289 . S
O190 La161 2.470 . S
O190 C179 1.258 . S
O191 La160 2.503 . S
O191 C179 1.256 . S
H192 C164 0.930 . S
H193 C165 0.930 . S
H194 C167 0.929 . S
H195 C168 0.929 . S
H196 C173 0.949 . S
H197 C174 0.930 . S
H198 C176 0.929 . S
H199 C177 0.929 . S
La200 C202 2.928 . S
La200 O220 2.521 . S
La200 O221 2.628 . S
La200 O222 2.554 . S
La200 O223 2.757 . S
La200 O224 2.470 . S
La200 O229 2.482 . S
La200 O231 2.503 . S
La201 C211 2.928 . S
La201 O223 2.482 . S
La201 O225 2.503 . S
La201 O226 2.521 . S
La201 O227 2.628 . S
La201 O228 2.554 . S
La201 O229 2.757 . S
La201 O230 2.470 . S
C202 La200 2.928 . S
C202 C203 1.503 . S
C202 O220 1.261 . S
C202 O221 1.243 . S
C203 C202 1.503 . S
C203 C204 1.394 . S
C203 C208 1.373 . S
C204 C203 1.394 . S
C204 C205 1.380 . S
C204 H232 0.930 . S
C205 C204 1.380 . S
C205 C206 1.376 . S
C205 H233 0.930 . S
C206 C205 1.376 . S
C206 C207 1.370 . S
C207 C206 1.370 . S
C207 C208 1.396 . S
C207 H234 0.929 . S
C208 C203 1.373 . S
C208 C207 1.396 . S
C208 H235 0.929 . S
C209 O222 1.240 . S
C209 O223 1.289 . S
C210 O224 1.258 . S
C210 O225 1.256 . S
C211 La201 2.928 . S
C211 C212 1.503 . S
C211 O226 1.261 . S
C211 O227 1.243 . S
C212 C211 1.503 . S
C212 C213 1.394 . S
C212 C217 1.373 . S
C213 C212 1.394 . S
C213 C214 1.380 . S
C213 H236 0.930 . S
C214 C213 1.380 . S
C214 C215 1.376 . S
C214 H237 0.930 . S
C215 C214 1.376 . S
C215 C216 1.370 . S
C216 C215 1.370 . S
C216 C217 1.396 . S
C216 H238 0.929 . S
C217 C212 1.373 . S
C217 C216 1.396 . S
C217 H239 0.929 . S
C218 O228 1.240 . S
C218 O229 1.289 . S
C219 O230 1.258 . S
C219 O231 1.256 . S
O220 La200 2.521 . S
O220 C202 1.261 . S
O221 La200 2.628 . S
O221 C202 1.243 . S
O222 La200 2.554 . S
O222 C209 1.240 . S
O223 La200 2.757 . S
O223 La201 2.482 . S
O223 C209 1.289 . S
O224 La200 2.470 . S
O224 C210 1.258 . S
O225 La201 2.503 . S
O225 C210 1.256 . S
O226 La201 2.521 . S
O226 C211 1.261 . S
O227 La201 2.628 . S
O227 C211 1.243 . S
O228 La201 2.554 . S
O228 C218 1.240 . S
O229 La200 2.482 . S
O229 La201 2.757 . S
O229 C218 1.289 . S
O230 La201 2.470 . S
O230 C219 1.258 . S
O231 La200 2.503 . S
O231 C219 1.256 . S
H232 C204 0.930 . S
H233 C205 0.930 . S
H234 C207 0.929 . S
H235 C208 0.929 . S
H236 C213 0.930 . S
H237 C214 0.930 . S
H238 C216 0.929 . S
H239 C217 0.929 . S
La240 C242 2.928 . S
La240 O260 2.521 . S
La240 O261 2.628 . S
La240 O262 2.554 . S
La240 O263 2.757 . S
La240 O264 2.470 . S
La240 O269 2.482 . S
La240 O271 2.503 1_554 S
La241 C251 2.928 . S
La241 O263 2.482 1_556 S
La241 O265 2.503 1_556 S
La241 O266 2.521 . S
La241 O267 2.628 . S
La241 O268 2.554 1_556 S
La241 O269 2.757 1_556 S
La241 O270 2.470 . S
C242 La240 2.928 . S
C242 C243 1.503 . S
C242 O260 1.261 . S
C242 O261 1.243 . S
C243 C242 1.503 . S
C243 C244 1.354 1_655 S
C243 C248 1.373 . S
C244 C243 1.354 1_455 S
C244 C245 1.386 . S
C244 H272 0.965 . S
C245 C244 1.386 . S
C245 C246 1.376 1_455 S
C245 H273 0.930 . S
C246 C245 1.376 1_655 S
C246 C247 1.370 . S
C247 C246 1.370 . S
C247 C248 1.396 . S
C247 H274 0.929 . S
C248 C243 1.373 . S
C248 C247 1.396 . S
C248 H275 0.929 . S
C249 O262 1.240 . S
C249 O263 1.289 . S
C250 O264 1.258 . S
C250 O265 1.256 . S
C251 La241 2.928 . S
C251 C252 1.503 . S
C251 O266 1.261 . S
C251 O267 1.243 . S
C252 C251 1.503 . S
C252 C253 1.394 . S
C252 C257 1.373 . S
C253 C252 1.394 . S
C253 C254 1.380 . S
C253 H276 0.930 . S
C254 C253 1.380 . S
C254 C255 1.376 . S
C254 H277 0.930 . S
C255 C254 1.376 . S
C255 C256 1.370 . S
C256 C255 1.370 . S
C256 C257 1.396 . S
C256 H278 0.929 . S
C257 C252 1.373 . S
C257 C256 1.396 . S
C257 H279 0.929 . S
C258 O268 1.240 . S
C258 O269 1.289 . S
C259 O270 1.258 . S
C259 O271 1.256 . S
O260 La240 2.521 . S
O260 C242 1.261 . S
O261 La240 2.628 . S
O261 C242 1.243 . S
O262 La240 2.554 . S
O262 C249 1.240 . S
O263 La240 2.757 . S
O263 La241 2.482 1_554 S
O263 C249 1.289 . S
O264 La240 2.470 . S
O264 C250 1.258 . S
O265 La241 2.503 1_554 S
O265 C250 1.256 . S
O266 La241 2.521 . S
O266 C251 1.261 . S
O267 La241 2.628 . S
O267 C251 1.243 . S
O268 La241 2.554 1_554 S
O268 C258 1.240 . S
O269 La240 2.482 . S
O269 La241 2.757 1_554 S
O269 C258 1.289 . S
O270 La241 2.470 . S
O270 C259 1.258 . S
O271 La240 2.503 1_556 S
O271 C259 1.256 . S
H272 C244 0.965 . S
H273 C245 0.930 . S
H274 C247 0.929 . S
H275 C248 0.929 . S
H276 C253 0.930 . S
H277 C254 0.930 . S
H278 C256 0.929 . S
H279 C257 0.929 . S
La280 C282 2.928 . S
La280 O300 2.521 . S
La280 O301 2.628 . S
La280 O302 2.554 . S
La280 O303 2.757 . S
La280 O304 2.470 . S
La280 O309 2.482 . S
La280 O311 2.503 1_554 S
La281 C291 2.928 . S
La281 O303 2.482 1_556 S
La281 O305 2.503 1_556 S
La281 O306 2.521 . S
La281 O307 2.628 . S
La281 O308 2.554 1_556 S
La281 O309 2.757 1_556 S
La281 O310 2.470 . S
C282 La280 2.928 . S
C282 C283 1.503 . S
C282 O300 1.261 . S
C282 O301 1.243 . S
C283 C282 1.503 . S
C283 C284 1.394 . S
C283 C288 1.373 . S
C284 C283 1.394 . S
C284 C285 1.380 . S
C284 H312 0.930 . S
C285 C284 1.380 . S
C285 C286 1.376 . S
C285 H313 0.930 . S
C286 C285 1.376 . S
C286 C287 1.370 . S
C287 C286 1.370 . S
C287 C288 1.396 . S
C287 H314 0.929 . S
C288 C283 1.373 . S
C288 C287 1.396 . S
C288 H315 0.929 . S
C289 O302 1.240 . S
C289 O303 1.289 . S
C290 O304 1.258 . S
C290 O305 1.256 . S
C291 La281 2.928 . S
C291 C292 1.503 . S
C291 O306 1.261 . S
C291 O307 1.243 . S
C292 C291 1.503 . S
C292 C293 1.394 . S
C292 C297 1.373 . S
C293 C292 1.394 . S
C293 C294 1.380 . S
C293 H316 0.930 . S
C294 C293 1.380 . S
C294 C295 1.376 . S
C294 H317 0.930 . S
C295 C294 1.376 . S
C295 C296 1.370 . S
C296 C295 1.370 . S
C296 C297 1.396 . S
C296 H318 0.929 . S
C297 C292 1.373 . S
C297 C296 1.396 . S
C297 H319 0.929 . S
C298 O308 1.240 . S
C298 O309 1.289 . S
C299 O310 1.258 . S
C299 O311 1.256 . S
O300 La280 2.521 . S
O300 C282 1.261 . S
O301 La280 2.628 . S
O301 C282 1.243 . S
O302 La280 2.554 . S
O302 C289 1.240 . S
O303 La280 2.757 . S
O303 La281 2.482 1_554 S
O303 C289 1.289 . S
O304 La280 2.470 . S
O304 C290 1.258 . S
O305 La281 2.503 1_554 S
O305 C290 1.256 . S
O306 La281 2.521 . S
O306 C291 1.261 . S
O307 La281 2.628 . S
O307 C291 1.243 . S
O308 La281 2.554 1_554 S
O308 C298 1.240 . S
O309 La280 2.482 . S
O309 La281 2.757 1_554 S
O309 C298 1.289 . S
O310 La281 2.470 . S
O310 C299 1.258 . S
O311 La280 2.503 1_556 S
O311 C299 1.256 . S
H312 C284 0.930 . S
H313 C285 0.930 . S
H314 C287 0.929 . S
H315 C288 0.929 . S
H316 C293 0.930 . S
H317 C294 0.930 . S
H318 C296 0.929 . S
H319 C297 0.929 . S
La320 C322 2.928 . S
La320 O340 2.521 . S
La320 O341 2.628 . S
La320 O342 2.554 . S
La320 O343 2.757 . S
La320 O344 2.470 . S
La320 O349 2.482 . S
La320 O351 2.503 1_554 S
La321 C331 2.928 . S
La321 O343 2.482 1_556 S
La321 O345 2.503 1_556 S
La321 O346 2.521 . S
La321 O347 2.628 . S
La321 O348 2.554 1_556 S
La321 O349 2.757 1_556 S
La321 O350 2.470 . S
C322 La320 2.928 . S
C322 C323 1.503 . S
C322 O340 1.261 . S
C322 O341 1.243 . S
C323 C322 1.503 . S
C323 C324 1.364 1_545 S
C323 C328 1.373 . S
C324 C323 1.364 1_565 S
C324 C325 1.394 . S
C324 H352 0.949 . S
C325 C324 1.394 . S
C325 C326 1.376 1_565 S
C325 H353 0.930 . S
C326 C325 1.376 1_545 S
C326 C327 1.370 . S
C327 C326 1.370 . S
C327 C328 1.396 . S
C327 H354 0.929 . S
C328 C323 1.373 . S
C328 C327 1.396 . S
C328 H355 0.929 . S
C329 O342 1.240 . S
C329 O343 1.289 . S
C330 O344 1.258 . S
C330 O345 1.256 . S
C331 La321 2.928 . S
C331 C332 1.503 . S
C331 O346 1.261 . S
C331 O347 1.243 . S
C332 C331 1.503 . S
C332 C333 1.394 . S
C332 C337 1.373 . S
C333 C332 1.394 . S
C333 C334 1.380 . S
C333 H356 0.930 . S
C334 C333 1.380 . S
C334 C335 1.376 . S
C334 H357 0.930 . S
C335 C334 1.376 . S
C335 C336 1.370 . S
C336 C335 1.370 . S
C336 C337 1.396 . S
C336 H358 0.929 . S
C337 C332 1.373 . S
C337 C336 1.396 . S
C337 H359 0.929 . S
C338 O348 1.240 . S
C338 O349 1.289 . S
C339 O350 1.258 . S
C339 O351 1.256 . S
O340 La320 2.521 . S
O340 C322 1.261 . S
O341 La320 2.628 . S
O341 C322 1.243 . S
O342 La320 2.554 . S
O342 C329 1.240 . S
O343 La320 2.757 . S
O343 La321 2.482 1_554 S
O343 C329 1.289 . S
O344 La320 2.470 . S
O344 C330 1.258 . S
O345 La321 2.503 1_554 S
O345 C330 1.256 . S
O346 La321 2.521 . S
O346 C331 1.261 . S
O347 La321 2.628 . S
O347 C331 1.243 . S
O348 La321 2.554 1_554 S
O348 C338 1.240 . S
O349 La320 2.482 . S
O349 La321 2.757 1_554 S
O349 C338 1.289 . S
O350 La321 2.470 . S
O350 C339 1.258 . S
O351 La320 2.503 1_556 S
O351 C339 1.256 . S
H352 C324 0.949 . S
H353 C325 0.930 . S
H354 C327 0.929 . S
H355 C328 0.929 . S
H356 C333 0.930 . S
H357 C334 0.930 . S
H358 C336 0.929 . S
H359 C337 0.929 . S
La360 C362 2.928 . S
La360 O380 2.521 . S
La360 O381 2.628 . S
La360 O382 2.554 . S
La360 O383 2.757 . S
La360 O384 2.470 . S
La360 O389 2.482 . S
La360 O391 2.503 . S
La361 C371 2.928 . S
La361 O383 2.482 . S
La361 O385 2.503 . S
La361 O386 2.521 . S
La361 O387 2.628 . S
La361 O388 2.554 . S
La361 O389 2.757 . S
La361 O390 2.470 . S
C362 La360 2.928 . S
C362 C363 1.503 . S
C362 O380 1.261 . S
C362 O381 1.243 . S
C363 C362 1.503 . S
C363 C364 1.355 1_565 S
C363 C368 1.373 . S
C364 C363 1.355 1_545 S
C364 C365 1.386 . S
C364 H392 0.964 . S
C365 C364 1.386 . S
C365 C366 1.376 1_545 S
C365 H393 0.930 . S
C366 C365 1.376 1_565 S
C366 C367 1.370 . S
C367 C366 1.370 . S
C367 C368 1.396 . S
C367 H394 0.929 . S
C368 C363 1.373 . S
C368 C367 1.396 . S
C368 H395 0.929 . S
C369 O382 1.240 . S
C369 O383 1.289 . S
C370 O384 1.258 . S
C370 O385 1.256 . S
C371 La361 2.928 . S
C371 C372 1.503 . S
C371 O386 1.261 . S
C371 O387 1.243 . S
C372 C371 1.503 . S
C372 C373 1.394 . S
C372 C377 1.373 . S
C373 C372 1.394 . S
C373 C374 1.380 . S
C373 H396 0.930 . S
C374 C373 1.380 . S
C374 C375 1.376 . S
C374 H397 0.930 . S
C375 C374 1.376 . S
C375 C376 1.370 . S
C376 C375 1.370 . S
C376 C377 1.396 . S
C376 H398 0.929 . S
C377 C372 1.373 . S
C377 C376 1.396 . S
C377 H399 0.929 . S
C378 O388 1.240 . S
C378 O389 1.289 . S
C379 O390 1.258 . S
C379 O391 1.256 . S
O380 La360 2.521 . S
O380 C362 1.261 . S
O381 La360 2.628 . S
O381 C362 1.243 . S
O382 La360 2.554 . S
O382 C369 1.240 . S
O383 La360 2.757 . S
O383 La361 2.482 . S
O383 C369 1.289 . S
O384 La360 2.470 . S
O384 C370 1.258 . S
O385 La361 2.503 . S
O385 C370 1.256 . S
O386 La361 2.521 . S
O386 C371 1.261 . S
O387 La361 2.628 . S
O387 C371 1.243 . S
O388 La361 2.554 . S
O388 C378 1.240 . S
O389 La360 2.482 . S
O389 La361 2.757 . S
O389 C378 1.289 . S
O390 La361 2.470 . S
O390 C379 1.258 . S
O391 La360 2.503 . S
O391 C379 1.256 . S
H392 C364 0.964 . S
H393 C365 0.930 . S
H394 C367 0.929 . S
H395 C368 0.929 . S
H396 C373 0.930 . S
H397 C374 0.930 . S
H398 C376 0.929 . S
H399 C377 0.929 . S
La400 C402 2.928 . S
La400 O420 2.521 . S
La400 O421 2.628 . S
La400 O422 2.554 . S
La400 O423 2.757 . S
La400 O424 2.470 . S
La400 O429 2.482 . S
La400 O431 2.503 . S
La401 C411 2.928 . S
La401 O423 2.482 . S
La401 O425 2.503 . S
La401 O426 2.521 . S
La401 O427 2.628 . S
La401 O428 2.554 . S
La401 O429 2.757 . S
La401 O430 2.470 . S
C402 La400 2.928 . S
C402 C403 1.503 . S
C402 O420 1.261 . S
C402 O421 1.243 . S
C403 C402 1.503 . S
C403 C404 1.365 1_455 S
C403 C408 1.373 . S
C404 C403 1.365 1_655 S
C404 C405 1.394 . S
C404 H432 0.948 . S
C405 C404 1.394 . S
C405 C406 1.376 1_655 S
C405 H433 0.930 . S
C406 C405 1.376 1_455 S
C406 C407 1.370 . S
C407 C406 1.370 . S
C407 C408 1.396 . S
C407 H434 0.929 . S
C408 C403 1.373 . S
C408 C407 1.396 . S
C408 H435 0.929 . S
C409 O422 1.240 . S
C409 O423 1.289 . S
C410 O424 1.258 . S
C410 O425 1.256 . S
C411 La401 2.928 . S
C411 C412 1.503 . S
C411 O426 1.261 . S
C411 O427 1.243 . S
C412 C411 1.503 . S
C412 C413 1.394 . S
C412 C417 1.373 . S
C413 C412 1.394 . S
C413 C414 1.380 . S
C413 H436 0.930 . S
C414 C413 1.380 . S
C414 C415 1.376 . S
C414 H437 0.930 . S
C415 C414 1.376 . S
C415 C416 1.370 . S
C416 C415 1.370 . S
C416 C417 1.396 . S
C416 H438 0.929 . S
C417 C412 1.373 . S
C417 C416 1.396 . S
C417 H439 0.929 . S
C418 O428 1.240 . S
C418 O429 1.289 . S
C419 O430 1.258 . S
C419 O431 1.256 . S
O420 La400 2.521 . S
O420 C402 1.261 . S
O421 La400 2.628 . S
O421 C402 1.243 . S
O422 La400 2.554 . S
O422 C409 1.240 . S
O423 La400 2.757 . S
O423 La401 2.482 . S
O423 C409 1.289 . S
O424 La400 2.470 . S
O424 C410 1.258 . S
O425 La401 2.503 . S
O425 C410 1.256 . S
O426 La401 2.521 . S
O426 C411 1.261 . S
O427 La401 2.628 . S
O427 C411 1.243 . S
O428 La401 2.554 . S
O428 C418 1.240 . S
O429 La400 2.482 . S
O429 La401 2.757 . S
O429 C418 1.289 . S
O430 La401 2.470 . S
O430 C419 1.258 . S
O431 La400 2.503 . S
O431 C419 1.256 . S
H432 C404 0.948 . S
H433 C405 0.930 . S
H434 C407 0.929 . S
H435 C408 0.929 . S
H436 C413 0.930 . S
H437 C414 0.930 . S
H438 C416 0.929 . S
H439 C417 0.929 . S
La440 C442 2.928 . S
La440 O460 2.521 . S
La440 O461 2.628 . S
La440 O462 2.554 . S
La440 O463 2.757 . S
La440 O464 2.470 . S
La440 O469 2.482 . S
La440 O471 2.503 . S
La441 C451 2.928 . S
La441 O463 2.482 . S
La441 O465 2.503 . S
La441 O466 2.521 . S
La441 O467 2.628 . S
La441 O468 2.554 . S
La441 O469 2.757 . S
La441 O470 2.470 . S
C442 La440 2.928 . S
C442 C443 1.503 . S
C442 O460 1.261 . S
C442 O461 1.243 . S
C443 C442 1.503 . S
C443 C444 1.394 . S
C443 C448 1.373 . S
C444 C443 1.394 . S
C444 C445 1.380 . S
C444 H472 0.930 . S
C445 C444 1.380 . S
C445 C446 1.376 . S
C445 H473 0.930 . S
C446 C445 1.376 . S
C446 C447 1.370 . S
C447 C446 1.370 . S
C447 C448 1.396 . S
C447 H474 0.929 . S
C448 C443 1.373 . S
C448 C447 1.396 . S
C448 H475 0.929 . S
C449 O462 1.240 . S
C449 O463 1.289 . S
C450 O464 1.258 . S
C450 O465 1.256 . S
C451 La441 2.928 . S
C451 C452 1.503 . S
C451 O466 1.261 . S
C451 O467 1.243 . S
C452 C451 1.503 . S
C452 C453 1.394 . S
C452 C457 1.373 . S
C453 C452 1.394 . S
C453 C454 1.380 . S
C453 H476 0.930 . S
C454 C453 1.380 . S
C454 C455 1.376 . S
C454 H477 0.930 . S
C455 C454 1.376 . S
C455 C456 1.370 . S
C456 C455 1.370 . S
C456 C457 1.396 . S
C456 H478 0.929 . S
C457 C452 1.373 . S
C457 C456 1.396 . S
C457 H479 0.929 . S
C458 O468 1.240 . S
C458 O469 1.289 . S
C459 O470 1.258 . S
C459 O471 1.256 . S
O460 La440 2.521 . S
O460 C442 1.261 . S
O461 La440 2.628 . S
O461 C442 1.243 . S
O462 La440 2.554 . S
O462 C449 1.240 . S
O463 La440 2.757 . S
O463 La441 2.482 . S
O463 C449 1.289 . S
O464 La440 2.470 . S
O464 C450 1.258 . S
O465 La441 2.503 . S
O465 C450 1.256 . S
O466 La441 2.521 . S
O466 C451 1.261 . S
O467 La441 2.628 . S
O467 C451 1.243 . S
O468 La441 2.554 . S
O468 C458 1.240 . S
O469 La440 2.482 . S
O469 La441 2.757 . S
O469 C458 1.289 . S
O470 La441 2.470 . S
O470 C459 1.258 . S
O471 La440 2.503 . S
O471 C459 1.256 . S
H472 C444 0.930 . S
H473 C445 0.930 . S
H474 C447 0.929 . S
H475 C448 0.929 . S
H476 C453 0.930 . S
H477 C454 0.930 . S
H478 C456 0.929 . S
H479 C457 0.929 . S
La480 C482 2.928 . S
La480 O500 2.521 . S
La480 O501 2.628 . S
La480 O502 2.554 . S
La480 O503 2.757 . S
La480 O504 2.470 . S
La480 O509 2.482 . S
La480 O511 2.503 . S
La481 C491 2.928 . S
La481 O503 2.482 . S
La481 O505 2.503 . S
La481 O506 2.521 . S
La481 O507 2.628 . S
La481 O508 2.554 . S
La481 O509 2.757 . S
La481 O510 2.470 . S
C482 La480 2.928 . S
C482 C483 1.503 . S
C482 O500 1.261 . S
C482 O501 1.243 . S
C483 C482 1.503 . S
C483 C484 1.394 . S
C483 C488 1.373 . S
C484 C483 1.394 . S
C484 C485 1.380 . S
C484 H512 0.930 . S
C485 C484 1.380 . S
C485 C486 1.376 . S
C485 H513 0.930 . S
C486 C485 1.376 . S
C486 C487 1.370 . S
C487 C486 1.370 . S
C487 C488 1.396 . S
C487 H514 0.929 . S
C488 C483 1.373 . S
C488 C487 1.396 . S
C488 H515 0.929 . S
C489 O502 1.240 . S
C489 O503 1.289 . S
C490 O504 1.258 . S
C490 O505 1.256 . S
C491 La481 2.928 . S
C491 C492 1.503 . S
C491 O506 1.261 . S
C491 O507 1.243 . S
C492 C491 1.503 . S
C492 C493 1.394 . S
C492 C497 1.373 . S
C493 C492 1.394 . S
C493 C494 1.380 . S
C493 H516 0.930 . S
C494 C493 1.380 . S
C494 C495 1.376 . S
C494 H517 0.930 . S
C495 C494 1.376 . S
C495 C496 1.370 . S
C496 C495 1.370 . S
C496 C497 1.396 . S
C496 H518 0.929 . S
C497 C492 1.373 . S
C497 C496 1.396 . S
C497 H519 0.929 . S
C498 O508 1.240 . S
C498 O509 1.289 . S
C499 O510 1.258 . S
C499 O511 1.256 . S
O500 La480 2.521 . S
O500 C482 1.261 . S
O501 La480 2.628 . S
O501 C482 1.243 . S
O502 La480 2.554 . S
O502 C489 1.240 . S
O503 La480 2.757 . S
O503 La481 2.482 . S
O503 C489 1.289 . S
O504 La480 2.470 . S
O504 C490 1.258 . S
O505 La481 2.503 . S
O505 C490 1.256 . S
O506 La481 2.521 . S
O506 C491 1.261 . S
O507 La481 2.628 . S
O507 C491 1.243 . S
O508 La481 2.554 . S
O508 C498 1.240 . S
O509 La480 2.482 . S
O509 La481 2.757 . S
O509 C498 1.289 . S
O510 La481 2.470 . S
O510 C499 1.258 . S
O511 La480 2.503 . S
O511 C499 1.256 . S
H512 C484 0.930 . S
H513 C485 0.930 . S
H514 C487 0.929 . S
H515 C488 0.929 . S
H516 C493 0.930 . S
H517 C494 0.930 . S
H518 C496 0.929 . S
H519 C497 0.929 . S
La520 C522 2.928 . S
La520 O540 2.521 . S
La520 O541 2.628 . S
La520 O542 2.554 . S
La520 O543 2.757 . S
La520 O544 2.470 . S
La520 O549 2.482 . S
La520 O551 2.503 . S
La521 C531 2.928 . S
La521 O543 2.482 . S
La521 O545 2.503 . S
La521 O546 2.521 . S
La521 O547 2.628 . S
La521 O548 2.554 . S
La521 O549 2.757 . S
La521 O550 2.470 . S
C522 La520 2.928 . S
C522 C523 1.503 . S
C522 O540 1.261 . S
C522 O541 1.243 . S
C523 C522 1.503 . S
C523 C524 1.394 . S
C523 C528 1.373 . S
C524 C523 1.394 . S
C524 C525 1.380 . S
C524 H552 0.930 . S
C525 C524 1.380 . S
C525 C526 1.376 . S
C525 H553 0.930 . S
C526 C525 1.376 . S
C526 C527 1.370 . S
C527 C526 1.370 . S
C527 C528 1.396 . S
C527 H554 0.929 . S
C528 C523 1.373 . S
C528 C527 1.396 . S
C528 H555 0.929 . S
C529 O542 1.240 . S
C529 O543 1.289 . S
C530 O544 1.258 . S
C530 O545 1.256 . S
C531 La521 2.928 . S
C531 C532 1.503 . S
C531 O546 1.261 . S
C531 O547 1.243 . S
C532 C531 1.503 . S
C532 C533 1.394 . S
C532 C537 1.373 . S
C533 C532 1.394 . S
C533 C534 1.380 . S
C533 H556 0.930 . S
C534 C533 1.380 . S
C534 C535 1.376 . S
C534 H557 0.930 . S
C535 C534 1.376 . S
C535 C536 1.370 . S
C536 C535 1.370 . S
C536 C537 1.396 . S
C536 H558 0.929 . S
C537 C532 1.373 . S
C537 C536 1.396 . S
C537 H559 0.929 . S
C538 O548 1.240 . S
C538 O549 1.289 . S
C539 O550 1.258 . S
C539 O551 1.256 . S
O540 La520 2.521 . S
O540 C522 1.261 . S
O541 La520 2.628 . S
O541 C522 1.243 . S
O542 La520 2.554 . S
O542 C529 1.240 . S
O543 La520 2.757 . S
O543 La521 2.482 . S
O543 C529 1.289 . S
O544 La520 2.470 . S
O544 C530 1.258 . S
O545 La521 2.503 . S
O545 C530 1.256 . S
O546 La521 2.521 . S
O546 C531 1.261 . S
O547 La521 2.628 . S
O547 C531 1.243 . S
O548 La521 2.554 . S
O548 C538 1.240 . S
O549 La520 2.482 . S
O549 La521 2.757 . S
O549 C538 1.289 . S
O550 La521 2.470 . S
O550 C539 1.258 . S
O551 La520 2.503 . S
O551 C539 1.256 . S
H552 C524 0.930 . S
H553 C525 0.930 . S
H554 C527 0.929 . S
H555 C528 0.929 . S
H556 C533 0.930 . S
H557 C534 0.930 . S
H558 C536 0.929 . S
H559 C537 0.929 . S
La560 C562 2.928 . S
La560 O580 2.521 . S
La560 O581 2.628 . S
La560 O582 2.554 . S
La560 O583 2.757 . S
La560 O584 2.470 . S
La560 O589 2.482 . S
La560 O591 2.503 . S
La561 C571 2.928 . S
La561 O583 2.482 . S
La561 O585 2.503 . S
La561 O586 2.521 . S
La561 O587 2.628 . S
La561 O588 2.554 . S
La561 O589 2.757 . S
La561 O590 2.470 . S
C562 La560 2.928 . S
C562 C563 1.503 . S
C562 O580 1.261 . S
C562 O581 1.243 . S
C563 C562 1.503 . S
C563 C564 1.394 . S
C563 C568 1.373 . S
C564 C563 1.394 . S
C564 C565 1.380 . S
C564 H592 0.930 . S
C565 C564 1.380 . S
C565 C566 1.376 . S
C565 H593 0.930 . S
C566 C565 1.376 . S
C566 C567 1.370 . S
C567 C566 1.370 . S
C567 C568 1.396 . S
C567 H594 0.929 . S
C568 C563 1.373 . S
C568 C567 1.396 . S
C568 H595 0.929 . S
C569 O582 1.240 . S
C569 O583 1.289 . S
C570 O584 1.258 . S
C570 O585 1.256 . S
C571 La561 2.928 . S
C571 C572 1.503 . S
C571 O586 1.261 . S
C571 O587 1.243 . S
C572 C571 1.503 . S
C572 C573 1.394 . S
C572 C577 1.373 . S
C573 C572 1.394 . S
C573 C574 1.380 . S
C573 H596 0.930 . S
C574 C573 1.380 . S
C574 C575 1.376 . S
C574 H597 0.930 . S
C575 C574 1.376 . S
C575 C576 1.370 . S
C576 C575 1.370 . S
C576 C577 1.396 . S
C576 H598 0.929 . S
C577 C572 1.373 . S
C577 C576 1.396 . S
C577 H599 0.929 . S
C578 O588 1.240 . S
C578 O589 1.289 . S
C579 O590 1.258 . S
C579 O591 1.256 . S
O580 La560 2.521 . S
O580 C562 1.261 . S
O581 La560 2.628 . S
O581 C562 1.243 . S
O582 La560 2.554 . S
O582 C569 1.240 . S
O583 La560 2.757 . S
O583 La561 2.482 . S
O583 C569 1.289 . S
O584 La560 2.470 . S
O584 C570 1.258 . S
O585 La561 2.503 . S
O585 C570 1.256 . S
O586 La561 2.521 . S
O586 C571 1.261 . S
O587 La561 2.628 . S
O587 C571 1.243 . S
O588 La561 2.554 . S
O588 C578 1.240 . S
O589 La560 2.482 . S
O589 La561 2.757 . S
O589 C578 1.289 . S
O590 La561 2.470 . S
O590 C579 1.258 . S
O591 La560 2.503 . S
O591 C579 1.256 . S
H592 C564 0.930 . S
H593 C565 0.930 . S
H594 C567 0.929 . S
H595 C568 0.929 . S
H596 C573 0.930 . S
H597 C574 0.930 . S
H598 C576 0.929 . S
H599 C577 0.929 . S
La600 C602 2.928 . S
La600 O620 2.521 . S
La600 O621 2.628 . S
La600 O622 2.554 . S
La600 O623 2.757 . S
La600 O624 2.470 . S
La600 O629 2.482 . S
La600 O631 2.503 . S
La601 C611 2.928 . S
La601 O623 2.482 . S
La601 O625 2.503 . S
La601 O626 2.521 . S
La601 O627 2.628 . S
La601 O628 2.554 . S
La601 O629 2.757 . S
La601 O630 2.470 . S
C602 La600 2.928 . S
C602 C603 1.503 . S
C602 O620 1.261 . S
C602 O621 1.243 . S
C603 C602 1.503 . S
C603 C604 1.394 . S
C603 C608 1.373 . S
C604 C603 1.394 . S
C604 C605 1.380 . S
C604 H632 0.930 . S
C605 C604 1.380 . S
C605 C606 1.376 . S
C605 H633 0.930 . S
C606 C605 1.376 . S
C606 C607 1.370 . S
C607 C606 1.370 . S
C607 C608 1.396 . S
C607 H634 0.929 . S
C608 C603 1.373 . S
C608 C607 1.396 . S
C608 H635 0.929 . S
C609 O622 1.240 . S
C609 O623 1.289 . S
C610 O624 1.258 . S
C610 O625 1.256 . S
C611 La601 2.928 . S
C611 C612 1.503 1_556 S
C611 O626 1.261 . S
C611 O627 1.243 . S
C612 C611 1.503 1_554 S
C612 C613 1.394 . S
C612 C617 1.373 . S
C613 C612 1.394 . S
C613 C614 1.380 . S
C613 H636 0.930 . S
C614 C613 1.380 . S
C614 C615 1.376 . S
C614 H637 0.930 . S
C615 C614 1.376 . S
C615 C616 1.370 . S
C616 C615 1.370 . S
C616 C617 1.396 . S
C616 H638 0.929 . S
C617 C612 1.373 . S
C617 C616 1.396 . S
C617 H639 0.929 . S
C618 O628 1.240 . S
C618 O629 1.289 . S
C619 O630 1.258 . S
C619 O631 1.256 . S
O620 La600 2.521 . S
O620 C602 1.261 . S
O621 La600 2.628 . S
O621 C602 1.243 . S
O622 La600 2.554 . S
O622 C609 1.240 . S
O623 La600 2.757 . S
O623 La601 2.482 . S
O623 C609 1.289 . S
O624 La600 2.470 . S
O624 C610 1.258 . S
O625 La601 2.503 . S
O625 C610 1.256 . S
O626 La601 2.521 . S
O626 C611 1.261 . S
O627 La601 2.628 . S
O627 C611 1.243 . S
O628 La601 2.554 . S
O628 C618 1.240 . S
O629 La600 2.482 . S
O629 La601 2.757 . S
O629 C618 1.289 . S
O630 La601 2.470 . S
O630 C619 1.258 . S
O631 La600 2.503 . S
O631 C619 1.256 . S
H632 C604 0.930 . S
H633 C605 0.930 . S
H634 C607 0.929 . S
H635 C608 0.929 . S
H636 C613 0.930 . S
H637 C614 0.930 . S
H638 C616 0.929 . S
H639 C617 0.929 . S
La640 C642 2.928 . S
La640 O660 2.521 . S
La640 O661 2.628 . S
La640 O662 2.554 . S
La640 O663 2.757 . S
La640 O664 2.470 . S
La640 O669 2.482 . S
La640 O671 2.503 . S
La641 C651 2.928 . S
La641 O663 2.482 . S
La641 O665 2.503 . S
La641 O666 2.521 . S
La641 O667 2.628 . S
La641 O668 2.554 . S
La641 O669 2.757 . S
La641 O670 2.470 . S
C642 La640 2.928 . S
C642 C643 1.503 . S
C642 O660 1.261 . S
C642 O661 1.243 . S
C643 C642 1.503 . S
C643 C644 1.394 . S
C643 C648 1.373 . S
C644 C643 1.394 . S
C644 C645 1.380 . S
C644 H672 0.930 . S
C645 C644 1.380 . S
C645 C646 1.376 . S
C645 H673 0.930 . S
C646 C645 1.376 . S
C646 C647 1.370 . S
C647 C646 1.370 . S
C647 C648 1.396 . S
C647 H674 0.929 . S
C648 C643 1.373 . S
C648 C647 1.396 . S
C648 H675 0.929 . S
C649 O662 1.240 . S
C649 O663 1.289 . S
C650 O664 1.258 . S
C650 O665 1.256 . S
C651 La641 2.928 . S
C651 C652 1.503 1_556 S
C651 O666 1.261 . S
C651 O667 1.243 . S
C652 C651 1.503 1_554 S
C652 C653 1.394 . S
C652 C657 1.373 . S
C653 C652 1.394 . S
C653 C654 1.380 . S
C653 H676 0.930 . S
C654 C653 1.380 . S
C654 C655 1.376 . S
C654 H677 0.930 . S
C655 C654 1.376 . S
C655 C656 1.370 . S
C656 C655 1.370 . S
C656 C657 1.396 . S
C656 H678 0.929 . S
C657 C652 1.373 . S
C657 C656 1.396 . S
C657 H679 0.929 . S
C658 O668 1.240 . S
C658 O669 1.289 . S
C659 O670 1.258 . S
C659 O671 1.256 . S
O660 La640 2.521 . S
O660 C642 1.261 . S
O661 La640 2.628 . S
O661 C642 1.243 . S
O662 La640 2.554 . S
O662 C649 1.240 . S
O663 La640 2.757 . S
O663 La641 2.482 . S
O663 C649 1.289 . S
O664 La640 2.470 . S
O664 C650 1.258 . S
O665 La641 2.503 . S
O665 C650 1.256 . S
O666 La641 2.521 . S
O666 C651 1.261 . S
O667 La641 2.628 . S
O667 C651 1.243 . S
O668 La641 2.554 . S
O668 C658 1.240 . S
O669 La640 2.482 . S
O669 La641 2.757 . S
O669 C658 1.289 . S
O670 La641 2.470 . S
O670 C659 1.258 . S
O671 La640 2.503 . S
O671 C659 1.256 . S
H672 C644 0.930 . S
H673 C645 0.930 . S
H674 C647 0.929 . S
H675 C648 0.929 . S
H676 C653 0.930 . S
H677 C654 0.930 . S
H678 C656 0.929 . S
H679 C657 0.929 . S
La680 C682 2.928 . S
La680 O700 2.521 . S
La680 O701 2.628 . S
La680 O702 2.554 . S
La680 O703 2.757 . S
La680 O704 2.470 . S
La680 O709 2.482 . S
La680 O711 2.503 . S
La681 C691 2.928 . S
La681 O703 2.482 . S
La681 O705 2.503 . S
La681 O706 2.521 . S
La681 O707 2.628 . S
La681 O708 2.554 . S
La681 O709 2.757 . S
La681 O710 2.470 . S
C682 La680 2.928 . S
C682 C683 1.503 . S
C682 O700 1.261 . S
C682 O701 1.243 . S
C683 C682 1.503 . S
C683 C684 1.394 . S
C683 C688 1.373 . S
C684 C683 1.394 . S
C684 C685 1.380 . S
C684 H712 0.930 . S
C685 C684 1.380 . S
C685 C686 1.376 . S
C685 H713 0.930 . S
C686 C685 1.376 . S
C686 C687 1.370 . S
C687 C686 1.370 . S
C687 C688 1.396 . S
C687 H714 0.929 . S
C688 C683 1.373 . S
C688 C687 1.396 . S
C688 H715 0.929 . S
C689 O702 1.240 . S
C689 O703 1.289 . S
C690 O704 1.258 . S
C690 O705 1.256 . S
C691 La681 2.928 . S
C691 C692 1.503 1_556 S
C691 O706 1.261 . S
C691 O707 1.243 . S
C692 C691 1.503 1_554 S
C692 C693 1.394 . S
C692 C697 1.373 . S
C693 C692 1.394 . S
C693 C694 1.380 . S
C693 H716 0.930 . S
C694 C693 1.380 . S
C694 C695 1.376 . S
C694 H717 0.930 . S
C695 C694 1.376 . S
C695 C696 1.370 . S
C696 C695 1.370 . S
C696 C697 1.396 . S
C696 H718 0.929 . S
C697 C692 1.373 . S
C697 C696 1.396 . S
C697 H719 0.929 . S
C698 O708 1.240 . S
C698 O709 1.289 . S
C699 O710 1.258 . S
C699 O711 1.256 . S
O700 La680 2.521 . S
O700 C682 1.261 . S
O701 La680 2.628 . S
O701 C682 1.243 . S
O702 La680 2.554 . S
O702 C689 1.240 . S
O703 La680 2.757 . S
O703 La681 2.482 . S
O703 C689 1.289 . S
O704 La680 2.470 . S
O704 C690 1.258 . S
O705 La681 2.503 . S
O705 C690 1.256 . S
O706 La681 2.521 . S
O706 C691 1.261 . S
O707 La681 2.628 . S
O707 C691 1.243 . S
O708 La681 2.554 . S
O708 C698 1.240 . S
O709 La680 2.482 . S
O709 La681 2.757 . S
O709 C698 1.289 . S
O710 La681 2.470 . S
O710 C699 1.258 . S
O711 La680 2.503 . S
O711 C699 1.256 . S
H712 C684 0.930 . S
H713 C685 0.930 . S
H714 C687 0.929 . S
H715 C688 0.929 . S
H716 C693 0.930 . S
H717 C694 0.930 . S
H718 C696 0.929 . S
H719 C697 0.929 . S
La720 C722 2.928 . S
La720 O740 2.521 . S
La720 O741 2.628 . S
La720 O742 2.554 . S
La720 O743 2.757 . S
La720 O744 2.470 . S
La720 O749 2.482 . S
La720 O751 2.503 . S
La721 C731 2.928 . S
La721 O743 2.482 . S
La721 O745 2.503 . S
La721 O746 2.521 . S
La721 O747 2.628 . S
La721 O748 2.554 . S
La721 O749 2.757 . S
La721 O750 2.470 . S
C722 La720 2.928 . S
C722 C723 1.503 . S
C722 O740 1.261 . S
C722 O741 1.243 . S
C723 C722 1.503 . S
C723 C724 1.394 . S
C723 C728 1.373 . S
C724 C723 1.394 . S
C724 C725 1.380 . S
C724 H752 0.930 . S
C725 C724 1.380 . S
C725 C726 1.376 . S
C725 H753 0.930 . S
C726 C725 1.376 . S
C726 C727 1.370 . S
C727 C726 1.370 . S
C727 C728 1.396 . S
C727 H754 0.929 . S
C728 C723 1.373 . S
C728 C727 1.396 . S
C728 H755 0.929 . S
C729 O742 1.240 . S
C729 O743 1.289 . S
C730 O744 1.258 . S
C730 O745 1.256 . S
C731 La721 2.928 . S
C731 C732 1.503 . S
C731 O746 1.261 . S
C731 O747 1.243 . S
C732 C731 1.503 . S
C732 C733 1.394 . S
C732 C737 1.373 . S
C733 C732 1.394 . S
C733 C734 1.380 . S
C733 H756 0.930 . S
C734 C733 1.380 . S
C734 C735 1.376 . S
C734 H757 0.930 . S
C735 C734 1.376 . S
C735 C736 1.370 . S
C736 C735 1.370 . S
C736 C737 1.396 . S
C736 H758 0.929 . S
C737 C732 1.373 . S
C737 C736 1.396 . S
C737 H759 0.929 . S
C738 O748 1.240 . S
C738 O749 1.289 . S
C739 O750 1.258 . S
C739 O751 1.256 . S
O740 La720 2.521 . S
O740 C722 1.261 . S
O741 La720 2.628 . S
O741 C722 1.243 . S
O742 La720 2.554 . S
O742 C729 1.240 . S
O743 La720 2.757 . S
O743 La721 2.482 . S
O743 C729 1.289 . S
O744 La720 2.470 . S
O744 C730 1.258 . S
O745 La721 2.503 . S
O745 C730 1.256 . S
O746 La721 2.521 . S
O746 C731 1.261 . S
O747 La721 2.628 . S
O747 C731 1.243 . S
O748 La721 2.554 . S
O748 C738 1.240 . S
O749 La720 2.482 . S
O749 La721 2.757 . S
O749 C738 1.289 . S
O750 La721 2.470 . S
O750 C739 1.258 . S
O751 La720 2.503 . S
O751 C739 1.256 . S
H752 C724 0.930 . S
H753 C725 0.930 . S
H754 C727 0.929 . S
H755 C728 0.929 . S
H756 C733 0.930 . S
H757 C734 0.930 . S
H758 C736 0.929 . S
H759 C737 0.929 . S
La760 C762 2.928 . S
La760 O780 2.521 . S
La760 O781 2.628 . S
La760 O782 2.554 . S
La760 O783 2.757 . S
La760 O784 2.470 . S
La760 O789 2.482 . S
La760 O791 2.503 . S
La761 C771 2.928 . S
La761 O783 2.482 . S
La761 O785 2.503 . S
La761 O786 2.521 . S
La761 O787 2.628 . S
La761 O788 2.554 . S
La761 O789 2.757 . S
La761 O790 2.470 . S
C762 La760 2.928 . S
C762 C763 1.503 . S
C762 O780 1.261 . S
C762 O781 1.243 . S
C763 C762 1.503 . S
C763 C764 1.394 . S
C763 C768 1.373 . S
C764 C763 1.394 . S
C764 C765 1.380 . S
C764 H792 0.930 . S
C765 C764 1.380 . S
C765 C766 1.376 . S
C765 H793 0.930 . S
C766 C765 1.376 . S
C766 C767 1.370 . S
C767 C766 1.370 . S
C767 C768 1.396 . S
C767 H794 0.929 . S
C768 C763 1.373 . S
C768 C767 1.396 . S
C768 H795 0.929 . S
C769 O782 1.240 . S
C769 O783 1.289 . S
C770 O784 1.258 . S
C770 O785 1.256 . S
C771 La761 2.928 . S
C771 C772 1.503 . S
C771 O786 1.261 . S
C771 O787 1.243 . S
C772 C771 1.503 . S
C772 C773 1.394 . S
C772 C777 1.373 . S
C773 C772 1.394 . S
C773 C774 1.380 . S
C773 H796 0.930 . S
C774 C773 1.380 . S
C774 C775 1.376 . S
C774 H797 0.930 . S
C775 C774 1.376 . S
C775 C776 1.370 . S
C776 C775 1.370 . S
C776 C777 1.396 . S
C776 H798 0.929 . S
C777 C772 1.373 . S
C777 C776 1.396 . S
C777 H799 0.929 . S
C778 O788 1.240 . S
C778 O789 1.289 . S
C779 O790 1.258 . S
C779 O791 1.256 . S
O780 La760 2.521 . S
O780 C762 1.261 . S
O781 La760 2.628 . S
O781 C762 1.243 . S
O782 La760 2.554 . S
O782 C769 1.240 . S
O783 La760 2.757 . S
O783 La761 2.482 . S
O783 C769 1.289 . S
O784 La760 2.470 . S
O784 C770 1.258 . S
O785 La761 2.503 . S
O785 C770 1.256 . S
O786 La761 2.521 . S
O786 C771 1.261 . S
O787 La761 2.628 . S
O787 C771 1.243 . S
O788 La761 2.554 . S
O788 C778 1.240 . S
O789 La760 2.482 . S
O789 La761 2.757 . S
O789 C778 1.289 . S
O790 La761 2.470 . S
O790 C779 1.258 . S
O791 La760 2.503 . S
O791 C779 1.256 . S
H792 C764 0.930 . S
H793 C765 0.930 . S
H794 C767 0.929 . S
H795 C768 0.929 . S
H796 C773 0.930 . S
H797 C774 0.930 . S
H798 C776 0.929 . S
H799 C777 0.929 . S
La800 C802 2.928 . S
La800 O820 2.521 . S
La800 O821 2.628 . S
La800 O822 2.554 . S
La800 O823 2.757 . S
La800 O824 2.470 . S
La800 O829 2.482 . S
La800 O831 2.503 . S
La801 C811 2.928 . S
La801 O823 2.482 . S
La801 O825 2.503 . S
La801 O826 2.521 . S
La801 O827 2.628 . S
La801 O828 2.554 . S
La801 O829 2.757 . S
La801 O830 2.470 . S
C802 La800 2.928 . S
C802 C803 1.503 . S
C802 O820 1.261 . S
C802 O821 1.243 . S
C803 C802 1.503 . S
C803 C804 1.394 . S
C803 C808 1.373 . S
C804 C803 1.394 . S
C804 C805 1.380 . S
C804 H832 0.930 . S
C805 C804 1.380 . S
C805 C806 1.376 . S
C805 H833 0.930 . S
C806 C805 1.376 . S
C806 C807 1.370 . S
C807 C806 1.370 . S
C807 C808 1.396 . S
C807 H834 0.929 . S
C808 C803 1.373 . S
C808 C807 1.396 . S
C808 H835 0.929 . S
C809 O822 1.240 . S
C809 O823 1.289 . S
C810 O824 1.258 . S
C810 O825 1.256 . S
C811 La801 2.928 . S
C811 C812 1.503 . S
C811 O826 1.261 . S
C811 O827 1.243 . S
C812 C811 1.503 . S
C812 C813 1.394 . S
C812 C817 1.373 . S
C813 C812 1.394 . S
C813 C814 1.380 . S
C813 H836 0.930 . S
C814 C813 1.380 . S
C814 C815 1.376 . S
C814 H837 0.930 . S
C815 C814 1.376 . S
C815 C816 1.370 . S
C816 C815 1.370 . S
C816 C817 1.396 . S
C816 H838 0.929 . S
C817 C812 1.373 . S
C817 C816 1.396 . S
C817 H839 0.929 . S
C818 O828 1.240 . S
C818 O829 1.289 . S
C819 O830 1.258 . S
C819 O831 1.256 . S
O820 La800 2.521 . S
O820 C802 1.261 . S
O821 La800 2.628 . S
O821 C802 1.243 . S
O822 La800 2.554 . S
O822 C809 1.240 . S
O823 La800 2.757 . S
O823 La801 2.482 . S
O823 C809 1.289 . S
O824 La800 2.470 . S
O824 C810 1.258 . S
O825 La801 2.503 . S
O825 C810 1.256 . S
O826 La801 2.521 . S
O826 C811 1.261 . S
O827 La801 2.628 . S
O827 C811 1.243 . S
O828 La801 2.554 . S
O828 C818 1.240 . S
O829 La800 2.482 . S
O829 La801 2.757 . S
O829 C818 1.289 . S
O830 La801 2.470 . S
O830 C819 1.258 . S
O831 La800 2.503 . S
O831 C819 1.256 . S
H832 C804 0.930 . S
H833 C805 0.930 . S
H834 C807 0.929 . S
H835 C808 0.929 . S
H836 C813 0.930 . S
H837 C814 0.930 . S
H838 C816 0.929 . S
H839 C817 0.929 . S
La840 C842 2.928 . S
La840 O860 2.521 . S
La840 O861 2.628 . S
La840 O862 2.554 . S
La840 O863 2.757 . S
La840 O864 2.470 . S
La840 O869 2.482 . S
La840 O871 2.503 . S
La841 C851 2.928 1_556 S
La841 O863 2.482 . S
La841 O865 2.503 . S
La841 O866 2.521 1_556 S
La841 O867 2.628 1_556 S
La841 O868 2.554 . S
La841 O869 2.757 . S
La841 O870 2.470 1_556 S
C842 La840 2.928 . S
C842 C843 1.503 . S
C842 O860 1.261 . S
C842 O861 1.243 . S
C843 C842 1.503 . S
C843 C844 1.394 . S
C843 C848 1.373 . S
C844 C843 1.394 . S
C844 C845 1.380 . S
C844 H872 0.930 . S
C845 C844 1.380 . S
C845 C846 1.376 . S
C845 H873 0.930 . S
C846 C845 1.376 . S
C846 C847 1.370 . S
C847 C846 1.370 . S
C847 C848 1.396 . S
C847 H874 0.929 . S
C848 C843 1.373 . S
C848 C847 1.396 . S
C848 H875 0.929 . S
C849 O862 1.240 . S
C849 O863 1.289 . S
C850 O864 1.258 . S
C850 O865 1.256 . S
C851 La841 2.928 1_554 S
C851 C852 1.503 . S
C851 O866 1.261 . S
C851 O867 1.243 . S
C852 C851 1.503 . S
C852 C853 1.394 . S
C852 C857 1.373 . S
C853 C852 1.394 . S
C853 C854 1.380 . S
C853 H876 0.930 . S
C854 C853 1.380 . S
C854 C855 1.376 . S
C854 H877 0.930 . S
C855 C854 1.376 . S
C855 C856 1.370 . S
C856 C855 1.370 . S
C856 C857 1.396 . S
C856 H878 0.929 . S
C857 C852 1.373 . S
C857 C856 1.396 . S
C857 H879 0.929 . S
C858 O868 1.240 . S
C858 O869 1.289 . S
C859 O870 1.258 . S
C859 O871 1.256 1_554 S
O860 La840 2.521 . S
O860 C842 1.261 . S
O861 La840 2.628 . S
O861 C842 1.243 . S
O862 La840 2.554 . S
O862 C849 1.240 . S
O863 La840 2.757 . S
O863 La841 2.482 . S
O863 C849 1.289 . S
O864 La840 2.470 . S
O864 C850 1.258 . S
O865 La841 2.503 . S
O865 C850 1.256 . S
O866 La841 2.521 1_554 S
O866 C851 1.261 . S
O867 La841 2.628 1_554 S
O867 C851 1.243 . S
O868 La841 2.554 . S
O868 C858 1.240 . S
O869 La840 2.482 . S
O869 La841 2.757 . S
O869 C858 1.289 . S
O870 La841 2.470 1_554 S
O870 C859 1.258 . S
O871 La840 2.503 . S
O871 C859 1.256 1_556 S
H872 C844 0.930 . S
H873 C845 0.930 . S
H874 C847 0.929 . S
H875 C848 0.929 . S
H876 C853 0.930 . S
H877 C854 0.930 . S
H878 C856 0.929 . S
H879 C857 0.929 . S
La880 C882 2.928 . S
La880 O900 2.521 . S
La880 O901 2.628 . S
La880 O902 2.554 . S
La880 O903 2.757 . S
La880 O904 2.470 . S
La880 O909 2.482 . S
La880 O911 2.503 . S
La881 C891 2.928 1_556 S
La881 O903 2.482 . S
La881 O905 2.503 . S
La881 O906 2.521 1_556 S
La881 O907 2.628 1_556 S
La881 O908 2.554 . S
La881 O909 2.757 . S
La881 O910 2.470 1_556 S
C882 La880 2.928 . S
C882 C883 1.503 . S
C882 O900 1.261 . S
C882 O901 1.243 . S
C883 C882 1.503 . S
C883 C884 1.394 . S
C883 C888 1.373 . S
C884 C883 1.394 . S
C884 C885 1.380 . S
C884 H912 0.930 . S
C885 C884 1.380 . S
C885 C886 1.376 . S
C885 H913 0.930 . S
C886 C885 1.376 . S
C886 C887 1.370 . S
C887 C886 1.370 . S
C887 C888 1.396 . S
C887 H914 0.929 . S
C888 C883 1.373 . S
C888 C887 1.396 . S
C888 H915 0.929 . S
C889 O902 1.240 . S
C889 O903 1.289 . S
C890 O904 1.258 . S
C890 O905 1.256 . S
C891 La881 2.928 1_554 S
C891 C892 1.503 . S
C891 O906 1.261 . S
C891 O907 1.243 . S
C892 C891 1.503 . S
C892 C893 1.394 . S
C892 C897 1.373 . S
C893 C892 1.394 . S
C893 C894 1.380 . S
C893 H916 0.930 . S
C894 C893 1.380 . S
C894 C895 1.376 . S
C894 H917 0.930 . S
C895 C894 1.376 . S
C895 C896 1.370 . S
C896 C895 1.370 . S
C896 C897 1.396 . S
C896 H918 0.929 . S
C897 C892 1.373 . S
C897 C896 1.396 . S
C897 H919 0.929 . S
C898 O908 1.240 . S
C898 O909 1.289 . S
C899 O910 1.258 . S
C899 O911 1.256 1_554 S
O900 La880 2.521 . S
O900 C882 1.261 . S
O901 La880 2.628 . S
O901 C882 1.243 . S
O902 La880 2.554 . S
O902 C889 1.240 . S
O903 La880 2.757 . S
O903 La881 2.482 . S
O903 C889 1.289 . S
O904 La880 2.470 . S
O904 C890 1.258 . S
O905 La881 2.503 . S
O905 C890 1.256 . S
O906 La881 2.521 1_554 S
O906 C891 1.261 . S
O907 La881 2.628 1_554 S
O907 C891 1.243 . S
O908 La881 2.554 . S
O908 C898 1.240 . S
O909 La880 2.482 . S
O909 La881 2.757 . S
O909 C898 1.289 . S
O910 La881 2.470 1_554 S
O910 C899 1.258 . S
O911 La880 2.503 . S
O911 C899 1.256 1_556 S
H912 C884 0.930 . S
H913 C885 0.930 . S
H914 C887 0.929 . S
H915 C888 0.929 . S
H916 C893 0.930 . S
H917 C894 0.930 . S
H918 C896 0.929 . S
H919 C897 0.929 . S
La920 C922 2.928 . S
La920 O940 2.521 . S
La920 O941 2.628 . S
La920 O942 2.554 . S
La920 O943 2.757 . S
La920 O944 2.470 . S
La920 O949 2.482 . S
La920 O951 2.503 . S
La921 C931 2.928 1_556 S
La921 O943 2.482 . S
La921 O945 2.503 . S
La921 O946 2.521 1_556 S
La921 O947 2.628 1_556 S
La921 O948 2.554 . S
La921 O949 2.757 . S
La921 O950 2.470 1_556 S
C922 La920 2.928 . S
C922 C923 1.503 . S
C922 O940 1.261 . S
C922 O941 1.243 . S
C923 C922 1.503 . S
C923 C924 1.394 . S
C923 C928 1.373 . S
C924 C923 1.394 . S
C924 C925 1.380 . S
C924 H952 0.930 . S
C925 C924 1.380 . S
C925 C926 1.376 . S
C925 H953 0.930 . S
C926 C925 1.376 . S
C926 C927 1.370 . S
C927 C926 1.370 . S
C927 C928 1.396 . S
C927 H954 0.929 . S
C928 C923 1.373 . S
C928 C927 1.396 . S
C928 H955 0.929 . S
C929 O942 1.240 . S
C929 O943 1.289 . S
C930 O944 1.258 . S
C930 O945 1.256 . S
C931 La921 2.928 1_554 S
C931 C932 1.503 . S
C931 O946 1.261 . S
C931 O947 1.243 . S
C932 C931 1.503 . S
C932 C933 1.394 . S
C932 C937 1.373 . S
C933 C932 1.394 . S
C933 C934 1.380 . S
C933 H956 0.930 . S
C934 C933 1.380 . S
C934 C935 1.376 . S
C934 H957 0.930 . S
C935 C934 1.376 . S
C935 C936 1.370 . S
C936 C935 1.370 . S
C936 C937 1.396 . S
C936 H958 0.929 . S
C937 C932 1.373 . S
C937 C936 1.396 . S
C937 H959 0.929 . S
C938 O948 1.240 . S
C938 O949 1.289 . S
C939 O950 1.258 . S
C939 O951 1.256 1_554 S
O940 La920 2.521 . S
O940 C922 1.261 . S
O941 La920 2.628 . S
O941 C922 1.243 . S
O942 La920 2.554 . S
O942 C929 1.240 . S
O943 La920 2.757 . S
O943 La921 2.482 . S
O943 C929 1.289 . S
O944 La920 2.470 . S
O944 C930 1.258 . S
O945 La921 2.503 . S
O945 C930 1.256 . S
O946 La921 2.521 1_554 S
O946 C931 1.261 . S
O947 La921 2.628 1_554 S
O947 C931 1.243 . S
O948 La921 2.554 . S
O948 C938 1.240 . S
O949 La920 2.482 . S
O949 La921 2.757 . S
O949 C938 1.289 . S
O950 La921 2.470 1_554 S
O950 C939 1.258 . S
O951 La920 2.503 . S
O951 C939 1.256 1_556 S
H952 C924 0.930 . S
H953 C925 0.930 . S
H954 C927 0.929 . S
H955 C928 0.929 . S
H956 C933 0.930 . S
H957 C934 0.930 . S
H958 C936 0.929 . S
H959 C937 0.929 . S
La960 C962 2.928 . S
La960 O980 2.521 . S
La960 O981 2.628 . S
La960 O982 2.554 . S
La960 O983 2.757 . S
La960 O984 2.470 . S
La960 O989 2.482 . S
La960 O991 2.503 . S
La961 C971 2.928 . S
La961 O983 2.482 . S
La961 O985 2.503 . S
La961 O986 2.521 . S
La961 O987 2.628 . S
La961 O988 2.554 . S
La961 O989 2.757 . S
La961 O990 2.470 . S
C962 La960 2.928 . S
C962 C963 1.503 . S
C962 O980 1.261 . S
C962 O981 1.243 . S
C963 C962 1.503 . S
C963 C964 1.394 . S
C963 C968 1.373 . S
C964 C963 1.394 . S
C964 C965 1.380 1_556 S
C964 H992 0.930 . S
C965 C964 1.380 1_554 S
C965 C966 1.376 . S
C965 H993 0.930 . S
C966 C965 1.376 . S
C966 C967 1.370 . S
C967 C966 1.370 . S
C967 C968 1.396 1_554 S
C967 H994 0.929 . S
C968 C963 1.373 . S
C968 C967 1.396 1_556 S
C968 H995 0.929 . S
C969 O982 1.240 . S
C969 O983 1.289 . S
C970 O984 1.258 . S
C970 O985 1.256 . S
C971 La961 2.928 . S
C971 C972 1.503 . S
C971 O986 1.261 . S
C971 O987 1.243 . S
C972 C971 1.503 . S
C972 C973 1.394 . S
C972 C977 1.373 . S
C973 C972 1.394 . S
C973 C974 1.380 . S
C973 H996 0.930 . S
C974 C973 1.380 . S
C974 C975 1.376 . S
C974 H997 0.930 . S
C975 C974 1.376 . S
C975 C976 1.370 . S
C976 C975 1.370 . S
C976 C977 1.396 . S
C976 H998 0.929 . S
C977 C972 1.373 . S
C977 C976 1.396 . S
C977 H999 0.929 . S
C978 O988 1.240 . S
C978 O989 1.289 . S
C979 O990 1.258 . S
C979 O991 1.256 . S
O980 La960 2.521 . S
O980 C962 1.261 . S
O981 La960 2.628 . S
O981 C962 1.243 . S
O982 La960 2.554 . S
O982 C969 1.240 . S
O983 La960 2.757 . S
O983 La961 2.482 . S
O983 C969 1.289 . S
O984 La960 2.470 . S
O984 C970 1.258 . S
O985 La961 2.503 . S
O985 C970 1.256 . S
O986 La961 2.521 . S
O986 C971 1.261 . S
O987 La961 2.628 . S
O987 C971 1.243 . S
O988 La961 2.554 . S
O988 C978 1.240 . S
O989 La960 2.482 . S
O989 La961 2.757 . S
O989 C978 1.289 . S
O990 La961 2.470 . S
O990 C979 1.258 . S
O991 La960 2.503 . S
O991 C979 1.256 . S
H992 C964 0.930 . S
H993 C965 0.930 . S
H994 C967 0.929 . S
H995 C968 0.929 . S
H996 C973 0.930 . S
H997 C974 0.930 . S
H998 C976 0.929 . S
H999 C977 0.929 . S
La1000 C1002 2.928 . S
La1000 O1020 2.521 . S
La1000 O1021 2.628 . S
La1000 O1022 2.554 . S
La1000 O1023 2.757 . S
La1000 O1024 2.470 . S
La1000 O1029 2.482 . S
La1000 O1031 2.503 . S
La1001 C1011 2.928 . S
La1001 O1023 2.482 . S
La1001 O1025 2.503 . S
La1001 O1026 2.521 . S
La1001 O1027 2.628 . S
La1001 O1028 2.554 . S
La1001 O1029 2.757 . S
La1001 O1030 2.470 . S
C1002 La1000 2.928 . S
C1002 C1003 1.503 . S
C1002 O1020 1.261 . S
C1002 O1021 1.243 . S
C1003 C1002 1.503 . S
C1003 C1004 1.394 . S
C1003 C1008 1.373 . S
C1004 C1003 1.394 . S
C1004 C1005 1.380 1_556 S
C1004 H1032 0.930 . S
C1005 C1004 1.380 1_554 S
C1005 C1006 1.376 . S
C1005 H1033 0.930 . S
C1006 C1005 1.376 . S
C1006 C1007 1.370 . S
C1007 C1006 1.370 . S
C1007 C1008 1.396 1_554 S
C1007 H1034 0.929 . S
C1008 C1003 1.373 . S
C1008 C1007 1.396 1_556 S
C1008 H1035 0.929 . S
C1009 O1022 1.240 . S
C1009 O1023 1.289 . S
C1010 O1024 1.258 . S
C1010 O1025 1.256 . S
C1011 La1001 2.928 . S
C1011 C1012 1.503 . S
C1011 O1026 1.261 . S
C1011 O1027 1.243 . S
C1012 C1011 1.503 . S
C1012 C1013 1.394 . S
C1012 C1017 1.373 . S
C1013 C1012 1.394 . S
C1013 C1014 1.380 . S
C1013 H1036 0.930 . S
C1014 C1013 1.380 . S
C1014 C1015 1.376 . S
C1014 H1037 0.930 . S
C1015 C1014 1.376 . S
C1015 C1016 1.370 . S
C1016 C1015 1.370 . S
C1016 C1017 1.396 . S
C1016 H1038 0.929 . S
C1017 C1012 1.373 . S
C1017 C1016 1.396 . S
C1017 H1039 0.929 . S
C1018 O1028 1.240 . S
C1018 O1029 1.289 . S
C1019 O1030 1.258 . S
C1019 O1031 1.256 . S
O1020 La1000 2.521 . S
O1020 C1002 1.261 . S
O1021 La1000 2.628 . S
O1021 C1002 1.243 . S
O1022 La1000 2.554 . S
O1022 C1009 1.240 . S
O1023 La1000 2.757 . S
O1023 La1001 2.482 . S
O1023 C1009 1.289 . S
O1024 La1000 2.470 . S
O1024 C1010 1.258 . S
O1025 La1001 2.503 . S
O1025 C1010 1.256 . S
O1026 La1001 2.521 . S
O1026 C1011 1.261 . S
O1027 La1001 2.628 . S
O1027 C1011 1.243 . S
O1028 La1001 2.554 . S
O1028 C1018 1.240 . S
O1029 La1000 2.482 . S
O1029 La1001 2.757 . S
O1029 C1018 1.289 . S
O1030 La1001 2.470 . S
O1030 C1019 1.258 . S
O1031 La1000 2.503 . S
O1031 C1019 1.256 . S
H1032 C1004 0.930 . S
H1033 C1005 0.930 . S
H1034 C1007 0.929 . S
H1035 C1008 0.929 . S
H1036 C1013 0.930 . S
H1037 C1014 0.930 . S
H1038 C1016 0.929 . S
H1039 C1017 0.929 . S
La1040 C1042 2.928 . S
La1040 O1060 2.521 . S
La1040 O1061 2.628 . S
La1040 O1062 2.554 . S
La1040 O1063 2.757 . S
La1040 O1064 2.470 . S
La1040 O1069 2.482 . S
La1040 O1071 2.503 . S
La1041 C1051 2.928 . S
La1041 O1063 2.482 . S
La1041 O1065 2.503 . S
La1041 O1066 2.521 . S
La1041 O1067 2.628 . S
La1041 O1068 2.554 . S
La1041 O1069 2.757 . S
La1041 O1070 2.470 . S
C1042 La1040 2.928 . S
C1042 C1043 1.503 . S
C1042 O1060 1.261 . S
C1042 O1061 1.243 . S
C1043 C1042 1.503 . S
C1043 C1044 1.394 . S
C1043 C1048 1.373 . S
C1044 C1043 1.394 . S
C1044 C1045 1.380 1_556 S
C1044 H1072 0.930 . S
C1045 C1044 1.380 1_554 S
C1045 C1046 1.376 . S
C1045 H1073 0.930 . S
C1046 C1045 1.376 . S
C1046 C1047 1.370 . S
C1047 C1046 1.370 . S
C1047 C1048 1.396 1_554 S
C1047 H1074 0.929 . S
C1048 C1043 1.373 . S
C1048 C1047 1.396 1_556 S
C1048 H1075 0.929 . S
C1049 O1062 1.240 . S
C1049 O1063 1.289 . S
C1050 O1064 1.258 . S
C1050 O1065 1.256 . S
C1051 La1041 2.928 . S
C1051 C1052 1.503 . S
C1051 O1066 1.261 . S
C1051 O1067 1.243 . S
C1052 C1051 1.503 . S
C1052 C1053 1.394 . S
C1052 C1057 1.373 . S
C1053 C1052 1.394 . S
C1053 C1054 1.380 . S
C1053 H1076 0.930 . S
C1054 C1053 1.380 . S
C1054 C1055 1.376 . S
C1054 H1077 0.930 . S
C1055 C1054 1.376 . S
C1055 C1056 1.370 . S
C1056 C1055 1.370 . S
C1056 C1057 1.396 . S
C1056 H1078 0.929 . S
C1057 C1052 1.373 . S
C1057 C1056 1.396 . S
C1057 H1079 0.929 . S
C1058 O1068 1.240 . S
C1058 O1069 1.289 . S
C1059 O1070 1.258 . S
C1059 O1071 1.256 . S
O1060 La1040 2.521 . S
O1060 C1042 1.261 . S
O1061 La1040 2.628 . S
O1061 C1042 1.243 . S
O1062 La1040 2.554 . S
O1062 C1049 1.240 . S
O1063 La1040 2.757 . S
O1063 La1041 2.482 . S
O1063 C1049 1.289 . S
O1064 La1040 2.470 . S
O1064 C1050 1.258 . S
O1065 La1041 2.503 . S
O1065 C1050 1.256 . S
O1066 La1041 2.521 . S
O1066 C1051 1.261 . S
O1067 La1041 2.628 . S
O1067 C1051 1.243 . S
O1068 La1041 2.554 . S
O1068 C1058 1.240 . S
O1069 La1040 2.482 . S
O1069 La1041 2.757 . S
O1069 C1058 1.289 . S
O1070 La1041 2.470 . S
O1070 C1059 1.258 . S
O1071 La1040 2.503 . S
O1071 C1059 1.256 . S
H1072 C1044 0.930 . S
H1073 C1045 0.930 . S
H1074 C1047 0.929 . S
H1075 C1048 0.929 . S
H1076 C1053 0.930 . S
H1077 C1054 0.930 . S
H1078 C1056 0.929 . S
H1079 C1057 0.929 . S
La1080 C1082 2.928 . S
La1080 O1100 2.521 . S
La1080 O1101 2.628 . S
La1080 O1102 2.554 . S
La1080 O1103 2.757 . S
La1080 O1104 2.470 . S
La1080 O1109 2.482 . S
La1080 O1111 2.503 . S
La1081 C1091 2.928 . S
La1081 O1103 2.482 . S
La1081 O1105 2.503 . S
La1081 O1106 2.521 . S
La1081 O1107 2.628 . S
La1081 O1108 2.554 . S
La1081 O1109 2.757 . S
La1081 O1110 2.470 . S
C1082 La1080 2.928 . S
C1082 C1083 1.503 . S
C1082 O1100 1.261 . S
C1082 O1101 1.243 . S
C1083 C1082 1.503 . S
C1083 C1084 1.394 . S
C1083 C1088 1.373 1_554 S
C1084 C1083 1.394 . S
C1084 C1085 1.380 1_554 S
C1084 H1112 0.930 . S
C1085 C1084 1.380 1_556 S
C1085 C1086 1.376 . S
C1085 H1113 0.930 . S
C1086 C1085 1.376 . S
C1086 C1087 1.370 . S
C1087 C1086 1.370 . S
C1087 C1088 1.396 . S
C1087 H1114 0.929 . S
C1088 C1083 1.373 1_556 S
C1088 C1087 1.396 . S
C1088 H1115 0.929 1_556 S
C1089 O1102 1.240 . S
C1089 O1103 1.289 . S
C1090 O1104 1.258 . S
C1090 O1105 1.256 . S
C1091 La1081 2.928 . S
C1091 C1092 1.503 . S
C1091 O1106 1.261 . S
C1091 O1107 1.243 . S
C1092 C1091 1.503 . S
C1092 C1093 1.394 . S
C1092 C1097 1.373 . S
C1093 C1092 1.394 . S
C1093 C1094 1.380 . S
C1093 H1116 0.930 . S
C1094 C1093 1.380 . S
C1094 C1095 1.376 . S
C1094 H1117 0.930 . S
C1095 C1094 1.376 . S
C1095 C1096 1.370 . S
C1096 C1095 1.370 . S
C1096 C1097 1.396 . S
C1096 H1118 0.929 . S
C1097 C1092 1.373 . S
C1097 C1096 1.396 . S
C1097 H1119 0.929 . S
C1098 O1108 1.240 . S
C1098 O1109 1.289 . S
C1099 O1110 1.258 . S
C1099 O1111 1.256 . S
O1100 La1080 2.521 . S
O1100 C1082 1.261 . S
O1101 La1080 2.628 . S
O1101 C1082 1.243 . S
O1102 La1080 2.554 . S
O1102 C1089 1.240 . S
O1103 La1080 2.757 . S
O1103 La1081 2.482 . S
O1103 C1089 1.289 . S
O1104 La1080 2.470 . S
O1104 C1090 1.258 . S
O1105 La1081 2.503 . S
O1105 C1090 1.256 . S
O1106 La1081 2.521 . S
O1106 C1091 1.261 . S
O1107 La1081 2.628 . S
O1107 C1091 1.243 . S
O1108 La1081 2.554 . S
O1108 C1098 1.240 . S
O1109 La1080 2.482 . S
O1109 La1081 2.757 . S
O1109 C1098 1.289 . S
O1110 La1081 2.470 . S
O1110 C1099 1.258 . S
O1111 La1080 2.503 . S
O1111 C1099 1.256 . S
H1112 C1084 0.930 . S
H1113 C1085 0.930 . S
H1114 C1087 0.929 . S
H1115 C1088 0.929 1_554 S
H1116 C1093 0.930 . S
H1117 C1094 0.930 . S
H1118 C1096 0.929 . S
H1119 C1097 0.929 . S
La1120 C1122 2.928 . S
La1120 O1140 2.521 . S
La1120 O1141 2.628 . S
La1120 O1142 2.554 . S
La1120 O1143 2.757 . S
La1120 O1144 2.470 . S
La1120 O1149 2.482 . S
La1120 O1151 2.503 . S
La1121 C1131 2.928 . S
La1121 O1143 2.482 . S
La1121 O1145 2.503 . S
La1121 O1146 2.521 . S
La1121 O1147 2.628 . S
La1121 O1148 2.554 . S
La1121 O1149 2.757 . S
La1121 O1150 2.470 . S
C1122 La1120 2.928 . S
C1122 C1123 1.503 . S
C1122 O1140 1.261 . S
C1122 O1141 1.243 . S
C1123 C1122 1.503 . S
C1123 C1124 1.394 . S
C1123 C1128 1.373 1_554 S
C1124 C1123 1.394 . S
C1124 C1125 1.380 1_554 S
C1124 H1152 0.930 . S
C1125 C1124 1.380 1_556 S
C1125 C1126 1.376 . S
C1125 H1153 0.930 . S
C1126 C1125 1.376 . S
C1126 C1127 1.370 . S
C1127 C1126 1.370 . S
C1127 C1128 1.396 . S
C1127 H1154 0.929 . S
C1128 C1123 1.373 1_556 S
C1128 C1127 1.396 . S
C1128 H1155 0.929 1_556 S
C1129 O1142 1.240 . S
C1129 O1143 1.289 . S
C1130 O1144 1.258 . S
C1130 O1145 1.256 . S
C1131 La1121 2.928 . S
C1131 C1132 1.503 . S
C1131 O1146 1.261 . S
C1131 O1147 1.243 . S
C1132 C1131 1.503 . S
C1132 C1133 1.394 . S
C1132 C1137 1.373 . S
C1133 C1132 1.394 . S
C1133 C1134 1.380 . S
C1133 H1156 0.930 . S
C1134 C1133 1.380 . S
C1134 C1135 1.376 . S
C1134 H1157 0.930 . S
C1135 C1134 1.376 . S
C1135 C1136 1.370 . S
C1136 C1135 1.370 . S
C1136 C1137 1.396 . S
C1136 H1158 0.929 . S
C1137 C1132 1.373 . S
C1137 C1136 1.396 . S
C1137 H1159 0.929 . S
C1138 O1148 1.240 . S
C1138 O1149 1.289 . S
C1139 O1150 1.258 . S
C1139 O1151 1.256 . S
O1140 La1120 2.521 . S
O1140 C1122 1.261 . S
O1141 La1120 2.628 . S
O1141 C1122 1.243 . S
O1142 La1120 2.554 . S
O1142 C1129 1.240 . S
O1143 La1120 2.757 . S
O1143 La1121 2.482 . S
O1143 C1129 1.289 . S
O1144 La1120 2.470 . S
O1144 C1130 1.258 . S
O1145 La1121 2.503 . S
O1145 C1130 1.256 . S
O1146 La1121 2.521 . S
O1146 C1131 1.261 . S
O1147 La1121 2.628 . S
O1147 C1131 1.243 . S
O1148 La1121 2.554 . S
O1148 C1138 1.240 . S
O1149 La1120 2.482 . S
O1149 La1121 2.757 . S
O1149 C1138 1.289 . S
O1150 La1121 2.470 . S
O1150 C1139 1.258 . S
O1151 La1120 2.503 . S
O1151 C1139 1.256 . S
H1152 C1124 0.930 . S
H1153 C1125 0.930 . S
H1154 C1127 0.929 . S
H1155 C1128 0.929 1_554 S
H1156 C1133 0.930 . S
H1157 C1134 0.930 . S
H1158 C1136 0.929 . S
H1159 C1137 0.929 . S
La1160 C1162 2.928 . S
La1160 O1180 2.521 . S
La1160 O1181 2.628 . S
La1160 O1182 2.554 . S
La1160 O1183 2.757 . S
La1160 O1184 2.470 . S
La1160 O1189 2.482 . S
La1160 O1191 2.503 . S
La1161 C1171 2.928 . S
La1161 O1183 2.482 . S
La1161 O1185 2.503 . S
La1161 O1186 2.521 . S
La1161 O1187 2.628 . S
La1161 O1188 2.554 . S
La1161 O1189 2.757 . S
La1161 O1190 2.470 . S
C1162 La1160 2.928 . S
C1162 C1163 1.503 . S
C1162 O1180 1.261 . S
C1162 O1181 1.243 . S
C1163 C1162 1.503 . S
C1163 C1164 1.394 . S
C1163 C1168 1.373 1_554 S
C1164 C1163 1.394 . S
C1164 C1165 1.380 1_554 S
C1164 H1192 0.930 . S
C1165 C1164 1.380 1_556 S
C1165 C1166 1.376 . S
C1165 H1193 0.930 . S
C1166 C1165 1.376 . S
C1166 C1167 1.370 . S
C1167 C1166 1.370 . S
C1167 C1168 1.396 . S
C1167 H1194 0.929 . S
C1168 C1163 1.373 1_556 S
C1168 C1167 1.396 . S
C1168 H1195 0.929 1_556 S
C1169 O1182 1.240 . S
C1169 O1183 1.289 . S
C1170 O1184 1.258 . S
C1170 O1185 1.256 . S
C1171 La1161 2.928 . S
C1171 C1172 1.503 . S
C1171 O1186 1.261 . S
C1171 O1187 1.243 . S
C1172 C1171 1.503 . S
C1172 C1173 1.394 . S
C1172 C1177 1.373 . S
C1173 C1172 1.394 . S
C1173 C1174 1.380 . S
C1173 H1196 0.930 . S
C1174 C1173 1.380 . S
C1174 C1175 1.376 . S
C1174 H1197 0.930 . S
C1175 C1174 1.376 . S
C1175 C1176 1.370 . S
C1176 C1175 1.370 . S
C1176 C1177 1.396 . S
C1176 H1198 0.929 . S
C1177 C1172 1.373 . S
C1177 C1176 1.396 . S
C1177 H1199 0.929 . S
C1178 O1188 1.240 . S
C1178 O1189 1.289 . S
C1179 O1190 1.258 . S
C1179 O1191 1.256 . S
O1180 La1160 2.521 . S
O1180 C1162 1.261 . S
O1181 La1160 2.628 . S
O1181 C1162 1.243 . S
O1182 La1160 2.554 . S
O1182 C1169 1.240 . S
O1183 La1160 2.757 . S
O1183 La1161 2.482 . S
O1183 C1169 1.289 . S
O1184 La1160 2.470 . S
O1184 C1170 1.258 . S
O1185 La1161 2.503 . S
O1185 C1170 1.256 . S
O1186 La1161 2.521 . S
O1186 C1171 1.261 . S
O1187 La1161 2.628 . S
O1187 C1171 1.243 . S
O1188 La1161 2.554 . S
O1188 C1178 1.240 . S
O1189 La1160 2.482 . S
O1189 La1161 2.757 . S
O1189 C1178 1.289 . S
O1190 La1161 2.470 . S
O1190 C1179 1.258 . S
O1191 La1160 2.503 . S
O1191 C1179 1.256 . S
H1192 C1164 0.930 . S
H1193 C1165 0.930 . S
H1194 C1167 0.929 . S
H1195 C1168 0.929 1_554 S
H1196 C1173 0.930 . S
H1197 C1174 0.930 . S
H1198 C1176 0.929 . S
H1199 C1177 0.929 . S
La1200 C1202 2.928 . S
La1200 O1220 2.521 . S
La1200 O1221 2.628 . S
La1200 O1222 2.554 . S
La1200 O1223 2.757 . S
La1200 O1224 2.470 . S
La1200 O1229 2.482 . S
La1200 O1231 2.503 . S
La1201 C1211 2.928 . S
La1201 O1223 2.482 . S
La1201 O1225 2.503 . S
La1201 O1226 2.521 . S
La1201 O1227 2.628 . S
La1201 O1228 2.554 . S
La1201 O1229 2.757 . S
La1201 O1230 2.470 . S
C1202 La1200 2.928 . S
C1202 C1203 1.503 . S
C1202 O1220 1.261 . S
C1202 O1221 1.243 . S
C1203 C1202 1.503 . S
C1203 C1204 1.394 . S
C1203 C1208 1.373 . S
C1204 C1203 1.394 . S
C1204 C1205 1.380 . S
C1204 H1232 0.930 . S
C1205 C1204 1.380 . S
C1205 C1206 1.376 . S
C1205 H1233 0.930 . S
C1206 C1205 1.376 . S
C1206 C1207 1.370 . S
C1207 C1206 1.370 . S
C1207 C1208 1.396 . S
C1207 H1234 0.929 . S
C1208 C1203 1.373 . S
C1208 C1207 1.396 . S
C1208 H1235 0.929 . S
C1209 O1222 1.240 . S
C1209 O1223 1.289 . S
C1210 O1224 1.258 . S
C1210 O1225 1.256 . S
C1211 La1201 2.928 . S
C1211 C1212 1.503 . S
C1211 O1226 1.261 . S
C1211 O1227 1.243 . S
C1212 C1211 1.503 . S
C1212 C1213 1.394 . S
C1212 C1217 1.373 . S
C1213 C1212 1.394 . S
C1213 C1214 1.380 . S
C1213 H1236 0.930 . S
C1214 C1213 1.380 . S
C1214 C1215 1.376 . S
C1214 H1237 0.930 . S
C1215 C1214 1.376 . S
C1215 C1216 1.370 . S
C1216 C1215 1.370 . S
C1216 C1217 1.396 . S
C1216 H1238 0.929 . S
C1217 C1212 1.373 . S
C1217 C1216 1.396 . S
C1217 H1239 0.929 . S
C1218 O1228 1.240 . S
C1218 O1229 1.289 . S
C1219 O1230 1.258 . S
C1219 O1231 1.256 . S
O1220 La1200 2.521 . S
O1220 C1202 1.261 . S
O1221 La1200 2.628 . S
O1221 C1202 1.243 . S
O1222 La1200 2.554 . S
O1222 C1209 1.240 . S
O1223 La1200 2.757 . S
O1223 La1201 2.482 . S
O1223 C1209 1.289 . S
O1224 La1200 2.470 . S
O1224 C1210 1.258 . S
O1225 La1201 2.503 . S
O1225 C1210 1.256 . S
O1226 La1201 2.521 . S
O1226 C1211 1.261 . S
O1227 La1201 2.628 . S
O1227 C1211 1.243 . S
O1228 La1201 2.554 . S
O1228 C1218 1.240 . S
O1229 La1200 2.482 . S
O1229 La1201 2.757 . S
O1229 C1218 1.289 . S
O1230 La1201 2.470 . S
O1230 C1219 1.258 . S
O1231 La1200 2.503 . S
O1231 C1219 1.256 . S
H1232 C1204 0.930 . S
H1233 C1205 0.930 . S
H1234 C1207 0.929 . S
H1235 C1208 0.929 . S
H1236 C1213 0.930 . S
H1237 C1214 0.930 . S
H1238 C1216 0.929 . S
H1239 C1217 0.929 . S
La1240 C1242 2.928 . S
La1240 O1260 2.521 . S
La1240 O1261 2.628 . S
La1240 O1262 2.554 . S
La1240 O1263 2.757 . S
La1240 O1264 2.470 . S
La1240 O1269 2.482 . S
La1240 O1271 2.503 . S
La1241 C1251 2.928 . S
La1241 O1263 2.482 . S
La1241 O1265 2.503 . S
La1241 O1266 2.521 . S
La1241 O1267 2.628 . S
La1241 O1268 2.554 . S
La1241 O1269 2.757 . S
La1241 O1270 2.470 . S
C1242 La1240 2.928 . S
C1242 C1243 1.503 . S
C1242 O1260 1.261 . S
C1242 O1261 1.243 . S
C1243 C1242 1.503 . S
C1243 C1244 1.394 . S
C1243 C1248 1.373 . S
C1244 C1243 1.394 . S
C1244 C1245 1.380 . S
C1244 H1272 0.930 . S
C1245 C1244 1.380 . S
C1245 C1246 1.376 . S
C1245 H1273 0.930 . S
C1246 C1245 1.376 . S
C1246 C1247 1.370 . S
C1247 C1246 1.370 . S
C1247 C1248 1.396 . S
C1247 H1274 0.929 . S
C1248 C1243 1.373 . S
C1248 C1247 1.396 . S
C1248 H1275 0.929 . S
C1249 O1262 1.240 . S
C1249 O1263 1.289 . S
C1250 O1264 1.258 . S
C1250 O1265 1.256 . S
C1251 La1241 2.928 . S
C1251 C1252 1.503 . S
C1251 O1266 1.261 . S
C1251 O1267 1.243 . S
C1252 C1251 1.503 . S
C1252 C1253 1.394 . S
C1252 C1257 1.373 . S
C1253 C1252 1.394 . S
C1253 C1254 1.380 . S
C1253 H1276 0.930 . S
C1254 C1253 1.380 . S
C1254 C1255 1.376 . S
C1254 H1277 0.930 . S
C1255 C1254 1.376 . S
C1255 C1256 1.370 . S
C1256 C1255 1.370 . S
C1256 C1257 1.396 . S
C1256 H1278 0.929 . S
C1257 C1252 1.373 . S
C1257 C1256 1.396 . S
C1257 H1279 0.929 . S
C1258 O1268 1.240 . S
C1258 O1269 1.289 . S
C1259 O1270 1.258 . S
C1259 O1271 1.256 . S
O1260 La1240 2.521 . S
O1260 C1242 1.261 . S
O1261 La1240 2.628 . S
O1261 C1242 1.243 . S
O1262 La1240 2.554 . S
O1262 C1249 1.240 . S
O1263 La1240 2.757 . S
O1263 La1241 2.482 . S
O1263 C1249 1.289 . S
O1264 La1240 2.470 . S
O1264 C1250 1.258 . S
O1265 La1241 2.503 . S
O1265 C1250 1.256 . S
O1266 La1241 2.521 . S
O1266 C1251 1.261 . S
O1267 La1241 2.628 . S
O1267 C1251 1.243 . S
O1268 La1241 2.554 . S
O1268 C1258 1.240 . S
O1269 La1240 2.482 . S
O1269 La1241 2.757 . S
O1269 C1258 1.289 . S
O1270 La1241 2.470 . S
O1270 C1259 1.258 . S
O1271 La1240 2.503 . S
O1271 C1259 1.256 . S
H1272 C1244 0.930 . S
H1273 C1245 0.930 . S
H1274 C1247 0.929 . S
H1275 C1248 0.929 . S
H1276 C1253 0.930 . S
H1277 C1254 0.930 . S
H1278 C1256 0.929 . S
H1279 C1257 0.929 . S
La1280 C1282 2.928 . S
La1280 O1300 2.521 . S
La1280 O1301 2.628 . S
La1280 O1302 2.554 . S
La1280 O1303 2.757 . S
La1280 O1304 2.470 . S
La1280 O1309 2.482 . S
La1280 O1311 2.503 . S
La1281 C1291 2.928 . S
La1281 O1303 2.482 . S
La1281 O1305 2.503 . S
La1281 O1306 2.521 . S
La1281 O1307 2.628 . S
La1281 O1308 2.554 . S
La1281 O1309 2.757 . S
La1281 O1310 2.470 . S
C1282 La1280 2.928 . S
C1282 C1283 1.503 . S
C1282 O1300 1.261 . S
C1282 O1301 1.243 . S
C1283 C1282 1.503 . S
C1283 C1284 1.394 . S
C1283 C1288 1.373 . S
C1284 C1283 1.394 . S
C1284 C1285 1.380 . S
C1284 H1312 0.930 . S
C1285 C1284 1.380 . S
C1285 C1286 1.376 . S
C1285 H1313 0.930 . S
C1286 C1285 1.376 . S
C1286 C1287 1.370 . S
C1287 C1286 1.370 . S
C1287 C1288 1.396 . S
C1287 H1314 0.929 . S
C1288 C1283 1.373 . S
C1288 C1287 1.396 . S
C1288 H1315 0.929 . S
C1289 O1302 1.240 . S
C1289 O1303 1.289 . S
C1290 O1304 1.258 . S
C1290 O1305 1.256 . S
C1291 La1281 2.928 . S
C1291 C1292 1.503 . S
C1291 O1306 1.261 . S
C1291 O1307 1.243 . S
C1292 C1291 1.503 . S
C1292 C1293 1.394 . S
C1292 C1297 1.373 . S
C1293 C1292 1.394 . S
C1293 C1294 1.380 . S
C1293 H1316 0.930 . S
C1294 C1293 1.380 . S
C1294 C1295 1.376 . S
C1294 H1317 0.930 . S
C1295 C1294 1.376 . S
C1295 C1296 1.370 . S
C1296 C1295 1.370 . S
C1296 C1297 1.396 . S
C1296 H1318 0.929 . S
C1297 C1292 1.373 . S
C1297 C1296 1.396 . S
C1297 H1319 0.929 . S
C1298 O1308 1.240 . S
C1298 O1309 1.289 . S
C1299 O1310 1.258 . S
C1299 O1311 1.256 . S
O1300 La1280 2.521 . S
O1300 C1282 1.261 . S
O1301 La1280 2.628 . S
O1301 C1282 1.243 . S
O1302 La1280 2.554 . S
O1302 C1289 1.240 . S
O1303 La1280 2.757 . S
O1303 La1281 2.482 . S
O1303 C1289 1.289 . S
O1304 La1280 2.470 . S
O1304 C1290 1.258 . S
O1305 La1281 2.503 . S
O1305 C1290 1.256 . S
O1306 La1281 2.521 . S
O1306 C1291 1.261 . S
O1307 La1281 2.628 . S
O1307 C1291 1.243 . S
O1308 La1281 2.554 . S
O1308 C1298 1.240 . S
O1309 La1280 2.482 . S
O1309 La1281 2.757 . S
O1309 C1298 1.289 . S
O1310 La1281 2.470 . S
O1310 C1299 1.258 . S
O1311 La1280 2.503 . S
O1311 C1299 1.256 . S
H1312 C1284 0.930 . S
H1313 C1285 0.930 . S
H1314 C1287 0.929 . S
H1315 C1288 0.929 . S
H1316 C1293 0.930 . S
H1317 C1294 0.930 . S
H1318 C1296 0.929 . S
H1319 C1297 0.929 . S
La1320 C1322 2.928 . S
La1320 O1340 2.521 . S
La1320 O1341 2.628 . S
La1320 O1342 2.554 . S
La1320 O1343 2.757 . S
La1320 O1344 2.470 . S
La1320 O1349 2.482 . S
La1320 O1351 2.503 . S
La1321 C1331 2.928 . S
La1321 O1343 2.482 . S
La1321 O1345 2.503 . S
La1321 O1346 2.521 . S
La1321 O1347 2.628 . S
La1321 O1348 2.554 . S
La1321 O1349 2.757 . S
La1321 O1350 2.470 . S
C1322 La1320 2.928 . S
C1322 C1323 1.503 . S
C1322 O1340 1.261 . S
C1322 O1341 1.243 . S
C1323 C1322 1.503 . S
C1323 C1324 1.394 . S
C1323 C1328 1.373 . S
C1324 C1323 1.394 . S
C1324 C1325 1.380 . S
C1324 H1352 0.930 . S
C1325 C1324 1.380 . S
C1325 C1326 1.376 . S
C1325 H1353 0.930 . S
C1326 C1325 1.376 . S
C1326 C1327 1.370 . S
C1327 C1326 1.370 . S
C1327 C1328 1.396 . S
C1327 H1354 0.929 . S
C1328 C1323 1.373 . S
C1328 C1327 1.396 . S
C1328 H1355 0.929 . S
C1329 O1342 1.240 . S
C1329 O1343 1.289 . S
C1330 O1344 1.258 . S
C1330 O1345 1.256 . S
C1331 La1321 2.928 . S
C1331 C1332 1.503 . S
C1331 O1346 1.261 . S
C1331 O1347 1.243 . S
C1332 C1331 1.503 . S
C1332 C1333 1.394 . S
C1332 C1337 1.373 . S
C1333 C1332 1.394 . S
C1333 C1334 1.380 . S
C1333 H1356 0.930 . S
C1334 C1333 1.380 . S
C1334 C1335 1.376 . S
C1334 H1357 0.930 . S
C1335 C1334 1.376 . S
C1335 C1336 1.370 . S
C1336 C1335 1.370 . S
C1336 C1337 1.396 . S
C1336 H1358 0.929 . S
C1337 C1332 1.373 . S
C1337 C1336 1.396 . S
C1337 H1359 0.929 . S
C1338 O1348 1.240 . S
C1338 O1349 1.289 . S
C1339 O1350 1.258 . S
C1339 O1351 1.256 . S
O1340 La1320 2.521 . S
O1340 C1322 1.261 . S
O1341 La1320 2.628 . S
O1341 C1322 1.243 . S
O1342 La1320 2.554 . S
O1342 C1329 1.240 . S
O1343 La1320 2.757 . S
O1343 La1321 2.482 . S
O1343 C1329 1.289 . S
O1344 La1320 2.470 . S
O1344 C1330 1.258 . S
O1345 La1321 2.503 . S
O1345 C1330 1.256 . S
O1346 La1321 2.521 . S
O1346 C1331 1.261 . S
O1347 La1321 2.628 . S
O1347 C1331 1.243 . S
O1348 La1321 2.554 . S
O1348 C1338 1.240 . S
O1349 La1320 2.482 . S
O1349 La1321 2.757 . S
O1349 C1338 1.289 . S
O1350 La1321 2.470 . S
O1350 C1339 1.258 . S
O1351 La1320 2.503 . S
O1351 C1339 1.256 . S
H1352 C1324 0.930 . S
H1353 C1325 0.930 . S
H1354 C1327 0.929 . S
H1355 C1328 0.929 . S
H1356 C1333 0.930 . S
H1357 C1334 0.930 . S
H1358 C1336 0.929 . S
H1359 C1337 0.929 . S
La1360 C1362 2.928 . S
La1360 O1380 2.521 . S
La1360 O1381 2.628 . S
La1360 O1382 2.554 . S
La1360 O1383 2.757 . S
La1360 O1384 2.470 . S
La1360 O1389 2.482 . S
La1360 O1391 2.503 . S
La1361 C1371 2.928 . S
La1361 O1383 2.482 . S
La1361 O1385 2.503 . S
La1361 O1386 2.521 . S
La1361 O1387 2.628 . S
La1361 O1388 2.554 . S
La1361 O1389 2.757 . S
La1361 O1390 2.470 . S
C1362 La1360 2.928 . S
C1362 C1363 1.503 . S
C1362 O1380 1.261 . S
C1362 O1381 1.243 . S
C1363 C1362 1.503 . S
C1363 C1364 1.394 . S
C1363 C1368 1.373 . S
C1364 C1363 1.394 . S
C1364 C1365 1.380 . S
C1364 H1392 0.930 . S
C1365 C1364 1.380 . S
C1365 C1366 1.376 . S
C1365 H1393 0.930 . S
C1366 C1365 1.376 . S
C1366 C1367 1.370 . S
C1367 C1366 1.370 . S
C1367 C1368 1.396 . S
C1367 H1394 0.929 . S
C1368 C1363 1.373 . S
C1368 C1367 1.396 . S
C1368 H1395 0.929 . S
C1369 O1382 1.240 . S
C1369 O1383 1.289 . S
C1370 O1384 1.258 . S
C1370 O1385 1.256 . S
C1371 La1361 2.928 . S
C1371 C1372 1.503 . S
C1371 O1386 1.261 . S
C1371 O1387 1.243 . S
C1372 C1371 1.503 . S
C1372 C1373 1.394 . S
C1372 C1377 1.373 . S
C1373 C1372 1.394 . S
C1373 C1374 1.380 . S
C1373 H1396 0.930 . S
C1374 C1373 1.380 . S
C1374 C1375 1.376 . S
C1374 H1397 0.930 . S
C1375 C1374 1.376 . S
C1375 C1376 1.370 . S
C1376 C1375 1.370 . S
C1376 C1377 1.396 . S
C1376 H1398 0.929 . S
C1377 C1372 1.373 . S
C1377 C1376 1.396 . S
C1377 H1399 0.929 . S
C1378 O1388 1.240 . S
C1378 O1389 1.289 . S
C1379 O1390 1.258 . S
C1379 O1391 1.256 . S
O1380 La1360 2.521 . S
O1380 C1362 1.261 . S
O1381 La1360 2.628 . S
O1381 C1362 1.243 . S
O1382 La1360 2.554 . S
O1382 C1369 1.240 . S
O1383 La1360 2.757 . S
O1383 La1361 2.482 . S
O1383 C1369 1.289 . S
O1384 La1360 2.470 . S
O1384 C1370 1.258 . S
O1385 La1361 2.503 . S
O1385 C1370 1.256 . S
O1386 La1361 2.521 . S
O1386 C1371 1.261 . S
O1387 La1361 2.628 . S
O1387 C1371 1.243 . S
O1388 La1361 2.554 . S
O1388 C1378 1.240 . S
O1389 La1360 2.482 . S
O1389 La1361 2.757 . S
O1389 C1378 1.289 . S
O1390 La1361 2.470 . S
O1390 C1379 1.258 . S
O1391 La1360 2.503 . S
O1391 C1379 1.256 . S
H1392 C1364 0.930 . S
H1393 C1365 0.930 . S
H1394 C1367 0.929 . S
H1395 C1368 0.929 . S
H1396 C1373 0.930 . S
H1397 C1374 0.930 . S
H1398 C1376 0.929 . S
H1399 C1377 0.929 . S
La1400 C1402 2.928 . S
La1400 O1420 2.521 . S
La1400 O1421 2.628 . S
La1400 O1422 2.554 . S
La1400 O1423 2.757 . S
La1400 O1424 2.470 . S
La1400 O1429 2.482 . S
La1400 O1431 2.503 . S
La1401 C1411 2.928 . S
La1401 O1423 2.482 . S
La1401 O1425 2.503 . S
La1401 O1426 2.521 . S
La1401 O1427 2.628 . S
La1401 O1428 2.554 . S
La1401 O1429 2.757 . S
La1401 O1430 2.470 . S
C1402 La1400 2.928 . S
C1402 C1403 1.503 . S
C1402 O1420 1.261 . S
C1402 O1421 1.243 . S
C1403 C1402 1.503 . S
C1403 C1404 1.394 . S
C1403 C1408 1.373 . S
C1404 C1403 1.394 . S
C1404 C1405 1.380 . S
C1404 H1432 0.930 . S
C1405 C1404 1.380 . S
C1405 C1406 1.376 . S
C1405 H1433 0.930 . S
C1406 C1405 1.376 . S
C1406 C1407 1.370 . S
C1407 C1406 1.370 . S
C1407 C1408 1.396 . S
C1407 H1434 0.929 . S
C1408 C1403 1.373 . S
C1408 C1407 1.396 . S
C1408 H1435 0.929 . S
C1409 O1422 1.240 . S
C1409 O1423 1.289 . S
C1410 O1424 1.258 . S
C1410 O1425 1.256 . S
C1411 La1401 2.928 . S
C1411 C1412 1.503 . S
C1411 O1426 1.261 . S
C1411 O1427 1.243 . S
C1412 C1411 1.503 . S
C1412 C1413 1.394 . S
C1412 C1417 1.373 . S
C1413 C1412 1.394 . S
C1413 C1414 1.380 . S
C1413 H1436 0.930 . S
C1414 C1413 1.380 . S
C1414 C1415 1.376 . S
C1414 H1437 0.930 . S
C1415 C1414 1.376 . S
C1415 C1416 1.370 . S
C1416 C1415 1.370 . S
C1416 C1417 1.396 . S
C1416 H1438 0.929 . S
C1417 C1412 1.373 . S
C1417 C1416 1.396 . S
C1417 H1439 0.929 . S
C1418 O1428 1.240 . S
C1418 O1429 1.289 . S
C1419 O1430 1.258 . S
C1419 O1431 1.256 . S
O1420 La1400 2.521 . S
O1420 C1402 1.261 . S
O1421 La1400 2.628 . S
O1421 C1402 1.243 . S
O1422 La1400 2.554 . S
O1422 C1409 1.240 . S
O1423 La1400 2.757 . S
O1423 La1401 2.482 . S
O1423 C1409 1.289 . S
O1424 La1400 2.470 . S
O1424 C1410 1.258 . S
O1425 La1401 2.503 . S
O1425 C1410 1.256 . S
O1426 La1401 2.521 . S
O1426 C1411 1.261 . S
O1427 La1401 2.628 . S
O1427 C1411 1.243 . S
O1428 La1401 2.554 . S
O1428 C1418 1.240 . S
O1429 La1400 2.482 . S
O1429 La1401 2.757 . S
O1429 C1418 1.289 . S
O1430 La1401 2.470 . S
O1430 C1419 1.258 . S
O1431 La1400 2.503 . S
O1431 C1419 1.256 . S
H1432 C1404 0.930 . S
H1433 C1405 0.930 . S
H1434 C1407 0.929 . S
H1435 C1408 0.929 . S
H1436 C1413 0.930 . S
H1437 C1414 0.930 . S
H1438 C1416 0.929 . S
H1439 C1417 0.929 . S
C1440 C1441 1.363 . S
C1440 C1446 1.379 1_556 S
C1440 N1448 1.356 . S
C1441 C1440 1.363 . S
C1441 C1447 1.363 . S
C1442 C1443 1.363 . S
C1442 C1447 1.379 1_554 S
C1442 N1449 1.356 . S
C1443 C1442 1.363 . S
C1443 C1446 1.363 . S
N1444 C1446 1.356 . S
N1444 H1456 0.984 . S
N1444 H1457 0.985 . S
N1445 C1447 1.356 . S
N1445 H1450 0.984 . S
N1445 H1451 0.985 . S
C1446 C1440 1.379 1_554 S
C1446 C1443 1.363 . S
C1446 N1444 1.356 . S
C1447 C1441 1.363 . S
C1447 C1442 1.379 1_556 S
C1447 N1445 1.356 . S
N1448 C1440 1.356 . S
N1448 H1454 0.984 . S
N1448 H1455 0.984 . S
N1449 C1442 1.356 . S
N1449 H1452 0.984 . S
N1449 H1453 0.985 . S
H1450 N1445 0.984 . S
H1451 N1445 0.985 . S
H1452 N1449 0.984 . S
H1453 N1449 0.985 . S
H1454 N1448 0.984 . S
H1455 N1448 0.984 . S
H1456 N1444 0.984 . S
H1457 N1444 0.985 . S
C1458 C1459 1.363 . S
C1458 C1464 1.379 1_556 S
C1458 N1466 1.356 . S
C1459 C1458 1.363 . S
C1459 C1465 1.363 . S
C1460 C1461 1.363 . S
C1460 C1465 1.379 1_554 S
C1460 N1467 1.356 . S
C1461 C1460 1.363 . S
C1461 C1464 1.363 . S
N1462 C1464 1.356 . S
N1462 H1474 0.984 . S
N1462 H1475 0.985 . S
N1463 C1465 1.356 . S
N1463 H1468 0.984 . S
N1463 H1469 0.985 . S
C1464 C1458 1.379 1_554 S
C1464 C1461 1.363 . S
C1464 N1462 1.356 . S
C1465 C1459 1.363 . S
C1465 C1460 1.379 1_556 S
C1465 N1463 1.356 . S
N1466 C1458 1.356 . S
N1466 H1472 0.984 . S
N1466 H1473 0.984 . S
N1467 C1460 1.356 . S
N1467 H1470 0.984 . S
N1467 H1471 0.985 . S
H1468 N1463 0.984 . S
H1469 N1463 0.985 . S
H1470 N1467 0.984 . S
H1471 N1467 0.985 . S
H1472 N1466 0.984 . S
H1473 N1466 0.984 . S
H1474 N1462 0.984 . S
H1475 N1462 0.985 . S
C1476 C1477 1.363 . S
C1476 C1482 1.379 1_554 S
C1476 N1484 1.356 . S
C1477 C1476 1.363 . S
C1477 C1483 1.363 . S
C1478 C1479 1.363 . S
C1478 C1483 1.379 1_556 S
C1478 N1485 1.356 . S
C1479 C1478 1.363 . S
C1479 C1482 1.363 . S
N1480 C1482 1.356 . S
N1480 H1492 0.984 . S
N1480 H1493 0.985 . S
N1481 C1483 1.356 . S
N1481 H1486 0.984 . S
N1481 H1487 0.985 . S
C1482 C1476 1.379 1_556 S
C1482 C1479 1.363 . S
C1482 N1480 1.356 . S
C1483 C1477 1.363 . S
C1483 C1478 1.379 1_554 S
C1483 N1481 1.356 . S
N1484 C1476 1.356 . S
N1484 H1490 0.984 . S
N1484 H1491 0.984 . S
N1485 C1478 1.356 . S
N1485 H1488 0.984 . S
N1485 H1489 0.985 . S
H1486 N1481 0.984 . S
H1487 N1481 0.985 . S
H1488 N1485 0.984 . S
H1489 N1485 0.985 . S
H1490 N1484 0.984 . S
H1491 N1484 0.984 . S
H1492 N1480 0.984 . S
H1493 N1480 0.985 . S
C1494 C1495 1.363 . S
C1494 C1500 1.379 . S
C1494 N1502 1.356 . S
C1495 C1494 1.363 . S
C1495 C1501 1.363 . S
C1496 C1497 1.363 . S
C1496 C1501 1.379 . S
C1496 N1503 1.356 . S
C1497 C1496 1.363 . S
C1497 C1500 1.363 . S
N1498 C1500 1.356 . S
N1498 H1510 0.984 . S
N1498 H1511 0.985 . S
N1499 C1501 1.356 . S
N1499 H1504 0.984 . S
N1499 H1505 0.985 . S
C1500 C1494 1.379 . S
C1500 C1497 1.363 . S
C1500 N1498 1.356 . S
C1501 C1495 1.363 . S
C1501 C1496 1.379 . S
C1501 N1499 1.356 . S
N1502 C1494 1.356 . S
N1502 H1508 0.984 . S
N1502 H1509 0.984 . S
N1503 C1496 1.356 . S
N1503 H1506 0.984 . S
N1503 H1507 0.985 . S
H1504 N1499 0.984 . S
H1505 N1499 0.985 . S
H1506 N1503 0.984 . S
H1507 N1503 0.985 . S
H1508 N1502 0.984 . S
H1509 N1502 0.984 . S
H1510 N1498 0.984 . S
H1511 N1498 0.985 . S
C1512 C1513 1.363 . S
C1512 C1518 1.379 . S
C1512 N1520 1.356 . S
C1513 C1512 1.363 . S
C1513 C1519 1.363 . S
C1514 C1515 1.363 . S
C1514 C1519 1.379 . S
C1514 N1521 1.356 . S
C1515 C1514 1.363 . S
C1515 C1518 1.363 . S
N1516 C1518 1.356 . S
N1516 H1528 0.984 . S
N1516 H1529 0.985 . S
N1517 C1519 1.356 . S
N1517 H1522 0.984 . S
N1517 H1523 0.985 . S
C1518 C1512 1.379 . S
C1518 C1515 1.363 . S
C1518 N1516 1.356 . S
C1519 C1513 1.363 . S
C1519 C1514 1.379 . S
C1519 N1517 1.356 . S
N1520 C1512 1.356 . S
N1520 H1526 0.984 . S
N1520 H1527 0.984 . S
N1521 C1514 1.356 . S
N1521 H1524 0.984 . S
N1521 H1525 0.985 . S
H1522 N1517 0.984 . S
H1523 N1517 0.985 . S
H1524 N1521 0.984 . S
H1525 N1521 0.985 . S
H1526 N1520 0.984 . S
H1527 N1520 0.984 . S
H1528 N1516 0.984 . S
H1529 N1516 0.985 . S
C1530 C1531 1.363 . S
C1530 C1536 1.379 . S
C1530 N1538 1.356 . S
C1531 C1530 1.363 . S
C1531 C1537 1.363 . S
C1532 C1533 1.363 . S
C1532 C1537 1.379 . S
C1532 N1539 1.356 . S
C1533 C1532 1.363 . S
C1533 C1536 1.363 . S
N1534 C1536 1.356 . S
N1534 H1546 0.984 . S
N1534 H1547 0.985 . S
N1535 C1537 1.356 . S
N1535 H1540 0.984 . S
N1535 H1541 0.985 . S
C1536 C1530 1.379 . S
C1536 C1533 1.363 . S
C1536 N1534 1.356 . S
C1537 C1531 1.363 . S
C1537 C1532 1.379 . S
C1537 N1535 1.356 . S
N1538 C1530 1.356 . S
N1538 H1544 0.984 . S
N1538 H1545 0.984 . S
N1539 C1532 1.356 . S
N1539 H1542 0.984 . S
N1539 H1543 0.985 . S
H1540 N1535 0.984 . S
H1541 N1535 0.985 . S
H1542 N1539 0.984 . S
H1543 N1539 0.985 . S
H1544 N1538 0.984 . S
H1545 N1538 0.984 . S
H1546 N1534 0.984 . S
H1547 N1534 0.985 . S
C1548 C1549 1.363 . S
C1548 C1554 1.379 . S
C1548 N1556 1.356 . S
C1549 C1548 1.363 . S
C1549 C1555 1.363 . S
C1550 C1551 1.363 . S
C1550 C1555 1.379 . S
C1550 N1557 1.356 . S
C1551 C1550 1.363 . S
C1551 C1554 1.363 . S
N1552 C1554 1.356 . S
N1552 H1564 0.984 . S
N1552 H1565 0.985 . S
N1553 C1555 1.356 . S
N1553 H1558 0.984 . S
N1553 H1559 0.985 . S
C1554 C1548 1.379 . S
C1554 C1551 1.363 . S
C1554 N1552 1.356 . S
C1555 C1549 1.363 . S
C1555 C1550 1.379 . S
C1555 N1553 1.356 . S
N1556 C1548 1.356 . S
N1556 H1562 0.984 . S
N1556 H1563 0.984 . S
N1557 C1550 1.356 . S
N1557 H1560 0.984 . S
N1557 H1561 0.985 . S
H1558 N1553 0.984 . S
H1559 N1553 0.985 . S
H1560 N1557 0.984 . S
H1561 N1557 0.985 . S
H1562 N1556 0.984 . S
H1563 N1556 0.984 . S
H1564 N1552 0.984 . S
H1565 N1552 0.985 . S
C1566 C1567 1.363 . S
C1566 C1572 1.379 . S
C1566 N1574 1.356 . S
C1567 C1566 1.363 . S
C1567 C1573 1.363 . S
C1568 C1569 1.363 . S
C1568 C1573 1.379 . S
C1568 N1575 1.356 . S
C1569 C1568 1.363 . S
C1569 C1572 1.363 . S
N1570 C1572 1.356 . S
N1570 H1582 0.984 . S
N1570 H1583 0.985 . S
N1571 C1573 1.356 . S
N1571 H1576 0.984 . S
N1571 H1577 0.985 . S
C1572 C1566 1.379 . S
C1572 C1569 1.363 . S
C1572 N1570 1.356 . S
C1573 C1567 1.363 . S
C1573 C1568 1.379 . S
C1573 N1571 1.356 . S
N1574 C1566 1.356 . S
N1574 H1580 0.984 . S
N1574 H1581 0.984 . S
N1575 C1568 1.356 . S
N1575 H1578 0.984 . S
N1575 H1579 0.985 . S
H1576 N1571 0.984 . S
H1577 N1571 0.985 . S
H1578 N1575 0.984 . S
H1579 N1575 0.985 . S
H1580 N1574 0.984 . S
H1581 N1574 0.984 . S
H1582 N1570 0.984 . S
H1583 N1570 0.985 . S
C1584 C1585 1.363 . S
C1584 C1590 1.379 . S
C1584 N1592 1.356 . S
C1585 C1584 1.363 . S
C1585 C1591 1.363 . S
C1586 C1587 1.363 . S
C1586 C1591 1.379 . S
C1586 N1593 1.356 . S
C1587 C1586 1.363 . S
C1587 C1590 1.363 . S
N1588 C1590 1.356 . S
N1588 H1600 0.984 . S
N1588 H1601 0.985 . S
N1589 C1591 1.356 . S
N1589 H1594 0.984 . S
N1589 H1595 0.985 . S
C1590 C1584 1.379 . S
C1590 C1587 1.363 . S
C1590 N1588 1.356 . S
C1591 C1585 1.363 . S
C1591 C1586 1.379 . S
C1591 N1589 1.356 . S
N1592 C1584 1.356 . S
N1592 H1598 0.984 . S
N1592 H1599 0.984 . S
N1593 C1586 1.356 . S
N1593 H1596 0.984 . S
N1593 H1597 0.985 . S
H1594 N1589 0.984 . S
H1595 N1589 0.985 . S
H1596 N1593 0.984 . S
H1597 N1593 0.985 . S
H1598 N1592 0.984 . S
H1599 N1592 0.984 . S
H1600 N1588 0.984 . S
H1601 N1588 0.985 . S
C1602 C1603 1.363 . S
C1602 C1608 1.379 . S
C1602 N1610 1.356 . S
C1603 C1602 1.363 . S
C1603 C1609 1.363 . S
C1604 C1605 1.363 . S
C1604 C1609 1.379 . S
C1604 N1611 1.356 . S
C1605 C1604 1.363 . S
C1605 C1608 1.363 . S
N1606 C1608 1.356 . S
N1606 H1618 0.984 . S
N1606 H1619 0.985 . S
N1607 C1609 1.356 . S
N1607 H1612 0.984 . S
N1607 H1613 0.985 . S
C1608 C1602 1.379 . S
C1608 C1605 1.363 . S
C1608 N1606 1.356 . S
C1609 C1603 1.363 . S
C1609 C1604 1.379 . S
C1609 N1607 1.356 . S
N1610 C1602 1.356 . S
N1610 H1616 0.984 . S
N1610 H1617 0.984 . S
N1611 C1604 1.356 . S
N1611 H1614 0.984 . S
N1611 H1615 0.985 . S
H1612 N1607 0.984 . S
H1613 N1607 0.985 . S
H1614 N1611 0.984 . S
H1615 N1611 0.985 . S
H1616 N1610 0.984 . S
H1617 N1610 0.984 . S
H1618 N1606 0.984 . S
H1619 N1606 0.985 . S
C1620 C1621 1.363 . S
C1620 C1626 1.379 . S
C1620 N1628 1.356 . S
C1621 C1620 1.363 . S
C1621 C1627 1.363 . S
C1622 C1623 1.363 . S
C1622 C1627 1.379 . S
C1622 N1629 1.356 . S
C1623 C1622 1.363 . S
C1623 C1626 1.363 . S
N1624 C1626 1.356 . S
N1624 H1636 0.984 . S
N1624 H1637 0.985 . S
N1625 C1627 1.356 . S
N1625 H1630 0.984 . S
N1625 H1631 0.985 . S
C1626 C1620 1.379 . S
C1626 C1623 1.363 . S
C1626 N1624 1.356 . S
C1627 C1621 1.363 . S
C1627 C1622 1.379 . S
C1627 N1625 1.356 . S
N1628 C1620 1.356 . S
N1628 H1634 0.984 . S
N1628 H1635 0.984 . S
N1629 C1622 1.356 . S
N1629 H1632 0.984 . S
N1629 H1633 0.985 . S
H1630 N1625 0.984 . S
H1631 N1625 0.985 . S
H1632 N1629 0.984 . S
H1633 N1629 0.985 . S
H1634 N1628 0.984 . S
H1635 N1628 0.984 . S
H1636 N1624 0.984 . S
H1637 N1624 0.985 . S
C1638 C1639 1.363 . S
C1638 C1644 1.379 . S
C1638 N1646 1.356 . S
C1639 C1638 1.363 . S
C1639 C1645 1.363 . S
C1640 C1641 1.363 . S
C1640 C1645 1.379 . S
C1640 N1647 1.356 . S
C1641 C1640 1.363 . S
C1641 C1644 1.363 . S
N1642 C1644 1.356 . S
N1642 H1654 0.984 . S
N1642 H1655 0.985 . S
N1643 C1645 1.356 . S
N1643 H1648 0.984 . S
N1643 H1649 0.985 . S
C1644 C1638 1.379 . S
C1644 C1641 1.363 . S
C1644 N1642 1.356 . S
C1645 C1639 1.363 . S
C1645 C1640 1.379 . S
C1645 N1643 1.356 . S
N1646 C1638 1.356 . S
N1646 H1652 0.984 . S
N1646 H1653 0.984 . S
N1647 C1640 1.356 . S
N1647 H1650 0.984 . S
N1647 H1651 0.985 . S
H1648 N1643 0.984 . S
H1649 N1643 0.985 . S
H1650 N1647 0.984 . S
H1651 N1647 0.985 . S
H1652 N1646 0.984 . S
H1653 N1646 0.984 . S
H1654 N1642 0.984 . S
H1655 N1642 0.985 . S
C1656 C1657 1.363 . S
C1656 C1662 1.379 . S
C1656 N1664 1.356 . S
C1657 C1656 1.363 . S
C1657 C1663 1.363 . S
C1658 C1659 1.363 . S
C1658 C1663 1.379 . S
C1658 N1665 1.356 . S
C1659 C1658 1.363 . S
C1659 C1662 1.363 . S
N1660 C1662 1.356 . S
N1660 H1672 0.984 . S
N1660 H1673 0.985 . S
N1661 C1663 1.356 . S
N1661 H1666 0.984 . S
N1661 H1667 0.985 . S
C1662 C1656 1.379 . S
C1662 C1659 1.363 . S
C1662 N1660 1.356 . S
C1663 C1657 1.363 . S
C1663 C1658 1.379 . S
C1663 N1661 1.356 . S
N1664 C1656 1.356 . S
N1664 H1670 0.984 . S
N1664 H1671 0.984 . S
N1665 C1658 1.356 . S
N1665 H1668 0.984 . S
N1665 H1669 0.985 . S
H1666 N1661 0.984 . S
H1667 N1661 0.985 . S
H1668 N1665 0.984 . S
H1669 N1665 0.985 . S
H1670 N1664 0.984 . S
H1671 N1664 0.984 . S
H1672 N1660 0.984 . S
H1673 N1660 0.985 . S
C1674 C1675 1.363 . S
C1674 C1680 1.379 . S
C1674 N1682 1.356 . S
C1675 C1674 1.363 . S
C1675 C1681 1.363 1_565 S
C1676 C1677 1.363 . S
C1676 C1681 1.379 . S
C1676 N1683 1.356 . S
C1677 C1676 1.363 . S
C1677 C1680 1.363 1_545 S
N1678 C1680 1.356 . S
N1678 H1690 0.984 . S
N1678 H1691 0.985 . S
N1679 C1681 1.356 . S
N1679 H1684 0.984 . S
N1679 H1685 0.985 . S
C1680 C1674 1.379 . S
C1680 C1677 1.363 1_565 S
C1680 N1678 1.356 . S
C1681 C1675 1.363 1_545 S
C1681 C1676 1.379 . S
C1681 N1679 1.356 . S
N1682 C1674 1.356 . S
N1682 H1688 0.984 . S
N1682 H1689 0.984 . S
N1683 C1676 1.356 . S
N1683 H1686 0.984 . S
N1683 H1687 0.985 . S
H1684 N1679 0.984 . S
H1685 N1679 0.985 . S
H1686 N1683 0.984 . S
H1687 N1683 0.985 . S
H1688 N1682 0.984 . S
H1689 N1682 0.984 . S
H1690 N1678 0.984 . S
H1691 N1678 0.985 . S
C1692 C1693 1.363 . S
C1692 C1698 1.379 . S
C1692 N1700 1.356 . S
C1693 C1692 1.363 . S
C1693 C1699 1.363 1_655 S
C1694 C1695 1.363 . S
C1694 C1699 1.379 . S
C1694 N1701 1.356 . S
C1695 C1694 1.363 . S
C1695 C1698 1.363 1_455 S
N1696 C1698 1.356 . S
N1696 H1708 0.984 . S
N1696 H1709 0.985 . S
N1697 C1699 1.356 . S
N1697 H1702 0.984 . S
N1697 H1703 0.985 . S
C1698 C1692 1.379 . S
C1698 C1695 1.363 1_655 S
C1698 N1696 1.356 . S
C1699 C1693 1.363 1_455 S
C1699 C1694 1.379 . S
C1699 N1697 1.356 . S
N1700 C1692 1.356 . S
N1700 H1706 0.984 . S
N1700 H1707 0.984 . S
N1701 C1694 1.356 . S
N1701 H1704 0.984 . S
N1701 H1705 0.985 . S
H1702 N1697 0.984 . S
H1703 N1697 0.985 . S
H1704 N1701 0.984 . S
H1705 N1701 0.985 . S
H1706 N1700 0.984 . S
H1707 N1700 0.984 . S
H1708 N1696 0.984 . S
H1709 N1696 0.985 . S
C1710 C1711 1.363 . S
C1710 C1716 1.379 . S
C1710 N1718 1.356 . S
C1711 C1710 1.363 . S
C1711 C1717 1.363 . S
C1712 C1713 1.363 . S
C1712 C1717 1.379 . S
C1712 N1719 1.356 . S
C1713 C1712 1.363 . S
C1713 C1716 1.363 . S
N1714 C1716 1.356 . S
N1714 H1726 0.984 . S
N1714 H1727 0.985 . S
N1715 C1717 1.356 . S
N1715 H1720 0.984 . S
N1715 H1721 0.985 . S
C1716 C1710 1.379 . S
C1716 C1713 1.363 . S
C1716 N1714 1.356 . S
C1717 C1711 1.363 . S
C1717 C1712 1.379 . S
C1717 N1715 1.356 . S
N1718 C1710 1.356 . S
N1718 H1724 0.984 . S
N1718 H1725 0.984 . S
N1719 C1712 1.356 . S
N1719 H1722 0.984 . S
N1719 H1723 0.985 . S
H1720 N1715 0.984 . S
H1721 N1715 0.985 . S
H1722 N1719 0.984 . S
H1723 N1719 0.985 . S
H1724 N1718 0.984 . S
H1725 N1718 0.984 . S
H1726 N1714 0.984 . S
H1727 N1714 0.985 . S
C1728 C1729 1.363 1_565 S
C1728 C1734 1.379 . S
C1728 N1736 1.356 . S
C1729 C1728 1.363 1_545 S
C1729 C1735 1.363 . S
C1730 C1731 1.363 1_545 S
C1730 C1735 1.379 . S
C1730 N1737 1.356 . S
C1731 C1730 1.363 1_565 S
C1731 C1734 1.363 . S
N1732 C1734 1.356 . S
N1732 H1744 0.984 . S
N1732 H1745 0.985 . S
N1733 C1735 1.356 . S
N1733 H1738 0.984 . S
N1733 H1739 0.985 . S
C1734 C1728 1.379 . S
C1734 C1731 1.363 . S
C1734 N1732 1.356 . S
C1735 C1729 1.363 . S
C1735 C1730 1.379 . S
C1735 N1733 1.356 . S
N1736 C1728 1.356 . S
N1736 H1742 0.984 . S
N1736 H1743 0.984 . S
N1737 C1730 1.356 . S
N1737 H1740 0.984 . S
N1737 H1741 0.985 . S
H1738 N1733 0.984 . S
H1739 N1733 0.985 . S
H1740 N1737 0.984 . S
H1741 N1737 0.985 . S
H1742 N1736 0.984 . S
H1743 N1736 0.984 . S
H1744 N1732 0.984 . S
H1745 N1732 0.985 . S
C1746 C1747 1.363 . S
C1746 C1752 1.379 . S
C1746 N1754 1.356 . S
C1747 C1746 1.363 . S
C1747 C1753 1.363 1_455 S
C1748 C1749 1.363 . S
C1748 C1753 1.379 . S
C1748 N1755 1.356 . S
C1749 C1748 1.363 . S
C1749 C1752 1.363 1_655 S
N1750 C1752 1.356 . S
N1750 H1762 0.984 . S
N1750 H1763 0.985 . S
N1751 C1753 1.356 . S
N1751 H1756 0.984 . S
N1751 H1757 0.985 . S
C1752 C1746 1.379 . S
C1752 C1749 1.363 1_455 S
C1752 N1750 1.356 . S
C1753 C1747 1.363 1_655 S
C1753 C1748 1.379 . S
C1753 N1751 1.356 . S
N1754 C1746 1.356 . S
N1754 H1760 0.984 . S
N1754 H1761 0.984 . S
N1755 C1748 1.356 . S
N1755 H1758 0.984 . S
N1755 H1759 0.985 . S
H1756 N1751 0.984 . S
H1757 N1751 0.985 . S
H1758 N1755 0.984 . S
H1759 N1755 0.985 . S
H1760 N1754 0.984 . S
H1761 N1754 0.984 . S
H1762 N1750 0.984 . S
H1763 N1750 0.985 . S
C1764 C1765 1.363 . S
C1764 C1770 1.379 1_455 S
C1764 N1772 1.356 . S
C1765 C1764 1.363 . S
C1765 C1771 1.363 . S
C1766 C1767 1.363 . S
C1766 C1771 1.379 1_655 S
C1766 N1773 1.356 . S
C1767 C1766 1.363 . S
C1767 C1770 1.363 . S
N1768 C1770 1.356 . S
N1768 H1780 0.984 . S
N1768 H1781 0.985 . S
N1769 C1771 1.356 . S
N1769 H1774 0.984 . S
N1769 H1775 0.985 . S
C1770 C1764 1.379 1_655 S
C1770 C1767 1.363 . S
C1770 N1768 1.356 . S
C1771 C1765 1.363 . S
C1771 C1766 1.379 1_455 S
C1771 N1769 1.356 . S
N1772 C1764 1.356 . S
N1772 H1778 0.984 . S
N1772 H1779 0.984 . S
N1773 C1766 1.356 . S
N1773 H1776 0.984 . S
N1773 H1777 0.985 . S
H1774 N1769 0.984 . S
H1775 N1769 0.985 . S
H1776 N1773 0.984 . S
H1777 N1773 0.985 . S
H1778 N1772 0.984 . S
H1779 N1772 0.984 . S
H1780 N1768 0.984 . S
H1781 N1768 0.985 . S
C1782 C1783 1.363 . S
C1782 C1788 1.379 . S
C1782 N1790 1.356 . S
C1783 C1782 1.363 . S
C1783 C1789 1.363 . S
C1784 C1785 1.363 . S
C1784 C1789 1.379 . S
C1784 N1791 1.356 . S
C1785 C1784 1.363 . S
C1785 C1788 1.363 . S
N1786 C1788 1.356 . S
N1786 H1798 0.984 . S
N1786 H1799 0.985 . S
N1787 C1789 1.356 . S
N1787 H1792 0.984 . S
N1787 H1793 0.985 . S
C1788 C1782 1.379 . S
C1788 C1785 1.363 . S
C1788 N1786 1.356 . S
C1789 C1783 1.363 . S
C1789 C1784 1.379 . S
C1789 N1787 1.356 . S
N1790 C1782 1.356 . S
N1790 H1796 0.984 . S
N1790 H1797 0.984 . S
N1791 C1784 1.356 . S
N1791 H1794 0.984 . S
N1791 H1795 0.985 . S
H1792 N1787 0.984 . S
H1793 N1787 0.985 . S
H1794 N1791 0.984 . S
H1795 N1791 0.985 . S
H1796 N1790 0.984 . S
H1797 N1790 0.984 . S
H1798 N1786 0.984 . S
H1799 N1786 0.985 . S
C1800 C1801 1.363 1_545 S
C1800 C1806 1.379 . S
C1800 N1808 1.356 . S
C1801 C1800 1.363 1_565 S
C1801 C1807 1.363 . S
C1802 C1803 1.363 1_565 S
C1802 C1807 1.379 . S
C1802 N1809 1.356 . S
C1803 C1802 1.363 1_545 S
C1803 C1806 1.363 . S
N1804 C1806 1.356 . S
N1804 H1816 0.984 . S
N1804 H1817 0.985 . S
N1805 C1807 1.356 . S
N1805 H1810 0.984 . S
N1805 H1811 0.985 . S
C1806 C1800 1.379 . S
C1806 C1803 1.363 . S
C1806 N1804 1.356 . S
C1807 C1801 1.363 . S
C1807 C1802 1.379 . S
C1807 N1805 1.356 . S
N1808 C1800 1.356 . S
N1808 H1814 0.984 . S
N1808 H1815 0.984 1_545 S
N1809 C1802 1.356 . S
N1809 H1812 0.984 1_565 S
N1809 H1813 0.985 . S
H1810 N1805 0.984 . S
H1811 N1805 0.985 . S
H1812 N1809 0.984 1_545 S
H1813 N1809 0.985 . S
H1814 N1808 0.984 . S
H1815 N1808 0.984 1_565 S
H1816 N1804 0.984 . S
H1817 N1804 0.985 . S
C1818 C1819 1.363 1_455 S
C1818 C1824 1.379 . S
C1818 N1826 1.356 . S
C1819 C1818 1.363 1_655 S
C1819 C1825 1.363 . S
C1820 C1821 1.363 1_655 S
C1820 C1825 1.379 . S
C1820 N1827 1.356 . S
C1821 C1820 1.363 1_455 S
C1821 C1824 1.363 . S
N1822 C1824 1.356 . S
N1822 H1834 0.984 . S
N1822 H1835 0.985 . S
N1823 C1825 1.356 . S
N1823 H1828 0.984 . S
N1823 H1829 0.985 . S
C1824 C1818 1.379 . S
C1824 C1821 1.363 . S
C1824 N1822 1.356 . S
C1825 C1819 1.363 . S
C1825 C1820 1.379 . S
C1825 N1823 1.356 . S
N1826 C1818 1.356 . S
N1826 H1832 0.984 . S
N1826 H1833 0.984 1_455 S
N1827 C1820 1.356 . S
N1827 H1830 0.984 1_655 S
N1827 H1831 0.985 . S
H1828 N1823 0.984 . S
H1829 N1823 0.985 . S
H1830 N1827 0.984 1_455 S
H1831 N1827 0.985 . S
H1832 N1826 0.984 . S
H1833 N1826 0.984 1_655 S
H1834 N1822 0.984 . S
H1835 N1822 0.985 . S
C1836 C1837 1.363 . S
C1836 C1842 1.379 . S
C1836 N1844 1.356 . S
C1837 C1836 1.363 . S
C1837 C1843 1.363 . S
C1838 C1839 1.363 . S
C1838 C1843 1.379 . S
C1838 N1845 1.356 . S
C1839 C1838 1.363 . S
C1839 C1842 1.363 . S
N1840 C1842 1.356 . S
N1840 H1852 0.984 . S
N1840 H1853 0.985 . S
N1841 C1843 1.356 . S
N1841 H1846 0.984 . S
N1841 H1847 0.985 . S
C1842 C1836 1.379 . S
C1842 C1839 1.363 . S
C1842 N1840 1.356 . S
C1843 C1837 1.363 . S
C1843 C1838 1.379 . S
C1843 N1841 1.356 . S
N1844 C1836 1.356 . S
N1844 H1850 0.984 . S
N1844 H1851 0.984 . S
N1845 C1838 1.356 . S
N1845 H1848 0.984 . S
N1845 H1849 0.985 . S
H1846 N1841 0.984 . S
H1847 N1841 0.985 . S
H1848 N1845 0.984 . S
H1849 N1845 0.985 . S
H1850 N1844 0.984 . S
H1851 N1844 0.984 . S
H1852 N1840 0.984 . S
H1853 N1840 0.985 . S
C1854 C1855 1.363 . S
C1854 C1860 1.379 . S
C1854 N1862 1.356 . S
C1855 C1854 1.363 . S
C1855 C1861 1.363 1_545 S
C1856 C1857 1.363 . S
C1856 C1861 1.379 . S
C1856 N1863 1.356 . S
C1857 C1856 1.363 . S
C1857 C1860 1.363 1_565 S
N1858 C1860 1.356 . S
N1858 H1870 0.984 . S
N1858 H1871 0.985 1_545 S
N1859 C1861 1.356 . S
N1859 H1864 0.984 1_565 S
N1859 H1865 0.985 . S
C1860 C1854 1.379 . S
C1860 C1857 1.363 1_545 S
C1860 N1858 1.356 . S
C1861 C1855 1.363 1_565 S
C1861 C1856 1.379 . S
C1861 N1859 1.356 . S
N1862 C1854 1.356 . S
N1862 H1868 0.984 . S
N1862 H1869 0.984 . S
N1863 C1856 1.356 . S
N1863 H1866 0.984 . S
N1863 H1867 0.985 . S
H1864 N1859 0.984 1_545 S
H1865 N1859 0.985 . S
H1866 N1863 0.984 . S
H1867 N1863 0.985 . S
H1868 N1862 0.984 . S
H1869 N1862 0.984 . S
H1870 N1858 0.984 . S
H1871 N1858 0.985 1_565 S
C1872 C1873 1.363 . S
C1872 C1878 1.379 . S
C1872 N1880 1.356 . S
C1873 C1872 1.363 . S
C1873 C1879 1.363 . S
C1874 C1875 1.363 . S
C1874 C1879 1.379 . S
C1874 N1881 1.356 . S
C1875 C1874 1.363 . S
C1875 C1878 1.363 . S
N1876 C1878 1.356 . S
N1876 H1888 0.984 . S
N1876 H1889 0.985 . S
N1877 C1879 1.356 . S
N1877 H1882 0.984 . S
N1877 H1883 0.985 . S
C1878 C1872 1.379 . S
C1878 C1875 1.363 . S
C1878 N1876 1.356 . S
C1879 C1873 1.363 . S
C1879 C1874 1.379 . S
C1879 N1877 1.356 . S
N1880 C1872 1.356 . S
N1880 H1886 0.984 . S
N1880 H1887 0.984 . S
N1881 C1874 1.356 . S
N1881 H1884 0.984 . S
N1881 H1885 0.985 . S
H1882 N1877 0.984 . S
H1883 N1877 0.985 . S
H1884 N1881 0.984 . S
H1885 N1881 0.985 . S
H1886 N1880 0.984 . S
H1887 N1880 0.984 . S
H1888 N1876 0.984 . S
H1889 N1876 0.985 . S
C1890 C1891 1.363 . S
C1890 C1896 1.379 . S
C1890 N1898 1.356 . S
C1891 C1890 1.363 . S
C1891 C1897 1.363 . S
C1892 C1893 1.363 . S
C1892 C1897 1.379 . S
C1892 N1899 1.356 . S
C1893 C1892 1.363 . S
C1893 C1896 1.363 . S
N1894 C1896 1.356 . S
N1894 H1906 0.984 . S
N1894 H1907 0.985 . S
N1895 C1897 1.356 . S
N1895 H1900 0.984 . S
N1895 H1901 0.985 . S
C1896 C1890 1.379 . S
C1896 C1893 1.363 . S
C1896 N1894 1.356 . S
C1897 C1891 1.363 . S
C1897 C1892 1.379 . S
C1897 N1895 1.356 . S
N1898 C1890 1.356 . S
N1898 H1904 0.984 . S
N1898 H1905 0.984 . S
N1899 C1892 1.356 . S
N1899 H1902 0.984 . S
N1899 H1903 0.985 . S
H1900 N1895 0.984 . S
H1901 N1895 0.985 . S
H1902 N1899 0.984 . S
H1903 N1899 0.985 . S
H1904 N1898 0.984 . S
H1905 N1898 0.984 . S
H1906 N1894 0.984 . S
H1907 N1894 0.985 . S
C1908 C1909 1.363 . S
C1908 C1914 1.379 . S
C1908 N1916 1.356 . S
C1909 C1908 1.363 . S
C1909 C1915 1.363 . S
C1910 C1911 1.363 . S
C1910 C1915 1.379 . S
C1910 N1917 1.356 . S
C1911 C1910 1.363 . S
C1911 C1914 1.363 . S
N1912 C1914 1.356 . S
N1912 H1924 0.984 . S
N1912 H1925 0.985 . S
N1913 C1915 1.356 . S
N1913 H1918 0.984 . S
N1913 H1919 0.985 . S
C1914 C1908 1.379 . S
C1914 C1911 1.363 . S
C1914 N1912 1.356 . S
C1915 C1909 1.363 . S
C1915 C1910 1.379 . S
C1915 N1913 1.356 . S
N1916 C1908 1.356 . S
N1916 H1922 0.984 . S
N1916 H1923 0.984 . S
N1917 C1910 1.356 . S
N1917 H1920 0.984 . S
N1917 H1921 0.985 . S
H1918 N1913 0.984 . S
H1919 N1913 0.985 . S
H1920 N1917 0.984 . S
H1921 N1917 0.985 . S
H1922 N1916 0.984 . S
H1923 N1916 0.984 . S
H1924 N1912 0.984 . S
H1925 N1912 0.985 . S
C1926 C1927 1.363 . S
C1926 C1932 1.379 . S
C1926 N1934 1.356 . S
C1927 C1926 1.363 . S
C1927 C1933 1.363 . S
C1928 C1929 1.363 . S
C1928 C1933 1.379 . S
C1928 N1935 1.356 . S
C1929 C1928 1.363 . S
C1929 C1932 1.363 . S
N1930 C1932 1.356 . S
N1930 H1942 0.984 . S
N1930 H1943 0.985 . S
N1931 C1933 1.356 . S
N1931 H1936 0.984 . S
N1931 H1937 0.985 . S
C1932 C1926 1.379 . S
C1932 C1929 1.363 . S
C1932 N1930 1.356 . S
C1933 C1927 1.363 . S
C1933 C1928 1.379 . S
C1933 N1931 1.356 . S
N1934 C1926 1.356 . S
N1934 H1940 0.984 . S
N1934 H1941 0.984 . S
N1935 C1928 1.356 . S
N1935 H1938 0.984 . S
N1935 H1939 0.985 . S
H1936 N1931 0.984 . S
H1937 N1931 0.985 . S
H1938 N1935 0.984 . S
H1939 N1935 0.985 . S
H1940 N1934 0.984 . S
H1941 N1934 0.984 . S
H1942 N1930 0.984 . S
H1943 N1930 0.985 . S
C1944 C1945 1.363 . S
C1944 C1950 1.379 . S
C1944 N1952 1.356 . S
C1945 C1944 1.363 . S
C1945 C1951 1.363 . S
C1946 C1947 1.363 . S
C1946 C1951 1.379 . S
C1946 N1953 1.356 . S
C1947 C1946 1.363 . S
C1947 C1950 1.363 . S
N1948 C1950 1.356 . S
N1948 H1960 0.984 . S
N1948 H1961 0.985 . S
N1949 C1951 1.356 . S
N1949 H1954 0.984 . S
N1949 H1955 0.985 . S
C1950 C1944 1.379 . S
C1950 C1947 1.363 . S
C1950 N1948 1.356 . S
C1951 C1945 1.363 . S
C1951 C1946 1.379 . S
C1951 N1949 1.356 . S
N1952 C1944 1.356 . S
N1952 H1958 0.984 . S
N1952 H1959 0.984 . S
N1953 C1946 1.356 . S
N1953 H1956 0.984 . S
N1953 H1957 0.985 . S
H1954 N1949 0.984 . S
H1955 N1949 0.985 . S
H1956 N1953 0.984 . S
H1957 N1953 0.985 . S
H1958 N1952 0.984 . S
H1959 N1952 0.984 . S
H1960 N1948 0.984 . S
H1961 N1948 0.985 . S
C1962 C1963 1.363 . S
C1962 C1968 1.379 . S
C1962 N1970 1.356 . S
C1963 C1962 1.363 . S
C1963 C1969 1.363 . S
C1964 C1965 1.363 . S
C1964 C1969 1.379 . S
C1964 N1971 1.356 . S
C1965 C1964 1.363 . S
C1965 C1968 1.363 . S
N1966 C1968 1.356 . S
N1966 H1978 0.984 . S
N1966 H1979 0.985 . S
N1967 C1969 1.356 . S
N1967 H1972 0.984 . S
N1967 H1973 0.985 . S
C1968 C1962 1.379 . S
C1968 C1965 1.363 . S
C1968 N1966 1.356 . S
C1969 C1963 1.363 . S
C1969 C1964 1.379 . S
C1969 N1967 1.356 . S
N1970 C1962 1.356 . S
N1970 H1976 0.984 . S
N1970 H1977 0.984 . S
N1971 C1964 1.356 . S
N1971 H1974 0.984 . S
N1971 H1975 0.985 . S
H1972 N1967 0.984 . S
H1973 N1967 0.985 . S
H1974 N1971 0.984 . S
H1975 N1971 0.985 . S
H1976 N1970 0.984 . S
H1977 N1970 0.984 . S
H1978 N1966 0.984 . S
H1979 N1966 0.985 . S
C1980 C1981 1.363 . S
C1980 C1986 1.379 . S
C1980 N1988 1.356 . S
C1981 C1980 1.363 . S
C1981 C1987 1.363 . S
C1982 C1983 1.363 . S
C1982 C1987 1.379 . S
C1982 N1989 1.356 . S
C1983 C1982 1.363 . S
C1983 C1986 1.363 . S
N1984 C1986 1.356 . S
N1984 H1996 0.984 . S
N1984 H1997 0.985 . S
N1985 C1987 1.356 . S
N1985 H1990 0.984 . S
N1985 H1991 0.985 . S
C1986 C1980 1.379 . S
C1986 C1983 1.363 . S
C1986 N1984 1.356 . S
C1987 C1981 1.363 . S
C1987 C1982 1.379 . S
C1987 N1985 1.356 . S
N1988 C1980 1.356 . S
N1988 H1994 0.984 . S
N1988 H1995 0.984 . S
N1989 C1982 1.356 . S
N1989 H1992 0.984 . S
N1989 H1993 0.985 . S
H1990 N1985 0.984 . S
H1991 N1985 0.985 . S
H1992 N1989 0.984 . S
H1993 N1989 0.985 . S
H1994 N1988 0.984 . S
H1995 N1988 0.984 . S
H1996 N1984 0.984 . S
H1997 N1984 0.985 . S
C1998 C1999 1.363 . S
C1998 C2004 1.379 . S
C1998 N2006 1.356 . S
C1999 C1998 1.363 . S
C1999 C2005 1.363 . S
C2000 C2001 1.363 . S
C2000 C2005 1.379 . S
C2000 N2007 1.356 . S
C2001 C2000 1.363 . S
C2001 C2004 1.363 . S
N2002 C2004 1.356 . S
N2002 H2014 0.984 . S
N2002 H2015 0.985 . S
N2003 C2005 1.356 . S
N2003 H2008 0.984 . S
N2003 H2009 0.985 . S
C2004 C1998 1.379 . S
C2004 C2001 1.363 . S
C2004 N2002 1.356 . S
C2005 C1999 1.363 . S
C2005 C2000 1.379 . S
C2005 N2003 1.356 . S
N2006 C1998 1.356 . S
N2006 H2012 0.984 . S
N2006 H2013 0.984 . S
N2007 C2000 1.356 . S
N2007 H2010 0.984 . S
N2007 H2011 0.985 . S
H2008 N2003 0.984 . S
H2009 N2003 0.985 . S
H2010 N2007 0.984 . S
H2011 N2007 0.985 . S
H2012 N2006 0.984 . S
H2013 N2006 0.984 . S
H2014 N2002 0.984 . S
H2015 N2002 0.985 . S
C2016 C2017 1.363 . S
C2016 C2022 1.379 . S
C2016 N2024 1.356 . S
C2017 C2016 1.363 . S
C2017 C2023 1.363 . S
C2018 C2019 1.363 . S
C2018 C2023 1.379 . S
C2018 N2025 1.356 . S
C2019 C2018 1.363 . S
C2019 C2022 1.363 . S
N2020 C2022 1.356 . S
N2020 H2032 0.984 . S
N2020 H2033 0.985 . S
N2021 C2023 1.356 . S
N2021 H2026 0.984 . S
N2021 H2027 0.985 . S
C2022 C2016 1.379 . S
C2022 C2019 1.363 . S
C2022 N2020 1.356 . S
C2023 C2017 1.363 . S
C2023 C2018 1.379 . S
C2023 N2021 1.356 . S
N2024 C2016 1.356 . S
N2024 H2030 0.984 . S
N2024 H2031 0.984 . S
N2025 C2018 1.356 . S
N2025 H2028 0.984 . S
N2025 H2029 0.985 . S
H2026 N2021 0.984 . S
H2027 N2021 0.985 . S
H2028 N2025 0.984 . S
H2029 N2025 0.985 . S
H2030 N2024 0.984 . S
H2031 N2024 0.984 . S
H2032 N2020 0.984 . S
H2033 N2020 0.985 . S
C2034 C2035 1.363 . S
C2034 C2040 1.379 . S
C2034 N2042 1.356 . S
C2035 C2034 1.363 . S
C2035 C2041 1.363 . S
C2036 C2037 1.363 . S
C2036 C2041 1.379 1_554 S
C2036 N2043 1.356 . S
C2037 C2036 1.363 . S
C2037 C2040 1.363 1_554 S
N2038 C2040 1.356 . S
N2038 H2050 0.984 . S
N2038 H2051 0.985 1_556 S
N2039 C2041 1.356 . S
N2039 H2044 0.984 . S
N2039 H2045 0.985 1_556 S
C2040 C2034 1.379 . S
C2040 C2037 1.363 1_556 S
C2040 N2038 1.356 . S
C2041 C2035 1.363 . S
C2041 C2036 1.379 1_556 S
C2041 N2039 1.356 . S
N2042 C2034 1.356 . S
N2042 H2048 0.984 . S
N2042 H2049 0.984 . S
N2043 C2036 1.356 . S
N2043 H2046 0.984 . S
N2043 H2047 0.985 . S
H2044 N2039 0.984 . S
H2045 N2039 0.985 1_554 S
H2046 N2043 0.984 . S
H2047 N2043 0.985 . S
H2048 N2042 0.984 . S
H2049 N2042 0.984 . S
H2050 N2038 0.984 . S
H2051 N2038 0.985 1_554 S
C2052 C2053 1.363 . S
C2052 C2058 1.379 1_556 S
C2052 N2060 1.356 . S
C2053 C2052 1.363 . S
C2053 C2059 1.363 . S
C2054 C2055 1.369 . S
C2054 C2059 1.369 1_554 S
C2054 N2061 1.363 . S
C2055 C2054 1.369 . S
C2055 C2058 1.363 . S
N2056 C2058 1.356 . S
N2056 H2068 0.984 . S
N2056 H2069 0.985 . S
N2057 C2059 1.356 . S
N2057 H2062 0.984 . S
N2057 H2063 0.985 . S
C2058 C2052 1.379 1_554 S
C2058 C2055 1.363 . S
C2058 N2056 1.356 . S
C2059 C2053 1.363 . S
C2059 C2054 1.369 1_556 S
C2059 N2057 1.356 . S
N2060 C2052 1.356 . S
N2060 H2066 0.984 . S
N2060 H2067 0.984 . S
N2061 C2054 1.363 . S
N2061 H2064 0.984 . S
N2061 H2065 0.985 . S
H2062 N2057 0.984 . S
H2063 N2057 0.985 . S
H2064 N2061 0.984 . S
H2065 N2061 0.985 . S
H2066 N2060 0.984 . S
H2067 N2060 0.984 . S
H2068 N2056 0.984 . S
H2069 N2056 0.985 . S
C2070 C2071 1.363 . S
C2070 C2076 1.379 . S
C2070 N2078 1.356 . S
C2071 C2070 1.363 . S
C2071 C2077 1.363 . S
C2072 C2073 1.363 . S
C2072 C2077 1.379 1_554 S
C2072 N2079 1.356 . S
C2073 C2072 1.363 . S
C2073 C2076 1.363 1_554 S
N2074 C2076 1.356 1_554 S
N2074 H2086 0.984 1_554 S
N2074 H2087 0.985 . S
N2075 C2077 1.356 . S
N2075 H2080 0.984 . S
N2075 H2081 0.985 . S
C2076 C2070 1.379 . S
C2076 C2073 1.363 1_556 S
C2076 N2074 1.356 1_556 S
C2077 C2071 1.363 . S
C2077 C2072 1.379 1_556 S
C2077 N2075 1.356 . S
N2078 C2070 1.356 . S
N2078 H2084 0.984 . S
N2078 H2085 0.984 . S
N2079 C2072 1.356 . S
N2079 H2082 0.984 . S
N2079 H2083 0.985 . S
H2080 N2075 0.984 . S
H2081 N2075 0.985 . S
H2082 N2079 0.984 . S
H2083 N2079 0.985 . S
H2084 N2078 0.984 . S
H2085 N2078 0.984 . S
H2086 N2074 0.984 1_556 S
H2087 N2074 0.985 . S
C2088 C2089 1.363 . S
C2088 C2094 1.379 . S
C2088 N2096 1.356 . S
C2089 C2088 1.363 . S
C2089 C2095 1.363 . S
C2090 C2091 1.363 . S
C2090 C2095 1.379 . S
C2090 N2097 1.356 1_556 S
C2091 C2090 1.363 . S
C2091 C2094 1.363 . S
N2092 C2094 1.356 . S
N2092 H2104 0.984 . S
N2092 H2105 0.985 . S
N2093 C2095 1.356 . S
N2093 H2098 0.984 . S
N2093 H2099 0.985 . S
C2094 C2088 1.379 . S
C2094 C2091 1.363 . S
C2094 N2092 1.356 . S
C2095 C2089 1.363 . S
C2095 C2090 1.379 . S
C2095 N2093 1.356 . S
N2096 C2088 1.356 . S
N2096 H2102 0.984 . S
N2096 H2103 0.984 . S
N2097 C2090 1.356 1_554 S
N2097 H2100 0.984 . S
N2097 H2101 0.985 . S
H2098 N2093 0.984 . S
H2099 N2093 0.985 . S
H2100 N2097 0.984 . S
H2101 N2097 0.985 . S
H2102 N2096 0.984 . S
H2103 N2096 0.984 . S
H2104 N2092 0.984 . S
H2105 N2092 0.985 . S
C2106 C2107 1.363 . S
C2106 C2112 1.379 . S
C2106 N2114 1.356 1_556 S
C2107 C2106 1.363 . S
C2107 C2113 1.363 . S
C2108 C2109 1.363 . S
C2108 C2113 1.379 . S
C2108 N2115 1.356 . S
C2109 C2108 1.363 . S
C2109 C2112 1.363 . S
N2110 C2112 1.356 . S
N2110 H2122 0.984 . S
N2110 H2123 0.985 . S
N2111 C2113 1.356 . S
N2111 H2116 0.984 1_556 S
N2111 H2117 0.985 . S
C2112 C2106 1.379 . S
C2112 C2109 1.363 . S
C2112 N2110 1.356 . S
C2113 C2107 1.363 . S
C2113 C2108 1.379 . S
C2113 N2111 1.356 . S
N2114 C2106 1.356 1_554 S
N2114 H2120 0.984 . S
N2114 H2121 0.984 . S
N2115 C2108 1.356 . S
N2115 H2118 0.984 . S
N2115 H2119 0.985 . S
H2116 N2111 0.984 1_554 S
H2117 N2111 0.985 . S
H2118 N2115 0.984 . S
H2119 N2115 0.985 . S
H2120 N2114 0.984 . S
H2121 N2114 0.984 . S
H2122 N2110 0.984 . S
H2123 N2110 0.985 . S
C2124 C2125 1.363 . S
C2124 C2130 1.379 . S
C2124 N2132 1.356 1_556 S
C2125 C2124 1.363 . S
C2125 C2131 1.363 . S
C2126 C2127 1.363 . S
C2126 C2131 1.379 . S
C2126 N2133 1.356 . S
C2127 C2126 1.363 . S
C2127 C2130 1.363 . S
N2128 C2130 1.356 . S
N2128 H2140 0.984 . S
N2128 H2141 0.985 . S
N2129 C2131 1.356 . S
N2129 H2134 0.984 . S
N2129 H2135 0.985 . S
C2130 C2124 1.379 . S
C2130 C2127 1.363 . S
C2130 N2128 1.356 . S
C2131 C2125 1.363 . S
C2131 C2126 1.379 . S
C2131 N2129 1.356 . S
N2132 C2124 1.356 1_554 S
N2132 H2138 0.984 . S
N2132 H2139 0.984 . S
N2133 C2126 1.356 . S
N2133 H2136 0.984 . S
N2133 H2137 0.985 . S
H2134 N2129 0.984 . S
H2135 N2129 0.985 . S
H2136 N2133 0.984 . S
H2137 N2133 0.985 . S
H2138 N2132 0.984 . S
H2139 N2132 0.984 . S
H2140 N2128 0.984 . S
H2141 N2128 0.985 . S
C2142 C2143 1.363 . S
C2142 C2148 1.379 . S
C2142 N2150 1.356 . S
C2143 C2142 1.363 . S
C2143 C2149 1.363 . S
C2144 C2145 1.363 . S
C2144 C2149 1.379 . S
C2144 N2151 1.356 . S
C2145 C2144 1.363 . S
C2145 C2148 1.363 . S
N2146 C2148 1.356 . S
N2146 H2158 0.984 . S
N2146 H2159 0.985 . S
N2147 C2149 1.356 . S
N2147 H2152 0.984 . S
N2147 H2153 0.985 . S
C2148 C2142 1.379 . S
C2148 C2145 1.363 . S
C2148 N2146 1.356 . S
C2149 C2143 1.363 . S
C2149 C2144 1.379 . S
C2149 N2147 1.356 . S
N2150 C2142 1.356 . S
N2150 H2156 0.984 . S
N2150 H2157 0.984 . S
N2151 C2144 1.356 . S
N2151 H2154 0.984 . S
N2151 H2155 0.985 . S
H2152 N2147 0.984 . S
H2153 N2147 0.985 . S
H2154 N2151 0.984 . S
H2155 N2151 0.985 . S
H2156 N2150 0.984 . S
H2157 N2150 0.984 . S
H2158 N2146 0.984 . S
H2159 N2146 0.985 . S
C2160 C2161 1.363 . S
C2160 C2166 1.379 . S
C2160 N2168 1.356 . S
C2161 C2160 1.363 . S
C2161 C2167 1.363 . S
C2162 C2163 1.363 . S
C2162 C2167 1.379 . S
C2162 N2169 1.356 . S
C2163 C2162 1.363 . S
C2163 C2166 1.363 . S
N2164 C2166 1.356 . S
N2164 H2176 0.984 . S
N2164 H2177 0.985 . S
N2165 C2167 1.356 . S
N2165 H2170 0.984 . S
N2165 H2171 0.985 . S
C2166 C2160 1.379 . S
C2166 C2163 1.363 . S
C2166 N2164 1.356 . S
C2167 C2161 1.363 . S
C2167 C2162 1.379 . S
C2167 N2165 1.356 . S
N2168 C2160 1.356 . S
N2168 H2174 0.984 . S
N2168 H2175 0.984 . S
N2169 C2162 1.356 . S
N2169 H2172 0.984 . S
N2169 H2173 0.985 . S
H2170 N2165 0.984 . S
H2171 N2165 0.985 . S
H2172 N2169 0.984 . S
H2173 N2169 0.985 . S
H2174 N2168 0.984 . S
H2175 N2168 0.984 . S
H2176 N2164 0.984 . S
H2177 N2164 0.985 . S
C2178 C2179 1.363 . S
C2178 C2184 1.379 . S
C2178 N2186 1.356 . S
C2179 C2178 1.363 . S
C2179 C2185 1.363 . S
C2180 C2181 1.363 . S
C2180 C2185 1.379 . S
C2180 N2187 1.356 . S
C2181 C2180 1.363 . S
C2181 C2184 1.363 . S
N2182 C2184 1.356 . S
N2182 H2194 0.984 . S
N2182 H2195 0.985 . S
N2183 C2185 1.356 . S
N2183 H2188 0.984 . S
N2183 H2189 0.985 . S
C2184 C2178 1.379 . S
C2184 C2181 1.363 . S
C2184 N2182 1.356 . S
C2185 C2179 1.363 . S
C2185 C2180 1.379 . S
C2185 N2183 1.356 . S
N2186 C2178 1.356 . S
N2186 H2192 0.984 . S
N2186 H2193 0.984 . S
N2187 C2180 1.356 . S
N2187 H2190 0.984 . S
N2187 H2191 0.985 . S
H2188 N2183 0.984 . S
H2189 N2183 0.985 . S
H2190 N2187 0.984 . S
H2191 N2187 0.985 . S
H2192 N2186 0.984 . S
H2193 N2186 0.984 . S
H2194 N2182 0.984 . S
H2195 N2182 0.985 . S
C2196 C2197 1.363 . S
C2196 C2202 1.379 . S
C2196 N2204 1.356 . S
C2197 C2196 1.363 . S
C2197 C2203 1.363 . S
C2198 C2199 1.363 . S
C2198 C2203 1.379 . S
C2198 N2205 1.356 . S
C2199 C2198 1.363 . S
C2199 C2202 1.363 . S
N2200 C2202 1.356 . S
N2200 H2212 0.984 . S
N2200 H2213 0.985 . S
N2201 C2203 1.356 . S
N2201 H2206 0.984 . S
N2201 H2207 0.985 . S
C2202 C2196 1.379 . S
C2202 C2199 1.363 . S
C2202 N2200 1.356 . S
C2203 C2197 1.363 . S
C2203 C2198 1.379 . S
C2203 N2201 1.356 . S
N2204 C2196 1.356 . S
N2204 H2210 0.984 . S
N2204 H2211 0.984 . S
N2205 C2198 1.356 . S
N2205 H2208 0.984 . S
N2205 H2209 0.985 . S
H2206 N2201 0.984 . S
H2207 N2201 0.985 . S
H2208 N2205 0.984 . S
H2209 N2205 0.985 . S
H2210 N2204 0.984 . S
H2211 N2204 0.984 . S
H2212 N2200 0.984 . S
H2213 N2200 0.985 . S
C2214 C2215 1.363 . S
C2214 C2220 1.379 . S
C2214 N2222 1.356 . S
C2215 C2214 1.363 . S
C2215 C2221 1.363 . S
C2216 C2217 1.363 . S
C2216 C2221 1.379 . S
C2216 N2223 1.356 . S
C2217 C2216 1.363 . S
C2217 C2220 1.363 . S
N2218 C2220 1.356 . S
N2218 H2230 0.984 . S
N2218 H2231 0.985 . S
N2219 C2221 1.356 . S
N2219 H2224 0.984 . S
N2219 H2225 0.985 . S
C2220 C2214 1.379 . S
C2220 C2217 1.363 . S
C2220 N2218 1.356 . S
C2221 C2215 1.363 . S
C2221 C2216 1.379 . S
C2221 N2219 1.356 . S
N2222 C2214 1.356 . S
N2222 H2228 0.984 . S
N2222 H2229 0.984 . S
N2223 C2216 1.356 . S
N2223 H2226 0.984 . S
N2223 H2227 0.985 . S
H2224 N2219 0.984 . S
H2225 N2219 0.985 . S
H2226 N2223 0.984 . S
H2227 N2223 0.985 . S
H2228 N2222 0.984 . S
H2229 N2222 0.984 . S
H2230 N2218 0.984 . S
H2231 N2218 0.985 . S
C2232 C2233 1.363 . S
C2232 C2238 1.379 . S
C2232 N2240 1.356 . S
C2233 C2232 1.363 . S
C2233 C2239 1.363 . S
C2234 C2235 1.363 . S
C2234 C2239 1.379 . S
C2234 N2241 1.356 . S
C2235 C2234 1.363 . S
C2235 C2238 1.363 . S
N2236 C2238 1.356 . S
N2236 H2248 0.984 . S
N2236 H2249 0.985 . S
N2237 C2239 1.356 . S
N2237 H2242 0.984 . S
N2237 H2243 0.985 . S
C2238 C2232 1.379 . S
C2238 C2235 1.363 . S
C2238 N2236 1.356 . S
C2239 C2233 1.363 . S
C2239 C2234 1.379 . S
C2239 N2237 1.356 . S
N2240 C2232 1.356 . S
N2240 H2246 0.984 . S
N2240 H2247 0.984 . S
N2241 C2234 1.356 . S
N2241 H2244 0.984 . S
N2241 H2245 0.985 . S
H2242 N2237 0.984 . S
H2243 N2237 0.985 . S
H2244 N2241 0.984 . S
H2245 N2241 0.985 . S
H2246 N2240 0.984 . S
H2247 N2240 0.984 . S
H2248 N2236 0.984 . S
H2249 N2236 0.985 . S
C2250 C2251 1.363 . S
C2250 C2256 1.379 . S
C2250 N2258 1.356 . S
C2251 C2250 1.363 . S
C2251 C2257 1.363 . S
C2252 C2253 1.363 . S
C2252 C2257 1.379 . S
C2252 N2259 1.356 . S
C2253 C2252 1.363 . S
C2253 C2256 1.363 . S
N2254 C2256 1.356 . S
N2254 H2266 0.984 . S
N2254 H2267 0.985 . S
N2255 C2257 1.356 . S
N2255 H2260 0.984 . S
N2255 H2261 0.985 . S
C2256 C2250 1.379 . S
C2256 C2253 1.363 . S
C2256 N2254 1.356 . S
C2257 C2251 1.363 . S
C2257 C2252 1.379 . S
C2257 N2255 1.356 . S
N2258 C2250 1.356 . S
N2258 H2264 0.984 . S
N2258 H2265 0.984 . S
N2259 C2252 1.356 . S
N2259 H2262 0.984 . S
N2259 H2263 0.985 . S
H2260 N2255 0.984 . S
H2261 N2255 0.985 . S
H2262 N2259 0.984 . S
H2263 N2259 0.985 . S
H2264 N2258 0.984 . S
H2265 N2258 0.984 . S
H2266 N2254 0.984 . S
H2267 N2254 0.985 . S
C2268 C2269 1.363 . S
C2268 C2274 1.379 . S
C2268 N2276 1.356 . S
C2269 C2268 1.363 . S
C2269 C2275 1.363 . S
C2270 C2271 1.363 . S
C2270 C2275 1.379 . S
C2270 N2277 1.356 . S
C2271 C2270 1.363 . S
C2271 C2274 1.363 . S
N2272 C2274 1.356 . S
N2272 H2284 0.984 . S
N2272 H2285 0.985 . S
N2273 C2275 1.356 . S
N2273 H2278 0.984 . S
N2273 H2279 0.985 . S
C2274 C2268 1.379 . S
C2274 C2271 1.363 . S
C2274 N2272 1.356 . S
C2275 C2269 1.363 . S
C2275 C2270 1.379 . S
C2275 N2273 1.356 . S
N2276 C2268 1.356 . S
N2276 H2282 0.984 . S
N2276 H2283 0.984 . S
N2277 C2270 1.356 . S
N2277 H2280 0.984 . S
N2277 H2281 0.985 . S
H2278 N2273 0.984 . S
H2279 N2273 0.985 . S
H2280 N2277 0.984 . S
H2281 N2277 0.985 . S
H2282 N2276 0.984 . S
H2283 N2276 0.984 . S
H2284 N2272 0.984 . S
H2285 N2272 0.985 . S
C2286 C2287 1.363 . S
C2286 C2292 1.379 . S
C2286 N2294 1.356 . S
C2287 C2286 1.363 . S
C2287 C2293 1.363 . S
C2288 C2289 1.363 . S
C2288 C2293 1.379 . S
C2288 N2295 1.356 . S
C2289 C2288 1.363 . S
C2289 C2292 1.363 . S
N2290 C2292 1.356 . S
N2290 H2302 0.984 . S
N2290 H2303 0.985 . S
N2291 C2293 1.356 . S
N2291 H2296 0.984 . S
N2291 H2297 0.985 . S
C2292 C2286 1.379 . S
C2292 C2289 1.363 . S
C2292 N2290 1.356 . S
C2293 C2287 1.363 . S
C2293 C2288 1.379 . S
C2293 N2291 1.356 . S
N2294 C2286 1.356 . S
N2294 H2300 0.984 . S
N2294 H2301 0.984 . S
N2295 C2288 1.356 . S
N2295 H2298 0.984 . S
N2295 H2299 0.985 . S
H2296 N2291 0.984 . S
H2297 N2291 0.985 . S
H2298 N2295 0.984 . S
H2299 N2295 0.985 . S
H2300 N2294 0.984 . S
H2301 N2294 0.984 . S
H2302 N2290 0.984 . S
H2303 N2290 0.985 . S
C2304 C2305 1.363 . S
C2304 C2310 1.379 . S
C2304 N2312 1.356 . S
C2305 C2304 1.363 . S
C2305 C2311 1.363 . S
C2306 C2307 1.363 . S
C2306 C2311 1.379 . S
C2306 N2313 1.356 . S
C2307 C2306 1.363 . S
C2307 C2310 1.363 . S
N2308 C2310 1.356 . S
N2308 H2320 0.984 . S
N2308 H2321 0.985 . S
N2309 C2311 1.356 . S
N2309 H2314 0.984 . S
N2309 H2315 0.985 . S
C2310 C2304 1.379 . S
C2310 C2307 1.363 . S
C2310 N2308 1.356 . S
C2311 C2305 1.363 . S
C2311 C2306 1.379 . S
C2311 N2309 1.356 . S
N2312 C2304 1.356 . S
N2312 H2318 0.984 . S
N2312 H2319 0.984 . S
N2313 C2306 1.356 . S
N2313 H2316 0.984 . S
N2313 H2317 0.985 . S
H2314 N2309 0.984 . S
H2315 N2309 0.985 . S
H2316 N2313 0.984 . S
H2317 N2313 0.985 . S
H2318 N2312 0.984 . S
H2319 N2312 0.984 . S
H2320 N2308 0.984 . S
H2321 N2308 0.985 . S
C2322 C2323 1.363 . S
C2322 C2328 1.379 . S
C2322 N2330 1.356 . S
C2323 C2322 1.363 . S
C2323 C2329 1.363 . S
C2324 C2325 1.363 . S
C2324 C2329 1.379 . S
C2324 N2331 1.356 . S
C2325 C2324 1.363 . S
C2325 C2328 1.363 . S
N2326 C2328 1.356 . S
N2326 H2338 0.984 . S
N2326 H2339 0.985 . S
N2327 C2329 1.356 . S
N2327 H2332 0.984 . S
N2327 H2333 0.985 . S
C2328 C2322 1.379 . S
C2328 C2325 1.363 . S
C2328 N2326 1.356 . S
C2329 C2323 1.363 . S
C2329 C2324 1.379 . S
C2329 N2327 1.356 . S
N2330 C2322 1.356 . S
N2330 H2336 0.984 . S
N2330 H2337 0.984 . S
N2331 C2324 1.356 . S
N2331 H2334 0.984 . S
N2331 H2335 0.985 . S
H2332 N2327 0.984 . S
H2333 N2327 0.985 . S
H2334 N2331 0.984 . S
H2335 N2331 0.985 . S
H2336 N2330 0.984 . S
H2337 N2330 0.984 . S
H2338 N2326 0.984 . S
H2339 N2326 0.985 . S
C2340 C2341 1.363 . S
C2340 C2346 1.379 . S
C2340 N2348 1.356 . S
C2341 C2340 1.363 . S
C2341 C2347 1.363 . S
C2342 C2343 1.363 . S
C2342 C2347 1.379 . S
C2342 N2349 1.356 . S
C2343 C2342 1.363 . S
C2343 C2346 1.363 . S
N2344 C2346 1.356 . S
N2344 H2356 0.984 . S
N2344 H2357 0.985 . S
N2345 C2347 1.356 . S
N2345 H2350 0.984 . S
N2345 H2351 0.985 . S
C2346 C2340 1.379 . S
C2346 C2343 1.363 . S
C2346 N2344 1.356 . S
C2347 C2341 1.363 . S
C2347 C2342 1.379 . S
C2347 N2345 1.356 . S
N2348 C2340 1.356 . S
N2348 H2354 0.984 . S
N2348 H2355 0.984 . S
N2349 C2342 1.356 . S
N2349 H2352 0.984 . S
N2349 H2353 0.985 . S
H2350 N2345 0.984 . S
H2351 N2345 0.985 . S
H2352 N2349 0.984 . S
H2353 N2349 0.985 . S
H2354 N2348 0.984 . S
H2355 N2348 0.984 . S
H2356 N2344 0.984 . S
H2357 N2344 0.985 . S
C2358 C2359 1.363 . S
C2358 C2364 1.379 . S
C2358 N2366 1.356 . S
C2359 C2358 1.363 . S
C2359 C2365 1.363 . S
C2360 C2361 1.363 1_554 S
C2360 C2365 1.379 . S
C2360 N2367 1.356 1_554 S
C2361 C2360 1.363 1_556 S
C2361 C2364 1.363 1_556 S
N2362 C2364 1.356 1_556 S
N2362 H2374 0.984 . S
N2362 H2375 0.985 . S
N2363 C2365 1.356 . S
N2363 H2368 0.984 . S
N2363 H2369 0.985 . S
C2364 C2358 1.379 . S
C2364 C2361 1.363 1_554 S
C2364 N2362 1.356 1_554 S
C2365 C2359 1.363 . S
C2365 C2360 1.379 . S
C2365 N2363 1.356 . S
N2366 C2358 1.356 . S
N2366 H2372 0.984 . S
N2366 H2373 0.984 . S
N2367 C2360 1.356 1_556 S
N2367 H2370 0.984 . S
N2367 H2371 0.985 . S
H2368 N2363 0.984 . S
H2369 N2363 0.985 . S
H2370 N2367 0.984 . S
H2371 N2367 0.985 . S
H2372 N2366 0.984 . S
H2373 N2366 0.984 . S
H2374 N2362 0.984 . S
H2375 N2362 0.985 . S
C2376 C2377 1.363 . S
C2376 C2382 1.379 1_556 S
C2376 N2384 1.356 . S
C2377 C2376 1.363 . S
C2377 C2383 1.363 1_556 S
C2378 C2379 1.363 . S
C2378 C2383 1.379 . S
C2378 N2385 1.356 . S
C2379 C2378 1.363 . S
C2379 C2382 1.363 . S
N2380 C2382 1.356 . S
N2380 H2392 0.984 . S
N2380 H2393 0.985 . S
N2381 C2383 1.356 1_556 S
N2381 H2386 0.984 . S
N2381 H2387 0.985 . S
C2382 C2376 1.379 1_554 S
C2382 C2379 1.363 . S
C2382 N2380 1.356 . S
C2383 C2377 1.363 1_554 S
C2383 C2378 1.379 . S
C2383 N2381 1.356 1_554 S
N2384 C2376 1.356 . S
N2384 H2390 0.984 . S
N2384 H2391 0.984 . S
N2385 C2378 1.356 . S
N2385 H2388 0.984 . S
N2385 H2389 0.985 . S
H2386 N2381 0.984 . S
H2387 N2381 0.985 . S
H2388 N2385 0.984 . S
H2389 N2385 0.985 . S
H2390 N2384 0.984 . S
H2391 N2384 0.984 . S
H2392 N2380 0.984 . S
H2393 N2380 0.985 . S
C2394 C2395 1.363 . S
C2394 C2400 1.379 . S
C2394 N2402 1.356 . S
C2395 C2394 1.363 . S
C2395 C2401 1.363 . S
C2396 C2397 1.363 . S
C2396 C2401 1.379 1_556 S
C2396 N2403 1.356 . S
C2397 C2396 1.363 . S
C2397 C2400 1.363 1_556 S
N2398 C2400 1.356 . S
N2398 H2410 0.984 . S
N2398 H2411 0.985 1_554 S
N2399 C2401 1.356 . S
N2399 H2404 0.984 . S
N2399 H2405 0.985 1_554 S
C2400 C2394 1.379 . S
C2400 C2397 1.363 1_554 S
C2400 N2398 1.356 . S
C2401 C2395 1.363 . S
C2401 C2396 1.379 1_554 S
C2401 N2399 1.356 . S
N2402 C2394 1.356 . S
N2402 H2408 0.984 . S
N2402 H2409 0.984 . S
N2403 C2396 1.356 . S
N2403 H2406 0.984 . S
N2403 H2407 0.985 . S
H2404 N2399 0.984 . S
H2405 N2399 0.985 1_556 S
H2406 N2403 0.984 . S
H2407 N2403 0.985 . S
H2408 N2402 0.984 . S
H2409 N2402 0.984 . S
H2410 N2398 0.984 . S
H2411 N2398 0.985 1_556 S
C2412 C2413 1.363 . S
C2412 C2418 1.379 . S
C2412 N2420 1.356 . S
C2413 C2412 1.363 . S
C2413 C2419 1.363 . S
C2414 C2415 1.363 . S
C2414 C2419 1.379 . S
C2414 N2421 1.356 . S
C2415 C2414 1.363 . S
C2415 C2418 1.363 . S
N2416 C2418 1.356 . S
N2416 H2428 0.984 . S
N2416 H2429 0.985 . S
N2417 C2419 1.356 . S
N2417 H2422 0.984 . S
N2417 H2423 0.985 . S
C2418 C2412 1.379 . S
C2418 C2415 1.363 . S
C2418 N2416 1.356 . S
C2419 C2413 1.363 . S
C2419 C2414 1.379 . S
C2419 N2417 1.356 . S
N2420 C2412 1.356 . S
N2420 H2426 0.984 . S
N2420 H2427 0.984 . S
N2421 C2414 1.356 . S
N2421 H2424 0.984 . S
N2421 H2425 0.985 . S
H2422 N2417 0.984 . S
H2423 N2417 0.985 . S
H2424 N2421 0.984 . S
H2425 N2421 0.985 . S
H2426 N2420 0.984 . S
H2427 N2420 0.984 . S
H2428 N2416 0.984 . S
H2429 N2416 0.985 . S
C2430 C2431 1.363 . S
C2430 C2436 1.379 . S
C2430 N2438 1.356 . S
C2431 C2430 1.363 . S
C2431 C2437 1.363 . S
C2432 C2433 1.363 . S
C2432 C2437 1.379 . S
C2432 N2439 1.356 . S
C2433 C2432 1.363 . S
C2433 C2436 1.363 . S
N2434 C2436 1.356 . S
N2434 H2446 0.984 . S
N2434 H2447 0.985 . S
N2435 C2437 1.356 . S
N2435 H2440 0.984 . S
N2435 H2441 0.985 . S
C2436 C2430 1.379 . S
C2436 C2433 1.363 . S
C2436 N2434 1.356 . S
C2437 C2431 1.363 . S
C2437 C2432 1.379 . S
C2437 N2435 1.356 . S
N2438 C2430 1.356 . S
N2438 H2444 0.984 . S
N2438 H2445 0.984 . S
N2439 C2432 1.356 . S
N2439 H2442 0.984 . S
N2439 H2443 0.985 . S
H2440 N2435 0.984 . S
H2441 N2435 0.985 . S
H2442 N2439 0.984 . S
H2443 N2439 0.985 . S
H2444 N2438 0.984 . S
H2445 N2438 0.984 . S
H2446 N2434 0.984 . S
H2447 N2434 0.985 . S
C2448 C2449 1.363 . S
C2448 C2454 1.379 . S
C2448 N2456 1.356 . S
C2449 C2448 1.363 . S
C2449 C2455 1.363 . S
C2450 C2451 1.363 . S
C2450 C2455 1.379 . S
C2450 N2457 1.356 . S
C2451 C2450 1.363 . S
C2451 C2454 1.363 . S
N2452 C2454 1.356 . S
N2452 H2464 0.984 . S
N2452 H2465 0.985 . S
N2453 C2455 1.356 . S
N2453 H2458 0.984 . S
N2453 H2459 0.985 . S
C2454 C2448 1.379 . S
C2454 C2451 1.363 . S
C2454 N2452 1.356 . S
C2455 C2449 1.363 . S
C2455 C2450 1.379 . S
C2455 N2453 1.356 . S
N2456 C2448 1.356 . S
N2456 H2462 0.984 . S
N2456 H2463 0.984 . S
N2457 C2450 1.356 . S
N2457 H2460 0.984 . S
N2457 H2461 0.985 . S
H2458 N2453 0.984 . S
H2459 N2453 0.985 . S
H2460 N2457 0.984 . S
H2461 N2457 0.985 . S
H2462 N2456 0.984 . S
H2463 N2456 0.984 . S
H2464 N2452 0.984 . S
H2465 N2452 0.985 . S
C2466 C2467 1.363 . S
C2466 C2472 1.379 . S
C2466 N2474 1.356 . S
C2467 C2466 1.363 . S
C2467 C2473 1.363 . S
C2468 C2469 1.363 . S
C2468 C2473 1.379 . S
C2468 N2475 1.356 . S
C2469 C2468 1.363 . S
C2469 C2472 1.363 . S
N2470 C2472 1.356 . S
N2470 H2482 0.984 . S
N2470 H2483 0.985 . S
N2471 C2473 1.356 . S
N2471 H2476 0.984 . S
N2471 H2477 0.985 . S
C2472 C2466 1.379 . S
C2472 C2469 1.363 . S
C2472 N2470 1.356 . S
C2473 C2467 1.363 . S
C2473 C2468 1.379 . S
C2473 N2471 1.356 . S
N2474 C2466 1.356 . S
N2474 H2480 0.984 . S
N2474 H2481 0.984 . S
N2475 C2468 1.356 . S
N2475 H2478 0.984 . S
N2475 H2479 0.985 . S
H2476 N2471 0.984 . S
H2477 N2471 0.985 . S
H2478 N2475 0.984 . S
H2479 N2475 0.985 . S
H2480 N2474 0.984 . S
H2481 N2474 0.984 . S
H2482 N2470 0.984 . S
H2483 N2470 0.985 . S
C2484 C2485 1.363 . S
C2484 C2490 1.379 . S
C2484 N2492 1.356 . S
C2485 C2484 1.363 . S
C2485 C2491 1.363 . S
C2486 C2487 1.363 . S
C2486 C2491 1.379 . S
C2486 N2493 1.356 . S
C2487 C2486 1.363 . S
C2487 C2490 1.363 . S
N2488 C2490 1.356 . S
N2488 H2500 0.984 . S
N2488 H2501 0.985 . S
N2489 C2491 1.356 . S
N2489 H2494 0.984 . S
N2489 H2495 0.985 . S
C2490 C2484 1.379 . S
C2490 C2487 1.363 . S
C2490 N2488 1.356 . S
C2491 C2485 1.363 . S
C2491 C2486 1.379 . S
C2491 N2489 1.356 . S
N2492 C2484 1.356 . S
N2492 H2498 0.984 . S
N2492 H2499 0.984 . S
N2493 C2486 1.356 . S
N2493 H2496 0.984 . S
N2493 H2497 0.985 . S
H2494 N2489 0.984 . S
H2495 N2489 0.985 . S
H2496 N2493 0.984 . S
H2497 N2493 0.985 . S
H2498 N2492 0.984 . S
H2499 N2492 0.984 . S
H2500 N2488 0.984 . S
H2501 N2488 0.985 . S
C2502 C2503 1.363 . S
C2502 C2508 1.379 . S
C2502 N2510 1.356 . S
C2503 C2502 1.363 . S
C2503 C2509 1.363 . S
C2504 C2505 1.363 . S
C2504 C2509 1.379 . S
C2504 N2511 1.356 . S
C2505 C2504 1.363 . S
C2505 C2508 1.363 . S
N2506 C2508 1.356 . S
N2506 H2518 0.984 . S
N2506 H2519 0.985 . S
N2507 C2509 1.356 . S
N2507 H2512 0.984 . S
N2507 H2513 0.985 . S
C2508 C2502 1.379 . S
C2508 C2505 1.363 . S
C2508 N2506 1.356 . S
C2509 C2503 1.363 . S
C2509 C2504 1.379 . S
C2509 N2507 1.356 . S
N2510 C2502 1.356 . S
N2510 H2516 0.984 . S
N2510 H2517 0.984 . S
N2511 C2504 1.356 . S
N2511 H2514 0.984 . S
N2511 H2515 0.985 . S
H2512 N2507 0.984 . S
H2513 N2507 0.985 . S
H2514 N2511 0.984 . S
H2515 N2511 0.985 . S
H2516 N2510 0.984 . S
H2517 N2510 0.984 . S
H2518 N2506 0.984 . S
H2519 N2506 0.985 . S
C2520 C2521 1.363 . S
C2520 C2526 1.379 . S
C2520 N2528 1.356 . S
C2521 C2520 1.363 . S
C2521 C2527 1.363 . S
C2522 C2523 1.363 . S
C2522 C2527 1.379 . S
C2522 N2529 1.356 . S
C2523 C2522 1.363 . S
C2523 C2526 1.363 . S
N2524 C2526 1.356 . S
N2524 H2536 0.984 . S
N2524 H2537 0.985 . S
N2525 C2527 1.356 . S
N2525 H2530 0.984 . S
N2525 H2531 0.985 . S
C2526 C2520 1.379 . S
C2526 C2523 1.363 . S
C2526 N2524 1.356 . S
C2527 C2521 1.363 . S
C2527 C2522 1.379 . S
C2527 N2525 1.356 . S
N2528 C2520 1.356 . S
N2528 H2534 0.984 . S
N2528 H2535 0.984 . S
N2529 C2522 1.356 . S
N2529 H2532 0.984 . S
N2529 H2533 0.985 . S
H2530 N2525 0.984 . S
H2531 N2525 0.985 . S
H2532 N2529 0.984 . S
H2533 N2529 0.985 . S
H2534 N2528 0.984 . S
H2535 N2528 0.984 . S
H2536 N2524 0.984 . S
H2537 N2524 0.985 . S
C2538 C2539 1.363 . S
C2538 C2544 1.379 . S
C2538 N2546 1.356 . S
C2539 C2538 1.363 . S
C2539 C2545 1.363 . S
C2540 C2541 1.363 . S
C2540 C2545 1.379 . S
C2540 N2547 1.356 . S
C2541 C2540 1.363 . S
C2541 C2544 1.363 . S
N2542 C2544 1.356 . S
N2542 H2554 0.984 . S
N2542 H2555 0.985 . S
N2543 C2545 1.356 . S
N2543 H2548 0.984 . S
N2543 H2549 0.985 . S
C2544 C2538 1.379 . S
C2544 C2541 1.363 . S
C2544 N2542 1.356 . S
C2545 C2539 1.363 . S
C2545 C2540 1.379 . S
C2545 N2543 1.356 . S
N2546 C2538 1.356 . S
N2546 H2552 0.984 . S
N2546 H2553 0.984 . S
N2547 C2540 1.356 . S
N2547 H2550 0.984 . S
N2547 H2551 0.985 . S
H2548 N2543 0.984 . S
H2549 N2543 0.985 . S
H2550 N2547 0.984 . S
H2551 N2547 0.985 . S
H2552 N2546 0.984 . S
H2553 N2546 0.984 . S
H2554 N2542 0.984 . S
H2555 N2542 0.985 . S
C2556 C2557 1.363 . S
C2556 C2562 1.379 . S
C2556 N2564 1.356 . S
C2557 C2556 1.363 . S
C2557 C2563 1.363 . S
C2558 C2559 1.363 . S
C2558 C2563 1.379 . S
C2558 N2565 1.356 . S
C2559 C2558 1.363 . S
C2559 C2562 1.363 . S
N2560 C2562 1.356 . S
N2560 H2572 0.984 . S
N2560 H2573 0.985 . S
N2561 C2563 1.356 . S
N2561 H2566 0.984 . S
N2561 H2567 0.985 . S
C2562 C2556 1.379 . S
C2562 C2559 1.363 . S
C2562 N2560 1.356 . S
C2563 C2557 1.363 . S
C2563 C2558 1.379 . S
C2563 N2561 1.356 . S
N2564 C2556 1.356 . S
N2564 H2570 0.984 . S
N2564 H2571 0.984 . S
N2565 C2558 1.356 . S
N2565 H2568 0.984 . S
N2565 H2569 0.985 . S
H2566 N2561 0.984 . S
H2567 N2561 0.985 . S
H2568 N2565 0.984 . S
H2569 N2565 0.985 . S
H2570 N2564 0.984 . S
H2571 N2564 0.984 . S
H2572 N2560 0.984 . S
H2573 N2560 0.985 . S
C2574 C2575 1.363 . S
C2574 C2580 1.379 . S
C2574 N2582 1.356 . S
C2575 C2574 1.363 . S
C2575 C2581 1.363 . S
C2576 C2577 1.363 . S
C2576 C2581 1.379 . S
C2576 N2583 1.356 . S
C2577 C2576 1.363 . S
C2577 C2580 1.363 . S
N2578 C2580 1.356 . S
N2578 H2590 0.984 . S
N2578 H2591 0.985 . S
N2579 C2581 1.356 . S
N2579 H2584 0.984 . S
N2579 H2585 0.985 . S
C2580 C2574 1.379 . S
C2580 C2577 1.363 . S
C2580 N2578 1.356 . S
C2581 C2575 1.363 . S
C2581 C2576 1.379 . S
C2581 N2579 1.356 . S
N2582 C2574 1.356 . S
N2582 H2588 0.984 . S
N2582 H2589 0.984 . S
N2583 C2576 1.356 . S
N2583 H2586 0.984 . S
N2583 H2587 0.985 . S
H2584 N2579 0.984 . S
H2585 N2579 0.985 . S
H2586 N2583 0.984 . S
H2587 N2583 0.985 . S
H2588 N2582 0.984 . S
H2589 N2582 0.984 . S
H2590 N2578 0.984 . S
H2591 N2578 0.985 . S
C2592 C2593 1.363 . S
C2592 C2598 1.379 . S
C2592 N2600 1.356 . S
C2593 C2592 1.363 . S
C2593 C2599 1.363 . S
C2594 C2595 1.363 . S
C2594 C2599 1.379 . S
C2594 N2601 1.356 . S
C2595 C2594 1.363 . S
C2595 C2598 1.363 . S
N2596 C2598 1.356 . S
N2596 H2608 0.984 . S
N2596 H2609 0.985 . S
N2597 C2599 1.356 . S
N2597 H2602 0.984 . S
N2597 H2603 0.985 . S
C2598 C2592 1.379 . S
C2598 C2595 1.363 . S
C2598 N2596 1.356 . S
C2599 C2593 1.363 . S
C2599 C2594 1.379 . S
C2599 N2597 1.356 . S
N2600 C2592 1.356 . S
N2600 H2606 0.984 . S
N2600 H2607 0.984 . S
N2601 C2594 1.356 . S
N2601 H2604 0.984 . S
N2601 H2605 0.985 . S
H2602 N2597 0.984 . S
H2603 N2597 0.985 . S
H2604 N2601 0.984 . S
H2605 N2601 0.985 . S
H2606 N2600 0.984 . S
H2607 N2600 0.984 . S
H2608 N2596 0.984 . S
H2609 N2596 0.985 . S
C2610 C2611 1.363 . S
C2610 C2616 1.379 . S
C2610 N2618 1.356 . S
C2611 C2610 1.363 . S
C2611 C2617 1.363 . S
C2612 C2613 1.363 . S
C2612 C2617 1.379 . S
C2612 N2619 1.356 . S
C2613 C2612 1.363 . S
C2613 C2616 1.363 . S
N2614 C2616 1.356 . S
N2614 H2626 0.984 . S
N2614 H2627 0.985 . S
N2615 C2617 1.356 . S
N2615 H2620 0.984 . S
N2615 H2621 0.985 . S
C2616 C2610 1.379 . S
C2616 C2613 1.363 . S
C2616 N2614 1.356 . S
C2617 C2611 1.363 . S
C2617 C2612 1.379 . S
C2617 N2615 1.356 . S
N2618 C2610 1.356 . S
N2618 H2624 0.984 . S
N2618 H2625 0.984 . S
N2619 C2612 1.356 . S
N2619 H2622 0.984 . S
N2619 H2623 0.985 . S
H2620 N2615 0.984 . S
H2621 N2615 0.985 . S
H2622 N2619 0.984 . S
H2623 N2619 0.985 . S
H2624 N2618 0.984 . S
H2625 N2618 0.984 . S
H2626 N2614 0.984 . S
H2627 N2614 0.985 . S
C2628 C2629 1.363 . S
C2628 C2634 1.379 . S
C2628 N2636 1.356 . S
C2629 C2628 1.363 . S
C2629 C2635 1.363 . S
C2630 C2631 1.363 . S
C2630 C2635 1.379 . S
C2630 N2637 1.356 . S
C2631 C2630 1.363 . S
C2631 C2634 1.363 . S
N2632 C2634 1.356 . S
N2632 H2644 0.984 . S
N2632 H2645 0.985 . S
N2633 C2635 1.356 . S
N2633 H2638 0.984 . S
N2633 H2639 0.985 . S
C2634 C2628 1.379 . S
C2634 C2631 1.363 . S
C2634 N2632 1.356 . S
C2635 C2629 1.363 . S
C2635 C2630 1.379 . S
C2635 N2633 1.356 . S
N2636 C2628 1.356 . S
N2636 H2642 0.984 . S
N2636 H2643 0.984 . S
N2637 C2630 1.356 . S
N2637 H2640 0.984 . S
N2637 H2641 0.985 . S
H2638 N2633 0.984 . S
H2639 N2633 0.985 . S
H2640 N2637 0.984 . S
H2641 N2637 0.985 . S
H2642 N2636 0.984 . S
H2643 N2636 0.984 . S
H2644 N2632 0.984 . S
H2645 N2632 0.985 . S
C2646 C2647 1.363 . S
C2646 C2652 1.379 . S
C2646 N2654 1.356 . S
C2647 C2646 1.363 . S
C2647 C2653 1.363 . S
C2648 C2649 1.363 . S
C2648 C2653 1.379 . S
C2648 N2655 1.356 . S
C2649 C2648 1.363 . S
C2649 C2652 1.363 . S
N2650 C2652 1.356 . S
N2650 H2662 0.984 . S
N2650 H2663 0.985 . S
N2651 C2653 1.356 . S
N2651 H2656 0.984 . S
N2651 H2657 0.985 . S
C2652 C2646 1.379 . S
C2652 C2649 1.363 . S
C2652 N2650 1.356 . S
C2653 C2647 1.363 . S
C2653 C2648 1.379 . S
C2653 N2651 1.356 . S
N2654 C2646 1.356 . S
N2654 H2660 0.984 . S
N2654 H2661 0.984 . S
N2655 C2648 1.356 . S
N2655 H2658 0.984 . S
N2655 H2659 0.985 . S
H2656 N2651 0.984 . S
H2657 N2651 0.985 . S
H2658 N2655 0.984 . S
H2659 N2655 0.985 . S
H2660 N2654 0.984 . S
H2661 N2654 0.984 . S
H2662 N2650 0.984 . S
H2663 N2650 0.985 . S
C2664 C2665 1.363 . S
C2664 C2670 1.379 . S
C2664 N2672 1.356 . S
C2665 C2664 1.363 . S
C2665 C2671 1.363 . S
C2666 C2667 1.363 . S
C2666 C2671 1.379 . S
C2666 N2673 1.356 . S
C2667 C2666 1.363 . S
C2667 C2670 1.363 . S
N2668 C2670 1.356 . S
N2668 H2680 0.984 . S
N2668 H2681 0.985 . S
N2669 C2671 1.356 . S
N2669 H2674 0.984 . S
N2669 H2675 0.985 . S
C2670 C2664 1.379 . S
C2670 C2667 1.363 . S
C2670 N2668 1.356 . S
C2671 C2665 1.363 . S
C2671 C2666 1.379 . S
C2671 N2669 1.356 . S
N2672 C2664 1.356 . S
N2672 H2678 0.984 . S
N2672 H2679 0.984 . S
N2673 C2666 1.356 . S
N2673 H2676 0.984 . S
N2673 H2677 0.985 . S
H2674 N2669 0.984 . S
H2675 N2669 0.985 . S
H2676 N2673 0.984 . S
H2677 N2673 0.985 . S
H2678 N2672 0.984 . S
H2679 N2672 0.984 . S
H2680 N2668 0.984 . S
H2681 N2668 0.985 . S
C2682 C2683 1.363 . S
C2682 C2688 1.379 . S
C2682 N2690 1.356 . S
C2683 C2682 1.363 . S
C2683 C2689 1.363 . S
C2684 C2685 1.363 . S
C2684 C2689 1.379 . S
C2684 N2691 1.356 . S
C2685 C2684 1.363 . S
C2685 C2688 1.363 . S
N2686 C2688 1.356 . S
N2686 H2698 0.984 . S
N2686 H2699 0.985 . S
N2687 C2689 1.356 . S
N2687 H2692 0.984 . S
N2687 H2693 0.985 . S
C2688 C2682 1.379 . S
C2688 C2685 1.363 . S
C2688 N2686 1.356 . S
C2689 C2683 1.363 . S
C2689 C2684 1.379 . S
C2689 N2687 1.356 . S
N2690 C2682 1.356 . S
N2690 H2696 0.984 . S
N2690 H2697 0.984 . S
N2691 C2684 1.356 . S
N2691 H2694 0.984 . S
N2691 H2695 0.985 . S
H2692 N2687 0.984 . S
H2693 N2687 0.985 . S
H2694 N2691 0.984 . S
H2695 N2691 0.985 . S
H2696 N2690 0.984 . S
H2697 N2690 0.984 . S
H2698 N2686 0.984 . S
H2699 N2686 0.985 . S
C2700 C2701 1.363 . S
C2700 C2706 1.379 . S
C2700 N2708 1.356 . S
C2701 C2700 1.363 . S
C2701 C2707 1.363 . S
C2702 C2703 1.363 . S
C2702 C2707 1.379 . S
C2702 N2709 1.356 . S
C2703 C2702 1.363 . S
C2703 C2706 1.363 . S
N2704 C2706 1.356 . S
N2704 H2716 0.984 . S
N2704 H2717 0.985 . S
N2705 C2707 1.356 . S
N2705 H2710 0.984 . S
N2705 H2711 0.985 . S
C2706 C2700 1.379 . S
C2706 C2703 1.363 . S
C2706 N2704 1.356 . S
C2707 C2701 1.363 . S
C2707 C2702 1.379 . S
C2707 N2705 1.356 . S
N2708 C2700 1.356 . S
N2708 H2714 0.984 . S
N2708 H2715 0.984 . S
N2709 C2702 1.356 . S
N2709 H2712 0.984 . S
N2709 H2713 0.985 . S
H2710 N2705 0.984 . S
H2711 N2705 0.985 . S
H2712 N2709 0.984 . S
H2713 N2709 0.985 . S
H2714 N2708 0.984 . S
H2715 N2708 0.984 . S
H2716 N2704 0.984 . S
H2717 N2704 0.985 . S
C2718 C2719 1.363 . S
C2718 C2724 1.379 . S
C2718 N2726 1.356 . S
C2719 C2718 1.363 . S
C2719 C2725 1.363 . S
C2720 C2721 1.363 . S
C2720 C2725 1.379 . S
C2720 N2727 1.356 . S
C2721 C2720 1.363 . S
C2721 C2724 1.363 . S
N2722 C2724 1.356 . S
N2722 H2734 0.984 . S
N2722 H2735 0.985 . S
N2723 C2725 1.356 . S
N2723 H2728 0.984 . S
N2723 H2729 0.985 . S
C2724 C2718 1.379 . S
C2724 C2721 1.363 . S
C2724 N2722 1.356 . S
C2725 C2719 1.363 . S
C2725 C2720 1.379 . S
C2725 N2723 1.356 . S
N2726 C2718 1.356 . S
N2726 H2732 0.984 . S
N2726 H2733 0.984 . S
N2727 C2720 1.356 . S
N2727 H2730 0.984 . S
N2727 H2731 0.985 . S
H2728 N2723 0.984 . S
H2729 N2723 0.985 . S
H2730 N2727 0.984 . S
H2731 N2727 0.985 . S
H2732 N2726 0.984 . S
H2733 N2726 0.984 . S
H2734 N2722 0.984 . S
H2735 N2722 0.985 . S
C2736 C2737 1.363 . S
C2736 C2742 1.379 . S
C2736 N2744 1.356 . S
C2737 C2736 1.363 . S
C2737 C2743 1.363 1_455 S
C2738 C2739 1.363 . S
C2738 C2743 1.379 . S
C2738 N2745 1.356 . S
C2739 C2738 1.363 . S
C2739 C2742 1.363 1_655 S
N2740 C2742 1.356 . S
N2740 H2752 0.984 . S
N2740 H2753 0.985 1_455 S
N2741 C2743 1.356 . S
N2741 H2746 0.984 1_655 S
N2741 H2747 0.985 . S
C2742 C2736 1.379 . S
C2742 C2739 1.363 1_455 S
C2742 N2740 1.356 . S
C2743 C2737 1.363 1_655 S
C2743 C2738 1.379 . S
C2743 N2741 1.356 . S
N2744 C2736 1.356 . S
N2744 H2750 0.984 . S
N2744 H2751 0.984 . S
N2745 C2738 1.356 . S
N2745 H2748 0.984 . S
N2745 H2749 0.985 . S
H2746 N2741 0.984 1_455 S
H2747 N2741 0.985 . S
H2748 N2745 0.984 . S
H2749 N2745 0.985 . S
H2750 N2744 0.984 . S
H2751 N2744 0.984 . S
H2752 N2740 0.984 . S
H2753 N2740 0.985 1_655 S
C2754 C2755 1.363 . S
C2754 C2760 1.379 . S
C2754 N2762 1.356 . S
C2755 C2754 1.363 . S
C2755 C2761 1.363 . S
C2756 C2757 1.363 . S
C2756 C2761 1.379 . S
C2756 N2763 1.356 . S
C2757 C2756 1.363 . S
C2757 C2760 1.363 . S
N2758 C2760 1.356 . S
N2758 H2770 0.984 . S
N2758 H2771 0.985 . S
N2759 C2761 1.356 . S
N2759 H2764 0.984 . S
N2759 H2765 0.985 . S
C2760 C2754 1.379 . S
C2760 C2757 1.363 . S
C2760 N2758 1.356 . S
C2761 C2755 1.363 . S
C2761 C2756 1.379 . S
C2761 N2759 1.356 . S
N2762 C2754 1.356 . S
N2762 H2768 0.984 . S
N2762 H2769 0.984 . S
N2763 C2756 1.356 . S
N2763 H2766 0.984 . S
N2763 H2767 0.985 . S
H2764 N2759 0.984 . S
H2765 N2759 0.985 . S
H2766 N2763 0.984 . S
H2767 N2763 0.985 . S
H2768 N2762 0.984 . S
H2769 N2762 0.984 . S
H2770 N2758 0.984 . S
H2771 N2758 0.985 . S
C2772 C2773 1.363 . S
C2772 C2778 1.379 . S
C2772 N2780 1.356 . S
C2773 C2772 1.363 . S
C2773 C2779 1.363 1_565 S
C2774 C2775 1.363 . S
C2774 C2779 1.379 . S
C2774 N2781 1.356 . S
C2775 C2774 1.363 . S
C2775 C2778 1.363 1_545 S
N2776 C2778 1.356 . S
N2776 H2788 0.984 . S
N2776 H2789 0.985 1_565 S
N2777 C2779 1.356 . S
N2777 H2782 0.984 1_545 S
N2777 H2783 0.985 . S
C2778 C2772 1.379 . S
C2778 C2775 1.363 1_565 S
C2778 N2776 1.356 . S
C2779 C2773 1.363 1_545 S
C2779 C2774 1.379 . S
C2779 N2777 1.356 . S
N2780 C2772 1.356 . S
N2780 H2786 0.984 . S
N2780 H2787 0.984 . S
N2781 C2774 1.356 . S
N2781 H2784 0.984 . S
N2781 H2785 0.985 . S
H2782 N2777 0.984 1_565 S
H2783 N2777 0.985 . S
H2784 N2781 0.984 . S
H2785 N2781 0.985 . S
H2786 N2780 0.984 . S
H2787 N2780 0.984 . S
H2788 N2776 0.984 . S
H2789 N2776 0.985 1_545 S
C2790 C2791 1.363 . S
C2790 C2796 1.379 1_655 S
C2790 N2798 1.356 . S
C2791 C2790 1.363 . S
C2791 C2797 1.363 . S
C2792 C2793 1.363 . S
C2792 C2797 1.379 1_455 S
C2792 N2799 1.356 . S
C2793 C2792 1.363 . S
C2793 C2796 1.363 . S
N2794 C2796 1.356 . S
N2794 H2806 0.984 . S
N2794 H2807 0.985 . S
N2795 C2797 1.356 . S
N2795 H2800 0.984 . S
N2795 H2801 0.985 . S
C2796 C2790 1.379 1_455 S
C2796 C2793 1.363 . S
C2796 N2794 1.356 . S
C2797 C2791 1.363 . S
C2797 C2792 1.379 1_655 S
C2797 N2795 1.356 . S
N2798 C2790 1.356 . S
N2798 H2804 0.984 . S
N2798 H2805 0.984 . S
N2799 C2792 1.356 . S
N2799 H2802 0.984 . S
N2799 H2803 0.985 . S
H2800 N2795 0.984 . S
H2801 N2795 0.985 . S
H2802 N2799 0.984 . S
H2803 N2799 0.985 . S
H2804 N2798 0.984 . S
H2805 N2798 0.984 . S
H2806 N2794 0.984 . S
H2807 N2794 0.985 . S
C2808 C2809 1.363 . S
C2808 C2814 1.379 . S
C2808 N2816 1.356 . S
C2809 C2808 1.363 . S
C2809 C2815 1.363 . S
C2810 C2811 1.363 . S
C2810 C2815 1.379 . S
C2810 N2817 1.356 . S
C2811 C2810 1.363 . S
C2811 C2814 1.363 . S
N2812 C2814 1.356 . S
N2812 H2824 0.984 . S
N2812 H2825 0.985 . S
N2813 C2815 1.356 . S
N2813 H2818 0.984 . S
N2813 H2819 0.985 . S
C2814 C2808 1.379 . S
C2814 C2811 1.363 . S
C2814 N2812 1.356 . S
C2815 C2809 1.363 . S
C2815 C2810 1.379 . S
C2815 N2813 1.356 . S
N2816 C2808 1.356 . S
N2816 H2822 0.984 . S
N2816 H2823 0.984 . S
N2817 C2810 1.356 . S
N2817 H2820 0.984 . S
N2817 H2821 0.985 . S
H2818 N2813 0.984 . S
H2819 N2813 0.985 . S
H2820 N2817 0.984 . S
H2821 N2817 0.985 . S
H2822 N2816 0.984 . S
H2823 N2816 0.984 . S
H2824 N2812 0.984 . S
H2825 N2812 0.985 . S
C2826 C2827 1.363 . S
C2826 C2832 1.379 . S
C2826 N2834 1.356 . S
C2827 C2826 1.363 . S
C2827 C2833 1.363 1_545 S
C2828 C2829 1.363 . S
C2828 C2833 1.379 . S
C2828 N2835 1.356 . S
C2829 C2828 1.363 . S
C2829 C2832 1.363 1_565 S
N2830 C2832 1.356 1_565 S
N2830 H2842 0.984 1_565 S
N2830 H2843 0.985 . S
N2831 C2833 1.356 1_545 S
N2831 H2836 0.984 . S
N2831 H2837 0.985 1_545 S
C2832 C2826 1.379 . S
C2832 C2829 1.363 1_545 S
C2832 N2830 1.356 1_545 S
C2833 C2827 1.363 1_565 S
C2833 C2828 1.379 . S
C2833 N2831 1.356 1_565 S
N2834 C2826 1.356 . S
N2834 H2840 0.984 . S
N2834 H2841 0.984 . S
N2835 C2828 1.356 . S
N2835 H2838 0.984 . S
N2835 H2839 0.985 . S
H2836 N2831 0.984 . S
H2837 N2831 0.985 1_565 S
H2838 N2835 0.984 . S
H2839 N2835 0.985 . S
H2840 N2834 0.984 . S
H2841 N2834 0.984 . S
H2842 N2830 0.984 1_545 S
H2843 N2830 0.985 . S
C2844 C2845 1.363 . S
C2844 C2850 1.379 . S
C2844 N2852 1.356 . S
C2845 C2844 1.363 . S
C2845 C2851 1.363 . S
C2846 C2847 1.363 . S
C2846 C2851 1.379 . S
C2846 N2853 1.356 . S
C2847 C2846 1.363 . S
C2847 C2850 1.363 . S
N2848 C2850 1.356 . S
N2848 H2860 0.984 . S
N2848 H2861 0.985 . S
N2849 C2851 1.356 . S
N2849 H2854 0.984 . S
N2849 H2855 0.985 . S
C2850 C2844 1.379 . S
C2850 C2847 1.363 . S
C2850 N2848 1.356 . S
C2851 C2845 1.363 . S
C2851 C2846 1.379 . S
C2851 N2849 1.356 . S
N2852 C2844 1.356 . S
N2852 H2858 0.984 . S
N2852 H2859 0.984 . S
N2853 C2846 1.356 . S
N2853 H2856 0.984 . S
N2853 H2857 0.985 . S
H2854 N2849 0.984 . S
H2855 N2849 0.985 . S
H2856 N2853 0.984 . S
H2857 N2853 0.985 . S
H2858 N2852 0.984 . S
H2859 N2852 0.984 . S
H2860 N2848 0.984 . S
H2861 N2848 0.985 . S
C2862 C2863 1.363 . S
C2862 C2868 1.379 . S
C2862 N2870 1.356 . S
C2863 C2862 1.363 . S
C2863 C2869 1.363 . S
C2864 C2865 1.363 . S
C2864 C2869 1.379 . S
C2864 N2871 1.356 . S
C2865 C2864 1.363 . S
C2865 C2868 1.363 . S
N2866 C2868 1.356 . S
N2866 H2878 0.984 . S
N2866 H2879 0.985 . S
N2867 C2869 1.356 . S
N2867 H2872 0.984 . S
N2867 H2873 0.985 . S
C2868 C2862 1.379 . S
C2868 C2865 1.363 . S
C2868 N2866 1.356 . S
C2869 C2863 1.363 . S
C2869 C2864 1.379 . S
C2869 N2867 1.356 . S
N2870 C2862 1.356 . S
N2870 H2876 0.984 . S
N2870 H2877 0.984 . S
N2871 C2864 1.356 . S
N2871 H2874 0.984 . S
N2871 H2875 0.985 . S
H2872 N2867 0.984 . S
H2873 N2867 0.985 . S
H2874 N2871 0.984 . S
H2875 N2871 0.985 . S
H2876 N2870 0.984 . S
H2877 N2870 0.984 . S
H2878 N2866 0.984 . S
H2879 N2866 0.985 . S
C2880 C2881 1.363 . S
C2880 C2886 1.379 . S
C2880 N2888 1.356 . S
C2881 C2880 1.363 . S
C2881 C2887 1.363 . S
C2882 C2883 1.363 . S
C2882 C2887 1.379 . S
C2882 N2889 1.356 . S
C2883 C2882 1.363 . S
C2883 C2886 1.363 . S
N2884 C2886 1.356 . S
N2884 H2896 0.984 . S
N2884 H2897 0.985 . S
N2885 C2887 1.356 . S
N2885 H2890 0.984 . S
N2885 H2891 0.985 . S
C2886 C2880 1.379 . S
C2886 C2883 1.363 . S
C2886 N2884 1.356 . S
C2887 C2881 1.363 . S
C2887 C2882 1.379 . S
C2887 N2885 1.356 . S
N2888 C2880 1.356 . S
N2888 H2894 0.984 . S
N2888 H2895 0.984 . S
N2889 C2882 1.356 . S
N2889 H2892 0.984 . S
N2889 H2893 0.985 . S
H2890 N2885 0.984 . S
H2891 N2885 0.985 . S
H2892 N2889 0.984 . S
H2893 N2889 0.985 . S
H2894 N2888 0.984 . S
H2895 N2888 0.984 . S
H2896 N2884 0.984 . S
H2897 N2884 0.985 . S
C2898 C2899 1.363 . S
C2898 C2904 1.379 . S
C2898 N2906 1.356 . S
C2899 C2898 1.363 . S
C2899 C2905 1.363 . S
C2900 C2901 1.363 . S
C2900 C2905 1.379 . S
C2900 N2907 1.356 . S
C2901 C2900 1.363 . S
C2901 C2904 1.363 . S
N2902 C2904 1.356 . S
N2902 H2914 0.984 . S
N2902 H2915 0.985 . S
N2903 C2905 1.356 . S
N2903 H2908 0.984 . S
N2903 H2909 0.985 . S
C2904 C2898 1.379 . S
C2904 C2901 1.363 . S
C2904 N2902 1.356 . S
C2905 C2899 1.363 . S
C2905 C2900 1.379 . S
C2905 N2903 1.356 . S
N2906 C2898 1.356 . S
N2906 H2912 0.984 . S
N2906 H2913 0.984 . S
N2907 C2900 1.356 . S
N2907 H2910 0.984 . S
N2907 H2911 0.985 . S
H2908 N2903 0.984 . S
H2909 N2903 0.985 . S
H2910 N2907 0.984 . S
H2911 N2907 0.985 . S
H2912 N2906 0.984 . S
H2913 N2906 0.984 . S
H2914 N2902 0.984 . S
H2915 N2902 0.985 . S
C2916 C2917 1.363 . S
C2916 C2922 1.379 . S
C2916 N2924 1.356 . S
C2917 C2916 1.363 . S
C2917 C2923 1.363 . S
C2918 C2919 1.363 . S
C2918 C2923 1.379 . S
C2918 N2925 1.356 . S
C2919 C2918 1.363 . S
C2919 C2922 1.363 . S
N2920 C2922 1.356 . S
N2920 H2932 0.984 . S
N2920 H2933 0.985 . S
N2921 C2923 1.356 . S
N2921 H2926 0.984 . S
N2921 H2927 0.985 . S
C2922 C2916 1.379 . S
C2922 C2919 1.363 . S
C2922 N2920 1.356 . S
C2923 C2917 1.363 . S
C2923 C2918 1.379 . S
C2923 N2921 1.356 . S
N2924 C2916 1.356 . S
N2924 H2930 0.984 . S
N2924 H2931 0.984 . S
N2925 C2918 1.356 . S
N2925 H2928 0.984 . S
N2925 H2929 0.985 . S
H2926 N2921 0.984 . S
H2927 N2921 0.985 . S
H2928 N2925 0.984 . S
H2929 N2925 0.985 . S
H2930 N2924 0.984 . S
H2931 N2924 0.984 . S
H2932 N2920 0.984 . S
H2933 N2920 0.985 . S
C2934 C2935 1.363 . S
C2934 C2940 1.379 . S
C2934 N2942 1.356 . S
C2935 C2934 1.363 . S
C2935 C2941 1.363 . S
C2936 C2937 1.363 . S
C2936 C2941 1.379 . S
C2936 N2943 1.356 . S
C2937 C2936 1.363 . S
C2937 C2940 1.363 . S
N2938 C2940 1.356 . S
N2938 H2950 0.984 . S
N2938 H2951 0.985 . S
N2939 C2941 1.356 . S
N2939 H2944 0.984 . S
N2939 H2945 0.985 . S
C2940 C2934 1.379 . S
C2940 C2937 1.363 . S
C2940 N2938 1.356 . S
C2941 C2935 1.363 . S
C2941 C2936 1.379 . S
C2941 N2939 1.356 . S
N2942 C2934 1.356 . S
N2942 H2948 0.984 . S
N2942 H2949 0.984 . S
N2943 C2936 1.356 . S
N2943 H2946 0.984 . S
N2943 H2947 0.985 . S
H2944 N2939 0.984 . S
H2945 N2939 0.985 . S
H2946 N2943 0.984 . S
H2947 N2943 0.985 . S
H2948 N2942 0.984 . S
H2949 N2942 0.984 . S
H2950 N2938 0.984 . S
H2951 N2938 0.985 . S
C2952 C2953 1.363 1_556 S
C2952 C2958 1.379 . S
C2952 N2960 1.356 1_556 S
C2953 C2952 1.363 1_554 S
C2953 C2959 1.363 . S
C2954 C2955 1.363 . S
C2954 C2959 1.379 1_556 S
C2954 N2961 1.356 . S
C2955 C2954 1.363 . S
C2955 C2958 1.363 . S
N2956 C2958 1.356 . S
N2956 H2968 0.984 . S
N2956 H2969 0.985 . S
N2957 C2959 1.356 . S
N2957 H2962 0.984 . S
N2957 H2963 0.985 . S
C2958 C2952 1.379 . S
C2958 C2955 1.363 . S
C2958 N2956 1.356 . S
C2959 C2953 1.363 . S
C2959 C2954 1.379 1_554 S
C2959 N2957 1.356 . S
N2960 C2952 1.356 1_554 S
N2960 H2966 0.984 . S
N2960 H2967 0.984 . S
N2961 C2954 1.356 . S
N2961 H2964 0.984 . S
N2961 H2965 0.985 . S
H2962 N2957 0.984 . S
H2963 N2957 0.985 . S
H2964 N2961 0.984 . S
H2965 N2961 0.985 . S
H2966 N2960 0.984 . S
H2967 N2960 0.984 . S
H2968 N2956 0.984 . S
H2969 N2956 0.985 . S
C2970 C2971 1.363 . S
C2970 C2976 1.379 1_556 S
C2970 N2978 1.356 . S
C2971 C2970 1.363 . S
C2971 C2977 1.363 . S
C2972 C2973 1.363 . S
C2972 C2977 1.379 1_554 S
C2972 N2979 1.356 . S
C2973 C2972 1.363 . S
C2973 C2976 1.363 . S
N2974 C2976 1.356 . S
N2974 H2986 0.984 . S
N2974 H2987 0.985 . S
N2975 C2977 1.356 . S
N2975 H2980 0.984 . S
N2975 H2981 0.985 . S
C2976 C2970 1.379 1_554 S
C2976 C2973 1.363 . S
C2976 N2974 1.356 . S
C2977 C2971 1.363 . S
C2977 C2972 1.379 1_556 S
C2977 N2975 1.356 . S
N2978 C2970 1.356 . S
N2978 H2984 0.984 . S
N2978 H2985 0.984 . S
N2979 C2972 1.356 . S
N2979 H2982 0.984 . S
N2979 H2983 0.985 . S
H2980 N2975 0.984 . S
H2981 N2975 0.985 . S
H2982 N2979 0.984 . S
H2983 N2979 0.985 . S
H2984 N2978 0.984 . S
H2985 N2978 0.984 . S
H2986 N2974 0.984 . S
H2987 N2974 0.985 . S
C2988 C2989 1.363 . S
C2988 C2994 1.379 1_556 S
C2988 N2996 1.356 . S
C2989 C2988 1.363 . S
C2989 C2995 1.363 . S
C2990 C2991 1.363 1_556 S
C2990 C2995 1.379 . S
C2990 N2997 1.356 . S
C2991 C2990 1.363 1_554 S
C2991 C2994 1.363 . S
N2992 C2994 1.356 . S
N2992 H3004 0.984 . S
N2992 H3005 0.985 . S
N2993 C2995 1.356 . S
N2993 H2998 0.984 . S
N2993 H2999 0.985 . S
C2994 C2988 1.379 1_554 S
C2994 C2991 1.363 . S
C2994 N2992 1.356 . S
C2995 C2989 1.363 . S
C2995 C2990 1.379 . S
C2995 N2993 1.356 . S
N2996 C2988 1.356 . S
N2996 H3002 0.984 1_556 S
N2996 H3003 0.984 . S
N2997 C2990 1.356 . S
N2997 H3000 0.984 1_556 S
N2997 H3001 0.985 . S
H2998 N2993 0.984 . S
H2999 N2993 0.985 . S
H3000 N2997 0.984 1_554 S
H3001 N2997 0.985 . S
H3002 N2996 0.984 1_554 S
H3003 N2996 0.984 . S
H3004 N2992 0.984 . S
H3005 N2992 0.985 . S
C3006 C3007 1.363 . S
C3006 C3012 1.379 . S
C3006 N3014 1.356 . S
C3007 C3006 1.363 . S
C3007 C3013 1.363 . S
C3008 C3009 1.363 . S
C3008 C3013 1.379 . S
C3008 N3015 1.356 . S
C3009 C3008 1.363 . S
C3009 C3012 1.363 . S
N3010 C3012 1.356 . S
N3010 H3022 0.984 . S
N3010 H3023 0.985 . S
N3011 C3013 1.356 . S
N3011 H3016 0.984 . S
N3011 H3017 0.985 . S
C3012 C3006 1.379 . S
C3012 C3009 1.363 . S
C3012 N3010 1.356 . S
C3013 C3007 1.363 . S
C3013 C3008 1.379 . S
C3013 N3011 1.356 . S
N3014 C3006 1.356 . S
N3014 H3020 0.984 . S
N3014 H3021 0.984 . S
N3015 C3008 1.356 . S
N3015 H3018 0.984 . S
N3015 H3019 0.985 . S
H3016 N3011 0.984 . S
H3017 N3011 0.985 . S
H3018 N3015 0.984 . S
H3019 N3015 0.985 . S
H3020 N3014 0.984 . S
H3021 N3014 0.984 . S
H3022 N3010 0.984 . S
H3023 N3010 0.985 . S
C3024 C3025 1.363 . S
C3024 C3030 1.379 . S
C3024 N3032 1.356 . S
C3025 C3024 1.363 . S
C3025 C3031 1.363 . S
C3026 C3027 1.363 . S
C3026 C3031 1.379 . S
C3026 N3033 1.356 . S
C3027 C3026 1.363 . S
C3027 C3030 1.363 . S
N3028 C3030 1.356 . S
N3028 H3040 0.984 . S
N3028 H3041 0.985 . S
N3029 C3031 1.356 . S
N3029 H3034 0.984 . S
N3029 H3035 0.985 . S
C3030 C3024 1.379 . S
C3030 C3027 1.363 . S
C3030 N3028 1.356 . S
C3031 C3025 1.363 . S
C3031 C3026 1.379 . S
C3031 N3029 1.356 . S
N3032 C3024 1.356 . S
N3032 H3038 0.984 . S
N3032 H3039 0.984 . S
N3033 C3026 1.356 . S
N3033 H3036 0.984 . S
N3033 H3037 0.985 . S
H3034 N3029 0.984 . S
H3035 N3029 0.985 . S
H3036 N3033 0.984 . S
H3037 N3033 0.985 . S
H3038 N3032 0.984 . S
H3039 N3032 0.984 . S
H3040 N3028 0.984 . S
H3041 N3028 0.985 . S
C3042 C3043 1.363 . S
C3042 C3048 1.379 . S
C3042 N3050 1.356 . S
C3043 C3042 1.363 . S
C3043 C3049 1.363 . S
C3044 C3045 1.363 . S
C3044 C3049 1.379 . S
C3044 N3051 1.356 . S
C3045 C3044 1.363 . S
C3045 C3048 1.363 . S
N3046 C3048 1.356 . S
N3046 H3058 0.984 . S
N3046 H3059 0.985 . S
N3047 C3049 1.356 . S
N3047 H3052 0.984 . S
N3047 H3053 0.985 . S
C3048 C3042 1.379 . S
C3048 C3045 1.363 . S
C3048 N3046 1.356 . S
C3049 C3043 1.363 . S
C3049 C3044 1.379 . S
C3049 N3047 1.356 . S
N3050 C3042 1.356 . S
N3050 H3056 0.984 . S
N3050 H3057 0.984 . S
N3051 C3044 1.356 . S
N3051 H3054 0.984 . S
N3051 H3055 0.985 . S
H3052 N3047 0.984 . S
H3053 N3047 0.985 . S
H3054 N3051 0.984 . S
H3055 N3051 0.985 . S
H3056 N3050 0.984 . S
H3057 N3050 0.984 . S
H3058 N3046 0.984 . S
H3059 N3046 0.985 . S
C3060 C3061 1.363 . S
C3060 C3066 1.379 1_455 S
C3060 N3068 1.356 . S
C3061 C3060 1.363 . S
C3061 C3067 1.363 . S
C3062 C3063 1.363 . S
C3062 C3067 1.379 1_655 S
C3062 N3069 1.356 . S
C3063 C3062 1.363 . S
C3063 C3066 1.363 . S
N3064 C3066 1.356 . S
N3064 H3076 0.984 1_554 S
N3064 H3077 0.985 1_554 S
N3065 C3067 1.356 . S
N3065 H3070 0.984 . S
N3065 H3071 0.985 . S
C3066 C3060 1.379 1_655 S
C3066 C3063 1.363 . S
C3066 N3064 1.356 . S
C3067 C3061 1.363 . S
C3067 C3062 1.379 1_455 S
C3067 N3065 1.356 . S
N3068 C3060 1.356 . S
N3068 H3074 0.984 . S
N3068 H3075 0.984 . S
N3069 C3062 1.356 . S
N3069 H3072 0.984 . S
N3069 H3073 0.985 . S
H3070 N3065 0.984 . S
H3071 N3065 0.985 . S
H3072 N3069 0.984 . S
H3073 N3069 0.985 . S
H3074 N3068 0.984 . S
H3075 N3068 0.984 . S
H3076 N3064 0.984 1_556 S
H3077 N3064 0.985 1_556 S
C3078 C3079 1.363 . S
C3078 C3084 1.379 . S
C3078 N3086 1.356 . S
C3079 C3078 1.363 . S
C3079 C3085 1.363 . S
C3080 C3081 1.363 . S
C3080 C3085 1.379 . S
C3080 N3087 1.356 1_554 S
C3081 C3080 1.363 . S
C3081 C3084 1.363 . S
N3082 C3084 1.356 . S
N3082 H3094 0.984 . S
N3082 H3095 0.985 . S
N3083 C3085 1.356 . S
N3083 H3088 0.984 . S
N3083 H3089 0.985 . S
C3084 C3078 1.379 . S
C3084 C3081 1.363 . S
C3084 N3082 1.356 . S
C3085 C3079 1.363 . S
C3085 C3080 1.379 . S
C3085 N3083 1.356 . S
N3086 C3078 1.356 . S
N3086 H3092 0.984 . S
N3086 H3093 0.984 . S
N3087 C3080 1.356 1_556 S
N3087 H3090 0.984 . S
N3087 H3091 0.985 . S
H3088 N3083 0.984 . S
H3089 N3083 0.985 . S
H3090 N3087 0.984 . S
H3091 N3087 0.985 . S
H3092 N3086 0.984 . S
H3093 N3086 0.984 . S
H3094 N3082 0.984 . S
H3095 N3082 0.985 . S
C3096 C3097 1.363 . S
C3096 C3102 1.379 . S
C3096 N3104 1.356 . S
C3097 C3096 1.363 . S
C3097 C3103 1.363 1_545 S
C3098 C3099 1.363 . S
C3098 C3103 1.379 . S
C3098 N3105 1.356 . S
C3099 C3098 1.363 . S
C3099 C3102 1.363 1_565 S
N3100 C3102 1.356 . S
N3100 H3112 0.984 . S
N3100 H3113 0.985 1_545 S
N3101 C3103 1.356 1_556 S
N3101 H3106 0.984 1_565 S
N3101 H3107 0.985 . S
C3102 C3096 1.379 . S
C3102 C3099 1.363 1_545 S
C3102 N3100 1.356 . S
C3103 C3097 1.363 1_565 S
C3103 C3098 1.379 . S
C3103 N3101 1.356 1_554 S
N3104 C3096 1.356 . S
N3104 H3110 0.984 . S
N3104 H3111 0.984 . S
N3105 C3098 1.356 . S
N3105 H3108 0.984 . S
N3105 H3109 0.985 . S
H3106 N3101 0.984 1_545 S
H3107 N3101 0.985 . S
H3108 N3105 0.984 . S
H3109 N3105 0.985 . S
H3110 N3104 0.984 . S
H3111 N3104 0.984 . S
H3112 N3100 0.984 . S
H3113 N3100 0.985 1_565 S
C3114 C3115 1.363 . S
C3114 C3120 1.379 . S
C3114 N3122 1.356 . S
C3115 C3114 1.363 . S
C3115 C3121 1.363 1_565 S
C3116 C3117 1.363 . S
C3116 C3121 1.379 . S
C3116 N3123 1.356 . S
C3117 C3116 1.363 . S
C3117 C3120 1.363 1_545 S
N3118 C3120 1.344 1_545 S
N3118 H3130 0.982 1_545 S
N3118 H3131 1.000 . S
N3119 C3121 1.343 1_565 S
N3119 H3124 1.001 . S
N3119 H3125 0.982 1_565 S
C3120 C3114 1.379 . S
C3120 C3117 1.363 1_565 S
C3120 N3118 1.344 1_565 S
C3121 C3115 1.363 1_545 S
C3121 C3116 1.379 . S
C3121 N3119 1.343 1_545 S
N3122 C3114 1.356 . S
N3122 H3128 0.984 . S
N3122 H3129 0.984 . S
N3123 C3116 1.356 . S
N3123 H3126 0.984 . S
N3123 H3127 0.985 . S
H3124 N3119 1.001 . S
H3125 N3119 0.982 1_545 S
H3126 N3123 0.984 . S
H3127 N3123 0.985 . S
H3128 N3122 0.984 . S
H3129 N3122 0.984 . S
H3130 N3118 0.982 1_565 S
H3131 N3118 1.000 . S
C3132 C3133 1.363 . S
C3132 C3138 1.379 . S
C3132 N3140 1.356 . S
C3133 C3132 1.363 . S
C3133 C3139 1.363 1_655 S
C3134 C3135 1.363 . S
C3134 C3139 1.379 . S
C3134 N3141 1.356 . S
C3135 C3134 1.363 . S
C3135 C3138 1.363 1_455 S
N3136 C3138 1.356 . S
N3136 H3148 0.984 . S
N3136 H3149 0.985 1_655 S
N3137 C3139 1.356 . S
N3137 H3142 0.984 1_455 S
N3137 H3143 0.985 . S
C3138 C3132 1.379 . S
C3138 C3135 1.363 1_655 S
C3138 N3136 1.356 . S
C3139 C3133 1.363 1_455 S
C3139 C3134 1.379 . S
C3139 N3137 1.356 . S
N3140 C3132 1.356 . S
N3140 H3146 0.984 . S
N3140 H3147 0.984 . S
N3141 C3134 1.356 . S
N3141 H3144 0.984 . S
N3141 H3145 0.985 . S
H3142 N3137 0.984 1_655 S
H3143 N3137 0.985 . S
H3144 N3141 0.984 . S
H3145 N3141 0.985 . S
H3146 N3140 0.984 . S
H3147 N3140 0.984 . S
H3148 N3136 0.984 . S
H3149 N3136 0.985 1_455 S
C3150 C3151 1.363 . S
C3150 C3156 1.379 . S
C3150 N3158 1.356 . S
C3151 C3150 1.363 . S
C3151 C3157 1.363 . S
C3152 C3153 1.363 . S
C3152 C3157 1.379 . S
C3152 N3159 1.356 . S
C3153 C3152 1.363 . S
C3153 C3156 1.363 . S
N3154 C3156 1.356 . S
N3154 H3166 0.984 . S
N3154 H3167 0.985 . S
N3155 C3157 1.356 . S
N3155 H3160 0.984 . S
N3155 H3161 0.985 . S
C3156 C3150 1.379 . S
C3156 C3153 1.363 . S
C3156 N3154 1.356 . S
C3157 C3151 1.363 . S
C3157 C3152 1.379 . S
C3157 N3155 1.356 . S
N3158 C3150 1.356 . S
N3158 H3164 0.984 . S
N3158 H3165 0.984 . S
N3159 C3152 1.356 . S
N3159 H3162 0.984 . S
N3159 H3163 0.985 . S
H3160 N3155 0.984 . S
H3161 N3155 0.985 . S
H3162 N3159 0.984 . S
H3163 N3159 0.985 . S
H3164 N3158 0.984 . S
H3165 N3158 0.984 . S
H3166 N3154 0.984 . S
H3167 N3154 0.985 . S
C3168 C3169 1.363 . S
C3168 C3174 1.379 . S
C3168 N3176 1.356 . S
C3169 C3168 1.363 . S
C3169 C3175 1.363 . S
C3170 C3171 1.363 . S
C3170 C3175 1.379 . S
C3170 N3177 1.356 . S
C3171 C3170 1.363 . S
C3171 C3174 1.363 . S
N3172 C3174 1.356 . S
N3172 H3184 0.984 . S
N3172 H3185 0.985 . S
N3173 C3175 1.356 . S
N3173 H3178 0.984 . S
N3173 H3179 0.985 . S
C3174 C3168 1.379 . S
C3174 C3171 1.363 . S
C3174 N3172 1.356 . S
C3175 C3169 1.363 . S
C3175 C3170 1.379 . S
C3175 N3173 1.356 . S
N3176 C3168 1.356 . S
N3176 H3182 0.984 . S
N3176 H3183 0.984 . S
N3177 C3170 1.356 . S
N3177 H3180 0.984 . S
N3177 H3181 0.985 . S
H3178 N3173 0.984 . S
H3179 N3173 0.985 . S
H3180 N3177 0.984 . S
H3181 N3177 0.985 . S
H3182 N3176 0.984 . S
H3183 N3176 0.984 . S
H3184 N3172 0.984 . S
H3185 N3172 0.985 . S
C3186 C3187 1.363 . S
C3186 C3192 1.379 . S
C3186 N3194 1.356 . S
C3187 C3186 1.363 . S
C3187 C3193 1.363 . S
C3188 C3189 1.363 . S
C3188 C3193 1.379 . S
C3188 N3195 1.356 . S
C3189 C3188 1.363 . S
C3189 C3192 1.363 . S
N3190 C3192 1.356 . S
N3190 H3202 0.984 . S
N3190 H3203 0.985 . S
N3191 C3193 1.356 . S
N3191 H3196 0.984 . S
N3191 H3197 0.985 . S
C3192 C3186 1.379 . S
C3192 C3189 1.363 . S
C3192 N3190 1.356 . S
C3193 C3187 1.363 . S
C3193 C3188 1.379 . S
C3193 N3191 1.356 . S
N3194 C3186 1.356 . S
N3194 H3200 0.984 . S
N3194 H3201 0.984 . S
N3195 C3188 1.356 . S
N3195 H3198 0.984 . S
N3195 H3199 0.985 . S
H3196 N3191 0.984 . S
H3197 N3191 0.985 . S
H3198 N3195 0.984 . S
H3199 N3195 0.985 . S
H3200 N3194 0.984 . S
H3201 N3194 0.984 . S
H3202 N3190 0.984 . S
H3203 N3190 0.985 . S
C3204 C3205 1.363 . S
C3204 C3210 1.379 . S
C3204 N3212 1.356 . S
C3205 C3204 1.363 . S
C3205 C3211 1.363 . S
C3206 C3207 1.363 . S
C3206 C3211 1.379 . S
C3206 N3213 1.356 . S
C3207 C3206 1.363 . S
C3207 C3210 1.363 . S
N3208 C3210 1.356 . S
N3208 H3220 0.984 . S
N3208 H3221 0.985 . S
N3209 C3211 1.356 . S
N3209 H3214 0.984 . S
N3209 H3215 0.985 . S
C3210 C3204 1.379 . S
C3210 C3207 1.363 . S
C3210 N3208 1.356 . S
C3211 C3205 1.363 . S
C3211 C3206 1.379 . S
C3211 N3209 1.356 . S
N3212 C3204 1.356 . S
N3212 H3218 0.984 . S
N3212 H3219 0.984 . S
N3213 C3206 1.356 . S
N3213 H3216 0.984 . S
N3213 H3217 0.985 . S
H3214 N3209 0.984 . S
H3215 N3209 0.985 . S
H3216 N3213 0.984 . S
H3217 N3213 0.985 . S
H3218 N3212 0.984 . S
H3219 N3212 0.984 . S
H3220 N3208 0.984 . S
H3221 N3208 0.985 . S
C3222 C3223 1.363 . S
C3222 C3228 1.379 . S
C3222 N3230 1.356 . S
C3223 C3222 1.363 . S
C3223 C3229 1.363 . S
C3224 C3225 1.363 . S
C3224 C3229 1.379 . S
C3224 N3231 1.356 . S
C3225 C3224 1.363 . S
C3225 C3228 1.363 . S
N3226 C3228 1.356 . S
N3226 H3238 0.984 . S
N3226 H3239 0.985 . S
N3227 C3229 1.356 . S
N3227 H3232 0.984 . S
N3227 H3233 0.985 . S
C3228 C3222 1.379 . S
C3228 C3225 1.363 . S
C3228 N3226 1.356 . S
C3229 C3223 1.363 . S
C3229 C3224 1.379 . S
C3229 N3227 1.356 . S
N3230 C3222 1.356 . S
N3230 H3236 0.984 1_556 S
N3230 H3237 0.984 1_556 S
N3231 C3224 1.356 . S
N3231 H3234 0.984 . S
N3231 H3235 0.985 . S
H3232 N3227 0.984 . S
H3233 N3227 0.985 . S
H3234 N3231 0.984 . S
H3235 N3231 0.985 . S
H3236 N3230 0.984 1_554 S
H3237 N3230 0.984 1_554 S
H3238 N3226 0.984 . S
H3239 N3226 0.985 . S
C3240 C3241 1.363 . S
C3240 C3246 1.379 . S
C3240 N3248 1.356 . S
C3241 C3240 1.363 . S
C3241 C3247 1.363 . S
C3242 C3243 1.363 . S
C3242 C3247 1.379 . S
C3242 N3249 1.356 . S
C3243 C3242 1.363 . S
C3243 C3246 1.363 . S
N3244 C3246 1.356 . S
N3244 H3256 0.984 . S
N3244 H3257 0.985 . S
N3245 C3247 1.356 . S
N3245 H3250 0.984 1_556 S
N3245 H3251 0.985 . S
C3246 C3240 1.379 . S
C3246 C3243 1.363 . S
C3246 N3244 1.356 . S
C3247 C3241 1.363 . S
C3247 C3242 1.379 . S
C3247 N3245 1.356 . S
N3248 C3240 1.356 . S
N3248 H3254 0.984 . S
N3248 H3255 0.984 . S
N3249 C3242 1.356 . S
N3249 H3252 0.984 . S
N3249 H3253 0.985 . S
H3250 N3245 0.984 1_554 S
H3251 N3245 0.985 . S
H3252 N3249 0.984 . S
H3253 N3249 0.985 . S
H3254 N3248 0.984 . S
H3255 N3248 0.984 . S
H3256 N3244 0.984 . S
H3257 N3244 0.985 . S
C3258 C3259 1.363 . S
C3258 C3264 1.379 . S
C3258 N3266 1.356 . S
C3259 C3258 1.363 . S
C3259 C3265 1.363 . S
C3260 C3261 1.363 . S
C3260 C3265 1.379 . S
C3260 N3267 1.356 . S
C3261 C3260 1.363 . S
C3261 C3264 1.363 . S
N3262 C3264 1.356 . S
N3262 H3274 0.984 . S
N3262 H3275 0.985 . S
N3263 C3265 1.356 . S
N3263 H3268 0.984 . S
N3263 H3269 0.985 . S
C3264 C3258 1.379 . S
C3264 C3261 1.363 . S
C3264 N3262 1.356 . S
C3265 C3259 1.363 . S
C3265 C3260 1.379 . S
C3265 N3263 1.356 . S
N3266 C3258 1.356 . S
N3266 H3272 0.984 . S
N3266 H3273 0.984 . S
N3267 C3260 1.356 . S
N3267 H3270 0.984 . S
N3267 H3271 0.985 . S
H3268 N3263 0.984 . S
H3269 N3263 0.985 . S
H3270 N3267 0.984 . S
H3271 N3267 0.985 . S
H3272 N3266 0.984 . S
H3273 N3266 0.984 . S
H3274 N3262 0.984 . S
H3275 N3262 0.985 . S
C3276 C3277 1.363 . S
C3276 C3282 1.379 . S
C3276 N3284 1.356 . S
C3277 C3276 1.363 . S
C3277 C3283 1.363 . S
C3278 C3279 1.363 . S
C3278 C3283 1.379 . S
C3278 N3285 1.356 . S
C3279 C3278 1.363 . S
C3279 C3282 1.363 . S
N3280 C3282 1.356 . S
N3280 H3292 0.984 . S
N3280 H3293 0.985 . S
N3281 C3283 1.356 . S
N3281 H3286 0.984 . S
N3281 H3287 0.985 . S
C3282 C3276 1.379 . S
C3282 C3279 1.363 . S
C3282 N3280 1.356 . S
C3283 C3277 1.363 . S
C3283 C3278 1.379 . S
C3283 N3281 1.356 . S
N3284 C3276 1.356 . S
N3284 H3290 0.984 . S
N3284 H3291 0.984 . S
N3285 C3278 1.356 . S
N3285 H3288 0.984 . S
N3285 H3289 0.985 . S
H3286 N3281 0.984 . S
H3287 N3281 0.985 . S
H3288 N3285 0.984 . S
H3289 N3285 0.985 . S
H3290 N3284 0.984 . S
H3291 N3284 0.984 . S
H3292 N3280 0.984 . S
H3293 N3280 0.985 . S
C3294 C3295 1.363 . S
C3294 C3300 1.379 . S
C3294 N3302 1.356 . S
C3295 C3294 1.363 . S
C3295 C3301 1.363 . S
C3296 C3297 1.363 . S
C3296 C3301 1.379 . S
C3296 N3303 1.356 . S
C3297 C3296 1.363 . S
C3297 C3300 1.363 . S
N3298 C3300 1.356 . S
N3298 H3310 0.984 . S
N3298 H3311 0.985 . S
N3299 C3301 1.356 . S
N3299 H3304 0.984 . S
N3299 H3305 0.985 . S
C3300 C3294 1.379 . S
C3300 C3297 1.363 . S
C3300 N3298 1.356 . S
C3301 C3295 1.363 . S
C3301 C3296 1.379 . S
C3301 N3299 1.356 . S
N3302 C3294 1.356 . S
N3302 H3308 0.984 . S
N3302 H3309 0.984 . S
N3303 C3296 1.356 . S
N3303 H3306 0.984 . S
N3303 H3307 0.985 . S
H3304 N3299 0.984 . S
H3305 N3299 0.985 . S
H3306 N3303 0.984 . S
H3307 N3303 0.985 . S
H3308 N3302 0.984 . S
H3309 N3302 0.984 . S
H3310 N3298 0.984 . S
H3311 N3298 0.985 . S
C3312 C3313 1.363 . S
C3312 C3318 1.379 . S
C3312 N3320 1.356 . S
C3313 C3312 1.363 . S
C3313 C3319 1.363 . S
C3314 C3315 1.363 . S
C3314 C3319 1.379 . S
C3314 N3321 1.356 . S
C3315 C3314 1.363 . S
C3315 C3318 1.363 . S
N3316 C3318 1.356 . S
N3316 H3328 0.984 . S
N3316 H3329 0.985 . S
N3317 C3319 1.356 . S
N3317 H3322 0.984 . S
N3317 H3323 0.985 . S
C3318 C3312 1.379 . S
C3318 C3315 1.363 . S
C3318 N3316 1.356 . S
C3319 C3313 1.363 . S
C3319 C3314 1.379 . S
C3319 N3317 1.356 . S
N3320 C3312 1.356 . S
N3320 H3326 0.984 . S
N3320 H3327 0.984 . S
N3321 C3314 1.356 . S
N3321 H3324 0.984 . S
N3321 H3325 0.985 . S
H3322 N3317 0.984 . S
H3323 N3317 0.985 . S
H3324 N3321 0.984 . S
H3325 N3321 0.985 . S
H3326 N3320 0.984 . S
H3327 N3320 0.984 . S
H3328 N3316 0.984 . S
H3329 N3316 0.985 . S
C3330 C3331 1.363 . S
C3330 C3336 1.379 . S
C3330 N3338 1.356 . S
C3331 C3330 1.363 . S
C3331 C3337 1.363 . S
C3332 C3333 1.363 . S
C3332 C3337 1.379 . S
C3332 N3339 1.356 . S
C3333 C3332 1.363 . S
C3333 C3336 1.363 . S
N3334 C3336 1.356 . S
N3334 H3346 0.984 . S
N3334 H3347 0.985 . S
N3335 C3337 1.356 . S
N3335 H3340 0.984 . S
N3335 H3341 0.985 . S
C3336 C3330 1.379 . S
C3336 C3333 1.363 . S
C3336 N3334 1.356 . S
C3337 C3331 1.363 . S
C3337 C3332 1.379 . S
C3337 N3335 1.356 . S
N3338 C3330 1.356 . S
N3338 H3344 0.984 . S
N3338 H3345 0.984 . S
N3339 C3332 1.356 . S
N3339 H3342 0.984 . S
N3339 H3343 0.985 . S
H3340 N3335 0.984 . S
H3341 N3335 0.985 . S
H3342 N3339 0.984 . S
H3343 N3339 0.985 . S
H3344 N3338 0.984 . S
H3345 N3338 0.984 . S
H3346 N3334 0.984 . S
H3347 N3334 0.985 . S
C3348 C3349 1.363 . S
C3348 C3354 1.379 . S
C3348 N3356 1.356 . S
C3349 C3348 1.363 . S
C3349 C3355 1.363 . S
C3350 C3351 1.363 . S
C3350 C3355 1.379 . S
C3350 N3357 1.356 . S
C3351 C3350 1.363 . S
C3351 C3354 1.363 . S
N3352 C3354 1.356 . S
N3352 H3364 0.984 . S
N3352 H3365 0.985 . S
N3353 C3355 1.356 . S
N3353 H3358 0.984 . S
N3353 H3359 0.985 . S
C3354 C3348 1.379 . S
C3354 C3351 1.363 . S
C3354 N3352 1.356 . S
C3355 C3349 1.363 . S
C3355 C3350 1.379 . S
C3355 N3353 1.356 . S
N3356 C3348 1.356 . S
N3356 H3362 0.984 . S
N3356 H3363 0.984 . S
N3357 C3350 1.356 . S
N3357 H3360 0.984 . S
N3357 H3361 0.985 . S
H3358 N3353 0.984 . S
H3359 N3353 0.985 . S
H3360 N3357 0.984 . S
H3361 N3357 0.985 . S
H3362 N3356 0.984 . S
H3363 N3356 0.984 . S
H3364 N3352 0.984 . S
H3365 N3352 0.985 . S
C3366 C3367 1.363 . S
C3366 C3372 1.379 . S
C3366 N3374 1.356 . S
C3367 C3366 1.363 . S
C3367 C3373 1.363 . S
C3368 C3369 1.363 . S
C3368 C3373 1.379 . S
C3368 N3375 1.356 . S
C3369 C3368 1.363 . S
C3369 C3372 1.363 . S
N3370 C3372 1.356 . S
N3370 H3382 0.984 . S
N3370 H3383 0.985 . S
N3371 C3373 1.356 . S
N3371 H3376 0.984 . S
N3371 H3377 0.985 . S
C3372 C3366 1.379 . S
C3372 C3369 1.363 . S
C3372 N3370 1.356 . S
C3373 C3367 1.363 . S
C3373 C3368 1.379 . S
C3373 N3371 1.356 . S
N3374 C3366 1.356 . S
N3374 H3380 0.984 . S
N3374 H3381 0.984 . S
N3375 C3368 1.356 . S
N3375 H3378 0.984 . S
N3375 H3379 0.985 . S
H3376 N3371 0.984 . S
H3377 N3371 0.985 . S
H3378 N3375 0.984 . S
H3379 N3375 0.985 . S
H3380 N3374 0.984 . S
H3381 N3374 0.984 . S
H3382 N3370 0.984 . S
H3383 N3370 0.985 . S
C1441 C609 2.588 . S
C1443 C9 2.588 . S
C1459 C649 2.589 . S
C1461 C49 2.589 . S
C1477 C89 2.589 . S
C1479 C689 2.589 . S
C1495 C129 2.587 . S
C1497 C969 2.587 . S
C1513 C169 2.589 . S
C1515 C1009 2.589 . S
C1531 C209 2.589 . S
C1533 C1049 2.589 . S
C1549 C1338 2.588 . S
C1551 C258 2.588 . S
C1567 C1378 2.588 . S
C1569 C298 2.589 . S
C1585 C338 2.589 . S
C1587 C1418 2.589 . S
C1603 C738 2.588 . S
C1605 C378 2.588 . S
C1621 C418 2.588 . S
C1623 C778 2.589 . S
C1639 C458 2.589 . S
C1641 C818 2.589 . S
C1657 C1089 2.588 . S
C1659 C489 2.588 . S
C1675 C529 2.589 . S
C1677 C1129 2.589 . S
C1693 C1169 2.589 . S
C1695 C569 2.589 . S
C1711 C1218 2.588 . S
C1713 C858 2.588 . S
C1729 C1258 2.589 . S
C1731 C898 2.589 . S
C1747 C938 2.589 . S
C1749 C1298 2.589 . S
C1765 C15 0.399 . S
C1767 C175 0.400 . S
C1783 C55 0.399 . S
C1785 C215 0.399 . S
C1801 C95 0.400 . S
C1803 C135 0.399 . S
C1819 C246 0.399 . S
C1821 C406 0.400 . S
C1837 C286 0.399 . S
C1839 C446 0.399 . S
C1855 C326 0.400 . S
C1857 C366 0.399 . S
C1873 C495 0.399 . S
C1875 C655 0.400 . S
C1891 C695 0.399 . S
C1893 C535 0.399 . S
C1909 C575 0.400 . S
C1911 C615 0.399 . S
C1927 C726 0.399 . S
C1929 C886 0.400 . S
C1945 C766 0.399 . S
C1947 C926 0.399 . S
C1963 C846 0.399 . S
C1965 C806 0.400 . S
C1981 C975 0.399 . S
C1983 C1135 0.400 . S
C1999 C1175 0.399 . S
C2001 C1015 0.399 . S
C2017 C1055 0.400 . S
C2019 C1095 0.399 . S
C2035 C1206 0.399 . S
C2037 C1366 0.400 . S
C2053 C1246 0.399 . S
C2055 C1406 0.399 . S
C2071 C1286 0.400 . S
C2073 C1326 0.398 . S
C2089 C415 1.684 . S
C2091 C19 1.783 1_556 S
C2107 C59 1.784 1_556 S
C2109 C455 1.685 . S
C2125 C99 1.783 1_556 S
C2127 C375 1.685 . S
C2143 C139 1.783 . S
C2145 C335 1.684 . S
C2161 C179 1.783 . S
C2163 C255 1.684 . S
C2179 C295 1.685 . S
C2181 C219 1.784 . S
C2197 C250 1.783 . S
C2199 C166 1.684 . S
C2215 C206 1.685 . S
C2217 C290 1.784 . S
C2233 C330 1.783 . S
C2235 C126 1.684 . S
C2251 C370 1.783 . S
C2253 C86 1.684 . S
C2269 C6 1.684 . S
C2271 C410 1.783 . S
C2287 C46 1.685 . S
C2289 C450 1.784 . S
C2305 C895 1.684 . S
C2307 C499 1.783 . S
C2323 C935 1.685 . S
C2325 C539 1.784 . S
C2341 C855 1.685 . S
C2343 C579 1.783 . S
C2359 C815 1.684 . S
C2361 C619 1.783 . S
C2377 C659 1.783 . S
C2379 C735 1.684 . S
C2395 C775 1.685 . S
C2397 C699 1.784 . S
C2413 C646 1.684 . S
C2415 C730 1.783 . S
C2431 C770 1.784 . S
C2433 C686 1.685 . S
C2449 C810 1.783 . S
C2451 C606 1.684 . S
C2467 C566 1.684 . S
C2469 C850 1.783 . S
C2485 C890 1.783 . S
C2487 C486 1.684 . S
C2503 C930 1.784 . S
C2505 C526 1.685 . S
C2521 C979 1.783 . S
C2523 C1375 1.684 . S
C2539 C1019 1.784 . S
C2541 C1415 1.685 . S
C2557 C1335 1.684 . S
C2559 C1059 1.783 . S
C2575 C1295 1.684 . S
C2577 C1099 1.783 . S
C2593 C1139 1.783 . S
C2595 C1215 1.684 . S
C2611 C1255 1.685 . S
C2613 C1179 1.784 . S
C2629 C1210 1.783 . S
C2631 C1126 1.684 . S
C2647 C1166 1.685 . S
C2649 C1250 1.784 . S
C2665 C1290 1.783 . S
C2667 C1086 1.684 . S
C2683 C1330 1.783 . S
C2685 C1046 1.684 . S
C2701 C966 1.685 . S
C2703 C1370 1.783 . S
C2719 C1006 1.685 . S
C2721 C1410 1.784 . S
C2737 C10 3.366 . S
C2739 C170 3.366 . S
C2755 C210 3.366 . S
C2757 C50 3.366 . S
C2773 C90 3.366 . S
C2775 C130 3.366 . S
C2791 C259 3.366 . S
C2793 C419 3.366 . S
C2809 C459 3.366 . S
C2811 C299 3.366 . S
C2827 C339 3.366 . S
C2829 C379 3.366 . S
C2845 C650 3.366 . S
C2847 C490 3.366 . S
C2863 C690 3.366 . S
C2865 C530 3.366 . S
C2881 C610 3.366 . S
C2883 C570 3.366 . S
C2899 C899 3.366 . S
C2901 C739 3.366 . S
C2917 C779 3.366 . S
C2919 C939 3.366 . S
C2935 C859 3.366 . S
C2937 C819 3.366 . S
C2953 C1130 3.366 . S
C2955 C970 3.366 . S
C2971 C1010 3.366 . S
C2973 C1170 3.366 . S
C2989 C1050 3.366 . S
C2991 C1090 3.366 . S
C3007 C1379 3.366 . S
C3009 C1219 3.366 . S
C3025 C1259 3.366 . S
C3027 C1419 3.366 . S
C3043 C1299 3.366 . S
C3045 C1339 3.366 . S
C3061 C18 1.392 . S
C3063 C249 1.392 . S
C3079 C58 1.393 . S
C3081 C289 1.393 . S
C3097 C329 1.393 . S
C3099 C98 1.393 . S
C3115 C369 1.392 . S
C3117 C138 1.392 . S
C3133 C178 1.393 . S
C3135 C409 1.393 . S
C3151 C218 1.393 . S
C3153 C449 1.393 . S
C3169 C729 1.392 . S
C3171 C498 1.392 . S
C3187 C538 1.393 . S
C3189 C769 1.393 . S
C3205 C809 1.393 . S
C3207 C578 1.393 . S
C3223 C849 1.392 . S
C3225 C618 1.392 . S
C3241 C889 1.393 . S
C3243 C658 1.393 . S
C3259 C929 1.393 . S
C3261 C698 1.393 . S
C3277 C1209 1.392 . S
C3279 C978 1.392 . S
C3295 C1018 1.393 . S
C3297 C1249 1.393 . S
C3313 C1289 1.393 . S
C3315 C1058 1.393 . S
C3331 C1329 1.392 . S
C3333 C1098 1.392 . S
C3349 C1369 1.393 . S
C3351 C1138 1.393 . S
C3367 C1178 1.393 . S
C3369 C1409 1.393 . S
