# Generated by pormake.
# Topology fnr, (5)-cn, num edge types: 1
# Building blocks:
#     Node 0, Type 0, BuildingBlock: XOMCOT_clean_sbu_0, # of connection points: 5
#     Node 1, Type 0, BuildingBlock: XOMCOT_clean_sbu_0, # of connection points: 5
#     Node 2, Type 0, BuildingBlock: XOMCOT_clean_sbu_0, # of connection points: 5
#     Node 3, Type 0, BuildingBlock: XOMCOT_clean_sbu_0, # of connection points: 5
#     Node 4, Type 0, BuildingBlock: XOMCOT_clean_sbu_0, # of connection points: 5
#     Node 5, Type 0, BuildingBlock: XOMCOT_clean_sbu_0, # of connection points: 5
#     Node 6, Type 0, BuildingBlock: XOMCOT_clean_sbu_0, # of connection points: 5
#     Node 7, Type 0, BuildingBlock: XOMCOT_clean_sbu_0, # of connection points: 5
#     Node 8, Type 0, BuildingBlock: XOMCOT_clean_sbu_0, # of connection points: 5
#     Node 9, Type 0, BuildingBlock: XOMCOT_clean_sbu_0, # of connection points: 5
#     Node 10, Type 0, BuildingBlock: XOMCOT_clean_sbu_0, # of connection points: 5
#     Node 11, Type 0, BuildingBlock: XOMCOT_clean_sbu_0, # of connection points: 5
#     Edge 12, Type (0, 0), BuildingBlock: UVAHIK_clean_linker_0, # of connection points: 2
#     Edge 13, Type (0, 0), BuildingBlock: UVAHIK_clean_linker_0, # of connection points: 2
#     Edge 14, Type (0, 0), BuildingBlock: UVAHIK_clean_linker_0, # of connection points: 2
#     Edge 15, Type (0, 0), BuildingBlock: UVAHIK_clean_linker_0, # of connection points: 2
#     Edge 16, Type (0, 0), BuildingBlock: UVAHIK_clean_linker_0, # of connection points: 2
#     Edge 17, Type (0, 0), BuildingBlock: UVAHIK_clean_linker_0, # of connection points: 2
#     Edge 18, Type (0, 0), BuildingBlock: UVAHIK_clean_linker_0, # of connection points: 2
#     Edge 19, Type (0, 0), BuildingBlock: UVAHIK_clean_linker_0, # of connection points: 2
#     Edge 20, Type (0, 0), BuildingBlock: UVAHIK_clean_linker_0, # of connection points: 2
#     Edge 21, Type (0, 0), BuildingBlock: UVAHIK_clean_linker_0, # of connection points: 2
#     Edge 22, Type (0, 0), BuildingBlock: UVAHIK_clean_linker_0, # of connection points: 2
#     Edge 23, Type (0, 0), BuildingBlock: UVAHIK_clean_linker_0, # of connection points: 2
#     Edge 24, Type (0, 0), BuildingBlock: UVAHIK_clean_linker_0, # of connection points: 2
#     Edge 25, Type (0, 0), BuildingBlock: UVAHIK_clean_linker_0, # of connection points: 2
#     Edge 26, Type (0, 0), BuildingBlock: UVAHIK_clean_linker_0, # of connection points: 2
#     Edge 27, Type (0, 0), BuildingBlock: UVAHIK_clean_linker_0, # of connection points: 2
#     Edge 28, Type (0, 0), BuildingBlock: UVAHIK_clean_linker_0, # of connection points: 2
#     Edge 29, Type (0, 0), BuildingBlock: UVAHIK_clean_linker_0, # of connection points: 2
#     Edge 30, Type (0, 0), BuildingBlock: UVAHIK_clean_linker_0, # of connection points: 2
#     Edge 31, Type (0, 0), BuildingBlock: UVAHIK_clean_linker_0, # of connection points: 2
#     Edge 32, Type (0, 0), BuildingBlock: UVAHIK_clean_linker_0, # of connection points: 2
#     Edge 33, Type (0, 0), BuildingBlock: UVAHIK_clean_linker_0, # of connection points: 2
#     Edge 34, Type (0, 0), BuildingBlock: UVAHIK_clean_linker_0, # of connection points: 2
#     Edge 35, Type (0, 0), BuildingBlock: UVAHIK_clean_linker_0, # of connection points: 2
#     Edge 36, Type (0, 0), BuildingBlock: UVAHIK_clean_linker_0, # of connection points: 2
#     Edge 37, Type (0, 0), BuildingBlock: UVAHIK_clean_linker_0, # of connection points: 2
#     Edge 38, Type (0, 0), BuildingBlock: UVAHIK_clean_linker_0, # of connection points: 2
#     Edge 39, Type (0, 0), BuildingBlock: UVAHIK_clean_linker_0, # of connection points: 2
#     Edge 40, Type (0, 0), BuildingBlock: UVAHIK_clean_linker_0, # of connection points: 2
#     Edge 41, Type (0, 0), BuildingBlock: UVAHIK_clean_linker_0, # of connection points: 2
# Relax obj value: 0.285
# Max RMSD: 0.220
# Mean RMSD: 0.220
data_MOF--net-fnr--node1-XOMCOT_clean_sbu_0--edge1-UVAHIK_clean_linker_0
_symmetry_space_group_name_H-M    P1
_symmetry_Int_Tables_number       1
_symmetry_cell_setting            triclinic
loop_
_symmetry_equiv_pos_as_xyz
'x, y, z'
_cell_length_a     51.311605
_cell_length_b     51.3287
_cell_length_c     65.850799
_cell_angle_alpha  89.99747
_cell_angle_beta   90.008019
_cell_angle_gamma 120.00181
loop_
_atom_site_label
_atom_site_type_symbol
_atom_site_fract_x
_atom_site_fract_y
_atom_site_fract_z
_atom_type_partial_charge
Co0 Co 0.39662 0.18873 0.0773 0.0
C1 C 0.34803 0.19458 0.05613 0.0
C2 C 0.37945 0.23517 0.07144 0.0
C3 C 0.35851 0.24006 0.0619 0.0
N4 N 0.37276 0.20648 0.0682 0.0
N5 N 0.33893 0.21464 0.05227 0.0
H6 H 0.33708 0.17205 0.04996 0.0
H7 H 0.39899 0.25217 0.07933 0.0
C8 C 0.45518 0.24188 0.0907 0.0
O9 O 0.45445 0.22638 0.1068 0.0
N10 N 0.42104 0.17134 0.08561 0.0
C11 C 0.4135 0.14632 0.09661 0.0
C12 C 0.43786 0.14187 0.09738 0.0
C13 C 0.44935 0.1808 0.07915 0.0
N14 N 0.46038 0.16383 0.08657 0.0
C15 C 0.36655 0.16481 0.11524 0.0
C16 C 0.38977 0.21792 0.13667 0.0
C17 C 0.37258 0.19075 0.14714 0.0
C18 C 0.36023 0.164 0.13592 0.0
C19 C 0.39582 0.21766 0.11596 0.0
N20 N 0.38581 0.19117 0.10566 0.0
H21 H 0.35628 0.1438 0.10711 0.0
H22 H 0.40917 0.23901 0.10865 0.0
H23 H 0.39183 0.13171 0.10331 0.0
H24 H 0.46172 0.19979 0.06911 0.0
O25 O 0.36408 0.14895 0.07124 0.0
O26 O 0.39994 0.17772 0.04951 0.0
O27 O 0.43369 0.23042 0.07775 0.0
C28 C 0.37621 0.15181 0.05349 0.0
H29 H 0.35848 0.26113 0.06121 0.0
H30 H 0.43909 0.1242 0.10553 0.0
H31 H 0.39877 0.23933 0.14439 0.0
H32 H 0.34647 0.14233 0.14307 0.0
Co33 Co 0.21471 0.39825 0.57445 0.0
C34 C 0.15246 0.34614 0.56393 0.0
C35 C 0.17517 0.37764 0.53982 0.0
C36 C 0.14835 0.3552 0.53249 0.0
N37 N 0.17814 0.37208 0.55946 0.0
N38 N 0.13411 0.33543 0.54757 0.0
H39 H 0.14709 0.33508 0.5785 0.0
H40 H 0.19159 0.39695 0.53134 0.0
C41 C 0.1823 0.43241 0.57118 0.0
O42 O 0.15779 0.40716 0.57585 0.0
N43 N 0.25183 0.42519 0.58801 0.0
C44 C 0.26366 0.42069 0.60502 0.0
C45 C 0.29092 0.4463 0.60878 0.0
C46 C 0.27198 0.4529 0.58147 0.0
N47 N 0.29606 0.46635 0.59385 0.0
C48 C 0.1853 0.36156 0.60927 0.0
C49 C 0.19256 0.40867 0.63354 0.0
C50 C 0.18458 0.38103 0.64258 0.0
C51 C 0.17972 0.3569 0.63015 0.0
C52 C 0.19764 0.41233 0.61269 0.0
N53 N 0.19452 0.38911 0.60075 0.0
H54 H 0.18472 0.34367 0.60031 0.0
H55 H 0.20735 0.43485 0.60674 0.0
H56 H 0.25325 0.40034 0.61401 0.0
H57 H 0.26889 0.46311 0.56798 0.0
O58 O 0.22591 0.36756 0.5742 0.0
O59 O 0.23774 0.40197 0.55021 0.0
O60 O 0.20744 0.43299 0.56976 0.0
C61 C 0.23941 0.37906 0.5571 0.0
H62 H 0.13968 0.3537 0.51728 0.0
H63 H 0.30597 0.44976 0.62131 0.0
H64 H 0.19699 0.42797 0.64273 0.0
H65 H 0.1742 0.33538 0.63671 0.0
Co66 Co 0.81341 0.21378 0.06504 0.0
C67 C 0.79599 0.1494 0.05962 0.0
C68 C 0.76488 0.16074 0.04592 0.0
C69 C 0.75405 0.13058 0.04321 0.0
N70 N 0.79087 0.17246 0.05641 0.0
N71 N 0.77353 0.12356 0.05181 0.0
H72 H 0.81534 0.15138 0.06761 0.0
H73 H 0.7545 0.17329 0.0405 0.0
C74 C 0.76561 0.22581 0.08103 0.0
O75 O 0.78353 0.24116 0.09611 0.0
N76 N 0.8354 0.25602 0.07269 0.0
C77 C 0.86118 0.27246 0.08324 0.0
C78 C 0.86788 0.30211 0.08357 0.0
C79 C 0.82785 0.27618 0.066 0.0
N80 N 0.84656 0.30412 0.07291 0.0
C81 C 0.83693 0.20634 0.10258 0.0
C82 C 0.78308 0.17715 0.12342 0.0
C83 C 0.81005 0.18657 0.13406 0.0
C84 C 0.83707 0.20011 0.12313 0.0
C85 C 0.78403 0.18372 0.10273 0.0
N86 N 0.81096 0.20043 0.09302 0.0
H87 H 0.8579 0.21617 0.09441 0.0
H88 H 0.76307 0.17579 0.09468 0.0
H89 H 0.87474 0.26417 0.09 0.0
H90 H 0.80874 0.27041 0.05625 0.0
O91 O 0.8504 0.21552 0.05768 0.0
O92 O 0.82322 0.2266 0.03698 0.0
O93 O 0.77418 0.21384 0.0675 0.0
C94 C 0.84746 0.22491 0.03999 0.0
H95 H 0.73372 0.11499 0.03518 0.0
H96 H 0.88655 0.32056 0.09138 0.0
H97 H 0.76154 0.16571 0.13109 0.0
H98 H 0.85827 0.20616 0.13044 0.0
Co99 Co 0.60096 0.81939 0.56902 0.0
C100 C 0.64723 0.8054 0.55359 0.0
C101 C 0.60612 0.78459 0.53633 0.0
C102 C 0.62618 0.77804 0.52719 0.0
N103 N 0.61927 0.80173 0.55278 0.0
N104 N 0.65197 0.79114 0.53798 0.0
H105 H 0.66394 0.81893 0.56485 0.0
H106 H 0.58368 0.77797 0.53107 0.0
C107 C 0.54352 0.76834 0.58334 0.0
O108 O 0.55037 0.78249 0.60087 0.0
N109 N 0.58097 0.83709 0.58408 0.0
C110 C 0.58808 0.85437 0.60093 0.0
C111 C 0.56531 0.86068 0.60475 0.0
C112 C 0.55466 0.83413 0.57768 0.0
N113 N 0.54436 0.84788 0.59005 0.0
C114 C 0.63373 0.82908 0.60606 0.0
C115 C 0.6106 0.76927 0.6161 0.0
C116 C 0.62768 0.79141 0.63053 0.0
C117 C 0.64057 0.8217 0.62489 0.0
C118 C 0.60447 0.7778 0.59735 0.0
N119 N 0.61353 0.80729 0.59344 0.0
H120 H 0.64397 0.8525 0.60197 0.0
H121 H 0.59151 0.76056 0.58629 0.0
H122 H 0.60812 0.8623 0.60995 0.0
H123 H 0.5428 0.82117 0.56441 0.0
O124 O 0.6358 0.85839 0.56594 0.0
O125 O 0.59688 0.83889 0.54484 0.0
O126 O 0.56143 0.77985 0.56821 0.0
C127 C 0.62285 0.86171 0.55004 0.0
H128 H 0.62219 0.76476 0.51356 0.0
H129 H 0.56443 0.87389 0.61726 0.0
H130 H 0.60142 0.74562 0.61945 0.0
H131 H 0.65455 0.8397 0.63527 0.0
Co132 Co 0.79112 0.60561 0.07016 0.0
C133 C 0.84536 0.65112 0.04687 0.0
C134 C 0.85514 0.62409 0.06684 0.0
C135 C 0.88125 0.6442 0.0572 0.0
N136 N 0.83257 0.62857 0.06071 0.0
N137 N 0.87506 0.66106 0.04466 0.0
H138 H 0.83354 0.66026 0.03861 0.0
H139 H 0.85295 0.60694 0.07726 0.0
C140 C 0.77956 0.54213 0.07565 0.0
O141 O 0.7614 0.53797 0.09091 0.0
N142 N 0.74958 0.5826 0.07936 0.0
C143 C 0.73725 0.58797 0.09577 0.0
C144 C 0.70801 0.565 0.09776 0.0
C145 C 0.72703 0.55726 0.07096 0.0
N146 N 0.70174 0.54546 0.08234 0.0
C147 C 0.8071 0.63602 0.10862 0.0
C148 C 0.82103 0.59762 0.12895 0.0
C149 C 0.81942 0.62009 0.13995 0.0
C150 C 0.81337 0.6401 0.12937 0.0
C151 C 0.81451 0.59427 0.10822 0.0
N152 N 0.80578 0.61217 0.0984 0.0
H153 H 0.80172 0.65141 0.10118 0.0
H154 H 0.81709 0.57738 0.10044 0.0
H155 H 0.7486 0.60678 0.10598 0.0
H156 H 0.72993 0.54633 0.05779 0.0
O157 O 0.78598 0.64006 0.06753 0.0
O158 O 0.77617 0.60669 0.04319 0.0
O159 O 0.79364 0.56767 0.06672 0.0
C160 C 0.77566 0.63052 0.04944 0.0
H161 H 0.90302 0.64584 0.05884 0.0
H162 H 0.69285 0.5623 0.11005 0.0
H163 H 0.82707 0.58251 0.13633 0.0
H164 H 0.81213 0.65803 0.13716 0.0
Co165 Co 0.18515 0.78508 0.57412 0.0
C166 C 0.18978 0.84349 0.55878 0.0
C167 C 0.20813 0.82325 0.53923 0.0
C168 C 0.21027 0.84772 0.5295 0.0
N169 N 0.1955 0.82041 0.55765 0.0
N170 N 0.19865 0.86042 0.54165 0.0
H171 H 0.17874 0.84755 0.5713 0.0
H172 H 0.21495 0.80801 0.53312 0.0
C173 C 0.25158 0.81827 0.57189 0.0
O174 O 0.24966 0.84233 0.57591 0.0
N175 N 0.17501 0.74888 0.58894 0.0
C176 C 0.15561 0.73646 0.60451 0.0
C177 C 0.15271 0.70879 0.60875 0.0
C178 C 0.1836 0.72889 0.5839 0.0
N179 N 0.17036 0.70416 0.59575 0.0
C180 C 0.17833 0.81766 0.60725 0.0
C181 C 0.21694 0.81092 0.63316 0.0
C182 C 0.19808 0.82077 0.6411 0.0
C183 C 0.17939 0.82523 0.62778 0.0
C184 C 0.21536 0.80384 0.61261 0.0
N185 N 0.196 0.80688 0.59984 0.0
H186 H 0.16119 0.81777 0.59785 0.0
H187 H 0.22766 0.79307 0.60755 0.0
H188 H 0.14382 0.74642 0.61184 0.0
H189 H 0.19808 0.73177 0.57113 0.0
O190 O 0.14337 0.77382 0.57367 0.0
O191 O 0.16576 0.76073 0.55025 0.0
O192 O 0.22755 0.79264 0.57031 0.0
C193 C 0.14125 0.7595 0.55696 0.0
H194 H 0.21985 0.8557 0.51459 0.0
H195 H 0.13839 0.69313 0.62027 0.0
H196 H 0.23145 0.80685 0.64302 0.0
H197 H 0.16389 0.83205 0.63346 0.0
Co198 Co 0.82119 0.60045 0.42813 0.0
C199 C 0.81049 0.64708 0.44759 0.0
C200 C 0.77124 0.61261 0.43256 0.0
C201 C 0.76439 0.63314 0.44053 0.0
N202 N 0.80024 0.62137 0.43671 0.0
N203 N 0.78899 0.65467 0.44998 0.0
H204 H 0.8331 0.66022 0.45348 0.0
H205 H 0.75571 0.59251 0.42448 0.0
C206 C 0.77255 0.53711 0.41859 0.0
O207 O 0.78931 0.53658 0.40369 0.0
N208 N 0.8422 0.5794 0.42003 0.0
C209 C 0.8617 0.58546 0.40458 0.0
C210 C 0.86906 0.56313 0.40365 0.0
C211 C 0.83933 0.55437 0.42892 0.0
N212 N 0.85474 0.54348 0.41884 0.0
C213 C 0.83904 0.63117 0.38985 0.0
C214 C 0.78639 0.59601 0.3688 0.0
C215 C 0.81161 0.6176 0.35817 0.0
C216 C 0.83788 0.63604 0.36912 0.0
C217 C 0.78854 0.59189 0.38956 0.0
N218 N 0.81528 0.60798 0.39969 0.0
H219 H 0.85993 0.6453 0.39763 0.0
H220 H 0.76843 0.57553 0.39709 0.0
H221 H 0.86972 0.60421 0.39429 0.0
H222 H 0.82423 0.54299 0.44147 0.0
O223 O 0.85958 0.63582 0.43252 0.0
O224 O 0.83489 0.60097 0.45583 0.0
O225 O 0.78153 0.56091 0.42933 0.0
C226 C 0.85922 0.62565 0.4506 0.0
H227 H 0.74278 0.63205 0.43984 0.0
H228 H 0.88299 0.5609 0.39223 0.0
H229 H 0.76518 0.58212 0.3611 0.0
H230 H 0.85791 0.65325 0.36163 0.0
Co231 Co 0.23011 0.82967 0.92518 0.0
C232 C 0.16728 0.81685 0.93777 0.0
C233 C 0.19298 0.81082 0.96108 0.0
C234 C 0.16601 0.80477 0.96922 0.0
N235 N 0.19425 0.81875 0.94142 0.0
N236 N 0.14984 0.80857 0.95464 0.0
H237 H 0.16011 0.82105 0.92337 0.0
H238 H 0.21054 0.80914 0.969 0.0
C239 C 0.19789 0.76322 0.92738 0.0
O240 O 0.17356 0.76456 0.92315 0.0
N241 N 0.26658 0.84021 0.91049 0.0
C242 C 0.27859 0.85896 0.89457 0.0
C243 C 0.30601 0.86142 0.89003 0.0
C244 C 0.28665 0.83164 0.91547 0.0
N245 N 0.311 0.8442 0.90321 0.0
C246 C 0.19707 0.83623 0.89247 0.0
C247 C 0.20234 0.79719 0.86616 0.0
C248 C 0.19091 0.8151 0.8587 0.0
C249 C 0.18759 0.83423 0.87235 0.0
C250 C 0.21117 0.7996 0.88646 0.0
N251 N 0.2084 0.81885 0.89945 0.0
H252 H 0.19678 0.85306 0.90215 0.0
H253 H 0.2225 0.78768 0.8912 0.0
H254 H 0.26836 0.87034 0.88702 0.0
H255 H 0.2839 0.81735 0.92833 0.0
O256 O 0.24067 0.87129 0.92575 0.0
O257 O 0.25459 0.84959 0.94902 0.0
O258 O 0.22321 0.78755 0.92908 0.0
C259 C 0.25509 0.87382 0.94248 0.0
H260 H 0.15851 0.7974 0.9846 0.0
H261 H 0.32109 0.87491 0.87799 0.0
H262 H 0.20641 0.78287 0.85616 0.0
H263 H 0.17887 0.84852 0.86741 0.0
Co264 Co 0.40108 0.21619 0.43171 0.0
C265 C 0.348 0.15892 0.44853 0.0
C266 C 0.38915 0.17642 0.46542 0.0
C267 C 0.36711 0.15289 0.47607 0.0
N268 N 0.37757 0.1803 0.44803 0.0
N269 N 0.34129 0.14195 0.46556 0.0
H270 H 0.33138 0.15665 0.43756 0.0
H271 H 0.41206 0.19079 0.47048 0.0
C272 C 0.43553 0.18406 0.43127 0.0
O273 O 0.40986 0.15987 0.42678 0.0
N274 N 0.4258 0.2529 0.41694 0.0
C275 C 0.41717 0.26751 0.404 0.0
C276 C 0.44216 0.29469 0.39897 0.0
C277 C 0.4556 0.27106 0.41956 0.0
N278 N 0.46619 0.29664 0.40873 0.0
C279 C 0.35957 0.18404 0.39946 0.0
C280 C 0.40267 0.18977 0.3718 0.0
C281 C 0.37325 0.17937 0.36498 0.0
C282 C 0.35142 0.17597 0.37917 0.0
C283 C 0.40996 0.19802 0.3921 0.0
N284 N 0.38855 0.19497 0.4058 0.0
H285 H 0.34299 0.1838 0.40961 0.0
H286 H 0.43342 0.20913 0.3963 0.0
H287 H 0.39429 0.25937 0.39903 0.0
H288 H 0.4691 0.26632 0.4299 0.0
O289 O 0.37007 0.22653 0.43421 0.0
O290 O 0.40743 0.23992 0.45613 0.0
O291 O 0.43648 0.20924 0.43376 0.0
C292 C 0.38325 0.24053 0.45082 0.0
H293 H 0.36964 0.14473 0.49069 0.0
H294 H 0.44262 0.31176 0.38908 0.0
H295 H 0.42046 0.19373 0.36123 0.0
H296 H 0.32851 0.16847 0.37445 0.0
Co297 Co 0.18034 0.40295 0.92754 0.0
C298 C 0.19046 0.35129 0.94002 0.0
C299 C 0.19417 0.38129 0.96398 0.0
C300 C 0.19855 0.35929 0.97212 0.0
N301 N 0.18882 0.37641 0.94389 0.0
N302 N 0.19617 0.34038 0.95715 0.0
H303 H 0.18768 0.34105 0.92529 0.0
H304 H 0.19513 0.39999 0.9722 0.0
C305 C 0.24592 0.43761 0.93564 0.0
O306 O 0.24647 0.41295 0.93113 0.0
N307 N 0.17203 0.43032 0.91266 0.0
C308 C 0.15473 0.42489 0.89605 0.0
C309 C 0.15361 0.4506 0.89153 0.0
C310 C 0.18113 0.45892 0.91802 0.0
N311 N 0.17033 0.47192 0.90536 0.0
C312 C 0.17894 0.36775 0.89345 0.0
C313 C 0.2212 0.41578 0.87094 0.0
C314 C 0.20323 0.38817 0.86123 0.0
C315 C 0.18275 0.36362 0.87291 0.0
C316 C 0.21687 0.41891 0.89151 0.0
N317 N 0.19558 0.3952 0.90252 0.0
H318 H 0.16076 0.3494 0.90158 0.0
H319 H 0.2286 0.44125 0.89789 0.0
H320 H 0.14342 0.40368 0.88801 0.0
H321 H 0.1945 0.46964 0.93139 0.0
O322 O 0.13895 0.37182 0.92484 0.0
O323 O 0.15683 0.40492 0.94997 0.0
O324 O 0.22109 0.43771 0.93501 0.0
C325 C 0.13383 0.38201 0.9415 0.0
H326 H 0.20379 0.35768 0.98784 0.0
H327 H 0.14139 0.45336 0.8791 0.0
H328 H 0.2371 0.43538 0.86239 0.0
H329 H 0.16798 0.34207 0.86588 0.0
Co330 Co 0.78843 0.18247 0.42281 0.0
C331 C 0.84112 0.19059 0.4473 0.0
C332 C 0.85452 0.22171 0.4225 0.0
C333 C 0.87986 0.22688 0.43288 0.0
N334 N 0.8301 0.1986 0.43125 0.0
N335 N 0.8714 0.20737 0.44845 0.0
H336 H 0.82757 0.17304 0.45803 0.0
H337 H 0.85431 0.2348 0.40981 0.0
C338 C 0.7813 0.23596 0.41378 0.0
O339 O 0.76298 0.22057 0.39888 0.0
N340 N 0.7467 0.16623 0.41493 0.0
C341 C 0.73103 0.14618 0.4002 0.0
C342 C 0.70177 0.14043 0.40056 0.0
C343 C 0.72654 0.17154 0.42445 0.0
N344 N 0.69912 0.15663 0.41571 0.0
C345 C 0.79828 0.16065 0.38517 0.0
C346 C 0.81591 0.2114 0.36187 0.0
C347 C 0.81055 0.1848 0.35232 0.0
C348 C 0.80267 0.15953 0.36439 0.0
C349 C 0.81131 0.21157 0.38278 0.0
N350 N 0.80077 0.18587 0.39413 0.0
H351 H 0.7915 0.14042 0.39373 0.0
H352 H 0.8168 0.23274 0.3895 0.0
H353 H 0.73985 0.13617 0.38989 0.0
H354 H 0.73206 0.18647 0.43735 0.0
O355 O 0.77994 0.14207 0.42744 0.0
O356 O 0.77455 0.17021 0.45063 0.0
O357 O 0.79444 0.22466 0.42408 0.0
C358 C 0.77102 0.14411 0.44545 0.0
H359 H 0.90272 0.24436 0.42968 0.0
H360 H 0.68405 0.12602 0.39015 0.0
H361 H 0.82282 0.23178 0.35323 0.0
H362 H 0.79939 0.13877 0.35779 0.0
Co363 Co 0.60763 0.78141 0.9176 0.0
C364 C 0.64594 0.83539 0.9421 0.0
C365 C 0.65994 0.84379 0.91101 0.0
C366 C 0.6785 0.86896 0.92218 0.0
N367 N 0.63947 0.82247 0.9235 0.0
N368 N 0.66979 0.86364 0.94175 0.0
H369 H 0.63352 0.82422 0.95568 0.0
H370 H 0.66118 0.8423 0.89479 0.0
C371 C 0.57698 0.81775 0.91546 0.0
O372 O 0.60094 0.83852 0.90603 0.0
N373 N 0.57638 0.74071 0.9123 0.0
C374 C 0.57842 0.72107 0.89977 0.0
C375 C 0.55235 0.69376 0.90129 0.0
C376 C 0.54923 0.72525 0.92129 0.0
N377 N 0.53409 0.69642 0.91483 0.0
C378 C 0.63488 0.79093 0.87868 0.0
C379 C 0.58625 0.78369 0.85618 0.0
C380 C 0.61146 0.7862 0.84612 0.0
C381 C 0.6361 0.79024 0.85762 0.0
C382 C 0.58586 0.78429 0.87741 0.0
N383 N 0.61028 0.78854 0.88844 0.0
H384 H 0.65381 0.79306 0.88721 0.0
H385 H 0.56519 0.77944 0.88485 0.0
H386 H 0.59773 0.72614 0.89044 0.0
H387 H 0.54119 0.7346 0.93279 0.0
O388 O 0.63623 0.76779 0.91934 0.0
O389 O 0.6101 0.76986 0.94543 0.0
O390 O 0.57596 0.79348 0.92127 0.0
C391 C 0.62965 0.76294 0.93846 0.0
H392 H 0.69647 0.88989 0.91617 0.0
H393 H 0.54725 0.67347 0.89309 0.0
H394 H 0.56644 0.77969 0.84777 0.0
H395 H 0.65602 0.7923 0.8504 0.0
C396 C 0.72744 0.24085 0.08937 0.0
C397 C 0.73454 0.22031 0.08053 0.0
C398 C 0.69781 0.23519 0.08923 0.0
C399 C 0.62261 0.18574 0.06525 0.0
H400 H 0.59444 0.21253 0.11098 0.0
C401 C 0.497 0.1463 0.08272 0.0
C402 C 0.49083 0.16989 0.0849 0.0
C403 C 0.52677 0.15242 0.08149 0.0
C404 C 0.60211 0.20502 0.09811 0.0
H405 H 0.71634 0.17756 0.06493 0.0
H406 H 0.66458 0.16692 0.0655 0.0
H407 H 0.64632 0.22311 0.11039 0.0
H408 H 0.51061 0.21816 0.08788 0.0
H409 H 0.5627 0.22879 0.08627 0.0
H410 H 0.5777 0.16659 0.05353 0.0
C411 C 0.68183 0.18799 0.07186 0.0
C412 C 0.63191 0.21127 0.09763 0.0
C413 C 0.71153 0.19399 0.07161 0.0
C414 C 0.51484 0.19964 0.08597 0.0
C415 C 0.54454 0.20569 0.0852 0.0
C416 C 0.59263 0.17896 0.06596 0.0
C417 C 0.67449 0.20851 0.08066 0.0
C418 C 0.64267 0.20186 0.08114 0.0
C419 C 0.55074 0.18215 0.08293 0.0
C420 C 0.58223 0.1887 0.08234 0.0
H421 H 0.74485 0.26145 0.0962 0.0
H422 H 0.69329 0.25189 0.09576 0.0
H423 H 0.63007 0.17861 0.05209 0.0
H424 H 0.4788 0.12323 0.08182 0.0
H425 H 0.5311 0.13393 0.07981 0.0
C426 C 0.33564 0.51394 0.60871 0.0
C427 C 0.32151 0.49613 0.59158 0.0
C428 C 0.3592 0.54351 0.60642 0.0
C429 C 0.41816 0.59491 0.57166 0.0
H430 H 0.41367 0.65706 0.60228 0.0
C431 C 0.50799 0.7215 0.56394 0.0
C432 C 0.51671 0.73792 0.58218 0.0
C433 C 0.48312 0.69226 0.56353 0.0
C434 C 0.41549 0.63998 0.59377 0.0
H435 H 0.32163 0.49477 0.5587 0.0
H436 H 0.36313 0.54641 0.55469 0.0
H437 H 0.37333 0.60501 0.60518 0.0
H438 H 0.50618 0.73645 0.61426 0.0
H439 H 0.46382 0.68582 0.61363 0.0
H440 H 0.46078 0.62972 0.56072 0.0
C441 C 0.35578 0.53757 0.56985 0.0
C442 C 0.39233 0.61018 0.59543 0.0
C443 C 0.33193 0.50815 0.57214 0.0
C444 C 0.50002 0.72461 0.59988 0.0
C445 C 0.47547 0.69551 0.5995 0.0
C446 C 0.44158 0.62475 0.57018 0.0
C447 C 0.36935 0.55565 0.58696 0.0
C448 C 0.39359 0.58732 0.58458 0.0
C449 C 0.46662 0.67891 0.58136 0.0
C450 C 0.44071 0.64759 0.58145 0.0
H451 H 0.32792 0.50527 0.62384 0.0
H452 H 0.36948 0.55692 0.61987 0.0
H453 H 0.41968 0.57764 0.56317 0.0
H454 H 0.52041 0.73116 0.55005 0.0
H455 H 0.47675 0.68019 0.54925 0.0
C456 C 0.86675 0.35887 0.06901 0.0
C457 C 0.8422 0.32958 0.07096 0.0
C458 C 0.86199 0.38334 0.06683 0.0
C459 C 0.80147 0.40112 0.05452 0.0
H460 H 0.85407 0.47651 0.08176 0.0
C461 C 0.7672 0.4886 0.07596 0.0
C462 C 0.7875 0.51879 0.07121 0.0
C463 C 0.77531 0.46663 0.07314 0.0
C464 C 0.83944 0.45568 0.07387 0.0
H465 H 0.79363 0.30296 0.07303 0.0
H466 H 0.7853 0.34529 0.06991 0.0
H467 H 0.86597 0.43601 0.08258 0.0
H468 H 0.8321 0.54975 0.05964 0.0
H469 H 0.84654 0.51124 0.05519 0.0
H470 H 0.77418 0.42043 0.04674 0.0
C471 C 0.80819 0.34957 0.06918 0.0
C472 C 0.84627 0.4325 0.07427 0.0
C473 C 0.81293 0.32523 0.07107 0.0
C474 C 0.81594 0.52659 0.06331 0.0
C475 C 0.82428 0.50467 0.06088 0.0
C476 C 0.79443 0.4241 0.05441 0.0
C477 C 0.83259 0.37895 0.06684 0.0
C478 C 0.82705 0.4047 0.06491 0.0
C479 C 0.80406 0.47454 0.06587 0.0
C480 C 0.8131 0.4514 0.06433 0.0
H481 H 0.88951 0.36273 0.06881 0.0
H482 H 0.88132 0.40561 0.06489 0.0
H483 H 0.78656 0.38037 0.04666 0.0
H484 H 0.74512 0.48198 0.08203 0.0
H485 H 0.75941 0.44356 0.07723 0.0
C486 C 0.50065 0.84851 0.60549 0.0
C487 C 0.51598 0.84713 0.5882 0.0
C488 C 0.47204 0.8454 0.60369 0.0
C489 C 0.40643 0.81497 0.5691 0.0
H490 H 0.38418 0.86454 0.60072 0.0
C491 C 0.30766 0.84916 0.57289 0.0
C492 C 0.28158 0.82069 0.57183 0.0
C493 C 0.33601 0.85185 0.57458 0.0
C494 C 0.39009 0.85063 0.59168 0.0
H495 H 0.51385 0.84289 0.55539 0.0
H496 H 0.46419 0.83758 0.55226 0.0
H497 H 0.43443 0.87118 0.60434 0.0
H498 H 0.2649 0.77265 0.57124 0.0
H499 H 0.31459 0.77736 0.57426 0.0
H500 H 0.36227 0.79482 0.55614 0.0
C501 C 0.4739 0.84031 0.56726 0.0
C502 C 0.41879 0.85422 0.59394 0.0
C503 C 0.50242 0.84342 0.56906 0.0
C504 C 0.28457 0.79492 0.57195 0.0
C505 C 0.31304 0.79763 0.57365 0.0
C506 C 0.37769 0.81133 0.56687 0.0
C507 C 0.45818 0.84088 0.58456 0.0
C508 C 0.42739 0.83658 0.58257 0.0
C509 C 0.33905 0.82615 0.57529 0.0
C510 C 0.36926 0.82929 0.57802 0.0
H511 H 0.51033 0.85103 0.62046 0.0
H512 H 0.46044 0.84572 0.61734 0.0
H513 H 0.4122 0.80072 0.56031 0.0
H514 H 0.30623 0.86951 0.57268 0.0
H515 H 0.3556 0.87416 0.57538 0.0
C516 C 0.66479 0.50161 0.06219 0.0
C517 C 0.67625 0.51542 0.08107 0.0
C518 C 0.64083 0.47186 0.06123 0.0
C519 C 0.60682 0.40166 0.08982 0.0
H520 H 0.53275 0.37926 0.06089 0.0
C521 C 0.50053 0.28775 0.10406 0.0
C522 C 0.48059 0.27295 0.08795 0.0
C523 C 0.52463 0.31699 0.10165 0.0
C524 C 0.55345 0.38494 0.06876 0.0
H525 H 0.67198 0.5087 0.11368 0.0
H526 H 0.63068 0.45695 0.11199 0.0
H527 H 0.57473 0.431 0.05891 0.0
H528 H 0.47043 0.27722 0.05659 0.0
H529 H 0.51308 0.32801 0.05216 0.0
H530 H 0.58622 0.3559 0.09947 0.0
C531 C 0.63991 0.46916 0.09795 0.0
C532 C 0.57743 0.41462 0.06765 0.0
C533 C 0.66336 0.4989 0.09891 0.0
C534 C 0.48533 0.28808 0.06933 0.0
C535 C 0.50972 0.31728 0.06683 0.0
C536 C 0.58312 0.37199 0.0907 0.0
C537 C 0.62848 0.45526 0.07914 0.0
C538 C 0.60409 0.42336 0.07852 0.0
C539 C 0.52976 0.33214 0.08297 0.0
C540 C 0.55582 0.36331 0.08057 0.0
H541 H 0.67434 0.51386 0.04824 0.0
H542 H 0.63243 0.46159 0.04653 0.0
H543 H 0.62733 0.40772 0.09811 0.0
H544 H 0.49739 0.27689 0.11867 0.0
H545 H 0.53902 0.32782 0.11462 0.0
C546 C 0.20773 0.48855 0.56722 0.0
C547 C 0.18145 0.46084 0.57072 0.0
C548 C 0.2072 0.51551 0.56851 0.0
C549 C 0.15502 0.54624 0.56976 0.0
H550 H 0.22178 0.61394 0.59664 0.0
C551 C 0.14808 0.64898 0.59803 0.0
C552 C 0.1727 0.67747 0.59355 0.0
C553 C 0.1498 0.62298 0.5947 0.0
C554 C 0.2031 0.59532 0.58894 0.0
H555 H 0.13389 0.43973 0.57792 0.0
H556 H 0.13311 0.4865 0.58054 0.0
H557 H 0.22357 0.56791 0.59092 0.0
H558 H 0.21873 0.7011 0.5827 0.0
H559 H 0.2218 0.65567 0.57695 0.0
H560 H 0.13433 0.57352 0.5682 0.0
C561 C 0.15405 0.48754 0.57645 0.0
C562 C 0.20416 0.56896 0.58557 0.0
C563 C 0.15454 0.46065 0.57506 0.0
C564 C 0.19931 0.67943 0.58611 0.0
C565 C 0.20113 0.65346 0.58297 0.0
C566 C 0.15388 0.57249 0.57327 0.0
C567 C 0.18042 0.51536 0.57341 0.0
C568 C 0.18003 0.54399 0.57605 0.0
C569 C 0.17629 0.62493 0.58702 0.0
C570 C 0.17781 0.59725 0.58301 0.0
H571 H 0.22883 0.4895 0.56379 0.0
H572 H 0.22783 0.53648 0.56576 0.0
H573 H 0.13629 0.52771 0.56204 0.0
H574 H 0.1272 0.64671 0.6036 0.0
H575 H 0.13039 0.60131 0.59817 0.0
C576 C 0.84792 0.4968 0.40344 0.0
C577 C 0.85078 0.51381 0.42086 0.0
C578 C 0.84089 0.4669 0.40515 0.0
C579 C 0.84597 0.41176 0.43494 0.0
H580 H 0.77108 0.35392 0.40921 0.0
C581 C 0.80361 0.28331 0.43466 0.0
C582 C 0.78927 0.26764 0.41683 0.0
C583 C 0.81066 0.31323 0.43732 0.0
C584 C 0.79226 0.36972 0.41626 0.0
H585 H 0.84953 0.51332 0.45372 0.0
H586 H 0.83804 0.46078 0.45675 0.0
H587 H 0.78579 0.40696 0.40963 0.0
H588 H 0.77176 0.27126 0.38762 0.0
H589 H 0.78496 0.32326 0.39185 0.0
H590 H 0.85336 0.37487 0.44066 0.0
C591 C 0.84099 0.47075 0.44182 0.0
C592 C 0.80048 0.40004 0.41663 0.0
C593 C 0.84745 0.50061 0.44009 0.0
C594 C 0.78247 0.28254 0.40166 0.0
C595 C 0.78986 0.31241 0.40418 0.0
C596 C 0.83802 0.38138 0.43425 0.0
C597 C 0.8371 0.45357 0.42432 0.0
C598 C 0.82756 0.42132 0.4257 0.0
C599 C 0.80379 0.32815 0.42211 0.0
C600 C 0.81128 0.36004 0.42455 0.0
H601 H 0.8499 0.50623 0.38843 0.0
H602 H 0.83799 0.454 0.39146 0.0
H603 H 0.86703 0.42793 0.44196 0.0
H604 H 0.80904 0.27235 0.44664 0.0
H605 H 0.82112 0.3245 0.45141 0.0
C606 C 0.33535 0.81493 0.91332 0.0
C607 C 0.33732 0.84093 0.90469 0.0
C608 C 0.36096 0.81209 0.91533 0.0
C609 C 0.44401 0.85726 0.91758 0.0
H610 H 0.44026 0.78156 0.90537 0.0
C611 C 0.55063 0.84711 0.90973 0.0
C612 C 0.54977 0.82084 0.9168 0.0
C613 C 0.52462 0.84942 0.90953 0.0
C614 C 0.44162 0.80274 0.90914 0.0
H615 H 0.36795 0.88432 0.89137 0.0
H616 H 0.41253 0.87922 0.8946 0.0
H617 H 0.39511 0.78568 0.90206 0.0
H618 H 0.52084 0.77657 0.92963 0.0
H619 H 0.47549 0.78078 0.92953 0.0
H620 H 0.49049 0.87436 0.92464 0.0
C621 C 0.39118 0.86112 0.90001 0.0
C622 C 0.41572 0.80512 0.9072 0.0
C623 C 0.36553 0.8639 0.89793 0.0
C624 C 0.52233 0.79714 0.92407 0.0
C625 C 0.49626 0.79946 0.92387 0.0
C626 C 0.46987 0.85487 0.91957 0.0
C627 C 0.38924 0.83523 0.90881 0.0
C628 C 0.41664 0.83247 0.91125 0.0
C629 C 0.49702 0.82553 0.91641 0.0
C630 C 0.46909 0.82764 0.91523 0.0
H631 H 0.31395 0.79664 0.91847 0.0
H632 H 0.35868 0.79194 0.92229 0.0
H633 H 0.4454 0.8785 0.9212 0.0
H634 H 0.57132 0.8658 0.90397 0.0
H635 H 0.52602 0.86968 0.90343 0.0
C636 C 0.73401 0.48316 0.41348 0.0
C637 C 0.74134 0.51187 0.42043 0.0
C638 C 0.70412 0.45983 0.41313 0.0
C639 C 0.62654 0.43783 0.43117 0.0
H640 H 0.60352 0.38112 0.38658 0.0
C641 C 0.50269 0.35118 0.40947 0.0
C642 C 0.49664 0.32131 0.40879 0.0
C643 C 0.53237 0.37498 0.41096 0.0
C644 C 0.60969 0.39679 0.39912 0.0
H645 H 0.72321 0.53855 0.43295 0.0
H646 H 0.67093 0.49834 0.43152 0.0
H647 H 0.65552 0.42148 0.38961 0.0
H648 H 0.51661 0.29284 0.40851 0.0
H649 H 0.56858 0.3345 0.41044 0.0
H650 H 0.58008 0.41338 0.44007 0.0
C651 C 0.68822 0.49342 0.42683 0.0
C652 C 0.63957 0.41981 0.40102 0.0
C653 C 0.71826 0.5166 0.42758 0.0
C654 C 0.52076 0.31569 0.4091 0.0
C655 C 0.55039 0.33945 0.41013 0.0
C656 C 0.59649 0.41511 0.429 0.0
C657 C 0.68067 0.46479 0.41928 0.0
C658 C 0.64856 0.4405 0.41721 0.0
C659 C 0.55645 0.36928 0.4113 0.0
C660 C 0.5879 0.39424 0.41307 0.0
H661 H 0.75142 0.47878 0.4081 0.0
H662 H 0.69946 0.43795 0.40783 0.0
H663 H 0.63251 0.45294 0.44399 0.0
H664 H 0.48443 0.35601 0.40944 0.0
H665 H 0.53655 0.39784 0.41177 0.0
C666 C 0.1688 0.70741 0.92298 0.0
C667 C 0.1962 0.73352 0.92746 0.0
C668 C 0.16712 0.67949 0.92163 0.0
C669 C 0.21433 0.64438 0.91377 0.0
H670 H 0.1415 0.57231 0.93054 0.0
C671 C 0.20148 0.5253 0.91527 0.0
C672 C 0.1746 0.50179 0.90716 0.0
C673 C 0.20517 0.55398 0.91793 0.0
C674 C 0.16189 0.59222 0.92565 0.0
H675 H 0.2433 0.75061 0.93444 0.0
H676 H 0.24021 0.70156 0.93261 0.0
H677 H 0.14632 0.62141 0.93622 0.0
H678 H 0.13063 0.48998 0.89541 0.0
H679 H 0.13697 0.54009 0.90017 0.0
H680 H 0.22995 0.6149 0.90351 0.0
C681 C 0.2201 0.70283 0.92974 0.0
C682 C 0.16468 0.62041 0.92887 0.0
C683 C 0.22184 0.73093 0.93096 0.0
C684 C 0.15164 0.50768 0.90155 0.0
C685 C 0.15517 0.53627 0.90445 0.0
C686 C 0.21165 0.61614 0.91076 0.0
C687 C 0.19273 0.67676 0.9249 0.0
C688 C 0.19076 0.64688 0.92272 0.0
C689 C 0.18191 0.55968 0.91279 0.0
C690 C 0.18524 0.58975 0.91644 0.0
H691 H 0.1486 0.70852 0.92007 0.0
H692 H 0.14578 0.66013 0.91748 0.0
H693 H 0.23456 0.66417 0.90858 0.0
H694 H 0.21967 0.52148 0.91955 0.0
H695 H 0.22596 0.57154 0.92445 0.0
C696 C 0.49128 0.20768 0.43677 0.0
C697 C 0.46337 0.18221 0.43226 0.0
C698 C 0.51753 0.20573 0.43716 0.0
C699 C 0.544 0.15036 0.44031 0.0
H700 H 0.61657 0.21411 0.41562 0.0
C701 C 0.64404 0.13552 0.41659 0.0
C702 C 0.67322 0.15946 0.42034 0.0
C703 C 0.61898 0.13882 0.42006 0.0
C704 C 0.5966 0.1963 0.42281 0.0
H705 H 0.44117 0.13472 0.42465 0.0
H706 H 0.48677 0.1315 0.42497 0.0
H707 H 0.57189 0.2192 0.41799 0.0
H708 H 0.69898 0.20567 0.4307 0.0
H709 H 0.65519 0.21139 0.43688 0.0
H710 H 0.56856 0.12718 0.44467 0.0
C711 C 0.48843 0.15286 0.42861 0.0
C712 C 0.571 0.19924 0.42421 0.0
C713 C 0.46226 0.15477 0.42828 0.0
C714 C 0.67678 0.18668 0.42789 0.0
C715 C 0.65173 0.19007 0.43122 0.0
C716 C 0.56954 0.14737 0.43882 0.0
C717 C 0.51641 0.17829 0.43302 0.0
C718 C 0.54427 0.17613 0.43276 0.0
C719 C 0.62258 0.16624 0.42721 0.0
C720 C 0.59601 0.17016 0.42986 0.0
H721 H 0.4929 0.22915 0.43994 0.0
H722 H 0.53867 0.22569 0.44082 0.0
H723 H 0.52399 0.13239 0.44735 0.0
H724 H 0.6406 0.11423 0.41091 0.0
H725 H 0.59681 0.12012 0.41666 0.0
C726 C 0.30193 0.46603 0.93903 0.0
C727 C 0.27456 0.46603 0.93892 0.0
C728 C 0.32924 0.49298 0.94043 0.0
C729 C 0.36294 0.57377 0.92974 0.0
H730 H 0.43159 0.5779 0.95747 0.0
C731 C 0.48225 0.67928 0.92672 0.0
C732 C 0.50501 0.67289 0.92142 0.0
C733 C 0.45355 0.65601 0.93209 0.0
C734 C 0.4126 0.57709 0.94968 0.0
H735 H 0.25437 0.49436 0.94087 0.0
H736 H 0.30216 0.54148 0.94355 0.0
H737 H 0.38198 0.53346 0.96153 0.0
H738 H 0.51598 0.63744 0.91839 0.0
H739 H 0.46611 0.59695 0.92771 0.0
H740 H 0.39381 0.61724 0.91761 0.0
C741 C 0.30246 0.5206 0.94228 0.0
C742 C 0.3842 0.55162 0.95195 0.0
C743 C 0.27507 0.49357 0.94087 0.0
C744 C 0.49879 0.64298 0.92215 0.0
C745 C 0.47032 0.61984 0.92772 0.0
C746 C 0.39136 0.59934 0.92755 0.0
C747 C 0.32989 0.52064 0.94181 0.0
C748 C 0.35917 0.5493 0.94158 0.0
C749 C 0.4473 0.62603 0.93256 0.0
C750 C 0.41661 0.6009 0.93707 0.0
H751 H 0.30239 0.44524 0.93755 0.0
H752 H 0.3499 0.49216 0.93971 0.0
H753 H 0.34422 0.57262 0.92137 0.0
H754 H 0.48642 0.70213 0.92618 0.0
H755 H 0.43625 0.66142 0.93582 0.0
C756 C 0.35163 0.1895 0.33384 0.0
C757 C 0.3666 0.17581 0.34286 0.0
C758 C 0.3487 0.18961 0.31273 0.0
C759 C 0.35073 0.15259 0.26539 0.0
H760 H 0.37664 0.23035 0.2406 0.0
C761 C 0.34189 0.16781 0.17891 0.0
C762 C 0.36852 0.19012 0.16964 0.0
C763 C 0.33923 0.16573 0.20008 0.0
C764 C 0.36928 0.20849 0.24731 0.0
H765 H 0.38916 0.15047 0.3369 0.0
H766 H 0.38362 0.15023 0.29996 0.0
H767 H 0.37556 0.22587 0.2776 0.0
H768 H 0.41304 0.22804 0.17572 0.0
H769 H 0.40789 0.22492 0.21253 0.0
H770 H 0.34468 0.13527 0.23506 0.0
C771 C 0.37426 0.16097 0.30925 0.0
C772 C 0.36844 0.20587 0.26848 0.0
C773 C 0.37755 0.16121 0.33036 0.0
C774 C 0.39198 0.21088 0.18218 0.0
C775 C 0.38913 0.20903 0.20333 0.0
C776 C 0.35115 0.15512 0.24421 0.0
C777 C 0.36036 0.17571 0.30019 0.0
C778 C 0.35947 0.17796 0.27774 0.0
C779 C 0.36292 0.18617 0.2125 0.0
C780 C 0.36076 0.18317 0.23496 0.0
H781 H 0.34328 0.20126 0.34304 0.0
H782 H 0.33769 0.20095 0.30617 0.0
H783 H 0.34359 0.13078 0.27212 0.0
H784 H 0.32305 0.1518 0.16984 0.0
H785 H 0.3186 0.14813 0.20674 0.0
C786 C 0.21264 0.39967 0.67503 0.0
C787 C 0.18616 0.37912 0.66493 0.0
C788 C 0.21478 0.39877 0.69608 0.0
C789 C 0.17858 0.35165 0.74185 0.0
H790 H 0.22366 0.42879 0.76883 0.0
C791 C 0.20275 0.36218 0.82865 0.0
C792 C 0.20267 0.38625 0.83875 0.0
C793 C 0.20096 0.36024 0.80741 0.0
C794 C 0.21068 0.40701 0.76165 0.0
H795 H 0.14137 0.34099 0.66872 0.0
H796 H 0.14448 0.34004 0.70587 0.0
H797 H 0.21863 0.42702 0.73229 0.0
H798 H 0.19936 0.42639 0.83466 0.0
H799 H 0.19549 0.42271 0.79795 0.0
H800 H 0.16945 0.33185 0.77151 0.0
C801 C 0.16389 0.35654 0.69747 0.0
C802 C 0.20821 0.40595 0.74054 0.0
C803 C 0.16196 0.35715 0.67624 0.0
C804 C 0.20031 0.40802 0.82726 0.0
C805 C 0.19812 0.40589 0.80616 0.0
C806 C 0.18074 0.35275 0.76309 0.0
C807 C 0.19027 0.3776 0.70768 0.0
C808 C 0.19228 0.37829 0.7303 0.0
C809 C 0.19862 0.38212 0.79588 0.0
C810 C 0.19678 0.38049 0.77327 0.0
H811 H 0.23188 0.41639 0.66657 0.0
H812 H 0.23578 0.41475 0.70323 0.0
H813 H 0.16639 0.32991 0.73452 0.0
H814 H 0.20444 0.34504 0.83717 0.0
H815 H 0.20174 0.34179 0.80004 0.0
C816 C 0.78983 0.15736 0.31957 0.0
C817 C 0.81189 0.1829 0.32989 0.0
C818 C 0.79012 0.15576 0.29843 0.0
C819 C 0.83886 0.18877 0.25356 0.0
H820 H 0.76313 0.1591 0.22495 0.0
C821 C 0.83286 0.20715 0.16802 0.0
C822 C 0.81043 0.18355 0.15646 0.0
C823 C 0.83325 0.20508 0.18911 0.0
C824 C 0.78439 0.16701 0.23271 0.0
H825 H 0.85189 0.22659 0.32609 0.0
H826 H 0.85212 0.22404 0.28907 0.0
H827 H 0.76373 0.15955 0.26196 0.0
H828 H 0.77094 0.13907 0.15804 0.0
H829 H 0.77156 0.13547 0.19505 0.0
H830 H 0.85956 0.19657 0.2243 0.0
C831 C 0.83476 0.20511 0.29739 0.0
C832 C 0.78475 0.1673 0.25392 0.0
C833 C 0.83445 0.20672 0.31858 0.0
C834 C 0.78834 0.15776 0.16652 0.0
C835 C 0.78871 0.15569 0.1877 0.0
C836 C 0.8385 0.18848 0.23236 0.0
C837 C 0.81245 0.17969 0.28709 0.0
C838 C 0.81202 0.17842 0.26458 0.0
C839 C 0.81118 0.17938 0.1992 0.0
C840 C 0.8113 0.17787 0.2217 0.0
H841 H 0.7719 0.13877 0.32781 0.0
H842 H 0.77282 0.13575 0.29096 0.0
H843 H 0.86016 0.197 0.26134 0.0
H844 H 0.84982 0.22763 0.1608 0.0
H845 H 0.85048 0.22397 0.19755 0.0
C846 C 0.60341 0.79946 0.81096 0.0
C847 C 0.61178 0.78308 0.82382 0.0
C848 C 0.60554 0.79769 0.7899 0.0
C849 C 0.60891 0.75088 0.74898 0.0
H850 H 0.6483 0.82581 0.71885 0.0
C851 C 0.6036 0.76118 0.66179 0.0
C852 C 0.62953 0.78344 0.65193 0.0
C853 C 0.60325 0.75789 0.68285 0.0
C854 C 0.63756 0.80472 0.72709 0.0
H855 H 0.62761 0.75105 0.82489 0.0
H856 H 0.63123 0.74792 0.78811 0.0
H857 H 0.64239 0.82684 0.75554 0.0
H858 H 0.67631 0.81765 0.65619 0.0
H859 H 0.67555 0.81208 0.69303 0.0
H860 H 0.60384 0.72877 0.72041 0.0
C861 C 0.6232 0.7622 0.79427 0.0
C862 C 0.63382 0.80531 0.74803 0.0
C863 C 0.62137 0.7642 0.81528 0.0
C864 C 0.65579 0.80074 0.66339 0.0
C865 C 0.65537 0.79757 0.68446 0.0
C866 C 0.61239 0.75027 0.72796 0.0
C867 C 0.6157 0.77923 0.78139 0.0
C868 C 0.61937 0.77841 0.75916 0.0
C869 C 0.62879 0.77687 0.69443 0.0
C870 C 0.62672 0.7772 0.71683 0.0
H871 H 0.59598 0.81418 0.81719 0.0
H872 H 0.59933 0.81083 0.78026 0.0
H873 H 0.5976 0.72981 0.75722 0.0
H874 H 0.5829 0.74768 0.65345 0.0
H875 H 0.58241 0.74184 0.69016 0.0
C876 C 0.80869 0.59494 0.17392 0.0
C877 C 0.82231 0.62157 0.16242 0.0
C878 C 0.80942 0.59605 0.19508 0.0
C879 C 0.8173 0.64541 0.23785 0.0
H880 H 0.82853 0.5876 0.26893 0.0
C881 C 0.82612 0.64759 0.32577 0.0
C882 C 0.81123 0.6196 0.3357 0.0
C883 C 0.82799 0.64908 0.30458 0.0
C884 C 0.82506 0.6037 0.26046 0.0
H885 H 0.84815 0.67028 0.16416 0.0
H886 H 0.84939 0.6722 0.20125 0.0
H887 H 0.83248 0.58827 0.23205 0.0
H888 H 0.7862 0.57126 0.33113 0.0
H889 H 0.7889 0.5739 0.29425 0.0
H890 H 0.8097 0.66069 0.26632 0.0
C891 C 0.83782 0.65048 0.19381 0.0
C892 C 0.82738 0.60412 0.23934 0.0
C893 C 0.83713 0.64937 0.17259 0.0
C894 C 0.79756 0.59319 0.32397 0.0
C895 C 0.79947 0.59468 0.30283 0.0
C896 C 0.81499 0.645 0.25901 0.0
C897 C 0.82376 0.62382 0.20528 0.0
C898 C 0.8232 0.62475 0.22778 0.0
C899 C 0.8151 0.6226 0.29292 0.0
C900 C 0.8185 0.62389 0.27051 0.0
H901 H 0.79657 0.57317 0.16659 0.0
H902 H 0.79795 0.57512 0.20347 0.0
H903 H 0.81362 0.66134 0.22934 0.0
H904 H 0.83663 0.66834 0.33438 0.0
H905 H 0.84025 0.67092 0.29737 0.0
C906 C 0.1749 0.79 0.82446 0.0
C907 C 0.18546 0.81598 0.83651 0.0
C908 C 0.17289 0.79155 0.80336 0.0
C909 C 0.20389 0.84659 0.76099 0.0
H910 H 0.14428 0.77912 0.7296 0.0
C911 C 0.1956 0.84707 0.67273 0.0
C912 C 0.19492 0.82212 0.6634 0.0
C913 C 0.19225 0.84762 0.69383 0.0
C914 C 0.16104 0.79814 0.7382 0.0
H915 H 0.20139 0.86395 0.83556 0.0
H916 H 0.19641 0.8663 0.79907 0.0
H917 H 0.14118 0.77755 0.76657 0.0
H918 H 0.18922 0.77786 0.66863 0.0
H919 H 0.18311 0.77872 0.70529 0.0
H920 H 0.22356 0.86713 0.73244 0.0
C921 C 0.19043 0.84481 0.80585 0.0
C922 C 0.1594 0.79721 0.75939 0.0
C923 C 0.19279 0.84332 0.82692 0.0
C924 C 0.19029 0.79758 0.67546 0.0
C925 C 0.18647 0.79792 0.6964 0.0
C926 C 0.20528 0.84766 0.73977 0.0
C927 C 0.18105 0.81908 0.79372 0.0
C928 C 0.18115 0.82116 0.77111 0.0
C929 C 0.18749 0.82294 0.70583 0.0
C930 C 0.18422 0.8232 0.72819 0.0
H931 H 0.16864 0.76845 0.83128 0.0
H932 H 0.16584 0.77127 0.79459 0.0
H933 H 0.22135 0.86528 0.76942 0.0
H934 H 0.19903 0.8662 0.66373 0.0
H935 H 0.19304 0.86715 0.70074 0.0
C936 C 0.28634 0.90625 0.97157 0.0
C937 C 0.27087 0.90299 0.9533 0.0
C938 C 0.30053 0.93397 0.98174 0.0
C939 C 0.32783 0.0157 0.97436 0.0
H940 H 0.31874 0.01561 0.03277 0.0
C941 C 0.38191 0.12505 0.02329 0.0
C942 C 0.36455 0.12575 0.03955 0.0
C943 C 0.37217 0.09859 0.012 0.0
C944 C 0.32134 0.01607 0.01643 0.0
H945 H 0.25841 0.92633 0.93128 0.0
H946 H 0.28257 0.97415 0.94905 0.0
H947 H 0.2993 0.96806 0.01478 0.0
H948 H 0.32275 0.09983 0.05609 0.0
H949 H 0.30554 0.05423 0.03624 0.0
H950 H 0.34897 0.06374 0.97598 0.0
C951 C 0.28429 0.95562 0.95543 0.0
C952 C 0.31056 0.98876 0.00614 0.0
C953 C 0.27018 0.92804 0.94532 0.0
C954 C 0.33678 0.09996 0.04375 0.0
C955 C 0.32703 0.07368 0.03248 0.0
C956 C 0.33859 0.04305 0.98466 0.0
C957 C 0.29956 0.95898 0.97382 0.0
C958 C 0.31327 0.98818 0.98494 0.0
C959 C 0.34487 0.07238 0.01677 0.0
C960 C 0.33505 0.04354 0.00579 0.0
H961 H 0.28735 0.88738 0.97807 0.0
H962 H 0.31235 0.93583 0.99578 0.0
H963 H 0.33069 0.01613 0.95805 0.0
H964 H 0.40352 0.14453 0.01979 0.0
H965 H 0.38651 0.09835 3e-05 0.0
C966 C 0.2561 0.34115 0.55365 0.0
C967 C 0.25648 0.36708 0.5464 0.0
C968 C 0.27249 0.32988 0.54379 0.0
C969 C 0.32104 0.31907 0.52657 0.0
H970 H 0.32088 0.31774 0.46772 0.0
C971 C 0.38638 0.27419 0.47961 0.0
C972 C 0.37108 0.2565 0.46267 0.0
C973 C 0.37469 0.28975 0.49023 0.0
C974 C 0.32106 0.31782 0.48417 0.0
H975 H 0.27462 0.40178 0.52329 0.0
H976 H 0.30359 0.38234 0.50618 0.0
H977 H 0.29581 0.34059 0.4855 0.0
H978 H 0.33131 0.24076 0.44379 0.0
H979 H 0.31085 0.26725 0.46237 0.0
H980 H 0.34531 0.29518 0.52516 0.0
C981 C 0.29024 0.37042 0.51931 0.0
C982 C 0.307 0.33129 0.49437 0.0
C983 C 0.27372 0.38162 0.52914 0.0
C984 C 0.34381 0.25439 0.4567 0.0
C985 C 0.33215 0.26979 0.46727 0.0
C986 C 0.33505 0.3055 0.51634 0.0
C987 C 0.28977 0.34436 0.5265 0.0
C988 C 0.30645 0.33173 0.5157 0.0
C989 C 0.34752 0.28786 0.48405 0.0
C990 C 0.33481 0.30431 0.49502 0.0
H991 H 0.24297 0.32939 0.5669 0.0
H992 H 0.27116 0.30948 0.54954 0.0
H993 H 0.32144 0.31943 0.54301 0.0
H994 H 0.40748 0.27627 0.48453 0.0
H995 H 0.38716 0.30362 0.50304 0.0
C996 C 0.87594 0.25781 0.01052 0.0
C997 C 0.87269 0.23686 0.02546 0.0
C998 C 0.90293 0.27351 -0.00035 0.0
C999 C 0.98315 0.29814 0.00601 0.0
H1000 H 0.98988 0.31761 0.9487 0.0
C1001 C 0.0978 0.3777 0.96881 0.0
C1002 C 0.10325 0.36785 0.95024 0.0
C1003 C 0.06886 0.36337 0.97719 0.0
C1004 C 0.98833 0.31229 0.96472 0.0
H1005 H 0.89403 0.21419 0.03967 0.0
H1006 H 0.94061 0.24098 0.0205 0.0
H1007 H 0.94008 0.28721 0.96395 0.0
H1008 H 0.08263 0.3357 0.92568 0.0
H1009 H 0.03243 0.31061 0.94038 0.0
H1010 H 0.03123 0.32253 0.0068 0.0
C1011 C 0.9228 0.24597 0.01753 0.0
C1012 C 0.95983 0.29508 0.97347 0.0
C1013 C 0.896 0.23044 0.02838 0.0
C1014 C 0.07917 0.34382 0.94004 0.0
C1015 C 0.0503 0.32957 0.94838 0.0
C1016 C 0.01156 0.31536 0.99732 0.0
C1017 C 0.92698 0.26842 0.00356 0.0
C1018 C 0.95698 0.28748 0.99416 0.0
C1019 C 0.04485 0.33898 0.96713 0.0
C1020 C 0.01451 0.3224 0.97654 0.0
H1021 H 0.85837 0.26332 0.00806 0.0
H1022 H 0.9055 0.29069 0.98897 0.0
H1023 H 0.9817 0.29313 0.02209 0.0
H1024 H 0.1159 0.39625 0.97696 0.0
H1025 H 0.0653 0.37135 0.99157 0.0
C1026 C 0.62898 0.89415 0.5198 0.0
C1027 C 0.63619 0.89119 0.53988 0.0
C1028 C 0.64235 0.92258 0.51062 0.0
C1029 C 0.70729 0.00062 0.51705 0.0
H1030 H 0.66487 0.01941 0.47615 0.0
C1031 C 0.75274 0.11868 0.47933 0.0
C1032 C 0.75511 0.11702 0.45819 0.0
C1033 C 0.73703 0.09223 0.49079 0.0
C1034 C 0.67682 0.01444 0.48769 0.0
H1035 H 0.66183 0.91551 0.56644 0.0
H1036 H 0.68386 0.96477 0.55093 0.0
H1037 H 0.63926 0.97062 0.49314 0.0
H1038 H 0.74235 0.08674 0.43238 0.0
H1039 H 0.71451 0.04102 0.45227 0.0
H1040 H 0.74466 0.04483 0.51165 0.0
C1041 C 0.66909 0.94537 0.54181 0.0
C1042 C 0.66233 0.98639 0.49725 0.0
C1043 C 0.65629 0.91705 0.55077 0.0
C1044 C 0.74117 0.08871 0.44869 0.0
C1045 C 0.72501 0.06253 0.46001 0.0
C1046 C 0.72153 0.02886 0.50775 0.0
C1047 C 0.66266 0.94859 0.52153 0.0
C1048 C 0.67753 0.9789 0.51186 0.0
C1049 C 0.72286 0.06401 0.48112 0.0
C1050 C 0.70656 0.03579 0.49279 0.0
H1051 H 0.61352 0.87452 0.51111 0.0
H1052 H 0.63713 0.92404 0.49488 0.0
H1053 H 0.72003 0.99561 0.52789 0.0
H1054 H 0.76324 0.14026 0.48696 0.0
H1055 H 0.73565 0.09377 0.50713 0.0
C1056 C 0.75347 0.63728 0.01721 0.0
C1057 C 0.76228 0.64523 0.03748 0.0
C1058 C 0.73913 0.65029 0.00664 0.0
C1059 C 0.72382 0.71417 0.00904 0.0
H1060 H 0.66003 0.66494 0.97123 0.0
C1061 C 0.64422 0.75115 0.97224 0.0
C1062 C 0.64301 0.74881 0.95098 0.0
C1063 C 0.65795 0.73817 0.98357 0.0
C1064 C 0.67781 0.6789 0.98177 0.0
H1065 H 0.76298 0.67295 0.0626 0.0
H1066 H 0.73735 0.69471 0.04455 0.0
H1067 H 0.68661 0.64342 0.98894 0.0
H1068 H 0.65437 0.7305 0.92493 0.0
H1069 H 0.67763 0.70753 0.94467 0.0
H1070 H 0.7144 0.74944 0.00203 0.0
C1071 C 0.74214 0.6792 0.03649 0.0
C1072 C 0.69325 0.6667 0.99178 0.0
C1073 C 0.75675 0.66655 0.04691 0.0
C1074 C 0.65513 0.73284 0.94131 0.0
C1075 C 0.66827 0.71949 0.95259 0.0
C1076 C 0.70806 0.72621 0.99924 0.0
C1077 C 0.733 0.6712 0.01624 0.0
C1078 C 0.71663 0.68423 0.00545 0.0
C1079 C 0.67001 0.72216 0.97379 0.0
C1080 C 0.6851 0.70876 0.98539 0.0
H1081 H 0.75751 0.62094 0.00957 0.0
H1082 H 0.73289 0.64395 0.99095 0.0
H1083 H 0.742 0.72856 0.01918 0.0
H1084 H 0.63507 0.76338 0.98003 0.0
H1085 H 0.659 0.74044 -5e-05 0.0
C1086 C 0.88642 0.63214 0.48372 0.0
C1087 C 0.88659 0.64016 0.46332 0.0
C1088 C 0.91332 0.64488 0.49487 0.0
C1089 C 0.9936 0.70762 0.4927 0.0
H1090 H 0.00625 0.65905 0.53224 0.0
C1091 C 0.11058 0.73909 0.5253 0.0
C1092 C 0.11211 0.74267 0.54647 0.0
C1093 C 0.08264 0.72536 0.51546 0.0
C1094 C 0.00291 0.67276 0.52119 0.0
H1095 H 0.91501 0.66755 0.43857 0.0
H1096 H 0.96143 0.68849 0.45744 0.0
H1097 H 0.95771 0.63828 0.51496 0.0
H1098 H 0.08592 0.73362 0.57407 0.0
H1099 H 0.03712 0.7087 0.55689 0.0
H1100 H 0.0393 0.74158 0.49848 0.0
C1101 C 0.94075 0.67341 0.4653 0.0
C1102 C 0.97504 0.66105 0.51145 0.0
C1103 C 0.91398 0.66118 0.45436 0.0
C1104 C 0.08532 0.73126 0.5577 0.0
C1105 C 0.05745 0.71691 0.54793 0.0
C1106 C 0.02159 0.71899 0.5021 0.0
C1107 C 0.94093 0.6655 0.48571 0.0
C1108 C 0.97002 0.67829 0.49698 0.0
C1109 C 0.0559 0.71434 0.52672 0.0
C1110 C 0.02649 0.70166 0.51638 0.0
H1111 H 0.86561 0.61596 0.491 0.0
H1112 H 0.91243 0.63853 0.51064 0.0
H1113 H 0.9905 0.72198 0.48212 0.0
H1114 H 0.13095 0.74782 0.51633 0.0
H1115 H 0.08189 0.72354 0.49905 0.0
C1116 C 0.74465 0.06973 0.05894 0.0
C1117 C 0.77062 0.09437 0.05102 0.0
C1118 C 0.73665 0.0405 0.05322 0.0
C1119 C 0.76028 0.9942 0.02289 0.0
H1120 H 0.67652 0.95354 0.00634 0.0
C1121 C 0.71279 0.90809 0.95754 0.0
C1122 C 0.6828 0.8844 0.95849 0.0
C1123 C 0.72477 0.92969 0.97291 0.0
C1124 C 0.69977 0.9641 0.01122 0.0
H1125 H 0.80971 0.10822 0.03211 0.0
H1126 H 0.79559 0.05708 0.02156 0.0
H1127 H 0.69621 0.99842 0.02701 0.0
H1128 H 0.64236 0.86423 0.97693 0.0
H1129 H 0.66343 0.9016 0.00393 0.0
H1130 H 0.76386 0.96023 0.00623 0.0
C1131 C 0.78163 0.06007 0.03257 0.0
C1132 C 0.71113 0.98994 0.02316 0.0
C1133 C 0.78983 0.08936 0.03859 0.0
C1134 C 0.66552 0.88209 0.97567 0.0
C1135 C 0.67754 0.90369 0.99109 0.0
C1136 C 0.74885 0.96824 0.01088 0.0
C1137 C 0.75415 0.03544 0.03905 0.0
C1138 C 0.74166 0.00569 0.02883 0.0
C1139 C 0.7071 0.92812 0.98967 0.0
C1140 C 0.71859 0.95327 0.00455 0.0
H1141 H 0.72955 0.07334 0.06849 0.0
H1142 H 0.71574 0.02202 0.0589 0.0
H1143 H 0.78381 0.00559 0.02716 0.0
H1144 H 0.72695 0.91026 0.94474 0.0
H1145 H 0.74753 0.9483 0.97121 0.0
C1146 C 0.77846 0.69619 0.45207 0.0
C1147 C 0.79067 0.67975 0.4608 0.0
C1148 C 0.77549 0.71746 0.46344 0.0
C1149 C 0.75952 0.7294 0.51464 0.0
H1150 H 0.76827 0.80294 0.4917 0.0
C1151 C 0.6954 0.78549 0.54798 0.0
C1152 C 0.67878 0.79023 0.53296 0.0
C1153 C 0.71864 0.77999 0.54247 0.0
C1154 C 0.76585 0.78259 0.49843 0.0
H1155 H 0.81037 0.67315 0.48795 0.0
H1156 H 0.80447 0.71016 0.50829 0.0
H1157 H 0.7929 0.77827 0.47537 0.0
H1158 H 0.67468 0.79521 0.50069 0.0
H1159 H 0.71484 0.78572 0.49104 0.0
H1160 H 0.73072 0.7325 0.53686 0.0
C1161 C 0.79759 0.70679 0.49251 0.0
C1162 C 0.78002 0.76853 0.4891 0.0
C1163 C 0.80113 0.68583 0.48091 0.0
C1164 C 0.68698 0.7913 0.51253 0.0
C1165 C 0.71025 0.78619 0.50705 0.0
C1166 C 0.74516 0.74339 0.52392 0.0
C1167 C 0.78421 0.72239 0.48396 0.0
C1168 C 0.77589 0.74109 0.49658 0.0
C1169 C 0.72588 0.77967 0.52187 0.0
C1170 C 0.74702 0.76936 0.51534 0.0
H1171 H 0.77026 0.69176 0.43658 0.0
H1172 H 0.76474 0.72879 0.45648 0.0
H1173 H 0.75579 0.70818 0.52069 0.0
H1174 H 0.68938 0.78449 0.56384 0.0
H1175 H 0.73037 0.77518 0.55425 0.0
C1176 C 0.8917 0.68199 0.01028 0.0
C1177 C 0.8964 0.68395 0.03136 0.0
C1178 C 0.91512 0.70098 0.99714 0.0
C1179 C 0.98924 0.77083 0.99495 0.0
H1180 H 0.01237 0.72728 0.95785 0.0
C1181 C 0.11156 0.81076 0.97577 0.0
C1182 C 0.11972 0.80332 0.95724 0.0
C1183 C 0.08156 0.80138 0.9801 0.0
C1184 C 0.00597 0.74006 0.96767 0.0
H1185 H 0.92812 0.70791 0.05538 0.0
H1186 H 0.96865 0.74175 0.03265 0.0
H1187 H 0.96322 0.70128 0.97431 0.0
H1188 H 0.10308 0.78168 0.92818 0.0
H1189 H 0.05012 0.76523 0.93564 0.0
H1190 H 0.03223 0.80937 0.98889 0.0
C1191 C 0.94715 0.72559 0.02615 0.0
C1192 C 0.97776 0.72509 0.97714 0.0
C1193 C 0.92407 0.70624 0.03916 0.0
C1194 C 0.09736 0.78779 0.94255 0.0
C1195 C 0.06707 0.77816 0.94692 0.0
C1196 C 0.01726 0.78587 0.98534 0.0
C1197 C 0.94326 0.72262 0.00498 0.0
C1198 C 0.96967 0.74002 0.99153 0.0
C1199 C 0.05874 0.78422 0.96599 0.0
C1200 C 0.02658 0.77033 0.9723 0.0
H1201 H 0.87059 0.66465 0.00399 0.0
H1202 H 0.91154 0.69821 0.98089 0.0
H1203 H 0.9834 0.78299 0.00577 0.0
H1204 H 0.12841 0.82294 0.98729 0.0
H1205 H 0.07618 0.8062 0.99503 0.0
C1206 C 0.19386 0.89305 0.51638 0.0
C1207 C 0.19744 0.88715 0.53672 0.0
C1208 C 0.19911 0.92135 0.51048 0.0
C1209 C 0.24532 0.99977 0.52698 0.0
H1210 H 0.21375 0.01523 0.47772 0.0
C1211 C 0.3044 0.11699 0.49271 0.0
C1212 C 0.31293 0.11761 0.47238 0.0
C1213 C 0.28182 0.09046 0.50136 0.0
C1214 C 0.22269 0.01127 0.49154 0.0
H1215 H 0.20648 0.90535 0.56717 0.0
H1216 H 0.21495 0.95494 0.55702 0.0
H1217 H 0.18794 0.96505 0.49292 0.0
H1218 H 0.30308 0.09193 0.44465 0.0
H1219 H 0.26341 0.04502 0.45978 0.0
H1220 H 0.28039 0.04564 0.52538 0.0
C1221 C 0.20888 0.93782 0.54549 0.0
C1222 C 0.20797 0.98252 0.50026 0.0
C1223 C 0.2037 0.90935 0.55139 0.0
C1224 C 0.29663 0.09194 0.4603 0.0
C1225 C 0.27402 0.06517 0.46901 0.0
C1226 C 0.25978 0.02849 0.5184 0.0
C1227 C 0.2079 0.94455 0.52481 0.0
C1228 C 0.21967 0.97614 0.51775 0.0
C1229 C 0.26743 0.06385 0.4899 0.0
C1230 C 0.24915 0.0344 0.50029 0.0
H1231 H 0.18846 0.87613 0.5048 0.0
H1232 H 0.19824 0.92547 0.49444 0.0
H1233 H 0.25543 0.9958 0.54018 0.0
H1234 H 0.31661 0.13667 0.50223 0.0
H1235 H 0.27684 0.09035 0.51736 0.0
C1236 C 0.19079 0.29818 0.97783 0.0
C1237 C 0.20033 0.31483 0.95975 0.0
C1238 C 0.19943 0.27713 0.98255 0.0
C1239 C 0.26173 0.26316 0.97247 0.0
H1240 H 0.21696 0.19822 0.01064 0.0
C1241 C 0.31743 0.20729 0.01791 0.0
C1242 C 0.31571 0.21179 0.03878 0.0
C1243 C 0.29859 0.21099 0.00422 0.0
C1244 C 0.2296 0.21602 -0.00022 0.0
H1245 H 0.22461 0.32097 0.93168 0.0
H1246 H 0.23953 0.28351 0.93972 0.0
H1247 H 0.19136 0.22025 0.99224 0.0
H1248 H 0.29248 0.22207 0.06194 0.0
H1249 H 0.25865 0.22734 0.03822 0.0
H1250 H 0.30012 0.25922 0.98047 0.0
C1251 C 0.22571 0.28719 0.95045 0.0
C1252 C 0.21503 0.22881 0.98932 0.0
C1253 C 0.21694 0.30839 0.94572 0.0
C1254 C 0.29379 0.21818 0.0459 0.0
C1255 C 0.27452 0.22115 0.03234 0.0
C1256 C 0.27618 0.25 0.9827 0.0
C1257 C 0.21782 0.27196 0.96925 0.0
C1258 C 0.23124 0.25357 0.97629 0.0
C1259 C 0.27734 0.21852 0.01131 0.0
C1260 C 0.26054 0.22722 0.99711 0.0
H1261 H 0.17766 0.30246 0.98881 0.0
H1262 H 0.19313 0.2663 0.99726 0.0
H1263 H 0.27508 0.28226 0.96271 0.0
H1264 H 0.33458 0.20283 0.01216 0.0
H1265 H 0.30126 0.20896 0.98808 0.0
C1266 C 0.08213 0.30297 0.55995 0.0
C1267 C 0.10489 0.30907 0.54577 0.0
C1268 C 0.05215 0.28138 0.5556 0.0
C1269 C 0.00384 0.22146 0.51803 0.0
H1270 H 0.9516 0.25546 0.52322 0.0
C1271 C 0.91904 0.21019 0.45789 0.0
C1272 C 0.89108 0.20652 0.46364 0.0
C1273 C 0.94001 0.21325 0.47255 0.0
C1274 C 0.96556 0.2452 0.52205 0.0
H1275 H 0.11496 0.29595 0.51695 0.0
H1276 H 0.06324 0.25862 0.50928 0.0
H1277 H 0.99893 0.27783 0.54188 0.0
H1278 H 0.86258 0.2022 0.48912 0.0
H1279 H 0.89985 0.20845 0.51503 0.0
H1280 H 0.97142 0.19033 0.49692 0.0
C1281 C 0.068 0.27008 0.52377 0.0
C1282 C 0.99271 0.25798 0.5328 0.0
C1283 C 0.09769 0.29167 0.52805 0.0
C1284 C 0.88396 0.20481 0.48437 0.0
C1285 C 0.90526 0.20851 0.49913 0.0
C1286 C 0.97687 0.20891 0.50714 0.0
C1287 C 0.04464 0.2654 0.53711 0.0
C1288 C 0.01284 0.24714 0.53017 0.0
C1289 C 0.93368 0.21323 0.49331 0.0
C1290 C 0.9581 0.22148 0.50838 0.0
H1291 H 0.08722 0.31627 0.57367 0.0
H1292 H 0.03473 0.27812 0.56629 0.0
H1293 H 0.01847 0.21209 0.51602 0.0
H1294 H 0.92492 0.21146 0.44199 0.0
H1295 H 0.96184 0.21723 0.46759 0.0
loop_
_geom_bond_atom_site_label_1
_geom_bond_atom_site_label_2
_geom_bond_distance
_geom_bond_site_symmetry_2
_ccdc_geom_bond_type
Co0 N4 2.148 . S
Co0 N10 2.128 . S
Co0 N20 2.194 . S
Co0 O25 2.351 . S
Co0 O26 2.155 . S
Co0 O27 2.096 . S
C1 N4 1.301 . S
C1 N5 1.328 . S
C1 H6 0.930 . S
C2 C3 1.333 . S
C2 N4 1.317 . S
C2 H7 0.930 . S
C3 C2 1.333 . S
C3 N5 1.350 . S
C3 H29 0.931 . S
N4 Co0 2.148 . S
N4 C1 1.301 . S
N4 C2 1.317 . S
N5 C1 1.328 . S
N5 C3 1.350 . S
H6 C1 0.930 . S
H7 C2 0.930 . S
C8 O9 1.224 . S
C8 O27 1.247 . S
O9 C8 1.224 . S
N10 Co0 2.128 . S
N10 C11 1.355 . S
N10 C13 1.311 . S
C11 N10 1.355 . S
C11 C12 1.363 . S
C11 H23 0.929 . S
C12 C11 1.363 . S
C12 N14 1.375 . S
C12 H30 0.931 . S
C13 N10 1.311 . S
C13 N14 1.347 . S
C13 H24 0.929 . S
N14 C12 1.375 . S
N14 C13 1.347 . S
C15 C18 1.365 . S
C15 N20 1.328 . S
C15 H21 0.929 . S
C16 C17 1.362 . S
C16 C19 1.378 . S
C16 H31 0.929 . S
C17 C16 1.362 . S
C17 C18 1.366 . S
C18 C15 1.365 . S
C18 C17 1.366 . S
C18 H32 0.930 . S
C19 C16 1.378 . S
C19 N20 1.315 . S
C19 H22 0.930 . S
N20 Co0 2.194 . S
N20 C15 1.328 . S
N20 C19 1.315 . S
H21 C15 0.929 . S
H22 C19 0.930 . S
H23 C11 0.929 . S
H24 C13 0.929 . S
O25 Co0 2.351 . S
O25 C28 1.244 . S
O26 Co0 2.155 . S
O26 C28 1.240 . S
O27 Co0 2.096 . S
O27 C8 1.247 . S
C28 O25 1.244 . S
C28 O26 1.240 . S
H29 C3 0.931 . S
H30 C12 0.931 . S
H31 C16 0.929 . S
H32 C18 0.930 . S
Co33 N37 2.148 . S
Co33 N43 2.128 . S
Co33 N53 2.194 . S
Co33 O58 2.351 . S
Co33 O59 2.155 . S
Co33 O60 2.096 . S
C34 N37 1.301 . S
C34 N38 1.328 . S
C34 H39 0.930 . S
C35 C36 1.333 . S
C35 N37 1.317 . S
C35 H40 0.930 . S
C36 C35 1.333 . S
C36 N38 1.350 . S
C36 H62 0.931 . S
N37 Co33 2.148 . S
N37 C34 1.301 . S
N37 C35 1.317 . S
N38 C34 1.328 . S
N38 C36 1.350 . S
H39 C34 0.930 . S
H40 C35 0.930 . S
C41 O42 1.224 . S
C41 O60 1.247 . S
O42 C41 1.224 . S
N43 Co33 2.128 . S
N43 C44 1.355 . S
N43 C46 1.311 . S
C44 N43 1.355 . S
C44 C45 1.363 . S
C44 H56 0.929 . S
C45 C44 1.363 . S
C45 N47 1.375 . S
C45 H63 0.931 . S
C46 N43 1.311 . S
C46 N47 1.347 . S
C46 H57 0.929 . S
N47 C45 1.375 . S
N47 C46 1.347 . S
C48 C51 1.365 . S
C48 N53 1.328 . S
C48 H54 0.929 . S
C49 C50 1.362 . S
C49 C52 1.378 . S
C49 H64 0.929 . S
C50 C49 1.362 . S
C50 C51 1.366 . S
C51 C48 1.365 . S
C51 C50 1.366 . S
C51 H65 0.930 . S
C52 C49 1.378 . S
C52 N53 1.315 . S
C52 H55 0.930 . S
N53 Co33 2.194 . S
N53 C48 1.328 . S
N53 C52 1.315 . S
H54 C48 0.929 . S
H55 C52 0.930 . S
H56 C44 0.929 . S
H57 C46 0.929 . S
O58 Co33 2.351 . S
O58 C61 1.244 . S
O59 Co33 2.155 . S
O59 C61 1.240 . S
O60 Co33 2.096 . S
O60 C41 1.247 . S
C61 O58 1.244 . S
C61 O59 1.240 . S
H62 C36 0.931 . S
H63 C45 0.931 . S
H64 C49 0.929 . S
H65 C51 0.930 . S
Co66 N70 2.148 . S
Co66 N76 2.128 . S
Co66 N86 2.194 . S
Co66 O91 2.351 . S
Co66 O92 2.155 . S
Co66 O93 2.096 . S
C67 N70 1.301 . S
C67 N71 1.328 . S
C67 H72 0.930 . S
C68 C69 1.333 . S
C68 N70 1.317 . S
C68 H73 0.930 . S
C69 C68 1.333 . S
C69 N71 1.350 . S
C69 H95 0.931 . S
N70 Co66 2.148 . S
N70 C67 1.301 . S
N70 C68 1.317 . S
N71 C67 1.328 . S
N71 C69 1.350 . S
H72 C67 0.930 . S
H73 C68 0.930 . S
C74 O75 1.224 . S
C74 O93 1.247 . S
O75 C74 1.224 . S
N76 Co66 2.128 . S
N76 C77 1.355 . S
N76 C79 1.311 . S
C77 N76 1.355 . S
C77 C78 1.363 . S
C77 H89 0.929 . S
C78 C77 1.363 . S
C78 N80 1.375 . S
C78 H96 0.931 . S
C79 N76 1.311 . S
C79 N80 1.347 . S
C79 H90 0.929 . S
N80 C78 1.375 . S
N80 C79 1.347 . S
C81 C84 1.365 . S
C81 N86 1.328 . S
C81 H87 0.929 . S
C82 C83 1.362 . S
C82 C85 1.378 . S
C82 H97 0.929 . S
C83 C82 1.362 . S
C83 C84 1.366 . S
C84 C81 1.365 . S
C84 C83 1.366 . S
C84 H98 0.930 . S
C85 C82 1.378 . S
C85 N86 1.315 . S
C85 H88 0.930 . S
N86 Co66 2.194 . S
N86 C81 1.328 . S
N86 C85 1.315 . S
H87 C81 0.929 . S
H88 C85 0.930 . S
H89 C77 0.929 . S
H90 C79 0.929 . S
O91 Co66 2.351 . S
O91 C94 1.244 . S
O92 Co66 2.155 . S
O92 C94 1.240 . S
O93 Co66 2.096 . S
O93 C74 1.247 . S
C94 O91 1.244 . S
C94 O92 1.240 . S
H95 C69 0.931 . S
H96 C78 0.931 . S
H97 C82 0.929 . S
H98 C84 0.930 . S
Co99 N103 2.148 . S
Co99 N109 2.128 . S
Co99 N119 2.194 . S
Co99 O124 2.351 . S
Co99 O125 2.155 . S
Co99 O126 2.096 . S
C100 N103 1.301 . S
C100 N104 1.328 . S
C100 H105 0.930 . S
C101 C102 1.333 . S
C101 N103 1.317 . S
C101 H106 0.930 . S
C102 C101 1.333 . S
C102 N104 1.350 . S
C102 H128 0.931 . S
N103 Co99 2.148 . S
N103 C100 1.301 . S
N103 C101 1.317 . S
N104 C100 1.328 . S
N104 C102 1.350 . S
H105 C100 0.930 . S
H106 C101 0.930 . S
C107 O108 1.224 . S
C107 O126 1.247 . S
O108 C107 1.224 . S
N109 Co99 2.128 . S
N109 C110 1.355 . S
N109 C112 1.311 . S
C110 N109 1.355 . S
C110 C111 1.363 . S
C110 H122 0.929 . S
C111 C110 1.363 . S
C111 N113 1.375 . S
C111 H129 0.931 . S
C112 N109 1.311 . S
C112 N113 1.347 . S
C112 H123 0.929 . S
N113 C111 1.375 . S
N113 C112 1.347 . S
C114 C117 1.365 . S
C114 N119 1.328 . S
C114 H120 0.929 . S
C115 C116 1.362 . S
C115 C118 1.378 . S
C115 H130 0.929 . S
C116 C115 1.362 . S
C116 C117 1.366 . S
C117 C114 1.365 . S
C117 C116 1.366 . S
C117 H131 0.930 . S
C118 C115 1.378 . S
C118 N119 1.315 . S
C118 H121 0.930 . S
N119 Co99 2.194 . S
N119 C114 1.328 . S
N119 C118 1.315 . S
H120 C114 0.929 . S
H121 C118 0.930 . S
H122 C110 0.929 . S
H123 C112 0.929 . S
O124 Co99 2.351 . S
O124 C127 1.244 . S
O125 Co99 2.155 . S
O125 C127 1.240 . S
O126 Co99 2.096 . S
O126 C107 1.247 . S
C127 O124 1.244 . S
C127 O125 1.240 . S
H128 C102 0.931 . S
H129 C111 0.931 . S
H130 C115 0.929 . S
H131 C117 0.930 . S
Co132 N136 2.148 . S
Co132 N142 2.128 . S
Co132 N152 2.194 . S
Co132 O157 2.351 . S
Co132 O158 2.155 . S
Co132 O159 2.096 . S
C133 N136 1.301 . S
C133 N137 1.328 . S
C133 H138 0.930 . S
C134 C135 1.333 . S
C134 N136 1.317 . S
C134 H139 0.930 . S
C135 C134 1.333 . S
C135 N137 1.350 . S
C135 H161 0.931 . S
N136 Co132 2.148 . S
N136 C133 1.301 . S
N136 C134 1.317 . S
N137 C133 1.328 . S
N137 C135 1.350 . S
H138 C133 0.930 . S
H139 C134 0.930 . S
C140 O141 1.224 . S
C140 O159 1.247 . S
O141 C140 1.224 . S
N142 Co132 2.128 . S
N142 C143 1.355 . S
N142 C145 1.311 . S
C143 N142 1.355 . S
C143 C144 1.363 . S
C143 H155 0.929 . S
C144 C143 1.363 . S
C144 N146 1.375 . S
C144 H162 0.931 . S
C145 N142 1.311 . S
C145 N146 1.347 . S
C145 H156 0.929 . S
N146 C144 1.375 . S
N146 C145 1.347 . S
C147 C150 1.365 . S
C147 N152 1.328 . S
C147 H153 0.929 . S
C148 C149 1.362 . S
C148 C151 1.378 . S
C148 H163 0.929 . S
C149 C148 1.362 . S
C149 C150 1.366 . S
C150 C147 1.365 . S
C150 C149 1.366 . S
C150 H164 0.930 . S
C151 C148 1.378 . S
C151 N152 1.315 . S
C151 H154 0.930 . S
N152 Co132 2.194 . S
N152 C147 1.328 . S
N152 C151 1.315 . S
H153 C147 0.929 . S
H154 C151 0.930 . S
H155 C143 0.929 . S
H156 C145 0.929 . S
O157 Co132 2.351 . S
O157 C160 1.244 . S
O158 Co132 2.155 . S
O158 C160 1.240 . S
O159 Co132 2.096 . S
O159 C140 1.247 . S
C160 O157 1.244 . S
C160 O158 1.240 . S
H161 C135 0.931 . S
H162 C144 0.931 . S
H163 C148 0.929 . S
H164 C150 0.930 . S
Co165 N169 2.148 . S
Co165 N175 2.128 . S
Co165 N185 2.194 . S
Co165 O190 2.351 . S
Co165 O191 2.155 . S
Co165 O192 2.096 . S
C166 N169 1.301 . S
C166 N170 1.328 . S
C166 H171 0.930 . S
C167 C168 1.333 . S
C167 N169 1.317 . S
C167 H172 0.930 . S
C168 C167 1.333 . S
C168 N170 1.350 . S
C168 H194 0.931 . S
N169 Co165 2.148 . S
N169 C166 1.301 . S
N169 C167 1.317 . S
N170 C166 1.328 . S
N170 C168 1.350 . S
H171 C166 0.930 . S
H172 C167 0.930 . S
C173 O174 1.224 . S
C173 O192 1.247 . S
O174 C173 1.224 . S
N175 Co165 2.128 . S
N175 C176 1.355 . S
N175 C178 1.311 . S
C176 N175 1.355 . S
C176 C177 1.363 . S
C176 H188 0.929 . S
C177 C176 1.363 . S
C177 N179 1.375 . S
C177 H195 0.931 . S
C178 N175 1.311 . S
C178 N179 1.347 . S
C178 H189 0.929 . S
N179 C177 1.375 . S
N179 C178 1.347 . S
C180 C183 1.365 . S
C180 N185 1.328 . S
C180 H186 0.929 . S
C181 C182 1.362 . S
C181 C184 1.378 . S
C181 H196 0.929 . S
C182 C181 1.362 . S
C182 C183 1.366 . S
C183 C180 1.365 . S
C183 C182 1.366 . S
C183 H197 0.930 . S
C184 C181 1.378 . S
C184 N185 1.315 . S
C184 H187 0.930 . S
N185 Co165 2.194 . S
N185 C180 1.328 . S
N185 C184 1.315 . S
H186 C180 0.929 . S
H187 C184 0.930 . S
H188 C176 0.929 . S
H189 C178 0.929 . S
O190 Co165 2.351 . S
O190 C193 1.244 . S
O191 Co165 2.155 . S
O191 C193 1.240 . S
O192 Co165 2.096 . S
O192 C173 1.247 . S
C193 O190 1.244 . S
C193 O191 1.240 . S
H194 C168 0.931 . S
H195 C177 0.931 . S
H196 C181 0.929 . S
H197 C183 0.930 . S
Co198 N202 2.148 . S
Co198 N208 2.128 . S
Co198 N218 2.194 . S
Co198 O223 2.351 . S
Co198 O224 2.155 . S
Co198 O225 2.096 . S
C199 N202 1.301 . S
C199 N203 1.328 . S
C199 H204 0.930 . S
C200 C201 1.333 . S
C200 N202 1.317 . S
C200 H205 0.930 . S
C201 C200 1.333 . S
C201 N203 1.350 . S
C201 H227 0.931 . S
N202 Co198 2.148 . S
N202 C199 1.301 . S
N202 C200 1.317 . S
N203 C199 1.328 . S
N203 C201 1.350 . S
H204 C199 0.930 . S
H205 C200 0.930 . S
C206 O207 1.224 . S
C206 O225 1.247 . S
O207 C206 1.224 . S
N208 Co198 2.128 . S
N208 C209 1.355 . S
N208 C211 1.311 . S
C209 N208 1.355 . S
C209 C210 1.363 . S
C209 H221 0.929 . S
C210 C209 1.363 . S
C210 N212 1.375 . S
C210 H228 0.931 . S
C211 N208 1.311 . S
C211 N212 1.347 . S
C211 H222 0.929 . S
N212 C210 1.375 . S
N212 C211 1.347 . S
C213 C216 1.365 . S
C213 N218 1.328 . S
C213 H219 0.929 . S
C214 C215 1.362 . S
C214 C217 1.378 . S
C214 H229 0.929 . S
C215 C214 1.362 . S
C215 C216 1.366 . S
C216 C213 1.365 . S
C216 C215 1.366 . S
C216 H230 0.930 . S
C217 C214 1.378 . S
C217 N218 1.315 . S
C217 H220 0.930 . S
N218 Co198 2.194 . S
N218 C213 1.328 . S
N218 C217 1.315 . S
H219 C213 0.929 . S
H220 C217 0.930 . S
H221 C209 0.929 . S
H222 C211 0.929 . S
O223 Co198 2.351 . S
O223 C226 1.244 . S
O224 Co198 2.155 . S
O224 C226 1.240 . S
O225 Co198 2.096 . S
O225 C206 1.247 . S
C226 O223 1.244 . S
C226 O224 1.240 . S
H227 C201 0.931 . S
H228 C210 0.931 . S
H229 C214 0.929 . S
H230 C216 0.930 . S
Co231 N235 2.148 . S
Co231 N241 2.128 . S
Co231 N251 2.194 . S
Co231 O256 2.351 . S
Co231 O257 2.155 . S
Co231 O258 2.096 . S
C232 N235 1.301 . S
C232 N236 1.328 . S
C232 H237 0.930 . S
C233 C234 1.333 . S
C233 N235 1.317 . S
C233 H238 0.930 . S
C234 C233 1.333 . S
C234 N236 1.350 . S
C234 H260 0.931 . S
N235 Co231 2.148 . S
N235 C232 1.301 . S
N235 C233 1.317 . S
N236 C232 1.328 . S
N236 C234 1.350 . S
H237 C232 0.930 . S
H238 C233 0.930 . S
C239 O240 1.224 . S
C239 O258 1.247 . S
O240 C239 1.224 . S
N241 Co231 2.128 . S
N241 C242 1.355 . S
N241 C244 1.311 . S
C242 N241 1.355 . S
C242 C243 1.363 . S
C242 H254 0.929 . S
C243 C242 1.363 . S
C243 N245 1.375 . S
C243 H261 0.931 . S
C244 N241 1.311 . S
C244 N245 1.347 . S
C244 H255 0.929 . S
N245 C243 1.375 . S
N245 C244 1.347 . S
C246 C249 1.365 . S
C246 N251 1.328 . S
C246 H252 0.929 . S
C247 C248 1.362 . S
C247 C250 1.378 . S
C247 H262 0.929 . S
C248 C247 1.362 . S
C248 C249 1.366 . S
C249 C246 1.365 . S
C249 C248 1.366 . S
C249 H263 0.930 . S
C250 C247 1.378 . S
C250 N251 1.315 . S
C250 H253 0.930 . S
N251 Co231 2.194 . S
N251 C246 1.328 . S
N251 C250 1.315 . S
H252 C246 0.929 . S
H253 C250 0.930 . S
H254 C242 0.929 . S
H255 C244 0.929 . S
O256 Co231 2.351 . S
O256 C259 1.244 . S
O257 Co231 2.155 . S
O257 C259 1.240 . S
O258 Co231 2.096 . S
O258 C239 1.247 . S
C259 O256 1.244 . S
C259 O257 1.240 . S
H260 C234 0.931 . S
H261 C243 0.931 . S
H262 C247 0.929 . S
H263 C249 0.930 . S
Co264 N268 2.148 . S
Co264 N274 2.128 . S
Co264 N284 2.194 . S
Co264 O289 2.351 . S
Co264 O290 2.155 . S
Co264 O291 2.096 . S
C265 N268 1.301 . S
C265 N269 1.328 . S
C265 H270 0.930 . S
C266 C267 1.333 . S
C266 N268 1.317 . S
C266 H271 0.930 . S
C267 C266 1.333 . S
C267 N269 1.350 . S
C267 H293 0.931 . S
N268 Co264 2.148 . S
N268 C265 1.301 . S
N268 C266 1.317 . S
N269 C265 1.328 . S
N269 C267 1.350 . S
H270 C265 0.930 . S
H271 C266 0.930 . S
C272 O273 1.224 . S
C272 O291 1.247 . S
O273 C272 1.224 . S
N274 Co264 2.128 . S
N274 C275 1.355 . S
N274 C277 1.311 . S
C275 N274 1.355 . S
C275 C276 1.363 . S
C275 H287 0.929 . S
C276 C275 1.363 . S
C276 N278 1.375 . S
C276 H294 0.931 . S
C277 N274 1.311 . S
C277 N278 1.347 . S
C277 H288 0.929 . S
N278 C276 1.375 . S
N278 C277 1.347 . S
C279 C282 1.365 . S
C279 N284 1.328 . S
C279 H285 0.929 . S
C280 C281 1.362 . S
C280 C283 1.378 . S
C280 H295 0.929 . S
C281 C280 1.362 . S
C281 C282 1.366 . S
C282 C279 1.365 . S
C282 C281 1.366 . S
C282 H296 0.930 . S
C283 C280 1.378 . S
C283 N284 1.315 . S
C283 H286 0.930 . S
N284 Co264 2.194 . S
N284 C279 1.328 . S
N284 C283 1.315 . S
H285 C279 0.929 . S
H286 C283 0.930 . S
H287 C275 0.929 . S
H288 C277 0.929 . S
O289 Co264 2.351 . S
O289 C292 1.244 . S
O290 Co264 2.155 . S
O290 C292 1.240 . S
O291 Co264 2.096 . S
O291 C272 1.247 . S
C292 O289 1.244 . S
C292 O290 1.240 . S
H293 C267 0.931 . S
H294 C276 0.931 . S
H295 C280 0.929 . S
H296 C282 0.930 . S
Co297 N301 2.148 . S
Co297 N307 2.128 . S
Co297 N317 2.194 . S
Co297 O322 2.351 . S
Co297 O323 2.155 . S
Co297 O324 2.096 . S
C298 N301 1.301 . S
C298 N302 1.328 . S
C298 H303 0.930 . S
C299 C300 1.333 . S
C299 N301 1.317 . S
C299 H304 0.930 . S
C300 C299 1.333 . S
C300 N302 1.350 . S
C300 H326 0.931 . S
N301 Co297 2.148 . S
N301 C298 1.301 . S
N301 C299 1.317 . S
N302 C298 1.328 . S
N302 C300 1.350 . S
H303 C298 0.930 . S
H304 C299 0.930 . S
C305 O306 1.224 . S
C305 O324 1.247 . S
O306 C305 1.224 . S
N307 Co297 2.128 . S
N307 C308 1.355 . S
N307 C310 1.311 . S
C308 N307 1.355 . S
C308 C309 1.363 . S
C308 H320 0.929 . S
C309 C308 1.363 . S
C309 N311 1.375 . S
C309 H327 0.931 . S
C310 N307 1.311 . S
C310 N311 1.347 . S
C310 H321 0.929 . S
N311 C309 1.375 . S
N311 C310 1.347 . S
C312 C315 1.365 . S
C312 N317 1.328 . S
C312 H318 0.929 . S
C313 C314 1.362 . S
C313 C316 1.378 . S
C313 H328 0.929 . S
C314 C313 1.362 . S
C314 C315 1.366 . S
C315 C312 1.365 . S
C315 C314 1.366 . S
C315 H329 0.930 . S
C316 C313 1.378 . S
C316 N317 1.315 . S
C316 H319 0.930 . S
N317 Co297 2.194 . S
N317 C312 1.328 . S
N317 C316 1.315 . S
H318 C312 0.929 . S
H319 C316 0.930 . S
H320 C308 0.929 . S
H321 C310 0.929 . S
O322 Co297 2.351 . S
O322 C325 1.244 . S
O323 Co297 2.155 . S
O323 C325 1.240 . S
O324 Co297 2.096 . S
O324 C305 1.247 . S
C325 O322 1.244 . S
C325 O323 1.240 . S
H326 C300 0.931 . S
H327 C309 0.931 . S
H328 C313 0.929 . S
H329 C315 0.930 . S
Co330 N334 2.148 . S
Co330 N340 2.128 . S
Co330 N350 2.194 . S
Co330 O355 2.351 . S
Co330 O356 2.155 . S
Co330 O357 2.096 . S
C331 N334 1.301 . S
C331 N335 1.328 . S
C331 H336 0.930 . S
C332 C333 1.333 . S
C332 N334 1.317 . S
C332 H337 0.930 . S
C333 C332 1.333 . S
C333 N335 1.350 . S
C333 H359 0.931 . S
N334 Co330 2.148 . S
N334 C331 1.301 . S
N334 C332 1.317 . S
N335 C331 1.328 . S
N335 C333 1.350 . S
H336 C331 0.930 . S
H337 C332 0.930 . S
C338 O339 1.224 . S
C338 O357 1.247 . S
O339 C338 1.224 . S
N340 Co330 2.128 . S
N340 C341 1.355 . S
N340 C343 1.311 . S
C341 N340 1.355 . S
C341 C342 1.363 . S
C341 H353 0.929 . S
C342 C341 1.363 . S
C342 N344 1.375 . S
C342 H360 0.931 . S
C343 N340 1.311 . S
C343 N344 1.347 . S
C343 H354 0.929 . S
N344 C342 1.375 . S
N344 C343 1.347 . S
C345 C348 1.365 . S
C345 N350 1.328 . S
C345 H351 0.929 . S
C346 C347 1.362 . S
C346 C349 1.378 . S
C346 H361 0.929 . S
C347 C346 1.362 . S
C347 C348 1.366 . S
C348 C345 1.365 . S
C348 C347 1.366 . S
C348 H362 0.930 . S
C349 C346 1.378 . S
C349 N350 1.315 . S
C349 H352 0.930 . S
N350 Co330 2.194 . S
N350 C345 1.328 . S
N350 C349 1.315 . S
H351 C345 0.929 . S
H352 C349 0.930 . S
H353 C341 0.929 . S
H354 C343 0.929 . S
O355 Co330 2.351 . S
O355 C358 1.244 . S
O356 Co330 2.155 . S
O356 C358 1.240 . S
O357 Co330 2.096 . S
O357 C338 1.247 . S
C358 O355 1.244 . S
C358 O356 1.240 . S
H359 C333 0.931 . S
H360 C342 0.931 . S
H361 C346 0.929 . S
H362 C348 0.930 . S
Co363 N367 2.148 . S
Co363 N373 2.128 . S
Co363 N383 2.194 . S
Co363 O388 2.351 . S
Co363 O389 2.155 . S
Co363 O390 2.096 . S
C364 N367 1.301 . S
C364 N368 1.328 . S
C364 H369 0.930 . S
C365 C366 1.333 . S
C365 N367 1.317 . S
C365 H370 0.930 . S
C366 C365 1.333 . S
C366 N368 1.350 . S
C366 H392 0.931 . S
N367 Co363 2.148 . S
N367 C364 1.301 . S
N367 C365 1.317 . S
N368 C364 1.328 . S
N368 C366 1.350 . S
H369 C364 0.930 . S
H370 C365 0.930 . S
C371 O372 1.224 . S
C371 O390 1.247 . S
O372 C371 1.224 . S
N373 Co363 2.128 . S
N373 C374 1.355 . S
N373 C376 1.311 . S
C374 N373 1.355 . S
C374 C375 1.363 . S
C374 H386 0.929 . S
C375 C374 1.363 . S
C375 N377 1.375 . S
C375 H393 0.931 . S
C376 N373 1.311 . S
C376 N377 1.347 . S
C376 H387 0.929 . S
N377 C375 1.375 . S
N377 C376 1.347 . S
C378 C381 1.365 . S
C378 N383 1.328 . S
C378 H384 0.929 . S
C379 C380 1.362 . S
C379 C382 1.378 . S
C379 H394 0.929 . S
C380 C379 1.362 . S
C380 C381 1.366 . S
C381 C378 1.365 . S
C381 C380 1.366 . S
C381 H395 0.930 . S
C382 C379 1.378 . S
C382 N383 1.315 . S
C382 H385 0.930 . S
N383 Co363 2.194 . S
N383 C378 1.328 . S
N383 C382 1.315 . S
H384 C378 0.929 . S
H385 C382 0.930 . S
H386 C374 0.929 . S
H387 C376 0.929 . S
O388 Co363 2.351 . S
O388 C391 1.244 . S
O389 Co363 2.155 . S
O389 C391 1.240 . S
O390 Co363 2.096 . S
O390 C371 1.247 . S
C391 O388 1.244 . S
C391 O389 1.240 . S
H392 C366 0.931 . S
H393 C375 0.931 . S
H394 C379 0.929 . S
H395 C381 0.930 . S
C396 C397 1.349 . S
C396 C398 1.327 . S
C396 H421 0.950 . S
C397 C396 1.349 . S
C397 C413 1.349 . S
C398 C396 1.327 . S
C398 C417 1.429 . S
C398 H422 0.950 . S
C399 C416 1.574 . S
C399 C418 1.368 . S
C399 H423 0.949 . S
H400 C404 0.949 . S
C401 C402 1.349 . S
C401 C403 1.327 . S
C401 H424 0.950 . S
C402 C401 1.349 . S
C402 C414 1.349 . S
C403 C401 1.327 . S
C403 C419 1.429 . S
C403 H425 0.950 . S
C404 H400 0.949 . S
C404 C412 1.574 . S
C404 C420 1.368 . S
H405 C413 0.950 . S
H406 C411 0.950 . S
H407 C412 0.949 . S
H408 C414 0.950 . S
H409 C415 0.950 . S
H410 C416 0.949 . S
C411 H406 0.950 . S
C411 C413 1.327 . S
C411 C417 1.429 . S
C412 C404 1.574 . S
C412 H407 0.949 . S
C412 C418 1.368 . S
C413 C397 1.349 . S
C413 H405 0.950 . S
C413 C411 1.327 . S
C414 C402 1.349 . S
C414 H408 0.950 . S
C414 C415 1.327 . S
C415 H409 0.950 . S
C415 C414 1.327 . S
C415 C419 1.429 . S
C416 C399 1.574 . S
C416 H410 0.949 . S
C416 C420 1.368 . S
C417 C398 1.429 . S
C417 C411 1.429 . S
C417 C418 1.523 . S
C418 C399 1.368 . S
C418 C412 1.368 . S
C418 C417 1.523 . S
C419 C403 1.429 . S
C419 C415 1.429 . S
C419 C420 1.523 . S
C420 C404 1.368 . S
C420 C416 1.368 . S
C420 C419 1.523 . S
H421 C396 0.950 . S
H422 C398 0.950 . S
H423 C399 0.949 . S
H424 C401 0.950 . S
H425 C403 0.950 . S
C426 C427 1.349 . S
C426 C428 1.327 . S
C426 H451 0.950 . S
C427 C426 1.349 . S
C427 C443 1.349 . S
C428 C426 1.327 . S
C428 C447 1.429 . S
C428 H452 0.950 . S
C429 C446 1.574 . S
C429 C448 1.368 . S
C429 H453 0.949 . S
H430 C434 0.949 . S
C431 C432 1.349 . S
C431 C433 1.327 . S
C431 H454 0.950 . S
C432 C431 1.349 . S
C432 C444 1.349 . S
C433 C431 1.327 . S
C433 C449 1.429 . S
C433 H455 0.950 . S
C434 H430 0.949 . S
C434 C442 1.574 . S
C434 C450 1.368 . S
H435 C443 0.950 . S
H436 C441 0.950 . S
H437 C442 0.949 . S
H438 C444 0.950 . S
H439 C445 0.950 . S
H440 C446 0.949 . S
C441 H436 0.950 . S
C441 C443 1.327 . S
C441 C447 1.429 . S
C442 C434 1.574 . S
C442 H437 0.949 . S
C442 C448 1.368 . S
C443 C427 1.349 . S
C443 H435 0.950 . S
C443 C441 1.327 . S
C444 C432 1.349 . S
C444 H438 0.950 . S
C444 C445 1.327 . S
C445 H439 0.950 . S
C445 C444 1.327 . S
C445 C449 1.429 . S
C446 C429 1.574 . S
C446 H440 0.949 . S
C446 C450 1.368 . S
C447 C428 1.429 . S
C447 C441 1.429 . S
C447 C448 1.523 . S
C448 C429 1.368 . S
C448 C442 1.368 . S
C448 C447 1.523 . S
C449 C433 1.429 . S
C449 C445 1.429 . S
C449 C450 1.523 . S
C450 C434 1.368 . S
C450 C446 1.368 . S
C450 C449 1.523 . S
H451 C426 0.950 . S
H452 C428 0.950 . S
H453 C429 0.949 . S
H454 C431 0.950 . S
H455 C433 0.950 . S
C456 C457 1.349 . S
C456 C458 1.327 . S
C456 H481 0.950 . S
C457 C456 1.349 . S
C457 C473 1.349 . S
C458 C456 1.327 . S
C458 C477 1.429 . S
C458 H482 0.950 . S
C459 C476 1.574 . S
C459 C478 1.368 . S
C459 H483 0.949 . S
H460 C464 0.949 . S
C461 C462 1.349 . S
C461 C463 1.327 . S
C461 H484 0.950 . S
C462 C461 1.349 . S
C462 C474 1.349 . S
C463 C461 1.327 . S
C463 C479 1.429 . S
C463 H485 0.950 . S
C464 H460 0.949 . S
C464 C472 1.574 . S
C464 C480 1.368 . S
H465 C473 0.950 . S
H466 C471 0.950 . S
H467 C472 0.949 . S
H468 C474 0.950 . S
H469 C475 0.950 . S
H470 C476 0.949 . S
C471 H466 0.950 . S
C471 C473 1.327 . S
C471 C477 1.429 . S
C472 C464 1.574 . S
C472 H467 0.949 . S
C472 C478 1.368 . S
C473 C457 1.349 . S
C473 H465 0.950 . S
C473 C471 1.327 . S
C474 C462 1.349 . S
C474 H468 0.950 . S
C474 C475 1.327 . S
C475 H469 0.950 . S
C475 C474 1.327 . S
C475 C479 1.429 . S
C476 C459 1.574 . S
C476 H470 0.949 . S
C476 C480 1.368 . S
C477 C458 1.429 . S
C477 C471 1.429 . S
C477 C478 1.523 . S
C478 C459 1.368 . S
C478 C472 1.368 . S
C478 C477 1.523 . S
C479 C463 1.429 . S
C479 C475 1.429 . S
C479 C480 1.523 . S
C480 C464 1.368 . S
C480 C476 1.368 . S
C480 C479 1.523 . S
H481 C456 0.950 . S
H482 C458 0.950 . S
H483 C459 0.949 . S
H484 C461 0.950 . S
H485 C463 0.950 . S
C486 C487 1.349 . S
C486 C488 1.327 . S
C486 H511 0.950 . S
C487 C486 1.349 . S
C487 C503 1.349 . S
C488 C486 1.327 . S
C488 C507 1.429 . S
C488 H512 0.950 . S
C489 C506 1.574 . S
C489 C508 1.368 . S
C489 H513 0.949 . S
H490 C494 0.949 . S
C491 C492 1.349 . S
C491 C493 1.327 . S
C491 H514 0.950 . S
C492 C491 1.349 . S
C492 C504 1.349 . S
C493 C491 1.327 . S
C493 C509 1.429 . S
C493 H515 0.950 . S
C494 H490 0.949 . S
C494 C502 1.574 . S
C494 C510 1.368 . S
H495 C503 0.950 . S
H496 C501 0.950 . S
H497 C502 0.949 . S
H498 C504 0.950 . S
H499 C505 0.950 . S
H500 C506 0.949 . S
C501 H496 0.950 . S
C501 C503 1.327 . S
C501 C507 1.429 . S
C502 C494 1.574 . S
C502 H497 0.949 . S
C502 C508 1.368 . S
C503 C487 1.349 . S
C503 H495 0.950 . S
C503 C501 1.327 . S
C504 C492 1.349 . S
C504 H498 0.950 . S
C504 C505 1.327 . S
C505 H499 0.950 . S
C505 C504 1.327 . S
C505 C509 1.429 . S
C506 C489 1.574 . S
C506 H500 0.949 . S
C506 C510 1.368 . S
C507 C488 1.429 . S
C507 C501 1.429 . S
C507 C508 1.523 . S
C508 C489 1.368 . S
C508 C502 1.368 . S
C508 C507 1.523 . S
C509 C493 1.429 . S
C509 C505 1.429 . S
C509 C510 1.523 . S
C510 C494 1.368 . S
C510 C506 1.368 . S
C510 C509 1.523 . S
H511 C486 0.950 . S
H512 C488 0.950 . S
H513 C489 0.949 . S
H514 C491 0.950 . S
H515 C493 0.950 . S
C516 C517 1.349 . S
C516 C518 1.327 . S
C516 H541 0.950 . S
C517 C516 1.349 . S
C517 C533 1.349 . S
C518 C516 1.327 . S
C518 C537 1.429 . S
C518 H542 0.950 . S
C519 C536 1.574 . S
C519 C538 1.368 . S
C519 H543 0.949 . S
H520 C524 0.949 . S
C521 C522 1.349 . S
C521 C523 1.327 . S
C521 H544 0.950 . S
C522 C521 1.349 . S
C522 C534 1.349 . S
C523 C521 1.327 . S
C523 C539 1.429 . S
C523 H545 0.950 . S
C524 H520 0.949 . S
C524 C532 1.574 . S
C524 C540 1.368 . S
H525 C533 0.950 . S
H526 C531 0.950 . S
H527 C532 0.949 . S
H528 C534 0.950 . S
H529 C535 0.950 . S
H530 C536 0.949 . S
C531 H526 0.950 . S
C531 C533 1.327 . S
C531 C537 1.429 . S
C532 C524 1.574 . S
C532 H527 0.949 . S
C532 C538 1.368 . S
C533 C517 1.349 . S
C533 H525 0.950 . S
C533 C531 1.327 . S
C534 C522 1.349 . S
C534 H528 0.950 . S
C534 C535 1.327 . S
C535 H529 0.950 . S
C535 C534 1.327 . S
C535 C539 1.429 . S
C536 C519 1.574 . S
C536 H530 0.949 . S
C536 C540 1.368 . S
C537 C518 1.429 . S
C537 C531 1.429 . S
C537 C538 1.523 . S
C538 C519 1.368 . S
C538 C532 1.368 . S
C538 C537 1.523 . S
C539 C523 1.429 . S
C539 C535 1.429 . S
C539 C540 1.523 . S
C540 C524 1.368 . S
C540 C536 1.368 . S
C540 C539 1.523 . S
H541 C516 0.950 . S
H542 C518 0.950 . S
H543 C519 0.949 . S
H544 C521 0.950 . S
H545 C523 0.950 . S
C546 C547 1.349 . S
C546 C548 1.327 . S
C546 H571 0.950 . S
C547 C546 1.349 . S
C547 C563 1.349 . S
C548 C546 1.327 . S
C548 C567 1.429 . S
C548 H572 0.950 . S
C549 C566 1.574 . S
C549 C568 1.368 . S
C549 H573 0.949 . S
H550 C554 0.949 . S
C551 C552 1.349 . S
C551 C553 1.327 . S
C551 H574 0.950 . S
C552 C551 1.349 . S
C552 C564 1.349 . S
C553 C551 1.327 . S
C553 C569 1.429 . S
C553 H575 0.950 . S
C554 H550 0.949 . S
C554 C562 1.574 . S
C554 C570 1.368 . S
H555 C563 0.950 . S
H556 C561 0.950 . S
H557 C562 0.949 . S
H558 C564 0.950 . S
H559 C565 0.950 . S
H560 C566 0.949 . S
C561 H556 0.950 . S
C561 C563 1.327 . S
C561 C567 1.429 . S
C562 C554 1.574 . S
C562 H557 0.949 . S
C562 C568 1.368 . S
C563 C547 1.349 . S
C563 H555 0.950 . S
C563 C561 1.327 . S
C564 C552 1.349 . S
C564 H558 0.950 . S
C564 C565 1.327 . S
C565 H559 0.950 . S
C565 C564 1.327 . S
C565 C569 1.429 . S
C566 C549 1.574 . S
C566 H560 0.949 . S
C566 C570 1.368 . S
C567 C548 1.429 . S
C567 C561 1.429 . S
C567 C568 1.523 . S
C568 C549 1.368 . S
C568 C562 1.368 . S
C568 C567 1.523 . S
C569 C553 1.429 . S
C569 C565 1.429 . S
C569 C570 1.523 . S
C570 C554 1.368 . S
C570 C566 1.368 . S
C570 C569 1.523 . S
H571 C546 0.950 . S
H572 C548 0.950 . S
H573 C549 0.949 . S
H574 C551 0.950 . S
H575 C553 0.950 . S
C576 C577 1.349 . S
C576 C578 1.327 . S
C576 H601 0.950 . S
C577 C576 1.349 . S
C577 C593 1.349 . S
C578 C576 1.327 . S
C578 C597 1.429 . S
C578 H602 0.950 . S
C579 C596 1.574 . S
C579 C598 1.368 . S
C579 H603 0.949 . S
H580 C584 0.949 . S
C581 C582 1.349 . S
C581 C583 1.327 . S
C581 H604 0.950 . S
C582 C581 1.349 . S
C582 C594 1.349 . S
C583 C581 1.327 . S
C583 C599 1.429 . S
C583 H605 0.950 . S
C584 H580 0.949 . S
C584 C592 1.574 . S
C584 C600 1.368 . S
H585 C593 0.950 . S
H586 C591 0.950 . S
H587 C592 0.949 . S
H588 C594 0.950 . S
H589 C595 0.950 . S
H590 C596 0.949 . S
C591 H586 0.950 . S
C591 C593 1.327 . S
C591 C597 1.429 . S
C592 C584 1.574 . S
C592 H587 0.949 . S
C592 C598 1.368 . S
C593 C577 1.349 . S
C593 H585 0.950 . S
C593 C591 1.327 . S
C594 C582 1.349 . S
C594 H588 0.950 . S
C594 C595 1.327 . S
C595 H589 0.950 . S
C595 C594 1.327 . S
C595 C599 1.429 . S
C596 C579 1.574 . S
C596 H590 0.949 . S
C596 C600 1.368 . S
C597 C578 1.429 . S
C597 C591 1.429 . S
C597 C598 1.523 . S
C598 C579 1.368 . S
C598 C592 1.368 . S
C598 C597 1.523 . S
C599 C583 1.429 . S
C599 C595 1.429 . S
C599 C600 1.523 . S
C600 C584 1.368 . S
C600 C596 1.368 . S
C600 C599 1.523 . S
H601 C576 0.950 . S
H602 C578 0.950 . S
H603 C579 0.949 . S
H604 C581 0.950 . S
H605 C583 0.950 . S
C606 C607 1.349 . S
C606 C608 1.327 . S
C606 H631 0.950 . S
C607 C606 1.349 . S
C607 C623 1.349 . S
C608 C606 1.327 . S
C608 C627 1.429 . S
C608 H632 0.950 . S
C609 C626 1.574 . S
C609 C628 1.368 . S
C609 H633 0.949 . S
H610 C614 0.949 . S
C611 C612 1.349 . S
C611 C613 1.327 . S
C611 H634 0.950 . S
C612 C611 1.349 . S
C612 C624 1.349 . S
C613 C611 1.327 . S
C613 C629 1.429 . S
C613 H635 0.950 . S
C614 H610 0.949 . S
C614 C622 1.574 . S
C614 C630 1.368 . S
H615 C623 0.950 . S
H616 C621 0.950 . S
H617 C622 0.949 . S
H618 C624 0.950 . S
H619 C625 0.950 . S
H620 C626 0.949 . S
C621 H616 0.950 . S
C621 C623 1.327 . S
C621 C627 1.429 . S
C622 C614 1.574 . S
C622 H617 0.949 . S
C622 C628 1.368 . S
C623 C607 1.349 . S
C623 H615 0.950 . S
C623 C621 1.327 . S
C624 C612 1.349 . S
C624 H618 0.950 . S
C624 C625 1.327 . S
C625 H619 0.950 . S
C625 C624 1.327 . S
C625 C629 1.429 . S
C626 C609 1.574 . S
C626 H620 0.949 . S
C626 C630 1.368 . S
C627 C608 1.429 . S
C627 C621 1.429 . S
C627 C628 1.523 . S
C628 C609 1.368 . S
C628 C622 1.368 . S
C628 C627 1.523 . S
C629 C613 1.429 . S
C629 C625 1.429 . S
C629 C630 1.523 . S
C630 C614 1.368 . S
C630 C626 1.368 . S
C630 C629 1.523 . S
H631 C606 0.950 . S
H632 C608 0.950 . S
H633 C609 0.949 . S
H634 C611 0.950 . S
H635 C613 0.950 . S
C636 C637 1.349 . S
C636 C638 1.327 . S
C636 H661 0.950 . S
C637 C636 1.349 . S
C637 C653 1.349 . S
C638 C636 1.327 . S
C638 C657 1.429 . S
C638 H662 0.950 . S
C639 C656 1.574 . S
C639 C658 1.368 . S
C639 H663 0.949 . S
H640 C644 0.949 . S
C641 C642 1.349 . S
C641 C643 1.327 . S
C641 H664 0.950 . S
C642 C641 1.349 . S
C642 C654 1.349 . S
C643 C641 1.327 . S
C643 C659 1.429 . S
C643 H665 0.950 . S
C644 H640 0.949 . S
C644 C652 1.574 . S
C644 C660 1.368 . S
H645 C653 0.950 . S
H646 C651 0.950 . S
H647 C652 0.949 . S
H648 C654 0.950 . S
H649 C655 0.950 . S
H650 C656 0.949 . S
C651 H646 0.950 . S
C651 C653 1.327 . S
C651 C657 1.429 . S
C652 C644 1.574 . S
C652 H647 0.949 . S
C652 C658 1.368 . S
C653 C637 1.349 . S
C653 H645 0.950 . S
C653 C651 1.327 . S
C654 C642 1.349 . S
C654 H648 0.950 . S
C654 C655 1.327 . S
C655 H649 0.950 . S
C655 C654 1.327 . S
C655 C659 1.429 . S
C656 C639 1.574 . S
C656 H650 0.949 . S
C656 C660 1.368 . S
C657 C638 1.429 . S
C657 C651 1.429 . S
C657 C658 1.523 . S
C658 C639 1.368 . S
C658 C652 1.368 . S
C658 C657 1.523 . S
C659 C643 1.429 . S
C659 C655 1.429 . S
C659 C660 1.523 . S
C660 C644 1.368 . S
C660 C656 1.368 . S
C660 C659 1.523 . S
H661 C636 0.950 . S
H662 C638 0.950 . S
H663 C639 0.949 . S
H664 C641 0.950 . S
H665 C643 0.950 . S
C666 C667 1.349 . S
C666 C668 1.327 . S
C666 H691 0.950 . S
C667 C666 1.349 . S
C667 C683 1.349 . S
C668 C666 1.327 . S
C668 C687 1.429 . S
C668 H692 0.950 . S
C669 C686 1.574 . S
C669 C688 1.368 . S
C669 H693 0.949 . S
H670 C674 0.949 . S
C671 C672 1.349 . S
C671 C673 1.327 . S
C671 H694 0.950 . S
C672 C671 1.349 . S
C672 C684 1.349 . S
C673 C671 1.327 . S
C673 C689 1.429 . S
C673 H695 0.950 . S
C674 H670 0.949 . S
C674 C682 1.574 . S
C674 C690 1.368 . S
H675 C683 0.950 . S
H676 C681 0.950 . S
H677 C682 0.949 . S
H678 C684 0.950 . S
H679 C685 0.950 . S
H680 C686 0.949 . S
C681 H676 0.950 . S
C681 C683 1.327 . S
C681 C687 1.429 . S
C682 C674 1.574 . S
C682 H677 0.949 . S
C682 C688 1.368 . S
C683 C667 1.349 . S
C683 H675 0.950 . S
C683 C681 1.327 . S
C684 C672 1.349 . S
C684 H678 0.950 . S
C684 C685 1.327 . S
C685 H679 0.950 . S
C685 C684 1.327 . S
C685 C689 1.429 . S
C686 C669 1.574 . S
C686 H680 0.949 . S
C686 C690 1.368 . S
C687 C668 1.429 . S
C687 C681 1.429 . S
C687 C688 1.523 . S
C688 C669 1.368 . S
C688 C682 1.368 . S
C688 C687 1.523 . S
C689 C673 1.429 . S
C689 C685 1.429 . S
C689 C690 1.523 . S
C690 C674 1.368 . S
C690 C686 1.368 . S
C690 C689 1.523 . S
H691 C666 0.950 . S
H692 C668 0.950 . S
H693 C669 0.949 . S
H694 C671 0.950 . S
H695 C673 0.950 . S
C696 C697 1.349 . S
C696 C698 1.327 . S
C696 H721 0.950 . S
C697 C696 1.349 . S
C697 C713 1.349 . S
C698 C696 1.327 . S
C698 C717 1.429 . S
C698 H722 0.950 . S
C699 C716 1.574 . S
C699 C718 1.368 . S
C699 H723 0.949 . S
H700 C704 0.949 . S
C701 C702 1.349 . S
C701 C703 1.327 . S
C701 H724 0.950 . S
C702 C701 1.349 . S
C702 C714 1.349 . S
C703 C701 1.327 . S
C703 C719 1.429 . S
C703 H725 0.950 . S
C704 H700 0.949 . S
C704 C712 1.574 . S
C704 C720 1.368 . S
H705 C713 0.950 . S
H706 C711 0.950 . S
H707 C712 0.949 . S
H708 C714 0.950 . S
H709 C715 0.950 . S
H710 C716 0.949 . S
C711 H706 0.950 . S
C711 C713 1.327 . S
C711 C717 1.429 . S
C712 C704 1.574 . S
C712 H707 0.949 . S
C712 C718 1.368 . S
C713 C697 1.349 . S
C713 H705 0.950 . S
C713 C711 1.327 . S
C714 C702 1.349 . S
C714 H708 0.950 . S
C714 C715 1.327 . S
C715 H709 0.950 . S
C715 C714 1.327 . S
C715 C719 1.429 . S
C716 C699 1.574 . S
C716 H710 0.949 . S
C716 C720 1.368 . S
C717 C698 1.429 . S
C717 C711 1.429 . S
C717 C718 1.523 . S
C718 C699 1.368 . S
C718 C712 1.368 . S
C718 C717 1.523 . S
C719 C703 1.429 . S
C719 C715 1.429 . S
C719 C720 1.523 . S
C720 C704 1.368 . S
C720 C716 1.368 . S
C720 C719 1.523 . S
H721 C696 0.950 . S
H722 C698 0.950 . S
H723 C699 0.949 . S
H724 C701 0.950 . S
H725 C703 0.950 . S
C726 C727 1.349 . S
C726 C728 1.327 . S
C726 H751 0.950 . S
C727 C726 1.349 . S
C727 C743 1.349 . S
C728 C726 1.327 . S
C728 C747 1.429 . S
C728 H752 0.950 . S
C729 C746 1.574 . S
C729 C748 1.368 . S
C729 H753 0.949 . S
H730 C734 0.949 . S
C731 C732 1.349 . S
C731 C733 1.327 . S
C731 H754 0.950 . S
C732 C731 1.349 . S
C732 C744 1.349 . S
C733 C731 1.327 . S
C733 C749 1.429 . S
C733 H755 0.950 . S
C734 H730 0.949 . S
C734 C742 1.574 . S
C734 C750 1.368 . S
H735 C743 0.950 . S
H736 C741 0.950 . S
H737 C742 0.949 . S
H738 C744 0.950 . S
H739 C745 0.950 . S
H740 C746 0.949 . S
C741 H736 0.950 . S
C741 C743 1.327 . S
C741 C747 1.429 . S
C742 C734 1.574 . S
C742 H737 0.949 . S
C742 C748 1.368 . S
C743 C727 1.349 . S
C743 H735 0.950 . S
C743 C741 1.327 . S
C744 C732 1.349 . S
C744 H738 0.950 . S
C744 C745 1.327 . S
C745 H739 0.950 . S
C745 C744 1.327 . S
C745 C749 1.429 . S
C746 C729 1.574 . S
C746 H740 0.949 . S
C746 C750 1.368 . S
C747 C728 1.429 . S
C747 C741 1.429 . S
C747 C748 1.523 . S
C748 C729 1.368 . S
C748 C742 1.368 . S
C748 C747 1.523 . S
C749 C733 1.429 . S
C749 C745 1.429 . S
C749 C750 1.523 . S
C750 C734 1.368 . S
C750 C746 1.368 . S
C750 C749 1.523 . S
H751 C726 0.950 . S
H752 C728 0.950 . S
H753 C729 0.949 . S
H754 C731 0.950 . S
H755 C733 0.950 . S
C756 C757 1.349 . S
C756 C758 1.327 . S
C756 H781 0.950 . S
C757 C756 1.349 . S
C757 C773 1.349 . S
C758 C756 1.327 . S
C758 C777 1.429 . S
C758 H782 0.950 . S
C759 C776 1.574 . S
C759 C778 1.368 . S
C759 H783 0.949 . S
H760 C764 0.949 . S
C761 C762 1.349 . S
C761 C763 1.327 . S
C761 H784 0.950 . S
C762 C761 1.349 . S
C762 C774 1.349 . S
C763 C761 1.327 . S
C763 C779 1.429 . S
C763 H785 0.950 . S
C764 H760 0.949 . S
C764 C772 1.574 . S
C764 C780 1.368 . S
H765 C773 0.950 . S
H766 C771 0.950 . S
H767 C772 0.949 . S
H768 C774 0.950 . S
H769 C775 0.950 . S
H770 C776 0.949 . S
C771 H766 0.950 . S
C771 C773 1.327 . S
C771 C777 1.429 . S
C772 C764 1.574 . S
C772 H767 0.949 . S
C772 C778 1.368 . S
C773 C757 1.349 . S
C773 H765 0.950 . S
C773 C771 1.327 . S
C774 C762 1.349 . S
C774 H768 0.950 . S
C774 C775 1.327 . S
C775 H769 0.950 . S
C775 C774 1.327 . S
C775 C779 1.429 . S
C776 C759 1.574 . S
C776 H770 0.949 . S
C776 C780 1.368 . S
C777 C758 1.429 . S
C777 C771 1.429 . S
C777 C778 1.523 . S
C778 C759 1.368 . S
C778 C772 1.368 . S
C778 C777 1.523 . S
C779 C763 1.429 . S
C779 C775 1.429 . S
C779 C780 1.523 . S
C780 C764 1.368 . S
C780 C776 1.368 . S
C780 C779 1.523 . S
H781 C756 0.950 . S
H782 C758 0.950 . S
H783 C759 0.949 . S
H784 C761 0.950 . S
H785 C763 0.950 . S
C786 C787 1.349 . S
C786 C788 1.327 . S
C786 H811 0.950 . S
C787 C786 1.349 . S
C787 C803 1.349 . S
C788 C786 1.327 . S
C788 C807 1.429 . S
C788 H812 0.950 . S
C789 C806 1.574 . S
C789 C808 1.368 . S
C789 H813 0.949 . S
H790 C794 0.949 . S
C791 C792 1.349 . S
C791 C793 1.327 . S
C791 H814 0.950 . S
C792 C791 1.349 . S
C792 C804 1.349 . S
C793 C791 1.327 . S
C793 C809 1.429 . S
C793 H815 0.950 . S
C794 H790 0.949 . S
C794 C802 1.574 . S
C794 C810 1.368 . S
H795 C803 0.950 . S
H796 C801 0.950 . S
H797 C802 0.949 . S
H798 C804 0.950 . S
H799 C805 0.950 . S
H800 C806 0.949 . S
C801 H796 0.950 . S
C801 C803 1.327 . S
C801 C807 1.429 . S
C802 C794 1.574 . S
C802 H797 0.949 . S
C802 C808 1.368 . S
C803 C787 1.349 . S
C803 H795 0.950 . S
C803 C801 1.327 . S
C804 C792 1.349 . S
C804 H798 0.950 . S
C804 C805 1.327 . S
C805 H799 0.950 . S
C805 C804 1.327 . S
C805 C809 1.429 . S
C806 C789 1.574 . S
C806 H800 0.949 . S
C806 C810 1.368 . S
C807 C788 1.429 . S
C807 C801 1.429 . S
C807 C808 1.523 . S
C808 C789 1.368 . S
C808 C802 1.368 . S
C808 C807 1.523 . S
C809 C793 1.429 . S
C809 C805 1.429 . S
C809 C810 1.523 . S
C810 C794 1.368 . S
C810 C806 1.368 . S
C810 C809 1.523 . S
H811 C786 0.950 . S
H812 C788 0.950 . S
H813 C789 0.949 . S
H814 C791 0.950 . S
H815 C793 0.950 . S
C816 C817 1.349 . S
C816 C818 1.327 . S
C816 H841 0.950 . S
C817 C816 1.349 . S
C817 C833 1.349 . S
C818 C816 1.327 . S
C818 C837 1.429 . S
C818 H842 0.950 . S
C819 C836 1.574 . S
C819 C838 1.368 . S
C819 H843 0.949 . S
H820 C824 0.949 . S
C821 C822 1.349 . S
C821 C823 1.327 . S
C821 H844 0.950 . S
C822 C821 1.349 . S
C822 C834 1.349 . S
C823 C821 1.327 . S
C823 C839 1.429 . S
C823 H845 0.950 . S
C824 H820 0.949 . S
C824 C832 1.574 . S
C824 C840 1.368 . S
H825 C833 0.950 . S
H826 C831 0.950 . S
H827 C832 0.949 . S
H828 C834 0.950 . S
H829 C835 0.950 . S
H830 C836 0.949 . S
C831 H826 0.950 . S
C831 C833 1.327 . S
C831 C837 1.429 . S
C832 C824 1.574 . S
C832 H827 0.949 . S
C832 C838 1.368 . S
C833 C817 1.349 . S
C833 H825 0.950 . S
C833 C831 1.327 . S
C834 C822 1.349 . S
C834 H828 0.950 . S
C834 C835 1.327 . S
C835 H829 0.950 . S
C835 C834 1.327 . S
C835 C839 1.429 . S
C836 C819 1.574 . S
C836 H830 0.949 . S
C836 C840 1.368 . S
C837 C818 1.429 . S
C837 C831 1.429 . S
C837 C838 1.523 . S
C838 C819 1.368 . S
C838 C832 1.368 . S
C838 C837 1.523 . S
C839 C823 1.429 . S
C839 C835 1.429 . S
C839 C840 1.523 . S
C840 C824 1.368 . S
C840 C836 1.368 . S
C840 C839 1.523 . S
H841 C816 0.950 . S
H842 C818 0.950 . S
H843 C819 0.949 . S
H844 C821 0.950 . S
H845 C823 0.950 . S
C846 C847 1.349 . S
C846 C848 1.327 . S
C846 H871 0.950 . S
C847 C846 1.349 . S
C847 C863 1.349 . S
C848 C846 1.327 . S
C848 C867 1.429 . S
C848 H872 0.950 . S
C849 C866 1.574 . S
C849 C868 1.368 . S
C849 H873 0.949 . S
H850 C854 0.949 . S
C851 C852 1.349 . S
C851 C853 1.327 . S
C851 H874 0.950 . S
C852 C851 1.349 . S
C852 C864 1.349 . S
C853 C851 1.327 . S
C853 C869 1.429 . S
C853 H875 0.950 . S
C854 H850 0.949 . S
C854 C862 1.574 . S
C854 C870 1.368 . S
H855 C863 0.950 . S
H856 C861 0.950 . S
H857 C862 0.949 . S
H858 C864 0.950 . S
H859 C865 0.950 . S
H860 C866 0.949 . S
C861 H856 0.950 . S
C861 C863 1.327 . S
C861 C867 1.429 . S
C862 C854 1.574 . S
C862 H857 0.949 . S
C862 C868 1.368 . S
C863 C847 1.349 . S
C863 H855 0.950 . S
C863 C861 1.327 . S
C864 C852 1.349 . S
C864 H858 0.950 . S
C864 C865 1.327 . S
C865 H859 0.950 . S
C865 C864 1.327 . S
C865 C869 1.429 . S
C866 C849 1.574 . S
C866 H860 0.949 . S
C866 C870 1.368 . S
C867 C848 1.429 . S
C867 C861 1.429 . S
C867 C868 1.523 . S
C868 C849 1.368 . S
C868 C862 1.368 . S
C868 C867 1.523 . S
C869 C853 1.429 . S
C869 C865 1.429 . S
C869 C870 1.523 . S
C870 C854 1.368 . S
C870 C866 1.368 . S
C870 C869 1.523 . S
H871 C846 0.950 . S
H872 C848 0.950 . S
H873 C849 0.949 . S
H874 C851 0.950 . S
H875 C853 0.950 . S
C876 C877 1.349 . S
C876 C878 1.327 . S
C876 H901 0.950 . S
C877 C876 1.349 . S
C877 C893 1.349 . S
C878 C876 1.327 . S
C878 C897 1.429 . S
C878 H902 0.950 . S
C879 C896 1.574 . S
C879 C898 1.368 . S
C879 H903 0.949 . S
H880 C884 0.949 . S
C881 C882 1.349 . S
C881 C883 1.327 . S
C881 H904 0.950 . S
C882 C881 1.349 . S
C882 C894 1.349 . S
C883 C881 1.327 . S
C883 C899 1.429 . S
C883 H905 0.950 . S
C884 H880 0.949 . S
C884 C892 1.574 . S
C884 C900 1.368 . S
H885 C893 0.950 . S
H886 C891 0.950 . S
H887 C892 0.949 . S
H888 C894 0.950 . S
H889 C895 0.950 . S
H890 C896 0.949 . S
C891 H886 0.950 . S
C891 C893 1.327 . S
C891 C897 1.429 . S
C892 C884 1.574 . S
C892 H887 0.949 . S
C892 C898 1.368 . S
C893 C877 1.349 . S
C893 H885 0.950 . S
C893 C891 1.327 . S
C894 C882 1.349 . S
C894 H888 0.950 . S
C894 C895 1.327 . S
C895 H889 0.950 . S
C895 C894 1.327 . S
C895 C899 1.429 . S
C896 C879 1.574 . S
C896 H890 0.949 . S
C896 C900 1.368 . S
C897 C878 1.429 . S
C897 C891 1.429 . S
C897 C898 1.523 . S
C898 C879 1.368 . S
C898 C892 1.368 . S
C898 C897 1.523 . S
C899 C883 1.429 . S
C899 C895 1.429 . S
C899 C900 1.523 . S
C900 C884 1.368 . S
C900 C896 1.368 . S
C900 C899 1.523 . S
H901 C876 0.950 . S
H902 C878 0.950 . S
H903 C879 0.949 . S
H904 C881 0.950 . S
H905 C883 0.950 . S
C906 C907 1.349 . S
C906 C908 1.327 . S
C906 H931 0.950 . S
C907 C906 1.349 . S
C907 C923 1.349 . S
C908 C906 1.327 . S
C908 C927 1.429 . S
C908 H932 0.950 . S
C909 C926 1.574 . S
C909 C928 1.368 . S
C909 H933 0.949 . S
H910 C914 0.949 . S
C911 C912 1.349 . S
C911 C913 1.327 . S
C911 H934 0.950 . S
C912 C911 1.349 . S
C912 C924 1.349 . S
C913 C911 1.327 . S
C913 C929 1.429 . S
C913 H935 0.950 . S
C914 H910 0.949 . S
C914 C922 1.574 . S
C914 C930 1.368 . S
H915 C923 0.950 . S
H916 C921 0.950 . S
H917 C922 0.949 . S
H918 C924 0.950 . S
H919 C925 0.950 . S
H920 C926 0.949 . S
C921 H916 0.950 . S
C921 C923 1.327 . S
C921 C927 1.429 . S
C922 C914 1.574 . S
C922 H917 0.949 . S
C922 C928 1.368 . S
C923 C907 1.349 . S
C923 H915 0.950 . S
C923 C921 1.327 . S
C924 C912 1.349 . S
C924 H918 0.950 . S
C924 C925 1.327 . S
C925 H919 0.950 . S
C925 C924 1.327 . S
C925 C929 1.429 . S
C926 C909 1.574 . S
C926 H920 0.949 . S
C926 C930 1.368 . S
C927 C908 1.429 . S
C927 C921 1.429 . S
C927 C928 1.523 . S
C928 C909 1.368 . S
C928 C922 1.368 . S
C928 C927 1.523 . S
C929 C913 1.429 . S
C929 C925 1.429 . S
C929 C930 1.523 . S
C930 C914 1.368 . S
C930 C926 1.368 . S
C930 C929 1.523 . S
H931 C906 0.950 . S
H932 C908 0.950 . S
H933 C909 0.949 . S
H934 C911 0.950 . S
H935 C913 0.950 . S
C936 C937 1.349 . S
C936 C938 1.327 . S
C936 H961 0.950 . S
C937 C936 1.349 . S
C937 C953 1.349 . S
C938 C936 1.327 . S
C938 C957 1.429 . S
C938 H962 0.950 . S
C939 C956 1.574 1_565 S
C939 C958 1.368 . S
C939 H963 0.949 . S
H940 C944 0.949 . S
C941 C942 1.349 . S
C941 C943 1.327 . S
C941 H964 0.950 . S
C942 C941 1.349 . S
C942 C954 1.349 . S
C943 C941 1.327 . S
C943 C959 1.429 . S
C943 H965 0.950 . S
C944 H940 0.949 . S
C944 C952 1.574 1_545 S
C944 C960 1.368 . S
H945 C953 0.950 . S
H946 C951 0.950 . S
H947 C952 0.949 . S
H948 C954 0.950 . S
H949 C955 0.950 . S
H950 C956 0.949 . S
C951 H946 0.950 . S
C951 C953 1.327 . S
C951 C957 1.429 . S
C952 C944 1.574 1_565 S
C952 H947 0.949 . S
C952 C958 1.368 1_554 S
C953 C937 1.349 . S
C953 H945 0.950 . S
C953 C951 1.327 . S
C954 C942 1.349 . S
C954 H948 0.950 . S
C954 C955 1.327 . S
C955 H949 0.950 . S
C955 C954 1.327 . S
C955 C959 1.429 . S
C956 C939 1.574 1_545 S
C956 H950 0.949 . S
C956 C960 1.368 1_556 S
C957 C938 1.429 . S
C957 C951 1.429 . S
C957 C958 1.523 . S
C958 C939 1.368 . S
C958 C952 1.368 1_556 S
C958 C957 1.523 . S
C959 C943 1.429 . S
C959 C955 1.429 . S
C959 C960 1.523 . S
C960 C944 1.368 . S
C960 C956 1.368 1_554 S
C960 C959 1.523 . S
H961 C936 0.950 . S
H962 C938 0.950 . S
H963 C939 0.949 . S
H964 C941 0.950 . S
H965 C943 0.950 . S
C966 C967 1.349 . S
C966 C968 1.327 . S
C966 H991 0.950 . S
C967 C966 1.349 . S
C967 C983 1.349 . S
C968 C966 1.327 . S
C968 C987 1.429 . S
C968 H992 0.950 . S
C969 C986 1.574 . S
C969 C988 1.368 . S
C969 H993 0.949 . S
H970 C974 0.949 . S
C971 C972 1.349 . S
C971 C973 1.327 . S
C971 H994 0.950 . S
C972 C971 1.349 . S
C972 C984 1.349 . S
C973 C971 1.327 . S
C973 C989 1.429 . S
C973 H995 0.950 . S
C974 H970 0.949 . S
C974 C982 1.574 . S
C974 C990 1.368 . S
H975 C983 0.950 . S
H976 C981 0.950 . S
H977 C982 0.949 . S
H978 C984 0.950 . S
H979 C985 0.950 . S
H980 C986 0.949 . S
C981 H976 0.950 . S
C981 C983 1.327 . S
C981 C987 1.429 . S
C982 C974 1.574 . S
C982 H977 0.949 . S
C982 C988 1.368 . S
C983 C967 1.349 . S
C983 H975 0.950 . S
C983 C981 1.327 . S
C984 C972 1.349 . S
C984 H978 0.950 . S
C984 C985 1.327 . S
C985 H979 0.950 . S
C985 C984 1.327 . S
C985 C989 1.429 . S
C986 C969 1.574 . S
C986 H980 0.949 . S
C986 C990 1.368 . S
C987 C968 1.429 . S
C987 C981 1.429 . S
C987 C988 1.523 . S
C988 C969 1.368 . S
C988 C982 1.368 . S
C988 C987 1.523 . S
C989 C973 1.429 . S
C989 C985 1.429 . S
C989 C990 1.523 . S
C990 C974 1.368 . S
C990 C986 1.368 . S
C990 C989 1.523 . S
H991 C966 0.950 . S
H992 C968 0.950 . S
H993 C969 0.949 . S
H994 C971 0.950 . S
H995 C973 0.950 . S
C996 C997 1.349 . S
C996 C998 1.327 . S
C996 H1021 0.950 . S
C997 C996 1.349 . S
C997 C1013 1.349 . S
C998 C996 1.327 . S
C998 C1017 1.429 . S
C998 H1022 0.950 1_554 S
C999 C1016 1.574 1_655 S
C999 C1018 1.368 . S
C999 H1023 0.949 . S
H1000 C1004 0.949 . S
C1001 C1002 1.349 . S
C1001 C1003 1.327 . S
C1001 H1024 0.950 . S
C1002 C1001 1.349 . S
C1002 C1014 1.349 . S
C1003 C1001 1.327 . S
C1003 C1019 1.429 . S
C1003 H1025 0.950 1_556 S
C1004 H1000 0.949 . S
C1004 C1012 1.574 1_455 S
C1004 C1020 1.368 . S
H1005 C1013 0.950 . S
H1006 C1011 0.950 . S
H1007 C1012 0.949 . S
H1008 C1014 0.950 . S
H1009 C1015 0.950 . S
H1010 C1016 0.949 . S
C1011 H1006 0.950 . S
C1011 C1013 1.327 . S
C1011 C1017 1.429 . S
C1012 C1004 1.574 1_655 S
C1012 H1007 0.949 . S
C1012 C1018 1.368 1_556 S
C1013 C997 1.349 . S
C1013 H1005 0.950 . S
C1013 C1011 1.327 . S
C1014 C1002 1.349 . S
C1014 H1008 0.950 . S
C1014 C1015 1.327 . S
C1015 H1009 0.950 . S
C1015 C1014 1.327 . S
C1015 C1019 1.429 . S
C1016 C999 1.574 1_455 S
C1016 H1010 0.949 . S
C1016 C1020 1.368 1_554 S
C1017 C998 1.429 . S
C1017 C1011 1.429 . S
C1017 C1018 1.523 . S
C1018 C999 1.368 . S
C1018 C1012 1.368 1_554 S
C1018 C1017 1.523 . S
C1019 C1003 1.429 . S
C1019 C1015 1.429 . S
C1019 C1020 1.523 . S
C1020 C1004 1.368 . S
C1020 C1016 1.368 1_556 S
C1020 C1019 1.523 . S
H1021 C996 0.950 . S
H1022 C998 0.950 1_556 S
H1023 C999 0.949 . S
H1024 C1001 0.950 . S
H1025 C1003 0.950 1_554 S
C1026 C1027 1.349 . S
C1026 C1028 1.327 . S
C1026 H1051 0.950 . S
C1027 C1026 1.349 . S
C1027 C1043 1.349 . S
C1028 C1026 1.327 . S
C1028 C1047 1.429 . S
C1028 H1052 0.950 . S
C1029 C1046 1.574 1_565 S
C1029 C1048 1.368 . S
C1029 H1053 0.949 . S
H1030 C1034 0.949 . S
C1031 C1032 1.349 . S
C1031 C1033 1.327 . S
C1031 H1054 0.950 . S
C1032 C1031 1.349 . S
C1032 C1044 1.349 . S
C1033 C1031 1.327 . S
C1033 C1049 1.429 . S
C1033 H1055 0.950 . S
C1034 H1030 0.949 . S
C1034 C1042 1.574 1_545 S
C1034 C1050 1.368 . S
H1035 C1043 0.950 . S
H1036 C1041 0.950 . S
H1037 C1042 0.949 . S
H1038 C1044 0.950 . S
H1039 C1045 0.950 . S
H1040 C1046 0.949 . S
C1041 H1036 0.950 . S
C1041 C1043 1.327 . S
C1041 C1047 1.429 . S
C1042 C1034 1.574 1_565 S
C1042 H1037 0.949 . S
C1042 C1048 1.368 . S
C1043 C1027 1.349 . S
C1043 H1035 0.950 . S
C1043 C1041 1.327 . S
C1044 C1032 1.349 . S
C1044 H1038 0.950 . S
C1044 C1045 1.327 . S
C1045 H1039 0.950 . S
C1045 C1044 1.327 . S
C1045 C1049 1.429 . S
C1046 C1029 1.574 1_545 S
C1046 H1040 0.949 . S
C1046 C1050 1.368 . S
C1047 C1028 1.429 . S
C1047 C1041 1.429 . S
C1047 C1048 1.523 . S
C1048 C1029 1.368 . S
C1048 C1042 1.368 . S
C1048 C1047 1.523 . S
C1049 C1033 1.429 . S
C1049 C1045 1.429 . S
C1049 C1050 1.523 . S
C1050 C1034 1.368 . S
C1050 C1046 1.368 . S
C1050 C1049 1.523 . S
H1051 C1026 0.950 . S
H1052 C1028 0.950 . S
H1053 C1029 0.949 . S
H1054 C1031 0.950 . S
H1055 C1033 0.950 . S
C1056 C1057 1.349 . S
C1056 C1058 1.327 . S
C1056 H1081 0.950 . S
C1057 C1056 1.349 . S
C1057 C1073 1.349 . S
C1058 C1056 1.327 . S
C1058 C1077 1.429 . S
C1058 H1082 0.950 . S
C1059 C1076 1.574 . S
C1059 C1078 1.368 . S
C1059 H1083 0.949 . S
H1060 C1064 0.949 . S
C1061 C1062 1.349 . S
C1061 C1063 1.327 . S
C1061 H1084 0.950 . S
C1062 C1061 1.349 . S
C1062 C1074 1.349 . S
C1063 C1061 1.327 . S
C1063 C1079 1.429 . S
C1063 H1085 0.950 . S
C1064 H1060 0.949 . S
C1064 C1072 1.574 . S
C1064 C1080 1.368 . S
H1065 C1073 0.950 . S
H1066 C1071 0.950 . S
H1067 C1072 0.949 . S
H1068 C1074 0.950 . S
H1069 C1075 0.950 . S
H1070 C1076 0.949 . S
C1071 H1066 0.950 . S
C1071 C1073 1.327 . S
C1071 C1077 1.429 . S
C1072 C1064 1.574 . S
C1072 H1067 0.949 . S
C1072 C1078 1.368 1_556 S
C1073 C1057 1.349 . S
C1073 H1065 0.950 . S
C1073 C1071 1.327 . S
C1074 C1062 1.349 . S
C1074 H1068 0.950 . S
C1074 C1075 1.327 . S
C1075 H1069 0.950 . S
C1075 C1074 1.327 . S
C1075 C1079 1.429 . S
C1076 C1059 1.574 . S
C1076 H1070 0.949 . S
C1076 C1080 1.368 1_554 S
C1077 C1058 1.429 . S
C1077 C1071 1.429 . S
C1077 C1078 1.523 . S
C1078 C1059 1.368 . S
C1078 C1072 1.368 1_554 S
C1078 C1077 1.523 . S
C1079 C1063 1.429 . S
C1079 C1075 1.429 . S
C1079 C1080 1.523 . S
C1080 C1064 1.368 . S
C1080 C1076 1.368 1_556 S
C1080 C1079 1.523 . S
H1081 C1056 0.950 . S
H1082 C1058 0.950 . S
H1083 C1059 0.949 . S
H1084 C1061 0.950 . S
H1085 C1063 0.950 . S
C1086 C1087 1.349 . S
C1086 C1088 1.327 . S
C1086 H1111 0.950 . S
C1087 C1086 1.349 . S
C1087 C1103 1.349 . S
C1088 C1086 1.327 . S
C1088 C1107 1.429 . S
C1088 H1112 0.950 . S
C1089 C1106 1.574 1_655 S
C1089 C1108 1.368 . S
C1089 H1113 0.949 . S
H1090 C1094 0.949 . S
C1091 C1092 1.349 . S
C1091 C1093 1.327 . S
C1091 H1114 0.950 . S
C1092 C1091 1.349 . S
C1092 C1104 1.349 . S
C1093 C1091 1.327 . S
C1093 C1109 1.429 . S
C1093 H1115 0.950 . S
C1094 H1090 0.949 . S
C1094 C1102 1.574 1_455 S
C1094 C1110 1.368 . S
H1095 C1103 0.950 . S
H1096 C1101 0.950 . S
H1097 C1102 0.949 . S
H1098 C1104 0.950 . S
H1099 C1105 0.950 . S
H1100 C1106 0.949 . S
C1101 H1096 0.950 . S
C1101 C1103 1.327 . S
C1101 C1107 1.429 . S
C1102 C1094 1.574 1_655 S
C1102 H1097 0.949 . S
C1102 C1108 1.368 . S
C1103 C1087 1.349 . S
C1103 H1095 0.950 . S
C1103 C1101 1.327 . S
C1104 C1092 1.349 . S
C1104 H1098 0.950 . S
C1104 C1105 1.327 . S
C1105 H1099 0.950 . S
C1105 C1104 1.327 . S
C1105 C1109 1.429 . S
C1106 C1089 1.574 1_455 S
C1106 H1100 0.949 . S
C1106 C1110 1.368 . S
C1107 C1088 1.429 . S
C1107 C1101 1.429 . S
C1107 C1108 1.523 . S
C1108 C1089 1.368 . S
C1108 C1102 1.368 . S
C1108 C1107 1.523 . S
C1109 C1093 1.429 . S
C1109 C1105 1.429 . S
C1109 C1110 1.523 . S
C1110 C1094 1.368 . S
C1110 C1106 1.368 . S
C1110 C1109 1.523 . S
H1111 C1086 0.950 . S
H1112 C1088 0.950 . S
H1113 C1089 0.949 . S
H1114 C1091 0.950 . S
H1115 C1093 0.950 . S
C1116 C1117 1.349 . S
C1116 C1118 1.327 . S
C1116 H1141 0.950 . S
C1117 C1116 1.349 . S
C1117 C1133 1.349 . S
C1118 C1116 1.327 . S
C1118 C1137 1.429 . S
C1118 H1142 0.950 . S
C1119 C1136 1.541 1_544 S
C1119 C1138 1.399 . S
C1119 H1143 0.954 . S
H1120 C1124 0.954 . S
C1121 C1122 1.349 . S
C1121 C1123 1.327 . S
C1121 H1144 0.950 . S
C1122 C1121 1.349 . S
C1122 C1134 1.349 . S
C1123 C1121 1.327 . S
C1123 C1139 1.429 . S
C1123 H1145 0.950 . S
C1124 H1120 0.954 . S
C1124 C1132 1.541 1_566 S
C1124 C1140 1.399 . S
H1125 C1133 0.950 . S
H1126 C1131 0.950 . S
H1127 C1132 0.949 . S
H1128 C1134 0.950 . S
H1129 C1135 0.950 . S
H1130 C1136 0.949 . S
C1131 H1126 0.950 . S
C1131 C1133 1.327 . S
C1131 C1137 1.429 . S
C1132 C1124 1.541 1_544 S
C1132 H1127 0.949 . S
C1132 C1138 1.368 . S
C1133 C1117 1.349 . S
C1133 H1125 0.950 . S
C1133 C1131 1.327 . S
C1134 C1122 1.349 . S
C1134 H1128 0.950 . S
C1134 C1135 1.327 . S
C1135 H1129 0.950 . S
C1135 C1134 1.327 . S
C1135 C1139 1.429 . S
C1136 C1119 1.541 1_566 S
C1136 H1130 0.949 . S
C1136 C1140 1.368 . S
C1137 C1118 1.429 . S
C1137 C1131 1.429 . S
C1137 C1138 1.523 . S
C1138 C1119 1.399 . S
C1138 C1132 1.368 . S
C1138 C1137 1.523 . S
C1139 C1123 1.429 . S
C1139 C1135 1.429 . S
C1139 C1140 1.523 . S
C1140 C1124 1.399 . S
C1140 C1136 1.368 . S
C1140 C1139 1.523 . S
H1141 C1116 0.950 . S
H1142 C1118 0.950 . S
H1143 C1119 0.954 . S
H1144 C1121 0.950 . S
H1145 C1123 0.950 . S
C1146 C1147 1.349 . S
C1146 C1148 1.327 . S
C1146 H1171 0.950 . S
C1147 C1146 1.349 . S
C1147 C1163 1.349 . S
C1148 C1146 1.327 . S
C1148 C1167 1.429 . S
C1148 H1172 0.950 . S
C1149 C1166 1.574 . S
C1149 C1168 1.368 . S
C1149 H1173 0.949 . S
H1150 C1154 0.949 . S
C1151 C1152 1.349 . S
C1151 C1153 1.327 . S
C1151 H1174 0.950 . S
C1152 C1151 1.349 . S
C1152 C1164 1.349 . S
C1153 C1151 1.327 . S
C1153 C1169 1.429 . S
C1153 H1175 0.950 . S
C1154 H1150 0.949 . S
C1154 C1162 1.574 . S
C1154 C1170 1.368 . S
H1155 C1163 0.950 . S
H1156 C1161 0.950 . S
H1157 C1162 0.949 . S
H1158 C1164 0.950 . S
H1159 C1165 0.950 . S
H1160 C1166 0.949 . S
C1161 H1156 0.950 . S
C1161 C1163 1.327 . S
C1161 C1167 1.429 . S
C1162 C1154 1.574 . S
C1162 H1157 0.949 . S
C1162 C1168 1.368 . S
C1163 C1147 1.349 . S
C1163 H1155 0.950 . S
C1163 C1161 1.327 . S
C1164 C1152 1.349 . S
C1164 H1158 0.950 . S
C1164 C1165 1.327 . S
C1165 H1159 0.950 . S
C1165 C1164 1.327 . S
C1165 C1169 1.429 . S
C1166 C1149 1.574 . S
C1166 H1160 0.949 . S
C1166 C1170 1.368 . S
C1167 C1148 1.429 . S
C1167 C1161 1.429 . S
C1167 C1168 1.523 . S
C1168 C1149 1.368 . S
C1168 C1162 1.368 . S
C1168 C1167 1.523 . S
C1169 C1153 1.429 . S
C1169 C1165 1.429 . S
C1169 C1170 1.523 . S
C1170 C1154 1.368 . S
C1170 C1166 1.368 . S
C1170 C1169 1.523 . S
H1171 C1146 0.950 . S
H1172 C1148 0.950 . S
H1173 C1149 0.949 . S
H1174 C1151 0.950 . S
H1175 C1153 0.950 . S
C1176 C1177 1.349 . S
C1176 C1178 1.327 . S
C1176 H1201 0.950 . S
C1177 C1176 1.349 . S
C1177 C1193 1.349 . S
C1178 C1176 1.327 . S
C1178 C1197 1.429 . S
C1178 H1202 0.950 . S
C1179 C1196 1.599 . S
C1179 C1198 1.352 1_455 S
C1179 H1203 0.949 . S
H1180 C1184 0.949 . S
C1181 C1182 1.349 . S
C1181 C1183 1.327 . S
C1181 H1204 0.950 . S
C1182 C1181 1.349 . S
C1182 C1194 1.349 . S
C1183 C1181 1.327 . S
C1183 C1199 1.429 . S
C1183 H1205 0.950 . S
C1184 H1180 0.949 . S
C1184 C1192 1.599 . S
C1184 C1200 1.352 1_655 S
H1185 C1193 0.950 . S
H1186 C1191 0.950 . S
H1187 C1192 0.949 . S
H1188 C1194 0.950 . S
H1189 C1195 0.950 . S
H1190 C1196 0.949 . S
C1191 H1186 0.950 . S
C1191 C1193 1.327 . S
C1191 C1197 1.429 . S
C1192 C1184 1.599 . S
C1192 H1187 0.949 . S
C1192 C1198 1.368 1_556 S
C1193 C1177 1.349 . S
C1193 H1185 0.950 . S
C1193 C1191 1.327 . S
C1194 C1182 1.349 . S
C1194 H1188 0.950 . S
C1194 C1195 1.327 . S
C1195 H1189 0.950 . S
C1195 C1194 1.327 . S
C1195 C1199 1.429 . S
C1196 C1179 1.599 . S
C1196 H1190 0.949 . S
C1196 C1200 1.368 1_554 S
C1197 C1178 1.429 . S
C1197 C1191 1.429 . S
C1197 C1198 1.523 . S
C1198 C1179 1.352 1_655 S
C1198 C1192 1.368 1_554 S
C1198 C1197 1.523 . S
C1199 C1183 1.429 . S
C1199 C1195 1.429 . S
C1199 C1200 1.523 . S
C1200 C1184 1.352 1_455 S
C1200 C1196 1.368 1_556 S
C1200 C1199 1.523 . S
H1201 C1176 0.950 . S
H1202 C1178 0.950 . S
H1203 C1179 0.949 . S
H1204 C1181 0.950 . S
H1205 C1183 0.950 . S
C1206 C1207 1.349 . S
C1206 C1208 1.327 . S
C1206 H1231 0.950 . S
C1207 C1206 1.349 . S
C1207 C1223 1.349 . S
C1208 C1206 1.327 . S
C1208 C1227 1.429 . S
C1208 H1232 0.950 . S
C1209 C1226 1.574 . S
C1209 C1228 1.368 1_545 S
C1209 H1233 0.949 . S
H1210 C1214 0.949 . S
C1211 C1212 1.349 . S
C1211 C1213 1.327 . S
C1211 H1234 0.950 . S
C1212 C1211 1.349 . S
C1212 C1224 1.349 . S
C1213 C1211 1.327 . S
C1213 C1229 1.429 . S
C1213 H1235 0.950 . S
C1214 H1210 0.949 . S
C1214 C1222 1.574 . S
C1214 C1230 1.368 1_565 S
H1215 C1223 0.950 . S
H1216 C1221 0.950 . S
H1217 C1222 0.949 . S
H1218 C1224 0.950 . S
H1219 C1225 0.950 . S
H1220 C1226 0.949 . S
C1221 H1216 0.950 . S
C1221 C1223 1.327 . S
C1221 C1227 1.429 . S
C1222 C1214 1.574 . S
C1222 H1217 0.949 . S
C1222 C1228 1.368 . S
C1223 C1207 1.349 . S
C1223 H1215 0.950 . S
C1223 C1221 1.327 . S
C1224 C1212 1.349 . S
C1224 H1218 0.950 . S
C1224 C1225 1.327 . S
C1225 H1219 0.950 . S
C1225 C1224 1.327 . S
C1225 C1229 1.429 . S
C1226 C1209 1.574 . S
C1226 H1220 0.949 . S
C1226 C1230 1.368 . S
C1227 C1208 1.429 . S
C1227 C1221 1.429 . S
C1227 C1228 1.523 . S
C1228 C1209 1.368 1_565 S
C1228 C1222 1.368 . S
C1228 C1227 1.523 . S
C1229 C1213 1.429 . S
C1229 C1225 1.429 . S
C1229 C1230 1.523 . S
C1230 C1214 1.368 1_545 S
C1230 C1226 1.368 . S
C1230 C1229 1.523 . S
H1231 C1206 0.950 . S
H1232 C1208 0.950 . S
H1233 C1209 0.949 . S
H1234 C1211 0.950 . S
H1235 C1213 0.950 . S
C1236 C1237 1.349 . S
C1236 C1238 1.327 . S
C1236 H1261 0.950 . S
C1237 C1236 1.349 . S
C1237 C1253 1.349 . S
C1238 C1236 1.327 . S
C1238 C1257 1.429 . S
C1238 H1262 0.950 . S
C1239 C1256 1.574 . S
C1239 C1258 1.368 . S
C1239 H1263 0.949 . S
H1240 C1244 0.949 . S
C1241 C1242 1.349 . S
C1241 C1243 1.327 . S
C1241 H1264 0.950 . S
C1242 C1241 1.349 . S
C1242 C1254 1.349 . S
C1243 C1241 1.327 . S
C1243 C1259 1.429 . S
C1243 H1265 0.950 . S
C1244 H1240 0.949 . S
C1244 C1252 1.574 . S
C1244 C1260 1.368 . S
H1245 C1253 0.950 . S
H1246 C1251 0.950 . S
H1247 C1252 0.949 . S
H1248 C1254 0.950 . S
H1249 C1255 0.950 . S
H1250 C1256 0.949 . S
C1251 H1246 0.950 . S
C1251 C1253 1.327 . S
C1251 C1257 1.429 . S
C1252 C1244 1.574 . S
C1252 H1247 0.949 . S
C1252 C1258 1.368 1_554 S
C1253 C1237 1.349 . S
C1253 H1245 0.950 . S
C1253 C1251 1.327 . S
C1254 C1242 1.349 . S
C1254 H1248 0.950 . S
C1254 C1255 1.327 . S
C1255 H1249 0.950 . S
C1255 C1254 1.327 . S
C1255 C1259 1.429 . S
C1256 C1239 1.574 . S
C1256 H1250 0.949 . S
C1256 C1260 1.368 1_556 S
C1257 C1238 1.429 . S
C1257 C1251 1.429 . S
C1257 C1258 1.523 . S
C1258 C1239 1.368 . S
C1258 C1252 1.368 1_556 S
C1258 C1257 1.523 . S
C1259 C1243 1.429 . S
C1259 C1255 1.429 . S
C1259 C1260 1.523 . S
C1260 C1244 1.368 . S
C1260 C1256 1.368 1_554 S
C1260 C1259 1.523 . S
H1261 C1236 0.950 . S
H1262 C1238 0.950 . S
H1263 C1239 0.949 . S
H1264 C1241 0.950 . S
H1265 C1243 0.950 . S
C1266 C1267 1.349 . S
C1266 C1268 1.327 . S
C1266 H1291 0.950 . S
C1267 C1266 1.349 . S
C1267 C1283 1.349 . S
C1268 C1266 1.327 . S
C1268 C1287 1.429 . S
C1268 H1292 0.950 . S
C1269 C1286 1.590 . S
C1269 C1288 1.368 . S
C1269 H1293 0.949 . S
H1270 C1274 0.949 . S
C1271 C1272 1.349 . S
C1271 C1273 1.327 . S
C1271 H1294 0.950 . S
C1272 C1271 1.349 . S
C1272 C1284 1.349 . S
C1273 C1271 1.327 . S
C1273 C1289 1.429 . S
C1273 H1295 0.950 . S
C1274 H1270 0.949 . S
C1274 C1282 1.590 . S
C1274 C1290 1.368 . S
H1275 C1283 0.950 . S
H1276 C1281 0.950 . S
H1277 C1282 0.951 . S
H1278 C1284 0.950 . S
H1279 C1285 0.950 . S
H1280 C1286 0.951 . S
C1281 H1276 0.950 . S
C1281 C1283 1.327 . S
C1281 C1287 1.429 . S
C1282 C1274 1.590 . S
C1282 H1277 0.951 . S
C1282 C1288 1.347 1_655 S
C1283 C1267 1.349 . S
C1283 H1275 0.950 . S
C1283 C1281 1.327 . S
C1284 C1272 1.349 . S
C1284 H1278 0.950 . S
C1284 C1285 1.327 . S
C1285 H1279 0.950 . S
C1285 C1284 1.327 . S
C1285 C1289 1.429 . S
C1286 C1269 1.590 . S
C1286 H1280 0.951 . S
C1286 C1290 1.347 1_455 S
C1287 C1268 1.429 . S
C1287 C1281 1.429 . S
C1287 C1288 1.523 . S
C1288 C1269 1.368 . S
C1288 C1282 1.347 1_455 S
C1288 C1287 1.523 . S
C1289 C1273 1.429 . S
C1289 C1285 1.429 . S
C1289 C1290 1.523 . S
C1290 C1274 1.368 . S
C1290 C1286 1.347 1_655 S
C1290 C1289 1.523 . S
H1291 C1266 0.950 . S
H1292 C1268 0.950 . S
H1293 C1269 0.949 . S
H1294 C1271 0.950 . S
H1295 C1273 0.950 . S
C397 C74 1.509 . S
C402 N14 1.540 . S
C427 N47 1.541 . S
C432 C107 1.509 . S
C457 N80 1.540 . S
C462 C140 1.509 . S
C487 N113 1.540 . S
C492 C173 1.508 . S
C517 N146 1.541 . S
C522 C8 1.509 . S
C547 C41 1.508 . S
C552 N179 1.540 . S
C577 N212 1.540 . S
C582 C338 1.509 . S
C607 N245 1.540 . S
C612 C371 1.509 . S
C637 C206 1.509 . S
C642 N278 1.541 . S
C667 C239 1.509 . S
C672 N311 1.540 . S
C697 C272 1.509 . S
C702 N344 1.541 . S
C727 C305 1.509 . S
C732 N377 1.541 . S
C757 C281 1.203 . S
C762 C17 1.203 . S
C787 C50 1.203 . S
C792 C314 1.203 . S
C817 C347 1.204 . S
C822 C83 1.204 . S
C847 C380 1.203 . S
C852 C116 1.203 . S
C877 C149 1.203 . S
C882 C215 1.203 . S
C907 C248 1.203 . S
C912 C182 1.203 . S
C937 C259 1.212 . S
C942 C28 1.212 . S
C967 C61 1.212 . S
C972 C292 1.212 . S
C997 C94 1.212 . S
C1002 C325 1.212 . S
C1027 C127 1.212 . S
C1032 C358 1.212 . S
C1057 C160 1.212 . S
C1062 C391 1.212 . S
C1087 C226 1.212 . S
C1092 C193 1.212 . S
C1117 N71 1.485 . S
C1122 N368 1.485 . S
C1147 N203 1.486 . S
C1152 N104 1.486 . S
C1177 N137 1.486 . S
C1182 N236 1.486 . S
C1207 N170 1.486 . S
C1212 N269 1.486 . S
C1237 N302 1.486 . S
C1242 N5 1.486 . S
C1267 N38 1.485 . S
C1272 N335 1.485 . S
