# Generated by pormake.
# Topology sqp, (5)-cn, num edge types: 1
# Building blocks:
#     Node 0, Type 0, BuildingBlock: XOMCOT_clean_sbu_0, # of connection points: 5
#     Node 1, Type 0, BuildingBlock: XOMCOT_clean_sbu_0, # of connection points: 5
#     Node 2, Type 0, BuildingBlock: XOMCOT_clean_sbu_0, # of connection points: 5
#     Node 3, Type 0, BuildingBlock: XOMCOT_clean_sbu_0, # of connection points: 5
#     Edge 4, Type (0, 0), BuildingBlock: FUNLAD_clean_linker_1, # of connection points: 2
#     Edge 5, Type (0, 0), BuildingBlock: FUNLAD_clean_linker_1, # of connection points: 2
#     Edge 6, Type (0, 0), BuildingBlock: FUNLAD_clean_linker_1, # of connection points: 2
#     Edge 7, Type (0, 0), BuildingBlock: FUNLAD_clean_linker_1, # of connection points: 2
#     Edge 8, Type (0, 0), BuildingBlock: FUNLAD_clean_linker_1, # of connection points: 2
#     Edge 9, Type (0, 0), BuildingBlock: FUNLAD_clean_linker_1, # of connection points: 2
#     Edge 10, Type (0, 0), BuildingBlock: FUNLAD_clean_linker_1, # of connection points: 2
#     Edge 11, Type (0, 0), BuildingBlock: FUNLAD_clean_linker_1, # of connection points: 2
#     Edge 12, Type (0, 0), BuildingBlock: FUNLAD_clean_linker_1, # of connection points: 2
#     Edge 13, Type (0, 0), BuildingBlock: FUNLAD_clean_linker_1, # of connection points: 2
# Relax obj value: 0.120
# Max RMSD: 0.201
# Mean RMSD: 0.201
data_MOF--net-sqp--node1-XOMCOT_clean_sbu_0--edge1-FUNLAD_clean_linker_1
_symmetry_space_group_name_H-M    P1
_symmetry_Int_Tables_number       1
_symmetry_cell_setting            triclinic
loop_
_symmetry_equiv_pos_as_xyz
'x, y, z'
_cell_length_a     25.134039
_cell_length_b     20.219448
_cell_length_c     48.009269
_cell_angle_alpha  90.781381
_cell_angle_beta   88.463612
_cell_angle_gamma 90.58099
loop_
_atom_site_label
_atom_site_type_symbol
_atom_site_fract_x
_atom_site_fract_y
_atom_site_fract_z
_atom_type_partial_charge
Co0 Co 0.02444 0.01173 0.31051 0.0
C1 C 0.9358 0.1093 0.31024 0.0
C2 C 1.0091 0.15236 0.29537 0.0
C3 C 0.97019 0.19928 0.29432 0.0
N4 N 0.98833 0.09624 0.30638 0.0
N5 N 0.92427 0.17215 0.30377 0.0
H6 H 0.90608 0.07331 0.31684 0.0
H7 H 0.04862 0.15851 0.28655 0.0
C8 C 0.1232 0.09957 0.31072 0.0
O9 O 0.10498 0.13464 0.3321 0.0
N10 N 0.06035 0.92841 0.3132 0.0
C11 C 0.05293 0.87958 0.33179 0.0
C12 C 0.08856 0.82967 0.32523 0.0
C13 C 0.09904 0.9074 0.29544 0.0
N14 N 0.11732 0.84781 0.30238 0.0
C15 C 0.98913 0.04274 0.36638 0.0
C16 C 0.08505 0.02373 0.39165 0.0
C17 C 0.04048 0.0404 0.40843 0.0
C18 C 0.99197 0.05016 0.39526 0.0
C19 C 0.08045 0.01694 0.36275 0.0
N20 N 0.03309 0.02782 0.35033 0.0
H21 H 0.95086 0.04691 0.35709 0.0
H22 H 0.1149 1.00182 0.35039 0.0
H23 H 0.02406 0.88046 0.34891 0.0
H24 H 0.11394 0.93555 0.27781 0.0
O25 O 0.95714 0.96521 0.3123 0.0
O26 O 1.00374 0.98641 0.27339 0.0
O27 O 0.09548 0.05291 0.30018 0.0
C28 C 0.96221 0.95887 0.28532 0.0
H29 H 0.9744 0.24795 0.28534 0.0
H30 H 0.09265 0.78381 0.33629 0.0
H31 H 0.12314 0.01466 0.40086 0.0
H32 H 0.95576 0.06207 0.40675 0.0
Co33 Co 0.0141 0.99928 0.72358 0.0
C34 C 0.10625 0.09366 0.71787 0.0
C35 C 0.0473 0.12497 0.74833 0.0
C36 C 0.08845 0.16999 0.74828 0.0
N37 N 0.05812 0.07729 0.72923 0.0
N38 N 0.12584 0.15014 0.72933 0.0
H39 H 0.12708 0.0641 0.70218 0.0
H40 H 1.01238 0.12629 0.76196 0.0
C41 C 0.90626 0.06403 0.72242 0.0
O42 O 0.89583 0.03399 0.6987 0.0
N43 N 0.96899 0.92006 0.71957 0.0
C44 C 0.98386 0.85931 0.71025 0.0
C45 C 0.94238 0.81511 0.71439 0.0
C46 C 0.91917 0.91043 0.73038 0.0
N47 N 0.9018 0.84768 0.72699 0.0
C48 C 0.02364 0.97358 0.66492 0.0
C49 C 0.99557 0.09757 0.64731 0.0
C50 C 1.00896 0.04906 0.62724 0.0
C51 C 0.02302 0.98625 0.63648 0.0
C52 C 0.99682 0.0827 0.67573 0.0
N53 N 1.00896 0.02048 0.68423 0.0
H54 H 0.03721 0.92609 0.67132 0.0
H55 H 0.98813 0.12131 0.69092 0.0
H56 H 0.02294 0.8465 0.70211 0.0
H57 H 0.89663 0.94703 0.74206 0.0
O58 O 0.07699 0.94566 0.72079 0.0
O59 O 0.03256 0.96938 0.76021 0.0
O60 O 0.94997 0.05414 0.73455 0.0
C61 C 0.07235 0.9395 0.74767 0.0
H62 H 0.09039 0.21366 0.76147 0.0
H63 H 0.94234 0.7631 0.70875 0.0
H64 H 0.98488 0.14689 0.64109 0.0
H65 H 0.03305 0.94644 0.62208 0.0
Co66 Co 0.49035 0.49013 0.81915 0.0
C67 C 0.40415 0.58173 0.80235 0.0
C68 C 0.45701 0.62633 0.83168 0.0
C69 C 0.41883 0.67168 0.82548 0.0
N70 N 0.44745 0.56948 0.81754 0.0
N71 N 0.38568 0.64336 0.80712 0.0
H72 H 0.38625 0.54689 0.78802 0.0
H73 H 0.48992 0.63456 0.84541 0.0
C74 C 0.56395 0.5776 0.78824 0.0
O75 O 0.52734 0.57922 0.76925 0.0
N76 N 0.53413 0.41254 0.82041 0.0
C77 C 0.53421 0.3652 0.83989 0.0
C78 C 0.57069 0.31771 0.83163 0.0
C79 C 0.56968 0.39317 0.80054 0.0
N80 N 0.59277 0.33567 0.80688 0.0
C81 C 0.4528 0.50705 0.87488 0.0
C82 C 0.55026 0.52062 0.89986 0.0
C83 C 0.50341 0.5226 0.91664 0.0
C84 C 0.45445 0.5161 0.90362 0.0
C85 C 0.54681 0.5117 0.8709 0.0
N86 N 0.49839 0.50518 0.85886 0.0
H87 H 0.41452 0.5021 0.8653 0.0
H88 H 0.58296 0.50919 0.85823 0.0
H89 H 0.50905 0.36477 0.85853 0.0
H90 H 0.57813 0.42038 0.78163 0.0
O91 O 0.42786 0.4348 0.82145 0.0
O92 O 0.46891 0.46272 0.78183 0.0
O93 O 0.5558 0.54441 0.81033 0.0
C94 C 0.43085 0.42952 0.79455 0.0
H95 H 0.41655 0.72212 0.83324 0.0
H96 H 0.57912 0.27285 0.84265 0.0
H97 H 0.58918 0.52606 0.9087 0.0
H98 H 0.41736 0.51751 0.91564 0.0
Co99 Co 0.54401 0.51206 0.231 0.0
C100 C 0.62548 0.62219 0.23386 0.0
C101 C 0.55331 0.64295 0.25685 0.0
C102 C 0.58842 0.69378 0.26143 0.0
N103 N 0.57535 0.5988 0.23869 0.0
N104 N 0.63375 0.68075 0.24712 0.0
H105 H 0.65642 0.59508 0.22285 0.0
H106 H 0.51561 0.63675 0.26785 0.0
C107 C 0.44897 0.60003 0.22869 0.0
O108 O 0.47535 0.63856 0.21122 0.0
N109 N 0.51131 0.42655 0.22569 0.0
C110 C 0.52049 0.37845 0.20649 0.0
C111 C 0.48575 0.32629 0.21209 0.0
C112 C 0.47245 0.40319 0.24269 0.0
N113 N 0.45583 0.34262 0.23492 0.0
C114 C 0.5881 0.53898 0.17679 0.0
C115 C 0.49575 0.52216 0.14747 0.0
C116 C 0.54381 0.53458 0.13267 0.0
C117 C 0.59014 0.54315 0.14785 0.0
C118 C 0.49549 0.51847 0.17664 0.0
N119 N 0.54123 0.52813 0.19104 0.0
H120 H 0.62502 0.54097 0.18752 0.0
H121 H 0.45883 0.50518 0.18752 0.0
H122 H 0.54995 0.38118 0.18969 0.0
H123 H 0.45638 0.43036 0.26055 0.0
O124 O 0.61277 0.47162 0.23115 0.0
O125 O 0.56065 0.48722 0.26868 0.0
O126 O 0.47054 0.54858 0.23828 0.0
C127 C 0.60497 0.46448 0.2578 0.0
H128 H 0.58235 0.73533 0.27561 0.0
H129 H 0.48302 0.2803 0.20041 0.0
H130 H 0.459 0.5127 0.13686 0.0
H131 H 0.62832 0.55101 0.13732 0.0
H132 H 0.08513 0.0346 0.44756 0.0
C133 C 0.04605 0.04409 0.43935 0.0
H134 H 0.96543 0.06322 0.45107 0.0
H135 H 0.97779 0.92768 0.56797 0.0
H136 H 0.93067 0.84295 0.54193 0.0
H137 H 0.92065 0.852 0.49115 0.0
H138 H 0.95766 0.94586 0.4661 0.0
C139 C 1.00564 0.05563 0.45777 0.0
C140 C 1.01284 0.05048 0.48837 0.0
C141 C 0.9909 0.99533 0.50272 0.0
C142 C 0.99708 0.98982 0.53196 0.0
C143 C 0.97472 0.93412 0.54573 0.0
C144 C 0.94746 0.88515 0.53105 0.0
C145 C 0.94177 0.89029 0.50247 0.0
C146 C 0.96315 0.94454 0.48836 0.0
H147 H 0.98036 0.10382 0.59082 0.0
C148 C 1.00631 0.06421 0.597 0.0
H149 H 0.0612 0.99177 0.58253 0.0
H150 H 0.05633 0.16486 0.46766 0.0
H151 H 0.10431 0.24911 0.49365 0.0
H152 H 0.11733 0.23787 0.54412 0.0
H153 H 0.08198 0.14264 0.56899 0.0
C154 C 0.03404 0.03059 0.57711 0.0
C155 C 0.02501 0.03957 0.54687 0.0
C156 C 0.04657 0.09505 0.5326 0.0
C157 C 0.04011 0.10078 0.50334 0.0
C158 C 0.06101 0.15739 0.48973 0.0
C159 C 0.08848 0.20621 0.50442 0.0
C160 C 0.09573 0.19993 0.53285 0.0
C161 C 0.07515 0.1451 0.54688 0.0
H162 H 0.58899 0.53261 0.0925 0.0
C163 C 0.54893 0.53415 0.10167 0.0
H164 H 0.4673 0.54039 0.09194 0.0
H165 H 0.52467 0.65177 0.97121 0.0
H166 H 0.49404 0.75177 0.99477 0.0
H167 H 0.47372 0.7529 0.04533 0.0
H168 H 0.48423 0.65406 0.07269 0.0
C169 C 0.50799 0.53516 0.08421 0.0
C170 C 0.51789 0.53326 0.05342 0.0
C171 C 0.51044 0.59096 0.03761 0.0
C172 C 0.52124 0.58996 1.00834 0.0
C173 C 0.51548 0.64914 0.99331 0.0
C174 C 0.49833 0.70706 1.00661 0.0
C175 C 0.48697 0.70772 0.03509 0.0
C176 C 0.49309 0.6506 0.05053 0.0
H177 H 0.46397 0.53916 0.95779 0.0
C178 C 0.50258 0.53134 0.94752 0.0
H179 H 0.58426 0.51607 0.95501 0.0
H180 H 0.53344 0.41279 0.07719 0.0
H181 H 0.56432 0.31295 0.0537 0.0
H182 H 0.58375 0.31145 1.00306 0.0
H183 H 0.57226 0.40975 0.9756 0.0
C184 C 0.54518 0.52744 0.96378 0.0
C185 C 0.53829 0.53072 0.99477 0.0
C186 C 0.54631 0.4732 1.01065 0.0
C187 C 0.53569 0.47428 0.03994 0.0
C188 C 0.54213 0.41533 0.05505 0.0
C189 C 0.55951 0.35747 0.04179 0.0
C190 C 0.57039 0.3566 1.01327 0.0
C191 C 0.56371 0.4135 0.99776 0.0
H192 H 0.18574 0.08712 0.27824 0.0
C193 C 0.17339 0.11752 0.29609 0.0
H194 H 0.19196 0.20143 0.32085 0.0
H195 H 0.43576 0.19674 0.28137 0.0
H196 H 0.4423 0.15458 0.32827 0.0
H197 H 0.36147 0.12738 0.35629 0.0
H198 H 0.27365 0.14199 0.33757 0.0
C199 C 0.20264 0.17089 0.3028 0.0
C200 C 0.25121 0.18841 0.28596 0.0
C201 C 0.30212 0.18024 0.29733 0.0
C202 C 0.34868 0.19674 0.28133 0.0
C203 C 0.3991 0.18657 0.29292 0.0
C204 C 0.40341 0.16196 0.31972 0.0
C205 C 0.35791 0.14656 0.33548 0.0
C206 C 0.30775 0.15528 0.3245 0.0
H207 H 0.39755 0.32826 0.26851 0.0
C208 C 0.41386 0.30687 0.24921 0.0
H209 H 0.40492 0.22966 0.21947 0.0
H210 H 0.15955 0.21277 0.25817 0.0
H211 H 0.15338 0.25302 0.21109 0.0
H212 H 0.23431 0.27924 0.18303 0.0
H213 H 0.32196 0.26558 0.20199 0.0
C214 C 0.39183 0.25091 0.23933 0.0
C215 C 0.3442 0.22259 0.25417 0.0
C216 C 0.29338 0.22864 0.24244 0.0
C217 C 0.24675 0.21238 0.25846 0.0
C218 C 0.19638 0.22235 0.24671 0.0
C219 C 0.19222 0.24596 0.21975 0.0
C220 C 0.23777 0.26083 0.20396 0.0
C221 C 0.28785 0.25273 0.21511 0.0
H222 H 0.84029 0.17135 0.29359 0.0
C223 C 0.87251 0.201 0.30204 0.0
H224 H 0.89796 0.2932 0.31729 0.0
H225 H 0.75654 0.47428 0.24595 0.0
H226 H 0.84613 0.51097 0.23386 0.0
H227 H 0.92391 0.45208 0.25102 0.0
H228 H 0.9127 0.35682 0.28045 0.0
C229 C 0.86521 0.26529 0.30843 0.0
C230 C 0.81768 0.30229 0.29943 0.0
C231 C 0.82527 0.35764 0.28176 0.0
C232 C 0.78054 0.39043 0.27112 0.0
C233 C 0.78914 0.44639 0.25401 0.0
C234 C 0.84037 0.46822 0.24697 0.0
C235 C 0.88412 0.43518 0.2567 0.0
C236 C 0.87697 0.38051 0.27378 0.0
H237 H 0.64251 0.43656 0.29721 0.0
C238 C 0.64468 0.4313 0.27465 0.0
H239 H 0.68533 0.39076 0.23957 0.0
H240 H 0.78855 0.20859 0.33777 0.0
H241 H 0.69876 0.16988 0.34866 0.0
H242 H 0.62166 0.21876 0.32609 0.0
H243 H 0.63372 0.3078 0.29316 0.0
C244 C 0.68328 0.39512 0.26217 0.0
C245 C 0.72836 0.36681 0.27735 0.0
C246 C 0.72055 0.31296 0.2957 0.0
C247 C 0.76526 0.28205 0.30745 0.0
C248 C 0.75624 0.23132 0.3271 0.0
C249 C 0.70488 0.20907 0.33373 0.0
C250 C 0.66145 0.23678 0.32111 0.0
C251 C 0.66894 0.28812 0.30231 0.0
H252 H 0.679 0.76501 0.26231 0.0
C253 C 0.6812 0.72056 0.24928 0.0
H254 H 0.73285 0.6603 0.22452 0.0
H255 H 0.83432 0.96522 0.2508 0.0
H256 H 0.76939 1.00311 0.21839 0.0
H257 H 0.70821 0.92425 0.19568 0.0
H258 H 0.71109 0.80683 0.20581 0.0
C259 C 0.7281 0.70523 0.2369 0.0
C260 C 0.77541 0.74766 0.24277 0.0
C261 C 0.77572 0.81529 0.23529 0.0
C262 C 0.81266 0.86019 0.2474 0.0
C263 C 0.80884 0.92835 0.24138 0.0
C264 C 0.77145 0.9509 0.22291 0.0
C265 C 0.73688 0.90655 0.21019 0.0
C266 C 0.73872 0.83949 0.21629 0.0
H267 H 0.9306 0.91552 0.24656 0.0
C268 C 0.9247 0.91859 0.26905 0.0
H269 H 0.88141 0.88353 0.30414 0.0
H270 H 0.79064 0.61936 0.25788 0.0
H271 H 0.86002 0.57939 0.28743 0.0
H272 H 0.92703 0.6561 0.30662 0.0
H273 H 0.92461 0.7735 0.29683 0.0
C274 C 0.88565 0.88317 0.28154 0.0
C275 C 0.85108 0.83646 0.26584 0.0
C276 C 0.85411 0.76768 0.27103 0.0
C277 C 0.81609 0.72322 0.25954 0.0
C278 C 0.81877 0.65518 0.26593 0.0
C279 C 0.85845 0.63155 0.28278 0.0
C280 C 0.89614 0.67478 0.29364 0.0
C281 C 0.89418 0.74208 0.28793 0.0
H282 H 0.17316 0.83298 0.26754 0.0
C283 C 0.15983 0.81405 0.28769 0.0
H284 H 0.17646 0.74639 0.31944 0.0
H285 H 0.30492 0.62736 0.20616 0.0
H286 H 0.21715 0.59347 0.19111 0.0
H287 H 0.1366 0.62429 0.21862 0.0
H288 H 0.1433 0.68945 0.26128 0.0
C289 C 0.18636 0.76385 0.29865 0.0
C290 C 0.23475 0.73797 0.2839 0.0
C291 C 0.23016 0.69879 0.25935 0.0
C292 C 0.27663 0.67996 0.24378 0.0
C293 C 0.27092 0.64213 0.21899 0.0
C294 C 0.22079 0.62251 0.21009 0.0
C295 C 0.17543 0.63997 0.22555 0.0
C296 C 0.17981 0.67762 0.24992 0.0
H297 H 0.37485 0.58349 0.25319 0.0
C298 C 0.39631 0.61893 0.24014 0.0
H299 H 0.3985 0.71705 0.22552 0.0
H300 H 0.25747 0.81087 0.33066 0.0
H301 H 0.34529 0.84276 0.34618 0.0
H302 H 0.42595 0.80928 0.31938 0.0
H303 H 0.4193 0.74393 0.27683 0.0
C304 C 0.37639 0.67958 0.23715 0.0
C305 C 0.32753 0.69963 0.25303 0.0
C306 C 0.33218 0.73761 0.2779 0.0
C307 C 0.28572 0.75656 0.29342 0.0
C308 C 0.29147 0.79491 0.3181 0.0
C309 C 0.34164 0.81354 0.32725 0.0
C310 C 0.38705 0.79471 0.31216 0.0
C311 C 0.38265 0.75721 0.28776 0.0
H312 H 0.33102 0.65627 0.77312 0.0
C313 C 0.34155 0.67345 0.79383 0.0
H314 H 0.323 0.73748 0.82753 0.0
H315 H 0.21077 0.96203 0.76358 0.0
H316 H 0.28754 0.01897 0.78217 0.0
H317 H 0.35791 0.9572 0.80507 0.0
H318 H 0.35156 0.83833 0.80986 0.0
C319 C 0.3128 0.72126 0.80667 0.0
C320 C 0.26997 0.75759 0.79252 0.0
C321 C 0.27444 0.82737 0.78986 0.0
C322 C 0.23417 0.86306 0.77641 0.0
C323 C 0.23994 0.93251 0.77379 0.0
C324 C 0.28399 0.96586 0.78424 0.0
C325 C 0.32352 0.93109 0.79719 0.0
C326 C 0.31917 0.86272 0.79992 0.0
H327 H 0.10821 0.90179 0.78586 0.0
C328 C 0.11084 0.90088 0.76323 0.0
H329 H 0.15141 0.86309 0.72736 0.0
H330 H 0.24397 0.62575 0.79771 0.0
H331 H 0.16832 0.56908 0.77786 0.0
H332 H 0.10169 0.6304 0.75195 0.0
H333 H 0.11017 0.74913 0.74605 0.0
C334 C 0.14921 0.86577 0.74998 0.0
C335 C 0.18972 0.82899 0.76542 0.0
C336 C 0.1851 0.75946 0.76804 0.0
C337 C 0.22458 0.72379 0.78215 0.0
C338 C 0.21689 0.65495 0.78597 0.0
C339 C 0.17318 0.62184 0.77497 0.0
C340 C 0.13561 0.65637 0.76043 0.0
C341 C 0.14106 0.72445 0.75712 0.0
H342 H 0.19975 0.16534 0.70485 0.0
C343 C 0.17689 0.18112 0.72325 0.0
H344 H 0.17478 0.24398 0.75875 0.0
H345 H 0.4307 0.26675 0.74865 0.0
H346 H 0.43343 0.1469 0.7524 0.0
H347 H 0.35154 0.07951 0.74858 0.0
H348 H 0.26656 0.131 0.74094 0.0
C349 C 0.19718 0.22794 0.74033 0.0
C350 C 0.24855 0.26383 0.73516 0.0
C351 C 0.29787 0.2324 0.73942 0.0
C352 C 0.34506 0.2713 0.74221 0.0
C353 C 0.39374 0.23924 0.74682 0.0
C354 C 0.39583 0.17069 0.74893 0.0
C355 C 0.34969 0.13274 0.74676 0.0
C356 C 0.30112 0.16296 0.74225 0.0
H357 H 0.36326 0.36087 0.79355 0.0
C358 C 0.39144 0.38781 0.78024 0.0
H359 H 0.41323 0.40993 0.73843 0.0
H360 H 0.16269 0.33844 0.72252 0.0
H361 H 0.16085 0.45818 0.71846 0.0
H362 H 0.24239 0.52532 0.72445 0.0
H363 H 0.32648 0.4731 0.73428 0.0
C364 C 0.38719 0.38219 0.75252 0.0
C365 C 0.34268 0.34124 0.74136 0.0
C366 C 0.29452 0.37205 0.73459 0.0
C367 C 0.24744 0.33333 0.73146 0.0
C368 C 0.19945 0.3657 0.72548 0.0
C369 C 0.19791 0.43426 0.72299 0.0
C370 C 0.24385 0.47207 0.72632 0.0
C371 C 0.29174 0.44158 0.73204 0.0
H372 H 0.87724 0.12947 0.7564 0.0
C373 C 0.866 0.10522 0.73704 0.0
H374 H 0.80324 0.08546 0.70963 0.0
H375 H 0.62432 0.13587 0.80274 0.0
H376 H 0.61765 0.01699 0.79625 0.0
H377 H 0.68346 0.95689 0.76676 0.0
H378 H 0.75587 0.01549 0.74321 0.0
C379 C 0.8161 0.1117 0.72821 0.0
C380 C 0.77582 0.14881 0.7454 0.0
C381 C 0.7337 0.11388 0.75906 0.0
C382 C 0.69643 0.14841 0.77658 0.0
C383 C 0.65433 0.11217 0.7896 0.0
C384 C 0.64992 0.04386 0.786 0.0
C385 C 0.68691 1.01003 0.76936 0.0
C386 C 0.72829 0.04435 0.75594 0.0
H387 H 0.63619 0.31576 0.76782 0.0
C388 C 0.63114 0.30103 0.78944 0.0
H389 H 0.65787 0.23784 0.82067 0.0
H390 H 0.84836 0.23179 0.72004 0.0
H391 H 0.85903 0.34949 0.72888 0.0
H392 H 0.79994 0.40765 0.76273 0.0
H393 H 0.72921 0.34889 0.78743 0.0
C394 C 0.66228 0.25332 0.79918 0.0
C395 C 0.70168 0.2178 0.78072 0.0
C396 C 0.74467 0.25252 0.76752 0.0
C397 C 0.78072 0.2183 0.7492 0.0
C398 C 0.82124 0.2548 0.73502 0.0
C399 C 0.82765 0.32247 0.73979 0.0
C400 C 0.79424 0.35526 0.75875 0.0
C401 C 0.75334 0.32095 0.77259 0.0
H402 H 0.64539 0.60709 0.79982 0.0
C403 C 0.61557 0.61235 0.78403 0.0
H404 H 0.59847 0.65222 0.7449 0.0
H405 H 0.81298 0.82262 0.78652 0.0
H406 H 0.7552 0.86743 0.82309 0.0
H407 H 0.66243 0.82803 0.82888 0.0
H408 H 0.62736 0.74231 0.79848 0.0
C409 C 0.62726 0.64837 0.76127 0.0
C410 C 0.68144 0.67771 0.75619 0.0
C411 C 0.70067 0.72997 0.77334 0.0
C412 C 0.75325 0.75558 0.7689 0.0
C413 C 0.77253 0.8041 0.78776 0.0
C414 C 0.73992 0.82979 0.8091 0.0
C415 C 0.68776 0.8074 0.81244 0.0
C416 C 0.66822 0.75791 0.79491 0.0
H417 H 0.81677 0.8577 0.73608 0.0
C418 C 0.84952 0.82297 0.7347 0.0
H419 H 0.87303 0.72426 0.73941 0.0
H420 H 0.65732 0.57747 0.71962 0.0
H421 H 0.71283 0.53735 0.6811 0.0
H422 H 0.80145 0.58655 0.67139 0.0
H423 H 0.83538 0.67558 0.70029 0.0
C424 C 0.8403 0.75889 0.74055 0.0
C425 C 0.78545 0.73175 0.74618 0.0
C426 C 0.76561 0.68047 0.72867 0.0
C427 C 0.7139 0.65312 0.73384 0.0
C428 C 0.69586 0.60086 0.7164 0.0
C429 C 0.72736 0.5772 0.69422 0.0
C430 C 0.77728 0.60482 0.68879 0.0
C431 C 0.79635 0.65584 0.70568 0.0
loop_
_geom_bond_atom_site_label_1
_geom_bond_atom_site_label_2
_geom_bond_distance
_geom_bond_site_symmetry_2
_ccdc_geom_bond_type
Co0 N4 2.148 1_465 S
Co0 N10 2.128 . S
Co0 N20 2.194 1_465 S
Co0 O25 2.351 1_455 S
Co0 O26 2.155 1_455 S
Co0 O27 2.096 1_565 S
C1 N4 1.301 . S
C1 N5 1.328 . S
C1 H6 0.930 . S
C2 C3 1.333 . S
C2 N4 1.317 . S
C2 H7 0.930 . S
C3 C2 1.333 . S
C3 N5 1.350 . S
C3 H29 0.931 . S
N4 Co0 2.148 1_645 S
N4 C1 1.301 . S
N4 C2 1.317 . S
N5 C1 1.328 . S
N5 C3 1.350 . S
H6 C1 0.930 . S
H7 C2 0.930 . S
C8 O9 1.224 . S
C8 O27 1.247 . S
O9 C8 1.224 . S
N10 Co0 2.128 . S
N10 C11 1.355 . S
N10 C13 1.311 . S
C11 N10 1.355 . S
C11 C12 1.363 . S
C11 H23 0.929 . S
C12 C11 1.363 . S
C12 N14 1.375 . S
C12 H30 0.931 . S
C13 N10 1.311 . S
C13 N14 1.347 . S
C13 H24 0.929 . S
N14 C12 1.375 . S
N14 C13 1.347 . S
C15 C18 1.365 . S
C15 N20 1.327 1_565 S
C15 H21 0.929 . S
C16 C17 1.362 . S
C16 C19 1.378 . S
C16 H31 0.929 . S
C17 C16 1.362 . S
C17 C18 1.366 1_445 S
C18 C15 1.365 . S
C18 C17 1.366 1_665 S
C18 H32 0.930 . S
C19 C16 1.378 . S
C19 N20 1.317 1_455 S
C19 H22 0.930 . S
N20 Co0 2.194 1_645 S
N20 C15 1.327 1_545 S
N20 C19 1.317 1_655 S
H21 C15 0.929 . S
H22 C19 0.930 . S
H23 C11 0.929 . S
H24 C13 0.929 . S
O25 Co0 2.351 1_655 S
O25 C28 1.244 . S
O26 Co0 2.155 1_655 S
O26 C28 1.240 . S
O27 Co0 2.096 1_545 S
O27 C8 1.247 . S
C28 O25 1.244 . S
C28 O26 1.240 . S
H29 C3 0.931 . S
H30 C12 0.931 . S
H31 C16 0.929 . S
H32 C18 0.930 . S
Co33 N37 2.148 1_565 S
Co33 N43 2.128 1_455 S
Co33 N53 2.194 1_565 S
Co33 O58 2.351 . S
Co33 O59 2.155 . S
Co33 O60 2.096 1_465 S
C34 N37 1.301 . S
C34 N38 1.328 . S
C34 H39 0.930 . S
C35 C36 1.333 . S
C35 N37 1.317 . S
C35 H40 0.930 . S
C36 C35 1.333 . S
C36 N38 1.350 . S
C36 H62 0.931 . S
N37 Co33 2.148 1_545 S
N37 C34 1.301 . S
N37 C35 1.317 . S
N38 C34 1.328 . S
N38 C36 1.350 . S
H39 C34 0.930 . S
H40 C35 0.930 . S
C41 O42 1.224 . S
C41 O60 1.247 . S
O42 C41 1.224 . S
N43 Co33 2.128 1_655 S
N43 C44 1.355 . S
N43 C46 1.311 . S
C44 N43 1.355 . S
C44 C45 1.363 . S
C44 H56 0.929 . S
C45 C44 1.363 . S
C45 N47 1.375 . S
C45 H63 0.931 . S
C46 N43 1.311 . S
C46 N47 1.347 . S
C46 H57 0.929 . S
N47 C45 1.375 . S
N47 C46 1.347 . S
C48 C51 1.365 . S
C48 N53 1.328 1_565 S
C48 H54 0.929 . S
C49 C50 1.362 1_655 S
C49 C52 1.378 . S
C49 H64 0.929 . S
C50 C49 1.362 1_455 S
C50 C51 1.366 1_545 S
C51 C48 1.365 . S
C51 C50 1.366 1_565 S
C51 H65 0.930 . S
C52 C49 1.378 . S
C52 N53 1.315 1_655 S
C52 H55 0.930 . S
N53 Co33 2.194 1_545 S
N53 C48 1.328 1_545 S
N53 C52 1.315 1_455 S
H54 C48 0.929 . S
H55 C52 0.930 . S
H56 C44 0.929 . S
H57 C46 0.929 . S
O58 Co33 2.351 . S
O58 C61 1.244 . S
O59 Co33 2.155 . S
O59 C61 1.240 . S
O60 Co33 2.096 1_645 S
O60 C41 1.247 . S
C61 O58 1.244 . S
C61 O59 1.240 . S
H62 C36 0.931 . S
H63 C45 0.931 . S
H64 C49 0.929 . S
H65 C51 0.930 . S
Co66 N70 2.148 . S
Co66 N76 2.128 . S
Co66 N86 2.194 . S
Co66 O91 2.351 . S
Co66 O92 2.155 . S
Co66 O93 2.096 . S
C67 N70 1.301 . S
C67 N71 1.328 . S
C67 H72 0.930 . S
C68 C69 1.333 . S
C68 N70 1.317 . S
C68 H73 0.930 . S
C69 C68 1.333 . S
C69 N71 1.350 . S
C69 H95 0.931 . S
N70 Co66 2.148 . S
N70 C67 1.301 . S
N70 C68 1.317 . S
N71 C67 1.328 . S
N71 C69 1.350 . S
H72 C67 0.930 . S
H73 C68 0.930 . S
C74 O75 1.224 . S
C74 O93 1.247 . S
O75 C74 1.224 . S
N76 Co66 2.128 . S
N76 C77 1.355 . S
N76 C79 1.311 . S
C77 N76 1.355 . S
C77 C78 1.363 . S
C77 H89 0.929 . S
C78 C77 1.363 . S
C78 N80 1.375 . S
C78 H96 0.931 . S
C79 N76 1.311 . S
C79 N80 1.347 . S
C79 H90 0.929 . S
N80 C78 1.375 . S
N80 C79 1.347 . S
C81 C84 1.365 . S
C81 N86 1.328 . S
C81 H87 0.929 . S
C82 C83 1.362 . S
C82 C85 1.378 . S
C82 H97 0.929 . S
C83 C82 1.362 . S
C83 C84 1.366 . S
C84 C81 1.365 . S
C84 C83 1.366 . S
C84 H98 0.930 . S
C85 C82 1.378 . S
C85 N86 1.315 . S
C85 H88 0.930 . S
N86 Co66 2.194 . S
N86 C81 1.328 . S
N86 C85 1.315 . S
H87 C81 0.929 . S
H88 C85 0.930 . S
H89 C77 0.929 . S
H90 C79 0.929 . S
O91 Co66 2.351 . S
O91 C94 1.244 . S
O92 Co66 2.155 . S
O92 C94 1.240 . S
O93 Co66 2.096 . S
O93 C74 1.247 . S
C94 O91 1.244 . S
C94 O92 1.240 . S
H95 C69 0.931 . S
H96 C78 0.931 . S
H97 C82 0.929 . S
H98 C84 0.930 . S
Co99 N103 2.148 . S
Co99 N109 2.128 . S
Co99 N119 2.194 . S
Co99 O124 2.351 . S
Co99 O125 2.155 . S
Co99 O126 2.096 . S
C100 N103 1.301 . S
C100 N104 1.328 . S
C100 H105 0.930 . S
C101 C102 1.333 . S
C101 N103 1.317 . S
C101 H106 0.930 . S
C102 C101 1.333 . S
C102 N104 1.350 . S
C102 H128 0.931 . S
N103 Co99 2.148 . S
N103 C100 1.301 . S
N103 C101 1.317 . S
N104 C100 1.328 . S
N104 C102 1.350 . S
H105 C100 0.930 . S
H106 C101 0.930 . S
C107 O108 1.224 . S
C107 O126 1.247 . S
O108 C107 1.224 . S
N109 Co99 2.128 . S
N109 C110 1.355 . S
N109 C112 1.311 . S
C110 N109 1.355 . S
C110 C111 1.363 . S
C110 H122 0.929 . S
C111 C110 1.363 . S
C111 N113 1.375 . S
C111 H129 0.931 . S
C112 N109 1.311 . S
C112 N113 1.347 . S
C112 H123 0.929 . S
N113 C111 1.375 . S
N113 C112 1.347 . S
C114 C117 1.365 . S
C114 N119 1.328 . S
C114 H120 0.929 . S
C115 C116 1.362 . S
C115 C118 1.378 . S
C115 H130 0.929 . S
C116 C115 1.362 . S
C116 C117 1.366 . S
C117 C114 1.365 . S
C117 C116 1.366 . S
C117 H131 0.930 . S
C118 C115 1.378 . S
C118 N119 1.315 . S
C118 H121 0.930 . S
N119 Co99 2.194 . S
N119 C114 1.328 . S
N119 C118 1.315 . S
H120 C114 0.929 . S
H121 C118 0.930 . S
H122 C110 0.929 . S
H123 C112 0.929 . S
O124 Co99 2.351 . S
O124 C127 1.244 . S
O125 Co99 2.155 . S
O125 C127 1.240 . S
O126 Co99 2.096 . S
O126 C107 1.247 . S
C127 O124 1.244 . S
C127 O125 1.240 . S
H128 C102 0.931 . S
H129 C111 0.931 . S
H130 C115 0.929 . S
H131 C117 0.930 . S
H132 C133 0.951 . S
C133 H132 0.951 . S
C133 C139 1.264 1_445 S
H134 C139 0.952 . S
H135 C143 0.949 . S
H136 C144 0.950 . S
H137 C145 0.951 . S
H138 C146 0.951 . S
C139 C133 1.264 1_665 S
C139 H134 0.952 . S
C139 C140 1.478 1_565 S
C140 C139 1.478 1_545 S
C140 C141 1.397 1_545 S
C140 C157 1.394 1_655 S
C141 C140 1.397 1_565 S
C141 C142 1.438 . S
C141 C146 1.429 . S
C142 C141 1.438 . S
C142 C143 1.428 . S
C142 C155 1.394 1_665 S
C143 H135 0.949 . S
C143 C142 1.428 . S
C143 C144 1.345 . S
C144 H136 0.950 . S
C144 C143 1.345 . S
C144 C145 1.424 . S
C145 H137 0.951 . S
C145 C144 1.424 . S
C145 C146 1.347 . S
C146 H138 0.951 . S
C146 C141 1.429 . S
C146 C145 1.347 . S
H147 C148 0.951 1_565 S
C148 H147 0.951 1_545 S
C148 C154 1.265 1_655 S
H149 C154 0.950 . S
H150 C158 0.949 . S
H151 C159 0.950 . S
H152 C160 0.951 . S
H153 C161 0.951 . S
C154 C148 1.265 1_455 S
C154 H149 0.950 . S
C154 C155 1.478 . S
C155 C142 1.394 1_445 S
C155 C154 1.478 . S
C155 C156 1.397 . S
C156 C155 1.397 . S
C156 C157 1.438 . S
C156 C161 1.429 . S
C157 C140 1.394 1_455 S
C157 C156 1.438 . S
C157 C158 1.428 . S
C158 H150 0.949 . S
C158 C157 1.428 . S
C158 C159 1.345 . S
C159 H151 0.950 . S
C159 C158 1.345 . S
C159 C160 1.424 . S
C160 H152 0.951 . S
C160 C159 1.424 . S
C160 C161 1.347 . S
C161 H153 0.951 . S
C161 C156 1.429 . S
C161 C160 1.347 . S
H162 C163 0.951 . S
C163 H162 0.951 . S
C163 C169 1.265 . S
H164 C169 0.950 . S
H165 C173 0.949 . S
H166 C174 0.950 . S
H167 C175 0.951 . S
H168 C176 0.951 . S
C169 C163 1.265 . S
C169 H164 0.950 . S
C169 C170 1.478 . S
C170 C169 1.478 . S
C170 C171 1.397 . S
C170 C187 1.394 . S
C171 C170 1.397 . S
C171 C172 1.438 1_554 S
C171 C176 1.429 . S
C172 C171 1.438 1_556 S
C172 C173 1.428 . S
C172 C185 1.394 . S
C173 H165 0.949 . S
C173 C172 1.428 . S
C173 C174 1.345 . S
C174 H166 0.950 . S
C174 C173 1.345 . S
C174 C175 1.424 1_556 S
C175 H167 0.951 . S
C175 C174 1.424 1_554 S
C175 C176 1.347 . S
C176 H168 0.951 . S
C176 C171 1.429 . S
C176 C175 1.347 . S
H177 C178 0.951 . S
C178 H177 0.951 . S
C178 C184 1.265 . S
H179 C184 0.950 . S
H180 C188 0.949 . S
H181 C189 0.950 . S
H182 C190 0.951 . S
H183 C191 0.951 . S
C184 C178 1.265 . S
C184 H179 0.950 . S
C184 C185 1.478 . S
C185 C172 1.394 . S
C185 C184 1.478 . S
C185 C186 1.397 . S
C186 C185 1.397 . S
C186 C187 1.438 1_556 S
C186 C191 1.429 . S
C187 C170 1.394 . S
C187 C186 1.438 1_554 S
C187 C188 1.428 . S
C188 H180 0.949 . S
C188 C187 1.428 . S
C188 C189 1.345 . S
C189 H181 0.950 . S
C189 C188 1.345 . S
C189 C190 1.424 1_554 S
C190 H182 0.951 . S
C190 C189 1.424 1_556 S
C190 C191 1.347 . S
C191 H183 0.951 . S
C191 C186 1.429 . S
C191 C190 1.347 . S
H192 C193 0.951 . S
C193 H192 0.951 . S
C193 C199 1.265 . S
H194 C199 0.950 . S
H195 C203 0.949 . S
H196 C204 0.950 . S
H197 C205 0.951 . S
H198 C206 0.951 . S
C199 C193 1.265 . S
C199 H194 0.950 . S
C199 C200 1.478 . S
C200 C199 1.478 . S
C200 C201 1.397 . S
C200 C217 1.394 . S
C201 C200 1.397 . S
C201 C202 1.438 . S
C201 C206 1.429 . S
C202 C201 1.438 . S
C202 C203 1.428 . S
C202 C215 1.394 . S
C203 H195 0.949 . S
C203 C202 1.428 . S
C203 C204 1.345 . S
C204 H196 0.950 . S
C204 C203 1.345 . S
C204 C205 1.424 . S
C205 H197 0.951 . S
C205 C204 1.424 . S
C205 C206 1.347 . S
C206 H198 0.951 . S
C206 C201 1.429 . S
C206 C205 1.347 . S
H207 C208 0.951 . S
C208 H207 0.951 . S
C208 C214 1.265 . S
H209 C214 0.950 . S
H210 C218 0.949 . S
H211 C219 0.950 . S
H212 C220 0.951 . S
H213 C221 0.951 . S
C214 C208 1.265 . S
C214 H209 0.950 . S
C214 C215 1.478 . S
C215 C202 1.394 . S
C215 C214 1.478 . S
C215 C216 1.397 . S
C216 C215 1.397 . S
C216 C217 1.438 . S
C216 C221 1.429 . S
C217 C200 1.394 . S
C217 C216 1.438 . S
C217 C218 1.428 . S
C218 H210 0.949 . S
C218 C217 1.428 . S
C218 C219 1.345 . S
C219 H211 0.950 . S
C219 C218 1.345 . S
C219 C220 1.424 . S
C220 H212 0.951 . S
C220 C219 1.424 . S
C220 C221 1.347 . S
C221 H213 0.951 . S
C221 C216 1.429 . S
C221 C220 1.347 . S
H222 C223 0.951 . S
C223 H222 0.951 . S
C223 C229 1.265 . S
H224 C229 0.950 . S
H225 C233 0.949 . S
H226 C234 0.950 . S
H227 C235 0.951 . S
H228 C236 0.951 . S
C229 C223 1.265 . S
C229 H224 0.950 . S
C229 C230 1.478 . S
C230 C229 1.478 . S
C230 C231 1.397 . S
C230 C247 1.394 . S
C231 C230 1.397 . S
C231 C232 1.438 . S
C231 C236 1.429 . S
C232 C231 1.438 . S
C232 C233 1.428 . S
C232 C245 1.394 . S
C233 H225 0.949 . S
C233 C232 1.428 . S
C233 C234 1.345 . S
C234 H226 0.950 . S
C234 C233 1.345 . S
C234 C235 1.424 . S
C235 H227 0.951 . S
C235 C234 1.424 . S
C235 C236 1.347 . S
C236 H228 0.951 . S
C236 C231 1.429 . S
C236 C235 1.347 . S
H237 C238 0.951 . S
C238 H237 0.951 . S
C238 C244 1.265 . S
H239 C244 0.950 . S
H240 C248 0.949 . S
H241 C249 0.950 . S
H242 C250 0.951 . S
H243 C251 0.951 . S
C244 C238 1.265 . S
C244 H239 0.950 . S
C244 C245 1.478 . S
C245 C232 1.394 . S
C245 C244 1.478 . S
C245 C246 1.397 . S
C246 C245 1.397 . S
C246 C247 1.438 . S
C246 C251 1.429 . S
C247 C230 1.394 . S
C247 C246 1.438 . S
C247 C248 1.428 . S
C248 H240 0.949 . S
C248 C247 1.428 . S
C248 C249 1.345 . S
C249 H241 0.950 . S
C249 C248 1.345 . S
C249 C250 1.424 . S
C250 H242 0.951 . S
C250 C249 1.424 . S
C250 C251 1.347 . S
C251 H243 0.951 . S
C251 C246 1.429 . S
C251 C250 1.347 . S
H252 C253 0.951 . S
C253 H252 0.951 . S
C253 C259 1.265 . S
H254 C259 0.950 . S
H255 C263 0.949 . S
H256 C264 0.950 . S
H257 C265 0.951 . S
H258 C266 0.951 . S
C259 C253 1.265 . S
C259 H254 0.950 . S
C259 C260 1.478 . S
C260 C259 1.478 . S
C260 C261 1.397 . S
C260 C277 1.394 . S
C261 C260 1.397 . S
C261 C262 1.438 . S
C261 C266 1.429 . S
C262 C261 1.438 . S
C262 C263 1.428 . S
C262 C275 1.394 . S
C263 H255 0.949 . S
C263 C262 1.428 . S
C263 C264 1.345 . S
C264 H256 0.950 . S
C264 C263 1.345 . S
C264 C265 1.424 . S
C265 H257 0.951 . S
C265 C264 1.424 . S
C265 C266 1.347 . S
C266 H258 0.951 . S
C266 C261 1.429 . S
C266 C265 1.347 . S
H267 C268 0.951 . S
C268 H267 0.951 . S
C268 C274 1.265 . S
H269 C274 0.950 . S
H270 C278 0.949 . S
H271 C279 0.950 . S
H272 C280 0.951 . S
H273 C281 0.951 . S
C274 C268 1.265 . S
C274 H269 0.950 . S
C274 C275 1.478 . S
C275 C262 1.394 . S
C275 C274 1.478 . S
C275 C276 1.397 . S
C276 C275 1.397 . S
C276 C277 1.438 . S
C276 C281 1.429 . S
C277 C260 1.394 . S
C277 C276 1.438 . S
C277 C278 1.428 . S
C278 H270 0.949 . S
C278 C277 1.428 . S
C278 C279 1.345 . S
C279 H271 0.950 . S
C279 C278 1.345 . S
C279 C280 1.424 . S
C280 H272 0.951 . S
C280 C279 1.424 . S
C280 C281 1.347 . S
C281 H273 0.951 . S
C281 C276 1.429 . S
C281 C280 1.347 . S
H282 C283 0.951 . S
C283 H282 0.951 . S
C283 C289 1.265 . S
H284 C289 0.950 . S
H285 C293 0.949 . S
H286 C294 0.950 . S
H287 C295 0.951 . S
H288 C296 0.951 . S
C289 C283 1.265 . S
C289 H284 0.950 . S
C289 C290 1.478 . S
C290 C289 1.478 . S
C290 C291 1.397 . S
C290 C307 1.394 . S
C291 C290 1.397 . S
C291 C292 1.438 . S
C291 C296 1.429 . S
C292 C291 1.438 . S
C292 C293 1.428 . S
C292 C305 1.394 . S
C293 H285 0.949 . S
C293 C292 1.428 . S
C293 C294 1.345 . S
C294 H286 0.950 . S
C294 C293 1.345 . S
C294 C295 1.424 . S
C295 H287 0.951 . S
C295 C294 1.424 . S
C295 C296 1.347 . S
C296 H288 0.951 . S
C296 C291 1.429 . S
C296 C295 1.347 . S
H297 C298 0.951 . S
C298 H297 0.951 . S
C298 C304 1.265 . S
H299 C304 0.950 . S
H300 C308 0.949 . S
H301 C309 0.950 . S
H302 C310 0.951 . S
H303 C311 0.951 . S
C304 C298 1.265 . S
C304 H299 0.950 . S
C304 C305 1.478 . S
C305 C292 1.394 . S
C305 C304 1.478 . S
C305 C306 1.397 . S
C306 C305 1.397 . S
C306 C307 1.438 . S
C306 C311 1.429 . S
C307 C290 1.394 . S
C307 C306 1.438 . S
C307 C308 1.428 . S
C308 H300 0.949 . S
C308 C307 1.428 . S
C308 C309 1.345 . S
C309 H301 0.950 . S
C309 C308 1.345 . S
C309 C310 1.424 . S
C310 H302 0.951 . S
C310 C309 1.424 . S
C310 C311 1.347 . S
C311 H303 0.951 . S
C311 C306 1.429 . S
C311 C310 1.347 . S
H312 C313 0.951 . S
C313 H312 0.951 . S
C313 C319 1.265 . S
H314 C319 0.950 . S
H315 C323 0.949 . S
H316 C324 0.950 . S
H317 C325 0.951 . S
H318 C326 0.951 . S
C319 C313 1.265 . S
C319 H314 0.950 . S
C319 C320 1.478 . S
C320 C319 1.478 . S
C320 C321 1.397 . S
C320 C337 1.394 . S
C321 C320 1.397 . S
C321 C322 1.438 . S
C321 C326 1.429 . S
C322 C321 1.438 . S
C322 C323 1.428 . S
C322 C335 1.394 . S
C323 H315 0.949 . S
C323 C322 1.428 . S
C323 C324 1.345 . S
C324 H316 0.950 . S
C324 C323 1.345 . S
C324 C325 1.424 . S
C325 H317 0.951 . S
C325 C324 1.424 . S
C325 C326 1.347 . S
C326 H318 0.951 . S
C326 C321 1.429 . S
C326 C325 1.347 . S
H327 C328 0.951 . S
C328 H327 0.951 . S
C328 C334 1.265 . S
H329 C334 0.950 . S
H330 C338 0.949 . S
H331 C339 0.950 . S
H332 C340 0.951 . S
H333 C341 0.951 . S
C334 C328 1.265 . S
C334 H329 0.950 . S
C334 C335 1.478 . S
C335 C322 1.394 . S
C335 C334 1.478 . S
C335 C336 1.397 . S
C336 C335 1.397 . S
C336 C337 1.438 . S
C336 C341 1.429 . S
C337 C320 1.394 . S
C337 C336 1.438 . S
C337 C338 1.428 . S
C338 H330 0.949 . S
C338 C337 1.428 . S
C338 C339 1.345 . S
C339 H331 0.950 . S
C339 C338 1.345 . S
C339 C340 1.424 . S
C340 H332 0.951 . S
C340 C339 1.424 . S
C340 C341 1.347 . S
C341 H333 0.951 . S
C341 C336 1.429 . S
C341 C340 1.347 . S
H342 C343 0.951 . S
C343 H342 0.951 . S
C343 C349 1.265 . S
H344 C349 0.950 . S
H345 C353 0.949 . S
H346 C354 0.950 . S
H347 C355 0.951 . S
H348 C356 0.951 . S
C349 C343 1.265 . S
C349 H344 0.950 . S
C349 C350 1.478 . S
C350 C349 1.478 . S
C350 C351 1.397 . S
C350 C367 1.394 . S
C351 C350 1.397 . S
C351 C352 1.438 . S
C351 C356 1.429 . S
C352 C351 1.438 . S
C352 C353 1.428 . S
C352 C365 1.394 . S
C353 H345 0.949 . S
C353 C352 1.428 . S
C353 C354 1.345 . S
C354 H346 0.950 . S
C354 C353 1.345 . S
C354 C355 1.424 . S
C355 H347 0.951 . S
C355 C354 1.424 . S
C355 C356 1.347 . S
C356 H348 0.951 . S
C356 C351 1.429 . S
C356 C355 1.347 . S
H357 C358 0.951 . S
C358 H357 0.951 . S
C358 C364 1.265 . S
H359 C364 0.950 . S
H360 C368 0.949 . S
H361 C369 0.950 . S
H362 C370 0.951 . S
H363 C371 0.951 . S
C364 C358 1.265 . S
C364 H359 0.950 . S
C364 C365 1.478 . S
C365 C352 1.394 . S
C365 C364 1.478 . S
C365 C366 1.397 . S
C366 C365 1.397 . S
C366 C367 1.438 . S
C366 C371 1.429 . S
C367 C350 1.394 . S
C367 C366 1.438 . S
C367 C368 1.428 . S
C368 H360 0.949 . S
C368 C367 1.428 . S
C368 C369 1.345 . S
C369 H361 0.950 . S
C369 C368 1.345 . S
C369 C370 1.424 . S
C370 H362 0.951 . S
C370 C369 1.424 . S
C370 C371 1.347 . S
C371 H363 0.951 . S
C371 C366 1.429 . S
C371 C370 1.347 . S
H372 C373 0.951 . S
C373 H372 0.951 . S
C373 C379 1.265 . S
H374 C379 0.950 . S
H375 C383 0.949 . S
H376 C384 0.950 . S
H377 C385 0.951 . S
H378 C386 0.951 . S
C379 C373 1.265 . S
C379 H374 0.950 . S
C379 C380 1.478 . S
C380 C379 1.478 . S
C380 C381 1.397 . S
C380 C397 1.394 . S
C381 C380 1.397 . S
C381 C382 1.438 . S
C381 C386 1.429 . S
C382 C381 1.438 . S
C382 C383 1.428 . S
C382 C395 1.394 . S
C383 H375 0.949 . S
C383 C382 1.428 . S
C383 C384 1.345 . S
C384 H376 0.950 . S
C384 C383 1.345 . S
C384 C385 1.424 . S
C385 H377 0.951 . S
C385 C384 1.424 . S
C385 C386 1.347 . S
C386 H378 0.951 . S
C386 C381 1.429 . S
C386 C385 1.347 . S
H387 C388 0.951 . S
C388 H387 0.951 . S
C388 C394 1.265 . S
H389 C394 0.950 . S
H390 C398 0.949 . S
H391 C399 0.950 . S
H392 C400 0.951 . S
H393 C401 0.951 . S
C394 C388 1.265 . S
C394 H389 0.950 . S
C394 C395 1.478 . S
C395 C382 1.394 . S
C395 C394 1.478 . S
C395 C396 1.397 . S
C396 C395 1.397 . S
C396 C397 1.438 . S
C396 C401 1.429 . S
C397 C380 1.394 . S
C397 C396 1.438 . S
C397 C398 1.428 . S
C398 H390 0.949 . S
C398 C397 1.428 . S
C398 C399 1.345 . S
C399 H391 0.950 . S
C399 C398 1.345 . S
C399 C400 1.424 . S
C400 H392 0.951 . S
C400 C399 1.424 . S
C400 C401 1.347 . S
C401 H393 0.951 . S
C401 C396 1.429 . S
C401 C400 1.347 . S
H402 C403 0.951 . S
C403 H402 0.951 . S
C403 C409 1.265 . S
H404 C409 0.950 . S
H405 C413 0.949 . S
H406 C414 0.950 . S
H407 C415 0.951 . S
H408 C416 0.951 . S
C409 C403 1.265 . S
C409 H404 0.950 . S
C409 C410 1.478 . S
C410 C409 1.478 . S
C410 C411 1.397 . S
C410 C427 1.394 . S
C411 C410 1.397 . S
C411 C412 1.438 . S
C411 C416 1.429 . S
C412 C411 1.438 . S
C412 C413 1.428 . S
C412 C425 1.394 . S
C413 H405 0.949 . S
C413 C412 1.428 . S
C413 C414 1.345 . S
C414 H406 0.950 . S
C414 C413 1.345 . S
C414 C415 1.424 . S
C415 H407 0.951 . S
C415 C414 1.424 . S
C415 C416 1.347 . S
C416 H408 0.951 . S
C416 C411 1.429 . S
C416 C415 1.347 . S
H417 C418 0.951 . S
C418 H417 0.951 . S
C418 C424 1.265 . S
H419 C424 0.950 . S
H420 C428 0.949 . S
H421 C429 0.950 . S
H422 C430 0.951 . S
H423 C431 0.951 . S
C424 C418 1.265 . S
C424 H419 0.950 . S
C424 C425 1.478 . S
C425 C412 1.394 . S
C425 C424 1.478 . S
C425 C426 1.397 . S
C426 C425 1.397 . S
C426 C427 1.438 . S
C426 C431 1.429 . S
C427 C410 1.394 . S
C427 C426 1.438 . S
C427 C428 1.428 . S
C428 H420 0.949 . S
C428 C427 1.428 . S
C428 C429 1.345 . S
C429 H421 0.950 . S
C429 C428 1.345 . S
C429 C430 1.424 . S
C430 H422 0.951 . S
C430 C429 1.424 . S
C430 C431 1.347 . S
C431 H423 0.951 . S
C431 C426 1.429 . S
C431 C430 1.347 . S
C133 C17 1.485 . S
C148 C50 1.486 1_655 S
C163 C116 1.470 . S
C178 C83 1.468 . S
C193 C8 1.502 . S
C208 N113 1.518 . S
C223 N5 1.398 . S
C238 C127 1.447 . S
C253 N104 1.324 . S
C268 C28 1.445 . S
C283 N14 1.518 . S
C298 C107 1.506 . S
C313 N71 1.314 . S
C328 C61 1.449 . S
C343 N38 1.407 . S
C358 C94 1.433 . S
C373 C41 1.519 . S
C388 N80 1.455 . S
C403 C74 1.499 . S
C418 N47 1.520 . S
