# Generated by pormake.
# Topology smn, (6)-cn, num edge types: 1
# Building blocks:
#     Node 0, Type 0, BuildingBlock: UKALOJ_clean_sbu_0, # of connection points: 6
#     Node 1, Type 0, BuildingBlock: UKALOJ_clean_sbu_0, # of connection points: 6
#     Node 2, Type 0, BuildingBlock: UKALOJ_clean_sbu_0, # of connection points: 6
#     Node 3, Type 0, BuildingBlock: UKALOJ_clean_sbu_0, # of connection points: 6
#     Node 4, Type 0, BuildingBlock: UKALOJ_clean_sbu_0, # of connection points: 6
#     Node 5, Type 0, BuildingBlock: UKALOJ_clean_sbu_0, # of connection points: 6
#     Node 6, Type 0, BuildingBlock: UKALOJ_clean_sbu_0, # of connection points: 6
#     Node 7, Type 0, BuildingBlock: UKALOJ_clean_sbu_0, # of connection points: 6
#     Node 8, Type 0, BuildingBlock: UKALOJ_clean_sbu_0, # of connection points: 6
#     Node 9, Type 0, BuildingBlock: UKALOJ_clean_sbu_0, # of connection points: 6
#     Node 10, Type 0, BuildingBlock: UKALOJ_clean_sbu_0, # of connection points: 6
#     Node 11, Type 0, BuildingBlock: UKALOJ_clean_sbu_0, # of connection points: 6
#     Node 12, Type 0, BuildingBlock: UKALOJ_clean_sbu_0, # of connection points: 6
#     Node 13, Type 0, BuildingBlock: UKALOJ_clean_sbu_0, # of connection points: 6
#     Node 14, Type 0, BuildingBlock: UKALOJ_clean_sbu_0, # of connection points: 6
#     Node 15, Type 0, BuildingBlock: UKALOJ_clean_sbu_0, # of connection points: 6
#     Node 16, Type 0, BuildingBlock: UKALOJ_clean_sbu_0, # of connection points: 6
#     Node 17, Type 0, BuildingBlock: UKALOJ_clean_sbu_0, # of connection points: 6
#     Edge 18, Type (0, 0), BuildingBlock: CIFDUS_clean_linker_0, # of connection points: 2
#     Edge 19, Type (0, 0), BuildingBlock: CIFDUS_clean_linker_0, # of connection points: 2
#     Edge 20, Type (0, 0), BuildingBlock: CIFDUS_clean_linker_0, # of connection points: 2
#     Edge 21, Type (0, 0), BuildingBlock: CIFDUS_clean_linker_0, # of connection points: 2
#     Edge 22, Type (0, 0), BuildingBlock: CIFDUS_clean_linker_0, # of connection points: 2
#     Edge 23, Type (0, 0), BuildingBlock: CIFDUS_clean_linker_0, # of connection points: 2
#     Edge 24, Type (0, 0), BuildingBlock: CIFDUS_clean_linker_0, # of connection points: 2
#     Edge 25, Type (0, 0), BuildingBlock: CIFDUS_clean_linker_0, # of connection points: 2
#     Edge 26, Type (0, 0), BuildingBlock: CIFDUS_clean_linker_0, # of connection points: 2
#     Edge 27, Type (0, 0), BuildingBlock: CIFDUS_clean_linker_0, # of connection points: 2
#     Edge 28, Type (0, 0), BuildingBlock: CIFDUS_clean_linker_0, # of connection points: 2
#     Edge 29, Type (0, 0), BuildingBlock: CIFDUS_clean_linker_0, # of connection points: 2
#     Edge 30, Type (0, 0), BuildingBlock: CIFDUS_clean_linker_0, # of connection points: 2
#     Edge 31, Type (0, 0), BuildingBlock: CIFDUS_clean_linker_0, # of connection points: 2
#     Edge 32, Type (0, 0), BuildingBlock: CIFDUS_clean_linker_0, # of connection points: 2
#     Edge 33, Type (0, 0), BuildingBlock: CIFDUS_clean_linker_0, # of connection points: 2
#     Edge 34, Type (0, 0), BuildingBlock: CIFDUS_clean_linker_0, # of connection points: 2
#     Edge 35, Type (0, 0), BuildingBlock: CIFDUS_clean_linker_0, # of connection points: 2
#     Edge 36, Type (0, 0), BuildingBlock: CIFDUS_clean_linker_0, # of connection points: 2
#     Edge 37, Type (0, 0), BuildingBlock: CIFDUS_clean_linker_0, # of connection points: 2
#     Edge 38, Type (0, 0), BuildingBlock: CIFDUS_clean_linker_0, # of connection points: 2
#     Edge 39, Type (0, 0), BuildingBlock: CIFDUS_clean_linker_0, # of connection points: 2
#     Edge 40, Type (0, 0), BuildingBlock: CIFDUS_clean_linker_0, # of connection points: 2
#     Edge 41, Type (0, 0), BuildingBlock: CIFDUS_clean_linker_0, # of connection points: 2
#     Edge 42, Type (0, 0), BuildingBlock: CIFDUS_clean_linker_0, # of connection points: 2
#     Edge 43, Type (0, 0), BuildingBlock: CIFDUS_clean_linker_0, # of connection points: 2
#     Edge 44, Type (0, 0), BuildingBlock: CIFDUS_clean_linker_0, # of connection points: 2
#     Edge 45, Type (0, 0), BuildingBlock: CIFDUS_clean_linker_0, # of connection points: 2
#     Edge 46, Type (0, 0), BuildingBlock: CIFDUS_clean_linker_0, # of connection points: 2
#     Edge 47, Type (0, 0), BuildingBlock: CIFDUS_clean_linker_0, # of connection points: 2
#     Edge 48, Type (0, 0), BuildingBlock: CIFDUS_clean_linker_0, # of connection points: 2
#     Edge 49, Type (0, 0), BuildingBlock: CIFDUS_clean_linker_0, # of connection points: 2
#     Edge 50, Type (0, 0), BuildingBlock: CIFDUS_clean_linker_0, # of connection points: 2
#     Edge 51, Type (0, 0), BuildingBlock: CIFDUS_clean_linker_0, # of connection points: 2
#     Edge 52, Type (0, 0), BuildingBlock: CIFDUS_clean_linker_0, # of connection points: 2
#     Edge 53, Type (0, 0), BuildingBlock: CIFDUS_clean_linker_0, # of connection points: 2
#     Edge 54, Type (0, 0), BuildingBlock: CIFDUS_clean_linker_0, # of connection points: 2
#     Edge 55, Type (0, 0), BuildingBlock: CIFDUS_clean_linker_0, # of connection points: 2
#     Edge 56, Type (0, 0), BuildingBlock: CIFDUS_clean_linker_0, # of connection points: 2
#     Edge 57, Type (0, 0), BuildingBlock: CIFDUS_clean_linker_0, # of connection points: 2
#     Edge 58, Type (0, 0), BuildingBlock: CIFDUS_clean_linker_0, # of connection points: 2
#     Edge 59, Type (0, 0), BuildingBlock: CIFDUS_clean_linker_0, # of connection points: 2
#     Edge 60, Type (0, 0), BuildingBlock: CIFDUS_clean_linker_0, # of connection points: 2
#     Edge 61, Type (0, 0), BuildingBlock: CIFDUS_clean_linker_0, # of connection points: 2
#     Edge 62, Type (0, 0), BuildingBlock: CIFDUS_clean_linker_0, # of connection points: 2
#     Edge 63, Type (0, 0), BuildingBlock: CIFDUS_clean_linker_0, # of connection points: 2
#     Edge 64, Type (0, 0), BuildingBlock: CIFDUS_clean_linker_0, # of connection points: 2
#     Edge 65, Type (0, 0), BuildingBlock: CIFDUS_clean_linker_0, # of connection points: 2
#     Edge 66, Type (0, 0), BuildingBlock: CIFDUS_clean_linker_0, # of connection points: 2
#     Edge 67, Type (0, 0), BuildingBlock: CIFDUS_clean_linker_0, # of connection points: 2
#     Edge 68, Type (0, 0), BuildingBlock: CIFDUS_clean_linker_0, # of connection points: 2
#     Edge 69, Type (0, 0), BuildingBlock: CIFDUS_clean_linker_0, # of connection points: 2
#     Edge 70, Type (0, 0), BuildingBlock: CIFDUS_clean_linker_0, # of connection points: 2
#     Edge 71, Type (0, 0), BuildingBlock: CIFDUS_clean_linker_0, # of connection points: 2
# Relax obj value: 0.236
# Max RMSD: 0.266
# Mean RMSD: 0.266
data_MOF--net-smn--node1-UKALOJ_clean_sbu_0--edge1-CIFDUS_clean_linker_0
_symmetry_space_group_name_H-M    P1
_symmetry_Int_Tables_number       1
_symmetry_cell_setting            triclinic
loop_
_symmetry_equiv_pos_as_xyz
'x, y, z'
_cell_length_a     57.225344
_cell_length_b     57.354632
_cell_length_c     18.369577
_cell_angle_alpha  90.088551
_cell_angle_beta   89.800228
_cell_angle_gamma 120.04475
loop_
_atom_site_label
_atom_site_type_symbol
_atom_site_fract_x
_atom_site_fract_y
_atom_site_fract_z
_atom_type_partial_charge
Zn0 Zn 0.00781 0.2232 0.69969 0.0
O1 O 0.98085 0.23599 0.74117 0.0
C2 C 0.98597 0.17998 0.81009 0.0
Zn3 Zn 0.0316 0.23675 0.80314 0.0
C4 C 0.98441 0.24575 0.80536 0.0
O5 O 1.00412 0.24821 0.84316 0.0
C6 C 0.05596 0.21613 0.69452 0.0
O7 O 0.05631 0.27615 0.76016 0.0
O8 O 0.03348 0.26255 0.65753 0.0
N9 N 0.05121 0.24607 0.9022 0.0
C10 C 0.07508 0.24879 0.92285 0.0
C11 C 0.05248 0.24407 0.01951 0.0
N12 N 0.03734 0.24337 0.96258 0.0
N13 N 0.07617 0.24712 0.99601 0.0
C14 C 0.96422 0.18847 0.58355 0.0
C15 C 0.98654 0.20437 0.48546 0.0
N16 N 0.98794 0.21041 0.60166 0.0
N17 N 1.00164 0.22029 0.54043 0.0
N18 N 0.96306 0.18394 0.51092 0.0
H19 H 0.94253 0.18584 0.68207 0.0
H20 H 0.92182 0.1645 0.60859 0.0
H21 H 0.94333 0.15574 0.65843 0.0
C22 C 0.94162 0.17279 0.63623 0.0
C23 C 0.09791 0.25472 0.87212 0.0
H24 H 0.09741 0.26634 0.82449 0.0
H25 H 0.11756 0.26645 0.90036 0.0
H26 H 0.09611 0.23553 0.85319 0.0
O27 O 0.05907 0.22547 0.75873 0.0
O28 O 0.03512 0.2116 0.65909 0.0
C29 C 0.05228 0.28111 0.69518 0.0
O30 O 0.98283 0.18466 0.74458 0.0
O31 O 1.00568 0.19784 0.84619 0.0
Zn32 Zn 0.81416 0.79755 0.69583 0.0
O33 O 0.80168 0.75853 0.7394 0.0
C34 C 0.85943 0.81897 0.80178 0.0
Zn35 Zn 0.80325 0.80948 0.8012 0.0
C36 C 0.79191 0.75267 0.80371 0.0
O37 O 0.79001 0.77026 0.84166 0.0
C38 C 0.82321 0.85318 0.69104 0.0
O39 O 0.7633 0.79626 0.76047 0.0
O40 O 0.77446 0.78379 0.65868 0.0
N41 N 0.79595 0.82183 0.90008 0.0
C42 C 0.79367 0.84344 0.91865 0.0
C43 C 0.80064 0.82792 0.01625 0.0
N44 N 0.80012 0.81219 0.96103 0.0
N45 N 0.79706 0.848 0.99124 0.0
C46 C 0.84671 0.78712 0.57589 0.0
C47 C 0.82879 0.79153 0.47933 0.0
N48 N 0.82499 0.78895 0.59647 0.0
N49 N 0.81381 0.79148 0.5362 0.0
N50 N 0.8498 0.78919 0.50274 0.0
H51 H 0.85166 0.76987 0.67461 0.0
H52 H 0.87184 0.76992 0.59841 0.0
H53 H 0.88105 0.80073 0.64581 0.0
C54 C 0.86372 0.78148 0.62672 0.0
C55 C 0.78623 0.85874 0.86654 0.0
H56 H 0.77429 0.84561 0.82065 0.0
H57 H 0.7743 0.86648 0.89471 0.0
H58 H 0.80481 0.87617 0.84435 0.0
O59 O 0.81659 0.84835 0.75755 0.0
O60 O 0.82479 0.83561 0.65284 0.0
C61 C 0.757 0.78589 0.69693 0.0
O62 O 0.85371 0.81143 0.73618 0.0
O63 O 0.84218 0.82077 0.84116 0.0
Zn64 Zn 0.22665 1.00135 0.80507 0.0
O65 O 0.24052 0.97738 0.74747 0.0
C66 C 0.18028 0.97939 0.70174 0.0
Zn67 Zn 0.23574 0.02786 0.70759 0.0
C68 C 0.24823 0.98382 0.68139 0.0
O69 O 0.24854 0.00423 0.65343 0.0
C70 C 0.21538 0.04675 0.82818 0.0
O71 O 0.27634 0.05394 0.74736 0.0
O72 O 0.26603 0.02751 0.84311 0.0
N73 N 0.24114 0.05001 0.61541 0.0
C74 C 0.24419 0.07476 0.60707 0.0
C75 C 0.2298 0.05398 0.50655 0.0
N76 N 0.23246 0.03727 0.55263 0.0
N77 N 0.23652 0.0776 0.53934 0.0
C78 C 0.19595 0.95626 0.92216 0.0
C79 C 0.21638 0.97693 0.01856 0.0
N80 N 0.21776 0.97957 0.90102 0.0
N81 N 0.23052 0.99221 0.96127 0.0
N82 N 0.19433 0.95437 0.99552 0.0
H83 H 0.1883 0.93474 0.82142 0.0
H84 H 0.16861 0.91451 0.89792 0.0
H85 H 0.16038 0.93788 0.8569 0.0
C86 C 0.17726 0.93454 0.87143 0.0
C87 C 0.25662 0.09645 0.6637 0.0
H88 H 0.27002 0.09291 0.69979 0.0
H89 H 0.26851 0.1165 0.63759 0.0
H90 H 0.24062 0.09642 0.69795 0.0
O91 O 0.22266 0.05124 0.76226 0.0
O92 O 0.21427 0.02659 0.86015 0.0
C93 C 0.28299 0.0484 0.80851 0.0
O94 O 0.18731 0.9751 0.7635 0.0
O95 O 0.19606 1.0011 0.66856 0.0
Zn96 Zn 0.03285 0.80934 0.30457 0.0
O97 O 0.05748 0.79398 0.26246 0.0
C98 C 0.05701 0.85345 0.19467 0.0
Zn99 Zn 0.00899 0.79802 0.20095 0.0
C100 C 0.05386 0.78536 0.19697 0.0
O101 O 0.03523 0.78524 0.15894 0.0
C102 C 0.98671 0.82002 0.31057 0.0
O103 O 0.98307 0.75834 0.24266 0.0
O104 O 1.00515 0.77059 0.34639 0.0
N105 N 0.98876 0.78981 0.10289 0.0
C106 C 0.96291 0.78216 0.08619 0.0
C107 C 0.98612 0.79763 0.98921 0.0
N108 N 1.00299 0.79902 0.04214 0.0
N109 N 0.96077 0.78729 0.01518 0.0
C110 C 0.07558 0.8422 0.4262 0.0
C111 C 0.0533 0.82255 0.5218 0.0
N112 N 0.05247 0.8203 0.4042 0.0
N113 N 0.03881 0.8081 0.46399 0.0
N114 N 0.07635 0.84429 0.49957 0.0
H115 H 0.09932 0.84869 0.32997 0.0
H116 H 0.11775 0.86996 0.40592 0.0
H117 H 0.09465 0.87656 0.35627 0.0
C118 C 0.0982 0.8604 0.37661 0.0
C119 C 0.94023 0.771 0.14034 0.0
H120 H 0.94715 0.76961 0.19535 0.0
H121 H 0.92495 0.75023 0.12452 0.0
H122 H 0.93039 0.78348 0.14111 0.0
O123 O 0.98306 0.81075 0.24624 0.0
O124 O 0.00732 0.82348 0.34551 0.0
C125 C 0.98619 0.75272 0.30777 0.0
O126 O 0.0603 0.8473 0.25867 0.0
O127 O 0.03588 0.83727 0.15988 0.0
Zn128 Zn 0.22647 0.23758 0.29946 0.0
O129 O 0.24215 0.27731 0.25454 0.0
C130 C 0.18308 0.21781 0.18688 0.0
Zn131 Zn 0.2385 0.22536 0.1961 0.0
C132 C 0.25194 0.28243 0.19002 0.0
O133 O 0.25284 0.26409 0.15306 0.0
C134 C 0.2147 0.18089 0.30482 0.0
O135 O 0.27777 0.23841 0.24179 0.0
O136 O 0.26484 0.24911 0.34314 0.0
N137 N 0.24731 0.21184 0.10139 0.0
C138 C 0.25438 0.19285 0.09059 0.0
C139 C 0.23891 0.19787 0.99027 0.0
N140 N 0.23809 0.21516 0.03855 0.0
N141 N 0.24888 0.18342 0.02146 0.0
C142 C 0.19342 0.24828 0.41962 0.0
C143 C 0.21375 0.24746 0.51557 0.0
N144 N 0.21538 0.24709 0.39791 0.0
N145 N 0.22803 0.24679 0.4579 0.0
N146 N 0.19171 0.24808 0.49307 0.0
H147 H 0.18615 0.26387 0.32182 0.0
H148 H 0.16477 0.26132 0.39754 0.0
H149 H 0.15883 0.2313 0.35052 0.0
C150 C 0.1747 0.25145 0.36938 0.0
C151 C 0.26509 0.18236 0.14869 0.0
H152 H 0.26618 0.19154 0.20233 0.0
H153 H 0.28592 0.1874 0.13418 0.0
H154 H 0.25255 0.16011 0.15213 0.0
O155 O 0.22374 0.18691 0.24049 0.0
O156 O 0.21228 0.19814 0.34255 0.0
C157 C 0.28293 0.24759 0.30662 0.0
O158 O 0.18843 0.22641 0.25194 0.0
O159 O 0.2 0.21393 0.15182 0.0
Zn160 Zn 0.79817 1.001 0.29791 0.0
O161 O 0.7596 0.97625 0.24342 0.0
C162 C 0.8222 0.98302 0.1837 0.0
Zn163 Zn 0.81269 0.02998 0.20495 0.0
C164 C 0.75659 0.98439 0.18124 0.0
O165 O 0.77527 0.00653 0.15594 0.0
C166 C 0.85449 0.04816 0.31932 0.0
O167 O 0.79849 0.05454 0.25924 0.0
O168 O 0.78387 0.02427 0.3467 0.0
N169 N 0.82581 0.05378 0.11316 0.0
C170 C 0.84528 0.07953 0.10117 0.0
C171 C 0.83582 0.05942 0.99891 0.0
N172 N 0.81967 0.04153 0.04921 0.0
N173 N 0.85245 0.08349 0.02977 0.0
C174 C 0.78101 0.95164 0.4022 0.0
C175 C 0.79088 0.97184 0.50436 0.0
N176 N 0.78717 0.97729 0.38978 0.0
N177 N 0.79278 0.98959 0.45365 0.0
N178 N 0.7838 0.9478 0.47385 0.0
H179 H 0.77221 0.9389 0.28982 0.0
H180 H 0.75186 0.91423 0.35484 0.0
H181 H 0.78632 0.92218 0.34365 0.0
C182 C 0.7727 0.93073 0.34386 0.0
C183 C 0.85732 0.10044 0.15966 0.0
H184 H 0.8485 0.09212 0.21359 0.0
H185 H 0.85263 0.11663 0.14848 0.0
H186 H 0.87958 0.10945 0.16021 0.0
O187 O 0.85049 0.05331 0.25494 0.0
O188 O 0.83643 0.02675 0.34988 0.0
C189 C 0.78719 0.0463 0.3214 0.0
O190 O 0.81294 0.97782 0.24814 0.0
O191 O 0.8255 0.00438 0.15321 0.0
Zn192 Zn 0.67556 0.55809 0.0241 0.0
O193 O 0.65097 0.57338 0.06671 0.0
C194 C 0.6496 0.5133 0.13159 0.0
Zn195 Zn 0.69806 0.5685 0.12913 0.0
C196 C 0.65432 0.58191 0.13222 0.0
O197 O 0.67269 0.58191 0.17108 0.0
C198 C 0.72107 0.54699 0.01946 0.0
O199 O 0.72469 0.60806 0.08697 0.0
O200 O 0.70289 0.59657 0.9827 0.0
N201 N 0.7195 0.57718 0.22488 0.0
C202 C 0.73027 0.56361 0.2574 0.0
C203 C 0.74118 0.59862 0.32111 0.0
N204 N 0.72623 0.59889 0.26472 0.0
N205 N 0.74421 0.57678 0.31761 0.0
C206 C 0.63 0.52681 0.91405 0.0
C207 C 0.65298 0.52989 0.81953 0.0
N208 N 0.65564 0.5464 0.92662 0.0
N209 N 0.66976 0.54853 0.86731 0.0
N210 N 0.62791 0.5155 0.84781 0.0
H211 H 0.61057 0.54014 0.9905 0.0
H212 H 0.58779 0.51332 0.9309 0.0
H213 H 0.60389 0.50652 0.00515 0.0
C214 C 0.60671 0.52137 0.9628 0.0
C215 C 0.7262 0.53692 0.23179 0.0
H216 H 0.74314 0.54034 0.19538 0.0
H217 H 0.72559 0.52442 0.2786 0.0
H218 H 0.70745 0.5255 0.20043 0.0
O219 O 0.72425 0.556 0.08389 0.0
O220 O 0.70094 0.54399 0.98325 0.0
C221 C 0.72182 0.61408 0.02204 0.0
O222 O 0.64822 0.51986 0.06659 0.0
O223 O 0.6695 0.52947 0.17052 0.0
Zn224 Zn 0.4765 0.12847 0.04361 0.0
O225 O 0.464 0.08915 0.09129 0.0
C226 C 0.52148 0.15205 0.15103 0.0
Zn227 Zn 0.46527 0.14212 0.14523 0.0
C228 C 0.45594 0.08603 0.15749 0.0
O229 O 0.45425 0.10474 0.18949 0.0
C230 C 0.48499 0.18486 0.03531 0.0
O231 O 0.42494 0.12673 0.10302 0.0
O232 O 0.43721 0.11448 0.00284 0.0
N233 N 0.45682 0.1537 0.24262 0.0
C234 C 0.45267 0.17416 0.26056 0.0
C235 C 0.4623 0.16085 0.3582 0.0
N236 N 0.46254 0.14533 0.30356 0.0
N237 N 0.45653 0.17942 0.33272 0.0
C238 C 0.51033 0.11853 0.92511 0.0
C239 C 0.49284 0.12306 0.82798 0.0
N240 N 0.48838 0.12008 0.94501 0.0
N241 N 0.47751 0.12271 0.88428 0.0
N242 N 0.51387 0.12087 0.8521 0.0
H243 H 0.51466 0.10097 0.02344 0.0
H244 H 0.5355 0.10147 0.9484 0.0
H245 H 0.54418 0.13217 0.99589 0.0
C246 C 0.52709 0.11284 0.97636 0.0
C247 C 0.44285 0.18741 0.20845 0.0
H248 H 0.43138 0.17346 0.16342 0.0
H249 H 0.42985 0.19378 0.23709 0.0
H250 H 0.46026 0.20553 0.18484 0.0
O251 O 0.47683 0.17969 0.10059 0.0
O252 O 0.48774 0.16746 0.99902 0.0
C253 C 0.41927 0.11631 0.03942 0.0
O254 O 0.51539 0.14217 0.08743 0.0
O255 O 0.50475 0.15612 0.18621 0.0
Zn256 Zn 0.90272 0.35886 0.0265 0.0
O257 O 0.94248 0.38418 0.06868 0.0
C258 C 0.88189 0.38372 0.13103 0.0
Zn259 Zn 0.89036 0.33641 0.13214 0.0
C260 C 0.94756 0.38119 0.13447 0.0
O261 O 0.92917 0.36278 0.17338 0.0
C262 C 0.8463 0.31287 0.02282 0.0
O263 O 0.90432 0.31011 0.09195 0.0
O264 O 0.91461 0.33186 0.98718 0.0
N265 N 0.87826 0.31742 0.23206 0.0
C266 C 0.85677 0.29371 0.25251 0.0
C267 C 0.87318 0.3169 0.34875 0.0
N268 N 0.88847 0.33167 0.29222 0.0
N269 N 0.85287 0.29308 0.32528 0.0
C270 C 0.91712 0.40442 0.91611 0.0
C271 C 0.89706 0.38174 0.82176 0.0
N272 N 0.91087 0.37874 0.92849 0.0
N273 N 0.89875 0.3648 0.86928 0.0
N274 N 0.90794 0.40673 0.85011 0.0
H275 H 0.94992 0.42376 0.99209 0.0
H276 H 0.94562 0.44655 0.93368 0.0
H277 H 0.92266 0.43002 0.00807 0.0
C278 C 0.93484 0.42752 0.96517 0.0
C279 C 0.84081 0.27059 0.20216 0.0
H280 H 0.85365 0.27116 0.15603 0.0
H281 H 0.83287 0.25116 0.23145 0.0
H282 H 0.82342 0.27193 0.18085 0.0
O283 O 0.85187 0.31001 0.08779 0.0
O284 O 0.86347 0.33285 0.98602 0.0
C285 C 0.91341 0.3131 0.02686 0.0
O286 O 0.8909 0.38551 0.06704 0.0
O287 O 0.87808 0.36395 0.17056 0.0
Zn288 Zn 0.69781 0.14244 0.63457 0.0
O289 O 0.7231 0.12832 0.5845 0.0
C290 C 0.7177 0.18495 0.52281 0.0
Zn291 Zn 0.66983 0.12843 0.53928 0.0
C292 C 0.71623 0.1183 0.52067 0.0
O293 O 0.69489 0.11577 0.49243 0.0
C294 C 0.64981 0.15074 0.65251 0.0
O295 O 0.64451 0.08892 0.58858 0.0
O296 O 0.6729 0.10482 0.68017 0.0
N297 N 0.64829 0.11871 0.4433 0.0
C298 C 0.62543 0.1183 0.42311 0.0
C299 C 0.64548 0.1177 0.32587 0.0
N300 N 0.66055 0.11812 0.38255 0.0
N301 N 0.62346 0.11814 0.34983 0.0
C302 C 0.74227 0.1758 0.75124 0.0
C303 C 0.72219 0.15475 0.84793 0.0
N304 N 0.71927 0.15365 0.73052 0.0
N305 N 0.707 0.14053 0.79088 0.0
N306 N 0.74432 0.17717 0.82455 0.0
H307 H 0.7643 0.18426 0.65109 0.0
H308 H 0.78352 0.20541 0.72644 0.0
H309 H 0.75828 0.21065 0.68357 0.0
C310 C 0.76341 0.19515 0.7 0.0
C311 C 0.60424 0.11622 0.47474 0.0
H312 H 0.60318 0.10392 0.52252 0.0
H313 H 0.58419 0.10671 0.44803 0.0
H314 H 0.60943 0.1367 0.49288 0.0
O315 O 0.64485 0.14111 0.58852 0.0
O316 O 0.67164 0.15528 0.68296 0.0
C317 C 0.65152 0.08597 0.65238 0.0
O318 O 0.72275 0.18026 0.58659 0.0
O319 O 0.69596 0.16755 0.49214 0.0
Zn320 Zn 0.90542 0.55761 0.52618 0.0
O321 O 0.94482 0.57161 0.56766 0.0
C322 C 0.8837 0.51169 0.63029 0.0
Zn323 Zn 0.89192 0.5673 0.63061 0.0
C324 C 0.94956 0.57965 0.63347 0.0
O325 O 0.93097 0.57968 0.6716 0.0
C326 C 0.84855 0.54697 0.52007 0.0
O327 O 0.90605 0.60751 0.59052 0.0
O328 O 0.91759 0.5965 0.48683 0.0
N329 N 0.88065 0.57494 0.7309 0.0
C330 C 0.85918 0.5769 0.75298 0.0
C331 C 0.87788 0.57283 0.84836 0.0
N332 N 0.89233 0.57263 0.79049 0.0
N333 N 0.85673 0.57516 0.8263 0.0
C334 C 0.91915 0.52593 0.41571 0.0
C335 C 0.89923 0.52887 0.32156 0.0
N336 N 0.9134 0.54572 0.42814 0.0
N337 N 0.90137 0.54775 0.36905 0.0
N338 N 0.90972 0.51441 0.34983 0.0
H339 H 0.95209 0.53912 0.49112 0.0
H340 H 0.94728 0.51179 0.43268 0.0
H341 H 0.92459 0.50581 0.50751 0.0
C342 C 0.93678 0.52032 0.46442 0.0
C343 C 0.84146 0.58189 0.70335 0.0
H344 H 0.85303 0.59359 0.65498 0.0
H345 H 0.83305 0.59309 0.73219 0.0
H346 H 0.8244 0.56228 0.68544 0.0
O347 O 0.85297 0.55507 0.58563 0.0
O348 O 0.86659 0.54475 0.48581 0.0
C349 C 0.91584 0.61386 0.52621 0.0
O350 O 0.8933 0.5191 0.56688 0.0
O351 O 0.87946 0.52751 0.66939 0.0
Zn352 Zn 0.46756 0.33947 0.63257 0.0
O353 O 0.42641 0.31453 0.59628 0.0
C354 C 0.48483 0.31693 0.51289 0.0
Zn355 Zn 0.47653 0.36441 0.53208 0.0
C356 C 0.41961 0.31936 0.53436 0.0
O357 O 0.43673 0.3393 0.49682 0.0
C358 C 0.52418 0.38606 0.62813 0.0
O359 O 0.4648 0.3905 0.58806 0.0
O360 O 0.45714 0.36509 0.68488 0.0
N361 N 0.48717 0.38595 0.43638 0.0
C362 C 0.50774 0.41129 0.42552 0.0
C363 C 0.50254 0.3896 0.32724 0.0
N364 N 0.48376 0.37267 0.37476 0.0
N365 N 0.5184 0.41395 0.35786 0.0
C366 C 0.4544 0.29281 0.74175 0.0
C367 C 0.47779 0.3157 0.83226 0.0
N368 N 0.46252 0.31889 0.72798 0.0
N369 N 0.47668 0.33295 0.7849 0.0
N370 N 0.4644 0.29031 0.80629 0.0
H371 H 0.41979 0.27515 0.67141 0.0
H372 H 0.42277 0.25146 0.7294 0.0
H373 H 0.44465 0.26585 0.65168 0.0
C374 C 0.43421 0.26995 0.69611 0.0
C375 C 0.51472 0.43392 0.47798 0.0
H376 H 0.4965 0.43037 0.50852 0.0
H377 H 0.52309 0.45338 0.44857 0.0
H378 H 0.52982 0.43536 0.51786 0.0
O379 O 0.51609 0.38917 0.56695 0.0
O380 O 0.50841 0.36585 0.66675 0.0
C381 C 0.45796 0.38543 0.65507 0.0
O382 O 0.4779 0.31333 0.57942 0.0
O383 O 0.48715 0.33751 0.48036 0.0
Zn384 Zn 0.33711 0.88668 0.37248 0.0
O385 O 0.31213 0.90124 0.42114 0.0
C386 C 0.31765 0.84454 0.48526 0.0
Zn387 Zn 0.36531 0.90096 0.46646 0.0
C388 C 0.31918 0.91145 0.48465 0.0
O389 O 0.3405 0.9139 0.51281 0.0
C390 C 0.38499 0.87803 0.35546 0.0
O391 O 0.39026 0.94006 0.41472 0.0
O392 O 0.36153 0.92374 0.3238 0.0
N393 N 0.38721 0.91121 0.56136 0.0
C394 C 0.41093 0.91308 0.5793 0.0
C395 C 0.39033 0.91046 0.67838 0.0
N396 N 0.3746 0.90982 0.62321 0.0
N397 N 0.41313 0.91213 0.65226 0.0
C398 C 0.28948 0.85398 0.26725 0.0
C399 C 0.31158 0.8581 0.17008 0.0
N400 N 0.31523 0.87337 0.27893 0.0
N401 N 0.32878 0.8762 0.21801 0.0
N402 N 0.28676 0.84337 0.19963 0.0
H403 H 0.27137 0.86703 0.34843 0.0
H404 H 0.24765 0.84126 0.28796 0.0
H405 H 0.26421 0.83311 0.35845 0.0
C406 C 0.26681 0.8485 0.31826 0.0
C407 C 0.43257 0.91759 0.52601 0.0
H408 H 0.43175 0.92902 0.47837 0.0
H409 H 0.45277 0.92895 0.55167 0.0
H410 H 0.42952 0.89782 0.50781 0.0
O411 O 0.39024 0.8881 0.41884 0.0
O412 O 0.3631 0.87339 0.32546 0.0
C413 C 0.38304 0.94273 0.35088 0.0
O414 O 0.31226 0.84913 0.42178 0.0
O415 O 0.33942 0.86211 0.5154 0.0
Zn416 Zn 0.12928 0.47529 0.46989 0.0
O417 O 0.08928 0.46023 0.42791 0.0
C418 C 0.14931 0.51972 0.36083 0.0
Zn419 Zn 0.14126 0.46417 0.3654 0.0
C420 C 0.08402 0.45119 0.36285 0.0
O421 O 0.10233 0.45071 0.32444 0.0
C422 C 0.18626 0.48683 0.47216 0.0
O423 O 0.12814 0.42454 0.40647 0.0
O424 O 0.11785 0.43649 0.51012 0.0
N425 N 0.15389 0.45656 0.26845 0.0
C426 C 0.17436 0.45187 0.25499 0.0
C427 C 0.16688 0.46657 0.15676 0.0
N428 N 0.14902 0.46532 0.20685 0.0
N429 N 0.18301 0.45822 0.18578 0.0
C430 C 0.11813 0.50666 0.59236 0.0
C431 C 0.12127 0.48716 0.68731 0.0
N432 N 0.12018 0.48536 0.56972 0.0
N433 N 0.12188 0.47317 0.62903 0.0
N434 N 0.11922 0.50848 0.66573 0.0
H435 H 0.10146 0.51332 0.49538 0.0
H436 H 0.10274 0.53352 0.57262 0.0
H437 H 0.13328 0.54156 0.52459 0.0
C438 C 0.11354 0.52478 0.54326 0.0
C439 C 0.18671 0.44185 0.30942 0.0
H440 H 0.17405 0.43383 0.35888 0.0
H441 H 0.18943 0.42576 0.28421 0.0
H442 H 0.20707 0.4584 0.32405 0.0
O443 O 0.18002 0.47795 0.40782 0.0
O444 O 0.16905 0.48906 0.51088 0.0
C445 C 0.11915 0.41877 0.47142 0.0
O446 O 0.14042 0.51388 0.42562 0.0
O447 O 0.15308 0.50301 0.32479 0.0
Zn448 Zn 0.5733 0.69396 0.36966 0.0
O449 O 0.61288 0.71949 0.41205 0.0
C450 C 0.55109 0.71553 0.47871 0.0
Zn451 Zn 0.56143 0.6695 0.47134 0.0
C452 C 0.61836 0.71571 0.4767 0.0
O453 O 0.60035 0.69638 0.51436 0.0
C454 C 0.51723 0.64652 0.36098 0.0
O455 O 0.57631 0.64495 0.42779 0.0
O456 O 0.58621 0.66827 0.32571 0.0
N457 N 0.54934 0.64931 0.56849 0.0
C458 C 0.5291 0.62406 0.58156 0.0
C459 C 0.53346 0.64728 0.67625 0.0
N460 N 0.55229 0.66357 0.62795 0.0
N461 N 0.51814 0.62239 0.64824 0.0
C462 C 0.58463 0.73997 0.26381 0.0
C463 C 0.56733 0.71782 0.16667 0.0
N464 N 0.58072 0.71495 0.27394 0.0
N465 N 0.57029 0.70136 0.21311 0.0
N466 N 0.57561 0.74212 0.19733 0.0
H467 H 0.61404 0.75929 0.34883 0.0
H468 H 0.61124 0.78209 0.28663 0.0
H469 H 0.5856 0.7643 0.35454 0.0
C470 C 0.59977 0.76273 0.31635 0.0
C471 C 0.52298 0.60058 0.53337 0.0
H472 H 0.54148 0.60407 0.50439 0.0
H473 H 0.51479 0.58177 0.5658 0.0
H474 H 0.50792 0.598 0.49216 0.0
O475 O 0.5225 0.64224 0.42509 0.0
O476 O 0.53441 0.66774 0.32833 0.0
C477 C 0.58546 0.64914 0.36276 0.0
O478 O 0.5605 0.7193 0.41479 0.0
O479 O 0.54807 0.69531 0.51433 0.0
Zn480 Zn 0.36527 0.47671 0.96828 0.0
O481 O 0.3936 0.46777 0.91124 0.0
C482 C 0.3864 0.52428 0.87082 0.0
Zn483 Zn 0.34191 0.46707 0.86424 0.0
C484 C 0.38945 0.46079 0.84418 0.0
O485 O 0.36882 0.45862 0.81237 0.0
C486 C 0.31494 0.47937 0.98451 0.0
O487 O 0.31823 0.42565 0.89986 0.0
O488 O 0.34226 0.4366 1.00097 0.0
N489 N 0.3212 0.46174 0.7685 0.0
C490 C 0.29556 0.45602 0.7575 0.0
C491 C 0.3182 0.47677 0.66351 0.0
N492 N 0.33511 0.47433 0.70949 0.0
N493 N 0.29323 0.46595 0.69263 0.0
C494 C 0.39749 0.5112 0.1011 0.0
C495 C 0.41337 0.48859 0.15079 0.0
N496 N 0.38803 0.488 0.06297 0.0
N497 N 0.39786 0.47393 0.09426 0.0
N498 N 0.41365 0.51219 0.15586 0.0
H499 H 0.40607 0.54879 0.05361 0.0
H500 H 0.38875 0.54161 0.13929 0.0
H501 H 0.371 0.52483 0.05767 0.0
C502 C 0.39017 0.53258 0.08717 0.0
C503 C 0.27267 0.43867 0.80755 0.0
H504 H 0.27726 0.42487 0.83844 0.0
H505 H 0.25377 0.42665 0.77624 0.0
H506 H 0.26953 0.4515 0.8468 0.0
O507 O 0.31439 0.475 0.91681 0.0
O508 O 0.33514 0.48281 0.02144 0.0
C509 C 0.3231 0.41908 0.96217 0.0
O510 O 0.38874 0.51677 0.93373 0.0
O511 O 0.367 0.50794 0.83091 0.0
Zn512 Zn 0.57273 0.88743 0.86379 0.0
O513 O 0.61113 0.90006 0.91811 0.0
C514 C 0.54809 0.84296 0.96919 0.0
Zn515 Zn 0.55795 0.89961 0.96121 0.0
C516 C 0.61409 0.91 0.98196 0.0
O517 O 0.59531 0.91275 0.00977 0.0
C518 C 0.51692 0.87896 0.8449 0.0
O519 O 0.57191 0.93933 0.91273 0.0
O520 O 0.5872 0.92558 0.82172 0.0
N521 N 0.54476 0.908 0.05732 0.0
C522 C 0.52249 0.90904 0.07651 0.0
C523 C 0.54124 0.90726 0.17458 0.0
N524 N 0.55638 0.90706 0.11862 0.0
N525 N 0.51961 0.90815 0.14969 0.0
C526 C 0.59088 0.85693 0.75786 0.0
C527 C 0.58083 0.86711 0.65579 0.0
N528 N 0.58426 0.8761 0.77055 0.0
N529 N 0.5785 0.88269 0.70681 0.0
N530 N 0.58843 0.85058 0.68622 0.0
H531 H 0.59956 0.85236 0.8702 0.0
H532 H 0.61803 0.84551 0.80409 0.0
H533 H 0.58299 0.82145 0.817 0.0
C534 C 0.59805 0.84328 0.81606 0.0
C535 C 0.50487 0.91296 0.02416 0.0
H536 H 0.51729 0.9256 0.97805 0.0
H537 H 0.49479 0.92295 0.05099 0.0
H538 H 0.48911 0.89305 0.00358 0.0
O539 O 0.52054 0.88653 0.91091 0.0
O540 O 0.53502 0.87624 0.81218 0.0
C541 C 0.58331 0.94352 0.85021 0.0
O542 O 0.55732 0.84882 0.90508 0.0
O543 O 0.54533 0.86024 0.00598 0.0
Zn544 Zn 0.14285 0.69179 0.86296 0.0
O545 O 0.12937 0.7184 0.90253 0.0
C546 C 0.18745 0.7152 0.96868 0.0
Zn547 Zn 0.13077 0.66886 0.96802 0.0
C548 C 0.1205 0.71528 0.96775 0.0
O549 O 0.11929 0.69635 0.00652 0.0
C550 C 0.15119 0.64433 0.86128 0.0
O551 O 0.09079 0.64332 0.92833 0.0
O552 O 0.10376 0.66528 0.82416 0.0
N553 N 0.12243 0.6505 0.06904 0.0
C554 C 0.1197 0.62689 0.09183 0.0
C555 C 0.1245 0.65032 0.18654 0.0
N556 N 0.12519 0.6649 0.12822 0.0
N557 N 0.12136 0.62645 0.16514 0.0
C558 C 0.17523 0.73443 0.7428 0.0
C559 C 0.1621 0.70994 0.64775 0.0
N560 N 0.15445 0.7102 0.76274 0.0
N561 N 0.14621 0.69514 0.70333 0.0
N562 N 0.18084 0.73462 0.67103 0.0
H563 H 0.17461 0.75641 0.83728 0.0
H564 H 0.19449 0.77714 0.76135 0.0
H565 H 0.20681 0.75976 0.81611 0.0
C566 C 0.18845 0.75834 0.7923 0.0
C567 C 0.11392 0.60372 0.043 0.0
H568 H 0.10203 0.60356 0.99522 0.0
H569 H 0.10247 0.58435 0.07272 0.0
H570 H 0.13323 0.60565 0.02409 0.0
O571 O 0.14203 0.64142 0.92568 0.0
O572 O 0.15511 0.66472 0.82473 0.0
C573 C 0.08552 0.64667 0.86301 0.0
O574 O 0.18147 0.71783 0.904 0.0
O575 O 0.17041 0.69544 0.00666 0.0
H576 H 0.10959 0.24519 0.72482 0.0
H577 H 0.05274 0.18649 0.57467 0.0
H578 H 0.09 0.1911 0.49861 0.0
H579 H 0.13873 0.21356 0.47182 0.0
H580 H 0.19539 0.27318 0.61983 0.0
H581 H 0.15823 0.26633 0.70058 0.0
C582 C 0.1053 0.23285 0.67666 0.0
C583 C 0.07835 0.21524 0.65613 0.0
C584 C 0.12681 0.23618 0.63218 0.0
C585 C 0.07327 0.20001 0.59208 0.0
C586 C 0.09457 0.2028 0.54828 0.0
C587 C 0.14284 0.2254 0.52103 0.0
C588 C 0.16966 0.24449 0.53891 0.0
C589 C 0.12139 0.22126 0.56697 0.0
C590 C 0.17485 0.25875 0.60461 0.0
C591 C 0.15364 0.25475 0.65071 0.0
H592 H 0.82006 0.95502 0.57679 0.0
H593 H 0.75412 0.89321 0.45297 0.0
H594 H 0.7633 0.85937 0.50291 0.0
H595 H 0.78958 0.84706 0.58333 0.0
H596 H 0.85086 0.90718 0.72143 0.0
H597 H 0.84396 0.94213 0.66495 0.0
C598 C 0.80755 0.93412 0.56097 0.0
C599 C 0.78716 0.92701 0.50831 0.0
C600 C 0.81225 0.91454 0.59243 0.0
C601 C 0.77092 0.89972 0.48965 0.0
C602 C 0.77592 0.88021 0.5192 0.0
C603 C 0.80172 0.86795 0.60002 0.0
C604 C 0.82131 0.87492 0.65447 0.0
C605 C 0.79669 0.88745 0.56995 0.0
C606 C 0.83615 0.90167 0.67829 0.0
C607 C 0.83204 0.92149 0.6464 0.0
H608 H 0.15454 0.92574 0.73185 0.0
H609 H 0.15494 0.98309 0.57968 0.0
H610 H 0.12258 0.94611 0.50294 0.0
H611 H 0.09589 0.89735 0.47634 0.0
H612 H 0.0966 0.84049 0.62778 0.0
H613 H 0.12673 0.87746 0.70844 0.0
C614 C 0.1471 0.9303 0.68315 0.0
C615 C 0.15703 0.9573 0.6624 0.0
C616 C 0.12905 0.90896 0.6385 0.0
C617 C 0.14753 0.96256 0.5975 0.0
C618 C 0.12916 0.9414 0.55325 0.0
C619 C 0.10306 0.89315 0.52637 0.0
C620 C 0.09473 0.8663 0.54529 0.0
C621 C 0.12025 0.91453 0.57245 0.0
C622 C 0.10314 0.86103 0.61183 0.0
C623 C 0.12025 0.88213 0.65787 0.0
H624 H 0.25376 0.08129 0.91811 0.0
H625 H 0.17725 0.06191 0.8246 0.0
H626 H 0.18083 0.10288 0.87799 0.0
H627 H 0.20694 0.14522 0.94666 0.0
H628 H 0.28574 0.16676 0.02817 0.0
H629 H 0.28023 0.12402 0.98452 0.0
C630 C 0.2376 0.0858 0.91121 0.0
C631 C 0.21484 0.06837 0.86982 0.0
C632 C 0.24045 0.10991 0.93923 0.0
C633 C 0.19453 0.07478 0.85814 0.0
C634 C 0.19675 0.09829 0.88795 0.0
C635 C 0.22292 0.14055 0.9546 0.0
C636 C 0.24646 0.15889 0.99237 0.0
C637 C 0.21983 0.11621 0.92763 0.0
C638 C 0.26706 0.15265 1.0019 0.0
C639 C 0.26399 0.12829 0.97628 0.0
H640 H 0.88244 0.07692 0.92786 0.0
H641 H 0.87675 0.13803 0.051 0.0
H642 H 0.91973 0.17242 1.00099 0.0
H643 H 0.95851 0.18549 0.91965 0.0
H644 H 0.96105 0.12591 0.78217 0.0
H645 H 0.9196 0.09041 0.8399 0.0
C646 C 0.89049 0.09778 0.94358 0.0
C647 C 0.87673 0.10456 0.99588 0.0
C648 C 0.91474 0.11767 0.9121 0.0
C649 C 0.88738 0.1318 0.01448 0.0
C650 C 0.91188 0.15162 0.98492 0.0
C651 C 0.9502 0.1646 0.90354 0.0
C652 C 0.96307 0.15796 0.84878 0.0
C653 C 0.92581 0.14474 0.93421 0.0
C654 C 0.95169 0.13118 0.82562 0.0
C655 C 0.92796 0.11104 0.85817 0.0
H656 H 0.85528 0.78057 0.89116 0.0
H657 H 0.91369 0.85438 0.78742 0.0
H658 H 0.9506 0.85086 0.84493 0.0
H659 H 0.96579 0.82669 0.92604 0.0
H660 H 0.90697 0.75026 0.01769 0.0
H661 H 0.87056 0.75486 0.96432 0.0
C662 C 0.87616 0.79597 0.88181 0.0
C663 C 0.882 0.81802 0.83678 0.0
C664 C 0.89703 0.7933 0.91313 0.0
C665 C 0.90893 0.8375 0.82294 0.0
C666 C 0.92991 0.83539 0.85557 0.0
C667 C 0.945 0.81097 0.93397 0.0
C668 C 0.93914 0.78867 0.97865 0.0
C669 C 0.92417 0.81335 0.90082 0.0
C670 C 0.91211 0.7683 0.98733 0.0
C671 C 0.89124 0.77075 0.95576 0.0
H672 H 0.90283 0.82003 0.53394 0.0
H673 H 0.84737 0.76878 0.36939 0.0
H674 H 0.88531 0.77678 0.2905 0.0
H675 H 0.93399 0.79649 0.27149 0.0
H676 H 0.98958 0.84542 0.43933 0.0
H677 H 0.95182 0.84038 0.514 0.0
C678 C 0.89906 0.81004 0.48171 0.0
C679 C 0.87232 0.79303 0.45846 0.0
C680 C 0.92098 0.81468 0.437 0.0
C681 C 0.86778 0.78152 0.38877 0.0
C682 C 0.88945 0.78619 0.34371 0.0
C683 C 0.93797 0.80646 0.32376 0.0
C684 C 0.96466 0.8214 0.34948 0.0
C685 C 0.91612 0.8026 0.36748 0.0
C686 C 0.96928 0.83393 0.41795 0.0
C687 C 0.94767 0.83085 0.46095 0.0
H688 H 0.23321 0.08643 0.39758 0.0
H689 H 0.22503 0.11291 0.61132 0.0
H690 H 0.216 0.14609 0.55778 0.0
H691 H 0.21147 0.16877 0.44946 0.0
H692 H 0.21426 0.1386 0.2361 0.0
H693 H 0.2229 0.10492 0.2904 0.0
C694 C 0.22955 0.09949 0.43264 0.0
C695 C 0.23157 0.09798 0.5087 0.0
C696 C 0.22265 0.11755 0.40144 0.0
C697 C 0.22581 0.1146 0.55293 0.0
C698 C 0.21983 0.13328 0.52216 0.0
C699 C 0.21332 0.15443 0.41489 0.0
C700 C 0.21269 0.15655 0.33871 0.0
C701 C 0.21837 0.13506 0.44645 0.0
C702 C 0.21509 0.13772 0.29485 0.0
C703 C 0.22018 0.11852 0.32582 0.0
H704 H 0.88895 0.09963 0.27821 0.0
H705 H 0.87076 0.04495 0.45811 0.0
H706 H 0.90317 0.08232 0.53409 0.0
H707 H 0.93525 0.13101 0.55013 0.0
H708 H 0.94913 0.18561 0.37263 0.0
H709 H 0.91952 0.1477 0.29466 0.0
C710 C 0.89202 0.09572 0.33381 0.0
C711 C 0.87725 0.06942 0.36213 0.0
C712 C 0.90959 0.11742 0.37794 0.0
C713 C 0.88188 0.06491 0.43454 0.0
C714 C 0.90023 0.08634 0.47825 0.0
C715 C 0.93116 0.13476 0.49529 0.0
C716 C 0.9438 0.16134 0.46801 0.0
C717 C 0.91375 0.11281 0.45096 0.0
C718 C 0.93937 0.16546 0.39518 0.0
C719 C 0.92255 0.14379 0.35055 0.0
H720 H 0.8053 0.93154 0.2244 0.0
H721 H 0.84212 0.98655 0.04498 0.0
H722 H 0.83776 0.94945 0.96878 0.0
H723 H 0.82167 0.90091 0.95238 0.0
H724 H 0.78096 0.84593 0.12956 0.0
H725 H 0.78846 0.88357 0.20769 0.0
C726 C 0.81251 0.93559 0.16887 0.0
C727 C 0.82396 0.96191 0.14077 0.0
C728 C 0.80879 0.91402 0.12463 0.0
C729 C 0.83334 0.96658 0.0684 0.0
C730 C 0.83061 0.9453 0.02457 0.0
C731 C 0.81367 0.89701 0.00722 0.0
C732 C 0.79996 0.8704 0.03434 0.0
C733 C 0.81781 0.91881 0.05167 0.0
C734 C 0.79119 0.8661 0.10714 0.0
C735 C 0.79558 0.88763 0.15185 0.0
H736 H 0.14162 0.9372 0.97281 0.0
H737 H 0.19687 0.93259 0.12265 0.0
H738 H 0.15908 0.90314 0.2027 0.0
H739 H 0.11039 0.87699 0.22588 0.0
H740 H 0.05479 0.87973 0.07305 0.0
H741 H 0.09273 0.91168 0.9976 0.0
C742 C 0.1453 0.9292 0.02202 0.0
C743 C 0.17189 0.93624 0.04071 0.0
C744 C 0.12349 0.91229 0.06736 0.0
C745 C 0.17651 0.92697 0.10675 0.0
C746 C 0.15495 0.91027 0.15244 0.0
C747 C 0.1065 0.88503 0.17717 0.0
C748 C 0.07972 0.87621 0.15582 0.0
C749 C 0.12835 0.90267 0.13303 0.0
C750 C 0.07517 0.88637 0.09113 0.0
C751 C 0.09686 0.90447 0.04771 0.0
H752 H 0.09773 0.21576 0.96655 0.0
H753 H 0.09562 0.26962 0.1265 0.0
H754 H 0.12661 0.26302 0.20419 0.0
H755 H 0.15582 0.2437 0.22293 0.0
H756 H 0.15936 0.19107 0.06089 0.0
H757 H 0.12625 0.19543 0.98702 0.0
C758 C 0.10457 0.22652 0.01759 0.0
C759 C 0.09517 0.24389 0.03988 0.0
C760 C 0.12233 0.22258 0.06165 0.0
C761 C 0.10303 0.25657 0.10794 0.0
C762 C 0.12062 0.25271 0.15226 0.0
C763 C 0.14895 0.23266 0.17244 0.0
C764 C 0.15991 0.21684 0.14807 0.0
C765 C 0.13051 0.23587 0.12944 0.0
C766 C 0.15115 0.20323 0.08125 0.0
C767 C 0.13235 0.20587 0.03876 0.0
H768 H 0.80367 0.54322 0.79961 0.0
H769 H 0.86019 0.59753 0.95754 0.0
H770 H 0.82274 0.59081 0.03697 0.0
H771 H 0.77397 0.5716 0.0574 0.0
H772 H 0.71759 0.51922 0.89539 0.0
H773 H 0.75492 0.52293 0.82149 0.0
C774 C 0.80775 0.55405 0.85059 0.0
C775 C 0.8346 0.57162 0.87169 0.0
C776 C 0.78615 0.55014 0.89546 0.0
C777 C 0.83964 0.58433 0.93982 0.0
C778 C 0.81826 0.58041 0.98515 0.0
C779 C 0.7698 0.56054 0.00665 0.0
C780 C 0.74299 0.54503 0.98209 0.0
C781 C 0.79142 0.56354 0.9632 0.0
C782 C 0.73801 0.53117 0.91565 0.0
C783 C 0.75936 0.53346 0.87312 0.0
H784 H 0.4788 0.19187 0.89141 0.0
H785 H 0.49431 0.23135 0.1002 0.0
H786 H 0.48692 0.26626 0.04845 0.0
H787 H 0.47378 0.28428 0.9457 0.0
H788 H 0.46328 0.24784 0.73379 0.0
H789 H 0.47001 0.2127 0.78525 0.0
C790 C 0.48114 0.20844 0.92517 0.0
C791 C 0.48667 0.20878 0.99987 0.0
C792 C 0.47684 0.22852 0.895 0.0
C793 C 0.48952 0.23033 0.04291 0.0
C794 C 0.48525 0.25028 0.0134 0.0
C795 C 0.47277 0.26855 0.91075 0.0
C796 C 0.46656 0.26817 0.83649 0.0
C797 C 0.47827 0.24921 0.93993 0.0
C798 C 0.46615 0.24797 0.79181 0.0
C799 C 0.47074 0.2281 0.82099 0.0
H800 H 0.82296 0.25981 0.05328 0.0
H801 H 0.81903 0.31586 0.90478 0.0
H802 H 0.78633 0.2783 0.82999 0.0
H803 H 0.76083 0.22965 0.80406 0.0
H804 H 0.76681 0.17406 0.9495 0.0
H805 H 0.79658 0.2114 0.02969 0.0
C806 C 0.81435 0.26384 0.00595 0.0
C807 C 0.82302 0.29057 0.9854 0.0
C808 C 0.79638 0.24226 0.96216 0.0
C809 C 0.81241 0.29543 0.92213 0.0
C810 C 0.79391 0.27399 0.87913 0.0
C811 C 0.76916 0.22583 0.85245 0.0
C812 C 0.76247 0.19931 0.86987 0.0
C813 C 0.78626 0.24737 0.89777 0.0
C814 C 0.77218 0.19441 0.93469 0.0
C815 C 0.78905 0.2157 0.98043 0.0
H816 H 0.9028 0.49922 0.20964 0.0
H817 H 0.90203 0.47022 0.42665 0.0
H818 H 0.89157 0.4267 0.37854 0.0
H819 H 0.88338 0.39667 0.27422 0.0
H820 H 0.88015 0.42415 0.05792 0.0
H821 H 0.89016 0.4678 0.10654 0.0
C822 C 0.90054 0.48343 0.24634 0.0
C823 C 0.90481 0.48879 0.32144 0.0
C824 C 0.89308 0.45779 0.21853 0.0
C825 C 0.90086 0.46769 0.36836 0.0
C826 C 0.89412 0.44236 0.34094 0.0
C827 C 0.88423 0.41197 0.23789 0.0
C828 C 0.8813 0.40722 0.16244 0.0
C829 C 0.89027 0.43719 0.2661 0.0
C830 C 0.88262 0.42737 0.11616 0.0
C831 C 0.88851 0.45242 0.14386 0.0
H832 H 0.53288 0.42162 0.21678 0.0
H833 H 0.56384 0.45028 0.43229 0.0
H834 H 0.60734 0.48241 0.3817 0.0
H835 H 0.63704 0.50315 0.27567 0.0
H836 H 0.60786 0.47112 0.06131 0.0
H837 H 0.56389 0.43891 0.11227 0.0
C838 C 0.54906 0.43502 0.25276 0.0
C839 C 0.54417 0.43428 0.32825 0.0
C840 C 0.57477 0.45253 0.22353 0.0
C841 C 0.56586 0.45131 0.3739 0.0
C842 C 0.59124 0.46939 0.34499 0.0
C843 C 0.62127 0.48875 0.24023 0.0
C844 C 0.62566 0.4899 0.16454 0.0
C845 C 0.59594 0.47023 0.26988 0.0
C846 C 0.60492 0.47104 0.11959 0.0
C847 C 0.5797 0.45265 0.14866 0.0
H848 H 0.60632 0.15367 0.37216 0.0
H849 H 0.60121 0.09292 0.22437 0.0
H850 H 0.57143 0.10052 0.14461 0.0
H851 H 0.54503 0.12238 0.12164 0.0
H852 H 0.54824 0.18195 0.27087 0.0
H853 H 0.58065 0.17684 0.34636 0.0
C854 C 0.59821 0.14174 0.32328 0.0
C855 C 0.60519 0.12214 0.30504 0.0
C856 C 0.58113 0.14626 0.27796 0.0
C857 C 0.59567 0.10775 0.23977 0.0
C858 C 0.57878 0.11217 0.19427 0.0
C859 C 0.55341 0.13493 0.16916 0.0
C860 C 0.54461 0.15294 0.18956 0.0
C861 C 0.57127 0.13125 0.2131 0.0
C862 C 0.55494 0.1682 0.25341 0.0
C863 C 0.57329 0.16511 0.29684 0.0
H864 H 0.56727 0.15034 0.88391 0.0
H865 H 0.51097 0.10052 0.71879 0.0
H866 H 0.54844 0.10782 0.63932 0.0
H867 H 0.59662 0.12681 0.61912 0.0
H868 H 0.65363 0.17483 0.78515 0.0
H869 H 0.61637 0.16977 0.86263 0.0
C870 C 0.5632 0.14051 0.83139 0.0
C871 C 0.53628 0.12418 0.80806 0.0
C872 C 0.58493 0.14479 0.78607 0.0
C873 C 0.53145 0.11279 0.7382 0.0
C874 C 0.55286 0.11706 0.69279 0.0
C875 C 0.60114 0.13668 0.67142 0.0
C876 C 0.62808 0.15148 0.69548 0.0
C877 C 0.57964 0.13295 0.71625 0.0
C878 C 0.63318 0.16355 0.7647 0.0
C879 C 0.61184 0.16047 0.80927 0.0
H880 H 0.90217 0.41558 0.70963 0.0
H881 H 0.90058 0.44354 0.92667 0.0
H882 H 0.89123 0.47732 0.87821 0.0
H883 H 0.8842 0.49981 0.77355 0.0
H884 H 0.88191 0.46948 0.55703 0.0
H885 H 0.89085 0.43519 0.60597 0.0
C886 C 0.89998 0.42921 0.74626 0.0
C887 C 0.90367 0.42781 0.82155 0.0
C888 C 0.8932 0.44784 0.71816 0.0
C889 C 0.89982 0.44511 0.86834 0.0
C890 C 0.89373 0.46412 0.84067 0.0
C891 C 0.88504 0.48531 0.73722 0.0
C892 C 0.88266 0.48741 0.66164 0.0
C893 C 0.89046 0.46575 0.76566 0.0
C894 C 0.88397 0.46852 0.61537 0.0
C895 C 0.88923 0.44897 0.64327 0.0
H896 H 0.61969 0.5007 0.7074 0.0
H897 H 0.59123 0.47118 0.92428 0.0
H898 H 0.55819 0.42769 0.87575 0.0
H899 H 0.53627 0.39798 0.7711 0.0
H900 H 0.56669 0.42618 0.5546 0.0
H901 H 0.60079 0.46959 0.60375 0.0
C902 C 0.60611 0.4848 0.74398 0.0
C903 C 0.60714 0.48997 0.8192 0.0
C904 C 0.58792 0.45922 0.71587 0.0
C905 C 0.58993 0.46876 0.86596 0.0
C906 C 0.57136 0.44346 0.83828 0.0
C907 C 0.55083 0.41335 0.73485 0.0
C908 C 0.54883 0.4089 0.65927 0.0
C909 C 0.57009 0.43847 0.76332 0.0
C910 C 0.56771 0.42916 0.61301 0.0
C911 C 0.58707 0.45408 0.641 0.0
H912 H 0.47903 0.23126 0.28714 0.0
H913 H 0.44337 0.17936 0.473 0.0
H914 H 0.45263 0.2183 0.54806 0.0
H915 H 0.47004 0.26657 0.5597 0.0
H916 H 0.50076 0.31801 0.37114 0.0
H917 H 0.49472 0.2797 0.29784 0.0
C918 C 0.47232 0.22824 0.34317 0.0
C919 C 0.45962 0.20221 0.37381 0.0
C920 C 0.47737 0.25069 0.38563 0.0
C921 C 0.45273 0.19911 0.44802 0.0
C922 C 0.45815 0.22135 0.49091 0.0
C923 C 0.47531 0.26951 0.50266 0.0
C924 C 0.48553 0.29513 0.47109 0.0
C925 C 0.47043 0.2472 0.46022 0.0
C926 C 0.49284 0.29853 0.39705 0.0
C927 C 0.48916 0.27657 0.35494 0.0
H928 H 0.79959 0.2676 0.29203 0.0
H929 H 0.85602 0.27684 0.45984 0.0
H930 H 0.81869 0.24621 0.53895 0.0
H931 H 0.77061 0.2158 0.55803 0.0
H932 H 0.71362 0.20435 0.3894 0.0
H933 H 0.75065 0.23696 0.31239 0.0
C934 C 0.80373 0.26237 0.34514 0.0
C935 C 0.83063 0.27383 0.36933 0.0
C936 C 0.7821 0.2447 0.39025 0.0
C937 C 0.83554 0.26794 0.43983 0.0
C938 C 0.81421 0.25053 0.48501 0.0
C939 C 0.76604 0.22068 0.50521 0.0
C940 C 0.73919 0.2077 0.48023 0.0
C941 C 0.78745 0.23876 0.46068 0.0
C942 C 0.73401 0.21414 0.4105 0.0
C943 C 0.75522 0.23264 0.3662 0.0
H944 H 0.8119 0.56191 0.5632 0.0
H945 H 0.83405 0.529 0.38152 0.0
H946 H 0.80396 0.53576 0.30261 0.0
H947 H 0.77591 0.55589 0.28196 0.0
H948 H 0.75008 0.58548 0.4627 0.0
H949 H 0.77832 0.57646 0.54503 0.0
C950 C 0.80964 0.55554 0.50698 0.0
C951 C 0.82549 0.54515 0.47858 0.0
C952 C 0.79227 0.55961 0.46132 0.0
C953 C 0.82228 0.53716 0.4051 0.0
C954 C 0.8052 0.54121 0.35958 0.0
C955 C 0.77526 0.55917 0.33967 0.0
C956 C 0.76006 0.57047 0.36631 0.0
C957 C 0.7907 0.55308 0.38666 0.0
C958 C 0.76139 0.57653 0.44091 0.0
C959 C 0.7774 0.57123 0.48798 0.0
H960 H 0.43851 0.90503 0.38279 0.0
H961 H 0.38024 0.851 0.22737 0.0
H962 H 0.41707 0.85576 0.14835 0.0
H963 H 0.46613 0.87653 0.12289 0.0
H964 H 0.5234 0.9318 0.27826 0.0
H965 H 0.48648 0.9251 0.35902 0.0
C966 C 0.43365 0.89366 0.33282 0.0
C967 C 0.40653 0.87724 0.31209 0.0
C968 C 0.45482 0.89713 0.2872 0.0
C969 C 0.4009 0.8635 0.24527 0.0
C970 C 0.42197 0.8664 0.19984 0.0
C971 C 0.47045 0.88754 0.17362 0.0
C972 C 0.49746 0.90523 0.19391 0.0
C973 C 0.44904 0.88353 0.2198 0.0
C974 C 0.50278 0.91842 0.26132 0.0
C975 C 0.48172 0.9145 0.30746 0.0
H976 H 0.12296 0.54674 0.39567 0.0
H977 H 0.17791 0.54452 0.23821 0.0
H978 H 0.17427 0.57778 0.16356 0.0
H979 H 0.15359 0.60569 0.13997 0.0
H980 H 0.0977 0.60702 0.29497 0.0
H981 H 0.10373 0.57607 0.37451 0.0
C982 C 0.13467 0.55399 0.34604 0.0
C983 C 0.15088 0.54328 0.323 0.0
C984 C 0.1319 0.57259 0.30242 0.0
C985 C 0.16541 0.55252 0.25744 0.0
C986 C 0.16319 0.57141 0.21446 0.0
C987 C 0.14236 0.59875 0.19047 0.0
C988 C 0.12453 0.60783 0.21072 0.0
C989 C 0.14602 0.58109 0.2356 0.0
C990 C 0.11113 0.59983 0.278 0.0
C991 C 0.11466 0.58226 0.32337 0.0
H992 H 0.44431 0.56464 0.12115 0.0
H993 H 0.42031 0.50901 0.30036 0.0
H994 H 0.44795 0.54638 0.38358 0.0
H995 H 0.48002 0.59485 0.40331 0.0
H996 H 0.50308 0.64976 0.22163 0.0
H997 H 0.47301 0.61293 0.14238 0.0
C998 C 0.44429 0.56075 0.17876 0.0
C999 C 0.42964 0.53417 0.20494 0.0
C1000 C 0.4598 0.58229 0.22595 0.0
C1001 C 0.43128 0.52934 0.27916 0.0
C1002 C 0.44693 0.55071 0.32665 0.0
C1003 C 0.47839 0.59885 0.34669 0.0
C1004 C 0.49436 0.62512 0.31868 0.0
C1005 C 0.46142 0.57731 0.30052 0.0
C1006 C 0.4913 0.62983 0.24507 0.0
C1007 C 0.47423 0.6087 0.19929 0.0
H1008 H 0.54816 0.81679 0.59906 0.0
H1009 H 0.62276 0.83089 0.695 0.0
H1010 H 0.61558 0.78819 0.64594 0.0
H1011 H 0.58856 0.74733 0.57333 0.0
H1012 H 0.51686 0.73554 0.46487 0.0
H1013 H 0.52226 0.77695 0.52087 0.0
C1014 C 0.5629 0.81054 0.60877 0.0
C1015 C 0.58554 0.82655 0.65268 0.0
C1016 C 0.55899 0.78637 0.57845 0.0
C1017 C 0.60461 0.8184 0.66436 0.0
C1018 C 0.60064 0.79412 0.63556 0.0
C1019 C 0.5739 0.75369 0.56323 0.0
C1020 C 0.55191 0.73829 0.51721 0.0
C1021 C 0.57783 0.7779 0.59303 0.0
C1022 C 0.53352 0.74695 0.50171 0.0
C1023 C 0.53677 0.77064 0.53319 0.0
H1024 H 0.26787 0.80632 0.43926 0.0
H1025 H 0.31931 0.83122 0.62816 0.0
H1026 H 0.28133 0.79901 0.70304 0.0
H1027 H 0.23289 0.76554 0.71548 0.0
H1028 H 0.18083 0.74515 0.52874 0.0
H1029 H 0.21965 0.77438 0.45219 0.0
C1030 C 0.27085 0.80498 0.49681 0.0
C1031 C 0.29641 0.82163 0.52791 0.0
C1032 C 0.24864 0.78758 0.54015 0.0
C1033 C 0.29992 0.81872 0.60246 0.0
C1034 C 0.27811 0.80051 0.64553 0.0
C1035 C 0.22979 0.76819 0.6588 0.0
C1036 C 0.20369 0.75384 0.6285 0.0
C1037 C 0.2522 0.78536 0.61531 0.0
C1038 C 0.20057 0.7563 0.55356 0.0
C1039 C 0.22277 0.77289 0.50978 0.0
H1040 H 0.19656 0.48441 0.61556 0.0
H1041 H 0.23156 0.49449 0.40153 0.0
H1042 H 0.26688 0.487 0.45053 0.0
H1043 H 0.2859 0.47444 0.55295 0.0
H1044 H 0.25406 0.4702 0.76884 0.0
H1045 H 0.21918 0.47766 0.72023 0.0
C1046 C 0.21226 0.48558 0.57987 0.0
C1047 C 0.21104 0.48933 0.50466 0.0
C1048 C 0.23259 0.48133 0.60845 0.0
C1049 C 0.23161 0.49087 0.45931 0.0
C1050 C 0.25181 0.48657 0.48729 0.0
C1051 C 0.27125 0.47499 0.58941 0.0
C1052 C 0.27186 0.4699 0.66421 0.0
C1053 C 0.25203 0.48101 0.56148 0.0
C1054 C 0.2532 0.47176 0.71067 0.0
C1055 C 0.2335 0.47686 0.683 0.0
H1056 H 0.19479 0.43017 0.09184 0.0
H1057 H 0.2296 0.50237 0.22045 0.0
H1058 H 0.27471 0.51599 0.17158 0.0
H1059 H 0.30406 0.50751 0.08812 0.0
H1060 H 0.26839 0.43365 0.96513 0.0
H1061 H 0.22408 0.42044 0.015 0.0
C1062 C 0.21238 0.44878 0.10887 0.0
C1063 C 0.20927 0.46538 0.15882 0.0
C1064 C 0.23805 0.45625 0.08093 0.0
C1065 C 0.23194 0.48946 0.18159 0.0
C1066 C 0.25759 0.49718 0.15372 0.0
C1067 C 0.28651 0.48861 0.07257 0.0
C1068 C 0.28914 0.47214 0.02053 0.0
C1069 C 0.26092 0.48082 0.10276 0.0
C1070 C 0.26648 0.44732 1.00207 0.0
C1071 C 0.24118 0.43954 0.03131 0.0
H1072 H 0.56776 0.74884 0.05688 0.0
H1073 H 0.56721 0.77911 0.27172 0.0
H1074 H 0.55693 0.81177 0.22082 0.0
H1075 H 0.54916 0.83302 0.11409 0.0
H1076 H 0.54436 0.79916 0.90099 0.0
H1077 H 0.55417 0.76592 0.9528 0.0
C1078 C 0.56552 0.76264 0.09272 0.0
C1079 C 0.57008 0.76231 0.16793 0.0
C1080 C 0.55784 0.78041 0.06345 0.0
C1081 C 0.56607 0.77986 0.2134 0.0
C1082 C 0.55935 0.79824 0.18435 0.0
C1083 C 0.54953 0.81792 0.07927 0.0
C1084 C 0.5464 0.81884 0.0036 0.0
C1085 C 0.55534 0.79884 0.10937 0.0
C1086 C 0.54704 0.79913 0.95931 0.0
C1087 C 0.55284 0.7802 0.9888 0.0
H1088 H 0.28112 0.82907 0.05909 0.0
H1089 H 0.2469 0.79921 0.27184 0.0
H1090 H 0.21429 0.75644 0.21945 0.0
H1091 H 0.19495 0.72717 0.11269 0.0
H1092 H 0.23282 0.75477 0.90269 0.0
H1093 H 0.26537 0.79817 0.95524 0.0
C1094 C 0.26643 0.8133 0.09413 0.0
C1095 C 0.26584 0.8183 0.16906 0.0
C1096 C 0.24878 0.78794 0.06434 0.0
C1097 C 0.24705 0.79715 0.21359 0.0
C1098 C 0.22869 0.77216 0.1838 0.0
C1099 C 0.21071 0.74243 0.07868 0.0
C1100 C 0.21108 0.738 0.00346 0.0
C1101 C 0.22939 0.76733 0.10929 0.0
C1102 C 0.23166 0.75798 0.96031 0.0
C1103 C 0.25024 0.78281 0.99031 0.0
H1104 H 0.12333 0.59116 0.89573 0.0
H1105 H 0.18031 0.64729 0.74026 0.0
H1106 H 0.17566 0.60981 0.66586 0.0
H1107 H 0.15338 0.56112 0.64174 0.0
H1108 H 0.09527 0.5051 0.79456 0.0
H1109 H 0.10253 0.54253 0.87428 0.0
C1110 C 0.1353 0.59525 0.84671 0.0
C1111 C 0.15237 0.62203 0.82408 0.0
C1112 C 0.1319 0.57362 0.80319 0.0
C1113 C 0.16717 0.62688 0.75916 0.0
C1114 C 0.16437 0.60546 0.71633 0.0
C1115 C 0.14195 0.55721 0.6918 0.0
C1116 C 0.12313 0.53054 0.71138 0.0
C1117 C 0.14629 0.57878 0.73695 0.0
C1118 C 0.10945 0.52556 0.77812 0.0
C1119 C 0.11369 0.54691 0.82357 0.0
H1120 H 0.3986 0.53561 0.72734 0.0
H1121 H 0.42801 0.56603 0.94275 0.0
H1122 H 0.472 0.59825 0.89261 0.0
H1123 H 0.50329 0.61527 0.78874 0.0
H1124 H 0.47304 0.58664 0.57281 0.0
H1125 H 0.42883 0.5556 0.62223 0.0
C1126 C 0.41437 0.54978 0.7632 0.0
C1127 C 0.4099 0.54833 0.83887 0.0
C1128 C 0.43994 0.56784 0.73418 0.0
C1129 C 0.43077 0.56668 0.8844 0.0
C1130 C 0.4561 0.58494 0.85581 0.0
C1131 C 0.48707 0.60209 0.75253 0.0
C1132 C 0.49219 0.60249 0.67738 0.0
C1133 C 0.46114 0.58512 0.78105 0.0
C1134 C 0.4706 0.58578 0.63114 0.0
C1135 C 0.4449 0.56839 0.65929 0.0
H1136 H 0.43424 0.88036 0.62034 0.0
H1137 H 0.43327 0.93441 0.78195 0.0
H1138 H 0.46339 0.92655 0.85929 0.0
H1139 H 0.49092 0.90587 0.87795 0.0
H1140 H 0.49463 0.85369 0.71512 0.0
H1141 H 0.4625 0.85944 0.63981 0.0
C1142 C 0.44124 0.89099 0.67148 0.0
C1143 C 0.43226 0.90864 0.69461 0.0
C1144 C 0.45864 0.88642 0.71534 0.0
C1145 C 0.44031 0.92111 0.76284 0.0
C1146 C 0.45739 0.91654 0.80696 0.0
C1147 C 0.48429 0.89515 0.82712 0.0
C1148 C 0.49478 0.87891 0.80318 0.0
C1149 C 0.46666 0.89927 0.78365 0.0
C1150 C 0.48659 0.86602 0.73533 0.0
C1151 C 0.46839 0.86947 0.69212 0.0
H1152 H 0.06165 0.29529 0.55226 0.0
H1153 H 0.07911 0.32854 0.76922 0.0
H1154 H 0.10232 0.37413 0.71896 0.0
H1155 H 0.11529 0.40453 0.61353 0.0
H1156 H 0.0999 0.37153 0.39635 0.0
H1157 H 0.07847 0.32586 0.44644 0.0
C1158 C 0.07068 0.31254 0.58848 0.0
C1159 C 0.06841 0.30855 0.66438 0.0
C1160 C 0.08431 0.33871 0.55916 0.0
C1161 C 0.08056 0.33106 0.71064 0.0
C1162 C 0.09375 0.35714 0.68193 0.0
C1163 C 0.10742 0.38733 0.57717 0.0
C1164 C 0.10891 0.39138 0.50134 0.0
C1165 C 0.09539 0.3612 0.60634 0.0
C1166 C 0.09899 0.36895 0.45489 0.0
C1167 C 0.08663 0.34283 0.48352 0.0
H1168 H 0.74223 0.78173 0.55534 0.0
H1169 H 0.70973 0.76588 0.77338 0.0
H1170 H 0.66376 0.74346 0.72453 0.0
H1171 H 0.63285 0.72574 0.61942 0.0
H1172 H 0.66562 0.74377 0.40162 0.0
H1173 H 0.71141 0.76809 0.4507 0.0
C1174 C 0.72506 0.77353 0.59215 0.0
C1175 C 0.72935 0.77517 0.66788 0.0
C1176 C 0.69875 0.76096 0.56367 0.0
C1177 C 0.70696 0.76487 0.71492 0.0
C1178 C 0.68068 0.75193 0.68698 0.0
C1179 C 0.65003 0.73515 0.58276 0.0
C1180 C 0.64585 0.73265 0.50692 0.0
C1181 C 0.67633 0.74943 0.61143 0.0
C1182 C 0.66827 0.74534 0.46013 0.0
C1183 C 0.69447 0.75917 0.48818 0.0
H1184 H 0.26823 0.95154 0.72429 0.0
H1185 H 0.24736 0.98108 0.5339 0.0
H1186 H 0.26478 0.95902 0.45506 0.0
H1187 H 0.28944 0.9342 0.43959 0.0
H1188 H 0.31283 0.90727 0.63043 0.0
H1189 H 0.29088 0.92496 0.70878 0.0
C1190 C 0.26721 0.95283 0.66559 0.0
C1191 C 0.25671 0.9681 0.63525 0.0
C1192 C 0.2779 0.9406 0.6202 0.0
C1193 C 0.25565 0.9697 0.55889 0.0
C1194 C 0.26558 0.95704 0.51354 0.0
C1195 C 0.28931 0.93189 0.49821 0.0
C1196 C 0.30283 0.9196 0.52909 0.0
C1197 C 0.27727 0.94286 0.54346 0.0
C1198 C 0.30274 0.91691 0.6053 0.0
C1199 C 0.29019 0.92702 0.6503 0.0
H1200 H 0.29613 0.05726 0.95132 0.0
H1201 H 0.33099 0.07761 0.73617 0.0
H1202 H 0.3764 0.10119 0.78897 0.0
H1203 H 0.40614 0.11336 0.89639 0.0
H1204 H 0.37109 0.09534 0.1116 0.0
H1205 H 0.32575 0.07363 0.05883 0.0
C1206 C 0.31369 0.06705 0.91602 0.0
C1207 C 0.31026 0.06542 0.83987 0.0
C1208 C 0.33964 0.08085 0.94684 0.0
C1209 C 0.33312 0.07857 0.79484 0.0
C1210 C 0.35907 0.09193 0.82506 0.0
C1211 C 0.38855 0.10483 0.93172 0.0
C1212 C 0.39195 0.10564 0.00787 0.0
C1213 C 0.36257 0.09278 0.90094 0.0
C1214 C 0.36902 0.09494 0.05295 0.0
C1215 C 0.3431 0.08244 0.02274 0.0
H1216 H 0.97406 0.2499 0.9478 0.0
H1217 H 0.95517 0.26348 0.73039 0.0
H1218 H 0.93025 0.28431 0.78013 0.0
H1219 H 0.91674 0.30162 0.88519 0.0
H1220 H 0.93388 0.28639 0.10282 0.0
H1221 H 0.95635 0.26298 0.0533 0.0
C1222 C 0.9643 0.25724 0.91135 0.0
C1223 C 0.96675 0.25547 0.83545 0.0
C1224 C 0.94979 0.26895 0.94039 0.0
C1225 C 0.95363 0.26464 0.78892 0.0
C1226 C 0.93947 0.27665 0.81736 0.0
C1227 C 0.92519 0.29297 0.92181 0.0
C1228 C 0.92394 0.29602 0.9976 0.0
C1229 C 0.93787 0.27938 0.89294 0.0
C1230 C 0.93459 0.28433 0.04434 0.0
C1231 C 0.94756 0.27107 0.01601 0.0
H1232 H 0.78702 0.7379 0.94585 0.0
H1233 H 0.77328 0.70584 0.72769 0.0
H1234 H 0.75145 0.66 0.77625 0.0
H1235 H 0.73347 0.62901 0.88055 0.0
H1236 H 0.74896 0.66096 0.09889 0.0
H1237 H 0.77314 0.70688 0.05051 0.0
C1238 C 0.77941 0.72086 0.90901 0.0
C1239 C 0.78144 0.72522 0.83328 0.0
C1240 C 0.76715 0.69457 0.93734 0.0
C1241 C 0.77192 0.70301 0.78616 0.0
C1242 C 0.75934 0.67679 0.8139 0.0
C1243 C 0.74235 0.64604 0.91752 0.0
C1244 C 0.73919 0.64162 0.99317 0.0
C1245 C 0.75642 0.67233 0.88933 0.0
C1246 C 0.75113 0.66383 0.04046 0.0
C1247 C 0.76484 0.69009 0.01282 0.0
H1248 H 0.91979 0.62897 0.3849 0.0
H1249 H 0.9359 0.6608 0.60332 0.0
H1250 H 0.9583 0.70678 0.55498 0.0
H1251 H 0.97599 0.73787 0.45023 0.0
H1252 H 0.95786 0.7058 0.23204 0.0
H1253 H 0.93341 0.65999 0.28065 0.0
C1254 C 0.92802 0.64599 0.42193 0.0
C1255 C 0.92646 0.64151 0.49759 0.0
C1256 C 0.9406 0.6723 0.39374 0.0
C1257 C 0.93683 0.66372 0.54491 0.0
C1258 C 0.94976 0.69001 0.51725 0.0
C1259 C 0.9665 0.72084 0.41336 0.0
C1260 C 0.96901 0.72523 0.33756 0.0
C1261 C 0.95219 0.69454 0.44174 0.0
C1262 C 0.95627 0.703 0.29052 0.0
C1263 C 0.94237 0.67678 0.3183 0.0
H1264 H 0.29622 0.25259 0.45012 0.0
H1265 H 0.33084 0.2667 0.2345 0.0
H1266 H 0.37623 0.28942 0.28655 0.0
H1267 H 0.40601 0.30799 0.39279 0.0
H1268 H 0.37181 0.29191 0.60889 0.0
H1269 H 0.32623 0.26706 0.55732 0.0
C1270 C 0.31372 0.26042 0.41458 0.0
C1271 C 0.31017 0.25822 0.33845 0.0
C1272 C 0.33976 0.27323 0.44497 0.0
C1273 C 0.333 0.26812 0.29316 0.0
C1274 C 0.35896 0.28124 0.32291 0.0
C1275 C 0.38856 0.2989 0.42861 0.0
C1276 C 0.39218 0.30209 0.50451 0.0
C1277 C 0.36256 0.28435 0.3986 0.0
C1278 C 0.36949 0.28979 0.55034 0.0
C1279 C 0.34346 0.27568 0.52082 0.0
H1280 H 0.76843 0.0799 0.27932 0.0
H1281 H 0.78704 0.04782 0.46839 0.0
H1282 H 0.76958 0.06959 0.54815 0.0
H1283 H 0.74533 0.09472 0.56466 0.0
H1284 H 0.72371 0.12396 0.37524 0.0
H1285 H 0.74601 0.1068 0.29616 0.0
C1286 C 0.76896 0.07803 0.33795 0.0
C1287 C 0.77884 0.06212 0.36767 0.0
C1288 C 0.75812 0.09003 0.3839 0.0
C1289 C 0.77924 0.05972 0.44393 0.0
C1290 C 0.76928 0.0722 0.48979 0.0
C1291 C 0.74594 0.09767 0.50623 0.0
C1292 C 0.73283 0.11049 0.47595 0.0
C1293 C 0.75812 0.08696 0.4605 0.0
C1294 C 0.7335 0.11394 0.39992 0.0
C1295 C 0.74625 0.10412 0.3545 0.0
H1296 H 0.66687 0.93462 0.938 0.0
H1297 H 0.61557 0.90356 0.12709 0.0
H1298 H 0.65499 0.92139 0.20623 0.0
H1299 H 0.70429 0.94952 0.22316 0.0
H1300 H 0.75524 0.98341 0.03425 0.0
H1301 H 0.71621 0.9609 0.95447 0.0
C1302 C 0.66444 0.93138 0.99635 0.0
C1303 C 0.63841 0.91786 0.02661 0.0
C1304 C 0.68726 0.94254 0.04205 0.0
C1305 C 0.63548 0.91408 0.10252 0.0
C1306 C 0.65801 0.92431 0.14793 0.0
C1307 C 0.7068 0.95164 0.16455 0.0
C1308 C 0.73259 0.96828 0.13489 0.0
C1309 C 0.68405 0.93916 0.1186 0.0
C1310 C 0.73553 0.97097 0.05868 0.0
C1311 C 0.71321 0.95805 0.01279 0.0
H1312 H 0.06327 0.78118 0.05371 0.0
H1313 H 0.08132 0.76499 0.26932 0.0
H1314 H 0.10467 0.74296 0.21703 0.0
H1315 H 0.11736 0.72576 0.11025 0.0
H1316 H 0.10104 0.74348 0.89446 0.0
H1317 H 0.07982 0.76771 0.94659 0.0
C1318 C 0.07247 0.77298 0.08925 0.0
C1319 C 0.07028 0.77444 0.16537 0.0
C1320 C 0.0861 0.76058 0.05876 0.0
C1321 C 0.08267 0.7641 0.21065 0.0
C1322 C 0.09594 0.75141 0.18076 0.0
C1323 C 0.10933 0.7351 0.07459 0.0
C1324 C 0.11048 0.73257 0.99856 0.0
C1325 C 0.09738 0.74915 0.10495 0.0
C1326 C 0.10039 0.74513 0.95309 0.0
C1327 C 0.08814 0.75887 0.98291 0.0
H1328 H 0.25778 0.29583 0.04661 0.0
H1329 H 0.27141 0.33021 0.26211 0.0
H1330 H 0.29396 0.37552 0.20983 0.0
H1331 H 0.31198 0.40526 0.10353 0.0
H1332 H 0.29662 0.37135 0.88748 0.0
H1333 H 0.27232 0.3258 0.93929 0.0
C1334 C 0.26556 0.31326 0.08209 0.0
C1335 C 0.26321 0.30969 0.15824 0.0
C1336 C 0.27823 0.33923 0.05157 0.0
C1337 C 0.27298 0.33241 0.20345 0.0
C1338 C 0.28597 0.35831 0.17358 0.0
C1339 C 0.30324 0.38788 0.06773 0.0
C1340 C 0.30642 0.39157 0.99183 0.0
C1341 C 0.28907 0.36194 0.09785 0.0
C1342 C 0.29451 0.36896 0.94604 0.0
C1343 C 0.28071 0.34297 0.97569 0.0
H1344 H 0.96084 0.39133 0.27726 0.0
H1345 H 0.99544 0.4091 0.06141 0.0
H1346 H 0.04082 0.43338 0.11342 0.0
H1347 H 0.07061 0.44703 0.22019 0.0
H1348 H 0.03607 0.43086 0.43607 0.0
H1349 H 0.99062 0.40864 0.38406 0.0
C1350 C 0.97832 0.40066 0.2416 0.0
C1351 C 0.97482 0.39814 0.16557 0.0
C1352 C 1.0043 0.41478 0.27189 0.0
C1353 C 0.99761 0.4107 0.12005 0.0
C1354 C 0.02355 0.4245 0.14978 0.0
C1355 C 0.05312 0.43878 0.25587 0.0
C1356 C 0.05666 0.44029 0.3319 0.0
C1357 C 0.02713 0.42627 0.22558 0.0
C1358 C 0.03386 0.42993 0.37742 0.0
C1359 C 0.00789 0.41712 0.34769 0.0
H1360 H 0.64343 0.58441 0.2746 0.0
H1361 H 0.62796 0.60338 0.05931 0.0
H1362 H 0.6043 0.62511 0.1119 0.0
H1363 H 0.59055 0.64108 0.21939 0.0
H1364 H 0.60438 0.62034 0.43441 0.0
H1365 H 0.62603 0.59672 0.38155 0.0
C1366 C 0.63474 0.59318 0.23919 0.0
C1367 C 0.63772 0.59262 0.16323 0.0
C1368 C 0.62099 0.60536 0.26976 0.0
C1369 C 0.62597 0.60361 0.11794 0.0
C1370 C 0.61255 0.61612 0.14799 0.0
C1371 C 0.59818 0.63125 0.25464 0.0
C1372 C 0.59619 0.63272 0.33072 0.0
C1373 C 0.61034 0.61749 0.22385 0.0
C1374 C 0.60573 0.61953 0.37571 0.0
C1375 C 0.61819 0.60611 0.34553 0.0
H1376 H 0.41853 0.99458 0.39389 0.0
H1377 H 0.38365 0.94495 0.20381 0.0
H1378 H 0.40566 0.98435 0.12538 0.0
H1379 H 0.43139 0.03369 0.11078 0.0
H1380 H 0.46418 0.08358 0.30116 0.0
H1381 H 0.44697 0.04377 0.37837 0.0
C1382 C 0.4161 0.99243 0.3353 0.0
C1383 C 0.3992 0.96691 0.30508 0.0
C1384 C 0.4284 0.01538 0.29007 0.0
C1385 C 0.39622 0.96444 0.22883 0.0
C1386 C 0.40886 0.98698 0.18365 0.0
C1387 C 0.43517 0.03574 0.16891 0.0
C1388 C 0.44886 0.06148 0.20016 0.0
C1389 C 0.42449 0.01267 0.21363 0.0
C1390 C 0.45344 0.0639 0.27582 0.0
C1391 C 0.44357 0.04114 0.32018 0.0
H1392 H 0.60303 0.99587 0.89458 0.0
H1393 H 0.57934 0.94499 0.70448 0.0
H1394 H 0.5954 0.98412 0.62537 0.0
H1395 H 0.62039 0.0334 0.60891 0.0
H1396 H 0.64656 0.08444 0.79871 0.0
H1397 H 0.62533 0.04518 0.87814 0.0
C1398 C 0.60104 0.99343 0.83596 0.0
C1399 C 0.59029 0.96764 0.80557 0.0
C1400 C 0.61103 0.01621 0.79019 0.0
C1401 C 0.58793 0.96474 0.72932 0.0
C1402 C 0.59708 0.9871 0.68382 0.0
C1403 C 0.62098 0.03584 0.66756 0.0
C1404 C 0.6352 0.06174 0.69771 0.0
C1405 C 0.60932 0.01304 0.71341 0.0
C1406 C 0.63598 0.06464 0.77401 0.0
C1407 C 0.62384 0.04218 0.81969 0.0
H1408 H 0.07231 0.63644 0.72068 0.0
H1409 H 0.03753 0.61957 0.93629 0.0
H1410 H 0.99213 0.59626 0.88395 0.0
H1411 H 0.9625 0.58344 0.77671 0.0
H1412 H 0.99747 0.59893 0.56131 0.0
H1413 H 0.04272 0.61992 0.61385 0.0
C1414 C 0.05478 0.62749 0.75623 0.0
C1415 C 0.05822 0.62998 0.83221 0.0
C1416 C 0.02884 0.61402 0.7258 0.0
C1417 C 0.03538 0.61793 0.87765 0.0
C1418 C 0.00944 0.60472 0.84773 0.0
C1419 C 0.98004 0.59128 0.74129 0.0
C1420 C 0.97669 0.58997 0.66521 0.0
C1421 C 1.00595 0.60309 0.77189 0.0
C1422 C 0.99953 0.59978 0.62 0.0
C1423 C 0.0254 0.61185 0.65 0.0
H1424 H 0.44216 0.42104 0.61003 0.0
H1425 H 0.45765 0.38792 0.80246 0.0
H1426 H 0.44124 0.41125 0.87943 0.0
H1427 H 0.41786 0.43725 0.89227 0.0
H1428 H 0.40022 0.46853 0.69994 0.0
H1429 H 0.42231 0.45034 0.6237 0.0
C1430 C 0.44227 0.41927 0.66879 0.0
C1431 C 0.45075 0.40243 0.70011 0.0
C1432 C 0.43227 0.43241 0.71321 0.0
C1433 C 0.45082 0.40039 0.77657 0.0
C1434 C 0.44148 0.4138 0.82092 0.0
C1435 C 0.41945 0.44058 0.83391 0.0
C1436 C 0.40732 0.45405 0.80183 0.0
C1437 C 0.43149 0.42932 0.78989 0.0
C1438 C 0.40925 0.458 0.72592 0.0
C1439 C 0.42181 0.44754 0.68214 0.0
loop_
_geom_bond_atom_site_label_1
_geom_bond_atom_site_label_2
_geom_bond_distance
_geom_bond_site_symmetry_2
_ccdc_geom_bond_type
Zn0 O1 2.055 . S
Zn0 O8 2.046 1_655 S
Zn0 N16 2.036 . S
Zn0 O28 2.053 1_655 S
Zn0 O30 2.066 . S
O1 Zn0 2.055 . S
O1 C4 1.259 . S
C2 O30 1.256 . S
C2 O31 1.244 1_655 S
Zn3 O5 2.046 . S
Zn3 O7 2.055 . S
Zn3 N9 2.036 . S
Zn3 O27 2.066 . S
Zn3 O31 2.053 . S
C4 O1 1.259 . S
C4 O5 1.254 1_655 S
O5 Zn3 2.046 . S
O5 C4 1.254 1_455 S
C6 O27 1.256 . S
C6 O28 1.244 . S
O7 Zn3 2.055 . S
O7 C29 1.259 . S
O8 Zn0 2.046 1_455 S
O8 C29 1.254 . S
N9 Zn3 2.036 . S
N9 C10 1.298 . S
N9 N12 1.398 . S
C10 N9 1.298 . S
C10 N13 1.367 . S
C10 C23 1.481 . S
C11 N12 1.299 . S
C11 N13 1.379 . S
N12 N9 1.398 . S
N12 C11 1.299 . S
N13 C10 1.367 . S
N13 C11 1.379 . S
C14 N16 1.298 . S
C14 N18 1.367 . S
C14 C22 1.481 . S
C15 N17 1.299 . S
C15 N18 1.379 . S
N16 Zn0 2.036 . S
N16 C14 1.298 . S
N16 N17 1.398 . S
N17 C15 1.299 . S
N17 N16 1.398 . S
N18 C14 1.367 . S
N18 C15 1.379 . S
H19 C22 0.980 . S
H20 C22 0.981 . S
H21 C22 0.981 . S
C22 C14 1.481 . S
C22 H19 0.980 . S
C22 H20 0.981 . S
C22 H21 0.981 . S
C23 C10 1.481 . S
C23 H24 0.980 . S
C23 H25 0.981 . S
C23 H26 0.981 . S
H24 C23 0.980 . S
H25 C23 0.981 . S
H26 C23 0.981 . S
O27 Zn3 2.066 . S
O27 C6 1.256 . S
O28 Zn0 2.053 1_455 S
O28 C6 1.244 . S
C29 O7 1.259 . S
C29 O8 1.254 . S
O30 Zn0 2.066 . S
O30 C2 1.256 . S
O31 C2 1.244 1_455 S
O31 Zn3 2.053 . S
Zn32 O33 2.055 . S
Zn32 O40 2.046 . S
Zn32 N48 2.036 . S
Zn32 O60 2.053 . S
Zn32 O62 2.066 . S
O33 Zn32 2.055 . S
O33 C36 1.259 . S
C34 O62 1.256 . S
C34 O63 1.244 . S
Zn35 O37 2.046 . S
Zn35 O39 2.055 . S
Zn35 N41 2.036 . S
Zn35 O59 2.066 . S
Zn35 O63 2.053 . S
C36 O33 1.259 . S
C36 O37 1.254 . S
O37 Zn35 2.046 . S
O37 C36 1.254 . S
C38 O59 1.256 . S
C38 O60 1.244 . S
O39 Zn35 2.055 . S
O39 C61 1.259 . S
O40 Zn32 2.046 . S
O40 C61 1.254 . S
N41 Zn35 2.036 . S
N41 C42 1.298 . S
N41 N44 1.398 . S
C42 N41 1.298 . S
C42 N45 1.367 . S
C42 C55 1.481 . S
C43 N44 1.299 . S
C43 N45 1.379 . S
N44 N41 1.398 . S
N44 C43 1.299 . S
N45 C42 1.367 . S
N45 C43 1.379 . S
C46 N48 1.298 . S
C46 N50 1.367 . S
C46 C54 1.481 . S
C47 N49 1.299 . S
C47 N50 1.379 . S
N48 Zn32 2.036 . S
N48 C46 1.298 . S
N48 N49 1.398 . S
N49 C47 1.299 . S
N49 N48 1.398 . S
N50 C46 1.367 . S
N50 C47 1.379 . S
H51 C54 0.980 . S
H52 C54 0.981 . S
H53 C54 0.981 . S
C54 C46 1.481 . S
C54 H51 0.980 . S
C54 H52 0.981 . S
C54 H53 0.981 . S
C55 C42 1.481 . S
C55 H56 0.980 . S
C55 H57 0.981 . S
C55 H58 0.981 . S
H56 C55 0.980 . S
H57 C55 0.981 . S
H58 C55 0.981 . S
O59 Zn35 2.066 . S
O59 C38 1.256 . S
O60 Zn32 2.053 . S
O60 C38 1.244 . S
C61 O39 1.259 . S
C61 O40 1.254 . S
O62 Zn32 2.066 . S
O62 C34 1.256 . S
O63 C34 1.244 . S
O63 Zn35 2.053 . S
Zn64 O65 2.055 . S
Zn64 O72 2.046 1_565 S
Zn64 N80 2.036 . S
Zn64 O92 2.053 1_565 S
Zn64 O94 2.066 . S
O65 Zn64 2.055 . S
O65 C68 1.259 . S
C66 O94 1.256 . S
C66 O95 1.244 1_565 S
Zn67 O69 2.046 . S
Zn67 O71 2.055 . S
Zn67 N73 2.036 . S
Zn67 O91 2.066 . S
Zn67 O95 2.053 . S
C68 O65 1.259 . S
C68 O69 1.254 1_565 S
O69 Zn67 2.046 . S
O69 C68 1.254 1_545 S
C70 O91 1.256 . S
C70 O92 1.244 . S
O71 Zn67 2.055 . S
O71 C93 1.259 . S
O72 Zn64 2.046 1_545 S
O72 C93 1.254 . S
N73 Zn67 2.036 . S
N73 C74 1.298 . S
N73 N76 1.398 . S
C74 N73 1.298 . S
C74 N77 1.367 . S
C74 C87 1.481 . S
C75 N76 1.299 . S
C75 N77 1.379 . S
N76 N73 1.398 . S
N76 C75 1.299 . S
N77 C74 1.367 . S
N77 C75 1.379 . S
C78 N80 1.298 . S
C78 N82 1.367 . S
C78 C86 1.481 . S
C79 N81 1.299 . S
C79 N82 1.379 . S
N80 Zn64 2.036 . S
N80 C78 1.298 . S
N80 N81 1.398 . S
N81 C79 1.299 . S
N81 N80 1.398 . S
N82 C78 1.367 . S
N82 C79 1.379 . S
H83 C86 0.980 . S
H84 C86 0.981 . S
H85 C86 0.981 . S
C86 C78 1.481 . S
C86 H83 0.980 . S
C86 H84 0.981 . S
C86 H85 0.981 . S
C87 C74 1.481 . S
C87 H88 0.980 . S
C87 H89 0.981 . S
C87 H90 0.981 . S
H88 C87 0.980 . S
H89 C87 0.981 . S
H90 C87 0.981 . S
O91 Zn67 2.066 . S
O91 C70 1.256 . S
O92 Zn64 2.053 1_545 S
O92 C70 1.244 . S
C93 O71 1.259 . S
C93 O72 1.254 . S
O94 Zn64 2.066 . S
O94 C66 1.256 . S
O95 C66 1.244 1_545 S
O95 Zn67 2.053 . S
Zn96 O97 2.055 . S
Zn96 O104 2.046 . S
Zn96 N112 2.036 . S
Zn96 O124 2.053 . S
Zn96 O126 2.066 . S
O97 Zn96 2.055 . S
O97 C100 1.259 . S
C98 O126 1.256 . S
C98 O127 1.244 . S
Zn99 O101 2.046 1_655 S
Zn99 O103 2.055 . S
Zn99 N105 2.036 . S
Zn99 O123 2.066 . S
Zn99 O127 2.053 1_655 S
C100 O97 1.259 . S
C100 O101 1.254 . S
O101 Zn99 2.046 1_455 S
O101 C100 1.254 . S
C102 O123 1.256 . S
C102 O124 1.244 1_655 S
O103 Zn99 2.055 . S
O103 C125 1.259 . S
O104 Zn96 2.046 . S
O104 C125 1.254 1_455 S
N105 Zn99 2.036 . S
N105 C106 1.298 . S
N105 N108 1.398 . S
C106 N105 1.298 . S
C106 N109 1.367 . S
C106 C119 1.481 . S
C107 N108 1.299 . S
C107 N109 1.379 . S
N108 N105 1.398 . S
N108 C107 1.299 . S
N109 C106 1.367 . S
N109 C107 1.379 . S
C110 N112 1.298 . S
C110 N114 1.367 . S
C110 C118 1.481 . S
C111 N113 1.299 . S
C111 N114 1.379 . S
N112 Zn96 2.036 . S
N112 C110 1.298 . S
N112 N113 1.398 . S
N113 C111 1.299 . S
N113 N112 1.398 . S
N114 C110 1.367 . S
N114 C111 1.379 . S
H115 C118 0.980 . S
H116 C118 0.981 . S
H117 C118 0.981 . S
C118 C110 1.481 . S
C118 H115 0.980 . S
C118 H116 0.981 . S
C118 H117 0.981 . S
C119 C106 1.481 . S
C119 H120 0.980 . S
C119 H121 0.981 . S
C119 H122 0.981 . S
H120 C119 0.980 . S
H121 C119 0.981 . S
H122 C119 0.981 . S
O123 Zn99 2.066 . S
O123 C102 1.256 . S
O124 Zn96 2.053 . S
O124 C102 1.244 1_455 S
C125 O103 1.259 . S
C125 O104 1.254 1_655 S
O126 Zn96 2.066 . S
O126 C98 1.256 . S
O127 C98 1.244 . S
O127 Zn99 2.053 1_455 S
Zn128 O129 2.055 . S
Zn128 O136 2.046 . S
Zn128 N144 2.036 . S
Zn128 O156 2.053 . S
Zn128 O158 2.066 . S
O129 Zn128 2.055 . S
O129 C132 1.259 . S
C130 O158 1.256 . S
C130 O159 1.244 . S
Zn131 O133 2.046 . S
Zn131 O135 2.055 . S
Zn131 N137 2.036 . S
Zn131 O155 2.066 . S
Zn131 O159 2.053 . S
C132 O129 1.259 . S
C132 O133 1.254 . S
O133 Zn131 2.046 . S
O133 C132 1.254 . S
C134 O155 1.256 . S
C134 O156 1.244 . S
O135 Zn131 2.055 . S
O135 C157 1.259 . S
O136 Zn128 2.046 . S
O136 C157 1.254 . S
N137 Zn131 2.036 . S
N137 C138 1.298 . S
N137 N140 1.398 . S
C138 N137 1.298 . S
C138 N141 1.367 . S
C138 C151 1.481 . S
C139 N140 1.299 . S
C139 N141 1.379 . S
N140 N137 1.398 . S
N140 C139 1.299 . S
N141 C138 1.367 . S
N141 C139 1.379 . S
C142 N144 1.298 . S
C142 N146 1.367 . S
C142 C150 1.481 . S
C143 N145 1.299 . S
C143 N146 1.379 . S
N144 Zn128 2.036 . S
N144 C142 1.298 . S
N144 N145 1.398 . S
N145 C143 1.299 . S
N145 N144 1.398 . S
N146 C142 1.367 . S
N146 C143 1.379 . S
H147 C150 0.980 . S
H148 C150 0.981 . S
H149 C150 0.981 . S
C150 C142 1.481 . S
C150 H147 0.980 . S
C150 H148 0.981 . S
C150 H149 0.981 . S
C151 C138 1.481 . S
C151 H152 0.980 . S
C151 H153 0.981 . S
C151 H154 0.981 . S
H152 C151 0.980 . S
H153 C151 0.981 . S
H154 C151 0.981 . S
O155 Zn131 2.066 . S
O155 C134 1.256 . S
O156 Zn128 2.053 . S
O156 C134 1.244 . S
C157 O135 1.259 . S
C157 O136 1.254 . S
O158 Zn128 2.066 . S
O158 C130 1.256 . S
O159 C130 1.244 . S
O159 Zn131 2.053 . S
Zn160 O161 2.055 . S
Zn160 O168 2.046 1_565 S
Zn160 N176 2.036 . S
Zn160 O188 2.053 1_565 S
Zn160 O190 2.066 . S
O161 Zn160 2.055 . S
O161 C164 1.259 . S
C162 O190 1.256 . S
C162 O191 1.244 1_565 S
Zn163 O165 2.046 . S
Zn163 O167 2.055 . S
Zn163 N169 2.036 . S
Zn163 O187 2.066 . S
Zn163 O191 2.053 . S
C164 O161 1.259 . S
C164 O165 1.254 1_565 S
O165 Zn163 2.046 . S
O165 C164 1.254 1_545 S
C166 O187 1.256 . S
C166 O188 1.244 . S
O167 Zn163 2.055 . S
O167 C189 1.259 . S
O168 Zn160 2.046 1_545 S
O168 C189 1.254 . S
N169 Zn163 2.036 . S
N169 C170 1.298 . S
N169 N172 1.398 . S
C170 N169 1.298 . S
C170 N173 1.367 . S
C170 C183 1.481 . S
C171 N172 1.299 . S
C171 N173 1.379 . S
N172 N169 1.398 . S
N172 C171 1.299 . S
N173 C170 1.367 . S
N173 C171 1.379 . S
C174 N176 1.298 . S
C174 N178 1.367 . S
C174 C182 1.481 . S
C175 N177 1.299 . S
C175 N178 1.379 . S
N176 Zn160 2.036 . S
N176 C174 1.298 . S
N176 N177 1.398 . S
N177 C175 1.299 . S
N177 N176 1.398 . S
N178 C174 1.367 . S
N178 C175 1.379 . S
H179 C182 0.980 . S
H180 C182 0.981 . S
H181 C182 0.981 . S
C182 C174 1.481 . S
C182 H179 0.980 . S
C182 H180 0.981 . S
C182 H181 0.981 . S
C183 C170 1.481 . S
C183 H184 0.980 . S
C183 H185 0.981 . S
C183 H186 0.981 . S
H184 C183 0.980 . S
H185 C183 0.981 . S
H186 C183 0.981 . S
O187 Zn163 2.066 . S
O187 C166 1.256 . S
O188 Zn160 2.053 1_545 S
O188 C166 1.244 . S
C189 O167 1.259 . S
C189 O168 1.254 . S
O190 Zn160 2.066 . S
O190 C162 1.256 . S
O191 C162 1.244 1_545 S
O191 Zn163 2.053 . S
Zn192 O193 2.055 . S
Zn192 O200 2.046 1_554 S
Zn192 N208 2.036 1_554 S
Zn192 O220 2.053 1_554 S
Zn192 O222 2.066 . S
O193 Zn192 2.055 . S
O193 C196 1.259 . S
C194 O222 1.256 . S
C194 O223 1.244 . S
Zn195 O197 2.046 . S
Zn195 O199 2.055 . S
Zn195 N201 2.036 . S
Zn195 O219 2.066 . S
Zn195 O223 2.053 . S
C196 O193 1.259 . S
C196 O197 1.254 . S
O197 Zn195 2.046 . S
O197 C196 1.254 . S
C198 O219 1.256 . S
C198 O220 1.244 1_554 S
O199 Zn195 2.055 . S
O199 C221 1.259 . S
O200 Zn192 2.046 1_556 S
O200 C221 1.254 1_556 S
N201 Zn195 2.036 . S
N201 C202 1.298 . S
N201 N204 1.398 . S
C202 N201 1.298 . S
C202 N205 1.367 . S
C202 C215 1.481 . S
C203 N204 1.299 . S
C203 N205 1.379 . S
N204 N201 1.398 . S
N204 C203 1.299 . S
N205 C202 1.367 . S
N205 C203 1.379 . S
C206 N208 1.298 . S
C206 N210 1.367 . S
C206 C214 1.481 1_556 S
C207 N209 1.299 . S
C207 N210 1.379 . S
N208 Zn192 2.036 1_556 S
N208 C206 1.298 . S
N208 N209 1.398 . S
N209 C207 1.299 . S
N209 N208 1.398 . S
N210 C206 1.367 . S
N210 C207 1.379 . S
H211 C214 0.980 . S
H212 C214 0.981 1_556 S
H213 C214 0.981 . S
C214 C206 1.481 1_554 S
C214 H211 0.980 . S
C214 H212 0.981 1_554 S
C214 H213 0.981 . S
C215 C202 1.481 . S
C215 H216 0.980 . S
C215 H217 0.981 . S
C215 H218 0.981 . S
H216 C215 0.980 . S
H217 C215 0.981 . S
H218 C215 0.981 . S
O219 Zn195 2.066 . S
O219 C198 1.256 . S
O220 Zn192 2.053 1_556 S
O220 C198 1.244 1_556 S
C221 O199 1.259 . S
C221 O200 1.254 1_554 S
O222 Zn192 2.066 . S
O222 C194 1.256 . S
O223 C194 1.244 . S
O223 Zn195 2.053 . S
Zn224 O225 2.055 . S
Zn224 O232 2.046 1_554 S
Zn224 N240 2.036 1_554 S
Zn224 O252 2.053 1_554 S
Zn224 O254 2.066 . S
O225 Zn224 2.055 . S
O225 C228 1.259 . S
C226 O254 1.256 . S
C226 O255 1.244 . S
Zn227 O229 2.046 . S
Zn227 O231 2.055 . S
Zn227 N233 2.036 . S
Zn227 O251 2.066 . S
Zn227 O255 2.053 . S
C228 O225 1.259 . S
C228 O229 1.254 . S
O229 Zn227 2.046 . S
O229 C228 1.254 . S
C230 O251 1.256 . S
C230 O252 1.244 1_554 S
O231 Zn227 2.055 . S
O231 C253 1.259 . S
O232 Zn224 2.046 1_556 S
O232 C253 1.254 1_556 S
N233 Zn227 2.036 . S
N233 C234 1.298 . S
N233 N236 1.398 . S
C234 N233 1.298 . S
C234 N237 1.367 . S
C234 C247 1.481 . S
C235 N236 1.299 . S
C235 N237 1.379 . S
N236 N233 1.398 . S
N236 C235 1.299 . S
N237 C234 1.367 . S
N237 C235 1.379 . S
C238 N240 1.298 . S
C238 N242 1.367 . S
C238 C246 1.481 1_556 S
C239 N241 1.299 . S
C239 N242 1.379 . S
N240 Zn224 2.036 1_556 S
N240 C238 1.298 . S
N240 N241 1.398 . S
N241 C239 1.299 . S
N241 N240 1.398 . S
N242 C238 1.367 . S
N242 C239 1.379 . S
H243 C246 0.980 . S
H244 C246 0.981 1_556 S
H245 C246 0.981 . S
C246 C238 1.481 1_554 S
C246 H243 0.980 . S
C246 H244 0.981 1_554 S
C246 H245 0.981 . S
C247 C234 1.481 . S
C247 H248 0.980 . S
C247 H249 0.981 . S
C247 H250 0.981 . S
H248 C247 0.980 . S
H249 C247 0.981 . S
H250 C247 0.981 . S
O251 Zn227 2.066 . S
O251 C230 1.256 . S
O252 Zn224 2.053 1_556 S
O252 C230 1.244 1_556 S
C253 O231 1.259 . S
C253 O232 1.254 1_554 S
O254 Zn224 2.066 . S
O254 C226 1.256 . S
O255 C226 1.244 . S
O255 Zn227 2.053 . S
Zn256 O257 2.055 . S
Zn256 O264 2.046 1_554 S
Zn256 N272 2.036 1_554 S
Zn256 O284 2.053 1_554 S
Zn256 O286 2.066 . S
O257 Zn256 2.055 . S
O257 C260 1.259 . S
C258 O286 1.256 . S
C258 O287 1.244 . S
Zn259 O261 2.046 . S
Zn259 O263 2.055 . S
Zn259 N265 2.036 . S
Zn259 O283 2.066 . S
Zn259 O287 2.053 . S
C260 O257 1.259 . S
C260 O261 1.254 . S
O261 Zn259 2.046 . S
O261 C260 1.254 . S
C262 O283 1.256 . S
C262 O284 1.244 1_554 S
O263 Zn259 2.055 . S
O263 C285 1.259 . S
O264 Zn256 2.046 1_556 S
O264 C285 1.254 1_556 S
N265 Zn259 2.036 . S
N265 C266 1.298 . S
N265 N268 1.398 . S
C266 N265 1.298 . S
C266 N269 1.367 . S
C266 C279 1.481 . S
C267 N268 1.299 . S
C267 N269 1.379 . S
N268 N265 1.398 . S
N268 C267 1.299 . S
N269 C266 1.367 . S
N269 C267 1.379 . S
C270 N272 1.298 . S
C270 N274 1.367 . S
C270 C278 1.481 1_556 S
C271 N273 1.299 . S
C271 N274 1.379 . S
N272 Zn256 2.036 1_556 S
N272 C270 1.298 . S
N272 N273 1.398 . S
N273 C271 1.299 . S
N273 N272 1.398 . S
N274 C270 1.367 . S
N274 C271 1.379 . S
H275 C278 0.980 . S
H276 C278 0.981 1_556 S
H277 C278 0.981 . S
C278 C270 1.481 1_554 S
C278 H275 0.980 . S
C278 H276 0.981 1_554 S
C278 H277 0.981 . S
C279 C266 1.481 . S
C279 H280 0.980 . S
C279 H281 0.981 . S
C279 H282 0.981 . S
H280 C279 0.980 . S
H281 C279 0.981 . S
H282 C279 0.981 . S
O283 Zn259 2.066 . S
O283 C262 1.256 . S
O284 Zn256 2.053 1_556 S
O284 C262 1.244 1_556 S
C285 O263 1.259 . S
C285 O264 1.254 1_554 S
O286 Zn256 2.066 . S
O286 C258 1.256 . S
O287 C258 1.244 . S
O287 Zn259 2.053 . S
Zn288 O289 2.055 . S
Zn288 O296 2.046 . S
Zn288 N304 2.036 . S
Zn288 O316 2.053 . S
Zn288 O318 2.066 . S
O289 Zn288 2.055 . S
O289 C292 1.259 . S
C290 O318 1.256 . S
C290 O319 1.244 . S
Zn291 O293 2.046 . S
Zn291 O295 2.055 . S
Zn291 N297 2.036 . S
Zn291 O315 2.066 . S
Zn291 O319 2.053 . S
C292 O289 1.259 . S
C292 O293 1.254 . S
O293 Zn291 2.046 . S
O293 C292 1.254 . S
C294 O315 1.256 . S
C294 O316 1.244 . S
O295 Zn291 2.055 . S
O295 C317 1.259 . S
O296 Zn288 2.046 . S
O296 C317 1.254 . S
N297 Zn291 2.036 . S
N297 C298 1.298 . S
N297 N300 1.398 . S
C298 N297 1.298 . S
C298 N301 1.367 . S
C298 C311 1.481 . S
C299 N300 1.299 . S
C299 N301 1.379 . S
N300 N297 1.398 . S
N300 C299 1.299 . S
N301 C298 1.367 . S
N301 C299 1.379 . S
C302 N304 1.298 . S
C302 N306 1.367 . S
C302 C310 1.481 . S
C303 N305 1.299 . S
C303 N306 1.379 . S
N304 Zn288 2.036 . S
N304 C302 1.298 . S
N304 N305 1.398 . S
N305 C303 1.299 . S
N305 N304 1.398 . S
N306 C302 1.367 . S
N306 C303 1.379 . S
H307 C310 0.980 . S
H308 C310 0.981 . S
H309 C310 0.981 . S
C310 C302 1.481 . S
C310 H307 0.980 . S
C310 H308 0.981 . S
C310 H309 0.981 . S
C311 C298 1.481 . S
C311 H312 0.980 . S
C311 H313 0.981 . S
C311 H314 0.981 . S
H312 C311 0.980 . S
H313 C311 0.981 . S
H314 C311 0.981 . S
O315 Zn291 2.066 . S
O315 C294 1.256 . S
O316 Zn288 2.053 . S
O316 C294 1.244 . S
C317 O295 1.259 . S
C317 O296 1.254 . S
O318 Zn288 2.066 . S
O318 C290 1.256 . S
O319 C290 1.244 . S
O319 Zn291 2.053 . S
Zn320 O321 2.055 . S
Zn320 O328 2.046 . S
Zn320 N336 2.036 . S
Zn320 O348 2.053 . S
Zn320 O350 2.066 . S
O321 Zn320 2.055 . S
O321 C324 1.259 . S
C322 O350 1.256 . S
C322 O351 1.244 . S
Zn323 O325 2.046 . S
Zn323 O327 2.055 . S
Zn323 N329 2.036 . S
Zn323 O347 2.066 . S
Zn323 O351 2.053 . S
C324 O321 1.259 . S
C324 O325 1.254 . S
O325 Zn323 2.046 . S
O325 C324 1.254 . S
C326 O347 1.256 . S
C326 O348 1.244 . S
O327 Zn323 2.055 . S
O327 C349 1.259 . S
O328 Zn320 2.046 . S
O328 C349 1.254 . S
N329 Zn323 2.036 . S
N329 C330 1.298 . S
N329 N332 1.398 . S
C330 N329 1.298 . S
C330 N333 1.367 . S
C330 C343 1.481 . S
C331 N332 1.299 . S
C331 N333 1.379 . S
N332 N329 1.398 . S
N332 C331 1.299 . S
N333 C330 1.367 . S
N333 C331 1.379 . S
C334 N336 1.298 . S
C334 N338 1.367 . S
C334 C342 1.481 . S
C335 N337 1.299 . S
C335 N338 1.379 . S
N336 Zn320 2.036 . S
N336 C334 1.298 . S
N336 N337 1.398 . S
N337 C335 1.299 . S
N337 N336 1.398 . S
N338 C334 1.367 . S
N338 C335 1.379 . S
H339 C342 0.980 . S
H340 C342 0.981 . S
H341 C342 0.981 . S
C342 C334 1.481 . S
C342 H339 0.980 . S
C342 H340 0.981 . S
C342 H341 0.981 . S
C343 C330 1.481 . S
C343 H344 0.980 . S
C343 H345 0.981 . S
C343 H346 0.981 . S
H344 C343 0.980 . S
H345 C343 0.981 . S
H346 C343 0.981 . S
O347 Zn323 2.066 . S
O347 C326 1.256 . S
O348 Zn320 2.053 . S
O348 C326 1.244 . S
C349 O327 1.259 . S
C349 O328 1.254 . S
O350 Zn320 2.066 . S
O350 C322 1.256 . S
O351 C322 1.244 . S
O351 Zn323 2.053 . S
Zn352 O353 2.055 . S
Zn352 O360 2.046 . S
Zn352 N368 2.036 . S
Zn352 O380 2.053 . S
Zn352 O382 2.066 . S
O353 Zn352 2.055 . S
O353 C356 1.259 . S
C354 O382 1.256 . S
C354 O383 1.244 . S
Zn355 O357 2.046 . S
Zn355 O359 2.055 . S
Zn355 N361 2.036 . S
Zn355 O379 2.066 . S
Zn355 O383 2.053 . S
C356 O353 1.259 . S
C356 O357 1.254 . S
O357 Zn355 2.046 . S
O357 C356 1.254 . S
C358 O379 1.256 . S
C358 O380 1.244 . S
O359 Zn355 2.055 . S
O359 C381 1.259 . S
O360 Zn352 2.046 . S
O360 C381 1.254 . S
N361 Zn355 2.036 . S
N361 C362 1.298 . S
N361 N364 1.398 . S
C362 N361 1.298 . S
C362 N365 1.367 . S
C362 C375 1.481 . S
C363 N364 1.299 . S
C363 N365 1.379 . S
N364 N361 1.398 . S
N364 C363 1.299 . S
N365 C362 1.367 . S
N365 C363 1.379 . S
C366 N368 1.298 . S
C366 N370 1.367 . S
C366 C374 1.481 . S
C367 N369 1.299 . S
C367 N370 1.379 . S
N368 Zn352 2.036 . S
N368 C366 1.298 . S
N368 N369 1.398 . S
N369 C367 1.299 . S
N369 N368 1.398 . S
N370 C366 1.367 . S
N370 C367 1.379 . S
H371 C374 0.980 . S
H372 C374 0.981 . S
H373 C374 0.981 . S
C374 C366 1.481 . S
C374 H371 0.980 . S
C374 H372 0.981 . S
C374 H373 0.981 . S
C375 C362 1.481 . S
C375 H376 0.980 . S
C375 H377 0.981 . S
C375 H378 0.981 . S
H376 C375 0.980 . S
H377 C375 0.981 . S
H378 C375 0.981 . S
O379 Zn355 2.066 . S
O379 C358 1.256 . S
O380 Zn352 2.053 . S
O380 C358 1.244 . S
C381 O359 1.259 . S
C381 O360 1.254 . S
O382 Zn352 2.066 . S
O382 C354 1.256 . S
O383 C354 1.244 . S
O383 Zn355 2.053 . S
Zn384 O385 2.055 . S
Zn384 O392 2.046 . S
Zn384 N400 2.036 . S
Zn384 O412 2.053 . S
Zn384 O414 2.066 . S
O385 Zn384 2.055 . S
O385 C388 1.259 . S
C386 O414 1.256 . S
C386 O415 1.244 . S
Zn387 O389 2.046 . S
Zn387 O391 2.055 . S
Zn387 N393 2.036 . S
Zn387 O411 2.066 . S
Zn387 O415 2.053 . S
C388 O385 1.259 . S
C388 O389 1.254 . S
O389 Zn387 2.046 . S
O389 C388 1.254 . S
C390 O411 1.256 . S
C390 O412 1.244 . S
O391 Zn387 2.055 . S
O391 C413 1.259 . S
O392 Zn384 2.046 . S
O392 C413 1.254 . S
N393 Zn387 2.036 . S
N393 C394 1.298 . S
N393 N396 1.398 . S
C394 N393 1.298 . S
C394 N397 1.367 . S
C394 C407 1.481 . S
C395 N396 1.299 . S
C395 N397 1.379 . S
N396 N393 1.398 . S
N396 C395 1.299 . S
N397 C394 1.367 . S
N397 C395 1.379 . S
C398 N400 1.298 . S
C398 N402 1.367 . S
C398 C406 1.481 . S
C399 N401 1.299 . S
C399 N402 1.379 . S
N400 Zn384 2.036 . S
N400 C398 1.298 . S
N400 N401 1.398 . S
N401 C399 1.299 . S
N401 N400 1.398 . S
N402 C398 1.367 . S
N402 C399 1.379 . S
H403 C406 0.980 . S
H404 C406 0.981 . S
H405 C406 0.981 . S
C406 C398 1.481 . S
C406 H403 0.980 . S
C406 H404 0.981 . S
C406 H405 0.981 . S
C407 C394 1.481 . S
C407 H408 0.980 . S
C407 H409 0.981 . S
C407 H410 0.981 . S
H408 C407 0.980 . S
H409 C407 0.981 . S
H410 C407 0.981 . S
O411 Zn387 2.066 . S
O411 C390 1.256 . S
O412 Zn384 2.053 . S
O412 C390 1.244 . S
C413 O391 1.259 . S
C413 O392 1.254 . S
O414 Zn384 2.066 . S
O414 C386 1.256 . S
O415 C386 1.244 . S
O415 Zn387 2.053 . S
Zn416 O417 2.055 . S
Zn416 O424 2.046 . S
Zn416 N432 2.036 . S
Zn416 O444 2.053 . S
Zn416 O446 2.066 . S
O417 Zn416 2.055 . S
O417 C420 1.259 . S
C418 O446 1.256 . S
C418 O447 1.244 . S
Zn419 O421 2.046 . S
Zn419 O423 2.055 . S
Zn419 N425 2.036 . S
Zn419 O443 2.066 . S
Zn419 O447 2.053 . S
C420 O417 1.259 . S
C420 O421 1.254 . S
O421 Zn419 2.046 . S
O421 C420 1.254 . S
C422 O443 1.256 . S
C422 O444 1.244 . S
O423 Zn419 2.055 . S
O423 C445 1.259 . S
O424 Zn416 2.046 . S
O424 C445 1.254 . S
N425 Zn419 2.036 . S
N425 C426 1.298 . S
N425 N428 1.398 . S
C426 N425 1.298 . S
C426 N429 1.367 . S
C426 C439 1.481 . S
C427 N428 1.299 . S
C427 N429 1.379 . S
N428 N425 1.398 . S
N428 C427 1.299 . S
N429 C426 1.367 . S
N429 C427 1.379 . S
C430 N432 1.298 . S
C430 N434 1.367 . S
C430 C438 1.481 . S
C431 N433 1.299 . S
C431 N434 1.379 . S
N432 Zn416 2.036 . S
N432 C430 1.298 . S
N432 N433 1.398 . S
N433 C431 1.299 . S
N433 N432 1.398 . S
N434 C430 1.367 . S
N434 C431 1.379 . S
H435 C438 0.980 . S
H436 C438 0.981 . S
H437 C438 0.981 . S
C438 C430 1.481 . S
C438 H435 0.980 . S
C438 H436 0.981 . S
C438 H437 0.981 . S
C439 C426 1.481 . S
C439 H440 0.980 . S
C439 H441 0.981 . S
C439 H442 0.981 . S
H440 C439 0.980 . S
H441 C439 0.981 . S
H442 C439 0.981 . S
O443 Zn419 2.066 . S
O443 C422 1.256 . S
O444 Zn416 2.053 . S
O444 C422 1.244 . S
C445 O423 1.259 . S
C445 O424 1.254 . S
O446 Zn416 2.066 . S
O446 C418 1.256 . S
O447 C418 1.244 . S
O447 Zn419 2.053 . S
Zn448 O449 2.055 . S
Zn448 O456 2.046 . S
Zn448 N464 2.036 . S
Zn448 O476 2.053 . S
Zn448 O478 2.066 . S
O449 Zn448 2.055 . S
O449 C452 1.259 . S
C450 O478 1.256 . S
C450 O479 1.244 . S
Zn451 O453 2.046 . S
Zn451 O455 2.055 . S
Zn451 N457 2.036 . S
Zn451 O475 2.066 . S
Zn451 O479 2.053 . S
C452 O449 1.259 . S
C452 O453 1.254 . S
O453 Zn451 2.046 . S
O453 C452 1.254 . S
C454 O475 1.256 . S
C454 O476 1.244 . S
O455 Zn451 2.055 . S
O455 C477 1.259 . S
O456 Zn448 2.046 . S
O456 C477 1.254 . S
N457 Zn451 2.036 . S
N457 C458 1.298 . S
N457 N460 1.398 . S
C458 N457 1.298 . S
C458 N461 1.367 . S
C458 C471 1.481 . S
C459 N460 1.299 . S
C459 N461 1.379 . S
N460 N457 1.398 . S
N460 C459 1.299 . S
N461 C458 1.367 . S
N461 C459 1.379 . S
C462 N464 1.298 . S
C462 N466 1.367 . S
C462 C470 1.481 . S
C463 N465 1.299 . S
C463 N466 1.379 . S
N464 Zn448 2.036 . S
N464 C462 1.298 . S
N464 N465 1.398 . S
N465 C463 1.299 . S
N465 N464 1.398 . S
N466 C462 1.367 . S
N466 C463 1.379 . S
H467 C470 0.980 . S
H468 C470 0.981 . S
H469 C470 0.981 . S
C470 C462 1.481 . S
C470 H467 0.980 . S
C470 H468 0.981 . S
C470 H469 0.981 . S
C471 C458 1.481 . S
C471 H472 0.980 . S
C471 H473 0.981 . S
C471 H474 0.981 . S
H472 C471 0.980 . S
H473 C471 0.981 . S
H474 C471 0.981 . S
O475 Zn451 2.066 . S
O475 C454 1.256 . S
O476 Zn448 2.053 . S
O476 C454 1.244 . S
C477 O455 1.259 . S
C477 O456 1.254 . S
O478 Zn448 2.066 . S
O478 C450 1.256 . S
O479 C450 1.244 . S
O479 Zn451 2.053 . S
Zn480 O481 2.055 . S
Zn480 O488 2.046 1_556 S
Zn480 N496 2.036 1_556 S
Zn480 O508 2.053 1_556 S
Zn480 O510 2.066 . S
O481 Zn480 2.055 . S
O481 C484 1.259 . S
C482 O510 1.256 . S
C482 O511 1.244 . S
Zn483 O485 2.046 . S
Zn483 O487 2.055 . S
Zn483 N489 2.036 . S
Zn483 O507 2.066 . S
Zn483 O511 2.053 . S
C484 O481 1.259 . S
C484 O485 1.254 . S
O485 Zn483 2.046 . S
O485 C484 1.254 . S
C486 O507 1.256 . S
C486 O508 1.244 1_556 S
O487 Zn483 2.055 . S
O487 C509 1.259 . S
O488 Zn480 2.046 1_554 S
O488 C509 1.254 1_554 S
N489 Zn483 2.036 . S
N489 C490 1.298 . S
N489 N492 1.398 . S
C490 N489 1.298 . S
C490 N493 1.367 . S
C490 C503 1.481 . S
C491 N492 1.299 . S
C491 N493 1.379 . S
N492 N489 1.398 . S
N492 C491 1.299 . S
N493 C490 1.367 . S
N493 C491 1.379 . S
C494 N496 1.298 . S
C494 N498 1.367 . S
C494 C502 1.481 1_554 S
C495 N497 1.299 . S
C495 N498 1.379 . S
N496 Zn480 2.036 1_554 S
N496 C494 1.298 . S
N496 N497 1.398 . S
N497 C495 1.299 . S
N497 N496 1.398 . S
N498 C494 1.367 . S
N498 C495 1.379 . S
H499 C502 0.980 . S
H500 C502 0.981 1_554 S
H501 C502 0.981 . S
C502 C494 1.481 1_556 S
C502 H499 0.980 . S
C502 H500 0.981 1_556 S
C502 H501 0.981 . S
C503 C490 1.481 . S
C503 H504 0.980 . S
C503 H505 0.981 . S
C503 H506 0.981 . S
H504 C503 0.980 . S
H505 C503 0.981 . S
H506 C503 0.981 . S
O507 Zn483 2.066 . S
O507 C486 1.256 . S
O508 Zn480 2.053 1_554 S
O508 C486 1.244 1_554 S
C509 O487 1.259 . S
C509 O488 1.254 1_556 S
O510 Zn480 2.066 . S
O510 C482 1.256 . S
O511 C482 1.244 . S
O511 Zn483 2.053 . S
Zn512 O513 2.055 . S
Zn512 O520 2.046 . S
Zn512 N528 2.036 . S
Zn512 O540 2.053 . S
Zn512 O542 2.066 . S
O513 Zn512 2.055 . S
O513 C516 1.259 . S
C514 O542 1.256 . S
C514 O543 1.244 1_556 S
Zn515 O517 2.046 1_556 S
Zn515 O519 2.055 . S
Zn515 N521 2.036 1_556 S
Zn515 O539 2.066 . S
Zn515 O543 2.053 1_556 S
C516 O513 1.259 . S
C516 O517 1.254 1_556 S
O517 Zn515 2.046 1_554 S
O517 C516 1.254 1_554 S
C518 O539 1.256 . S
C518 O540 1.244 . S
O519 Zn515 2.055 . S
O519 C541 1.259 . S
O520 Zn512 2.046 . S
O520 C541 1.254 . S
N521 Zn515 2.036 1_554 S
N521 C522 1.298 . S
N521 N524 1.398 . S
C522 N521 1.298 . S
C522 N525 1.367 . S
C522 C535 1.481 1_554 S
C523 N524 1.299 . S
C523 N525 1.379 . S
N524 N521 1.398 . S
N524 C523 1.299 . S
N525 C522 1.367 . S
N525 C523 1.379 . S
C526 N528 1.298 . S
C526 N530 1.367 . S
C526 C534 1.481 . S
C527 N529 1.299 . S
C527 N530 1.379 . S
N528 Zn512 2.036 . S
N528 C526 1.298 . S
N528 N529 1.398 . S
N529 C527 1.299 . S
N529 N528 1.398 . S
N530 C526 1.367 . S
N530 C527 1.379 . S
H531 C534 0.980 . S
H532 C534 0.981 . S
H533 C534 0.981 . S
C534 C526 1.481 . S
C534 H531 0.980 . S
C534 H532 0.981 . S
C534 H533 0.981 . S
C535 C522 1.481 1_556 S
C535 H536 0.980 . S
C535 H537 0.981 1_556 S
C535 H538 0.981 . S
H536 C535 0.980 . S
H537 C535 0.981 1_554 S
H538 C535 0.981 . S
O539 Zn515 2.066 . S
O539 C518 1.256 . S
O540 Zn512 2.053 . S
O540 C518 1.244 . S
C541 O519 1.259 . S
C541 O520 1.254 . S
O542 Zn512 2.066 . S
O542 C514 1.256 . S
O543 C514 1.244 1_554 S
O543 Zn515 2.053 1_554 S
Zn544 O545 2.055 . S
Zn544 O552 2.046 . S
Zn544 N560 2.036 . S
Zn544 O572 2.053 . S
Zn544 O574 2.066 . S
O545 Zn544 2.055 . S
O545 C548 1.259 . S
C546 O574 1.256 . S
C546 O575 1.244 1_556 S
Zn547 O549 2.046 1_556 S
Zn547 O551 2.055 . S
Zn547 N553 2.036 1_556 S
Zn547 O571 2.066 . S
Zn547 O575 2.053 1_556 S
C548 O545 1.259 . S
C548 O549 1.254 1_556 S
O549 Zn547 2.046 1_554 S
O549 C548 1.254 1_554 S
C550 O571 1.256 . S
C550 O572 1.244 . S
O551 Zn547 2.055 . S
O551 C573 1.259 . S
O552 Zn544 2.046 . S
O552 C573 1.254 . S
N553 Zn547 2.036 1_554 S
N553 C554 1.298 . S
N553 N556 1.398 . S
C554 N553 1.298 . S
C554 N557 1.367 . S
C554 C567 1.481 1_554 S
C555 N556 1.299 . S
C555 N557 1.379 . S
N556 N553 1.398 . S
N556 C555 1.299 . S
N557 C554 1.367 . S
N557 C555 1.379 . S
C558 N560 1.298 . S
C558 N562 1.367 . S
C558 C566 1.481 . S
C559 N561 1.299 . S
C559 N562 1.379 . S
N560 Zn544 2.036 . S
N560 C558 1.298 . S
N560 N561 1.398 . S
N561 C559 1.299 . S
N561 N560 1.398 . S
N562 C558 1.367 . S
N562 C559 1.379 . S
H563 C566 0.980 . S
H564 C566 0.981 . S
H565 C566 0.981 . S
C566 C558 1.481 . S
C566 H563 0.980 . S
C566 H564 0.981 . S
C566 H565 0.981 . S
C567 C554 1.481 1_556 S
C567 H568 0.980 . S
C567 H569 0.981 1_556 S
C567 H570 0.981 . S
H568 C567 0.980 . S
H569 C567 0.981 1_554 S
H570 C567 0.981 . S
O571 Zn547 2.066 . S
O571 C550 1.256 . S
O572 Zn544 2.053 . S
O572 C550 1.244 . S
C573 O551 1.259 . S
C573 O552 1.254 . S
O574 Zn544 2.066 . S
O574 C546 1.256 . S
O575 C546 1.244 1_554 S
O575 Zn547 2.053 1_554 S
H576 C582 0.930 . S
H577 C585 0.930 . S
H578 C586 0.930 . S
H579 C587 0.930 . S
H580 C590 0.930 . S
H581 C591 0.930 . S
C582 H576 0.930 . S
C582 C583 1.355 . S
C582 C584 1.415 . S
C583 C582 1.355 . S
C583 C585 1.419 . S
C584 C582 1.415 . S
C584 C589 1.425 . S
C584 C591 1.409 . S
C585 H577 0.930 . S
C585 C583 1.419 . S
C585 C586 1.362 . S
C586 H578 0.930 . S
C586 C585 1.362 . S
C586 C589 1.409 . S
C587 H579 0.930 . S
C587 C588 1.355 . S
C587 C589 1.415 . S
C588 C587 1.355 . S
C588 C590 1.419 . S
C589 C584 1.425 . S
C589 C586 1.409 . S
C589 C587 1.415 . S
C590 H580 0.930 . S
C590 C588 1.419 . S
C590 C591 1.362 . S
C591 H581 0.930 . S
C591 C584 1.409 . S
C591 C590 1.362 . S
H592 C598 0.930 . S
H593 C601 0.930 . S
H594 C602 0.930 . S
H595 C603 0.930 . S
H596 C606 0.930 . S
H597 C607 0.930 . S
C598 H592 0.930 . S
C598 C599 1.355 . S
C598 C600 1.415 . S
C599 C598 1.355 . S
C599 C601 1.419 . S
C600 C598 1.415 . S
C600 C605 1.425 . S
C600 C607 1.409 . S
C601 H593 0.930 . S
C601 C599 1.419 . S
C601 C602 1.362 . S
C602 H594 0.930 . S
C602 C601 1.362 . S
C602 C605 1.409 . S
C603 H595 0.930 . S
C603 C604 1.355 . S
C603 C605 1.415 . S
C604 C603 1.355 . S
C604 C606 1.419 . S
C605 C600 1.425 . S
C605 C602 1.409 . S
C605 C603 1.415 . S
C606 H596 0.930 . S
C606 C604 1.419 . S
C606 C607 1.362 . S
C607 H597 0.930 . S
C607 C600 1.409 . S
C607 C606 1.362 . S
H608 C614 0.930 . S
H609 C617 0.930 . S
H610 C618 0.930 . S
H611 C619 0.930 . S
H612 C622 0.930 . S
H613 C623 0.930 . S
C614 H608 0.930 . S
C614 C615 1.355 . S
C614 C616 1.415 . S
C615 C614 1.355 . S
C615 C617 1.419 . S
C616 C614 1.415 . S
C616 C621 1.425 . S
C616 C623 1.409 . S
C617 H609 0.930 . S
C617 C615 1.419 . S
C617 C618 1.362 . S
C618 H610 0.930 . S
C618 C617 1.362 . S
C618 C621 1.409 . S
C619 H611 0.930 . S
C619 C620 1.355 . S
C619 C621 1.415 . S
C620 C619 1.355 . S
C620 C622 1.419 . S
C621 C616 1.425 . S
C621 C618 1.409 . S
C621 C619 1.415 . S
C622 H612 0.930 . S
C622 C620 1.419 . S
C622 C623 1.362 . S
C623 H613 0.930 . S
C623 C616 1.409 . S
C623 C622 1.362 . S
H624 C630 0.930 . S
H625 C633 0.930 . S
H626 C634 0.930 . S
H627 C635 0.930 . S
H628 C638 0.930 . S
H629 C639 0.930 . S
C630 H624 0.930 . S
C630 C631 1.355 . S
C630 C632 1.415 . S
C631 C630 1.355 . S
C631 C633 1.419 . S
C632 C630 1.415 . S
C632 C637 1.425 . S
C632 C639 1.409 . S
C633 H625 0.930 . S
C633 C631 1.419 . S
C633 C634 1.362 . S
C634 H626 0.930 . S
C634 C633 1.362 . S
C634 C637 1.409 . S
C635 H627 0.930 . S
C635 C636 1.355 1_556 S
C635 C637 1.415 . S
C636 C635 1.355 1_554 S
C636 C638 1.419 . S
C637 C632 1.425 . S
C637 C634 1.409 . S
C637 C635 1.415 . S
C638 H628 0.930 . S
C638 C636 1.419 . S
C638 C639 1.362 1_554 S
C639 H629 0.930 . S
C639 C632 1.409 . S
C639 C638 1.362 1_556 S
H640 C646 0.930 . S
H641 C649 0.930 . S
H642 C650 0.930 . S
H643 C651 0.930 . S
H644 C654 0.930 . S
H645 C655 0.930 . S
C646 H640 0.930 . S
C646 C647 1.355 1_556 S
C646 C648 1.415 . S
C647 C646 1.355 1_554 S
C647 C649 1.419 . S
C648 C646 1.415 . S
C648 C653 1.425 . S
C648 C655 1.409 . S
C649 H641 0.930 . S
C649 C647 1.419 . S
C649 C650 1.362 . S
C650 H642 0.930 . S
C650 C649 1.362 . S
C650 C653 1.409 1_554 S
C651 H643 0.930 . S
C651 C652 1.355 . S
C651 C653 1.415 . S
C652 C651 1.355 . S
C652 C654 1.419 . S
C653 C648 1.425 . S
C653 C650 1.409 1_556 S
C653 C651 1.415 . S
C654 H644 0.930 . S
C654 C652 1.419 . S
C654 C655 1.362 . S
C655 H645 0.930 . S
C655 C648 1.409 . S
C655 C654 1.362 . S
H656 C662 0.930 . S
H657 C665 0.930 . S
H658 C666 0.930 . S
H659 C667 0.930 . S
H660 C670 0.930 . S
H661 C671 0.930 . S
C662 H656 0.930 . S
C662 C663 1.355 . S
C662 C664 1.415 . S
C663 C662 1.355 . S
C663 C665 1.419 . S
C664 C662 1.415 . S
C664 C669 1.425 . S
C664 C671 1.409 1_556 S
C665 H657 0.930 . S
C665 C663 1.419 . S
C665 C666 1.362 . S
C666 H658 0.930 . S
C666 C665 1.362 . S
C666 C669 1.409 . S
C667 H659 0.930 . S
C667 C668 1.355 1_556 S
C667 C669 1.415 . S
C668 C667 1.355 1_554 S
C668 C670 1.419 . S
C669 C664 1.425 . S
C669 C666 1.409 . S
C669 C667 1.415 . S
C670 H660 0.930 . S
C670 C668 1.419 . S
C670 C671 1.362 . S
C671 H661 0.930 . S
C671 C664 1.409 1_554 S
C671 C670 1.362 . S
H672 C678 0.930 . S
H673 C681 0.930 . S
H674 C682 0.930 . S
H675 C683 0.930 . S
H676 C686 0.930 . S
H677 C687 0.930 . S
C678 H672 0.930 . S
C678 C679 1.355 . S
C678 C680 1.415 . S
C679 C678 1.355 . S
C679 C681 1.419 . S
C680 C678 1.415 . S
C680 C685 1.425 . S
C680 C687 1.409 . S
C681 H673 0.930 . S
C681 C679 1.419 . S
C681 C682 1.362 . S
C682 H674 0.930 . S
C682 C681 1.362 . S
C682 C685 1.409 . S
C683 H675 0.930 . S
C683 C684 1.355 . S
C683 C685 1.415 . S
C684 C683 1.355 . S
C684 C686 1.419 . S
C685 C680 1.425 . S
C685 C682 1.409 . S
C685 C683 1.415 . S
C686 H676 0.930 . S
C686 C684 1.419 . S
C686 C687 1.362 . S
C687 H677 0.930 . S
C687 C680 1.409 . S
C687 C686 1.362 . S
H688 C694 0.930 . S
H689 C697 0.930 . S
H690 C698 0.930 . S
H691 C699 0.930 . S
H692 C702 0.930 . S
H693 C703 0.930 . S
C694 H688 0.930 . S
C694 C695 1.355 . S
C694 C696 1.415 . S
C695 C694 1.355 . S
C695 C697 1.419 . S
C696 C694 1.415 . S
C696 C701 1.425 . S
C696 C703 1.409 . S
C697 H689 0.930 . S
C697 C695 1.419 . S
C697 C698 1.362 . S
C698 H690 0.930 . S
C698 C697 1.362 . S
C698 C701 1.409 . S
C699 H691 0.930 . S
C699 C700 1.355 . S
C699 C701 1.415 . S
C700 C699 1.355 . S
C700 C702 1.419 . S
C701 C696 1.425 . S
C701 C698 1.409 . S
C701 C699 1.415 . S
C702 H692 0.930 . S
C702 C700 1.419 . S
C702 C703 1.362 . S
C703 H693 0.930 . S
C703 C696 1.409 . S
C703 C702 1.362 . S
H704 C710 0.930 . S
H705 C713 0.930 . S
H706 C714 0.930 . S
H707 C715 0.930 . S
H708 C718 0.930 . S
H709 C719 0.930 . S
C710 H704 0.930 . S
C710 C711 1.355 . S
C710 C712 1.415 . S
C711 C710 1.355 . S
C711 C713 1.419 . S
C712 C710 1.415 . S
C712 C717 1.425 . S
C712 C719 1.409 . S
C713 H705 0.930 . S
C713 C711 1.419 . S
C713 C714 1.362 . S
C714 H706 0.930 . S
C714 C713 1.362 . S
C714 C717 1.409 . S
C715 H707 0.930 . S
C715 C716 1.355 . S
C715 C717 1.415 . S
C716 C715 1.355 . S
C716 C718 1.419 . S
C717 C712 1.425 . S
C717 C714 1.409 . S
C717 C715 1.415 . S
C718 H708 0.930 . S
C718 C716 1.419 . S
C718 C719 1.362 . S
C719 H709 0.930 . S
C719 C712 1.409 . S
C719 C718 1.362 . S
H720 C726 0.930 . S
H721 C729 0.930 . S
H722 C730 0.930 . S
H723 C731 0.930 . S
H724 C734 0.930 . S
H725 C735 0.930 . S
C726 H720 0.930 . S
C726 C727 1.355 . S
C726 C728 1.415 . S
C727 C726 1.355 . S
C727 C729 1.419 . S
C728 C726 1.415 . S
C728 C733 1.425 . S
C728 C735 1.409 . S
C729 H721 0.930 . S
C729 C727 1.419 . S
C729 C730 1.362 . S
C730 H722 0.930 . S
C730 C729 1.362 . S
C730 C733 1.409 . S
C731 H723 0.930 . S
C731 C732 1.355 . S
C731 C733 1.415 1_556 S
C732 C731 1.355 . S
C732 C734 1.419 1_556 S
C733 C728 1.425 . S
C733 C730 1.409 . S
C733 C731 1.415 1_554 S
C734 H724 0.930 . S
C734 C732 1.419 1_554 S
C734 C735 1.362 . S
C735 H725 0.930 . S
C735 C728 1.409 . S
C735 C734 1.362 . S
H736 C742 0.930 . S
H737 C745 0.930 . S
H738 C746 0.930 . S
H739 C747 0.930 . S
H740 C750 0.930 . S
H741 C751 0.930 1_556 S
C742 H736 0.930 . S
C742 C743 1.355 . S
C742 C744 1.415 1_556 S
C743 C742 1.355 . S
C743 C745 1.419 1_556 S
C744 C742 1.415 1_554 S
C744 C749 1.425 . S
C744 C751 1.409 . S
C745 H737 0.930 . S
C745 C743 1.419 1_554 S
C745 C746 1.362 . S
C746 H738 0.930 . S
C746 C745 1.362 . S
C746 C749 1.409 . S
C747 H739 0.930 . S
C747 C748 1.355 . S
C747 C749 1.415 . S
C748 C747 1.355 . S
C748 C750 1.419 . S
C749 C744 1.425 . S
C749 C746 1.409 . S
C749 C747 1.415 . S
C750 H740 0.930 . S
C750 C748 1.419 . S
C750 C751 1.362 . S
C751 H741 0.930 1_554 S
C751 C744 1.409 . S
C751 C750 1.362 . S
H752 C758 0.930 . S
H753 C761 0.930 . S
H754 C762 0.930 . S
H755 C763 0.930 . S
H756 C766 0.930 . S
H757 C767 0.930 1_556 S
C758 H752 0.930 . S
C758 C759 1.355 . S
C758 C760 1.415 1_556 S
C759 C758 1.355 . S
C759 C761 1.419 1_556 S
C760 C758 1.415 1_554 S
C760 C765 1.425 . S
C760 C767 1.409 . S
C761 H753 0.930 . S
C761 C759 1.419 1_554 S
C761 C762 1.362 . S
C762 H754 0.930 . S
C762 C761 1.362 . S
C762 C765 1.409 . S
C763 H755 0.930 . S
C763 C764 1.355 . S
C763 C765 1.415 . S
C764 C763 1.355 . S
C764 C766 1.419 . S
C765 C760 1.425 . S
C765 C762 1.409 . S
C765 C763 1.415 . S
C766 H756 0.930 . S
C766 C764 1.419 . S
C766 C767 1.362 . S
C767 H757 0.930 1_554 S
C767 C760 1.409 . S
C767 C766 1.362 . S
H768 C774 0.930 . S
H769 C777 0.930 . S
H770 C778 0.930 . S
H771 C779 0.930 . S
H772 C782 0.930 . S
H773 C783 0.930 . S
C774 H768 0.930 . S
C774 C775 1.355 . S
C774 C776 1.415 . S
C775 C774 1.355 . S
C775 C777 1.419 . S
C776 C774 1.415 . S
C776 C781 1.425 . S
C776 C783 1.409 . S
C777 H769 0.930 . S
C777 C775 1.419 . S
C777 C778 1.362 . S
C778 H770 0.930 . S
C778 C777 1.362 . S
C778 C781 1.409 . S
C779 H771 0.930 . S
C779 C780 1.355 . S
C779 C781 1.415 . S
C780 C779 1.355 . S
C780 C782 1.419 . S
C781 C776 1.425 . S
C781 C778 1.409 . S
C781 C779 1.415 . S
C782 H772 0.930 . S
C782 C780 1.419 . S
C782 C783 1.362 . S
C783 H773 0.930 . S
C783 C776 1.409 . S
C783 C782 1.362 . S
H784 C790 0.930 . S
H785 C793 0.930 . S
H786 C794 0.930 1_554 S
H787 C795 0.930 . S
H788 C798 0.930 . S
H789 C799 0.930 . S
C790 H784 0.930 . S
C790 C791 1.355 . S
C790 C792 1.415 . S
C791 C790 1.355 . S
C791 C793 1.419 1_556 S
C792 C790 1.415 . S
C792 C797 1.425 . S
C792 C799 1.409 . S
C793 H785 0.930 . S
C793 C791 1.419 1_554 S
C793 C794 1.362 1_554 S
C794 H786 0.930 1_556 S
C794 C793 1.362 1_556 S
C794 C797 1.409 . S
C795 H787 0.930 . S
C795 C796 1.355 . S
C795 C797 1.415 . S
C796 C795 1.355 . S
C796 C798 1.419 . S
C797 C792 1.425 . S
C797 C794 1.409 . S
C797 C795 1.415 . S
C798 H788 0.930 . S
C798 C796 1.419 . S
C798 C799 1.362 . S
C799 H789 0.930 . S
C799 C792 1.409 . S
C799 C798 1.362 . S
H800 C806 0.930 1_554 S
H801 C809 0.930 . S
H802 C810 0.930 . S
H803 C811 0.930 . S
H804 C814 0.930 . S
H805 C815 0.930 . S
C806 H800 0.930 1_556 S
C806 C807 1.355 . S
C806 C808 1.415 . S
C807 C806 1.355 . S
C807 C809 1.419 . S
C808 C806 1.415 . S
C808 C813 1.425 . S
C808 C815 1.409 . S
C809 H801 0.930 . S
C809 C807 1.419 . S
C809 C810 1.362 . S
C810 H802 0.930 . S
C810 C809 1.362 . S
C810 C813 1.409 . S
C811 H803 0.930 . S
C811 C812 1.355 . S
C811 C813 1.415 . S
C812 C811 1.355 . S
C812 C814 1.419 . S
C813 C808 1.425 . S
C813 C810 1.409 . S
C813 C811 1.415 . S
C814 H804 0.930 . S
C814 C812 1.419 . S
C814 C815 1.362 . S
C815 H805 0.930 . S
C815 C808 1.409 . S
C815 C814 1.362 . S
H816 C822 0.930 . S
H817 C825 0.930 . S
H818 C826 0.930 . S
H819 C827 0.930 . S
H820 C830 0.930 . S
H821 C831 0.930 . S
C822 H816 0.930 . S
C822 C823 1.355 . S
C822 C824 1.415 . S
C823 C822 1.355 . S
C823 C825 1.419 . S
C824 C822 1.415 . S
C824 C829 1.425 . S
C824 C831 1.409 . S
C825 H817 0.930 . S
C825 C823 1.419 . S
C825 C826 1.362 . S
C826 H818 0.930 . S
C826 C825 1.362 . S
C826 C829 1.409 . S
C827 H819 0.930 . S
C827 C828 1.355 . S
C827 C829 1.415 . S
C828 C827 1.355 . S
C828 C830 1.419 . S
C829 C824 1.425 . S
C829 C826 1.409 . S
C829 C827 1.415 . S
C830 H820 0.930 . S
C830 C828 1.419 . S
C830 C831 1.362 . S
C831 H821 0.930 . S
C831 C824 1.409 . S
C831 C830 1.362 . S
H832 C838 0.930 . S
H833 C841 0.930 . S
H834 C842 0.930 . S
H835 C843 0.930 . S
H836 C846 0.930 . S
H837 C847 0.930 . S
C838 H832 0.930 . S
C838 C839 1.355 . S
C838 C840 1.415 . S
C839 C838 1.355 . S
C839 C841 1.419 . S
C840 C838 1.415 . S
C840 C845 1.425 . S
C840 C847 1.409 . S
C841 H833 0.930 . S
C841 C839 1.419 . S
C841 C842 1.362 . S
C842 H834 0.930 . S
C842 C841 1.362 . S
C842 C845 1.409 . S
C843 H835 0.930 . S
C843 C844 1.355 . S
C843 C845 1.415 . S
C844 C843 1.355 . S
C844 C846 1.419 . S
C845 C840 1.425 . S
C845 C842 1.409 . S
C845 C843 1.415 . S
C846 H836 0.930 . S
C846 C844 1.419 . S
C846 C847 1.362 . S
C847 H837 0.930 . S
C847 C840 1.409 . S
C847 C846 1.362 . S
H848 C854 0.930 . S
H849 C857 0.930 . S
H850 C858 0.930 . S
H851 C859 0.930 . S
H852 C862 0.930 . S
H853 C863 0.930 . S
C854 H848 0.930 . S
C854 C855 1.355 . S
C854 C856 1.415 . S
C855 C854 1.355 . S
C855 C857 1.419 . S
C856 C854 1.415 . S
C856 C861 1.425 . S
C856 C863 1.409 . S
C857 H849 0.930 . S
C857 C855 1.419 . S
C857 C858 1.362 . S
C858 H850 0.930 . S
C858 C857 1.362 . S
C858 C861 1.409 . S
C859 H851 0.930 . S
C859 C860 1.355 . S
C859 C861 1.415 . S
C860 C859 1.355 . S
C860 C862 1.419 . S
C861 C856 1.425 . S
C861 C858 1.409 . S
C861 C859 1.415 . S
C862 H852 0.930 . S
C862 C860 1.419 . S
C862 C863 1.362 . S
C863 H853 0.930 . S
C863 C856 1.409 . S
C863 C862 1.362 . S
H864 C870 0.930 . S
H865 C873 0.930 . S
H866 C874 0.930 . S
H867 C875 0.930 . S
H868 C878 0.930 . S
H869 C879 0.930 . S
C870 H864 0.930 . S
C870 C871 1.355 . S
C870 C872 1.415 . S
C871 C870 1.355 . S
C871 C873 1.419 . S
C872 C870 1.415 . S
C872 C877 1.425 . S
C872 C879 1.409 . S
C873 H865 0.930 . S
C873 C871 1.419 . S
C873 C874 1.362 . S
C874 H866 0.930 . S
C874 C873 1.362 . S
C874 C877 1.409 . S
C875 H867 0.930 . S
C875 C876 1.355 . S
C875 C877 1.415 . S
C876 C875 1.355 . S
C876 C878 1.419 . S
C877 C872 1.425 . S
C877 C874 1.409 . S
C877 C875 1.415 . S
C878 H868 0.930 . S
C878 C876 1.419 . S
C878 C879 1.362 . S
C879 H869 0.930 . S
C879 C872 1.409 . S
C879 C878 1.362 . S
H880 C886 0.930 . S
H881 C889 0.930 . S
H882 C890 0.930 . S
H883 C891 0.930 . S
H884 C894 0.930 . S
H885 C895 0.930 . S
C886 H880 0.930 . S
C886 C887 1.355 . S
C886 C888 1.415 . S
C887 C886 1.355 . S
C887 C889 1.419 . S
C888 C886 1.415 . S
C888 C893 1.425 . S
C888 C895 1.409 . S
C889 H881 0.930 . S
C889 C887 1.419 . S
C889 C890 1.362 . S
C890 H882 0.930 . S
C890 C889 1.362 . S
C890 C893 1.409 . S
C891 H883 0.930 . S
C891 C892 1.355 . S
C891 C893 1.415 . S
C892 C891 1.355 . S
C892 C894 1.419 . S
C893 C888 1.425 . S
C893 C890 1.409 . S
C893 C891 1.415 . S
C894 H884 0.930 . S
C894 C892 1.419 . S
C894 C895 1.362 . S
C895 H885 0.930 . S
C895 C888 1.409 . S
C895 C894 1.362 . S
H896 C902 0.930 . S
H897 C905 0.930 . S
H898 C906 0.930 . S
H899 C907 0.930 . S
H900 C910 0.930 . S
H901 C911 0.930 . S
C902 H896 0.930 . S
C902 C903 1.355 . S
C902 C904 1.415 . S
C903 C902 1.355 . S
C903 C905 1.419 . S
C904 C902 1.415 . S
C904 C909 1.425 . S
C904 C911 1.409 . S
C905 H897 0.930 . S
C905 C903 1.419 . S
C905 C906 1.362 . S
C906 H898 0.930 . S
C906 C905 1.362 . S
C906 C909 1.409 . S
C907 H899 0.930 . S
C907 C908 1.355 . S
C907 C909 1.415 . S
C908 C907 1.355 . S
C908 C910 1.419 . S
C909 C904 1.425 . S
C909 C906 1.409 . S
C909 C907 1.415 . S
C910 H900 0.930 . S
C910 C908 1.419 . S
C910 C911 1.362 . S
C911 H901 0.930 . S
C911 C904 1.409 . S
C911 C910 1.362 . S
H912 C918 0.930 . S
H913 C921 0.930 . S
H914 C922 0.930 . S
H915 C923 0.930 . S
H916 C926 0.930 . S
H917 C927 0.930 . S
C918 H912 0.930 . S
C918 C919 1.355 . S
C918 C920 1.415 . S
C919 C918 1.355 . S
C919 C921 1.419 . S
C920 C918 1.415 . S
C920 C925 1.425 . S
C920 C927 1.409 . S
C921 H913 0.930 . S
C921 C919 1.419 . S
C921 C922 1.362 . S
C922 H914 0.930 . S
C922 C921 1.362 . S
C922 C925 1.409 . S
C923 H915 0.930 . S
C923 C924 1.355 . S
C923 C925 1.415 . S
C924 C923 1.355 . S
C924 C926 1.419 . S
C925 C920 1.425 . S
C925 C922 1.409 . S
C925 C923 1.415 . S
C926 H916 0.930 . S
C926 C924 1.419 . S
C926 C927 1.362 . S
C927 H917 0.930 . S
C927 C920 1.409 . S
C927 C926 1.362 . S
H928 C934 0.930 . S
H929 C937 0.930 . S
H930 C938 0.930 . S
H931 C939 0.930 . S
H932 C942 0.930 . S
H933 C943 0.930 . S
C934 H928 0.930 . S
C934 C935 1.355 . S
C934 C936 1.415 . S
C935 C934 1.355 . S
C935 C937 1.419 . S
C936 C934 1.415 . S
C936 C941 1.425 . S
C936 C943 1.409 . S
C937 H929 0.930 . S
C937 C935 1.419 . S
C937 C938 1.362 . S
C938 H930 0.930 . S
C938 C937 1.362 . S
C938 C941 1.409 . S
C939 H931 0.930 . S
C939 C940 1.355 . S
C939 C941 1.415 . S
C940 C939 1.355 . S
C940 C942 1.419 . S
C941 C936 1.425 . S
C941 C938 1.409 . S
C941 C939 1.415 . S
C942 H932 0.930 . S
C942 C940 1.419 . S
C942 C943 1.362 . S
C943 H933 0.930 . S
C943 C936 1.409 . S
C943 C942 1.362 . S
H944 C950 0.930 . S
H945 C953 0.930 . S
H946 C954 0.930 . S
H947 C955 0.930 . S
H948 C958 0.930 . S
H949 C959 0.930 . S
C950 H944 0.930 . S
C950 C951 1.355 . S
C950 C952 1.415 . S
C951 C950 1.355 . S
C951 C953 1.419 . S
C952 C950 1.415 . S
C952 C957 1.425 . S
C952 C959 1.409 . S
C953 H945 0.930 . S
C953 C951 1.419 . S
C953 C954 1.362 . S
C954 H946 0.930 . S
C954 C953 1.362 . S
C954 C957 1.409 . S
C955 H947 0.930 . S
C955 C956 1.355 . S
C955 C957 1.415 . S
C956 C955 1.355 . S
C956 C958 1.419 . S
C957 C952 1.425 . S
C957 C954 1.409 . S
C957 C955 1.415 . S
C958 H948 0.930 . S
C958 C956 1.419 . S
C958 C959 1.362 . S
C959 H949 0.930 . S
C959 C952 1.409 . S
C959 C958 1.362 . S
H960 C966 0.930 . S
H961 C969 0.930 . S
H962 C970 0.930 . S
H963 C971 0.930 . S
H964 C974 0.930 . S
H965 C975 0.930 . S
C966 H960 0.930 . S
C966 C967 1.355 . S
C966 C968 1.415 . S
C967 C966 1.355 . S
C967 C969 1.419 . S
C968 C966 1.415 . S
C968 C973 1.425 . S
C968 C975 1.409 . S
C969 H961 0.930 . S
C969 C967 1.419 . S
C969 C970 1.362 . S
C970 H962 0.930 . S
C970 C969 1.362 . S
C970 C973 1.409 . S
C971 H963 0.930 . S
C971 C972 1.355 . S
C971 C973 1.415 . S
C972 C971 1.355 . S
C972 C974 1.419 . S
C973 C968 1.425 . S
C973 C970 1.409 . S
C973 C971 1.415 . S
C974 H964 0.930 . S
C974 C972 1.419 . S
C974 C975 1.362 . S
C975 H965 0.930 . S
C975 C968 1.409 . S
C975 C974 1.362 . S
H976 C982 0.930 . S
H977 C985 0.930 . S
H978 C986 0.930 . S
H979 C987 0.930 . S
H980 C990 0.930 . S
H981 C991 0.930 . S
C982 H976 0.930 . S
C982 C983 1.355 . S
C982 C984 1.415 . S
C983 C982 1.355 . S
C983 C985 1.419 . S
C984 C982 1.415 . S
C984 C989 1.425 . S
C984 C991 1.409 . S
C985 H977 0.930 . S
C985 C983 1.419 . S
C985 C986 1.362 . S
C986 H978 0.930 . S
C986 C985 1.362 . S
C986 C989 1.409 . S
C987 H979 0.930 . S
C987 C988 1.355 . S
C987 C989 1.415 . S
C988 C987 1.355 . S
C988 C990 1.419 . S
C989 C984 1.425 . S
C989 C986 1.409 . S
C989 C987 1.415 . S
C990 H980 0.930 . S
C990 C988 1.419 . S
C990 C991 1.362 . S
C991 H981 0.930 . S
C991 C984 1.409 . S
C991 C990 1.362 . S
H992 C998 0.930 . S
H993 C1001 0.930 . S
H994 C1002 0.930 . S
H995 C1003 0.930 . S
H996 C1006 0.930 . S
H997 C1007 0.930 . S
C998 H992 0.930 . S
C998 C999 1.355 . S
C998 C1000 1.415 . S
C999 C998 1.355 . S
C999 C1001 1.419 . S
C1000 C998 1.415 . S
C1000 C1005 1.425 . S
C1000 C1007 1.409 . S
C1001 H993 0.930 . S
C1001 C999 1.419 . S
C1001 C1002 1.362 . S
C1002 H994 0.930 . S
C1002 C1001 1.362 . S
C1002 C1005 1.409 . S
C1003 H995 0.930 . S
C1003 C1004 1.355 . S
C1003 C1005 1.415 . S
C1004 C1003 1.355 . S
C1004 C1006 1.419 . S
C1005 C1000 1.425 . S
C1005 C1002 1.409 . S
C1005 C1003 1.415 . S
C1006 H996 0.930 . S
C1006 C1004 1.419 . S
C1006 C1007 1.362 . S
C1007 H997 0.930 . S
C1007 C1000 1.409 . S
C1007 C1006 1.362 . S
H1008 C1014 0.930 . S
H1009 C1017 0.930 . S
H1010 C1018 0.930 . S
H1011 C1019 0.930 . S
H1012 C1022 0.930 . S
H1013 C1023 0.930 . S
C1014 H1008 0.930 . S
C1014 C1015 1.355 . S
C1014 C1016 1.415 . S
C1015 C1014 1.355 . S
C1015 C1017 1.419 . S
C1016 C1014 1.415 . S
C1016 C1021 1.425 . S
C1016 C1023 1.409 . S
C1017 H1009 0.930 . S
C1017 C1015 1.419 . S
C1017 C1018 1.362 . S
C1018 H1010 0.930 . S
C1018 C1017 1.362 . S
C1018 C1021 1.409 . S
C1019 H1011 0.930 . S
C1019 C1020 1.355 . S
C1019 C1021 1.415 . S
C1020 C1019 1.355 . S
C1020 C1022 1.419 . S
C1021 C1016 1.425 . S
C1021 C1018 1.409 . S
C1021 C1019 1.415 . S
C1022 H1012 0.930 . S
C1022 C1020 1.419 . S
C1022 C1023 1.362 . S
C1023 H1013 0.930 . S
C1023 C1016 1.409 . S
C1023 C1022 1.362 . S
H1024 C1030 0.930 . S
H1025 C1033 0.930 . S
H1026 C1034 0.930 . S
H1027 C1035 0.930 . S
H1028 C1038 0.930 . S
H1029 C1039 0.930 . S
C1030 H1024 0.930 . S
C1030 C1031 1.355 . S
C1030 C1032 1.415 . S
C1031 C1030 1.355 . S
C1031 C1033 1.419 . S
C1032 C1030 1.415 . S
C1032 C1037 1.425 . S
C1032 C1039 1.409 . S
C1033 H1025 0.930 . S
C1033 C1031 1.419 . S
C1033 C1034 1.362 . S
C1034 H1026 0.930 . S
C1034 C1033 1.362 . S
C1034 C1037 1.409 . S
C1035 H1027 0.930 . S
C1035 C1036 1.355 . S
C1035 C1037 1.415 . S
C1036 C1035 1.355 . S
C1036 C1038 1.419 . S
C1037 C1032 1.425 . S
C1037 C1034 1.409 . S
C1037 C1035 1.415 . S
C1038 H1028 0.930 . S
C1038 C1036 1.419 . S
C1038 C1039 1.362 . S
C1039 H1029 0.930 . S
C1039 C1032 1.409 . S
C1039 C1038 1.362 . S
H1040 C1046 0.930 . S
H1041 C1049 0.930 . S
H1042 C1050 0.930 . S
H1043 C1051 0.930 . S
H1044 C1054 0.930 . S
H1045 C1055 0.930 . S
C1046 H1040 0.930 . S
C1046 C1047 1.355 . S
C1046 C1048 1.415 . S
C1047 C1046 1.355 . S
C1047 C1049 1.419 . S
C1048 C1046 1.415 . S
C1048 C1053 1.425 . S
C1048 C1055 1.409 . S
C1049 H1041 0.930 . S
C1049 C1047 1.419 . S
C1049 C1050 1.362 . S
C1050 H1042 0.930 . S
C1050 C1049 1.362 . S
C1050 C1053 1.409 . S
C1051 H1043 0.930 . S
C1051 C1052 1.355 . S
C1051 C1053 1.415 . S
C1052 C1051 1.355 . S
C1052 C1054 1.419 . S
C1053 C1048 1.425 . S
C1053 C1050 1.409 . S
C1053 C1051 1.415 . S
C1054 H1044 0.930 . S
C1054 C1052 1.419 . S
C1054 C1055 1.362 . S
C1055 H1045 0.930 . S
C1055 C1048 1.409 . S
C1055 C1054 1.362 . S
H1056 C1062 0.930 . S
H1057 C1065 0.930 . S
H1058 C1066 0.930 . S
H1059 C1067 0.930 . S
H1060 C1070 0.930 . S
H1061 C1071 0.930 . S
C1062 H1056 0.930 . S
C1062 C1063 1.355 . S
C1062 C1064 1.415 . S
C1063 C1062 1.355 . S
C1063 C1065 1.419 . S
C1064 C1062 1.415 . S
C1064 C1069 1.425 . S
C1064 C1071 1.409 . S
C1065 H1057 0.930 . S
C1065 C1063 1.419 . S
C1065 C1066 1.362 . S
C1066 H1058 0.930 . S
C1066 C1065 1.362 . S
C1066 C1069 1.409 . S
C1067 H1059 0.930 . S
C1067 C1068 1.355 . S
C1067 C1069 1.415 . S
C1068 C1067 1.355 . S
C1068 C1070 1.419 1_554 S
C1069 C1064 1.425 . S
C1069 C1066 1.409 . S
C1069 C1067 1.415 . S
C1070 H1060 0.930 . S
C1070 C1068 1.419 1_556 S
C1070 C1071 1.362 1_556 S
C1071 H1061 0.930 . S
C1071 C1064 1.409 . S
C1071 C1070 1.362 1_554 S
H1072 C1078 0.930 . S
H1073 C1081 0.930 . S
H1074 C1082 0.930 . S
H1075 C1083 0.930 . S
H1076 C1086 0.930 . S
H1077 C1087 0.930 1_556 S
C1078 H1072 0.930 . S
C1078 C1079 1.355 . S
C1078 C1080 1.415 . S
C1079 C1078 1.355 . S
C1079 C1081 1.419 . S
C1080 C1078 1.415 . S
C1080 C1085 1.425 . S
C1080 C1087 1.409 . S
C1081 H1073 0.930 . S
C1081 C1079 1.419 . S
C1081 C1082 1.362 . S
C1082 H1074 0.930 . S
C1082 C1081 1.362 . S
C1082 C1085 1.409 . S
C1083 H1075 0.930 . S
C1083 C1084 1.355 . S
C1083 C1085 1.415 . S
C1084 C1083 1.355 . S
C1084 C1086 1.419 1_554 S
C1085 C1080 1.425 . S
C1085 C1082 1.409 . S
C1085 C1083 1.415 . S
C1086 H1076 0.930 . S
C1086 C1084 1.419 1_556 S
C1086 C1087 1.362 1_556 S
C1087 H1077 0.930 1_554 S
C1087 C1080 1.409 . S
C1087 C1086 1.362 1_554 S
H1088 C1094 0.930 . S
H1089 C1097 0.930 . S
H1090 C1098 0.930 . S
H1091 C1099 0.930 . S
H1092 C1102 0.930 . S
H1093 C1103 0.930 1_556 S
C1094 H1088 0.930 . S
C1094 C1095 1.355 . S
C1094 C1096 1.415 . S
C1095 C1094 1.355 . S
C1095 C1097 1.419 . S
C1096 C1094 1.415 . S
C1096 C1101 1.425 . S
C1096 C1103 1.409 . S
C1097 H1089 0.930 . S
C1097 C1095 1.419 . S
C1097 C1098 1.362 . S
C1098 H1090 0.930 . S
C1098 C1097 1.362 . S
C1098 C1101 1.409 . S
C1099 H1091 0.930 . S
C1099 C1100 1.355 . S
C1099 C1101 1.415 . S
C1100 C1099 1.355 . S
C1100 C1102 1.419 1_554 S
C1101 C1096 1.425 . S
C1101 C1098 1.409 . S
C1101 C1099 1.415 . S
C1102 H1092 0.930 . S
C1102 C1100 1.419 1_556 S
C1102 C1103 1.362 1_556 S
C1103 H1093 0.930 1_554 S
C1103 C1096 1.409 . S
C1103 C1102 1.362 1_554 S
H1104 C1110 0.930 . S
H1105 C1113 0.930 . S
H1106 C1114 0.930 . S
H1107 C1115 0.930 . S
H1108 C1118 0.930 . S
H1109 C1119 0.930 . S
C1110 H1104 0.930 . S
C1110 C1111 1.355 . S
C1110 C1112 1.415 . S
C1111 C1110 1.355 . S
C1111 C1113 1.419 . S
C1112 C1110 1.415 . S
C1112 C1117 1.425 . S
C1112 C1119 1.409 . S
C1113 H1105 0.930 . S
C1113 C1111 1.419 . S
C1113 C1114 1.362 . S
C1114 H1106 0.930 . S
C1114 C1113 1.362 . S
C1114 C1117 1.409 . S
C1115 H1107 0.930 . S
C1115 C1116 1.355 . S
C1115 C1117 1.415 . S
C1116 C1115 1.355 . S
C1116 C1118 1.419 . S
C1117 C1112 1.425 . S
C1117 C1114 1.409 . S
C1117 C1115 1.415 . S
C1118 H1108 0.930 . S
C1118 C1116 1.419 . S
C1118 C1119 1.362 . S
C1119 H1109 0.930 . S
C1119 C1112 1.409 . S
C1119 C1118 1.362 . S
H1120 C1126 0.930 . S
H1121 C1129 0.930 . S
H1122 C1130 0.930 . S
H1123 C1131 0.930 . S
H1124 C1134 0.930 . S
H1125 C1135 0.930 . S
C1126 H1120 0.930 . S
C1126 C1127 1.355 . S
C1126 C1128 1.415 . S
C1127 C1126 1.355 . S
C1127 C1129 1.419 . S
C1128 C1126 1.415 . S
C1128 C1133 1.425 . S
C1128 C1135 1.409 . S
C1129 H1121 0.930 . S
C1129 C1127 1.419 . S
C1129 C1130 1.362 . S
C1130 H1122 0.930 . S
C1130 C1129 1.362 . S
C1130 C1133 1.409 . S
C1131 H1123 0.930 . S
C1131 C1132 1.355 . S
C1131 C1133 1.415 . S
C1132 C1131 1.355 . S
C1132 C1134 1.419 . S
C1133 C1128 1.425 . S
C1133 C1130 1.409 . S
C1133 C1131 1.415 . S
C1134 H1124 0.930 . S
C1134 C1132 1.419 . S
C1134 C1135 1.362 . S
C1135 H1125 0.930 . S
C1135 C1128 1.409 . S
C1135 C1134 1.362 . S
H1136 C1142 0.930 . S
H1137 C1145 0.930 . S
H1138 C1146 0.930 . S
H1139 C1147 0.930 . S
H1140 C1150 0.930 . S
H1141 C1151 0.930 . S
C1142 H1136 0.930 . S
C1142 C1143 1.355 . S
C1142 C1144 1.415 . S
C1143 C1142 1.355 . S
C1143 C1145 1.419 . S
C1144 C1142 1.415 . S
C1144 C1149 1.425 . S
C1144 C1151 1.409 . S
C1145 H1137 0.930 . S
C1145 C1143 1.419 . S
C1145 C1146 1.362 . S
C1146 H1138 0.930 . S
C1146 C1145 1.362 . S
C1146 C1149 1.409 . S
C1147 H1139 0.930 . S
C1147 C1148 1.355 . S
C1147 C1149 1.415 . S
C1148 C1147 1.355 . S
C1148 C1150 1.419 . S
C1149 C1144 1.425 . S
C1149 C1146 1.409 . S
C1149 C1147 1.415 . S
C1150 H1140 0.930 . S
C1150 C1148 1.419 . S
C1150 C1151 1.362 . S
C1151 H1141 0.930 . S
C1151 C1144 1.409 . S
C1151 C1150 1.362 . S
H1152 C1158 0.930 . S
H1153 C1161 0.930 . S
H1154 C1162 0.930 . S
H1155 C1163 0.930 . S
H1156 C1166 0.930 . S
H1157 C1167 0.930 . S
C1158 H1152 0.930 . S
C1158 C1159 1.355 . S
C1158 C1160 1.415 . S
C1159 C1158 1.355 . S
C1159 C1161 1.419 . S
C1160 C1158 1.415 . S
C1160 C1165 1.425 . S
C1160 C1167 1.409 . S
C1161 H1153 0.930 . S
C1161 C1159 1.419 . S
C1161 C1162 1.362 . S
C1162 H1154 0.930 . S
C1162 C1161 1.362 . S
C1162 C1165 1.409 . S
C1163 H1155 0.930 . S
C1163 C1164 1.355 . S
C1163 C1165 1.415 . S
C1164 C1163 1.355 . S
C1164 C1166 1.419 . S
C1165 C1160 1.425 . S
C1165 C1162 1.409 . S
C1165 C1163 1.415 . S
C1166 H1156 0.930 . S
C1166 C1164 1.419 . S
C1166 C1167 1.362 . S
C1167 H1157 0.930 . S
C1167 C1160 1.409 . S
C1167 C1166 1.362 . S
H1168 C1174 0.930 . S
H1169 C1177 0.930 . S
H1170 C1178 0.930 . S
H1171 C1179 0.930 . S
H1172 C1182 0.930 . S
H1173 C1183 0.930 . S
C1174 H1168 0.930 . S
C1174 C1175 1.355 . S
C1174 C1176 1.415 . S
C1175 C1174 1.355 . S
C1175 C1177 1.419 . S
C1176 C1174 1.415 . S
C1176 C1181 1.425 . S
C1176 C1183 1.409 . S
C1177 H1169 0.930 . S
C1177 C1175 1.419 . S
C1177 C1178 1.362 . S
C1178 H1170 0.930 . S
C1178 C1177 1.362 . S
C1178 C1181 1.409 . S
C1179 H1171 0.930 . S
C1179 C1180 1.355 . S
C1179 C1181 1.415 . S
C1180 C1179 1.355 . S
C1180 C1182 1.419 . S
C1181 C1176 1.425 . S
C1181 C1178 1.409 . S
C1181 C1179 1.415 . S
C1182 H1172 0.930 . S
C1182 C1180 1.419 . S
C1182 C1183 1.362 . S
C1183 H1173 0.930 . S
C1183 C1176 1.409 . S
C1183 C1182 1.362 . S
H1184 C1190 0.930 . S
H1185 C1193 0.930 . S
H1186 C1194 0.930 . S
H1187 C1195 0.930 . S
H1188 C1198 0.930 . S
H1189 C1199 0.930 . S
C1190 H1184 0.930 . S
C1190 C1191 1.355 . S
C1190 C1192 1.415 . S
C1191 C1190 1.355 . S
C1191 C1193 1.419 . S
C1192 C1190 1.415 . S
C1192 C1197 1.425 . S
C1192 C1199 1.409 . S
C1193 H1185 0.930 . S
C1193 C1191 1.419 . S
C1193 C1194 1.362 . S
C1194 H1186 0.930 . S
C1194 C1193 1.362 . S
C1194 C1197 1.409 . S
C1195 H1187 0.930 . S
C1195 C1196 1.355 . S
C1195 C1197 1.415 . S
C1196 C1195 1.355 . S
C1196 C1198 1.419 . S
C1197 C1192 1.425 . S
C1197 C1194 1.409 . S
C1197 C1195 1.415 . S
C1198 H1188 0.930 . S
C1198 C1196 1.419 . S
C1198 C1199 1.362 . S
C1199 H1189 0.930 . S
C1199 C1192 1.409 . S
C1199 C1198 1.362 . S
H1200 C1206 0.930 . S
H1201 C1209 0.930 . S
H1202 C1210 0.930 . S
H1203 C1211 0.930 . S
H1204 C1214 0.930 1_554 S
H1205 C1215 0.930 . S
C1206 H1200 0.930 . S
C1206 C1207 1.355 . S
C1206 C1208 1.415 . S
C1207 C1206 1.355 . S
C1207 C1209 1.419 . S
C1208 C1206 1.415 . S
C1208 C1213 1.425 . S
C1208 C1215 1.409 . S
C1209 H1201 0.930 . S
C1209 C1207 1.419 . S
C1209 C1210 1.362 . S
C1210 H1202 0.930 . S
C1210 C1209 1.362 . S
C1210 C1213 1.409 . S
C1211 H1203 0.930 . S
C1211 C1212 1.355 . S
C1211 C1213 1.415 . S
C1212 C1211 1.355 . S
C1212 C1214 1.419 . S
C1213 C1208 1.425 . S
C1213 C1210 1.409 . S
C1213 C1211 1.415 . S
C1214 H1204 0.930 1_556 S
C1214 C1212 1.419 . S
C1214 C1215 1.362 . S
C1215 H1205 0.930 . S
C1215 C1208 1.409 . S
C1215 C1214 1.362 . S
H1216 C1222 0.930 . S
H1217 C1225 0.930 1_455 S
H1218 C1226 0.930 . S
H1219 C1227 0.930 . S
H1220 C1230 0.930 . S
H1221 C1231 0.930 . S
C1222 H1216 0.930 . S
C1222 C1223 1.355 . S
C1222 C1224 1.415 . S
C1223 C1222 1.355 . S
C1223 C1225 1.419 . S
C1224 C1222 1.415 . S
C1224 C1229 1.425 . S
C1224 C1231 1.409 . S
C1225 H1217 0.930 1_655 S
C1225 C1223 1.419 . S
C1225 C1226 1.362 . S
C1226 H1218 0.930 . S
C1226 C1225 1.362 . S
C1226 C1229 1.409 . S
C1227 H1219 0.930 . S
C1227 C1228 1.355 . S
C1227 C1229 1.415 . S
C1228 C1227 1.355 . S
C1228 C1230 1.419 . S
C1229 C1224 1.425 . S
C1229 C1226 1.409 . S
C1229 C1227 1.415 . S
C1230 H1220 0.930 . S
C1230 C1228 1.419 . S
C1230 C1231 1.362 . S
C1231 H1221 0.930 . S
C1231 C1224 1.409 . S
C1231 C1230 1.362 . S
H1232 C1238 0.930 . S
H1233 C1241 0.930 . S
H1234 C1242 0.930 . S
H1235 C1243 0.930 . S
H1236 C1246 0.930 . S
H1237 C1247 0.930 . S
C1238 H1232 0.930 . S
C1238 C1239 1.355 . S
C1238 C1240 1.415 . S
C1239 C1238 1.355 . S
C1239 C1241 1.419 . S
C1240 C1238 1.415 . S
C1240 C1245 1.425 . S
C1240 C1247 1.409 . S
C1241 H1233 0.930 . S
C1241 C1239 1.419 . S
C1241 C1242 1.362 . S
C1242 H1234 0.930 . S
C1242 C1241 1.362 . S
C1242 C1245 1.409 . S
C1243 H1235 0.930 . S
C1243 C1244 1.355 . S
C1243 C1245 1.415 . S
C1244 C1243 1.355 . S
C1244 C1246 1.419 . S
C1245 C1240 1.425 . S
C1245 C1242 1.409 . S
C1245 C1243 1.415 . S
C1246 H1236 0.930 . S
C1246 C1244 1.419 . S
C1246 C1247 1.362 . S
C1247 H1237 0.930 . S
C1247 C1240 1.409 . S
C1247 C1246 1.362 . S
H1248 C1254 0.930 . S
H1249 C1257 0.930 . S
H1250 C1258 0.930 . S
H1251 C1259 0.930 . S
H1252 C1262 0.930 . S
H1253 C1263 0.930 . S
C1254 H1248 0.930 . S
C1254 C1255 1.355 . S
C1254 C1256 1.415 . S
C1255 C1254 1.355 . S
C1255 C1257 1.419 . S
C1256 C1254 1.415 . S
C1256 C1261 1.425 . S
C1256 C1263 1.409 . S
C1257 H1249 0.930 . S
C1257 C1255 1.419 . S
C1257 C1258 1.362 . S
C1258 H1250 0.930 . S
C1258 C1257 1.362 . S
C1258 C1261 1.409 . S
C1259 H1251 0.930 . S
C1259 C1260 1.355 . S
C1259 C1261 1.415 . S
C1260 C1259 1.355 . S
C1260 C1262 1.419 . S
C1261 C1256 1.425 . S
C1261 C1258 1.409 . S
C1261 C1259 1.415 . S
C1262 H1252 0.930 . S
C1262 C1260 1.419 . S
C1262 C1263 1.362 . S
C1263 H1253 0.930 . S
C1263 C1256 1.409 . S
C1263 C1262 1.362 . S
H1264 C1270 0.930 . S
H1265 C1273 0.930 . S
H1266 C1274 0.930 . S
H1267 C1275 0.930 . S
H1268 C1278 0.930 . S
H1269 C1279 0.930 . S
C1270 H1264 0.930 . S
C1270 C1271 1.355 . S
C1270 C1272 1.415 . S
C1271 C1270 1.355 . S
C1271 C1273 1.419 . S
C1272 C1270 1.415 . S
C1272 C1277 1.425 . S
C1272 C1279 1.409 . S
C1273 H1265 0.930 . S
C1273 C1271 1.419 . S
C1273 C1274 1.362 . S
C1274 H1266 0.930 . S
C1274 C1273 1.362 . S
C1274 C1277 1.409 . S
C1275 H1267 0.930 . S
C1275 C1276 1.355 . S
C1275 C1277 1.415 . S
C1276 C1275 1.355 . S
C1276 C1278 1.419 . S
C1277 C1272 1.425 . S
C1277 C1274 1.409 . S
C1277 C1275 1.415 . S
C1278 H1268 0.930 . S
C1278 C1276 1.419 . S
C1278 C1279 1.362 . S
C1279 H1269 0.930 . S
C1279 C1272 1.409 . S
C1279 C1278 1.362 . S
H1280 C1286 0.930 . S
H1281 C1289 0.930 . S
H1282 C1290 0.930 . S
H1283 C1291 0.930 . S
H1284 C1294 0.930 . S
H1285 C1295 0.930 . S
C1286 H1280 0.930 . S
C1286 C1287 1.355 . S
C1286 C1288 1.415 . S
C1287 C1286 1.355 . S
C1287 C1289 1.419 . S
C1288 C1286 1.415 . S
C1288 C1293 1.425 . S
C1288 C1295 1.409 . S
C1289 H1281 0.930 . S
C1289 C1287 1.419 . S
C1289 C1290 1.362 . S
C1290 H1282 0.930 . S
C1290 C1289 1.362 . S
C1290 C1293 1.409 . S
C1291 H1283 0.930 . S
C1291 C1292 1.355 . S
C1291 C1293 1.415 . S
C1292 C1291 1.355 . S
C1292 C1294 1.419 . S
C1293 C1288 1.425 . S
C1293 C1290 1.409 . S
C1293 C1291 1.415 . S
C1294 H1284 0.930 . S
C1294 C1292 1.419 . S
C1294 C1295 1.362 . S
C1295 H1285 0.930 . S
C1295 C1288 1.409 . S
C1295 C1294 1.362 . S
H1296 C1302 0.930 1_556 S
H1297 C1305 0.930 . S
H1298 C1306 0.930 . S
H1299 C1307 0.930 . S
H1300 C1310 0.930 . S
H1301 C1311 0.930 1_556 S
C1302 H1296 0.930 1_554 S
C1302 C1303 1.355 . S
C1302 C1304 1.415 . S
C1303 C1302 1.355 . S
C1303 C1305 1.419 . S
C1304 C1302 1.415 . S
C1304 C1309 1.425 . S
C1304 C1311 1.409 . S
C1305 H1297 0.930 . S
C1305 C1303 1.419 . S
C1305 C1306 1.362 . S
C1306 H1298 0.930 . S
C1306 C1305 1.362 . S
C1306 C1309 1.409 . S
C1307 H1299 0.930 . S
C1307 C1308 1.355 . S
C1307 C1309 1.415 . S
C1308 C1307 1.355 . S
C1308 C1310 1.419 . S
C1309 C1304 1.425 . S
C1309 C1306 1.409 . S
C1309 C1307 1.415 . S
C1310 H1300 0.930 . S
C1310 C1308 1.419 . S
C1310 C1311 1.362 . S
C1311 H1301 0.930 1_554 S
C1311 C1304 1.409 . S
C1311 C1310 1.362 . S
H1312 C1318 0.930 . S
H1313 C1321 0.930 . S
H1314 C1322 0.930 . S
H1315 C1323 0.930 . S
H1316 C1326 0.930 1_556 S
H1317 C1327 0.930 . S
C1318 H1312 0.930 . S
C1318 C1319 1.355 . S
C1318 C1320 1.415 . S
C1319 C1318 1.355 . S
C1319 C1321 1.419 . S
C1320 C1318 1.415 . S
C1320 C1325 1.425 . S
C1320 C1327 1.409 . S
C1321 H1313 0.930 . S
C1321 C1319 1.419 . S
C1321 C1322 1.362 . S
C1322 H1314 0.930 . S
C1322 C1321 1.362 . S
C1322 C1325 1.409 . S
C1323 H1315 0.930 . S
C1323 C1324 1.355 . S
C1323 C1325 1.415 . S
C1324 C1323 1.355 . S
C1324 C1326 1.419 . S
C1325 C1320 1.425 . S
C1325 C1322 1.409 . S
C1325 C1323 1.415 . S
C1326 H1316 0.930 1_554 S
C1326 C1324 1.419 . S
C1326 C1327 1.362 . S
C1327 H1317 0.930 . S
C1327 C1320 1.409 . S
C1327 C1326 1.362 . S
H1328 C1334 0.930 . S
H1329 C1337 0.930 . S
H1330 C1338 0.930 . S
H1331 C1339 0.930 . S
H1332 C1342 0.930 . S
H1333 C1343 0.930 1_556 S
C1334 H1328 0.930 . S
C1334 C1335 1.355 . S
C1334 C1336 1.415 . S
C1335 C1334 1.355 . S
C1335 C1337 1.419 . S
C1336 C1334 1.415 . S
C1336 C1341 1.425 . S
C1336 C1343 1.409 . S
C1337 H1329 0.930 . S
C1337 C1335 1.419 . S
C1337 C1338 1.362 . S
C1338 H1330 0.930 . S
C1338 C1337 1.362 . S
C1338 C1341 1.409 . S
C1339 H1331 0.930 . S
C1339 C1340 1.355 . S
C1339 C1341 1.415 . S
C1340 C1339 1.355 . S
C1340 C1342 1.419 1_554 S
C1341 C1336 1.425 . S
C1341 C1338 1.409 . S
C1341 C1339 1.415 . S
C1342 H1332 0.930 . S
C1342 C1340 1.419 1_556 S
C1342 C1343 1.362 1_556 S
C1343 H1333 0.930 1_554 S
C1343 C1336 1.409 . S
C1343 C1342 1.362 1_554 S
H1344 C1350 0.930 . S
H1345 C1353 0.930 . S
H1346 C1354 0.930 . S
H1347 C1355 0.930 . S
H1348 C1358 0.930 . S
H1349 C1359 0.930 . S
C1350 H1344 0.930 . S
C1350 C1351 1.355 . S
C1350 C1352 1.415 1_655 S
C1351 C1350 1.355 . S
C1351 C1353 1.419 . S
C1352 C1350 1.415 1_455 S
C1352 C1357 1.425 . S
C1352 C1359 1.409 . S
C1353 H1345 0.930 . S
C1353 C1351 1.419 . S
C1353 C1354 1.362 1_655 S
C1354 H1346 0.930 . S
C1354 C1353 1.362 1_455 S
C1354 C1357 1.409 . S
C1355 H1347 0.930 . S
C1355 C1356 1.355 . S
C1355 C1357 1.415 . S
C1356 C1355 1.355 . S
C1356 C1358 1.419 . S
C1357 C1352 1.425 . S
C1357 C1354 1.409 . S
C1357 C1355 1.415 . S
C1358 H1348 0.930 . S
C1358 C1356 1.419 . S
C1358 C1359 1.362 . S
C1359 H1349 0.930 . S
C1359 C1352 1.409 . S
C1359 C1358 1.362 . S
H1360 C1366 0.930 . S
H1361 C1369 0.930 . S
H1362 C1370 0.930 . S
H1363 C1371 0.930 . S
H1364 C1374 0.930 . S
H1365 C1375 0.930 . S
C1366 H1360 0.930 . S
C1366 C1367 1.355 . S
C1366 C1368 1.415 . S
C1367 C1366 1.355 . S
C1367 C1369 1.419 . S
C1368 C1366 1.415 . S
C1368 C1373 1.425 . S
C1368 C1375 1.409 . S
C1369 H1361 0.930 . S
C1369 C1367 1.419 . S
C1369 C1370 1.362 . S
C1370 H1362 0.930 . S
C1370 C1369 1.362 . S
C1370 C1373 1.409 . S
C1371 H1363 0.930 . S
C1371 C1372 1.355 . S
C1371 C1373 1.415 . S
C1372 C1371 1.355 . S
C1372 C1374 1.419 . S
C1373 C1368 1.425 . S
C1373 C1370 1.409 . S
C1373 C1371 1.415 . S
C1374 H1364 0.930 . S
C1374 C1372 1.419 . S
C1374 C1375 1.362 . S
C1375 H1365 0.930 . S
C1375 C1368 1.409 . S
C1375 C1374 1.362 . S
H1376 C1382 0.930 . S
H1377 C1385 0.930 . S
H1378 C1386 0.930 . S
H1379 C1387 0.930 . S
H1380 C1390 0.930 . S
H1381 C1391 0.930 . S
C1382 H1376 0.930 . S
C1382 C1383 1.355 . S
C1382 C1384 1.415 1_565 S
C1383 C1382 1.355 . S
C1383 C1385 1.419 . S
C1384 C1382 1.415 1_545 S
C1384 C1389 1.425 . S
C1384 C1391 1.409 . S
C1385 H1377 0.930 . S
C1385 C1383 1.419 . S
C1385 C1386 1.362 . S
C1386 H1378 0.930 . S
C1386 C1385 1.362 . S
C1386 C1389 1.409 1_565 S
C1387 H1379 0.930 . S
C1387 C1388 1.355 . S
C1387 C1389 1.415 . S
C1388 C1387 1.355 . S
C1388 C1390 1.419 . S
C1389 C1384 1.425 . S
C1389 C1386 1.409 1_545 S
C1389 C1387 1.415 . S
C1390 H1380 0.930 . S
C1390 C1388 1.419 . S
C1390 C1391 1.362 . S
C1391 H1381 0.930 . S
C1391 C1384 1.409 . S
C1391 C1390 1.362 . S
H1392 C1398 0.930 . S
H1393 C1401 0.930 . S
H1394 C1402 0.930 . S
H1395 C1403 0.930 . S
H1396 C1406 0.930 . S
H1397 C1407 0.930 . S
C1398 H1392 0.930 . S
C1398 C1399 1.355 . S
C1398 C1400 1.415 1_565 S
C1399 C1398 1.355 . S
C1399 C1401 1.419 . S
C1400 C1398 1.415 1_545 S
C1400 C1405 1.425 . S
C1400 C1407 1.409 . S
C1401 H1393 0.930 . S
C1401 C1399 1.419 . S
C1401 C1402 1.362 . S
C1402 H1394 0.930 . S
C1402 C1401 1.362 . S
C1402 C1405 1.409 1_565 S
C1403 H1395 0.930 . S
C1403 C1404 1.355 . S
C1403 C1405 1.415 . S
C1404 C1403 1.355 . S
C1404 C1406 1.419 . S
C1405 C1400 1.425 . S
C1405 C1402 1.409 1_545 S
C1405 C1403 1.415 . S
C1406 H1396 0.930 . S
C1406 C1404 1.419 . S
C1406 C1407 1.362 . S
C1407 H1397 0.930 . S
C1407 C1400 1.409 . S
C1407 C1406 1.362 . S
H1408 C1414 0.930 . S
H1409 C1417 0.930 . S
H1410 C1418 0.930 . S
H1411 C1419 0.930 . S
H1412 C1422 0.930 . S
H1413 C1423 0.953 . S
C1414 H1408 0.930 . S
C1414 C1415 1.355 . S
C1414 C1416 1.415 . S
C1415 C1414 1.355 . S
C1415 C1417 1.419 . S
C1416 C1414 1.415 . S
C1416 C1421 1.425 . S
C1416 C1423 1.413 . S
C1417 H1409 0.930 . S
C1417 C1415 1.419 . S
C1417 C1418 1.362 . S
C1418 H1410 0.930 . S
C1418 C1417 1.362 . S
C1418 C1421 1.409 . S
C1419 H1411 0.930 . S
C1419 C1420 1.355 . S
C1419 C1421 1.415 1_655 S
C1420 C1419 1.355 . S
C1420 C1422 1.419 . S
C1421 C1416 1.425 . S
C1421 C1418 1.409 . S
C1421 C1419 1.415 1_455 S
C1422 H1412 0.930 . S
C1422 C1420 1.419 . S
C1422 C1423 1.336 1_655 S
C1423 H1413 0.953 . S
C1423 C1416 1.413 . S
C1423 C1422 1.336 1_455 S
H1424 C1430 0.930 . S
H1425 C1433 0.930 . S
H1426 C1434 0.930 . S
H1427 C1435 0.930 . S
H1428 C1438 0.930 . S
H1429 C1439 0.930 . S
C1430 H1424 0.930 . S
C1430 C1431 1.355 . S
C1430 C1432 1.415 . S
C1431 C1430 1.355 . S
C1431 C1433 1.419 . S
C1432 C1430 1.415 . S
C1432 C1437 1.425 . S
C1432 C1439 1.409 . S
C1433 H1425 0.930 . S
C1433 C1431 1.419 . S
C1433 C1434 1.362 . S
C1434 H1426 0.930 . S
C1434 C1433 1.362 . S
C1434 C1437 1.409 . S
C1435 H1427 0.930 . S
C1435 C1436 1.355 . S
C1435 C1437 1.415 . S
C1436 C1435 1.355 . S
C1436 C1438 1.419 . S
C1437 C1432 1.425 . S
C1437 C1434 1.409 . S
C1437 C1435 1.415 . S
C1438 H1428 0.930 . S
C1438 C1436 1.419 . S
C1438 C1439 1.362 . S
C1439 H1429 0.930 . S
C1439 C1432 1.409 . S
C1439 C1438 1.362 . S
C583 C6 1.816 . S
C588 N146 1.721 . S
C599 N178 1.770 . S
C604 C38 1.827 . S
C615 C66 1.841 . S
C620 N114 1.776 . S
C631 C70 1.841 . S
C636 N141 1.776 . S
C647 N173 1.765 . S
C652 C2 1.822 . S
C663 C34 1.832 . S
C668 N109 1.773 . S
C679 N50 1.752 . S
C684 C102 1.836 . S
C695 N77 1.692 . S
C700 C134 1.775 . S
C711 C166 1.825 . S
C716 N18 1.733 . S
C727 C162 1.843 . S
C732 N45 1.771 . S
C743 N82 1.689 . S
C748 C98 1.785 . S
C759 N13 1.693 . S
C764 C130 1.791 . S
C775 N333 1.697 . S
C780 C198 1.796 1_556 S
C791 C230 1.799 1_556 S
C796 N370 1.739 . S
C807 C262 1.791 1_556 S
C812 N306 1.693 . S
C823 N338 1.752 . S
C828 C258 1.810 . S
C839 N365 1.710 . S
C844 C194 1.781 . S
C855 N301 1.752 . S
C860 C226 1.836 . S
C871 N242 1.716 . S
C876 C294 1.813 . S
C887 N274 1.768 . S
C892 C322 1.825 . S
C903 N210 1.765 . S
C908 C358 1.821 . S
C919 N237 1.690 . S
C924 C354 1.775 . S
C935 N269 1.695 . S
C940 C290 1.793 . S
C951 C326 1.787 . S
C956 N205 1.690 . S
C967 C390 1.785 . S
C972 N525 1.689 . S
C983 C418 1.841 . S
C988 N557 1.763 . S
C999 N498 1.695 . S
C1004 C454 1.793 . S
C1015 N530 1.757 . S
C1020 C450 1.814 . S
C1031 C386 1.783 . S
C1036 N562 1.714 . S
C1047 C422 1.818 . S
C1052 N493 1.761 . S
C1063 N429 1.720 . S
C1068 C486 1.786 1_554 S
C1079 N466 1.726 . S
C1084 C514 1.790 1_554 S
C1095 N402 1.742 . S
C1100 C546 1.801 1_554 S
C1111 C550 1.842 . S
C1116 N434 1.775 . S
C1127 C482 1.780 . S
C1132 N461 1.686 . S
C1143 N397 1.697 . S
C1148 C518 1.796 . S
C1159 C29 1.214 . S
C1164 C445 1.259 . S
C1175 C61 1.212 . S
C1180 C452 1.247 . S
C1191 C68 1.246 . S
C1196 C388 1.263 . S
C1207 C93 1.263 . S
C1212 C253 1.218 1_556 S
C1223 C4 1.217 . S
C1228 C285 1.263 1_556 S
C1239 C36 1.268 . S
C1244 C221 1.231 1_556 S
C1255 C349 1.242 . S
C1260 C125 1.213 . S
C1271 C157 1.248 . S
C1276 C356 1.212 . S
C1287 C189 1.267 . S
C1292 C292 1.235 . S
C1303 C516 1.253 1_554 S
C1308 C164 1.259 . S
C1319 C100 1.247 . S
C1324 C548 1.212 1_554 S
C1335 C132 1.212 . S
C1340 C509 1.252 1_554 S
C1351 C260 1.216 . S
C1356 C420 1.235 . S
C1367 C196 1.216 . S
C1372 C477 1.236 . S
C1383 C413 1.224 . S
C1388 C228 1.267 . S
C1399 C541 1.268 . S
C1404 C317 1.232 . S
C1415 C573 1.221 . S
C1420 C324 1.265 . S
C1431 C381 1.264 . S
C1436 C484 1.245 . S
