# Generated by pormake.
# Topology sxb, (6)-cn, num edge types: 1
# Building blocks:
#     Node 0, Type 0, BuildingBlock: GEDQOX_clean_sbu_0, # of connection points: 6
#     Node 1, Type 0, BuildingBlock: GEDQOX_clean_sbu_0, # of connection points: 6
#     Node 2, Type 0, BuildingBlock: GEDQOX_clean_sbu_0, # of connection points: 6
#     Node 3, Type 0, BuildingBlock: GEDQOX_clean_sbu_0, # of connection points: 6
#     Edge 4, Type (0, 0), BuildingBlock: AJUNOK_clean_linker_0, # of connection points: 2
#     Edge 5, Type (0, 0), BuildingBlock: AJUNOK_clean_linker_0, # of connection points: 2
#     Edge 6, Type (0, 0), BuildingBlock: AJUNOK_clean_linker_0, # of connection points: 2
#     Edge 7, Type (0, 0), BuildingBlock: AJUNOK_clean_linker_0, # of connection points: 2
#     Edge 8, Type (0, 0), BuildingBlock: AJUNOK_clean_linker_0, # of connection points: 2
#     Edge 9, Type (0, 0), BuildingBlock: AJUNOK_clean_linker_0, # of connection points: 2
#     Edge 10, Type (0, 0), BuildingBlock: AJUNOK_clean_linker_0, # of connection points: 2
#     Edge 11, Type (0, 0), BuildingBlock: AJUNOK_clean_linker_0, # of connection points: 2
#     Edge 12, Type (0, 0), BuildingBlock: AJUNOK_clean_linker_0, # of connection points: 2
#     Edge 13, Type (0, 0), BuildingBlock: AJUNOK_clean_linker_0, # of connection points: 2
#     Edge 14, Type (0, 0), BuildingBlock: AJUNOK_clean_linker_0, # of connection points: 2
#     Edge 15, Type (0, 0), BuildingBlock: AJUNOK_clean_linker_0, # of connection points: 2
# Relax obj value: 0.632
# Max RMSD: 0.152
# Mean RMSD: 0.098
data_MOF--net-sxb--node1-GEDQOX_clean_sbu_0--edge1-AJUNOK_clean_linker_0
_symmetry_space_group_name_H-M    P1
_symmetry_Int_Tables_number       1
_symmetry_cell_setting            triclinic
loop_
_symmetry_equiv_pos_as_xyz
'x, y, z'
_cell_length_a     13.279891
_cell_length_b     27.289852
_cell_length_c     22.801004
_cell_angle_alpha  86.738007
_cell_angle_beta   94.331101
_cell_angle_gamma 116.00276
loop_
_atom_site_label
_atom_site_type_symbol
_atom_site_fract_x
_atom_site_fract_y
_atom_site_fract_z
_atom_type_partial_charge
Nd0 Nd 0.32609 0.15525 0.00352 0.0
Nd1 Nd 1.27197 1.10941 0.01082 0.0
C2 C 0.41984 0.26307 0.01406 0.0
C3 C 0.38819 0.30596 -0.00681 0.0
C4 C 0.42481 0.35301 0.0262 0.0
C5 C 0.36637 0.38492 0.02022 0.0
C6 C 1.2715 0.36975 -0.01892 0.0
C7 C 1.24357 0.32631 0.94327 0.0
C8 C 0.30158 0.29437 0.94943 0.0
C9 C 0.29313 0.14166 0.88114 0.0
C10 C 1.02391 1.11436 -0.01122 0.0
C11 C 1.1921 1.00406 -0.01112 0.0
C12 C 1.22499 0.96089 0.00705 0.0
C13 C 1.23 0.92825 0.96335 0.0
C14 C 0.297 0.90095 0.9732 0.0
C15 C 0.3584 0.90548 0.02724 0.0
C16 C 0.34045 0.93196 0.07363 0.0
C17 C 1.27536 0.96041 0.0633 0.0
C18 C 0.28827 1.11128 0.13332 0.0
C19 C 0.53848 1.11613 -0.01566 0.0
O20 O 0.35234 0.22869 0.05114 0.0
O21 O 0.44548 0.23871 0.97458 0.0
O22 O 0.38962 0.15631 0.90958 0.0
O23 O 1.21971 0.12973 0.9182 0.0
O24 O 1.12883 0.14397 0.01443 0.0
O25 O 1.12801 0.1424 0.0131 0.0
O26 O 1.26465 1.04278 0.95728 0.0
O27 O 1.15371 1.02278 0.02852 0.0
O28 O 1.19356 1.09201 0.1025 0.0
O29 O 0.36726 0.13165 0.09861 0.0
O30 O 0.48032 0.13304 0.01861 0.0
O31 O 0.48567 0.13365 0.02035 0.0
H32 H 0.49144 0.36212 0.06031 0.0
H33 H 0.38898 0.41842 0.04963 0.0
H34 H 1.1697 0.31348 0.91339 0.0
H35 H 1.27168 0.25766 0.92416 0.0
H36 H 1.19157 0.9284 0.91971 0.0
H37 H 0.3086 0.88059 0.93666 0.0
H38 H 0.38344 0.93417 0.1164 0.0
H39 H 1.27206 0.9854 0.09769 0.0
Nd40 Nd 1.20129 0.12298 0.48896 0.0
Nd41 Nd 0.37 1.11585 0.52773 0.0
C42 C 0.99399 1.09594 0.44632 0.0
C43 C 0.92259 1.04674 0.41148 0.0
C44 C 0.91305 0.99518 0.43053 0.0
C45 C 0.8451 0.94861 0.39996 0.0
C46 C 0.77381 0.95128 0.35317 0.0
C47 C 0.77703 1.00312 0.3314 0.0
C48 C 0.86188 1.05099 0.35981 0.0
C49 C 0.32195 0.12807 0.3917 0.0
C50 C 1.17582 0.99614 0.50663 0.0
C51 C 0.55899 1.10989 0.55632 0.0
C52 C 0.58391 1.06672 0.53571 0.0
C53 C 0.67033 1.08162 0.49768 0.0
C54 C 0.66701 1.04461 0.45751 0.0
C55 C 0.57855 0.99176 0.45471 0.0
C56 C 0.50156 0.97444 0.49897 0.0
C57 C 0.50339 1.01178 0.53895 0.0
C58 C 1.2509 1.11251 0.62515 0.0
C59 C 0.39842 0.24476 0.51156 0.0
O60 O 1.01801 1.08778 0.50153 0.0
O61 O 1.08087 0.13238 0.42073 0.0
O62 O 0.29472 0.16561 0.40578 0.0
O63 O 0.29883 1.09266 0.43351 0.0
O64 O 1.1277 1.02782 0.51745 0.0
O65 O 1.28331 1.02392 0.49802 0.0
O66 O 0.4782 1.09402 0.59222 0.0
O67 O 0.55045 0.143 0.51456 0.0
O68 O 1.27828 1.07475 0.61195 0.0
O69 O 1.27318 0.14738 0.58293 0.0
O70 O 0.45273 0.21354 0.51303 0.0
O71 O 0.28715 0.21757 0.50867 0.0
H72 H 0.9521 0.9895 0.47141 0.0
H73 H 0.83707 0.90944 0.41769 0.0
H74 H 0.60579 0.99008 0.26708 0.0
H75 H 0.86928 1.09128 0.34728 0.0
H76 H 0.73419 0.12341 0.49489 0.0
H77 H 0.73232 1.05903 0.42768 0.0
H78 H 0.43631 0.93307 0.5007 0.0
H79 H 0.43621 0.99858 0.56887 0.0
Nd80 Nd 0.82232 0.64818 0.0026 0.0
Nd81 Nd 0.76867 0.60233 0.00756 0.0
C82 C 0.90799 0.75476 0.02175 0.0
C83 C 0.8661 0.79621 0.01457 0.0
C84 C 0.86751 0.82431 0.06444 0.0
C85 C 0.79829 0.85051 0.0651 0.0
C86 C 0.72891 0.84989 0.01531 0.0
C87 C 0.73704 0.82683 0.96336 0.0
C88 C 0.80448 0.79962 0.9631 0.0
C89 C 0.81961 0.64069 0.88039 0.0
C90 C 0.51708 0.6039 -0.01346 0.0
C91 C 0.69169 0.49656 -0.01154 0.0
C92 C 0.74056 0.45954 0.00732 0.0
C93 C 0.72337 0.41658 0.97108 0.0
C94 C 0.8022 0.39558 0.97327 0.0
C95 C 0.89862 0.41795 0.01136 0.0
C96 C 0.90804 0.45614 0.05254 0.0
C97 C 0.82907 0.47686 0.05057 0.0
C98 C 0.77542 0.60553 0.12977 0.0
C99 C 1.03315 0.60725 -0.0162 0.0
O100 O 0.85669 0.71678 0.06022 0.0
O101 O 0.92385 0.73497 0.97478 0.0
O102 O 0.90927 0.657 0.91502 0.0
O103 O 0.73563 0.62463 0.91173 0.0
O104 O 0.62355 0.63654 0.00816 0.0
O105 O 0.62301 0.63462 0.00695 0.0
O106 O 0.75319 0.53489 0.95263 0.0
O107 O 0.65653 0.51543 0.02932 0.0
O108 O 0.68315 0.58736 0.09688 0.0
O109 O 0.85785 0.62373 0.09727 0.0
O110 O 0.97622 0.62504 0.01782 0.0
O111 O 0.98138 0.62567 0.01961 0.0
H112 H 0.91412 0.82166 0.10466 0.0
H113 H 0.79245 0.86717 0.10601 0.0
H114 H 0.68526 0.82656 0.92419 0.0
H115 H 0.80179 0.77802 0.92415 0.0
H116 H 0.65562 0.40313 0.93732 0.0
H117 H 0.79258 0.36508 0.94212 0.0
H118 H 0.98164 0.4737 0.0824 0.0
H119 H 0.84405 0.51056 0.07842 0.0
Nd120 Nd 0.70263 0.62333 0.50054 0.0
Nd121 Nd 0.88229 0.61853 0.50691 0.0
C122 C 0.53503 0.64859 0.48056 0.0
C123 C 0.50058 0.65834 0.41974 0.0
C124 C 0.39783 0.62085 0.39521 0.0
C125 C 0.37232 0.62266 0.33513 0.0
C126 C 0.44776 0.66313 0.29766 0.0
C127 C 0.55163 0.70035 0.32224 0.0
C128 C 0.57811 0.69781 0.38256 0.0
C129 C 0.75378 0.61069 0.3867 0.0
C130 C 0.65543 0.49642 0.51473 0.0
C131 C 1.04393 0.59957 0.47144 0.0
C132 C 1.08416 0.61488 0.41115 0.0
C133 C 1.17619 0.66489 0.40074 0.0
C134 C 1.20541 0.68346 0.34349 0.0
C135 C 1.14452 0.65214 0.29428 0.0
C136 C 1.05045 0.60255 0.30489 0.0
C137 C 1.02084 0.58411 0.36245 0.0
C138 C 0.84611 0.63233 0.62301 0.0
C139 C 0.92227 0.74472 0.50381 0.0
O140 O 0.51906 0.59859 0.49287 0.0
O141 O 0.63307 0.68404 0.50056 0.0
O142 O 0.66454 0.57839 0.41219 0.0
O143 O 0.81767 0.64547 0.42304 0.0
O144 O 0.6088 0.52902 0.52463 0.0
O145 O 0.76294 0.52204 0.50257 0.0
O146 O 0.94185 0.56126 0.4747 0.0
O147 O 1.06428 0.63983 0.50609 0.0
O148 O 0.94127 0.65494 0.59848 0.0
O149 O 0.77042 0.60087 0.58721 0.0
O150 O 0.96519 0.71356 0.48453 0.0
O151 O 0.82024 0.71706 0.5234 0.0
H152 H 0.3379 0.58919 0.4224 0.0
H153 H 0.29041 0.59331 0.31896 0.0
H154 H 0.61158 0.73192 0.29505 0.0
H155 H 0.66016 0.72631 0.39977 0.0
H156 H 1.22571 0.69008 0.43698 0.0
H157 H 1.28002 0.72138 0.33878 0.0
H158 H 1.00099 0.57732 0.26871 0.0
H159 H 0.9473 0.54587 0.36859 0.0
C160 C 0.52766 0.82949 -0.00015 0.0
C161 C 0.63666 0.86541 0.0201 0.0
C162 C 0.43685 0.84121 0.0057 0.0
C163 C 0.45187 0.88976 0.03114 0.0
H164 H 0.51193 0.79151 -0.02009 0.0
H165 H 0.35441 0.8124 -0.01076 0.0
S166 S 0.72161 0.99801 0.09019 0.0
N167 N 0.75533 0.9513 0.06681 0.0
N168 N 0.58487 0.97459 0.07631 0.0
C169 C 0.56055 0.92597 0.05217 0.0
C170 C 0.65298 0.91358 0.04681 0.0
C171 C 1.0485 0.39202 0.05134 0.0
C172 C 0.99606 0.40752 0.00304 0.0
C173 C 1.14259 0.38309 0.04428 0.0
C174 C 1.18742 0.38982 -0.01119 0.0
H175 H 1.015 0.38557 0.09448 0.0
H176 H 1.17749 0.36853 0.08199 0.0
S177 S 1.08911 0.43659 0.85028 0.0
N178 N 1.00114 0.43407 0.89914 0.0
N179 N 1.17855 0.41691 0.88604 0.0
C180 C 1.13862 0.40748 0.94074 0.0
C181 C 1.04264 0.41642 0.94782 0.0
C182 C 0.58124 0.33825 0.51044 0.0
C183 C 0.46233 0.30914 0.5129 0.0
C184 C 0.64132 0.39704 0.51114 0.0
C185 C 0.5882 0.43214 0.51507 0.0
H186 H 0.62954 0.31529 0.50753 0.0
H187 H 0.73159 0.41518 0.50865 0.0
S188 S 1.27826 0.37935 0.52235 0.0
N189 N 0.29502 0.32308 0.51897 0.0
N190 N 0.40507 0.43054 0.52104 0.0
C191 C 0.46939 0.4036 0.51775 0.0
C192 C 0.40809 0.34375 0.51649 0.0
C193 C 1.00888 0.90127 0.53314 0.0
C194 C 1.11146 0.93191 0.50514 0.0
C195 C 0.94956 0.84244 0.53255 0.0
C196 C 0.9874 0.80901 0.50379 0.0
H197 H 0.97369 0.92301 0.55654 0.0
H198 H 0.87266 0.82291 0.55548 0.0
S199 S 1.24338 0.86693 0.41697 0.0
N200 N 1.24124 0.92172 0.44305 0.0
N201 N 1.13379 0.81416 0.44258 0.0
C202 C 1.08847 0.83925 0.47446 0.0
C203 C 1.14864 0.89909 0.47498 0.0
C204 C 0.69401 1.08238 0.96512 0.0
C205 C 0.66667 0.11979 -0.0053 0.0
C206 C 0.80471 1.08268 0.9656 0.0
C207 C 0.90663 0.12084 -0.00494 0.0
H208 H 0.62652 1.05095 0.93996 0.0
H209 H 0.81006 1.05112 0.94113 0.0
S210 S 0.89806 0.23414 0.07752 0.0
N211 N 0.76514 0.20061 0.05386 0.0
N212 N 0.96635 0.20139 0.05426 0.0
C213 C 0.88287 0.15987 0.02482 0.0
C214 C 0.76777 0.15931 0.02472 0.0
C215 C 0.5623 0.90218 0.42219 0.0
C216 C 0.5695 0.95464 0.40736 0.0
C217 C 0.60326 0.87507 0.38602 0.0
C218 C 0.66783 0.90231 0.3378 0.0
H219 H 0.53608 0.88407 0.46519 0.0
H220 H 0.60294 0.83687 0.40192 0.0
S221 S 0.74795 1.05219 0.24708 0.0
N222 N 0.65431 1.03947 0.32616 0.0
N223 N 0.705 0.96573 0.24423 0.0
C224 C 0.62276 0.92834 0.29984 0.0
C225 C 0.59125 0.9729 0.34877 0.0
C226 C 1.18861 0.5747 0.96101 0.0
C227 C 1.16104 0.61051 -0.00664 0.0
C228 C 0.29885 0.57455 0.96098 0.0
C229 C 0.40035 0.6111 -0.00784 0.0
H230 H 1.12164 0.54502 0.93392 0.0
H231 H 0.3043 0.5442 0.93447 0.0
S232 S 0.38944 0.71762 0.08512 0.0
N233 N 1.25758 0.68649 0.05912 0.0
N234 N 0.45842 0.68689 0.05824 0.0
C235 C 0.37604 0.64815 0.02519 0.0
C236 C 1.26121 0.64776 0.0259 0.0
C237 C 0.31825 0.62681 0.21119 0.0
C238 C 0.40667 0.67272 0.23738 0.0
C239 C 1.20868 0.62265 0.21088 0.0
C240 C 1.19355 0.6654 0.23496 0.0
H241 H 0.32786 0.58972 0.20734 0.0
H242 H 1.13941 0.58254 0.2062 0.0
S243 S 0.40758 0.8085 0.23438 0.0
N244 N 0.47929 0.77183 0.23567 0.0
N245 N 1.27337 0.76456 0.2301 0.0
C246 C 1.28296 0.71726 0.22723 0.0
C247 C 0.39354 0.72113 0.23042 0.0
C248 C 0.41015 0.14831 0.29276 0.0
C249 C 0.31905 1.11647 0.32759 0.0
C250 C 0.40156 0.1449 0.2305 0.0
C251 C 0.30023 1.11075 0.19993 0.0
H252 H 0.48806 0.1772 0.3137 0.0
H253 H 0.47376 0.17085 0.20602 0.0
S254 S 1.0365 1.01894 0.27034 0.0
N255 N 1.12488 1.04891 0.32637 0.0
N256 N 1.10731 1.04361 0.2106 0.0
C257 C 1.20912 1.07825 0.23451 0.0
C258 C 1.21875 1.0809 0.29777 0.0
C259 C 0.35208 0.17479 0.77743 0.0
C260 C 1.27338 0.13685 0.81529 0.0
C261 C 0.33978 0.16906 0.71556 0.0
C262 C 1.24986 0.12421 0.68875 0.0
H263 H 0.42478 0.20899 0.79588 0.0
H264 H 0.40433 0.19854 0.68877 0.0
S265 S 1.02201 1.01265 0.76753 0.0
N266 N 1.10096 1.0533 0.82054 0.0
N267 N 1.0815 1.04096 0.70548 0.0
C268 C 1.17053 1.0862 0.72606 0.0
C269 C 1.18112 1.09293 0.78881 0.0
C270 C 0.68793 0.5669 0.2881 0.0
C271 C 0.76748 0.61029 0.32175 0.0
C272 C 0.69327 0.56543 0.22673 0.0
C273 C 0.77957 0.60676 0.19576 0.0
H274 H 0.61933 0.5338 0.30924 0.0
H275 H 0.62841 0.53154 0.20319 0.0
S276 S 1.00495 0.73166 0.26148 0.0
N277 N 0.93304 0.69727 0.31826 0.0
N278 N 0.94448 0.69384 0.20338 0.0
C279 C 0.86048 0.65034 0.22865 0.0
C280 C 0.85407 0.65228 0.29134 0.0
C281 C 0.7362 0.60257 0.71687 0.0
C282 C 0.83567 0.63559 0.68821 0.0
C283 C 0.72893 0.60514 0.77851 0.0
C284 C 0.82105 0.64063 0.81421 0.0
H285 H 0.66379 0.574 0.69168 0.0
H286 H 0.65167 0.57816 0.7985 0.0
S287 S 1.09708 0.73919 0.76074 0.0
N288 N 1.02546 0.7076 0.701 0.0
N289 N 1.0123 0.71178 0.81495 0.0
C290 C 0.91942 0.67469 0.78569 0.0
C291 C 0.92658 0.67237 0.72342 0.0
loop_
_geom_bond_atom_site_label_1
_geom_bond_atom_site_label_2
_geom_bond_distance
_geom_bond_site_symmetry_2
_ccdc_geom_bond_type
Nd0 C2 2.836 1_455 S
Nd0 O20 2.500 1_456 S
Nd0 O21 2.492 1_455 S
Nd0 O22 2.487 . S
Nd0 O23 2.682 1_545 S
Nd0 O24 2.410 1_455 S
Nd0 O29 2.414 1_456 S
Nd0 O31 2.424 . S
Nd1 C11 2.836 1_655 S
Nd1 O23 2.414 1_654 S
Nd1 O25 2.424 . S
Nd1 O26 2.500 1_654 S
Nd1 O27 2.492 1_655 S
Nd1 O28 2.487 . S
Nd1 O29 2.682 1_565 S
Nd1 O30 2.410 1_655 S
C2 Nd0 2.836 1_655 S
C2 C3 1.498 1_556 S
C2 O20 1.258 1_556 S
C2 O21 1.239 . S
C3 C2 1.498 1_554 S
C3 C4 1.366 . S
C3 C8 1.407 1_554 S
C4 C3 1.366 . S
C4 C5 1.392 . S
C4 H32 0.930 . S
C5 C4 1.392 . S
C5 C6 1.398 . S
C5 H33 0.929 . S
C6 C5 1.398 . S
C6 C7 1.352 1_554 S
C7 C6 1.352 1_556 S
C7 C8 1.384 . S
C7 H34 0.930 . S
C8 C3 1.407 1_556 S
C8 C7 1.384 . S
C8 H35 0.929 . S
C9 O22 1.241 . S
C9 O23 1.273 1_545 S
C10 O24 1.251 1_565 S
C10 O25 1.268 1_556 S
C11 Nd1 2.836 1_455 S
C11 C12 1.498 1_554 S
C11 O26 1.258 1_554 S
C11 O27 1.239 . S
C12 C11 1.498 1_556 S
C12 C13 1.366 . S
C12 C17 1.407 1_556 S
C13 C12 1.366 . S
C13 C14 1.392 . S
C13 H36 0.930 . S
C14 C13 1.392 . S
C14 C15 1.398 . S
C14 H37 0.929 . S
C15 C14 1.398 . S
C15 C16 1.352 1_556 S
C16 C15 1.352 1_554 S
C16 C17 1.384 . S
C16 H38 0.930 . S
C17 C12 1.407 1_554 S
C17 C16 1.384 . S
C17 H39 0.929 . S
C18 O28 1.241 . S
C18 O29 1.273 1_565 S
C19 O30 1.251 1_545 S
C19 O31 1.268 1_554 S
O20 Nd0 2.500 1_654 S
O20 C2 1.258 1_554 S
O21 Nd0 2.492 1_655 S
O21 C2 1.239 . S
O22 Nd0 2.487 . S
O22 C9 1.241 . S
O23 Nd0 2.682 1_565 S
O23 Nd1 2.414 1_456 S
O23 C9 1.273 1_565 S
O24 Nd0 2.410 1_655 S
O24 C10 1.251 1_545 S
O25 Nd1 2.424 . S
O25 C10 1.268 1_554 S
O26 Nd1 2.500 1_456 S
O26 C11 1.258 1_556 S
O27 Nd1 2.492 1_455 S
O27 C11 1.239 . S
O28 Nd1 2.487 . S
O28 C18 1.241 . S
O29 Nd0 2.414 1_654 S
O29 Nd1 2.682 1_545 S
O29 C18 1.273 1_545 S
O30 Nd1 2.410 1_455 S
O30 C19 1.251 1_565 S
O31 Nd0 2.424 . S
O31 C19 1.268 1_556 S
H32 C4 0.930 . S
H33 C5 0.929 . S
H34 C7 0.930 . S
H35 C8 0.929 . S
H36 C13 0.930 . S
H37 C14 0.929 . S
H38 C16 0.930 . S
H39 C17 0.929 . S
Nd40 C42 2.836 1_545 S
Nd40 O60 2.500 . S
Nd40 O61 2.492 . S
Nd40 O62 2.487 . S
Nd40 O63 2.682 1_655 S
Nd40 O64 2.410 1_545 S
Nd40 O69 2.414 1_545 S
Nd40 O71 2.424 1_655 S
Nd41 C51 2.836 1_565 S
Nd41 O63 2.414 1_565 S
Nd41 O65 2.424 1_455 S
Nd41 O66 2.499 1_565 S
Nd41 O67 2.492 . S
Nd41 O68 2.487 . S
Nd41 O69 2.682 1_455 S
Nd41 O70 2.410 1_565 S
C42 Nd40 2.836 1_565 S
C42 C43 1.498 . S
C42 O60 1.259 1_565 S
C42 O61 1.239 1_565 S
C43 C42 1.498 . S
C43 C44 1.366 . S
C43 C48 1.407 . S
C44 C43 1.366 . S
C44 C45 1.392 . S
C44 H72 0.930 . S
C45 C44 1.392 . S
C45 C46 1.398 . S
C45 H73 0.929 . S
C46 C45 1.398 . S
C46 C47 1.352 . S
C47 C46 1.352 . S
C47 C48 1.384 . S
C47 H74 0.930 . S
C48 C43 1.407 . S
C48 C47 1.384 . S
C48 H75 0.929 . S
C49 O62 1.241 . S
C49 O63 1.273 1_655 S
C50 O64 1.251 . S
C50 O65 1.268 . S
C51 Nd41 2.836 1_545 S
C51 C52 1.498 . S
C51 O66 1.257 . S
C51 O67 1.239 1_545 S
C52 C51 1.498 . S
C52 C53 1.366 . S
C52 C57 1.407 . S
C53 C52 1.366 . S
C53 C54 1.392 . S
C53 H76 0.930 . S
C54 C53 1.392 . S
C54 C55 1.398 . S
C54 H77 0.929 . S
C55 C54 1.398 . S
C55 C56 1.352 . S
C56 C55 1.352 . S
C56 C57 1.384 . S
C56 H78 0.930 . S
C57 C52 1.407 . S
C57 C56 1.384 . S
C57 H79 0.929 . S
C58 O68 1.241 . S
C58 O69 1.273 1_455 S
C59 O70 1.251 . S
C59 O71 1.268 . S
O60 Nd40 2.500 . S
O60 C42 1.259 1_545 S
O61 Nd40 2.492 . S
O61 C42 1.239 1_545 S
O62 Nd40 2.487 . S
O62 C49 1.241 . S
O63 Nd40 2.682 1_455 S
O63 Nd41 2.414 1_545 S
O63 C49 1.273 1_455 S
O64 Nd40 2.410 1_565 S
O64 C50 1.251 . S
O65 Nd41 2.424 1_655 S
O65 C50 1.268 . S
O66 Nd41 2.499 1_545 S
O66 C51 1.257 . S
O67 Nd41 2.492 . S
O67 C51 1.239 1_565 S
O68 Nd41 2.487 . S
O68 C58 1.241 . S
O69 Nd40 2.414 1_565 S
O69 Nd41 2.682 1_655 S
O69 C58 1.273 1_655 S
O70 Nd41 2.410 1_545 S
O70 C59 1.251 . S
O71 Nd40 2.424 1_455 S
O71 C59 1.268 . S
H72 C44 0.930 . S
H73 C45 0.929 . S
H74 C47 0.930 . S
H75 C48 0.929 . S
H76 C53 0.930 . S
H77 C54 0.929 . S
H78 C56 0.930 . S
H79 C57 0.929 . S
Nd80 C82 2.836 . S
Nd80 O100 2.500 1_556 S
Nd80 O101 2.492 . S
Nd80 O102 2.487 . S
Nd80 O103 2.682 . S
Nd80 O104 2.410 . S
Nd80 O109 2.414 1_556 S
Nd80 O111 2.424 . S
Nd81 C91 2.836 . S
Nd81 O103 2.414 1_554 S
Nd81 O105 2.424 . S
Nd81 O106 2.500 1_554 S
Nd81 O107 2.492 . S
Nd81 O108 2.487 . S
Nd81 O109 2.682 . S
Nd81 O110 2.410 . S
C82 Nd80 2.836 . S
C82 C83 1.498 1_556 S
C82 O100 1.258 1_556 S
C82 O101 1.239 . S
C83 C82 1.498 1_554 S
C83 C84 1.366 . S
C83 C88 1.407 1_554 S
C84 C83 1.366 . S
C84 C85 1.392 . S
C84 H112 0.930 . S
C85 C84 1.392 . S
C85 C86 1.398 . S
C85 H113 0.929 . S
C86 C85 1.398 . S
C86 C87 1.352 1_554 S
C87 C86 1.352 1_556 S
C87 C88 1.384 . S
C87 H114 0.930 . S
C88 C83 1.407 1_556 S
C88 C87 1.384 . S
C88 H115 0.929 . S
C89 O102 1.241 . S
C89 O103 1.273 . S
C90 O104 1.251 . S
C90 O105 1.268 1_556 S
C91 Nd81 2.836 . S
C91 C92 1.498 1_554 S
C91 O106 1.258 1_554 S
C91 O107 1.239 . S
C92 C91 1.498 1_556 S
C92 C93 1.366 . S
C92 C97 1.407 1_556 S
C93 C92 1.366 . S
C93 C94 1.392 . S
C93 H116 0.930 . S
C94 C93 1.392 . S
C94 C95 1.398 . S
C94 H117 0.929 . S
C95 C94 1.398 . S
C95 C96 1.352 1_556 S
C96 C95 1.352 1_554 S
C96 C97 1.384 . S
C96 H118 0.930 . S
C97 C92 1.407 1_554 S
C97 C96 1.384 . S
C97 H119 0.929 . S
C98 O108 1.241 . S
C98 O109 1.273 . S
C99 O110 1.251 . S
C99 O111 1.268 1_554 S
O100 Nd80 2.500 1_554 S
O100 C82 1.258 1_554 S
O101 Nd80 2.492 . S
O101 C82 1.239 . S
O102 Nd80 2.487 . S
O102 C89 1.241 . S
O103 Nd80 2.682 . S
O103 Nd81 2.414 1_556 S
O103 C89 1.273 . S
O104 Nd80 2.410 . S
O104 C90 1.251 . S
O105 Nd81 2.424 . S
O105 C90 1.268 1_554 S
O106 Nd81 2.500 1_556 S
O106 C91 1.258 1_556 S
O107 Nd81 2.492 . S
O107 C91 1.239 . S
O108 Nd81 2.487 . S
O108 C98 1.241 . S
O109 Nd80 2.414 1_554 S
O109 Nd81 2.682 . S
O109 C98 1.273 . S
O110 Nd81 2.410 . S
O110 C99 1.251 . S
O111 Nd80 2.424 . S
O111 C99 1.268 1_556 S
H112 C84 0.930 . S
H113 C85 0.929 . S
H114 C87 0.930 . S
H115 C88 0.929 . S
H116 C93 0.930 . S
H117 C94 0.929 . S
H118 C96 0.930 . S
H119 C97 0.929 . S
Nd120 C122 2.836 . S
Nd120 O140 2.500 . S
Nd120 O141 2.492 . S
Nd120 O142 2.487 . S
Nd120 O143 2.682 . S
Nd120 O144 2.410 . S
Nd120 O149 2.414 . S
Nd120 O151 2.424 . S
Nd121 C131 2.836 . S
Nd121 O143 2.414 . S
Nd121 O145 2.424 . S
Nd121 O146 2.500 . S
Nd121 O147 2.492 . S
Nd121 O148 2.487 . S
Nd121 O149 2.682 . S
Nd121 O150 2.410 . S
C122 Nd120 2.836 . S
C122 C123 1.498 . S
C122 O140 1.258 . S
C122 O141 1.239 . S
C123 C122 1.498 . S
C123 C124 1.366 . S
C123 C128 1.407 . S
C124 C123 1.366 . S
C124 C125 1.392 . S
C124 H152 0.930 . S
C125 C124 1.392 . S
C125 C126 1.398 . S
C125 H153 0.929 . S
C126 C125 1.398 . S
C126 C127 1.352 . S
C127 C126 1.352 . S
C127 C128 1.384 . S
C127 H154 0.939 . S
C128 C123 1.407 . S
C128 C127 1.384 . S
C128 H155 0.929 . S
C129 O142 1.241 . S
C129 O143 1.273 . S
C130 O144 1.251 . S
C130 O145 1.268 . S
C131 Nd121 2.836 . S
C131 C132 1.498 . S
C131 O146 1.258 . S
C131 O147 1.239 . S
C132 C131 1.498 . S
C132 C133 1.366 . S
C132 C137 1.407 . S
C133 C132 1.366 . S
C133 C134 1.392 . S
C133 H156 0.930 . S
C134 C133 1.392 . S
C134 C135 1.398 . S
C134 H157 0.929 . S
C135 C134 1.398 . S
C135 C136 1.352 . S
C136 C135 1.352 . S
C136 C137 1.384 . S
C136 H158 0.935 . S
C137 C132 1.407 . S
C137 C136 1.384 . S
C137 H159 0.929 . S
C138 O148 1.241 . S
C138 O149 1.273 . S
C139 O150 1.251 . S
C139 O151 1.268 . S
O140 Nd120 2.500 . S
O140 C122 1.258 . S
O141 Nd120 2.492 . S
O141 C122 1.239 . S
O142 Nd120 2.487 . S
O142 C129 1.241 . S
O143 Nd120 2.682 . S
O143 Nd121 2.414 . S
O143 C129 1.273 . S
O144 Nd120 2.410 . S
O144 C130 1.251 . S
O145 Nd121 2.424 . S
O145 C130 1.268 . S
O146 Nd121 2.500 . S
O146 C131 1.258 . S
O147 Nd121 2.492 . S
O147 C131 1.239 . S
O148 Nd121 2.487 . S
O148 C138 1.241 . S
O149 Nd120 2.414 . S
O149 Nd121 2.682 . S
O149 C138 1.273 . S
O150 Nd121 2.410 . S
O150 C139 1.251 . S
O151 Nd120 2.424 . S
O151 C139 1.268 . S
H152 C124 0.930 . S
H153 C125 0.929 . S
H154 C127 0.939 . S
H155 C128 0.929 . S
H156 C133 0.930 . S
H157 C134 0.929 . S
H158 C136 0.935 . S
H159 C137 0.929 . S
C160 C161 1.369 1_556 S
C160 C162 1.419 . S
C160 H164 0.930 . S
C161 C160 1.369 1_554 S
C161 C170 1.429 . S
C162 C160 1.419 . S
C162 C163 1.363 . S
C162 H165 0.929 . S
C163 C162 1.363 . S
C163 C169 1.428 1_556 S
H164 C160 0.930 . S
H165 C162 0.929 . S
S166 N167 1.613 . S
S166 N168 1.610 . S
N167 S166 1.613 . S
N167 C170 1.350 . S
N168 S166 1.610 . S
N168 C169 1.351 . S
C169 C163 1.428 1_554 S
C169 N168 1.351 . S
C169 C170 1.434 . S
C170 C161 1.429 . S
C170 N167 1.350 . S
C170 C169 1.434 . S
C171 C172 1.369 1_554 S
C171 C173 1.419 . S
C171 H175 0.930 . S
C172 C171 1.369 1_556 S
C172 C181 1.429 . S
C173 C171 1.419 . S
C173 C174 1.363 . S
C173 H176 0.929 . S
C174 C173 1.363 . S
C174 C180 1.428 1_554 S
H175 C171 0.930 . S
H176 C173 0.929 . S
S177 N178 1.613 . S
S177 N179 1.610 . S
N178 S177 1.613 . S
N178 C181 1.350 . S
N179 S177 1.610 . S
N179 C180 1.351 . S
C180 C174 1.428 1_556 S
C180 N179 1.351 . S
C180 C181 1.434 . S
C181 C172 1.429 . S
C181 N178 1.350 . S
C181 C180 1.434 . S
C182 C183 1.369 . S
C182 C184 1.419 . S
C182 H186 0.930 . S
C183 C182 1.369 . S
C183 C192 1.429 . S
C184 C182 1.419 . S
C184 C185 1.363 . S
C184 H187 0.929 . S
C185 C184 1.363 . S
C185 C191 1.428 . S
H186 C182 0.930 . S
H187 C184 0.929 . S
S188 N189 1.613 . S
S188 N190 1.610 . S
N189 S188 1.613 . S
N189 C192 1.350 . S
N190 S188 1.610 . S
N190 C191 1.351 . S
C191 C185 1.428 . S
C191 N190 1.351 . S
C191 C192 1.434 . S
C192 C183 1.429 . S
C192 N189 1.350 . S
C192 C191 1.434 . S
C193 C194 1.369 . S
C193 C195 1.419 . S
C193 H197 0.930 . S
C194 C193 1.369 . S
C194 C203 1.429 . S
C195 C193 1.419 . S
C195 C196 1.363 . S
C195 H198 0.929 . S
C196 C195 1.363 . S
C196 C202 1.428 . S
H197 C193 0.930 . S
H198 C195 0.929 . S
S199 N200 1.613 . S
S199 N201 1.610 . S
N200 S199 1.613 . S
N200 C203 1.350 . S
N201 S199 1.610 . S
N201 C202 1.351 . S
C202 C196 1.428 . S
C202 N201 1.351 . S
C202 C203 1.434 . S
C203 C194 1.429 . S
C203 N200 1.350 . S
C203 C202 1.434 . S
C204 C205 1.369 1_564 S
C204 C206 1.419 . S
C204 H208 0.930 . S
C205 C204 1.369 1_546 S
C205 C214 1.428 . S
C206 C204 1.419 . S
C206 C207 1.377 1_554 S
C206 H209 0.929 . S
C207 C206 1.377 1_556 S
C207 C213 1.405 1_565 S
H208 C204 0.930 . S
H209 C206 0.929 . S
S210 N211 1.613 . S
S210 N212 1.610 . S
N211 S210 1.613 . S
N211 C214 1.350 . S
N212 S210 1.610 . S
N212 C213 1.351 . S
C213 C207 1.405 1_545 S
C213 N212 1.351 . S
C213 C214 1.434 . S
C214 C205 1.428 . S
C214 N211 1.350 . S
C214 C213 1.434 . S
C215 C216 1.369 . S
C215 C217 1.419 1_545 S
C215 H219 0.930 . S
C216 C215 1.369 . S
C216 C225 1.429 . S
C217 C215 1.419 1_565 S
C217 C218 1.363 . S
C217 H220 0.929 . S
C218 C217 1.363 . S
C218 C224 1.428 . S
H219 C215 0.930 . S
H220 C217 0.929 . S
S221 N222 1.613 . S
S221 N223 1.610 1_545 S
N222 S221 1.613 . S
N222 C225 1.350 . S
N223 S221 1.610 1_565 S
N223 C224 1.351 . S
C224 C218 1.428 . S
C224 N223 1.351 . S
C224 C225 1.434 1_565 S
C225 C216 1.429 . S
C225 N222 1.350 . S
C225 C224 1.434 1_545 S
C226 C227 1.361 1_556 S
C226 C228 1.419 1_655 S
C226 H230 0.930 . S
C227 C226 1.361 1_554 S
C227 C236 1.436 . S
C228 C226 1.419 1_455 S
C228 C229 1.362 1_556 S
C228 H231 0.929 . S
C229 C228 1.362 1_554 S
C229 C235 1.430 . S
H230 C226 0.930 . S
H231 C228 0.929 . S
S232 N233 1.613 1_455 S
S232 N234 1.610 . S
N233 S232 1.613 1_655 S
N233 C236 1.350 . S
N234 S232 1.610 . S
N234 C235 1.351 . S
C235 C229 1.430 . S
C235 N234 1.351 . S
C235 C236 1.434 1_455 S
C236 C227 1.436 . S
C236 N233 1.350 . S
C236 C235 1.434 1_655 S
C237 C238 1.369 1_455 S
C237 C239 1.419 . S
C237 H241 0.930 . S
C238 C237 1.369 1_655 S
C238 C247 1.429 . S
C239 C237 1.419 . S
C239 C240 1.363 . S
C239 H242 0.929 . S
C240 C239 1.363 . S
C240 C246 1.428 1_455 S
H241 C237 0.930 . S
H242 C239 0.929 . S
S243 N244 1.613 . S
S243 N245 1.610 . S
N244 S243 1.613 . S
N244 C247 1.350 . S
N245 S243 1.610 . S
N245 C246 1.351 . S
C246 C240 1.428 1_655 S
C246 N245 1.351 . S
C246 C247 1.434 . S
C247 C238 1.429 . S
C247 N244 1.350 . S
C247 C246 1.434 . S
C248 C249 1.358 1_455 S
C248 C250 1.419 . S
C248 H252 0.935 . S
C249 C248 1.358 1_655 S
C249 C258 1.438 . S
C250 C248 1.419 . S
C250 C251 1.354 1_455 S
C250 H253 0.928 1_545 S
C251 C250 1.354 1_655 S
C251 C257 1.441 . S
H252 C248 0.935 . S
H253 C250 0.928 1_565 S
S254 N255 1.613 . S
S254 N256 1.610 . S
N255 S254 1.613 . S
N255 C258 1.350 . S
N256 S254 1.610 . S
N256 C257 1.351 . S
C257 C251 1.441 . S
C257 N256 1.351 . S
C257 C258 1.434 . S
C258 C249 1.438 . S
C258 N255 1.350 . S
C258 C257 1.434 . S
C259 C260 1.369 1_445 S
C259 C261 1.419 . S
C259 H263 0.930 . S
C260 C259 1.369 1_665 S
C260 C269 1.429 . S
C261 C259 1.419 . S
C261 C262 1.361 1_445 S
C261 H264 0.929 . S
C262 C261 1.361 1_665 S
C262 C268 1.431 . S
H263 C259 0.930 . S
H264 C261 0.929 . S
S265 N266 1.613 . S
S265 N267 1.610 . S
N266 S265 1.613 . S
N266 C269 1.350 . S
N267 S265 1.610 . S
N267 C268 1.351 . S
C268 C262 1.431 . S
C268 N267 1.351 . S
C268 C269 1.434 . S
C269 C260 1.429 . S
C269 N266 1.350 . S
C269 C268 1.434 . S
C270 C271 1.369 . S
C270 C272 1.419 . S
C270 H274 0.930 . S
C271 C270 1.369 . S
C271 C280 1.429 . S
C272 C270 1.419 . S
C272 C273 1.363 . S
C272 H275 0.929 . S
C273 C272 1.363 . S
C273 C279 1.428 . S
H274 C270 0.930 . S
H275 C272 0.929 . S
S276 N277 1.613 . S
S276 N278 1.610 . S
N277 S276 1.613 . S
N277 C280 1.350 . S
N278 S276 1.610 . S
N278 C279 1.351 . S
C279 C273 1.428 . S
C279 N278 1.351 . S
C279 C280 1.434 . S
C280 C271 1.429 . S
C280 N277 1.350 . S
C280 C279 1.434 . S
C281 C282 1.369 . S
C281 C283 1.419 . S
C281 H285 0.930 . S
C282 C281 1.369 . S
C282 C291 1.429 . S
C283 C281 1.419 . S
C283 C284 1.363 . S
C283 H286 0.929 . S
C284 C283 1.363 . S
C284 C290 1.428 . S
H285 C281 0.930 . S
H286 C283 0.929 . S
S287 N288 1.613 . S
S287 N289 1.610 . S
N288 S287 1.613 . S
N288 C291 1.350 . S
N289 S287 1.610 . S
N289 C290 1.351 . S
C290 C284 1.428 . S
C290 N289 1.351 . S
C290 C291 1.434 . S
C291 C282 1.429 . S
C291 N288 1.350 . S
C291 C290 1.434 . S
C161 C86 0.428 . S
C163 C15 0.409 . S
C172 C95 0.413 . S
C174 C6 0.422 . S
C183 C59 3.684 . S
C185 C130 3.687 . S
C194 C50 3.685 . S
C196 C139 3.687 . S
C205 C19 4.873 1_556 S
C207 C10 4.882 . S
C216 C55 0.702 . S
C218 C46 0.699 . S
C227 C99 4.875 . S
C229 C90 4.873 1_554 S
C238 C126 0.697 1_655 S
C240 C135 0.703 1_455 S
C249 C49 1.459 . S
C251 C18 1.451 1_545 S
C260 C9 1.458 1_665 S
C262 C58 1.458 1_655 S
C271 C129 1.462 . S
C273 C98 1.453 . S
C282 C138 1.454 . S
C284 C89 1.456 . S
