# Generated by pormake.
# Topology upd, (4)-cn, num edge types: 1
# Building blocks:
#     Node 0, Type 0, BuildingBlock: KOZSID_clean_sbu_0, # of connection points: 4
#     Node 1, Type 0, BuildingBlock: KOZSID_clean_sbu_0, # of connection points: 4
#     Node 2, Type 0, BuildingBlock: KOZSID_clean_sbu_0, # of connection points: 4
#     Node 3, Type 0, BuildingBlock: KOZSID_clean_sbu_0, # of connection points: 4
#     Node 4, Type 0, BuildingBlock: KOZSID_clean_sbu_0, # of connection points: 4
#     Node 5, Type 0, BuildingBlock: KOZSID_clean_sbu_0, # of connection points: 4
#     Node 6, Type 0, BuildingBlock: KOZSID_clean_sbu_0, # of connection points: 4
#     Node 7, Type 0, BuildingBlock: KOZSID_clean_sbu_0, # of connection points: 4
#     Node 8, Type 0, BuildingBlock: KOZSID_clean_sbu_0, # of connection points: 4
#     Node 9, Type 0, BuildingBlock: KOZSID_clean_sbu_0, # of connection points: 4
#     Node 10, Type 0, BuildingBlock: KOZSID_clean_sbu_0, # of connection points: 4
#     Node 11, Type 0, BuildingBlock: KOZSID_clean_sbu_0, # of connection points: 4
#     Node 12, Type 0, BuildingBlock: KOZSID_clean_sbu_0, # of connection points: 4
#     Node 13, Type 0, BuildingBlock: KOZSID_clean_sbu_0, # of connection points: 4
#     Node 14, Type 0, BuildingBlock: KOZSID_clean_sbu_0, # of connection points: 4
#     Node 15, Type 0, BuildingBlock: KOZSID_clean_sbu_0, # of connection points: 4
#     Node 16, Type 0, BuildingBlock: KOZSID_clean_sbu_0, # of connection points: 4
#     Node 17, Type 0, BuildingBlock: KOZSID_clean_sbu_0, # of connection points: 4
#     Node 18, Type 0, BuildingBlock: KOZSID_clean_sbu_0, # of connection points: 4
#     Node 19, Type 0, BuildingBlock: KOZSID_clean_sbu_0, # of connection points: 4
#     Node 20, Type 0, BuildingBlock: KOZSID_clean_sbu_0, # of connection points: 4
#     Node 21, Type 0, BuildingBlock: KOZSID_clean_sbu_0, # of connection points: 4
#     Node 22, Type 0, BuildingBlock: KOZSID_clean_sbu_0, # of connection points: 4
#     Node 23, Type 0, BuildingBlock: KOZSID_clean_sbu_0, # of connection points: 4
#     Node 24, Type 0, BuildingBlock: KOZSID_clean_sbu_0, # of connection points: 4
#     Node 25, Type 0, BuildingBlock: KOZSID_clean_sbu_0, # of connection points: 4
#     Node 26, Type 0, BuildingBlock: KOZSID_clean_sbu_0, # of connection points: 4
#     Node 27, Type 0, BuildingBlock: KOZSID_clean_sbu_0, # of connection points: 4
#     Node 28, Type 0, BuildingBlock: KOZSID_clean_sbu_0, # of connection points: 4
#     Node 29, Type 0, BuildingBlock: KOZSID_clean_sbu_0, # of connection points: 4
#     Node 30, Type 0, BuildingBlock: KOZSID_clean_sbu_0, # of connection points: 4
#     Node 31, Type 0, BuildingBlock: KOZSID_clean_sbu_0, # of connection points: 4
#     Edge 32, Type (0, 0), BuildingBlock: KIFKEQ_clean_linker_1, # of connection points: 2
#     Edge 33, Type (0, 0), BuildingBlock: KIFKEQ_clean_linker_1, # of connection points: 2
#     Edge 34, Type (0, 0), BuildingBlock: KIFKEQ_clean_linker_1, # of connection points: 2
#     Edge 35, Type (0, 0), BuildingBlock: KIFKEQ_clean_linker_1, # of connection points: 2
#     Edge 36, Type (0, 0), BuildingBlock: KIFKEQ_clean_linker_1, # of connection points: 2
#     Edge 37, Type (0, 0), BuildingBlock: KIFKEQ_clean_linker_1, # of connection points: 2
#     Edge 38, Type (0, 0), BuildingBlock: KIFKEQ_clean_linker_1, # of connection points: 2
#     Edge 39, Type (0, 0), BuildingBlock: KIFKEQ_clean_linker_1, # of connection points: 2
#     Edge 40, Type (0, 0), BuildingBlock: KIFKEQ_clean_linker_1, # of connection points: 2
#     Edge 41, Type (0, 0), BuildingBlock: KIFKEQ_clean_linker_1, # of connection points: 2
#     Edge 42, Type (0, 0), BuildingBlock: KIFKEQ_clean_linker_1, # of connection points: 2
#     Edge 43, Type (0, 0), BuildingBlock: KIFKEQ_clean_linker_1, # of connection points: 2
#     Edge 44, Type (0, 0), BuildingBlock: KIFKEQ_clean_linker_1, # of connection points: 2
#     Edge 45, Type (0, 0), BuildingBlock: KIFKEQ_clean_linker_1, # of connection points: 2
#     Edge 46, Type (0, 0), BuildingBlock: KIFKEQ_clean_linker_1, # of connection points: 2
#     Edge 47, Type (0, 0), BuildingBlock: KIFKEQ_clean_linker_1, # of connection points: 2
#     Edge 48, Type (0, 0), BuildingBlock: KIFKEQ_clean_linker_1, # of connection points: 2
#     Edge 49, Type (0, 0), BuildingBlock: KIFKEQ_clean_linker_1, # of connection points: 2
#     Edge 50, Type (0, 0), BuildingBlock: KIFKEQ_clean_linker_1, # of connection points: 2
#     Edge 51, Type (0, 0), BuildingBlock: KIFKEQ_clean_linker_1, # of connection points: 2
#     Edge 52, Type (0, 0), BuildingBlock: KIFKEQ_clean_linker_1, # of connection points: 2
#     Edge 53, Type (0, 0), BuildingBlock: KIFKEQ_clean_linker_1, # of connection points: 2
#     Edge 54, Type (0, 0), BuildingBlock: KIFKEQ_clean_linker_1, # of connection points: 2
#     Edge 55, Type (0, 0), BuildingBlock: KIFKEQ_clean_linker_1, # of connection points: 2
#     Edge 56, Type (0, 0), BuildingBlock: KIFKEQ_clean_linker_1, # of connection points: 2
#     Edge 57, Type (0, 0), BuildingBlock: KIFKEQ_clean_linker_1, # of connection points: 2
#     Edge 58, Type (0, 0), BuildingBlock: KIFKEQ_clean_linker_1, # of connection points: 2
#     Edge 59, Type (0, 0), BuildingBlock: KIFKEQ_clean_linker_1, # of connection points: 2
#     Edge 60, Type (0, 0), BuildingBlock: KIFKEQ_clean_linker_1, # of connection points: 2
#     Edge 61, Type (0, 0), BuildingBlock: KIFKEQ_clean_linker_1, # of connection points: 2
#     Edge 62, Type (0, 0), BuildingBlock: KIFKEQ_clean_linker_1, # of connection points: 2
#     Edge 63, Type (0, 0), BuildingBlock: KIFKEQ_clean_linker_1, # of connection points: 2
#     Edge 64, Type (0, 0), BuildingBlock: KIFKEQ_clean_linker_1, # of connection points: 2
#     Edge 65, Type (0, 0), BuildingBlock: KIFKEQ_clean_linker_1, # of connection points: 2
#     Edge 66, Type (0, 0), BuildingBlock: KIFKEQ_clean_linker_1, # of connection points: 2
#     Edge 67, Type (0, 0), BuildingBlock: KIFKEQ_clean_linker_1, # of connection points: 2
#     Edge 68, Type (0, 0), BuildingBlock: KIFKEQ_clean_linker_1, # of connection points: 2
#     Edge 69, Type (0, 0), BuildingBlock: KIFKEQ_clean_linker_1, # of connection points: 2
#     Edge 70, Type (0, 0), BuildingBlock: KIFKEQ_clean_linker_1, # of connection points: 2
#     Edge 71, Type (0, 0), BuildingBlock: KIFKEQ_clean_linker_1, # of connection points: 2
#     Edge 72, Type (0, 0), BuildingBlock: KIFKEQ_clean_linker_1, # of connection points: 2
#     Edge 73, Type (0, 0), BuildingBlock: KIFKEQ_clean_linker_1, # of connection points: 2
#     Edge 74, Type (0, 0), BuildingBlock: KIFKEQ_clean_linker_1, # of connection points: 2
#     Edge 75, Type (0, 0), BuildingBlock: KIFKEQ_clean_linker_1, # of connection points: 2
#     Edge 76, Type (0, 0), BuildingBlock: KIFKEQ_clean_linker_1, # of connection points: 2
#     Edge 77, Type (0, 0), BuildingBlock: KIFKEQ_clean_linker_1, # of connection points: 2
#     Edge 78, Type (0, 0), BuildingBlock: KIFKEQ_clean_linker_1, # of connection points: 2
#     Edge 79, Type (0, 0), BuildingBlock: KIFKEQ_clean_linker_1, # of connection points: 2
#     Edge 80, Type (0, 0), BuildingBlock: KIFKEQ_clean_linker_1, # of connection points: 2
#     Edge 81, Type (0, 0), BuildingBlock: KIFKEQ_clean_linker_1, # of connection points: 2
#     Edge 82, Type (0, 0), BuildingBlock: KIFKEQ_clean_linker_1, # of connection points: 2
#     Edge 83, Type (0, 0), BuildingBlock: KIFKEQ_clean_linker_1, # of connection points: 2
#     Edge 84, Type (0, 0), BuildingBlock: KIFKEQ_clean_linker_1, # of connection points: 2
#     Edge 85, Type (0, 0), BuildingBlock: KIFKEQ_clean_linker_1, # of connection points: 2
#     Edge 86, Type (0, 0), BuildingBlock: KIFKEQ_clean_linker_1, # of connection points: 2
#     Edge 87, Type (0, 0), BuildingBlock: KIFKEQ_clean_linker_1, # of connection points: 2
#     Edge 88, Type (0, 0), BuildingBlock: KIFKEQ_clean_linker_1, # of connection points: 2
#     Edge 89, Type (0, 0), BuildingBlock: KIFKEQ_clean_linker_1, # of connection points: 2
#     Edge 90, Type (0, 0), BuildingBlock: KIFKEQ_clean_linker_1, # of connection points: 2
#     Edge 91, Type (0, 0), BuildingBlock: KIFKEQ_clean_linker_1, # of connection points: 2
#     Edge 92, Type (0, 0), BuildingBlock: KIFKEQ_clean_linker_1, # of connection points: 2
#     Edge 93, Type (0, 0), BuildingBlock: KIFKEQ_clean_linker_1, # of connection points: 2
#     Edge 94, Type (0, 0), BuildingBlock: KIFKEQ_clean_linker_1, # of connection points: 2
#     Edge 95, Type (0, 0), BuildingBlock: KIFKEQ_clean_linker_1, # of connection points: 2
# Relax obj value: 0.024
# Max RMSD: 0.119
# Mean RMSD: 0.086
data_MOF--net-upd--node1-KOZSID_clean_sbu_0--edge1-KIFKEQ_clean_linker_1
_symmetry_space_group_name_H-M    P1
_symmetry_Int_Tables_number       1
_symmetry_cell_setting            triclinic
loop_
_symmetry_equiv_pos_as_xyz
'x, y, z'
_cell_length_a     49.069943
_cell_length_b     41.539646
_cell_length_c     106.40617
_cell_angle_alpha  90.001384
_cell_angle_beta   89.997053
_cell_angle_gamma 90.000044
loop_
_atom_site_label
_atom_site_type_symbol
_atom_site_fract_x
_atom_site_fract_y
_atom_site_fract_z
_atom_type_partial_charge
C0 C 0.08224 0.13677 0.33202 0.0
C1 C 0.05439 0.14252 0.33135 0.0
C2 C 0.05104 0.17001 0.32446 0.0
C3 C 0.07689 0.17935 0.32121 0.0
N4 N 0.09637 0.15906 0.32537 0.0
Co5 Co 0.13634 0.16398 0.32271 0.0
N6 N 0.13064 0.19734 0.3096 0.0
C7 C 0.1077 0.21431 0.30758 0.0
C8 C 0.10996 0.23555 0.29775 0.0
C9 C 0.13596 0.23168 0.2933 0.0
C10 C 0.14805 0.20815 0.3007 0.0
N11 N 0.17617 0.16931 0.32009 0.0
C12 C 0.18968 0.18269 0.31031 0.0
C13 C 0.21768 0.1808 0.31203 0.0
C14 C 0.22173 0.16588 0.32336 0.0
C15 C 0.19609 0.1594 0.32787 0.0
N16 N 0.14214 0.13033 0.33582 0.0
C17 C 0.16598 0.12369 0.34157 0.0
C18 C 0.16392 0.09991 0.35045 0.0
C19 C 0.137 0.09144 0.35053 0.0
C20 C 0.12402 0.11065 0.34167 0.0
N21 N 0.13542 0.13053 0.3097 0.0
C22 C 0.13533 0.08453 0.29034 0.0
C23 C 0.1557 0.08445 0.29958 0.0
C24 C 0.15527 0.10744 0.3092 0.0
C25 C 0.11486 0.10796 0.29111 0.0
C26 C 0.11535 0.13073 0.30078 0.0
N27 N 0.13731 0.19773 0.33565 0.0
C28 C 0.12246 0.21703 0.35585 0.0
C29 C 0.13484 0.24686 0.35375 0.0
C30 C 0.14949 0.25122 0.34255 0.0
C31 C 0.15043 0.22636 0.33362 0.0
C32 C 0.12405 0.19299 0.34677 0.0
H33 H 0.16146 0.2305 0.325 0.0
H34 H 0.11431 0.17062 0.34876 0.0
H35 H 0.17119 0.10667 0.31615 0.0
H36 H 0.09963 0.14879 0.30091 0.0
C37 C 0.0834 0.20528 0.3134 0.0
C38 C 0.09423 0.11381 0.34093 0.0
C39 C 0.17649 0.19805 0.29952 0.0
C40 C 0.19012 0.13871 0.33782 0.0
H41 H 0.03829 0.12909 0.33593 0.0
H42 H 0.03203 0.18178 0.32211 0.0
H43 H 0.09422 0.2509 0.29389 0.0
H44 H 0.14496 0.2446 0.2855 0.0
H45 H 0.23352 0.18892 0.30572 0.0
H46 H 0.24105 0.15898 0.32747 0.0
H47 H 0.18003 0.09006 0.35624 0.0
H48 H 0.12779 0.07416 0.35684 0.0
H49 H 0.17178 0.06658 0.29944 0.0
H50 H 0.09886 0.10918 0.28411 0.0
H51 H 0.11154 0.21217 0.36449 0.0
H52 H 0.15953 0.27388 0.34057 0.0
C53 C 0.11771 0.81371 0.58297 0.0
C54 C 0.11263 0.78093 0.58393 0.0
C55 C 0.09674 0.77284 0.57391 0.0
C56 C 0.09312 0.80099 0.5674 0.0
N57 N 0.10629 0.82646 0.57248 0.0
Co58 Co 0.10509 0.87229 0.56656 0.0
N59 N 0.07836 0.8614 0.55292 0.0
C60 C 0.06881 0.83178 0.54998 0.0
C61 C 0.05083 0.83165 0.54013 0.0
C62 C 0.04882 0.86303 0.53651 0.0
C63 C 0.06586 0.88059 0.54436 0.0
N64 N 0.10319 0.91838 0.56091 0.0
C65 C 0.08787 0.93235 0.55179 0.0
C66 C 0.09255 0.96526 0.55109 0.0
C67 C 0.11139 0.97238 0.56011 0.0
C68 C 0.11715 0.94356 0.56579 0.0
N69 N 0.13222 0.88293 0.58008 0.0
C70 C 0.14415 0.91181 0.58218 0.0
C71 C 0.16074 0.91218 0.59254 0.0
C72 C 0.15897 0.88193 0.59749 0.0
C73 C 0.14139 0.86469 0.5898 0.0
N74 N 0.13557 0.86413 0.55453 0.0
C75 C 0.17606 0.85581 0.53593 0.0
C76 C 0.17537 0.88341 0.54339 0.0
C77 C 0.15533 0.88691 0.55258 0.0
C78 C 0.15685 0.83176 0.53828 0.0
C79 C 0.13691 0.83641 0.54754 0.0
N80 N 0.07487 0.88059 0.57845 0.0
C81 C 0.05628 0.91118 0.59574 0.0
C82 C 0.03359 0.89107 0.5963 0.0
C83 C 0.03147 0.86601 0.5876 0.0
C84 C 0.05236 0.86107 0.57885 0.0
C85 C 0.07637 0.90575 0.58675 0.0
H86 H 0.0501 0.84112 0.57261 0.0
H87 H 0.09309 0.92207 0.58677 0.0
H88 H 0.15619 0.90856 0.55782 0.0
H89 H 0.12262 0.81741 0.54867 0.0
C90 C 0.07609 0.80475 0.55701 0.0
C91 C 0.13243 0.83188 0.59254 0.0
C92 C 0.06923 0.91542 0.54337 0.0
C93 C 0.13609 0.93917 0.57547 0.0
H94 H 0.11916 0.76474 0.59131 0.0
H95 H 0.08808 0.74946 0.57184 0.0
H96 H 0.04017 0.81121 0.53617 0.0
H97 H 0.0361 0.87198 0.52897 0.0
H98 H 0.08346 0.98232 0.54465 0.0
H99 H 0.12003 0.99575 0.56221 0.0
H100 H 0.17155 0.93255 0.59647 0.0
H101 H 0.16866 0.87395 0.60607 0.0
H102 H 0.19026 0.9024 0.54212 0.0
H103 H 0.15664 0.80986 0.53276 0.0
H104 H 0.0585 0.93114 0.60222 0.0
H105 H 0.01418 0.84981 0.58776 0.0
C106 C 0.41725 0.8678 0.83498 0.0
C107 C 0.44547 0.86613 0.83521 0.0
C108 C 0.45296 0.84729 0.82528 0.0
C109 C 0.42896 0.83861 0.81962 0.0
N110 N 0.40662 0.85144 0.82513 0.0
Co111 Co 0.36747 0.84307 0.82079 0.0
N112 N 0.37809 0.81111 0.80755 0.0
C113 C 0.40367 0.80251 0.80415 0.0
C114 C 0.40452 0.7804 0.7946 0.0
C115 C 0.37792 0.77479 0.7916 0.0
C116 C 0.36233 0.79398 0.79951 0.0
N117 N 0.32827 0.83436 0.81664 0.0
C118 C 0.31724 0.81476 0.80782 0.0
C119 C 0.28896 0.8164 0.80786 0.0
C120 C 0.28188 0.83782 0.817 0.0
C121 C 0.30609 0.8481 0.82199 0.0
N122 N 0.35695 0.87525 0.83398 0.0
C123 C 0.33159 0.88567 0.83684 0.0
C124 C 0.33085 0.90658 0.84682 0.0
C125 C 0.35726 0.9091 0.85074 0.0
C126 C 0.37253 0.88951 0.84289 0.0
N127 N 0.36836 0.87788 0.80787 0.0
C128 C 0.3681 0.92434 0.78845 0.0
C129 C 0.34627 0.92171 0.7968 0.0
C130 C 0.34689 0.8987 0.80639 0.0
C131 C 0.39033 0.90382 0.79016 0.0
C132 C 0.39002 0.881 0.79982 0.0
N133 N 0.3666 0.80843 0.83364 0.0
C134 C 0.34624 0.78442 0.85211 0.0
C135 C 0.36759 0.76226 0.8531 0.0
C136 C 0.38803 0.76312 0.84395 0.0
C137 C 0.38711 0.78613 0.83438 0.0
C138 C 0.34611 0.80703 0.84238 0.0
H139 H 0.4035 0.78581 0.82782 0.0
H140 H 0.32942 0.82345 0.8422 0.0
H141 H 0.32961 0.89811 0.81239 0.0
H142 H 0.40742 0.8659 0.80041 0.0
C143 C 0.42652 0.81593 0.80999 0.0
C144 C 0.4013 0.88301 0.84485 0.0
C145 C 0.33269 0.79562 0.79879 0.0
C146 C 0.30869 0.87197 0.83117 0.0
H147 H 0.45909 0.87644 0.84212 0.0
H148 H 0.47336 0.83956 0.82286 0.0
H149 H 0.42236 0.76988 0.79025 0.0
H150 H 0.37079 0.75864 0.78433 0.0
H151 H 0.27486 0.80399 0.80173 0.0
H152 H 0.26153 0.8456 0.81949 0.0
H153 H 0.31307 0.91724 0.85117 0.0
H154 H 0.36435 0.92271 0.85877 0.0
H155 H 0.32876 0.93745 0.796 0.0
H156 H 0.40769 0.90475 0.78388 0.0
H157 H 0.32964 0.7844 0.85881 0.0
H158 H 0.40515 0.74669 0.84434 0.0
C159 C 0.38664 0.1928 0.08124 0.0
C160 C 0.39342 0.22522 0.08191 0.0
C161 C 0.40876 0.23193 0.07156 0.0
C162 C 0.41072 0.20333 0.06522 0.0
N163 N 0.39712 0.17881 0.07076 0.0
Co164 Co 0.39725 0.13239 0.06544 0.0
N165 N 0.42296 0.14146 0.0512 0.0
C166 C 0.43244 0.17061 0.0476 0.0
C167 C 0.44961 0.16947 0.03746 0.0
C168 C 0.45118 0.13768 0.03435 0.0
C169 C 0.43474 0.12119 0.04281 0.0
N170 N 0.39819 0.08574 0.06046 0.0
C171 C 0.413 0.07055 0.05146 0.0
C172 C 0.40803 0.03765 0.05138 0.0
C173 C 0.38956 0.03179 0.06069 0.0
C174 C 0.38432 0.06129 0.06592 0.0
N175 N 0.37104 0.1235 0.07949 0.0
C176 C 0.35866 0.09516 0.0821 0.0
C177 C 0.34206 0.09635 0.09245 0.0
C178 C 0.34426 0.12712 0.09684 0.0
C179 C 0.36231 0.14294 0.08892 0.0
N180 N 0.366 0.14012 0.05384 0.0
C181 C 0.32431 0.14783 0.03582 0.0
C182 C 0.32552 0.12046 0.04337 0.0
C183 C 0.34617 0.11723 0.05227 0.0
C184 C 0.34358 0.17203 0.03779 0.0
C185 C 0.36412 0.16769 0.04677 0.0
N186 N 0.42826 0.1246 0.07691 0.0
C187 C 0.44783 0.09536 0.0943 0.0
C188 C 0.47087 0.11499 0.09412 0.0
C189 C 0.47265 0.139 0.08497 0.0
C190 C 0.45115 0.14348 0.07653 0.0
C191 C 0.42702 0.10039 0.08563 0.0
H192 H 0.45326 0.16259 0.0699 0.0
H193 H 0.40998 0.0846 0.08624 0.0
H194 H 0.34571 0.09572 0.05761 0.0
H195 H 0.37841 0.18678 0.04764 0.0
C196 C 0.42646 0.1983 0.05448 0.0
C197 C 0.37141 0.17596 0.09106 0.0
C198 C 0.4315 0.08625 0.04263 0.0
C199 C 0.36596 0.06698 0.07574 0.0
H200 H 0.38851 0.2422 0.08928 0.0
H201 H 0.41819 0.25468 0.06917 0.0
H202 H 0.4602 0.18931 0.03302 0.0
H203 H 0.46335 0.12774 0.02681 0.0
H204 H 0.41671 0.01976 0.04516 0.0
H205 H 0.38088 0.00878 0.06329 0.0
H206 H 0.33071 0.07677 0.09666 0.0
H207 H 0.33437 0.1366 0.10514 0.0
H208 H 0.3106 0.10139 0.0424 0.0
H209 H 0.34334 0.19378 0.03217 0.0
H210 H 0.44582 0.07616 0.10113 0.0
H211 H 0.49016 0.15485 0.08456 0.0
C212 C 0.0839 0.86711 0.17174 0.0
C213 C 0.05588 0.86272 0.17183 0.0
C214 C 0.05029 0.84285 0.18172 0.0
C215 C 0.07514 0.83627 0.18702 0.0
N216 N 0.09618 0.8515 0.18137 0.0
Co217 Co 0.13601 0.84561 0.18485 0.0
N218 N 0.12832 0.81283 0.19821 0.0
C219 C 0.10356 0.80357 0.20247 0.0
C220 C 0.10469 0.78187 0.21215 0.0
C221 C 0.1318 0.77741 0.21437 0.0
C222 C 0.14568 0.79677 0.20587 0.0
N223 N 0.17591 0.83833 0.18773 0.0
C224 C 0.18878 0.81866 0.19597 0.0
C225 C 0.21691 0.8208 0.19481 0.0
C226 C 0.22196 0.84278 0.18557 0.0
C227 C 0.19677 0.85275 0.18161 0.0
N228 N 0.14359 0.87962 0.17196 0.0
C229 C 0.16806 0.89241 0.16897 0.0
C230 C 0.16679 0.91467 0.15947 0.0
C231 C 0.13998 0.91565 0.15603 0.0
C232 C 0.12647 0.89381 0.16367 0.0
N233 N 0.13532 0.8796 0.19814 0.0
C234 C 0.13532 0.92541 0.21784 0.0
C235 C 0.15824 0.92102 0.21025 0.0
C236 C 0.15774 0.89843 0.20049 0.0
C237 C 0.11225 0.90685 0.21526 0.0
C238 C 0.11271 0.88425 0.20551 0.0
N239 N 0.1366 0.81182 0.17161 0.0
C240 C 0.15104 0.79375 0.15104 0.0
C241 C 0.13325 0.7676 0.1516 0.0
C242 C 0.11787 0.76321 0.16249 0.0
C243 C 0.11965 0.78561 0.17228 0.0
C244 C 0.15277 0.8151 0.16117 0.0
H245 H 0.10668 0.7816 0.18017 0.0
H246 H 0.16698 0.83442 0.16026 0.0
H247 H 0.17587 0.8966 0.19505 0.0
H248 H 0.09457 0.87062 0.20425 0.0
C249 C 0.07964 0.81472 0.19686 0.0
C250 C 0.09813 0.88471 0.16191 0.0
C251 C 0.17529 0.79952 0.20563 0.0
C252 C 0.19207 0.87834 0.17337 0.0
H253 H 0.04117 0.87215 0.1652 0.0
H254 H 0.0306 0.83338 0.18443 0.0
H255 H 0.08781 0.77063 0.21702 0.0
H256 H 0.14042 0.76183 0.22149 0.0
H257 H 0.23224 0.80859 0.20036 0.0
H258 H 0.24166 0.85147 0.18249 0.0
H259 H 0.1836 0.92693 0.15494 0.0
H260 H 0.13158 0.92955 0.14835 0.0
H261 H 0.17649 0.93518 0.21175 0.0
H262 H 0.09402 0.9092 0.22094 0.0
H263 H 0.16357 0.79771 0.1428 0.0
H264 H 0.10383 0.74318 0.16328 0.0
C265 C 0.38392 0.80876 0.42356 0.0
C266 C 0.38895 0.7759 0.42304 0.0
C267 C 0.404 0.76846 0.43342 0.0
C268 C 0.40719 0.79703 0.43969 0.0
N269 N 0.39457 0.8222 0.4341 0.0
Co270 Co 0.39539 0.8684 0.4396 0.0
N271 N 0.42091 0.85834 0.45382 0.0
C272 C 0.43004 0.8289 0.45726 0.0
C273 C 0.44741 0.82943 0.46733 0.0
C274 C 0.44953 0.86111 0.47055 0.0
C275 C 0.43318 0.87816 0.46223 0.0
N276 N 0.39689 0.91483 0.44484 0.0
C277 C 0.41188 0.92944 0.45392 0.0
C278 C 0.40718 0.96238 0.45424 0.0
C279 C 0.38875 0.96889 0.44498 0.0
C280 C 0.38323 0.93969 0.43956 0.0
N281 N 0.36953 0.87827 0.42547 0.0
C282 C 0.35792 0.90706 0.42288 0.0
C283 C 0.34225 0.90688 0.41222 0.0
C284 C 0.34426 0.87632 0.40762 0.0
C285 C 0.36103 0.85943 0.4158 0.0
N286 N 0.3638 0.86097 0.45109 0.0
C287 C 0.32037 0.85246 0.4683 0.0
C288 C 0.32209 0.87993 0.46077 0.0
C289 C 0.3436 0.88356 0.45231 0.0
C290 C 0.34056 0.82901 0.46689 0.0
C291 C 0.36184 0.83369 0.45831 0.0
N292 N 0.42666 0.87584 0.42823 0.0
C293 C 0.44692 0.90517 0.41102 0.0
C294 C 0.4692 0.88434 0.41087 0.0
C295 C 0.47033 0.85975 0.41981 0.0
C296 C 0.44887 0.85584 0.42832 0.0
C297 C 0.42616 0.90069 0.41978 0.0
H298 H 0.45041 0.8362 0.43475 0.0
H299 H 0.40971 0.91738 0.41942 0.0
H300 H 0.34346 0.90513 0.447 0.0
H301 H 0.37647 0.81491 0.45779 0.0
C302 C 0.42329 0.80143 0.45037 0.0
C303 C 0.3698 0.82625 0.4136 0.0
C304 C 0.43045 0.91317 0.46257 0.0
C305 C 0.36527 0.93476 0.42954 0.0
H306 H 0.3829 0.75919 0.41575 0.0
H307 H 0.41235 0.74519 0.4359 0.0
H308 H 0.45773 0.80925 0.47167 0.0
H309 H 0.46198 0.87059 0.47808 0.0
H310 H 0.4161 0.9799 0.46055 0.0
H311 H 0.38038 0.99214 0.44249 0.0
H312 H 0.33184 0.92705 0.40792 0.0
H313 H 0.33522 0.8679 0.39895 0.0
H314 H 0.30723 0.8991 0.46157 0.0
H315 H 0.33998 0.80701 0.47234 0.0
H316 H 0.44546 0.92485 0.40437 0.0
H317 H 0.48726 0.84301 0.41997 0.0
C318 C 0.41597 0.14177 0.66967 0.0
C319 C 0.44397 0.14641 0.66969 0.0
C320 C 0.4496 0.16616 0.6796 0.0
C321 C 0.4248 0.17243 0.68501 0.0
N322 N 0.40375 0.15715 0.67938 0.0
Co323 Co 0.36396 0.16237 0.68315 0.0
N324 N 0.37177 0.19449 0.69675 0.0
C325 C 0.39658 0.20395 0.70091 0.0
C326 C 0.39553 0.22494 0.71083 0.0
C327 C 0.36844 0.22873 0.71331 0.0
C328 C 0.35451 0.20976 0.7047 0.0
N329 N 0.3241 0.1689 0.68637 0.0
C330 C 0.31134 0.18785 0.6949 0.0
C331 C 0.2832 0.1856 0.69389 0.0
C332 C 0.278 0.1642 0.68446 0.0
C333 C 0.30315 0.15471 0.68024 0.0
N334 N 0.35627 0.12903 0.67 0.0
C335 C 0.33176 0.11638 0.66696 0.0
C336 C 0.33292 0.09452 0.65731 0.0
C337 C 0.3597 0.09361 0.65384 0.0
C338 C 0.37332 0.11508 0.6616 0.0
N339 N 0.36537 0.1277 0.69609 0.0
C340 C 0.36605 0.08143 0.71556 0.0
C341 C 0.34328 0.08502 0.70781 0.0
C342 C 0.34343 0.10793 0.69817 0.0
C343 C 0.3887 0.10088 0.7132 0.0
C344 C 0.38792 0.12364 0.70354 0.0
N345 N 0.36265 0.19691 0.67026 0.0
C346 C 0.34726 0.21619 0.65002 0.0
C347 C 0.36491 0.24244 0.65071 0.0
C348 C 0.38067 0.24629 0.66151 0.0
C349 C 0.37942 0.22326 0.67107 0.0
C350 C 0.34609 0.19417 0.65993 0.0
H351 H 0.39267 0.22691 0.67888 0.0
H352 H 0.33199 0.17478 0.65893 0.0
H353 H 0.32542 0.1093 0.69263 0.0
H354 H 0.40573 0.13794 0.70242 0.0
C355 C 0.42042 0.19349 0.69503 0.0
C356 C 0.40175 0.12396 0.65989 0.0
C357 C 0.32495 0.20659 0.70462 0.0
C358 C 0.30777 0.12989 0.67165 0.0
H359 H 0.45865 0.13714 0.66301 0.0
H360 H 0.4693 0.17566 0.6823 0.0
H361 H 0.41244 0.23609 0.7157 0.0
H362 H 0.35988 0.24359 0.72067 0.0
H363 H 0.268 0.19746 0.69963 0.0
H364 H 0.25827 0.15562 0.68138 0.0
H365 H 0.31606 0.08239 0.65277 0.0
H366 H 0.368 0.07992 0.64608 0.0
H367 H 0.32539 0.07011 0.70911 0.0
H368 H 0.40679 0.09916 0.719 0.0
H369 H 0.33447 0.21264 0.64184 0.0
H370 H 0.39464 0.26637 0.66237 0.0
C371 C 0.11572 0.19522 0.92385 0.0
C372 C 0.10926 0.22774 0.92314 0.0
C373 C 0.09396 0.23474 0.93347 0.0
C374 C 0.09169 0.20622 0.93983 0.0
N375 N 0.10504 0.18145 0.93433 0.0
Co376 Co 0.10444 0.1351 0.93972 0.0
N377 N 0.07879 0.14466 0.95394 0.0
C378 C 0.06949 0.17396 0.95746 0.0
C379 C 0.05228 0.17315 0.96758 0.0
C380 C 0.05049 0.14144 0.97078 0.0
C381 C 0.06687 0.12465 0.96238 0.0
N382 N 0.10309 0.08852 0.94479 0.0
C383 C 0.08824 0.07365 0.95386 0.0
C384 C 0.09298 0.0407 0.95402 0.0
C385 C 0.11131 0.03447 0.94469 0.0
C386 C 0.11674 0.06382 0.93937 0.0
N387 N 0.13054 0.12569 0.92567 0.0
C388 C 0.14257 0.09714 0.92308 0.0
C389 C 0.15918 0.09798 0.91272 0.0
C390 C 0.15734 0.12876 0.90831 0.0
C391 C 0.1395 0.14493 0.91622 0.0
N392 N 0.13575 0.14251 0.95131 0.0
C393 C 0.17733 0.14954 0.96942 0.0
C394 C 0.17608 0.12238 0.96175 0.0
C395 C 0.15549 0.1195 0.95281 0.0
C396 C 0.15821 0.17392 0.9675 0.0
C397 C 0.13772 0.16992 0.95847 0.0
N398 N 0.07335 0.12757 0.92827 0.0
C399 C 0.05336 0.09807 0.91104 0.0
C400 C 0.0305 0.118 0.91116 0.0
C401 C 0.02905 0.14236 0.92019 0.0
C402 C 0.05067 0.14681 0.92857 0.0
C403 C 0.07428 0.1031 0.91965 0.0
H404 H 0.04879 0.16617 0.93511 0.0
H405 H 0.09115 0.08705 0.91908 0.0
H406 H 0.1559 0.09813 0.94739 0.0
H407 H 0.12351 0.18912 0.95763 0.0
C408 C 0.07579 0.20149 0.95055 0.0
C409 C 0.13082 0.17811 0.91406 0.0
C410 C 0.06996 0.0897 0.96269 0.0
C411 C 0.13506 0.06914 0.92951 0.0
H412 H 0.11435 0.2446 0.91576 0.0
H413 H 0.08473 0.25763 0.93582 0.0
H414 H 0.04183 0.19317 0.97197 0.0
H415 H 0.03824 0.13176 0.97834 0.0
H416 H 0.08422 0.02301 0.96031 0.0
H417 H 0.1198 0.01133 0.94214 0.0
H418 H 0.17031 0.0782 0.90854 0.0
H419 H 0.16736 0.13804 0.90001 0.0
H420 H 0.19091 0.10319 0.96268 0.0
H421 H 0.1585 0.19553 0.97319 0.0
H422 H 0.05511 0.0786 0.90431 0.0
H423 H 0.0117 0.15846 0.92055 0.0
C424 C 0.86562 0.80478 0.6786 0.0
C425 C 0.89156 0.79265 0.67638 0.0
C426 C 0.90626 0.7971 0.6871 0.0
C427 C 0.88922 0.81362 0.69496 0.0
N428 N 0.86472 0.8205 0.68981 0.0
Co429 Co 0.83981 0.85605 0.69539 0.0
N430 N 0.86184 0.86419 0.711 0.0
C431 C 0.88409 0.84759 0.71477 0.0
C432 C 0.89453 0.85778 0.72603 0.0
C433 C 0.87789 0.88233 0.72973 0.0
C434 C 0.85821 0.88575 0.72045 0.0
N435 N 0.81564 0.89266 0.70064 0.0
C436 C 0.81692 0.91243 0.71079 0.0
C437 C 0.79593 0.93486 0.71074 0.0
C438 C 0.78106 0.92932 0.70014 0.0
C439 C 0.79368 0.90389 0.69436 0.0
N440 N 0.81718 0.84695 0.67999 0.0
C441 C 0.79537 0.86418 0.67607 0.0
C442 C 0.78887 0.85903 0.66374 0.0
C443 C 0.80709 0.83659 0.65968 0.0
C444 C 0.82253 0.82739 0.67001 0.0
N445 N 0.81729 0.82556 0.70517 0.0
C446 C 0.78695 0.79044 0.72293 0.0
C447 C 0.77419 0.81227 0.71482 0.0
C448 C 0.78961 0.82923 0.70597 0.0
C449 C 0.81477 0.78453 0.7212 0.0
C450 C 0.82939 0.80202 0.71224 0.0
N451 N 0.8628 0.88651 0.68554 0.0
C452 C 0.86934 0.91298 0.66558 0.0
C453 C 0.8975 0.90933 0.66664 0.0
C454 C 0.90809 0.89895 0.67811 0.0
C455 C 0.89039 0.88818 0.68749 0.0
C456 C 0.85248 0.90245 0.67532 0.0
H457 H 0.89965 0.87979 0.69592 0.0
H458 H 0.83121 0.90617 0.67408 0.0
H459 H 0.77896 0.84597 0.70014 0.0
H460 H 0.85067 0.7969 0.71143 0.0
C461 C 0.89651 0.82538 0.70678 0.0
C462 C 0.84206 0.80023 0.67012 0.0
C463 C 0.83738 0.91085 0.72074 0.0
C464 C 0.78533 0.88981 0.68314 0.0
H465 H 0.89934 0.78196 0.66783 0.0
H466 H 0.92729 0.79043 0.68874 0.0
H467 H 0.91263 0.84915 0.73077 0.0
H468 H 0.88041 0.89662 0.73815 0.0
H469 H 0.79177 0.95328 0.71767 0.0
H470 H 0.76314 0.94225 0.69702 0.0
H471 H 0.77426 0.8721 0.65807 0.0
H472 H 0.80952 0.82934 0.64999 0.0
H473 H 0.75263 0.81742 0.71565 0.0
H474 H 0.82538 0.76696 0.72691 0.0
H475 H 0.86033 0.92267 0.65709 0.0
H476 H 0.92988 0.8969 0.67954 0.0
C477 C 0.88772 0.07678 0.42909 0.0
C478 C 0.87393 0.05865 0.42019 0.0
C479 C 0.87607 0.02726 0.42387 0.0
C480 C 0.89098 0.02803 0.43477 0.0
N481 N 0.89804 0.05809 0.43842 0.0
Co482 Co 0.92177 0.07018 0.45304 0.0
N483 N 0.92818 0.02378 0.45751 0.0
C484 C 0.91732 0.99768 0.45176 0.0
C485 C 0.92538 0.96899 0.45691 0.0
C486 C 0.94235 0.97717 0.46655 0.0
C487 C 0.94363 0.01055 0.46676 0.0
N488 N 0.94605 0.08238 0.46745 0.0
C489 C 0.96017 0.06365 0.47563 0.0
C490 C 0.97459 0.08207 0.48426 0.0
C491 C 0.9696 0.11349 0.4814 0.0
C492 C 0.95244 0.11254 0.47125 0.0
N493 N 0.91506 0.11658 0.44869 0.0
C494 C 0.92408 0.14274 0.45502 0.0
C495 C 0.91705 0.17141 0.44956 0.0
C496 C 0.90306 0.16313 0.43897 0.0
C497 C 0.90233 0.12971 0.43862 0.0
N498 N 0.88937 0.07083 0.46434 0.0
C499 C 0.8418 0.07318 0.47921 0.0
C500 C 0.86132 0.09753 0.47993 0.0
C501 C 0.88492 0.09569 0.47258 0.0
C502 C 0.84669 0.04736 0.47116 0.0
C503 C 0.87028 0.04676 0.46384 0.0
N504 N 0.95362 0.06963 0.4416 0.0
C505 C 0.98797 0.0994 0.43026 0.0
C506 C 0.99058 0.07442 0.42155 0.0
C507 C 0.9763 0.04594 0.42368 0.0
C508 C 0.95802 0.04407 0.4337 0.0
C509 C 0.96984 0.09626 0.44031 0.0
H510 H 0.94679 0.02224 0.43451 0.0
H511 H 0.96841 0.11616 0.44662 0.0
H512 H 0.89914 0.11476 0.47372 0.0
H513 H 0.87234 0.02668 0.45777 0.0
C514 C 0.90044 1.00094 0.44124 0.0
C515 C 0.89123 0.11155 0.42807 0.0
C516 C 0.96015 0.0285 0.47578 0.0
C517 C 0.94164 0.13954 0.46526 0.0
H518 H 0.86391 0.06723 0.41177 0.0
H519 H 0.86848 0.00628 0.41896 0.0
H520 H 0.91982 0.94496 0.45392 0.0
H521 H 0.95278 0.96042 0.47268 0.0
H522 H 0.98725 0.07368 0.49192 0.0
H523 H 0.9774 0.13455 0.48619 0.0
H524 H 0.92255 0.19542 0.45259 0.0
H525 H 0.89521 0.17986 0.43208 0.0
H526 H 0.85852 0.1178 0.4862 0.0
H527 H 0.83203 0.02799 0.47026 0.0
H528 H 0.99929 0.1216 0.42912 0.0
H529 H 0.97796 0.02587 0.41722 0.0
C530 C 0.64379 0.21061 0.18337 0.0
C531 C 0.62265 0.23281 0.18382 0.0
C532 C 0.6073 0.22527 0.19409 0.0
C533 C 0.6197 0.19886 0.19925 0.0
N534 N 0.6425 0.1895 0.19311 0.0
Co535 Co 0.66443 0.14948 0.19635 0.0
N536 N 0.63968 0.13592 0.21041 0.0
C537 C 0.6181 0.1525 0.21497 0.0
C538 C 0.60562 0.13792 0.22498 0.0
C539 C 0.62034 0.11061 0.22709 0.0
C540 C 0.64108 0.11013 0.21822 0.0
N541 N 0.68561 0.10875 0.19911 0.0
C542 C 0.68206 0.08485 0.20766 0.0
C543 C 0.70151 0.06084 0.20629 0.0
C544 C 0.71797 0.06992 0.19658 0.0
C545 C 0.70772 0.09884 0.19257 0.0
N546 N 0.68979 0.16375 0.18265 0.0
C547 C 0.71323 0.14928 0.17908 0.0
C548 C 0.72597 0.16435 0.16924 0.0
C549 C 0.7094 0.18956 0.16617 0.0
C550 C 0.68732 0.18823 0.17431 0.0
N551 N 0.68743 0.17235 0.20887 0.0
C552 C 0.71913 0.20141 0.22784 0.0
C553 C 0.73076 0.17982 0.21934 0.0
C554 C 0.71469 0.16572 0.21001 0.0
C555 C 0.69157 0.20893 0.22646 0.0
C556 C 0.67628 0.19438 0.21698 0.0
N557 N 0.64151 0.12693 0.18382 0.0
C558 C 0.63683 0.10467 0.16297 0.0
C559 C 0.60854 0.10721 0.16373 0.0
C560 C 0.59694 0.11723 0.17504 0.0
C561 C 0.61369 0.12697 0.1849 0.0
C562 C 0.65284 0.11396 0.17319 0.0
H563 H 0.60364 0.13573 0.19309 0.0
H564 H 0.67436 0.11165 0.17209 0.0
H565 H 0.72478 0.14918 0.20398 0.0
H566 H 0.65542 0.20113 0.2165 0.0
C567 C 0.60949 0.18111 0.20935 0.0
C568 C 0.66354 0.20907 0.1731 0.0
C569 C 0.66168 0.08479 0.21768 0.0
C570 C 0.72007 0.11882 0.18367 0.0
H571 H 0.61813 0.25182 0.17721 0.0
H572 H 0.58865 0.23683 0.19712 0.0
H573 H 0.5879 0.14615 0.23012 0.0
H574 H 0.6163 0.09305 0.23438 0.0
H575 H 0.70405 0.0394 0.21195 0.0
H576 H 0.73589 0.0575 0.19316 0.0
H577 H 0.74423 0.15676 0.16436 0.0
H578 H 0.71252 0.20618 0.15847 0.0
H579 H 0.75203 0.17309 0.22006 0.0
H580 H 0.68177 0.22603 0.23268 0.0
H581 H 0.64655 0.0963 0.15443 0.0
H582 H 0.57503 0.11936 0.17603 0.0
C583 C 0.60934 0.917 0.92944 0.0
C584 C 0.6204 0.93547 0.91983 0.0
C585 C 0.61778 0.96688 0.92337 0.0
C586 C 0.60509 0.96591 0.93482 0.0
N587 N 0.59988 0.93573 0.93896 0.0
Co588 Co 0.57853 0.92347 0.95436 0.0
N589 N 0.57097 0.96975 0.95856 0.0
C590 C 0.58046 0.99596 0.9524 0.0
C591 C 0.57196 0.02458 0.95746 0.0
C592 C 0.55612 0.01622 0.96748 0.0
C593 C 0.55592 0.98282 0.96797 0.0
N594 N 0.55641 0.91105 0.96948 0.0
C595 C 0.54211 0.92958 0.97766 0.0
C596 C 0.52917 0.91106 0.98674 0.0
C597 C 0.53532 0.87973 0.98416 0.0
C598 C 0.55161 0.88086 0.97372 0.0
N599 N 0.58654 0.87729 0.95033 0.0
C600 C 0.58 0.85122 0.95732 0.0
C601 C 0.58837 0.82265 0.95216 0.0
C602 C 0.60055 0.83092 0.9411 0.0
C603 C 0.59864 0.86417 0.94009 0.0
N604 N 0.61228 0.92531 0.96479 0.0
C605 C 0.66169 0.92585 0.97847 0.0
C606 C 0.64199 0.90218 0.98057 0.0
C607 C 0.61764 0.90249 0.97376 0.0
C608 C 0.65588 0.94972 0.96963 0.0
C609 C 0.63135 0.94899 0.96297 0.0
N610 N 0.5453 0.92144 0.94385 0.0
C611 C 0.50925 0.88988 0.93451 0.0
C612 C 0.50414 0.91408 0.92569 0.0
C613 C 0.51865 0.9429 0.92672 0.0
C614 C 0.53889 0.94609 0.93583 0.0
C615 C 0.52962 0.89416 0.94354 0.0
H616 H 0.54982 0.96825 0.9359 0.0
H617 H 0.53298 0.87471 0.9499 0.0
H618 H 0.60366 0.88378 0.9759 0.0
H619 H 0.62845 0.96785 0.95638 0.0
C620 C 0.59584 0.99286 0.94142 0.0
C621 C 0.60695 0.88192 0.92889 0.0
C622 C 0.54065 0.96469 0.97739 0.0
C623 C 0.56328 0.85407 0.96788 0.0
H624 H 0.62872 0.92735 0.91098 0.0
H625 H 0.6234 0.98795 0.91798 0.0
H626 H 0.57631 0.04864 0.95411 0.0
H627 H 0.54563 0.03287 0.97362 0.0
H628 H 0.51672 0.91935 0.99449 0.0
H629 H 0.52883 0.85865 0.98934 0.0
H630 H 0.58498 0.7986 0.95575 0.0
H631 H 0.60905 0.81427 0.93432 0.0
H632 H 0.64545 0.88299 0.98727 0.0
H633 H 0.67012 0.96911 0.96784 0.0
H634 H 0.49801 0.86745 0.93429 0.0
H635 H 0.51541 0.9624 0.92013 0.0
C636 C 0.85744 0.20918 0.82244 0.0
C637 C 0.87827 0.23171 0.82192 0.0
C638 C 0.89368 0.22419 0.81165 0.0
C639 C 0.8814 0.19762 0.80652 0.0
N640 N 0.85861 0.18824 0.81266 0.0
Co641 Co 0.83638 0.14858 0.8093 0.0
N642 N 0.86109 0.13491 0.79524 0.0
C643 C 0.88262 0.15153 0.79065 0.0
C644 C 0.89508 0.13691 0.78063 0.0
C645 C 0.88041 0.10952 0.77857 0.0
C646 C 0.85974 0.10901 0.78747 0.0
N647 N 0.815 0.10803 0.80647 0.0
C648 C 0.81866 0.08392 0.79801 0.0
C649 C 0.79907 0.06004 0.79937 0.0
C650 C 0.78244 0.06941 0.80897 0.0
C651 C 0.79274 0.09834 0.81294 0.0
N652 N 0.811 0.16309 0.82299 0.0
C653 C 0.78746 0.14874 0.82649 0.0
C654 C 0.775 0.16338 0.8365 0.0
C655 C 0.79182 0.18819 0.83974 0.0
C656 C 0.81367 0.18732 0.83146 0.0
N657 N 0.81361 0.17183 0.79676 0.0
C658 C 0.78241 0.20143 0.77772 0.0
C659 C 0.77068 0.17917 0.78593 0.0
C660 C 0.78646 0.1649 0.79533 0.0
C661 C 0.80981 0.20931 0.77944 0.0
C662 C 0.82485 0.19443 0.78893 0.0
N663 N 0.85909 0.12575 0.82181 0.0
C664 C 0.8637 0.10415 0.84277 0.0
C665 C 0.892 0.10658 0.84199 0.0
C666 C 0.90363 0.11604 0.83062 0.0
C667 C 0.8869 0.1255 0.8207 0.0
C668 C 0.8477 0.11314 0.8325 0.0
H669 H 0.89696 0.13394 0.81247 0.0
H670 H 0.82616 0.11097 0.8336 0.0
H671 H 0.77623 0.14813 0.80122 0.0
H672 H 0.84564 0.20134 0.78958 0.0
C673 C 0.89141 0.18002 0.79633 0.0
C674 C 0.8377 0.20787 0.8327 0.0
C675 C 0.83935 0.08342 0.78813 0.0
C676 C 0.78048 0.11842 0.82182 0.0
H677 H 0.88228 0.25106 0.82848 0.0
H678 H 0.91214 0.23603 0.80854 0.0
H679 H 0.9128 0.14511 0.77549 0.0
H680 H 0.88448 0.09189 0.77131 0.0
H681 H 0.7966 0.03847 0.79378 0.0
H682 H 0.76445 0.05712 0.81238 0.0
H683 H 0.75686 0.15557 0.84142 0.0
H684 H 0.78891 0.20401 0.8477 0.0
H685 H 0.74935 0.17275 0.78514 0.0
H686 H 0.8199 0.2263 0.77327 0.0
H687 H 0.85397 0.09617 0.85136 0.0
H688 H 0.92554 0.11803 0.82961 0.0
C689 C 0.61097 0.08299 0.57483 0.0
C690 C 0.62246 0.06463 0.58436 0.0
C691 C 0.62005 0.03321 0.58081 0.0
C692 C 0.60704 0.03405 0.56942 0.0
N693 N 0.60147 0.06418 0.56533 0.0
Co694 Co 0.57948 0.07626 0.55011 0.0
N695 N 0.57224 0.02989 0.5459 0.0
C696 C 0.58216 0.00376 0.55197 0.0
C697 C 0.57381 0.97507 0.54692 0.0
C698 C 0.55761 0.98329 0.53701 0.0
C699 C 0.55706 0.01669 0.53656 0.0
N700 N 0.5567 0.08849 0.53519 0.0
C701 C 0.54233 0.06983 0.52708 0.0
C702 C 0.52885 0.08826 0.51814 0.0
C703 C 0.53473 0.11965 0.52074 0.0
C704 C 0.55141 0.11865 0.53105 0.0
N705 N 0.58724 0.12251 0.55412 0.0
C706 C 0.5802 0.14855 0.54722 0.0
C707 C 0.58855 0.17718 0.55233 0.0
C708 C 0.60121 0.16899 0.56329 0.0
C709 C 0.59959 0.13571 0.56427 0.0
N710 N 0.61287 0.07494 0.53944 0.0
C711 C 0.6624 0.07549 0.52582 0.0
C712 C 0.64259 0.0992 0.5239 0.0
C713 C 0.61813 0.09827 0.53065 0.0
C714 C 0.65644 0.05089 0.53434 0.0
C715 C 0.63193 0.05116 0.54099 0.0
N716 N 0.54666 0.07777 0.56092 0.0
C717 C 0.51209 0.10928 0.57144 0.0
C718 C 0.50778 0.08458 0.58016 0.0
C719 C 0.52146 0.05546 0.57833 0.0
C720 C 0.54059 0.05257 0.56873 0.0
C721 C 0.53132 0.10524 0.56185 0.0
H722 H 0.55096 0.03012 0.56812 0.0
H723 H 0.5343 0.12509 0.55562 0.0
H724 H 0.604 0.11695 0.52865 0.0
H725 H 0.62909 0.03189 0.54739 0.0
C726 C 0.5978 0.00701 0.56288 0.0
C727 C 0.60813 0.11801 0.57544 0.0
C728 C 0.54131 0.03469 0.52727 0.0
C729 C 0.56304 0.14554 0.53683 0.0
H730 H 0.63093 0.07284 0.59317 0.0
H731 H 0.62599 0.01218 0.58615 0.0
H732 H 0.57849 0.95104 0.55021 0.0
H733 H 0.54711 0.96655 0.5309 0.0
H734 H 0.51625 0.07988 0.51046 0.0
H735 H 0.52784 0.14069 0.51565 0.0
H736 H 0.58478 0.20122 0.54881 0.0
H737 H 0.60976 0.18568 0.57003 0.0
H738 H 0.64606 0.11888 0.51743 0.0
H739 H 0.6706 0.03131 0.53592 0.0
H740 H 0.50173 0.13217 0.57234 0.0
H741 H 0.51805 0.03517 0.58454 0.0
C742 C 0.64487 0.79065 0.32085 0.0
C743 C 0.62479 0.7672 0.32018 0.0
C744 C 0.60918 0.77441 0.30995 0.0
C745 C 0.62059 0.80172 0.30499 0.0
N746 N 0.64303 0.81191 0.31121 0.0
Co747 Co 0.66402 0.85262 0.30813 0.0
N748 N 0.63907 0.86556 0.29404 0.0
C749 C 0.61787 0.84838 0.28943 0.0
C750 C 0.60525 0.8626 0.27937 0.0
C751 C 0.61951 0.89027 0.27728 0.0
C752 C 0.64012 0.89131 0.28621 0.0
N753 N 0.68422 0.89408 0.30549 0.0
C754 C 0.68037 0.91779 0.29689 0.0
C755 C 0.69924 0.94242 0.29835 0.0
C756 C 0.71563 0.93392 0.30816 0.0
C757 C 0.70594 0.90471 0.31213 0.0
N758 N 0.68964 0.83894 0.32184 0.0
C759 C 0.71253 0.85436 0.32556 0.0
C760 C 0.72532 0.83995 0.33554 0.0
C761 C 0.70938 0.81413 0.33852 0.0
C762 C 0.6877 0.81426 0.33014 0.0
N763 N 0.68768 0.83076 0.29558 0.0
C764 C 0.72024 0.8029 0.27664 0.0
C765 C 0.73132 0.82465 0.28524 0.0
C766 C 0.71483 0.83815 0.29456 0.0
C767 C 0.6928 0.79465 0.2779 0.0
C768 C 0.67709 0.80862 0.28737 0.0
N769 N 0.64038 0.87412 0.32068 0.0
C770 C 0.63481 0.89519 0.34169 0.0
C771 C 0.6066 0.8917 0.34082 0.0
C772 C 0.59544 0.88184 0.3294 0.0
C773 C 0.61258 0.87316 0.31952 0.0
C774 C 0.65121 0.88699 0.33145 0.0
H775 H 0.60286 0.86446 0.31124 0.0
H776 H 0.67264 0.89008 0.33263 0.0
H777 H 0.72447 0.85486 0.30069 0.0
H778 H 0.65636 0.80131 0.28775 0.0
C779 C 0.60994 0.81933 0.29494 0.0
C780 C 0.66438 0.7926 0.33117 0.0
C781 C 0.66033 0.91708 0.28674 0.0
C782 C 0.7186 0.88511 0.32105 0.0
H783 H 0.62138 0.74747 0.32664 0.0
H784 H 0.5911 0.7619 0.30677 0.0
H785 H 0.58783 0.85382 0.27416 0.0
H786 H 0.61531 0.90764 0.26995 0.0
H787 H 0.70149 0.96387 0.29267 0.0
H788 H 0.73321 0.94689 0.31165 0.0
H789 H 0.74306 0.84844 0.34059 0.0
H790 H 0.71269 0.79809 0.34638 0.0
H791 H 0.75248 0.8319 0.28462 0.0
H792 H 0.68342 0.77738 0.27162 0.0
H793 H 0.64418 0.90352 0.35032 0.0
H794 H 0.5736 0.87906 0.32832 0.0
C795 C 0.88949 0.91972 0.07509 0.0
C796 C 0.87636 0.93757 0.08429 0.0
C797 C 0.87887 0.96913 0.08091 0.0
C798 C 0.89331 0.96873 0.06988 0.0
N799 N 0.8997 0.93876 0.06586 0.0
Co800 Co 0.92261 0.92707 0.0509 0.0
N801 N 0.92953 0.97361 0.04683 0.0
C802 C 0.91916 0.99955 0.05287 0.0
C803 C 0.92746 0.0284 0.04794 0.0
C804 C 0.94406 0.02049 0.03813 0.0
C805 C 0.94489 0.9871 0.03761 0.0
N806 N 0.94619 0.9153 0.03619 0.0
C807 C 0.96043 0.93426 0.02814 0.0
C808 C 0.97436 0.91611 0.01926 0.0
C809 C 0.96893 0.88461 0.02184 0.0
C810 C 0.95203 0.88527 0.03208 0.0
N811 N 0.91526 0.8806 0.05484 0.0
C812 C 0.92347 0.85469 0.04813 0.0
C813 C 0.91615 0.82584 0.05337 0.0
C814 C 0.90283 0.83372 0.06419 0.0
C815 C 0.90275 0.86711 0.0649 0.0
N816 N 0.88977 0.9279 0.03988 0.0
C817 C 0.84119 0.92713 0.0256 0.0
C818 C 0.86106 0.90334 0.02402 0.0
C819 C 0.88503 0.90429 0.03113 0.0
C820 C 0.84656 0.95185 0.03413 0.0
C821 C 0.87064 0.95173 0.04109 0.0
N822 N 0.95491 0.9261 0.06206 0.0
C823 C 0.98981 0.8954 0.07272 0.0
C824 C 0.9931 0.91987 0.08162 0.0
C825 C 0.97874 0.94854 0.07986 0.0
C826 C 0.95999 0.95115 0.07009 0.0
C827 C 0.97091 0.89915 0.06298 0.0
H828 H 0.94908 0.97324 0.06953 0.0
H829 H 0.96874 0.87948 0.05659 0.0
H830 H 0.89923 0.88545 0.02947 0.0
H831 H 0.87308 0.97114 0.04745 0.0
C832 C 0.90278 0.99602 0.06354 0.0
C833 C 0.89252 0.88484 0.07575 0.0
C834 C 0.96095 0.96941 0.02834 0.0
C835 C 0.94083 0.85815 0.03784 0.0
H836 H 0.86654 0.92866 0.09271 0.0
H837 H 0.8718 0.98994 0.08609 0.0
H838 H 0.92236 0.05233 0.0512 0.0
H839 H 0.95457 0.03742 0.0321 0.0
H840 H 0.98699 0.92473 0.01163 0.0
H841 H 0.97627 0.86371 0.01679 0.0
H842 H 0.9211 0.80191 0.05005 0.0
H843 H 0.89501 0.81672 0.07099 0.0
H844 H 0.85794 0.88359 0.01753 0.0
H845 H 0.83225 0.9714 0.03548 0.0
H846 H 0.00076 0.87287 0.07357 0.0
H847 H 0.98136 0.96869 0.08621 0.0
C848 C 0.58671 0.64652 0.83241 0.0
C849 C 0.55885 0.65214 0.83217 0.0
C850 C 0.55412 0.67223 0.82226 0.0
C851 C 0.57927 0.67769 0.81706 0.0
N852 N 0.59971 0.66161 0.82283 0.0
Co853 Co 0.63974 0.66532 0.81931 0.0
N854 N 0.63324 0.69769 0.80563 0.0
C855 C 0.60887 0.70887 0.80158 0.0
C856 C 0.61075 0.72959 0.7916 0.0
C857 C 0.6379 0.73125 0.78892 0.0
C858 C 0.65103 0.71132 0.79747 0.0
N859 N 0.67984 0.66997 0.81616 0.0
C860 C 0.69329 0.68711 0.80725 0.0
C861 C 0.7213 0.68319 0.80823 0.0
C862 C 0.72569 0.66261 0.81802 0.0
C863 C 0.70024 0.65512 0.82245 0.0
N864 N 0.64614 0.63199 0.83265 0.0
C865 C 0.67028 0.6189 0.83603 0.0
C866 C 0.66829 0.59743 0.84578 0.0
C867 C 0.64134 0.59725 0.84896 0.0
C868 C 0.62846 0.61876 0.84095 0.0
N869 N 0.63762 0.63057 0.80645 0.0
C870 C 0.63619 0.58366 0.7872 0.0
C871 C 0.65776 0.58489 0.79576 0.0
C872 C 0.65808 0.6083 0.80521 0.0
C873 C 0.61507 0.60594 0.78862 0.0
C874 C 0.61612 0.62885 0.79824 0.0
N875 N 0.64171 0.69996 0.83221 0.0
C876 C 0.65655 0.71798 0.85273 0.0
C877 C 0.63867 0.74404 0.85227 0.0
C878 C 0.62339 0.74874 0.84138 0.0
C879 C 0.62506 0.72645 0.83155 0.0
C880 C 0.65814 0.69676 0.84256 0.0
H881 H 0.61211 0.73072 0.8237 0.0
H882 H 0.67235 0.67748 0.84344 0.0
H883 H 0.6753 0.60813 0.81128 0.0
H884 H 0.59939 0.64509 0.79876 0.0
C885 C 0.58458 0.69915 0.80726 0.0
C886 C 0.60006 0.6282 0.84232 0.0
C887 C 0.68032 0.7054 0.79718 0.0
C888 C 0.69473 0.63118 0.83131 0.0
H889 H 0.54368 0.64338 0.83871 0.0
H890 H 0.5348 0.68257 0.81945 0.0
H891 H 0.59429 0.74162 0.78671 0.0
H892 H 0.64699 0.74515 0.78141 0.0
H893 H 0.73693 0.69321 0.80223 0.0
H894 H 0.74506 0.65303 0.82114 0.0
H895 H 0.6847 0.58494 0.85051 0.0
H896 H 0.6324 0.58398 0.85668 0.0
H897 H 0.67474 0.56833 0.79502 0.0
H898 H 0.59765 0.60566 0.78237 0.0
H899 H 0.6691 0.71386 0.86095 0.0
H900 H 0.60935 0.7688 0.84065 0.0
C901 C 0.61362 0.30759 0.08097 0.0
C902 C 0.60731 0.27501 0.08158 0.0
C903 C 0.59243 0.26802 0.07111 0.0
C904 C 0.59023 0.2966 0.06478 0.0
N905 N 0.60323 0.32141 0.07043 0.0
Co906 Co 0.60241 0.36784 0.06515 0.0
N907 N 0.57769 0.35813 0.0506 0.0
C908 C 0.56901 0.32874 0.04687 0.0
C909 C 0.55243 0.32944 0.03652 0.0
C910 C 0.55043 0.36118 0.0334 0.0
C911 C 0.56604 0.3781 0.04206 0.0
N912 N 0.60066 0.41449 0.06023 0.0
C913 C 0.58608 0.42931 0.05106 0.0
C914 C 0.59027 0.46237 0.05111 0.0
C915 C 0.60798 0.4687 0.06068 0.0
C916 C 0.61358 0.43931 0.06593 0.0
N917 N 0.62776 0.37736 0.07947 0.0
C918 C 0.63942 0.40602 0.08221 0.0
C919 C 0.65581 0.4052 0.09264 0.0
C920 C 0.65426 0.37428 0.09692 0.0
C921 C 0.63676 0.35802 0.08888 0.0
N922 N 0.63441 0.36115 0.05388 0.0
C923 C 0.67787 0.35388 0.03666 0.0
C924 C 0.67531 0.38161 0.04397 0.0
C925 C 0.65379 0.38464 0.05246 0.0
C926 C 0.65862 0.32947 0.03834 0.0
C927 C 0.63731 0.33353 0.04694 0.0
N928 N 0.57062 0.37462 0.07629 0.0
C929 C 0.54931 0.40294 0.09351 0.0
C930 C 0.52626 0.38324 0.09278 0.0
C931 C 0.52571 0.35944 0.08348 0.0
C932 C 0.54796 0.35548 0.07544 0.0
C933 C 0.57094 0.39841 0.0852 0.0
H934 H 0.5465 0.33666 0.06865 0.0
H935 H 0.58788 0.41422 0.08626 0.0
H936 H 0.65318 0.40651 0.05759 0.0
H937 H 0.62337 0.31404 0.0477 0.0
C938 C 0.57504 0.30123 0.05385 0.0
C939 C 0.62846 0.32463 0.09086 0.0
C940 C 0.56861 0.41312 0.04192 0.0
C941 C 0.63168 0.43404 0.07587 0.0
H942 H 0.61227 0.2581 0.08895 0.0
H943 H 0.58351 0.24506 0.06862 0.0
H944 H 0.54248 0.30933 0.03196 0.0
H945 H 0.5385 0.37079 0.02571 0.0
H946 H 0.58162 0.48005 0.04479 0.0
H947 H 0.61601 0.49194 0.06342 0.0
H948 H 0.66663 0.42506 0.09694 0.0
H949 H 0.66424 0.36497 0.10523 0.0
H950 H 0.68947 0.40146 0.04297 0.0
H951 H 0.65993 0.30722 0.03306 0.0
H952 H 0.55107 0.42141 0.10064 0.0
H953 H 0.50818 0.34385 0.08236 0.0
C954 C 0.91657 0.36409 0.33466 0.0
C955 C 0.94477 0.36174 0.33449 0.0
C956 C 0.9513 0.34264 0.3245 0.0
C957 C 0.9268 0.33441 0.3192 0.0
N958 N 0.90502 0.34773 0.32502 0.0
Co959 Co 0.86548 0.33994 0.32124 0.0
N960 N 0.87483 0.30849 0.30761 0.0
C961 C 0.90005 0.29996 0.30368 0.0
C962 C 0.89999 0.27863 0.29386 0.0
C963 C 0.87313 0.27355 0.29122 0.0
C964 C 0.85832 0.29223 0.29961 0.0
N965 N 0.82593 0.33154 0.31775 0.0
C966 C 0.81408 0.31246 0.30899 0.0
C967 C 0.78583 0.31394 0.30964 0.0
C968 C 0.77962 0.33482 0.3191 0.0
C969 C 0.80428 0.34491 0.32366 0.0
N970 N 0.85619 0.37189 0.33469 0.0
C971 C 0.83113 0.38255 0.33795 0.0
C972 C 0.83129 0.40371 0.34784 0.0
C973 C 0.85801 0.40627 0.35126 0.0
C974 C 0.87257 0.38637 0.34323 0.0
N975 N 0.8656 0.37517 0.30848 0.0
C976 C 0.86468 0.4223 0.28928 0.0
C977 C 0.8427 0.41864 0.29751 0.0
C978 C 0.84366 0.39532 0.30701 0.0
C979 C 0.88728 0.40237 0.29099 0.0
C980 C 0.88729 0.37921 0.30051 0.0
N981 N 0.86543 0.30482 0.33393 0.0
C982 C 0.84701 0.28048 0.35279 0.0
C983 C 0.86796 0.25765 0.35302 0.0
C984 C 0.88712 0.25834 0.3433 0.0
C985 C 0.88543 0.2818 0.33393 0.0
C986 C 0.84614 0.30365 0.34325 0.0
H987 H 0.90077 0.28107 0.32686 0.0
H988 H 0.82995 0.32075 0.3437 0.0
H989 H 0.82629 0.39394 0.31296 0.0
H990 H 0.905 0.36461 0.30107 0.0
C991 C 0.92343 0.31251 0.30936 0.0
C992 C 0.90154 0.38013 0.34464 0.0
C993 C 0.82867 0.29424 0.2994 0.0
C994 C 0.80775 0.36882 0.33275 0.0
H995 H 0.95906 0.37193 0.34113 0.0
H996 H 0.97142 0.33466 0.32173 0.0
H997 H 0.9174 0.26826 0.2891 0.0
H998 H 0.8653 0.25811 0.28386 0.0
H999 H 0.77118 0.30189 0.30367 0.0
H1000 H 0.75953 0.34254 0.32202 0.0
H1001 H 0.81392 0.41462 0.35245 0.0
H1002 H 0.86583 0.42018 0.35907 0.0
H1003 H 0.82485 0.43385 0.29669 0.0
H1004 H 0.90475 0.40403 0.28479 0.0
H1005 H 0.83174 0.28108 0.36014 0.0
H1006 H 0.90344 0.24081 0.34291 0.0
C1007 C 0.8767 0.67799 0.58498 0.0
C1008 C 0.88057 0.71094 0.58625 0.0
C1009 C 0.89579 0.72056 0.5762 0.0
C1010 C 0.90022 0.69311 0.56936 0.0
N1011 N 0.88821 0.66661 0.57426 0.0
Co1012 Co 0.89061 0.62141 0.56769 0.0
N1013 N 0.91622 0.6347 0.55391 0.0
C1014 C 0.92461 0.66498 0.55125 0.0
C1015 C 0.94216 0.66674 0.54126 0.0
C1016 C 0.94519 0.63574 0.53727 0.0
C1017 C 0.92918 0.61677 0.54508 0.0
N1018 N 0.89364 0.57599 0.56137 0.0
C1019 C 0.90919 0.56347 0.55201 0.0
C1020 C 0.90546 0.53047 0.55087 0.0
C1021 C 0.88706 0.52177 0.55987 0.0
C1022 C 0.8806 0.54981 0.56596 0.0
N1023 N 0.86468 0.60831 0.5814 0.0
C1024 C 0.85397 0.57867 0.58326 0.0
C1025 C 0.83812 0.57647 0.59382 0.0
C1026 C 0.83904 0.60633 0.59915 0.0
C1027 C 0.85536 0.62522 0.59146 0.0
N1028 N 0.85922 0.62929 0.55617 0.0
C1029 C 0.81712 0.63812 0.53835 0.0
C1030 C 0.81886 0.60994 0.54547 0.0
C1031 C 0.83972 0.60616 0.55426 0.0
C1032 C 0.83634 0.66223 0.5406 0.0
C1033 C 0.85695 0.65739 0.54948 0.0
N1034 N 0.92175 0.61353 0.57907 0.0
C1035 C 0.94236 0.58281 0.59581 0.0
C1036 C 0.96376 0.60478 0.59664 0.0
C1037 C 0.96441 0.63056 0.58823 0.0
C1038 C 0.94325 0.63454 0.5796 0.0
C1039 C 0.92185 0.58743 0.58694 0.0
H1040 H 0.94435 0.65512 0.57363 0.0
H1041 H 0.90601 0.56991 0.58676 0.0
H1042 H 0.83976 0.58404 0.55922 0.0
H1043 H 0.87087 0.67671 0.55062 0.0
C1044 C 0.91681 0.69104 0.55872 0.0
C1045 C 0.86288 0.65843 0.59447 0.0
C1046 C 0.92739 0.58182 0.54385 0.0
C1047 C 0.8623 0.55242 0.57599 0.0
H1048 H 0.87363 0.72631 0.59381 0.0
H1049 H 0.90341 0.74453 0.57431 0.0
H1050 H 0.95195 0.68797 0.53746 0.0
H1051 H 0.95797 0.62796 0.52956 0.0
H1052 H 0.915 0.51436 0.5442 0.0
H1053 H 0.87932 0.49785 0.56174 0.0
H1054 H 0.8283 0.55522 0.59759 0.0
H1055 H 0.82958 0.61293 0.60796 0.0
H1056 H 0.80463 0.59034 0.54405 0.0
H1057 H 0.83557 0.68483 0.53554 0.0
H1058 H 0.94131 0.56226 0.60206 0.0
H1059 H 0.98062 0.64825 0.58862 0.0
C1060 C 0.58511 0.36079 0.67068 0.0
C1061 C 0.5571 0.35632 0.67087 0.0
C1062 C 0.5517 0.3363 0.68072 0.0
C1063 C 0.57664 0.32973 0.68594 0.0
N1064 N 0.59758 0.34505 0.68023 0.0
Co1065 Co 0.63745 0.33978 0.68379 0.0
N1066 N 0.62993 0.30723 0.69728 0.0
C1067 C 0.60523 0.29719 0.70137 0.0
C1068 C 0.6065 0.27589 0.71119 0.0
C1069 C 0.63362 0.27249 0.71367 0.0
C1070 C 0.64734 0.29198 0.70516 0.0
N1071 N 0.67737 0.33354 0.68693 0.0
C1072 C 0.69029 0.31487 0.69551 0.0
C1073 C 0.71841 0.31742 0.69451 0.0
C1074 C 0.72344 0.33879 0.68505 0.0
C1075 C 0.69823 0.34795 0.68081 0.0
N1076 N 0.64487 0.37327 0.67064 0.0
C1077 C 0.66935 0.38573 0.6674 0.0
C1078 C 0.66798 0.40756 0.65776 0.0
C1079 C 0.6411 0.40865 0.65448 0.0
C1080 C 0.62763 0.38731 0.66235 0.0
N1081 N 0.63614 0.37425 0.69682 0.0
C1082 C 0.63553 0.42095 0.71615 0.0
C1083 C 0.65736 0.41887 0.70776 0.0
C1084 C 0.65726 0.39556 0.69826 0.0
C1085 C 0.61381 0.39961 0.71455 0.0
C1086 C 0.61447 0.37679 0.70489 0.0
N1087 N 0.63865 0.30544 0.67077 0.0
C1088 C 0.65412 0.28643 0.65048 0.0
C1089 C 0.63608 0.26052 0.65098 0.0
C1090 C 0.6201 0.25667 0.66171 0.0
C1091 C 0.62151 0.27939 0.67138 0.0
C1092 C 0.65544 0.30812 0.66051 0.0
H1093 H 0.60807 0.27574 0.67912 0.0
H1094 H 0.66983 0.32722 0.65965 0.0
H1095 H 0.67469 0.39507 0.69232 0.0
H1096 H 0.59725 0.36134 0.70424 0.0
C1097 C 0.58124 0.30798 0.69571 0.0
C1098 C 0.5991 0.37865 0.66084 0.0
C1099 C 0.67683 0.2959 0.7052 0.0
C1100 C 0.69345 0.37246 0.67209 0.0
H1101 H 0.54226 0.36583 0.66432 0.0
H1102 H 0.53206 0.32675 0.68348 0.0
H1103 H 0.58971 0.26443 0.71604 0.0
H1104 H 0.64234 0.25764 0.721 0.0
H1105 H 0.73366 0.30572 0.70026 0.0
H1106 H 0.74311 0.34751 0.68195 0.0
H1107 H 0.68474 0.41966 0.65313 0.0
H1108 H 0.63261 0.4224 0.64679 0.0
H1109 H 0.6748 0.43468 0.70865 0.0
H1110 H 0.59618 0.40059 0.72067 0.0
H1111 H 0.6671 0.28998 0.64236 0.0
H1112 H 0.60583 0.23684 0.66243 0.0
C1113 C 0.88617 0.30983 0.92439 0.0
C1114 C 0.89102 0.27692 0.92399 0.0
C1115 C 0.90569 0.26953 0.93449 0.0
C1116 C 0.90888 0.29819 0.94069 0.0
N1117 N 0.89659 0.32337 0.93496 0.0
Co1118 Co 0.89775 0.3697 0.94031 0.0
N1119 N 0.92252 0.35959 0.9548 0.0
C1120 C 0.9309 0.33004 0.95851 0.0
C1121 C 0.94773 0.33051 0.96878 0.0
C1122 C 0.95027 0.36224 0.97185 0.0
C1123 C 0.9347 0.37941 0.96326 0.0
N1124 N 0.89982 0.41625 0.94534 0.0
C1125 C 0.91476 0.43087 0.95444 0.0
C1126 C 0.91066 0.46394 0.9545 0.0
C1127 C 0.89269 0.4705 0.94506 0.0
C1128 C 0.88684 0.44122 0.93978 0.0
N1129 N 0.87245 0.37959 0.92598 0.0
C1130 C 0.86118 0.40847 0.92324 0.0
C1131 C 0.84568 0.40826 0.91253 0.0
C1132 C 0.84741 0.37754 0.90805 0.0
C1133 C 0.86387 0.3606 0.91636 0.0
N1134 N 0.86572 0.36323 0.95161 0.0
C1135 C 0.82316 0.357 0.96934 0.0
C1136 C 0.82536 0.38435 0.9618 0.0
C1137 C 0.84643 0.38684 0.95304 0.0
C1138 C 0.84192 0.33219 0.96749 0.0
C1139 C 0.86283 0.33577 0.95866 0.0
N1140 N 0.92953 0.37623 0.92918 0.0
C1141 C 0.95114 0.40469 0.91209 0.0
C1142 C 0.97376 0.38428 0.9126 0.0
C1143 C 0.97399 0.36007 0.92175 0.0
C1144 C 0.95178 0.35641 0.92984 0.0
C1145 C 0.92956 0.40044 0.92045 0.0
H1146 H 0.95292 0.33724 0.93649 0.0
H1147 H 0.91294 0.41678 0.91956 0.0
H1148 H 0.84673 0.40834 0.94768 0.0
H1149 H 0.87659 0.31615 0.95791 0.0
C1150 C 0.9243 0.30256 0.95159 0.0
C1151 C 0.87227 0.32721 0.91432 0.0
C1152 C 0.93266 0.4145 0.96336 0.0
C1153 C 0.86892 0.43625 0.92975 0.0
H1154 H 0.88502 0.26011 0.91673 0.0
H1155 H 0.91371 0.24621 0.93712 0.0
H1156 H 0.95751 0.31024 0.97331 0.0
H1157 H 0.96252 0.37167 0.97947 0.0
H1158 H 0.91965 0.48149 0.96077 0.0
H1159 H 0.88479 0.49384 0.94237 0.0
H1160 H 0.8356 0.42848 0.9081 0.0
H1161 H 0.83842 0.36904 0.89939 0.0
H1162 H 0.81089 0.40393 0.96267 0.0
H1163 H 0.84103 0.31045 0.9731 0.0
H1164 H 0.94964 0.4235 0.90508 0.0
H1165 H 0.99119 0.34394 0.9227 0.0
C1166 C 0.91766 0.63734 0.1703 0.0
C1167 C 0.94586 0.63955 0.17039 0.0
C1168 C 0.95259 0.65808 0.18052 0.0
C1169 C 0.92819 0.66608 0.18597 0.0
N1170 N 0.90631 0.65304 0.18015 0.0
Co1171 Co 0.86683 0.66089 0.184 0.0
N1172 N 0.87634 0.69248 0.19756 0.0
C1173 C 0.90162 0.70089 0.20145 0.0
C1174 C 0.90169 0.72246 0.21119 0.0
C1175 C 0.87486 0.72785 0.21381 0.0
C1176 C 0.85993 0.70908 0.20549 0.0
N1177 N 0.82732 0.66935 0.18756 0.0
C1178 C 0.81556 0.6887 0.19627 0.0
C1179 C 0.78731 0.68714 0.1957 0.0
C1180 C 0.781 0.66596 0.18635 0.0
C1181 C 0.80562 0.65578 0.18176 0.0
N1182 N 0.85743 0.62887 0.17059 0.0
C1183 C 0.83236 0.61807 0.16743 0.0
C1184 C 0.83242 0.59728 0.15741 0.0
C1185 C 0.85906 0.59523 0.15379 0.0
C1186 C 0.87367 0.61499 0.16184 0.0
N1187 N 0.867 0.62576 0.19682 0.0
C1188 C 0.86583 0.57914 0.21621 0.0
C1189 C 0.84399 0.58255 0.2079 0.0
C1190 C 0.84507 0.60561 0.19831 0.0
C1191 C 0.88849 0.59896 0.21447 0.0
C1192 C 0.88863 0.62186 0.20485 0.0
N1193 N 0.86671 0.69584 0.17126 0.0
C1194 C 0.84827 0.71964 0.15231 0.0
C1195 C 0.86948 0.7421 0.15187 0.0
C1196 C 0.88872 0.74162 0.16155 0.0
C1197 C 0.8869 0.71861 0.17109 0.0
C1198 C 0.84727 0.69692 0.16201 0.0
H1199 H 0.90233 0.71938 0.17812 0.0
H1200 H 0.8309 0.68004 0.16172 0.0
H1201 H 0.82778 0.60678 0.19232 0.0
H1202 H 0.90637 0.63639 0.20425 0.0
C1203 C 0.92493 0.68809 0.19579 0.0
C1204 C 0.90244 0.62214 0.16018 0.0
C1205 C 0.83025 0.70734 0.20571 0.0
C1206 C 0.80902 0.63178 0.17269 0.0
H1207 H 0.95997 0.62976 0.16357 0.0
H1208 H 0.97275 0.66604 0.18323 0.0
H1209 H 0.91916 0.73282 0.2159 0.0
H1210 H 0.86714 0.74355 0.2211 0.0
H1211 H 0.77271 0.69936 0.20165 0.0
H1212 H 0.76088 0.65817 0.1835 0.0
H1213 H 0.815 0.58649 0.1528 0.0
H1214 H 0.86672 0.5819 0.14579 0.0
H1215 H 0.82612 0.56738 0.20872 0.0
H1216 H 0.90588 0.59744 0.22071 0.0
H1217 H 0.83291 0.71891 0.14501 0.0
H1218 H 0.90524 0.75892 0.16178 0.0
C1219 C 0.61687 0.6921 0.42297 0.0
C1220 C 0.61248 0.7251 0.42257 0.0
C1221 C 0.59783 0.73275 0.43304 0.0
C1222 C 0.59419 0.70414 0.43923 0.0
N1223 N 0.60617 0.67874 0.4335 0.0
Co1224 Co 0.60444 0.63243 0.43883 0.0
N1225 N 0.57974 0.64299 0.45329 0.0
C1226 C 0.57147 0.67265 0.45693 0.0
C1227 C 0.55461 0.67245 0.46719 0.0
C1228 C 0.55196 0.6408 0.47034 0.0
C1229 C 0.56751 0.62341 0.4618 0.0
N1230 N 0.60195 0.58593 0.44387 0.0
C1231 C 0.58711 0.57163 0.45307 0.0
C1232 C 0.59096 0.53851 0.4532 0.0
C1233 C 0.60867 0.5316 0.44369 0.0
C1234 C 0.61465 0.56074 0.43832 0.0
N1235 N 0.62962 0.62207 0.4245 0.0
C1236 C 0.64044 0.59298 0.4217 0.0
C1237 C 0.65596 0.59297 0.41099 0.0
C1238 C 0.65469 0.62377 0.40658 0.0
C1239 C 0.63847 0.64094 0.41491 0.0
N1240 N 0.63646 0.63837 0.45015 0.0
C1241 C 0.6781 0.64291 0.46836 0.0
C1242 C 0.67629 0.61627 0.46043 0.0
C1243 C 0.65569 0.61464 0.45142 0.0
C1244 C 0.65965 0.66807 0.46658 0.0
C1245 C 0.6392 0.66534 0.45748 0.0
N1246 N 0.57258 0.62634 0.4277 0.0
C1247 C 0.5502 0.5974 0.41095 0.0
C1248 C 0.52769 0.61796 0.41153 0.0
C1249 C 0.52802 0.64268 0.42046 0.0
C1250 C 0.55055 0.64652 0.42834 0.0
C1251 C 0.57211 0.60184 0.4191 0.0
H1252 H 0.5498 0.66604 0.43485 0.0
H1253 H 0.58859 0.58531 0.41819 0.0
H1254 H 0.65557 0.59361 0.44577 0.0
H1255 H 0.62559 0.68513 0.45679 0.0
C1256 C 0.57849 0.70004 0.45005 0.0
C1257 C 0.63051 0.67446 0.41291 0.0
C1258 C 0.56958 0.58835 0.46204 0.0
C1259 C 0.63248 0.56533 0.42823 0.0
H1260 H 0.61874 0.74179 0.41531 0.0
H1261 H 0.59007 0.75622 0.43565 0.0
H1262 H 0.54497 0.69286 0.47169 0.0
H1263 H 0.53969 0.63156 0.47798 0.0
H1264 H 0.582 0.52115 0.45956 0.0
H1265 H 0.61637 0.50814 0.44104 0.0
H1266 H 0.66578 0.57261 0.40655 0.0
H1267 H 0.66383 0.6322 0.39794 0.0
H1268 H 0.69062 0.59653 0.46122 0.0
H1269 H 0.66033 0.68933 0.47247 0.0
H1270 H 0.5513 0.57824 0.40407 0.0
H1271 H 0.51096 0.65903 0.42143 0.0
C1272 C 0.35964 0.28926 0.18383 0.0
C1273 C 0.38113 0.26751 0.18404 0.0
C1274 C 0.39682 0.27525 0.19417 0.0
C1275 C 0.38425 0.30133 0.19951 0.0
N1276 N 0.36103 0.31025 0.1936 0.0
Co1277 Co 0.33857 0.34969 0.19715 0.0
N1278 N 0.36371 0.36363 0.21101 0.0
C1279 C 0.38572 0.34745 0.21534 0.0
C1280 C 0.3984 0.36217 0.22527 0.0
C1281 C 0.38337 0.38916 0.22756 0.0
C1282 C 0.36229 0.38933 0.21886 0.0
N1283 N 0.31684 0.38987 0.20022 0.0
C1284 C 0.32048 0.41384 0.20874 0.0
C1285 C 0.30057 0.43741 0.20761 0.0
C1286 C 0.28373 0.42798 0.19809 0.0
C1287 C 0.29422 0.3993 0.19395 0.0
N1288 N 0.31287 0.33506 0.18366 0.0
C1289 C 0.28902 0.34899 0.18037 0.0
C1290 C 0.27609 0.3338 0.1706 0.0
C1291 C 0.29297 0.30907 0.1673 0.0
C1292 C 0.31537 0.31079 0.17523 0.0
N1293 N 0.31651 0.32597 0.20982 0.0
C1294 C 0.28588 0.29424 0.22854 0.0
C1295 C 0.27364 0.31642 0.22045 0.0
C1296 C 0.28918 0.33184 0.21124 0.0
C1297 C 0.31357 0.28775 0.22693 0.0
C1298 C 0.32833 0.30367 0.2176 0.0
N1299 N 0.36058 0.37293 0.18446 0.0
C1300 C 0.36382 0.39484 0.1635 0.0
C1301 C 0.39215 0.39199 0.16378 0.0
C1302 C 0.40453 0.38232 0.17497 0.0
C1303 C 0.38846 0.37299 0.18515 0.0
C1304 C 0.34852 0.38585 0.17399 0.0
H1305 H 0.39904 0.36448 0.19323 0.0
H1306 H 0.32693 0.38819 0.17323 0.0
H1307 H 0.27861 0.34869 0.20552 0.0
H1308 H 0.34931 0.29762 0.21696 0.0
C1309 C 0.39457 0.31913 0.20957 0.0
C1310 C 0.33942 0.29049 0.17376 0.0
C1311 C 0.34141 0.41438 0.2185 0.0
C1312 C 0.28181 0.37916 0.18512 0.0
H1313 H 0.38561 0.24866 0.17734 0.0
H1314 H 0.41576 0.26404 0.19701 0.0
H1315 H 0.41645 0.35425 0.23024 0.0
H1316 H 0.38745 0.40673 0.23484 0.0
H1317 H 0.29803 0.4588 0.21329 0.0
H1318 H 0.26546 0.44003 0.19487 0.0
H1319 H 0.25747 0.34101 0.16593 0.0
H1320 H 0.28978 0.29251 0.15959 0.0
H1321 H 0.25227 0.3225 0.22139 0.0
H1322 H 0.3239 0.27034 0.23282 0.0
H1323 H 0.35348 0.40308 0.15509 0.0
H1324 H 0.42648 0.38004 0.17563 0.0
C1325 C 0.38915 0.58368 0.92927 0.0
C1326 C 0.37562 0.56588 0.92018 0.0
C1327 C 0.37855 0.53428 0.92344 0.0
C1328 C 0.39363 0.53463 0.93428 0.0
N1329 N 0.40005 0.56458 0.9383 0.0
Co1330 Co 0.42357 0.57628 0.95305 0.0
N1331 N 0.43126 0.52977 0.95684 0.0
C1332 C 0.42118 0.50381 0.95071 0.0
C1333 C 0.42999 0.47498 0.95545 0.0
C1334 C 0.44661 0.4829 0.96525 0.0
C1335 C 0.44692 0.51628 0.96595 0.0
N1336 N 0.44756 0.58806 0.96762 0.0
C1337 C 0.46196 0.5691 0.97561 0.0
C1338 C 0.47586 0.58724 0.9845 0.0
C1339 C 0.4702 0.61873 0.98202 0.0
C1340 C 0.45318 0.61808 0.97182 0.0
N1341 N 0.41565 0.62274 0.94934 0.0
C1342 C 0.42403 0.64865 0.956 0.0
C1343 C 0.41626 0.67749 0.95089 0.0
C1344 C 0.40247 0.6696 0.9402 0.0
C1345 C 0.40261 0.63623 0.93942 0.0
N1346 N 0.39118 0.5747 0.96437 0.0
C1347 C 0.34286 0.57482 0.97889 0.0
C1348 C 0.36232 0.59919 0.9802 0.0
C1349 C 0.38617 0.59854 0.97298 0.0
C1350 C 0.34859 0.5498 0.97053 0.0
C1351 C 0.37255 0.55023 0.96345 0.0
N1352 N 0.45539 0.5781 0.94157 0.0
C1353 C 0.4901 0.60955 0.93108 0.0
C1354 C 0.49295 0.58599 0.92177 0.0
C1355 C 0.47834 0.55734 0.92319 0.0
C1356 C 0.45994 0.55388 0.93309 0.0
C1357 C 0.47151 0.60499 0.94091 0.0
H1358 H 0.4489 0.53184 0.93341 0.0
H1359 H 0.46972 0.62404 0.94759 0.0
H1360 H 0.40003 0.61784 0.97445 0.0
H1361 H 0.37531 0.53054 0.95724 0.0
C1362 C 0.40397 0.50734 0.94032 0.0
C1363 C 0.392 0.61855 0.92865 0.0
C1364 C 0.46256 0.53396 0.97538 0.0
C1365 C 0.44166 0.6452 0.96619 0.0
H1366 H 0.3653 0.57484 0.91189 0.0
H1367 H 0.37142 0.51349 0.91826 0.0
H1368 H 0.42505 0.45105 0.95213 0.0
H1369 H 0.45738 0.46599 0.97119 0.0
H1370 H 0.48858 0.57862 0.9921 0.0
H1371 H 0.47742 0.6396 0.98712 0.0
H1372 H 0.42114 0.70143 0.95422 0.0
H1373 H 0.39415 0.68657 0.9335 0.0
H1374 H 0.35896 0.61919 0.98654 0.0
H1375 H 0.33464 0.5298 0.9694 0.0
H1376 H 0.5012 0.63204 0.93052 0.0
H1377 H 0.48057 0.53784 0.91651 0.0
C1378 C 0.14429 0.71496 0.68468 0.0
C1379 C 0.12481 0.73909 0.68548 0.0
C1380 C 0.1098 0.73293 0.696 0.0
C1381 C 0.12094 0.70552 0.701 0.0
N1382 N 0.14262 0.69423 0.69452 0.0
Co1383 Co 0.16276 0.65295 0.69768 0.0
N1384 N 0.13921 0.64229 0.71256 0.0
C1385 C 0.11964 0.66124 0.71761 0.0
C1386 C 0.1084 0.64908 0.72839 0.0
C1387 C 0.12178 0.6208 0.73046 0.0
C1388 C 0.1403 0.6171 0.72068 0.0
N1389 N 0.18178 0.61076 0.70031 0.0
C1390 C 0.1777 0.58747 0.70906 0.0
C1391 C 0.19459 0.56116 0.70703 0.0
C1392 C 0.21031 0.56839 0.69683 0.0
C1393 C 0.20196 0.59841 0.69314 0.0
N1394 N 0.18732 0.66455 0.68328 0.0
C1395 C 0.20928 0.6478 0.67927 0.0
C1396 C 0.22181 0.66116 0.66901 0.0
C1397 C 0.20672 0.68779 0.66617 0.0
C1398 C 0.18575 0.68917 0.67492 0.0
N1399 N 0.18843 0.67465 0.70936 0.0
C1400 C 0.22301 0.70108 0.72779 0.0
C1401 C 0.23255 0.67766 0.71946 0.0
C1402 C 0.21505 0.6649 0.71036 0.0
C1403 C 0.19634 0.71209 0.72635 0.0
C1404 C 0.17962 0.69883 0.71712 0.0
N1405 N 0.13702 0.63153 0.68603 0.0
C1406 C 0.12748 0.61027 0.66536 0.0
C1407 C 0.09943 0.61346 0.66736 0.0
C1408 C 0.09065 0.62293 0.6793 0.0
C1409 C 0.10959 0.63197 0.68838 0.0
C1410 C 0.14578 0.61881 0.67485 0.0
H1411 H 0.10141 0.64031 0.69707 0.0
H1412 H 0.16693 0.61609 0.67275 0.0
H1413 H 0.2234 0.64676 0.70442 0.0
H1414 H 0.15952 0.70826 0.71662 0.0
C1415 C 0.11149 0.68967 0.71171 0.0
C1416 C 0.16338 0.71229 0.67421 0.0
C1417 C 0.15877 0.58957 0.71965 0.0
C1418 C 0.21445 0.6169 0.68382 0.0
H1419 H 0.12152 0.75877 0.67898 0.0
H1420 H 0.09251 0.74646 0.69946 0.0
H1421 H 0.09243 0.65956 0.73409 0.0
H1422 H 0.11837 0.60491 0.73835 0.0
H1423 H 0.19581 0.53921 0.71247 0.0
H1424 H 0.22641 0.55387 0.69281 0.0
H1425 H 0.23878 0.65153 0.6637 0.0
H1426 H 0.21008 0.70341 0.65819 0.0
H1427 H 0.25314 0.66847 0.72019 0.0
H1428 H 0.18827 0.73084 0.73238 0.0
H1429 H 0.13548 0.60263 0.65636 0.0
H1430 H 0.06917 0.62437 0.68157 0.0
C1431 C 0.1129 0.42649 0.42977 0.0
C1432 C 0.12652 0.44531 0.42104 0.0
C1433 C 0.12359 0.47651 0.42485 0.0
C1434 C 0.10845 0.47493 0.43567 0.0
N1435 N 0.10189 0.44455 0.4391 0.0
Co1436 Co 0.07915 0.43118 0.45389 0.0
N1437 N 0.07054 0.47716 0.4582 0.0
C1438 C 0.07931 0.50377 0.45207 0.0
C1439 C 0.06955 0.53198 0.45699 0.0
C1440 C 0.0535 0.52292 0.46685 0.0
C1441 C 0.05453 0.48955 0.46742 0.0
N1442 N 0.05668 0.41776 0.46875 0.0
C1443 C 0.04232 0.43575 0.47709 0.0
C1444 C 0.03007 0.41671 0.48621 0.0
C1445 C 0.03674 0.38561 0.4835 0.0
C1446 C 0.05271 0.38738 0.47296 0.0
N1447 N 0.08719 0.38519 0.44936 0.0
C1448 C 0.07901 0.35854 0.45562 0.0
C1449 C 0.0862 0.3303 0.44986 0.0
C1450 C 0.09931 0.33941 0.43912 0.0
C1451 C 0.09943 0.37283 0.439 0.0
N1452 N 0.11223 0.43266 0.46477 0.0
C1453 C 0.16132 0.43309 0.4787 0.0
C1454 C 0.14413 0.40627 0.47877 0.0
C1455 C 0.11986 0.40667 0.4719 0.0
C1456 C 0.15298 0.46007 0.47187 0.0
C1457 C 0.12869 0.45932 0.46505 0.0
N1458 N 0.04662 0.42949 0.44291 0.0
C1459 C 0.00912 0.39923 0.43416 0.0
C1460 C 0.0063 0.42148 0.42439 0.0
C1461 C 0.02275 0.44893 0.42458 0.0
C1462 C 0.04251 0.45251 0.4339 0.0
C1463 C 0.02915 0.4038 0.44332 0.0
H1464 H 0.05493 0.4735 0.43334 0.0
H1465 H 0.03073 0.38577 0.45043 0.0
H1466 H 0.10786 0.38545 0.47242 0.0
H1467 H 0.12389 0.48063 0.46003 0.0
C1468 C 0.09713 0.50145 0.44184 0.0
C1469 C 0.10993 0.39174 0.42852 0.0
C1470 C 0.03989 0.47079 0.47687 0.0
C1471 C 0.06324 0.36088 0.46651 0.0
H1472 H 0.13682 0.43732 0.4126 0.0
H1473 H 0.13056 0.49787 0.41999 0.0
H1474 H 0.07363 0.55624 0.4538 0.0
H1475 H 0.0423 0.53908 0.47293 0.0
H1476 H 0.01758 0.42449 0.49403 0.0
H1477 H 0.03049 0.36422 0.48854 0.0
H1478 H 0.08166 0.30601 0.45288 0.0
H1479 H 0.10719 0.32324 0.43203 0.0
H1480 H 0.14958 0.38463 0.48386 0.0
H1481 H 0.16511 0.48185 0.47177 0.0
H1482 H 0.99632 0.37801 0.43461 0.0
H1483 H 0.02135 0.46692 0.41724 0.0
C1484 C 0.3576 0.70972 0.32149 0.0
C1485 C 0.37817 0.73261 0.3211 0.0
C1486 C 0.39404 0.72528 0.31097 0.0
C1487 C 0.38227 0.69848 0.30577 0.0
N1488 N 0.35938 0.68874 0.31175 0.0
Co1489 Co 0.33758 0.64885 0.30821 0.0
N1490 N 0.36296 0.63551 0.29435 0.0
C1491 C 0.38476 0.65215 0.29004 0.0
C1492 C 0.39766 0.63774 0.2801 0.0
C1493 C 0.38301 0.61048 0.27778 0.0
C1494 C 0.3619 0.60985 0.28646 0.0
N1495 N 0.31648 0.60822 0.30512 0.0
C1496 C 0.32039 0.58449 0.29653 0.0
C1497 C 0.30081 0.56052 0.29762 0.0
C1498 C 0.28391 0.56945 0.30718 0.0
C1499 C 0.29404 0.59824 0.31138 0.0
N1500 N 0.31166 0.6629 0.32176 0.0
C1501 C 0.28822 0.64814 0.32516 0.0
C1502 C 0.27539 0.66249 0.33513 0.0
C1503 C 0.29185 0.68754 0.33847 0.0
C1504 C 0.31388 0.68709 0.33028 0.0
N1505 N 0.31512 0.67201 0.29555 0.0
C1506 C 0.28413 0.70182 0.27649 0.0
C1507 C 0.2721 0.68024 0.28489 0.0
C1508 C 0.28782 0.66577 0.29426 0.0
C1509 C 0.31174 0.70887 0.27801 0.0
C1510 C 0.32667 0.69394 0.28753 0.0
N1511 N 0.35999 0.62609 0.32087 0.0
C1512 C 0.36364 0.60381 0.34176 0.0
C1513 C 0.3919 0.60738 0.34147 0.0
C1514 C 0.4041 0.61765 0.33033 0.0
C1515 C 0.38787 0.62683 0.3202 0.0
C1516 C 0.34819 0.61262 0.3313 0.0
H1517 H 0.39829 0.63588 0.31216 0.0
H1518 H 0.32666 0.60965 0.33205 0.0
H1519 H 0.27743 0.64931 0.30023 0.0
H1520 H 0.34757 0.70039 0.2881 0.0
C1521 C 0.39302 0.68084 0.29575 0.0
C1522 C 0.33761 0.70804 0.33163 0.0
C1523 C 0.34129 0.58449 0.28675 0.0
C1524 C 0.28148 0.61791 0.32032 0.0
H1525 H 0.38173 0.75203 0.32768 0.0
H1526 H 0.4125 0.73736 0.30801 0.0
H1527 H 0.41556 0.64609 0.27513 0.0
H1528 H 0.38731 0.59307 0.27047 0.0
H1529 H 0.29852 0.53918 0.29188 0.0
H1530 H 0.26584 0.55698 0.3104 0.0
H1531 H 0.25721 0.6544 0.33995 0.0
H1532 H 0.2886 0.70328 0.34642 0.0
H1533 H 0.25077 0.67387 0.28406 0.0
H1534 H 0.32187 0.72594 0.27189 0.0
H1535 H 0.35348 0.59515 0.35015 0.0
H1536 H 0.42601 0.6205 0.32969 0.0
C1537 C 0.11047 0.58917 0.07565 0.0
C1538 C 0.1214 0.57141 0.08549 0.0
C1539 C 0.11933 0.53978 0.08218 0.0
C1540 C 0.10705 0.53991 0.07062 0.0
N1541 N 0.10165 0.56977 0.0662 0.0
Co1542 Co 0.08036 0.5808 0.05064 0.0
N1543 N 0.07326 0.53421 0.04683 0.0
C1544 C 0.08315 0.50851 0.05317 0.0
C1545 C 0.07499 0.47949 0.04834 0.0
C1546 C 0.05899 0.48703 0.03828 0.0
C1547 C 0.05833 0.52039 0.03753 0.0
N1548 N 0.05814 0.59204 0.03542 0.0
C1549 C 0.04388 0.57288 0.02744 0.0
C1550 C 0.03072 0.59075 0.01823 0.0
C1551 C 0.03669 0.62228 0.02051 0.0
C1552 C 0.05308 0.62193 0.03093 0.0
N1553 N 0.08804 0.62728 0.05425 0.0
C1554 C 0.08157 0.6528 0.04695 0.0
C1555 C 0.08961 0.68177 0.05188 0.0
C1556 C 0.10146 0.67435 0.06311 0.0
C1557 C 0.09969 0.64117 0.06444 0.0
N1558 N 0.11422 0.57871 0.04025 0.0
C1559 C 0.1636 0.57766 0.02648 0.0
C1560 C 0.14348 0.60061 0.02399 0.0
C1561 C 0.11917 0.60057 0.03086 0.0
C1562 C 0.15823 0.55479 0.03578 0.0
C1563 C 0.13373 0.55577 0.04246 0.0
N1564 N 0.04709 0.58308 0.06112 0.0
C1565 C 0.01143 0.61506 0.07057 0.0
C1566 C 0.00629 0.59096 0.07944 0.0
C1567 C 0.02055 0.56198 0.07837 0.0
C1568 C 0.04063 0.55854 0.06919 0.0
C1569 C 0.03157 0.61049 0.06145 0.0
H1570 H 0.05143 0.53628 0.06912 0.0
H1571 H 0.03496 0.62985 0.05503 0.0
H1572 H 0.10487 0.61868 0.02841 0.0
H1573 H 0.13122 0.53767 0.0494 0.0
C1574 C 0.09828 0.51247 0.06419 0.0
C1575 C 0.1075 0.62424 0.07591 0.0
C1576 C 0.04271 0.53776 0.028 0.0
C1577 C 0.06477 0.64913 0.03646 0.0
H1578 H 0.12925 0.58014 0.09435 0.0
H1579 H 0.12498 0.51909 0.08779 0.0
H1580 H 0.07963 0.45568 0.05189 0.0
H1581 H 0.04866 0.46988 0.03229 0.0
H1582 H 0.01829 0.58189 0.01057 0.0
H1583 H 0.03004 0.64299 0.01514 0.0
H1584 H 0.08608 0.70556 0.04806 0.0
H1585 H 0.10954 0.69151 0.0698 0.0
H1586 H 0.14658 0.61903 0.01694 0.0
H1587 H 0.17278 0.53596 0.03789 0.0
H1588 H 1.00035 0.63761 0.07082 0.0
H1589 H 0.01727 0.54255 0.08498 0.0
C1590 C 0.14319 0.29109 0.82132 0.0
C1591 C 0.12221 0.26866 0.821 0.0
C1592 C 0.10655 0.27598 0.8108 0.0
C1593 C 0.11862 0.30251 0.80556 0.0
N1594 N 0.14149 0.31213 0.81158 0.0
Co1595 Co 0.16292 0.35248 0.80825 0.0
N1596 N 0.13758 0.36594 0.7944 0.0
C1597 C 0.11643 0.3487 0.78979 0.0
C1598 C 0.10406 0.36257 0.77961 0.0
C1599 C 0.11833 0.39019 0.77746 0.0
C1600 C 0.13853 0.3918 0.78659 0.0
N1601 N 0.18353 0.39358 0.80546 0.0
C1602 C 0.17922 0.41781 0.79714 0.0
C1603 C 0.19781 0.44266 0.7988 0.0
C1604 C 0.21486 0.43346 0.80827 0.0
C1605 C 0.20559 0.40381 0.81196 0.0
N1606 N 0.18891 0.33832 0.82169 0.0
C1607 C 0.21244 0.3529 0.82504 0.0
C1608 C 0.22569 0.33783 0.83475 0.0
C1609 C 0.20937 0.31249 0.83794 0.0
C1610 C 0.18693 0.31376 0.83003 0.0
N1611 N 0.18577 0.33014 0.7955 0.0
C1612 C 0.21723 0.30124 0.77639 0.0
C1613 C 0.22854 0.32427 0.7844 0.0
C1614 C 0.21264 0.33816 0.79383 0.0
C1615 C 0.19012 0.29235 0.7783 0.0
C1616 C 0.17492 0.30694 0.78781 0.0
N1617 N 0.14019 0.37442 0.82099 0.0
C1618 C 0.13607 0.39579 0.84199 0.0
C1619 C 0.10781 0.39232 0.84154 0.0
C1620 C 0.09585 0.38249 0.83028 0.0
C1621 C 0.11233 0.37372 0.82016 0.0
C1622 C 0.15176 0.38733 0.83157 0.0
H1623 H 0.10213 0.36502 0.81199 0.0
H1624 H 0.17329 0.39011 0.83248 0.0
H1625 H 0.22258 0.35552 0.79957 0.0
H1626 H 0.15435 0.29924 0.78862 0.0
C1627 C 0.10822 0.31997 0.79544 0.0
C1628 C 0.16326 0.29282 0.83145 0.0
C1629 C 0.15857 0.41784 0.78723 0.0
C1630 C 0.21868 0.38367 0.82058 0.0
H1631 H 0.11804 0.24959 0.82764 0.0
H1632 H 0.08796 0.26415 0.80785 0.0
H1633 H 0.08684 0.35355 0.77431 0.0
H1634 H 0.11442 0.40696 0.7699 0.0
H1635 H 0.19927 0.46488 0.79354 0.0
H1636 H 0.23239 0.44643 0.81181 0.0
H1637 H 0.24408 0.34557 0.83949 0.0
H1638 H 0.21288 0.29587 0.84561 0.0
H1639 H 0.24964 0.33152 0.78344 0.0
H1640 H 0.18038 0.27474 0.77228 0.0
H1641 H 0.14606 0.40411 0.85047 0.0
H1642 H 0.07396 0.37972 0.82951 0.0
C1643 C 0.38952 0.42171 0.57518 0.0
C1644 C 0.37796 0.44012 0.58467 0.0
C1645 C 0.38085 0.47155 0.5812 0.0
C1646 C 0.39418 0.47062 0.5699 0.0
N1647 N 0.39948 0.44045 0.56577 0.0
Co1648 Co 0.42193 0.42815 0.55072 0.0
N1649 N 0.42985 0.47441 0.54665 0.0
C1650 C 0.4199 0.50064 0.55264 0.0
C1651 C 0.42861 0.52924 0.54765 0.0
C1652 C 0.445 0.52085 0.53782 0.0
C1653 C 0.4453 0.48744 0.53737 0.0
N1654 N 0.44527 0.41563 0.53603 0.0
C1655 C 0.46001 0.43413 0.52801 0.0
C1656 C 0.47373 0.41554 0.5192 0.0
C1657 C 0.46761 0.38421 0.52178 0.0
C1658 C 0.45055 0.3854 0.53196 0.0
N1659 N 0.41336 0.38202 0.55455 0.0
C1660 C 0.42025 0.35594 0.54764 0.0
C1661 C 0.41126 0.32742 0.55263 0.0
C1662 C 0.39832 0.33575 0.5635 0.0
C1663 C 0.40044 0.36897 0.56457 0.0
N1664 N 0.3891 0.43019 0.53972 0.0
C1665 C 0.341 0.4313 0.52518 0.0
C1666 C 0.36067 0.4075 0.52334 0.0
C1667 C 0.38448 0.40758 0.53056 0.0
C1668 C 0.34606 0.45494 0.53418 0.0
C1669 C 0.36994 0.45389 0.5413 0.0
N1670 N 0.45424 0.42595 0.56184 0.0
C1671 C 0.48812 0.39388 0.57257 0.0
C1672 C 0.49264 0.4186 0.58125 0.0
C1673 C 0.47934 0.44793 0.57935 0.0
C1674 C 0.46045 0.45109 0.56965 0.0
C1675 C 0.46912 0.39817 0.56291 0.0
H1676 H 0.45039 0.47373 0.56897 0.0
H1677 H 0.46598 0.37828 0.5567 0.0
H1678 H 0.3987 0.38901 0.52856 0.0
H1679 H 0.37219 0.47239 0.54808 0.0
C1680 C 0.40389 0.49757 0.56344 0.0
C1681 C 0.39202 0.38667 0.57575 0.0
C1682 C 0.46097 0.46927 0.5281 0.0
C1683 C 0.43812 0.35869 0.5375 0.0
H1684 H 0.36913 0.43193 0.59341 0.0
H1685 H 0.375 0.49261 0.58655 0.0
H1686 H 0.42399 0.55332 0.5509 0.0
H1687 H 0.45574 0.53748 0.53176 0.0
H1688 H 0.48658 0.42376 0.51158 0.0
H1689 H 0.47446 0.3631 0.51672 0.0
H1690 H 0.41487 0.30335 0.5491 0.0
H1691 H 0.38935 0.31916 0.57016 0.0
H1692 H 0.35782 0.38897 0.5163 0.0
H1693 H 0.33133 0.47382 0.53598 0.0
H1694 H 0.49816 0.3708 0.57354 0.0
H1695 H 0.48291 0.46821 0.58554 0.0
H1696 H 0.15475 0.35664 0.42205 0.0
H1697 H 0.07782 0.39074 0.40779 0.0
H1698 H 0.16183 0.32543 0.40277 0.0
H1699 H 0.08487 0.36016 0.38837 0.0
H1700 H 0.08872 0.2649 0.36611 0.0
H1701 H 0.08419 0.30343 0.38317 0.0
H1702 H 0.16964 0.32704 0.37994 0.0
H1703 H 0.17431 0.28756 0.36294 0.0
C1704 C 0.13964 0.35779 0.41464 0.0
C1705 C 0.11572 0.37576 0.41632 0.0
C1706 C 0.14369 0.34013 0.40359 0.0
C1707 C 0.12383 0.34011 0.39404 0.0
C1708 C 0.10038 0.35926 0.3956 0.0
C1709 C 0.09638 0.37691 0.40665 0.0
C1710 C 0.10656 0.27836 0.36901 0.0
C1711 C 0.13195 0.27292 0.36326 0.0
C1712 C 0.10389 0.30075 0.37871 0.0
C1713 C 0.12655 0.31836 0.38296 0.0
C1714 C 0.15184 0.31365 0.37697 0.0
C1715 C 0.15447 0.29127 0.36717 0.0
H1716 H 0.04198 0.89718 0.6214 0.0
H1717 H 0.97844 0.89595 0.59339 0.0
H1718 H 0.00813 0.90497 0.63782 0.0
H1719 H 0.94437 0.90537 0.60973 0.0
H1720 H 0.88991 0.88254 0.6437 0.0
H1721 H 0.92206 0.88004 0.62636 0.0
H1722 H 0.97769 0.94102 0.64707 0.0
H1723 H 0.94579 0.94205 0.66468 0.0
C1724 C 0.02069 0.89902 0.61877 0.0
C1725 C 0.01275 0.89593 0.60616 0.0
C1726 C 0.00126 0.90378 0.62816 0.0
C1727 C 0.9734 0.90609 0.62515 0.0
C1728 C 0.96554 0.90326 0.61246 0.0
C1729 C 0.98501 0.89794 0.60308 0.0
C1730 C 0.90881 0.89591 0.64442 0.0
C1731 C 0.9154 0.91251 0.65551 0.0
C1732 C 0.92729 0.89453 0.63447 0.0
C1733 C 0.95269 0.9101 0.63529 0.0
C1734 C 0.95865 0.92805 0.64619 0.0
C1735 C 0.94031 0.92896 0.65625 0.0
H1736 H 0.42366 0.62206 0.90782 0.0
H1737 H 0.34715 0.65444 0.92314 0.0
H1738 H 0.41622 0.65516 0.88906 0.0
H1739 H 0.33926 0.68732 0.90436 0.0
H1740 H 0.35496 0.77325 0.87779 0.0
H1741 H 0.35889 0.73623 0.89543 0.0
H1742 H 0.38774 0.66189 0.87036 0.0
H1743 H 0.38366 0.69893 0.85265 0.0
C1744 C 0.40505 0.63596 0.90701 0.0
C1745 C 0.38597 0.63599 0.91681 0.0
C1746 C 0.4007 0.6548 0.8963 0.0
C1747 C 0.3772 0.67406 0.89524 0.0
C1748 C 0.35774 0.67316 0.90496 0.0
C1749 C 0.36209 0.65425 0.91564 0.0
C1750 C 0.36172 0.74887 0.87598 0.0
C1751 C 0.36898 0.73911 0.86377 0.0
C1752 C 0.36398 0.72761 0.88611 0.0
C1753 C 0.37361 0.69606 0.88432 0.0
C1754 C 0.38059 0.68616 0.87209 0.0
C1755 C 0.37827 0.70741 0.86195 0.0
H1756 H 0.52606 0.11196 0.09065 0.0
H1757 H 0.46389 0.10938 0.11932 0.0
H1758 H 0.56118 0.10517 0.10674 0.0
H1759 H 0.49869 0.10374 0.13541 0.0
H1760 H 0.56286 0.07021 0.16174 0.0
H1761 H 0.53098 0.06828 0.14415 0.0
H1762 H 0.58256 0.13373 0.12331 0.0
H1763 H 0.61483 0.13439 0.14072 0.0
C1764 C 0.51999 0.11012 0.10041 0.0
C1765 C 0.49233 0.11104 0.10376 0.0
C1766 C 0.54004 0.10628 0.10963 0.0
C1767 C 0.53281 0.10369 0.12239 0.0
C1768 C 0.50505 0.10479 0.12568 0.0
C1769 C 0.48507 0.10823 0.11647 0.0
C1770 C 0.56749 0.08367 0.15329 0.0
C1771 C 0.59119 0.10243 0.15254 0.0
C1772 C 0.54918 0.08283 0.14325 0.0
C1773 C 0.55396 0.10124 0.13236 0.0
C1774 C 0.57832 0.11896 0.13146 0.0
C1775 C 0.59682 0.11939 0.14143 0.0
H1776 H 0.1416 0.70263 0.15085 0.0
H1777 H 0.11734 0.78336 0.12793 0.0
H1778 H 0.13576 0.66647 0.13273 0.0
H1779 H 0.11067 0.74713 0.10996 0.0
H1780 H 0.06964 0.66031 0.08811 0.0
H1781 H 0.07616 0.69488 0.10657 0.0
H1782 H 0.16018 0.66487 0.10884 0.0
H1783 H 0.15399 0.63148 0.08998 0.0
C1784 C 0.13497 0.71253 0.14194 0.0
C1785 C 0.13001 0.74569 0.14072 0.0
C1786 C 0.1317 0.69195 0.13161 0.0
C1787 C 0.12272 0.7041 0.12 0.0
C1788 C 0.11752 0.73722 0.11883 0.0
C1789 C 0.12144 0.75789 0.12906 0.0
C1790 C 0.08945 0.66105 0.09261 0.0
C1791 C 0.11123 0.64295 0.08776 0.0
C1792 C 0.09317 0.68081 0.10312 0.0
C1793 C 0.11863 0.68237 0.10911 0.0
C1794 C 0.1403 0.66379 0.10443 0.0
C1795 C 0.13673 0.64462 0.09372 0.0
H1796 H 0.46169 0.89088 0.38573 0.0
H1797 H 0.52454 0.88504 0.414 0.0
H1798 H 0.49617 0.89553 0.36944 0.0
H1799 H 0.55937 0.89101 0.39773 0.0
H1800 H 0.61242 0.86302 0.36358 0.0
H1801 H 0.58009 0.86307 0.38098 0.0
H1802 H 0.52884 0.92973 0.36054 0.0
H1803 H 0.56072 0.92828 0.34294 0.0
C1804 C 0.48297 0.89109 0.38845 0.0
C1805 C 0.49049 0.88767 0.4011 0.0
C1806 C 0.50279 0.89397 0.37913 0.0
C1807 C 0.53066 0.89395 0.38224 0.0
C1808 C 0.53815 0.89072 0.39495 0.0
C1809 C 0.51825 0.88739 0.40428 0.0
C1810 C 0.59443 0.87807 0.36295 0.0
C1811 C 0.58895 0.89562 0.35196 0.0
C1812 C 0.5759 0.87818 0.37292 0.0
C1813 C 0.55164 0.89617 0.37216 0.0
C1814 C 0.54693 0.91495 0.36135 0.0
C1815 C 0.56526 0.91441 0.35131 0.0
H1816 H 0.35695 0.30748 0.65055 0.0
H1817 H 0.37989 0.22763 0.62687 0.0
H1818 H 0.36297 0.34454 0.63271 0.0
H1819 H 0.38672 0.26471 0.6092 0.0
H1820 H 0.42971 0.35199 0.58853 0.0
H1821 H 0.42256 0.31751 0.60696 0.0
H1822 H 0.33818 0.34645 0.60828 0.0
H1823 H 0.34503 0.37981 0.58945 0.0
C1824 C 0.36327 0.29797 0.64152 0.0
C1825 C 0.36786 0.26482 0.64 0.0
C1826 C 0.36665 0.31905 0.63137 0.0
C1827 C 0.37536 0.30735 0.61966 0.0
C1828 C 0.38007 0.27423 0.61817 0.0
C1829 C 0.37606 0.25309 0.62822 0.0
C1830 C 0.40971 0.35111 0.59284 0.0
C1831 C 0.38798 0.36876 0.58772 0.0
C1832 C 0.40563 0.33142 0.60332 0.0
C1833 C 0.37986 0.32951 0.60899 0.0
C1834 C 0.35827 0.34783 0.6041 0.0
C1835 C 0.36221 0.36697 0.59342 0.0
H1836 H 0.03707 0.11108 0.88599 0.0
H1837 H 0.97533 0.11588 0.91482 0.0
H1838 H 0.00201 0.10469 0.87006 0.0
H1839 H 0.93994 0.10839 0.89889 0.0
H1840 H 0.88602 0.1355 0.86469 0.0
H1841 H 0.91847 0.13598 0.88203 0.0
H1842 H 0.96949 0.06855 0.86186 0.0
H1843 H 0.93742 0.0693 0.84433 0.0
C1844 C 0.01593 0.11029 0.88891 0.0
C1845 C 0.00887 0.11389 0.90162 0.0
C1846 C 0.9958 0.10641 0.8798 0.0
C1847 C 0.96809 0.10568 0.88318 0.0
C1848 C 0.96105 0.10917 0.89593 0.0
C1849 C 0.98125 0.11342 0.90506 0.0
C1850 C 0.90393 0.1203 0.86412 0.0
C1851 C 0.90935 0.10241 0.85321 0.0
C1852 C 0.92253 0.12053 0.87405 0.0
C1853 C 0.9468 0.10259 0.8733 0.0
C1854 C 0.95136 0.08327 0.86263 0.0
C1855 C 0.93294 0.08344 0.85264 0.0
H1856 H 0.89961 0.67805 0.61197 0.0
H1857 H 0.81326 0.67144 0.60519 0.0
H1858 H 0.891 0.70581 0.63177 0.0
H1859 H 0.8042 0.69742 0.62537 0.0
H1860 H 0.799 0.78003 0.65351 0.0
H1861 H 0.80403 0.74546 0.6357 0.0
H1862 H 0.87542 0.70378 0.65271 0.0
H1863 H 0.87093 0.74047 0.67009 0.0
C1864 C 0.87873 0.68202 0.6149 0.0
C1865 C 0.85711 0.67249 0.60712 0.0
C1866 C 0.87369 0.69768 0.62632 0.0
C1867 C 0.84682 0.70404 0.63033 0.0
C1868 C 0.82517 0.69358 0.62261 0.0
C1869 C 0.83028 0.67829 0.6111 0.0
C1870 C 0.81766 0.76661 0.65288 0.0
C1871 C 0.83907 0.77027 0.66168 0.0
C1872 C 0.81962 0.74478 0.64288 0.0
C1873 C 0.84182 0.72355 0.64198 0.0
C1874 C 0.85966 0.722 0.65229 0.0
C1875 C 0.85767 0.74425 0.66216 0.0
H1876 H 0.07645 0.05492 0.34949 0.0
H1877 H 0.07571 0.15624 0.35834 0.0
H1878 H 0.05078 0.04386 0.36886 0.0
H1879 H 0.05202 0.14546 0.37775 0.0
H1880 H 0.02927 0.03491 0.41116 0.0
H1881 H 0.05392 0.04293 0.39138 0.0
H1882 H 0.00917 0.13126 0.38525 0.0
H1883 H 0.98574 0.12382 0.40515 0.0
C1884 C 0.07093 0.0747 0.35561 0.0
C1885 C 0.07819 0.10635 0.35247 0.0
C1886 C 0.05648 0.06844 0.36673 0.0
C1887 C 0.04919 0.09379 0.37489 0.0
C1888 C 0.0567 0.12536 0.37164 0.0
C1889 C 0.07072 0.13155 0.36055 0.0
C1890 C 0.02498 0.05609 0.40556 0.0
C1891 C 0.00606 0.07909 0.40976 0.0
C1892 C 0.03887 0.06057 0.39419 0.0
C1893 C 0.03377 0.08791 0.38673 0.0
C1894 C 0.01426 0.11039 0.39087 0.0
C1895 C 0.00078 0.10617 0.40228 0.0
H1896 H 0.60836 0.33931 0.11401 0.0
H1897 H 0.66277 0.27388 0.09507 0.0
H1898 H 0.61743 0.312 0.13402 0.0
H1899 H 0.67167 0.24617 0.11501 0.0
H1900 H 0.65283 0.18338 0.15014 0.0
H1901 H 0.64525 0.21175 0.13024 0.0
H1902 H 0.65614 0.30278 0.14921 0.0
H1903 H 0.66407 0.27417 0.16906 0.0
C1904 C 0.6223 0.31909 0.11418 0.0
C1905 C 0.63464 0.30837 0.10304 0.0
C1906 C 0.62757 0.30353 0.12561 0.0
C1907 C 0.64513 0.27678 0.12609 0.0
C1908 C 0.65774 0.2664 0.11492 0.0
C1909 C 0.65273 0.28223 0.10354 0.0
C1910 C 0.65363 0.20945 0.15 0.0
C1911 C 0.6587 0.22669 0.1611 0.0
C1912 C 0.64941 0.22568 0.13863 0.0
C1913 C 0.65003 0.25953 0.13816 0.0
C1914 C 0.65521 0.27673 0.1493 0.0
C1915 C 0.65974 0.26044 0.16064 0.0
H1916 H 0.46707 0.95609 0.91553 0.0
H1917 H 0.49933 0.85991 0.91136 0.0
H1918 H 0.4398 0.94866 0.89655 0.0
H1919 H 0.47221 0.85253 0.89243 0.0
H1920 H 0.40428 0.84004 0.86388 0.0
H1921 H 0.42616 0.84715 0.8844 0.0
H1922 H 0.44836 0.94437 0.87406 0.0
H1923 H 0.4259 0.93711 0.85368 0.0
C1924 C 0.46824 0.93333 0.91059 0.0
C1925 C 0.48538 0.90861 0.91495 0.0
C1926 C 0.45268 0.9291 0.89971 0.0
C1927 C 0.45393 0.90007 0.89294 0.0
C1928 C 0.47046 0.87503 0.89751 0.0
C1929 C 0.48598 0.87924 0.90839 0.0
C1930 C 0.41371 0.86292 0.86613 0.0
C1931 C 0.41358 0.88809 0.85738 0.0
C1932 C 0.42632 0.86698 0.8778 0.0
C1933 C 0.43905 0.89632 0.88086 0.0
C1934 C 0.43843 0.92165 0.87207 0.0
C1935 C 0.42579 0.91753 0.86041 0.0
H1936 H 0.82325 0.30936 0.9042 0.0
H1937 H 0.90969 0.30731 0.89712 0.0
H1938 H 0.81501 0.28108 0.88434 0.0
H1939 H 0.90168 0.27888 0.87726 0.0
H1940 H 0.87702 0.19649 0.85016 0.0
H1941 H 0.88559 0.22578 0.86977 0.0
H1942 H 0.81865 0.28978 0.86132 0.0
H1943 H 0.8103 0.26037 0.84171 0.0
C1944 C 0.84043 0.30307 0.8983 0.0
C1945 C 0.86705 0.3108 0.90206 0.0
C1946 C 0.83577 0.28693 0.88693 0.0
C1947 C 0.85768 0.27775 0.87917 0.0
C1948 C 0.88436 0.28534 0.88305 0.0
C1949 C 0.88897 0.30173 0.89435 0.0
C1950 C 0.86426 0.2169 0.85253 0.0
C1951 C 0.84286 0.22607 0.84455 0.0
C1952 C 0.86919 0.23375 0.86371 0.0
C1953 C 0.85274 0.2601 0.86716 0.0
C1954 C 0.83145 0.26935 0.85906 0.0
C1955 C 0.82668 0.25264 0.84783 0.0
H1956 H 0.42411 0.06754 0.6521 0.0
H1957 H 0.41044 0.16584 0.6408 0.0
H1958 H 0.44818 0.05714 0.63233 0.0
H1959 H 0.43489 0.15592 0.62107 0.0
H1960 H 0.45889 0.11671 0.58212 0.0
H1961 H 0.43188 0.12572 0.60113 0.0
H1962 H 0.49143 0.07318 0.62287 0.0
H1963 H 0.51837 0.06441 0.60404 0.0
C1964 C 0.42629 0.0868 0.64531 0.0
C1965 C 0.41558 0.11737 0.64781 0.0
C1966 C 0.44012 0.081 0.63406 0.0
C1967 C 0.44349 0.10574 0.62514 0.0
C1968 C 0.43236 0.13628 0.62767 0.0
C1969 C 0.41857 0.14205 0.63894 0.0
C1970 C 0.46621 0.10718 0.59097 0.0
C1971 C 0.49066 0.08958 0.59152 0.0
C1972 C 0.45076 0.11233 0.60185 0.0
C1973 C 0.45944 0.09998 0.61349 0.0
C1974 C 0.48387 0.08244 0.61402 0.0
C1975 C 0.4993 0.07736 0.60319 0.0
H1976 H 0.69219 0.7406 0.34025 0.0
H1977 H 0.62491 0.80382 0.34852 0.0
H1978 H 0.68398 0.71131 0.35991 0.0
H1979 H 0.61653 0.77476 0.36819 0.0
H1980 H 0.59296 0.69371 0.39571 0.0
H1981 H 0.60082 0.72177 0.37577 0.0
H1982 H 0.68752 0.72037 0.38284 0.0
H1983 H 0.67942 0.69233 0.40278 0.0
C1984 C 0.6757 0.74818 0.34634 0.0
C1985 C 0.6593 0.77448 0.343 0.0
C1986 C 0.67103 0.73157 0.35759 0.0
C1987 C 0.64964 0.74074 0.36565 0.0
C1988 C 0.633 0.76686 0.36215 0.0
C1989 C 0.63781 0.78358 0.35095 0.0
C1990 C 0.61366 0.69937 0.39292 0.0
C1991 C 0.63563 0.69063 0.40063 0.0
C1992 C 0.61818 0.71556 0.38157 0.0
C1993 C 0.64481 0.72326 0.37769 0.0
C1994 C 0.66679 0.7144 0.38546 0.0
C1995 C 0.66222 0.69843 0.39686 0.0
H1996 H 0.07419 0.94003 0.15394 0.0
H1997 H 0.09149 0.84242 0.14279 0.0
H1998 H 0.05025 0.94919 0.13405 0.0
H1999 H 0.06723 0.85111 0.12292 0.0
H2000 H 0.04286 0.88975 0.0838 0.0
H2001 H 0.06964 0.88165 0.10294 0.0
H2002 H 0.00767 0.93071 0.12449 0.0
H2003 H 0.98097 0.93854 0.10552 0.0
C2004 C 0.07285 0.92066 0.14715 0.0
C2005 C 0.08451 0.89063 0.14974 0.0
C2006 C 0.0591 0.92574 0.13583 0.0
C2007 C 0.05678 0.90082 0.12693 0.0
C2008 C 0.06892 0.87087 0.12951 0.0
C2009 C 0.08261 0.8658 0.14086 0.0
C2010 C 0.03496 0.89869 0.09263 0.0
C2011 C 0.00992 0.91511 0.0931 0.0
C2012 C 0.05028 0.89406 0.10359 0.0
C2013 C 0.04087 0.90578 0.11521 0.0
C2014 C 0.01579 0.92201 0.11565 0.0
C2015 C 1.0005 0.92655 0.10475 0.0
H2016 H 0.64607 0.80913 0.85366 0.0
H2017 H 0.62247 0.72646 0.87566 0.0
H2018 H 0.6389 0.84404 0.87206 0.0
H2019 H 0.61449 0.76141 0.89389 0.0
H2020 H 0.57036 0.84612 0.9158 0.0
H2021 H 0.57856 0.81293 0.8971 0.0
H2022 H 0.66236 0.84427 0.8964 0.0
H2023 H 0.65448 0.87629 0.91549 0.0
C2024 C 0.63935 0.79854 0.86243 0.0
C2025 C 0.63494 0.76521 0.86333 0.0
C2026 C 0.63532 0.8184 0.87291 0.0
C2027 C 0.62611 0.80531 0.88432 0.0
C2028 C 0.62151 0.77202 0.88517 0.0
C2029 C 0.62619 0.75208 0.8748 0.0
C2030 C 0.59048 0.84595 0.9116 0.0
C2031 C 0.61172 0.864 0.91695 0.0
C2032 C 0.59516 0.827 0.90096 0.0
C2033 C 0.62104 0.82624 0.89534 0.0
C2034 C 0.64217 0.84477 0.90053 0.0
C2035 C 0.63765 0.86313 0.91137 0.0
H2036 H 0.50591 0.43902 0.10305 0.0
H2037 H 0.49514 0.33567 0.10343 0.0
H2038 H 0.47133 0.4443 0.1194 0.0
H2039 H 0.45995 0.34129 0.1194 0.0
H2040 H 0.38251 0.36558 0.14084 0.0
H2041 H 0.41262 0.36581 0.12253 0.0
H2042 H 0.46942 0.42649 0.14252 0.0
H2043 H 0.43928 0.42626 0.16085 0.0
C2044 C 0.49619 0.41743 0.10657 0.0
C2045 C 0.50354 0.38687 0.10195 0.0
C2046 C 0.47628 0.42054 0.11588 0.0
C2047 C 0.463 0.39322 0.12064 0.0
C2048 C 0.46963 0.3628 0.11577 0.0
C2049 C 0.48977 0.35963 0.10658 0.0
C2050 C 0.40114 0.37955 0.14121 0.0
C2051 C 0.4086 0.39595 0.15223 0.0
C2052 C 0.41844 0.37943 0.13078 0.0
C2053 C 0.44336 0.39605 0.13115 0.0
C2054 C 0.45024 0.41366 0.14197 0.0
C2055 C 0.4331 0.41341 0.15246 0.0
H2056 H 0.92222 0.11217 0.40695 0.0
H2057 H 0.84752 0.14938 0.42248 0.0
H2058 H 0.91556 0.14484 0.38804 0.0
H2059 H 0.84101 0.18294 0.40382 0.0
H2060 H 0.82718 0.22307 0.36445 0.0
H2061 H 0.83136 0.18462 0.38172 0.0
H2062 H 0.91836 0.20057 0.38255 0.0
H2063 H 0.91418 0.23856 0.36527 0.0
C2064 C 0.90421 0.12714 0.40619 0.0
C2065 C 0.88535 0.12844 0.41606 0.0
C2066 C 0.90049 0.14611 0.39545 0.0
C2067 C 0.87787 0.16686 0.39442 0.0
C2068 C 0.8585 0.16708 0.40419 0.0
C2069 C 0.8622 0.148 0.4149 0.0
C2070 C 0.84718 0.21839 0.36835 0.0
C2071 C 0.87035 0.23385 0.36344 0.0
C2072 C 0.84959 0.19634 0.37826 0.0
C2073 C 0.87522 0.18931 0.38353 0.0
C2074 C 0.89836 0.20477 0.37858 0.0
C2075 C 0.89596 0.22668 0.36866 0.0
H2076 H 0.0525 0.64734 0.66328 0.0
H2077 H 0.10138 0.57052 0.64754 0.0
H2078 H 0.02007 0.64143 0.64622 0.0
H2079 H 0.06924 0.56602 0.63003 0.0
H2080 H 0.01927 0.60812 0.5946 0.0
H2081 H 0.0527 0.60694 0.61177 0.0
H2082 H 0.9875 0.59476 0.63858 0.0
H2083 H 0.95422 0.59567 0.6215 0.0
C2084 C 0.05622 0.62885 0.65632 0.0
C2085 C 0.07951 0.6091 0.65694 0.0
C2086 C 0.03769 0.62571 0.64648 0.0
C2087 C 0.04218 0.60321 0.6369 0.0
C2088 C 0.06547 0.58364 0.63734 0.0
C2089 C 0.08388 0.58636 0.64733 0.0
C2090 C 0.01221 0.60491 0.60416 0.0
C2091 C 0.98425 0.60199 0.60676 0.0
C2092 C 0.03127 0.60401 0.61393 0.0
C2093 C 0.02255 0.60079 0.62643 0.0
C2094 C 0.99465 0.59733 0.629 0.0
C2095 C 0.97569 0.5977 0.61924 0.0
H2096 H 0.65531 0.12485 0.58904 0.0
H2097 H 0.57064 0.15274 0.58839 0.0
H2098 H 0.66238 0.15786 0.60794 0.0
H2099 H 0.57802 0.18691 0.60689 0.0
H2100 H 0.62128 0.2762 0.62718 0.0
H2101 H 0.61426 0.23972 0.60932 0.0
H2102 H 0.63742 0.15897 0.63247 0.0
H2103 H 0.64359 0.1954 0.65049 0.0
C2104 C 0.63818 0.13765 0.59307 0.0
C2105 C 0.61234 0.13593 0.58742 0.0
C2106 C 0.64224 0.1566 0.6038 0.0
C2107 C 0.62072 0.17483 0.6088 0.0
C2108 C 0.5949 0.17307 0.60317 0.0
C2109 C 0.59069 0.15355 0.59265 0.0
C2110 C 0.62493 0.25066 0.62841 0.0
C2111 C 0.63301 0.2385 0.64014 0.0
C2112 C 0.62082 0.22987 0.61825 0.0
C2113 C 0.62532 0.19666 0.61958 0.0
C2114 C 0.63391 0.18452 0.63125 0.0
C2115 C 0.63737 0.20525 0.64151 0.0
H2116 H 0.06052 0.42629 0.84435 0.0
H2117 H 0.11704 0.3654 0.8644 0.0
H2118 H 0.03025 0.42656 0.86265 0.0
H2119 H 0.08678 0.36557 0.88266 0.0
H2120 H 0.00369 0.33619 0.90159 0.0
H2121 H 0.03874 0.34136 0.88553 0.0
H2122 H 0.02932 0.44463 0.88602 0.0
H2123 H 0.99498 0.43981 0.90251 0.0
C2124 C 0.06658 0.41337 0.85274 0.0
C2125 C 0.09107 0.39591 0.85301 0.0
C2126 C 0.04939 0.41364 0.8632 0.0
C2127 C 0.05621 0.396 0.87402 0.0
C2128 C 0.08104 0.37924 0.8744 0.0
C2129 C 0.09841 0.37937 0.86402 0.0
C2130 C 0.00948 0.36009 0.89854 0.0
C2131 C 0.99635 0.38757 0.90336 0.0
C2132 C 0.0295 0.363 0.88929 0.0
C2133 C 0.03662 0.39338 0.88454 0.0
C2134 C 0.02396 0.42091 0.88946 0.0
C2135 C 0.0042 0.41806 0.89885 0.0
H2136 H 0.84927 0.84635 0.08148 0.0
H2137 H 0.92399 0.88433 0.09671 0.0
H2138 H 0.84296 0.81343 0.10034 0.0
H2139 H 0.91755 0.85226 0.11579 0.0
H2140 H 0.91578 0.75977 0.13937 0.0
H2141 H 0.92015 0.79654 0.12169 0.0
H2142 H 0.83332 0.81371 0.12254 0.0
H2143 H 0.82895 0.77658 0.14022 0.0
C2144 C 0.86407 0.84792 0.08901 0.0
C2145 C 0.88715 0.86752 0.08771 0.0
C2146 C 0.86046 0.82925 0.09982 0.0
C2147 C 0.87985 0.82996 0.10958 0.0
C2148 C 0.90247 0.85063 0.10839 0.0
C2149 C 0.90608 0.86921 0.09755 0.0
C2150 C 0.89765 0.77168 0.13589 0.0
C2151 C 0.87202 0.76525 0.14124 0.0
C2152 C 0.90016 0.79286 0.12575 0.0
C2153 C 0.87711 0.80826 0.12068 0.0
C2154 C 0.85147 0.80198 0.12608 0.0
C2155 C 0.84895 0.7807 0.13623 0.0
H2156 H 0.50575 0.56191 0.40226 0.0
H2157 H 0.49726 0.66547 0.40042 0.0
H2158 H 0.4706 0.55616 0.38619 0.0
H2159 H 0.46141 0.6594 0.38478 0.0
H2160 H 0.38273 0.63485 0.36422 0.0
H2161 H 0.41319 0.63519 0.38243 0.0
H2162 H 0.46911 0.57284 0.36269 0.0
H2163 H 0.43868 0.57266 0.34444 0.0
C2164 C 0.4964 0.58344 0.39849 0.0
C2165 C 0.50458 0.61419 0.40259 0.0
C2166 C 0.47617 0.58007 0.38935 0.0
C2167 C 0.46335 0.60732 0.38428 0.0
C2168 C 0.47076 0.63797 0.38867 0.0
C2169 C 0.49126 0.6414 0.39766 0.0
C2170 C 0.40124 0.62064 0.3639 0.0
C2171 C 0.40841 0.60363 0.35298 0.0
C2172 C 0.41872 0.62107 0.37425 0.0
C2173 C 0.44347 0.60412 0.37392 0.0
C2174 C 0.45003 0.5859 0.36321 0.0
C2175 C 0.43275 0.58589 0.35278 0.0
H2176 H 0.33777 0.22712 0.09559 0.0
H2177 H 0.39192 0.16048 0.11403 0.0
H2178 H 0.32966 0.25455 0.11566 0.0
H2179 H 0.38374 0.18758 0.13416 0.0
H2180 H 0.33906 0.22545 0.16964 0.0
H2181 H 0.34621 0.19709 0.14968 0.0
H2182 H 0.35619 0.28837 0.13078 0.0
H2183 H 0.34924 0.31649 0.15078 0.0
C2184 C 0.34792 0.21845 0.10398 0.0
C2185 C 0.3657 0.19203 0.10331 0.0
C2186 C 0.34338 0.23413 0.11543 0.0
C2187 C 0.35618 0.22336 0.1265 0.0
C2188 C 0.37345 0.19635 0.12584 0.0
C2189 C 0.3782 0.18091 0.11434 0.0
C2190 C 0.34301 0.23928 0.1612 0.0
C2191 C 0.34395 0.27303 0.16171 0.0
C2192 C 0.34711 0.22314 0.1498 0.0
C2193 C 0.3518 0.24047 0.13864 0.0
C2194 C 0.35238 0.27432 0.13918 0.0
C2195 C 0.34854 0.29041 0.1506 0.0
H2196 H 0.48078 0.56946 0.89759 0.0
H2197 H 0.54283 0.61602 0.91995 0.0
H2198 H 0.50744 0.57913 0.87871 0.0
H2199 H 0.56952 0.62594 0.90093 0.0
H2200 H 0.59283 0.66865 0.86204 0.0
H2201 H 0.56772 0.65829 0.88155 0.0
H2202 H 0.54966 0.56194 0.86864 0.0
H2203 H 0.57446 0.5728 0.8491 0.0
C2204 C 0.50032 0.58137 0.89851 0.0
C2205 C 0.50976 0.59169 0.91033 0.0
C2206 C 0.51559 0.58697 0.88766 0.0
C2207 C 0.54068 0.60316 0.8883 0.0
C2208 C 0.55013 0.61367 0.9001 0.0
C2209 C 0.53484 0.60798 0.91099 0.0
C2210 C 0.58346 0.64531 0.86347 0.0
C2211 C 0.58537 0.62146 0.8542 0.0
C2212 C 0.56928 0.63927 0.87463 0.0
C2213 C 0.55665 0.60929 0.87665 0.0
C2214 C 0.55885 0.5854 0.86731 0.0
C2215 C 0.57309 0.59146 0.85618 0.0
H2216 H 0.19365 0.76243 0.66512 0.0
H2217 H 0.12257 0.70499 0.6572 0.0
H2218 H 0.18628 0.79298 0.64568 0.0
H2219 H 0.11504 0.73529 0.63776 0.0
H2220 H 0.0948 0.81678 0.61031 0.0
H2221 H 0.10201 0.7891 0.63037 0.0
H2222 H 0.18841 0.78465 0.62272 0.0
H2223 H 0.18096 0.8124 0.60267 0.0
C2224 C 0.17649 0.7564 0.65916 0.0
C2225 C 0.15878 0.73132 0.66253 0.0
C2226 C 0.17229 0.77374 0.64804 0.0
C2227 C 0.15009 0.76657 0.64013 0.0
C2228 C 0.13216 0.74171 0.64368 0.0
C2229 C 0.13648 0.72426 0.65475 0.0
C2230 C 0.11531 0.81006 0.61302 0.0
C2231 C 0.13738 0.81696 0.60508 0.0
C2232 C 0.11945 0.79405 0.62444 0.0
C2233 C 0.1458 0.78462 0.62817 0.0
C2234 C 0.16792 0.79194 0.62023 0.0
C2235 C 0.16371 0.80778 0.60876 0.0
H2236 H 0.9976 0.3644 0.4123 0.0
H2237 H 0.97352 0.46445 0.41193 0.0
H2238 H 0.97052 0.35481 0.3935 0.0
H2239 H 0.94648 0.45484 0.39304 0.0
H2240 H 0.93222 0.43227 0.35087 0.0
H2241 H 0.95555 0.4425 0.37085 0.0
H2242 H 0.92369 0.35311 0.3856 0.0
H2243 H 0.90081 0.34296 0.36551 0.0
C2244 C 0.9861 0.38422 0.40836 0.0
C2245 C 0.98774 0.41521 0.41362 0.0
C2246 C 0.97062 0.37873 0.39755 0.0
C2247 C 0.95645 0.4041 0.39175 0.0
C2248 C 0.95752 0.43492 0.39719 0.0
C2249 C 0.97298 0.4404 0.40801 0.0
C2250 C 0.93027 0.41502 0.35845 0.0
C2251 C 0.91502 0.38686 0.35679 0.0
C2252 C 0.94339 0.42088 0.36989 0.0
C2253 C 0.94146 0.39859 0.37981 0.0
C2254 C 0.92581 0.37055 0.3781 0.0
C2255 C 0.91266 0.36477 0.36668 0.0
H2256 H 0.30956 0.76003 0.34063 0.0
H2257 H 0.37666 0.69683 0.34921 0.0
H2258 H 0.3173 0.78929 0.36033 0.0
H2259 H 0.38464 0.72599 0.36891 0.0
H2260 H 0.4076 0.80769 0.39637 0.0
H2261 H 0.40012 0.77953 0.37642 0.0
H2262 H 0.31339 0.77985 0.38337 0.0
H2263 H 0.32109 0.80783 0.40335 0.0
C2264 C 0.32589 0.75242 0.3468 0.0
C2265 C 0.34236 0.7261 0.34353 0.0
C2266 C 0.33031 0.76905 0.35807 0.0
C2267 C 0.35155 0.75994 0.36622 0.0
C2268 C 0.36828 0.73383 0.3628 0.0
C2269 C 0.36369 0.71706 0.35158 0.0
C2270 C 0.38697 0.80178 0.39356 0.0
C2271 C 0.36488 0.8102 0.40126 0.0
C2272 C 0.38267 0.78554 0.38219 0.0
C2273 C 0.35614 0.77749 0.37827 0.0
C2274 C 0.33403 0.78607 0.38602 0.0
C2275 C 0.33839 0.80204 0.39744 0.0
H2276 H 0.96883 0.54949 0.08961 0.0
H2277 H 0.00232 0.64502 0.0939 0.0
H2278 H 0.94177 0.55715 0.10863 0.0
H2279 H 0.97548 0.65262 0.11292 0.0
H2280 H 0.90738 0.66589 0.14149 0.0
H2281 H 0.92986 0.65895 0.1211 0.0
H2282 H 0.94982 0.56079 0.13106 0.0
H2283 H 0.92673 0.56789 0.15129 0.0
C2284 C 0.97034 0.57216 0.09459 0.0
C2285 C 0.98773 0.59664 0.09025 0.0
C2286 C 0.95491 0.57652 0.10551 0.0
C2287 C 0.95657 0.60542 0.11235 0.0
C2288 C 0.9734 0.63022 0.1078 0.0
C2289 C 0.98877 0.62589 0.09687 0.0
C2290 C 0.9165 0.64286 0.13919 0.0
C2291 C 0.91547 0.61736 0.14779 0.0
C2292 C 0.92946 0.63888 0.1276 0.0
C2293 C 0.94166 0.6093 0.12443 0.0
C2294 C 0.94029 0.58371 0.1331 0.0
C2295 C 0.92729 0.58773 0.14468 0.0
H2296 H 0.15311 0.31864 0.85443 0.0
H2297 H 0.16433 0.22777 0.83557 0.0
H2298 H 0.14625 0.29039 0.87441 0.0
H2299 H 0.15716 0.19928 0.8555 0.0
H2300 H 0.11054 0.1627 0.89103 0.0
H2301 H 0.11903 0.18977 0.87092 0.0
H2302 H 0.17319 0.25642 0.88954 0.0
H2303 H 0.16484 0.22897 0.90958 0.0
C2304 C 0.15407 0.29258 0.85461 0.0
C2305 C 0.15891 0.27527 0.8435 0.0
C2306 C 0.15027 0.27641 0.86602 0.0
C2307 C 0.1511 0.24257 0.86653 0.0
C2308 C 0.15607 0.22532 0.85538 0.0
C2309 C 0.16017 0.24154 0.844 0.0
C2310 C 0.12436 0.18303 0.89075 0.0
C2311 C 0.13681 0.19407 0.90182 0.0
C2312 C 0.12929 0.19846 0.87927 0.0
C2313 C 0.14664 0.22539 0.87865 0.0
C2314 C 0.15941 0.23605 0.88974 0.0
C2315 C 0.15473 0.22036 0.90118 0.0
H2316 H 0.48225 0.43911 0.60511 0.0
H2317 H 0.54121 0.38587 0.58325 0.0
H2318 H 0.50912 0.43013 0.62396 0.0
H2319 H 0.56817 0.37668 0.60225 0.0
H2320 H 0.58976 0.33671 0.64184 0.0
H2321 H 0.56507 0.34671 0.62219 0.0
H2322 H 0.55247 0.44565 0.6334 0.0
H2323 H 0.57677 0.43516 0.65311 0.0
C2324 C 0.50119 0.42589 0.60428 0.0
C2325 C 0.5097 0.41346 0.59263 0.0
C2326 C 0.51658 0.4207 0.61511 0.0
C2327 C 0.54085 0.40284 0.6146 0.0
C2328 C 0.54941 0.3903 0.60296 0.0
C2329 C 0.53399 0.39556 0.59209 0.0
C2330 C 0.5817 0.36054 0.63999 0.0
C2331 C 0.58498 0.38525 0.64883 0.0
C2332 C 0.56778 0.36636 0.62876 0.0
C2333 C 0.5568 0.39697 0.62624 0.0
C2334 C 0.5604 0.42172 0.63513 0.0
C2335 C 0.57437 0.41588 0.64634 0.0
H2336 H 0.30217 0.283 0.2527 0.0
H2337 H 0.23384 0.2703 0.22757 0.0
H2338 H 0.27622 0.25817 0.26963 0.0
H2339 H 0.2075 0.24647 0.24467 0.0
H2340 H 0.17867 0.1762 0.27548 0.0
H2341 H 0.20549 0.19828 0.25802 0.0
H2342 H 0.23721 0.27185 0.28276 0.0
H2343 H 0.21065 0.24936 0.30012 0.0
C2344 C 0.28165 0.27474 0.25077 0.0
C2345 C 0.27008 0.27861 0.23878 0.0
C2346 C 0.26667 0.26085 0.26051 0.0
C2347 C 0.23976 0.25048 0.25851 0.0
C2348 C 0.22826 0.25398 0.24649 0.0
C2349 C 0.24325 0.26795 0.23673 0.0
C2350 C 0.19158 0.19695 0.2771 0.0
C2351 C 0.19313 0.2109 0.28907 0.0
C2352 C 0.20674 0.20972 0.26715 0.0
C2353 C 0.22361 0.23671 0.26903 0.0
C2354 C 0.22484 0.25071 0.28105 0.0
C2355 C 0.20965 0.23798 0.29097 0.0
H2356 H 0.0253 0.95475 0.54633 0.0
H2357 H 0.07923 0.91588 0.51822 0.0
H2358 H 0.99912 0.98232 0.52992 0.0
H2359 H 0.05293 0.94276 0.50171 0.0
H2360 H 0.01528 0.02178 0.47687 0.0
H2361 H 0.04231 0.9955 0.49329 0.0
H2362 H 0.96816 0.96985 0.51281 0.0
H2363 H 0.94141 0.99682 0.49645 0.0
C2364 C 0.0315 0.95229 0.53661 0.0
C2365 C 0.05417 0.93339 0.53346 0.0
C2366 C 0.01645 0.96778 0.5272 0.0
C2367 C 0.02381 0.96467 0.51446 0.0
C2368 C 0.04683 0.946 0.5114 0.0
C2369 C 0.06184 0.93051 0.52081 0.0
C2370 C 0.00492 0.01034 0.48467 0.0
C2371 C 0.9764 0.01111 0.48545 0.0
C2372 C 0.02031 0.99521 0.49405 0.0
C2373 C 0.00744 0.98058 0.50441 0.0
C2374 C 0.97877 0.98125 0.50508 0.0
C2375 C 0.96343 0.99638 0.49569 0.0
H2376 H 0.27681 0.71869 0.72683 0.0
H2377 H 0.20832 0.71115 0.75216 0.0
H2378 H 0.3049 0.7396 0.74399 0.0
H2379 H 0.23608 0.73272 0.76917 0.0
H2380 H 0.30062 0.74227 0.79969 0.0
H2381 H 0.2753 0.71749 0.78234 0.0
H2382 H 0.30733 0.78926 0.7569 0.0
H2383 H 0.33271 0.81367 0.7743 0.0
C2384 C 0.26782 0.72139 0.73606 0.0
C2385 C 0.24035 0.71343 0.73814 0.0
C2386 C 0.2838 0.73359 0.74585 0.0
C2387 C 0.27269 0.73779 0.75792 0.0
C2388 C 0.24532 0.72945 0.76001 0.0
C2389 C 0.22933 0.71745 0.75023 0.0
C2390 C 0.30223 0.75248 0.79035 0.0
C2391 C 0.31832 0.77979 0.78822 0.0
C2392 C 0.28773 0.73849 0.78046 0.0
C2393 C 0.28926 0.75152 0.76827 0.0
C2394 C 0.30597 0.77849 0.76615 0.0
C2395 C 0.32035 0.79254 0.77606 0.0
H2396 H 0.47575 0.04807 0.04655 0.0
H2397 H 0.4212 0.08113 0.01758 0.0
H2398 H 0.50183 0.01762 0.03089 0.0
H2399 H 0.44737 0.05133 1.0018 0.0
H2400 H 0.55926 0.99884 0.99747 0.0
H2401 H 0.53243 0.02747 0.01335 0.0
H2402 H 0.45829 0.99709 0.9949 0.0
H2403 H 0.48539 0.96908 0.97893 0.0
C2404 C 0.4694 0.04866 0.0368 0.0
C2405 C 0.44662 0.06679 0.03319 0.0
C2406 C 0.48437 0.03149 0.02782 0.0
C2407 C 0.47679 0.0321 0.01506 0.0
C2408 C 0.45364 0.05 0.01154 0.0
C2409 C 0.43872 0.06717 0.02053 0.0
C2410 C 0.53722 0.99845 0.99687 0.0
C2411 C 0.52427 0.98201 0.98703 0.0
C2412 C 0.52184 0.01458 0.00598 0.0
C2413 C 0.49316 0.01457 0.00543 0.0
C2414 C 0.4803 0.99795 0.99553 0.0
C2415 C 0.49572 0.9818 0.98643 0.0
H2416 H 0.29999 0.71087 0.25213 0.0
H2417 H 0.23215 0.7257 0.27736 0.0
H2418 H 0.27391 0.73495 0.23504 0.0
H2419 H 0.20573 0.74882 0.26015 0.0
H2420 H 0.17865 0.82051 0.22969 0.0
H2421 H 0.20513 0.79712 0.24694 0.0
H2422 H 0.23422 0.72269 0.2219 0.0
H2423 H 0.2079 0.74658 0.20468 0.0
C2424 C 0.27953 0.71937 0.25403 0.0
C2425 C 0.26816 0.71646 0.26611 0.0
C2426 C 0.26448 0.73282 0.24421 0.0
C2427 C 0.23774 0.74374 0.24623 0.0
C2428 C 0.22638 0.74091 0.25832 0.0
C2429 C 0.2414 0.72736 0.26814 0.0
C2430 C 0.19079 0.79917 0.22796 0.0
C2431 C 0.19151 0.78526 0.21597 0.0
C2432 C 0.20578 0.78568 0.2378 0.0
C2433 C 0.22177 0.75805 0.23578 0.0
C2434 C 0.22239 0.74421 0.22371 0.0
C2435 C 0.20731 0.75769 0.21389 0.0
H2436 H 0.42127 0.91747 0.48774 0.0
H2437 H 0.47471 0.95125 0.45846 0.0
H2438 H 0.44794 0.94708 0.5034 0.0
H2439 H 0.50127 0.9815 0.47399 0.0
H2440 H 0.55957 1.00088 0.50703 0.0
H2441 H 0.5325 0.97198 0.49131 0.0
H2442 H 0.45869 0.00132 0.51031 0.0
H2443 H 0.48605 0.02959 0.5261 0.0
C2444 C 0.43868 0.93149 0.4847 0.0
C2445 C 0.44611 0.93215 0.47198 0.0
C2446 C 0.45387 0.94857 0.49362 0.0
C2447 C 0.47682 0.96667 0.48998 0.0
C2448 C 0.48398 0.96748 0.47716 0.0
C2449 C 0.46874 0.9504 0.46825 0.0
C2450 C 0.53755 1.00098 0.50778 0.0
C2451 C 0.52478 0.01722 0.51772 0.0
C2452 C 0.52202 0.98468 0.49877 0.0
C2453 C 0.49336 0.98431 0.49952 0.0
C2454 C 0.48068 1.00074 0.50952 0.0
C2455 C 0.49625 0.01705 0.51852 0.0
H2456 H 0.21886 0.2383 0.76882 0.0
H2457 H 0.25202 0.3322 0.76039 0.0
H2458 H 0.24447 0.2154 0.7513 0.0
H2459 H 0.27826 0.30912 0.74313 0.0
H2460 H 0.2965 0.2627 0.70481 0.0
H2461 H 0.27021 0.28559 0.72226 0.0
H2462 H 0.29188 0.2039 0.74537 0.0
H2463 H 0.31776 0.18108 0.7278 0.0
C2464 C 0.23162 0.25404 0.76323 0.0
C2465 C 0.23341 0.28706 0.76598 0.0
C2466 C 0.24649 0.24087 0.75328 0.0
C2467 C 0.26337 0.26046 0.74583 0.0
C2468 C 0.26521 0.29347 0.74861 0.0
C2469 C 0.25043 0.30661 0.75859 0.0
C2470 C 0.29546 0.24981 0.71365 0.0
C2471 C 0.30888 0.22029 0.71509 0.0
C2472 C 0.28064 0.26288 0.72363 0.0
C2473 C 0.279 0.24654 0.7352 0.0
C2474 C 0.29249 0.21686 0.73655 0.0
C2475 C 0.30736 0.20388 0.72657 0.0
H2476 H 0.0258 0.05119 0.959 0.0
H2477 H 0.08018 0.08573 0.98778 0.0
H2478 H 0.99972 0.02141 0.97484 0.0
H2479 H 0.05396 0.05665 0.00374 0.0
H2480 H 0.01615 0.97504 0.02707 0.0
H2481 H 0.04319 0.00289 0.01105 0.0
H2482 H 0.969 0.03167 0.99224 0.0
H2483 H 0.94225 0.00313 0.00817 0.0
C2484 C 0.03211 0.05225 0.96874 0.0
C2485 C 0.05485 0.07059 0.97224 0.0
C2486 C 0.01713 0.03548 0.97783 0.0
C2487 C 0.02464 0.03672 0.9906 0.0
C2488 C 0.04775 0.05484 0.994 0.0
C2489 C 0.06269 0.0716 0.98491 0.0
C2490 C 0.00579 0.98742 0.01949 0.0
C2491 C 0.97726 0.98714 0.0188 0.0
C2492 C 0.02118 0.00347 0.01035 0.0
C2493 C 0.00829 0.01954 1.00033 0.0
C2494 C 0.97962 0.0192 0.99971 0.0
C2495 C 0.96427 0.00314 0.00886 0.0
H2496 H 0.73458 0.76683 0.7231 0.0
H2497 H 0.80489 0.78063 0.74694 0.0
H2498 H 0.70905 0.74592 0.74102 0.0
H2499 H 0.77975 0.75864 0.76469 0.0
H2500 H 0.71642 0.75515 0.79645 0.0
H2501 H 0.74242 0.77458 0.77832 0.0
H2502 H 0.70642 0.70011 0.7553 0.0
H2503 H 0.68021 0.68123 0.77348 0.0
C2504 C 0.74464 0.76525 0.73213 0.0
C2505 C 0.7718 0.77544 0.73356 0.0
C2506 C 0.73009 0.75296 0.74238 0.0
C2507 C 0.74231 0.7507 0.75431 0.0
C2508 C 0.76959 0.76042 0.75568 0.0
C2509 C 0.78413 0.77263 0.74544 0.0
C2510 C 0.71429 0.743 0.7875 0.0
C2511 C 0.6966 0.7167 0.78628 0.0
C2512 C 0.72919 0.75393 0.77714 0.0
C2513 C 0.72659 0.73882 0.76535 0.0
C2514 C 0.70871 0.71249 0.76419 0.0
C2515 C 0.69386 0.70155 0.77457 0.0
H2516 H 0.70388 0.2096 0.25232 0.0
H2517 H 0.77134 0.22457 0.22688 0.0
H2518 H 0.73073 0.23205 0.26949 0.0
H2519 H 0.79851 0.24611 0.24416 0.0
H2520 H 0.82631 0.31601 0.27541 0.0
H2521 H 0.79996 0.29365 0.25791 0.0
H2522 H 0.77069 0.21775 0.28222 0.0
H2523 H 0.79692 0.24057 0.29969 0.0
C2524 C 0.72441 0.21781 0.25038 0.0
C2525 C 0.73547 0.21539 0.23823 0.0
C2526 C 0.7399 0.2303 0.26025 0.0
C2527 C 0.76678 0.24073 0.25819 0.0
C2528 C 0.77779 0.23849 0.24603 0.0
C2529 C 0.76232 0.22589 0.23616 0.0
C2530 C 0.81428 0.29448 0.27691 0.0
C2531 C 0.81339 0.27992 0.28878 0.0
C2532 C 0.79932 0.28161 0.26693 0.0
C2533 C 0.78319 0.25398 0.2687 0.0
C2534 C 0.78263 0.2393 0.28061 0.0
C2535 C 0.79767 0.25214 0.29057 0.0
H2536 H 0.78281 0.26393 0.76953 0.0
H2537 H 0.7461 0.17128 0.7622 0.0
H2538 H 0.75796 0.28685 0.7518 0.0
H2539 H 0.72055 0.19445 0.74475 0.0
H2540 H 0.70325 0.23846 0.706 0.0
H2541 H 0.72902 0.21572 0.72365 0.0
H2542 H 0.71134 0.30068 0.74566 0.0
H2543 H 0.68602 0.32332 0.72789 0.0
C2544 C 0.76941 0.24847 0.76414 0.0
C2545 C 0.76645 0.21577 0.76727 0.0
C2546 C 0.75497 0.26168 0.75406 0.0
C2547 C 0.73732 0.24246 0.74686 0.0
C2548 C 0.73424 0.20981 0.75003 0.0
C2549 C 0.74861 0.19663 0.76012 0.0
C2550 C 0.7051 0.25212 0.71464 0.0
C2551 C 0.69294 0.28248 0.71572 0.0
C2552 C 0.71961 0.23914 0.72474 0.0
C2553 C 0.72217 0.25639 0.73606 0.0
C2554 C 0.71002 0.28697 0.73703 0.0
C2555 C 0.69548 0.29988 0.72693 0.0
H2556 H 0.77282 0.78088 0.27774 0.0
H2557 H 0.7055 0.79439 0.25211 0.0
H2558 H 0.80029 0.75903 0.2606 0.0
H2559 H 0.73263 0.77166 0.2351 0.0
H2560 H 0.79853 0.76103 0.20495 0.0
H2561 H 0.7725 0.78508 0.22223 0.0
H2562 H 0.80189 0.71079 0.24725 0.0
H2563 H 0.82804 0.6872 0.22993 0.0
C2564 C 0.76392 0.77924 0.26844 0.0
C2565 C 0.73697 0.78932 0.26629 0.0
C2566 C 0.77955 0.76645 0.25866 0.0
C2567 C 0.76863 0.76362 0.24649 0.0
C2568 C 0.74174 0.77384 0.24433 0.0
C2569 C 0.72608 0.7865 0.25412 0.0
C2570 C 0.79935 0.75008 0.21418 0.0
C2571 C 0.81504 0.72239 0.21622 0.0
C2572 C 0.78443 0.76364 0.22404 0.0
C2573 C 0.78508 0.74977 0.2361 0.0
C2574 C 0.80119 0.72224 0.23811 0.0
C2575 C 0.81603 0.70865 0.22824 0.0
H2576 H 0.52397 0.45109 0.0452 0.0
H2577 H 0.5801 0.41755 0.01696 0.0
H2578 H 0.49859 0.48099 0.02915 0.0
H2579 H 0.55458 0.44672 1.00078 0.0
H2580 H 0.44291 0.49984 0.99525 0.0
H2581 H 0.46889 0.47108 0.01138 0.0
H2582 H 0.54398 0.50045 0.99349 0.0
H2583 H 0.51772 0.5285 0.97725 0.0
C2584 C 0.5308 0.45026 0.03552 0.0
C2585 C 0.55384 0.43218 0.03223 0.0
C2586 C 0.51623 0.4671 0.02632 0.0
C2587 C 0.52445 0.46618 0.01364 0.0
C2588 C 0.54783 0.44829 0.01044 0.0
C2589 C 0.56237 0.43148 0.01966 0.0
C2590 C 0.46497 0.49992 0.99481 0.0
C2591 C 0.47843 0.51616 0.98506 0.0
C2592 C 0.47988 0.48373 0.00407 0.0
C2593 C 0.50857 0.48349 0.00377 0.0
C2594 C 0.52194 0.49979 0.99394 0.0
C2595 C 0.507 0.51596 0.98468 0.0
H2596 H 0.98457 0.47353 0.47853 0.0
H2597 H 0.05794 0.50499 0.49705 0.0
H2598 H 0.95701 0.49984 0.49478 0.0
H2599 H 0.03063 0.53182 0.51326 0.0
H2600 H 0.97337 0.54608 0.54701 0.0
H2601 H 1.0005 0.51895 0.53081 0.0
H2602 H 0.94483 0.55341 0.50235 0.0
H2603 H 0.91767 0.58002 0.51866 0.0
C2604 C 0.99469 0.48629 0.48608 0.0
C2605 C 0.02323 0.48742 0.4866 0.0
C2606 C 0.97901 0.50147 0.49534 0.0
C2607 C 0.99159 0.51798 0.50534 0.0
C2608 C 0.02026 0.51901 0.50579 0.0
C2609 C 0.03591 0.5039 0.4965 0.0
C2610 C 0.96704 0.54766 0.53727 0.0
C2611 C 0.94358 0.56501 0.53401 0.0
C2612 C 0.9826 0.53237 0.52799 0.0
C2613 C 0.97491 0.53404 0.51525 0.0
C2614 C 0.9512 0.55131 0.51206 0.0
C2615 C 0.93572 0.56666 0.52135 0.0
H2616 H 0.06133 0.50245 0.0082 0.0
H2617 H 0.98744 0.53288 0.02655 0.0
H2618 H 0.03455 0.47294 0.99255 0.0
H2619 H 0.96037 0.504 0.01081 0.0
H2620 H 0.92269 0.41999 0.98845 0.0
H2621 H 0.94919 0.44976 0.00414 0.0
H2622 H 0.00407 0.48187 0.97494 0.0
H2623 H 0.97768 0.45146 0.95939 0.0
C2624 C 0.0393 0.50276 0.00883 0.0
C2625 C 0.02635 0.51969 0.01854 0.0
C2626 C 0.02393 0.48612 0.99984 0.0
C2627 C 0.99524 0.48608 1.00039 0.0
C2628 C 0.98238 0.50314 0.01017 0.0
C2629 C 0.99779 0.5198 0.01915 0.0
C2630 C 0.94042 0.43352 0.98546 0.0
C2631 C 0.94831 0.43349 0.97279 0.0
C2632 C 0.95552 0.4507 0.9944 0.0
C2633 C 0.97885 0.46821 0.99083 0.0
C2634 C 0.98649 0.4683 0.97806 0.0
C2635 C 0.97134 0.45114 0.96914 0.0
H2636 H 0.58015 0.58428 0.48709 0.0
H2637 H 0.52475 0.55088 0.45852 0.0
H2638 H 0.55399 0.5554 0.50313 0.0
H2639 H 0.49875 0.52125 0.47442 0.0
H2640 H 0.44203 0.50303 0.50801 0.0
H2641 H 0.46858 0.53144 0.49198 0.0
H2642 H 0.54303 0.50169 0.51035 0.0
H2643 H 0.51619 0.47401 0.52649 0.0
C2644 C 0.56242 0.57048 0.48429 0.0
C2645 C 0.55428 0.56973 0.47166 0.0
C2646 C 0.54752 0.55382 0.49342 0.0
C2647 C 0.5242 0.53602 0.49008 0.0
C2648 C 0.51634 0.53508 0.47736 0.0
C2649 C 0.53126 0.55178 0.46824 0.0
C2650 C 0.46407 0.50277 0.50857 0.0
C2651 C 0.47719 0.48657 0.51842 0.0
C2652 C 0.4793 0.51876 0.49937 0.0
C2653 C 0.50798 0.51882 0.49985 0.0
C2654 C 0.52101 0.50249 0.50977 0.0
C2655 C 0.50574 0.48652 0.51896 0.0
H2656 H 0.09243 0.04991 0.28099 0.0
H2657 H 0.17872 0.06532 0.276 0.0
H2658 H 0.09257 0.01136 0.26373 0.0
H2659 H 0.17887 0.02751 0.25848 0.0
H2660 H 0.17547 0.93519 0.23529 0.0
H2661 H 0.17553 0.97276 0.25289 0.0
H2662 H 0.09591 0.00694 0.24173 0.0
H2663 H 0.09565 0.96865 0.22438 0.0
C2664 C 0.11141 0.04524 0.27612 0.0
C2665 C 0.13556 0.06067 0.27988 0.0
C2666 C 0.1115 0.02321 0.26617 0.0
C2667 C 0.13572 0.01624 0.25959 0.0
C2668 C 0.15989 0.03172 0.2634 0.0
C2669 C 0.15983 0.05351 0.27345 0.0
C2670 C 0.15805 0.95088 0.23657 0.0
C2671 C 0.13554 0.94889 0.22844 0.0
C2672 C 0.15809 0.97254 0.24666 0.0
C2673 C 0.13571 0.99305 0.24882 0.0
C2674 C 0.1133 0.99118 0.24058 0.0
C2675 C 0.11316 0.96928 0.23057 0.0
H2676 H 0.20783 0.8037 0.52984 0.0
H2677 H 0.18983 0.90134 0.51867 0.0
H2678 H 0.24189 0.79996 0.51303 0.0
H2679 H 0.22388 0.89776 0.50205 0.0
H2680 H 0.26674 0.86999 0.46588 0.0
H2681 H 0.23123 0.86865 0.48187 0.0
H2682 H 0.28752 0.82512 0.508 0.0
H2683 H 0.32334 0.82703 0.4921 0.0
C2684 C 0.21105 0.82425 0.52375 0.0
C2685 C 0.19627 0.85286 0.5256 0.0
C2686 C 0.23065 0.8222 0.51421 0.0
C2687 C 0.23552 0.84855 0.50621 0.0
C2688 C 0.22041 0.87693 0.50797 0.0
C2689 C 0.2011 0.87909 0.51756 0.0
C2690 C 0.27165 0.86025 0.47504 0.0
C2691 C 0.29806 0.84894 0.47771 0.0
C2692 C 0.25125 0.8594 0.48419 0.0
C2693 C 0.25663 0.84699 0.49622 0.0
C2694 C 0.28269 0.83457 0.49878 0.0
C2695 C 0.3032 0.83562 0.48964 0.0
H2696 H 0.40704 0.0406 0.72269 0.0
H2697 H 0.32514 0.06935 0.73238 0.0
H2698 H 0.40733 0.00283 0.74023 0.0
H2699 H 0.3255 0.03198 0.75004 0.0
H2700 H 0.32551 0.93852 0.77281 0.0
H2701 H 0.32486 0.97595 0.75516 0.0
H2702 H 0.40876 1.00106 0.76268 0.0
H2703 H 0.40946 0.96323 0.78019 0.0
C2704 C 0.38917 0.03902 0.72863 0.0
C2705 C 0.36607 0.05797 0.72613 0.0
C2706 C 0.38934 0.01742 0.73872 0.0
C2707 C 0.36647 0.01435 0.74661 0.0
C2708 C 0.34333 0.03328 0.74407 0.0
C2709 C 0.34311 0.05475 0.73394 0.0
C2710 C 0.34374 0.95225 0.77075 0.0
C2711 C 0.36754 0.94787 0.7779 0.0
C2712 C 0.34337 0.97375 0.76063 0.0
C2713 C 0.36677 0.99156 0.75745 0.0
C2714 C 0.39051 0.98735 0.76469 0.0
C2715 C 0.39091 0.96571 0.77476 0.0
H2716 H 0.29176 0.19943 0.0299 0.0
H2717 H 0.31015 0.10177 0.01892 0.0
H2718 H 0.25568 0.2016 0.01401 0.0
H2719 H 0.27476 0.10402 0.00297 0.0
H2720 H 0.19087 0.10297 0.9862 0.0
H2721 H 0.22619 0.10438 1.0022 0.0
H2722 H 0.24627 0.20194 0.99153 0.0
H2723 H 0.21025 0.20062 0.97558 0.0
C2724 C 0.28827 0.1786 0.024 0.0
C2725 C 0.30349 0.15029 0.02576 0.0
C2726 C 0.26767 0.17983 0.01489 0.0
C2727 C 0.26205 0.15283 0.00733 0.0
C2728 C 0.27799 0.12497 0.00885 0.0
C2729 C 0.29834 0.12368 0.01797 0.0
C2730 C 0.20287 0.1247 0.98724 0.0
C2731 C 0.19804 0.15155 0.97954 0.0
C2732 C 0.22319 0.1255 0.99639 0.0
C2733 C 0.23939 0.1531 0.99803 0.0
C2734 C 0.23407 0.18036 0.99056 0.0
C2735 C 0.21351 0.17962 0.98142 0.0
H2736 H 0.85399 0.02036 0.7906 0.0
H2737 H 0.8237 0.08911 0.76371 0.0
H2738 H 0.8538 0.9784 0.77439 0.0
H2739 H 0.82291 0.04731 0.74748 0.0
H2740 H 0.85236 0.97363 0.71847 0.0
H2741 H 0.85307 0.01517 0.73479 0.0
H2742 H 0.82342 0.9458 0.76181 0.0
H2743 H 0.8233 0.9043 0.74543 0.0
C2744 C 0.84716 0.02631 0.7812 0.0
C2745 C 0.83885 0.05778 0.77834 0.0
C2746 C 0.84689 0.00234 0.77193 0.0
C2747 C 0.83835 0.00939 0.75959 0.0
C2748 C 0.82999 0.04105 0.75681 0.0
C2749 C 0.83026 0.06496 0.76608 0.0
C2750 C 0.84606 0.96744 0.72792 0.0
C2751 C 0.83785 0.93592 0.73076 0.0
C2752 C 0.84628 0.99119 0.73726 0.0
C2753 C 0.83825 0.98394 0.74965 0.0
C2754 C 0.83007 0.95221 0.75244 0.0
C2755 C 0.82985 0.92847 0.74308 0.0
H2756 H 0.67313 0.09563 0.50165 0.0
H2757 H 0.71258 0.05777 0.53487 0.0
H2758 H 0.71702 0.09675 0.49087 0.0
H2759 H 0.75606 0.05778 0.52386 0.0
H2760 H 0.81908 0.02579 0.49352 0.0
H2761 H 0.77588 0.02744 0.50497 0.0
H2762 H 0.76348 0.1256 0.49292 0.0
H2763 H 0.80682 0.12398 0.48147 0.0
C2764 C 0.69108 0.08777 0.50671 0.0
C2765 C 0.68914 0.07645 0.51915 0.0
C2766 C 0.71621 0.08833 0.5005 0.0
C2767 C 0.73988 0.07723 0.50652 0.0
C2768 C 0.73805 0.06608 0.51894 0.0
C2769 C 0.71305 0.06592 0.52521 0.0
C2770 C 0.80713 0.04772 0.49335 0.0
C2771 C 0.81625 0.07476 0.48663 0.0
C2772 C 0.78253 0.04873 0.49995 0.0
C2773 C 0.76635 0.07663 0.4998 0.0
C2774 C 0.77549 0.10373 0.49311 0.0
C2775 C 0.80034 0.10288 0.48666 0.0
H2776 H 0.6477 0.02142 0.2158 0.0
H2777 H 0.67715 0.09233 0.24204 0.0
H2778 H 0.64753 0.98076 0.23249 0.0
H2779 H 0.67748 0.05182 0.25876 0.0
H2780 H 0.64545 0.98021 0.28825 0.0
H2781 H 0.64608 0.02066 0.27149 0.0
H2782 H 0.67791 0.94951 0.24573 0.0
H2783 H 0.67678 0.90919 0.26253 0.0
C2784 C 0.65434 0.0281 0.22515 0.0
C2785 C 0.66251 0.05978 0.2277 0.0
C2786 C 0.65437 0.00489 0.2347 0.0
C2787 C 0.66248 0.01298 0.247 0.0
C2788 C 0.67077 0.04482 0.24946 0.0
C2789 C 0.67077 0.06796 0.2399 0.0
C2790 C 0.65262 0.97345 0.27899 0.0
C2791 C 0.66115 0.94181 0.27662 0.0
C2792 C 0.65313 0.99654 0.26941 0.0
C2793 C 0.6621 0.98841 0.25724 0.0
C2794 C 0.67058 0.95656 0.25493 0.0
C2795 C 0.67011 0.93352 0.26452 0.0
H2796 H 0.67097 0.90956 0.0031 0.0
H2797 H 0.71242 0.9413 0.96947 0.0
H2798 H 0.71425 0.90809 0.01422 0.0
H2799 H 0.75548 0.94167 0.98081 0.0
H2800 H 0.83224 0.90869 1.00112 0.0
H2801 H 0.78903 0.90697 0.98985 0.0
H2802 H 0.74764 0.94319 0.02279 0.0
H2803 H 0.79042 0.9431 0.03425 0.0
C2804 C 0.68929 0.91622 0.99806 0.0
C2805 C 0.68812 0.92554 0.98537 0.0
C2806 C 0.71412 0.91578 0.0045 0.0
C2807 C 0.73842 0.92486 0.99844 0.0
C2808 C 0.73725 0.93416 0.98575 0.0
C2809 C 0.71245 0.93442 0.97929 0.0
C2810 C 0.81387 0.91587 0.00601 0.0
C2811 C 0.8149 0.92611 0.0186 0.0
C2812 C 0.78911 0.91529 0.99949 0.0
C2813 C 0.76478 0.92503 0.00539 0.0
C2814 C 0.76585 0.93515 0.01798 0.0
C2815 C 0.79053 0.93556 0.02451 0.0
H2816 H 0.61924 0.4121 0.74053 0.0
H2817 H 0.65193 0.48405 0.7154 0.0
H2818 H 0.61899 0.45134 0.75759 0.0
H2819 H 0.65241 0.52304 0.73256 0.0
H2820 H 0.62113 0.59306 0.76269 0.0
H2821 H 0.62061 0.55382 0.74563 0.0
H2822 H 0.65092 0.48094 0.77097 0.0
H2823 H 0.65068 0.51995 0.78813 0.0
C2824 C 0.6263 0.43632 0.73863 0.0
C2825 C 0.63553 0.44493 0.72658 0.0
C2826 C 0.62644 0.45872 0.74845 0.0
C2827 C 0.6357 0.49035 0.74646 0.0
C2828 C 0.64489 0.49898 0.7344 0.0
C2829 C 0.64488 0.47653 0.72459 0.0
C2830 C 0.62742 0.56858 0.76466 0.0
C2831 C 0.63588 0.55965 0.7768 0.0
C2832 C 0.62743 0.54617 0.75484 0.0
C2833 C 0.63576 0.51422 0.75692 0.0
C2834 C 0.64413 0.50526 0.76907 0.0
C2835 C 0.64426 0.52771 0.77888 0.0
H2836 H 0.79061 0.30554 0.97537 0.0
H2837 H 0.80805 0.40383 0.98588 0.0
H2838 H 0.75615 0.30252 0.99197 0.0
H2839 H 0.77341 0.401 1.00225 0.0
H2840 H 0.73093 0.37383 0.03872 0.0
H2841 H 0.76617 0.37318 0.02259 0.0
H2842 H 0.71057 0.32657 0.99695 0.0
H2843 H 0.67505 0.32767 0.01301 0.0
C2844 C 0.78712 0.32644 0.98123 0.0
C2845 C 0.80199 0.35495 0.97929 0.0
C2846 C 0.76726 0.32479 0.99066 0.0
C2847 C 0.76212 0.35149 0.99844 0.0
C2848 C 0.77709 0.37991 0.99651 0.0
C2849 C 0.79673 0.38164 0.98704 0.0
C2850 C 0.72612 0.36357 0.02963 0.0
C2851 C 0.70003 0.35106 0.02715 0.0
C2852 C 0.74635 0.36315 0.02039 0.0
C2853 C 0.74108 0.35004 0.00847 0.0
C2854 C 0.71532 0.33659 0.00608 0.0
C2855 C 0.69499 0.33716 0.01531 0.0
H2856 H 0.90548 0.46276 0.28169 0.0
H2857 H 0.82246 0.43595 0.27329 0.0
H2858 H 0.90519 0.50046 0.26417 0.0
H2859 H 0.82224 0.47327 0.25557 0.0
H2860 H 0.82323 0.566 0.23206 0.0
H2861 H 0.82242 0.52892 0.24984 0.0
H2862 H 0.90556 0.50142 0.24181 0.0
H2863 H 0.90644 0.5389 0.22421 0.0
C2864 C 0.8872 0.46478 0.27604 0.0
C2865 C 0.86403 0.44627 0.27887 0.0
C2866 C 0.88705 0.48634 0.26595 0.0
C2867 C 0.86376 0.48984 0.25834 0.0
C2868 C 0.84044 0.47158 0.26129 0.0
C2869 C 0.84055 0.45014 0.27145 0.0
C2870 C 0.84124 0.55181 0.23403 0.0
C2871 C 0.86493 0.5555 0.22673 0.0
C2872 C 0.84079 0.5305 0.24423 0.0
C2873 C 0.86397 0.5122 0.24735 0.0
C2874 C 0.8875 0.51558 0.2399 0.0
C2875 C 0.888 0.53701 0.22976 0.0
H2876 H 0.71063 0.69327 0.47568 0.0
H2877 H 0.6912 0.59439 0.48449 0.0
H2878 H 0.74357 0.69423 0.49297 0.0
H2879 H 0.72433 0.59518 0.50155 0.0
H2880 H 0.76376 0.61861 0.53916 0.0
H2881 H 0.72999 0.62115 0.52239 0.0
H2882 H 0.78838 0.66878 0.49839 0.0
H2883 H 0.8224 0.66578 0.51507 0.0
C2884 C 0.71337 0.6718 0.48132 0.0
C2885 C 0.6984 0.64373 0.47871 0.0
C2886 C 0.73234 0.67227 0.49114 0.0
C2887 C 0.73646 0.64481 0.49863 0.0
C2888 C 0.7214 0.61683 0.49603 0.0
C2889 C 0.70265 0.61627 0.48617 0.0
C2890 C 0.76949 0.62949 0.53029 0.0
C2891 C 0.7959 0.64178 0.52845 0.0
C2892 C 0.75011 0.631 0.5207 0.0
C2893 C 0.75659 0.64499 0.50905 0.0
C2894 C 0.7827 0.65813 0.50731 0.0
C2895 C 0.80217 0.65646 0.51689 0.0
H2896 H 0.35603 0.52142 0.28874 0.0
H2897 H 0.32601 0.59154 0.26233 0.0
H2898 H 0.35609 0.48035 0.27221 0.0
H2899 H 0.32545 0.55058 0.24577 0.0
H2900 H 0.35552 0.47764 0.21636 0.0
H2901 H 0.3556 0.51883 0.23285 0.0
H2902 H 0.32571 0.44853 0.25946 0.0
H2903 H 0.32625 0.40748 0.24294 0.0
C2904 C 0.34931 0.52785 0.27937 0.0
C2905 C 0.34097 0.55942 0.27674 0.0
C2906 C 0.34918 0.50439 0.26992 0.0
C2907 C 0.34073 0.51207 0.25762 0.0
C2908 C 0.33241 0.54386 0.25506 0.0
C2909 C 0.33255 0.56727 0.26452 0.0
C2910 C 0.34893 0.47123 0.22575 0.0
C2911 C 0.34083 0.4396 0.22844 0.0
C2912 C 0.34883 0.49475 0.23519 0.0
C2913 C 0.34065 0.48708 0.24752 0.0
C2914 C 0.33249 0.45526 0.25013 0.0
C2915 C 0.3326 0.43179 0.24069 0.0
H2916 H 0.29221 0.55678 0.97063 0.0
H2917 H 0.33384 0.59488 0.00318 0.0
H2918 H 0.24951 0.55696 0.98218 0.0
H2919 H 0.29073 0.59684 0.01451 0.0
H2920 H 0.21465 0.56403 0.03559 0.0
H2921 H 0.25757 0.56294 0.02416 0.0
H2922 H 0.21568 0.59213 0.9903 0.0
H2923 H 0.17252 0.59136 1.00155 0.0
C2924 C 0.29231 0.56517 0.98026 0.0
C2925 C 0.31662 0.57563 0.98597 0.0
C2926 C 0.26767 0.56573 0.98684 0.0
C2927 C 0.26655 0.577 0.99929 0.0
C2928 C 0.29082 0.58764 0.00499 0.0
C2929 C 0.31554 0.58691 0.99843 0.0
C2930 C 0.21449 0.56979 0.02566 0.0
C2931 C 0.18999 0.57764 0.01951 0.0
C2932 C 0.23923 0.56964 0.01914 0.0
C2933 C 0.2402 0.57749 0.00629 0.0
C2934 C 0.21573 0.58554 1.00015 0.0
C2935 C 0.19096 0.58553 0.00666 0.0
H2936 H 0.11971 0.46347 0.78263 0.0
H2937 H 0.19809 0.42992 0.76985 0.0
H2938 H 0.11972 0.50487 0.76618 0.0
H2939 H 0.19847 0.47165 0.75353 0.0
H2940 H 0.19992 0.57442 0.73582 0.0
H2941 H 0.20022 0.53288 0.75221 0.0
H2942 H 0.11793 0.5064 0.74221 0.0
H2943 H 0.11796 0.54758 0.72568 0.0
C2944 C 0.13691 0.46506 0.77628 0.0
C2945 C 0.15883 0.44353 0.77742 0.0
C2946 C 0.13692 0.48861 0.76687 0.0
C2947 C 0.15908 0.49146 0.75855 0.0
C2948 C 0.18121 0.4702 0.75985 0.0
C2949 C 0.18099 0.44634 0.76915 0.0
C2950 C 0.18201 0.55954 0.73713 0.0
C2951 C 0.15889 0.56415 0.72956 0.0
C2952 C 0.18217 0.53578 0.74646 0.0
C2953 C 0.15906 0.51645 0.74853 0.0
C2954 C 0.13592 0.52115 0.74094 0.0
C2955 C 0.13593 0.54459 0.73148 0.0
H2956 H 0.17332 0.40508 0.50145 0.0
H2957 H 0.20969 0.46028 0.47135 0.0
H2958 H 0.21708 0.404 0.51232 0.0
H2959 H 0.25313 0.45989 0.48244 0.0
H2960 H 0.31611 0.48229 0.51372 0.0
H2961 H 0.27267 0.48259 0.50248 0.0
H2962 H 0.26412 0.38051 0.50907 0.0
H2963 H 0.30748 0.38026 0.52041 0.0
C2964 C 0.19061 0.41682 0.4971 0.0
C2965 C 0.18786 0.43281 0.48551 0.0
C2966 C 0.21567 0.41624 0.50336 0.0
C2967 C 0.23849 0.43189 0.49823 0.0
C2968 C 0.23579 0.44797 0.48669 0.0
C2969 C 0.21083 0.44829 0.48037 0.0
C2970 C 0.30492 0.45994 0.51277 0.0
C2971 C 0.31516 0.43125 0.51794 0.0
C2972 C 0.28018 0.46007 0.50627 0.0
C2973 C 0.26501 0.43158 0.50492 0.0
C2974 C 0.27528 0.40287 0.51006 0.0
C2975 C 0.30019 0.40267 0.51644 0.0
loop_
_geom_bond_atom_site_label_1
_geom_bond_atom_site_label_2
_geom_bond_distance
_geom_bond_site_symmetry_2
_ccdc_geom_bond_type
C0 C1 1.443 . S
C0 N4 1.376 . S
C0 C38 1.389 . S
C1 C0 1.443 . S
C1 C2 1.340 . S
C1 H41 0.951 . S
C2 C1 1.340 . S
C2 C3 1.439 . S
C2 H42 0.950 . S
C3 C2 1.439 . S
C3 N4 1.374 . S
C3 C37 1.395 . S
N4 C0 1.376 . S
N4 C3 1.374 . S
N4 Co5 2.008 . S
Co5 N4 2.008 . S
Co5 N6 1.995 . S
Co5 N11 2.008 . S
Co5 N16 1.995 . S
Co5 N21 2.282 . S
Co5 N27 2.282 . S
N6 Co5 1.995 . S
N6 C7 1.376 . S
N6 C10 1.383 . S
C7 N6 1.376 . S
C7 C8 1.446 . S
C7 C37 1.391 . S
C8 C7 1.446 . S
C8 C9 1.339 . S
C8 H43 0.949 . S
C9 C8 1.339 . S
C9 C10 1.439 . S
C9 H44 0.950 . S
C10 N6 1.383 . S
C10 C9 1.439 . S
C10 C39 1.392 . S
N11 Co5 2.008 . S
N11 C12 1.376 . S
N11 C15 1.374 . S
C12 N11 1.376 . S
C12 C13 1.443 . S
C12 C39 1.389 . S
C13 C12 1.443 . S
C13 C14 1.340 . S
C13 H45 0.951 . S
C14 C13 1.340 . S
C14 C15 1.439 . S
C14 H46 0.950 . S
C15 N11 1.374 . S
C15 C14 1.439 . S
C15 C40 1.395 . S
N16 Co5 1.995 . S
N16 C17 1.376 . S
N16 C20 1.383 . S
C17 N16 1.376 . S
C17 C18 1.446 . S
C17 C40 1.391 . S
C18 C17 1.446 . S
C18 C19 1.339 . S
C18 H47 0.949 . S
C19 C18 1.339 . S
C19 C20 1.439 . S
C19 H48 0.950 . S
C20 N16 1.383 . S
C20 C19 1.439 . S
C20 C38 1.392 . S
N21 Co5 2.282 . S
N21 C24 1.332 . S
N21 C26 1.332 . S
C22 C23 1.386 . S
C22 C25 1.388 . S
C23 C22 1.386 . S
C23 C24 1.382 . S
C23 H49 0.950 . S
C24 N21 1.332 . S
C24 C23 1.382 . S
C24 H35 0.952 . S
C25 C22 1.388 . S
C25 C26 1.382 . S
C25 H50 0.950 . S
C26 N21 1.332 . S
C26 C25 1.382 . S
C26 H36 0.948 . S
N27 Co5 2.282 . S
N27 C31 1.332 . S
N27 C32 1.332 . S
C28 C29 1.388 . S
C28 C32 1.382 . S
C28 H51 0.950 . S
C29 C28 1.388 . S
C29 C30 1.386 . S
C30 C29 1.386 . S
C30 C31 1.382 . S
C30 H52 0.950 . S
C31 N27 1.332 . S
C31 C30 1.382 . S
C31 H33 0.952 . S
C32 N27 1.332 . S
C32 C28 1.382 . S
C32 H34 0.948 . S
H33 C31 0.952 . S
H34 C32 0.948 . S
H35 C24 0.952 . S
H36 C26 0.948 . S
C37 C3 1.395 . S
C37 C7 1.391 . S
C38 C0 1.389 . S
C38 C20 1.392 . S
C39 C10 1.392 . S
C39 C12 1.389 . S
C40 C15 1.395 . S
C40 C17 1.391 . S
H41 C1 0.951 . S
H42 C2 0.950 . S
H43 C8 0.949 . S
H44 C9 0.950 . S
H45 C13 0.951 . S
H46 C14 0.950 . S
H47 C18 0.949 . S
H48 C19 0.950 . S
H49 C23 0.950 . S
H50 C25 0.950 . S
H51 C28 0.950 . S
H52 C30 0.950 . S
C53 C54 1.443 . S
C53 N57 1.376 . S
C53 C91 1.389 . S
C54 C53 1.443 . S
C54 C55 1.340 . S
C54 H94 0.951 . S
C55 C54 1.340 . S
C55 C56 1.439 . S
C55 H95 0.950 . S
C56 C55 1.439 . S
C56 N57 1.374 . S
C56 C90 1.395 . S
N57 C53 1.376 . S
N57 C56 1.374 . S
N57 Co58 2.008 . S
Co58 N57 2.008 . S
Co58 N59 1.995 . S
Co58 N64 2.008 . S
Co58 N69 1.995 . S
Co58 N74 2.282 . S
Co58 N80 2.282 . S
N59 Co58 1.995 . S
N59 C60 1.376 . S
N59 C63 1.383 . S
C60 N59 1.376 . S
C60 C61 1.446 . S
C60 C90 1.391 . S
C61 C60 1.446 . S
C61 C62 1.339 . S
C61 H96 0.949 . S
C62 C61 1.339 . S
C62 C63 1.439 . S
C62 H97 0.950 . S
C63 N59 1.383 . S
C63 C62 1.439 . S
C63 C92 1.392 . S
N64 Co58 2.008 . S
N64 C65 1.376 . S
N64 C68 1.374 1_565 S
C65 N64 1.376 . S
C65 C66 1.443 1_565 S
C65 C92 1.389 . S
C66 C65 1.443 1_545 S
C66 C67 1.340 . S
C66 H98 0.951 . S
C67 C66 1.340 . S
C67 C68 1.439 . S
C67 H99 0.950 . S
C68 N64 1.374 1_545 S
C68 C67 1.439 . S
C68 C93 1.395 . S
N69 Co58 1.995 . S
N69 C70 1.376 . S
N69 C73 1.383 . S
C70 N69 1.376 . S
C70 C71 1.446 . S
C70 C93 1.391 1_565 S
C71 C70 1.446 . S
C71 C72 1.339 . S
C71 H100 0.949 . S
C72 C71 1.339 . S
C72 C73 1.439 . S
C72 H101 0.950 . S
C73 N69 1.383 . S
C73 C72 1.439 . S
C73 C91 1.392 . S
N74 Co58 2.282 . S
N74 C77 1.332 . S
N74 C79 1.332 . S
C75 C76 1.386 . S
C75 C78 1.388 . S
C76 C75 1.386 . S
C76 C77 1.382 . S
C76 H102 0.950 . S
C77 N74 1.332 . S
C77 C76 1.382 . S
C77 H88 0.952 . S
C78 C75 1.388 . S
C78 C79 1.382 . S
C78 H103 0.950 . S
C79 N74 1.332 . S
C79 C78 1.382 . S
C79 H89 0.948 . S
N80 Co58 2.282 . S
N80 C84 1.332 . S
N80 C85 1.332 . S
C81 C82 1.388 . S
C81 C85 1.382 . S
C81 H104 0.950 . S
C82 C81 1.388 . S
C82 C83 1.386 . S
C83 C82 1.386 . S
C83 C84 1.382 . S
C83 H105 0.950 . S
C84 N80 1.332 . S
C84 C83 1.382 . S
C84 H86 0.952 . S
C85 N80 1.332 . S
C85 C81 1.382 . S
C85 H87 0.948 . S
H86 C84 0.952 . S
H87 C85 0.948 . S
H88 C77 0.952 . S
H89 C79 0.948 . S
C90 C56 1.395 . S
C90 C60 1.391 . S
C91 C53 1.389 . S
C91 C73 1.392 . S
C92 C63 1.392 . S
C92 C65 1.389 . S
C93 C68 1.395 . S
C93 C70 1.391 1_545 S
H94 C54 0.951 . S
H95 C55 0.950 . S
H96 C61 0.949 . S
H97 C62 0.950 . S
H98 C66 0.951 . S
H99 C67 0.950 . S
H100 C71 0.949 . S
H101 C72 0.950 . S
H102 C76 0.950 . S
H103 C78 0.950 . S
H104 C81 0.950 . S
H105 C83 0.950 . S
C106 C107 1.443 . S
C106 N110 1.376 . S
C106 C144 1.389 . S
C107 C106 1.443 . S
C107 C108 1.340 . S
C107 H147 0.951 . S
C108 C107 1.340 . S
C108 C109 1.439 . S
C108 H148 0.950 . S
C109 C108 1.439 . S
C109 N110 1.374 . S
C109 C143 1.395 . S
N110 C106 1.376 . S
N110 C109 1.374 . S
N110 Co111 2.008 . S
Co111 N110 2.008 . S
Co111 N112 1.995 . S
Co111 N117 2.008 . S
Co111 N122 1.995 . S
Co111 N127 2.282 . S
Co111 N133 2.282 . S
N112 Co111 1.995 . S
N112 C113 1.376 . S
N112 C116 1.383 . S
C113 N112 1.376 . S
C113 C114 1.446 . S
C113 C143 1.391 . S
C114 C113 1.446 . S
C114 C115 1.339 . S
C114 H149 0.949 . S
C115 C114 1.339 . S
C115 C116 1.439 . S
C115 H150 0.950 . S
C116 N112 1.383 . S
C116 C115 1.439 . S
C116 C145 1.392 . S
N117 Co111 2.008 . S
N117 C118 1.376 . S
N117 C121 1.374 . S
C118 N117 1.376 . S
C118 C119 1.443 . S
C118 C145 1.389 . S
C119 C118 1.443 . S
C119 C120 1.340 . S
C119 H151 0.951 . S
C120 C119 1.340 . S
C120 C121 1.439 . S
C120 H152 0.950 . S
C121 N117 1.374 . S
C121 C120 1.439 . S
C121 C146 1.395 . S
N122 Co111 1.995 . S
N122 C123 1.376 . S
N122 C126 1.383 . S
C123 N122 1.376 . S
C123 C124 1.446 . S
C123 C146 1.391 . S
C124 C123 1.446 . S
C124 C125 1.339 . S
C124 H153 0.949 . S
C125 C124 1.339 . S
C125 C126 1.439 . S
C125 H154 0.950 . S
C126 N122 1.383 . S
C126 C125 1.439 . S
C126 C144 1.392 . S
N127 Co111 2.282 . S
N127 C130 1.332 . S
N127 C132 1.332 . S
C128 C129 1.386 . S
C128 C131 1.388 . S
C129 C128 1.386 . S
C129 C130 1.382 . S
C129 H155 0.950 . S
C130 N127 1.332 . S
C130 C129 1.382 . S
C130 H141 0.952 . S
C131 C128 1.388 . S
C131 C132 1.382 . S
C131 H156 0.950 . S
C132 N127 1.332 . S
C132 C131 1.382 . S
C132 H142 0.948 . S
N133 Co111 2.282 . S
N133 C137 1.332 . S
N133 C138 1.332 . S
C134 C135 1.388 . S
C134 C138 1.382 . S
C134 H157 0.950 . S
C135 C134 1.388 . S
C135 C136 1.386 . S
C136 C135 1.386 . S
C136 C137 1.382 . S
C136 H158 0.950 . S
C137 N133 1.332 . S
C137 C136 1.382 . S
C137 H139 0.952 . S
C138 N133 1.332 . S
C138 C134 1.382 . S
C138 H140 0.948 . S
H139 C137 0.952 . S
H140 C138 0.948 . S
H141 C130 0.952 . S
H142 C132 0.948 . S
C143 C109 1.395 . S
C143 C113 1.391 . S
C144 C106 1.389 . S
C144 C126 1.392 . S
C145 C116 1.392 . S
C145 C118 1.389 . S
C146 C121 1.395 . S
C146 C123 1.391 . S
H147 C107 0.951 . S
H148 C108 0.950 . S
H149 C114 0.949 . S
H150 C115 0.950 . S
H151 C119 0.951 . S
H152 C120 0.950 . S
H153 C124 0.949 . S
H154 C125 0.950 . S
H155 C129 0.950 . S
H156 C131 0.950 . S
H157 C134 0.950 . S
H158 C136 0.950 . S
C159 C160 1.443 . S
C159 N163 1.376 . S
C159 C197 1.389 . S
C160 C159 1.443 . S
C160 C161 1.340 . S
C160 H200 0.951 . S
C161 C160 1.340 . S
C161 C162 1.439 . S
C161 H201 0.950 . S
C162 C161 1.439 . S
C162 N163 1.374 . S
C162 C196 1.395 . S
N163 C159 1.376 . S
N163 C162 1.374 . S
N163 Co164 2.008 . S
Co164 N163 2.008 . S
Co164 N165 1.995 . S
Co164 N170 2.008 . S
Co164 N175 1.995 . S
Co164 N180 2.282 . S
Co164 N186 2.282 . S
N165 Co164 1.995 . S
N165 C166 1.376 . S
N165 C169 1.383 . S
C166 N165 1.376 . S
C166 C167 1.446 . S
C166 C196 1.391 . S
C167 C166 1.446 . S
C167 C168 1.339 . S
C167 H202 0.949 . S
C168 C167 1.339 . S
C168 C169 1.439 . S
C168 H203 0.950 . S
C169 N165 1.383 . S
C169 C168 1.439 . S
C169 C198 1.392 . S
N170 Co164 2.008 . S
N170 C171 1.376 . S
N170 C174 1.374 1_545 S
C171 N170 1.376 . S
C171 C172 1.443 1_545 S
C171 C198 1.389 . S
C172 C171 1.443 1_565 S
C172 C173 1.340 . S
C172 H204 0.951 . S
C173 C172 1.340 . S
C173 C174 1.439 . S
C173 H205 0.950 . S
C174 N170 1.374 1_565 S
C174 C173 1.439 . S
C174 C199 1.395 . S
N175 Co164 1.995 . S
N175 C176 1.376 . S
N175 C179 1.383 . S
C176 N175 1.376 . S
C176 C177 1.446 . S
C176 C199 1.391 1_545 S
C177 C176 1.446 . S
C177 C178 1.339 . S
C177 H206 0.949 . S
C178 C177 1.339 . S
C178 C179 1.439 . S
C178 H207 0.950 . S
C179 N175 1.383 . S
C179 C178 1.439 . S
C179 C197 1.392 . S
N180 Co164 2.282 . S
N180 C183 1.332 . S
N180 C185 1.332 . S
C181 C182 1.386 . S
C181 C184 1.388 . S
C182 C181 1.386 . S
C182 C183 1.382 . S
C182 H208 0.950 . S
C183 N180 1.332 . S
C183 C182 1.382 . S
C183 H194 0.952 . S
C184 C181 1.388 . S
C184 C185 1.382 . S
C184 H209 0.950 . S
C185 N180 1.332 . S
C185 C184 1.382 . S
C185 H195 0.948 . S
N186 Co164 2.282 . S
N186 C190 1.332 . S
N186 C191 1.332 . S
C187 C188 1.388 . S
C187 C191 1.382 . S
C187 H210 0.950 . S
C188 C187 1.388 . S
C188 C189 1.386 . S
C189 C188 1.386 . S
C189 C190 1.382 . S
C189 H211 0.950 . S
C190 N186 1.332 . S
C190 C189 1.382 . S
C190 H192 0.952 . S
C191 N186 1.332 . S
C191 C187 1.382 . S
C191 H193 0.948 . S
H192 C190 0.952 . S
H193 C191 0.948 . S
H194 C183 0.952 . S
H195 C185 0.948 . S
C196 C162 1.395 . S
C196 C166 1.391 . S
C197 C159 1.389 . S
C197 C179 1.392 . S
C198 C169 1.392 . S
C198 C171 1.389 . S
C199 C174 1.395 . S
C199 C176 1.391 1_565 S
H200 C160 0.951 . S
H201 C161 0.950 . S
H202 C167 0.949 . S
H203 C168 0.950 . S
H204 C172 0.951 . S
H205 C173 0.950 . S
H206 C177 0.949 . S
H207 C178 0.950 . S
H208 C182 0.950 . S
H209 C184 0.950 . S
H210 C187 0.950 . S
H211 C189 0.950 . S
C212 C213 1.443 . S
C212 N216 1.376 . S
C212 C250 1.389 . S
C213 C212 1.443 . S
C213 C214 1.340 . S
C213 H253 0.951 . S
C214 C213 1.340 . S
C214 C215 1.439 . S
C214 H254 0.950 . S
C215 C214 1.439 . S
C215 N216 1.374 . S
C215 C249 1.395 . S
N216 C212 1.376 . S
N216 C215 1.374 . S
N216 Co217 2.008 . S
Co217 N216 2.008 . S
Co217 N218 1.995 . S
Co217 N223 2.008 . S
Co217 N228 1.995 . S
Co217 N233 2.282 . S
Co217 N239 2.282 . S
N218 Co217 1.995 . S
N218 C219 1.376 . S
N218 C222 1.383 . S
C219 N218 1.376 . S
C219 C220 1.446 . S
C219 C249 1.391 . S
C220 C219 1.446 . S
C220 C221 1.339 . S
C220 H255 0.949 . S
C221 C220 1.339 . S
C221 C222 1.439 . S
C221 H256 0.950 . S
C222 N218 1.383 . S
C222 C221 1.439 . S
C222 C251 1.392 . S
N223 Co217 2.008 . S
N223 C224 1.376 . S
N223 C227 1.374 . S
C224 N223 1.376 . S
C224 C225 1.443 . S
C224 C251 1.389 . S
C225 C224 1.443 . S
C225 C226 1.340 . S
C225 H257 0.951 . S
C226 C225 1.340 . S
C226 C227 1.439 . S
C226 H258 0.950 . S
C227 N223 1.374 . S
C227 C226 1.439 . S
C227 C252 1.395 . S
N228 Co217 1.995 . S
N228 C229 1.376 . S
N228 C232 1.383 . S
C229 N228 1.376 . S
C229 C230 1.446 . S
C229 C252 1.391 . S
C230 C229 1.446 . S
C230 C231 1.339 . S
C230 H259 0.949 . S
C231 C230 1.339 . S
C231 C232 1.439 . S
C231 H260 0.950 . S
C232 N228 1.383 . S
C232 C231 1.439 . S
C232 C250 1.392 . S
N233 Co217 2.282 . S
N233 C236 1.332 . S
N233 C238 1.332 . S
C234 C235 1.386 . S
C234 C237 1.388 . S
C235 C234 1.386 . S
C235 C236 1.382 . S
C235 H261 0.950 . S
C236 N233 1.332 . S
C236 C235 1.382 . S
C236 H247 0.952 . S
C237 C234 1.388 . S
C237 C238 1.382 . S
C237 H262 0.950 . S
C238 N233 1.332 . S
C238 C237 1.382 . S
C238 H248 0.948 . S
N239 Co217 2.282 . S
N239 C243 1.332 . S
N239 C244 1.332 . S
C240 C241 1.388 . S
C240 C244 1.382 . S
C240 H263 0.950 . S
C241 C240 1.388 . S
C241 C242 1.386 . S
C242 C241 1.386 . S
C242 C243 1.382 . S
C242 H264 0.950 . S
C243 N239 1.332 . S
C243 C242 1.382 . S
C243 H245 0.952 . S
C244 N239 1.332 . S
C244 C240 1.382 . S
C244 H246 0.948 . S
H245 C243 0.952 . S
H246 C244 0.948 . S
H247 C236 0.952 . S
H248 C238 0.948 . S
C249 C215 1.395 . S
C249 C219 1.391 . S
C250 C212 1.389 . S
C250 C232 1.392 . S
C251 C222 1.392 . S
C251 C224 1.389 . S
C252 C227 1.395 . S
C252 C229 1.391 . S
H253 C213 0.951 . S
H254 C214 0.950 . S
H255 C220 0.949 . S
H256 C221 0.950 . S
H257 C225 0.951 . S
H258 C226 0.950 . S
H259 C230 0.949 . S
H260 C231 0.950 . S
H261 C235 0.950 . S
H262 C237 0.950 . S
H263 C240 0.950 . S
H264 C242 0.950 . S
C265 C266 1.443 . S
C265 N269 1.376 . S
C265 C303 1.389 . S
C266 C265 1.443 . S
C266 C267 1.340 . S
C266 H306 0.951 . S
C267 C266 1.340 . S
C267 C268 1.439 . S
C267 H307 0.950 . S
C268 C267 1.439 . S
C268 N269 1.374 . S
C268 C302 1.395 . S
N269 C265 1.376 . S
N269 C268 1.374 . S
N269 Co270 2.008 . S
Co270 N269 2.008 . S
Co270 N271 1.995 . S
Co270 N276 2.008 . S
Co270 N281 1.995 . S
Co270 N286 2.282 . S
Co270 N292 2.282 . S
N271 Co270 1.995 . S
N271 C272 1.376 . S
N271 C275 1.383 . S
C272 N271 1.376 . S
C272 C273 1.446 . S
C272 C302 1.391 . S
C273 C272 1.446 . S
C273 C274 1.339 . S
C273 H308 0.949 . S
C274 C273 1.339 . S
C274 C275 1.439 . S
C274 H309 0.950 . S
C275 N271 1.383 . S
C275 C274 1.439 . S
C275 C304 1.392 . S
N276 Co270 2.008 . S
N276 C277 1.376 . S
N276 C280 1.374 1_565 S
C277 N276 1.376 . S
C277 C278 1.443 1_565 S
C277 C304 1.389 . S
C278 C277 1.443 1_545 S
C278 C279 1.340 . S
C278 H310 0.951 . S
C279 C278 1.340 . S
C279 C280 1.439 . S
C279 H311 0.950 . S
C280 N276 1.374 1_545 S
C280 C279 1.439 . S
C280 C305 1.395 . S
N281 Co270 1.995 . S
N281 C282 1.376 . S
N281 C285 1.383 . S
C282 N281 1.376 . S
C282 C283 1.446 . S
C282 C305 1.391 1_565 S
C283 C282 1.446 . S
C283 C284 1.339 . S
C283 H312 0.949 . S
C284 C283 1.339 . S
C284 C285 1.439 . S
C284 H313 0.950 . S
C285 N281 1.383 . S
C285 C284 1.439 . S
C285 C303 1.392 . S
N286 Co270 2.282 . S
N286 C289 1.332 . S
N286 C291 1.332 . S
C287 C288 1.386 . S
C287 C290 1.388 . S
C288 C287 1.386 . S
C288 C289 1.382 . S
C288 H314 0.950 . S
C289 N286 1.332 . S
C289 C288 1.382 . S
C289 H300 0.952 . S
C290 C287 1.388 . S
C290 C291 1.382 . S
C290 H315 0.950 . S
C291 N286 1.332 . S
C291 C290 1.382 . S
C291 H301 0.948 . S
N292 Co270 2.282 . S
N292 C296 1.332 . S
N292 C297 1.332 . S
C293 C294 1.388 . S
C293 C297 1.382 . S
C293 H316 0.950 . S
C294 C293 1.388 . S
C294 C295 1.386 . S
C295 C294 1.386 . S
C295 C296 1.382 . S
C295 H317 0.950 . S
C296 N292 1.332 . S
C296 C295 1.382 . S
C296 H298 0.952 . S
C297 N292 1.332 . S
C297 C293 1.382 . S
C297 H299 0.948 . S
H298 C296 0.952 . S
H299 C297 0.948 . S
H300 C289 0.952 . S
H301 C291 0.948 . S
C302 C268 1.395 . S
C302 C272 1.391 . S
C303 C265 1.389 . S
C303 C285 1.392 . S
C304 C275 1.392 . S
C304 C277 1.389 . S
C305 C280 1.395 . S
C305 C282 1.391 1_545 S
H306 C266 0.951 . S
H307 C267 0.950 . S
H308 C273 0.949 . S
H309 C274 0.950 . S
H310 C278 0.951 . S
H311 C279 0.950 . S
H312 C283 0.949 . S
H313 C284 0.950 . S
H314 C288 0.950 . S
H315 C290 0.950 . S
H316 C293 0.950 . S
H317 C295 0.950 . S
C318 C319 1.443 . S
C318 N322 1.376 . S
C318 C356 1.389 . S
C319 C318 1.443 . S
C319 C320 1.340 . S
C319 H359 0.951 . S
C320 C319 1.340 . S
C320 C321 1.439 . S
C320 H360 0.950 . S
C321 C320 1.439 . S
C321 N322 1.374 . S
C321 C355 1.395 . S
N322 C318 1.376 . S
N322 C321 1.374 . S
N322 Co323 2.008 . S
Co323 N322 2.008 . S
Co323 N324 1.995 . S
Co323 N329 2.008 . S
Co323 N334 1.995 . S
Co323 N339 2.282 . S
Co323 N345 2.282 . S
N324 Co323 1.995 . S
N324 C325 1.376 . S
N324 C328 1.383 . S
C325 N324 1.376 . S
C325 C326 1.446 . S
C325 C355 1.391 . S
C326 C325 1.446 . S
C326 C327 1.339 . S
C326 H361 0.949 . S
C327 C326 1.339 . S
C327 C328 1.439 . S
C327 H362 0.950 . S
C328 N324 1.383 . S
C328 C327 1.439 . S
C328 C357 1.392 . S
N329 Co323 2.008 . S
N329 C330 1.376 . S
N329 C333 1.374 . S
C330 N329 1.376 . S
C330 C331 1.443 . S
C330 C357 1.389 . S
C331 C330 1.443 . S
C331 C332 1.340 . S
C331 H363 0.951 . S
C332 C331 1.340 . S
C332 C333 1.439 . S
C332 H364 0.950 . S
C333 N329 1.374 . S
C333 C332 1.439 . S
C333 C358 1.395 . S
N334 Co323 1.995 . S
N334 C335 1.376 . S
N334 C338 1.383 . S
C335 N334 1.376 . S
C335 C336 1.446 . S
C335 C358 1.391 . S
C336 C335 1.446 . S
C336 C337 1.339 . S
C336 H365 0.949 . S
C337 C336 1.339 . S
C337 C338 1.439 . S
C337 H366 0.950 . S
C338 N334 1.383 . S
C338 C337 1.439 . S
C338 C356 1.392 . S
N339 Co323 2.282 . S
N339 C342 1.332 . S
N339 C344 1.332 . S
C340 C341 1.386 . S
C340 C343 1.388 . S
C341 C340 1.386 . S
C341 C342 1.382 . S
C341 H367 0.950 . S
C342 N339 1.332 . S
C342 C341 1.382 . S
C342 H353 0.952 . S
C343 C340 1.388 . S
C343 C344 1.382 . S
C343 H368 0.950 . S
C344 N339 1.332 . S
C344 C343 1.382 . S
C344 H354 0.948 . S
N345 Co323 2.282 . S
N345 C349 1.332 . S
N345 C350 1.332 . S
C346 C347 1.388 . S
C346 C350 1.382 . S
C346 H369 0.950 . S
C347 C346 1.388 . S
C347 C348 1.386 . S
C348 C347 1.386 . S
C348 C349 1.382 . S
C348 H370 0.950 . S
C349 N345 1.332 . S
C349 C348 1.382 . S
C349 H351 0.952 . S
C350 N345 1.332 . S
C350 C346 1.382 . S
C350 H352 0.948 . S
H351 C349 0.952 . S
H352 C350 0.948 . S
H353 C342 0.952 . S
H354 C344 0.948 . S
C355 C321 1.395 . S
C355 C325 1.391 . S
C356 C318 1.389 . S
C356 C338 1.392 . S
C357 C328 1.392 . S
C357 C330 1.389 . S
C358 C333 1.395 . S
C358 C335 1.391 . S
H359 C319 0.951 . S
H360 C320 0.950 . S
H361 C326 0.949 . S
H362 C327 0.950 . S
H363 C331 0.951 . S
H364 C332 0.950 . S
H365 C336 0.949 . S
H366 C337 0.950 . S
H367 C341 0.950 . S
H368 C343 0.950 . S
H369 C346 0.950 . S
H370 C348 0.950 . S
C371 C372 1.443 . S
C371 N375 1.376 . S
C371 C409 1.389 . S
C372 C371 1.443 . S
C372 C373 1.340 . S
C372 H412 0.951 . S
C373 C372 1.340 . S
C373 C374 1.439 . S
C373 H413 0.950 . S
C374 C373 1.439 . S
C374 N375 1.374 . S
C374 C408 1.395 . S
N375 C371 1.376 . S
N375 C374 1.374 . S
N375 Co376 2.008 . S
Co376 N375 2.008 . S
Co376 N377 1.995 . S
Co376 N382 2.008 . S
Co376 N387 1.995 . S
Co376 N392 2.282 . S
Co376 N398 2.282 . S
N377 Co376 1.995 . S
N377 C378 1.376 . S
N377 C381 1.383 . S
C378 N377 1.376 . S
C378 C379 1.446 . S
C378 C408 1.391 . S
C379 C378 1.446 . S
C379 C380 1.339 . S
C379 H414 0.949 . S
C380 C379 1.339 . S
C380 C381 1.439 . S
C380 H415 0.950 . S
C381 N377 1.383 . S
C381 C380 1.439 . S
C381 C410 1.392 . S
N382 Co376 2.008 . S
N382 C383 1.376 . S
N382 C386 1.374 1_545 S
C383 N382 1.376 . S
C383 C384 1.443 1_545 S
C383 C410 1.389 . S
C384 C383 1.443 1_565 S
C384 C385 1.340 . S
C384 H416 0.951 . S
C385 C384 1.340 . S
C385 C386 1.439 . S
C385 H417 0.950 . S
C386 N382 1.374 1_565 S
C386 C385 1.439 . S
C386 C411 1.395 . S
N387 Co376 1.995 . S
N387 C388 1.376 . S
N387 C391 1.383 . S
C388 N387 1.376 . S
C388 C389 1.446 . S
C388 C411 1.391 1_545 S
C389 C388 1.446 . S
C389 C390 1.339 . S
C389 H418 0.949 . S
C390 C389 1.339 . S
C390 C391 1.439 . S
C390 H419 0.950 . S
C391 N387 1.383 . S
C391 C390 1.439 . S
C391 C409 1.392 . S
N392 Co376 2.282 . S
N392 C395 1.332 . S
N392 C397 1.332 . S
C393 C394 1.386 . S
C393 C396 1.388 . S
C394 C393 1.386 . S
C394 C395 1.382 . S
C394 H420 0.950 . S
C395 N392 1.332 . S
C395 C394 1.382 . S
C395 H406 0.952 . S
C396 C393 1.388 . S
C396 C397 1.382 . S
C396 H421 0.950 . S
C397 N392 1.332 . S
C397 C396 1.382 . S
C397 H407 0.948 . S
N398 Co376 2.282 . S
N398 C402 1.332 . S
N398 C403 1.332 . S
C399 C400 1.388 . S
C399 C403 1.382 . S
C399 H422 0.950 . S
C400 C399 1.388 . S
C400 C401 1.386 . S
C401 C400 1.386 . S
C401 C402 1.382 . S
C401 H423 0.950 . S
C402 N398 1.332 . S
C402 C401 1.382 . S
C402 H404 0.952 . S
C403 N398 1.332 . S
C403 C399 1.382 . S
C403 H405 0.948 . S
H404 C402 0.952 . S
H405 C403 0.948 . S
H406 C395 0.952 . S
H407 C397 0.948 . S
C408 C374 1.395 . S
C408 C378 1.391 . S
C409 C371 1.389 . S
C409 C391 1.392 . S
C410 C381 1.392 . S
C410 C383 1.389 . S
C411 C386 1.395 . S
C411 C388 1.391 1_565 S
H412 C372 0.951 . S
H413 C373 0.950 . S
H414 C379 0.949 . S
H415 C380 0.950 . S
H416 C384 0.951 . S
H417 C385 0.950 . S
H418 C389 0.949 . S
H419 C390 0.950 . S
H420 C394 0.950 . S
H421 C396 0.950 . S
H422 C399 0.950 . S
H423 C401 0.950 . S
C424 C425 1.443 . S
C424 N428 1.376 . S
C424 C462 1.389 . S
C425 C424 1.443 . S
C425 C426 1.340 . S
C425 H465 0.951 . S
C426 C425 1.340 . S
C426 C427 1.439 . S
C426 H466 0.950 . S
C427 C426 1.439 . S
C427 N428 1.374 . S
C427 C461 1.395 . S
N428 C424 1.376 . S
N428 C427 1.374 . S
N428 Co429 2.008 . S
Co429 N428 2.008 . S
Co429 N430 1.995 . S
Co429 N435 2.008 . S
Co429 N440 1.995 . S
Co429 N445 2.282 . S
Co429 N451 2.282 . S
N430 Co429 1.995 . S
N430 C431 1.376 . S
N430 C434 1.383 . S
C431 N430 1.376 . S
C431 C432 1.446 . S
C431 C461 1.391 . S
C432 C431 1.446 . S
C432 C433 1.339 . S
C432 H467 0.949 . S
C433 C432 1.339 . S
C433 C434 1.439 . S
C433 H468 0.950 . S
C434 N430 1.383 . S
C434 C433 1.439 . S
C434 C463 1.392 . S
N435 Co429 2.008 . S
N435 C436 1.376 . S
N435 C439 1.374 . S
C436 N435 1.376 . S
C436 C437 1.443 . S
C436 C463 1.389 . S
C437 C436 1.443 . S
C437 C438 1.340 . S
C437 H469 0.951 . S
C438 C437 1.340 . S
C438 C439 1.439 . S
C438 H470 0.950 . S
C439 N435 1.374 . S
C439 C438 1.439 . S
C439 C464 1.395 . S
N440 Co429 1.995 . S
N440 C441 1.376 . S
N440 C444 1.383 . S
C441 N440 1.376 . S
C441 C442 1.446 . S
C441 C464 1.391 . S
C442 C441 1.446 . S
C442 C443 1.339 . S
C442 H471 0.949 . S
C443 C442 1.339 . S
C443 C444 1.439 . S
C443 H472 0.950 . S
C444 N440 1.383 . S
C444 C443 1.439 . S
C444 C462 1.392 . S
N445 Co429 2.282 . S
N445 C448 1.332 . S
N445 C450 1.332 . S
C446 C447 1.386 . S
C446 C449 1.388 . S
C447 C446 1.386 . S
C447 C448 1.382 . S
C447 H473 0.950 . S
C448 N445 1.332 . S
C448 C447 1.382 . S
C448 H459 0.952 . S
C449 C446 1.388 . S
C449 C450 1.382 . S
C449 H474 0.950 . S
C450 N445 1.332 . S
C450 C449 1.382 . S
C450 H460 0.948 . S
N451 Co429 2.282 . S
N451 C455 1.332 . S
N451 C456 1.332 . S
C452 C453 1.388 . S
C452 C456 1.382 . S
C452 H475 0.950 . S
C453 C452 1.388 . S
C453 C454 1.386 . S
C454 C453 1.386 . S
C454 C455 1.382 . S
C454 H476 0.950 . S
C455 N451 1.332 . S
C455 C454 1.382 . S
C455 H457 0.952 . S
C456 N451 1.332 . S
C456 C452 1.382 . S
C456 H458 0.948 . S
H457 C455 0.952 . S
H458 C456 0.948 . S
H459 C448 0.952 . S
H460 C450 0.948 . S
C461 C427 1.395 . S
C461 C431 1.391 . S
C462 C424 1.389 . S
C462 C444 1.392 . S
C463 C434 1.392 . S
C463 C436 1.389 . S
C464 C439 1.395 . S
C464 C441 1.391 . S
H465 C425 0.951 . S
H466 C426 0.950 . S
H467 C432 0.949 . S
H468 C433 0.950 . S
H469 C437 0.951 . S
H470 C438 0.950 . S
H471 C442 0.949 . S
H472 C443 0.950 . S
H473 C447 0.950 . S
H474 C449 0.950 . S
H475 C452 0.950 . S
H476 C454 0.950 . S
C477 C478 1.443 . S
C477 N481 1.376 . S
C477 C515 1.389 . S
C478 C477 1.443 . S
C478 C479 1.340 1_545 S
C478 H518 0.951 . S
C479 C478 1.340 1_565 S
C479 C480 1.439 . S
C479 H519 0.950 . S
C480 C479 1.439 . S
C480 N481 1.374 1_565 S
C480 C514 1.395 . S
N481 C477 1.376 . S
N481 C480 1.374 1_545 S
N481 Co482 2.008 . S
Co482 N481 2.008 . S
Co482 N483 1.995 1_545 S
Co482 N488 2.008 . S
Co482 N493 1.995 . S
Co482 N498 2.282 . S
Co482 N504 2.282 . S
N483 Co482 1.995 1_565 S
N483 C484 1.376 . S
N483 C487 1.383 . S
C484 N483 1.376 . S
C484 C485 1.446 . S
C484 C514 1.391 . S
C485 C484 1.446 . S
C485 C486 1.339 . S
C485 H520 0.949 . S
C486 C485 1.339 . S
C486 C487 1.439 . S
C486 H521 0.950 . S
C487 N483 1.383 . S
C487 C486 1.439 . S
C487 C516 1.392 . S
N488 Co482 2.008 . S
N488 C489 1.376 . S
N488 C492 1.374 . S
C489 N488 1.376 . S
C489 C490 1.443 . S
C489 C516 1.389 1_545 S
C490 C489 1.443 . S
C490 C491 1.340 . S
C490 H522 0.951 . S
C491 C490 1.340 . S
C491 C492 1.439 . S
C491 H523 0.950 . S
C492 N488 1.374 . S
C492 C491 1.439 . S
C492 C517 1.395 . S
N493 Co482 1.995 . S
N493 C494 1.376 . S
N493 C497 1.383 . S
C494 N493 1.376 . S
C494 C495 1.446 . S
C494 C517 1.391 . S
C495 C494 1.446 . S
C495 C496 1.339 . S
C495 H524 0.949 . S
C496 C495 1.339 . S
C496 C497 1.439 . S
C496 H525 0.950 . S
C497 N493 1.383 . S
C497 C496 1.439 . S
C497 C515 1.392 . S
N498 Co482 2.282 . S
N498 C501 1.332 . S
N498 C503 1.332 1_545 S
C499 C500 1.386 . S
C499 C502 1.388 1_545 S
C500 C499 1.386 . S
C500 C501 1.382 . S
C500 H526 0.950 . S
C501 N498 1.332 . S
C501 C500 1.382 . S
C501 H512 0.952 . S
C502 C499 1.388 1_565 S
C502 C503 1.382 . S
C502 H527 0.950 . S
C503 N498 1.332 1_565 S
C503 C502 1.382 . S
C503 H513 0.948 . S
N504 Co482 2.282 . S
N504 C508 1.332 . S
N504 C509 1.332 . S
C505 C506 1.388 . S
C505 C509 1.382 . S
C505 H528 0.950 . S
C506 C505 1.388 . S
C506 C507 1.386 . S
C507 C506 1.386 . S
C507 C508 1.382 . S
C507 H529 0.950 1_545 S
C508 N504 1.332 . S
C508 C507 1.382 . S
C508 H510 0.952 1_545 S
C509 N504 1.332 . S
C509 C505 1.382 . S
C509 H511 0.948 . S
H510 C508 0.952 1_565 S
H511 C509 0.948 . S
H512 C501 0.952 . S
H513 C503 0.948 . S
C514 C480 1.395 . S
C514 C484 1.391 . S
C515 C477 1.389 . S
C515 C497 1.392 . S
C516 C487 1.392 . S
C516 C489 1.389 1_565 S
C517 C492 1.395 . S
C517 C494 1.391 . S
H518 C478 0.951 . S
H519 C479 0.950 . S
H520 C485 0.949 . S
H521 C486 0.950 . S
H522 C490 0.951 . S
H523 C491 0.950 . S
H524 C495 0.949 . S
H525 C496 0.950 . S
H526 C500 0.950 . S
H527 C502 0.950 . S
H528 C505 0.950 . S
H529 C507 0.950 1_565 S
C530 C531 1.443 . S
C530 N534 1.376 . S
C530 C568 1.389 . S
C531 C530 1.443 . S
C531 C532 1.340 . S
C531 H571 0.951 . S
C532 C531 1.340 . S
C532 C533 1.439 . S
C532 H572 0.950 . S
C533 C532 1.439 . S
C533 N534 1.374 . S
C533 C567 1.395 . S
N534 C530 1.376 . S
N534 C533 1.374 . S
N534 Co535 2.008 . S
Co535 N534 2.008 . S
Co535 N536 1.995 . S
Co535 N541 2.008 . S
Co535 N546 1.995 . S
Co535 N551 2.282 . S
Co535 N557 2.282 . S
N536 Co535 1.995 . S
N536 C537 1.376 . S
N536 C540 1.383 . S
C537 N536 1.376 . S
C537 C538 1.446 . S
C537 C567 1.391 . S
C538 C537 1.446 . S
C538 C539 1.339 . S
C538 H573 0.949 . S
C539 C538 1.339 . S
C539 C540 1.439 . S
C539 H574 0.950 . S
C540 N536 1.383 . S
C540 C539 1.439 . S
C540 C569 1.392 . S
N541 Co535 2.008 . S
N541 C542 1.376 . S
N541 C545 1.374 . S
C542 N541 1.376 . S
C542 C543 1.443 . S
C542 C569 1.389 . S
C543 C542 1.443 . S
C543 C544 1.340 . S
C543 H575 0.951 . S
C544 C543 1.340 . S
C544 C545 1.439 . S
C544 H576 0.950 . S
C545 N541 1.374 . S
C545 C544 1.439 . S
C545 C570 1.395 . S
N546 Co535 1.995 . S
N546 C547 1.376 . S
N546 C550 1.383 . S
C547 N546 1.376 . S
C547 C548 1.446 . S
C547 C570 1.391 . S
C548 C547 1.446 . S
C548 C549 1.339 . S
C548 H577 0.949 . S
C549 C548 1.339 . S
C549 C550 1.439 . S
C549 H578 0.950 . S
C550 N546 1.383 . S
C550 C549 1.439 . S
C550 C568 1.392 . S
N551 Co535 2.282 . S
N551 C554 1.332 . S
N551 C556 1.332 . S
C552 C553 1.386 . S
C552 C555 1.388 . S
C553 C552 1.386 . S
C553 C554 1.382 . S
C553 H579 0.950 . S
C554 N551 1.332 . S
C554 C553 1.382 . S
C554 H565 0.952 . S
C555 C552 1.388 . S
C555 C556 1.382 . S
C555 H580 0.950 . S
C556 N551 1.332 . S
C556 C555 1.382 . S
C556 H566 0.948 . S
N557 Co535 2.282 . S
N557 C561 1.332 . S
N557 C562 1.332 . S
C558 C559 1.388 . S
C558 C562 1.382 . S
C558 H581 0.950 . S
C559 C558 1.388 . S
C559 C560 1.386 . S
C560 C559 1.386 . S
C560 C561 1.382 . S
C560 H582 0.950 . S
C561 N557 1.332 . S
C561 C560 1.382 . S
C561 H563 0.952 . S
C562 N557 1.332 . S
C562 C558 1.382 . S
C562 H564 0.948 . S
H563 C561 0.952 . S
H564 C562 0.948 . S
H565 C554 0.952 . S
H566 C556 0.948 . S
C567 C533 1.395 . S
C567 C537 1.391 . S
C568 C530 1.389 . S
C568 C550 1.392 . S
C569 C540 1.392 . S
C569 C542 1.389 . S
C570 C545 1.395 . S
C570 C547 1.391 . S
H571 C531 0.951 . S
H572 C532 0.950 . S
H573 C538 0.949 . S
H574 C539 0.950 . S
H575 C543 0.951 . S
H576 C544 0.950 . S
H577 C548 0.949 . S
H578 C549 0.950 . S
H579 C553 0.950 . S
H580 C555 0.950 . S
H581 C558 0.950 . S
H582 C560 0.950 . S
C583 C584 1.443 . S
C583 N587 1.376 . S
C583 C621 1.389 . S
C584 C583 1.443 . S
C584 C585 1.340 1_565 S
C584 H624 0.951 . S
C585 C584 1.340 1_545 S
C585 C586 1.439 . S
C585 H625 0.950 . S
C586 C585 1.439 . S
C586 N587 1.374 1_545 S
C586 C620 1.395 . S
N587 C583 1.376 . S
N587 C586 1.374 1_565 S
N587 Co588 2.008 . S
Co588 N587 2.008 . S
Co588 N589 1.995 1_565 S
Co588 N594 2.008 . S
Co588 N599 1.995 . S
Co588 N604 2.282 . S
Co588 N610 2.282 . S
N589 Co588 1.995 1_545 S
N589 C590 1.376 . S
N589 C593 1.383 . S
C590 N589 1.376 . S
C590 C591 1.446 . S
C590 C620 1.391 . S
C591 C590 1.446 . S
C591 C592 1.339 . S
C591 H626 0.949 . S
C592 C591 1.339 . S
C592 C593 1.439 . S
C592 H627 0.950 . S
C593 N589 1.383 . S
C593 C592 1.439 . S
C593 C622 1.392 . S
N594 Co588 2.008 . S
N594 C595 1.376 . S
N594 C598 1.374 . S
C595 N594 1.376 . S
C595 C596 1.443 . S
C595 C622 1.389 1_565 S
C596 C595 1.443 . S
C596 C597 1.340 . S
C596 H628 0.951 . S
C597 C596 1.340 . S
C597 C598 1.439 . S
C597 H629 0.950 . S
C598 N594 1.374 . S
C598 C597 1.439 . S
C598 C623 1.395 . S
N599 Co588 1.995 . S
N599 C600 1.376 . S
N599 C603 1.383 . S
C600 N599 1.376 . S
C600 C601 1.446 . S
C600 C623 1.391 . S
C601 C600 1.446 . S
C601 C602 1.339 . S
C601 H630 0.949 . S
C602 C601 1.339 . S
C602 C603 1.439 . S
C602 H631 0.950 . S
C603 N599 1.383 . S
C603 C602 1.439 . S
C603 C621 1.392 . S
N604 Co588 2.282 . S
N604 C607 1.332 . S
N604 C609 1.332 1_565 S
C605 C606 1.386 . S
C605 C608 1.388 1_565 S
C606 C605 1.386 . S
C606 C607 1.382 . S
C606 H632 0.950 . S
C607 N604 1.332 . S
C607 C606 1.382 . S
C607 H618 0.952 . S
C608 C605 1.388 1_545 S
C608 C609 1.382 . S
C608 H633 0.950 . S
C609 N604 1.332 1_545 S
C609 C608 1.382 . S
C609 H619 0.948 . S
N610 Co588 2.282 . S
N610 C614 1.332 . S
N610 C615 1.332 . S
C611 C612 1.388 . S
C611 C615 1.382 . S
C611 H634 0.950 . S
C612 C611 1.388 . S
C612 C613 1.386 . S
C613 C612 1.386 . S
C613 C614 1.382 . S
C613 H635 0.950 1_565 S
C614 N610 1.332 . S
C614 C613 1.382 . S
C614 H616 0.952 1_565 S
C615 N610 1.332 . S
C615 C611 1.382 . S
C615 H617 0.948 . S
H616 C614 0.952 1_545 S
H617 C615 0.948 . S
H618 C607 0.952 . S
H619 C609 0.948 . S
C620 C586 1.395 . S
C620 C590 1.391 . S
C621 C583 1.389 . S
C621 C603 1.392 . S
C622 C593 1.392 . S
C622 C595 1.389 1_545 S
C623 C598 1.395 . S
C623 C600 1.391 . S
H624 C584 0.951 . S
H625 C585 0.950 . S
H626 C591 0.949 . S
H627 C592 0.950 . S
H628 C596 0.951 . S
H629 C597 0.950 . S
H630 C601 0.949 . S
H631 C602 0.950 . S
H632 C606 0.950 . S
H633 C608 0.950 . S
H634 C611 0.950 . S
H635 C613 0.950 1_545 S
C636 C637 1.443 . S
C636 N640 1.376 . S
C636 C674 1.389 . S
C637 C636 1.443 . S
C637 C638 1.340 . S
C637 H677 0.951 . S
C638 C637 1.340 . S
C638 C639 1.439 . S
C638 H678 0.950 . S
C639 C638 1.439 . S
C639 N640 1.374 . S
C639 C673 1.395 . S
N640 C636 1.376 . S
N640 C639 1.374 . S
N640 Co641 2.008 . S
Co641 N640 2.008 . S
Co641 N642 1.995 . S
Co641 N647 2.008 . S
Co641 N652 1.995 . S
Co641 N657 2.282 . S
Co641 N663 2.282 . S
N642 Co641 1.995 . S
N642 C643 1.376 . S
N642 C646 1.383 . S
C643 N642 1.376 . S
C643 C644 1.446 . S
C643 C673 1.391 . S
C644 C643 1.446 . S
C644 C645 1.339 . S
C644 H679 0.949 . S
C645 C644 1.339 . S
C645 C646 1.439 . S
C645 H680 0.950 . S
C646 N642 1.383 . S
C646 C645 1.439 . S
C646 C675 1.392 . S
N647 Co641 2.008 . S
N647 C648 1.376 . S
N647 C651 1.374 . S
C648 N647 1.376 . S
C648 C649 1.443 . S
C648 C675 1.389 . S
C649 C648 1.443 . S
C649 C650 1.340 . S
C649 H681 0.951 . S
C650 C649 1.340 . S
C650 C651 1.439 . S
C650 H682 0.950 . S
C651 N647 1.374 . S
C651 C650 1.439 . S
C651 C676 1.395 . S
N652 Co641 1.995 . S
N652 C653 1.376 . S
N652 C656 1.383 . S
C653 N652 1.376 . S
C653 C654 1.446 . S
C653 C676 1.391 . S
C654 C653 1.446 . S
C654 C655 1.339 . S
C654 H683 0.949 . S
C655 C654 1.339 . S
C655 C656 1.439 . S
C655 H684 0.950 . S
C656 N652 1.383 . S
C656 C655 1.439 . S
C656 C674 1.392 . S
N657 Co641 2.282 . S
N657 C660 1.332 . S
N657 C662 1.332 . S
C658 C659 1.386 . S
C658 C661 1.388 . S
C659 C658 1.386 . S
C659 C660 1.382 . S
C659 H685 0.950 . S
C660 N657 1.332 . S
C660 C659 1.382 . S
C660 H671 0.952 . S
C661 C658 1.388 . S
C661 C662 1.382 . S
C661 H686 0.950 . S
C662 N657 1.332 . S
C662 C661 1.382 . S
C662 H672 0.948 . S
N663 Co641 2.282 . S
N663 C667 1.332 . S
N663 C668 1.332 . S
C664 C665 1.388 . S
C664 C668 1.382 . S
C664 H687 0.950 . S
C665 C664 1.388 . S
C665 C666 1.386 . S
C666 C665 1.386 . S
C666 C667 1.382 . S
C666 H688 0.950 . S
C667 N663 1.332 . S
C667 C666 1.382 . S
C667 H669 0.952 . S
C668 N663 1.332 . S
C668 C664 1.382 . S
C668 H670 0.948 . S
H669 C667 0.952 . S
H670 C668 0.948 . S
H671 C660 0.952 . S
H672 C662 0.948 . S
C673 C639 1.395 . S
C673 C643 1.391 . S
C674 C636 1.389 . S
C674 C656 1.392 . S
C675 C646 1.392 . S
C675 C648 1.389 . S
C676 C651 1.395 . S
C676 C653 1.391 . S
H677 C637 0.951 . S
H678 C638 0.950 . S
H679 C644 0.949 . S
H680 C645 0.950 . S
H681 C649 0.951 . S
H682 C650 0.950 . S
H683 C654 0.949 . S
H684 C655 0.950 . S
H685 C659 0.950 . S
H686 C661 0.950 . S
H687 C664 0.950 . S
H688 C666 0.950 . S
C689 C690 1.443 . S
C689 N693 1.376 . S
C689 C727 1.389 . S
C690 C689 1.443 . S
C690 C691 1.340 1_545 S
C690 H730 0.951 . S
C691 C690 1.340 1_565 S
C691 C692 1.439 . S
C691 H731 0.950 . S
C692 C691 1.439 . S
C692 N693 1.374 1_565 S
C692 C726 1.395 . S
N693 C689 1.376 . S
N693 C692 1.374 1_545 S
N693 Co694 2.008 . S
Co694 N693 2.008 . S
Co694 N695 1.995 1_545 S
Co694 N700 2.008 . S
Co694 N705 1.995 . S
Co694 N710 2.282 . S
Co694 N716 2.282 . S
N695 Co694 1.995 1_565 S
N695 C696 1.376 . S
N695 C699 1.383 . S
C696 N695 1.376 . S
C696 C697 1.446 . S
C696 C726 1.391 . S
C697 C696 1.446 . S
C697 C698 1.339 . S
C697 H732 0.949 . S
C698 C697 1.339 . S
C698 C699 1.439 . S
C698 H733 0.950 . S
C699 N695 1.383 . S
C699 C698 1.439 . S
C699 C728 1.392 . S
N700 Co694 2.008 . S
N700 C701 1.376 . S
N700 C704 1.374 . S
C701 N700 1.376 . S
C701 C702 1.443 . S
C701 C728 1.389 1_545 S
C702 C701 1.443 . S
C702 C703 1.340 . S
C702 H734 0.951 . S
C703 C702 1.340 . S
C703 C704 1.439 . S
C703 H735 0.950 . S
C704 N700 1.374 . S
C704 C703 1.439 . S
C704 C729 1.395 . S
N705 Co694 1.995 . S
N705 C706 1.376 . S
N705 C709 1.383 . S
C706 N705 1.376 . S
C706 C707 1.446 . S
C706 C729 1.391 . S
C707 C706 1.446 . S
C707 C708 1.339 . S
C707 H736 0.949 . S
C708 C707 1.339 . S
C708 C709 1.439 . S
C708 H737 0.950 . S
C709 N705 1.383 . S
C709 C708 1.439 . S
C709 C727 1.392 . S
N710 Co694 2.282 . S
N710 C713 1.332 . S
N710 C715 1.332 1_545 S
C711 C712 1.386 . S
C711 C714 1.388 1_545 S
C712 C711 1.386 . S
C712 C713 1.382 . S
C712 H738 0.950 . S
C713 N710 1.332 . S
C713 C712 1.382 . S
C713 H724 0.952 . S
C714 C711 1.388 1_565 S
C714 C715 1.382 . S
C714 H739 0.950 . S
C715 N710 1.332 1_565 S
C715 C714 1.382 . S
C715 H725 0.948 . S
N716 Co694 2.282 . S
N716 C720 1.332 . S
N716 C721 1.332 . S
C717 C718 1.388 . S
C717 C721 1.382 . S
C717 H740 0.950 . S
C718 C717 1.388 . S
C718 C719 1.386 . S
C719 C718 1.386 . S
C719 C720 1.382 . S
C719 H741 0.950 1_545 S
C720 N716 1.332 . S
C720 C719 1.382 . S
C720 H722 0.952 1_545 S
C721 N716 1.332 . S
C721 C717 1.382 . S
C721 H723 0.948 . S
H722 C720 0.952 1_565 S
H723 C721 0.948 . S
H724 C713 0.952 . S
H725 C715 0.948 . S
C726 C692 1.395 . S
C726 C696 1.391 . S
C727 C689 1.389 . S
C727 C709 1.392 . S
C728 C699 1.392 . S
C728 C701 1.389 1_565 S
C729 C704 1.395 . S
C729 C706 1.391 . S
H730 C690 0.951 . S
H731 C691 0.950 . S
H732 C697 0.949 . S
H733 C698 0.950 . S
H734 C702 0.951 . S
H735 C703 0.950 . S
H736 C707 0.949 . S
H737 C708 0.950 . S
H738 C712 0.950 . S
H739 C714 0.950 . S
H740 C717 0.950 . S
H741 C719 0.950 1_565 S
C742 C743 1.443 . S
C742 N746 1.376 . S
C742 C780 1.389 . S
C743 C742 1.443 . S
C743 C744 1.340 . S
C743 H783 0.951 . S
C744 C743 1.340 . S
C744 C745 1.439 . S
C744 H784 0.950 . S
C745 C744 1.439 . S
C745 N746 1.374 . S
C745 C779 1.395 . S
N746 C742 1.376 . S
N746 C745 1.374 . S
N746 Co747 2.008 . S
Co747 N746 2.008 . S
Co747 N748 1.995 . S
Co747 N753 2.008 . S
Co747 N758 1.995 . S
Co747 N763 2.282 . S
Co747 N769 2.282 . S
N748 Co747 1.995 . S
N748 C749 1.376 . S
N748 C752 1.383 . S
C749 N748 1.376 . S
C749 C750 1.446 . S
C749 C779 1.391 . S
C750 C749 1.446 . S
C750 C751 1.339 . S
C750 H785 0.949 . S
C751 C750 1.339 . S
C751 C752 1.439 . S
C751 H786 0.950 . S
C752 N748 1.383 . S
C752 C751 1.439 . S
C752 C781 1.392 . S
N753 Co747 2.008 . S
N753 C754 1.376 . S
N753 C757 1.374 . S
C754 N753 1.376 . S
C754 C755 1.443 . S
C754 C781 1.389 . S
C755 C754 1.443 . S
C755 C756 1.340 . S
C755 H787 0.951 . S
C756 C755 1.340 . S
C756 C757 1.439 . S
C756 H788 0.950 . S
C757 N753 1.374 . S
C757 C756 1.439 . S
C757 C782 1.395 . S
N758 Co747 1.995 . S
N758 C759 1.376 . S
N758 C762 1.383 . S
C759 N758 1.376 . S
C759 C760 1.446 . S
C759 C782 1.391 . S
C760 C759 1.446 . S
C760 C761 1.339 . S
C760 H789 0.949 . S
C761 C760 1.339 . S
C761 C762 1.439 . S
C761 H790 0.950 . S
C762 N758 1.383 . S
C762 C761 1.439 . S
C762 C780 1.392 . S
N763 Co747 2.282 . S
N763 C766 1.332 . S
N763 C768 1.332 . S
C764 C765 1.386 . S
C764 C767 1.388 . S
C765 C764 1.386 . S
C765 C766 1.382 . S
C765 H791 0.950 . S
C766 N763 1.332 . S
C766 C765 1.382 . S
C766 H777 0.952 . S
C767 C764 1.388 . S
C767 C768 1.382 . S
C767 H792 0.950 . S
C768 N763 1.332 . S
C768 C767 1.382 . S
C768 H778 0.948 . S
N769 Co747 2.282 . S
N769 C773 1.332 . S
N769 C774 1.332 . S
C770 C771 1.388 . S
C770 C774 1.382 . S
C770 H793 0.950 . S
C771 C770 1.388 . S
C771 C772 1.386 . S
C772 C771 1.386 . S
C772 C773 1.382 . S
C772 H794 0.950 . S
C773 N769 1.332 . S
C773 C772 1.382 . S
C773 H775 0.952 . S
C774 N769 1.332 . S
C774 C770 1.382 . S
C774 H776 0.948 . S
H775 C773 0.952 . S
H776 C774 0.948 . S
H777 C766 0.952 . S
H778 C768 0.948 . S
C779 C745 1.395 . S
C779 C749 1.391 . S
C780 C742 1.389 . S
C780 C762 1.392 . S
C781 C752 1.392 . S
C781 C754 1.389 . S
C782 C757 1.395 . S
C782 C759 1.391 . S
H783 C743 0.951 . S
H784 C744 0.950 . S
H785 C750 0.949 . S
H786 C751 0.950 . S
H787 C755 0.951 . S
H788 C756 0.950 . S
H789 C760 0.949 . S
H790 C761 0.950 . S
H791 C765 0.950 . S
H792 C767 0.950 . S
H793 C770 0.950 . S
H794 C772 0.950 . S
C795 C796 1.443 . S
C795 N799 1.376 . S
C795 C833 1.389 . S
C796 C795 1.443 . S
C796 C797 1.340 1_565 S
C796 H836 0.951 . S
C797 C796 1.340 1_545 S
C797 C798 1.439 . S
C797 H837 0.950 . S
C798 C797 1.439 . S
C798 N799 1.374 1_545 S
C798 C832 1.395 . S
N799 C795 1.376 . S
N799 C798 1.374 1_565 S
N799 Co800 2.008 . S
Co800 N799 2.008 . S
Co800 N801 1.995 1_565 S
Co800 N806 2.008 . S
Co800 N811 1.995 . S
Co800 N816 2.282 . S
Co800 N822 2.282 . S
N801 Co800 1.995 1_545 S
N801 C802 1.376 . S
N801 C805 1.383 . S
C802 N801 1.376 . S
C802 C803 1.446 . S
C802 C832 1.391 . S
C803 C802 1.446 . S
C803 C804 1.339 . S
C803 H838 0.949 . S
C804 C803 1.339 . S
C804 C805 1.439 . S
C804 H839 0.950 . S
C805 N801 1.383 . S
C805 C804 1.439 . S
C805 C834 1.392 . S
N806 Co800 2.008 . S
N806 C807 1.376 . S
N806 C810 1.374 . S
C807 N806 1.376 . S
C807 C808 1.443 . S
C807 C834 1.389 1_565 S
C808 C807 1.443 . S
C808 C809 1.340 . S
C808 H840 0.951 . S
C809 C808 1.340 . S
C809 C810 1.439 . S
C809 H841 0.950 . S
C810 N806 1.374 . S
C810 C809 1.439 . S
C810 C835 1.395 . S
N811 Co800 1.995 . S
N811 C812 1.376 . S
N811 C815 1.383 . S
C812 N811 1.376 . S
C812 C813 1.446 . S
C812 C835 1.391 . S
C813 C812 1.446 . S
C813 C814 1.339 . S
C813 H842 0.949 . S
C814 C813 1.339 . S
C814 C815 1.439 . S
C814 H843 0.950 . S
C815 N811 1.383 . S
C815 C814 1.439 . S
C815 C833 1.392 . S
N816 Co800 2.282 . S
N816 C819 1.332 . S
N816 C821 1.332 1_565 S
C817 C818 1.386 . S
C817 C820 1.388 1_565 S
C818 C817 1.386 . S
C818 C819 1.382 . S
C818 H844 0.950 . S
C819 N816 1.332 . S
C819 C818 1.382 . S
C819 H830 0.952 . S
C820 C817 1.388 1_545 S
C820 C821 1.382 . S
C820 H845 0.950 . S
C821 N816 1.332 1_545 S
C821 C820 1.382 . S
C821 H831 0.948 . S
N822 Co800 2.282 . S
N822 C826 1.332 . S
N822 C827 1.332 . S
C823 C824 1.388 . S
C823 C827 1.382 . S
C823 H846 0.950 . S
C824 C823 1.388 . S
C824 C825 1.386 . S
C825 C824 1.386 . S
C825 C826 1.382 . S
C825 H847 0.950 1_565 S
C826 N822 1.332 . S
C826 C825 1.382 . S
C826 H828 0.952 1_565 S
C827 N822 1.332 . S
C827 C823 1.382 . S
C827 H829 0.948 . S
H828 C826 0.952 1_545 S
H829 C827 0.948 . S
H830 C819 0.952 . S
H831 C821 0.948 . S
C832 C798 1.395 . S
C832 C802 1.391 . S
C833 C795 1.389 . S
C833 C815 1.392 . S
C834 C805 1.392 . S
C834 C807 1.389 1_545 S
C835 C810 1.395 . S
C835 C812 1.391 . S
H836 C796 0.951 . S
H837 C797 0.950 . S
H838 C803 0.949 . S
H839 C804 0.950 . S
H840 C808 0.951 . S
H841 C809 0.950 . S
H842 C813 0.949 . S
H843 C814 0.950 . S
H844 C818 0.950 . S
H845 C820 0.950 . S
H846 C823 0.950 . S
H847 C825 0.950 1_545 S
C848 C849 1.443 . S
C848 N852 1.376 . S
C848 C886 1.389 . S
C849 C848 1.443 . S
C849 C850 1.340 . S
C849 H889 0.951 . S
C850 C849 1.340 . S
C850 C851 1.439 . S
C850 H890 0.950 . S
C851 C850 1.439 . S
C851 N852 1.374 . S
C851 C885 1.395 . S
N852 C848 1.376 . S
N852 C851 1.374 . S
N852 Co853 2.008 . S
Co853 N852 2.008 . S
Co853 N854 1.995 . S
Co853 N859 2.008 . S
Co853 N864 1.995 . S
Co853 N869 2.282 . S
Co853 N875 2.282 . S
N854 Co853 1.995 . S
N854 C855 1.376 . S
N854 C858 1.383 . S
C855 N854 1.376 . S
C855 C856 1.446 . S
C855 C885 1.391 . S
C856 C855 1.446 . S
C856 C857 1.339 . S
C856 H891 0.949 . S
C857 C856 1.339 . S
C857 C858 1.439 . S
C857 H892 0.950 . S
C858 N854 1.383 . S
C858 C857 1.439 . S
C858 C887 1.392 . S
N859 Co853 2.008 . S
N859 C860 1.376 . S
N859 C863 1.374 . S
C860 N859 1.376 . S
C860 C861 1.443 . S
C860 C887 1.389 . S
C861 C860 1.443 . S
C861 C862 1.340 . S
C861 H893 0.951 . S
C862 C861 1.340 . S
C862 C863 1.439 . S
C862 H894 0.950 . S
C863 N859 1.374 . S
C863 C862 1.439 . S
C863 C888 1.395 . S
N864 Co853 1.995 . S
N864 C865 1.376 . S
N864 C868 1.383 . S
C865 N864 1.376 . S
C865 C866 1.446 . S
C865 C888 1.391 . S
C866 C865 1.446 . S
C866 C867 1.339 . S
C866 H895 0.949 . S
C867 C866 1.339 . S
C867 C868 1.439 . S
C867 H896 0.950 . S
C868 N864 1.383 . S
C868 C867 1.439 . S
C868 C886 1.392 . S
N869 Co853 2.282 . S
N869 C872 1.332 . S
N869 C874 1.332 . S
C870 C871 1.386 . S
C870 C873 1.388 . S
C871 C870 1.386 . S
C871 C872 1.382 . S
C871 H897 0.950 . S
C872 N869 1.332 . S
C872 C871 1.382 . S
C872 H883 0.952 . S
C873 C870 1.388 . S
C873 C874 1.382 . S
C873 H898 0.950 . S
C874 N869 1.332 . S
C874 C873 1.382 . S
C874 H884 0.948 . S
N875 Co853 2.282 . S
N875 C879 1.332 . S
N875 C880 1.332 . S
C876 C877 1.388 . S
C876 C880 1.382 . S
C876 H899 0.950 . S
C877 C876 1.388 . S
C877 C878 1.386 . S
C878 C877 1.386 . S
C878 C879 1.382 . S
C878 H900 0.950 . S
C879 N875 1.332 . S
C879 C878 1.382 . S
C879 H881 0.952 . S
C880 N875 1.332 . S
C880 C876 1.382 . S
C880 H882 0.948 . S
H881 C879 0.952 . S
H882 C880 0.948 . S
H883 C872 0.952 . S
H884 C874 0.948 . S
C885 C851 1.395 . S
C885 C855 1.391 . S
C886 C848 1.389 . S
C886 C868 1.392 . S
C887 C858 1.392 . S
C887 C860 1.389 . S
C888 C863 1.395 . S
C888 C865 1.391 . S
H889 C849 0.951 . S
H890 C850 0.950 . S
H891 C856 0.949 . S
H892 C857 0.950 . S
H893 C861 0.951 . S
H894 C862 0.950 . S
H895 C866 0.949 . S
H896 C867 0.950 . S
H897 C871 0.950 . S
H898 C873 0.950 . S
H899 C876 0.950 . S
H900 C878 0.950 . S
C901 C902 1.443 . S
C901 N905 1.376 . S
C901 C939 1.389 . S
C902 C901 1.443 . S
C902 C903 1.340 . S
C902 H942 0.951 . S
C903 C902 1.340 . S
C903 C904 1.439 . S
C903 H943 0.950 . S
C904 C903 1.439 . S
C904 N905 1.374 . S
C904 C938 1.395 . S
N905 C901 1.376 . S
N905 C904 1.374 . S
N905 Co906 2.008 . S
Co906 N905 2.008 . S
Co906 N907 1.995 . S
Co906 N912 2.008 . S
Co906 N917 1.995 . S
Co906 N922 2.282 . S
Co906 N928 2.282 . S
N907 Co906 1.995 . S
N907 C908 1.376 . S
N907 C911 1.383 . S
C908 N907 1.376 . S
C908 C909 1.446 . S
C908 C938 1.391 . S
C909 C908 1.446 . S
C909 C910 1.339 . S
C909 H944 0.949 . S
C910 C909 1.339 . S
C910 C911 1.439 . S
C910 H945 0.950 . S
C911 N907 1.383 . S
C911 C910 1.439 . S
C911 C940 1.392 . S
N912 Co906 2.008 . S
N912 C913 1.376 . S
N912 C916 1.374 . S
C913 N912 1.376 . S
C913 C914 1.443 . S
C913 C940 1.389 . S
C914 C913 1.443 . S
C914 C915 1.340 . S
C914 H946 0.951 . S
C915 C914 1.340 . S
C915 C916 1.439 . S
C915 H947 0.950 . S
C916 N912 1.374 . S
C916 C915 1.439 . S
C916 C941 1.395 . S
N917 Co906 1.995 . S
N917 C918 1.376 . S
N917 C921 1.383 . S
C918 N917 1.376 . S
C918 C919 1.446 . S
C918 C941 1.391 . S
C919 C918 1.446 . S
C919 C920 1.339 . S
C919 H948 0.949 . S
C920 C919 1.339 . S
C920 C921 1.439 . S
C920 H949 0.950 . S
C921 N917 1.383 . S
C921 C920 1.439 . S
C921 C939 1.392 . S
N922 Co906 2.282 . S
N922 C925 1.332 . S
N922 C927 1.332 . S
C923 C924 1.386 . S
C923 C926 1.388 . S
C924 C923 1.386 . S
C924 C925 1.382 . S
C924 H950 0.950 . S
C925 N922 1.332 . S
C925 C924 1.382 . S
C925 H936 0.952 . S
C926 C923 1.388 . S
C926 C927 1.382 . S
C926 H951 0.950 . S
C927 N922 1.332 . S
C927 C926 1.382 . S
C927 H937 0.948 . S
N928 Co906 2.282 . S
N928 C932 1.332 . S
N928 C933 1.332 . S
C929 C930 1.388 . S
C929 C933 1.382 . S
C929 H952 0.950 . S
C930 C929 1.388 . S
C930 C931 1.386 . S
C931 C930 1.386 . S
C931 C932 1.382 . S
C931 H953 0.950 . S
C932 N928 1.332 . S
C932 C931 1.382 . S
C932 H934 0.952 . S
C933 N928 1.332 . S
C933 C929 1.382 . S
C933 H935 0.948 . S
H934 C932 0.952 . S
H935 C933 0.948 . S
H936 C925 0.952 . S
H937 C927 0.948 . S
C938 C904 1.395 . S
C938 C908 1.391 . S
C939 C901 1.389 . S
C939 C921 1.392 . S
C940 C911 1.392 . S
C940 C913 1.389 . S
C941 C916 1.395 . S
C941 C918 1.391 . S
H942 C902 0.951 . S
H943 C903 0.950 . S
H944 C909 0.949 . S
H945 C910 0.950 . S
H946 C914 0.951 . S
H947 C915 0.950 . S
H948 C919 0.949 . S
H949 C920 0.950 . S
H950 C924 0.950 . S
H951 C926 0.950 . S
H952 C929 0.950 . S
H953 C931 0.950 . S
C954 C955 1.443 . S
C954 N958 1.376 . S
C954 C992 1.389 . S
C955 C954 1.443 . S
C955 C956 1.340 . S
C955 H995 0.951 . S
C956 C955 1.340 . S
C956 C957 1.439 . S
C956 H996 0.950 . S
C957 C956 1.439 . S
C957 N958 1.374 . S
C957 C991 1.395 . S
N958 C954 1.376 . S
N958 C957 1.374 . S
N958 Co959 2.008 . S
Co959 N958 2.008 . S
Co959 N960 1.995 . S
Co959 N965 2.008 . S
Co959 N970 1.995 . S
Co959 N975 2.282 . S
Co959 N981 2.282 . S
N960 Co959 1.995 . S
N960 C961 1.376 . S
N960 C964 1.383 . S
C961 N960 1.376 . S
C961 C962 1.446 . S
C961 C991 1.391 . S
C962 C961 1.446 . S
C962 C963 1.339 . S
C962 H997 0.949 . S
C963 C962 1.339 . S
C963 C964 1.439 . S
C963 H998 0.950 . S
C964 N960 1.383 . S
C964 C963 1.439 . S
C964 C993 1.392 . S
N965 Co959 2.008 . S
N965 C966 1.376 . S
N965 C969 1.374 . S
C966 N965 1.376 . S
C966 C967 1.443 . S
C966 C993 1.389 . S
C967 C966 1.443 . S
C967 C968 1.340 . S
C967 H999 0.951 . S
C968 C967 1.340 . S
C968 C969 1.439 . S
C968 H1000 0.950 . S
C969 N965 1.374 . S
C969 C968 1.439 . S
C969 C994 1.395 . S
N970 Co959 1.995 . S
N970 C971 1.376 . S
N970 C974 1.383 . S
C971 N970 1.376 . S
C971 C972 1.446 . S
C971 C994 1.391 . S
C972 C971 1.446 . S
C972 C973 1.339 . S
C972 H1001 0.949 . S
C973 C972 1.339 . S
C973 C974 1.439 . S
C973 H1002 0.950 . S
C974 N970 1.383 . S
C974 C973 1.439 . S
C974 C992 1.392 . S
N975 Co959 2.282 . S
N975 C978 1.332 . S
N975 C980 1.332 . S
C976 C977 1.386 . S
C976 C979 1.388 . S
C977 C976 1.386 . S
C977 C978 1.382 . S
C977 H1003 0.950 . S
C978 N975 1.332 . S
C978 C977 1.382 . S
C978 H989 0.952 . S
C979 C976 1.388 . S
C979 C980 1.382 . S
C979 H1004 0.950 . S
C980 N975 1.332 . S
C980 C979 1.382 . S
C980 H990 0.948 . S
N981 Co959 2.282 . S
N981 C985 1.332 . S
N981 C986 1.332 . S
C982 C983 1.388 . S
C982 C986 1.382 . S
C982 H1005 0.950 . S
C983 C982 1.388 . S
C983 C984 1.386 . S
C984 C983 1.386 . S
C984 C985 1.382 . S
C984 H1006 0.950 . S
C985 N981 1.332 . S
C985 C984 1.382 . S
C985 H987 0.952 . S
C986 N981 1.332 . S
C986 C982 1.382 . S
C986 H988 0.948 . S
H987 C985 0.952 . S
H988 C986 0.948 . S
H989 C978 0.952 . S
H990 C980 0.948 . S
C991 C957 1.395 . S
C991 C961 1.391 . S
C992 C954 1.389 . S
C992 C974 1.392 . S
C993 C964 1.392 . S
C993 C966 1.389 . S
C994 C969 1.395 . S
C994 C971 1.391 . S
H995 C955 0.951 . S
H996 C956 0.950 . S
H997 C962 0.949 . S
H998 C963 0.950 . S
H999 C967 0.951 . S
H1000 C968 0.950 . S
H1001 C972 0.949 . S
H1002 C973 0.950 . S
H1003 C977 0.950 . S
H1004 C979 0.950 . S
H1005 C982 0.950 . S
H1006 C984 0.950 . S
C1007 C1008 1.443 . S
C1007 N1011 1.376 . S
C1007 C1045 1.389 . S
C1008 C1007 1.443 . S
C1008 C1009 1.340 . S
C1008 H1048 0.951 . S
C1009 C1008 1.340 . S
C1009 C1010 1.439 . S
C1009 H1049 0.950 . S
C1010 C1009 1.439 . S
C1010 N1011 1.374 . S
C1010 C1044 1.395 . S
N1011 C1007 1.376 . S
N1011 C1010 1.374 . S
N1011 Co1012 2.008 . S
Co1012 N1011 2.008 . S
Co1012 N1013 1.995 . S
Co1012 N1018 2.008 . S
Co1012 N1023 1.995 . S
Co1012 N1028 2.282 . S
Co1012 N1034 2.282 . S
N1013 Co1012 1.995 . S
N1013 C1014 1.376 . S
N1013 C1017 1.383 . S
C1014 N1013 1.376 . S
C1014 C1015 1.446 . S
C1014 C1044 1.391 . S
C1015 C1014 1.446 . S
C1015 C1016 1.339 . S
C1015 H1050 0.949 . S
C1016 C1015 1.339 . S
C1016 C1017 1.439 . S
C1016 H1051 0.950 . S
C1017 N1013 1.383 . S
C1017 C1016 1.439 . S
C1017 C1046 1.392 . S
N1018 Co1012 2.008 . S
N1018 C1019 1.376 . S
N1018 C1022 1.374 . S
C1019 N1018 1.376 . S
C1019 C1020 1.443 . S
C1019 C1046 1.389 . S
C1020 C1019 1.443 . S
C1020 C1021 1.340 . S
C1020 H1052 0.951 . S
C1021 C1020 1.340 . S
C1021 C1022 1.439 . S
C1021 H1053 0.950 . S
C1022 N1018 1.374 . S
C1022 C1021 1.439 . S
C1022 C1047 1.395 . S
N1023 Co1012 1.995 . S
N1023 C1024 1.376 . S
N1023 C1027 1.383 . S
C1024 N1023 1.376 . S
C1024 C1025 1.446 . S
C1024 C1047 1.391 . S
C1025 C1024 1.446 . S
C1025 C1026 1.339 . S
C1025 H1054 0.949 . S
C1026 C1025 1.339 . S
C1026 C1027 1.439 . S
C1026 H1055 0.950 . S
C1027 N1023 1.383 . S
C1027 C1026 1.439 . S
C1027 C1045 1.392 . S
N1028 Co1012 2.282 . S
N1028 C1031 1.332 . S
N1028 C1033 1.332 . S
C1029 C1030 1.386 . S
C1029 C1032 1.388 . S
C1030 C1029 1.386 . S
C1030 C1031 1.382 . S
C1030 H1056 0.950 . S
C1031 N1028 1.332 . S
C1031 C1030 1.382 . S
C1031 H1042 0.952 . S
C1032 C1029 1.388 . S
C1032 C1033 1.382 . S
C1032 H1057 0.950 . S
C1033 N1028 1.332 . S
C1033 C1032 1.382 . S
C1033 H1043 0.948 . S
N1034 Co1012 2.282 . S
N1034 C1038 1.332 . S
N1034 C1039 1.332 . S
C1035 C1036 1.388 . S
C1035 C1039 1.382 . S
C1035 H1058 0.950 . S
C1036 C1035 1.388 . S
C1036 C1037 1.386 . S
C1037 C1036 1.386 . S
C1037 C1038 1.382 . S
C1037 H1059 0.950 . S
C1038 N1034 1.332 . S
C1038 C1037 1.382 . S
C1038 H1040 0.952 . S
C1039 N1034 1.332 . S
C1039 C1035 1.382 . S
C1039 H1041 0.948 . S
H1040 C1038 0.952 . S
H1041 C1039 0.948 . S
H1042 C1031 0.952 . S
H1043 C1033 0.948 . S
C1044 C1010 1.395 . S
C1044 C1014 1.391 . S
C1045 C1007 1.389 . S
C1045 C1027 1.392 . S
C1046 C1017 1.392 . S
C1046 C1019 1.389 . S
C1047 C1022 1.395 . S
C1047 C1024 1.391 . S
H1048 C1008 0.951 . S
H1049 C1009 0.950 . S
H1050 C1015 0.949 . S
H1051 C1016 0.950 . S
H1052 C1020 0.951 . S
H1053 C1021 0.950 . S
H1054 C1025 0.949 . S
H1055 C1026 0.950 . S
H1056 C1030 0.950 . S
H1057 C1032 0.950 . S
H1058 C1035 0.950 . S
H1059 C1037 0.950 . S
C1060 C1061 1.443 . S
C1060 N1064 1.376 . S
C1060 C1098 1.389 . S
C1061 C1060 1.443 . S
C1061 C1062 1.340 . S
C1061 H1101 0.951 . S
C1062 C1061 1.340 . S
C1062 C1063 1.439 . S
C1062 H1102 0.950 . S
C1063 C1062 1.439 . S
C1063 N1064 1.374 . S
C1063 C1097 1.395 . S
N1064 C1060 1.376 . S
N1064 C1063 1.374 . S
N1064 Co1065 2.008 . S
Co1065 N1064 2.008 . S
Co1065 N1066 1.995 . S
Co1065 N1071 2.008 . S
Co1065 N1076 1.995 . S
Co1065 N1081 2.282 . S
Co1065 N1087 2.282 . S
N1066 Co1065 1.995 . S
N1066 C1067 1.376 . S
N1066 C1070 1.383 . S
C1067 N1066 1.376 . S
C1067 C1068 1.446 . S
C1067 C1097 1.391 . S
C1068 C1067 1.446 . S
C1068 C1069 1.339 . S
C1068 H1103 0.949 . S
C1069 C1068 1.339 . S
C1069 C1070 1.439 . S
C1069 H1104 0.950 . S
C1070 N1066 1.383 . S
C1070 C1069 1.439 . S
C1070 C1099 1.392 . S
N1071 Co1065 2.008 . S
N1071 C1072 1.376 . S
N1071 C1075 1.374 . S
C1072 N1071 1.376 . S
C1072 C1073 1.443 . S
C1072 C1099 1.389 . S
C1073 C1072 1.443 . S
C1073 C1074 1.340 . S
C1073 H1105 0.951 . S
C1074 C1073 1.340 . S
C1074 C1075 1.439 . S
C1074 H1106 0.950 . S
C1075 N1071 1.374 . S
C1075 C1074 1.439 . S
C1075 C1100 1.395 . S
N1076 Co1065 1.995 . S
N1076 C1077 1.376 . S
N1076 C1080 1.383 . S
C1077 N1076 1.376 . S
C1077 C1078 1.446 . S
C1077 C1100 1.391 . S
C1078 C1077 1.446 . S
C1078 C1079 1.339 . S
C1078 H1107 0.949 . S
C1079 C1078 1.339 . S
C1079 C1080 1.439 . S
C1079 H1108 0.950 . S
C1080 N1076 1.383 . S
C1080 C1079 1.439 . S
C1080 C1098 1.392 . S
N1081 Co1065 2.282 . S
N1081 C1084 1.332 . S
N1081 C1086 1.332 . S
C1082 C1083 1.386 . S
C1082 C1085 1.388 . S
C1083 C1082 1.386 . S
C1083 C1084 1.382 . S
C1083 H1109 0.950 . S
C1084 N1081 1.332 . S
C1084 C1083 1.382 . S
C1084 H1095 0.952 . S
C1085 C1082 1.388 . S
C1085 C1086 1.382 . S
C1085 H1110 0.950 . S
C1086 N1081 1.332 . S
C1086 C1085 1.382 . S
C1086 H1096 0.948 . S
N1087 Co1065 2.282 . S
N1087 C1091 1.332 . S
N1087 C1092 1.332 . S
C1088 C1089 1.388 . S
C1088 C1092 1.382 . S
C1088 H1111 0.950 . S
C1089 C1088 1.388 . S
C1089 C1090 1.386 . S
C1090 C1089 1.386 . S
C1090 C1091 1.382 . S
C1090 H1112 0.950 . S
C1091 N1087 1.332 . S
C1091 C1090 1.382 . S
C1091 H1093 0.952 . S
C1092 N1087 1.332 . S
C1092 C1088 1.382 . S
C1092 H1094 0.948 . S
H1093 C1091 0.952 . S
H1094 C1092 0.948 . S
H1095 C1084 0.952 . S
H1096 C1086 0.948 . S
C1097 C1063 1.395 . S
C1097 C1067 1.391 . S
C1098 C1060 1.389 . S
C1098 C1080 1.392 . S
C1099 C1070 1.392 . S
C1099 C1072 1.389 . S
C1100 C1075 1.395 . S
C1100 C1077 1.391 . S
H1101 C1061 0.951 . S
H1102 C1062 0.950 . S
H1103 C1068 0.949 . S
H1104 C1069 0.950 . S
H1105 C1073 0.951 . S
H1106 C1074 0.950 . S
H1107 C1078 0.949 . S
H1108 C1079 0.950 . S
H1109 C1083 0.950 . S
H1110 C1085 0.950 . S
H1111 C1088 0.950 . S
H1112 C1090 0.950 . S
C1113 C1114 1.443 . S
C1113 N1117 1.376 . S
C1113 C1151 1.389 . S
C1114 C1113 1.443 . S
C1114 C1115 1.340 . S
C1114 H1154 0.951 . S
C1115 C1114 1.340 . S
C1115 C1116 1.439 . S
C1115 H1155 0.950 . S
C1116 C1115 1.439 . S
C1116 N1117 1.374 . S
C1116 C1150 1.395 . S
N1117 C1113 1.376 . S
N1117 C1116 1.374 . S
N1117 Co1118 2.008 . S
Co1118 N1117 2.008 . S
Co1118 N1119 1.995 . S
Co1118 N1124 2.008 . S
Co1118 N1129 1.995 . S
Co1118 N1134 2.282 . S
Co1118 N1140 2.282 . S
N1119 Co1118 1.995 . S
N1119 C1120 1.376 . S
N1119 C1123 1.383 . S
C1120 N1119 1.376 . S
C1120 C1121 1.446 . S
C1120 C1150 1.391 . S
C1121 C1120 1.446 . S
C1121 C1122 1.339 . S
C1121 H1156 0.949 . S
C1122 C1121 1.339 . S
C1122 C1123 1.439 . S
C1122 H1157 0.950 . S
C1123 N1119 1.383 . S
C1123 C1122 1.439 . S
C1123 C1152 1.392 . S
N1124 Co1118 2.008 . S
N1124 C1125 1.376 . S
N1124 C1128 1.374 . S
C1125 N1124 1.376 . S
C1125 C1126 1.443 . S
C1125 C1152 1.389 . S
C1126 C1125 1.443 . S
C1126 C1127 1.340 . S
C1126 H1158 0.951 . S
C1127 C1126 1.340 . S
C1127 C1128 1.439 . S
C1127 H1159 0.950 . S
C1128 N1124 1.374 . S
C1128 C1127 1.439 . S
C1128 C1153 1.395 . S
N1129 Co1118 1.995 . S
N1129 C1130 1.376 . S
N1129 C1133 1.383 . S
C1130 N1129 1.376 . S
C1130 C1131 1.446 . S
C1130 C1153 1.391 . S
C1131 C1130 1.446 . S
C1131 C1132 1.339 . S
C1131 H1160 0.949 . S
C1132 C1131 1.339 . S
C1132 C1133 1.439 . S
C1132 H1161 0.950 . S
C1133 N1129 1.383 . S
C1133 C1132 1.439 . S
C1133 C1151 1.392 . S
N1134 Co1118 2.282 . S
N1134 C1137 1.332 . S
N1134 C1139 1.332 . S
C1135 C1136 1.386 . S
C1135 C1138 1.388 . S
C1136 C1135 1.386 . S
C1136 C1137 1.382 . S
C1136 H1162 0.950 . S
C1137 N1134 1.332 . S
C1137 C1136 1.382 . S
C1137 H1148 0.952 . S
C1138 C1135 1.388 . S
C1138 C1139 1.382 . S
C1138 H1163 0.950 . S
C1139 N1134 1.332 . S
C1139 C1138 1.382 . S
C1139 H1149 0.948 . S
N1140 Co1118 2.282 . S
N1140 C1144 1.332 . S
N1140 C1145 1.332 . S
C1141 C1142 1.388 . S
C1141 C1145 1.382 . S
C1141 H1164 0.950 . S
C1142 C1141 1.388 . S
C1142 C1143 1.386 . S
C1143 C1142 1.386 . S
C1143 C1144 1.382 . S
C1143 H1165 0.950 . S
C1144 N1140 1.332 . S
C1144 C1143 1.382 . S
C1144 H1146 0.952 . S
C1145 N1140 1.332 . S
C1145 C1141 1.382 . S
C1145 H1147 0.948 . S
H1146 C1144 0.952 . S
H1147 C1145 0.948 . S
H1148 C1137 0.952 . S
H1149 C1139 0.948 . S
C1150 C1116 1.395 . S
C1150 C1120 1.391 . S
C1151 C1113 1.389 . S
C1151 C1133 1.392 . S
C1152 C1123 1.392 . S
C1152 C1125 1.389 . S
C1153 C1128 1.395 . S
C1153 C1130 1.391 . S
H1154 C1114 0.951 . S
H1155 C1115 0.950 . S
H1156 C1121 0.949 . S
H1157 C1122 0.950 . S
H1158 C1126 0.951 . S
H1159 C1127 0.950 . S
H1160 C1131 0.949 . S
H1161 C1132 0.950 . S
H1162 C1136 0.950 . S
H1163 C1138 0.950 . S
H1164 C1141 0.950 . S
H1165 C1143 0.950 . S
C1166 C1167 1.443 . S
C1166 N1170 1.376 . S
C1166 C1204 1.389 . S
C1167 C1166 1.443 . S
C1167 C1168 1.340 . S
C1167 H1207 0.951 . S
C1168 C1167 1.340 . S
C1168 C1169 1.439 . S
C1168 H1208 0.950 . S
C1169 C1168 1.439 . S
C1169 N1170 1.374 . S
C1169 C1203 1.395 . S
N1170 C1166 1.376 . S
N1170 C1169 1.374 . S
N1170 Co1171 2.008 . S
Co1171 N1170 2.008 . S
Co1171 N1172 1.995 . S
Co1171 N1177 2.008 . S
Co1171 N1182 1.995 . S
Co1171 N1187 2.282 . S
Co1171 N1193 2.282 . S
N1172 Co1171 1.995 . S
N1172 C1173 1.376 . S
N1172 C1176 1.383 . S
C1173 N1172 1.376 . S
C1173 C1174 1.446 . S
C1173 C1203 1.391 . S
C1174 C1173 1.446 . S
C1174 C1175 1.339 . S
C1174 H1209 0.949 . S
C1175 C1174 1.339 . S
C1175 C1176 1.439 . S
C1175 H1210 0.950 . S
C1176 N1172 1.383 . S
C1176 C1175 1.439 . S
C1176 C1205 1.392 . S
N1177 Co1171 2.008 . S
N1177 C1178 1.376 . S
N1177 C1181 1.374 . S
C1178 N1177 1.376 . S
C1178 C1179 1.443 . S
C1178 C1205 1.389 . S
C1179 C1178 1.443 . S
C1179 C1180 1.340 . S
C1179 H1211 0.951 . S
C1180 C1179 1.340 . S
C1180 C1181 1.439 . S
C1180 H1212 0.950 . S
C1181 N1177 1.374 . S
C1181 C1180 1.439 . S
C1181 C1206 1.395 . S
N1182 Co1171 1.995 . S
N1182 C1183 1.376 . S
N1182 C1186 1.383 . S
C1183 N1182 1.376 . S
C1183 C1184 1.446 . S
C1183 C1206 1.391 . S
C1184 C1183 1.446 . S
C1184 C1185 1.339 . S
C1184 H1213 0.949 . S
C1185 C1184 1.339 . S
C1185 C1186 1.439 . S
C1185 H1214 0.950 . S
C1186 N1182 1.383 . S
C1186 C1185 1.439 . S
C1186 C1204 1.392 . S
N1187 Co1171 2.282 . S
N1187 C1190 1.332 . S
N1187 C1192 1.332 . S
C1188 C1189 1.386 . S
C1188 C1191 1.388 . S
C1189 C1188 1.386 . S
C1189 C1190 1.382 . S
C1189 H1215 0.950 . S
C1190 N1187 1.332 . S
C1190 C1189 1.382 . S
C1190 H1201 0.952 . S
C1191 C1188 1.388 . S
C1191 C1192 1.382 . S
C1191 H1216 0.950 . S
C1192 N1187 1.332 . S
C1192 C1191 1.382 . S
C1192 H1202 0.948 . S
N1193 Co1171 2.282 . S
N1193 C1197 1.332 . S
N1193 C1198 1.332 . S
C1194 C1195 1.388 . S
C1194 C1198 1.382 . S
C1194 H1217 0.950 . S
C1195 C1194 1.388 . S
C1195 C1196 1.386 . S
C1196 C1195 1.386 . S
C1196 C1197 1.382 . S
C1196 H1218 0.950 . S
C1197 N1193 1.332 . S
C1197 C1196 1.382 . S
C1197 H1199 0.952 . S
C1198 N1193 1.332 . S
C1198 C1194 1.382 . S
C1198 H1200 0.948 . S
H1199 C1197 0.952 . S
H1200 C1198 0.948 . S
H1201 C1190 0.952 . S
H1202 C1192 0.948 . S
C1203 C1169 1.395 . S
C1203 C1173 1.391 . S
C1204 C1166 1.389 . S
C1204 C1186 1.392 . S
C1205 C1176 1.392 . S
C1205 C1178 1.389 . S
C1206 C1181 1.395 . S
C1206 C1183 1.391 . S
H1207 C1167 0.951 . S
H1208 C1168 0.950 . S
H1209 C1174 0.949 . S
H1210 C1175 0.950 . S
H1211 C1179 0.951 . S
H1212 C1180 0.950 . S
H1213 C1184 0.949 . S
H1214 C1185 0.950 . S
H1215 C1189 0.950 . S
H1216 C1191 0.950 . S
H1217 C1194 0.950 . S
H1218 C1196 0.950 . S
C1219 C1220 1.443 . S
C1219 N1223 1.376 . S
C1219 C1257 1.389 . S
C1220 C1219 1.443 . S
C1220 C1221 1.340 . S
C1220 H1260 0.951 . S
C1221 C1220 1.340 . S
C1221 C1222 1.439 . S
C1221 H1261 0.950 . S
C1222 C1221 1.439 . S
C1222 N1223 1.374 . S
C1222 C1256 1.395 . S
N1223 C1219 1.376 . S
N1223 C1222 1.374 . S
N1223 Co1224 2.008 . S
Co1224 N1223 2.008 . S
Co1224 N1225 1.995 . S
Co1224 N1230 2.008 . S
Co1224 N1235 1.995 . S
Co1224 N1240 2.282 . S
Co1224 N1246 2.282 . S
N1225 Co1224 1.995 . S
N1225 C1226 1.376 . S
N1225 C1229 1.383 . S
C1226 N1225 1.376 . S
C1226 C1227 1.446 . S
C1226 C1256 1.391 . S
C1227 C1226 1.446 . S
C1227 C1228 1.339 . S
C1227 H1262 0.949 . S
C1228 C1227 1.339 . S
C1228 C1229 1.439 . S
C1228 H1263 0.950 . S
C1229 N1225 1.383 . S
C1229 C1228 1.439 . S
C1229 C1258 1.392 . S
N1230 Co1224 2.008 . S
N1230 C1231 1.376 . S
N1230 C1234 1.374 . S
C1231 N1230 1.376 . S
C1231 C1232 1.443 . S
C1231 C1258 1.389 . S
C1232 C1231 1.443 . S
C1232 C1233 1.340 . S
C1232 H1264 0.951 . S
C1233 C1232 1.340 . S
C1233 C1234 1.439 . S
C1233 H1265 0.950 . S
C1234 N1230 1.374 . S
C1234 C1233 1.439 . S
C1234 C1259 1.395 . S
N1235 Co1224 1.995 . S
N1235 C1236 1.376 . S
N1235 C1239 1.383 . S
C1236 N1235 1.376 . S
C1236 C1237 1.446 . S
C1236 C1259 1.391 . S
C1237 C1236 1.446 . S
C1237 C1238 1.339 . S
C1237 H1266 0.949 . S
C1238 C1237 1.339 . S
C1238 C1239 1.439 . S
C1238 H1267 0.950 . S
C1239 N1235 1.383 . S
C1239 C1238 1.439 . S
C1239 C1257 1.392 . S
N1240 Co1224 2.282 . S
N1240 C1243 1.332 . S
N1240 C1245 1.332 . S
C1241 C1242 1.386 . S
C1241 C1244 1.388 . S
C1242 C1241 1.386 . S
C1242 C1243 1.382 . S
C1242 H1268 0.950 . S
C1243 N1240 1.332 . S
C1243 C1242 1.382 . S
C1243 H1254 0.952 . S
C1244 C1241 1.388 . S
C1244 C1245 1.382 . S
C1244 H1269 0.950 . S
C1245 N1240 1.332 . S
C1245 C1244 1.382 . S
C1245 H1255 0.948 . S
N1246 Co1224 2.282 . S
N1246 C1250 1.332 . S
N1246 C1251 1.332 . S
C1247 C1248 1.388 . S
C1247 C1251 1.382 . S
C1247 H1270 0.950 . S
C1248 C1247 1.388 . S
C1248 C1249 1.386 . S
C1249 C1248 1.386 . S
C1249 C1250 1.382 . S
C1249 H1271 0.950 . S
C1250 N1246 1.332 . S
C1250 C1249 1.382 . S
C1250 H1252 0.952 . S
C1251 N1246 1.332 . S
C1251 C1247 1.382 . S
C1251 H1253 0.948 . S
H1252 C1250 0.952 . S
H1253 C1251 0.948 . S
H1254 C1243 0.952 . S
H1255 C1245 0.948 . S
C1256 C1222 1.395 . S
C1256 C1226 1.391 . S
C1257 C1219 1.389 . S
C1257 C1239 1.392 . S
C1258 C1229 1.392 . S
C1258 C1231 1.389 . S
C1259 C1234 1.395 . S
C1259 C1236 1.391 . S
H1260 C1220 0.951 . S
H1261 C1221 0.950 . S
H1262 C1227 0.949 . S
H1263 C1228 0.950 . S
H1264 C1232 0.951 . S
H1265 C1233 0.950 . S
H1266 C1237 0.949 . S
H1267 C1238 0.950 . S
H1268 C1242 0.950 . S
H1269 C1244 0.950 . S
H1270 C1247 0.950 . S
H1271 C1249 0.950 . S
C1272 C1273 1.443 . S
C1272 N1276 1.376 . S
C1272 C1310 1.389 . S
C1273 C1272 1.443 . S
C1273 C1274 1.340 . S
C1273 H1313 0.951 . S
C1274 C1273 1.340 . S
C1274 C1275 1.439 . S
C1274 H1314 0.950 . S
C1275 C1274 1.439 . S
C1275 N1276 1.374 . S
C1275 C1309 1.395 . S
N1276 C1272 1.376 . S
N1276 C1275 1.374 . S
N1276 Co1277 2.008 . S
Co1277 N1276 2.008 . S
Co1277 N1278 1.995 . S
Co1277 N1283 2.008 . S
Co1277 N1288 1.995 . S
Co1277 N1293 2.282 . S
Co1277 N1299 2.282 . S
N1278 Co1277 1.995 . S
N1278 C1279 1.376 . S
N1278 C1282 1.383 . S
C1279 N1278 1.376 . S
C1279 C1280 1.446 . S
C1279 C1309 1.391 . S
C1280 C1279 1.446 . S
C1280 C1281 1.339 . S
C1280 H1315 0.949 . S
C1281 C1280 1.339 . S
C1281 C1282 1.439 . S
C1281 H1316 0.950 . S
C1282 N1278 1.383 . S
C1282 C1281 1.439 . S
C1282 C1311 1.392 . S
N1283 Co1277 2.008 . S
N1283 C1284 1.376 . S
N1283 C1287 1.374 . S
C1284 N1283 1.376 . S
C1284 C1285 1.443 . S
C1284 C1311 1.389 . S
C1285 C1284 1.443 . S
C1285 C1286 1.340 . S
C1285 H1317 0.951 . S
C1286 C1285 1.340 . S
C1286 C1287 1.439 . S
C1286 H1318 0.950 . S
C1287 N1283 1.374 . S
C1287 C1286 1.439 . S
C1287 C1312 1.395 . S
N1288 Co1277 1.995 . S
N1288 C1289 1.376 . S
N1288 C1292 1.383 . S
C1289 N1288 1.376 . S
C1289 C1290 1.446 . S
C1289 C1312 1.391 . S
C1290 C1289 1.446 . S
C1290 C1291 1.339 . S
C1290 H1319 0.949 . S
C1291 C1290 1.339 . S
C1291 C1292 1.439 . S
C1291 H1320 0.950 . S
C1292 N1288 1.383 . S
C1292 C1291 1.439 . S
C1292 C1310 1.392 . S
N1293 Co1277 2.282 . S
N1293 C1296 1.332 . S
N1293 C1298 1.332 . S
C1294 C1295 1.386 . S
C1294 C1297 1.388 . S
C1295 C1294 1.386 . S
C1295 C1296 1.382 . S
C1295 H1321 0.950 . S
C1296 N1293 1.332 . S
C1296 C1295 1.382 . S
C1296 H1307 0.952 . S
C1297 C1294 1.388 . S
C1297 C1298 1.382 . S
C1297 H1322 0.950 . S
C1298 N1293 1.332 . S
C1298 C1297 1.382 . S
C1298 H1308 0.948 . S
N1299 Co1277 2.282 . S
N1299 C1303 1.332 . S
N1299 C1304 1.332 . S
C1300 C1301 1.388 . S
C1300 C1304 1.382 . S
C1300 H1323 0.950 . S
C1301 C1300 1.388 . S
C1301 C1302 1.386 . S
C1302 C1301 1.386 . S
C1302 C1303 1.382 . S
C1302 H1324 0.950 . S
C1303 N1299 1.332 . S
C1303 C1302 1.382 . S
C1303 H1305 0.952 . S
C1304 N1299 1.332 . S
C1304 C1300 1.382 . S
C1304 H1306 0.948 . S
H1305 C1303 0.952 . S
H1306 C1304 0.948 . S
H1307 C1296 0.952 . S
H1308 C1298 0.948 . S
C1309 C1275 1.395 . S
C1309 C1279 1.391 . S
C1310 C1272 1.389 . S
C1310 C1292 1.392 . S
C1311 C1282 1.392 . S
C1311 C1284 1.389 . S
C1312 C1287 1.395 . S
C1312 C1289 1.391 . S
H1313 C1273 0.951 . S
H1314 C1274 0.950 . S
H1315 C1280 0.949 . S
H1316 C1281 0.950 . S
H1317 C1285 0.951 . S
H1318 C1286 0.950 . S
H1319 C1290 0.949 . S
H1320 C1291 0.950 . S
H1321 C1295 0.950 . S
H1322 C1297 0.950 . S
H1323 C1300 0.950 . S
H1324 C1302 0.950 . S
C1325 C1326 1.443 . S
C1325 N1329 1.376 . S
C1325 C1363 1.389 . S
C1326 C1325 1.443 . S
C1326 C1327 1.340 . S
C1326 H1366 0.951 . S
C1327 C1326 1.340 . S
C1327 C1328 1.439 . S
C1327 H1367 0.950 . S
C1328 C1327 1.439 . S
C1328 N1329 1.374 . S
C1328 C1362 1.395 . S
N1329 C1325 1.376 . S
N1329 C1328 1.374 . S
N1329 Co1330 2.008 . S
Co1330 N1329 2.008 . S
Co1330 N1331 1.995 . S
Co1330 N1336 2.008 . S
Co1330 N1341 1.995 . S
Co1330 N1346 2.282 . S
Co1330 N1352 2.282 . S
N1331 Co1330 1.995 . S
N1331 C1332 1.376 . S
N1331 C1335 1.383 . S
C1332 N1331 1.376 . S
C1332 C1333 1.446 . S
C1332 C1362 1.391 . S
C1333 C1332 1.446 . S
C1333 C1334 1.339 . S
C1333 H1368 0.949 . S
C1334 C1333 1.339 . S
C1334 C1335 1.439 . S
C1334 H1369 0.950 . S
C1335 N1331 1.383 . S
C1335 C1334 1.439 . S
C1335 C1364 1.392 . S
N1336 Co1330 2.008 . S
N1336 C1337 1.376 . S
N1336 C1340 1.374 . S
C1337 N1336 1.376 . S
C1337 C1338 1.443 . S
C1337 C1364 1.389 . S
C1338 C1337 1.443 . S
C1338 C1339 1.340 . S
C1338 H1370 0.951 . S
C1339 C1338 1.340 . S
C1339 C1340 1.439 . S
C1339 H1371 0.950 . S
C1340 N1336 1.374 . S
C1340 C1339 1.439 . S
C1340 C1365 1.395 . S
N1341 Co1330 1.995 . S
N1341 C1342 1.376 . S
N1341 C1345 1.383 . S
C1342 N1341 1.376 . S
C1342 C1343 1.446 . S
C1342 C1365 1.391 . S
C1343 C1342 1.446 . S
C1343 C1344 1.339 . S
C1343 H1372 0.949 . S
C1344 C1343 1.339 . S
C1344 C1345 1.439 . S
C1344 H1373 0.950 . S
C1345 N1341 1.383 . S
C1345 C1344 1.439 . S
C1345 C1363 1.392 . S
N1346 Co1330 2.282 . S
N1346 C1349 1.332 . S
N1346 C1351 1.332 . S
C1347 C1348 1.386 . S
C1347 C1350 1.388 . S
C1348 C1347 1.386 . S
C1348 C1349 1.382 . S
C1348 H1374 0.950 . S
C1349 N1346 1.332 . S
C1349 C1348 1.382 . S
C1349 H1360 0.952 . S
C1350 C1347 1.388 . S
C1350 C1351 1.382 . S
C1350 H1375 0.950 . S
C1351 N1346 1.332 . S
C1351 C1350 1.382 . S
C1351 H1361 0.948 . S
N1352 Co1330 2.282 . S
N1352 C1356 1.332 . S
N1352 C1357 1.332 . S
C1353 C1354 1.388 . S
C1353 C1357 1.382 . S
C1353 H1376 0.950 . S
C1354 C1353 1.388 . S
C1354 C1355 1.386 . S
C1355 C1354 1.386 . S
C1355 C1356 1.382 . S
C1355 H1377 0.950 . S
C1356 N1352 1.332 . S
C1356 C1355 1.382 . S
C1356 H1358 0.952 . S
C1357 N1352 1.332 . S
C1357 C1353 1.382 . S
C1357 H1359 0.948 . S
H1358 C1356 0.952 . S
H1359 C1357 0.948 . S
H1360 C1349 0.952 . S
H1361 C1351 0.948 . S
C1362 C1328 1.395 . S
C1362 C1332 1.391 . S
C1363 C1325 1.389 . S
C1363 C1345 1.392 . S
C1364 C1335 1.392 . S
C1364 C1337 1.389 . S
C1365 C1340 1.395 . S
C1365 C1342 1.391 . S
H1366 C1326 0.951 . S
H1367 C1327 0.950 . S
H1368 C1333 0.949 . S
H1369 C1334 0.950 . S
H1370 C1338 0.951 . S
H1371 C1339 0.950 . S
H1372 C1343 0.949 . S
H1373 C1344 0.950 . S
H1374 C1348 0.950 . S
H1375 C1350 0.950 . S
H1376 C1353 0.950 . S
H1377 C1355 0.950 . S
C1378 C1379 1.443 . S
C1378 N1382 1.376 . S
C1378 C1416 1.389 . S
C1379 C1378 1.443 . S
C1379 C1380 1.340 . S
C1379 H1419 0.951 . S
C1380 C1379 1.340 . S
C1380 C1381 1.439 . S
C1380 H1420 0.950 . S
C1381 C1380 1.439 . S
C1381 N1382 1.374 . S
C1381 C1415 1.395 . S
N1382 C1378 1.376 . S
N1382 C1381 1.374 . S
N1382 Co1383 2.008 . S
Co1383 N1382 2.008 . S
Co1383 N1384 1.995 . S
Co1383 N1389 2.008 . S
Co1383 N1394 1.995 . S
Co1383 N1399 2.282 . S
Co1383 N1405 2.282 . S
N1384 Co1383 1.995 . S
N1384 C1385 1.376 . S
N1384 C1388 1.383 . S
C1385 N1384 1.376 . S
C1385 C1386 1.446 . S
C1385 C1415 1.391 . S
C1386 C1385 1.446 . S
C1386 C1387 1.339 . S
C1386 H1421 0.949 . S
C1387 C1386 1.339 . S
C1387 C1388 1.439 . S
C1387 H1422 0.950 . S
C1388 N1384 1.383 . S
C1388 C1387 1.439 . S
C1388 C1417 1.392 . S
N1389 Co1383 2.008 . S
N1389 C1390 1.376 . S
N1389 C1393 1.374 . S
C1390 N1389 1.376 . S
C1390 C1391 1.443 . S
C1390 C1417 1.389 . S
C1391 C1390 1.443 . S
C1391 C1392 1.340 . S
C1391 H1423 0.951 . S
C1392 C1391 1.340 . S
C1392 C1393 1.439 . S
C1392 H1424 0.950 . S
C1393 N1389 1.374 . S
C1393 C1392 1.439 . S
C1393 C1418 1.395 . S
N1394 Co1383 1.995 . S
N1394 C1395 1.376 . S
N1394 C1398 1.383 . S
C1395 N1394 1.376 . S
C1395 C1396 1.446 . S
C1395 C1418 1.391 . S
C1396 C1395 1.446 . S
C1396 C1397 1.339 . S
C1396 H1425 0.949 . S
C1397 C1396 1.339 . S
C1397 C1398 1.439 . S
C1397 H1426 0.950 . S
C1398 N1394 1.383 . S
C1398 C1397 1.439 . S
C1398 C1416 1.392 . S
N1399 Co1383 2.282 . S
N1399 C1402 1.332 . S
N1399 C1404 1.332 . S
C1400 C1401 1.386 . S
C1400 C1403 1.388 . S
C1401 C1400 1.386 . S
C1401 C1402 1.382 . S
C1401 H1427 0.950 . S
C1402 N1399 1.332 . S
C1402 C1401 1.382 . S
C1402 H1413 0.952 . S
C1403 C1400 1.388 . S
C1403 C1404 1.382 . S
C1403 H1428 0.950 . S
C1404 N1399 1.332 . S
C1404 C1403 1.382 . S
C1404 H1414 0.948 . S
N1405 Co1383 2.282 . S
N1405 C1409 1.332 . S
N1405 C1410 1.332 . S
C1406 C1407 1.388 . S
C1406 C1410 1.382 . S
C1406 H1429 0.950 . S
C1407 C1406 1.388 . S
C1407 C1408 1.386 . S
C1408 C1407 1.386 . S
C1408 C1409 1.382 . S
C1408 H1430 0.950 . S
C1409 N1405 1.332 . S
C1409 C1408 1.382 . S
C1409 H1411 0.952 . S
C1410 N1405 1.332 . S
C1410 C1406 1.382 . S
C1410 H1412 0.948 . S
H1411 C1409 0.952 . S
H1412 C1410 0.948 . S
H1413 C1402 0.952 . S
H1414 C1404 0.948 . S
C1415 C1381 1.395 . S
C1415 C1385 1.391 . S
C1416 C1378 1.389 . S
C1416 C1398 1.392 . S
C1417 C1388 1.392 . S
C1417 C1390 1.389 . S
C1418 C1393 1.395 . S
C1418 C1395 1.391 . S
H1419 C1379 0.951 . S
H1420 C1380 0.950 . S
H1421 C1386 0.949 . S
H1422 C1387 0.950 . S
H1423 C1391 0.951 . S
H1424 C1392 0.950 . S
H1425 C1396 0.949 . S
H1426 C1397 0.950 . S
H1427 C1401 0.950 . S
H1428 C1403 0.950 . S
H1429 C1406 0.950 . S
H1430 C1408 0.950 . S
C1431 C1432 1.443 . S
C1431 N1435 1.376 . S
C1431 C1469 1.389 . S
C1432 C1431 1.443 . S
C1432 C1433 1.340 . S
C1432 H1472 0.951 . S
C1433 C1432 1.340 . S
C1433 C1434 1.439 . S
C1433 H1473 0.950 . S
C1434 C1433 1.439 . S
C1434 N1435 1.374 . S
C1434 C1468 1.395 . S
N1435 C1431 1.376 . S
N1435 C1434 1.374 . S
N1435 Co1436 2.008 . S
Co1436 N1435 2.008 . S
Co1436 N1437 1.995 . S
Co1436 N1442 2.008 . S
Co1436 N1447 1.995 . S
Co1436 N1452 2.282 . S
Co1436 N1458 2.282 . S
N1437 Co1436 1.995 . S
N1437 C1438 1.376 . S
N1437 C1441 1.383 . S
C1438 N1437 1.376 . S
C1438 C1439 1.446 . S
C1438 C1468 1.391 . S
C1439 C1438 1.446 . S
C1439 C1440 1.339 . S
C1439 H1474 0.949 . S
C1440 C1439 1.339 . S
C1440 C1441 1.439 . S
C1440 H1475 0.950 . S
C1441 N1437 1.383 . S
C1441 C1440 1.439 . S
C1441 C1470 1.392 . S
N1442 Co1436 2.008 . S
N1442 C1443 1.376 . S
N1442 C1446 1.374 . S
C1443 N1442 1.376 . S
C1443 C1444 1.443 . S
C1443 C1470 1.389 . S
C1444 C1443 1.443 . S
C1444 C1445 1.340 . S
C1444 H1476 0.951 . S
C1445 C1444 1.340 . S
C1445 C1446 1.439 . S
C1445 H1477 0.950 . S
C1446 N1442 1.374 . S
C1446 C1445 1.439 . S
C1446 C1471 1.395 . S
N1447 Co1436 1.995 . S
N1447 C1448 1.376 . S
N1447 C1451 1.383 . S
C1448 N1447 1.376 . S
C1448 C1449 1.446 . S
C1448 C1471 1.391 . S
C1449 C1448 1.446 . S
C1449 C1450 1.339 . S
C1449 H1478 0.949 . S
C1450 C1449 1.339 . S
C1450 C1451 1.439 . S
C1450 H1479 0.950 . S
C1451 N1447 1.383 . S
C1451 C1450 1.439 . S
C1451 C1469 1.392 . S
N1452 Co1436 2.282 . S
N1452 C1455 1.332 . S
N1452 C1457 1.332 . S
C1453 C1454 1.386 . S
C1453 C1456 1.388 . S
C1454 C1453 1.386 . S
C1454 C1455 1.382 . S
C1454 H1480 0.950 . S
C1455 N1452 1.332 . S
C1455 C1454 1.382 . S
C1455 H1466 0.952 . S
C1456 C1453 1.388 . S
C1456 C1457 1.382 . S
C1456 H1481 0.950 . S
C1457 N1452 1.332 . S
C1457 C1456 1.382 . S
C1457 H1467 0.948 . S
N1458 Co1436 2.282 . S
N1458 C1462 1.332 . S
N1458 C1463 1.332 . S
C1459 C1460 1.388 . S
C1459 C1463 1.382 . S
C1459 H1482 0.950 . S
C1460 C1459 1.388 . S
C1460 C1461 1.386 . S
C1461 C1460 1.386 . S
C1461 C1462 1.382 . S
C1461 H1483 0.950 . S
C1462 N1458 1.332 . S
C1462 C1461 1.382 . S
C1462 H1464 0.952 . S
C1463 N1458 1.332 . S
C1463 C1459 1.382 . S
C1463 H1465 0.948 . S
H1464 C1462 0.952 . S
H1465 C1463 0.948 . S
H1466 C1455 0.952 . S
H1467 C1457 0.948 . S
C1468 C1434 1.395 . S
C1468 C1438 1.391 . S
C1469 C1431 1.389 . S
C1469 C1451 1.392 . S
C1470 C1441 1.392 . S
C1470 C1443 1.389 . S
C1471 C1446 1.395 . S
C1471 C1448 1.391 . S
H1472 C1432 0.951 . S
H1473 C1433 0.950 . S
H1474 C1439 0.949 . S
H1475 C1440 0.950 . S
H1476 C1444 0.951 . S
H1477 C1445 0.950 . S
H1478 C1449 0.949 . S
H1479 C1450 0.950 . S
H1480 C1454 0.950 . S
H1481 C1456 0.950 . S
H1482 C1459 0.950 . S
H1483 C1461 0.950 . S
C1484 C1485 1.443 . S
C1484 N1488 1.376 . S
C1484 C1522 1.389 . S
C1485 C1484 1.443 . S
C1485 C1486 1.340 . S
C1485 H1525 0.951 . S
C1486 C1485 1.340 . S
C1486 C1487 1.439 . S
C1486 H1526 0.950 . S
C1487 C1486 1.439 . S
C1487 N1488 1.374 . S
C1487 C1521 1.395 . S
N1488 C1484 1.376 . S
N1488 C1487 1.374 . S
N1488 Co1489 2.008 . S
Co1489 N1488 2.008 . S
Co1489 N1490 1.995 . S
Co1489 N1495 2.008 . S
Co1489 N1500 1.995 . S
Co1489 N1505 2.282 . S
Co1489 N1511 2.282 . S
N1490 Co1489 1.995 . S
N1490 C1491 1.376 . S
N1490 C1494 1.383 . S
C1491 N1490 1.376 . S
C1491 C1492 1.446 . S
C1491 C1521 1.391 . S
C1492 C1491 1.446 . S
C1492 C1493 1.339 . S
C1492 H1527 0.949 . S
C1493 C1492 1.339 . S
C1493 C1494 1.439 . S
C1493 H1528 0.950 . S
C1494 N1490 1.383 . S
C1494 C1493 1.439 . S
C1494 C1523 1.392 . S
N1495 Co1489 2.008 . S
N1495 C1496 1.376 . S
N1495 C1499 1.374 . S
C1496 N1495 1.376 . S
C1496 C1497 1.443 . S
C1496 C1523 1.389 . S
C1497 C1496 1.443 . S
C1497 C1498 1.340 . S
C1497 H1529 0.951 . S
C1498 C1497 1.340 . S
C1498 C1499 1.439 . S
C1498 H1530 0.950 . S
C1499 N1495 1.374 . S
C1499 C1498 1.439 . S
C1499 C1524 1.395 . S
N1500 Co1489 1.995 . S
N1500 C1501 1.376 . S
N1500 C1504 1.383 . S
C1501 N1500 1.376 . S
C1501 C1502 1.446 . S
C1501 C1524 1.391 . S
C1502 C1501 1.446 . S
C1502 C1503 1.339 . S
C1502 H1531 0.949 . S
C1503 C1502 1.339 . S
C1503 C1504 1.439 . S
C1503 H1532 0.950 . S
C1504 N1500 1.383 . S
C1504 C1503 1.439 . S
C1504 C1522 1.392 . S
N1505 Co1489 2.282 . S
N1505 C1508 1.332 . S
N1505 C1510 1.332 . S
C1506 C1507 1.386 . S
C1506 C1509 1.388 . S
C1507 C1506 1.386 . S
C1507 C1508 1.382 . S
C1507 H1533 0.950 . S
C1508 N1505 1.332 . S
C1508 C1507 1.382 . S
C1508 H1519 0.952 . S
C1509 C1506 1.388 . S
C1509 C1510 1.382 . S
C1509 H1534 0.950 . S
C1510 N1505 1.332 . S
C1510 C1509 1.382 . S
C1510 H1520 0.948 . S
N1511 Co1489 2.282 . S
N1511 C1515 1.332 . S
N1511 C1516 1.332 . S
C1512 C1513 1.388 . S
C1512 C1516 1.382 . S
C1512 H1535 0.950 . S
C1513 C1512 1.388 . S
C1513 C1514 1.386 . S
C1514 C1513 1.386 . S
C1514 C1515 1.382 . S
C1514 H1536 0.950 . S
C1515 N1511 1.332 . S
C1515 C1514 1.382 . S
C1515 H1517 0.952 . S
C1516 N1511 1.332 . S
C1516 C1512 1.382 . S
C1516 H1518 0.948 . S
H1517 C1515 0.952 . S
H1518 C1516 0.948 . S
H1519 C1508 0.952 . S
H1520 C1510 0.948 . S
C1521 C1487 1.395 . S
C1521 C1491 1.391 . S
C1522 C1484 1.389 . S
C1522 C1504 1.392 . S
C1523 C1494 1.392 . S
C1523 C1496 1.389 . S
C1524 C1499 1.395 . S
C1524 C1501 1.391 . S
H1525 C1485 0.951 . S
H1526 C1486 0.950 . S
H1527 C1492 0.949 . S
H1528 C1493 0.950 . S
H1529 C1497 0.951 . S
H1530 C1498 0.950 . S
H1531 C1502 0.949 . S
H1532 C1503 0.950 . S
H1533 C1507 0.950 . S
H1534 C1509 0.950 . S
H1535 C1512 0.950 . S
H1536 C1514 0.950 . S
C1537 C1538 1.443 . S
C1537 N1541 1.376 . S
C1537 C1575 1.389 . S
C1538 C1537 1.443 . S
C1538 C1539 1.340 . S
C1538 H1578 0.951 . S
C1539 C1538 1.340 . S
C1539 C1540 1.439 . S
C1539 H1579 0.950 . S
C1540 C1539 1.439 . S
C1540 N1541 1.374 . S
C1540 C1574 1.395 . S
N1541 C1537 1.376 . S
N1541 C1540 1.374 . S
N1541 Co1542 2.008 . S
Co1542 N1541 2.008 . S
Co1542 N1543 1.995 . S
Co1542 N1548 2.008 . S
Co1542 N1553 1.995 . S
Co1542 N1558 2.282 . S
Co1542 N1564 2.282 . S
N1543 Co1542 1.995 . S
N1543 C1544 1.376 . S
N1543 C1547 1.383 . S
C1544 N1543 1.376 . S
C1544 C1545 1.446 . S
C1544 C1574 1.391 . S
C1545 C1544 1.446 . S
C1545 C1546 1.339 . S
C1545 H1580 0.949 . S
C1546 C1545 1.339 . S
C1546 C1547 1.439 . S
C1546 H1581 0.950 . S
C1547 N1543 1.383 . S
C1547 C1546 1.439 . S
C1547 C1576 1.392 . S
N1548 Co1542 2.008 . S
N1548 C1549 1.376 . S
N1548 C1552 1.374 . S
C1549 N1548 1.376 . S
C1549 C1550 1.443 . S
C1549 C1576 1.389 . S
C1550 C1549 1.443 . S
C1550 C1551 1.340 . S
C1550 H1582 0.951 . S
C1551 C1550 1.340 . S
C1551 C1552 1.439 . S
C1551 H1583 0.950 . S
C1552 N1548 1.374 . S
C1552 C1551 1.439 . S
C1552 C1577 1.395 . S
N1553 Co1542 1.995 . S
N1553 C1554 1.376 . S
N1553 C1557 1.383 . S
C1554 N1553 1.376 . S
C1554 C1555 1.446 . S
C1554 C1577 1.391 . S
C1555 C1554 1.446 . S
C1555 C1556 1.339 . S
C1555 H1584 0.949 . S
C1556 C1555 1.339 . S
C1556 C1557 1.439 . S
C1556 H1585 0.950 . S
C1557 N1553 1.383 . S
C1557 C1556 1.439 . S
C1557 C1575 1.392 . S
N1558 Co1542 2.282 . S
N1558 C1561 1.332 . S
N1558 C1563 1.332 . S
C1559 C1560 1.386 . S
C1559 C1562 1.388 . S
C1560 C1559 1.386 . S
C1560 C1561 1.382 . S
C1560 H1586 0.950 . S
C1561 N1558 1.332 . S
C1561 C1560 1.382 . S
C1561 H1572 0.952 . S
C1562 C1559 1.388 . S
C1562 C1563 1.382 . S
C1562 H1587 0.950 . S
C1563 N1558 1.332 . S
C1563 C1562 1.382 . S
C1563 H1573 0.948 . S
N1564 Co1542 2.282 . S
N1564 C1568 1.332 . S
N1564 C1569 1.332 . S
C1565 C1566 1.388 . S
C1565 C1569 1.382 . S
C1565 H1588 0.950 . S
C1566 C1565 1.388 . S
C1566 C1567 1.386 . S
C1567 C1566 1.386 . S
C1567 C1568 1.382 . S
C1567 H1589 0.950 . S
C1568 N1564 1.332 . S
C1568 C1567 1.382 . S
C1568 H1570 0.952 . S
C1569 N1564 1.332 . S
C1569 C1565 1.382 . S
C1569 H1571 0.948 . S
H1570 C1568 0.952 . S
H1571 C1569 0.948 . S
H1572 C1561 0.952 . S
H1573 C1563 0.948 . S
C1574 C1540 1.395 . S
C1574 C1544 1.391 . S
C1575 C1537 1.389 . S
C1575 C1557 1.392 . S
C1576 C1547 1.392 . S
C1576 C1549 1.389 . S
C1577 C1552 1.395 . S
C1577 C1554 1.391 . S
H1578 C1538 0.951 . S
H1579 C1539 0.950 . S
H1580 C1545 0.949 . S
H1581 C1546 0.950 . S
H1582 C1550 0.951 . S
H1583 C1551 0.950 . S
H1584 C1555 0.949 . S
H1585 C1556 0.950 . S
H1586 C1560 0.950 . S
H1587 C1562 0.950 . S
H1588 C1565 0.950 . S
H1589 C1567 0.950 . S
C1590 C1591 1.443 . S
C1590 N1594 1.376 . S
C1590 C1628 1.389 . S
C1591 C1590 1.443 . S
C1591 C1592 1.340 . S
C1591 H1631 0.951 . S
C1592 C1591 1.340 . S
C1592 C1593 1.439 . S
C1592 H1632 0.950 . S
C1593 C1592 1.439 . S
C1593 N1594 1.374 . S
C1593 C1627 1.395 . S
N1594 C1590 1.376 . S
N1594 C1593 1.374 . S
N1594 Co1595 2.008 . S
Co1595 N1594 2.008 . S
Co1595 N1596 1.995 . S
Co1595 N1601 2.008 . S
Co1595 N1606 1.995 . S
Co1595 N1611 2.282 . S
Co1595 N1617 2.282 . S
N1596 Co1595 1.995 . S
N1596 C1597 1.376 . S
N1596 C1600 1.383 . S
C1597 N1596 1.376 . S
C1597 C1598 1.446 . S
C1597 C1627 1.391 . S
C1598 C1597 1.446 . S
C1598 C1599 1.339 . S
C1598 H1633 0.949 . S
C1599 C1598 1.339 . S
C1599 C1600 1.439 . S
C1599 H1634 0.950 . S
C1600 N1596 1.383 . S
C1600 C1599 1.439 . S
C1600 C1629 1.392 . S
N1601 Co1595 2.008 . S
N1601 C1602 1.376 . S
N1601 C1605 1.374 . S
C1602 N1601 1.376 . S
C1602 C1603 1.443 . S
C1602 C1629 1.389 . S
C1603 C1602 1.443 . S
C1603 C1604 1.340 . S
C1603 H1635 0.951 . S
C1604 C1603 1.340 . S
C1604 C1605 1.439 . S
C1604 H1636 0.950 . S
C1605 N1601 1.374 . S
C1605 C1604 1.439 . S
C1605 C1630 1.395 . S
N1606 Co1595 1.995 . S
N1606 C1607 1.376 . S
N1606 C1610 1.383 . S
C1607 N1606 1.376 . S
C1607 C1608 1.446 . S
C1607 C1630 1.391 . S
C1608 C1607 1.446 . S
C1608 C1609 1.339 . S
C1608 H1637 0.949 . S
C1609 C1608 1.339 . S
C1609 C1610 1.439 . S
C1609 H1638 0.950 . S
C1610 N1606 1.383 . S
C1610 C1609 1.439 . S
C1610 C1628 1.392 . S
N1611 Co1595 2.282 . S
N1611 C1614 1.332 . S
N1611 C1616 1.332 . S
C1612 C1613 1.386 . S
C1612 C1615 1.388 . S
C1613 C1612 1.386 . S
C1613 C1614 1.382 . S
C1613 H1639 0.950 . S
C1614 N1611 1.332 . S
C1614 C1613 1.382 . S
C1614 H1625 0.952 . S
C1615 C1612 1.388 . S
C1615 C1616 1.382 . S
C1615 H1640 0.950 . S
C1616 N1611 1.332 . S
C1616 C1615 1.382 . S
C1616 H1626 0.948 . S
N1617 Co1595 2.282 . S
N1617 C1621 1.332 . S
N1617 C1622 1.332 . S
C1618 C1619 1.388 . S
C1618 C1622 1.382 . S
C1618 H1641 0.950 . S
C1619 C1618 1.388 . S
C1619 C1620 1.386 . S
C1620 C1619 1.386 . S
C1620 C1621 1.382 . S
C1620 H1642 0.950 . S
C1621 N1617 1.332 . S
C1621 C1620 1.382 . S
C1621 H1623 0.952 . S
C1622 N1617 1.332 . S
C1622 C1618 1.382 . S
C1622 H1624 0.948 . S
H1623 C1621 0.952 . S
H1624 C1622 0.948 . S
H1625 C1614 0.952 . S
H1626 C1616 0.948 . S
C1627 C1593 1.395 . S
C1627 C1597 1.391 . S
C1628 C1590 1.389 . S
C1628 C1610 1.392 . S
C1629 C1600 1.392 . S
C1629 C1602 1.389 . S
C1630 C1605 1.395 . S
C1630 C1607 1.391 . S
H1631 C1591 0.951 . S
H1632 C1592 0.950 . S
H1633 C1598 0.949 . S
H1634 C1599 0.950 . S
H1635 C1603 0.951 . S
H1636 C1604 0.950 . S
H1637 C1608 0.949 . S
H1638 C1609 0.950 . S
H1639 C1613 0.950 . S
H1640 C1615 0.950 . S
H1641 C1618 0.950 . S
H1642 C1620 0.950 . S
C1643 C1644 1.443 . S
C1643 N1647 1.376 . S
C1643 C1681 1.389 . S
C1644 C1643 1.443 . S
C1644 C1645 1.340 . S
C1644 H1684 0.951 . S
C1645 C1644 1.340 . S
C1645 C1646 1.439 . S
C1645 H1685 0.950 . S
C1646 C1645 1.439 . S
C1646 N1647 1.374 . S
C1646 C1680 1.395 . S
N1647 C1643 1.376 . S
N1647 C1646 1.374 . S
N1647 Co1648 2.008 . S
Co1648 N1647 2.008 . S
Co1648 N1649 1.995 . S
Co1648 N1654 2.008 . S
Co1648 N1659 1.995 . S
Co1648 N1664 2.282 . S
Co1648 N1670 2.282 . S
N1649 Co1648 1.995 . S
N1649 C1650 1.376 . S
N1649 C1653 1.383 . S
C1650 N1649 1.376 . S
C1650 C1651 1.446 . S
C1650 C1680 1.391 . S
C1651 C1650 1.446 . S
C1651 C1652 1.339 . S
C1651 H1686 0.949 . S
C1652 C1651 1.339 . S
C1652 C1653 1.439 . S
C1652 H1687 0.950 . S
C1653 N1649 1.383 . S
C1653 C1652 1.439 . S
C1653 C1682 1.392 . S
N1654 Co1648 2.008 . S
N1654 C1655 1.376 . S
N1654 C1658 1.374 . S
C1655 N1654 1.376 . S
C1655 C1656 1.443 . S
C1655 C1682 1.389 . S
C1656 C1655 1.443 . S
C1656 C1657 1.340 . S
C1656 H1688 0.951 . S
C1657 C1656 1.340 . S
C1657 C1658 1.439 . S
C1657 H1689 0.950 . S
C1658 N1654 1.374 . S
C1658 C1657 1.439 . S
C1658 C1683 1.395 . S
N1659 Co1648 1.995 . S
N1659 C1660 1.376 . S
N1659 C1663 1.383 . S
C1660 N1659 1.376 . S
C1660 C1661 1.446 . S
C1660 C1683 1.391 . S
C1661 C1660 1.446 . S
C1661 C1662 1.339 . S
C1661 H1690 0.949 . S
C1662 C1661 1.339 . S
C1662 C1663 1.439 . S
C1662 H1691 0.950 . S
C1663 N1659 1.383 . S
C1663 C1662 1.439 . S
C1663 C1681 1.392 . S
N1664 Co1648 2.282 . S
N1664 C1667 1.332 . S
N1664 C1669 1.332 . S
C1665 C1666 1.386 . S
C1665 C1668 1.388 . S
C1666 C1665 1.386 . S
C1666 C1667 1.382 . S
C1666 H1692 0.950 . S
C1667 N1664 1.332 . S
C1667 C1666 1.382 . S
C1667 H1678 0.952 . S
C1668 C1665 1.388 . S
C1668 C1669 1.382 . S
C1668 H1693 0.950 . S
C1669 N1664 1.332 . S
C1669 C1668 1.382 . S
C1669 H1679 0.948 . S
N1670 Co1648 2.282 . S
N1670 C1674 1.332 . S
N1670 C1675 1.332 . S
C1671 C1672 1.388 . S
C1671 C1675 1.382 . S
C1671 H1694 0.950 . S
C1672 C1671 1.388 . S
C1672 C1673 1.386 . S
C1673 C1672 1.386 . S
C1673 C1674 1.382 . S
C1673 H1695 0.950 . S
C1674 N1670 1.332 . S
C1674 C1673 1.382 . S
C1674 H1676 0.952 . S
C1675 N1670 1.332 . S
C1675 C1671 1.382 . S
C1675 H1677 0.948 . S
H1676 C1674 0.952 . S
H1677 C1675 0.948 . S
H1678 C1667 0.952 . S
H1679 C1669 0.948 . S
C1680 C1646 1.395 . S
C1680 C1650 1.391 . S
C1681 C1643 1.389 . S
C1681 C1663 1.392 . S
C1682 C1653 1.392 . S
C1682 C1655 1.389 . S
C1683 C1658 1.395 . S
C1683 C1660 1.391 . S
H1684 C1644 0.951 . S
H1685 C1645 0.950 . S
H1686 C1651 0.949 . S
H1687 C1652 0.950 . S
H1688 C1656 0.951 . S
H1689 C1657 0.950 . S
H1690 C1661 0.949 . S
H1691 C1662 0.950 . S
H1692 C1666 0.950 . S
H1693 C1668 0.950 . S
H1694 C1671 0.950 . S
H1695 C1673 0.950 . S
H1696 C1704 0.950 . S
H1697 C1709 0.950 . S
H1698 C1706 0.950 . S
H1699 C1708 0.950 . S
H1700 C1710 0.950 . S
H1701 C1712 0.950 . S
H1702 C1714 0.950 . S
H1703 C1715 0.950 . S
C1704 H1696 0.950 . S
C1704 C1705 1.386 . S
C1704 C1706 1.391 . S
C1705 C1704 1.386 . S
C1705 C1709 1.393 . S
C1706 H1698 0.950 . S
C1706 C1704 1.391 . S
C1706 C1707 1.400 . S
C1707 C1706 1.400 . S
C1707 C1708 1.398 . S
C1707 C1713 1.491 . S
C1708 H1699 0.950 . S
C1708 C1707 1.398 . S
C1708 C1709 1.391 . S
C1709 H1697 0.950 . S
C1709 C1705 1.393 . S
C1709 C1708 1.391 . S
C1710 H1700 0.950 . S
C1710 C1711 1.386 . S
C1710 C1712 1.391 . S
C1711 C1710 1.386 . S
C1711 C1715 1.393 . S
C1712 H1701 0.950 . S
C1712 C1710 1.391 . S
C1712 C1713 1.400 . S
C1713 C1707 1.491 . S
C1713 C1712 1.400 . S
C1713 C1714 1.398 . S
C1714 H1702 0.950 . S
C1714 C1713 1.398 . S
C1714 C1715 1.391 . S
C1715 H1703 0.950 . S
C1715 C1711 1.393 . S
C1715 C1714 1.391 . S
H1716 C1724 0.950 . S
H1717 C1729 0.950 . S
H1718 C1726 0.950 . S
H1719 C1728 0.950 . S
H1720 C1730 0.950 . S
H1721 C1732 0.950 . S
H1722 C1734 0.950 . S
H1723 C1735 0.950 . S
C1724 H1716 0.950 . S
C1724 C1725 1.386 . S
C1724 C1726 1.391 1_455 S
C1725 C1724 1.386 . S
C1725 C1729 1.393 1_455 S
C1726 H1718 0.950 . S
C1726 C1724 1.391 1_655 S
C1726 C1727 1.400 . S
C1727 C1726 1.400 . S
C1727 C1728 1.398 . S
C1727 C1733 1.491 . S
C1728 H1719 0.950 . S
C1728 C1727 1.398 . S
C1728 C1729 1.391 . S
C1729 H1717 0.950 . S
C1729 C1725 1.393 1_655 S
C1729 C1728 1.391 . S
C1730 H1720 0.950 . S
C1730 C1731 1.386 . S
C1730 C1732 1.391 . S
C1731 C1730 1.386 . S
C1731 C1735 1.393 . S
C1732 H1721 0.950 . S
C1732 C1730 1.391 . S
C1732 C1733 1.400 . S
C1733 C1727 1.491 . S
C1733 C1732 1.400 . S
C1733 C1734 1.398 . S
C1734 H1722 0.950 . S
C1734 C1733 1.398 . S
C1734 C1735 1.391 . S
C1735 H1723 0.950 . S
C1735 C1731 1.393 . S
C1735 C1734 1.391 . S
H1736 C1744 0.950 . S
H1737 C1749 0.950 . S
H1738 C1746 0.950 . S
H1739 C1748 0.950 . S
H1740 C1750 0.950 . S
H1741 C1752 0.950 . S
H1742 C1754 0.950 . S
H1743 C1755 0.950 . S
C1744 H1736 0.950 . S
C1744 C1745 1.386 . S
C1744 C1746 1.391 . S
C1745 C1744 1.386 . S
C1745 C1749 1.393 . S
C1746 H1738 0.950 . S
C1746 C1744 1.391 . S
C1746 C1747 1.400 . S
C1747 C1746 1.400 . S
C1747 C1748 1.398 . S
C1747 C1753 1.491 . S
C1748 H1739 0.950 . S
C1748 C1747 1.398 . S
C1748 C1749 1.391 . S
C1749 H1737 0.950 . S
C1749 C1745 1.393 . S
C1749 C1748 1.391 . S
C1750 H1740 0.950 . S
C1750 C1751 1.386 . S
C1750 C1752 1.391 . S
C1751 C1750 1.386 . S
C1751 C1755 1.393 . S
C1752 H1741 0.950 . S
C1752 C1750 1.391 . S
C1752 C1753 1.400 . S
C1753 C1747 1.491 . S
C1753 C1752 1.400 . S
C1753 C1754 1.398 . S
C1754 H1742 0.950 . S
C1754 C1753 1.398 . S
C1754 C1755 1.391 . S
C1755 H1743 0.950 . S
C1755 C1751 1.393 . S
C1755 C1754 1.391 . S
H1756 C1764 0.950 . S
H1757 C1769 0.950 . S
H1758 C1766 0.950 . S
H1759 C1768 0.950 . S
H1760 C1770 0.950 . S
H1761 C1772 0.950 . S
H1762 C1774 0.950 . S
H1763 C1775 0.950 . S
C1764 H1756 0.950 . S
C1764 C1765 1.386 . S
C1764 C1766 1.391 . S
C1765 C1764 1.386 . S
C1765 C1769 1.393 . S
C1766 H1758 0.950 . S
C1766 C1764 1.391 . S
C1766 C1767 1.400 . S
C1767 C1766 1.400 . S
C1767 C1768 1.398 . S
C1767 C1773 1.491 . S
C1768 H1759 0.950 . S
C1768 C1767 1.398 . S
C1768 C1769 1.391 . S
C1769 H1757 0.950 . S
C1769 C1765 1.393 . S
C1769 C1768 1.391 . S
C1770 H1760 0.950 . S
C1770 C1771 1.386 . S
C1770 C1772 1.391 . S
C1771 C1770 1.386 . S
C1771 C1775 1.393 . S
C1772 H1761 0.950 . S
C1772 C1770 1.391 . S
C1772 C1773 1.400 . S
C1773 C1767 1.491 . S
C1773 C1772 1.400 . S
C1773 C1774 1.398 . S
C1774 H1762 0.950 . S
C1774 C1773 1.398 . S
C1774 C1775 1.391 . S
C1775 H1763 0.950 . S
C1775 C1771 1.393 . S
C1775 C1774 1.391 . S
H1776 C1784 0.950 . S
H1777 C1789 0.950 . S
H1778 C1786 0.950 . S
H1779 C1788 0.950 . S
H1780 C1790 0.950 . S
H1781 C1792 0.950 . S
H1782 C1794 0.950 . S
H1783 C1795 0.950 . S
C1784 H1776 0.950 . S
C1784 C1785 1.386 . S
C1784 C1786 1.391 . S
C1785 C1784 1.386 . S
C1785 C1789 1.393 . S
C1786 H1778 0.950 . S
C1786 C1784 1.391 . S
C1786 C1787 1.400 . S
C1787 C1786 1.400 . S
C1787 C1788 1.398 . S
C1787 C1793 1.491 . S
C1788 H1779 0.950 . S
C1788 C1787 1.398 . S
C1788 C1789 1.391 . S
C1789 H1777 0.950 . S
C1789 C1785 1.393 . S
C1789 C1788 1.391 . S
C1790 H1780 0.950 . S
C1790 C1791 1.386 . S
C1790 C1792 1.391 . S
C1791 C1790 1.386 . S
C1791 C1795 1.393 . S
C1792 H1781 0.950 . S
C1792 C1790 1.391 . S
C1792 C1793 1.400 . S
C1793 C1787 1.491 . S
C1793 C1792 1.400 . S
C1793 C1794 1.398 . S
C1794 H1782 0.950 . S
C1794 C1793 1.398 . S
C1794 C1795 1.391 . S
C1795 H1783 0.950 . S
C1795 C1791 1.393 . S
C1795 C1794 1.391 . S
H1796 C1804 0.950 . S
H1797 C1809 0.950 . S
H1798 C1806 0.950 . S
H1799 C1808 0.950 . S
H1800 C1810 0.950 . S
H1801 C1812 0.950 . S
H1802 C1814 0.950 . S
H1803 C1815 0.950 . S
C1804 H1796 0.950 . S
C1804 C1805 1.386 . S
C1804 C1806 1.391 . S
C1805 C1804 1.386 . S
C1805 C1809 1.393 . S
C1806 H1798 0.950 . S
C1806 C1804 1.391 . S
C1806 C1807 1.400 . S
C1807 C1806 1.400 . S
C1807 C1808 1.398 . S
C1807 C1813 1.491 . S
C1808 H1799 0.950 . S
C1808 C1807 1.398 . S
C1808 C1809 1.391 . S
C1809 H1797 0.950 . S
C1809 C1805 1.393 . S
C1809 C1808 1.391 . S
C1810 H1800 0.950 . S
C1810 C1811 1.386 . S
C1810 C1812 1.391 . S
C1811 C1810 1.386 . S
C1811 C1815 1.393 . S
C1812 H1801 0.950 . S
C1812 C1810 1.391 . S
C1812 C1813 1.400 . S
C1813 C1807 1.491 . S
C1813 C1812 1.400 . S
C1813 C1814 1.398 . S
C1814 H1802 0.950 . S
C1814 C1813 1.398 . S
C1814 C1815 1.391 . S
C1815 H1803 0.950 . S
C1815 C1811 1.393 . S
C1815 C1814 1.391 . S
H1816 C1824 0.950 . S
H1817 C1829 0.950 . S
H1818 C1826 0.950 . S
H1819 C1828 0.950 . S
H1820 C1830 0.950 . S
H1821 C1832 0.950 . S
H1822 C1834 0.950 . S
H1823 C1835 0.950 . S
C1824 H1816 0.950 . S
C1824 C1825 1.386 . S
C1824 C1826 1.391 . S
C1825 C1824 1.386 . S
C1825 C1829 1.393 . S
C1826 H1818 0.950 . S
C1826 C1824 1.391 . S
C1826 C1827 1.400 . S
C1827 C1826 1.400 . S
C1827 C1828 1.398 . S
C1827 C1833 1.491 . S
C1828 H1819 0.950 . S
C1828 C1827 1.398 . S
C1828 C1829 1.391 . S
C1829 H1817 0.950 . S
C1829 C1825 1.393 . S
C1829 C1828 1.391 . S
C1830 H1820 0.950 . S
C1830 C1831 1.386 . S
C1830 C1832 1.391 . S
C1831 C1830 1.386 . S
C1831 C1835 1.393 . S
C1832 H1821 0.950 . S
C1832 C1830 1.391 . S
C1832 C1833 1.400 . S
C1833 C1827 1.491 . S
C1833 C1832 1.400 . S
C1833 C1834 1.398 . S
C1834 H1822 0.950 . S
C1834 C1833 1.398 . S
C1834 C1835 1.391 . S
C1835 H1823 0.950 . S
C1835 C1831 1.393 . S
C1835 C1834 1.391 . S
H1836 C1844 0.950 . S
H1837 C1849 0.950 . S
H1838 C1846 0.950 . S
H1839 C1848 0.950 . S
H1840 C1850 0.950 . S
H1841 C1852 0.950 . S
H1842 C1854 0.950 . S
H1843 C1855 0.950 . S
C1844 H1836 0.950 . S
C1844 C1845 1.386 . S
C1844 C1846 1.391 1_455 S
C1845 C1844 1.386 . S
C1845 C1849 1.393 1_455 S
C1846 H1838 0.950 . S
C1846 C1844 1.391 1_655 S
C1846 C1847 1.400 . S
C1847 C1846 1.400 . S
C1847 C1848 1.398 . S
C1847 C1853 1.491 . S
C1848 H1839 0.950 . S
C1848 C1847 1.398 . S
C1848 C1849 1.391 . S
C1849 H1837 0.950 . S
C1849 C1845 1.393 1_655 S
C1849 C1848 1.391 . S
C1850 H1840 0.950 . S
C1850 C1851 1.386 . S
C1850 C1852 1.391 . S
C1851 C1850 1.386 . S
C1851 C1855 1.393 . S
C1852 H1841 0.950 . S
C1852 C1850 1.391 . S
C1852 C1853 1.400 . S
C1853 C1847 1.491 . S
C1853 C1852 1.400 . S
C1853 C1854 1.398 . S
C1854 H1842 0.950 . S
C1854 C1853 1.398 . S
C1854 C1855 1.391 . S
C1855 H1843 0.950 . S
C1855 C1851 1.393 . S
C1855 C1854 1.391 . S
H1856 C1864 0.950 . S
H1857 C1869 0.950 . S
H1858 C1866 0.950 . S
H1859 C1868 0.950 . S
H1860 C1870 0.950 . S
H1861 C1872 0.950 . S
H1862 C1874 0.950 . S
H1863 C1875 0.950 . S
C1864 H1856 0.950 . S
C1864 C1865 1.386 . S
C1864 C1866 1.391 . S
C1865 C1864 1.386 . S
C1865 C1869 1.393 . S
C1866 H1858 0.950 . S
C1866 C1864 1.391 . S
C1866 C1867 1.400 . S
C1867 C1866 1.400 . S
C1867 C1868 1.398 . S
C1867 C1873 1.491 . S
C1868 H1859 0.950 . S
C1868 C1867 1.398 . S
C1868 C1869 1.391 . S
C1869 H1857 0.950 . S
C1869 C1865 1.393 . S
C1869 C1868 1.391 . S
C1870 H1860 0.950 . S
C1870 C1871 1.386 . S
C1870 C1872 1.391 . S
C1871 C1870 1.386 . S
C1871 C1875 1.393 . S
C1872 H1861 0.950 . S
C1872 C1870 1.391 . S
C1872 C1873 1.400 . S
C1873 C1867 1.491 . S
C1873 C1872 1.400 . S
C1873 C1874 1.398 . S
C1874 H1862 0.950 . S
C1874 C1873 1.398 . S
C1874 C1875 1.391 . S
C1875 H1863 0.950 . S
C1875 C1871 1.393 . S
C1875 C1874 1.391 . S
H1876 C1884 0.950 . S
H1877 C1889 0.950 . S
H1878 C1886 0.950 . S
H1879 C1888 0.950 . S
H1880 C1890 0.950 . S
H1881 C1892 0.950 . S
H1882 C1894 0.950 . S
H1883 C1895 0.950 1_655 S
C1884 H1876 0.950 . S
C1884 C1885 1.386 . S
C1884 C1886 1.391 . S
C1885 C1884 1.386 . S
C1885 C1889 1.393 . S
C1886 H1878 0.950 . S
C1886 C1884 1.391 . S
C1886 C1887 1.400 . S
C1887 C1886 1.400 . S
C1887 C1888 1.398 . S
C1887 C1893 1.491 . S
C1888 H1879 0.950 . S
C1888 C1887 1.398 . S
C1888 C1889 1.391 . S
C1889 H1877 0.950 . S
C1889 C1885 1.393 . S
C1889 C1888 1.391 . S
C1890 H1880 0.950 . S
C1890 C1891 1.386 . S
C1890 C1892 1.391 . S
C1891 C1890 1.386 . S
C1891 C1895 1.393 . S
C1892 H1881 0.950 . S
C1892 C1890 1.391 . S
C1892 C1893 1.400 . S
C1893 C1887 1.491 . S
C1893 C1892 1.400 . S
C1893 C1894 1.398 . S
C1894 H1882 0.950 . S
C1894 C1893 1.398 . S
C1894 C1895 1.391 . S
C1895 H1883 0.950 1_455 S
C1895 C1891 1.393 . S
C1895 C1894 1.391 . S
H1896 C1904 0.950 . S
H1897 C1909 0.950 . S
H1898 C1906 0.950 . S
H1899 C1908 0.950 . S
H1900 C1910 0.950 . S
H1901 C1912 0.950 . S
H1902 C1914 0.950 . S
H1903 C1915 0.950 . S
C1904 H1896 0.950 . S
C1904 C1905 1.386 . S
C1904 C1906 1.391 . S
C1905 C1904 1.386 . S
C1905 C1909 1.393 . S
C1906 H1898 0.950 . S
C1906 C1904 1.391 . S
C1906 C1907 1.400 . S
C1907 C1906 1.400 . S
C1907 C1908 1.398 . S
C1907 C1913 1.491 . S
C1908 H1899 0.950 . S
C1908 C1907 1.398 . S
C1908 C1909 1.391 . S
C1909 H1897 0.950 . S
C1909 C1905 1.393 . S
C1909 C1908 1.391 . S
C1910 H1900 0.950 . S
C1910 C1911 1.386 . S
C1910 C1912 1.391 . S
C1911 C1910 1.386 . S
C1911 C1915 1.393 . S
C1912 H1901 0.950 . S
C1912 C1910 1.391 . S
C1912 C1913 1.400 . S
C1913 C1907 1.491 . S
C1913 C1912 1.400 . S
C1913 C1914 1.398 . S
C1914 H1902 0.950 . S
C1914 C1913 1.398 . S
C1914 C1915 1.391 . S
C1915 H1903 0.950 . S
C1915 C1911 1.393 . S
C1915 C1914 1.391 . S
H1916 C1924 0.950 . S
H1917 C1929 0.950 . S
H1918 C1926 0.950 . S
H1919 C1928 0.950 . S
H1920 C1930 0.950 . S
H1921 C1932 0.950 . S
H1922 C1934 0.950 . S
H1923 C1935 0.950 . S
C1924 H1916 0.950 . S
C1924 C1925 1.386 . S
C1924 C1926 1.391 . S
C1925 C1924 1.386 . S
C1925 C1929 1.393 . S
C1926 H1918 0.950 . S
C1926 C1924 1.391 . S
C1926 C1927 1.400 . S
C1927 C1926 1.400 . S
C1927 C1928 1.398 . S
C1927 C1933 1.491 . S
C1928 H1919 0.950 . S
C1928 C1927 1.398 . S
C1928 C1929 1.391 . S
C1929 H1917 0.950 . S
C1929 C1925 1.393 . S
C1929 C1928 1.391 . S
C1930 H1920 0.950 . S
C1930 C1931 1.386 . S
C1930 C1932 1.391 . S
C1931 C1930 1.386 . S
C1931 C1935 1.393 . S
C1932 H1921 0.950 . S
C1932 C1930 1.391 . S
C1932 C1933 1.400 . S
C1933 C1927 1.491 . S
C1933 C1932 1.400 . S
C1933 C1934 1.398 . S
C1934 H1922 0.950 . S
C1934 C1933 1.398 . S
C1934 C1935 1.391 . S
C1935 H1923 0.950 . S
C1935 C1931 1.393 . S
C1935 C1934 1.391 . S
H1936 C1944 0.950 . S
H1937 C1949 0.950 . S
H1938 C1946 0.950 . S
H1939 C1948 0.950 . S
H1940 C1950 0.950 . S
H1941 C1952 0.950 . S
H1942 C1954 0.950 . S
H1943 C1955 0.950 . S
C1944 H1936 0.950 . S
C1944 C1945 1.386 . S
C1944 C1946 1.391 . S
C1945 C1944 1.386 . S
C1945 C1949 1.393 . S
C1946 H1938 0.950 . S
C1946 C1944 1.391 . S
C1946 C1947 1.400 . S
C1947 C1946 1.400 . S
C1947 C1948 1.398 . S
C1947 C1953 1.491 . S
C1948 H1939 0.950 . S
C1948 C1947 1.398 . S
C1948 C1949 1.391 . S
C1949 H1937 0.950 . S
C1949 C1945 1.393 . S
C1949 C1948 1.391 . S
C1950 H1940 0.950 . S
C1950 C1951 1.386 . S
C1950 C1952 1.391 . S
C1951 C1950 1.386 . S
C1951 C1955 1.393 . S
C1952 H1941 0.950 . S
C1952 C1950 1.391 . S
C1952 C1953 1.400 . S
C1953 C1947 1.491 . S
C1953 C1952 1.400 . S
C1953 C1954 1.398 . S
C1954 H1942 0.950 . S
C1954 C1953 1.398 . S
C1954 C1955 1.391 . S
C1955 H1943 0.950 . S
C1955 C1951 1.393 . S
C1955 C1954 1.391 . S
H1956 C1964 0.950 . S
H1957 C1969 0.950 . S
H1958 C1966 0.950 . S
H1959 C1968 0.950 . S
H1960 C1970 0.950 . S
H1961 C1972 0.950 . S
H1962 C1974 0.950 . S
H1963 C1975 0.950 . S
C1964 H1956 0.950 . S
C1964 C1965 1.386 . S
C1964 C1966 1.391 . S
C1965 C1964 1.386 . S
C1965 C1969 1.393 . S
C1966 H1958 0.950 . S
C1966 C1964 1.391 . S
C1966 C1967 1.400 . S
C1967 C1966 1.400 . S
C1967 C1968 1.398 . S
C1967 C1973 1.491 . S
C1968 H1959 0.950 . S
C1968 C1967 1.398 . S
C1968 C1969 1.391 . S
C1969 H1957 0.950 . S
C1969 C1965 1.393 . S
C1969 C1968 1.391 . S
C1970 H1960 0.950 . S
C1970 C1971 1.386 . S
C1970 C1972 1.391 . S
C1971 C1970 1.386 . S
C1971 C1975 1.393 . S
C1972 H1961 0.950 . S
C1972 C1970 1.391 . S
C1972 C1973 1.400 . S
C1973 C1967 1.491 . S
C1973 C1972 1.400 . S
C1973 C1974 1.398 . S
C1974 H1962 0.950 . S
C1974 C1973 1.398 . S
C1974 C1975 1.391 . S
C1975 H1963 0.950 . S
C1975 C1971 1.393 . S
C1975 C1974 1.391 . S
H1976 C1984 0.950 . S
H1977 C1989 0.950 . S
H1978 C1986 0.950 . S
H1979 C1988 0.950 . S
H1980 C1990 0.950 . S
H1981 C1992 0.950 . S
H1982 C1994 0.950 . S
H1983 C1995 0.950 . S
C1984 H1976 0.950 . S
C1984 C1985 1.386 . S
C1984 C1986 1.391 . S
C1985 C1984 1.386 . S
C1985 C1989 1.393 . S
C1986 H1978 0.950 . S
C1986 C1984 1.391 . S
C1986 C1987 1.400 . S
C1987 C1986 1.400 . S
C1987 C1988 1.398 . S
C1987 C1993 1.491 . S
C1988 H1979 0.950 . S
C1988 C1987 1.398 . S
C1988 C1989 1.391 . S
C1989 H1977 0.950 . S
C1989 C1985 1.393 . S
C1989 C1988 1.391 . S
C1990 H1980 0.950 . S
C1990 C1991 1.386 . S
C1990 C1992 1.391 . S
C1991 C1990 1.386 . S
C1991 C1995 1.393 . S
C1992 H1981 0.950 . S
C1992 C1990 1.391 . S
C1992 C1993 1.400 . S
C1993 C1987 1.491 . S
C1993 C1992 1.400 . S
C1993 C1994 1.398 . S
C1994 H1982 0.950 . S
C1994 C1993 1.398 . S
C1994 C1995 1.391 . S
C1995 H1983 0.950 . S
C1995 C1991 1.393 . S
C1995 C1994 1.391 . S
H1996 C2004 0.950 . S
H1997 C2009 0.950 . S
H1998 C2006 0.950 . S
H1999 C2008 0.950 . S
H2000 C2010 0.950 . S
H2001 C2012 0.950 . S
H2002 C2014 0.950 . S
H2003 C2015 0.950 1_655 S
C2004 H1996 0.950 . S
C2004 C2005 1.386 . S
C2004 C2006 1.391 . S
C2005 C2004 1.386 . S
C2005 C2009 1.393 . S
C2006 H1998 0.950 . S
C2006 C2004 1.391 . S
C2006 C2007 1.400 . S
C2007 C2006 1.400 . S
C2007 C2008 1.398 . S
C2007 C2013 1.491 . S
C2008 H1999 0.950 . S
C2008 C2007 1.398 . S
C2008 C2009 1.391 . S
C2009 H1997 0.950 . S
C2009 C2005 1.393 . S
C2009 C2008 1.391 . S
C2010 H2000 0.950 . S
C2010 C2011 1.386 . S
C2010 C2012 1.391 . S
C2011 C2010 1.386 . S
C2011 C2015 1.393 . S
C2012 H2001 0.950 . S
C2012 C2010 1.391 . S
C2012 C2013 1.400 . S
C2013 C2007 1.491 . S
C2013 C2012 1.400 . S
C2013 C2014 1.398 . S
C2014 H2002 0.950 . S
C2014 C2013 1.398 . S
C2014 C2015 1.391 . S
C2015 H2003 0.950 1_455 S
C2015 C2011 1.393 . S
C2015 C2014 1.391 . S
H2016 C2024 0.950 . S
H2017 C2029 0.950 . S
H2018 C2026 0.950 . S
H2019 C2028 0.950 . S
H2020 C2030 0.950 . S
H2021 C2032 0.950 . S
H2022 C2034 0.950 . S
H2023 C2035 0.950 . S
C2024 H2016 0.950 . S
C2024 C2025 1.386 . S
C2024 C2026 1.391 . S
C2025 C2024 1.386 . S
C2025 C2029 1.393 . S
C2026 H2018 0.950 . S
C2026 C2024 1.391 . S
C2026 C2027 1.400 . S
C2027 C2026 1.400 . S
C2027 C2028 1.398 . S
C2027 C2033 1.491 . S
C2028 H2019 0.950 . S
C2028 C2027 1.398 . S
C2028 C2029 1.391 . S
C2029 H2017 0.950 . S
C2029 C2025 1.393 . S
C2029 C2028 1.391 . S
C2030 H2020 0.950 . S
C2030 C2031 1.386 . S
C2030 C2032 1.391 . S
C2031 C2030 1.386 . S
C2031 C2035 1.393 . S
C2032 H2021 0.950 . S
C2032 C2030 1.391 . S
C2032 C2033 1.400 . S
C2033 C2027 1.491 . S
C2033 C2032 1.400 . S
C2033 C2034 1.398 . S
C2034 H2022 0.950 . S
C2034 C2033 1.398 . S
C2034 C2035 1.391 . S
C2035 H2023 0.950 . S
C2035 C2031 1.393 . S
C2035 C2034 1.391 . S
H2036 C2044 0.950 . S
H2037 C2049 0.950 . S
H2038 C2046 0.950 . S
H2039 C2048 0.950 . S
H2040 C2050 0.950 . S
H2041 C2052 0.950 . S
H2042 C2054 0.950 . S
H2043 C2055 0.950 . S
C2044 H2036 0.950 . S
C2044 C2045 1.386 . S
C2044 C2046 1.391 . S
C2045 C2044 1.386 . S
C2045 C2049 1.393 . S
C2046 H2038 0.950 . S
C2046 C2044 1.391 . S
C2046 C2047 1.400 . S
C2047 C2046 1.400 . S
C2047 C2048 1.398 . S
C2047 C2053 1.491 . S
C2048 H2039 0.950 . S
C2048 C2047 1.398 . S
C2048 C2049 1.391 . S
C2049 H2037 0.950 . S
C2049 C2045 1.393 . S
C2049 C2048 1.391 . S
C2050 H2040 0.950 . S
C2050 C2051 1.386 . S
C2050 C2052 1.391 . S
C2051 C2050 1.386 . S
C2051 C2055 1.393 . S
C2052 H2041 0.950 . S
C2052 C2050 1.391 . S
C2052 C2053 1.400 . S
C2053 C2047 1.491 . S
C2053 C2052 1.400 . S
C2053 C2054 1.398 . S
C2054 H2042 0.950 . S
C2054 C2053 1.398 . S
C2054 C2055 1.391 . S
C2055 H2043 0.950 . S
C2055 C2051 1.393 . S
C2055 C2054 1.391 . S
H2056 C2064 0.950 . S
H2057 C2069 0.950 . S
H2058 C2066 0.950 . S
H2059 C2068 0.950 . S
H2060 C2070 0.950 . S
H2061 C2072 0.950 . S
H2062 C2074 0.950 . S
H2063 C2075 0.950 . S
C2064 H2056 0.950 . S
C2064 C2065 1.386 . S
C2064 C2066 1.391 . S
C2065 C2064 1.386 . S
C2065 C2069 1.393 . S
C2066 H2058 0.950 . S
C2066 C2064 1.391 . S
C2066 C2067 1.400 . S
C2067 C2066 1.400 . S
C2067 C2068 1.398 . S
C2067 C2073 1.491 . S
C2068 H2059 0.950 . S
C2068 C2067 1.398 . S
C2068 C2069 1.391 . S
C2069 H2057 0.950 . S
C2069 C2065 1.393 . S
C2069 C2068 1.391 . S
C2070 H2060 0.950 . S
C2070 C2071 1.386 . S
C2070 C2072 1.391 . S
C2071 C2070 1.386 . S
C2071 C2075 1.393 . S
C2072 H2061 0.950 . S
C2072 C2070 1.391 . S
C2072 C2073 1.400 . S
C2073 C2067 1.491 . S
C2073 C2072 1.400 . S
C2073 C2074 1.398 . S
C2074 H2062 0.950 . S
C2074 C2073 1.398 . S
C2074 C2075 1.391 . S
C2075 H2063 0.950 . S
C2075 C2071 1.393 . S
C2075 C2074 1.391 . S
H2076 C2084 0.950 . S
H2077 C2089 0.950 . S
H2078 C2086 0.950 . S
H2079 C2088 0.950 . S
H2080 C2090 0.950 . S
H2081 C2092 0.950 . S
H2082 C2094 0.950 . S
H2083 C2095 0.950 . S
C2084 H2076 0.950 . S
C2084 C2085 1.386 . S
C2084 C2086 1.391 . S
C2085 C2084 1.386 . S
C2085 C2089 1.393 . S
C2086 H2078 0.950 . S
C2086 C2084 1.391 . S
C2086 C2087 1.400 . S
C2087 C2086 1.400 . S
C2087 C2088 1.398 . S
C2087 C2093 1.491 . S
C2088 H2079 0.950 . S
C2088 C2087 1.398 . S
C2088 C2089 1.391 . S
C2089 H2077 0.950 . S
C2089 C2085 1.393 . S
C2089 C2088 1.391 . S
C2090 H2080 0.950 . S
C2090 C2091 1.386 1_455 S
C2090 C2092 1.391 . S
C2091 C2090 1.386 1_655 S
C2091 C2095 1.393 . S
C2092 H2081 0.950 . S
C2092 C2090 1.391 . S
C2092 C2093 1.400 . S
C2093 C2087 1.491 . S
C2093 C2092 1.400 . S
C2093 C2094 1.398 . S
C2094 H2082 0.950 . S
C2094 C2093 1.398 . S
C2094 C2095 1.391 1_455 S
C2095 H2083 0.950 . S
C2095 C2091 1.393 . S
C2095 C2094 1.391 1_655 S
H2096 C2104 0.950 . S
H2097 C2109 0.950 . S
H2098 C2106 0.950 . S
H2099 C2108 0.950 . S
H2100 C2110 0.950 . S
H2101 C2112 0.950 . S
H2102 C2114 0.950 . S
H2103 C2115 0.950 . S
C2104 H2096 0.950 . S
C2104 C2105 1.386 . S
C2104 C2106 1.391 . S
C2105 C2104 1.386 . S
C2105 C2109 1.393 . S
C2106 H2098 0.950 . S
C2106 C2104 1.391 . S
C2106 C2107 1.400 . S
C2107 C2106 1.400 . S
C2107 C2108 1.398 . S
C2107 C2113 1.491 . S
C2108 H2099 0.950 . S
C2108 C2107 1.398 . S
C2108 C2109 1.391 . S
C2109 H2097 0.950 . S
C2109 C2105 1.393 . S
C2109 C2108 1.391 . S
C2110 H2100 0.950 . S
C2110 C2111 1.386 . S
C2110 C2112 1.391 . S
C2111 C2110 1.386 . S
C2111 C2115 1.393 . S
C2112 H2101 0.950 . S
C2112 C2110 1.391 . S
C2112 C2113 1.400 . S
C2113 C2107 1.491 . S
C2113 C2112 1.400 . S
C2113 C2114 1.398 . S
C2114 H2102 0.950 . S
C2114 C2113 1.398 . S
C2114 C2115 1.391 . S
C2115 H2103 0.950 . S
C2115 C2111 1.393 . S
C2115 C2114 1.391 . S
H2116 C2124 0.950 . S
H2117 C2129 0.950 . S
H2118 C2126 0.950 . S
H2119 C2128 0.950 . S
H2120 C2130 0.950 . S
H2121 C2132 0.950 . S
H2122 C2134 0.950 . S
H2123 C2135 0.951 . S
C2124 H2116 0.950 . S
C2124 C2125 1.386 . S
C2124 C2126 1.391 . S
C2125 C2124 1.386 . S
C2125 C2129 1.393 . S
C2126 H2118 0.950 . S
C2126 C2124 1.391 . S
C2126 C2127 1.400 . S
C2127 C2126 1.400 . S
C2127 C2128 1.398 . S
C2127 C2133 1.491 . S
C2128 H2119 0.950 . S
C2128 C2127 1.398 . S
C2128 C2129 1.391 . S
C2129 H2117 0.950 . S
C2129 C2125 1.393 . S
C2129 C2128 1.391 . S
C2130 H2120 0.950 . S
C2130 C2131 1.386 . S
C2130 C2132 1.391 1_655 S
C2131 C2130 1.386 . S
C2131 C2135 1.395 . S
C2132 H2121 0.950 . S
C2132 C2130 1.391 1_455 S
C2132 C2133 1.400 . S
C2133 C2127 1.491 . S
C2133 C2132 1.400 . S
C2133 C2134 1.398 . S
C2134 H2122 0.950 . S
C2134 C2133 1.398 . S
C2134 C2135 1.387 1_455 S
C2135 H2123 0.951 . S
C2135 C2131 1.395 . S
C2135 C2134 1.387 1_655 S
H2136 C2144 0.950 . S
H2137 C2149 0.950 . S
H2138 C2146 0.950 . S
H2139 C2148 0.950 . S
H2140 C2150 0.950 . S
H2141 C2152 0.950 . S
H2142 C2154 0.950 . S
H2143 C2155 0.950 . S
C2144 H2136 0.950 . S
C2144 C2145 1.386 . S
C2144 C2146 1.391 . S
C2145 C2144 1.386 . S
C2145 C2149 1.393 . S
C2146 H2138 0.950 . S
C2146 C2144 1.391 . S
C2146 C2147 1.400 . S
C2147 C2146 1.400 . S
C2147 C2148 1.398 . S
C2147 C2153 1.491 . S
C2148 H2139 0.950 . S
C2148 C2147 1.398 . S
C2148 C2149 1.391 . S
C2149 H2137 0.950 . S
C2149 C2145 1.393 . S
C2149 C2148 1.391 . S
C2150 H2140 0.950 . S
C2150 C2151 1.386 . S
C2150 C2152 1.391 . S
C2151 C2150 1.386 . S
C2151 C2155 1.393 . S
C2152 H2141 0.950 . S
C2152 C2150 1.391 . S
C2152 C2153 1.400 . S
C2153 C2147 1.491 . S
C2153 C2152 1.400 . S
C2153 C2154 1.398 . S
C2154 H2142 0.950 . S
C2154 C2153 1.398 . S
C2154 C2155 1.391 . S
C2155 H2143 0.950 . S
C2155 C2151 1.393 . S
C2155 C2154 1.391 . S
H2156 C2164 0.950 . S
H2157 C2169 0.950 . S
H2158 C2166 0.950 . S
H2159 C2168 0.950 . S
H2160 C2170 0.950 . S
H2161 C2172 0.950 . S
H2162 C2174 0.950 . S
H2163 C2175 0.950 . S
C2164 H2156 0.950 . S
C2164 C2165 1.386 . S
C2164 C2166 1.391 . S
C2165 C2164 1.386 . S
C2165 C2169 1.393 . S
C2166 H2158 0.950 . S
C2166 C2164 1.391 . S
C2166 C2167 1.400 . S
C2167 C2166 1.400 . S
C2167 C2168 1.398 . S
C2167 C2173 1.491 . S
C2168 H2159 0.950 . S
C2168 C2167 1.398 . S
C2168 C2169 1.391 . S
C2169 H2157 0.950 . S
C2169 C2165 1.393 . S
C2169 C2168 1.391 . S
C2170 H2160 0.950 . S
C2170 C2171 1.386 . S
C2170 C2172 1.391 . S
C2171 C2170 1.386 . S
C2171 C2175 1.393 . S
C2172 H2161 0.950 . S
C2172 C2170 1.391 . S
C2172 C2173 1.400 . S
C2173 C2167 1.491 . S
C2173 C2172 1.400 . S
C2173 C2174 1.398 . S
C2174 H2162 0.950 . S
C2174 C2173 1.398 . S
C2174 C2175 1.391 . S
C2175 H2163 0.950 . S
C2175 C2171 1.393 . S
C2175 C2174 1.391 . S
H2176 C2184 0.950 . S
H2177 C2189 0.950 . S
H2178 C2186 0.950 . S
H2179 C2188 0.950 . S
H2180 C2190 0.950 . S
H2181 C2192 0.950 . S
H2182 C2194 0.950 . S
H2183 C2195 0.950 . S
C2184 H2176 0.950 . S
C2184 C2185 1.386 . S
C2184 C2186 1.391 . S
C2185 C2184 1.386 . S
C2185 C2189 1.393 . S
C2186 H2178 0.950 . S
C2186 C2184 1.391 . S
C2186 C2187 1.400 . S
C2187 C2186 1.400 . S
C2187 C2188 1.398 . S
C2187 C2193 1.491 . S
C2188 H2179 0.950 . S
C2188 C2187 1.398 . S
C2188 C2189 1.391 . S
C2189 H2177 0.950 . S
C2189 C2185 1.393 . S
C2189 C2188 1.391 . S
C2190 H2180 0.950 . S
C2190 C2191 1.386 . S
C2190 C2192 1.391 . S
C2191 C2190 1.386 . S
C2191 C2195 1.393 . S
C2192 H2181 0.950 . S
C2192 C2190 1.391 . S
C2192 C2193 1.400 . S
C2193 C2187 1.491 . S
C2193 C2192 1.400 . S
C2193 C2194 1.398 . S
C2194 H2182 0.950 . S
C2194 C2193 1.398 . S
C2194 C2195 1.391 . S
C2195 H2183 0.950 . S
C2195 C2191 1.393 . S
C2195 C2194 1.391 . S
H2196 C2204 0.950 . S
H2197 C2209 0.950 . S
H2198 C2206 0.950 . S
H2199 C2208 0.950 . S
H2200 C2210 0.950 . S
H2201 C2212 0.950 . S
H2202 C2214 0.950 . S
H2203 C2215 0.950 . S
C2204 H2196 0.950 . S
C2204 C2205 1.386 . S
C2204 C2206 1.391 . S
C2205 C2204 1.386 . S
C2205 C2209 1.393 . S
C2206 H2198 0.950 . S
C2206 C2204 1.391 . S
C2206 C2207 1.400 . S
C2207 C2206 1.400 . S
C2207 C2208 1.398 . S
C2207 C2213 1.491 . S
C2208 H2199 0.950 . S
C2208 C2207 1.398 . S
C2208 C2209 1.391 . S
C2209 H2197 0.950 . S
C2209 C2205 1.393 . S
C2209 C2208 1.391 . S
C2210 H2200 0.950 . S
C2210 C2211 1.386 . S
C2210 C2212 1.391 . S
C2211 C2210 1.386 . S
C2211 C2215 1.393 . S
C2212 H2201 0.950 . S
C2212 C2210 1.391 . S
C2212 C2213 1.400 . S
C2213 C2207 1.491 . S
C2213 C2212 1.400 . S
C2213 C2214 1.398 . S
C2214 H2202 0.950 . S
C2214 C2213 1.398 . S
C2214 C2215 1.391 . S
C2215 H2203 0.950 . S
C2215 C2211 1.393 . S
C2215 C2214 1.391 . S
H2216 C2224 0.950 . S
H2217 C2229 0.950 . S
H2218 C2226 0.950 . S
H2219 C2228 0.950 . S
H2220 C2230 0.950 . S
H2221 C2232 0.950 . S
H2222 C2234 0.950 . S
H2223 C2235 0.950 . S
C2224 H2216 0.950 . S
C2224 C2225 1.386 . S
C2224 C2226 1.391 . S
C2225 C2224 1.386 . S
C2225 C2229 1.393 . S
C2226 H2218 0.950 . S
C2226 C2224 1.391 . S
C2226 C2227 1.400 . S
C2227 C2226 1.400 . S
C2227 C2228 1.398 . S
C2227 C2233 1.491 . S
C2228 H2219 0.950 . S
C2228 C2227 1.398 . S
C2228 C2229 1.391 . S
C2229 H2217 0.950 . S
C2229 C2225 1.393 . S
C2229 C2228 1.391 . S
C2230 H2220 0.950 . S
C2230 C2231 1.386 . S
C2230 C2232 1.391 . S
C2231 C2230 1.386 . S
C2231 C2235 1.393 . S
C2232 H2221 0.950 . S
C2232 C2230 1.391 . S
C2232 C2233 1.400 . S
C2233 C2227 1.491 . S
C2233 C2232 1.400 . S
C2233 C2234 1.398 . S
C2234 H2222 0.950 . S
C2234 C2233 1.398 . S
C2234 C2235 1.391 . S
C2235 H2223 0.950 . S
C2235 C2231 1.393 . S
C2235 C2234 1.391 . S
H2236 C2244 0.950 1_455 S
H2237 C2249 0.950 . S
H2238 C2246 0.950 . S
H2239 C2248 0.950 . S
H2240 C2250 0.950 . S
H2241 C2252 0.950 . S
H2242 C2254 0.950 . S
H2243 C2255 0.950 . S
C2244 H2236 0.950 1_655 S
C2244 C2245 1.386 . S
C2244 C2246 1.391 . S
C2245 C2244 1.386 . S
C2245 C2249 1.393 . S
C2246 H2238 0.950 . S
C2246 C2244 1.391 . S
C2246 C2247 1.400 . S
C2247 C2246 1.400 . S
C2247 C2248 1.398 . S
C2247 C2253 1.491 . S
C2248 H2239 0.950 . S
C2248 C2247 1.398 . S
C2248 C2249 1.391 . S
C2249 H2237 0.950 . S
C2249 C2245 1.393 . S
C2249 C2248 1.391 . S
C2250 H2240 0.950 . S
C2250 C2251 1.386 . S
C2250 C2252 1.391 . S
C2251 C2250 1.386 . S
C2251 C2255 1.393 . S
C2252 H2241 0.950 . S
C2252 C2250 1.391 . S
C2252 C2253 1.400 . S
C2253 C2247 1.491 . S
C2253 C2252 1.400 . S
C2253 C2254 1.398 . S
C2254 H2242 0.950 . S
C2254 C2253 1.398 . S
C2254 C2255 1.391 . S
C2255 H2243 0.950 . S
C2255 C2251 1.393 . S
C2255 C2254 1.391 . S
H2256 C2264 0.950 . S
H2257 C2269 0.950 . S
H2258 C2266 0.950 . S
H2259 C2268 0.950 . S
H2260 C2270 0.950 . S
H2261 C2272 0.950 . S
H2262 C2274 0.950 . S
H2263 C2275 0.950 . S
C2264 H2256 0.950 . S
C2264 C2265 1.386 . S
C2264 C2266 1.391 . S
C2265 C2264 1.386 . S
C2265 C2269 1.393 . S
C2266 H2258 0.950 . S
C2266 C2264 1.391 . S
C2266 C2267 1.400 . S
C2267 C2266 1.400 . S
C2267 C2268 1.398 . S
C2267 C2273 1.491 . S
C2268 H2259 0.950 . S
C2268 C2267 1.398 . S
C2268 C2269 1.391 . S
C2269 H2257 0.950 . S
C2269 C2265 1.393 . S
C2269 C2268 1.391 . S
C2270 H2260 0.950 . S
C2270 C2271 1.386 . S
C2270 C2272 1.391 . S
C2271 C2270 1.386 . S
C2271 C2275 1.393 . S
C2272 H2261 0.950 . S
C2272 C2270 1.391 . S
C2272 C2273 1.400 . S
C2273 C2267 1.491 . S
C2273 C2272 1.400 . S
C2273 C2274 1.398 . S
C2274 H2262 0.950 . S
C2274 C2273 1.398 . S
C2274 C2275 1.391 . S
C2275 H2263 0.950 . S
C2275 C2271 1.393 . S
C2275 C2274 1.391 . S
H2276 C2284 0.950 . S
H2277 C2289 0.950 1_455 S
H2278 C2286 0.950 . S
H2279 C2288 0.950 . S
H2280 C2290 0.950 . S
H2281 C2292 0.950 . S
H2282 C2294 0.950 . S
H2283 C2295 0.950 . S
C2284 H2276 0.950 . S
C2284 C2285 1.386 . S
C2284 C2286 1.391 . S
C2285 C2284 1.386 . S
C2285 C2289 1.393 . S
C2286 H2278 0.950 . S
C2286 C2284 1.391 . S
C2286 C2287 1.400 . S
C2287 C2286 1.400 . S
C2287 C2288 1.398 . S
C2287 C2293 1.491 . S
C2288 H2279 0.950 . S
C2288 C2287 1.398 . S
C2288 C2289 1.391 . S
C2289 H2277 0.950 1_655 S
C2289 C2285 1.393 . S
C2289 C2288 1.391 . S
C2290 H2280 0.950 . S
C2290 C2291 1.386 . S
C2290 C2292 1.391 . S
C2291 C2290 1.386 . S
C2291 C2295 1.393 . S
C2292 H2281 0.950 . S
C2292 C2290 1.391 . S
C2292 C2293 1.400 . S
C2293 C2287 1.491 . S
C2293 C2292 1.400 . S
C2293 C2294 1.398 . S
C2294 H2282 0.950 . S
C2294 C2293 1.398 . S
C2294 C2295 1.391 . S
C2295 H2283 0.950 . S
C2295 C2291 1.393 . S
C2295 C2294 1.391 . S
H2296 C2304 0.950 . S
H2297 C2309 0.950 . S
H2298 C2306 0.950 . S
H2299 C2308 0.950 . S
H2300 C2310 0.950 . S
H2301 C2312 0.950 . S
H2302 C2314 0.950 . S
H2303 C2315 0.950 . S
C2304 H2296 0.950 . S
C2304 C2305 1.386 . S
C2304 C2306 1.391 . S
C2305 C2304 1.386 . S
C2305 C2309 1.393 . S
C2306 H2298 0.950 . S
C2306 C2304 1.391 . S
C2306 C2307 1.400 . S
C2307 C2306 1.400 . S
C2307 C2308 1.398 . S
C2307 C2313 1.491 . S
C2308 H2299 0.950 . S
C2308 C2307 1.398 . S
C2308 C2309 1.391 . S
C2309 H2297 0.950 . S
C2309 C2305 1.393 . S
C2309 C2308 1.391 . S
C2310 H2300 0.950 . S
C2310 C2311 1.386 . S
C2310 C2312 1.391 . S
C2311 C2310 1.386 . S
C2311 C2315 1.393 . S
C2312 H2301 0.950 . S
C2312 C2310 1.391 . S
C2312 C2313 1.400 . S
C2313 C2307 1.491 . S
C2313 C2312 1.400 . S
C2313 C2314 1.398 . S
C2314 H2302 0.950 . S
C2314 C2313 1.398 . S
C2314 C2315 1.391 . S
C2315 H2303 0.950 . S
C2315 C2311 1.393 . S
C2315 C2314 1.391 . S
H2316 C2324 0.950 . S
H2317 C2329 0.950 . S
H2318 C2326 0.950 . S
H2319 C2328 0.950 . S
H2320 C2330 0.950 . S
H2321 C2332 0.950 . S
H2322 C2334 0.950 . S
H2323 C2335 0.950 . S
C2324 H2316 0.950 . S
C2324 C2325 1.386 . S
C2324 C2326 1.391 . S
C2325 C2324 1.386 . S
C2325 C2329 1.393 . S
C2326 H2318 0.950 . S
C2326 C2324 1.391 . S
C2326 C2327 1.400 . S
C2327 C2326 1.400 . S
C2327 C2328 1.398 . S
C2327 C2333 1.491 . S
C2328 H2319 0.950 . S
C2328 C2327 1.398 . S
C2328 C2329 1.391 . S
C2329 H2317 0.950 . S
C2329 C2325 1.393 . S
C2329 C2328 1.391 . S
C2330 H2320 0.950 . S
C2330 C2331 1.386 . S
C2330 C2332 1.391 . S
C2331 C2330 1.386 . S
C2331 C2335 1.393 . S
C2332 H2321 0.950 . S
C2332 C2330 1.391 . S
C2332 C2333 1.400 . S
C2333 C2327 1.491 . S
C2333 C2332 1.400 . S
C2333 C2334 1.398 . S
C2334 H2322 0.950 . S
C2334 C2333 1.398 . S
C2334 C2335 1.391 . S
C2335 H2323 0.950 . S
C2335 C2331 1.393 . S
C2335 C2334 1.391 . S
H2336 C2344 0.950 . S
H2337 C2349 0.950 . S
H2338 C2346 0.950 . S
H2339 C2348 0.950 . S
H2340 C2350 0.950 . S
H2341 C2352 0.950 . S
H2342 C2354 0.950 . S
H2343 C2355 0.950 . S
C2344 H2336 0.950 . S
C2344 C2345 1.386 . S
C2344 C2346 1.391 . S
C2345 C2344 1.386 . S
C2345 C2349 1.393 . S
C2346 H2338 0.950 . S
C2346 C2344 1.391 . S
C2346 C2347 1.400 . S
C2347 C2346 1.400 . S
C2347 C2348 1.398 . S
C2347 C2353 1.491 . S
C2348 H2339 0.950 . S
C2348 C2347 1.398 . S
C2348 C2349 1.391 . S
C2349 H2337 0.950 . S
C2349 C2345 1.393 . S
C2349 C2348 1.391 . S
C2350 H2340 0.950 . S
C2350 C2351 1.386 . S
C2350 C2352 1.391 . S
C2351 C2350 1.386 . S
C2351 C2355 1.393 . S
C2352 H2341 0.950 . S
C2352 C2350 1.391 . S
C2352 C2353 1.400 . S
C2353 C2347 1.491 . S
C2353 C2352 1.400 . S
C2353 C2354 1.398 . S
C2354 H2342 0.950 . S
C2354 C2353 1.398 . S
C2354 C2355 1.391 . S
C2355 H2343 0.950 . S
C2355 C2351 1.393 . S
C2355 C2354 1.391 . S
H2356 C2364 0.950 . S
H2357 C2369 0.950 . S
H2358 C2366 0.950 1_655 S
H2359 C2368 0.950 . S
H2360 C2370 0.950 . S
H2361 C2372 0.950 . S
H2362 C2374 0.950 . S
H2363 C2375 0.950 . S
C2364 H2356 0.950 . S
C2364 C2365 1.386 . S
C2364 C2366 1.391 . S
C2365 C2364 1.386 . S
C2365 C2369 1.393 . S
C2366 H2358 0.950 1_455 S
C2366 C2364 1.391 . S
C2366 C2367 1.400 . S
C2367 C2366 1.400 . S
C2367 C2368 1.398 . S
C2367 C2373 1.498 . S
C2368 H2359 0.950 . S
C2368 C2367 1.398 . S
C2368 C2369 1.391 . S
C2369 H2357 0.950 . S
C2369 C2365 1.393 . S
C2369 C2368 1.391 . S
C2370 H2360 0.950 . S
C2370 C2371 1.386 . S
C2370 C2372 1.391 1_655 S
C2371 C2370 1.386 . S
C2371 C2375 1.393 . S
C2372 H2361 0.950 . S
C2372 C2370 1.391 1_455 S
C2372 C2373 1.404 . S
C2373 C2367 1.498 . S
C2373 C2372 1.404 . S
C2373 C2374 1.387 1_455 S
C2374 H2362 0.950 . S
C2374 C2373 1.387 1_655 S
C2374 C2375 1.391 . S
C2375 H2363 0.950 . S
C2375 C2371 1.393 . S
C2375 C2374 1.391 . S
H2376 C2384 0.950 . S
H2377 C2389 0.950 . S
H2378 C2386 0.950 . S
H2379 C2388 0.950 . S
H2380 C2390 0.950 . S
H2381 C2392 0.950 . S
H2382 C2394 0.950 . S
H2383 C2395 0.950 . S
C2384 H2376 0.950 . S
C2384 C2385 1.386 . S
C2384 C2386 1.391 . S
C2385 C2384 1.386 . S
C2385 C2389 1.393 . S
C2386 H2378 0.950 . S
C2386 C2384 1.391 . S
C2386 C2387 1.400 . S
C2387 C2386 1.400 . S
C2387 C2388 1.398 . S
C2387 C2393 1.491 . S
C2388 H2379 0.950 . S
C2388 C2387 1.398 . S
C2388 C2389 1.391 . S
C2389 H2377 0.950 . S
C2389 C2385 1.393 . S
C2389 C2388 1.391 . S
C2390 H2380 0.950 . S
C2390 C2391 1.386 . S
C2390 C2392 1.391 . S
C2391 C2390 1.386 . S
C2391 C2395 1.393 . S
C2392 H2381 0.950 . S
C2392 C2390 1.391 . S
C2392 C2393 1.400 . S
C2393 C2387 1.491 . S
C2393 C2392 1.400 . S
C2393 C2394 1.398 . S
C2394 H2382 0.950 . S
C2394 C2393 1.398 . S
C2394 C2395 1.391 . S
C2395 H2383 0.950 . S
C2395 C2391 1.393 . S
C2395 C2394 1.391 . S
H2396 C2404 0.950 . S
H2397 C2409 0.950 . S
H2398 C2406 0.950 . S
H2399 C2408 0.950 . S
H2400 C2410 0.950 . S
H2401 C2412 0.950 . S
H2402 C2414 0.950 . S
H2403 C2415 0.950 . S
C2404 H2396 0.950 . S
C2404 C2405 1.386 1_565 S
C2404 C2406 1.391 . S
C2405 C2404 1.386 1_545 S
C2405 C2409 1.393 . S
C2406 H2398 0.950 . S
C2406 C2404 1.391 . S
C2406 C2407 1.400 1_565 S
C2407 C2406 1.400 1_545 S
C2407 C2408 1.398 . S
C2407 C2413 1.491 1_554 S
C2408 H2399 0.950 . S
C2408 C2407 1.398 . S
C2408 C2409 1.391 . S
C2409 H2397 0.950 . S
C2409 C2405 1.393 . S
C2409 C2408 1.391 . S
C2410 H2400 0.950 . S
C2410 C2411 1.386 . S
C2410 C2412 1.391 . S
C2411 C2410 1.386 . S
C2411 C2415 1.393 1_545 S
C2412 H2401 0.950 . S
C2412 C2410 1.391 . S
C2412 C2413 1.400 . S
C2413 C2407 1.491 1_556 S
C2413 C2412 1.400 . S
C2413 C2414 1.398 1_545 S
C2414 H2402 0.950 . S
C2414 C2413 1.398 1_565 S
C2414 C2415 1.391 . S
C2415 H2403 0.950 . S
C2415 C2411 1.393 1_565 S
C2415 C2414 1.391 . S
H2416 C2424 0.950 . S
H2417 C2429 0.950 . S
H2418 C2426 0.950 . S
H2419 C2428 0.950 . S
H2420 C2430 0.950 . S
H2421 C2432 0.950 . S
H2422 C2434 0.950 . S
H2423 C2435 0.950 . S
C2424 H2416 0.950 . S
C2424 C2425 1.386 . S
C2424 C2426 1.391 . S
C2425 C2424 1.386 . S
C2425 C2429 1.393 . S
C2426 H2418 0.950 . S
C2426 C2424 1.391 . S
C2426 C2427 1.400 . S
C2427 C2426 1.400 . S
C2427 C2428 1.398 . S
C2427 C2433 1.491 . S
C2428 H2419 0.950 . S
C2428 C2427 1.398 . S
C2428 C2429 1.391 . S
C2429 H2417 0.950 . S
C2429 C2425 1.393 . S
C2429 C2428 1.391 . S
C2430 H2420 0.950 . S
C2430 C2431 1.386 . S
C2430 C2432 1.391 . S
C2431 C2430 1.386 . S
C2431 C2435 1.393 . S
C2432 H2421 0.950 . S
C2432 C2430 1.391 . S
C2432 C2433 1.400 . S
C2433 C2427 1.491 . S
C2433 C2432 1.400 . S
C2433 C2434 1.398 . S
C2434 H2422 0.950 . S
C2434 C2433 1.398 . S
C2434 C2435 1.391 . S
C2435 H2423 0.950 . S
C2435 C2431 1.393 . S
C2435 C2434 1.391 . S
H2436 C2444 0.950 . S
H2437 C2449 0.950 . S
H2438 C2446 0.950 . S
H2439 C2448 0.950 . S
H2440 C2450 0.942 1_545 S
H2441 C2452 0.951 . S
H2442 C2454 0.950 . S
H2443 C2455 0.950 . S
C2444 H2436 0.950 . S
C2444 C2445 1.386 . S
C2444 C2446 1.391 . S
C2445 C2444 1.386 . S
C2445 C2449 1.393 1_565 S
C2446 H2438 0.950 . S
C2446 C2444 1.391 . S
C2446 C2447 1.400 . S
C2447 C2446 1.400 . S
C2447 C2448 1.398 1_565 S
C2447 C2453 1.491 . S
C2448 H2439 0.950 . S
C2448 C2447 1.398 1_545 S
C2448 C2449 1.391 . S
C2449 H2437 0.950 . S
C2449 C2445 1.393 1_545 S
C2449 C2448 1.391 . S
C2450 H2440 0.942 1_565 S
C2450 C2451 1.393 . S
C2450 C2452 1.391 1_565 S
C2451 C2450 1.393 . S
C2451 C2455 1.393 . S
C2452 H2441 0.951 . S
C2452 C2450 1.391 1_545 S
C2452 C2453 1.399 1_545 S
C2453 C2447 1.491 . S
C2453 C2452 1.399 1_565 S
C2453 C2454 1.398 . S
C2454 H2442 0.950 . S
C2454 C2453 1.398 . S
C2454 C2455 1.391 . S
C2455 H2443 0.950 . S
C2455 C2451 1.393 . S
C2455 C2454 1.391 . S
H2456 C2464 0.950 . S
H2457 C2469 0.950 . S
H2458 C2466 0.950 . S
H2459 C2468 0.950 . S
H2460 C2470 0.950 . S
H2461 C2472 0.950 . S
H2462 C2474 0.950 . S
H2463 C2475 0.950 . S
C2464 H2456 0.950 . S
C2464 C2465 1.386 . S
C2464 C2466 1.391 . S
C2465 C2464 1.386 . S
C2465 C2469 1.393 . S
C2466 H2458 0.950 . S
C2466 C2464 1.391 . S
C2466 C2467 1.400 . S
C2467 C2466 1.400 . S
C2467 C2468 1.398 . S
C2467 C2473 1.491 . S
C2468 H2459 0.950 . S
C2468 C2467 1.398 . S
C2468 C2469 1.391 . S
C2469 H2457 0.950 . S
C2469 C2465 1.393 . S
C2469 C2468 1.391 . S
C2470 H2460 0.950 . S
C2470 C2471 1.386 . S
C2470 C2472 1.391 . S
C2471 C2470 1.386 . S
C2471 C2475 1.393 . S
C2472 H2461 0.950 . S
C2472 C2470 1.391 . S
C2472 C2473 1.400 . S
C2473 C2467 1.491 . S
C2473 C2472 1.400 . S
C2473 C2474 1.398 . S
C2474 H2462 0.950 . S
C2474 C2473 1.398 . S
C2474 C2475 1.391 . S
C2475 H2463 0.950 . S
C2475 C2471 1.393 . S
C2475 C2474 1.391 . S
H2476 C2484 0.950 . S
H2477 C2489 0.950 1_565 S
H2478 C2486 0.950 1_655 S
H2479 C2488 0.950 1_565 S
H2480 C2490 0.950 . S
H2481 C2492 0.950 . S
H2482 C2494 0.889 1_556 S
H2483 C2495 0.950 . S
C2484 H2476 0.950 . S
C2484 C2485 1.386 . S
C2484 C2486 1.391 . S
C2485 C2484 1.386 . S
C2485 C2489 1.393 . S
C2486 H2478 0.950 1_455 S
C2486 C2484 1.391 . S
C2486 C2487 1.400 . S
C2487 C2486 1.400 . S
C2487 C2488 1.398 . S
C2487 C2493 1.507 1_556 S
C2488 H2479 0.950 1_545 S
C2488 C2487 1.398 . S
C2488 C2489 1.391 . S
C2489 H2477 0.950 1_545 S
C2489 C2485 1.393 . S
C2489 C2488 1.391 . S
C2490 H2480 0.950 . S
C2490 C2491 1.386 . S
C2490 C2492 1.391 1_655 S
C2491 C2490 1.386 . S
C2491 C2495 1.393 . S
C2492 H2481 0.950 . S
C2492 C2490 1.391 1_455 S
C2492 C2493 1.408 . S
C2493 C2487 1.507 1_554 S
C2493 C2492 1.408 . S
C2493 C2494 1.380 1_455 S
C2494 H2482 0.889 1_554 S
C2494 C2493 1.380 1_655 S
C2494 C2495 1.447 . S
C2495 H2483 0.950 . S
C2495 C2491 1.393 . S
C2495 C2494 1.447 . S
H2496 C2504 0.950 . S
H2497 C2509 0.950 . S
H2498 C2506 0.950 . S
H2499 C2508 0.950 . S
H2500 C2510 0.950 . S
H2501 C2512 0.950 . S
H2502 C2514 0.950 . S
H2503 C2515 0.950 . S
C2504 H2496 0.950 . S
C2504 C2505 1.386 . S
C2504 C2506 1.391 . S
C2505 C2504 1.386 . S
C2505 C2509 1.393 . S
C2506 H2498 0.950 . S
C2506 C2504 1.391 . S
C2506 C2507 1.400 . S
C2507 C2506 1.400 . S
C2507 C2508 1.398 . S
C2507 C2513 1.491 . S
C2508 H2499 0.950 . S
C2508 C2507 1.398 . S
C2508 C2509 1.391 . S
C2509 H2497 0.950 . S
C2509 C2505 1.393 . S
C2509 C2508 1.391 . S
C2510 H2500 0.950 . S
C2510 C2511 1.386 . S
C2510 C2512 1.391 . S
C2511 C2510 1.386 . S
C2511 C2515 1.393 . S
C2512 H2501 0.950 . S
C2512 C2510 1.391 . S
C2512 C2513 1.400 . S
C2513 C2507 1.491 . S
C2513 C2512 1.400 . S
C2513 C2514 1.398 . S
C2514 H2502 0.950 . S
C2514 C2513 1.398 . S
C2514 C2515 1.391 . S
C2515 H2503 0.950 . S
C2515 C2511 1.393 . S
C2515 C2514 1.391 . S
H2516 C2524 0.950 . S
H2517 C2529 0.950 . S
H2518 C2526 0.950 . S
H2519 C2528 0.950 . S
H2520 C2530 0.950 . S
H2521 C2532 0.950 . S
H2522 C2534 0.950 . S
H2523 C2535 0.950 . S
C2524 H2516 0.950 . S
C2524 C2525 1.386 . S
C2524 C2526 1.391 . S
C2525 C2524 1.386 . S
C2525 C2529 1.393 . S
C2526 H2518 0.950 . S
C2526 C2524 1.391 . S
C2526 C2527 1.400 . S
C2527 C2526 1.400 . S
C2527 C2528 1.398 . S
C2527 C2533 1.491 . S
C2528 H2519 0.950 . S
C2528 C2527 1.398 . S
C2528 C2529 1.391 . S
C2529 H2517 0.950 . S
C2529 C2525 1.393 . S
C2529 C2528 1.391 . S
C2530 H2520 0.950 . S
C2530 C2531 1.386 . S
C2530 C2532 1.391 . S
C2531 C2530 1.386 . S
C2531 C2535 1.393 . S
C2532 H2521 0.950 . S
C2532 C2530 1.391 . S
C2532 C2533 1.400 . S
C2533 C2527 1.491 . S
C2533 C2532 1.400 . S
C2533 C2534 1.398 . S
C2534 H2522 0.950 . S
C2534 C2533 1.398 . S
C2534 C2535 1.391 . S
C2535 H2523 0.950 . S
C2535 C2531 1.393 . S
C2535 C2534 1.391 . S
H2536 C2544 0.950 . S
H2537 C2549 0.950 . S
H2538 C2546 0.950 . S
H2539 C2548 0.950 . S
H2540 C2550 0.950 . S
H2541 C2552 0.950 . S
H2542 C2554 0.950 . S
H2543 C2555 0.950 . S
C2544 H2536 0.950 . S
C2544 C2545 1.386 . S
C2544 C2546 1.391 . S
C2545 C2544 1.386 . S
C2545 C2549 1.393 . S
C2546 H2538 0.950 . S
C2546 C2544 1.391 . S
C2546 C2547 1.400 . S
C2547 C2546 1.400 . S
C2547 C2548 1.398 . S
C2547 C2553 1.491 . S
C2548 H2539 0.950 . S
C2548 C2547 1.398 . S
C2548 C2549 1.391 . S
C2549 H2537 0.950 . S
C2549 C2545 1.393 . S
C2549 C2548 1.391 . S
C2550 H2540 0.950 . S
C2550 C2551 1.386 . S
C2550 C2552 1.391 . S
C2551 C2550 1.386 . S
C2551 C2555 1.393 . S
C2552 H2541 0.950 . S
C2552 C2550 1.391 . S
C2552 C2553 1.400 . S
C2553 C2547 1.491 . S
C2553 C2552 1.400 . S
C2553 C2554 1.398 . S
C2554 H2542 0.950 . S
C2554 C2553 1.398 . S
C2554 C2555 1.391 . S
C2555 H2543 0.950 . S
C2555 C2551 1.393 . S
C2555 C2554 1.391 . S
H2556 C2564 0.950 . S
H2557 C2569 0.950 . S
H2558 C2566 0.950 . S
H2559 C2568 0.950 . S
H2560 C2570 0.950 . S
H2561 C2572 0.950 . S
H2562 C2574 0.950 . S
H2563 C2575 0.950 . S
C2564 H2556 0.950 . S
C2564 C2565 1.386 . S
C2564 C2566 1.391 . S
C2565 C2564 1.386 . S
C2565 C2569 1.393 . S
C2566 H2558 0.950 . S
C2566 C2564 1.391 . S
C2566 C2567 1.400 . S
C2567 C2566 1.400 . S
C2567 C2568 1.398 . S
C2567 C2573 1.491 . S
C2568 H2559 0.950 . S
C2568 C2567 1.398 . S
C2568 C2569 1.391 . S
C2569 H2557 0.950 . S
C2569 C2565 1.393 . S
C2569 C2568 1.391 . S
C2570 H2560 0.950 . S
C2570 C2571 1.386 . S
C2570 C2572 1.391 . S
C2571 C2570 1.386 . S
C2571 C2575 1.393 . S
C2572 H2561 0.950 . S
C2572 C2570 1.391 . S
C2572 C2573 1.400 . S
C2573 C2567 1.491 . S
C2573 C2572 1.400 . S
C2573 C2574 1.398 . S
C2574 H2562 0.950 . S
C2574 C2573 1.398 . S
C2574 C2575 1.391 . S
C2575 H2563 0.950 . S
C2575 C2571 1.393 . S
C2575 C2574 1.391 . S
H2576 C2584 0.950 . S
H2577 C2589 0.950 . S
H2578 C2586 0.950 . S
H2579 C2588 0.950 . S
H2580 C2590 0.950 . S
H2581 C2592 0.950 . S
H2582 C2594 0.950 . S
H2583 C2595 0.950 . S
C2584 H2576 0.950 . S
C2584 C2585 1.386 . S
C2584 C2586 1.391 . S
C2585 C2584 1.386 . S
C2585 C2589 1.393 . S
C2586 H2578 0.950 . S
C2586 C2584 1.391 . S
C2586 C2587 1.400 . S
C2587 C2586 1.400 . S
C2587 C2588 1.398 . S
C2587 C2593 1.491 1_554 S
C2588 H2579 0.950 . S
C2588 C2587 1.398 . S
C2588 C2589 1.391 . S
C2589 H2577 0.950 . S
C2589 C2585 1.393 . S
C2589 C2588 1.391 . S
C2590 H2580 0.950 . S
C2590 C2591 1.386 . S
C2590 C2592 1.391 . S
C2591 C2590 1.386 . S
C2591 C2595 1.393 . S
C2592 H2581 0.950 . S
C2592 C2590 1.391 . S
C2592 C2593 1.400 . S
C2593 C2587 1.491 1_556 S
C2593 C2592 1.400 . S
C2593 C2594 1.398 . S
C2594 H2582 0.950 . S
C2594 C2593 1.398 . S
C2594 C2595 1.391 . S
C2595 H2583 0.950 . S
C2595 C2591 1.393 . S
C2595 C2594 1.391 . S
H2596 C2604 0.950 . S
H2597 C2609 0.950 . S
H2598 C2606 0.950 . S
H2599 C2608 0.950 . S
H2600 C2610 0.950 . S
H2601 C2612 0.950 1_455 S
H2602 C2614 0.950 . S
H2603 C2615 0.950 . S
C2604 H2596 0.950 . S
C2604 C2605 1.386 . S
C2604 C2606 1.391 1_455 S
C2605 C2604 1.386 . S
C2605 C2609 1.393 . S
C2606 H2598 0.950 . S
C2606 C2604 1.391 1_655 S
C2606 C2607 1.402 . S
C2607 C2606 1.402 . S
C2607 C2608 1.392 1_655 S
C2607 C2613 1.495 . S
C2608 H2599 0.950 . S
C2608 C2607 1.392 1_455 S
C2608 C2609 1.391 . S
C2609 H2597 0.950 . S
C2609 C2605 1.393 . S
C2609 C2608 1.391 . S
C2610 H2600 0.950 . S
C2610 C2611 1.386 . S
C2610 C2612 1.391 . S
C2611 C2610 1.386 . S
C2611 C2615 1.393 . S
C2612 H2601 0.950 1_655 S
C2612 C2610 1.391 . S
C2612 C2613 1.400 . S
C2613 C2607 1.495 . S
C2613 C2612 1.400 . S
C2613 C2614 1.398 . S
C2614 H2602 0.950 . S
C2614 C2613 1.398 . S
C2614 C2615 1.391 . S
C2615 H2603 0.950 . S
C2615 C2611 1.393 . S
C2615 C2614 1.391 . S
H2616 C2624 0.950 . S
H2617 C2629 0.950 . S
H2618 C2626 0.950 1_556 S
H2619 C2628 0.933 1_655 S
H2620 C2630 0.950 . S
H2621 C2632 0.950 . S
H2622 C2634 0.950 . S
H2623 C2635 0.950 . S
C2624 H2616 0.950 . S
C2624 C2625 1.386 . S
C2624 C2626 1.391 . S
C2625 C2624 1.386 . S
C2625 C2629 1.393 . S
C2626 H2618 0.950 1_554 S
C2626 C2624 1.391 . S
C2626 C2627 1.399 1_455 S
C2627 C2626 1.399 1_655 S
C2627 C2628 1.398 1_655 S
C2627 C2633 1.492 1_554 S
C2628 H2619 0.933 1_455 S
C2628 C2627 1.398 1_455 S
C2628 C2629 1.409 . S
C2629 H2617 0.950 . S
C2629 C2625 1.393 . S
C2629 C2628 1.409 . S
C2630 H2620 0.950 . S
C2630 C2631 1.386 . S
C2630 C2632 1.391 . S
C2631 C2630 1.386 . S
C2631 C2635 1.393 . S
C2632 H2621 0.950 . S
C2632 C2630 1.391 . S
C2632 C2633 1.400 . S
C2633 C2627 1.492 1_556 S
C2633 C2632 1.400 . S
C2633 C2634 1.398 . S
C2634 H2622 0.950 . S
C2634 C2633 1.398 . S
C2634 C2635 1.391 . S
C2635 H2623 0.950 . S
C2635 C2631 1.393 . S
C2635 C2634 1.391 . S
H2636 C2644 0.950 . S
H2637 C2649 0.950 . S
H2638 C2646 0.950 . S
H2639 C2648 0.950 . S
H2640 C2650 0.950 . S
H2641 C2652 0.950 . S
H2642 C2654 0.950 . S
H2643 C2655 0.950 . S
C2644 H2636 0.950 . S
C2644 C2645 1.386 . S
C2644 C2646 1.391 . S
C2645 C2644 1.386 . S
C2645 C2649 1.393 . S
C2646 H2638 0.950 . S
C2646 C2644 1.391 . S
C2646 C2647 1.400 . S
C2647 C2646 1.400 . S
C2647 C2648 1.398 . S
C2647 C2653 1.491 . S
C2648 H2639 0.950 . S
C2648 C2647 1.398 . S
C2648 C2649 1.391 . S
C2649 H2637 0.950 . S
C2649 C2645 1.393 . S
C2649 C2648 1.391 . S
C2650 H2640 0.950 . S
C2650 C2651 1.386 . S
C2650 C2652 1.391 . S
C2651 C2650 1.386 . S
C2651 C2655 1.393 . S
C2652 H2641 0.950 . S
C2652 C2650 1.391 . S
C2652 C2653 1.400 . S
C2653 C2647 1.491 . S
C2653 C2652 1.400 . S
C2653 C2654 1.398 . S
C2654 H2642 0.950 . S
C2654 C2653 1.398 . S
C2654 C2655 1.391 . S
C2655 H2643 0.950 . S
C2655 C2651 1.393 . S
C2655 C2654 1.391 . S
H2656 C2664 0.950 . S
H2657 C2669 0.950 . S
H2658 C2666 0.950 1_565 S
H2659 C2668 0.950 . S
H2660 C2670 0.950 . S
H2661 C2672 0.950 1_545 S
H2662 C2674 0.950 . S
H2663 C2675 0.950 . S
C2664 H2656 0.950 . S
C2664 C2665 1.386 . S
C2664 C2666 1.391 . S
C2665 C2664 1.386 . S
C2665 C2669 1.393 . S
C2666 H2658 0.950 1_545 S
C2666 C2664 1.391 . S
C2666 C2667 1.400 . S
C2667 C2666 1.400 . S
C2667 C2668 1.398 . S
C2667 C2673 1.491 1_545 S
C2668 H2659 0.950 . S
C2668 C2667 1.398 . S
C2668 C2669 1.391 . S
C2669 H2657 0.950 . S
C2669 C2665 1.393 . S
C2669 C2668 1.391 . S
C2670 H2660 0.950 . S
C2670 C2671 1.386 . S
C2670 C2672 1.391 . S
C2671 C2670 1.386 . S
C2671 C2675 1.393 . S
C2672 H2661 0.950 1_565 S
C2672 C2670 1.391 . S
C2672 C2673 1.400 . S
C2673 C2667 1.491 1_565 S
C2673 C2672 1.400 . S
C2673 C2674 1.398 . S
C2674 H2662 0.950 . S
C2674 C2673 1.398 . S
C2674 C2675 1.391 . S
C2675 H2663 0.950 . S
C2675 C2671 1.393 . S
C2675 C2674 1.391 . S
H2676 C2684 0.950 . S
H2677 C2689 0.950 . S
H2678 C2686 0.950 . S
H2679 C2688 0.950 . S
H2680 C2690 0.950 . S
H2681 C2692 0.950 . S
H2682 C2694 0.950 . S
H2683 C2695 0.950 . S
C2684 H2676 0.950 . S
C2684 C2685 1.386 . S
C2684 C2686 1.391 . S
C2685 C2684 1.386 . S
C2685 C2689 1.393 . S
C2686 H2678 0.950 . S
C2686 C2684 1.391 . S
C2686 C2687 1.400 . S
C2687 C2686 1.400 . S
C2687 C2688 1.398 . S
C2687 C2693 1.491 . S
C2688 H2679 0.950 . S
C2688 C2687 1.398 . S
C2688 C2689 1.391 . S
C2689 H2677 0.950 . S
C2689 C2685 1.393 . S
C2689 C2688 1.391 . S
C2690 H2680 0.950 . S
C2690 C2691 1.386 . S
C2690 C2692 1.391 . S
C2691 C2690 1.386 . S
C2691 C2695 1.393 . S
C2692 H2681 0.950 . S
C2692 C2690 1.391 . S
C2692 C2693 1.400 . S
C2693 C2687 1.491 . S
C2693 C2692 1.400 . S
C2693 C2694 1.398 . S
C2694 H2682 0.950 . S
C2694 C2693 1.398 . S
C2694 C2695 1.391 . S
C2695 H2683 0.950 . S
C2695 C2691 1.393 . S
C2695 C2694 1.391 . S
H2696 C2704 0.950 . S
H2697 C2709 0.950 . S
H2698 C2706 0.950 . S
H2699 C2708 0.950 . S
H2700 C2710 0.950 . S
H2701 C2712 0.950 . S
H2702 C2714 0.950 . S
H2703 C2715 0.950 . S
C2704 H2696 0.950 . S
C2704 C2705 1.386 . S
C2704 C2706 1.391 . S
C2705 C2704 1.386 . S
C2705 C2709 1.393 . S
C2706 H2698 0.950 . S
C2706 C2704 1.391 . S
C2706 C2707 1.400 . S
C2707 C2706 1.400 . S
C2707 C2708 1.398 . S
C2707 C2713 1.491 1_545 S
C2708 H2699 0.950 . S
C2708 C2707 1.398 . S
C2708 C2709 1.391 . S
C2709 H2697 0.950 . S
C2709 C2705 1.393 . S
C2709 C2708 1.391 . S
C2710 H2700 0.950 . S
C2710 C2711 1.386 . S
C2710 C2712 1.391 . S
C2711 C2710 1.386 . S
C2711 C2715 1.393 . S
C2712 H2701 0.950 . S
C2712 C2710 1.391 . S
C2712 C2713 1.400 . S
C2713 C2707 1.491 1_565 S
C2713 C2712 1.400 . S
C2713 C2714 1.398 . S
C2714 H2702 0.950 . S
C2714 C2713 1.398 . S
C2714 C2715 1.391 . S
C2715 H2703 0.950 . S
C2715 C2711 1.393 . S
C2715 C2714 1.391 . S
H2716 C2724 0.950 . S
H2717 C2729 0.950 . S
H2718 C2726 0.950 . S
H2719 C2728 0.950 . S
H2720 C2730 0.950 . S
H2721 C2732 0.950 . S
H2722 C2734 0.950 . S
H2723 C2735 0.950 . S
C2724 H2716 0.950 . S
C2724 C2725 1.386 . S
C2724 C2726 1.391 . S
C2725 C2724 1.386 . S
C2725 C2729 1.393 . S
C2726 H2718 0.950 . S
C2726 C2724 1.391 . S
C2726 C2727 1.400 . S
C2727 C2726 1.400 . S
C2727 C2728 1.398 . S
C2727 C2733 1.491 1_554 S
C2728 H2719 0.950 . S
C2728 C2727 1.398 . S
C2728 C2729 1.391 . S
C2729 H2717 0.950 . S
C2729 C2725 1.393 . S
C2729 C2728 1.391 . S
C2730 H2720 0.950 . S
C2730 C2731 1.386 . S
C2730 C2732 1.391 . S
C2731 C2730 1.386 . S
C2731 C2735 1.393 . S
C2732 H2721 0.950 . S
C2732 C2730 1.391 . S
C2732 C2733 1.400 . S
C2733 C2727 1.491 1_556 S
C2733 C2732 1.400 . S
C2733 C2734 1.398 . S
C2734 H2722 0.950 . S
C2734 C2733 1.398 . S
C2734 C2735 1.391 . S
C2735 H2723 0.950 . S
C2735 C2731 1.393 . S
C2735 C2734 1.391 . S
H2736 C2744 0.950 . S
H2737 C2749 0.950 . S
H2738 C2746 0.950 1_565 S
H2739 C2748 0.950 . S
H2740 C2750 0.950 . S
H2741 C2752 0.950 1_545 S
H2742 C2754 0.950 . S
H2743 C2755 0.950 . S
C2744 H2736 0.950 . S
C2744 C2745 1.386 . S
C2744 C2746 1.391 . S
C2745 C2744 1.386 . S
C2745 C2749 1.393 . S
C2746 H2738 0.950 1_545 S
C2746 C2744 1.391 . S
C2746 C2747 1.400 . S
C2747 C2746 1.400 . S
C2747 C2748 1.398 . S
C2747 C2753 1.491 1_545 S
C2748 H2739 0.950 . S
C2748 C2747 1.398 . S
C2748 C2749 1.391 . S
C2749 H2737 0.950 . S
C2749 C2745 1.393 . S
C2749 C2748 1.391 . S
C2750 H2740 0.950 . S
C2750 C2751 1.386 . S
C2750 C2752 1.391 . S
C2751 C2750 1.386 . S
C2751 C2755 1.393 . S
C2752 H2741 0.950 1_565 S
C2752 C2750 1.391 . S
C2752 C2753 1.400 . S
C2753 C2747 1.491 1_565 S
C2753 C2752 1.400 . S
C2753 C2754 1.398 . S
C2754 H2742 0.950 . S
C2754 C2753 1.398 . S
C2754 C2755 1.391 . S
C2755 H2743 0.950 . S
C2755 C2751 1.393 . S
C2755 C2754 1.391 . S
H2756 C2764 0.950 . S
H2757 C2769 0.950 . S
H2758 C2766 0.950 . S
H2759 C2768 0.950 . S
H2760 C2770 0.950 . S
H2761 C2772 0.950 . S
H2762 C2774 0.950 . S
H2763 C2775 0.950 . S
C2764 H2756 0.950 . S
C2764 C2765 1.386 . S
C2764 C2766 1.391 . S
C2765 C2764 1.386 . S
C2765 C2769 1.393 1_545 S
C2766 H2758 0.950 . S
C2766 C2764 1.391 . S
C2766 C2767 1.400 . S
C2767 C2766 1.400 . S
C2767 C2768 1.398 1_545 S
C2767 C2773 1.491 . S
C2768 H2759 0.950 . S
C2768 C2767 1.398 1_565 S
C2768 C2769 1.391 . S
C2769 H2757 0.950 . S
C2769 C2765 1.393 1_565 S
C2769 C2768 1.391 . S
C2770 H2760 0.950 . S
C2770 C2771 1.386 1_565 S
C2770 C2772 1.391 . S
C2771 C2770 1.386 1_545 S
C2771 C2775 1.393 . S
C2772 H2761 0.950 . S
C2772 C2770 1.391 . S
C2772 C2773 1.400 1_565 S
C2773 C2767 1.491 . S
C2773 C2772 1.400 1_545 S
C2773 C2774 1.398 . S
C2774 H2762 0.950 . S
C2774 C2773 1.398 . S
C2774 C2775 1.391 . S
C2775 H2763 0.950 . S
C2775 C2771 1.393 . S
C2775 C2774 1.391 . S
H2776 C2784 0.950 . S
H2777 C2789 0.950 . S
H2778 C2786 0.950 1_565 S
H2779 C2788 0.950 . S
H2780 C2790 0.950 . S
H2781 C2792 0.950 1_545 S
H2782 C2794 0.950 . S
H2783 C2795 0.950 . S
C2784 H2776 0.950 . S
C2784 C2785 1.386 . S
C2784 C2786 1.391 . S
C2785 C2784 1.386 . S
C2785 C2789 1.393 . S
C2786 H2778 0.950 1_545 S
C2786 C2784 1.391 . S
C2786 C2787 1.400 . S
C2787 C2786 1.400 . S
C2787 C2788 1.398 . S
C2787 C2793 1.491 1_545 S
C2788 H2779 0.950 . S
C2788 C2787 1.398 . S
C2788 C2789 1.391 . S
C2789 H2777 0.950 . S
C2789 C2785 1.393 . S
C2789 C2788 1.391 . S
C2790 H2780 0.950 . S
C2790 C2791 1.386 . S
C2790 C2792 1.391 . S
C2791 C2790 1.386 . S
C2791 C2795 1.393 . S
C2792 H2781 0.950 1_565 S
C2792 C2790 1.391 . S
C2792 C2793 1.400 . S
C2793 C2787 1.491 1_565 S
C2793 C2792 1.400 . S
C2793 C2794 1.398 . S
C2794 H2782 0.950 . S
C2794 C2793 1.398 . S
C2794 C2795 1.391 . S
C2795 H2783 0.950 . S
C2795 C2791 1.393 . S
C2795 C2794 1.391 . S
H2796 C2804 0.950 . S
H2797 C2809 0.950 . S
H2798 C2806 0.889 1_554 S
H2799 C2808 0.950 . S
H2800 C2810 0.950 . S
H2801 C2812 0.889 1_556 S
H2802 C2814 0.950 . S
H2803 C2815 0.950 . S
C2804 H2796 0.950 . S
C2804 C2805 1.386 . S
C2804 C2806 1.433 . S
C2805 C2804 1.386 . S
C2805 C2809 1.393 1_565 S
C2806 H2798 0.889 1_556 S
C2806 C2804 1.433 . S
C2806 C2807 1.420 . S
C2807 C2806 1.420 . S
C2807 C2808 1.398 1_565 S
C2807 C2813 1.491 1_556 S
C2808 H2799 0.950 . S
C2808 C2807 1.398 1_545 S
C2808 C2809 1.391 . S
C2809 H2797 0.950 . S
C2809 C2805 1.393 1_545 S
C2809 C2808 1.391 . S
C2810 H2800 0.950 . S
C2810 C2811 1.386 1_545 S
C2810 C2812 1.433 . S
C2811 C2810 1.386 1_565 S
C2811 C2815 1.393 . S
C2812 H2801 0.889 1_554 S
C2812 C2810 1.433 . S
C2812 C2813 1.420 1_545 S
C2813 C2807 1.491 1_554 S
C2813 C2812 1.420 1_565 S
C2813 C2814 1.398 . S
C2814 H2802 0.950 . S
C2814 C2813 1.398 . S
C2814 C2815 1.391 . S
C2815 H2803 0.950 . S
C2815 C2811 1.393 . S
C2815 C2814 1.391 . S
H2816 C2824 0.950 . S
H2817 C2829 0.950 . S
H2818 C2826 0.950 . S
H2819 C2828 0.950 . S
H2820 C2830 0.950 . S
H2821 C2832 0.950 . S
H2822 C2834 0.950 . S
H2823 C2835 0.950 . S
C2824 H2816 0.950 . S
C2824 C2825 1.386 . S
C2824 C2826 1.391 . S
C2825 C2824 1.386 . S
C2825 C2829 1.393 . S
C2826 H2818 0.950 . S
C2826 C2824 1.391 . S
C2826 C2827 1.400 . S
C2827 C2826 1.400 . S
C2827 C2828 1.398 . S
C2827 C2833 1.491 . S
C2828 H2819 0.950 . S
C2828 C2827 1.398 . S
C2828 C2829 1.391 . S
C2829 H2817 0.950 . S
C2829 C2825 1.393 . S
C2829 C2828 1.391 . S
C2830 H2820 0.950 . S
C2830 C2831 1.386 . S
C2830 C2832 1.391 . S
C2831 C2830 1.386 . S
C2831 C2835 1.393 . S
C2832 H2821 0.950 . S
C2832 C2830 1.391 . S
C2832 C2833 1.400 . S
C2833 C2827 1.491 . S
C2833 C2832 1.400 . S
C2833 C2834 1.398 . S
C2834 H2822 0.950 . S
C2834 C2833 1.398 . S
C2834 C2835 1.391 . S
C2835 H2823 0.950 . S
C2835 C2831 1.393 . S
C2835 C2834 1.391 . S
H2836 C2844 0.950 . S
H2837 C2849 0.950 . S
H2838 C2846 0.950 . S
H2839 C2848 0.932 1_554 S
H2840 C2850 0.950 . S
H2841 C2852 0.950 . S
H2842 C2854 0.932 1_556 S
H2843 C2855 0.950 . S
C2844 H2836 0.950 . S
C2844 C2845 1.386 . S
C2844 C2846 1.391 . S
C2845 C2844 1.386 . S
C2845 C2849 1.393 . S
C2846 H2838 0.950 . S
C2846 C2844 1.391 . S
C2846 C2847 1.400 . S
C2847 C2846 1.400 . S
C2847 C2848 1.398 . S
C2847 C2853 1.491 1_556 S
C2848 H2839 0.932 1_556 S
C2848 C2847 1.398 . S
C2848 C2849 1.391 . S
C2849 H2837 0.950 . S
C2849 C2845 1.393 . S
C2849 C2848 1.391 . S
C2850 H2840 0.950 . S
C2850 C2851 1.386 . S
C2850 C2852 1.391 . S
C2851 C2850 1.386 . S
C2851 C2855 1.393 . S
C2852 H2841 0.950 . S
C2852 C2850 1.391 . S
C2852 C2853 1.400 . S
C2853 C2847 1.491 1_554 S
C2853 C2852 1.400 . S
C2853 C2854 1.398 . S
C2854 H2842 0.932 1_554 S
C2854 C2853 1.398 . S
C2854 C2855 1.391 . S
C2855 H2843 0.950 . S
C2855 C2851 1.393 . S
C2855 C2854 1.391 . S
H2856 C2864 0.950 . S
H2857 C2869 0.950 . S
H2858 C2866 0.950 . S
H2859 C2868 0.950 . S
H2860 C2870 0.950 . S
H2861 C2872 0.950 . S
H2862 C2874 0.950 . S
H2863 C2875 0.950 . S
C2864 H2856 0.950 . S
C2864 C2865 1.386 . S
C2864 C2866 1.391 . S
C2865 C2864 1.386 . S
C2865 C2869 1.393 . S
C2866 H2858 0.950 . S
C2866 C2864 1.391 . S
C2866 C2867 1.400 . S
C2867 C2866 1.400 . S
C2867 C2868 1.398 . S
C2867 C2873 1.491 . S
C2868 H2859 0.950 . S
C2868 C2867 1.398 . S
C2868 C2869 1.391 . S
C2869 H2857 0.950 . S
C2869 C2865 1.393 . S
C2869 C2868 1.391 . S
C2870 H2860 0.950 . S
C2870 C2871 1.386 . S
C2870 C2872 1.391 . S
C2871 C2870 1.386 . S
C2871 C2875 1.393 . S
C2872 H2861 0.950 . S
C2872 C2870 1.391 . S
C2872 C2873 1.400 . S
C2873 C2867 1.491 . S
C2873 C2872 1.400 . S
C2873 C2874 1.398 . S
C2874 H2862 0.950 . S
C2874 C2873 1.398 . S
C2874 C2875 1.391 . S
C2875 H2863 0.950 . S
C2875 C2871 1.393 . S
C2875 C2874 1.391 . S
H2876 C2884 0.950 . S
H2877 C2889 0.950 . S
H2878 C2886 0.950 . S
H2879 C2888 0.950 . S
H2880 C2890 0.950 . S
H2881 C2892 0.950 . S
H2882 C2894 0.950 . S
H2883 C2895 0.950 . S
C2884 H2876 0.950 . S
C2884 C2885 1.386 . S
C2884 C2886 1.391 . S
C2885 C2884 1.386 . S
C2885 C2889 1.393 . S
C2886 H2878 0.950 . S
C2886 C2884 1.391 . S
C2886 C2887 1.400 . S
C2887 C2886 1.400 . S
C2887 C2888 1.398 . S
C2887 C2893 1.491 . S
C2888 H2879 0.950 . S
C2888 C2887 1.398 . S
C2888 C2889 1.391 . S
C2889 H2877 0.950 . S
C2889 C2885 1.393 . S
C2889 C2888 1.391 . S
C2890 H2880 0.950 . S
C2890 C2891 1.386 . S
C2890 C2892 1.391 . S
C2891 C2890 1.386 . S
C2891 C2895 1.393 . S
C2892 H2881 0.950 . S
C2892 C2890 1.391 . S
C2892 C2893 1.400 . S
C2893 C2887 1.491 . S
C2893 C2892 1.400 . S
C2893 C2894 1.398 . S
C2894 H2882 0.950 . S
C2894 C2893 1.398 . S
C2894 C2895 1.391 . S
C2895 H2883 0.950 . S
C2895 C2891 1.393 . S
C2895 C2894 1.391 . S
H2896 C2904 0.950 . S
H2897 C2909 0.950 . S
H2898 C2906 0.950 . S
H2899 C2908 0.950 . S
H2900 C2910 0.950 . S
H2901 C2912 0.950 . S
H2902 C2914 0.950 . S
H2903 C2915 0.950 . S
C2904 H2896 0.950 . S
C2904 C2905 1.386 . S
C2904 C2906 1.391 . S
C2905 C2904 1.386 . S
C2905 C2909 1.393 . S
C2906 H2898 0.950 . S
C2906 C2904 1.391 . S
C2906 C2907 1.400 . S
C2907 C2906 1.400 . S
C2907 C2908 1.398 . S
C2907 C2913 1.491 . S
C2908 H2899 0.950 . S
C2908 C2907 1.398 . S
C2908 C2909 1.391 . S
C2909 H2897 0.950 . S
C2909 C2905 1.393 . S
C2909 C2908 1.391 . S
C2910 H2900 0.950 . S
C2910 C2911 1.386 . S
C2910 C2912 1.391 . S
C2911 C2910 1.386 . S
C2911 C2915 1.393 . S
C2912 H2901 0.950 . S
C2912 C2910 1.391 . S
C2912 C2913 1.400 . S
C2913 C2907 1.491 . S
C2913 C2912 1.400 . S
C2913 C2914 1.398 . S
C2914 H2902 0.950 . S
C2914 C2913 1.398 . S
C2914 C2915 1.391 . S
C2915 H2903 0.950 . S
C2915 C2911 1.393 . S
C2915 C2914 1.391 . S
H2916 C2924 0.950 . S
H2917 C2929 0.950 . S
H2918 C2926 0.950 . S
H2919 C2928 0.935 1_554 S
H2920 C2930 0.950 . S
H2921 C2932 0.950 . S
H2922 C2934 0.935 1_556 S
H2923 C2935 0.950 . S
C2924 H2916 0.950 . S
C2924 C2925 1.386 . S
C2924 C2926 1.391 . S
C2925 C2924 1.386 . S
C2925 C2929 1.393 . S
C2926 H2918 0.950 . S
C2926 C2924 1.391 . S
C2926 C2927 1.400 . S
C2927 C2926 1.400 . S
C2927 C2928 1.403 . S
C2927 C2933 1.491 1_556 S
C2928 H2919 0.935 1_556 S
C2928 C2927 1.403 . S
C2928 C2929 1.401 . S
C2929 H2917 0.950 . S
C2929 C2925 1.393 . S
C2929 C2928 1.401 . S
C2930 H2920 0.950 . S
C2930 C2931 1.386 . S
C2930 C2932 1.391 . S
C2931 C2930 1.386 . S
C2931 C2935 1.393 . S
C2932 H2921 0.950 . S
C2932 C2930 1.391 . S
C2932 C2933 1.400 . S
C2933 C2927 1.491 1_554 S
C2933 C2932 1.400 . S
C2933 C2934 1.403 . S
C2934 H2922 0.935 1_554 S
C2934 C2933 1.403 . S
C2934 C2935 1.401 . S
C2935 H2923 0.950 . S
C2935 C2931 1.393 . S
C2935 C2934 1.401 . S
H2936 C2944 0.950 . S
H2937 C2949 0.950 . S
H2938 C2946 0.950 . S
H2939 C2948 0.950 . S
H2940 C2950 0.950 . S
H2941 C2952 0.950 . S
H2942 C2954 0.950 . S
H2943 C2955 0.950 . S
C2944 H2936 0.950 . S
C2944 C2945 1.386 . S
C2944 C2946 1.391 . S
C2945 C2944 1.386 . S
C2945 C2949 1.393 . S
C2946 H2938 0.950 . S
C2946 C2944 1.391 . S
C2946 C2947 1.400 . S
C2947 C2946 1.400 . S
C2947 C2948 1.398 . S
C2947 C2953 1.491 . S
C2948 H2939 0.950 . S
C2948 C2947 1.398 . S
C2948 C2949 1.391 . S
C2949 H2937 0.950 . S
C2949 C2945 1.393 . S
C2949 C2948 1.391 . S
C2950 H2940 0.950 . S
C2950 C2951 1.386 . S
C2950 C2952 1.391 . S
C2951 C2950 1.386 . S
C2951 C2955 1.393 . S
C2952 H2941 0.950 . S
C2952 C2950 1.391 . S
C2952 C2953 1.400 . S
C2953 C2947 1.491 . S
C2953 C2952 1.400 . S
C2953 C2954 1.398 . S
C2954 H2942 0.950 . S
C2954 C2953 1.398 . S
C2954 C2955 1.391 . S
C2955 H2943 0.950 . S
C2955 C2951 1.393 . S
C2955 C2954 1.391 . S
H2956 C2964 0.950 . S
H2957 C2969 0.950 . S
H2958 C2966 0.950 . S
H2959 C2968 0.950 . S
H2960 C2970 0.950 . S
H2961 C2972 0.950 . S
H2962 C2974 0.950 . S
H2963 C2975 0.950 . S
C2964 H2956 0.950 . S
C2964 C2965 1.386 . S
C2964 C2966 1.391 . S
C2965 C2964 1.386 . S
C2965 C2969 1.393 . S
C2966 H2958 0.950 . S
C2966 C2964 1.391 . S
C2966 C2967 1.400 . S
C2967 C2966 1.400 . S
C2967 C2968 1.398 . S
C2967 C2973 1.491 . S
C2968 H2959 0.950 . S
C2968 C2967 1.398 . S
C2968 C2969 1.391 . S
C2969 H2957 0.950 . S
C2969 C2965 1.393 . S
C2969 C2968 1.391 . S
C2970 H2960 0.950 . S
C2970 C2971 1.386 . S
C2970 C2972 1.391 . S
C2971 C2970 1.386 . S
C2971 C2975 1.393 . S
C2972 H2961 0.950 . S
C2972 C2970 1.391 . S
C2972 C2973 1.400 . S
C2973 C2967 1.491 . S
C2973 C2972 1.400 . S
C2973 C2974 1.398 . S
C2974 H2962 0.950 . S
C2974 C2973 1.398 . S
C2974 C2975 1.391 . S
C2975 H2963 0.950 . S
C2975 C2971 1.393 . S
C2975 C2974 1.391 . S
C1705 C1469 1.612 . S
C1711 C29 1.631 . S
C1725 C82 1.242 . S
C1731 C453 1.221 . S
C1745 C1363 1.620 . S
C1751 C135 1.636 . S
C1765 C188 1.252 . S
C1771 C559 1.243 . S
C1785 C241 1.632 . S
C1791 C1575 1.614 . S
C1805 C294 1.242 . S
C1811 C771 1.220 . S
C1825 C347 1.633 . S
C1831 C1681 1.615 . S
C1845 C400 1.240 . S
C1851 C665 1.220 . S
C1865 C1045 1.958 . S
C1871 C462 1.993 . S
C1885 C38 1.402 . S
C1891 C506 1.404 1_455 S
C1905 C939 1.959 . S
C1911 C568 1.996 . S
C1925 C612 1.415 . S
C1931 C144 1.408 . S
C1945 C1151 1.971 . S
C1951 C674 1.997 . S
C1965 C356 1.410 . S
C1971 C718 1.408 . S
C1985 C780 1.996 . S
C1991 C1257 1.972 . S
C2005 C250 1.408 . S
C2011 C824 1.406 1_455 S
C2025 C877 1.631 . S
C2031 C621 1.613 . S
C2045 C930 1.240 . S
C2051 C1301 1.219 . S
C2065 C515 1.622 . S
C2071 C983 1.638 . S
C2085 C1407 1.235 . S
C2091 C1036 1.252 . S
C2105 C727 1.609 . S
C2111 C1089 1.630 . S
C2125 C1619 1.221 . S
C2131 C1142 1.238 . S
C2145 C833 1.609 . S
C2151 C1195 1.629 . S
C2165 C1248 1.238 . S
C2171 C1513 1.221 . S
C2185 C197 1.972 . S
C2191 C1310 1.995 . S
C2205 C1354 1.404 . S
C2211 C886 1.401 . S
C2225 C1416 1.998 . S
C2231 C91 1.969 . S
C2245 C1460 1.404 1_655 S
C2251 C992 1.399 . S
C2265 C1522 1.997 . S
C2271 C303 1.972 . S
C2285 C1566 1.413 1_655 S
C2291 C1204 1.411 . S
C2305 C1628 1.993 . S
C2311 C409 1.967 . S
C2325 C1672 1.409 . S
C2331 C1098 1.410 . S
C2345 C1294 1.584 . S
C2351 C39 1.601 . S
C2365 C92 2.290 . S
C2371 C516 2.267 . S
C2385 C1400 1.566 . S
C2391 C145 1.586 . S
C2405 C198 2.285 . S
C2411 C622 2.260 . S
C2425 C1506 1.586 . S
C2431 C251 1.603 . S
C2445 C304 2.275 . S
C2451 C728 2.250 . S
C2465 C1612 1.567 . S
C2471 C357 1.587 . S
C2485 C410 2.288 . S
C2491 C834 2.264 . S
C2505 C446 1.563 . S
C2511 C887 1.583 . S
C2525 C552 1.586 . S
C2531 C993 1.603 . S
C2545 C658 1.573 . S
C2551 C1099 1.592 . S
C2565 C764 1.562 . S
C2571 C1205 1.583 . S
C2585 C940 2.284 . S
C2591 C1364 2.259 . S
C2605 C1470 2.253 . S
C2611 C1046 2.279 . S
C2625 C1576 2.266 . S
C2631 C1152 2.290 . S
C2645 C1258 2.276 . S
C2651 C1682 2.250 . S
C2665 C22 1.615 . S
C2671 C234 1.618 . S
C2685 C75 1.831 . S
C2691 C287 1.834 . S
C2705 C340 1.616 . S
C2711 C128 1.616 . S
C2725 C181 1.832 . S
C2731 C393 1.832 . S
C2745 C675 2.030 . S
C2751 C463 2.029 . S
C2765 C711 1.916 . S
C2771 C499 1.920 . S
C2785 C569 2.031 . S
C2791 C781 2.028 . S
C2805 C605 1.916 . S
C2811 C817 1.920 . S
C2825 C1082 1.623 . S
C2831 C870 1.617 . S
C2845 C1135 1.831 . S
C2851 C923 1.833 . S
C2865 C976 1.615 . S
C2871 C1188 1.618 . S
C2885 C1241 1.831 . S
C2891 C1029 1.833 . S
C2905 C1523 2.030 . S
C2911 C1311 2.028 . S
C2925 C1347 1.921 . S
C2931 C1559 1.916 . S
C2945 C1629 2.029 . S
C2951 C1417 2.031 . S
C2965 C1453 1.916 . S
C2971 C1665 1.918 . S
