# Generated by pormake.
# Topology uot, (4)-cn, num edge types: 1
# Building blocks:
#     Node 0, Type 0, BuildingBlock: NAHDIM_clean_sbu_0, # of connection points: 4
#     Node 1, Type 0, BuildingBlock: NAHDIM_clean_sbu_0, # of connection points: 4
#     Node 2, Type 0, BuildingBlock: NAHDIM_clean_sbu_0, # of connection points: 4
#     Node 3, Type 0, BuildingBlock: NAHDIM_clean_sbu_0, # of connection points: 4
#     Node 4, Type 0, BuildingBlock: NAHDIM_clean_sbu_0, # of connection points: 4
#     Node 5, Type 0, BuildingBlock: NAHDIM_clean_sbu_0, # of connection points: 4
#     Node 6, Type 0, BuildingBlock: NAHDIM_clean_sbu_0, # of connection points: 4
#     Node 7, Type 0, BuildingBlock: NAHDIM_clean_sbu_0, # of connection points: 4
#     Node 8, Type 0, BuildingBlock: NAHDIM_clean_sbu_0, # of connection points: 4
#     Node 9, Type 0, BuildingBlock: NAHDIM_clean_sbu_0, # of connection points: 4
#     Node 10, Type 0, BuildingBlock: NAHDIM_clean_sbu_0, # of connection points: 4
#     Node 11, Type 0, BuildingBlock: NAHDIM_clean_sbu_0, # of connection points: 4
#     Node 12, Type 0, BuildingBlock: NAHDIM_clean_sbu_0, # of connection points: 4
#     Node 13, Type 0, BuildingBlock: NAHDIM_clean_sbu_0, # of connection points: 4
#     Node 14, Type 0, BuildingBlock: NAHDIM_clean_sbu_0, # of connection points: 4
#     Node 15, Type 0, BuildingBlock: NAHDIM_clean_sbu_0, # of connection points: 4
#     Edge 16, Type (0, 0), BuildingBlock: CIFDUS_clean_linker_0, # of connection points: 2
#     Edge 17, Type (0, 0), BuildingBlock: CIFDUS_clean_linker_0, # of connection points: 2
#     Edge 18, Type (0, 0), BuildingBlock: CIFDUS_clean_linker_0, # of connection points: 2
#     Edge 19, Type (0, 0), BuildingBlock: CIFDUS_clean_linker_0, # of connection points: 2
#     Edge 20, Type (0, 0), BuildingBlock: CIFDUS_clean_linker_0, # of connection points: 2
#     Edge 21, Type (0, 0), BuildingBlock: CIFDUS_clean_linker_0, # of connection points: 2
#     Edge 22, Type (0, 0), BuildingBlock: CIFDUS_clean_linker_0, # of connection points: 2
#     Edge 23, Type (0, 0), BuildingBlock: CIFDUS_clean_linker_0, # of connection points: 2
#     Edge 24, Type (0, 0), BuildingBlock: CIFDUS_clean_linker_0, # of connection points: 2
#     Edge 25, Type (0, 0), BuildingBlock: CIFDUS_clean_linker_0, # of connection points: 2
#     Edge 26, Type (0, 0), BuildingBlock: CIFDUS_clean_linker_0, # of connection points: 2
#     Edge 27, Type (0, 0), BuildingBlock: CIFDUS_clean_linker_0, # of connection points: 2
#     Edge 28, Type (0, 0), BuildingBlock: CIFDUS_clean_linker_0, # of connection points: 2
#     Edge 29, Type (0, 0), BuildingBlock: CIFDUS_clean_linker_0, # of connection points: 2
#     Edge 30, Type (0, 0), BuildingBlock: CIFDUS_clean_linker_0, # of connection points: 2
#     Edge 31, Type (0, 0), BuildingBlock: CIFDUS_clean_linker_0, # of connection points: 2
#     Edge 32, Type (0, 0), BuildingBlock: CIFDUS_clean_linker_0, # of connection points: 2
#     Edge 33, Type (0, 0), BuildingBlock: CIFDUS_clean_linker_0, # of connection points: 2
#     Edge 34, Type (0, 0), BuildingBlock: CIFDUS_clean_linker_0, # of connection points: 2
#     Edge 35, Type (0, 0), BuildingBlock: CIFDUS_clean_linker_0, # of connection points: 2
#     Edge 36, Type (0, 0), BuildingBlock: CIFDUS_clean_linker_0, # of connection points: 2
#     Edge 37, Type (0, 0), BuildingBlock: CIFDUS_clean_linker_0, # of connection points: 2
#     Edge 38, Type (0, 0), BuildingBlock: CIFDUS_clean_linker_0, # of connection points: 2
#     Edge 39, Type (0, 0), BuildingBlock: CIFDUS_clean_linker_0, # of connection points: 2
#     Edge 40, Type (0, 0), BuildingBlock: CIFDUS_clean_linker_0, # of connection points: 2
#     Edge 41, Type (0, 0), BuildingBlock: CIFDUS_clean_linker_0, # of connection points: 2
#     Edge 42, Type (0, 0), BuildingBlock: CIFDUS_clean_linker_0, # of connection points: 2
#     Edge 43, Type (0, 0), BuildingBlock: CIFDUS_clean_linker_0, # of connection points: 2
#     Edge 44, Type (0, 0), BuildingBlock: CIFDUS_clean_linker_0, # of connection points: 2
#     Edge 45, Type (0, 0), BuildingBlock: CIFDUS_clean_linker_0, # of connection points: 2
#     Edge 46, Type (0, 0), BuildingBlock: CIFDUS_clean_linker_0, # of connection points: 2
#     Edge 47, Type (0, 0), BuildingBlock: CIFDUS_clean_linker_0, # of connection points: 2
# Relax obj value: 0.174
# Max RMSD: 0.207
# Mean RMSD: 0.207
data_MOF--net-uot--node1-NAHDIM_clean_sbu_0--edge1-CIFDUS_clean_linker_0
_symmetry_space_group_name_H-M    P1
_symmetry_Int_Tables_number       1
_symmetry_cell_setting            triclinic
loop_
_symmetry_equiv_pos_as_xyz
'x, y, z'
_cell_length_a     38.809939
_cell_length_b     38.797225
_cell_length_c     34.425746
_cell_angle_alpha  89.926428
_cell_angle_beta   89.934402
_cell_angle_gamma 89.994357
loop_
_atom_site_label
_atom_site_type_symbol
_atom_site_fract_x
_atom_site_fract_y
_atom_site_fract_z
_atom_type_partial_charge
C0 C 0.25426 0.40684 0.32856 0.0
O1 O 0.23571 0.40105 0.35984 0.0
O2 O 0.16077 0.41041 0.3095 0.0
Zn3 Zn 0.19652 0.44703 0.31892 0.0
O4 O 0.19774 0.45888 0.37574 0.0
C5 C 0.19331 0.50624 0.26212 0.0
O6 O 0.21984 0.49384 0.24297 0.0
O7 O 0.24287 0.42782 0.30323 0.0
C8 C 0.21838 0.48186 0.38785 0.0
O9 O 0.23872 0.49744 0.36284 0.0
C10 C 0.13682 0.40412 0.3337 0.0
O11 O 0.13516 0.42203 0.366 0.0
O12 O 0.18187 0.49034 0.2917 0.0
C13 C 0.42705 0.72473 0.71736 0.0
O14 O 0.45074 0.7174 0.69135 0.0
O15 O 0.43082 0.83901 0.72128 0.0
Zn16 Zn 0.45454 0.79365 0.70957 0.0
O17 O 0.46084 0.78844 0.65182 0.0
C18 C 0.50497 0.80057 0.77025 0.0
O19 O 0.47729 0.80378 0.79197 0.0
O20 O 0.42478 0.75537 0.73007 0.0
C21 C 0.47948 0.81008 0.63369 0.0
O22 O 0.49367 0.83552 0.65305 0.0
C23 C 0.44813 0.86607 0.72859 0.0
O24 O 0.48192 0.86474 0.72726 0.0
O25 O 0.5014 0.79386 0.73438 0.0
C26 C 0.70105 0.56933 0.2854 0.0
O27 O 0.69468 0.5469 0.31312 0.0
O28 O 0.81376 0.55903 0.27896 0.0
Zn29 Zn 0.76752 0.5369 0.28722 0.0
O30 O 0.76168 0.52658 0.34422 0.0
C31 C 0.79218 0.47211 0.27367 0.0
O32 O 0.80848 0.48277 0.30488 0.0
O33 O 0.73018 0.56872 0.26857 0.0
C34 C 0.77394 0.5462 0.37027 0.0
O35 O 0.78933 0.57493 0.35989 0.0
C36 C 0.81921 0.5909 0.27302 0.0
O37 O 0.7931 0.61245 0.27268 0.0
O38 O 0.7697 0.4918 0.25854 0.0
C39 C 0.62003 0.24191 0.64657 0.0
O40 O 0.6237 0.21314 0.62687 0.0
O41 O 0.58363 0.16362 0.68128 0.0
Zn42 Zn 0.55985 0.20658 0.66193 0.0
O43 O 0.54793 0.20168 0.60537 0.0
C44 C 0.50943 0.20118 0.72382 0.0
O45 O 0.5342 0.18465 0.74197 0.0
O46 O 0.59275 0.24621 0.66643 0.0
C47 C 0.51886 0.19018 0.59441 0.0
O48 O 0.4964 0.18003 0.62061 0.0
C49 C 0.57652 0.1337 0.66862 0.0
O50 O 0.55248 0.13018 0.64212 0.0
O51 O 0.51557 0.21443 0.69079 0.0
C52 C 0.27903 0.58379 0.72226 0.0
O53 O 0.25332 0.59347 0.74459 0.0
O54 O 0.19045 0.5772 0.70034 0.0
Zn55 Zn 0.22657 0.54179 0.6863 0.0
O56 O 0.22373 0.53036 0.62947 0.0
C57 C 0.20143 0.49892 0.74886 0.0
O58 O 0.19441 0.52881 0.76493 0.0
O59 O 0.27382 0.56088 0.69659 0.0
C60 C 0.20239 0.50808 0.61712 0.0
O61 O 0.18163 0.49283 0.64194 0.0
C62 C 0.1677 0.58858 0.67707 0.0
O63 O 0.1675 0.57781 0.64093 0.0
O64 O 0.21704 0.49832 0.7164 0.0
C65 C 0.57322 0.72875 0.29803 0.0
O66 O 0.58113 0.75317 0.27309 0.0
O67 O 0.56418 0.81975 0.31371 0.0
Zn68 Zn 0.53325 0.78269 0.33525 0.0
O69 O 0.5265 0.78918 0.39265 0.0
C70 C 0.48519 0.79535 0.27377 0.0
O71 O 0.51354 0.79606 0.25288 0.0
O72 O 0.55292 0.73555 0.32597 0.0
C73 C 0.52817 0.81863 0.40863 0.0
O74 O 0.53514 0.84584 0.38727 0.0
C75 C 0.59415 0.82755 0.32563 0.0
O76 O 0.6079 0.80999 0.35435 0.0
O77 O 0.4872 0.78833 0.30975 0.0
C78 C 0.74756 0.40318 0.65126 0.0
O79 O 0.77339 0.39821 0.62718 0.0
O80 O 0.83051 0.43219 0.66969 0.0
Zn81 Zn 0.78793 0.4609 0.66104 0.0
O82 O 0.78608 0.47791 0.60571 0.0
C83 C 0.8058 0.50012 0.72891 0.0
O84 O 0.81641 0.46998 0.74159 0.0
O85 O 0.74689 0.43074 0.67113 0.0
C86 C 0.79749 0.50755 0.59651 0.0
O87 O 0.81133 0.52707 0.62346 0.0
C88 C 0.86033 0.44138 0.65849 0.0
O89 O 0.86388 0.47042 0.63925 0.0
O90 O 0.79033 0.5018 0.69647 0.0
C91 C 0.40513 0.2692 0.33586 0.0
O92 O 0.41074 0.24897 0.36579 0.0
O93 O 0.41485 0.17789 0.28376 0.0
Zn94 Zn 0.44532 0.21649 0.30189 0.0
O95 O 0.46243 0.20512 0.35558 0.0
C96 C 0.48895 0.20024 0.23646 0.0
O97 O 0.4603 0.18748 0.22217 0.0
O98 O 0.41822 0.26123 0.30317 0.0
C99 C 0.49051 0.21827 0.36738 0.0
O100 O 0.50813 0.23835 0.34388 0.0
C101 C 0.38821 0.16659 0.30107 0.0
O102 O 0.37827 0.18098 0.33373 0.0
O103 O 0.48767 0.21726 0.26794 0.0
C104 C 0.7742 0.9129 0.79415 0.0
O105 O 0.7487 0.9023 0.77212 0.0
O106 O 0.68529 0.9123 0.83002 0.0
Zn107 Zn 0.72075 0.94998 0.83654 0.0
O108 O 0.72261 0.96224 0.89291 0.0
C109 C 0.68628 0.98846 0.77667 0.0
O110 O 0.67751 0.95742 0.76511 0.0
O111 O 0.76797 0.93372 0.8217 0.0
C112 C 0.73333 0.99111 0.90529 0.0
O113 O 0.74407 0.01441 0.88033 0.0
C114 C 0.65928 0.9122 0.85254 0.0
O115 O 0.65702 0.93586 0.87968 0.0
O116 O 0.7059 0.99166 0.80598 0.0
C117 C 0.93667 0.1861 0.17955 0.0
O118 O 0.95969 0.18619 0.15153 0.0
O119 O 0.91832 0.29599 0.2062 0.0
Zn120 Zn 0.94962 0.26017 0.18336 0.0
O121 O 0.95353 0.26608 0.12538 0.0
C122 C 0.99782 0.2777 0.24226 0.0
O123 O 0.96953 0.2775 0.26327 0.0
O124 O 0.92985 0.21404 0.1971 0.0
C125 C 0.95213 0.29596 0.11025 0.0
O126 O 0.94734 0.32286 0.13274 0.0
C127 C 0.88912 0.30602 0.19397 0.0
O128 O 0.87629 0.29277 0.162 0.0
O129 O 0.9962 0.26842 0.20692 0.0
C130 C 0.2124 0.08833 0.79948 0.0
O131 O 0.20682 0.06145 0.82188 0.0
O132 O 0.3239 0.10685 0.81856 0.0
Zn133 Zn 0.28355 0.07433 0.81813 0.0
O134 O 0.27179 0.06402 0.87382 0.0
C135 C 0.32999 0.02205 0.79939 0.0
O136 O 0.34723 0.04046 0.82479 0.0
O137 O 0.24324 0.09735 0.79238 0.0
C138 C 0.26794 0.03366 0.88698 0.0
O139 O 0.27073 0.0073 0.86328 0.0
C140 C 0.32893 0.13036 0.79352 0.0
O141 O 0.30555 0.13588 0.76665 0.0
O142 O 0.2994 0.03102 0.79078 0.0
C143 C 0.05529 0.79202 0.16671 0.0
O144 O 0.03042 0.79017 0.14093 0.0
O145 O 0.08228 0.68212 0.18524 0.0
Zn146 Zn 0.04769 0.71797 0.16857 0.0
O147 O 0.04069 0.71556 0.11074 0.0
C148 C 0.9952 0.67757 0.20414 0.0
O149 O 0.01835 0.65351 0.19784 0.0
O150 O 0.06589 0.76455 0.18288 0.0
C151 C 0.04099 0.68677 0.0932 0.0
O152 O 0.04614 0.65837 0.1132 0.0
C153 C 0.10985 0.67458 0.16716 0.0
O154 O 0.11798 0.69162 0.13544 0.0
O155 O 0.00204 0.70847 0.19454 0.0
C156 C 0.78027 0.05885 0.21036 0.0
O157 O 0.78163 0.03235 0.18668 0.0
O158 O 0.66956 0.08237 0.20271 0.0
Zn159 Zn 0.70771 0.04712 0.20276 0.0
O160 O 0.71589 0.03303 0.14728 0.0
C161 C 0.70869 0.98791 0.25775 0.0
O162 O 0.74069 0.99616 0.26597 0.0
O163 O 0.75114 0.06869 0.22315 0.0
C164 C 0.71076 0.00256 0.1351 0.0
O165 O 0.70013 0.97879 0.15952 0.0
C166 C 0.6441 0.0779 0.18005 0.0
O167 O 0.64361 0.05058 0.15755 0.0
O168 O 0.69176 0.00609 0.23371 0.0
C169 C 0.05466 0.21645 0.8047 0.0
O170 O 0.02637 0.2141 0.82555 0.0
O171 O 0.0793 0.32731 0.81264 0.0
Zn172 Zn 0.04364 0.28941 0.81503 0.0
O173 O 0.0288 0.28103 0.87033 0.0
C174 C 0.00593 0.32469 0.75511 0.0
O175 O 0.03694 0.33536 0.74561 0.0
O176 O 0.06571 0.24609 0.7951 0.0
C177 C 0.00479 0.29821 0.8863 0.0
O178 O 0.98919 0.32258 0.86646 0.0
C179 C 0.0809 0.3525 0.83616 0.0
O180 O 0.05889 0.35421 0.86508 0.0
O181 O 0.00251 0.30355 0.7831 0.0
C182 C 0.20214 0.93041 0.18959 0.0
O183 O 0.20001 0.95413 0.16245 0.0
O184 O 0.31288 0.90716 0.19298 0.0
Zn185 Zn 0.27566 0.94199 0.18212 0.0
O186 O 0.27096 0.94825 0.12424 0.0
C187 C 0.31796 -0.0008 0.19218 0.0
O188 O 0.333 0.98257 0.16358 0.0
O189 O 0.23146 0.923 0.20372 0.0
C190 C 0.26217 0.97694 0.10943 0.0
O191 O 0.25517 0.00302 0.13244 0.0
C192 C 0.3345 0.89688 0.16775 0.0
O193 O 0.33265 0.90882 0.13208 0.0
O194 O 0.29044 0.9868 0.20663 0.0
C195 C 0.9306 0.7827 0.7899 0.0
O196 O 0.95216 0.78923 0.81836 0.0
O197 O 0.92288 0.67172 0.79577 0.0
Zn198 Zn 0.9552 0.71232 0.79844 0.0
O199 O 0.96869 0.72134 0.85399 0.0
C200 C 0.99643 0.69011 0.73296 0.0
O201 O 0.96654 0.68905 0.71511 0.0
O202 O 0.92925 0.75243 0.77602 0.0
C203 C 0.99238 0.70308 0.86904 0.0
O204 O 0.00751 0.67935 0.84782 0.0
C205 C 0.91936 0.6482 0.82122 0.0
O206 O 0.93795 0.6491 0.85303 0.0
O207 O 0.99769 0.70073 0.76781 0.0
H208 H 0.29233 0.37664 0.38399 0.0
H209 H 0.2882 0.39289 0.26016 0.0
H210 H 0.33704 0.35345 0.25127 0.0
H211 H 0.37722 0.31007 0.27882 0.0
H212 H 0.37955 0.29473 0.40314 0.0
H213 H 0.33522 0.33823 0.41162 0.0
C214 C 0.30227 0.3718 0.35502 0.0
C215 C 0.28644 0.3872 0.32274 0.0
C216 C 0.32991 0.34907 0.35022 0.0
C217 C 0.29996 0.38121 0.28548 0.0
C218 C 0.32774 0.35855 0.2804 0.0
C219 C 0.36832 0.31661 0.30775 0.0
C220 C 0.38138 0.29876 0.34022 0.0
C221 C 0.3424 0.34166 0.31254 0.0
C222 C 0.3697 0.30768 0.37756 0.0
C223 C 0.34431 0.3326 0.38252 0.0
H224 H 0.41877 0.66017 0.68796 0.0
H225 H 0.37548 0.73156 0.77086 0.0
H226 H 0.32752 0.69231 0.78272 0.0
H227 H 0.29503 0.64053 0.76491 0.0
H228 H 0.33729 0.57006 0.68037 0.0
H229 H 0.38861 0.60596 0.67423 0.0
C230 C 0.3991 0.66698 0.709 0.0
C231 C 0.40055 0.69896 0.72811 0.0
C232 C 0.37124 0.64453 0.71525 0.0
C233 C 0.37489 0.70724 0.75544 0.0
C234 C 0.34738 0.68483 0.76223 0.0
C235 C 0.31566 0.63273 0.74554 0.0
C236 C 0.31209 0.60284 0.72282 0.0
C237 C 0.34485 0.65382 0.74158 0.0
C238 C 0.33919 0.59308 0.69799 0.0
C239 C 0.36856 0.61365 0.69437 0.0
H240 H 0.62447 0.70866 0.24897 0.0
H241 H 0.56032 0.67224 0.34302 0.0
H242 H 0.59223 0.61813 0.3447 0.0
H243 H 0.6413 0.58328 0.3234 0.0
H244 H 0.70681 0.62036 0.23091 0.0
H245 H 0.67112 0.67184 0.22444 0.0
C246 C 0.6172 0.68875 0.26955 0.0
C247 C 0.59026 0.69468 0.29607 0.0
C248 C 0.63599 0.65783 0.27078 0.0
C249 C 0.58113 0.66851 0.32246 0.0
C250 C 0.59938 0.63753 0.32348 0.0
C251 C 0.64755 0.60237 0.30146 0.0
C252 C 0.67687 0.59807 0.27794 0.0
C253 C 0.62732 0.63222 0.29836 0.0
C254 C 0.68449 0.62308 0.24958 0.0
C255 C 0.66415 0.65261 0.24591 0.0
H256 H 0.62099 0.30445 0.68306 0.0
H257 H 0.67963 0.23977 0.60518 0.0
H258 H 0.72386 0.28394 0.59995 0.0
H259 H 0.74582 0.34074 0.61675 0.0
H260 H 0.68832 0.4061 0.69478 0.0
H261 H 0.64369 0.36179 0.70065 0.0
C262 C 0.64348 0.30002 0.66501 0.0
C263 C 0.64692 0.26884 0.64451 0.0
C264 C 0.66898 0.32563 0.66207 0.0
C265 C 0.67625 0.2635 0.62128 0.0
C266 C 0.7016 0.28877 0.61821 0.0
C267 C 0.72353 0.34541 0.63505 0.0
C268 C 0.72037 0.37672 0.6552 0.0
C269 C 0.69818 0.31991 0.63836 0.0
C270 C 0.69137 0.3822 0.67891 0.0
C271 C 0.66585 0.35689 0.68228 0.0
H272 H 0.79435 0.86073 0.74634 0.0
H273 H 0.83184 0.9292 0.8356 0.0
H274 H 0.88582 0.89725 0.83856 0.0
H275 H 0.91932 0.84586 0.8217 0.0
H276 H 0.88115 0.77629 0.73393 0.0
H277 H 0.83089 0.81299 0.72415 0.0
C278 C 0.81452 0.86902 0.766 0.0
C279 C 0.80876 0.89697 0.79114 0.0
C280 C 0.84537 0.85017 0.76807 0.0
C281 C 0.83536 0.90751 0.81621 0.0
C282 C 0.86628 0.88922 0.818 0.0
C283 C 0.90034 0.839 0.79995 0.0
C284 C 0.90376 0.80807 0.77908 0.0
C285 C 0.87111 0.85986 0.79498 0.0
C286 C 0.879 0.79977 0.75076 0.0
C287 C 0.85015 0.82069 0.7452 0.0
H288 H 0.84155 0.05526 0.17217 0.0
H289 H 0.7877 0.11226 0.26116 0.0
H290 H 0.83406 0.15469 0.2627 0.0
H291 H 0.88592 0.17918 0.23327 0.0
H292 H 0.93847 0.12395 0.14191 0.0
H293 H 0.89676 0.07701 0.14722 0.0
C294 C 0.84023 0.07661 0.19243 0.0
C295 C 0.81097 0.08082 0.21616 0.0
C296 C 0.86657 0.10142 0.19246 0.0
C297 C 0.80975 0.10859 0.2423 0.0
C298 C 0.83622 0.13293 0.24313 0.0
C299 C 0.88859 0.15669 0.21482 0.0
C300 C 0.91499 0.15535 0.18681 0.0
C301 C 0.86413 0.13019 0.21743 0.0
C302 C 0.91824 0.12581 0.1635 0.0
C303 C 0.89432 0.09898 0.16644 0.0
H304 H 0.11468 0.21308 0.7642 0.0
H305 H 0.04449 0.15094 0.83192 0.0
H306 H 0.08591 0.10358 0.83194 0.0
H307 H 0.14484 0.08289 0.82012 0.0
H308 H 0.21553 0.14614 0.75433 0.0
H309 H 0.17094 0.18973 0.74582 0.0
C310 C 0.10817 0.189 0.77848 0.0
C311 C 0.07677 0.18582 0.79861 0.0
C312 C 0.13235 0.16213 0.77903 0.0
C313 C 0.0686 0.15425 0.81649 0.0
C314 C 0.09235 0.12716 0.81665 0.0
C315 C 0.15034 0.10592 0.80334 0.0
C316 C 0.18367 0.11146 0.78847 0.0
C317 C 0.12475 0.13127 0.79917 0.0
C318 C 0.19023 0.14135 0.76651 0.0
C319 C 0.16476 0.16638 0.76168 0.0
H320 H 0.14036 0.92891 0.15229 0.0
H321 H 0.19764 0.87983 0.24453 0.0
H322 H 0.15432 0.83449 0.24876 0.0
H323 H 0.10486 0.80477 0.22029 0.0
H324 H 0.04859 0.85248 0.12643 0.0
H325 H 0.08662 0.90256 0.12921 0.0
C326 C 0.14304 0.9087 0.17387 0.0
C327 C 0.17253 0.90746 0.19757 0.0
C328 C 0.11844 0.88221 0.17554 0.0
C329 C 0.17542 0.88119 0.22557 0.0
C330 C 0.15072 0.85516 0.22794 0.0
C331 C 0.10058 0.82632 0.20077 0.0
C332 C 0.07433 0.8246 0.17271 0.0
C333 C 0.12287 0.85473 0.20207 0.0
C334 C 0.06881 0.85298 0.14808 0.0
C335 C 0.09062 0.88161 0.14955 0.0
H336 H 0.20647 0.54596 0.19778 0.0
H337 H 0.1411 0.5393 0.29923 0.0
H338 H 0.11081 0.59115 0.27946 0.0
H339 H 0.10136 0.63737 0.23296 0.0
H340 H 0.16561 0.64515 0.13093 0.0
H341 H 0.19788 0.59409 0.15151 0.0
C342 C 0.18569 0.55594 0.21559 0.0
C343 C 0.17604 0.53852 0.24982 0.0
C344 C 0.16809 0.58598 0.204 0.0
C345 C 0.14905 0.55192 0.27261 0.0
C346 C 0.13165 0.58167 0.26138 0.0
C347 C 0.12252 0.62807 0.21521 0.0
C348 C 0.13095 0.64502 0.1804 0.0
C349 C 0.14075 0.59873 0.22705 0.0
C350 C 0.15856 0.63261 0.15791 0.0
C351 C 0.17698 0.60334 0.16961 0.0
H352 H 0.51853 0.83299 0.83843 0.0
H353 H 0.56738 0.79591 0.7338 0.0
H354 H 0.62085 0.82483 0.7519 0.0
H355 H 0.6516 0.86577 0.7938 0.0
H356 H 0.60167 0.90453 0.89704 0.0
H357 H 0.55091 0.86973 0.88313 0.0
C358 C 0.54104 0.83066 0.81991 0.0
C359 C 0.53882 0.81256 0.78465 0.0
C360 C 0.57144 0.84806 0.82999 0.0
C361 C 0.56829 0.80986 0.76102 0.0
C362 C 0.59886 0.82652 0.77125 0.0
C363 C 0.62979 0.86628 0.81352 0.0
C364 C 0.63032 0.88806 0.84616 0.0
C365 C 0.6004 0.84654 0.80508 0.0
C366 C 0.60187 0.88827 0.87149 0.0
C367 C 0.57278 0.86836 0.86359 0.0
H368 H 0.83508 0.34552 0.16895 0.0
H369 H 0.9026 0.32868 0.26685 0.0
H370 H 0.87644 0.37686 0.30097 0.0
H371 H 0.83743 0.42571 0.30171 0.0
H372 H 0.77074 0.44513 0.20387 0.0
H373 H 0.79325 0.3937 0.17125 0.0
C374 C 0.84378 0.35223 0.19789 0.0
C375 C 0.87094 0.33369 0.21516 0.0
C376 C 0.8289 0.38044 0.21732 0.0
C377 C 0.88198 0.3427 0.25268 0.0
C378 C 0.86702 0.37024 0.2723 0.0
C379 C 0.82755 0.41867 0.27334 0.0
C380 C 0.80266 0.43939 0.25512 0.0
C381 C 0.84094 0.38961 0.25464 0.0
C382 C 0.79 0.42964 0.2185 0.0
C383 C 0.80294 0.40032 0.19979 0.0
H384 H 0.48597 0.16869 0.78872 0.0
H385 H 0.45164 0.22716 0.68921 0.0
H386 H 0.39189 0.21348 0.70473 0.0
H387 H 0.35012 0.17897 0.74161 0.0
H388 H 0.38474 0.11934 0.84012 0.0
H389 H 0.44344 0.13975 0.8301 0.0
C390 C 0.46541 0.17896 0.77079 0.0
C391 C 0.47337 0.19844 0.73752 0.0
C392 C 0.43109 0.17049 0.77944 0.0
C393 C 0.44633 0.21181 0.71483 0.0
C394 C 0.4121 0.20389 0.72358 0.0
C395 C 0.37039 0.17084 0.76125 0.0
C396 C 0.36308 0.14722 0.79115 0.0
C397 C 0.40427 0.18229 0.75503 0.0
C398 C 0.38963 0.13726 0.8166 0.0
C399 C 0.4233 0.14885 0.81086 0.0
H400 H 0.16193 0.49181 0.81378 0.0
H401 H 0.20659 0.4338 0.7193 0.0
H402 H 0.17503 0.38259 0.73985 0.0
H403 H 0.13091 0.35575 0.78089 0.0
H404 H 0.08545 0.41385 0.87477 0.0
H405 H 0.12136 0.46341 0.85827 0.0
C406 C 0.16515 0.46786 0.79797 0.0
C407 C 0.18635 0.46682 0.7648 0.0
C408 C 0.14654 0.43855 0.8096 0.0
C409 C 0.19033 0.43546 0.74482 0.0
C410 C 0.17218 0.40614 0.75646 0.0
C411 C 0.12904 0.37913 0.798 0.0
C412 C 0.10521 0.38118 0.82873 0.0
C413 C 0.14957 0.40763 0.7882 0.0
C414 C 0.10342 0.41159 0.8508 0.0
C415 C 0.12391 0.44001 0.84136 0.0
H416 H 0.34177 0.86273 0.2361 0.0
H417 H 0.39178 0.87982 0.12567 0.0
H418 H 0.44181 0.84698 0.1476 0.0
H419 H 0.47321 0.81769 0.20003 0.0
H420 H 0.42315 0.80132 0.31064 0.0
H421 H 0.37115 0.82925 0.28647 0.0
C422 C 0.3635 0.85907 0.21669 0.0
C423 C 0.36321 0.87408 0.17949 0.0
C424 C 0.39223 0.84035 0.22953 0.0
C425 C 0.39139 0.8687 0.15454 0.0
C426 C 0.42006 0.84997 0.16707 0.0
C427 C 0.45079 0.81982 0.21871 0.0
C428 C 0.45227 0.80777 0.25724 0.0
C429 C 0.42104 0.8363 0.2048 0.0
C430 C 0.42286 0.81056 0.28094 0.0
C431 C 0.3931 0.82664 0.2672 0.0
H432 H 0.84507 0.5062 0.79404 0.0
H433 H 0.7947 0.56628 0.70493 0.0
H434 H 0.82371 0.61809 0.72773 0.0
H435 H 0.868 0.64504 0.76814 0.0
H436 H 0.91873 0.58537 0.85717 0.0
H437 H 0.88478 0.53476 0.83932 0.0
C438 C 0.83997 0.53072 0.78001 0.0
C439 C 0.81812 0.5322 0.74747 0.0
C440 C 0.85712 0.56043 0.79292 0.0
C441 C 0.81158 0.56428 0.72986 0.0
C442 C 0.8283 0.59395 0.74275 0.0
C443 C 0.87144 0.62103 0.78386 0.0
C444 C 0.89622 0.61878 0.81348 0.0
C445 C 0.85192 0.5921 0.77342 0.0
C446 C 0.89995 0.5877 0.83406 0.0
C447 C 0.88061 0.55873 0.82382 0.0
H448 H 0.63721 0.13729 0.22159 0.0
H449 H 0.58377 0.07187 0.1401 0.0
H450 H 0.53224 0.10736 0.14615 0.0
H451 H 0.50052 0.15298 0.17974 0.0
H452 H 0.5532 0.21747 0.26278 0.0
H453 H 0.60698 0.18685 0.25017 0.0
C454 C 0.6144 0.13098 0.20487 0.0
C455 C 0.61423 0.10162 0.18091 0.0
C456 C 0.58467 0.15136 0.2087 0.0
C457 C 0.58457 0.09409 0.15908 0.0
C458 C 0.55504 0.1144 0.16249 0.0
C459 C 0.52388 0.16085 0.19455 0.0
C460 C 0.52265 0.1872 0.22255 0.0
C461 C 0.55453 0.14256 0.18794 0.0
C462 C 0.55329 0.19712 0.24126 0.0
C463 C 0.58406 0.17947 0.23427 0.0
H464 H 0.63841 0.99012 0.71915 0.0
H465 H 0.6995 0.05615 0.79281 0.0
H466 H 0.67138 0.10689 0.76533 0.0
H467 H 0.62811 0.13239 0.72207 0.0
H468 H 0.56654 0.06626 0.64902 0.0
H469 H 0.59622 0.0157 0.6747 0.0
C470 C 0.64578 0.0156 0.72903 0.0
C471 C 0.67099 0.01927 0.75806 0.0
C472 C 0.62928 0.04466 0.7134 0.0
C473 C 0.68015 0.05253 0.77053 0.0
C474 C 0.66403 0.08159 0.75489 0.0
C475 C 0.6212 0.10694 0.71168 0.0
C476 C 0.59502 0.10316 0.68376 0.0
C477 C 0.63831 0.07793 0.72661 0.0
C478 C 0.58651 0.06995 0.67056 0.0
C479 C 0.60349 0.04099 0.68521 0.0
H480 H 0.13419 0.36136 0.27118 0.0
H481 H 0.07927 0.38853 0.37592 0.0
H482 H 0.03295 0.34891 0.35867 0.0
H483 H 0.00605 0.31006 0.31157 0.0
H484 H 0.06026 0.28394 0.20602 0.0
H485 H 0.10908 0.31925 0.22627 0.0
C486 C 0.1122 0.35848 0.29039 0.0
C487 C 0.11005 0.3782 0.32458 0.0
C488 C 0.08552 0.33581 0.28018 0.0
C489 C 0.08151 0.37386 0.34929 0.0
C490 C 0.05498 0.3512 0.33946 0.0
C491 C 0.02873 0.31165 0.2932 0.0
C492 C 0.02934 0.29458 0.25717 0.0
C493 C 0.05644 0.33252 0.30465 0.0
C494 C 0.059 0.29692 0.23383 0.0
C495 C 0.0869 0.31724 0.2453 0.0
H496 H 0.39788 0.00776 0.79696 0.0
H497 H 0.2989 0.96783 0.76216 0.0
H498 H 0.32677 0.91597 0.7363 0.0
H499 H 0.3794 0.88129 0.72572 0.0
H500 H 0.47807 0.923 0.75964 0.0
H501 H 0.45009 0.97493 0.78361 0.0
C502 C 0.38234 0.98773 0.7837 0.0
C503 C 0.34637 0.99144 0.78178 0.0
C504 C 0.39849 0.95831 0.76877 0.0
C505 C 0.32666 0.96552 0.76399 0.0
C506 C 0.34258 0.93587 0.74932 0.0
C507 C 0.39475 0.90181 0.73824 0.0
C508 C 0.43077 0.89814 0.74106 0.0
C509 C 0.37849 0.93186 0.75187 0.0
C510 C 0.45033 0.92509 0.75707 0.0
C511 C 0.43436 0.95481 0.7709 0.0
H512 H 0.84017 0.65608 0.25453 0.0
H513 H 0.87799 0.55255 0.27255 0.0
H514 H 0.93587 0.57083 0.25473 0.0
H515 H 0.97521 0.61515 0.23106 0.0
H516 H 0.93821 0.71874 0.21221 0.0
H517 H 0.88062 0.70148 0.23364 0.0
C518 C 0.86111 0.63757 0.25479 0.0
C519 C 0.85462 0.60295 0.26458 0.0
C520 C 0.89448 0.64819 0.24428 0.0
C521 C 0.88213 0.57934 0.26492 0.0
C522 C 0.9153 0.58973 0.25472 0.0
C523 C 0.95464 0.63406 0.23178 0.0
C524 C 0.96096 0.66811 0.21977 0.0
C525 C 0.92166 0.62394 0.24386 0.0
C526 C 0.93402 0.69231 0.22123 0.0
C527 C 0.90106 0.68245 0.23339 0.0
H528 H 0.64738 0.9598 0.23803 0.0
H529 H 0.73359 0.94595 0.31559 0.0
H530 H 0.70613 0.89459 0.34315 0.0
H531 H 0.65709 0.85399 0.34548 0.0
H532 H 0.57166 0.86864 0.26679 0.0
H533 H 0.59955 0.91926 0.2394 0.0
C534 C 0.66023 0.94568 0.26105 0.0
C535 C 0.69243 0.95685 0.27486 0.0
C536 C 0.64446 0.91622 0.27652 0.0
C537 C 0.70876 0.93796 0.30446 0.0
C538 C 0.69307 0.90859 0.32022 0.0
C539 C 0.64465 0.86819 0.32226 0.0
C540 C 0.61226 0.85749 0.30835 0.0
C541 C 0.66086 0.8975 0.3065 0.0
C542 C 0.59654 0.87623 0.27818 0.0
C543 C 0.61244 0.90527 0.26246 0.0
H544 H 0.86183 0.38317 0.70254 0.0
H545 H 0.92768 0.45355 0.63966 0.0
H546 H 0.97846 0.42206 0.66187 0.0
H547 H 0.00426 0.37671 0.70215 0.0
H548 H 0.9384 0.30739 0.76649 0.0
H549 H 0.88752 0.3362 0.74037 0.0
C550 C 0.88726 0.39151 0.69342 0.0
C551 C 0.89091 0.42083 0.66964 0.0
C552 C 0.91637 0.37353 0.70663 0.0
C553 C 0.92409 0.43118 0.65808 0.0
C554 C 0.95317 0.4132 0.67079 0.0
C555 C 0.97879 0.36765 0.71018 0.0
C556 C 0.97519 0.34001 0.7364 0.0
C557 C 0.94963 0.38465 0.69551 0.0
C558 C 0.94195 0.32866 0.74648 0.0
C559 C 0.91282 0.34517 0.73161 0.0
H560 H 0.40437 0.13064 0.23621 0.0
H561 H 0.33033 0.13482 0.32976 0.0
H562 H 0.30122 0.08387 0.30378 0.0
H563 H 0.29788 0.03716 0.2552 0.0
H564 H 0.37307 0.03354 0.16267 0.0
H565 H 0.40053 0.0853 0.18763 0.0
C566 C 0.38179 0.12056 0.25095 0.0
C567 C 0.36962 0.13651 0.28495 0.0
C568 C 0.36539 0.09127 0.23606 0.0
C569 C 0.34029 0.12302 0.30356 0.0
C570 C 0.32364 0.09387 0.28873 0.0
C571 C 0.32017 0.04781 0.24044 0.0
C572 C 0.33342 0.03138 0.20718 0.0
C573 C 0.33611 0.07763 0.25511 0.0
C574 C 0.36236 0.0455 0.1884 0.0
C575 C 0.37813 0.07516 0.20263 0.0
H576 H 0.11021 0.60981 0.63859 0.0
H577 H 0.16345 0.61937 0.74814 0.0
H578 H 0.11628 0.65407 0.77388 0.0
H579 H 0.0585 0.67843 0.76684 0.0
H580 H 0.00401 0.66717 0.65832 0.0
H581 H 0.05331 0.63669 0.63054 0.0
C582 C 0.11166 0.61973 0.66798 0.0
C583 C 0.14026 0.6118 0.69145 0.0
C584 C 0.08419 0.63929 0.68284 0.0
C585 C 0.14167 0.62489 0.72948 0.0
C586 C 0.1147 0.64475 0.74426 0.0
C587 C 0.05748 0.66968 0.73695 0.0
C588 C 0.0275 0.67495 0.71476 0.0
C589 C 0.08561 0.65163 0.72141 0.0
C590 C 0.0267 0.66335 0.67611 0.0
C591 C 0.05486 0.64585 0.66022 0.0
H592 H 0.24126 0.53522 0.55889 0.0
H593 H 0.16014 0.46165 0.58139 0.0
H594 H 0.15796 0.44715 0.51248 0.0
H595 H 0.17918 0.45513 0.44599 0.0
H596 H 0.26027 0.52871 0.42345 0.0
H597 H 0.26232 0.54337 0.49234 0.0
C598 C 0.22308 0.51602 0.54876 0.0
C599 C 0.20093 0.49954 0.5753 0.0
C600 C 0.22195 0.50777 0.50911 0.0
C601 C 0.17751 0.47474 0.56162 0.0
C602 C 0.17623 0.4664 0.52221 0.0
C603 C 0.19731 0.47438 0.4561 0.0
C604 C 0.21954 0.49077 0.42958 0.0
C605 C 0.19836 0.48272 0.49572 0.0
C606 C 0.24286 0.51568 0.44322 0.0
C607 C 0.24407 0.5241 0.48262 0.0
H608 H 0.49878 0.77169 0.45697 0.0
H609 H 0.54251 0.87398 0.45465 0.0
H610 H 0.53139 0.88023 0.52413 0.0
H611 H 0.50926 0.8567 0.5854 0.0
H612 H 0.46387 0.75512 0.58737 0.0
H613 H 0.47555 0.7486 0.51802 0.0
C614 C 0.50599 0.79531 0.47168 0.0
C615 C 0.52157 0.82228 0.45071 0.0
C616 C 0.49914 0.7989 0.5115 0.0
C617 C 0.53043 0.85285 0.47011 0.0
C618 C 0.52412 0.85644 0.50985 0.0
C619 C 0.50192 0.83311 0.57069 0.0
C620 C 0.48581 0.8064 0.59155 0.0
C621 C 0.50846 0.82964 0.5308 0.0
C622 C 0.47625 0.77611 0.57198 0.0
C623 C 0.48299 0.77233 0.53234 0.0
H624 H 0.80176 0.57962 0.43215 0.0
H625 H 0.74505 0.48801 0.40094 0.0
H626 H 0.74711 0.46815 0.46816 0.0
H627 H 0.76634 0.47595 0.53541 0.0
H628 H 0.82318 0.56747 0.5666 0.0
H629 H 0.81976 0.58809 0.49973 0.0
C630 C 0.78967 0.5554 0.44005 0.0
C631 C 0.77336 0.53533 0.41148 0.0
C632 C 0.79113 0.54399 0.47873 0.0
C633 C 0.75782 0.50399 0.4223 0.0
C634 C 0.75904 0.49255 0.46074 0.0
C635 C 0.77798 0.50041 0.52762 0.0
C636 C 0.79511 0.52004 0.55598 0.0
C637 C 0.77589 0.51218 0.48912 0.0
C638 C 0.80989 0.55178 0.54537 0.0
C639 C 0.80794 0.56363 0.50712 0.0
H640 H 0.4557 0.18639 0.42584 0.0
H641 H 0.55132 0.23848 0.3998 0.0
H642 H 0.56921 0.23281 0.46742 0.0
H643 H 0.55668 0.21539 0.53434 0.0
H644 H 0.46045 0.16465 0.56088 0.0
H645 H 0.44395 0.16733 0.49253 0.0
C646 C 0.48057 0.19628 0.43488 0.0
C647 C 0.50207 0.21294 0.40783 0.0
C648 C 0.49055 0.19329 0.47389 0.0
C649 C 0.53418 0.22568 0.42005 0.0
C650 C 0.54445 0.22245 0.45873 0.0
C651 C 0.53218 0.2047 0.52518 0.0
C652 C 0.50979 0.18997 0.55272 0.0
C653 C 0.52268 0.20667 0.48596 0.0
C654 C 0.47814 0.17626 0.54032 0.0
C655 C 0.46865 0.17779 0.50123 0.0
H656 H 0.73324 0.04541 0.07788 0.0
H657 H 0.69784 0.94147 0.09876 0.0
H658 H 0.70249 0.92872 0.02959 0.0
H659 H 0.715 0.94742 0.96324 0.0
H660 H 0.75032 0.0513 0.94195 0.0
H661 H 0.74735 0.06367 0.01146 0.0
C662 C 0.72664 0.01992 0.06735 0.0
C663 C 0.71507 0.99448 0.09346 0.0
C664 C 0.72928 0.01276 0.02753 0.0
C665 C 0.70677 0.96156 0.07931 0.0
C666 C 0.70937 0.95423 0.03975 0.0
C667 C 0.72214 0.97277 0.97373 0.0
C668 C 0.73273 0.99844 0.9474 0.0
C669 C 0.72034 0.97971 0.01361 0.0
C670 C 0.74203 0.03108 0.96158 0.0
C671 C 0.74031 0.0382 0.00131 0.0
H672 H 0.97025 0.34083 0.93523 0.0
H673 H 0.01905 0.24101 0.92945 0.0
H674 H 0.00539 0.23072 -0.00223 0.0
H675 H 0.9812 0.25082 0.05966 0.0
H676 H 0.9353 0.35195 0.06635 0.0
H677 H 0.94609 0.36094 0.99715 0.0
C678 C 0.97769 0.31674 0.94887 0.0
C679 C 0.99559 0.29171 0.92732 0.0
C680 C 0.97034 0.31126 0.98834 0.0
C681 C 0.00536 0.26075 0.94547 0.0
C682 C 0.99753 0.25482 0.98452 0.0
C683 C 0.97333 0.27471 0.0459 0.0
C684 C 0.95743 0.30065 0.06806 0.0
C685 C 0.98026 0.28 0.0063 0.0
C686 C 0.9477 0.33163 0.04993 0.0
C687 C 0.95383 0.33678 0.01037 0.0
H688 H 0.27109 0.97308 0.92657 0.0
H689 H 0.2533 0.08207 0.94198 0.0
H690 H 0.24833 0.07379 0.01202 0.0
H691 H 0.25163 0.03616 0.06906 0.0
H692 H 0.27117 0.92743 0.05397 0.0
H693 H 0.27273 0.93511 0.98361 0.0
C694 C 0.26584 0.99498 0.9452 0.0
C695 C 0.26269 0.02814 0.92906 0.0
C696 C 0.26348 0.99014 0.98553 0.0
C697 C 0.25601 0.05627 0.95366 0.0
C698 C 0.25316 0.05159 0.99373 0.0
C699 C 0.25602 0.01408 0.05041 0.0
C700 C 0.26138 0.98131 0.06678 0.0
C701 C 0.25728 0.01872 0.01001 0.0
C702 C 0.26708 0.95299 0.04215 0.0
C703 C 0.26798 0.95734 0.00189 0.0
H704 H 0.02396 0.65581 0.9146 0.0
H705 H 0.97899 0.75751 0.91694 0.0
H706 H 0.99128 0.762 0.98644 0.0
H707 H 0.01356 0.73635 0.04675 0.0
H708 H 0.05558 0.63335 0.04468 0.0
H709 H 0.04566 0.63004 0.97477 0.0
C710 C 0.01707 0.67907 0.93025 0.0
C711 C 0.00074 0.70635 0.91069 0.0
C712 C 0.02355 0.68116 0.97025 0.0
C713 C 0.99156 0.73614 0.93143 0.0
C714 C 0.99858 0.73872 0.97113 0.0
C715 C 0.02069 0.71325 0.03095 0.0
C716 C 0.03534 0.68516 0.05083 0.0
C717 C 0.01437 0.71129 0.99087 0.0
C718 C 0.04415 0.65528 0.03006 0.0
C719 C 0.03855 0.65338 0.99008 0.0
loop_
_geom_bond_atom_site_label_1
_geom_bond_atom_site_label_2
_geom_bond_distance
_geom_bond_site_symmetry_2
_ccdc_geom_bond_type
C0 O1 1.160 . S
C0 O7 1.185 . S
O1 C0 1.160 . S
O2 Zn3 1.899 . S
O2 C10 1.284 . S
Zn3 O2 1.899 . S
Zn3 O4 2.032 . S
Zn3 O7 2.086 . S
Zn3 O12 1.977 . S
O4 Zn3 2.032 . S
O4 C8 1.278 . S
C5 O6 1.203 . S
C5 O12 1.267 . S
O6 C5 1.203 . S
O7 C0 1.185 . S
O7 Zn3 2.086 . S
C8 O4 1.278 . S
C8 O9 1.211 . S
O9 C8 1.211 . S
C10 O2 1.284 . S
C10 O11 1.273 . S
O11 C10 1.273 . S
O12 Zn3 1.977 . S
O12 C5 1.267 . S
C13 O14 1.160 . S
C13 O20 1.185 . S
O14 C13 1.160 . S
O15 Zn16 1.899 . S
O15 C23 1.284 . S
Zn16 O15 1.899 . S
Zn16 O17 2.032 . S
Zn16 O20 2.086 . S
Zn16 O25 1.977 . S
O17 Zn16 2.032 . S
O17 C21 1.278 . S
C18 O19 1.203 . S
C18 O25 1.267 . S
O19 C18 1.203 . S
O20 C13 1.185 . S
O20 Zn16 2.086 . S
C21 O17 1.278 . S
C21 O22 1.211 . S
O22 C21 1.211 . S
C23 O15 1.284 . S
C23 O24 1.273 . S
O24 C23 1.273 . S
O25 Zn16 1.977 . S
O25 C18 1.267 . S
C26 O27 1.160 . S
C26 O33 1.185 . S
O27 C26 1.160 . S
O28 Zn29 1.899 . S
O28 C36 1.284 . S
Zn29 O28 1.899 . S
Zn29 O30 2.032 . S
Zn29 O33 2.086 . S
Zn29 O38 1.977 . S
O30 Zn29 2.032 . S
O30 C34 1.278 . S
C31 O32 1.203 . S
C31 O38 1.267 . S
O32 C31 1.203 . S
O33 C26 1.185 . S
O33 Zn29 2.086 . S
C34 O30 1.278 . S
C34 O35 1.211 . S
O35 C34 1.211 . S
C36 O28 1.284 . S
C36 O37 1.273 . S
O37 C36 1.273 . S
O38 Zn29 1.977 . S
O38 C31 1.267 . S
C39 O40 1.160 . S
C39 O46 1.185 . S
O40 C39 1.160 . S
O41 Zn42 1.899 . S
O41 C49 1.284 . S
Zn42 O41 1.899 . S
Zn42 O43 2.032 . S
Zn42 O46 2.086 . S
Zn42 O51 1.977 . S
O43 Zn42 2.032 . S
O43 C47 1.278 . S
C44 O45 1.203 . S
C44 O51 1.267 . S
O45 C44 1.203 . S
O46 C39 1.185 . S
O46 Zn42 2.086 . S
C47 O43 1.278 . S
C47 O48 1.211 . S
O48 C47 1.211 . S
C49 O41 1.284 . S
C49 O50 1.273 . S
O50 C49 1.273 . S
O51 Zn42 1.977 . S
O51 C44 1.267 . S
C52 O53 1.160 . S
C52 O59 1.185 . S
O53 C52 1.160 . S
O54 Zn55 1.899 . S
O54 C62 1.284 . S
Zn55 O54 1.899 . S
Zn55 O56 2.032 . S
Zn55 O59 2.086 . S
Zn55 O64 1.977 . S
O56 Zn55 2.032 . S
O56 C60 1.278 . S
C57 O58 1.203 . S
C57 O64 1.267 . S
O58 C57 1.203 . S
O59 C52 1.185 . S
O59 Zn55 2.086 . S
C60 O56 1.278 . S
C60 O61 1.211 . S
O61 C60 1.211 . S
C62 O54 1.284 . S
C62 O63 1.273 . S
O63 C62 1.273 . S
O64 Zn55 1.977 . S
O64 C57 1.267 . S
C65 O66 1.160 . S
C65 O72 1.185 . S
O66 C65 1.160 . S
O67 Zn68 1.899 . S
O67 C75 1.284 . S
Zn68 O67 1.899 . S
Zn68 O69 2.032 . S
Zn68 O72 2.086 . S
Zn68 O77 1.977 . S
O69 Zn68 2.032 . S
O69 C73 1.278 . S
C70 O71 1.203 . S
C70 O77 1.267 . S
O71 C70 1.203 . S
O72 C65 1.185 . S
O72 Zn68 2.086 . S
C73 O69 1.278 . S
C73 O74 1.211 . S
O74 C73 1.211 . S
C75 O67 1.284 . S
C75 O76 1.273 . S
O76 C75 1.273 . S
O77 Zn68 1.977 . S
O77 C70 1.267 . S
C78 O79 1.160 . S
C78 O85 1.185 . S
O79 C78 1.160 . S
O80 Zn81 1.899 . S
O80 C88 1.284 . S
Zn81 O80 1.899 . S
Zn81 O82 2.032 . S
Zn81 O85 2.086 . S
Zn81 O90 1.977 . S
O82 Zn81 2.032 . S
O82 C86 1.278 . S
C83 O84 1.203 . S
C83 O90 1.267 . S
O84 C83 1.203 . S
O85 C78 1.185 . S
O85 Zn81 2.086 . S
C86 O82 1.278 . S
C86 O87 1.211 . S
O87 C86 1.211 . S
C88 O80 1.284 . S
C88 O89 1.273 . S
O89 C88 1.273 . S
O90 Zn81 1.977 . S
O90 C83 1.267 . S
C91 O92 1.160 . S
C91 O98 1.185 . S
O92 C91 1.160 . S
O93 Zn94 1.899 . S
O93 C101 1.284 . S
Zn94 O93 1.899 . S
Zn94 O95 2.032 . S
Zn94 O98 2.086 . S
Zn94 O103 1.977 . S
O95 Zn94 2.032 . S
O95 C99 1.278 . S
C96 O97 1.203 . S
C96 O103 1.267 . S
O97 C96 1.203 . S
O98 C91 1.185 . S
O98 Zn94 2.086 . S
C99 O95 1.278 . S
C99 O100 1.211 . S
O100 C99 1.211 . S
C101 O93 1.284 . S
C101 O102 1.273 . S
O102 C101 1.273 . S
O103 Zn94 1.977 . S
O103 C96 1.267 . S
C104 O105 1.160 . S
C104 O111 1.185 . S
O105 C104 1.160 . S
O106 Zn107 1.899 . S
O106 C114 1.284 . S
Zn107 O106 1.899 . S
Zn107 O108 2.032 . S
Zn107 O111 2.086 . S
Zn107 O116 1.977 . S
O108 Zn107 2.032 . S
O108 C112 1.278 . S
C109 O110 1.202 1_545 S
C109 O116 1.267 1_545 S
O110 C109 1.202 1_565 S
O111 C104 1.185 . S
O111 Zn107 2.086 . S
C112 O108 1.278 . S
C112 O113 1.211 . S
O113 C112 1.211 . S
C114 O106 1.284 . S
C114 O115 1.273 . S
O115 C114 1.273 . S
O116 Zn107 1.977 . S
O116 C109 1.267 1_565 S
C117 O118 1.160 . S
C117 O124 1.185 . S
O118 C117 1.160 . S
O119 Zn120 1.899 . S
O119 C127 1.284 . S
Zn120 O119 1.899 . S
Zn120 O121 2.032 . S
Zn120 O124 2.086 . S
Zn120 O129 1.977 . S
O121 Zn120 2.032 . S
O121 C125 1.278 . S
C122 O123 1.202 1_455 S
C122 O129 1.267 1_455 S
O123 C122 1.202 1_655 S
O124 C117 1.185 . S
O124 Zn120 2.086 . S
C125 O121 1.278 . S
C125 O126 1.211 . S
O126 C125 1.211 . S
C127 O119 1.284 . S
C127 O128 1.273 . S
O128 C127 1.273 . S
O129 Zn120 1.977 . S
O129 C122 1.267 1_655 S
C130 O131 1.160 . S
C130 O137 1.185 . S
O131 C130 1.160 . S
O132 Zn133 1.899 . S
O132 C140 1.284 . S
Zn133 O132 1.899 . S
Zn133 O134 2.032 . S
Zn133 O137 2.086 . S
Zn133 O142 1.977 . S
O134 Zn133 2.032 . S
O134 C138 1.278 . S
C135 O136 1.202 1_565 S
C135 O142 1.267 1_565 S
O136 C135 1.202 1_545 S
O137 C130 1.185 . S
O137 Zn133 2.086 . S
C138 O134 1.278 . S
C138 O139 1.211 . S
O139 C138 1.211 . S
C140 O132 1.284 . S
C140 O141 1.273 . S
O141 C140 1.273 . S
O142 Zn133 1.977 . S
O142 C135 1.267 1_545 S
C143 O144 1.160 . S
C143 O150 1.185 . S
O144 C143 1.160 . S
O145 Zn146 1.899 . S
O145 C153 1.284 . S
Zn146 O145 1.899 . S
Zn146 O147 2.032 . S
Zn146 O150 2.086 . S
Zn146 O155 1.977 . S
O147 Zn146 2.032 . S
O147 C151 1.278 . S
C148 O149 1.202 1_655 S
C148 O155 1.267 1_655 S
O149 C148 1.202 1_455 S
O150 C143 1.185 . S
O150 Zn146 2.086 . S
C151 O147 1.278 . S
C151 O152 1.211 . S
O152 C151 1.211 . S
C153 O145 1.284 . S
C153 O154 1.273 . S
O154 C153 1.273 . S
O155 Zn146 1.977 . S
O155 C148 1.267 1_455 S
C156 O157 1.160 . S
C156 O163 1.185 . S
O157 C156 1.160 . S
O158 Zn159 1.899 . S
O158 C166 1.284 . S
Zn159 O158 1.899 . S
Zn159 O160 2.032 . S
Zn159 O163 2.086 . S
Zn159 O168 1.977 . S
O160 Zn159 2.032 . S
O160 C164 1.278 . S
C161 O162 1.202 1_565 S
C161 O168 1.267 1_565 S
O162 C161 1.202 1_545 S
O163 C156 1.185 . S
O163 Zn159 2.086 . S
C164 O160 1.278 . S
C164 O165 1.211 . S
O165 C164 1.211 . S
C166 O158 1.284 . S
C166 O167 1.273 . S
O167 C166 1.273 . S
O168 Zn159 1.977 . S
O168 C161 1.267 1_545 S
C169 O170 1.160 . S
C169 O176 1.185 . S
O170 C169 1.160 . S
O171 Zn172 1.899 . S
O171 C179 1.284 . S
Zn172 O171 1.899 . S
Zn172 O173 2.032 . S
Zn172 O176 2.086 . S
Zn172 O181 1.977 . S
O173 Zn172 2.032 . S
O173 C177 1.278 . S
C174 O175 1.202 1_655 S
C174 O181 1.267 1_655 S
O175 C174 1.202 1_455 S
O176 C169 1.185 . S
O176 Zn172 2.086 . S
C177 O173 1.278 . S
C177 O178 1.211 . S
O178 C177 1.211 . S
C179 O171 1.284 . S
C179 O180 1.273 . S
O180 C179 1.273 . S
O181 Zn172 1.977 . S
O181 C174 1.267 1_455 S
C182 O183 1.160 . S
C182 O189 1.185 . S
O183 C182 1.160 . S
O184 Zn185 1.899 . S
O184 C192 1.284 . S
Zn185 O184 1.899 . S
Zn185 O186 2.032 . S
Zn185 O189 2.086 . S
Zn185 O194 1.977 . S
O186 Zn185 2.032 . S
O186 C190 1.278 . S
C187 O188 1.202 1_545 S
C187 O194 1.267 1_545 S
O188 C187 1.202 1_565 S
O189 C182 1.185 . S
O189 Zn185 2.086 . S
C190 O186 1.278 . S
C190 O191 1.211 . S
O191 C190 1.211 . S
C192 O184 1.284 . S
C192 O193 1.273 . S
O193 C192 1.273 . S
O194 Zn185 1.977 . S
O194 C187 1.267 1_565 S
C195 O196 1.160 . S
C195 O202 1.185 . S
O196 C195 1.160 . S
O197 Zn198 1.899 . S
O197 C205 1.284 . S
Zn198 O197 1.899 . S
Zn198 O199 2.032 . S
Zn198 O202 2.086 . S
Zn198 O207 1.977 . S
O199 Zn198 2.032 . S
O199 C203 1.278 . S
C200 O201 1.202 1_455 S
C200 O207 1.267 1_455 S
O201 C200 1.202 1_655 S
O202 C195 1.185 . S
O202 Zn198 2.086 . S
C203 O199 1.278 . S
C203 O204 1.211 . S
O204 C203 1.211 . S
C205 O197 1.284 . S
C205 O206 1.273 . S
O206 C205 1.273 . S
O207 Zn198 1.977 . S
O207 C200 1.267 1_655 S
H208 C214 0.930 . S
H209 C217 0.930 . S
H210 C218 0.930 . S
H211 C219 0.930 . S
H212 C222 0.930 . S
H213 C223 0.930 . S
C214 H208 0.930 . S
C214 C215 1.355 . S
C214 C216 1.415 . S
C215 C214 1.355 . S
C215 C217 1.419 . S
C216 C214 1.415 . S
C216 C221 1.425 . S
C216 C223 1.409 . S
C217 H209 0.930 . S
C217 C215 1.419 . S
C217 C218 1.362 . S
C218 H210 0.930 . S
C218 C217 1.362 . S
C218 C221 1.409 . S
C219 H211 0.930 . S
C219 C220 1.355 . S
C219 C221 1.415 . S
C220 C219 1.355 . S
C220 C222 1.419 . S
C221 C216 1.425 . S
C221 C218 1.409 . S
C221 C219 1.415 . S
C222 H212 0.930 . S
C222 C220 1.419 . S
C222 C223 1.362 . S
C223 H213 0.930 . S
C223 C216 1.409 . S
C223 C222 1.362 . S
H224 C230 0.930 . S
H225 C233 0.930 . S
H226 C234 0.930 . S
H227 C235 0.930 . S
H228 C238 0.930 . S
H229 C239 0.930 . S
C230 H224 0.930 . S
C230 C231 1.355 . S
C230 C232 1.415 . S
C231 C230 1.355 . S
C231 C233 1.419 . S
C232 C230 1.415 . S
C232 C237 1.425 . S
C232 C239 1.409 . S
C233 H225 0.930 . S
C233 C231 1.419 . S
C233 C234 1.362 . S
C234 H226 0.930 . S
C234 C233 1.362 . S
C234 C237 1.409 . S
C235 H227 0.930 . S
C235 C236 1.355 . S
C235 C237 1.415 . S
C236 C235 1.355 . S
C236 C238 1.419 . S
C237 C232 1.425 . S
C237 C234 1.409 . S
C237 C235 1.415 . S
C238 H228 0.930 . S
C238 C236 1.419 . S
C238 C239 1.362 . S
C239 H229 0.930 . S
C239 C232 1.409 . S
C239 C238 1.362 . S
H240 C246 0.930 . S
H241 C249 0.930 . S
H242 C250 0.930 . S
H243 C251 0.930 . S
H244 C254 0.930 . S
H245 C255 0.930 . S
C246 H240 0.930 . S
C246 C247 1.355 . S
C246 C248 1.415 . S
C247 C246 1.355 . S
C247 C249 1.419 . S
C248 C246 1.415 . S
C248 C253 1.425 . S
C248 C255 1.409 . S
C249 H241 0.930 . S
C249 C247 1.419 . S
C249 C250 1.362 . S
C250 H242 0.930 . S
C250 C249 1.362 . S
C250 C253 1.409 . S
C251 H243 0.930 . S
C251 C252 1.355 . S
C251 C253 1.415 . S
C252 C251 1.355 . S
C252 C254 1.419 . S
C253 C248 1.425 . S
C253 C250 1.409 . S
C253 C251 1.415 . S
C254 H244 0.930 . S
C254 C252 1.419 . S
C254 C255 1.362 . S
C255 H245 0.930 . S
C255 C248 1.409 . S
C255 C254 1.362 . S
H256 C262 0.930 . S
H257 C265 0.930 . S
H258 C266 0.930 . S
H259 C267 0.930 . S
H260 C270 0.930 . S
H261 C271 0.930 . S
C262 H256 0.930 . S
C262 C263 1.355 . S
C262 C264 1.415 . S
C263 C262 1.355 . S
C263 C265 1.419 . S
C264 C262 1.415 . S
C264 C269 1.425 . S
C264 C271 1.409 . S
C265 H257 0.930 . S
C265 C263 1.419 . S
C265 C266 1.362 . S
C266 H258 0.930 . S
C266 C265 1.362 . S
C266 C269 1.409 . S
C267 H259 0.930 . S
C267 C268 1.355 . S
C267 C269 1.415 . S
C268 C267 1.355 . S
C268 C270 1.419 . S
C269 C264 1.425 . S
C269 C266 1.409 . S
C269 C267 1.415 . S
C270 H260 0.930 . S
C270 C268 1.419 . S
C270 C271 1.362 . S
C271 H261 0.930 . S
C271 C264 1.409 . S
C271 C270 1.362 . S
H272 C278 0.930 . S
H273 C281 0.930 . S
H274 C282 0.930 . S
H275 C283 0.930 . S
H276 C286 0.930 . S
H277 C287 0.930 . S
C278 H272 0.930 . S
C278 C279 1.355 . S
C278 C280 1.415 . S
C279 C278 1.355 . S
C279 C281 1.419 . S
C280 C278 1.415 . S
C280 C285 1.425 . S
C280 C287 1.409 . S
C281 H273 0.930 . S
C281 C279 1.419 . S
C281 C282 1.362 . S
C282 H274 0.930 . S
C282 C281 1.362 . S
C282 C285 1.409 . S
C283 H275 0.930 . S
C283 C284 1.355 . S
C283 C285 1.415 . S
C284 C283 1.355 . S
C284 C286 1.419 . S
C285 C280 1.425 . S
C285 C282 1.409 . S
C285 C283 1.415 . S
C286 H276 0.930 . S
C286 C284 1.419 . S
C286 C287 1.362 . S
C287 H277 0.930 . S
C287 C280 1.409 . S
C287 C286 1.362 . S
H288 C294 0.930 . S
H289 C297 0.930 . S
H290 C298 0.930 . S
H291 C299 0.930 . S
H292 C302 0.930 . S
H293 C303 0.930 . S
C294 H288 0.930 . S
C294 C295 1.355 . S
C294 C296 1.415 . S
C295 C294 1.355 . S
C295 C297 1.419 . S
C296 C294 1.415 . S
C296 C301 1.425 . S
C296 C303 1.409 . S
C297 H289 0.930 . S
C297 C295 1.419 . S
C297 C298 1.362 . S
C298 H290 0.930 . S
C298 C297 1.362 . S
C298 C301 1.409 . S
C299 H291 0.930 . S
C299 C300 1.355 . S
C299 C301 1.415 . S
C300 C299 1.355 . S
C300 C302 1.419 . S
C301 C296 1.425 . S
C301 C298 1.409 . S
C301 C299 1.415 . S
C302 H292 0.930 . S
C302 C300 1.419 . S
C302 C303 1.362 . S
C303 H293 0.930 . S
C303 C296 1.409 . S
C303 C302 1.362 . S
H304 C310 0.930 . S
H305 C313 0.930 . S
H306 C314 0.930 . S
H307 C315 0.930 . S
H308 C318 0.930 . S
H309 C319 0.930 . S
C310 H304 0.930 . S
C310 C311 1.355 . S
C310 C312 1.415 . S
C311 C310 1.355 . S
C311 C313 1.419 . S
C312 C310 1.415 . S
C312 C317 1.425 . S
C312 C319 1.409 . S
C313 H305 0.930 . S
C313 C311 1.419 . S
C313 C314 1.362 . S
C314 H306 0.930 . S
C314 C313 1.362 . S
C314 C317 1.409 . S
C315 H307 0.930 . S
C315 C316 1.355 . S
C315 C317 1.415 . S
C316 C315 1.355 . S
C316 C318 1.419 . S
C317 C312 1.425 . S
C317 C314 1.409 . S
C317 C315 1.415 . S
C318 H308 0.930 . S
C318 C316 1.419 . S
C318 C319 1.362 . S
C319 H309 0.930 . S
C319 C312 1.409 . S
C319 C318 1.362 . S
H320 C326 0.930 . S
H321 C329 0.930 . S
H322 C330 0.930 . S
H323 C331 0.930 . S
H324 C334 0.930 . S
H325 C335 0.930 . S
C326 H320 0.930 . S
C326 C327 1.355 . S
C326 C328 1.415 . S
C327 C326 1.355 . S
C327 C329 1.419 . S
C328 C326 1.415 . S
C328 C333 1.425 . S
C328 C335 1.409 . S
C329 H321 0.930 . S
C329 C327 1.419 . S
C329 C330 1.362 . S
C330 H322 0.930 . S
C330 C329 1.362 . S
C330 C333 1.409 . S
C331 H323 0.930 . S
C331 C332 1.355 . S
C331 C333 1.415 . S
C332 C331 1.355 . S
C332 C334 1.419 . S
C333 C328 1.425 . S
C333 C330 1.409 . S
C333 C331 1.415 . S
C334 H324 0.930 . S
C334 C332 1.419 . S
C334 C335 1.362 . S
C335 H325 0.930 . S
C335 C328 1.409 . S
C335 C334 1.362 . S
H336 C342 0.930 . S
H337 C345 0.930 . S
H338 C346 0.930 . S
H339 C347 0.930 . S
H340 C350 0.930 . S
H341 C351 0.930 . S
C342 H336 0.930 . S
C342 C343 1.355 . S
C342 C344 1.415 . S
C343 C342 1.355 . S
C343 C345 1.419 . S
C344 C342 1.415 . S
C344 C349 1.425 . S
C344 C351 1.409 . S
C345 H337 0.930 . S
C345 C343 1.419 . S
C345 C346 1.362 . S
C346 H338 0.930 . S
C346 C345 1.362 . S
C346 C349 1.409 . S
C347 H339 0.930 . S
C347 C348 1.355 . S
C347 C349 1.415 . S
C348 C347 1.355 . S
C348 C350 1.419 . S
C349 C344 1.425 . S
C349 C346 1.409 . S
C349 C347 1.415 . S
C350 H340 0.930 . S
C350 C348 1.419 . S
C350 C351 1.362 . S
C351 H341 0.930 . S
C351 C344 1.409 . S
C351 C350 1.362 . S
H352 C358 0.930 . S
H353 C361 0.930 . S
H354 C362 0.930 . S
H355 C363 0.930 . S
H356 C366 0.930 . S
H357 C367 0.930 . S
C358 H352 0.930 . S
C358 C359 1.355 . S
C358 C360 1.415 . S
C359 C358 1.355 . S
C359 C361 1.419 . S
C360 C358 1.415 . S
C360 C365 1.425 . S
C360 C367 1.409 . S
C361 H353 0.930 . S
C361 C359 1.419 . S
C361 C362 1.362 . S
C362 H354 0.930 . S
C362 C361 1.362 . S
C362 C365 1.409 . S
C363 H355 0.930 . S
C363 C364 1.355 . S
C363 C365 1.415 . S
C364 C363 1.355 . S
C364 C366 1.419 . S
C365 C360 1.425 . S
C365 C362 1.409 . S
C365 C363 1.415 . S
C366 H356 0.930 . S
C366 C364 1.419 . S
C366 C367 1.362 . S
C367 H357 0.930 . S
C367 C360 1.409 . S
C367 C366 1.362 . S
H368 C374 0.930 . S
H369 C377 0.930 . S
H370 C378 0.930 . S
H371 C379 0.930 . S
H372 C382 0.930 . S
H373 C383 0.930 . S
C374 H368 0.930 . S
C374 C375 1.355 . S
C374 C376 1.415 . S
C375 C374 1.355 . S
C375 C377 1.419 . S
C376 C374 1.415 . S
C376 C381 1.425 . S
C376 C383 1.409 . S
C377 H369 0.930 . S
C377 C375 1.419 . S
C377 C378 1.362 . S
C378 H370 0.930 . S
C378 C377 1.362 . S
C378 C381 1.409 . S
C379 H371 0.930 . S
C379 C380 1.355 . S
C379 C381 1.415 . S
C380 C379 1.355 . S
C380 C382 1.419 . S
C381 C376 1.425 . S
C381 C378 1.409 . S
C381 C379 1.415 . S
C382 H372 0.930 . S
C382 C380 1.419 . S
C382 C383 1.362 . S
C383 H373 0.930 . S
C383 C376 1.409 . S
C383 C382 1.362 . S
H384 C390 0.930 . S
H385 C393 0.930 . S
H386 C394 0.930 . S
H387 C395 0.930 . S
H388 C398 0.930 . S
H389 C399 0.930 . S
C390 H384 0.930 . S
C390 C391 1.355 . S
C390 C392 1.415 . S
C391 C390 1.355 . S
C391 C393 1.419 . S
C392 C390 1.415 . S
C392 C397 1.425 . S
C392 C399 1.409 . S
C393 H385 0.930 . S
C393 C391 1.419 . S
C393 C394 1.362 . S
C394 H386 0.930 . S
C394 C393 1.362 . S
C394 C397 1.409 . S
C395 H387 0.930 . S
C395 C396 1.355 . S
C395 C397 1.415 . S
C396 C395 1.355 . S
C396 C398 1.419 . S
C397 C392 1.425 . S
C397 C394 1.409 . S
C397 C395 1.415 . S
C398 H388 0.930 . S
C398 C396 1.419 . S
C398 C399 1.362 . S
C399 H389 0.930 . S
C399 C392 1.409 . S
C399 C398 1.362 . S
H400 C406 0.930 . S
H401 C409 0.930 . S
H402 C410 0.930 . S
H403 C411 0.930 . S
H404 C414 0.930 . S
H405 C415 0.930 . S
C406 H400 0.930 . S
C406 C407 1.355 . S
C406 C408 1.415 . S
C407 C406 1.355 . S
C407 C409 1.419 . S
C408 C406 1.415 . S
C408 C413 1.425 . S
C408 C415 1.409 . S
C409 H401 0.930 . S
C409 C407 1.419 . S
C409 C410 1.362 . S
C410 H402 0.930 . S
C410 C409 1.362 . S
C410 C413 1.409 . S
C411 H403 0.930 . S
C411 C412 1.355 . S
C411 C413 1.415 . S
C412 C411 1.355 . S
C412 C414 1.419 . S
C413 C408 1.425 . S
C413 C410 1.409 . S
C413 C411 1.415 . S
C414 H404 0.930 . S
C414 C412 1.419 . S
C414 C415 1.362 . S
C415 H405 0.930 . S
C415 C408 1.409 . S
C415 C414 1.362 . S
H416 C422 0.930 . S
H417 C425 0.930 . S
H418 C426 0.930 . S
H419 C427 0.930 . S
H420 C430 0.930 . S
H421 C431 0.930 . S
C422 H416 0.930 . S
C422 C423 1.355 . S
C422 C424 1.415 . S
C423 C422 1.355 . S
C423 C425 1.419 . S
C424 C422 1.415 . S
C424 C429 1.425 . S
C424 C431 1.409 . S
C425 H417 0.930 . S
C425 C423 1.419 . S
C425 C426 1.362 . S
C426 H418 0.930 . S
C426 C425 1.362 . S
C426 C429 1.409 . S
C427 H419 0.930 . S
C427 C428 1.355 . S
C427 C429 1.415 . S
C428 C427 1.355 . S
C428 C430 1.419 . S
C429 C424 1.425 . S
C429 C426 1.409 . S
C429 C427 1.415 . S
C430 H420 0.930 . S
C430 C428 1.419 . S
C430 C431 1.362 . S
C431 H421 0.930 . S
C431 C424 1.409 . S
C431 C430 1.362 . S
H432 C438 0.930 . S
H433 C441 0.930 . S
H434 C442 0.930 . S
H435 C443 0.930 . S
H436 C446 0.930 . S
H437 C447 0.930 . S
C438 H432 0.930 . S
C438 C439 1.355 . S
C438 C440 1.415 . S
C439 C438 1.355 . S
C439 C441 1.419 . S
C440 C438 1.415 . S
C440 C445 1.425 . S
C440 C447 1.409 . S
C441 H433 0.930 . S
C441 C439 1.419 . S
C441 C442 1.362 . S
C442 H434 0.930 . S
C442 C441 1.362 . S
C442 C445 1.409 . S
C443 H435 0.930 . S
C443 C444 1.355 . S
C443 C445 1.415 . S
C444 C443 1.355 . S
C444 C446 1.419 . S
C445 C440 1.425 . S
C445 C442 1.409 . S
C445 C443 1.415 . S
C446 H436 0.930 . S
C446 C444 1.419 . S
C446 C447 1.362 . S
C447 H437 0.930 . S
C447 C440 1.409 . S
C447 C446 1.362 . S
H448 C454 0.930 . S
H449 C457 0.930 . S
H450 C458 0.930 . S
H451 C459 0.930 . S
H452 C462 0.930 . S
H453 C463 0.930 . S
C454 H448 0.930 . S
C454 C455 1.355 . S
C454 C456 1.415 . S
C455 C454 1.355 . S
C455 C457 1.419 . S
C456 C454 1.415 . S
C456 C461 1.425 . S
C456 C463 1.409 . S
C457 H449 0.930 . S
C457 C455 1.419 . S
C457 C458 1.362 . S
C458 H450 0.930 . S
C458 C457 1.362 . S
C458 C461 1.409 . S
C459 H451 0.930 . S
C459 C460 1.355 . S
C459 C461 1.415 . S
C460 C459 1.355 . S
C460 C462 1.419 . S
C461 C456 1.425 . S
C461 C458 1.409 . S
C461 C459 1.415 . S
C462 H452 0.930 . S
C462 C460 1.419 . S
C462 C463 1.362 . S
C463 H453 0.930 . S
C463 C456 1.409 . S
C463 C462 1.362 . S
H464 C470 0.930 . S
H465 C473 0.930 . S
H466 C474 0.930 . S
H467 C475 0.930 . S
H468 C478 0.930 . S
H469 C479 0.930 . S
C470 H464 0.930 . S
C470 C471 1.355 . S
C470 C472 1.415 . S
C471 C470 1.355 . S
C471 C473 1.419 . S
C472 C470 1.415 . S
C472 C477 1.425 . S
C472 C479 1.409 . S
C473 H465 0.930 . S
C473 C471 1.419 . S
C473 C474 1.362 . S
C474 H466 0.930 . S
C474 C473 1.362 . S
C474 C477 1.409 . S
C475 H467 0.930 . S
C475 C476 1.355 . S
C475 C477 1.415 . S
C476 C475 1.355 . S
C476 C478 1.419 . S
C477 C472 1.425 . S
C477 C474 1.409 . S
C477 C475 1.415 . S
C478 H468 0.930 . S
C478 C476 1.419 . S
C478 C479 1.362 . S
C479 H469 0.930 . S
C479 C472 1.409 . S
C479 C478 1.362 . S
H480 C486 0.930 . S
H481 C489 0.930 . S
H482 C490 0.930 . S
H483 C491 0.930 . S
H484 C494 0.930 . S
H485 C495 0.930 . S
C486 H480 0.930 . S
C486 C487 1.355 . S
C486 C488 1.415 . S
C487 C486 1.355 . S
C487 C489 1.419 . S
C488 C486 1.415 . S
C488 C493 1.425 . S
C488 C495 1.409 . S
C489 H481 0.930 . S
C489 C487 1.419 . S
C489 C490 1.362 . S
C490 H482 0.930 . S
C490 C489 1.362 . S
C490 C493 1.409 . S
C491 H483 0.930 . S
C491 C492 1.355 . S
C491 C493 1.415 . S
C492 C491 1.355 . S
C492 C494 1.419 . S
C493 C488 1.425 . S
C493 C490 1.409 . S
C493 C491 1.415 . S
C494 H484 0.930 . S
C494 C492 1.419 . S
C494 C495 1.362 . S
C495 H485 0.930 . S
C495 C488 1.409 . S
C495 C494 1.362 . S
H496 C502 0.930 . S
H497 C505 0.930 . S
H498 C506 0.930 . S
H499 C507 0.930 . S
H500 C510 0.930 . S
H501 C511 0.930 . S
C502 H496 0.930 . S
C502 C503 1.355 . S
C502 C504 1.415 . S
C503 C502 1.355 . S
C503 C505 1.419 . S
C504 C502 1.415 . S
C504 C509 1.425 . S
C504 C511 1.409 . S
C505 H497 0.930 . S
C505 C503 1.419 . S
C505 C506 1.362 . S
C506 H498 0.930 . S
C506 C505 1.362 . S
C506 C509 1.409 . S
C507 H499 0.930 . S
C507 C508 1.355 . S
C507 C509 1.415 . S
C508 C507 1.355 . S
C508 C510 1.419 . S
C509 C504 1.425 . S
C509 C506 1.409 . S
C509 C507 1.415 . S
C510 H500 0.930 . S
C510 C508 1.419 . S
C510 C511 1.362 . S
C511 H501 0.930 . S
C511 C504 1.409 . S
C511 C510 1.362 . S
H512 C518 0.930 . S
H513 C521 0.930 . S
H514 C522 0.930 . S
H515 C523 0.930 . S
H516 C526 0.930 . S
H517 C527 0.930 . S
C518 H512 0.930 . S
C518 C519 1.355 . S
C518 C520 1.415 . S
C519 C518 1.355 . S
C519 C521 1.419 . S
C520 C518 1.415 . S
C520 C525 1.425 . S
C520 C527 1.409 . S
C521 H513 0.930 . S
C521 C519 1.419 . S
C521 C522 1.362 . S
C522 H514 0.930 . S
C522 C521 1.362 . S
C522 C525 1.409 . S
C523 H515 0.930 . S
C523 C524 1.355 . S
C523 C525 1.415 . S
C524 C523 1.355 . S
C524 C526 1.419 . S
C525 C520 1.425 . S
C525 C522 1.409 . S
C525 C523 1.415 . S
C526 H516 0.930 . S
C526 C524 1.419 . S
C526 C527 1.362 . S
C527 H517 0.930 . S
C527 C520 1.409 . S
C527 C526 1.362 . S
H528 C534 0.930 . S
H529 C537 0.930 1_545 S
H530 C538 0.930 . S
H531 C539 0.930 . S
H532 C542 0.930 . S
H533 C543 0.930 . S
C534 H528 0.930 . S
C534 C535 1.355 . S
C534 C536 1.415 . S
C535 C534 1.355 . S
C535 C537 1.419 . S
C536 C534 1.415 . S
C536 C541 1.425 . S
C536 C543 1.409 . S
C537 H529 0.930 1_565 S
C537 C535 1.419 . S
C537 C538 1.362 . S
C538 H530 0.930 . S
C538 C537 1.362 . S
C538 C541 1.409 . S
C539 H531 0.930 . S
C539 C540 1.355 . S
C539 C541 1.415 . S
C540 C539 1.355 . S
C540 C542 1.419 . S
C541 C536 1.425 . S
C541 C538 1.409 . S
C541 C539 1.415 . S
C542 H532 0.930 . S
C542 C540 1.419 . S
C542 C543 1.362 . S
C543 H533 0.930 . S
C543 C536 1.409 . S
C543 C542 1.362 . S
H544 C550 0.930 . S
H545 C553 0.930 . S
H546 C554 0.930 . S
H547 C555 0.930 . S
H548 C558 0.930 . S
H549 C559 0.930 . S
C550 H544 0.930 . S
C550 C551 1.355 . S
C550 C552 1.415 . S
C551 C550 1.355 . S
C551 C553 1.419 . S
C552 C550 1.415 . S
C552 C557 1.425 . S
C552 C559 1.409 . S
C553 H545 0.930 . S
C553 C551 1.419 . S
C553 C554 1.362 . S
C554 H546 0.930 . S
C554 C553 1.362 . S
C554 C557 1.409 . S
C555 H547 0.930 . S
C555 C556 1.355 . S
C555 C557 1.415 . S
C556 C555 1.355 . S
C556 C558 1.419 . S
C557 C552 1.425 . S
C557 C554 1.409 . S
C557 C555 1.415 . S
C558 H548 0.930 . S
C558 C556 1.419 . S
C558 C559 1.362 . S
C559 H549 0.930 . S
C559 C552 1.409 . S
C559 C558 1.362 . S
H560 C566 0.930 . S
H561 C569 0.930 . S
H562 C570 0.930 . S
H563 C571 0.930 . S
H564 C574 0.930 . S
H565 C575 0.930 . S
C566 H560 0.930 . S
C566 C567 1.355 . S
C566 C568 1.415 . S
C567 C566 1.355 . S
C567 C569 1.419 . S
C568 C566 1.415 . S
C568 C573 1.425 . S
C568 C575 1.409 . S
C569 H561 0.930 . S
C569 C567 1.419 . S
C569 C570 1.362 . S
C570 H562 0.930 . S
C570 C569 1.362 . S
C570 C573 1.409 . S
C571 H563 0.930 . S
C571 C572 1.355 . S
C571 C573 1.415 . S
C572 C571 1.355 . S
C572 C574 1.419 . S
C573 C568 1.425 . S
C573 C570 1.409 . S
C573 C571 1.415 . S
C574 H564 0.930 . S
C574 C572 1.419 . S
C574 C575 1.362 . S
C575 H565 0.930 . S
C575 C568 1.409 . S
C575 C574 1.362 . S
H576 C582 0.930 . S
H577 C585 0.930 . S
H578 C586 0.930 . S
H579 C587 0.930 . S
H580 C590 0.930 . S
H581 C591 0.930 . S
C582 H576 0.930 . S
C582 C583 1.355 . S
C582 C584 1.415 . S
C583 C582 1.355 . S
C583 C585 1.419 . S
C584 C582 1.415 . S
C584 C589 1.425 . S
C584 C591 1.409 . S
C585 H577 0.930 . S
C585 C583 1.419 . S
C585 C586 1.362 . S
C586 H578 0.930 . S
C586 C585 1.362 . S
C586 C589 1.409 . S
C587 H579 0.930 . S
C587 C588 1.355 . S
C587 C589 1.415 . S
C588 C587 1.355 . S
C588 C590 1.419 . S
C589 C584 1.425 . S
C589 C586 1.409 . S
C589 C587 1.415 . S
C590 H580 0.930 . S
C590 C588 1.419 . S
C590 C591 1.362 . S
C591 H581 0.930 . S
C591 C584 1.409 . S
C591 C590 1.362 . S
H592 C598 0.930 . S
H593 C601 0.930 . S
H594 C602 0.930 . S
H595 C603 0.930 . S
H596 C606 0.930 . S
H597 C607 0.930 . S
C598 H592 0.930 . S
C598 C599 1.355 . S
C598 C600 1.415 . S
C599 C598 1.355 . S
C599 C601 1.419 . S
C600 C598 1.415 . S
C600 C605 1.425 . S
C600 C607 1.409 . S
C601 H593 0.930 . S
C601 C599 1.419 . S
C601 C602 1.362 . S
C602 H594 0.930 . S
C602 C601 1.362 . S
C602 C605 1.409 . S
C603 H595 0.930 . S
C603 C604 1.355 . S
C603 C605 1.415 . S
C604 C603 1.355 . S
C604 C606 1.419 . S
C605 C600 1.425 . S
C605 C602 1.409 . S
C605 C603 1.415 . S
C606 H596 0.930 . S
C606 C604 1.419 . S
C606 C607 1.362 . S
C607 H597 0.930 . S
C607 C600 1.409 . S
C607 C606 1.362 . S
H608 C614 0.930 . S
H609 C617 0.930 . S
H610 C618 0.930 . S
H611 C619 0.930 . S
H612 C622 0.930 . S
H613 C623 0.930 . S
C614 H608 0.930 . S
C614 C615 1.355 . S
C614 C616 1.415 . S
C615 C614 1.355 . S
C615 C617 1.419 . S
C616 C614 1.415 . S
C616 C621 1.425 . S
C616 C623 1.409 . S
C617 H609 0.930 . S
C617 C615 1.419 . S
C617 C618 1.362 . S
C618 H610 0.930 . S
C618 C617 1.362 . S
C618 C621 1.409 . S
C619 H611 0.930 . S
C619 C620 1.355 . S
C619 C621 1.415 . S
C620 C619 1.355 . S
C620 C622 1.419 . S
C621 C616 1.425 . S
C621 C618 1.409 . S
C621 C619 1.415 . S
C622 H612 0.930 . S
C622 C620 1.419 . S
C622 C623 1.362 . S
C623 H613 0.930 . S
C623 C616 1.409 . S
C623 C622 1.362 . S
H624 C630 0.930 . S
H625 C633 0.930 . S
H626 C634 0.930 . S
H627 C635 0.930 . S
H628 C638 0.930 . S
H629 C639 0.930 . S
C630 H624 0.930 . S
C630 C631 1.355 . S
C630 C632 1.415 . S
C631 C630 1.355 . S
C631 C633 1.419 . S
C632 C630 1.415 . S
C632 C637 1.425 . S
C632 C639 1.409 . S
C633 H625 0.930 . S
C633 C631 1.419 . S
C633 C634 1.362 . S
C634 H626 0.930 . S
C634 C633 1.362 . S
C634 C637 1.409 . S
C635 H627 0.930 . S
C635 C636 1.355 . S
C635 C637 1.415 . S
C636 C635 1.355 . S
C636 C638 1.419 . S
C637 C632 1.425 . S
C637 C634 1.409 . S
C637 C635 1.415 . S
C638 H628 0.930 . S
C638 C636 1.419 . S
C638 C639 1.362 . S
C639 H629 0.930 . S
C639 C632 1.409 . S
C639 C638 1.362 . S
H640 C646 0.930 . S
H641 C649 0.930 . S
H642 C650 0.930 . S
H643 C651 0.930 . S
H644 C654 0.930 . S
H645 C655 0.930 . S
C646 H640 0.930 . S
C646 C647 1.355 . S
C646 C648 1.415 . S
C647 C646 1.355 . S
C647 C649 1.419 . S
C648 C646 1.415 . S
C648 C653 1.425 . S
C648 C655 1.409 . S
C649 H641 0.930 . S
C649 C647 1.419 . S
C649 C650 1.362 . S
C650 H642 0.930 . S
C650 C649 1.362 . S
C650 C653 1.409 . S
C651 H643 0.930 . S
C651 C652 1.355 . S
C651 C653 1.415 . S
C652 C651 1.355 . S
C652 C654 1.419 . S
C653 C648 1.425 . S
C653 C650 1.409 . S
C653 C651 1.415 . S
C654 H644 0.930 . S
C654 C652 1.419 . S
C654 C655 1.362 . S
C655 H645 0.930 . S
C655 C648 1.409 . S
C655 C654 1.362 . S
H656 C662 0.930 . S
H657 C665 0.930 . S
H658 C666 0.930 . S
H659 C667 0.930 . S
H660 C670 0.930 . S
H661 C671 0.930 . S
C662 H656 0.930 . S
C662 C663 1.355 . S
C662 C664 1.415 1_554 S
C663 C662 1.355 . S
C663 C665 1.419 1_545 S
C664 C662 1.415 1_556 S
C664 C669 1.425 1_546 S
C664 C671 1.409 . S
C665 H657 0.930 . S
C665 C663 1.419 1_565 S
C665 C666 1.362 . S
C666 H658 0.930 . S
C666 C665 1.362 . S
C666 C669 1.409 . S
C667 H659 0.930 . S
C667 C668 1.355 . S
C667 C669 1.415 1_556 S
C668 C667 1.355 . S
C668 C670 1.419 1_565 S
C669 C664 1.425 1_564 S
C669 C666 1.409 . S
C669 C667 1.415 1_554 S
C670 H660 0.930 . S
C670 C668 1.419 1_545 S
C670 C671 1.362 . S
C671 H661 0.930 . S
C671 C664 1.409 . S
C671 C670 1.362 . S
H672 C678 0.930 . S
H673 C681 0.930 . S
H674 C682 0.930 . S
H675 C683 0.930 . S
H676 C686 0.930 . S
H677 C687 0.930 . S
C678 H672 0.930 . S
C678 C679 1.355 . S
C678 C680 1.415 . S
C679 C678 1.355 . S
C679 C681 1.419 . S
C680 C678 1.415 . S
C680 C685 1.425 1_456 S
C680 C687 1.409 1_556 S
C681 H673 0.930 . S
C681 C679 1.419 . S
C681 C682 1.362 1_455 S
C682 H674 0.930 . S
C682 C681 1.362 1_655 S
C682 C685 1.409 1_556 S
C683 H675 0.930 . S
C683 C684 1.355 . S
C683 C685 1.415 . S
C684 C683 1.355 . S
C684 C686 1.419 . S
C685 C680 1.425 1_654 S
C685 C682 1.409 1_554 S
C685 C683 1.415 . S
C686 H676 0.930 . S
C686 C684 1.419 . S
C686 C687 1.362 1_655 S
C687 H677 0.930 . S
C687 C680 1.409 1_554 S
C687 C686 1.362 1_455 S
H688 C694 0.915 1_565 S
H689 C697 0.930 . S
H690 C698 0.930 1_554 S
H691 C699 0.915 1_545 S
H692 C702 0.930 . S
H693 C703 0.930 1_556 S
C694 H688 0.915 1_545 S
C694 C695 1.378 . S
C694 C696 1.406 1_545 S
C695 C694 1.378 . S
C695 C697 1.419 . S
C696 C694 1.406 1_565 S
C696 C701 1.425 1_566 S
C696 C703 1.409 1_556 S
C697 H689 0.930 . S
C697 C695 1.419 . S
C697 C698 1.362 . S
C698 H690 0.930 1_556 S
C698 C697 1.362 . S
C698 C701 1.409 1_556 S
C699 H691 0.915 1_565 S
C699 C700 1.378 . S
C699 C701 1.406 1_565 S
C700 C699 1.378 . S
C700 C702 1.419 . S
C701 C696 1.425 1_544 S
C701 C698 1.409 1_554 S
C701 C699 1.406 1_545 S
C702 H692 0.930 . S
C702 C700 1.419 . S
C702 C703 1.362 . S
C703 H693 0.930 1_554 S
C703 C696 1.409 1_554 S
C703 C702 1.362 . S
H704 C710 0.930 . S
H705 C713 0.930 . S
H706 C714 0.930 . S
H707 C715 0.930 . S
H708 C718 0.930 . S
H709 C719 0.930 . S
C710 H704 0.930 . S
C710 C711 1.355 . S
C710 C712 1.422 . S
C711 C710 1.355 . S
C711 C713 1.419 . S
C712 C710 1.422 . S
C712 C717 1.425 1_656 S
C712 C719 1.402 1_656 S
C713 H705 0.930 . S
C713 C711 1.419 . S
C713 C714 1.362 . S
C714 H706 0.930 . S
C714 C713 1.362 . S
C714 C717 1.402 1_656 S
C715 H707 0.930 . S
C715 C716 1.355 . S
C715 C717 1.422 . S
C716 C715 1.355 . S
C716 C718 1.419 . S
C717 C712 1.425 1_454 S
C717 C714 1.402 1_454 S
C717 C715 1.422 . S
C718 H708 0.930 . S
C718 C716 1.419 . S
C718 C719 1.362 . S
C719 H709 0.930 . S
C719 C712 1.402 1_454 S
C719 C718 1.362 . S
C215 C0 1.243 . S
C220 C91 1.148 . S
C231 C13 1.217 . S
C236 C52 1.175 . S
C247 C65 1.168 . S
C252 C26 1.224 . S
C263 C39 1.147 . S
C268 C78 1.243 . S
C279 C104 1.153 . S
C284 C195 1.238 . S
C295 C156 1.243 . S
C300 C117 1.147 . S
C311 C169 1.210 . S
C316 C130 1.183 . S
C327 C182 1.221 . S
C332 C143 1.171 . S
C343 C5 1.120 . S
C348 C153 1.249 . S
C359 C18 1.198 . S
C364 C114 1.258 . S
C375 C127 1.267 . S
C380 C31 1.106 . S
C391 C44 1.212 . S
C396 C140 1.263 . S
C407 C57 1.197 . S
C412 C179 1.258 . S
C423 C192 1.249 . S
C428 C70 1.100 . S
C439 C83 1.213 . S
C444 C205 1.264 . S
C455 C166 1.265 . S
C460 C96 1.214 . S
C471 C109 1.182 . S
C476 C49 1.255 . S
C487 C10 1.264 . S
C492 C122 1.213 . S
C503 C135 1.215 . S
C508 C23 1.267 . S
C519 C36 1.270 . S
C524 C148 1.215 . S
C535 C161 1.102 . S
C540 C75 1.267 . S
C551 C88 1.256 . S
C556 C174 1.190 . S
C567 C101 1.259 . S
C572 C187 1.080 . S
C583 C62 1.271 . S
C588 C200 1.124 . S
C599 C60 1.481 . S
C604 C8 1.488 . S
C615 C73 1.511 . S
C620 C21 1.524 . S
C631 C34 1.487 . S
C636 C86 1.481 . S
C647 C99 1.492 . S
C652 C47 1.483 . S
C663 C164 1.482 . S
C668 C112 1.489 . S
C679 C177 1.523 . S
C684 C125 1.510 . S
C695 C138 1.544 . S
C700 C190 1.549 . S
C711 C203 1.536 . S
C716 C151 1.524 . S
