# Generated by pormake.
# Topology wjd, (6)-cn, num edge types: 1
# Building blocks:
#     Node 0, Type 0, BuildingBlock: BETFAJ_clean_sbu_0, # of connection points: 6
#     Node 1, Type 0, BuildingBlock: BETFAJ_clean_sbu_0, # of connection points: 6
#     Node 2, Type 0, BuildingBlock: BETFAJ_clean_sbu_0, # of connection points: 6
#     Node 3, Type 0, BuildingBlock: BETFAJ_clean_sbu_0, # of connection points: 6
#     Node 4, Type 0, BuildingBlock: BETFAJ_clean_sbu_0, # of connection points: 6
#     Node 5, Type 0, BuildingBlock: BETFAJ_clean_sbu_0, # of connection points: 6
#     Node 6, Type 0, BuildingBlock: BETFAJ_clean_sbu_0, # of connection points: 6
#     Node 7, Type 0, BuildingBlock: BETFAJ_clean_sbu_0, # of connection points: 6
#     Node 8, Type 0, BuildingBlock: BETFAJ_clean_sbu_0, # of connection points: 6
#     Node 9, Type 0, BuildingBlock: BETFAJ_clean_sbu_0, # of connection points: 6
#     Node 10, Type 0, BuildingBlock: BETFAJ_clean_sbu_0, # of connection points: 6
#     Node 11, Type 0, BuildingBlock: BETFAJ_clean_sbu_0, # of connection points: 6
#     Edge 12, Type (0, 0), BuildingBlock: UVAHIK_clean_linker_0, # of connection points: 2
#     Edge 13, Type (0, 0), BuildingBlock: UVAHIK_clean_linker_0, # of connection points: 2
#     Edge 14, Type (0, 0), BuildingBlock: UVAHIK_clean_linker_0, # of connection points: 2
#     Edge 15, Type (0, 0), BuildingBlock: UVAHIK_clean_linker_0, # of connection points: 2
#     Edge 16, Type (0, 0), BuildingBlock: UVAHIK_clean_linker_0, # of connection points: 2
#     Edge 17, Type (0, 0), BuildingBlock: UVAHIK_clean_linker_0, # of connection points: 2
#     Edge 18, Type (0, 0), BuildingBlock: UVAHIK_clean_linker_0, # of connection points: 2
#     Edge 19, Type (0, 0), BuildingBlock: UVAHIK_clean_linker_0, # of connection points: 2
#     Edge 20, Type (0, 0), BuildingBlock: UVAHIK_clean_linker_0, # of connection points: 2
#     Edge 21, Type (0, 0), BuildingBlock: UVAHIK_clean_linker_0, # of connection points: 2
#     Edge 22, Type (0, 0), BuildingBlock: UVAHIK_clean_linker_0, # of connection points: 2
#     Edge 23, Type (0, 0), BuildingBlock: UVAHIK_clean_linker_0, # of connection points: 2
#     Edge 24, Type (0, 0), BuildingBlock: UVAHIK_clean_linker_0, # of connection points: 2
#     Edge 25, Type (0, 0), BuildingBlock: UVAHIK_clean_linker_0, # of connection points: 2
#     Edge 26, Type (0, 0), BuildingBlock: UVAHIK_clean_linker_0, # of connection points: 2
#     Edge 27, Type (0, 0), BuildingBlock: UVAHIK_clean_linker_0, # of connection points: 2
#     Edge 28, Type (0, 0), BuildingBlock: UVAHIK_clean_linker_0, # of connection points: 2
#     Edge 29, Type (0, 0), BuildingBlock: UVAHIK_clean_linker_0, # of connection points: 2
#     Edge 30, Type (0, 0), BuildingBlock: UVAHIK_clean_linker_0, # of connection points: 2
#     Edge 31, Type (0, 0), BuildingBlock: UVAHIK_clean_linker_0, # of connection points: 2
#     Edge 32, Type (0, 0), BuildingBlock: UVAHIK_clean_linker_0, # of connection points: 2
#     Edge 33, Type (0, 0), BuildingBlock: UVAHIK_clean_linker_0, # of connection points: 2
#     Edge 34, Type (0, 0), BuildingBlock: UVAHIK_clean_linker_0, # of connection points: 2
#     Edge 35, Type (0, 0), BuildingBlock: UVAHIK_clean_linker_0, # of connection points: 2
#     Edge 36, Type (0, 0), BuildingBlock: UVAHIK_clean_linker_0, # of connection points: 2
#     Edge 37, Type (0, 0), BuildingBlock: UVAHIK_clean_linker_0, # of connection points: 2
#     Edge 38, Type (0, 0), BuildingBlock: UVAHIK_clean_linker_0, # of connection points: 2
#     Edge 39, Type (0, 0), BuildingBlock: UVAHIK_clean_linker_0, # of connection points: 2
#     Edge 40, Type (0, 0), BuildingBlock: UVAHIK_clean_linker_0, # of connection points: 2
#     Edge 41, Type (0, 0), BuildingBlock: UVAHIK_clean_linker_0, # of connection points: 2
#     Edge 42, Type (0, 0), BuildingBlock: UVAHIK_clean_linker_0, # of connection points: 2
#     Edge 43, Type (0, 0), BuildingBlock: UVAHIK_clean_linker_0, # of connection points: 2
#     Edge 44, Type (0, 0), BuildingBlock: UVAHIK_clean_linker_0, # of connection points: 2
#     Edge 45, Type (0, 0), BuildingBlock: UVAHIK_clean_linker_0, # of connection points: 2
#     Edge 46, Type (0, 0), BuildingBlock: UVAHIK_clean_linker_0, # of connection points: 2
#     Edge 47, Type (0, 0), BuildingBlock: UVAHIK_clean_linker_0, # of connection points: 2
# Relax obj value: 0.100
# Max RMSD: 0.207
# Mean RMSD: 0.207
data_MOF--net-wjd--node1-BETFAJ_clean_sbu_0--edge1-UVAHIK_clean_linker_0
_symmetry_space_group_name_H-M    P1
_symmetry_Int_Tables_number       1
_symmetry_cell_setting            triclinic
loop_
_symmetry_equiv_pos_as_xyz
'x, y, z'
_cell_length_a     49.896799
_cell_length_b     49.929427
_cell_length_c     69.683264
_cell_angle_alpha  90.081726
_cell_angle_beta   90.157584
_cell_angle_gamma 120.05088
loop_
_atom_site_label
_atom_site_type_symbol
_atom_site_fract_x
_atom_site_fract_y
_atom_site_fract_z
_atom_type_partial_charge
Sm0 Sm 0.3596 0.16901 0.11913 0.0
Sm1 Sm 0.32441 0.10373 0.132 0.0
C2 C 0.4009 0.22818 0.11238 0.0
C3 C 0.43424 0.25236 0.11338 0.0
C4 C 0.44988 0.2638 0.13097 0.0
C5 C 0.47977 0.2899 0.13147 0.0
C6 C 0.49454 0.30529 0.11442 0.0
C7 C 0.47955 0.29264 0.09684 0.0
C8 C 0.44981 0.2666 0.09634 0.0
C9 C 0.33415 0.1252 0.08971 0.0
C10 C 0.39795 0.13414 0.13001 0.0
C11 C 0.28151 0.04444 0.13486 0.0
C12 C 0.24709 0.0258 0.13511 0.0
C13 C 0.22962 0.02105 0.11825 0.0
C14 C 0.19752 1.00118 0.11821 0.0
C15 C 0.18204 0.98573 0.13502 0.0
C16 C 0.19919 0.99159 0.15209 0.0
C17 C 0.23141 0.01125 0.1521 0.0
C18 C 0.34935 0.14385 0.1625 0.0
C19 C 0.28783 0.14374 0.12445 0.0
O20 O 0.38522 0.21841 0.12834 0.0
O21 O 0.39245 0.20627 0.09956 0.0
O22 O 0.34828 0.12388 0.10434 0.0
O23 O 0.33312 0.15068 0.08999 0.0
O24 O 0.39741 0.16017 0.13093 0.0
O25 O 0.3721 0.10739 0.12748 0.0
O26 O 0.29454 0.05775 0.11868 0.0
O27 O 0.29537 0.0619 0.14979 0.0
O28 O 0.3364 0.14825 0.148 0.0
O29 O 0.34915 0.11781 0.16091 0.0
O30 O 0.28591 0.11643 0.1263 0.0
O31 O 0.3147 0.1693 0.12294 0.0
H32 H 0.43861 0.25338 0.14439 0.0
H33 H 0.49057 0.29902 0.14528 0.0
H34 H 0.49043 0.30351 0.08342 0.0
H35 H 0.43845 0.25833 0.08257 0.0
H36 H 0.24077 0.03203 0.10491 0.0
H37 H 0.18483 0.99737 0.10489 0.0
H38 H 0.18788 0.97987 0.16524 0.0
H39 H 0.24419 0.01442 0.16531 0.0
Sm40 Sm 0.79212 0.69459 0.39857 0.0
Sm41 Sm 0.82146 0.65541 0.41172 0.0
C42 C 0.77711 0.73806 0.40297 0.0
C43 C 0.79131 0.7718 0.39927 0.0
C44 C 0.80448 0.79267 0.41469 0.0
C45 C 0.81739 0.82447 0.41194 0.0
C46 C 0.81723 0.8364 0.39372 0.0
C47 C 0.8045 0.81563 0.37817 0.0
C48 C 0.79173 0.78365 0.3809 0.0
C49 C 0.8131 0.68071 0.36571 0.0
C50 C 0.86901 0.72706 0.40407 0.0
C51 C 0.83678 0.61278 0.41998 0.0
C52 C 0.82958 0.58046 0.41713 0.0
C53 C 0.81924 0.56491 0.39949 0.0
C54 C 0.81538 0.53521 0.39706 0.0
C55 C 0.8219 0.52055 0.41221 0.0
C56 C 0.83106 0.53592 0.43003 0.0
C57 C 0.83479 0.56541 0.43243 0.0
C58 C 0.80359 0.68205 0.44048 0.0
C59 C 0.74887 0.62 0.39802 0.0
O60 O 0.79096 0.73065 0.41616 0.0
O61 O 0.76706 0.71862 0.3884 0.0
O62 O 0.81567 0.67209 0.38249 0.0
O63 O 0.79852 0.69612 0.36606 0.0
O64 O 0.84439 0.73041 0.40264 0.0
O65 O 0.86676 0.69982 0.4062 0.0
O66 O 0.84883 0.63226 0.40571 0.0
O67 O 0.81744 0.61725 0.43021 0.0
O68 O 0.78879 0.66876 0.42545 0.0
O69 O 0.8294 0.68166 0.4409 0.0
O70 O 0.77516 0.61971 0.39836 0.0
O71 O 0.74798 0.64598 0.40019 0.0
H72 H 0.80442 0.78435 0.42905 0.0
H73 H 0.82651 0.83964 0.4243 0.0
H74 H 0.80425 0.82408 0.3639 0.0
H75 H 0.78194 0.76828 0.36869 0.0
H76 H 0.81473 0.57592 0.38751 0.0
H77 H 0.80774 0.52397 0.38322 0.0
H78 H 0.83676 0.52584 0.44199 0.0
H79 H 0.84274 0.57693 0.44618 0.0
Sm80 Sm 0.84526 0.19126 0.11827 0.0
Sm81 Sm 0.91485 0.22389 0.13075 0.0
C82 C 0.78578 0.17335 0.11304 0.0
C83 C 0.76297 0.18427 0.11321 0.0
C84 C 0.75235 0.1904 0.13046 0.0
C85 C 0.72692 0.19521 0.13043 0.0
C86 C 0.71149 0.19389 0.11318 0.0
C87 C 0.72378 0.1902 0.09587 0.0
C88 C 0.749 0.18523 0.09591 0.0
C89 C 0.88912 0.20987 0.08909 0.0
C90 C 0.88169 0.26593 0.12909 0.0
C91 C 0.97375 0.24029 0.12687 0.0
C92 C 0.99266 0.22527 0.1301 0.0
C93 C 0.99872 0.21109 0.11455 0.0
C94 C 0.01805 0.1986 0.11675 0.0
C95 C 0.03186 0.19993 0.13454 0.0
C96 C 0.02485 0.21273 0.15039 0.0
C97 C 1.00546 0.22543 0.14818 0.0
C98 C 0.88049 0.20208 0.1638 0.0
C99 C 0.87224 0.14673 0.12659 0.0
O100 O 0.79723 0.17083 0.12941 0.0
O101 O 0.80593 0.18271 0.0991 0.0
O102 O 0.89052 0.22489 0.104 0.0
O103 O 0.86338 0.18341 0.08903 0.0
O104 O 0.85554 0.23952 0.12695 0.0
O105 O 0.90909 0.26741 0.12936 0.0
O106 O 0.95334 0.2284 0.113 0.0
O107 O 0.96352 0.24856 0.14181 0.0
O108 O 0.86944 0.19896 0.14695 0.0
O109 O 0.91048 0.218 0.16345 0.0
O110 O 0.89992 0.17197 0.12561 0.0
O111 O 0.84655 0.14799 0.12632 0.0
H112 H 0.76267 0.19004 0.14407 0.0
H113 H 0.71823 0.198 0.14407 0.0
H114 H 0.71311 0.18987 0.08225 0.0
H115 H 0.75669 0.18074 0.08238 0.0
H116 H 0.98919 0.21038 0.10045 0.0
H117 H 0.02314 0.18882 0.10435 0.0
H118 H 0.03551 0.21423 0.16421 0.0
H119 H 1.00119 0.23603 0.16047 0.0
Sm120 Sm 0.32282 0.10211 0.39928 0.0
Sm121 Sm 0.36068 0.17028 0.41057 0.0
C122 C 0.28024 0.04329 0.40362 0.0
C123 C 0.24618 0.02432 0.40063 0.0
C124 C 0.22634 0.01782 0.4164 0.0
C125 C 0.19445 0.99834 0.41443 0.0
C126 C 0.18146 0.98473 0.39665 0.0
C127 C 0.20089 0.99233 0.38058 0.0
C128 C 0.23305 0.01188 0.38256 0.0
C129 C 0.33403 0.13388 0.36535 0.0
C130 C 0.2895 0.14546 0.40289 0.0
C131 C 0.40289 0.22877 0.41843 0.0
C132 C 0.43598 0.2532 0.41682 0.0
C133 C 0.45044 0.26472 0.39901 0.0
C134 C 0.48029 0.29085 0.39818 0.0
C135 C 0.49612 0.3061 0.41512 0.0
C136 C 0.48226 0.29333 0.43286 0.0
C137 C 0.45261 0.26729 0.43368 0.0
C138 C 0.3342 0.12759 0.44014 0.0
C139 C 0.39727 0.13367 0.39839 0.0
O140 O 0.28917 0.06388 0.41738 0.0
O141 O 0.29839 0.05328 0.38857 0.0
O142 O 0.34359 0.14692 0.38162 0.0
O143 O 0.31908 0.10405 0.36681 0.0
O144 O 0.28653 0.1177 0.40467 0.0
O145 O 0.31684 0.17067 0.40234 0.0
O146 O 0.3853 0.22043 0.4031 0.0
O147 O 0.39613 0.20577 0.43006 0.0
O148 O 0.34887 0.12588 0.42599 0.0
O149 O 0.33162 0.15213 0.43876 0.0
O150 O 0.39728 0.16007 0.39853 0.0
O151 O 0.37142 0.10677 0.40065 0.0
H152 H 0.23554 0.02714 0.4305 0.0
H153 H 0.17993 0.99304 0.427 0.0
H154 H 0.19141 0.98199 0.36673 0.0
H155 H 0.24761 0.01656 0.37008 0.0
H156 H 0.43832 0.25431 0.38574 0.0
H157 H 0.49024 0.30006 0.38427 0.0
H158 H 0.49398 0.30409 0.44618 0.0
H159 H 0.44213 0.25888 0.44759 0.0
Sm160 Sm 0.82236 0.65605 0.1179 0.0
Sm161 Sm 0.79214 0.69364 0.13105 0.0
C162 C 0.83732 0.61358 0.10866 0.0
C163 C 0.82994 0.58136 0.11199 0.0
C164 C 0.82557 0.56874 0.13049 0.0
C165 C 0.82244 0.53947 0.1332 0.0
C166 C 0.82366 0.5223 0.11747 0.0
C167 C 0.82614 0.53437 0.0989 0.0
C168 C 0.82928 0.56355 0.09623 0.0
C169 C 0.80487 0.68295 0.08928 0.0
C170 C 0.74988 0.6191 0.13128 0.0
C171 C 0.77609 0.73628 0.1263 0.0
C172 C 0.79008 0.77008 0.12964 0.0
C173 C 0.80248 0.79039 0.11398 0.0
C174 C 0.81546 0.82227 0.11645 0.0
C175 C 0.81611 0.83481 0.13462 0.0
C176 C 0.80408 0.81459 0.15039 0.0
C177 C 0.79126 0.78255 0.14794 0.0
C178 C 0.81254 0.67985 0.16415 0.0
C179 C 0.86936 0.72729 0.12669 0.0
O180 O 0.851 0.63392 0.12244 0.0
O181 O 0.81697 0.61755 0.09915 0.0
O182 O 0.78954 0.6688 0.10386 0.0
O183 O 0.8313 0.68383 0.0894 0.0
O184 O 0.77656 0.61961 0.13126 0.0
O185 O 0.74844 0.64475 0.12906 0.0
O186 O 0.78971 0.72864 0.11313 0.0
O187 O 0.76679 0.71741 0.14107 0.0
O188 O 0.81591 0.67145 0.14746 0.0
O189 O 0.7975 0.6948 0.16357 0.0
O190 O 0.84448 0.73024 0.12789 0.0
O191 O 0.86743 0.70023 0.12434 0.0
H192 H 0.8255 0.58183 0.14288 0.0
H193 H 0.81989 0.53063 0.14766 0.0
H194 H 0.82737 0.52205 0.08644 0.0
H195 H 0.83243 0.57276 0.08181 0.0
H196 H 0.80184 0.78156 0.09967 0.0
H197 H 0.82405 0.83702 0.10394 0.0
H198 H 0.80447 0.82355 0.16461 0.0
H199 H 0.78208 0.76762 0.16032 0.0
Sm200 Sm 0.91632 0.22523 0.39885 0.0
Sm201 Sm 0.84627 0.19358 0.41074 0.0
C202 C 0.97513 0.24152 0.4037 0.0
C203 C 0.99462 0.22717 0.40043 0.0
C204 C 1.00271 0.21491 0.41611 0.0
C205 C 0.02145 0.20175 0.41363 0.0
C206 C 0.03293 0.20073 0.39541 0.0
C207 C 0.02443 0.2125 0.37962 0.0
C208 C 1.00545 0.22555 0.38209 0.0
C209 C 0.88206 0.20475 0.36549 0.0
C210 C 0.87266 0.14827 0.40229 0.0
C211 C 0.78664 0.17526 0.41545 0.0
C212 C 0.76316 0.18535 0.41539 0.0
C213 C 0.75148 0.1902 0.39813 0.0
C214 C 0.72568 0.19439 0.39821 0.0
C215 C 0.71081 0.19353 0.41552 0.0
C216 C 0.72371 0.1906 0.43282 0.0
C217 C 0.74949 0.1865 0.43275 0.0
C218 C 0.88992 0.21015 0.44 0.0
C219 C 0.88498 0.26898 0.40226 0.0
O220 O 0.95413 0.2286 0.41707 0.0
O221 O 0.96534 0.25035 0.38879 0.0
O222 O 0.87094 0.20155 0.38229 0.0
O223 O 0.91208 0.21979 0.36608 0.0
O224 O 0.90058 0.17315 0.40345 0.0
O225 O 0.84725 0.15008 0.40242 0.0
O226 O 0.7985 0.17359 0.39907 0.0
O227 O 0.8066 0.18442 0.42961 0.0
O228 O 0.89157 0.22573 0.4254 0.0
O229 O 0.86386 0.18397 0.43974 0.0
O230 O 0.85814 0.2434 0.4047 0.0
O231 O 0.91162 0.26918 0.4006 0.0
H232 H 0.99484 0.21584 0.43045 0.0
H233 H 0.02782 0.19334 0.42616 0.0
H234 H 0.0326 0.21179 0.36535 0.0
H235 H 0.99951 0.23457 0.36968 0.0
H236 H 0.76135 0.18939 0.38446 0.0
H237 H 0.7163 0.19644 0.38461 0.0
H238 H 0.71314 0.19034 0.44643 0.0
H239 H 0.75787 0.18283 0.44628 0.0
Sm240 Sm 0.10535 0.32042 0.63156 0.0
Sm241 Sm 0.17411 0.35695 0.61826 0.0
C242 C 0.04635 0.27792 0.62776 0.0
C243 C 0.02783 0.24375 0.63018 0.0
C244 C 0.02508 0.2241 0.61486 0.0
C245 C 1.00594 0.19211 0.61631 0.0
C246 C 0.98878 0.17878 0.63305 0.0
C247 C 0.99267 0.19814 0.64877 0.0
C248 C 0.01191 0.23034 0.64732 0.0
C249 C 0.14053 0.33529 0.66439 0.0
C250 C 0.1475 0.28535 0.62744 0.0
C251 C 0.23355 0.39792 0.61249 0.0
C252 C 0.25725 0.43141 0.61328 0.0
C253 C 0.26895 0.44704 0.63083 0.0
C254 C 0.2947 0.4771 0.63123 0.0
C255 C 0.30947 0.49209 0.6141 0.0
C256 C 0.29652 0.47711 0.59655 0.0
C257 C 0.27084 0.44715 0.59616 0.0
C258 C 0.12944 0.3281 0.58993 0.0
C259 C 0.13668 0.39502 0.62708 0.0
O260 O 0.06604 0.28774 0.61354 0.0
O261 O 0.05718 0.29533 0.64317 0.0
O262 O 0.15154 0.34257 0.6475 0.0
O263 O 0.11052 0.32078 0.66415 0.0
O264 O 0.11989 0.28295 0.62858 0.0
O265 O 0.17306 0.31205 0.62506 0.0
O266 O 0.22281 0.38304 0.62866 0.0
O267 O 0.21253 0.38853 0.59894 0.0
O268 O 0.12847 0.34346 0.60401 0.0
O269 O 0.1552 0.32748 0.5902 0.0
O270 O 0.16299 0.3956 0.62373 0.0
O271 O 0.11015 0.36899 0.63002 0.0
H272 H 0.03713 0.23344 0.60146 0.0
H273 H 1.00387 0.17778 0.60407 0.0
H274 H 0.9797 0.18855 0.66186 0.0
H275 H 0.01362 0.24476 0.65942 0.0
H276 H 0.25908 0.43565 0.64432 0.0
H277 H 0.30407 0.48785 0.645 0.0
H278 H 0.30692 0.48816 0.58308 0.0
H279 H 0.2624 0.4358 0.58241 0.0
Sm280 Sm 0.19651 0.84244 0.91082 0.0
Sm281 Sm 0.22766 0.91227 0.89952 0.0
C282 C 0.17862 0.78293 0.91563 0.0
C283 C 0.1888 0.75951 0.91516 0.0
C284 C 0.19138 0.74668 0.89774 0.0
C285 C 0.19558 0.72091 0.89764 0.0
C286 C 0.1972 0.70721 0.91495 0.0
C287 C 0.19667 0.7214 0.93232 0.0
C288 C 0.19232 0.74704 0.93242 0.0
C289 C 0.2115 0.88512 0.94029 0.0
C290 C 0.27199 0.88174 0.9027 0.0
C291 C 0.24371 0.97104 0.90405 0.0
C292 C 0.2291 0.99028 0.90049 0.0
C293 C 0.21391 0.99608 0.91553 0.0
C294 C 0.2011 0.01509 0.91275 0.0
C295 C 0.20338 0.02912 0.89489 0.0
C296 C 0.21789 0.02275 0.87968 0.0
C297 C 0.2306 1.00353 0.88243 0.0
C298 C 0.20858 0.87885 0.86577 0.0
C299 C 0.15079 0.86834 0.90237 0.0
O300 O 0.17592 0.7945 0.89937 0.0
O301 O 0.18859 0.80311 0.92965 0.0
O302 O 0.22808 0.88741 0.92611 0.0
O303 O 0.18515 0.85934 0.93939 0.0
O304 O 0.2465 0.8547 0.90472 0.0
O305 O 0.27192 0.90825 0.90153 0.0
O306 O 0.23114 0.95028 0.91759 0.0
O307 O 0.25259 0.96115 0.88925 0.0
O308 O 0.20486 0.86726 0.88245 0.0
O309 O 0.22348 0.90881 0.86674 0.0
O310 O 0.17549 0.89628 0.90396 0.0
O311 O 0.15292 0.84311 0.90214 0.0
H312 H 0.18875 0.75561 0.88415 0.0
H313 H 0.19572 0.7107 0.88395 0.0
H314 H 0.19857 0.71208 0.94595 0.0
H315 H 0.19044 0.75631 0.94609 0.0
H316 H 0.21239 0.98636 0.92965 0.0
H317 H 0.19046 0.01976 0.92485 0.0
H318 H 0.21974 0.03291 0.86568 0.0
H319 H 0.24195 0.99945 0.87049 0.0
Sm320 Sm 0.6972 0.78912 0.63089 0.0
Sm321 Sm 0.65896 0.81932 0.61837 0.0
C322 C 0.74035 0.77389 0.62618 0.0
C323 C 0.77425 0.7888 0.62952 0.0
C324 C 0.79446 0.80252 0.61395 0.0
C325 C 0.82628 0.81491 0.61619 0.0
C326 C 0.83875 0.81386 0.63403 0.0
C327 C 0.81898 0.80156 0.6499 0.0
C328 C 0.78689 0.78899 0.64765 0.0
C329 C 0.68291 0.80827 0.6643 0.0
C330 C 0.73055 0.86619 0.62657 0.0
C331 C 0.61624 0.83479 0.61063 0.0
C332 C 0.58319 0.82603 0.61264 0.0
C333 C 0.57019 0.82648 0.63044 0.0
C334 C 0.54036 0.82271 0.63138 0.0
C335 C 0.5229 0.8185 0.61454 0.0
C336 C 0.53533 0.8161 0.59693 0.0
C337 C 0.5651 0.82002 0.596 0.0
C338 C 0.68522 0.8015 0.58939 0.0
C339 C 0.62279 0.74599 0.63076 0.0
O340 O 0.732 0.78666 0.61282 0.0
O341 O 0.72164 0.7645 0.64101 0.0
O342 O 0.6746 0.81204 0.64765 0.0
O343 O 0.69765 0.79304 0.66339 0.0
O344 O 0.7336 0.84143 0.628 0.0
O345 O 0.70352 0.86433 0.62417 0.0
O346 O 0.63452 0.84508 0.62567 0.0
O347 O 0.6226 0.81794 0.59922 0.0
O348 O 0.67139 0.78643 0.60411 0.0
O349 O 0.686 0.82789 0.58949 0.0
O350 O 0.62252 0.77227 0.63034 0.0
O351 O 0.64876 0.74505 0.62886 0.0
H352 H 0.78559 0.80293 0.59981 0.0
H353 H 0.84113 0.82433 0.60378 0.0
H354 H 0.82815 0.80029 0.66376 0.0
H355 H 0.77201 0.77875 0.65996 0.0
H356 H 0.58345 0.83093 0.64357 0.0
H357 H 0.53175 0.82478 0.64522 0.0
H358 H 0.52243 0.81207 0.58369 0.0
H359 H 0.57444 0.81948 0.58208 0.0
Sm360 Sm 0.17335 0.3582 0.91206 0.0
Sm361 Sm 0.10569 0.31899 0.89873 0.0
C362 C 0.23123 0.40065 0.92106 0.0
C363 C 0.25654 0.43284 0.91819 0.0
C364 C 0.2603 0.44903 0.90102 0.0
C365 C 0.28594 0.47888 0.8986 0.0
C366 C 0.30833 0.49302 0.91328 0.0
C367 C 0.30368 0.47683 0.93063 0.0
C368 C 0.27812 0.44723 0.93303 0.0
C369 C 0.1287 0.33124 0.94076 0.0
C370 C 0.13646 0.39337 0.89804 0.0
C371 C 0.04676 0.27607 0.90169 0.0
C372 C 0.02827 0.24205 0.89866 0.0
C373 C 0.02609 0.22194 0.9135 0.0
C374 C 1.00672 0.19006 0.91167 0.0
C375 C 0.98882 0.17734 0.89504 0.0
C376 C 0.99219 0.19708 0.87971 0.0
C377 C 0.01166 0.22922 0.88155 0.0
C378 C 0.14042 0.33262 0.86584 0.0
C379 C 0.14975 0.28685 0.90437 0.0
O380 O 0.22413 0.38088 0.90694 0.0
O381 O 0.20711 0.3966 0.93074 0.0
O382 O 0.12724 0.34475 0.92588 0.0
O383 O 0.15461 0.33102 0.94087 0.0
O384 O 0.16318 0.39399 0.89848 0.0
O385 O 0.10976 0.36727 0.90022 0.0
O386 O 0.06646 0.28518 0.91597 0.0
O387 O 0.0576 0.29417 0.88665 0.0
O388 O 0.15183 0.34159 0.88256 0.0
O389 O 0.11048 0.3168 0.86628 0.0
O390 O 0.12164 0.2833 0.90481 0.0
O391 O 0.17474 0.31443 0.90481 0.0
H392 H 0.24373 0.43847 0.88942 0.0
H393 H 0.28834 0.4907 0.88515 0.0
H394 H 0.32043 0.48641 0.94219 0.0
H395 H 0.27564 0.43518 0.94641 0.0
H396 H 0.03865 0.23081 0.92686 0.0
H397 H 1.00493 0.17536 0.9236 0.0
H398 H 0.9786 0.18786 0.86673 0.0
H399 H 0.01296 0.24403 0.86982 0.0
Sm400 Sm 0.22703 0.9114 0.6308 0.0
Sm401 Sm 0.19753 0.84368 0.61748 0.0
C402 C 0.24338 0.97034 0.62714 0.0
C403 C 0.22856 0.98951 0.62997 0.0
C404 C 0.21304 0.99401 0.61451 0.0
C405 C 0.20089 0.01368 0.61628 0.0
C406 C 0.20398 0.02955 0.63352 0.0
C407 C 0.21818 0.02412 0.64933 0.0
C408 C 0.23053 1.00438 0.64754 0.0
C409 C 0.20721 0.87699 0.66385 0.0
C410 C 0.15027 0.86777 0.62551 0.0
C411 C 0.18228 0.78604 0.60827 0.0
C412 C 0.18914 0.76078 0.61144 0.0
C413 C 0.19843 0.75537 0.62938 0.0
C414 C 0.20223 0.72957 0.63206 0.0
C415 C 0.19675 0.70866 0.61688 0.0
C416 C 0.18861 0.71506 0.59879 0.0
C417 C 0.18491 0.74078 0.59614 0.0
C418 C 0.21506 0.88844 0.58893 0.0
C419 C 0.26984 0.87995 0.63139 0.0
O420 O 0.23195 0.95012 0.61315 0.0
O421 O 0.25095 0.95984 0.64226 0.0
O422 O 0.20387 0.86534 0.6471 0.0
O423 O 0.22228 0.90697 0.66327 0.0
O424 O 0.17501 0.89571 0.62658 0.0
O425 O 0.1524 0.84267 0.62368 0.0
O426 O 0.16893 0.79286 0.62208 0.0
O427 O 0.2028 0.81032 0.5989 0.0
O428 O 0.23027 0.88948 0.60362 0.0
O429 O 0.18871 0.86276 0.58888 0.0
O430 O 0.24344 0.85347 0.63121 0.0
O431 O 0.27087 0.90679 0.62898 0.0
H432 H 0.21091 0.98291 0.60077 0.0
H433 H 0.18974 0.01715 0.60393 0.0
H434 H 0.22095 0.03618 0.66277 0.0
H435 H 0.24225 1.00139 0.65975 0.0
H436 H 0.20217 0.7707 0.64137 0.0
H437 H 0.20905 0.7258 0.64611 0.0
H438 H 0.18374 0.69948 0.58679 0.0
H439 H 0.17781 0.74455 0.58216 0.0
Sm440 Sm 0.65915 0.81991 0.91154 0.0
Sm441 Sm 0.6968 0.78856 0.89927 0.0
C442 C 0.61793 0.83778 0.91804 0.0
C443 C 0.58488 0.82889 0.91626 0.0
C444 C 0.56786 0.81638 0.89926 0.0
C445 C 0.53777 0.81171 0.89741 0.0
C446 C 0.52412 0.81961 0.91247 0.0
C447 C 0.54086 0.83073 0.92976 0.0
C448 C 0.57078 0.83525 0.9316 0.0
C449 C 0.68755 0.80495 0.9404 0.0
C450 C 0.62228 0.74474 0.90227 0.0
C451 C 0.73981 0.77297 0.90398 0.0
C452 C 0.77363 0.78753 0.90039 0.0
C453 C 0.79452 0.80085 0.91579 0.0
C454 C 0.82637 0.81388 0.91303 0.0
C455 C 0.83834 0.81383 0.89479 0.0
C456 C 0.81751 0.80118 0.87925 0.0
C457 C 0.78552 0.78816 0.88201 0.0
C458 C 0.68122 0.8065 0.86581 0.0
C459 C 0.73077 0.86568 0.90269 0.0
O460 O 0.63449 0.84451 0.90237 0.0
O461 O 0.62516 0.82312 0.93071 0.0
O462 O 0.67265 0.78832 0.92632 0.0
O463 O 0.68839 0.83136 0.93974 0.0
O464 O 0.62107 0.77041 0.90419 0.0
O465 O 0.64869 0.74447 0.90141 0.0
O466 O 0.73187 0.78606 0.91737 0.0
O467 O 0.72075 0.76348 0.88923 0.0
O468 O 0.67374 0.811 0.88248 0.0
O469 O 0.69599 0.79129 0.86671 0.0
O470 O 0.73362 0.84078 0.9015 0.0
O471 O 0.7039 0.86415 0.90504 0.0
H472 H 0.57805 0.81095 0.88724 0.0
H473 H 0.52547 0.8025 0.88402 0.0
H474 H 0.53156 0.83747 0.94163 0.0
H475 H 0.58342 0.84489 0.94486 0.0
H476 H 0.78617 0.80074 0.93015 0.0
H477 H 0.8415 0.82294 0.92542 0.0
H478 H 0.82589 0.80109 0.86494 0.0
H479 H 0.77015 0.77831 0.86979 0.0
C480 C 0.08334 0.20912 0.12437 0.0
C481 C 0.05677 0.19208 0.13553 0.0
C482 C 0.10709 0.20212 0.1245 0.0
C483 C 0.12492 0.14041 0.13309 0.0
H484 H 0.20931 0.20893 0.13569 0.0
C485 C 0.23248 0.12352 0.13416 0.0
C486 C 0.25938 0.14608 0.12495 0.0
C487 C 0.20668 0.12746 0.1361 0.0
C488 C 0.18595 0.18948 0.13466 0.0
H489 H 0.03381 0.15412 0.15551 0.0
H490 H 0.07562 0.14135 0.15557 0.0
H491 H 0.1665 0.21873 0.13867 0.0
H492 H 0.27974 0.18964 0.10965 0.0
H493 H 0.23464 0.19592 0.11229 0.0
H494 H 0.14446 0.11121 0.1286 0.0
C495 C 0.078 0.1603 0.14679 0.0
C496 C 0.16137 0.19513 0.1365 0.0
C497 C 0.05425 0.16768 0.14688 0.0
C498 C 0.25952 0.17202 0.11707 0.0
C499 C 0.23367 0.17573 0.11874 0.0
C500 C 0.14963 0.13474 0.13108 0.0
C501 C 0.10479 0.17766 0.13567 0.0
C502 C 0.13057 0.17078 0.13546 0.0
C503 C 0.20711 0.15388 0.12865 0.0
C504 C 0.18051 0.1593 0.13155 0.0
H505 H 0.08575 0.22803 0.11552 0.0
H506 H 0.12717 0.21567 0.11558 0.0
H507 H 0.10142 0.12119 0.1321 0.0
H508 H 0.23174 0.10335 0.14048 0.0
H509 H 0.18681 0.11025 0.14395 0.0
C510 C 0.13834 0.93457 0.40828 0.0
C511 C 0.14855 0.95977 0.39575 0.0
C512 C 0.10769 0.91054 0.40787 0.0
C513 C 0.02851 0.88981 0.39531 0.0
H514 H 0.01472 0.80619 0.39641 0.0
C515 C 0.90506 0.78125 0.39291 0.0
C516 C 0.90023 0.7549 0.40306 0.0
C517 C 0.93487 0.80699 0.39121 0.0
C518 C 0.018 0.82932 0.39641 0.0
H519 H 0.13463 0.97986 0.37303 0.0
H520 H 0.08022 0.93759 0.37252 0.0
H521 H 0.06716 0.84969 0.39441 0.0
H522 H 0.92257 0.73534 0.42008 0.0
H523 H 0.97414 0.7805 0.41792 0.0
H524 H 0.97933 0.86948 0.39791 0.0
C525 C 0.09625 0.93657 0.38259 0.0
C526 C 0.04815 0.8543 0.39511 0.0
C527 C 0.12731 0.96058 0.38279 0.0
C528 C 0.92564 0.75513 0.41192 0.0
C529 C 0.95529 0.78103 0.41054 0.0
C530 C 0.9982 0.86474 0.39683 0.0
C531 C 0.08626 0.91113 0.39503 0.0
C532 C 0.05383 0.88484 0.39477 0.0
C533 C 0.96049 0.80718 0.3999 0.0
C534 C 0.99255 0.83411 0.39765 0.0
H535 H 0.15428 0.9333 0.41832 0.0
H536 H 0.10067 0.89148 0.41778 0.0
H537 H 0.03219 0.91312 0.39522 0.0
H538 H 0.88592 0.78166 0.38582 0.0
H539 H 0.93785 0.82641 0.3827 0.0
C540 C 0.89241 0.11037 0.12032 0.0
C541 C 0.86973 0.11597 0.12814 0.0
C542 C 0.88935 0.08093 0.12162 0.0
C543 C 0.85178 0.0094 0.1503 0.0
H544 H 0.86319 0.97024 0.10545 0.0
C545 C 0.81051 0.87876 0.14756 0.0
C546 C 0.82734 0.86854 0.13665 0.0
C547 C 0.81871 0.90997 0.14762 0.0
C548 C 0.86046 0.981 0.11823 0.0
H549 H 0.82638 0.09532 0.14371 0.0
H550 H 0.82142 0.04432 0.14632 0.0
H551 H 0.87168 0.02271 0.1031 0.0
H552 H 0.86723 0.88357 0.11818 0.0
H553 H 0.8818 0.93811 0.11847 0.0
H554 H 0.84061 0.9679 0.16549 0.0
C555 C 0.84143 0.06252 0.13907 0.0
C556 C 0.86524 0.01108 0.11684 0.0
C557 C 0.84417 0.09169 0.13745 0.0
C558 C 0.85343 0.89058 0.12647 0.0
C559 C 0.86172 0.92184 0.12659 0.0
C560 C 0.84723 0.97946 0.15174 0.0
C561 C 0.86392 0.05674 0.13114 0.0
C562 C 0.86058 0.02547 0.1328 0.0
C563 C 0.84407 0.93188 0.13685 0.0
C564 C 0.8511 0.96465 0.13567 0.0
H565 H 0.91226 0.12861 0.11296 0.0
H566 H 0.9071 0.0772 0.1154 0.0
H567 H 0.84846 0.02005 0.16294 0.0
H568 H 0.79009 0.86241 0.15538 0.0
H569 H 0.80431 0.91666 0.15551 0.0
C570 C 0.26243 0.17339 0.39169 0.0
C571 C 0.26144 0.14839 0.40156 0.0
C572 C 0.23593 0.17609 0.39009 0.0
C573 C 0.16135 0.15332 0.41308 0.0
H574 H 0.14061 0.17509 0.36405 0.0
C575 C 0.05177 0.16377 0.40382 0.0
C576 C 0.05537 0.18943 0.39332 0.0
C577 C 0.07479 0.15554 0.40362 0.0
C578 C 0.14617 0.16927 0.3779 0.0
H579 H 0.23209 0.10692 0.41782 0.0
H580 H 0.18585 0.11205 0.41542 0.0
H581 H 0.18535 0.16786 0.3666 0.0
H582 H 0.08569 0.22584 0.37385 0.0
H583 H 0.12575 0.21167 0.37353 0.0
H584 H 0.12274 0.1555 0.42454 0.0
C585 C 0.20707 0.12937 0.40874 0.0
C586 C 0.17183 0.16509 0.37934 0.0
C587 C 0.23347 0.12633 0.41002 0.0
C588 C 0.08195 0.20576 0.38195 0.0
C589 C 0.105 0.1976 0.38178 0.0
C590 C 0.1358 0.15771 0.41168 0.0
C591 C 0.20794 0.15416 0.39862 0.0
C592 C 0.17988 0.15733 0.39698 0.0
C593 C 0.10206 0.17278 0.39292 0.0
C594 C 0.12801 0.16603 0.3941 0.0
H595 H 0.28362 0.19068 0.38494 0.0
H596 H 0.23746 0.19562 0.38237 0.0
H597 H 0.16713 0.14767 0.42691 0.0
H598 H 0.03131 0.1503 0.41246 0.0
H599 H 0.07136 0.13585 0.41203 0.0
C600 C 0.12737 0.96083 0.14768 0.0
C601 C 0.14871 0.96157 0.13426 0.0
C602 C 0.09617 0.93734 0.14692 0.0
C603 C 0.03864 0.87432 0.11449 0.0
H604 H 0.99223 0.84173 0.1615 0.0
C605 C 0.92572 0.75606 0.11835 0.0
C606 C 0.90048 0.75534 0.12774 0.0
C607 C 0.95511 0.78252 0.11918 0.0
C608 C 1.00486 0.85078 0.14825 0.0
H609 H 0.15432 0.93791 0.1099 0.0
H610 H 0.10075 0.89655 0.10898 0.0
H611 H 0.04509 0.88551 0.16296 0.0
H612 H 0.88634 0.78157 0.14565 0.0
H613 H 0.93808 0.82761 0.14757 0.0
H614 H 0.99875 0.8387 0.09993 0.0
C615 C 0.10739 0.91459 0.11965 0.0
C616 C 0.03516 0.87603 0.14904 0.0
C617 C 0.13829 0.93827 0.12022 0.0
C618 C 0.90534 0.78153 0.13818 0.0
C619 C 0.93494 0.80779 0.13937 0.0
C620 C 1.00864 0.84882 0.11376 0.0
C621 C 0.08572 0.91374 0.13291 0.0
C622 C 0.05268 0.88799 0.13216 0.0
C623 C 0.9601 0.80863 0.12976 0.0
C624 C 0.99149 0.8366 0.13062 0.0
H625 H 0.13476 0.97859 0.15863 0.0
H626 H 0.08026 0.93787 0.15724 0.0
H627 H 0.05081 0.88325 0.1011 0.0
H628 H 0.92269 0.7363 0.11012 0.0
H629 H 0.97409 0.78242 0.11173 0.0
C630 C 0.85465 0.89245 0.40144 0.0
C631 C 0.82829 0.87008 0.39147 0.0
C632 C 0.86265 0.92364 0.40133 0.0
C633 C 0.84664 0.98058 0.37668 0.0
H634 H 0.87182 0.02394 0.42544 0.0
C635 C 0.84385 0.09302 0.39147 0.0
C636 C 0.86965 0.11727 0.40077 0.0
C637 C 0.84089 0.06374 0.38979 0.0
C638 C 0.86516 0.01228 0.41167 0.0
H639 H 0.79039 0.86334 0.37299 0.0
H640 H 0.80416 0.91749 0.37284 0.0
H641 H 0.86382 0.97168 0.42279 0.0
H642 H 0.91226 0.12968 0.41597 0.0
H643 H 0.90675 0.07818 0.41341 0.0
H644 H 0.84724 0.02096 0.36574 0.0
C645 C 0.81893 0.91109 0.38061 0.0
C646 C 0.86066 0.98232 0.4101 0.0
C647 C 0.811 0.87993 0.38067 0.0
C648 C 0.89225 0.11149 0.4086 0.0
C649 C 0.88899 0.08198 0.40723 0.0
C650 C 0.85093 0.01042 0.37829 0.0
C651 C 0.84447 0.93329 0.39127 0.0
C652 C 0.8511 0.96594 0.39261 0.0
C653 C 0.86339 0.05783 0.39766 0.0
C654 C 0.86 0.02654 0.39584 0.0
H655 H 0.86884 0.88576 0.40962 0.0
H656 H 0.8829 0.94015 0.40934 0.0
H657 H 0.83983 0.96898 0.3629 0.0
H658 H 0.82609 0.09678 0.38523 0.0
H659 H 0.82074 0.04557 0.38251 0.0
C660 C 0.20591 0.07642 0.61964 0.0
C661 C 0.19517 0.05389 0.63408 0.0
C662 C 0.19795 0.09949 0.61959 0.0
C663 C 0.16728 0.13905 0.65029 0.0
H664 H 0.15855 0.16984 0.60095 0.0
C665 C 0.12997 0.23211 0.64018 0.0
C666 C 0.14994 0.25705 0.62846 0.0
C667 C 0.13314 0.2058 0.64149 0.0
C668 C 0.16097 0.16151 0.61483 0.0
H669 H 0.16766 0.03783 0.65993 0.0
H670 H 0.15274 0.07782 0.6596 0.0
H671 H 0.16703 0.12595 0.60221 0.0
H672 H 0.18837 0.27385 0.60864 0.0
H673 H 0.19318 0.22754 0.61042 0.0
H674 H 0.1605 0.17459 0.66278 0.0
C675 C 0.16791 0.07799 0.64846 0.0
C676 C 0.16603 0.13643 0.6156 0.0
C677 C 0.17633 0.05502 0.64865 0.0
C678 C 0.17276 0.25502 0.61786 0.0
C679 C 0.17542 0.22848 0.6188 0.0
C680 C 0.1617 0.16391 0.64951 0.0
C681 C 0.17854 0.1005 0.63384 0.0
C682 C 0.17005 0.12529 0.63331 0.0
C683 C 0.15577 0.20367 0.63071 0.0
C684 C 0.15913 0.17577 0.63175 0.0
H685 H 0.22095 0.07647 0.60844 0.0
H686 H 0.20746 0.11682 0.60843 0.0
H687 H 0.17048 0.13138 0.66419 0.0
H688 H 0.11231 0.23319 0.64859 0.0
H689 H 0.11765 0.18697 0.65074 0.0
C690 C 0.11324 0.88664 0.90958 0.0
C691 C 0.11966 0.86506 0.90091 0.0
C692 C 0.08346 0.88285 0.90848 0.0
C693 C 1.00151 0.82343 0.8967 0.0
H694 H 0.99014 0.89464 0.89355 0.0
C695 C 0.88164 0.80801 0.88084 0.0
C696 C 0.87203 0.82464 0.8925 0.0
C697 C 0.91261 0.81531 0.88069 0.0
C698 C 0.99292 0.87452 0.89452 0.0
H699 H 0.10026 0.8231 0.88388 0.0
H700 H 0.04902 0.81723 0.88115 0.0
H701 H 0.04233 0.90229 0.89611 0.0
H702 H 0.88824 0.86366 0.91203 0.0
H703 H 0.94217 0.87599 0.91204 0.0
H704 H 0.95222 0.79569 0.89494 0.0
C705 C 0.06639 0.83647 0.88947 0.0
C706 C 0.02289 0.87888 0.89608 0.0
C707 C 0.09591 0.83992 0.8909 0.0
C708 C 0.89464 0.84993 0.90317 0.0
C709 C 0.92567 0.85722 0.90302 0.0
C710 C 0.97169 0.81911 0.89497 0.0
C711 C 0.05956 0.8577 0.89837 0.0
C712 C 0.02765 0.85336 0.8971 0.0
C713 C 0.93486 0.83941 0.8922 0.0
C714 C 0.96695 0.84454 0.89377 0.0
H715 H 0.13106 0.9061 0.91756 0.0
H716 H 0.07911 0.89941 0.91582 0.0
H717 H 1.00394 0.80315 0.89797 0.0
H718 H 0.86501 0.78835 0.87247 0.0
H719 H 0.91899 0.80153 0.87185 0.0
C720 C 0.78214 0.9038 0.6408 0.0
C721 C 0.75852 0.89717 0.62743 0.0
C722 C 0.80793 0.93367 0.64214 0.0
C723 C 0.83464 0.01525 0.62692 0.0
H724 H 0.91521 0.02917 0.64277 0.0
C725 C 0.94451 0.13285 0.61735 0.0
C726 C 0.96463 0.14541 0.63316 0.0
C727 C 0.92056 0.10215 0.61742 0.0
C728 C 0.89277 0.0256 0.63847 0.0
H729 H 0.74384 0.91588 0.60436 0.0
H730 H 0.78947 0.96723 0.6057 0.0
H731 H 0.87145 0.97637 0.64071 0.0
H732 H 0.97578 0.1352 0.66131 0.0
H733 H 0.93367 0.08092 0.66135 0.0
H734 H 0.85628 0.0644 0.62407 0.0
C735 C 0.78767 0.95014 0.61594 0.0
C736 C 0.86756 0.9953 0.63734 0.0
C737 C 0.76154 0.92058 0.61501 0.0
C738 C 0.96054 0.12621 0.64896 0.0
C739 C 0.93662 0.09516 0.64893 0.0
C740 C 0.85986 0.04533 0.62775 0.0
C741 C 0.81105 0.9574 0.62977 0.0
C742 C 0.8381 0.98964 0.63139 0.0
C743 C 0.91607 0.083 0.63325 0.0
C744 C 0.88925 0.05088 0.63339 0.0
H745 H 0.78021 0.88612 0.65062 0.0
H746 H 0.825 0.93822 0.65318 0.0
H747 H 0.81234 0.01225 0.62287 0.0
H748 H 0.94676 0.14706 0.60505 0.0
H749 H 0.90534 0.09338 0.60505 0.0
C750 C 0.12906 0.22988 0.90889 0.0
C751 C 0.15318 0.25903 0.90312 0.0
C752 C 0.1321 0.20355 0.90726 0.0
C753 C 0.17428 0.17255 0.88043 0.0
H754 H 0.15196 0.11489 0.92266 0.0
C755 C 0.21174 0.08038 0.88334 0.0
C756 C 0.19289 0.05219 0.89274 0.0
C757 C 0.20401 0.10372 0.88325 0.0
C758 C 0.15777 0.13037 0.91055 0.0
H759 H 0.19934 0.28332 0.89103 0.0
H760 H 0.20443 0.23734 0.88793 0.0
H761 H 0.14444 0.15937 0.92559 0.0
H762 H 0.15003 0.02577 0.90842 0.0
H763 H 0.13618 0.06627 0.90796 0.0
H764 H 0.1874 0.14361 0.86528 0.0
C765 C 0.18321 0.23485 0.89377 0.0
C766 C 0.15357 0.15599 0.9123 0.0
C767 C 0.18038 0.26124 0.89569 0.0
C768 C 0.16534 0.04742 0.90132 0.0
C769 C 0.15748 0.07072 0.90112 0.0
C770 C 0.1782 0.1468 0.8786 0.0
C771 C 0.1591 0.20567 0.89951 0.0
C772 C 0.16219 0.17763 0.89736 0.0
C773 C 0.17707 0.09949 0.89243 0.0
C774 C 0.17045 0.12555 0.89375 0.0
H775 H 0.10784 0.22742 0.91473 0.0
H776 H 0.11306 0.1814 0.91175 0.0
H777 H 0.18062 0.18849 0.86851 0.0
H778 H 0.23331 0.08503 0.87679 0.0
H779 H 0.21996 0.1256 0.87663 0.0
C780 C 0.11473 0.88715 0.63557 0.0
C781 C 0.11914 0.86455 0.62643 0.0
C782 C 0.08502 0.88329 0.63722 0.0
C783 C 1.00204 0.82189 0.63483 0.0
H784 H 0.98722 0.89099 0.63206 0.0
C785 C 0.88066 0.80419 0.62379 0.0
C786 C 0.8714 0.82138 0.63507 0.0
C787 C 0.91128 0.8108 0.62401 0.0
C788 C 0.9911 0.87155 0.6331 0.0
H789 H 0.09612 0.8209 0.61107 0.0
H790 H 0.04465 0.8147 0.61323 0.0
H791 H 0.04002 0.90018 0.62897 0.0
H792 H 0.88675 0.85919 0.65535 0.0
H793 H 0.94114 0.87127 0.65557 0.0
H794 H 0.95315 0.79321 0.63846 0.0
C795 C 0.06383 0.83487 0.61983 0.0
C796 C 0.02135 0.87677 0.63133 0.0
C797 C 0.09341 0.83849 0.61847 0.0
C798 C 0.89342 0.84554 0.64662 0.0
C799 C 0.92444 0.85252 0.64663 0.0
C800 C 0.97194 0.81669 0.63642 0.0
C801 C 0.0591 0.85693 0.62953 0.0
C802 C 0.02716 0.85191 0.63194 0.0
C803 C 0.93357 0.83499 0.63539 0.0
C804 C 0.96604 0.84136 0.63534 0.0
H805 H 0.13413 0.90745 0.64192 0.0
H806 H 0.08234 0.90061 0.64496 0.0
H807 H 1.00556 0.80223 0.63592 0.0
H808 H 0.86404 0.78545 0.6148 0.0
H809 H 0.91762 0.79714 0.61502 0.0
C810 C 0.94422 0.13217 0.91059 0.0
C811 C 0.96427 0.14422 0.89483 0.0
C812 C 0.92018 0.10154 0.91061 0.0
C813 C 0.89262 0.02458 0.89031 0.0
H814 H 0.81216 0.01131 0.90543 0.0
C815 C 0.78217 0.90278 0.8884 0.0
C816 C 0.75879 0.8965 0.90178 0.0
C817 C 0.80795 0.93259 0.88699 0.0
C818 C 0.83448 0.01434 0.90152 0.0
H819 H 0.9752 0.13344 0.86683 0.0
H820 H 0.93291 0.07919 0.86694 0.0
H821 H 0.85587 0.06355 0.9038 0.0
H822 H 0.74455 0.91563 0.92483 0.0
H823 H 0.7902 0.96692 0.92332 0.0
H824 H 0.87153 0.9753 0.88864 0.0
C825 C 0.936 0.09375 0.87925 0.0
C826 C 0.85954 0.04443 0.90043 0.0
C827 C 0.96 0.12474 0.87912 0.0
C828 C 0.76207 0.9201 0.91417 0.0
C829 C 0.78819 0.9496 0.91315 0.0
C830 C 0.86756 0.99429 0.89169 0.0
C831 C 0.9156 0.08203 0.89491 0.0
C832 C 0.88892 0.04991 0.89495 0.0
C833 C 0.81126 0.95653 0.89927 0.0
C834 C 0.83813 0.98871 0.89745 0.0
H835 H 0.94672 0.14668 0.92281 0.0
H836 H 0.90506 0.0931 0.92296 0.0
H837 H 0.91508 0.02814 0.88618 0.0
H838 H 0.78001 0.8849 0.87863 0.0
H839 H 0.82485 0.93693 0.87594 0.0
C840 C 0.36655 0.16678 0.33785 0.0
C841 C 0.33745 0.14893 0.34649 0.0
C842 C 0.36876 0.17272 0.31796 0.0
C843 C 0.32217 0.13683 0.27377 0.0
H844 H 0.38538 0.20969 0.2478 0.0
C845 C 0.32095 0.14614 0.19132 0.0
C846 C 0.34922 0.15549 0.18205 0.0
C847 C 0.32002 0.14993 0.21123 0.0
C848 C 0.36763 0.18912 0.25484 0.0
H849 H 0.28804 0.12502 0.34147 0.0
H850 H 0.29168 0.13645 0.30732 0.0
H851 H 0.3832 0.20868 0.28299 0.0
H852 H 0.39868 0.17682 0.18616 0.0
H853 H 0.39731 0.18457 0.22083 0.0
H854 H 0.30673 0.11707 0.24584 0.0
C855 C 0.31291 0.14519 0.31553 0.0
C856 C 0.36642 0.18852 0.27505 0.0
C857 C 0.31077 0.13904 0.33521 0.0
C858 C 0.37666 0.17003 0.19291 0.0
C859 C 0.37581 0.17433 0.21279 0.0
C860 C 0.3233 0.13749 0.25369 0.0
C861 C 0.34188 0.16088 0.30638 0.0
C862 C 0.34355 0.16236 0.28483 0.0
C863 C 0.34738 0.16338 0.22235 0.0
C864 C 0.34596 0.16362 0.24387 0.0
H865 H 0.3875 0.1741 0.34614 0.0
H866 H 0.3915 0.18486 0.3115 0.0
H867 H 0.30477 0.11586 0.28063 0.0
H868 H 0.29938 0.13414 0.18336 0.0
H869 H 0.29771 0.14145 0.21801 0.0
C870 C 0.80375 0.6448 0.33814 0.0
C871 C 0.82275 0.67332 0.34725 0.0
C872 C 0.80673 0.64115 0.31835 0.0
C873 C 0.85691 0.67921 0.27512 0.0
H874 H 0.779 0.63605 0.24752 0.0
C875 C 0.84501 0.69731 0.1937 0.0
C876 C 0.82215 0.67283 0.18276 0.0
C877 C 0.84829 0.69382 0.21342 0.0
C878 C 0.80109 0.64773 0.2549 0.0
H879 H 0.86013 0.72011 0.34292 0.0
H880 H 0.86596 0.71376 0.30872 0.0
H881 H 0.77916 0.6361 0.28242 0.0
H882 H 0.78488 0.62536 0.18387 0.0
H883 H 0.79081 0.61885 0.21822 0.0
H884 H 0.87874 0.69148 0.24752 0.0
C885 C 0.84894 0.69392 0.31669 0.0
C886 C 0.80119 0.64775 0.27507 0.0
C887 C 0.84576 0.69759 0.33639 0.0
C888 C 0.80333 0.64434 0.19182 0.0
C889 C 0.8064 0.64087 0.21162 0.0
C890 C 0.85681 0.6792 0.25493 0.0
C891 C 0.82875 0.66598 0.30716 0.0
C892 C 0.82906 0.66378 0.28557 0.0
C893 C 0.82833 0.66586 0.22287 0.0
C894 C 0.82885 0.66375 0.24445 0.0
H895 H 0.7852 0.62598 0.34601 0.0
H896 H 0.79098 0.61913 0.3117 0.0
H897 H 0.87892 0.69149 0.28255 0.0
H898 H 0.85921 0.71981 0.18721 0.0
H899 H 0.86522 0.71377 0.22145 0.0
C900 C 0.85709 0.16614 0.19155 0.0
C901 C 0.86343 0.19361 0.18222 0.0
C902 C 0.85063 0.16235 0.21133 0.0
C903 C 0.83455 0.19816 0.25444 0.0
H904 H 0.87444 0.16032 0.28213 0.0
C905 C 0.86363 0.21896 0.33604 0.0
C906 C 0.86506 0.19607 0.34695 0.0
C907 C 0.85696 0.21475 0.31628 0.0
C908 C 0.86259 0.17049 0.27475 0.0
H909 H 0.86773 0.2385 0.18626 0.0
H910 H 0.85632 0.23207 0.22052 0.0
H911 H 0.87396 0.15969 0.24728 0.0
H912 H 0.8603 0.15065 0.34573 0.0
H913 H 0.84752 0.14261 0.31146 0.0
H914 H 0.82383 0.20957 0.28199 0.0
C915 C 0.85551 0.21295 0.21268 0.0
C916 C 0.86231 0.17012 0.25457 0.0
C917 C 0.86189 0.21665 0.19292 0.0
C918 C 0.85846 0.16833 0.33781 0.0
C919 C 0.85176 0.16404 0.31804 0.0
C920 C 0.83485 0.19854 0.27464 0.0
C921 C 0.8508 0.18616 0.22239 0.0
C922 C 0.84863 0.18428 0.24402 0.0
C923 C 0.85189 0.18761 0.30678 0.0
C924 C 0.84921 0.18504 0.28518 0.0
H925 H 0.859 0.14835 0.18379 0.0
H926 H 0.84663 0.14113 0.21806 0.0
H927 H 0.82331 0.20891 0.247 0.0
H928 H 0.86967 0.24101 0.34255 0.0
H929 H 0.85776 0.2337 0.30828 0.0
C930 C 0.15652 0.31764 0.69331 0.0
C931 C 0.15779 0.34221 0.68278 0.0
C932 C 0.16305 0.32062 0.71308 0.0
C933 C 0.16076 0.36542 0.75516 0.0
H934 H 0.19472 0.32147 0.78244 0.0
C935 C 0.167 0.36833 0.83834 0.0
C936 C 0.15723 0.33978 0.84734 0.0
C937 C 0.17342 0.37188 0.81855 0.0
C938 C 0.18503 0.33381 0.77511 0.0
H939 H 0.16727 0.38936 0.68465 0.0
H940 H 0.17957 0.39511 0.71902 0.0
H941 H 0.1949 0.32202 0.7474 0.0
H942 H 0.14716 0.29281 0.84279 0.0
H943 H 0.15906 0.299 0.80856 0.0
H944 H 0.15024 0.37663 0.78278 0.0
C945 C 0.17346 0.37336 0.71209 0.0
C946 C 0.18512 0.33411 0.75491 0.0
C947 C 0.16705 0.37035 0.69227 0.0
C948 C 0.15551 0.31535 0.83635 0.0
C949 C 0.16218 0.31892 0.81664 0.0
C950 C 0.16069 0.36513 0.77532 0.0
C951 C 0.17055 0.34819 0.72296 0.0
C952 C 0.17273 0.34971 0.74457 0.0
C953 C 0.17017 0.34691 0.80724 0.0
C954 C 0.17257 0.34911 0.78567 0.0
H955 H 0.14846 0.29535 0.6865 0.0
H956 H 0.16017 0.30055 0.7208 0.0
H957 H 0.15033 0.37711 0.74789 0.0
H958 H 0.16762 0.38728 0.84632 0.0
H959 H 0.17986 0.39392 0.81198 0.0
C960 C 0.17373 0.84721 0.83848 0.0
C961 C 0.20327 0.86275 0.84705 0.0
C962 C 0.1705 0.84113 0.81854 0.0
C963 C 0.21658 0.87587 0.77476 0.0
H964 H 0.15444 0.80374 0.74722 0.0
C965 C 0.228 0.86829 0.69393 0.0
C966 C 0.20198 0.86084 0.68249 0.0
C967 C 0.22512 0.8627 0.71369 0.0
C968 C 0.17181 0.82412 0.75472 0.0
H969 H 0.25225 0.88277 0.84174 0.0
H970 H 0.24676 0.87149 0.80749 0.0
H971 H 0.15475 0.80418 0.7826 0.0
H972 H 0.1522 0.84059 0.68276 0.0
H973 H 0.14692 0.83015 0.71753 0.0
H974 H 0.23361 0.89608 0.74728 0.0
C975 C 0.22601 0.86426 0.81587 0.0
C976 C 0.17198 0.82437 0.775 0.0
C977 C 0.22918 0.87031 0.8356 0.0
C978 C 0.17258 0.84581 0.69113 0.0
C979 C 0.16963 0.84011 0.71108 0.0
C980 C 0.21642 0.87561 0.7547 0.0
C981 C 0.19681 0.85085 0.80685 0.0
C982 C 0.19483 0.8501 0.78529 0.0
C983 C 0.1961 0.84979 0.72275 0.0
C984 C 0.19449 0.84958 0.7443 0.0
H985 H 0.15341 0.84184 0.84688 0.0
H986 H 0.14765 0.83078 0.81214 0.0
H987 H 0.23388 0.89654 0.78206 0.0
H988 H 0.25099 0.88043 0.68775 0.0
H989 H 0.24598 0.86994 0.72207 0.0
C990 C 0.6567 0.78711 0.69512 0.0
C991 C 0.67197 0.81295 0.68309 0.0
C992 C 0.65425 0.79063 0.71481 0.0
C993 C 0.66112 0.84213 0.75496 0.0
H994 H 0.68614 0.79076 0.78253 0.0
C995 C 0.68153 0.84126 0.83936 0.0
C996 C 0.67038 0.81148 0.84703 0.0
C997 C 0.67936 0.84522 0.81944 0.0
C998 C 0.67884 0.80511 0.77513 0.0
H999 H 0.69559 0.86295 0.6822 0.0
H1000 H 0.69084 0.86928 0.71699 0.0
H1001 H 0.68657 0.79107 0.74771 0.0
H1002 H 0.64675 0.76267 0.84017 0.0
H1003 H 0.64233 0.76935 0.80596 0.0
H1004 H 0.65333 0.85595 0.78282 0.0
C1005 C 0.68055 0.84618 0.71099 0.0
C1006 C 0.67909 0.80529 0.75509 0.0
C1007 C 0.68304 0.84259 0.69106 0.0
C1008 C 0.65523 0.78586 0.83472 0.0
C1009 C 0.65306 0.78974 0.81504 0.0
C1010 C 0.66087 0.84194 0.77524 0.0
C1011 C 0.66729 0.82019 0.7232 0.0
C1012 C 0.66946 0.82309 0.74465 0.0
C1013 C 0.66629 0.81944 0.80695 0.0
C1014 C 0.66895 0.82271 0.78555 0.0
H1015 H 0.64831 0.76402 0.68944 0.0
H1016 H 0.64341 0.77008 0.72366 0.0
H1017 H 0.65376 0.85626 0.74736 0.0
H1018 H 0.69397 0.86147 0.84845 0.0
H1019 H 0.68977 0.86842 0.81369 0.0
C1020 C 0.20762 0.92559 0.95989 0.0
C1021 C 0.22201 0.90815 0.95625 0.0
C1022 C 0.2194 0.94912 0.97395 0.0
C1023 C 0.2863 0.98912 1.011 0.0
H1024 H 0.24392 0.03425 0.02247 0.0
C1025 C 0.32362 0.0742 0.07572 0.0
C1026 C 0.32118 0.101 0.07427 0.0
C1027 C 0.3113 0.05114 0.06146 0.0
C1028 C 0.25635 0.02215 0.0194 0.0
H1029 H 0.25957 0.9011 0.96479 0.0
H1030 H 0.27883 0.93955 0.98978 0.0
H1031 H 0.22307 0.99436 0.9984 0.0
H1032 H 0.304 0.12455 0.05635 0.0
H1033 H 0.28318 0.08482 0.03122 0.0
H1034 H 0.31953 0.01745 0.0323 0.0
C1035 C 0.25925 0.937 0.98172 0.0
C1036 C 0.2442 0.99864 1.00533 0.0
C1037 C 0.24797 0.91422 0.96727 0.0
C1038 C 0.30621 0.10418 0.05801 0.0
C1039 C 0.29403 0.08116 0.04363 0.0
C1040 C 0.29823 0.01243 0.02513 0.0
C1041 C 0.24565 0.9556 0.98537 0.0
C1042 C 0.25876 0.98127 1.00068 0.0
C1043 C 0.29635 0.05417 0.04508 0.0
C1044 C 0.2835 0.02938 0.02967 0.0
H1045 H 0.18778 0.92173 0.95138 0.0
H1046 H 0.20764 0.96216 0.97542 0.0
H1047 H 0.29947 0.97778 1.00838 0.0
H1048 H 0.33502 0.07091 0.088 0.0
H1049 H 0.31323 0.03068 0.06348 0.0
C1050 C 0.80821 0.70545 0.47344 0.0
C1051 C 0.79207 0.69459 0.45596 0.0
C1052 C 0.79727 0.71719 0.48796 0.0
C1053 C 0.74627 0.75106 0.49599 0.0
H1054 H 0.7492 0.73083 0.54933 0.0
C1055 C 0.71398 0.80849 0.55819 0.0
C1056 C 0.69817 0.79009 0.57411 0.0
C1057 C 0.72605 0.79749 0.54391 0.0
C1058 C 0.74797 0.73665 0.53452 0.0
H1059 H 0.75121 0.68699 0.44037 0.0
H1060 H 0.73279 0.70834 0.46526 0.0
H1061 H 0.76835 0.71019 0.5245 0.0
H1062 H 0.68246 0.74542 0.58728 0.0
H1063 H 0.70327 0.72628 0.56259 0.0
H1064 H 0.7255 0.77716 0.50591 0.0
C1065 C 0.754 0.70792 0.46781 0.0
C1066 C 0.75935 0.72502 0.52023 0.0
C1067 C 0.76458 0.6956 0.45349 0.0
C1068 C 0.69468 0.76036 0.57531 0.0
C1069 C 0.70686 0.74943 0.56113 0.0
C1070 C 0.73507 0.76286 0.51028 0.0
C1071 C 0.77012 0.7189 0.48532 0.0
C1072 C 0.75854 0.73187 0.5007 0.0
C1073 C 0.72277 0.76775 0.54513 0.0
C1074 C 0.73552 0.75573 0.52982 0.0
H1075 H 0.8293 0.70479 0.47596 0.0
H1076 H 0.81044 0.72544 0.50116 0.0
H1077 H 0.7455 0.75721 0.48118 0.0
H1078 H 0.71711 0.83148 0.55676 0.0
H1079 H 0.73837 0.81256 0.53202 0.0
C1080 C 0.07668 0.31906 0.95418 0.0
C1081 C 0.10436 0.31822 0.95613 0.0
C1082 C 0.05353 0.30649 0.96834 0.0
C1083 C 0.0402 0.28413 0.02015 0.0
H1084 H 0.9537 0.2391 1.00512 0.0
C1085 C 0.94048 0.25062 0.0754 0.0
C1086 C 0.91342 0.22148 0.07368 0.0
C1087 C 0.96365 0.26151 0.06125 0.0
C1088 C 0.9777 0.25142 1.00967 0.0
H1089 H 0.12949 0.30411 0.97504 0.0
H1090 H 0.08952 0.28279 0.99992 0.0
H1091 H 0.99391 0.25923 0.98055 0.0
H1092 H 0.88942 0.18144 0.05516 0.0
H1093 H 0.92945 0.20058 0.0303 0.0
H1094 H 0.02401 0.27627 0.04926 0.0
C1095 C 0.08549 0.29289 0.98728 0.0
C1096 C 1.0009 0.26333 0.99549 0.0
C1097 C 0.10845 0.30503 0.97293 0.0
C1098 C 0.90996 0.20388 0.05709 0.0
C1099 C 0.93296 0.21499 0.04275 0.0
C1100 C 0.017 0.27248 0.03433 0.0
C1101 C 0.05747 0.29319 0.98519 0.0
C1102 C 0.0326 0.27997 1.00045 0.0
C1103 C 0.96037 0.24395 0.04463 0.0
C1104 C 0.98528 0.25596 0.02937 0.0
H1105 H 0.07279 0.3294 0.9416 0.0
H1106 H 0.03267 0.30771 0.96619 0.0
H1107 H 0.06419 0.29693 0.02468 0.0
H1108 H 0.94388 0.26509 0.08781 0.0
H1109 H 0.984 0.28408 0.06323 0.0
C1110 C 0.28942 0.08651 0.45912 0.0
C1111 C 0.3214 0.10428 0.45589 0.0
C1112 C 0.27745 0.063 0.47311 0.0
C1113 C 0.3031 0.02112 0.50879 0.0
H1114 H 0.21784 0.98456 0.52516 0.0
C1115 C 0.25643 0.93875 0.57469 0.0
C1116 C 0.22637 0.91288 0.57371 0.0
C1117 C 0.26735 0.96176 0.56047 0.0
C1118 C 0.24171 0.99434 0.52072 0.0
H1119 H 0.36602 0.11217 0.46528 0.0
H1120 H 0.34618 0.07412 0.49065 0.0
H1121 H 0.23762 0.02493 0.50123 0.0
H1122 H 0.1843 0.89109 0.55673 0.0
H1123 H 0.20335 0.93102 0.53181 0.0
H1124 H 0.30703 0.9909 0.52902 0.0
C1125 C 0.32944 0.07617 0.48189 0.0
C1126 C 0.25333 0.01778 0.50668 0.0
C1127 C 0.3412 0.09869 0.46736 0.0
C1128 C 0.20753 0.91071 0.55802 0.0
C1129 C 0.21845 0.93379 0.54376 0.0
C1130 C 0.29163 0.9982 0.52309 0.0
C1131 C 0.29716 0.05722 0.48499 0.0
C1132 C 0.2844 0.03185 0.50028 0.0
C1133 C 0.24863 0.95971 0.54469 0.0
C1134 C 0.26072 0.98431 0.52931 0.0
H1135 H 0.27352 0.09004 0.45032 0.0
H1136 H 0.25258 0.04921 0.47417 0.0
H1137 H 0.32675 0.02982 0.5044 0.0
H1138 H 0.27162 0.94128 0.58655 0.0
H1139 H 0.29049 0.98142 0.56199 0.0
C1140 C 0.76433 0.6934 0.07543 0.0
C1141 C 0.79371 0.69614 0.07404 0.0
C1142 C 0.75366 0.7059 0.06131 0.0
C1143 C 0.77978 0.76076 0.01942 0.0
H1144 H 0.69193 0.71848 1.00911 0.0
C1145 C 0.73139 0.81053 0.96128 0.0
C1146 C 0.69998 0.79429 0.95622 0.0
C1147 C 0.74317 0.79906 0.97546 0.0
C1148 C 0.71661 0.73117 1.0113 0.0
H1149 H 0.83471 0.71382 0.0564 0.0
H1150 H 0.81581 0.73468 0.03141 0.0
H1151 H 0.71172 0.69814 0.03252 0.0
H1152 H 0.65607 0.7536 0.96214 0.0
H1153 H 0.67527 0.73396 0.98672 0.0
H1154 H 0.78538 0.79316 0.99796 0.0
C1155 C 0.8012 0.72366 0.04371 0.0
C1156 C 0.72806 0.71926 0.02531 0.0
C1157 C 0.81203 0.71144 0.058 0.0
C1158 C 0.68049 0.76661 0.96576 0.0
C1159 C 0.69198 0.75535 0.98014 0.0
C1160 C 0.76841 0.7726 1.00523 0.0
C1161 C 0.77178 0.72111 0.0451 0.0
C1162 C 0.75981 0.73387 0.02975 0.0
C1163 C 0.72379 0.77103 0.98536 0.0
C1164 C 0.73639 0.75823 1.00075 0.0
H1165 H 0.74954 0.68175 0.08757 0.0
H1166 H 0.73121 0.70384 0.06331 0.0
H1167 H 0.80438 0.77314 0.02244 0.0
H1168 H 0.74708 0.83176 0.95389 0.0
H1169 H 0.76764 0.81269 0.97834 0.0
C1170 C 0.09834 0.33509 0.56403 0.0
C1171 C 0.1058 0.31551 0.57423 0.0
C1172 C 0.07577 0.32348 0.54941 0.0
C1173 C 0.02031 0.24817 0.52214 0.0
H1174 H 0.99027 0.30051 0.50194 0.0
C1175 C 0.9126 0.20177 0.47059 0.0
C1176 C 0.91424 0.22113 0.45543 0.0
C1177 C 0.93572 0.21255 0.48496 0.0
C1178 C 0.99845 0.2855 0.50727 0.0
H1179 H 0.09476 0.26811 0.57751 0.0
H1180 H 0.05403 0.24721 0.55345 0.0
H1181 H 0.02917 0.32013 0.52669 0.0
H1182 H 0.94171 0.26717 0.44365 0.0
H1183 H 0.98175 0.28582 0.46843 0.0
H1184 H 0.98792 0.21312 0.50288 0.0
C1185 C 0.06629 0.27195 0.55558 0.0
C1186 C 0.02139 0.29693 0.52167 0.0
C1187 C 0.08979 0.28387 0.56969 0.0
C1188 C 0.93957 0.25155 0.45509 0.0
C1189 C 0.96255 0.26235 0.46944 0.0
C1190 C 0.99683 0.23657 0.50801 0.0
C1191 C 0.05866 0.29145 0.54491 0.0
C1192 C 0.03327 0.27873 0.52945 0.0
C1193 C 0.96106 0.24311 0.48468 0.0
C1194 C 0.98566 0.25511 0.50019 0.0
H1195 H 0.11043 0.35967 0.56714 0.0
H1196 H 0.07229 0.34022 0.5417 0.0
H1197 H 0.0283 0.23284 0.52696 0.0
H1198 H 0.89343 0.17825 0.47137 0.0
H1199 H 0.93344 0.19703 0.49648 0.0
C1200 C 0.65692 0.17167 0.10108 0.0
C1201 C 0.68077 0.19244 0.11338 0.0
C1202 C 0.627 0.16707 0.10254 0.0
C1203 C 0.57915 0.19801 0.12255 0.0
H1204 H 0.5146 0.1117 0.12107 0.0
C1205 C 0.45262 0.16076 0.14141 0.0
C1206 C 0.42877 0.13661 0.13075 0.0
C1207 C 0.48323 0.16734 0.13977 0.0
C1208 C 0.53215 0.13595 0.12126 0.0
H1209 H 0.69183 0.22604 0.1362 0.0
H1210 H 0.6392 0.21763 0.13891 0.0
H1211 H 0.56824 0.12549 0.11648 0.0
H1212 H 0.41819 0.10008 0.11023 0.0
H1213 H 0.47182 0.11181 0.10699 0.0
H1214 H 0.54298 0.20852 0.1271 0.0
C1215 C 0.64388 0.20491 0.12811 0.0
C1216 C 0.56305 0.1439 0.11864 0.0
C1217 C 0.67401 0.20953 0.12666 0.0
C1218 C 0.43602 0.11844 0.11888 0.0
C1219 C 0.46684 0.12532 0.117 0.0
C1220 C 0.54813 0.19007 0.12503 0.0
C1221 C 0.61981 0.18293 0.1164 0.0
C1222 C 0.58698 0.17501 0.11921 0.0
C1223 C 0.491 0.15027 0.12718 0.0
C1224 C 0.52414 0.15887 0.12446 0.0
H1225 H 0.66091 0.15778 0.0908 0.0
H1226 H 0.60923 0.15045 0.09302 0.0
H1227 H 0.59693 0.22221 0.1229 0.0
H1228 H 0.44769 0.17514 0.15073 0.0
H1229 H 0.50086 0.18614 0.14825 0.0
C1230 C 0.69512 0.58131 0.40896 0.0
C1231 C 0.72037 0.58927 0.39677 0.0
C1232 C 0.67173 0.55021 0.41093 0.0
C1233 C 0.63808 0.47244 0.38787 0.0
H1234 H 0.60849 0.44228 0.4391 0.0
C1235 C 0.54894 0.34295 0.40118 0.0
C1236 C 0.52529 0.33681 0.41441 0.0
C1237 C 0.57506 0.3727 0.39982 0.0
C1238 C 0.6162 0.45028 0.42464 0.0
H1239 H 0.7403 0.57117 0.37656 0.0
H1240 H 0.69951 0.51745 0.37963 0.0
H1241 H 0.64712 0.49654 0.4344 0.0
H1242 H 0.51091 0.35729 0.43665 0.0
H1243 H 0.55558 0.40872 0.43407 0.0
H1244 H 0.6069 0.42645 0.37801 0.0
C1245 C 0.69753 0.53492 0.38771 0.0
C1246 C 0.63838 0.48153 0.42195 0.0
C1247 C 0.72094 0.56579 0.38592 0.0
C1248 C 0.52882 0.36096 0.4265 0.0
C1249 C 0.55466 0.39062 0.42504 0.0
C1250 C 0.61576 0.44125 0.39053 0.0
C1251 C 0.67295 0.52653 0.40058 0.0
C1252 C 0.64936 0.49315 0.40349 0.0
C1253 C 0.57802 0.39717 0.4115 0.0
C1254 C 0.6041 0.42974 0.40892 0.0
H1255 H 0.69438 0.5988 0.4178 0.0
H1256 H 0.65295 0.54465 0.42082 0.0
H1257 H 0.64589 0.4805 0.37343 0.0
H1258 H 0.54718 0.3248 0.39181 0.0
H1259 H 0.59279 0.37656 0.38948 0.0
C1260 C 0.84866 0.28983 0.13357 0.0
C1261 C 0.87833 0.29394 0.13019 0.0
C1262 C 0.84311 0.31447 0.13242 0.0
C1263 C 0.88152 0.40052 0.13121 0.0
H1264 H 0.80035 0.38174 0.11309 0.0
C1265 C 0.8438 0.49224 0.13534 0.0
C1266 C 0.82559 0.49366 0.12038 0.0
C1267 C 0.84917 0.46737 0.13673 0.0
C1268 C 0.82328 0.38765 0.11798 0.0
H1269 H 0.92577 0.32795 0.12355 0.0
H1270 H 0.9161 0.37149 0.12136 0.0
H1271 H 0.81367 0.3413 0.11385 0.0
H1272 H 0.79721 0.46882 0.09578 0.0
H1273 H 0.8073 0.42598 0.0978 0.0
H1274 H 0.8917 0.44729 0.13431 0.0
C1275 C 0.89705 0.34888 0.12502 0.0
C1276 C 0.83083 0.36418 0.11873 0.0
C1277 C 0.9027 0.32394 0.12629 0.0
C1278 C 0.81179 0.46879 0.10731 0.0
C1279 C 0.81736 0.44398 0.10862 0.0
C1280 C 0.87414 0.42413 0.13016 0.0
C1281 C 0.86695 0.34431 0.12771 0.0
C1282 C 0.85989 0.37008 0.12569 0.0
C1283 C 0.83676 0.44323 0.12311 0.0
C1284 C 0.84474 0.418 0.12379 0.0
H1285 H 0.8292 0.26722 0.13687 0.0
H1286 H 0.81988 0.30991 0.13526 0.0
H1287 H 0.90405 0.40614 0.13673 0.0
H1288 H 0.85504 0.51099 0.1456 0.0
H1289 H 0.86349 0.46737 0.14843 0.0
C1290 C 0.45207 0.16135 0.3875 0.0
C1291 C 0.42807 0.13606 0.39721 0.0
C1292 C 0.48277 0.16827 0.38933 0.0
C1293 C 0.53454 0.15736 0.42242 0.0
H1294 H 0.59143 0.18757 0.37955 0.0
C1295 C 0.65587 0.16999 0.42672 0.0
C1296 C 0.68017 0.19207 0.41541 0.0
C1297 C 0.62607 0.16585 0.42533 0.0
C1298 C 0.57612 0.17975 0.39181 0.0
H1299 H 0.41742 0.0976 0.41605 0.0
H1300 H 0.4713 0.10938 0.41909 0.0
H1301 H 0.53752 0.17285 0.37463 0.0
H1302 H 0.69239 0.22832 0.39442 0.0
H1303 H 0.6405 0.22179 0.39234 0.0
H1304 H 0.57314 0.16459 0.43967 0.0
C1305 C 0.46627 0.12405 0.41015 0.0
C1306 C 0.545 0.17107 0.38894 0.0
C1307 C 0.43534 0.11696 0.40818 0.0
C1308 C 0.67411 0.21082 0.40317 0.0
C1309 C 0.64426 0.20693 0.40193 0.0
C1310 C 0.56572 0.16627 0.42533 0.0
C1311 C 0.49046 0.15019 0.40104 0.0
C1312 C 0.52367 0.15936 0.40413 0.0
C1313 C 0.61959 0.18387 0.41269 0.0
C1314 C 0.58694 0.17715 0.41001 0.0
H1315 H 0.44725 0.17663 0.37901 0.0
H1316 H 0.50064 0.18868 0.38222 0.0
H1317 H 0.51901 0.14924 0.43458 0.0
H1318 H 0.65951 0.15479 0.43608 0.0
H1319 H 0.60784 0.1475 0.43363 0.0
C1320 C 0.52658 0.36031 0.10338 0.0
C1321 C 0.52377 0.33601 0.11497 0.0
C1322 C 0.5525 0.38998 0.10479 0.0
C1323 C 0.61657 0.44012 0.13838 0.0
H1324 H 0.64423 0.4961 0.09501 0.0
C1325 C 0.72315 0.56412 0.14203 0.0
C1326 C 0.72166 0.58801 0.13228 0.0
C1327 C 0.69943 0.53334 0.14023 0.0
C1328 C 0.63656 0.48089 0.10733 0.0
H1329 H 0.547 0.32375 0.1366 0.0
H1330 H 0.59277 0.37543 0.13876 0.0
H1331 H 0.60488 0.44204 0.09032 0.0
H1332 H 0.69367 0.59825 0.11322 0.0
H1333 H 0.6518 0.54424 0.11017 0.0
H1334 H 0.64867 0.47899 0.1553 0.0
C1335 C 0.57442 0.37175 0.1289 0.0
C1336 C 0.61392 0.44974 0.10466 0.0
C1337 C 0.5482 0.34201 0.12763 0.0
C1338 C 0.69526 0.58046 0.12117 0.0
C1339 C 0.67154 0.54945 0.11919 0.0
C1340 C 0.63941 0.4712 0.14101 0.0
C1341 C 0.57671 0.39639 0.11773 0.0
C1342 C 0.60311 0.42893 0.12021 0.0
C1343 C 0.67357 0.52541 0.12847 0.0
C1344 C 0.6494 0.49215 0.12559 0.0
H1345 H 0.50806 0.35676 0.09369 0.0
H1346 H 0.55283 0.40817 0.09618 0.0
H1347 H 0.6088 0.42516 0.15081 0.0
H1348 H 0.7433 0.56912 0.1506 0.0
H1349 H 0.70203 0.51558 0.14747 0.0
C1350 C 0.81385 0.46915 0.42421 0.0
C1351 C 0.82181 0.49074 0.40922 0.0
C1352 C 0.81839 0.44372 0.42238 0.0
C1353 C 0.86693 0.4201 0.39506 0.0
H1354 H 0.81543 0.34076 0.41931 0.0
C1355 C 0.89094 0.31766 0.38763 0.0
C1356 C 0.88397 0.298 0.40346 0.0
C1357 C 0.88314 0.3411 0.38776 0.0
C1358 C 0.83034 0.36291 0.41263 0.0
H1359 H 0.83892 0.50086 0.38 0.0
H1360 H 0.84568 0.45614 0.3766 0.0
H1361 H 0.7997 0.37974 0.42002 0.0
H1362 H 0.86434 0.28776 0.43198 0.0
H1363 H 0.85214 0.32927 0.43265 0.0
H1364 H 0.89776 0.40351 0.38788 0.0
C1365 C 0.83683 0.45941 0.39003 0.0
C1366 C 0.8212 0.38529 0.413 0.0
C1367 C 0.83246 0.48492 0.39189 0.0
C1368 C 0.87023 0.30288 0.41965 0.0
C1369 C 0.86276 0.32636 0.41988 0.0
C1370 C 0.87609 0.39777 0.39472 0.0
C1371 C 0.83085 0.43902 0.40546 0.0
C1372 C 0.83946 0.41431 0.4043 0.0
C1373 C 0.86833 0.34536 0.40376 0.0
C1374 C 0.8581 0.36893 0.40364 0.0
H1375 H 0.80487 0.47231 0.43763 0.0
H1376 H 0.8134 0.42856 0.43459 0.0
H1377 H 0.88196 0.44232 0.38851 0.0
H1378 H 0.90079 0.31382 0.3748 0.0
H1379 H 0.88754 0.35501 0.37499 0.0
C1380 C 0.20614 0.66592 0.6054 0.0
C1381 C 0.19689 0.67904 0.62004 0.0
C1382 C 0.20183 0.63605 0.6073 0.0
C1383 C 0.15188 0.56316 0.6334 0.0
H1384 H 0.20647 0.53706 0.61161 0.0
C1385 C 0.12897 0.43715 0.64111 0.0
C1386 C 0.13807 0.42522 0.62584 0.0
C1387 C 0.13631 0.46827 0.64098 0.0
C1388 C 0.1907 0.5438 0.61758 0.0
H1389 H 0.17759 0.6713 0.64872 0.0
H1390 H 0.17113 0.61996 0.65225 0.0
H1391 H 0.22141 0.59156 0.61091 0.0
H1392 H 0.16056 0.43568 0.59814 0.0
H1393 H 0.17192 0.48907 0.59741 0.0
H1394 H 0.12095 0.51544 0.6398 0.0
C1395 C 0.1809 0.63242 0.63904 0.0
C1396 C 0.19939 0.5752 0.61723 0.0
C1397 C 0.18507 0.66218 0.63711 0.0
C1398 C 0.15328 0.44438 0.61011 0.0
C1399 C 0.1602 0.47515 0.60983 0.0
C1400 C 0.14315 0.53178 0.6337 0.0
C1401 C 0.18827 0.61852 0.62393 0.0
C1402 C 0.18002 0.58532 0.62506 0.0
C1403 C 0.15261 0.48789 0.62548 0.0
C1404 C 0.16229 0.52155 0.62566 0.0
H1405 H 0.216 0.67838 0.59221 0.0
H1406 H 0.20789 0.62626 0.59535 0.0
H1407 H 0.13604 0.5699 0.63926 0.0
H1408 H 0.11775 0.42299 0.65355 0.0
H1409 H 0.13028 0.47722 0.65338 0.0
C1410 C 0.31886 0.88521 0.88715 0.0
C1411 C 0.30121 0.88113 0.90365 0.0
C1412 C 0.34225 0.87735 0.88731 0.0
C1413 C 0.36666 0.82845 0.91433 0.0
H1414 H 0.44341 0.87596 0.88655 0.0
C1415 C 0.47358 0.81287 0.92523 0.0
C1416 C 0.49401 0.81907 0.90976 0.0
C1417 C 0.44797 0.81714 0.92343 0.0
C1418 C 0.4219 0.86202 0.89414 0.0
H1419 H 0.29426 0.8663 0.93326 0.0
H1420 H 0.33577 0.85394 0.93388 0.0
H1421 H 0.40466 0.89185 0.88574 0.0
H1422 H 0.50177 0.83266 0.8798 0.0
H1423 H 0.45667 0.83877 0.87649 0.0
H1424 H 0.38407 0.79876 0.92287 0.0
C1425 C 0.33138 0.8625 0.92067 0.0
C1426 C 0.39963 0.87126 0.89371 0.0
C1427 C 0.30795 0.87009 0.92044 0.0
C1428 C 0.48676 0.82758 0.89208 0.0
C1429 C 0.46104 0.83161 0.89025 0.0
C1430 C 0.38896 0.81919 0.91476 0.0
C1431 C 0.34838 0.86524 0.90398 0.0
C1432 C 0.3718 0.85483 0.90395 0.0
C1433 C 0.44186 0.8275 0.90606 0.0
C1434 C 0.41705 0.83599 0.90478 0.0
H1435 H 0.31345 0.89283 0.87389 0.0
H1436 H 0.35457 0.87949 0.87411 0.0
H1437 H 0.34525 0.81473 0.92207 0.0
H1438 H 0.47783 0.80553 0.93896 0.0
H1439 H 0.4338 0.81363 0.93596 0.0
C1440 C 0.58419 0.69207 0.61988 0.0
C1441 C 0.59212 0.7175 0.63198 0.0
C1442 C 0.55313 0.66847 0.61801 0.0
C1443 C 0.47569 0.63463 0.64113 0.0
H1444 H 0.44487 0.60492 0.58984 0.0
C1445 C 0.34612 0.54539 0.62769 0.0
C1446 C 0.33996 0.52154 0.61453 0.0
C1447 C 0.37583 0.57158 0.62905 0.0
C1448 C 0.45307 0.61268 0.60431 0.0
H1449 H 0.57414 0.73753 0.65219 0.0
H1450 H 0.52046 0.69636 0.64929 0.0
H1451 H 0.49918 0.64371 0.59456 0.0
H1452 H 0.36038 0.50695 0.59237 0.0
H1453 H 0.41172 0.55185 0.59489 0.0
H1454 H 0.42984 0.60334 0.65098 0.0
C1455 C 0.5379 0.69444 0.64118 0.0
C1456 C 0.48432 0.63493 0.60701 0.0
C1457 C 0.56873 0.71806 0.64287 0.0
C1458 C 0.36402 0.52501 0.60245 0.0
C1459 C 0.39364 0.55096 0.60389 0.0
C1460 C 0.44448 0.61223 0.63846 0.0
C1461 C 0.52951 0.66968 0.62838 0.0
C1462 C 0.49616 0.64595 0.62549 0.0
C1463 C 0.40021 0.57444 0.61741 0.0
C1464 C 0.43276 0.60056 0.62003 0.0
H1465 H 0.60164 0.69131 0.61106 0.0
H1466 H 0.54754 0.64955 0.60818 0.0
H1467 H 0.48396 0.64251 0.65558 0.0
H1468 H 0.32804 0.54368 0.63705 0.0
H1469 H 0.37973 0.58941 0.63937 0.0
C1470 C 0.21039 0.66859 0.90038 0.0
C1471 C 0.19603 0.6766 0.91489 0.0
C1472 C 0.20573 0.63846 0.89911 0.0
C1473 C 0.14765 0.55852 0.9128 0.0
H1474 H 0.20991 0.53837 0.8972 0.0
C1475 C 0.12204 0.43155 0.91043 0.0
C1476 C 0.13807 0.42375 0.89712 0.0
C1477 C 0.12919 0.46241 0.91255 0.0
C1478 C 0.19202 0.54347 0.90127 0.0
H1479 H 0.1665 0.65897 0.93997 0.0
H1480 H 0.15922 0.60723 0.93806 0.0
H1481 H 0.22418 0.59236 0.90165 0.0
H1482 H 0.17314 0.44169 0.87503 0.0
H1483 H 0.18417 0.49492 0.87772 0.0
H1484 H 0.11529 0.50998 0.91204 0.0
C1485 C 0.17359 0.62404 0.92739 0.0
C1486 C 0.20033 0.57456 0.90393 0.0
C1487 C 0.17819 0.65402 0.92864 0.0
C1488 C 0.16026 0.44706 0.88533 0.0
C1489 C 0.16697 0.47773 0.88714 0.0
C1490 C 0.13927 0.52752 0.90998 0.0
C1491 C 0.1865 0.61554 0.91231 0.0
C1492 C 0.17824 0.58251 0.90977 0.0
C1493 C 0.1522 0.48612 0.90116 0.0
C1494 C 0.16126 0.51941 0.90414 0.0
H1495 H 0.22474 0.68541 0.88971 0.0
H1496 H 0.21615 0.63283 0.88732 0.0
H1497 H 0.12983 0.5637 0.91696 0.0
H1498 H 0.10543 0.41418 0.92006 0.0
H1499 H 0.11757 0.46776 0.92372 0.0
C1500 C 0.29952 0.85585 0.64418 0.0
C1501 C 0.29838 0.87788 0.63223 0.0
C1502 C 0.32337 0.84896 0.64243 0.0
C1503 C 0.39962 0.87479 0.61746 0.0
H1504 H 0.3823 0.79258 0.63165 0.0
C1505 C 0.48673 0.83477 0.60034 0.0
C1506 C 0.49343 0.81965 0.61504 0.0
C1507 C 0.46114 0.83904 0.60157 0.0
C1508 C 0.38759 0.81568 0.62769 0.0
H1509 H 0.32118 0.90991 0.60901 0.0
H1510 H 0.3619 0.89709 0.60515 0.0
H1511 H 0.34257 0.80668 0.63571 0.0
H1512 H 0.47682 0.79544 0.64208 0.0
H1513 H 0.43257 0.80363 0.64445 0.0
H1514 H 0.44435 0.88335 0.60896 0.0
C1515 C 0.34537 0.88587 0.61656 0.0
C1516 C 0.36478 0.824 0.63016 0.0
C1517 C 0.32196 0.89341 0.61874 0.0
C1518 C 0.47284 0.80771 0.63064 0.0
C1519 C 0.4472 0.81209 0.63189 0.0
C1520 C 0.42214 0.86628 0.6147 0.0
C1521 C 0.34628 0.86314 0.62819 0.0
C1522 C 0.37048 0.85388 0.62527 0.0
C1523 C 0.4415 0.82858 0.61761 0.0
C1524 C 0.4166 0.83672 0.6199 0.0
H1525 H 0.28143 0.84334 0.65463 0.0
H1526 H 0.3234 0.83211 0.65215 0.0
H1527 H 0.4056 0.89817 0.61381 0.0
H1528 H 0.50197 0.84458 0.58816 0.0
H1529 H 0.45716 0.85122 0.59007 0.0
C1530 C 0.578 0.69908 0.88626 0.0
C1531 C 0.59233 0.71571 0.90303 0.0
C1532 C 0.54672 0.67578 0.88648 0.0
C1533 C 0.47455 0.65044 0.91462 0.0
H1534 H 0.44407 0.57463 0.88534 0.0
C1535 C 0.35231 0.54384 0.9257 0.0
C1536 C 0.33759 0.52327 0.91027 0.0
C1537 C 0.38207 0.56951 0.92369 0.0
C1538 C 0.45195 0.59589 0.89335 0.0
H1539 H 0.5858 0.72109 0.93315 0.0
H1540 H 0.53175 0.67975 0.93383 0.0
H1541 H 0.49877 0.61327 0.88433 0.0
H1542 H 0.34222 0.5155 0.88011 0.0
H1543 H 0.39321 0.56086 0.8764 0.0
H1544 H 0.42774 0.63301 0.92371 0.0
C1545 C 0.54419 0.68482 0.9204 0.0
C1546 C 0.48351 0.61808 0.89281 0.0
C1547 C 0.57529 0.70814 0.92011 0.0
C1548 C 0.35261 0.53057 0.89238 0.0
C1549 C 0.38223 0.55644 0.89032 0.0
C1550 C 0.44295 0.62828 0.91511 0.0
C1551 C 0.5292 0.66879 0.90349 0.0
C1552 C 0.49534 0.64552 0.9036 0.0
C1553 C 0.3979 0.57565 0.90611 0.0
C1554 C 0.43119 0.6005 0.90462 0.0
H1555 H 0.59049 0.70518 0.8728 0.0
H1556 H 0.53593 0.6642 0.87314 0.0
H1557 H 0.48264 0.67158 0.92281 0.0
H1558 H 0.34125 0.53963 0.93959 0.0
H1559 H 0.39315 0.58367 0.93622 0.0
loop_
_geom_bond_atom_site_label_1
_geom_bond_atom_site_label_2
_geom_bond_distance
_geom_bond_site_symmetry_2
_ccdc_geom_bond_type
Sm0 C2 2.846 . S
Sm0 O20 2.543 . S
Sm0 O21 2.450 . S
Sm0 O22 2.681 . S
Sm0 O23 2.464 . S
Sm0 O24 2.396 . S
Sm0 O28 2.386 . S
Sm0 O31 2.408 . S
Sm1 C11 2.846 . S
Sm1 O22 2.386 . S
Sm1 O25 2.408 . S
Sm1 O26 2.543 . S
Sm1 O27 2.450 . S
Sm1 O28 2.681 . S
Sm1 O29 2.464 . S
Sm1 O30 2.396 . S
C2 Sm0 2.846 . S
C2 C3 1.506 . S
C2 O20 1.261 . S
C2 O21 1.242 . S
C3 C2 1.506 . S
C3 C4 1.358 . S
C3 C8 1.382 . S
C4 C3 1.358 . S
C4 C5 1.385 . S
C4 H32 0.930 . S
C5 C4 1.385 . S
C5 C6 1.395 . S
C5 H33 0.929 . S
C6 C5 1.395 . S
C6 C7 1.335 . S
C7 C6 1.335 . S
C7 C8 1.398 . S
C7 H34 0.930 . S
C8 C3 1.382 . S
C8 C7 1.398 . S
C8 H35 0.929 . S
C9 O22 1.271 . S
C9 O23 1.251 . S
C10 O24 1.252 . S
C10 O25 1.272 . S
C11 Sm1 2.846 . S
C11 C12 1.506 . S
C11 O26 1.261 . S
C11 O27 1.242 . S
C12 C11 1.506 . S
C12 C13 1.358 . S
C12 C17 1.382 . S
C13 C12 1.358 . S
C13 C14 1.385 1_545 S
C13 H36 0.930 . S
C14 C13 1.385 1_565 S
C14 C15 1.395 . S
C14 H37 0.929 . S
C15 C14 1.395 . S
C15 C16 1.335 . S
C16 C15 1.335 . S
C16 C17 1.398 1_565 S
C16 H38 0.930 . S
C17 C12 1.382 . S
C17 C16 1.398 1_545 S
C17 H39 0.929 . S
C18 O28 1.271 . S
C18 O29 1.251 . S
C19 O30 1.252 . S
C19 O31 1.272 . S
O20 Sm0 2.543 . S
O20 C2 1.261 . S
O21 Sm0 2.450 . S
O21 C2 1.242 . S
O22 Sm0 2.681 . S
O22 Sm1 2.386 . S
O22 C9 1.271 . S
O23 Sm0 2.464 . S
O23 C9 1.251 . S
O24 Sm0 2.396 . S
O24 C10 1.252 . S
O25 Sm1 2.408 . S
O25 C10 1.272 . S
O26 Sm1 2.543 . S
O26 C11 1.261 . S
O27 Sm1 2.450 . S
O27 C11 1.242 . S
O28 Sm0 2.386 . S
O28 Sm1 2.681 . S
O28 C18 1.271 . S
O29 Sm1 2.464 . S
O29 C18 1.251 . S
O30 Sm1 2.396 . S
O30 C19 1.252 . S
O31 Sm0 2.408 . S
O31 C19 1.272 . S
H32 C4 0.930 . S
H33 C5 0.929 . S
H34 C7 0.930 . S
H35 C8 0.929 . S
H36 C13 0.930 . S
H37 C14 0.929 . S
H38 C16 0.930 . S
H39 C17 0.929 . S
Sm40 C42 2.846 . S
Sm40 O60 2.543 . S
Sm40 O61 2.450 . S
Sm40 O62 2.681 . S
Sm40 O63 2.464 . S
Sm40 O64 2.396 . S
Sm40 O68 2.386 . S
Sm40 O71 2.408 . S
Sm41 C51 2.846 . S
Sm41 O62 2.386 . S
Sm41 O65 2.408 . S
Sm41 O66 2.543 . S
Sm41 O67 2.450 . S
Sm41 O68 2.681 . S
Sm41 O69 2.464 . S
Sm41 O70 2.396 . S
C42 Sm40 2.846 . S
C42 C43 1.506 . S
C42 O60 1.261 . S
C42 O61 1.242 . S
C43 C42 1.506 . S
C43 C44 1.358 . S
C43 C48 1.382 . S
C44 C43 1.358 . S
C44 C45 1.385 . S
C44 H72 0.930 . S
C45 C44 1.385 . S
C45 C46 1.395 . S
C45 H73 0.929 . S
C46 C45 1.395 . S
C46 C47 1.335 . S
C47 C46 1.335 . S
C47 C48 1.398 . S
C47 H74 0.930 . S
C48 C43 1.382 . S
C48 C47 1.398 . S
C48 H75 0.929 . S
C49 O62 1.271 . S
C49 O63 1.251 . S
C50 O64 1.252 . S
C50 O65 1.272 . S
C51 Sm41 2.846 . S
C51 C52 1.506 . S
C51 O66 1.261 . S
C51 O67 1.242 . S
C52 C51 1.506 . S
C52 C53 1.358 . S
C52 C57 1.382 . S
C53 C52 1.358 . S
C53 C54 1.385 . S
C53 H76 0.930 . S
C54 C53 1.385 . S
C54 C55 1.395 . S
C54 H77 0.929 . S
C55 C54 1.395 . S
C55 C56 1.335 . S
C56 C55 1.335 . S
C56 C57 1.398 . S
C56 H78 0.930 . S
C57 C52 1.382 . S
C57 C56 1.398 . S
C57 H79 0.929 . S
C58 O68 1.271 . S
C58 O69 1.251 . S
C59 O70 1.252 . S
C59 O71 1.272 . S
O60 Sm40 2.543 . S
O60 C42 1.261 . S
O61 Sm40 2.450 . S
O61 C42 1.242 . S
O62 Sm40 2.681 . S
O62 Sm41 2.386 . S
O62 C49 1.271 . S
O63 Sm40 2.464 . S
O63 C49 1.251 . S
O64 Sm40 2.396 . S
O64 C50 1.252 . S
O65 Sm41 2.408 . S
O65 C50 1.272 . S
O66 Sm41 2.543 . S
O66 C51 1.261 . S
O67 Sm41 2.450 . S
O67 C51 1.242 . S
O68 Sm40 2.386 . S
O68 Sm41 2.681 . S
O68 C58 1.271 . S
O69 Sm41 2.464 . S
O69 C58 1.251 . S
O70 Sm41 2.396 . S
O70 C59 1.252 . S
O71 Sm40 2.408 . S
O71 C59 1.272 . S
H72 C44 0.930 . S
H73 C45 0.929 . S
H74 C47 0.930 . S
H75 C48 0.929 . S
H76 C53 0.930 . S
H77 C54 0.929 . S
H78 C56 0.930 . S
H79 C57 0.929 . S
Sm80 C82 2.846 . S
Sm80 O100 2.543 . S
Sm80 O101 2.450 . S
Sm80 O102 2.681 . S
Sm80 O103 2.464 . S
Sm80 O104 2.396 . S
Sm80 O108 2.386 . S
Sm80 O111 2.408 . S
Sm81 C91 2.846 . S
Sm81 O102 2.386 . S
Sm81 O105 2.408 . S
Sm81 O106 2.543 . S
Sm81 O107 2.450 . S
Sm81 O108 2.681 . S
Sm81 O109 2.464 . S
Sm81 O110 2.396 . S
C82 Sm80 2.846 . S
C82 C83 1.506 . S
C82 O100 1.261 . S
C82 O101 1.242 . S
C83 C82 1.506 . S
C83 C84 1.358 . S
C83 C88 1.382 . S
C84 C83 1.358 . S
C84 C85 1.385 . S
C84 H112 0.930 . S
C85 C84 1.385 . S
C85 C86 1.395 . S
C85 H113 0.929 . S
C86 C85 1.395 . S
C86 C87 1.335 . S
C87 C86 1.335 . S
C87 C88 1.398 . S
C87 H114 0.930 . S
C88 C83 1.382 . S
C88 C87 1.398 . S
C88 H115 0.929 . S
C89 O102 1.271 . S
C89 O103 1.251 . S
C90 O104 1.252 . S
C90 O105 1.272 . S
C91 Sm81 2.846 . S
C91 C92 1.506 . S
C91 O106 1.261 . S
C91 O107 1.242 . S
C92 C91 1.506 . S
C92 C93 1.358 . S
C92 C97 1.382 . S
C93 C92 1.358 . S
C93 C94 1.385 1_655 S
C93 H116 0.930 . S
C94 C93 1.385 1_455 S
C94 C95 1.395 . S
C94 H117 0.929 . S
C95 C94 1.395 . S
C95 C96 1.335 . S
C96 C95 1.335 . S
C96 C97 1.398 1_455 S
C96 H118 0.930 . S
C97 C92 1.382 . S
C97 C96 1.398 1_655 S
C97 H119 0.929 . S
C98 O108 1.271 . S
C98 O109 1.251 . S
C99 O110 1.252 . S
C99 O111 1.272 . S
O100 Sm80 2.543 . S
O100 C82 1.261 . S
O101 Sm80 2.450 . S
O101 C82 1.242 . S
O102 Sm80 2.681 . S
O102 Sm81 2.386 . S
O102 C89 1.271 . S
O103 Sm80 2.464 . S
O103 C89 1.251 . S
O104 Sm80 2.396 . S
O104 C90 1.252 . S
O105 Sm81 2.408 . S
O105 C90 1.272 . S
O106 Sm81 2.543 . S
O106 C91 1.261 . S
O107 Sm81 2.450 . S
O107 C91 1.242 . S
O108 Sm80 2.386 . S
O108 Sm81 2.681 . S
O108 C98 1.271 . S
O109 Sm81 2.464 . S
O109 C98 1.251 . S
O110 Sm81 2.396 . S
O110 C99 1.252 . S
O111 Sm80 2.408 . S
O111 C99 1.272 . S
H112 C84 0.930 . S
H113 C85 0.929 . S
H114 C87 0.930 . S
H115 C88 0.929 . S
H116 C93 0.930 . S
H117 C94 0.929 . S
H118 C96 0.930 . S
H119 C97 0.929 . S
Sm120 C122 2.846 . S
Sm120 O140 2.543 . S
Sm120 O141 2.450 . S
Sm120 O142 2.681 . S
Sm120 O143 2.464 . S
Sm120 O144 2.396 . S
Sm120 O148 2.386 . S
Sm120 O151 2.408 . S
Sm121 C131 2.846 . S
Sm121 O142 2.386 . S
Sm121 O145 2.408 . S
Sm121 O146 2.543 . S
Sm121 O147 2.450 . S
Sm121 O148 2.681 . S
Sm121 O149 2.464 . S
Sm121 O150 2.396 . S
C122 Sm120 2.846 . S
C122 C123 1.506 . S
C122 O140 1.261 . S
C122 O141 1.242 . S
C123 C122 1.506 . S
C123 C124 1.358 . S
C123 C128 1.382 . S
C124 C123 1.358 . S
C124 C125 1.385 1_545 S
C124 H152 0.930 . S
C125 C124 1.385 1_565 S
C125 C126 1.395 . S
C125 H153 0.929 . S
C126 C125 1.395 . S
C126 C127 1.335 . S
C127 C126 1.335 . S
C127 C128 1.398 1_565 S
C127 H154 0.930 . S
C128 C123 1.382 . S
C128 C127 1.398 1_545 S
C128 H155 0.929 . S
C129 O142 1.271 . S
C129 O143 1.251 . S
C130 O144 1.252 . S
C130 O145 1.272 . S
C131 Sm121 2.846 . S
C131 C132 1.506 . S
C131 O146 1.261 . S
C131 O147 1.242 . S
C132 C131 1.506 . S
C132 C133 1.358 . S
C132 C137 1.382 . S
C133 C132 1.358 . S
C133 C134 1.385 . S
C133 H156 0.930 . S
C134 C133 1.385 . S
C134 C135 1.395 . S
C134 H157 0.929 . S
C135 C134 1.395 . S
C135 C136 1.335 . S
C136 C135 1.335 . S
C136 C137 1.398 . S
C136 H158 0.930 . S
C137 C132 1.382 . S
C137 C136 1.398 . S
C137 H159 0.929 . S
C138 O148 1.271 . S
C138 O149 1.251 . S
C139 O150 1.252 . S
C139 O151 1.272 . S
O140 Sm120 2.543 . S
O140 C122 1.261 . S
O141 Sm120 2.450 . S
O141 C122 1.242 . S
O142 Sm120 2.681 . S
O142 Sm121 2.386 . S
O142 C129 1.271 . S
O143 Sm120 2.464 . S
O143 C129 1.251 . S
O144 Sm120 2.396 . S
O144 C130 1.252 . S
O145 Sm121 2.408 . S
O145 C130 1.272 . S
O146 Sm121 2.543 . S
O146 C131 1.261 . S
O147 Sm121 2.450 . S
O147 C131 1.242 . S
O148 Sm120 2.386 . S
O148 Sm121 2.681 . S
O148 C138 1.271 . S
O149 Sm121 2.464 . S
O149 C138 1.251 . S
O150 Sm121 2.396 . S
O150 C139 1.252 . S
O151 Sm120 2.408 . S
O151 C139 1.272 . S
H152 C124 0.930 . S
H153 C125 0.929 . S
H154 C127 0.930 . S
H155 C128 0.929 . S
H156 C133 0.930 . S
H157 C134 0.929 . S
H158 C136 0.930 . S
H159 C137 0.929 . S
Sm160 C162 2.846 . S
Sm160 O180 2.543 . S
Sm160 O181 2.450 . S
Sm160 O182 2.681 . S
Sm160 O183 2.464 . S
Sm160 O184 2.396 . S
Sm160 O188 2.386 . S
Sm160 O191 2.408 . S
Sm161 C171 2.846 . S
Sm161 O182 2.386 . S
Sm161 O185 2.408 . S
Sm161 O186 2.543 . S
Sm161 O187 2.450 . S
Sm161 O188 2.681 . S
Sm161 O189 2.464 . S
Sm161 O190 2.396 . S
C162 Sm160 2.846 . S
C162 C163 1.506 . S
C162 O180 1.261 . S
C162 O181 1.242 . S
C163 C162 1.506 . S
C163 C164 1.358 . S
C163 C168 1.382 . S
C164 C163 1.358 . S
C164 C165 1.385 . S
C164 H192 0.930 . S
C165 C164 1.385 . S
C165 C166 1.395 . S
C165 H193 0.929 . S
C166 C165 1.395 . S
C166 C167 1.335 . S
C167 C166 1.335 . S
C167 C168 1.398 . S
C167 H194 0.930 . S
C168 C163 1.382 . S
C168 C167 1.398 . S
C168 H195 0.929 . S
C169 O182 1.271 . S
C169 O183 1.251 . S
C170 O184 1.252 . S
C170 O185 1.272 . S
C171 Sm161 2.846 . S
C171 C172 1.506 . S
C171 O186 1.261 . S
C171 O187 1.242 . S
C172 C171 1.506 . S
C172 C173 1.358 . S
C172 C177 1.382 . S
C173 C172 1.358 . S
C173 C174 1.385 . S
C173 H196 0.930 . S
C174 C173 1.385 . S
C174 C175 1.395 . S
C174 H197 0.929 . S
C175 C174 1.395 . S
C175 C176 1.335 . S
C176 C175 1.335 . S
C176 C177 1.398 . S
C176 H198 0.930 . S
C177 C172 1.382 . S
C177 C176 1.398 . S
C177 H199 0.929 . S
C178 O188 1.271 . S
C178 O189 1.251 . S
C179 O190 1.252 . S
C179 O191 1.272 . S
O180 Sm160 2.543 . S
O180 C162 1.261 . S
O181 Sm160 2.450 . S
O181 C162 1.242 . S
O182 Sm160 2.681 . S
O182 Sm161 2.386 . S
O182 C169 1.271 . S
O183 Sm160 2.464 . S
O183 C169 1.251 . S
O184 Sm160 2.396 . S
O184 C170 1.252 . S
O185 Sm161 2.408 . S
O185 C170 1.272 . S
O186 Sm161 2.543 . S
O186 C171 1.261 . S
O187 Sm161 2.450 . S
O187 C171 1.242 . S
O188 Sm160 2.386 . S
O188 Sm161 2.681 . S
O188 C178 1.271 . S
O189 Sm161 2.464 . S
O189 C178 1.251 . S
O190 Sm161 2.396 . S
O190 C179 1.252 . S
O191 Sm160 2.408 . S
O191 C179 1.272 . S
H192 C164 0.930 . S
H193 C165 0.929 . S
H194 C167 0.930 . S
H195 C168 0.929 . S
H196 C173 0.930 . S
H197 C174 0.929 . S
H198 C176 0.930 . S
H199 C177 0.929 . S
Sm200 C202 2.846 . S
Sm200 O220 2.543 . S
Sm200 O221 2.450 . S
Sm200 O222 2.681 . S
Sm200 O223 2.464 . S
Sm200 O224 2.396 . S
Sm200 O228 2.386 . S
Sm200 O231 2.408 . S
Sm201 C211 2.846 . S
Sm201 O222 2.386 . S
Sm201 O225 2.408 . S
Sm201 O226 2.543 . S
Sm201 O227 2.450 . S
Sm201 O228 2.681 . S
Sm201 O229 2.464 . S
Sm201 O230 2.396 . S
C202 Sm200 2.846 . S
C202 C203 1.506 . S
C202 O220 1.261 . S
C202 O221 1.242 . S
C203 C202 1.506 . S
C203 C204 1.358 . S
C203 C208 1.382 . S
C204 C203 1.358 . S
C204 C205 1.385 1_655 S
C204 H232 0.930 . S
C205 C204 1.385 1_455 S
C205 C206 1.395 . S
C205 H233 0.929 . S
C206 C205 1.395 . S
C206 C207 1.335 . S
C207 C206 1.335 . S
C207 C208 1.398 1_455 S
C207 H234 0.930 . S
C208 C203 1.382 . S
C208 C207 1.398 1_655 S
C208 H235 0.929 . S
C209 O222 1.271 . S
C209 O223 1.251 . S
C210 O224 1.252 . S
C210 O225 1.272 . S
C211 Sm201 2.846 . S
C211 C212 1.506 . S
C211 O226 1.261 . S
C211 O227 1.242 . S
C212 C211 1.506 . S
C212 C213 1.358 . S
C212 C217 1.382 . S
C213 C212 1.358 . S
C213 C214 1.385 . S
C213 H236 0.930 . S
C214 C213 1.385 . S
C214 C215 1.395 . S
C214 H237 0.929 . S
C215 C214 1.395 . S
C215 C216 1.335 . S
C216 C215 1.335 . S
C216 C217 1.398 . S
C216 H238 0.930 . S
C217 C212 1.382 . S
C217 C216 1.398 . S
C217 H239 0.929 . S
C218 O228 1.271 . S
C218 O229 1.251 . S
C219 O230 1.252 . S
C219 O231 1.272 . S
O220 Sm200 2.543 . S
O220 C202 1.261 . S
O221 Sm200 2.450 . S
O221 C202 1.242 . S
O222 Sm200 2.681 . S
O222 Sm201 2.386 . S
O222 C209 1.271 . S
O223 Sm200 2.464 . S
O223 C209 1.251 . S
O224 Sm200 2.396 . S
O224 C210 1.252 . S
O225 Sm201 2.408 . S
O225 C210 1.272 . S
O226 Sm201 2.543 . S
O226 C211 1.261 . S
O227 Sm201 2.450 . S
O227 C211 1.242 . S
O228 Sm200 2.386 . S
O228 Sm201 2.681 . S
O228 C218 1.271 . S
O229 Sm201 2.464 . S
O229 C218 1.251 . S
O230 Sm201 2.396 . S
O230 C219 1.252 . S
O231 Sm200 2.408 . S
O231 C219 1.272 . S
H232 C204 0.930 . S
H233 C205 0.929 . S
H234 C207 0.930 . S
H235 C208 0.929 . S
H236 C213 0.930 . S
H237 C214 0.929 . S
H238 C216 0.930 . S
H239 C217 0.929 . S
Sm240 C242 2.846 . S
Sm240 O260 2.543 . S
Sm240 O261 2.450 . S
Sm240 O262 2.681 . S
Sm240 O263 2.464 . S
Sm240 O264 2.396 . S
Sm240 O268 2.386 . S
Sm240 O271 2.408 . S
Sm241 C251 2.846 . S
Sm241 O262 2.386 . S
Sm241 O265 2.408 . S
Sm241 O266 2.543 . S
Sm241 O267 2.450 . S
Sm241 O268 2.681 . S
Sm241 O269 2.464 . S
Sm241 O270 2.396 . S
C242 Sm240 2.846 . S
C242 C243 1.506 . S
C242 O260 1.261 . S
C242 O261 1.242 . S
C243 C242 1.506 . S
C243 C244 1.358 . S
C243 C248 1.382 . S
C244 C243 1.358 . S
C244 C245 1.385 1_455 S
C244 H272 0.930 . S
C245 C244 1.385 1_655 S
C245 C246 1.395 . S
C245 H273 0.929 . S
C246 C245 1.395 . S
C246 C247 1.335 . S
C247 C246 1.335 . S
C247 C248 1.398 1_655 S
C247 H274 0.930 . S
C248 C243 1.382 . S
C248 C247 1.398 1_455 S
C248 H275 0.929 . S
C249 O262 1.271 . S
C249 O263 1.251 . S
C250 O264 1.252 . S
C250 O265 1.272 . S
C251 Sm241 2.846 . S
C251 C252 1.506 . S
C251 O266 1.261 . S
C251 O267 1.242 . S
C252 C251 1.506 . S
C252 C253 1.358 . S
C252 C257 1.382 . S
C253 C252 1.358 . S
C253 C254 1.385 . S
C253 H276 0.930 . S
C254 C253 1.385 . S
C254 C255 1.395 . S
C254 H277 0.929 . S
C255 C254 1.395 . S
C255 C256 1.335 . S
C256 C255 1.335 . S
C256 C257 1.398 . S
C256 H278 0.930 . S
C257 C252 1.382 . S
C257 C256 1.398 . S
C257 H279 0.929 . S
C258 O268 1.271 . S
C258 O269 1.251 . S
C259 O270 1.252 . S
C259 O271 1.272 . S
O260 Sm240 2.543 . S
O260 C242 1.261 . S
O261 Sm240 2.450 . S
O261 C242 1.242 . S
O262 Sm240 2.681 . S
O262 Sm241 2.386 . S
O262 C249 1.271 . S
O263 Sm240 2.464 . S
O263 C249 1.251 . S
O264 Sm240 2.396 . S
O264 C250 1.252 . S
O265 Sm241 2.408 . S
O265 C250 1.272 . S
O266 Sm241 2.543 . S
O266 C251 1.261 . S
O267 Sm241 2.450 . S
O267 C251 1.242 . S
O268 Sm240 2.386 . S
O268 Sm241 2.681 . S
O268 C258 1.271 . S
O269 Sm241 2.464 . S
O269 C258 1.251 . S
O270 Sm241 2.396 . S
O270 C259 1.252 . S
O271 Sm240 2.408 . S
O271 C259 1.272 . S
H272 C244 0.930 . S
H273 C245 0.929 . S
H274 C247 0.930 . S
H275 C248 0.929 . S
H276 C253 0.930 . S
H277 C254 0.929 . S
H278 C256 0.930 . S
H279 C257 0.929 . S
Sm280 C282 2.846 . S
Sm280 O300 2.543 . S
Sm280 O301 2.450 . S
Sm280 O302 2.681 . S
Sm280 O303 2.464 . S
Sm280 O304 2.396 . S
Sm280 O308 2.386 . S
Sm280 O311 2.408 . S
Sm281 C291 2.846 . S
Sm281 O302 2.386 . S
Sm281 O305 2.408 . S
Sm281 O306 2.543 . S
Sm281 O307 2.450 . S
Sm281 O308 2.681 . S
Sm281 O309 2.464 . S
Sm281 O310 2.396 . S
C282 Sm280 2.846 . S
C282 C283 1.506 . S
C282 O300 1.261 . S
C282 O301 1.242 . S
C283 C282 1.506 . S
C283 C284 1.358 . S
C283 C288 1.382 . S
C284 C283 1.358 . S
C284 C285 1.385 . S
C284 H312 0.930 . S
C285 C284 1.385 . S
C285 C286 1.395 . S
C285 H313 0.929 . S
C286 C285 1.395 . S
C286 C287 1.335 . S
C287 C286 1.335 . S
C287 C288 1.398 . S
C287 H314 0.930 . S
C288 C283 1.382 . S
C288 C287 1.398 . S
C288 H315 0.929 . S
C289 O302 1.271 . S
C289 O303 1.251 . S
C290 O304 1.252 . S
C290 O305 1.272 . S
C291 Sm281 2.846 . S
C291 C292 1.506 . S
C291 O306 1.261 . S
C291 O307 1.242 . S
C292 C291 1.506 . S
C292 C293 1.358 . S
C292 C297 1.382 . S
C293 C292 1.358 . S
C293 C294 1.385 1_565 S
C293 H316 0.930 . S
C294 C293 1.385 1_545 S
C294 C295 1.395 . S
C294 H317 0.929 . S
C295 C294 1.395 . S
C295 C296 1.335 . S
C296 C295 1.335 . S
C296 C297 1.398 1_545 S
C296 H318 0.930 . S
C297 C292 1.382 . S
C297 C296 1.398 1_565 S
C297 H319 0.929 . S
C298 O308 1.271 . S
C298 O309 1.251 . S
C299 O310 1.252 . S
C299 O311 1.272 . S
O300 Sm280 2.543 . S
O300 C282 1.261 . S
O301 Sm280 2.450 . S
O301 C282 1.242 . S
O302 Sm280 2.681 . S
O302 Sm281 2.386 . S
O302 C289 1.271 . S
O303 Sm280 2.464 . S
O303 C289 1.251 . S
O304 Sm280 2.396 . S
O304 C290 1.252 . S
O305 Sm281 2.408 . S
O305 C290 1.272 . S
O306 Sm281 2.543 . S
O306 C291 1.261 . S
O307 Sm281 2.450 . S
O307 C291 1.242 . S
O308 Sm280 2.386 . S
O308 Sm281 2.681 . S
O308 C298 1.271 . S
O309 Sm281 2.464 . S
O309 C298 1.251 . S
O310 Sm281 2.396 . S
O310 C299 1.252 . S
O311 Sm280 2.408 . S
O311 C299 1.272 . S
H312 C284 0.930 . S
H313 C285 0.929 . S
H314 C287 0.930 . S
H315 C288 0.929 . S
H316 C293 0.930 . S
H317 C294 0.929 . S
H318 C296 0.930 . S
H319 C297 0.929 . S
Sm320 C322 2.846 . S
Sm320 O340 2.543 . S
Sm320 O341 2.450 . S
Sm320 O342 2.681 . S
Sm320 O343 2.464 . S
Sm320 O344 2.396 . S
Sm320 O348 2.386 . S
Sm320 O351 2.408 . S
Sm321 C331 2.846 . S
Sm321 O342 2.386 . S
Sm321 O345 2.408 . S
Sm321 O346 2.543 . S
Sm321 O347 2.450 . S
Sm321 O348 2.681 . S
Sm321 O349 2.464 . S
Sm321 O350 2.396 . S
C322 Sm320 2.846 . S
C322 C323 1.506 . S
C322 O340 1.261 . S
C322 O341 1.242 . S
C323 C322 1.506 . S
C323 C324 1.358 . S
C323 C328 1.382 . S
C324 C323 1.358 . S
C324 C325 1.385 . S
C324 H352 0.930 . S
C325 C324 1.385 . S
C325 C326 1.395 . S
C325 H353 0.929 . S
C326 C325 1.395 . S
C326 C327 1.335 . S
C327 C326 1.335 . S
C327 C328 1.398 . S
C327 H354 0.930 . S
C328 C323 1.382 . S
C328 C327 1.398 . S
C328 H355 0.929 . S
C329 O342 1.271 . S
C329 O343 1.251 . S
C330 O344 1.252 . S
C330 O345 1.272 . S
C331 Sm321 2.846 . S
C331 C332 1.506 . S
C331 O346 1.261 . S
C331 O347 1.242 . S
C332 C331 1.506 . S
C332 C333 1.358 . S
C332 C337 1.382 . S
C333 C332 1.358 . S
C333 C334 1.385 . S
C333 H356 0.930 . S
C334 C333 1.385 . S
C334 C335 1.395 . S
C334 H357 0.929 . S
C335 C334 1.395 . S
C335 C336 1.335 . S
C336 C335 1.335 . S
C336 C337 1.398 . S
C336 H358 0.930 . S
C337 C332 1.382 . S
C337 C336 1.398 . S
C337 H359 0.929 . S
C338 O348 1.271 . S
C338 O349 1.251 . S
C339 O350 1.252 . S
C339 O351 1.272 . S
O340 Sm320 2.543 . S
O340 C322 1.261 . S
O341 Sm320 2.450 . S
O341 C322 1.242 . S
O342 Sm320 2.681 . S
O342 Sm321 2.386 . S
O342 C329 1.271 . S
O343 Sm320 2.464 . S
O343 C329 1.251 . S
O344 Sm320 2.396 . S
O344 C330 1.252 . S
O345 Sm321 2.408 . S
O345 C330 1.272 . S
O346 Sm321 2.543 . S
O346 C331 1.261 . S
O347 Sm321 2.450 . S
O347 C331 1.242 . S
O348 Sm320 2.386 . S
O348 Sm321 2.681 . S
O348 C338 1.271 . S
O349 Sm321 2.464 . S
O349 C338 1.251 . S
O350 Sm321 2.396 . S
O350 C339 1.252 . S
O351 Sm320 2.408 . S
O351 C339 1.272 . S
H352 C324 0.930 . S
H353 C325 0.929 . S
H354 C327 0.930 . S
H355 C328 0.929 . S
H356 C333 0.930 . S
H357 C334 0.929 . S
H358 C336 0.930 . S
H359 C337 0.929 . S
Sm360 C362 2.846 . S
Sm360 O380 2.543 . S
Sm360 O381 2.450 . S
Sm360 O382 2.681 . S
Sm360 O383 2.464 . S
Sm360 O384 2.396 . S
Sm360 O388 2.386 . S
Sm360 O391 2.408 . S
Sm361 C371 2.846 . S
Sm361 O382 2.386 . S
Sm361 O385 2.408 . S
Sm361 O386 2.543 . S
Sm361 O387 2.450 . S
Sm361 O388 2.681 . S
Sm361 O389 2.464 . S
Sm361 O390 2.396 . S
C362 Sm360 2.846 . S
C362 C363 1.506 . S
C362 O380 1.261 . S
C362 O381 1.242 . S
C363 C362 1.506 . S
C363 C364 1.358 . S
C363 C368 1.382 . S
C364 C363 1.358 . S
C364 C365 1.385 . S
C364 H392 0.930 . S
C365 C364 1.385 . S
C365 C366 1.395 . S
C365 H393 0.929 . S
C366 C365 1.395 . S
C366 C367 1.335 . S
C367 C366 1.335 . S
C367 C368 1.398 . S
C367 H394 0.930 . S
C368 C363 1.382 . S
C368 C367 1.398 . S
C368 H395 0.929 . S
C369 O382 1.271 . S
C369 O383 1.251 . S
C370 O384 1.252 . S
C370 O385 1.272 . S
C371 Sm361 2.846 . S
C371 C372 1.506 . S
C371 O386 1.261 . S
C371 O387 1.242 . S
C372 C371 1.506 . S
C372 C373 1.358 . S
C372 C377 1.382 . S
C373 C372 1.358 . S
C373 C374 1.385 1_455 S
C373 H396 0.930 . S
C374 C373 1.385 1_655 S
C374 C375 1.395 . S
C374 H397 0.929 . S
C375 C374 1.395 . S
C375 C376 1.335 . S
C376 C375 1.335 . S
C376 C377 1.398 1_655 S
C376 H398 0.930 . S
C377 C372 1.382 . S
C377 C376 1.398 1_455 S
C377 H399 0.929 . S
C378 O388 1.271 . S
C378 O389 1.251 . S
C379 O390 1.252 . S
C379 O391 1.272 . S
O380 Sm360 2.543 . S
O380 C362 1.261 . S
O381 Sm360 2.450 . S
O381 C362 1.242 . S
O382 Sm360 2.681 . S
O382 Sm361 2.386 . S
O382 C369 1.271 . S
O383 Sm360 2.464 . S
O383 C369 1.251 . S
O384 Sm360 2.396 . S
O384 C370 1.252 . S
O385 Sm361 2.408 . S
O385 C370 1.272 . S
O386 Sm361 2.543 . S
O386 C371 1.261 . S
O387 Sm361 2.450 . S
O387 C371 1.242 . S
O388 Sm360 2.386 . S
O388 Sm361 2.681 . S
O388 C378 1.271 . S
O389 Sm361 2.464 . S
O389 C378 1.251 . S
O390 Sm361 2.396 . S
O390 C379 1.252 . S
O391 Sm360 2.408 . S
O391 C379 1.272 . S
H392 C364 0.930 . S
H393 C365 0.929 . S
H394 C367 0.930 . S
H395 C368 0.929 . S
H396 C373 0.930 . S
H397 C374 0.929 . S
H398 C376 0.930 . S
H399 C377 0.929 . S
Sm400 C402 2.846 . S
Sm400 O420 2.543 . S
Sm400 O421 2.450 . S
Sm400 O422 2.681 . S
Sm400 O423 2.464 . S
Sm400 O424 2.396 . S
Sm400 O428 2.386 . S
Sm400 O431 2.408 . S
Sm401 C411 2.846 . S
Sm401 O422 2.386 . S
Sm401 O425 2.408 . S
Sm401 O426 2.543 . S
Sm401 O427 2.450 . S
Sm401 O428 2.681 . S
Sm401 O429 2.464 . S
Sm401 O430 2.396 . S
C402 Sm400 2.846 . S
C402 C403 1.506 . S
C402 O420 1.261 . S
C402 O421 1.242 . S
C403 C402 1.506 . S
C403 C404 1.358 . S
C403 C408 1.382 . S
C404 C403 1.358 . S
C404 C405 1.385 1_565 S
C404 H432 0.930 . S
C405 C404 1.385 1_545 S
C405 C406 1.395 . S
C405 H433 0.929 . S
C406 C405 1.395 . S
C406 C407 1.335 . S
C407 C406 1.335 . S
C407 C408 1.398 1_545 S
C407 H434 0.930 . S
C408 C403 1.382 . S
C408 C407 1.398 1_565 S
C408 H435 0.929 . S
C409 O422 1.271 . S
C409 O423 1.251 . S
C410 O424 1.252 . S
C410 O425 1.272 . S
C411 Sm401 2.846 . S
C411 C412 1.506 . S
C411 O426 1.261 . S
C411 O427 1.242 . S
C412 C411 1.506 . S
C412 C413 1.358 . S
C412 C417 1.382 . S
C413 C412 1.358 . S
C413 C414 1.385 . S
C413 H436 0.930 . S
C414 C413 1.385 . S
C414 C415 1.395 . S
C414 H437 0.929 . S
C415 C414 1.395 . S
C415 C416 1.335 . S
C416 C415 1.335 . S
C416 C417 1.398 . S
C416 H438 0.930 . S
C417 C412 1.382 . S
C417 C416 1.398 . S
C417 H439 0.929 . S
C418 O428 1.271 . S
C418 O429 1.251 . S
C419 O430 1.252 . S
C419 O431 1.272 . S
O420 Sm400 2.543 . S
O420 C402 1.261 . S
O421 Sm400 2.450 . S
O421 C402 1.242 . S
O422 Sm400 2.681 . S
O422 Sm401 2.386 . S
O422 C409 1.271 . S
O423 Sm400 2.464 . S
O423 C409 1.251 . S
O424 Sm400 2.396 . S
O424 C410 1.252 . S
O425 Sm401 2.408 . S
O425 C410 1.272 . S
O426 Sm401 2.543 . S
O426 C411 1.261 . S
O427 Sm401 2.450 . S
O427 C411 1.242 . S
O428 Sm400 2.386 . S
O428 Sm401 2.681 . S
O428 C418 1.271 . S
O429 Sm401 2.464 . S
O429 C418 1.251 . S
O430 Sm401 2.396 . S
O430 C419 1.252 . S
O431 Sm400 2.408 . S
O431 C419 1.272 . S
H432 C404 0.930 . S
H433 C405 0.929 . S
H434 C407 0.930 . S
H435 C408 0.929 . S
H436 C413 0.930 . S
H437 C414 0.929 . S
H438 C416 0.930 . S
H439 C417 0.929 . S
Sm440 C442 2.846 . S
Sm440 O460 2.543 . S
Sm440 O461 2.450 . S
Sm440 O462 2.681 . S
Sm440 O463 2.464 . S
Sm440 O464 2.396 . S
Sm440 O468 2.386 . S
Sm440 O471 2.408 . S
Sm441 C451 2.846 . S
Sm441 O462 2.386 . S
Sm441 O465 2.408 . S
Sm441 O466 2.543 . S
Sm441 O467 2.450 . S
Sm441 O468 2.681 . S
Sm441 O469 2.464 . S
Sm441 O470 2.396 . S
C442 Sm440 2.846 . S
C442 C443 1.506 . S
C442 O460 1.261 . S
C442 O461 1.242 . S
C443 C442 1.506 . S
C443 C444 1.358 . S
C443 C448 1.382 . S
C444 C443 1.358 . S
C444 C445 1.385 . S
C444 H472 0.930 . S
C445 C444 1.385 . S
C445 C446 1.395 . S
C445 H473 0.929 . S
C446 C445 1.395 . S
C446 C447 1.335 . S
C447 C446 1.335 . S
C447 C448 1.398 . S
C447 H474 0.930 . S
C448 C443 1.382 . S
C448 C447 1.398 . S
C448 H475 0.929 . S
C449 O462 1.271 . S
C449 O463 1.251 . S
C450 O464 1.252 . S
C450 O465 1.272 . S
C451 Sm441 2.846 . S
C451 C452 1.506 . S
C451 O466 1.261 . S
C451 O467 1.242 . S
C452 C451 1.506 . S
C452 C453 1.358 . S
C452 C457 1.382 . S
C453 C452 1.358 . S
C453 C454 1.385 . S
C453 H476 0.930 . S
C454 C453 1.385 . S
C454 C455 1.395 . S
C454 H477 0.929 . S
C455 C454 1.395 . S
C455 C456 1.335 . S
C456 C455 1.335 . S
C456 C457 1.398 . S
C456 H478 0.930 . S
C457 C452 1.382 . S
C457 C456 1.398 . S
C457 H479 0.929 . S
C458 O468 1.271 . S
C458 O469 1.251 . S
C459 O470 1.252 . S
C459 O471 1.272 . S
O460 Sm440 2.543 . S
O460 C442 1.261 . S
O461 Sm440 2.450 . S
O461 C442 1.242 . S
O462 Sm440 2.681 . S
O462 Sm441 2.386 . S
O462 C449 1.271 . S
O463 Sm440 2.464 . S
O463 C449 1.251 . S
O464 Sm440 2.396 . S
O464 C450 1.252 . S
O465 Sm441 2.408 . S
O465 C450 1.272 . S
O466 Sm441 2.543 . S
O466 C451 1.261 . S
O467 Sm441 2.450 . S
O467 C451 1.242 . S
O468 Sm440 2.386 . S
O468 Sm441 2.681 . S
O468 C458 1.271 . S
O469 Sm441 2.464 . S
O469 C458 1.251 . S
O470 Sm441 2.396 . S
O470 C459 1.252 . S
O471 Sm440 2.408 . S
O471 C459 1.272 . S
H472 C444 0.930 . S
H473 C445 0.929 . S
H474 C447 0.930 . S
H475 C448 0.929 . S
H476 C453 0.930 . S
H477 C454 0.929 . S
H478 C456 0.930 . S
H479 C457 0.929 . S
C480 C481 1.349 . S
C480 C482 1.327 . S
C480 H505 0.950 . S
C481 C480 1.349 . S
C481 C497 1.349 . S
C482 C480 1.327 . S
C482 C501 1.429 . S
C482 H506 0.950 . S
C483 C500 1.574 . S
C483 C502 1.368 . S
C483 H507 0.949 . S
H484 C488 0.949 . S
C485 C486 1.349 . S
C485 C487 1.327 . S
C485 H508 0.950 . S
C486 C485 1.349 . S
C486 C498 1.349 . S
C487 C485 1.327 . S
C487 C503 1.429 . S
C487 H509 0.950 . S
C488 H484 0.949 . S
C488 C496 1.574 . S
C488 C504 1.368 . S
H489 C497 0.950 . S
H490 C495 0.950 . S
H491 C496 0.949 . S
H492 C498 0.950 . S
H493 C499 0.950 . S
H494 C500 0.949 . S
C495 H490 0.950 . S
C495 C497 1.327 . S
C495 C501 1.429 . S
C496 C488 1.574 . S
C496 H491 0.949 . S
C496 C502 1.368 . S
C497 C481 1.349 . S
C497 H489 0.950 . S
C497 C495 1.327 . S
C498 C486 1.349 . S
C498 H492 0.950 . S
C498 C499 1.327 . S
C499 H493 0.950 . S
C499 C498 1.327 . S
C499 C503 1.429 . S
C500 C483 1.574 . S
C500 H494 0.949 . S
C500 C504 1.368 . S
C501 C482 1.429 . S
C501 C495 1.429 . S
C501 C502 1.523 . S
C502 C483 1.368 . S
C502 C496 1.368 . S
C502 C501 1.523 . S
C503 C487 1.429 . S
C503 C499 1.429 . S
C503 C504 1.523 . S
C504 C488 1.368 . S
C504 C500 1.368 . S
C504 C503 1.523 . S
H505 C480 0.950 . S
H506 C482 0.950 . S
H507 C483 0.949 . S
H508 C485 0.950 . S
H509 C487 0.950 . S
C510 C511 1.349 . S
C510 C512 1.327 . S
C510 H535 0.950 . S
C511 C510 1.349 . S
C511 C527 1.349 . S
C512 C510 1.327 . S
C512 C531 1.429 . S
C512 H536 0.950 . S
C513 C530 1.574 1_455 S
C513 C532 1.368 . S
C513 H537 0.949 . S
H514 C518 0.949 . S
C515 C516 1.349 . S
C515 C517 1.327 . S
C515 H538 0.950 . S
C516 C515 1.349 . S
C516 C528 1.349 . S
C517 C515 1.327 . S
C517 C533 1.429 . S
C517 H539 0.950 . S
C518 H514 0.949 . S
C518 C526 1.574 1_655 S
C518 C534 1.368 . S
H519 C527 0.950 . S
H520 C525 0.950 . S
H521 C526 0.949 . S
H522 C528 0.950 . S
H523 C529 0.950 . S
H524 C530 0.949 . S
C525 H520 0.950 . S
C525 C527 1.327 . S
C525 C531 1.429 . S
C526 C518 1.574 1_455 S
C526 H521 0.949 . S
C526 C532 1.368 . S
C527 C511 1.349 . S
C527 H519 0.950 . S
C527 C525 1.327 . S
C528 C516 1.349 . S
C528 H522 0.950 . S
C528 C529 1.327 . S
C529 H523 0.950 . S
C529 C528 1.327 . S
C529 C533 1.429 . S
C530 C513 1.574 1_655 S
C530 H524 0.949 . S
C530 C534 1.368 . S
C531 C512 1.429 . S
C531 C525 1.429 . S
C531 C532 1.523 . S
C532 C513 1.368 . S
C532 C526 1.368 . S
C532 C531 1.523 . S
C533 C517 1.429 . S
C533 C529 1.429 . S
C533 C534 1.523 . S
C534 C518 1.368 . S
C534 C530 1.368 . S
C534 C533 1.523 . S
H535 C510 0.950 . S
H536 C512 0.950 . S
H537 C513 0.949 . S
H538 C515 0.950 . S
H539 C517 0.950 . S
C540 C541 1.349 . S
C540 C542 1.327 . S
C540 H565 0.950 . S
C541 C540 1.349 . S
C541 C557 1.349 . S
C542 C540 1.327 . S
C542 C561 1.429 . S
C542 H566 0.950 . S
C543 C560 1.574 1_545 S
C543 C562 1.368 . S
C543 H567 0.949 . S
H544 C548 0.949 . S
C545 C546 1.349 . S
C545 C547 1.327 . S
C545 H568 0.950 . S
C546 C545 1.349 . S
C546 C558 1.349 . S
C547 C545 1.327 . S
C547 C563 1.429 . S
C547 H569 0.950 . S
C548 H544 0.949 . S
C548 C556 1.574 1_565 S
C548 C564 1.368 . S
H549 C557 0.950 . S
H550 C555 0.950 . S
H551 C556 0.949 . S
H552 C558 0.950 . S
H553 C559 0.950 . S
H554 C560 0.949 . S
C555 H550 0.950 . S
C555 C557 1.327 . S
C555 C561 1.429 . S
C556 C548 1.574 1_545 S
C556 H551 0.949 . S
C556 C562 1.368 . S
C557 C541 1.349 . S
C557 H549 0.950 . S
C557 C555 1.327 . S
C558 C546 1.349 . S
C558 H552 0.950 . S
C558 C559 1.327 . S
C559 H553 0.950 . S
C559 C558 1.327 . S
C559 C563 1.429 . S
C560 C543 1.574 1_565 S
C560 H554 0.949 . S
C560 C564 1.368 . S
C561 C542 1.429 . S
C561 C555 1.429 . S
C561 C562 1.523 . S
C562 C543 1.368 . S
C562 C556 1.368 . S
C562 C561 1.523 . S
C563 C547 1.429 . S
C563 C559 1.429 . S
C563 C564 1.523 . S
C564 C548 1.368 . S
C564 C560 1.368 . S
C564 C563 1.523 . S
H565 C540 0.950 . S
H566 C542 0.950 . S
H567 C543 0.949 . S
H568 C545 0.950 . S
H569 C547 0.950 . S
C570 C571 1.349 . S
C570 C572 1.327 . S
C570 H595 0.950 . S
C571 C570 1.349 . S
C571 C587 1.349 . S
C572 C570 1.327 . S
C572 C591 1.429 . S
C572 H596 0.950 . S
C573 C590 1.574 . S
C573 C592 1.368 . S
C573 H597 0.949 . S
H574 C578 0.949 . S
C575 C576 1.349 . S
C575 C577 1.327 . S
C575 H598 0.950 . S
C576 C575 1.349 . S
C576 C588 1.349 . S
C577 C575 1.327 . S
C577 C593 1.429 . S
C577 H599 0.950 . S
C578 H574 0.949 . S
C578 C586 1.574 . S
C578 C594 1.368 . S
H579 C587 0.950 . S
H580 C585 0.950 . S
H581 C586 0.949 . S
H582 C588 0.950 . S
H583 C589 0.950 . S
H584 C590 0.949 . S
C585 H580 0.950 . S
C585 C587 1.327 . S
C585 C591 1.429 . S
C586 C578 1.574 . S
C586 H581 0.949 . S
C586 C592 1.368 . S
C587 C571 1.349 . S
C587 H579 0.950 . S
C587 C585 1.327 . S
C588 C576 1.349 . S
C588 H582 0.950 . S
C588 C589 1.327 . S
C589 H583 0.950 . S
C589 C588 1.327 . S
C589 C593 1.429 . S
C590 C573 1.574 . S
C590 H584 0.949 . S
C590 C594 1.368 . S
C591 C572 1.429 . S
C591 C585 1.429 . S
C591 C592 1.523 . S
C592 C573 1.368 . S
C592 C586 1.368 . S
C592 C591 1.523 . S
C593 C577 1.429 . S
C593 C589 1.429 . S
C593 C594 1.523 . S
C594 C578 1.368 . S
C594 C590 1.368 . S
C594 C593 1.523 . S
H595 C570 0.950 . S
H596 C572 0.950 . S
H597 C573 0.949 . S
H598 C575 0.950 . S
H599 C577 0.950 . S
C600 C601 1.349 . S
C600 C602 1.327 . S
C600 H625 0.950 . S
C601 C600 1.349 . S
C601 C617 1.349 . S
C602 C600 1.327 . S
C602 C621 1.429 . S
C602 H626 0.950 . S
C603 C620 1.574 1_455 S
C603 C622 1.368 . S
C603 H627 0.949 . S
H604 C608 0.949 . S
C605 C606 1.349 . S
C605 C607 1.327 . S
C605 H628 0.950 . S
C606 C605 1.349 . S
C606 C618 1.349 . S
C607 C605 1.327 . S
C607 C623 1.429 . S
C607 H629 0.950 . S
C608 H604 0.949 . S
C608 C616 1.574 1_655 S
C608 C624 1.368 . S
H609 C617 0.950 . S
H610 C615 0.950 . S
H611 C616 0.949 . S
H612 C618 0.950 . S
H613 C619 0.950 . S
H614 C620 0.949 . S
C615 H610 0.950 . S
C615 C617 1.327 . S
C615 C621 1.429 . S
C616 C608 1.574 1_455 S
C616 H611 0.949 . S
C616 C622 1.368 . S
C617 C601 1.349 . S
C617 H609 0.950 . S
C617 C615 1.327 . S
C618 C606 1.349 . S
C618 H612 0.950 . S
C618 C619 1.327 . S
C619 H613 0.950 . S
C619 C618 1.327 . S
C619 C623 1.429 . S
C620 C603 1.574 1_655 S
C620 H614 0.949 . S
C620 C624 1.368 . S
C621 C602 1.429 . S
C621 C615 1.429 . S
C621 C622 1.523 . S
C622 C603 1.368 . S
C622 C616 1.368 . S
C622 C621 1.523 . S
C623 C607 1.429 . S
C623 C619 1.429 . S
C623 C624 1.523 . S
C624 C608 1.368 . S
C624 C620 1.368 . S
C624 C623 1.523 . S
H625 C600 0.950 . S
H626 C602 0.950 . S
H627 C603 0.949 . S
H628 C605 0.950 . S
H629 C607 0.950 . S
C630 C631 1.349 . S
C630 C632 1.327 . S
C630 H655 0.950 . S
C631 C630 1.349 . S
C631 C647 1.349 . S
C632 C630 1.327 . S
C632 C651 1.429 . S
C632 H656 0.950 . S
C633 C650 1.574 1_565 S
C633 C652 1.368 . S
C633 H657 0.949 . S
H634 C638 0.949 . S
C635 C636 1.349 . S
C635 C637 1.327 . S
C635 H658 0.950 . S
C636 C635 1.349 . S
C636 C648 1.349 . S
C637 C635 1.327 . S
C637 C653 1.429 . S
C637 H659 0.950 . S
C638 H634 0.949 . S
C638 C646 1.574 1_545 S
C638 C654 1.368 . S
H639 C647 0.950 . S
H640 C645 0.950 . S
H641 C646 0.949 . S
H642 C648 0.950 . S
H643 C649 0.950 . S
H644 C650 0.949 . S
C645 H640 0.950 . S
C645 C647 1.327 . S
C645 C651 1.429 . S
C646 C638 1.574 1_565 S
C646 H641 0.949 . S
C646 C652 1.368 . S
C647 C631 1.349 . S
C647 H639 0.950 . S
C647 C645 1.327 . S
C648 C636 1.349 . S
C648 H642 0.950 . S
C648 C649 1.327 . S
C649 H643 0.950 . S
C649 C648 1.327 . S
C649 C653 1.429 . S
C650 C633 1.574 1_545 S
C650 H644 0.949 . S
C650 C654 1.368 . S
C651 C632 1.429 . S
C651 C645 1.429 . S
C651 C652 1.523 . S
C652 C633 1.368 . S
C652 C646 1.368 . S
C652 C651 1.523 . S
C653 C637 1.429 . S
C653 C649 1.429 . S
C653 C654 1.523 . S
C654 C638 1.368 . S
C654 C650 1.368 . S
C654 C653 1.523 . S
H655 C630 0.950 . S
H656 C632 0.950 . S
H657 C633 0.949 . S
H658 C635 0.950 . S
H659 C637 0.950 . S
C660 C661 1.349 . S
C660 C662 1.327 . S
C660 H685 0.950 . S
C661 C660 1.349 . S
C661 C677 1.349 . S
C662 C660 1.327 . S
C662 C681 1.429 . S
C662 H686 0.950 . S
C663 C680 1.574 . S
C663 C682 1.368 . S
C663 H687 0.949 . S
H664 C668 0.949 . S
C665 C666 1.349 . S
C665 C667 1.327 . S
C665 H688 0.950 . S
C666 C665 1.349 . S
C666 C678 1.349 . S
C667 C665 1.327 . S
C667 C683 1.429 . S
C667 H689 0.950 . S
C668 H664 0.949 . S
C668 C676 1.574 . S
C668 C684 1.368 . S
H669 C677 0.950 . S
H670 C675 0.950 . S
H671 C676 0.949 . S
H672 C678 0.950 . S
H673 C679 0.950 . S
H674 C680 0.949 . S
C675 H670 0.950 . S
C675 C677 1.327 . S
C675 C681 1.429 . S
C676 C668 1.574 . S
C676 H671 0.949 . S
C676 C682 1.368 . S
C677 C661 1.349 . S
C677 H669 0.950 . S
C677 C675 1.327 . S
C678 C666 1.349 . S
C678 H672 0.950 . S
C678 C679 1.327 . S
C679 H673 0.950 . S
C679 C678 1.327 . S
C679 C683 1.429 . S
C680 C663 1.574 . S
C680 H674 0.949 . S
C680 C684 1.368 . S
C681 C662 1.429 . S
C681 C675 1.429 . S
C681 C682 1.523 . S
C682 C663 1.368 . S
C682 C676 1.368 . S
C682 C681 1.523 . S
C683 C667 1.429 . S
C683 C679 1.429 . S
C683 C684 1.523 . S
C684 C668 1.368 . S
C684 C680 1.368 . S
C684 C683 1.523 . S
H685 C660 0.950 . S
H686 C662 0.950 . S
H687 C663 0.949 . S
H688 C665 0.950 . S
H689 C667 0.950 . S
C690 C691 1.349 . S
C690 C692 1.327 . S
C690 H715 0.950 . S
C691 C690 1.349 . S
C691 C707 1.349 . S
C692 C690 1.327 . S
C692 C711 1.429 . S
C692 H716 0.950 . S
C693 C710 1.574 1_455 S
C693 C712 1.368 . S
C693 H717 0.949 . S
H694 C698 0.949 . S
C695 C696 1.349 . S
C695 C697 1.327 . S
C695 H718 0.950 . S
C696 C695 1.349 . S
C696 C708 1.349 . S
C697 C695 1.327 . S
C697 C713 1.429 . S
C697 H719 0.950 . S
C698 H694 0.949 . S
C698 C706 1.574 1_655 S
C698 C714 1.368 . S
H699 C707 0.950 . S
H700 C705 0.950 . S
H701 C706 0.949 . S
H702 C708 0.950 . S
H703 C709 0.950 . S
H704 C710 0.949 . S
C705 H700 0.950 . S
C705 C707 1.327 . S
C705 C711 1.429 . S
C706 C698 1.574 1_455 S
C706 H701 0.949 . S
C706 C712 1.368 . S
C707 C691 1.349 . S
C707 H699 0.950 . S
C707 C705 1.327 . S
C708 C696 1.349 . S
C708 H702 0.950 . S
C708 C709 1.327 . S
C709 H703 0.950 . S
C709 C708 1.327 . S
C709 C713 1.429 . S
C710 C693 1.574 1_655 S
C710 H704 0.949 . S
C710 C714 1.368 . S
C711 C692 1.429 . S
C711 C705 1.429 . S
C711 C712 1.523 . S
C712 C693 1.368 . S
C712 C706 1.368 . S
C712 C711 1.523 . S
C713 C697 1.429 . S
C713 C709 1.429 . S
C713 C714 1.523 . S
C714 C698 1.368 . S
C714 C710 1.368 . S
C714 C713 1.523 . S
H715 C690 0.950 . S
H716 C692 0.950 . S
H717 C693 0.949 . S
H718 C695 0.950 . S
H719 C697 0.950 . S
C720 C721 1.349 . S
C720 C722 1.327 . S
C720 H745 0.950 . S
C721 C720 1.349 . S
C721 C737 1.349 . S
C722 C720 1.327 . S
C722 C741 1.429 . S
C722 H746 0.950 . S
C723 C740 1.574 1_565 S
C723 C742 1.368 . S
C723 H747 0.949 . S
H724 C728 0.949 . S
C725 C726 1.349 . S
C725 C727 1.327 . S
C725 H748 0.950 . S
C726 C725 1.349 . S
C726 C738 1.349 . S
C727 C725 1.327 . S
C727 C743 1.429 . S
C727 H749 0.950 . S
C728 H724 0.949 . S
C728 C736 1.574 1_545 S
C728 C744 1.368 . S
H729 C737 0.950 . S
H730 C735 0.950 . S
H731 C736 0.949 . S
H732 C738 0.950 . S
H733 C739 0.950 . S
H734 C740 0.949 . S
C735 H730 0.950 . S
C735 C737 1.327 . S
C735 C741 1.429 . S
C736 C728 1.574 1_565 S
C736 H731 0.949 . S
C736 C742 1.368 . S
C737 C721 1.349 . S
C737 H729 0.950 . S
C737 C735 1.327 . S
C738 C726 1.349 . S
C738 H732 0.950 . S
C738 C739 1.327 . S
C739 H733 0.950 . S
C739 C738 1.327 . S
C739 C743 1.429 . S
C740 C723 1.574 1_545 S
C740 H734 0.949 . S
C740 C744 1.368 . S
C741 C722 1.429 . S
C741 C735 1.429 . S
C741 C742 1.523 . S
C742 C723 1.368 . S
C742 C736 1.368 . S
C742 C741 1.523 . S
C743 C727 1.429 . S
C743 C739 1.429 . S
C743 C744 1.523 . S
C744 C728 1.368 . S
C744 C740 1.368 . S
C744 C743 1.523 . S
H745 C720 0.950 . S
H746 C722 0.950 . S
H747 C723 0.949 . S
H748 C725 0.950 . S
H749 C727 0.950 . S
C750 C751 1.349 . S
C750 C752 1.327 . S
C750 H775 0.950 . S
C751 C750 1.349 . S
C751 C767 1.349 . S
C752 C750 1.327 . S
C752 C771 1.429 . S
C752 H776 0.950 . S
C753 C770 1.574 . S
C753 C772 1.368 . S
C753 H777 0.949 . S
H754 C758 0.949 . S
C755 C756 1.349 . S
C755 C757 1.327 . S
C755 H778 0.950 . S
C756 C755 1.349 . S
C756 C768 1.349 . S
C757 C755 1.327 . S
C757 C773 1.429 . S
C757 H779 0.950 . S
C758 H754 0.949 . S
C758 C766 1.574 . S
C758 C774 1.368 . S
H759 C767 0.950 . S
H760 C765 0.950 . S
H761 C766 0.949 . S
H762 C768 0.950 . S
H763 C769 0.950 . S
H764 C770 0.949 . S
C765 H760 0.950 . S
C765 C767 1.327 . S
C765 C771 1.429 . S
C766 C758 1.574 . S
C766 H761 0.949 . S
C766 C772 1.368 . S
C767 C751 1.349 . S
C767 H759 0.950 . S
C767 C765 1.327 . S
C768 C756 1.349 . S
C768 H762 0.950 . S
C768 C769 1.327 . S
C769 H763 0.950 . S
C769 C768 1.327 . S
C769 C773 1.429 . S
C770 C753 1.574 . S
C770 H764 0.949 . S
C770 C774 1.368 . S
C771 C752 1.429 . S
C771 C765 1.429 . S
C771 C772 1.523 . S
C772 C753 1.368 . S
C772 C766 1.368 . S
C772 C771 1.523 . S
C773 C757 1.429 . S
C773 C769 1.429 . S
C773 C774 1.523 . S
C774 C758 1.368 . S
C774 C770 1.368 . S
C774 C773 1.523 . S
H775 C750 0.950 . S
H776 C752 0.950 . S
H777 C753 0.949 . S
H778 C755 0.950 . S
H779 C757 0.950 . S
C780 C781 1.349 . S
C780 C782 1.327 . S
C780 H805 0.950 . S
C781 C780 1.349 . S
C781 C797 1.349 . S
C782 C780 1.327 . S
C782 C801 1.429 . S
C782 H806 0.950 . S
C783 C800 1.574 1_455 S
C783 C802 1.368 . S
C783 H807 0.949 . S
H784 C788 0.949 . S
C785 C786 1.349 . S
C785 C787 1.327 . S
C785 H808 0.950 . S
C786 C785 1.349 . S
C786 C798 1.349 . S
C787 C785 1.327 . S
C787 C803 1.429 . S
C787 H809 0.950 . S
C788 H784 0.949 . S
C788 C796 1.574 1_655 S
C788 C804 1.368 . S
H789 C797 0.950 . S
H790 C795 0.950 . S
H791 C796 0.949 . S
H792 C798 0.950 . S
H793 C799 0.950 . S
H794 C800 0.949 . S
C795 H790 0.950 . S
C795 C797 1.327 . S
C795 C801 1.429 . S
C796 C788 1.574 1_455 S
C796 H791 0.949 . S
C796 C802 1.368 . S
C797 C781 1.349 . S
C797 H789 0.950 . S
C797 C795 1.327 . S
C798 C786 1.349 . S
C798 H792 0.950 . S
C798 C799 1.327 . S
C799 H793 0.950 . S
C799 C798 1.327 . S
C799 C803 1.429 . S
C800 C783 1.574 1_655 S
C800 H794 0.949 . S
C800 C804 1.368 . S
C801 C782 1.429 . S
C801 C795 1.429 . S
C801 C802 1.523 . S
C802 C783 1.368 . S
C802 C796 1.368 . S
C802 C801 1.523 . S
C803 C787 1.429 . S
C803 C799 1.429 . S
C803 C804 1.523 . S
C804 C788 1.368 . S
C804 C800 1.368 . S
C804 C803 1.523 . S
H805 C780 0.950 . S
H806 C782 0.950 . S
H807 C783 0.949 . S
H808 C785 0.950 . S
H809 C787 0.950 . S
C810 C811 1.349 . S
C810 C812 1.327 . S
C810 H835 0.950 . S
C811 C810 1.349 . S
C811 C827 1.349 . S
C812 C810 1.327 . S
C812 C831 1.429 . S
C812 H836 0.950 . S
C813 C830 1.574 1_545 S
C813 C832 1.368 . S
C813 H837 0.949 . S
H814 C818 0.949 . S
C815 C816 1.349 . S
C815 C817 1.327 . S
C815 H838 0.950 . S
C816 C815 1.349 . S
C816 C828 1.349 . S
C817 C815 1.327 . S
C817 C833 1.429 . S
C817 H839 0.950 . S
C818 H814 0.949 . S
C818 C826 1.574 1_565 S
C818 C834 1.368 . S
H819 C827 0.950 . S
H820 C825 0.950 . S
H821 C826 0.949 . S
H822 C828 0.950 . S
H823 C829 0.950 . S
H824 C830 0.949 . S
C825 H820 0.950 . S
C825 C827 1.327 . S
C825 C831 1.429 . S
C826 C818 1.574 1_545 S
C826 H821 0.949 . S
C826 C832 1.368 . S
C827 C811 1.349 . S
C827 H819 0.950 . S
C827 C825 1.327 . S
C828 C816 1.349 . S
C828 H822 0.950 . S
C828 C829 1.327 . S
C829 H823 0.950 . S
C829 C828 1.327 . S
C829 C833 1.429 . S
C830 C813 1.574 1_565 S
C830 H824 0.949 . S
C830 C834 1.368 . S
C831 C812 1.429 . S
C831 C825 1.429 . S
C831 C832 1.523 . S
C832 C813 1.368 . S
C832 C826 1.368 . S
C832 C831 1.523 . S
C833 C817 1.429 . S
C833 C829 1.429 . S
C833 C834 1.523 . S
C834 C818 1.368 . S
C834 C830 1.368 . S
C834 C833 1.523 . S
H835 C810 0.950 . S
H836 C812 0.950 . S
H837 C813 0.949 . S
H838 C815 0.950 . S
H839 C817 0.950 . S
C840 C841 1.349 . S
C840 C842 1.327 . S
C840 H865 0.950 . S
C841 C840 1.349 . S
C841 C857 1.349 . S
C842 C840 1.327 . S
C842 C861 1.429 . S
C842 H866 0.950 . S
C843 C860 1.574 . S
C843 C862 1.368 . S
C843 H867 0.949 . S
H844 C848 0.949 . S
C845 C846 1.349 . S
C845 C847 1.327 . S
C845 H868 0.950 . S
C846 C845 1.349 . S
C846 C858 1.349 . S
C847 C845 1.327 . S
C847 C863 1.429 . S
C847 H869 0.950 . S
C848 H844 0.949 . S
C848 C856 1.574 . S
C848 C864 1.368 . S
H849 C857 0.950 . S
H850 C855 0.950 . S
H851 C856 0.949 . S
H852 C858 0.950 . S
H853 C859 0.950 . S
H854 C860 0.949 . S
C855 H850 0.950 . S
C855 C857 1.327 . S
C855 C861 1.429 . S
C856 C848 1.574 . S
C856 H851 0.949 . S
C856 C862 1.368 . S
C857 C841 1.349 . S
C857 H849 0.950 . S
C857 C855 1.327 . S
C858 C846 1.349 . S
C858 H852 0.950 . S
C858 C859 1.327 . S
C859 H853 0.950 . S
C859 C858 1.327 . S
C859 C863 1.429 . S
C860 C843 1.574 . S
C860 H854 0.949 . S
C860 C864 1.368 . S
C861 C842 1.429 . S
C861 C855 1.429 . S
C861 C862 1.523 . S
C862 C843 1.368 . S
C862 C856 1.368 . S
C862 C861 1.523 . S
C863 C847 1.429 . S
C863 C859 1.429 . S
C863 C864 1.523 . S
C864 C848 1.368 . S
C864 C860 1.368 . S
C864 C863 1.523 . S
H865 C840 0.950 . S
H866 C842 0.950 . S
H867 C843 0.949 . S
H868 C845 0.950 . S
H869 C847 0.950 . S
C870 C871 1.349 . S
C870 C872 1.327 . S
C870 H895 0.950 . S
C871 C870 1.349 . S
C871 C887 1.349 . S
C872 C870 1.327 . S
C872 C891 1.429 . S
C872 H896 0.950 . S
C873 C890 1.574 . S
C873 C892 1.368 . S
C873 H897 0.949 . S
H874 C878 0.949 . S
C875 C876 1.349 . S
C875 C877 1.327 . S
C875 H898 0.950 . S
C876 C875 1.349 . S
C876 C888 1.349 . S
C877 C875 1.327 . S
C877 C893 1.429 . S
C877 H899 0.950 . S
C878 H874 0.949 . S
C878 C886 1.574 . S
C878 C894 1.368 . S
H879 C887 0.950 . S
H880 C885 0.950 . S
H881 C886 0.949 . S
H882 C888 0.950 . S
H883 C889 0.950 . S
H884 C890 0.949 . S
C885 H880 0.950 . S
C885 C887 1.327 . S
C885 C891 1.429 . S
C886 C878 1.574 . S
C886 H881 0.949 . S
C886 C892 1.368 . S
C887 C871 1.349 . S
C887 H879 0.950 . S
C887 C885 1.327 . S
C888 C876 1.349 . S
C888 H882 0.950 . S
C888 C889 1.327 . S
C889 H883 0.950 . S
C889 C888 1.327 . S
C889 C893 1.429 . S
C890 C873 1.574 . S
C890 H884 0.949 . S
C890 C894 1.368 . S
C891 C872 1.429 . S
C891 C885 1.429 . S
C891 C892 1.523 . S
C892 C873 1.368 . S
C892 C886 1.368 . S
C892 C891 1.523 . S
C893 C877 1.429 . S
C893 C889 1.429 . S
C893 C894 1.523 . S
C894 C878 1.368 . S
C894 C890 1.368 . S
C894 C893 1.523 . S
H895 C870 0.950 . S
H896 C872 0.950 . S
H897 C873 0.949 . S
H898 C875 0.950 . S
H899 C877 0.950 . S
C900 C901 1.349 . S
C900 C902 1.327 . S
C900 H925 0.950 . S
C901 C900 1.349 . S
C901 C917 1.349 . S
C902 C900 1.327 . S
C902 C921 1.429 . S
C902 H926 0.950 . S
C903 C920 1.574 . S
C903 C922 1.368 . S
C903 H927 0.949 . S
H904 C908 0.949 . S
C905 C906 1.349 . S
C905 C907 1.327 . S
C905 H928 0.950 . S
C906 C905 1.349 . S
C906 C918 1.349 . S
C907 C905 1.327 . S
C907 C923 1.429 . S
C907 H929 0.950 . S
C908 H904 0.949 . S
C908 C916 1.574 . S
C908 C924 1.368 . S
H909 C917 0.950 . S
H910 C915 0.950 . S
H911 C916 0.949 . S
H912 C918 0.950 . S
H913 C919 0.950 . S
H914 C920 0.949 . S
C915 H910 0.950 . S
C915 C917 1.327 . S
C915 C921 1.429 . S
C916 C908 1.574 . S
C916 H911 0.949 . S
C916 C922 1.368 . S
C917 C901 1.349 . S
C917 H909 0.950 . S
C917 C915 1.327 . S
C918 C906 1.349 . S
C918 H912 0.950 . S
C918 C919 1.327 . S
C919 H913 0.950 . S
C919 C918 1.327 . S
C919 C923 1.429 . S
C920 C903 1.574 . S
C920 H914 0.949 . S
C920 C924 1.368 . S
C921 C902 1.429 . S
C921 C915 1.429 . S
C921 C922 1.523 . S
C922 C903 1.368 . S
C922 C916 1.368 . S
C922 C921 1.523 . S
C923 C907 1.429 . S
C923 C919 1.429 . S
C923 C924 1.523 . S
C924 C908 1.368 . S
C924 C920 1.368 . S
C924 C923 1.523 . S
H925 C900 0.950 . S
H926 C902 0.950 . S
H927 C903 0.949 . S
H928 C905 0.950 . S
H929 C907 0.950 . S
C930 C931 1.349 . S
C930 C932 1.327 . S
C930 H955 0.950 . S
C931 C930 1.349 . S
C931 C947 1.349 . S
C932 C930 1.327 . S
C932 C951 1.429 . S
C932 H956 0.950 . S
C933 C950 1.574 . S
C933 C952 1.368 . S
C933 H957 0.949 . S
H934 C938 0.949 . S
C935 C936 1.349 . S
C935 C937 1.327 . S
C935 H958 0.950 . S
C936 C935 1.349 . S
C936 C948 1.349 . S
C937 C935 1.327 . S
C937 C953 1.429 . S
C937 H959 0.950 . S
C938 H934 0.949 . S
C938 C946 1.574 . S
C938 C954 1.368 . S
H939 C947 0.950 . S
H940 C945 0.950 . S
H941 C946 0.949 . S
H942 C948 0.950 . S
H943 C949 0.950 . S
H944 C950 0.949 . S
C945 H940 0.950 . S
C945 C947 1.327 . S
C945 C951 1.429 . S
C946 C938 1.574 . S
C946 H941 0.949 . S
C946 C952 1.368 . S
C947 C931 1.349 . S
C947 H939 0.950 . S
C947 C945 1.327 . S
C948 C936 1.349 . S
C948 H942 0.950 . S
C948 C949 1.327 . S
C949 H943 0.950 . S
C949 C948 1.327 . S
C949 C953 1.429 . S
C950 C933 1.574 . S
C950 H944 0.949 . S
C950 C954 1.368 . S
C951 C932 1.429 . S
C951 C945 1.429 . S
C951 C952 1.523 . S
C952 C933 1.368 . S
C952 C946 1.368 . S
C952 C951 1.523 . S
C953 C937 1.429 . S
C953 C949 1.429 . S
C953 C954 1.523 . S
C954 C938 1.368 . S
C954 C950 1.368 . S
C954 C953 1.523 . S
H955 C930 0.950 . S
H956 C932 0.950 . S
H957 C933 0.949 . S
H958 C935 0.950 . S
H959 C937 0.950 . S
C960 C961 1.349 . S
C960 C962 1.327 . S
C960 H985 0.950 . S
C961 C960 1.349 . S
C961 C977 1.349 . S
C962 C960 1.327 . S
C962 C981 1.429 . S
C962 H986 0.950 . S
C963 C980 1.574 . S
C963 C982 1.368 . S
C963 H987 0.949 . S
H964 C968 0.949 . S
C965 C966 1.349 . S
C965 C967 1.327 . S
C965 H988 0.950 . S
C966 C965 1.349 . S
C966 C978 1.349 . S
C967 C965 1.327 . S
C967 C983 1.429 . S
C967 H989 0.950 . S
C968 H964 0.949 . S
C968 C976 1.574 . S
C968 C984 1.368 . S
H969 C977 0.950 . S
H970 C975 0.950 . S
H971 C976 0.949 . S
H972 C978 0.950 . S
H973 C979 0.950 . S
H974 C980 0.949 . S
C975 H970 0.950 . S
C975 C977 1.327 . S
C975 C981 1.429 . S
C976 C968 1.574 . S
C976 H971 0.949 . S
C976 C982 1.368 . S
C977 C961 1.349 . S
C977 H969 0.950 . S
C977 C975 1.327 . S
C978 C966 1.349 . S
C978 H972 0.950 . S
C978 C979 1.327 . S
C979 H973 0.950 . S
C979 C978 1.327 . S
C979 C983 1.429 . S
C980 C963 1.574 . S
C980 H974 0.949 . S
C980 C984 1.368 . S
C981 C962 1.429 . S
C981 C975 1.429 . S
C981 C982 1.523 . S
C982 C963 1.368 . S
C982 C976 1.368 . S
C982 C981 1.523 . S
C983 C967 1.429 . S
C983 C979 1.429 . S
C983 C984 1.523 . S
C984 C968 1.368 . S
C984 C980 1.368 . S
C984 C983 1.523 . S
H985 C960 0.950 . S
H986 C962 0.950 . S
H987 C963 0.949 . S
H988 C965 0.950 . S
H989 C967 0.950 . S
C990 C991 1.349 . S
C990 C992 1.327 . S
C990 H1015 0.950 . S
C991 C990 1.349 . S
C991 C1007 1.349 . S
C992 C990 1.327 . S
C992 C1011 1.429 . S
C992 H1016 0.950 . S
C993 C1010 1.574 . S
C993 C1012 1.368 . S
C993 H1017 0.949 . S
H994 C998 0.949 . S
C995 C996 1.349 . S
C995 C997 1.327 . S
C995 H1018 0.950 . S
C996 C995 1.349 . S
C996 C1008 1.349 . S
C997 C995 1.327 . S
C997 C1013 1.429 . S
C997 H1019 0.950 . S
C998 H994 0.949 . S
C998 C1006 1.574 . S
C998 C1014 1.368 . S
H999 C1007 0.950 . S
H1000 C1005 0.950 . S
H1001 C1006 0.949 . S
H1002 C1008 0.950 . S
H1003 C1009 0.950 . S
H1004 C1010 0.949 . S
C1005 H1000 0.950 . S
C1005 C1007 1.327 . S
C1005 C1011 1.429 . S
C1006 C998 1.574 . S
C1006 H1001 0.949 . S
C1006 C1012 1.368 . S
C1007 C991 1.349 . S
C1007 H999 0.950 . S
C1007 C1005 1.327 . S
C1008 C996 1.349 . S
C1008 H1002 0.950 . S
C1008 C1009 1.327 . S
C1009 H1003 0.950 . S
C1009 C1008 1.327 . S
C1009 C1013 1.429 . S
C1010 C993 1.574 . S
C1010 H1004 0.949 . S
C1010 C1014 1.368 . S
C1011 C992 1.429 . S
C1011 C1005 1.429 . S
C1011 C1012 1.523 . S
C1012 C993 1.368 . S
C1012 C1006 1.368 . S
C1012 C1011 1.523 . S
C1013 C997 1.429 . S
C1013 C1009 1.429 . S
C1013 C1014 1.523 . S
C1014 C998 1.368 . S
C1014 C1010 1.368 . S
C1014 C1013 1.523 . S
H1015 C990 0.950 . S
H1016 C992 0.950 . S
H1017 C993 0.949 . S
H1018 C995 0.950 . S
H1019 C997 0.950 . S
C1020 C1021 1.349 . S
C1020 C1022 1.327 . S
C1020 H1045 0.950 . S
C1021 C1020 1.349 . S
C1021 C1037 1.349 . S
C1022 C1020 1.327 . S
C1022 C1041 1.429 . S
C1022 H1046 0.950 . S
C1023 C1040 1.544 1_566 S
C1023 C1042 1.396 . S
C1023 H1047 0.953 . S
H1024 C1028 0.953 . S
C1025 C1026 1.349 . S
C1025 C1027 1.327 . S
C1025 H1048 0.950 . S
C1026 C1025 1.349 . S
C1026 C1038 1.349 . S
C1027 C1025 1.327 . S
C1027 C1043 1.429 . S
C1027 H1049 0.950 . S
C1028 H1024 0.953 . S
C1028 C1036 1.544 1_544 S
C1028 C1044 1.396 . S
H1029 C1037 0.950 . S
H1030 C1035 0.950 . S
H1031 C1036 0.949 . S
H1032 C1038 0.950 . S
H1033 C1039 0.950 . S
H1034 C1040 0.949 . S
C1035 H1030 0.950 . S
C1035 C1037 1.327 . S
C1035 C1041 1.429 . S
C1036 C1028 1.544 1_566 S
C1036 H1031 0.949 . S
C1036 C1042 1.368 . S
C1037 C1021 1.349 . S
C1037 H1029 0.950 . S
C1037 C1035 1.327 . S
C1038 C1026 1.349 . S
C1038 H1032 0.950 . S
C1038 C1039 1.327 . S
C1039 H1033 0.950 . S
C1039 C1038 1.327 . S
C1039 C1043 1.429 . S
C1040 C1023 1.544 1_544 S
C1040 H1034 0.949 . S
C1040 C1044 1.368 . S
C1041 C1022 1.429 . S
C1041 C1035 1.429 . S
C1041 C1042 1.523 . S
C1042 C1023 1.396 . S
C1042 C1036 1.368 . S
C1042 C1041 1.523 . S
C1043 C1027 1.429 . S
C1043 C1039 1.429 . S
C1043 C1044 1.523 . S
C1044 C1028 1.396 . S
C1044 C1040 1.368 . S
C1044 C1043 1.523 . S
H1045 C1020 0.950 . S
H1046 C1022 0.950 . S
H1047 C1023 0.953 . S
H1048 C1025 0.950 . S
H1049 C1027 0.950 . S
C1050 C1051 1.349 . S
C1050 C1052 1.327 . S
C1050 H1075 0.950 . S
C1051 C1050 1.349 . S
C1051 C1067 1.349 . S
C1052 C1050 1.327 . S
C1052 C1071 1.429 . S
C1052 H1076 0.950 . S
C1053 C1070 1.574 . S
C1053 C1072 1.368 . S
C1053 H1077 0.949 . S
H1054 C1058 0.949 . S
C1055 C1056 1.349 . S
C1055 C1057 1.327 . S
C1055 H1078 0.950 . S
C1056 C1055 1.349 . S
C1056 C1068 1.349 . S
C1057 C1055 1.327 . S
C1057 C1073 1.429 . S
C1057 H1079 0.950 . S
C1058 H1054 0.949 . S
C1058 C1066 1.574 . S
C1058 C1074 1.368 . S
H1059 C1067 0.950 . S
H1060 C1065 0.950 . S
H1061 C1066 0.949 . S
H1062 C1068 0.950 . S
H1063 C1069 0.950 . S
H1064 C1070 0.949 . S
C1065 H1060 0.950 . S
C1065 C1067 1.327 . S
C1065 C1071 1.429 . S
C1066 C1058 1.574 . S
C1066 H1061 0.949 . S
C1066 C1072 1.368 . S
C1067 C1051 1.349 . S
C1067 H1059 0.950 . S
C1067 C1065 1.327 . S
C1068 C1056 1.349 . S
C1068 H1062 0.950 . S
C1068 C1069 1.327 . S
C1069 H1063 0.950 . S
C1069 C1068 1.327 . S
C1069 C1073 1.429 . S
C1070 C1053 1.574 . S
C1070 H1064 0.949 . S
C1070 C1074 1.368 . S
C1071 C1052 1.429 . S
C1071 C1065 1.429 . S
C1071 C1072 1.523 . S
C1072 C1053 1.368 . S
C1072 C1066 1.368 . S
C1072 C1071 1.523 . S
C1073 C1057 1.429 . S
C1073 C1069 1.429 . S
C1073 C1074 1.523 . S
C1074 C1058 1.368 . S
C1074 C1070 1.368 . S
C1074 C1073 1.523 . S
H1075 C1050 0.950 . S
H1076 C1052 0.950 . S
H1077 C1053 0.949 . S
H1078 C1055 0.950 . S
H1079 C1057 0.950 . S
C1080 C1081 1.349 . S
C1080 C1082 1.327 . S
C1080 H1105 0.950 . S
C1081 C1080 1.349 . S
C1081 C1097 1.349 . S
C1082 C1080 1.327 . S
C1082 C1101 1.429 . S
C1082 H1106 0.950 . S
C1083 C1100 1.574 . S
C1083 C1102 1.368 1_554 S
C1083 H1107 0.949 . S
H1084 C1088 0.949 . S
C1085 C1086 1.349 . S
C1085 C1087 1.327 . S
C1085 H1108 0.950 . S
C1086 C1085 1.349 . S
C1086 C1098 1.349 . S
C1087 C1085 1.327 . S
C1087 C1103 1.429 . S
C1087 H1109 0.950 . S
C1088 H1084 0.949 . S
C1088 C1096 1.574 . S
C1088 C1104 1.368 1_556 S
H1089 C1097 0.950 . S
H1090 C1095 0.950 . S
H1091 C1096 0.949 . S
H1092 C1098 0.950 . S
H1093 C1099 0.950 . S
H1094 C1100 0.949 . S
C1095 H1090 0.950 . S
C1095 C1097 1.327 . S
C1095 C1101 1.429 . S
C1096 C1088 1.574 . S
C1096 H1091 0.949 . S
C1096 C1102 1.368 1_655 S
C1097 C1081 1.349 . S
C1097 H1089 0.950 . S
C1097 C1095 1.327 . S
C1098 C1086 1.349 . S
C1098 H1092 0.950 . S
C1098 C1099 1.327 . S
C1099 H1093 0.950 . S
C1099 C1098 1.327 . S
C1099 C1103 1.429 . S
C1100 C1083 1.574 . S
C1100 H1094 0.949 . S
C1100 C1104 1.368 1_455 S
C1101 C1082 1.429 . S
C1101 C1095 1.429 . S
C1101 C1102 1.523 . S
C1102 C1083 1.368 1_556 S
C1102 C1096 1.368 1_455 S
C1102 C1101 1.523 . S
C1103 C1087 1.429 . S
C1103 C1099 1.429 . S
C1103 C1104 1.523 . S
C1104 C1088 1.368 1_554 S
C1104 C1100 1.368 1_655 S
C1104 C1103 1.523 . S
H1105 C1080 0.950 . S
H1106 C1082 0.950 . S
H1107 C1083 0.949 . S
H1108 C1085 0.950 . S
H1109 C1087 0.950 . S
C1110 C1111 1.349 . S
C1110 C1112 1.327 . S
C1110 H1135 0.950 . S
C1111 C1110 1.349 . S
C1111 C1127 1.349 . S
C1112 C1110 1.327 . S
C1112 C1131 1.429 . S
C1112 H1136 0.950 . S
C1113 C1130 1.574 1_545 S
C1113 C1132 1.368 . S
C1113 H1137 0.949 . S
H1114 C1118 0.949 . S
C1115 C1116 1.349 . S
C1115 C1117 1.327 . S
C1115 H1138 0.950 . S
C1116 C1115 1.349 . S
C1116 C1128 1.349 . S
C1117 C1115 1.327 . S
C1117 C1133 1.429 . S
C1117 H1139 0.950 . S
C1118 H1114 0.949 . S
C1118 C1126 1.574 1_565 S
C1118 C1134 1.368 . S
H1119 C1127 0.950 . S
H1120 C1125 0.950 . S
H1121 C1126 0.949 . S
H1122 C1128 0.950 . S
H1123 C1129 0.950 . S
H1124 C1130 0.949 . S
C1125 H1120 0.950 . S
C1125 C1127 1.327 . S
C1125 C1131 1.429 . S
C1126 C1118 1.574 1_545 S
C1126 H1121 0.949 . S
C1126 C1132 1.368 . S
C1127 C1111 1.349 . S
C1127 H1119 0.950 . S
C1127 C1125 1.327 . S
C1128 C1116 1.349 . S
C1128 H1122 0.950 . S
C1128 C1129 1.327 . S
C1129 H1123 0.950 . S
C1129 C1128 1.327 . S
C1129 C1133 1.429 . S
C1130 C1113 1.574 1_565 S
C1130 H1124 0.949 . S
C1130 C1134 1.368 . S
C1131 C1112 1.429 . S
C1131 C1125 1.429 . S
C1131 C1132 1.523 . S
C1132 C1113 1.368 . S
C1132 C1126 1.368 . S
C1132 C1131 1.523 . S
C1133 C1117 1.429 . S
C1133 C1129 1.429 . S
C1133 C1134 1.523 . S
C1134 C1118 1.368 . S
C1134 C1130 1.368 . S
C1134 C1133 1.523 . S
H1135 C1110 0.950 . S
H1136 C1112 0.950 . S
H1137 C1113 0.949 . S
H1138 C1115 0.950 . S
H1139 C1117 0.950 . S
C1140 C1141 1.349 . S
C1140 C1142 1.327 . S
C1140 H1165 0.950 . S
C1141 C1140 1.349 . S
C1141 C1157 1.349 . S
C1142 C1140 1.327 . S
C1142 C1161 1.429 . S
C1142 H1166 0.950 . S
C1143 C1160 1.574 1_554 S
C1143 C1162 1.368 . S
C1143 H1167 0.949 . S
H1144 C1148 0.949 . S
C1145 C1146 1.349 . S
C1145 C1147 1.327 . S
C1145 H1168 0.950 . S
C1146 C1145 1.349 . S
C1146 C1158 1.349 . S
C1147 C1145 1.327 . S
C1147 C1163 1.429 . S
C1147 H1169 0.950 . S
C1148 H1144 0.949 . S
C1148 C1156 1.574 1_556 S
C1148 C1164 1.368 . S
H1149 C1157 0.950 . S
H1150 C1155 0.950 . S
H1151 C1156 0.949 . S
H1152 C1158 0.950 . S
H1153 C1159 0.950 . S
H1154 C1160 0.949 . S
C1155 H1150 0.950 . S
C1155 C1157 1.327 . S
C1155 C1161 1.429 . S
C1156 C1148 1.574 1_554 S
C1156 H1151 0.949 . S
C1156 C1162 1.368 . S
C1157 C1141 1.349 . S
C1157 H1149 0.950 . S
C1157 C1155 1.327 . S
C1158 C1146 1.349 . S
C1158 H1152 0.950 . S
C1158 C1159 1.327 . S
C1159 H1153 0.950 . S
C1159 C1158 1.327 . S
C1159 C1163 1.429 . S
C1160 C1143 1.574 1_556 S
C1160 H1154 0.949 . S
C1160 C1164 1.368 . S
C1161 C1142 1.429 . S
C1161 C1155 1.429 . S
C1161 C1162 1.523 . S
C1162 C1143 1.368 . S
C1162 C1156 1.368 . S
C1162 C1161 1.523 . S
C1163 C1147 1.429 . S
C1163 C1159 1.429 . S
C1163 C1164 1.523 . S
C1164 C1148 1.368 . S
C1164 C1160 1.368 . S
C1164 C1163 1.523 . S
H1165 C1140 0.950 . S
H1166 C1142 0.950 . S
H1167 C1143 0.949 . S
H1168 C1145 0.950 . S
H1169 C1147 0.950 . S
C1170 C1171 1.349 . S
C1170 C1172 1.327 . S
C1170 H1195 0.950 . S
C1171 C1170 1.349 . S
C1171 C1187 1.349 . S
C1172 C1170 1.327 . S
C1172 C1191 1.429 . S
C1172 H1196 0.950 . S
C1173 C1190 1.574 1_455 S
C1173 C1192 1.368 . S
C1173 H1197 0.949 . S
H1174 C1178 0.949 . S
C1175 C1176 1.349 . S
C1175 C1177 1.327 . S
C1175 H1198 0.950 . S
C1176 C1175 1.349 . S
C1176 C1188 1.349 . S
C1177 C1175 1.327 . S
C1177 C1193 1.429 . S
C1177 H1199 0.950 . S
C1178 H1174 0.949 . S
C1178 C1186 1.574 1_655 S
C1178 C1194 1.368 . S
H1179 C1187 0.950 . S
H1180 C1185 0.950 . S
H1181 C1186 0.949 . S
H1182 C1188 0.950 . S
H1183 C1189 0.950 . S
H1184 C1190 0.949 . S
C1185 H1180 0.950 . S
C1185 C1187 1.327 . S
C1185 C1191 1.429 . S
C1186 C1178 1.574 1_455 S
C1186 H1181 0.949 . S
C1186 C1192 1.368 . S
C1187 C1171 1.349 . S
C1187 H1179 0.950 . S
C1187 C1185 1.327 . S
C1188 C1176 1.349 . S
C1188 H1182 0.950 . S
C1188 C1189 1.327 . S
C1189 H1183 0.950 . S
C1189 C1188 1.327 . S
C1189 C1193 1.429 . S
C1190 C1173 1.574 1_655 S
C1190 H1184 0.949 . S
C1190 C1194 1.368 . S
C1191 C1172 1.429 . S
C1191 C1185 1.429 . S
C1191 C1192 1.523 . S
C1192 C1173 1.368 . S
C1192 C1186 1.368 . S
C1192 C1191 1.523 . S
C1193 C1177 1.429 . S
C1193 C1189 1.429 . S
C1193 C1194 1.523 . S
C1194 C1178 1.368 . S
C1194 C1190 1.368 . S
C1194 C1193 1.523 . S
H1195 C1170 0.950 . S
H1196 C1172 0.950 . S
H1197 C1173 0.949 . S
H1198 C1175 0.950 . S
H1199 C1177 0.950 . S
C1200 C1201 1.349 . S
C1200 C1202 1.327 . S
C1200 H1225 0.950 . S
C1201 C1200 1.349 . S
C1201 C1217 1.349 . S
C1202 C1200 1.327 . S
C1202 C1221 1.429 . S
C1202 H1226 0.950 . S
C1203 C1220 1.574 . S
C1203 C1222 1.368 . S
C1203 H1227 0.949 . S
H1204 C1208 0.949 . S
C1205 C1206 1.349 . S
C1205 C1207 1.327 . S
C1205 H1228 0.950 . S
C1206 C1205 1.349 . S
C1206 C1218 1.349 . S
C1207 C1205 1.327 . S
C1207 C1223 1.429 . S
C1207 H1229 0.950 . S
C1208 H1204 0.949 . S
C1208 C1216 1.574 . S
C1208 C1224 1.368 . S
H1209 C1217 0.950 . S
H1210 C1215 0.950 . S
H1211 C1216 0.949 . S
H1212 C1218 0.950 . S
H1213 C1219 0.950 . S
H1214 C1220 0.949 . S
C1215 H1210 0.950 . S
C1215 C1217 1.327 . S
C1215 C1221 1.429 . S
C1216 C1208 1.574 . S
C1216 H1211 0.949 . S
C1216 C1222 1.368 . S
C1217 C1201 1.349 . S
C1217 H1209 0.950 . S
C1217 C1215 1.327 . S
C1218 C1206 1.349 . S
C1218 H1212 0.950 . S
C1218 C1219 1.327 . S
C1219 H1213 0.950 . S
C1219 C1218 1.327 . S
C1219 C1223 1.429 . S
C1220 C1203 1.574 . S
C1220 H1214 0.949 . S
C1220 C1224 1.368 . S
C1221 C1202 1.429 . S
C1221 C1215 1.429 . S
C1221 C1222 1.523 . S
C1222 C1203 1.368 . S
C1222 C1216 1.368 . S
C1222 C1221 1.523 . S
C1223 C1207 1.429 . S
C1223 C1219 1.429 . S
C1223 C1224 1.523 . S
C1224 C1208 1.368 . S
C1224 C1220 1.368 . S
C1224 C1223 1.523 . S
H1225 C1200 0.950 . S
H1226 C1202 0.950 . S
H1227 C1203 0.949 . S
H1228 C1205 0.950 . S
H1229 C1207 0.950 . S
C1230 C1231 1.349 . S
C1230 C1232 1.327 . S
C1230 H1255 0.950 . S
C1231 C1230 1.349 . S
C1231 C1247 1.349 . S
C1232 C1230 1.327 . S
C1232 C1251 1.429 . S
C1232 H1256 0.950 . S
C1233 C1250 1.574 . S
C1233 C1252 1.368 . S
C1233 H1257 0.949 . S
H1234 C1238 0.949 . S
C1235 C1236 1.349 . S
C1235 C1237 1.327 . S
C1235 H1258 0.950 . S
C1236 C1235 1.349 . S
C1236 C1248 1.349 . S
C1237 C1235 1.327 . S
C1237 C1253 1.429 . S
C1237 H1259 0.950 . S
C1238 H1234 0.949 . S
C1238 C1246 1.574 . S
C1238 C1254 1.368 . S
H1239 C1247 0.950 . S
H1240 C1245 0.950 . S
H1241 C1246 0.949 . S
H1242 C1248 0.950 . S
H1243 C1249 0.950 . S
H1244 C1250 0.949 . S
C1245 H1240 0.950 . S
C1245 C1247 1.327 . S
C1245 C1251 1.429 . S
C1246 C1238 1.574 . S
C1246 H1241 0.949 . S
C1246 C1252 1.368 . S
C1247 C1231 1.349 . S
C1247 H1239 0.950 . S
C1247 C1245 1.327 . S
C1248 C1236 1.349 . S
C1248 H1242 0.950 . S
C1248 C1249 1.327 . S
C1249 H1243 0.950 . S
C1249 C1248 1.327 . S
C1249 C1253 1.429 . S
C1250 C1233 1.574 . S
C1250 H1244 0.949 . S
C1250 C1254 1.368 . S
C1251 C1232 1.429 . S
C1251 C1245 1.429 . S
C1251 C1252 1.523 . S
C1252 C1233 1.368 . S
C1252 C1246 1.368 . S
C1252 C1251 1.523 . S
C1253 C1237 1.429 . S
C1253 C1249 1.429 . S
C1253 C1254 1.523 . S
C1254 C1238 1.368 . S
C1254 C1250 1.368 . S
C1254 C1253 1.523 . S
H1255 C1230 0.950 . S
H1256 C1232 0.950 . S
H1257 C1233 0.949 . S
H1258 C1235 0.950 . S
H1259 C1237 0.950 . S
C1260 C1261 1.349 . S
C1260 C1262 1.327 . S
C1260 H1285 0.950 . S
C1261 C1260 1.349 . S
C1261 C1277 1.349 . S
C1262 C1260 1.327 . S
C1262 C1281 1.429 . S
C1262 H1286 0.950 . S
C1263 C1280 1.574 . S
C1263 C1282 1.368 . S
C1263 H1287 0.949 . S
H1264 C1268 0.949 . S
C1265 C1266 1.349 . S
C1265 C1267 1.327 . S
C1265 H1288 0.950 . S
C1266 C1265 1.349 . S
C1266 C1278 1.349 . S
C1267 C1265 1.327 . S
C1267 C1283 1.429 . S
C1267 H1289 0.950 . S
C1268 H1264 0.949 . S
C1268 C1276 1.574 . S
C1268 C1284 1.368 . S
H1269 C1277 0.950 . S
H1270 C1275 0.950 . S
H1271 C1276 0.949 . S
H1272 C1278 0.950 . S
H1273 C1279 0.950 . S
H1274 C1280 0.949 . S
C1275 H1270 0.950 . S
C1275 C1277 1.327 . S
C1275 C1281 1.429 . S
C1276 C1268 1.574 . S
C1276 H1271 0.949 . S
C1276 C1282 1.368 . S
C1277 C1261 1.349 . S
C1277 H1269 0.950 . S
C1277 C1275 1.327 . S
C1278 C1266 1.349 . S
C1278 H1272 0.950 . S
C1278 C1279 1.327 . S
C1279 H1273 0.950 . S
C1279 C1278 1.327 . S
C1279 C1283 1.429 . S
C1280 C1263 1.574 . S
C1280 H1274 0.949 . S
C1280 C1284 1.368 . S
C1281 C1262 1.429 . S
C1281 C1275 1.429 . S
C1281 C1282 1.523 . S
C1282 C1263 1.368 . S
C1282 C1276 1.368 . S
C1282 C1281 1.523 . S
C1283 C1267 1.429 . S
C1283 C1279 1.429 . S
C1283 C1284 1.523 . S
C1284 C1268 1.368 . S
C1284 C1280 1.368 . S
C1284 C1283 1.523 . S
H1285 C1260 0.950 . S
H1286 C1262 0.950 . S
H1287 C1263 0.949 . S
H1288 C1265 0.950 . S
H1289 C1267 0.950 . S
C1290 C1291 1.349 . S
C1290 C1292 1.327 . S
C1290 H1315 0.950 . S
C1291 C1290 1.349 . S
C1291 C1307 1.349 . S
C1292 C1290 1.327 . S
C1292 C1311 1.429 . S
C1292 H1316 0.950 . S
C1293 C1310 1.574 . S
C1293 C1312 1.368 . S
C1293 H1317 0.949 . S
H1294 C1298 0.949 . S
C1295 C1296 1.349 . S
C1295 C1297 1.327 . S
C1295 H1318 0.950 . S
C1296 C1295 1.349 . S
C1296 C1308 1.349 . S
C1297 C1295 1.327 . S
C1297 C1313 1.429 . S
C1297 H1319 0.950 . S
C1298 H1294 0.949 . S
C1298 C1306 1.574 . S
C1298 C1314 1.368 . S
H1299 C1307 0.950 . S
H1300 C1305 0.950 . S
H1301 C1306 0.949 . S
H1302 C1308 0.950 . S
H1303 C1309 0.950 . S
H1304 C1310 0.949 . S
C1305 H1300 0.950 . S
C1305 C1307 1.327 . S
C1305 C1311 1.429 . S
C1306 C1298 1.574 . S
C1306 H1301 0.949 . S
C1306 C1312 1.368 . S
C1307 C1291 1.349 . S
C1307 H1299 0.950 . S
C1307 C1305 1.327 . S
C1308 C1296 1.349 . S
C1308 H1302 0.950 . S
C1308 C1309 1.327 . S
C1309 H1303 0.950 . S
C1309 C1308 1.327 . S
C1309 C1313 1.429 . S
C1310 C1293 1.574 . S
C1310 H1304 0.949 . S
C1310 C1314 1.368 . S
C1311 C1292 1.429 . S
C1311 C1305 1.429 . S
C1311 C1312 1.523 . S
C1312 C1293 1.368 . S
C1312 C1306 1.368 . S
C1312 C1311 1.523 . S
C1313 C1297 1.429 . S
C1313 C1309 1.429 . S
C1313 C1314 1.523 . S
C1314 C1298 1.368 . S
C1314 C1310 1.368 . S
C1314 C1313 1.523 . S
H1315 C1290 0.950 . S
H1316 C1292 0.950 . S
H1317 C1293 0.949 . S
H1318 C1295 0.950 . S
H1319 C1297 0.950 . S
C1320 C1321 1.349 . S
C1320 C1322 1.327 . S
C1320 H1345 0.950 . S
C1321 C1320 1.349 . S
C1321 C1337 1.349 . S
C1322 C1320 1.327 . S
C1322 C1341 1.429 . S
C1322 H1346 0.950 . S
C1323 C1340 1.574 . S
C1323 C1342 1.368 . S
C1323 H1347 0.949 . S
H1324 C1328 0.949 . S
C1325 C1326 1.349 . S
C1325 C1327 1.327 . S
C1325 H1348 0.950 . S
C1326 C1325 1.349 . S
C1326 C1338 1.349 . S
C1327 C1325 1.327 . S
C1327 C1343 1.429 . S
C1327 H1349 0.950 . S
C1328 H1324 0.949 . S
C1328 C1336 1.574 . S
C1328 C1344 1.368 . S
H1329 C1337 0.950 . S
H1330 C1335 0.950 . S
H1331 C1336 0.949 . S
H1332 C1338 0.950 . S
H1333 C1339 0.950 . S
H1334 C1340 0.949 . S
C1335 H1330 0.950 . S
C1335 C1337 1.327 . S
C1335 C1341 1.429 . S
C1336 C1328 1.574 . S
C1336 H1331 0.949 . S
C1336 C1342 1.368 . S
C1337 C1321 1.349 . S
C1337 H1329 0.950 . S
C1337 C1335 1.327 . S
C1338 C1326 1.349 . S
C1338 H1332 0.950 . S
C1338 C1339 1.327 . S
C1339 H1333 0.950 . S
C1339 C1338 1.327 . S
C1339 C1343 1.429 . S
C1340 C1323 1.574 . S
C1340 H1334 0.949 . S
C1340 C1344 1.368 . S
C1341 C1322 1.429 . S
C1341 C1335 1.429 . S
C1341 C1342 1.523 . S
C1342 C1323 1.368 . S
C1342 C1336 1.368 . S
C1342 C1341 1.523 . S
C1343 C1327 1.429 . S
C1343 C1339 1.429 . S
C1343 C1344 1.523 . S
C1344 C1328 1.368 . S
C1344 C1340 1.368 . S
C1344 C1343 1.523 . S
H1345 C1320 0.950 . S
H1346 C1322 0.950 . S
H1347 C1323 0.949 . S
H1348 C1325 0.950 . S
H1349 C1327 0.950 . S
C1350 C1351 1.349 . S
C1350 C1352 1.327 . S
C1350 H1375 0.950 . S
C1351 C1350 1.349 . S
C1351 C1367 1.349 . S
C1352 C1350 1.327 . S
C1352 C1371 1.429 . S
C1352 H1376 0.950 . S
C1353 C1370 1.574 . S
C1353 C1372 1.368 . S
C1353 H1377 0.949 . S
H1354 C1358 0.949 . S
C1355 C1356 1.349 . S
C1355 C1357 1.327 . S
C1355 H1378 0.950 . S
C1356 C1355 1.349 . S
C1356 C1368 1.349 . S
C1357 C1355 1.327 . S
C1357 C1373 1.429 . S
C1357 H1379 0.950 . S
C1358 H1354 0.949 . S
C1358 C1366 1.574 . S
C1358 C1374 1.368 . S
H1359 C1367 0.950 . S
H1360 C1365 0.950 . S
H1361 C1366 0.949 . S
H1362 C1368 0.950 . S
H1363 C1369 0.950 . S
H1364 C1370 0.949 . S
C1365 H1360 0.950 . S
C1365 C1367 1.327 . S
C1365 C1371 1.429 . S
C1366 C1358 1.574 . S
C1366 H1361 0.949 . S
C1366 C1372 1.368 . S
C1367 C1351 1.349 . S
C1367 H1359 0.950 . S
C1367 C1365 1.327 . S
C1368 C1356 1.349 . S
C1368 H1362 0.950 . S
C1368 C1369 1.327 . S
C1369 H1363 0.950 . S
C1369 C1368 1.327 . S
C1369 C1373 1.429 . S
C1370 C1353 1.574 . S
C1370 H1364 0.949 . S
C1370 C1374 1.368 . S
C1371 C1352 1.429 . S
C1371 C1365 1.429 . S
C1371 C1372 1.523 . S
C1372 C1353 1.368 . S
C1372 C1366 1.368 . S
C1372 C1371 1.523 . S
C1373 C1357 1.429 . S
C1373 C1369 1.429 . S
C1373 C1374 1.523 . S
C1374 C1358 1.368 . S
C1374 C1370 1.368 . S
C1374 C1373 1.523 . S
H1375 C1350 0.950 . S
H1376 C1352 0.950 . S
H1377 C1353 0.949 . S
H1378 C1355 0.950 . S
H1379 C1357 0.950 . S
C1380 C1381 1.349 . S
C1380 C1382 1.327 . S
C1380 H1405 0.950 . S
C1381 C1380 1.349 . S
C1381 C1397 1.349 . S
C1382 C1380 1.327 . S
C1382 C1401 1.429 . S
C1382 H1406 0.950 . S
C1383 C1400 1.574 . S
C1383 C1402 1.368 . S
C1383 H1407 0.949 . S
H1384 C1388 0.949 . S
C1385 C1386 1.349 . S
C1385 C1387 1.327 . S
C1385 H1408 0.950 . S
C1386 C1385 1.349 . S
C1386 C1398 1.349 . S
C1387 C1385 1.327 . S
C1387 C1403 1.429 . S
C1387 H1409 0.950 . S
C1388 H1384 0.949 . S
C1388 C1396 1.574 . S
C1388 C1404 1.368 . S
H1389 C1397 0.950 . S
H1390 C1395 0.950 . S
H1391 C1396 0.949 . S
H1392 C1398 0.950 . S
H1393 C1399 0.950 . S
H1394 C1400 0.949 . S
C1395 H1390 0.950 . S
C1395 C1397 1.327 . S
C1395 C1401 1.429 . S
C1396 C1388 1.574 . S
C1396 H1391 0.949 . S
C1396 C1402 1.368 . S
C1397 C1381 1.349 . S
C1397 H1389 0.950 . S
C1397 C1395 1.327 . S
C1398 C1386 1.349 . S
C1398 H1392 0.950 . S
C1398 C1399 1.327 . S
C1399 H1393 0.950 . S
C1399 C1398 1.327 . S
C1399 C1403 1.429 . S
C1400 C1383 1.574 . S
C1400 H1394 0.949 . S
C1400 C1404 1.368 . S
C1401 C1382 1.429 . S
C1401 C1395 1.429 . S
C1401 C1402 1.523 . S
C1402 C1383 1.368 . S
C1402 C1396 1.368 . S
C1402 C1401 1.523 . S
C1403 C1387 1.429 . S
C1403 C1399 1.429 . S
C1403 C1404 1.523 . S
C1404 C1388 1.368 . S
C1404 C1400 1.368 . S
C1404 C1403 1.523 . S
H1405 C1380 0.950 . S
H1406 C1382 0.950 . S
H1407 C1383 0.949 . S
H1408 C1385 0.950 . S
H1409 C1387 0.950 . S
C1410 C1411 1.349 . S
C1410 C1412 1.327 . S
C1410 H1435 0.950 . S
C1411 C1410 1.349 . S
C1411 C1427 1.349 . S
C1412 C1410 1.327 . S
C1412 C1431 1.429 . S
C1412 H1436 0.950 . S
C1413 C1430 1.574 . S
C1413 C1432 1.368 . S
C1413 H1437 0.949 . S
H1414 C1418 0.949 . S
C1415 C1416 1.349 . S
C1415 C1417 1.327 . S
C1415 H1438 0.950 . S
C1416 C1415 1.349 . S
C1416 C1428 1.349 . S
C1417 C1415 1.327 . S
C1417 C1433 1.429 . S
C1417 H1439 0.950 . S
C1418 H1414 0.949 . S
C1418 C1426 1.574 . S
C1418 C1434 1.368 . S
H1419 C1427 0.950 . S
H1420 C1425 0.950 . S
H1421 C1426 0.949 . S
H1422 C1428 0.950 . S
H1423 C1429 0.950 . S
H1424 C1430 0.949 . S
C1425 H1420 0.950 . S
C1425 C1427 1.327 . S
C1425 C1431 1.429 . S
C1426 C1418 1.574 . S
C1426 H1421 0.949 . S
C1426 C1432 1.368 . S
C1427 C1411 1.349 . S
C1427 H1419 0.950 . S
C1427 C1425 1.327 . S
C1428 C1416 1.349 . S
C1428 H1422 0.950 . S
C1428 C1429 1.327 . S
C1429 H1423 0.950 . S
C1429 C1428 1.327 . S
C1429 C1433 1.429 . S
C1430 C1413 1.574 . S
C1430 H1424 0.949 . S
C1430 C1434 1.368 . S
C1431 C1412 1.429 . S
C1431 C1425 1.429 . S
C1431 C1432 1.523 . S
C1432 C1413 1.368 . S
C1432 C1426 1.368 . S
C1432 C1431 1.523 . S
C1433 C1417 1.429 . S
C1433 C1429 1.429 . S
C1433 C1434 1.523 . S
C1434 C1418 1.368 . S
C1434 C1430 1.368 . S
C1434 C1433 1.523 . S
H1435 C1410 0.950 . S
H1436 C1412 0.950 . S
H1437 C1413 0.949 . S
H1438 C1415 0.950 . S
H1439 C1417 0.950 . S
C1440 C1441 1.349 . S
C1440 C1442 1.327 . S
C1440 H1465 0.950 . S
C1441 C1440 1.349 . S
C1441 C1457 1.349 . S
C1442 C1440 1.327 . S
C1442 C1461 1.429 . S
C1442 H1466 0.950 . S
C1443 C1460 1.574 . S
C1443 C1462 1.368 . S
C1443 H1467 0.949 . S
H1444 C1448 0.949 . S
C1445 C1446 1.349 . S
C1445 C1447 1.327 . S
C1445 H1468 0.950 . S
C1446 C1445 1.349 . S
C1446 C1458 1.349 . S
C1447 C1445 1.327 . S
C1447 C1463 1.429 . S
C1447 H1469 0.950 . S
C1448 H1444 0.949 . S
C1448 C1456 1.574 . S
C1448 C1464 1.368 . S
H1449 C1457 0.950 . S
H1450 C1455 0.950 . S
H1451 C1456 0.949 . S
H1452 C1458 0.950 . S
H1453 C1459 0.950 . S
H1454 C1460 0.949 . S
C1455 H1450 0.950 . S
C1455 C1457 1.327 . S
C1455 C1461 1.429 . S
C1456 C1448 1.574 . S
C1456 H1451 0.949 . S
C1456 C1462 1.368 . S
C1457 C1441 1.349 . S
C1457 H1449 0.950 . S
C1457 C1455 1.327 . S
C1458 C1446 1.349 . S
C1458 H1452 0.950 . S
C1458 C1459 1.327 . S
C1459 H1453 0.950 . S
C1459 C1458 1.327 . S
C1459 C1463 1.429 . S
C1460 C1443 1.574 . S
C1460 H1454 0.949 . S
C1460 C1464 1.368 . S
C1461 C1442 1.429 . S
C1461 C1455 1.429 . S
C1461 C1462 1.523 . S
C1462 C1443 1.368 . S
C1462 C1456 1.368 . S
C1462 C1461 1.523 . S
C1463 C1447 1.429 . S
C1463 C1459 1.429 . S
C1463 C1464 1.523 . S
C1464 C1448 1.368 . S
C1464 C1460 1.368 . S
C1464 C1463 1.523 . S
H1465 C1440 0.950 . S
H1466 C1442 0.950 . S
H1467 C1443 0.949 . S
H1468 C1445 0.950 . S
H1469 C1447 0.950 . S
C1470 C1471 1.349 . S
C1470 C1472 1.327 . S
C1470 H1495 0.950 . S
C1471 C1470 1.349 . S
C1471 C1487 1.349 . S
C1472 C1470 1.327 . S
C1472 C1491 1.429 . S
C1472 H1496 0.950 . S
C1473 C1490 1.574 . S
C1473 C1492 1.368 . S
C1473 H1497 0.949 . S
H1474 C1478 0.949 . S
C1475 C1476 1.349 . S
C1475 C1477 1.327 . S
C1475 H1498 0.950 . S
C1476 C1475 1.349 . S
C1476 C1488 1.349 . S
C1477 C1475 1.327 . S
C1477 C1493 1.429 . S
C1477 H1499 0.950 . S
C1478 H1474 0.949 . S
C1478 C1486 1.574 . S
C1478 C1494 1.368 . S
H1479 C1487 0.950 . S
H1480 C1485 0.950 . S
H1481 C1486 0.949 . S
H1482 C1488 0.950 . S
H1483 C1489 0.950 . S
H1484 C1490 0.949 . S
C1485 H1480 0.950 . S
C1485 C1487 1.327 . S
C1485 C1491 1.429 . S
C1486 C1478 1.574 . S
C1486 H1481 0.949 . S
C1486 C1492 1.368 . S
C1487 C1471 1.349 . S
C1487 H1479 0.950 . S
C1487 C1485 1.327 . S
C1488 C1476 1.349 . S
C1488 H1482 0.950 . S
C1488 C1489 1.327 . S
C1489 H1483 0.950 . S
C1489 C1488 1.327 . S
C1489 C1493 1.429 . S
C1490 C1473 1.574 . S
C1490 H1484 0.949 . S
C1490 C1494 1.368 . S
C1491 C1472 1.429 . S
C1491 C1485 1.429 . S
C1491 C1492 1.523 . S
C1492 C1473 1.368 . S
C1492 C1486 1.368 . S
C1492 C1491 1.523 . S
C1493 C1477 1.429 . S
C1493 C1489 1.429 . S
C1493 C1494 1.523 . S
C1494 C1478 1.368 . S
C1494 C1490 1.368 . S
C1494 C1493 1.523 . S
H1495 C1470 0.950 . S
H1496 C1472 0.950 . S
H1497 C1473 0.949 . S
H1498 C1475 0.950 . S
H1499 C1477 0.950 . S
C1500 C1501 1.349 . S
C1500 C1502 1.327 . S
C1500 H1525 0.950 . S
C1501 C1500 1.349 . S
C1501 C1517 1.349 . S
C1502 C1500 1.327 . S
C1502 C1521 1.429 . S
C1502 H1526 0.950 . S
C1503 C1520 1.574 . S
C1503 C1522 1.368 . S
C1503 H1527 0.949 . S
H1504 C1508 0.949 . S
C1505 C1506 1.349 . S
C1505 C1507 1.327 . S
C1505 H1528 0.950 . S
C1506 C1505 1.349 . S
C1506 C1518 1.349 . S
C1507 C1505 1.327 . S
C1507 C1523 1.429 . S
C1507 H1529 0.950 . S
C1508 H1504 0.949 . S
C1508 C1516 1.574 . S
C1508 C1524 1.368 . S
H1509 C1517 0.950 . S
H1510 C1515 0.950 . S
H1511 C1516 0.949 . S
H1512 C1518 0.950 . S
H1513 C1519 0.950 . S
H1514 C1520 0.949 . S
C1515 H1510 0.950 . S
C1515 C1517 1.327 . S
C1515 C1521 1.429 . S
C1516 C1508 1.574 . S
C1516 H1511 0.949 . S
C1516 C1522 1.368 . S
C1517 C1501 1.349 . S
C1517 H1509 0.950 . S
C1517 C1515 1.327 . S
C1518 C1506 1.349 . S
C1518 H1512 0.950 . S
C1518 C1519 1.327 . S
C1519 H1513 0.950 . S
C1519 C1518 1.327 . S
C1519 C1523 1.429 . S
C1520 C1503 1.574 . S
C1520 H1514 0.949 . S
C1520 C1524 1.368 . S
C1521 C1502 1.429 . S
C1521 C1515 1.429 . S
C1521 C1522 1.523 . S
C1522 C1503 1.368 . S
C1522 C1516 1.368 . S
C1522 C1521 1.523 . S
C1523 C1507 1.429 . S
C1523 C1519 1.429 . S
C1523 C1524 1.523 . S
C1524 C1508 1.368 . S
C1524 C1520 1.368 . S
C1524 C1523 1.523 . S
H1525 C1500 0.950 . S
H1526 C1502 0.950 . S
H1527 C1503 0.949 . S
H1528 C1505 0.950 . S
H1529 C1507 0.950 . S
C1530 C1531 1.349 . S
C1530 C1532 1.327 . S
C1530 H1555 0.950 . S
C1531 C1530 1.349 . S
C1531 C1547 1.349 . S
C1532 C1530 1.327 . S
C1532 C1551 1.429 . S
C1532 H1556 0.950 . S
C1533 C1550 1.574 . S
C1533 C1552 1.368 . S
C1533 H1557 0.949 . S
H1534 C1538 0.949 . S
C1535 C1536 1.349 . S
C1535 C1537 1.327 . S
C1535 H1558 0.950 . S
C1536 C1535 1.349 . S
C1536 C1548 1.349 . S
C1537 C1535 1.327 . S
C1537 C1553 1.429 . S
C1537 H1559 0.950 . S
C1538 H1534 0.949 . S
C1538 C1546 1.574 . S
C1538 C1554 1.368 . S
H1539 C1547 0.950 . S
H1540 C1545 0.950 . S
H1541 C1546 0.949 . S
H1542 C1548 0.950 . S
H1543 C1549 0.950 . S
H1544 C1550 0.949 . S
C1545 H1540 0.950 . S
C1545 C1547 1.327 . S
C1545 C1551 1.429 . S
C1546 C1538 1.574 . S
C1546 H1541 0.949 . S
C1546 C1552 1.368 . S
C1547 C1531 1.349 . S
C1547 H1539 0.950 . S
C1547 C1545 1.327 . S
C1548 C1536 1.349 . S
C1548 H1542 0.950 . S
C1548 C1549 1.327 . S
C1549 H1543 0.950 . S
C1549 C1548 1.327 . S
C1549 C1553 1.429 . S
C1550 C1533 1.574 . S
C1550 H1544 0.949 . S
C1550 C1554 1.368 . S
C1551 C1532 1.429 . S
C1551 C1545 1.429 . S
C1551 C1552 1.523 . S
C1552 C1533 1.368 . S
C1552 C1546 1.368 . S
C1552 C1551 1.523 . S
C1553 C1537 1.429 . S
C1553 C1549 1.429 . S
C1553 C1554 1.523 . S
C1554 C1538 1.368 . S
C1554 C1550 1.368 . S
C1554 C1553 1.523 . S
H1555 C1530 0.950 . S
H1556 C1532 0.950 . S
H1557 C1533 0.949 . S
H1558 C1535 0.950 . S
H1559 C1537 0.950 . S
C481 C95 1.232 . S
C486 C19 1.201 . S
C511 C126 1.233 . S
C516 C50 1.202 . S
C541 C99 1.202 . S
C546 C175 1.233 . S
C571 C130 1.201 . S
C576 C206 1.232 . S
C601 C15 1.233 . S
C606 C179 1.202 . S
C631 C46 1.233 . S
C636 C210 1.202 . S
C661 C406 1.232 . S
C666 C250 1.201 . S
C691 C299 1.202 . S
C696 C455 1.233 . S
C721 C330 1.202 . S
C726 C246 1.233 . S
C751 C379 1.201 . S
C756 C295 1.232 . S
C781 C410 1.202 . S
C786 C326 1.233 . S
C811 C375 1.233 . S
C816 C459 1.202 . S
C841 C129 1.733 . S
C846 C18 1.733 . S
C871 C49 1.734 . S
C876 C178 1.734 . S
C901 C98 1.734 . S
C906 C209 1.734 . S
C931 C249 1.733 . S
C936 C378 1.733 . S
C961 C298 1.734 . S
C966 C409 1.734 . S
C991 C329 1.734 . S
C996 C458 1.734 . S
C1021 C289 2.283 . S
C1026 C9 2.283 . S
C1051 C58 2.283 . S
C1056 C338 2.283 . S
C1081 C369 2.283 . S
C1086 C89 2.283 . S
C1111 C138 2.283 . S
C1116 C418 2.283 . S
C1141 C169 2.283 . S
C1146 C449 2.283 . S
C1171 C258 2.283 . S
C1176 C218 2.283 . S
C1201 C86 1.756 . S
C1206 C10 1.761 . S
C1231 C59 1.761 . S
C1236 C135 1.756 . S
C1261 C90 1.761 . S
C1266 C166 1.756 . S
C1291 C139 1.761 . S
C1296 C215 1.756 . S
C1321 C6 1.756 . S
C1326 C170 1.761 . S
C1351 C55 1.756 . S
C1356 C219 1.761 . S
C1381 C415 1.756 . S
C1386 C259 1.761 . S
C1411 C290 1.761 . S
C1416 C446 1.756 . S
C1441 C339 1.761 . S
C1446 C255 1.756 . S
C1471 C286 1.756 . S
C1476 C370 1.761 . S
C1501 C419 1.761 . S
C1506 C335 1.756 . S
C1531 C450 1.761 . S
C1536 C366 1.756 . S
