# Generated by pormake.
# Topology uob, (4)-cn, num edge types: 1
# Building blocks:
#     Node 0, Type 0, BuildingBlock: KUFVIS_clean_sbu_0, # of connection points: 4
#     Node 1, Type 0, BuildingBlock: KUFVIS_clean_sbu_0, # of connection points: 4
#     Node 2, Type 0, BuildingBlock: KUFVIS_clean_sbu_0, # of connection points: 4
#     Node 3, Type 0, BuildingBlock: KUFVIS_clean_sbu_0, # of connection points: 4
#     Node 4, Type 0, BuildingBlock: KUFVIS_clean_sbu_0, # of connection points: 4
#     Node 5, Type 0, BuildingBlock: KUFVIS_clean_sbu_0, # of connection points: 4
#     Node 6, Type 0, BuildingBlock: KUFVIS_clean_sbu_0, # of connection points: 4
#     Node 7, Type 0, BuildingBlock: KUFVIS_clean_sbu_0, # of connection points: 4
#     Node 8, Type 0, BuildingBlock: KUFVIS_clean_sbu_0, # of connection points: 4
#     Node 9, Type 0, BuildingBlock: KUFVIS_clean_sbu_0, # of connection points: 4
#     Node 10, Type 0, BuildingBlock: KUFVIS_clean_sbu_0, # of connection points: 4
#     Node 11, Type 0, BuildingBlock: KUFVIS_clean_sbu_0, # of connection points: 4
#     Node 12, Type 0, BuildingBlock: KUFVIS_clean_sbu_0, # of connection points: 4
#     Node 13, Type 0, BuildingBlock: KUFVIS_clean_sbu_0, # of connection points: 4
#     Node 14, Type 0, BuildingBlock: KUFVIS_clean_sbu_0, # of connection points: 4
#     Node 15, Type 0, BuildingBlock: KUFVIS_clean_sbu_0, # of connection points: 4
#     Edge 16, Type (0, 0), BuildingBlock: KIFKEQ_clean_linker_1, # of connection points: 2
#     Edge 17, Type (0, 0), BuildingBlock: KIFKEQ_clean_linker_1, # of connection points: 2
#     Edge 18, Type (0, 0), BuildingBlock: KIFKEQ_clean_linker_1, # of connection points: 2
#     Edge 19, Type (0, 0), BuildingBlock: KIFKEQ_clean_linker_1, # of connection points: 2
#     Edge 20, Type (0, 0), BuildingBlock: KIFKEQ_clean_linker_1, # of connection points: 2
#     Edge 21, Type (0, 0), BuildingBlock: KIFKEQ_clean_linker_1, # of connection points: 2
#     Edge 22, Type (0, 0), BuildingBlock: KIFKEQ_clean_linker_1, # of connection points: 2
#     Edge 23, Type (0, 0), BuildingBlock: KIFKEQ_clean_linker_1, # of connection points: 2
#     Edge 24, Type (0, 0), BuildingBlock: KIFKEQ_clean_linker_1, # of connection points: 2
#     Edge 25, Type (0, 0), BuildingBlock: KIFKEQ_clean_linker_1, # of connection points: 2
#     Edge 26, Type (0, 0), BuildingBlock: KIFKEQ_clean_linker_1, # of connection points: 2
#     Edge 27, Type (0, 0), BuildingBlock: KIFKEQ_clean_linker_1, # of connection points: 2
#     Edge 28, Type (0, 0), BuildingBlock: KIFKEQ_clean_linker_1, # of connection points: 2
#     Edge 29, Type (0, 0), BuildingBlock: KIFKEQ_clean_linker_1, # of connection points: 2
#     Edge 30, Type (0, 0), BuildingBlock: KIFKEQ_clean_linker_1, # of connection points: 2
#     Edge 31, Type (0, 0), BuildingBlock: KIFKEQ_clean_linker_1, # of connection points: 2
#     Edge 32, Type (0, 0), BuildingBlock: KIFKEQ_clean_linker_1, # of connection points: 2
#     Edge 33, Type (0, 0), BuildingBlock: KIFKEQ_clean_linker_1, # of connection points: 2
#     Edge 34, Type (0, 0), BuildingBlock: KIFKEQ_clean_linker_1, # of connection points: 2
#     Edge 35, Type (0, 0), BuildingBlock: KIFKEQ_clean_linker_1, # of connection points: 2
#     Edge 36, Type (0, 0), BuildingBlock: KIFKEQ_clean_linker_1, # of connection points: 2
#     Edge 37, Type (0, 0), BuildingBlock: KIFKEQ_clean_linker_1, # of connection points: 2
#     Edge 38, Type (0, 0), BuildingBlock: KIFKEQ_clean_linker_1, # of connection points: 2
#     Edge 39, Type (0, 0), BuildingBlock: KIFKEQ_clean_linker_1, # of connection points: 2
#     Edge 40, Type (0, 0), BuildingBlock: KIFKEQ_clean_linker_1, # of connection points: 2
#     Edge 41, Type (0, 0), BuildingBlock: KIFKEQ_clean_linker_1, # of connection points: 2
#     Edge 42, Type (0, 0), BuildingBlock: KIFKEQ_clean_linker_1, # of connection points: 2
#     Edge 43, Type (0, 0), BuildingBlock: KIFKEQ_clean_linker_1, # of connection points: 2
#     Edge 44, Type (0, 0), BuildingBlock: KIFKEQ_clean_linker_1, # of connection points: 2
#     Edge 45, Type (0, 0), BuildingBlock: KIFKEQ_clean_linker_1, # of connection points: 2
#     Edge 46, Type (0, 0), BuildingBlock: KIFKEQ_clean_linker_1, # of connection points: 2
#     Edge 47, Type (0, 0), BuildingBlock: KIFKEQ_clean_linker_1, # of connection points: 2
# Relax obj value: 0.190
# Max RMSD: 0.229
# Mean RMSD: 0.229
data_MOF--net-uob--node1-KUFVIS_clean_sbu_0--edge1-KIFKEQ_clean_linker_1
_symmetry_space_group_name_H-M    P1
_symmetry_Int_Tables_number       1
_symmetry_cell_setting            triclinic
loop_
_symmetry_equiv_pos_as_xyz
'x, y, z'
_cell_length_a     53.957143
_cell_length_b     53.87313
_cell_length_c     26.968095
_cell_angle_alpha  89.785674
_cell_angle_beta   90.35637
_cell_angle_gamma 89.807762
loop_
_atom_site_label
_atom_site_type_symbol
_atom_site_fract_x
_atom_site_fract_y
_atom_site_fract_z
_atom_type_partial_charge
Mn0 Mn 0.1563 0.06934 0.28904 0.0
Mn1 Mn 0.10605 0.10709 0.28867 0.0
C2 C 0.13718 0.07992 0.36217 0.0
C3 C 0.19961 0.06532 0.2993 0.0
C4 C 0.10381 0.05236 0.26139 0.0
O5 O 0.15696 0.08466 0.21874 0.0
O6 O 0.12501 0.11155 0.22701 0.0
C7 C 0.1322 0.15524 0.29402 0.0
N8 N 0.11518 0.13915 0.31261 0.0
C9 C 0.10463 0.16745 0.37807 0.0
C10 C 0.12182 0.18446 0.35925 0.0
C11 C 0.13574 0.17828 0.31717 0.0
C12 C 0.10189 0.14479 0.3534 0.0
H13 H 0.14308 0.15047 0.26195 0.0
C14 C 0.14303 0.10232 0.20247 0.0
O15 O 0.18657 0.04753 0.2798 0.0
O16 O 0.18794 0.08583 0.30774 0.0
N17 N 0.08589 0.10487 0.3467 0.0
C18 C 0.07076 0.08603 0.36126 0.0
C19 C 0.05584 0.08907 0.40329 0.0
C20 C 0.05643 0.1115 0.42961 0.0
C21 C 0.07192 0.13073 0.41361 0.0
C22 C 0.08619 0.12673 0.37115 0.0
H23 H 0.07008 0.06879 0.34102 0.0
O24 O 0.1513 0.06052 0.36027 0.0
O25 O 0.13489 0.09272 0.32166 0.0
O26 O 0.12665 0.04692 0.2696 0.0
O27 O 0.09495 0.07431 0.26527 0.0
C28 C 0.07402 0.15359 0.4385 0.0
C29 C 0.09044 0.17189 0.42085 0.0
H30 H 0.12467 0.20221 0.37711 0.0
H31 H 0.14919 0.19123 0.30267 0.0
H32 H 0.0439 0.07415 0.41538 0.0
H33 H 0.04496 0.11374 0.46212 0.0
H34 H 0.06335 0.15714 0.47164 0.0
H35 H 0.09216 0.18924 0.44073 0.0
Mn36 Mn 0.95692 0.66289 0.52506 0.0
Mn37 Mn 0.92587 0.60828 0.52887 0.0
C38 C 0.94551 0.64563 0.59957 0.0
C39 C 0.95584 0.70683 0.52777 0.0
C40 C 0.98153 0.61094 0.51955 0.0
O41 O 0.94513 0.65955 0.45264 0.0
O42 O 0.92781 0.62179 0.46097 0.0
C43 C 0.87716 0.63036 0.50247 0.0
N44 N 0.89144 0.61641 0.5338 0.0
C45 C 0.85676 0.6088 0.58736 0.0
C46 C 0.84166 0.62297 0.55552 0.0
C47 C 0.85193 0.63386 0.51298 0.0
C48 C 0.88181 0.60615 0.57519 0.0
H49 H 0.88493 0.63879 0.46973 0.0
C50 C 0.93435 0.6404 0.43475 0.0
O51 O 0.97568 0.69505 0.5137 0.0
O52 O 0.9365 0.69329 0.53498 0.0
N53 N 0.92191 0.59221 0.59175 0.0
C54 C 0.93861 0.5779 0.61709 0.0
C55 C 0.93114 0.56512 0.65991 0.0
C56 C 0.90641 0.56665 0.67554 0.0
C57 C 0.88932 0.58072 0.64788 0.0
C58 C 0.89783 0.59291 0.60532 0.0
H59 H 0.95748 0.57619 0.60465 0.0
O60 O 0.96318 0.66171 0.59761 0.0
O61 O 0.93438 0.64029 0.55813 0.0
O62 O 0.98322 0.6347 0.51539 0.0
O63 O 0.96116 0.59932 0.52583 0.0
C64 C 0.86416 0.58304 0.66075 0.0
C65 C 0.84792 0.59721 0.63069 0.0
H66 H 0.82217 0.62564 0.56341 0.0
H67 H 0.84042 0.64489 0.48829 0.0
H68 H 0.94438 0.55403 0.68069 0.0
H69 H 0.9007 0.55678 0.70859 0.0
H70 H 0.85711 0.57402 0.69372 0.0
H71 H 0.82863 0.59893 0.64105 0.0
Mn72 Mn 0.36266 0.44457 0.77458 0.0
Mn73 Mn 0.40564 0.40097 0.80261 0.0
C74 C 0.37673 0.44076 0.85421 0.0
C75 C 0.31957 0.45236 0.77065 0.0
C76 C 0.4188 0.4509 0.75683 0.0
O77 O 0.36328 0.42342 0.71226 0.0
O78 O 0.39071 0.39426 0.73669 0.0
C79 C 0.3699 0.35982 0.81393 0.0
N80 N 0.3883 0.37415 0.83323 0.0
C81 C 0.38624 0.35284 0.91168 0.0
C82 C 0.36738 0.33774 0.89254 0.0
C83 C 0.35914 0.34129 0.84348 0.0
C84 C 0.39612 0.37112 0.88059 0.0
H85 H 0.36342 0.3626 0.77634 0.0
C86 C 0.37593 0.40376 0.70452 0.0
O87 O 0.33509 0.46731 0.749 0.0
O88 O 0.32894 0.43279 0.79079 0.0
N89 N 0.42226 0.40448 0.86507 0.0
C90 C 0.4421 0.41908 0.87625 0.0
C91 C 0.45335 0.41711 0.92323 0.0
C92 C 0.44438 0.39985 0.95789 0.0
C93 C 0.42466 0.38428 0.94475 0.0
C94 C 0.41443 0.38687 0.89714 0.0
H95 H 0.44921 0.43221 0.84957 0.0
O96 O 0.36496 0.46053 0.84049 0.0
O97 O 0.37894 0.42323 0.82157 0.0
O98 O 0.39669 0.4602 0.75481 0.0
O99 O 0.42375 0.429 0.77303 0.0
C100 C 0.41497 0.36605 0.97676 0.0
C101 C 0.39565 0.35046 0.96036 0.0
H102 H 0.35908 0.32338 0.91517 0.0
H103 H 0.34453 0.32977 0.82851 0.0
H104 H 0.46882 0.42893 0.93279 0.0
H105 H 0.45293 0.39855 -0.00574 0.0
H106 H 0.42232 0.3638 0.01399 0.0
H107 H 0.38834 0.33653 0.98531 0.0
Mn108 Mn 0.57209 0.89408 0.04232 0.0
Mn109 Mn 0.61786 0.93627 0.05369 0.0
C110 C 0.5815 0.91082 0.11823 0.0
C111 C 0.56158 0.85171 0.05066 0.0
C112 C 0.56681 0.94875 0.01133 0.0
O113 O 0.59099 0.89017 0.97722 0.0
O114 O 0.62244 0.9168 -0.00767 0.0
C115 C 0.6605 0.9023 0.06864 0.0
N116 N 0.64624 0.9215 0.08478 0.0
C117 C 0.67168 0.92645 0.15768 0.0
C118 C 0.68675 0.90683 0.14167 0.0
C119 C 0.6811 0.89468 0.09701 0.0
C120 C 0.65152 0.93335 0.12766 0.0
H121 H 0.65616 0.89285 0.03445 0.0
C122 C 0.61149 0.90056 0.96543 0.0
O123 O 0.54672 0.86711 0.0278 0.0
O124 O 0.58267 0.8605 0.06437 0.0
N125 N 0.61553 0.9561 0.11227 0.0
C126 C 0.5981 0.9734 0.12425 0.0
C127 C 0.6004 0.98652 0.16894 0.0
C128 C 0.62065 0.98184 0.20065 0.0
C129 C 0.63845 0.9641 0.18735 0.0
C130 C 0.63527 0.95171 0.1422 0.0
H131 H 0.58248 0.97703 0.10008 0.0
O132 O 0.56003 0.9009 0.11065 0.0
O133 O 0.59667 0.91075 0.08122 0.0
O134 O 0.5566 0.92738 0.01717 0.0
O135 O 0.58939 0.95317 0.02271 0.0
C136 C 0.6589 0.9578 0.21768 0.0
C137 C 0.6755 0.93899 0.20285 0.0
H138 H 0.70253 0.90076 0.16363 0.0
H139 H 0.69256 0.87943 0.08456 0.0
H140 H 0.58655 1.00014 0.17901 0.0
H141 H 0.62222 0.99182 0.23533 0.0
H142 H 0.66177 0.96699 0.2529 0.0
H143 H 0.69091 0.93402 0.22688 0.0
Mn144 Mn 0.12557 0.42694 -0.01284 0.0
Mn145 Mn 0.0879 0.37901 0.01223 0.0
C146 C 0.11181 0.40056 0.92536 0.0
C147 C 0.1658 0.44119 0.96824 0.0
C148 C 0.06997 0.43254 0.00844 0.0
O149 O 0.13057 0.42293 0.06201 0.0
O150 O 0.10471 0.39042 0.0736 0.0
C151 C 0.12635 0.34204 0.0399 0.0
N152 N 0.10724 0.34922 0.00982 0.0
C153 C 0.11156 0.31251 0.95997 0.0
C154 C 0.13119 0.30466 -0.00939 0.0
C155 C 0.13861 0.3195 0.03073 0.0
C156 C 0.09999 0.33511 0.97103 0.0
H157 H 0.13227 0.35347 0.07053 0.0
C158 C 0.1201 0.40667 0.08971 0.0
O159 O 0.14819 0.45674 0.9793 0.0
O160 O 0.16059 0.41799 0.97346 0.0
N161 N 0.07127 0.36644 0.95467 0.0
C162 C 0.05201 0.37665 0.92874 0.0
C163 C 0.04224 0.36403 0.88757 0.0
C164 C 0.05241 0.3411 0.87347 0.0
C165 C 0.07208 0.33085 0.90102 0.0
C166 C 0.08083 0.34413 0.94206 0.0
H167 H 0.04422 0.39434 0.93927 0.0
O168 O 0.11795 0.42324 0.91536 0.0
O169 O 0.11275 0.39461 0.97172 0.0
O170 O 0.09105 0.4422 -0.00122 0.0
O171 O 0.06674 0.40914 0.01368 0.0
C172 C 0.08339 0.30802 0.88929 0.0
C173 C 0.10315 0.29888 0.9187 0.0
H174 H 0.14075 0.28733 0.98357 0.0
H175 H 0.15381 0.31362 0.05442 0.0
H176 H 0.02703 0.37204 0.86656 0.0
H177 H 0.04497 0.33153 0.84144 0.0
H178 H 0.07709 0.29737 0.85765 0.0
H179 H 0.11175 0.28135 0.90921 0.0
Mn180 Mn 0.56081 0.65504 0.2712 0.0
Mn181 Mn 0.60333 0.60876 0.27352 0.0
C182 C 0.57073 0.63468 0.19955 0.0
C183 C 0.55426 0.69795 0.25758 0.0
C184 C 0.54984 0.60185 0.30599 0.0
O185 O 0.57685 0.65889 0.33964 0.0
O186 O 0.60669 0.62965 0.3333 0.0
C187 C 0.64829 0.63955 0.2627 0.0
N188 N 0.63378 0.62055 0.24662 0.0
C189 C 0.66209 0.61112 0.18068 0.0
C190 C 0.67745 0.63048 0.19675 0.0
C191 C 0.67048 0.64479 0.23786 0.0
C192 C 0.64025 0.60672 0.20701 0.0
H193 H 0.64294 0.65063 0.29419 0.0
C194 C 0.59573 0.64712 0.35666 0.0
O195 O 0.53739 0.68446 0.27897 0.0
O196 O 0.57496 0.687 0.24831 0.0
N197 N 0.60246 0.5868 0.21792 0.0
C198 C 0.58506 0.56951 0.2059 0.0
C199 C 0.58889 0.55405 0.16482 0.0
C200 C 0.6107 0.55626 0.13699 0.0
C201 C 0.62856 0.57383 0.15069 0.0
C202 C 0.62379 0.58865 0.19214 0.0
H203 H 0.5683 0.56766 0.22724 0.0
O204 O 0.55057 0.64758 0.20215 0.0
O205 O 0.58509 0.63472 0.23836 0.0
O206 O 0.54167 0.62381 0.29597 0.0
O207 O 0.57241 0.59518 0.30027 0.0
C208 C 0.65066 0.57763 0.12417 0.0
C209 C 0.66738 0.5963 0.13908 0.0
H210 H 0.69452 0.63464 0.17757 0.0
H211 H 0.68217 0.65984 0.25032 0.0
H212 H 0.57504 0.5405 0.15454 0.0
H213 H 0.61346 0.54449 0.10501 0.0
H214 H 0.65479 0.56655 0.0918 0.0
H215 H 0.68413 0.59927 0.11798 0.0
Mn216 Mn 0.40243 0.07346 0.49445 0.0
Mn217 Mn 0.44648 0.11642 0.47341 0.0
C218 C 0.4174 0.07948 0.41606 0.0
C219 C 0.35935 0.06555 0.49148 0.0
C220 C 0.45756 0.066 0.52029 0.0
O221 O 0.40136 0.09443 0.55731 0.0
O222 O 0.42943 0.12369 0.53668 0.0
C223 C 0.41433 0.16045 0.45817 0.0
N224 N 0.43213 0.14471 0.44117 0.0
C225 C 0.43561 0.16774 0.36489 0.0
C226 C 0.41742 0.18429 0.38171 0.0
C227 C 0.40671 0.1806 0.42851 0.0
C228 C 0.44261 0.14813 0.39625 0.0
H229 H 0.40599 0.15762 0.49404 0.0
C230 C 0.41338 0.11441 0.56627 0.0
O231 O 0.37436 0.05033 0.51446 0.0
O232 O 0.36906 0.08555 0.47438 0.0
N233 N 0.46412 0.11148 0.41282 0.0
C234 C 0.48005 0.09283 0.40063 0.0
C235 C 0.49159 0.09315 0.3541 0.0
C236 C 0.48674 0.11268 0.32073 0.0
C237 C 0.47042 0.13176 0.33424 0.0
C238 C 0.45959 0.13054 0.38125 0.0
H239 H 0.48378 0.07773 0.42608 0.0
O240 O 0.40664 0.05885 0.42739 0.0
O241 O 0.4192 0.09583 0.45102 0.0
O242 O 0.43554 0.05685 0.51824 0.0
O243 O 0.46284 0.08789 0.50535 0.0
C244 C 0.464 0.1516 0.30244 0.0
C245 C 0.44662 0.16959 0.31776 0.0
H246 H 0.41134 0.19973 0.35879 0.0
H247 H 0.39257 0.19321 0.44163 0.0
H248 H 0.50411 0.07832 0.34388 0.0
H249 H 0.49548 0.11272 0.28468 0.0
H250 H 0.47199 0.15296 0.26577 0.0
H251 H 0.44154 0.18453 0.29266 0.0
Mn252 Mn 0.92606 0.91322 0.72496 0.0
Mn253 Mn 0.87935 0.95306 0.7469 0.0
C254 C 0.90207 0.92962 0.66126 0.0
C255 C 0.93794 0.87218 0.70351 0.0
C256 C 0.93357 0.96828 0.75139 0.0
O257 O 0.91962 0.90701 0.79857 0.0
O258 O 0.88832 0.93468 0.80838 0.0
C259 C 0.84012 0.91611 0.767 0.0
N260 N 0.84893 0.93528 0.73923 0.0
C261 C 0.81387 0.93319 0.68376 0.0
C262 C 0.80435 0.91354 0.71198 0.0
C263 C 0.81754 0.90498 0.75378 0.0
C264 C 0.83637 0.94368 0.69895 0.0
H265 H 0.8503 0.90926 0.79884 0.0
C266 C 0.90327 0.918 0.82511 0.0
O267 O 0.95438 0.88812 0.71868 0.0
O268 O 0.9152 0.87926 0.70653 0.0
N269 N 0.86918 0.97112 0.68886 0.0
C270 C 0.88116 0.98986 0.66499 0.0
C271 C 0.87048 1.00044 0.62221 0.0
C272 C 0.84766 0.99159 0.60435 0.0
C273 C 0.83562 0.97236 0.62967 0.0
C274 C 0.84701 0.96276 0.67247 0.0
H275 H 0.89882 0.99657 0.67831 0.0
O276 O 0.92465 0.92249 0.65339 0.0
O277 O 0.89506 0.92825 0.70677 0.0
O278 O 0.94271 0.94681 0.74177 0.0
O279 O 0.91024 0.97252 0.7536 0.0
C280 C 0.81291 0.96216 0.61382 0.0
C281 C 0.80204 0.94258 0.64083 0.0
H282 H 0.78702 0.9048 0.70174 0.0
H283 H 0.81037 0.88973 0.7756 0.0
H284 H 0.8799 0.01525 0.60283 0.0
H285 H 0.8396 0.99962 0.57105 0.0
H286 H 0.8037 0.96913 0.58074 0.0
H287 H 0.78465 0.9348 0.62811 0.0
Mn288 Mn 0.62739 0.56491 0.78623 0.0
Mn289 Mn 0.58006 0.6057 0.79584 0.0
C290 C 0.60983 0.57268 0.86186 0.0
C291 C 0.67071 0.55931 0.79385 0.0
C292 C 0.57369 0.55319 0.75645 0.0
O293 O 0.62865 0.58367 0.72007 0.0
O294 O 0.59874 0.61222 0.73423 0.0
C295 C 0.60881 0.65192 0.80918 0.0
N296 N 0.59142 0.63569 0.82585 0.0
C297 C 0.58378 0.66065 0.89804 0.0
C298 C 0.60147 0.67773 0.88144 0.0
C299 C 0.61407 0.67331 0.83687 0.0
C300 C 0.57917 0.63976 0.86867 0.0
H301 H 0.61862 0.64853 0.77508 0.0
C302 C 0.61601 0.60293 0.70759 0.0
O303 O 0.65704 0.54266 0.77208 0.0
O304 O 0.6596 0.57939 0.80699 0.0
N305 N 0.56071 0.60144 0.85453 0.0
C306 C 0.5455 0.5823 0.86707 0.0
C307 C 0.53226 0.58332 0.91169 0.0
C308 C 0.53467 0.60404 0.94278 0.0
C309 C 0.55026 0.62361 0.92889 0.0
C310 C 0.56285 0.62164 0.88381 0.0
H311 H 0.54362 0.56629 0.84339 0.0
O312 O 0.62247 0.55256 0.85513 0.0
O313 O 0.60796 0.58765 0.82428 0.0
O314 O 0.59609 0.54548 0.76289 0.0
O315 O 0.56661 0.57531 0.76598 0.0
C316 C 0.55425 0.64471 0.95858 0.0
C317 C 0.571 0.66321 0.94316 0.0
H318 H 0.60573 0.69415 0.90288 0.0
H319 H 0.62785 0.68634 0.82398 0.0
H320 H 0.52031 0.56812 0.92221 0.0
H321 H 0.52463 0.60464 0.97742 0.0
H322 H 0.54486 0.64667 -0.00626 0.0
H323 H 0.57421 0.67914 0.9667 0.0
Mn324 Mn 0.46236 0.16212 0.00754 0.0
Mn325 Mn 0.41696 0.11908 -0.00183 0.0
C326 C 0.44872 0.14207 0.07712 0.0
C327 C 0.47159 0.20425 0.02236 0.0
C328 C 0.47104 0.10797 0.97564 0.0
O329 O 0.44939 0.16752 0.93699 0.0
O330 O 0.41778 0.14029 0.93828 0.0
C331 C 0.37434 0.15376 0.00142 0.0
N332 N 0.38646 0.13344 0.01965 0.0
C333 C 0.35459 0.12631 0.08001 0.0
C334 C 0.34165 0.14704 0.0616 0.0
C335 C 0.35162 0.16087 0.02224 0.0
C336 C 0.37713 0.12011 0.05772 0.0
H337 H 0.382 0.16448 0.9713 0.0
C338 C 0.43054 0.15718 0.91705 0.0
O339 O 0.48812 0.18948 0.00334 0.0
O340 O 0.4498 0.19505 0.02844 0.0
N341 N 0.41349 0.09689 0.05325 0.0
C342 C 0.42861 0.07781 0.06755 0.0
C343 C 0.42157 0.06245 0.10719 0.0
C344 C 0.39888 0.06654 0.13108 0.0
C345 C 0.38332 0.08587 0.11486 0.0
C346 C 0.39127 0.10052 0.07504 0.0
H347 H 0.44601 0.07446 0.04917 0.0
O348 O 0.46956 0.15379 0.07754 0.0
O349 O 0.43557 0.14338 0.03663 0.0
O350 O 0.48011 0.12946 0.98593 0.0
O351 O 0.44789 0.10299 0.97729 0.0
C352 C 0.36049 0.09152 0.13734 0.0
C353 C 0.34617 0.11177 0.12002 0.0
H354 H 0.32415 0.15262 0.07765 0.0
H355 H 0.34181 0.17697 0.00802 0.0
H356 H 0.43364 0.04751 0.11936 0.0
H357 H 0.39363 0.0548 0.16195 0.0
H358 H 0.35393 0.08061 0.16837 0.0
H359 H 0.3288 0.11611 0.13798 0.0
Mn360 Mn 0.90348 0.9294 0.2981 0.0
Mn361 Mn 0.94125 0.88103 0.27563 0.0
C362 C 0.91766 0.90386 0.36139 0.0
C363 C 0.86313 0.94385 0.31648 0.0
C364 C 0.95905 0.93452 0.27593 0.0
O365 O 0.89824 0.92445 0.22368 0.0
O366 O 0.92418 0.89173 0.21376 0.0
C367 C 0.90282 0.84388 0.2509 0.0
N368 N 0.92201 0.85136 0.28024 0.0
C369 C 0.91795 0.81532 0.33256 0.0
C370 C 0.89824 0.80717 0.30273 0.0
C371 C 0.89064 0.82152 0.26174 0.0
C372 C 0.92942 0.83772 0.31986 0.0
H373 H 0.89676 0.85493 0.2196 0.0
C374 C 0.90865 0.90782 0.19687 0.0
O375 O 0.88062 0.95928 0.30444 0.0
O376 O 0.86853 0.92061 0.31276 0.0
N377 N 0.95815 0.86908 0.33369 0.0
C378 C 0.97759 0.87945 0.35847 0.0
C379 C 0.98759 0.86727 0.4002 0.0
C380 C 0.97748 0.84461 0.41605 0.0
C381 C 0.95766 0.83417 0.38961 0.0
C382 C 0.94868 0.847 0.34793 0.0
H383 H 0.98534 0.89693 0.34659 0.0
O384 O 0.9114 0.92665 0.36992 0.0
O385 O 0.91652 0.89724 0.31551 0.0
O386 O 0.93796 0.94442 0.28509 0.0
O387 O 0.96229 0.91105 0.27204 0.0
C388 C 0.94643 0.81157 0.40304 0.0
C389 C 0.92656 0.80217 0.37458 0.0
H390 H 0.88875 0.78998 0.31104 0.0
H391 H 0.87538 0.81541 0.23865 0.0
H392 H 1.00294 0.87542 0.42031 0.0
H393 H 0.9851 0.83539 0.44851 0.0
H394 H 0.9529 0.80128 0.43523 0.0
H395 H 0.91803 0.78481 0.38535 0.0
Mn396 Mn 0.10355 0.40951 0.56303 0.0
Mn397 Mn 0.15187 0.4475 0.54339 0.0
C398 C 0.12912 0.4219 0.62746 0.0
C399 C 0.08948 0.36844 0.57694 0.0
C400 C 0.09833 0.46555 0.54351 0.0
O401 O 0.10854 0.4063 0.48817 0.0
O402 O 0.14198 0.4313 0.48044 0.0
C403 C 0.18964 0.40952 0.51907 0.0
N404 N 0.18167 0.4283 0.54871 0.0
C405 C 0.2172 0.42371 0.60245 0.0
C406 C 0.22585 0.40441 0.57232 0.0
C407 C 0.212 0.39729 0.53047 0.0
C408 C 0.19483 0.43527 0.58913 0.0
H409 H 0.17896 0.40384 0.48709 0.0
C410 C 0.12559 0.41661 0.46234 0.0
O411 O 0.07393 0.38632 0.567 0.0
O412 O 0.11264 0.37407 0.5742 0.0
N413 N 0.16297 0.46359 0.6027 0.0
C414 C 0.15197 0.48243 0.62807 0.0
C415 C 0.16353 0.49183 0.67084 0.0
C416 C 0.18622 0.48174 0.68712 0.0
C417 C 0.19727 0.46248 0.66017 0.0
C418 C 0.18503 0.45409 0.61749 0.0
H419 H 0.13447 0.49017 0.61587 0.0
O420 O 0.10645 0.41531 0.63562 0.0
O421 O 0.13553 0.42207 0.58146 0.0
O422 O 0.08839 0.44451 0.55322 0.0
O423 O 0.12174 0.46854 0.5389 0.0
C424 C 0.21986 0.4512 0.67415 0.0
C425 C 0.2298 0.43179 0.64537 0.0
H426 H 0.24304 0.39487 0.58107 0.0
H427 H 0.2185 0.38235 0.50715 0.0
H428 H 0.1549 0.50671 0.6914 0.0
H429 H 0.19496 0.48887 0.72038 0.0
H430 H 0.22971 0.45727 0.70704 0.0
H431 H 0.24713 0.42319 0.65663 0.0
Mn432 Mn 0.66715 0.95211 0.53041 0.0
Mn433 Mn 0.6202 0.91055 0.52755 0.0
C434 C 0.64876 0.94229 0.45636 0.0
C435 C 0.71048 0.95759 0.52346 0.0
C436 C 0.61307 0.96458 0.55683 0.0
O437 O 0.66868 0.93654 0.59956 0.0
O438 O 0.63936 0.90722 0.58991 0.0
C439 C 0.65069 0.8649 0.52175 0.0
N440 N 0.63225 0.87958 0.5031 0.0
C441 C 0.62365 0.85046 0.43785 0.0
C442 C 0.64245 0.83493 0.45655 0.0
C443 C 0.65607 0.84223 0.49858 0.0
C444 C 0.61913 0.87282 0.46251 0.0
H445 H 0.6612 0.87048 0.55403 0.0
C446 C 0.65629 0.91794 0.61529 0.0
O447 O 0.69657 0.97494 0.54221 0.0
O448 O 0.69955 0.93707 0.51274 0.0
N449 N 0.59962 0.91123 0.46949 0.0
C450 C 0.5827 0.92872 0.45515 0.0
C451 C 0.56785 0.92451 0.41308 0.0
C452 C 0.57021 0.90219 0.38674 0.0
C453 C 0.58734 0.88423 0.40286 0.0
C454 C 0.60158 0.88943 0.44514 0.0
H455 H 0.58065 0.94584 0.47544 0.0
O456 O 0.66213 0.96202 0.46035 0.0
O457 O 0.64733 0.92805 0.49525 0.0
O458 O 0.63542 0.97217 0.5498 0.0
O459 O 0.60633 0.94201 0.55148 0.0
C460 C 0.59127 0.86162 0.37797 0.0
C461 C 0.60946 0.84478 0.39535 0.0
H462 H 0.64669 0.81745 0.43873 0.0
H463 H 0.67068 0.8304 0.51308 0.0
H464 H 0.55463 0.93844 0.40095 0.0
H465 H 0.5589 0.89912 0.35403 0.0
H466 H 0.58064 0.85715 0.345 0.0
H467 H 0.61253 0.8276 0.37553 0.0
Mn468 Mn 0.0747 0.16213 0.76582 0.0
Mn469 Mn 0.10951 0.10979 0.76062 0.0
C470 C 0.08365 0.14428 0.69052 0.0
C471 C 0.07392 0.20603 0.76133 0.0
C472 C 0.05476 0.1098 0.78724 0.0
O473 O 0.08992 0.15994 0.83608 0.0
O474 O 0.11498 0.1269 0.82424 0.0
C475 C 0.15885 0.13361 0.75804 0.0
N476 N 0.14196 0.11783 0.73777 0.0
C477 C 0.16991 0.10689 0.67214 0.0
C478 C 0.18771 0.12284 0.69258 0.0
C479 C 0.18211 0.13633 0.7356 0.0
C480 C 0.14704 0.10499 0.69607 0.0
H481 H 0.15457 0.14406 0.791 0.0
C482 C 0.10674 0.14467 0.85084 0.0
O483 O 0.05516 0.19372 0.77883 0.0
O484 O 0.09337 0.19309 0.75103 0.0
N485 N 0.10637 0.09098 0.70084 0.0
C486 C 0.08696 0.07683 0.68518 0.0
C487 C 0.08951 0.06218 0.64255 0.0
C488 C 0.11207 0.06197 0.61684 0.0
C489 C 0.13186 0.07646 0.63391 0.0
C490 C 0.12831 0.09049 0.67692 0.0
H491 H 0.06967 0.07666 0.70509 0.0
O492 O 0.06543 0.15978 0.69431 0.0
O493 O 0.09655 0.14011 0.73042 0.0
O494 O 0.05052 0.13316 0.78165 0.0
O495 O 0.07622 0.09994 0.78268 0.0
C496 C 0.15488 0.07773 0.60969 0.0
C497 C 0.17385 0.09304 0.62864 0.0
H498 H 0.20566 0.12502 0.67535 0.0
H499 H 0.19569 0.1488 0.75141 0.0
H500 H 0.07416 0.05101 0.62963 0.0
H501 H 0.11399 0.0506 0.58405 0.0
H502 H 0.15809 0.06724 0.57613 0.0
H503 H 0.19136 0.09412 0.60933 0.0
Mn504 Mn 0.87249 0.5684 5e-05 0.0
Mn505 Mn 0.92191 0.60692 -0.00056 0.0
C506 C 0.89069 0.57995 0.92644 0.0
C507 C 0.8293 0.56349 -0.00871 0.0
C508 C 0.92558 0.55195 0.02515 0.0
O509 O 0.87223 0.58293 0.07085 0.0
O510 O 0.90347 0.6104 0.06192 0.0
C511 C 0.89455 0.65464 -0.00364 0.0
N512 N 0.91178 0.63905 0.97673 0.0
C513 C 0.92118 0.66828 0.91188 0.0
C514 C 0.90373 0.68477 0.93172 0.0
C515 C 0.89029 0.67787 0.97402 0.0
C516 C 0.9246 0.64538 0.93569 0.0
H517 H 0.88409 0.64934 0.02868 0.0
C518 C 0.88597 0.60062 0.08701 0.0
O519 O 0.84303 0.54585 0.01001 0.0
O520 O 0.84022 0.58439 0.98298 0.0
N521 N 0.94164 0.6057 0.94075 0.0
C522 C 0.95736 0.58743 0.92557 0.0
C523 C 0.97217 0.59135 0.88366 0.0
C524 C 0.97089 0.61408 0.85813 0.0
C525 C 0.95474 0.63269 0.87466 0.0
C526 C 0.94065 0.62783 0.91702 0.0
H527 H 0.95865 0.57 0.94532 0.0
O528 O 0.87698 0.56034 0.92846 0.0
O529 O 0.89308 0.59245 0.9671 0.0
O530 O 0.90278 0.54632 0.01778 0.0
O531 O 0.93398 0.57406 0.02149 0.0
C532 C 0.95194 0.65579 0.85058 0.0
C533 C 0.93507 0.67352 0.86902 0.0
H534 H 0.90035 0.70268 0.91455 0.0
H535 H 0.87666 0.69042 -0.01066 0.0
H536 H 0.98462 0.57691 0.87116 0.0
H537 H 0.9824 0.61706 0.82593 0.0
H538 H 0.96244 0.66 0.81751 0.0
H539 H 0.93283 0.69109 0.8498 0.0
Mn540 Mn 0.45127 0.39014 0.26707 0.0
Mn541 Mn 0.40094 0.42712 0.27711 0.0
C542 C 0.43573 0.41083 0.19894 0.0
C543 C 0.46504 0.34966 0.24751 0.0
C544 C 0.45297 0.44355 0.3068 0.0
O545 O 0.43789 0.38065 0.33543 0.0
O546 O 0.40313 0.40404 0.3341 0.0
C547 C 0.36366 0.38749 0.2633 0.0
N548 N 0.37338 0.40971 0.24922 0.0
C549 C 0.34436 0.41321 0.18138 0.0
C550 C 0.33382 0.39055 0.19563 0.0
C551 C 0.34356 0.3776 0.23668 0.0
C552 C 0.36436 0.42214 0.20935 0.0
H553 H 0.37132 0.37727 0.29432 0.0
C554 C 0.41739 0.38784 0.35427 0.0
O555 O 0.47981 0.36528 0.2695 0.0
O556 O 0.44257 0.35704 0.24058 0.0
N557 N 0.39607 0.4504 0.22408 0.0
C558 C 0.40791 0.47235 0.21603 0.0
C559 C 0.40015 0.48777 0.17676 0.0
C560 C 0.38014 0.48061 0.14652 0.0
C561 C 0.36782 0.45827 0.15635 0.0
C562 C 0.37613 0.44388 0.19652 0.0
H563 H 0.42323 0.47802 0.23921 0.0
O564 O 0.45799 0.40195 0.19831 0.0
O565 O 0.42301 0.40657 0.23854 0.0
O566 O 0.46458 0.42352 0.29484 0.0
O567 O 0.42935 0.44602 0.30379 0.0
C568 C 0.34762 0.44973 0.12786 0.0
C569 C 0.33599 0.42715 0.14021 0.0
H570 H 0.31836 0.38283 0.17511 0.0
H571 H 0.33567 0.35999 0.24764 0.0
H572 H 0.40963 0.50509 0.16968 0.0
H573 H 0.37438 0.49242 0.11593 0.0
H574 H 0.34095 0.46034 0.09627 0.0
H575 H 0.32059 0.42068 0.11782 0.0
H576 H 0.34195 0.02381 0.44507 0.0
H577 H 0.31934 0.09547 0.49911 0.0
H578 H 0.30385 0.02137 0.39508 0.0
H579 H 0.28104 0.09281 0.45137 0.0
H580 H 0.2342 0.10078 0.31617 0.0
H581 H 0.2715 0.09757 0.36669 0.0
H582 H 0.25909 0.01893 0.38535 0.0
H583 H 0.22186 0.02216 0.33285 0.0
C584 C 0.32827 0.03848 0.44813 0.0
C585 C 0.3335 0.05971 0.47653 0.0
C586 C 0.30651 0.03725 0.41898 0.0
C587 C 0.28953 0.05723 0.41777 0.0
C588 C 0.29395 0.07741 0.44972 0.0
C589 C 0.31571 0.07874 0.4781 0.0
C590 C 0.23969 0.08267 0.33009 0.0
C591 C 0.22501 0.06175 0.32028 0.0
C592 C 0.26094 0.08086 0.35992 0.0
C593 C 0.26809 0.05811 0.38176 0.0
C594 C 0.25422 0.0368 0.36954 0.0
C595 C 0.23293 0.0386 0.33907 0.0
H596 H 0.97824 0.83943 0.71124 0.0
H597 H 0.91116 0.85372 0.62799 0.0
H598 H 0.98455 0.80095 0.66348 0.0
H599 H 0.91798 0.81692 0.5792 0.0
H600 H 0.91548 0.73497 0.54813 0.0
H601 H 0.9136 0.77474 0.58877 0.0
H602 H 0.9935 0.77959 0.58609 0.0
H603 H 0.99532 0.73855 0.54648 0.0
C604 C 0.96499 0.8345 0.68263 0.0
C605 C 0.94381 0.84931 0.67455 0.0
C606 C 0.96867 0.81254 0.65488 0.0
C607 C 0.95148 0.80525 0.61787 0.0
C608 C 0.93118 0.82107 0.60838 0.0
C609 C 0.92728 0.84241 0.63651 0.0
C610 C 0.93273 0.74457 0.5553 0.0
C611 C 0.95554 0.73344 0.54356 0.0
C612 C 0.93167 0.76766 0.57869 0.0
C613 C 0.95339 0.78081 0.59095 0.0
C614 C 0.97634 0.77006 0.57785 0.0
C615 C 0.9774 0.74666 0.55437 0.0
H616 H 0.30015 0.49412 0.81353 0.0
H617 H 0.28037 0.42218 0.75664 0.0
H618 H 0.26147 0.49524 0.86129 0.0
H619 H 0.24185 0.42337 0.80328 0.0
H620 H 0.17781 0.48573 0.92217 0.0
H621 H 0.21258 0.49294 0.865 0.0
H622 H 0.24006 0.41917 0.896 0.0
H623 H 0.206 0.41209 0.95247 0.0
C624 C 0.28693 0.47919 0.80908 0.0
C625 C 0.29322 0.45812 0.78104 0.0
C626 C 0.2649 0.47968 0.83693 0.0
C627 C 0.24889 0.45908 0.83721 0.0
C628 C 0.25404 0.43929 0.80492 0.0
C629 C 0.27595 0.43876 0.77748 0.0
C630 C 0.19165 0.47133 0.91762 0.0
C631 C 0.18903 0.44831 0.94201 0.0
C632 C 0.21144 0.47539 0.88455 0.0
C633 C 0.22876 0.45639 0.87489 0.0
C634 C 0.22673 0.43398 0.9014 0.0
C635 C 0.20727 0.43003 0.93437 0.0
H636 H 0.5905 0.81082 0.05389 0.0
H637 H 0.51767 0.83695 0.09318 0.0
H638 H 0.58513 0.77451 0.10649 0.0
H639 H 0.51234 0.80051 0.14741 0.0
H640 H 0.51185 0.71723 0.21402 0.0
H641 H 0.50984 0.7536 0.15848 0.0
H642 H 0.58567 0.77105 0.19615 0.0
H643 H 0.5877 0.73488 0.25012 0.0
C644 C 0.57298 0.80839 0.0727 0.0
C645 C 0.55448 0.8267 0.06902 0.0
C646 C 0.57004 0.78775 0.10365 0.0
C647 C 0.54861 0.78489 0.13261 0.0
C648 C 0.52914 0.80215 0.12593 0.0
C649 C 0.53207 0.82291 0.09441 0.0
C650 C 0.52775 0.72937 0.21158 0.0
C651 C 0.54994 0.72318 0.23655 0.0
C652 C 0.5267 0.75008 0.17936 0.0
C653 C 0.54784 0.76489 0.17153 0.0
C654 C 0.56926 0.75968 0.19982 0.0
C655 C 0.57033 0.73911 0.23149 0.0
H656 H 0.69031 0.51791 0.83943 0.0
H657 H 0.70843 0.59216 0.79259 0.0
H658 H 0.72789 0.51665 0.89118 0.0
H659 H 0.74626 0.59072 0.84194 0.0
H660 H 0.79295 0.59778 0.97694 0.0
H661 H 0.75578 0.59394 0.92628 0.0
H662 H 0.77221 0.51635 0.90251 0.0
H663 H 0.80915 0.52017 0.95536 0.0
C664 C 0.70288 0.53354 0.83852 0.0
C665 C 0.6965 0.55508 0.81162 0.0
C666 C 0.72435 0.53295 0.86862 0.0
C667 C 0.73994 0.55388 0.87221 0.0
C668 C 0.7344 0.57455 0.84189 0.0
C669 C 0.7129 0.57524 0.81262 0.0
C670 C 0.78833 0.57974 0.96193 0.0
C671 C 0.80402 0.5593 0.97043 0.0
C672 C 0.76717 0.57758 0.93199 0.0
C673 C 0.76119 0.55499 0.90862 0.0
C674 C 0.77612 0.53409 0.91954 0.0
C675 C 0.79725 0.53621 0.9502 0.0
H676 H 0.50888 0.33863 0.19948 0.0
H677 H 0.43798 0.30796 0.23928 0.0
H678 H 0.515 0.30445 0.14006 0.0
H679 H 0.44402 0.27424 0.18092 0.0
H680 H 0.4405 0.24341 0.02938 0.0
H681 H 0.44357 0.27793 0.08691 0.0
H682 H 0.51746 0.25467 0.12823 0.0
H683 H 0.51439 0.21974 0.06968 0.0
C684 C 0.49509 0.32412 0.19702 0.0
C685 C 0.47294 0.32599 0.22413 0.0
C686 C 0.49847 0.3047 0.16264 0.0
C687 C 0.47968 0.287 0.15479 0.0
C688 C 0.45859 0.28788 0.18508 0.0
C689 C 0.45525 0.30708 0.21904 0.0
C690 C 0.45774 0.24603 0.04951 0.0
C691 C 0.47717 0.22878 0.04491 0.0
C692 C 0.4594 0.26568 0.08297 0.0
C693 C 0.4805 0.26868 0.11321 0.0
C694 C 0.5009 0.25277 0.10568 0.0
C695 C 0.49923 0.23292 0.07181 0.0
H696 H 0.82195 0.91589 0.32805 0.0
H697 H 0.85179 0.98772 0.36515 0.0
H698 H 0.78756 0.92277 0.3839 0.0
H699 H 0.81687 0.99469 0.42201 0.0
H700 H 0.73136 0.99889 0.47991 0.0
H701 H 0.769 0.99911 0.42876 0.0
H702 H 0.78499 0.924 0.47533 0.0
H703 H 0.74752 0.9237 0.52514 0.0
C704 C 0.82096 0.93342 0.34751 0.0
C705 C 0.83975 0.95122 0.34196 0.0
C706 C 0.80131 0.93725 0.38014 0.0
C707 C 0.7997 0.95903 0.40859 0.0
C708 C 0.8176 0.97764 0.40092 0.0
C709 C 0.8375 0.97374 0.36803 0.0
C710 C 0.74346 0.98281 0.4806 0.0
C711 C 0.73642 0.96124 0.50651 0.0
C712 C 0.76493 0.98285 0.45094 0.0
C713 C 0.77967 0.96131 0.44672 0.0
C714 C 0.77373 0.94068 0.47646 0.0
C715 C 0.75238 0.9406 0.50561 0.0
H716 H 0.04737 0.35579 0.62947 0.0
H717 H 0.11628 0.32585 0.5754 0.0
H718 H 0.04129 0.31806 0.67961 0.0
H719 H 0.11009 0.28837 0.62386 0.0
H720 H 0.11213 0.23835 0.75386 0.0
H721 H 0.11295 0.27766 0.70942 0.0
H722 H 0.03413 0.2726 0.68301 0.0
H723 H 0.03329 0.2332 0.72927 0.0
C724 C 0.06084 0.3409 0.62712 0.0
C725 C 0.08233 0.3439 0.59834 0.0
C726 C 0.05746 0.31931 0.65616 0.0
C727 C 0.07551 0.30028 0.65703 0.0
C728 C 0.09614 0.30283 0.62569 0.0
C729 C 0.09954 0.32427 0.59717 0.0
C730 C 0.09483 0.24587 0.73966 0.0
C731 C 0.07267 0.23254 0.74516 0.0
C732 C 0.09533 0.26833 0.71344 0.0
C733 C 0.07374 0.27811 0.69102 0.0
C734 C 0.05117 0.26568 0.69943 0.0
C735 C 0.05064 0.24313 0.72627 0.0
H736 H 0.10556 1.00357 0.29185 0.0
H737 H 0.05981 0.05637 0.21223 0.0
H738 H 0.07106 0.97416 0.29253 0.0
H739 H 0.02572 0.027 0.21189 0.0
H740 H 1.00713 0.9208 0.25652 0.0
H741 H 0.04317 0.94744 0.24648 0.0
H742 H 0.99736 1.0119 0.2728 0.0
H743 H 0.96123 0.98539 0.28173 0.0
C744 C 0.08842 1.00861 0.2732 0.0
C745 C 0.08542 0.03237 0.25226 0.0
C746 C 0.06857 0.99179 0.27374 0.0
C747 C 0.04535 0.99837 0.25316 0.0
C748 C 0.04303 0.02152 0.22935 0.0
C749 C 0.06272 0.03829 0.22907 0.0
C750 C 1.00466 0.94067 0.25999 0.0
C751 C 0.9811 0.95088 0.2698 0.0
C752 C 0.02544 0.95596 0.25448 0.0
C753 C 0.02327 0.98188 0.25851 0.0
C754 C 0.99973 0.99206 0.26845 0.0
C755 C 0.97896 0.9768 0.27395 0.0
H756 H 1.01201 0.59549 0.44452 0.0
H757 H 1.00014 0.58964 0.60199 0.0
H758 H 0.04178 0.56078 0.44919 0.0
H759 H 0.02916 0.55478 0.60666 0.0
H760 H 0.05111 0.47287 0.57825 0.0
H761 H 0.02578 0.51053 0.57211 0.0
H762 H 0.0837 0.54673 0.48963 0.0
H763 H 0.10922 0.50925 0.49624 0.0
C764 C 0.01641 0.58731 0.48028 0.0
C765 C 1.00404 0.59536 0.52299 0.0
C766 C 0.03321 0.56731 0.48295 0.0
C767 C 0.03748 0.55477 0.5282 0.0
C768 C 0.02597 0.56375 0.57116 0.0
C769 C 1.00955 0.58385 0.56858 0.0
C770 C 0.05843 0.48879 0.55863 0.0
C771 C 0.08226 0.48797 0.53792 0.0
C772 C 0.04399 0.51044 0.55539 0.0
C773 C 0.05281 0.53168 0.53062 0.0
C774 C 0.07636 0.53069 0.50884 0.0
C775 C 0.091 0.50921 0.51286 0.0
H776 H 0.46401 0.43414 0.72743 0.0
H777 H 0.42385 0.5019 0.75685 0.0
H778 H 0.50217 0.45746 0.71839 0.0
H779 H 0.46236 0.52539 0.7486 0.0
H780 H 0.53215 0.5643 0.70346 0.0
H781 H 0.49473 0.53958 0.695 0.0
H782 H 0.53114 0.47868 0.77084 0.0
H783 H 0.5689 0.50347 0.77842 0.0
C784 C 0.46325 0.45413 0.73149 0.0
C785 C 0.44076 0.46612 0.74313 0.0
C786 C 0.48528 0.46749 0.72667 0.0
C787 C 0.4856 0.49331 0.73339 0.0
C788 C 0.46289 0.50553 0.74272 0.0
C789 C 0.44072 0.49209 0.7474 0.0
C790 C 0.53237 0.54541 0.7174 0.0
C791 C 0.55357 0.53586 0.74168 0.0
C792 C 0.51076 0.53132 0.71303 0.0
C793 C 0.5096 0.50724 0.73297 0.0
C794 C 0.5313 0.4971 0.7547 0.0
C795 C 0.55307 0.51124 0.75889 0.0
H796 H 0.51602 0.95625 0.01212 0.0
H797 H 0.58485 0.99148 0.97171 0.0
H798 H 0.49402 0.99538 -0.00428 0.0
H799 H 0.56304 0.03014 0.95548 0.0
H800 H 0.51979 0.10128 0.00421 0.0
H801 H 0.54278 0.06202 0.00585 0.0
H802 H 0.48195 0.02573 0.93121 0.0
H803 H 0.45911 0.06469 0.92948 0.0
C804 C 0.52637 0.97209 -0.00121 0.0
C805 C 0.55223 0.97066 -0.00628 0.0
C806 C 0.51381 0.99457 -0.01052 0.0
C807 C 0.52685 0.01606 0.97495 0.0
C808 C 0.55248 1.01419 0.96763 0.0
C809 C 0.56495 0.99186 0.97671 0.0
C810 C 0.51164 0.08511 -0.0131 0.0
C811 C 0.48756 0.08622 0.96694 0.0
C812 C 0.52474 0.06252 -0.01193 0.0
C813 C 0.51402 0.04056 0.96937 0.0
C814 C 0.49054 0.04207 0.94692 0.0
C815 C 0.47756 0.06456 0.94556 0.0
H816 H 0.06784 0.48326 -0.00139 0.0
H817 H 0.02206 0.41958 0.03072 0.0
H818 H 0.03198 0.5103 0.00754 0.0
H819 H 0.98628 0.44678 0.04083 0.0
H820 H 0.97075 0.55619 0.0698 0.0
H821 H 1.00476 0.52653 0.06913 0.0
H822 H 0.95781 0.47327 -0.00489 0.0
H823 H 0.92341 0.50297 -0.00315 0.0
C824 C 0.05019 0.47499 0.00787 0.0
C825 C 0.04801 0.44916 0.01401 0.0
C826 C 0.02958 0.49056 0.01338 0.0
C827 C 1.00616 0.48081 0.02536 0.0
C828 C 1.00392 0.45497 0.03124 0.0
C829 C 0.02455 0.43936 0.02566 0.0
C830 C 0.96749 0.53799 0.05413 0.0
C831 C 0.94433 0.53203 0.03315 0.0
C832 C 0.98713 0.52104 0.05328 0.0
C833 C 0.98428 0.49764 0.0311 0.0
C834 C 0.9607 0.49109 0.01262 0.0
C835 C 0.94092 0.50809 0.01375 0.0
H836 H 0.50345 0.4514 0.30265 0.0
H837 H 0.43454 0.48817 0.33851 0.0
H838 H 0.52515 0.49092 0.31084 0.0
H839 H 0.45623 0.52742 0.34647 0.0
H840 H 0.50055 0.59558 0.28126 0.0
H841 H 0.47665 0.55713 0.28937 0.0
H842 H 0.53735 0.52332 0.3702 0.0
H843 H 0.56103 0.56141 0.36215 0.0
C844 C 0.49298 0.46771 0.31322 0.0
C845 C 0.46718 0.46641 0.31963 0.0
C846 C 0.50542 0.49044 0.31787 0.0
C847 C 0.49237 0.51246 0.32886 0.0
C848 C 0.46678 0.51097 0.3372 0.0
C849 C 0.4544 0.48829 0.33294 0.0
C850 C 0.50843 0.5802 0.30205 0.0
C851 C 0.53274 0.58156 0.32075 0.0
C852 C 0.49483 0.55808 0.30648 0.0
C853 C 0.5053 0.53694 0.32964 0.0
C854 C 0.52894 0.53898 0.35115 0.0
C855 C 0.54242 0.56096 0.34687 0.0
H856 H 0.50146 0.08331 0.55578 0.0
H857 H 0.46315 0.01485 0.5241 0.0
H858 H 0.53941 0.06043 0.57252 0.0
H859 H 0.50159 0.99174 0.54082 0.0
H860 H 0.57019 0.95531 0.60574 0.0
H861 H 0.53218 0.97973 0.60391 0.0
H862 H 0.57014 0.0379 0.52454 0.0
H863 H 0.60841 1.01333 0.52655 0.0
C864 C 0.50103 0.06327 0.55277 0.0
C865 C 0.47914 0.05096 0.53813 0.0
C866 C 0.52296 0.05017 0.56213 0.0
C867 C 0.52379 0.02427 0.55738 0.0
C868 C 0.50163 1.01172 0.54511 0.0
C869 C 0.47954 0.02492 0.53561 0.0
C870 C 0.57062 0.97357 0.58877 0.0
C871 C 0.59244 0.98235 0.56623 0.0
C872 C 0.54868 0.98744 0.58725 0.0
C873 C 0.54785 1.01061 0.56334 0.0
C874 C 0.57006 0.02015 0.5435 0.0
C875 C 0.59212 1.00617 0.54493 0.0
H876 H 0.0562 0.06518 0.83448 0.0
H877 H 1.0069 0.11335 0.75182 0.0
H878 H 0.02624 0.03169 0.82887 0.0
H879 H 0.97685 0.07951 0.74527 0.0
H880 H 0.98468 0.96888 0.75143 0.0
H881 H 1.01197 1.00421 0.76519 0.0
H882 H 0.94831 0.05174 0.78609 0.0
H883 H 0.92103 0.01665 0.77131 0.0
C884 C 0.03871 0.06876 0.81581 0.0
C885 C 0.03398 0.092 0.79358 0.0
C886 C 0.02162 0.0494 0.81203 0.0
C887 C 0.99929 0.05259 0.78565 0.0
C888 C 0.99383 0.07632 0.76598 0.0
C889 C 1.01098 0.09583 0.76998 0.0
C890 C 0.97646 0.98682 0.759 0.0
C891 C 0.95056 0.98971 0.76027 0.0
C892 C 0.99214 1.00714 0.76727 0.0
C893 C 0.98242 0.03095 0.77711 0.0
C894 C 0.95653 0.03383 0.77822 0.0
C895 C 0.94086 1.01355 0.76998 0.0
H896 H 0.05552 0.12022 0.62308 0.0
H897 H 0.12811 0.15115 0.64809 0.0
H898 H 0.0687 0.10514 0.54188 0.0
H899 H 0.14163 0.13583 0.5675 0.0
H900 H 0.1486 0.12444 0.40033 0.0
H901 H 0.13525 0.14144 0.47962 0.0
H902 H 0.09668 0.07299 0.51142 0.0
H903 H 0.1101 0.05621 0.43174 0.0
C904 C 0.0743 0.12367 0.61091 0.0
C905 C 0.09124 0.13579 0.64184 0.0
C906 C 0.08187 0.11504 0.5648 0.0
C907 C 0.10629 0.11898 0.54883 0.0
C908 C 0.12271 0.13253 0.57886 0.0
C909 C 0.11515 0.14099 0.62505 0.0
C910 C 0.13719 0.1132 0.42448 0.0
C911 C 0.1295 0.08951 0.40997 0.0
C912 C 0.12979 0.12275 0.46989 0.0
C913 C 0.11478 0.10859 0.50144 0.0
C914 C 0.10796 0.08442 0.48748 0.0
C915 C 0.11561 0.0748 0.44221 0.0
H916 H 0.9734 0.62328 0.66982 0.0
H917 H 0.89954 0.64985 0.63753 0.0
H918 H 0.95945 0.6076 0.75009 0.0
H919 H 0.88542 0.6344 0.71804 0.0
H920 H 0.87846 0.62442 0.88771 0.0
H921 H 0.8915 0.64158 0.80796 0.0
H922 H 0.93144 0.57366 0.77742 0.0
H923 H 0.91823 0.55665 0.8573 0.0
C924 C 0.9542 0.62575 0.6803 0.0
C925 C 0.93719 0.63676 0.64757 0.0
C926 C 0.94622 0.61684 0.72595 0.0
C927 C 0.92133 0.61959 0.73987 0.0
C928 C 0.9047 0.63205 0.7081 0.0
C929 C 0.91263 0.64061 0.66209 0.0
C930 C 0.89009 0.61333 0.86373 0.0
C931 C 0.89821 0.58973 0.87859 0.0
C932 C 0.89732 0.62297 0.81815 0.0
C933 C 0.91268 0.60901 0.78698 0.0
C934 C 0.91992 0.58492 0.80124 0.0
C935 C 0.91239 0.57518 0.84658 0.0
H936 H 0.40237 0.38469 0.14804 0.0
H937 H 0.44464 0.45228 0.14543 0.0
H938 H 0.38657 0.39333 0.0661 0.0
H939 H 0.42598 0.46364 0.06671 0.0
H940 H 0.41259 0.46549 0.902 0.0
H941 H 0.42494 0.46077 -0.01245 0.0
H942 H 0.36337 0.41011 0.01 0.0
H943 H 0.35408 0.41242 0.92214 0.0
C944 C 0.40747 0.40195 0.13005 0.0
C945 C 0.42413 0.41817 0.1526 0.0
C946 C 0.39813 0.40726 0.08311 0.0
C947 C 0.40458 0.42947 0.05849 0.0
C948 C 0.42095 0.44596 0.08262 0.0
C949 C 0.43137 0.43984 0.1284 0.0
C950 C 0.40227 0.45296 0.92561 0.0
C951 C 0.38362 0.43806 0.90585 0.0
C952 C 0.40885 0.45058 0.9753 0.0
C953 C 0.39576 0.43436 0.00686 0.0
C954 C 0.37516 0.42154 -0.01284 0.0
C955 C 0.36954 0.42294 0.93682 0.0
H956 H 0.62133 0.97257 0.39895 0.0
H957 H 0.65466 0.8998 0.40497 0.0
H958 H 0.60472 0.96381 0.31678 0.0
H959 H 0.63643 0.88986 0.32458 0.0
H960 H 0.62227 0.89055 0.15869 0.0
H961 H 0.63868 0.89727 0.24145 0.0
H962 H 0.57388 0.9414 0.27665 0.0
H963 H 0.55872 0.93613 0.19175 0.0
C964 C 0.62456 0.95447 0.38274 0.0
C965 C 0.63804 0.93629 0.4085 0.0
C966 C 0.61489 0.94932 0.33608 0.0
C967 C 0.6186 0.92587 0.31462 0.0
C968 C 0.63317 0.90812 0.33989 0.0
C969 C 0.6432 0.91351 0.38623 0.0
C970 C 0.61191 0.90208 0.18412 0.0
C971 C 0.59017 0.91414 0.16879 0.0
C972 C 0.62096 0.9055 0.23184 0.0
C973 C 0.60788 0.92036 0.26547 0.0
C974 C 0.58492 0.9307 0.251 0.0
C975 C 0.57613 0.9276 0.20278 0.0
H976 H 0.15474 0.37929 0.63175 0.0
H977 H 0.14077 0.44717 0.71105 0.0
H978 H 0.15892 0.35701 0.71036 0.0
H979 H 0.14857 0.42575 0.789 0.0
H980 H 0.08514 0.38774 0.844 0.0
H981 H 0.10538 0.38095 0.76513 0.0
H982 H 0.17562 0.37241 0.84041 0.0
H983 H 0.15461 0.37539 0.92002 0.0
C984 C 0.15486 0.38988 0.66583 0.0
C985 C 0.14696 0.4148 0.66583 0.0
C986 C 0.15737 0.37707 0.71069 0.0
C987 C 0.15361 0.3897 0.75519 0.0
C988 C 0.15151 0.41573 0.75471 0.0
C989 C 0.14724 0.42814 0.71012 0.0
C990 C 0.10431 0.38176 0.84407 0.0
C991 C 0.1184 0.3824 0.88766 0.0
C992 C 0.11606 0.37809 0.79888 0.0
C993 C 0.14208 0.37695 0.79718 0.0
C994 C 0.15556 0.37326 0.84103 0.0
C995 C 0.14345 0.37509 0.88648 0.0
H996 H 0.5429 0.60535 0.14133 0.0
H997 H 0.61312 0.64303 0.15007 0.0
H998 H 0.55343 0.58981 0.05928 0.0
H999 H 0.62474 0.62618 0.06969 0.0
H1000 H 0.58656 0.54696 0.93421 0.0
H1001 H 0.5792 0.5608 0.01919 0.0
H1002 H 0.61602 0.63017 0.98596 0.0
H1003 H 0.62467 0.61539 0.90284 0.0
C1004 C 0.56083 0.60977 0.12578 0.0
C1005 C 0.5778 0.62424 0.15219 0.0
C1006 C 0.56697 0.60077 0.07921 0.0
C1007 C 0.59015 0.60629 0.05844 0.0
C1008 C 0.60673 0.6216 0.08455 0.0
C1009 C 0.60037 0.63086 0.13082 0.0
C1010 C 0.59299 0.56511 0.94563 0.0
C1011 C 0.60497 0.58078 0.91212 0.0
C1012 C 0.58873 0.5731 -0.00612 0.0
C1013 C 0.59655 0.59681 0.00896 0.0
C1014 C 0.60981 0.61179 0.97575 0.0
C1015 C 0.61431 0.60362 0.9279 0.0
H1016 H 0.43839 0.05265 0.34268 0.0
H1017 H 0.39818 0.12012 0.37285 0.0
H1018 H 0.44145 0.06454 0.25539 0.0
H1019 H 0.40287 0.13328 0.28742 0.0
H1020 H 0.40575 0.14906 0.12627 0.0
H1021 H 0.39399 0.13007 0.20493 0.0
H1022 H 0.46515 0.09257 0.21139 0.0
H1023 H 0.47546 0.10981 0.13087 0.0
C1024 C 0.43057 0.07019 0.33042 0.0
C1025 C 0.41942 0.0863 0.36416 0.0
C1026 C 0.43234 0.07708 0.28077 0.0
C1027 C 0.42305 0.10021 0.2646 0.0
C1028 C 0.41024 0.11534 0.29822 0.0
C1029 C 0.40808 0.10818 0.34746 0.0
C1030 C 0.4183 0.13601 0.14409 0.0
C1031 C 0.44085 0.12975 0.12217 0.0
C1032 C 0.41189 0.12551 0.18944 0.0
C1033 C 0.42851 0.10951 0.21434 0.0
C1034 C 0.45147 0.10399 0.19255 0.0
C1035 C 0.45755 0.11404 0.14681 0.0
H1036 H 0.87218 0.89001 0.65626 0.0
H1037 H 0.89454 0.95551 0.57607 0.0
H1038 H 0.86788 0.86755 0.57824 0.0
H1039 H 0.88703 0.93412 0.49817 0.0
H1040 H 0.94526 0.89182 0.44224 0.0
H1041 H 0.92565 0.88828 0.52255 0.0
H1042 H 0.8545 0.87981 0.45114 0.0
H1043 H 0.87482 0.87931 0.37058 0.0
C1044 C 0.87406 0.90023 0.62181 0.0
C1045 C 0.88445 0.92416 0.62163 0.0
C1046 C 0.8715 0.88732 0.57731 0.0
C1047 C 0.87775 0.89907 0.5329 0.0
C1048 C 0.88233 0.92477 0.5325 0.0
C1049 C 0.88645 0.93714 0.57695 0.0
C1050 C 0.92597 0.88644 0.44365 0.0
C1051 C 0.91145 0.88629 0.40059 0.0
C1052 C 0.91458 0.88475 0.48964 0.0
C1053 C 0.88856 0.88474 0.49232 0.0
C1054 C 0.87456 0.87994 0.4497 0.0
C1055 C 0.88629 0.87972 0.40369 0.0
H1056 H 0.15184 0.1285 0.88268 0.0
H1057 H 0.08406 0.16181 0.93538 0.0
H1058 H 0.16546 0.12127 0.96757 0.0
H1059 H 0.09766 0.15428 0.0209 0.0
H1060 H 0.13262 0.1491 0.1711 0.0
H1061 H 0.12745 0.16359 0.08625 0.0
H1062 H 0.15304 0.09256 0.03281 0.0
H1063 H 0.15855 0.07809 0.1184 0.0
C1064 C 0.13997 0.13466 0.91249 0.0
C1065 C 0.1167 0.14555 0.90222 0.0
C1066 C 0.14776 0.13031 0.96121 0.0
C1067 C 0.13253 0.13676 0.0011 0.0
C1068 C 0.10995 0.14916 -0.00898 0.0
C1069 C 0.10213 0.15357 0.94201 0.0
C1070 C 0.13769 0.1367 0.14128 0.0
C1071 C 0.14585 0.11232 0.15151 0.0
C1072 C 0.13449 0.14499 0.09259 0.0
C1073 C 0.13934 0.12914 0.05266 0.0
C1074 C 0.14919 0.10532 0.06273 0.0
C1075 C 0.15247 0.097 0.11176 0.0
H1076 H 0.91275 0.67527 0.37285 0.0
H1077 H 0.94077 0.60022 0.37762 0.0
H1078 H 0.89485 0.66733 0.29031 0.0
H1079 H 0.92356 0.59237 0.29586 0.0
H1080 H 0.87445 0.57392 0.17078 0.0
H1081 H 0.88405 0.58605 0.25617 0.0
H1082 H 0.90526 0.65899 0.20493 0.0
H1083 H 0.89498 0.64714 0.12053 0.0
C1084 C 0.91565 0.65736 0.35567 0.0
C1085 C 0.92824 0.63841 0.38141 0.0
C1086 C 0.90518 0.65266 0.30873 0.0
C1087 C 0.90717 0.62895 0.2869 0.0
C1088 C 0.92085 0.61054 0.31204 0.0
C1089 C 0.93113 0.61518 0.35858 0.0
C1090 C 0.88022 0.5928 0.17811 0.0
C1091 C 0.88419 0.60944 0.13888 0.0
C1092 C 0.88615 0.59969 0.22689 0.0
C1093 C 0.89613 0.62333 0.23729 0.0
C1094 C 0.89774 0.64066 0.19852 0.0
C1095 C 0.89185 0.6338 0.14998 0.0
H1096 H 0.35137 0.42023 0.62127 0.0
H1097 H 0.4023 0.36336 0.67254 0.0
H1098 H 0.35962 0.40845 0.53605 0.0
H1099 H 0.41038 0.35156 0.5871 0.0
H1100 H 0.37049 0.38047 0.38624 0.0
H1101 H 0.35689 0.37687 0.47174 0.0
H1102 H 0.43326 0.37304 0.52036 0.0
H1103 H 0.44688 0.37613 0.43419 0.0
C1104 C 0.36382 0.4048 0.61454 0.0
C1105 C 0.37643 0.39307 0.65389 0.0
C1106 C 0.36851 0.39796 0.56557 0.0
C1107 C 0.38591 0.37923 0.55481 0.0
C1108 C 0.39719 0.36631 0.5942 0.0
C1109 C 0.39241 0.37305 0.6432 0.0
C1110 C 0.38438 0.37813 0.41505 0.0
C1111 C 0.40977 0.37892 0.40369 0.0
C1112 C 0.37657 0.37622 0.46405 0.0
C1113 C 0.39397 0.37524 0.50287 0.0
C1114 C 0.41936 0.3737 0.49123 0.0
C1115 C 0.42721 0.37545 0.4419 0.0
H1116 H 0.64385 0.873 0.65414 0.0
H1117 H 0.67362 0.94454 0.6946 0.0
H1118 H 0.63742 0.86317 0.74128 0.0
H1119 H 0.66698 0.93476 0.78185 0.0
H1120 H 0.58967 0.88048 0.8826 0.0
H1121 H 0.60658 0.87996 0.79889 0.0
H1122 H 0.67601 0.90869 0.85444 0.0
H1123 H 0.65913 0.90946 0.9378 0.0
C1124 C 0.64955 0.88643 0.68173 0.0
C1125 C 0.65886 0.90975 0.66746 0.0
C1126 C 0.64572 0.88081 0.73162 0.0
C1127 C 0.6512 0.89835 0.76835 0.0
C1128 C 0.66261 0.92078 0.75442 0.0
C1129 C 0.66647 0.92641 0.70438 0.0
C1130 C 0.60871 0.88611 0.87713 0.0
C1131 C 0.62286 0.89541 0.91671 0.0
C1132 C 0.61846 0.88577 0.82917 0.0
C1133 C 0.64256 0.89462 0.81999 0.0
C1134 C 0.65725 0.90221 0.86018 0.0
C1135 C 0.64754 0.90258 0.90796 0.0
H1136 H 0.16275 0.42949 0.3992 0.0
H1137 H 0.09066 0.39465 0.4022 0.0
H1138 H 0.16346 0.42605 0.30956 0.0
H1139 H 0.09135 0.3915 0.31187 0.0
H1140 H 0.11023 0.3694 0.155 0.0
H1141 H 0.11292 0.37035 0.24477 0.0
H1142 H 0.14233 0.44475 0.238 0.0
H1143 H 0.13994 0.44376 0.14742 0.0
C1144 C 0.14701 0.42104 0.38081 0.0
C1145 C 0.12652 0.41247 0.40806 0.0
C1146 C 0.14743 0.41922 0.32928 0.0
C1147 C 0.12741 0.40873 0.30355 0.0
C1148 C 0.10718 0.39952 0.33071 0.0
C1149 C 0.10674 0.40135 0.38246 0.0
C1150 C 0.11745 0.38598 0.17246 0.0
C1151 C 0.12468 0.40665 0.14392 0.0
C1152 C 0.11882 0.38652 0.22404 0.0
C1153 C 0.12748 0.40771 0.24855 0.0
C1154 C 0.13566 0.42807 0.22013 0.0
C1155 C 0.13431 0.42753 0.16826 0.0
H1156 H 0.60251 0.64965 0.67911 0.0
H1157 H 0.63801 0.58309 0.62506 0.0
H1158 H 0.6022 0.66696 0.59573 0.0
H1159 H 0.63733 0.60032 0.54125 0.0
H1160 H 0.64142 0.63797 0.39611 0.0
H1161 H 0.65143 0.6321 0.48356 0.0
H1162 H 0.57792 0.65711 0.52239 0.0
H1163 H 0.56804 0.66331 0.4349 0.0
C1164 C 0.61054 0.63879 0.6495 0.0
C1165 C 0.61995 0.61477 0.65862 0.0
C1166 C 0.61028 0.64874 0.60167 0.0
C1167 C 0.61941 0.63494 0.56172 0.0
C1168 C 0.63031 0.61157 0.57128 0.0
C1169 C 0.63065 0.60161 0.61931 0.0
C1170 C 0.62762 0.64289 0.42343 0.0
C1171 C 0.6038 0.65078 0.40861 0.0
C1172 C 0.63332 0.63933 0.4735 0.0
C1173 C 0.61533 0.64358 0.50987 0.0
C1174 C 0.59227 0.65371 0.49533 0.0
C1175 C 0.58658 0.65735 0.44512 0.0
H1176 H 0.43145 0.15966 0.59418 0.0
H1177 H 0.38858 0.09762 0.6483 0.0
H1178 H 0.432 0.17747 0.67693 0.0
H1179 H 0.38939 0.11541 0.73114 0.0
H1180 H 0.3852 0.15404 0.87329 0.0
H1181 H 0.3768 0.14951 0.78498 0.0
H1182 H 0.45359 0.16526 0.75357 0.0
H1183 H 0.4619 0.17017 0.84205 0.0
C1184 C 0.42187 0.14992 0.62356 0.0
C1185 C 0.41027 0.12694 0.61469 0.0
C1186 C 0.42226 0.16018 0.67101 0.0
C1187 C 0.41096 0.14779 0.71067 0.0
C1188 C 0.39808 0.12558 0.70126 0.0
C1189 C 0.39771 0.11528 0.65376 0.0
C1190 C 0.40013 0.15728 0.84739 0.0
C1191 C 0.42431 0.16208 0.86454 0.0
C1192 C 0.39533 0.1545 0.79686 0.0
C1193 C 0.41463 0.15641 0.76242 0.0
C1194 C 0.43829 0.16369 0.77918 0.0
C1195 C 0.44308 0.16658 0.82989 0.0
H1196 H 0.91882 0.86999 0.13337 0.0
H1197 H 0.88791 0.94411 0.13764 0.0
H1198 H 0.91564 0.87005 0.04358 0.0
H1199 H 0.88505 0.94423 0.04717 0.0
H1200 H 0.86524 0.92922 0.88716 0.0
H1201 H 0.86409 0.925 0.97674 0.0
H1202 H 0.93663 0.89083 0.97524 0.0
H1203 H 0.93771 0.89473 0.88498 0.0
C1204 C 0.91123 0.88631 0.11519 0.0
C1205 C 0.90382 0.90719 0.14277 0.0
C1206 C 0.90954 0.88634 0.06361 0.0
C1207 C 0.9004 0.90722 0.0382 0.0
C1208 C 0.89204 0.92776 0.06574 0.0
C1209 C 0.89369 0.92773 0.11756 0.0
C1210 C 0.88093 0.92061 0.90575 0.0
C1211 C 0.90172 0.9125 0.87884 0.0
C1212 C 0.88027 0.91834 0.95722 0.0
C1213 C 0.90036 0.90789 0.98317 0.0
C1214 C 0.92075 0.89884 0.95623 0.0
C1215 C 0.92141 0.90107 0.90453 0.0
loop_
_geom_bond_atom_site_label_1
_geom_bond_atom_site_label_2
_geom_bond_distance
_geom_bond_site_symmetry_2
_ccdc_geom_bond_type
Mn0 O5 2.095 . S
Mn0 O15 2.162 . S
Mn0 O16 2.297 . S
Mn0 O24 2.385 . S
Mn0 O25 2.209 . S
Mn0 O26 2.094 . S
Mn1 O6 2.121 . S
Mn1 N8 2.257 . S
Mn1 N17 2.282 . S
Mn1 O25 2.215 . S
Mn1 O27 2.117 . S
C2 O24 1.234 . S
C2 O25 1.283 . S
C3 O15 1.281 . S
C3 O16 1.236 . S
C4 O26 1.240 . S
C4 O27 1.264 . S
O5 Mn0 2.095 . S
O5 C14 1.250 . S
O6 Mn1 2.121 . S
O6 C14 1.258 . S
C7 N8 1.326 . S
C7 C11 1.460 . S
C7 H13 0.929 . S
N8 Mn1 2.257 . S
N8 C7 1.326 . S
N8 C12 1.362 . S
C9 C10 1.258 . S
C9 C12 1.431 . S
C9 C29 1.449 . S
C10 C9 1.258 . S
C10 C11 1.477 . S
C10 H30 0.931 . S
C11 C7 1.460 . S
C11 C10 1.477 . S
C11 H31 0.930 . S
C12 N8 1.362 . S
C12 C9 1.431 . S
C12 C22 1.476 . S
H13 C7 0.929 . S
C14 O5 1.250 . S
C14 O6 1.258 . S
O15 Mn0 2.162 . S
O15 C3 1.281 . S
O16 Mn0 2.297 . S
O16 C3 1.236 . S
N17 Mn1 2.282 . S
N17 C18 1.328 . S
N17 C22 1.318 . S
C18 N17 1.328 . S
C18 C19 1.457 . S
C18 H23 0.929 . S
C19 C18 1.457 . S
C19 C20 1.291 . S
C19 H32 0.931 . S
C20 C19 1.291 . S
C20 C21 1.373 . S
C20 H33 0.929 . S
C21 C20 1.373 . S
C21 C22 1.396 . S
C21 C28 1.403 . S
C22 C12 1.476 . S
C22 N17 1.318 . S
C22 C21 1.396 . S
H23 C18 0.929 . S
O24 Mn0 2.385 . S
O24 C2 1.234 . S
O25 Mn0 2.209 . S
O25 Mn1 2.215 . S
O25 C2 1.283 . S
O26 Mn0 2.094 . S
O26 C4 1.240 . S
O27 Mn1 2.117 . S
O27 C4 1.264 . S
C28 C21 1.403 . S
C28 C29 1.399 . S
C28 H34 0.929 . S
C29 C9 1.449 . S
C29 C28 1.399 . S
C29 H35 0.930 . S
H30 C10 0.931 . S
H31 C11 0.930 . S
H32 C19 0.931 . S
H33 C20 0.929 . S
H34 C28 0.929 . S
H35 C29 0.930 . S
Mn36 O41 2.095 . S
Mn36 O51 2.162 . S
Mn36 O52 2.297 . S
Mn36 O60 2.385 . S
Mn36 O61 2.209 . S
Mn36 O62 2.094 . S
Mn37 O42 2.121 . S
Mn37 N44 2.257 . S
Mn37 N53 2.282 . S
Mn37 O61 2.215 . S
Mn37 O63 2.117 . S
C38 O60 1.234 . S
C38 O61 1.283 . S
C39 O51 1.281 . S
C39 O52 1.236 . S
C40 O62 1.240 . S
C40 O63 1.264 . S
O41 Mn36 2.095 . S
O41 C50 1.250 . S
O42 Mn37 2.121 . S
O42 C50 1.258 . S
C43 N44 1.326 . S
C43 C47 1.460 . S
C43 H49 0.929 . S
N44 Mn37 2.257 . S
N44 C43 1.326 . S
N44 C48 1.362 . S
C45 C46 1.258 . S
C45 C48 1.431 . S
C45 C65 1.449 . S
C46 C45 1.258 . S
C46 C47 1.477 . S
C46 H66 0.931 . S
C47 C43 1.460 . S
C47 C46 1.477 . S
C47 H67 0.930 . S
C48 N44 1.362 . S
C48 C45 1.431 . S
C48 C58 1.476 . S
H49 C43 0.929 . S
C50 O41 1.250 . S
C50 O42 1.258 . S
O51 Mn36 2.162 . S
O51 C39 1.281 . S
O52 Mn36 2.297 . S
O52 C39 1.236 . S
N53 Mn37 2.282 . S
N53 C54 1.328 . S
N53 C58 1.318 . S
C54 N53 1.328 . S
C54 C55 1.457 . S
C54 H59 0.929 . S
C55 C54 1.457 . S
C55 C56 1.291 . S
C55 H68 0.931 . S
C56 C55 1.291 . S
C56 C57 1.373 . S
C56 H69 0.929 . S
C57 C56 1.373 . S
C57 C58 1.396 . S
C57 C64 1.403 . S
C58 C48 1.476 . S
C58 N53 1.318 . S
C58 C57 1.396 . S
H59 C54 0.929 . S
O60 Mn36 2.385 . S
O60 C38 1.234 . S
O61 Mn36 2.209 . S
O61 Mn37 2.215 . S
O61 C38 1.283 . S
O62 Mn36 2.094 . S
O62 C40 1.240 . S
O63 Mn37 2.117 . S
O63 C40 1.264 . S
C64 C57 1.403 . S
C64 C65 1.399 . S
C64 H70 0.929 . S
C65 C45 1.449 . S
C65 C64 1.399 . S
C65 H71 0.930 . S
H66 C46 0.931 . S
H67 C47 0.930 . S
H68 C55 0.931 . S
H69 C56 0.929 . S
H70 C64 0.929 . S
H71 C65 0.930 . S
Mn72 O77 2.095 . S
Mn72 O87 2.162 . S
Mn72 O88 2.297 . S
Mn72 O96 2.385 . S
Mn72 O97 2.209 . S
Mn72 O98 2.094 . S
Mn73 O78 2.121 . S
Mn73 N80 2.257 . S
Mn73 N89 2.282 . S
Mn73 O97 2.215 . S
Mn73 O99 2.117 . S
C74 O96 1.234 . S
C74 O97 1.283 . S
C75 O87 1.281 . S
C75 O88 1.236 . S
C76 O98 1.240 . S
C76 O99 1.264 . S
O77 Mn72 2.095 . S
O77 C86 1.250 . S
O78 Mn73 2.121 . S
O78 C86 1.258 . S
C79 N80 1.326 . S
C79 C83 1.460 . S
C79 H85 0.929 . S
N80 Mn73 2.257 . S
N80 C79 1.326 . S
N80 C84 1.362 . S
C81 C82 1.258 . S
C81 C84 1.431 . S
C81 C101 1.449 . S
C82 C81 1.258 . S
C82 C83 1.477 . S
C82 H102 0.931 . S
C83 C79 1.460 . S
C83 C82 1.477 . S
C83 H103 0.930 . S
C84 N80 1.362 . S
C84 C81 1.431 . S
C84 C94 1.476 . S
H85 C79 0.929 . S
C86 O77 1.250 . S
C86 O78 1.258 . S
O87 Mn72 2.162 . S
O87 C75 1.281 . S
O88 Mn72 2.297 . S
O88 C75 1.236 . S
N89 Mn73 2.282 . S
N89 C90 1.328 . S
N89 C94 1.318 . S
C90 N89 1.328 . S
C90 C91 1.457 . S
C90 H95 0.929 . S
C91 C90 1.457 . S
C91 C92 1.291 . S
C91 H104 0.931 . S
C92 C91 1.291 . S
C92 C93 1.373 . S
C92 H105 0.931 1_556 S
C93 C92 1.373 . S
C93 C94 1.396 . S
C93 C100 1.403 . S
C94 C84 1.476 . S
C94 N89 1.318 . S
C94 C93 1.396 . S
H95 C90 0.929 . S
O96 Mn72 2.385 . S
O96 C74 1.234 . S
O97 Mn72 2.209 . S
O97 Mn73 2.215 . S
O97 C74 1.283 . S
O98 Mn72 2.094 . S
O98 C76 1.240 . S
O99 Mn73 2.117 . S
O99 C76 1.264 . S
C100 C93 1.403 . S
C100 C101 1.399 . S
C100 H106 0.929 . S
C101 C81 1.449 . S
C101 C100 1.399 . S
C101 H107 0.930 . S
H102 C82 0.931 . S
H103 C83 0.930 . S
H104 C91 0.931 . S
H105 C92 0.931 1_554 S
H106 C100 0.929 . S
H107 C101 0.930 . S
Mn108 O113 2.095 1_554 S
Mn108 O123 2.162 . S
Mn108 O124 2.297 . S
Mn108 O132 2.385 . S
Mn108 O133 2.209 . S
Mn108 O134 2.094 . S
Mn109 O114 2.121 1_554 S
Mn109 N116 2.257 . S
Mn109 N125 2.282 . S
Mn109 O133 2.215 . S
Mn109 O135 2.117 . S
C110 O132 1.234 . S
C110 O133 1.283 . S
C111 O123 1.281 . S
C111 O124 1.236 . S
C112 O134 1.240 . S
C112 O135 1.264 . S
O113 Mn108 2.095 1_556 S
O113 C122 1.250 . S
O114 Mn109 2.121 1_556 S
O114 C122 1.258 . S
C115 N116 1.326 . S
C115 C119 1.460 . S
C115 H121 0.929 . S
N116 Mn109 2.257 . S
N116 C115 1.326 . S
N116 C120 1.362 . S
C117 C118 1.258 . S
C117 C120 1.431 . S
C117 C137 1.449 . S
C118 C117 1.258 . S
C118 C119 1.477 . S
C118 H138 0.931 . S
C119 C115 1.460 . S
C119 C118 1.477 . S
C119 H139 0.930 . S
C120 N116 1.362 . S
C120 C117 1.431 . S
C120 C130 1.476 . S
H121 C115 0.929 . S
C122 O113 1.250 . S
C122 O114 1.258 . S
O123 Mn108 2.162 . S
O123 C111 1.281 . S
O124 Mn108 2.297 . S
O124 C111 1.236 . S
N125 Mn109 2.282 . S
N125 C126 1.328 . S
N125 C130 1.318 . S
C126 N125 1.328 . S
C126 C127 1.457 . S
C126 H131 0.929 . S
C127 C126 1.457 . S
C127 C128 1.291 . S
C127 H140 0.931 . S
C128 C127 1.291 . S
C128 C129 1.373 . S
C128 H141 0.929 . S
C129 C128 1.373 . S
C129 C130 1.396 . S
C129 C136 1.403 . S
C130 C120 1.476 . S
C130 N125 1.318 . S
C130 C129 1.396 . S
H131 C126 0.929 . S
O132 Mn108 2.385 . S
O132 C110 1.234 . S
O133 Mn108 2.209 . S
O133 Mn109 2.215 . S
O133 C110 1.283 . S
O134 Mn108 2.094 . S
O134 C112 1.240 . S
O135 Mn109 2.117 . S
O135 C112 1.264 . S
C136 C129 1.403 . S
C136 C137 1.399 . S
C136 H142 0.929 . S
C137 C117 1.449 . S
C137 C136 1.399 . S
C137 H143 0.930 . S
H138 C118 0.931 . S
H139 C119 0.930 . S
H140 C127 0.931 . S
H141 C128 0.929 . S
H142 C136 0.929 . S
H143 C137 0.930 . S
Mn144 O149 2.095 . S
Mn144 O159 2.162 1_554 S
Mn144 O160 2.297 1_554 S
Mn144 O168 2.385 1_554 S
Mn144 O169 2.209 1_554 S
Mn144 O170 2.094 . S
Mn145 O150 2.121 . S
Mn145 N152 2.259 . S
Mn145 N161 2.282 1_554 S
Mn145 O169 2.215 1_554 S
Mn145 O171 2.117 . S
C146 O168 1.234 . S
C146 O169 1.283 . S
C147 O159 1.281 . S
C147 O160 1.236 . S
C148 O170 1.240 . S
C148 O171 1.264 . S
O149 Mn144 2.095 . S
O149 C158 1.250 . S
O150 Mn145 2.121 . S
O150 C158 1.258 . S
C151 N152 1.333 . S
C151 C155 1.460 . S
C151 H157 0.929 . S
N152 Mn145 2.259 . S
N152 C151 1.333 . S
N152 C156 1.353 1_554 S
C153 C154 1.258 . S
C153 C156 1.431 . S
C153 C173 1.449 . S
C154 C153 1.258 . S
C154 C155 1.477 1_556 S
C154 H174 0.931 . S
C155 C151 1.460 . S
C155 C154 1.477 1_554 S
C155 H175 0.930 . S
C156 N152 1.353 1_556 S
C156 C153 1.431 . S
C156 C166 1.476 . S
H157 C151 0.929 . S
C158 O149 1.250 . S
C158 O150 1.258 . S
O159 Mn144 2.162 1_556 S
O159 C147 1.281 . S
O160 Mn144 2.297 1_556 S
O160 C147 1.236 . S
N161 Mn145 2.282 1_556 S
N161 C162 1.328 . S
N161 C166 1.318 . S
C162 N161 1.328 . S
C162 C163 1.457 . S
C162 H167 0.929 . S
C163 C162 1.457 . S
C163 C164 1.291 . S
C163 H176 0.931 . S
C164 C163 1.291 . S
C164 C165 1.373 . S
C164 H177 0.929 . S
C165 C164 1.373 . S
C165 C166 1.396 . S
C165 C172 1.403 . S
C166 C156 1.476 . S
C166 N161 1.318 . S
C166 C165 1.396 . S
H167 C162 0.929 . S
O168 Mn144 2.385 1_556 S
O168 C146 1.234 . S
O169 Mn144 2.209 1_556 S
O169 Mn145 2.215 1_556 S
O169 C146 1.283 . S
O170 Mn144 2.094 . S
O170 C148 1.240 . S
O171 Mn145 2.117 . S
O171 C148 1.264 . S
C172 C165 1.403 . S
C172 C173 1.399 . S
C172 H178 0.929 . S
C173 C153 1.449 . S
C173 C172 1.399 . S
C173 H179 0.930 . S
H174 C154 0.931 . S
H175 C155 0.930 . S
H176 C163 0.931 . S
H177 C164 0.929 . S
H178 C172 0.929 . S
H179 C173 0.930 . S
Mn180 O185 2.095 . S
Mn180 O195 2.162 . S
Mn180 O196 2.297 . S
Mn180 O204 2.385 . S
Mn180 O205 2.209 . S
Mn180 O206 2.094 . S
Mn181 O186 2.121 . S
Mn181 N188 2.257 . S
Mn181 N197 2.282 . S
Mn181 O205 2.215 . S
Mn181 O207 2.117 . S
C182 O204 1.234 . S
C182 O205 1.283 . S
C183 O195 1.281 . S
C183 O196 1.236 . S
C184 O206 1.240 . S
C184 O207 1.264 . S
O185 Mn180 2.095 . S
O185 C194 1.250 . S
O186 Mn181 2.121 . S
O186 C194 1.258 . S
C187 N188 1.326 . S
C187 C191 1.460 . S
C187 H193 0.929 . S
N188 Mn181 2.257 . S
N188 C187 1.326 . S
N188 C192 1.362 . S
C189 C190 1.258 . S
C189 C192 1.431 . S
C189 C209 1.449 . S
C190 C189 1.258 . S
C190 C191 1.477 . S
C190 H210 0.931 . S
C191 C187 1.460 . S
C191 C190 1.477 . S
C191 H211 0.930 . S
C192 N188 1.362 . S
C192 C189 1.431 . S
C192 C202 1.476 . S
H193 C187 0.929 . S
C194 O185 1.250 . S
C194 O186 1.258 . S
O195 Mn180 2.162 . S
O195 C183 1.281 . S
O196 Mn180 2.297 . S
O196 C183 1.236 . S
N197 Mn181 2.282 . S
N197 C198 1.328 . S
N197 C202 1.318 . S
C198 N197 1.328 . S
C198 C199 1.457 . S
C198 H203 0.929 . S
C199 C198 1.457 . S
C199 C200 1.291 . S
C199 H212 0.931 . S
C200 C199 1.291 . S
C200 C201 1.373 . S
C200 H213 0.929 . S
C201 C200 1.373 . S
C201 C202 1.396 . S
C201 C208 1.403 . S
C202 C192 1.476 . S
C202 N197 1.318 . S
C202 C201 1.396 . S
H203 C198 0.929 . S
O204 Mn180 2.385 . S
O204 C182 1.234 . S
O205 Mn180 2.209 . S
O205 Mn181 2.215 . S
O205 C182 1.283 . S
O206 Mn180 2.094 . S
O206 C184 1.240 . S
O207 Mn181 2.117 . S
O207 C184 1.264 . S
C208 C201 1.403 . S
C208 C209 1.399 . S
C208 H214 0.929 . S
C209 C189 1.449 . S
C209 C208 1.399 . S
C209 H215 0.930 . S
H210 C190 0.931 . S
H211 C191 0.930 . S
H212 C199 0.931 . S
H213 C200 0.929 . S
H214 C208 0.929 . S
H215 C209 0.930 . S
Mn216 O221 2.095 . S
Mn216 O231 2.162 . S
Mn216 O232 2.297 . S
Mn216 O240 2.385 . S
Mn216 O241 2.209 . S
Mn216 O242 2.094 . S
Mn217 O222 2.121 . S
Mn217 N224 2.257 . S
Mn217 N233 2.282 . S
Mn217 O241 2.215 . S
Mn217 O243 2.117 . S
C218 O240 1.234 . S
C218 O241 1.283 . S
C219 O231 1.281 . S
C219 O232 1.236 . S
C220 O242 1.240 . S
C220 O243 1.264 . S
O221 Mn216 2.095 . S
O221 C230 1.250 . S
O222 Mn217 2.121 . S
O222 C230 1.258 . S
C223 N224 1.326 . S
C223 C227 1.460 . S
C223 H229 0.929 . S
N224 Mn217 2.257 . S
N224 C223 1.326 . S
N224 C228 1.362 . S
C225 C226 1.258 . S
C225 C228 1.431 . S
C225 C245 1.449 . S
C226 C225 1.258 . S
C226 C227 1.477 . S
C226 H246 0.931 . S
C227 C223 1.460 . S
C227 C226 1.477 . S
C227 H247 0.930 . S
C228 N224 1.362 . S
C228 C225 1.431 . S
C228 C238 1.476 . S
H229 C223 0.929 . S
C230 O221 1.250 . S
C230 O222 1.258 . S
O231 Mn216 2.162 . S
O231 C219 1.281 . S
O232 Mn216 2.297 . S
O232 C219 1.236 . S
N233 Mn217 2.282 . S
N233 C234 1.328 . S
N233 C238 1.318 . S
C234 N233 1.328 . S
C234 C235 1.457 . S
C234 H239 0.929 . S
C235 C234 1.457 . S
C235 C236 1.291 . S
C235 H248 0.931 . S
C236 C235 1.291 . S
C236 C237 1.373 . S
C236 H249 0.929 . S
C237 C236 1.373 . S
C237 C238 1.396 . S
C237 C244 1.403 . S
C238 C228 1.476 . S
C238 N233 1.318 . S
C238 C237 1.396 . S
H239 C234 0.929 . S
O240 Mn216 2.385 . S
O240 C218 1.234 . S
O241 Mn216 2.209 . S
O241 Mn217 2.215 . S
O241 C218 1.283 . S
O242 Mn216 2.094 . S
O242 C220 1.240 . S
O243 Mn217 2.117 . S
O243 C220 1.264 . S
C244 C237 1.403 . S
C244 C245 1.399 . S
C244 H250 0.929 . S
C245 C225 1.449 . S
C245 C244 1.399 . S
C245 H251 0.930 . S
H246 C226 0.931 . S
H247 C227 0.930 . S
H248 C235 0.931 . S
H249 C236 0.929 . S
H250 C244 0.929 . S
H251 C245 0.930 . S
Mn252 O257 2.095 . S
Mn252 O267 2.162 . S
Mn252 O268 2.297 . S
Mn252 O276 2.385 . S
Mn252 O277 2.209 . S
Mn252 O278 2.094 . S
Mn253 O258 2.121 . S
Mn253 N260 2.257 . S
Mn253 N269 2.282 . S
Mn253 O277 2.215 . S
Mn253 O279 2.117 . S
C254 O276 1.234 . S
C254 O277 1.283 . S
C255 O267 1.281 . S
C255 O268 1.236 . S
C256 O278 1.240 . S
C256 O279 1.264 . S
O257 Mn252 2.095 . S
O257 C266 1.250 . S
O258 Mn253 2.121 . S
O258 C266 1.258 . S
C259 N260 1.326 . S
C259 C263 1.460 . S
C259 H265 0.929 . S
N260 Mn253 2.257 . S
N260 C259 1.326 . S
N260 C264 1.362 . S
C261 C262 1.258 . S
C261 C264 1.431 . S
C261 C281 1.449 . S
C262 C261 1.258 . S
C262 C263 1.477 . S
C262 H282 0.931 . S
C263 C259 1.460 . S
C263 C262 1.477 . S
C263 H283 0.930 . S
C264 N260 1.362 . S
C264 C261 1.431 . S
C264 C274 1.476 . S
H265 C259 0.929 . S
C266 O257 1.250 . S
C266 O258 1.258 . S
O267 Mn252 2.162 . S
O267 C255 1.281 . S
O268 Mn252 2.297 . S
O268 C255 1.236 . S
N269 Mn253 2.282 . S
N269 C270 1.328 . S
N269 C274 1.318 . S
C270 N269 1.328 . S
C270 C271 1.457 . S
C270 H275 0.929 . S
C271 C270 1.457 . S
C271 C272 1.291 . S
C271 H284 0.931 . S
C272 C271 1.291 . S
C272 C273 1.373 . S
C272 H285 0.929 . S
C273 C272 1.373 . S
C273 C274 1.396 . S
C273 C280 1.403 . S
C274 C264 1.476 . S
C274 N269 1.318 . S
C274 C273 1.396 . S
H275 C270 0.929 . S
O276 Mn252 2.385 . S
O276 C254 1.234 . S
O277 Mn252 2.209 . S
O277 Mn253 2.215 . S
O277 C254 1.283 . S
O278 Mn252 2.094 . S
O278 C256 1.240 . S
O279 Mn253 2.117 . S
O279 C256 1.264 . S
C280 C273 1.403 . S
C280 C281 1.399 . S
C280 H286 0.929 . S
C281 C261 1.449 . S
C281 C280 1.399 . S
C281 H287 0.930 . S
H282 C262 0.931 . S
H283 C263 0.930 . S
H284 C271 0.931 . S
H285 C272 0.929 . S
H286 C280 0.929 . S
H287 C281 0.930 . S
Mn288 O293 2.095 . S
Mn288 O303 2.162 . S
Mn288 O304 2.297 . S
Mn288 O312 2.385 . S
Mn288 O313 2.209 . S
Mn288 O314 2.094 . S
Mn289 O294 2.121 . S
Mn289 N296 2.257 . S
Mn289 N305 2.282 . S
Mn289 O313 2.215 . S
Mn289 O315 2.117 . S
C290 O312 1.234 . S
C290 O313 1.283 . S
C291 O303 1.281 . S
C291 O304 1.236 . S
C292 O314 1.240 . S
C292 O315 1.264 . S
O293 Mn288 2.095 . S
O293 C302 1.250 . S
O294 Mn289 2.121 . S
O294 C302 1.258 . S
C295 N296 1.326 . S
C295 C299 1.460 . S
C295 H301 0.929 . S
N296 Mn289 2.257 . S
N296 C295 1.326 . S
N296 C300 1.362 . S
C297 C298 1.258 . S
C297 C300 1.431 . S
C297 C317 1.449 . S
C298 C297 1.258 . S
C298 C299 1.477 . S
C298 H318 0.931 . S
C299 C295 1.460 . S
C299 C298 1.477 . S
C299 H319 0.930 . S
C300 N296 1.362 . S
C300 C297 1.431 . S
C300 C310 1.476 . S
H301 C295 0.929 . S
C302 O293 1.250 . S
C302 O294 1.258 . S
O303 Mn288 2.162 . S
O303 C291 1.281 . S
O304 Mn288 2.297 . S
O304 C291 1.236 . S
N305 Mn289 2.282 . S
N305 C306 1.328 . S
N305 C310 1.318 . S
C306 N305 1.328 . S
C306 C307 1.457 . S
C306 H311 0.929 . S
C307 C306 1.457 . S
C307 C308 1.291 . S
C307 H320 0.931 . S
C308 C307 1.291 . S
C308 C309 1.373 . S
C308 H321 0.931 1_556 S
C309 C308 1.373 . S
C309 C310 1.396 . S
C309 C316 1.403 . S
C310 C300 1.476 . S
C310 N305 1.318 . S
C310 C309 1.396 . S
H311 C306 0.929 . S
O312 Mn288 2.385 . S
O312 C290 1.234 . S
O313 Mn288 2.209 . S
O313 Mn289 2.215 . S
O313 C290 1.283 . S
O314 Mn288 2.094 . S
O314 C292 1.240 . S
O315 Mn289 2.117 . S
O315 C292 1.264 . S
C316 C309 1.403 . S
C316 C317 1.399 . S
C316 H322 0.929 . S
C317 C297 1.449 . S
C317 C316 1.399 . S
C317 H323 0.930 . S
H318 C298 0.931 . S
H319 C299 0.930 . S
H320 C307 0.931 . S
H321 C308 0.931 1_554 S
H322 C316 0.929 . S
H323 C317 0.930 . S
Mn324 O329 2.095 1_554 S
Mn324 O339 2.162 . S
Mn324 O340 2.297 . S
Mn324 O348 2.385 . S
Mn324 O349 2.209 . S
Mn324 O350 2.094 . S
Mn325 O330 2.121 1_554 S
Mn325 N332 2.257 . S
Mn325 N341 2.282 . S
Mn325 O349 2.215 . S
Mn325 O351 2.117 . S
C326 O348 1.234 . S
C326 O349 1.283 . S
C327 O339 1.281 . S
C327 O340 1.236 . S
C328 O350 1.240 . S
C328 O351 1.264 . S
O329 Mn324 2.095 1_556 S
O329 C338 1.250 . S
O330 Mn325 2.121 1_556 S
O330 C338 1.258 . S
C331 N332 1.326 . S
C331 C335 1.460 . S
C331 H337 0.929 . S
N332 Mn325 2.257 . S
N332 C331 1.326 . S
N332 C336 1.362 . S
C333 C334 1.258 . S
C333 C336 1.431 . S
C333 C353 1.449 . S
C334 C333 1.258 . S
C334 C335 1.477 . S
C334 H354 0.931 . S
C335 C331 1.460 . S
C335 C334 1.477 . S
C335 H355 0.930 . S
C336 N332 1.362 . S
C336 C333 1.431 . S
C336 C346 1.476 . S
H337 C331 0.929 . S
C338 O329 1.250 . S
C338 O330 1.258 . S
O339 Mn324 2.162 . S
O339 C327 1.281 . S
O340 Mn324 2.297 . S
O340 C327 1.236 . S
N341 Mn325 2.282 . S
N341 C342 1.328 . S
N341 C346 1.318 . S
C342 N341 1.328 . S
C342 C343 1.457 . S
C342 H347 0.929 . S
C343 C342 1.457 . S
C343 C344 1.291 . S
C343 H356 0.931 . S
C344 C343 1.291 . S
C344 C345 1.373 . S
C344 H357 0.929 . S
C345 C344 1.373 . S
C345 C346 1.396 . S
C345 C352 1.403 . S
C346 C336 1.476 . S
C346 N341 1.318 . S
C346 C345 1.396 . S
H347 C342 0.929 . S
O348 Mn324 2.385 . S
O348 C326 1.234 . S
O349 Mn324 2.209 . S
O349 Mn325 2.215 . S
O349 C326 1.283 . S
O350 Mn324 2.094 . S
O350 C328 1.240 . S
O351 Mn325 2.117 . S
O351 C328 1.264 . S
C352 C345 1.403 . S
C352 C353 1.399 . S
C352 H358 0.929 . S
C353 C333 1.449 . S
C353 C352 1.399 . S
C353 H359 0.930 . S
H354 C334 0.931 . S
H355 C335 0.930 . S
H356 C343 0.931 . S
H357 C344 0.929 . S
H358 C352 0.929 . S
H359 C353 0.930 . S
Mn360 O365 2.095 . S
Mn360 O375 2.162 . S
Mn360 O376 2.297 . S
Mn360 O384 2.385 . S
Mn360 O385 2.209 . S
Mn360 O386 2.094 . S
Mn361 O366 2.121 . S
Mn361 N368 2.257 . S
Mn361 N377 2.282 . S
Mn361 O385 2.215 . S
Mn361 O387 2.117 . S
C362 O384 1.234 . S
C362 O385 1.283 . S
C363 O375 1.281 . S
C363 O376 1.236 . S
C364 O386 1.240 . S
C364 O387 1.264 . S
O365 Mn360 2.095 . S
O365 C374 1.250 . S
O366 Mn361 2.121 . S
O366 C374 1.258 . S
C367 N368 1.326 . S
C367 C371 1.460 . S
C367 H373 0.929 . S
N368 Mn361 2.257 . S
N368 C367 1.326 . S
N368 C372 1.362 . S
C369 C370 1.258 . S
C369 C372 1.431 . S
C369 C389 1.449 . S
C370 C369 1.258 . S
C370 C371 1.477 . S
C370 H390 0.931 . S
C371 C367 1.460 . S
C371 C370 1.477 . S
C371 H391 0.930 . S
C372 N368 1.362 . S
C372 C369 1.431 . S
C372 C382 1.476 . S
H373 C367 0.929 . S
C374 O365 1.250 . S
C374 O366 1.258 . S
O375 Mn360 2.162 . S
O375 C363 1.281 . S
O376 Mn360 2.297 . S
O376 C363 1.236 . S
N377 Mn361 2.282 . S
N377 C378 1.328 . S
N377 C382 1.318 . S
C378 N377 1.328 . S
C378 C379 1.457 . S
C378 H383 0.929 . S
C379 C378 1.457 . S
C379 C380 1.291 . S
C379 H392 0.931 . S
C380 C379 1.291 . S
C380 C381 1.373 . S
C380 H393 0.929 . S
C381 C380 1.373 . S
C381 C382 1.396 . S
C381 C388 1.403 . S
C382 C372 1.476 . S
C382 N377 1.318 . S
C382 C381 1.396 . S
H383 C378 0.929 . S
O384 Mn360 2.385 . S
O384 C362 1.234 . S
O385 Mn360 2.209 . S
O385 Mn361 2.215 . S
O385 C362 1.283 . S
O386 Mn360 2.094 . S
O386 C364 1.240 . S
O387 Mn361 2.117 . S
O387 C364 1.264 . S
C388 C381 1.403 . S
C388 C389 1.399 . S
C388 H394 0.929 . S
C389 C369 1.449 . S
C389 C388 1.399 . S
C389 H395 0.930 . S
H390 C370 0.931 . S
H391 C371 0.930 . S
H392 C379 0.931 . S
H393 C380 0.929 . S
H394 C388 0.929 . S
H395 C389 0.930 . S
Mn396 O401 2.095 . S
Mn396 O411 2.162 . S
Mn396 O412 2.297 . S
Mn396 O420 2.385 . S
Mn396 O421 2.209 . S
Mn396 O422 2.094 . S
Mn397 O402 2.121 . S
Mn397 N404 2.257 . S
Mn397 N413 2.282 . S
Mn397 O421 2.215 . S
Mn397 O423 2.117 . S
C398 O420 1.234 . S
C398 O421 1.283 . S
C399 O411 1.281 . S
C399 O412 1.236 . S
C400 O422 1.240 . S
C400 O423 1.264 . S
O401 Mn396 2.095 . S
O401 C410 1.250 . S
O402 Mn397 2.121 . S
O402 C410 1.258 . S
C403 N404 1.326 . S
C403 C407 1.460 . S
C403 H409 0.929 . S
N404 Mn397 2.257 . S
N404 C403 1.326 . S
N404 C408 1.362 . S
C405 C406 1.258 . S
C405 C408 1.431 . S
C405 C425 1.449 . S
C406 C405 1.258 . S
C406 C407 1.477 . S
C406 H426 0.931 . S
C407 C403 1.460 . S
C407 C406 1.477 . S
C407 H427 0.930 . S
C408 N404 1.362 . S
C408 C405 1.431 . S
C408 C418 1.476 . S
H409 C403 0.929 . S
C410 O401 1.250 . S
C410 O402 1.258 . S
O411 Mn396 2.162 . S
O411 C399 1.281 . S
O412 Mn396 2.297 . S
O412 C399 1.236 . S
N413 Mn397 2.282 . S
N413 C414 1.328 . S
N413 C418 1.318 . S
C414 N413 1.328 . S
C414 C415 1.457 . S
C414 H419 0.929 . S
C415 C414 1.457 . S
C415 C416 1.291 . S
C415 H428 0.931 . S
C416 C415 1.291 . S
C416 C417 1.373 . S
C416 H429 0.929 . S
C417 C416 1.373 . S
C417 C418 1.396 . S
C417 C424 1.403 . S
C418 C408 1.476 . S
C418 N413 1.318 . S
C418 C417 1.396 . S
H419 C414 0.929 . S
O420 Mn396 2.385 . S
O420 C398 1.234 . S
O421 Mn396 2.209 . S
O421 Mn397 2.215 . S
O421 C398 1.283 . S
O422 Mn396 2.094 . S
O422 C400 1.240 . S
O423 Mn397 2.117 . S
O423 C400 1.264 . S
C424 C417 1.403 . S
C424 C425 1.399 . S
C424 H430 0.929 . S
C425 C405 1.449 . S
C425 C424 1.399 . S
C425 H431 0.930 . S
H426 C406 0.931 . S
H427 C407 0.930 . S
H428 C415 0.931 . S
H429 C416 0.929 . S
H430 C424 0.929 . S
H431 C425 0.930 . S
Mn432 O437 2.095 . S
Mn432 O447 2.162 . S
Mn432 O448 2.297 . S
Mn432 O456 2.385 . S
Mn432 O457 2.209 . S
Mn432 O458 2.094 . S
Mn433 O438 2.121 . S
Mn433 N440 2.257 . S
Mn433 N449 2.282 . S
Mn433 O457 2.215 . S
Mn433 O459 2.117 . S
C434 O456 1.234 . S
C434 O457 1.283 . S
C435 O447 1.281 . S
C435 O448 1.236 . S
C436 O458 1.240 . S
C436 O459 1.264 . S
O437 Mn432 2.095 . S
O437 C446 1.250 . S
O438 Mn433 2.121 . S
O438 C446 1.258 . S
C439 N440 1.326 . S
C439 C443 1.460 . S
C439 H445 0.929 . S
N440 Mn433 2.257 . S
N440 C439 1.326 . S
N440 C444 1.362 . S
C441 C442 1.258 . S
C441 C444 1.431 . S
C441 C461 1.449 . S
C442 C441 1.258 . S
C442 C443 1.477 . S
C442 H462 0.931 . S
C443 C439 1.460 . S
C443 C442 1.477 . S
C443 H463 0.930 . S
C444 N440 1.362 . S
C444 C441 1.431 . S
C444 C454 1.476 . S
H445 C439 0.929 . S
C446 O437 1.250 . S
C446 O438 1.258 . S
O447 Mn432 2.162 . S
O447 C435 1.281 . S
O448 Mn432 2.297 . S
O448 C435 1.236 . S
N449 Mn433 2.282 . S
N449 C450 1.328 . S
N449 C454 1.318 . S
C450 N449 1.328 . S
C450 C451 1.457 . S
C450 H455 0.929 . S
C451 C450 1.457 . S
C451 C452 1.291 . S
C451 H464 0.931 . S
C452 C451 1.291 . S
C452 C453 1.373 . S
C452 H465 0.929 . S
C453 C452 1.373 . S
C453 C454 1.396 . S
C453 C460 1.403 . S
C454 C444 1.476 . S
C454 N449 1.318 . S
C454 C453 1.396 . S
H455 C450 0.929 . S
O456 Mn432 2.385 . S
O456 C434 1.234 . S
O457 Mn432 2.209 . S
O457 Mn433 2.215 . S
O457 C434 1.283 . S
O458 Mn432 2.094 . S
O458 C436 1.240 . S
O459 Mn433 2.117 . S
O459 C436 1.264 . S
C460 C453 1.403 . S
C460 C461 1.399 . S
C460 H466 0.929 . S
C461 C441 1.449 . S
C461 C460 1.399 . S
C461 H467 0.930 . S
H462 C442 0.931 . S
H463 C443 0.930 . S
H464 C451 0.931 . S
H465 C452 0.929 . S
H466 C460 0.929 . S
H467 C461 0.930 . S
Mn468 O473 2.095 . S
Mn468 O483 2.162 . S
Mn468 O484 2.297 . S
Mn468 O492 2.385 . S
Mn468 O493 2.209 . S
Mn468 O494 2.094 . S
Mn469 O474 2.121 . S
Mn469 N476 2.257 . S
Mn469 N485 2.282 . S
Mn469 O493 2.215 . S
Mn469 O495 2.117 . S
C470 O492 1.234 . S
C470 O493 1.283 . S
C471 O483 1.281 . S
C471 O484 1.236 . S
C472 O494 1.240 . S
C472 O495 1.264 . S
O473 Mn468 2.095 . S
O473 C482 1.250 . S
O474 Mn469 2.121 . S
O474 C482 1.258 . S
C475 N476 1.326 . S
C475 C479 1.460 . S
C475 H481 0.929 . S
N476 Mn469 2.257 . S
N476 C475 1.326 . S
N476 C480 1.362 . S
C477 C478 1.258 . S
C477 C480 1.431 . S
C477 C497 1.449 . S
C478 C477 1.258 . S
C478 C479 1.477 . S
C478 H498 0.931 . S
C479 C475 1.460 . S
C479 C478 1.477 . S
C479 H499 0.930 . S
C480 N476 1.362 . S
C480 C477 1.431 . S
C480 C490 1.476 . S
H481 C475 0.929 . S
C482 O473 1.250 . S
C482 O474 1.258 . S
O483 Mn468 2.162 . S
O483 C471 1.281 . S
O484 Mn468 2.297 . S
O484 C471 1.236 . S
N485 Mn469 2.282 . S
N485 C486 1.328 . S
N485 C490 1.318 . S
C486 N485 1.328 . S
C486 C487 1.457 . S
C486 H491 0.929 . S
C487 C486 1.457 . S
C487 C488 1.291 . S
C487 H500 0.931 . S
C488 C487 1.291 . S
C488 C489 1.373 . S
C488 H501 0.929 . S
C489 C488 1.373 . S
C489 C490 1.396 . S
C489 C496 1.403 . S
C490 C480 1.476 . S
C490 N485 1.318 . S
C490 C489 1.396 . S
H491 C486 0.929 . S
O492 Mn468 2.385 . S
O492 C470 1.234 . S
O493 Mn468 2.209 . S
O493 Mn469 2.215 . S
O493 C470 1.283 . S
O494 Mn468 2.094 . S
O494 C472 1.240 . S
O495 Mn469 2.117 . S
O495 C472 1.264 . S
C496 C489 1.403 . S
C496 C497 1.399 . S
C496 H502 0.929 . S
C497 C477 1.449 . S
C497 C496 1.399 . S
C497 H503 0.930 . S
H498 C478 0.931 . S
H499 C479 0.930 . S
H500 C487 0.931 . S
H501 C488 0.929 . S
H502 C496 0.929 . S
H503 C497 0.930 . S
Mn504 O509 2.095 . S
Mn504 O519 2.162 1_554 S
Mn504 O520 2.297 1_554 S
Mn504 O528 2.385 1_554 S
Mn504 O529 2.209 1_554 S
Mn504 O530 2.094 . S
Mn505 O510 2.121 . S
Mn505 N512 2.259 . S
Mn505 N521 2.282 1_554 S
Mn505 O529 2.215 1_554 S
Mn505 O531 2.117 . S
C506 O528 1.234 . S
C506 O529 1.283 . S
C507 O519 1.281 . S
C507 O520 1.236 . S
C508 O530 1.240 . S
C508 O531 1.264 . S
O509 Mn504 2.095 . S
O509 C518 1.250 . S
O510 Mn505 2.121 . S
O510 C518 1.258 . S
C511 N512 1.333 . S
C511 C515 1.460 . S
C511 H517 0.929 . S
N512 Mn505 2.259 . S
N512 C511 1.333 . S
N512 C516 1.353 1_554 S
C513 C514 1.258 . S
C513 C516 1.431 . S
C513 C533 1.449 . S
C514 C513 1.258 . S
C514 C515 1.477 1_556 S
C514 H534 0.931 . S
C515 C511 1.460 . S
C515 C514 1.477 1_554 S
C515 H535 0.930 . S
C516 N512 1.353 1_556 S
C516 C513 1.431 . S
C516 C526 1.476 . S
H517 C511 0.929 . S
C518 O509 1.250 . S
C518 O510 1.258 . S
O519 Mn504 2.162 1_556 S
O519 C507 1.281 . S
O520 Mn504 2.297 1_556 S
O520 C507 1.236 . S
N521 Mn505 2.282 1_556 S
N521 C522 1.328 . S
N521 C526 1.318 . S
C522 N521 1.328 . S
C522 C523 1.457 . S
C522 H527 0.929 . S
C523 C522 1.457 . S
C523 C524 1.291 . S
C523 H536 0.931 . S
C524 C523 1.291 . S
C524 C525 1.373 . S
C524 H537 0.929 . S
C525 C524 1.373 . S
C525 C526 1.396 . S
C525 C532 1.403 . S
C526 C516 1.476 . S
C526 N521 1.318 . S
C526 C525 1.396 . S
H527 C522 0.929 . S
O528 Mn504 2.385 1_556 S
O528 C506 1.234 . S
O529 Mn504 2.209 1_556 S
O529 Mn505 2.215 1_556 S
O529 C506 1.283 . S
O530 Mn504 2.094 . S
O530 C508 1.240 . S
O531 Mn505 2.117 . S
O531 C508 1.264 . S
C532 C525 1.403 . S
C532 C533 1.399 . S
C532 H538 0.929 . S
C533 C513 1.449 . S
C533 C532 1.399 . S
C533 H539 0.930 . S
H534 C514 0.931 . S
H535 C515 0.930 . S
H536 C523 0.931 . S
H537 C524 0.929 . S
H538 C532 0.929 . S
H539 C533 0.930 . S
Mn540 O545 2.095 . S
Mn540 O555 2.162 . S
Mn540 O556 2.297 . S
Mn540 O564 2.385 . S
Mn540 O565 2.209 . S
Mn540 O566 2.094 . S
Mn541 O546 2.121 . S
Mn541 N548 2.257 . S
Mn541 N557 2.282 . S
Mn541 O565 2.215 . S
Mn541 O567 2.117 . S
C542 O564 1.234 . S
C542 O565 1.283 . S
C543 O555 1.281 . S
C543 O556 1.236 . S
C544 O566 1.240 . S
C544 O567 1.264 . S
O545 Mn540 2.095 . S
O545 C554 1.250 . S
O546 Mn541 2.121 . S
O546 C554 1.258 . S
C547 N548 1.326 . S
C547 C551 1.460 . S
C547 H553 0.929 . S
N548 Mn541 2.257 . S
N548 C547 1.326 . S
N548 C552 1.362 . S
C549 C550 1.258 . S
C549 C552 1.431 . S
C549 C569 1.449 . S
C550 C549 1.258 . S
C550 C551 1.477 . S
C550 H570 0.931 . S
C551 C547 1.460 . S
C551 C550 1.477 . S
C551 H571 0.930 . S
C552 N548 1.362 . S
C552 C549 1.431 . S
C552 C562 1.476 . S
H553 C547 0.929 . S
C554 O545 1.250 . S
C554 O546 1.258 . S
O555 Mn540 2.162 . S
O555 C543 1.281 . S
O556 Mn540 2.297 . S
O556 C543 1.236 . S
N557 Mn541 2.282 . S
N557 C558 1.328 . S
N557 C562 1.318 . S
C558 N557 1.328 . S
C558 C559 1.457 . S
C558 H563 0.929 . S
C559 C558 1.457 . S
C559 C560 1.291 . S
C559 H572 0.931 . S
C560 C559 1.291 . S
C560 C561 1.373 . S
C560 H573 0.929 . S
C561 C560 1.373 . S
C561 C562 1.396 . S
C561 C568 1.403 . S
C562 C552 1.476 . S
C562 N557 1.318 . S
C562 C561 1.396 . S
H563 C558 0.929 . S
O564 Mn540 2.385 . S
O564 C542 1.234 . S
O565 Mn540 2.209 . S
O565 Mn541 2.215 . S
O565 C542 1.283 . S
O566 Mn540 2.094 . S
O566 C544 1.240 . S
O567 Mn541 2.117 . S
O567 C544 1.264 . S
C568 C561 1.403 . S
C568 C569 1.399 . S
C568 H574 0.929 . S
C569 C549 1.449 . S
C569 C568 1.399 . S
C569 H575 0.930 . S
H570 C550 0.931 . S
H571 C551 0.930 . S
H572 C559 0.931 . S
H573 C560 0.929 . S
H574 C568 0.929 . S
H575 C569 0.930 . S
H576 C584 0.950 . S
H577 C589 0.950 . S
H578 C586 0.950 . S
H579 C588 0.950 . S
H580 C590 0.950 . S
H581 C592 0.950 . S
H582 C594 0.950 . S
H583 C595 0.950 . S
C584 H576 0.950 . S
C584 C585 1.386 . S
C584 C586 1.391 . S
C585 C584 1.386 . S
C585 C589 1.393 . S
C586 H578 0.950 . S
C586 C584 1.391 . S
C586 C587 1.400 . S
C587 C586 1.400 . S
C587 C588 1.398 . S
C587 C593 1.491 . S
C588 H579 0.950 . S
C588 C587 1.398 . S
C588 C589 1.391 . S
C589 H577 0.950 . S
C589 C585 1.393 . S
C589 C588 1.391 . S
C590 H580 0.950 . S
C590 C591 1.386 . S
C590 C592 1.391 . S
C591 C590 1.386 . S
C591 C595 1.393 . S
C592 H581 0.950 . S
C592 C590 1.391 . S
C592 C593 1.400 . S
C593 C587 1.491 . S
C593 C592 1.400 . S
C593 C594 1.398 . S
C594 H582 0.950 . S
C594 C593 1.398 . S
C594 C595 1.391 . S
C595 H583 0.950 . S
C595 C591 1.393 . S
C595 C594 1.391 . S
H596 C604 0.950 . S
H597 C609 0.950 . S
H598 C606 0.950 . S
H599 C608 0.950 . S
H600 C610 0.950 . S
H601 C612 0.950 . S
H602 C614 0.950 . S
H603 C615 0.950 . S
C604 H596 0.950 . S
C604 C605 1.386 . S
C604 C606 1.391 . S
C605 C604 1.386 . S
C605 C609 1.393 . S
C606 H598 0.950 . S
C606 C604 1.391 . S
C606 C607 1.400 . S
C607 C606 1.400 . S
C607 C608 1.398 . S
C607 C613 1.491 . S
C608 H599 0.950 . S
C608 C607 1.398 . S
C608 C609 1.391 . S
C609 H597 0.950 . S
C609 C605 1.393 . S
C609 C608 1.391 . S
C610 H600 0.950 . S
C610 C611 1.386 . S
C610 C612 1.391 . S
C611 C610 1.386 . S
C611 C615 1.393 . S
C612 H601 0.950 . S
C612 C610 1.391 . S
C612 C613 1.400 . S
C613 C607 1.491 . S
C613 C612 1.400 . S
C613 C614 1.398 . S
C614 H602 0.950 . S
C614 C613 1.398 . S
C614 C615 1.391 . S
C615 H603 0.950 . S
C615 C611 1.393 . S
C615 C614 1.391 . S
H616 C624 0.950 . S
H617 C629 0.950 . S
H618 C626 0.950 . S
H619 C628 0.950 . S
H620 C630 0.950 1_554 S
H621 C632 0.950 . S
H622 C634 0.950 . S
H623 C635 0.950 . S
C624 H616 0.950 . S
C624 C625 1.386 . S
C624 C626 1.391 . S
C625 C624 1.386 . S
C625 C629 1.393 . S
C626 H618 0.950 . S
C626 C624 1.391 . S
C626 C627 1.400 . S
C627 C626 1.400 . S
C627 C628 1.398 . S
C627 C633 1.491 . S
C628 H619 0.950 . S
C628 C627 1.398 . S
C628 C629 1.391 . S
C629 H617 0.950 . S
C629 C625 1.393 . S
C629 C628 1.391 . S
C630 H620 0.950 1_556 S
C630 C631 1.386 . S
C630 C632 1.391 . S
C631 C630 1.386 . S
C631 C635 1.393 . S
C632 H621 0.950 . S
C632 C630 1.391 . S
C632 C633 1.400 . S
C633 C627 1.491 . S
C633 C632 1.400 . S
C633 C634 1.398 . S
C634 H622 0.950 . S
C634 C633 1.398 . S
C634 C635 1.391 . S
C635 H623 0.950 . S
C635 C631 1.393 . S
C635 C634 1.391 . S
H636 C644 0.950 . S
H637 C649 0.950 . S
H638 C646 0.950 . S
H639 C648 0.950 . S
H640 C650 0.950 . S
H641 C652 0.950 . S
H642 C654 0.950 . S
H643 C655 0.950 . S
C644 H636 0.950 . S
C644 C645 1.386 . S
C644 C646 1.391 . S
C645 C644 1.386 . S
C645 C649 1.393 . S
C646 H638 0.950 . S
C646 C644 1.391 . S
C646 C647 1.400 . S
C647 C646 1.400 . S
C647 C648 1.398 . S
C647 C653 1.491 . S
C648 H639 0.950 . S
C648 C647 1.398 . S
C648 C649 1.391 . S
C649 H637 0.950 . S
C649 C645 1.393 . S
C649 C648 1.391 . S
C650 H640 0.950 . S
C650 C651 1.386 . S
C650 C652 1.391 . S
C651 C650 1.386 . S
C651 C655 1.393 . S
C652 H641 0.950 . S
C652 C650 1.391 . S
C652 C653 1.400 . S
C653 C647 1.491 . S
C653 C652 1.400 . S
C653 C654 1.398 . S
C654 H642 0.950 . S
C654 C653 1.398 . S
C654 C655 1.391 . S
C655 H643 0.950 . S
C655 C651 1.393 . S
C655 C654 1.391 . S
H656 C664 0.950 . S
H657 C669 0.950 . S
H658 C666 0.950 . S
H659 C668 0.950 . S
H660 C670 0.950 . S
H661 C672 0.950 . S
H662 C674 0.950 . S
H663 C675 0.950 . S
C664 H656 0.950 . S
C664 C665 1.386 . S
C664 C666 1.391 . S
C665 C664 1.386 . S
C665 C669 1.393 . S
C666 H658 0.950 . S
C666 C664 1.391 . S
C666 C667 1.400 . S
C667 C666 1.400 . S
C667 C668 1.398 . S
C667 C673 1.491 . S
C668 H659 0.950 . S
C668 C667 1.398 . S
C668 C669 1.391 . S
C669 H657 0.950 . S
C669 C665 1.393 . S
C669 C668 1.391 . S
C670 H660 0.950 . S
C670 C671 1.386 . S
C670 C672 1.391 . S
C671 C670 1.386 . S
C671 C675 1.393 . S
C672 H661 0.950 . S
C672 C670 1.391 . S
C672 C673 1.400 . S
C673 C667 1.491 . S
C673 C672 1.400 . S
C673 C674 1.398 . S
C674 H662 0.950 . S
C674 C673 1.398 . S
C674 C675 1.391 . S
C675 H663 0.950 . S
C675 C671 1.393 . S
C675 C674 1.391 . S
H676 C684 0.950 . S
H677 C689 0.950 . S
H678 C686 0.950 . S
H679 C688 0.950 . S
H680 C690 0.950 . S
H681 C692 0.950 . S
H682 C694 0.950 . S
H683 C695 0.950 . S
C684 H676 0.950 . S
C684 C685 1.386 . S
C684 C686 1.391 . S
C685 C684 1.386 . S
C685 C689 1.393 . S
C686 H678 0.950 . S
C686 C684 1.391 . S
C686 C687 1.400 . S
C687 C686 1.400 . S
C687 C688 1.398 . S
C687 C693 1.491 . S
C688 H679 0.950 . S
C688 C687 1.398 . S
C688 C689 1.391 . S
C689 H677 0.950 . S
C689 C685 1.393 . S
C689 C688 1.391 . S
C690 H680 0.950 . S
C690 C691 1.386 . S
C690 C692 1.391 . S
C691 C690 1.386 . S
C691 C695 1.393 . S
C692 H681 0.950 . S
C692 C690 1.391 . S
C692 C693 1.400 . S
C693 C687 1.491 . S
C693 C692 1.400 . S
C693 C694 1.398 . S
C694 H682 0.950 . S
C694 C693 1.398 . S
C694 C695 1.391 . S
C695 H683 0.950 . S
C695 C691 1.393 . S
C695 C694 1.391 . S
H696 C704 0.950 . S
H697 C709 0.950 . S
H698 C706 0.950 . S
H699 C708 0.950 . S
H700 C710 0.950 . S
H701 C712 0.950 . S
H702 C714 0.950 . S
H703 C715 0.950 . S
C704 H696 0.950 . S
C704 C705 1.386 . S
C704 C706 1.391 . S
C705 C704 1.386 . S
C705 C709 1.393 . S
C706 H698 0.950 . S
C706 C704 1.391 . S
C706 C707 1.400 . S
C707 C706 1.400 . S
C707 C708 1.398 . S
C707 C713 1.491 . S
C708 H699 0.950 . S
C708 C707 1.398 . S
C708 C709 1.391 . S
C709 H697 0.950 . S
C709 C705 1.393 . S
C709 C708 1.391 . S
C710 H700 0.950 . S
C710 C711 1.386 . S
C710 C712 1.391 . S
C711 C710 1.386 . S
C711 C715 1.393 . S
C712 H701 0.950 . S
C712 C710 1.391 . S
C712 C713 1.400 . S
C713 C707 1.491 . S
C713 C712 1.400 . S
C713 C714 1.398 . S
C714 H702 0.950 . S
C714 C713 1.398 . S
C714 C715 1.391 . S
C715 H703 0.950 . S
C715 C711 1.393 . S
C715 C714 1.391 . S
H716 C724 0.950 . S
H717 C729 0.950 . S
H718 C726 0.950 . S
H719 C728 0.950 . S
H720 C730 0.950 . S
H721 C732 0.950 . S
H722 C734 0.950 . S
H723 C735 0.950 . S
C724 H716 0.950 . S
C724 C725 1.386 . S
C724 C726 1.391 . S
C725 C724 1.386 . S
C725 C729 1.393 . S
C726 H718 0.950 . S
C726 C724 1.391 . S
C726 C727 1.400 . S
C727 C726 1.400 . S
C727 C728 1.398 . S
C727 C733 1.491 . S
C728 H719 0.950 . S
C728 C727 1.398 . S
C728 C729 1.391 . S
C729 H717 0.950 . S
C729 C725 1.393 . S
C729 C728 1.391 . S
C730 H720 0.950 . S
C730 C731 1.386 . S
C730 C732 1.391 . S
C731 C730 1.386 . S
C731 C735 1.393 . S
C732 H721 0.950 . S
C732 C730 1.391 . S
C732 C733 1.400 . S
C733 C727 1.491 . S
C733 C732 1.400 . S
C733 C734 1.398 . S
C734 H722 0.950 . S
C734 C733 1.398 . S
C734 C735 1.391 . S
C735 H723 0.950 . S
C735 C731 1.393 . S
C735 C734 1.391 . S
H736 C744 0.950 . S
H737 C749 0.950 . S
H738 C746 0.950 1_565 S
H739 C748 0.950 . S
H740 C750 0.950 . S
H741 C752 0.950 1_545 S
H742 C754 0.950 . S
H743 C755 0.950 . S
C744 H736 0.950 . S
C744 C745 1.386 . S
C744 C746 1.391 . S
C745 C744 1.386 . S
C745 C749 1.393 . S
C746 H738 0.950 1_545 S
C746 C744 1.391 . S
C746 C747 1.400 . S
C747 C746 1.400 . S
C747 C748 1.398 . S
C747 C753 1.491 1_445 S
C748 H739 0.950 . S
C748 C747 1.398 . S
C748 C749 1.391 . S
C749 H737 0.950 . S
C749 C745 1.393 . S
C749 C748 1.391 . S
C750 H740 0.950 . S
C750 C751 1.386 . S
C750 C752 1.391 . S
C751 C750 1.386 . S
C751 C755 1.393 . S
C752 H741 0.950 1_565 S
C752 C750 1.391 . S
C752 C753 1.400 . S
C753 C747 1.491 1_665 S
C753 C752 1.400 . S
C753 C754 1.398 . S
C754 H742 0.950 . S
C754 C753 1.398 . S
C754 C755 1.391 . S
C755 H743 0.950 . S
C755 C751 1.393 . S
C755 C754 1.391 . S
H756 C764 0.950 . S
H757 C769 0.950 . S
H758 C766 0.950 . S
H759 C768 0.950 1_455 S
H760 C770 0.950 . S
H761 C772 0.950 . S
H762 C774 0.950 1_655 S
H763 C775 0.950 . S
C764 H756 0.950 . S
C764 C765 1.386 . S
C764 C766 1.391 . S
C765 C764 1.386 . S
C765 C769 1.393 . S
C766 H758 0.950 . S
C766 C764 1.391 . S
C766 C767 1.400 . S
C767 C766 1.400 . S
C767 C768 1.398 . S
C767 C773 1.491 1_655 S
C768 H759 0.950 1_655 S
C768 C767 1.398 . S
C768 C769 1.391 . S
C769 H757 0.950 . S
C769 C765 1.393 . S
C769 C768 1.391 . S
C770 H760 0.950 . S
C770 C771 1.386 . S
C770 C772 1.391 . S
C771 C770 1.386 . S
C771 C775 1.393 . S
C772 H761 0.950 . S
C772 C770 1.391 . S
C772 C773 1.400 . S
C773 C767 1.491 1_455 S
C773 C772 1.400 . S
C773 C774 1.398 . S
C774 H762 0.950 1_455 S
C774 C773 1.398 . S
C774 C775 1.391 . S
C775 H763 0.950 . S
C775 C771 1.393 . S
C775 C774 1.391 . S
H776 C784 0.950 . S
H777 C789 0.950 . S
H778 C786 0.950 . S
H779 C788 0.950 . S
H780 C790 0.950 . S
H781 C792 0.950 . S
H782 C794 0.950 . S
H783 C795 0.950 . S
C784 H776 0.950 . S
C784 C785 1.386 . S
C784 C786 1.391 . S
C785 C784 1.386 . S
C785 C789 1.393 . S
C786 H778 0.950 . S
C786 C784 1.391 . S
C786 C787 1.400 . S
C787 C786 1.400 . S
C787 C788 1.398 . S
C787 C793 1.491 . S
C788 H779 0.950 . S
C788 C787 1.398 . S
C788 C789 1.391 . S
C789 H777 0.950 . S
C789 C785 1.393 . S
C789 C788 1.391 . S
C790 H780 0.950 . S
C790 C791 1.386 . S
C790 C792 1.391 . S
C791 C790 1.386 . S
C791 C795 1.393 . S
C792 H781 0.950 . S
C792 C790 1.391 . S
C792 C793 1.400 . S
C793 C787 1.491 . S
C793 C792 1.400 . S
C793 C794 1.398 . S
C794 H782 0.950 . S
C794 C793 1.398 . S
C794 C795 1.391 . S
C795 H783 0.950 . S
C795 C791 1.393 . S
C795 C794 1.391 . S
H796 C804 0.950 . S
H797 C809 0.950 . S
H798 C806 0.950 . S
H799 C808 0.977 . S
H800 C810 0.950 . S
H801 C812 0.950 . S
H802 C814 0.977 . S
H803 C815 0.950 . S
C804 H796 0.950 . S
C804 C805 1.386 . S
C804 C806 1.391 . S
C805 C804 1.386 . S
C805 C809 1.393 . S
C806 H798 0.950 . S
C806 C804 1.391 . S
C806 C807 1.400 . S
C807 C806 1.400 . S
C807 C808 1.398 . S
C807 C813 1.491 1_565 S
C808 H799 0.977 . S
C808 C807 1.398 . S
C808 C809 1.391 . S
C809 H797 0.950 . S
C809 C805 1.393 . S
C809 C808 1.391 . S
C810 H800 0.950 . S
C810 C811 1.386 . S
C810 C812 1.391 . S
C811 C810 1.386 . S
C811 C815 1.393 . S
C812 H801 0.950 . S
C812 C810 1.391 . S
C812 C813 1.400 . S
C813 C807 1.491 1_545 S
C813 C812 1.400 . S
C813 C814 1.398 . S
C814 H802 0.977 . S
C814 C813 1.398 . S
C814 C815 1.391 . S
C815 H803 0.950 . S
C815 C811 1.393 . S
C815 C814 1.391 . S
H816 C824 0.950 . S
H817 C829 0.950 . S
H818 C826 0.950 . S
H819 C828 0.950 . S
H820 C830 0.950 . S
H821 C832 0.950 . S
H822 C834 0.950 . S
H823 C835 0.950 . S
C824 H816 0.950 . S
C824 C825 1.386 1_556 S
C824 C826 1.391 . S
C825 C824 1.386 1_554 S
C825 C829 1.393 . S
C826 H818 0.950 . S
C826 C824 1.391 . S
C826 C827 1.400 1_556 S
C827 C826 1.400 1_554 S
C827 C828 1.398 . S
C827 C833 1.491 1_455 S
C828 H819 0.950 . S
C828 C827 1.398 . S
C828 C829 1.391 . S
C829 H817 0.950 . S
C829 C825 1.393 . S
C829 C828 1.391 . S
C830 H820 0.950 . S
C830 C831 1.386 . S
C830 C832 1.391 . S
C831 C830 1.386 . S
C831 C835 1.393 1_554 S
C832 H821 0.950 . S
C832 C830 1.391 . S
C832 C833 1.400 . S
C833 C827 1.491 1_655 S
C833 C832 1.400 . S
C833 C834 1.398 1_554 S
C834 H822 0.950 . S
C834 C833 1.398 1_556 S
C834 C835 1.391 . S
C835 H823 0.950 . S
C835 C831 1.393 1_556 S
C835 C834 1.391 . S
H836 C844 0.950 . S
H837 C849 0.950 . S
H838 C846 0.950 . S
H839 C848 0.950 . S
H840 C850 0.950 . S
H841 C852 0.950 . S
H842 C854 0.950 . S
H843 C855 0.950 . S
C844 H836 0.950 . S
C844 C845 1.386 . S
C844 C846 1.391 . S
C845 C844 1.386 . S
C845 C849 1.393 . S
C846 H838 0.950 . S
C846 C844 1.391 . S
C846 C847 1.400 . S
C847 C846 1.400 . S
C847 C848 1.398 . S
C847 C853 1.491 . S
C848 H839 0.950 . S
C848 C847 1.398 . S
C848 C849 1.391 . S
C849 H837 0.950 . S
C849 C845 1.393 . S
C849 C848 1.391 . S
C850 H840 0.950 . S
C850 C851 1.386 . S
C850 C852 1.391 . S
C851 C850 1.386 . S
C851 C855 1.393 . S
C852 H841 0.950 . S
C852 C850 1.391 . S
C852 C853 1.400 . S
C853 C847 1.491 . S
C853 C852 1.400 . S
C853 C854 1.398 . S
C854 H842 0.950 . S
C854 C853 1.398 . S
C854 C855 1.391 . S
C855 H843 0.950 . S
C855 C851 1.393 . S
C855 C854 1.391 . S
H856 C864 0.950 . S
H857 C869 0.950 . S
H858 C866 0.950 . S
H859 C868 0.950 . S
H860 C870 0.950 . S
H861 C872 0.950 . S
H862 C874 0.950 . S
H863 C875 0.950 . S
C864 H856 0.950 . S
C864 C865 1.386 . S
C864 C866 1.391 . S
C865 C864 1.386 . S
C865 C869 1.393 . S
C866 H858 0.950 . S
C866 C864 1.391 . S
C866 C867 1.400 . S
C867 C866 1.400 . S
C867 C868 1.398 1_545 S
C867 C873 1.491 1_545 S
C868 H859 0.950 . S
C868 C867 1.398 1_565 S
C868 C869 1.391 1_565 S
C869 H857 0.950 . S
C869 C865 1.393 . S
C869 C868 1.391 1_545 S
C870 H860 0.950 . S
C870 C871 1.386 . S
C870 C872 1.391 . S
C871 C870 1.386 . S
C871 C875 1.393 . S
C872 H861 0.950 . S
C872 C870 1.391 . S
C872 C873 1.400 . S
C873 C867 1.491 1_565 S
C873 C872 1.400 . S
C873 C874 1.398 1_565 S
C874 H862 0.950 . S
C874 C873 1.398 1_545 S
C874 C875 1.391 1_545 S
C875 H863 0.950 . S
C875 C871 1.393 . S
C875 C874 1.391 1_565 S
H876 C884 0.950 . S
H877 C889 0.950 . S
H878 C886 0.950 . S
H879 C888 0.950 . S
H880 C890 0.950 . S
H881 C892 0.950 . S
H882 C894 0.950 . S
H883 C895 0.950 . S
C884 H876 0.950 . S
C884 C885 1.386 . S
C884 C886 1.391 . S
C885 C884 1.386 . S
C885 C889 1.393 . S
C886 H878 0.950 . S
C886 C884 1.391 . S
C886 C887 1.400 . S
C887 C886 1.400 . S
C887 C888 1.398 . S
C887 C893 1.491 1_445 S
C888 H879 0.950 . S
C888 C887 1.398 . S
C888 C889 1.391 . S
C889 H877 0.950 . S
C889 C885 1.393 . S
C889 C888 1.391 . S
C890 H880 0.950 . S
C890 C891 1.386 . S
C890 C892 1.391 . S
C891 C890 1.386 . S
C891 C895 1.393 . S
C892 H881 0.950 . S
C892 C890 1.391 . S
C892 C893 1.400 . S
C893 C887 1.491 1_665 S
C893 C892 1.400 . S
C893 C894 1.398 . S
C894 H882 0.950 . S
C894 C893 1.398 . S
C894 C895 1.391 . S
C895 H883 0.950 . S
C895 C891 1.393 . S
C895 C894 1.391 . S
H896 C904 0.950 . S
H897 C909 0.950 . S
H898 C906 0.950 . S
H899 C908 0.950 . S
H900 C910 0.950 . S
H901 C912 0.950 . S
H902 C914 0.950 . S
H903 C915 0.950 . S
C904 H896 0.950 . S
C904 C905 1.386 . S
C904 C906 1.391 . S
C905 C904 1.386 . S
C905 C909 1.393 . S
C906 H898 0.950 . S
C906 C904 1.391 . S
C906 C907 1.400 . S
C907 C906 1.400 . S
C907 C908 1.398 . S
C907 C913 1.491 . S
C908 H899 0.950 . S
C908 C907 1.398 . S
C908 C909 1.391 . S
C909 H897 0.950 . S
C909 C905 1.393 . S
C909 C908 1.391 . S
C910 H900 0.950 . S
C910 C911 1.386 . S
C910 C912 1.391 . S
C911 C910 1.386 . S
C911 C915 1.393 . S
C912 H901 0.950 . S
C912 C910 1.391 . S
C912 C913 1.400 . S
C913 C907 1.491 . S
C913 C912 1.400 . S
C913 C914 1.398 . S
C914 H902 0.950 . S
C914 C913 1.398 . S
C914 C915 1.391 . S
C915 H903 0.950 . S
C915 C911 1.393 . S
C915 C914 1.391 . S
H916 C924 0.950 . S
H917 C929 0.950 . S
H918 C926 0.950 . S
H919 C928 0.950 . S
H920 C930 0.950 . S
H921 C932 0.950 . S
H922 C934 0.950 . S
H923 C935 0.950 . S
C924 H916 0.950 . S
C924 C925 1.386 . S
C924 C926 1.391 . S
C925 C924 1.386 . S
C925 C929 1.393 . S
C926 H918 0.950 . S
C926 C924 1.391 . S
C926 C927 1.400 . S
C927 C926 1.400 . S
C927 C928 1.398 . S
C927 C933 1.491 . S
C928 H919 0.950 . S
C928 C927 1.398 . S
C928 C929 1.391 . S
C929 H917 0.950 . S
C929 C925 1.393 . S
C929 C928 1.391 . S
C930 H920 0.950 . S
C930 C931 1.386 . S
C930 C932 1.391 . S
C931 C930 1.386 . S
C931 C935 1.393 . S
C932 H921 0.950 . S
C932 C930 1.391 . S
C932 C933 1.400 . S
C933 C927 1.491 . S
C933 C932 1.400 . S
C933 C934 1.398 . S
C934 H922 0.950 . S
C934 C933 1.398 . S
C934 C935 1.391 . S
C935 H923 0.950 . S
C935 C931 1.393 . S
C935 C934 1.391 . S
H936 C944 0.950 . S
H937 C949 0.950 . S
H938 C946 0.950 . S
H939 C948 0.950 . S
H940 C950 0.950 . S
H941 C952 0.950 . S
H942 C954 0.950 . S
H943 C955 0.950 . S
C944 H936 0.950 . S
C944 C945 1.386 . S
C944 C946 1.391 . S
C945 C944 1.386 . S
C945 C949 1.393 . S
C946 H938 0.950 . S
C946 C944 1.391 . S
C946 C947 1.400 . S
C947 C946 1.400 . S
C947 C948 1.398 . S
C947 C953 1.491 . S
C948 H939 0.950 . S
C948 C947 1.398 . S
C948 C949 1.391 . S
C949 H937 0.950 . S
C949 C945 1.393 . S
C949 C948 1.391 . S
C950 H940 0.950 . S
C950 C951 1.386 . S
C950 C952 1.391 . S
C951 C950 1.386 . S
C951 C955 1.393 . S
C952 H941 0.950 . S
C952 C950 1.391 . S
C952 C953 1.400 1_556 S
C953 C947 1.491 . S
C953 C952 1.400 1_554 S
C953 C954 1.398 1_554 S
C954 H942 0.950 . S
C954 C953 1.398 1_556 S
C954 C955 1.391 . S
C955 H943 0.950 . S
C955 C951 1.393 . S
C955 C954 1.391 . S
H956 C964 0.950 . S
H957 C969 0.950 . S
H958 C966 0.950 . S
H959 C968 0.950 . S
H960 C970 0.950 . S
H961 C972 0.950 . S
H962 C974 0.950 . S
H963 C975 0.950 . S
C964 H956 0.950 . S
C964 C965 1.386 . S
C964 C966 1.391 . S
C965 C964 1.386 . S
C965 C969 1.393 . S
C966 H958 0.950 . S
C966 C964 1.391 . S
C966 C967 1.400 . S
C967 C966 1.400 . S
C967 C968 1.398 . S
C967 C973 1.491 . S
C968 H959 0.950 . S
C968 C967 1.398 . S
C968 C969 1.391 . S
C969 H957 0.950 . S
C969 C965 1.393 . S
C969 C968 1.391 . S
C970 H960 0.950 . S
C970 C971 1.386 . S
C970 C972 1.391 . S
C971 C970 1.386 . S
C971 C975 1.393 . S
C972 H961 0.950 . S
C972 C970 1.391 . S
C972 C973 1.400 . S
C973 C967 1.491 . S
C973 C972 1.400 . S
C973 C974 1.398 . S
C974 H962 0.950 . S
C974 C973 1.398 . S
C974 C975 1.391 . S
C975 H963 0.950 . S
C975 C971 1.393 . S
C975 C974 1.391 . S
H976 C984 0.950 . S
H977 C989 0.950 . S
H978 C986 0.950 . S
H979 C988 0.950 . S
H980 C990 0.950 . S
H981 C992 0.950 . S
H982 C994 0.950 . S
H983 C995 0.950 . S
C984 H976 0.950 . S
C984 C985 1.386 . S
C984 C986 1.391 . S
C985 C984 1.386 . S
C985 C989 1.393 . S
C986 H978 0.950 . S
C986 C984 1.391 . S
C986 C987 1.400 . S
C987 C986 1.400 . S
C987 C988 1.398 . S
C987 C993 1.491 . S
C988 H979 0.950 . S
C988 C987 1.398 . S
C988 C989 1.391 . S
C989 H977 0.950 . S
C989 C985 1.393 . S
C989 C988 1.391 . S
C990 H980 0.950 . S
C990 C991 1.386 . S
C990 C992 1.391 . S
C991 C990 1.386 . S
C991 C995 1.393 . S
C992 H981 0.950 . S
C992 C990 1.391 . S
C992 C993 1.400 . S
C993 C987 1.491 . S
C993 C992 1.400 . S
C993 C994 1.398 . S
C994 H982 0.950 . S
C994 C993 1.398 . S
C994 C995 1.391 . S
C995 H983 0.950 . S
C995 C991 1.393 . S
C995 C994 1.391 . S
H996 C1004 0.950 . S
H997 C1009 0.950 . S
H998 C1006 0.950 . S
H999 C1008 0.950 . S
H1000 C1010 0.950 . S
H1001 C1012 0.950 . S
H1002 C1014 0.950 . S
H1003 C1015 0.950 . S
C1004 H996 0.950 . S
C1004 C1005 1.386 . S
C1004 C1006 1.391 . S
C1005 C1004 1.386 . S
C1005 C1009 1.393 . S
C1006 H998 0.950 . S
C1006 C1004 1.391 . S
C1006 C1007 1.400 . S
C1007 C1006 1.400 . S
C1007 C1008 1.398 . S
C1007 C1013 1.491 . S
C1008 H999 0.950 . S
C1008 C1007 1.398 . S
C1008 C1009 1.391 . S
C1009 H997 0.950 . S
C1009 C1005 1.393 . S
C1009 C1008 1.391 . S
C1010 H1000 0.950 . S
C1010 C1011 1.386 . S
C1010 C1012 1.391 . S
C1011 C1010 1.386 . S
C1011 C1015 1.393 . S
C1012 H1001 0.950 . S
C1012 C1010 1.391 . S
C1012 C1013 1.400 1_556 S
C1013 C1007 1.491 . S
C1013 C1012 1.400 1_554 S
C1013 C1014 1.398 1_554 S
C1014 H1002 0.950 . S
C1014 C1013 1.398 1_556 S
C1014 C1015 1.391 . S
C1015 H1003 0.950 . S
C1015 C1011 1.393 . S
C1015 C1014 1.391 . S
H1016 C1024 0.950 . S
H1017 C1029 0.950 . S
H1018 C1026 0.950 . S
H1019 C1028 0.950 . S
H1020 C1030 0.950 . S
H1021 C1032 0.950 . S
H1022 C1034 0.950 . S
H1023 C1035 0.950 . S
C1024 H1016 0.950 . S
C1024 C1025 1.386 . S
C1024 C1026 1.391 . S
C1025 C1024 1.386 . S
C1025 C1029 1.393 . S
C1026 H1018 0.950 . S
C1026 C1024 1.391 . S
C1026 C1027 1.400 . S
C1027 C1026 1.400 . S
C1027 C1028 1.398 . S
C1027 C1033 1.491 . S
C1028 H1019 0.950 . S
C1028 C1027 1.398 . S
C1028 C1029 1.391 . S
C1029 H1017 0.950 . S
C1029 C1025 1.393 . S
C1029 C1028 1.391 . S
C1030 H1020 0.950 . S
C1030 C1031 1.386 . S
C1030 C1032 1.391 . S
C1031 C1030 1.386 . S
C1031 C1035 1.393 . S
C1032 H1021 0.950 . S
C1032 C1030 1.391 . S
C1032 C1033 1.400 . S
C1033 C1027 1.491 . S
C1033 C1032 1.400 . S
C1033 C1034 1.398 . S
C1034 H1022 0.950 . S
C1034 C1033 1.398 . S
C1034 C1035 1.391 . S
C1035 H1023 0.950 . S
C1035 C1031 1.393 . S
C1035 C1034 1.391 . S
H1036 C1044 0.950 . S
H1037 C1049 0.950 . S
H1038 C1046 0.950 . S
H1039 C1048 0.950 . S
H1040 C1050 0.950 . S
H1041 C1052 0.950 . S
H1042 C1054 0.950 . S
H1043 C1055 0.950 . S
C1044 H1036 0.950 . S
C1044 C1045 1.386 . S
C1044 C1046 1.391 . S
C1045 C1044 1.386 . S
C1045 C1049 1.393 . S
C1046 H1038 0.950 . S
C1046 C1044 1.391 . S
C1046 C1047 1.400 . S
C1047 C1046 1.400 . S
C1047 C1048 1.398 . S
C1047 C1053 1.491 . S
C1048 H1039 0.950 . S
C1048 C1047 1.398 . S
C1048 C1049 1.391 . S
C1049 H1037 0.950 . S
C1049 C1045 1.393 . S
C1049 C1048 1.391 . S
C1050 H1040 0.950 . S
C1050 C1051 1.386 . S
C1050 C1052 1.391 . S
C1051 C1050 1.386 . S
C1051 C1055 1.393 . S
C1052 H1041 0.950 . S
C1052 C1050 1.391 . S
C1052 C1053 1.400 . S
C1053 C1047 1.491 . S
C1053 C1052 1.400 . S
C1053 C1054 1.398 . S
C1054 H1042 0.950 . S
C1054 C1053 1.398 . S
C1054 C1055 1.391 . S
C1055 H1043 0.950 . S
C1055 C1051 1.393 . S
C1055 C1054 1.391 . S
H1056 C1064 0.950 . S
H1057 C1069 0.950 . S
H1058 C1066 0.950 . S
H1059 C1068 0.950 . S
H1060 C1070 0.950 . S
H1061 C1072 0.950 . S
H1062 C1074 0.950 . S
H1063 C1075 0.950 . S
C1064 H1056 0.950 . S
C1064 C1065 1.386 . S
C1064 C1066 1.391 . S
C1065 C1064 1.386 . S
C1065 C1069 1.393 . S
C1066 H1058 0.950 . S
C1066 C1064 1.391 . S
C1066 C1067 1.400 1_556 S
C1067 C1066 1.400 1_554 S
C1067 C1068 1.398 1_554 S
C1067 C1073 1.491 . S
C1068 H1059 0.950 . S
C1068 C1067 1.398 1_556 S
C1068 C1069 1.391 . S
C1069 H1057 0.950 . S
C1069 C1065 1.393 . S
C1069 C1068 1.391 . S
C1070 H1060 0.950 . S
C1070 C1071 1.386 . S
C1070 C1072 1.391 . S
C1071 C1070 1.386 . S
C1071 C1075 1.393 . S
C1072 H1061 0.950 . S
C1072 C1070 1.391 . S
C1072 C1073 1.400 . S
C1073 C1067 1.491 . S
C1073 C1072 1.400 . S
C1073 C1074 1.398 . S
C1074 H1062 0.950 . S
C1074 C1073 1.398 . S
C1074 C1075 1.391 . S
C1075 H1063 0.950 . S
C1075 C1071 1.393 . S
C1075 C1074 1.391 . S
H1076 C1084 0.950 . S
H1077 C1089 0.950 . S
H1078 C1086 0.950 . S
H1079 C1088 0.950 . S
H1080 C1090 0.950 . S
H1081 C1092 0.950 . S
H1082 C1094 0.950 . S
H1083 C1095 0.950 . S
C1084 H1076 0.950 . S
C1084 C1085 1.386 . S
C1084 C1086 1.391 . S
C1085 C1084 1.386 . S
C1085 C1089 1.393 . S
C1086 H1078 0.950 . S
C1086 C1084 1.391 . S
C1086 C1087 1.400 . S
C1087 C1086 1.400 . S
C1087 C1088 1.398 . S
C1087 C1093 1.491 . S
C1088 H1079 0.950 . S
C1088 C1087 1.398 . S
C1088 C1089 1.391 . S
C1089 H1077 0.950 . S
C1089 C1085 1.393 . S
C1089 C1088 1.391 . S
C1090 H1080 0.950 . S
C1090 C1091 1.386 . S
C1090 C1092 1.391 . S
C1091 C1090 1.386 . S
C1091 C1095 1.393 . S
C1092 H1081 0.950 . S
C1092 C1090 1.391 . S
C1092 C1093 1.400 . S
C1093 C1087 1.491 . S
C1093 C1092 1.400 . S
C1093 C1094 1.398 . S
C1094 H1082 0.950 . S
C1094 C1093 1.398 . S
C1094 C1095 1.391 . S
C1095 H1083 0.950 . S
C1095 C1091 1.393 . S
C1095 C1094 1.391 . S
H1096 C1104 0.950 . S
H1097 C1109 0.950 . S
H1098 C1106 0.950 . S
H1099 C1108 0.950 . S
H1100 C1110 0.950 . S
H1101 C1112 0.950 . S
H1102 C1114 0.950 . S
H1103 C1115 0.950 . S
C1104 H1096 0.950 . S
C1104 C1105 1.386 . S
C1104 C1106 1.391 . S
C1105 C1104 1.386 . S
C1105 C1109 1.393 . S
C1106 H1098 0.950 . S
C1106 C1104 1.391 . S
C1106 C1107 1.400 . S
C1107 C1106 1.400 . S
C1107 C1108 1.398 . S
C1107 C1113 1.491 . S
C1108 H1099 0.950 . S
C1108 C1107 1.398 . S
C1108 C1109 1.391 . S
C1109 H1097 0.950 . S
C1109 C1105 1.393 . S
C1109 C1108 1.391 . S
C1110 H1100 0.950 . S
C1110 C1111 1.386 . S
C1110 C1112 1.391 . S
C1111 C1110 1.386 . S
C1111 C1115 1.393 . S
C1112 H1101 0.950 . S
C1112 C1110 1.391 . S
C1112 C1113 1.400 . S
C1113 C1107 1.491 . S
C1113 C1112 1.400 . S
C1113 C1114 1.398 . S
C1114 H1102 0.950 . S
C1114 C1113 1.398 . S
C1114 C1115 1.391 . S
C1115 H1103 0.950 . S
C1115 C1111 1.393 . S
C1115 C1114 1.391 . S
H1116 C1124 0.950 . S
H1117 C1129 0.950 . S
H1118 C1126 0.950 . S
H1119 C1128 0.950 . S
H1120 C1130 0.950 . S
H1121 C1132 0.950 . S
H1122 C1134 0.950 . S
H1123 C1135 0.950 . S
C1124 H1116 0.950 . S
C1124 C1125 1.386 . S
C1124 C1126 1.391 . S
C1125 C1124 1.386 . S
C1125 C1129 1.393 . S
C1126 H1118 0.950 . S
C1126 C1124 1.391 . S
C1126 C1127 1.400 . S
C1127 C1126 1.400 . S
C1127 C1128 1.398 . S
C1127 C1133 1.491 . S
C1128 H1119 0.950 . S
C1128 C1127 1.398 . S
C1128 C1129 1.391 . S
C1129 H1117 0.950 . S
C1129 C1125 1.393 . S
C1129 C1128 1.391 . S
C1130 H1120 0.950 . S
C1130 C1131 1.386 . S
C1130 C1132 1.391 . S
C1131 C1130 1.386 . S
C1131 C1135 1.393 . S
C1132 H1121 0.950 . S
C1132 C1130 1.391 . S
C1132 C1133 1.400 . S
C1133 C1127 1.491 . S
C1133 C1132 1.400 . S
C1133 C1134 1.398 . S
C1134 H1122 0.950 . S
C1134 C1133 1.398 . S
C1134 C1135 1.391 . S
C1135 H1123 0.950 . S
C1135 C1131 1.393 . S
C1135 C1134 1.391 . S
H1136 C1144 0.950 . S
H1137 C1149 0.950 . S
H1138 C1146 0.950 . S
H1139 C1148 0.950 . S
H1140 C1150 0.950 . S
H1141 C1152 0.950 . S
H1142 C1154 0.950 . S
H1143 C1155 0.950 . S
C1144 H1136 0.950 . S
C1144 C1145 1.386 . S
C1144 C1146 1.391 . S
C1145 C1144 1.386 . S
C1145 C1149 1.393 . S
C1146 H1138 0.950 . S
C1146 C1144 1.391 . S
C1146 C1147 1.400 . S
C1147 C1146 1.400 . S
C1147 C1148 1.398 . S
C1147 C1153 1.491 . S
C1148 H1139 0.950 . S
C1148 C1147 1.398 . S
C1148 C1149 1.391 . S
C1149 H1137 0.950 . S
C1149 C1145 1.393 . S
C1149 C1148 1.391 . S
C1150 H1140 0.950 . S
C1150 C1151 1.386 . S
C1150 C1152 1.391 . S
C1151 C1150 1.386 . S
C1151 C1155 1.393 . S
C1152 H1141 0.950 . S
C1152 C1150 1.391 . S
C1152 C1153 1.400 . S
C1153 C1147 1.491 . S
C1153 C1152 1.400 . S
C1153 C1154 1.398 . S
C1154 H1142 0.950 . S
C1154 C1153 1.398 . S
C1154 C1155 1.391 . S
C1155 H1143 0.950 . S
C1155 C1151 1.393 . S
C1155 C1154 1.391 . S
H1156 C1164 0.950 . S
H1157 C1169 0.950 . S
H1158 C1166 0.950 . S
H1159 C1168 0.950 . S
H1160 C1170 0.950 . S
H1161 C1172 0.950 . S
H1162 C1174 0.950 . S
H1163 C1175 0.950 . S
C1164 H1156 0.950 . S
C1164 C1165 1.386 . S
C1164 C1166 1.391 . S
C1165 C1164 1.386 . S
C1165 C1169 1.393 . S
C1166 H1158 0.950 . S
C1166 C1164 1.391 . S
C1166 C1167 1.400 . S
C1167 C1166 1.400 . S
C1167 C1168 1.398 . S
C1167 C1173 1.491 . S
C1168 H1159 0.950 . S
C1168 C1167 1.398 . S
C1168 C1169 1.391 . S
C1169 H1157 0.950 . S
C1169 C1165 1.393 . S
C1169 C1168 1.391 . S
C1170 H1160 0.950 . S
C1170 C1171 1.386 . S
C1170 C1172 1.391 . S
C1171 C1170 1.386 . S
C1171 C1175 1.393 . S
C1172 H1161 0.950 . S
C1172 C1170 1.391 . S
C1172 C1173 1.400 . S
C1173 C1167 1.491 . S
C1173 C1172 1.400 . S
C1173 C1174 1.398 . S
C1174 H1162 0.950 . S
C1174 C1173 1.398 . S
C1174 C1175 1.391 . S
C1175 H1163 0.950 . S
C1175 C1171 1.393 . S
C1175 C1174 1.391 . S
H1176 C1184 0.950 . S
H1177 C1189 0.950 . S
H1178 C1186 0.950 . S
H1179 C1188 0.950 . S
H1180 C1190 0.950 . S
H1181 C1192 0.950 . S
H1182 C1194 0.950 . S
H1183 C1195 0.950 . S
C1184 H1176 0.950 . S
C1184 C1185 1.386 . S
C1184 C1186 1.391 . S
C1185 C1184 1.386 . S
C1185 C1189 1.393 . S
C1186 H1178 0.950 . S
C1186 C1184 1.391 . S
C1186 C1187 1.400 . S
C1187 C1186 1.400 . S
C1187 C1188 1.398 . S
C1187 C1193 1.491 . S
C1188 H1179 0.950 . S
C1188 C1187 1.398 . S
C1188 C1189 1.391 . S
C1189 H1177 0.950 . S
C1189 C1185 1.393 . S
C1189 C1188 1.391 . S
C1190 H1180 0.950 . S
C1190 C1191 1.386 . S
C1190 C1192 1.391 . S
C1191 C1190 1.386 . S
C1191 C1195 1.393 . S
C1192 H1181 0.950 . S
C1192 C1190 1.391 . S
C1192 C1193 1.400 . S
C1193 C1187 1.491 . S
C1193 C1192 1.400 . S
C1193 C1194 1.398 . S
C1194 H1182 0.950 . S
C1194 C1193 1.398 . S
C1194 C1195 1.391 . S
C1195 H1183 0.950 . S
C1195 C1191 1.393 . S
C1195 C1194 1.391 . S
H1196 C1204 0.950 . S
H1197 C1209 0.950 . S
H1198 C1206 0.950 . S
H1199 C1208 0.950 . S
H1200 C1210 0.950 . S
H1201 C1212 0.950 . S
H1202 C1214 0.950 1_554 S
H1203 C1215 0.950 . S
C1204 H1196 0.950 . S
C1204 C1205 1.386 . S
C1204 C1206 1.391 . S
C1205 C1204 1.386 . S
C1205 C1209 1.393 . S
C1206 H1198 0.950 . S
C1206 C1204 1.391 . S
C1206 C1207 1.400 . S
C1207 C1206 1.400 . S
C1207 C1208 1.398 . S
C1207 C1213 1.491 . S
C1208 H1199 0.950 . S
C1208 C1207 1.398 . S
C1208 C1209 1.391 . S
C1209 H1197 0.950 . S
C1209 C1205 1.393 . S
C1209 C1208 1.391 . S
C1210 H1200 0.950 . S
C1210 C1211 1.386 . S
C1210 C1212 1.391 . S
C1211 C1210 1.386 . S
C1211 C1215 1.393 . S
C1212 H1201 0.950 . S
C1212 C1210 1.391 . S
C1212 C1213 1.400 1_556 S
C1213 C1207 1.491 . S
C1213 C1212 1.400 1_554 S
C1213 C1214 1.398 1_554 S
C1214 H1202 0.950 1_556 S
C1214 C1213 1.398 1_556 S
C1214 C1215 1.391 . S
C1215 H1203 0.950 . S
C1215 C1211 1.393 . S
C1215 C1214 1.391 . S
C585 C219 1.449 . S
C591 C3 1.451 . S
C605 C255 1.449 . S
C611 C39 1.451 . S
C625 C75 1.437 . S
C631 C147 1.440 . S
C645 C111 1.441 . S
C651 C183 1.438 . S
C665 C291 1.450 . S
C671 C507 1.451 . S
C685 C543 1.442 . S
C691 C327 1.446 . S
C705 C363 1.438 . S
C711 C435 1.441 . S
C725 C399 1.451 . S
C731 C471 1.450 . S
C745 C4 1.383 . S
C751 C364 1.384 . S
C765 C40 1.409 . S
C771 C400 1.408 . S
C785 C76 1.402 . S
C791 C292 1.398 . S
C805 C112 1.392 . S
C811 C328 1.396 . S
C825 C148 1.384 . S
C831 C508 1.383 . S
C845 C544 1.384 . S
C851 C184 1.387 . S
C865 C220 1.390 . S
C871 C436 1.387 . S
C885 C472 1.408 . S
C891 C256 1.409 . S
C905 C470 0.532 . S
C911 C2 0.514 . S
C925 C38 0.591 . S
C931 C506 0.554 . S
C945 C542 0.610 . S
C951 C74 0.593 . S
C965 C434 0.541 . S
C971 C110 0.579 . S
C985 C398 0.602 . S
C991 C146 0.609 . S
C1005 C182 0.563 . S
C1011 C290 0.527 . S
C1025 C218 0.592 . S
C1031 C326 0.556 . S
C1045 C254 0.610 . S
C1051 C362 0.600 . S
C1065 C482 1.410 . S
C1071 C14 1.409 . S
C1085 C50 1.400 . S
C1091 C518 1.427 . S
C1105 C86 1.416 . S
C1111 C554 1.403 . S
C1125 C446 1.428 . S
C1131 C122 1.402 . S
C1145 C410 1.413 . S
C1151 C158 1.406 . S
C1165 C302 1.422 . S
C1171 C194 1.400 . S
C1185 C230 1.419 . S
C1191 C338 1.401 . S
C1205 C374 1.419 . S
C1211 C266 1.402 . S
