# Generated by pormake.
# Topology uko, (4)-cn, num edge types: 1
# Building blocks:
#     Node 0, Type 0, BuildingBlock: CEKHIL_clean_sbu_0, # of connection points: 4
#     Node 1, Type 0, BuildingBlock: CEKHIL_clean_sbu_0, # of connection points: 4
#     Node 2, Type 0, BuildingBlock: CEKHIL_clean_sbu_0, # of connection points: 4
#     Node 3, Type 0, BuildingBlock: CEKHIL_clean_sbu_0, # of connection points: 4
#     Node 4, Type 0, BuildingBlock: CEKHIL_clean_sbu_0, # of connection points: 4
#     Node 5, Type 0, BuildingBlock: CEKHIL_clean_sbu_0, # of connection points: 4
#     Node 6, Type 0, BuildingBlock: CEKHIL_clean_sbu_0, # of connection points: 4
#     Node 7, Type 0, BuildingBlock: CEKHIL_clean_sbu_0, # of connection points: 4
#     Node 8, Type 0, BuildingBlock: CEKHIL_clean_sbu_0, # of connection points: 4
#     Node 9, Type 0, BuildingBlock: CEKHIL_clean_sbu_0, # of connection points: 4
#     Node 10, Type 0, BuildingBlock: CEKHIL_clean_sbu_0, # of connection points: 4
#     Node 11, Type 0, BuildingBlock: CEKHIL_clean_sbu_0, # of connection points: 4
#     Node 12, Type 0, BuildingBlock: CEKHIL_clean_sbu_0, # of connection points: 4
#     Node 13, Type 0, BuildingBlock: CEKHIL_clean_sbu_0, # of connection points: 4
#     Node 14, Type 0, BuildingBlock: CEKHIL_clean_sbu_0, # of connection points: 4
#     Node 15, Type 0, BuildingBlock: CEKHIL_clean_sbu_0, # of connection points: 4
#     Node 16, Type 0, BuildingBlock: CEKHIL_clean_sbu_0, # of connection points: 4
#     Node 17, Type 0, BuildingBlock: CEKHIL_clean_sbu_0, # of connection points: 4
#     Node 18, Type 0, BuildingBlock: CEKHIL_clean_sbu_0, # of connection points: 4
#     Node 19, Type 0, BuildingBlock: CEKHIL_clean_sbu_0, # of connection points: 4
#     Node 20, Type 0, BuildingBlock: CEKHIL_clean_sbu_0, # of connection points: 4
#     Node 21, Type 0, BuildingBlock: CEKHIL_clean_sbu_0, # of connection points: 4
#     Node 22, Type 0, BuildingBlock: CEKHIL_clean_sbu_0, # of connection points: 4
#     Node 23, Type 0, BuildingBlock: CEKHIL_clean_sbu_0, # of connection points: 4
#     Node 24, Type 0, BuildingBlock: CEKHIL_clean_sbu_0, # of connection points: 4
#     Node 25, Type 0, BuildingBlock: CEKHIL_clean_sbu_0, # of connection points: 4
#     Node 26, Type 0, BuildingBlock: CEKHIL_clean_sbu_0, # of connection points: 4
#     Node 27, Type 0, BuildingBlock: CEKHIL_clean_sbu_0, # of connection points: 4
#     Node 28, Type 0, BuildingBlock: CEKHIL_clean_sbu_0, # of connection points: 4
#     Node 29, Type 0, BuildingBlock: CEKHIL_clean_sbu_0, # of connection points: 4
#     Node 30, Type 0, BuildingBlock: CEKHIL_clean_sbu_0, # of connection points: 4
#     Node 31, Type 0, BuildingBlock: CEKHIL_clean_sbu_0, # of connection points: 4
#     Node 32, Type 0, BuildingBlock: CEKHIL_clean_sbu_0, # of connection points: 4
#     Node 33, Type 0, BuildingBlock: CEKHIL_clean_sbu_0, # of connection points: 4
#     Node 34, Type 0, BuildingBlock: CEKHIL_clean_sbu_0, # of connection points: 4
#     Node 35, Type 0, BuildingBlock: CEKHIL_clean_sbu_0, # of connection points: 4
#     Node 36, Type 0, BuildingBlock: CEKHIL_clean_sbu_0, # of connection points: 4
#     Node 37, Type 0, BuildingBlock: CEKHIL_clean_sbu_0, # of connection points: 4
#     Node 38, Type 0, BuildingBlock: CEKHIL_clean_sbu_0, # of connection points: 4
#     Node 39, Type 0, BuildingBlock: CEKHIL_clean_sbu_0, # of connection points: 4
#     Node 40, Type 0, BuildingBlock: CEKHIL_clean_sbu_0, # of connection points: 4
#     Node 41, Type 0, BuildingBlock: CEKHIL_clean_sbu_0, # of connection points: 4
#     Node 42, Type 0, BuildingBlock: CEKHIL_clean_sbu_0, # of connection points: 4
#     Node 43, Type 0, BuildingBlock: CEKHIL_clean_sbu_0, # of connection points: 4
#     Node 44, Type 0, BuildingBlock: CEKHIL_clean_sbu_0, # of connection points: 4
#     Node 45, Type 0, BuildingBlock: CEKHIL_clean_sbu_0, # of connection points: 4
#     Node 46, Type 0, BuildingBlock: CEKHIL_clean_sbu_0, # of connection points: 4
#     Node 47, Type 0, BuildingBlock: CEKHIL_clean_sbu_0, # of connection points: 4
#     Edge 48, Type (0, 0), BuildingBlock: ZUJKAS_clean_linker_0, # of connection points: 2
#     Edge 49, Type (0, 0), BuildingBlock: ZUJKAS_clean_linker_0, # of connection points: 2
#     Edge 50, Type (0, 0), BuildingBlock: ZUJKAS_clean_linker_0, # of connection points: 2
#     Edge 51, Type (0, 0), BuildingBlock: ZUJKAS_clean_linker_0, # of connection points: 2
#     Edge 52, Type (0, 0), BuildingBlock: ZUJKAS_clean_linker_0, # of connection points: 2
#     Edge 53, Type (0, 0), BuildingBlock: ZUJKAS_clean_linker_0, # of connection points: 2
#     Edge 54, Type (0, 0), BuildingBlock: ZUJKAS_clean_linker_0, # of connection points: 2
#     Edge 55, Type (0, 0), BuildingBlock: ZUJKAS_clean_linker_0, # of connection points: 2
#     Edge 56, Type (0, 0), BuildingBlock: ZUJKAS_clean_linker_0, # of connection points: 2
#     Edge 57, Type (0, 0), BuildingBlock: ZUJKAS_clean_linker_0, # of connection points: 2
#     Edge 58, Type (0, 0), BuildingBlock: ZUJKAS_clean_linker_0, # of connection points: 2
#     Edge 59, Type (0, 0), BuildingBlock: ZUJKAS_clean_linker_0, # of connection points: 2
#     Edge 60, Type (0, 0), BuildingBlock: ZUJKAS_clean_linker_0, # of connection points: 2
#     Edge 61, Type (0, 0), BuildingBlock: ZUJKAS_clean_linker_0, # of connection points: 2
#     Edge 62, Type (0, 0), BuildingBlock: ZUJKAS_clean_linker_0, # of connection points: 2
#     Edge 63, Type (0, 0), BuildingBlock: ZUJKAS_clean_linker_0, # of connection points: 2
#     Edge 64, Type (0, 0), BuildingBlock: ZUJKAS_clean_linker_0, # of connection points: 2
#     Edge 65, Type (0, 0), BuildingBlock: ZUJKAS_clean_linker_0, # of connection points: 2
#     Edge 66, Type (0, 0), BuildingBlock: ZUJKAS_clean_linker_0, # of connection points: 2
#     Edge 67, Type (0, 0), BuildingBlock: ZUJKAS_clean_linker_0, # of connection points: 2
#     Edge 68, Type (0, 0), BuildingBlock: ZUJKAS_clean_linker_0, # of connection points: 2
#     Edge 69, Type (0, 0), BuildingBlock: ZUJKAS_clean_linker_0, # of connection points: 2
#     Edge 70, Type (0, 0), BuildingBlock: ZUJKAS_clean_linker_0, # of connection points: 2
#     Edge 71, Type (0, 0), BuildingBlock: ZUJKAS_clean_linker_0, # of connection points: 2
#     Edge 72, Type (0, 0), BuildingBlock: ZUJKAS_clean_linker_0, # of connection points: 2
#     Edge 73, Type (0, 0), BuildingBlock: ZUJKAS_clean_linker_0, # of connection points: 2
#     Edge 74, Type (0, 0), BuildingBlock: ZUJKAS_clean_linker_0, # of connection points: 2
#     Edge 75, Type (0, 0), BuildingBlock: ZUJKAS_clean_linker_0, # of connection points: 2
#     Edge 76, Type (0, 0), BuildingBlock: ZUJKAS_clean_linker_0, # of connection points: 2
#     Edge 77, Type (0, 0), BuildingBlock: ZUJKAS_clean_linker_0, # of connection points: 2
#     Edge 78, Type (0, 0), BuildingBlock: ZUJKAS_clean_linker_0, # of connection points: 2
#     Edge 79, Type (0, 0), BuildingBlock: ZUJKAS_clean_linker_0, # of connection points: 2
#     Edge 80, Type (0, 0), BuildingBlock: ZUJKAS_clean_linker_0, # of connection points: 2
#     Edge 81, Type (0, 0), BuildingBlock: ZUJKAS_clean_linker_0, # of connection points: 2
#     Edge 82, Type (0, 0), BuildingBlock: ZUJKAS_clean_linker_0, # of connection points: 2
#     Edge 83, Type (0, 0), BuildingBlock: ZUJKAS_clean_linker_0, # of connection points: 2
#     Edge 84, Type (0, 0), BuildingBlock: ZUJKAS_clean_linker_0, # of connection points: 2
#     Edge 85, Type (0, 0), BuildingBlock: ZUJKAS_clean_linker_0, # of connection points: 2
#     Edge 86, Type (0, 0), BuildingBlock: ZUJKAS_clean_linker_0, # of connection points: 2
#     Edge 87, Type (0, 0), BuildingBlock: ZUJKAS_clean_linker_0, # of connection points: 2
#     Edge 88, Type (0, 0), BuildingBlock: ZUJKAS_clean_linker_0, # of connection points: 2
#     Edge 89, Type (0, 0), BuildingBlock: ZUJKAS_clean_linker_0, # of connection points: 2
#     Edge 90, Type (0, 0), BuildingBlock: ZUJKAS_clean_linker_0, # of connection points: 2
#     Edge 91, Type (0, 0), BuildingBlock: ZUJKAS_clean_linker_0, # of connection points: 2
#     Edge 92, Type (0, 0), BuildingBlock: ZUJKAS_clean_linker_0, # of connection points: 2
#     Edge 93, Type (0, 0), BuildingBlock: ZUJKAS_clean_linker_0, # of connection points: 2
#     Edge 94, Type (0, 0), BuildingBlock: ZUJKAS_clean_linker_0, # of connection points: 2
#     Edge 95, Type (0, 0), BuildingBlock: ZUJKAS_clean_linker_0, # of connection points: 2
#     Edge 96, Type (0, 0), BuildingBlock: ZUJKAS_clean_linker_0, # of connection points: 2
#     Edge 97, Type (0, 0), BuildingBlock: ZUJKAS_clean_linker_0, # of connection points: 2
#     Edge 98, Type (0, 0), BuildingBlock: ZUJKAS_clean_linker_0, # of connection points: 2
#     Edge 99, Type (0, 0), BuildingBlock: ZUJKAS_clean_linker_0, # of connection points: 2
#     Edge 100, Type (0, 0), BuildingBlock: ZUJKAS_clean_linker_0, # of connection points: 2
#     Edge 101, Type (0, 0), BuildingBlock: ZUJKAS_clean_linker_0, # of connection points: 2
#     Edge 102, Type (0, 0), BuildingBlock: ZUJKAS_clean_linker_0, # of connection points: 2
#     Edge 103, Type (0, 0), BuildingBlock: ZUJKAS_clean_linker_0, # of connection points: 2
#     Edge 104, Type (0, 0), BuildingBlock: ZUJKAS_clean_linker_0, # of connection points: 2
#     Edge 105, Type (0, 0), BuildingBlock: ZUJKAS_clean_linker_0, # of connection points: 2
#     Edge 106, Type (0, 0), BuildingBlock: ZUJKAS_clean_linker_0, # of connection points: 2
#     Edge 107, Type (0, 0), BuildingBlock: ZUJKAS_clean_linker_0, # of connection points: 2
#     Edge 108, Type (0, 0), BuildingBlock: ZUJKAS_clean_linker_0, # of connection points: 2
#     Edge 109, Type (0, 0), BuildingBlock: ZUJKAS_clean_linker_0, # of connection points: 2
#     Edge 110, Type (0, 0), BuildingBlock: ZUJKAS_clean_linker_0, # of connection points: 2
#     Edge 111, Type (0, 0), BuildingBlock: ZUJKAS_clean_linker_0, # of connection points: 2
#     Edge 112, Type (0, 0), BuildingBlock: ZUJKAS_clean_linker_0, # of connection points: 2
#     Edge 113, Type (0, 0), BuildingBlock: ZUJKAS_clean_linker_0, # of connection points: 2
#     Edge 114, Type (0, 0), BuildingBlock: ZUJKAS_clean_linker_0, # of connection points: 2
#     Edge 115, Type (0, 0), BuildingBlock: ZUJKAS_clean_linker_0, # of connection points: 2
#     Edge 116, Type (0, 0), BuildingBlock: ZUJKAS_clean_linker_0, # of connection points: 2
#     Edge 117, Type (0, 0), BuildingBlock: ZUJKAS_clean_linker_0, # of connection points: 2
#     Edge 118, Type (0, 0), BuildingBlock: ZUJKAS_clean_linker_0, # of connection points: 2
#     Edge 119, Type (0, 0), BuildingBlock: ZUJKAS_clean_linker_0, # of connection points: 2
#     Edge 120, Type (0, 0), BuildingBlock: ZUJKAS_clean_linker_0, # of connection points: 2
#     Edge 121, Type (0, 0), BuildingBlock: ZUJKAS_clean_linker_0, # of connection points: 2
#     Edge 122, Type (0, 0), BuildingBlock: ZUJKAS_clean_linker_0, # of connection points: 2
#     Edge 123, Type (0, 0), BuildingBlock: ZUJKAS_clean_linker_0, # of connection points: 2
#     Edge 124, Type (0, 0), BuildingBlock: ZUJKAS_clean_linker_0, # of connection points: 2
#     Edge 125, Type (0, 0), BuildingBlock: ZUJKAS_clean_linker_0, # of connection points: 2
#     Edge 126, Type (0, 0), BuildingBlock: ZUJKAS_clean_linker_0, # of connection points: 2
#     Edge 127, Type (0, 0), BuildingBlock: ZUJKAS_clean_linker_0, # of connection points: 2
#     Edge 128, Type (0, 0), BuildingBlock: ZUJKAS_clean_linker_0, # of connection points: 2
#     Edge 129, Type (0, 0), BuildingBlock: ZUJKAS_clean_linker_0, # of connection points: 2
#     Edge 130, Type (0, 0), BuildingBlock: ZUJKAS_clean_linker_0, # of connection points: 2
#     Edge 131, Type (0, 0), BuildingBlock: ZUJKAS_clean_linker_0, # of connection points: 2
#     Edge 132, Type (0, 0), BuildingBlock: ZUJKAS_clean_linker_0, # of connection points: 2
#     Edge 133, Type (0, 0), BuildingBlock: ZUJKAS_clean_linker_0, # of connection points: 2
#     Edge 134, Type (0, 0), BuildingBlock: ZUJKAS_clean_linker_0, # of connection points: 2
#     Edge 135, Type (0, 0), BuildingBlock: ZUJKAS_clean_linker_0, # of connection points: 2
#     Edge 136, Type (0, 0), BuildingBlock: ZUJKAS_clean_linker_0, # of connection points: 2
#     Edge 137, Type (0, 0), BuildingBlock: ZUJKAS_clean_linker_0, # of connection points: 2
#     Edge 138, Type (0, 0), BuildingBlock: ZUJKAS_clean_linker_0, # of connection points: 2
#     Edge 139, Type (0, 0), BuildingBlock: ZUJKAS_clean_linker_0, # of connection points: 2
#     Edge 140, Type (0, 0), BuildingBlock: ZUJKAS_clean_linker_0, # of connection points: 2
#     Edge 141, Type (0, 0), BuildingBlock: ZUJKAS_clean_linker_0, # of connection points: 2
#     Edge 142, Type (0, 0), BuildingBlock: ZUJKAS_clean_linker_0, # of connection points: 2
#     Edge 143, Type (0, 0), BuildingBlock: ZUJKAS_clean_linker_0, # of connection points: 2
# Relax obj value: 0.302
# Max RMSD: 0.162
# Mean RMSD: 0.162
data_MOF--net-uko--node1-CEKHIL_clean_sbu_0--edge1-ZUJKAS_clean_linker_0
_symmetry_space_group_name_H-M    P1
_symmetry_Int_Tables_number       1
_symmetry_cell_setting            triclinic
loop_
_symmetry_equiv_pos_as_xyz
'x, y, z'
_cell_length_a     71.161185
_cell_length_b     71.150975
_cell_length_c     71.174513
_cell_angle_alpha  89.999878
_cell_angle_beta   90.00184
_cell_angle_gamma 89.994272
loop_
_atom_site_label
_atom_site_type_symbol
_atom_site_fract_x
_atom_site_fract_y
_atom_site_fract_z
_atom_type_partial_charge
Co0 Co 0.0514 0.3756 0.21565 0.0
O1 O 0.05525 0.34934 0.21071 0.0
O2 O 0.02793 0.36213 0.21835 0.0
C3 C 0.06784 0.38649 0.19096 0.0
O4 O 0.04214 0.40208 0.22137 0.0
Co5 Co 0.0864 0.40086 0.22445 0.0
O6 O 0.06717 0.4209 0.22639 0.0
C7 C 0.07218 0.37459 0.25297 0.0
C8 C 0.03749 0.3471 0.21417 0.0
C9 C 0.04949 0.41814 0.22528 0.0
O10 O 0.05731 0.37153 0.24312 0.0
O11 O 0.08625 0.38407 0.247 0.0
O12 O 0.05058 0.38106 0.18852 0.0
O13 O 0.07488 0.3834 0.2073 0.0
Co14 Co 0.95058 0.1303 0.22211 0.0
O15 O 0.94467 0.15661 0.22019 0.0
O16 O 0.97319 0.14511 0.22499 0.0
C17 C 0.93361 0.1211 0.19707 0.0
O18 O 0.96213 0.10416 0.22432 0.0
Co19 Co 0.91864 0.10099 0.22921 0.0
O20 O 0.93896 0.08261 0.22432 0.0
C21 C 0.93195 0.12515 0.2602 0.0
C22 C 0.96246 0.15974 0.22264 0.0
C23 C 0.95632 0.08703 0.22399 0.0
O24 O 0.94579 0.13102 0.2501 0.0
O25 O 0.91881 0.11465 0.25381 0.0
O26 O 0.95034 0.12794 0.19456 0.0
O27 O 0.92725 0.12165 0.21398 0.0
Co28 Co 0.04821 0.63032 0.27893 0.0
O29 O 0.05311 0.65673 0.28148 0.0
O30 O 0.02545 0.64448 0.27418 0.0
C31 C 0.06336 0.62165 0.3052 0.0
O32 O 0.03776 0.60383 0.27566 0.0
Co33 Co 0.0811 0.6017 0.27477 0.0
O34 O 0.06116 0.58324 0.2808 0.0
C35 C 0.06865 0.62385 0.24184 0.0
C36 C 0.03554 0.6594 0.27742 0.0
C37 C 0.04382 0.587 0.27833 0.0
O38 O 0.05526 0.63135 0.25145 0.0
O39 O 0.08084 0.61262 0.24885 0.0
O40 O 0.0461 0.62752 0.30629 0.0
O41 O 0.07112 0.62256 0.2889 0.0
Co42 Co 0.9525 0.87785 0.26659 0.0
O43 O 0.94654 0.85153 0.26793 0.0
O44 O 0.97539 0.86319 0.26741 0.0
C45 C 0.93154 0.88699 0.28848 0.0
O46 O 0.96415 0.90408 0.26599 0.0
Co47 Co 0.92258 0.90766 0.255 0.0
O48 O 0.94068 0.92518 0.26678 0.0
C49 C 0.9406 0.8838 0.22599 0.0
C50 C 0.96452 0.84849 0.26816 0.0
C51 C 0.95803 0.92098 0.26812 0.0
O52 O 0.95188 0.8766 0.23821 0.0
O53 O 0.92755 0.89547 0.23018 0.0
O54 O 0.94788 0.88067 0.29369 0.0
O55 O 0.92815 0.88632 0.27074 0.0
Co56 Co 0.22995 0.04634 0.3747 0.0
O57 O 0.23064 0.0549 0.34902 0.0
O58 O 0.23029 0.02506 0.35789 0.0
C59 C 0.20732 0.0663 0.38431 0.0
O60 O 0.22868 0.03204 0.3995 0.0
Co61 Co 0.23893 0.07252 0.40857 0.0
O62 O 0.22452 0.0532 0.42251 0.0
C63 C 0.26998 0.0561 0.38615 0.0
C64 C 0.23051 0.03727 0.34429 0.0
C65 C 0.22419 0.03638 0.41645 0.0
O66 O 0.25831 0.04674 0.37592 0.0
O67 O 0.26496 0.06748 0.39915 0.0
O68 O 0.20275 0.05082 0.37572 0.0
O69 O 0.22506 0.06971 0.38545 0.0
Co70 Co 0.7771 0.45175 0.37621 0.0
O71 O 0.77825 0.44426 0.35029 0.0
O72 O 0.77317 0.47337 0.36013 0.0
C73 C 0.8026 0.43545 0.38536 0.0
O74 O 0.77569 0.46472 0.40177 0.0
Co75 Co 0.7713 0.42135 0.40741 0.0
O76 O 0.77757 0.44256 0.42428 0.0
C77 C 0.73923 0.43344 0.38407 0.0
C78 C 0.77524 0.46175 0.34615 0.0
C79 C 0.77721 0.4597 0.4191 0.0
O80 O 0.74917 0.44672 0.37682 0.0
O81 O 0.74595 0.42098 0.39519 0.0
O82 O 0.80475 0.45178 0.37746 0.0
O83 O 0.78572 0.42904 0.38585 0.0
Co84 Co 0.21559 0.95505 0.12688 0.0
O85 O 0.21222 0.95227 0.15346 0.0
O86 O 0.22028 0.97882 0.13934 0.0
C87 C 0.18945 0.93951 0.11851 0.0
O88 O 0.21978 0.96312 0.09978 0.0
Co89 Co 0.22054 0.9194 0.10179 0.0
O90 O 0.21676 0.93774 0.08114 0.0
C91 C 0.25218 0.93296 0.12492 0.0
C92 C 0.21658 0.96991 0.1549 0.0
C93 C 0.2186 0.95543 0.08345 0.0
O94 O 0.24295 0.94791 0.1293 0.0
O95 O 0.2451 0.91932 0.11555 0.0
O96 O 0.18832 0.95717 0.12303 0.0
O97 O 0.20561 0.93172 0.12072 0.0
Co98 Co 0.78143 0.54117 0.12785 0.0
O99 O 0.78671 0.54165 0.15422 0.0
O100 O 0.77524 0.517 0.13897 0.0
C101 C 0.8083 0.55511 0.11887 0.0
O102 O 0.77515 0.53575 0.10042 0.0
Co103 Co 0.77807 0.57923 0.1063 0.0
O104 O 0.78019 0.56242 0.08416 0.0
C105 C 0.74612 0.56559 0.1289 0.0
C106 C 0.78084 0.52444 0.15474 0.0
C107 C 0.77679 0.54483 0.08484 0.0
O108 O 0.75489 0.55014 0.13238 0.0
O109 O 0.75354 0.57939 0.12004 0.0
O110 O 0.80813 0.53712 0.12203 0.0
O111 O 0.79308 0.564 0.12289 0.0
Co112 Co 0.36931 0.21672 0.05203 0.0
O113 O 0.34261 0.21396 0.05393 0.0
O114 O 0.35778 0.22202 0.02796 0.0
C115 C 0.37651 0.19012 0.06737 0.0
O116 O 0.39674 0.22035 0.04488 0.0
Co117 Co 0.3934 0.22043 0.08843 0.0
O118 O 0.4145 0.2163 0.0707 0.0
C119 C 0.37206 0.25317 0.07436 0.0
C120 C 0.34187 0.21853 0.03631 0.0
C121 C 0.4128 0.21859 0.053 0.0
O122 O 0.36736 0.24405 0.05945 0.0
O123 O 0.38104 0.24573 0.08807 0.0
O124 O 0.37258 0.18943 0.04955 0.0
O125 O 0.37443 0.20619 0.07538 0.0
Co126 Co 0.37123 0.78177 0.44745 0.0
O127 O 0.3448 0.78657 0.44591 0.0
O128 O 0.35951 0.77664 0.47154 0.0
C129 C 0.38023 0.80808 0.43258 0.0
O130 O 0.39847 0.77626 0.45413 0.0
Co131 Co 0.39433 0.77699 0.41049 0.0
O132 O 0.4158 0.78034 0.42799 0.0
C133 C 0.37127 0.74557 0.4245 0.0
C134 C 0.34389 0.78169 0.46342 0.0
C135 C 0.41439 0.7778 0.44568 0.0
O136 O 0.36744 0.75477 0.4396 0.0
O137 O 0.38035 0.75255 0.41063 0.0
O138 O 0.37645 0.80871 0.45043 0.0
O139 O 0.37682 0.79238 0.42428 0.0
Co140 Co 0.63352 0.71648 0.45154 0.0
O141 O 0.66001 0.71173 0.45148 0.0
O142 O 0.64381 0.72158 0.47624 0.0
C143 C 0.62543 0.69021 0.43603 0.0
O144 O 0.60595 0.72188 0.45682 0.0
Co145 Co 0.61217 0.72133 0.4136 0.0
O146 O 0.58983 0.71782 0.42993 0.0
C147 C 0.63452 0.7528 0.42881 0.0
C148 C 0.65988 0.71664 0.46901 0.0
C149 C 0.59042 0.7203 0.44767 0.0
O150 O 0.63772 0.74353 0.44402 0.0
O151 O 0.62597 0.74584 0.41459 0.0
O152 O 0.6282 0.68951 0.45407 0.0
O153 O 0.62919 0.70598 0.42802 0.0
Co154 Co 0.12745 0.78478 0.55089 0.0
O155 O 0.15382 0.78909 0.5544 0.0
O156 O 0.14089 0.77888 0.52795 0.0
C157 C 0.11788 0.81158 0.56451 0.0
O158 O 0.10072 0.77957 0.54207 0.0
Co159 Co 0.1014 0.78105 0.58596 0.0
O160 O 0.08127 0.783 0.56678 0.0
C161 C 0.12553 0.74929 0.57486 0.0
C162 C 0.15596 0.78372 0.53713 0.0
C163 C 0.08413 0.7806 0.54925 0.0
O164 O 0.13021 0.75793 0.55966 0.0
O165 O 0.11558 0.7568 0.58783 0.0
O166 O 0.12316 0.81182 0.54704 0.0
O167 O 0.12015 0.79596 0.57333 0.0
Co168 Co 0.94723 0.62576 0.7829 0.0
O169 O 0.94042 0.65189 0.78437 0.0
O170 O 0.96907 0.64118 0.77848 0.0
C171 C 0.93178 0.61678 0.80891 0.0
O172 O 0.95976 0.60017 0.78071 0.0
Co173 Co 0.91683 0.59455 0.77836 0.0
O174 O 0.93802 0.57754 0.78456 0.0
C175 C 0.9279 0.6177 0.74563 0.0
C176 C 0.95796 0.6555 0.78089 0.0
C177 C 0.95502 0.58291 0.78304 0.0
O178 O 0.94116 0.62542 0.75523 0.0
O179 O 0.91594 0.60625 0.75272 0.0
O180 O 0.94839 0.6242 0.81045 0.0
O181 O 0.92464 0.61646 0.7923 0.0
Co182 Co 0.05709 0.8659 0.77693 0.0
O183 O 0.0583 0.83913 0.77939 0.0
O184 O 0.03211 0.85533 0.77475 0.0
C185 C 0.0761 0.87229 0.8014 0.0
O186 O 0.05055 0.89358 0.77414 0.0
Co187 Co 0.09346 0.88916 0.76918 0.0
O188 O 0.07713 0.91047 0.77681 0.0
C189 C 0.07488 0.8684 0.73819 0.0
C190 C 0.04021 0.8391 0.77715 0.0
C191 C 0.05927 0.90932 0.77589 0.0
O192 O 0.06099 0.86391 0.7489 0.0
O193 O 0.08955 0.87704 0.74407 0.0
O194 O 0.05836 0.86903 0.80437 0.0
O195 O 0.08174 0.87014 0.78438 0.0
Co196 Co 0.94476 0.37254 0.7241 0.0
O197 O 0.9384 0.34627 0.72472 0.0
O198 O 0.96739 0.35758 0.72377 0.0
C199 C 0.92335 0.3803 0.70214 0.0
O200 O 0.95695 0.3984 0.72286 0.0
Co201 Co 0.91613 0.40409 0.73372 0.0
O202 O 0.93433 0.42016 0.72009 0.0
C203 C 0.93517 0.38303 0.76433 0.0
C204 C 0.95634 0.34302 0.72422 0.0
C205 C 0.95155 0.41532 0.7195 0.0
O206 O 0.94496 0.3735 0.75244 0.0
O207 O 0.92268 0.3951 0.75959 0.0
O208 O 0.93952 0.3735 0.69701 0.0
O209 O 0.92042 0.38115 0.71996 0.0
Co210 Co 0.05354 0.13137 0.71558 0.0
O211 O 0.05549 0.15823 0.71504 0.0
O212 O 0.02914 0.1425 0.72033 0.0
C213 C 0.07048 0.12661 0.68939 0.0
O214 O 0.04623 0.10377 0.71671 0.0
Co215 Co 0.08941 0.10645 0.7189 0.0
O216 O 0.0719 0.08639 0.71055 0.0
C217 C 0.07406 0.12556 0.75255 0.0
C218 C 0.0376 0.15863 0.71848 0.0
C219 C 0.05422 0.08804 0.71282 0.0
O220 O 0.05952 0.13109 0.74328 0.0
O221 O 0.08798 0.11696 0.74503 0.0
O222 O 0.05268 0.13042 0.688 0.0
O223 O 0.07749 0.12707 0.70604 0.0
Co224 Co 0.77013 0.94417 0.62776 0.0
O225 O 0.77015 0.93849 0.65416 0.0
O226 O 0.76891 0.9672 0.64219 0.0
C227 C 0.79371 0.92445 0.62003 0.0
O228 O 0.77039 0.95539 0.60138 0.0
Co229 Co 0.76137 0.91287 0.59831 0.0
O230 O 0.77179 0.93162 0.58058 0.0
C231 C 0.73058 0.92978 0.6205 0.0
C232 C 0.76941 0.95649 0.65701 0.0
C233 C 0.77254 0.94907 0.58455 0.0
O234 O 0.74178 0.94237 0.62713 0.0
O235 O 0.73608 0.91609 0.61019 0.0
O236 O 0.79756 0.94097 0.62681 0.0
O237 O 0.77617 0.92 0.61979 0.0
Co238 Co 0.21741 0.55605 0.62926 0.0
O239 O 0.21636 0.56096 0.65579 0.0
O240 O 0.22182 0.53308 0.64299 0.0
C241 C 0.19143 0.57238 0.62194 0.0
O242 O 0.21912 0.54535 0.60279 0.0
Co243 Co 0.22164 0.58832 0.60006 0.0
O244 O 0.21449 0.56852 0.58185 0.0
C245 C 0.25494 0.57498 0.62119 0.0
C246 C 0.2197 0.54317 0.65809 0.0
C247 C 0.21633 0.55118 0.58592 0.0
O248 O 0.24516 0.56191 0.62901 0.0
O249 O 0.24793 0.58736 0.61016 0.0
O250 O 0.18987 0.55523 0.628 0.0
O251 O 0.20811 0.57939 0.6218 0.0
Co252 Co 0.77742 0.04552 0.87293 0.0
O253 O 0.77949 0.04949 0.84635 0.0
O254 O 0.77207 0.02235 0.85964 0.0
C255 C 0.80411 0.06049 0.88065 0.0
O256 O 0.77462 0.0362 0.89988 0.0
Co257 Co 0.77387 0.08006 0.89972 0.0
O258 O 0.77859 0.06085 0.9193 0.0
C259 C 0.74105 0.0677 0.87756 0.0
C260 C 0.77514 0.03191 0.84434 0.0
C261 C 0.77673 0.04326 0.91641 0.0
O262 O 0.74999 0.05293 0.8721 0.0
O263 O 0.74866 0.08081 0.88727 0.0
O264 O 0.80484 0.04309 0.87519 0.0
O265 O 0.78792 0.0685 0.87966 0.0
Co266 Co 0.2168 0.44422 0.8692 0.0
O267 O 0.21395 0.44133 0.84254 0.0
O268 O 0.22194 0.46783 0.85684 0.0
C269 C 0.19032 0.42899 0.87702 0.0
O270 O 0.22061 0.45271 0.89621 0.0
Co271 Co 0.22048 0.40969 0.89571 0.0
O272 O 0.21443 0.42846 0.91542 0.0
C273 C 0.25351 0.42272 0.87398 0.0
C274 C 0.21845 0.45896 0.84124 0.0
C275 C 0.21758 0.44587 0.91265 0.0
O276 O 0.24408 0.4367 0.86737 0.0
O277 O 0.24638 0.41008 0.88462 0.0
O278 O 0.18953 0.44667 0.87246 0.0
O279 O 0.20648 0.42102 0.87544 0.0
Co280 Co 0.62684 0.78197 0.94473 0.0
O281 O 0.65359 0.78265 0.94134 0.0
O282 O 0.63931 0.7784 0.96866 0.0
C283 C 0.62068 0.8073 0.92693 0.0
O284 O 0.59961 0.781 0.95364 0.0
Co285 Co 0.60037 0.77628 0.91026 0.0
O286 O 0.58057 0.78322 0.92851 0.0
C287 C 0.62083 0.74381 0.92627 0.0
C288 C 0.65496 0.77993 0.95931 0.0
C289 C 0.58319 0.78279 0.94623 0.0
O290 O 0.62675 0.75395 0.94005 0.0
O291 O 0.61143 0.75049 0.91245 0.0
O292 O 0.62568 0.80957 0.94434 0.0
O293 O 0.62104 0.79036 0.92064 0.0
Co294 Co 0.62881 0.21643 0.55095 0.0
O295 O 0.65536 0.21208 0.55244 0.0
O296 O 0.64045 0.22231 0.52705 0.0
C297 C 0.62026 0.18968 0.56532 0.0
O298 O 0.60152 0.22164 0.54413 0.0
Co299 Co 0.60517 0.22017 0.58761 0.0
O300 O 0.58382 0.21715 0.56993 0.0
C301 C 0.62798 0.25224 0.57456 0.0
C302 C 0.65618 0.21748 0.53506 0.0
C303 C 0.58547 0.21995 0.5523 0.0
O304 O 0.63221 0.24329 0.55941 0.0
O305 O 0.61862 0.2449 0.58807 0.0
O306 O 0.62409 0.18945 0.54746 0.0
O307 O 0.62325 0.2053 0.57392 0.0
Co308 Co 0.36831 0.27135 0.55304 0.0
O309 O 0.34164 0.27296 0.5568 0.0
O310 O 0.35542 0.26897 0.52919 0.0
C311 C 0.37606 0.29599 0.5714 0.0
O312 O 0.39541 0.26972 0.54382 0.0
Co313 Co 0.39501 0.26386 0.58708 0.0
O314 O 0.4144 0.27235 0.56897 0.0
C315 C 0.37327 0.23255 0.57045 0.0
C316 C 0.33995 0.27092 0.53877 0.0
C317 C 0.41177 0.27193 0.55125 0.0
O318 O 0.36753 0.24318 0.55694 0.0
O319 O 0.38297 0.23862 0.58434 0.0
O320 O 0.37057 0.29887 0.55422 0.0
O321 O 0.37485 0.27889 0.57718 0.0
Co322 Co 0.87159 0.22076 0.44538 0.0
O323 O 0.84525 0.21679 0.44102 0.0
O324 O 0.85756 0.22641 0.46798 0.0
C325 C 0.88131 0.1941 0.43157 0.0
O326 O 0.898 0.2256 0.45529 0.0
Co327 Co 0.89921 0.22482 0.41163 0.0
O328 O 0.91855 0.22228 0.4315 0.0
C329 C 0.87522 0.25685 0.42247 0.0
C330 C 0.8427 0.2219 0.45833 0.0
C331 C 0.91489 0.22452 0.44889 0.0
O332 O 0.86938 0.24777 0.437 0.0
O333 O 0.88595 0.24961 0.40998 0.0
O334 O 0.87543 0.19362 0.44885 0.0
O335 O 0.8796 0.20992 0.42298 0.0
Co336 Co 0.54805 0.87289 0.71413 0.0
O337 O 0.54986 0.8464 0.70959 0.0
O338 O 0.52445 0.86075 0.72039 0.0
C339 C 0.56144 0.882 0.68703 0.0
O340 O 0.54118 0.9001 0.71996 0.0
Co341 Co 0.58492 0.89646 0.71711 0.0
O342 O 0.56707 0.91784 0.71583 0.0
C343 C 0.57303 0.87283 0.74897 0.0
C344 C 0.53266 0.84514 0.71543 0.0
C345 C 0.54948 0.91616 0.71887 0.0
O346 O 0.55736 0.86922 0.74067 0.0
O347 O 0.58642 0.88202 0.74123 0.0
O348 O 0.54367 0.87785 0.68731 0.0
O349 O 0.57059 0.87887 0.70231 0.0
Co350 Co 0.44498 0.629 0.72987 0.0
O351 O 0.43866 0.65527 0.72929 0.0
O352 O 0.46765 0.64401 0.73015 0.0
C353 C 0.42486 0.62024 0.70696 0.0
O354 O 0.4569 0.6029 0.73003 0.0
Co355 Co 0.41467 0.59888 0.73989 0.0
O356 O 0.43384 0.58127 0.73005 0.0
C357 C 0.43146 0.62244 0.76977 0.0
C358 C 0.45659 0.65856 0.7295 0.0
C359 C 0.45113 0.58579 0.72873 0.0
O360 O 0.44377 0.62905 0.75825 0.0
O361 O 0.41796 0.61167 0.76472 0.0
O362 O 0.44116 0.62722 0.70255 0.0
O363 O 0.42087 0.62031 0.7246 0.0
Co364 Co 0.554 0.13425 0.77341 0.0
O365 O 0.55633 0.1611 0.7738 0.0
O366 O 0.52934 0.14579 0.77162 0.0
C367 C 0.57404 0.12905 0.79736 0.0
O368 O 0.54629 0.10663 0.77318 0.0
Co369 Co 0.58909 0.10905 0.76577 0.0
O370 O 0.57236 0.08886 0.77516 0.0
C371 C 0.57001 0.1285 0.73423 0.0
C372 C 0.53818 0.1618 0.77244 0.0
C373 C 0.55453 0.09064 0.77534 0.0
O374 O 0.55665 0.1341 0.74512 0.0
O375 O 0.58459 0.11976 0.74017 0.0
O376 O 0.55659 0.13311 0.80094 0.0
O377 O 0.57885 0.12964 0.77997 0.0
Co378 Co 0.44865 0.37759 0.7672 0.0
O379 O 0.44176 0.35141 0.76638 0.0
O380 O 0.47097 0.36209 0.76711 0.0
C381 C 0.42779 0.38575 0.78959 0.0
O382 O 0.46129 0.40335 0.76872 0.0
Co383 Co 0.42015 0.40936 0.7575 0.0
O384 O 0.43869 0.42529 0.77071 0.0
C385 C 0.43833 0.38778 0.72694 0.0
C386 C 0.45963 0.34775 0.7667 0.0
C387 C 0.45586 0.42034 0.77179 0.0
O388 O 0.44854 0.37871 0.73883 0.0
O389 O 0.42578 0.39977 0.73167 0.0
O390 O 0.44374 0.37819 0.79433 0.0
O391 O 0.42453 0.38675 0.77181 0.0
Co392 Co 0.71664 0.5548 0.86544 0.0
O393 O 0.71418 0.55684 0.83869 0.0
O394 O 0.7205 0.53042 0.85386 0.0
C395 C 0.691 0.57192 0.87223 0.0
O396 O 0.71951 0.5474 0.89295 0.0
Co397 Co 0.72224 0.59088 0.88971 0.0
O398 O 0.71676 0.5734 0.91071 0.0
C399 C 0.75415 0.57514 0.86827 0.0
C400 C 0.71752 0.53895 0.83795 0.0
C401 C 0.718 0.5556 0.90902 0.0
O402 O 0.74439 0.56057 0.86375 0.0
O403 O 0.74733 0.58927 0.8771 0.0
O404 O 0.68917 0.55416 0.86839 0.0
O405 O 0.7076 0.5788 0.87044 0.0
Co406 Co 0.27938 0.94507 0.87423 0.0
O407 O 0.27916 0.94022 0.84768 0.0
O408 O 0.27612 0.96837 0.86064 0.0
C409 C 0.30442 0.92694 0.88068 0.0
O410 O 0.27942 0.95555 0.90086 0.0
Co411 Co 0.27367 0.91239 0.90293 0.0
O412 O 0.28109 0.9317 0.92154 0.0
C413 C 0.24117 0.92765 0.88199 0.0
C414 C 0.27698 0.95819 0.84547 0.0
C415 C 0.28116 0.9492 0.91771 0.0
O416 O 0.2513 0.94114 0.87543 0.0
O417 O 0.24787 0.9141 0.89177 0.0
O418 O 0.30699 0.94394 0.87454 0.0
O419 O 0.28732 0.92113 0.88123 0.0
Co420 Co 0.71703 0.4488 0.62283 0.0
O421 O 0.71549 0.44269 0.64909 0.0
O422 O 0.72071 0.47122 0.63781 0.0
C423 C 0.69159 0.43226 0.61403 0.0
O424 O 0.71891 0.46044 0.59671 0.0
Co425 Co 0.7232 0.41682 0.59335 0.0
O426 O 0.71822 0.4373 0.57515 0.0
C427 C 0.75458 0.42934 0.61725 0.0
C428 C 0.71847 0.46037 0.65237 0.0
C429 C 0.71824 0.45467 0.57957 0.0
O430 O 0.74492 0.44354 0.62296 0.0
O431 O 0.7478 0.41619 0.60702 0.0
O432 O 0.68942 0.44899 0.62102 0.0
O433 O 0.70842 0.42569 0.61423 0.0
Co434 Co 0.28019 0.04955 0.63062 0.0
O435 O 0.28315 0.05369 0.65711 0.0
O436 O 0.27458 0.02669 0.64418 0.0
C437 C 0.30703 0.06375 0.62199 0.0
O438 O 0.27614 0.03992 0.60404 0.0
Co439 Co 0.27717 0.08335 0.60288 0.0
O440 O 0.28078 0.06355 0.58357 0.0
C441 C 0.2443 0.0723 0.62585 0.0
C442 C 0.27835 0.03623 0.65932 0.0
C443 C 0.27798 0.04622 0.5872 0.0
O444 O 0.25304 0.05767 0.63197 0.0
O445 O 0.25202 0.08483 0.61548 0.0
O446 O 0.30745 0.04636 0.62752 0.0
O447 O 0.29108 0.07217 0.62324 0.0
Co448 Co 0.87606 0.71826 0.55676 0.0
O449 O 0.84977 0.71606 0.56253 0.0
O450 O 0.86128 0.72362 0.53458 0.0
C451 C 0.88476 0.69171 0.57141 0.0
O452 O 0.90223 0.72102 0.54535 0.0
Co453 Co 0.90569 0.72212 0.58875 0.0
O454 O 0.92366 0.7169 0.5682 0.0
C455 C 0.8832 0.75513 0.57752 0.0
C456 C 0.84667 0.72035 0.54509 0.0
C457 C 0.9193 0.71877 0.55093 0.0
O458 O 0.87571 0.7457 0.56401 0.0
O459 O 0.89455 0.74796 0.58951 0.0
O460 O 0.87799 0.69081 0.55448 0.0
O461 O 0.88455 0.708 0.57929 0.0
Co462 Co 0.86783 0.27228 0.94129 0.0
O463 O 0.84143 0.27535 0.93659 0.0
O464 O 0.8541 0.27051 0.96463 0.0
C465 C 0.87755 0.29645 0.92326 0.0
O466 O 0.8943 0.26891 0.95154 0.0
Co467 Co 0.89555 0.26343 0.90844 0.0
O468 O 0.91464 0.27075 0.92741 0.0
C469 C 0.87126 0.23343 0.92389 0.0
C470 C 0.83908 0.27322 0.95455 0.0
C471 C 0.91109 0.27017 0.94496 0.0
O472 O 0.86567 0.24427 0.93727 0.0
O473 O 0.88178 0.23896 0.91037 0.0
O474 O 0.87164 0.29965 0.94026 0.0
O475 O 0.8757 0.27943 0.91745 0.0
Co476 Co 0.12789 0.22568 0.94419 0.0
O477 O 0.15422 0.22727 0.93848 0.0
O478 O 0.14228 0.22608 0.96721 0.0
C479 C 0.12155 0.20325 0.9228 0.0
O480 O 0.10174 0.22351 0.95555 0.0
Co481 Co 0.09713 0.23403 0.91423 0.0
O482 O 0.08101 0.21987 0.93204 0.0
C483 C 0.1173 0.26546 0.93299 0.0
C484 C 0.15706 0.227 0.95648 0.0
C485 C 0.08531 0.21924 0.94939 0.0
O486 O 0.12584 0.25399 0.94413 0.0
O487 O 0.10643 0.26006 0.91969 0.0
O488 O 0.12808 0.19849 0.93919 0.0
O489 O 0.12021 0.22101 0.91969 0.0
Co490 Co 0.62856 0.27883 0.055 0.0
O491 O 0.65533 0.28073 0.05726 0.0
O492 O 0.64006 0.27648 0.03047 0.0
C493 C 0.62186 0.30336 0.07377 0.0
O494 O 0.60109 0.27678 0.04733 0.0
Co495 Co 0.60387 0.27129 0.09044 0.0
O496 O 0.58321 0.27876 0.0733 0.0
C497 C 0.62485 0.24005 0.07266 0.0
C498 C 0.65601 0.27851 0.03919 0.0
C499 C 0.58501 0.27836 0.05548 0.0
O500 O 0.62992 0.25072 0.05894 0.0
O501 O 0.61577 0.24604 0.087 0.0
O502 O 0.62592 0.30631 0.0562 0.0
O503 O 0.62352 0.28629 0.07948 0.0
Co504 Co 0.44453 0.12986 0.27498 0.0
O505 O 0.43988 0.15642 0.27606 0.0
O506 O 0.46799 0.14349 0.27266 0.0
C507 C 0.42606 0.12204 0.29949 0.0
O508 O 0.45459 0.10303 0.27384 0.0
Co509 Co 0.41138 0.10201 0.26761 0.0
O510 O 0.43001 0.0833 0.2765 0.0
C511 C 0.4278 0.12367 0.23612 0.0
C512 C 0.45787 0.15867 0.27416 0.0
C513 C 0.44765 0.08647 0.27615 0.0
O514 O 0.44097 0.13005 0.2468 0.0
O515 O 0.41413 0.11365 0.24217 0.0
O516 O 0.44307 0.12801 0.30252 0.0
O517 O 0.42052 0.12276 0.2823 0.0
Co518 Co 0.55274 0.37232 0.27759 0.0
O519 O 0.55619 0.34559 0.2777 0.0
O520 O 0.5286 0.3598 0.27557 0.0
C521 C 0.57238 0.3779 0.30173 0.0
O522 O 0.54392 0.39958 0.27755 0.0
Co523 Co 0.5868 0.39902 0.27053 0.0
O524 O 0.56925 0.41827 0.28038 0.0
C525 C 0.56869 0.37926 0.23862 0.0
C526 C 0.53809 0.34416 0.27632 0.0
C527 C 0.5515 0.41581 0.28017 0.0
O528 O 0.55557 0.37291 0.24936 0.0
O529 O 0.58284 0.38859 0.2447 0.0
O530 O 0.55506 0.3732 0.30512 0.0
O531 O 0.57735 0.37781 0.28436 0.0
Co532 Co 0.44276 0.87086 0.22671 0.0
O533 O 0.43932 0.84422 0.22426 0.0
O534 O 0.46697 0.85842 0.22604 0.0
C535 C 0.4215 0.87881 0.2046 0.0
O536 O 0.45165 0.89803 0.22865 0.0
Co537 Co 0.40927 0.89666 0.23861 0.0
O538 O 0.42628 0.91687 0.22975 0.0
C539 C 0.42934 0.8738 0.2671 0.0
C540 C 0.45749 0.84285 0.2244 0.0
C541 C 0.44397 0.91441 0.22827 0.0
O542 O 0.44188 0.86878 0.25503 0.0
O543 O 0.41476 0.88344 0.26279 0.0
O544 O 0.43848 0.87427 0.19958 0.0
O545 O 0.41782 0.87699 0.22219 0.0
Co546 Co 0.55754 0.63231 0.22717 0.0
O547 O 0.5603 0.65896 0.2242 0.0
O548 O 0.53309 0.64427 0.22775 0.0
C549 C 0.57761 0.62461 0.20393 0.0
O550 O 0.54929 0.60501 0.2299 0.0
Co551 Co 0.59211 0.60718 0.23718 0.0
O552 O 0.57495 0.58654 0.22971 0.0
C553 C 0.57353 0.6301 0.26663 0.0
C554 C 0.54214 0.65999 0.22531 0.0
C555 C 0.55717 0.58873 0.22926 0.0
O556 O 0.5601 0.63471 0.25537 0.0
O557 O 0.588 0.62071 0.26146 0.0
O558 O 0.56025 0.62862 0.19986 0.0
O559 O 0.58228 0.62665 0.22125 0.0
Co560 Co 0.28358 0.44591 0.1291 0.0
O561 O 0.28514 0.44241 0.15579 0.0
O562 O 0.27955 0.46962 0.14168 0.0
C563 C 0.30923 0.4289 0.12226 0.0
O564 O 0.28156 0.45507 0.10212 0.0
Co565 Co 0.27848 0.4121 0.10191 0.0
O566 O 0.28681 0.43064 0.0828 0.0
C567 C 0.24573 0.42691 0.12293 0.0
C568 C 0.28189 0.46029 0.15724 0.0
C569 C 0.28494 0.44819 0.08578 0.0
O570 O 0.25579 0.44041 0.1296 0.0
O571 O 0.25246 0.41372 0.11269 0.0
O572 O 0.31109 0.44639 0.12718 0.0
O573 O 0.29248 0.4221 0.12287 0.0
Co574 Co 0.72075 0.05426 0.12821 0.0
O575 O 0.71757 0.05901 0.15456 0.0
O576 O 0.72534 0.03145 0.14235 0.0
C577 C 0.69463 0.0693 0.11895 0.0
O578 O 0.72452 0.04404 0.10173 0.0
Co579 Co 0.72587 0.08774 0.10043 0.0
O580 O 0.72149 0.06798 0.0813 0.0
C581 C 0.75754 0.07584 0.1244 0.0
C582 C 0.72166 0.04146 0.15723 0.0
C583 C 0.72306 0.05049 0.08489 0.0
O584 O 0.74817 0.06137 0.12994 0.0
O585 O 0.75055 0.0887 0.11393 0.0
O586 O 0.69343 0.05207 0.12487 0.0
O587 O 0.71086 0.07714 0.12034 0.0
Co588 Co 0.26813 0.55484 0.36971 0.0
O589 O 0.26845 0.55976 0.34318 0.0
O590 O 0.26767 0.5314 0.35604 0.0
C591 C 0.29096 0.57563 0.37676 0.0
O592 O 0.26829 0.54417 0.39621 0.0
Co593 Co 0.25935 0.58602 0.39918 0.0
O594 O 0.27151 0.56801 0.41666 0.0
C595 C 0.22842 0.56818 0.37741 0.0
C596 C 0.26824 0.54166 0.34092 0.0
C597 C 0.27172 0.55055 0.41275 0.0
O598 O 0.23976 0.5561 0.37005 0.0
O599 O 0.23385 0.58162 0.3881 0.0
O600 O 0.29548 0.55888 0.37101 0.0
O601 O 0.27328 0.57935 0.37698 0.0
Co602 Co 0.72389 0.94658 0.37029 0.0
O603 O 0.72137 0.94378 0.34361 0.0
O604 O 0.72562 0.97094 0.3582 0.0
C605 C 0.69983 0.92748 0.37756 0.0
O606 O 0.72638 0.95487 0.39755 0.0
Co607 Co 0.73259 0.91185 0.39551 0.0
O608 O 0.72549 0.92928 0.41607 0.0
C609 C 0.7627 0.92909 0.37267 0.0
C610 C 0.72322 0.96186 0.34249 0.0
C611 C 0.72539 0.94707 0.41384 0.0
O612 O 0.75198 0.94303 0.36836 0.0
O613 O 0.75705 0.91467 0.38185 0.0
O614 O 0.69649 0.94497 0.37347 0.0
O615 O 0.71697 0.92202 0.37588 0.0
Co616 Co 0.12524 0.26964 0.44591 0.0
O617 O 0.15179 0.26926 0.44085 0.0
O618 O 0.13913 0.27066 0.46924 0.0
C619 C 0.11808 0.29102 0.4237 0.0
O620 O 0.09867 0.27096 0.45666 0.0
Co621 Co 0.09569 0.25854 0.41555 0.0
O622 O 0.07828 0.27194 0.4326 0.0
C623 C 0.11663 0.22895 0.4361 0.0
C624 C 0.15421 0.27014 0.4589 0.0
C625 C 0.08205 0.27364 0.45001 0.0
O626 O 0.1248 0.24125 0.4466 0.0
O627 O 0.10544 0.23315 0.42266 0.0
O628 O 0.12412 0.29662 0.44003 0.0
O629 O 0.11783 0.27313 0.42111 0.0
Co630 Co 0.12619 0.72911 0.05273 0.0
O631 O 0.1521 0.7246 0.05879 0.0
O632 O 0.1412 0.72958 0.03007 0.0
C633 C 0.11419 0.70594 0.07072 0.0
O634 O 0.10036 0.73368 0.0412 0.0
Co635 Co 0.09854 0.74094 0.08489 0.0
O636 O 0.07971 0.73983 0.06447 0.0
C637 C 0.1256 0.76832 0.06978 0.0
C638 C 0.1555 0.72617 0.04095 0.0
C639 C 0.08371 0.73748 0.04716 0.0
O640 O 0.12988 0.75711 0.05622 0.0
O641 O 0.11509 0.76357 0.08357 0.0
O642 O 0.12084 0.70199 0.05418 0.0
O643 O 0.11679 0.72293 0.07631 0.0
Co644 Co 0.86947 0.75979 0.04971 0.0
O645 O 0.84312 0.76108 0.05557 0.0
O646 O 0.85487 0.75978 0.02679 0.0
C647 C 0.87855 0.78257 0.06982 0.0
O648 O 0.89568 0.75903 0.03819 0.0
Co649 Co 0.89905 0.74946 0.08045 0.0
O650 O 0.91683 0.75977 0.06167 0.0
C651 C 0.87549 0.71973 0.06318 0.0
C652 C 0.84015 0.76091 0.03758 0.0
C653 C 0.91262 0.76079 0.04429 0.0
O654 O 0.86875 0.73139 0.05105 0.0
O655 O 0.88641 0.72465 0.07661 0.0
O656 O 0.87195 0.78708 0.05339 0.0
O657 O 0.8779 0.76497 0.07391 0.0
Co658 Co 0.37003 0.71268 0.9509 0.0
O659 O 0.34381 0.7067 0.94933 0.0
O660 O 0.35772 0.71875 0.97443 0.0
C661 C 0.38051 0.68589 0.93792 0.0
O662 O 0.39687 0.71996 0.95765 0.0
Co663 Co 0.39337 0.71629 0.91397 0.0
O664 O 0.41479 0.71675 0.93179 0.0
C665 C 0.36838 0.74723 0.9255 0.0
C666 C 0.34238 0.71273 0.96646 0.0
C667 C 0.41295 0.71981 0.94936 0.0
O668 O 0.36504 0.7389 0.94122 0.0
O669 O 0.37794 0.73976 0.91221 0.0
O670 O 0.37638 0.68624 0.9557 0.0
O671 O 0.37656 0.70084 0.92855 0.0
H672 H -0.00065 0.17081 0.22272 0.0
H673 H 0.01151 0.20306 0.22115 0.0
H674 H 0.95486 0.22451 0.22019 0.0
H675 H 0.94259 0.19246 0.22169 0.0
H676 H 0.00178 0.23108 0.19134 0.0
H677 H 0.98257 0.25357 0.26372 0.0
H678 H 0.98503 0.22914 0.25723 0.0
H679 H 0.96451 0.24205 0.25027 0.0
C680 C 0.98949 0.18241 0.2223 0.0
C681 C 0.97002 0.1791 0.22237 0.0
C682 C 0.99645 0.20078 0.22136 0.0
C683 C 0.98406 0.21611 0.22073 0.0
C684 C 0.96463 0.21286 0.2209 0.0
H685 H 0.00047 0.33763 0.21932 0.0
H686 H 0.98688 0.30594 0.21974 0.0
C687 C 0.95767 0.19453 0.22169 0.0
C688 C 0.99136 0.23553 0.21937 0.0
H689 H 0.99472 0.27687 0.24346 0.0
C690 C 0.00032 0.24111 0.20273 0.0
C691 C 0.98919 0.24856 0.23418 0.0
C692 C 0.97992 0.2431 0.25244 0.0
C693 C 0.00707 0.25951 0.20044 0.0
C694 C 0.00522 0.2725 0.21541 0.0
C695 C 0.99611 0.26691 0.232 0.0
C696 C 0.01325 0.29172 0.21443 0.0
C697 C 0.01576 0.26493 0.18188 0.0
C698 C 0.03257 0.29424 0.21145 0.0
C699 C 0.04031 0.31225 0.21108 0.0
C700 C 0.02893 0.32816 0.21393 0.0
C701 C 0.00958 0.32566 0.21702 0.0
C702 C 0.00181 0.30757 0.21728 0.0
H703 H 0.01082 0.25567 0.17032 0.0
H704 H 0.01246 0.27973 0.17818 0.0
H705 H 0.03126 0.26345 0.18285 0.0
H706 H 0.04175 0.28222 0.20972 0.0
H707 H 0.05529 0.31367 0.20883 0.0
H708 H 0.05444 0.69238 0.2816 0.0
H709 H 0.04181 0.72425 0.28029 0.0
H710 H 0.9864 0.70205 0.26988 0.0
H711 H 0.99894 0.66993 0.27124 0.0
H712 H 0.02217 0.74124 0.24957 0.0
H713 H 0.97939 0.73871 0.31491 0.0
H714 H 0.99787 0.722 0.31004 0.0
H715 H 0.97555 0.7199 0.29848 0.0
C716 C 0.03954 0.69422 0.27908 0.0
C717 C 0.02766 0.67862 0.27656 0.0
C718 C 0.03237 0.71246 0.27833 0.0
C719 C 0.01316 0.71549 0.27519 0.0
C720 C 0.00123 0.69998 0.2726 0.0
H721 H 0.94472 0.81575 0.26717 0.0
H722 H 0.9569 0.7837 0.26859 0.0
C723 C 0.00842 0.68167 0.27328 0.0
C724 C 0.00583 0.73494 0.27422 0.0
H725 H 0.97691 0.76615 0.29637 0.0
C726 C 0.01229 0.74673 0.2598 0.0
C727 C 0.99297 0.742 0.28761 0.0
C728 C 0.9861 0.7301 0.30375 0.0
C729 C 0.00598 0.76536 0.2582 0.0
C730 C 0.9932 0.77249 0.27166 0.0
C731 C 0.98674 0.76067 0.28609 0.0
C732 C 0.98604 0.79206 0.27082 0.0
C733 C 0.01273 0.77707 0.24186 0.0
C734 C 0.99838 0.80745 0.27181 0.0
C735 C 0.99146 0.82585 0.27088 0.0
C736 C 0.97206 0.82914 0.26915 0.0
C737 C 0.95975 0.8137 0.26845 0.0
C738 C 0.96668 0.79535 0.26929 0.0
H739 H 0.0183 0.76818 0.23029 0.0
H740 H 0.00124 0.78599 0.23622 0.0
H741 H 0.02425 0.78642 0.24666 0.0
H742 H 0.01335 0.80524 0.27342 0.0
H743 H 0.00127 0.83745 0.27161 0.0
H744 H 0.21082 0.95344 0.18884 0.0
H745 H 0.21394 0.96751 0.21991 0.0
H746 H 0.22833 0.02068 0.19468 0.0
H747 H 0.22522 0.00665 0.16326 0.0
H748 H 0.24812 0.98577 0.23379 0.0
H749 H 0.18515 0.03231 0.23364 0.0
H750 H 0.18729 0.01239 0.21804 0.0
H751 H 0.20059 0.03333 0.21362 0.0
C752 C 0.21454 0.96817 0.18982 0.0
C753 C 0.21779 0.97895 0.17357 0.0
C754 C 0.21633 0.97616 0.20761 0.0
C755 C 0.22126 0.99512 0.20956 0.0
C756 C 0.22432 0.00605 0.19342 0.0
H757 H 0.23293 0.05978 0.31331 0.0
H758 H 0.23188 0.05026 0.28029 0.0
C759 C 0.2226 0.99802 0.17552 0.0
C760 C 0.22382 0.00302 0.22861 0.0
H761 H 0.20381 0.03224 0.26096 0.0
C762 C 0.23852 0.99602 0.23972 0.0
C763 C 0.2113 0.01642 0.23621 0.0
C764 C 0.19509 0.02405 0.22488 0.0
C765 C 0.24096 0.00195 0.25836 0.0
C766 C 0.22806 0.01489 0.26621 0.0
C767 C 0.21363 0.02225 0.25493 0.0
C768 C 0.22903 0.02058 0.28624 0.0
C769 C 0.25741 0.99438 0.2694 0.0
C770 C 0.22759 0.00706 0.30055 0.0
C771 C 0.22831 0.01244 0.31943 0.0
C772 C 0.23025 0.03147 0.32434 0.0
C773 C 0.2315 0.045 0.30998 0.0
C774 C 0.23086 0.03959 0.29111 0.0
H775 H 0.26882 0.98938 0.25998 0.0
H776 H 0.26324 0.00522 0.27899 0.0
H777 H 0.25268 0.98226 0.27798 0.0
H778 H 0.22571 0.99235 0.29713 0.0
H779 H 0.22713 0.00171 0.33016 0.0
H780 H 0.75316 0.50126 0.16803 0.0
H781 H 0.74977 0.48989 0.20049 0.0
H782 H 0.80393 0.51348 0.21428 0.0
H783 H 0.80673 0.52575 0.18237 0.0
H784 H 0.76721 0.46731 0.22329 0.0
H785 H 0.77311 0.53858 0.25315 0.0
H786 H 0.77121 0.53457 0.22823 0.0
H787 H 0.79371 0.53308 0.23982 0.0
C788 C 0.76438 0.50376 0.178 0.0
C789 C 0.78011 0.51449 0.17286 0.0
C790 C 0.76242 0.49737 0.19654 0.0
C791 C 0.7763 0.50141 0.21005 0.0
C792 C 0.79266 0.51087 0.20439 0.0
H793 H 0.79267 0.44564 0.31637 0.0
H794 H 0.79155 0.45533 0.28353 0.0
C795 C 0.79437 0.51766 0.1861 0.0
C796 C 0.7737 0.49607 0.23011 0.0
H797 H 0.7777 0.51309 0.27478 0.0
C798 C 0.76929 0.47737 0.23455 0.0
C799 C 0.77581 0.50928 0.24487 0.0
C800 C 0.77849 0.53002 0.24126 0.0
C801 C 0.76773 0.47136 0.2533 0.0
C802 C 0.7715 0.48422 0.26805 0.0
C803 C 0.77515 0.50309 0.26357 0.0
C804 C 0.77222 0.47841 0.28815 0.0
C805 C 0.76175 0.45134 0.25697 0.0
C806 C 0.7626 0.48874 0.30201 0.0
C807 C 0.76382 0.48362 0.32098 0.0
C808 C 0.77443 0.46789 0.32636 0.0
C809 C 0.78415 0.45767 0.31256 0.0
C810 C 0.78333 0.46307 0.29372 0.0
H811 H 0.75281 0.44592 0.24536 0.0
H812 H 0.77439 0.44225 0.25775 0.0
H813 H 0.7538 0.45006 0.27033 0.0
H814 H 0.75406 0.50074 0.29816 0.0
H815 H 0.75618 0.49172 0.33136 0.0
H816 H 0.30731 0.21333 0.05158 0.0
H817 H 0.27684 0.21583 0.03616 0.0
H818 H 0.3042 0.22944 0.98384 0.0
H819 H 0.33501 0.22688 0.99923 0.0
H820 H 0.26242 0.24845 0.01683 0.0
H821 H 0.26769 0.18509 0.97119 0.0
H822 H 0.28257 0.1885 0.99146 0.0
H823 H 0.28693 0.20148 0.9703 0.0
C824 C 0.30692 0.21679 0.03677 0.0
C825 C 0.32358 0.21988 0.0266 0.0
C826 C 0.28948 0.21824 0.028 0.0
C827 C 0.28831 0.22268 0.00887 0.0
C828 C 0.30487 0.22577 0.99859 0.0
H829 H 0.18979 0.23095 0.93705 0.0
H830 H 0.22177 0.23102 0.94951 0.0
C831 C 0.32242 0.22438 0.0074 0.0
C832 C 0.26962 0.22437 -1e-05 0.0
H833 H 0.23998 0.20307 0.96892 0.0
C834 C 0.25751 0.2386 0.00629 0.0
C835 C 0.26334 0.21148 0.98626 0.0
C836 C 0.2757 0.19566 0.97942 0.0
C837 C 0.23919 0.24028 0.99922 0.0
C838 C 0.23272 0.22712 0.98581 0.0
C839 C 0.24497 0.21309 0.97926 0.0
C840 C 0.21326 0.22754 0.97848 0.0
C841 C 0.22701 0.25625 0.00604 0.0
C842 C 0.19786 0.22544 0.99065 0.0
C843 C 0.17952 0.22549 0.98358 0.0
C844 C 0.17632 0.22744 0.9642 0.0
C845 C 0.19179 0.22945 0.95206 0.0
C846 C 0.21008 0.22947 0.95914 0.0
H847 H 0.23556 0.26787 0.012 0.0
H848 H 0.21819 0.26193 0.99449 0.0
H849 H 0.21755 0.25103 0.01729 0.0
H850 H 0.20003 0.22351 0.00558 0.0
H851 H 0.1679 0.22377 0.99325 0.0
H852 H 0.31546 0.80609 0.45774 0.0
H853 H 0.28412 0.8055 0.47156 0.0
H854 H 0.29921 0.75624 0.50364 0.0
H855 H 0.33114 0.7576 0.4906 0.0
H856 H 0.25827 0.78098 0.46769 0.0
H857 H 0.27429 0.78556 0.54373 0.0
H858 H 0.29194 0.78932 0.52598 0.0
H859 H 0.2854 0.76581 0.53273 0.0
C860 C 0.31217 0.79534 0.46802 0.0
C861 C 0.32568 0.78195 0.47323 0.0
C862 C 0.29423 0.79496 0.47585 0.0
C863 C 0.28924 0.78092 0.48878 0.0
C864 C 0.30281 0.76753 0.4941 0.0
H865 H 0.1689 0.76031 0.50949 0.0
H866 H 0.20119 0.75811 0.49759 0.0
C867 C 0.32101 0.76824 0.4866 0.0
C868 C 0.26956 0.77998 0.49578 0.0
H869 H 0.24274 0.7786 0.53551 0.0
C870 C 0.25489 0.78055 0.48255 0.0
C871 C 0.26508 0.77955 0.51515 0.0
C872 C 0.28 0.78022 0.53021 0.0
C873 C 0.23597 0.78113 0.48809 0.0
C874 C 0.23148 0.78016 0.50743 0.0
C875 C 0.24613 0.77921 0.52066 0.0
C876 C 0.2118 0.7812 0.51442 0.0
C877 C 0.22114 0.78358 0.47312 0.0
C878 C 0.20707 0.79447 0.52823 0.0
C879 C 0.18886 0.79532 0.53541 0.0
C880 C 0.17486 0.78316 0.52868 0.0
C881 C 0.17941 0.77004 0.51467 0.0
C882 C 0.19782 0.76886 0.50782 0.0
H883 H 0.22709 0.78979 0.46009 0.0
H884 H 0.21523 0.76963 0.46941 0.0
H885 H 0.20952 0.79274 0.47807 0.0
H886 H 0.21752 0.80418 0.53355 0.0
H887 H 0.1857 0.80558 0.5462 0.0
H888 H 0.81647 0.70104 0.55794 0.0
H889 H 0.78448 0.70136 0.5456 0.0
H890 H 0.80087 0.74255 0.50418 0.0
H891 H 0.83329 0.74128 0.51577 0.0
H892 H 0.75883 0.72635 0.54381 0.0
H893 H 0.77601 0.70616 0.47067 0.0
H894 H 0.79329 0.70573 0.48914 0.0
H895 H 0.78753 0.72748 0.47747 0.0
C896 C 0.81326 0.71007 0.5461 0.0
C897 C 0.82735 0.721 0.53766 0.0
C898 C 0.79495 0.71029 0.53909 0.0
C899 C 0.79024 0.72171 0.5237 0.0
C900 C 0.80423 0.73313 0.51563 0.0
H901 H 0.6718 0.74261 0.49467 0.0
H902 H 0.70321 0.74471 0.50876 0.0
C903 C 0.82272 0.73251 0.52233 0.0
C904 C 0.77067 0.72162 0.51634 0.0
H905 H 0.74473 0.71598 0.47643 0.0
C906 C 0.75575 0.72397 0.52908 0.0
C907 C 0.76657 0.71828 0.49716 0.0
C908 C 0.78169 0.71407 0.48287 0.0
C909 C 0.73691 0.72285 0.52326 0.0
C910 C 0.73284 0.72017 0.50398 0.0
C911 C 0.74778 0.71812 0.49121 0.0
C912 C 0.71331 0.71864 0.49663 0.0
C913 C 0.72169 0.72381 0.538 0.0
C914 C 0.70855 0.70351 0.48487 0.0
C915 C 0.69092 0.70269 0.47636 0.0
C916 C 0.67751 0.71671 0.47979 0.0
C917 C 0.68186 0.73148 0.4921 0.0
C918 C 0.69977 0.73261 0.50022 0.0
H919 H 0.72711 0.7198 0.55208 0.0
H920 H 0.71641 0.73845 0.53897 0.0
H921 H 0.70973 0.71444 0.53446 0.0
H922 H 0.71864 0.6925 0.48192 0.0
H923 H 0.68785 0.69117 0.46689 0.0
H924 H 0.0547 0.80388 0.77915 0.0
H925 H 0.03782 0.77414 0.77975 0.0
H926 H 0.98503 0.80378 0.77666 0.0
H927 H 0.00196 0.83385 0.77569 0.0
H928 H 0.01211 0.76198 0.806 0.0
H929 H 0.98027 0.76478 0.73463 0.0
H930 H 0.99901 0.78031 0.74177 0.0
H931 H 0.9754 0.78452 0.74961 0.0
C932 C 0.0395 0.80414 0.77851 0.0
C933 C 0.02965 0.82123 0.77732 0.0
C934 C 0.02988 0.7871 0.77887 0.0
C935 C 0.0102 0.78673 0.77806 0.0
C936 C 0.00025 0.80375 0.77696 0.0
H937 H 0.9373 0.68779 0.78226 0.0
H938 H 0.94894 0.72019 0.78195 0.0
C939 C 0.00992 0.8209 0.7765 0.0
C940 C 0.00039 0.7684 0.77884 0.0
H941 H 0.97321 0.73824 0.75324 0.0
C942 C 0.00353 0.75682 0.7945 0.0
C943 C 0.98918 0.76176 0.76383 0.0
C944 C 0.98583 0.77338 0.74642 0.0
C945 C 0.99603 0.73864 0.79542 0.0
C946 C 0.98525 0.73183 0.78022 0.0
C947 C 0.98157 0.74356 0.76482 0.0
C948 C 0.97821 0.7123 0.77986 0.0
C949 C -0.00026 0.72678 0.81261 0.0
C950 C 0.99084 0.69723 0.77848 0.0
C951 C 0.98427 0.67873 0.77855 0.0
C952 C 0.96493 0.67503 0.78007 0.0
C953 C 0.95229 0.6902 0.78116 0.0
C954 C 0.95888 0.7087 0.78096 0.0
H955 H 0.00462 0.73541 0.82467 0.0
H956 H 0.98688 0.71901 0.81685 0.0
H957 H 0.01082 0.71631 0.80932 0.0
H958 H 0.00581 0.6998 0.7774 0.0
H959 H 0.99433 0.66735 0.77765 0.0
H960 H 0.05292 0.19353 0.71693 0.0
H961 H 0.03683 0.22371 0.71826 0.0
H962 H 0.9836 0.19532 0.72403 0.0
H963 H -0.00027 0.16481 0.72297 0.0
H964 H 0.00931 0.23678 0.69363 0.0
H965 H 0.98299 0.23379 0.76719 0.0
H966 H 0.00102 0.21817 0.75855 0.0
H967 H 0.97686 0.21421 0.75247 0.0
C968 C 0.0378 0.19363 0.7186 0.0
C969 C 0.02758 0.17677 0.71989 0.0
C970 C 0.02863 0.21092 0.71933 0.0
C971 C 0.00907 0.21175 0.7214 0.0
C972 C 0.99876 0.19497 0.72274 0.0
H973 H 0.93633 0.31038 0.72629 0.0
H974 H 0.9484 0.27821 0.72509 0.0
C975 C 0.00796 0.17757 0.72205 0.0
C976 C -0.00034 0.23031 0.72157 0.0
H977 H 0.97482 0.26054 0.74935 0.0
C978 C 0.00172 0.24196 0.70579 0.0
C979 C 0.98973 0.23698 0.73744 0.0
C980 C 0.98758 0.22524 0.75496 0.0
C981 C 0.99425 0.26019 0.70549 0.0
C982 C 0.98472 0.26703 0.72151 0.0
C983 C 0.98223 0.25524 0.73713 0.0
C984 C 0.97751 0.28652 0.72243 0.0
C985 C 0.99653 0.27196 0.68799 0.0
C986 C 0.98994 0.30182 0.72162 0.0
C987 C 0.98311 0.32022 0.72233 0.0
C988 C 0.96372 0.32361 0.72392 0.0
C989 C 0.95134 0.30823 0.725 0.0
C990 C 0.95819 0.28985 0.72434 0.0
H991 H -0.00022 0.26317 0.6755 0.0
H992 H 0.98362 0.28022 0.68509 0.0
H993 H 0.00833 0.28195 0.69004 0.0
H994 H 0.00495 0.29951 0.72048 0.0
H995 H 0.99299 0.33177 0.72155 0.0
H996 H 0.77825 0.04994 0.8108 0.0
H997 H 0.77647 0.03644 0.77936 0.0
H998 H 0.76742 0.98148 0.8032 0.0
H999 H 0.76921 0.99492 0.83496 0.0
H1000 H 0.79613 0.9842 0.77374 0.0
H1001 H 0.72817 0.0166 0.75303 0.0
H1002 H 0.74519 0.03256 0.7627 0.0
H1003 H 0.73545 0.01438 0.77725 0.0
C1004 C 0.7758 0.03497 0.80942 0.0
C1005 C 0.77379 0.02349 0.82539 0.0
C1006 C 0.77471 0.02732 0.79142 0.0
C1007 C 0.77156 0.00804 0.78898 0.0
C1008 C 0.76973 0.99644 0.80484 0.0
H1009 H 0.76822 0.93688 0.68985 0.0
H1010 H 0.76881 0.94928 0.72181 0.0
C1011 C 0.77073 0.00413 0.82294 0.0
C1012 C 0.77069 5e-05 0.76979 0.0
H1013 H 0.7457 0.00175 0.72888 0.0
C1014 C 0.78504 0.98788 0.76395 0.0
C1015 C 0.75629 0.00508 0.75705 0.0
C1016 C 0.74029 0.01775 0.7628 0.0
C1017 C 0.7856 0.98087 0.74552 0.0
C1018 C 0.77116 0.98585 0.73276 0.0
C1019 C 0.75677 0.99798 0.73866 0.0
C1020 C 0.77058 0.97842 0.7133 0.0
C1021 C 0.80193 0.96863 0.73973 0.0
C1022 C 0.77075 0.99073 0.69787 0.0
C1023 C 0.77022 0.98368 0.67951 0.0
C1024 C 0.76944 0.9642 0.67631 0.0
C1025 C 0.76896 0.95196 0.69182 0.0
C1026 C 0.76943 0.95901 0.71012 0.0
H1027 H 0.8142 0.97055 0.74918 0.0
H1028 H 0.79763 0.95366 0.74046 0.0
H1029 H 0.80637 0.97172 0.7251 0.0
H1030 H 0.7715 0.00578 0.70003 0.0
H1031 H 0.77057 0.99346 0.66785 0.0
H1032 H 0.21602 0.44247 0.80684 0.0
H1033 H 0.21759 0.45766 0.7761 0.0
H1034 H 0.22487 0.51154 0.80284 0.0
H1035 H 0.22339 0.49642 0.83382 0.0
H1036 H 0.19541 0.50827 0.77302 0.0
H1037 H 0.26574 0.48183 0.75149 0.0
H1038 H 0.24975 0.46462 0.76084 0.0
H1039 H 0.25842 0.48301 0.77577 0.0
C1040 C 0.21803 0.45755 0.80622 0.0
C1041 C 0.21962 0.46827 0.82274 0.0
C1042 C 0.219 0.46617 0.78865 0.0
C1043 C 0.22154 0.48564 0.78727 0.0
C1044 C 0.22301 0.49645 0.80369 0.0
H1045 H 0.21933 0.56163 0.69161 0.0
H1046 H 0.22012 0.54799 0.72309 0.0
C1047 C 0.22218 0.48781 0.82133 0.0
C1048 C 0.22206 0.49469 0.76861 0.0
H1049 H 0.24767 0.49726 0.72818 0.0
C1050 C 0.20688 0.50603 0.76323 0.0
C1051 C 0.23697 0.49151 0.75591 0.0
C1052 C 0.25375 0.47969 0.76126 0.0
C1053 C 0.20601 0.514 0.74522 0.0
C1054 C 0.22099 0.51089 0.73249 0.0
C1055 C 0.23623 0.49962 0.73796 0.0
C1056 C 0.22108 0.51917 0.71341 0.0
C1057 C 0.18881 0.52516 0.73981 0.0
C1058 C 0.22206 0.50751 0.69752 0.0
C1059 C 0.22186 0.51529 0.67948 0.0
C1060 C 0.22068 0.53485 0.67707 0.0
C1061 C 0.22007 0.54649 0.69301 0.0
C1062 C 0.2204 0.53872 0.71102 0.0
H1063 H 0.17662 0.5218 0.74898 0.0
H1064 H 0.19187 0.54038 0.74135 0.0
H1065 H 0.18478 0.52246 0.72499 0.0
H1066 H 0.22272 0.49238 0.69908 0.0
H1067 H 0.22238 0.50597 0.66746 0.0
H1068 H 0.66298 0.77531 0.99677 0.0
H1069 H 0.6942 0.77304 0.0113 0.0
H1070 H 0.72004 0.77868 0.95678 0.0
H1071 H 0.68914 0.78126 0.94227 0.0
H1072 H 0.72223 0.74671 0.00469 0.0
H1073 H 0.74772 0.81822 0.9873 0.0
H1074 H 0.72326 0.81168 0.98565 0.0
H1075 H 0.73938 0.80557 0.96715 0.0
C1076 C 0.67534 0.77618 0.98792 0.0
C1077 C 0.6736 0.77856 0.96839 0.0
C1078 C 0.69314 0.77488 0.99623 0.0
C1079 C 0.70944 0.77604 0.98515 0.0
C1080 C 0.70768 0.77822 0.96565 0.0
H1081 H 0.82943 0.7634 0.00069 0.0
H1082 H 0.7974 0.76679 0.9884 0.0
C1083 C 0.68997 0.77956 0.95737 0.0
C1084 C 0.72833 0.77426 0.99375 0.0
H1085 H 0.77089 0.79615 0.99746 0.0
C1086 C 0.73282 0.75759 0.00329 0.0
C1087 C 0.74212 0.78847 0.99185 0.0
C1088 C 0.73785 0.80707 0.9826 0.0
C1089 C 0.75093 0.75451 0.01051 0.0
C1090 C 0.76479 0.76858 0.0083 0.0
C1091 C 0.76025 0.78534 0.99898 0.0
C1092 C 0.78409 0.76622 0.01573 0.0
C1093 C 0.75523 0.73605 0.02002 0.0
C1094 C 0.78717 0.76494 0.03514 0.0
C1095 C 0.80538 0.76303 0.04218 0.0
C1096 C 0.82089 0.76241 0.02993 0.0
C1097 C 0.81777 0.76374 0.01047 0.0
C1098 C 0.79951 0.76571 0.00344 0.0
H1099 H 0.74449 0.72519 0.01678 0.0
H1100 H 0.76924 0.73071 0.01569 0.0
H1101 H 0.75545 0.73818 0.03546 0.0
H1102 H 0.77548 0.76564 0.04486 0.0
H1103 H 0.80731 0.76216 0.05725 0.0
H1104 H 0.68611 0.1947 0.54047 0.0
H1105 H 0.71731 0.19735 0.52652 0.0
H1106 H 0.6991 0.24577 0.49482 0.0
H1107 H 0.66736 0.24236 0.50796 0.0
H1108 H 0.72087 0.22591 0.47407 0.0
H1109 H 0.75652 0.23309 0.54245 0.0
H1110 H 0.74399 0.2113 0.54162 0.0
H1111 H 0.73129 0.23322 0.5404 0.0
C1112 C 0.68875 0.20583 0.53041 0.0
C1113 C 0.67443 0.21842 0.52535 0.0
C1114 C 0.70665 0.20748 0.52262 0.0
C1115 C 0.71082 0.22219 0.51015 0.0
C1116 C 0.69631 0.23443 0.50459 0.0
H1117 H 0.82971 0.24475 0.48634 0.0
H1118 H 0.79741 0.24691 0.49816 0.0
C1119 C 0.67819 0.23246 0.51203 0.0
C1120 C 0.73025 0.22455 0.50282 0.0
H1121 H 0.7763 0.22481 0.5163 0.0
C1122 C 0.73297 0.22592 0.48333 0.0
C1123 C 0.74611 0.22512 0.51486 0.0
C1124 C 0.7443 0.22584 0.53599 0.0
C1125 C 0.75107 0.22706 0.47554 0.0
C1126 C 0.76696 0.22591 0.48751 0.0
C1127 C 0.7642 0.22531 0.50704 0.0
C1128 C 0.78651 0.2249 0.48014 0.0
C1129 C 0.75284 0.22979 0.45458 0.0
C1130 C 0.7913 0.2116 0.46635 0.0
C1131 C 0.80957 0.21072 0.4593 0.0
C1132 C 0.82362 0.22261 0.46637 0.0
C1133 C 0.81911 0.2354 0.48068 0.0
C1134 C 0.80066 0.23665 0.4874 0.0
H1135 H 0.74042 0.23731 0.44882 0.0
H1136 H 0.76566 0.23787 0.45089 0.0
H1137 H 0.75349 0.21585 0.44762 0.0
H1138 H 0.78092 0.20182 0.46107 0.0
H1139 H 0.81277 0.20053 0.44844 0.0
H1140 H 0.18762 0.26809 0.44028 0.0
H1141 H 0.21924 0.2682 0.45366 0.0
H1142 H 0.1958 0.27344 0.50929 0.0
H1143 H 0.16402 0.27304 0.49602 0.0
H1144 H 0.23702 0.29541 0.47525 0.0
H1145 H 0.23082 0.22821 0.5144 0.0
H1146 H 0.21417 0.23519 0.49658 0.0
H1147 H 0.21283 0.24505 0.5198 0.0
C1148 C 0.18916 0.2692 0.45538 0.0
C1149 C 0.17331 0.27043 0.46712 0.0
C1150 C 0.20725 0.2693 0.46299 0.0
C1151 C 0.20987 0.27054 0.48247 0.0
C1152 C 0.19409 0.27207 0.49423 0.0
H1153 H 0.30603 0.27442 0.55607 0.0
H1154 H 0.27492 0.2747 0.54166 0.0
C1155 C 0.17595 0.27193 0.48663 0.0
C1156 C 0.22914 0.27043 0.4904 0.0
H1157 H 0.25824 0.24632 0.51996 0.0
C1158 C 0.24171 0.28464 0.48496 0.0
C1159 C 0.23522 0.25632 0.50301 0.0
C1160 C 0.22264 0.24022 0.50868 0.0
C1161 C 0.26009 0.28535 0.49213 0.0
C1162 C 0.2661 0.27131 0.50485 0.0
C1163 C 0.25357 0.25706 0.5102 0.0
C1164 C 0.28516 0.27142 0.51325 0.0
C1165 C 0.27276 0.30137 0.48643 0.0
C1166 C 0.30127 0.26933 0.50203 0.0
C1167 C 0.31917 0.26915 0.51024 0.0
C1168 C 0.32119 0.27099 0.52981 0.0
C1169 C 0.30499 0.27298 0.54095 0.0
C1170 C 0.28718 0.27314 0.53276 0.0
H1171 H 0.26474 0.31314 0.48002 0.0
H1172 H 0.28069 0.30681 0.49872 0.0
H1173 H 0.28308 0.29626 0.47592 0.0
H1174 H 0.3 0.26766 0.48696 0.0
H1175 H 0.33137 0.26754 0.5013 0.0
H1176 H 0.49618 0.83717 0.72552 0.0
H1177 H 0.48176 0.80588 0.72857 0.0
H1178 H 0.53391 0.78011 0.71168 0.0
H1179 H 0.54833 0.81103 0.70852 0.0
H1180 H 0.48084 0.77518 0.69852 0.0
H1181 H 0.51886 0.75593 0.76401 0.0
H1182 H 0.51546 0.78003 0.75675 0.0
H1183 H 0.53293 0.76576 0.74545 0.0
C1184 C 0.50453 0.82482 0.72243 0.0
C1185 C 0.5234 0.82657 0.71685 0.0
C1186 C 0.49629 0.80701 0.72416 0.0
C1187 C 0.50688 0.79075 0.72055 0.0
C1188 C 0.5256 0.7925 0.71474 0.0
H1189 H 0.49317 0.6701 0.72609 0.0
H1190 H 0.50476 0.70246 0.72369 0.0
C1191 C 0.53377 0.81021 0.71289 0.0
C1192 C 0.49858 0.77182 0.72275 0.0
H1193 H 0.50209 0.73162 0.74867 0.0
C1194 C 0.48529 0.76568 0.70958 0.0
C1195 C 0.50464 0.75948 0.73707 0.0
C1196 C 0.51866 0.76559 0.75175 0.0
C1197 C 0.47822 0.74724 0.71006 0.0
C1198 C 0.48431 0.73484 0.7244 0.0
C1199 C 0.49746 0.74112 0.73769 0.0
C1200 C 0.47724 0.71526 0.72586 0.0
C1201 C 0.46483 0.74105 0.69483 0.0
C1202 C 0.45799 0.71174 0.7282 0.0
C1203 C 0.45135 0.69331 0.72947 0.0
C1204 C 0.46386 0.67802 0.72867 0.0
C1205 C 0.48319 0.68157 0.72674 0.0
C1206 C 0.48982 0.70005 0.72536 0.0
H1207 H 0.46577 0.75023 0.68223 0.0
H1208 H 0.46765 0.72633 0.6905 0.0
H1209 H 0.45022 0.74184 0.70022 0.0
H1210 H 0.44808 0.72326 0.72912 0.0
H1211 H 0.43639 0.69106 0.73111 0.0
H1212 H 0.43886 0.3155 0.76566 0.0
H1213 H 0.45027 0.28309 0.76622 0.0
H1214 H 0.5074 0.30311 0.76884 0.0
H1215 H 0.49612 0.33564 0.76806 0.0
H1216 H 0.50166 0.27467 0.74217 0.0
H1217 H 0.47171 0.25463 0.81146 0.0
H1218 H 0.45512 0.26422 0.79502 0.0
H1219 H 0.47371 0.27878 0.80394 0.0
C1220 C 0.45386 0.31303 0.76639 0.0
C1221 C 0.4666 0.32815 0.76687 0.0
C1222 C 0.46034 0.29448 0.76683 0.0
C1223 C 0.47966 0.29069 0.76788 0.0
C1224 C 0.49242 0.30574 0.76815 0.0
H1225 H 0.55411 0.19647 0.7738 0.0
H1226 H 0.53862 0.22694 0.77208 0.0
C1227 C 0.48595 0.32431 0.7677 0.0
C1228 C 0.48664 0.27104 0.76817 0.0
H1229 H 0.48641 0.23049 0.79393 0.0
C1230 C 0.49831 0.26501 0.75348 0.0
C1231 C 0.48212 0.25842 0.78288 0.0
C1232 C 0.47011 0.26432 0.79932 0.0
C1233 C 0.50569 0.24673 0.75313 0.0
C1234 C 0.50153 0.23424 0.76802 0.0
C1235 C 0.48952 0.2401 0.78251 0.0
C1236 C 0.51059 0.21552 0.76939 0.0
C1237 C 0.51787 0.24091 0.73677 0.0
C1238 C 0.49988 0.19894 0.76898 0.0
C1239 C 0.50873 0.18135 0.77002 0.0
C1240 C 0.52839 0.18015 0.77164 0.0
C1241 C 0.53895 0.19685 0.77241 0.0
C1242 C 0.53014 0.21431 0.77135 0.0
H1243 H 0.51537 0.2499 0.72426 0.0
H1244 H 0.53287 0.24235 0.74079 0.0
H1245 H 0.51529 0.22602 0.73286 0.0
H1246 H 0.48474 0.19961 0.76763 0.0
H1247 H 0.50022 0.16874 0.76948 0.0
H1248 H 0.70647 0.55286 0.80419 0.0
H1249 H 0.707 0.53721 0.7737 0.0
H1250 H 0.72977 0.48731 0.7994 0.0
H1251 H 0.72915 0.50289 0.83028 0.0
H1252 H 0.74879 0.504 0.76368 0.0
H1253 H 0.67194 0.49048 0.75847 0.0
H1254 H 0.6789 0.51349 0.76638 0.0
H1255 H 0.68384 0.49335 0.78073 0.0
C1256 C 0.71157 0.53853 0.80344 0.0
C1257 C 0.71776 0.52908 0.81966 0.0
C1258 C 0.71181 0.52962 0.78599 0.0
C1259 C 0.71831 0.51113 0.78438 0.0
C1260 C 0.72464 0.5016 0.80046 0.0
H1261 H 0.71002 0.44135 0.68447 0.0
H1262 H 0.71075 0.45307 0.71674 0.0
C1263 C 0.72424 0.51048 0.81804 0.0
C1264 C 0.71868 0.50204 0.76571 0.0
H1265 H 0.69 0.48578 0.73087 0.0
C1266 C 0.73598 0.49985 0.75653 0.0
C1267 C 0.70192 0.49666 0.75651 0.0
C1268 C 0.68306 0.49845 0.766 0.0
C1269 C 0.73691 0.49282 0.73811 0.0
C1270 C 0.72009 0.48797 0.72871 0.0
C1271 C 0.70284 0.48968 0.7381 0.0
C1272 C 0.72009 0.48096 0.70913 0.0
C1273 C 0.75582 0.4906 0.7288 0.0
C1274 C 0.72496 0.49286 0.69416 0.0
C1275 C 0.72444 0.48624 0.67564 0.0
C1276 C 0.71911 0.46761 0.67185 0.0
C1277 C 0.71426 0.45576 0.68692 0.0
C1278 C 0.71465 0.46242 0.70537 0.0
H1279 H 0.76753 0.49152 0.73908 0.0
H1280 H 0.75669 0.47691 0.72136 0.0
H1281 H 0.75769 0.50192 0.71823 0.0
H1282 H 0.72898 0.5073 0.69681 0.0
H1283 H 0.72822 0.4957 0.66433 0.0
H1284 H 0.2825 0.05412 0.69287 0.0
H1285 H 0.28139 0.04039 0.72432 0.0
H1286 H 0.27078 0.98578 0.7003 0.0
H1287 H 0.27187 -0.00058 0.66865 0.0
H1288 H 0.25057 0.01893 0.74103 0.0
H1289 H 0.31755 0.97893 0.73556 0.0
H1290 H 0.31189 0.99822 0.72007 0.0
H1291 H 0.30098 0.97573 0.71675 0.0
C1292 C 0.27994 0.03917 0.69424 0.0
C1293 C 0.27734 0.02782 0.67827 0.0
C1294 C 0.27928 0.03138 0.71222 0.0
C1295 C 0.27618 0.01208 0.71457 0.0
C1296 C 0.27341 0.00069 0.69871 0.0
H1297 H 0.27499 0.93958 0.81212 0.0
H1298 H 0.27386 0.95299 0.78058 0.0
C1299 C 0.27396 0.0085 0.68067 0.0
C1300 C 0.27582 0.00398 0.7337 0.0
H1301 H 0.29986 0.97493 0.7633 0.0
C1302 C 0.26132 0.0093 0.74595 0.0
C1303 C 0.28989 0.99147 0.73999 0.0
C1304 C 0.30607 0.98579 0.72751 0.0
C1305 C 0.26035 0.00218 0.76432 0.0
C1306 C 0.27453 0.98977 0.77069 0.0
C1307 C 0.28902 0.98446 0.75839 0.0
C1308 C 0.27452 0.9819 0.78998 0.0
C1309 C 0.24394 0.00769 0.77657 0.0
C1310 C 0.27534 0.99371 0.80578 0.0
C1311 C 0.27585 0.98607 0.82389 0.0
C1312 C 0.2758 0.96649 0.82647 0.0
C1313 C 0.27504 0.95473 0.81062 0.0
C1314 C 0.27441 0.96236 0.79257 0.0
H1315 H 0.23191 0.0129 0.7681 0.0
H1316 H 0.23911 0.99565 0.78524 0.0
H1317 H 0.24834 0.01916 0.78617 0.0
H1318 H 0.27588 0.00883 0.8041 0.0
H1319 H 0.27658 0.99548 0.83583 0.0
H1320 H 0.69075 0.27998 0.05496 0.0
H1321 H 0.72114 0.27909 0.03914 0.0
H1322 H 0.69331 0.27514 0.98547 0.0
H1323 H 0.66262 0.27605 0.00125 0.0
H1324 H 0.73428 0.24946 0.01425 0.0
H1325 H 0.73141 0.31994 0.98036 0.0
H1326 H 0.71662 0.31369 2e-05 0.0
H1327 H 0.71144 0.30479 0.97702 0.0
C1328 C 0.69103 0.27899 0.03977 0.0
C1329 C 0.67428 0.27812 0.02933 0.0
C1330 C 0.70842 0.27846 0.03078 0.0
C1331 C 0.70942 0.27721 0.01117 0.0
C1332 C 0.69277 0.27634 0.00063 0.0
H1333 H 0.80561 0.27598 0.93617 0.0
H1334 H 0.77411 0.27639 0.94978 0.0
C1335 C 0.67529 0.27678 0.00965 0.0
C1336 C 0.72802 0.27638 0.00197 0.0
H1337 H 0.75818 0.30136 0.97432 0.0
C1338 C 0.73953 0.26076 0.00547 0.0
C1339 C 0.73473 0.29116 0.99055 0.0
C1340 C 0.72302 0.30844 0.98679 0.0
C1341 C 0.75762 0.25947 0.99775 0.0
C1342 C 0.7645 0.27443 0.98661 0.0
C1343 C 0.75288 0.28996 0.98293 0.0
C1344 C 0.78369 0.27419 0.97854 0.0
C1345 C 0.76904 0.24196 0.00135 0.0
C1346 C 0.79956 0.27307 0.99023 0.0
C1347 C 0.81762 0.27271 0.98249 0.0
C1348 C 0.82009 0.2737 0.96293 0.0
C1349 C 0.80418 0.27515 0.9513 0.0
C1350 C 0.78616 0.27541 0.95904 0.0
H1351 H 0.76 0.22994 0.00553 0.0
H1352 H 0.77724 0.23789 0.98871 0.0
H1353 H 0.77905 0.24468 0.01299 0.0
H1354 H 0.79798 0.27256 0.00536 0.0
H1355 H 0.82961 0.27174 0.99181 0.0
H1356 H 0.50039 0.33571 0.27512 0.0
H1357 H 0.48606 0.30428 0.27507 0.0
H1358 H 0.54118 0.2791 0.27597 0.0
H1359 H 0.5555 0.31018 0.27628 0.0
H1360 H 0.49066 0.27477 0.24916 0.0
H1361 H 0.51498 0.25343 0.32003 0.0
H1362 H 0.51543 0.27754 0.31214 0.0
H1363 H 0.53361 0.26147 0.30506 0.0
C1364 C 0.50941 0.32346 0.27535 0.0
C1365 C 0.52906 0.32543 0.27583 0.0
C1366 C 0.50123 0.30554 0.27533 0.0
C1367 C 0.51257 0.28937 0.27588 0.0
C1368 C 0.53216 0.29136 0.276 0.0
H1369 H 0.49516 0.16847 0.27265 0.0
H1370 H 0.50838 0.20035 0.27254 0.0
C1371 C 0.54032 0.30918 0.27606 0.0
C1372 C 0.50409 0.27034 0.2759 0.0
H1373 H 0.50267 0.22915 0.30053 0.0
C1374 C 0.49314 0.26484 0.26046 0.0
C1375 C 0.50743 0.2574 0.29063 0.0
C1376 C 0.51835 0.26278 0.30799 0.0
C1377 C 0.48579 0.24657 0.25914 0.0
C1378 C 0.48931 0.23358 0.27377 0.0
C1379 C 0.50014 0.23911 0.28927 0.0
C1380 C 0.48139 0.21433 0.27352 0.0
C1381 C 0.47466 0.24117 0.24193 0.0
C1382 C 0.4619 0.21169 0.27432 0.0
C1383 C 0.45435 0.19359 0.27443 0.0
C1384 C 0.46615 0.17774 0.2738 0.0
C1385 C 0.48571 0.1804 0.27307 0.0
C1386 C 0.49327 0.19857 0.27303 0.0
H1387 H 0.47711 0.25106 0.23009 0.0
H1388 H 0.4783 0.22673 0.23725 0.0
H1389 H 0.45945 0.24143 0.24536 0.0
H1390 H 0.45251 0.22365 0.27505 0.0
H1391 H 0.43922 0.19205 0.27509 0.0
H1392 H 0.4411 0.80968 0.21488 0.0
H1393 H 0.45557 0.77856 0.21379 0.0
H1394 H 0.50885 0.80257 0.22973 0.0
H1395 H 0.49448 0.83398 0.23071 0.0
H1396 H 0.49182 0.76753 0.19178 0.0
H1397 H 0.4929 0.75894 0.26962 0.0
H1398 H 0.47669 0.77465 0.25799 0.0
H1399 H 0.50102 0.78086 0.25986 0.0
C1400 C 0.45592 0.8084 0.21809 0.0
C1401 C 0.46665 0.82427 0.22298 0.0
C1402 C 0.46415 0.79061 0.2174 0.0
C1403 C 0.48319 0.78833 0.22178 0.0
C1404 C 0.49408 0.80413 0.22638 0.0
H1405 H 0.55737 0.69315 0.21405 0.0
H1406 H 0.54212 0.72384 0.2123 0.0
C1407 C 0.48588 0.82201 0.2269 0.0
C1408 C 0.49145 0.76929 0.22196 0.0
H1409 H 0.50565 0.73427 0.25151 0.0
C1410 C 0.4949 0.76024 0.2048 0.0
C1411 C 0.49516 0.75983 0.23901 0.0
C1412 C 0.49121 0.76893 0.25774 0.0
C1413 C 0.50231 0.74196 0.20428 0.0
C1414 C 0.50627 0.73259 0.22133 0.0
C1415 C 0.50255 0.74155 0.23848 0.0
C1416 C 0.51504 0.71378 0.22166 0.0
C1417 C 0.50581 0.73269 0.18554 0.0
C1418 C 0.5048 0.69799 0.22758 0.0
C1419 C 0.51345 0.68033 0.2285 0.0
C1420 C 0.53253 0.67833 0.22379 0.0
C1421 C 0.54267 0.69422 0.21784 0.0
C1422 C 0.53398 0.71177 0.21674 0.0
H1423 H 0.49899 0.74042 0.17382 0.0
H1424 H 0.52117 0.73221 0.18284 0.0
H1425 H 0.50054 0.718 0.18566 0.0
H1426 H 0.49016 0.69936 0.23152 0.0
H1427 H 0.50532 0.66834 0.23317 0.0
H1428 H 0.27365 0.55993 0.30776 0.0
H1429 H 0.27587 0.54622 0.27633 0.0
H1430 H 0.26712 0.49098 0.29957 0.0
H1431 H 0.265 0.50454 0.33123 0.0
H1432 H 0.30336 0.51053 0.2673 0.0
H1433 H 0.22642 0.50486 0.25347 0.0
H1434 H 0.23593 0.52284 0.26869 0.0
H1435 H 0.23548 0.49888 0.27639 0.0
C1436 C 0.27213 0.54487 0.30622 0.0
C1437 C 0.26911 0.5333 0.32196 0.0
C1438 C 0.27344 0.53709 0.28827 0.0
C1439 C 0.27161 0.51767 0.28576 0.0
C1440 C 0.26851 0.50603 0.30135 0.0
H1441 H 0.29093 0.44491 0.19103 0.0
H1442 H 0.28891 0.45957 0.22201 0.0
C1443 C 0.26732 0.51379 0.31937 0.0
C1444 C 0.27314 0.50959 0.26676 0.0
H1445 H 0.24691 0.49402 0.22978 0.0
C1446 C 0.29107 0.50688 0.25906 0.0
C1447 C 0.25702 0.50507 0.25614 0.0
C1448 C 0.23755 0.50805 0.26394 0.0
C1449 C 0.29328 0.4995 0.24092 0.0
C1450 C 0.27715 0.49476 0.23036 0.0
C1451 C 0.25922 0.49771 0.23799 0.0
C1452 C 0.27865 0.48619 0.21155 0.0
C1453 C 0.3128 0.49689 0.23308 0.0
C1454 C 0.2734 0.49634 0.19549 0.0
C1455 C 0.27462 0.48804 0.17771 0.0
C1456 C 0.28088 0.4694 0.17584 0.0
C1457 C 0.28604 0.45929 0.19202 0.0
C1458 C 0.28497 0.46764 0.20971 0.0
H1459 H 0.32357 0.50432 0.2416 0.0
H1460 H 0.3163 0.48169 0.23293 0.0
H1461 H 0.31352 0.50209 0.21838 0.0
H1462 H 0.26842 0.51068 0.19672 0.0
H1463 H 0.2705 0.49613 0.1655 0.0
H1464 H 0.71048 0.05854 0.18953 0.0
H1465 H 0.71106 0.04582 0.22139 0.0
H1466 H 0.73412 0.99385 0.20045 0.0
H1467 H 0.73354 0.00647 0.16833 0.0
H1468 H 0.69272 0.01103 0.23407 0.0
H1469 H 0.77029 0.01189 0.24406 0.0
H1470 H 0.75863 0.026 0.22645 0.0
H1471 H 0.76172 0.00125 0.22277 0.0
C1472 C 0.71572 0.0444 0.19166 0.0
C1473 C 0.72202 0.0335 0.17641 0.0
C1474 C 0.71601 0.03718 0.20988 0.0
C1475 C 0.72279 0.01901 0.21325 0.0
C1476 C 0.72904 0.00801 0.1981 0.0
H1477 H 0.71303 0.94656 0.30905 0.0
H1478 H 0.71251 0.96161 0.27825 0.0
C1479 C 0.72863 0.01519 0.17979 0.0
C1480 C 0.72293 0.01153 0.23263 0.0
H1481 H 0.75211 0.99809 0.26828 0.0
C1482 C 0.70568 0.00822 0.24158 0.0
C1483 C 0.73989 0.00815 0.24241 0.0
C1484 C 0.75873 0.0121 0.23356 0.0
C1485 C 0.70495 0.00117 0.25998 0.0
C1486 C 0.72191 0.99736 0.26959 0.0
C1487 C 0.73916 0.00105 0.26081 0.0
C1488 C 0.72195 0.98863 0.28843 0.0
C1489 C 0.6861 0.99779 0.26906 0.0
C1490 C 0.72755 0.99888 0.30432 0.0
C1491 C 0.72776 0.99034 0.32206 0.0
C1492 C 0.72262 0.97137 0.32403 0.0
C1493 C 0.71709 0.9612 0.30801 0.0
C1494 C 0.71672 0.96977 0.2904 0.0
H1495 H 0.67452 0.00477 0.26125 0.0
H1496 H 0.68323 0.98246 0.26938 0.0
H1497 H 0.6861 0.00296 0.28378 0.0
H1498 H 0.7317 0.01347 0.30299 0.0
H1499 H 0.73214 0.99849 0.33414 0.0
H1500 H 0.18674 0.71572 0.06041 0.0
H1501 H 0.21894 0.7132 0.04878 0.0
H1502 H 0.20044 0.72967 0.9935 0.0
H1503 H 0.16804 0.73226 0.00503 0.0
H1504 H 0.23266 0.69022 0.01822 0.0
H1505 H 0.2441 0.76673 0.00704 0.0
H1506 H 0.22539 0.75768 0.02163 0.0
H1507 H 0.22325 0.75706 0.99651 0.0
C1508 C 0.18948 0.71884 0.04577 0.0
C1509 C 0.17486 0.7243 0.03364 0.0
C1510 C 0.20789 0.71735 0.03916 0.0
C1511 C 0.21207 0.72146 0.02037 0.0
C1512 C 0.1975 0.7267 0.00813 0.0
H1513 H 0.30988 0.69689 0.95421 0.0
H1514 H 0.27886 0.69854 0.96869 0.0
C1515 C 0.17901 0.72809 0.01471 0.0
C1516 C 0.23169 0.72011 0.01363 0.0
H1517 H 0.26813 0.74621 0.9965 0.0
C1518 C 0.24046 0.70245 0.01351 0.0
C1519 C 0.24185 0.73615 0.00778 0.0
C1520 C 0.23329 0.75553 0.00834 0.0
C1521 C 0.25903 0.70033 0.00724 0.0
C1522 C 0.26901 0.71628 0.00085 0.0
C1523 C 0.2604 0.73401 0.00139 0.0
C1524 C 0.28807 0.71472 0.9927 0.0
C1525 C 0.26788 0.68106 0.00751 0.0
C1526 C 0.30351 0.72344 0.00136 0.0
C1527 C 0.32137 0.7225 0.99312 0.0
C1528 C 0.32392 0.71303 0.97597 0.0
C1529 C 0.3084 0.70428 0.96743 0.0
C1530 C 0.29066 0.70511 0.97572 0.0
H1531 H 0.26021 0.67129 0.01697 0.0
H1532 H 0.26757 0.67507 0.99311 0.0
H1533 H 0.28278 0.68185 0.01208 0.0
H1534 H 0.30172 0.73101 0.01444 0.0
H1535 H 0.33305 0.72944 -3e-05 0.0
H1536 H 0.10632 0.32783 0.42741 0.0
H1537 H 0.09144 0.34729 0.40288 0.0
H1538 H 0.09799 0.30189 0.36321 0.0
H1539 H 0.11219 0.28255 0.38737 0.0
H1540 H 0.10439 0.35971 0.36959 0.0
H1541 H 0.04358 0.31429 0.35571 0.0
H1542 H 0.05786 0.31166 0.37653 0.0
H1543 H 0.06441 0.3002 0.35487 0.0
C1544 C 0.1045 0.3221 0.41343 0.0
C1545 C 0.11022 0.30365 0.40931 0.0
C1546 C 0.09594 0.33314 0.3995 0.0
C1547 C 0.09302 0.32578 0.3814 0.0
C1548 C 0.09937 0.3076 0.37725 0.0
H1549 H 0.10324 0.36562 0.27319 0.0
H1550 H 0.10492 0.35697 0.30624 0.0
C1551 C 0.10768 0.29662 0.39106 0.0
C1552 C 0.08456 0.33709 0.36613 0.0
H1553 H 0.05572 0.33163 0.32829 0.0
C1554 C 0.09338 0.35388 0.36081 0.0
C1555 C 0.06972 0.32992 0.355 0.0
C1556 C 0.05823 0.31314 0.361 0.0
C1557 C 0.08915 0.36251 0.3436 0.0
C1558 C 0.07631 0.35369 0.3312 0.0
C1559 C 0.066 0.33811 0.33749 0.0
C1560 C 0.07493 0.35905 0.31111 0.0
C1561 C 0.09894 0.38067 0.3387 0.0
C1562 C 0.0574 0.36193 0.30248 0.0
C1563 C 0.05636 0.36629 0.28333 0.0
C1564 C 0.07286 0.36799 0.2726 0.0
C1565 C 0.09031 0.36465 0.28118 0.0
C1566 C 0.0913 0.35997 0.30015 0.0
H1567 H 0.10154 0.38919 0.35153 0.0
H1568 H 0.11282 0.37748 0.33234 0.0
H1569 H 0.09061 0.3892 0.32864 0.0
H1570 H 0.04455 0.36099 0.31058 0.0
H1571 H 0.04273 0.36889 0.27707 0.0
H1572 H 0.86459 0.16945 0.40838 0.0
H1573 H 0.88048 0.1508 0.3843 0.0
H1574 H 0.93423 0.16621 0.40774 0.0
H1575 H 0.91821 0.1846 0.43213 0.0
H1576 H 0.92773 0.17842 0.37061 0.0
H1577 H 0.91203 0.10261 0.37745 0.0
H1578 H 0.8917 0.11715 0.3809 0.0
H1579 H 0.91103 0.11866 0.39712 0.0
C1580 C 0.87974 0.16799 0.40896 0.0
C1581 C 0.89024 0.17821 0.42209 0.0
C1582 C 0.88883 0.15736 0.39521 0.0
C1583 C 0.90854 0.15703 0.39431 0.0
C1584 C 0.91901 0.16614 0.40833 0.0
H1585 H 0.96068 0.13739 0.28295 0.0
H1586 H 0.95917 0.1437 0.31682 0.0
C1587 C 0.90988 0.1766 0.42223 0.0
C1588 C 0.9177 0.15056 0.37683 0.0
H1589 H 0.91829 0.11393 0.346 0.0
C1590 C 0.92618 0.16419 0.36535 0.0
C1591 C 0.91556 0.13204 0.37007 0.0
C1592 C 0.90724 0.11672 0.38211 0.0
C1593 C 0.93109 0.16021 0.34668 0.0
C1594 C 0.92785 0.14195 0.33952 0.0
C1595 C 0.92066 0.12795 0.35148 0.0
C1596 C 0.92942 0.13772 0.31921 0.0
C1597 C 0.93832 0.17594 0.33443 0.0
C1598 C 0.91332 0.132 0.30941 0.0
C1599 C 0.91418 0.12821 0.29024 0.0
C1600 C 0.93118 0.13014 0.28036 0.0
C1601 C 0.94733 0.13599 0.29014 0.0
C1602 C 0.94649 0.1396 0.30947 0.0
H1603 H 0.93666 0.18992 0.34119 0.0
H1604 H 0.95349 0.17373 0.33162 0.0
H1605 H 0.93084 0.17616 0.32073 0.0
H1606 H 0.89997 0.13058 0.31661 0.0
H1607 H 0.90145 0.1238 0.28316 0.0
H1608 H 0.11914 0.66778 0.07211 0.0
H1609 H 0.10711 0.64646 0.09657 0.0
H1610 H 0.07578 0.69226 0.12095 0.0
H1611 H 0.08772 0.71339 0.09693 0.0
H1612 H 0.11546 0.65488 0.13469 0.0
H1613 H 0.03872 0.64806 0.12448 0.0
H1614 H 0.05453 0.65461 0.1057 0.0
H1615 H 0.04673 0.67189 0.12243 0.0
C1616 C 0.10925 0.67308 0.08239 0.0
C1617 C 0.10448 0.69223 0.08278 0.0
C1618 C 0.10241 0.66094 0.09631 0.0
C1619 C 0.09039 0.66777 0.11041 0.0
C1620 C 0.08472 0.68661 0.11 0.0
H1621 H 0.05443 0.65419 0.2228 0.0
H1622 H 0.05905 0.6619 0.18955 0.0
C1623 C 0.09173 0.69873 0.09636 0.0
C1624 C 0.08618 0.65648 0.12733 0.0
H1625 H 0.05009 0.64377 0.15621 0.0
C1626 C 0.10121 0.65196 0.13924 0.0
C1627 C 0.06756 0.65297 0.13325 0.0
C1628 C 0.05097 0.65698 0.1207 0.0
C1629 C 0.09808 0.64522 0.15748 0.0
C1630 C 0.07939 0.64243 0.16372 0.0
C1631 C 0.06438 0.64603 0.15143 0.0
C1632 C 0.0752 0.63687 0.18332 0.0
C1633 C 0.11478 0.64233 0.17025 0.0
C1634 C 0.08233 0.62005 0.19066 0.0
C1635 C 0.08 0.61579 0.20964 0.0
C1636 C 0.07015 0.6281 0.22157 0.0
C1637 C 0.06216 0.64449 0.21398 0.0
C1638 C 0.06474 0.64887 0.195 0.0
H1639 H 0.12759 0.64942 0.16482 0.0
H1640 H 0.11186 0.64774 0.18459 0.0
H1641 H 0.11786 0.62709 0.17133 0.0
H1642 H 0.09002 0.61036 0.18178 0.0
H1643 H 0.086 0.60286 0.21497 0.0
H1644 H 0.92825 0.90257 0.19508 0.0
H1645 H 0.92258 0.88941 0.16393 0.0
H1646 H 0.94855 0.83741 0.18098 0.0
H1647 H 0.95437 0.85049 0.21235 0.0
H1648 H 0.9535 0.85323 0.13867 0.0
H1649 H 0.88128 0.8444 0.16788 0.0
H1650 H 0.89254 0.86689 0.17066 0.0
H1651 H 0.90163 0.84679 0.18282 0.0
C1652 C 0.93321 0.88849 0.19209 0.0
C1653 C 0.94144 0.87742 0.20626 0.0
C1654 C 0.93006 0.88107 0.17425 0.0
C1655 C 0.93502 0.86245 0.17031 0.0
C1656 C 0.94471 0.85187 0.18383 0.0
H1657 H 0.89374 0.77484 0.10379 0.0
H1658 H 0.90866 0.79642 0.12566 0.0
C1659 C 0.948 0.85934 0.20173 0.0
C1660 C 0.92717 0.85314 0.15354 0.0
H1661 H 0.88659 0.83348 0.13728 0.0
C1662 C 0.93885 0.84906 0.13821 0.0
C1663 C 0.90805 0.84776 0.15314 0.0
C1664 C 0.89507 0.85154 0.16949 0.0
C1665 C 0.93185 0.83933 0.1225 0.0
C1666 C 0.91284 0.83364 0.12232 0.0
C1667 C 0.90112 0.83812 0.13747 0.0
C1668 C 0.90536 0.82082 0.10789 0.0
C1669 C 0.94482 0.83453 0.10647 0.0
C1670 C 0.89857 0.82751 0.09062 0.0
C1671 C 0.88991 0.81513 0.07796 0.0
C1672 C 0.88792 0.796 0.08255 0.0
C1673 C 0.89503 0.78947 0.09979 0.0
C1674 C 0.90363 0.80175 0.11231 0.0
H1675 H 0.95917 0.84032 0.10854 0.0
H1676 H 0.9458 0.81902 0.105 0.0
H1677 H 0.93898 0.84013 0.09313 0.0
H1678 H 0.89966 0.84229 0.08713 0.0
H1679 H 0.8846 0.82052 0.06476 0.0
H1680 H 0.287 0.04874 0.35256 0.0
H1681 H 0.32022 0.05294 0.34512 0.0
H1682 H 0.33208 0.06428 0.40351 0.0
H1683 H 0.29874 0.06081 0.41088 0.0
H1684 H 0.3442 0.09158 0.38301 0.0
H1685 H 0.36915 0.02638 0.34983 0.0
H1686 H 0.34777 0.03359 0.3387 0.0
H1687 H 0.34761 0.02721 0.36325 0.0
C1688 C 0.29678 0.05159 0.36388 0.0
C1689 C 0.29029 0.05468 0.38224 0.0
C1690 C 0.31583 0.05383 0.35966 0.0
C1691 C 0.32875 0.05873 0.3738 0.0
C1692 C 0.32242 0.06047 0.39238 0.0
H1693 H 0.43558 0.11228 0.33581 0.0
H1694 H 0.41587 0.09477 0.35836 0.0
C1695 C 0.30336 0.05854 0.39655 0.0
C1696 C 0.3479 0.06513 0.36863 0.0
H1697 H 0.3838 0.0557 0.33833 0.0
C1698 C 0.35322 0.08346 0.37379 0.0
C1699 C 0.35981 0.05453 0.35677 0.0
C1700 C 0.35584 0.03426 0.35203 0.0
C1701 C 0.36903 0.09209 0.36585 0.0
C1702 C 0.3797 0.08216 0.35243 0.0
C1703 C 0.37546 0.06329 0.34858 0.0
C1704 C 0.39224 0.09225 0.3394 0.0
C1705 C 0.37327 0.11234 0.37049 0.0
C1706 C 0.3853 0.09667 0.32155 0.0
C1707 C 0.39628 0.10667 0.3089 0.0
C1708 C 0.41454 0.11241 0.31377 0.0
C1709 C 0.42153 0.10809 0.33175 0.0
C1710 C 0.41038 0.09804 0.34455 0.0
H1711 H 0.36417 0.11782 0.38193 0.0
H1712 H 0.38819 0.11377 0.37483 0.0
H1713 H 0.37119 0.12116 0.35779 0.0
H1714 H 0.37124 0.09247 0.31745 0.0
H1715 H 0.39042 0.10983 0.29521 0.0
H1716 H 0.56512 0.40074 0.33204 0.0
H1717 H 0.58897 0.41707 0.35128 0.0
H1718 H 0.63278 0.38688 0.3222 0.0
H1719 H 0.60932 0.37112 0.30291 0.0
H1720 H 0.61987 0.4047 0.37478 0.0
H1721 H 0.64458 0.44264 0.31186 0.0
H1722 H 0.62214 0.4308 0.31271 0.0
H1723 H 0.64326 0.41786 0.30747 0.0
C1724 C 0.57984 0.39737 0.33017 0.0
C1725 C 0.58552 0.38484 0.31601 0.0
C1726 C 0.5934 0.40675 0.34101 0.0
C1727 C 0.6126 0.40352 0.33773 0.0
C1728 C 0.61805 0.38993 0.32457 0.0
H1729 H 0.71594 0.40346 0.38878 0.0
H1730 H 0.68295 0.40101 0.38047 0.0
C1731 C 0.60466 0.38084 0.31367 0.0
C1732 C 0.62739 0.4146 0.3472 0.0
H1733 H 0.66774 0.43796 0.3365 0.0
C1734 C 0.63013 0.41242 0.36657 0.0
C1735 C 0.6404 0.42523 0.33659 0.0
C1736 C 0.63733 0.42946 0.31604 0.0
C1737 C 0.64661 0.41897 0.37522 0.0
C1738 C 0.66082 0.42733 0.36403 0.0
C1739 C 0.65709 0.43122 0.34507 0.0
C1740 C 0.68037 0.42979 0.37085 0.0
C1741 C 0.64884 0.41634 0.39612 0.0
C1742 C 0.69024 0.44659 0.36759 0.0
C1743 C 0.70939 0.44788 0.37187 0.0
C1744 C 0.71896 0.4324 0.37957 0.0
C1745 C 0.70897 0.41572 0.38304 0.0
C1746 C 0.68997 0.41437 0.37853 0.0
H1747 H 0.63505 0.41765 0.40334 0.0
H1748 H 0.65424 0.40199 0.39896 0.0
H1749 H 0.65872 0.42676 0.40225 0.0
H1750 H 0.68319 0.4586 0.36144 0.0
H1751 H 0.71668 0.46095 0.36911 0.0
H1752 H 0.27685 0.96162 0.13228 0.0
H1753 H 0.3105 0.9589 0.13918 0.0
H1754 H 0.30596 0.89845 0.13697 0.0
H1755 H 0.27276 0.90109 0.12935 0.0
H1756 H 0.3278 0.94473 0.16738 0.0
H1757 H 0.3517 0.90478 0.10589 0.0
H1758 H 0.32881 0.9157 0.10667 0.0
H1759 H 0.33236 0.89243 0.11616 0.0
C1760 C 0.2831 0.94777 0.1332 0.0
C1761 C 0.2722 0.93156 0.13017 0.0
C1762 C 0.30234 0.94624 0.137 0.0
C1763 C 0.31094 0.92848 0.13797 0.0
C1764 C 0.2999 0.91232 0.13546 0.0
H1765 H 0.3845 0.8823 0.21134 0.0
H1766 H 0.36102 0.89824 0.19251 0.0
C1767 C 0.28082 0.91384 0.13137 0.0
C1768 C 0.33098 0.9265 0.14338 0.0
H1769 H 0.36929 0.89878 0.13528 0.0
C1770 C 0.33705 0.93511 0.16003 0.0
C1771 C 0.34345 0.91448 0.13354 0.0
C1772 C 0.33877 0.90655 0.11445 0.0
C1773 C 0.35435 0.93038 0.16815 0.0
C1774 C 0.36551 0.91626 0.1597 0.0
C1775 C 0.36047 0.90924 0.14201 0.0
C1776 C 0.38033 0.90646 0.1705 0.0
C1777 C 0.36003 0.93986 0.18624 0.0
C1778 C 0.39888 0.90488 0.16387 0.0
C1779 C 0.41247 0.89541 0.17461 0.0
C1780 C 0.40753 0.88744 0.19199 0.0
C1781 C 0.38882 0.88854 0.19814 0.0
C1782 C 0.37538 0.89781 0.18746 0.0
H1783 H 0.35463 0.9545 0.18678 0.0
H1784 H 0.35382 0.93212 0.19827 0.0
H1785 H 0.37554 0.94014 0.18795 0.0
H1786 H 0.40287 0.9112 0.15061 0.0
H1787 H 0.42681 0.89472 0.16957 0.0
H1788 H 0.57054 0.60355 0.17207 0.0
H1789 H 0.59412 0.5859 0.15364 0.0
H1790 H 0.63821 0.60916 0.18811 0.0
H1791 H 0.61512 0.62643 0.20636 0.0
H1792 H 0.62857 0.59881 0.13392 0.0
H1793 H 0.644 0.55108 0.19305 0.0
H1794 H 0.62239 0.56435 0.19142 0.0
H1795 H 0.64337 0.57513 0.20062 0.0
C1796 C 0.58531 0.60505 0.17542 0.0
C1797 C 0.59106 0.61616 0.19071 0.0
C1798 C 0.59869 0.59491 0.16502 0.0
C1799 C 0.61779 0.59589 0.16992 0.0
C1800 C 0.62348 0.60785 0.18445 0.0
H1801 H 0.7251 0.59754 0.13078 0.0
H1802 H 0.69171 0.6003 0.13741 0.0
C1803 C 0.61028 0.61779 0.19479 0.0
C1804 C 0.63232 0.58459 0.16035 0.0
H1805 H 0.67015 0.55762 0.17188 0.0
C1806 C 0.63739 0.5893 0.14193 0.0
C1807 C 0.64351 0.57179 0.17064 0.0
C1808 C 0.63791 0.56513 0.18997 0.0
C1809 C 0.65454 0.58319 0.13434 0.0
C1810 C 0.667 0.5726 0.14573 0.0
C1811 C 0.66085 0.5661 0.16328 0.0
C1812 C 0.68715 0.57041 0.14094 0.0
C1813 C 0.65948 0.58882 0.11452 0.0
C1814 C 0.69598 0.55277 0.1417 0.0
C1815 C 0.71529 0.55118 0.13833 0.0
C1816 C 0.72607 0.56722 0.13414 0.0
C1817 C 0.71721 0.58487 0.13377 0.0
C1818 C 0.69802 0.58645 0.13729 0.0
H1819 H 0.64665 0.58961 0.10565 0.0
H1820 H 0.66595 0.60301 0.11466 0.0
H1821 H 0.6695 0.57878 0.10801 0.0
H1822 H 0.68791 0.54024 0.14484 0.0
H1823 H 0.72168 0.53737 0.13865 0.0
H1824 H 0.32618 0.43087 0.08808 0.0
H1825 H 0.34369 0.40504 0.07312 0.0
H1826 H 0.34308 0.37448 0.12545 0.0
H1827 H 0.32527 0.39994 0.14017 0.0
H1828 H 0.37891 0.37267 0.09942 0.0
H1829 H 0.30917 0.35496 0.06815 0.0
H1830 H 0.31833 0.37851 0.06626 0.0
H1831 H 0.31083 0.36979 0.08866 0.0
C1832 C 0.33052 0.41896 0.0965 0.0
C1833 C 0.32465 0.4173 0.11525 0.0
C1834 C 0.3404 0.40423 0.08796 0.0
C1835 C 0.34455 0.38791 0.09822 0.0
C1836 C 0.34008 0.38705 0.11738 0.0
H1837 H 0.37399 0.27559 0.10535 0.0
H1838 H 0.36935 0.30939 0.10712 0.0
C1839 C 0.33001 0.40158 0.12579 0.0
C1840 C 0.3507 0.37051 0.08879 0.0
H1841 H 0.33216 0.33143 0.06813 0.0
C1842 C 0.36889 0.36379 0.09214 0.0
C1843 C 0.33757 0.35908 0.0792 0.0
C1844 C 0.31784 0.36581 0.0753 0.0
C1845 C 0.37399 0.34543 0.08707 0.0
C1846 C 0.36031 0.3334 0.07905 0.0
C1847 C 0.34257 0.34062 0.07442 0.0
C1848 C 0.36332 0.31286 0.07751 0.0
C1849 C 0.39381 0.33895 0.09088 0.0
C1850 C 0.36052 0.30338 0.06043 0.0
C1851 C 0.36285 0.28386 0.05941 0.0
C1852 C 0.36798 0.27354 0.07549 0.0
C1853 C 0.37026 0.28309 0.09264 0.0
C1854 C 0.36783 0.30248 0.09364 0.0
H1855 H 0.40384 0.35089 0.09012 0.0
H1856 H 0.3946 0.33305 0.10529 0.0
H1857 H 0.39829 0.32796 0.08075 0.0
H1858 H 0.35671 0.3111 0.04788 0.0
H1859 H 0.36099 0.27694 0.04598 0.0
H1860 H 0.36744 0.72062 0.45346 0.0
H1861 H 0.36178 0.68672 0.45116 0.0
H1862 H 0.35734 0.69168 0.39087 0.0
H1863 H 0.3639 0.7252 0.39303 0.0
H1864 H 0.33355 0.66799 0.44041 0.0
H1865 H 0.3907 0.64739 0.39299 0.0
H1866 H 0.39013 0.67022 0.40404 0.0
H1867 H 0.37812 0.6662 0.38204 0.0
C1868 C 0.36527 0.71441 0.43973 0.0
C1869 C 0.36617 0.7255 0.42341 0.0
C1870 C 0.3622 0.69504 0.43842 0.0
C1871 C 0.35978 0.68648 0.42078 0.0
C1872 C 0.36004 0.69772 0.40456 0.0
H1873 H 0.28447 0.61241 0.38201 0.0
H1874 H 0.30474 0.63562 0.3964 0.0
C1875 C 0.36347 0.71697 0.40583 0.0
C1876 C 0.35517 0.66619 0.41922 0.0
H1877 H 0.36145 0.6286 0.39008 0.0
C1878 C 0.34007 0.6592 0.4298 0.0
C1879 C 0.36403 0.65429 0.40592 0.0
C1880 C 0.3818 0.6599 0.39582 0.0
C1881 C 0.33224 0.64159 0.42584 0.0
C1882 C 0.33928 0.63105 0.41054 0.0
C1883 C 0.35574 0.63695 0.40149 0.0
C1884 C 0.32768 0.61632 0.40159 0.0
C1885 C 0.31572 0.63497 0.43736 0.0
C1886 C 0.33424 0.59789 0.3988 0.0
C1887 C 0.3226 0.58443 0.39024 0.0
C1888 C 0.3044 0.58941 0.38438 0.0
C1889 C 0.2983 0.60804 0.38664 0.0
C1890 C 0.30983 0.62133 0.39501 0.0
H1891 H 0.31681 0.64006 0.45208 0.0
H1892 H 0.30257 0.6408 0.43133 0.0
H1893 H 0.31469 0.61939 0.43747 0.0
H1894 H 0.34815 0.59388 0.4035 0.0
H1895 H 0.32762 0.57015 0.38861 0.0
H1896 H 0.69312 0.89301 0.36428 0.0
H1897 H 0.67525 0.86804 0.37959 0.0
H1898 H 0.65824 0.90662 0.42311 0.0
H1899 H 0.67591 0.93205 0.40736 0.0
H1900 H 0.68421 0.86527 0.42736 0.0
H1901 H 0.61229 0.86574 0.39683 0.0
H1902 H 0.6315 0.87219 0.38161 0.0
H1903 H 0.62553 0.88705 0.40107 0.0
C1904 C 0.68503 0.89632 0.37675 0.0
C1905 C 0.68564 0.91436 0.3846 0.0
C1906 C 0.6749 0.88208 0.38549 0.0
C1907 C 0.6655 0.88557 0.40241 0.0
C1908 C 0.66532 0.90381 0.40994 0.0
H1909 H 0.64147 0.77694 0.4581 0.0
H1910 H 0.64684 0.81094 0.45621 0.0
C1911 C 0.67526 0.91827 0.40092 0.0
C1912 C 0.65803 0.86933 0.41284 0.0
H1913 H 0.62304 0.83685 0.40994 0.0
C1914 C 0.6706 0.85921 0.42416 0.0
C1915 C 0.64036 0.86161 0.40841 0.0
C1916 C 0.62651 0.87219 0.39639 0.0
C1917 C 0.66662 0.84072 0.42975 0.0
C1918 C 0.64945 0.83242 0.42411 0.0
C1919 C 0.63623 0.84322 0.41417 0.0
C1920 C 0.64613 0.81194 0.42582 0.0
C1921 C 0.68146 0.82973 0.44019 0.0
C1922 C 0.64387 0.80129 0.4094 0.0
C1923 C 0.64066 0.78201 0.41042 0.0
C1924 C 0.63973 0.7729 0.42792 0.0
C1925 C 0.64235 0.78351 0.4444 0.0
C1926 C 0.64538 0.80294 0.44336 0.0
H1927 H 0.69509 0.83733 0.4408 0.0
H1928 H 0.67668 0.8272 0.45481 0.0
H1929 H 0.6838 0.81587 0.43342 0.0
H1930 H 0.64456 0.80793 0.39572 0.0
H1931 H 0.63875 0.77426 0.39746 0.0
H1932 H 0.12657 0.72905 0.60736 0.0
H1933 H 0.13315 0.69563 0.61105 0.0
H1934 H 0.142 0.69059 0.5513 0.0
H1935 H 0.13598 0.72426 0.54753 0.0
H1936 H 0.11459 0.66556 0.59642 0.0
H1937 H 0.18884 0.66626 0.57192 0.0
H1938 H 0.1761 0.68754 0.57713 0.0
H1939 H 0.1721 0.67534 0.55537 0.0
C1940 C 0.1301 0.7209 0.59501 0.0
C1941 C 0.13086 0.72934 0.57716 0.0
C1942 C 0.13376 0.70177 0.59713 0.0
C1943 C 0.13817 0.69064 0.58148 0.0
C1944 C 0.13897 0.69899 0.56362 0.0
H1945 H 0.1781 0.57486 0.58636 0.0
H1946 H 0.16024 0.60154 0.57379 0.0
C1947 C 0.13553 0.71822 0.56149 0.0
C1948 C 0.14186 0.67032 0.5841 0.0
H1949 H 0.17626 0.63711 0.58084 0.0
C1950 C 0.12802 0.65928 0.59285 0.0
C1951 C 0.15934 0.66214 0.57933 0.0
C1952 C 0.17503 0.67342 0.57057 0.0
C1953 C 0.13144 0.64044 0.59757 0.0
C1954 C 0.14913 0.63251 0.59343 0.0
C1955 C 0.16263 0.64325 0.58385 0.0
C1956 C 0.15506 0.61409 0.60099 0.0
C1957 C 0.11628 0.62928 0.6073 0.0
C1958 C 0.15739 0.61198 0.62047 0.0
C1959 C 0.16767 0.59687 0.62759 0.0
C1960 C 0.17557 0.58364 0.61535 0.0
C1961 C 0.17191 0.58484 0.59603 0.0
C1962 C 0.16175 0.60005 0.58886 0.0
H1963 H 0.10211 0.63518 0.60441 0.0
H1964 H 0.11656 0.61433 0.60283 0.0
H1965 H 0.11865 0.62979 0.6227 0.0
H1966 H 0.15271 0.62286 0.63003 0.0
H1967 H 0.17076 0.59639 0.6425 0.0
H1968 H 0.8991 0.60872 0.72187 0.0
H1969 H 0.89642 0.61583 0.68854 0.0
H1970 H 0.95072 0.64276 0.68967 0.0
H1971 H 0.95336 0.63612 0.72329 0.0
H1972 H 0.92509 0.66414 0.67303 0.0
H1973 H 0.92023 0.59273 0.64286 0.0
H1974 H 0.90313 0.59625 0.66102 0.0
H1975 H 0.92779 0.59692 0.66672 0.0
C1976 C 0.91059 0.61603 0.71505 0.0
C1977 C 0.92646 0.62186 0.7253 0.0
C1978 C 0.90911 0.61988 0.6959 0.0
C1979 C 0.92358 0.62938 0.68649 0.0
C1980 C 0.93948 0.63519 0.69662 0.0
H1981 H 0.92104 0.68091 0.5754 0.0
H1982 H 0.9332 0.66185 0.6014 0.0
C1983 C 0.94092 0.63147 0.71586 0.0
C1984 C 0.92118 0.63483 0.66655 0.0
H1985 H 0.90847 0.61805 0.62337 0.0
C1986 C 0.92185 0.65402 0.66209 0.0
C1987 C 0.91694 0.6216 0.65229 0.0
C1988 C 0.91717 0.60072 0.65593 0.0
C1989 C 0.91747 0.66043 0.64402 0.0
C1990 C 0.91242 0.64728 0.63001 0.0
C1991 C 0.91234 0.62804 0.6342 0.0
C1992 C 0.90571 0.65375 0.61151 0.0
C1993 C 0.91742 0.68132 0.64024 0.0
C1994 C 0.88632 0.6545 0.60805 0.0
C1995 C 0.87939 0.66537 0.59325 0.0
C1996 C 0.89182 0.67542 0.58175 0.0
C1997 C 0.91125 0.67316 0.58409 0.0
C1998 C 0.91819 0.66231 0.59889 0.0
H1999 H 0.91943 0.68971 0.65325 0.0
H2000 H 0.92895 0.68481 0.63034 0.0
H2001 H 0.90397 0.6856 0.63358 0.0
H2002 H 0.8765 0.64806 0.61775 0.0
H2003 H 0.86434 0.66726 0.59184 0.0
H2004 H 0.04352 0.86029 0.71709 0.0
H2005 H 0.04186 0.85687 0.68279 0.0
H2006 H 0.10189 0.86447 0.67916 0.0
H2007 H 0.10366 0.86817 0.71306 0.0
H2008 H 0.08143 0.88667 0.65347 0.0
H2009 H 0.05942 0.8114 0.65189 0.0
H2010 H 0.04525 0.82766 0.66508 0.0
H2011 H 0.06857 0.82217 0.67294 0.0
C2012 C 0.05637 0.86101 0.70897 0.0
C2013 C 0.07372 0.86449 0.71781 0.0
C2014 C 0.05538 0.85911 0.6894 0.0
C2015 C 0.07176 0.86045 0.67847 0.0
C2016 C 0.08906 0.86357 0.68733 0.0
H2017 H 0.13391 0.83579 0.58856 0.0
H2018 H 0.11734 0.85349 0.6128 0.0
C2019 C 0.09005 0.86559 0.70675 0.0
C2020 C 0.07141 0.8584 0.65779 0.0
H2021 H 0.06938 0.82485 0.6237 0.0
C2022 C 0.07836 0.87328 0.64684 0.0
C2023 C 0.06715 0.84103 0.64915 0.0
C2024 C 0.05976 0.82456 0.66029 0.0
C2025 C 0.08267 0.87075 0.62778 0.0
C2026 C 0.08006 0.85288 0.61959 0.0
C2027 C 0.07139 0.83856 0.63006 0.0
C2028 C 0.08955 0.84746 0.60191 0.0
C2029 C 0.09094 0.88691 0.61686 0.0
C2030 C 0.07948 0.83883 0.58731 0.0
C2031 C 0.08904 0.82891 0.57327 0.0
C2032 C 0.10868 0.82735 0.57392 0.0
C2033 C 0.11877 0.83723 0.5876 0.0
C2034 C 0.10928 0.84733 0.60145 0.0
H2035 H 0.0858 0.9006 0.62235 0.0
H2036 H 0.10646 0.8867 0.61839 0.0
H2037 H 0.08745 0.88589 0.60169 0.0
H2038 H 0.06426 0.83859 0.58755 0.0
H2039 H 0.08101 0.82113 0.56295 0.0
H2040 H 0.92988 0.40775 0.79297 0.0
H2041 H 0.9283 0.40064 0.8265 0.0
H2042 H 0.94305 0.34295 0.81486 0.0
H2043 H 0.94537 0.3502 0.7814 0.0
H2044 H 0.90295 0.37855 0.83987 0.0
H2045 H 0.97113 0.35011 0.86264 0.0
H2046 H 0.96856 0.36311 0.84099 0.0
H2047 H 0.96378 0.33821 0.84173 0.0
C2048 C 0.93329 0.39366 0.79765 0.0
C2049 C 0.93757 0.37945 0.7846 0.0
C2050 C 0.93244 0.38964 0.81681 0.0
C2051 C 0.93569 0.3713 0.82328 0.0
C2052 C 0.94099 0.35733 0.81034 0.0
H2053 H 0.89314 0.29066 0.88912 0.0
H2054 H 0.90977 0.31295 0.86945 0.0
C2055 C 0.94216 0.36143 0.79116 0.0
C2056 C 0.93041 0.36602 0.84274 0.0
H2057 H 0.94328 0.33718 0.87879 0.0
C2058 C 0.91201 0.37006 0.84871 0.0
C2059 C 0.94224 0.3551 0.8544 0.0
C2060 C 0.96259 0.35159 0.84965 0.0
C2061 C 0.90455 0.3619 0.865 0.0
C2062 C 0.91579 0.34943 0.87555 0.0
C2063 C 0.93468 0.34672 0.87057 0.0
C2064 C 0.90712 0.33614 0.88889 0.0
C2065 C 0.88419 0.36528 0.86989 0.0
C2066 C 0.90014 0.34185 0.90645 0.0
C2067 C 0.89054 0.32899 0.91791 0.0
C2068 C 0.88777 0.3104 0.91181 0.0
C2069 C 0.89502 0.30484 0.89431 0.0
C2070 C 0.90464 0.31754 0.88304 0.0
H2071 H 0.87728 0.37521 0.86002 0.0
H2072 H 0.87638 0.35177 0.86968 0.0
H2073 H 0.88316 0.37112 0.88431 0.0
H2074 H 0.90192 0.35622 0.91114 0.0
H2075 H 0.88514 0.33362 0.93137 0.0
H2076 H 0.10523 0.1286 0.77435 0.0
H2077 H 0.10684 0.13414 0.80799 0.0
H2078 H 0.04625 0.13454 0.81105 0.0
H2079 H 0.04458 0.12988 0.77696 0.0
H2080 H 0.05842 0.16202 0.8297 0.0
H2081 H 0.10111 0.10229 0.85284 0.0
H2082 H 0.11362 0.11347 0.83413 0.0
H2083 H 0.09087 0.10308 0.82964 0.0
C2084 C 0.09223 0.12971 0.78219 0.0
C2085 C 0.07478 0.12883 0.77302 0.0
C2086 C 0.09316 0.13259 0.80153 0.0
C2087 C 0.07667 0.13412 0.81226 0.0
C2088 C 0.05917 0.13315 0.80313 0.0
H2089 H 0.10883 0.16697 0.92825 0.0
H2090 H 0.09369 0.14673 0.90444 0.0
C2091 C 0.05823 0.13062 0.78365 0.0
C2092 C 0.07802 0.13902 0.83249 0.0
H2093 H 0.10623 0.13203 0.87066 0.0
C2094 C 0.06844 0.15505 0.83884 0.0
C2095 C 0.09052 0.12967 0.84487 0.0
C2096 C 0.09938 0.11104 0.84003 0.0
C2097 C 0.07273 0.1632 0.85622 0.0
C2098 C 0.08744 0.15552 0.86717 0.0
C2099 C 0.09536 0.13825 0.86196 0.0
C2100 C 0.09681 0.16687 0.88184 0.0
C2101 C 0.0622 0.18062 0.86216 0.0
C2102 C 0.10421 0.1844 0.87679 0.0
C2103 C 0.11266 0.1958 0.89016 0.0
C2104 C 0.11426 0.18982 0.90887 0.0
C2105 C 0.10774 0.17186 0.91388 0.0
C2106 C 0.09903 0.16039 0.90038 0.0
H2107 H 0.04747 0.18023 0.85699 0.0
H2108 H 0.06205 0.18222 0.87768 0.0
H2109 H 0.06904 0.19316 0.8559 0.0
H2110 H 0.10331 0.18938 0.86243 0.0
H2111 H 0.11781 0.20946 0.88583 0.0
H2112 H 0.55801 0.91879 0.67753 0.0
H2113 H 0.5812 0.93681 0.65931 0.0
H2114 H 0.60928 0.8852 0.64436 0.0
H2115 H 0.58664 0.86739 0.66306 0.0
H2116 H 0.61996 0.93209 0.6718 0.0
H2117 H 0.61224 0.91828 0.59573 0.0
H2118 H 0.59276 0.91697 0.61203 0.0
H2119 H 0.60896 0.89767 0.60995 0.0
C2120 C 0.5687 0.91133 0.66967 0.0
C2121 C 0.57059 0.89178 0.67145 0.0
C2122 C 0.58191 0.9216 0.65933 0.0
C2123 C 0.59681 0.9123 0.65036 0.0
C2124 C 0.59766 0.8926 0.65086 0.0
H2125 H 0.70488 0.90171 0.61787 0.0
H2126 H 0.67132 0.90327 0.62374 0.0
C2127 C 0.58475 0.88242 0.6615 0.0
C2128 C 0.6135 0.92275 0.64379 0.0
H2129 H 0.64389 0.92419 0.60687 0.0
C2130 C 0.62505 0.931 0.65748 0.0
C2131 C 0.61996 0.92128 0.62512 0.0
C2132 C 0.60775 0.91322 0.60981 0.0
C2133 C 0.64374 0.93585 0.65345 0.0
C2134 C 0.65077 0.93279 0.6351 0.0
C2135 C 0.63853 0.92638 0.62098 0.0
C2136 C 0.6712 0.93279 0.63111 0.0
C2137 C 0.65622 0.94252 0.66925 0.0
C2138 C 0.68239 0.94889 0.6334 0.0
C2139 C 0.70183 0.94797 0.63033 0.0
C2140 C 0.71024 0.931 0.62461 0.0
C2141 C 0.69889 0.91503 0.62217 0.0
C2142 C 0.67964 0.91591 0.62544 0.0
H2143 H 0.64921 0.94151 0.68316 0.0
H2144 H 0.66939 0.93416 0.66973 0.0
H2145 H 0.66007 0.95744 0.66686 0.0
H2146 H 0.67612 0.96213 0.6375 0.0
H2147 H 0.71019 0.96056 0.63212 0.0
H2148 H 0.42569 0.62311 0.66841 0.0
H2149 H 0.40143 0.61204 0.64633 0.0
H2150 H 0.37025 0.58827 0.69251 0.0
H2151 H 0.39402 0.59922 0.71442 0.0
H2152 H 0.37304 0.56496 0.65781 0.0
H2153 H 0.3482 0.63861 0.64722 0.0
H2154 H 0.37268 0.63326 0.64361 0.0
H2155 H 0.36299 0.63233 0.66685 0.0
C2156 C 0.41377 0.6153 0.67375 0.0
C2157 C 0.41167 0.61218 0.69314 0.0
C2158 C 0.39997 0.60901 0.66117 0.0
C2159 C 0.38407 0.59943 0.66787 0.0
C2160 C 0.38246 0.59558 0.68709 0.0
H2161 H 0.27414 0.55974 0.65085 0.0
H2162 H 0.30733 0.56397 0.65853 0.0
C2163 C 0.39605 0.60196 0.6996 0.0
C2164 C 0.36807 0.59472 0.65552 0.0
H2165 H 0.3286 0.61442 0.63691 0.0
C2166 C 0.36347 0.57574 0.65283 0.0
C2167 C 0.35571 0.60884 0.64906 0.0
C2168 C 0.35998 0.62944 0.65181 0.0
C2169 C 0.34636 0.57048 0.64454 0.0
C2170 C 0.33336 0.5846 0.63934 0.0
C2171 C 0.33852 0.60359 0.64101 0.0
C2172 C 0.31381 0.58023 0.63361 0.0
C2173 C 0.34228 0.54986 0.64177 0.0
C2174 C 0.3063 0.58819 0.61722 0.0
C2175 C 0.28725 0.58615 0.61303 0.0
C2176 C 0.27533 0.57601 0.62511 0.0
C2177 C 0.28298 0.56753 0.64121 0.0
C2178 C 0.30201 0.56979 0.64552 0.0
H2179 H 0.35548 0.54174 0.63982 0.0
H2180 H 0.33517 0.54429 0.65448 0.0
H2181 H 0.33304 0.54746 0.62944 0.0
H2182 H 0.31511 0.59638 0.60788 0.0
H2183 H 0.28184 0.59272 0.60042 0.0
H2184 H 0.71944 0.09915 0.8809 0.0
H2185 H 0.68658 0.10306 0.87269 0.0
H2186 H 0.68365 0.04497 0.85555 0.0
H2187 H 0.71699 0.04102 0.86328 0.0
H2188 H 0.66876 0.06632 0.83002 0.0
H2189 H 0.63852 0.08874 0.89745 0.0
H2190 H 0.65842 0.10325 0.89231 0.0
H2191 H 0.66162 0.07833 0.89587 0.0
C2192 C 0.71183 0.08709 0.87557 0.0
C2193 C 0.7209 0.06975 0.87276 0.0
C2194 C 0.6929 0.0893 0.87111 0.0
C2195 C 0.68243 0.07417 0.86405 0.0
C2196 C 0.69138 0.05678 0.86126 0.0
H2197 H 0.56708 0.10619 0.8278 0.0
H2198 H 0.59106 0.08934 0.84641 0.0
C2199 C 0.71045 0.05458 0.86557 0.0
C2200 C 0.66287 0.07739 0.8576 0.0
H2201 H 0.62296 0.10147 0.86916 0.0
C2202 C 0.65856 0.07351 0.83877 0.0
C2203 C 0.64926 0.08636 0.86905 0.0
C2204 C 0.65216 0.08918 0.88985 0.0
C2205 C 0.64187 0.08002 0.83064 0.0
C2206 C 0.62943 0.09109 0.84149 0.0
C2207 C 0.63276 0.09336 0.86076 0.0
C2208 C 0.61464 0.10246 0.83235 0.0
C2209 C 0.63816 0.0758 0.81019 0.0
C2210 C 0.62003 0.11597 0.81909 0.0
C2211 C 0.60656 0.1254 0.80857 0.0
C2212 C 0.58739 0.12178 0.81133 0.0
C2213 C 0.58182 0.10929 0.82557 0.0
C2214 C 0.59545 0.0996 0.83606 0.0
H2215 H 0.64506 0.06249 0.80583 0.0
H2216 H 0.62286 0.07473 0.8073 0.0
H2217 H 0.64404 0.08729 0.80144 0.0
H2218 H 0.63476 0.11871 0.81637 0.0
H2219 H 0.61117 0.13507 0.79775 0.0
H2220 H 0.2724 0.43884 0.84455 0.0
H2221 H 0.30547 0.43442 0.83609 0.0
H2222 H 0.31341 0.3993 0.88485 0.0
H2223 H 0.28034 0.40313 0.89307 0.0
H2224 H 0.33873 0.44187 0.85444 0.0
H2225 H 0.33041 0.36497 0.84305 0.0
H2226 H 0.31058 0.38043 0.84613 0.0
H2227 H 0.3241 0.37292 0.86612 0.0
C2228 C 0.28121 0.43021 0.85348 0.0
C2229 C 0.27368 0.42107 0.86929 0.0
C2230 C 0.30009 0.42773 0.84867 0.0
C2231 C 0.31178 0.41622 0.85965 0.0
C2232 C 0.30451 0.40782 0.87591 0.0
H2233 H 0.42472 0.37723 0.82707 0.0
H2234 H 0.3989 0.38632 0.84824 0.0
C2235 C 0.28561 0.41006 0.88058 0.0
C2236 C 0.33136 0.41251 0.85365 0.0
H2237 H 0.36054 0.3776 0.83843 0.0
C2238 C 0.34356 0.4278 0.8511 0.0
C2239 C 0.33767 0.39411 0.84942 0.0
C2240 C 0.32499 0.37717 0.85115 0.0
C2241 C 0.36172 0.42524 0.84385 0.0
C2242 C 0.36772 0.40696 0.83897 0.0
C2243 C 0.3559 0.39158 0.84238 0.0
C2244 C 0.38481 0.40371 0.82765 0.0
C2245 C 0.37417 0.44215 0.84102 0.0
C2246 C 0.3854 0.41057 0.80922 0.0
C2247 C 0.39983 0.40523 0.79715 0.0
C2248 C 0.41405 0.39299 0.8033 0.0
C2249 C 0.41397 0.38676 0.82203 0.0
C2250 C 0.39929 0.39193 0.83409 0.0
H2251 H 0.37013 0.45387 0.8505 0.0
H2252 H 0.38916 0.43857 0.84349 0.0
H2253 H 0.37272 0.44716 0.82632 0.0
H2254 H 0.37418 0.41936 0.80386 0.0
H2255 H 0.3995 0.41029 0.78282 0.0
H2256 H 0.63976 0.7229 0.95281 0.0
H2257 H 0.64733 0.6893 0.95138 0.0
H2258 H 0.61881 0.68509 0.89808 0.0
H2259 H 0.61087 0.71825 0.89949 0.0
H2260 H 0.61186 0.65435 0.92149 0.0
H2261 H 0.68831 0.67071 0.91574 0.0
H2262 H 0.67635 0.67914 0.93632 0.0
H2263 H 0.67056 0.68866 0.91368 0.0
C2264 C 0.635 0.71479 0.94085 0.0
C2265 C 0.62492 0.72338 0.92615 0.0
C2266 C 0.63933 0.6956 0.94007 0.0
C2267 C 0.63378 0.68478 0.92453 0.0
C2268 C 0.62318 0.69318 0.91023 0.0
H2269 H 0.67685 0.60299 0.85651 0.0
H2270 H 0.65966 0.6279 0.87274 0.0
C2271 C 0.61879 0.71223 0.91101 0.0
C2272 C 0.64016 0.66514 0.92202 0.0
H2273 H 0.67903 0.63977 0.91009 0.0
C2274 C 0.62659 0.651 0.91943 0.0
C2275 C 0.65938 0.66089 0.91923 0.0
C2276 C 0.67454 0.67561 0.92125 0.0
C2277 C 0.63168 0.63302 0.91305 0.0
C2278 C 0.65074 0.62921 0.90928 0.0
C2279 C 0.6644 0.64288 0.91307 0.0
C2280 C 0.65673 0.61241 0.89872 0.0
C2281 C 0.61668 0.61859 0.90917 0.0
C2282 C 0.65995 0.59518 0.90777 0.0
C2283 C 0.66949 0.58075 0.89833 0.0
C2284 C 0.67598 0.58364 0.87993 0.0
C2285 C 0.67164 0.60041 0.87059 0.0
C2286 C 0.66195 0.61463 0.87987 0.0
H2287 H 0.60252 0.62345 0.91361 0.0
H2288 H 0.61635 0.6154 0.8939 0.0
H2289 H 0.62006 0.60532 0.91666 0.0
H2290 H 0.6562 0.59336 0.92241 0.0
H2291 H 0.67318 0.56806 0.9059 0.0
H2292 H 0.64041 0.27585 0.54674 0.0
H2293 H 0.64642 0.30963 0.54917 0.0
H2294 H 0.63299 0.30791 0.60823 0.0
H2295 H 0.62658 0.27433 0.60592 0.0
H2296 H 0.61582 0.33766 0.58962 0.0
H2297 H 0.69219 0.33393 0.57325 0.0
H2298 H 0.67697 0.32375 0.5559 0.0
H2299 H 0.67851 0.31334 0.57885 0.0
C2300 C 0.63891 0.28261 0.56029 0.0
C2301 C 0.63309 0.27235 0.57616 0.0
C2302 C 0.64234 0.30192 0.56164 0.0
C2303 C 0.64026 0.31122 0.57891 0.0
C2304 C 0.6346 0.301 0.59476 0.0
H2305 H 0.6664 0.41243 0.63425 0.0
H2306 H 0.64933 0.38481 0.62289 0.0
C2307 C 0.63104 0.28177 0.59342 0.0
C2308 C 0.64412 0.33158 0.5807 0.0
H2309 H 0.67944 0.36384 0.57867 0.0
C2310 C 0.62969 0.34345 0.58708 0.0
C2311 C 0.6622 0.33907 0.57731 0.0
C2312 C 0.67843 0.32688 0.5711 0.0
C2313 C 0.63298 0.3626 0.59055 0.0
C2314 C 0.6512 0.36994 0.58772 0.0
C2315 C 0.66543 0.3582 0.58069 0.0
C2316 C 0.65659 0.38914 0.59365 0.0
C2317 C 0.61701 0.37473 0.59738 0.0
C2318 C 0.66575 0.40111 0.58093 0.0
C2319 C 0.67554 0.4168 0.58746 0.0
C2320 C 0.6762 0.42077 0.60674 0.0
C2321 C 0.66566 0.40983 0.61926 0.0
C2322 C 0.65593 0.39405 0.61276 0.0
H2323 H 0.60319 0.36892 0.59301 0.0
H2324 H 0.61727 0.37522 0.61296 0.0
H2325 H 0.61828 0.38933 0.592 0.0
H2326 H 0.6665 0.39753 0.56616 0.0
H2327 H 0.68373 0.42499 0.5776 0.0
H2328 H 0.32753 0.09192 0.63628 0.0
H2329 H 0.3457 0.11473 0.61811 0.0
H2330 H 0.33806 0.08124 0.56818 0.0
H2331 H 0.3202 0.05802 0.5866 0.0
H2332 H 0.37843 0.11202 0.5881 0.0
H2333 H 0.30711 0.13367 0.56362 0.0
H2334 H 0.30973 0.11995 0.58478 0.0
H2335 H 0.31439 0.10943 0.56238 0.0
C2336 C 0.33057 0.08898 0.62165 0.0
C2337 C 0.32277 0.07323 0.61281 0.0
C2338 C 0.34084 0.10202 0.61126 0.0
C2339 C 0.34308 0.09966 0.59183 0.0
C2340 C 0.33652 0.08319 0.5832 0.0
H2341 H 0.35947 0.21137 0.54103 0.0
H2342 H 0.35454 0.17717 0.54052 0.0
C2343 C 0.32645 0.06994 0.59371 0.0
C2344 C 0.34938 0.11597 0.58069 0.0
H2345 H 0.33119 0.15606 0.56175 0.0
C2346 C 0.36825 0.12144 0.58177 0.0
C2347 C 0.33608 0.1281 0.57225 0.0
C2348 C 0.31566 0.12263 0.5706 0.0
C2349 C 0.3739 0.13942 0.57599 0.0
C2350 C 0.36016 0.15236 0.56963 0.0
C2351 C 0.34166 0.14621 0.56681 0.0
C2352 C 0.36392 0.17283 0.56912 0.0
C2353 C 0.39436 0.14469 0.57763 0.0
C2354 C 0.37022 0.18175 0.58551 0.0
C2355 C 0.37297 0.20109 0.58588 0.0
C2356 C 0.36926 0.21213 0.56991 0.0
C2357 C 0.36248 0.20328 0.55357 0.0
C2358 C 0.35978 0.18375 0.5532 0.0
H2359 H 0.40349 0.13228 0.57514 0.0
H2360 H 0.39823 0.15593 0.56752 0.0
H2361 H 0.39721 0.14978 0.5921 0.0
H2362 H 0.37278 0.17374 0.5982 0.0
H2363 H 0.37796 0.20738 0.59881 0.0
H2364 H 0.83 0.41894 0.36477 0.0
H2365 H 0.84785 0.39102 0.37445 0.0
H2366 H 0.827 0.39731 0.43099 0.0
H2367 H 0.80892 0.42484 0.42126 0.0
H2368 H 0.87385 0.37924 0.40512 0.0
H2369 H 0.80188 0.3489 0.40947 0.0
H2370 H 0.80658 0.3712 0.39837 0.0
H2371 H 0.80588 0.36948 0.42354 0.0
C2372 C 0.82997 0.41482 0.37943 0.0
C2373 C 0.81813 0.42389 0.39231 0.0
C2374 C 0.84006 0.39885 0.38492 0.0
C2375 C 0.8384 0.39197 0.40333 0.0
C2376 C 0.82824 0.40232 0.41666 0.0
H2377 H 0.85603 0.27915 0.44742 0.0
H2378 H 0.84867 0.31258 0.44421 0.0
C2379 C 0.81799 0.41807 0.41112 0.0
C2380 C 0.84447 0.37261 0.40775 0.0
H2381 H 0.827 0.32893 0.41706 0.0
C2382 C 0.86367 0.36822 0.40782 0.0
C2383 C 0.83107 0.35831 0.41117 0.0
C2384 C 0.81018 0.36208 0.41051 0.0
C2385 C 0.86985 0.3498 0.41138 0.0
C2386 C 0.85641 0.33547 0.41457 0.0
C2387 C 0.83725 0.33997 0.41471 0.0
C2388 C 0.86175 0.31551 0.41692 0.0
C2389 C 0.89068 0.34589 0.41187 0.0
C2390 C 0.8712 0.30604 0.40247 0.0
C2391 C 0.87539 0.28697 0.40422 0.0
C2392 C 0.87005 0.27692 0.42041 0.0
C2393 C 0.86034 0.28642 0.43476 0.0
C2394 C 0.8562 0.30554 0.43301 0.0
H2395 H 0.89887 0.35885 0.41482 0.0
H2396 H 0.89416 0.33517 0.42267 0.0
H2397 H 0.89519 0.34045 0.39797 0.0
H2398 H 0.8751 0.31333 0.3897 0.0
H2399 H 0.88279 0.28012 0.39282 0.0
H2400 H 0.60575 0.87069 0.76883 0.0
H2401 H 0.60964 0.86372 0.80213 0.0
H2402 H 0.54975 0.85623 0.80776 0.0
H2403 H 0.54574 0.86272 0.77422 0.0
H2404 H 0.59546 0.8827 0.83236 0.0
H2405 H 0.56982 0.80883 0.83183 0.0
H2406 H 0.5752 0.82145 0.81053 0.0
H2407 H 0.55356 0.82586 0.82279 0.0
C2408 C 0.59339 0.86738 0.77707 0.0
C2409 C 0.57543 0.86718 0.76883 0.0
C2410 C 0.59564 0.86348 0.79614 0.0
C2411 C 0.58001 0.85936 0.8074 0.0
C2412 C 0.56205 0.85905 0.79925 0.0
H2413 H 0.58516 0.82071 0.92389 0.0
H2414 H 0.57263 0.83786 0.89669 0.0
C2415 C 0.55978 0.86276 0.78008 0.0
C2416 C 0.58275 0.8556 0.82768 0.0
H2417 H 0.57926 0.82124 0.86092 0.0
C2418 C 0.59176 0.86932 0.83866 0.0
C2419 C 0.5778 0.83819 0.83589 0.0
C2420 C 0.5687 0.82265 0.82466 0.0
C2421 C 0.59655 0.86584 0.85746 0.0
C2422 C 0.59224 0.8482 0.86542 0.0
C2423 C 0.58242 0.83482 0.85475 0.0
C2424 C 0.59982 0.84224 0.88381 0.0
C2425 C 0.60653 0.88088 0.86856 0.0
C2426 C 0.61927 0.83961 0.88582 0.0
C2427 C 0.62636 0.82974 0.90121 0.0
C2428 C 0.61412 0.82257 0.91485 0.0
C2429 C 0.59483 0.82641 0.91362 0.0
C2430 C 0.58769 0.83613 0.89811 0.0
H2431 H 0.60393 0.89508 0.86259 0.0
H2432 H 0.60201 0.88076 0.88349 0.0
H2433 H 0.62189 0.87821 0.86811 0.0
H2434 H 0.62882 0.84386 0.87475 0.0
H2435 H 0.64123 0.82648 0.90171 0.0
H2436 H 0.40372 0.61985 0.79577 0.0
H2437 H 0.40564 0.62577 0.82928 0.0
H2438 H 0.46419 0.64052 0.82368 0.0
H2439 H 0.46226 0.63499 0.78963 0.0
H2440 H 0.42803 0.60859 0.85605 0.0
H2441 H 0.44246 0.68558 0.85163 0.0
H2442 H 0.4348 0.67234 0.83142 0.0
H2443 H 0.45838 0.66978 0.83999 0.0
C2444 C 0.41705 0.6244 0.80156 0.0
C2445 C 0.43285 0.62698 0.79 0.0
C2446 C 0.41813 0.6277 0.82078 0.0
C2447 C 0.43504 0.63356 0.82899 0.0
C2448 C 0.45094 0.63619 0.81758 0.0
H2449 H 0.41771 0.67851 0.94216 0.0
H2450 H 0.43722 0.66142 0.91932 0.0
C2451 C 0.44981 0.63305 0.79816 0.0
C2452 C 0.43527 0.63726 0.84946 0.0
H2453 H 0.43275 0.67362 0.88056 0.0
C2454 C 0.42958 0.62272 0.86156 0.0
C2455 C 0.43753 0.65565 0.85667 0.0
C2456 C 0.44355 0.67182 0.84433 0.0
C2457 C 0.42424 0.62645 0.88014 0.0
C2458 C 0.4247 0.64513 0.88674 0.0
C2459 C 0.43239 0.65929 0.87536 0.0
C2460 C 0.4136 0.65105 0.90324 0.0
C2461 C 0.41689 0.61065 0.89217 0.0
C2462 C 0.39392 0.65039 0.90201 0.0
C2463 C 0.38288 0.66039 0.91472 0.0
C2464 C 0.39135 0.67085 0.92906 0.0
C2465 C 0.41093 0.67023 0.93134 0.0
C2466 C 0.42206 0.66054 0.91832 0.0
H2467 H 0.42286 0.59691 0.88774 0.0
H2468 H 0.42023 0.61303 0.90723 0.0
H2469 H 0.40139 0.60986 0.89067 0.0
H2470 H 0.38714 0.64349 0.89025 0.0
H2471 H 0.36783 0.66107 0.91253 0.0
H2472 H 0.53957 0.14112 0.71371 0.0
H2473 H 0.53768 0.14477 0.67939 0.0
H2474 H 0.59533 0.12673 0.6744 0.0
H2475 H 0.5973 0.12284 0.70811 0.0
H2476 H 0.55808 0.16761 0.65687 0.0
H2477 H 0.57109 0.09482 0.63459 0.0
H2478 H 0.56405 0.10063 0.65829 0.0
H2479 H 0.58848 0.10144 0.65152 0.0
C2480 C 0.55179 0.13785 0.70524 0.0
C2481 C 0.56854 0.13156 0.71369 0.0
C2482 C 0.55064 0.13981 0.68566 0.0
C2483 C 0.56616 0.13538 0.67429 0.0
C2484 C 0.58293 0.12949 0.68278 0.0
H2485 H 0.63322 0.17057 0.59502 0.0
H2486 H 0.61422 0.15293 0.61752 0.0
C2487 C 0.58408 0.12749 0.70217 0.0
C2488 C 0.56598 0.13857 0.65373 0.0
H2489 H 0.58429 0.11948 0.61374 0.0
C2490 C 0.56304 0.15693 0.64719 0.0
C2491 C 0.57218 0.12456 0.64103 0.0
C2492 C 0.5739 0.10422 0.64673 0.0
C2493 C 0.56841 0.16213 0.62896 0.0
C2494 C 0.57693 0.14862 0.61714 0.0
C2495 C 0.5779 0.12983 0.62293 0.0
C2496 C 0.58865 0.1547 0.60117 0.0
C2497 C 0.56679 0.18245 0.62309 0.0
C2498 C 0.58069 0.16065 0.58414 0.0
C2499 C 0.59171 0.17039 0.57104 0.0
C2500 C 0.6106 0.17442 0.57511 0.0
C2501 C 0.61876 0.1673 0.59153 0.0
C2502 C 0.60791 0.15731 0.60437 0.0
H2503 H 0.55911 0.19105 0.63361 0.0
H2504 H 0.58104 0.1885 0.62115 0.0
H2505 H 0.55933 0.18344 0.60943 0.0
H2506 H 0.5658 0.15885 0.58156 0.0
H2507 H 0.5851 0.17617 0.55861 0.0
H2508 H 0.44812 0.35441 0.71079 0.0
H2509 H 0.44433 0.34579 0.67781 0.0
H2510 H 0.42893 0.40293 0.66446 0.0
H2511 H 0.43193 0.41141 0.69758 0.0
H2512 H 0.40307 0.38042 0.65313 0.0
H2513 H 0.4701 0.35075 0.6286 0.0
H2514 H 0.46365 0.33969 0.65024 0.0
H2515 H 0.46854 0.36458 0.64983 0.0
C2516 C 0.44447 0.36524 0.70072 0.0
C2517 C 0.44011 0.3835 0.70674 0.0
C2518 C 0.44246 0.36035 0.68181 0.0
C2519 C 0.43652 0.37376 0.66855 0.0
C2520 C 0.43354 0.39235 0.6744 0.0
H2521 H 0.38426 0.33278 0.56235 0.0
H2522 H 0.40105 0.35576 0.58216 0.0
C2523 C 0.43522 0.39716 0.69333 0.0
C2524 C 0.43035 0.36765 0.64959 0.0
H2525 H 0.44155 0.33736 0.61417 0.0
C2526 C 0.41172 0.37154 0.64426 0.0
C2527 C 0.44162 0.35619 0.6379 0.0
C2528 C 0.46215 0.35276 0.64188 0.0
C2529 C 0.40357 0.36285 0.62859 0.0
C2530 C 0.4143 0.34994 0.61807 0.0
C2531 C 0.43334 0.34723 0.6224 0.0
C2532 C 0.40506 0.33647 0.60531 0.0
C2533 C 0.38307 0.36622 0.62432 0.0
C2534 C 0.40179 0.31825 0.61191 0.0
C2535 C 0.39214 0.30534 0.60088 0.0
C2536 C 0.38568 0.31032 0.5829 0.0
C2537 C 0.38904 0.3286 0.57618 0.0
C2538 C 0.39867 0.34166 0.58739 0.0
H2539 H 0.37673 0.37692 0.63375 0.0
H2540 H 0.38149 0.37101 0.60957 0.0
H2541 H 0.37512 0.35288 0.62583 0.0
H2542 H 0.40647 0.31408 0.62579 0.0
H2543 H 0.38976 0.29141 0.60653 0.0
H2544 H 0.90868 0.63607 0.83176 0.0
H2545 H 0.88254 0.62253 0.84945 0.0
H2546 H 0.90339 0.5668 0.83773 0.0
H2547 H 0.92964 0.58044 0.82011 0.0
H2548 H 0.86841 0.57379 0.82303 0.0
H2549 H 0.86952 0.5946 0.8978 0.0
H2550 H 0.8744 0.61407 0.88255 0.0
H2551 H 0.89042 0.59449 0.88334 0.0
C2552 C 0.90821 0.62099 0.83387 0.0
C2553 C 0.9211 0.60925 0.82476 0.0
C2554 C 0.89328 0.61324 0.84396 0.0
C2555 C 0.89107 0.59364 0.84498 0.0
C2556 C 0.90492 0.58195 0.83721 0.0
H2557 H 0.77733 0.54537 0.86003 0.0
H2558 H 0.81155 0.54617 0.85594 0.0
C2559 C 0.91989 0.58973 0.82717 0.0
C2560 C 0.87262 0.58579 0.8505 0.0
H2561 H 0.83875 0.58892 0.88421 0.0
C2562 C 0.86204 0.57662 0.83659 0.0
C2563 C 0.86438 0.58956 0.86814 0.0
C2564 C 0.87536 0.59856 0.88387 0.0
C2565 C 0.84296 0.5725 0.8393 0.0
C2566 C 0.8344 0.57734 0.85655 0.0
C2567 C 0.84533 0.58534 0.87093 0.0
C2568 C 0.8138 0.57634 0.85918 0.0
C2569 C 0.83185 0.56427 0.82321 0.0
C2570 C 0.80379 0.59298 0.86249 0.0
C2571 C 0.78439 0.59256 0.86495 0.0
C2572 C 0.77451 0.57547 0.8641 0.0
C2573 C 0.7845 0.55879 0.86053 0.0
C2574 C 0.80404 0.55921 0.85823 0.0
H2575 H 0.83982 0.56459 0.80978 0.0
H2576 H 0.82839 0.54941 0.8264 0.0
H2577 H 0.81846 0.57203 0.82122 0.0
H2578 H 0.81104 0.60636 0.86314 0.0
H2579 H 0.77715 0.60569 0.86762 0.0
H2580 H 0.21888 0.95684 0.86992 0.0
H2581 H 0.18507 0.9559 0.86329 0.0
H2582 H 0.18392 0.89709 0.87811 0.0
H2583 H 0.21718 0.89808 0.88537 0.0
H2584 H 0.16813 0.93763 0.83752 0.0
H2585 H 0.13711 0.91282 0.90348 0.0
H2586 H 0.16088 0.92167 0.90245 0.0
H2587 H 0.15596 0.89721 0.89773 0.0
C2588 C 0.21132 0.94379 0.87199 0.0
C2589 C 0.22072 0.92754 0.8782 0.0
C2590 C 0.19199 0.94331 0.86833 0.0
C2591 C 0.18177 0.92656 0.87073 0.0
C2592 C 0.19121 0.91039 0.87692 0.0
H2593 H 0.11362 0.8691 0.80199 0.0
H2594 H 0.13581 0.8865 0.82128 0.0
C2595 C 0.21038 0.91092 0.88081 0.0
C2596 C 0.16197 0.92497 0.86438 0.0
H2597 H 0.12167 0.90088 0.87432 0.0
C2598 C 0.15776 0.93018 0.84584 0.0
C2599 C 0.14806 0.91576 0.87527 0.0
C2600 C 0.15073 0.91179 0.89591 0.0
C2601 C 0.14103 0.92438 0.83726 0.0
C2602 C 0.12852 0.91268 0.84731 0.0
C2603 C 0.13157 0.90942 0.86648 0.0
C2604 C 0.11448 0.90115 0.83725 0.0
C2605 C 0.13752 0.92975 0.81705 0.0
C2606 C 0.09511 0.90281 0.84066 0.0
C2607 C 0.08226 0.89256 0.82972 0.0
C2608 C 0.08881 0.88066 0.81537 0.0
C2609 C 0.10821 0.87833 0.81283 0.0
C2610 C 0.1209 0.88836 0.82374 0.0
H2611 H 0.14413 0.9435 0.81368 0.0
H2612 H 0.14388 0.91901 0.8077 0.0
H2613 H 0.12224 0.9306 0.81396 0.0
H2614 H 0.08995 0.91246 0.85123 0.0
H2615 H 0.06734 0.89462 0.83185 0.0
H2616 H 0.92823 0.39195 0.66546 0.0
H2617 H 0.90434 0.40691 0.64525 0.0
H2618 H 0.86318 0.40019 0.68927 0.0
H2619 H 0.88673 0.386 0.70937 0.0
H2620 H 0.87133 0.39468 0.63146 0.0
H2621 H 0.85675 0.45482 0.67754 0.0
H2622 H 0.87726 0.44019 0.68062 0.0
H2623 H 0.85512 0.43377 0.69121 0.0
C2624 C 0.91406 0.39374 0.67071 0.0
C2625 C 0.90935 0.38805 0.68902 0.0
C2626 C 0.90049 0.40233 0.65924 0.0
C2627 C 0.88216 0.40526 0.66602 0.0
C2628 C 0.87741 0.39882 0.68401 0.0
H2629 H 0.77499 0.39761 0.62258 0.0
H2630 H 0.80807 0.39508 0.63082 0.0
C2631 C 0.89086 0.39052 0.69544 0.0
C2632 C 0.86735 0.41408 0.65437 0.0
H2633 H 0.82979 0.44338 0.65912 0.0
C2634 C 0.8625 0.4057 0.63721 0.0
C2635 C 0.8562 0.42896 0.66143 0.0
C2636 C 0.86178 0.44007 0.6786 0.0
C2637 C 0.8457 0.41042 0.62803 0.0
C2638 C 0.83316 0.42327 0.63667 0.0
C2639 C 0.83905 0.43311 0.65271 0.0
C2640 C 0.81324 0.42511 0.6307 0.0
C2641 C 0.84141 0.40119 0.60944 0.0
C2642 C 0.80474 0.44286 0.62887 0.0
C2643 C 0.78554 0.44434 0.62485 0.0
C2644 C 0.77462 0.42808 0.62234 0.0
C2645 C 0.78313 0.41038 0.62419 0.0
C2646 C 0.80214 0.40892 0.62862 0.0
H2647 H 0.85453 0.39894 0.60126 0.0
H2648 H 0.83508 0.38716 0.61198 0.0
H2649 H 0.83157 0.40972 0.60085 0.0
H2650 H 0.81292 0.45557 0.63065 0.0
H2651 H 0.77932 0.45816 0.62341 0.0
H2652 H 0.06667 0.09398 0.6698 0.0
H2653 H 0.09203 0.07853 0.652 0.0
H2654 H 0.12607 0.12836 0.65747 0.0
H2655 H 0.10111 0.14352 0.67557 0.0
H2656 H 0.12591 0.10264 0.61903 0.0
H2657 H 0.14208 0.07031 0.68862 0.0
H2658 H 0.11832 0.07114 0.67981 0.0
H2659 H 0.12955 0.09233 0.68747 0.0
C2660 C 0.07925 0.10185 0.6664 0.0
C2661 C 0.08203 0.11994 0.67376 0.0
C2662 C 0.0937 0.09301 0.65637 0.0
C2663 C 0.11083 0.10237 0.65351 0.0
C2664 C 0.11287 0.12103 0.65945 0.0
H2665 H 0.22327 0.10414 0.62288 0.0
H2666 H 0.1896 0.10757 0.6276 0.0
C2667 C 0.09863 0.12969 0.66969 0.0
C2668 C 0.12777 0.09217 0.64732 0.0
H2669 H 0.16602 0.07016 0.66596 0.0
C2670 C 0.13453 0.09509 0.62908 0.0
C2671 C 0.13883 0.08224 0.66048 0.0
C2672 C 0.13195 0.07871 0.68023 0.0
C2673 C 0.15265 0.08921 0.62397 0.0
C2674 C 0.16442 0.08086 0.63769 0.0
C2675 C 0.15707 0.07671 0.6555 0.0
C2676 C 0.18486 0.07834 0.63461 0.0
C2677 C 0.15915 0.09248 0.60406 0.0
C2678 C 0.19362 0.06097 0.63798 0.0
C2679 C 0.21306 0.05904 0.63568 0.0
C2680 C 0.22403 0.07446 0.62995 0.0
C2681 C 0.21523 0.09191 0.62706 0.0
C2682 C 0.19591 0.09385 0.62953 0.0
H2683 H 0.14713 0.09194 0.59411 0.0
H2684 H 0.16548 0.10669 0.603 0.0
H2685 H 0.16977 0.08193 0.59969 0.0
H2686 H 0.18539 0.04889 0.64223 0.0
H2687 H 0.21941 0.04539 0.63797 0.0
H2688 H 0.83167 0.92416 0.62693 0.0
H2689 H 0.85432 0.89997 0.61687 0.0
H2690 H 0.81041 0.87175 0.58608 0.0
H2691 H 0.78794 0.89536 0.59618 0.0
H2692 H 0.84757 0.86047 0.62577 0.0
H2693 H 0.85583 0.87193 0.54928 0.0
H2694 H 0.84849 0.89031 0.56523 0.0
H2695 H 0.83185 0.87312 0.55708 0.0
C2696 C 0.82702 0.91297 0.61772 0.0
C2697 C 0.80805 0.91158 0.61241 0.0
C2698 C 0.83992 0.89923 0.61198 0.0
C2699 C 0.83405 0.88428 0.60051 0.0
C2700 C 0.8153 0.88339 0.59461 0.0
H2701 H 0.85295 0.77395 0.56298 0.0
H2702 H 0.84436 0.80683 0.56826 0.0
C2703 C 0.80243 0.89684 0.60054 0.0
C2704 C 0.84647 0.86813 0.59656 0.0
H2705 H 0.86174 0.8405 0.5605 0.0
C2706 C 0.85116 0.85627 0.61156 0.0
C2707 C 0.8509 0.86271 0.578 0.0
C2708 C 0.84666 0.87527 0.56147 0.0
C2709 C 0.85892 0.83843 0.6084 0.0
C2710 C 0.86254 0.83259 0.58971 0.0
C2711 C 0.85886 0.84496 0.57479 0.0
C2712 C 0.86872 0.81321 0.58533 0.0
C2713 C 0.86193 0.82554 0.62499 0.0
C2714 C 0.88548 0.80604 0.5928 0.0
C2715 C 0.89026 0.78721 0.59007 0.0
C2716 C 0.87854 0.77529 0.5795 0.0
C2717 C 0.86223 0.78275 0.57125 0.0
C2718 C 0.85733 0.80154 0.57421 0.0
H2719 H 0.85442 0.83056 0.63773 0.0
H2720 H 0.85707 0.81107 0.62177 0.0
H2721 H 0.87714 0.82494 0.62834 0.0
H2722 H 0.89472 0.81492 0.601 0.0
H2723 H 0.90312 0.78198 0.59633 0.0
H2724 H 0.82628 0.08541 0.86301 0.0
H2725 H 0.84518 0.10971 0.87825 0.0
H2726 H 0.83475 0.08411 0.93219 0.0
H2727 H 0.81626 0.05937 0.91677 0.0
H2728 H 0.8206 0.12155 0.92704 0.0
H2729 H 0.89555 0.11676 0.90706 0.0
H2730 H 0.87992 0.11255 0.8877 0.0
H2731 H 0.88006 0.0966 0.90731 0.0
C2732 C 0.82889 0.08445 0.87798 0.0
C2733 C 0.82006 0.07057 0.88876 0.0
C2734 C 0.83965 0.09831 0.8867 0.0
C2735 C 0.84145 0.09862 0.90634 0.0
C2736 C 0.83369 0.08397 0.91701 0.0
H2737 H 0.86103 0.21197 0.9543 0.0
H2738 H 0.85543 0.17792 0.95476 0.0
C2739 C 0.82317 0.06988 0.90822 0.0
C2740 C 0.84801 0.11608 0.91546 0.0
H2741 H 0.88361 0.14798 0.91351 0.0
C2742 C 0.83455 0.12721 0.92464 0.0
C2743 C 0.86618 0.12331 0.91227 0.0
C2744 C 0.88133 0.11161 0.9032 0.0
C2745 C 0.83821 0.14609 0.92901 0.0
C2746 C 0.85596 0.15378 0.92445 0.0
C2747 C 0.86995 0.1421 0.91682 0.0
C2748 C 0.85942 0.17429 0.92482 0.0
C2749 C 0.82256 0.15799 0.93698 0.0
C2750 C 0.86365 0.18347 0.90791 0.0
C2751 C 0.86702 0.20273 0.90763 0.0
C2752 C 0.86613 0.21331 0.92427 0.0
C2753 C 0.86158 0.20421 0.94122 0.0
C2754 C 0.85841 0.18477 0.94151 0.0
H2755 H 0.80881 0.15059 0.93674 0.0
H2756 H 0.82584 0.16158 0.95179 0.0
H2757 H 0.82116 0.17132 0.92899 0.0
H2758 H 0.86434 0.17568 0.89484 0.0
H2759 H 0.87042 0.20932 0.89434 0.0
H2760 H 0.13738 0.28416 0.96037 0.0
H2761 H 0.14389 0.31797 0.96193 0.0
H2762 H 0.11115 0.3265 0.91161 0.0
H2763 H 0.10411 0.29332 0.91031 0.0
H2764 H 0.1633 0.33649 0.9379 0.0
H2765 H 0.09475 0.37151 0.93964 0.0
H2766 H 0.09724 0.34685 0.94514 0.0
H2767 H 0.09397 0.3545 0.92115 0.0
C2768 C 0.13126 0.29333 0.94987 0.0
C2769 C 0.12031 0.28596 0.93516 0.0
C2770 C 0.13491 0.31266 0.95085 0.0
C2771 C 0.12764 0.32492 0.93715 0.0
C2772 C 0.11634 0.31757 0.92278 0.0
H2773 H 0.17592 0.3961 0.86599 0.0
H2774 H 0.15788 0.37431 0.88541 0.0
C2775 C 0.11257 0.2984 0.92189 0.0
C2776 C 0.13418 0.34467 0.93573 0.0
H2777 H 0.11922 0.38748 0.91992 0.0
C2778 C 0.15362 0.34784 0.93473 0.0
C2779 C 0.12168 0.35971 0.9319 0.0
C2780 C 0.10076 0.35795 0.93476 0.0
C2781 C 0.16075 0.3648 0.9278 0.0
C2782 C 0.14814 0.37874 0.92143 0.0
C2783 C 0.12882 0.37654 0.92444 0.0
C2784 C 0.1548 0.39364 0.90867 0.0
C2785 C 0.18174 0.36708 0.9258 0.0
C2786 C 0.15802 0.41204 0.915 0.0
C2787 C 0.16803 0.42469 0.90367 0.0
C2788 C 0.17496 0.41883 0.88614 0.0
C2789 C 0.17048 0.40091 0.87938 0.0
C2790 C 0.1603 0.38847 0.89048 0.0
H2791 H 0.18948 0.35772 0.93562 0.0
H2792 H 0.18594 0.36337 0.91125 0.0
H2793 H 0.18602 0.38186 0.92846 0.0
H2794 H 0.15392 0.41616 0.92906 0.0
H2795 H 0.17174 0.43836 0.90925 0.0
H2796 H 0.63997 0.21964 0.04339 0.0
H2797 H 0.64581 0.18563 0.04252 0.0
H2798 H 0.62525 0.18067 0.0993 0.0
H2799 H 0.61914 0.21415 0.10026 0.0
H2800 H 0.66912 0.16548 0.06444 0.0
H2801 H 0.59744 0.13822 0.0745 0.0
H2802 H 0.60194 0.16225 0.06763 0.0
H2803 H 0.60246 0.15553 0.09207 0.0
C2804 C 0.63659 0.21126 0.05564 0.0
C2805 C 0.629 0.21966 0.07186 0.0
C2806 C 0.63983 0.19184 0.05506 0.0
C2807 C 0.63541 0.18054 0.07064 0.0
C2808 C 0.6281 0.18897 0.08686 0.0
H2809 H 0.67321 0.09585 0.135 0.0
H2810 H 0.65485 0.11969 0.11833 0.0
C2811 C 0.62483 0.20823 0.08744 0.0
C2812 C 0.64006 0.16026 0.07102 0.0
H2813 H 0.62289 0.11847 0.08721 0.0
C2814 C 0.65891 0.15501 0.06875 0.0
C2815 C 0.62668 0.14657 0.07648 0.0
C2816 C 0.60597 0.15093 0.07759 0.0
C2817 C 0.66506 0.13696 0.07368 0.0
C2818 C 0.65198 0.12391 0.08099 0.0
C2819 C 0.63288 0.1286 0.08171 0.0
C2820 C 0.65854 0.10698 0.09096 0.0
C2821 C 0.68576 0.13241 0.07258 0.0
C2822 C 0.66579 0.0915 0.08114 0.0
C2823 C 0.67601 0.07771 0.09073 0.0
C2824 C 0.6791 0.07943 0.11013 0.0
C2825 C 0.67064 0.09414 0.12009 0.0
C2826 C 0.66026 0.10775 0.11058 0.0
H2827 H 0.69414 0.14428 0.06685 0.0
H2828 H 0.69118 0.12886 0.08677 0.0
H2829 H 0.68792 0.11995 0.06345 0.0
H2830 H 0.66464 0.09078 0.06598 0.0
H2831 H 0.6827 0.06656 0.08281 0.0
H2832 H 0.36293 0.17318 0.09808 0.0
H2833 H 0.38106 0.1549 0.12082 0.0
H2834 H 0.42906 0.15616 0.08386 0.0
H2835 H 0.41061 0.17412 0.06068 0.0
H2836 H 0.41051 0.11867 0.11549 0.0
H2837 H 0.43648 0.18939 0.13707 0.0
H2838 H 0.41379 0.1876 0.12589 0.0
H2839 H 0.43465 0.18267 0.11267 0.0
C2840 C 0.37705 0.16877 0.09446 0.0
C2841 C 0.38538 0.17472 0.07767 0.0
C2842 C 0.3874 0.15842 0.10743 0.0
C2843 C 0.40633 0.15427 0.10396 0.0
C2844 C 0.41439 0.15912 0.08663 0.0
H2845 H 0.45717 0.13779 0.21516 0.0
H2846 H 0.45795 0.14252 0.18097 0.0
C2847 C 0.40385 0.16924 0.07342 0.0
C2848 C 0.41788 0.14767 0.11981 0.0
H2849 H 0.43697 0.16542 0.15997 0.0
C2850 C 0.41692 0.12872 0.12499 0.0
C2851 C 0.42642 0.16081 0.132 0.0
C2852 C 0.42804 0.18129 0.12673 0.0
C2853 C 0.42283 0.12285 0.14285 0.0
C2854 C 0.42915 0.13645 0.15595 0.0
C2855 C 0.43193 0.15504 0.15001 0.0
C2856 C 0.4296 0.13251 0.17638 0.0
C2857 C 0.42131 0.10231 0.14783 0.0
C2858 C 0.41326 0.12586 0.18514 0.0
C2859 C 0.41275 0.1232 0.20449 0.0
C2860 C 0.4285 0.12738 0.21566 0.0
C2861 C 0.4448 0.13443 0.20696 0.0
C2862 C 0.44532 0.13701 0.18744 0.0
H2863 H 0.42405 0.09337 0.13532 0.0
H2864 H 0.43133 0.09836 0.15913 0.0
H2865 H 0.40681 0.09924 0.15268 0.0
H2866 H 0.40069 0.12304 0.17704 0.0
H2867 H 0.39986 0.11798 0.21068 0.0
H2868 H 0.59676 0.38355 0.21309 0.0
H2869 H 0.59583 0.3776 0.17964 0.0
H2870 H 0.53734 0.36207 0.18365 0.0
H2871 H 0.53832 0.36748 0.2177 0.0
H2872 H 0.5551 0.33709 0.16472 0.0
H2873 H 0.57717 0.40437 0.13467 0.0
H2874 H 0.5937 0.39866 0.15272 0.0
H2875 H 0.56933 0.4025 0.15875 0.0
C2876 C 0.58357 0.37911 0.20692 0.0
C2877 C 0.56761 0.37597 0.21812 0.0
C2878 C 0.58299 0.37599 0.18764 0.0
C2879 C 0.56635 0.37002 0.17893 0.0
C2880 C 0.55026 0.36701 0.19001 0.0
H2881 H 0.59858 0.33281 0.06426 0.0
H2882 H 0.5797 0.35176 0.0864 0.0
C2883 C 0.55088 0.36995 0.20946 0.0
C2884 C 0.56695 0.36439 0.15888 0.0
H2885 H 0.59014 0.37577 0.11847 0.0
C2886 C 0.56209 0.34583 0.15437 0.0
C2887 C 0.57552 0.37583 0.14501 0.0
C2888 C 0.57898 0.39651 0.14805 0.0
C2889 C 0.56793 0.33771 0.13743 0.0
C2890 C 0.57928 0.3483 0.12502 0.0
C2891 C 0.5819 0.36753 0.12829 0.0
C2892 C 0.59145 0.33871 0.11123 0.0
C2893 C 0.56324 0.31738 0.13367 0.0
C2894 C 0.60483 0.32594 0.11798 0.0
C2895 C 0.61544 0.3153 0.10556 0.0
C2896 C 0.61313 0.31739 0.08612 0.0
C2897 C 0.60066 0.33109 0.07923 0.0
C2898 C 0.58981 0.34175 0.0918 0.0
H2899 H 0.54962 0.31348 0.14025 0.0
H2900 H 0.5625 0.31445 0.11836 0.0
H2901 H 0.57429 0.30832 0.13991 0.0
H2902 H 0.60664 0.32378 0.13294 0.0
H2903 H 0.62507 0.30492 0.1112 0.0
H2904 H 0.4032 0.87646 0.29473 0.0
H2905 H 0.40714 0.87091 0.32803 0.0
H2906 H 0.4649 0.85492 0.31904 0.0
H2907 H 0.46106 0.86042 0.28509 0.0
H2908 H 0.44517 0.83039 0.34223 0.0
H2909 H 0.43399 0.90269 0.36708 0.0
H2910 H 0.41628 0.89684 0.35018 0.0
H2911 H 0.44062 0.89745 0.34312 0.0
C2912 C 0.41684 0.87189 0.2997 0.0
C2913 C 0.43188 0.86908 0.2872 0.0
C2914 C 0.41912 0.86891 0.31884 0.0
C2915 C 0.43651 0.86321 0.3261 0.0
C2916 C 0.45149 0.85976 0.31372 0.0
H2917 H 0.41455 0.82268 0.44146 0.0
H2918 H 0.43538 0.83955 0.41945 0.0
C2919 C 0.44922 0.86276 0.29436 0.0
C2920 C 0.43791 0.85946 0.34649 0.0
H2921 H 0.42043 0.87754 0.38727 0.0
C2922 C 0.44065 0.84085 0.35235 0.0
C2923 C 0.43235 0.87318 0.35978 0.0
C2924 C 0.43087 0.8937 0.35471 0.0
C2925 C 0.43532 0.83515 0.37045 0.0
C2926 C 0.427 0.84838 0.38271 0.0
C2927 C 0.42663 0.8674 0.37772 0.0
C2928 C 0.41429 0.84191 0.39769 0.0
C2929 C 0.43651 0.81462 0.37562 0.0
C2930 C 0.39553 0.83836 0.39285 0.0
C2931 C 0.38386 0.82865 0.40515 0.0
C2932 C 0.39064 0.82273 0.42263 0.0
C2933 C 0.40897 0.82756 0.42816 0.0
C2934 C 0.42086 0.83703 0.41562 0.0
H2935 H 0.44568 0.80666 0.36581 0.0
H2936 H 0.442 0.81302 0.39013 0.0
H2937 H 0.42222 0.80836 0.37523 0.0
H2938 H 0.39031 0.84197 0.37901 0.0
H2939 H 0.36986 0.82478 0.40056 0.0
H2940 H 0.63719 0.67396 0.40423 0.0
H2941 H 0.61763 0.6573 0.38148 0.0
H2942 H 0.57091 0.65905 0.42003 0.0
H2943 H 0.59081 0.6754 0.44323 0.0
H2944 H 0.58912 0.62215 0.38572 0.0
H2945 H 0.56062 0.69325 0.36911 0.0
H2946 H 0.58342 0.69139 0.38004 0.0
H2947 H 0.5628 0.68501 0.39301 0.0
C2948 C 0.62301 0.67002 0.40815 0.0
C2949 C 0.6155 0.67565 0.42544 0.0
C2950 C 0.61184 0.66061 0.39517 0.0
C2951 C 0.59287 0.65706 0.39911 0.0
C2952 C 0.58558 0.66159 0.41687 0.0
H2953 H 0.54233 0.64097 0.28701 0.0
H2954 H 0.54051 0.64541 0.3213 0.0
C2955 C 0.59695 0.67075 0.4301 0.0
C2956 C 0.58071 0.65111 0.38344 0.0
H2957 H 0.5606 0.67078 0.34465 0.0
C2958 C 0.58217 0.63257 0.37702 0.0
C2959 C 0.57151 0.66471 0.37225 0.0
C2960 C 0.56935 0.68474 0.37886 0.0
C2961 C 0.57639 0.62774 0.35883 0.0
C2962 C 0.56955 0.64196 0.34672 0.0
C2963 C 0.56603 0.65996 0.35391 0.0
C2964 C 0.56995 0.63948 0.32609 0.0
C2965 C 0.57899 0.60776 0.35224 0.0
C2966 C 0.5872 0.63553 0.31748 0.0
C2967 C 0.58832 0.63316 0.29815 0.0
C2968 C 0.5722 0.6348 0.28684 0.0
C2969 C 0.55498 0.63957 0.29535 0.0
C2970 C 0.55388 0.64197 0.3149 0.0
H2971 H 0.57732 0.59773 0.36409 0.0
H2972 H 0.5688 0.60409 0.34101 0.0
H2973 H 0.59343 0.60605 0.34661 0.0
H2974 H 0.5999 0.63425 0.32579 0.0
H2975 H 0.60188 0.62981 0.2921 0.0
H2976 H 0.21995 0.40071 0.11173 0.0
H2977 H 0.18649 0.39981 0.11874 0.0
H2978 H 0.19137 0.45157 0.14989 0.0
H2979 H 0.22509 0.4525 0.1432 0.0
H2980 H 0.17341 0.42399 0.16934 0.0
H2981 H 0.14235 0.42958 0.0983 0.0
H2982 H 0.15973 0.41137 0.09978 0.0
H2983 H 0.16656 0.4355 0.10313 0.0
C2984 C 0.21396 0.41202 0.11996 0.0
C2985 C 0.22529 0.42667 0.12694 0.0
C2986 C 0.19474 0.41159 0.12376 0.0
C2987 C 0.18636 0.42584 0.13446 0.0
C2988 C 0.19754 0.44055 0.1414 0.0
H2989 H 0.07717 0.42323 0.18975 0.0
H2990 H 0.10411 0.43644 0.17288 0.0
C2991 C 0.21683 0.441 0.13762 0.0
C2992 C 0.16635 0.42428 0.13994 0.0
H2993 H 0.12221 0.41698 0.1225 0.0
C2994 C 0.16215 0.42284 0.15913 0.0
C2995 C 0.15173 0.42269 0.12656 0.0
C2996 C 0.15528 0.42505 0.1058 0.0
C2997 C 0.14389 0.41889 0.16529 0.0
C2998 C 0.12934 0.4167 0.15188 0.0
C2999 C 0.13339 0.41872 0.13271 0.0
C3000 C 0.11029 0.41081 0.15772 0.0
C3001 C 0.14051 0.41615 0.18607 0.0
C3002 C 0.10407 0.39253 0.15367 0.0
C3003 C 0.08852 0.38509 0.16309 0.0
C3004 C 0.07908 0.39591 0.17657 0.0
C3005 C 0.08422 0.41473 0.17929 0.0
C3006 C 0.09964 0.42223 0.16975 0.0
H3007 H 0.15385 0.41471 0.19406 0.0
H3008 H 0.13283 0.4285 0.19171 0.0
H3009 H 0.1318 0.40346 0.18863 0.0
H3010 H 0.11215 0.38352 0.14443 0.0
H3011 H 0.08493 0.37042 0.16108 0.0
H3012 H 0.78061 0.04886 0.13955 0.0
H3013 H 0.81397 0.05194 0.14742 0.0
H3014 H 0.81296 0.10984 0.12949 0.0
H3015 H 0.77991 0.10682 0.12117 0.0
H3016 H 0.84417 0.09103 0.11656 0.0
H3017 H 0.83404 0.07926 0.19318 0.0
H3018 H 0.82567 0.06068 0.17832 0.0
H3019 H 0.81462 0.08338 0.17743 0.0
C3020 C 0.78747 0.06227 0.13736 0.0
C3021 C 0.77754 0.07762 0.12983 0.0
C3022 C 0.80652 0.06401 0.14188 0.0
C3023 C 0.81587 0.08118 0.13922 0.0
C3024 C 0.80603 0.09645 0.13161 0.0
H3025 H 0.91402 0.14009 0.17065 0.0
H3026 H 0.88742 0.12764 0.15264 0.0
C3027 C 0.78708 0.0947 0.12694 0.0
C3028 C 0.83579 0.0836 0.1447 0.0
H3029 H 0.86485 0.08462 0.18277 0.0
C3030 C 0.84876 0.08947 0.13101 0.0
C3031 C 0.84172 0.08155 0.16355 0.0
C3032 C 0.8283 0.07603 0.17903 0.0
C3033 C 0.86743 0.09373 0.13575 0.0
C3034 C 0.87318 0.09219 0.15468 0.0
C3035 C 0.8604 0.08567 0.16823 0.0
C3036 C 0.89175 0.09878 0.1613 0.0
C3037 C 0.88079 0.10001 0.12055 0.0
C3038 C 0.90332 0.08662 0.17165 0.0
C3039 C 0.91841 0.09375 0.18194 0.0
C3040 C 0.92216 0.11309 0.18197 0.0
C3041 C 0.91156 0.12506 0.17047 0.0
C3042 C 0.89639 0.11795 0.1602 0.0
H3043 H 0.87615 0.09507 0.10648 0.0
H3044 H 0.88123 0.1156 0.12026 0.0
H3045 H 0.89524 0.09477 0.12324 0.0
H3046 H 0.89993 0.07182 0.17275 0.0
H3047 H 0.9264 0.0843 0.19076 0.0
H3048 H 0.09505 0.63371 0.32143 0.0
H3049 H 0.1169 0.61471 0.33991 0.0
H3050 H 0.07716 0.56897 0.34026 0.0
H3051 H 0.05488 0.58832 0.32206 0.0
H3052 H 0.10718 0.58347 0.37738 0.0
H3053 H 0.13308 0.56094 0.30713 0.0
H3054 H 0.12442 0.58467 0.3091 0.0
H3055 H 0.10851 0.56531 0.31191 0.0
C3056 C 0.09066 0.61993 0.3262 0.0
C3057 C 0.07332 0.61249 0.32066 0.0
C3058 C 0.10313 0.60908 0.33664 0.0
C3059 C 0.09859 0.5905 0.34133 0.0
C3060 C 0.08076 0.58336 0.33687 0.0
H3061 H 0.20882 0.53927 0.3605 0.0
H3062 H 0.17486 0.53796 0.35437 0.0
C3063 C 0.06807 0.59442 0.32662 0.0
C3064 C 0.11375 0.57826 0.34833 0.0
H3065 H 0.15497 0.55996 0.33235 0.0
C3066 C 0.1174 0.5777 0.36765 0.0
C3067 C 0.12682 0.57043 0.33561 0.0
C3068 C 0.12306 0.57019 0.31475 0.0
C3069 C 0.13471 0.57112 0.37442 0.0
C3070 C 0.14882 0.56572 0.36144 0.0
C3071 C 0.14429 0.56432 0.34231 0.0
C3072 C 0.16895 0.5651 0.3668 0.0
C3073 C 0.13805 0.57099 0.39534 0.0
C3074 C 0.17694 0.58089 0.37545 0.0
C3075 C 0.19614 0.58168 0.37894 0.0
C3076 C 0.208 0.56681 0.37359 0.0
C3077 C 0.20007 0.55096 0.36479 0.0
C3078 C 0.18068 0.55014 0.3614 0.0
H3079 H 0.12493 0.5673 0.40297 0.0
H3080 H 0.14924 0.56088 0.39936 0.0
H3081 H 0.14226 0.58528 0.39998 0.0
H3082 H 0.16839 0.59297 0.37901 0.0
H3083 H 0.20169 0.59422 0.38554 0.0
H3084 H 0.78539 0.89931 0.36571 0.0
H3085 H 0.8186 0.8996 0.35781 0.0
H3086 H 0.81893 0.96022 0.36039 0.0
H3087 H 0.78515 0.96 0.36749 0.0
H3088 H 0.83746 0.94997 0.33161 0.0
H3089 H 0.86386 0.90614 0.38911 0.0
H3090 H 0.84529 0.89337 0.37799 0.0
H3091 H 0.8403 0.91556 0.3893 0.0
C3092 C 0.79253 0.91272 0.36469 0.0
C3093 C 0.78271 0.92963 0.36729 0.0
C3094 C 0.81162 0.91287 0.36044 0.0
C3095 C 0.82151 0.9299 0.35923 0.0
C3096 C 0.81168 0.94688 0.36157 0.0
H3097 H 0.93683 0.89936 0.32488 0.0
H3098 H 0.91334 0.91501 0.34499 0.0
C3099 C 0.79239 0.94676 0.36549 0.0
C3100 C 0.84162 0.92966 0.35373 0.0
H3101 H 0.88104 0.90287 0.35887 0.0
C3102 C 0.84717 0.94008 0.33795 0.0
C3103 C 0.85475 0.91741 0.36236 0.0
C3104 C 0.85075 0.90771 0.38078 0.0
C3105 C 0.86455 0.93685 0.32928 0.0
C3106 C 0.87628 0.92231 0.33614 0.0
C3107 C 0.87179 0.91359 0.35322 0.0
C3108 C 0.89111 0.91385 0.32422 0.0
C3109 C 0.86972 0.94844 0.3123 0.0
C3110 C 0.88626 0.90756 0.3062 0.0
C3111 C 0.8995 0.89883 0.29484 0.0
C3112 C 0.91788 0.89578 0.30132 0.0
C3113 C 0.92275 0.90158 0.31956 0.0
C3114 C 0.9094 0.91058 0.33097 0.0
H3115 H 0.86445 0.96306 0.31381 0.0
H3116 H 0.88516 0.94887 0.31008 0.0
H3117 H 0.86297 0.94234 0.29964 0.0
H3118 H 0.87206 0.90915 0.30095 0.0
H3119 H 0.89522 0.89429 0.28095 0.0
H3120 H 0.14985 0.2134 0.44749 0.0
H3121 H 0.15901 0.18034 0.44429 0.0
H3122 H 0.10257 0.16621 0.42725 0.0
H3123 H 0.09351 0.19925 0.42984 0.0
H3124 H 0.14682 0.14482 0.4574 0.0
H3125 H 0.13368 0.15394 0.38076 0.0
H3126 H 0.1339 0.1735 0.39685 0.0
H3127 H 0.11389 0.15811 0.39583 0.0
C3128 C 0.13931 0.20316 0.44352 0.0
C3129 C 0.1211 0.20888 0.43854 0.0
C3130 C 0.14454 0.1843 0.44168 0.0
C3131 C 0.13156 0.17097 0.43506 0.0
C3132 C 0.11289 0.17638 0.43192 0.0
H3133 H 0.16869 0.06467 0.38321 0.0
H3134 H 0.14659 0.08676 0.39811 0.0
C3135 C 0.10775 0.19523 0.43345 0.0
C3136 C 0.13815 0.1521 0.42934 0.0
H3137 H 0.14671 0.12541 0.39042 0.0
C3138 C 0.14655 0.14042 0.44281 0.0
C3139 C 0.13769 0.14638 0.41028 0.0
C3140 C 0.12945 0.15865 0.39503 0.0
C3141 C 0.1552 0.12349 0.43758 0.0
C3142 C 0.15563 0.11831 0.4184 0.0
C3143 C 0.14624 0.1294 0.40512 0.0
C3144 C 0.16831 0.10345 0.41134 0.0
C3145 C 0.16434 0.11158 0.45254 0.0
C3146 C 0.18771 0.10569 0.41373 0.0
C3147 C 0.20021 0.09339 0.40512 0.0
C3148 C 0.19361 0.07853 0.39392 0.0
C3149 C 0.17414 0.07599 0.3918 0.0
C3150 C 0.16155 0.08851 0.40035 0.0
H3151 H 0.1574 0.1136 0.46637 0.0
H3152 H 0.1639 0.09643 0.44881 0.0
H3153 H 0.17927 0.11584 0.45405 0.0
H3154 H 0.19325 0.11744 0.42168 0.0
H3155 H 0.21511 0.09583 0.40699 0.0
H3156 H 0.17057 0.91027 0.13278 0.0
H3157 H 0.1537 0.88645 0.11469 0.0
H3158 H 0.15968 0.92005 0.0646 0.0
H3159 H 0.17626 0.94427 0.08296 0.0
H3160 H 0.12087 0.88746 0.08563 0.0
H3161 H 0.19243 0.86912 0.05922 0.0
H3162 H 0.18976 0.88293 0.08033 0.0
H3163 H 0.1839 0.89296 0.05799 0.0
C3164 C 0.16745 0.91296 0.11812 0.0
C3165 C 0.17439 0.92907 0.10924 0.0
C3166 C 0.15793 0.89935 0.10778 0.0
C3167 C 0.1556 0.9015 0.08834 0.0
C3168 C 0.16132 0.91824 0.07963 0.0
H3169 H 0.13784 0.78869 0.03919 0.0
H3170 H 0.14361 0.82278 0.03802 0.0
C3171 C 0.17063 0.93207 0.0901 0.0
C3172 C 0.14983 0.8849 0.07734 0.0
H3173 H 0.16949 0.84541 0.05854 0.0
C3174 C 0.13131 0.87849 0.07908 0.0
C3175 C 0.16349 0.87333 0.06869 0.0
C3176 C 0.18355 0.8798 0.06636 0.0
C3177 C 0.12648 0.86012 0.07389 0.0
C3178 C 0.14067 0.84782 0.06733 0.0
C3179 C 0.15871 0.85484 0.06375 0.0
C3180 C 0.13791 0.82723 0.06755 0.0
C3181 C 0.10647 0.85366 0.07658 0.0
C3182 C 0.13372 0.81846 0.08466 0.0
C3183 C 0.13057 0.7992 0.08541 0.0
C3184 C 0.13168 0.78818 0.06905 0.0
C3185 C 0.13687 0.79681 0.05202 0.0
C3186 C 0.14001 0.81626 0.05129 0.0
H3187 H 0.09648 0.86555 0.07498 0.0
H3188 H 0.10269 0.84245 0.06639 0.0
H3189 H 0.10482 0.84798 0.09101 0.0
H3190 H 0.13269 0.82659 0.09749 0.0
H3191 H 0.1269 0.79299 0.09882 0.0
H3192 H 0.88185 0.69278 0.08943 0.0
H3193 H 0.87555 0.65946 0.0874 0.0
H3194 H 0.85276 0.66669 0.03171 0.0
H3195 H 0.85883 0.70068 0.03371 0.0
H3196 H 0.83043 0.64523 0.05364 0.0
H3197 H 0.90234 0.61797 0.06016 0.0
H3198 H 0.89861 0.63517 0.07814 0.0
H3199 H 0.89759 0.6421 0.05376 0.0
C3200 C 0.87566 0.68741 0.0766 0.0
C3201 C 0.87099 0.69946 0.06166 0.0
C3202 C 0.87227 0.66822 0.07539 0.0
C3203 C 0.86435 0.66044 0.05913 0.0
C3204 C 0.85928 0.67238 0.04423 0.0
H3205 H 0.82191 0.5461 0.08419 0.0
H3206 H 0.83862 0.56794 0.06308 0.0
C3207 C 0.86263 0.69178 0.04545 0.0
C3208 C 0.85979 0.64013 0.05904 0.0
H3209 H 0.87758 0.59903 0.07619 0.0
C3210 C 0.84084 0.63486 0.05773 0.0
C3211 C 0.87338 0.62648 0.06406 0.0
C3212 C 0.89413 0.63073 0.06388 0.0
C3213 C 0.8349 0.61707 0.06378 0.0
C3214 C 0.84823 0.60447 0.07139 0.0
C3215 C 0.86738 0.60885 0.07053 0.0
C3216 C 0.84206 0.58947 0.08425 0.0
C3217 C 0.81419 0.61255 0.06393 0.0
C3218 C 0.8392 0.5942 0.10315 0.0
C3219 C 0.82959 0.58199 0.115 0.0
C3220 C 0.82306 0.5647 0.10824 0.0
C3221 C 0.82727 0.55922 0.08975 0.0
C3222 C 0.83664 0.57168 0.07769 0.0
H3223 H 0.80596 0.62256 0.05521 0.0
H3224 H 0.81178 0.59806 0.05864 0.0
H3225 H 0.80886 0.6132 0.07857 0.0
H3226 H 0.84322 0.60794 0.10836 0.0
H3227 H 0.8262 0.58656 0.12913 0.0
H3228 H 0.3167 0.92195 0.91631 0.0
H3229 H 0.33345 0.89413 0.92784 0.0
H3230 H 0.34141 0.8754 0.87073 0.0
H3231 H 0.3246 0.90315 0.85929 0.0
H3232 H 0.31708 0.85956 0.91962 0.0
H3233 H 0.39118 0.86057 0.89588 0.0
H3234 H 0.37711 0.88165 0.89776 0.0
H3235 H 0.37479 0.86652 0.87764 0.0
C3236 C 0.32276 0.91227 0.90626 0.0
C3237 C 0.31962 0.91463 0.88696 0.0
C3238 C 0.33226 0.8964 0.91283 0.0
C3239 C 0.33876 0.88277 0.90014 0.0
C3240 C 0.33688 0.88593 0.88075 0.0
H3241 H 0.36576 0.76691 0.89271 0.0
H3242 H 0.35877 0.80023 0.88879 0.0
C3243 C 0.32732 0.90177 0.87421 0.0
C3244 C 0.34423 0.86391 0.90696 0.0
H3245 H 0.37816 0.83028 0.90327 0.0
C3246 C 0.33057 0.85324 0.9164 0.0
C3247 C 0.36175 0.85572 0.90258 0.0
C3248 C 0.37712 0.86676 0.89306 0.0
C3249 C 0.33358 0.83424 0.92067 0.0
C3250 C 0.3509 0.82584 0.91572 0.0
C3251 C 0.36485 0.83674 0.90697 0.0
C3252 C 0.35441 0.8055 0.91841 0.0
C3253 C 0.31782 0.8231 0.9295 0.0
C3254 C 0.35403 0.79735 0.93637 0.0
C3255 C 0.35776 0.77818 0.93865 0.0
C3256 C 0.36225 0.76694 0.92302 0.0
C3257 C 0.36239 0.77515 0.90505 0.0
C3258 C 0.35849 0.79422 0.90278 0.0
H3259 H 0.3041 0.83046 0.9283 0.0
H3260 H 0.31652 0.80904 0.92286 0.0
H3261 H 0.32086 0.82105 0.94465 0.0
H3262 H 0.35123 0.80587 0.94866 0.0
H3263 H 0.35777 0.77235 0.9527 0.0
H3264 H 0.04866 0.55158 0.29164 0.0
H3265 H 0.0317 0.52355 0.28207 0.0
H3266 H 0.99242 0.55758 0.25083 0.0
H3267 H 0.00976 0.58595 0.26009 0.0
H3268 H 0.99492 0.50925 0.28287 0.0
H3269 H 0.01809 0.52652 0.20988 0.0
H3270 H 0.02701 0.53959 0.22965 0.0
H3271 H 0.00307 0.54262 0.22228 0.0
C3272 C 0.03621 0.5532 0.28303 0.0
C3273 C 0.03082 0.57093 0.27625 0.0
C3274 C 0.02641 0.53714 0.27767 0.0
C3275 C 0.01102 0.53844 0.26541 0.0
C3276 C 0.00447 0.55626 0.26002 0.0
H3277 H 0.015 0.4278 0.21046 0.0
H3278 H 0.99611 0.45582 0.21859 0.0
C3279 C 0.01432 0.57245 0.26543 0.0
C3280 C 0.00418 0.5209 0.25651 0.0
H3281 H 0.01399 0.49495 0.21741 0.0
C3282 C 0.99828 0.50623 0.26831 0.0
C3283 C 0.00833 0.51697 0.23743 0.0
C3284 C 0.01451 0.53217 0.22398 0.0
C3285 C 0.99902 0.48749 0.26228 0.0
C3286 C 0.00581 0.48345 0.24409 0.0
C3287 C 0.0089 0.49818 0.23141 0.0
C3288 C 0.01526 0.46539 0.24017 0.0
C3289 C 0.99458 0.47202 0.27604 0.0
C3290 C 0.03223 0.46178 0.24946 0.0
C3291 C 0.04311 0.44633 0.24457 0.0
C3292 C 0.03717 0.43398 0.23041 0.0
C3293 C 0.01984 0.43716 0.22144 0.0
C3294 C 0.00905 0.45303 0.2261 0.0
H3295 H 0.98406 0.47673 0.28657 0.0
H3296 H 0.98918 0.45935 0.26869 0.0
H3297 H 0.0076 0.46808 0.28368 0.0
H3298 H 0.03741 0.47134 0.26013 0.0
H3299 H 0.05629 0.44411 0.25187 0.0
H3300 H 0.99504 0.92222 0.25708 0.0
H3301 H 0.01408 0.95067 0.25294 0.0
H3302 H 0.9697 0.98368 0.27787 0.0
H3303 H 0.95113 0.95559 0.28246 0.0
H3304 H 0.00424 0.97637 0.22972 0.0
H3305 H 0.01269 0.01326 0.29627 0.0
H3306 H 0.00739 0.98841 0.29561 0.0
H3307 H 0.98874 0.00569 0.29586 0.0
C3308 C 0.98973 0.93547 0.26235 0.0
C3309 C 0.97147 0.93674 0.26981 0.0
C3310 C 0.00062 0.95172 0.25996 0.0
C3311 C 0.99347 0.96939 0.26522 0.0
C3312 C 0.97588 0.97029 0.27413 0.0
H3313 H 0.95121 0.05131 0.21191 0.0
H3314 H 0.97024 0.0241 0.2194 0.0
C3315 C 0.96507 0.95417 0.2765 0.0
C3316 C 0.00186 0.9871 0.25801 0.0
H3317 H 0.00075 0.03357 0.26929 0.0
C3318 C 0.00431 0.98882 0.2385 0.0
C3319 C 0.00289 0.00345 0.26929 0.0
C3320 C 0.00301 0.00248 0.29044 0.0
C3321 C 0.00436 0.00653 0.22985 0.0
C3322 C 0.00135 0.02273 0.24096 0.0
C3323 C 0.00232 0.02114 0.26061 0.0
C3324 C 0.99253 0.03985 0.23296 0.0
C3325 C 0.00597 0.00757 0.20876 0.0
C3326 C 0.99866 0.05796 0.23793 0.0
C3327 C 0.98755 0.07371 0.23376 0.0
C3328 C 0.97004 0.07146 0.22486 0.0
C3329 C 0.96458 0.05348 0.21887 0.0
C3330 C 0.97564 0.03788 0.22293 0.0
H3331 H 0.01645 0.9972 0.20362 0.0
H3332 H 0.99225 0.00385 0.20233 0.0
H3333 H 0.01015 0.02181 0.20395 0.0
H3334 H 0.01152 0.05981 0.24586 0.0
H3335 H 0.99207 0.08741 0.23861 0.0
H3336 H 0.29055 0.04972 0.55128 0.0
H3337 H 0.27772 0.03403 0.52359 0.0
H3338 H 0.24318 0.9991 0.55901 0.0
H3339 H 0.25618 0.01457 0.58693 0.0
H3340 H 0.26141 0.98381 0.51856 0.0
H3341 H 0.21687 0.04794 0.52099 0.0
H3342 H 0.24157 0.05172 0.52482 0.0
H3343 H 0.22823 0.03839 0.54158 0.0
C3344 C 0.2807 0.03828 0.55322 0.0
C3345 C 0.27413 0.03358 0.57122 0.0
C3346 C 0.27349 0.02925 0.53742 0.0
C3347 C 0.25948 0.01553 0.53935 0.0
C3348 C 0.25411 0.00957 0.55732 0.0
H3349 H 0.195 0.02848 0.43973 0.0
H3350 H 0.19818 0.01379 0.47063 0.0
C3351 C 0.26151 0.01846 0.57323 0.0
C3352 C 0.24808 0.01064 0.52277 0.0
H3353 H 0.21838 0.03178 0.49203 0.0
C3354 C 0.25163 0.994 0.51284 0.0
C3355 C 0.23492 0.02369 0.51573 0.0
C3356 C 0.22999 0.04139 0.52637 0.0
C3357 C 0.24339 0.99085 0.49513 0.0
C3358 C 0.23188 0.005 0.48708 0.0
C3359 C 0.22716 0.02082 0.49794 0.0
C3360 C 0.22731 0.00577 0.46669 0.0
C3361 C 0.24747 0.97263 0.48515 0.0
C3362 C 0.24196 0.00453 0.45348 0.0
C3363 C 0.23981 0.01218 0.43554 0.0
C3364 C 0.22322 0.02167 0.43081 0.0
C3365 C 0.20787 0.02107 0.44311 0.0
C3366 C 0.20976 0.01277 0.4608 0.0
H3367 H 0.24798 0.96082 0.49535 0.0
H3368 H 0.23676 0.96941 0.47427 0.0
H3369 H 0.2615 0.97349 0.47839 0.0
H3370 H 0.25578 -0.00031 0.45758 0.0
H3371 H 0.25193 0.01279 0.42633 0.0
H3372 H 0.73004 0.49152 0.58077 0.0
H3373 H 0.73759 0.51154 0.55372 0.0
H3374 H 0.71734 0.46823 0.51637 0.0
H3375 H 0.70929 0.44874 0.54298 0.0
H3376 H 0.76339 0.50413 0.52971 0.0
H3377 H 0.7 0.51211 0.48757 0.0
H3378 H 0.69872 0.50546 0.51205 0.0
H3379 H 0.7007 0.4878 0.49386 0.0
C3380 C 0.72659 0.48661 0.56678 0.0
C3381 C 0.71927 0.46844 0.564 0.0
C3382 C 0.73094 0.49806 0.55133 0.0
C3383 C 0.72782 0.49159 0.53293 0.0
C3384 C 0.71938 0.47393 0.53033 0.0
H3385 H 0.79045 0.45634 0.45461 0.0
H3386 H 0.7811 0.47471 0.48155 0.0
C3387 C 0.71503 0.46258 0.54564 0.0
C3388 C 0.73628 0.50113 0.51638 0.0
H3389 H 0.72902 0.50237 0.46917 0.0
C3390 C 0.75573 0.50452 0.51654 0.0
C3391 C 0.72641 0.50273 0.4992 0.0
C3392 C 0.70525 0.50205 0.49829 0.0
C3393 C 0.76584 0.50613 0.49969 0.0
C3394 C 0.75634 0.50354 0.48241 0.0
C3395 C 0.73658 0.50358 0.48235 0.0
C3396 C 0.76614 0.49596 0.46557 0.0
C3397 C 0.78679 0.50912 0.50065 0.0
C3398 C 0.76126 0.50177 0.44731 0.0
C3399 C 0.76637 0.49089 0.43169 0.0
C3400 C 0.77629 0.47397 0.43418 0.0
C3401 C 0.78265 0.46921 0.45224 0.0
C3402 C 0.77752 0.47996 0.46773 0.0
H3403 H 0.79017 0.51983 0.5115 0.0
H3404 H 0.79375 0.49585 0.50498 0.0
H3405 H 0.79266 0.51377 0.48697 0.0
H3406 H 0.75241 0.51399 0.44525 0.0
H3407 H 0.76126 0.4949 0.41793 0.0
H3408 H 0.26894 0.98582 0.91804 0.0
H3409 H 0.26109 0.0044 0.94593 0.0
H3410 H 0.28368 0.96055 0.98123 0.0
H3411 H 0.29194 0.94236 0.9537 0.0
H3412 H 0.23548 0.99305 0.96908 0.0
H3413 H 0.29807 0.0045 0.01206 0.0
H3414 H 0.29983 0.999 0.98733 0.0
H3415 H 0.29881 0.98048 0.00469 0.0
C3416 C 0.27291 0.98051 0.93174 0.0
C3417 C 0.2808 0.96248 0.93369 0.0
C3418 C 0.26839 0.99115 0.94767 0.0
C3419 C 0.2719 0.984 0.96574 0.0
C3420 C 0.28123 0.96669 0.96753 0.0
H3421 H 0.21031 0.94607 0.04735 0.0
H3422 H 0.22067 0.96192 0.01906 0.0
C3423 C 0.28573 0.95611 0.95171 0.0
C3424 C 0.26266 0.99216 0.98256 0.0
H3425 H 0.26944 0.9936 0.02988 0.0
C3426 C 0.243 0.99394 0.98231 0.0
C3427 C 0.2723 0.99408 -0.00017 0.0
C3428 C 0.29345 0.99463 0.00088 0.0
C3429 C 0.23268 0.99463 0.99907 0.0
C3430 C 0.24226 0.99301 0.01639 0.0
C3431 C 0.26197 0.99423 0.01661 0.0
C3432 C 0.2327 0.9859 0.03349 0.0
C3433 C 0.21154 0.9957 0.99799 0.0
C3434 C 0.2359 0.99407 0.05117 0.0
C3435 C 0.23014 0.9848 0.06756 0.0
C3436 C 0.22135 0.96711 0.06647 0.0
C3437 C 0.21716 0.9596 0.04871 0.0
C3438 C 0.22286 0.96883 0.03244 0.0
H3439 H 0.20715 0.00507 0.9863 0.0
H3440 H 0.20581 0.98151 0.99497 0.0
H3441 H 0.20532 0.00096 0.01129 0.0
H3442 H 0.24362 0.00714 0.05233 0.0
H3443 H 0.2336 0.99094 0.08104 0.0
H3444 H 0.78475 0.55767 0.04977 0.0
H3445 H 0.77398 0.54497 0.02006 0.0
H3446 H 0.75032 0.49703 0.04868 0.0
H3447 H 0.76062 0.51009 0.07892 0.0
H3448 H 0.77871 0.51248 0.00011 0.0
H3449 H 0.70437 0.52001 0.02388 0.0
H3450 H 0.72356 0.52944 0.03745 0.0
H3451 H 0.7196 0.50452 0.03677 0.0
C3452 C 0.77741 0.54432 0.04985 0.0
C3453 C 0.77315 0.53513 0.0668 0.0
C3454 C 0.77137 0.53699 0.03277 0.0
C3455 C 0.76101 0.52023 0.03216 0.0
C3456 C 0.75795 0.51019 0.04888 0.0
H3457 H 0.72789 0.51832 0.9128 0.0
H3458 H 0.73555 0.50186 0.94212 0.0
C3459 C 0.76395 0.51762 0.06612 0.0
C3460 C 0.75206 0.51488 0.01412 0.0
H3461 H 0.70986 0.51881 0.99168 0.0
C3462 C 0.7636 0.51326 0.99821 0.0
C3463 C 0.73232 0.51577 0.01176 0.0
C3464 C 0.71915 0.5176 0.0283 0.0
C3465 C 0.75619 0.51482 0.98 0.0
C3466 C 0.73661 0.51755 0.97771 0.0
C3467 C 0.72486 0.51684 0.99354 0.0
C3468 C 0.72881 0.52547 0.96008 0.0
C3469 C 0.76959 0.51554 0.96357 0.0
C3470 C 0.72142 0.54374 0.96054 0.0
C3471 C 0.71685 0.55305 0.94396 0.0
C3472 C 0.71965 0.54434 0.92646 0.0
C3473 C 0.72576 0.52551 0.92604 0.0
C3474 C 0.73026 0.51612 0.94277 0.0
H3475 H 0.78454 0.51517 0.96807 0.0
H3476 H 0.76705 0.5033 0.95425 0.0
H3477 H 0.76727 0.52852 0.95523 0.0
H3478 H 0.7201 0.55124 0.97374 0.0
H3479 H 0.71192 0.56742 0.94489 0.0
H3480 H 0.44875 0.21187 0.06421 0.0
H3481 H 0.4774 0.22232 0.049 0.0
H3482 H 0.44545 0.24172 0.00127 0.0
H3483 H 0.41633 0.23174 0.01678 0.0
H3484 H 0.49574 0.21622 0.01552 0.0
H3485 H 0.46947 0.28997 0.02022 0.0
H3486 H 0.45721 0.27094 0.03156 0.0
H3487 H 0.45642 0.27329 0.00645 0.0
C3488 C 0.44773 0.21812 0.05037 0.0
C3489 C 0.43019 0.22138 0.04193 0.0
C3490 C 0.46419 0.22399 0.0416 0.0
C3491 C 0.46354 0.23317 0.02417 0.0
C3492 C 0.44622 0.23503 0.01491 0.0
H3493 H 0.58135 0.26898 0.01812 0.0
H3494 H 0.55207 0.26109 0.00174 0.0
C3495 C 0.42962 0.2292 0.02375 0.0
C3496 C 0.48087 0.24244 0.01731 0.0
H3497 H 0.5018 0.28556 0.01838 0.0
C3498 C 0.4971 0.2314 0.01549 0.0
C3499 C 0.48248 0.26228 0.0171 0.0
C3500 C 0.46554 0.27491 0.01899 0.0
C3501 C 0.51506 0.23953 0.01599 0.0
C3502 C 0.5167 0.25928 0.01783 0.0
C3503 C 0.50044 0.27043 0.01709 0.0
C3504 C 0.53411 0.26792 0.0253 0.0
C3505 C 0.53199 0.22676 0.01668 0.0
C3506 C 0.53359 0.27562 0.04344 0.0
C3507 C 0.55015 0.28032 0.05271 0.0
C3508 C 0.56765 0.27734 0.04407 0.0
C3509 C 0.5681 0.27122 0.02525 0.0
C3510 C 0.5514 0.26659 0.0159 0.0
H3511 H 0.52805 0.21165 0.01676 0.0
H3512 H 0.54098 0.22934 0.00422 0.0
H3513 H 0.54047 0.22969 0.02945 0.0
H3514 H 0.5204 0.27688 0.05096 0.0
H3515 H 0.54923 0.28532 0.06706 0.0
H3516 H 0.58454 0.73488 0.48294 0.0
H3517 H 0.55423 0.74299 0.49719 0.0
H3518 H 0.52553 0.72 0.44899 0.0
H3519 H 0.55543 0.71158 0.43495 0.0
H3520 H 0.53059 0.76791 0.48237 0.0
H3521 H 0.49204 0.70157 0.49029 0.0
H3522 H 0.51729 0.70219 0.48754 0.0
H3523 H 0.50208 0.7022 0.46723 0.0
C3524 C 0.57173 0.73111 0.47563 0.0
C3525 C 0.57239 0.72276 0.45771 0.0
C3526 C 0.55444 0.73575 0.48381 0.0
C3527 C 0.53759 0.73185 0.47431 0.0
C3528 C 0.53828 0.7227 0.45686 0.0
H3529 H 0.44974 0.78755 0.43498 0.0
H3530 H 0.47911 0.7786 0.44981 0.0
C3531 C 0.55545 0.71812 0.44869 0.0
C3532 C 0.51946 0.73974 0.48081 0.0
H3533 H 0.47284 0.72898 0.48034 0.0
C3534 C 0.51799 0.75934 0.48261 0.0
C3535 C 0.50301 0.72864 0.48174 0.0
C3536 C 0.50376 0.70746 0.48182 0.0
C3537 C 0.50039 0.7682 0.4828 0.0
C3538 C 0.48399 0.75718 0.48072 0.0
C3539 C 0.48542 0.73751 0.48148 0.0
C3540 C 0.4661 0.76543 0.47399 0.0
C3541 C 0.49962 0.78934 0.48402 0.0
C3542 C 0.4489 0.76102 0.4826 0.0
C3543 C 0.43193 0.76598 0.47396 0.0
C3544 C 0.43196 0.77516 0.45645 0.0
C3545 C 0.44921 0.78036 0.44839 0.0
C3546 C 0.46607 0.77547 0.45702 0.0
H3547 H 0.51102 0.79474 0.49322 0.0
H3548 H 0.50182 0.7954 0.46982 0.0
H3549 H 0.48589 0.79431 0.48953 0.0
H3550 H 0.44862 0.7531 0.4956 0.0
H3551 H 0.41885 0.76177 0.48051 0.0
H3552 H 0.08275 0.76627 0.51331 0.0
H3553 H 0.05448 0.75726 0.49572 0.0
H3554 H 0.01992 0.77855 0.54077 0.0
H3555 H 0.04769 0.78798 0.55793 0.0
H3556 H 0.0307 0.73152 0.506 0.0
H3557 H 0.9891 0.79544 0.49769 0.0
H3558 H 0.01396 0.79642 0.50278 0.0
H3559 H 0.9969 0.79526 0.52157 0.0
C3560 C 0.06909 0.76951 0.51917 0.0
C3561 C 0.06748 0.77768 0.53711 0.0
C3562 C 0.05295 0.76435 0.50909 0.0
C3563 C 0.03501 0.76751 0.51672 0.0
C3564 C 0.0335 0.77648 0.53422 0.0
H3565 H 0.95521 0.70687 0.55567 0.0
H3566 H 0.98239 0.71597 0.53747 0.0
C3567 C 0.04949 0.78162 0.54422 0.0
C3568 C 0.01791 0.75893 0.50839 0.0
H3569 H 0.97079 0.76698 0.50834 0.0
C3570 C 0.01764 0.73937 0.50576 0.0
C3571 C 0.00085 0.76906 0.50708 0.0
C3572 C 0.00033 0.79024 0.5072 0.0
C3573 C 0.00059 0.72951 0.50502 0.0
C3574 C 0.98355 0.73943 0.50764 0.0
C3575 C 0.98382 0.75917 0.50703 0.0
C3576 C 0.96661 0.73015 0.51558 0.0
C3577 C 0.0011 0.70845 0.50282 0.0
C3578 C 0.94843 0.73485 0.50941 0.0
C3579 C 0.93267 0.72991 0.52015 0.0
C3580 C 0.93493 0.72035 0.53732 0.0
C3581 C 0.95298 0.7144 0.54262 0.0
C3582 C 0.96861 0.71935 0.53198 0.0
H3583 H 0.01187 0.70439 0.49228 0.0
H3584 H 0.00524 0.70192 0.51637 0.0
H3585 H 0.98728 0.70271 0.49839 0.0
H3586 H 0.94651 0.74329 0.49688 0.0
H3587 H 0.91893 0.73467 0.51568 0.0
H3588 H 0.98498 0.4163 0.73815 0.0
H3589 H 0.00046 0.44507 0.74876 0.0
H3590 H 0.96497 0.47775 0.71216 0.0
H3591 H 0.94914 0.44914 0.7018 0.0
H3592 H 0.01265 0.48813 0.73068 0.0
H3593 H 0.94788 0.47663 0.77317 0.0
H3594 H 0.96037 0.4575 0.76221 0.0
H3595 H 0.94601 0.47282 0.74825 0.0
C3596 C 0.98116 0.42949 0.73159 0.0
C3597 C 0.96555 0.4306 0.71951 0.0
C3598 C 0.9901 0.44592 0.73764 0.0
C3599 C 0.98367 0.46346 0.73138 0.0
C3600 C 0.97012 0.46428 0.71709 0.0
H3601 H 0.97672 0.57755 0.75253 0.0
H3602 H 0.99078 0.54777 0.74325 0.0
C3603 C 0.961 0.44794 0.71127 0.0
C3604 C 0.98634 0.48018 0.7433 0.0
H3605 H 0.96205 0.50622 0.77508 0.0
C3606 C 0.00184 0.49205 0.74068 0.0
C3607 C 0.97243 0.48492 0.75663 0.0
C3608 C 0.95577 0.47229 0.76041 0.0
C3609 C 0.0032 0.50922 0.75044 0.0
C3610 C 0.98839 0.51471 0.76261 0.0
C3611 C 0.97353 0.50215 0.76591 0.0
C3612 C 0.98623 0.5341 0.77011 0.0
C3613 C 0.02033 0.5213 0.74744 0.0
C3614 C 0.97953 0.53678 0.78853 0.0
C3615 C 0.97068 0.55357 0.79352 0.0
C3616 C 0.96918 0.56818 0.78043 0.0
C3617 C 0.97801 0.56648 0.76291 0.0
C3618 C 0.98623 0.54944 0.75766 0.0
H3619 H 0.033 0.51243 0.74527 0.0
H3620 H 0.01838 0.52985 0.73455 0.0
H3621 H 0.02289 0.53085 0.75951 0.0
H3622 H 0.97943 0.52522 0.79845 0.0
H3623 H 0.96385 0.55464 0.80709 0.0
H3624 H 0.05512 0.05804 0.68927 0.0
H3625 H 0.04437 0.02625 0.69669 0.0
H3626 H 0.02032 0.04666 0.74852 0.0
H3627 H 0.02983 0.07855 0.74038 0.0
H3628 H 0.06043 0.0104 0.72374 0.0
H3629 H 0.98476 0.00517 0.73916 0.0
H3630 H 0.99455 0.02488 0.72652 0.0
H3631 H 0.99461 0.02452 0.75187 0.0
C3632 C 0.04671 0.05579 0.70176 0.0
C3633 C 0.04332 0.07059 0.71431 0.0
C3634 C 0.0406 0.03765 0.70604 0.0
C3635 C 0.03158 0.03394 0.72324 0.0
C3636 C 0.02681 0.04908 0.73499 0.0
H3637 H 0.0672 0.94335 0.79134 0.0
H3638 H 0.05604 0.97377 0.77992 0.0
C3639 C 0.03239 0.06734 0.73039 0.0
C3640 C 0.03117 0.01443 0.73067 0.0
H3641 H 0.00507 0.98303 0.75606 0.0
C3642 C 0.04813 0.00434 0.73039 0.0
C3643 C 0.01521 0.00636 0.73944 0.0
C3644 C 0.99623 0.01576 0.73907 0.0
C3645 C 0.04981 0.98688 0.73917 0.0
C3646 C 0.03433 0.97951 0.74919 0.0
C3647 C 0.01706 0.98902 0.74879 0.0
C3648 C 0.03633 0.96192 0.76003 0.0
C3649 C 0.06833 0.97656 0.7378 0.0
C3650 C 0.02778 0.94535 0.75368 0.0
C3651 C 0.03391 0.92793 0.76045 0.0
C3652 C 0.0488 0.927 0.77341 0.0
C3653 C 0.05585 0.9437 0.78119 0.0
C3654 C 0.04949 0.96106 0.77468 0.0
H3655 H 0.07681 0.98152 0.72566 0.0
H3656 H 0.07661 0.97911 0.75076 0.0
H3657 H 0.06612 0.96118 0.73635 0.0
H3658 H 0.01757 0.94578 0.7424 0.0
H3659 H 0.02824 0.91525 0.75422 0.0
H3660 H 0.71617 0.93691 0.4495 0.0
H3661 H 0.72276 0.95398 0.47824 0.0
H3662 H 0.74289 0.00123 0.44601 0.0
H3663 H 0.73658 0.98392 0.41688 0.0
H3664 H 0.76838 0.99046 0.47097 0.0
H3665 H 0.70149 0.99615 0.50859 0.0
H3666 H 0.70344 0.97254 0.50014 0.0
H3667 H 0.70243 0.99176 0.48359 0.0
C3668 C 0.72159 0.95109 0.44844 0.0
C3669 C 0.72603 0.95896 0.43089 0.0
C3670 C 0.72514 0.96098 0.46494 0.0
C3671 C 0.73306 0.97905 0.46434 0.0
C3672 C 0.7366 0.98739 0.44681 0.0
H3673 H 0.75801 0.98473 0.58251 0.0
H3674 H 0.75149 0.00225 0.55356 0.0
C3675 C 0.73296 0.97748 0.43019 0.0
C3676 C 0.7403 0.9874 0.48201 0.0
H3677 H 0.72922 0.98785 0.5285 0.0
C3678 C 0.75971 0.99062 0.4835 0.0
C3679 C 0.72905 0.98841 0.49835 0.0
C3680 C 0.70791 0.98725 0.49749 0.0
C3681 C 0.76842 0.99192 0.50114 0.0
C3682 C 0.75748 0.98944 0.51754 0.0
C3683 C 0.7378 0.9892 0.51598 0.0
C3684 C 0.76588 0.98257 0.53536 0.0
C3685 C 0.78942 0.99456 0.50197 0.0
C3686 C 0.7768 0.96612 0.53488 0.0
C3687 C 0.7805 0.95616 0.5513 0.0
C3688 C 0.77324 0.96231 0.56858 0.0
C3689 C 0.76382 0.97967 0.56939 0.0
C3690 C 0.76005 0.98967 0.55285 0.0
H3691 H 0.79407 0.00457 0.49093 0.0
H3692 H 0.79407 -0.00014 0.51589 0.0
H3693 H 0.79646 0.98093 0.49912 0.0
H3694 H 0.78109 0.96 0.52163 0.0
H3695 H 0.78789 0.94288 0.55025 0.0
H3696 H 0.29859 0.54724 0.43967 0.0
H3697 H 0.29449 0.53241 0.47042 0.0
H3698 H 0.23992 0.5122 0.45305 0.0
H3699 H 0.24489 0.52553 0.42197 0.0
H3700 H 0.27088 0.5468 0.49105 0.0
H3701 H 0.25046 0.47245 0.48934 0.0
H3702 H 0.26159 0.48358 0.46944 0.0
H3703 H 0.23639 0.4846 0.47243 0.0
C3704 C 0.28623 0.53873 0.44221 0.0
C3705 C 0.27204 0.53745 0.42863 0.0
C3706 C 0.28382 0.53029 0.45976 0.0
C3707 C 0.26683 0.52118 0.46424 0.0
C3708 C 0.25337 0.51861 0.45 0.0
H3709 H 0.19919 0.55246 0.55184 0.0
H3710 H 0.21124 0.53828 0.52301 0.0
C3711 C 0.25612 0.52643 0.43222 0.0
C3712 C 0.26128 0.5188 0.48425 0.0
H3713 H 0.23448 0.49185 0.51373 0.0
C3714 C 0.26355 0.53443 0.4961 0.0
C3715 C 0.25156 0.50279 0.49109 0.0
C3716 C 0.25008 0.48487 0.47989 0.0
C3717 C 0.25533 0.53505 0.51389 0.0
C3718 C 0.2441 0.51985 0.51991 0.0
C3719 C 0.24279 0.50364 0.5088 0.0
C3720 C 0.23262 0.52185 0.53702 0.0
C3721 C 0.25781 0.55251 0.52573 0.0
C3722 C 0.23985 0.51618 0.55444 0.0
C3723 C 0.23283 0.52414 0.57099 0.0
C3724 C 0.2188 0.53804 0.57013 0.0
C3725 C 0.21012 0.5419 0.55284 0.0
C3726 C 0.21692 0.53373 0.53639 0.0
H3727 H 0.26963 0.56137 0.52067 0.0
H3728 H 0.24476 0.56103 0.52516 0.0
H3729 H 0.26044 0.54874 0.54064 0.0
H3730 H 0.25207 0.50714 0.55512 0.0
H3731 H 0.23979 0.52095 0.58415 0.0
H3732 H 0.78908 0.051 0.95162 0.0
H3733 H 0.78103 0.03468 0.98032 0.0
H3734 H 0.75337 0.99121 0.94829 0.0
H3735 H 0.76099 0.00803 0.91916 0.0
H3736 H 0.73032 0.00427 0.97295 0.0
H3737 H 0.79517 0.99125 0.01171 0.0
H3738 H 0.7968 0.0149 0.00338 0.0
H3739 H 0.79544 0.99576 0.98672 0.0
C3740 C 0.78167 0.03773 0.95057 0.0
C3741 C 0.77541 0.03098 0.93313 0.0
C3742 C 0.77732 0.02819 0.96707 0.0
C3743 C 0.76681 0.01149 0.96657 0.0
C3744 C 0.76164 0.00397 0.94904 0.0
H3745 H 0.73696 0.01437 0.08438 0.0
H3746 H 0.74428 0.99548 0.05646 0.0
C3747 C 0.76601 0.01359 0.93241 0.0
C3748 C 0.75845 0.00445 0.98434 0.0
H3749 H 0.76872 0.00518 0.03105 0.0
C3750 C 0.73877 0.00368 0.98562 0.0
C3751 C 0.76924 0.00281 0.00096 0.0
C3752 C 0.79035 0.00099 0.00051 0.0
C3753 C 0.72973 0.00445 0.00311 0.0
C3754 C 0.74067 0.00662 0.01956 0.0
C3755 C 0.76023 0.00422 0.01843 0.0
C3756 C 0.73286 0.01559 0.0367 0.0
C3757 C 0.70855 0.00437 0.00365 0.0
C3758 C 0.72373 0.03299 0.03492 0.0
C3759 C 0.71958 0.04374 0.05072 0.0
C3760 C 0.72466 0.03748 0.06873 0.0
C3761 C 0.73286 0.01958 0.07068 0.0
C3762 C 0.73705 0.00877 0.05475 0.0
H3763 H 0.7029 0.99434 0.99309 0.0
H3764 H 0.70312 0.00047 0.01774 0.0
H3765 H 0.70323 0.01854 -0.00011 0.0
H3766 H 0.72085 0.03892 0.02121 0.0
H3767 H 0.71314 0.05739 0.04869 0.0
H3768 H 0.24111 0.47605 0.91544 0.0
H3769 H 0.25428 0.48853 0.94468 0.0
H3770 H 0.21551 0.4547 0.97662 0.0
H3771 H 0.20252 0.44188 0.94755 0.0
H3772 H 0.23931 0.50284 0.98512 0.0
H3773 H 0.2726 0.43243 0.97882 0.0
H3774 H 0.26193 0.44428 0.95911 0.0
H3775 H 0.24747 0.43267 0.97623 0.0
C3776 C 0.23486 0.47187 0.92867 0.0
C3777 C 0.22109 0.45768 0.9293 0.0
C3778 C 0.24236 0.47908 0.94535 0.0
C3779 C 0.23596 0.47235 0.9627 0.0
C3780 C 0.2206 0.46001 0.96329 0.0
H3781 H 0.25674 0.47237 0.07794 0.0
H3782 H 0.24863 0.48418 0.04686 0.0
C3783 C 0.21329 0.45261 0.9467 0.0
C3784 C 0.24779 0.47433 0.97958 0.0
H3785 H 0.27549 0.44781 0.00801 0.0
C3786 C 0.2475 0.49099 0.9901 0.0
C3787 C 0.25886 0.45903 0.98564 0.0
C3788 C 0.26043 0.44113 0.97431 0.0
C3789 C 0.25725 0.49228 0.00727 0.0
C3790 C 0.26705 0.47633 0.01412 0.0
C3791 C 0.2681 0.46013 0.0029 0.0
C3792 C 0.27443 0.47485 0.03359 0.0
C3793 C 0.25679 0.51061 0.01787 0.0
C3794 C 0.2919 0.46613 0.0368 0.0
C3795 C 0.29614 0.45862 0.05442 0.0
C3796 C 0.28331 0.46039 0.06924 0.0
C3797 C 0.26693 0.47106 0.0667 0.0
C3798 C 0.26237 0.47799 0.04891 0.0
H3799 H 0.25625 0.5227 0.008 0.0
H3800 H 0.24388 0.51115 0.02661 0.0
H3801 H 0.26922 0.51224 0.02715 0.0
H3802 H 0.30149 0.46361 0.02526 0.0
H3803 H 0.30886 0.45043 0.05614 0.0
H3804 H 0.41573 0.73399 0.98534 0.0
H3805 H 0.44433 0.74531 0.001 0.0
H3806 H 0.47724 0.72798 0.95312 0.0
H3807 H 0.44919 0.71627 0.93779 0.0
H3808 H 0.49499 0.72078 0.98679 0.0
H3809 H 0.46839 0.79449 0.98413 0.0
H3810 H 0.45528 0.77715 0.99701 0.0
H3811 H 0.45643 0.77584 0.97185 0.0
C3812 C 0.42913 0.73232 0.97833 0.0
C3813 C 0.43012 0.72451 0.96016 0.0
C3814 C 0.44543 0.7389 0.98725 0.0
C3815 C 0.46287 0.73779 0.97809 0.0
C3816 C 0.46394 0.72902 0.96048 0.0
H3817 H 0.54728 0.79125 0.93629 0.0
H3818 H 0.51885 0.78288 0.95302 0.0
C3819 C 0.44781 0.72243 0.95164 0.0
C3820 C 0.48003 0.74698 0.9855 0.0
H3821 H 0.5008 0.79017 0.98562 0.0
C3822 C 0.4963 0.73597 0.98719 0.0
C3823 C 0.48157 0.76679 0.98627 0.0
C3824 C 0.46456 0.77937 0.98469 0.0
C3825 C 0.51424 0.74415 0.98691 0.0
C3826 C 0.51583 0.76395 0.98549 0.0
C3827 C 0.49951 0.77501 0.98654 0.0
C3828 C 0.53315 0.77278 0.97792 0.0
C3829 C 0.53117 0.73139 0.98591 0.0
C3830 C 0.55072 0.77087 0.98673 0.0
C3831 C 0.56722 0.77542 0.97695 0.0
C3832 C 0.56628 0.78207 0.95834 0.0
C3833 C 0.54857 0.78579 0.95044 0.0
C3834 C 0.53222 0.78113 0.96009 0.0
H3835 H 0.52723 0.71629 0.9855 0.0
H3836 H 0.53963 0.73459 0.97319 0.0
H3837 H 0.54017 0.73368 0.99842 0.0
H3838 H 0.55174 0.76493 0.00069 0.0
H3839 H 0.58065 0.77262 0.98354 0.0
H3840 H 0.44633 0.28546 0.55995 0.0
H3841 H 0.47563 0.27859 0.54406 0.0
H3842 H 0.44528 0.2511 0.49932 0.0
H3843 H 0.4156 0.25761 0.5156 0.0
H3844 H 0.47 0.22818 0.51359 0.0
H3845 H 0.50751 0.29412 0.50109 0.0
H3846 H 0.49864 0.2951 0.52459 0.0
H3847 H 0.48243 0.29366 0.5051 0.0
C3848 C 0.44579 0.27841 0.54647 0.0
C3849 C 0.42868 0.27183 0.53918 0.0
C3850 C 0.46261 0.2747 0.53721 0.0
C3851 C 0.46274 0.2645 0.52033 0.0
C3852 C 0.44553 0.25912 0.51225 0.0
H3853 H 0.58165 0.23489 0.51686 0.0
H3854 H 0.55222 0.24306 0.50086 0.0
C3855 C 0.42858 0.26288 0.52156 0.0
C3856 C 0.48081 0.25654 0.51362 0.0
H3857 H 0.52734 0.26775 0.51369 0.0
C3858 C 0.4825 0.23688 0.51287 0.0
C3859 C 0.49717 0.26771 0.512 0.0
C3860 C 0.49624 0.28882 0.51052 0.0
C3861 C 0.50018 0.2282 0.51331 0.0
C3862 C 0.51645 0.23947 0.51501 0.0
C3863 C 0.51486 0.25904 0.51297 0.0
C3864 C 0.53426 0.23179 0.52264 0.0
C3865 C 0.50116 0.20703 0.51326 0.0
C3866 C 0.53393 0.22259 0.54009 0.0
C3867 C 0.5506 0.21797 0.54923 0.0
C3868 C 0.56805 0.22261 0.54124 0.0
C3869 C 0.56843 0.2311 0.52338 0.0
C3870 C 0.55165 0.23578 0.51421 0.0
H3871 H 0.49001 0.20105 0.5041 0.0
H3872 H 0.51505 0.20189 0.50833 0.0
H3873 H 0.49865 0.20171 0.5277 0.0
H3874 H 0.52075 0.21984 0.54717 0.0
H3875 H 0.54975 0.21135 0.56291 0.0
H3876 H 0.95124 0.21455 0.44304 0.0
H3877 H 0.97852 0.22417 0.46099 0.0
H3878 H 0.94263 0.25084 0.50196 0.0
H3879 H 0.91494 0.24146 0.48363 0.0
H3880 H 0.96825 0.27471 0.48976 0.0
H3881 H 0.00589 0.2102 0.50776 0.0
H3882 H 0.99907 0.20815 0.48365 0.0
H3883 H 0.98124 0.20996 0.50163 0.0
C3884 C 0.94905 0.22211 0.45607 0.0
C3885 C 0.93093 0.22742 0.46179 0.0
C3886 C 0.96471 0.22739 0.46652 0.0
C3887 C 0.96267 0.23797 0.48305 0.0
C3888 C 0.94453 0.2425 0.48937 0.0
H3889 H 0.0799 0.2641 0.48736 0.0
H3890 H 0.05096 0.26033 0.50567 0.0
C3891 C 0.92873 0.23712 0.47889 0.0
C3892 C 0.97966 0.24665 0.49146 0.0
H3893 H 0.02616 0.23643 0.49549 0.0
C3894 C 0.98083 0.26635 0.49178 0.0
C3895 C 0.99602 0.23595 0.49501 0.0
C3896 C 0.99537 0.21489 0.49722 0.0
C3897 C 0.99834 0.27541 0.4924 0.0
C3898 C 0.01492 0.26444 0.49211 0.0
C3899 C 0.01353 0.24496 0.49504 0.0
C3900 C 0.03276 0.2718 0.48415 0.0
C3901 C 0.99887 0.29658 0.49191 0.0
C3902 C 0.03232 0.28025 0.46631 0.0
C3903 C 0.04874 0.28244 0.45592 0.0
C3904 C 0.066 0.27601 0.46299 0.0
C3905 C 0.06679 0.26916 0.48152 0.0
C3906 C 0.05025 0.26697 0.49199 0.0
H3907 H 0.98773 0.30247 0.50112 0.0
H3908 H 0.0127 0.30217 0.4965 0.0
H3909 H 0.99594 0.30151 0.47741 0.0
H3910 H 0.01909 0.28367 0.45962 0.0
H3911 H 0.04768 0.28794 0.44176 0.0
H3912 H 0.51768 0.08583 0.76474 0.0
H3913 H 0.50177 0.05584 0.75892 0.0
H3914 H 0.55034 0.02617 0.77986 0.0
H3915 H 0.56595 0.05578 0.78612 0.0
H3916 H 0.5137 0.03207 0.73374 0.0
H3917 H 0.51034 0.9929 0.7999 0.0
H3918 H 0.5139 0.01804 0.79948 0.0
H3919 H 0.53362 0.00214 0.79784 0.0
C3920 C 0.52467 0.07291 0.76872 0.0
C3921 C 0.54319 0.07319 0.77568 0.0
C3922 C 0.51557 0.05577 0.76536 0.0
C3923 C 0.52474 0.03869 0.76911 0.0
C3924 C 0.54269 0.03907 0.77728 0.0
H3925 H 0.559 0.95168 0.70872 0.0
H3926 H 0.54504 0.98082 0.71956 0.0
C3927 C 0.55176 0.0561 0.78064 0.0
C3928 C 0.51749 0.02062 0.76158 0.0
H3929 H 0.51871 0.97381 0.77163 0.0
C3930 C 0.51411 0.01937 0.74217 0.0
C3931 C 0.51737 0.00399 0.77249 0.0
C3932 C 0.51878 0.00443 0.79362 0.0
C3933 C 0.51317 0.00188 0.73313 0.0
C3934 C 0.51614 0.98532 0.7437 0.0
C3935 C 0.51694 0.9865 0.76338 0.0
C3936 C 0.52217 0.96753 0.73465 0.0
C3937 C 0.51016 0.00141 0.71216 0.0
C3938 C 0.51402 0.9502 0.73948 0.0
C3939 C 0.52218 0.93333 0.73337 0.0
C3940 C 0.53877 0.93358 0.72262 0.0
C3941 C 0.54629 0.95097 0.71707 0.0
C3942 C 0.53815 0.96771 0.72309 0.0
H3943 H 0.50046 0.01283 0.70774 0.0
H3944 H 0.52378 0.00381 0.70495 0.0
H3945 H 0.50432 0.98772 0.70747 0.0
H3946 H 0.50181 0.94972 0.74855 0.0
H3947 H 0.51609 0.92014 0.73793 0.0
H3948 H 0.48799 0.58603 0.74029 0.0
H3949 H 0.50779 0.55836 0.74595 0.0
H3950 H 0.46457 0.52292 0.72238 0.0
H3951 H 0.4452 0.55023 0.71634 0.0
H3952 H 0.49887 0.5325 0.77006 0.0
H3953 H 0.5091 0.49537 0.70377 0.0
H3954 H 0.50275 0.51997 0.70429 0.0
H3955 H 0.48485 0.50193 0.70434 0.0
C3956 C 0.48308 0.57239 0.73565 0.0
C3957 C 0.46495 0.57027 0.72805 0.0
C3958 C 0.49439 0.55659 0.73895 0.0
C3959 C 0.48783 0.53851 0.73442 0.0
C3960 C 0.47029 0.53666 0.72555 0.0
H3961 H 0.4509 0.45433 0.78824 0.0
H3962 H 0.46917 0.48237 0.78243 0.0
C3963 C 0.45905 0.55234 0.72231 0.0
C3964 C 0.49707 0.52134 0.7419 0.0
H3965 H 0.49904 0.47485 0.731 0.0
C3966 C 0.49968 0.51997 0.76142 0.0
C3967 C 0.49911 0.505 0.73077 0.0
C3968 C 0.49902 0.50577 0.7096 0.0
C3969 C 0.50105 0.50238 0.77023 0.0
C3970 C 0.49912 0.48589 0.75929 0.0
C3971 C 0.49982 0.4874 0.73961 0.0
C3972 C 0.49159 0.46816 0.76742 0.0
C3973 C 0.5031 0.50168 0.7913 0.0
C3974 C 0.49819 0.45051 0.76144 0.0
C3975 C 0.48744 0.43429 0.76456 0.0
C3976 C 0.46987 0.43558 0.77354 0.0
C3977 C 0.4643 0.45291 0.78115 0.0
C3978 C 0.47496 0.46901 0.77803 0.0
H3979 H 0.51331 0.51249 0.79606 0.0
H3980 H 0.4894 0.50505 0.79796 0.0
H3981 H 0.50789 0.48767 0.79624 0.0
H3982 H 0.51092 0.44947 0.75317 0.0
H3983 H 0.49209 0.42112 0.75851 0.0
H3984 H 0.07477 0.24517 0.97477 0.0
H3985 H 0.04328 0.24857 0.98753 0.0
H3986 H 0.02896 0.19325 0.96697 0.0
H3987 H 0.06013 0.19071 0.95267 0.0
H3988 H 0.00779 0.21571 0.95179 0.0
H3989 H 0.00588 0.23694 0.02579 0.0
H3990 H 0.02276 0.25161 0.01434 0.0
H3991 H 0.02667 0.22654 0.01559 0.0
C3992 C 0.06513 0.23341 0.97374 0.0
C3993 C 0.06967 0.21775 0.9627 0.0
C3994 C 0.04709 0.23527 0.98122 0.0
C3995 C 0.03355 0.22118 0.97828 0.0
C3996 C 0.03906 0.2044 0.96935 0.0
H3997 H 0.91294 0.24787 0.97606 0.0
H3998 H 0.94194 0.23556 0.99006 0.0
C3999 C 0.05686 0.20288 0.96123 0.0
C4000 C 0.01325 0.22595 0.97986 0.0
H4001 H 0.98208 0.25249 0.00511 0.0
C4002 C 0.00208 0.22312 0.96382 0.0
C4003 C 0.00549 0.23569 0.99543 0.0
C4004 C 0.01585 0.23764 0.01379 0.0
C4005 C 0.98417 0.23095 0.96232 0.0
C4006 C 0.97733 0.24239 0.977 0.0
C4007 C 0.98766 0.24409 0.99368 0.0
C4008 C 0.96025 0.25373 0.97402 0.0
C4009 C 0.97309 0.22784 0.94447 0.0
C4010 C 0.96105 0.26869 0.96122 0.0
C4011 C 0.94464 0.27547 0.95298 0.0
C4012 C 0.92719 0.26757 0.95769 0.0
C4013 C 0.92623 0.25424 0.97225 0.0
C4014 C 0.94276 0.24721 0.98029 0.0
H4015 H 0.97827 0.21542 0.93653 0.0
H4016 H 0.95794 0.22581 0.94759 0.0
H4017 H 0.9745 0.24038 0.9353 0.0
H4018 H 0.97449 0.27384 0.95623 0.0
H4019 H 0.94571 0.28584 0.94188 0.0
H4020 H 0.44032 0.05189 0.29043 0.0
H4021 H 0.45651 0.02287 0.28297 0.0
H4022 H 0.49949 0.05404 0.25364 0.0
H4023 H 0.48291 0.08341 0.26079 0.0
H4024 H 0.48452 0.02922 0.23124 0.0
H4025 H 0.50062 0.99151 0.29625 0.0
H4026 H 0.47709 6e-05 0.29841 0.0
H4027 H 0.49628 0.01654 0.29614 0.0
C4028 C 0.45353 0.05267 0.28289 0.0
C4029 C 0.46019 0.0699 0.27596 0.0
C4030 C 0.46296 0.03602 0.27882 0.0
C4031 C 0.47938 0.03619 0.26788 0.0
C4032 C 0.48692 0.05355 0.26222 0.0
H4033 H 0.48092 0.91751 0.23899 0.0
H4034 H 0.49816 0.94677 0.24505 0.0
C4035 C 0.47746 0.07033 0.26635 0.0
C4036 C 0.48598 0.01826 0.2595 0.0
H4037 H 0.48693 0.97167 0.27042 0.0
C4038 C 0.48581 0.01669 0.23982 0.0
C4039 C 0.48834 0.00185 0.27047 0.0
C4040 C 0.49081 0.00268 0.29149 0.0
C4041 C 0.4851 0.99904 0.23107 0.0
C4042 C 0.48409 0.98269 0.24231 0.0
C4043 C 0.48713 0.98421 0.26175 0.0
C4044 C 0.47593 0.96495 0.23501 0.0
C4045 C 0.48405 0.99819 0.20993 0.0
C4046 C 0.45792 0.96543 0.22698 0.0
C4047 C 0.44809 0.94886 0.22358 0.0
C4048 C 0.45598 0.93138 0.22826 0.0
C4049 C 0.4745 0.93077 0.23517 0.0
C4050 C 0.48435 0.94747 0.23867 0.0
H4051 H 0.49293 0.00934 0.20356 0.0
H4052 H 0.48866 0.98431 0.20447 0.0
H4053 H 0.46936 0.00077 0.20538 0.0
H4054 H 0.45086 0.97868 0.22449 0.0
H4055 H 0.43389 0.94981 0.21817 0.0
H4056 H 0.56039 0.45023 0.29408 0.0
H4057 H 0.54515 0.47978 0.28658 0.0
H4058 H 0.50048 0.44994 0.25844 0.0
H4059 H 0.51604 0.42006 0.26562 0.0
H4060 H 0.51631 0.47384 0.23541 0.0
H4061 H 0.50222 0.51284 0.30022 0.0
H4062 H 0.52548 0.50347 0.30203 0.0
H4063 H 0.50569 0.48767 0.30029 0.0
C4064 C 0.54701 0.44987 0.28681 0.0
C4065 C 0.53957 0.43283 0.2802 0.0
C4066 C 0.53814 0.46683 0.28272 0.0
C4067 C 0.52153 0.46715 0.27206 0.0
C4068 C 0.51321 0.45004 0.26678 0.0
H4069 H 0.52052 0.58559 0.241 0.0
H4070 H 0.50361 0.5564 0.24811 0.0
C4071 C 0.52211 0.43297 0.27094 0.0
C4072 C 0.51546 0.4852 0.26353 0.0
H4073 H 0.51559 0.53194 0.27383 0.0
C4074 C 0.51542 0.48651 0.24383 0.0
C4075 C 0.51367 0.50179 0.27432 0.0
C4076 C 0.51154 0.50128 0.29539 0.0
C4077 C 0.51633 0.50402 0.23483 0.0
C4078 C 0.51773 0.5205 0.24583 0.0
C4079 C 0.51505 0.51929 0.26535 0.0
C4080 C 0.52575 0.53812 0.2381 0.0
C4081 C 0.51708 0.50458 0.21367 0.0
C4082 C 0.54363 0.53754 0.22977 0.0
C4083 C 0.55329 0.55408 0.22576 0.0
C4084 C 0.54536 0.57163 0.23013 0.0
C4085 C 0.52698 0.57228 0.23742 0.0
C4086 C 0.51731 0.55563 0.24152 0.0
H4087 H 0.50811 0.49335 0.20756 0.0
H4088 H 0.51241 0.51839 0.20809 0.0
H4089 H 0.53171 0.50193 0.20896 0.0
H4090 H 0.55069 0.52425 0.22744 0.0
H4091 H 0.56737 0.55307 0.22008 0.0
H4092 H 0.07608 0.7184 0.01431 0.0
H4093 H 0.04801 0.72237 0.99428 0.0
H4094 H 0.0295 0.76797 0.02971 0.0
H4095 H 0.05691 0.76394 0.04955 0.0
H4096 H 0.01179 0.71801 0.00904 0.0
H4097 H 0.01708 0.78823 0.97765 0.0
H4098 H 0.03757 0.77488 0.98468 0.0
H4099 H 0.02514 0.78925 0.00148 0.0
C4100 C 0.06614 0.72949 0.01747 0.0
C4101 C 0.06846 0.74074 0.03354 0.0
C4102 C 0.05023 0.7318 0.00602 0.0
C4103 C 0.03689 0.74575 0.01026 0.0
C4104 C 0.03982 0.75748 0.02582 0.0
H4105 H 0.94623 0.7777 0.04984 0.0
H4106 H 0.97454 0.77391 0.03104 0.0
C4107 C 0.05537 0.75497 0.03734 0.0
C4108 C 0.01827 0.74643 0.00103 0.0
H4109 H 0.98573 0.78023 0.9916 0.0
C4110 C 0.00606 0.7313 0.00423 0.0
C4111 C 0.01087 0.76363 0.9944 0.0
C4112 C 0.02346 0.77983 0.98916 0.0
C4113 C 0.98652 0.73395 0.00425 0.0
C4114 C 0.97923 0.75214 0.00081 0.0
C4115 C 0.99136 0.76637 0.99454 0.0
C4116 C 0.96102 0.75778 0.00907 0.0
C4117 C 0.97401 0.71799 0.01048 0.0
C4118 C 0.94383 0.75068 0.0025 0.0
C4119 C 0.92749 0.75291 0.0133 0.0
C4120 C 0.92831 0.76207 0.03081 0.0
C4121 C 0.94524 0.7704 0.03651 0.0
C4122 C 0.9614 0.76834 0.02571 0.0
H4123 H 0.98193 0.70467 0.01242 0.0
H4124 H 0.96707 0.72165 0.02396 0.0
H4125 H 0.96285 0.71559 -0.00014 0.0
H4126 H 0.94325 0.74259 0.98963 0.0
H4127 H 0.91458 0.74636 0.00858 0.0
loop_
_geom_bond_atom_site_label_1
_geom_bond_atom_site_label_2
_geom_bond_distance
_geom_bond_site_symmetry_2
_ccdc_geom_bond_type
Co0 O1 2.216 . S
Co0 O2 2.091 . S
Co0 O4 2.004 . S
Co0 O10 2.021 . S
Co0 O12 2.137 . S
Co0 O13 2.244 . S
O1 Co0 2.216 . S
O1 C8 1.247 . S
O2 Co0 2.091 . S
O2 C8 1.261 . S
C3 O12 1.247 . S
C3 O13 1.272 . S
O4 Co0 2.004 . S
O4 C9 1.259 . S
Co5 O6 2.061 . S
Co5 O11 2.052 . S
Co5 O13 2.135 . S
O6 Co5 2.061 . S
O6 C9 1.235 . S
C7 O10 1.238 . S
C7 O11 1.241 . S
C8 O1 1.247 . S
C8 O2 1.261 . S
C9 O4 1.259 . S
C9 O6 1.235 . S
O10 Co0 2.021 . S
O10 C7 1.238 . S
O11 Co5 2.052 . S
O11 C7 1.241 . S
O12 Co0 2.137 . S
O12 C3 1.247 . S
O13 Co0 2.244 . S
O13 C3 1.272 . S
O13 Co5 2.135 . S
Co14 O15 2.216 . S
Co14 O16 2.091 . S
Co14 O18 2.004 . S
Co14 O24 2.021 . S
Co14 O26 2.137 . S
Co14 O27 2.244 . S
O15 Co14 2.216 . S
O15 C22 1.247 . S
O16 Co14 2.091 . S
O16 C22 1.261 . S
C17 O26 1.247 . S
C17 O27 1.272 . S
O18 Co14 2.004 . S
O18 C23 1.259 . S
Co19 O20 2.061 . S
Co19 O25 2.052 . S
Co19 O27 2.135 . S
O20 Co19 2.061 . S
O20 C23 1.235 . S
C21 O24 1.238 . S
C21 O25 1.241 . S
C22 O15 1.247 . S
C22 O16 1.261 . S
C23 O18 1.259 . S
C23 O20 1.235 . S
O24 Co14 2.021 . S
O24 C21 1.238 . S
O25 Co19 2.052 . S
O25 C21 1.241 . S
O26 Co14 2.137 . S
O26 C17 1.247 . S
O27 Co14 2.244 . S
O27 C17 1.272 . S
O27 Co19 2.135 . S
Co28 O29 2.216 . S
Co28 O30 2.091 . S
Co28 O32 2.004 . S
Co28 O38 2.021 . S
Co28 O40 2.137 . S
Co28 O41 2.244 . S
O29 Co28 2.216 . S
O29 C36 1.247 . S
O30 Co28 2.091 . S
O30 C36 1.261 . S
C31 O40 1.247 . S
C31 O41 1.272 . S
O32 Co28 2.004 . S
O32 C37 1.259 . S
Co33 O34 2.061 . S
Co33 O39 2.052 . S
Co33 O41 2.135 . S
O34 Co33 2.061 . S
O34 C37 1.235 . S
C35 O38 1.238 . S
C35 O39 1.241 . S
C36 O29 1.247 . S
C36 O30 1.261 . S
C37 O32 1.259 . S
C37 O34 1.235 . S
O38 Co28 2.021 . S
O38 C35 1.238 . S
O39 Co33 2.052 . S
O39 C35 1.241 . S
O40 Co28 2.137 . S
O40 C31 1.247 . S
O41 Co28 2.244 . S
O41 C31 1.272 . S
O41 Co33 2.135 . S
Co42 O43 2.216 . S
Co42 O44 2.091 . S
Co42 O46 2.004 . S
Co42 O52 2.021 . S
Co42 O54 2.137 . S
Co42 O55 2.244 . S
O43 Co42 2.216 . S
O43 C50 1.247 . S
O44 Co42 2.091 . S
O44 C50 1.261 . S
C45 O54 1.247 . S
C45 O55 1.272 . S
O46 Co42 2.004 . S
O46 C51 1.259 . S
Co47 O48 2.061 . S
Co47 O53 2.052 . S
Co47 O55 2.135 . S
O48 Co47 2.061 . S
O48 C51 1.235 . S
C49 O52 1.238 . S
C49 O53 1.241 . S
C50 O43 1.247 . S
C50 O44 1.261 . S
C51 O46 1.259 . S
C51 O48 1.235 . S
O52 Co42 2.021 . S
O52 C49 1.238 . S
O53 Co47 2.052 . S
O53 C49 1.241 . S
O54 Co42 2.137 . S
O54 C45 1.247 . S
O55 Co42 2.244 . S
O55 C45 1.272 . S
O55 Co47 2.135 . S
Co56 O57 2.216 . S
Co56 O58 2.091 . S
Co56 O60 2.004 . S
Co56 O66 2.021 . S
Co56 O68 2.137 . S
Co56 O69 2.244 . S
O57 Co56 2.216 . S
O57 C64 1.247 . S
O58 Co56 2.091 . S
O58 C64 1.261 . S
C59 O68 1.247 . S
C59 O69 1.272 . S
O60 Co56 2.004 . S
O60 C65 1.259 . S
Co61 O62 2.061 . S
Co61 O67 2.052 . S
Co61 O69 2.135 . S
O62 Co61 2.061 . S
O62 C65 1.235 . S
C63 O66 1.238 . S
C63 O67 1.241 . S
C64 O57 1.247 . S
C64 O58 1.261 . S
C65 O60 1.259 . S
C65 O62 1.235 . S
O66 Co56 2.021 . S
O66 C63 1.238 . S
O67 Co61 2.052 . S
O67 C63 1.241 . S
O68 Co56 2.137 . S
O68 C59 1.247 . S
O69 Co56 2.244 . S
O69 C59 1.272 . S
O69 Co61 2.135 . S
Co70 O71 2.216 . S
Co70 O72 2.091 . S
Co70 O74 2.004 . S
Co70 O80 2.021 . S
Co70 O82 2.137 . S
Co70 O83 2.244 . S
O71 Co70 2.216 . S
O71 C78 1.247 . S
O72 Co70 2.091 . S
O72 C78 1.261 . S
C73 O82 1.247 . S
C73 O83 1.272 . S
O74 Co70 2.004 . S
O74 C79 1.259 . S
Co75 O76 2.061 . S
Co75 O81 2.052 . S
Co75 O83 2.135 . S
O76 Co75 2.061 . S
O76 C79 1.235 . S
C77 O80 1.238 . S
C77 O81 1.241 . S
C78 O71 1.247 . S
C78 O72 1.261 . S
C79 O74 1.259 . S
C79 O76 1.235 . S
O80 Co70 2.021 . S
O80 C77 1.238 . S
O81 Co75 2.052 . S
O81 C77 1.241 . S
O82 Co70 2.137 . S
O82 C73 1.247 . S
O83 Co70 2.244 . S
O83 C73 1.272 . S
O83 Co75 2.135 . S
Co84 O85 2.216 . S
Co84 O86 2.091 . S
Co84 O88 2.004 . S
Co84 O94 2.021 . S
Co84 O96 2.137 . S
Co84 O97 2.244 . S
O85 Co84 2.216 . S
O85 C92 1.247 . S
O86 Co84 2.091 . S
O86 C92 1.261 . S
C87 O96 1.247 . S
C87 O97 1.272 . S
O88 Co84 2.004 . S
O88 C93 1.259 . S
Co89 O90 2.061 . S
Co89 O95 2.052 . S
Co89 O97 2.135 . S
O90 Co89 2.061 . S
O90 C93 1.235 . S
C91 O94 1.238 . S
C91 O95 1.241 . S
C92 O85 1.247 . S
C92 O86 1.261 . S
C93 O88 1.259 . S
C93 O90 1.235 . S
O94 Co84 2.021 . S
O94 C91 1.238 . S
O95 Co89 2.052 . S
O95 C91 1.241 . S
O96 Co84 2.137 . S
O96 C87 1.247 . S
O97 Co84 2.244 . S
O97 C87 1.272 . S
O97 Co89 2.135 . S
Co98 O99 2.216 . S
Co98 O100 2.091 . S
Co98 O102 2.004 . S
Co98 O108 2.021 . S
Co98 O110 2.137 . S
Co98 O111 2.244 . S
O99 Co98 2.216 . S
O99 C106 1.247 . S
O100 Co98 2.091 . S
O100 C106 1.261 . S
C101 O110 1.247 . S
C101 O111 1.272 . S
O102 Co98 2.004 . S
O102 C107 1.259 . S
Co103 O104 2.061 . S
Co103 O109 2.052 . S
Co103 O111 2.135 . S
O104 Co103 2.061 . S
O104 C107 1.235 . S
C105 O108 1.238 . S
C105 O109 1.241 . S
C106 O99 1.247 . S
C106 O100 1.261 . S
C107 O102 1.259 . S
C107 O104 1.235 . S
O108 Co98 2.021 . S
O108 C105 1.238 . S
O109 Co103 2.052 . S
O109 C105 1.241 . S
O110 Co98 2.137 . S
O110 C101 1.247 . S
O111 Co98 2.244 . S
O111 C101 1.272 . S
O111 Co103 2.135 . S
Co112 O113 2.216 . S
Co112 O114 2.091 . S
Co112 O116 2.004 . S
Co112 O122 2.021 . S
Co112 O124 2.137 . S
Co112 O125 2.244 . S
O113 Co112 2.216 . S
O113 C120 1.247 . S
O114 Co112 2.091 . S
O114 C120 1.261 . S
C115 O124 1.247 . S
C115 O125 1.272 . S
O116 Co112 2.004 . S
O116 C121 1.259 . S
Co117 O118 2.061 . S
Co117 O123 2.052 . S
Co117 O125 2.135 . S
O118 Co117 2.061 . S
O118 C121 1.235 . S
C119 O122 1.238 . S
C119 O123 1.241 . S
C120 O113 1.247 . S
C120 O114 1.261 . S
C121 O116 1.259 . S
C121 O118 1.235 . S
O122 Co112 2.021 . S
O122 C119 1.238 . S
O123 Co117 2.052 . S
O123 C119 1.241 . S
O124 Co112 2.137 . S
O124 C115 1.247 . S
O125 Co112 2.244 . S
O125 C115 1.272 . S
O125 Co117 2.135 . S
Co126 O127 2.216 . S
Co126 O128 2.091 . S
Co126 O130 2.004 . S
Co126 O136 2.021 . S
Co126 O138 2.137 . S
Co126 O139 2.244 . S
O127 Co126 2.216 . S
O127 C134 1.247 . S
O128 Co126 2.091 . S
O128 C134 1.261 . S
C129 O138 1.247 . S
C129 O139 1.272 . S
O130 Co126 2.004 . S
O130 C135 1.259 . S
Co131 O132 2.061 . S
Co131 O137 2.052 . S
Co131 O139 2.135 . S
O132 Co131 2.061 . S
O132 C135 1.235 . S
C133 O136 1.238 . S
C133 O137 1.241 . S
C134 O127 1.247 . S
C134 O128 1.261 . S
C135 O130 1.259 . S
C135 O132 1.235 . S
O136 Co126 2.021 . S
O136 C133 1.238 . S
O137 Co131 2.052 . S
O137 C133 1.241 . S
O138 Co126 2.137 . S
O138 C129 1.247 . S
O139 Co126 2.244 . S
O139 C129 1.272 . S
O139 Co131 2.135 . S
Co140 O141 2.216 . S
Co140 O142 2.091 . S
Co140 O144 2.004 . S
Co140 O150 2.021 . S
Co140 O152 2.137 . S
Co140 O153 2.244 . S
O141 Co140 2.216 . S
O141 C148 1.247 . S
O142 Co140 2.091 . S
O142 C148 1.261 . S
C143 O152 1.247 . S
C143 O153 1.272 . S
O144 Co140 2.004 . S
O144 C149 1.259 . S
Co145 O146 2.061 . S
Co145 O151 2.052 . S
Co145 O153 2.135 . S
O146 Co145 2.061 . S
O146 C149 1.235 . S
C147 O150 1.238 . S
C147 O151 1.241 . S
C148 O141 1.247 . S
C148 O142 1.261 . S
C149 O144 1.259 . S
C149 O146 1.235 . S
O150 Co140 2.021 . S
O150 C147 1.238 . S
O151 Co145 2.052 . S
O151 C147 1.241 . S
O152 Co140 2.137 . S
O152 C143 1.247 . S
O153 Co140 2.244 . S
O153 C143 1.272 . S
O153 Co145 2.135 . S
Co154 O155 2.216 . S
Co154 O156 2.091 . S
Co154 O158 2.004 . S
Co154 O164 2.021 . S
Co154 O166 2.137 . S
Co154 O167 2.244 . S
O155 Co154 2.216 . S
O155 C162 1.247 . S
O156 Co154 2.091 . S
O156 C162 1.261 . S
C157 O166 1.247 . S
C157 O167 1.272 . S
O158 Co154 2.004 . S
O158 C163 1.259 . S
Co159 O160 2.061 . S
Co159 O165 2.052 . S
Co159 O167 2.135 . S
O160 Co159 2.061 . S
O160 C163 1.235 . S
C161 O164 1.238 . S
C161 O165 1.241 . S
C162 O155 1.247 . S
C162 O156 1.261 . S
C163 O158 1.259 . S
C163 O160 1.235 . S
O164 Co154 2.021 . S
O164 C161 1.238 . S
O165 Co159 2.052 . S
O165 C161 1.241 . S
O166 Co154 2.137 . S
O166 C157 1.247 . S
O167 Co154 2.244 . S
O167 C157 1.272 . S
O167 Co159 2.135 . S
Co168 O169 2.216 . S
Co168 O170 2.091 . S
Co168 O172 2.004 . S
Co168 O178 2.021 . S
Co168 O180 2.137 . S
Co168 O181 2.244 . S
O169 Co168 2.216 . S
O169 C176 1.247 . S
O170 Co168 2.091 . S
O170 C176 1.261 . S
C171 O180 1.247 . S
C171 O181 1.272 . S
O172 Co168 2.004 . S
O172 C177 1.259 . S
Co173 O174 2.061 . S
Co173 O179 2.052 . S
Co173 O181 2.135 . S
O174 Co173 2.061 . S
O174 C177 1.235 . S
C175 O178 1.238 . S
C175 O179 1.241 . S
C176 O169 1.247 . S
C176 O170 1.261 . S
C177 O172 1.259 . S
C177 O174 1.235 . S
O178 Co168 2.021 . S
O178 C175 1.238 . S
O179 Co173 2.052 . S
O179 C175 1.241 . S
O180 Co168 2.137 . S
O180 C171 1.247 . S
O181 Co168 2.244 . S
O181 C171 1.272 . S
O181 Co173 2.135 . S
Co182 O183 2.216 . S
Co182 O184 2.091 . S
Co182 O186 2.004 . S
Co182 O192 2.021 . S
Co182 O194 2.137 . S
Co182 O195 2.244 . S
O183 Co182 2.216 . S
O183 C190 1.247 . S
O184 Co182 2.091 . S
O184 C190 1.261 . S
C185 O194 1.247 . S
C185 O195 1.272 . S
O186 Co182 2.004 . S
O186 C191 1.259 . S
Co187 O188 2.061 . S
Co187 O193 2.052 . S
Co187 O195 2.135 . S
O188 Co187 2.061 . S
O188 C191 1.235 . S
C189 O192 1.238 . S
C189 O193 1.241 . S
C190 O183 1.247 . S
C190 O184 1.261 . S
C191 O186 1.259 . S
C191 O188 1.235 . S
O192 Co182 2.021 . S
O192 C189 1.238 . S
O193 Co187 2.052 . S
O193 C189 1.241 . S
O194 Co182 2.137 . S
O194 C185 1.247 . S
O195 Co182 2.244 . S
O195 C185 1.272 . S
O195 Co187 2.135 . S
Co196 O197 2.216 . S
Co196 O198 2.091 . S
Co196 O200 2.004 . S
Co196 O206 2.021 . S
Co196 O208 2.137 . S
Co196 O209 2.244 . S
O197 Co196 2.216 . S
O197 C204 1.247 . S
O198 Co196 2.091 . S
O198 C204 1.261 . S
C199 O208 1.247 . S
C199 O209 1.272 . S
O200 Co196 2.004 . S
O200 C205 1.259 . S
Co201 O202 2.061 . S
Co201 O207 2.052 . S
Co201 O209 2.135 . S
O202 Co201 2.061 . S
O202 C205 1.235 . S
C203 O206 1.238 . S
C203 O207 1.241 . S
C204 O197 1.247 . S
C204 O198 1.261 . S
C205 O200 1.259 . S
C205 O202 1.235 . S
O206 Co196 2.021 . S
O206 C203 1.238 . S
O207 Co201 2.052 . S
O207 C203 1.241 . S
O208 Co196 2.137 . S
O208 C199 1.247 . S
O209 Co196 2.244 . S
O209 C199 1.272 . S
O209 Co201 2.135 . S
Co210 O211 2.216 . S
Co210 O212 2.091 . S
Co210 O214 2.004 . S
Co210 O220 2.021 . S
Co210 O222 2.137 . S
Co210 O223 2.244 . S
O211 Co210 2.216 . S
O211 C218 1.247 . S
O212 Co210 2.091 . S
O212 C218 1.261 . S
C213 O222 1.247 . S
C213 O223 1.272 . S
O214 Co210 2.004 . S
O214 C219 1.259 . S
Co215 O216 2.061 . S
Co215 O221 2.052 . S
Co215 O223 2.135 . S
O216 Co215 2.061 . S
O216 C219 1.235 . S
C217 O220 1.238 . S
C217 O221 1.241 . S
C218 O211 1.247 . S
C218 O212 1.261 . S
C219 O214 1.259 . S
C219 O216 1.235 . S
O220 Co210 2.021 . S
O220 C217 1.238 . S
O221 Co215 2.052 . S
O221 C217 1.241 . S
O222 Co210 2.137 . S
O222 C213 1.247 . S
O223 Co210 2.244 . S
O223 C213 1.272 . S
O223 Co215 2.135 . S
Co224 O225 2.216 . S
Co224 O226 2.091 . S
Co224 O228 2.004 . S
Co224 O234 2.021 . S
Co224 O236 2.137 . S
Co224 O237 2.244 . S
O225 Co224 2.216 . S
O225 C232 1.247 . S
O226 Co224 2.091 . S
O226 C232 1.261 . S
C227 O236 1.247 . S
C227 O237 1.272 . S
O228 Co224 2.004 . S
O228 C233 1.259 . S
Co229 O230 2.061 . S
Co229 O235 2.052 . S
Co229 O237 2.135 . S
O230 Co229 2.061 . S
O230 C233 1.235 . S
C231 O234 1.238 . S
C231 O235 1.241 . S
C232 O225 1.247 . S
C232 O226 1.261 . S
C233 O228 1.259 . S
C233 O230 1.235 . S
O234 Co224 2.021 . S
O234 C231 1.238 . S
O235 Co229 2.052 . S
O235 C231 1.241 . S
O236 Co224 2.137 . S
O236 C227 1.247 . S
O237 Co224 2.244 . S
O237 C227 1.272 . S
O237 Co229 2.135 . S
Co238 O239 2.216 . S
Co238 O240 2.091 . S
Co238 O242 2.004 . S
Co238 O248 2.021 . S
Co238 O250 2.137 . S
Co238 O251 2.244 . S
O239 Co238 2.216 . S
O239 C246 1.247 . S
O240 Co238 2.091 . S
O240 C246 1.261 . S
C241 O250 1.247 . S
C241 O251 1.272 . S
O242 Co238 2.004 . S
O242 C247 1.259 . S
Co243 O244 2.061 . S
Co243 O249 2.052 . S
Co243 O251 2.135 . S
O244 Co243 2.061 . S
O244 C247 1.235 . S
C245 O248 1.238 . S
C245 O249 1.241 . S
C246 O239 1.247 . S
C246 O240 1.261 . S
C247 O242 1.259 . S
C247 O244 1.235 . S
O248 Co238 2.021 . S
O248 C245 1.238 . S
O249 Co243 2.052 . S
O249 C245 1.241 . S
O250 Co238 2.137 . S
O250 C241 1.247 . S
O251 Co238 2.244 . S
O251 C241 1.272 . S
O251 Co243 2.135 . S
Co252 O253 2.216 . S
Co252 O254 2.091 . S
Co252 O256 2.004 . S
Co252 O262 2.021 . S
Co252 O264 2.137 . S
Co252 O265 2.244 . S
O253 Co252 2.216 . S
O253 C260 1.247 . S
O254 Co252 2.091 . S
O254 C260 1.261 . S
C255 O264 1.247 . S
C255 O265 1.272 . S
O256 Co252 2.004 . S
O256 C261 1.259 . S
Co257 O258 2.061 . S
Co257 O263 2.052 . S
Co257 O265 2.135 . S
O258 Co257 2.061 . S
O258 C261 1.235 . S
C259 O262 1.238 . S
C259 O263 1.241 . S
C260 O253 1.247 . S
C260 O254 1.261 . S
C261 O256 1.259 . S
C261 O258 1.235 . S
O262 Co252 2.021 . S
O262 C259 1.238 . S
O263 Co257 2.052 . S
O263 C259 1.241 . S
O264 Co252 2.137 . S
O264 C255 1.247 . S
O265 Co252 2.244 . S
O265 C255 1.272 . S
O265 Co257 2.135 . S
Co266 O267 2.216 . S
Co266 O268 2.091 . S
Co266 O270 2.004 . S
Co266 O276 2.021 . S
Co266 O278 2.137 . S
Co266 O279 2.244 . S
O267 Co266 2.216 . S
O267 C274 1.247 . S
O268 Co266 2.091 . S
O268 C274 1.261 . S
C269 O278 1.247 . S
C269 O279 1.272 . S
O270 Co266 2.004 . S
O270 C275 1.259 . S
Co271 O272 2.061 . S
Co271 O277 2.052 . S
Co271 O279 2.135 . S
O272 Co271 2.061 . S
O272 C275 1.235 . S
C273 O276 1.238 . S
C273 O277 1.241 . S
C274 O267 1.247 . S
C274 O268 1.261 . S
C275 O270 1.259 . S
C275 O272 1.235 . S
O276 Co266 2.021 . S
O276 C273 1.238 . S
O277 Co271 2.052 . S
O277 C273 1.241 . S
O278 Co266 2.137 . S
O278 C269 1.247 . S
O279 Co266 2.244 . S
O279 C269 1.272 . S
O279 Co271 2.135 . S
Co280 O281 2.216 . S
Co280 O282 2.091 . S
Co280 O284 2.004 . S
Co280 O290 2.021 . S
Co280 O292 2.137 . S
Co280 O293 2.244 . S
O281 Co280 2.216 . S
O281 C288 1.247 . S
O282 Co280 2.091 . S
O282 C288 1.261 . S
C283 O292 1.247 . S
C283 O293 1.272 . S
O284 Co280 2.004 . S
O284 C289 1.259 . S
Co285 O286 2.061 . S
Co285 O291 2.052 . S
Co285 O293 2.135 . S
O286 Co285 2.061 . S
O286 C289 1.235 . S
C287 O290 1.238 . S
C287 O291 1.241 . S
C288 O281 1.247 . S
C288 O282 1.261 . S
C289 O284 1.259 . S
C289 O286 1.235 . S
O290 Co280 2.021 . S
O290 C287 1.238 . S
O291 Co285 2.052 . S
O291 C287 1.241 . S
O292 Co280 2.137 . S
O292 C283 1.247 . S
O293 Co280 2.244 . S
O293 C283 1.272 . S
O293 Co285 2.135 . S
Co294 O295 2.216 . S
Co294 O296 2.091 . S
Co294 O298 2.004 . S
Co294 O304 2.021 . S
Co294 O306 2.137 . S
Co294 O307 2.244 . S
O295 Co294 2.216 . S
O295 C302 1.247 . S
O296 Co294 2.091 . S
O296 C302 1.261 . S
C297 O306 1.247 . S
C297 O307 1.272 . S
O298 Co294 2.004 . S
O298 C303 1.259 . S
Co299 O300 2.061 . S
Co299 O305 2.052 . S
Co299 O307 2.135 . S
O300 Co299 2.061 . S
O300 C303 1.235 . S
C301 O304 1.238 . S
C301 O305 1.241 . S
C302 O295 1.247 . S
C302 O296 1.261 . S
C303 O298 1.259 . S
C303 O300 1.235 . S
O304 Co294 2.021 . S
O304 C301 1.238 . S
O305 Co299 2.052 . S
O305 C301 1.241 . S
O306 Co294 2.137 . S
O306 C297 1.247 . S
O307 Co294 2.244 . S
O307 C297 1.272 . S
O307 Co299 2.135 . S
Co308 O309 2.216 . S
Co308 O310 2.091 . S
Co308 O312 2.004 . S
Co308 O318 2.021 . S
Co308 O320 2.137 . S
Co308 O321 2.244 . S
O309 Co308 2.216 . S
O309 C316 1.247 . S
O310 Co308 2.091 . S
O310 C316 1.261 . S
C311 O320 1.247 . S
C311 O321 1.272 . S
O312 Co308 2.004 . S
O312 C317 1.259 . S
Co313 O314 2.061 . S
Co313 O319 2.052 . S
Co313 O321 2.135 . S
O314 Co313 2.061 . S
O314 C317 1.235 . S
C315 O318 1.238 . S
C315 O319 1.241 . S
C316 O309 1.247 . S
C316 O310 1.261 . S
C317 O312 1.259 . S
C317 O314 1.235 . S
O318 Co308 2.021 . S
O318 C315 1.238 . S
O319 Co313 2.052 . S
O319 C315 1.241 . S
O320 Co308 2.137 . S
O320 C311 1.247 . S
O321 Co308 2.244 . S
O321 C311 1.272 . S
O321 Co313 2.135 . S
Co322 O323 2.216 . S
Co322 O324 2.091 . S
Co322 O326 2.004 . S
Co322 O332 2.021 . S
Co322 O334 2.137 . S
Co322 O335 2.244 . S
O323 Co322 2.216 . S
O323 C330 1.247 . S
O324 Co322 2.091 . S
O324 C330 1.261 . S
C325 O334 1.247 . S
C325 O335 1.272 . S
O326 Co322 2.004 . S
O326 C331 1.259 . S
Co327 O328 2.061 . S
Co327 O333 2.052 . S
Co327 O335 2.135 . S
O328 Co327 2.061 . S
O328 C331 1.235 . S
C329 O332 1.238 . S
C329 O333 1.241 . S
C330 O323 1.247 . S
C330 O324 1.261 . S
C331 O326 1.259 . S
C331 O328 1.235 . S
O332 Co322 2.021 . S
O332 C329 1.238 . S
O333 Co327 2.052 . S
O333 C329 1.241 . S
O334 Co322 2.137 . S
O334 C325 1.247 . S
O335 Co322 2.244 . S
O335 C325 1.272 . S
O335 Co327 2.135 . S
Co336 O337 2.216 . S
Co336 O338 2.091 . S
Co336 O340 2.004 . S
Co336 O346 2.021 . S
Co336 O348 2.137 . S
Co336 O349 2.244 . S
O337 Co336 2.216 . S
O337 C344 1.247 . S
O338 Co336 2.091 . S
O338 C344 1.261 . S
C339 O348 1.247 . S
C339 O349 1.272 . S
O340 Co336 2.004 . S
O340 C345 1.259 . S
Co341 O342 2.061 . S
Co341 O347 2.052 . S
Co341 O349 2.135 . S
O342 Co341 2.061 . S
O342 C345 1.235 . S
C343 O346 1.238 . S
C343 O347 1.241 . S
C344 O337 1.247 . S
C344 O338 1.261 . S
C345 O340 1.259 . S
C345 O342 1.235 . S
O346 Co336 2.021 . S
O346 C343 1.238 . S
O347 Co341 2.052 . S
O347 C343 1.241 . S
O348 Co336 2.137 . S
O348 C339 1.247 . S
O349 Co336 2.244 . S
O349 C339 1.272 . S
O349 Co341 2.135 . S
Co350 O351 2.216 . S
Co350 O352 2.091 . S
Co350 O354 2.004 . S
Co350 O360 2.021 . S
Co350 O362 2.137 . S
Co350 O363 2.244 . S
O351 Co350 2.216 . S
O351 C358 1.247 . S
O352 Co350 2.091 . S
O352 C358 1.261 . S
C353 O362 1.247 . S
C353 O363 1.272 . S
O354 Co350 2.004 . S
O354 C359 1.259 . S
Co355 O356 2.061 . S
Co355 O361 2.052 . S
Co355 O363 2.135 . S
O356 Co355 2.061 . S
O356 C359 1.235 . S
C357 O360 1.238 . S
C357 O361 1.241 . S
C358 O351 1.247 . S
C358 O352 1.261 . S
C359 O354 1.259 . S
C359 O356 1.235 . S
O360 Co350 2.021 . S
O360 C357 1.238 . S
O361 Co355 2.052 . S
O361 C357 1.241 . S
O362 Co350 2.137 . S
O362 C353 1.247 . S
O363 Co350 2.244 . S
O363 C353 1.272 . S
O363 Co355 2.135 . S
Co364 O365 2.216 . S
Co364 O366 2.091 . S
Co364 O368 2.004 . S
Co364 O374 2.021 . S
Co364 O376 2.137 . S
Co364 O377 2.244 . S
O365 Co364 2.216 . S
O365 C372 1.247 . S
O366 Co364 2.091 . S
O366 C372 1.261 . S
C367 O376 1.247 . S
C367 O377 1.272 . S
O368 Co364 2.004 . S
O368 C373 1.259 . S
Co369 O370 2.061 . S
Co369 O375 2.052 . S
Co369 O377 2.135 . S
O370 Co369 2.061 . S
O370 C373 1.235 . S
C371 O374 1.238 . S
C371 O375 1.241 . S
C372 O365 1.247 . S
C372 O366 1.261 . S
C373 O368 1.259 . S
C373 O370 1.235 . S
O374 Co364 2.021 . S
O374 C371 1.238 . S
O375 Co369 2.052 . S
O375 C371 1.241 . S
O376 Co364 2.137 . S
O376 C367 1.247 . S
O377 Co364 2.244 . S
O377 C367 1.272 . S
O377 Co369 2.135 . S
Co378 O379 2.216 . S
Co378 O380 2.091 . S
Co378 O382 2.004 . S
Co378 O388 2.021 . S
Co378 O390 2.137 . S
Co378 O391 2.244 . S
O379 Co378 2.216 . S
O379 C386 1.247 . S
O380 Co378 2.091 . S
O380 C386 1.261 . S
C381 O390 1.247 . S
C381 O391 1.272 . S
O382 Co378 2.004 . S
O382 C387 1.259 . S
Co383 O384 2.061 . S
Co383 O389 2.052 . S
Co383 O391 2.135 . S
O384 Co383 2.061 . S
O384 C387 1.235 . S
C385 O388 1.238 . S
C385 O389 1.241 . S
C386 O379 1.247 . S
C386 O380 1.261 . S
C387 O382 1.259 . S
C387 O384 1.235 . S
O388 Co378 2.021 . S
O388 C385 1.238 . S
O389 Co383 2.052 . S
O389 C385 1.241 . S
O390 Co378 2.137 . S
O390 C381 1.247 . S
O391 Co378 2.244 . S
O391 C381 1.272 . S
O391 Co383 2.135 . S
Co392 O393 2.216 . S
Co392 O394 2.091 . S
Co392 O396 2.004 . S
Co392 O402 2.021 . S
Co392 O404 2.137 . S
Co392 O405 2.244 . S
O393 Co392 2.216 . S
O393 C400 1.247 . S
O394 Co392 2.091 . S
O394 C400 1.261 . S
C395 O404 1.247 . S
C395 O405 1.272 . S
O396 Co392 2.004 . S
O396 C401 1.259 . S
Co397 O398 2.061 . S
Co397 O403 2.052 . S
Co397 O405 2.135 . S
O398 Co397 2.061 . S
O398 C401 1.235 . S
C399 O402 1.238 . S
C399 O403 1.241 . S
C400 O393 1.247 . S
C400 O394 1.261 . S
C401 O396 1.259 . S
C401 O398 1.235 . S
O402 Co392 2.021 . S
O402 C399 1.238 . S
O403 Co397 2.052 . S
O403 C399 1.241 . S
O404 Co392 2.137 . S
O404 C395 1.247 . S
O405 Co392 2.244 . S
O405 C395 1.272 . S
O405 Co397 2.135 . S
Co406 O407 2.216 . S
Co406 O408 2.091 . S
Co406 O410 2.004 . S
Co406 O416 2.021 . S
Co406 O418 2.137 . S
Co406 O419 2.244 . S
O407 Co406 2.216 . S
O407 C414 1.247 . S
O408 Co406 2.091 . S
O408 C414 1.261 . S
C409 O418 1.247 . S
C409 O419 1.272 . S
O410 Co406 2.004 . S
O410 C415 1.259 . S
Co411 O412 2.061 . S
Co411 O417 2.052 . S
Co411 O419 2.135 . S
O412 Co411 2.061 . S
O412 C415 1.235 . S
C413 O416 1.238 . S
C413 O417 1.241 . S
C414 O407 1.247 . S
C414 O408 1.261 . S
C415 O410 1.259 . S
C415 O412 1.235 . S
O416 Co406 2.021 . S
O416 C413 1.238 . S
O417 Co411 2.052 . S
O417 C413 1.241 . S
O418 Co406 2.137 . S
O418 C409 1.247 . S
O419 Co406 2.244 . S
O419 C409 1.272 . S
O419 Co411 2.135 . S
Co420 O421 2.216 . S
Co420 O422 2.091 . S
Co420 O424 2.004 . S
Co420 O430 2.021 . S
Co420 O432 2.137 . S
Co420 O433 2.244 . S
O421 Co420 2.216 . S
O421 C428 1.247 . S
O422 Co420 2.091 . S
O422 C428 1.261 . S
C423 O432 1.247 . S
C423 O433 1.272 . S
O424 Co420 2.004 . S
O424 C429 1.259 . S
Co425 O426 2.061 . S
Co425 O431 2.052 . S
Co425 O433 2.135 . S
O426 Co425 2.061 . S
O426 C429 1.235 . S
C427 O430 1.238 . S
C427 O431 1.241 . S
C428 O421 1.247 . S
C428 O422 1.261 . S
C429 O424 1.259 . S
C429 O426 1.235 . S
O430 Co420 2.021 . S
O430 C427 1.238 . S
O431 Co425 2.052 . S
O431 C427 1.241 . S
O432 Co420 2.137 . S
O432 C423 1.247 . S
O433 Co420 2.244 . S
O433 C423 1.272 . S
O433 Co425 2.135 . S
Co434 O435 2.216 . S
Co434 O436 2.091 . S
Co434 O438 2.004 . S
Co434 O444 2.021 . S
Co434 O446 2.137 . S
Co434 O447 2.244 . S
O435 Co434 2.216 . S
O435 C442 1.247 . S
O436 Co434 2.091 . S
O436 C442 1.261 . S
C437 O446 1.247 . S
C437 O447 1.272 . S
O438 Co434 2.004 . S
O438 C443 1.259 . S
Co439 O440 2.061 . S
Co439 O445 2.052 . S
Co439 O447 2.135 . S
O440 Co439 2.061 . S
O440 C443 1.235 . S
C441 O444 1.238 . S
C441 O445 1.241 . S
C442 O435 1.247 . S
C442 O436 1.261 . S
C443 O438 1.259 . S
C443 O440 1.235 . S
O444 Co434 2.021 . S
O444 C441 1.238 . S
O445 Co439 2.052 . S
O445 C441 1.241 . S
O446 Co434 2.137 . S
O446 C437 1.247 . S
O447 Co434 2.244 . S
O447 C437 1.272 . S
O447 Co439 2.135 . S
Co448 O449 2.216 . S
Co448 O450 2.091 . S
Co448 O452 2.004 . S
Co448 O458 2.021 . S
Co448 O460 2.137 . S
Co448 O461 2.244 . S
O449 Co448 2.216 . S
O449 C456 1.247 . S
O450 Co448 2.091 . S
O450 C456 1.261 . S
C451 O460 1.247 . S
C451 O461 1.272 . S
O452 Co448 2.004 . S
O452 C457 1.259 . S
Co453 O454 2.061 . S
Co453 O459 2.052 . S
Co453 O461 2.135 . S
O454 Co453 2.061 . S
O454 C457 1.235 . S
C455 O458 1.238 . S
C455 O459 1.241 . S
C456 O449 1.247 . S
C456 O450 1.261 . S
C457 O452 1.259 . S
C457 O454 1.235 . S
O458 Co448 2.021 . S
O458 C455 1.238 . S
O459 Co453 2.052 . S
O459 C455 1.241 . S
O460 Co448 2.137 . S
O460 C451 1.247 . S
O461 Co448 2.244 . S
O461 C451 1.272 . S
O461 Co453 2.135 . S
Co462 O463 2.216 . S
Co462 O464 2.091 . S
Co462 O466 2.004 . S
Co462 O472 2.021 . S
Co462 O474 2.137 . S
Co462 O475 2.244 . S
O463 Co462 2.216 . S
O463 C470 1.247 . S
O464 Co462 2.091 . S
O464 C470 1.261 . S
C465 O474 1.247 . S
C465 O475 1.272 . S
O466 Co462 2.004 . S
O466 C471 1.259 . S
Co467 O468 2.061 . S
Co467 O473 2.052 . S
Co467 O475 2.135 . S
O468 Co467 2.061 . S
O468 C471 1.235 . S
C469 O472 1.238 . S
C469 O473 1.241 . S
C470 O463 1.247 . S
C470 O464 1.261 . S
C471 O466 1.259 . S
C471 O468 1.235 . S
O472 Co462 2.021 . S
O472 C469 1.238 . S
O473 Co467 2.052 . S
O473 C469 1.241 . S
O474 Co462 2.137 . S
O474 C465 1.247 . S
O475 Co462 2.244 . S
O475 C465 1.272 . S
O475 Co467 2.135 . S
Co476 O477 2.216 . S
Co476 O478 2.091 . S
Co476 O480 2.004 . S
Co476 O486 2.021 . S
Co476 O488 2.137 . S
Co476 O489 2.244 . S
O477 Co476 2.216 . S
O477 C484 1.247 . S
O478 Co476 2.091 . S
O478 C484 1.261 . S
C479 O488 1.247 . S
C479 O489 1.272 . S
O480 Co476 2.004 . S
O480 C485 1.259 . S
Co481 O482 2.061 . S
Co481 O487 2.052 . S
Co481 O489 2.135 . S
O482 Co481 2.061 . S
O482 C485 1.235 . S
C483 O486 1.238 . S
C483 O487 1.241 . S
C484 O477 1.247 . S
C484 O478 1.261 . S
C485 O480 1.259 . S
C485 O482 1.235 . S
O486 Co476 2.021 . S
O486 C483 1.238 . S
O487 Co481 2.052 . S
O487 C483 1.241 . S
O488 Co476 2.137 . S
O488 C479 1.247 . S
O489 Co476 2.244 . S
O489 C479 1.272 . S
O489 Co481 2.135 . S
Co490 O491 2.216 . S
Co490 O492 2.091 . S
Co490 O494 2.004 . S
Co490 O500 2.021 . S
Co490 O502 2.137 . S
Co490 O503 2.244 . S
O491 Co490 2.216 . S
O491 C498 1.247 . S
O492 Co490 2.091 . S
O492 C498 1.261 . S
C493 O502 1.247 . S
C493 O503 1.272 . S
O494 Co490 2.004 . S
O494 C499 1.259 . S
Co495 O496 2.061 . S
Co495 O501 2.052 . S
Co495 O503 2.135 . S
O496 Co495 2.061 . S
O496 C499 1.235 . S
C497 O500 1.238 . S
C497 O501 1.241 . S
C498 O491 1.247 . S
C498 O492 1.261 . S
C499 O494 1.259 . S
C499 O496 1.235 . S
O500 Co490 2.021 . S
O500 C497 1.238 . S
O501 Co495 2.052 . S
O501 C497 1.241 . S
O502 Co490 2.137 . S
O502 C493 1.247 . S
O503 Co490 2.244 . S
O503 C493 1.272 . S
O503 Co495 2.135 . S
Co504 O505 2.216 . S
Co504 O506 2.091 . S
Co504 O508 2.004 . S
Co504 O514 2.021 . S
Co504 O516 2.137 . S
Co504 O517 2.244 . S
O505 Co504 2.216 . S
O505 C512 1.247 . S
O506 Co504 2.091 . S
O506 C512 1.261 . S
C507 O516 1.247 . S
C507 O517 1.272 . S
O508 Co504 2.004 . S
O508 C513 1.259 . S
Co509 O510 2.061 . S
Co509 O515 2.052 . S
Co509 O517 2.135 . S
O510 Co509 2.061 . S
O510 C513 1.235 . S
C511 O514 1.238 . S
C511 O515 1.241 . S
C512 O505 1.247 . S
C512 O506 1.261 . S
C513 O508 1.259 . S
C513 O510 1.235 . S
O514 Co504 2.021 . S
O514 C511 1.238 . S
O515 Co509 2.052 . S
O515 C511 1.241 . S
O516 Co504 2.137 . S
O516 C507 1.247 . S
O517 Co504 2.244 . S
O517 C507 1.272 . S
O517 Co509 2.135 . S
Co518 O519 2.216 . S
Co518 O520 2.091 . S
Co518 O522 2.004 . S
Co518 O528 2.021 . S
Co518 O530 2.137 . S
Co518 O531 2.244 . S
O519 Co518 2.216 . S
O519 C526 1.247 . S
O520 Co518 2.091 . S
O520 C526 1.261 . S
C521 O530 1.247 . S
C521 O531 1.272 . S
O522 Co518 2.004 . S
O522 C527 1.259 . S
Co523 O524 2.061 . S
Co523 O529 2.052 . S
Co523 O531 2.135 . S
O524 Co523 2.061 . S
O524 C527 1.235 . S
C525 O528 1.238 . S
C525 O529 1.241 . S
C526 O519 1.247 . S
C526 O520 1.261 . S
C527 O522 1.259 . S
C527 O524 1.235 . S
O528 Co518 2.021 . S
O528 C525 1.238 . S
O529 Co523 2.052 . S
O529 C525 1.241 . S
O530 Co518 2.137 . S
O530 C521 1.247 . S
O531 Co518 2.244 . S
O531 C521 1.272 . S
O531 Co523 2.135 . S
Co532 O533 2.216 . S
Co532 O534 2.091 . S
Co532 O536 2.004 . S
Co532 O542 2.021 . S
Co532 O544 2.137 . S
Co532 O545 2.244 . S
O533 Co532 2.216 . S
O533 C540 1.247 . S
O534 Co532 2.091 . S
O534 C540 1.261 . S
C535 O544 1.247 . S
C535 O545 1.272 . S
O536 Co532 2.004 . S
O536 C541 1.259 . S
Co537 O538 2.061 . S
Co537 O543 2.052 . S
Co537 O545 2.135 . S
O538 Co537 2.061 . S
O538 C541 1.235 . S
C539 O542 1.238 . S
C539 O543 1.241 . S
C540 O533 1.247 . S
C540 O534 1.261 . S
C541 O536 1.259 . S
C541 O538 1.235 . S
O542 Co532 2.021 . S
O542 C539 1.238 . S
O543 Co537 2.052 . S
O543 C539 1.241 . S
O544 Co532 2.137 . S
O544 C535 1.247 . S
O545 Co532 2.244 . S
O545 C535 1.272 . S
O545 Co537 2.135 . S
Co546 O547 2.216 . S
Co546 O548 2.091 . S
Co546 O550 2.004 . S
Co546 O556 2.021 . S
Co546 O558 2.137 . S
Co546 O559 2.244 . S
O547 Co546 2.216 . S
O547 C554 1.247 . S
O548 Co546 2.091 . S
O548 C554 1.261 . S
C549 O558 1.247 . S
C549 O559 1.272 . S
O550 Co546 2.004 . S
O550 C555 1.259 . S
Co551 O552 2.061 . S
Co551 O557 2.052 . S
Co551 O559 2.135 . S
O552 Co551 2.061 . S
O552 C555 1.235 . S
C553 O556 1.238 . S
C553 O557 1.241 . S
C554 O547 1.247 . S
C554 O548 1.261 . S
C555 O550 1.259 . S
C555 O552 1.235 . S
O556 Co546 2.021 . S
O556 C553 1.238 . S
O557 Co551 2.052 . S
O557 C553 1.241 . S
O558 Co546 2.137 . S
O558 C549 1.247 . S
O559 Co546 2.244 . S
O559 C549 1.272 . S
O559 Co551 2.135 . S
Co560 O561 2.216 . S
Co560 O562 2.091 . S
Co560 O564 2.004 . S
Co560 O570 2.021 . S
Co560 O572 2.137 . S
Co560 O573 2.244 . S
O561 Co560 2.216 . S
O561 C568 1.247 . S
O562 Co560 2.091 . S
O562 C568 1.261 . S
C563 O572 1.247 . S
C563 O573 1.272 . S
O564 Co560 2.004 . S
O564 C569 1.259 . S
Co565 O566 2.061 . S
Co565 O571 2.052 . S
Co565 O573 2.135 . S
O566 Co565 2.061 . S
O566 C569 1.235 . S
C567 O570 1.238 . S
C567 O571 1.241 . S
C568 O561 1.247 . S
C568 O562 1.261 . S
C569 O564 1.259 . S
C569 O566 1.235 . S
O570 Co560 2.021 . S
O570 C567 1.238 . S
O571 Co565 2.052 . S
O571 C567 1.241 . S
O572 Co560 2.137 . S
O572 C563 1.247 . S
O573 Co560 2.244 . S
O573 C563 1.272 . S
O573 Co565 2.135 . S
Co574 O575 2.216 . S
Co574 O576 2.091 . S
Co574 O578 2.004 . S
Co574 O584 2.021 . S
Co574 O586 2.137 . S
Co574 O587 2.244 . S
O575 Co574 2.216 . S
O575 C582 1.247 . S
O576 Co574 2.091 . S
O576 C582 1.261 . S
C577 O586 1.247 . S
C577 O587 1.272 . S
O578 Co574 2.004 . S
O578 C583 1.259 . S
Co579 O580 2.061 . S
Co579 O585 2.052 . S
Co579 O587 2.135 . S
O580 Co579 2.061 . S
O580 C583 1.235 . S
C581 O584 1.238 . S
C581 O585 1.241 . S
C582 O575 1.247 . S
C582 O576 1.261 . S
C583 O578 1.259 . S
C583 O580 1.235 . S
O584 Co574 2.021 . S
O584 C581 1.238 . S
O585 Co579 2.052 . S
O585 C581 1.241 . S
O586 Co574 2.137 . S
O586 C577 1.247 . S
O587 Co574 2.244 . S
O587 C577 1.272 . S
O587 Co579 2.135 . S
Co588 O589 2.216 . S
Co588 O590 2.091 . S
Co588 O592 2.004 . S
Co588 O598 2.021 . S
Co588 O600 2.137 . S
Co588 O601 2.244 . S
O589 Co588 2.216 . S
O589 C596 1.247 . S
O590 Co588 2.091 . S
O590 C596 1.261 . S
C591 O600 1.247 . S
C591 O601 1.272 . S
O592 Co588 2.004 . S
O592 C597 1.259 . S
Co593 O594 2.061 . S
Co593 O599 2.052 . S
Co593 O601 2.135 . S
O594 Co593 2.061 . S
O594 C597 1.235 . S
C595 O598 1.238 . S
C595 O599 1.241 . S
C596 O589 1.247 . S
C596 O590 1.261 . S
C597 O592 1.259 . S
C597 O594 1.235 . S
O598 Co588 2.021 . S
O598 C595 1.238 . S
O599 Co593 2.052 . S
O599 C595 1.241 . S
O600 Co588 2.137 . S
O600 C591 1.247 . S
O601 Co588 2.244 . S
O601 C591 1.272 . S
O601 Co593 2.135 . S
Co602 O603 2.216 . S
Co602 O604 2.091 . S
Co602 O606 2.004 . S
Co602 O612 2.021 . S
Co602 O614 2.137 . S
Co602 O615 2.244 . S
O603 Co602 2.216 . S
O603 C610 1.247 . S
O604 Co602 2.091 . S
O604 C610 1.261 . S
C605 O614 1.247 . S
C605 O615 1.272 . S
O606 Co602 2.004 . S
O606 C611 1.259 . S
Co607 O608 2.061 . S
Co607 O613 2.052 . S
Co607 O615 2.135 . S
O608 Co607 2.061 . S
O608 C611 1.235 . S
C609 O612 1.238 . S
C609 O613 1.241 . S
C610 O603 1.247 . S
C610 O604 1.261 . S
C611 O606 1.259 . S
C611 O608 1.235 . S
O612 Co602 2.021 . S
O612 C609 1.238 . S
O613 Co607 2.052 . S
O613 C609 1.241 . S
O614 Co602 2.137 . S
O614 C605 1.247 . S
O615 Co602 2.244 . S
O615 C605 1.272 . S
O615 Co607 2.135 . S
Co616 O617 2.216 . S
Co616 O618 2.091 . S
Co616 O620 2.004 . S
Co616 O626 2.021 . S
Co616 O628 2.137 . S
Co616 O629 2.244 . S
O617 Co616 2.216 . S
O617 C624 1.247 . S
O618 Co616 2.091 . S
O618 C624 1.261 . S
C619 O628 1.247 . S
C619 O629 1.272 . S
O620 Co616 2.004 . S
O620 C625 1.259 . S
Co621 O622 2.061 . S
Co621 O627 2.052 . S
Co621 O629 2.135 . S
O622 Co621 2.061 . S
O622 C625 1.235 . S
C623 O626 1.238 . S
C623 O627 1.241 . S
C624 O617 1.247 . S
C624 O618 1.261 . S
C625 O620 1.259 . S
C625 O622 1.235 . S
O626 Co616 2.021 . S
O626 C623 1.238 . S
O627 Co621 2.052 . S
O627 C623 1.241 . S
O628 Co616 2.137 . S
O628 C619 1.247 . S
O629 Co616 2.244 . S
O629 C619 1.272 . S
O629 Co621 2.135 . S
Co630 O631 2.216 . S
Co630 O632 2.091 . S
Co630 O634 2.004 . S
Co630 O640 2.021 . S
Co630 O642 2.137 . S
Co630 O643 2.244 . S
O631 Co630 2.216 . S
O631 C638 1.247 . S
O632 Co630 2.091 . S
O632 C638 1.261 . S
C633 O642 1.247 . S
C633 O643 1.272 . S
O634 Co630 2.004 . S
O634 C639 1.259 . S
Co635 O636 2.061 . S
Co635 O641 2.052 . S
Co635 O643 2.135 . S
O636 Co635 2.061 . S
O636 C639 1.235 . S
C637 O640 1.238 . S
C637 O641 1.241 . S
C638 O631 1.247 . S
C638 O632 1.261 . S
C639 O634 1.259 . S
C639 O636 1.235 . S
O640 Co630 2.021 . S
O640 C637 1.238 . S
O641 Co635 2.052 . S
O641 C637 1.241 . S
O642 Co630 2.137 . S
O642 C633 1.247 . S
O643 Co630 2.244 . S
O643 C633 1.272 . S
O643 Co635 2.135 . S
Co644 O645 2.216 . S
Co644 O646 2.091 . S
Co644 O648 2.004 . S
Co644 O654 2.021 . S
Co644 O656 2.137 . S
Co644 O657 2.244 . S
O645 Co644 2.216 . S
O645 C652 1.247 . S
O646 Co644 2.091 . S
O646 C652 1.261 . S
C647 O656 1.247 . S
C647 O657 1.272 . S
O648 Co644 2.004 . S
O648 C653 1.259 . S
Co649 O650 2.061 . S
Co649 O655 2.052 . S
Co649 O657 2.135 . S
O650 Co649 2.061 . S
O650 C653 1.235 . S
C651 O654 1.238 . S
C651 O655 1.241 . S
C652 O645 1.247 . S
C652 O646 1.261 . S
C653 O648 1.259 . S
C653 O650 1.235 . S
O654 Co644 2.021 . S
O654 C651 1.238 . S
O655 Co649 2.052 . S
O655 C651 1.241 . S
O656 Co644 2.137 . S
O656 C647 1.247 . S
O657 Co644 2.244 . S
O657 C647 1.272 . S
O657 Co649 2.135 . S
Co658 O659 2.216 . S
Co658 O660 2.091 . S
Co658 O662 2.004 . S
Co658 O668 2.021 . S
Co658 O670 2.137 . S
Co658 O671 2.244 . S
O659 Co658 2.216 . S
O659 C666 1.247 . S
O660 Co658 2.091 . S
O660 C666 1.261 . S
C661 O670 1.247 . S
C661 O671 1.272 . S
O662 Co658 2.004 . S
O662 C667 1.259 . S
Co663 O664 2.061 . S
Co663 O669 2.052 . S
Co663 O671 2.135 . S
O664 Co663 2.061 . S
O664 C667 1.235 . S
C665 O668 1.238 . S
C665 O669 1.241 . S
C666 O659 1.247 . S
C666 O660 1.261 . S
C667 O662 1.259 . S
C667 O664 1.235 . S
O668 Co658 2.021 . S
O668 C665 1.238 . S
O669 Co663 2.052 . S
O669 C665 1.241 . S
O670 Co658 2.137 . S
O670 C661 1.247 . S
O671 Co658 2.244 . S
O671 C661 1.272 . S
O671 Co663 2.135 . S
H672 C680 0.929 1_455 S
H673 C682 0.985 . S
H674 C684 0.930 . S
H675 C687 0.929 . S
H676 C690 0.930 . S
H677 C692 0.960 . S
H678 C692 0.960 . S
H679 C692 0.960 . S
C680 H672 0.929 1_655 S
C680 C681 1.377 . S
C680 C682 1.366 1_655 S
C681 C680 1.377 . S
C681 C687 1.390 . S
C682 H673 0.985 . S
C682 C680 1.366 1_455 S
C682 C683 1.337 1_455 S
C683 C682 1.337 1_655 S
C683 C684 1.400 . S
C683 C688 1.490 . S
C684 H674 0.930 . S
C684 C683 1.400 . S
C684 C687 1.386 . S
H685 C701 0.930 1_655 S
H686 C702 0.931 1_655 S
C687 H675 0.929 . S
C687 C681 1.390 . S
C687 C684 1.386 . S
C688 C683 1.490 . S
C688 C690 1.395 1_655 S
C688 C691 1.403 . S
H689 C695 0.930 . S
C690 H676 0.930 . S
C690 C688 1.395 1_455 S
C690 C693 1.403 . S
C691 C688 1.403 . S
C691 C692 1.524 . S
C691 C695 1.400 . S
C692 H677 0.960 . S
C692 H678 0.960 . S
C692 H679 0.960 . S
C692 C691 1.524 . S
C693 C690 1.403 . S
C693 C694 1.392 . S
C693 C697 1.495 . S
C694 C693 1.392 . S
C694 C695 1.385 1_455 S
C694 C696 1.478 . S
C695 H689 0.930 . S
C695 C691 1.400 . S
C695 C694 1.385 1_655 S
C696 C694 1.478 . S
C696 C698 1.381 . S
C696 C702 1.383 . S
C697 C693 1.495 . S
C697 H703 0.959 . S
C697 H704 0.961 . S
C697 H705 0.960 . S
C698 C696 1.381 . S
C698 C699 1.394 . S
C698 H706 0.930 . S
C699 C698 1.394 . S
C699 C700 1.383 . S
C699 H707 0.929 . S
C700 C699 1.383 . S
C700 C701 1.377 . S
C701 H685 0.930 1_455 S
C701 C700 1.377 . S
C701 C702 1.379 . S
C702 H686 0.931 1_455 S
C702 C696 1.383 . S
C702 C701 1.379 . S
H703 C697 0.959 . S
H704 C697 0.961 . S
H705 C697 0.960 . S
H706 C698 0.930 . S
H707 C699 0.929 . S
H708 C716 0.929 . S
H709 C718 0.930 . S
H710 C720 0.883 1_655 S
H711 C723 0.929 1_655 S
H712 C726 0.930 . S
H713 C728 0.960 . S
H714 C728 0.960 . S
H715 C728 0.960 . S
C716 H708 0.929 . S
C716 C717 1.377 . S
C716 C718 1.384 . S
C717 C716 1.377 . S
C717 C723 1.390 . S
C718 H709 0.930 . S
C718 C716 1.384 . S
C718 C719 1.372 . S
C719 C718 1.372 . S
C719 C720 1.432 . S
C719 C724 1.490 . S
C720 H710 0.883 1_455 S
C720 C719 1.432 . S
C720 C723 1.401 . S
H721 C737 0.930 . S
H722 C738 0.931 . S
C723 H711 0.929 1_455 S
C723 C717 1.390 . S
C723 C720 1.401 . S
C724 C719 1.490 . S
C724 C726 1.395 . S
C724 C727 1.403 1_455 S
H725 C731 0.930 . S
C726 H712 0.930 . S
C726 C724 1.395 . S
C726 C729 1.403 . S
C727 C724 1.403 1_655 S
C727 C728 1.524 . S
C727 C731 1.400 . S
C728 H713 0.960 . S
C728 H714 0.960 . S
C728 H715 0.960 . S
C728 C727 1.524 . S
C729 C726 1.403 . S
C729 C730 1.392 1_455 S
C729 C733 1.495 . S
C730 C729 1.392 1_655 S
C730 C731 1.385 . S
C730 C732 1.478 . S
C731 H725 0.930 . S
C731 C727 1.400 . S
C731 C730 1.385 . S
C732 C730 1.478 . S
C732 C734 1.381 1_655 S
C732 C738 1.383 . S
C733 C729 1.495 . S
C733 H739 0.959 . S
C733 H740 0.961 . S
C733 H741 0.960 . S
C734 C732 1.381 1_455 S
C734 C735 1.394 1_455 S
C734 H742 0.930 . S
C735 C734 1.394 1_655 S
C735 C736 1.383 . S
C735 H743 0.929 1_655 S
C736 C735 1.383 . S
C736 C737 1.377 . S
C737 H721 0.930 . S
C737 C736 1.377 . S
C737 C738 1.379 . S
C738 H722 0.931 . S
C738 C732 1.383 . S
C738 C737 1.379 . S
H739 C733 0.959 . S
H740 C733 0.961 . S
H741 C733 0.960 . S
H742 C734 0.930 . S
H743 C735 0.929 1_455 S
H744 C752 0.929 . S
H745 C754 0.930 . S
H746 C756 0.926 . S
H747 C759 0.929 . S
H748 C762 0.930 . S
H749 C764 0.960 . S
H750 C764 0.960 . S
H751 C764 0.960 . S
C752 H744 0.929 . S
C752 C753 1.377 . S
C752 C754 1.384 . S
C753 C752 1.377 . S
C753 C759 1.390 . S
C754 H745 0.930 . S
C754 C752 1.384 . S
C754 C755 1.372 . S
C755 C754 1.372 . S
C755 C756 1.400 . S
C755 C760 1.490 . S
C756 H746 0.926 . S
C756 C755 1.400 . S
C756 C759 1.386 . S
H757 C773 0.930 . S
H758 C774 0.931 . S
C759 H747 0.929 . S
C759 C753 1.390 . S
C759 C756 1.386 . S
C760 C755 1.490 . S
C760 C762 1.395 . S
C760 C763 1.403 1_565 S
H761 C767 0.930 . S
C762 H748 0.930 . S
C762 C760 1.395 . S
C762 C765 1.403 . S
C763 C760 1.403 1_545 S
C763 C764 1.524 . S
C763 C767 1.400 . S
C764 H749 0.960 . S
C764 H750 0.960 . S
C764 H751 0.960 . S
C764 C763 1.524 . S
C765 C762 1.403 . S
C765 C766 1.392 1_565 S
C765 C769 1.495 . S
C766 C765 1.392 1_545 S
C766 C767 1.385 . S
C766 C768 1.478 . S
C767 H761 0.930 . S
C767 C763 1.400 . S
C767 C766 1.385 . S
C768 C766 1.478 . S
C768 C770 1.381 . S
C768 C774 1.383 . S
C769 C765 1.495 . S
C769 H775 0.959 . S
C769 H776 0.961 . S
C769 H777 0.960 . S
C770 C768 1.381 . S
C770 C771 1.394 . S
C770 H778 0.921 1_545 S
C771 C770 1.394 . S
C771 C772 1.383 . S
C771 H779 0.929 . S
C772 C771 1.383 . S
C772 C773 1.377 . S
C773 H757 0.930 . S
C773 C772 1.377 . S
C773 C774 1.379 . S
C774 H758 0.931 . S
C774 C768 1.383 . S
C774 C773 1.379 . S
H775 C769 0.959 . S
H776 C769 0.961 . S
H777 C769 0.960 . S
H778 C770 0.921 1_565 S
H779 C771 0.929 . S
H780 C788 0.929 . S
H781 C790 0.930 . S
H782 C792 0.930 . S
H783 C795 0.929 . S
H784 C798 0.930 . S
H785 C800 0.960 . S
H786 C800 0.960 . S
H787 C800 0.960 . S
C788 H780 0.929 . S
C788 C789 1.377 . S
C788 C790 1.384 . S
C789 C788 1.377 . S
C789 C795 1.390 . S
C790 H781 0.930 . S
C790 C788 1.384 . S
C790 C791 1.372 . S
C791 C790 1.372 . S
C791 C792 1.400 . S
C791 C796 1.490 . S
C792 H782 0.930 . S
C792 C791 1.400 . S
C792 C795 1.386 . S
H793 C809 0.930 . S
H794 C810 0.931 . S
C795 H783 0.929 . S
C795 C789 1.390 . S
C795 C792 1.386 . S
C796 C791 1.490 . S
C796 C798 1.395 . S
C796 C799 1.403 . S
H797 C803 0.930 . S
C798 H784 0.930 . S
C798 C796 1.395 . S
C798 C801 1.403 . S
C799 C796 1.403 . S
C799 C800 1.524 . S
C799 C803 1.400 . S
C800 H785 0.960 . S
C800 H786 0.960 . S
C800 H787 0.960 . S
C800 C799 1.524 . S
C801 C798 1.403 . S
C801 C802 1.392 . S
C801 C805 1.495 . S
C802 C801 1.392 . S
C802 C803 1.385 . S
C802 C804 1.478 . S
C803 H797 0.930 . S
C803 C799 1.400 . S
C803 C802 1.385 . S
C804 C802 1.478 . S
C804 C806 1.381 . S
C804 C810 1.383 . S
C805 C801 1.495 . S
C805 H811 0.959 . S
C805 H812 0.961 . S
C805 H813 0.960 . S
C806 C804 1.381 . S
C806 C807 1.394 . S
C806 H814 0.930 . S
C807 C806 1.394 . S
C807 C808 1.383 . S
C807 H815 0.929 . S
C808 C807 1.383 . S
C808 C809 1.377 . S
C809 H793 0.930 . S
C809 C808 1.377 . S
C809 C810 1.379 . S
C810 H794 0.931 . S
C810 C804 1.383 . S
C810 C809 1.379 . S
H811 C805 0.959 . S
H812 C805 0.961 . S
H813 C805 0.960 . S
H814 C806 0.930 . S
H815 C807 0.929 . S
H816 C824 0.929 . S
H817 C826 0.930 . S
H818 C828 0.930 . S
H819 C831 0.929 . S
H820 C834 0.930 . S
H821 C836 0.960 . S
H822 C836 0.960 . S
H823 C836 0.960 . S
C824 H816 0.929 . S
C824 C825 1.377 . S
C824 C826 1.384 . S
C825 C824 1.377 . S
C825 C831 1.390 . S
C826 H817 0.930 . S
C826 C824 1.384 . S
C826 C827 1.372 . S
C827 C826 1.372 . S
C827 C828 1.400 . S
C827 C832 1.490 . S
C828 H818 0.930 . S
C828 C827 1.400 . S
C828 C831 1.386 . S
H829 C845 0.930 . S
H830 C846 0.931 . S
C831 H819 0.929 . S
C831 C825 1.390 . S
C831 C828 1.386 . S
C832 C827 1.490 . S
C832 C834 1.395 . S
C832 C835 1.403 1_554 S
H833 C839 0.930 . S
C834 H820 0.930 . S
C834 C832 1.395 . S
C834 C837 1.403 . S
C835 C832 1.403 1_556 S
C835 C836 1.524 . S
C835 C839 1.400 . S
C836 H821 0.960 . S
C836 H822 0.960 . S
C836 H823 0.960 . S
C836 C835 1.524 . S
C837 C834 1.403 . S
C837 C838 1.392 1_554 S
C837 C841 1.495 . S
C838 C837 1.392 1_556 S
C838 C839 1.385 . S
C838 C840 1.478 . S
C839 H833 0.930 . S
C839 C835 1.400 . S
C839 C838 1.385 . S
C840 C838 1.478 . S
C840 C842 1.381 . S
C840 C846 1.383 . S
C841 C837 1.495 . S
C841 H847 0.959 . S
C841 H848 0.961 . S
C841 H849 0.960 . S
C842 C840 1.381 . S
C842 C843 1.394 . S
C842 H850 0.930 . S
C843 C842 1.394 . S
C843 C844 1.383 . S
C843 H851 0.929 . S
C844 C843 1.383 . S
C844 C845 1.377 . S
C845 H829 0.930 . S
C845 C844 1.377 . S
C845 C846 1.379 . S
C846 H830 0.931 . S
C846 C840 1.383 . S
C846 C845 1.379 . S
H847 C841 0.959 . S
H848 C841 0.961 . S
H849 C841 0.960 . S
H850 C842 0.930 . S
H851 C843 0.929 . S
H852 C860 0.929 . S
H853 C862 0.930 . S
H854 C864 0.930 . S
H855 C867 0.929 . S
H856 C870 0.930 . S
H857 C872 0.960 . S
H858 C872 0.960 . S
H859 C872 0.960 . S
C860 H852 0.929 . S
C860 C861 1.377 . S
C860 C862 1.384 . S
C861 C860 1.377 . S
C861 C867 1.390 . S
C862 H853 0.930 . S
C862 C860 1.384 . S
C862 C863 1.372 . S
C863 C862 1.372 . S
C863 C864 1.400 . S
C863 C868 1.490 . S
C864 H854 0.930 . S
C864 C863 1.400 . S
C864 C867 1.386 . S
H865 C881 0.930 . S
H866 C882 0.931 . S
C867 H855 0.929 . S
C867 C861 1.390 . S
C867 C864 1.386 . S
C868 C863 1.490 . S
C868 C870 1.395 . S
C868 C871 1.403 . S
H869 C875 0.930 . S
C870 H856 0.930 . S
C870 C868 1.395 . S
C870 C873 1.403 . S
C871 C868 1.403 . S
C871 C872 1.524 . S
C871 C875 1.400 . S
C872 H857 0.960 . S
C872 H858 0.960 . S
C872 H859 0.960 . S
C872 C871 1.524 . S
C873 C870 1.403 . S
C873 C874 1.392 . S
C873 C877 1.495 . S
C874 C873 1.392 . S
C874 C875 1.385 . S
C874 C876 1.478 . S
C875 H869 0.930 . S
C875 C871 1.400 . S
C875 C874 1.385 . S
C876 C874 1.478 . S
C876 C878 1.381 . S
C876 C882 1.383 . S
C877 C873 1.495 . S
C877 H883 0.959 . S
C877 H884 0.961 . S
C877 H885 0.960 . S
C878 C876 1.381 . S
C878 C879 1.394 . S
C878 H886 0.930 . S
C879 C878 1.394 . S
C879 C880 1.383 . S
C879 H887 0.929 . S
C880 C879 1.383 . S
C880 C881 1.377 . S
C881 H865 0.930 . S
C881 C880 1.377 . S
C881 C882 1.379 . S
C882 H866 0.931 . S
C882 C876 1.383 . S
C882 C881 1.379 . S
H883 C877 0.959 . S
H884 C877 0.961 . S
H885 C877 0.960 . S
H886 C878 0.930 . S
H887 C879 0.929 . S
H888 C896 0.929 . S
H889 C898 0.930 . S
H890 C900 0.930 . S
H891 C903 0.929 . S
H892 C906 0.930 . S
H893 C908 0.960 . S
H894 C908 0.960 . S
H895 C908 0.960 . S
C896 H888 0.929 . S
C896 C897 1.377 . S
C896 C898 1.384 . S
C897 C896 1.377 . S
C897 C903 1.390 . S
C898 H889 0.930 . S
C898 C896 1.384 . S
C898 C899 1.372 . S
C899 C898 1.372 . S
C899 C900 1.400 . S
C899 C904 1.490 . S
C900 H890 0.930 . S
C900 C899 1.400 . S
C900 C903 1.386 . S
H901 C917 0.930 . S
H902 C918 0.931 . S
C903 H891 0.929 . S
C903 C897 1.390 . S
C903 C900 1.386 . S
C904 C899 1.490 . S
C904 C906 1.395 . S
C904 C907 1.403 . S
H905 C911 0.930 . S
C906 H892 0.930 . S
C906 C904 1.395 . S
C906 C909 1.403 . S
C907 C904 1.403 . S
C907 C908 1.524 . S
C907 C911 1.400 . S
C908 H893 0.960 . S
C908 H894 0.960 . S
C908 H895 0.960 . S
C908 C907 1.524 . S
C909 C906 1.403 . S
C909 C910 1.392 . S
C909 C913 1.495 . S
C910 C909 1.392 . S
C910 C911 1.385 . S
C910 C912 1.478 . S
C911 H905 0.930 . S
C911 C907 1.400 . S
C911 C910 1.385 . S
C912 C910 1.478 . S
C912 C914 1.381 . S
C912 C918 1.383 . S
C913 C909 1.495 . S
C913 H919 0.959 . S
C913 H920 0.961 . S
C913 H921 0.960 . S
C914 C912 1.381 . S
C914 C915 1.394 . S
C914 H922 0.930 . S
C915 C914 1.394 . S
C915 C916 1.383 . S
C915 H923 0.929 . S
C916 C915 1.383 . S
C916 C917 1.377 . S
C917 H901 0.930 . S
C917 C916 1.377 . S
C917 C918 1.379 . S
C918 H902 0.931 . S
C918 C912 1.383 . S
C918 C917 1.379 . S
H919 C913 0.959 . S
H920 C913 0.961 . S
H921 C913 0.960 . S
H922 C914 0.930 . S
H923 C915 0.929 . S
H924 C932 0.929 . S
H925 C934 0.930 . S
H926 C936 0.924 1_655 S
H927 C939 0.929 1_655 S
H928 C942 0.930 . S
H929 C944 0.960 . S
H930 C944 0.960 1_455 S
H931 C944 0.960 . S
C932 H924 0.929 . S
C932 C933 1.377 . S
C932 C934 1.384 . S
C933 C932 1.377 . S
C933 C939 1.390 . S
C934 H925 0.930 . S
C934 C932 1.384 . S
C934 C935 1.372 . S
C935 C934 1.372 . S
C935 C936 1.404 . S
C935 C940 1.490 . S
C936 H926 0.924 1_455 S
C936 C935 1.404 . S
C936 C939 1.387 . S
H937 C953 0.930 . S
H938 C954 0.931 . S
C939 H927 0.929 1_455 S
C939 C933 1.390 . S
C939 C936 1.387 . S
C940 C935 1.490 . S
C940 C942 1.395 . S
C940 C943 1.403 1_455 S
H941 C947 0.930 . S
C942 H928 0.930 . S
C942 C940 1.395 . S
C942 C945 1.403 . S
C943 C940 1.403 1_655 S
C943 C944 1.524 . S
C943 C947 1.400 . S
C944 H929 0.960 . S
C944 H930 0.960 1_655 S
C944 H931 0.960 . S
C944 C943 1.524 . S
C945 C942 1.403 . S
C945 C946 1.392 1_455 S
C945 C949 1.495 . S
C946 C945 1.392 1_655 S
C946 C947 1.385 . S
C946 C948 1.478 . S
C947 H941 0.930 . S
C947 C943 1.400 . S
C947 C946 1.385 . S
C948 C946 1.478 . S
C948 C950 1.381 1_655 S
C948 C954 1.383 . S
C949 C945 1.495 . S
C949 H955 0.959 . S
C949 H956 0.961 . S
C949 H957 0.960 . S
C950 C948 1.381 1_455 S
C950 C951 1.394 1_455 S
C950 H958 0.930 . S
C951 C950 1.394 1_655 S
C951 C952 1.383 . S
C951 H959 0.929 1_655 S
C952 C951 1.383 . S
C952 C953 1.377 . S
C953 H937 0.930 . S
C953 C952 1.377 . S
C953 C954 1.379 . S
C954 H938 0.931 . S
C954 C948 1.383 . S
C954 C953 1.379 . S
H955 C949 0.959 . S
H956 C949 0.961 . S
H957 C949 0.960 . S
H958 C950 0.930 . S
H959 C951 0.929 1_455 S
H960 C968 0.929 . S
H961 C970 0.930 . S
H962 C972 0.930 1_655 S
H963 C975 0.929 . S
H964 C978 0.930 . S
H965 C980 0.960 . S
H966 C980 0.960 . S
H967 C980 0.960 . S
C968 H960 0.929 . S
C968 C969 1.377 . S
C968 C970 1.384 . S
C969 C968 1.377 . S
C969 C975 1.390 . S
C970 H961 0.930 . S
C970 C968 1.384 . S
C970 C971 1.372 . S
C971 C970 1.372 . S
C971 C972 1.400 . S
C971 C976 1.490 . S
C972 H962 0.930 1_455 S
C972 C971 1.400 . S
C972 C975 1.386 . S
H973 C989 0.930 . S
H974 C990 0.931 . S
C975 H963 0.929 . S
C975 C969 1.390 . S
C975 C972 1.386 . S
C976 C971 1.490 . S
C976 C978 1.395 . S
C976 C979 1.403 1_455 S
H977 C983 0.930 . S
C978 H964 0.930 . S
C978 C976 1.395 . S
C978 C981 1.403 . S
C979 C976 1.403 1_655 S
C979 C980 1.524 . S
C979 C983 1.400 . S
C980 H965 0.960 . S
C980 H966 0.960 . S
C980 H967 0.960 . S
C980 C979 1.524 . S
C981 C978 1.403 . S
C981 C982 1.392 1_455 S
C981 C985 1.495 . S
C982 C981 1.392 1_655 S
C982 C983 1.385 . S
C982 C984 1.478 . S
C983 H977 0.930 . S
C983 C979 1.400 . S
C983 C982 1.385 . S
C984 C982 1.478 . S
C984 C986 1.408 . S
C984 C990 1.383 . S
C985 C981 1.495 . S
C985 H991 0.959 . S
C985 H992 0.961 . S
C985 H993 0.960 . S
C986 C984 1.408 . S
C986 C987 1.417 . S
C986 H994 0.883 1_655 S
C987 C986 1.417 . S
C987 C988 1.383 . S
C987 H995 0.929 . S
C988 C987 1.383 . S
C988 C989 1.377 . S
C989 H973 0.930 . S
C989 C988 1.377 . S
C989 C990 1.379 . S
C990 H974 0.931 . S
C990 C984 1.383 . S
C990 C989 1.379 . S
H991 C985 0.959 . S
H992 C985 0.961 . S
H993 C985 0.960 . S
H994 C986 0.883 1_455 S
H995 C987 0.929 . S
H996 C1004 0.929 . S
H997 C1006 0.930 . S
H998 C1008 0.930 . S
H999 C1011 0.929 . S
H1000 C1014 0.930 . S
H1001 C1016 0.960 . S
H1002 C1016 0.960 . S
H1003 C1016 0.960 . S
C1004 H996 0.929 . S
C1004 C1005 1.377 . S
C1004 C1006 1.384 . S
C1005 C1004 1.377 . S
C1005 C1011 1.390 . S
C1006 H997 0.930 . S
C1006 C1004 1.384 . S
C1006 C1007 1.372 . S
C1007 C1006 1.372 . S
C1007 C1008 1.400 . S
C1007 C1012 1.490 . S
C1008 H998 0.930 . S
C1008 C1007 1.400 . S
C1008 C1011 1.386 . S
H1009 C1025 0.930 . S
H1010 C1026 0.931 . S
C1011 H999 0.929 . S
C1011 C1005 1.390 . S
C1011 C1008 1.386 . S
C1012 C1007 1.490 . S
C1012 C1014 1.395 1_545 S
C1012 C1015 1.403 . S
H1013 C1019 0.930 . S
C1014 H1000 0.930 . S
C1014 C1012 1.395 1_565 S
C1014 C1017 1.403 . S
C1015 C1012 1.403 . S
C1015 C1016 1.524 . S
C1015 C1019 1.400 . S
C1016 H1001 0.960 . S
C1016 H1002 0.960 . S
C1016 H1003 0.960 . S
C1016 C1015 1.524 . S
C1017 C1014 1.403 . S
C1017 C1018 1.392 . S
C1017 C1021 1.495 . S
C1018 C1017 1.392 . S
C1018 C1019 1.385 1_565 S
C1018 C1020 1.478 . S
C1019 H1013 0.930 . S
C1019 C1015 1.400 . S
C1019 C1018 1.385 1_545 S
C1020 C1018 1.478 . S
C1020 C1022 1.381 . S
C1020 C1026 1.383 . S
C1021 C1017 1.495 . S
C1021 H1027 0.959 . S
C1021 H1028 0.961 . S
C1021 H1029 0.960 . S
C1022 C1020 1.381 . S
C1022 C1023 1.394 . S
C1022 H1030 0.960 . S
C1023 C1022 1.394 . S
C1023 C1024 1.383 . S
C1023 H1031 0.929 . S
C1024 C1023 1.383 . S
C1024 C1025 1.377 . S
C1025 H1009 0.930 . S
C1025 C1024 1.377 . S
C1025 C1026 1.379 . S
C1026 H1010 0.931 . S
C1026 C1020 1.383 . S
C1026 C1025 1.379 . S
H1027 C1021 0.959 . S
H1028 C1021 0.961 . S
H1029 C1021 0.960 . S
H1030 C1022 0.960 . S
H1031 C1023 0.929 . S
H1032 C1040 0.929 . S
H1033 C1042 0.930 . S
H1034 C1044 0.930 . S
H1035 C1047 0.929 . S
H1036 C1050 0.930 . S
H1037 C1052 0.960 . S
H1038 C1052 0.960 . S
H1039 C1052 0.960 . S
C1040 H1032 0.929 . S
C1040 C1041 1.377 . S
C1040 C1042 1.384 . S
C1041 C1040 1.377 . S
C1041 C1047 1.390 . S
C1042 H1033 0.930 . S
C1042 C1040 1.384 . S
C1042 C1043 1.372 . S
C1043 C1042 1.372 . S
C1043 C1044 1.400 . S
C1043 C1048 1.490 . S
C1044 H1034 0.930 . S
C1044 C1043 1.400 . S
C1044 C1047 1.386 . S
H1045 C1061 0.930 . S
H1046 C1062 0.931 . S
C1047 H1035 0.929 . S
C1047 C1041 1.390 . S
C1047 C1044 1.386 . S
C1048 C1043 1.490 . S
C1048 C1050 1.395 . S
C1048 C1051 1.403 . S
H1049 C1055 0.930 . S
C1050 H1036 0.930 . S
C1050 C1048 1.395 . S
C1050 C1053 1.403 . S
C1051 C1048 1.403 . S
C1051 C1052 1.524 . S
C1051 C1055 1.400 . S
C1052 H1037 0.960 . S
C1052 H1038 0.960 . S
C1052 H1039 0.960 . S
C1052 C1051 1.524 . S
C1053 C1050 1.403 . S
C1053 C1054 1.392 . S
C1053 C1057 1.495 . S
C1054 C1053 1.392 . S
C1054 C1055 1.385 . S
C1054 C1056 1.478 . S
C1055 H1049 0.930 . S
C1055 C1051 1.400 . S
C1055 C1054 1.385 . S
C1056 C1054 1.478 . S
C1056 C1058 1.381 . S
C1056 C1062 1.383 . S
C1057 C1053 1.495 . S
C1057 H1063 0.959 . S
C1057 H1064 0.961 . S
C1057 H1065 0.960 . S
C1058 C1056 1.381 . S
C1058 C1059 1.394 . S
C1058 H1066 0.930 . S
C1059 C1058 1.394 . S
C1059 C1060 1.383 . S
C1059 H1067 0.929 . S
C1060 C1059 1.383 . S
C1060 C1061 1.377 . S
C1061 H1045 0.930 . S
C1061 C1060 1.377 . S
C1061 C1062 1.379 . S
C1062 H1046 0.931 . S
C1062 C1056 1.383 . S
C1062 C1061 1.379 . S
H1063 C1057 0.959 . S
H1064 C1057 0.961 . S
H1065 C1057 0.960 . S
H1066 C1058 0.930 . S
H1067 C1059 0.929 . S
H1068 C1076 0.929 . S
H1069 C1078 0.930 1_554 S
H1070 C1080 0.930 . S
H1071 C1083 0.929 . S
H1072 C1086 0.930 . S
H1073 C1088 0.960 . S
H1074 C1088 0.960 . S
H1075 C1088 0.960 . S
C1076 H1068 0.929 . S
C1076 C1077 1.377 . S
C1076 C1078 1.384 . S
C1077 C1076 1.377 . S
C1077 C1083 1.390 . S
C1078 H1069 0.930 1_556 S
C1078 C1076 1.384 . S
C1078 C1079 1.372 . S
C1079 C1078 1.372 . S
C1079 C1080 1.400 . S
C1079 C1084 1.490 . S
C1080 H1070 0.930 . S
C1080 C1079 1.400 . S
C1080 C1083 1.386 . S
H1081 C1097 0.930 . S
H1082 C1098 0.931 . S
C1083 H1071 0.929 . S
C1083 C1077 1.390 . S
C1083 C1080 1.386 . S
C1084 C1079 1.490 . S
C1084 C1086 1.395 1_556 S
C1084 C1087 1.403 . S
H1085 C1091 0.930 . S
C1086 H1072 0.930 . S
C1086 C1084 1.395 1_554 S
C1086 C1089 1.403 . S
C1087 C1084 1.403 . S
C1087 C1088 1.524 . S
C1087 C1091 1.400 . S
C1088 H1073 0.960 . S
C1088 H1074 0.960 . S
C1088 H1075 0.960 . S
C1088 C1087 1.524 . S
C1089 C1086 1.403 . S
C1089 C1090 1.392 . S
C1089 C1093 1.495 . S
C1090 C1089 1.392 . S
C1090 C1091 1.385 1_554 S
C1090 C1092 1.478 . S
C1091 H1085 0.930 . S
C1091 C1087 1.400 . S
C1091 C1090 1.385 1_556 S
C1092 C1090 1.478 . S
C1092 C1094 1.381 . S
C1092 C1098 1.383 . S
C1093 C1089 1.495 . S
C1093 H1099 0.959 . S
C1093 H1100 0.961 . S
C1093 H1101 0.960 . S
C1094 C1092 1.381 . S
C1094 C1095 1.394 . S
C1094 H1102 0.930 . S
C1095 C1094 1.394 . S
C1095 C1096 1.383 . S
C1095 H1103 0.929 . S
C1096 C1095 1.383 . S
C1096 C1097 1.377 . S
C1097 H1081 0.930 . S
C1097 C1096 1.377 . S
C1097 C1098 1.379 . S
C1098 H1082 0.931 . S
C1098 C1092 1.383 . S
C1098 C1097 1.379 . S
H1099 C1093 0.959 . S
H1100 C1093 0.961 . S
H1101 C1093 0.960 . S
H1102 C1094 0.930 . S
H1103 C1095 0.929 . S
H1104 C1112 0.929 . S
H1105 C1114 0.930 . S
H1106 C1116 0.930 . S
H1107 C1119 0.929 . S
H1108 C1122 0.930 . S
H1109 C1124 0.960 . S
H1110 C1124 0.960 . S
H1111 C1124 0.960 . S
C1112 H1104 0.929 . S
C1112 C1113 1.377 . S
C1112 C1114 1.384 . S
C1113 C1112 1.377 . S
C1113 C1119 1.390 . S
C1114 H1105 0.930 . S
C1114 C1112 1.384 . S
C1114 C1115 1.372 . S
C1115 C1114 1.372 . S
C1115 C1116 1.400 . S
C1115 C1120 1.490 . S
C1116 H1106 0.930 . S
C1116 C1115 1.400 . S
C1116 C1119 1.386 . S
H1117 C1133 0.930 . S
H1118 C1134 0.931 . S
C1119 H1107 0.929 . S
C1119 C1113 1.390 . S
C1119 C1116 1.386 . S
C1120 C1115 1.490 . S
C1120 C1122 1.395 . S
C1120 C1123 1.403 . S
H1121 C1127 0.930 . S
C1122 H1108 0.930 . S
C1122 C1120 1.395 . S
C1122 C1125 1.403 . S
C1123 C1120 1.403 . S
C1123 C1124 1.524 . S
C1123 C1127 1.400 . S
C1124 H1109 0.960 . S
C1124 H1110 0.960 . S
C1124 H1111 0.960 . S
C1124 C1123 1.524 . S
C1125 C1122 1.403 . S
C1125 C1126 1.392 . S
C1125 C1129 1.495 . S
C1126 C1125 1.392 . S
C1126 C1127 1.385 . S
C1126 C1128 1.478 . S
C1127 H1121 0.930 . S
C1127 C1123 1.400 . S
C1127 C1126 1.385 . S
C1128 C1126 1.478 . S
C1128 C1130 1.381 . S
C1128 C1134 1.383 . S
C1129 C1125 1.495 . S
C1129 H1135 0.959 . S
C1129 H1136 0.961 . S
C1129 H1137 0.960 . S
C1130 C1128 1.381 . S
C1130 C1131 1.394 . S
C1130 H1138 0.930 . S
C1131 C1130 1.394 . S
C1131 C1132 1.383 . S
C1131 H1139 0.929 . S
C1132 C1131 1.383 . S
C1132 C1133 1.377 . S
C1133 H1117 0.930 . S
C1133 C1132 1.377 . S
C1133 C1134 1.379 . S
C1134 H1118 0.931 . S
C1134 C1128 1.383 . S
C1134 C1133 1.379 . S
H1135 C1129 0.959 . S
H1136 C1129 0.961 . S
H1137 C1129 0.960 . S
H1138 C1130 0.930 . S
H1139 C1131 0.929 . S
H1140 C1148 0.929 . S
H1141 C1150 0.930 . S
H1142 C1152 0.930 . S
H1143 C1155 0.929 . S
H1144 C1158 0.930 . S
H1145 C1160 0.960 . S
H1146 C1160 0.960 . S
H1147 C1160 0.960 . S
C1148 H1140 0.929 . S
C1148 C1149 1.377 . S
C1148 C1150 1.384 . S
C1149 C1148 1.377 . S
C1149 C1155 1.390 . S
C1150 H1141 0.930 . S
C1150 C1148 1.384 . S
C1150 C1151 1.372 . S
C1151 C1150 1.372 . S
C1151 C1152 1.400 . S
C1151 C1156 1.490 . S
C1152 H1142 0.930 . S
C1152 C1151 1.400 . S
C1152 C1155 1.386 . S
H1153 C1169 0.930 . S
H1154 C1170 0.931 . S
C1155 H1143 0.929 . S
C1155 C1149 1.390 . S
C1155 C1152 1.386 . S
C1156 C1151 1.490 . S
C1156 C1158 1.395 . S
C1156 C1159 1.403 . S
H1157 C1163 0.930 . S
C1158 H1144 0.930 . S
C1158 C1156 1.395 . S
C1158 C1161 1.403 . S
C1159 C1156 1.403 . S
C1159 C1160 1.524 . S
C1159 C1163 1.400 . S
C1160 H1145 0.960 . S
C1160 H1146 0.960 . S
C1160 H1147 0.960 . S
C1160 C1159 1.524 . S
C1161 C1158 1.403 . S
C1161 C1162 1.392 . S
C1161 C1165 1.495 . S
C1162 C1161 1.392 . S
C1162 C1163 1.385 . S
C1162 C1164 1.478 . S
C1163 H1157 0.930 . S
C1163 C1159 1.400 . S
C1163 C1162 1.385 . S
C1164 C1162 1.478 . S
C1164 C1166 1.381 . S
C1164 C1170 1.383 . S
C1165 C1161 1.495 . S
C1165 H1171 0.959 . S
C1165 H1172 0.961 . S
C1165 H1173 0.960 . S
C1166 C1164 1.381 . S
C1166 C1167 1.394 . S
C1166 H1174 0.930 . S
C1167 C1166 1.394 . S
C1167 C1168 1.383 . S
C1167 H1175 0.929 . S
C1168 C1167 1.383 . S
C1168 C1169 1.377 . S
C1169 H1153 0.930 . S
C1169 C1168 1.377 . S
C1169 C1170 1.379 . S
C1170 H1154 0.931 . S
C1170 C1164 1.383 . S
C1170 C1169 1.379 . S
H1171 C1165 0.959 . S
H1172 C1165 0.961 . S
H1173 C1165 0.960 . S
H1174 C1166 0.930 . S
H1175 C1167 0.929 . S
H1176 C1184 0.929 . S
H1177 C1186 0.930 . S
H1178 C1188 0.930 . S
H1179 C1191 0.929 . S
H1180 C1194 0.930 . S
H1181 C1196 0.960 . S
H1182 C1196 0.960 . S
H1183 C1196 0.960 . S
C1184 H1176 0.929 . S
C1184 C1185 1.377 . S
C1184 C1186 1.384 . S
C1185 C1184 1.377 . S
C1185 C1191 1.390 . S
C1186 H1177 0.930 . S
C1186 C1184 1.384 . S
C1186 C1187 1.372 . S
C1187 C1186 1.372 . S
C1187 C1188 1.400 . S
C1187 C1192 1.490 . S
C1188 H1178 0.930 . S
C1188 C1187 1.400 . S
C1188 C1191 1.386 . S
H1189 C1205 0.930 . S
H1190 C1206 0.931 . S
C1191 H1179 0.929 . S
C1191 C1185 1.390 . S
C1191 C1188 1.386 . S
C1192 C1187 1.490 . S
C1192 C1194 1.395 . S
C1192 C1195 1.403 . S
H1193 C1199 0.930 . S
C1194 H1180 0.930 . S
C1194 C1192 1.395 . S
C1194 C1197 1.403 . S
C1195 C1192 1.403 . S
C1195 C1196 1.524 . S
C1195 C1199 1.400 . S
C1196 H1181 0.960 . S
C1196 H1182 0.960 . S
C1196 H1183 0.960 . S
C1196 C1195 1.524 . S
C1197 C1194 1.403 . S
C1197 C1198 1.392 . S
C1197 C1201 1.495 . S
C1198 C1197 1.392 . S
C1198 C1199 1.385 . S
C1198 C1200 1.478 . S
C1199 H1193 0.930 . S
C1199 C1195 1.400 . S
C1199 C1198 1.385 . S
C1200 C1198 1.478 . S
C1200 C1202 1.381 . S
C1200 C1206 1.383 . S
C1201 C1197 1.495 . S
C1201 H1207 0.959 . S
C1201 H1208 0.961 . S
C1201 H1209 0.960 . S
C1202 C1200 1.381 . S
C1202 C1203 1.394 . S
C1202 H1210 0.930 . S
C1203 C1202 1.394 . S
C1203 C1204 1.383 . S
C1203 H1211 0.929 . S
C1204 C1203 1.383 . S
C1204 C1205 1.377 . S
C1205 H1189 0.930 . S
C1205 C1204 1.377 . S
C1205 C1206 1.379 . S
C1206 H1190 0.931 . S
C1206 C1200 1.383 . S
C1206 C1205 1.379 . S
H1207 C1201 0.959 . S
H1208 C1201 0.961 . S
H1209 C1201 0.960 . S
H1210 C1202 0.930 . S
H1211 C1203 0.929 . S
H1212 C1220 0.929 . S
H1213 C1222 0.930 . S
H1214 C1224 0.930 . S
H1215 C1227 0.929 . S
H1216 C1230 0.930 . S
H1217 C1232 0.960 . S
H1218 C1232 0.960 . S
H1219 C1232 0.960 . S
C1220 H1212 0.929 . S
C1220 C1221 1.377 . S
C1220 C1222 1.384 . S
C1221 C1220 1.377 . S
C1221 C1227 1.390 . S
C1222 H1213 0.930 . S
C1222 C1220 1.384 . S
C1222 C1223 1.372 . S
C1223 C1222 1.372 . S
C1223 C1224 1.400 . S
C1223 C1228 1.490 . S
C1224 H1214 0.930 . S
C1224 C1223 1.400 . S
C1224 C1227 1.386 . S
H1225 C1241 0.930 . S
H1226 C1242 0.931 . S
C1227 H1215 0.929 . S
C1227 C1221 1.390 . S
C1227 C1224 1.386 . S
C1228 C1223 1.490 . S
C1228 C1230 1.395 . S
C1228 C1231 1.403 . S
H1229 C1235 0.930 . S
C1230 H1216 0.930 . S
C1230 C1228 1.395 . S
C1230 C1233 1.403 . S
C1231 C1228 1.403 . S
C1231 C1232 1.524 . S
C1231 C1235 1.400 . S
C1232 H1217 0.960 . S
C1232 H1218 0.960 . S
C1232 H1219 0.960 . S
C1232 C1231 1.524 . S
C1233 C1230 1.403 . S
C1233 C1234 1.392 . S
C1233 C1237 1.495 . S
C1234 C1233 1.392 . S
C1234 C1235 1.385 . S
C1234 C1236 1.478 . S
C1235 H1229 0.930 . S
C1235 C1231 1.400 . S
C1235 C1234 1.385 . S
C1236 C1234 1.478 . S
C1236 C1238 1.381 . S
C1236 C1242 1.383 . S
C1237 C1233 1.495 . S
C1237 H1243 0.959 . S
C1237 H1244 0.961 . S
C1237 H1245 0.960 . S
C1238 C1236 1.381 . S
C1238 C1239 1.394 . S
C1238 H1246 0.930 . S
C1239 C1238 1.394 . S
C1239 C1240 1.383 . S
C1239 H1247 0.929 . S
C1240 C1239 1.383 . S
C1240 C1241 1.377 . S
C1241 H1225 0.930 . S
C1241 C1240 1.377 . S
C1241 C1242 1.379 . S
C1242 H1226 0.931 . S
C1242 C1236 1.383 . S
C1242 C1241 1.379 . S
H1243 C1237 0.959 . S
H1244 C1237 0.961 . S
H1245 C1237 0.960 . S
H1246 C1238 0.930 . S
H1247 C1239 0.929 . S
H1248 C1256 0.929 . S
H1249 C1258 0.930 . S
H1250 C1260 0.930 . S
H1251 C1263 0.929 . S
H1252 C1266 0.930 . S
H1253 C1268 0.960 . S
H1254 C1268 0.960 . S
H1255 C1268 0.960 . S
C1256 H1248 0.929 . S
C1256 C1257 1.377 . S
C1256 C1258 1.384 . S
C1257 C1256 1.377 . S
C1257 C1263 1.390 . S
C1258 H1249 0.930 . S
C1258 C1256 1.384 . S
C1258 C1259 1.372 . S
C1259 C1258 1.372 . S
C1259 C1260 1.400 . S
C1259 C1264 1.490 . S
C1260 H1250 0.930 . S
C1260 C1259 1.400 . S
C1260 C1263 1.386 . S
H1261 C1277 0.930 . S
H1262 C1278 0.931 . S
C1263 H1251 0.929 . S
C1263 C1257 1.390 . S
C1263 C1260 1.386 . S
C1264 C1259 1.490 . S
C1264 C1266 1.395 . S
C1264 C1267 1.403 . S
H1265 C1271 0.930 . S
C1266 H1252 0.930 . S
C1266 C1264 1.395 . S
C1266 C1269 1.403 . S
C1267 C1264 1.403 . S
C1267 C1268 1.524 . S
C1267 C1271 1.400 . S
C1268 H1253 0.960 . S
C1268 H1254 0.960 . S
C1268 H1255 0.960 . S
C1268 C1267 1.524 . S
C1269 C1266 1.403 . S
C1269 C1270 1.392 . S
C1269 C1273 1.495 . S
C1270 C1269 1.392 . S
C1270 C1271 1.385 . S
C1270 C1272 1.478 . S
C1271 H1265 0.930 . S
C1271 C1267 1.400 . S
C1271 C1270 1.385 . S
C1272 C1270 1.478 . S
C1272 C1274 1.381 . S
C1272 C1278 1.383 . S
C1273 C1269 1.495 . S
C1273 H1279 0.959 . S
C1273 H1280 0.961 . S
C1273 H1281 0.960 . S
C1274 C1272 1.381 . S
C1274 C1275 1.394 . S
C1274 H1282 0.930 . S
C1275 C1274 1.394 . S
C1275 C1276 1.383 . S
C1275 H1283 0.929 . S
C1276 C1275 1.383 . S
C1276 C1277 1.377 . S
C1277 H1261 0.930 . S
C1277 C1276 1.377 . S
C1277 C1278 1.379 . S
C1278 H1262 0.931 . S
C1278 C1272 1.383 . S
C1278 C1277 1.379 . S
H1279 C1273 0.959 . S
H1280 C1273 0.961 . S
H1281 C1273 0.960 . S
H1282 C1274 0.930 . S
H1283 C1275 0.929 . S
H1284 C1292 0.929 . S
H1285 C1294 0.930 . S
H1286 C1296 0.930 1_565 S
H1287 C1299 0.933 1_565 S
H1288 C1302 0.930 . S
H1289 C1304 0.960 . S
H1290 C1304 0.960 . S
H1291 C1304 0.960 . S
C1292 H1284 0.929 . S
C1292 C1293 1.377 . S
C1292 C1294 1.384 . S
C1293 C1292 1.377 . S
C1293 C1299 1.390 . S
C1294 H1285 0.930 . S
C1294 C1292 1.384 . S
C1294 C1295 1.372 . S
C1295 C1294 1.372 . S
C1295 C1296 1.400 . S
C1295 C1300 1.490 . S
C1296 H1286 0.930 1_545 S
C1296 C1295 1.400 . S
C1296 C1299 1.386 . S
H1297 C1313 0.930 . S
H1298 C1314 0.931 . S
C1299 H1287 0.933 1_545 S
C1299 C1293 1.390 . S
C1299 C1296 1.386 . S
C1300 C1295 1.490 . S
C1300 C1302 1.395 . S
C1300 C1303 1.403 1_545 S
H1301 C1307 0.930 . S
C1302 H1288 0.930 . S
C1302 C1300 1.395 . S
C1302 C1305 1.403 . S
C1303 C1300 1.403 1_565 S
C1303 C1304 1.524 . S
C1303 C1307 1.400 . S
C1304 H1289 0.960 . S
C1304 H1290 0.960 . S
C1304 H1291 0.960 . S
C1304 C1303 1.524 . S
C1305 C1302 1.403 . S
C1305 C1306 1.392 1_545 S
C1305 C1309 1.495 . S
C1306 C1305 1.392 1_565 S
C1306 C1307 1.385 . S
C1306 C1308 1.478 . S
C1307 H1301 0.930 . S
C1307 C1303 1.400 . S
C1307 C1306 1.385 . S
C1308 C1306 1.478 . S
C1308 C1310 1.381 . S
C1308 C1314 1.383 . S
C1309 C1305 1.495 . S
C1309 H1315 0.959 . S
C1309 H1316 0.961 . S
C1309 H1317 0.960 . S
C1310 C1308 1.381 . S
C1310 C1311 1.394 . S
C1310 H1318 0.931 1_565 S
C1311 C1310 1.394 . S
C1311 C1312 1.383 . S
C1311 H1319 0.956 . S
C1312 C1311 1.383 . S
C1312 C1313 1.377 . S
C1313 H1297 0.930 . S
C1313 C1312 1.377 . S
C1313 C1314 1.379 . S
C1314 H1298 0.931 . S
C1314 C1308 1.383 . S
C1314 C1313 1.379 . S
H1315 C1309 0.959 . S
H1316 C1309 0.961 . S
H1317 C1309 0.960 . S
H1318 C1310 0.931 1_545 S
H1319 C1311 0.956 . S
H1320 C1328 0.929 . S
H1321 C1330 0.930 . S
H1322 C1332 0.930 1_556 S
H1323 C1335 0.908 1_556 S
H1324 C1338 0.930 . S
H1325 C1340 0.960 . S
H1326 C1340 0.960 . S
H1327 C1340 0.960 . S
C1328 H1320 0.929 . S
C1328 C1329 1.377 . S
C1328 C1330 1.384 . S
C1329 C1328 1.377 . S
C1329 C1335 1.390 . S
C1330 H1321 0.930 . S
C1330 C1328 1.384 . S
C1330 C1331 1.372 . S
C1331 C1330 1.372 . S
C1331 C1332 1.400 . S
C1331 C1336 1.490 . S
C1332 H1322 0.930 1_554 S
C1332 C1331 1.400 . S
C1332 C1335 1.386 . S
H1333 C1349 0.930 . S
H1334 C1350 0.931 . S
C1335 H1323 0.908 1_554 S
C1335 C1329 1.390 . S
C1335 C1332 1.386 . S
C1336 C1331 1.490 . S
C1336 C1338 1.395 . S
C1336 C1339 1.403 1_554 S
H1337 C1343 0.930 . S
C1338 H1324 0.930 . S
C1338 C1336 1.395 . S
C1338 C1341 1.403 . S
C1339 C1336 1.403 1_556 S
C1339 C1340 1.524 . S
C1339 C1343 1.400 . S
C1340 H1325 0.960 . S
C1340 H1326 0.960 . S
C1340 H1327 0.960 . S
C1340 C1339 1.524 . S
C1341 C1338 1.403 . S
C1341 C1342 1.392 1_554 S
C1341 C1345 1.495 . S
C1342 C1341 1.392 1_556 S
C1342 C1343 1.385 . S
C1342 C1344 1.478 . S
C1343 H1337 0.930 . S
C1343 C1339 1.400 . S
C1343 C1342 1.385 . S
C1344 C1342 1.478 . S
C1344 C1346 1.375 1_556 S
C1344 C1350 1.383 . S
C1345 C1341 1.495 . S
C1345 H1351 0.959 . S
C1345 H1352 0.961 . S
C1345 H1353 0.960 . S
C1346 C1344 1.375 1_554 S
C1346 C1347 1.390 1_554 S
C1346 H1354 0.941 . S
C1347 C1346 1.390 1_556 S
C1347 C1348 1.383 . S
C1347 H1355 0.930 . S
C1348 C1347 1.383 . S
C1348 C1349 1.377 . S
C1349 H1333 0.930 . S
C1349 C1348 1.377 . S
C1349 C1350 1.379 . S
C1350 H1334 0.931 . S
C1350 C1344 1.383 . S
C1350 C1349 1.379 . S
H1351 C1345 0.959 . S
H1352 C1345 0.961 . S
H1353 C1345 0.960 . S
H1354 C1346 0.941 . S
H1355 C1347 0.930 . S
H1356 C1364 0.929 . S
H1357 C1366 0.930 . S
H1358 C1368 0.930 . S
H1359 C1371 0.929 . S
H1360 C1374 0.930 . S
H1361 C1376 0.960 . S
H1362 C1376 0.960 . S
H1363 C1376 0.960 . S
C1364 H1356 0.929 . S
C1364 C1365 1.377 . S
C1364 C1366 1.384 . S
C1365 C1364 1.377 . S
C1365 C1371 1.390 . S
C1366 H1357 0.930 . S
C1366 C1364 1.384 . S
C1366 C1367 1.372 . S
C1367 C1366 1.372 . S
C1367 C1368 1.400 . S
C1367 C1372 1.490 . S
C1368 H1358 0.930 . S
C1368 C1367 1.400 . S
C1368 C1371 1.386 . S
H1369 C1385 0.930 . S
H1370 C1386 0.931 . S
C1371 H1359 0.929 . S
C1371 C1365 1.390 . S
C1371 C1368 1.386 . S
C1372 C1367 1.490 . S
C1372 C1374 1.395 . S
C1372 C1375 1.403 . S
H1373 C1379 0.930 . S
C1374 H1360 0.930 . S
C1374 C1372 1.395 . S
C1374 C1377 1.403 . S
C1375 C1372 1.403 . S
C1375 C1376 1.524 . S
C1375 C1379 1.400 . S
C1376 H1361 0.960 . S
C1376 H1362 0.960 . S
C1376 H1363 0.960 . S
C1376 C1375 1.524 . S
C1377 C1374 1.403 . S
C1377 C1378 1.392 . S
C1377 C1381 1.495 . S
C1378 C1377 1.392 . S
C1378 C1379 1.385 . S
C1378 C1380 1.478 . S
C1379 H1373 0.930 . S
C1379 C1375 1.400 . S
C1379 C1378 1.385 . S
C1380 C1378 1.478 . S
C1380 C1382 1.381 . S
C1380 C1386 1.383 . S
C1381 C1377 1.495 . S
C1381 H1387 0.959 . S
C1381 H1388 0.961 . S
C1381 H1389 0.960 . S
C1382 C1380 1.381 . S
C1382 C1383 1.394 . S
C1382 H1390 0.930 . S
C1383 C1382 1.394 . S
C1383 C1384 1.383 . S
C1383 H1391 0.929 . S
C1384 C1383 1.383 . S
C1384 C1385 1.377 . S
C1385 H1369 0.930 . S
C1385 C1384 1.377 . S
C1385 C1386 1.379 . S
C1386 H1370 0.931 . S
C1386 C1380 1.383 . S
C1386 C1385 1.379 . S
H1387 C1381 0.959 . S
H1388 C1381 0.961 . S
H1389 C1381 0.960 . S
H1390 C1382 0.930 . S
H1391 C1383 0.929 . S
H1392 C1400 0.929 . S
H1393 C1402 0.930 . S
H1394 C1404 0.930 . S
H1395 C1407 0.929 . S
H1396 C1410 0.930 . S
H1397 C1412 0.960 . S
H1398 C1412 0.960 . S
H1399 C1412 0.960 . S
C1400 H1392 0.929 . S
C1400 C1401 1.377 . S
C1400 C1402 1.384 . S
C1401 C1400 1.377 . S
C1401 C1407 1.390 . S
C1402 H1393 0.930 . S
C1402 C1400 1.384 . S
C1402 C1403 1.372 . S
C1403 C1402 1.372 . S
C1403 C1404 1.400 . S
C1403 C1408 1.490 . S
C1404 H1394 0.930 . S
C1404 C1403 1.400 . S
C1404 C1407 1.386 . S
H1405 C1421 0.930 . S
H1406 C1422 0.931 . S
C1407 H1395 0.929 . S
C1407 C1401 1.390 . S
C1407 C1404 1.386 . S
C1408 C1403 1.490 . S
C1408 C1410 1.395 . S
C1408 C1411 1.403 . S
H1409 C1415 0.930 . S
C1410 H1396 0.930 . S
C1410 C1408 1.395 . S
C1410 C1413 1.403 . S
C1411 C1408 1.403 . S
C1411 C1412 1.524 . S
C1411 C1415 1.400 . S
C1412 H1397 0.960 . S
C1412 H1398 0.960 . S
C1412 H1399 0.960 . S
C1412 C1411 1.524 . S
C1413 C1410 1.403 . S
C1413 C1414 1.392 . S
C1413 C1417 1.495 . S
C1414 C1413 1.392 . S
C1414 C1415 1.385 . S
C1414 C1416 1.478 . S
C1415 H1409 0.930 . S
C1415 C1411 1.400 . S
C1415 C1414 1.385 . S
C1416 C1414 1.478 . S
C1416 C1418 1.381 . S
C1416 C1422 1.383 . S
C1417 C1413 1.495 . S
C1417 H1423 0.959 . S
C1417 H1424 0.961 . S
C1417 H1425 0.960 . S
C1418 C1416 1.381 . S
C1418 C1419 1.394 . S
C1418 H1426 0.930 . S
C1419 C1418 1.394 . S
C1419 C1420 1.383 . S
C1419 H1427 0.929 . S
C1420 C1419 1.383 . S
C1420 C1421 1.377 . S
C1421 H1405 0.930 . S
C1421 C1420 1.377 . S
C1421 C1422 1.379 . S
C1422 H1406 0.931 . S
C1422 C1416 1.383 . S
C1422 C1421 1.379 . S
H1423 C1417 0.959 . S
H1424 C1417 0.961 . S
H1425 C1417 0.960 . S
H1426 C1418 0.930 . S
H1427 C1419 0.929 . S
H1428 C1436 0.929 . S
H1429 C1438 0.930 . S
H1430 C1440 0.930 . S
H1431 C1443 0.929 . S
H1432 C1446 0.930 . S
H1433 C1448 0.960 . S
H1434 C1448 0.960 . S
H1435 C1448 0.960 . S
C1436 H1428 0.929 . S
C1436 C1437 1.377 . S
C1436 C1438 1.384 . S
C1437 C1436 1.377 . S
C1437 C1443 1.390 . S
C1438 H1429 0.930 . S
C1438 C1436 1.384 . S
C1438 C1439 1.372 . S
C1439 C1438 1.372 . S
C1439 C1440 1.400 . S
C1439 C1444 1.490 . S
C1440 H1430 0.930 . S
C1440 C1439 1.400 . S
C1440 C1443 1.386 . S
H1441 C1457 0.930 . S
H1442 C1458 0.931 . S
C1443 H1431 0.929 . S
C1443 C1437 1.390 . S
C1443 C1440 1.386 . S
C1444 C1439 1.490 . S
C1444 C1446 1.395 . S
C1444 C1447 1.403 . S
H1445 C1451 0.930 . S
C1446 H1432 0.930 . S
C1446 C1444 1.395 . S
C1446 C1449 1.403 . S
C1447 C1444 1.403 . S
C1447 C1448 1.524 . S
C1447 C1451 1.400 . S
C1448 H1433 0.960 . S
C1448 H1434 0.960 . S
C1448 H1435 0.960 . S
C1448 C1447 1.524 . S
C1449 C1446 1.403 . S
C1449 C1450 1.392 . S
C1449 C1453 1.495 . S
C1450 C1449 1.392 . S
C1450 C1451 1.385 . S
C1450 C1452 1.478 . S
C1451 H1445 0.930 . S
C1451 C1447 1.400 . S
C1451 C1450 1.385 . S
C1452 C1450 1.478 . S
C1452 C1454 1.381 . S
C1452 C1458 1.383 . S
C1453 C1449 1.495 . S
C1453 H1459 0.959 . S
C1453 H1460 0.961 . S
C1453 H1461 0.960 . S
C1454 C1452 1.381 . S
C1454 C1455 1.394 . S
C1454 H1462 0.930 . S
C1455 C1454 1.394 . S
C1455 C1456 1.383 . S
C1455 H1463 0.929 . S
C1456 C1455 1.383 . S
C1456 C1457 1.377 . S
C1457 H1441 0.930 . S
C1457 C1456 1.377 . S
C1457 C1458 1.379 . S
C1458 H1442 0.931 . S
C1458 C1452 1.383 . S
C1458 C1457 1.379 . S
H1459 C1453 0.959 . S
H1460 C1453 0.961 . S
H1461 C1453 0.960 . S
H1462 C1454 0.930 . S
H1463 C1455 0.929 . S
H1464 C1472 0.929 . S
H1465 C1474 0.930 . S
H1466 C1476 0.930 1_565 S
H1467 C1479 0.929 . S
H1468 C1482 0.930 . S
H1469 C1484 0.960 . S
H1470 C1484 0.960 . S
H1471 C1484 0.960 . S
C1472 H1464 0.929 . S
C1472 C1473 1.377 . S
C1472 C1474 1.384 . S
C1473 C1472 1.377 . S
C1473 C1479 1.390 . S
C1474 H1465 0.930 . S
C1474 C1472 1.384 . S
C1474 C1475 1.372 . S
C1475 C1474 1.372 . S
C1475 C1476 1.400 . S
C1475 C1480 1.490 . S
C1476 H1466 0.930 1_545 S
C1476 C1475 1.400 . S
C1476 C1479 1.386 . S
H1477 C1493 0.930 . S
H1478 C1494 0.931 . S
C1479 H1467 0.929 . S
C1479 C1473 1.390 . S
C1479 C1476 1.386 . S
C1480 C1475 1.490 . S
C1480 C1482 1.395 . S
C1480 C1483 1.403 . S
H1481 C1487 0.930 . S
C1482 H1468 0.930 . S
C1482 C1480 1.395 . S
C1482 C1485 1.403 1_545 S
C1483 C1480 1.403 . S
C1483 C1484 1.524 . S
C1483 C1487 1.400 1_545 S
C1484 H1469 0.960 . S
C1484 H1470 0.960 . S
C1484 H1471 0.960 . S
C1484 C1483 1.524 . S
C1485 C1482 1.403 1_565 S
C1485 C1486 1.392 . S
C1485 C1489 1.495 . S
C1486 C1485 1.392 . S
C1486 C1487 1.385 . S
C1486 C1488 1.478 . S
C1487 H1481 0.930 . S
C1487 C1483 1.400 1_565 S
C1487 C1486 1.385 . S
C1488 C1486 1.478 . S
C1488 C1490 1.381 . S
C1488 C1494 1.383 . S
C1489 C1485 1.495 . S
C1489 H1495 0.959 . S
C1489 H1496 0.961 . S
C1489 H1497 0.973 . S
C1490 C1488 1.381 . S
C1490 C1491 1.394 . S
C1490 H1498 0.930 1_565 S
C1491 C1490 1.394 . S
C1491 C1492 1.383 . S
C1491 H1499 0.939 . S
C1492 C1491 1.383 . S
C1492 C1493 1.377 . S
C1493 H1477 0.930 . S
C1493 C1492 1.377 . S
C1493 C1494 1.379 . S
C1494 H1478 0.931 . S
C1494 C1488 1.383 . S
C1494 C1493 1.379 . S
H1495 C1489 0.959 . S
H1496 C1489 0.961 . S
H1497 C1489 0.973 . S
H1498 C1490 0.930 1_545 S
H1499 C1491 0.939 . S
H1500 C1508 0.929 . S
H1501 C1510 0.930 . S
H1502 C1512 0.930 1_556 S
H1503 C1515 0.929 . S
H1504 C1518 0.930 . S
H1505 C1520 0.960 . S
H1506 C1520 0.960 . S
H1507 C1520 0.960 . S
C1508 H1500 0.929 . S
C1508 C1509 1.377 . S
C1508 C1510 1.384 . S
C1509 C1508 1.377 . S
C1509 C1515 1.390 . S
C1510 H1501 0.930 . S
C1510 C1508 1.384 . S
C1510 C1511 1.372 . S
C1511 C1510 1.372 . S
C1511 C1512 1.400 . S
C1511 C1516 1.490 . S
C1512 H1502 0.930 1_554 S
C1512 C1511 1.400 . S
C1512 C1515 1.386 . S
H1513 C1529 0.930 . S
H1514 C1530 0.931 . S
C1515 H1503 0.929 . S
C1515 C1509 1.390 . S
C1515 C1512 1.386 . S
C1516 C1511 1.490 . S
C1516 C1518 1.395 1_554 S
C1516 C1519 1.403 . S
H1517 C1523 0.930 . S
C1518 H1504 0.930 . S
C1518 C1516 1.395 1_556 S
C1518 C1521 1.403 . S
C1519 C1516 1.403 . S
C1519 C1520 1.524 . S
C1519 C1523 1.400 . S
C1520 H1505 0.960 . S
C1520 H1506 0.960 . S
C1520 H1507 0.960 . S
C1520 C1519 1.524 . S
C1521 C1518 1.403 . S
C1521 C1522 1.392 . S
C1521 C1525 1.495 . S
C1522 C1521 1.392 . S
C1522 C1523 1.385 1_556 S
C1522 C1524 1.478 . S
C1523 H1517 0.930 . S
C1523 C1519 1.400 . S
C1523 C1522 1.385 1_554 S
C1524 C1522 1.478 . S
C1524 C1526 1.381 . S
C1524 C1530 1.383 . S
C1525 C1521 1.495 . S
C1525 H1531 0.959 . S
C1525 H1532 0.961 . S
C1525 H1533 0.960 . S
C1526 C1524 1.381 . S
C1526 C1527 1.394 . S
C1526 H1534 0.930 1_556 S
C1527 C1526 1.394 . S
C1527 C1528 1.383 . S
C1527 H1535 0.929 . S
C1528 C1527 1.383 . S
C1528 C1529 1.377 . S
C1529 H1513 0.930 . S
C1529 C1528 1.377 . S
C1529 C1530 1.379 . S
C1530 H1514 0.931 . S
C1530 C1524 1.383 . S
C1530 C1529 1.379 . S
H1531 C1525 0.959 . S
H1532 C1525 0.961 . S
H1533 C1525 0.960 . S
H1534 C1526 0.930 1_554 S
H1535 C1527 0.929 . S
H1536 C1544 0.929 . S
H1537 C1546 0.930 . S
H1538 C1548 0.930 . S
H1539 C1551 0.929 . S
H1540 C1554 0.930 . S
H1541 C1556 0.960 . S
H1542 C1556 0.960 . S
H1543 C1556 0.960 . S
C1544 H1536 0.929 . S
C1544 C1545 1.377 . S
C1544 C1546 1.384 . S
C1545 C1544 1.377 . S
C1545 C1551 1.390 . S
C1546 H1537 0.930 . S
C1546 C1544 1.384 . S
C1546 C1547 1.372 . S
C1547 C1546 1.372 . S
C1547 C1548 1.400 . S
C1547 C1552 1.490 . S
C1548 H1538 0.930 . S
C1548 C1547 1.400 . S
C1548 C1551 1.386 . S
H1549 C1565 0.930 . S
H1550 C1566 0.931 . S
C1551 H1539 0.929 . S
C1551 C1545 1.390 . S
C1551 C1548 1.386 . S
C1552 C1547 1.490 . S
C1552 C1554 1.395 . S
C1552 C1555 1.403 . S
H1553 C1559 0.930 . S
C1554 H1540 0.930 . S
C1554 C1552 1.395 . S
C1554 C1557 1.403 . S
C1555 C1552 1.403 . S
C1555 C1556 1.524 . S
C1555 C1559 1.400 . S
C1556 H1541 0.960 . S
C1556 H1542 0.960 . S
C1556 H1543 0.960 . S
C1556 C1555 1.524 . S
C1557 C1554 1.403 . S
C1557 C1558 1.392 . S
C1557 C1561 1.495 . S
C1558 C1557 1.392 . S
C1558 C1559 1.385 . S
C1558 C1560 1.478 . S
C1559 H1553 0.930 . S
C1559 C1555 1.400 . S
C1559 C1558 1.385 . S
C1560 C1558 1.478 . S
C1560 C1562 1.381 . S
C1560 C1566 1.383 . S
C1561 C1557 1.495 . S
C1561 H1567 0.959 . S
C1561 H1568 0.961 . S
C1561 H1569 0.960 . S
C1562 C1560 1.381 . S
C1562 C1563 1.394 . S
C1562 H1570 0.930 . S
C1563 C1562 1.394 . S
C1563 C1564 1.383 . S
C1563 H1571 0.929 . S
C1564 C1563 1.383 . S
C1564 C1565 1.377 . S
C1565 H1549 0.930 . S
C1565 C1564 1.377 . S
C1565 C1566 1.379 . S
C1566 H1550 0.931 . S
C1566 C1560 1.383 . S
C1566 C1565 1.379 . S
H1567 C1561 0.959 . S
H1568 C1561 0.961 . S
H1569 C1561 0.960 . S
H1570 C1562 0.930 . S
H1571 C1563 0.929 . S
H1572 C1580 0.929 . S
H1573 C1582 0.930 . S
H1574 C1584 0.930 . S
H1575 C1587 0.929 . S
H1576 C1590 0.930 . S
H1577 C1592 0.960 . S
H1578 C1592 0.960 . S
H1579 C1592 0.960 . S
C1580 H1572 0.929 . S
C1580 C1581 1.377 . S
C1580 C1582 1.384 . S
C1581 C1580 1.377 . S
C1581 C1587 1.390 . S
C1582 H1573 0.930 . S
C1582 C1580 1.384 . S
C1582 C1583 1.372 . S
C1583 C1582 1.372 . S
C1583 C1584 1.400 . S
C1583 C1588 1.490 . S
C1584 H1574 0.930 . S
C1584 C1583 1.400 . S
C1584 C1587 1.386 . S
H1585 C1601 0.930 . S
H1586 C1602 0.931 . S
C1587 H1575 0.929 . S
C1587 C1581 1.390 . S
C1587 C1584 1.386 . S
C1588 C1583 1.490 . S
C1588 C1590 1.395 . S
C1588 C1591 1.403 . S
H1589 C1595 0.930 . S
C1590 H1576 0.930 . S
C1590 C1588 1.395 . S
C1590 C1593 1.403 . S
C1591 C1588 1.403 . S
C1591 C1592 1.524 . S
C1591 C1595 1.400 . S
C1592 H1577 0.960 . S
C1592 H1578 0.960 . S
C1592 H1579 0.960 . S
C1592 C1591 1.524 . S
C1593 C1590 1.403 . S
C1593 C1594 1.392 . S
C1593 C1597 1.495 . S
C1594 C1593 1.392 . S
C1594 C1595 1.385 . S
C1594 C1596 1.478 . S
C1595 H1589 0.930 . S
C1595 C1591 1.400 . S
C1595 C1594 1.385 . S
C1596 C1594 1.478 . S
C1596 C1598 1.381 . S
C1596 C1602 1.383 . S
C1597 C1593 1.495 . S
C1597 H1603 0.959 . S
C1597 H1604 0.961 . S
C1597 H1605 0.960 . S
C1598 C1596 1.381 . S
C1598 C1599 1.394 . S
C1598 H1606 0.930 . S
C1599 C1598 1.394 . S
C1599 C1600 1.383 . S
C1599 H1607 0.929 . S
C1600 C1599 1.383 . S
C1600 C1601 1.377 . S
C1601 H1585 0.930 . S
C1601 C1600 1.377 . S
C1601 C1602 1.379 . S
C1602 H1586 0.931 . S
C1602 C1596 1.383 . S
C1602 C1601 1.379 . S
H1603 C1597 0.959 . S
H1604 C1597 0.961 . S
H1605 C1597 0.960 . S
H1606 C1598 0.930 . S
H1607 C1599 0.929 . S
H1608 C1616 0.929 . S
H1609 C1618 0.930 . S
H1610 C1620 0.930 . S
H1611 C1623 0.929 . S
H1612 C1626 0.930 . S
H1613 C1628 0.960 . S
H1614 C1628 0.960 . S
H1615 C1628 0.960 . S
C1616 H1608 0.929 . S
C1616 C1617 1.377 . S
C1616 C1618 1.384 . S
C1617 C1616 1.377 . S
C1617 C1623 1.390 . S
C1618 H1609 0.930 . S
C1618 C1616 1.384 . S
C1618 C1619 1.372 . S
C1619 C1618 1.372 . S
C1619 C1620 1.400 . S
C1619 C1624 1.490 . S
C1620 H1610 0.930 . S
C1620 C1619 1.400 . S
C1620 C1623 1.386 . S
H1621 C1637 0.930 . S
H1622 C1638 0.931 . S
C1623 H1611 0.929 . S
C1623 C1617 1.390 . S
C1623 C1620 1.386 . S
C1624 C1619 1.490 . S
C1624 C1626 1.395 . S
C1624 C1627 1.403 . S
H1625 C1631 0.930 . S
C1626 H1612 0.930 . S
C1626 C1624 1.395 . S
C1626 C1629 1.403 . S
C1627 C1624 1.403 . S
C1627 C1628 1.524 . S
C1627 C1631 1.400 . S
C1628 H1613 0.960 . S
C1628 H1614 0.960 . S
C1628 H1615 0.960 . S
C1628 C1627 1.524 . S
C1629 C1626 1.403 . S
C1629 C1630 1.392 . S
C1629 C1633 1.495 . S
C1630 C1629 1.392 . S
C1630 C1631 1.385 . S
C1630 C1632 1.478 . S
C1631 H1625 0.930 . S
C1631 C1627 1.400 . S
C1631 C1630 1.385 . S
C1632 C1630 1.478 . S
C1632 C1634 1.381 . S
C1632 C1638 1.383 . S
C1633 C1629 1.495 . S
C1633 H1639 0.959 . S
C1633 H1640 0.961 . S
C1633 H1641 0.960 . S
C1634 C1632 1.381 . S
C1634 C1635 1.394 . S
C1634 H1642 0.930 . S
C1635 C1634 1.394 . S
C1635 C1636 1.383 . S
C1635 H1643 0.929 . S
C1636 C1635 1.383 . S
C1636 C1637 1.377 . S
C1637 H1621 0.930 . S
C1637 C1636 1.377 . S
C1637 C1638 1.379 . S
C1638 H1622 0.931 . S
C1638 C1632 1.383 . S
C1638 C1637 1.379 . S
H1639 C1633 0.959 . S
H1640 C1633 0.961 . S
H1641 C1633 0.960 . S
H1642 C1634 0.930 . S
H1643 C1635 0.929 . S
H1644 C1652 0.929 . S
H1645 C1654 0.930 . S
H1646 C1656 0.930 . S
H1647 C1659 0.929 . S
H1648 C1662 0.930 . S
H1649 C1664 0.960 . S
H1650 C1664 0.960 . S
H1651 C1664 0.960 . S
C1652 H1644 0.929 . S
C1652 C1653 1.377 . S
C1652 C1654 1.384 . S
C1653 C1652 1.377 . S
C1653 C1659 1.390 . S
C1654 H1645 0.930 . S
C1654 C1652 1.384 . S
C1654 C1655 1.372 . S
C1655 C1654 1.372 . S
C1655 C1656 1.400 . S
C1655 C1660 1.490 . S
C1656 H1646 0.930 . S
C1656 C1655 1.400 . S
C1656 C1659 1.386 . S
H1657 C1673 0.930 . S
H1658 C1674 0.931 . S
C1659 H1647 0.929 . S
C1659 C1653 1.390 . S
C1659 C1656 1.386 . S
C1660 C1655 1.490 . S
C1660 C1662 1.395 . S
C1660 C1663 1.403 . S
H1661 C1667 0.930 . S
C1662 H1648 0.930 . S
C1662 C1660 1.395 . S
C1662 C1665 1.403 . S
C1663 C1660 1.403 . S
C1663 C1664 1.524 . S
C1663 C1667 1.400 . S
C1664 H1649 0.960 . S
C1664 H1650 0.960 . S
C1664 H1651 0.960 . S
C1664 C1663 1.524 . S
C1665 C1662 1.403 . S
C1665 C1666 1.392 . S
C1665 C1669 1.495 . S
C1666 C1665 1.392 . S
C1666 C1667 1.385 . S
C1666 C1668 1.478 . S
C1667 H1661 0.930 . S
C1667 C1663 1.400 . S
C1667 C1666 1.385 . S
C1668 C1666 1.478 . S
C1668 C1670 1.381 . S
C1668 C1674 1.383 . S
C1669 C1665 1.495 . S
C1669 H1675 0.959 . S
C1669 H1676 0.961 . S
C1669 H1677 0.960 . S
C1670 C1668 1.381 . S
C1670 C1671 1.394 . S
C1670 H1678 0.930 . S
C1671 C1670 1.394 . S
C1671 C1672 1.383 . S
C1671 H1679 0.929 . S
C1672 C1671 1.383 . S
C1672 C1673 1.377 . S
C1673 H1657 0.930 . S
C1673 C1672 1.377 . S
C1673 C1674 1.379 . S
C1674 H1658 0.931 . S
C1674 C1668 1.383 . S
C1674 C1673 1.379 . S
H1675 C1669 0.959 . S
H1676 C1669 0.961 . S
H1677 C1669 0.960 . S
H1678 C1670 0.930 . S
H1679 C1671 0.929 . S
H1680 C1688 0.929 . S
H1681 C1690 0.930 . S
H1682 C1692 0.930 . S
H1683 C1695 0.929 . S
H1684 C1698 0.930 . S
H1685 C1700 0.960 . S
H1686 C1700 0.960 . S
H1687 C1700 0.960 . S
C1688 H1680 0.929 . S
C1688 C1689 1.377 . S
C1688 C1690 1.384 . S
C1689 C1688 1.377 . S
C1689 C1695 1.390 . S
C1690 H1681 0.930 . S
C1690 C1688 1.384 . S
C1690 C1691 1.372 . S
C1691 C1690 1.372 . S
C1691 C1692 1.400 . S
C1691 C1696 1.490 . S
C1692 H1682 0.930 . S
C1692 C1691 1.400 . S
C1692 C1695 1.386 . S
H1693 C1709 0.930 . S
H1694 C1710 0.931 . S
C1695 H1683 0.929 . S
C1695 C1689 1.390 . S
C1695 C1692 1.386 . S
C1696 C1691 1.490 . S
C1696 C1698 1.395 . S
C1696 C1699 1.403 . S
H1697 C1703 0.930 . S
C1698 H1684 0.930 . S
C1698 C1696 1.395 . S
C1698 C1701 1.403 . S
C1699 C1696 1.403 . S
C1699 C1700 1.524 . S
C1699 C1703 1.400 . S
C1700 H1685 0.960 . S
C1700 H1686 0.960 . S
C1700 H1687 0.960 . S
C1700 C1699 1.524 . S
C1701 C1698 1.403 . S
C1701 C1702 1.392 . S
C1701 C1705 1.495 . S
C1702 C1701 1.392 . S
C1702 C1703 1.385 . S
C1702 C1704 1.478 . S
C1703 H1697 0.930 . S
C1703 C1699 1.400 . S
C1703 C1702 1.385 . S
C1704 C1702 1.478 . S
C1704 C1706 1.381 . S
C1704 C1710 1.383 . S
C1705 C1701 1.495 . S
C1705 H1711 0.959 . S
C1705 H1712 0.961 . S
C1705 H1713 0.960 . S
C1706 C1704 1.381 . S
C1706 C1707 1.394 . S
C1706 H1714 0.930 . S
C1707 C1706 1.394 . S
C1707 C1708 1.383 . S
C1707 H1715 0.929 . S
C1708 C1707 1.383 . S
C1708 C1709 1.377 . S
C1709 H1693 0.930 . S
C1709 C1708 1.377 . S
C1709 C1710 1.379 . S
C1710 H1694 0.931 . S
C1710 C1704 1.383 . S
C1710 C1709 1.379 . S
H1711 C1705 0.959 . S
H1712 C1705 0.961 . S
H1713 C1705 0.960 . S
H1714 C1706 0.930 . S
H1715 C1707 0.929 . S
H1716 C1724 0.929 . S
H1717 C1726 0.930 . S
H1718 C1728 0.930 . S
H1719 C1731 0.929 . S
H1720 C1734 0.930 . S
H1721 C1736 0.960 . S
H1722 C1736 0.960 . S
H1723 C1736 0.960 . S
C1724 H1716 0.929 . S
C1724 C1725 1.377 . S
C1724 C1726 1.384 . S
C1725 C1724 1.377 . S
C1725 C1731 1.390 . S
C1726 H1717 0.930 . S
C1726 C1724 1.384 . S
C1726 C1727 1.372 . S
C1727 C1726 1.372 . S
C1727 C1728 1.400 . S
C1727 C1732 1.490 . S
C1728 H1718 0.930 . S
C1728 C1727 1.400 . S
C1728 C1731 1.386 . S
H1729 C1745 0.930 . S
H1730 C1746 0.931 . S
C1731 H1719 0.929 . S
C1731 C1725 1.390 . S
C1731 C1728 1.386 . S
C1732 C1727 1.490 . S
C1732 C1734 1.395 . S
C1732 C1735 1.403 . S
H1733 C1739 0.930 . S
C1734 H1720 0.930 . S
C1734 C1732 1.395 . S
C1734 C1737 1.403 . S
C1735 C1732 1.403 . S
C1735 C1736 1.524 . S
C1735 C1739 1.400 . S
C1736 H1721 0.960 . S
C1736 H1722 0.960 . S
C1736 H1723 0.960 . S
C1736 C1735 1.524 . S
C1737 C1734 1.403 . S
C1737 C1738 1.392 . S
C1737 C1741 1.495 . S
C1738 C1737 1.392 . S
C1738 C1739 1.385 . S
C1738 C1740 1.478 . S
C1739 H1733 0.930 . S
C1739 C1735 1.400 . S
C1739 C1738 1.385 . S
C1740 C1738 1.478 . S
C1740 C1742 1.381 . S
C1740 C1746 1.383 . S
C1741 C1737 1.495 . S
C1741 H1747 0.959 . S
C1741 H1748 0.961 . S
C1741 H1749 0.960 . S
C1742 C1740 1.381 . S
C1742 C1743 1.394 . S
C1742 H1750 0.930 . S
C1743 C1742 1.394 . S
C1743 C1744 1.383 . S
C1743 H1751 0.929 . S
C1744 C1743 1.383 . S
C1744 C1745 1.377 . S
C1745 H1729 0.930 . S
C1745 C1744 1.377 . S
C1745 C1746 1.379 . S
C1746 H1730 0.931 . S
C1746 C1740 1.383 . S
C1746 C1745 1.379 . S
H1747 C1741 0.959 . S
H1748 C1741 0.961 . S
H1749 C1741 0.960 . S
H1750 C1742 0.930 . S
H1751 C1743 0.929 . S
H1752 C1760 0.929 . S
H1753 C1762 0.930 . S
H1754 C1764 0.930 . S
H1755 C1767 0.929 . S
H1756 C1770 0.930 . S
H1757 C1772 0.960 . S
H1758 C1772 0.960 . S
H1759 C1772 0.960 . S
C1760 H1752 0.929 . S
C1760 C1761 1.377 . S
C1760 C1762 1.384 . S
C1761 C1760 1.377 . S
C1761 C1767 1.390 . S
C1762 H1753 0.930 . S
C1762 C1760 1.384 . S
C1762 C1763 1.372 . S
C1763 C1762 1.372 . S
C1763 C1764 1.400 . S
C1763 C1768 1.490 . S
C1764 H1754 0.930 . S
C1764 C1763 1.400 . S
C1764 C1767 1.386 . S
H1765 C1781 0.930 . S
H1766 C1782 0.931 . S
C1767 H1755 0.929 . S
C1767 C1761 1.390 . S
C1767 C1764 1.386 . S
C1768 C1763 1.490 . S
C1768 C1770 1.395 . S
C1768 C1771 1.403 . S
H1769 C1775 0.930 . S
C1770 H1756 0.930 . S
C1770 C1768 1.395 . S
C1770 C1773 1.403 . S
C1771 C1768 1.403 . S
C1771 C1772 1.524 . S
C1771 C1775 1.400 . S
C1772 H1757 0.960 . S
C1772 H1758 0.960 . S
C1772 H1759 0.960 . S
C1772 C1771 1.524 . S
C1773 C1770 1.403 . S
C1773 C1774 1.392 . S
C1773 C1777 1.495 . S
C1774 C1773 1.392 . S
C1774 C1775 1.385 . S
C1774 C1776 1.478 . S
C1775 H1769 0.930 . S
C1775 C1771 1.400 . S
C1775 C1774 1.385 . S
C1776 C1774 1.478 . S
C1776 C1778 1.381 . S
C1776 C1782 1.383 . S
C1777 C1773 1.495 . S
C1777 H1783 0.959 . S
C1777 H1784 0.961 . S
C1777 H1785 0.960 . S
C1778 C1776 1.381 . S
C1778 C1779 1.394 . S
C1778 H1786 0.930 . S
C1779 C1778 1.394 . S
C1779 C1780 1.383 . S
C1779 H1787 0.929 . S
C1780 C1779 1.383 . S
C1780 C1781 1.377 . S
C1781 H1765 0.930 . S
C1781 C1780 1.377 . S
C1781 C1782 1.379 . S
C1782 H1766 0.931 . S
C1782 C1776 1.383 . S
C1782 C1781 1.379 . S
H1783 C1777 0.959 . S
H1784 C1777 0.961 . S
H1785 C1777 0.960 . S
H1786 C1778 0.930 . S
H1787 C1779 0.929 . S
H1788 C1796 0.929 . S
H1789 C1798 0.930 . S
H1790 C1800 0.930 . S
H1791 C1803 0.929 . S
H1792 C1806 0.930 . S
H1793 C1808 0.960 . S
H1794 C1808 0.960 . S
H1795 C1808 0.960 . S
C1796 H1788 0.929 . S
C1796 C1797 1.377 . S
C1796 C1798 1.384 . S
C1797 C1796 1.377 . S
C1797 C1803 1.390 . S
C1798 H1789 0.930 . S
C1798 C1796 1.384 . S
C1798 C1799 1.372 . S
C1799 C1798 1.372 . S
C1799 C1800 1.400 . S
C1799 C1804 1.490 . S
C1800 H1790 0.930 . S
C1800 C1799 1.400 . S
C1800 C1803 1.386 . S
H1801 C1817 0.930 . S
H1802 C1818 0.931 . S
C1803 H1791 0.929 . S
C1803 C1797 1.390 . S
C1803 C1800 1.386 . S
C1804 C1799 1.490 . S
C1804 C1806 1.395 . S
C1804 C1807 1.403 . S
H1805 C1811 0.930 . S
C1806 H1792 0.930 . S
C1806 C1804 1.395 . S
C1806 C1809 1.403 . S
C1807 C1804 1.403 . S
C1807 C1808 1.524 . S
C1807 C1811 1.400 . S
C1808 H1793 0.960 . S
C1808 H1794 0.960 . S
C1808 H1795 0.960 . S
C1808 C1807 1.524 . S
C1809 C1806 1.403 . S
C1809 C1810 1.392 . S
C1809 C1813 1.495 . S
C1810 C1809 1.392 . S
C1810 C1811 1.385 . S
C1810 C1812 1.478 . S
C1811 H1805 0.930 . S
C1811 C1807 1.400 . S
C1811 C1810 1.385 . S
C1812 C1810 1.478 . S
C1812 C1814 1.381 . S
C1812 C1818 1.383 . S
C1813 C1809 1.495 . S
C1813 H1819 0.959 . S
C1813 H1820 0.961 . S
C1813 H1821 0.960 . S
C1814 C1812 1.381 . S
C1814 C1815 1.394 . S
C1814 H1822 0.930 . S
C1815 C1814 1.394 . S
C1815 C1816 1.383 . S
C1815 H1823 0.929 . S
C1816 C1815 1.383 . S
C1816 C1817 1.377 . S
C1817 H1801 0.930 . S
C1817 C1816 1.377 . S
C1817 C1818 1.379 . S
C1818 H1802 0.931 . S
C1818 C1812 1.383 . S
C1818 C1817 1.379 . S
H1819 C1813 0.959 . S
H1820 C1813 0.961 . S
H1821 C1813 0.960 . S
H1822 C1814 0.930 . S
H1823 C1815 0.929 . S
H1824 C1832 0.929 . S
H1825 C1834 0.930 . S
H1826 C1836 0.930 . S
H1827 C1839 0.929 . S
H1828 C1842 0.930 . S
H1829 C1844 0.960 . S
H1830 C1844 0.960 . S
H1831 C1844 0.960 . S
C1832 H1824 0.929 . S
C1832 C1833 1.377 . S
C1832 C1834 1.384 . S
C1833 C1832 1.377 . S
C1833 C1839 1.390 . S
C1834 H1825 0.930 . S
C1834 C1832 1.384 . S
C1834 C1835 1.372 . S
C1835 C1834 1.372 . S
C1835 C1836 1.400 . S
C1835 C1840 1.490 . S
C1836 H1826 0.930 . S
C1836 C1835 1.400 . S
C1836 C1839 1.386 . S
H1837 C1853 0.930 . S
H1838 C1854 0.931 . S
C1839 H1827 0.929 . S
C1839 C1833 1.390 . S
C1839 C1836 1.386 . S
C1840 C1835 1.490 . S
C1840 C1842 1.395 . S
C1840 C1843 1.403 . S
H1841 C1847 0.930 . S
C1842 H1828 0.930 . S
C1842 C1840 1.395 . S
C1842 C1845 1.403 . S
C1843 C1840 1.403 . S
C1843 C1844 1.524 . S
C1843 C1847 1.400 . S
C1844 H1829 0.960 . S
C1844 H1830 0.960 . S
C1844 H1831 0.960 . S
C1844 C1843 1.524 . S
C1845 C1842 1.403 . S
C1845 C1846 1.392 . S
C1845 C1849 1.495 . S
C1846 C1845 1.392 . S
C1846 C1847 1.385 . S
C1846 C1848 1.478 . S
C1847 H1841 0.930 . S
C1847 C1843 1.400 . S
C1847 C1846 1.385 . S
C1848 C1846 1.478 . S
C1848 C1850 1.381 . S
C1848 C1854 1.383 . S
C1849 C1845 1.495 . S
C1849 H1855 0.959 . S
C1849 H1856 0.961 . S
C1849 H1857 0.960 . S
C1850 C1848 1.381 . S
C1850 C1851 1.394 . S
C1850 H1858 0.930 . S
C1851 C1850 1.394 . S
C1851 C1852 1.383 . S
C1851 H1859 0.929 . S
C1852 C1851 1.383 . S
C1852 C1853 1.377 . S
C1853 H1837 0.930 . S
C1853 C1852 1.377 . S
C1853 C1854 1.379 . S
C1854 H1838 0.931 . S
C1854 C1848 1.383 . S
C1854 C1853 1.379 . S
H1855 C1849 0.959 . S
H1856 C1849 0.961 . S
H1857 C1849 0.960 . S
H1858 C1850 0.930 . S
H1859 C1851 0.929 . S
H1860 C1868 0.929 . S
H1861 C1870 0.930 . S
H1862 C1872 0.930 . S
H1863 C1875 0.929 . S
H1864 C1878 0.930 . S
H1865 C1880 0.960 . S
H1866 C1880 0.960 . S
H1867 C1880 0.960 . S
C1868 H1860 0.929 . S
C1868 C1869 1.377 . S
C1868 C1870 1.384 . S
C1869 C1868 1.377 . S
C1869 C1875 1.390 . S
C1870 H1861 0.930 . S
C1870 C1868 1.384 . S
C1870 C1871 1.372 . S
C1871 C1870 1.372 . S
C1871 C1872 1.400 . S
C1871 C1876 1.490 . S
C1872 H1862 0.930 . S
C1872 C1871 1.400 . S
C1872 C1875 1.386 . S
H1873 C1889 0.930 . S
H1874 C1890 0.931 . S
C1875 H1863 0.929 . S
C1875 C1869 1.390 . S
C1875 C1872 1.386 . S
C1876 C1871 1.490 . S
C1876 C1878 1.395 . S
C1876 C1879 1.403 . S
H1877 C1883 0.930 . S
C1878 H1864 0.930 . S
C1878 C1876 1.395 . S
C1878 C1881 1.403 . S
C1879 C1876 1.403 . S
C1879 C1880 1.524 . S
C1879 C1883 1.400 . S
C1880 H1865 0.960 . S
C1880 H1866 0.960 . S
C1880 H1867 0.960 . S
C1880 C1879 1.524 . S
C1881 C1878 1.403 . S
C1881 C1882 1.392 . S
C1881 C1885 1.495 . S
C1882 C1881 1.392 . S
C1882 C1883 1.385 . S
C1882 C1884 1.478 . S
C1883 H1877 0.930 . S
C1883 C1879 1.400 . S
C1883 C1882 1.385 . S
C1884 C1882 1.478 . S
C1884 C1886 1.381 . S
C1884 C1890 1.383 . S
C1885 C1881 1.495 . S
C1885 H1891 0.959 . S
C1885 H1892 0.961 . S
C1885 H1893 0.960 . S
C1886 C1884 1.381 . S
C1886 C1887 1.394 . S
C1886 H1894 0.930 . S
C1887 C1886 1.394 . S
C1887 C1888 1.383 . S
C1887 H1895 0.929 . S
C1888 C1887 1.383 . S
C1888 C1889 1.377 . S
C1889 H1873 0.930 . S
C1889 C1888 1.377 . S
C1889 C1890 1.379 . S
C1890 H1874 0.931 . S
C1890 C1884 1.383 . S
C1890 C1889 1.379 . S
H1891 C1885 0.959 . S
H1892 C1885 0.961 . S
H1893 C1885 0.960 . S
H1894 C1886 0.930 . S
H1895 C1887 0.929 . S
H1896 C1904 0.929 . S
H1897 C1906 0.930 . S
H1898 C1908 0.930 . S
H1899 C1911 0.929 . S
H1900 C1914 0.930 . S
H1901 C1916 0.960 . S
H1902 C1916 0.960 . S
H1903 C1916 0.960 . S
C1904 H1896 0.929 . S
C1904 C1905 1.377 . S
C1904 C1906 1.384 . S
C1905 C1904 1.377 . S
C1905 C1911 1.390 . S
C1906 H1897 0.930 . S
C1906 C1904 1.384 . S
C1906 C1907 1.372 . S
C1907 C1906 1.372 . S
C1907 C1908 1.400 . S
C1907 C1912 1.490 . S
C1908 H1898 0.930 . S
C1908 C1907 1.400 . S
C1908 C1911 1.386 . S
H1909 C1925 0.930 . S
H1910 C1926 0.931 . S
C1911 H1899 0.929 . S
C1911 C1905 1.390 . S
C1911 C1908 1.386 . S
C1912 C1907 1.490 . S
C1912 C1914 1.395 . S
C1912 C1915 1.403 . S
H1913 C1919 0.930 . S
C1914 H1900 0.930 . S
C1914 C1912 1.395 . S
C1914 C1917 1.403 . S
C1915 C1912 1.403 . S
C1915 C1916 1.524 . S
C1915 C1919 1.400 . S
C1916 H1901 0.960 . S
C1916 H1902 0.960 . S
C1916 H1903 0.960 . S
C1916 C1915 1.524 . S
C1917 C1914 1.403 . S
C1917 C1918 1.392 . S
C1917 C1921 1.495 . S
C1918 C1917 1.392 . S
C1918 C1919 1.385 . S
C1918 C1920 1.478 . S
C1919 H1913 0.930 . S
C1919 C1915 1.400 . S
C1919 C1918 1.385 . S
C1920 C1918 1.478 . S
C1920 C1922 1.381 . S
C1920 C1926 1.383 . S
C1921 C1917 1.495 . S
C1921 H1927 0.959 . S
C1921 H1928 0.961 . S
C1921 H1929 0.960 . S
C1922 C1920 1.381 . S
C1922 C1923 1.394 . S
C1922 H1930 0.930 . S
C1923 C1922 1.394 . S
C1923 C1924 1.383 . S
C1923 H1931 0.929 . S
C1924 C1923 1.383 . S
C1924 C1925 1.377 . S
C1925 H1909 0.930 . S
C1925 C1924 1.377 . S
C1925 C1926 1.379 . S
C1926 H1910 0.931 . S
C1926 C1920 1.383 . S
C1926 C1925 1.379 . S
H1927 C1921 0.959 . S
H1928 C1921 0.961 . S
H1929 C1921 0.960 . S
H1930 C1922 0.930 . S
H1931 C1923 0.929 . S
H1932 C1940 0.929 . S
H1933 C1942 0.930 . S
H1934 C1944 0.930 . S
H1935 C1947 0.929 . S
H1936 C1950 0.930 . S
H1937 C1952 0.960 . S
H1938 C1952 0.960 . S
H1939 C1952 0.960 . S
C1940 H1932 0.929 . S
C1940 C1941 1.377 . S
C1940 C1942 1.384 . S
C1941 C1940 1.377 . S
C1941 C1947 1.390 . S
C1942 H1933 0.930 . S
C1942 C1940 1.384 . S
C1942 C1943 1.372 . S
C1943 C1942 1.372 . S
C1943 C1944 1.400 . S
C1943 C1948 1.490 . S
C1944 H1934 0.930 . S
C1944 C1943 1.400 . S
C1944 C1947 1.386 . S
H1945 C1961 0.930 . S
H1946 C1962 0.931 . S
C1947 H1935 0.929 . S
C1947 C1941 1.390 . S
C1947 C1944 1.386 . S
C1948 C1943 1.490 . S
C1948 C1950 1.395 . S
C1948 C1951 1.403 . S
H1949 C1955 0.930 . S
C1950 H1936 0.930 . S
C1950 C1948 1.395 . S
C1950 C1953 1.403 . S
C1951 C1948 1.403 . S
C1951 C1952 1.524 . S
C1951 C1955 1.400 . S
C1952 H1937 0.960 . S
C1952 H1938 0.960 . S
C1952 H1939 0.960 . S
C1952 C1951 1.524 . S
C1953 C1950 1.403 . S
C1953 C1954 1.392 . S
C1953 C1957 1.495 . S
C1954 C1953 1.392 . S
C1954 C1955 1.385 . S
C1954 C1956 1.478 . S
C1955 H1949 0.930 . S
C1955 C1951 1.400 . S
C1955 C1954 1.385 . S
C1956 C1954 1.478 . S
C1956 C1958 1.381 . S
C1956 C1962 1.383 . S
C1957 C1953 1.495 . S
C1957 H1963 0.959 . S
C1957 H1964 0.961 . S
C1957 H1965 0.960 . S
C1958 C1956 1.381 . S
C1958 C1959 1.394 . S
C1958 H1966 0.930 . S
C1959 C1958 1.394 . S
C1959 C1960 1.383 . S
C1959 H1967 0.929 . S
C1960 C1959 1.383 . S
C1960 C1961 1.377 . S
C1961 H1945 0.930 . S
C1961 C1960 1.377 . S
C1961 C1962 1.379 . S
C1962 H1946 0.931 . S
C1962 C1956 1.383 . S
C1962 C1961 1.379 . S
H1963 C1957 0.959 . S
H1964 C1957 0.961 . S
H1965 C1957 0.960 . S
H1966 C1958 0.930 . S
H1967 C1959 0.929 . S
H1968 C1976 0.929 . S
H1969 C1978 0.930 . S
H1970 C1980 0.930 . S
H1971 C1983 0.929 . S
H1972 C1986 0.930 . S
H1973 C1988 0.960 . S
H1974 C1988 0.960 . S
H1975 C1988 0.960 . S
C1976 H1968 0.929 . S
C1976 C1977 1.377 . S
C1976 C1978 1.384 . S
C1977 C1976 1.377 . S
C1977 C1983 1.390 . S
C1978 H1969 0.930 . S
C1978 C1976 1.384 . S
C1978 C1979 1.372 . S
C1979 C1978 1.372 . S
C1979 C1980 1.400 . S
C1979 C1984 1.490 . S
C1980 H1970 0.930 . S
C1980 C1979 1.400 . S
C1980 C1983 1.386 . S
H1981 C1997 0.930 . S
H1982 C1998 0.931 . S
C1983 H1971 0.929 . S
C1983 C1977 1.390 . S
C1983 C1980 1.386 . S
C1984 C1979 1.490 . S
C1984 C1986 1.395 . S
C1984 C1987 1.403 . S
H1985 C1991 0.930 . S
C1986 H1972 0.930 . S
C1986 C1984 1.395 . S
C1986 C1989 1.403 . S
C1987 C1984 1.403 . S
C1987 C1988 1.524 . S
C1987 C1991 1.400 . S
C1988 H1973 0.960 . S
C1988 H1974 0.960 . S
C1988 H1975 0.960 . S
C1988 C1987 1.524 . S
C1989 C1986 1.403 . S
C1989 C1990 1.392 . S
C1989 C1993 1.495 . S
C1990 C1989 1.392 . S
C1990 C1991 1.385 . S
C1990 C1992 1.478 . S
C1991 H1985 0.930 . S
C1991 C1987 1.400 . S
C1991 C1990 1.385 . S
C1992 C1990 1.478 . S
C1992 C1994 1.381 . S
C1992 C1998 1.383 . S
C1993 C1989 1.495 . S
C1993 H1999 0.959 . S
C1993 H2000 0.961 . S
C1993 H2001 0.960 . S
C1994 C1992 1.381 . S
C1994 C1995 1.394 . S
C1994 H2002 0.930 . S
C1995 C1994 1.394 . S
C1995 C1996 1.383 . S
C1995 H2003 0.929 . S
C1996 C1995 1.383 . S
C1996 C1997 1.377 . S
C1997 H1981 0.930 . S
C1997 C1996 1.377 . S
C1997 C1998 1.379 . S
C1998 H1982 0.931 . S
C1998 C1992 1.383 . S
C1998 C1997 1.379 . S
H1999 C1993 0.959 . S
H2000 C1993 0.961 . S
H2001 C1993 0.960 . S
H2002 C1994 0.930 . S
H2003 C1995 0.929 . S
H2004 C2012 0.929 . S
H2005 C2014 0.930 . S
H2006 C2016 0.930 . S
H2007 C2019 0.929 . S
H2008 C2022 0.930 . S
H2009 C2024 0.960 . S
H2010 C2024 0.960 . S
H2011 C2024 0.960 . S
C2012 H2004 0.929 . S
C2012 C2013 1.377 . S
C2012 C2014 1.384 . S
C2013 C2012 1.377 . S
C2013 C2019 1.390 . S
C2014 H2005 0.930 . S
C2014 C2012 1.384 . S
C2014 C2015 1.372 . S
C2015 C2014 1.372 . S
C2015 C2016 1.400 . S
C2015 C2020 1.490 . S
C2016 H2006 0.930 . S
C2016 C2015 1.400 . S
C2016 C2019 1.386 . S
H2017 C2033 0.930 . S
H2018 C2034 0.931 . S
C2019 H2007 0.929 . S
C2019 C2013 1.390 . S
C2019 C2016 1.386 . S
C2020 C2015 1.490 . S
C2020 C2022 1.395 . S
C2020 C2023 1.403 . S
H2021 C2027 0.930 . S
C2022 H2008 0.930 . S
C2022 C2020 1.395 . S
C2022 C2025 1.403 . S
C2023 C2020 1.403 . S
C2023 C2024 1.524 . S
C2023 C2027 1.400 . S
C2024 H2009 0.960 . S
C2024 H2010 0.960 . S
C2024 H2011 0.960 . S
C2024 C2023 1.524 . S
C2025 C2022 1.403 . S
C2025 C2026 1.392 . S
C2025 C2029 1.495 . S
C2026 C2025 1.392 . S
C2026 C2027 1.385 . S
C2026 C2028 1.478 . S
C2027 H2021 0.930 . S
C2027 C2023 1.400 . S
C2027 C2026 1.385 . S
C2028 C2026 1.478 . S
C2028 C2030 1.381 . S
C2028 C2034 1.383 . S
C2029 C2025 1.495 . S
C2029 H2035 0.959 . S
C2029 H2036 0.961 . S
C2029 H2037 0.960 . S
C2030 C2028 1.381 . S
C2030 C2031 1.394 . S
C2030 H2038 0.930 . S
C2031 C2030 1.394 . S
C2031 C2032 1.383 . S
C2031 H2039 0.929 . S
C2032 C2031 1.383 . S
C2032 C2033 1.377 . S
C2033 H2017 0.930 . S
C2033 C2032 1.377 . S
C2033 C2034 1.379 . S
C2034 H2018 0.931 . S
C2034 C2028 1.383 . S
C2034 C2033 1.379 . S
H2035 C2029 0.959 . S
H2036 C2029 0.961 . S
H2037 C2029 0.960 . S
H2038 C2030 0.930 . S
H2039 C2031 0.929 . S
H2040 C2048 0.929 . S
H2041 C2050 0.930 . S
H2042 C2052 0.930 . S
H2043 C2055 0.929 . S
H2044 C2058 0.930 . S
H2045 C2060 0.960 . S
H2046 C2060 0.960 . S
H2047 C2060 0.960 . S
C2048 H2040 0.929 . S
C2048 C2049 1.377 . S
C2048 C2050 1.384 . S
C2049 C2048 1.377 . S
C2049 C2055 1.390 . S
C2050 H2041 0.930 . S
C2050 C2048 1.384 . S
C2050 C2051 1.372 . S
C2051 C2050 1.372 . S
C2051 C2052 1.400 . S
C2051 C2056 1.490 . S
C2052 H2042 0.930 . S
C2052 C2051 1.400 . S
C2052 C2055 1.386 . S
H2053 C2069 0.930 . S
H2054 C2070 0.931 . S
C2055 H2043 0.929 . S
C2055 C2049 1.390 . S
C2055 C2052 1.386 . S
C2056 C2051 1.490 . S
C2056 C2058 1.395 . S
C2056 C2059 1.403 . S
H2057 C2063 0.930 . S
C2058 H2044 0.930 . S
C2058 C2056 1.395 . S
C2058 C2061 1.403 . S
C2059 C2056 1.403 . S
C2059 C2060 1.524 . S
C2059 C2063 1.400 . S
C2060 H2045 0.960 . S
C2060 H2046 0.960 . S
C2060 H2047 0.960 . S
C2060 C2059 1.524 . S
C2061 C2058 1.403 . S
C2061 C2062 1.392 . S
C2061 C2065 1.495 . S
C2062 C2061 1.392 . S
C2062 C2063 1.385 . S
C2062 C2064 1.478 . S
C2063 H2057 0.930 . S
C2063 C2059 1.400 . S
C2063 C2062 1.385 . S
C2064 C2062 1.478 . S
C2064 C2066 1.381 . S
C2064 C2070 1.383 . S
C2065 C2061 1.495 . S
C2065 H2071 0.959 . S
C2065 H2072 0.961 . S
C2065 H2073 0.960 . S
C2066 C2064 1.381 . S
C2066 C2067 1.394 . S
C2066 H2074 0.930 . S
C2067 C2066 1.394 . S
C2067 C2068 1.383 . S
C2067 H2075 0.929 . S
C2068 C2067 1.383 . S
C2068 C2069 1.377 . S
C2069 H2053 0.930 . S
C2069 C2068 1.377 . S
C2069 C2070 1.379 . S
C2070 H2054 0.931 . S
C2070 C2064 1.383 . S
C2070 C2069 1.379 . S
H2071 C2065 0.959 . S
H2072 C2065 0.961 . S
H2073 C2065 0.960 . S
H2074 C2066 0.930 . S
H2075 C2067 0.929 . S
H2076 C2084 0.929 . S
H2077 C2086 0.930 . S
H2078 C2088 0.930 . S
H2079 C2091 0.929 . S
H2080 C2094 0.930 . S
H2081 C2096 0.960 . S
H2082 C2096 0.960 . S
H2083 C2096 0.960 . S
C2084 H2076 0.929 . S
C2084 C2085 1.377 . S
C2084 C2086 1.384 . S
C2085 C2084 1.377 . S
C2085 C2091 1.390 . S
C2086 H2077 0.930 . S
C2086 C2084 1.384 . S
C2086 C2087 1.372 . S
C2087 C2086 1.372 . S
C2087 C2088 1.400 . S
C2087 C2092 1.490 . S
C2088 H2078 0.930 . S
C2088 C2087 1.400 . S
C2088 C2091 1.386 . S
H2089 C2105 0.930 . S
H2090 C2106 0.931 . S
C2091 H2079 0.929 . S
C2091 C2085 1.390 . S
C2091 C2088 1.386 . S
C2092 C2087 1.490 . S
C2092 C2094 1.395 . S
C2092 C2095 1.403 . S
H2093 C2099 0.930 . S
C2094 H2080 0.930 . S
C2094 C2092 1.395 . S
C2094 C2097 1.403 . S
C2095 C2092 1.403 . S
C2095 C2096 1.524 . S
C2095 C2099 1.400 . S
C2096 H2081 0.960 . S
C2096 H2082 0.960 . S
C2096 H2083 0.960 . S
C2096 C2095 1.524 . S
C2097 C2094 1.403 . S
C2097 C2098 1.392 . S
C2097 C2101 1.495 . S
C2098 C2097 1.392 . S
C2098 C2099 1.385 . S
C2098 C2100 1.478 . S
C2099 H2093 0.930 . S
C2099 C2095 1.400 . S
C2099 C2098 1.385 . S
C2100 C2098 1.478 . S
C2100 C2102 1.381 . S
C2100 C2106 1.383 . S
C2101 C2097 1.495 . S
C2101 H2107 0.959 . S
C2101 H2108 0.961 . S
C2101 H2109 0.960 . S
C2102 C2100 1.381 . S
C2102 C2103 1.394 . S
C2102 H2110 0.930 . S
C2103 C2102 1.394 . S
C2103 C2104 1.383 . S
C2103 H2111 0.929 . S
C2104 C2103 1.383 . S
C2104 C2105 1.377 . S
C2105 H2089 0.930 . S
C2105 C2104 1.377 . S
C2105 C2106 1.379 . S
C2106 H2090 0.931 . S
C2106 C2100 1.383 . S
C2106 C2105 1.379 . S
H2107 C2101 0.959 . S
H2108 C2101 0.961 . S
H2109 C2101 0.960 . S
H2110 C2102 0.930 . S
H2111 C2103 0.929 . S
H2112 C2120 0.929 . S
H2113 C2122 0.930 . S
H2114 C2124 0.930 . S
H2115 C2127 0.929 . S
H2116 C2130 0.930 . S
H2117 C2132 0.960 . S
H2118 C2132 0.960 . S
H2119 C2132 0.960 . S
C2120 H2112 0.929 . S
C2120 C2121 1.377 . S
C2120 C2122 1.384 . S
C2121 C2120 1.377 . S
C2121 C2127 1.390 . S
C2122 H2113 0.930 . S
C2122 C2120 1.384 . S
C2122 C2123 1.372 . S
C2123 C2122 1.372 . S
C2123 C2124 1.400 . S
C2123 C2128 1.490 . S
C2124 H2114 0.930 . S
C2124 C2123 1.400 . S
C2124 C2127 1.386 . S
H2125 C2141 0.930 . S
H2126 C2142 0.931 . S
C2127 H2115 0.929 . S
C2127 C2121 1.390 . S
C2127 C2124 1.386 . S
C2128 C2123 1.490 . S
C2128 C2130 1.395 . S
C2128 C2131 1.403 . S
H2129 C2135 0.930 . S
C2130 H2116 0.930 . S
C2130 C2128 1.395 . S
C2130 C2133 1.403 . S
C2131 C2128 1.403 . S
C2131 C2132 1.524 . S
C2131 C2135 1.400 . S
C2132 H2117 0.960 . S
C2132 H2118 0.960 . S
C2132 H2119 0.960 . S
C2132 C2131 1.524 . S
C2133 C2130 1.403 . S
C2133 C2134 1.392 . S
C2133 C2137 1.495 . S
C2134 C2133 1.392 . S
C2134 C2135 1.385 . S
C2134 C2136 1.478 . S
C2135 H2129 0.930 . S
C2135 C2131 1.400 . S
C2135 C2134 1.385 . S
C2136 C2134 1.478 . S
C2136 C2138 1.381 . S
C2136 C2142 1.383 . S
C2137 C2133 1.495 . S
C2137 H2143 0.959 . S
C2137 H2144 0.961 . S
C2137 H2145 0.960 . S
C2138 C2136 1.381 . S
C2138 C2139 1.394 . S
C2138 H2146 0.930 . S
C2139 C2138 1.394 . S
C2139 C2140 1.383 . S
C2139 H2147 0.929 . S
C2140 C2139 1.383 . S
C2140 C2141 1.377 . S
C2141 H2125 0.930 . S
C2141 C2140 1.377 . S
C2141 C2142 1.379 . S
C2142 H2126 0.931 . S
C2142 C2136 1.383 . S
C2142 C2141 1.379 . S
H2143 C2137 0.959 . S
H2144 C2137 0.961 . S
H2145 C2137 0.960 . S
H2146 C2138 0.930 . S
H2147 C2139 0.929 . S
H2148 C2156 0.929 . S
H2149 C2158 0.930 . S
H2150 C2160 0.930 . S
H2151 C2163 0.929 . S
H2152 C2166 0.930 . S
H2153 C2168 0.960 . S
H2154 C2168 0.960 . S
H2155 C2168 0.960 . S
C2156 H2148 0.929 . S
C2156 C2157 1.377 . S
C2156 C2158 1.384 . S
C2157 C2156 1.377 . S
C2157 C2163 1.390 . S
C2158 H2149 0.930 . S
C2158 C2156 1.384 . S
C2158 C2159 1.372 . S
C2159 C2158 1.372 . S
C2159 C2160 1.400 . S
C2159 C2164 1.490 . S
C2160 H2150 0.930 . S
C2160 C2159 1.400 . S
C2160 C2163 1.386 . S
H2161 C2177 0.930 . S
H2162 C2178 0.931 . S
C2163 H2151 0.929 . S
C2163 C2157 1.390 . S
C2163 C2160 1.386 . S
C2164 C2159 1.490 . S
C2164 C2166 1.395 . S
C2164 C2167 1.403 . S
H2165 C2171 0.930 . S
C2166 H2152 0.930 . S
C2166 C2164 1.395 . S
C2166 C2169 1.403 . S
C2167 C2164 1.403 . S
C2167 C2168 1.524 . S
C2167 C2171 1.400 . S
C2168 H2153 0.960 . S
C2168 H2154 0.960 . S
C2168 H2155 0.960 . S
C2168 C2167 1.524 . S
C2169 C2166 1.403 . S
C2169 C2170 1.392 . S
C2169 C2173 1.495 . S
C2170 C2169 1.392 . S
C2170 C2171 1.385 . S
C2170 C2172 1.478 . S
C2171 H2165 0.930 . S
C2171 C2167 1.400 . S
C2171 C2170 1.385 . S
C2172 C2170 1.478 . S
C2172 C2174 1.381 . S
C2172 C2178 1.383 . S
C2173 C2169 1.495 . S
C2173 H2179 0.959 . S
C2173 H2180 0.961 . S
C2173 H2181 0.960 . S
C2174 C2172 1.381 . S
C2174 C2175 1.394 . S
C2174 H2182 0.930 . S
C2175 C2174 1.394 . S
C2175 C2176 1.383 . S
C2175 H2183 0.929 . S
C2176 C2175 1.383 . S
C2176 C2177 1.377 . S
C2177 H2161 0.930 . S
C2177 C2176 1.377 . S
C2177 C2178 1.379 . S
C2178 H2162 0.931 . S
C2178 C2172 1.383 . S
C2178 C2177 1.379 . S
H2179 C2173 0.959 . S
H2180 C2173 0.961 . S
H2181 C2173 0.960 . S
H2182 C2174 0.930 . S
H2183 C2175 0.929 . S
H2184 C2192 0.929 . S
H2185 C2194 0.930 . S
H2186 C2196 0.930 . S
H2187 C2199 0.929 . S
H2188 C2202 0.930 . S
H2189 C2204 0.960 . S
H2190 C2204 0.960 . S
H2191 C2204 0.960 . S
C2192 H2184 0.929 . S
C2192 C2193 1.377 . S
C2192 C2194 1.384 . S
C2193 C2192 1.377 . S
C2193 C2199 1.390 . S
C2194 H2185 0.930 . S
C2194 C2192 1.384 . S
C2194 C2195 1.372 . S
C2195 C2194 1.372 . S
C2195 C2196 1.400 . S
C2195 C2200 1.490 . S
C2196 H2186 0.930 . S
C2196 C2195 1.400 . S
C2196 C2199 1.386 . S
H2197 C2213 0.930 . S
H2198 C2214 0.931 . S
C2199 H2187 0.929 . S
C2199 C2193 1.390 . S
C2199 C2196 1.386 . S
C2200 C2195 1.490 . S
C2200 C2202 1.395 . S
C2200 C2203 1.403 . S
H2201 C2207 0.930 . S
C2202 H2188 0.930 . S
C2202 C2200 1.395 . S
C2202 C2205 1.403 . S
C2203 C2200 1.403 . S
C2203 C2204 1.524 . S
C2203 C2207 1.400 . S
C2204 H2189 0.960 . S
C2204 H2190 0.960 . S
C2204 H2191 0.960 . S
C2204 C2203 1.524 . S
C2205 C2202 1.403 . S
C2205 C2206 1.392 . S
C2205 C2209 1.495 . S
C2206 C2205 1.392 . S
C2206 C2207 1.385 . S
C2206 C2208 1.478 . S
C2207 H2201 0.930 . S
C2207 C2203 1.400 . S
C2207 C2206 1.385 . S
C2208 C2206 1.478 . S
C2208 C2210 1.381 . S
C2208 C2214 1.383 . S
C2209 C2205 1.495 . S
C2209 H2215 0.959 . S
C2209 H2216 0.961 . S
C2209 H2217 0.960 . S
C2210 C2208 1.381 . S
C2210 C2211 1.394 . S
C2210 H2218 0.930 . S
C2211 C2210 1.394 . S
C2211 C2212 1.383 . S
C2211 H2219 0.929 . S
C2212 C2211 1.383 . S
C2212 C2213 1.377 . S
C2213 H2197 0.930 . S
C2213 C2212 1.377 . S
C2213 C2214 1.379 . S
C2214 H2198 0.931 . S
C2214 C2208 1.383 . S
C2214 C2213 1.379 . S
H2215 C2209 0.959 . S
H2216 C2209 0.961 . S
H2217 C2209 0.960 . S
H2218 C2210 0.930 . S
H2219 C2211 0.929 . S
H2220 C2228 0.929 . S
H2221 C2230 0.930 . S
H2222 C2232 0.930 . S
H2223 C2235 0.929 . S
H2224 C2238 0.930 . S
H2225 C2240 0.960 . S
H2226 C2240 0.960 . S
H2227 C2240 0.960 . S
C2228 H2220 0.929 . S
C2228 C2229 1.377 . S
C2228 C2230 1.384 . S
C2229 C2228 1.377 . S
C2229 C2235 1.390 . S
C2230 H2221 0.930 . S
C2230 C2228 1.384 . S
C2230 C2231 1.372 . S
C2231 C2230 1.372 . S
C2231 C2232 1.400 . S
C2231 C2236 1.490 . S
C2232 H2222 0.930 . S
C2232 C2231 1.400 . S
C2232 C2235 1.386 . S
H2233 C2249 0.930 . S
H2234 C2250 0.931 . S
C2235 H2223 0.929 . S
C2235 C2229 1.390 . S
C2235 C2232 1.386 . S
C2236 C2231 1.490 . S
C2236 C2238 1.395 . S
C2236 C2239 1.403 . S
H2237 C2243 0.930 . S
C2238 H2224 0.930 . S
C2238 C2236 1.395 . S
C2238 C2241 1.403 . S
C2239 C2236 1.403 . S
C2239 C2240 1.524 . S
C2239 C2243 1.400 . S
C2240 H2225 0.960 . S
C2240 H2226 0.960 . S
C2240 H2227 0.960 . S
C2240 C2239 1.524 . S
C2241 C2238 1.403 . S
C2241 C2242 1.392 . S
C2241 C2245 1.495 . S
C2242 C2241 1.392 . S
C2242 C2243 1.385 . S
C2242 C2244 1.478 . S
C2243 H2237 0.930 . S
C2243 C2239 1.400 . S
C2243 C2242 1.385 . S
C2244 C2242 1.478 . S
C2244 C2246 1.381 . S
C2244 C2250 1.383 . S
C2245 C2241 1.495 . S
C2245 H2251 0.959 . S
C2245 H2252 0.961 . S
C2245 H2253 0.960 . S
C2246 C2244 1.381 . S
C2246 C2247 1.394 . S
C2246 H2254 0.930 . S
C2247 C2246 1.394 . S
C2247 C2248 1.383 . S
C2247 H2255 0.929 . S
C2248 C2247 1.383 . S
C2248 C2249 1.377 . S
C2249 H2233 0.930 . S
C2249 C2248 1.377 . S
C2249 C2250 1.379 . S
C2250 H2234 0.931 . S
C2250 C2244 1.383 . S
C2250 C2249 1.379 . S
H2251 C2245 0.959 . S
H2252 C2245 0.961 . S
H2253 C2245 0.960 . S
H2254 C2246 0.930 . S
H2255 C2247 0.929 . S
H2256 C2264 0.929 . S
H2257 C2266 0.930 . S
H2258 C2268 0.930 . S
H2259 C2271 0.929 . S
H2260 C2274 0.930 . S
H2261 C2276 0.960 . S
H2262 C2276 0.960 . S
H2263 C2276 0.960 . S
C2264 H2256 0.929 . S
C2264 C2265 1.377 . S
C2264 C2266 1.384 . S
C2265 C2264 1.377 . S
C2265 C2271 1.390 . S
C2266 H2257 0.930 . S
C2266 C2264 1.384 . S
C2266 C2267 1.372 . S
C2267 C2266 1.372 . S
C2267 C2268 1.400 . S
C2267 C2272 1.490 . S
C2268 H2258 0.930 . S
C2268 C2267 1.400 . S
C2268 C2271 1.386 . S
H2269 C2285 0.930 . S
H2270 C2286 0.931 . S
C2271 H2259 0.929 . S
C2271 C2265 1.390 . S
C2271 C2268 1.386 . S
C2272 C2267 1.490 . S
C2272 C2274 1.395 . S
C2272 C2275 1.403 . S
H2273 C2279 0.930 . S
C2274 H2260 0.930 . S
C2274 C2272 1.395 . S
C2274 C2277 1.403 . S
C2275 C2272 1.403 . S
C2275 C2276 1.524 . S
C2275 C2279 1.400 . S
C2276 H2261 0.960 . S
C2276 H2262 0.960 . S
C2276 H2263 0.960 . S
C2276 C2275 1.524 . S
C2277 C2274 1.403 . S
C2277 C2278 1.392 . S
C2277 C2281 1.495 . S
C2278 C2277 1.392 . S
C2278 C2279 1.385 . S
C2278 C2280 1.478 . S
C2279 H2273 0.930 . S
C2279 C2275 1.400 . S
C2279 C2278 1.385 . S
C2280 C2278 1.478 . S
C2280 C2282 1.381 . S
C2280 C2286 1.383 . S
C2281 C2277 1.495 . S
C2281 H2287 0.959 . S
C2281 H2288 0.961 . S
C2281 H2289 0.960 . S
C2282 C2280 1.381 . S
C2282 C2283 1.394 . S
C2282 H2290 0.930 . S
C2283 C2282 1.394 . S
C2283 C2284 1.383 . S
C2283 H2291 0.929 . S
C2284 C2283 1.383 . S
C2284 C2285 1.377 . S
C2285 H2269 0.930 . S
C2285 C2284 1.377 . S
C2285 C2286 1.379 . S
C2286 H2270 0.931 . S
C2286 C2280 1.383 . S
C2286 C2285 1.379 . S
H2287 C2281 0.959 . S
H2288 C2281 0.961 . S
H2289 C2281 0.960 . S
H2290 C2282 0.930 . S
H2291 C2283 0.929 . S
H2292 C2300 0.929 . S
H2293 C2302 0.930 . S
H2294 C2304 0.930 . S
H2295 C2307 0.929 . S
H2296 C2310 0.930 . S
H2297 C2312 0.960 . S
H2298 C2312 0.960 . S
H2299 C2312 0.960 . S
C2300 H2292 0.929 . S
C2300 C2301 1.377 . S
C2300 C2302 1.384 . S
C2301 C2300 1.377 . S
C2301 C2307 1.390 . S
C2302 H2293 0.930 . S
C2302 C2300 1.384 . S
C2302 C2303 1.372 . S
C2303 C2302 1.372 . S
C2303 C2304 1.400 . S
C2303 C2308 1.490 . S
C2304 H2294 0.930 . S
C2304 C2303 1.400 . S
C2304 C2307 1.386 . S
H2305 C2321 0.930 . S
H2306 C2322 0.931 . S
C2307 H2295 0.929 . S
C2307 C2301 1.390 . S
C2307 C2304 1.386 . S
C2308 C2303 1.490 . S
C2308 C2310 1.395 . S
C2308 C2311 1.403 . S
H2309 C2315 0.930 . S
C2310 H2296 0.930 . S
C2310 C2308 1.395 . S
C2310 C2313 1.403 . S
C2311 C2308 1.403 . S
C2311 C2312 1.524 . S
C2311 C2315 1.400 . S
C2312 H2297 0.960 . S
C2312 H2298 0.960 . S
C2312 H2299 0.960 . S
C2312 C2311 1.524 . S
C2313 C2310 1.403 . S
C2313 C2314 1.392 . S
C2313 C2317 1.495 . S
C2314 C2313 1.392 . S
C2314 C2315 1.385 . S
C2314 C2316 1.478 . S
C2315 H2309 0.930 . S
C2315 C2311 1.400 . S
C2315 C2314 1.385 . S
C2316 C2314 1.478 . S
C2316 C2318 1.381 . S
C2316 C2322 1.383 . S
C2317 C2313 1.495 . S
C2317 H2323 0.959 . S
C2317 H2324 0.961 . S
C2317 H2325 0.960 . S
C2318 C2316 1.381 . S
C2318 C2319 1.394 . S
C2318 H2326 0.930 . S
C2319 C2318 1.394 . S
C2319 C2320 1.383 . S
C2319 H2327 0.929 . S
C2320 C2319 1.383 . S
C2320 C2321 1.377 . S
C2321 H2305 0.930 . S
C2321 C2320 1.377 . S
C2321 C2322 1.379 . S
C2322 H2306 0.931 . S
C2322 C2316 1.383 . S
C2322 C2321 1.379 . S
H2323 C2317 0.959 . S
H2324 C2317 0.961 . S
H2325 C2317 0.960 . S
H2326 C2318 0.930 . S
H2327 C2319 0.929 . S
H2328 C2336 0.929 . S
H2329 C2338 0.930 . S
H2330 C2340 0.930 . S
H2331 C2343 0.929 . S
H2332 C2346 0.930 . S
H2333 C2348 0.960 . S
H2334 C2348 0.960 . S
H2335 C2348 0.960 . S
C2336 H2328 0.929 . S
C2336 C2337 1.377 . S
C2336 C2338 1.384 . S
C2337 C2336 1.377 . S
C2337 C2343 1.390 . S
C2338 H2329 0.930 . S
C2338 C2336 1.384 . S
C2338 C2339 1.372 . S
C2339 C2338 1.372 . S
C2339 C2340 1.400 . S
C2339 C2344 1.490 . S
C2340 H2330 0.930 . S
C2340 C2339 1.400 . S
C2340 C2343 1.386 . S
H2341 C2357 0.930 . S
H2342 C2358 0.931 . S
C2343 H2331 0.929 . S
C2343 C2337 1.390 . S
C2343 C2340 1.386 . S
C2344 C2339 1.490 . S
C2344 C2346 1.395 . S
C2344 C2347 1.403 . S
H2345 C2351 0.930 . S
C2346 H2332 0.930 . S
C2346 C2344 1.395 . S
C2346 C2349 1.403 . S
C2347 C2344 1.403 . S
C2347 C2348 1.524 . S
C2347 C2351 1.400 . S
C2348 H2333 0.960 . S
C2348 H2334 0.960 . S
C2348 H2335 0.960 . S
C2348 C2347 1.524 . S
C2349 C2346 1.403 . S
C2349 C2350 1.392 . S
C2349 C2353 1.495 . S
C2350 C2349 1.392 . S
C2350 C2351 1.385 . S
C2350 C2352 1.478 . S
C2351 H2345 0.930 . S
C2351 C2347 1.400 . S
C2351 C2350 1.385 . S
C2352 C2350 1.478 . S
C2352 C2354 1.381 . S
C2352 C2358 1.383 . S
C2353 C2349 1.495 . S
C2353 H2359 0.959 . S
C2353 H2360 0.961 . S
C2353 H2361 0.960 . S
C2354 C2352 1.381 . S
C2354 C2355 1.394 . S
C2354 H2362 0.930 . S
C2355 C2354 1.394 . S
C2355 C2356 1.383 . S
C2355 H2363 0.929 . S
C2356 C2355 1.383 . S
C2356 C2357 1.377 . S
C2357 H2341 0.930 . S
C2357 C2356 1.377 . S
C2357 C2358 1.379 . S
C2358 H2342 0.931 . S
C2358 C2352 1.383 . S
C2358 C2357 1.379 . S
H2359 C2353 0.959 . S
H2360 C2353 0.961 . S
H2361 C2353 0.960 . S
H2362 C2354 0.930 . S
H2363 C2355 0.929 . S
H2364 C2372 0.929 . S
H2365 C2374 0.930 . S
H2366 C2376 0.930 . S
H2367 C2379 0.929 . S
H2368 C2382 0.930 . S
H2369 C2384 0.960 . S
H2370 C2384 0.960 . S
H2371 C2384 0.960 . S
C2372 H2364 0.929 . S
C2372 C2373 1.377 . S
C2372 C2374 1.384 . S
C2373 C2372 1.377 . S
C2373 C2379 1.390 . S
C2374 H2365 0.930 . S
C2374 C2372 1.384 . S
C2374 C2375 1.372 . S
C2375 C2374 1.372 . S
C2375 C2376 1.400 . S
C2375 C2380 1.490 . S
C2376 H2366 0.930 . S
C2376 C2375 1.400 . S
C2376 C2379 1.386 . S
H2377 C2393 0.930 . S
H2378 C2394 0.931 . S
C2379 H2367 0.929 . S
C2379 C2373 1.390 . S
C2379 C2376 1.386 . S
C2380 C2375 1.490 . S
C2380 C2382 1.395 . S
C2380 C2383 1.403 . S
H2381 C2387 0.930 . S
C2382 H2368 0.930 . S
C2382 C2380 1.395 . S
C2382 C2385 1.403 . S
C2383 C2380 1.403 . S
C2383 C2384 1.524 . S
C2383 C2387 1.400 . S
C2384 H2369 0.960 . S
C2384 H2370 0.960 . S
C2384 H2371 0.960 . S
C2384 C2383 1.524 . S
C2385 C2382 1.403 . S
C2385 C2386 1.392 . S
C2385 C2389 1.495 . S
C2386 C2385 1.392 . S
C2386 C2387 1.385 . S
C2386 C2388 1.478 . S
C2387 H2381 0.930 . S
C2387 C2383 1.400 . S
C2387 C2386 1.385 . S
C2388 C2386 1.478 . S
C2388 C2390 1.381 . S
C2388 C2394 1.383 . S
C2389 C2385 1.495 . S
C2389 H2395 0.959 . S
C2389 H2396 0.961 . S
C2389 H2397 0.960 . S
C2390 C2388 1.381 . S
C2390 C2391 1.394 . S
C2390 H2398 0.930 . S
C2391 C2390 1.394 . S
C2391 C2392 1.383 . S
C2391 H2399 0.929 . S
C2392 C2391 1.383 . S
C2392 C2393 1.377 . S
C2393 H2377 0.930 . S
C2393 C2392 1.377 . S
C2393 C2394 1.379 . S
C2394 H2378 0.931 . S
C2394 C2388 1.383 . S
C2394 C2393 1.379 . S
H2395 C2389 0.959 . S
H2396 C2389 0.961 . S
H2397 C2389 0.960 . S
H2398 C2390 0.930 . S
H2399 C2391 0.929 . S
H2400 C2408 0.929 . S
H2401 C2410 0.930 . S
H2402 C2412 0.930 . S
H2403 C2415 0.929 . S
H2404 C2418 0.930 . S
H2405 C2420 0.960 . S
H2406 C2420 0.960 . S
H2407 C2420 0.960 . S
C2408 H2400 0.929 . S
C2408 C2409 1.377 . S
C2408 C2410 1.384 . S
C2409 C2408 1.377 . S
C2409 C2415 1.390 . S
C2410 H2401 0.930 . S
C2410 C2408 1.384 . S
C2410 C2411 1.372 . S
C2411 C2410 1.372 . S
C2411 C2412 1.400 . S
C2411 C2416 1.490 . S
C2412 H2402 0.930 . S
C2412 C2411 1.400 . S
C2412 C2415 1.386 . S
H2413 C2429 0.930 . S
H2414 C2430 0.931 . S
C2415 H2403 0.929 . S
C2415 C2409 1.390 . S
C2415 C2412 1.386 . S
C2416 C2411 1.490 . S
C2416 C2418 1.395 . S
C2416 C2419 1.403 . S
H2417 C2423 0.930 . S
C2418 H2404 0.930 . S
C2418 C2416 1.395 . S
C2418 C2421 1.403 . S
C2419 C2416 1.403 . S
C2419 C2420 1.524 . S
C2419 C2423 1.400 . S
C2420 H2405 0.960 . S
C2420 H2406 0.960 . S
C2420 H2407 0.960 . S
C2420 C2419 1.524 . S
C2421 C2418 1.403 . S
C2421 C2422 1.392 . S
C2421 C2425 1.495 . S
C2422 C2421 1.392 . S
C2422 C2423 1.385 . S
C2422 C2424 1.478 . S
C2423 H2417 0.930 . S
C2423 C2419 1.400 . S
C2423 C2422 1.385 . S
C2424 C2422 1.478 . S
C2424 C2426 1.381 . S
C2424 C2430 1.383 . S
C2425 C2421 1.495 . S
C2425 H2431 0.959 . S
C2425 H2432 0.961 . S
C2425 H2433 0.960 . S
C2426 C2424 1.381 . S
C2426 C2427 1.394 . S
C2426 H2434 0.930 . S
C2427 C2426 1.394 . S
C2427 C2428 1.383 . S
C2427 H2435 0.929 . S
C2428 C2427 1.383 . S
C2428 C2429 1.377 . S
C2429 H2413 0.930 . S
C2429 C2428 1.377 . S
C2429 C2430 1.379 . S
C2430 H2414 0.931 . S
C2430 C2424 1.383 . S
C2430 C2429 1.379 . S
H2431 C2425 0.959 . S
H2432 C2425 0.961 . S
H2433 C2425 0.960 . S
H2434 C2426 0.930 . S
H2435 C2427 0.929 . S
H2436 C2444 0.929 . S
H2437 C2446 0.930 . S
H2438 C2448 0.930 . S
H2439 C2451 0.929 . S
H2440 C2454 0.930 . S
H2441 C2456 0.960 . S
H2442 C2456 0.960 . S
H2443 C2456 0.960 . S
C2444 H2436 0.929 . S
C2444 C2445 1.377 . S
C2444 C2446 1.384 . S
C2445 C2444 1.377 . S
C2445 C2451 1.390 . S
C2446 H2437 0.930 . S
C2446 C2444 1.384 . S
C2446 C2447 1.372 . S
C2447 C2446 1.372 . S
C2447 C2448 1.400 . S
C2447 C2452 1.490 . S
C2448 H2438 0.930 . S
C2448 C2447 1.400 . S
C2448 C2451 1.386 . S
H2449 C2465 0.930 . S
H2450 C2466 0.931 . S
C2451 H2439 0.929 . S
C2451 C2445 1.390 . S
C2451 C2448 1.386 . S
C2452 C2447 1.490 . S
C2452 C2454 1.395 . S
C2452 C2455 1.403 . S
H2453 C2459 0.930 . S
C2454 H2440 0.930 . S
C2454 C2452 1.395 . S
C2454 C2457 1.403 . S
C2455 C2452 1.403 . S
C2455 C2456 1.524 . S
C2455 C2459 1.400 . S
C2456 H2441 0.960 . S
C2456 H2442 0.960 . S
C2456 H2443 0.960 . S
C2456 C2455 1.524 . S
C2457 C2454 1.403 . S
C2457 C2458 1.392 . S
C2457 C2461 1.495 . S
C2458 C2457 1.392 . S
C2458 C2459 1.385 . S
C2458 C2460 1.478 . S
C2459 H2453 0.930 . S
C2459 C2455 1.400 . S
C2459 C2458 1.385 . S
C2460 C2458 1.478 . S
C2460 C2462 1.381 . S
C2460 C2466 1.383 . S
C2461 C2457 1.495 . S
C2461 H2467 0.959 . S
C2461 H2468 0.961 . S
C2461 H2469 0.960 . S
C2462 C2460 1.381 . S
C2462 C2463 1.394 . S
C2462 H2470 0.930 . S
C2463 C2462 1.394 . S
C2463 C2464 1.383 . S
C2463 H2471 0.929 . S
C2464 C2463 1.383 . S
C2464 C2465 1.377 . S
C2465 H2449 0.930 . S
C2465 C2464 1.377 . S
C2465 C2466 1.379 . S
C2466 H2450 0.931 . S
C2466 C2460 1.383 . S
C2466 C2465 1.379 . S
H2467 C2461 0.959 . S
H2468 C2461 0.961 . S
H2469 C2461 0.960 . S
H2470 C2462 0.930 . S
H2471 C2463 0.929 . S
H2472 C2480 0.929 . S
H2473 C2482 0.930 . S
H2474 C2484 0.930 . S
H2475 C2487 0.929 . S
H2476 C2490 0.930 . S
H2477 C2492 0.960 . S
H2478 C2492 0.960 . S
H2479 C2492 0.960 . S
C2480 H2472 0.929 . S
C2480 C2481 1.377 . S
C2480 C2482 1.384 . S
C2481 C2480 1.377 . S
C2481 C2487 1.390 . S
C2482 H2473 0.930 . S
C2482 C2480 1.384 . S
C2482 C2483 1.372 . S
C2483 C2482 1.372 . S
C2483 C2484 1.400 . S
C2483 C2488 1.490 . S
C2484 H2474 0.930 . S
C2484 C2483 1.400 . S
C2484 C2487 1.386 . S
H2485 C2501 0.930 . S
H2486 C2502 0.931 . S
C2487 H2475 0.929 . S
C2487 C2481 1.390 . S
C2487 C2484 1.386 . S
C2488 C2483 1.490 . S
C2488 C2490 1.395 . S
C2488 C2491 1.403 . S
H2489 C2495 0.930 . S
C2490 H2476 0.930 . S
C2490 C2488 1.395 . S
C2490 C2493 1.403 . S
C2491 C2488 1.403 . S
C2491 C2492 1.524 . S
C2491 C2495 1.400 . S
C2492 H2477 0.960 . S
C2492 H2478 0.960 . S
C2492 H2479 0.960 . S
C2492 C2491 1.524 . S
C2493 C2490 1.403 . S
C2493 C2494 1.392 . S
C2493 C2497 1.495 . S
C2494 C2493 1.392 . S
C2494 C2495 1.385 . S
C2494 C2496 1.478 . S
C2495 H2489 0.930 . S
C2495 C2491 1.400 . S
C2495 C2494 1.385 . S
C2496 C2494 1.478 . S
C2496 C2498 1.381 . S
C2496 C2502 1.383 . S
C2497 C2493 1.495 . S
C2497 H2503 0.959 . S
C2497 H2504 0.961 . S
C2497 H2505 0.960 . S
C2498 C2496 1.381 . S
C2498 C2499 1.394 . S
C2498 H2506 0.930 . S
C2499 C2498 1.394 . S
C2499 C2500 1.383 . S
C2499 H2507 0.929 . S
C2500 C2499 1.383 . S
C2500 C2501 1.377 . S
C2501 H2485 0.930 . S
C2501 C2500 1.377 . S
C2501 C2502 1.379 . S
C2502 H2486 0.931 . S
C2502 C2496 1.383 . S
C2502 C2501 1.379 . S
H2503 C2497 0.959 . S
H2504 C2497 0.961 . S
H2505 C2497 0.960 . S
H2506 C2498 0.930 . S
H2507 C2499 0.929 . S
H2508 C2516 0.929 . S
H2509 C2518 0.930 . S
H2510 C2520 0.930 . S
H2511 C2523 0.929 . S
H2512 C2526 0.930 . S
H2513 C2528 0.960 . S
H2514 C2528 0.960 . S
H2515 C2528 0.960 . S
C2516 H2508 0.929 . S
C2516 C2517 1.377 . S
C2516 C2518 1.384 . S
C2517 C2516 1.377 . S
C2517 C2523 1.390 . S
C2518 H2509 0.930 . S
C2518 C2516 1.384 . S
C2518 C2519 1.372 . S
C2519 C2518 1.372 . S
C2519 C2520 1.400 . S
C2519 C2524 1.490 . S
C2520 H2510 0.930 . S
C2520 C2519 1.400 . S
C2520 C2523 1.386 . S
H2521 C2537 0.930 . S
H2522 C2538 0.931 . S
C2523 H2511 0.929 . S
C2523 C2517 1.390 . S
C2523 C2520 1.386 . S
C2524 C2519 1.490 . S
C2524 C2526 1.395 . S
C2524 C2527 1.403 . S
H2525 C2531 0.930 . S
C2526 H2512 0.930 . S
C2526 C2524 1.395 . S
C2526 C2529 1.403 . S
C2527 C2524 1.403 . S
C2527 C2528 1.524 . S
C2527 C2531 1.400 . S
C2528 H2513 0.960 . S
C2528 H2514 0.960 . S
C2528 H2515 0.960 . S
C2528 C2527 1.524 . S
C2529 C2526 1.403 . S
C2529 C2530 1.392 . S
C2529 C2533 1.495 . S
C2530 C2529 1.392 . S
C2530 C2531 1.385 . S
C2530 C2532 1.478 . S
C2531 H2525 0.930 . S
C2531 C2527 1.400 . S
C2531 C2530 1.385 . S
C2532 C2530 1.478 . S
C2532 C2534 1.381 . S
C2532 C2538 1.383 . S
C2533 C2529 1.495 . S
C2533 H2539 0.959 . S
C2533 H2540 0.961 . S
C2533 H2541 0.960 . S
C2534 C2532 1.381 . S
C2534 C2535 1.394 . S
C2534 H2542 0.930 . S
C2535 C2534 1.394 . S
C2535 C2536 1.383 . S
C2535 H2543 0.929 . S
C2536 C2535 1.383 . S
C2536 C2537 1.377 . S
C2537 H2521 0.930 . S
C2537 C2536 1.377 . S
C2537 C2538 1.379 . S
C2538 H2522 0.931 . S
C2538 C2532 1.383 . S
C2538 C2537 1.379 . S
H2539 C2533 0.959 . S
H2540 C2533 0.961 . S
H2541 C2533 0.960 . S
H2542 C2534 0.930 . S
H2543 C2535 0.929 . S
H2544 C2552 0.929 . S
H2545 C2554 0.930 . S
H2546 C2556 0.930 . S
H2547 C2559 0.929 . S
H2548 C2562 0.930 . S
H2549 C2564 0.960 . S
H2550 C2564 0.960 . S
H2551 C2564 0.960 . S
C2552 H2544 0.929 . S
C2552 C2553 1.377 . S
C2552 C2554 1.384 . S
C2553 C2552 1.377 . S
C2553 C2559 1.390 . S
C2554 H2545 0.930 . S
C2554 C2552 1.384 . S
C2554 C2555 1.372 . S
C2555 C2554 1.372 . S
C2555 C2556 1.400 . S
C2555 C2560 1.490 . S
C2556 H2546 0.930 . S
C2556 C2555 1.400 . S
C2556 C2559 1.386 . S
H2557 C2573 0.930 . S
H2558 C2574 0.931 . S
C2559 H2547 0.929 . S
C2559 C2553 1.390 . S
C2559 C2556 1.386 . S
C2560 C2555 1.490 . S
C2560 C2562 1.395 . S
C2560 C2563 1.403 . S
H2561 C2567 0.930 . S
C2562 H2548 0.930 . S
C2562 C2560 1.395 . S
C2562 C2565 1.403 . S
C2563 C2560 1.403 . S
C2563 C2564 1.524 . S
C2563 C2567 1.400 . S
C2564 H2549 0.960 . S
C2564 H2550 0.960 . S
C2564 H2551 0.960 . S
C2564 C2563 1.524 . S
C2565 C2562 1.403 . S
C2565 C2566 1.392 . S
C2565 C2569 1.495 . S
C2566 C2565 1.392 . S
C2566 C2567 1.385 . S
C2566 C2568 1.478 . S
C2567 H2561 0.930 . S
C2567 C2563 1.400 . S
C2567 C2566 1.385 . S
C2568 C2566 1.478 . S
C2568 C2570 1.381 . S
C2568 C2574 1.383 . S
C2569 C2565 1.495 . S
C2569 H2575 0.959 . S
C2569 H2576 0.961 . S
C2569 H2577 0.960 . S
C2570 C2568 1.381 . S
C2570 C2571 1.394 . S
C2570 H2578 0.930 . S
C2571 C2570 1.394 . S
C2571 C2572 1.383 . S
C2571 H2579 0.929 . S
C2572 C2571 1.383 . S
C2572 C2573 1.377 . S
C2573 H2557 0.930 . S
C2573 C2572 1.377 . S
C2573 C2574 1.379 . S
C2574 H2558 0.931 . S
C2574 C2568 1.383 . S
C2574 C2573 1.379 . S
H2575 C2569 0.959 . S
H2576 C2569 0.961 . S
H2577 C2569 0.960 . S
H2578 C2570 0.930 . S
H2579 C2571 0.929 . S
H2580 C2588 0.929 . S
H2581 C2590 0.930 . S
H2582 C2592 0.930 . S
H2583 C2595 0.929 . S
H2584 C2598 0.930 . S
H2585 C2600 0.960 . S
H2586 C2600 0.960 . S
H2587 C2600 0.960 . S
C2588 H2580 0.929 . S
C2588 C2589 1.377 . S
C2588 C2590 1.384 . S
C2589 C2588 1.377 . S
C2589 C2595 1.390 . S
C2590 H2581 0.930 . S
C2590 C2588 1.384 . S
C2590 C2591 1.372 . S
C2591 C2590 1.372 . S
C2591 C2592 1.400 . S
C2591 C2596 1.490 . S
C2592 H2582 0.930 . S
C2592 C2591 1.400 . S
C2592 C2595 1.386 . S
H2593 C2609 0.930 . S
H2594 C2610 0.931 . S
C2595 H2583 0.929 . S
C2595 C2589 1.390 . S
C2595 C2592 1.386 . S
C2596 C2591 1.490 . S
C2596 C2598 1.395 . S
C2596 C2599 1.403 . S
H2597 C2603 0.930 . S
C2598 H2584 0.930 . S
C2598 C2596 1.395 . S
C2598 C2601 1.403 . S
C2599 C2596 1.403 . S
C2599 C2600 1.524 . S
C2599 C2603 1.400 . S
C2600 H2585 0.960 . S
C2600 H2586 0.960 . S
C2600 H2587 0.960 . S
C2600 C2599 1.524 . S
C2601 C2598 1.403 . S
C2601 C2602 1.392 . S
C2601 C2605 1.495 . S
C2602 C2601 1.392 . S
C2602 C2603 1.385 . S
C2602 C2604 1.478 . S
C2603 H2597 0.930 . S
C2603 C2599 1.400 . S
C2603 C2602 1.385 . S
C2604 C2602 1.478 . S
C2604 C2606 1.381 . S
C2604 C2610 1.383 . S
C2605 C2601 1.495 . S
C2605 H2611 0.959 . S
C2605 H2612 0.961 . S
C2605 H2613 0.960 . S
C2606 C2604 1.381 . S
C2606 C2607 1.394 . S
C2606 H2614 0.930 . S
C2607 C2606 1.394 . S
C2607 C2608 1.383 . S
C2607 H2615 0.929 . S
C2608 C2607 1.383 . S
C2608 C2609 1.377 . S
C2609 H2593 0.930 . S
C2609 C2608 1.377 . S
C2609 C2610 1.379 . S
C2610 H2594 0.931 . S
C2610 C2604 1.383 . S
C2610 C2609 1.379 . S
H2611 C2605 0.959 . S
H2612 C2605 0.961 . S
H2613 C2605 0.960 . S
H2614 C2606 0.930 . S
H2615 C2607 0.929 . S
H2616 C2624 0.929 . S
H2617 C2626 0.930 . S
H2618 C2628 0.930 . S
H2619 C2631 0.929 . S
H2620 C2634 0.930 . S
H2621 C2636 0.960 . S
H2622 C2636 0.960 . S
H2623 C2636 0.960 . S
C2624 H2616 0.929 . S
C2624 C2625 1.377 . S
C2624 C2626 1.384 . S
C2625 C2624 1.377 . S
C2625 C2631 1.390 . S
C2626 H2617 0.930 . S
C2626 C2624 1.384 . S
C2626 C2627 1.372 . S
C2627 C2626 1.372 . S
C2627 C2628 1.400 . S
C2627 C2632 1.490 . S
C2628 H2618 0.930 . S
C2628 C2627 1.400 . S
C2628 C2631 1.386 . S
H2629 C2645 0.930 . S
H2630 C2646 0.931 . S
C2631 H2619 0.929 . S
C2631 C2625 1.390 . S
C2631 C2628 1.386 . S
C2632 C2627 1.490 . S
C2632 C2634 1.395 . S
C2632 C2635 1.403 . S
H2633 C2639 0.930 . S
C2634 H2620 0.930 . S
C2634 C2632 1.395 . S
C2634 C2637 1.403 . S
C2635 C2632 1.403 . S
C2635 C2636 1.524 . S
C2635 C2639 1.400 . S
C2636 H2621 0.960 . S
C2636 H2622 0.960 . S
C2636 H2623 0.960 . S
C2636 C2635 1.524 . S
C2637 C2634 1.403 . S
C2637 C2638 1.392 . S
C2637 C2641 1.495 . S
C2638 C2637 1.392 . S
C2638 C2639 1.385 . S
C2638 C2640 1.478 . S
C2639 H2633 0.930 . S
C2639 C2635 1.400 . S
C2639 C2638 1.385 . S
C2640 C2638 1.478 . S
C2640 C2642 1.381 . S
C2640 C2646 1.383 . S
C2641 C2637 1.495 . S
C2641 H2647 0.959 . S
C2641 H2648 0.961 . S
C2641 H2649 0.960 . S
C2642 C2640 1.381 . S
C2642 C2643 1.394 . S
C2642 H2650 0.930 . S
C2643 C2642 1.394 . S
C2643 C2644 1.383 . S
C2643 H2651 0.929 . S
C2644 C2643 1.383 . S
C2644 C2645 1.377 . S
C2645 H2629 0.930 . S
C2645 C2644 1.377 . S
C2645 C2646 1.379 . S
C2646 H2630 0.931 . S
C2646 C2640 1.383 . S
C2646 C2645 1.379 . S
H2647 C2641 0.959 . S
H2648 C2641 0.961 . S
H2649 C2641 0.960 . S
H2650 C2642 0.930 . S
H2651 C2643 0.929 . S
H2652 C2660 0.929 . S
H2653 C2662 0.930 . S
H2654 C2664 0.930 . S
H2655 C2667 0.929 . S
H2656 C2670 0.930 . S
H2657 C2672 0.960 . S
H2658 C2672 0.960 . S
H2659 C2672 0.960 . S
C2660 H2652 0.929 . S
C2660 C2661 1.377 . S
C2660 C2662 1.384 . S
C2661 C2660 1.377 . S
C2661 C2667 1.390 . S
C2662 H2653 0.930 . S
C2662 C2660 1.384 . S
C2662 C2663 1.372 . S
C2663 C2662 1.372 . S
C2663 C2664 1.400 . S
C2663 C2668 1.490 . S
C2664 H2654 0.930 . S
C2664 C2663 1.400 . S
C2664 C2667 1.386 . S
H2665 C2681 0.930 . S
H2666 C2682 0.931 . S
C2667 H2655 0.929 . S
C2667 C2661 1.390 . S
C2667 C2664 1.386 . S
C2668 C2663 1.490 . S
C2668 C2670 1.395 . S
C2668 C2671 1.403 . S
H2669 C2675 0.930 . S
C2670 H2656 0.930 . S
C2670 C2668 1.395 . S
C2670 C2673 1.403 . S
C2671 C2668 1.403 . S
C2671 C2672 1.524 . S
C2671 C2675 1.400 . S
C2672 H2657 0.960 . S
C2672 H2658 0.960 . S
C2672 H2659 0.960 . S
C2672 C2671 1.524 . S
C2673 C2670 1.403 . S
C2673 C2674 1.392 . S
C2673 C2677 1.495 . S
C2674 C2673 1.392 . S
C2674 C2675 1.385 . S
C2674 C2676 1.478 . S
C2675 H2669 0.930 . S
C2675 C2671 1.400 . S
C2675 C2674 1.385 . S
C2676 C2674 1.478 . S
C2676 C2678 1.381 . S
C2676 C2682 1.383 . S
C2677 C2673 1.495 . S
C2677 H2683 0.959 . S
C2677 H2684 0.961 . S
C2677 H2685 0.960 . S
C2678 C2676 1.381 . S
C2678 C2679 1.394 . S
C2678 H2686 0.930 . S
C2679 C2678 1.394 . S
C2679 C2680 1.383 . S
C2679 H2687 0.929 . S
C2680 C2679 1.383 . S
C2680 C2681 1.377 . S
C2681 H2665 0.930 . S
C2681 C2680 1.377 . S
C2681 C2682 1.379 . S
C2682 H2666 0.931 . S
C2682 C2676 1.383 . S
C2682 C2681 1.379 . S
H2683 C2677 0.959 . S
H2684 C2677 0.961 . S
H2685 C2677 0.960 . S
H2686 C2678 0.930 . S
H2687 C2679 0.929 . S
H2688 C2696 0.929 . S
H2689 C2698 0.930 . S
H2690 C2700 0.930 . S
H2691 C2703 0.929 . S
H2692 C2706 0.930 . S
H2693 C2708 0.960 . S
H2694 C2708 0.960 . S
H2695 C2708 0.960 . S
C2696 H2688 0.929 . S
C2696 C2697 1.377 . S
C2696 C2698 1.384 . S
C2697 C2696 1.377 . S
C2697 C2703 1.390 . S
C2698 H2689 0.930 . S
C2698 C2696 1.384 . S
C2698 C2699 1.372 . S
C2699 C2698 1.372 . S
C2699 C2700 1.400 . S
C2699 C2704 1.490 . S
C2700 H2690 0.930 . S
C2700 C2699 1.400 . S
C2700 C2703 1.386 . S
H2701 C2717 0.930 . S
H2702 C2718 0.931 . S
C2703 H2691 0.929 . S
C2703 C2697 1.390 . S
C2703 C2700 1.386 . S
C2704 C2699 1.490 . S
C2704 C2706 1.395 . S
C2704 C2707 1.403 . S
H2705 C2711 0.930 . S
C2706 H2692 0.930 . S
C2706 C2704 1.395 . S
C2706 C2709 1.403 . S
C2707 C2704 1.403 . S
C2707 C2708 1.524 . S
C2707 C2711 1.400 . S
C2708 H2693 0.960 . S
C2708 H2694 0.960 . S
C2708 H2695 0.960 . S
C2708 C2707 1.524 . S
C2709 C2706 1.403 . S
C2709 C2710 1.392 . S
C2709 C2713 1.495 . S
C2710 C2709 1.392 . S
C2710 C2711 1.385 . S
C2710 C2712 1.478 . S
C2711 H2705 0.930 . S
C2711 C2707 1.400 . S
C2711 C2710 1.385 . S
C2712 C2710 1.478 . S
C2712 C2714 1.381 . S
C2712 C2718 1.383 . S
C2713 C2709 1.495 . S
C2713 H2719 0.959 . S
C2713 H2720 0.961 . S
C2713 H2721 0.960 . S
C2714 C2712 1.381 . S
C2714 C2715 1.394 . S
C2714 H2722 0.930 . S
C2715 C2714 1.394 . S
C2715 C2716 1.383 . S
C2715 H2723 0.929 . S
C2716 C2715 1.383 . S
C2716 C2717 1.377 . S
C2717 H2701 0.930 . S
C2717 C2716 1.377 . S
C2717 C2718 1.379 . S
C2718 H2702 0.931 . S
C2718 C2712 1.383 . S
C2718 C2717 1.379 . S
H2719 C2713 0.959 . S
H2720 C2713 0.961 . S
H2721 C2713 0.960 . S
H2722 C2714 0.930 . S
H2723 C2715 0.929 . S
H2724 C2732 0.929 . S
H2725 C2734 0.930 . S
H2726 C2736 0.930 . S
H2727 C2739 0.929 . S
H2728 C2742 0.930 . S
H2729 C2744 0.960 . S
H2730 C2744 0.960 . S
H2731 C2744 0.960 . S
C2732 H2724 0.929 . S
C2732 C2733 1.377 . S
C2732 C2734 1.384 . S
C2733 C2732 1.377 . S
C2733 C2739 1.390 . S
C2734 H2725 0.930 . S
C2734 C2732 1.384 . S
C2734 C2735 1.372 . S
C2735 C2734 1.372 . S
C2735 C2736 1.400 . S
C2735 C2740 1.490 . S
C2736 H2726 0.930 . S
C2736 C2735 1.400 . S
C2736 C2739 1.386 . S
H2737 C2753 0.930 . S
H2738 C2754 0.931 . S
C2739 H2727 0.929 . S
C2739 C2733 1.390 . S
C2739 C2736 1.386 . S
C2740 C2735 1.490 . S
C2740 C2742 1.395 . S
C2740 C2743 1.403 . S
H2741 C2747 0.930 . S
C2742 H2728 0.930 . S
C2742 C2740 1.395 . S
C2742 C2745 1.403 . S
C2743 C2740 1.403 . S
C2743 C2744 1.524 . S
C2743 C2747 1.400 . S
C2744 H2729 0.960 . S
C2744 H2730 0.960 . S
C2744 H2731 0.960 . S
C2744 C2743 1.524 . S
C2745 C2742 1.403 . S
C2745 C2746 1.392 . S
C2745 C2749 1.495 . S
C2746 C2745 1.392 . S
C2746 C2747 1.385 . S
C2746 C2748 1.478 . S
C2747 H2741 0.930 . S
C2747 C2743 1.400 . S
C2747 C2746 1.385 . S
C2748 C2746 1.478 . S
C2748 C2750 1.381 . S
C2748 C2754 1.383 . S
C2749 C2745 1.495 . S
C2749 H2755 0.959 . S
C2749 H2756 0.961 . S
C2749 H2757 0.960 . S
C2750 C2748 1.381 . S
C2750 C2751 1.394 . S
C2750 H2758 0.930 . S
C2751 C2750 1.394 . S
C2751 C2752 1.383 . S
C2751 H2759 0.929 . S
C2752 C2751 1.383 . S
C2752 C2753 1.377 . S
C2753 H2737 0.930 . S
C2753 C2752 1.377 . S
C2753 C2754 1.379 . S
C2754 H2738 0.931 . S
C2754 C2748 1.383 . S
C2754 C2753 1.379 . S
H2755 C2749 0.959 . S
H2756 C2749 0.961 . S
H2757 C2749 0.960 . S
H2758 C2750 0.930 . S
H2759 C2751 0.929 . S
H2760 C2768 0.929 . S
H2761 C2770 0.930 . S
H2762 C2772 0.930 . S
H2763 C2775 0.929 . S
H2764 C2778 0.930 . S
H2765 C2780 0.960 . S
H2766 C2780 0.960 . S
H2767 C2780 0.960 . S
C2768 H2760 0.929 . S
C2768 C2769 1.377 . S
C2768 C2770 1.384 . S
C2769 C2768 1.377 . S
C2769 C2775 1.390 . S
C2770 H2761 0.930 . S
C2770 C2768 1.384 . S
C2770 C2771 1.372 . S
C2771 C2770 1.372 . S
C2771 C2772 1.400 . S
C2771 C2776 1.490 . S
C2772 H2762 0.930 . S
C2772 C2771 1.400 . S
C2772 C2775 1.386 . S
H2773 C2789 0.930 . S
H2774 C2790 0.931 . S
C2775 H2763 0.929 . S
C2775 C2769 1.390 . S
C2775 C2772 1.386 . S
C2776 C2771 1.490 . S
C2776 C2778 1.395 . S
C2776 C2779 1.403 . S
H2777 C2783 0.930 . S
C2778 H2764 0.930 . S
C2778 C2776 1.395 . S
C2778 C2781 1.403 . S
C2779 C2776 1.403 . S
C2779 C2780 1.524 . S
C2779 C2783 1.400 . S
C2780 H2765 0.960 . S
C2780 H2766 0.960 . S
C2780 H2767 0.960 . S
C2780 C2779 1.524 . S
C2781 C2778 1.403 . S
C2781 C2782 1.392 . S
C2781 C2785 1.495 . S
C2782 C2781 1.392 . S
C2782 C2783 1.385 . S
C2782 C2784 1.478 . S
C2783 H2777 0.930 . S
C2783 C2779 1.400 . S
C2783 C2782 1.385 . S
C2784 C2782 1.478 . S
C2784 C2786 1.381 . S
C2784 C2790 1.383 . S
C2785 C2781 1.495 . S
C2785 H2791 0.959 . S
C2785 H2792 0.961 . S
C2785 H2793 0.960 . S
C2786 C2784 1.381 . S
C2786 C2787 1.394 . S
C2786 H2794 0.930 . S
C2787 C2786 1.394 . S
C2787 C2788 1.383 . S
C2787 H2795 0.929 . S
C2788 C2787 1.383 . S
C2788 C2789 1.377 . S
C2789 H2773 0.930 . S
C2789 C2788 1.377 . S
C2789 C2790 1.379 . S
C2790 H2774 0.931 . S
C2790 C2784 1.383 . S
C2790 C2789 1.379 . S
H2791 C2785 0.959 . S
H2792 C2785 0.961 . S
H2793 C2785 0.960 . S
H2794 C2786 0.930 . S
H2795 C2787 0.929 . S
H2796 C2804 0.929 . S
H2797 C2806 0.930 . S
H2798 C2808 0.930 . S
H2799 C2811 0.929 . S
H2800 C2814 0.930 . S
H2801 C2816 0.960 . S
H2802 C2816 0.960 . S
H2803 C2816 0.960 . S
C2804 H2796 0.929 . S
C2804 C2805 1.377 . S
C2804 C2806 1.384 . S
C2805 C2804 1.377 . S
C2805 C2811 1.390 . S
C2806 H2797 0.930 . S
C2806 C2804 1.384 . S
C2806 C2807 1.372 . S
C2807 C2806 1.372 . S
C2807 C2808 1.400 . S
C2807 C2812 1.490 . S
C2808 H2798 0.930 . S
C2808 C2807 1.400 . S
C2808 C2811 1.386 . S
H2809 C2825 0.930 . S
H2810 C2826 0.931 . S
C2811 H2799 0.929 . S
C2811 C2805 1.390 . S
C2811 C2808 1.386 . S
C2812 C2807 1.490 . S
C2812 C2814 1.395 . S
C2812 C2815 1.403 . S
H2813 C2819 0.930 . S
C2814 H2800 0.930 . S
C2814 C2812 1.395 . S
C2814 C2817 1.403 . S
C2815 C2812 1.403 . S
C2815 C2816 1.524 . S
C2815 C2819 1.400 . S
C2816 H2801 0.960 . S
C2816 H2802 0.960 . S
C2816 H2803 0.960 . S
C2816 C2815 1.524 . S
C2817 C2814 1.403 . S
C2817 C2818 1.392 . S
C2817 C2821 1.495 . S
C2818 C2817 1.392 . S
C2818 C2819 1.385 . S
C2818 C2820 1.478 . S
C2819 H2813 0.930 . S
C2819 C2815 1.400 . S
C2819 C2818 1.385 . S
C2820 C2818 1.478 . S
C2820 C2822 1.381 . S
C2820 C2826 1.383 . S
C2821 C2817 1.495 . S
C2821 H2827 0.959 . S
C2821 H2828 0.961 . S
C2821 H2829 0.960 . S
C2822 C2820 1.381 . S
C2822 C2823 1.394 . S
C2822 H2830 0.930 . S
C2823 C2822 1.394 . S
C2823 C2824 1.383 . S
C2823 H2831 0.929 . S
C2824 C2823 1.383 . S
C2824 C2825 1.377 . S
C2825 H2809 0.930 . S
C2825 C2824 1.377 . S
C2825 C2826 1.379 . S
C2826 H2810 0.931 . S
C2826 C2820 1.383 . S
C2826 C2825 1.379 . S
H2827 C2821 0.959 . S
H2828 C2821 0.961 . S
H2829 C2821 0.960 . S
H2830 C2822 0.930 . S
H2831 C2823 0.929 . S
H2832 C2840 0.929 . S
H2833 C2842 0.930 . S
H2834 C2844 0.930 . S
H2835 C2847 0.929 . S
H2836 C2850 0.930 . S
H2837 C2852 0.960 . S
H2838 C2852 0.960 . S
H2839 C2852 0.960 . S
C2840 H2832 0.929 . S
C2840 C2841 1.377 . S
C2840 C2842 1.384 . S
C2841 C2840 1.377 . S
C2841 C2847 1.390 . S
C2842 H2833 0.930 . S
C2842 C2840 1.384 . S
C2842 C2843 1.372 . S
C2843 C2842 1.372 . S
C2843 C2844 1.400 . S
C2843 C2848 1.490 . S
C2844 H2834 0.930 . S
C2844 C2843 1.400 . S
C2844 C2847 1.386 . S
H2845 C2861 0.930 . S
H2846 C2862 0.931 . S
C2847 H2835 0.929 . S
C2847 C2841 1.390 . S
C2847 C2844 1.386 . S
C2848 C2843 1.490 . S
C2848 C2850 1.395 . S
C2848 C2851 1.403 . S
H2849 C2855 0.930 . S
C2850 H2836 0.930 . S
C2850 C2848 1.395 . S
C2850 C2853 1.403 . S
C2851 C2848 1.403 . S
C2851 C2852 1.524 . S
C2851 C2855 1.400 . S
C2852 H2837 0.960 . S
C2852 H2838 0.960 . S
C2852 H2839 0.960 . S
C2852 C2851 1.524 . S
C2853 C2850 1.403 . S
C2853 C2854 1.392 . S
C2853 C2857 1.495 . S
C2854 C2853 1.392 . S
C2854 C2855 1.385 . S
C2854 C2856 1.478 . S
C2855 H2849 0.930 . S
C2855 C2851 1.400 . S
C2855 C2854 1.385 . S
C2856 C2854 1.478 . S
C2856 C2858 1.381 . S
C2856 C2862 1.383 . S
C2857 C2853 1.495 . S
C2857 H2863 0.959 . S
C2857 H2864 0.961 . S
C2857 H2865 0.960 . S
C2858 C2856 1.381 . S
C2858 C2859 1.394 . S
C2858 H2866 0.930 . S
C2859 C2858 1.394 . S
C2859 C2860 1.383 . S
C2859 H2867 0.929 . S
C2860 C2859 1.383 . S
C2860 C2861 1.377 . S
C2861 H2845 0.930 . S
C2861 C2860 1.377 . S
C2861 C2862 1.379 . S
C2862 H2846 0.931 . S
C2862 C2856 1.383 . S
C2862 C2861 1.379 . S
H2863 C2857 0.959 . S
H2864 C2857 0.961 . S
H2865 C2857 0.960 . S
H2866 C2858 0.930 . S
H2867 C2859 0.929 . S
H2868 C2876 0.929 . S
H2869 C2878 0.930 . S
H2870 C2880 0.930 . S
H2871 C2883 0.929 . S
H2872 C2886 0.930 . S
H2873 C2888 0.960 . S
H2874 C2888 0.960 . S
H2875 C2888 0.960 . S
C2876 H2868 0.929 . S
C2876 C2877 1.377 . S
C2876 C2878 1.384 . S
C2877 C2876 1.377 . S
C2877 C2883 1.390 . S
C2878 H2869 0.930 . S
C2878 C2876 1.384 . S
C2878 C2879 1.372 . S
C2879 C2878 1.372 . S
C2879 C2880 1.400 . S
C2879 C2884 1.490 . S
C2880 H2870 0.930 . S
C2880 C2879 1.400 . S
C2880 C2883 1.386 . S
H2881 C2897 0.930 . S
H2882 C2898 0.931 . S
C2883 H2871 0.929 . S
C2883 C2877 1.390 . S
C2883 C2880 1.386 . S
C2884 C2879 1.490 . S
C2884 C2886 1.395 . S
C2884 C2887 1.403 . S
H2885 C2891 0.930 . S
C2886 H2872 0.930 . S
C2886 C2884 1.395 . S
C2886 C2889 1.403 . S
C2887 C2884 1.403 . S
C2887 C2888 1.524 . S
C2887 C2891 1.400 . S
C2888 H2873 0.960 . S
C2888 H2874 0.960 . S
C2888 H2875 0.960 . S
C2888 C2887 1.524 . S
C2889 C2886 1.403 . S
C2889 C2890 1.392 . S
C2889 C2893 1.495 . S
C2890 C2889 1.392 . S
C2890 C2891 1.385 . S
C2890 C2892 1.478 . S
C2891 H2885 0.930 . S
C2891 C2887 1.400 . S
C2891 C2890 1.385 . S
C2892 C2890 1.478 . S
C2892 C2894 1.381 . S
C2892 C2898 1.383 . S
C2893 C2889 1.495 . S
C2893 H2899 0.959 . S
C2893 H2900 0.961 . S
C2893 H2901 0.960 . S
C2894 C2892 1.381 . S
C2894 C2895 1.394 . S
C2894 H2902 0.930 . S
C2895 C2894 1.394 . S
C2895 C2896 1.383 . S
C2895 H2903 0.929 . S
C2896 C2895 1.383 . S
C2896 C2897 1.377 . S
C2897 H2881 0.930 . S
C2897 C2896 1.377 . S
C2897 C2898 1.379 . S
C2898 H2882 0.931 . S
C2898 C2892 1.383 . S
C2898 C2897 1.379 . S
H2899 C2893 0.959 . S
H2900 C2893 0.961 . S
H2901 C2893 0.960 . S
H2902 C2894 0.930 . S
H2903 C2895 0.929 . S
H2904 C2912 0.929 . S
H2905 C2914 0.930 . S
H2906 C2916 0.930 . S
H2907 C2919 0.929 . S
H2908 C2922 0.930 . S
H2909 C2924 0.960 . S
H2910 C2924 0.960 . S
H2911 C2924 0.960 . S
C2912 H2904 0.929 . S
C2912 C2913 1.377 . S
C2912 C2914 1.384 . S
C2913 C2912 1.377 . S
C2913 C2919 1.390 . S
C2914 H2905 0.930 . S
C2914 C2912 1.384 . S
C2914 C2915 1.372 . S
C2915 C2914 1.372 . S
C2915 C2916 1.400 . S
C2915 C2920 1.490 . S
C2916 H2906 0.930 . S
C2916 C2915 1.400 . S
C2916 C2919 1.386 . S
H2917 C2933 0.930 . S
H2918 C2934 0.931 . S
C2919 H2907 0.929 . S
C2919 C2913 1.390 . S
C2919 C2916 1.386 . S
C2920 C2915 1.490 . S
C2920 C2922 1.395 . S
C2920 C2923 1.403 . S
H2921 C2927 0.930 . S
C2922 H2908 0.930 . S
C2922 C2920 1.395 . S
C2922 C2925 1.403 . S
C2923 C2920 1.403 . S
C2923 C2924 1.524 . S
C2923 C2927 1.400 . S
C2924 H2909 0.960 . S
C2924 H2910 0.960 . S
C2924 H2911 0.960 . S
C2924 C2923 1.524 . S
C2925 C2922 1.403 . S
C2925 C2926 1.392 . S
C2925 C2929 1.495 . S
C2926 C2925 1.392 . S
C2926 C2927 1.385 . S
C2926 C2928 1.478 . S
C2927 H2921 0.930 . S
C2927 C2923 1.400 . S
C2927 C2926 1.385 . S
C2928 C2926 1.478 . S
C2928 C2930 1.381 . S
C2928 C2934 1.383 . S
C2929 C2925 1.495 . S
C2929 H2935 0.959 . S
C2929 H2936 0.961 . S
C2929 H2937 0.960 . S
C2930 C2928 1.381 . S
C2930 C2931 1.394 . S
C2930 H2938 0.930 . S
C2931 C2930 1.394 . S
C2931 C2932 1.383 . S
C2931 H2939 0.929 . S
C2932 C2931 1.383 . S
C2932 C2933 1.377 . S
C2933 H2917 0.930 . S
C2933 C2932 1.377 . S
C2933 C2934 1.379 . S
C2934 H2918 0.931 . S
C2934 C2928 1.383 . S
C2934 C2933 1.379 . S
H2935 C2929 0.959 . S
H2936 C2929 0.961 . S
H2937 C2929 0.960 . S
H2938 C2930 0.930 . S
H2939 C2931 0.929 . S
H2940 C2948 0.929 . S
H2941 C2950 0.930 . S
H2942 C2952 0.930 . S
H2943 C2955 0.929 . S
H2944 C2958 0.930 . S
H2945 C2960 0.960 . S
H2946 C2960 0.960 . S
H2947 C2960 0.960 . S
C2948 H2940 0.929 . S
C2948 C2949 1.377 . S
C2948 C2950 1.384 . S
C2949 C2948 1.377 . S
C2949 C2955 1.390 . S
C2950 H2941 0.930 . S
C2950 C2948 1.384 . S
C2950 C2951 1.372 . S
C2951 C2950 1.372 . S
C2951 C2952 1.400 . S
C2951 C2956 1.490 . S
C2952 H2942 0.930 . S
C2952 C2951 1.400 . S
C2952 C2955 1.386 . S
H2953 C2969 0.930 . S
H2954 C2970 0.931 . S
C2955 H2943 0.929 . S
C2955 C2949 1.390 . S
C2955 C2952 1.386 . S
C2956 C2951 1.490 . S
C2956 C2958 1.395 . S
C2956 C2959 1.403 . S
H2957 C2963 0.930 . S
C2958 H2944 0.930 . S
C2958 C2956 1.395 . S
C2958 C2961 1.403 . S
C2959 C2956 1.403 . S
C2959 C2960 1.524 . S
C2959 C2963 1.400 . S
C2960 H2945 0.960 . S
C2960 H2946 0.960 . S
C2960 H2947 0.960 . S
C2960 C2959 1.524 . S
C2961 C2958 1.403 . S
C2961 C2962 1.392 . S
C2961 C2965 1.495 . S
C2962 C2961 1.392 . S
C2962 C2963 1.385 . S
C2962 C2964 1.478 . S
C2963 H2957 0.930 . S
C2963 C2959 1.400 . S
C2963 C2962 1.385 . S
C2964 C2962 1.478 . S
C2964 C2966 1.381 . S
C2964 C2970 1.383 . S
C2965 C2961 1.495 . S
C2965 H2971 0.959 . S
C2965 H2972 0.961 . S
C2965 H2973 0.960 . S
C2966 C2964 1.381 . S
C2966 C2967 1.394 . S
C2966 H2974 0.930 . S
C2967 C2966 1.394 . S
C2967 C2968 1.383 . S
C2967 H2975 0.929 . S
C2968 C2967 1.383 . S
C2968 C2969 1.377 . S
C2969 H2953 0.930 . S
C2969 C2968 1.377 . S
C2969 C2970 1.379 . S
C2970 H2954 0.931 . S
C2970 C2964 1.383 . S
C2970 C2969 1.379 . S
H2971 C2965 0.959 . S
H2972 C2965 0.961 . S
H2973 C2965 0.960 . S
H2974 C2966 0.930 . S
H2975 C2967 0.929 . S
H2976 C2984 0.929 . S
H2977 C2986 0.930 . S
H2978 C2988 0.930 . S
H2979 C2991 0.929 . S
H2980 C2994 0.930 . S
H2981 C2996 0.960 . S
H2982 C2996 0.960 . S
H2983 C2996 0.960 . S
C2984 H2976 0.929 . S
C2984 C2985 1.377 . S
C2984 C2986 1.384 . S
C2985 C2984 1.377 . S
C2985 C2991 1.390 . S
C2986 H2977 0.930 . S
C2986 C2984 1.384 . S
C2986 C2987 1.372 . S
C2987 C2986 1.372 . S
C2987 C2988 1.400 . S
C2987 C2992 1.490 . S
C2988 H2978 0.930 . S
C2988 C2987 1.400 . S
C2988 C2991 1.386 . S
H2989 C3005 0.930 . S
H2990 C3006 0.931 . S
C2991 H2979 0.929 . S
C2991 C2985 1.390 . S
C2991 C2988 1.386 . S
C2992 C2987 1.490 . S
C2992 C2994 1.395 . S
C2992 C2995 1.403 . S
H2993 C2999 0.930 . S
C2994 H2980 0.930 . S
C2994 C2992 1.395 . S
C2994 C2997 1.403 . S
C2995 C2992 1.403 . S
C2995 C2996 1.524 . S
C2995 C2999 1.400 . S
C2996 H2981 0.960 . S
C2996 H2982 0.960 . S
C2996 H2983 0.960 . S
C2996 C2995 1.524 . S
C2997 C2994 1.403 . S
C2997 C2998 1.392 . S
C2997 C3001 1.495 . S
C2998 C2997 1.392 . S
C2998 C2999 1.385 . S
C2998 C3000 1.478 . S
C2999 H2993 0.930 . S
C2999 C2995 1.400 . S
C2999 C2998 1.385 . S
C3000 C2998 1.478 . S
C3000 C3002 1.381 . S
C3000 C3006 1.383 . S
C3001 C2997 1.495 . S
C3001 H3007 0.959 . S
C3001 H3008 0.961 . S
C3001 H3009 0.960 . S
C3002 C3000 1.381 . S
C3002 C3003 1.394 . S
C3002 H3010 0.930 . S
C3003 C3002 1.394 . S
C3003 C3004 1.383 . S
C3003 H3011 0.929 . S
C3004 C3003 1.383 . S
C3004 C3005 1.377 . S
C3005 H2989 0.930 . S
C3005 C3004 1.377 . S
C3005 C3006 1.379 . S
C3006 H2990 0.931 . S
C3006 C3000 1.383 . S
C3006 C3005 1.379 . S
H3007 C3001 0.959 . S
H3008 C3001 0.961 . S
H3009 C3001 0.960 . S
H3010 C3002 0.930 . S
H3011 C3003 0.929 . S
H3012 C3020 0.929 . S
H3013 C3022 0.930 . S
H3014 C3024 0.930 . S
H3015 C3027 0.929 . S
H3016 C3030 0.930 . S
H3017 C3032 0.960 . S
H3018 C3032 0.960 . S
H3019 C3032 0.960 . S
C3020 H3012 0.929 . S
C3020 C3021 1.377 . S
C3020 C3022 1.384 . S
C3021 C3020 1.377 . S
C3021 C3027 1.390 . S
C3022 H3013 0.930 . S
C3022 C3020 1.384 . S
C3022 C3023 1.372 . S
C3023 C3022 1.372 . S
C3023 C3024 1.400 . S
C3023 C3028 1.490 . S
C3024 H3014 0.930 . S
C3024 C3023 1.400 . S
C3024 C3027 1.386 . S
H3025 C3041 0.930 . S
H3026 C3042 0.931 . S
C3027 H3015 0.929 . S
C3027 C3021 1.390 . S
C3027 C3024 1.386 . S
C3028 C3023 1.490 . S
C3028 C3030 1.395 . S
C3028 C3031 1.403 . S
H3029 C3035 0.930 . S
C3030 H3016 0.930 . S
C3030 C3028 1.395 . S
C3030 C3033 1.403 . S
C3031 C3028 1.403 . S
C3031 C3032 1.524 . S
C3031 C3035 1.400 . S
C3032 H3017 0.960 . S
C3032 H3018 0.960 . S
C3032 H3019 0.960 . S
C3032 C3031 1.524 . S
C3033 C3030 1.403 . S
C3033 C3034 1.392 . S
C3033 C3037 1.495 . S
C3034 C3033 1.392 . S
C3034 C3035 1.385 . S
C3034 C3036 1.478 . S
C3035 H3029 0.930 . S
C3035 C3031 1.400 . S
C3035 C3034 1.385 . S
C3036 C3034 1.478 . S
C3036 C3038 1.381 . S
C3036 C3042 1.383 . S
C3037 C3033 1.495 . S
C3037 H3043 0.959 . S
C3037 H3044 0.961 . S
C3037 H3045 0.960 . S
C3038 C3036 1.381 . S
C3038 C3039 1.394 . S
C3038 H3046 0.930 . S
C3039 C3038 1.394 . S
C3039 C3040 1.383 . S
C3039 H3047 0.929 . S
C3040 C3039 1.383 . S
C3040 C3041 1.377 . S
C3041 H3025 0.930 . S
C3041 C3040 1.377 . S
C3041 C3042 1.379 . S
C3042 H3026 0.931 . S
C3042 C3036 1.383 . S
C3042 C3041 1.379 . S
H3043 C3037 0.959 . S
H3044 C3037 0.961 . S
H3045 C3037 0.960 . S
H3046 C3038 0.930 . S
H3047 C3039 0.929 . S
H3048 C3056 0.929 . S
H3049 C3058 0.930 . S
H3050 C3060 0.930 . S
H3051 C3063 0.929 . S
H3052 C3066 0.930 . S
H3053 C3068 0.960 . S
H3054 C3068 0.960 . S
H3055 C3068 0.960 . S
C3056 H3048 0.929 . S
C3056 C3057 1.377 . S
C3056 C3058 1.384 . S
C3057 C3056 1.377 . S
C3057 C3063 1.390 . S
C3058 H3049 0.930 . S
C3058 C3056 1.384 . S
C3058 C3059 1.372 . S
C3059 C3058 1.372 . S
C3059 C3060 1.400 . S
C3059 C3064 1.490 . S
C3060 H3050 0.930 . S
C3060 C3059 1.400 . S
C3060 C3063 1.386 . S
H3061 C3077 0.930 . S
H3062 C3078 0.931 . S
C3063 H3051 0.929 . S
C3063 C3057 1.390 . S
C3063 C3060 1.386 . S
C3064 C3059 1.490 . S
C3064 C3066 1.395 . S
C3064 C3067 1.403 . S
H3065 C3071 0.930 . S
C3066 H3052 0.930 . S
C3066 C3064 1.395 . S
C3066 C3069 1.403 . S
C3067 C3064 1.403 . S
C3067 C3068 1.524 . S
C3067 C3071 1.400 . S
C3068 H3053 0.960 . S
C3068 H3054 0.960 . S
C3068 H3055 0.960 . S
C3068 C3067 1.524 . S
C3069 C3066 1.403 . S
C3069 C3070 1.392 . S
C3069 C3073 1.495 . S
C3070 C3069 1.392 . S
C3070 C3071 1.385 . S
C3070 C3072 1.478 . S
C3071 H3065 0.930 . S
C3071 C3067 1.400 . S
C3071 C3070 1.385 . S
C3072 C3070 1.478 . S
C3072 C3074 1.381 . S
C3072 C3078 1.383 . S
C3073 C3069 1.495 . S
C3073 H3079 0.959 . S
C3073 H3080 0.961 . S
C3073 H3081 0.960 . S
C3074 C3072 1.381 . S
C3074 C3075 1.394 . S
C3074 H3082 0.930 . S
C3075 C3074 1.394 . S
C3075 C3076 1.383 . S
C3075 H3083 0.929 . S
C3076 C3075 1.383 . S
C3076 C3077 1.377 . S
C3077 H3061 0.930 . S
C3077 C3076 1.377 . S
C3077 C3078 1.379 . S
C3078 H3062 0.931 . S
C3078 C3072 1.383 . S
C3078 C3077 1.379 . S
H3079 C3073 0.959 . S
H3080 C3073 0.961 . S
H3081 C3073 0.960 . S
H3082 C3074 0.930 . S
H3083 C3075 0.929 . S
H3084 C3092 0.929 . S
H3085 C3094 0.930 . S
H3086 C3096 0.930 . S
H3087 C3099 0.929 . S
H3088 C3102 0.930 . S
H3089 C3104 0.960 . S
H3090 C3104 0.960 . S
H3091 C3104 0.960 . S
C3092 H3084 0.929 . S
C3092 C3093 1.377 . S
C3092 C3094 1.384 . S
C3093 C3092 1.377 . S
C3093 C3099 1.390 . S
C3094 H3085 0.930 . S
C3094 C3092 1.384 . S
C3094 C3095 1.372 . S
C3095 C3094 1.372 . S
C3095 C3096 1.400 . S
C3095 C3100 1.490 . S
C3096 H3086 0.930 . S
C3096 C3095 1.400 . S
C3096 C3099 1.386 . S
H3097 C3113 0.930 . S
H3098 C3114 0.931 . S
C3099 H3087 0.929 . S
C3099 C3093 1.390 . S
C3099 C3096 1.386 . S
C3100 C3095 1.490 . S
C3100 C3102 1.395 . S
C3100 C3103 1.403 . S
H3101 C3107 0.930 . S
C3102 H3088 0.930 . S
C3102 C3100 1.395 . S
C3102 C3105 1.403 . S
C3103 C3100 1.403 . S
C3103 C3104 1.524 . S
C3103 C3107 1.400 . S
C3104 H3089 0.960 . S
C3104 H3090 0.960 . S
C3104 H3091 0.960 . S
C3104 C3103 1.524 . S
C3105 C3102 1.403 . S
C3105 C3106 1.392 . S
C3105 C3109 1.495 . S
C3106 C3105 1.392 . S
C3106 C3107 1.385 . S
C3106 C3108 1.478 . S
C3107 H3101 0.930 . S
C3107 C3103 1.400 . S
C3107 C3106 1.385 . S
C3108 C3106 1.478 . S
C3108 C3110 1.381 . S
C3108 C3114 1.383 . S
C3109 C3105 1.495 . S
C3109 H3115 0.959 . S
C3109 H3116 0.961 . S
C3109 H3117 0.960 . S
C3110 C3108 1.381 . S
C3110 C3111 1.394 . S
C3110 H3118 0.930 . S
C3111 C3110 1.394 . S
C3111 C3112 1.383 . S
C3111 H3119 0.929 . S
C3112 C3111 1.383 . S
C3112 C3113 1.377 . S
C3113 H3097 0.930 . S
C3113 C3112 1.377 . S
C3113 C3114 1.379 . S
C3114 H3098 0.931 . S
C3114 C3108 1.383 . S
C3114 C3113 1.379 . S
H3115 C3109 0.959 . S
H3116 C3109 0.961 . S
H3117 C3109 0.960 . S
H3118 C3110 0.930 . S
H3119 C3111 0.929 . S
H3120 C3128 0.929 . S
H3121 C3130 0.930 . S
H3122 C3132 0.930 . S
H3123 C3135 0.929 . S
H3124 C3138 0.930 . S
H3125 C3140 0.960 . S
H3126 C3140 0.960 . S
H3127 C3140 0.960 . S
C3128 H3120 0.929 . S
C3128 C3129 1.377 . S
C3128 C3130 1.384 . S
C3129 C3128 1.377 . S
C3129 C3135 1.390 . S
C3130 H3121 0.930 . S
C3130 C3128 1.384 . S
C3130 C3131 1.372 . S
C3131 C3130 1.372 . S
C3131 C3132 1.400 . S
C3131 C3136 1.490 . S
C3132 H3122 0.930 . S
C3132 C3131 1.400 . S
C3132 C3135 1.386 . S
H3133 C3149 0.930 . S
H3134 C3150 0.931 . S
C3135 H3123 0.929 . S
C3135 C3129 1.390 . S
C3135 C3132 1.386 . S
C3136 C3131 1.490 . S
C3136 C3138 1.395 . S
C3136 C3139 1.403 . S
H3137 C3143 0.930 . S
C3138 H3124 0.930 . S
C3138 C3136 1.395 . S
C3138 C3141 1.403 . S
C3139 C3136 1.403 . S
C3139 C3140 1.524 . S
C3139 C3143 1.400 . S
C3140 H3125 0.960 . S
C3140 H3126 0.960 . S
C3140 H3127 0.960 . S
C3140 C3139 1.524 . S
C3141 C3138 1.403 . S
C3141 C3142 1.392 . S
C3141 C3145 1.495 . S
C3142 C3141 1.392 . S
C3142 C3143 1.385 . S
C3142 C3144 1.478 . S
C3143 H3137 0.930 . S
C3143 C3139 1.400 . S
C3143 C3142 1.385 . S
C3144 C3142 1.478 . S
C3144 C3146 1.381 . S
C3144 C3150 1.383 . S
C3145 C3141 1.495 . S
C3145 H3151 0.959 . S
C3145 H3152 0.961 . S
C3145 H3153 0.960 . S
C3146 C3144 1.381 . S
C3146 C3147 1.394 . S
C3146 H3154 0.930 . S
C3147 C3146 1.394 . S
C3147 C3148 1.383 . S
C3147 H3155 0.929 . S
C3148 C3147 1.383 . S
C3148 C3149 1.377 . S
C3149 H3133 0.930 . S
C3149 C3148 1.377 . S
C3149 C3150 1.379 . S
C3150 H3134 0.931 . S
C3150 C3144 1.383 . S
C3150 C3149 1.379 . S
H3151 C3145 0.959 . S
H3152 C3145 0.961 . S
H3153 C3145 0.960 . S
H3154 C3146 0.930 . S
H3155 C3147 0.929 . S
H3156 C3164 0.929 . S
H3157 C3166 0.930 . S
H3158 C3168 0.930 . S
H3159 C3171 0.929 . S
H3160 C3174 0.930 . S
H3161 C3176 0.960 . S
H3162 C3176 0.960 . S
H3163 C3176 0.960 . S
C3164 H3156 0.929 . S
C3164 C3165 1.377 . S
C3164 C3166 1.384 . S
C3165 C3164 1.377 . S
C3165 C3171 1.390 . S
C3166 H3157 0.930 . S
C3166 C3164 1.384 . S
C3166 C3167 1.372 . S
C3167 C3166 1.372 . S
C3167 C3168 1.400 . S
C3167 C3172 1.490 . S
C3168 H3158 0.930 . S
C3168 C3167 1.400 . S
C3168 C3171 1.386 . S
H3169 C3185 0.930 . S
H3170 C3186 0.931 . S
C3171 H3159 0.929 . S
C3171 C3165 1.390 . S
C3171 C3168 1.386 . S
C3172 C3167 1.490 . S
C3172 C3174 1.395 . S
C3172 C3175 1.403 . S
H3173 C3179 0.930 . S
C3174 H3160 0.930 . S
C3174 C3172 1.395 . S
C3174 C3177 1.403 . S
C3175 C3172 1.403 . S
C3175 C3176 1.524 . S
C3175 C3179 1.400 . S
C3176 H3161 0.960 . S
C3176 H3162 0.960 . S
C3176 H3163 0.960 . S
C3176 C3175 1.524 . S
C3177 C3174 1.403 . S
C3177 C3178 1.392 . S
C3177 C3181 1.495 . S
C3178 C3177 1.392 . S
C3178 C3179 1.385 . S
C3178 C3180 1.478 . S
C3179 H3173 0.930 . S
C3179 C3175 1.400 . S
C3179 C3178 1.385 . S
C3180 C3178 1.478 . S
C3180 C3182 1.381 . S
C3180 C3186 1.383 . S
C3181 C3177 1.495 . S
C3181 H3187 0.959 . S
C3181 H3188 0.961 . S
C3181 H3189 0.960 . S
C3182 C3180 1.381 . S
C3182 C3183 1.394 . S
C3182 H3190 0.930 . S
C3183 C3182 1.394 . S
C3183 C3184 1.383 . S
C3183 H3191 0.929 . S
C3184 C3183 1.383 . S
C3184 C3185 1.377 . S
C3185 H3169 0.930 . S
C3185 C3184 1.377 . S
C3185 C3186 1.379 . S
C3186 H3170 0.931 . S
C3186 C3180 1.383 . S
C3186 C3185 1.379 . S
H3187 C3181 0.959 . S
H3188 C3181 0.961 . S
H3189 C3181 0.960 . S
H3190 C3182 0.930 . S
H3191 C3183 0.929 . S
H3192 C3200 0.929 . S
H3193 C3202 0.930 . S
H3194 C3204 0.930 . S
H3195 C3207 0.929 . S
H3196 C3210 0.930 . S
H3197 C3212 0.960 . S
H3198 C3212 0.960 . S
H3199 C3212 0.960 . S
C3200 H3192 0.929 . S
C3200 C3201 1.377 . S
C3200 C3202 1.384 . S
C3201 C3200 1.377 . S
C3201 C3207 1.390 . S
C3202 H3193 0.930 . S
C3202 C3200 1.384 . S
C3202 C3203 1.372 . S
C3203 C3202 1.372 . S
C3203 C3204 1.400 . S
C3203 C3208 1.490 . S
C3204 H3194 0.930 . S
C3204 C3203 1.400 . S
C3204 C3207 1.386 . S
H3205 C3221 0.930 . S
H3206 C3222 0.931 . S
C3207 H3195 0.929 . S
C3207 C3201 1.390 . S
C3207 C3204 1.386 . S
C3208 C3203 1.490 . S
C3208 C3210 1.395 . S
C3208 C3211 1.403 . S
H3209 C3215 0.930 . S
C3210 H3196 0.930 . S
C3210 C3208 1.395 . S
C3210 C3213 1.403 . S
C3211 C3208 1.403 . S
C3211 C3212 1.524 . S
C3211 C3215 1.400 . S
C3212 H3197 0.960 . S
C3212 H3198 0.960 . S
C3212 H3199 0.960 . S
C3212 C3211 1.524 . S
C3213 C3210 1.403 . S
C3213 C3214 1.392 . S
C3213 C3217 1.495 . S
C3214 C3213 1.392 . S
C3214 C3215 1.385 . S
C3214 C3216 1.478 . S
C3215 H3209 0.930 . S
C3215 C3211 1.400 . S
C3215 C3214 1.385 . S
C3216 C3214 1.478 . S
C3216 C3218 1.381 . S
C3216 C3222 1.383 . S
C3217 C3213 1.495 . S
C3217 H3223 0.959 . S
C3217 H3224 0.961 . S
C3217 H3225 0.960 . S
C3218 C3216 1.381 . S
C3218 C3219 1.394 . S
C3218 H3226 0.930 . S
C3219 C3218 1.394 . S
C3219 C3220 1.383 . S
C3219 H3227 0.929 . S
C3220 C3219 1.383 . S
C3220 C3221 1.377 . S
C3221 H3205 0.930 . S
C3221 C3220 1.377 . S
C3221 C3222 1.379 . S
C3222 H3206 0.931 . S
C3222 C3216 1.383 . S
C3222 C3221 1.379 . S
H3223 C3217 0.959 . S
H3224 C3217 0.961 . S
H3225 C3217 0.960 . S
H3226 C3218 0.930 . S
H3227 C3219 0.929 . S
H3228 C3236 0.929 . S
H3229 C3238 0.930 . S
H3230 C3240 0.930 . S
H3231 C3243 0.929 . S
H3232 C3246 0.930 . S
H3233 C3248 0.960 . S
H3234 C3248 0.960 . S
H3235 C3248 0.960 . S
C3236 H3228 0.929 . S
C3236 C3237 1.377 . S
C3236 C3238 1.384 . S
C3237 C3236 1.377 . S
C3237 C3243 1.390 . S
C3238 H3229 0.930 . S
C3238 C3236 1.384 . S
C3238 C3239 1.372 . S
C3239 C3238 1.372 . S
C3239 C3240 1.400 . S
C3239 C3244 1.490 . S
C3240 H3230 0.930 . S
C3240 C3239 1.400 . S
C3240 C3243 1.386 . S
H3241 C3257 0.930 . S
H3242 C3258 0.931 . S
C3243 H3231 0.929 . S
C3243 C3237 1.390 . S
C3243 C3240 1.386 . S
C3244 C3239 1.490 . S
C3244 C3246 1.395 . S
C3244 C3247 1.403 . S
H3245 C3251 0.930 . S
C3246 H3232 0.930 . S
C3246 C3244 1.395 . S
C3246 C3249 1.403 . S
C3247 C3244 1.403 . S
C3247 C3248 1.524 . S
C3247 C3251 1.400 . S
C3248 H3233 0.960 . S
C3248 H3234 0.960 . S
C3248 H3235 0.960 . S
C3248 C3247 1.524 . S
C3249 C3246 1.403 . S
C3249 C3250 1.392 . S
C3249 C3253 1.495 . S
C3250 C3249 1.392 . S
C3250 C3251 1.385 . S
C3250 C3252 1.478 . S
C3251 H3245 0.930 . S
C3251 C3247 1.400 . S
C3251 C3250 1.385 . S
C3252 C3250 1.478 . S
C3252 C3254 1.381 . S
C3252 C3258 1.383 . S
C3253 C3249 1.495 . S
C3253 H3259 0.959 . S
C3253 H3260 0.961 . S
C3253 H3261 0.960 . S
C3254 C3252 1.381 . S
C3254 C3255 1.394 . S
C3254 H3262 0.930 . S
C3255 C3254 1.394 . S
C3255 C3256 1.383 . S
C3255 H3263 0.929 . S
C3256 C3255 1.383 . S
C3256 C3257 1.377 . S
C3257 H3241 0.930 . S
C3257 C3256 1.377 . S
C3257 C3258 1.379 . S
C3258 H3242 0.931 . S
C3258 C3252 1.383 . S
C3258 C3257 1.379 . S
H3259 C3253 0.959 . S
H3260 C3253 0.961 . S
H3261 C3253 0.960 . S
H3262 C3254 0.930 . S
H3263 C3255 0.929 . S
H3264 C3272 0.929 . S
H3265 C3274 0.930 . S
H3266 C3276 0.930 . S
H3267 C3279 0.929 . S
H3268 C3282 0.930 . S
H3269 C3284 0.960 . S
H3270 C3284 0.960 . S
H3271 C3284 0.960 . S
C3272 H3264 0.929 . S
C3272 C3273 1.377 . S
C3272 C3274 1.384 . S
C3273 C3272 1.377 . S
C3273 C3279 1.390 . S
C3274 H3265 0.930 . S
C3274 C3272 1.384 . S
C3274 C3275 1.372 . S
C3275 C3274 1.372 . S
C3275 C3276 1.400 . S
C3275 C3280 1.490 . S
C3276 H3266 0.930 . S
C3276 C3275 1.400 . S
C3276 C3279 1.386 . S
H3277 C3293 0.930 . S
H3278 C3294 0.931 . S
C3279 H3267 0.929 . S
C3279 C3273 1.390 . S
C3279 C3276 1.386 . S
C3280 C3275 1.490 . S
C3280 C3282 1.395 . S
C3280 C3283 1.403 . S
H3281 C3287 0.930 . S
C3282 H3268 0.930 . S
C3282 C3280 1.395 . S
C3282 C3285 1.403 . S
C3283 C3280 1.403 . S
C3283 C3284 1.524 . S
C3283 C3287 1.400 . S
C3284 H3269 0.960 . S
C3284 H3270 0.960 . S
C3284 H3271 0.960 . S
C3284 C3283 1.524 . S
C3285 C3282 1.403 . S
C3285 C3286 1.392 . S
C3285 C3289 1.495 . S
C3286 C3285 1.392 . S
C3286 C3287 1.385 . S
C3286 C3288 1.478 . S
C3287 H3281 0.930 . S
C3287 C3283 1.400 . S
C3287 C3286 1.385 . S
C3288 C3286 1.478 . S
C3288 C3290 1.381 . S
C3288 C3294 1.383 . S
C3289 C3285 1.495 . S
C3289 H3295 0.959 . S
C3289 H3296 0.961 . S
C3289 H3297 0.960 . S
C3290 C3288 1.381 . S
C3290 C3291 1.394 . S
C3290 H3298 0.930 . S
C3291 C3290 1.394 . S
C3291 C3292 1.383 . S
C3291 H3299 0.929 . S
C3292 C3291 1.383 . S
C3292 C3293 1.377 . S
C3293 H3277 0.930 . S
C3293 C3292 1.377 . S
C3293 C3294 1.379 . S
C3294 H3278 0.931 . S
C3294 C3288 1.383 . S
C3294 C3293 1.379 . S
H3295 C3289 0.959 . S
H3296 C3289 0.961 . S
H3297 C3289 0.960 . S
H3298 C3290 0.930 . S
H3299 C3291 0.929 . S
H3300 C3308 0.929 . S
H3301 C3310 0.930 . S
H3302 C3312 0.930 . S
H3303 C3315 0.929 . S
H3304 C3318 0.930 . S
H3305 C3320 0.960 1_545 S
H3306 C3320 0.960 . S
H3307 C3320 0.960 . S
C3308 H3300 0.929 . S
C3308 C3309 1.377 . S
C3308 C3310 1.384 . S
C3309 C3308 1.377 . S
C3309 C3315 1.390 . S
C3310 H3301 0.930 . S
C3310 C3308 1.384 . S
C3310 C3311 1.372 . S
C3311 C3310 1.372 . S
C3311 C3312 1.400 . S
C3311 C3316 1.490 . S
C3312 H3302 0.930 . S
C3312 C3311 1.400 . S
C3312 C3315 1.386 . S
H3313 C3329 0.930 . S
H3314 C3330 0.931 . S
C3315 H3303 0.929 . S
C3315 C3309 1.390 . S
C3315 C3312 1.386 . S
C3316 C3311 1.490 . S
C3316 C3318 1.395 . S
C3316 C3319 1.403 . S
H3317 C3323 0.930 . S
C3318 H3304 0.930 . S
C3318 C3316 1.395 . S
C3318 C3321 1.403 1_565 S
C3319 C3316 1.403 . S
C3319 C3320 1.524 . S
C3319 C3323 1.400 1_565 S
C3320 H3305 0.960 1_565 S
C3320 H3306 0.960 . S
C3320 H3307 0.960 . S
C3320 C3319 1.524 . S
C3321 C3318 1.403 1_545 S
C3321 C3322 1.392 . S
C3321 C3325 1.495 . S
C3322 C3321 1.392 . S
C3322 C3323 1.385 . S
C3322 C3324 1.478 . S
C3323 H3317 0.930 . S
C3323 C3319 1.400 1_545 S
C3323 C3322 1.385 . S
C3324 C3322 1.478 . S
C3324 C3326 1.381 . S
C3324 C3330 1.383 . S
C3325 C3321 1.495 . S
C3325 H3331 0.959 1_545 S
C3325 H3332 0.961 . S
C3325 H3333 0.960 . S
C3326 C3324 1.381 . S
C3326 C3327 1.394 . S
C3326 H3334 0.930 . S
C3327 C3326 1.394 . S
C3327 C3328 1.383 . S
C3327 H3335 0.929 . S
C3328 C3327 1.383 . S
C3328 C3329 1.377 . S
C3329 H3313 0.930 . S
C3329 C3328 1.377 . S
C3329 C3330 1.379 . S
C3330 H3314 0.931 . S
C3330 C3324 1.383 . S
C3330 C3329 1.379 . S
H3331 C3325 0.959 1_565 S
H3332 C3325 0.961 . S
H3333 C3325 0.960 . S
H3334 C3326 0.930 . S
H3335 C3327 0.929 . S
H3336 C3344 0.929 . S
H3337 C3346 0.930 . S
H3338 C3348 0.930 . S
H3339 C3351 0.929 . S
H3340 C3354 0.930 . S
H3341 C3356 0.960 . S
H3342 C3356 0.960 . S
H3343 C3356 0.960 . S
C3344 H3336 0.929 . S
C3344 C3345 1.377 . S
C3344 C3346 1.384 . S
C3345 C3344 1.377 . S
C3345 C3351 1.390 . S
C3346 H3337 0.930 . S
C3346 C3344 1.384 . S
C3346 C3347 1.372 . S
C3347 C3346 1.372 . S
C3347 C3348 1.400 . S
C3347 C3352 1.490 . S
C3348 H3338 0.930 . S
C3348 C3347 1.400 . S
C3348 C3351 1.386 . S
H3349 C3365 0.930 . S
H3350 C3366 0.931 . S
C3351 H3339 0.929 . S
C3351 C3345 1.390 . S
C3351 C3348 1.386 . S
C3352 C3347 1.490 . S
C3352 C3354 1.395 . S
C3352 C3355 1.403 . S
H3353 C3359 0.930 . S
C3354 H3340 0.930 . S
C3354 C3352 1.395 . S
C3354 C3357 1.403 . S
C3355 C3352 1.403 . S
C3355 C3356 1.524 . S
C3355 C3359 1.400 . S
C3356 H3341 0.960 . S
C3356 H3342 0.960 . S
C3356 H3343 0.960 . S
C3356 C3355 1.524 . S
C3357 C3354 1.403 . S
C3357 C3358 1.392 . S
C3357 C3361 1.495 . S
C3358 C3357 1.392 . S
C3358 C3359 1.385 . S
C3358 C3360 1.478 . S
C3359 H3353 0.930 . S
C3359 C3355 1.400 . S
C3359 C3358 1.385 . S
C3360 C3358 1.478 . S
C3360 C3362 1.381 . S
C3360 C3366 1.383 . S
C3361 C3357 1.495 . S
C3361 H3367 0.959 1_545 S
C3361 H3368 0.961 1_545 S
C3361 H3369 0.960 . S
C3362 C3360 1.381 . S
C3362 C3363 1.394 . S
C3362 H3370 0.930 . S
C3363 C3362 1.394 . S
C3363 C3364 1.383 . S
C3363 H3371 0.929 . S
C3364 C3363 1.383 . S
C3364 C3365 1.377 . S
C3365 H3349 0.930 . S
C3365 C3364 1.377 . S
C3365 C3366 1.379 . S
C3366 H3350 0.931 . S
C3366 C3360 1.383 . S
C3366 C3365 1.379 . S
H3367 C3361 0.959 1_565 S
H3368 C3361 0.961 1_565 S
H3369 C3361 0.960 . S
H3370 C3362 0.930 . S
H3371 C3363 0.929 . S
H3372 C3380 0.929 . S
H3373 C3382 0.930 . S
H3374 C3384 0.930 . S
H3375 C3387 0.929 . S
H3376 C3390 0.930 . S
H3377 C3392 0.960 . S
H3378 C3392 0.960 . S
H3379 C3392 0.960 . S
C3380 H3372 0.929 . S
C3380 C3381 1.377 . S
C3380 C3382 1.384 . S
C3381 C3380 1.377 . S
C3381 C3387 1.390 . S
C3382 H3373 0.930 . S
C3382 C3380 1.384 . S
C3382 C3383 1.372 . S
C3383 C3382 1.372 . S
C3383 C3384 1.400 . S
C3383 C3388 1.490 . S
C3384 H3374 0.930 . S
C3384 C3383 1.400 . S
C3384 C3387 1.386 . S
H3385 C3401 0.930 . S
H3386 C3402 0.931 . S
C3387 H3375 0.929 . S
C3387 C3381 1.390 . S
C3387 C3384 1.386 . S
C3388 C3383 1.490 . S
C3388 C3390 1.395 . S
C3388 C3391 1.403 . S
H3389 C3395 0.930 . S
C3390 H3376 0.930 . S
C3390 C3388 1.395 . S
C3390 C3393 1.403 . S
C3391 C3388 1.403 . S
C3391 C3392 1.524 . S
C3391 C3395 1.400 . S
C3392 H3377 0.960 . S
C3392 H3378 0.960 . S
C3392 H3379 0.960 . S
C3392 C3391 1.524 . S
C3393 C3390 1.403 . S
C3393 C3394 1.392 . S
C3393 C3397 1.495 . S
C3394 C3393 1.392 . S
C3394 C3395 1.385 . S
C3394 C3396 1.478 . S
C3395 H3389 0.930 . S
C3395 C3391 1.400 . S
C3395 C3394 1.385 . S
C3396 C3394 1.478 . S
C3396 C3398 1.381 . S
C3396 C3402 1.383 . S
C3397 C3393 1.495 . S
C3397 H3403 0.959 . S
C3397 H3404 0.961 . S
C3397 H3405 0.960 . S
C3398 C3396 1.381 . S
C3398 C3399 1.394 . S
C3398 H3406 0.930 . S
C3399 C3398 1.394 . S
C3399 C3400 1.383 . S
C3399 H3407 0.929 . S
C3400 C3399 1.383 . S
C3400 C3401 1.377 . S
C3401 H3385 0.930 . S
C3401 C3400 1.377 . S
C3401 C3402 1.379 . S
C3402 H3386 0.931 . S
C3402 C3396 1.383 . S
C3402 C3401 1.379 . S
H3403 C3397 0.959 . S
H3404 C3397 0.961 . S
H3405 C3397 0.960 . S
H3406 C3398 0.930 . S
H3407 C3399 0.929 . S
H3408 C3416 0.929 . S
H3409 C3418 0.930 . S
H3410 C3420 0.930 . S
H3411 C3423 0.929 . S
H3412 C3426 0.930 . S
H3413 C3428 0.960 1_554 S
H3414 C3428 0.960 . S
H3415 C3428 0.960 . S
C3416 H3408 0.929 . S
C3416 C3417 1.377 . S
C3416 C3418 1.384 . S
C3417 C3416 1.377 . S
C3417 C3423 1.390 . S
C3418 H3409 0.930 . S
C3418 C3416 1.384 . S
C3418 C3419 1.372 . S
C3419 C3418 1.372 . S
C3419 C3420 1.400 . S
C3419 C3424 1.490 . S
C3420 H3410 0.930 . S
C3420 C3419 1.400 . S
C3420 C3423 1.386 . S
H3421 C3437 0.930 . S
H3422 C3438 0.931 . S
C3423 H3411 0.929 . S
C3423 C3417 1.390 . S
C3423 C3420 1.386 . S
C3424 C3419 1.490 . S
C3424 C3426 1.395 . S
C3424 C3427 1.403 . S
H3425 C3431 0.930 . S
C3426 H3412 0.930 . S
C3426 C3424 1.395 . S
C3426 C3429 1.403 1_556 S
C3427 C3424 1.403 . S
C3427 C3428 1.524 . S
C3427 C3431 1.400 1_556 S
C3428 H3413 0.960 1_556 S
C3428 H3414 0.960 . S
C3428 H3415 0.960 . S
C3428 C3427 1.524 . S
C3429 C3426 1.403 1_554 S
C3429 C3430 1.392 . S
C3429 C3433 1.495 . S
C3430 C3429 1.392 . S
C3430 C3431 1.385 . S
C3430 C3432 1.478 . S
C3431 H3425 0.930 . S
C3431 C3427 1.400 1_554 S
C3431 C3430 1.385 . S
C3432 C3430 1.478 . S
C3432 C3434 1.381 . S
C3432 C3438 1.383 . S
C3433 C3429 1.495 . S
C3433 H3439 0.959 1_554 S
C3433 H3440 0.961 . S
C3433 H3441 0.960 . S
C3434 C3432 1.381 . S
C3434 C3435 1.394 . S
C3434 H3442 0.930 . S
C3435 C3434 1.394 . S
C3435 C3436 1.383 . S
C3435 H3443 0.929 . S
C3436 C3435 1.383 . S
C3436 C3437 1.377 . S
C3437 H3421 0.930 . S
C3437 C3436 1.377 . S
C3437 C3438 1.379 . S
C3438 H3422 0.931 . S
C3438 C3432 1.383 . S
C3438 C3437 1.379 . S
H3439 C3433 0.959 1_556 S
H3440 C3433 0.961 . S
H3441 C3433 0.960 . S
H3442 C3434 0.930 . S
H3443 C3435 0.929 . S
H3444 C3452 0.929 . S
H3445 C3454 0.930 . S
H3446 C3456 0.930 . S
H3447 C3459 0.929 . S
H3448 C3462 0.930 . S
H3449 C3464 0.960 . S
H3450 C3464 0.960 . S
H3451 C3464 0.960 . S
C3452 H3444 0.929 . S
C3452 C3453 1.377 . S
C3452 C3454 1.384 . S
C3453 C3452 1.377 . S
C3453 C3459 1.390 . S
C3454 H3445 0.930 . S
C3454 C3452 1.384 . S
C3454 C3455 1.372 . S
C3455 C3454 1.372 . S
C3455 C3456 1.400 . S
C3455 C3460 1.490 . S
C3456 H3446 0.930 . S
C3456 C3455 1.400 . S
C3456 C3459 1.386 . S
H3457 C3473 0.930 . S
H3458 C3474 0.931 . S
C3459 H3447 0.929 . S
C3459 C3453 1.390 . S
C3459 C3456 1.386 . S
C3460 C3455 1.490 . S
C3460 C3462 1.395 . S
C3460 C3463 1.403 . S
H3461 C3467 0.930 . S
C3462 H3448 0.930 . S
C3462 C3460 1.395 . S
C3462 C3465 1.403 1_554 S
C3463 C3460 1.403 . S
C3463 C3464 1.524 . S
C3463 C3467 1.400 1_554 S
C3464 H3449 0.960 . S
C3464 H3450 0.960 . S
C3464 H3451 0.960 . S
C3464 C3463 1.524 . S
C3465 C3462 1.403 1_556 S
C3465 C3466 1.392 . S
C3465 C3469 1.495 . S
C3466 C3465 1.392 . S
C3466 C3467 1.385 . S
C3466 C3468 1.478 . S
C3467 H3461 0.930 . S
C3467 C3463 1.400 1_556 S
C3467 C3466 1.385 . S
C3468 C3466 1.478 . S
C3468 C3470 1.381 . S
C3468 C3474 1.383 . S
C3469 C3465 1.495 . S
C3469 H3475 0.959 . S
C3469 H3476 0.961 . S
C3469 H3477 0.960 . S
C3470 C3468 1.381 . S
C3470 C3471 1.394 . S
C3470 H3478 0.930 . S
C3471 C3470 1.394 . S
C3471 C3472 1.383 . S
C3471 H3479 0.929 . S
C3472 C3471 1.383 . S
C3472 C3473 1.377 . S
C3473 H3457 0.930 . S
C3473 C3472 1.377 . S
C3473 C3474 1.379 . S
C3474 H3458 0.931 . S
C3474 C3468 1.383 . S
C3474 C3473 1.379 . S
H3475 C3469 0.959 . S
H3476 C3469 0.961 . S
H3477 C3469 0.960 . S
H3478 C3470 0.930 . S
H3479 C3471 0.929 . S
H3480 C3488 0.929 . S
H3481 C3490 0.930 . S
H3482 C3492 0.930 . S
H3483 C3495 0.929 . S
H3484 C3498 0.930 . S
H3485 C3500 0.960 . S
H3486 C3500 0.960 . S
H3487 C3500 0.960 . S
C3488 H3480 0.929 . S
C3488 C3489 1.377 . S
C3488 C3490 1.384 . S
C3489 C3488 1.377 . S
C3489 C3495 1.390 . S
C3490 H3481 0.930 . S
C3490 C3488 1.384 . S
C3490 C3491 1.372 . S
C3491 C3490 1.372 . S
C3491 C3492 1.400 . S
C3491 C3496 1.490 . S
C3492 H3482 0.930 . S
C3492 C3491 1.400 . S
C3492 C3495 1.386 . S
H3493 C3509 0.930 . S
H3494 C3510 0.931 . S
C3495 H3483 0.929 . S
C3495 C3489 1.390 . S
C3495 C3492 1.386 . S
C3496 C3491 1.490 . S
C3496 C3498 1.395 . S
C3496 C3499 1.403 . S
H3497 C3503 0.930 . S
C3498 H3484 0.930 . S
C3498 C3496 1.395 . S
C3498 C3501 1.403 . S
C3499 C3496 1.403 . S
C3499 C3500 1.524 . S
C3499 C3503 1.400 . S
C3500 H3485 0.960 . S
C3500 H3486 0.960 . S
C3500 H3487 0.960 . S
C3500 C3499 1.524 . S
C3501 C3498 1.403 . S
C3501 C3502 1.392 . S
C3501 C3505 1.495 . S
C3502 C3501 1.392 . S
C3502 C3503 1.385 . S
C3502 C3504 1.478 . S
C3503 H3497 0.930 . S
C3503 C3499 1.400 . S
C3503 C3502 1.385 . S
C3504 C3502 1.478 . S
C3504 C3506 1.381 . S
C3504 C3510 1.383 . S
C3505 C3501 1.495 . S
C3505 H3511 0.959 . S
C3505 H3512 0.961 . S
C3505 H3513 0.960 . S
C3506 C3504 1.381 . S
C3506 C3507 1.394 . S
C3506 H3514 0.930 . S
C3507 C3506 1.394 . S
C3507 C3508 1.383 . S
C3507 H3515 0.929 . S
C3508 C3507 1.383 . S
C3508 C3509 1.377 . S
C3509 H3493 0.930 . S
C3509 C3508 1.377 . S
C3509 C3510 1.379 . S
C3510 H3494 0.931 . S
C3510 C3504 1.383 . S
C3510 C3509 1.379 . S
H3511 C3505 0.959 . S
H3512 C3505 0.961 . S
H3513 C3505 0.960 . S
H3514 C3506 0.930 . S
H3515 C3507 0.929 . S
H3516 C3524 0.929 . S
H3517 C3526 0.930 . S
H3518 C3528 0.930 . S
H3519 C3531 0.929 . S
H3520 C3534 0.930 . S
H3521 C3536 0.960 . S
H3522 C3536 0.960 . S
H3523 C3536 0.960 . S
C3524 H3516 0.929 . S
C3524 C3525 1.377 . S
C3524 C3526 1.384 . S
C3525 C3524 1.377 . S
C3525 C3531 1.390 . S
C3526 H3517 0.930 . S
C3526 C3524 1.384 . S
C3526 C3527 1.372 . S
C3527 C3526 1.372 . S
C3527 C3528 1.400 . S
C3527 C3532 1.490 . S
C3528 H3518 0.930 . S
C3528 C3527 1.400 . S
C3528 C3531 1.386 . S
H3529 C3545 0.930 . S
H3530 C3546 0.931 . S
C3531 H3519 0.929 . S
C3531 C3525 1.390 . S
C3531 C3528 1.386 . S
C3532 C3527 1.490 . S
C3532 C3534 1.395 . S
C3532 C3535 1.403 . S
H3533 C3539 0.930 . S
C3534 H3520 0.930 . S
C3534 C3532 1.395 . S
C3534 C3537 1.403 . S
C3535 C3532 1.403 . S
C3535 C3536 1.524 . S
C3535 C3539 1.400 . S
C3536 H3521 0.960 . S
C3536 H3522 0.960 . S
C3536 H3523 0.960 . S
C3536 C3535 1.524 . S
C3537 C3534 1.403 . S
C3537 C3538 1.392 . S
C3537 C3541 1.495 . S
C3538 C3537 1.392 . S
C3538 C3539 1.385 . S
C3538 C3540 1.478 . S
C3539 H3533 0.930 . S
C3539 C3535 1.400 . S
C3539 C3538 1.385 . S
C3540 C3538 1.478 . S
C3540 C3542 1.381 . S
C3540 C3546 1.383 . S
C3541 C3537 1.495 . S
C3541 H3547 0.959 . S
C3541 H3548 0.961 . S
C3541 H3549 0.960 . S
C3542 C3540 1.381 . S
C3542 C3543 1.394 . S
C3542 H3550 0.930 . S
C3543 C3542 1.394 . S
C3543 C3544 1.383 . S
C3543 H3551 0.929 . S
C3544 C3543 1.383 . S
C3544 C3545 1.377 . S
C3545 H3529 0.930 . S
C3545 C3544 1.377 . S
C3545 C3546 1.379 . S
C3546 H3530 0.931 . S
C3546 C3540 1.383 . S
C3546 C3545 1.379 . S
H3547 C3541 0.959 . S
H3548 C3541 0.961 . S
H3549 C3541 0.960 . S
H3550 C3542 0.930 . S
H3551 C3543 0.929 . S
H3552 C3560 0.929 . S
H3553 C3562 0.930 . S
H3554 C3564 0.930 . S
H3555 C3567 0.929 . S
H3556 C3570 0.930 . S
H3557 C3572 0.960 1_655 S
H3558 C3572 0.960 . S
H3559 C3572 0.960 . S
C3560 H3552 0.929 . S
C3560 C3561 1.377 . S
C3560 C3562 1.384 . S
C3561 C3560 1.377 . S
C3561 C3567 1.390 . S
C3562 H3553 0.930 . S
C3562 C3560 1.384 . S
C3562 C3563 1.372 . S
C3563 C3562 1.372 . S
C3563 C3564 1.400 . S
C3563 C3568 1.490 . S
C3564 H3554 0.930 . S
C3564 C3563 1.400 . S
C3564 C3567 1.386 . S
H3565 C3581 0.930 . S
H3566 C3582 0.931 . S
C3567 H3555 0.929 . S
C3567 C3561 1.390 . S
C3567 C3564 1.386 . S
C3568 C3563 1.490 . S
C3568 C3570 1.395 . S
C3568 C3571 1.403 . S
H3569 C3575 0.930 . S
C3570 H3556 0.930 . S
C3570 C3568 1.395 . S
C3570 C3573 1.403 1_455 S
C3571 C3568 1.403 . S
C3571 C3572 1.524 . S
C3571 C3575 1.400 1_455 S
C3572 H3557 0.960 1_455 S
C3572 H3558 0.960 . S
C3572 H3559 0.960 . S
C3572 C3571 1.524 . S
C3573 C3570 1.403 1_655 S
C3573 C3574 1.392 . S
C3573 C3577 1.495 . S
C3574 C3573 1.392 . S
C3574 C3575 1.385 . S
C3574 C3576 1.478 . S
C3575 H3569 0.930 . S
C3575 C3571 1.400 1_655 S
C3575 C3574 1.385 . S
C3576 C3574 1.478 . S
C3576 C3578 1.381 . S
C3576 C3582 1.383 . S
C3577 C3573 1.495 . S
C3577 H3583 0.922 1_655 S
C3577 H3584 0.961 . S
C3577 H3585 0.960 . S
C3578 C3576 1.381 . S
C3578 C3579 1.394 . S
C3578 H3586 0.930 . S
C3579 C3578 1.394 . S
C3579 C3580 1.383 . S
C3579 H3587 0.929 . S
C3580 C3579 1.383 . S
C3580 C3581 1.377 . S
C3581 H3565 0.930 . S
C3581 C3580 1.377 . S
C3581 C3582 1.379 . S
C3582 H3566 0.931 . S
C3582 C3576 1.383 . S
C3582 C3581 1.379 . S
H3583 C3577 0.922 1_455 S
H3584 C3577 0.961 . S
H3585 C3577 0.960 . S
H3586 C3578 0.930 . S
H3587 C3579 0.929 . S
H3588 C3596 0.929 . S
H3589 C3598 0.930 . S
H3590 C3600 0.930 . S
H3591 C3603 0.929 . S
H3592 C3606 0.930 . S
H3593 C3608 0.960 . S
H3594 C3608 0.960 . S
H3595 C3608 0.960 . S
C3596 H3588 0.929 . S
C3596 C3597 1.377 . S
C3596 C3598 1.384 . S
C3597 C3596 1.377 . S
C3597 C3603 1.390 . S
C3598 H3589 0.930 . S
C3598 C3596 1.384 . S
C3598 C3599 1.372 . S
C3599 C3598 1.372 . S
C3599 C3600 1.400 . S
C3599 C3604 1.490 . S
C3600 H3590 0.930 . S
C3600 C3599 1.400 . S
C3600 C3603 1.386 . S
H3601 C3617 0.930 . S
H3602 C3618 0.931 . S
C3603 H3591 0.929 . S
C3603 C3597 1.390 . S
C3603 C3600 1.386 . S
C3604 C3599 1.490 . S
C3604 C3606 1.395 . S
C3604 C3607 1.403 . S
H3605 C3611 0.930 . S
C3606 H3592 0.930 . S
C3606 C3604 1.395 . S
C3606 C3609 1.403 . S
C3607 C3604 1.403 . S
C3607 C3608 1.524 . S
C3607 C3611 1.400 . S
C3608 H3593 0.960 . S
C3608 H3594 0.960 . S
C3608 H3595 0.960 . S
C3608 C3607 1.524 . S
C3609 C3606 1.403 . S
C3609 C3610 1.392 . S
C3609 C3613 1.495 . S
C3610 C3609 1.392 . S
C3610 C3611 1.385 . S
C3610 C3612 1.478 . S
C3611 H3605 0.930 . S
C3611 C3607 1.400 . S
C3611 C3610 1.385 . S
C3612 C3610 1.478 . S
C3612 C3614 1.381 . S
C3612 C3618 1.383 . S
C3613 C3609 1.495 . S
C3613 H3619 0.959 . S
C3613 H3620 0.995 . S
C3613 H3621 0.960 . S
C3614 C3612 1.381 . S
C3614 C3615 1.394 . S
C3614 H3622 0.930 . S
C3615 C3614 1.394 . S
C3615 C3616 1.383 . S
C3615 H3623 0.929 . S
C3616 C3615 1.383 . S
C3616 C3617 1.377 . S
C3617 H3601 0.930 . S
C3617 C3616 1.377 . S
C3617 C3618 1.379 . S
C3618 H3602 0.931 . S
C3618 C3612 1.383 . S
C3618 C3617 1.379 . S
H3619 C3613 0.959 . S
H3620 C3613 0.995 . S
H3621 C3613 0.960 . S
H3622 C3614 0.930 . S
H3623 C3615 0.929 . S
H3624 C3632 0.929 . S
H3625 C3634 0.930 . S
H3626 C3636 0.930 . S
H3627 C3639 0.929 . S
H3628 C3642 0.930 . S
H3629 C3644 0.954 1_655 S
H3630 C3644 0.960 . S
H3631 C3644 0.960 . S
C3632 H3624 0.929 . S
C3632 C3633 1.377 . S
C3632 C3634 1.384 . S
C3633 C3632 1.377 . S
C3633 C3639 1.390 . S
C3634 H3625 0.930 . S
C3634 C3632 1.384 . S
C3634 C3635 1.372 . S
C3635 C3634 1.372 . S
C3635 C3636 1.400 . S
C3635 C3640 1.490 . S
C3636 H3626 0.930 . S
C3636 C3635 1.400 . S
C3636 C3639 1.386 . S
H3637 C3653 0.930 . S
H3638 C3654 0.931 . S
C3639 H3627 0.929 . S
C3639 C3633 1.390 . S
C3639 C3636 1.386 . S
C3640 C3635 1.490 . S
C3640 C3642 1.395 . S
C3640 C3643 1.403 . S
H3641 C3647 0.930 . S
C3642 H3628 0.930 . S
C3642 C3640 1.395 . S
C3642 C3645 1.403 1_545 S
C3643 C3640 1.403 . S
C3643 C3644 1.524 . S
C3643 C3647 1.400 1_545 S
C3644 H3629 0.954 1_455 S
C3644 H3630 0.960 . S
C3644 H3631 0.960 . S
C3644 C3643 1.524 . S
C3645 C3642 1.403 1_565 S
C3645 C3646 1.392 . S
C3645 C3649 1.495 . S
C3646 C3645 1.392 . S
C3646 C3647 1.385 . S
C3646 C3648 1.478 . S
C3647 H3641 0.930 . S
C3647 C3643 1.400 1_565 S
C3647 C3646 1.385 . S
C3648 C3646 1.478 . S
C3648 C3650 1.381 . S
C3648 C3654 1.383 . S
C3649 C3645 1.495 . S
C3649 H3655 0.959 . S
C3649 H3656 0.961 . S
C3649 H3657 0.960 . S
C3650 C3648 1.381 . S
C3650 C3651 1.394 . S
C3650 H3658 0.930 . S
C3651 C3650 1.394 . S
C3651 C3652 1.383 . S
C3651 H3659 0.929 . S
C3652 C3651 1.383 . S
C3652 C3653 1.377 . S
C3653 H3637 0.930 . S
C3653 C3652 1.377 . S
C3653 C3654 1.379 . S
C3654 H3638 0.931 . S
C3654 C3648 1.383 . S
C3654 C3653 1.379 . S
H3655 C3649 0.959 . S
H3656 C3649 0.961 . S
H3657 C3649 0.960 . S
H3658 C3650 0.930 . S
H3659 C3651 0.929 . S
H3660 C3668 0.929 . S
H3661 C3670 0.930 . S
H3662 C3672 0.930 . S
H3663 C3675 0.929 . S
H3664 C3678 0.930 . S
H3665 C3680 0.960 . S
H3666 C3680 0.960 . S
H3667 C3680 0.960 . S
C3668 H3660 0.929 . S
C3668 C3669 1.377 . S
C3668 C3670 1.384 . S
C3669 C3668 1.377 . S
C3669 C3675 1.390 . S
C3670 H3661 0.930 . S
C3670 C3668 1.384 . S
C3670 C3671 1.372 . S
C3671 C3670 1.372 . S
C3671 C3672 1.400 . S
C3671 C3676 1.490 . S
C3672 H3662 0.930 . S
C3672 C3671 1.400 . S
C3672 C3675 1.386 . S
H3673 C3689 0.930 . S
H3674 C3690 0.931 . S
C3675 H3663 0.929 . S
C3675 C3669 1.390 . S
C3675 C3672 1.386 . S
C3676 C3671 1.490 . S
C3676 C3678 1.395 . S
C3676 C3679 1.403 . S
H3677 C3683 0.930 . S
C3678 H3664 0.930 . S
C3678 C3676 1.395 . S
C3678 C3681 1.403 . S
C3679 C3676 1.403 . S
C3679 C3680 1.524 . S
C3679 C3683 1.400 . S
C3680 H3665 0.960 . S
C3680 H3666 0.960 . S
C3680 H3667 0.960 . S
C3680 C3679 1.524 . S
C3681 C3678 1.403 . S
C3681 C3682 1.392 . S
C3681 C3685 1.495 . S
C3682 C3681 1.392 . S
C3682 C3683 1.385 . S
C3682 C3684 1.478 . S
C3683 H3677 0.930 . S
C3683 C3679 1.400 . S
C3683 C3682 1.385 . S
C3684 C3682 1.478 . S
C3684 C3686 1.381 . S
C3684 C3690 1.383 . S
C3685 C3681 1.495 . S
C3685 H3691 0.959 . S
C3685 H3692 0.961 . S
C3685 H3693 0.960 . S
C3686 C3684 1.381 . S
C3686 C3687 1.394 . S
C3686 H3694 0.930 . S
C3687 C3686 1.394 . S
C3687 C3688 1.383 . S
C3687 H3695 0.929 . S
C3688 C3687 1.383 . S
C3688 C3689 1.377 . S
C3689 H3673 0.930 . S
C3689 C3688 1.377 . S
C3689 C3690 1.379 . S
C3690 H3674 0.931 . S
C3690 C3684 1.383 . S
C3690 C3689 1.379 . S
H3691 C3685 0.959 . S
H3692 C3685 0.961 . S
H3693 C3685 0.960 . S
H3694 C3686 0.930 . S
H3695 C3687 0.929 . S
H3696 C3704 0.929 . S
H3697 C3706 0.930 . S
H3698 C3708 0.930 . S
H3699 C3711 0.929 . S
H3700 C3714 0.930 . S
H3701 C3716 0.960 . S
H3702 C3716 0.960 . S
H3703 C3716 0.960 . S
C3704 H3696 0.929 . S
C3704 C3705 1.377 . S
C3704 C3706 1.384 . S
C3705 C3704 1.377 . S
C3705 C3711 1.390 . S
C3706 H3697 0.930 . S
C3706 C3704 1.384 . S
C3706 C3707 1.372 . S
C3707 C3706 1.372 . S
C3707 C3708 1.400 . S
C3707 C3712 1.490 . S
C3708 H3698 0.930 . S
C3708 C3707 1.400 . S
C3708 C3711 1.386 . S
H3709 C3725 0.930 . S
H3710 C3726 0.931 . S
C3711 H3699 0.929 . S
C3711 C3705 1.390 . S
C3711 C3708 1.386 . S
C3712 C3707 1.490 . S
C3712 C3714 1.395 . S
C3712 C3715 1.403 . S
H3713 C3719 0.930 . S
C3714 H3700 0.930 . S
C3714 C3712 1.395 . S
C3714 C3717 1.403 . S
C3715 C3712 1.403 . S
C3715 C3716 1.524 . S
C3715 C3719 1.400 . S
C3716 H3701 0.960 . S
C3716 H3702 0.960 . S
C3716 H3703 0.960 . S
C3716 C3715 1.524 . S
C3717 C3714 1.403 . S
C3717 C3718 1.392 . S
C3717 C3721 1.495 . S
C3718 C3717 1.392 . S
C3718 C3719 1.385 . S
C3718 C3720 1.478 . S
C3719 H3713 0.930 . S
C3719 C3715 1.400 . S
C3719 C3718 1.385 . S
C3720 C3718 1.478 . S
C3720 C3722 1.381 . S
C3720 C3726 1.383 . S
C3721 C3717 1.495 . S
C3721 H3727 0.959 . S
C3721 H3728 0.961 . S
C3721 H3729 0.960 . S
C3722 C3720 1.381 . S
C3722 C3723 1.394 . S
C3722 H3730 0.930 . S
C3723 C3722 1.394 . S
C3723 C3724 1.383 . S
C3723 H3731 0.929 . S
C3724 C3723 1.383 . S
C3724 C3725 1.377 . S
C3725 H3709 0.930 . S
C3725 C3724 1.377 . S
C3725 C3726 1.379 . S
C3726 H3710 0.931 . S
C3726 C3720 1.383 . S
C3726 C3725 1.379 . S
H3727 C3721 0.959 . S
H3728 C3721 0.961 . S
H3729 C3721 0.960 . S
H3730 C3722 0.930 . S
H3731 C3723 0.929 . S
H3732 C3740 0.929 . S
H3733 C3742 0.930 . S
H3734 C3744 0.930 . S
H3735 C3747 0.929 . S
H3736 C3750 0.930 . S
H3737 C3752 0.960 1_554 S
H3738 C3752 0.960 . S
H3739 C3752 0.960 . S
C3740 H3732 0.929 . S
C3740 C3741 1.377 . S
C3740 C3742 1.384 . S
C3741 C3740 1.377 . S
C3741 C3747 1.390 . S
C3742 H3733 0.930 . S
C3742 C3740 1.384 . S
C3742 C3743 1.372 . S
C3743 C3742 1.372 . S
C3743 C3744 1.400 . S
C3743 C3748 1.490 . S
C3744 H3734 0.930 . S
C3744 C3743 1.400 . S
C3744 C3747 1.386 . S
H3745 C3761 0.930 . S
H3746 C3762 0.931 . S
C3747 H3735 0.929 . S
C3747 C3741 1.390 . S
C3747 C3744 1.386 . S
C3748 C3743 1.490 . S
C3748 C3750 1.395 . S
C3748 C3751 1.403 . S
H3749 C3755 0.930 . S
C3750 H3736 0.930 . S
C3750 C3748 1.395 . S
C3750 C3753 1.403 1_556 S
C3751 C3748 1.403 . S
C3751 C3752 1.524 . S
C3751 C3755 1.400 1_556 S
C3752 H3737 0.960 1_556 S
C3752 H3738 0.960 . S
C3752 H3739 0.960 . S
C3752 C3751 1.524 . S
C3753 C3750 1.403 1_554 S
C3753 C3754 1.392 . S
C3753 C3757 1.495 . S
C3754 C3753 1.392 . S
C3754 C3755 1.385 . S
C3754 C3756 1.478 . S
C3755 H3749 0.930 . S
C3755 C3751 1.400 1_554 S
C3755 C3754 1.385 . S
C3756 C3754 1.478 . S
C3756 C3758 1.381 . S
C3756 C3762 1.383 . S
C3757 C3753 1.495 . S
C3757 H3763 0.959 1_554 S
C3757 H3764 0.961 . S
C3757 H3765 0.960 . S
C3758 C3756 1.381 . S
C3758 C3759 1.394 . S
C3758 H3766 0.930 . S
C3759 C3758 1.394 . S
C3759 C3760 1.383 . S
C3759 H3767 0.929 . S
C3760 C3759 1.383 . S
C3760 C3761 1.377 . S
C3761 H3745 0.930 . S
C3761 C3760 1.377 . S
C3761 C3762 1.379 . S
C3762 H3746 0.931 . S
C3762 C3756 1.383 . S
C3762 C3761 1.379 . S
H3763 C3757 0.959 1_556 S
H3764 C3757 0.961 . S
H3765 C3757 0.960 . S
H3766 C3758 0.930 . S
H3767 C3759 0.929 . S
H3768 C3776 0.929 . S
H3769 C3778 0.930 . S
H3770 C3780 0.930 . S
H3771 C3783 0.929 . S
H3772 C3786 0.930 . S
H3773 C3788 0.960 . S
H3774 C3788 0.960 . S
H3775 C3788 0.960 . S
C3776 H3768 0.929 . S
C3776 C3777 1.377 . S
C3776 C3778 1.384 . S
C3777 C3776 1.377 . S
C3777 C3783 1.390 . S
C3778 H3769 0.930 . S
C3778 C3776 1.384 . S
C3778 C3779 1.372 . S
C3779 C3778 1.372 . S
C3779 C3780 1.400 . S
C3779 C3784 1.490 . S
C3780 H3770 0.930 . S
C3780 C3779 1.400 . S
C3780 C3783 1.386 . S
H3781 C3797 0.930 . S
H3782 C3798 0.931 . S
C3783 H3771 0.929 . S
C3783 C3777 1.390 . S
C3783 C3780 1.386 . S
C3784 C3779 1.490 . S
C3784 C3786 1.395 . S
C3784 C3787 1.403 . S
H3785 C3791 0.930 . S
C3786 H3772 0.930 . S
C3786 C3784 1.395 . S
C3786 C3789 1.403 1_556 S
C3787 C3784 1.403 . S
C3787 C3788 1.524 . S
C3787 C3791 1.400 1_556 S
C3788 H3773 0.960 . S
C3788 H3774 0.960 . S
C3788 H3775 0.960 . S
C3788 C3787 1.524 . S
C3789 C3786 1.403 1_554 S
C3789 C3790 1.392 . S
C3789 C3793 1.495 . S
C3790 C3789 1.392 . S
C3790 C3791 1.385 . S
C3790 C3792 1.478 . S
C3791 H3785 0.930 . S
C3791 C3787 1.400 1_554 S
C3791 C3790 1.385 . S
C3792 C3790 1.478 . S
C3792 C3794 1.381 . S
C3792 C3798 1.383 . S
C3793 C3789 1.495 . S
C3793 H3799 0.959 . S
C3793 H3800 0.961 . S
C3793 H3801 0.960 . S
C3794 C3792 1.381 . S
C3794 C3795 1.394 . S
C3794 H3802 0.930 . S
C3795 C3794 1.394 . S
C3795 C3796 1.383 . S
C3795 H3803 0.929 . S
C3796 C3795 1.383 . S
C3796 C3797 1.377 . S
C3797 H3781 0.930 . S
C3797 C3796 1.377 . S
C3797 C3798 1.379 . S
C3798 H3782 0.931 . S
C3798 C3792 1.383 . S
C3798 C3797 1.379 . S
H3799 C3793 0.959 . S
H3800 C3793 0.961 . S
H3801 C3793 0.960 . S
H3802 C3794 0.930 . S
H3803 C3795 0.929 . S
H3804 C3812 0.929 . S
H3805 C3814 0.930 . S
H3806 C3816 0.930 . S
H3807 C3819 0.929 . S
H3808 C3822 0.930 . S
H3809 C3824 0.960 . S
H3810 C3824 0.960 . S
H3811 C3824 0.960 . S
C3812 H3804 0.929 . S
C3812 C3813 1.377 . S
C3812 C3814 1.384 . S
C3813 C3812 1.377 . S
C3813 C3819 1.390 . S
C3814 H3805 0.930 . S
C3814 C3812 1.384 . S
C3814 C3815 1.372 . S
C3815 C3814 1.372 . S
C3815 C3816 1.400 . S
C3815 C3820 1.490 . S
C3816 H3806 0.930 . S
C3816 C3815 1.400 . S
C3816 C3819 1.386 . S
H3817 C3833 0.930 . S
H3818 C3834 0.931 . S
C3819 H3807 0.929 . S
C3819 C3813 1.390 . S
C3819 C3816 1.386 . S
C3820 C3815 1.490 . S
C3820 C3822 1.395 . S
C3820 C3823 1.403 . S
H3821 C3827 0.930 . S
C3822 H3808 0.930 . S
C3822 C3820 1.395 . S
C3822 C3825 1.403 . S
C3823 C3820 1.403 . S
C3823 C3824 1.524 . S
C3823 C3827 1.400 . S
C3824 H3809 0.960 . S
C3824 H3810 0.960 . S
C3824 H3811 0.960 . S
C3824 C3823 1.524 . S
C3825 C3822 1.403 . S
C3825 C3826 1.392 . S
C3825 C3829 1.495 . S
C3826 C3825 1.392 . S
C3826 C3827 1.385 . S
C3826 C3828 1.478 . S
C3827 H3821 0.930 . S
C3827 C3823 1.400 . S
C3827 C3826 1.385 . S
C3828 C3826 1.478 . S
C3828 C3830 1.381 . S
C3828 C3834 1.383 . S
C3829 C3825 1.495 . S
C3829 H3835 0.959 . S
C3829 H3836 0.961 . S
C3829 H3837 0.960 . S
C3830 C3828 1.381 . S
C3830 C3831 1.394 . S
C3830 H3838 0.930 . S
C3831 C3830 1.394 . S
C3831 C3832 1.383 . S
C3831 H3839 0.929 . S
C3832 C3831 1.383 . S
C3832 C3833 1.377 . S
C3833 H3817 0.930 . S
C3833 C3832 1.377 . S
C3833 C3834 1.379 . S
C3834 H3818 0.931 . S
C3834 C3828 1.383 . S
C3834 C3833 1.379 . S
H3835 C3829 0.959 . S
H3836 C3829 0.961 . S
H3837 C3829 0.960 . S
H3838 C3830 0.930 . S
H3839 C3831 0.929 . S
H3840 C3848 0.929 . S
H3841 C3850 0.930 . S
H3842 C3852 0.930 . S
H3843 C3855 0.929 . S
H3844 C3858 0.930 . S
H3845 C3860 0.960 . S
H3846 C3860 0.960 . S
H3847 C3860 0.960 . S
C3848 H3840 0.929 . S
C3848 C3849 1.377 . S
C3848 C3850 1.384 . S
C3849 C3848 1.377 . S
C3849 C3855 1.390 . S
C3850 H3841 0.930 . S
C3850 C3848 1.384 . S
C3850 C3851 1.372 . S
C3851 C3850 1.372 . S
C3851 C3852 1.400 . S
C3851 C3856 1.490 . S
C3852 H3842 0.930 . S
C3852 C3851 1.400 . S
C3852 C3855 1.386 . S
H3853 C3869 0.930 . S
H3854 C3870 0.931 . S
C3855 H3843 0.929 . S
C3855 C3849 1.390 . S
C3855 C3852 1.386 . S
C3856 C3851 1.490 . S
C3856 C3858 1.395 . S
C3856 C3859 1.403 . S
H3857 C3863 0.930 . S
C3858 H3844 0.930 . S
C3858 C3856 1.395 . S
C3858 C3861 1.403 . S
C3859 C3856 1.403 . S
C3859 C3860 1.524 . S
C3859 C3863 1.400 . S
C3860 H3845 0.960 . S
C3860 H3846 0.960 . S
C3860 H3847 0.960 . S
C3860 C3859 1.524 . S
C3861 C3858 1.403 . S
C3861 C3862 1.392 . S
C3861 C3865 1.495 . S
C3862 C3861 1.392 . S
C3862 C3863 1.385 . S
C3862 C3864 1.478 . S
C3863 H3857 0.930 . S
C3863 C3859 1.400 . S
C3863 C3862 1.385 . S
C3864 C3862 1.478 . S
C3864 C3866 1.381 . S
C3864 C3870 1.383 . S
C3865 C3861 1.495 . S
C3865 H3871 0.959 . S
C3865 H3872 0.961 . S
C3865 H3873 0.960 . S
C3866 C3864 1.381 . S
C3866 C3867 1.394 . S
C3866 H3874 0.930 . S
C3867 C3866 1.394 . S
C3867 C3868 1.383 . S
C3867 H3875 0.929 . S
C3868 C3867 1.383 . S
C3868 C3869 1.377 . S
C3869 H3853 0.930 . S
C3869 C3868 1.377 . S
C3869 C3870 1.379 . S
C3870 H3854 0.931 . S
C3870 C3864 1.383 . S
C3870 C3869 1.379 . S
H3871 C3865 0.959 . S
H3872 C3865 0.961 . S
H3873 C3865 0.960 . S
H3874 C3866 0.930 . S
H3875 C3867 0.929 . S
H3876 C3884 0.929 . S
H3877 C3886 0.930 . S
H3878 C3888 0.930 . S
H3879 C3891 0.929 . S
H3880 C3894 0.930 . S
H3881 C3896 0.960 1_455 S
H3882 C3896 0.960 . S
H3883 C3896 0.960 . S
C3884 H3876 0.929 . S
C3884 C3885 1.377 . S
C3884 C3886 1.384 . S
C3885 C3884 1.377 . S
C3885 C3891 1.390 . S
C3886 H3877 0.930 . S
C3886 C3884 1.384 . S
C3886 C3887 1.372 . S
C3887 C3886 1.372 . S
C3887 C3888 1.400 . S
C3887 C3892 1.490 . S
C3888 H3878 0.930 . S
C3888 C3887 1.400 . S
C3888 C3891 1.386 . S
H3889 C3905 0.930 . S
H3890 C3906 0.931 . S
C3891 H3879 0.929 . S
C3891 C3885 1.390 . S
C3891 C3888 1.386 . S
C3892 C3887 1.490 . S
C3892 C3894 1.395 . S
C3892 C3895 1.403 . S
H3893 C3899 0.930 . S
C3894 H3880 0.930 . S
C3894 C3892 1.395 . S
C3894 C3897 1.403 1_655 S
C3895 C3892 1.403 . S
C3895 C3896 1.524 . S
C3895 C3899 1.400 1_655 S
C3896 H3881 0.960 1_655 S
C3896 H3882 0.960 . S
C3896 H3883 0.960 . S
C3896 C3895 1.524 . S
C3897 C3894 1.403 1_455 S
C3897 C3898 1.392 . S
C3897 C3901 1.495 . S
C3898 C3897 1.392 . S
C3898 C3899 1.385 . S
C3898 C3900 1.478 . S
C3899 H3893 0.930 . S
C3899 C3895 1.400 1_455 S
C3899 C3898 1.385 . S
C3900 C3898 1.478 . S
C3900 C3902 1.381 . S
C3900 C3906 1.383 . S
C3901 C3897 1.495 . S
C3901 H3907 0.959 1_455 S
C3901 H3908 0.961 . S
C3901 H3909 0.960 . S
C3902 C3900 1.381 . S
C3902 C3903 1.394 . S
C3902 H3910 0.930 . S
C3903 C3902 1.394 . S
C3903 C3904 1.383 . S
C3903 H3911 0.929 . S
C3904 C3903 1.383 . S
C3904 C3905 1.377 . S
C3905 H3889 0.930 . S
C3905 C3904 1.377 . S
C3905 C3906 1.379 . S
C3906 H3890 0.931 . S
C3906 C3900 1.383 . S
C3906 C3905 1.379 . S
H3907 C3901 0.959 1_655 S
H3908 C3901 0.961 . S
H3909 C3901 0.960 . S
H3910 C3902 0.930 . S
H3911 C3903 0.929 . S
H3912 C3920 0.929 . S
H3913 C3922 0.930 . S
H3914 C3924 0.930 . S
H3915 C3927 0.929 . S
H3916 C3930 0.930 . S
H3917 C3932 0.960 1_565 S
H3918 C3932 0.960 . S
H3919 C3932 0.960 . S
C3920 H3912 0.929 . S
C3920 C3921 1.377 . S
C3920 C3922 1.384 . S
C3921 C3920 1.377 . S
C3921 C3927 1.390 . S
C3922 H3913 0.930 . S
C3922 C3920 1.384 . S
C3922 C3923 1.372 . S
C3923 C3922 1.372 . S
C3923 C3924 1.400 . S
C3923 C3928 1.490 . S
C3924 H3914 0.930 . S
C3924 C3923 1.400 . S
C3924 C3927 1.386 . S
H3925 C3941 0.930 . S
H3926 C3942 0.931 . S
C3927 H3915 0.929 . S
C3927 C3921 1.390 . S
C3927 C3924 1.386 . S
C3928 C3923 1.490 . S
C3928 C3930 1.395 . S
C3928 C3931 1.403 . S
H3929 C3935 0.930 . S
C3930 H3916 0.930 . S
C3930 C3928 1.395 . S
C3930 C3933 1.403 1_545 S
C3931 C3928 1.403 . S
C3931 C3932 1.524 . S
C3931 C3935 1.400 1_545 S
C3932 H3917 0.960 1_545 S
C3932 H3918 0.960 . S
C3932 H3919 0.960 . S
C3932 C3931 1.524 . S
C3933 C3930 1.403 1_565 S
C3933 C3934 1.392 . S
C3933 C3937 1.495 . S
C3934 C3933 1.392 . S
C3934 C3935 1.385 . S
C3934 C3936 1.478 . S
C3935 H3929 0.930 . S
C3935 C3931 1.400 1_565 S
C3935 C3934 1.385 . S
C3936 C3934 1.478 . S
C3936 C3938 1.381 . S
C3936 C3942 1.383 . S
C3937 C3933 1.495 . S
C3937 H3943 0.959 1_565 S
C3937 H3944 0.961 . S
C3937 H3945 0.960 . S
C3938 C3936 1.381 . S
C3938 C3939 1.394 . S
C3938 H3946 0.930 . S
C3939 C3938 1.394 . S
C3939 C3940 1.383 . S
C3939 H3947 0.929 . S
C3940 C3939 1.383 . S
C3940 C3941 1.377 . S
C3941 H3925 0.930 . S
C3941 C3940 1.377 . S
C3941 C3942 1.379 . S
C3942 H3926 0.931 . S
C3942 C3936 1.383 . S
C3942 C3941 1.379 . S
H3943 C3937 0.959 1_545 S
H3944 C3937 0.961 . S
H3945 C3937 0.960 . S
H3946 C3938 0.930 . S
H3947 C3939 0.929 . S
H3948 C3956 0.929 . S
H3949 C3958 0.930 . S
H3950 C3960 0.930 . S
H3951 C3963 0.929 . S
H3952 C3966 0.930 . S
H3953 C3968 0.960 . S
H3954 C3968 0.960 . S
H3955 C3968 0.960 . S
C3956 H3948 0.929 . S
C3956 C3957 1.377 . S
C3956 C3958 1.384 . S
C3957 C3956 1.377 . S
C3957 C3963 1.390 . S
C3958 H3949 0.930 . S
C3958 C3956 1.384 . S
C3958 C3959 1.372 . S
C3959 C3958 1.372 . S
C3959 C3960 1.400 . S
C3959 C3964 1.490 . S
C3960 H3950 0.930 . S
C3960 C3959 1.400 . S
C3960 C3963 1.386 . S
H3961 C3977 0.930 . S
H3962 C3978 0.931 . S
C3963 H3951 0.929 . S
C3963 C3957 1.390 . S
C3963 C3960 1.386 . S
C3964 C3959 1.490 . S
C3964 C3966 1.395 . S
C3964 C3967 1.403 . S
H3965 C3971 0.930 . S
C3966 H3952 0.930 . S
C3966 C3964 1.395 . S
C3966 C3969 1.403 . S
C3967 C3964 1.403 . S
C3967 C3968 1.524 . S
C3967 C3971 1.400 . S
C3968 H3953 0.960 . S
C3968 H3954 0.960 . S
C3968 H3955 0.960 . S
C3968 C3967 1.524 . S
C3969 C3966 1.403 . S
C3969 C3970 1.392 . S
C3969 C3973 1.495 . S
C3970 C3969 1.392 . S
C3970 C3971 1.385 . S
C3970 C3972 1.478 . S
C3971 H3965 0.930 . S
C3971 C3967 1.400 . S
C3971 C3970 1.385 . S
C3972 C3970 1.478 . S
C3972 C3974 1.381 . S
C3972 C3978 1.383 . S
C3973 C3969 1.495 . S
C3973 H3979 0.959 . S
C3973 H3980 0.961 . S
C3973 H3981 0.960 . S
C3974 C3972 1.381 . S
C3974 C3975 1.394 . S
C3974 H3982 0.930 . S
C3975 C3974 1.394 . S
C3975 C3976 1.383 . S
C3975 H3983 0.929 . S
C3976 C3975 1.383 . S
C3976 C3977 1.377 . S
C3977 H3961 0.930 . S
C3977 C3976 1.377 . S
C3977 C3978 1.379 . S
C3978 H3962 0.931 . S
C3978 C3972 1.383 . S
C3978 C3977 1.379 . S
H3979 C3973 0.959 . S
H3980 C3973 0.961 . S
H3981 C3973 0.960 . S
H3982 C3974 0.930 . S
H3983 C3975 0.929 . S
H3984 C3992 0.929 . S
H3985 C3994 0.930 . S
H3986 C3996 0.930 . S
H3987 C3999 0.929 . S
H3988 C4002 0.930 . S
H3989 C4004 0.960 1_554 S
H3990 C4004 0.960 . S
H3991 C4004 0.960 . S
C3992 H3984 0.929 . S
C3992 C3993 1.377 . S
C3992 C3994 1.384 . S
C3993 C3992 1.377 . S
C3993 C3999 1.390 . S
C3994 H3985 0.930 . S
C3994 C3992 1.384 . S
C3994 C3995 1.372 . S
C3995 C3994 1.372 . S
C3995 C3996 1.400 . S
C3995 C4000 1.490 . S
C3996 H3986 0.930 . S
C3996 C3995 1.400 . S
C3996 C3999 1.386 . S
H3997 C4013 0.930 . S
H3998 C4014 0.931 . S
C3999 H3987 0.929 . S
C3999 C3993 1.390 . S
C3999 C3996 1.386 . S
C4000 C3995 1.490 . S
C4000 C4002 1.395 . S
C4000 C4003 1.403 . S
H4001 C4007 0.930 . S
C4002 H3988 0.930 . S
C4002 C4000 1.395 . S
C4002 C4005 1.403 1_455 S
C4003 C4000 1.403 . S
C4003 C4004 1.524 . S
C4003 C4007 1.400 1_455 S
C4004 H3989 0.960 1_556 S
C4004 H3990 0.960 . S
C4004 H3991 0.960 . S
C4004 C4003 1.524 . S
C4005 C4002 1.403 1_655 S
C4005 C4006 1.392 . S
C4005 C4009 1.495 . S
C4006 C4005 1.392 . S
C4006 C4007 1.385 . S
C4006 C4008 1.478 . S
C4007 H4001 0.930 . S
C4007 C4003 1.400 1_655 S
C4007 C4006 1.385 . S
C4008 C4006 1.478 . S
C4008 C4010 1.381 . S
C4008 C4014 1.383 . S
C4009 C4005 1.495 . S
C4009 H4015 0.959 . S
C4009 H4016 0.961 . S
C4009 H4017 0.960 . S
C4010 C4008 1.381 . S
C4010 C4011 1.394 . S
C4010 H4018 0.930 . S
C4011 C4010 1.394 . S
C4011 C4012 1.383 . S
C4011 H4019 0.929 . S
C4012 C4011 1.383 . S
C4012 C4013 1.377 . S
C4013 H3997 0.930 . S
C4013 C4012 1.377 . S
C4013 C4014 1.379 . S
C4014 H3998 0.931 . S
C4014 C4008 1.383 . S
C4014 C4013 1.379 . S
H4015 C4009 0.959 . S
H4016 C4009 0.961 . S
H4017 C4009 0.960 . S
H4018 C4010 0.930 . S
H4019 C4011 0.929 . S
H4020 C4028 0.929 . S
H4021 C4030 0.930 . S
H4022 C4032 0.930 . S
H4023 C4035 0.929 . S
H4024 C4038 0.930 . S
H4025 C4040 0.960 1_565 S
H4026 C4040 0.960 . S
H4027 C4040 0.960 . S
C4028 H4020 0.929 . S
C4028 C4029 1.377 . S
C4028 C4030 1.384 . S
C4029 C4028 1.377 . S
C4029 C4035 1.390 . S
C4030 H4021 0.930 . S
C4030 C4028 1.384 . S
C4030 C4031 1.372 . S
C4031 C4030 1.372 . S
C4031 C4032 1.400 . S
C4031 C4036 1.490 . S
C4032 H4022 0.930 . S
C4032 C4031 1.400 . S
C4032 C4035 1.386 . S
H4033 C4049 0.930 . S
H4034 C4050 0.931 . S
C4035 H4023 0.929 . S
C4035 C4029 1.390 . S
C4035 C4032 1.386 . S
C4036 C4031 1.490 . S
C4036 C4038 1.395 . S
C4036 C4039 1.403 . S
H4037 C4043 0.930 . S
C4038 H4024 0.930 . S
C4038 C4036 1.395 . S
C4038 C4041 1.403 1_545 S
C4039 C4036 1.403 . S
C4039 C4040 1.524 . S
C4039 C4043 1.400 1_545 S
C4040 H4025 0.960 1_545 S
C4040 H4026 0.960 . S
C4040 H4027 0.960 . S
C4040 C4039 1.524 . S
C4041 C4038 1.403 1_565 S
C4041 C4042 1.392 . S
C4041 C4045 1.495 . S
C4042 C4041 1.392 . S
C4042 C4043 1.385 . S
C4042 C4044 1.478 . S
C4043 H4037 0.930 . S
C4043 C4039 1.400 1_565 S
C4043 C4042 1.385 . S
C4044 C4042 1.478 . S
C4044 C4046 1.381 . S
C4044 C4050 1.383 . S
C4045 C4041 1.495 . S
C4045 H4051 0.959 1_565 S
C4045 H4052 0.961 . S
C4045 H4053 0.960 . S
C4046 C4044 1.381 . S
C4046 C4047 1.394 . S
C4046 H4054 0.930 . S
C4047 C4046 1.394 . S
C4047 C4048 1.383 . S
C4047 H4055 0.929 . S
C4048 C4047 1.383 . S
C4048 C4049 1.377 . S
C4049 H4033 0.930 . S
C4049 C4048 1.377 . S
C4049 C4050 1.379 . S
C4050 H4034 0.931 . S
C4050 C4044 1.383 . S
C4050 C4049 1.379 . S
H4051 C4045 0.959 1_545 S
H4052 C4045 0.961 . S
H4053 C4045 0.960 . S
H4054 C4046 0.930 . S
H4055 C4047 0.929 . S
H4056 C4064 0.929 . S
H4057 C4066 0.930 . S
H4058 C4068 0.930 . S
H4059 C4071 0.929 . S
H4060 C4074 0.930 . S
H4061 C4076 0.960 . S
H4062 C4076 0.960 . S
H4063 C4076 0.960 . S
C4064 H4056 0.929 . S
C4064 C4065 1.377 . S
C4064 C4066 1.384 . S
C4065 C4064 1.377 . S
C4065 C4071 1.390 . S
C4066 H4057 0.930 . S
C4066 C4064 1.384 . S
C4066 C4067 1.372 . S
C4067 C4066 1.372 . S
C4067 C4068 1.400 . S
C4067 C4072 1.490 . S
C4068 H4058 0.930 . S
C4068 C4067 1.400 . S
C4068 C4071 1.386 . S
H4069 C4085 0.930 . S
H4070 C4086 0.931 . S
C4071 H4059 0.929 . S
C4071 C4065 1.390 . S
C4071 C4068 1.386 . S
C4072 C4067 1.490 . S
C4072 C4074 1.395 . S
C4072 C4075 1.403 . S
H4073 C4079 0.930 . S
C4074 H4060 0.930 . S
C4074 C4072 1.395 . S
C4074 C4077 1.403 . S
C4075 C4072 1.403 . S
C4075 C4076 1.524 . S
C4075 C4079 1.400 . S
C4076 H4061 0.960 . S
C4076 H4062 0.960 . S
C4076 H4063 0.960 . S
C4076 C4075 1.524 . S
C4077 C4074 1.403 . S
C4077 C4078 1.392 . S
C4077 C4081 1.495 . S
C4078 C4077 1.392 . S
C4078 C4079 1.385 . S
C4078 C4080 1.478 . S
C4079 H4073 0.930 . S
C4079 C4075 1.400 . S
C4079 C4078 1.385 . S
C4080 C4078 1.478 . S
C4080 C4082 1.381 . S
C4080 C4086 1.383 . S
C4081 C4077 1.495 . S
C4081 H4087 0.959 . S
C4081 H4088 0.961 . S
C4081 H4089 0.960 . S
C4082 C4080 1.381 . S
C4082 C4083 1.394 . S
C4082 H4090 0.930 . S
C4083 C4082 1.394 . S
C4083 C4084 1.383 . S
C4083 H4091 0.929 . S
C4084 C4083 1.383 . S
C4084 C4085 1.377 . S
C4085 H4069 0.930 . S
C4085 C4084 1.377 . S
C4085 C4086 1.379 . S
C4086 H4070 0.931 . S
C4086 C4080 1.383 . S
C4086 C4085 1.379 . S
H4087 C4081 0.959 . S
H4088 C4081 0.961 . S
H4089 C4081 0.960 . S
H4090 C4082 0.930 . S
H4091 C4083 0.929 . S
H4092 C4100 0.929 . S
H4093 C4102 0.930 . S
H4094 C4104 0.930 . S
H4095 C4107 0.929 . S
H4096 C4110 0.930 . S
H4097 C4112 0.960 . S
H4098 C4112 0.960 . S
H4099 C4112 0.960 . S
C4100 H4092 0.929 . S
C4100 C4101 1.377 . S
C4100 C4102 1.384 . S
C4101 C4100 1.377 . S
C4101 C4107 1.390 . S
C4102 H4093 0.930 . S
C4102 C4100 1.384 . S
C4102 C4103 1.372 . S
C4103 C4102 1.372 . S
C4103 C4104 1.400 . S
C4103 C4108 1.490 . S
C4104 H4094 0.930 . S
C4104 C4103 1.400 . S
C4104 C4107 1.386 . S
H4105 C4121 0.930 . S
H4106 C4122 0.931 . S
C4107 H4095 0.929 . S
C4107 C4101 1.390 . S
C4107 C4104 1.386 . S
C4108 C4103 1.490 . S
C4108 C4110 1.395 . S
C4108 C4111 1.403 . S
H4109 C4115 0.930 . S
C4110 H4096 0.930 . S
C4110 C4108 1.395 . S
C4110 C4113 1.403 1_455 S
C4111 C4108 1.403 . S
C4111 C4112 1.524 . S
C4111 C4115 1.400 1_455 S
C4112 H4097 0.960 . S
C4112 H4098 0.960 . S
C4112 H4099 0.960 . S
C4112 C4111 1.524 . S
C4113 C4110 1.403 1_655 S
C4113 C4114 1.392 . S
C4113 C4117 1.495 . S
C4114 C4113 1.392 . S
C4114 C4115 1.385 . S
C4114 C4116 1.478 . S
C4115 H4109 0.930 . S
C4115 C4111 1.400 1_655 S
C4115 C4114 1.385 . S
C4116 C4114 1.478 . S
C4116 C4118 1.381 . S
C4116 C4122 1.383 . S
C4117 C4113 1.495 . S
C4117 H4123 0.959 . S
C4117 H4124 0.961 . S
C4117 H4125 0.960 . S
C4118 C4116 1.381 . S
C4118 C4119 1.394 . S
C4118 H4126 0.930 . S
C4119 C4118 1.394 . S
C4119 C4120 1.383 . S
C4119 H4127 0.929 . S
C4120 C4119 1.383 . S
C4120 C4121 1.377 . S
C4121 H4105 0.930 . S
C4121 C4120 1.377 . S
C4121 C4122 1.379 . S
C4122 H4106 0.931 . S
C4122 C4116 1.383 . S
C4122 C4121 1.379 . S
H4123 C4117 0.959 . S
H4124 C4117 0.961 . S
H4125 C4117 0.960 . S
H4126 C4118 0.930 . S
H4127 C4119 0.929 . S
C681 C22 1.704 . S
C700 C8 1.711 . S
C717 C36 1.708 . S
C736 C50 1.697 . S
C753 C92 1.709 . S
C772 C64 1.709 . S
C789 C106 1.703 . S
C808 C78 1.690 . S
C825 C120 1.709 . S
C844 C484 1.711 . S
C861 C134 1.709 . S
C880 C162 1.714 . S
C897 C456 1.708 . S
C916 C148 1.715 . S
C933 C190 1.702 . S
C952 C176 1.718 . S
C969 C218 1.703 . S
C988 C204 1.716 . S
C1005 C260 1.704 . S
C1024 C232 1.708 . S
C1041 C274 1.704 . S
C1060 C246 1.712 . S
C1077 C288 1.708 . S
C1096 C652 1.690 . S
C1113 C302 1.706 . S
C1132 C330 1.700 . S
C1149 C624 1.704 . S
C1168 C316 1.710 . S
C1185 C344 1.702 . S
C1204 C358 1.694 . S
C1221 C386 1.703 . S
C1240 C372 1.688 . S
C1257 C400 1.703 . S
C1276 C428 1.686 . S
C1293 C442 1.708 . S
C1312 C414 1.700 . S
C1329 C498 1.708 . S
C1348 C470 1.699 . S
C1365 C526 1.708 . S
C1384 C512 1.689 . S
C1401 C540 1.704 . S
C1420 C554 1.709 . S
C1437 C596 1.703 . S
C1456 C568 1.715 . S
C1473 C582 1.703 . S
C1492 C610 1.714 . S
C1509 C638 1.704 . S
C1528 C666 1.711 . S
C1545 C619 1.214 . S
C1564 C7 1.160 . S
C1581 C325 1.220 . S
C1600 C21 1.208 . S
C1617 C633 1.219 . S
C1636 C35 1.160 . S
C1653 C49 1.184 . S
C1672 C647 1.218 . S
C1689 C63 1.194 . S
C1708 C507 1.235 . S
C1725 C521 1.211 . S
C1744 C77 1.196 . S
C1761 C91 1.185 . S
C1780 C535 1.205 . S
C1797 C549 1.211 . S
C1816 C105 1.191 . S
C1833 C563 1.211 . S
C1852 C119 1.193 . S
C1869 C133 1.185 . S
C1888 C591 1.207 . S
C1905 C605 1.216 . S
C1924 C147 1.222 . S
C1941 C161 1.194 . S
C1960 C241 1.233 . S
C1977 C175 1.189 . S
C1996 C451 1.214 . S
C2013 C189 1.198 . S
C2032 C157 1.231 . S
C2049 C203 1.192 . S
C2068 C465 1.226 . S
C2085 C217 1.187 . S
C2104 C479 1.191 . S
C2121 C339 1.216 . S
C2140 C231 1.203 . S
C2157 C353 1.220 . S
C2176 C245 1.209 . S
C2193 C259 1.187 . S
C2212 C367 1.207 . S
C2229 C273 1.191 . S
C2248 C381 1.202 . S
C2265 C287 1.195 . S
C2284 C395 1.214 . S
C2301 C301 1.196 . S
C2320 C423 1.220 . S
C2337 C437 1.213 . S
C2356 C315 1.160 . S
C2373 C73 1.219 . S
C2392 C329 1.194 . S
C2409 C343 1.193 . S
C2428 C283 1.235 . S
C2445 C357 1.192 . S
C2464 C661 1.237 . S
C2481 C371 1.195 . S
C2500 C297 1.192 . S
C2517 C385 1.198 . S
C2536 C311 1.225 . S
C2553 C171 1.217 . S
C2572 C399 1.221 . S
C2589 C413 1.190 . S
C2608 C185 1.191 . S
C2625 C199 1.217 . S
C2644 C427 1.155 . S
C2661 C213 1.212 . S
C2680 C441 1.176 . S
C2697 C227 1.219 . S
C2716 C455 1.161 . S
C2733 C255 1.218 . S
C2752 C469 1.218 . S
C2769 C483 1.198 . S
C2788 C269 1.201 . S
C2805 C497 1.198 . S
C2824 C577 1.203 . S
C2841 C115 1.217 . S
C2860 C511 1.181 . S
C2877 C525 1.185 . S
C2896 C493 1.196 . S
C2913 C539 1.184 . S
C2932 C129 1.191 . S
C2949 C143 1.213 . S
C2968 C553 1.158 . S
C2985 C567 1.184 . S
C3004 C3 1.193 . S
C3021 C581 1.197 . S
C3040 C17 1.223 . S
C3057 C31 1.213 . S
C3076 C595 1.157 . S
C3093 C609 1.189 . S
C3112 C45 1.196 . S
C3129 C623 1.191 . S
C3148 C59 1.200 . S
C3165 C87 1.212 . S
C3184 C637 1.155 . S
C3201 C651 1.187 . S
C3220 C101 1.192 . S
C3237 C409 1.219 . S
C3256 C665 1.220 . S
C3273 C37 0.725 . S
C3292 C9 0.759 . S
C3309 C51 0.745 . S
C3328 C23 0.764 . S
C3345 C443 0.730 . S
C3364 C65 0.782 . S
C3381 C429 0.742 . S
C3400 C79 0.785 . S
C3417 C415 0.745 . S
C3436 C93 0.743 . S
C3453 C107 0.721 . S
C3472 C401 0.711 . S
C3489 C121 0.727 . S
C3508 C499 0.676 . S
C3525 C149 0.745 . S
C3544 C135 0.739 . S
C3561 C163 0.740 . S
C3580 C457 0.789 . S
C3597 C205 0.721 . S
C3616 C177 0.790 . S
C3633 C219 0.745 . S
C3652 C191 0.674 . S
C3669 C611 0.722 . S
C3688 C233 0.782 . S
C3705 C597 0.745 . S
C3724 C247 0.674 . S
C3741 C261 0.721 . S
C3760 C583 0.789 . S
C3777 C275 0.726 . S
C3796 C569 0.780 . S
C3813 C667 0.743 . S
C3832 C289 0.698 . S
C3849 C317 0.728 . S
C3868 C303 0.744 . S
C3885 C331 0.726 . S
C3904 C625 0.755 . S
C3921 C373 0.745 . S
C3940 C345 0.758 . S
C3957 C359 0.741 . S
C3976 C387 0.787 . S
C3993 C485 0.735 . S
C4012 C471 0.680 . S
C4029 C513 0.728 . S
C4048 C541 0.744 . S
C4065 C527 0.736 . S
C4084 C555 0.707 . S
C4101 C639 0.745 . S
C4120 C653 0.676 . S
