# Generated by pormake.
# Topology ilc, (8)-cn, num edge types: 1
# Building blocks:
#     Node 0, Type 0, BuildingBlock: OLANEW_clean_sbu_1, # of connection points: 8
#     Node 1, Type 0, BuildingBlock: OLANEW_clean_sbu_1, # of connection points: 8
#     Node 2, Type 0, BuildingBlock: OLANEW_clean_sbu_1, # of connection points: 8
#     Edge 3, Type (0, 0), BuildingBlock: ZUJKAS_clean_linker_0, # of connection points: 2
#     Edge 4, Type (0, 0), BuildingBlock: ZUJKAS_clean_linker_0, # of connection points: 2
#     Edge 5, Type (0, 0), BuildingBlock: ZUJKAS_clean_linker_0, # of connection points: 2
#     Edge 6, Type (0, 0), BuildingBlock: ZUJKAS_clean_linker_0, # of connection points: 2
#     Edge 7, Type (0, 0), BuildingBlock: ZUJKAS_clean_linker_0, # of connection points: 2
#     Edge 8, Type (0, 0), BuildingBlock: ZUJKAS_clean_linker_0, # of connection points: 2
#     Edge 9, Type (0, 0), BuildingBlock: ZUJKAS_clean_linker_0, # of connection points: 2
#     Edge 10, Type (0, 0), BuildingBlock: ZUJKAS_clean_linker_0, # of connection points: 2
#     Edge 11, Type (0, 0), BuildingBlock: ZUJKAS_clean_linker_0, # of connection points: 2
#     Edge 12, Type (0, 0), BuildingBlock: ZUJKAS_clean_linker_0, # of connection points: 2
#     Edge 13, Type (0, 0), BuildingBlock: ZUJKAS_clean_linker_0, # of connection points: 2
#     Edge 14, Type (0, 0), BuildingBlock: ZUJKAS_clean_linker_0, # of connection points: 2
# Relax obj value: 0.071
# Max RMSD: 0.109
# Mean RMSD: 0.109
data_MOF--net-ilc--node1-OLANEW_clean_sbu_1--edge1-ZUJKAS_clean_linker_0
_symmetry_space_group_name_H-M    P1
_symmetry_Int_Tables_number       1
_symmetry_cell_setting            triclinic
loop_
_symmetry_equiv_pos_as_xyz
'x, y, z'
_cell_length_a     23.208075
_cell_length_b     34.882723
_cell_length_c     28.242984
_cell_angle_alpha  110.84874
_cell_angle_beta   92.040227
_cell_angle_gamma 140.9271
loop_
_atom_site_label
_atom_site_type_symbol
_atom_site_fract_x
_atom_site_fract_y
_atom_site_fract_z
_atom_type_partial_charge
Cd0 Cd 0.97076 0.907 0.09921 0.0
Cd1 Cd 0.93962 0.94863 0.06582 0.0
C2 C 0.12967 0.13387 0.09679 0.0
Cd3 Cd 0.22732 0.228 0.90177 0.0
Cd4 Cd 0.1586 0.08339 0.99533 0.0
C5 C 0.12489 0.25653 0.91272 0.0
O6 O 0.22888 0.3265 0.94485 0.0
O7 O 0.80805 0.82795 0.10333 0.0
O8 O 0.8517 0.91732 0.12504 0.0
O9 O 0.16149 0.15942 0.79554 0.0
O10 O 0.18538 0.16554 0.07443 0.0
O11 O 0.06965 0.06732 0.07545 0.0
C12 C 0.23204 0.13873 0.90893 0.0
O13 O 0.09434 0.20189 0.89706 0.0
C14 C 0.13309 0.03607 0.24162 0.0
O15 O 0.16452 0.01675 0.2291 0.0
O16 O 0.21643 0.16654 0.9324 0.0
O17 O 0.2147 0.10033 0.922 0.0
C18 C 0.94025 0.89025 0.95111 0.0
O19 O 0.07337 0.01587 0.19926 0.0
O20 O 0.88357 0.85677 0.97238 0.0
O21 O 1.01168 0.96082 0.97973 0.0
C22 C 0.80163 0.86237 0.12648 0.0
O23 O 0.0317 0.87884 0.12238 0.0
C24 C 0.07231 0.11688 0.75601 0.0
O25 O 0.01365 0.10957 0.77234 0.0
C26 C 0.97738 0.8349 0.13728 0.0
O27 O 0.88802 0.80093 0.12981 0.0
Cd28 Cd 0.46319 0.10552 0.43397 0.0
Cd29 Cd 0.56422 0.28327 0.37821 0.0
C30 C 0.74405 0.46296 0.40288 0.0
Cd31 Cd 0.66603 0.41454 0.22587 0.0
Cd32 Cd 0.7151 0.39142 0.27794 0.0
C33 C 0.67318 0.49838 0.1973 0.0
O34 O 0.77056 0.54136 0.21597 0.0
O35 O 0.49325 0.18728 0.42768 0.0
O36 O 0.52075 0.2696 0.45595 0.0
O37 O 0.58737 0.31842 0.12569 0.0
O38 O 0.78342 0.489 0.37388 0.0
O39 O 0.68223 0.39569 0.38029 0.0
C40 C 0.85821 0.47835 0.21992 0.0
O41 O 0.60754 0.44349 0.20079 0.0
C42 C 0.61106 0.22552 0.57801 0.0
O43 O 0.66754 0.27173 0.56329 0.0
O44 O 0.84213 0.50691 0.23716 0.0
O45 O 0.81263 0.42609 0.22414 0.0
C46 C 0.5774 0.22783 0.26886 0.0
O47 O 0.52126 0.15359 0.53726 0.0
O48 O 0.53935 0.20301 0.29873 0.0
O49 O 0.62186 0.28799 0.28406 0.0
C50 C 0.49365 0.22341 0.46127 0.0
O51 O 0.60765 0.14418 0.44099 0.0
C52 C 0.53432 0.30149 0.08235 0.0
O53 O 0.49734 0.3168 0.09172 0.0
C54 C 0.58625 0.09575 0.43471 0.0
O55 O 0.48454 0.02466 0.40651 0.0
Cd56 Cd 0.31281 0.58808 0.75896 0.0
Cd57 Cd 0.28332 0.63622 0.72371 0.0
C58 C 0.4864 0.82128 0.78092 0.0
Cd59 Cd 0.24545 0.64046 0.46513 0.0
Cd60 Cd 0.53632 0.7882 0.68254 0.0
C61 C 0.31084 0.76718 0.48275 0.0
O62 O 0.39743 0.79643 0.49311 0.0
O63 O 0.14032 0.50076 0.7514 0.0
O64 O 0.19024 0.59396 0.77862 0.0
O65 O 0.25345 0.62107 0.37417 0.0
O66 O 0.5257 0.84673 0.75171 0.0
O67 O 0.46464 0.77295 0.77592 0.0
C68 C 0.50958 0.78 0.56281 0.0
O69 O 0.23074 0.70427 0.475 0.0
C70 C 0.46534 0.71049 0.9027 0.0
O71 O 0.50071 0.69427 0.8897 0.0
O72 O 0.41374 0.72843 0.55178 0.0
O73 O 0.58378 0.81974 0.61291 0.0
C74 C 0.29746 0.57841 0.60883 0.0
O75 O 0.40324 0.68901 0.8607 0.0
O76 O 0.24049 0.55177 0.63205 0.0
O77 O 0.3789 0.64987 0.63384 0.0
C78 C 0.13563 0.53597 0.77635 0.0
O79 O 0.36401 0.55406 0.78274 0.0
C80 C 0.22455 0.63028 0.34686 0.0
O81 O 0.2546 0.62058 0.37429 0.0
C82 C 0.29786 0.49797 0.78488 0.0
O83 O 0.19985 0.45407 0.76575 0.0
H84 H 0.13518 0.08381 0.70226 0.0
H85 H 0.11882 0.05529 0.60616 0.0
H86 H 0.91138 0.03502 0.56805 0.0
H87 H 0.93491 0.06957 0.6668 0.0
H88 H 0.97922 0.95225 0.49529 0.0
H89 H 0.14374 0.20362 0.5597 0.0
H90 H 0.13251 0.18113 0.61034 0.0
H91 H 0.01569 0.12895 0.55231 0.0
C92 C 0.08728 0.07414 0.67364 0.0
C93 C 0.04146 0.08296 0.69312 0.0
C94 C 0.07653 0.05676 0.61835 0.0
C95 C 0.01817 0.04677 0.58114 0.0
C96 C 0.96111 0.04622 0.59736 0.0
H97 H 0.02226 0.03698 0.26918 0.0
H98 H 0.98869 0.03643 0.35004 0.0
C99 C 0.97362 0.06509 0.65345 0.0
C100 C 0.02567 0.04345 0.52843 0.0
H101 H 0.11176 0.1376 0.46854 0.0
C102 C 1.00753 0.99246 0.48921 0.0
C103 C 0.06359 0.0965 0.52089 0.0
C104 C 0.09102 0.15611 0.56332 0.0
C105 C 0.02878 0.99422 0.44363 0.0
C106 C 0.06766 0.04777 0.43659 0.0
C107 C 0.08186 0.09669 0.47422 0.0
C108 C 0.09528 0.05469 0.39086 0.0
C109 C 1.01083 0.93944 0.40424 0.0
C110 C 0.17092 0.06955 0.38915 0.0
C111 C 0.18958 0.06913 0.34271 0.0
C112 C 0.13415 0.05526 0.29782 0.0
C113 C 0.06549 0.04712 0.30271 0.0
C114 C 0.04574 0.04638 0.34869 0.0
H115 H 0.08837 0.96917 0.4217 0.0
H116 H 0.953 0.88885 0.40413 0.0
H117 H 0.98055 0.91923 0.35757 0.0
H118 H 0.21287 0.07901 0.42269 0.0
H119 H 0.24372 0.07629 0.3406 0.0
H120 H 0.55698 0.15238 0.62439 0.0
H121 H 0.59556 0.19568 0.72551 0.0
H122 H 0.78931 0.41303 0.77624 0.0
H123 H 0.75015 0.36937 0.67417 0.0
H124 H 0.74007 0.29436 0.83207 0.0
H125 H 0.58047 0.35425 0.81207 0.0
H126 H 0.58849 0.3199 0.75257 0.0
H127 H 0.70758 0.41864 0.81753 0.0
C128 C 0.6079 0.20945 0.65711 0.0
C129 C 0.64731 0.25647 0.64108 0.0
C130 C 0.62991 0.23427 0.71501 0.0
C131 C 0.68923 0.30568 0.75757 0.0
C132 C 0.73831 0.35604 0.74335 0.0
H133 H 0.70704 0.42839 0.09351 0.0
H134 H 0.75613 0.43772 0.01852 0.0
C135 C 0.71676 0.33133 0.68519 0.0
C136 C 0.69015 0.32257 0.81401 0.0
H137 H 0.6099 0.35606 0.89346 0.0
C138 C 0.71172 0.308 0.84534 0.0
C139 C 0.65467 0.3416 0.83222 0.0
C140 C 0.63071 0.35895 0.80167 0.0
C141 C 0.69215 0.30691 0.89147 0.0
C142 C 0.65164 0.32192 0.90726 0.0
C143 C 0.63776 0.34221 0.87944 0.0
C144 C 0.62113 0.31547 0.95192 0.0
C145 C 0.71168 0.28722 0.92154 0.0
C146 C 0.52715 0.24317 0.93829 0.0
C147 C 0.49777 0.23755 0.98075 0.0
C148 C 0.56278 0.3043 0.03698 0.0
C149 C 0.65641 0.37632 0.0503 0.0
C150 C 0.68483 0.38181 0.00783 0.0
H151 H 0.7747 0.30273 0.91947 0.0
H152 H 0.73617 0.31664 0.96885 0.0
H153 H 0.63579 0.22449 0.89824 0.0
H154 H 0.47627 0.19138 0.89471 0.0
H155 H 0.42467 0.1816 0.96972 0.0
H156 H 0.58329 0.7544 1.00091 0.0
H157 H 0.55334 0.75383 0.08276 0.0
H158 H 0.32008 0.70483 0.01375 0.0
H159 H 0.3516 0.70768 0.93251 0.0
H160 H 0.44423 0.8028 0.13793 0.0
H161 H 0.28072 0.54727 0.04463 0.0
H162 H 0.41593 0.63029 0.06279 0.0
H163 H 0.30708 0.58475 0.00426 0.0
C164 C 0.52782 0.74564 0.00394 0.0
C165 C 0.46837 0.72975 0.95956 0.0
C166 C 0.51042 0.74484 0.05054 0.0
C167 C 0.43263 0.72721 0.05315 0.0
C168 C 0.37974 0.71775 0.012 0.0
H169 H 0.1658 0.64586 0.28167 0.0
H170 H 0.21289 0.66926 0.20926 0.0
C171 C 0.39793 0.71943 0.96565 0.0
C172 C 0.40067 0.71281 0.09587 0.0
H173 H 0.29665 0.59739 0.13521 0.0
C174 C 0.41178 0.75792 0.1376 0.0
C175 C 0.35769 0.65378 0.09468 0.0
C176 C 0.33848 0.60065 0.04882 0.0
C177 C 0.38358 0.74699 0.17957 0.0
C178 C 0.34113 0.68806 0.17873 0.0
C179 C 0.32988 0.64295 0.1365 0.0
C180 C 0.30879 0.67177 0.22107 0.0
C181 C 0.40193 0.80001 0.22436 0.0
C182 C 0.34015 0.65975 0.24855 0.0
C183 C 0.30805 0.64199 0.28691 0.0
C184 C 0.24739 0.63879 0.30055 0.0
C185 C 0.21358 0.64884 0.27218 0.0
C186 C 0.24209 0.66357 0.23171 0.0
H187 H 0.47243 0.85765 0.23509 0.0
H188 H 0.33024 0.77626 0.20455 0.0
H189 H 0.41528 0.80707 0.26655 0.0
H190 H 0.39044 0.66467 0.24078 0.0
H191 H 0.3324 0.63209 0.30657 0.0
H192 H 0.12892 0.70423 0.438 0.0
H193 H 0.09867 0.73848 0.39176 0.0
H194 H 0.43158 0.93093 0.44424 0.0
H195 H 0.46321 0.89695 0.48998 0.0
H196 H 0.21205 0.88577 0.4343 0.0
H197 H 0.24258 0.77824 0.25498 0.0
H198 H 0.22448 0.75736 0.30755 0.0
H199 H 0.35348 0.85106 0.33071 0.0
C200 C 0.19654 0.75493 0.44098 0.0
C201 C 0.2981 0.79715 0.46683 0.0
C202 C 0.17903 0.7744 0.41456 0.0
C203 C 0.26274 0.83644 0.41385 0.0
C204 C 0.36606 0.88227 0.44371 0.0
H205 H 0.1799 0.92257 0.18264 0.0
H206 H 0.26185 0.93185 0.25333 0.0
C207 C 0.38377 0.86279 0.46995 0.0
C208 C 0.23856 0.84755 0.37625 0.0
H209 H 0.19648 0.81604 0.24191 0.0
C210 C 0.20963 0.87133 0.39254 0.0
C211 C 0.23622 0.82899 0.32201 0.0
C212 C 0.26521 0.80205 0.30228 0.0
C213 C 0.17584 0.87534 0.35509 0.0
C214 C 0.16835 0.85308 0.29949 0.0
C215 C 0.20171 0.8325 0.28442 0.0
C216 C 0.11846 0.84536 0.25466 0.0
C217 C 0.14739 0.90264 0.37496 0.0
C218 C 1.00995 0.79185 0.23067 0.0
C219 C 0.96296 0.7862 0.19036 0.0
C220 C 0.0234 0.83361 0.1729 0.0
C221 C 0.131 0.88496 0.195 0.0
C222 C 0.17814 0.89067 0.23558 0.0
H223 H 0.1861 0.93778 0.42426 0.0
H224 H 0.17222 0.93711 0.36054 0.0
H225 H 0.0588 0.85223 0.3545 0.0
H226 H 0.96202 0.75528 0.24397 0.0
H227 H 0.88007 0.74617 0.17425 0.0
H228 H 0.13009 0.4227 0.54288 0.0
H229 H 0.09175 0.34088 0.45412 0.0
H230 H 0.36611 0.53666 0.46169 0.0
H231 H 0.40512 0.6187 0.54998 0.0
H232 H 0.05549 0.31743 0.34024 0.0
H233 H 0.415 0.444 0.46171 0.0
H234 H 0.36202 0.45419 0.49917 0.0
H235 H 0.44244 0.51256 0.47557 0.0
C236 C 0.18228 0.44839 0.52567 0.0
C237 C 0.27135 0.52756 0.55405 0.0
C238 C 0.16009 0.40149 0.47489 0.0
C239 C 0.22703 0.43294 0.4519 0.0
C240 C 0.3145 0.51145 0.47931 0.0
H241 H 0.26409 0.2808 0.15789 0.0
H242 H 0.27999 0.34863 0.24237 0.0
C243 C 0.33648 0.55825 0.52978 0.0
C244 C 0.20644 0.38421 0.39947 0.0
H245 H 0.31902 0.36174 0.35585 0.0
C246 C 0.11246 0.32653 0.34367 0.0
C247 C 0.28082 0.39609 0.40414 0.0
C248 C 0.38036 0.45456 0.4634 0.0
C249 C 0.09277 0.28206 0.29207 0.0
C250 C 0.16855 0.29539 0.29667 0.0
C251 C 0.26141 0.35205 0.35255 0.0
C252 C 0.1545 0.25243 0.24378 0.0
C253 C 0.9929 0.22265 0.23263 0.0
C254 C 0.07885 0.17591 0.21683 0.0
C255 C 0.07001 0.13701 0.16875 0.0
C256 C 0.13653 0.17401 0.1467 0.0
C257 C 0.21147 0.25052 0.17361 0.0
C258 C 0.22073 0.28942 0.22188 0.0
H259 H 0.94771 0.22477 0.23555 0.0
H260 H 0.01486 0.23113 0.19927 0.0
H261 H 0.93897 0.16466 0.21614 0.0
H262 H 0.02783 0.14669 0.23358 0.0
H263 H 1.01162 0.0782 0.14916 0.0
H264 H 0.66008 0.91195 0.57307 0.0
H265 H 0.70808 0.92919 0.49861 0.0
H266 H 0.47333 0.69082 0.3794 0.0
H267 H 0.42178 0.67279 0.4523 0.0
H268 H 0.66902 0.78765 0.38994 0.0
H269 H 0.5483 0.86667 0.34749 0.0
H270 H 0.62929 0.9148 0.42333 0.0
H271 H 0.49307 0.81459 0.37805 0.0
C272 C 0.61679 0.86292 0.53015 0.0
C273 C 0.53438 0.79033 0.51724 0.0
C274 C 0.64392 0.87269 0.4876 0.0
C275 C 0.5906 0.81034 0.43206 0.0
C276 C 0.51192 0.73884 0.42061 0.0
H277 H 0.65558 0.73475 0.12271 0.0
H278 H 0.59441 0.71827 0.19255 0.0
C279 C 0.4827 0.72858 0.46229 0.0
C280 C 0.61947 0.81952 0.38666 0.0
H281 H 0.61508 0.85817 0.29229 0.0
C282 C 0.65743 0.8032 0.3686 0.0
C283 C 0.60618 0.84117 0.35966 0.0
C284 C 0.56637 0.85993 0.37763 0.0
C285 C 0.68271 0.80796 0.32449 0.0
C286 C 0.66499 0.8263 0.29533 0.0
C287 C 0.62806 0.84353 0.314 0.0
C288 C 0.68815 0.83069 0.24713 0.0
C289 C 0.73143 0.79558 0.31134 0.0
C290 C 0.75271 0.89602 0.25062 0.0
C291 C 0.78357 0.90393 0.20891 0.0
C292 C 0.75241 0.84738 0.16341 0.0
C293 C 0.68272 0.78006 0.15787 0.0
C294 C 0.64893 0.77109 0.19841 0.0
H295 H 0.76974 0.80597 0.34943 0.0
H296 H 0.66699 0.73515 0.27224 0.0
H297 H 0.79282 0.83383 0.30142 0.0
H298 H 0.78307 0.94254 0.28708 0.0
H299 H 0.83674 0.95636 0.21436 0.0
H300 H 0.77977 0.24184 0.53572 0.0
H301 H 0.884 0.27765 0.62079 0.0
H302 H 0.67979 0.04785 0.51834 0.0
H303 H 0.57767 0.01243 0.43212 0.0
H304 H 0.78445 0.20857 0.67261 0.0
H305 H 0.97357 0.17549 0.6103 0.0
H306 H 0.92383 0.18225 0.56914 0.0
H307 H 0.83255 0.09244 0.55583 0.0
C308 C 0.75966 0.19968 0.53032 0.0
C309 C 0.66872 0.12359 0.47761 0.0
C310 C 0.81896 0.22019 0.57925 0.0
C311 C 0.78921 0.16534 0.57607 0.0
C312 C 0.70491 0.09137 0.52169 0.0
H313 H 0.91773 0.11596 0.81688 0.0
H314 H 0.82624 0.09399 0.7384 0.0
C315 C 0.64591 0.07094 0.4726 0.0
C316 C 0.83545 0.18201 0.63129 0.0
H317 H 0.95622 0.17696 0.69359 0.0
C318 C 0.82318 0.20254 0.67755 0.0
C319 C 0.88538 0.17374 0.63744 0.0
C320 C 0.9056 0.1555 0.59075 0.0
C321 C 0.85689 0.21296 0.72913 0.0
C322 C 0.90417 0.20272 0.73446 0.0
C323 C 0.91827 0.18359 0.68879 0.0
C324 C 0.94229 0.2129 0.78733 0.0
C325 C 0.83933 0.23288 0.77679 0.0
C326 C 0.03401 0.28628 0.84218 0.0
C327 C 0.08723 0.2992 0.8871 0.0
C328 C 0.05009 0.23912 0.87725 0.0
C329 C 0.95027 0.164 0.82535 0.0
C330 C 0.89765 0.15121 0.78034 0.0
H331 H 0.78324 0.22412 0.76075 0.0
H332 H 0.80676 0.19772 0.79228 0.0
H333 H 0.91767 0.29406 0.8157 0.0
H334 H 0.06976 0.33467 0.84837 0.0
H335 H 0.1627 0.35736 0.9271 0.0
H336 H 0.67006 0.42188 0.47392 0.0
H337 H 0.7062 0.49648 0.56713 0.0
H338 H 0.90702 0.68189 0.55477 0.0
H339 H 0.8724 0.60806 0.4618 0.0
H340 H 0.99865 0.72995 0.66884 0.0
H341 H 0.57908 0.53599 0.5819 0.0
H342 H 0.59134 0.48905 0.57082 0.0
H343 H 0.62499 0.53089 0.53353 0.0
C344 C 0.72192 0.47851 0.49096 0.0
C345 C 0.76789 0.50882 0.46018 0.0
C346 C 0.74194 0.52089 0.54408 0.0
C347 C 0.80772 0.59417 0.56731 0.0
C348 C 0.8554 0.62522 0.53738 0.0
H349 H 0.0327 0.94156 0.88836 0.0
H350 H 1.0027 0.87165 0.79557 0.0
C351 C 0.83544 0.58289 0.48423 0.0
C352 C 0.82787 0.63879 0.62324 0.0
H353 H 0.70188 0.63464 0.68649 0.0
C354 C 0.93395 0.70941 0.67271 0.0
C355 C 0.74329 0.61186 0.62808 0.0
C356 C 0.62837 0.53816 0.57564 0.0
C357 C 0.95747 0.7529 0.72747 0.0
C358 C 0.87273 0.72571 0.73248 0.0
C359 C 0.76675 0.65535 0.68275 0.0
C360 C 0.89166 0.76872 0.78895 0.0
C361 C 0.07242 0.82639 0.77982 0.0
C362 C 0.8368 0.73347 0.81526 0.0
C363 C 0.85257 0.77289 0.86785 0.0
C364 C 0.92368 0.84853 0.89531 0.0
C365 C 0.97813 0.88363 0.8687 0.0
C366 C 0.96163 0.8439 0.81581 0.0
H367 H 0.12096 0.82783 0.77361 0.0
H368 H 0.11024 0.87558 0.78424 0.0
H369 H 0.07602 0.83417 0.82209 0.0
H370 H 0.78197 0.67538 0.79519 0.0
H371 H 0.80925 0.74411 0.88707 0.0
H372 H 0.34258 0.09246 0.45265 0.0
H373 H 0.29688 0.07637 0.52769 0.0
H374 H 0.53819 0.31641 0.64829 0.0
H375 H 0.58064 0.33176 0.57241 0.0
H376 H 0.41038 0.1362 0.63603 0.0
H377 H 0.28903 0.22578 0.65846 0.0
H378 H 0.30658 0.20419 0.59813 0.0
H379 H 0.42126 0.29724 0.66999 0.0
C380 C 0.38568 0.14174 0.49516 0.0
C381 C 0.46562 0.21349 0.50671 0.0
C382 C 0.35929 0.13245 0.53803 0.0
C383 C 0.41265 0.19482 0.59358 0.0
C384 C 0.49334 0.26673 0.6053 0.0
H385 H 0.38261 0.26779 0.9153 0.0
H386 H 0.43218 0.28228 0.84106 0.0
C387 C 0.51827 0.27567 0.56203 0.0
C388 C 0.3863 0.18538 0.63983 0.0
H389 H 0.32439 0.22211 0.73548 0.0
C390 C 0.39079 0.15445 0.6575 0.0
C391 C 0.35963 0.20843 0.66767 0.0
C392 C 0.34259 0.23493 0.64714 0.0
C393 C 0.37312 0.14841 0.70336 0.0
C394 C 0.34867 0.17302 0.73213 0.0
C395 C 0.34403 0.20378 0.71422 0.0
C396 C 0.32456 0.16561 0.77959 0.0
C397 C 0.38459 0.11816 0.72189 0.0
C398 C 0.24657 0.09512 0.77024 0.0
C399 C 0.21939 0.08719 0.81315 0.0
C400 C 0.26623 0.14863 0.86541 0.0
C401 C 0.34423 0.21915 0.87505 0.0
C402 C 0.37304 0.22753 0.83269 0.0
H403 H 0.42942 0.12011 0.70639 0.0
H404 H 0.42596 0.151 0.77118 0.0
H405 H 0.30375 0.05707 0.70098 0.0
H406 H 0.20292 0.04494 0.72864 0.0
H407 H 0.15832 0.03198 0.80428 0.0
H408 H 0.46628 0.40018 0.13212 0.0
H409 H 0.40053 0.39894 0.06076 0.0
H410 H 0.72554 0.60543 0.10893 0.0
H411 H 0.79251 0.6078 0.18058 0.0
H412 H 0.483 0.53281 0.08182 0.0
H413 H 0.53277 0.42511 0.9209 0.0
H414 H 0.51731 0.41208 0.97819 0.0
H415 H 0.64268 0.50441 0.99774 0.0
C416 C 0.52412 0.44633 0.12856 0.0
C417 C 0.6347 0.50402 0.16189 0.0
C418 C 0.48631 0.44534 0.08768 0.0
C419 C 0.55841 0.50185 0.0796 0.0
C420 C 0.66902 0.56136 0.11469 0.0
H421 H 0.50643 0.60486 0.86109 0.0
H422 H 0.56857 0.60255 0.93029 0.0
C423 C 0.70697 0.56259 0.1556 0.0
C424 C 0.51793 0.49658 0.0322 0.0
H425 H 0.48032 0.45543 0.89513 0.0
C426 C 0.48162 0.51544 0.04083 0.0
C427 C 0.51701 0.47419 0.97908 0.0
C428 C 0.55385 0.45227 0.96784 0.0
C429 C 0.44568 0.51355 0.99769 0.0
C430 C 0.44523 0.49152 0.94472 0.0
C431 C 0.48082 0.47214 0.93589 0.0
C432 C 0.40854 0.48912 0.89842 0.0
C433 C 0.41157 0.5374 0.00951 0.0
C434 C 0.29835 0.42507 0.85664 0.0
C435 C 0.26222 0.42639 0.81759 0.0
C436 C 0.33628 0.49149 0.81911 0.0
C437 C 0.4473 0.55377 0.85867 0.0
C438 C 0.48306 0.55273 0.89832 0.0
H439 H 0.41245 0.55006 0.05186 0.0
H440 H 0.46686 0.58941 0.01193 0.0
H441 H 0.3294 0.49175 0.97221 0.0
H442 H 0.24042 0.37505 0.85553 0.0
H443 H 0.17628 0.37734 0.7874 0.0
H444 H 0.42781 0.79251 0.86024 0.0
H445 H 0.43931 0.86035 0.94103 0.0
H446 H 0.5516 0.99925 0.88673 0.0
H447 H 0.54116 0.93243 0.80632 0.0
H448 H 0.67866 0.08398 0.01029 0.0
H449 H 0.24354 0.84503 0.93035 0.0
H450 H 0.29312 0.82389 0.93339 0.0
H451 H 0.29118 0.84246 0.8821 0.0
C452 C 0.45364 0.83681 0.86498 0.0
C453 C 0.48333 0.85683 0.8266 0.0
C454 C 0.45994 0.87542 0.91112 0.0
C455 C 0.49548 0.93444 0.91957 0.0
C456 C 0.52378 0.95382 0.88094 0.0
H457 H 0.63857 0.26058 0.1917 0.0
H458 H 0.62003 0.19114 0.10654 0.0
C459 C 0.51737 0.91528 0.83483 0.0
C460 C 0.50727 0.97812 0.97001 0.0
H461 H 0.36622 0.95956 0.02795 0.0
C462 C 0.61038 0.05695 0.01411 0.0
C463 C 0.41807 0.94274 0.97478 0.0
C464 C 0.30497 0.85901 0.92745 0.0
C465 C 0.62713 0.10098 0.06374 0.0
C466 C 0.53787 0.06548 0.0687 0.0
C467 C 0.43463 0.98675 0.02422 0.0
C468 C 0.54978 0.10829 0.12031 0.0
C469 C 0.74068 0.18449 0.11124 0.0
C470 C 0.51391 0.08375 0.15547 0.0
C471 C 0.52323 0.12272 0.20369 0.0
C472 C 0.5686 0.18717 0.21782 0.0
C473 C 0.60403 0.21153 0.18235 0.0
C474 C 0.59412 0.17216 0.13384 0.0
H475 H 0.80138 0.19734 0.10904 0.0
H476 H 0.75466 0.2201 0.10452 0.0
H477 H 0.75394 0.20163 0.15658 0.0
H478 H 0.47901 0.03445 0.14576 0.0
H479 H 0.49484 0.10224 0.2299 0.0
H480 H 0.99503 0.40955 0.77439 0.0
H481 H 0.94028 0.39548 0.84707 0.0
H482 H 0.12171 0.61704 0.93821 0.0
H483 H 0.16971 0.62879 0.86387 0.0
H484 H 0.06305 0.47721 0.95993 0.0
H485 H 0.86472 0.50806 0.94259 0.0
H486 H 0.89834 0.49564 0.88874 0.0
H487 H 0.99835 0.58903 0.95852 0.0
C488 C 0.02021 0.45406 0.80883 0.0
C489 C 0.08628 0.52011 0.81306 0.0
C490 C 0.98956 0.44624 0.85065 0.0
C491 C 0.02558 0.50474 0.89794 0.0
C492 C 0.08947 0.56978 0.90124 0.0
H493 H 0.98763 0.59797 0.2141 0.0
H494 H 0.03796 0.60733 0.13964 0.0
C495 C 0.11759 0.57666 0.85867 0.0
C496 C 1.00431 0.50101 0.94652 0.0
H497 H 0.92424 0.52844 0.03171 0.0
C498 C 0.03074 0.48699 0.97501 0.0
C499 C 0.96378 0.51494 0.96694 0.0
C500 C 0.92873 0.52696 0.93711 0.0
C501 C 0.01966 0.48778 0.02383 0.0
C502 C 0.98001 0.50248 0.04475 0.0
C503 C 0.95398 0.51668 0.0161 0.0
C504 C 0.96218 0.50193 0.09508 0.0
C505 C 0.05384 0.475 0.05309 0.0
C506 C 0.90535 0.44098 0.09662 0.0
C507 C 0.87943 0.43686 0.14036 0.0
C508 C 0.90678 0.49239 0.18277 0.0
C509 C 0.96583 0.55442 0.18231 0.0
C510 C 0.99372 0.55934 0.13924 0.0
H511 H 0.113 0.48945 0.04461 0.0
H512 H 0.08947 0.50934 0.10204 0.0
H513 H 0.98273 0.41337 0.03343 0.0
H514 H 0.87624 0.39428 0.06252 0.0
H515 H 0.83183 0.38735 0.13846 0.0
loop_
_geom_bond_atom_site_label_1
_geom_bond_atom_site_label_2
_geom_bond_distance
_geom_bond_site_symmetry_2
_ccdc_geom_bond_type
Cd0 O7 2.298 . S
Cd0 O19 2.255 . S
Cd0 O23 2.218 1_655 S
Cd1 O8 2.269 . S
Cd1 O11 2.237 1_665 S
Cd1 O20 2.201 1_554 S
C2 O10 1.266 . S
C2 O11 1.194 . S
Cd3 O9 2.255 . S
Cd3 O13 2.218 1_455 S
Cd3 O16 2.298 . S
Cd4 O10 2.201 1_556 S
Cd4 O17 2.269 . S
Cd4 O21 2.237 1_445 S
C5 O6 1.201 . S
C5 O13 1.235 . S
O6 C5 1.201 . S
O7 Cd0 2.298 . S
O7 C22 1.265 . S
O8 Cd1 2.269 . S
O8 C22 1.233 . S
O9 Cd3 2.255 . S
O9 C24 1.210 1_455 S
O10 C2 1.266 . S
O10 Cd4 2.201 1_554 S
O11 Cd1 2.237 1_445 S
O11 C2 1.194 . S
C12 O16 1.265 . S
C12 O17 1.233 . S
O13 Cd3 2.218 1_655 S
O13 C5 1.235 . S
C14 O15 1.269 . S
C14 O19 1.210 1_455 S
O15 C14 1.269 . S
O16 Cd3 2.298 . S
O16 C12 1.265 . S
O17 Cd4 2.269 . S
O17 C12 1.233 . S
C18 O20 1.266 . S
C18 O21 1.194 . S
O19 Cd0 2.255 . S
O19 C14 1.210 1_655 S
O20 Cd1 2.201 1_556 S
O20 C18 1.266 . S
O21 Cd4 2.237 1_665 S
O21 C18 1.194 . S
C22 O7 1.265 . S
C22 O8 1.233 . S
O23 Cd0 2.218 1_455 S
O23 C26 1.235 . S
C24 O9 1.210 1_655 S
C24 O25 1.269 . S
O25 C24 1.269 . S
C26 O23 1.235 . S
C26 O27 1.201 . S
O27 C26 1.201 . S
Cd28 O35 2.298 . S
Cd28 O47 2.255 . S
Cd28 O51 2.218 . S
Cd29 O36 2.269 . S
Cd29 O39 2.237 . S
Cd29 O48 2.201 . S
C30 O38 1.266 . S
C30 O39 1.194 . S
Cd31 O37 2.255 . S
Cd31 O41 2.218 . S
Cd31 O44 2.298 . S
Cd32 O38 2.201 . S
Cd32 O45 2.269 . S
Cd32 O49 2.237 . S
C33 O34 1.201 . S
C33 O41 1.235 . S
O34 C33 1.201 . S
O35 Cd28 2.298 . S
O35 C50 1.265 . S
O36 Cd29 2.269 . S
O36 C50 1.233 . S
O37 Cd31 2.255 . S
O37 C52 1.210 . S
O38 C30 1.266 . S
O38 Cd32 2.201 . S
O39 Cd29 2.237 . S
O39 C30 1.194 . S
C40 O44 1.265 . S
C40 O45 1.233 . S
O41 Cd31 2.218 . S
O41 C33 1.235 . S
C42 O43 1.269 . S
C42 O47 1.210 . S
O43 C42 1.269 . S
O44 Cd31 2.298 . S
O44 C40 1.265 . S
O45 Cd32 2.269 . S
O45 C40 1.233 . S
C46 O48 1.266 . S
C46 O49 1.194 . S
O47 Cd28 2.255 . S
O47 C42 1.210 . S
O48 Cd29 2.201 . S
O48 C46 1.266 . S
O49 Cd32 2.237 . S
O49 C46 1.194 . S
C50 O35 1.265 . S
C50 O36 1.233 . S
O51 Cd28 2.218 . S
O51 C54 1.235 . S
C52 O37 1.210 . S
C52 O53 1.269 . S
O53 C52 1.269 . S
C54 O51 1.235 . S
C54 O55 1.201 . S
O55 C54 1.201 . S
Cd56 O63 2.298 . S
Cd56 O75 2.255 . S
Cd56 O79 2.218 . S
Cd57 O64 2.269 . S
Cd57 O67 2.237 . S
Cd57 O76 2.201 . S
C58 O66 1.266 . S
C58 O67 1.194 . S
Cd59 O65 2.255 . S
Cd59 O69 2.218 . S
Cd59 O72 2.298 . S
Cd60 O66 2.201 . S
Cd60 O73 2.269 . S
Cd60 O77 2.237 . S
C61 O62 1.201 . S
C61 O69 1.235 . S
O62 C61 1.201 . S
O63 Cd56 2.298 . S
O63 C78 1.265 . S
O64 Cd57 2.269 . S
O64 C78 1.233 . S
O65 Cd59 2.255 . S
O65 C80 1.210 . S
O66 C58 1.266 . S
O66 Cd60 2.201 . S
O67 Cd57 2.237 . S
O67 C58 1.194 . S
C68 O72 1.265 . S
C68 O73 1.233 . S
O69 Cd59 2.218 . S
O69 C61 1.235 . S
C70 O71 1.269 . S
C70 O75 1.210 . S
O71 C70 1.269 . S
O72 Cd59 2.298 . S
O72 C68 1.265 . S
O73 Cd60 2.269 . S
O73 C68 1.233 . S
C74 O76 1.266 . S
C74 O77 1.194 . S
O75 Cd56 2.255 . S
O75 C70 1.210 . S
O76 Cd57 2.201 . S
O76 C74 1.266 . S
O77 Cd60 2.237 . S
O77 C74 1.194 . S
C78 O63 1.265 . S
C78 O64 1.233 . S
O79 Cd56 2.218 . S
O79 C82 1.235 . S
C80 O65 1.210 . S
C80 O81 1.269 . S
O81 C80 1.269 . S
C82 O79 1.235 . S
C82 O83 1.201 . S
O83 C82 1.201 . S
H84 C92 0.929 . S
H85 C94 0.930 . S
H86 C96 0.930 . S
H87 C99 0.929 . S
H88 C102 0.930 . S
H89 C104 0.960 . S
H90 C104 0.960 . S
H91 C104 0.960 . S
C92 H84 0.929 . S
C92 C93 1.377 1_455 S
C92 C94 1.384 . S
C93 C92 1.377 1_655 S
C93 C99 1.390 . S
C94 H85 0.930 . S
C94 C92 1.384 . S
C94 C95 1.366 1_455 S
C95 C94 1.366 1_655 S
C95 C96 1.409 . S
C95 C100 1.487 1_655 S
C96 H86 0.930 . S
C96 C95 1.409 . S
C96 C99 1.386 . S
H97 C113 0.930 . S
H98 C114 0.931 . S
C99 H87 0.929 . S
C99 C93 1.390 . S
C99 C96 1.386 . S
C100 C95 1.487 1_455 S
C100 C102 1.394 1_445 S
C100 C103 1.403 . S
H101 C107 0.930 . S
C102 H88 0.930 . S
C102 C100 1.394 1_665 S
C102 C105 1.403 . S
C103 C100 1.403 . S
C103 C104 1.524 . S
C103 C107 1.400 . S
C104 H89 0.960 . S
C104 H90 0.960 . S
C104 H91 0.960 . S
C104 C103 1.524 . S
C105 C102 1.403 . S
C105 C106 1.392 . S
C105 C109 1.495 . S
C106 C105 1.392 . S
C106 C107 1.385 1_665 S
C106 C108 1.478 . S
C107 H101 0.930 . S
C107 C103 1.400 . S
C107 C106 1.385 1_445 S
C108 C106 1.478 . S
C108 C110 1.381 1_655 S
C108 C114 1.383 . S
C109 C105 1.495 . S
C109 H115 0.959 . S
C109 H116 0.961 . S
C109 H117 0.960 . S
C110 C108 1.381 1_455 S
C110 C111 1.394 . S
C110 H118 0.930 . S
C111 C110 1.394 . S
C111 C112 1.383 . S
C111 H119 0.929 . S
C112 C111 1.383 . S
C112 C113 1.377 1_455 S
C113 H97 0.930 . S
C113 C112 1.377 1_655 S
C113 C114 1.379 . S
C114 H98 0.931 . S
C114 C108 1.383 . S
C114 C113 1.379 . S
H115 C109 0.959 . S
H116 C109 0.961 . S
H117 C109 0.960 . S
H118 C110 0.930 . S
H119 C111 0.929 . S
H120 C128 0.929 . S
H121 C130 0.930 . S
H122 C132 0.930 . S
H123 C135 0.929 . S
H124 C138 0.930 . S
H125 C140 0.960 . S
H126 C140 0.960 . S
H127 C140 0.960 . S
C128 H120 0.929 . S
C128 C129 1.377 . S
C128 C130 1.384 . S
C129 C128 1.377 . S
C129 C135 1.390 . S
C130 H121 0.930 . S
C130 C128 1.384 . S
C130 C131 1.372 . S
C131 C130 1.372 . S
C131 C132 1.400 . S
C131 C136 1.490 . S
C132 H122 0.930 . S
C132 C131 1.400 . S
C132 C135 1.386 . S
H133 C149 0.930 . S
H134 C150 0.931 . S
C135 H123 0.929 . S
C135 C129 1.390 . S
C135 C132 1.386 . S
C136 C131 1.490 . S
C136 C138 1.395 . S
C136 C139 1.403 . S
H137 C143 0.930 . S
C138 H124 0.930 . S
C138 C136 1.395 . S
C138 C141 1.403 . S
C139 C136 1.403 . S
C139 C140 1.524 . S
C139 C143 1.400 . S
C140 H125 0.960 . S
C140 H126 0.960 . S
C140 H127 0.960 . S
C140 C139 1.524 . S
C141 C138 1.403 . S
C141 C142 1.392 . S
C141 C145 1.495 . S
C142 C141 1.392 . S
C142 C143 1.385 . S
C142 C144 1.478 . S
C143 H137 0.930 . S
C143 C139 1.400 . S
C143 C142 1.385 . S
C144 C142 1.478 . S
C144 C146 1.381 . S
C144 C150 1.383 . S
C145 C141 1.495 . S
C145 H151 0.959 . S
C145 H152 0.961 . S
C145 H153 0.960 . S
C146 C144 1.381 . S
C146 C147 1.394 1_556 S
C146 H154 0.930 . S
C147 C146 1.394 1_554 S
C147 C148 1.383 . S
C147 H155 0.929 . S
C148 C147 1.383 . S
C148 C149 1.377 . S
C149 H133 0.930 . S
C149 C148 1.377 . S
C149 C150 1.379 1_554 S
C150 H134 0.931 . S
C150 C144 1.383 . S
C150 C149 1.379 1_556 S
H151 C145 0.959 . S
H152 C145 0.961 . S
H153 C145 0.960 . S
H154 C146 0.930 . S
H155 C147 0.929 . S
H156 C164 0.929 . S
H157 C166 0.930 . S
H158 C168 0.930 . S
H159 C171 0.929 . S
H160 C174 0.930 . S
H161 C176 0.960 . S
H162 C176 0.960 . S
H163 C176 0.960 . S
C164 H156 0.929 . S
C164 C165 1.377 1_554 S
C164 C166 1.384 . S
C165 C164 1.377 1_556 S
C165 C171 1.390 . S
C166 H157 0.930 . S
C166 C164 1.384 . S
C166 C167 1.372 . S
C167 C166 1.372 . S
C167 C168 1.400 . S
C167 C172 1.490 . S
C168 H158 0.930 . S
C168 C167 1.400 . S
C168 C171 1.386 1_554 S
H169 C185 0.930 . S
H170 C186 0.931 . S
C171 H159 0.929 . S
C171 C165 1.390 . S
C171 C168 1.386 1_556 S
C172 C167 1.490 . S
C172 C174 1.395 . S
C172 C175 1.403 . S
H173 C179 0.930 . S
C174 H160 0.930 . S
C174 C172 1.395 . S
C174 C177 1.403 . S
C175 C172 1.403 . S
C175 C176 1.524 . S
C175 C179 1.400 . S
C176 H161 0.960 . S
C176 H162 0.960 . S
C176 H163 0.960 . S
C176 C175 1.524 . S
C177 C174 1.403 . S
C177 C178 1.392 . S
C177 C181 1.495 . S
C178 C177 1.392 . S
C178 C179 1.385 . S
C178 C180 1.478 . S
C179 H173 0.930 . S
C179 C175 1.400 . S
C179 C178 1.385 . S
C180 C178 1.478 . S
C180 C182 1.381 . S
C180 C186 1.383 . S
C181 C177 1.495 . S
C181 H187 0.959 . S
C181 H188 0.961 . S
C181 H189 0.960 . S
C182 C180 1.381 . S
C182 C183 1.394 . S
C182 H190 0.930 . S
C183 C182 1.394 . S
C183 C184 1.383 . S
C183 H191 0.929 . S
C184 C183 1.383 . S
C184 C185 1.377 . S
C185 H169 0.930 . S
C185 C184 1.377 . S
C185 C186 1.379 . S
C186 H170 0.931 . S
C186 C180 1.383 . S
C186 C185 1.379 . S
H187 C181 0.959 . S
H188 C181 0.961 . S
H189 C181 0.960 . S
H190 C182 0.930 . S
H191 C183 0.929 . S
H192 C200 0.929 . S
H193 C202 0.930 . S
H194 C204 0.930 . S
H195 C207 0.929 . S
H196 C210 0.930 . S
H197 C212 0.960 . S
H198 C212 0.960 . S
H199 C212 0.960 . S
C200 H192 0.929 . S
C200 C201 1.377 . S
C200 C202 1.384 . S
C201 C200 1.377 . S
C201 C207 1.390 . S
C202 H193 0.930 . S
C202 C200 1.384 . S
C202 C203 1.372 . S
C203 C202 1.372 . S
C203 C204 1.400 . S
C203 C208 1.490 . S
C204 H194 0.930 . S
C204 C203 1.400 . S
C204 C207 1.386 . S
H205 C221 0.930 1_545 S
H206 C222 0.931 . S
C207 H195 0.929 . S
C207 C201 1.390 . S
C207 C204 1.386 . S
C208 C203 1.490 . S
C208 C210 1.395 . S
C208 C211 1.403 . S
H209 C215 0.930 . S
C210 H196 0.930 . S
C210 C208 1.395 . S
C210 C213 1.403 . S
C211 C208 1.403 . S
C211 C212 1.524 . S
C211 C215 1.400 . S
C212 H197 0.960 . S
C212 H198 0.960 . S
C212 H199 0.960 . S
C212 C211 1.524 . S
C213 C210 1.403 . S
C213 C214 1.392 . S
C213 C217 1.495 . S
C214 C213 1.392 . S
C214 C215 1.385 . S
C214 C216 1.478 . S
C215 H209 0.930 . S
C215 C211 1.400 . S
C215 C214 1.385 . S
C216 C214 1.478 . S
C216 C218 1.381 . S
C216 C222 1.383 . S
C217 C213 1.495 . S
C217 H223 0.959 . S
C217 H224 0.961 . S
C217 H225 0.960 1_455 S
C218 C216 1.381 . S
C218 C219 1.394 . S
C218 H226 0.930 1_455 S
C219 C218 1.394 . S
C219 C220 1.383 . S
C219 H227 0.929 1_455 S
C220 C219 1.383 . S
C220 C221 1.377 . S
C221 H205 0.930 1_565 S
C221 C220 1.377 . S
C221 C222 1.379 . S
C222 H206 0.931 . S
C222 C216 1.383 . S
C222 C221 1.379 . S
H223 C217 0.959 . S
H224 C217 0.961 . S
H225 C217 0.960 1_655 S
H226 C218 0.930 1_655 S
H227 C219 0.929 1_655 S
H228 C236 0.929 . S
H229 C238 0.930 . S
H230 C240 0.930 . S
H231 C243 0.929 . S
H232 C246 0.930 . S
H233 C248 0.960 . S
H234 C248 0.960 . S
H235 C248 0.960 . S
C236 H228 0.929 . S
C236 C237 1.377 . S
C236 C238 1.384 . S
C237 C236 1.377 . S
C237 C243 1.390 . S
C238 H229 0.930 . S
C238 C236 1.384 . S
C238 C239 1.372 . S
C239 C238 1.372 . S
C239 C240 1.400 . S
C239 C244 1.490 . S
C240 H230 0.930 . S
C240 C239 1.400 . S
C240 C243 1.386 . S
H241 C257 0.930 . S
H242 C258 0.931 . S
C243 H231 0.929 . S
C243 C237 1.390 . S
C243 C240 1.386 . S
C244 C239 1.490 . S
C244 C246 1.395 . S
C244 C247 1.403 . S
H245 C251 0.930 . S
C246 H232 0.930 . S
C246 C244 1.395 . S
C246 C249 1.403 . S
C247 C244 1.403 . S
C247 C248 1.524 . S
C247 C251 1.400 . S
C248 H233 0.960 . S
C248 H234 0.960 . S
C248 H235 0.960 . S
C248 C247 1.524 . S
C249 C246 1.403 . S
C249 C250 1.392 . S
C249 C253 1.495 1_455 S
C250 C249 1.392 . S
C250 C251 1.385 . S
C250 C252 1.478 . S
C251 H245 0.930 . S
C251 C247 1.400 . S
C251 C250 1.385 . S
C252 C250 1.478 . S
C252 C254 1.381 . S
C252 C258 1.383 . S
C253 C249 1.495 1_655 S
C253 H259 0.959 . S
C253 H260 0.961 1_655 S
C253 H261 0.960 . S
C254 C252 1.381 . S
C254 C255 1.394 1_455 S
C254 H262 0.930 1_455 S
C255 C254 1.394 1_655 S
C255 C256 1.383 1_655 S
C255 H263 0.929 . S
C256 C255 1.383 1_455 S
C256 C257 1.377 . S
C257 H241 0.930 . S
C257 C256 1.377 . S
C257 C258 1.379 . S
C258 H242 0.931 . S
C258 C252 1.383 . S
C258 C257 1.379 . S
H259 C253 0.959 . S
H260 C253 0.961 1_455 S
H261 C253 0.960 . S
H262 C254 0.930 1_655 S
H263 C255 0.929 . S
H264 C272 0.929 . S
H265 C274 0.930 . S
H266 C276 0.930 . S
H267 C279 0.929 . S
H268 C282 0.930 . S
H269 C284 0.960 . S
H270 C284 0.960 . S
H271 C284 0.960 . S
C272 H264 0.929 . S
C272 C273 1.377 . S
C272 C274 1.384 . S
C273 C272 1.377 . S
C273 C279 1.390 . S
C274 H265 0.930 . S
C274 C272 1.384 . S
C274 C275 1.372 . S
C275 C274 1.372 . S
C275 C276 1.400 . S
C275 C280 1.490 . S
C276 H266 0.930 . S
C276 C275 1.400 . S
C276 C279 1.386 . S
H277 C293 0.930 . S
H278 C294 0.931 . S
C279 H267 0.929 . S
C279 C273 1.390 . S
C279 C276 1.386 . S
C280 C275 1.490 . S
C280 C282 1.395 . S
C280 C283 1.403 . S
H281 C287 0.930 . S
C282 H268 0.930 . S
C282 C280 1.395 . S
C282 C285 1.403 . S
C283 C280 1.403 . S
C283 C284 1.524 . S
C283 C287 1.400 . S
C284 H269 0.960 . S
C284 H270 0.960 . S
C284 H271 0.960 . S
C284 C283 1.524 . S
C285 C282 1.403 . S
C285 C286 1.392 . S
C285 C289 1.495 . S
C286 C285 1.392 . S
C286 C287 1.385 . S
C286 C288 1.478 . S
C287 H281 0.930 . S
C287 C283 1.400 . S
C287 C286 1.385 . S
C288 C286 1.478 . S
C288 C290 1.381 . S
C288 C294 1.383 . S
C289 C285 1.495 . S
C289 H295 0.959 . S
C289 H296 0.961 . S
C289 H297 0.960 . S
C290 C288 1.381 . S
C290 C291 1.394 . S
C290 H298 0.930 . S
C291 C290 1.394 . S
C291 C292 1.383 . S
C291 H299 0.929 . S
C292 C291 1.383 . S
C292 C293 1.377 . S
C293 H277 0.930 . S
C293 C292 1.377 . S
C293 C294 1.379 . S
C294 H278 0.931 . S
C294 C288 1.383 . S
C294 C293 1.379 . S
H295 C289 0.959 . S
H296 C289 0.961 . S
H297 C289 0.960 . S
H298 C290 0.930 . S
H299 C291 0.929 . S
H300 C308 0.929 . S
H301 C310 0.930 . S
H302 C312 0.930 . S
H303 C315 0.929 . S
H304 C318 0.930 . S
H305 C320 0.960 . S
H306 C320 0.960 . S
H307 C320 0.960 . S
C308 H300 0.929 . S
C308 C309 1.377 . S
C308 C310 1.384 . S
C309 C308 1.377 . S
C309 C315 1.390 . S
C310 H301 0.930 . S
C310 C308 1.384 . S
C310 C311 1.372 . S
C311 C310 1.372 . S
C311 C312 1.400 . S
C311 C316 1.490 . S
C312 H302 0.930 . S
C312 C311 1.400 . S
C312 C315 1.386 . S
H313 C329 0.930 . S
H314 C330 0.931 . S
C315 H303 0.929 . S
C315 C309 1.390 . S
C315 C312 1.386 . S
C316 C311 1.490 . S
C316 C318 1.395 . S
C316 C319 1.403 . S
H317 C323 0.930 . S
C318 H304 0.930 . S
C318 C316 1.395 . S
C318 C321 1.403 . S
C319 C316 1.403 . S
C319 C320 1.524 . S
C319 C323 1.400 . S
C320 H305 0.960 . S
C320 H306 0.960 . S
C320 H307 0.960 . S
C320 C319 1.524 . S
C321 C318 1.403 . S
C321 C322 1.392 . S
C321 C325 1.495 . S
C322 C321 1.392 . S
C322 C323 1.385 . S
C322 C324 1.478 . S
C323 H317 0.930 . S
C323 C319 1.400 . S
C323 C322 1.385 . S
C324 C322 1.478 . S
C324 C326 1.381 . S
C324 C330 1.383 . S
C325 C321 1.495 . S
C325 H331 0.959 . S
C325 H332 0.961 . S
C325 H333 0.960 . S
C326 C324 1.381 . S
C326 C327 1.394 . S
C326 H334 0.930 . S
C327 C326 1.394 . S
C327 C328 1.383 . S
C327 H335 0.929 . S
C328 C327 1.383 . S
C328 C329 1.377 . S
C329 H313 0.930 . S
C329 C328 1.377 . S
C329 C330 1.379 . S
C330 H314 0.931 . S
C330 C324 1.383 . S
C330 C329 1.379 . S
H331 C325 0.959 . S
H332 C325 0.961 . S
H333 C325 0.960 . S
H334 C326 0.930 . S
H335 C327 0.929 . S
H336 C344 0.929 . S
H337 C346 0.930 . S
H338 C348 0.930 . S
H339 C351 0.929 . S
H340 C354 0.930 . S
H341 C356 0.960 . S
H342 C356 0.960 . S
H343 C356 0.960 . S
C344 H336 0.929 . S
C344 C345 1.377 . S
C344 C346 1.384 . S
C345 C344 1.377 . S
C345 C351 1.390 . S
C346 H337 0.930 . S
C346 C344 1.384 . S
C346 C347 1.372 . S
C347 C346 1.372 . S
C347 C348 1.400 . S
C347 C352 1.490 . S
C348 H338 0.930 . S
C348 C347 1.400 . S
C348 C351 1.386 . S
H349 C365 0.930 . S
H350 C366 0.931 . S
C351 H339 0.929 . S
C351 C345 1.390 . S
C351 C348 1.386 . S
C352 C347 1.490 . S
C352 C354 1.395 . S
C352 C355 1.403 . S
H353 C359 0.930 . S
C354 H340 0.930 . S
C354 C352 1.395 . S
C354 C357 1.403 . S
C355 C352 1.403 . S
C355 C356 1.524 . S
C355 C359 1.400 . S
C356 H341 0.960 . S
C356 H342 0.960 . S
C356 H343 0.960 . S
C356 C355 1.524 . S
C357 C354 1.403 . S
C357 C358 1.392 . S
C357 C361 1.495 1_655 S
C358 C357 1.392 . S
C358 C359 1.385 . S
C358 C360 1.478 . S
C359 H353 0.930 . S
C359 C355 1.400 . S
C359 C358 1.385 . S
C360 C358 1.478 . S
C360 C362 1.381 . S
C360 C366 1.383 . S
C361 C357 1.495 1_455 S
C361 H367 0.959 . S
C361 H368 0.961 . S
C361 H369 0.960 . S
C362 C360 1.381 . S
C362 C363 1.394 . S
C362 H370 0.930 . S
C363 C362 1.394 . S
C363 C364 1.383 . S
C363 H371 0.928 1_655 S
C364 C363 1.383 . S
C364 C365 1.377 . S
C365 H349 0.930 . S
C365 C364 1.377 . S
C365 C366 1.379 . S
C366 H350 0.931 . S
C366 C360 1.383 . S
C366 C365 1.379 . S
H367 C361 0.959 . S
H368 C361 0.961 . S
H369 C361 0.960 . S
H370 C362 0.930 . S
H371 C363 0.928 1_455 S
H372 C380 0.929 . S
H373 C382 0.930 . S
H374 C384 0.930 . S
H375 C387 0.929 . S
H376 C390 0.930 . S
H377 C392 0.960 . S
H378 C392 0.960 . S
H379 C392 0.960 . S
C380 H372 0.929 . S
C380 C381 1.377 . S
C380 C382 1.384 . S
C381 C380 1.377 . S
C381 C387 1.390 . S
C382 H373 0.930 . S
C382 C380 1.384 . S
C382 C383 1.372 . S
C383 C382 1.372 . S
C383 C384 1.400 . S
C383 C388 1.490 . S
C384 H374 0.930 . S
C384 C383 1.400 . S
C384 C387 1.386 . S
H385 C401 0.930 . S
H386 C402 0.931 . S
C387 H375 0.929 . S
C387 C381 1.390 . S
C387 C384 1.386 . S
C388 C383 1.490 . S
C388 C390 1.395 . S
C388 C391 1.403 . S
H389 C395 0.930 . S
C390 H376 0.930 . S
C390 C388 1.395 . S
C390 C393 1.403 . S
C391 C388 1.403 . S
C391 C392 1.524 . S
C391 C395 1.400 . S
C392 H377 0.960 . S
C392 H378 0.960 . S
C392 H379 0.960 . S
C392 C391 1.524 . S
C393 C390 1.403 . S
C393 C394 1.392 . S
C393 C397 1.495 . S
C394 C393 1.392 . S
C394 C395 1.385 . S
C394 C396 1.478 . S
C395 H389 0.930 . S
C395 C391 1.400 . S
C395 C394 1.385 . S
C396 C394 1.478 . S
C396 C398 1.381 . S
C396 C402 1.383 . S
C397 C393 1.495 . S
C397 H403 0.959 . S
C397 H404 0.961 . S
C397 H405 0.960 . S
C398 C396 1.381 . S
C398 C399 1.394 . S
C398 H406 0.930 . S
C399 C398 1.394 . S
C399 C400 1.383 . S
C399 H407 0.929 . S
C400 C399 1.383 . S
C400 C401 1.377 . S
C401 H385 0.930 . S
C401 C400 1.377 . S
C401 C402 1.379 . S
C402 H386 0.931 . S
C402 C396 1.383 . S
C402 C401 1.379 . S
H403 C397 0.959 . S
H404 C397 0.961 . S
H405 C397 0.960 . S
H406 C398 0.930 . S
H407 C399 0.929 . S
H408 C416 0.929 . S
H409 C418 0.930 . S
H410 C420 0.930 . S
H411 C423 0.929 . S
H412 C426 0.930 . S
H413 C428 0.960 . S
H414 C428 0.960 . S
H415 C428 0.960 . S
C416 H408 0.929 . S
C416 C417 1.377 . S
C416 C418 1.384 . S
C417 C416 1.377 . S
C417 C423 1.390 . S
C418 H409 0.930 . S
C418 C416 1.384 . S
C418 C419 1.372 . S
C419 C418 1.372 . S
C419 C420 1.400 . S
C419 C424 1.490 . S
C420 H410 0.930 . S
C420 C419 1.400 . S
C420 C423 1.386 . S
H421 C437 0.930 . S
H422 C438 0.931 . S
C423 H411 0.929 . S
C423 C417 1.390 . S
C423 C420 1.386 . S
C424 C419 1.490 . S
C424 C426 1.395 . S
C424 C427 1.403 . S
H425 C431 0.930 . S
C426 H412 0.930 . S
C426 C424 1.395 . S
C426 C429 1.403 1_554 S
C427 C424 1.403 . S
C427 C428 1.524 . S
C427 C431 1.400 1_554 S
C428 H413 0.960 . S
C428 H414 0.960 . S
C428 H415 0.960 . S
C428 C427 1.524 . S
C429 C426 1.403 1_556 S
C429 C430 1.392 . S
C429 C433 1.495 . S
C430 C429 1.392 . S
C430 C431 1.385 . S
C430 C432 1.478 . S
C431 H425 0.930 . S
C431 C427 1.400 1_556 S
C431 C430 1.385 . S
C432 C430 1.478 . S
C432 C434 1.381 . S
C432 C438 1.383 . S
C433 C429 1.495 . S
C433 H439 0.959 . S
C433 H440 0.961 . S
C433 H441 0.960 . S
C434 C432 1.381 . S
C434 C435 1.394 . S
C434 H442 0.930 . S
C435 C434 1.394 . S
C435 C436 1.383 . S
C435 H443 0.929 . S
C436 C435 1.383 . S
C436 C437 1.377 . S
C437 H421 0.930 . S
C437 C436 1.377 . S
C437 C438 1.379 . S
C438 H422 0.931 . S
C438 C432 1.383 . S
C438 C437 1.379 . S
H439 C433 0.959 . S
H440 C433 0.961 . S
H441 C433 0.960 . S
H442 C434 0.930 . S
H443 C435 0.929 . S
H444 C452 0.929 . S
H445 C454 0.930 . S
H446 C456 0.930 . S
H447 C459 0.929 . S
H448 C462 0.930 . S
H449 C464 0.960 . S
H450 C464 0.960 . S
H451 C464 0.960 . S
C452 H444 0.929 . S
C452 C453 1.377 . S
C452 C454 1.384 . S
C453 C452 1.377 . S
C453 C459 1.390 . S
C454 H445 0.930 . S
C454 C452 1.384 . S
C454 C455 1.372 . S
C455 C454 1.372 . S
C455 C456 1.400 . S
C455 C460 1.490 . S
C456 H446 0.930 . S
C456 C455 1.400 . S
C456 C459 1.386 . S
H457 C473 0.930 . S
H458 C474 0.931 . S
C459 H447 0.929 . S
C459 C453 1.390 . S
C459 C456 1.386 . S
C460 C455 1.490 . S
C460 C462 1.395 1_565 S
C460 C463 1.403 . S
H461 C467 0.930 . S
C462 H448 0.930 . S
C462 C460 1.395 1_545 S
C462 C465 1.403 1_556 S
C463 C460 1.403 . S
C463 C464 1.524 . S
C463 C467 1.400 1_556 S
C464 H449 0.960 . S
C464 H450 0.960 . S
C464 H451 0.960 . S
C464 C463 1.524 . S
C465 C462 1.403 1_554 S
C465 C466 1.392 . S
C465 C469 1.495 . S
C466 C465 1.392 . S
C466 C467 1.385 1_545 S
C466 C468 1.478 . S
C467 H461 0.930 . S
C467 C463 1.400 1_554 S
C467 C466 1.385 1_565 S
C468 C466 1.478 . S
C468 C470 1.381 . S
C468 C474 1.383 . S
C469 C465 1.495 . S
C469 H475 0.959 . S
C469 H476 0.961 . S
C469 H477 0.960 . S
C470 C468 1.381 . S
C470 C471 1.394 . S
C470 H478 0.930 . S
C471 C470 1.394 . S
C471 C472 1.383 . S
C471 H479 0.929 . S
C472 C471 1.383 . S
C472 C473 1.377 . S
C473 H457 0.930 . S
C473 C472 1.377 . S
C473 C474 1.379 . S
C474 H458 0.931 . S
C474 C468 1.383 . S
C474 C473 1.379 . S
H475 C469 0.959 . S
H476 C469 0.961 . S
H477 C469 0.960 . S
H478 C470 0.930 . S
H479 C471 0.929 . S
H480 C488 0.929 . S
H481 C490 0.930 1_655 S
H482 C492 0.930 . S
H483 C495 0.929 . S
H484 C498 0.930 . S
H485 C500 0.960 . S
H486 C500 0.960 . S
H487 C500 0.960 1_455 S
C488 H480 0.929 . S
C488 C489 1.377 . S
C488 C490 1.384 . S
C489 C488 1.377 . S
C489 C495 1.390 . S
C490 H481 0.930 1_455 S
C490 C488 1.384 . S
C490 C491 1.372 . S
C491 C490 1.372 . S
C491 C492 1.400 . S
C491 C496 1.490 . S
C492 H482 0.930 . S
C492 C491 1.400 . S
C492 C495 1.386 . S
H493 C509 0.930 1_455 S
H494 C510 0.931 1_455 S
C495 H483 0.929 . S
C495 C489 1.390 . S
C495 C492 1.386 . S
C496 C491 1.490 . S
C496 C498 1.395 . S
C496 C499 1.403 1_455 S
H497 C503 0.930 . S
C498 H484 0.930 . S
C498 C496 1.395 . S
C498 C501 1.403 1_556 S
C499 C496 1.403 1_655 S
C499 C500 1.524 . S
C499 C503 1.400 1_556 S
C500 H485 0.960 . S
C500 H486 0.960 . S
C500 H487 0.960 1_655 S
C500 C499 1.524 . S
C501 C498 1.403 1_554 S
C501 C502 1.392 1_455 S
C501 C505 1.495 . S
C502 C501 1.392 1_655 S
C502 C503 1.385 . S
C502 C504 1.478 . S
C503 H497 0.930 . S
C503 C499 1.400 1_554 S
C503 C502 1.385 . S
C504 C502 1.478 . S
C504 C506 1.381 . S
C504 C510 1.383 . S
C505 C501 1.495 . S
C505 H511 0.959 . S
C505 H512 0.961 . S
C505 H513 0.960 1_455 S
C506 C504 1.381 . S
C506 C507 1.394 . S
C506 H514 0.930 . S
C507 C506 1.394 . S
C507 C508 1.383 . S
C507 H515 0.929 . S
C508 C507 1.383 . S
C508 C509 1.377 . S
C509 H493 0.930 1_655 S
C509 C508 1.377 . S
C509 C510 1.379 . S
C510 H494 0.931 1_655 S
C510 C504 1.383 . S
C510 C509 1.379 . S
H511 C505 0.959 . S
H512 C505 0.961 . S
H513 C505 0.960 1_655 S
H514 C506 0.930 . S
H515 C507 0.929 . S
C93 C24 0.474 . S
C112 C14 0.496 . S
C129 C42 0.476 . S
C148 C52 0.475 . S
C165 C70 0.479 . S
C184 C80 0.486 . S
C201 C61 1.962 . S
C220 C26 1.922 . S
C237 C74 1.597 . S
C256 C2 1.594 . S
C273 C68 2.136 . S
C292 C22 2.110 . S
C309 C54 1.969 . S
C328 C5 1.999 . S
C345 C30 1.596 . S
C364 C18 1.597 . S
C381 C50 2.137 . S
C400 C12 2.150 . S
C417 C33 1.960 . S
C436 C82 1.922 . S
C453 C58 1.596 . S
C472 C46 1.594 . S
C489 C78 2.141 . S
C508 C40 2.160 . S
