# Generated by pormake.
# Topology ukg, (4)-cn, num edge types: 1
# Building blocks:
#     Node 0, Type 0, BuildingBlock: KUFVIS_clean_sbu_0, # of connection points: 4
#     Node 1, Type 0, BuildingBlock: KUFVIS_clean_sbu_0, # of connection points: 4
#     Node 2, Type 0, BuildingBlock: KUFVIS_clean_sbu_0, # of connection points: 4
#     Node 3, Type 0, BuildingBlock: KUFVIS_clean_sbu_0, # of connection points: 4
#     Node 4, Type 0, BuildingBlock: KUFVIS_clean_sbu_0, # of connection points: 4
#     Node 5, Type 0, BuildingBlock: KUFVIS_clean_sbu_0, # of connection points: 4
#     Node 6, Type 0, BuildingBlock: KUFVIS_clean_sbu_0, # of connection points: 4
#     Node 7, Type 0, BuildingBlock: KUFVIS_clean_sbu_0, # of connection points: 4
#     Edge 8, Type (0, 0), BuildingBlock: XIVTED_clean_linker_0, # of connection points: 2
#     Edge 9, Type (0, 0), BuildingBlock: XIVTED_clean_linker_0, # of connection points: 2
#     Edge 10, Type (0, 0), BuildingBlock: XIVTED_clean_linker_0, # of connection points: 2
#     Edge 11, Type (0, 0), BuildingBlock: XIVTED_clean_linker_0, # of connection points: 2
#     Edge 12, Type (0, 0), BuildingBlock: XIVTED_clean_linker_0, # of connection points: 2
#     Edge 13, Type (0, 0), BuildingBlock: XIVTED_clean_linker_0, # of connection points: 2
#     Edge 14, Type (0, 0), BuildingBlock: XIVTED_clean_linker_0, # of connection points: 2
#     Edge 15, Type (0, 0), BuildingBlock: XIVTED_clean_linker_0, # of connection points: 2
#     Edge 16, Type (0, 0), BuildingBlock: XIVTED_clean_linker_0, # of connection points: 2
#     Edge 17, Type (0, 0), BuildingBlock: XIVTED_clean_linker_0, # of connection points: 2
#     Edge 18, Type (0, 0), BuildingBlock: XIVTED_clean_linker_0, # of connection points: 2
#     Edge 19, Type (0, 0), BuildingBlock: XIVTED_clean_linker_0, # of connection points: 2
#     Edge 20, Type (0, 0), BuildingBlock: XIVTED_clean_linker_0, # of connection points: 2
#     Edge 21, Type (0, 0), BuildingBlock: XIVTED_clean_linker_0, # of connection points: 2
#     Edge 22, Type (0, 0), BuildingBlock: XIVTED_clean_linker_0, # of connection points: 2
#     Edge 23, Type (0, 0), BuildingBlock: XIVTED_clean_linker_0, # of connection points: 2
# Relax obj value: 0.155
# Max RMSD: 0.245
# Mean RMSD: 0.245
data_MOF--net-ukg--node1-KUFVIS_clean_sbu_0--edge1-XIVTED_clean_linker_0
_symmetry_space_group_name_H-M    P1
_symmetry_Int_Tables_number       1
_symmetry_cell_setting            triclinic
loop_
_symmetry_equiv_pos_as_xyz
'x, y, z'
_cell_length_a     30.593531
_cell_length_b     30.597011
_cell_length_c     35.872106
_cell_angle_alpha  90.085521
_cell_angle_beta   90.06016
_cell_angle_gamma 90.009684
loop_
_atom_site_label
_atom_site_type_symbol
_atom_site_fract_x
_atom_site_fract_y
_atom_site_fract_z
_atom_type_partial_charge
Mn0 Mn 0.00953 0.68266 0.15396 0.0
Mn1 Mn 0.00399 0.73831 0.07318 0.0
C2 C 0.99696 0.75669 0.15475 0.0
C3 C 0.9743 0.64277 0.2001 0.0
C4 C 0.08942 0.71422 0.11025 0.0
O5 O 0.0032 0.63419 0.11571 0.0
O6 O 0.00062 0.67406 0.06314 0.0
C7 C 0.91241 0.71585 0.05451 0.0
N8 N 0.94356 0.74659 0.06155 0.0
C9 C 0.89136 0.80482 0.05445 0.0
C10 C 0.85879 0.77379 0.04687 0.0
C11 C 0.86937 0.72912 0.04693 0.0
C12 C 0.93374 0.78966 0.06156 0.0
H13 H 0.92028 0.68146 0.05482 0.0
C14 C 0.00069 0.63733 0.08035 0.0
O15 O 0.01627 0.63906 0.19535 0.0
O16 O 0.95316 0.6676 0.17718 0.0
N17 N 0.00642 0.80053 0.07839 0.0
C18 C 0.04134 0.8262 0.08725 0.0
C19 C 0.03604 0.87173 0.08911 0.0
C20 C 0.99504 0.89041 0.08158 0.0
C21 C 0.95977 0.86338 0.07193 0.0
C22 C 0.96709 0.81824 0.07022 0.0
H23 H 0.07288 0.812 0.09325 0.0
O24 O 0.0116 0.73688 0.18411 0.0
O25 O 0.98869 0.73214 0.12584 0.0
O26 O 0.07288 0.69324 0.13763 0.0
O27 O 0.06674 0.73211 0.08446 0.0
C28 C 0.91747 0.87939 0.06451 0.0
C29 C 0.88329 0.85014 0.0558 0.0
H30 H 0.8255 0.78388 0.04123 0.0
H31 H 0.84437 0.70496 0.04129 0.0
H32 H 0.06344 0.89238 0.09652 0.0
H33 H 0.99098 0.92552 0.08338 0.0
H34 H 0.91079 0.91413 0.06574 0.0
H35 H 0.85083 0.86282 0.05047 0.0
Mn36 Mn 0.31377 0.5069 0.65063 0.0
Mn37 Mn 0.255 0.50235 0.5713 0.0
C38 C 0.23973 0.49481 0.65322 0.0
C39 C 0.35525 0.47104 0.6955 0.0
C40 C 0.28148 0.58733 0.60807 0.0
O41 O 0.36062 0.5006 0.61108 0.0
O42 O 0.31877 0.49818 0.55952 0.0
C43 C 0.2754 0.4106 0.5516 0.0
N44 N 0.24541 0.44209 0.55974 0.0
C45 C 0.18622 0.39064 0.55438 0.0
C46 C 0.21645 0.35774 0.54569 0.0
C47 C 0.26123 0.36777 0.54431 0.0
C48 C 0.20224 0.43279 0.56113 0.0
H49 H 0.30988 0.41807 0.55079 0.0
C50 C 0.35613 0.49806 0.57582 0.0
O51 O 0.35898 0.51304 0.6909 0.0
O52 O 0.3294 0.45025 0.67309 0.0
N53 N 0.19307 0.50558 0.57831 0.0
C54 C 0.16827 0.54083 0.58793 0.0
C55 C 0.12277 0.5361 0.59118 0.0
C56 C 0.10325 0.49533 0.58425 0.0
C57 C 0.12938 0.45972 0.57381 0.0
C58 C 0.1745 0.46647 0.57073 0.0
H59 H 0.18312 0.57219 0.59347 0.0
O60 O 0.26074 0.50906 0.68218 0.0
O61 O 0.26313 0.48666 0.62367 0.0
O62 O 0.30306 0.57041 0.63497 0.0
O63 O 0.26253 0.565 0.58257 0.0
C64 C 0.11249 0.41765 0.56682 0.0
C65 C 0.14089 0.38314 0.55713 0.0
H66 H 0.20568 0.3246 0.54026 0.0
H67 H 0.28478 0.3425 0.53781 0.0
H68 H 0.10282 0.56376 0.59919 0.0
H69 H 0.06819 0.49172 0.58711 0.0
H70 H 0.07774 0.41141 0.56909 0.0
H71 H 0.12755 0.35086 0.55211 0.0
Mn72 Mn 0.48822 0.8174 0.15392 0.0
Mn73 Mn 0.49223 0.75853 0.07451 0.0
C74 C 0.49805 0.74296 0.15661 0.0
C75 C 0.52476 0.85785 0.19925 0.0
C76 C 0.40758 0.78824 0.10994 0.0
O77 O 0.49642 0.86403 0.11436 0.0
O78 O 0.49962 0.82196 0.06293 0.0
C79 C 0.58526 0.77449 0.05647 0.0
N80 N 0.55215 0.74605 0.06387 0.0
C81 C 0.60055 0.68437 0.05853 0.0
C82 C 0.63511 0.71299 0.05057 0.0
C83 C 0.62742 0.75824 0.04958 0.0
C84 C 0.55918 0.70245 0.06489 0.0
H85 H 0.57957 0.80931 0.05595 0.0
C86 C 0.50015 0.85934 0.07918 0.0
O87 O 0.48296 0.86281 0.19414 0.0
O88 O 0.54506 0.83138 0.17708 0.0
N89 N 0.48585 0.69683 0.08134 0.0
C90 C 0.44931 0.67379 0.09058 0.0
C91 C 0.45167 0.6281 0.09358 0.0
C92 C 0.49144 0.60658 0.0868 0.0
C93 C 0.52842 0.63094 0.07677 0.0
C94 C 0.524 0.67636 0.0739 0.0
H95 H 0.41871 0.69018 0.09601 0.0
O96 O 0.48414 0.76438 0.18545 0.0
O97 O 0.50721 0.76612 0.12716 0.0
O98 O 0.42457 0.80857 0.13755 0.0
O99 O 0.42982 0.76901 0.0846 0.0
C100 C 0.56965 0.612 0.07009 0.0
C101 C 0.60569 0.6387 0.06099 0.0
H102 H 0.66773 0.7006 0.04548 0.0
H103 H 0.65397 0.78054 0.04366 0.0
H104 H 0.42298 0.60953 0.1013 0.0
H105 H 0.49323 0.57137 0.08949 0.0
H106 H 0.57409 0.57697 0.0722 0.0
H107 H 0.63732 0.62379 0.05625 0.0
Mn108 Mn 0.18058 0.98545 0.65668 0.0
Mn109 Mn 0.23811 0.99179 0.57679 0.0
C110 C 0.25492 0.99614 0.65886 0.0
C111 C 0.14014 0.02023 0.70291 0.0
C112 C 0.21022 0.90608 0.61123 0.0
O113 O 0.13321 0.99395 0.61772 0.0
O114 O 0.17433 -0.00178 0.5659 0.0
C115 C 0.22017 0.08483 0.56023 0.0
N116 N 0.24932 0.05212 0.56685 0.0
C117 C 0.31004 0.10173 0.56147 0.0
C118 C 0.28067 0.13589 0.55432 0.0
C119 C 0.23554 0.1274 0.55373 0.0
C120 C 0.29282 0.05993 0.56748 0.0
H121 H 0.18544 0.07852 0.56002 0.0
C122 C 0.13722 -0.00187 0.58253 0.0
O123 O 0.13579 0.9785 0.69707 0.0
O124 O 0.16612 0.04149 0.68102 0.0
N125 N 0.30004 0.98643 0.58286 0.0
C126 C 0.32391 0.95015 0.59129 0.0
C127 C 0.36961 0.95329 0.59379 0.0
C128 C 0.39029 0.99356 0.58732 0.0
C129 C 0.36509 0.03026 0.57809 0.0
C130 C 0.31969 0.02508 0.57571 0.0
H131 H 0.30817 0.91916 0.59647 0.0
O132 O 0.23411 0.98134 0.68765 0.0
O133 O 0.23122 0.00568 0.62976 0.0
O134 O 0.18993 0.92233 0.63914 0.0
O135 O 0.22893 0.92901 0.5861 0.0
C136 C 0.38317 0.07195 0.57176 0.0
C137 C 0.35566 0.10765 0.56347 0.0
H138 H 0.29237 0.16882 0.54952 0.0
H139 H 0.21266 0.15364 0.54842 0.0
H140 H 0.38884 0.9248 0.60088 0.0
H141 H 0.42552 0.99594 0.58961 0.0
H142 H 0.41816 0.07699 0.57352 0.0
H143 H 0.36992 0.13962 0.55899 0.0
Mn144 Mn 0.98671 0.31735 0.85173 0.0
Mn145 Mn 0.99336 0.26144 0.93227 0.0
C146 C -0.00073 0.24325 0.8507 0.0
C147 C 0.02037 0.35697 0.80469 0.0
C148 C 0.90748 0.28661 0.89667 0.0
O149 O 0.9944 0.36568 0.88992 0.0
O150 O 0.99737 0.32566 0.94244 0.0
C151 C 0.08538 0.28308 0.9501 0.0
N152 N 0.05391 0.25264 0.94313 0.0
C153 C 0.10584 0.19398 0.94909 0.0
C154 C 0.13873 0.2247 0.95658 0.0
C155 C 0.12844 0.26944 0.95707 0.0
C156 C 0.06345 0.2095 0.94265 0.0
H157 H 0.07772 0.31753 0.95022 0.0
C158 C 0.99741 0.36244 0.92526 0.0
O159 O 0.97863 0.36085 0.81057 0.0
O160 O 0.04234 0.3322 0.82712 0.0
N161 N 0.99042 0.19929 0.92665 0.0
C162 C 0.95525 0.17399 0.91776 0.0
C163 C 0.96024 0.12846 0.91533 0.0
C164 C 0.00123 0.10942 0.92224 0.0
C165 C 0.0368 0.13609 0.93181 0.0
C166 C 0.02978 0.18124 0.93413 0.0
H167 H 0.92373 0.18847 0.91219 0.0
O168 O 0.98359 0.26302 0.82169 0.0
O169 O 0.00806 0.26782 0.87947 0.0
O170 O 0.92388 0.30742 0.86919 0.0
O171 O 0.93033 0.26814 0.92201 0.0
C172 C 0.07911 0.11971 0.93857 0.0
C173 C 0.11361 0.14864 0.94718 0.0
H174 H 0.17205 0.21433 0.96173 0.0
H175 H 0.15369 0.29336 0.96265 0.0
H176 H 0.93263 0.10809 0.90794 0.0
H177 H 0.00504 0.07432 0.92 0.0
H178 H 0.08556 0.08496 0.93688 0.0
H179 H 0.14607 0.13568 0.95199 0.0
Mn180 Mn 0.67435 0.48525 0.34693 0.0
Mn181 Mn 0.73164 0.4982 0.4264 0.0
C182 C 0.74784 0.50066 0.34436 0.0
C183 C 0.63207 0.51506 0.29969 0.0
C184 C 0.70974 0.4097 0.394 0.0
O185 O 0.62653 0.49253 0.38555 0.0
O186 O 0.66756 0.49979 0.43725 0.0
C187 C 0.70605 0.58995 0.44101 0.0
N188 N 0.73782 0.55958 0.43495 0.0
C189 C 0.7941 0.6144 0.43836 0.0
C190 C 0.76201 0.64621 0.44491 0.0
C191 C 0.7178 0.63392 0.44621 0.0
C192 C 0.78046 0.57105 0.43366 0.0
H193 H 0.67199 0.58075 0.44174 0.0
C194 C 0.63044 0.49737 0.42069 0.0
O195 O 0.63021 0.47345 0.3068 0.0
O196 O 0.65654 0.53905 0.32088 0.0
N197 N 0.79378 0.49781 0.42026 0.0
C198 C 0.82058 0.46335 0.4127 0.0
C199 C 0.86582 0.47027 0.40976 0.0
C200 C 0.88304 0.51242 0.41486 0.0
C201 C 0.85488 0.54723 0.42322 0.0
C202 C 0.81012 0.53829 0.42613 0.0
H203 H 0.80749 0.43093 0.40854 0.0
O204 O 0.72805 0.4831 0.31611 0.0
O205 O 0.72359 0.50985 0.37319 0.0
O206 O 0.68756 0.42379 0.36631 0.0
O207 O 0.72763 0.43452 0.41835 0.0
C208 C 0.86939 0.59055 0.42821 0.0
C209 C 0.83902 0.62411 0.43576 0.0
H210 H 0.77091 0.6802 0.44869 0.0
H211 H 0.69281 0.65831 0.45105 0.0
H212 H 0.88735 0.44323 0.40335 0.0
H213 H 0.91791 0.5177 0.41221 0.0
H214 H 0.9038 0.59848 0.426 0.0
H215 H 0.85054 0.65736 0.43923 0.0
Mn216 Mn 0.51457 0.17374 0.84674 0.0
Mn217 Mn 0.50118 0.23241 0.9254 0.0
C218 C 0.49824 0.24698 0.84317 0.0
C219 C 0.48495 0.13036 0.80003 0.0
C220 C 0.58988 0.21061 0.89348 0.0
O221 O 0.50789 0.1266 0.88604 0.0
O222 O 0.50015 0.16856 0.93716 0.0
C223 C 0.40966 0.20632 0.94029 0.0
N224 N 0.43976 0.23822 0.93384 0.0
C225 C 0.38449 0.29409 0.93645 0.0
C226 C 0.35295 0.26185 0.94339 0.0
C227 C 0.36561 0.21778 0.94529 0.0
C228 C 0.42795 0.28073 0.93198 0.0
H229 H 0.41915 0.17236 0.94146 0.0
C230 C 0.503 0.13116 0.92112 0.0
O231 O 0.52661 0.12903 0.80711 0.0
O232 O 0.46084 0.15491 0.82097 0.0
N233 N 0.50103 0.29439 0.91834 0.0
C234 C 0.53521 0.3213 0.91021 0.0
C235 C 0.52789 0.3664 0.90655 0.0
C236 C 0.48563 0.38337 0.9115 0.0
C237 C 0.45111 0.35511 0.9204 0.0
C238 C 0.46044 0.31051 0.92403 0.0
H239 H 0.56771 0.30839 0.90614 0.0
O240 O 0.51604 0.22689 0.81521 0.0
O241 O 0.48948 0.22316 0.87233 0.0
O242 O 0.57597 0.18792 0.86597 0.0
O243 O 0.5649 0.22874 0.91753 0.0
C244 C 0.40767 0.36934 0.92518 0.0
C245 C 0.37438 0.33885 0.93317 0.0
H246 H 0.31889 0.27053 0.94701 0.0
H247 H 0.34143 0.19269 0.95043 0.0
H248 H 0.55471 0.388 0.8997 0.0
H249 H 0.48004 0.41812 0.90829 0.0
H250 H 0.39944 0.40361 0.92241 0.0
H251 H 0.34105 0.35014 0.93643 0.0
Mn252 Mn 0.82246 0.01486 0.34875 0.0
Mn253 Mn 0.76495 0.00681 0.42838 0.0
C254 C 0.74846 0.00179 0.34649 0.0
C255 C 0.86327 0.98167 0.30209 0.0
C256 C 0.79006 0.09331 0.39401 0.0
O257 O 0.87009 0.00732 0.38759 0.0
O258 O 0.82898 0.00332 0.43944 0.0
C259 C 0.78713 0.91482 0.44549 0.0
N260 N 0.75652 0.94605 0.43841 0.0
C261 C 0.69827 0.89345 0.44282 0.0
C262 C 0.72915 0.86079 0.45041 0.0
C263 C 0.77378 0.87153 0.45172 0.0
C264 C 0.7135 0.93608 0.4371 0.0
H265 H 0.82149 0.92283 0.44625 0.0
C266 C 0.86612 0.00391 0.42284 0.0
O267 O 0.86677 0.02342 0.30823 0.0
O268 O 0.8382 0.95948 0.32408 0.0
N269 N 0.7029 0.00923 0.42193 0.0
C270 C 0.67741 0.04432 0.41328 0.0
C271 C 0.63197 0.03891 0.41016 0.0
C272 C 0.61321 0.99762 0.41618 0.0
C273 C 0.64005 0.96215 0.42558 0.0
C274 C 0.68508 0.96958 0.4286 0.0
H275 H 0.69169 0.07607 0.40839 0.0
O276 O 0.76875 0.01777 0.31789 0.0
O277 O 0.7725 0.99289 0.37553 0.0
O278 O 0.81157 0.07747 0.36661 0.0
O279 O 0.77131 0.06997 0.41885 0.0
C280 C 0.62395 0.91959 0.43155 0.0
C281 C 0.65304 0.88526 0.44015 0.0
H282 H 0.71901 0.8273 0.455 0.0
H283 H 0.79783 0.84646 0.45738 0.0
H284 H 0.61148 0.06646 0.40292 0.0
H285 H 0.57819 0.9935 0.41342 0.0
H286 H 0.5893 0.91282 0.42931 0.0
H287 H 0.64031 0.85261 0.44439 0.0
H288 H 0.99637 0.44741 0.90043 0.0
H289 H 0.00244 0.55238 0.10525 0.0
H290 H 0.00313 0.37107 0.00147 0.0
H291 H 0.99556 0.6286 0.00415 0.0
H292 H 0.00255 0.48574 0.06774 0.0
H293 H 0.99675 0.514 0.93795 0.0
C294 C -0.0019 0.44453 0.93048 0.0
C295 C -0.00037 0.40331 0.9477 0.0
C296 C 0.00097 0.51704 0.05376 0.0
C297 C -0.00013 0.47986 0.99098 0.0
C298 C 0.00081 0.55522 0.07518 0.0
C299 C -0.00095 0.59641 0.05794 0.0
C300 C -0.00065 0.51984 0.0147 0.0
C301 C 0.99701 0.59773 0.01879 0.0
C302 C -0.00178 0.48269 0.95193 0.0
C303 C 0.00182 0.40196 0.98684 0.0
N304 N 0.99728 0.56008 0.99856 0.0
N305 N 0.00179 0.4396 0.0071 0.0
H306 H 0.36217 0.49059 0.49955 0.0
H307 H 0.62369 0.50683 0.49666 0.0
H308 H 0.44184 0.50199 0.59858 0.0
H309 H 0.54488 0.49122 0.39754 0.0
H310 H 0.55724 0.50627 0.53421 0.0
H311 H 0.42851 0.49107 0.46169 0.0
C312 C 0.39354 0.49307 0.51341 0.0
C313 C 0.39621 0.49633 0.55244 0.0
C314 C 0.55446 0.50301 0.50424 0.0
C315 C 0.47251 0.49708 0.50904 0.0
C316 C 0.59247 0.5034 0.4827 0.0
C317 C 0.5901 0.49897 0.44375 0.0
C318 C 0.51357 0.49818 0.48685 0.0
C319 C 0.54849 0.4947 0.42742 0.0
C320 C 0.43146 0.49339 0.49171 0.0
C321 C 0.43796 0.4994 0.56866 0.0
N322 N 0.51197 0.49436 0.44903 0.0
N323 N 0.47434 0.4998 0.54692 0.0
H324 H 0.51058 0.86451 0.0032 0.0
H325 H 0.49343 0.1258 0.99715 0.0
H326 H 0.49654 0.94539 0.10126 0.0
H327 H 0.51026 0.04525 0.89921 0.0
H328 H 0.49434 0.06008 0.03561 0.0
H329 H 0.51131 0.9303 0.96479 0.0
C330 C 0.50783 0.89604 0.01675 0.0
C331 C 0.50335 0.8992 0.05566 0.0
C332 C 0.49781 0.05677 0.00571 0.0
C333 C 0.50396 0.97492 0.01157 0.0
C334 C 0.49721 0.09435 0.98364 0.0
C335 C 0.50182 0.09127 0.94474 0.0
C336 C 0.50303 0.0156 0.98889 0.0
C337 C 0.50659 0.04941 0.92901 0.0
C338 C 0.50818 0.93366 0.99472 0.0
C339 C 0.50003 0.94115 0.07145 0.0
N340 N 0.5071 0.01333 0.95112 0.0
N341 N 0.50026 0.97726 0.04937 0.0
H342 H 0.95167 0.00665 0.39949 0.0
H343 H 0.05167 0.99692 0.60597 0.0
H344 H 0.873 0.99719 0.49908 0.0
H345 H 0.13038 0.00602 0.50638 0.0
H346 H 0.98596 -0.00195 0.56733 0.0
H347 H 0.01737 0.00652 0.43817 0.0
C348 C 0.9481 0.00439 0.42946 0.0
C349 C 0.90649 0.00197 0.44594 0.0
C350 C 0.0176 -0.00011 0.55393 0.0
C351 C 0.98198 0.00202 0.49054 0.0
C352 C 0.05525 -0.00065 0.57601 0.0
C353 C 0.09687 0.00126 0.55952 0.0
C354 C 0.02136 0.00233 0.51496 0.0
C355 C 0.09915 0.00439 0.52046 0.0
C356 C 0.98574 0.00442 0.45157 0.0
C357 C 0.90422 -0.00085 0.48501 0.0
N358 N 0.062 0.00471 0.49958 0.0
N359 N 0.94136 -0.00068 0.50591 0.0
H360 H 0.14681 0.70947 0.16875 0.0
H361 H 0.35662 0.77123 0.0491 0.0
H362 H 0.14028 0.73783 0.05097 0.0
H363 H 0.34992 0.79079 0.16817 0.0
H364 H 0.27905 0.75223 0.04879 0.0
H365 H 0.224 0.73041 0.16857 0.0
C366 C 0.16172 0.71951 0.14276 0.0
C367 C 0.13707 0.72185 0.1098 0.0
C368 C 0.29449 0.76108 0.07491 0.0
C369 C 0.22507 0.74616 0.10955 0.0
C370 C 0.33869 0.772 0.07512 0.0
C371 C 0.3597 0.78267 0.10872 0.0
C372 C 0.27131 0.76006 0.10862 0.0
C373 C 0.33492 0.78311 0.14161 0.0
C374 C 0.20561 0.7319 0.14279 0.0
C375 C 0.15801 0.73561 0.07703 0.0
N376 N 0.29207 0.77145 0.14081 0.0
N377 N 0.20084 0.74715 0.07772 0.0
H378 H 0.28826 0.64415 0.66679 0.0
H379 H 0.22798 0.85633 0.54978 0.0
H380 H 0.25755 0.63898 0.54933 0.0
H381 H 0.20771 0.84737 0.66862 0.0
H382 H 0.24666 0.77865 0.54848 0.0
H383 H 0.26859 0.72164 0.66732 0.0
C384 C 0.27797 0.65942 0.64101 0.0
C385 C 0.27456 0.63508 0.60794 0.0
C386 C 0.23775 0.79365 0.57475 0.0
C387 C 0.25176 0.72344 0.6085 0.0
C388 C 0.22704 0.83791 0.57553 0.0
C389 C 0.21617 0.85828 0.60936 0.0
C390 C 0.2384 0.76982 0.60812 0.0
C391 C 0.21552 0.83288 0.6419 0.0
C392 C 0.26632 0.70348 0.64145 0.0
C393 C 0.26055 0.65648 0.57546 0.0
N394 N 0.22697 0.79001 0.64054 0.0
N395 N 0.24975 0.6995 0.57653 0.0
H396 H 0.637 0.23546 0.95495 0.0
H397 H 0.84995 0.29387 0.83873 0.0
H398 H 0.65011 0.20743 0.83747 0.0
H399 H 0.85634 0.26323 0.95611 0.0
H400 H 0.77244 0.27484 0.83885 0.0
H401 H 0.71433 0.25636 0.95686 0.0
C402 C 0.65619 0.23342 0.92965 0.0
C403 C 0.63718 0.21952 0.89602 0.0
C404 C 0.79084 0.2725 0.86459 0.0
C405 C 0.72496 0.24423 0.89792 0.0
C406 C 0.83495 0.28374 0.86465 0.0
C407 C 0.85968 0.28004 0.89747 0.0
C408 C 0.77115 0.25807 0.89764 0.0
C409 C 0.83852 0.26635 0.93016 0.0
C410 C 0.7002 0.24535 0.93079 0.0
C411 C 0.66351 0.21757 0.86406 0.0
N412 N 0.79535 0.25591 0.92946 0.0
N413 N 0.70599 0.2302 0.86572 0.0
H414 H 0.7346 0.36214 0.45514 0.0
H415 H 0.79659 0.15159 0.33667 0.0
H416 H 0.70695 0.34995 0.33749 0.0
H417 H 0.76602 0.14336 0.45398 0.0
H418 H 0.77622 0.22878 0.33761 0.0
H419 H 0.75655 0.2851 0.45626 0.0
C420 C 0.73281 0.3432 0.42965 0.0
C421 C 0.71876 0.3624 0.39619 0.0
C422 C 0.7742 0.21004 0.36315 0.0
C423 C 0.74472 0.27499 0.39719 0.0
C424 C 0.78621 0.16613 0.36275 0.0
C425 C 0.7829 0.14098 0.3953 0.0
C426 C 0.75939 0.22908 0.39641 0.0
C427 C 0.76885 0.16153 0.42822 0.0
C428 C 0.74536 0.29937 0.43033 0.0
C429 C 0.71718 0.33639 0.36396 0.0
N430 N 0.75765 0.20449 0.42797 0.0
N431 N 0.73044 0.29411 0.36519 0.0
H432 H 0.8199 0.45916 0.31791 0.0
H433 H 0.91099 0.68029 0.24098 0.0
H434 H 0.77252 0.58507 0.35325 0.0
H435 H 0.98424 0.56059 0.2305 0.0
H436 H 0.86499 0.64617 0.2879 0.0
H437 H 0.88529 0.4944 0.29223 0.0
C438 C 0.82413 0.4941 0.32131 0.0
C439 C 0.79144 0.5193 0.33824 0.0
C440 C 0.89143 0.62732 0.27589 0.0
C441 C 0.86484 0.55993 0.30781 0.0
C442 C 0.91755 0.64676 0.24893 0.0
C443 C 0.95093 0.62291 0.23163 0.0
C444 C 0.89784 0.58318 0.28495 0.0
C445 C 0.95858 0.57987 0.2432 0.0
C446 C 0.86131 0.51419 0.30663 0.0
C447 C 0.79759 0.56447 0.34121 0.0
N448 N 0.93152 0.56094 0.26868 0.0
N449 N 0.83331 0.58343 0.32569 0.0
H450 H 0.43576 0.48577 0.728 0.0
H451 H 0.41343 0.2699 0.85226 0.0
H452 H 0.32218 0.4025 0.73305 0.0
H453 H 0.53773 0.31927 0.81492 0.0
H454 H 0.37765 0.33431 0.82584 0.0
H455 H 0.47143 0.43918 0.77527 0.0
C456 C 0.4182 0.45816 0.73948 0.0
C457 C 0.37641 0.44733 0.72631 0.0
C458 C 0.4129 0.33165 0.82423 0.0
C459 C 0.41611 0.39507 0.78038 0.0
C460 C 0.4333 0.29523 0.83972 0.0
C461 C 0.47854 0.28996 0.83631 0.0
C462 C 0.43787 0.36243 0.80446 0.0
C463 C 0.50274 0.32268 0.81839 0.0
C464 C 0.43845 0.43169 0.76631 0.0
C465 C 0.35481 0.41142 0.74201 0.0
N466 N 0.48206 0.35748 0.80278 0.0
N467 N 0.37492 0.38654 0.76809 0.0
H468 H 0.59098 0.82238 0.23834 0.0
H469 H 0.67718 0.04316 0.31835 0.0
H470 H 0.51294 0.93935 0.23081 0.0
H471 H 0.72266 0.91801 0.35708 0.0
H472 H 0.61265 0.00749 0.29132 0.0
H473 H 0.63601 0.85709 0.28581 0.0
C474 C 0.58322 0.85545 0.24695 0.0
C475 C 0.54866 0.87835 0.23036 0.0
C476 C 0.63596 0.98801 0.30679 0.0
C477 C 0.60051 0.91865 0.28453 0.0
C478 C 0.67263 0.00835 0.32227 0.0
C479 C 0.70467 0.98345 0.3404 0.0
C480 C 0.63235 0.9423 0.30838 0.0
C481 C 0.69811 0.9384 0.34403 0.0
C482 C 0.60874 0.87516 0.27429 0.0
C483 C 0.53953 0.9208 0.24288 0.0
N484 N 0.66302 0.91915 0.32762 0.0
N485 N 0.56597 0.94005 0.26877 0.0
H486 H 0.08268 0.21749 0.86345 0.0
H487 H 0.05941 0.00518 0.73459 0.0
H488 H 0.95863 0.1717 0.82204 0.0
H489 H 0.17376 0.08709 0.74266 0.0
H490 H 0.02384 0.05053 0.78281 0.0
H491 H 0.11776 0.15239 0.83747 0.0
C492 C 0.06261 0.19274 0.85022 0.0
C493 C 0.01772 0.19938 0.8453 0.0
C494 C 0.05698 0.05794 0.77433 0.0
C495 C 0.05771 0.12615 0.81398 0.0
C496 C 0.07718 0.03219 0.74695 0.0
C497 C 0.11915 0.04306 0.73433 0.0
C498 C 0.07954 0.09387 0.78954 0.0
C499 C 0.141 0.07819 0.75117 0.0
C500 C 0.08266 0.15594 0.83495 0.0
C501 C 0.99335 0.1673 0.8266 0.0
N502 N 0.12092 0.10239 0.77779 0.0
N503 N 0.01373 0.13217 0.81118 0.0
H504 H 0.08315 0.31966 0.763 0.0
H505 H 0.1701 0.53792 0.68218 0.0
H506 H 0.00739 0.43789 0.77282 0.0
H507 H 0.21114 0.41226 0.64087 0.0
H508 H 0.10511 0.50368 0.70941 0.0
H509 H 0.12576 0.353 0.71339 0.0
C510 C 0.07536 0.3527 0.7544 0.0
C511 C 0.0423 0.37642 0.77226 0.0
C512 C 0.12748 0.48381 0.69328 0.0
C513 C 0.09135 0.41517 0.71575 0.0
C514 C 0.16442 0.50335 0.67771 0.0
C515 C 0.19542 0.47783 0.65892 0.0
C516 C 0.12263 0.43825 0.69117 0.0
C517 C 0.18743 0.4331 0.65452 0.0
C518 C 0.09944 0.37163 0.72585 0.0
C519 C 0.03293 0.41877 0.75977 0.0
N520 N 0.15216 0.41456 0.67111 0.0
N521 N 0.05809 0.4373 0.73272 0.0
H522 H 0.67167 0.5628 0.247 0.0
H523 H 0.45216 0.67519 0.18569 0.0
H524 H 0.5455 0.51306 0.27907 0.0
H525 H 0.57905 0.71069 0.14366 0.0
H526 H 0.48309 0.60706 0.2101 0.0
H527 H 0.63697 0.60744 0.19924 0.0
C528 C 0.63654 0.56087 0.2434 0.0
C529 C 0.6112 0.53479 0.26698 0.0
C530 C 0.50393 0.62904 0.19454 0.0
C531 C 0.57091 0.58677 0.21325 0.0
C532 C 0.48626 0.66777 0.18056 0.0
C533 C 0.51306 0.69792 0.16213 0.0
C534 C 0.54899 0.62128 0.19102 0.0
C535 C 0.55717 0.68765 0.15689 0.0
C536 C 0.61668 0.58631 0.21615 0.0
C537 C 0.56596 0.53299 0.26129 0.0
N538 N 0.57388 0.65041 0.17166 0.0
N539 N 0.54701 0.55952 0.23543 0.0
H540 H 0.43931 0.16964 0.74578 0.0
H541 H 0.32332 0.95008 0.68675 0.0
H542 H 0.48477 0.04317 0.78137 0.0
H543 H 0.28674 0.07753 0.64671 0.0
H544 H 0.39189 0.98077 0.71068 0.0
H545 H 0.3939 0.13469 0.69853 0.0
C546 C 0.4402 0.13436 0.74302 0.0
C547 C 0.46529 0.10905 0.76744 0.0
C548 C 0.36954 0.00181 0.69568 0.0
C549 C 0.41233 0.06856 0.71436 0.0
C550 C 0.33056 0.98428 0.68197 0.0
C551 C 0.30001 0.01128 0.66418 0.0
C552 C 0.37721 0.04692 0.69252 0.0
C553 C 0.31008 0.05549 0.65939 0.0
C554 C 0.41427 0.11437 0.7161 0.0
C555 C 0.46568 0.06362 0.76289 0.0
N556 N 0.34762 0.07204 0.67385 0.0
N557 N 0.43872 0.04462 0.73731 0.0
H558 H 0.91467 0.78514 0.14094 0.0
H559 H 0.94487 0.99484 0.27144 0.0
H560 H 0.03987 0.82712 0.18273 0.0
H561 H 0.82686 0.91901 0.25962 0.0
H562 H 0.9791 0.94968 0.22237 0.0
H563 H 0.88174 0.85195 0.16576 0.0
C564 C 0.93548 0.80938 0.15401 0.0
C565 C 0.98003 0.80122 0.15938 0.0
C566 C 0.94545 0.94365 0.23016 0.0
C567 C 0.94245 0.87633 0.18951 0.0
C568 C 0.92604 0.96929 0.25801 0.0
C569 C 0.88344 0.95986 0.26986 0.0
C570 C 0.92152 0.9093 0.21382 0.0
C571 C 0.86014 0.92664 0.2517 0.0
C572 C 0.91667 0.84719 0.1686 0.0
C573 C 0.00539 0.8327 0.17785 0.0
N574 N 0.87953 0.90245 0.22475 0.0
N575 N 0.98615 0.86876 0.19273 0.0
loop_
_geom_bond_atom_site_label_1
_geom_bond_atom_site_label_2
_geom_bond_distance
_geom_bond_site_symmetry_2
_ccdc_geom_bond_type
Mn0 O5 2.095 . S
Mn0 O15 2.162 . S
Mn0 O16 2.297 1_455 S
Mn0 O24 2.385 . S
Mn0 O25 2.209 1_455 S
Mn0 O26 2.094 . S
Mn1 O6 2.121 . S
Mn1 N8 2.256 . S
Mn1 N17 2.282 . S
Mn1 O25 2.215 1_455 S
Mn1 O27 2.117 . S
C2 O24 1.234 1_655 S
C2 O25 1.283 . S
C3 O15 1.281 1_655 S
C3 O16 1.236 . S
C4 O26 1.240 . S
C4 O27 1.264 . S
O5 Mn0 2.095 . S
O5 C14 1.250 . S
O6 Mn1 2.121 . S
O6 C14 1.258 . S
C7 N8 1.327 1_655 S
C7 C11 1.460 . S
C7 H13 0.929 . S
N8 Mn1 2.256 . S
N8 C7 1.327 1_455 S
N8 C12 1.362 . S
C9 C10 1.258 . S
C9 C12 1.431 1_655 S
C9 C29 1.449 . S
C10 C9 1.258 . S
C10 C11 1.477 . S
C10 H30 0.931 . S
C11 C7 1.460 . S
C11 C10 1.477 . S
C11 H31 0.930 . S
C12 N8 1.362 . S
C12 C9 1.431 1_455 S
C12 C22 1.476 . S
H13 C7 0.929 . S
C14 O5 1.250 . S
C14 O6 1.258 . S
O15 Mn0 2.162 . S
O15 C3 1.281 1_455 S
O16 Mn0 2.297 1_655 S
O16 C3 1.236 . S
N17 Mn1 2.282 . S
N17 C18 1.328 . S
N17 C22 1.318 . S
C18 N17 1.328 . S
C18 C19 1.457 . S
C18 H23 0.929 . S
C19 C18 1.457 . S
C19 C20 1.291 . S
C19 H32 0.931 . S
C20 C19 1.291 . S
C20 C21 1.373 . S
C20 H33 0.929 . S
C21 C20 1.373 . S
C21 C22 1.396 . S
C21 C28 1.403 . S
C22 C12 1.476 . S
C22 N17 1.318 . S
C22 C21 1.396 . S
H23 C18 0.929 . S
O24 Mn0 2.385 . S
O24 C2 1.234 1_455 S
O25 Mn0 2.209 1_655 S
O25 Mn1 2.215 1_655 S
O25 C2 1.283 . S
O26 Mn0 2.094 . S
O26 C4 1.240 . S
O27 Mn1 2.117 . S
O27 C4 1.264 . S
C28 C21 1.403 . S
C28 C29 1.399 1_455 S
C28 H34 0.929 . S
C29 C9 1.449 . S
C29 C28 1.399 1_655 S
C29 H35 0.930 . S
H30 C10 0.931 . S
H31 C11 0.930 . S
H32 C19 0.931 . S
H33 C20 0.929 . S
H34 C28 0.929 . S
H35 C29 0.930 . S
Mn36 O41 2.095 . S
Mn36 O51 2.162 . S
Mn36 O52 2.297 . S
Mn36 O60 2.385 . S
Mn36 O61 2.209 . S
Mn36 O62 2.094 . S
Mn37 O42 2.121 . S
Mn37 N44 2.257 . S
Mn37 N53 2.282 . S
Mn37 O61 2.215 . S
Mn37 O63 2.117 . S
C38 O60 1.234 . S
C38 O61 1.283 . S
C39 O51 1.281 . S
C39 O52 1.236 . S
C40 O62 1.240 . S
C40 O63 1.264 . S
O41 Mn36 2.095 . S
O41 C50 1.250 . S
O42 Mn37 2.121 . S
O42 C50 1.258 . S
C43 N44 1.326 . S
C43 C47 1.460 . S
C43 H49 0.929 . S
N44 Mn37 2.257 . S
N44 C43 1.326 . S
N44 C48 1.362 . S
C45 C46 1.258 . S
C45 C48 1.431 . S
C45 C65 1.449 . S
C46 C45 1.258 . S
C46 C47 1.477 . S
C46 H66 0.931 . S
C47 C43 1.460 . S
C47 C46 1.477 . S
C47 H67 0.930 . S
C48 N44 1.362 . S
C48 C45 1.431 . S
C48 C58 1.476 . S
H49 C43 0.929 . S
C50 O41 1.250 . S
C50 O42 1.258 . S
O51 Mn36 2.162 . S
O51 C39 1.281 . S
O52 Mn36 2.297 . S
O52 C39 1.236 . S
N53 Mn37 2.282 . S
N53 C54 1.328 . S
N53 C58 1.318 . S
C54 N53 1.328 . S
C54 C55 1.457 . S
C54 H59 0.929 . S
C55 C54 1.457 . S
C55 C56 1.291 . S
C55 H68 0.931 . S
C56 C55 1.291 . S
C56 C57 1.373 . S
C56 H69 0.929 . S
C57 C56 1.373 . S
C57 C58 1.396 . S
C57 C64 1.403 . S
C58 C48 1.476 . S
C58 N53 1.318 . S
C58 C57 1.396 . S
H59 C54 0.929 . S
O60 Mn36 2.385 . S
O60 C38 1.234 . S
O61 Mn36 2.209 . S
O61 Mn37 2.215 . S
O61 C38 1.283 . S
O62 Mn36 2.094 . S
O62 C40 1.240 . S
O63 Mn37 2.117 . S
O63 C40 1.264 . S
C64 C57 1.403 . S
C64 C65 1.399 . S
C64 H70 0.929 . S
C65 C45 1.449 . S
C65 C64 1.399 . S
C65 H71 0.930 . S
H66 C46 0.931 . S
H67 C47 0.930 . S
H68 C55 0.931 . S
H69 C56 0.929 . S
H70 C64 0.929 . S
H71 C65 0.930 . S
Mn72 O77 2.095 . S
Mn72 O87 2.162 . S
Mn72 O88 2.297 . S
Mn72 O96 2.385 . S
Mn72 O97 2.209 . S
Mn72 O98 2.094 . S
Mn73 O78 2.121 . S
Mn73 N80 2.257 . S
Mn73 N89 2.282 . S
Mn73 O97 2.215 . S
Mn73 O99 2.117 . S
C74 O96 1.234 . S
C74 O97 1.283 . S
C75 O87 1.281 . S
C75 O88 1.236 . S
C76 O98 1.240 . S
C76 O99 1.264 . S
O77 Mn72 2.095 . S
O77 C86 1.250 . S
O78 Mn73 2.121 . S
O78 C86 1.258 . S
C79 N80 1.326 . S
C79 C83 1.460 . S
C79 H85 0.929 . S
N80 Mn73 2.257 . S
N80 C79 1.326 . S
N80 C84 1.362 . S
C81 C82 1.258 . S
C81 C84 1.431 . S
C81 C101 1.449 . S
C82 C81 1.258 . S
C82 C83 1.477 . S
C82 H102 0.931 . S
C83 C79 1.460 . S
C83 C82 1.477 . S
C83 H103 0.930 . S
C84 N80 1.362 . S
C84 C81 1.431 . S
C84 C94 1.476 . S
H85 C79 0.929 . S
C86 O77 1.250 . S
C86 O78 1.258 . S
O87 Mn72 2.162 . S
O87 C75 1.281 . S
O88 Mn72 2.297 . S
O88 C75 1.236 . S
N89 Mn73 2.282 . S
N89 C90 1.328 . S
N89 C94 1.318 . S
C90 N89 1.328 . S
C90 C91 1.457 . S
C90 H95 0.929 . S
C91 C90 1.457 . S
C91 C92 1.291 . S
C91 H104 0.931 . S
C92 C91 1.291 . S
C92 C93 1.373 . S
C92 H105 0.929 . S
C93 C92 1.373 . S
C93 C94 1.396 . S
C93 C100 1.403 . S
C94 C84 1.476 . S
C94 N89 1.318 . S
C94 C93 1.396 . S
H95 C90 0.929 . S
O96 Mn72 2.385 . S
O96 C74 1.234 . S
O97 Mn72 2.209 . S
O97 Mn73 2.215 . S
O97 C74 1.283 . S
O98 Mn72 2.094 . S
O98 C76 1.240 . S
O99 Mn73 2.117 . S
O99 C76 1.264 . S
C100 C93 1.403 . S
C100 C101 1.399 . S
C100 H106 0.929 . S
C101 C81 1.449 . S
C101 C100 1.399 . S
C101 H107 0.930 . S
H102 C82 0.931 . S
H103 C83 0.930 . S
H104 C91 0.931 . S
H105 C92 0.929 . S
H106 C100 0.929 . S
H107 C101 0.930 . S
Mn108 O113 2.095 . S
Mn108 O123 2.162 . S
Mn108 O124 2.297 1_565 S
Mn108 O132 2.385 . S
Mn108 O133 2.209 1_565 S
Mn108 O134 2.094 . S
Mn109 O114 2.121 . S
Mn109 N116 2.256 . S
Mn109 N125 2.282 . S
Mn109 O133 2.215 1_565 S
Mn109 O135 2.117 . S
C110 O132 1.234 1_545 S
C110 O133 1.283 . S
C111 O123 1.281 1_545 S
C111 O124 1.236 . S
C112 O134 1.240 . S
C112 O135 1.264 . S
O113 Mn108 2.095 . S
O113 C122 1.250 . S
O114 Mn109 2.121 . S
O114 C122 1.258 . S
C115 N116 1.327 1_545 S
C115 C119 1.460 . S
C115 H121 0.929 . S
N116 Mn109 2.256 . S
N116 C115 1.327 1_565 S
N116 C120 1.362 . S
C117 C118 1.258 . S
C117 C120 1.431 1_545 S
C117 C137 1.449 . S
C118 C117 1.258 . S
C118 C119 1.477 . S
C118 H138 0.931 . S
C119 C115 1.460 . S
C119 C118 1.477 . S
C119 H139 0.930 . S
C120 N116 1.362 . S
C120 C117 1.431 1_565 S
C120 C130 1.476 . S
H121 C115 0.929 . S
C122 O113 1.250 . S
C122 O114 1.258 . S
O123 Mn108 2.162 . S
O123 C111 1.281 1_565 S
O124 Mn108 2.297 1_545 S
O124 C111 1.236 . S
N125 Mn109 2.282 . S
N125 C126 1.328 . S
N125 C130 1.318 . S
C126 N125 1.328 . S
C126 C127 1.457 . S
C126 H131 0.929 . S
C127 C126 1.457 . S
C127 C128 1.291 . S
C127 H140 0.931 . S
C128 C127 1.291 . S
C128 C129 1.373 . S
C128 H141 0.929 . S
C129 C128 1.373 . S
C129 C130 1.396 . S
C129 C136 1.403 . S
C130 C120 1.476 . S
C130 N125 1.318 . S
C130 C129 1.396 . S
H131 C126 0.929 . S
O132 Mn108 2.385 . S
O132 C110 1.234 1_565 S
O133 Mn108 2.209 1_545 S
O133 Mn109 2.215 1_545 S
O133 C110 1.283 . S
O134 Mn108 2.094 . S
O134 C112 1.240 . S
O135 Mn109 2.117 . S
O135 C112 1.264 . S
C136 C129 1.403 . S
C136 C137 1.399 1_565 S
C136 H142 0.929 . S
C137 C117 1.449 . S
C137 C136 1.399 1_545 S
C137 H143 0.930 . S
H138 C118 0.931 . S
H139 C119 0.930 . S
H140 C127 0.931 . S
H141 C128 0.929 . S
H142 C136 0.929 . S
H143 C137 0.930 . S
Mn144 O149 2.095 . S
Mn144 O159 2.162 . S
Mn144 O160 2.297 1_655 S
Mn144 O168 2.385 . S
Mn144 O169 2.209 1_655 S
Mn144 O170 2.094 . S
Mn145 O150 2.121 . S
Mn145 N152 2.256 . S
Mn145 N161 2.282 . S
Mn145 O169 2.215 1_655 S
Mn145 O171 2.117 . S
C146 O168 1.234 1_455 S
C146 O169 1.283 . S
C147 O159 1.281 1_455 S
C147 O160 1.236 . S
C148 O170 1.240 . S
C148 O171 1.264 . S
O149 Mn144 2.095 . S
O149 C158 1.250 . S
O150 Mn145 2.121 . S
O150 C158 1.258 . S
C151 N152 1.327 1_455 S
C151 C155 1.460 . S
C151 H157 0.929 . S
N152 Mn145 2.256 . S
N152 C151 1.327 1_655 S
N152 C156 1.362 . S
C153 C154 1.258 . S
C153 C156 1.431 1_455 S
C153 C173 1.449 . S
C154 C153 1.258 . S
C154 C155 1.477 . S
C154 H174 0.931 . S
C155 C151 1.460 . S
C155 C154 1.477 . S
C155 H175 0.930 . S
C156 N152 1.362 . S
C156 C153 1.431 1_655 S
C156 C166 1.476 . S
H157 C151 0.929 . S
C158 O149 1.250 . S
C158 O150 1.258 . S
O159 Mn144 2.162 . S
O159 C147 1.281 1_655 S
O160 Mn144 2.297 1_455 S
O160 C147 1.236 . S
N161 Mn145 2.282 . S
N161 C162 1.328 . S
N161 C166 1.318 . S
C162 N161 1.328 . S
C162 C163 1.457 . S
C162 H167 0.929 . S
C163 C162 1.457 . S
C163 C164 1.291 . S
C163 H176 0.931 . S
C164 C163 1.291 . S
C164 C165 1.373 . S
C164 H177 0.929 . S
C165 C164 1.373 . S
C165 C166 1.396 . S
C165 C172 1.403 . S
C166 C156 1.476 . S
C166 N161 1.318 . S
C166 C165 1.396 . S
H167 C162 0.929 . S
O168 Mn144 2.385 . S
O168 C146 1.234 1_655 S
O169 Mn144 2.209 1_455 S
O169 Mn145 2.215 1_455 S
O169 C146 1.283 . S
O170 Mn144 2.094 . S
O170 C148 1.240 . S
O171 Mn145 2.117 . S
O171 C148 1.264 . S
C172 C165 1.403 . S
C172 C173 1.399 1_655 S
C172 H178 0.929 . S
C173 C153 1.449 . S
C173 C172 1.399 1_455 S
C173 H179 0.930 . S
H174 C154 0.931 . S
H175 C155 0.930 . S
H176 C163 0.931 . S
H177 C164 0.929 . S
H178 C172 0.929 . S
H179 C173 0.930 . S
Mn180 O185 2.095 . S
Mn180 O195 2.162 . S
Mn180 O196 2.297 . S
Mn180 O204 2.385 . S
Mn180 O205 2.209 . S
Mn180 O206 2.094 . S
Mn181 O186 2.121 . S
Mn181 N188 2.257 . S
Mn181 N197 2.282 . S
Mn181 O205 2.215 . S
Mn181 O207 2.117 . S
C182 O204 1.234 . S
C182 O205 1.283 . S
C183 O195 1.281 . S
C183 O196 1.236 . S
C184 O206 1.240 . S
C184 O207 1.264 . S
O185 Mn180 2.095 . S
O185 C194 1.250 . S
O186 Mn181 2.121 . S
O186 C194 1.258 . S
C187 N188 1.326 . S
C187 C191 1.460 . S
C187 H193 0.929 . S
N188 Mn181 2.257 . S
N188 C187 1.326 . S
N188 C192 1.362 . S
C189 C190 1.258 . S
C189 C192 1.431 . S
C189 C209 1.449 . S
C190 C189 1.258 . S
C190 C191 1.477 . S
C190 H210 0.931 . S
C191 C187 1.460 . S
C191 C190 1.477 . S
C191 H211 0.930 . S
C192 N188 1.362 . S
C192 C189 1.431 . S
C192 C202 1.476 . S
H193 C187 0.929 . S
C194 O185 1.250 . S
C194 O186 1.258 . S
O195 Mn180 2.162 . S
O195 C183 1.281 . S
O196 Mn180 2.297 . S
O196 C183 1.236 . S
N197 Mn181 2.282 . S
N197 C198 1.328 . S
N197 C202 1.318 . S
C198 N197 1.328 . S
C198 C199 1.457 . S
C198 H203 0.929 . S
C199 C198 1.457 . S
C199 C200 1.291 . S
C199 H212 0.931 . S
C200 C199 1.291 . S
C200 C201 1.373 . S
C200 H213 0.929 . S
C201 C200 1.373 . S
C201 C202 1.396 . S
C201 C208 1.403 . S
C202 C192 1.476 . S
C202 N197 1.318 . S
C202 C201 1.396 . S
H203 C198 0.929 . S
O204 Mn180 2.385 . S
O204 C182 1.234 . S
O205 Mn180 2.209 . S
O205 Mn181 2.215 . S
O205 C182 1.283 . S
O206 Mn180 2.094 . S
O206 C184 1.240 . S
O207 Mn181 2.117 . S
O207 C184 1.264 . S
C208 C201 1.403 . S
C208 C209 1.399 . S
C208 H214 0.929 . S
C209 C189 1.449 . S
C209 C208 1.399 . S
C209 H215 0.930 . S
H210 C190 0.931 . S
H211 C191 0.930 . S
H212 C199 0.931 . S
H213 C200 0.929 . S
H214 C208 0.929 . S
H215 C209 0.930 . S
Mn216 O221 2.095 . S
Mn216 O231 2.162 . S
Mn216 O232 2.297 . S
Mn216 O240 2.385 . S
Mn216 O241 2.209 . S
Mn216 O242 2.094 . S
Mn217 O222 2.121 . S
Mn217 N224 2.257 . S
Mn217 N233 2.282 . S
Mn217 O241 2.215 . S
Mn217 O243 2.117 . S
C218 O240 1.234 . S
C218 O241 1.283 . S
C219 O231 1.281 . S
C219 O232 1.236 . S
C220 O242 1.240 . S
C220 O243 1.264 . S
O221 Mn216 2.095 . S
O221 C230 1.250 . S
O222 Mn217 2.121 . S
O222 C230 1.258 . S
C223 N224 1.326 . S
C223 C227 1.460 . S
C223 H229 0.929 . S
N224 Mn217 2.257 . S
N224 C223 1.326 . S
N224 C228 1.362 . S
C225 C226 1.258 . S
C225 C228 1.431 . S
C225 C245 1.449 . S
C226 C225 1.258 . S
C226 C227 1.477 . S
C226 H246 0.931 . S
C227 C223 1.460 . S
C227 C226 1.477 . S
C227 H247 0.930 . S
C228 N224 1.362 . S
C228 C225 1.431 . S
C228 C238 1.476 . S
H229 C223 0.929 . S
C230 O221 1.250 . S
C230 O222 1.258 . S
O231 Mn216 2.162 . S
O231 C219 1.281 . S
O232 Mn216 2.297 . S
O232 C219 1.236 . S
N233 Mn217 2.282 . S
N233 C234 1.328 . S
N233 C238 1.318 . S
C234 N233 1.328 . S
C234 C235 1.457 . S
C234 H239 0.929 . S
C235 C234 1.457 . S
C235 C236 1.291 . S
C235 H248 0.931 . S
C236 C235 1.291 . S
C236 C237 1.373 . S
C236 H249 0.929 . S
C237 C236 1.373 . S
C237 C238 1.396 . S
C237 C244 1.403 . S
C238 C228 1.476 . S
C238 N233 1.318 . S
C238 C237 1.396 . S
H239 C234 0.929 . S
O240 Mn216 2.385 . S
O240 C218 1.234 . S
O241 Mn216 2.209 . S
O241 Mn217 2.215 . S
O241 C218 1.283 . S
O242 Mn216 2.094 . S
O242 C220 1.240 . S
O243 Mn217 2.117 . S
O243 C220 1.264 . S
C244 C237 1.403 . S
C244 C245 1.399 . S
C244 H250 0.929 . S
C245 C225 1.449 . S
C245 C244 1.399 . S
C245 H251 0.930 . S
H246 C226 0.931 . S
H247 C227 0.930 . S
H248 C235 0.931 . S
H249 C236 0.929 . S
H250 C244 0.929 . S
H251 C245 0.930 . S
Mn252 O257 2.095 . S
Mn252 O267 2.162 . S
Mn252 O268 2.297 1_545 S
Mn252 O276 2.385 . S
Mn252 O277 2.209 1_545 S
Mn252 O278 2.094 . S
Mn253 O258 2.121 . S
Mn253 N260 2.256 . S
Mn253 N269 2.282 . S
Mn253 O277 2.215 1_545 S
Mn253 O279 2.117 . S
C254 O276 1.234 1_565 S
C254 O277 1.283 . S
C255 O267 1.281 1_565 S
C255 O268 1.236 . S
C256 O278 1.240 . S
C256 O279 1.264 . S
O257 Mn252 2.095 . S
O257 C266 1.250 . S
O258 Mn253 2.121 . S
O258 C266 1.258 . S
C259 N260 1.327 1_565 S
C259 C263 1.460 . S
C259 H265 0.929 . S
N260 Mn253 2.256 . S
N260 C259 1.327 1_545 S
N260 C264 1.362 . S
C261 C262 1.258 . S
C261 C264 1.431 1_565 S
C261 C281 1.449 . S
C262 C261 1.258 . S
C262 C263 1.477 . S
C262 H282 0.931 . S
C263 C259 1.460 . S
C263 C262 1.477 . S
C263 H283 0.930 . S
C264 N260 1.362 . S
C264 C261 1.431 1_545 S
C264 C274 1.476 . S
H265 C259 0.929 . S
C266 O257 1.250 . S
C266 O258 1.258 . S
O267 Mn252 2.162 . S
O267 C255 1.281 1_545 S
O268 Mn252 2.297 1_565 S
O268 C255 1.236 . S
N269 Mn253 2.282 . S
N269 C270 1.328 . S
N269 C274 1.318 . S
C270 N269 1.328 . S
C270 C271 1.457 . S
C270 H275 0.929 . S
C271 C270 1.457 . S
C271 C272 1.291 . S
C271 H284 0.931 . S
C272 C271 1.291 . S
C272 C273 1.373 . S
C272 H285 0.929 . S
C273 C272 1.373 . S
C273 C274 1.396 . S
C273 C280 1.403 . S
C274 C264 1.476 . S
C274 N269 1.318 . S
C274 C273 1.396 . S
H275 C270 0.929 . S
O276 Mn252 2.385 . S
O276 C254 1.234 1_545 S
O277 Mn252 2.209 1_565 S
O277 Mn253 2.215 1_565 S
O277 C254 1.283 . S
O278 Mn252 2.094 . S
O278 C256 1.240 . S
O279 Mn253 2.117 . S
O279 C256 1.264 . S
C280 C273 1.403 . S
C280 C281 1.399 1_545 S
C280 H286 0.929 . S
C281 C261 1.449 . S
C281 C280 1.399 1_565 S
C281 H287 0.930 . S
H282 C262 0.931 . S
H283 C263 0.930 . S
H284 C271 0.931 . S
H285 C272 0.929 . S
H286 C280 0.929 . S
H287 C281 0.930 . S
H288 C294 0.930 . S
H289 C298 0.930 . S
H290 C303 0.929 . S
H291 C301 0.929 . S
H292 C296 0.929 . S
H293 C302 0.929 . S
C294 H288 0.930 . S
C294 C295 1.367 . S
C294 C302 1.378 . S
C295 C294 1.367 . S
C295 C303 1.433 1_655 S
C296 H292 0.929 . S
C296 C298 1.378 . S
C296 C300 1.350 . S
C297 C300 1.463 1_656 S
C297 C302 1.350 . S
C297 N305 1.427 1_655 S
C298 H289 0.930 . S
C298 C296 1.378 . S
C298 C299 1.367 . S
C299 C298 1.367 . S
C299 C301 1.433 1_455 S
C300 C296 1.350 . S
C300 C297 1.463 1_454 S
C300 N304 1.427 1_455 S
C301 H291 0.929 . S
C301 C299 1.433 1_655 S
C301 N304 1.384 . S
C302 H293 0.929 . S
C302 C294 1.378 . S
C302 C297 1.350 . S
C303 H290 0.929 . S
C303 C295 1.433 1_455 S
C303 N305 1.384 . S
N304 C300 1.427 1_655 S
N304 C301 1.384 . S
N305 C297 1.427 1_455 S
N305 C303 1.384 . S
H306 C312 0.930 . S
H307 C316 0.930 . S
H308 C321 0.929 . S
H309 C319 0.929 . S
H310 C314 0.929 . S
H311 C320 0.929 . S
C312 H306 0.930 . S
C312 C313 1.367 . S
C312 C320 1.378 . S
C313 C312 1.367 . S
C313 C321 1.433 . S
C314 H310 0.929 . S
C314 C316 1.378 . S
C314 C318 1.350 . S
C315 C318 1.463 . S
C315 C320 1.350 . S
C315 N323 1.427 . S
C316 H307 0.930 . S
C316 C314 1.378 . S
C316 C317 1.367 . S
C317 C316 1.367 . S
C317 C319 1.433 . S
C318 C314 1.350 . S
C318 C315 1.463 . S
C318 N322 1.427 . S
C319 H309 0.929 . S
C319 C317 1.433 . S
C319 N322 1.384 . S
C320 H311 0.929 . S
C320 C312 1.378 . S
C320 C315 1.350 . S
C321 H308 0.929 . S
C321 C313 1.433 . S
C321 N323 1.384 . S
N322 C318 1.427 . S
N322 C319 1.384 . S
N323 C315 1.427 . S
N323 C321 1.384 . S
H324 C330 0.930 . S
H325 C334 0.930 . S
H326 C339 0.929 . S
H327 C337 0.929 . S
H328 C332 0.929 . S
H329 C338 0.929 . S
C330 H324 0.930 . S
C330 C331 1.367 . S
C330 C338 1.378 . S
C331 C330 1.367 . S
C331 C339 1.433 . S
C332 H328 0.929 . S
C332 C334 1.378 . S
C332 C336 1.350 . S
C333 C336 1.463 1_564 S
C333 C338 1.350 . S
C333 N341 1.427 . S
C334 H325 0.930 . S
C334 C332 1.378 . S
C334 C335 1.367 . S
C335 C334 1.367 . S
C335 C337 1.433 . S
C336 C332 1.350 . S
C336 C333 1.463 1_546 S
C336 N340 1.427 . S
C337 H327 0.929 . S
C337 C335 1.433 . S
C337 N340 1.384 . S
C338 H329 0.929 . S
C338 C330 1.378 . S
C338 C333 1.350 . S
C339 H326 0.929 . S
C339 C331 1.433 . S
C339 N341 1.384 . S
N340 C336 1.427 . S
N340 C337 1.384 . S
N341 C333 1.427 . S
N341 C339 1.384 . S
H342 C348 0.930 . S
H343 C352 0.930 . S
H344 C357 0.929 . S
H345 C355 0.929 . S
H346 C350 0.929 . S
H347 C356 0.929 . S
C348 H342 0.930 . S
C348 C349 1.367 1_565 S
C348 C356 1.378 . S
C349 C348 1.367 1_545 S
C349 C357 1.433 . S
C350 H346 0.929 . S
C350 C352 1.378 . S
C350 C354 1.331 1_545 S
C351 C354 1.461 1_645 S
C351 C356 1.331 1_545 S
C351 N359 1.449 . S
C352 H343 0.930 . S
C352 C350 1.378 . S
C352 C353 1.367 1_545 S
C353 C352 1.367 1_565 S
C353 C355 1.433 . S
C354 C350 1.331 1_565 S
C354 C351 1.461 1_465 S
C354 N358 1.449 . S
C355 H345 0.929 . S
C355 C353 1.433 . S
C355 N358 1.384 . S
C356 H347 0.929 . S
C356 C348 1.378 . S
C356 C351 1.331 1_565 S
C357 H344 0.929 . S
C357 C349 1.433 . S
C357 N359 1.384 . S
N358 C354 1.449 . S
N358 C355 1.384 . S
N359 C351 1.449 . S
N359 C357 1.384 . S
H360 C366 0.930 . S
H361 C370 0.930 . S
H362 C375 0.929 . S
H363 C373 0.929 . S
H364 C368 0.929 . S
H365 C374 0.929 . S
C366 H360 0.930 . S
C366 C367 1.367 . S
C366 C374 1.378 . S
C367 C366 1.367 . S
C367 C375 1.433 . S
C368 H364 0.929 . S
C368 C370 1.378 . S
C368 C372 1.350 . S
C369 C372 1.463 . S
C369 C374 1.350 . S
C369 N377 1.427 . S
C370 H361 0.930 . S
C370 C368 1.378 . S
C370 C371 1.367 . S
C371 C370 1.367 . S
C371 C373 1.433 . S
C372 C368 1.350 . S
C372 C369 1.463 . S
C372 N376 1.427 . S
C373 H363 0.929 . S
C373 C371 1.433 . S
C373 N376 1.384 . S
C374 H365 0.929 . S
C374 C366 1.378 . S
C374 C369 1.350 . S
C375 H362 0.929 . S
C375 C367 1.433 . S
C375 N377 1.384 . S
N376 C372 1.427 . S
N376 C373 1.384 . S
N377 C369 1.427 . S
N377 C375 1.384 . S
H378 C384 0.930 . S
H379 C388 0.930 . S
H380 C393 0.929 . S
H381 C391 0.929 . S
H382 C386 0.929 . S
H383 C392 0.929 . S
C384 H378 0.930 . S
C384 C385 1.367 . S
C384 C392 1.378 . S
C385 C384 1.367 . S
C385 C393 1.433 . S
C386 H382 0.929 . S
C386 C388 1.378 . S
C386 C390 1.350 . S
C387 C390 1.463 . S
C387 C392 1.350 . S
C387 N395 1.427 . S
C388 H379 0.930 . S
C388 C386 1.378 . S
C388 C389 1.367 . S
C389 C388 1.367 . S
C389 C391 1.433 . S
C390 C386 1.350 . S
C390 C387 1.463 . S
C390 N394 1.427 . S
C391 H381 0.929 . S
C391 C389 1.433 . S
C391 N394 1.384 . S
C392 H383 0.929 . S
C392 C384 1.378 . S
C392 C387 1.350 . S
C393 H380 0.929 . S
C393 C385 1.433 . S
C393 N395 1.384 . S
N394 C390 1.427 . S
N394 C391 1.384 . S
N395 C387 1.427 . S
N395 C393 1.384 . S
H396 C402 0.930 . S
H397 C406 0.930 . S
H398 C411 0.929 . S
H399 C409 0.929 . S
H400 C404 0.929 . S
H401 C410 0.929 . S
C402 H396 0.930 . S
C402 C403 1.367 . S
C402 C410 1.378 . S
C403 C402 1.367 . S
C403 C411 1.433 . S
C404 H400 0.929 . S
C404 C406 1.378 . S
C404 C408 1.350 . S
C405 C408 1.463 . S
C405 C410 1.350 . S
C405 N413 1.427 . S
C406 H397 0.930 . S
C406 C404 1.378 . S
C406 C407 1.367 . S
C407 C406 1.367 . S
C407 C409 1.433 . S
C408 C404 1.350 . S
C408 C405 1.463 . S
C408 N412 1.427 . S
C409 H399 0.929 . S
C409 C407 1.433 . S
C409 N412 1.384 . S
C410 H401 0.929 . S
C410 C402 1.378 . S
C410 C405 1.350 . S
C411 H398 0.929 . S
C411 C403 1.433 . S
C411 N413 1.384 . S
N412 C408 1.427 . S
N412 C409 1.384 . S
N413 C405 1.427 . S
N413 C411 1.384 . S
H414 C420 0.930 . S
H415 C424 0.930 . S
H416 C429 0.929 . S
H417 C427 0.929 . S
H418 C422 0.929 . S
H419 C428 0.929 . S
C420 H414 0.930 . S
C420 C421 1.367 . S
C420 C428 1.378 . S
C421 C420 1.367 . S
C421 C429 1.433 . S
C422 H418 0.929 . S
C422 C424 1.378 . S
C422 C426 1.350 . S
C423 C426 1.463 . S
C423 C428 1.350 . S
C423 N431 1.427 . S
C424 H415 0.930 . S
C424 C422 1.378 . S
C424 C425 1.367 . S
C425 C424 1.367 . S
C425 C427 1.433 . S
C426 C422 1.350 . S
C426 C423 1.463 . S
C426 N430 1.427 . S
C427 H417 0.929 . S
C427 C425 1.433 . S
C427 N430 1.384 . S
C428 H419 0.929 . S
C428 C420 1.378 . S
C428 C423 1.350 . S
C429 H416 0.929 . S
C429 C421 1.433 . S
C429 N431 1.384 . S
N430 C426 1.427 . S
N430 C427 1.384 . S
N431 C423 1.427 . S
N431 C429 1.384 . S
H432 C438 0.930 . S
H433 C442 0.930 . S
H434 C447 0.929 . S
H435 C445 0.929 . S
H436 C440 0.929 . S
H437 C446 0.929 . S
C438 H432 0.930 . S
C438 C439 1.367 . S
C438 C446 1.378 . S
C439 C438 1.367 . S
C439 C447 1.433 . S
C440 H436 0.929 . S
C440 C442 1.378 . S
C440 C444 1.350 . S
C441 C444 1.463 . S
C441 C446 1.350 . S
C441 N449 1.427 . S
C442 H433 0.930 . S
C442 C440 1.378 . S
C442 C443 1.367 . S
C443 C442 1.367 . S
C443 C445 1.433 . S
C444 C440 1.350 . S
C444 C441 1.463 . S
C444 N448 1.427 . S
C445 H435 0.929 . S
C445 C443 1.433 . S
C445 N448 1.384 . S
C446 H437 0.929 . S
C446 C438 1.378 . S
C446 C441 1.350 . S
C447 H434 0.929 . S
C447 C439 1.433 . S
C447 N449 1.384 . S
N448 C444 1.427 . S
N448 C445 1.384 . S
N449 C441 1.427 . S
N449 C447 1.384 . S
H450 C456 0.930 . S
H451 C460 0.930 . S
H452 C465 0.929 . S
H453 C463 0.929 . S
H454 C458 0.929 . S
H455 C464 0.929 . S
C456 H450 0.930 . S
C456 C457 1.367 . S
C456 C464 1.378 . S
C457 C456 1.367 . S
C457 C465 1.433 . S
C458 H454 0.929 . S
C458 C460 1.378 . S
C458 C462 1.350 . S
C459 C462 1.463 . S
C459 C464 1.350 . S
C459 N467 1.427 . S
C460 H451 0.930 . S
C460 C458 1.378 . S
C460 C461 1.367 . S
C461 C460 1.367 . S
C461 C463 1.433 . S
C462 C458 1.350 . S
C462 C459 1.463 . S
C462 N466 1.427 . S
C463 H453 0.929 . S
C463 C461 1.433 . S
C463 N466 1.384 . S
C464 H455 0.929 . S
C464 C456 1.378 . S
C464 C459 1.350 . S
C465 H452 0.929 . S
C465 C457 1.433 . S
C465 N467 1.384 . S
N466 C462 1.427 . S
N466 C463 1.384 . S
N467 C459 1.427 . S
N467 C465 1.384 . S
H468 C474 0.930 . S
H469 C478 0.930 . S
H470 C483 0.929 . S
H471 C481 0.929 . S
H472 C476 0.929 1_545 S
H473 C482 0.929 . S
C474 H468 0.930 . S
C474 C475 1.367 . S
C474 C482 1.378 . S
C475 C474 1.367 . S
C475 C483 1.433 . S
C476 H472 0.929 1_565 S
C476 C478 1.378 1_565 S
C476 C480 1.350 . S
C477 C480 1.463 . S
C477 C482 1.350 . S
C477 N485 1.427 . S
C478 H469 0.930 . S
C478 C476 1.378 1_545 S
C478 C479 1.367 1_545 S
C479 C478 1.367 1_565 S
C479 C481 1.433 . S
C480 C476 1.350 . S
C480 C477 1.463 . S
C480 N484 1.427 . S
C481 H471 0.929 . S
C481 C479 1.433 . S
C481 N484 1.384 . S
C482 H473 0.929 . S
C482 C474 1.378 . S
C482 C477 1.350 . S
C483 H470 0.929 . S
C483 C475 1.433 . S
C483 N485 1.384 . S
N484 C480 1.427 . S
N484 C481 1.384 . S
N485 C477 1.427 . S
N485 C483 1.384 . S
H486 C492 0.930 . S
H487 C496 0.930 . S
H488 C501 0.929 1_655 S
H489 C499 0.929 . S
H490 C494 0.929 . S
H491 C500 0.929 . S
C492 H486 0.930 . S
C492 C493 1.367 . S
C492 C500 1.378 . S
C493 C492 1.367 . S
C493 C501 1.433 . S
C494 H490 0.929 . S
C494 C496 1.378 . S
C494 C498 1.350 . S
C495 C498 1.463 . S
C495 C500 1.350 . S
C495 N503 1.427 . S
C496 H487 0.930 . S
C496 C494 1.378 . S
C496 C497 1.367 . S
C497 C496 1.367 . S
C497 C499 1.433 . S
C498 C494 1.350 . S
C498 C495 1.463 . S
C498 N502 1.427 . S
C499 H489 0.929 . S
C499 C497 1.433 . S
C499 N502 1.384 . S
C500 H491 0.929 . S
C500 C492 1.378 . S
C500 C495 1.350 . S
C501 H488 0.929 1_455 S
C501 C493 1.433 . S
C501 N503 1.384 . S
N502 C498 1.427 . S
N502 C499 1.384 . S
N503 C495 1.427 . S
N503 C501 1.384 . S
H504 C510 0.930 . S
H505 C514 0.930 . S
H506 C519 0.929 . S
H507 C517 0.929 . S
H508 C512 0.929 . S
H509 C518 0.929 . S
C510 H504 0.930 . S
C510 C511 1.367 . S
C510 C518 1.378 . S
C511 C510 1.367 . S
C511 C519 1.433 . S
C512 H508 0.929 . S
C512 C514 1.378 . S
C512 C516 1.350 . S
C513 C516 1.463 . S
C513 C518 1.350 . S
C513 N521 1.427 . S
C514 H505 0.930 . S
C514 C512 1.378 . S
C514 C515 1.367 . S
C515 C514 1.367 . S
C515 C517 1.433 . S
C516 C512 1.350 . S
C516 C513 1.463 . S
C516 N520 1.427 . S
C517 H507 0.929 . S
C517 C515 1.433 . S
C517 N520 1.384 . S
C518 H509 0.929 . S
C518 C510 1.378 . S
C518 C513 1.350 . S
C519 H506 0.929 . S
C519 C511 1.433 . S
C519 N521 1.384 . S
N520 C516 1.427 . S
N520 C517 1.384 . S
N521 C513 1.427 . S
N521 C519 1.384 . S
H522 C528 0.930 . S
H523 C532 0.930 . S
H524 C537 0.929 . S
H525 C535 0.929 . S
H526 C530 0.929 . S
H527 C536 0.929 . S
C528 H522 0.930 . S
C528 C529 1.367 . S
C528 C536 1.378 . S
C529 C528 1.367 . S
C529 C537 1.433 . S
C530 H526 0.929 . S
C530 C532 1.378 . S
C530 C534 1.350 . S
C531 C534 1.463 . S
C531 C536 1.350 . S
C531 N539 1.427 . S
C532 H523 0.930 . S
C532 C530 1.378 . S
C532 C533 1.367 . S
C533 C532 1.367 . S
C533 C535 1.433 . S
C534 C530 1.350 . S
C534 C531 1.463 . S
C534 N538 1.427 . S
C535 H525 0.929 . S
C535 C533 1.433 . S
C535 N538 1.384 . S
C536 H527 0.929 . S
C536 C528 1.378 . S
C536 C531 1.350 . S
C537 H524 0.929 . S
C537 C529 1.433 . S
C537 N539 1.384 . S
N538 C534 1.427 . S
N538 C535 1.384 . S
N539 C531 1.427 . S
N539 C537 1.384 . S
H540 C546 0.930 . S
H541 C550 0.930 . S
H542 C555 0.929 . S
H543 C553 0.929 . S
H544 C548 0.929 . S
H545 C554 0.929 . S
C546 H540 0.930 . S
C546 C547 1.367 . S
C546 C554 1.378 . S
C547 C546 1.367 . S
C547 C555 1.433 . S
C548 H544 0.929 . S
C548 C550 1.378 . S
C548 C552 1.350 . S
C549 C552 1.463 . S
C549 C554 1.350 . S
C549 N557 1.427 . S
C550 H541 0.930 . S
C550 C548 1.378 . S
C550 C551 1.367 . S
C551 C550 1.367 . S
C551 C553 1.433 . S
C552 C548 1.350 . S
C552 C549 1.463 . S
C552 N556 1.427 . S
C553 H543 0.929 . S
C553 C551 1.433 . S
C553 N556 1.384 . S
C554 H545 0.929 . S
C554 C546 1.378 . S
C554 C549 1.350 . S
C555 H542 0.929 . S
C555 C547 1.433 . S
C555 N557 1.384 . S
N556 C552 1.427 . S
N556 C553 1.384 . S
N557 C549 1.427 . S
N557 C555 1.384 . S
H558 C564 0.930 . S
H559 C568 0.930 . S
H560 C573 0.929 . S
H561 C571 0.929 . S
H562 C566 0.929 . S
H563 C572 0.929 . S
C564 H558 0.930 . S
C564 C565 1.367 . S
C564 C572 1.378 . S
C565 C564 1.367 . S
C565 C573 1.433 . S
C566 H562 0.929 . S
C566 C568 1.378 . S
C566 C570 1.350 . S
C567 C570 1.463 . S
C567 C572 1.350 . S
C567 N575 1.427 . S
C568 H559 0.930 . S
C568 C566 1.378 . S
C568 C569 1.367 . S
C569 C568 1.367 . S
C569 C571 1.433 . S
C570 C566 1.350 . S
C570 C567 1.463 . S
C570 N574 1.427 . S
C571 H561 0.929 . S
C571 C569 1.433 . S
C571 N574 1.384 . S
C572 H563 0.929 . S
C572 C564 1.378 . S
C572 C567 1.350 . S
C573 H560 0.929 . S
C573 C565 1.433 . S
C573 N575 1.384 . S
N574 C570 1.427 . S
N574 C571 1.384 . S
N575 C567 1.427 . S
N575 C573 1.384 . S
C295 C158 1.612 . S
C299 C14 1.612 . S
C313 C50 1.614 . S
C317 C194 1.614 . S
C331 C86 1.617 . S
C335 C230 1.617 . S
C349 C266 1.617 . S
C353 C122 1.617 . S
C367 C4 1.409 . S
C371 C76 1.404 . S
C385 C40 1.403 . S
C389 C112 1.398 . S
C403 C220 1.407 . S
C407 C148 1.410 . S
C421 C184 1.395 . S
C425 C256 1.399 . S
C439 C182 0.938 . S
C443 C3 0.968 . S
C457 C39 0.966 . S
C461 C218 0.962 . S
C475 C75 0.961 . S
C479 C254 0.951 . S
C493 C146 0.944 . S
C497 C111 0.974 . S
C511 C147 0.961 . S
C515 C38 0.947 . S
C529 C183 0.973 . S
C533 C74 0.941 . S
C547 C219 0.973 . S
C551 C110 0.940 . S
C565 C2 0.962 . S
C569 C255 0.966 . S
