# Generated by pormake.
# Topology ukg, (4)-cn, num edge types: 1
# Building blocks:
#     Node 0, Type 0, BuildingBlock: QUQFOY_clean_sbu_1, # of connection points: 4
#     Node 1, Type 0, BuildingBlock: QUQFOY_clean_sbu_1, # of connection points: 4
#     Node 2, Type 0, BuildingBlock: QUQFOY_clean_sbu_1, # of connection points: 4
#     Node 3, Type 0, BuildingBlock: QUQFOY_clean_sbu_1, # of connection points: 4
#     Node 4, Type 0, BuildingBlock: QUQFOY_clean_sbu_1, # of connection points: 4
#     Node 5, Type 0, BuildingBlock: QUQFOY_clean_sbu_1, # of connection points: 4
#     Node 6, Type 0, BuildingBlock: QUQFOY_clean_sbu_1, # of connection points: 4
#     Node 7, Type 0, BuildingBlock: QUQFOY_clean_sbu_1, # of connection points: 4
#     Edge 8, Type (0, 0), BuildingBlock: FUNLAD_clean_linker_1, # of connection points: 2
#     Edge 9, Type (0, 0), BuildingBlock: FUNLAD_clean_linker_1, # of connection points: 2
#     Edge 10, Type (0, 0), BuildingBlock: FUNLAD_clean_linker_1, # of connection points: 2
#     Edge 11, Type (0, 0), BuildingBlock: FUNLAD_clean_linker_1, # of connection points: 2
#     Edge 12, Type (0, 0), BuildingBlock: FUNLAD_clean_linker_1, # of connection points: 2
#     Edge 13, Type (0, 0), BuildingBlock: FUNLAD_clean_linker_1, # of connection points: 2
#     Edge 14, Type (0, 0), BuildingBlock: FUNLAD_clean_linker_1, # of connection points: 2
#     Edge 15, Type (0, 0), BuildingBlock: FUNLAD_clean_linker_1, # of connection points: 2
#     Edge 16, Type (0, 0), BuildingBlock: FUNLAD_clean_linker_1, # of connection points: 2
#     Edge 17, Type (0, 0), BuildingBlock: FUNLAD_clean_linker_1, # of connection points: 2
#     Edge 18, Type (0, 0), BuildingBlock: FUNLAD_clean_linker_1, # of connection points: 2
#     Edge 19, Type (0, 0), BuildingBlock: FUNLAD_clean_linker_1, # of connection points: 2
#     Edge 20, Type (0, 0), BuildingBlock: FUNLAD_clean_linker_1, # of connection points: 2
#     Edge 21, Type (0, 0), BuildingBlock: FUNLAD_clean_linker_1, # of connection points: 2
#     Edge 22, Type (0, 0), BuildingBlock: FUNLAD_clean_linker_1, # of connection points: 2
#     Edge 23, Type (0, 0), BuildingBlock: FUNLAD_clean_linker_1, # of connection points: 2
# Relax obj value: 0.023
# Max RMSD: 0.118
# Mean RMSD: 0.118
data_MOF--net-ukg--node1-QUQFOY_clean_sbu_1--edge1-FUNLAD_clean_linker_1
_symmetry_space_group_name_H-M    P1
_symmetry_Int_Tables_number       1
_symmetry_cell_setting            triclinic
loop_
_symmetry_equiv_pos_as_xyz
'x, y, z'
_cell_length_a     33.307876
_cell_length_b     33.38999
_cell_length_c     39.126921
_cell_angle_alpha  90.176906
_cell_angle_beta   90.084828
_cell_angle_gamma 90.002747
loop_
_atom_site_label
_atom_site_type_symbol
_atom_site_fract_x
_atom_site_fract_y
_atom_site_fract_z
_atom_type_partial_charge
O0 O 0.96404 0.64362 0.20809 0.0
Cd1 Cd 0.98626 0.66708 0.16313 0.0
Cd2 Cd 0.04963 0.68477 0.20677 0.0
O3 O 0.01673 0.65209 0.24182 0.0
O4 O 0.95498 0.64111 0.1254 0.0
O5 O 0.02031 0.63207 0.13244 0.0
C6 C 0.98772 0.62384 0.11585 0.0
C7 C 0.11973 0.68493 0.20671 0.0
C8 C 0.98099 0.63985 0.23709 0.0
C9 C 1.00075 0.75325 0.1764 0.0
O10 O 0.02796 0.74079 0.19635 0.0
O11 O 0.98038 0.72882 0.15836 0.0
O12 O 0.09953 0.70089 0.23122 0.0
O13 O 0.1003 0.66589 0.18318 0.0
O14 O 0.37187 0.46468 0.69364 0.0
Cd15 Cd 0.34462 0.48927 0.65111 0.0
Cd16 Cd 0.32037 0.54187 0.70046 0.0
O17 O 0.36583 0.51603 0.729 0.0
O18 O 0.3767 0.4708 0.61081 0.0
O19 O 0.3727 0.53436 0.62693 0.0
C20 C 0.38767 0.50757 0.60672 0.0
C21 C 0.30422 0.60962 0.70604 0.0
C22 C 0.3796 0.48145 0.72215 0.0
C23 C 0.25923 0.4852 0.66771 0.0
O24 O 0.26962 0.50797 0.69223 0.0
O25 O 0.28427 0.47604 0.64449 0.0
O26 O 0.29669 0.58441 0.72995 0.0
O27 O 0.32342 0.59708 0.67942 0.0
O28 O 0.55321 0.87525 0.19421 0.0
Cd29 Cd 0.5297 0.84971 0.1503 0.0
Cd30 Cd 0.47377 0.82617 0.19687 0.0
O31 O 0.50099 0.86791 0.2284 0.0
O32 O 0.55043 0.88187 0.11093 0.0
O33 O 0.48608 0.87898 0.12499 0.0
C34 C 0.51396 0.89349 0.10571 0.0
C35 C 0.40449 0.81589 0.19773 0.0
C36 C 0.53603 0.8814 0.22279 0.0
C37 C 0.5293 0.76366 0.165 0.0
O38 O 0.50485 0.7739 0.18832 0.0
O39 O 0.54149 0.78922 0.14335 0.0
O40 O 0.42704 0.80466 0.22268 0.0
O41 O 0.42082 0.83536 0.17292 0.0
O42 O 0.14262 0.05309 0.69385 0.0
Cd43 Cd 0.16969 0.03333 0.64968 0.0
Cd44 Cd 0.19518 0.97261 0.6948 0.0
O45 O 0.15483 1.00117 0.72733 0.0
O46 O 0.13744 0.05368 0.61011 0.0
O47 O 0.14374 0.98921 0.62242 0.0
C48 C 0.12822 0.01688 0.6035 0.0
C49 C 0.20965 0.90459 0.70238 0.0
C50 C 0.13902 0.03536 0.72241 0.0
C51 C 0.25642 0.03115 0.66291 0.0
O52 O 0.24721 1.00266 0.68283 0.0
O53 O 0.22965 0.04859 0.64524 0.0
O54 O 0.22037 0.93112 0.72438 0.0
O55 O 0.18816 0.91598 0.67671 0.0
O56 O 0.05104 0.39417 0.84125 0.0
Cd57 Cd 0.037 0.36088 0.88381 0.0
Cd58 Cd 0.97613 0.33597 0.84063 0.0
O59 O 1.00122 0.37666 0.80685 0.0
O60 O 0.06845 0.38628 0.92174 0.0
O61 O 1.00208 0.38677 0.91996 0.0
C62 C 0.03494 0.39784 0.93485 0.0
C63 C 0.90723 0.3282 0.84867 0.0
C64 C 0.03323 0.39639 0.81259 0.0
C65 C 0.03705 0.27432 0.86319 0.0
O66 O 1.00637 0.28296 0.84542 0.0
O67 O 0.05416 0.30084 0.88154 0.0
O68 O 0.92421 0.31832 0.82029 0.0
O69 O 0.92895 0.34527 0.87188 0.0
O70 O 0.61955 0.5443 0.33307 0.0
Cd71 Cd 0.65299 0.52309 0.37357 0.0
Cd72 Cd 0.66982 0.46582 0.32669 0.0
O73 O 0.62782 0.49445 0.29639 0.0
O74 O 0.62692 0.54459 0.41602 0.0
O75 O 0.62834 0.4801 0.40255 0.0
C76 C 0.61614 0.50829 0.4227 0.0
C77 C 0.67541 0.39701 0.33449 0.0
C78 C 0.61264 0.52822 0.30418 0.0
C79 C 0.73741 0.52005 0.34952 0.0
O80 O 0.72446 0.49337 0.32922 0.0
O81 O 0.71442 0.53558 0.37196 0.0
O82 O 0.68329 0.41326 0.30539 0.0
O83 O 0.66096 0.41942 0.35843 0.0
O84 O 0.48127 0.12854 0.82759 0.0
Cd85 Cd 0.50202 0.15758 0.87047 0.0
Cd86 Cd 0.56105 0.17934 0.8262 0.0
O87 O 0.53539 0.13516 0.7956 0.0
O88 O 0.4809 0.12764 0.91092 0.0
O89 O 0.54564 0.13187 0.89834 0.0
C90 C 0.51755 0.11758 0.91753 0.0
C91 C 0.63036 0.19018 0.82667 0.0
C92 C 0.5002 0.12141 0.80006 0.0
C93 C 0.50186 0.24264 0.8512 0.0
O94 O 0.52943 0.23214 0.83059 0.0
O95 O 0.48722 0.2177 0.87228 0.0
O96 O 0.60923 0.19617 0.79965 0.0
O97 O 0.61269 0.17573 0.85328 0.0
O98 O 0.8914 0.97871 0.32173 0.0
Cd99 Cd 0.86434 0.99707 0.3664 0.0
Cd100 Cd 0.83343 0.05536 0.32336 0.0
O101 O 0.87181 0.02843 0.28852 0.0
O102 O 0.89773 0.97656 0.40524 0.0
O103 O 0.88923 0.04113 0.39452 0.0
C104 C 0.9058 0.0134 0.4127 0.0
C105 C 0.81982 0.12396 0.31968 0.0
C106 C 0.89085 0.99583 0.29273 0.0
C107 C 0.77643 0.99394 0.35435 0.0
O108 O 0.78255 0.02345 0.33462 0.0
O109 O 0.80517 0.97848 0.3712 0.0
O110 O 0.81058 0.09971 0.29538 0.0
O111 O 0.83896 0.10989 0.34573 0.0
H112 H 0.06389 0.42995 0.97761 0.0
C113 C 0.03527 0.4248 0.96494 0.0
H114 H 0.97471 0.44286 0.96134 0.0
H115 H 0.02732 0.50986 0.11613 0.0
H116 H 0.03107 0.43988 0.13212 0.0
H117 H 0.02289 0.38653 0.08893 0.0
H118 H 0.01102 0.40284 0.02942 0.0
C119 C 1.00295 0.44583 0.97507 0.0
C120 C 1.00642 0.47785 1.00176 0.0
C121 C 0.01321 0.46789 0.03651 0.0
C122 C 0.01755 0.49875 0.06152 0.0
C123 C 0.02401 0.48777 0.09604 0.0
C124 C 0.02612 0.44768 0.10561 0.0
C125 C 0.02155 0.41764 0.08128 0.0
C126 C 0.015 0.42743 0.04715 0.0
H127 H 0.95838 0.5906 0.07391 0.0
C128 C 0.98671 0.59461 0.08733 0.0
H129 H 0.04623 0.57397 0.0928 0.0
H130 H 0.99326 0.50749 0.93758 0.0
H131 H 0.99011 0.57745 0.92143 0.0
H132 H 0.99925 0.63084 0.96443 0.0
H133 H 0.01131 0.61464 0.02388 0.0
C134 C 0.01829 0.57168 0.07856 0.0
C135 C 0.01462 0.53961 0.0519 0.0
C136 C 1.00804 0.54957 0.01708 0.0
C137 C 1.00348 0.51869 0.99212 0.0
C138 C 0.99689 0.52962 0.95761 0.0
C139 C 0.99512 0.56969 0.94794 0.0
C140 C 1.00021 0.59975 0.97216 0.0
C141 C 1.0068 0.59 1.0063 0.0
H142 H 0.42544 0.55018 0.57779 0.0
C143 C 0.41794 0.5187 0.58073 0.0
H144 H 0.43177 0.45937 0.56621 0.0
H145 H 0.51163 0.56026 0.43674 0.0
H146 H 0.44368 0.58066 0.4232 0.0
H147 H 0.38757 0.5644 0.4618 0.0
H148 H 0.39912 0.52788 0.51427 0.0
C149 C 0.43781 0.49099 0.56222 0.0
C150 C 0.47157 0.50168 0.5388 0.0
C151 C 0.4643 0.52293 0.50806 0.0
C152 C 0.49667 0.53185 0.48553 0.0
C153 C 0.48836 0.55286 0.45491 0.0
C154 C 0.44942 0.56464 0.44672 0.0
C155 C 0.41784 0.55552 0.46847 0.0
C156 C 0.42496 0.53475 0.49868 0.0
H157 H 0.5804 0.46801 0.45549 0.0
C158 C 0.58823 0.49916 0.45105 0.0
H159 H 0.57595 0.55938 0.46372 0.0
H160 H 0.4962 0.46074 0.5956 0.0
H161 H 0.56422 0.44048 0.60923 0.0
H162 H 0.62033 0.45674 0.57062 0.0
H163 H 0.60873 0.49312 0.51802 0.0
C164 C 0.56972 0.5281 0.46919 0.0
C165 C 0.53625 0.51897 0.49341 0.0
C166 C 0.54357 0.49798 0.52427 0.0
C167 C 0.5112 0.48907 0.5468 0.0
C168 C 0.5195 0.46812 0.57745 0.0
C169 C 0.55847 0.45643 0.58568 0.0
C170 C 0.59005 0.46556 0.56393 0.0
C171 C 0.58291 0.48623 0.53366 0.0
H172 H 0.47299 0.93181 0.07549 0.0
C173 C 0.50429 0.92388 0.07943 0.0
H174 H 0.56437 0.93514 0.06515 0.0
H175 H 0.52284 0.01245 0.92204 0.0
H176 H 0.54884 0.94799 0.90418 0.0
H177 H 0.56376 0.89541 0.94647 0.0
H178 H 0.55242 0.9069 1.00691 0.0
C179 C 0.53303 0.9433 0.06183 0.0
C180 C 0.5235 0.97535 0.03646 0.0
C181 C 0.53105 0.96858 1.00124 0.0
C182 C 0.52301 0.99921 0.97686 0.0
C183 C 0.52937 0.99082 0.94177 0.0
C184 C 0.54408 0.95379 0.93111 0.0
C185 C 0.55244 0.92417 0.95491 0.0
C186 C 0.54591 0.93123 0.98956 0.0
H187 H 0.55857 0.08139 0.94954 0.0
C188 C 0.5272 0.08859 0.94493 0.0
H189 H 0.46703 0.07619 0.9583 0.0
H190 H 0.50896 0.99996 0.1022 0.0
H191 H 0.4829 0.06443 0.12004 0.0
H192 H 0.46781 0.11693 0.07773 0.0
H193 H 0.47907 0.10537 0.01726 0.0
C194 C 0.49847 0.06891 0.96233 0.0
C195 C 0.50811 0.03699 0.98778 0.0
C196 C 0.50056 0.04376 0.02299 0.0
C197 C 0.50863 0.01314 0.04738 0.0
C198 C 0.50234 0.02157 0.08247 0.0
C199 C 0.48762 0.0586 0.09311 0.0
C200 C 0.47916 0.08818 0.06929 0.0
C201 C 0.48565 0.08109 0.03464 0.0
H202 H 0.94006 0.05531 0.44559 0.0
C203 C 0.93436 0.02382 0.44042 0.0
H204 H 0.95019 0.96422 0.45215 0.0
H205 H 0.12266 1.00286 0.50978 0.0
H206 H 0.13871 0.96987 0.4563 0.0
H207 H 0.08551 0.95307 0.41476 0.0
H208 H 0.01596 0.9694 0.42635 0.0
C209 C 0.95455 0.99572 0.45816 0.0
C210 C 0.98644 1.0062 0.48365 0.0
C211 C 0.027 0.9958 0.47685 0.0
C212 C 0.05771 1.00502 0.50106 0.0
C213 C 0.09803 0.99563 0.49283 0.0
C214 C 0.10772 0.97691 0.46208 0.0
C215 C 0.07778 0.96748 0.43868 0.0
C216 C 0.03791 0.9769 0.44574 0.0
H217 H 0.0934 0.97498 0.57103 0.0
C218 C 0.09955 1.00646 0.57587 0.0
H219 H 0.08442 0.06609 0.56357 0.0
H220 H 0.91156 0.02719 0.50641 0.0
H221 H 0.89555 0.06021 0.55989 0.0
H222 H 0.94879 0.0772 0.60133 0.0
H223 H 0.01836 0.061 0.58966 0.0
C224 C 0.07972 0.03457 0.55786 0.0
C225 C 0.04781 0.0241 0.53239 0.0
C226 C 1.00726 0.0345 0.5392 0.0
C227 C 0.97654 0.02523 0.51502 0.0
C228 C 0.93622 0.03452 0.5233 0.0
C229 C 0.92654 0.05324 0.55406 0.0
C230 C 0.95651 0.06277 0.57741 0.0
C231 C 0.99638 0.05342 0.5703 0.0
H232 H 0.18159 0.67041 0.18969 0.0
C233 C 0.16345 0.69138 0.20428 0.0
H234 H 0.16126 0.74586 0.23151 0.0
H235 H 0.33667 0.77326 0.27712 0.0
H236 H 0.30303 0.76314 0.33117 0.0
H237 H 0.23323 0.73864 0.33313 0.0
H238 H 0.19651 0.72464 0.28101 0.0
C239 C 0.18001 0.72485 0.21746 0.0
C240 C 0.22369 0.73449 0.21545 0.0
C241 C 0.24529 0.74128 0.24622 0.0
C242 C 0.28598 0.75416 0.2451 0.0
C243 C 0.3061 0.76237 0.27632 0.0
C244 C 0.28709 0.75686 0.30762 0.0
C245 C 0.24778 0.74316 0.30873 0.0
C246 C 0.22699 0.73542 0.27852 0.0
H247 H 0.34105 0.82272 0.18167 0.0
C248 C 0.36164 0.80483 0.19684 0.0
H249 H 0.36971 0.75363 0.22741 0.0
H250 H 0.19004 0.73046 0.15125 0.0
H251 H 0.2252 0.73491 0.09736 0.0
H252 H 0.29817 0.74726 0.09572 0.0
H253 H 0.33601 0.75676 0.148 0.0
C254 C 0.3486 0.77159 0.21278 0.0
C255 C 0.30561 0.75897 0.21321 0.0
C256 C 0.28459 0.75036 0.18243 0.0
C257 C 0.24312 0.7399 0.18348 0.0
C258 C 0.22201 0.73573 0.15221 0.0
C259 C 0.24178 0.73862 0.12098 0.0
C260 C 0.2828 0.74581 0.12005 0.0
C261 C 0.3041 0.75161 0.1503 0.0
H262 H 0.26181 0.65433 0.72531 0.0
C263 C 0.28718 0.65023 0.70821 0.0
H264 H 0.32552 0.67699 0.67231 0.0
H265 H 0.21572 0.81838 0.62411 0.0
H266 H 0.23252 0.78457 0.57135 0.0
H267 H 0.26891 0.72029 0.57181 0.0
H268 H 0.2896 0.68999 0.625 0.0
C269 C 0.30035 0.68127 0.68957 0.0
C270 C 0.27858 0.72057 0.68959 0.0
C271 C 0.26519 0.73716 0.65817 0.0
C272 C 0.24267 0.77348 0.65795 0.0
C273 C 0.23177 0.79036 0.62605 0.0
C274 C 0.24133 0.7713 0.59543 0.0
C275 C 0.26189 0.73517 0.59569 0.0
C276 C 0.27372 0.71816 0.62654 0.0
H277 H 0.2524 0.86004 0.72112 0.0
C278 C 0.22581 0.86371 0.70528 0.0
H279 H 0.18425 0.83562 0.67261 0.0
H280 H 0.30789 0.70427 0.75378 0.0
H281 H 0.28491 0.73357 0.80706 0.0
H282 H 0.23358 0.78687 0.80717 0.0
H283 H 0.20691 0.81273 0.7539 0.0
C284 C 0.2106 0.83187 0.68868 0.0
C285 C 0.23169 0.7922 0.68923 0.0
C286 C 0.24325 0.77431 0.72067 0.0
C287 C 0.26914 0.74043 0.72075 0.0
C288 C 0.28526 0.72742 0.75236 0.0
C289 C 0.27272 0.74433 0.78313 0.0
C290 C 0.24407 0.77452 0.78318 0.0
C291 C 0.22938 0.78942 0.7524 0.0
H292 H 0.68748 0.20673 0.80244 0.0
C293 C 0.67285 0.20236 0.82698 0.0
H294 H 0.67672 0.21264 0.88019 0.0
H295 H 0.86766 0.22299 0.83011 0.0
H296 H 0.86385 0.15057 0.8278 0.0
H297 H 0.79963 0.11561 0.83749 0.0
H298 H 0.73877 0.15302 0.84967 0.0
C299 C 0.69192 0.21376 0.85565 0.0
C300 C 0.73149 0.23439 0.85341 0.0
C301 C 0.76677 0.21221 0.84642 0.0
C302 C 0.80372 0.23245 0.84072 0.0
C303 C 0.83859 0.20935 0.83413 0.0
C304 C 0.83689 0.16768 0.83289 0.0
C305 C 0.80074 0.148 0.83835 0.0
C306 C 0.76602 0.16983 0.84515 0.0
H307 H 0.85321 0.32207 0.88112 0.0
C308 C 0.86527 0.31652 0.85574 0.0
H309 H 0.85642 0.2886 0.80794 0.0
H310 H 0.66999 0.28556 0.86886 0.0
H311 H 0.67324 0.35814 0.87067 0.0
H312 H 0.73658 0.39354 0.85841 0.0
H313 H 0.79709 0.35667 0.8446 0.0
C314 C 0.84363 0.29548 0.83282 0.0
C315 C 0.80533 0.27496 0.84185 0.0
C316 C 0.77016 0.29714 0.84966 0.0
C317 C 0.73335 0.27674 0.85596 0.0
C318 C 0.69865 0.29953 0.86366 0.0
C319 C 0.70008 0.3412 0.86476 0.0
C320 C 0.73576 0.36113 0.85792 0.0
C321 C 0.77041 0.33954 0.85026 0.0
H322 H 0.68348 0.34401 0.3675 0.0
C323 C 0.68741 0.35529 0.34169 0.0
H324 H 0.71336 0.34554 0.2933 0.0
H325 H 0.85554 0.23572 0.33583 0.0
H326 H 0.89 0.29701 0.32002 0.0
H327 H 0.85195 0.35892 0.3085 0.0
H328 H 0.77938 0.35995 0.3125 0.0
C329 C 0.70789 0.33344 0.31863 0.0
C330 C 0.73038 0.29655 0.32827 0.0
C331 C 0.77297 0.29662 0.32615 0.0
C332 C 0.79501 0.26107 0.33302 0.0
C333 C 0.83741 0.2619 0.33061 0.0
C334 C 0.85756 0.29689 0.3217 0.0
C335 C 0.83614 0.33173 0.3152 0.0
C336 C 0.79439 0.33183 0.31744 0.0
H337 H 0.79839 0.17755 0.29282 0.0
C338 C 0.80611 0.16578 0.31787 0.0
H339 H 0.80144 0.17487 0.3712 0.0
H340 H 0.64904 0.2852 0.33338 0.0
H341 H 0.61522 0.22439 0.35095 0.0
H342 H 0.65384 0.16367 0.36531 0.0
H343 H 0.72659 0.16334 0.36187 0.0
C344 C 0.797 0.18727 0.34583 0.0
C345 C 0.77456 0.22558 0.34225 0.0
C346 C 0.73218 0.22582 0.34569 0.0
C347 C 0.70996 0.26115 0.33819 0.0
C348 C 0.66752 0.25971 0.33985 0.0
C349 C 0.64768 0.22487 0.34968 0.0
C350 C 0.66942 0.19066 0.3577 0.0
C351 C 0.71116 0.19089 0.35563 0.0
H352 H 0.79591 0.51787 0.32464 0.0
C353 C 0.7787 0.53424 0.34374 0.0
H354 H 0.77622 0.58671 0.37376 0.0
H355 H 0.95447 0.55248 0.29375 0.0
H356 H 0.96263 0.4971 0.33302 0.0
H357 H 0.91138 0.48288 0.37681 0.0
H358 H 0.85105 0.52375 0.38101 0.0
C359 C 0.79371 0.56868 0.35608 0.0
C360 C 0.83031 0.58579 0.33955 0.0
C361 C 0.86661 0.56355 0.33883 0.0
C362 C 0.89698 0.57293 0.31458 0.0
C363 C 0.93117 0.54785 0.31249 0.0
C364 C 0.93613 0.51575 0.3348 0.0
C365 C 0.90722 0.50766 0.35939 0.0
C366 C 0.87273 0.53113 0.36143 0.0
H367 H 0.9708 0.62665 0.29187 0.0
C368 C 0.95756 0.62488 0.2665 0.0
H369 H 0.90564 0.61247 0.23757 0.0
H370 H 0.76737 0.63874 0.33811 0.0
H371 H 0.76149 0.69751 0.30232 0.0
H372 H 0.81571 0.71606 0.26255 0.0
H373 H 0.87592 0.67556 0.25797 0.0
C374 C 0.91928 0.61275 0.26283 0.0
C375 C 0.8918 0.60598 0.2923 0.0
C376 C 0.85756 0.63097 0.29585 0.0
C377 C 0.82667 0.62076 0.31934 0.0
C378 C 0.79194 0.64519 0.32099 0.0
C379 C 0.78819 0.67913 0.30061 0.0
C380 C 0.81869 0.68955 0.27818 0.0
C381 C 0.85301 0.6659 0.27572 0.0
H382 H 0.42036 0.4772 0.7669 0.0
C383 C 0.40419 0.46006 0.74766 0.0
H384 H 0.3896 0.40306 0.72818 0.0
H385 H 0.53115 0.29697 0.771 0.0
H386 H 0.54137 0.30203 0.71015 0.0
H387 H 0.5037 0.35122 0.67588 0.0
H388 H 0.45499 0.39517 0.70242 0.0
C389 C 0.40606 0.41983 0.74752 0.0
C390 C 0.43349 0.39641 0.76998 0.0
C391 C 0.46328 0.37214 0.75442 0.0
C392 C 0.48608 0.3449 0.77444 0.0
C393 C 0.51381 0.3193 0.75759 0.0
C394 C 0.51991 0.32169 0.72245 0.0
C395 C 0.49864 0.34927 0.70315 0.0
C396 C 0.4706 0.3742 0.71876 0.0
H397 H 0.45033 0.28399 0.85056 0.0
C398 C 0.48247 0.28191 0.84616 0.0
H399 H 0.53425 0.30923 0.82655 0.0
H400 H 0.37769 0.43724 0.80823 0.0
H401 H 0.37141 0.43655 0.86989 0.0
H402 H 0.41631 0.3949 0.90521 0.0
H403 H 0.46707 0.35277 0.87887 0.0
C404 C 0.50204 0.31184 0.83034 0.0
C405 C 0.48015 0.343 0.81037 0.0
C406 C 0.45238 0.36933 0.82626 0.0
C407 C 0.42809 0.39516 0.80596 0.0
C408 C 0.39827 0.41852 0.82235 0.0
C409 C 0.39414 0.41821 0.85778 0.0
C410 C 0.41931 0.39463 0.87767 0.0
C411 C 0.44812 0.37039 0.86223 0.0
H412 H 0.54034 0.91687 0.27071 0.0
C413 C 0.55748 0.90351 0.24999 0.0
H414 H 0.61469 0.89287 0.22896 0.0
H415 H 0.71517 0.03281 0.28556 0.0
H416 H 0.70698 0.05249 0.22673 0.0
H417 H 0.65847 0.01794 0.1892 0.0
H418 H 0.61828 0.96298 0.21043 0.0
C419 C 0.59774 0.90629 0.24978 0.0
C420 C 0.62081 0.93098 0.27475 0.0
C421 C 0.64294 0.96418 0.26245 0.0
C422 C 0.66987 0.98492 0.28447 0.0
C423 C 0.69321 0.01655 0.27065 0.0
C424 C 0.68901 0.02816 0.23668 0.0
C425 C 0.66181 0.00866 0.21554 0.0
C426 C 0.63904 0.97701 0.22808 0.0
H427 H 0.73744 0.9408 0.35247 0.0
C428 C 0.73734 0.97334 0.35196 0.0
H429 H 0.70521 0.02579 0.34105 0.0
H430 H 0.58377 0.86794 0.30667 0.0
H431 H 0.58822 0.851 0.36674 0.0
H432 H 0.63028 0.89088 0.40609 0.0
H433 H 0.66891 0.9475 0.38533 0.0
C434 C 0.70467 0.99324 0.34093 0.0
C435 C 0.67376 0.97317 0.31922 0.0
C436 C 0.64975 0.94154 0.33206 0.0
C437 C 0.62396 0.91975 0.30963 0.0
C438 C 0.60258 0.88652 0.3227 0.0
C439 C 0.60503 0.87632 0.35715 0.0
C440 C 0.62882 0.89869 0.37929 0.0
C441 C 0.65101 0.93094 0.36703 0.0
H442 H 0.08893 0.23415 0.85657 0.0
C443 C 0.05634 0.2351 0.85735 0.0
H444 H 1.00207 0.2053 0.8476 0.0
H445 H 0.05367 0.11548 0.7149 0.0
H446 H 0.99763 0.15615 0.6962 0.0
H447 H 0.96664 0.2055 0.73504 0.0
H448 H 0.99093 0.21408 0.79267 0.0
C449 C 0.03461 0.2037 0.84606 0.0
C450 C 0.05244 0.17214 0.82359 0.0
C451 C 0.03803 0.16809 0.78952 0.0
C452 C 0.05676 0.1407 0.76667 0.0
C453 C 0.04127 0.13662 0.73305 0.0
C454 C 1.00898 0.15965 0.72198 0.0
C455 C 0.99147 0.18733 0.74387 0.0
C456 C 1.00572 0.19174 0.77715 0.0
H457 H 0.10605 0.03798 0.7717 0.0
C458 C 0.11763 0.05568 0.75065 0.0
H459 H 0.1257 0.11324 0.72988 0.0
H460 H 0.08206 0.16636 0.88858 0.0
H461 H 0.13956 0.12705 0.90675 0.0
H462 H 0.17645 0.08478 0.8656 0.0
H463 H 0.15553 0.08068 0.80637 0.0
C464 C 0.11391 0.09582 0.75104 0.0
C465 C 0.09068 0.11834 0.77734 0.0
C466 C 0.10435 0.12142 0.81165 0.0
C467 C 0.08444 0.14751 0.83503 0.0
C468 C 0.09726 0.14843 0.86951 0.0
C469 C 0.13002 0.12582 0.88031 0.0
C470 C 0.1507 0.1019 0.85716 0.0
C471 C 0.13821 0.09967 0.8232 0.0
H472 H 0.07614 0.4405 0.7931 0.0
C473 C 0.0532 0.41914 0.78527 0.0
H474 H 0.0301 0.38531 0.74399 0.0
H475 H 0.14849 0.53342 0.68426 0.0
H476 H 0.09116 0.57682 0.69494 0.0
H477 H 0.02902 0.54992 0.72041 0.0
H478 H 0.02382 0.47933 0.73531 0.0
C479 C 0.05049 0.40891 0.75209 0.0
C480 C 0.08224 0.42289 0.72811 0.0
C481 C 0.08453 0.46374 0.71889 0.0
C482 C 0.12036 0.47916 0.70429 0.0
C483 C 0.12208 0.52032 0.69583 0.0
C484 C 0.08937 0.54544 0.70167 0.0
C485 C 0.05437 0.5303 0.71601 0.0
C486 C 0.05182 0.4899 0.72458 0.0
H487 H 0.20891 0.44887 0.6465 0.0
C488 C 0.2184 0.4676 0.66779 0.0
H489 H 0.20361 0.49207 0.71592 0.0
H490 H 0.08403 0.3416 0.73599 0.0
H491 H 0.14028 0.2976 0.72404 0.0
H492 H 0.20375 0.32454 0.70129 0.0
H493 H 0.21125 0.39523 0.68998 0.0
C494 C 0.19424 0.47257 0.69508 0.0
C495 C 0.15398 0.45378 0.6992 0.0
C496 C 0.15022 0.41201 0.70526 0.0
C497 C 0.11392 0.39651 0.71918 0.0
C498 C 0.11102 0.35492 0.7257 0.0
C499 C 0.14306 0.32933 0.71896 0.0
C500 C 0.17876 0.3445 0.7061 0.0
C501 C 0.18259 0.38531 0.69954 0.0
H502 H 0.57131 0.57598 0.28862 0.0
C503 C 0.59001 0.55178 0.27891 0.0
H504 H 0.61915 0.52839 0.23523 0.0
H505 H 0.4771 0.65348 0.17762 0.0
H506 H 0.43252 0.5964 0.18453 0.0
H507 H 0.45749 0.53296 0.20883 0.0
H508 H 0.52735 0.52617 0.22628 0.0
C509 C 0.59784 0.55007 0.24526 0.0
C510 C 0.58496 0.58395 0.22317 0.0
C511 C 0.54452 0.58722 0.21258 0.0
C512 C 0.53017 0.62385 0.19876 0.0
C513 C 0.4894 0.62646 0.18872 0.0
C514 C 0.46359 0.5939 0.19239 0.0
C515 C 0.47765 0.55817 0.20607 0.0
C516 C 0.51766 0.5547 0.2161 0.0
H517 H 0.56594 0.71314 0.1448 0.0
C518 C 0.54567 0.72243 0.16506 0.0
H519 H 0.51725 0.70694 0.21134 0.0
H520 H 0.66575 0.58462 0.23521 0.0
H521 H 0.7108 0.64117 0.22837 0.0
H522 H 0.68557 0.70602 0.20731 0.0
H523 H 0.61564 0.71465 0.19265 0.0
C524 C 0.53814 0.69775 0.19149 0.0
C525 C 0.55622 0.65731 0.19593 0.0
C526 C 0.59759 0.65297 0.20407 0.0
C527 C 0.61203 0.61588 0.2171 0.0
C528 C 0.65323 0.61227 0.22556 0.0
C529 C 0.6794 0.64445 0.22173 0.0
C530 C 0.6652 0.68093 0.20983 0.0
C531 C 0.62482 0.6854 0.20128 0.0
H532 H 0.49778 0.08591 0.75194 0.0
C533 C 0.47991 0.09929 0.77218 0.0
H534 H 0.42193 0.11135 0.79109 0.0
H535 H 0.36758 0.06987 0.63326 0.0
H536 H 0.41019 0.12497 0.61528 0.0
H537 H 0.45507 0.15886 0.65641 0.0
H538 H 0.4584 0.13736 0.71545 0.0
C539 C 0.43958 0.09774 0.77079 0.0
C540 C 0.4167 0.07518 0.74428 0.0
C541 C 0.41445 0.08897 0.71004 0.0
C542 C 0.38714 0.07069 0.68664 0.0
C543 C 0.38663 0.08381 0.6523 0.0
C544 C 0.41109 0.1152 0.64163 0.0
C545 C 0.43646 0.13419 0.66477 0.0
C546 C 0.43819 0.12143 0.69861 0.0
H547 H 0.3001 0.08038 0.66671 0.0
C548 C 0.29724 0.04797 0.66576 0.0
H549 H 0.32435 0.99216 0.67386 0.0
H550 H 0.41767 0.03819 0.80652 0.0
H551 H 0.37409 0.98436 0.82502 0.0
H552 H 0.3232 0.95596 0.78606 0.0
H553 H 0.3159 0.98062 0.72856 0.0
C554 C 0.32797 0.02445 0.67562 0.0
C555 C 0.36084 0.04008 0.69795 0.0
C556 C 0.36428 0.02528 0.73189 0.0
C557 C 0.39265 0.04248 0.7548 0.0
C558 C 0.39591 0.02685 0.78834 0.0
C559 C 0.37121 0.99584 0.79928 0.0
C560 C 0.34265 0.97979 0.77733 0.0
C561 C 0.33898 0.99424 0.74412 0.0
H562 H 0.00959 0.81404 0.19545 0.0
C563 C 0.9903 0.79602 0.17902 0.0
H564 H 0.93443 0.79303 0.15402 0.0
H565 H 0.85932 0.89549 0.27453 0.0
H566 H 0.81699 0.83643 0.27265 0.0
H567 H 0.83022 0.78216 0.23129 0.0
H568 H 0.88549 0.78664 0.19152 0.0
C569 C 0.95488 0.81126 0.16907 0.0
C570 C 0.93988 0.8483 0.18643 0.0
C571 C 0.90679 0.84537 0.20907 0.0
C572 C 0.89956 0.87636 0.23331 0.0
C573 C 0.86665 0.8725 0.25601 0.0
C574 C 0.84199 0.83884 0.25513 0.0
C575 C 0.84943 0.80829 0.23184 0.0
C576 C 0.88142 0.81129 0.20911 0.0
H577 H 0.90148 0.98745 0.23733 0.0
C578 C 0.90696 0.97467 0.26243 0.0
H579 H 0.92592 0.92401 0.28999 0.0
H580 H 0.99803 0.86786 0.14057 0.0
H581 H 0.03945 0.928 0.14124 0.0
H582 H 0.02963 0.98 0.18542 0.0
H583 H 0.97808 0.97266 0.22877 0.0
C584 C 0.92223 0.93752 0.26495 0.0
C585 C 0.92546 0.91005 0.23502 0.0
C586 C 0.95598 0.91484 0.21018 0.0
C587 C 0.96262 0.88422 0.18542 0.0
C588 C 0.99275 0.88982 0.16048 0.0
C589 C 0.01648 0.92419 0.1605 0.0
C590 C 0.01088 0.95352 0.18534 0.0
C591 C 0.9811 0.949 0.21003 0.0
loop_
_geom_bond_atom_site_label_1
_geom_bond_atom_site_label_2
_geom_bond_distance
_geom_bond_site_symmetry_2
_ccdc_geom_bond_type
O0 Cd1 2.223 . S
O0 C8 1.315 . S
Cd1 O0 2.223 . S
Cd1 O4 2.297 . S
Cd1 O5 2.439 1_655 S
Cd1 O11 2.240 1_655 S
Cd2 O3 2.240 . S
Cd2 O10 2.223 . S
Cd2 O12 2.297 . S
Cd2 O13 2.439 . S
O3 Cd2 2.240 . S
O3 C8 1.279 1_455 S
O4 Cd1 2.297 . S
O4 C6 1.247 1_655 S
O5 Cd1 2.439 1_455 S
O5 C6 1.208 . S
C6 O4 1.247 1_455 S
C6 O5 1.208 . S
C7 O12 1.247 . S
C7 O13 1.208 . S
C8 O0 1.315 . S
C8 O3 1.279 1_655 S
C9 O10 1.315 1_655 S
C9 O11 1.279 1_655 S
O10 Cd2 2.223 . S
O10 C9 1.315 1_455 S
O11 Cd1 2.240 1_455 S
O11 C9 1.279 1_455 S
O12 Cd2 2.297 . S
O12 C7 1.247 . S
O13 Cd2 2.439 . S
O13 C7 1.208 . S
O14 Cd15 2.223 . S
O14 C22 1.315 . S
Cd15 O14 2.223 . S
Cd15 O18 2.297 . S
Cd15 O19 2.439 . S
Cd15 O25 2.240 . S
Cd16 O17 2.240 . S
Cd16 O24 2.223 . S
Cd16 O26 2.297 . S
Cd16 O27 2.439 . S
O17 Cd16 2.240 . S
O17 C22 1.279 . S
O18 Cd15 2.297 . S
O18 C20 1.247 . S
O19 Cd15 2.439 . S
O19 C20 1.208 . S
C20 O18 1.247 . S
C20 O19 1.208 . S
C21 O26 1.247 . S
C21 O27 1.208 . S
C22 O14 1.315 . S
C22 O17 1.279 . S
C23 O24 1.315 . S
C23 O25 1.279 . S
O24 Cd16 2.223 . S
O24 C23 1.315 . S
O25 Cd15 2.240 . S
O25 C23 1.279 . S
O26 Cd16 2.297 . S
O26 C21 1.247 . S
O27 Cd16 2.439 . S
O27 C21 1.208 . S
O28 Cd29 2.223 . S
O28 C36 1.315 . S
Cd29 O28 2.223 . S
Cd29 O32 2.297 . S
Cd29 O33 2.439 . S
Cd29 O39 2.240 . S
Cd30 O31 2.240 . S
Cd30 O38 2.223 . S
Cd30 O40 2.297 . S
Cd30 O41 2.439 . S
O31 Cd30 2.240 . S
O31 C36 1.279 . S
O32 Cd29 2.297 . S
O32 C34 1.247 . S
O33 Cd29 2.439 . S
O33 C34 1.208 . S
C34 O32 1.247 . S
C34 O33 1.208 . S
C35 O40 1.247 . S
C35 O41 1.208 . S
C36 O28 1.315 . S
C36 O31 1.279 . S
C37 O38 1.315 . S
C37 O39 1.279 . S
O38 Cd30 2.223 . S
O38 C37 1.315 . S
O39 Cd29 2.240 . S
O39 C37 1.279 . S
O40 Cd30 2.297 . S
O40 C35 1.247 . S
O41 Cd30 2.439 . S
O41 C35 1.208 . S
O42 Cd43 2.223 . S
O42 C50 1.315 . S
Cd43 O42 2.223 . S
Cd43 O46 2.297 . S
Cd43 O47 2.439 1_545 S
Cd43 O53 2.240 1_545 S
Cd44 O45 2.240 . S
Cd44 O52 2.223 . S
Cd44 O54 2.297 . S
Cd44 O55 2.439 . S
O45 Cd44 2.240 . S
O45 C50 1.279 1_565 S
O46 Cd43 2.297 . S
O46 C48 1.247 1_545 S
O47 Cd43 2.439 1_565 S
O47 C48 1.208 . S
C48 O46 1.247 1_565 S
C48 O47 1.208 . S
C49 O54 1.247 . S
C49 O55 1.208 . S
C50 O42 1.315 . S
C50 O45 1.279 1_545 S
C51 O52 1.315 1_545 S
C51 O53 1.279 1_545 S
O52 Cd44 2.223 . S
O52 C51 1.315 1_565 S
O53 Cd43 2.240 1_565 S
O53 C51 1.279 1_565 S
O54 Cd44 2.297 . S
O54 C49 1.247 . S
O55 Cd44 2.439 . S
O55 C49 1.208 . S
O56 Cd57 2.223 . S
O56 C64 1.315 . S
Cd57 O56 2.223 . S
Cd57 O60 2.297 . S
Cd57 O61 2.439 1_455 S
Cd57 O67 2.240 1_455 S
Cd58 O59 2.240 . S
Cd58 O66 2.223 . S
Cd58 O68 2.297 . S
Cd58 O69 2.439 . S
O59 Cd58 2.240 . S
O59 C64 1.279 1_655 S
O60 Cd57 2.297 . S
O60 C62 1.247 1_455 S
O61 Cd57 2.439 1_655 S
O61 C62 1.208 . S
C62 O60 1.247 1_655 S
C62 O61 1.208 . S
C63 O68 1.247 . S
C63 O69 1.208 . S
C64 O56 1.315 . S
C64 O59 1.279 1_455 S
C65 O66 1.315 1_455 S
C65 O67 1.279 1_455 S
O66 Cd58 2.223 . S
O66 C65 1.315 1_655 S
O67 Cd57 2.240 1_655 S
O67 C65 1.279 1_655 S
O68 Cd58 2.297 . S
O68 C63 1.247 . S
O69 Cd58 2.439 . S
O69 C63 1.208 . S
O70 Cd71 2.223 . S
O70 C78 1.315 . S
Cd71 O70 2.223 . S
Cd71 O74 2.297 . S
Cd71 O75 2.439 . S
Cd71 O81 2.240 . S
Cd72 O73 2.240 . S
Cd72 O80 2.223 . S
Cd72 O82 2.297 . S
Cd72 O83 2.439 . S
O73 Cd72 2.240 . S
O73 C78 1.279 . S
O74 Cd71 2.297 . S
O74 C76 1.247 . S
O75 Cd71 2.439 . S
O75 C76 1.208 . S
C76 O74 1.247 . S
C76 O75 1.208 . S
C77 O82 1.247 . S
C77 O83 1.208 . S
C78 O70 1.315 . S
C78 O73 1.279 . S
C79 O80 1.315 . S
C79 O81 1.279 . S
O80 Cd72 2.223 . S
O80 C79 1.315 . S
O81 Cd71 2.240 . S
O81 C79 1.279 . S
O82 Cd72 2.297 . S
O82 C77 1.247 . S
O83 Cd72 2.439 . S
O83 C77 1.208 . S
O84 Cd85 2.223 . S
O84 C92 1.315 . S
Cd85 O84 2.223 . S
Cd85 O88 2.297 . S
Cd85 O89 2.439 . S
Cd85 O95 2.240 . S
Cd86 O87 2.240 . S
Cd86 O94 2.223 . S
Cd86 O96 2.297 . S
Cd86 O97 2.439 . S
O87 Cd86 2.240 . S
O87 C92 1.279 . S
O88 Cd85 2.297 . S
O88 C90 1.247 . S
O89 Cd85 2.439 . S
O89 C90 1.208 . S
C90 O88 1.247 . S
C90 O89 1.208 . S
C91 O96 1.247 . S
C91 O97 1.208 . S
C92 O84 1.315 . S
C92 O87 1.279 . S
C93 O94 1.315 . S
C93 O95 1.279 . S
O94 Cd86 2.223 . S
O94 C93 1.315 . S
O95 Cd85 2.240 . S
O95 C93 1.279 . S
O96 Cd86 2.297 . S
O96 C91 1.247 . S
O97 Cd86 2.439 . S
O97 C91 1.208 . S
O98 Cd99 2.223 . S
O98 C106 1.315 . S
Cd99 O98 2.223 . S
Cd99 O102 2.297 . S
Cd99 O103 2.439 1_565 S
Cd99 O109 2.240 1_565 S
Cd100 O101 2.240 . S
Cd100 O108 2.223 . S
Cd100 O110 2.297 . S
Cd100 O111 2.439 . S
O101 Cd100 2.240 . S
O101 C106 1.279 1_545 S
O102 Cd99 2.297 . S
O102 C104 1.247 1_565 S
O103 Cd99 2.439 1_545 S
O103 C104 1.208 . S
C104 O102 1.247 1_545 S
C104 O103 1.208 . S
C105 O110 1.247 . S
C105 O111 1.208 . S
C106 O98 1.315 . S
C106 O101 1.279 1_565 S
C107 O108 1.315 1_565 S
C107 O109 1.279 1_565 S
O108 Cd100 2.223 . S
O108 C107 1.315 1_545 S
O109 Cd99 2.240 1_545 S
O109 C107 1.279 1_545 S
O110 Cd100 2.297 . S
O110 C105 1.247 . S
O111 Cd100 2.439 . S
O111 C105 1.208 . S
H112 C113 0.936 1_455 S
C113 H112 0.936 1_655 S
C113 C119 1.274 . S
H114 C119 0.950 . S
H115 C123 0.949 . S
H116 C124 0.950 . S
H117 C125 0.951 . S
H118 C126 0.951 1_556 S
C119 C113 1.274 . S
C119 H114 0.950 . S
C119 C120 1.478 . S
C120 C119 1.478 . S
C120 C121 1.397 1_556 S
C120 C137 1.394 1_655 S
C121 C120 1.397 1_554 S
C121 C122 1.438 . S
C121 C126 1.429 . S
C122 C121 1.438 . S
C122 C123 1.428 . S
C122 C135 1.394 1_655 S
C123 H115 0.949 . S
C123 C122 1.428 . S
C123 C124 1.345 . S
C124 H116 0.950 . S
C124 C123 1.345 . S
C124 C125 1.424 . S
C125 H117 0.951 . S
C125 C124 1.424 . S
C125 C126 1.347 . S
C126 H118 0.951 1_554 S
C126 C121 1.429 . S
C126 C125 1.347 . S
H127 C128 0.936 1_655 S
C128 H127 0.936 1_455 S
C128 C134 1.274 . S
H129 C134 0.950 . S
H130 C138 0.949 . S
H131 C139 0.950 . S
H132 C140 0.951 . S
H133 C141 0.951 1_554 S
C134 C128 1.274 . S
C134 H129 0.950 . S
C134 C135 1.478 . S
C135 C122 1.394 1_455 S
C135 C134 1.478 . S
C135 C136 1.397 1_554 S
C136 C135 1.397 1_556 S
C136 C137 1.438 . S
C136 C141 1.429 . S
C137 C120 1.394 1_455 S
C137 C136 1.438 . S
C137 C138 1.428 . S
C138 H130 0.949 . S
C138 C137 1.428 . S
C138 C139 1.345 . S
C139 H131 0.950 . S
C139 C138 1.345 . S
C139 C140 1.424 . S
C140 H132 0.951 . S
C140 C139 1.424 . S
C140 C141 1.347 . S
C141 H133 0.951 1_556 S
C141 C136 1.429 . S
C141 C140 1.347 . S
H142 C143 0.951 . S
C143 H142 0.951 . S
C143 C149 1.265 . S
H144 C149 0.950 . S
H145 C153 0.949 . S
H146 C154 0.950 . S
H147 C155 0.951 . S
H148 C156 0.951 . S
C149 C143 1.265 . S
C149 H144 0.950 . S
C149 C150 1.478 . S
C150 C149 1.478 . S
C150 C151 1.397 . S
C150 C167 1.394 . S
C151 C150 1.397 . S
C151 C152 1.438 . S
C151 C156 1.429 . S
C152 C151 1.438 . S
C152 C153 1.428 . S
C152 C165 1.394 . S
C153 H145 0.949 . S
C153 C152 1.428 . S
C153 C154 1.345 . S
C154 H146 0.950 . S
C154 C153 1.345 . S
C154 C155 1.424 . S
C155 H147 0.951 . S
C155 C154 1.424 . S
C155 C156 1.347 . S
C156 H148 0.951 . S
C156 C151 1.429 . S
C156 C155 1.347 . S
H157 C158 0.951 . S
C158 H157 0.951 . S
C158 C164 1.265 . S
H159 C164 0.950 . S
H160 C168 0.949 . S
H161 C169 0.950 . S
H162 C170 0.951 . S
H163 C171 0.951 . S
C164 C158 1.265 . S
C164 H159 0.950 . S
C164 C165 1.478 . S
C165 C152 1.394 . S
C165 C164 1.478 . S
C165 C166 1.397 . S
C166 C165 1.397 . S
C166 C167 1.438 . S
C166 C171 1.429 . S
C167 C150 1.394 . S
C167 C166 1.438 . S
C167 C168 1.428 . S
C168 H160 0.949 . S
C168 C167 1.428 . S
C168 C169 1.345 . S
C169 H161 0.950 . S
C169 C168 1.345 . S
C169 C170 1.424 . S
C170 H162 0.951 . S
C170 C169 1.424 . S
C170 C171 1.347 . S
C171 H163 0.951 . S
C171 C166 1.429 . S
C171 C170 1.347 . S
H172 C173 0.951 . S
C173 H172 0.951 . S
C173 C179 1.265 . S
H174 C179 0.950 . S
H175 C183 0.949 . S
H176 C184 0.950 . S
H177 C185 0.951 . S
H178 C186 0.951 1_554 S
C179 C173 1.265 . S
C179 H174 0.950 . S
C179 C180 1.478 . S
C180 C179 1.478 . S
C180 C181 1.397 1_554 S
C180 C197 1.394 1_565 S
C181 C180 1.397 1_556 S
C181 C182 1.438 . S
C181 C186 1.429 . S
C182 C181 1.438 . S
C182 C183 1.428 . S
C182 C195 1.394 1_565 S
C183 H175 0.949 . S
C183 C182 1.428 . S
C183 C184 1.345 . S
C184 H176 0.950 . S
C184 C183 1.345 . S
C184 C185 1.424 . S
C185 H177 0.951 . S
C185 C184 1.424 . S
C185 C186 1.347 . S
C186 H178 0.951 1_556 S
C186 C181 1.429 . S
C186 C185 1.347 . S
H187 C188 0.951 . S
C188 H187 0.951 . S
C188 C194 1.265 . S
H189 C194 0.950 . S
H190 C198 0.949 . S
H191 C199 0.950 . S
H192 C200 0.951 . S
H193 C201 0.951 1_556 S
C194 C188 1.265 . S
C194 H189 0.950 . S
C194 C195 1.478 . S
C195 C182 1.394 1_545 S
C195 C194 1.478 . S
C195 C196 1.397 1_556 S
C196 C195 1.397 1_554 S
C196 C197 1.438 . S
C196 C201 1.429 . S
C197 C180 1.394 1_545 S
C197 C196 1.438 . S
C197 C198 1.428 . S
C198 H190 0.949 . S
C198 C197 1.428 . S
C198 C199 1.345 . S
C199 H191 0.950 . S
C199 C198 1.345 . S
C199 C200 1.424 . S
C200 H192 0.951 . S
C200 C199 1.424 . S
C200 C201 1.347 . S
C201 H193 0.951 1_554 S
C201 C196 1.429 . S
C201 C200 1.347 . S
H202 C203 0.951 . S
C203 H202 0.951 . S
C203 C209 1.265 . S
H204 C209 0.950 . S
H205 C213 0.949 . S
H206 C214 0.950 . S
H207 C215 0.951 . S
H208 C216 0.951 . S
C209 C203 1.265 . S
C209 H204 0.950 . S
C209 C210 1.478 . S
C210 C209 1.478 . S
C210 C211 1.397 1_545 S
C210 C227 1.394 . S
C211 C210 1.397 1_565 S
C211 C212 1.438 1_655 S
C211 C216 1.429 . S
C212 C211 1.438 1_455 S
C212 C213 1.428 . S
C212 C225 1.394 . S
C213 H205 0.949 . S
C213 C212 1.428 . S
C213 C214 1.345 1_455 S
C214 H206 0.950 . S
C214 C213 1.345 1_655 S
C214 C215 1.424 . S
C215 H207 0.951 . S
C215 C214 1.424 . S
C215 C216 1.347 . S
C216 H208 0.951 . S
C216 C211 1.429 . S
C216 C215 1.347 . S
H217 C218 0.951 . S
C218 H217 0.951 . S
C218 C224 1.265 . S
H219 C224 0.950 . S
H220 C228 0.949 . S
H221 C229 0.950 . S
H222 C230 0.951 . S
H223 C231 0.951 . S
C224 C218 1.265 . S
C224 H219 0.950 . S
C224 C225 1.478 . S
C225 C212 1.394 . S
C225 C224 1.478 . S
C225 C226 1.397 1_565 S
C226 C225 1.397 1_545 S
C226 C227 1.438 1_455 S
C226 C231 1.429 . S
C227 C210 1.394 . S
C227 C226 1.438 1_655 S
C227 C228 1.428 . S
C228 H220 0.949 . S
C228 C227 1.428 . S
C228 C229 1.345 1_655 S
C229 H221 0.950 . S
C229 C228 1.345 1_455 S
C229 C230 1.424 . S
C230 H222 0.951 . S
C230 C229 1.424 . S
C230 C231 1.347 . S
C231 H223 0.951 . S
C231 C226 1.429 . S
C231 C230 1.347 . S
H232 C233 0.951 . S
C233 H232 0.951 . S
C233 C239 1.265 . S
H234 C239 0.950 . S
H235 C243 0.949 . S
H236 C244 0.950 . S
H237 C245 0.951 . S
H238 C246 0.951 . S
C239 C233 1.265 . S
C239 H234 0.950 . S
C239 C240 1.478 . S
C240 C239 1.478 . S
C240 C241 1.397 . S
C240 C257 1.394 . S
C241 C240 1.397 . S
C241 C242 1.438 . S
C241 C246 1.429 . S
C242 C241 1.438 . S
C242 C243 1.428 . S
C242 C255 1.394 . S
C243 H235 0.949 . S
C243 C242 1.428 . S
C243 C244 1.345 . S
C244 H236 0.950 . S
C244 C243 1.345 . S
C244 C245 1.424 . S
C245 H237 0.951 . S
C245 C244 1.424 . S
C245 C246 1.347 . S
C246 H238 0.951 . S
C246 C241 1.429 . S
C246 C245 1.347 . S
H247 C248 0.951 . S
C248 H247 0.951 . S
C248 C254 1.265 . S
H249 C254 0.950 . S
H250 C258 0.949 . S
H251 C259 0.950 . S
H252 C260 0.951 . S
H253 C261 0.951 . S
C254 C248 1.265 . S
C254 H249 0.950 . S
C254 C255 1.478 . S
C255 C242 1.394 . S
C255 C254 1.478 . S
C255 C256 1.397 . S
C256 C255 1.397 . S
C256 C257 1.438 . S
C256 C261 1.429 . S
C257 C240 1.394 . S
C257 C256 1.438 . S
C257 C258 1.428 . S
C258 H250 0.949 . S
C258 C257 1.428 . S
C258 C259 1.345 . S
C259 H251 0.950 . S
C259 C258 1.345 . S
C259 C260 1.424 . S
C260 H252 0.951 . S
C260 C259 1.424 . S
C260 C261 1.347 . S
C261 H253 0.951 . S
C261 C256 1.429 . S
C261 C260 1.347 . S
H262 C263 0.951 . S
C263 H262 0.951 . S
C263 C269 1.265 . S
H264 C269 0.950 . S
H265 C273 0.949 . S
H266 C274 0.950 . S
H267 C275 0.951 . S
H268 C276 0.951 . S
C269 C263 1.265 . S
C269 H264 0.950 . S
C269 C270 1.478 . S
C270 C269 1.478 . S
C270 C271 1.397 . S
C270 C287 1.394 . S
C271 C270 1.397 . S
C271 C272 1.438 . S
C271 C276 1.429 . S
C272 C271 1.438 . S
C272 C273 1.428 . S
C272 C285 1.394 . S
C273 H265 0.949 . S
C273 C272 1.428 . S
C273 C274 1.345 . S
C274 H266 0.950 . S
C274 C273 1.345 . S
C274 C275 1.424 . S
C275 H267 0.951 . S
C275 C274 1.424 . S
C275 C276 1.347 . S
C276 H268 0.951 . S
C276 C271 1.429 . S
C276 C275 1.347 . S
H277 C278 0.951 . S
C278 H277 0.951 . S
C278 C284 1.265 . S
H279 C284 0.950 . S
H280 C288 0.949 . S
H281 C289 0.950 . S
H282 C290 0.951 . S
H283 C291 0.951 . S
C284 C278 1.265 . S
C284 H279 0.950 . S
C284 C285 1.478 . S
C285 C272 1.394 . S
C285 C284 1.478 . S
C285 C286 1.397 . S
C286 C285 1.397 . S
C286 C287 1.438 . S
C286 C291 1.429 . S
C287 C270 1.394 . S
C287 C286 1.438 . S
C287 C288 1.428 . S
C288 H280 0.949 . S
C288 C287 1.428 . S
C288 C289 1.345 . S
C289 H281 0.950 . S
C289 C288 1.345 . S
C289 C290 1.424 . S
C290 H282 0.951 . S
C290 C289 1.424 . S
C290 C291 1.347 . S
C291 H283 0.951 . S
C291 C286 1.429 . S
C291 C290 1.347 . S
H292 C293 0.951 . S
C293 H292 0.951 . S
C293 C299 1.265 . S
H294 C299 0.950 . S
H295 C303 0.949 . S
H296 C304 0.950 . S
H297 C305 0.951 . S
H298 C306 0.951 . S
C299 C293 1.265 . S
C299 H294 0.950 . S
C299 C300 1.478 . S
C300 C299 1.478 . S
C300 C301 1.397 . S
C300 C317 1.394 . S
C301 C300 1.397 . S
C301 C302 1.438 . S
C301 C306 1.429 . S
C302 C301 1.438 . S
C302 C303 1.428 . S
C302 C315 1.394 . S
C303 H295 0.949 . S
C303 C302 1.428 . S
C303 C304 1.345 . S
C304 H296 0.950 . S
C304 C303 1.345 . S
C304 C305 1.424 . S
C305 H297 0.951 . S
C305 C304 1.424 . S
C305 C306 1.347 . S
C306 H298 0.951 . S
C306 C301 1.429 . S
C306 C305 1.347 . S
H307 C308 0.951 . S
C308 H307 0.951 . S
C308 C314 1.265 . S
H309 C314 0.950 . S
H310 C318 0.949 . S
H311 C319 0.950 . S
H312 C320 0.951 . S
H313 C321 0.951 . S
C314 C308 1.265 . S
C314 H309 0.950 . S
C314 C315 1.478 . S
C315 C302 1.394 . S
C315 C314 1.478 . S
C315 C316 1.397 . S
C316 C315 1.397 . S
C316 C317 1.438 . S
C316 C321 1.429 . S
C317 C300 1.394 . S
C317 C316 1.438 . S
C317 C318 1.428 . S
C318 H310 0.949 . S
C318 C317 1.428 . S
C318 C319 1.345 . S
C319 H311 0.950 . S
C319 C318 1.345 . S
C319 C320 1.424 . S
C320 H312 0.951 . S
C320 C319 1.424 . S
C320 C321 1.347 . S
C321 H313 0.951 . S
C321 C316 1.429 . S
C321 C320 1.347 . S
H322 C323 0.951 . S
C323 H322 0.951 . S
C323 C329 1.265 . S
H324 C329 0.950 . S
H325 C333 0.949 . S
H326 C334 0.950 . S
H327 C335 0.951 . S
H328 C336 0.951 . S
C329 C323 1.265 . S
C329 H324 0.950 . S
C329 C330 1.478 . S
C330 C329 1.478 . S
C330 C331 1.397 . S
C330 C347 1.394 . S
C331 C330 1.397 . S
C331 C332 1.438 . S
C331 C336 1.429 . S
C332 C331 1.438 . S
C332 C333 1.428 . S
C332 C345 1.394 . S
C333 H325 0.949 . S
C333 C332 1.428 . S
C333 C334 1.345 . S
C334 H326 0.950 . S
C334 C333 1.345 . S
C334 C335 1.424 . S
C335 H327 0.951 . S
C335 C334 1.424 . S
C335 C336 1.347 . S
C336 H328 0.951 . S
C336 C331 1.429 . S
C336 C335 1.347 . S
H337 C338 0.951 . S
C338 H337 0.951 . S
C338 C344 1.265 . S
H339 C344 0.950 . S
H340 C348 0.949 . S
H341 C349 0.950 . S
H342 C350 0.951 . S
H343 C351 0.951 . S
C344 C338 1.265 . S
C344 H339 0.950 . S
C344 C345 1.478 . S
C345 C332 1.394 . S
C345 C344 1.478 . S
C345 C346 1.397 . S
C346 C345 1.397 . S
C346 C347 1.438 . S
C346 C351 1.429 . S
C347 C330 1.394 . S
C347 C346 1.438 . S
C347 C348 1.428 . S
C348 H340 0.949 . S
C348 C347 1.428 . S
C348 C349 1.345 . S
C349 H341 0.950 . S
C349 C348 1.345 . S
C349 C350 1.424 . S
C350 H342 0.951 . S
C350 C349 1.424 . S
C350 C351 1.347 . S
C351 H343 0.951 . S
C351 C346 1.429 . S
C351 C350 1.347 . S
H352 C353 0.951 . S
C353 H352 0.951 . S
C353 C359 1.265 . S
H354 C359 0.950 . S
H355 C363 0.949 . S
H356 C364 0.950 . S
H357 C365 0.951 . S
H358 C366 0.951 . S
C359 C353 1.265 . S
C359 H354 0.950 . S
C359 C360 1.478 . S
C360 C359 1.478 . S
C360 C361 1.397 . S
C360 C377 1.394 . S
C361 C360 1.397 . S
C361 C362 1.438 . S
C361 C366 1.429 . S
C362 C361 1.438 . S
C362 C363 1.428 . S
C362 C375 1.394 . S
C363 H355 0.949 . S
C363 C362 1.428 . S
C363 C364 1.345 . S
C364 H356 0.950 . S
C364 C363 1.345 . S
C364 C365 1.424 . S
C365 H357 0.951 . S
C365 C364 1.424 . S
C365 C366 1.347 . S
C366 H358 0.951 . S
C366 C361 1.429 . S
C366 C365 1.347 . S
H367 C368 0.951 . S
C368 H367 0.951 . S
C368 C374 1.265 . S
H369 C374 0.950 . S
H370 C378 0.949 . S
H371 C379 0.950 . S
H372 C380 0.951 . S
H373 C381 0.951 . S
C374 C368 1.265 . S
C374 H369 0.950 . S
C374 C375 1.478 . S
C375 C362 1.394 . S
C375 C374 1.478 . S
C375 C376 1.397 . S
C376 C375 1.397 . S
C376 C377 1.438 . S
C376 C381 1.429 . S
C377 C360 1.394 . S
C377 C376 1.438 . S
C377 C378 1.428 . S
C378 H370 0.949 . S
C378 C377 1.428 . S
C378 C379 1.345 . S
C379 H371 0.950 . S
C379 C378 1.345 . S
C379 C380 1.424 . S
C380 H372 0.951 . S
C380 C379 1.424 . S
C380 C381 1.347 . S
C381 H373 0.951 . S
C381 C376 1.429 . S
C381 C380 1.347 . S
H382 C383 0.951 . S
C383 H382 0.951 . S
C383 C389 1.265 . S
H384 C389 0.950 . S
H385 C393 0.949 . S
H386 C394 0.950 . S
H387 C395 0.951 . S
H388 C396 0.951 . S
C389 C383 1.265 . S
C389 H384 0.950 . S
C389 C390 1.478 . S
C390 C389 1.478 . S
C390 C391 1.397 . S
C390 C407 1.394 . S
C391 C390 1.397 . S
C391 C392 1.438 . S
C391 C396 1.429 . S
C392 C391 1.438 . S
C392 C393 1.428 . S
C392 C405 1.394 . S
C393 H385 0.949 . S
C393 C392 1.428 . S
C393 C394 1.345 . S
C394 H386 0.950 . S
C394 C393 1.345 . S
C394 C395 1.424 . S
C395 H387 0.951 . S
C395 C394 1.424 . S
C395 C396 1.347 . S
C396 H388 0.951 . S
C396 C391 1.429 . S
C396 C395 1.347 . S
H397 C398 0.951 . S
C398 H397 0.951 . S
C398 C404 1.265 . S
H399 C404 0.950 . S
H400 C408 0.949 . S
H401 C409 0.950 . S
H402 C410 0.951 . S
H403 C411 0.951 . S
C404 C398 1.265 . S
C404 H399 0.950 . S
C404 C405 1.478 . S
C405 C392 1.394 . S
C405 C404 1.478 . S
C405 C406 1.397 . S
C406 C405 1.397 . S
C406 C407 1.438 . S
C406 C411 1.429 . S
C407 C390 1.394 . S
C407 C406 1.438 . S
C407 C408 1.428 . S
C408 H400 0.949 . S
C408 C407 1.428 . S
C408 C409 1.345 . S
C409 H401 0.950 . S
C409 C408 1.345 . S
C409 C410 1.424 . S
C410 H402 0.951 . S
C410 C409 1.424 . S
C410 C411 1.347 . S
C411 H403 0.951 . S
C411 C406 1.429 . S
C411 C410 1.347 . S
H412 C413 0.951 . S
C413 H412 0.951 . S
C413 C419 1.265 . S
H414 C419 0.950 . S
H415 C423 0.949 . S
H416 C424 0.950 . S
H417 C425 0.951 . S
H418 C426 0.951 . S
C419 C413 1.265 . S
C419 H414 0.950 . S
C419 C420 1.478 . S
C420 C419 1.478 . S
C420 C421 1.397 . S
C420 C437 1.394 . S
C421 C420 1.397 . S
C421 C422 1.438 . S
C421 C426 1.429 . S
C422 C421 1.438 . S
C422 C423 1.428 . S
C422 C435 1.394 . S
C423 H415 0.949 . S
C423 C422 1.428 . S
C423 C424 1.345 . S
C424 H416 0.950 . S
C424 C423 1.345 . S
C424 C425 1.424 . S
C425 H417 0.951 . S
C425 C424 1.424 . S
C425 C426 1.347 . S
C426 H418 0.951 . S
C426 C421 1.429 . S
C426 C425 1.347 . S
H427 C428 0.951 . S
C428 H427 0.951 . S
C428 C434 1.265 . S
H429 C434 0.950 1_545 S
H430 C438 0.949 . S
H431 C439 0.950 . S
H432 C440 0.951 . S
H433 C441 0.951 . S
C434 C428 1.265 . S
C434 H429 0.950 1_565 S
C434 C435 1.478 . S
C435 C422 1.394 . S
C435 C434 1.478 . S
C435 C436 1.397 . S
C436 C435 1.397 . S
C436 C437 1.438 . S
C436 C441 1.429 . S
C437 C420 1.394 . S
C437 C436 1.438 . S
C437 C438 1.428 . S
C438 H430 0.949 . S
C438 C437 1.428 . S
C438 C439 1.345 . S
C439 H431 0.950 . S
C439 C438 1.345 . S
C439 C440 1.424 . S
C440 H432 0.951 . S
C440 C439 1.424 . S
C440 C441 1.347 . S
C441 H433 0.951 . S
C441 C436 1.429 . S
C441 C440 1.347 . S
H442 C443 0.951 . S
C443 H442 0.951 . S
C443 C449 1.265 . S
H444 C449 0.950 1_655 S
H445 C453 0.949 . S
H446 C454 0.950 . S
H447 C455 0.951 . S
H448 C456 0.951 . S
C449 C443 1.265 . S
C449 H444 0.950 1_455 S
C449 C450 1.478 . S
C450 C449 1.478 . S
C450 C451 1.397 . S
C450 C467 1.394 . S
C451 C450 1.397 . S
C451 C452 1.438 . S
C451 C456 1.429 1_455 S
C452 C451 1.438 . S
C452 C453 1.428 . S
C452 C465 1.394 . S
C453 H445 0.949 . S
C453 C452 1.428 . S
C453 C454 1.345 1_455 S
C454 H446 0.950 . S
C454 C453 1.345 1_655 S
C454 C455 1.424 . S
C455 H447 0.951 . S
C455 C454 1.424 . S
C455 C456 1.347 . S
C456 H448 0.951 . S
C456 C451 1.429 1_655 S
C456 C455 1.347 . S
H457 C458 0.951 . S
C458 H457 0.951 . S
C458 C464 1.265 . S
H459 C464 0.950 . S
H460 C468 0.949 . S
H461 C469 0.950 . S
H462 C470 0.951 . S
H463 C471 0.951 . S
C464 C458 1.265 . S
C464 H459 0.950 . S
C464 C465 1.478 . S
C465 C452 1.394 . S
C465 C464 1.478 . S
C465 C466 1.397 . S
C466 C465 1.397 . S
C466 C467 1.438 . S
C466 C471 1.429 . S
C467 C450 1.394 . S
C467 C466 1.438 . S
C467 C468 1.428 . S
C468 H460 0.949 . S
C468 C467 1.428 . S
C468 C469 1.345 . S
C469 H461 0.950 . S
C469 C468 1.345 . S
C469 C470 1.424 . S
C470 H462 0.951 . S
C470 C469 1.424 . S
C470 C471 1.347 . S
C471 H463 0.951 . S
C471 C466 1.429 . S
C471 C470 1.347 . S
H472 C473 0.951 . S
C473 H472 0.951 . S
C473 C479 1.265 . S
H474 C479 0.950 . S
H475 C483 0.949 . S
H476 C484 0.950 . S
H477 C485 0.951 . S
H478 C486 0.951 . S
C479 C473 1.265 . S
C479 H474 0.950 . S
C479 C480 1.478 . S
C480 C479 1.478 . S
C480 C481 1.397 . S
C480 C497 1.394 . S
C481 C480 1.397 . S
C481 C482 1.438 . S
C481 C486 1.429 . S
C482 C481 1.438 . S
C482 C483 1.428 . S
C482 C495 1.394 . S
C483 H475 0.949 . S
C483 C482 1.428 . S
C483 C484 1.345 . S
C484 H476 0.950 . S
C484 C483 1.345 . S
C484 C485 1.424 . S
C485 H477 0.951 . S
C485 C484 1.424 . S
C485 C486 1.347 . S
C486 H478 0.951 . S
C486 C481 1.429 . S
C486 C485 1.347 . S
H487 C488 0.951 . S
C488 H487 0.951 . S
C488 C494 1.265 . S
H489 C494 0.950 . S
H490 C498 0.949 . S
H491 C499 0.950 . S
H492 C500 0.951 . S
H493 C501 0.951 . S
C494 C488 1.265 . S
C494 H489 0.950 . S
C494 C495 1.478 . S
C495 C482 1.394 . S
C495 C494 1.478 . S
C495 C496 1.397 . S
C496 C495 1.397 . S
C496 C497 1.438 . S
C496 C501 1.429 . S
C497 C480 1.394 . S
C497 C496 1.438 . S
C497 C498 1.428 . S
C498 H490 0.949 . S
C498 C497 1.428 . S
C498 C499 1.345 . S
C499 H491 0.950 . S
C499 C498 1.345 . S
C499 C500 1.424 . S
C500 H492 0.951 . S
C500 C499 1.424 . S
C500 C501 1.347 . S
C501 H493 0.951 . S
C501 C496 1.429 . S
C501 C500 1.347 . S
H502 C503 0.951 . S
C503 H502 0.951 . S
C503 C509 1.265 . S
H504 C509 0.950 . S
H505 C513 0.949 . S
H506 C514 0.950 . S
H507 C515 0.951 . S
H508 C516 0.951 . S
C509 C503 1.265 . S
C509 H504 0.950 . S
C509 C510 1.478 . S
C510 C509 1.478 . S
C510 C511 1.397 . S
C510 C527 1.394 . S
C511 C510 1.397 . S
C511 C512 1.438 . S
C511 C516 1.429 . S
C512 C511 1.438 . S
C512 C513 1.428 . S
C512 C525 1.394 . S
C513 H505 0.949 . S
C513 C512 1.428 . S
C513 C514 1.345 . S
C514 H506 0.950 . S
C514 C513 1.345 . S
C514 C515 1.424 . S
C515 H507 0.951 . S
C515 C514 1.424 . S
C515 C516 1.347 . S
C516 H508 0.951 . S
C516 C511 1.429 . S
C516 C515 1.347 . S
H517 C518 0.951 . S
C518 H517 0.951 . S
C518 C524 1.265 . S
H519 C524 0.950 . S
H520 C528 0.949 . S
H521 C529 0.950 . S
H522 C530 0.951 . S
H523 C531 0.951 . S
C524 C518 1.265 . S
C524 H519 0.950 . S
C524 C525 1.478 . S
C525 C512 1.394 . S
C525 C524 1.478 . S
C525 C526 1.397 . S
C526 C525 1.397 . S
C526 C527 1.438 . S
C526 C531 1.429 . S
C527 C510 1.394 . S
C527 C526 1.438 . S
C527 C528 1.428 . S
C528 H520 0.949 . S
C528 C527 1.428 . S
C528 C529 1.345 . S
C529 H521 0.950 . S
C529 C528 1.345 . S
C529 C530 1.424 . S
C530 H522 0.951 . S
C530 C529 1.424 . S
C530 C531 1.347 . S
C531 H523 0.951 . S
C531 C526 1.429 . S
C531 C530 1.347 . S
H532 C533 0.951 . S
C533 H532 0.951 . S
C533 C539 1.265 . S
H534 C539 0.950 . S
H535 C543 0.949 . S
H536 C544 0.950 . S
H537 C545 0.951 . S
H538 C546 0.951 . S
C539 C533 1.265 . S
C539 H534 0.950 . S
C539 C540 1.478 . S
C540 C539 1.478 . S
C540 C541 1.397 . S
C540 C557 1.394 . S
C541 C540 1.397 . S
C541 C542 1.438 . S
C541 C546 1.429 . S
C542 C541 1.438 . S
C542 C543 1.428 . S
C542 C555 1.394 . S
C543 H535 0.949 . S
C543 C542 1.428 . S
C543 C544 1.345 . S
C544 H536 0.950 . S
C544 C543 1.345 . S
C544 C545 1.424 . S
C545 H537 0.951 . S
C545 C544 1.424 . S
C545 C546 1.347 . S
C546 H538 0.951 . S
C546 C541 1.429 . S
C546 C545 1.347 . S
H547 C548 0.951 . S
C548 H547 0.951 . S
C548 C554 1.265 . S
H549 C554 0.950 1_565 S
H550 C558 0.949 . S
H551 C559 0.950 . S
H552 C560 0.951 . S
H553 C561 0.951 1_565 S
C554 C548 1.265 . S
C554 H549 0.950 1_545 S
C554 C555 1.478 . S
C555 C542 1.394 . S
C555 C554 1.478 . S
C555 C556 1.397 . S
C556 C555 1.397 . S
C556 C557 1.438 . S
C556 C561 1.429 . S
C557 C540 1.394 . S
C557 C556 1.438 . S
C557 C558 1.428 . S
C558 H550 0.949 . S
C558 C557 1.428 . S
C558 C559 1.345 . S
C559 H551 0.950 . S
C559 C558 1.345 . S
C559 C560 1.424 1_545 S
C560 H552 0.951 . S
C560 C559 1.424 1_565 S
C560 C561 1.347 1_565 S
C561 H553 0.951 1_545 S
C561 C556 1.429 . S
C561 C560 1.347 1_545 S
H562 C563 0.951 1_455 S
C563 H562 0.951 1_655 S
C563 C569 1.265 . S
H564 C569 0.950 . S
H565 C573 0.949 . S
H566 C574 0.950 . S
H567 C575 0.951 . S
H568 C576 0.951 . S
C569 C563 1.265 . S
C569 H564 0.950 . S
C569 C570 1.478 . S
C570 C569 1.478 . S
C570 C571 1.397 . S
C570 C587 1.394 . S
C571 C570 1.397 . S
C571 C572 1.438 . S
C571 C576 1.429 . S
C572 C571 1.438 . S
C572 C573 1.428 . S
C572 C585 1.394 . S
C573 H565 0.949 . S
C573 C572 1.428 . S
C573 C574 1.345 . S
C574 H566 0.950 . S
C574 C573 1.345 . S
C574 C575 1.424 . S
C575 H567 0.951 . S
C575 C574 1.424 . S
C575 C576 1.347 . S
C576 H568 0.951 . S
C576 C571 1.429 . S
C576 C575 1.347 . S
H577 C578 0.951 . S
C578 H577 0.951 . S
C578 C584 1.265 . S
H579 C584 0.950 . S
H580 C588 0.949 . S
H581 C589 0.950 . S
H582 C590 0.951 . S
H583 C591 0.951 . S
C584 C578 1.265 . S
C584 H579 0.950 . S
C584 C585 1.478 . S
C585 C572 1.394 . S
C585 C584 1.478 . S
C585 C586 1.397 . S
C586 C585 1.397 . S
C586 C587 1.438 . S
C586 C591 1.429 . S
C587 C570 1.394 . S
C587 C586 1.438 . S
C587 C588 1.428 . S
C588 H580 0.949 . S
C588 C587 1.428 . S
C588 C589 1.345 . S
C589 H581 0.950 . S
C589 C588 1.345 . S
C589 C590 1.424 . S
C590 H582 0.951 . S
C590 C589 1.424 . S
C590 C591 1.347 . S
C591 H583 0.951 . S
C591 C586 1.429 . S
C591 C590 1.347 . S
C113 C62 1.464 . S
C128 C6 1.464 . S
C143 C20 1.499 . S
C158 C76 1.499 . S
C173 C34 1.511 . S
C188 C90 1.511 . S
C203 C104 1.498 . S
C218 C48 1.498 . S
C233 C7 1.329 . S
C248 C35 1.332 . S
C263 C21 1.295 . S
C278 C49 1.297 . S
C293 C91 1.293 . S
C308 C63 1.300 . S
C323 C77 1.306 . S
C338 C105 1.288 . S
C353 C79 1.316 . S
C368 C8 1.363 . S
C383 C22 1.328 . S
C398 C93 1.370 . S
C413 C36 1.351 . S
C428 C107 1.354 . S
C443 C65 1.353 . S
C458 C50 1.352 . S
C473 C64 1.253 . S
C488 C23 1.346 . S
C503 C78 1.276 . S
C518 C37 1.320 . S
C533 C92 1.340 . S
C548 C51 1.363 . S
C563 C9 1.318 . S
C578 C106 1.280 . S
