# Generated by pormake.
# Topology cbo, (4)-cn, num edge types: 1
# Building blocks:
#     Node 0, Type 0, BuildingBlock: NAHDIM_clean_sbu_0, # of connection points: 4
#     Node 1, Type 0, BuildingBlock: NAHDIM_clean_sbu_0, # of connection points: 4
#     Node 2, Type 0, BuildingBlock: NAHDIM_clean_sbu_0, # of connection points: 4
#     Node 3, Type 0, BuildingBlock: NAHDIM_clean_sbu_0, # of connection points: 4
#     Node 4, Type 0, BuildingBlock: NAHDIM_clean_sbu_0, # of connection points: 4
#     Node 5, Type 0, BuildingBlock: NAHDIM_clean_sbu_0, # of connection points: 4
#     Node 6, Type 0, BuildingBlock: NAHDIM_clean_sbu_0, # of connection points: 4
#     Node 7, Type 0, BuildingBlock: NAHDIM_clean_sbu_0, # of connection points: 4
#     Node 8, Type 0, BuildingBlock: NAHDIM_clean_sbu_0, # of connection points: 4
#     Node 9, Type 0, BuildingBlock: NAHDIM_clean_sbu_0, # of connection points: 4
#     Node 10, Type 0, BuildingBlock: NAHDIM_clean_sbu_0, # of connection points: 4
#     Node 11, Type 0, BuildingBlock: NAHDIM_clean_sbu_0, # of connection points: 4
#     Node 12, Type 0, BuildingBlock: NAHDIM_clean_sbu_0, # of connection points: 4
#     Node 13, Type 0, BuildingBlock: NAHDIM_clean_sbu_0, # of connection points: 4
#     Node 14, Type 0, BuildingBlock: NAHDIM_clean_sbu_0, # of connection points: 4
#     Node 15, Type 0, BuildingBlock: NAHDIM_clean_sbu_0, # of connection points: 4
#     Node 16, Type 0, BuildingBlock: NAHDIM_clean_sbu_0, # of connection points: 4
#     Node 17, Type 0, BuildingBlock: NAHDIM_clean_sbu_0, # of connection points: 4
#     Node 18, Type 0, BuildingBlock: NAHDIM_clean_sbu_0, # of connection points: 4
#     Node 19, Type 0, BuildingBlock: NAHDIM_clean_sbu_0, # of connection points: 4
#     Node 20, Type 0, BuildingBlock: NAHDIM_clean_sbu_0, # of connection points: 4
#     Node 21, Type 0, BuildingBlock: NAHDIM_clean_sbu_0, # of connection points: 4
#     Node 22, Type 0, BuildingBlock: NAHDIM_clean_sbu_0, # of connection points: 4
#     Node 23, Type 0, BuildingBlock: NAHDIM_clean_sbu_0, # of connection points: 4
#     Edge 24, Type (0, 0), BuildingBlock: OJICUG_clean_linker_0, # of connection points: 2
#     Edge 25, Type (0, 0), BuildingBlock: OJICUG_clean_linker_0, # of connection points: 2
#     Edge 26, Type (0, 0), BuildingBlock: OJICUG_clean_linker_0, # of connection points: 2
#     Edge 27, Type (0, 0), BuildingBlock: OJICUG_clean_linker_0, # of connection points: 2
#     Edge 28, Type (0, 0), BuildingBlock: OJICUG_clean_linker_0, # of connection points: 2
#     Edge 29, Type (0, 0), BuildingBlock: OJICUG_clean_linker_0, # of connection points: 2
#     Edge 30, Type (0, 0), BuildingBlock: OJICUG_clean_linker_0, # of connection points: 2
#     Edge 31, Type (0, 0), BuildingBlock: OJICUG_clean_linker_0, # of connection points: 2
#     Edge 32, Type (0, 0), BuildingBlock: OJICUG_clean_linker_0, # of connection points: 2
#     Edge 33, Type (0, 0), BuildingBlock: OJICUG_clean_linker_0, # of connection points: 2
#     Edge 34, Type (0, 0), BuildingBlock: OJICUG_clean_linker_0, # of connection points: 2
#     Edge 35, Type (0, 0), BuildingBlock: OJICUG_clean_linker_0, # of connection points: 2
#     Edge 36, Type (0, 0), BuildingBlock: OJICUG_clean_linker_0, # of connection points: 2
#     Edge 37, Type (0, 0), BuildingBlock: OJICUG_clean_linker_0, # of connection points: 2
#     Edge 38, Type (0, 0), BuildingBlock: OJICUG_clean_linker_0, # of connection points: 2
#     Edge 39, Type (0, 0), BuildingBlock: OJICUG_clean_linker_0, # of connection points: 2
#     Edge 40, Type (0, 0), BuildingBlock: OJICUG_clean_linker_0, # of connection points: 2
#     Edge 41, Type (0, 0), BuildingBlock: OJICUG_clean_linker_0, # of connection points: 2
#     Edge 42, Type (0, 0), BuildingBlock: OJICUG_clean_linker_0, # of connection points: 2
#     Edge 43, Type (0, 0), BuildingBlock: OJICUG_clean_linker_0, # of connection points: 2
#     Edge 44, Type (0, 0), BuildingBlock: OJICUG_clean_linker_0, # of connection points: 2
#     Edge 45, Type (0, 0), BuildingBlock: OJICUG_clean_linker_0, # of connection points: 2
#     Edge 46, Type (0, 0), BuildingBlock: OJICUG_clean_linker_0, # of connection points: 2
#     Edge 47, Type (0, 0), BuildingBlock: OJICUG_clean_linker_0, # of connection points: 2
#     Edge 48, Type (0, 0), BuildingBlock: OJICUG_clean_linker_0, # of connection points: 2
#     Edge 49, Type (0, 0), BuildingBlock: OJICUG_clean_linker_0, # of connection points: 2
#     Edge 50, Type (0, 0), BuildingBlock: OJICUG_clean_linker_0, # of connection points: 2
#     Edge 51, Type (0, 0), BuildingBlock: OJICUG_clean_linker_0, # of connection points: 2
#     Edge 52, Type (0, 0), BuildingBlock: OJICUG_clean_linker_0, # of connection points: 2
#     Edge 53, Type (0, 0), BuildingBlock: OJICUG_clean_linker_0, # of connection points: 2
#     Edge 54, Type (0, 0), BuildingBlock: OJICUG_clean_linker_0, # of connection points: 2
#     Edge 55, Type (0, 0), BuildingBlock: OJICUG_clean_linker_0, # of connection points: 2
#     Edge 56, Type (0, 0), BuildingBlock: OJICUG_clean_linker_0, # of connection points: 2
#     Edge 57, Type (0, 0), BuildingBlock: OJICUG_clean_linker_0, # of connection points: 2
#     Edge 58, Type (0, 0), BuildingBlock: OJICUG_clean_linker_0, # of connection points: 2
#     Edge 59, Type (0, 0), BuildingBlock: OJICUG_clean_linker_0, # of connection points: 2
#     Edge 60, Type (0, 0), BuildingBlock: OJICUG_clean_linker_0, # of connection points: 2
#     Edge 61, Type (0, 0), BuildingBlock: OJICUG_clean_linker_0, # of connection points: 2
#     Edge 62, Type (0, 0), BuildingBlock: OJICUG_clean_linker_0, # of connection points: 2
#     Edge 63, Type (0, 0), BuildingBlock: OJICUG_clean_linker_0, # of connection points: 2
#     Edge 64, Type (0, 0), BuildingBlock: OJICUG_clean_linker_0, # of connection points: 2
#     Edge 65, Type (0, 0), BuildingBlock: OJICUG_clean_linker_0, # of connection points: 2
#     Edge 66, Type (0, 0), BuildingBlock: OJICUG_clean_linker_0, # of connection points: 2
#     Edge 67, Type (0, 0), BuildingBlock: OJICUG_clean_linker_0, # of connection points: 2
#     Edge 68, Type (0, 0), BuildingBlock: OJICUG_clean_linker_0, # of connection points: 2
#     Edge 69, Type (0, 0), BuildingBlock: OJICUG_clean_linker_0, # of connection points: 2
#     Edge 70, Type (0, 0), BuildingBlock: OJICUG_clean_linker_0, # of connection points: 2
#     Edge 71, Type (0, 0), BuildingBlock: OJICUG_clean_linker_0, # of connection points: 2
# Relax obj value: 0.272
# Max RMSD: 0.283
# Mean RMSD: 0.265
data_MOF--net-cbo--node1-NAHDIM_clean_sbu_0--edge1-OJICUG_clean_linker_0
_symmetry_space_group_name_H-M    P1
_symmetry_Int_Tables_number       1
_symmetry_cell_setting            triclinic
loop_
_symmetry_equiv_pos_as_xyz
'x, y, z'
_cell_length_a     38.05525
_cell_length_b     36.180548
_cell_length_c     37.00383
_cell_angle_alpha  90.000613
_cell_angle_beta   90.008234
_cell_angle_gamma 89.91141
loop_
_atom_site_label
_atom_site_type_symbol
_atom_site_fract_x
_atom_site_fract_y
_atom_site_fract_z
_atom_type_partial_charge
C0 C 0.9576 0.1254 0.27902 0.0
O1 O 0.96281 0.16097 0.27429 0.0
O2 O 0.03204 0.16812 0.2405 0.0
Zn3 Zn 0.0317 0.12893 0.27889 0.0
O4 O 0.04187 0.15166 0.32749 0.0
C5 C 0.10225 0.1102 0.27126 0.0
O6 O 0.10307 0.14347 0.28543 0.0
O7 O 0.98416 0.10408 0.28104 0.0
C8 C 0.04456 0.18627 0.33279 0.0
O9 O 0.03893 0.20916 0.30585 0.0
C10 C 0.02734 0.15833 0.20791 0.0
O11 O 0.01981 0.1236 0.20099 0.0
O12 O 0.07248 0.09504 0.26609 0.0
C13 C 0.53449 0.87384 0.7886 0.0
O14 O 0.52878 0.83991 0.77743 0.0
O15 O 0.45731 0.85336 0.73467 0.0
Zn16 Zn 0.45944 0.8763 0.78439 0.0
O17 O 0.44535 0.84156 0.8248 0.0
C18 C 0.3977 0.92308 0.80085 0.0
O19 O 0.39264 0.90119 0.82866 0.0
O20 O 0.5084 0.89525 0.79359 0.0
C21 C 0.41777 0.82176 0.82423 0.0
O22 O 0.39799 0.82182 0.79512 0.0
C23 C 0.45902 0.81983 0.72462 0.0
O24 O 0.46362 0.79371 0.74883 0.0
O25 O 0.42484 0.91867 0.78123 0.0
C26 C 0.45626 0.3539 0.71306 0.0
O27 O 0.45995 0.31855 0.72032 0.0
O28 O 0.53059 0.32132 0.76828 0.0
Zn29 Zn 0.53117 0.35377 0.72389 0.0
O30 O 0.54856 0.32739 0.67909 0.0
C31 C 0.59077 0.40601 0.71933 0.0
O32 O 0.59625 0.39272 0.68678 0.0
O33 O 0.48316 0.37466 0.7137 0.0
C34 C 0.57783 0.31051 0.67728 0.0
O35 O 0.5976 0.30833 0.70632 0.0
C36 C 0.5322 0.28633 0.77078 0.0
O37 O 0.53216 0.26619 0.74124 0.0
O38 O 0.5645 0.39481 0.73748 0.0
C39 C 0.02273 0.57944 0.22996 0.0
O40 O 0.00628 0.56538 0.25798 0.0
O41 O 0.9664 0.65647 0.27268 0.0
Zn42 Zn 0.96177 0.62738 0.22643 0.0
O43 O 0.94375 0.65772 0.18442 0.0
C44 C 0.89949 0.57867 0.22217 0.0
O45 O 0.89296 0.59453 0.19096 0.0
O46 O 0.00858 0.60587 0.21263 0.0
C47 C 0.91488 0.67546 0.18428 0.0
O48 O 0.89546 0.67588 0.21364 0.0
C49 C 0.96336 0.69103 0.278 0.0
O50 O 0.9587 0.71321 0.2503 0.0
O51 O 0.92734 0.58701 0.2393 0.0
C52 C 0.34569 0.03846 0.15049 0.0
O53 O 0.34212 0.0213 0.11941 0.0
O54 O 0.25864 0.07118 0.10824 0.0
Zn55 Zn 0.27142 0.03323 0.14584 0.0
O56 O 0.27615 0.9829 0.12308 0.0
C57 C 0.23093 0.06075 0.20469 0.0
O58 O 0.25768 0.08363 0.20579 0.0
O59 O 0.31822 0.04701 0.16822 0.0
C60 C 0.27543 0.95391 0.14243 0.0
O61 O 0.26961 0.95705 0.17729 0.0
C62 C 0.23409 0.06414 0.08603 0.0
O63 O 0.21975 0.03112 0.0864 0.0
O64 O 0.23155 0.03441 0.18199 0.0
C65 C 0.14758 0.9667 0.67518 0.0
O66 O 0.15513 0.98529 0.6457 0.0
O67 O 0.24516 0.93741 0.65484 0.0
Zn68 Zn 0.22153 0.97568 0.686 0.0
O69 O 0.22044 0.0265 0.66368 0.0
C70 C 0.28276 0.98931 0.72542 0.0
O71 O 0.28987 0.005 0.69425 0.0
O72 O 0.17208 0.95925 0.69742 0.0
C73 C 0.22513 0.03346 0.63038 0.0
O74 O 0.2321 0.00626 0.60799 0.0
C75 C 0.23514 0.91967 0.62705 0.0
O76 O 0.20453 0.92707 0.61232 0.0
O77 O 0.25206 0.97643 0.73045 0.0
C78 C 0.84706 0.46033 0.82329 0.0
O79 O 0.84738 0.48301 0.85102 0.0
O80 O 0.75649 0.43096 0.87102 0.0
Zn81 Zn 0.77156 0.4664 0.8317 0.0
O82 O 0.77539 0.51872 0.85008 0.0
C83 C 0.70262 0.46973 0.80279 0.0
O84 O 0.69638 0.48076 0.83601 0.0
O85 O 0.81774 0.44992 0.81037 0.0
C86 C 0.77637 0.52661 0.88354 0.0
O87 O 0.77424 0.49986 0.90744 0.0
C88 C 0.77478 0.40368 0.88188 0.0
O89 O 0.8066 0.39892 0.86893 0.0
O90 O 0.73417 0.46326 0.79343 0.0
C91 C 0.64824 0.53472 0.34478 0.0
O92 O 0.65271 0.51814 0.37604 0.0
O93 O 0.73419 0.57387 0.38135 0.0
Zn94 Zn 0.72291 0.53229 0.34686 0.0
O95 O 0.72123 0.48261 0.3717 0.0
C96 C 0.78932 0.51906 0.31047 0.0
O97 O 0.7965 0.50015 0.33987 0.0
O98 O 0.67511 0.54326 0.32619 0.0
C99 C 0.71955 0.45368 0.35228 0.0
O100 O 0.72119 0.45705 0.31696 0.0
C101 C 0.76094 0.57449 0.4019 0.0
O102 O 0.78174 0.54552 0.40308 0.0
O103 O 0.75911 0.53367 0.30702 0.0
C104 C 0.12066 0.27262 0.95458 0.0
O105 O 0.1537 0.28091 0.96094 0.0
O106 O 0.16403 0.21673 0.02972 0.0
Zn107 Zn 0.12453 0.25377 0.02882 0.0
O108 O 0.14145 0.30431 0.04344 0.0
C109 C 0.08212 0.24988 0.09442 0.0
O110 O 0.09694 0.28161 0.10236 0.0
O111 O 0.10248 0.25847 0.97978 0.0
C112 C 0.16689 0.31041 0.06486 0.0
O113 O 0.184 0.28235 0.07899 0.0
C114 C 0.15652 0.18355 0.02153 0.0
O115 O 0.12495 0.17629 0.00903 0.0
O116 O 0.08888 0.2346 0.06428 0.0
C117 C 0.59739 0.21643 0.02145 0.0
O118 O 0.57926 0.2 0.99587 0.0
O119 O 0.6711 0.28392 0.95388 0.0
Zn120 Zn 0.63865 0.24048 0.96056 0.0
O121 O 0.66277 0.19314 0.94585 0.0
C122 C 0.58551 0.22703 0.9042 0.0
O123 O 0.59555 0.19234 0.90627 0.0
O124 O 0.62351 0.23634 0.01267 0.0
C125 C 0.67626 0.18973 0.9146 0.0
O126 O 0.67527 0.21796 0.89227 0.0
C127 C 0.70446 0.28284 0.95274 0.0
O128 O 0.72074 0.25136 0.95862 0.0
O129 O 0.59826 0.25048 0.92621 0.0
C130 C 0.86745 0.77285 0.5407 0.0
O131 O 0.83515 0.76111 0.53571 0.0
O132 O 0.84075 0.71947 0.462 0.0
Zn133 Zn 0.86704 0.76802 0.46361 0.0
O134 O 0.83652 0.81109 0.44876 0.0
C135 C 0.92108 0.7337 0.42098 0.0
O136 O 0.91686 0.70718 0.44485 0.0
O137 O 0.88715 0.77746 0.51331 0.0
C138 C 0.82755 0.81369 0.41574 0.0
O139 O 0.83633 0.78702 0.39337 0.0
C140 C 0.8082 0.71567 0.45531 0.0
O141 O 0.78842 0.74521 0.45163 0.0
O142 O 0.90455 0.76389 0.42533 0.0
C143 C 0.39671 0.71792 0.47966 0.0
O144 O 0.41015 0.69714 0.50532 0.0
O145 O 0.32353 0.7857 0.54892 0.0
Zn146 Zn 0.35926 0.74488 0.54043 0.0
O147 O 0.33839 0.69541 0.5542 0.0
C148 C 0.41142 0.78674 0.58046 0.0
O149 O 0.39978 0.81423 0.56054 0.0
O150 O 0.37422 0.74241 0.48818 0.0
C151 C 0.34332 0.68268 0.58585 0.0
O152 O 0.36117 0.70239 0.60929 0.0
C153 C 0.31858 0.79436 0.58184 0.0
O154 O 0.33491 0.77547 0.60707 0.0
O155 O 0.40032 0.7543 0.57401 0.0
C156 C 0.00639 0.91199 0.69757 0.0
O157 O 0.98203 0.91724 0.67292 0.0
O158 O 0.95244 0.83878 0.7772 0.0
Zn159 Zn 0.95183 0.86883 0.7313 0.0
O160 O 0.93987 0.8393 0.68647 0.0
C161 C 0.88949 0.91712 0.71999 0.0
O162 O 0.8887 0.90491 0.68658 0.0
O163 O -0.0008 0.8926 0.72521 0.0
C164 C 0.91069 0.82271 0.68249 0.0
O165 O 0.88794 0.82296 0.7092 0.0
C166 C 0.94725 0.80451 0.78239 0.0
O167 O 0.94247 0.78255 0.75456 0.0
O168 O 0.91428 0.90706 0.74086 0.0
C169 C 0.4844 0.08619 0.19439 0.0
O170 O 0.5111 0.07998 0.17269 0.0
O171 O 0.53697 0.16657 0.26885 0.0
Zn172 Zn 0.53634 0.13167 0.22623 0.0
O173 O 0.54588 0.15706 0.17854 0.0
C174 C 0.60021 0.08573 0.21697 0.0
O175 O 0.60118 0.09874 0.18386 0.0
O176 O 0.48892 0.10713 0.22158 0.0
C177 C 0.57154 0.17811 0.17093 0.0
O178 O 0.59467 0.18612 0.1961 0.0
C179 C 0.53618 0.2017 0.26944 0.0
O180 O 0.53253 0.22004 0.23904 0.0
O181 O 0.57467 0.09444 0.23749 0.0
C182 C 0.50946 0.58521 0.30489 0.0
O183 O 0.48235 0.57617 0.32501 0.0
O184 O 0.4528 0.66413 0.23248 0.0
Zn185 Zn 0.4566 0.63008 0.27543 0.0
O186 O 0.44538 0.6541 0.32343 0.0
C187 C 0.39056 0.59012 0.27464 0.0
O188 O 0.38016 0.61709 0.29587 0.0
O189 O 0.50513 0.60859 0.27964 0.0
C190 C 0.42514 0.68121 0.33021 0.0
O191 O 0.4083 0.69752 0.30362 0.0
C192 C 0.45916 0.69837 0.22863 0.0
O193 O 0.47112 0.71758 0.25611 0.0
O194 O 0.42246 0.58903 0.26452 0.0
C195 C 0.97667 0.39755 0.76913 0.0
O196 O 0.97569 0.37038 0.74561 0.0
O197 O 0.04464 0.35255 0.72099 0.0
Zn198 Zn 0.05123 0.38315 0.76602 0.0
O199 O 0.07076 0.35244 0.80665 0.0
C200 C 0.11546 0.42657 0.77085 0.0
O201 O 0.11824 0.41163 0.80308 0.0
O202 O 0.0062 0.40808 0.78142 0.0
C203 C 0.0529 0.33218 0.82777 0.0
O204 O 0.01874 0.32973 0.82325 0.0
C205 C 0.05424 0.31901 0.71827 0.0
O206 O 0.06625 0.30181 0.747 0.0
O207 O 0.08811 0.42033 0.75207 0.0
C208 C 0.71937 0.04564 0.86363 0.0
O209 O 0.7244 0.04042 0.82887 0.0
O210 O 0.76576 0.96823 0.82647 0.0
Zn211 Zn 0.72606 0.96739 0.86259 0.0
O212 O 0.68006 0.95218 0.84003 0.0
C213 C 0.721 0.90567 0.91458 0.0
O214 O 0.68705 0.90659 0.90822 0.0
O215 O 0.71968 0.01784 0.88464 0.0
C216 C 0.67527 0.92071 0.8256 0.0
O217 O 0.70168 0.89735 0.82378 0.0
C218 C 0.76408 0.96587 0.79224 0.0
O219 O 0.73324 0.96432 0.77638 0.0
O220 O 0.74084 0.92957 0.89983 0.0
C221 C 0.77625 0.95178 0.35764 0.0
O222 O 0.77245 0.95549 0.32252 0.0
O223 O 0.72627 0.02958 0.31968 0.0
Zn224 Zn 0.76755 0.03012 0.35413 0.0
O225 O 0.81314 0.04449 0.3298 0.0
C226 C 0.77408 0.09311 0.40503 0.0
O227 O 0.80768 0.09343 0.39692 0.0
O228 O 0.77423 0.98034 0.37753 0.0
C229 C 0.81748 0.0757 0.3147 0.0
O230 O 0.79098 0.09899 0.31338 0.0
C231 C 0.72666 0.03274 0.28546 0.0
O232 O 0.75692 0.03408 0.26845 0.0
O233 O 0.75432 0.06842 0.39145 0.0
C234 C 0.19784 0.46096 0.10666 0.0
O235 O 0.17971 0.48833 0.09255 0.0
O236 O 0.25567 0.52639 0.19015 0.0
Zn237 Zn 0.22383 0.52105 0.14721 0.0
O238 O 0.17573 0.53954 0.16078 0.0
C239 C 0.23397 0.58496 0.10103 0.0
O240 O 0.20585 0.59707 0.1179 0.0
O241 O 0.22005 0.46806 0.13133 0.0
C242 C 0.15928 0.52447 0.18676 0.0
O243 O 0.17408 0.49685 0.20414 0.0
C244 C 0.28755 0.51624 0.18764 0.0
O245 O 0.29796 0.49932 0.15808 0.0
O246 O 0.24523 0.5526 0.1079 0.0
C247 C 0.29965 0.53554 0.62647 0.0
O248 O 0.30338 0.52479 0.66018 0.0
O249 O 0.23812 0.46605 0.65906 0.0
Zn250 Zn 0.27794 0.46211 0.62352 0.0
O251 O 0.32165 0.44242 0.64762 0.0
C252 C 0.27997 0.40132 0.57091 0.0
O253 O 0.31384 0.40027 0.57767 0.0
O254 O 0.28826 0.5125 0.60338 0.0
C255 C 0.32296 0.41065 0.66223 0.0
O256 O 0.29469 0.38983 0.66224 0.0
C257 C 0.24044 0.46597 0.69333 0.0
O258 O 0.27156 0.46447 0.70863 0.0
O259 O 0.26121 0.42629 0.58554 0.0
C260 C 0.85775 0.72458 0.04767 0.0
O261 O 0.82444 0.73391 0.04545 0.0
O262 O 0.82118 0.77254 0.96901 0.0
Zn263 Zn 0.85138 0.72665 0.97045 0.0
O264 O 0.82374 0.68054 0.95975 0.0
C265 C 0.90221 0.76258 0.92506 0.0
O266 O 0.89858 0.78885 0.9493 0.0
O267 O 0.87539 0.72073 0.01872 0.0
C268 C 0.81384 0.67452 0.92748 0.0
O269 O 0.81947 0.69997 0.90282 0.0
C270 C 0.7878 0.77363 0.96841 0.0
O271 O 0.76996 0.7427 0.9711 0.0
O272 O 0.88624 0.73217 0.92979 0.0
C273 C 0.36271 0.76603 0.95927 0.0
O274 O 0.32995 0.75475 0.96099 0.0
O275 O 0.31882 0.7253 0.03715 0.0
Zn276 Zn 0.35706 0.7638 0.03748 0.0
O277 O 0.33587 0.81201 0.05383 0.0
C278 C 0.40658 0.76721 0.09862 0.0
O279 O 0.40156 0.80311 0.09731 0.0
O280 O 0.37976 0.77076 0.98848 0.0
C281 C 0.31911 0.81318 0.08353 0.0
O282 O 0.31564 0.78269 0.10249 0.0
C283 C 0.32703 0.69124 0.03632 0.0
O284 O 0.36016 0.68207 0.0317 0.0
O285 O 0.39203 0.74665 0.07509 0.0
C286 C 0.10664 0.23751 0.46604 0.0
O287 O 0.11521 0.27237 0.47054 0.0
O288 O 0.17358 0.27067 0.52872 0.0
Zn289 Zn 0.14348 0.22527 0.53432 0.0
O290 O 0.17242 0.18065 0.5471 0.0
C291 C 0.0929 0.26408 0.57826 0.0
O292 O 0.09258 0.28693 0.55066 0.0
O293 O 0.11578 0.21386 0.48961 0.0
C294 C 0.18437 0.17756 0.57902 0.0
O295 O 0.17948 0.20481 0.60196 0.0
C296 C 0.20682 0.27062 0.52547 0.0
O297 O 0.22356 0.23893 0.52298 0.0
O298 O 0.11141 0.23491 0.57639 0.0
C299 C 0.63369 0.26868 0.53757 0.0
O300 O 0.66639 0.25731 0.53478 0.0
O301 O 0.67072 0.22204 0.46022 0.0
Zn302 Zn 0.63772 0.26576 0.45967 0.0
O303 O 0.66268 0.31211 0.44329 0.0
C304 C 0.58842 0.27276 0.39807 0.0
O305 O 0.59674 0.30798 0.39788 0.0
O306 O 0.61589 0.27389 0.5089 0.0
C307 C 0.67753 0.3132 0.41252 0.0
O308 O 0.67747 0.28336 0.39226 0.0
C309 C 0.70413 0.22254 0.45995 0.0
O310 O 0.72063 0.25434 0.46197 0.0
O311 O 0.60101 0.25181 0.42249 0.0
C312 C 0.06059 0.24248 0.15795 0.0
C313 C 0.06261 0.22909 0.12236 0.0
H314 H 0.04757 0.23067 0.213 0.0
C315 C 0.04887 0.19393 0.11456 0.0
H316 H 0.07073 0.26953 0.16483 0.0
C317 C 0.03555 0.17167 0.14216 0.0
C318 C 0.03576 0.18408 0.17813 0.0
H319 H 0.04975 0.1829 0.08736 0.0
H320 H 0.02657 0.14412 0.13545 0.0
C321 C 0.04733 0.22017 0.18558 0.0
C322 C 0.44762 0.839 0.66064 0.0
C323 C 0.45211 0.8106 0.68621 0.0
H324 H 0.43191 0.85373 0.60705 0.0
C325 C 0.44743 0.77378 0.67514 0.0
H326 H 0.45138 0.86768 0.66809 0.0
C327 C 0.43633 0.76576 0.63993 0.0
C328 C 0.4297 0.7944 0.61506 0.0
H329 H 0.45088 0.75123 0.69407 0.0
H330 H 0.43139 0.73721 0.63277 0.0
C331 C 0.43659 0.831 0.62549 0.0
C332 C 0.54237 0.29183 0.83742 0.0
C333 C 0.53975 0.2694 0.80648 0.0
H334 H 0.55842 0.29596 0.89265 0.0
C335 C 0.54778 0.23159 0.80953 0.0
H336 H 0.53605 0.321 0.83622 0.0
C337 C 0.5605 0.21713 0.84213 0.0
C338 C 0.56557 0.24025 0.87227 0.0
H339 H 0.54584 0.21348 0.78631 0.0
H340 H 0.56813 0.1883 0.84307 0.0
C341 C 0.55519 0.27745 0.86989 0.0
C342 C 0.94658 0.74063 0.32228 0.0
C343 C 0.959 0.70469 0.31551 0.0
H344 H 0.92514 0.77826 0.36115 0.0
C345 C 0.96358 0.68041 0.34483 0.0
H346 H 0.94292 0.76009 0.30035 0.0
C347 C 0.95344 0.69081 0.37966 0.0
C348 C 0.93846 0.72571 0.38598 0.0
H349 H 0.97348 0.65265 0.34068 0.0
H350 H 0.95572 0.67073 0.40125 0.0
C351 C 0.93639 0.75105 0.35718 0.0
C352 C 0.19885 0.09802 0.25094 0.0
C353 C 0.19866 0.06909 0.22565 0.0
H354 H 0.16875 0.13319 0.28541 0.0
C355 C 0.16674 0.05089 0.21837 0.0
H356 H 0.22296 0.11242 0.25746 0.0
C357 C 0.13537 0.06292 0.23449 0.0
C358 C 0.13541 0.09333 0.25814 0.0
H359 H 0.16572 0.02844 0.19905 0.0
H360 H 0.11097 0.04947 0.22721 0.0
C361 C 0.16766 0.10996 0.26696 0.0
C362 C 0.33407 0.94102 0.79921 0.0
C363 C 0.36877 0.94678 0.78741 0.0
H364 H 0.27935 0.95019 0.7889 0.0
C365 C 0.37483 0.97167 0.75897 0.0
H366 H 0.32851 0.92212 0.82117 0.0
C367 C 0.3467 0.98793 0.74066 0.0
C368 C 0.31188 0.97937 0.75018 0.0
H369 H 0.40128 0.97706 0.74953 0.0
H370 H 0.35233 0.00537 0.71759 0.0
C371 C 0.30585 0.95707 0.78066 0.0
C372 C 0.67955 0.44575 0.74373 0.0
C373 C 0.67315 0.45935 0.77873 0.0
H374 H 0.65833 0.41869 0.69714 0.0
C375 C 0.6385 0.45962 0.79186 0.0
H376 H 0.70591 0.44542 0.7327 0.0
C377 C 0.61129 0.44417 0.77156 0.0
C378 C 0.61808 0.42835 0.73757 0.0
H379 H 0.63258 0.47014 0.81858 0.0
H380 H 0.58519 0.44325 0.7832 0.0
C381 C 0.65224 0.43053 0.72328 0.0
C382 C 0.87981 0.53733 0.27244 0.0
C383 C 0.87182 0.55729 0.24089 0.0
H384 H 0.85999 0.50901 0.31888 0.0
C385 C 0.83653 0.56035 0.23004 0.0
H386 H 0.90677 0.53427 0.28137 0.0
C387 C 0.80966 0.54623 0.25178 0.0
C388 C 0.81757 0.52836 0.28454 0.0
H389 H 0.82949 0.57552 0.20586 0.0
H390 H 0.78263 0.55064 0.24364 0.0
C391 C 0.85297 0.52281 0.29392 0.0
C392 C 0.22964 0.1309 0.06815 0.0
C393 C 0.21808 0.0942 0.06435 0.0
H394 H 0.21948 0.18804 0.05725 0.0
C395 C 0.1888 0.08701 0.0423 0.0
H396 H 0.25226 0.13739 0.08474 0.0
C397 C 0.17004 0.11604 0.02651 0.0
C398 C 0.18012 0.15291 0.03241 0.0
H399 H 0.17938 0.05904 0.03851 0.0
H400 H 0.14667 0.10959 0.01105 0.0
C401 C 0.21086 0.15996 0.05234 0.0
C402 C 0.72326 0.37826 0.91576 0.0
C403 C 0.75847 0.37485 0.9048 0.0
H404 H 0.67873 0.35208 0.9398 0.0
C405 C 0.77688 0.34225 0.91333 0.0
H406 H 0.70836 0.40308 0.90987 0.0
C407 C 0.75983 0.3129 0.9306 0.0
C408 C 0.72404 0.31555 0.93961 0.0
H409 H 0.80409 0.33879 0.90544 0.0
H410 H 0.77435 0.28762 0.93549 0.0
C411 C 0.70624 0.34896 0.93294 0.0
C412 C 0.76024 0.67466 0.4319 0.0
C413 C 0.79413 0.67856 0.44652 0.0
H414 H 0.72309 0.63871 0.4065 0.0
C415 C 0.81557 0.64701 0.44968 0.0
H416 H 0.74299 0.69833 0.42918 0.0
C417 C 0.8041 0.61276 0.43678 0.0
C418 C 0.77101 0.60933 0.42025 0.0
H419 H 0.84175 0.64898 0.461 0.0
H420 H 0.82179 0.58934 0.43846 0.0
C421 C 0.74885 0.64044 0.41883 0.0
C422 C 0.28338 0.87412 0.63651 0.0
C423 C 0.25687 0.88842 0.61405 0.0
H424 H 0.32314 0.83323 0.64402 0.0
C425 C 0.25102 0.87187 0.58019 0.0
H426 H 0.28859 0.88607 0.66282 0.0
C427 C 0.27136 0.84151 0.56914 0.0
C428 C 0.29729 0.82687 0.59213 0.0
H429 H 0.2308 0.88234 0.56229 0.0
H430 H 0.2664 0.82913 0.54298 0.0
C431 C 0.30311 0.84359 0.62582 0.0
C432 C 0.91696 0.74543 0.86103 0.0
C433 C 0.91927 0.77062 0.88993 0.0
H434 H 0.92421 0.73623 0.80429 0.0
C435 C 0.93483 0.80522 0.88382 0.0
H436 H 0.90523 0.71845 0.86484 0.0
C437 C 0.94571 0.81537 0.84917 0.0
C438 C 0.94124 0.79116 0.81977 0.0
H439 H 0.9373 0.82517 0.90549 0.0
H440 H 0.95629 0.84285 0.84523 0.0
C441 C 0.92784 0.75561 0.82628 0.0
C442 C 0.54896 0.20105 0.3358 0.0
C443 C 0.54427 0.22126 0.30368 0.0
H444 H 0.56609 0.20149 0.3908 0.0
C445 C 0.55037 0.25958 0.30417 0.0
H446 H 0.5442 0.17155 0.33655 0.0
C447 C 0.56292 0.27685 0.3355 0.0
C448 C 0.56967 0.25612 0.36693 0.0
H449 H 0.54687 0.276 0.27996 0.0
H450 H 0.56882 0.30611 0.33454 0.0
C451 C 0.56151 0.21825 0.36701 0.0
C452 C 0.44893 0.75523 0.19083 0.0
C453 C 0.44987 0.71653 0.19399 0.0
H454 H 0.43467 0.80176 0.15805 0.0
C455 C 0.43961 0.69493 0.16422 0.0
H456 H 0.45675 0.77266 0.21322 0.0
C457 C 0.42712 0.71151 0.13268 0.0
C458 C 0.42446 0.75016 0.13009 0.0
H459 H 0.4403 0.66503 0.16554 0.0
H460 H 0.41845 0.69389 0.11076 0.0
C461 C 0.43629 0.7719 0.15919 0.0
C462 C 0.08228 0.25334 0.64422 0.0
C463 C 0.07713 0.27514 0.61319 0.0
H464 H 0.07873 0.24994 0.70182 0.0
C465 C 0.05997 0.30936 0.61669 0.0
H466 H 0.09517 0.22668 0.64246 0.0
C467 C 0.05046 0.32266 0.65077 0.0
C468 C 0.05801 0.30205 0.68207 0.0
H469 H 0.05532 0.32669 0.5933 0.0
H470 H 0.03877 0.34991 0.65267 0.0
C471 C 0.07284 0.26667 0.67831 0.0
C472 C 0.79567 0.9488 0.73492 0.0
C473 C 0.79681 0.95964 0.77139 0.0
H474 H 0.8243 0.92715 0.68973 0.0
C475 C 0.82954 0.96118 0.78894 0.0
H476 H 0.77091 0.94753 0.72055 0.0
C477 C 0.86004 0.94957 0.77134 0.0
C478 C 0.85859 0.93618 0.73573 0.0
H479 H 0.83148 0.96986 0.81689 0.0
H480 H 0.88453 0.94956 0.78627 0.0
C481 C 0.82631 0.93719 0.71722 0.0
C482 C 0.63062 0.0539 0.26836 0.0
C483 C 0.6312 0.06643 0.23241 0.0
H484 H 0.6601 0.03304 0.31311 0.0
C485 C 0.66273 0.06366 0.21274 0.0
H486 H 0.60675 0.05533 0.28424 0.0
C487 C 0.6935 0.05088 0.22939 0.0
C488 C 0.69335 0.04056 0.26603 0.0
H489 H 0.66409 0.07293 0.18494 0.0
H490 H 0.71768 0.05062 0.21396 0.0
C491 C 0.66129 0.0411 0.28495 0.0
C492 C 0.32834 0.57031 0.26433 0.0
C493 C 0.36436 0.5657 0.25722 0.0
H494 H 0.2757 0.55792 0.24816 0.0
C495 C 0.37475 0.54051 0.23031 0.0
H496 H 0.31943 0.58924 0.28508 0.0
C497 C 0.34965 0.52256 0.20908 0.0
C498 C 0.31365 0.52939 0.21436 0.0
H499 H 0.4023 0.53604 0.22434 0.0
H500 H 0.35856 0.50477 0.18739 0.0
C501 C 0.30324 0.55233 0.24312 0.0
C502 C 0.20983 0.45304 0.75202 0.0
C503 C 0.20809 0.4624 0.7152 0.0
H504 H 0.1817 0.4347 0.79879 0.0
C505 C 0.17498 0.465 0.69853 0.0
H506 H 0.23491 0.45107 0.76573 0.0
C507 C 0.14453 0.45577 0.71745 0.0
C508 C 0.14649 0.44362 0.75347 0.0
H509 H 0.17266 0.47264 0.67032 0.0
H510 H 0.11966 0.4564 0.70323 0.0
C511 C 0.1793 0.4437 0.77098 0.0
C512 C 0.78946 0.84112 0.95359 0.0
C513 C 0.76975 0.8089 0.95984 0.0
H514 H 0.7895 0.89698 0.9348 0.0
C515 C 0.73313 0.81016 0.95491 0.0
H516 H 0.81769 0.84126 0.95737 0.0
C517 C 0.71688 0.84233 0.94203 0.0
C518 C 0.73696 0.8738 0.93371 0.0
H519 H 0.71714 0.7859 0.95966 0.0
H520 H 0.68883 0.84193 0.93709 0.0
C521 C 0.77327 0.87314 0.94063 0.0
C522 C 0.24445 0.64739 0.07377 0.0
C523 C 0.25536 0.61062 0.07892 0.0
H524 H 0.25834 0.70167 0.05585 0.0
C525 C 0.28843 0.5997 0.06571 0.0
H526 H 0.21903 0.65668 0.08335 0.0
C527 C 0.311 0.62554 0.04993 0.0
C528 C 0.30099 0.66284 0.04696 0.0
H529 H 0.29759 0.57154 0.06901 0.0
H530 H 0.3369 0.61654 0.04152 0.0
C531 C 0.267 0.67322 0.05794 0.0
C532 C 0.22604 0.37077 0.5465 0.0
C533 C 0.26249 0.36993 0.55258 0.0
H534 H 0.17994 0.34022 0.53274 0.0
C535 C 0.28113 0.33727 0.5449 0.0
H536 H 0.21091 0.39558 0.55179 0.0
C537 C 0.26328 0.30536 0.534 0.0
C538 C 0.22649 0.30554 0.53052 0.0
H539 H 0.30925 0.33573 0.54914 0.0
H540 H 0.27816 0.28013 0.53005 0.0
C541 C 0.20825 0.33896 0.53557 0.0
C542 C 0.70526 0.15458 0.44765 0.0
C543 C 0.72359 0.18804 0.45173 0.0
H544 H 0.7069 0.09834 0.43013 0.0
C545 C 0.75986 0.18866 0.4445 0.0
H546 H 0.67738 0.15296 0.45331 0.0
C547 C 0.7769 0.15711 0.43122 0.0
C548 C 0.75795 0.12441 0.42485 0.0
H549 H 0.7748 0.21393 0.44753 0.0
H550 H 0.8045 0.15894 0.42432 0.0
C551 C 0.72221 0.12319 0.43433 0.0
C552 C 0.07971 0.1877 0.42835 0.0
C553 C 0.08826 0.22519 0.43293 0.0
H554 H 0.05901 0.14611 0.39338 0.0
C555 C 0.08023 0.25026 0.40511 0.0
H556 H 0.08533 0.16765 0.44932 0.0
C557 C 0.065 0.23785 0.37291 0.0
C558 C 0.05755 0.20014 0.36793 0.0
H559 H 0.08635 0.27935 0.40786 0.0
H560 H 0.05987 0.2577 0.35163 0.0
C561 C 0.06455 0.17532 0.39624 0.0
C562 C 0.35893 0.77314 0.89189 0.0
C563 C 0.37839 0.77656 0.92403 0.0
H564 H 0.35618 0.78436 0.83514 0.0
C565 C 0.41218 0.79215 0.92239 0.0
H566 H 0.3329 0.76109 0.89211 0.0
C567 C 0.42554 0.8055 0.88969 0.0
C568 C 0.40545 0.80353 0.85784 0.0
H569 H 0.42797 0.79505 0.94658 0.0
H570 H 0.45123 0.81834 0.88964 0.0
C571 C 0.37232 0.78644 0.85916 0.0
C572 C 0.63848 0.27198 0.60512 0.0
C573 C 0.61846 0.27707 0.57355 0.0
H574 H 0.64133 0.27825 0.66258 0.0
C575 C 0.58421 0.29133 0.57667 0.0
H576 H 0.66491 0.26092 0.60373 0.0
C577 C 0.57068 0.30125 0.61046 0.0
C578 C 0.59106 0.29711 0.64192 0.0
H579 H 0.56802 0.29548 0.55293 0.0
H580 H 0.54445 0.31283 0.61178 0.0
C581 C 0.62493 0.28187 0.63891 0.0
C582 C 0.86745 0.70645 0.14815 0.0
C583 C 0.90152 0.69155 0.15008 0.0
H584 H 0.82694 0.72868 0.11436 0.0
C585 C 0.92195 0.69006 0.11844 0.0
H586 H 0.85103 0.7081 0.172 0.0
C587 C 0.90815 0.70189 0.08538 0.0
C588 C 0.87357 0.71542 0.08318 0.0
H589 H 0.94837 0.6789 0.11897 0.0
H590 H 0.92431 0.6995 0.0614 0.0
C591 C 0.85361 0.71822 0.11505 0.0
C592 C 0.41105 0.03836 0.1436 0.0
C593 C 0.38119 0.04884 0.16349 0.0
H594 H 0.46683 0.04159 0.1379 0.0
C595 C 0.3857 0.07007 0.19498 0.0
H596 H 0.40861 0.02183 0.11933 0.0
C597 C 0.41932 0.08144 0.20572 0.0
C598 C 0.44906 0.07177 0.18517 0.0
H599 H 0.36324 0.07851 0.21097 0.0
H600 H 0.42189 0.09843 0.22966 0.0
C601 C 0.44454 0.04966 0.15431 0.0
C602 C 0.05047 0.94803 0.66172 0.0
C603 C 0.04221 0.92714 0.69256 0.0
H604 H 0.09009 0.97693 0.6321 0.0
C605 C 0.06873 0.92012 0.71816 0.0
H606 H 0.03067 0.95399 0.6415 0.0
C607 C 0.10287 0.93326 0.71275 0.0
C608 C 0.11122 0.95373 0.68165 0.0
H609 H 0.06325 0.90414 0.74225 0.0
H610 H 0.12275 0.92708 0.73282 0.0
C611 C 0.08458 0.96119 0.65633 0.0
C612 C 0.91117 0.40401 0.76745 0.0
C613 C 0.94366 0.41475 0.78209 0.0
H614 H 0.85527 0.41005 0.7688 0.0
C615 C 0.9442 0.44144 0.80969 0.0
H616 H 0.90982 0.3836 0.74608 0.0
C617 C 0.91286 0.45659 0.82278 0.0
C618 C 0.88034 0.44546 0.80848 0.0
H619 H 0.9688 0.45033 0.82155 0.0
H620 H 0.91416 0.47678 0.84435 0.0
C621 C 0.87987 0.41922 0.78046 0.0
C622 C 0.57416 0.58023 0.29251 0.0
C623 C 0.54475 0.57029 0.31331 0.0
H624 H 0.62999 0.57661 0.28597 0.0
C625 C 0.54951 0.54699 0.3433 0.0
H626 H 0.57136 0.59805 0.26917 0.0
C627 C 0.58304 0.53481 0.35297 0.0
C628 C 0.61259 0.54553 0.3328 0.0
H629 H 0.52741 0.53868 0.35985 0.0
H630 H 0.58581 0.51744 0.37665 0.0
C631 C 0.60775 0.56791 0.30212 0.0
C632 C 0.20213 0.35632 0.10058 0.0
C633 C 0.17599 0.34888 0.07474 0.0
H634 H 0.22962 0.39758 0.13096 0.0
C635 C 0.15795 0.37865 0.05881 0.0
H636 H 0.21653 0.33401 0.11333 0.0
C637 C 0.16547 0.41498 0.06884 0.0
C638 C 0.19118 0.42244 0.09508 0.0
H639 H 0.13774 0.37395 0.03872 0.0
H640 H 0.1508 0.43718 0.05624 0.0
C641 C 0.20963 0.39274 0.11068 0.0
C642 C 0.7112 0.11363 0.85416 0.0
C643 C 0.71095 0.083 0.87752 0.0
H644 H 0.70071 0.17134 0.84757 0.0
C645 C 0.7011 0.08821 0.91378 0.0
H646 H 0.71879 0.11062 0.8261 0.0
C647 C 0.69063 0.12308 0.92608 0.0
C648 C 0.68993 0.15349 0.90242 0.0
H649 H 0.70069 0.06521 0.9325 0.0
H650 H 0.68248 0.12601 0.95398 0.0
C651 C 0.70086 0.1485 0.86648 0.0
C652 C 0.79284 0.91185 0.41048 0.0
C653 C 0.78591 0.91548 0.37331 0.0
H654 H 0.81118 0.87679 0.45316 0.0
C655 C 0.79021 0.88448 0.35085 0.0
H656 H 0.78965 0.93515 0.42857 0.0
C657 C 0.80253 0.85105 0.36493 0.0
C658 C 0.81083 0.84783 0.40182 0.0
H659 H 0.78493 0.88623 0.32214 0.0
H660 H 0.80641 0.82803 0.34665 0.0
C661 C 0.80515 0.87837 0.42459 0.0
C662 C 0.30522 0.58598 0.58012 0.0
C663 C 0.30951 0.57354 0.61585 0.0
H664 H 0.31237 0.63043 0.54252 0.0
C665 C 0.32392 0.59765 0.64162 0.0
H666 H 0.2941 0.56806 0.55966 0.0
C667 C 0.33439 0.63317 0.63184 0.0
C668 C 0.33059 0.64553 0.59606 0.0
H669 H 0.32752 0.58902 0.6694 0.0
H670 H 0.34572 0.65084 0.65238 0.0
C671 C 0.31561 0.6217 0.57032 0.0
C672 C 0.9134 0.79785 0.58287 0.0
C673 C 0.87972 0.78291 0.57745 0.0
H674 H 0.9497 0.82192 0.62026 0.0
C675 C 0.85722 0.77907 0.60735 0.0
H676 H 0.93143 0.8011 0.56046 0.0
C677 C 0.86769 0.79097 0.64165 0.0
C678 C 0.90093 0.80699 0.64687 0.0
H679 H 0.83115 0.76753 0.6042 0.0
H680 H 0.84938 0.78832 0.6639 0.0
C681 C 0.92388 0.80976 0.6172 0.0
C682 C 0.61162 0.22232 0.08753 0.0
C683 C 0.58931 0.2093 0.06002 0.0
H684 H 0.62355 0.22276 0.14414 0.0
C685 C 0.56007 0.18777 0.06961 0.0
H686 H 0.63437 0.23902 0.08109 0.0
C687 C 0.55383 0.17856 0.10571 0.0
C688 C 0.57676 0.19054 0.13312 0.0
H689 H 0.54227 0.17741 0.04915 0.0
H690 H 0.5314 0.16132 0.11198 0.0
C691 C 0.60545 0.21297 0.12369 0.0
C692 C 0.43701 0.67427 0.3964 0.0
C693 C 0.41927 0.69256 0.36825 0.0
H694 H 0.44401 0.66807 0.45338 0.0
C695 C 0.39526 0.72075 0.377 0.0
H696 H 0.45581 0.65253 0.39069 0.0
C697 C 0.3885 0.72974 0.41318 0.0
C698 C 0.4056 0.71069 0.4413 0.0
H699 H 0.38122 0.73546 0.35598 0.0
H700 H 0.36937 0.7511 0.41908 0.0
C701 C 0.43026 0.68321 0.43244 0.0
C702 C 0.1235 0.30216 0.89359 0.0
C703 C 0.10379 0.28404 0.92031 0.0
H704 H 0.12296 0.33138 0.84343 0.0
C705 C 0.06744 0.27947 0.91506 0.0
H706 H 0.15156 0.30601 0.89668 0.0
C707 C 0.05095 0.29412 0.88445 0.0
C708 C 0.07049 0.31362 0.8585 0.0
H709 H 0.05151 0.26554 0.93511 0.0
H710 H 0.02278 0.29103 0.88165 0.0
C711 C 0.10705 0.31679 0.86305 0.0
C712 C 0.61101 0.93384 0.81782 0.0
C713 C 0.6396 0.90947 0.814 0.0
H714 H 0.55547 0.94178 0.81282 0.0
C715 C 0.63347 0.87376 0.8005 0.0
H716 H 0.61479 0.96158 0.8281 0.0
C717 C 0.59941 0.86239 0.79177 0.0
C718 C 0.57072 0.88649 0.79635 0.0
H719 H 0.65489 0.85431 0.79719 0.0
H720 H 0.59555 0.83452 0.78188 0.0
C721 C 0.57695 0.92247 0.8091 0.0
C722 C 0.88166 0.06277 0.30474 0.0
C723 C 0.85288 0.08712 0.30228 0.0
H724 H 0.93732 0.05559 0.29909 0.0
C725 C 0.85863 0.12326 0.28976 0.0
H726 H 0.87813 0.03468 0.31417 0.0
C727 C 0.89252 0.13523 0.28123 0.0
C728 C 0.92148 0.11133 0.28488 0.0
H729 H 0.83708 0.1427 0.28742 0.0
H730 H 0.89606 0.16355 0.27248 0.0
C731 C 0.91561 0.07473 0.29606 0.0
C732 C 0.10823 0.56748 0.17877 0.0
C733 C 0.12416 0.53817 0.19759 0.0
H734 H 0.06382 0.60342 0.17416 0.0
C735 C 0.10632 0.52231 0.22701 0.0
H736 H 0.12124 0.58031 0.15597 0.0
C737 C 0.07334 0.53561 0.23749 0.0
C738 C 0.05749 0.56502 0.21875 0.0
H739 H 0.11786 0.49968 0.24208 0.0
H740 H 0.06033 0.52286 0.26034 0.0
C741 C 0.07527 0.58073 0.18922 0.0
C742 C 0.38626 0.41958 0.6785 0.0
C743 C 0.3565 0.39664 0.67719 0.0
H744 H 0.44094 0.42421 0.69104 0.0
C745 C 0.35947 0.35993 0.68925 0.0
H746 H 0.38485 0.44805 0.66956 0.0
C747 C 0.39173 0.3462 0.7015 0.0
C748 C 0.42165 0.36894 0.7021 0.0
H749 H 0.33705 0.34155 0.68864 0.0
H750 H 0.39327 0.31762 0.71006 0.0
C751 C 0.41844 0.40591 0.69088 0.0
C752 C 0.79665 0.60943 0.94267 0.0
C753 C 0.80043 0.63768 0.91687 0.0
H754 H 0.78595 0.55223 0.95242 0.0
C755 C 0.79376 0.62962 0.88036 0.0
H756 H 0.80149 0.61474 0.97104 0.0
C757 C 0.78498 0.59377 0.86967 0.0
C758 C 0.78257 0.56518 0.89527 0.0
H759 H 0.79632 0.65075 0.85979 0.0
H760 H 0.7809 0.58832 0.84119 0.0
C761 C 0.78778 0.57357 0.93198 0.0
C762 C 0.30744 0.88102 0.07662 0.0
C763 C 0.30575 0.84877 0.09772 0.0
H764 H 0.29887 0.93942 0.07402 0.0
C765 C 0.29227 0.85111 0.13301 0.0
H766 H 0.31756 0.88014 0.04927 0.0
C767 C 0.28169 0.88514 0.14727 0.0
C768 C 0.28413 0.91751 0.12646 0.0
H769 H 0.29056 0.82678 0.14998 0.0
H770 H 0.27208 0.8861 0.17481 0.0
C771 C 0.29663 0.915 0.09078 0.0
C772 C 0.21488 0.07788 0.57949 0.0
C773 C 0.21898 0.07131 0.61668 0.0
H774 H 0.20076 0.11675 0.53832 0.0
C775 C 0.21483 0.10087 0.64095 0.0
H776 H 0.21801 0.0557 0.56009 0.0
C777 C 0.2052 0.13587 0.62848 0.0
C778 C 0.19922 0.14199 0.59149 0.0
H779 H 0.21812 0.09679 0.66975 0.0
H780 H 0.20116 0.15774 0.64804 0.0
C781 C 0.20494 0.11285 0.56703 0.0
C782 C 0.70235 0.35108 0.362 0.0
C783 C 0.69151 0.34848 0.39821 0.0
H784 H 0.7198 0.38627 0.31916 0.0
C785 C 0.69239 0.38036 0.41993 0.0
H786 H 0.70208 0.32707 0.34453 0.0
C787 C 0.70276 0.41434 0.4054 0.0
C788 C 0.71223 0.41719 0.36878 0.0
H789 H 0.68435 0.37926 0.44799 0.0
H790 H 0.7023 0.43856 0.42261 0.0
C791 C 0.71248 0.38507 0.34742 0.0
loop_
_geom_bond_atom_site_label_1
_geom_bond_atom_site_label_2
_geom_bond_distance
_geom_bond_site_symmetry_2
_ccdc_geom_bond_type
C0 O1 1.160 . S
C0 O7 1.185 . S
O1 C0 1.160 . S
O2 Zn3 1.899 . S
O2 C10 1.284 . S
Zn3 O2 1.899 . S
Zn3 O4 2.032 . S
Zn3 O7 2.086 . S
Zn3 O12 1.977 . S
O4 Zn3 2.032 . S
O4 C8 1.278 . S
C5 O6 1.203 . S
C5 O12 1.267 . S
O6 C5 1.203 . S
O7 C0 1.185 . S
O7 Zn3 2.086 . S
C8 O4 1.278 . S
C8 O9 1.211 . S
O9 C8 1.211 . S
C10 O2 1.284 . S
C10 O11 1.273 . S
O11 C10 1.273 . S
O12 Zn3 1.977 . S
O12 C5 1.267 . S
C13 O14 1.160 . S
C13 O20 1.185 . S
O14 C13 1.160 . S
O15 Zn16 1.899 . S
O15 C23 1.284 . S
Zn16 O15 1.899 . S
Zn16 O17 2.032 . S
Zn16 O20 2.086 . S
Zn16 O25 1.977 . S
O17 Zn16 2.032 . S
O17 C21 1.278 . S
C18 O19 1.203 . S
C18 O25 1.267 . S
O19 C18 1.203 . S
O20 C13 1.185 . S
O20 Zn16 2.086 . S
C21 O17 1.278 . S
C21 O22 1.211 . S
O22 C21 1.211 . S
C23 O15 1.284 . S
C23 O24 1.273 . S
O24 C23 1.273 . S
O25 Zn16 1.977 . S
O25 C18 1.267 . S
C26 O27 1.160 . S
C26 O33 1.185 . S
O27 C26 1.160 . S
O28 Zn29 1.899 . S
O28 C36 1.284 . S
Zn29 O28 1.899 . S
Zn29 O30 2.032 . S
Zn29 O33 2.086 . S
Zn29 O38 1.977 . S
O30 Zn29 2.032 . S
O30 C34 1.278 . S
C31 O32 1.203 . S
C31 O38 1.267 . S
O32 C31 1.203 . S
O33 C26 1.185 . S
O33 Zn29 2.086 . S
C34 O30 1.278 . S
C34 O35 1.211 . S
O35 C34 1.211 . S
C36 O28 1.284 . S
C36 O37 1.273 . S
O37 C36 1.273 . S
O38 Zn29 1.977 . S
O38 C31 1.267 . S
C39 O40 1.160 . S
C39 O46 1.185 . S
O40 C39 1.160 . S
O41 Zn42 1.899 . S
O41 C49 1.284 . S
Zn42 O41 1.899 . S
Zn42 O43 2.032 . S
Zn42 O46 2.086 . S
Zn42 O51 1.977 . S
O43 Zn42 2.032 . S
O43 C47 1.278 . S
C44 O45 1.203 . S
C44 O51 1.267 . S
O45 C44 1.203 . S
O46 C39 1.185 . S
O46 Zn42 2.086 . S
C47 O43 1.278 . S
C47 O48 1.211 . S
O48 C47 1.211 . S
C49 O41 1.284 . S
C49 O50 1.273 . S
O50 C49 1.273 . S
O51 Zn42 1.977 . S
O51 C44 1.267 . S
C52 O53 1.160 . S
C52 O59 1.185 . S
O53 C52 1.160 . S
O54 Zn55 1.899 . S
O54 C62 1.284 . S
Zn55 O54 1.899 . S
Zn55 O56 2.032 . S
Zn55 O59 2.086 . S
Zn55 O64 1.977 . S
O56 Zn55 2.032 . S
O56 C60 1.278 . S
C57 O58 1.203 . S
C57 O64 1.267 . S
O58 C57 1.203 . S
O59 C52 1.185 . S
O59 Zn55 2.086 . S
C60 O56 1.278 . S
C60 O61 1.211 . S
O61 C60 1.211 . S
C62 O54 1.284 . S
C62 O63 1.273 . S
O63 C62 1.273 . S
O64 Zn55 1.977 . S
O64 C57 1.267 . S
C65 O66 1.160 . S
C65 O72 1.185 . S
O66 C65 1.160 . S
O67 Zn68 1.899 . S
O67 C75 1.284 . S
Zn68 O67 1.899 . S
Zn68 O69 2.032 . S
Zn68 O72 2.086 . S
Zn68 O77 1.977 . S
O69 Zn68 2.032 . S
O69 C73 1.278 . S
C70 O71 1.203 . S
C70 O77 1.267 . S
O71 C70 1.203 . S
O72 C65 1.185 . S
O72 Zn68 2.086 . S
C73 O69 1.278 . S
C73 O74 1.211 . S
O74 C73 1.211 . S
C75 O67 1.284 . S
C75 O76 1.273 . S
O76 C75 1.273 . S
O77 Zn68 1.977 . S
O77 C70 1.267 . S
C78 O79 1.160 . S
C78 O85 1.185 . S
O79 C78 1.160 . S
O80 Zn81 1.899 . S
O80 C88 1.284 . S
Zn81 O80 1.899 . S
Zn81 O82 2.032 . S
Zn81 O85 2.086 . S
Zn81 O90 1.977 . S
O82 Zn81 2.032 . S
O82 C86 1.278 . S
C83 O84 1.203 . S
C83 O90 1.267 . S
O84 C83 1.203 . S
O85 C78 1.185 . S
O85 Zn81 2.086 . S
C86 O82 1.278 . S
C86 O87 1.211 . S
O87 C86 1.211 . S
C88 O80 1.284 . S
C88 O89 1.273 . S
O89 C88 1.273 . S
O90 Zn81 1.977 . S
O90 C83 1.267 . S
C91 O92 1.160 . S
C91 O98 1.185 . S
O92 C91 1.160 . S
O93 Zn94 1.899 . S
O93 C101 1.284 . S
Zn94 O93 1.899 . S
Zn94 O95 2.032 . S
Zn94 O98 2.086 . S
Zn94 O103 1.977 . S
O95 Zn94 2.032 . S
O95 C99 1.278 . S
C96 O97 1.203 . S
C96 O103 1.267 . S
O97 C96 1.203 . S
O98 C91 1.185 . S
O98 Zn94 2.086 . S
C99 O95 1.278 . S
C99 O100 1.211 . S
O100 C99 1.211 . S
C101 O93 1.284 . S
C101 O102 1.273 . S
O102 C101 1.273 . S
O103 Zn94 1.977 . S
O103 C96 1.267 . S
C104 O105 1.160 . S
C104 O111 1.185 . S
O105 C104 1.160 . S
O106 Zn107 1.899 . S
O106 C114 1.284 . S
Zn107 O106 1.899 . S
Zn107 O108 2.032 . S
Zn107 O111 2.086 . S
Zn107 O116 1.977 . S
O108 Zn107 2.032 . S
O108 C112 1.278 . S
C109 O110 1.203 . S
C109 O116 1.267 . S
O110 C109 1.203 . S
O111 C104 1.185 . S
O111 Zn107 2.086 . S
C112 O108 1.278 . S
C112 O113 1.211 . S
O113 C112 1.211 . S
C114 O106 1.284 . S
C114 O115 1.273 . S
O115 C114 1.273 . S
O116 Zn107 1.977 . S
O116 C109 1.267 . S
C117 O118 1.160 . S
C117 O124 1.185 . S
O118 C117 1.160 . S
O119 Zn120 1.899 . S
O119 C127 1.284 . S
Zn120 O119 1.899 . S
Zn120 O121 2.032 . S
Zn120 O124 2.086 . S
Zn120 O129 1.977 . S
O121 Zn120 2.032 . S
O121 C125 1.278 . S
C122 O123 1.203 . S
C122 O129 1.267 . S
O123 C122 1.203 . S
O124 C117 1.185 . S
O124 Zn120 2.086 . S
C125 O121 1.278 . S
C125 O126 1.211 . S
O126 C125 1.211 . S
C127 O119 1.284 . S
C127 O128 1.273 . S
O128 C127 1.273 . S
O129 Zn120 1.977 . S
O129 C122 1.267 . S
C130 O131 1.160 . S
C130 O137 1.185 . S
O131 C130 1.160 . S
O132 Zn133 1.899 . S
O132 C140 1.284 . S
Zn133 O132 1.899 . S
Zn133 O134 2.032 . S
Zn133 O137 2.086 . S
Zn133 O142 1.977 . S
O134 Zn133 2.032 . S
O134 C138 1.278 . S
C135 O136 1.203 . S
C135 O142 1.267 . S
O136 C135 1.203 . S
O137 C130 1.185 . S
O137 Zn133 2.086 . S
C138 O134 1.278 . S
C138 O139 1.211 . S
O139 C138 1.211 . S
C140 O132 1.284 . S
C140 O141 1.273 . S
O141 C140 1.273 . S
O142 Zn133 1.977 . S
O142 C135 1.267 . S
C143 O144 1.160 . S
C143 O150 1.185 . S
O144 C143 1.160 . S
O145 Zn146 1.899 . S
O145 C153 1.284 . S
Zn146 O145 1.899 . S
Zn146 O147 2.032 . S
Zn146 O150 2.086 . S
Zn146 O155 1.977 . S
O147 Zn146 2.032 . S
O147 C151 1.278 . S
C148 O149 1.203 . S
C148 O155 1.267 . S
O149 C148 1.203 . S
O150 C143 1.185 . S
O150 Zn146 2.086 . S
C151 O147 1.278 . S
C151 O152 1.211 . S
O152 C151 1.211 . S
C153 O145 1.284 . S
C153 O154 1.273 . S
O154 C153 1.273 . S
O155 Zn146 1.977 . S
O155 C148 1.267 . S
C156 O157 1.160 . S
C156 O163 1.185 . S
O157 C156 1.160 . S
O158 Zn159 1.899 . S
O158 C166 1.284 . S
Zn159 O158 1.899 . S
Zn159 O160 2.032 . S
Zn159 O163 2.086 . S
Zn159 O168 1.977 . S
O160 Zn159 2.032 . S
O160 C164 1.278 . S
C161 O162 1.203 . S
C161 O168 1.267 . S
O162 C161 1.203 . S
O163 C156 1.185 . S
O163 Zn159 2.086 . S
C164 O160 1.278 . S
C164 O165 1.211 . S
O165 C164 1.211 . S
C166 O158 1.284 . S
C166 O167 1.273 . S
O167 C166 1.273 . S
O168 Zn159 1.977 . S
O168 C161 1.267 . S
C169 O170 1.160 . S
C169 O176 1.185 . S
O170 C169 1.160 . S
O171 Zn172 1.899 . S
O171 C179 1.284 . S
Zn172 O171 1.899 . S
Zn172 O173 2.032 . S
Zn172 O176 2.086 . S
Zn172 O181 1.977 . S
O173 Zn172 2.032 . S
O173 C177 1.278 . S
C174 O175 1.203 . S
C174 O181 1.267 . S
O175 C174 1.203 . S
O176 C169 1.185 . S
O176 Zn172 2.086 . S
C177 O173 1.278 . S
C177 O178 1.211 . S
O178 C177 1.211 . S
C179 O171 1.284 . S
C179 O180 1.273 . S
O180 C179 1.273 . S
O181 Zn172 1.977 . S
O181 C174 1.267 . S
C182 O183 1.160 . S
C182 O189 1.185 . S
O183 C182 1.160 . S
O184 Zn185 1.899 . S
O184 C192 1.284 . S
Zn185 O184 1.899 . S
Zn185 O186 2.032 . S
Zn185 O189 2.086 . S
Zn185 O194 1.977 . S
O186 Zn185 2.032 . S
O186 C190 1.278 . S
C187 O188 1.203 . S
C187 O194 1.267 . S
O188 C187 1.203 . S
O189 C182 1.185 . S
O189 Zn185 2.086 . S
C190 O186 1.278 . S
C190 O191 1.211 . S
O191 C190 1.211 . S
C192 O184 1.284 . S
C192 O193 1.273 . S
O193 C192 1.273 . S
O194 Zn185 1.977 . S
O194 C187 1.267 . S
C195 O196 1.160 . S
C195 O202 1.185 . S
O196 C195 1.160 . S
O197 Zn198 1.899 . S
O197 C205 1.284 . S
Zn198 O197 1.899 . S
Zn198 O199 2.032 . S
Zn198 O202 2.086 . S
Zn198 O207 1.977 . S
O199 Zn198 2.032 . S
O199 C203 1.278 . S
C200 O201 1.203 . S
C200 O207 1.267 . S
O201 C200 1.203 . S
O202 C195 1.185 . S
O202 Zn198 2.086 . S
C203 O199 1.278 . S
C203 O204 1.211 . S
O204 C203 1.211 . S
C205 O197 1.284 . S
C205 O206 1.273 . S
O206 C205 1.273 . S
O207 Zn198 1.977 . S
O207 C200 1.267 . S
C208 O209 1.160 . S
C208 O215 1.185 . S
O209 C208 1.160 . S
O210 Zn211 1.899 . S
O210 C218 1.284 . S
Zn211 O210 1.899 . S
Zn211 O212 2.032 . S
Zn211 O215 2.086 . S
Zn211 O220 1.977 . S
O212 Zn211 2.032 . S
O212 C216 1.278 . S
C213 O214 1.203 . S
C213 O220 1.267 . S
O214 C213 1.203 . S
O215 C208 1.185 . S
O215 Zn211 2.086 . S
C216 O212 1.278 . S
C216 O217 1.211 . S
O217 C216 1.211 . S
C218 O210 1.284 . S
C218 O219 1.273 . S
O219 C218 1.273 . S
O220 Zn211 1.977 . S
O220 C213 1.267 . S
C221 O222 1.160 . S
C221 O228 1.185 . S
O222 C221 1.160 . S
O223 Zn224 1.899 . S
O223 C231 1.284 . S
Zn224 O223 1.899 . S
Zn224 O225 2.032 . S
Zn224 O228 2.086 . S
Zn224 O233 1.977 . S
O225 Zn224 2.032 . S
O225 C229 1.278 . S
C226 O227 1.203 . S
C226 O233 1.267 . S
O227 C226 1.203 . S
O228 C221 1.185 . S
O228 Zn224 2.086 . S
C229 O225 1.278 . S
C229 O230 1.211 . S
O230 C229 1.211 . S
C231 O223 1.284 . S
C231 O232 1.273 . S
O232 C231 1.273 . S
O233 Zn224 1.977 . S
O233 C226 1.267 . S
C234 O235 1.160 . S
C234 O241 1.185 . S
O235 C234 1.160 . S
O236 Zn237 1.899 . S
O236 C244 1.284 . S
Zn237 O236 1.899 . S
Zn237 O238 2.032 . S
Zn237 O241 2.086 . S
Zn237 O246 1.977 . S
O238 Zn237 2.032 . S
O238 C242 1.278 . S
C239 O240 1.203 . S
C239 O246 1.267 . S
O240 C239 1.203 . S
O241 C234 1.185 . S
O241 Zn237 2.086 . S
C242 O238 1.278 . S
C242 O243 1.211 . S
O243 C242 1.211 . S
C244 O236 1.284 . S
C244 O245 1.273 . S
O245 C244 1.273 . S
O246 Zn237 1.977 . S
O246 C239 1.267 . S
C247 O248 1.160 . S
C247 O254 1.185 . S
O248 C247 1.160 . S
O249 Zn250 1.899 . S
O249 C257 1.284 . S
Zn250 O249 1.899 . S
Zn250 O251 2.032 . S
Zn250 O254 2.086 . S
Zn250 O259 1.977 . S
O251 Zn250 2.032 . S
O251 C255 1.278 . S
C252 O253 1.203 . S
C252 O259 1.267 . S
O253 C252 1.203 . S
O254 C247 1.185 . S
O254 Zn250 2.086 . S
C255 O251 1.278 . S
C255 O256 1.211 . S
O256 C255 1.211 . S
C257 O249 1.284 . S
C257 O258 1.273 . S
O258 C257 1.273 . S
O259 Zn250 1.977 . S
O259 C252 1.267 . S
C260 O261 1.160 . S
C260 O267 1.185 . S
O261 C260 1.160 . S
O262 Zn263 1.899 . S
O262 C270 1.284 . S
Zn263 O262 1.899 . S
Zn263 O264 2.032 . S
Zn263 O267 2.086 . S
Zn263 O272 1.977 . S
O264 Zn263 2.032 . S
O264 C268 1.278 . S
C265 O266 1.203 . S
C265 O272 1.267 . S
O266 C265 1.203 . S
O267 C260 1.185 . S
O267 Zn263 2.086 . S
C268 O264 1.278 . S
C268 O269 1.211 . S
O269 C268 1.211 . S
C270 O262 1.284 . S
C270 O271 1.273 . S
O271 C270 1.273 . S
O272 Zn263 1.977 . S
O272 C265 1.267 . S
C273 O274 1.160 . S
C273 O280 1.185 . S
O274 C273 1.160 . S
O275 Zn276 1.899 . S
O275 C283 1.284 . S
Zn276 O275 1.899 . S
Zn276 O277 2.032 . S
Zn276 O280 2.086 . S
Zn276 O285 1.977 . S
O277 Zn276 2.032 . S
O277 C281 1.278 . S
C278 O279 1.203 . S
C278 O285 1.267 . S
O279 C278 1.203 . S
O280 C273 1.185 . S
O280 Zn276 2.086 . S
C281 O277 1.278 . S
C281 O282 1.211 . S
O282 C281 1.211 . S
C283 O275 1.284 . S
C283 O284 1.273 . S
O284 C283 1.273 . S
O285 Zn276 1.977 . S
O285 C278 1.267 . S
C286 O287 1.160 . S
C286 O293 1.185 . S
O287 C286 1.160 . S
O288 Zn289 1.899 . S
O288 C296 1.284 . S
Zn289 O288 1.899 . S
Zn289 O290 2.032 . S
Zn289 O293 2.086 . S
Zn289 O298 1.977 . S
O290 Zn289 2.032 . S
O290 C294 1.278 . S
C291 O292 1.203 . S
C291 O298 1.267 . S
O292 C291 1.203 . S
O293 C286 1.185 . S
O293 Zn289 2.086 . S
C294 O290 1.278 . S
C294 O295 1.211 . S
O295 C294 1.211 . S
C296 O288 1.284 . S
C296 O297 1.273 . S
O297 C296 1.273 . S
O298 Zn289 1.977 . S
O298 C291 1.267 . S
C299 O300 1.160 . S
C299 O306 1.185 . S
O300 C299 1.160 . S
O301 Zn302 1.899 . S
O301 C309 1.284 . S
Zn302 O301 1.899 . S
Zn302 O303 2.032 . S
Zn302 O306 2.086 . S
Zn302 O311 1.977 . S
O303 Zn302 2.032 . S
O303 C307 1.278 . S
C304 O305 1.203 . S
C304 O311 1.267 . S
O305 C304 1.203 . S
O306 C299 1.185 . S
O306 Zn302 2.086 . S
C307 O303 1.278 . S
C307 O308 1.211 . S
O308 C307 1.211 . S
C309 O301 1.284 . S
C309 O310 1.273 . S
O310 C309 1.273 . S
O311 Zn302 1.977 . S
O311 C304 1.267 . S
C312 C313 1.387 . S
C312 H316 0.950 . S
C312 C321 1.390 . S
C313 C312 1.387 . S
C313 C315 1.387 . S
H314 C321 0.950 . S
C315 C313 1.387 . S
C315 C317 1.390 . S
C315 H319 0.950 . S
H316 C312 0.950 . S
C317 C315 1.390 . S
C317 C318 1.387 . S
C317 H320 0.950 . S
C318 C317 1.387 . S
C318 C321 1.387 . S
H319 C315 0.950 . S
H320 C317 0.950 . S
C321 C312 1.390 . S
C321 H314 0.950 . S
C321 C318 1.387 . S
C322 C323 1.387 . S
C322 H326 0.950 . S
C322 C331 1.390 . S
C323 C322 1.387 . S
C323 C325 1.387 . S
H324 C331 0.950 . S
C325 C323 1.387 . S
C325 C327 1.390 . S
C325 H329 0.950 . S
H326 C322 0.950 . S
C327 C325 1.390 . S
C327 C328 1.387 . S
C327 H330 0.950 . S
C328 C327 1.387 . S
C328 C331 1.387 . S
H329 C325 0.950 . S
H330 C327 0.950 . S
C331 C322 1.390 . S
C331 H324 0.950 . S
C331 C328 1.387 . S
C332 C333 1.387 . S
C332 H336 0.950 . S
C332 C341 1.390 . S
C333 C332 1.387 . S
C333 C335 1.387 . S
H334 C341 0.950 . S
C335 C333 1.387 . S
C335 C337 1.390 . S
C335 H339 0.950 . S
H336 C332 0.950 . S
C337 C335 1.390 . S
C337 C338 1.387 . S
C337 H340 0.950 . S
C338 C337 1.387 . S
C338 C341 1.387 . S
H339 C335 0.950 . S
H340 C337 0.950 . S
C341 C332 1.390 . S
C341 H334 0.950 . S
C341 C338 1.387 . S
C342 C343 1.387 . S
C342 H346 0.950 . S
C342 C351 1.390 . S
C343 C342 1.387 . S
C343 C345 1.387 . S
H344 C351 0.950 . S
C345 C343 1.387 . S
C345 C347 1.390 . S
C345 H349 0.950 . S
H346 C342 0.950 . S
C347 C345 1.390 . S
C347 C348 1.387 . S
C347 H350 0.950 . S
C348 C347 1.387 . S
C348 C351 1.387 . S
H349 C345 0.950 . S
H350 C347 0.950 . S
C351 C342 1.390 . S
C351 H344 0.950 . S
C351 C348 1.387 . S
C352 C353 1.387 . S
C352 H356 0.950 . S
C352 C361 1.390 . S
C353 C352 1.387 . S
C353 C355 1.387 . S
H354 C361 0.950 . S
C355 C353 1.387 . S
C355 C357 1.390 . S
C355 H359 0.950 . S
H356 C352 0.950 . S
C357 C355 1.390 . S
C357 C358 1.387 . S
C357 H360 0.950 . S
C358 C357 1.387 . S
C358 C361 1.387 . S
H359 C355 0.950 . S
H360 C357 0.950 . S
C361 C352 1.390 . S
C361 H354 0.950 . S
C361 C358 1.387 . S
C362 C363 1.387 . S
C362 H366 0.950 . S
C362 C371 1.390 . S
C363 C362 1.387 . S
C363 C365 1.387 . S
H364 C371 0.950 . S
C365 C363 1.387 . S
C365 C367 1.390 . S
C365 H369 0.950 . S
H366 C362 0.950 . S
C367 C365 1.390 . S
C367 C368 1.387 . S
C367 H370 0.950 . S
C368 C367 1.387 . S
C368 C371 1.387 . S
H369 C365 0.950 . S
H370 C367 0.950 . S
C371 C362 1.390 . S
C371 H364 0.950 . S
C371 C368 1.387 . S
C372 C373 1.387 . S
C372 H376 0.950 . S
C372 C381 1.390 . S
C373 C372 1.387 . S
C373 C375 1.387 . S
H374 C381 0.950 . S
C375 C373 1.387 . S
C375 C377 1.390 . S
C375 H379 0.950 . S
H376 C372 0.950 . S
C377 C375 1.390 . S
C377 C378 1.387 . S
C377 H380 0.950 . S
C378 C377 1.387 . S
C378 C381 1.387 . S
H379 C375 0.950 . S
H380 C377 0.950 . S
C381 C372 1.390 . S
C381 H374 0.950 . S
C381 C378 1.387 . S
C382 C383 1.387 . S
C382 H386 0.950 . S
C382 C391 1.390 . S
C383 C382 1.387 . S
C383 C385 1.387 . S
H384 C391 0.950 . S
C385 C383 1.387 . S
C385 C387 1.390 . S
C385 H389 0.950 . S
H386 C382 0.950 . S
C387 C385 1.390 . S
C387 C388 1.387 . S
C387 H390 0.950 . S
C388 C387 1.387 . S
C388 C391 1.387 . S
H389 C385 0.950 . S
H390 C387 0.950 . S
C391 C382 1.390 . S
C391 H384 0.950 . S
C391 C388 1.387 . S
C392 C393 1.387 . S
C392 H396 0.950 . S
C392 C401 1.390 . S
C393 C392 1.387 . S
C393 C395 1.387 . S
H394 C401 0.950 . S
C395 C393 1.387 . S
C395 C397 1.390 . S
C395 H399 0.950 . S
H396 C392 0.950 . S
C397 C395 1.390 . S
C397 C398 1.387 . S
C397 H400 0.950 . S
C398 C397 1.387 . S
C398 C401 1.387 . S
H399 C395 0.950 . S
H400 C397 0.950 . S
C401 C392 1.390 . S
C401 H394 0.950 . S
C401 C398 1.387 . S
C402 C403 1.387 . S
C402 H406 0.950 . S
C402 C411 1.390 . S
C403 C402 1.387 . S
C403 C405 1.387 . S
H404 C411 0.950 . S
C405 C403 1.387 . S
C405 C407 1.390 . S
C405 H409 0.950 . S
H406 C402 0.950 . S
C407 C405 1.390 . S
C407 C408 1.387 . S
C407 H410 0.950 . S
C408 C407 1.387 . S
C408 C411 1.387 . S
H409 C405 0.950 . S
H410 C407 0.950 . S
C411 C402 1.390 . S
C411 H404 0.950 . S
C411 C408 1.387 . S
C412 C413 1.387 . S
C412 H416 0.950 . S
C412 C421 1.390 . S
C413 C412 1.387 . S
C413 C415 1.387 . S
H414 C421 0.950 . S
C415 C413 1.387 . S
C415 C417 1.390 . S
C415 H419 0.950 . S
H416 C412 0.950 . S
C417 C415 1.390 . S
C417 C418 1.387 . S
C417 H420 0.950 . S
C418 C417 1.387 . S
C418 C421 1.387 . S
H419 C415 0.950 . S
H420 C417 0.950 . S
C421 C412 1.390 . S
C421 H414 0.950 . S
C421 C418 1.387 . S
C422 C423 1.387 . S
C422 H426 0.950 . S
C422 C431 1.390 . S
C423 C422 1.387 . S
C423 C425 1.387 . S
H424 C431 0.950 . S
C425 C423 1.387 . S
C425 C427 1.390 . S
C425 H429 0.950 . S
H426 C422 0.950 . S
C427 C425 1.390 . S
C427 C428 1.387 . S
C427 H430 0.950 . S
C428 C427 1.387 . S
C428 C431 1.387 . S
H429 C425 0.950 . S
H430 C427 0.950 . S
C431 C422 1.390 . S
C431 H424 0.950 . S
C431 C428 1.387 . S
C432 C433 1.387 . S
C432 H436 0.950 . S
C432 C441 1.390 . S
C433 C432 1.387 . S
C433 C435 1.387 . S
H434 C441 0.950 . S
C435 C433 1.387 . S
C435 C437 1.390 . S
C435 H439 0.950 . S
H436 C432 0.950 . S
C437 C435 1.390 . S
C437 C438 1.387 . S
C437 H440 0.950 . S
C438 C437 1.387 . S
C438 C441 1.387 . S
H439 C435 0.950 . S
H440 C437 0.950 . S
C441 C432 1.390 . S
C441 H434 0.950 . S
C441 C438 1.387 . S
C442 C443 1.387 . S
C442 H446 0.950 . S
C442 C451 1.390 . S
C443 C442 1.387 . S
C443 C445 1.387 . S
H444 C451 0.950 . S
C445 C443 1.387 . S
C445 C447 1.390 . S
C445 H449 0.950 . S
H446 C442 0.950 . S
C447 C445 1.390 . S
C447 C448 1.387 . S
C447 H450 0.950 . S
C448 C447 1.387 . S
C448 C451 1.387 . S
H449 C445 0.950 . S
H450 C447 0.950 . S
C451 C442 1.390 . S
C451 H444 0.950 . S
C451 C448 1.387 . S
C452 C453 1.387 . S
C452 H456 0.950 . S
C452 C461 1.390 . S
C453 C452 1.387 . S
C453 C455 1.387 . S
H454 C461 0.950 . S
C455 C453 1.387 . S
C455 C457 1.390 . S
C455 H459 0.950 . S
H456 C452 0.950 . S
C457 C455 1.390 . S
C457 C458 1.387 . S
C457 H460 0.950 . S
C458 C457 1.387 . S
C458 C461 1.387 . S
H459 C455 0.950 . S
H460 C457 0.950 . S
C461 C452 1.390 . S
C461 H454 0.950 . S
C461 C458 1.387 . S
C462 C463 1.387 . S
C462 H466 0.950 . S
C462 C471 1.390 . S
C463 C462 1.387 . S
C463 C465 1.387 . S
H464 C471 0.950 . S
C465 C463 1.387 . S
C465 C467 1.390 . S
C465 H469 0.950 . S
H466 C462 0.950 . S
C467 C465 1.390 . S
C467 C468 1.387 . S
C467 H470 0.950 . S
C468 C467 1.387 . S
C468 C471 1.387 . S
H469 C465 0.950 . S
H470 C467 0.950 . S
C471 C462 1.390 . S
C471 H464 0.950 . S
C471 C468 1.387 . S
C472 C473 1.387 . S
C472 H476 0.950 . S
C472 C481 1.390 . S
C473 C472 1.387 . S
C473 C475 1.387 . S
H474 C481 0.950 . S
C475 C473 1.387 . S
C475 C477 1.390 . S
C475 H479 0.950 . S
H476 C472 0.950 . S
C477 C475 1.390 . S
C477 C478 1.387 . S
C477 H480 0.950 . S
C478 C477 1.387 . S
C478 C481 1.387 . S
H479 C475 0.950 . S
H480 C477 0.950 . S
C481 C472 1.390 . S
C481 H474 0.950 . S
C481 C478 1.387 . S
C482 C483 1.387 . S
C482 H486 0.950 . S
C482 C491 1.390 . S
C483 C482 1.387 . S
C483 C485 1.387 . S
H484 C491 0.950 . S
C485 C483 1.387 . S
C485 C487 1.390 . S
C485 H489 0.950 . S
H486 C482 0.950 . S
C487 C485 1.390 . S
C487 C488 1.387 . S
C487 H490 0.950 . S
C488 C487 1.387 . S
C488 C491 1.387 . S
H489 C485 0.950 . S
H490 C487 0.950 . S
C491 C482 1.390 . S
C491 H484 0.950 . S
C491 C488 1.387 . S
C492 C493 1.387 . S
C492 H496 0.950 . S
C492 C501 1.390 . S
C493 C492 1.387 . S
C493 C495 1.387 . S
H494 C501 0.950 . S
C495 C493 1.387 . S
C495 C497 1.390 . S
C495 H499 0.950 . S
H496 C492 0.950 . S
C497 C495 1.390 . S
C497 C498 1.387 . S
C497 H500 0.950 . S
C498 C497 1.387 . S
C498 C501 1.387 . S
H499 C495 0.950 . S
H500 C497 0.950 . S
C501 C492 1.390 . S
C501 H494 0.950 . S
C501 C498 1.387 . S
C502 C503 1.387 . S
C502 H506 0.950 . S
C502 C511 1.390 . S
C503 C502 1.387 . S
C503 C505 1.387 . S
H504 C511 0.950 . S
C505 C503 1.387 . S
C505 C507 1.390 . S
C505 H509 0.950 . S
H506 C502 0.950 . S
C507 C505 1.390 . S
C507 C508 1.387 . S
C507 H510 0.950 . S
C508 C507 1.387 . S
C508 C511 1.387 . S
H509 C505 0.950 . S
H510 C507 0.950 . S
C511 C502 1.390 . S
C511 H504 0.950 . S
C511 C508 1.387 . S
C512 C513 1.387 . S
C512 H516 0.950 . S
C512 C521 1.390 . S
C513 C512 1.387 . S
C513 C515 1.387 . S
H514 C521 0.950 . S
C515 C513 1.387 . S
C515 C517 1.390 . S
C515 H519 0.950 . S
H516 C512 0.950 . S
C517 C515 1.390 . S
C517 C518 1.387 . S
C517 H520 0.950 . S
C518 C517 1.387 . S
C518 C521 1.387 . S
H519 C515 0.950 . S
H520 C517 0.950 . S
C521 C512 1.390 . S
C521 H514 0.950 . S
C521 C518 1.387 . S
C522 C523 1.387 . S
C522 H526 0.950 . S
C522 C531 1.390 . S
C523 C522 1.387 . S
C523 C525 1.387 . S
H524 C531 0.950 . S
C525 C523 1.387 . S
C525 C527 1.390 . S
C525 H529 0.950 . S
H526 C522 0.950 . S
C527 C525 1.390 . S
C527 C528 1.387 . S
C527 H530 0.950 . S
C528 C527 1.387 . S
C528 C531 1.387 . S
H529 C525 0.950 . S
H530 C527 0.950 . S
C531 C522 1.390 . S
C531 H524 0.950 . S
C531 C528 1.387 . S
C532 C533 1.387 . S
C532 H536 0.950 . S
C532 C541 1.390 . S
C533 C532 1.387 . S
C533 C535 1.387 . S
H534 C541 0.950 . S
C535 C533 1.387 . S
C535 C537 1.390 . S
C535 H539 0.950 . S
H536 C532 0.950 . S
C537 C535 1.390 . S
C537 C538 1.387 . S
C537 H540 0.950 . S
C538 C537 1.387 . S
C538 C541 1.387 . S
H539 C535 0.950 . S
H540 C537 0.950 . S
C541 C532 1.390 . S
C541 H534 0.950 . S
C541 C538 1.387 . S
C542 C543 1.387 . S
C542 H546 0.950 . S
C542 C551 1.390 . S
C543 C542 1.387 . S
C543 C545 1.387 . S
H544 C551 0.950 . S
C545 C543 1.387 . S
C545 C547 1.390 . S
C545 H549 0.950 . S
H546 C542 0.950 . S
C547 C545 1.390 . S
C547 C548 1.387 . S
C547 H550 0.950 . S
C548 C547 1.387 . S
C548 C551 1.387 . S
H549 C545 0.950 . S
H550 C547 0.950 . S
C551 C542 1.390 . S
C551 H544 0.950 . S
C551 C548 1.387 . S
C552 C553 1.387 . S
C552 H556 0.950 . S
C552 C561 1.390 . S
C553 C552 1.387 . S
C553 C555 1.387 . S
H554 C561 0.950 . S
C555 C553 1.387 . S
C555 C557 1.390 . S
C555 H559 0.950 . S
H556 C552 0.950 . S
C557 C555 1.390 . S
C557 C558 1.387 . S
C557 H560 0.950 . S
C558 C557 1.387 . S
C558 C561 1.387 . S
H559 C555 0.950 . S
H560 C557 0.950 . S
C561 C552 1.390 . S
C561 H554 0.950 . S
C561 C558 1.387 . S
C562 C563 1.387 . S
C562 H566 0.950 . S
C562 C571 1.390 . S
C563 C562 1.387 . S
C563 C565 1.387 . S
H564 C571 0.950 . S
C565 C563 1.387 . S
C565 C567 1.390 . S
C565 H569 0.950 . S
H566 C562 0.950 . S
C567 C565 1.390 . S
C567 C568 1.387 . S
C567 H570 0.950 . S
C568 C567 1.387 . S
C568 C571 1.387 . S
H569 C565 0.950 . S
H570 C567 0.950 . S
C571 C562 1.390 . S
C571 H564 0.950 . S
C571 C568 1.387 . S
C572 C573 1.387 . S
C572 H576 0.950 . S
C572 C581 1.390 . S
C573 C572 1.387 . S
C573 C575 1.387 . S
H574 C581 0.950 . S
C575 C573 1.387 . S
C575 C577 1.390 . S
C575 H579 0.950 . S
H576 C572 0.950 . S
C577 C575 1.390 . S
C577 C578 1.387 . S
C577 H580 0.950 . S
C578 C577 1.387 . S
C578 C581 1.387 . S
H579 C575 0.950 . S
H580 C577 0.950 . S
C581 C572 1.390 . S
C581 H574 0.950 . S
C581 C578 1.387 . S
C582 C583 1.387 . S
C582 H586 0.950 . S
C582 C591 1.390 . S
C583 C582 1.387 . S
C583 C585 1.387 . S
H584 C591 0.950 . S
C585 C583 1.387 . S
C585 C587 1.390 . S
C585 H589 0.950 . S
H586 C582 0.950 . S
C587 C585 1.390 . S
C587 C588 1.387 . S
C587 H590 0.950 . S
C588 C587 1.387 . S
C588 C591 1.387 . S
H589 C585 0.950 . S
H590 C587 0.950 . S
C591 C582 1.390 . S
C591 H584 0.950 . S
C591 C588 1.387 . S
C592 C593 1.387 . S
C592 H596 0.950 . S
C592 C601 1.390 . S
C593 C592 1.387 . S
C593 C595 1.387 . S
H594 C601 0.950 . S
C595 C593 1.387 . S
C595 C597 1.390 . S
C595 H599 0.950 . S
H596 C592 0.950 . S
C597 C595 1.390 . S
C597 C598 1.387 . S
C597 H600 0.950 . S
C598 C597 1.387 . S
C598 C601 1.387 . S
H599 C595 0.950 . S
H600 C597 0.950 . S
C601 C592 1.390 . S
C601 H594 0.950 . S
C601 C598 1.387 . S
C602 C603 1.387 . S
C602 H606 0.950 . S
C602 C611 1.390 . S
C603 C602 1.387 . S
C603 C605 1.387 . S
H604 C611 0.950 . S
C605 C603 1.387 . S
C605 C607 1.390 . S
C605 H609 0.950 . S
H606 C602 0.950 . S
C607 C605 1.390 . S
C607 C608 1.387 . S
C607 H610 0.950 . S
C608 C607 1.387 . S
C608 C611 1.387 . S
H609 C605 0.950 . S
H610 C607 0.950 . S
C611 C602 1.390 . S
C611 H604 0.950 . S
C611 C608 1.387 . S
C612 C613 1.387 . S
C612 H616 0.950 . S
C612 C621 1.390 . S
C613 C612 1.387 . S
C613 C615 1.387 . S
H614 C621 0.950 . S
C615 C613 1.387 . S
C615 C617 1.390 . S
C615 H619 0.950 . S
H616 C612 0.950 . S
C617 C615 1.390 . S
C617 C618 1.387 . S
C617 H620 0.950 . S
C618 C617 1.387 . S
C618 C621 1.387 . S
H619 C615 0.950 . S
H620 C617 0.950 . S
C621 C612 1.390 . S
C621 H614 0.950 . S
C621 C618 1.387 . S
C622 C623 1.387 . S
C622 H626 0.950 . S
C622 C631 1.390 . S
C623 C622 1.387 . S
C623 C625 1.387 . S
H624 C631 0.950 . S
C625 C623 1.387 . S
C625 C627 1.390 . S
C625 H629 0.950 . S
H626 C622 0.950 . S
C627 C625 1.390 . S
C627 C628 1.387 . S
C627 H630 0.950 . S
C628 C627 1.387 . S
C628 C631 1.387 . S
H629 C625 0.950 . S
H630 C627 0.950 . S
C631 C622 1.390 . S
C631 H624 0.950 . S
C631 C628 1.387 . S
C632 C633 1.387 . S
C632 H636 0.950 . S
C632 C641 1.390 . S
C633 C632 1.387 . S
C633 C635 1.387 . S
H634 C641 0.950 . S
C635 C633 1.387 . S
C635 C637 1.390 . S
C635 H639 0.950 . S
H636 C632 0.950 . S
C637 C635 1.390 . S
C637 C638 1.387 . S
C637 H640 0.950 . S
C638 C637 1.387 . S
C638 C641 1.387 . S
H639 C635 0.950 . S
H640 C637 0.950 . S
C641 C632 1.390 . S
C641 H634 0.950 . S
C641 C638 1.387 . S
C642 C643 1.387 . S
C642 H646 0.950 . S
C642 C651 1.390 . S
C643 C642 1.387 . S
C643 C645 1.387 . S
H644 C651 0.950 . S
C645 C643 1.387 . S
C645 C647 1.390 . S
C645 H649 0.950 . S
H646 C642 0.950 . S
C647 C645 1.390 . S
C647 C648 1.387 . S
C647 H650 0.950 . S
C648 C647 1.387 . S
C648 C651 1.387 . S
H649 C645 0.950 . S
H650 C647 0.950 . S
C651 C642 1.390 . S
C651 H644 0.950 . S
C651 C648 1.387 . S
C652 C653 1.387 . S
C652 H656 0.950 . S
C652 C661 1.390 . S
C653 C652 1.387 . S
C653 C655 1.387 . S
H654 C661 0.950 . S
C655 C653 1.387 . S
C655 C657 1.390 . S
C655 H659 0.950 . S
H656 C652 0.950 . S
C657 C655 1.390 . S
C657 C658 1.387 . S
C657 H660 0.950 . S
C658 C657 1.387 . S
C658 C661 1.387 . S
H659 C655 0.950 . S
H660 C657 0.950 . S
C661 C652 1.390 . S
C661 H654 0.950 . S
C661 C658 1.387 . S
C662 C663 1.387 . S
C662 H666 0.950 . S
C662 C671 1.390 . S
C663 C662 1.387 . S
C663 C665 1.387 . S
H664 C671 0.950 . S
C665 C663 1.387 . S
C665 C667 1.390 . S
C665 H669 0.950 . S
H666 C662 0.950 . S
C667 C665 1.390 . S
C667 C668 1.387 . S
C667 H670 0.950 . S
C668 C667 1.387 . S
C668 C671 1.387 . S
H669 C665 0.950 . S
H670 C667 0.950 . S
C671 C662 1.390 . S
C671 H664 0.950 . S
C671 C668 1.387 . S
C672 C673 1.387 . S
C672 H676 0.950 . S
C672 C681 1.390 . S
C673 C672 1.387 . S
C673 C675 1.387 . S
H674 C681 0.950 . S
C675 C673 1.387 . S
C675 C677 1.390 . S
C675 H679 0.950 . S
H676 C672 0.950 . S
C677 C675 1.390 . S
C677 C678 1.387 . S
C677 H680 0.950 . S
C678 C677 1.387 . S
C678 C681 1.387 . S
H679 C675 0.950 . S
H680 C677 0.950 . S
C681 C672 1.390 . S
C681 H674 0.950 . S
C681 C678 1.387 . S
C682 C683 1.387 . S
C682 H686 0.950 . S
C682 C691 1.390 . S
C683 C682 1.387 . S
C683 C685 1.387 . S
H684 C691 0.950 . S
C685 C683 1.387 . S
C685 C687 1.390 . S
C685 H689 0.950 . S
H686 C682 0.950 . S
C687 C685 1.390 . S
C687 C688 1.387 . S
C687 H690 0.950 . S
C688 C687 1.387 . S
C688 C691 1.387 . S
H689 C685 0.950 . S
H690 C687 0.950 . S
C691 C682 1.390 . S
C691 H684 0.950 . S
C691 C688 1.387 . S
C692 C693 1.387 . S
C692 H696 0.950 . S
C692 C701 1.390 . S
C693 C692 1.387 . S
C693 C695 1.387 . S
H694 C701 0.950 . S
C695 C693 1.387 . S
C695 C697 1.390 . S
C695 H699 0.950 . S
H696 C692 0.950 . S
C697 C695 1.390 . S
C697 C698 1.387 . S
C697 H700 0.950 . S
C698 C697 1.387 . S
C698 C701 1.387 . S
H699 C695 0.950 . S
H700 C697 0.950 . S
C701 C692 1.390 . S
C701 H694 0.950 . S
C701 C698 1.387 . S
C702 C703 1.387 . S
C702 H706 0.950 . S
C702 C711 1.390 . S
C703 C702 1.387 . S
C703 C705 1.387 . S
H704 C711 0.950 . S
C705 C703 1.387 . S
C705 C707 1.390 . S
C705 H709 0.950 . S
H706 C702 0.950 . S
C707 C705 1.390 . S
C707 C708 1.387 . S
C707 H710 0.950 . S
C708 C707 1.387 . S
C708 C711 1.387 . S
H709 C705 0.950 . S
H710 C707 0.950 . S
C711 C702 1.390 . S
C711 H704 0.950 . S
C711 C708 1.387 . S
C712 C713 1.387 . S
C712 H716 0.950 . S
C712 C721 1.390 . S
C713 C712 1.387 . S
C713 C715 1.387 . S
H714 C721 0.950 . S
C715 C713 1.387 . S
C715 C717 1.390 . S
C715 H719 0.950 . S
H716 C712 0.950 . S
C717 C715 1.390 . S
C717 C718 1.387 . S
C717 H720 0.950 . S
C718 C717 1.387 . S
C718 C721 1.387 . S
H719 C715 0.950 . S
H720 C717 0.950 . S
C721 C712 1.390 . S
C721 H714 0.950 . S
C721 C718 1.387 . S
C722 C723 1.387 . S
C722 H726 0.950 . S
C722 C731 1.390 . S
C723 C722 1.387 . S
C723 C725 1.387 . S
H724 C731 0.950 . S
C725 C723 1.387 . S
C725 C727 1.390 . S
C725 H729 0.950 . S
H726 C722 0.950 . S
C727 C725 1.390 . S
C727 C728 1.387 . S
C727 H730 0.950 . S
C728 C727 1.387 . S
C728 C731 1.387 . S
H729 C725 0.950 . S
H730 C727 0.950 . S
C731 C722 1.390 . S
C731 H724 0.950 . S
C731 C728 1.387 . S
C732 C733 1.387 . S
C732 H736 0.950 . S
C732 C741 1.390 . S
C733 C732 1.387 . S
C733 C735 1.387 . S
H734 C741 0.950 . S
C735 C733 1.387 . S
C735 C737 1.390 . S
C735 H739 0.950 . S
H736 C732 0.950 . S
C737 C735 1.390 . S
C737 C738 1.387 . S
C737 H740 0.950 . S
C738 C737 1.387 . S
C738 C741 1.387 . S
H739 C735 0.950 . S
H740 C737 0.950 . S
C741 C732 1.390 . S
C741 H734 0.950 . S
C741 C738 1.387 . S
C742 C743 1.387 . S
C742 H746 0.950 . S
C742 C751 1.390 . S
C743 C742 1.387 . S
C743 C745 1.387 . S
H744 C751 0.950 . S
C745 C743 1.387 . S
C745 C747 1.390 . S
C745 H749 0.950 . S
H746 C742 0.950 . S
C747 C745 1.390 . S
C747 C748 1.387 . S
C747 H750 0.950 . S
C748 C747 1.387 . S
C748 C751 1.387 . S
H749 C745 0.950 . S
H750 C747 0.950 . S
C751 C742 1.390 . S
C751 H744 0.950 . S
C751 C748 1.387 . S
C752 C753 1.387 . S
C752 H756 0.950 . S
C752 C761 1.390 . S
C753 C752 1.387 . S
C753 C755 1.387 . S
H754 C761 0.950 . S
C755 C753 1.387 . S
C755 C757 1.390 . S
C755 H759 0.950 . S
H756 C752 0.950 . S
C757 C755 1.390 . S
C757 C758 1.387 . S
C757 H760 0.950 . S
C758 C757 1.387 . S
C758 C761 1.387 . S
H759 C755 0.950 . S
H760 C757 0.950 . S
C761 C752 1.390 . S
C761 H754 0.950 . S
C761 C758 1.387 . S
C762 C763 1.387 . S
C762 H766 0.950 . S
C762 C771 1.390 . S
C763 C762 1.387 . S
C763 C765 1.387 . S
H764 C771 0.950 . S
C765 C763 1.387 . S
C765 C767 1.390 . S
C765 H769 0.950 . S
H766 C762 0.950 . S
C767 C765 1.390 . S
C767 C768 1.387 . S
C767 H770 0.950 . S
C768 C767 1.387 . S
C768 C771 1.387 . S
H769 C765 0.950 . S
H770 C767 0.950 . S
C771 C762 1.390 . S
C771 H764 0.950 . S
C771 C768 1.387 . S
C772 C773 1.387 . S
C772 H776 0.950 1_545 S
C772 C781 1.390 . S
C773 C772 1.387 . S
C773 C775 1.387 . S
H774 C781 0.950 . S
C775 C773 1.387 . S
C775 C777 1.390 . S
C775 H779 0.950 . S
H776 C772 0.950 1_565 S
C777 C775 1.390 . S
C777 C778 1.387 . S
C777 H780 0.950 . S
C778 C777 1.387 . S
C778 C781 1.387 . S
H779 C775 0.950 . S
H780 C777 0.950 . S
C781 C772 1.390 . S
C781 H774 0.950 . S
C781 C778 1.387 . S
C782 C783 1.387 . S
C782 H786 0.950 . S
C782 C791 1.390 . S
C783 C782 1.387 . S
C783 C785 1.387 . S
H784 C791 0.950 . S
C785 C783 1.387 . S
C785 C787 1.390 . S
C785 H789 0.950 . S
H786 C782 0.950 . S
C787 C785 1.390 . S
C787 C788 1.387 . S
C787 H790 0.950 . S
C788 C787 1.387 . S
C788 C791 1.387 . S
H789 C785 0.950 . S
H790 C787 0.950 . S
C791 C782 1.390 . S
C791 H784 0.950 . S
C791 C788 1.387 . S
C313 C109 1.160 . S
C318 C10 1.221 . S
C323 C23 1.219 . S
C328 C148 1.161 . S
C333 C36 1.219 . S
C338 C122 1.157 . S
C343 C49 1.220 . S
C348 C135 1.156 . S
C353 C57 1.075 . S
C358 C5 1.115 . S
C363 C18 1.114 . S
C368 C70 1.076 . S
C373 C83 1.075 . S
C378 C31 1.115 . S
C383 C44 1.111 . S
C388 C96 1.070 . S
C393 C62 1.208 . S
C398 C114 1.189 . S
C403 C88 1.210 . S
C408 C127 1.187 . S
C413 C140 1.189 . S
C418 C101 1.208 . S
C423 C75 1.209 . S
C428 C153 1.189 . S
C433 C265 1.116 . S
C438 C166 1.180 . S
C443 C179 1.181 . S
C448 C304 1.110 . S
C453 C192 1.180 . S
C458 C278 1.116 . S
C463 C291 1.115 . S
C468 C205 1.180 . S
C473 C218 1.180 . S
C478 C161 1.109 . S
C483 C174 1.113 . S
C488 C231 1.182 . S
C493 C187 1.111 . S
C498 C244 1.179 . S
C503 C257 1.180 . S
C508 C200 1.109 . S
C513 C270 1.244 . S
C518 C213 1.175 . S
C523 C239 1.173 . S
C528 C283 1.241 . S
C533 C252 1.175 . S
C538 C296 1.244 . S
C543 C309 1.242 . S
C548 C226 1.172 . S
C553 C286 1.398 . S
C558 C8 1.352 . S
C563 C273 1.398 1_556 S
C568 C21 1.352 . S
C573 C299 1.399 . S
C578 C34 1.348 . S
C583 C47 1.349 . S
C588 C260 1.400 1_554 S
C593 C52 1.331 . S
C598 C169 1.363 . S
C603 C156 1.362 1_455 S
C608 C65 1.330 . S
C613 C195 1.364 1_655 S
C618 C78 1.328 . S
C623 C182 1.365 . S
C628 C91 1.329 . S
C633 C112 1.320 . S
C638 C234 1.344 . S
C643 C208 1.342 1_545 S
C648 C125 1.319 . S
C653 C221 1.343 1_565 S
C658 C138 1.323 . S
C663 C247 1.345 . S
C668 C151 1.322 . S
C673 C130 1.314 . S
C678 C164 1.292 . S
C683 C117 1.313 1_554 S
C688 C177 1.295 . S
C693 C190 1.293 . S
C698 C143 1.316 . S
C703 C104 1.316 1_556 S
C708 C203 1.293 . S
C713 C216 1.330 . S
C718 C13 1.345 . S
C723 C229 1.331 . S
C728 C0 1.342 1_655 S
C733 C242 1.330 . S
C738 C39 1.345 1_455 S
C743 C255 1.330 . S
C748 C26 1.343 . S
C753 C268 1.318 . S
C758 C86 1.353 . S
C763 C281 1.317 . S
C768 C60 1.355 1_565 S
C773 C73 1.353 1_545 S
C778 C294 1.319 . S
C783 C307 1.321 . S
C788 C99 1.355 . S
