# Generated by pormake.
# Topology dmp, (4)-cn, num edge types: 1
# Building blocks:
#     Node 0, Type 0, BuildingBlock: UXUYUI_clean_sbu_0, # of connection points: 4
#     Node 1, Type 0, BuildingBlock: UXUYUI_clean_sbu_0, # of connection points: 4
#     Node 2, Type 0, BuildingBlock: UXUYUI_clean_sbu_0, # of connection points: 4
#     Node 3, Type 0, BuildingBlock: UXUYUI_clean_sbu_0, # of connection points: 4
#     Edge 4, Type (0, 0), BuildingBlock: EZIPEK_clean_linker_0, # of connection points: 2
#     Edge 5, Type (0, 0), BuildingBlock: EZIPEK_clean_linker_0, # of connection points: 2
#     Edge 6, Type (0, 0), BuildingBlock: EZIPEK_clean_linker_0, # of connection points: 2
#     Edge 7, Type (0, 0), BuildingBlock: EZIPEK_clean_linker_0, # of connection points: 2
#     Edge 8, Type (0, 0), BuildingBlock: EZIPEK_clean_linker_0, # of connection points: 2
#     Edge 9, Type (0, 0), BuildingBlock: EZIPEK_clean_linker_0, # of connection points: 2
#     Edge 10, Type (0, 0), BuildingBlock: EZIPEK_clean_linker_0, # of connection points: 2
#     Edge 11, Type (0, 0), BuildingBlock: EZIPEK_clean_linker_0, # of connection points: 2
# Relax obj value: 0.351
# Max RMSD: 0.312
# Mean RMSD: 0.312
data_MOF--net-dmp--node1-UXUYUI_clean_sbu_0--edge1-EZIPEK_clean_linker_0
_symmetry_space_group_name_H-M    P1
_symmetry_Int_Tables_number       1
_symmetry_cell_setting            triclinic
loop_
_symmetry_equiv_pos_as_xyz
'x, y, z'
_cell_length_a     45.851969
_cell_length_b     19.585166
_cell_length_c     23.720707
_cell_angle_alpha  90.006902
_cell_angle_beta   89.999249
_cell_angle_gamma 90.001787
loop_
_atom_site_label
_atom_site_type_symbol
_atom_site_fract_x
_atom_site_fract_y
_atom_site_fract_z
_atom_type_partial_charge
Li0 Li 0.12061 0.29728 0.23242 0.0
Li1 Li 0.12017 0.20317 0.29989 0.0
Li2 Li 0.08566 0.20733 0.22148 0.0
Li3 Li 0.08111 0.28453 0.30119 0.0
C4 C 0.1527 0.20355 0.18545 0.0
N5 N 0.20261 0.21862 0.12119 0.0
C6 C 0.1802 0.1953 0.21001 0.0
C7 C 0.15064 0.21967 0.12815 0.0
C8 C 0.20515 0.20302 0.17683 0.0
C9 C 0.17611 0.22707 0.09641 0.0
C10 C 0.12289 0.35089 0.35518 0.0
C11 C 0.11707 0.38768 0.45157 0.0
N12 N 0.12105 0.45352 0.43506 0.0
C13 C 0.12692 0.41893 0.33915 0.0
C14 C 0.1178 0.3351 0.41181 0.0
C15 C 0.12588 0.47008 0.38016 0.0
C16 C 0.14298 0.39069 0.14806 0.0
N17 N 0.14741 0.35787 0.1979 0.0
C18 C 0.19541 0.40364 0.20548 0.0
C19 C 0.17294 0.36355 0.22658 0.0
C20 C 0.19156 0.43795 0.15434 0.0
C21 C 0.1651 0.43141 0.12511 0.0
H22 H 0.12251 0.38476 0.12602 0.0
H23 H 0.17587 0.33625 0.2658 0.0
C24 C 0.15255 0.08477 0.31825 0.0
N25 N 0.14651 0.14712 0.34052 0.0
C26 C 0.17765 0.04991 0.33466 0.0
C27 C 0.18837 0.1412 0.40024 0.0
C28 C 0.16321 0.17477 0.38206 0.0
C29 C 0.19645 0.07988 0.37412 0.0
H30 H 0.13935 0.06512 0.28413 0.0
H31 H 0.15845 0.22527 0.39772 0.0
C32 C 0.05628 0.31162 0.18191 0.0
N33 N 0.01086 0.31217 0.1054 0.0
C34 C 0.02757 0.3195 0.20062 0.0
C35 C 0.06193 0.30467 0.12429 0.0
C36 C 0.0049 0.3196 0.16125 0.0
C37 C 0.03865 0.30479 0.08629 0.0
C38 C 0.0782 0.12412 0.33057 0.0
C39 C 0.07517 0.06213 0.30195 0.0
C40 C 0.08309 0.12414 0.38874 0.0
C41 C 0.07719 0.00103 0.33209 0.0
C42 C 0.08501 0.06195 0.41733 0.0
N43 N 0.08204 0.0022 0.38865 0.0
C44 C 0.07892 0.1209 0.12666 0.0
C45 C 0.03519 0.14572 0.17606 0.0
C46 C 0.06371 0.08064 0.08809 0.0
N47 N 0.06447 0.15298 0.16914 0.0
C48 C 0.0191 0.1059 0.13844 0.0
C49 C 0.03348 0.07308 0.09392 0.0
H50 H 0.10228 0.12597 0.12304 0.0
H51 H 0.02439 0.17071 0.21094 0.0
C52 C 0.05355 0.40249 0.34255 0.0
N53 N 0.05547 0.33366 0.34907 0.0
C54 C 0.0377 0.44153 0.38104 0.0
C55 C 0.02465 0.3376 0.43013 0.0
C56 C 0.04107 0.30063 0.39109 0.0
C57 C 0.02339 0.40895 0.42579 0.0
H58 H 0.06512 0.42717 0.30844 0.0
H59 H 0.04288 0.24584 0.395 0.0
O60 O 0.12799 0.19784 0.21759 0.0
O61 O 0.1237 0.30005 0.31562 0.0
O62 O 0.0787 0.30996 0.21987 0.0
O63 O 0.0768 0.18447 0.30171 0.0
H64 H 0.18235 0.18428 0.25439 0.0
H65 H 0.12962 0.2277 0.10857 0.0
H66 H 0.22655 0.19703 0.19542 0.0
H67 H 0.17481 0.23998 0.05214 0.0
H68 H 0.11325 0.37614 0.49554 0.0
H69 H 0.13046 0.4323 0.29545 0.0
H70 H 0.11418 0.28286 0.42487 0.0
H71 H 0.12885 0.52296 0.36833 0.0
H72 H 0.21564 0.40794 0.22883 0.0
H73 H 0.16165 0.45768 0.08551 0.0
H74 H 0.18351 0.00274 0.31365 0.0
H75 H 0.20266 0.16557 0.43053 0.0
H76 H 0.02283 0.3248 0.24509 0.0
H77 H 0.08401 0.29815 0.10917 0.0
H78 H 0.98256 0.32529 0.17512 0.0
H79 H 0.04267 0.29877 0.04162 0.0
H80 H 0.07154 0.06109 0.25692 0.0
H81 H 0.08576 0.17165 0.41143 0.0
H82 H 0.07498 0.95266 0.31048 0.0
H83 H 0.08895 0.06118 0.46229 0.0
H84 H 0.07535 0.05527 0.05431 0.0
H85 H 0.99577 0.10041 0.14407 0.0
H86 H 0.03703 0.49656 0.37665 0.0
H87 H 0.01371 0.31118 0.46421 0.0
Li88 Li 0.41362 0.7887 0.2003 0.0
Li89 Li 0.40984 0.71141 0.28005 0.0
Li90 Li 0.37473 0.70691 0.20266 0.0
Li91 Li 0.37466 0.80104 0.2702 0.0
C92 C 0.4167 0.62836 0.1707 0.0
N93 N 0.41287 0.50647 0.11255 0.0
C94 C 0.42011 0.56639 0.19915 0.0
C95 C 0.41145 0.62838 0.11265 0.0
C96 C 0.41809 0.50529 0.16899 0.0
C97 C 0.40953 0.5662 0.08403 0.0
C98 C 0.43939 0.81591 0.3188 0.0
C99 C 0.45786 0.80892 0.41381 0.0
N100 N 0.48546 0.81689 0.39383 0.0
C101 C 0.4679 0.82439 0.2992 0.0
C102 C 0.43425 0.80858 0.37657 0.0
C103 C 0.49091 0.8247 0.33783 0.0
C104 C 0.44057 0.90689 0.15767 0.0
N105 N 0.43886 0.83795 0.15173 0.0
C106 C 0.46956 0.84143 0.0705 0.0
C107 C 0.4533 0.80467 0.1099 0.0
C108 C 0.47064 0.91284 0.07428 0.0
C109 C 0.45625 0.94573 0.11879 0.0
H110 H 0.429 0.93178 0.19168 0.0
H111 H 0.45168 0.7498 0.10647 0.0
C112 C 0.41707 0.62391 0.37379 0.0
N113 N 0.43139 0.65693 0.33165 0.0
C114 C 0.43242 0.58294 0.41163 0.0
C115 C 0.47688 0.60952 0.36128 0.0
C116 C 0.46067 0.65004 0.32439 0.0
C117 C 0.46262 0.57564 0.4054 0.0
H118 H 0.39372 0.62864 0.37763 0.0
H119 H 0.47134 0.67572 0.28971 0.0
C120 C 0.37134 0.85413 0.1471 0.0
N121 N 0.37271 0.95585 0.06642 0.0
C122 C 0.36719 0.92229 0.16265 0.0
C123 C 0.37626 0.83774 0.09053 0.0
C124 C 0.36798 0.97298 0.12123 0.0
C125 C 0.37679 0.88988 0.05037 0.0
C126 C 0.34311 0.70683 0.31801 0.0
C127 C 0.31544 0.69847 0.2942 0.0
C128 C 0.34559 0.72256 0.37532 0.0
C129 C 0.29073 0.70567 0.32814 0.0
C130 C 0.32035 0.72945 0.40784 0.0
N131 N 0.29368 0.72089 0.38378 0.0
C132 C 0.3427 0.58782 0.18537 0.0
C133 C 0.33095 0.6776 0.12209 0.0
C134 C 0.31768 0.55215 0.16971 0.0
N135 N 0.34821 0.65036 0.16296 0.0
C136 C 0.30582 0.64327 0.10473 0.0
C137 C 0.29837 0.58154 0.1309 0.0
H138 H 0.35632 0.56851 0.21901 0.0
H139 H 0.3353 0.72827 0.10634 0.0
C140 C 0.35263 0.89341 0.35569 0.0
N141 N 0.34802 0.86119 0.30563 0.0
C142 C 0.33052 0.9335 0.37945 0.0
C143 C 0.29989 0.90639 0.29938 0.0
C144 C 0.32234 0.8669 0.27749 0.0
C145 C 0.3039 0.94006 0.35078 0.0
H146 H 0.37321 0.88739 0.37732 0.0
H147 H 0.31925 0.84 0.23812 0.0
O148 O 0.4181 0.6887 0.19959 0.0
O149 O 0.41665 0.8141 0.28156 0.0
O150 O 0.37086 0.80377 0.18707 0.0
O151 O 0.36758 0.70156 0.28514 0.0
H152 H 0.42404 0.56534 0.24409 0.0
H153 H 0.40851 0.67588 0.09007 0.0
H154 H 0.4206 0.45694 0.19049 0.0
H155 H 0.40532 0.56543 0.03916 0.0
H156 H 0.45425 0.80261 0.45858 0.0
H157 H 0.47225 0.83001 0.2546 0.0
H158 H 0.41233 0.80161 0.39237 0.0
H159 H 0.51311 0.83087 0.32326 0.0
H160 H 0.48058 0.81476 0.03662 0.0
H161 H 0.45677 0.00082 0.12275 0.0
H162 H 0.42087 0.55673 0.44508 0.0
H163 H 0.5002 0.60423 0.35533 0.0
H164 H 0.36375 0.93611 0.20629 0.0
H165 H 0.37991 0.78539 0.07782 0.0
H166 H 0.36492 0.02595 0.1327 0.0
H167 H 0.38052 0.87789 0.00644 0.0
H168 H 0.31296 0.68772 0.24983 0.0
H169 H 0.36674 0.73066 0.39433 0.0
H170 H 0.26921 0.69959 0.31015 0.0
H171 H 0.32197 0.74204 0.45213 0.0
H172 H 0.31231 0.50471 0.19079 0.0
H173 H 0.29112 0.66722 0.07496 0.0
H174 H 0.3341 0.95925 0.41925 0.0
H175 H 0.27952 0.9107 0.27647 0.0
Li176 Li 0.87568 0.78455 0.74232 0.0
Li177 Li 0.91319 0.77561 0.81281 0.0
Li178 Li 0.91263 0.69691 0.72794 0.0
Li179 Li 0.87601 0.69017 0.80352 0.0
C180 C 0.92503 0.83717 0.68484 0.0
N181 N 0.93967 0.9154 0.59203 0.0
C182 C 0.9344 0.90459 0.69182 0.0
C183 C 0.9234 0.8094 0.63062 0.0
C184 C 0.94157 0.94338 0.64437 0.0
C185 C 0.93085 0.84977 0.58426 0.0
C186 C 0.86616 0.851 0.84518 0.0
C187 C 0.84523 0.92863 0.91303 0.0
N188 N 0.85722 0.98213 0.88478 0.0
C189 C 0.87825 0.90679 0.81686 0.0
C190 C 0.84949 0.86199 0.89367 0.0
C191 C 0.87349 0.97265 0.83749 0.0
C192 C 0.82225 0.84781 0.73493 0.0
N193 N 0.84767 0.84246 0.70567 0.0
C194 C 0.82792 0.90968 0.63051 0.0
C195 C 0.85083 0.87208 0.65407 0.0
C196 C 0.80179 0.91636 0.66064 0.0
C197 C 0.79901 0.88498 0.71325 0.0
H198 H 0.81979 0.82186 0.77483 0.0
H199 H 0.87075 0.86601 0.63068 0.0
C200 C 0.96123 0.85766 0.84434 0.0
N201 N 0.93713 0.82463 0.86357 0.0
C202 C 0.97782 0.89776 0.881 0.0
C203 C 0.94462 0.86814 0.95648 0.0
C204 C 0.92871 0.82864 0.91843 0.0
C205 C 0.96932 0.90345 0.93758 0.0
H206 H 0.96733 0.85349 0.80044 0.0
H207 H 0.90933 0.80208 0.93235 0.0
C208 C 0.84707 0.68736 0.68652 0.0
N209 N 0.79958 0.69029 0.61487 0.0
C210 C 0.81877 0.68586 0.70839 0.0
C211 C 0.85123 0.68975 0.6282 0.0
C212 C 0.79504 0.68755 0.67149 0.0
C213 C 0.82693 0.6914 0.59268 0.0
C214 C 0.91808 0.61806 0.84282 0.0
C215 C 0.92073 0.55321 0.81882 0.0
C216 C 0.91326 0.62452 0.90074 0.0
C217 C 0.91832 0.49563 0.85328 0.0
C218 C 0.91096 0.5657 0.93376 0.0
N219 N 0.9135 0.50302 0.90954 0.0
C220 C 0.96173 0.66449 0.65995 0.0
C221 C 0.92136 0.58895 0.65344 0.0
C222 C 0.97687 0.62702 0.61929 0.0
N223 N 0.93443 0.64515 0.67562 0.0
C224 C 0.9358 0.54968 0.61314 0.0
C225 C 0.96376 0.56906 0.5955 0.0
H226 H 0.97149 0.70953 0.67842 0.0
H227 H 0.89964 0.57493 0.66695 0.0
C228 C 0.8336 0.64952 0.88329 0.0
N229 N 0.8502 0.62858 0.83906 0.0
C230 C 0.80847 0.61323 0.89785 0.0
C231 C 0.8195 0.53221 0.82375 0.0
C232 C 0.84438 0.56982 0.81078 0.0
C233 C 0.80064 0.55584 0.86591 0.0
H234 H 0.83859 0.69706 0.90427 0.0
H235 H 0.85767 0.5555 0.77499 0.0
O236 O 0.91855 0.79801 0.73101 0.0
O237 O 0.87082 0.78575 0.82629 0.0
O238 O 0.87058 0.68691 0.72203 0.0
O239 O 0.91964 0.67496 0.80962 0.0
H240 H 0.93626 0.92678 0.73344 0.0
H241 H 0.91607 0.75763 0.62421 0.0
H242 H 0.94876 0.99567 0.64919 0.0
H243 H 0.92951 0.82898 0.54208 0.0
H244 H 0.8324 0.93781 0.95055 0.0
H245 H 0.89102 0.89945 0.77925 0.0
H246 H 0.84001 0.81951 0.91631 0.0
H247 H 0.88273 0.01621 0.81588 0.0
H248 H 0.83051 0.93333 0.58955 0.0
H249 H 0.77894 0.88895 0.73716 0.0
H250 H 0.99685 0.92455 0.86543 0.0
H251 H 0.9376 0.87178 -1e-05 0.0
H252 H 0.81514 0.68462 0.75342 0.0
H253 H 0.87296 0.69045 0.61052 0.0
H254 H 0.77303 0.68696 0.68787 0.0
H255 H 0.82982 0.69355 0.54745 0.0
H256 H 0.9244 0.5474 0.77402 0.0
H257 H 0.911 0.6744 0.91985 0.0
H258 H 0.92021 0.44508 0.83528 0.0
H259 H 0.90707 0.56988 0.97861 0.0
H260 H -0.00152 0.643 0.60638 0.0
H261 H 0.92523 0.50504 0.59553 0.0
H262 H 0.79414 0.63266 0.93041 0.0
H263 H 0.81381 0.48826 0.79826 0.0
Li264 Li 0.61863 0.18749 0.69388 0.0
Li265 Li 0.58223 0.19499 0.76956 0.0
Li266 Li 0.5816 0.27298 0.68442 0.0
Li267 Li 0.61922 0.28234 0.75465 0.0
C268 C 0.57645 0.11518 0.65538 0.0
N269 N 0.58082 -0.00071 0.58961 0.0
C270 C 0.57418 0.05062 0.68007 0.0
C271 C 0.58078 0.12091 0.59727 0.0
C272 C 0.57648 0.99261 0.64607 0.0
C273 C 0.58298 0.06166 0.56473 0.0
C274 C 0.64827 0.1856 0.80985 0.0
C275 C 0.66954 0.19057 0.90274 0.0
N276 N 0.69662 0.18955 0.87932 0.0
C277 C 0.67631 0.18418 0.78672 0.0
C278 C 0.64482 0.18841 0.86834 0.0
C279 C 0.70047 0.18638 0.82253 0.0
C280 C 0.66021 0.1461 0.61279 0.0
N281 N 0.64419 0.12564 0.65796 0.0
C282 C 0.67531 0.02996 0.67294 0.0
C283 C 0.65046 0.06736 0.68654 0.0
C284 C 0.69364 0.05327 0.6298 0.0
C285 C 0.68527 0.10998 0.59755 0.0
H286 H 0.65483 0.19322 0.59151 0.0
H287 H 0.63761 0.05337 0.723 0.0
C288 C 0.53287 0.16355 0.83695 0.0
N289 N 0.56028 0.14402 0.82219 0.0
C290 C 0.51754 0.12702 0.87791 0.0
C291 C 0.55867 0.05017 0.88629 0.0
C292 C 0.57329 0.0885 0.84563 0.0
C293 C 0.53057 0.06978 0.90298 0.0
H294 H 0.52317 0.20807 0.81752 0.0
H295 H 0.59512 0.07434 0.83287 0.0
C296 C 0.62871 0.34807 0.65182 0.0
N297 N 0.63802 0.47912 0.61238 0.0
C298 C 0.61585 0.40383 0.67894 0.0
C299 C 0.64637 0.35909 0.60466 0.0
C300 C 0.62079 0.46963 0.65838 0.0
C301 C 0.65081 0.42568 0.58536 0.0
C302 C 0.56992 0.33443 0.81276 0.0
C303 C 0.56001 0.40153 0.80655 0.0
C304 C 0.57215 0.30615 0.86671 0.0
C305 C 0.55282 0.43944 0.85448 0.0
C306 C 0.56467 0.34564 0.91357 0.0
N307 N 0.55527 0.41094 0.90655 0.0
C308 C 0.53375 0.35541 0.65273 0.0
C309 C 0.56625 0.32583 0.57874 0.0
C310 C 0.51742 0.39607 0.61609 0.0
N311 N 0.55774 0.3219 0.63355 0.0
C312 C 0.5506 0.36591 0.54071 0.0
C313 C 0.52606 0.40184 0.5596 0.0
H314 H 0.52759 0.35133 0.69661 0.0
H315 H 0.58556 0.29891 0.56489 0.0
C316 C 0.67266 0.3458 0.76135 0.0
N317 N 0.64723 0.34098 0.7906 0.0
C318 C 0.69584 0.38369 0.78248 0.0
C319 C 0.66678 0.4104 0.8646 0.0
C320 C 0.64395 0.37201 0.84161 0.0
C321 C 0.69294 0.41643 0.8345 0.0
H322 H 0.6752 0.31893 0.72188 0.0
H323 H 0.62398 0.36662 0.86495 0.0
O324 O 0.57499 0.1725 0.68811 0.0
O325 O 0.62433 0.18476 0.77541 0.0
O326 O 0.62395 0.28285 0.6707 0.0
O327 O 0.5764 0.29611 0.76611 0.0
H328 H 0.57091 0.04539 0.72503 0.0
H329 H 0.58273 0.17056 0.57763 0.0
H330 H 0.57489 0.94228 0.6646 0.0
H331 H 0.58649 0.06527 0.51973 0.0
H332 H 0.6672 0.19306 0.94807 0.0
H333 H 0.67941 0.18272 0.74156 0.0
H334 H 0.62331 0.18902 0.887 0.0
H335 H 0.72229 0.18588 0.80516 0.0
H336 H 0.68141 0.98652 0.69864 0.0
H337 H 0.69919 0.12912 0.56421 0.0
H338 H 0.49584 0.1432 0.89008 0.0
H339 H 0.56919 0.00609 0.90492 0.0
H340 H 0.60229 0.39652 0.71552 0.0
H341 H 0.65651 0.31664 0.58306 0.0
H342 H 0.61094 0.51315 0.67901 0.0
H343 H 0.6644 0.43487 0.54887 0.0
H344 H 0.55776 0.42413 0.76516 0.0
H345 H 0.57998 0.25469 0.87254 0.0
H346 H 0.5452 0.49146 0.85026 0.0
H347 H 0.56645 0.32443 0.95554 0.0
H348 H 0.49851 0.42336 0.63164 0.0
H349 H 0.55772 0.36963 0.49728 0.0
H350 H 0.71593 0.3872 0.75859 0.0
H351 H 0.6641 0.43517 0.90508 0.0
C352 C 0.27749 0.05069 0.35128 0.0
C353 C 0.27994 0.98339 0.37228 0.0
C354 C 0.23046 0.99021 0.41083 0.0
C355 C 0.2263 0.05201 0.38083 0.0
N356 N 0.24521 0.14045 0.31968 0.0
N357 N 0.25995 0.88832 0.42358 0.0
C358 C 0.24981 0.08295 0.3512 0.0
C359 C 0.2569 0.95329 0.40344 0.0
N360 N 0.30162 0.08309 0.33058 0.0
N361 N 0.20905 0.96717 0.44611 0.0
H362 H 0.27959 0.86156 0.42106 0.0
H363 H 0.24292 0.85998 0.44071 0.0
H364 H 0.18951 0.99357 0.45203 0.0
H365 H 0.2115 0.92541 0.47282 0.0
H366 H 0.30196 0.13454 0.31956 0.0
H367 H 0.32213 0.06004 0.32949 0.0
H368 H 0.26047 0.16015 0.29154 0.0
H369 H 0.22538 0.16631 0.31838 0.0
C370 C 0.23858 0.45298 0.10199 0.0
C371 C 0.21548 0.48202 0.13367 0.0
C372 C 0.24518 0.58216 0.15529 0.0
C373 C 0.26869 0.55246 0.12485 0.0
N374 N 0.28614 0.46891 0.05861 0.0
N375 N 0.19348 0.5804 0.17694 0.0
C376 C 0.26477 0.49084 0.09446 0.0
C377 C 0.21768 0.54904 0.15543 0.0
N378 N 0.23585 0.38811 0.08141 0.0
N379 N 0.24962 0.63938 0.18726 0.0
H380 H 0.17311 0.55674 0.17822 0.0
H381 H 0.19292 0.63167 0.18852 0.0
H382 H 0.26931 0.66585 0.18838 0.0
H383 H 0.23442 0.65819 0.21593 0.0
H384 H 0.25299 0.36054 0.06386 0.0
H385 H 0.21641 0.36059 0.08407 0.0
H386 H 0.28379 0.42742 0.03157 0.0
H387 H 0.3055 0.49596 0.05257 0.0
C388 C 0.74678 0.05811 0.65355 0.0
C389 C 0.72345 0.02465 0.62536 0.0
C390 C 0.75409 0.92409 0.60946 0.0
C391 C 0.77707 0.95704 0.63883 0.0
N392 N 0.79841 0.05998 0.67576 0.0
N393 N 0.7063 0.93384 0.56574 0.0
C394 C 0.77444 0.02588 0.65619 0.0
C395 C 0.72765 0.96017 0.59955 0.0
N396 N 0.74201 0.11856 0.68097 0.0
N397 N 0.7572 0.85747 0.59336 0.0
H398 H 0.68674 0.9595 0.5581 0.0
H399 H 0.70877 0.88971 0.54177 0.0
H400 H 0.77678 0.83085 0.59786 0.0
H401 H 0.74022 0.82766 0.5778 0.0
H402 H 0.75701 0.14084 0.70831 0.0
H403 H 0.72224 0.14474 0.67957 0.0
H404 H 0.79868 0.11221 0.68389 0.0
H405 H 0.81891 0.03717 0.67902 0.0
C406 C 0.76668 0.46274 0.89638 0.0
C407 C 0.77091 0.52663 0.86961 0.0
C408 C 0.72018 0.52623 0.83712 0.0
C409 C 0.71757 0.45788 0.85575 0.0
N410 N 0.73736 0.35975 0.90344 0.0
N411 N 0.75259 0.61878 0.81178 0.0
C412 C 0.74042 0.42601 0.88631 0.0
C413 C 0.74774 0.55895 0.84006 0.0
N414 N 0.78782 0.4376 0.93129 0.0
N415 N 0.6963 0.55943 0.81614 0.0
H416 H 0.77226 0.64532 0.81345 0.0
H417 H 0.73778 0.64011 0.78355 0.0
H418 H 0.6759 0.53625 0.81263 0.0
H419 H 0.69598 0.61142 0.80699 0.0
H420 H 0.78525 0.39409 0.95596 0.0
H421 H 0.80725 0.46371 0.93905 0.0
H422 H 0.7543 0.33061 0.91998 0.0
H423 H 0.71792 0.33265 0.89879 0.0
C424 C 0.01873 0.9576 0.05833 0.0
C425 C 0.01699 0.02972 0.05383 0.0
C426 C 0.98235 0.01899 0.97567 0.0
C427 C 0.98604 0.94706 0.97711 0.0
N428 N 0.01091 0.84792 0.01341 0.0
N429 N 0.00093 0.12991 0.00354 0.0
C430 C 0.00514 0.91631 0.01668 0.0
C431 C -0.00017 0.06074 0.01116 0.0
N432 N 0.03258 0.92862 0.10344 0.0
N433 N 0.96149 0.04717 0.94165 0.0
H434 H 0.01333 0.16222 0.02901 0.0
H435 H 0.99147 0.15479 0.96934 0.0
H436 H 0.9484 0.01828 0.91472 0.0
H437 H 0.95551 0.09842 0.94329 0.0
H438 H 0.03185 0.87661 0.11242 0.0
H439 H 0.04287 0.95722 0.13477 0.0
H440 H 0.02704 0.82381 0.03701 0.0
H441 H 0.0012 0.81594 0.98366 0.0
C442 C 0.49058 0.98962 0.93203 0.0
C443 C 0.51494 0.03041 0.94702 0.0
C444 C 0.51193 0.98902 0.04434 0.0
C445 C 0.48596 0.95338 0.0305 0.0
N446 N 0.44733 0.93036 0.964 0.0
N447 N 0.54561 0.07932 0.01917 0.0
C448 C 0.47434 0.95666 0.97509 0.0
C449 C 0.52473 0.03311 0.00374 0.0
N450 N 0.48356 0.98042 0.87653 0.0
N451 N 0.52491 0.97897 0.09556 0.0
H452 H 0.5553 0.11299 0.99071 0.0
H453 H 0.5514 0.0886 0.06093 0.0
H454 H 0.51632 0.94656 0.12625 0.0
H455 H 0.54547 -0.00209 0.10573 0.0
H456 H 0.46803 0.94532 0.86286 0.0
H457 H 0.49505 0.00334 0.84363 0.0
H458 H 0.43641 0.93788 0.926 0.0
H459 H 0.43462 0.90624 0.9945 0.0
C460 C 0.96918 0.52974 0.49531 0.0
C461 C 0.97922 0.52857 0.55191 0.0
C462 C 0.01979 0.45438 0.52452 0.0
C463 C 0.00802 0.44984 0.46928 0.0
N464 N 0.96882 0.47352 0.40432 0.0
N465 N 0.01088 0.48045 0.6228 0.0
C466 C 0.98193 0.48486 0.45524 0.0
C467 C 0.00366 0.48827 0.56724 0.0
N468 N 0.94813 0.5753 0.47945 0.0
N469 N 0.04684 0.4284 0.53573 0.0
H470 H -0.00052 0.50411 0.65546 0.0
H471 H 0.02649 0.44578 0.63685 0.0
H472 H 0.05944 0.40347 0.50551 0.0
H473 H 0.05788 0.43687 0.57346 0.0
H474 H 0.94214 0.58349 0.43765 0.0
H475 H 0.93845 0.60949 0.50751 0.0
H476 H 0.94819 0.49197 0.39411 0.0
H477 H 0.9774 0.44053 0.37403 0.0
C478 C 0.49641 0.56107 0.48769 0.0
C479 C 0.47919 0.53124 0.44455 0.0
C480 C 0.49066 0.41687 0.48004 0.0
C481 C 0.50974 0.44647 0.52025 0.0
N482 N 0.53467 0.54536 0.55707 0.0
N483 N 0.46348 0.43148 0.39322 0.0
C484 C 0.51372 0.51828 0.52264 0.0
C485 C 0.4773 0.45926 0.43889 0.0
N486 N 0.49553 0.63009 0.49631 0.0
N487 N 0.48467 0.34851 0.48225 0.0
H488 H 0.45338 0.46094 0.36221 0.0
H489 H 0.4641 0.37968 0.38345 0.0
H490 H 0.4942 0.31575 0.51163 0.0
H491 H 0.46852 0.32518 0.45813 0.0
H492 H 0.50504 0.65406 0.53092 0.0
H493 H 0.4833 0.66317 0.47123 0.0
H494 H 0.54083 0.59652 0.55613 0.0
H495 H 0.54767 0.51567 0.58356 0.0
loop_
_geom_bond_atom_site_label_1
_geom_bond_atom_site_label_2
_geom_bond_distance
_geom_bond_site_symmetry_2
_ccdc_geom_bond_type
Li0 N17 1.990 . S
Li0 O60 1.956 . S
Li0 O61 1.970 . S
Li0 O62 1.961 . S
Li1 N25 1.990 . S
Li1 O60 1.970 . S
Li1 O61 1.956 . S
Li1 O63 1.961 . S
Li2 N47 1.990 . S
Li2 O60 1.961 . S
Li2 O62 1.956 . S
Li2 O63 1.970 . S
Li3 N53 1.990 . S
Li3 O61 1.961 . S
Li3 O62 1.970 . S
Li3 O63 1.956 . S
C4 C6 1.348 . S
C4 C7 1.356 . S
C4 O60 1.325 . S
N5 C8 1.314 . S
N5 C9 1.279 . S
C6 C4 1.348 . S
C6 C8 1.353 . S
C6 H64 0.929 . S
C7 C4 1.356 . S
C7 C9 1.358 . S
C7 H65 0.930 . S
C8 N5 1.314 . S
C8 C6 1.353 . S
C8 H66 0.930 . S
C9 N5 1.279 . S
C9 C7 1.358 . S
C9 H67 0.930 . S
C10 C13 1.348 . S
C10 C14 1.356 . S
C10 O61 1.325 . S
C11 N12 1.279 . S
C11 C14 1.358 . S
C11 H68 0.930 . S
N12 C11 1.279 . S
N12 C15 1.314 . S
C13 C10 1.348 . S
C13 C15 1.353 . S
C13 H69 0.929 . S
C14 C10 1.356 . S
C14 C11 1.358 . S
C14 H70 0.930 . S
C15 N12 1.314 . S
C15 C13 1.353 . S
C15 H71 0.930 . S
C16 N17 1.314 . S
C16 C21 1.353 . S
C16 H22 0.930 . S
N17 Li0 1.990 . S
N17 C16 1.314 . S
N17 C19 1.279 . S
C18 C19 1.358 . S
C18 C20 1.356 . S
C18 H72 0.930 . S
C19 N17 1.279 . S
C19 C18 1.358 . S
C19 H23 0.930 . S
C20 C18 1.356 . S
C20 C21 1.348 . S
C21 C16 1.353 . S
C21 C20 1.348 . S
C21 H73 0.929 . S
H22 C16 0.930 . S
H23 C19 0.930 . S
C24 N25 1.314 . S
C24 C26 1.353 1_545 S
C24 H30 0.930 . S
N25 Li1 1.990 . S
N25 C24 1.314 . S
N25 C28 1.279 . S
C26 C24 1.353 1_565 S
C26 C29 1.347 . S
C26 H74 0.929 . S
C27 C28 1.358 . S
C27 C29 1.357 1_545 S
C27 H75 0.930 . S
C28 N25 1.279 . S
C28 C27 1.358 . S
C28 H31 0.930 . S
C29 C26 1.347 . S
C29 C27 1.357 1_565 S
H30 C24 0.930 . S
H31 C28 0.930 . S
C32 C34 1.348 . S
C32 C35 1.356 . S
C32 O62 1.325 . S
N33 C36 1.314 . S
N33 C37 1.279 . S
C34 C32 1.348 . S
C34 C36 1.353 . S
C34 H76 0.929 . S
C35 C32 1.356 . S
C35 C37 1.358 . S
C35 H77 0.930 . S
C36 N33 1.314 . S
C36 C34 1.353 . S
C36 H78 0.930 . S
C37 N33 1.279 . S
C37 C35 1.358 . S
C37 H79 0.930 . S
C38 C39 1.348 . S
C38 C40 1.356 . S
C38 O63 1.325 . S
C39 C38 1.348 . S
C39 C41 1.353 . S
C39 H80 0.929 . S
C40 C38 1.356 . S
C40 C42 1.358 . S
C40 H81 0.930 . S
C41 C39 1.353 . S
C41 N43 1.314 . S
C41 H82 0.930 . S
C42 C40 1.358 . S
C42 N43 1.279 . S
C42 H83 0.930 . S
N43 C41 1.314 . S
N43 C42 1.279 . S
C44 C46 1.353 . S
C44 N47 1.314 . S
C44 H50 0.930 . S
C45 N47 1.279 . S
C45 C48 1.358 . S
C45 H51 0.930 . S
C46 C44 1.353 . S
C46 C49 1.348 . S
C46 H84 0.929 . S
N47 Li2 1.990 . S
N47 C44 1.314 . S
N47 C45 1.279 . S
C48 C45 1.358 . S
C48 C49 1.356 . S
C48 H85 0.930 . S
C49 C46 1.348 . S
C49 C48 1.356 . S
H50 C44 0.930 . S
H51 C45 0.930 . S
C52 N53 1.314 . S
C52 C54 1.353 . S
C52 H58 0.930 . S
N53 Li3 1.990 . S
N53 C52 1.314 . S
N53 C56 1.279 . S
C54 C52 1.353 . S
C54 C57 1.348 . S
C54 H86 0.929 . S
C55 C56 1.358 . S
C55 C57 1.356 . S
C55 H87 0.930 . S
C56 N53 1.279 . S
C56 C55 1.358 . S
C56 H59 0.930 . S
C57 C54 1.348 . S
C57 C55 1.356 . S
H58 C52 0.930 . S
H59 C56 0.930 . S
O60 Li0 1.956 . S
O60 Li1 1.970 . S
O60 Li2 1.961 . S
O60 C4 1.325 . S
O61 Li0 1.970 . S
O61 Li1 1.956 . S
O61 Li3 1.961 . S
O61 C10 1.325 . S
O62 Li0 1.961 . S
O62 Li2 1.956 . S
O62 Li3 1.970 . S
O62 C32 1.325 . S
O63 Li1 1.961 . S
O63 Li2 1.970 . S
O63 Li3 1.956 . S
O63 C38 1.325 . S
H64 C6 0.929 . S
H65 C7 0.930 . S
H66 C8 0.930 . S
H67 C9 0.930 . S
H68 C11 0.930 . S
H69 C13 0.929 . S
H70 C14 0.930 . S
H71 C15 0.930 . S
H72 C18 0.930 . S
H73 C21 0.929 . S
H74 C26 0.929 . S
H75 C27 0.930 . S
H76 C34 0.929 . S
H77 C35 0.930 . S
H78 C36 0.930 . S
H79 C37 0.930 . S
H80 C39 0.929 . S
H81 C40 0.930 . S
H82 C41 0.930 . S
H83 C42 0.930 . S
H84 C46 0.929 . S
H85 C48 0.930 . S
H86 C54 0.929 . S
H87 C55 0.930 . S
Li88 N105 1.990 . S
Li88 O148 1.956 . S
Li88 O149 1.970 . S
Li88 O150 1.961 . S
Li89 N113 1.990 . S
Li89 O148 1.970 . S
Li89 O149 1.956 . S
Li89 O151 1.961 . S
Li90 N135 1.990 . S
Li90 O148 1.961 . S
Li90 O150 1.956 . S
Li90 O151 1.970 . S
Li91 N141 1.990 . S
Li91 O149 1.961 . S
Li91 O150 1.970 . S
Li91 O151 1.956 . S
C92 C94 1.348 . S
C92 C95 1.356 . S
C92 O148 1.325 . S
N93 C96 1.314 . S
N93 C97 1.279 . S
C94 C92 1.348 . S
C94 C96 1.353 . S
C94 H152 0.929 . S
C95 C92 1.356 . S
C95 C97 1.358 . S
C95 H153 0.930 . S
C96 N93 1.314 . S
C96 C94 1.353 . S
C96 H154 0.930 . S
C97 N93 1.279 . S
C97 C95 1.358 . S
C97 H155 0.930 . S
C98 C101 1.348 . S
C98 C102 1.356 . S
C98 O149 1.325 . S
C99 N100 1.279 . S
C99 C102 1.358 . S
C99 H156 0.930 . S
N100 C99 1.279 . S
N100 C103 1.314 . S
C101 C98 1.348 . S
C101 C103 1.353 . S
C101 H157 0.929 . S
C102 C98 1.356 . S
C102 C99 1.358 . S
C102 H158 0.930 . S
C103 N100 1.314 . S
C103 C101 1.353 . S
C103 H159 0.930 . S
C104 N105 1.314 . S
C104 C109 1.353 . S
C104 H110 0.930 . S
N105 Li88 1.990 . S
N105 C104 1.314 . S
N105 C107 1.279 . S
C106 C107 1.358 . S
C106 C108 1.356 . S
C106 H160 0.930 . S
C107 N105 1.279 . S
C107 C106 1.358 . S
C107 H111 0.930 . S
C108 C106 1.356 . S
C108 C109 1.348 . S
C109 C104 1.353 . S
C109 C108 1.348 . S
C109 H161 0.929 . S
H110 C104 0.930 . S
H111 C107 0.930 . S
C112 N113 1.314 . S
C112 C114 1.353 . S
C112 H118 0.930 . S
N113 Li89 1.990 . S
N113 C112 1.314 . S
N113 C116 1.279 . S
C114 C112 1.353 . S
C114 C117 1.348 . S
C114 H162 0.929 . S
C115 C116 1.358 . S
C115 C117 1.356 . S
C115 H163 0.930 . S
C116 N113 1.279 . S
C116 C115 1.358 . S
C116 H119 0.930 . S
C117 C114 1.348 . S
C117 C115 1.356 . S
H118 C112 0.930 . S
H119 C116 0.930 . S
C120 C122 1.348 . S
C120 C123 1.356 . S
C120 O150 1.325 . S
N121 C124 1.314 . S
N121 C125 1.279 . S
C122 C120 1.348 . S
C122 C124 1.353 . S
C122 H164 0.929 . S
C123 C120 1.356 . S
C123 C125 1.358 . S
C123 H165 0.930 . S
C124 N121 1.314 . S
C124 C122 1.353 . S
C124 H166 0.930 . S
C125 N121 1.279 . S
C125 C123 1.358 . S
C125 H167 0.930 . S
C126 C127 1.348 . S
C126 C128 1.356 . S
C126 O151 1.325 . S
C127 C126 1.348 . S
C127 C129 1.353 . S
C127 H168 0.929 . S
C128 C126 1.356 . S
C128 C130 1.358 . S
C128 H169 0.930 . S
C129 C127 1.353 . S
C129 N131 1.314 . S
C129 H170 0.930 . S
C130 C128 1.358 . S
C130 N131 1.279 . S
C130 H171 0.930 . S
N131 C129 1.314 . S
N131 C130 1.279 . S
C132 C134 1.353 . S
C132 N135 1.314 . S
C132 H138 0.930 . S
C133 N135 1.279 . S
C133 C136 1.358 . S
C133 H139 0.930 . S
C134 C132 1.353 . S
C134 C137 1.348 . S
C134 H172 0.929 . S
N135 Li90 1.990 . S
N135 C132 1.314 . S
N135 C133 1.279 . S
C136 C133 1.358 . S
C136 C137 1.356 . S
C136 H173 0.930 . S
C137 C134 1.348 . S
C137 C136 1.356 . S
H138 C132 0.930 . S
H139 C133 0.930 . S
C140 N141 1.314 . S
C140 C142 1.353 1_565 S
C140 H146 0.930 . S
N141 Li91 1.990 . S
N141 C140 1.314 . S
N141 C144 1.279 . S
C142 C140 1.353 1_545 S
C142 C145 1.347 . S
C142 H174 0.929 . S
C143 C144 1.358 . S
C143 C145 1.357 1_565 S
C143 H175 0.930 . S
C144 N141 1.279 . S
C144 C143 1.358 . S
C144 H147 0.930 . S
C145 C142 1.347 . S
C145 C143 1.357 1_545 S
H146 C140 0.930 . S
H147 C144 0.930 . S
O148 Li88 1.956 . S
O148 Li89 1.970 . S
O148 Li90 1.961 . S
O148 C92 1.325 . S
O149 Li88 1.970 . S
O149 Li89 1.956 . S
O149 Li91 1.961 . S
O149 C98 1.325 . S
O150 Li88 1.961 . S
O150 Li90 1.956 . S
O150 Li91 1.970 . S
O150 C120 1.325 . S
O151 Li89 1.961 . S
O151 Li90 1.970 . S
O151 Li91 1.956 . S
O151 C126 1.325 . S
H152 C94 0.929 . S
H153 C95 0.930 . S
H154 C96 0.930 . S
H155 C97 0.930 . S
H156 C99 0.930 . S
H157 C101 0.929 . S
H158 C102 0.930 . S
H159 C103 0.930 . S
H160 C106 0.930 . S
H161 C109 0.929 . S
H162 C114 0.929 . S
H163 C115 0.930 . S
H164 C122 0.929 . S
H165 C123 0.930 . S
H166 C124 0.930 . S
H167 C125 0.930 . S
H168 C127 0.929 . S
H169 C128 0.930 . S
H170 C129 0.930 . S
H171 C130 0.930 . S
H172 C134 0.929 . S
H173 C136 0.930 . S
H174 C142 0.929 . S
H175 C143 0.930 . S
Li176 N193 1.990 . S
Li176 O236 1.956 . S
Li176 O237 1.970 . S
Li176 O238 1.961 . S
Li177 N201 1.990 . S
Li177 O236 1.970 . S
Li177 O237 1.956 . S
Li177 O239 1.961 . S
Li178 N223 1.990 . S
Li178 O236 1.961 . S
Li178 O238 1.956 . S
Li178 O239 1.970 . S
Li179 N229 1.990 . S
Li179 O237 1.961 . S
Li179 O238 1.970 . S
Li179 O239 1.956 . S
C180 C182 1.348 . S
C180 C183 1.356 . S
C180 O236 1.325 . S
N181 C184 1.314 . S
N181 C185 1.279 . S
C182 C180 1.348 . S
C182 C184 1.353 . S
C182 H240 0.929 . S
C183 C180 1.356 . S
C183 C185 1.358 . S
C183 H241 0.930 . S
C184 N181 1.314 . S
C184 C182 1.353 . S
C184 H242 0.930 . S
C185 N181 1.279 . S
C185 C183 1.358 . S
C185 H243 0.930 . S
C186 C189 1.348 . S
C186 C190 1.356 . S
C186 O237 1.325 . S
C187 N188 1.279 . S
C187 C190 1.358 . S
C187 H244 0.930 . S
N188 C187 1.279 . S
N188 C191 1.314 . S
C189 C186 1.348 . S
C189 C191 1.353 . S
C189 H245 0.929 . S
C190 C186 1.356 . S
C190 C187 1.358 . S
C190 H246 0.930 . S
C191 N188 1.314 . S
C191 C189 1.353 . S
C191 H247 0.930 . S
C192 N193 1.314 . S
C192 C197 1.353 . S
C192 H198 0.930 . S
N193 Li176 1.990 . S
N193 C192 1.314 . S
N193 C195 1.279 . S
C194 C195 1.358 1_545 S
C194 C196 1.356 . S
C194 H248 0.930 . S
C195 N193 1.279 . S
C195 C194 1.358 1_565 S
C195 H199 0.930 . S
C196 C194 1.356 . S
C196 C197 1.345 1_545 S
C197 C192 1.353 . S
C197 C196 1.345 1_565 S
C197 H249 0.929 . S
H198 C192 0.930 . S
H199 C195 0.930 . S
C200 N201 1.314 . S
C200 C202 1.353 . S
C200 H206 0.930 . S
N201 Li177 1.990 . S
N201 C200 1.314 . S
N201 C204 1.279 . S
C202 C200 1.353 . S
C202 C205 1.348 . S
C202 H250 0.929 . S
C203 C204 1.358 . S
C203 C205 1.356 . S
C203 H251 0.930 . S
C204 N201 1.279 . S
C204 C203 1.358 . S
C204 H207 0.930 . S
C205 C202 1.348 . S
C205 C203 1.356 . S
H206 C200 0.930 . S
H207 C204 0.930 . S
C208 C210 1.348 . S
C208 C211 1.356 . S
C208 O238 1.325 . S
N209 C212 1.314 . S
N209 C213 1.279 . S
C210 C208 1.348 . S
C210 C212 1.353 . S
C210 H252 0.929 . S
C211 C208 1.356 . S
C211 C213 1.358 . S
C211 H253 0.930 . S
C212 N209 1.314 . S
C212 C210 1.353 . S
C212 H254 0.930 . S
C213 N209 1.279 . S
C213 C211 1.358 . S
C213 H255 0.930 . S
C214 C215 1.348 . S
C214 C216 1.356 . S
C214 O239 1.325 . S
C215 C214 1.348 . S
C215 C217 1.353 . S
C215 H256 0.929 . S
C216 C214 1.356 . S
C216 C218 1.358 . S
C216 H257 0.930 . S
C217 C215 1.353 . S
C217 N219 1.314 . S
C217 H258 0.930 . S
C218 C216 1.358 . S
C218 N219 1.279 . S
C218 H259 0.930 . S
N219 C217 1.314 . S
N219 C218 1.279 . S
C220 C222 1.353 . S
C220 N223 1.314 . S
C220 H226 0.930 . S
C221 N223 1.279 . S
C221 C224 1.358 . S
C221 H227 0.930 . S
C222 C220 1.353 . S
C222 C225 1.348 . S
C222 H260 0.929 . S
N223 Li178 1.990 . S
N223 C220 1.314 . S
N223 C221 1.279 . S
C224 C221 1.358 . S
C224 C225 1.356 . S
C224 H261 0.930 . S
C225 C222 1.348 . S
C225 C224 1.356 . S
H226 C220 0.930 . S
H227 C221 0.930 . S
C228 N229 1.314 . S
C228 C230 1.353 . S
C228 H234 0.930 . S
N229 Li179 1.990 . S
N229 C228 1.314 . S
N229 C232 1.279 . S
C230 C228 1.353 . S
C230 C233 1.348 . S
C230 H262 0.929 . S
C231 C232 1.358 . S
C231 C233 1.356 . S
C231 H263 0.930 . S
C232 N229 1.279 . S
C232 C231 1.358 . S
C232 H235 0.930 . S
C233 C230 1.348 . S
C233 C231 1.356 . S
H234 C228 0.930 . S
H235 C232 0.930 . S
O236 Li176 1.956 . S
O236 Li177 1.970 . S
O236 Li178 1.961 . S
O236 C180 1.325 . S
O237 Li176 1.970 . S
O237 Li177 1.956 . S
O237 Li179 1.961 . S
O237 C186 1.325 . S
O238 Li176 1.961 . S
O238 Li178 1.956 . S
O238 Li179 1.970 . S
O238 C208 1.325 . S
O239 Li177 1.961 . S
O239 Li178 1.970 . S
O239 Li179 1.956 . S
O239 C214 1.325 . S
H240 C182 0.929 . S
H241 C183 0.930 . S
H242 C184 0.930 . S
H243 C185 0.930 . S
H244 C187 0.930 . S
H245 C189 0.929 . S
H246 C190 0.930 . S
H247 C191 0.930 . S
H248 C194 0.930 . S
H249 C197 0.929 . S
H250 C202 0.929 . S
H251 C203 0.930 . S
H252 C210 0.929 . S
H253 C211 0.930 . S
H254 C212 0.930 . S
H255 C213 0.930 . S
H256 C215 0.929 . S
H257 C216 0.930 . S
H258 C217 0.930 . S
H259 C218 0.930 . S
H260 C222 0.929 . S
H261 C224 0.930 . S
H262 C230 0.929 . S
H263 C231 0.930 . S
Li264 N281 1.990 . S
Li264 O324 1.956 . S
Li264 O325 1.970 . S
Li264 O326 1.961 . S
Li265 N289 1.990 . S
Li265 O324 1.970 . S
Li265 O325 1.956 . S
Li265 O327 1.961 . S
Li266 N311 1.990 . S
Li266 O324 1.961 . S
Li266 O326 1.956 . S
Li266 O327 1.970 . S
Li267 N317 1.990 . S
Li267 O325 1.961 . S
Li267 O326 1.970 . S
Li267 O327 1.956 . S
C268 C270 1.348 . S
C268 C271 1.356 . S
C268 O324 1.325 . S
N269 C272 1.314 . S
N269 C273 1.279 . S
C270 C268 1.348 . S
C270 C272 1.353 . S
C270 H328 0.929 . S
C271 C268 1.356 . S
C271 C273 1.358 . S
C271 H329 0.930 . S
C272 N269 1.314 . S
C272 C270 1.353 . S
C272 H330 0.930 . S
C273 N269 1.279 . S
C273 C271 1.358 . S
C273 H331 0.930 . S
C274 C277 1.348 . S
C274 C278 1.356 . S
C274 O325 1.325 . S
C275 N276 1.279 . S
C275 C278 1.358 . S
C275 H332 0.930 . S
N276 C275 1.279 . S
N276 C279 1.314 . S
C277 C274 1.348 . S
C277 C279 1.353 . S
C277 H333 0.929 . S
C278 C274 1.356 . S
C278 C275 1.358 . S
C278 H334 0.930 . S
C279 N276 1.314 . S
C279 C277 1.353 . S
C279 H335 0.930 . S
C280 N281 1.314 . S
C280 C285 1.353 . S
C280 H286 0.930 . S
N281 Li264 1.990 . S
N281 C280 1.314 . S
N281 C283 1.279 . S
C282 C283 1.358 1_565 S
C282 C284 1.356 . S
C282 H336 0.930 . S
C283 N281 1.279 . S
C283 C282 1.358 1_545 S
C283 H287 0.930 . S
C284 C282 1.356 . S
C284 C285 1.345 1_565 S
C285 C280 1.353 . S
C285 C284 1.345 1_545 S
C285 H337 0.929 . S
H286 C280 0.930 . S
H287 C283 0.930 . S
C288 N289 1.314 . S
C288 C290 1.353 . S
C288 H294 0.930 . S
N289 Li265 1.990 . S
N289 C288 1.314 . S
N289 C292 1.279 . S
C290 C288 1.353 . S
C290 C293 1.348 . S
C290 H338 0.929 . S
C291 C292 1.358 . S
C291 C293 1.356 . S
C291 H339 0.930 . S
C292 N289 1.279 . S
C292 C291 1.358 . S
C292 H295 0.930 . S
C293 C290 1.348 . S
C293 C291 1.356 . S
H294 C288 0.930 . S
H295 C292 0.930 . S
C296 C298 1.348 . S
C296 C299 1.356 . S
C296 O326 1.325 . S
N297 C300 1.314 . S
N297 C301 1.279 . S
C298 C296 1.348 . S
C298 C300 1.353 . S
C298 H340 0.929 . S
C299 C296 1.356 . S
C299 C301 1.358 . S
C299 H341 0.930 . S
C300 N297 1.314 . S
C300 C298 1.353 . S
C300 H342 0.930 . S
C301 N297 1.279 . S
C301 C299 1.358 . S
C301 H343 0.930 . S
C302 C303 1.348 . S
C302 C304 1.356 . S
C302 O327 1.325 . S
C303 C302 1.348 . S
C303 C305 1.353 . S
C303 H344 0.929 . S
C304 C302 1.356 . S
C304 C306 1.358 . S
C304 H345 0.930 . S
C305 C303 1.353 . S
C305 N307 1.314 . S
C305 H346 0.930 . S
C306 C304 1.358 . S
C306 N307 1.279 . S
C306 H347 0.930 . S
N307 C305 1.314 . S
N307 C306 1.279 . S
C308 C310 1.353 . S
C308 N311 1.314 . S
C308 H314 0.930 . S
C309 N311 1.279 . S
C309 C312 1.358 . S
C309 H315 0.930 . S
C310 C308 1.353 . S
C310 C313 1.348 . S
C310 H348 0.929 . S
N311 Li266 1.990 . S
N311 C308 1.314 . S
N311 C309 1.279 . S
C312 C309 1.358 . S
C312 C313 1.356 . S
C312 H349 0.930 . S
C313 C310 1.348 . S
C313 C312 1.356 . S
H314 C308 0.930 . S
H315 C309 0.930 . S
C316 N317 1.314 . S
C316 C318 1.353 . S
C316 H322 0.930 . S
N317 Li267 1.990 . S
N317 C316 1.314 . S
N317 C320 1.279 . S
C318 C316 1.353 . S
C318 C321 1.348 . S
C318 H350 0.929 . S
C319 C320 1.358 . S
C319 C321 1.356 . S
C319 H351 0.930 . S
C320 N317 1.279 . S
C320 C319 1.358 . S
C320 H323 0.930 . S
C321 C318 1.348 . S
C321 C319 1.356 . S
H322 C316 0.930 . S
H323 C320 0.930 . S
O324 Li264 1.956 . S
O324 Li265 1.970 . S
O324 Li266 1.961 . S
O324 C268 1.325 . S
O325 Li264 1.970 . S
O325 Li265 1.956 . S
O325 Li267 1.961 . S
O325 C274 1.325 . S
O326 Li264 1.961 . S
O326 Li266 1.956 . S
O326 Li267 1.970 . S
O326 C296 1.325 . S
O327 Li265 1.961 . S
O327 Li266 1.970 . S
O327 Li267 1.956 . S
O327 C302 1.325 . S
H328 C270 0.929 . S
H329 C271 0.930 . S
H330 C272 0.930 . S
H331 C273 0.930 . S
H332 C275 0.930 . S
H333 C277 0.929 . S
H334 C278 0.930 . S
H335 C279 0.930 . S
H336 C282 0.930 . S
H337 C285 0.929 . S
H338 C290 0.929 . S
H339 C291 0.930 . S
H340 C298 0.929 . S
H341 C299 0.930 . S
H342 C300 0.930 . S
H343 C301 0.930 . S
H344 C303 0.929 . S
H345 C304 0.930 . S
H346 C305 0.930 . S
H347 C306 0.930 . S
H348 C310 0.929 . S
H349 C312 0.930 . S
H350 C318 0.929 . S
H351 C319 0.930 . S
C352 C353 1.363 . S
C352 C358 1.379 . S
C352 N360 1.356 . S
C353 C352 1.363 . S
C353 C359 1.363 1_545 S
C354 C355 1.363 . S
C354 C359 1.379 . S
C354 N361 1.356 . S
C355 C354 1.363 . S
C355 C358 1.363 1_565 S
N356 C358 1.356 . S
N356 H368 0.984 . S
N356 H369 0.985 . S
N357 C359 1.356 . S
N357 H362 0.984 . S
N357 H363 0.985 . S
C358 C352 1.379 . S
C358 C355 1.363 1_545 S
C358 N356 1.356 . S
C359 C353 1.363 1_565 S
C359 C354 1.379 . S
C359 N357 1.356 . S
N360 C352 1.356 . S
N360 H366 0.984 . S
N360 H367 0.984 . S
N361 C354 1.356 . S
N361 H364 0.984 . S
N361 H365 0.985 . S
H362 N357 0.984 . S
H363 N357 0.985 . S
H364 N361 0.984 . S
H365 N361 0.985 . S
H366 N360 0.984 . S
H367 N360 0.984 . S
H368 N356 0.984 . S
H369 N356 0.985 . S
C370 C371 1.363 . S
C370 C376 1.379 . S
C370 N378 1.356 . S
C371 C370 1.363 . S
C371 C377 1.363 . S
C372 C373 1.363 . S
C372 C377 1.379 . S
C372 N379 1.356 . S
C373 C372 1.363 . S
C373 C376 1.363 . S
N374 C376 1.356 . S
N374 H386 0.984 . S
N374 H387 0.985 . S
N375 C377 1.356 . S
N375 H380 0.984 . S
N375 H381 0.985 . S
C376 C370 1.379 . S
C376 C373 1.363 . S
C376 N374 1.356 . S
C377 C371 1.363 . S
C377 C372 1.379 . S
C377 N375 1.356 . S
N378 C370 1.356 . S
N378 H384 0.984 . S
N378 H385 0.984 . S
N379 C372 1.356 . S
N379 H382 0.984 . S
N379 H383 0.985 . S
H380 N375 0.984 . S
H381 N375 0.985 . S
H382 N379 0.984 . S
H383 N379 0.985 . S
H384 N378 0.984 . S
H385 N378 0.984 . S
H386 N374 0.984 . S
H387 N374 0.985 . S
C388 C389 1.363 1_545 S
C388 C394 1.379 . S
C388 N396 1.356 . S
C389 C388 1.363 1_565 S
C389 C395 1.363 . S
C390 C391 1.363 1_565 S
C390 C395 1.379 . S
C390 N397 1.356 . S
C391 C390 1.363 1_545 S
C391 C394 1.363 . S
N392 C394 1.356 . S
N392 H404 0.984 . S
N392 H405 0.985 . S
N393 C395 1.356 . S
N393 H398 0.984 . S
N393 H399 0.985 . S
C394 C388 1.379 . S
C394 C391 1.363 . S
C394 N392 1.356 . S
C395 C389 1.363 . S
C395 C390 1.379 . S
C395 N393 1.356 . S
N396 C388 1.356 . S
N396 H402 0.984 . S
N396 H403 0.984 . S
N397 C390 1.356 . S
N397 H400 0.984 . S
N397 H401 0.985 . S
H398 N393 0.984 . S
H399 N393 0.985 . S
H400 N397 0.984 . S
H401 N397 0.985 . S
H402 N396 0.984 . S
H403 N396 0.984 . S
H404 N392 0.984 . S
H405 N392 0.985 . S
C406 C407 1.363 . S
C406 C412 1.379 . S
C406 N414 1.356 . S
C407 C406 1.363 . S
C407 C413 1.363 . S
C408 C409 1.363 . S
C408 C413 1.379 . S
C408 N415 1.356 . S
C409 C408 1.363 . S
C409 C412 1.363 . S
N410 C412 1.356 . S
N410 H422 0.984 . S
N410 H423 0.985 . S
N411 C413 1.356 . S
N411 H416 0.984 . S
N411 H417 0.985 . S
C412 C406 1.379 . S
C412 C409 1.363 . S
C412 N410 1.356 . S
C413 C407 1.363 . S
C413 C408 1.379 . S
C413 N411 1.356 . S
N414 C406 1.356 . S
N414 H420 0.984 . S
N414 H421 0.984 . S
N415 C408 1.356 . S
N415 H418 0.984 . S
N415 H419 0.985 . S
H416 N411 0.984 . S
H417 N411 0.985 . S
H418 N415 0.984 . S
H419 N415 0.985 . S
H420 N414 0.984 . S
H421 N414 0.984 . S
H422 N410 0.984 . S
H423 N410 0.985 . S
C424 C425 1.363 . S
C424 C430 1.379 1_545 S
C424 N432 1.356 . S
C425 C424 1.363 . S
C425 C431 1.363 1_454 S
C426 C427 1.363 . S
C426 C431 1.379 1_565 S
C426 N433 1.356 . S
C427 C426 1.363 . S
C427 C430 1.363 1_656 S
N428 C430 1.356 . S
N428 H440 0.984 . S
N428 H441 0.985 . S
N429 C431 1.356 . S
N429 H434 0.984 . S
N429 H435 0.985 . S
C430 C424 1.379 1_565 S
C430 C427 1.363 1_454 S
C430 N428 1.356 . S
C431 C425 1.363 1_656 S
C431 C426 1.379 1_545 S
C431 N429 1.356 . S
N432 C424 1.356 . S
N432 H438 0.984 . S
N432 H439 0.984 . S
N433 C426 1.356 . S
N433 H436 0.984 . S
N433 H437 0.985 . S
H434 N429 0.984 . S
H435 N429 0.985 . S
H436 N433 0.984 . S
H437 N433 0.985 . S
H438 N432 0.984 . S
H439 N432 0.984 . S
H440 N428 0.984 . S
H441 N428 0.985 . S
C442 C443 1.363 . S
C442 C448 1.379 1_545 S
C442 N450 1.356 . S
C443 C442 1.363 . S
C443 C449 1.363 1_556 S
C444 C445 1.363 . S
C444 C449 1.379 1_565 S
C444 N451 1.356 . S
C445 C444 1.363 . S
C445 C448 1.363 1_554 S
N446 C448 1.356 . S
N446 H458 0.984 . S
N446 H459 0.985 . S
N447 C449 1.356 . S
N447 H452 0.984 . S
N447 H453 0.985 . S
C448 C442 1.379 1_565 S
C448 C445 1.363 1_556 S
C448 N446 1.356 . S
C449 C443 1.363 1_554 S
C449 C444 1.379 1_545 S
C449 N447 1.356 . S
N450 C442 1.356 . S
N450 H456 0.984 . S
N450 H457 0.984 . S
N451 C444 1.356 . S
N451 H454 0.984 . S
N451 H455 0.985 . S
H452 N447 0.984 . S
H453 N447 0.985 . S
H454 N451 0.984 . S
H455 N451 0.985 . S
H456 N450 0.984 . S
H457 N450 0.984 . S
H458 N446 0.984 . S
H459 N446 0.985 . S
C460 C461 1.363 . S
C460 C466 1.379 . S
C460 N468 1.356 . S
C461 C460 1.363 . S
C461 C467 1.363 1_655 S
C462 C463 1.363 . S
C462 C467 1.379 . S
C462 N469 1.356 . S
C463 C462 1.363 . S
C463 C466 1.363 1_455 S
N464 C466 1.356 . S
N464 H476 0.984 . S
N464 H477 0.985 . S
N465 C467 1.356 . S
N465 H470 0.984 . S
N465 H471 0.985 . S
C466 C460 1.379 . S
C466 C463 1.363 1_655 S
C466 N464 1.356 . S
C467 C461 1.363 1_455 S
C467 C462 1.379 . S
C467 N465 1.356 . S
N468 C460 1.356 . S
N468 H474 0.984 . S
N468 H475 0.984 . S
N469 C462 1.356 . S
N469 H472 0.984 . S
N469 H473 0.985 . S
H470 N465 0.984 . S
H471 N465 0.985 . S
H472 N469 0.984 . S
H473 N469 0.985 . S
H474 N468 0.984 . S
H475 N468 0.984 . S
H476 N464 0.984 . S
H477 N464 0.985 . S
C478 C479 1.363 . S
C478 C484 1.379 . S
C478 N486 1.356 . S
C479 C478 1.363 . S
C479 C485 1.363 . S
C480 C481 1.363 . S
C480 C485 1.379 . S
C480 N487 1.356 . S
C481 C480 1.363 . S
C481 C484 1.363 . S
N482 C484 1.356 . S
N482 H494 0.984 . S
N482 H495 0.985 . S
N483 C485 1.356 . S
N483 H488 0.984 . S
N483 H489 0.985 . S
C484 C478 1.379 . S
C484 C481 1.363 . S
C484 N482 1.356 . S
C485 C479 1.363 . S
C485 C480 1.379 . S
C485 N483 1.356 . S
N486 C478 1.356 . S
N486 H492 0.984 . S
N486 H493 0.984 . S
N487 C480 1.356 . S
N487 H490 0.984 . S
N487 H491 0.985 . S
H488 N483 0.984 . S
H489 N483 0.985 . S
H490 N487 0.984 . S
H491 N487 0.985 . S
H492 N486 0.984 . S
H493 N486 0.984 . S
H494 N482 0.984 . S
H495 N482 0.985 . S
C353 C145 1.243 . S
C355 C29 1.243 . S
C371 C20 1.243 . S
C373 C137 1.243 . S
C389 C284 1.256 . S
C391 C196 1.256 . S
C407 C233 1.255 . S
C409 C321 1.255 . S
C425 C49 2.050 . S
C427 C205 2.044 . S
C443 C293 2.044 . S
C445 C108 2.050 . S
C461 C225 2.044 . S
C463 C57 2.050 . S
C479 C117 2.050 . S
C481 C313 2.044 . S
