# Generated by pormake.
# Topology vby, (6)-cn, num edge types: 1
# Building blocks:
#     Node 0, Type 0, BuildingBlock: BETFEN_clean_sbu_0, # of connection points: 6
#     Node 1, Type 0, BuildingBlock: BETFEN_clean_sbu_0, # of connection points: 6
#     Node 2, Type 0, BuildingBlock: BETFEN_clean_sbu_0, # of connection points: 6
#     Node 3, Type 0, BuildingBlock: BETFEN_clean_sbu_0, # of connection points: 6
#     Node 4, Type 0, BuildingBlock: BETFEN_clean_sbu_0, # of connection points: 6
#     Node 5, Type 0, BuildingBlock: BETFEN_clean_sbu_0, # of connection points: 6
#     Node 6, Type 0, BuildingBlock: BETFEN_clean_sbu_0, # of connection points: 6
#     Node 7, Type 0, BuildingBlock: BETFEN_clean_sbu_0, # of connection points: 6
#     Edge 8, Type (0, 0), BuildingBlock: UVAHIK_clean_linker_0, # of connection points: 2
#     Edge 9, Type (0, 0), BuildingBlock: UVAHIK_clean_linker_0, # of connection points: 2
#     Edge 10, Type (0, 0), BuildingBlock: UVAHIK_clean_linker_0, # of connection points: 2
#     Edge 11, Type (0, 0), BuildingBlock: UVAHIK_clean_linker_0, # of connection points: 2
#     Edge 12, Type (0, 0), BuildingBlock: UVAHIK_clean_linker_0, # of connection points: 2
#     Edge 13, Type (0, 0), BuildingBlock: UVAHIK_clean_linker_0, # of connection points: 2
#     Edge 14, Type (0, 0), BuildingBlock: UVAHIK_clean_linker_0, # of connection points: 2
#     Edge 15, Type (0, 0), BuildingBlock: UVAHIK_clean_linker_0, # of connection points: 2
#     Edge 16, Type (0, 0), BuildingBlock: UVAHIK_clean_linker_0, # of connection points: 2
#     Edge 17, Type (0, 0), BuildingBlock: UVAHIK_clean_linker_0, # of connection points: 2
#     Edge 18, Type (0, 0), BuildingBlock: UVAHIK_clean_linker_0, # of connection points: 2
#     Edge 19, Type (0, 0), BuildingBlock: UVAHIK_clean_linker_0, # of connection points: 2
#     Edge 20, Type (0, 0), BuildingBlock: UVAHIK_clean_linker_0, # of connection points: 2
#     Edge 21, Type (0, 0), BuildingBlock: UVAHIK_clean_linker_0, # of connection points: 2
#     Edge 22, Type (0, 0), BuildingBlock: UVAHIK_clean_linker_0, # of connection points: 2
#     Edge 23, Type (0, 0), BuildingBlock: UVAHIK_clean_linker_0, # of connection points: 2
#     Edge 24, Type (0, 0), BuildingBlock: UVAHIK_clean_linker_0, # of connection points: 2
#     Edge 25, Type (0, 0), BuildingBlock: UVAHIK_clean_linker_0, # of connection points: 2
#     Edge 26, Type (0, 0), BuildingBlock: UVAHIK_clean_linker_0, # of connection points: 2
#     Edge 27, Type (0, 0), BuildingBlock: UVAHIK_clean_linker_0, # of connection points: 2
#     Edge 28, Type (0, 0), BuildingBlock: UVAHIK_clean_linker_0, # of connection points: 2
#     Edge 29, Type (0, 0), BuildingBlock: UVAHIK_clean_linker_0, # of connection points: 2
#     Edge 30, Type (0, 0), BuildingBlock: UVAHIK_clean_linker_0, # of connection points: 2
#     Edge 31, Type (0, 0), BuildingBlock: UVAHIK_clean_linker_0, # of connection points: 2
# Relax obj value: 0.195
# Max RMSD: 0.210
# Mean RMSD: 0.210
data_MOF--net-vby--node1-BETFEN_clean_sbu_0--edge1-UVAHIK_clean_linker_0
_symmetry_space_group_name_H-M    P1
_symmetry_Int_Tables_number       1
_symmetry_cell_setting            triclinic
loop_
_symmetry_equiv_pos_as_xyz
'x, y, z'
_cell_length_a     20.23198
_cell_length_b     121.43206
_cell_length_c     38.357789
_cell_angle_alpha  90.04748
_cell_angle_beta   94.48959
_cell_angle_gamma 90.312562
loop_
_atom_site_label
_atom_site_type_symbol
_atom_site_fract_x
_atom_site_fract_y
_atom_site_fract_z
_atom_type_partial_charge
Pr0 Pr 0.05739 0.37179 0.00928 0.0
Pr1 Pr 0.05816 0.39795 0.02529 0.0
C2 C 0.0631 0.35173 0.97917 0.0
C3 C 0.09309 0.3407 0.985 0.0
C4 C 0.10187 0.33601 0.01853 0.0
C5 C 0.12758 0.32535 0.02309 0.0
C6 C 0.14534 0.31913 0.99423 0.0
C7 C 0.13724 0.32395 0.96078 0.0
C8 C 0.1114 0.33458 0.95626 0.0
C9 C 0.06599 0.37541 0.0822 0.0
C10 C 0.20138 0.38552 0.02369 0.0
C11 C 0.03769 0.41887 0.04593 0.0
C12 C 0.04856 0.43083 0.04052 0.0
C13 C 0.03792 0.43571 0.00733 0.0
C14 C 0.03937 0.44721 0.00367 0.0
C15 C 0.05127 0.4541 0.03312 0.0
C16 C 0.06434 0.44913 0.06609 0.0
C17 C 0.06288 0.43765 0.06971 0.0
C18 C 0.06804 0.39194 0.95528 0.0
C19 C 0.91591 0.38381 0.01991 0.0
O20 O 0.10281 0.35988 0.97224 0.0
O21 O 1.01668 0.35461 0.99933 0.0
O22 O 0.06368 0.38254 0.05846 0.0
O23 O 0.06624 0.36569 0.06817 0.0
O24 O 0.1706 0.3939 0.03733 0.0
O25 O 0.16878 0.37719 0.0079 0.0
O26 O 0.99879 0.41361 0.02256 0.0
O27 O 0.08664 0.41286 0.05972 0.0
O28 O 0.03134 0.38727 0.97604 0.0
O29 O 0.09812 0.4004 0.97011 0.0
O30 O 0.94419 0.37587 0.00283 0.0
O31 O 0.95093 0.3919 0.03551 0.0
H32 H 0.08848 0.34057 0.0412 0.0
H33 H 0.13391 0.322 0.04928 0.0
H34 H 0.14946 0.3194 0.93787 0.0
H35 H 0.10489 0.338 0.93013 0.0
H36 H 1.02644 0.43067 0.98432 0.0
H37 H 0.02859 0.4507 0.9779 0.0
H38 H 0.07491 0.45412 0.08928 0.0
H39 H 0.071 0.4341 0.09559 0.0
Pr40 Pr 0.98974 0.62925 0.0068 0.0
Pr41 Pr 0.99068 0.65535 0.0217 0.0
C42 C 1.01022 0.60827 0.98671 0.0
C43 C 0.9996 0.59631 0.99208 0.0
C44 C 1.01061 0.5914 0.02522 0.0
C45 C 1.00939 0.5799 0.02879 0.0
C46 C 0.99738 0.57303 0.99931 0.0
C47 C 0.984 0.57802 0.96639 0.0
C48 C 0.9852 0.5895 0.96286 0.0
C49 C 0.98047 0.63541 0.07677 0.0
C50 C 0.13214 0.64334 0.0116 0.0
C51 C 0.98446 0.67553 0.05102 0.0
C52 C 0.95408 0.68653 0.04492 0.0
C53 C 0.94743 0.69132 0.01148 0.0
C54 C 0.92133 0.70195 0.00675 0.0
C55 C 0.901 0.70804 0.03532 0.0
C56 C 0.90694 0.70312 0.06865 0.0
C57 C 0.93318 0.69251 0.07336 0.0
C58 C 0.98124 0.65156 0.94877 0.0
C59 C 0.84658 0.64164 0.00799 0.0
O60 O 0.0489 0.61356 0.01009 0.0
O61 O 0.96132 0.61426 0.97275 0.0
O62 O 1.01706 0.64006 0.05588 0.0
O63 O 0.94986 0.62698 0.06203 0.0
O64 O 0.10387 0.65134 0.02835 0.0
O65 O 0.09707 0.6352 0.99633 0.0
O66 O 0.9451 0.66738 0.05835 0.0
O67 O 0.03086 0.67261 0.03091 0.0
O68 O 0.98403 0.64446 0.97266 0.0
O69 O 0.98165 0.66131 0.96268 0.0
O70 O 0.87732 0.63321 0.99463 0.0
O71 O 0.87926 0.65001 0.02347 0.0
H72 H 1.02219 0.59643 0.04825 0.0
H73 H 1.02041 0.57639 0.05452 0.0
H74 H 0.97335 0.57304 0.94317 0.0
H75 H 0.97683 0.59306 0.93701 0.0
H76 H 0.9628 0.68687 0.98902 0.0
H77 H 0.91671 0.70538 0.98063 0.0
H78 H 0.89269 0.70755 0.09136 0.0
H79 H 0.938 0.68902 0.09941 0.0
Pr80 Pr 0.06326 0.62747 0.52346 0.0
Pr81 Pr 0.06264 0.65354 0.50788 0.0
C82 C 0.0436 0.60649 0.54414 0.0
C83 C 0.05778 0.59463 0.53969 0.0
C84 C 0.06671 0.59004 0.50677 0.0
C85 C 0.07242 0.57859 0.50285 0.0
C86 C 0.06913 0.57147 0.53173 0.0
C87 C 0.06199 0.5762 0.56478 0.0
C88 C 0.05642 0.58762 0.56866 0.0
C89 C 0.07323 0.63354 0.45346 0.0
C90 C 0.92079 0.64128 0.51748 0.0
C91 C 0.06847 0.67357 0.47766 0.0
C92 C 0.09757 0.68472 0.48345 0.0
C93 C 0.10113 0.68982 0.51647 0.0
C94 C 0.12581 0.70061 0.5208 0.0
C95 C 0.14757 0.70655 0.49223 0.0
C96 C 0.14491 0.7013 0.45937 0.0
C97 C 0.12017 0.69054 0.45507 0.0
C98 C 0.06958 0.6501 0.58085 0.0
C99 C 0.20662 0.64006 0.5222 0.0
O100 O 1.007 0.61137 0.51913 0.0
O101 O 0.08986 0.61288 0.5592 0.0
O102 O 0.03651 0.63813 0.47428 0.0
O103 O 0.10375 0.62518 0.46823 0.0
O104 O 0.94956 0.64929 0.50079 0.0
O105 O 0.95536 0.63319 0.53293 0.0
O106 O 0.10892 0.66555 0.47125 0.0
O107 O 1.02142 0.67058 0.49736 0.0
O108 O 0.0679 0.64284 0.55735 0.0
O109 O 0.06969 0.65977 0.56647 0.0
O110 O 0.17565 0.63159 0.53547 0.0
O111 O 0.17424 0.6484 0.50675 0.0
H112 H 0.0679 0.59528 0.48397 0.0
H113 H 0.07892 0.57531 0.47709 0.0
H114 H 0.05825 0.57105 0.58758 0.0
H115 H 0.04894 0.59096 0.59425 0.0
H116 H 0.08409 0.68553 0.53885 0.0
H117 H 0.12639 0.70437 0.54642 0.0
H118 H 0.16225 0.70549 0.43687 0.0
H119 H 0.11813 0.68678 0.42938 0.0
Pr120 Pr 0.98601 0.37247 0.52278 0.0
Pr121 Pr 0.97765 0.39669 0.50714 0.0
C122 C 0.97604 0.35151 0.54625 0.0
C123 C 0.94143 0.3408 0.5399 0.0
C124 C 0.93191 0.33617 0.50625 0.0
C125 C 0.90446 0.32558 0.50145 0.0
C126 C 0.88574 0.31938 0.53016 0.0
C127 C 0.89399 0.32418 0.56368 0.0
C128 C 0.92155 0.33474 0.56844 0.0
C129 C 0.99319 0.3771 0.4516 0.0
C130 C 0.8379 0.38373 0.50662 0.0
C131 C 0.98313 0.41778 0.48419 0.0
C132 C 1.00468 0.42933 0.49101 0.0
C133 C 0.99947 0.43441 0.52363 0.0
C134 C 1.0117 0.44575 0.52787 0.0
C135 C 0.02897 0.45227 0.49953 0.0
C136 C 0.03642 0.44703 0.46731 0.0
C137 C 1.02441 0.43571 0.46315 0.0
C138 C 0.97626 0.39176 0.57878 0.0
C139 C 0.1259 0.38524 0.52065 0.0
O140 O 0.94271 0.35969 0.5583 0.0
O141 O 1.01775 0.35464 0.52384 0.0
O142 O 0.95382 0.38182 0.47079 0.0
O143 O 1.02612 0.3694 0.46844 0.0
O144 O 0.86832 0.39161 0.49044 0.0
O145 O 0.87238 0.37622 0.5248 0.0
O146 O 1.02718 0.41039 0.47746 0.0
O147 O 0.93578 0.41386 0.50192 0.0
O148 O 1.01367 0.38732 0.55816 0.0
O149 O 0.94064 0.39935 0.56304 0.0
O150 O 0.09629 0.37741 0.53762 0.0
O151 O 0.09067 0.39277 0.50281 0.0
H152 H 0.94661 0.34066 0.48369 0.0
H153 H 0.898 0.32225 0.4752 0.0
H154 H 0.88102 0.31964 0.58649 0.0
H155 H 0.92879 0.33808 0.59467 0.0
H156 H 0.98403 0.42969 0.54556 0.0
H157 H 1.00507 0.44949 0.553 0.0
H158 H 0.05074 0.45171 0.44507 0.0
H159 H 0.02857 0.432 0.43772 0.0
Pr160 Pr 0.56906 0.87296 0.00949 0.0
Pr161 Pr 0.57002 0.89914 0.02502 0.0
C162 C 0.5749 0.85283 0.97983 0.0
C163 C 0.60495 0.84181 0.98598 0.0
C164 C 0.61144 0.83704 0.01945 0.0
C165 C 0.63729 0.82639 0.02426 0.0
C166 C 0.65754 0.82027 0.99574 0.0
C167 C 0.65173 0.82518 0.96237 0.0
C168 C 0.62572 0.8358 0.95759 0.0
C169 C 0.57722 0.87665 0.08235 0.0
C170 C 0.71316 0.88671 0.02335 0.0
C171 C 0.55038 0.92011 0.04558 0.0
C172 C 0.56414 0.93199 0.04082 0.0
C173 C 0.57302 0.9365 0.00778 0.0
C174 C 0.57821 0.94796 0.00352 0.0
C175 C 0.57445 0.95516 0.03219 0.0
C176 C 0.56736 0.95052 0.06536 0.0
C177 C 0.56231 0.9391 0.06957 0.0
C178 C 0.5796 0.89297 0.95509 0.0
C179 C 0.42749 0.88506 0.01951 0.0
O180 O 0.6146 0.86096 0.97274 0.0
O181 O 0.52831 0.85576 0.99981 0.0
O182 O 0.57513 0.88379 0.05859 0.0
O183 O 0.57761 0.86692 0.06837 0.0
O184 O 0.68252 0.89515 0.03671 0.0
O185 O 0.68047 0.87832 0.00794 0.0
O186 O 0.51337 0.9151 0.02084 0.0
O187 O 0.59708 0.91386 0.06047 0.0
O188 O 0.54294 0.88837 0.97601 0.0
O189 O 0.61007 0.90143 0.96974 0.0
O190 O 0.4559 0.87705 0.00282 0.0
O191 O 0.46236 0.89321 0.03483 0.0
H192 H 0.59615 0.84151 0.04188 0.0
H193 H 0.64181 0.82298 0.0504 0.0
H194 H 0.66591 0.82071 0.9397 0.0
H195 H 0.62101 0.83927 0.93151 0.0
H196 H 0.57454 0.93119 0.98515 0.0
H197 H 0.58468 0.95117 0.97768 0.0
H198 H 0.56325 0.95573 0.088 0.0
H199 H 0.55483 0.93582 0.09524 0.0
Pr200 Pr 0.47832 0.12962 0.00635 0.0
Pr201 Pr 0.48776 0.15385 0.02223 0.0
C202 C 0.48316 0.10858 0.98292 0.0
C203 C 0.50465 0.09706 0.98963 0.0
C204 C 0.49964 0.09198 0.02225 0.0
C205 C 0.51205 0.08066 0.02645 0.0
C206 C 0.52932 0.07418 0.99808 0.0
C207 C 0.53647 0.07942 0.96584 0.0
C208 C 0.52426 0.09071 0.96171 0.0
C209 C 0.47814 0.13443 0.07824 0.0
C210 C 0.62705 0.14119 0.01986 0.0
C211 C 0.47838 0.17482 0.04571 0.0
C212 C 0.44328 0.18544 0.03964 0.0
C213 C 0.43321 0.19009 0.00609 0.0
C214 C 0.40525 0.2006 0.00155 0.0
C215 C 0.38657 0.20672 0.03042 0.0
C216 C 0.39537 0.20189 0.06385 0.0
C217 C 0.42344 0.19141 0.06836 0.0
C218 C 0.49469 0.14918 0.95106 0.0
C219 C 0.33911 0.14249 0.00634 0.0
O220 O 0.52732 0.11603 0.97628 0.0
O221 O 0.43594 0.11241 0.00075 0.0
O222 O 0.51505 0.139 0.05751 0.0
O223 O 0.44234 0.12679 0.06241 0.0
O224 O 0.59789 0.149 0.03692 0.0
O225 O 0.59142 0.13364 0.00196 0.0
O226 O 0.44581 0.16657 0.05823 0.0
O227 O 0.5192 0.17176 0.02283 0.0
O228 O 0.45489 0.14448 0.97024 0.0
O229 O 0.52819 0.15688 0.96792 0.0
O230 O 0.36896 0.1346 0.99013 0.0
O231 O 0.37408 0.15004 0.02442 0.0
H232 H 0.48429 0.09667 0.04422 0.0
H233 H 0.50562 0.07693 0.05159 0.0
H234 H 0.55078 0.07477 0.94357 0.0
H235 H 0.52827 0.09442 0.93628 0.0
H236 H 0.44783 0.18568 0.9834 0.0
H237 H 0.39838 0.20394 0.97536 0.0
H238 H 0.38244 0.20636 0.08678 0.0
H239 H 0.43109 0.18805 0.09452 0.0
Pr240 Pr 0.56539 0.12715 0.525 0.0
Pr241 Pr 0.56537 0.15329 0.50894 0.0
C242 C 0.54578 0.10625 0.54628 0.0
C243 C 0.55991 0.09437 0.54237 0.0
C244 C 0.56069 0.08934 0.50936 0.0
C245 C 0.56568 0.07785 0.50647 0.0
C246 C 0.56961 0.07113 0.53651 0.0
C247 C 0.57116 0.07627 0.5695 0.0
C248 C 0.56634 0.08773 0.57235 0.0
C249 C 0.57543 0.13309 0.45497 0.0
C250 C 0.42327 0.14108 0.51879 0.0
C251 C 0.57107 0.17331 0.47865 0.0
C252 C 0.60051 0.18444 0.48441 0.0
C253 C 0.60903 0.18917 0.51793 0.0
C254 C 0.63413 0.19993 0.52242 0.0
C255 C 0.65152 0.20618 0.49353 0.0
C256 C 0.64373 0.20131 0.4601 0.0
C257 C 0.6185 0.19058 0.45564 0.0
C258 C 0.57309 0.14979 0.58188 0.0
C259 C 0.70896 0.13969 0.52291 0.0
O260 O 0.50914 0.11106 0.52113 0.0
O261 O 0.59182 0.1127 0.56132 0.0
O262 O 0.53893 0.13778 0.4757 0.0
O263 O 0.60548 0.12469 0.46986 0.0
O264 O 0.45221 0.14906 0.50208 0.0
O265 O 0.45762 0.13297 0.5343 0.0
O266 O 0.61126 0.16526 0.47208 0.0
O267 O 0.52437 0.17035 0.49862 0.0
O268 O 0.57078 0.1426 0.55823 0.0
O269 O 0.57391 0.15949 0.56773 0.0
O270 O 0.67803 0.13127 0.53647 0.0
O271 O 0.67659 0.14802 0.5074 0.0
H272 H 0.55555 0.09426 0.48576 0.0
H273 H 0.56391 0.0742 0.48064 0.0
H274 H 0.57532 0.07141 0.59322 0.0
H275 H 0.56568 0.0914 0.59808 0.0
H276 H 0.59588 0.18459 0.54062 0.0
H277 H 0.64026 0.20332 0.5486 0.0
H278 H 0.6557 0.20587 0.43717 0.0
H279 H 0.61217 0.18712 0.42953 0.0
Pr280 Pr 0.48992 0.87243 0.52231 0.0
Pr281 Pr 0.48168 0.89662 0.50689 0.0
C282 C 0.47964 0.85146 0.54561 0.0
C283 C 0.44448 0.84077 0.53954 0.0
C284 C 0.43958 0.8356 0.50659 0.0
C285 C 0.41176 0.82502 0.50239 0.0
C286 C 0.38823 0.81934 0.53102 0.0
C287 C 0.39168 0.8247 0.56371 0.0
C288 C 0.41953 0.83526 0.56789 0.0
C289 C 0.49723 0.87711 0.45115 0.0
C290 C 0.34185 0.88369 0.50624 0.0
C291 C 0.48729 0.91771 0.48398 0.0
C292 C 0.50877 0.9292 0.49156 0.0
C293 C 0.51172 0.93359 0.52555 0.0
C294 C 0.52454 0.94485 0.53125 0.0
C295 C 0.53447 0.95198 0.50308 0.0
C296 C 0.53325 0.94743 0.46924 0.0
C297 C 0.5206 0.93619 0.46361 0.0
C298 C 0.48064 0.89168 0.57858 0.0
C299 C 0.62985 0.88514 0.5201 0.0
O300 O 0.44712 0.85967 0.55806 0.0
O301 O 0.52093 0.85456 0.52294 0.0
O302 O 0.4578 0.88181 0.47036 0.0
O303 O 0.53017 0.86941 0.46795 0.0
O304 O 0.37231 0.89158 0.49014 0.0
O305 O 0.3763 0.87616 0.52437 0.0
O306 O 0.53184 0.91036 0.47776 0.0
O307 O 0.43942 0.91376 0.50126 0.0
O308 O 0.51789 0.88723 0.55789 0.0
O309 O 0.44492 0.89927 0.56285 0.0
O310 O 0.60026 0.87733 0.53711 0.0
O311 O 0.59459 0.89267 0.50228 0.0
H312 H 0.45853 0.83962 0.4842 0.0
H313 H 0.41061 0.82117 0.47689 0.0
H314 H 0.37308 0.82071 0.58624 0.0
H315 H 0.42275 0.83904 0.59356 0.0
H316 H 0.50268 0.92836 0.54758 0.0
H317 H 0.5261 0.94799 0.55774 0.0
H318 H 0.53963 0.95261 0.44678 0.0
H319 H 0.51791 0.93301 0.43713 0.0
C320 C 0.30819 0.37661 0.01037 0.0
C321 C 0.2751 0.38542 0.02521 0.0
C322 C 0.37735 0.37647 0.01109 0.0
C323 C 0.52538 0.3946 0.02093 0.0
H324 H 0.61889 0.36701 0.03623 0.0
C325 C 0.81167 0.39246 0.03837 0.0
C326 C 0.84271 0.3838 0.0216 0.0
C327 C 0.74278 0.39263 0.0396 0.0
C328 C 0.59353 0.37477 0.03154 0.0
H329 H 0.28954 0.40097 0.0527 0.0
H330 H 0.41049 0.40065 0.05427 0.0
H331 H 0.4987 0.36744 0.03771 0.0
H332 H 0.82505 0.3685 0.99311 0.0
H333 H 0.70475 0.36883 0.99515 0.0
H334 H 0.62032 0.40192 0.01477 0.0
C335 C 0.38263 0.39391 0.04167 0.0
C336 C 0.52452 0.37502 0.03241 0.0
C337 C 0.31322 0.39406 0.04095 0.0
C338 C 0.80296 0.37528 0.00629 0.0
C339 C 0.73394 0.37544 0.00762 0.0
C340 C 0.59444 0.39435 0.02013 0.0
C341 C 0.4156 0.38511 0.02671 0.0
C342 C 0.48943 0.38493 0.02694 0.0
C343 C 0.70294 0.38415 0.02419 0.0
C344 C 0.62941 0.38442 0.0253 0.0
H345 H 0.28072 0.36981 0.99788 0.0
H346 H 0.40078 0.36964 0.99881 0.0
H347 H 0.50005 0.40234 0.01606 0.0
H348 H 0.84053 0.39916 0.05055 0.0
H349 H 0.72077 0.39938 0.05299 0.0
C350 C 0.23638 0.63464 0.99334 0.0
C351 C 0.20533 0.64333 0.00992 0.0
C352 C 0.30528 0.63446 0.99212 0.0
C353 C 0.45444 0.65235 0.99989 0.0
H354 H 0.54805 0.62481 0.01592 0.0
C355 C 0.73977 0.65056 0.02123 0.0
C356 C 0.77288 0.64174 0.00651 0.0
C357 C 0.67061 0.6507 0.02051 0.0
C358 C 0.52268 0.63254 0.0109 0.0
H359 H 0.22294 0.65869 0.0381 0.0
H360 H 0.34322 0.65835 0.03611 0.0
H361 H 0.42777 0.62523 0.01713 0.0
H362 H 0.7585 0.62615 0.97923 0.0
H363 H 0.63756 0.62646 0.97765 0.0
H364 H 0.54925 0.65968 0.99366 0.0
C365 C 0.31406 0.65171 0.02375 0.0
C366 C 0.45362 0.63279 0.01165 0.0
C367 C 0.24504 0.65188 0.02506 0.0
C368 C 0.7348 0.63307 0.99089 0.0
C369 C 0.66539 0.63321 0.99016 0.0
C370 C 0.52346 0.65211 0.99908 0.0
C371 C 0.34508 0.64298 0.00737 0.0
C372 C 0.41861 0.64271 0.00628 0.0
C373 C 0.6324 0.64204 0.005 0.0
C374 C 0.55858 0.64221 0.00475 0.0
H375 H 0.20753 0.62791 0.9813 0.0
H376 H 0.32732 0.62769 0.97887 0.0
H377 H 0.42904 0.6601 0.99505 0.0
H378 H 0.76722 0.65738 0.03363 0.0
H379 H 0.64714 0.65754 0.03269 0.0
C380 C 0.81579 0.6326 0.53552 0.0
C381 C 0.84759 0.64127 0.51901 0.0
C382 C 0.74688 0.63248 0.5368 0.0
C383 C 0.59969 0.65054 0.52954 0.0
H384 H 0.503 0.62312 0.51336 0.0
C385 C 0.31396 0.649 0.50899 0.0
C386 C 0.2803 0.64018 0.52368 0.0
C387 C 0.38312 0.64911 0.50954 0.0
C388 C 0.52925 0.63082 0.51842 0.0
H389 H 0.83134 0.65665 0.49095 0.0
H390 H 0.7111 0.6564 0.49305 0.0
H391 H 0.62326 0.6234 0.51186 0.0
H392 H 0.29366 0.62459 0.5508 0.0
H393 H 0.41452 0.62485 0.5521 0.0
H394 H 0.50577 0.65797 0.5361 0.0
C395 C 0.73966 0.64974 0.50531 0.0
C396 C 0.59828 0.63098 0.5175 0.0
C397 C 0.80865 0.64985 0.50394 0.0
C398 C 0.3178 0.6315 0.53916 0.0
C399 C 0.38716 0.63162 0.53972 0.0
C400 C 0.53069 0.65038 0.53051 0.0
C401 C 0.70788 0.64104 0.52169 0.0
C402 C 0.63439 0.64086 0.52293 0.0
C403 C 0.42072 0.64042 0.52484 0.0
C404 C 0.49448 0.64052 0.52482 0.0
H405 H 0.84404 0.62586 0.54751 0.0
H406 H 0.72423 0.62573 0.55003 0.0
H407 H 0.62597 0.65825 0.53442 0.0
H408 H 0.28693 0.65583 0.49671 0.0
H409 H 0.40706 0.65594 0.49736 0.0
C410 C 0.72634 0.3918 0.48822 0.0
C411 C 0.76434 0.38353 0.50566 0.0
C412 C 0.65729 0.39195 0.48918 0.0
C413 C 0.51309 0.37441 0.5077 0.0
H414 H 0.42704 0.4024 0.52076 0.0
C415 C 0.23788 0.37715 0.53786 0.0
C416 C 0.19933 0.38539 0.52061 0.0
C417 C 0.30678 0.377 0.53626 0.0
C418 C 0.45013 0.39453 0.51673 0.0
H419 H 0.75907 0.3688 0.53737 0.0
H420 H 0.6391 0.3691 0.53921 0.0
H421 H 0.54655 0.40186 0.51638 0.0
H422 H 0.20347 0.40005 0.48848 0.0
H423 H 0.32328 0.39974 0.48555 0.0
H424 H 0.41668 0.36707 0.50812 0.0
C425 C 0.66248 0.37543 0.52447 0.0
C426 C 0.51874 0.39422 0.51416 0.0
C427 C 0.73147 0.37529 0.52354 0.0
C428 C 0.23152 0.39358 0.50217 0.0
C429 C 0.30039 0.39344 0.50062 0.0
C430 C 0.44449 0.37472 0.51028 0.0
C431 C 0.62448 0.38381 0.50755 0.0
C432 C 0.55117 0.38415 0.50965 0.0
C433 C 0.3389 0.3851 0.51741 0.0
C434 C 0.41209 0.38478 0.51488 0.0
H435 H 0.74994 0.39827 0.47414 0.0
H436 H 0.62956 0.39843 0.47542 0.0
H437 H 0.53616 0.36653 0.5037 0.0
H438 H 0.21484 0.37072 0.55236 0.0
H439 H 0.33494 0.37055 0.54994 0.0
C440 C 0.81988 0.87774 0.0102 0.0
C441 C 0.78684 0.8866 0.02475 0.0
C442 C 0.88903 0.8776 0.01083 0.0
C443 C 0.03686 0.89578 0.01976 0.0
H444 H 0.13076 0.86828 0.03627 0.0
C445 C 0.32309 0.89377 0.03745 0.0
C446 C 0.35428 0.88506 0.02107 0.0
C447 C 0.25419 0.89394 0.03861 0.0
C448 C 0.10528 0.87601 0.03124 0.0
H449 H 0.80131 0.90226 0.05164 0.0
H450 H 0.92223 0.90195 0.05307 0.0
H451 H 1.01055 0.86869 0.03776 0.0
H452 H 0.33691 0.86964 0.99317 0.0
H453 H 0.21659 0.86996 0.99508 0.0
H454 H 0.13168 0.90309 0.01325 0.0
C455 C 0.89435 0.89516 0.04075 0.0
C456 C 0.03627 0.87625 0.03211 0.0
C457 C 0.82497 0.89531 0.04012 0.0
C458 C 0.3147 0.87647 0.00605 0.0
C459 C 0.24567 0.87663 0.00731 0.0
C460 C 0.1059 0.89554 0.01895 0.0
C461 C 0.92728 0.8863 0.02608 0.0
C462 C 1.00107 0.88613 0.02622 0.0
C463 C 0.21452 0.88538 0.02351 0.0
C464 C 0.141 0.88564 0.02457 0.0
H465 H 0.7924 0.8709 0.99801 0.0
H466 H 0.91245 0.87073 0.99879 0.0
H467 H 1.01141 0.9035 0.01456 0.0
H468 H 0.35182 0.90053 0.04939 0.0
H469 H 0.23204 0.90073 0.05172 0.0
C470 C 0.22691 0.13437 0.98833 0.0
C471 C 0.2656 0.14269 0.00552 0.0
C472 C 0.15786 0.13426 0.98941 0.0
C473 C 1.02494 0.14474 0.04151 0.0
H474 H 0.90943 0.13678 0.95988 0.0
C475 C 0.73953 0.1493 0.03704 0.0
C476 C 0.70044 0.14103 0.01985 0.0
C477 C 0.80847 0.14941 0.03557 0.0
C478 C 0.94098 0.13889 0.98306 0.0
H479 H 0.26156 0.15756 0.03671 0.0
H480 H 0.14148 0.15741 0.03823 0.0
H481 H 0.02915 0.13728 0.95603 0.0
H482 H 0.70364 0.12627 0.98808 0.0
H483 H 0.82363 0.12639 0.98592 0.0
H484 H 0.93685 0.14634 0.06857 0.0
C485 C 0.16452 0.15087 0.02437 0.0
C486 C 1.00969 0.13919 0.98083 0.0
C487 C 0.23346 0.15099 0.02327 0.0
C488 C 0.73208 0.13279 0.00155 0.0
C489 C 0.80096 0.1329 1.00009 0.0
C490 C 0.95625 0.14444 0.04375 0.0
C491 C 0.12584 0.14245 0.00774 0.0
C492 C 0.05258 0.14213 0.01001 0.0
C493 C 0.84006 0.14126 0.01687 0.0
C494 C 0.91333 0.14152 0.01456 0.0
H495 H 0.24997 0.12783 0.9745 0.0
H496 H 0.12973 0.12758 0.97657 0.0
H497 H 0.05648 0.14686 0.06469 0.0
H498 H 0.71687 0.1558 0.05127 0.0
H499 H 0.83686 0.15604 0.04849 0.0
C500 C 0.31801 0.13242 0.53656 0.0
C501 C 0.35005 0.14108 0.52015 0.0
C502 C 0.24904 0.13229 0.53753 0.0
C503 C 0.09556 0.14392 0.49343 0.0
H504 H 1.01594 0.13399 0.5767 0.0
C505 C 0.81603 0.14862 0.50928 0.0
C506 C 0.78261 0.1398 0.52408 0.0
C507 C 0.88511 0.14871 0.5094 0.0
C508 C 0.03734 0.13667 0.5531 0.0
H509 H 0.33419 0.15647 0.49214 0.0
H510 H 0.21402 0.15631 0.4942 0.0
H511 H 0.1364 0.13445 0.5759 0.0
H512 H 0.79633 0.12416 0.55095 0.0
H513 H 0.91714 0.1243 0.55099 0.0
H514 H 0.99659 0.14617 0.47066 0.0
C515 C 0.24223 0.14952 0.50589 0.0
C516 C 0.10647 0.13694 0.55263 0.0
C517 C 0.31129 0.14965 0.50489 0.0
C518 C 0.82031 0.1311 0.53935 0.0
C519 C 0.88964 0.13121 0.53952 0.0
C520 C 1.02651 0.14367 0.49392 0.0
C521 C 0.21017 0.14082 0.52215 0.0
C522 C 0.13652 0.14058 0.52279 0.0
C523 C 0.92285 0.13999 0.52434 0.0
C524 C 0.99647 0.14007 0.52378 0.0
H525 H 0.3461 0.12565 0.54851 0.0
H526 H 0.22611 0.12538 0.54984 0.0
H527 H 0.11682 0.14658 0.46977 0.0
H528 H 0.7889 0.1555 0.49741 0.0
H529 H 0.90902 0.15569 0.498 0.0
C530 C 0.74184 0.87705 0.53723 0.0
C531 C 0.70327 0.88529 0.52 0.0
C532 C 0.81073 0.8769 0.53561 0.0
C533 C 0.954 0.89445 0.51615 0.0
H534 H 0.04015 0.86647 0.50304 0.0
C535 C 0.23031 0.89177 0.48781 0.0
C536 C 0.26829 0.88348 0.50523 0.0
C537 C 0.16125 0.8919 0.48871 0.0
C538 C 1.01704 0.87434 0.50706 0.0
H539 H 0.70734 0.89995 0.48788 0.0
H540 H 0.82715 0.89965 0.48493 0.0
H541 H 0.92065 0.86699 0.50742 0.0
H542 H 0.26297 0.86874 0.53687 0.0
H543 H 0.14299 0.86903 0.53863 0.0
H544 H 0.05041 0.90179 0.51587 0.0
C545 C 0.80428 0.89335 0.49999 0.0
C546 C 0.94844 0.87464 0.50962 0.0
C547 C 0.73541 0.89348 0.50156 0.0
C548 C 0.23539 0.87524 0.52305 0.0
C549 C 0.16639 0.87537 0.52393 0.0
C550 C 1.02262 0.89415 0.51361 0.0
C551 C 0.84282 0.88501 0.51677 0.0
C552 C 0.91601 0.8847 0.51424 0.0
C553 C 0.12841 0.88375 0.50703 0.0
C554 C 0.05509 0.88409 0.50907 0.0
H555 H 0.71883 0.87062 0.55174 0.0
H556 H 0.83892 0.87045 0.54928 0.0
H557 H 0.93088 0.90232 0.52019 0.0
H558 H 0.25393 0.89824 0.47377 0.0
H559 H 0.13354 0.89839 0.47496 0.0
C560 C 0.97722 0.55522 0.03126 0.0
C561 C 1.00145 0.56075 0.00258 0.0
C562 C 0.98241 0.54374 0.03447 0.0
C563 C 0.07587 0.51975 0.00349 0.0
H564 H 0.93178 0.50275 0.0377 0.0
C565 C 0.07168 0.47187 0.00105 0.0
C566 C 0.04732 0.46638 0.02975 0.0
C567 C 0.06652 0.48335 0.99773 0.0
C568 C 0.97291 0.50736 0.02849 0.0
H569 H 0.05106 0.55837 0.95501 0.0
H570 H 0.05884 0.53843 0.96025 0.0
H571 H 0.92168 0.52267 0.03209 0.0
H572 H 0.99756 0.4688 0.07724 0.0
H573 H 0.98987 0.48873 0.07184 0.0
H574 H 0.1271 0.50444 0.99989 0.0
C575 C 0.03627 0.54297 0.98048 0.0
C576 C 0.96708 0.51883 0.02527 0.0
C577 C 0.03096 0.55444 0.97722 0.0
C578 C 1.01776 0.47271 0.05502 0.0
C579 C 1.0125 0.48417 0.05167 0.0
C580 C 0.0817 0.50829 0.00671 0.0
C581 C 1.01222 0.53745 0.00918 0.0
C582 C 1.01847 0.5252 0.01272 0.0
C583 C 0.03662 0.48967 0.02293 0.0
C584 C 0.03033 0.50192 0.01929 0.0
H585 H 0.95374 0.55976 0.05117 0.0
H586 H 0.96386 0.53982 0.05713 0.0
H587 H 0.11698 0.52437 0.99428 0.0
H588 H 0.09522 0.46731 0.98119 0.0
H589 H 0.08514 0.48725 0.97506 0.0
C590 C 1.01073 0.47148 0.47589 0.0
C591 C 0.03628 0.46452 0.50294 0.0
C592 C 1.01614 0.48295 0.47904 0.0
C593 C 0.11048 0.50524 0.52744 0.0
H594 H 0.96036 0.52316 0.49459 0.0
C595 C 0.10167 0.55241 0.5534 0.0
C596 C 0.07031 0.55919 0.52738 0.0
C597 C 0.09949 0.5409 0.55022 0.0
C598 C 1.00322 0.51833 0.50346 0.0
H599 H 0.08834 0.46429 0.55453 0.0
H600 H 0.09741 0.48432 0.56014 0.0
H601 H 0.95273 0.5032 0.48977 0.0
H602 H 1.01242 0.55898 0.47732 0.0
H603 H 1.01031 0.53903 0.47132 0.0
H604 H 0.16113 0.52038 0.54096 0.0
C605 C 0.07346 0.48088 0.53632 0.0
C606 C 0.99875 0.50683 0.50075 0.0
C607 C 0.06769 0.46938 0.53324 0.0
C608 C 0.0378 0.5541 0.49778 0.0
C609 C 0.03574 0.54259 0.49456 0.0
C610 C 0.11507 0.51676 0.53004 0.0
C611 C 0.04745 0.48783 0.50931 0.0
C612 C 0.05232 0.50011 0.51264 0.0
C613 C 0.06597 0.5358 0.52089 0.0
C614 C 0.06151 0.52349 0.51803 0.0
H615 H 0.98544 0.46808 0.45234 0.0
H616 H 0.99613 0.48801 0.45753 0.0
H617 H 0.15306 0.50036 0.53647 0.0
H618 H 0.12796 0.55598 0.57639 0.0
H619 H 0.12296 0.536 0.57122 0.0
C620 C 0.60605 0.97438 0.05335 0.0
C621 C 0.57513 0.96742 0.02748 0.0
C622 C 0.60339 0.98587 0.04985 0.0
C623 C 0.5065 1.00803 0.00236 0.0
H624 H 0.65536 0.02651 0.03534 0.0
C625 C 0.51187 0.05489 0.97448 0.0
C626 C 0.5371 0.06195 0.00152 0.0
C627 C 0.51778 0.04344 0.97767 0.0
C628 C 0.61304 0.02148 0.02632 0.0
H629 H 0.51752 0.96731 0.97734 0.0
H630 H 0.5146 0.98724 0.97078 0.0
H631 H 0.66428 1.00652 0.04017 0.0
H632 H 0.58913 0.06236 0.05311 0.0
H633 H 0.599 0.04237 0.0588 0.0
H634 H 0.45541 0.02298 0.98836 0.0
C635 C 0.54004 0.98382 0.99416 0.0
C636 C 0.61811 1.00999 0.0291 0.0
C637 C 0.54257 0.97233 0.99769 0.0
C638 C 0.56869 0.0572 0.03184 0.0
C639 C 0.57494 0.04573 0.03496 0.0
C640 C 0.50153 0.01951 0.99946 0.0
C641 C 0.56985 0.99078 0.02034 0.0
C642 C 0.56491 1.00308 0.01715 0.0
C643 C 0.54928 0.03867 0.00797 0.0
C644 C 0.55472 0.02641 0.01136 0.0
H645 H 0.63235 0.97096 0.07647 0.0
H646 H 0.62652 0.9909 0.07075 0.0
H647 H 0.46389 1.00305 0.9935 0.0
H648 H 0.48647 0.0582 0.95092 0.0
H649 H 0.49802 0.03831 0.95617 0.0
C650 C 0.60496 0.0534 0.50868 0.0
C651 C 0.56918 0.05883 0.53358 0.0
C652 C 0.60343 0.04187 0.50585 0.0
C653 C 0.50275 0.01744 0.527 0.0
H654 H 0.6624 1.0011 0.5126 0.0
C655 C 0.50694 0.9698 0.53275 0.0
C656 C 0.54317 0.96415 0.50852 0.0
C657 C 0.51212 0.98127 0.53644 0.0
C658 C 0.6171 1.00552 0.51621 0.0
H659 H 0.50293 0.05625 0.57467 0.0
H660 H 0.50098 0.03625 0.57005 0.0
H661 H 0.66723 0.02114 0.5171 0.0
H662 H 0.61508 0.9663 0.46994 0.0
H663 H 0.62281 0.98625 0.47573 0.0
H664 H 0.45237 1.00189 0.52579 0.0
C665 C 0.53004 0.0409 0.55254 0.0
C666 C 0.61992 0.01705 0.51881 0.0
C667 C 0.53183 0.05239 0.55549 0.0
C668 C 0.58567 0.97033 0.48856 0.0
C669 C 0.59074 0.9818 0.49219 0.0
C670 C 0.49987 1.00594 0.52428 0.0
C671 C 0.56567 0.03546 0.52765 0.0
C672 C 0.56281 0.02317 0.52437 0.0
C673 C 0.55358 0.98747 0.51597 0.0
C674 C 0.55701 0.99978 0.51895 0.0
H675 H 0.63462 0.05806 0.49151 0.0
H676 H 0.63107 0.03799 0.48617 0.0
H677 H 0.45747 0.02186 0.53065 0.0
H678 H 0.47314 0.9654 0.54837 0.0
H679 H 0.48345 0.98527 0.55544 0.0
C680 C 0.22215 0.30378 0.97899 0.0
C681 C 0.17123 0.30762 0.99879 0.0
C682 C 0.24517 0.29293 0.98255 0.0
C683 C 0.24838 0.26863 0.04209 0.0
H684 H 0.29211 0.25272 0.95939 0.0
C685 C 0.30876 0.22192 0.04582 0.0
C686 C 0.35981 0.21817 0.02594 0.0
C687 C 0.2852 0.23274 0.04237 0.0
C688 C 0.2809 0.25706 0.98287 0.0
H689 H 0.10452 0.30288 0.03781 0.0
H690 H 0.14448 0.28402 0.04398 0.0
H691 H 0.25308 0.27163 0.95402 0.0
H692 H 0.4263 0.22306 0.98698 0.0
H693 H 0.38539 0.24186 0.98098 0.0
H694 H 0.27623 0.25405 0.07093 0.0
C695 C 0.16743 0.28945 0.02602 0.0
C696 C 0.25846 0.26795 0.97978 0.0
C697 C 0.14445 0.3003 0.02249 0.0
C698 C 0.38621 0.22555 0.00232 0.0
C699 C 0.36269 0.23638 0.99888 0.0
C700 C 0.27083 0.25774 0.04518 0.0
C701 C 0.21797 0.28557 0.00599 0.0
C702 C 0.24191 0.27392 0.00935 0.0
C703 C 0.31197 0.24016 0.01895 0.0
C704 C 0.2875 0.25178 0.01562 0.0
H705 H 0.24488 0.3092 0.96092 0.0
H706 H 0.28496 0.29036 0.96713 0.0
H707 H 0.23719 0.27298 0.06556 0.0
H708 H 0.2864 0.21645 0.06388 0.0
H709 H 0.24534 0.23525 0.05783 0.0
C710 C 0.73644 0.80507 0.98185 0.0
C711 C 0.68369 0.80879 0.00056 0.0
C712 C 0.75987 0.79425 0.98571 0.0
C713 C 0.75995 0.76986 0.04481 0.0
H714 H 0.81139 0.75414 0.96328 0.0
C715 C 0.82196 0.72321 0.04934 0.0
C716 C 0.87472 0.71952 0.03058 0.0
C717 C 0.79841 0.73403 0.04554 0.0
C718 C 0.79801 0.75843 0.98645 0.0
H719 H 0.6141 0.80385 0.03792 0.0
H720 H 0.65475 0.78505 0.0446 0.0
H721 H 0.77165 0.773 0.95727 0.0
H722 H 0.94422 0.7245 0.99323 0.0
H723 H 0.90337 0.74329 0.98665 0.0
H724 H 0.78632 0.75528 0.074 0.0
C725 C 0.67883 0.79055 0.02729 0.0
C726 C 0.77515 0.76929 0.983 0.0
C727 C 0.65543 0.80137 0.02346 0.0
C728 C 0.90288 0.72695 0.00772 0.0
C729 C 0.87937 0.73777 0.00394 0.0
C730 C 0.78281 0.75899 0.04827 0.0
C731 C 0.73127 0.7868 0.00838 0.0
C732 C 0.75578 0.77518 0.01212 0.0
C733 C 0.82689 0.74149 0.02288 0.0
C734 C 0.80223 0.7531 0.01915 0.0
H735 H 0.7603 0.81056 0.96442 0.0
H736 H 0.80109 0.79177 0.97117 0.0
H737 H 0.74657 0.77414 0.06798 0.0
H738 H 0.79819 0.71771 0.06675 0.0
H739 H 0.75719 0.73648 0.0601 0.0
C740 C 0.21069 0.72156 0.52677 0.0
C741 C 0.17205 0.71819 0.49646 0.0
C742 C 0.23352 0.73246 0.5306 0.0
C743 C 0.20277 0.76087 0.49637 0.0
H744 H 0.37955 0.76663 0.5391 0.0
C745 C 0.32335 0.80445 0.4968 0.0
C746 C 0.36205 0.80779 0.52711 0.0
C747 C 0.29975 0.79359 0.49311 0.0
C748 C 0.32973 0.76521 0.52747 0.0
H749 H 0.12652 0.72387 0.44665 0.0
H750 H 0.16741 0.74272 0.45297 0.0
H751 H 0.33954 0.74772 0.53281 0.0
H752 H 0.40665 0.80213 0.57714 0.0
H753 H 0.36452 0.78335 0.57104 0.0
H754 H 0.19304 0.77836 0.49099 0.0
C755 C 0.17961 0.73696 0.47401 0.0
C756 C 0.3067 0.75432 0.52387 0.0
C757 C 0.15682 0.72607 0.47018 0.0
C758 C 0.37634 0.79994 0.5536 0.0
C759 C 0.35285 0.78909 0.5499 0.0
C760 C 0.22582 0.77176 0.49997 0.0
C761 C 0.21835 0.74033 0.50426 0.0
C762 C 0.24286 0.75198 0.50826 0.0
C763 C 0.31429 0.78573 0.51957 0.0
C764 C 0.28965 0.7741 0.51559 0.0
H765 H 0.22406 0.71574 0.54746 0.0
H766 H 0.26256 0.73473 0.55445 0.0
H767 H 0.15296 0.75944 0.48474 0.0
H768 H 0.31074 0.81025 0.47594 0.0
H769 H 0.27082 0.79131 0.46922 0.0
C770 C 0.80843 0.30393 0.5451 0.0
C771 C 0.85955 0.30785 0.52544 0.0
C772 C 0.78552 0.29303 0.54153 0.0
C773 C 0.78324 0.2687 0.48205 0.0
H774 H 0.74028 0.25265 0.5647 0.0
C775 C 0.72743 0.22177 0.47826 0.0
C776 C 0.67665 0.21777 0.49802 0.0
C777 C 0.74975 0.2327 0.48177 0.0
C778 C 0.75127 0.25702 0.54125 0.0
H779 H 0.92676 0.3032 0.48667 0.0
H780 H 0.88694 0.28427 0.48043 0.0
H781 H 0.77808 0.27171 0.57011 0.0
H782 H 0.60942 0.22232 0.5369 0.0
H783 H 0.64818 0.24132 0.54299 0.0
H784 H 0.75645 0.25402 0.45319 0.0
C785 C 0.86373 0.28967 0.49828 0.0
C786 C 0.773 0.268 0.54435 0.0
C787 C 0.88662 0.30057 0.50185 0.0
C788 C 0.64927 0.22502 0.52161 0.0
C789 C 0.67156 0.23595 0.52511 0.0
C790 C 0.7615 0.25773 0.47895 0.0
C791 C 0.81303 0.28571 0.51818 0.0
C792 C 0.78937 0.27401 0.51481 0.0
C793 C 0.72198 0.23998 0.50514 0.0
C794 C 0.74522 0.25171 0.5085 0.0
H795 H 0.78556 0.30931 0.56313 0.0
H796 H 0.74563 0.29038 0.55685 0.0
H797 H 0.79428 0.27307 0.4586 0.0
H798 H 0.75058 0.21642 0.46025 0.0
H799 H 0.78947 0.2354 0.4664 0.0
C800 C 0.07146 0.36858 0.14341 0.0
C801 C 0.06096 0.37738 0.12001 0.0
C802 C 0.0605 0.36981 0.17867 0.0
C803 C 0.03771 0.39011 0.24926 0.0
H804 H 0.96128 0.3646 0.29213 0.0
C805 C 0.9659 0.38761 0.39541 0.0
C806 C 0.99376 0.37841 0.41319 0.0
C807 C 0.969 0.38864 0.35901 0.0
C808 C 0.98251 0.37181 0.28054 0.0
H809 H 0.03245 0.39451 0.11531 0.0
H810 H 1.01216 0.39666 0.1773 0.0
H811 H 0.97713 0.36437 0.22996 0.0
H812 H 0.04667 0.36314 0.40684 0.0
H813 H 0.05051 0.36481 0.34394 0.0
H814 H 0.04266 0.39748 0.30047 0.0
C815 C 0.0296 0.38882 0.16835 0.0
C816 C 0.99212 0.37166 0.2449 0.0
C817 C 0.04116 0.3876 0.13286 0.0
C818 C 1.02442 0.37031 0.39398 0.0
C819 C 1.02649 0.37124 0.35786 0.0
C820 C 1.02745 0.39029 0.2851 0.0
C821 C 0.03782 0.37984 0.19157 0.0
C822 C 1.0217 0.38066 0.22889 0.0
C823 C 0.99882 0.38038 0.33987 0.0
C824 C 1.00137 0.38101 0.30124 0.0
H825 H 0.08728 0.36064 0.13436 0.0
H826 H 0.06936 0.3628 0.19582 0.0
H827 H 0.06059 0.39719 0.23788 0.0
H828 H 0.94241 0.39402 0.40963 0.0
H829 H 0.94726 0.39578 0.34577 0.0
C830 C 0.03004 0.64488 0.13143 0.0
C831 C 0.98597 0.63708 0.11527 0.0
C832 C 0.03897 0.64558 0.16809 0.0
C833 C 1.02471 0.64829 0.24751 0.0
H834 H 0.03683 0.62026 0.29588 0.0
C835 C 1.02726 0.6436 0.39946 0.0
C836 C 0.06898 0.63547 0.41511 0.0
C837 C 1.01954 0.64467 0.3629 0.0
C838 C 0.03408 0.62817 0.28286 0.0
H839 H 0.91457 0.62428 0.12488 0.0
H840 H 0.9298 0.62553 0.18835 0.0
H841 H 1.01776 0.62062 0.23251 0.0
H842 H 0.13742 0.62242 0.40474 0.0
H843 H 0.12427 0.62429 0.34134 0.0
H844 H 0.04154 0.6558 0.2982 0.0
C845 C 0.95841 0.63098 0.17292 0.0
C846 C 1.02233 0.62838 0.24645 0.0
C847 C 0.94937 0.63031 0.13646 0.0
C848 C 0.10446 0.6287 0.39353 0.0
C849 C 0.0966 0.62974 0.35711 0.0
C850 C 0.03602 0.64808 0.28413 0.0
C851 C 1.00422 0.63846 0.1893 0.0
C852 C 1.01731 0.63843 0.22822 0.0
C853 C 0.05316 0.63759 0.34122 0.0
C854 C 0.04107 0.638 0.30227 0.0
H855 H 0.05886 0.65023 0.11579 0.0
H856 H 0.07477 0.65142 0.1798 0.0
H857 H 1.0208 0.65617 0.23435 0.0
H858 H 0.99938 0.64895 0.41542 0.0
H859 H 0.98549 0.65078 0.35159 0.0
C860 C 0.99219 0.6389 0.89713 0.0
C861 C 0.98344 0.64951 0.91074 0.0
C862 C 0.99762 0.63737 0.86108 0.0
C863 C 0.96242 0.6516 0.77539 0.0
H864 H 0.09739 0.63255 0.74217 0.0
C865 C 0.05793 0.65755 0.64047 0.0
C866 C 0.06287 0.64833 0.6187 0.0
C867 C 0.04606 0.6563 0.6756 0.0
C868 C 0.05891 0.63779 0.75104 0.0
H869 H 0.9734 0.66678 0.8973 0.0
H870 H 0.98324 0.66418 0.83523 0.0
H871 H 0.07865 0.63287 0.80463 0.0
H872 H 0.06122 0.6305 0.61708 0.0
H873 H 0.04141 0.62828 0.67933 0.0
H874 H 0.94405 0.6568 0.72225 0.0
C875 C 0.9849 0.65698 0.8519 0.0
C876 C 0.04803 0.63797 0.78681 0.0
C877 C 0.97964 0.65849 0.88766 0.0
C878 C 0.05771 0.63776 0.63326 0.0
C879 C 0.04643 0.6365 0.66882 0.0
C880 C 0.97357 0.65148 0.7399 0.0
C881 C 0.99399 0.64642 0.83797 0.0
C882 C 1.00074 0.6451 0.79958 0.0
C883 C 0.0392 0.64579 0.69018 0.0
C884 C 1.023 0.64479 0.72736 0.0
H885 H 0.9956 0.63183 0.91435 0.0
H886 H 1.00427 0.62912 0.8513 0.0
H887 H 0.92431 0.65697 0.78397 0.0
H888 H 0.06193 0.66581 0.63018 0.0
H889 H 0.04194 0.66363 0.69142 0.0
C890 C 0.02818 0.38287 0.63344 0.0
C891 C 0.9828 0.39037 0.6173 0.0
C892 C 0.03629 0.38206 0.67002 0.0
C893 C 1.01362 0.39844 0.74927 0.0
H894 H 0.03716 0.37069 0.79853 0.0
C895 C 1.02157 0.38204 0.90087 0.0
C896 C 0.06331 0.39019 0.91689 0.0
C897 C 1.01326 0.38121 0.86425 0.0
C898 C 0.03036 0.37849 0.78514 0.0
H899 H 0.90877 0.40261 0.62678 0.0
H900 H 0.92271 0.4012 0.69033 0.0
H901 H 1.0173 0.37078 0.73463 0.0
H902 H 0.13125 0.4035 0.90716 0.0
H903 H 0.11689 0.40206 0.84371 0.0
H904 H 1.02623 0.40618 0.79947 0.0
C905 C 0.95281 0.39605 0.67488 0.0
C906 C 1.01955 0.37855 0.74852 0.0
C907 C 0.94457 0.39682 0.63842 0.0
C908 C 0.09828 0.3972 0.89565 0.0
C909 C 0.08975 0.39641 0.85923 0.0
C910 C 1.02488 0.39838 0.78569 0.0
C911 C 0.99937 0.38877 0.69122 0.0
C912 C 1.01088 0.38854 0.73015 0.0
C913 C 0.04624 0.38855 0.843 0.0
C914 C 0.03359 0.38843 0.80414 0.0
H915 H 0.0582 0.37775 0.61782 0.0
H916 H 0.07285 0.37641 0.68172 0.0
H917 H 1.00791 0.40629 0.73603 0.0
H918 H 0.99413 0.3765 0.91659 0.0
H919 H 0.97928 0.37508 0.85259 0.0
C920 C 0.55081 0.88873 0.13307 0.0
C921 C 0.57182 0.87859 0.12016 0.0
C922 C 0.53855 0.88984 0.16852 0.0
C923 C 0.50092 0.87239 0.24438 0.0
H924 H 0.54835 0.89813 0.30101 0.0
C925 C 0.52962 0.87053 0.39348 0.0
C926 C 0.49841 0.87855 0.4128 0.0
C927 C 0.53243 0.8716 0.35743 0.0
C928 C 0.534 0.89096 0.28533 0.0
H929 H 0.59967 0.86191 0.13442 0.0
H930 H 0.58051 0.8639 0.19577 0.0
H931 H 0.56757 0.8981 0.23855 0.0
H932 H 0.44683 0.89414 0.40948 0.0
H933 H 0.45292 0.89613 0.34577 0.0
H934 H 0.46958 0.8651 0.29115 0.0
C935 C 0.57124 0.87091 0.1787 0.0
C936 C 0.54501 0.89093 0.24957 0.0
C937 C 0.58292 0.86979 0.1435 0.0
C938 C 0.47072 0.88779 0.39519 0.0
C939 C 0.47454 0.88896 0.35887 0.0
C940 C 0.49054 0.87239 0.27994 0.0
C941 C 0.54725 0.88085 0.19163 0.0
C942 C 0.53016 0.88152 0.22884 0.0
C943 C 0.50494 0.88079 0.33962 0.0
C944 C 0.5083 0.88156 0.30103 0.0
H945 H 0.5416 0.89564 0.11558 0.0
H946 H 0.52014 0.89762 0.17751 0.0
H947 H 0.48681 0.86512 0.22914 0.0
H948 H 0.55176 0.86333 0.40621 0.0
H949 H 0.55689 0.86524 0.34345 0.0
C950 C 0.45002 0.12873 0.13801 0.0
C951 C 0.48619 0.13559 0.11686 0.0
C952 C 0.45972 0.12931 0.17448 0.0
C953 C 0.52309 0.12691 0.2484 0.0
H954 H 0.54255 0.15457 0.29888 0.0
C955 C 0.60632 0.12799 0.39525 0.0
C956 C 0.57091 0.13485 0.41658 0.0
C957 C 0.59805 0.12883 0.35882 0.0
C958 C 0.53694 0.14678 0.28517 0.0
H959 H 0.55953 0.14866 0.1174 0.0
H960 H 0.57659 0.14968 0.18132 0.0
H961 H 0.52185 0.15465 0.23506 0.0
H962 H 0.50102 0.14831 0.4164 0.0
H963 H 0.48646 0.1498 0.35249 0.0
H964 H 0.5375 0.11902 0.29821 0.0
C965 C 0.54056 0.14387 0.16963 0.0
C966 C 0.52567 0.14683 0.24857 0.0
C967 C 0.53106 0.14325 0.13303 0.0
C968 C 0.52886 0.14288 0.40064 0.0
C969 C 0.52074 0.14376 0.36404 0.0
C970 C 0.53479 0.12687 0.28481 0.0
C971 C 0.50566 0.13678 0.19083 0.0
C972 C 0.51831 0.13688 0.22973 0.0
C973 C 0.55427 0.13658 0.34266 0.0
C974 C 0.54192 0.13679 0.30374 0.0
H975 H 0.41471 0.12279 0.12638 0.0
H976 H 0.43115 0.12386 0.18993 0.0
H977 H 0.51845 0.1191 0.23479 0.0
H978 H 0.63952 0.12177 0.4067 0.0
H979 H 0.62566 0.12331 0.34324 0.0
C980 C 0.46754 0.13854 0.8949 0.0
C981 C 0.49554 0.1478 0.91266 0.0
C982 C 0.4712 0.13743 0.85854 0.0
C983 C 0.48767 0.1541 0.77983 0.0
H984 H 0.5635 0.12847 0.73806 0.0
C985 C 0.57879 0.15677 0.64298 0.0
C986 C 0.56765 0.14791 0.61972 0.0
C987 C 0.5673 0.15567 0.67822 0.0
C988 C 0.54127 0.13562 0.74918 0.0
H989 H 0.54918 0.16309 0.90629 0.0
H990 H 0.55401 0.16128 0.84349 0.0
H991 H 0.54447 0.12839 0.80052 0.0
H992 H 0.53745 0.1308 0.61532 0.0
H993 H 0.51626 0.12887 0.67727 0.0
H994 H 0.48401 0.16139 0.72911 0.0
C995 C 0.52945 0.15487 0.85737 0.0
C996 C 0.53037 0.13557 0.78495 0.0
C997 C 0.52681 0.15588 0.89345 0.0
C998 C 0.5467 0.13776 0.63274 0.0
C999 C 0.53461 0.13667 0.66821 0.0
C1000 C 0.49792 0.15413 0.74425 0.0
C1001 C 0.50172 0.14566 0.8394 0.0
C1002 C 0.50507 0.14493 0.8008 0.0
C1003 C 0.54344 0.14571 0.69127 0.0
C1004 C 0.5267 0.14503 0.72855 0.0
H1005 H 0.44358 0.13215 0.9091 0.0
H1006 H 0.44938 0.13024 0.84533 0.0
H1007 H 0.46702 0.16137 0.79115 0.0
H1008 H 0.59549 0.16467 0.63381 0.0
H1009 H 0.57667 0.16272 0.69522 0.0
C1010 C 0.53398 0.88301 0.63331 0.0
C1011 C 0.48796 0.89041 0.61715 0.0
C1012 C 0.5429 0.88233 0.66991 0.0
C1013 C 0.52095 0.89894 0.74887 0.0
H1014 H 0.54722 0.87137 0.79889 0.0
C1015 C 0.53281 0.88292 0.90104 0.0
C1016 C 0.57425 0.89117 0.9167 0.0
C1017 C 0.52388 0.88201 0.86445 0.0
C1018 C 0.53967 0.87913 0.78529 0.0
H1019 H 0.41364 0.9026 0.62667 0.0
H1020 H 0.42896 0.90141 0.69023 0.0
H1021 H 0.52614 0.87124 0.73506 0.0
H1022 H 0.64088 0.90461 0.90632 0.0
H1023 H 0.62541 0.90302 0.84291 0.0
H1024 H 0.53402 0.90684 0.7988 0.0
C1025 C 0.45896 0.89625 0.67478 0.0
C1026 C 0.52816 0.87907 0.7487 0.0
C1027 C 0.44992 0.89689 0.6383 0.0
C1028 C 0.60821 0.89822 0.89511 0.0
C1029 C 0.59903 0.89735 0.8587 0.0
C1030 C 0.53292 0.89901 0.78526 0.0
C1031 C 0.50617 0.88907 0.69112 0.0
C1032 C 0.51848 0.88898 0.73004 0.0
C1033 C 0.55587 0.88937 0.84284 0.0
C1034 C 0.5426 0.88912 0.804 0.0
H1035 H 0.5639 0.87789 0.61768 0.0
H1036 H 0.57995 0.87677 0.68158 0.0
H1037 H 0.51448 0.90674 0.7354 0.0
H1038 H 0.50612 0.87735 0.91702 0.0
H1039 H 0.49017 0.87579 0.8531 0.0
loop_
_geom_bond_atom_site_label_1
_geom_bond_atom_site_label_2
_geom_bond_distance
_geom_bond_site_symmetry_2
_ccdc_geom_bond_type
Pr0 C2 2.880 . S
Pr0 O20 2.562 1_554 S
Pr0 O21 2.490 . S
Pr0 O22 2.695 . S
Pr0 O23 2.512 . S
Pr0 O25 2.437 . S
Pr0 O28 2.436 1_554 S
Pr0 O30 2.438 1_455 S
Pr1 C11 2.880 . S
Pr1 O22 2.436 . S
Pr1 O24 2.438 . S
Pr1 O26 2.562 . S
Pr1 O27 2.490 1_554 S
Pr1 O28 2.695 1_554 S
Pr1 O29 2.512 1_554 S
Pr1 O31 2.437 1_454 S
C2 Pr0 2.880 . S
C2 C3 1.491 . S
C2 O20 1.254 1_554 S
C2 O21 1.225 . S
C3 C2 1.491 . S
C3 C4 1.392 . S
C3 C8 1.356 1_554 S
C4 C3 1.392 . S
C4 C5 1.368 . S
C4 H32 0.929 . S
C5 C4 1.368 . S
C5 C6 1.386 . S
C5 H33 0.929 . S
C6 C5 1.386 . S
C6 C7 1.373 1_554 S
C7 C6 1.373 1_556 S
C7 C8 1.409 . S
C7 H34 0.931 . S
C8 C3 1.356 1_556 S
C8 C7 1.409 . S
C8 H35 0.930 . S
C9 O22 1.270 . S
C9 O23 1.248 . S
C10 O24 1.267 . S
C10 O25 1.278 . S
C11 Pr1 2.880 . S
C11 C12 1.491 1_455 S
C11 O26 1.254 . S
C11 O27 1.225 1_554 S
C12 C11 1.491 1_655 S
C12 C13 1.392 1_554 S
C12 C17 1.356 . S
C13 C12 1.392 1_556 S
C13 C14 1.368 . S
C13 H36 0.929 . S
C14 C13 1.368 . S
C14 C15 1.386 1_556 S
C14 H37 0.929 . S
C15 C14 1.386 1_554 S
C15 C16 1.373 . S
C16 C15 1.373 . S
C16 C17 1.409 . S
C16 H38 0.931 . S
C17 C12 1.356 . S
C17 C16 1.409 . S
C17 H39 0.930 . S
C18 O28 1.270 . S
C18 O29 1.248 . S
C19 O30 1.267 . S
C19 O31 1.278 1_554 S
O20 Pr0 2.562 1_556 S
O20 C2 1.254 1_556 S
O21 Pr0 2.490 . S
O21 C2 1.225 . S
O22 Pr0 2.695 . S
O22 Pr1 2.436 . S
O22 C9 1.270 . S
O23 Pr0 2.512 . S
O23 C9 1.248 . S
O24 Pr1 2.438 . S
O24 C10 1.267 . S
O25 Pr0 2.437 . S
O25 C10 1.278 . S
O26 Pr1 2.562 . S
O26 C11 1.254 . S
O27 Pr1 2.490 1_556 S
O27 C11 1.225 1_556 S
O28 Pr0 2.436 1_556 S
O28 Pr1 2.695 1_556 S
O28 C18 1.270 . S
O29 Pr1 2.512 1_556 S
O29 C18 1.248 . S
O30 Pr0 2.438 1_655 S
O30 C19 1.267 . S
O31 Pr1 2.437 1_656 S
O31 C19 1.278 1_556 S
H32 C4 0.929 . S
H33 C5 0.929 . S
H34 C7 0.931 . S
H35 C8 0.930 . S
H36 C13 0.929 . S
H37 C14 0.929 . S
H38 C16 0.931 . S
H39 C17 0.930 . S
Pr40 C42 2.880 . S
Pr40 O60 2.562 1_554 S
Pr40 O61 2.490 . S
Pr40 O62 2.695 . S
Pr40 O63 2.512 . S
Pr40 O65 2.437 1_655 S
Pr40 O68 2.436 1_554 S
Pr40 O70 2.438 . S
Pr41 C51 2.880 . S
Pr41 O62 2.436 . S
Pr41 O64 2.438 1_655 S
Pr41 O66 2.562 . S
Pr41 O67 2.490 1_554 S
Pr41 O68 2.695 1_554 S
Pr41 O69 2.512 1_554 S
Pr41 O71 2.437 1_554 S
C42 Pr40 2.880 . S
C42 C43 1.491 1_655 S
C42 O60 1.254 1_554 S
C42 O61 1.225 . S
C43 C42 1.491 1_455 S
C43 C44 1.392 . S
C43 C48 1.356 1_554 S
C44 C43 1.392 . S
C44 C45 1.368 . S
C44 H72 0.929 . S
C45 C44 1.368 . S
C45 C46 1.386 . S
C45 H73 0.929 . S
C46 C45 1.386 . S
C46 C47 1.373 1_554 S
C47 C46 1.373 1_556 S
C47 C48 1.409 . S
C47 H74 0.931 . S
C48 C43 1.356 1_556 S
C48 C47 1.409 . S
C48 H75 0.930 . S
C49 O62 1.270 . S
C49 O63 1.248 . S
C50 O64 1.267 . S
C50 O65 1.278 . S
C51 Pr41 2.880 . S
C51 C52 1.491 . S
C51 O66 1.254 . S
C51 O67 1.225 1_554 S
C52 C51 1.491 . S
C52 C53 1.392 1_554 S
C52 C57 1.356 . S
C53 C52 1.392 1_556 S
C53 C54 1.368 . S
C53 H76 0.929 . S
C54 C53 1.368 . S
C54 C55 1.386 1_556 S
C54 H77 0.929 . S
C55 C54 1.386 1_554 S
C55 C56 1.373 . S
C56 C55 1.373 . S
C56 C57 1.409 . S
C56 H78 0.931 . S
C57 C52 1.356 . S
C57 C56 1.409 . S
C57 H79 0.930 . S
C58 O68 1.270 . S
C58 O69 1.248 . S
C59 O70 1.267 . S
C59 O71 1.278 1_554 S
O60 Pr40 2.562 1_556 S
O60 C42 1.254 1_556 S
O61 Pr40 2.490 . S
O61 C42 1.225 . S
O62 Pr40 2.695 . S
O62 Pr41 2.436 . S
O62 C49 1.270 . S
O63 Pr40 2.512 . S
O63 C49 1.248 . S
O64 Pr41 2.438 1_455 S
O64 C50 1.267 . S
O65 Pr40 2.437 1_455 S
O65 C50 1.278 . S
O66 Pr41 2.562 . S
O66 C51 1.254 . S
O67 Pr41 2.490 1_556 S
O67 C51 1.225 1_556 S
O68 Pr40 2.436 1_556 S
O68 Pr41 2.695 1_556 S
O68 C58 1.270 . S
O69 Pr41 2.512 1_556 S
O69 C58 1.248 . S
O70 Pr40 2.438 . S
O70 C59 1.267 . S
O71 Pr41 2.437 1_556 S
O71 C59 1.278 1_556 S
H72 C44 0.929 . S
H73 C45 0.929 . S
H74 C47 0.931 . S
H75 C48 0.930 . S
H76 C53 0.929 . S
H77 C54 0.929 . S
H78 C56 0.931 . S
H79 C57 0.930 . S
Pr80 C82 2.880 . S
Pr80 O100 2.562 . S
Pr80 O101 2.490 . S
Pr80 O102 2.695 . S
Pr80 O103 2.512 . S
Pr80 O105 2.437 1_455 S
Pr80 O108 2.436 . S
Pr80 O110 2.438 . S
Pr81 C91 2.880 . S
Pr81 O102 2.436 . S
Pr81 O104 2.438 1_455 S
Pr81 O106 2.562 . S
Pr81 O107 2.490 . S
Pr81 O108 2.695 . S
Pr81 O109 2.512 . S
Pr81 O111 2.437 . S
C82 Pr80 2.880 . S
C82 C83 1.491 1_455 S
C82 O100 1.254 . S
C82 O101 1.225 . S
C83 C82 1.491 1_655 S
C83 C84 1.392 . S
C83 C88 1.356 . S
C84 C83 1.392 . S
C84 C85 1.368 . S
C84 H112 0.929 . S
C85 C84 1.368 . S
C85 C86 1.386 . S
C85 H113 0.929 . S
C86 C85 1.386 . S
C86 C87 1.373 . S
C87 C86 1.373 . S
C87 C88 1.409 . S
C87 H114 0.931 . S
C88 C83 1.356 . S
C88 C87 1.409 . S
C88 H115 0.930 . S
C89 O102 1.270 . S
C89 O103 1.248 . S
C90 O104 1.267 . S
C90 O105 1.278 . S
C91 Pr81 2.880 . S
C91 C92 1.491 . S
C91 O106 1.254 . S
C91 O107 1.225 . S
C92 C91 1.491 . S
C92 C93 1.392 . S
C92 C97 1.356 . S
C93 C92 1.392 . S
C93 C94 1.368 . S
C93 H116 0.929 . S
C94 C93 1.368 . S
C94 C95 1.386 . S
C94 H117 0.929 . S
C95 C94 1.386 . S
C95 C96 1.373 . S
C96 C95 1.373 . S
C96 C97 1.409 . S
C96 H118 0.931 . S
C97 C92 1.356 . S
C97 C96 1.409 . S
C97 H119 0.930 . S
C98 O108 1.270 . S
C98 O109 1.248 . S
C99 O110 1.267 . S
C99 O111 1.278 . S
O100 Pr80 2.562 . S
O100 C82 1.254 . S
O101 Pr80 2.490 . S
O101 C82 1.225 . S
O102 Pr80 2.695 . S
O102 Pr81 2.436 . S
O102 C89 1.270 . S
O103 Pr80 2.512 . S
O103 C89 1.248 . S
O104 Pr81 2.438 1_655 S
O104 C90 1.267 . S
O105 Pr80 2.437 1_655 S
O105 C90 1.278 . S
O106 Pr81 2.562 . S
O106 C91 1.254 . S
O107 Pr81 2.490 . S
O107 C91 1.225 . S
O108 Pr80 2.436 . S
O108 Pr81 2.695 . S
O108 C98 1.270 . S
O109 Pr81 2.512 . S
O109 C98 1.248 . S
O110 Pr80 2.438 . S
O110 C99 1.267 . S
O111 Pr81 2.437 . S
O111 C99 1.278 . S
H112 C84 0.929 . S
H113 C85 0.929 . S
H114 C87 0.931 . S
H115 C88 0.930 . S
H116 C93 0.929 . S
H117 C94 0.929 . S
H118 C96 0.931 . S
H119 C97 0.930 . S
Pr120 C122 2.880 . S
Pr120 O140 2.562 . S
Pr120 O141 2.490 . S
Pr120 O142 2.695 . S
Pr120 O143 2.512 . S
Pr120 O145 2.437 . S
Pr120 O148 2.436 . S
Pr120 O150 2.438 1_655 S
Pr121 C131 2.880 . S
Pr121 O142 2.436 . S
Pr121 O144 2.438 . S
Pr121 O146 2.562 . S
Pr121 O147 2.490 . S
Pr121 O148 2.695 . S
Pr121 O149 2.512 . S
Pr121 O151 2.437 1_655 S
C122 Pr120 2.880 . S
C122 C123 1.491 . S
C122 O140 1.254 . S
C122 O141 1.225 . S
C123 C122 1.491 . S
C123 C124 1.392 . S
C123 C128 1.356 . S
C124 C123 1.392 . S
C124 C125 1.368 . S
C124 H152 0.929 . S
C125 C124 1.368 . S
C125 C126 1.386 . S
C125 H153 0.929 . S
C126 C125 1.386 . S
C126 C127 1.373 . S
C127 C126 1.373 . S
C127 C128 1.409 . S
C127 H154 0.931 . S
C128 C123 1.356 . S
C128 C127 1.409 . S
C128 H155 0.930 . S
C129 O142 1.270 . S
C129 O143 1.248 . S
C130 O144 1.267 . S
C130 O145 1.278 . S
C131 Pr121 2.880 . S
C131 C132 1.491 1_655 S
C131 O146 1.254 . S
C131 O147 1.225 . S
C132 C131 1.491 1_455 S
C132 C133 1.392 . S
C132 C137 1.356 . S
C133 C132 1.392 . S
C133 C134 1.368 . S
C133 H156 0.929 . S
C134 C133 1.368 . S
C134 C135 1.386 . S
C134 H157 0.929 . S
C135 C134 1.386 . S
C135 C136 1.373 . S
C136 C135 1.373 . S
C136 C137 1.409 . S
C136 H158 0.931 . S
C137 C132 1.356 . S
C137 C136 1.409 . S
C137 H159 0.930 . S
C138 O148 1.270 . S
C138 O149 1.248 . S
C139 O150 1.267 . S
C139 O151 1.278 . S
O140 Pr120 2.562 . S
O140 C122 1.254 . S
O141 Pr120 2.490 . S
O141 C122 1.225 . S
O142 Pr120 2.695 . S
O142 Pr121 2.436 . S
O142 C129 1.270 . S
O143 Pr120 2.512 . S
O143 C129 1.248 . S
O144 Pr121 2.438 . S
O144 C130 1.267 . S
O145 Pr120 2.437 . S
O145 C130 1.278 . S
O146 Pr121 2.562 . S
O146 C131 1.254 . S
O147 Pr121 2.490 . S
O147 C131 1.225 . S
O148 Pr120 2.436 . S
O148 Pr121 2.695 . S
O148 C138 1.270 . S
O149 Pr121 2.512 . S
O149 C138 1.248 . S
O150 Pr120 2.438 1_455 S
O150 C139 1.267 . S
O151 Pr121 2.437 1_455 S
O151 C139 1.278 . S
H152 C124 0.929 . S
H153 C125 0.929 . S
H154 C127 0.931 . S
H155 C128 0.930 . S
H156 C133 0.929 . S
H157 C134 0.929 . S
H158 C136 0.931 . S
H159 C137 0.930 . S
Pr160 C162 2.880 . S
Pr160 O180 2.562 1_554 S
Pr160 O181 2.490 . S
Pr160 O182 2.695 . S
Pr160 O183 2.512 . S
Pr160 O185 2.437 . S
Pr160 O188 2.436 1_554 S
Pr160 O190 2.438 . S
Pr161 C171 2.880 . S
Pr161 O182 2.436 . S
Pr161 O184 2.438 . S
Pr161 O186 2.562 . S
Pr161 O187 2.490 1_554 S
Pr161 O188 2.695 1_554 S
Pr161 O189 2.512 1_554 S
Pr161 O191 2.437 1_554 S
C162 Pr160 2.880 . S
C162 C163 1.491 . S
C162 O180 1.254 1_554 S
C162 O181 1.225 . S
C163 C162 1.491 . S
C163 C164 1.392 . S
C163 C168 1.356 1_554 S
C164 C163 1.392 . S
C164 C165 1.368 . S
C164 H192 0.929 . S
C165 C164 1.368 . S
C165 C166 1.386 . S
C165 H193 0.929 . S
C166 C165 1.386 . S
C166 C167 1.373 1_554 S
C167 C166 1.373 1_556 S
C167 C168 1.409 . S
C167 H194 0.931 . S
C168 C163 1.356 1_556 S
C168 C167 1.409 . S
C168 H195 0.930 . S
C169 O182 1.270 . S
C169 O183 1.248 . S
C170 O184 1.267 . S
C170 O185 1.278 . S
C171 Pr161 2.880 . S
C171 C172 1.491 . S
C171 O186 1.254 . S
C171 O187 1.225 1_554 S
C172 C171 1.491 . S
C172 C173 1.392 1_554 S
C172 C177 1.356 . S
C173 C172 1.392 1_556 S
C173 C174 1.368 . S
C173 H196 0.929 . S
C174 C173 1.368 . S
C174 C175 1.386 1_556 S
C174 H197 0.929 . S
C175 C174 1.386 1_554 S
C175 C176 1.373 . S
C176 C175 1.373 . S
C176 C177 1.409 . S
C176 H198 0.931 . S
C177 C172 1.356 . S
C177 C176 1.409 . S
C177 H199 0.930 . S
C178 O188 1.270 . S
C178 O189 1.248 . S
C179 O190 1.267 . S
C179 O191 1.278 1_554 S
O180 Pr160 2.562 1_556 S
O180 C162 1.254 1_556 S
O181 Pr160 2.490 . S
O181 C162 1.225 . S
O182 Pr160 2.695 . S
O182 Pr161 2.436 . S
O182 C169 1.270 . S
O183 Pr160 2.512 . S
O183 C169 1.248 . S
O184 Pr161 2.438 . S
O184 C170 1.267 . S
O185 Pr160 2.437 . S
O185 C170 1.278 . S
O186 Pr161 2.562 . S
O186 C171 1.254 . S
O187 Pr161 2.490 1_556 S
O187 C171 1.225 1_556 S
O188 Pr160 2.436 1_556 S
O188 Pr161 2.695 1_556 S
O188 C178 1.270 . S
O189 Pr161 2.512 1_556 S
O189 C178 1.248 . S
O190 Pr160 2.438 . S
O190 C179 1.267 . S
O191 Pr161 2.437 1_556 S
O191 C179 1.278 1_556 S
H192 C164 0.929 . S
H193 C165 0.929 . S
H194 C167 0.931 . S
H195 C168 0.930 . S
H196 C173 0.929 . S
H197 C174 0.929 . S
H198 C176 0.931 . S
H199 C177 0.930 . S
Pr200 C202 2.880 . S
Pr200 O220 2.562 1_554 S
Pr200 O221 2.490 . S
Pr200 O222 2.695 . S
Pr200 O223 2.512 . S
Pr200 O225 2.437 . S
Pr200 O228 2.436 1_554 S
Pr200 O230 2.438 . S
Pr201 C211 2.880 . S
Pr201 O222 2.436 . S
Pr201 O224 2.438 . S
Pr201 O226 2.562 . S
Pr201 O227 2.490 1_554 S
Pr201 O228 2.695 1_554 S
Pr201 O229 2.512 1_554 S
Pr201 O231 2.437 1_554 S
C202 Pr200 2.880 . S
C202 C203 1.491 . S
C202 O220 1.254 1_554 S
C202 O221 1.225 . S
C203 C202 1.491 . S
C203 C204 1.392 . S
C203 C208 1.356 1_554 S
C204 C203 1.392 . S
C204 C205 1.368 . S
C204 H232 0.929 . S
C205 C204 1.368 . S
C205 C206 1.386 . S
C205 H233 0.929 . S
C206 C205 1.386 . S
C206 C207 1.373 1_554 S
C207 C206 1.373 1_556 S
C207 C208 1.409 . S
C207 H234 0.931 . S
C208 C203 1.356 1_556 S
C208 C207 1.409 . S
C208 H235 0.930 . S
C209 O222 1.270 . S
C209 O223 1.248 . S
C210 O224 1.267 . S
C210 O225 1.278 . S
C211 Pr201 2.880 . S
C211 C212 1.491 . S
C211 O226 1.254 . S
C211 O227 1.225 1_554 S
C212 C211 1.491 . S
C212 C213 1.392 1_554 S
C212 C217 1.356 . S
C213 C212 1.392 1_556 S
C213 C214 1.368 . S
C213 H236 0.929 . S
C214 C213 1.368 . S
C214 C215 1.386 1_556 S
C214 H237 0.929 . S
C215 C214 1.386 1_554 S
C215 C216 1.373 . S
C216 C215 1.373 . S
C216 C217 1.409 . S
C216 H238 0.931 . S
C217 C212 1.356 . S
C217 C216 1.409 . S
C217 H239 0.930 . S
C218 O228 1.270 . S
C218 O229 1.248 . S
C219 O230 1.267 . S
C219 O231 1.278 1_554 S
O220 Pr200 2.562 1_556 S
O220 C202 1.254 1_556 S
O221 Pr200 2.490 . S
O221 C202 1.225 . S
O222 Pr200 2.695 . S
O222 Pr201 2.436 . S
O222 C209 1.270 . S
O223 Pr200 2.512 . S
O223 C209 1.248 . S
O224 Pr201 2.438 . S
O224 C210 1.267 . S
O225 Pr200 2.437 . S
O225 C210 1.278 . S
O226 Pr201 2.562 . S
O226 C211 1.254 . S
O227 Pr201 2.490 1_556 S
O227 C211 1.225 1_556 S
O228 Pr200 2.436 1_556 S
O228 Pr201 2.695 1_556 S
O228 C218 1.270 . S
O229 Pr201 2.512 1_556 S
O229 C218 1.248 . S
O230 Pr200 2.438 . S
O230 C219 1.267 . S
O231 Pr201 2.437 1_556 S
O231 C219 1.278 1_556 S
H232 C204 0.929 . S
H233 C205 0.929 . S
H234 C207 0.931 . S
H235 C208 0.930 . S
H236 C213 0.929 . S
H237 C214 0.929 . S
H238 C216 0.931 . S
H239 C217 0.930 . S
Pr240 C242 2.880 . S
Pr240 O260 2.562 . S
Pr240 O261 2.490 . S
Pr240 O262 2.695 . S
Pr240 O263 2.512 . S
Pr240 O265 2.437 . S
Pr240 O268 2.436 . S
Pr240 O270 2.438 . S
Pr241 C251 2.880 . S
Pr241 O262 2.436 . S
Pr241 O264 2.438 . S
Pr241 O266 2.562 . S
Pr241 O267 2.490 . S
Pr241 O268 2.695 . S
Pr241 O269 2.512 . S
Pr241 O271 2.437 . S
C242 Pr240 2.880 . S
C242 C243 1.491 . S
C242 O260 1.254 . S
C242 O261 1.225 . S
C243 C242 1.491 . S
C243 C244 1.392 . S
C243 C248 1.356 . S
C244 C243 1.392 . S
C244 C245 1.368 . S
C244 H272 0.929 . S
C245 C244 1.368 . S
C245 C246 1.386 . S
C245 H273 0.929 . S
C246 C245 1.386 . S
C246 C247 1.373 . S
C247 C246 1.373 . S
C247 C248 1.409 . S
C247 H274 0.931 . S
C248 C243 1.356 . S
C248 C247 1.409 . S
C248 H275 0.930 . S
C249 O262 1.270 . S
C249 O263 1.248 . S
C250 O264 1.267 . S
C250 O265 1.278 . S
C251 Pr241 2.880 . S
C251 C252 1.491 . S
C251 O266 1.254 . S
C251 O267 1.225 . S
C252 C251 1.491 . S
C252 C253 1.392 . S
C252 C257 1.356 . S
C253 C252 1.392 . S
C253 C254 1.368 . S
C253 H276 0.929 . S
C254 C253 1.368 . S
C254 C255 1.386 . S
C254 H277 0.929 . S
C255 C254 1.386 . S
C255 C256 1.373 . S
C256 C255 1.373 . S
C256 C257 1.409 . S
C256 H278 0.931 . S
C257 C252 1.356 . S
C257 C256 1.409 . S
C257 H279 0.930 . S
C258 O268 1.270 . S
C258 O269 1.248 . S
C259 O270 1.267 . S
C259 O271 1.278 . S
O260 Pr240 2.562 . S
O260 C242 1.254 . S
O261 Pr240 2.490 . S
O261 C242 1.225 . S
O262 Pr240 2.695 . S
O262 Pr241 2.436 . S
O262 C249 1.270 . S
O263 Pr240 2.512 . S
O263 C249 1.248 . S
O264 Pr241 2.438 . S
O264 C250 1.267 . S
O265 Pr240 2.437 . S
O265 C250 1.278 . S
O266 Pr241 2.562 . S
O266 C251 1.254 . S
O267 Pr241 2.490 . S
O267 C251 1.225 . S
O268 Pr240 2.436 . S
O268 Pr241 2.695 . S
O268 C258 1.270 . S
O269 Pr241 2.512 . S
O269 C258 1.248 . S
O270 Pr240 2.438 . S
O270 C259 1.267 . S
O271 Pr241 2.437 . S
O271 C259 1.278 . S
H272 C244 0.929 . S
H273 C245 0.929 . S
H274 C247 0.931 . S
H275 C248 0.930 . S
H276 C253 0.929 . S
H277 C254 0.929 . S
H278 C256 0.931 . S
H279 C257 0.930 . S
Pr280 C282 2.880 . S
Pr280 O300 2.562 . S
Pr280 O301 2.490 . S
Pr280 O302 2.695 . S
Pr280 O303 2.512 . S
Pr280 O305 2.437 . S
Pr280 O308 2.436 . S
Pr280 O310 2.438 . S
Pr281 C291 2.880 . S
Pr281 O302 2.436 . S
Pr281 O304 2.438 . S
Pr281 O306 2.562 . S
Pr281 O307 2.490 . S
Pr281 O308 2.695 . S
Pr281 O309 2.512 . S
Pr281 O311 2.437 . S
C282 Pr280 2.880 . S
C282 C283 1.491 . S
C282 O300 1.254 . S
C282 O301 1.225 . S
C283 C282 1.491 . S
C283 C284 1.392 . S
C283 C288 1.356 . S
C284 C283 1.392 . S
C284 C285 1.368 . S
C284 H312 0.929 . S
C285 C284 1.368 . S
C285 C286 1.386 . S
C285 H313 0.929 . S
C286 C285 1.386 . S
C286 C287 1.373 . S
C287 C286 1.373 . S
C287 C288 1.409 . S
C287 H314 0.931 . S
C288 C283 1.356 . S
C288 C287 1.409 . S
C288 H315 0.930 . S
C289 O302 1.270 . S
C289 O303 1.248 . S
C290 O304 1.267 . S
C290 O305 1.278 . S
C291 Pr281 2.880 . S
C291 C292 1.491 . S
C291 O306 1.254 . S
C291 O307 1.225 . S
C292 C291 1.491 . S
C292 C293 1.392 . S
C292 C297 1.356 . S
C293 C292 1.392 . S
C293 C294 1.368 . S
C293 H316 0.929 . S
C294 C293 1.368 . S
C294 C295 1.386 . S
C294 H317 0.929 . S
C295 C294 1.386 . S
C295 C296 1.373 . S
C296 C295 1.373 . S
C296 C297 1.409 . S
C296 H318 0.931 . S
C297 C292 1.356 . S
C297 C296 1.409 . S
C297 H319 0.930 . S
C298 O308 1.270 . S
C298 O309 1.248 . S
C299 O310 1.267 . S
C299 O311 1.278 . S
O300 Pr280 2.562 . S
O300 C282 1.254 . S
O301 Pr280 2.490 . S
O301 C282 1.225 . S
O302 Pr280 2.695 . S
O302 Pr281 2.436 . S
O302 C289 1.270 . S
O303 Pr280 2.512 . S
O303 C289 1.248 . S
O304 Pr281 2.438 . S
O304 C290 1.267 . S
O305 Pr280 2.437 . S
O305 C290 1.278 . S
O306 Pr281 2.562 . S
O306 C291 1.254 . S
O307 Pr281 2.490 . S
O307 C291 1.225 . S
O308 Pr280 2.436 . S
O308 Pr281 2.695 . S
O308 C298 1.270 . S
O309 Pr281 2.512 . S
O309 C298 1.248 . S
O310 Pr280 2.438 . S
O310 C299 1.267 . S
O311 Pr281 2.437 . S
O311 C299 1.278 . S
H312 C284 0.929 . S
H313 C285 0.929 . S
H314 C287 0.931 . S
H315 C288 0.930 . S
H316 C293 0.929 . S
H317 C294 0.929 . S
H318 C296 0.931 . S
H319 C297 0.930 . S
C320 C321 1.349 . S
C320 C322 1.327 . S
C320 H345 0.950 . S
C321 C320 1.349 . S
C321 C337 1.349 1_554 S
C322 C320 1.327 . S
C322 C341 1.429 . S
C322 H346 0.950 . S
C323 C340 1.574 . S
C323 C342 1.368 1_556 S
C323 H347 0.949 . S
H324 C328 0.949 . S
C325 C326 1.349 1_556 S
C325 C327 1.327 . S
C325 H348 0.950 . S
C326 C325 1.349 1_554 S
C326 C338 1.349 . S
C327 C325 1.327 . S
C327 C343 1.429 1_556 S
C327 H349 0.950 . S
C328 H324 0.949 . S
C328 C336 1.574 . S
C328 C344 1.368 . S
H329 C337 0.950 . S
H330 C335 0.950 . S
H331 C336 0.949 . S
H332 C338 0.950 . S
H333 C339 0.950 . S
H334 C340 0.949 . S
C335 H330 0.950 . S
C335 C337 1.327 . S
C335 C341 1.429 1_556 S
C336 C328 1.574 . S
C336 H331 0.949 . S
C336 C342 1.368 . S
C337 C321 1.349 1_556 S
C337 H329 0.950 . S
C337 C335 1.327 . S
C338 C326 1.349 . S
C338 H332 0.950 . S
C338 C339 1.327 . S
C339 H333 0.950 . S
C339 C338 1.327 . S
C339 C343 1.429 . S
C340 C323 1.574 . S
C340 H334 0.949 . S
C340 C344 1.368 1_556 S
C341 C322 1.429 . S
C341 C335 1.429 1_554 S
C341 C342 1.523 . S
C342 C323 1.368 1_554 S
C342 C336 1.368 . S
C342 C341 1.523 . S
C343 C327 1.429 1_554 S
C343 C339 1.429 . S
C343 C344 1.523 . S
C344 C328 1.368 . S
C344 C340 1.368 1_554 S
C344 C343 1.523 . S
H345 C320 0.950 . S
H346 C322 0.950 . S
H347 C323 0.949 . S
H348 C325 0.950 . S
H349 C327 0.950 . S
C350 C351 1.349 . S
C350 C352 1.327 . S
C350 H375 0.950 . S
C351 C350 1.349 . S
C351 C367 1.349 1_554 S
C352 C350 1.327 . S
C352 C371 1.429 . S
C352 H376 0.950 . S
C353 C370 1.574 . S
C353 C372 1.368 1_556 S
C353 H377 0.949 . S
H354 C358 0.949 . S
C355 C356 1.349 1_556 S
C355 C357 1.327 . S
C355 H378 0.950 . S
C356 C355 1.349 1_554 S
C356 C368 1.349 . S
C357 C355 1.327 . S
C357 C373 1.429 1_556 S
C357 H379 0.950 . S
C358 H354 0.949 . S
C358 C366 1.574 . S
C358 C374 1.368 . S
H359 C367 0.950 . S
H360 C365 0.950 . S
H361 C366 0.949 . S
H362 C368 0.950 . S
H363 C369 0.950 . S
H364 C370 0.949 . S
C365 H360 0.950 . S
C365 C367 1.327 . S
C365 C371 1.429 1_556 S
C366 C358 1.574 . S
C366 H361 0.949 . S
C366 C372 1.368 . S
C367 C351 1.349 1_556 S
C367 H359 0.950 . S
C367 C365 1.327 . S
C368 C356 1.349 . S
C368 H362 0.950 . S
C368 C369 1.327 . S
C369 H363 0.950 . S
C369 C368 1.327 . S
C369 C373 1.429 . S
C370 C353 1.574 . S
C370 H364 0.949 . S
C370 C374 1.368 1_556 S
C371 C352 1.429 . S
C371 C365 1.429 1_554 S
C371 C372 1.523 . S
C372 C353 1.368 1_554 S
C372 C366 1.368 . S
C372 C371 1.523 . S
C373 C357 1.429 1_554 S
C373 C369 1.429 . S
C373 C374 1.523 . S
C374 C358 1.368 . S
C374 C370 1.368 1_554 S
C374 C373 1.523 . S
H375 C350 0.950 . S
H376 C352 0.950 . S
H377 C353 0.949 . S
H378 C355 0.950 . S
H379 C357 0.950 . S
C380 C381 1.349 . S
C380 C382 1.327 . S
C380 H405 0.950 . S
C381 C380 1.349 . S
C381 C397 1.349 . S
C382 C380 1.327 . S
C382 C401 1.429 . S
C382 H406 0.950 . S
C383 C400 1.574 . S
C383 C402 1.368 . S
C383 H407 0.949 . S
H384 C388 0.949 . S
C385 C386 1.349 . S
C385 C387 1.327 . S
C385 H408 0.950 . S
C386 C385 1.349 . S
C386 C398 1.349 . S
C387 C385 1.327 . S
C387 C403 1.429 . S
C387 H409 0.950 . S
C388 H384 0.949 . S
C388 C396 1.574 . S
C388 C404 1.368 . S
H389 C397 0.950 . S
H390 C395 0.950 . S
H391 C396 0.949 . S
H392 C398 0.950 . S
H393 C399 0.950 . S
H394 C400 0.949 . S
C395 H390 0.950 . S
C395 C397 1.327 . S
C395 C401 1.429 . S
C396 C388 1.574 . S
C396 H391 0.949 . S
C396 C402 1.368 . S
C397 C381 1.349 . S
C397 H389 0.950 . S
C397 C395 1.327 . S
C398 C386 1.349 . S
C398 H392 0.950 . S
C398 C399 1.327 . S
C399 H393 0.950 . S
C399 C398 1.327 . S
C399 C403 1.429 . S
C400 C383 1.574 . S
C400 H394 0.949 . S
C400 C404 1.368 . S
C401 C382 1.429 . S
C401 C395 1.429 . S
C401 C402 1.523 . S
C402 C383 1.368 . S
C402 C396 1.368 . S
C402 C401 1.523 . S
C403 C387 1.429 . S
C403 C399 1.429 . S
C403 C404 1.523 . S
C404 C388 1.368 . S
C404 C400 1.368 . S
C404 C403 1.523 . S
H405 C380 0.950 . S
H406 C382 0.950 . S
H407 C383 0.949 . S
H408 C385 0.950 . S
H409 C387 0.950 . S
C410 C411 1.349 . S
C410 C412 1.327 . S
C410 H435 0.950 . S
C411 C410 1.349 . S
C411 C427 1.349 . S
C412 C410 1.327 . S
C412 C431 1.429 . S
C412 H436 0.950 . S
C413 C430 1.574 . S
C413 C432 1.368 . S
C413 H437 0.949 . S
H414 C418 0.949 . S
C415 C416 1.349 . S
C415 C417 1.327 . S
C415 H438 0.950 . S
C416 C415 1.349 . S
C416 C428 1.349 . S
C417 C415 1.327 . S
C417 C433 1.429 . S
C417 H439 0.950 . S
C418 H414 0.949 . S
C418 C426 1.574 . S
C418 C434 1.368 . S
H419 C427 0.950 . S
H420 C425 0.950 . S
H421 C426 0.949 . S
H422 C428 0.950 . S
H423 C429 0.950 . S
H424 C430 0.949 . S
C425 H420 0.950 . S
C425 C427 1.327 . S
C425 C431 1.429 . S
C426 C418 1.574 . S
C426 H421 0.949 . S
C426 C432 1.368 . S
C427 C411 1.349 . S
C427 H419 0.950 . S
C427 C425 1.327 . S
C428 C416 1.349 . S
C428 H422 0.950 . S
C428 C429 1.327 . S
C429 H423 0.950 . S
C429 C428 1.327 . S
C429 C433 1.429 . S
C430 C413 1.574 . S
C430 H424 0.949 . S
C430 C434 1.368 . S
C431 C412 1.429 . S
C431 C425 1.429 . S
C431 C432 1.523 . S
C432 C413 1.368 . S
C432 C426 1.368 . S
C432 C431 1.523 . S
C433 C417 1.429 . S
C433 C429 1.429 . S
C433 C434 1.523 . S
C434 C418 1.368 . S
C434 C430 1.368 . S
C434 C433 1.523 . S
H435 C410 0.950 . S
H436 C412 0.950 . S
H437 C413 0.949 . S
H438 C415 0.950 . S
H439 C417 0.950 . S
C440 C441 1.349 . S
C440 C442 1.327 . S
C440 H465 0.950 . S
C441 C440 1.349 . S
C441 C457 1.349 1_554 S
C442 C440 1.327 . S
C442 C461 1.429 . S
C442 H466 0.950 . S
C443 C460 1.574 . S
C443 C462 1.367 1_456 S
C443 H467 0.949 1_455 S
H444 C448 0.949 . S
C445 C446 1.349 1_556 S
C445 C447 1.327 . S
C445 H468 0.950 . S
C446 C445 1.349 1_554 S
C446 C458 1.349 . S
C447 C445 1.327 . S
C447 C463 1.429 1_556 S
C447 H469 0.950 . S
C448 H444 0.949 . S
C448 C456 1.574 . S
C448 C464 1.368 . S
H449 C457 0.950 . S
H450 C455 0.950 . S
H451 C456 0.949 . S
H452 C458 0.950 . S
H453 C459 0.950 . S
H454 C460 0.949 . S
C455 H450 0.950 . S
C455 C457 1.327 . S
C455 C461 1.429 1_556 S
C456 C448 1.574 . S
C456 H451 0.949 . S
C456 C462 1.366 1_455 S
C457 C441 1.349 1_556 S
C457 H449 0.950 . S
C457 C455 1.327 . S
C458 C446 1.349 . S
C458 H452 0.950 . S
C458 C459 1.327 . S
C459 H453 0.950 . S
C459 C458 1.327 . S
C459 C463 1.429 . S
C460 C443 1.574 . S
C460 H454 0.949 . S
C460 C464 1.368 1_556 S
C461 C442 1.429 . S
C461 C455 1.429 1_554 S
C461 C462 1.528 . S
C462 C443 1.367 1_654 S
C462 C456 1.366 1_655 S
C462 C461 1.528 . S
C463 C447 1.429 1_554 S
C463 C459 1.429 . S
C463 C464 1.523 . S
C464 C448 1.368 . S
C464 C460 1.368 1_554 S
C464 C463 1.523 . S
H465 C440 0.950 . S
H466 C442 0.950 . S
H467 C443 0.949 1_655 S
H468 C445 0.950 . S
H469 C447 0.950 . S
C470 C471 1.349 1_556 S
C470 C472 1.327 . S
C470 H495 0.950 . S
C471 C470 1.349 1_554 S
C471 C487 1.349 . S
C472 C470 1.327 . S
C472 C491 1.429 1_556 S
C472 H496 0.950 . S
C473 C490 1.574 . S
C473 C492 1.367 1_655 S
C473 H497 0.949 . S
H474 C478 0.949 . S
C475 C476 1.349 . S
C475 C477 1.327 . S
C475 H498 0.950 . S
C476 C475 1.349 . S
C476 C488 1.349 1_554 S
C477 C475 1.327 . S
C477 C493 1.429 . S
C477 H499 0.950 . S
C478 H474 0.949 . S
C478 C486 1.574 . S
C478 C494 1.368 1_556 S
H479 C487 0.950 . S
H480 C485 0.950 . S
H481 C486 0.949 1_455 S
H482 C488 0.950 . S
H483 C489 0.950 . S
H484 C490 0.949 . S
C485 H480 0.950 . S
C485 C487 1.327 . S
C485 C491 1.429 . S
C486 C478 1.574 . S
C486 H481 0.949 1_655 S
C486 C492 1.367 1_656 S
C487 C471 1.349 . S
C487 H479 0.950 . S
C487 C485 1.327 . S
C488 C476 1.349 1_556 S
C488 H482 0.950 . S
C488 C489 1.327 . S
C489 H483 0.950 . S
C489 C488 1.327 . S
C489 C493 1.429 1_556 S
C490 C473 1.574 . S
C490 H484 0.949 . S
C490 C494 1.368 . S
C491 C472 1.429 1_554 S
C491 C485 1.429 . S
C491 C492 1.527 . S
C492 C473 1.367 1_455 S
C492 C486 1.367 1_454 S
C492 C491 1.527 . S
C493 C477 1.429 . S
C493 C489 1.429 1_554 S
C493 C494 1.523 . S
C494 C478 1.368 1_554 S
C494 C490 1.368 . S
C494 C493 1.523 . S
H495 C470 0.950 . S
H496 C472 0.950 . S
H497 C473 0.949 . S
H498 C475 0.950 . S
H499 C477 0.950 . S
C500 C501 1.349 . S
C500 C502 1.327 . S
C500 H525 0.950 . S
C501 C500 1.349 . S
C501 C517 1.349 . S
C502 C500 1.327 . S
C502 C521 1.429 . S
C502 H526 0.950 . S
C503 C520 1.574 . S
C503 C522 1.368 . S
C503 H527 0.949 . S
H504 C508 0.949 . S
C505 C506 1.349 . S
C505 C507 1.327 . S
C505 H528 0.950 . S
C506 C505 1.349 . S
C506 C518 1.349 . S
C507 C505 1.327 . S
C507 C523 1.429 . S
C507 H529 0.950 . S
C508 H504 0.949 . S
C508 C516 1.574 . S
C508 C524 1.365 1_455 S
H509 C517 0.950 . S
H510 C515 0.950 . S
H511 C516 0.949 . S
H512 C518 0.950 . S
H513 C519 0.950 . S
H514 C520 0.949 1_655 S
C515 H510 0.950 . S
C515 C517 1.327 . S
C515 C521 1.429 . S
C516 C508 1.574 . S
C516 H511 0.949 . S
C516 C522 1.368 . S
C517 C501 1.349 . S
C517 H509 0.950 . S
C517 C515 1.327 . S
C518 C506 1.349 . S
C518 H512 0.950 . S
C518 C519 1.327 . S
C519 H513 0.950 . S
C519 C518 1.327 . S
C519 C523 1.429 . S
C520 C503 1.574 . S
C520 H514 0.949 1_455 S
C520 C524 1.365 1_455 S
C521 C502 1.429 . S
C521 C515 1.429 . S
C521 C522 1.523 . S
C522 C503 1.368 . S
C522 C516 1.368 . S
C522 C521 1.523 . S
C523 C507 1.429 . S
C523 C519 1.429 . S
C523 C524 1.530 . S
C524 C508 1.365 1_655 S
C524 C520 1.365 1_655 S
C524 C523 1.530 . S
H525 C500 0.950 . S
H526 C502 0.950 . S
H527 C503 0.949 . S
H528 C505 0.950 . S
H529 C507 0.950 . S
C530 C531 1.349 . S
C530 C532 1.327 . S
C530 H555 0.950 . S
C531 C530 1.349 . S
C531 C547 1.349 . S
C532 C530 1.327 . S
C532 C551 1.429 . S
C532 H556 0.950 . S
C533 C550 1.574 . S
C533 C552 1.368 . S
C533 H557 0.949 . S
H534 C538 0.949 . S
C535 C536 1.349 . S
C535 C537 1.327 . S
C535 H558 0.950 . S
C536 C535 1.349 . S
C536 C548 1.349 . S
C537 C535 1.327 . S
C537 C553 1.429 . S
C537 H559 0.950 . S
C538 H534 0.949 . S
C538 C546 1.574 . S
C538 C554 1.365 1_655 S
H539 C547 0.950 . S
H540 C545 0.950 . S
H541 C546 0.949 . S
H542 C548 0.950 . S
H543 C549 0.950 . S
H544 C550 0.949 1_455 S
C545 H540 0.950 . S
C545 C547 1.327 . S
C545 C551 1.429 . S
C546 C538 1.574 . S
C546 H541 0.949 . S
C546 C552 1.368 . S
C547 C531 1.349 . S
C547 H539 0.950 . S
C547 C545 1.327 . S
C548 C536 1.349 . S
C548 H542 0.950 . S
C548 C549 1.327 . S
C549 H543 0.950 . S
C549 C548 1.327 . S
C549 C553 1.429 . S
C550 C533 1.574 . S
C550 H544 0.949 1_655 S
C550 C554 1.366 1_655 S
C551 C532 1.429 . S
C551 C545 1.429 . S
C551 C552 1.523 . S
C552 C533 1.368 . S
C552 C546 1.368 . S
C552 C551 1.523 . S
C553 C537 1.429 . S
C553 C549 1.429 . S
C553 C554 1.529 . S
C554 C538 1.365 1_455 S
C554 C550 1.366 1_455 S
C554 C553 1.529 . S
H555 C530 0.950 . S
H556 C532 0.950 . S
H557 C533 0.949 . S
H558 C535 0.950 . S
H559 C537 0.950 . S
C560 C561 1.349 . S
C560 C562 1.327 . S
C560 H585 0.950 . S
C561 C560 1.349 . S
C561 C577 1.349 1_554 S
C562 C560 1.327 . S
C562 C581 1.429 . S
C562 H586 0.950 1_455 S
C563 C580 1.574 . S
C563 C582 1.368 1_556 S
C563 H587 0.949 . S
H564 C568 0.949 . S
C565 C566 1.349 1_556 S
C565 C567 1.327 . S
C565 H588 0.950 . S
C566 C565 1.349 1_554 S
C566 C578 1.349 . S
C567 C565 1.327 . S
C567 C583 1.429 1_556 S
C567 H589 0.950 1_655 S
C568 H564 0.949 . S
C568 C576 1.574 . S
C568 C584 1.368 . S
H569 C577 0.950 . S
H570 C575 0.950 . S
H571 C576 0.949 . S
H572 C578 0.950 . S
H573 C579 0.950 . S
H574 C580 0.949 . S
C575 H570 0.950 . S
C575 C577 1.327 . S
C575 C581 1.429 1_556 S
C576 C568 1.574 . S
C576 H571 0.949 . S
C576 C582 1.368 1_655 S
C577 C561 1.349 1_556 S
C577 H569 0.950 . S
C577 C575 1.327 . S
C578 C566 1.349 . S
C578 H572 0.950 . S
C578 C579 1.327 . S
C579 H573 0.950 . S
C579 C578 1.327 . S
C579 C583 1.429 . S
C580 C563 1.574 . S
C580 H574 0.949 . S
C580 C584 1.368 1_456 S
C581 C562 1.429 . S
C581 C575 1.429 1_554 S
C581 C582 1.523 . S
C582 C563 1.368 1_554 S
C582 C576 1.368 1_455 S
C582 C581 1.523 . S
C583 C567 1.429 1_554 S
C583 C579 1.429 . S
C583 C584 1.523 . S
C584 C568 1.368 . S
C584 C580 1.368 1_654 S
C584 C583 1.523 . S
H585 C560 0.950 . S
H586 C562 0.950 1_655 S
H587 C563 0.949 . S
H588 C565 0.950 . S
H589 C567 0.950 1_455 S
C590 C591 1.349 . S
C590 C592 1.327 . S
C590 H615 0.950 . S
C591 C590 1.349 . S
C591 C607 1.349 . S
C592 C590 1.327 . S
C592 C611 1.429 . S
C592 H616 0.950 1_455 S
C593 C610 1.574 . S
C593 C612 1.368 . S
C593 H617 0.949 . S
H594 C598 0.949 . S
C595 C596 1.349 . S
C595 C597 1.327 . S
C595 H618 0.950 . S
C596 C595 1.349 . S
C596 C608 1.349 . S
C597 C595 1.327 . S
C597 C613 1.429 . S
C597 H619 0.950 1_655 S
C598 H594 0.949 . S
C598 C606 1.574 . S
C598 C614 1.368 . S
H599 C607 0.950 . S
H600 C605 0.950 . S
H601 C606 0.949 . S
H602 C608 0.950 . S
H603 C609 0.950 . S
H604 C610 0.949 . S
C605 H600 0.950 . S
C605 C607 1.327 . S
C605 C611 1.429 . S
C606 C598 1.574 . S
C606 H601 0.949 . S
C606 C612 1.368 1_655 S
C607 C591 1.349 . S
C607 H599 0.950 . S
C607 C605 1.327 . S
C608 C596 1.349 . S
C608 H602 0.950 . S
C608 C609 1.327 . S
C609 H603 0.950 . S
C609 C608 1.327 . S
C609 C613 1.429 . S
C610 C593 1.574 . S
C610 H604 0.949 . S
C610 C614 1.368 1_455 S
C611 C592 1.429 . S
C611 C605 1.429 . S
C611 C612 1.523 . S
C612 C593 1.368 . S
C612 C606 1.368 1_455 S
C612 C611 1.523 . S
C613 C597 1.429 . S
C613 C609 1.429 . S
C613 C614 1.523 . S
C614 C598 1.368 . S
C614 C610 1.368 1_655 S
C614 C613 1.523 . S
H615 C590 0.950 . S
H616 C592 0.950 1_655 S
H617 C593 0.949 . S
H618 C595 0.950 . S
H619 C597 0.950 1_455 S
C620 C621 1.349 . S
C620 C622 1.327 . S
C620 H645 0.950 . S
C621 C620 1.349 . S
C621 C637 1.349 1_554 S
C622 C620 1.327 . S
C622 C641 1.429 . S
C622 H646 0.950 . S
C623 C640 1.574 1_565 S
C623 C642 1.368 1_556 S
C623 H647 0.949 . S
H624 C628 0.949 . S
C625 C626 1.349 1_556 S
C625 C627 1.327 . S
C625 H648 0.950 . S
C626 C625 1.349 1_554 S
C626 C638 1.349 . S
C627 C625 1.327 . S
C627 C643 1.429 1_556 S
C627 H649 0.950 . S
C628 H624 0.949 . S
C628 C636 1.574 1_545 S
C628 C644 1.368 . S
H629 C637 0.950 . S
H630 C635 0.950 . S
H631 C636 0.949 . S
H632 C638 0.950 . S
H633 C639 0.950 . S
H634 C640 0.949 . S
C635 H630 0.950 . S
C635 C637 1.327 . S
C635 C641 1.429 1_556 S
C636 C628 1.574 1_565 S
C636 H631 0.949 . S
C636 C642 1.368 . S
C637 C621 1.349 1_556 S
C637 H629 0.950 . S
C637 C635 1.327 . S
C638 C626 1.349 . S
C638 H632 0.950 . S
C638 C639 1.327 . S
C639 H633 0.950 . S
C639 C638 1.327 . S
C639 C643 1.429 . S
C640 C623 1.574 1_545 S
C640 H634 0.949 . S
C640 C644 1.368 1_556 S
C641 C622 1.429 . S
C641 C635 1.429 1_554 S
C641 C642 1.523 . S
C642 C623 1.368 1_554 S
C642 C636 1.368 . S
C642 C641 1.523 . S
C643 C627 1.429 1_554 S
C643 C639 1.429 . S
C643 C644 1.523 . S
C644 C628 1.368 . S
C644 C640 1.368 1_554 S
C644 C643 1.523 . S
H645 C620 0.950 . S
H646 C622 0.950 . S
H647 C623 0.949 . S
H648 C625 0.950 . S
H649 C627 0.950 . S
C650 C651 1.349 . S
C650 C652 1.327 . S
C650 H675 0.950 . S
C651 C650 1.349 . S
C651 C667 1.349 . S
C652 C650 1.327 . S
C652 C671 1.429 . S
C652 H676 0.950 . S
C653 C670 1.574 1_545 S
C653 C672 1.368 . S
C653 H677 0.949 . S
H654 C658 0.949 . S
C655 C656 1.349 . S
C655 C657 1.327 . S
C655 H678 0.950 . S
C656 C655 1.349 . S
C656 C668 1.349 . S
C657 C655 1.327 . S
C657 C673 1.429 . S
C657 H679 0.950 . S
C658 H654 0.949 . S
C658 C666 1.574 1_565 S
C658 C674 1.368 . S
H659 C667 0.950 . S
H660 C665 0.950 . S
H661 C666 0.949 . S
H662 C668 0.950 . S
H663 C669 0.950 . S
H664 C670 0.949 . S
C665 H660 0.950 . S
C665 C667 1.327 . S
C665 C671 1.429 . S
C666 C658 1.574 1_545 S
C666 H661 0.949 . S
C666 C672 1.368 . S
C667 C651 1.349 . S
C667 H659 0.950 . S
C667 C665 1.327 . S
C668 C656 1.349 . S
C668 H662 0.950 . S
C668 C669 1.327 . S
C669 H663 0.950 . S
C669 C668 1.327 . S
C669 C673 1.429 . S
C670 C653 1.574 1_565 S
C670 H664 0.949 . S
C670 C674 1.368 . S
C671 C652 1.429 . S
C671 C665 1.429 . S
C671 C672 1.523 . S
C672 C653 1.368 . S
C672 C666 1.368 . S
C672 C671 1.523 . S
C673 C657 1.429 . S
C673 C669 1.429 . S
C673 C674 1.523 . S
C674 C658 1.368 . S
C674 C670 1.368 . S
C674 C673 1.523 . S
H675 C650 0.950 . S
H676 C652 0.950 . S
H677 C653 0.949 . S
H678 C655 0.950 . S
H679 C657 0.950 . S
C680 C681 1.349 1_556 S
C680 C682 1.327 . S
C680 H705 0.950 . S
C681 C680 1.349 1_554 S
C681 C697 1.349 . S
C682 C680 1.327 . S
C682 C701 1.429 1_556 S
C682 H706 0.950 . S
C683 C700 1.574 . S
C683 C702 1.368 . S
C683 H707 0.949 . S
H684 C688 0.949 . S
C685 C686 1.349 . S
C685 C687 1.327 . S
C685 H708 0.950 . S
C686 C685 1.349 . S
C686 C698 1.339 1_554 S
C687 C685 1.327 . S
C687 C703 1.429 . S
C687 H709 0.950 . S
C688 H684 0.949 . S
C688 C696 1.574 . S
C688 C704 1.368 1_556 S
H689 C697 0.950 . S
H690 C695 0.950 . S
H691 C696 0.949 . S
H692 C698 0.959 . S
H693 C699 0.950 . S
H694 C700 0.949 . S
C695 H690 0.950 . S
C695 C697 1.327 . S
C695 C701 1.429 . S
C696 C688 1.574 . S
C696 H691 0.949 . S
C696 C702 1.368 1_556 S
C697 C681 1.349 . S
C697 H689 0.950 . S
C697 C695 1.327 . S
C698 C686 1.339 1_556 S
C698 H692 0.959 . S
C698 C699 1.328 . S
C699 H693 0.950 . S
C699 C698 1.328 . S
C699 C703 1.429 1_556 S
C700 C683 1.574 . S
C700 H694 0.949 . S
C700 C704 1.368 . S
C701 C682 1.429 1_554 S
C701 C695 1.429 . S
C701 C702 1.523 . S
C702 C683 1.368 . S
C702 C696 1.368 1_554 S
C702 C701 1.523 . S
C703 C687 1.429 . S
C703 C699 1.429 1_554 S
C703 C704 1.523 . S
C704 C688 1.368 1_554 S
C704 C700 1.368 . S
C704 C703 1.523 . S
H705 C680 0.950 . S
H706 C682 0.950 . S
H707 C683 0.949 . S
H708 C685 0.950 . S
H709 C687 0.950 . S
C710 C711 1.349 1_556 S
C710 C712 1.327 . S
C710 H735 0.950 . S
C711 C710 1.349 1_554 S
C711 C727 1.349 . S
C712 C710 1.327 . S
C712 C731 1.429 1_556 S
C712 H736 0.950 . S
C713 C730 1.574 . S
C713 C732 1.368 . S
C713 H737 0.949 . S
H714 C718 0.949 . S
C715 C716 1.349 . S
C715 C717 1.327 . S
C715 H738 0.950 . S
C716 C715 1.349 . S
C716 C728 1.349 1_554 S
C717 C715 1.327 . S
C717 C733 1.429 . S
C717 H739 0.950 . S
C718 H714 0.949 . S
C718 C726 1.574 . S
C718 C734 1.368 1_556 S
H719 C727 0.950 . S
H720 C725 0.950 . S
H721 C726 0.949 . S
H722 C728 0.950 . S
H723 C729 0.950 . S
H724 C730 0.949 . S
C725 H720 0.950 . S
C725 C727 1.327 . S
C725 C731 1.429 . S
C726 C718 1.574 . S
C726 H721 0.949 . S
C726 C732 1.368 1_556 S
C727 C711 1.349 . S
C727 H719 0.950 . S
C727 C725 1.327 . S
C728 C716 1.349 1_556 S
C728 H722 0.950 . S
C728 C729 1.327 . S
C729 H723 0.950 . S
C729 C728 1.327 . S
C729 C733 1.429 1_556 S
C730 C713 1.574 . S
C730 H724 0.949 . S
C730 C734 1.368 . S
C731 C712 1.429 1_554 S
C731 C725 1.429 . S
C731 C732 1.523 . S
C732 C713 1.368 . S
C732 C726 1.368 1_554 S
C732 C731 1.523 . S
C733 C717 1.429 . S
C733 C729 1.429 1_554 S
C733 C734 1.523 . S
C734 C718 1.368 1_554 S
C734 C730 1.368 . S
C734 C733 1.523 . S
H735 C710 0.950 . S
H736 C712 0.950 . S
H737 C713 0.949 . S
H738 C715 0.950 . S
H739 C717 0.950 . S
C740 C741 1.349 . S
C740 C742 1.327 . S
C740 H765 0.950 . S
C741 C740 1.349 . S
C741 C757 1.349 . S
C742 C740 1.327 . S
C742 C761 1.429 . S
C742 H766 0.950 . S
C743 C760 1.574 . S
C743 C762 1.368 . S
C743 H767 0.949 . S
H744 C748 0.949 . S
C745 C746 1.349 . S
C745 C747 1.327 . S
C745 H768 0.950 . S
C746 C745 1.349 . S
C746 C758 1.349 . S
C747 C745 1.327 . S
C747 C763 1.429 . S
C747 H769 0.950 . S
C748 H744 0.949 . S
C748 C756 1.574 . S
C748 C764 1.368 . S
H749 C757 0.950 . S
H750 C755 0.950 . S
H751 C756 0.949 . S
H752 C758 0.950 . S
H753 C759 0.950 . S
H754 C760 0.949 . S
C755 H750 0.950 . S
C755 C757 1.327 . S
C755 C761 1.429 . S
C756 C748 1.574 . S
C756 H751 0.949 . S
C756 C762 1.368 . S
C757 C741 1.349 . S
C757 H749 0.950 . S
C757 C755 1.327 . S
C758 C746 1.349 . S
C758 H752 0.950 . S
C758 C759 1.327 . S
C759 H753 0.950 . S
C759 C758 1.327 . S
C759 C763 1.429 . S
C760 C743 1.574 . S
C760 H754 0.949 . S
C760 C764 1.368 . S
C761 C742 1.429 . S
C761 C755 1.429 . S
C761 C762 1.523 . S
C762 C743 1.368 . S
C762 C756 1.368 . S
C762 C761 1.523 . S
C763 C747 1.429 . S
C763 C759 1.429 . S
C763 C764 1.523 . S
C764 C748 1.368 . S
C764 C760 1.368 . S
C764 C763 1.523 . S
H765 C740 0.950 . S
H766 C742 0.950 . S
H767 C743 0.949 . S
H768 C745 0.950 . S
H769 C747 0.950 . S
C770 C771 1.349 . S
C770 C772 1.327 . S
C770 H795 0.950 . S
C771 C770 1.349 . S
C771 C787 1.349 . S
C772 C770 1.327 . S
C772 C791 1.429 . S
C772 H796 0.950 . S
C773 C790 1.574 . S
C773 C792 1.368 . S
C773 H797 0.949 . S
H774 C778 0.949 . S
C775 C776 1.349 . S
C775 C777 1.327 . S
C775 H798 0.950 . S
C776 C775 1.349 . S
C776 C788 1.349 . S
C777 C775 1.327 . S
C777 C793 1.429 . S
C777 H799 0.950 . S
C778 H774 0.949 . S
C778 C786 1.574 . S
C778 C794 1.368 . S
H779 C787 0.950 . S
H780 C785 0.950 . S
H781 C786 0.949 . S
H782 C788 0.950 . S
H783 C789 0.950 . S
H784 C790 0.949 . S
C785 H780 0.950 . S
C785 C787 1.327 . S
C785 C791 1.429 . S
C786 C778 1.574 . S
C786 H781 0.949 . S
C786 C792 1.368 . S
C787 C771 1.349 . S
C787 H779 0.950 . S
C787 C785 1.327 . S
C788 C776 1.349 . S
C788 H782 0.950 . S
C788 C789 1.327 . S
C789 H783 0.950 . S
C789 C788 1.327 . S
C789 C793 1.429 . S
C790 C773 1.574 . S
C790 H784 0.949 . S
C790 C794 1.368 . S
C791 C772 1.429 . S
C791 C785 1.429 . S
C791 C792 1.523 . S
C792 C773 1.368 . S
C792 C786 1.368 . S
C792 C791 1.523 . S
C793 C777 1.429 . S
C793 C789 1.429 . S
C793 C794 1.523 . S
C794 C778 1.368 . S
C794 C790 1.368 . S
C794 C793 1.523 . S
H795 C770 0.950 . S
H796 C772 0.950 . S
H797 C773 0.949 . S
H798 C775 0.950 . S
H799 C777 0.950 . S
C800 C801 1.349 . S
C800 C802 1.327 . S
C800 H825 0.950 . S
C801 C800 1.349 . S
C801 C817 1.349 . S
C802 C800 1.327 . S
C802 C821 1.429 . S
C802 H826 0.950 . S
C803 C820 1.574 . S
C803 C822 1.368 1_655 S
C803 H827 0.949 . S
H804 C808 0.949 . S
C805 C806 1.349 . S
C805 C807 1.327 . S
C805 H828 0.950 . S
C806 C805 1.349 . S
C806 C818 1.349 . S
C807 C805 1.327 . S
C807 C823 1.429 . S
C807 H829 0.950 . S
C808 H804 0.949 . S
C808 C816 1.574 . S
C808 C824 1.368 1_455 S
H809 C817 0.944 1_655 S
H810 C815 0.950 1_655 S
H811 C816 0.949 . S
H812 C818 0.944 1_455 S
H813 C819 0.950 1_455 S
H814 C820 0.949 . S
C815 H810 0.950 1_455 S
C815 C817 1.327 . S
C815 C821 1.429 . S
C816 C808 1.574 . S
C816 H811 0.949 . S
C816 C822 1.368 . S
C817 C801 1.349 . S
C817 H809 0.944 1_455 S
C817 C815 1.327 . S
C818 C806 1.349 . S
C818 H812 0.944 1_655 S
C818 C819 1.327 . S
C819 H813 0.950 1_655 S
C819 C818 1.327 . S
C819 C823 1.429 . S
C820 C803 1.574 . S
C820 H814 0.949 . S
C820 C824 1.368 . S
C821 C802 1.429 . S
C821 C815 1.429 . S
C821 C822 1.523 . S
C822 C803 1.368 1_455 S
C822 C816 1.368 . S
C822 C821 1.523 . S
C823 C807 1.429 . S
C823 C819 1.429 . S
C823 C824 1.523 . S
C824 C808 1.368 1_655 S
C824 C820 1.368 . S
C824 C823 1.523 . S
H825 C800 0.950 . S
H826 C802 0.950 . S
H827 C803 0.949 . S
H828 C805 0.950 . S
H829 C807 0.950 . S
C830 C831 1.349 . S
C830 C832 1.327 . S
C830 H855 0.950 1_655 S
C831 C830 1.349 . S
C831 C847 1.349 . S
C832 C830 1.327 . S
C832 C851 1.429 . S
C832 H856 0.950 1_655 S
C833 C850 1.574 . S
C833 C852 1.368 . S
C833 H857 0.949 . S
H834 C838 0.949 . S
C835 C836 1.349 . S
C835 C837 1.327 . S
C835 H858 0.950 1_455 S
C836 C835 1.349 . S
C836 C848 1.349 . S
C837 C835 1.327 . S
C837 C853 1.429 . S
C837 H859 0.950 1_455 S
C838 H834 0.949 . S
C838 C846 1.574 . S
C838 C854 1.368 . S
H839 C847 0.950 . S
H840 C845 0.950 . S
H841 C846 0.949 . S
H842 C848 0.950 . S
H843 C849 0.950 . S
H844 C850 0.949 . S
C845 H840 0.950 . S
C845 C847 1.327 . S
C845 C851 1.429 . S
C846 C838 1.574 . S
C846 H841 0.949 . S
C846 C852 1.368 1_455 S
C847 C831 1.349 . S
C847 H839 0.950 . S
C847 C845 1.327 . S
C848 C836 1.349 . S
C848 H842 0.950 . S
C848 C849 1.327 . S
C849 H843 0.950 . S
C849 C848 1.327 . S
C849 C853 1.429 . S
C850 C833 1.574 . S
C850 H844 0.949 . S
C850 C854 1.368 1_655 S
C851 C832 1.429 . S
C851 C845 1.429 . S
C851 C852 1.523 . S
C852 C833 1.368 . S
C852 C846 1.368 1_655 S
C852 C851 1.523 . S
C853 C837 1.429 . S
C853 C849 1.429 . S
C853 C854 1.523 . S
C854 C838 1.368 . S
C854 C850 1.368 1_455 S
C854 C853 1.523 . S
H855 C830 0.950 1_455 S
H856 C832 0.950 1_455 S
H857 C833 0.949 . S
H858 C835 0.950 1_655 S
H859 C837 0.950 1_655 S
C860 C861 1.349 . S
C860 C862 1.327 . S
C860 H885 0.950 . S
C861 C860 1.349 . S
C861 C877 1.349 . S
C862 C860 1.327 . S
C862 C881 1.429 . S
C862 H886 0.950 . S
C863 C880 1.574 . S
C863 C882 1.368 1_455 S
C863 H887 0.949 . S
H864 C868 0.949 . S
C865 C866 1.349 . S
C865 C867 1.327 . S
C865 H888 0.950 . S
C866 C865 1.349 . S
C866 C878 1.349 . S
C867 C865 1.327 . S
C867 C883 1.429 . S
C867 H889 0.950 . S
C868 H864 0.949 . S
C868 C876 1.574 . S
C868 C884 1.368 1_655 S
H869 C877 0.944 1_455 S
H870 C875 0.950 1_455 S
H871 C876 0.949 . S
H872 C878 0.945 1_655 S
H873 C879 0.950 1_655 S
H874 C880 0.949 . S
C875 H870 0.950 1_655 S
C875 C877 1.327 . S
C875 C881 1.429 . S
C876 C868 1.574 . S
C876 H871 0.949 . S
C876 C882 1.368 . S
C877 C861 1.349 . S
C877 H869 0.944 1_655 S
C877 C875 1.327 . S
C878 C866 1.349 . S
C878 H872 0.945 1_455 S
C878 C879 1.327 . S
C879 H873 0.950 1_455 S
C879 C878 1.327 . S
C879 C883 1.429 . S
C880 C863 1.574 . S
C880 H874 0.949 . S
C880 C884 1.368 . S
C881 C862 1.429 . S
C881 C875 1.429 . S
C881 C882 1.523 . S
C882 C863 1.368 1_655 S
C882 C876 1.368 . S
C882 C881 1.523 . S
C883 C867 1.429 . S
C883 C879 1.429 . S
C883 C884 1.523 . S
C884 C868 1.368 1_455 S
C884 C880 1.368 . S
C884 C883 1.523 . S
H885 C860 0.950 . S
H886 C862 0.950 . S
H887 C863 0.949 . S
H888 C865 0.950 . S
H889 C867 0.950 . S
C890 C891 1.349 . S
C890 C892 1.327 . S
C890 H915 0.950 1_655 S
C891 C890 1.349 . S
C891 C907 1.349 . S
C892 C890 1.327 . S
C892 C911 1.429 . S
C892 H916 0.950 1_655 S
C893 C910 1.574 . S
C893 C912 1.368 . S
C893 H917 0.949 . S
H894 C898 0.949 . S
C895 C896 1.349 . S
C895 C897 1.327 . S
C895 H918 0.950 1_455 S
C896 C895 1.349 . S
C896 C908 1.349 . S
C897 C895 1.327 . S
C897 C913 1.429 . S
C897 H919 0.950 1_455 S
C898 H894 0.949 . S
C898 C906 1.574 . S
C898 C914 1.368 . S
H899 C907 0.950 . S
H900 C905 0.950 . S
H901 C906 0.949 . S
H902 C908 0.950 . S
H903 C909 0.950 . S
H904 C910 0.949 . S
C905 H900 0.950 . S
C905 C907 1.327 . S
C905 C911 1.429 . S
C906 C898 1.574 . S
C906 H901 0.949 . S
C906 C912 1.368 1_455 S
C907 C891 1.349 . S
C907 H899 0.950 . S
C907 C905 1.327 . S
C908 C896 1.349 . S
C908 H902 0.950 . S
C908 C909 1.327 . S
C909 H903 0.950 . S
C909 C908 1.327 . S
C909 C913 1.429 . S
C910 C893 1.574 . S
C910 H904 0.949 . S
C910 C914 1.368 1_655 S
C911 C892 1.429 . S
C911 C905 1.429 . S
C911 C912 1.523 . S
C912 C893 1.368 . S
C912 C906 1.368 1_655 S
C912 C911 1.523 . S
C913 C897 1.429 . S
C913 C909 1.429 . S
C913 C914 1.523 . S
C914 C898 1.368 . S
C914 C910 1.368 1_455 S
C914 C913 1.523 . S
H915 C890 0.950 1_455 S
H916 C892 0.950 1_455 S
H917 C893 0.949 . S
H918 C895 0.950 1_655 S
H919 C897 0.950 1_655 S
C920 C921 1.349 . S
C920 C922 1.327 . S
C920 H945 0.950 . S
C921 C920 1.349 . S
C921 C937 1.349 . S
C922 C920 1.327 . S
C922 C941 1.429 . S
C922 H946 0.950 . S
C923 C940 1.574 . S
C923 C942 1.368 . S
C923 H947 0.949 . S
H924 C928 0.949 . S
C925 C926 1.349 . S
C925 C927 1.327 . S
C925 H948 0.950 . S
C926 C925 1.349 . S
C926 C938 1.349 . S
C927 C925 1.327 . S
C927 C943 1.429 . S
C927 H949 0.950 . S
C928 H924 0.949 . S
C928 C936 1.574 . S
C928 C944 1.368 . S
H929 C937 0.950 . S
H930 C935 0.950 . S
H931 C936 0.949 . S
H932 C938 0.950 . S
H933 C939 0.950 . S
H934 C940 0.949 . S
C935 H930 0.950 . S
C935 C937 1.327 . S
C935 C941 1.429 . S
C936 C928 1.574 . S
C936 H931 0.949 . S
C936 C942 1.368 . S
C937 C921 1.349 . S
C937 H929 0.950 . S
C937 C935 1.327 . S
C938 C926 1.349 . S
C938 H932 0.950 . S
C938 C939 1.327 . S
C939 H933 0.950 . S
C939 C938 1.327 . S
C939 C943 1.429 . S
C940 C923 1.574 . S
C940 H934 0.949 . S
C940 C944 1.368 . S
C941 C922 1.429 . S
C941 C935 1.429 . S
C941 C942 1.523 . S
C942 C923 1.368 . S
C942 C936 1.368 . S
C942 C941 1.523 . S
C943 C927 1.429 . S
C943 C939 1.429 . S
C943 C944 1.523 . S
C944 C928 1.368 . S
C944 C940 1.368 . S
C944 C943 1.523 . S
H945 C920 0.950 . S
H946 C922 0.950 . S
H947 C923 0.949 . S
H948 C925 0.950 . S
H949 C927 0.950 . S
C950 C951 1.349 . S
C950 C952 1.327 . S
C950 H975 0.950 . S
C951 C950 1.349 . S
C951 C967 1.349 . S
C952 C950 1.327 . S
C952 C971 1.429 . S
C952 H976 0.950 . S
C953 C970 1.574 . S
C953 C972 1.368 . S
C953 H977 0.949 . S
H954 C958 0.949 . S
C955 C956 1.349 . S
C955 C957 1.327 . S
C955 H978 0.950 . S
C956 C955 1.349 . S
C956 C968 1.349 . S
C957 C955 1.327 . S
C957 C973 1.429 . S
C957 H979 0.950 . S
C958 H954 0.949 . S
C958 C966 1.574 . S
C958 C974 1.368 . S
H959 C967 0.950 . S
H960 C965 0.950 . S
H961 C966 0.949 . S
H962 C968 0.950 . S
H963 C969 0.950 . S
H964 C970 0.949 . S
C965 H960 0.950 . S
C965 C967 1.327 . S
C965 C971 1.429 . S
C966 C958 1.574 . S
C966 H961 0.949 . S
C966 C972 1.368 . S
C967 C951 1.349 . S
C967 H959 0.950 . S
C967 C965 1.327 . S
C968 C956 1.349 . S
C968 H962 0.950 . S
C968 C969 1.327 . S
C969 H963 0.950 . S
C969 C968 1.327 . S
C969 C973 1.429 . S
C970 C953 1.574 . S
C970 H964 0.949 . S
C970 C974 1.368 . S
C971 C952 1.429 . S
C971 C965 1.429 . S
C971 C972 1.523 . S
C972 C953 1.368 . S
C972 C966 1.368 . S
C972 C971 1.523 . S
C973 C957 1.429 . S
C973 C969 1.429 . S
C973 C974 1.523 . S
C974 C958 1.368 . S
C974 C970 1.368 . S
C974 C973 1.523 . S
H975 C950 0.950 . S
H976 C952 0.950 . S
H977 C953 0.949 . S
H978 C955 0.950 . S
H979 C957 0.950 . S
C980 C981 1.349 . S
C980 C982 1.327 . S
C980 H1005 0.950 . S
C981 C980 1.349 . S
C981 C997 1.349 . S
C982 C980 1.327 . S
C982 C1001 1.429 . S
C982 H1006 0.950 . S
C983 C1000 1.574 . S
C983 C1002 1.368 . S
C983 H1007 0.949 . S
H984 C988 0.949 . S
C985 C986 1.349 . S
C985 C987 1.327 . S
C985 H1008 0.950 . S
C986 C985 1.349 . S
C986 C998 1.349 . S
C987 C985 1.327 . S
C987 C1003 1.429 . S
C987 H1009 0.950 . S
C988 H984 0.949 . S
C988 C996 1.574 . S
C988 C1004 1.368 . S
H989 C997 0.950 . S
H990 C995 0.950 . S
H991 C996 0.949 . S
H992 C998 0.950 . S
H993 C999 0.950 . S
H994 C1000 0.949 . S
C995 H990 0.950 . S
C995 C997 1.327 . S
C995 C1001 1.429 . S
C996 C988 1.574 . S
C996 H991 0.949 . S
C996 C1002 1.368 . S
C997 C981 1.349 . S
C997 H989 0.950 . S
C997 C995 1.327 . S
C998 C986 1.349 . S
C998 H992 0.950 . S
C998 C999 1.327 . S
C999 H993 0.950 . S
C999 C998 1.327 . S
C999 C1003 1.429 . S
C1000 C983 1.574 . S
C1000 H994 0.949 . S
C1000 C1004 1.368 . S
C1001 C982 1.429 . S
C1001 C995 1.429 . S
C1001 C1002 1.523 . S
C1002 C983 1.368 . S
C1002 C996 1.368 . S
C1002 C1001 1.523 . S
C1003 C987 1.429 . S
C1003 C999 1.429 . S
C1003 C1004 1.523 . S
C1004 C988 1.368 . S
C1004 C1000 1.368 . S
C1004 C1003 1.523 . S
H1005 C980 0.950 . S
H1006 C982 0.950 . S
H1007 C983 0.949 . S
H1008 C985 0.950 . S
H1009 C987 0.950 . S
C1010 C1011 1.349 . S
C1010 C1012 1.327 . S
C1010 H1035 0.950 . S
C1011 C1010 1.349 . S
C1011 C1027 1.349 . S
C1012 C1010 1.327 . S
C1012 C1031 1.429 . S
C1012 H1036 0.950 . S
C1013 C1030 1.574 . S
C1013 C1032 1.368 . S
C1013 H1037 0.949 . S
H1014 C1018 0.949 . S
C1015 C1016 1.349 . S
C1015 C1017 1.327 . S
C1015 H1038 0.950 . S
C1016 C1015 1.349 . S
C1016 C1028 1.349 . S
C1017 C1015 1.327 . S
C1017 C1033 1.429 . S
C1017 H1039 0.950 . S
C1018 H1014 0.949 . S
C1018 C1026 1.574 . S
C1018 C1034 1.368 . S
H1019 C1027 0.950 . S
H1020 C1025 0.950 . S
H1021 C1026 0.949 . S
H1022 C1028 0.950 . S
H1023 C1029 0.950 . S
H1024 C1030 0.949 . S
C1025 H1020 0.950 . S
C1025 C1027 1.327 . S
C1025 C1031 1.429 . S
C1026 C1018 1.574 . S
C1026 H1021 0.949 . S
C1026 C1032 1.368 . S
C1027 C1011 1.349 . S
C1027 H1019 0.950 . S
C1027 C1025 1.327 . S
C1028 C1016 1.349 . S
C1028 H1022 0.950 . S
C1028 C1029 1.327 . S
C1029 H1023 0.950 . S
C1029 C1028 1.327 . S
C1029 C1033 1.429 . S
C1030 C1013 1.574 . S
C1030 H1024 0.949 . S
C1030 C1034 1.368 . S
C1031 C1012 1.429 . S
C1031 C1025 1.429 . S
C1031 C1032 1.523 . S
C1032 C1013 1.368 . S
C1032 C1026 1.368 . S
C1032 C1031 1.523 . S
C1033 C1017 1.429 . S
C1033 C1029 1.429 . S
C1033 C1034 1.523 . S
C1034 C1018 1.368 . S
C1034 C1030 1.368 . S
C1034 C1033 1.523 . S
H1035 C1010 0.950 . S
H1036 C1012 0.950 . S
H1037 C1013 0.949 . S
H1038 C1015 0.950 . S
H1039 C1017 0.950 . S
C321 C10 2.358 . S
C326 C19 2.358 . S
C351 C50 2.358 . S
C356 C59 2.358 . S
C381 C90 2.358 . S
C386 C99 2.358 . S
C411 C130 2.358 . S
C416 C139 2.358 . S
C441 C170 2.358 . S
C446 C179 2.358 . S
C471 C219 2.358 . S
C476 C210 2.358 . S
C501 C250 2.358 . S
C506 C259 2.358 . S
C531 C299 2.358 . S
C536 C290 2.358 . S
C561 C46 2.471 . S
C566 C15 2.471 . S
C591 C135 2.471 . S
C596 C86 2.471 . S
C621 C175 2.471 . S
C626 C206 2.471 . S
C651 C246 2.471 . S
C656 C295 2.471 . S
C681 C6 1.748 . S
C686 C215 1.748 . S
C711 C166 1.748 . S
C716 C55 1.748 . S
C741 C95 1.748 . S
C746 C286 1.748 . S
C771 C126 1.748 . S
C776 C255 1.748 . S
C801 C9 1.602 . S
C806 C129 1.602 . S
C831 C49 1.471 . S
C836 C89 1.471 . S
C861 C58 1.601 . S
C866 C98 1.601 . S
C891 C138 1.471 . S
C896 C18 1.471 . S
C921 C169 1.602 . S
C926 C289 1.602 . S
C951 C209 1.471 . S
C956 C249 1.471 . S
C981 C218 1.602 . S
C986 C258 1.602 . S
C1011 C298 1.471 . S
C1016 C178 1.471 . S
