# Generated by pormake.
# Topology vby, (6)-cn, num edge types: 1
# Building blocks:
#     Node 0, Type 0, BuildingBlock: BETDAH_clean_sbu_0, # of connection points: 6
#     Node 1, Type 0, BuildingBlock: BETDAH_clean_sbu_0, # of connection points: 6
#     Node 2, Type 0, BuildingBlock: BETDAH_clean_sbu_0, # of connection points: 6
#     Node 3, Type 0, BuildingBlock: BETDAH_clean_sbu_0, # of connection points: 6
#     Node 4, Type 0, BuildingBlock: BETDAH_clean_sbu_0, # of connection points: 6
#     Node 5, Type 0, BuildingBlock: BETDAH_clean_sbu_0, # of connection points: 6
#     Node 6, Type 0, BuildingBlock: BETDAH_clean_sbu_0, # of connection points: 6
#     Node 7, Type 0, BuildingBlock: BETDAH_clean_sbu_0, # of connection points: 6
#     Edge 8, Type (0, 0), BuildingBlock: KIFKEQ_clean_linker_1, # of connection points: 2
#     Edge 9, Type (0, 0), BuildingBlock: KIFKEQ_clean_linker_1, # of connection points: 2
#     Edge 10, Type (0, 0), BuildingBlock: KIFKEQ_clean_linker_1, # of connection points: 2
#     Edge 11, Type (0, 0), BuildingBlock: KIFKEQ_clean_linker_1, # of connection points: 2
#     Edge 12, Type (0, 0), BuildingBlock: KIFKEQ_clean_linker_1, # of connection points: 2
#     Edge 13, Type (0, 0), BuildingBlock: KIFKEQ_clean_linker_1, # of connection points: 2
#     Edge 14, Type (0, 0), BuildingBlock: KIFKEQ_clean_linker_1, # of connection points: 2
#     Edge 15, Type (0, 0), BuildingBlock: KIFKEQ_clean_linker_1, # of connection points: 2
#     Edge 16, Type (0, 0), BuildingBlock: KIFKEQ_clean_linker_1, # of connection points: 2
#     Edge 17, Type (0, 0), BuildingBlock: KIFKEQ_clean_linker_1, # of connection points: 2
#     Edge 18, Type (0, 0), BuildingBlock: KIFKEQ_clean_linker_1, # of connection points: 2
#     Edge 19, Type (0, 0), BuildingBlock: KIFKEQ_clean_linker_1, # of connection points: 2
#     Edge 20, Type (0, 0), BuildingBlock: KIFKEQ_clean_linker_1, # of connection points: 2
#     Edge 21, Type (0, 0), BuildingBlock: KIFKEQ_clean_linker_1, # of connection points: 2
#     Edge 22, Type (0, 0), BuildingBlock: KIFKEQ_clean_linker_1, # of connection points: 2
#     Edge 23, Type (0, 0), BuildingBlock: KIFKEQ_clean_linker_1, # of connection points: 2
#     Edge 24, Type (0, 0), BuildingBlock: KIFKEQ_clean_linker_1, # of connection points: 2
#     Edge 25, Type (0, 0), BuildingBlock: KIFKEQ_clean_linker_1, # of connection points: 2
#     Edge 26, Type (0, 0), BuildingBlock: KIFKEQ_clean_linker_1, # of connection points: 2
#     Edge 27, Type (0, 0), BuildingBlock: KIFKEQ_clean_linker_1, # of connection points: 2
#     Edge 28, Type (0, 0), BuildingBlock: KIFKEQ_clean_linker_1, # of connection points: 2
#     Edge 29, Type (0, 0), BuildingBlock: KIFKEQ_clean_linker_1, # of connection points: 2
#     Edge 30, Type (0, 0), BuildingBlock: KIFKEQ_clean_linker_1, # of connection points: 2
#     Edge 31, Type (0, 0), BuildingBlock: KIFKEQ_clean_linker_1, # of connection points: 2
# Relax obj value: 0.203
# Max RMSD: 0.219
# Mean RMSD: 0.219
data_MOF--net-vby--node1-BETDAH_clean_sbu_0--edge1-KIFKEQ_clean_linker_1
_symmetry_space_group_name_H-M    P1
_symmetry_Int_Tables_number       1
_symmetry_cell_setting            triclinic
loop_
_symmetry_equiv_pos_as_xyz
'x, y, z'
_cell_length_a     15.798268
_cell_length_b     104.0436
_cell_length_c     29.649272
_cell_angle_alpha  90.155423
_cell_angle_beta   84.540759
_cell_angle_gamma 89.813312
loop_
_atom_site_label
_atom_site_type_symbol
_atom_site_fract_x
_atom_site_fract_y
_atom_site_fract_z
_atom_type_partial_charge
Ho0 Ho 0.05591 0.40584 0.01027 0.0
Ho1 Ho 0.0533 0.37551 0.02729 0.0
C2 C 0.87763 0.39005 0.01607 0.0
C3 C 0.03453 0.42951 0.9859 0.0
C4 C 0.05777 0.4432 0.99264 0.0
C5 C 0.08631 0.45066 0.95481 0.0
C6 C 0.09576 0.46401 0.95866 0.0
C7 C 0.07645 0.47033 1.00049 0.0
C8 C 0.05094 0.46276 0.03876 0.0
C9 C 0.04157 0.44939 0.03488 0.0
C10 C 0.06724 0.39795 0.09694 0.0
C11 C 0.23337 0.391 0.01189 0.0
C12 C 0.05422 0.35289 0.06416 0.0
C13 C 0.09243 0.3399 0.05722 0.0
C14 C 0.08886 0.33136 0.09386 0.0
C15 C 0.11955 0.31875 0.08813 0.0
C16 C 0.15477 0.3143 0.04545 0.0
C17 C 0.15978 0.323 0.00884 0.0
C18 C 0.12876 0.33566 0.01464 0.0
C19 C 0.06822 0.38085 0.93631 0.0
O20 O 0.9224 0.39986 0.99821 0.0
O21 O 0.91375 0.38029 0.03563 0.0
O22 O 0.98787 0.42381 0.01881 0.0
O23 O 0.09085 0.42176 0.96468 0.0
O24 O 0.10434 0.40807 0.07897 0.0
O25 O 1.02171 0.39293 0.06887 0.0
O26 O 0.19083 0.38104 0.03046 0.0
O27 O 0.19488 0.40108 0.99538 0.0
O28 O 0.99984 0.35647 0.03589 0.0
O29 O 0.1044 0.36226 0.07441 0.0
O30 O 0.0692 0.36936 0.95308 0.0
O31 O 0.06311 0.38852 0.96925 0.0
H32 H 0.09865 0.4462 0.92176 0.0
H33 H 0.11707 0.4694 0.92855 0.0
H34 H 0.03471 0.46722 0.07149 0.0
H35 H 1.01876 0.44399 0.06473 0.0
H36 H 0.06126 0.33441 0.12704 0.0
H37 H 0.11585 0.31248 0.11733 0.0
H38 H 0.1858 0.31995 0.97541 0.0
H39 H 0.13203 0.34206 0.98577 0.0
Ho40 Ho 1.02192 0.66058 0.01475 0.0
Ho41 Ho 1.00794 0.63225 0.0308 0.0
C42 C 0.83567 0.64769 0.03307 0.0
C43 C 1.01528 0.68438 0.9878 0.0
C44 C 0.9666 0.69665 0.99243 0.0
C45 C 0.96255 0.70441 0.95404 0.0
C46 C 0.92758 0.71682 0.95786 0.0
C47 C 0.89567 0.72184 1.0003 0.0
C48 C 0.897 0.71385 0.0386 0.0
C49 C 0.93227 0.70141 0.03474 0.0
C50 C 1.0306 0.65354 0.1025 0.0
C51 C 0.19477 0.64552 0.01605 0.0
C52 C 1.01102 0.60839 0.05759 0.0
C53 C 0.03713 0.595 0.04513 0.0
C54 C 0.07159 0.58722 0.07748 0.0
C55 C 0.08417 0.574 0.06988 0.0
C56 C 0.06224 0.56817 0.02967 0.0
C57 C 1.03073 0.5761 0.99651 0.0
C58 C 1.01827 0.58934 1.00413 0.0
C59 C 1.00672 0.63921 0.94211 0.0
O60 O 0.88126 0.65686 0.01185 0.0
O61 O 0.87345 0.6382 0.05289 0.0
O62 O 0.0537 0.6806 0.02252 0.0
O63 O 0.98356 0.67477 0.96647 0.0
O64 O 0.07309 0.66282 0.08247 0.0
O65 O 0.98031 0.64887 0.07615 0.0
O66 O 0.14856 0.63612 0.03584 0.0
O67 O 0.15805 0.65516 0.99639 0.0
O68 O 0.95014 0.61348 0.03672 0.0
O69 O 0.06928 0.61677 0.06556 0.0
O70 O 0.964 0.6298 0.96105 0.0
O71 O 0.05337 0.64389 0.9701 0.0
H72 H 0.98884 0.70101 0.92105 0.0
H73 H 0.92639 0.72253 0.92746 0.0
H74 H 0.87365 0.71736 0.0719 0.0
H75 H 0.93491 0.69569 0.06503 0.0
H76 H 0.08569 0.59128 0.10961 0.0
H77 H 0.1077 0.56827 0.09647 0.0
H78 H 1.01445 0.57205 0.9648 0.0
H79 H 0.99143 0.59505 0.97849 0.0
Ho80 Ho 0.05213 0.66026 0.52811 0.0
Ho81 Ho 0.06039 0.63152 0.5133 0.0
C82 C 0.23763 0.64565 0.51372 0.0
C83 C 0.06297 0.68397 0.55563 0.0
C84 C 0.11097 0.69621 0.54933 0.0
C85 C 0.11923 0.70407 0.58721 0.0
C86 C 0.15378 0.71644 0.58218 0.0
C87 C 0.18108 0.72133 0.53898 0.0
C88 C 0.17555 0.71325 0.5011 0.0
C89 C 0.14065 0.70085 0.50618 0.0
C90 C 0.03925 0.65301 0.44097 0.0
C91 C 0.87897 0.64611 0.52562 0.0
C92 C 0.03668 0.60775 0.48983 0.0
C93 C 0.0598 0.59394 0.49227 0.0
C94 C 0.044 0.5859 0.45595 0.0
C95 C 0.05171 0.57252 0.45927 0.0
C96 C 0.07583 0.56679 0.49907 0.0
C97 C 0.09526 0.5749 0.53485 0.0
C98 C 0.08677 0.58834 0.53162 0.0
C99 C 0.0715 0.6392 0.60024 0.0
O100 O 0.19335 0.65609 0.52686 0.0
O101 O 0.20054 0.63495 0.5018 0.0
O102 O 1.01854 0.68032 0.52298 0.0
O103 O 0.09858 0.67429 0.5747 0.0
O104 O 1.00126 0.66285 0.46053 0.0
O105 O 0.08832 0.648 0.46734 0.0
O106 O 0.92513 0.63722 0.50266 0.0
O107 O 0.91603 0.6552 0.54775 0.0
O108 O 0.9998 0.61316 0.5264 0.0
O109 O 0.08717 0.61561 0.46576 0.0
O110 O 0.11403 0.62969 0.58076 0.0
O111 O 1.02203 0.64382 0.57335 0.0
H112 H 0.09658 0.70077 0.62083 0.0
H113 H 0.15831 0.72223 0.61225 0.0
H114 H 0.1953 0.71666 0.46728 0.0
H115 H 0.13468 0.69505 0.47628 0.0
H116 H 1.02255 0.58996 0.42536 0.0
H117 H 0.0375 0.56664 0.43078 0.0
H118 H 0.11363 0.57084 0.56608 0.0
H119 H 0.09863 0.5943 0.56034 0.0
Ho120 Ho 0.99409 0.40515 0.5278 0.0
Ho121 Ho 1.00697 0.37681 0.5114 0.0
C122 C 0.18054 0.39176 0.51272 0.0
C123 C 0.99491 0.42898 0.55549 0.0
C124 C 1.0252 0.44232 0.54693 0.0
C125 C 1.02454 0.45083 0.58377 0.0
C126 C 0.04019 0.46397 0.577 0.0
C127 C 0.05743 0.46902 0.53303 0.0
C128 C 0.06096 0.46035 0.49613 0.0
C129 C 0.04466 0.44717 0.50298 0.0
C130 C 0.99483 0.39813 0.43881 0.0
C131 C 0.82152 0.39011 0.52806 0.0
C132 C 0.99713 0.35308 0.48366 0.0
C133 C 0.95219 0.34064 0.49313 0.0
C134 C 0.91069 0.33469 0.4588 0.0
C135 C 0.87716 0.32225 0.46458 0.0
C136 C 0.88466 0.31535 0.50485 0.0
C137 C 0.92438 0.32146 0.53969 0.0
C138 C 0.95768 0.33392 0.53394 0.0
C139 C 1.01211 0.38347 0.6001 0.0
O140 O 0.13469 0.40131 0.53211 0.0
O141 O 0.14357 0.38206 0.49345 0.0
O142 O 0.94164 0.42435 0.52867 0.0
O143 O 0.04799 0.42026 0.56764 0.0
O144 O 0.95143 0.40756 0.45769 0.0
O145 O 0.04048 0.39336 0.46712 0.0
O146 O 0.8674 0.38095 0.50657 0.0
O147 O 0.85894 0.39947 0.54867 0.0
O148 O 0.04901 0.35701 0.51247 0.0
O149 O 0.95505 0.36258 0.46746 0.0
O150 O 0.04984 0.37367 0.58033 0.0
O151 O 0.96449 0.3886 0.57318 0.0
H152 H 1.00851 0.44737 0.61796 0.0
H153 H 0.03525 0.47022 0.60638 0.0
H154 H 0.07536 0.46374 0.46179 0.0
H155 H 0.04512 0.44083 0.47391 0.0
H156 H 0.90642 0.33952 0.42676 0.0
H157 H 0.84803 0.31788 0.43673 0.0
H158 H 0.93032 0.31658 0.57145 0.0
H159 H 0.98941 0.33816 0.56114 0.0
Ho160 Ho 0.5593 0.90477 0.00708 0.0
Ho161 Ho 0.553 0.87609 0.02132 0.0
C162 C 0.37957 0.8901 0.0178 0.0
C163 C 0.53271 0.92843 0.98318 0.0
C164 C 0.54211 0.94241 0.99153 0.0
C165 C 0.47742 0.95062 0.97951 0.0
C166 C 0.48222 0.9639 0.98598 0.0
C167 C 0.55197 0.96944 1.00492 0.0
C168 C 0.61745 0.96118 0.01679 0.0
C169 C 0.61251 0.94778 0.01023 0.0
C170 C 0.56862 0.89735 0.09438 0.0
C171 C 0.7374 0.89067 0.00719 0.0
C172 C 0.56606 0.85234 0.04781 0.0
C173 C 0.61337 0.84001 0.03879 0.0
C174 C 0.65898 0.83463 0.07262 0.0
C175 C 0.69411 0.82223 0.06761 0.0
C176 C 0.68422 0.81479 0.02866 0.0
C177 C 0.64051 0.82035 0.99424 0.0
C178 C 0.6055 0.83276 0.99924 0.0
C179 C 0.54074 0.88327 0.93404 0.0
O180 O 0.42592 0.89875 0.99415 0.0
O181 O 0.41673 0.88125 0.04098 0.0
O182 O 0.59885 0.92166 0.9673 0.0
O183 O 0.48181 0.92203 0.01209 0.0
O184 O 0.60863 0.90708 0.0755 0.0
O185 O 0.52113 0.8925 0.06701 0.0
O186 O 0.69366 0.88034 0.0212 0.0
O187 O 0.69951 0.90121 0.99434 0.0
O188 O 0.51569 0.85616 0.01804 0.0
O189 O 0.60499 0.86194 0.06544 0.0
O190 O 0.50395 0.87336 0.95323 0.0
O191 O 0.58896 0.88833 0.96069 0.0
H192 H 0.42277 0.94673 0.96471 0.0
H193 H 0.43139 0.96986 0.97542 0.0
H194 H 0.67192 0.96505 0.03172 0.0
H195 H 0.66332 0.94165 0.01981 0.0
H196 H 0.66554 0.83989 0.10367 0.0
H197 H 0.72846 0.81845 0.09458 0.0
H198 H 0.63046 0.81494 0.96397 0.0
H199 H 0.57004 0.83649 0.9726 0.0
Ho200 Ho 0.49895 0.16015 0.02086 0.0
Ho201 Ho 0.48623 0.13152 0.03438 0.0
C202 C 0.31334 0.14689 0.03756 0.0
C203 C 0.48937 0.18413 0.99614 0.0
C204 C 0.44057 0.19637 1.00424 0.0
C205 C 0.39969 0.20192 0.96892 0.0
C206 C 0.36351 0.21426 0.97354 0.0
C207 C 0.36758 0.22147 0.01359 0.0
C208 C 0.4066 0.21574 0.0494 0.0
C209 C 0.44265 0.20339 0.04479 0.0
C210 C 0.50765 0.15248 0.10781 0.0
C211 C 0.67243 0.14504 0.02042 0.0
C212 C 0.48996 0.10751 0.05944 0.0
C213 C 0.518 0.09416 0.04722 0.0
C214 C 0.55426 0.08659 0.07956 0.0
C215 C 0.56779 0.07336 0.07249 0.0
C216 C 0.54492 0.06731 0.03287 0.0
C217 C 0.51189 0.07503 0.99962 0.0
C218 C 0.49854 0.08828 0.0067 0.0
C219 C 0.48562 0.13928 0.94647 0.0
O220 O 0.35864 0.15628 0.01746 0.0
O221 O 0.35124 0.13724 0.05643 0.0
O222 O 0.53425 0.18006 0.02804 0.0
O223 O 0.45437 0.17466 0.97557 0.0
O224 O 0.54827 0.16211 0.08903 0.0
O225 O 0.45806 0.14788 0.08093 0.0
O226 O 0.62677 0.13544 0.03922 0.0
O227 O 0.63525 0.15484 1.00181 0.0
O228 O 0.43074 0.11257 0.03725 0.0
O229 O 0.54627 0.11597 0.0695 0.0
O230 O 0.44389 0.12957 0.96398 0.0
O231 O 0.53122 0.14375 0.97526 0.0
H232 H 0.39768 0.19684 0.93709 0.0
H233 H 0.33293 0.21818 0.94543 0.0
H234 H 0.41219 0.22097 0.08059 0.0
H235 H 0.47442 0.19954 0.07261 0.0
H236 H 0.56883 0.09081 0.11136 0.0
H237 H 0.59253 0.06778 0.09911 0.0
H238 H 0.49484 0.07081 0.96834 0.0
H239 H 0.47029 0.0938 0.98106 0.0
Ho240 Ho 0.54099 0.16124 0.52755 0.0
Ho241 Ho 0.55187 0.13248 0.52244 0.0
C242 C 0.72761 0.14718 0.51506 0.0
C243 C 0.54892 0.18569 0.54643 0.0
C244 C 0.60053 0.19765 0.54206 0.0
C245 C 0.60139 0.20583 0.57976 0.0
C246 C 0.63861 0.21805 0.57562 0.0
C247 C 0.67609 0.22248 0.5335 0.0
C248 C 0.67756 0.21407 0.49599 0.0
C249 C 0.64017 0.20183 0.50018 0.0
C250 C 0.52321 0.15155 0.44406 0.0
C251 C 0.3676 0.14643 0.53145 0.0
C252 C 0.54237 0.10778 0.51268 0.0
C253 C 0.5361 0.0935 0.50953 0.0
C254 C 0.55264 0.08697 0.468 0.0
C255 C 0.55159 0.07345 0.46623 0.0
C256 C 0.53474 0.06613 0.50603 0.0
C257 C 0.51672 0.07274 0.54733 0.0
C258 C 0.51728 0.08619 0.54905 0.0
C259 C 0.56564 0.14277 0.60592 0.0
O260 O 0.68287 0.15766 0.52697 0.0
O261 O 0.69049 0.13627 0.50567 0.0
O262 O 0.5201 0.18107 0.50991 0.0
O263 O 0.57065 0.17664 0.57367 0.0
O264 O 0.48251 0.16142 0.46173 0.0
O265 O 0.57613 0.14758 0.47042 0.0
O266 O 0.4132 0.13662 0.51381 0.0
O267 O 0.40478 0.15652 0.54808 0.0
O268 O 0.51964 0.11382 0.55054 0.0
O269 O 0.56838 0.11532 0.47889 0.0
O270 O 0.61291 0.13358 0.58792 0.0
O271 O 0.51312 0.14615 0.57863 0.0
H272 H 0.57033 0.20295 0.61231 0.0
H273 H 0.63489 0.22421 0.60523 0.0
H274 H 0.70692 0.21699 0.46314 0.0
H275 H 0.64042 0.19578 0.47038 0.0
H276 H 0.56763 0.0923 0.43694 0.0
H277 H 0.56625 0.06872 0.43383 0.0
H278 H 0.50204 0.06749 0.57858 0.0
H279 H 0.50419 0.09086 0.58167 0.0
Ho280 Ho 0.50045 0.9039 0.52463 0.0
Ho281 Ho 0.5135 0.87552 0.50898 0.0
C282 C 0.68498 0.89021 0.5118 0.0
C283 C 0.50927 0.92774 0.55159 0.0
C284 C 0.52362 0.94133 0.53752 0.0
C285 C 0.56932 0.94935 0.56452 0.0
C286 C 0.57572 0.96257 0.556 0.0
C287 C 0.53656 0.96819 0.52006 0.0
C288 C 0.49249 0.96005 0.49223 0.0
C289 C 0.48598 0.94678 0.50088 0.0
C290 C 0.49817 0.8969 0.43595 0.0
C291 C 0.32674 0.88878 0.52727 0.0
C292 C 0.50533 0.85163 0.48285 0.0
C293 C 0.45972 0.83924 0.49258 0.0
C294 C 0.41139 0.83381 0.45998 0.0
C295 C 0.37708 0.82142 0.46576 0.0
C296 C 0.39055 0.81403 0.50424 0.0
C297 C 0.43729 0.81962 0.53739 0.0
C298 C 0.47144 0.83202 0.53164 0.0
C299 C 0.52297 0.88267 0.59674 0.0
O300 O 0.63757 0.89897 0.53485 0.0
O301 O 0.64869 0.88121 0.48878 0.0
O302 O 0.43963 0.9222 0.54152 0.0
O303 O 0.57395 0.91986 0.54839 0.0
O304 O 0.45745 0.90657 0.45483 0.0
O305 O 0.54433 0.89205 0.46382 0.0
O306 O 0.37196 0.87917 0.50803 0.0
O307 O 0.36454 0.89866 0.54476 0.0
O308 O 0.55517 0.85576 0.5124 0.0
O309 O 0.46479 0.86103 0.46493 0.0
O310 O 0.56387 0.87315 0.5769 0.0
O311 O 0.47301 0.88742 0.57039 0.0
H312 H 0.598 0.94544 0.59332 0.0
H313 H 0.60898 0.96844 0.57875 0.0
H314 H 0.46246 0.96393 0.46386 0.0
H315 H 0.45008 0.94084 0.47951 0.0
H316 H 0.40183 0.83904 0.42931 0.0
H317 H 0.3404 0.8176 0.43976 0.0
H318 H 0.45022 0.81426 0.56722 0.0
H319 H 0.50913 0.83578 0.5573 0.0
H320 H 0.35019 0.40581 0.96067 0.0
H321 H 0.3312 0.37597 0.06197 0.0
H322 H 0.50478 0.40534 0.95974 0.0
H323 H 0.48461 0.3759 0.06283 0.0
H324 H 0.76688 0.36983 0.02851 0.0
H325 H 0.61354 0.36994 0.02512 0.0
H326 H 0.62114 0.41077 0.99825 0.0
H327 H 0.77493 0.41046 0.99944 0.0
C328 C 0.37891 0.39921 0.98301 0.0
C329 C 0.32793 0.39089 0.0112 0.0
C330 C 0.46789 0.39898 0.98275 0.0
C331 C 0.50845 0.39056 0.01119 0.0
C332 C 0.45687 0.38233 0.03962 0.0
C333 C 0.36824 0.38243 0.03937 0.0
C334 C 0.73582 0.37883 0.0218 0.0
C335 C 0.78358 0.39013 0.01428 0.0
C336 C 0.64736 0.37893 0.02014 0.0
C337 C 0.60362 0.39039 0.01161 0.0
C338 C 0.65181 0.40169 1.00411 0.0
C339 C 0.74042 0.40154 1.00511 0.0
H340 H 0.30341 0.66567 0.99893 0.0
H341 H 0.29938 0.62571 0.03766 0.0
H342 H 0.45526 0.66645 1.00542 0.0
H343 H 0.45284 0.62623 0.04196 0.0
H344 H 0.71713 0.63366 0.08592 0.0
H345 H 0.56349 0.63319 0.08246 0.0
H346 H 0.58823 0.66073 0.97308 0.0
H347 H 0.74051 0.66165 0.97834 0.0
C348 C 0.33523 0.65696 0.00814 0.0
C349 C 0.28886 0.64561 0.01756 0.0
C350 C 0.42298 0.65738 0.01168 0.0
C351 C 0.46774 0.6464 0.02408 0.0
C352 C 0.42118 0.63498 0.03309 0.0
C353 C 0.33295 0.63462 0.0302 0.0
C354 C 0.6895 0.6397 0.06144 0.0
C355 C 0.74137 0.64776 0.03266 0.0
C356 C 0.60115 0.63934 0.05908 0.0
C357 C 0.56218 0.64689 0.02737 0.0
C358 C 0.61462 0.65495 0.99865 0.0
C359 C 0.70258 0.65545 1.00151 0.0
H360 H 0.77726 0.62584 0.50838 0.0
H361 H 0.76832 0.66632 0.54044 0.0
H362 H 0.62378 0.6257 0.50606 0.0
H363 H 0.61548 0.66648 0.53533 0.0
H364 H 0.33099 0.66118 0.56413 0.0
H365 H 0.48375 0.6611 0.56834 0.0
H366 H 0.51084 0.63107 0.46668 0.0
H367 H 0.35698 0.63067 0.46492 0.0
C368 C 0.74241 0.63476 0.51456 0.0
C369 C 0.78504 0.64607 0.52481 0.0
C370 C 0.65407 0.63473 0.5128 0.0
C371 C 0.60582 0.64609 0.52027 0.0
C372 C 0.64915 0.65744 0.53028 0.0
C373 C 0.73729 0.65739 0.53298 0.0
C374 C 0.36967 0.65459 0.54258 0.0
C375 C 0.33166 0.64594 0.51417 0.0
C376 C 0.45786 0.65458 0.54475 0.0
C377 C 0.51113 0.6461 0.51782 0.0
C378 C 0.47271 0.63758 0.4888 0.0
C379 C 0.38419 0.6374 0.4874 0.0
H380 H 0.70217 0.40427 0.58056 0.0
H381 H 0.72744 0.37607 0.47306 0.0
H382 H 0.54849 0.40462 0.57718 0.0
H383 H 0.57502 0.37684 0.46795 0.0
H384 H 0.29036 0.37159 0.49558 0.0
H385 H 0.44269 0.371 0.50124 0.0
H386 H 0.43768 0.41139 0.53618 0.0
H387 H 0.28409 0.41175 0.53265 0.0
C388 C 0.67497 0.39817 0.55609 0.0
C389 C 0.72734 0.39008 0.52732 0.0
C390 C 0.58661 0.39845 0.55379 0.0
C391 C 0.54819 0.39078 0.52218 0.0
C392 C 0.60111 0.38271 0.49342 0.0
C393 C 0.68911 0.38231 0.49618 0.0
C394 C 0.32175 0.38038 0.50425 0.0
C395 C 0.27471 0.39173 0.51352 0.0
C396 C 0.40969 0.38007 0.50732 0.0
C397 C 0.45375 0.39116 0.51911 0.0
C398 C 0.40651 0.40257 0.52783 0.0
C399 C 0.31821 0.40283 0.52538 0.0
H400 H 0.83188 0.87553 0.0584 0.0
H401 H 0.85602 0.90533 0.95718 0.0
H402 H 0.98474 0.8756 0.06206 0.0
H403 H 1.01004 0.90489 0.95839 0.0
H404 H 0.27766 0.91022 0.99846 0.0
H405 H 0.12412 0.91043 0.99638 0.0
H406 H 0.11616 0.86993 0.02936 0.0
H407 H 0.26907 0.87007 0.03425 0.0
C408 C 0.87017 0.88197 0.03631 0.0
C409 C 0.83156 0.89043 0.00748 0.0
C410 C 0.95846 0.88196 0.03814 0.0
C411 C 1.01134 0.89022 0.01045 0.0
C412 C 0.9723 0.89856 0.98107 0.0
C413 C 0.88366 0.89876 0.97999 0.0
C414 C 0.24287 0.90139 0.00548 0.0
C415 C 0.28563 0.89015 0.01675 0.0
C416 C 0.15446 0.90145 1.00387 0.0
C417 C 0.10621 0.89019 0.01252 0.0
C418 C 0.14974 0.87891 0.02342 0.0
C419 C 0.23795 0.87893 0.02599 0.0
H420 H 0.19478 0.1324 0.08863 0.0
H421 H 0.21821 0.16134 0.98425 0.0
H422 H 0.04117 0.132 0.085 0.0
H423 H 0.06597 0.16052 0.97878 0.0
H424 H 0.78087 0.16532 1.00529 0.0
H425 H 0.93284 0.16599 0.01169 0.0
H426 H 0.93078 0.12546 0.04364 0.0
H427 H 0.77734 0.12502 0.03945 0.0
C428 C 0.16718 0.13866 0.06481 0.0
C429 C 0.21905 0.14696 0.03699 0.0
C430 C 0.07884 0.13835 0.06234 0.0
C431 C 0.0399 0.1462 0.03147 0.0
C432 C 0.09234 0.1545 1.0037 0.0
C433 C 0.18029 0.15494 0.00667 0.0
C434 C 0.81281 0.15652 0.01346 0.0
C435 C 0.76657 0.1451 0.02167 0.0
C436 C 0.90061 0.15688 0.01695 0.0
C437 C 0.94548 0.14577 0.0281 0.0
C438 C 0.89904 0.13429 0.0358 0.0
C439 C 0.81081 0.13399 0.03296 0.0
H440 H 0.2622 0.1259 0.52206 0.0
H441 H 0.26074 0.16718 0.53671 0.0
H442 H 0.10882 0.12617 0.51811 0.0
H443 H 0.10869 0.16762 0.5301 0.0
H444 H 0.82288 0.16406 0.55943 0.0
H445 H 0.97534 0.16366 0.56478 0.0
H446 H 0.99891 0.13081 0.47465 0.0
H447 H 0.84533 0.13083 0.47167 0.0
C448 C 0.2291 0.13505 0.52418 0.0
C449 C 0.27375 0.1465 0.53005 0.0
C450 C 0.14094 0.13524 0.52145 0.0
C451 C 0.0951 0.14693 0.52362 0.0
C452 C 0.14046 0.15838 0.52925 0.0
C453 C 0.22822 0.15815 0.53284 0.0
C454 C 0.86071 0.1568 0.54052 0.0
C455 C 0.82174 0.14749 0.51508 0.0
C456 C 0.94871 0.15659 0.54339 0.0
C457 C 1.00078 0.14719 0.52019 0.0
C458 C 0.96155 0.13804 0.49391 0.0
C459 C 0.87324 0.13811 0.49176 0.0
H460 H 0.77718 0.90354 0.56998 0.0
H461 H 0.80608 0.87661 0.45856 0.0
H462 H 0.92967 0.90279 0.57581 0.0
H463 H 0.95942 0.87625 0.46293 0.0
H464 H 0.22337 0.86881 0.50673 0.0
H465 H 0.06965 0.86906 0.50394 0.0
H466 H 0.06264 0.90912 0.54322 0.0
H467 H 0.21545 0.90866 0.54785 0.0
C468 C 0.81625 0.89757 0.54627 0.0
C469 C 0.77902 0.89016 0.51373 0.0
C470 C 0.90424 0.89718 0.54946 0.0
C471 C 0.9581 0.88946 0.51985 0.0
C472 C 0.9206 0.88214 0.48699 0.0
C473 C 0.83238 0.88242 0.48416 0.0
C474 C 0.18889 0.87765 0.51515 0.0
C475 C 0.23215 0.8887 0.52773 0.0
C476 C 0.10044 0.87783 0.51313 0.0
C477 C 0.05258 0.88913 0.52312 0.0
C478 C 0.0962 0.90015 0.536 0.0
C479 C 0.18442 0.89991 0.5385 0.0
H480 H 0.95127 0.5521 0.9912 0.0
H481 H 0.18631 0.5516 0.05454 0.0
H482 H 0.95745 0.52881 0.98368 0.0
H483 H 0.19259 0.52825 0.04694 0.0
H484 H 0.12815 0.4854 0.06956 0.0
H485 H 0.12603 0.50879 0.07584 0.0
H486 H 1.03109 0.51144 0.94432 0.0
H487 H 1.02973 0.48811 0.93892 0.0
C488 C 1.00507 0.54707 1.00295 0.0
C489 C 0.06837 0.55385 0.02341 0.0
C490 C 1.00858 0.53364 0.99867 0.0
C491 C 0.07556 0.52652 0.01467 0.0
C492 C 0.13925 0.53331 0.03484 0.0
C493 C 0.1357 0.54676 0.03915 0.0
C494 C 0.10627 0.49095 0.04207 0.0
C495 C 0.07911 0.48474 1.00372 0.0
C496 C 0.10598 0.50442 0.04544 0.0
C497 C 0.07829 0.51212 0.01063 0.0
C498 C 0.05188 0.50591 0.97213 0.0
C499 C 0.05225 0.49245 0.96875 0.0
H500 H 0.13004 0.48683 0.58694 0.0
H501 H 1.00733 0.48389 0.46321 0.0
H502 H 0.13487 0.51006 0.57905 0.0
H503 H 1.01758 0.50703 0.45366 0.0
H504 H 0.95812 0.54959 0.47382 0.0
H505 H 0.95751 0.52632 0.48108 0.0
H506 H 0.19602 0.52797 0.54116 0.0
H507 H 0.19487 0.55138 0.53498 0.0
C508 C 0.10436 0.49108 0.55785 0.0
C509 C 0.06754 0.4833 0.52599 0.0
C510 C 0.10831 0.50449 0.55295 0.0
C511 C 0.07623 0.51063 0.51579 0.0
C512 C 0.04158 0.50281 0.48327 0.0
C513 C 0.03699 0.48941 0.48837 0.0
C514 C 1.01086 0.54499 0.48829 0.0
C515 C 0.07677 0.55243 0.50359 0.0
C516 C 1.01075 0.53157 0.49233 0.0
C517 C 0.07702 0.52506 0.51146 0.0
C518 C 0.14307 0.53252 0.52682 0.0
C519 C 0.14268 0.546 0.52317 0.0
H520 H 0.42047 0.98581 0.03289 0.0
H521 H 0.69051 0.9857 0.99286 0.0
H522 H 0.42206 1.00911 0.039 0.0
H523 H 0.69215 1.00915 0.99938 0.0
H524 H 0.67039 0.05083 0.05715 0.0
H525 H 0.67466 0.02737 0.05216 0.0
H526 H 0.43769 0.02774 0.99069 0.0
H527 H 0.43202 0.05105 0.99696 0.0
C528 C 0.48032 0.99074 0.02508 0.0
C529 C 0.55519 0.98376 0.01179 0.0
C530 C 0.48118 1.00417 0.02859 0.0
C531 C 0.55701 1.01113 0.01914 0.0
C532 C 0.63254 1.00416 0.00718 0.0
C533 C 0.63164 0.99067 1.00352 0.0
C534 C 0.61899 0.04591 0.04271 0.0
C535 C 0.55081 0.05295 0.0275 0.0
C536 C 0.62186 0.03243 0.03946 0.0
C537 C 0.5563 0.02556 0.02124 0.0
C538 C 0.48881 0.03262 0.00553 0.0
C539 C 0.48614 0.04607 0.00856 0.0
H540 H 0.6032 0.04992 0.56574 0.0
H541 H 0.47307 0.04957 0.44416 0.0
H542 H 0.60456 0.02652 0.56621 0.0
H543 H 0.47613 0.02603 0.44404 0.0
H544 H 0.41108 0.98423 0.49334 0.0
H545 H 0.41293 1.00762 0.48702 0.0
H546 H 0.66969 1.00817 0.52531 0.0
H547 H 0.66854 0.98483 0.531 0.0
C548 C 0.57471 0.04486 0.53906 0.0
C549 C 0.53758 0.05171 0.50505 0.0
C550 C 0.57637 0.03139 0.53904 0.0
C551 C 0.54061 0.0243 0.50512 0.0
C552 C 0.5037 0.03113 0.47094 0.0
C553 C 0.50264 0.04465 0.47075 0.0
C554 C 0.46859 0.98928 0.49968 0.0
C555 C 0.53944 0.98251 0.51305 0.0
C556 C 0.46953 1.00275 0.49613 0.0
C557 C 0.54118 1.00987 0.50604 0.0
C558 C 0.6127 1.00308 0.51829 0.0
C559 C 0.61195 0.98964 0.52162 0.0
H560 H 0.29642 0.30499 0.99379 0.0
H561 H 0.08113 0.29245 0.08322 0.0
H562 H 0.34631 0.2828 0.98569 0.0
H563 H 0.13045 0.27031 0.07495 0.0
H564 H 0.28631 0.23368 0.08842 0.0
H565 H 0.237 0.25585 0.09545 0.0
H566 H 0.31976 0.26222 0.95427 0.0
H567 H 0.37279 0.24022 0.94779 0.0
C568 C 0.25915 0.29751 0.01141 0.0
C569 C 0.18482 0.30063 0.03941 0.0
C570 C 0.28779 0.28472 0.00673 0.0
C571 C 0.24288 0.27463 0.02979 0.0
C572 C 0.16801 0.27776 0.05734 0.0
C573 C 0.13954 0.29053 0.06209 0.0
C574 C 0.29481 0.23981 0.05889 0.0
C575 C 0.3339 0.23502 0.01752 0.0
C576 C 0.26542 0.25255 0.06279 0.0
C577 C 0.27398 0.26096 0.02544 0.0
C578 C 0.3127 0.25616 0.98401 0.0
C579 C 0.34216 0.24341 0.98011 0.0
H580 H 0.75514 0.80201 0.95248 0.0
H581 H 0.68671 0.79649 0.09561 0.0
H582 H 0.80299 0.77975 0.94562 0.0
H583 H 0.7384 0.77443 0.08916 0.0
H584 H 0.758 0.73146 0.05438 0.0
H585 H 0.7076 0.75365 0.06112 0.0
H586 H 0.91241 0.76542 0.96322 0.0
H587 H 0.96212 0.74328 0.95627 0.0
C588 C 0.75028 0.79609 0.98258 0.0
C589 C 0.71676 0.80119 0.02462 0.0
C590 C 0.77883 0.7833 0.97874 0.0
C591 C 0.77495 0.77516 0.01682 0.0
C592 C 0.74169 0.78027 0.05888 0.0
C593 C 0.71305 0.79306 0.06272 0.0
C594 C 0.79262 0.73879 0.03446 0.0
C595 C 0.86406 0.73547 1.00459 0.0
C596 C 0.76373 0.75157 0.03838 0.0
C597 C 0.80557 0.76146 0.01268 0.0
C598 C 0.87723 0.75812 0.98297 0.0
C599 C 0.90591 0.74536 0.97897 0.0
H600 H 0.11889 0.74294 0.58443 0.0
H601 H 0.31354 0.7307 0.48105 0.0
H602 H 0.16805 0.76501 0.57588 0.0
H603 H 0.36352 0.75282 0.47273 0.0
H604 H 0.38177 0.7956 0.43783 0.0
H605 H 0.33047 0.7736 0.44574 0.0
H606 H 0.27933 0.77926 0.59013 0.0
H607 H 0.32661 0.80145 0.5819 0.0
C608 C 0.17295 0.74491 0.5602 0.0
C609 C 0.21229 0.73492 0.53361 0.0
C610 C 0.20133 0.75764 0.55529 0.0
C611 C 0.27022 0.76084 0.52366 0.0
C612 C 0.30951 0.75085 0.49697 0.0
C613 C 0.28088 0.73811 0.5018 0.0
C614 C 0.35845 0.79225 0.47125 0.0
C615 C 0.35834 0.80046 0.50916 0.0
C616 C 0.33006 0.7795 0.47589 0.0
C617 C 0.30065 0.7745 0.51863 0.0
C618 C 0.3004 0.78272 0.55653 0.0
C619 C 0.32868 0.79547 0.55188 0.0
H620 H 0.95997 0.29493 0.54457 0.0
H621 H 0.73943 0.3047 0.47606 0.0
H622 H 0.91226 0.27271 0.55085 0.0
H623 H 0.69125 0.28249 0.48262 0.0
H624 H 0.66793 0.23921 0.46207 0.0
H625 H 0.71942 0.26122 0.45504 0.0
H626 H 0.80918 0.25873 0.58785 0.0
H627 H 0.76135 0.23652 0.59396 0.0
C628 C 0.90067 0.2924 0.53131 0.0
C629 C 0.85374 0.30172 0.50982 0.0
C630 C 0.87317 0.27959 0.53491 0.0
C631 C 0.79767 0.27566 0.51722 0.0
C632 C 0.75048 0.28501 0.49596 0.0
C633 C 0.7781 0.29781 0.49227 0.0
C634 C 0.69984 0.24325 0.48955 0.0
C635 C 0.71026 0.23594 0.52861 0.0
C636 C 0.72838 0.25601 0.48578 0.0
C637 C 0.76833 0.26192 0.52094 0.0
C638 C 0.77958 0.25456 0.55978 0.0
C639 C 0.75108 0.2418 0.56354 0.0
H640 H 0.93883 0.38574 0.1492 0.0
H641 H 0.17962 0.40466 0.15676 0.0
H642 H 0.92107 0.38412 0.23226 0.0
H643 H 0.16308 0.40273 0.23943 0.0
H644 H 0.88286 0.4042 0.37805 0.0
H645 H 0.90141 0.40204 0.29545 0.0
H646 H 0.14935 0.38524 0.30396 0.0
H647 H 0.12968 0.38708 0.38701 0.0
C648 C 0.98866 0.38932 0.16853 0.0
C649 C 0.06051 0.39537 0.14647 0.0
C650 C 0.97834 0.38845 0.21606 0.0
C651 C 0.04065 0.39331 0.24247 0.0
C652 C 0.11422 0.39881 0.22013 0.0
C653 C 0.12356 0.39995 0.17279 0.0
C654 C 0.94089 0.39989 0.36233 0.0
C655 C 1.00486 0.39584 0.38903 0.0
C656 C 0.95133 0.3986 0.31503 0.0
C657 C 1.02685 0.39347 0.29309 0.0
C658 C 0.09052 0.38925 0.31985 0.0
C659 C 0.07919 0.39027 0.36737 0.0
H660 H 0.90815 0.64196 0.16117 0.0
H661 H 0.15835 0.65874 0.15434 0.0
H662 H 0.90944 0.6395 0.24366 0.0
H663 H 0.16048 0.65605 0.23603 0.0
H664 H 0.91234 0.65897 0.3896 0.0
H665 H 0.90971 0.6566 0.30778 0.0
H666 H 0.1574 0.63866 0.29918 0.0
H667 H 0.1591 0.64079 0.38183 0.0
C668 C 0.96385 0.64491 0.17715 0.0
C669 C 1.03288 0.65063 0.15139 0.0
C670 C 0.96458 0.64354 0.22432 0.0
C671 C 0.0352 0.64756 0.24641 0.0
C672 C 0.10555 0.65273 0.22012 0.0
C673 C 0.10404 0.65435 0.17333 0.0
C674 C 0.96572 0.65432 0.37036 0.0
C675 C 0.03611 0.65012 0.39208 0.0
C676 C 0.96394 0.6529 0.3235 0.0
C677 C 1.0333 0.64745 0.2969 0.0
C678 C 0.10304 0.64293 0.31876 0.0
C679 C 0.10398 0.6441 0.36602 0.0
H680 H 0.89378 0.63293 0.88236 0.0
H681 H 0.13999 0.65021 0.88951 0.0
H682 H 0.91035 0.63484 0.79979 0.0
H683 H 0.1576 0.65184 0.80641 0.0
H684 H 0.94139 0.6507 0.65387 0.0
H685 H 0.92577 0.65233 0.73689 0.0
H686 H 0.17188 0.63456 0.7417 0.0
H687 H 0.18657 0.63267 0.65897 0.0
C688 C 0.95125 0.63723 0.86623 0.0
C689 C 1.01563 0.6414 0.89239 0.0
C690 C 0.96055 0.63837 0.81894 0.0
C691 C 0.03529 0.64348 0.7965 0.0
C692 C 0.09939 0.64783 0.82272 0.0
C693 C 0.08922 0.64694 0.87025 0.0
C694 C 0.99247 0.64728 0.67267 0.0
C695 C 0.06503 0.6415 0.64994 0.0
C696 C 0.98341 0.64816 0.72018 0.0
C697 C 0.04758 0.64357 0.7459 0.0
C698 C 0.12162 0.63828 0.72291 0.0
C699 C 0.12985 0.63715 0.67555 0.0
H700 H 1.01833 0.40545 0.65238 0.0
H701 H 0.99172 0.3643 0.66091 0.0
H702 H 0.03421 0.40638 0.73426 0.0
H703 H 1.00313 0.36517 0.74181 0.0
H704 H 0.132 0.36591 0.86715 0.0
H705 H 0.11428 0.36795 0.78721 0.0
H706 H 0.97695 0.40359 0.81362 0.0
H707 H 0.99883 0.40172 0.8946 0.0
C708 C 1.01351 0.39668 0.67198 0.0
C709 C 1.00424 0.3848 0.65025 0.0
C710 C 1.02285 0.39718 0.71888 0.0
C711 C 1.02247 0.38581 0.74484 0.0
C712 C 1.00718 0.3741 0.72309 0.0
C713 C 0.99941 0.3736 0.67659 0.0
C714 C 0.0991 0.3743 0.85591 0.0
C715 C 0.06659 0.38361 0.88723 0.0
C716 C 0.08781 0.37541 0.80993 0.0
C717 C 0.04166 0.38574 0.79364 0.0
C718 C 1.0125 0.39546 0.82472 0.0
C719 C 1.02513 0.39443 0.87112 0.0
H720 H 0.43939 0.88548 0.14678 0.0
H721 H 0.68113 0.90416 0.15409 0.0
H722 H 0.42226 0.88373 0.22973 0.0
H723 H 0.66506 0.90212 0.23675 0.0
H724 H 0.63199 0.88579 0.3836 0.0
H725 H 0.65107 0.88428 0.30047 0.0
H726 H 0.4041 0.90155 0.29323 0.0
H727 H 0.38612 0.90338 0.37591 0.0
C728 C 0.48941 0.88902 0.16605 0.0
C729 C 0.5614 0.89502 0.14399 0.0
C730 C 0.47949 0.88806 0.2135 0.0
C731 C 0.54232 0.89279 0.23978 0.0
C732 C 0.61587 0.8983 0.21747 0.0
C733 C 0.62488 0.89952 0.17017 0.0
C734 C 0.58157 0.88915 0.3642 0.0
C735 C 0.50768 0.89475 0.38619 0.0
C736 C 0.5926 0.88833 0.31667 0.0
C737 C 0.52901 0.89279 0.29031 0.0
C738 C 0.4539 0.89794 0.31256 0.0
C739 C 0.44379 0.89903 0.35987 0.0
H740 H 0.38998 0.13945 0.16527 0.0
H741 H 0.63498 0.15787 0.15944 0.0
H742 H 0.39376 0.13623 0.24728 0.0
H743 H 0.63942 0.15454 0.24052 0.0
H744 H 0.39027 0.15477 0.39439 0.0
H745 H 0.38682 0.15205 0.31285 0.0
H746 H 0.64507 0.13787 0.30241 0.0
H747 H 0.64791 0.14046 0.38478 0.0
C748 C 0.44512 0.1426 0.18134 0.0
C749 C 0.5118 0.14901 0.15608 0.0
C750 C 0.44729 0.1408 0.22824 0.0
C751 C 0.51701 0.14512 0.25051 0.0
C752 C 0.58528 0.15096 0.22454 0.0
C753 C 0.58237 0.15296 0.17807 0.0
C754 C 0.44582 0.15083 0.37481 0.0
C755 C 0.51955 0.1479 0.39588 0.0
C756 C 0.44362 0.14919 0.32809 0.0
C757 C 0.5157 0.14479 0.30098 0.0
C758 C 0.58858 0.14135 0.32234 0.0
C759 C 0.59019 0.14276 0.36946 0.0
H760 H 0.37934 0.13226 0.884 0.0
H761 H 0.61323 0.15257 0.89763 0.0
H762 H 0.39823 0.13536 0.80193 0.0
H763 H 0.63305 0.15549 0.81512 0.0
H764 H 0.68263 0.13853 0.66569 0.0
H765 H 0.66245 0.13973 0.74843 0.0
H766 H 0.40507 0.15304 0.74133 0.0
H767 H 0.4259 0.15206 0.65827 0.0
C768 C 0.43451 0.13748 0.86942 0.0
C769 C 0.49499 0.14212 0.89721 0.0
C770 C 0.44507 0.13932 0.82243 0.0
C771 C 0.51717 0.14566 0.80194 0.0
C772 C 0.57703 0.15052 0.82987 0.0
C773 C 0.56558 0.14888 0.87707 0.0
C774 C 0.62223 0.14194 0.6818 0.0
C775 C 0.55581 0.14517 0.65552 0.0
C776 C 0.61077 0.14266 0.72918 0.0
C777 C 0.53204 0.14642 0.75151 0.0
C778 C 0.4663 0.15003 0.72514 0.0
C779 C 0.47835 0.14954 0.67761 0.0
H780 H 0.65305 0.87779 0.64725 0.0
H781 H 0.40166 0.89446 0.65609 0.0
H782 H 0.6575 0.88068 0.72875 0.0
H783 H 0.40528 0.89713 0.73841 0.0
H784 H 0.41214 0.87771 0.88354 0.0
H785 H 0.40736 0.88026 0.802 0.0
H786 H 0.65557 0.8978 0.79232 0.0
H787 H 0.65943 0.89547 0.87474 0.0
C788 C 0.59898 0.88221 0.66666 0.0
C789 C 0.52675 0.88582 0.64538 0.0
C790 C 0.60183 0.88395 0.71333 0.0
C791 C 0.53179 0.88912 0.74015 0.0
C792 C 0.46021 0.89308 0.71866 0.0
C793 C 0.45812 0.89159 0.6716 0.0
C794 C 0.46517 0.8823 0.86413 0.0
C795 C 0.53636 0.88633 0.88545 0.0
C796 C 0.46215 0.88384 0.81743 0.0
C797 C 0.53105 0.88922 0.79059 0.0
C798 C 0.60154 0.89359 0.81209 0.0
C799 C 0.60373 0.8923 0.85921 0.0
loop_
_geom_bond_atom_site_label_1
_geom_bond_atom_site_label_2
_geom_bond_distance
_geom_bond_site_symmetry_2
_ccdc_geom_bond_type
Ho0 C3 2.804 1_455 S
Ho0 O20 2.322 1_455 S
Ho0 O22 2.378 . S
Ho0 O23 2.524 1_554 S
Ho0 O24 2.381 . S
Ho0 O25 2.669 . S
Ho0 O27 2.346 . S
Ho0 O31 2.305 1_554 S
Ho1 C12 2.811 . S
Ho1 O21 2.346 1_455 S
Ho1 O25 2.305 . S
Ho1 O26 2.322 1_554 S
Ho1 O28 2.378 1_554 S
Ho1 O29 2.524 . S
Ho1 O30 2.381 1_554 S
Ho1 O31 2.669 1_554 S
C2 O20 1.259 . S
C2 O21 1.268 . S
C3 Ho0 2.804 1_655 S
C3 C4 1.495 . S
C3 O22 1.208 1_655 S
C3 O23 1.290 1_654 S
C4 C3 1.495 . S
C4 C5 1.348 1_554 S
C4 C9 1.413 . S
C5 C4 1.348 1_556 S
C5 C6 1.442 . S
C5 H32 0.930 . S
C6 C5 1.442 . S
C6 C7 1.381 1_556 S
C6 H33 0.931 . S
C7 C6 1.381 1_554 S
C7 C8 1.321 . S
C8 C7 1.321 . S
C8 C9 1.403 . S
C8 H34 0.934 . S
C9 C4 1.413 . S
C9 C8 1.403 . S
C9 H35 0.930 . S
C10 O24 1.275 . S
C10 O25 1.256 . S
C11 O26 1.259 1_554 S
C11 O27 1.268 . S
C12 Ho1 2.811 . S
C12 C13 1.488 . S
C12 O28 1.215 1_554 S
C12 O29 1.289 . S
C13 C12 1.488 . S
C13 C14 1.348 . S
C13 C18 1.413 1_554 S
C14 C13 1.348 . S
C14 C15 1.442 . S
C14 H36 0.930 . S
C15 C14 1.442 . S
C15 C16 1.381 . S
C15 H37 0.931 . S
C16 C15 1.381 . S
C16 C17 1.321 1_554 S
C17 C16 1.321 1_556 S
C17 C18 1.403 . S
C17 H38 0.934 . S
C18 C13 1.413 1_556 S
C18 C17 1.403 . S
C18 H39 0.930 . S
C19 O30 1.275 . S
C19 O31 1.256 . S
O20 Ho0 2.322 1_655 S
O20 C2 1.259 . S
O21 Ho1 2.346 1_655 S
O21 C2 1.268 . S
O22 Ho0 2.378 . S
O22 C3 1.208 1_455 S
O23 Ho0 2.524 1_556 S
O23 C3 1.290 1_456 S
O24 Ho0 2.381 . S
O24 C10 1.275 . S
O25 Ho0 2.669 . S
O25 Ho1 2.305 . S
O25 C10 1.256 . S
O26 Ho1 2.322 1_556 S
O26 C11 1.259 1_556 S
O27 Ho0 2.346 . S
O27 C11 1.268 . S
O28 Ho1 2.378 1_556 S
O28 C12 1.215 1_556 S
O29 Ho1 2.524 . S
O29 C12 1.289 . S
O30 Ho1 2.381 1_556 S
O30 C19 1.275 . S
O31 Ho0 2.305 1_556 S
O31 Ho1 2.669 1_556 S
O31 C19 1.256 . S
H32 C5 0.930 . S
H33 C6 0.931 . S
H34 C8 0.934 . S
H35 C9 0.930 . S
H36 C14 0.930 . S
H37 C15 0.931 . S
H38 C17 0.934 . S
H39 C18 0.930 . S
Ho40 C43 2.811 . S
Ho40 O60 2.322 . S
Ho40 O62 2.378 . S
Ho40 O63 2.524 1_554 S
Ho40 O64 2.381 . S
Ho40 O65 2.669 . S
Ho40 O67 2.346 1_655 S
Ho40 O71 2.305 1_554 S
Ho41 C52 2.804 1_655 S
Ho41 O61 2.346 . S
Ho41 O65 2.305 . S
Ho41 O66 2.322 1_654 S
Ho41 O68 2.378 1_554 S
Ho41 O69 2.524 . S
Ho41 O70 2.381 1_554 S
Ho41 O71 2.669 1_554 S
C42 O60 1.259 . S
C42 O61 1.268 . S
C43 Ho40 2.811 . S
C43 C44 1.488 . S
C43 O62 1.215 . S
C43 O63 1.289 1_554 S
C44 C43 1.488 . S
C44 C45 1.348 1_554 S
C44 C49 1.413 . S
C45 C44 1.348 1_556 S
C45 C46 1.442 . S
C45 H72 0.930 . S
C46 C45 1.442 . S
C46 C47 1.381 1_556 S
C46 H73 0.931 . S
C47 C46 1.381 1_554 S
C47 C48 1.321 . S
C48 C47 1.321 . S
C48 C49 1.403 . S
C48 H74 0.934 . S
C49 C44 1.413 . S
C49 C48 1.403 . S
C49 H75 0.930 . S
C50 O64 1.275 . S
C50 O65 1.256 . S
C51 O66 1.259 1_554 S
C51 O67 1.268 . S
C52 Ho41 2.804 1_455 S
C52 C53 1.496 . S
C52 O68 1.208 1_454 S
C52 O69 1.290 1_455 S
C53 C52 1.496 . S
C53 C54 1.348 . S
C53 C58 1.413 1_554 S
C54 C53 1.348 . S
C54 C55 1.442 . S
C54 H76 0.930 . S
C55 C54 1.442 . S
C55 C56 1.381 . S
C55 H77 0.931 . S
C56 C55 1.381 . S
C56 C57 1.321 1_554 S
C57 C56 1.321 1_556 S
C57 C58 1.403 . S
C57 H78 0.934 . S
C58 C53 1.413 1_556 S
C58 C57 1.403 . S
C58 H79 0.930 . S
C59 O70 1.275 . S
C59 O71 1.256 . S
O60 Ho40 2.322 . S
O60 C42 1.259 . S
O61 Ho41 2.346 . S
O61 C42 1.268 . S
O62 Ho40 2.378 . S
O62 C43 1.215 . S
O63 Ho40 2.524 1_556 S
O63 C43 1.289 1_556 S
O64 Ho40 2.381 . S
O64 C50 1.275 . S
O65 Ho40 2.669 . S
O65 Ho41 2.305 . S
O65 C50 1.256 . S
O66 Ho41 2.322 1_456 S
O66 C51 1.259 1_556 S
O67 Ho40 2.346 1_455 S
O67 C51 1.268 . S
O68 Ho41 2.378 1_556 S
O68 C52 1.208 1_656 S
O69 Ho41 2.524 . S
O69 C52 1.290 1_655 S
O70 Ho41 2.381 1_556 S
O70 C59 1.275 . S
O71 Ho40 2.305 1_556 S
O71 Ho41 2.669 1_556 S
O71 C59 1.256 . S
H72 C45 0.930 . S
H73 C46 0.931 . S
H74 C48 0.934 . S
H75 C49 0.930 . S
H76 C54 0.930 . S
H77 C55 0.931 . S
H78 C57 0.934 . S
H79 C58 0.930 . S
Ho80 C83 2.811 . S
Ho80 O100 2.322 . S
Ho80 O102 2.378 . S
Ho80 O103 2.524 . S
Ho80 O104 2.381 . S
Ho80 O105 2.669 . S
Ho80 O107 2.346 1_455 S
Ho80 O111 2.305 . S
Ho81 C92 2.806 1_455 S
Ho81 O101 2.346 . S
Ho81 O105 2.305 . S
Ho81 O106 2.322 1_455 S
Ho81 O108 2.378 . S
Ho81 O109 2.524 . S
Ho81 O110 2.381 . S
Ho81 O111 2.669 . S
C82 O100 1.259 . S
C82 O101 1.268 . S
C83 Ho80 2.811 . S
C83 C84 1.488 . S
C83 O102 1.215 . S
C83 O103 1.289 . S
C84 C83 1.488 . S
C84 C85 1.348 . S
C84 C89 1.413 . S
C85 C84 1.348 . S
C85 C86 1.442 . S
C85 H112 0.930 . S
C86 C85 1.442 . S
C86 C87 1.381 . S
C86 H113 0.931 . S
C87 C86 1.381 . S
C87 C88 1.321 . S
C88 C87 1.321 . S
C88 C89 1.403 . S
C88 H114 0.934 . S
C89 C84 1.413 . S
C89 C88 1.403 . S
C89 H115 0.930 . S
C90 O104 1.275 . S
C90 O105 1.256 . S
C91 O106 1.259 . S
C91 O107 1.268 . S
C92 Ho81 2.806 1_655 S
C92 C93 1.493 . S
C92 O108 1.211 1_655 S
C92 O109 1.289 1_655 S
C93 C92 1.493 . S
C93 C94 1.348 . S
C93 C98 1.413 . S
C94 C93 1.348 . S
C94 C95 1.442 . S
C94 H116 0.930 . S
C95 C94 1.442 . S
C95 C96 1.381 . S
C95 H117 0.931 . S
C96 C95 1.381 . S
C96 C97 1.321 . S
C97 C96 1.321 . S
C97 C98 1.403 . S
C97 H118 0.934 . S
C98 C93 1.413 . S
C98 C97 1.403 . S
C98 H119 0.930 . S
C99 O110 1.275 . S
C99 O111 1.256 . S
O100 Ho80 2.322 . S
O100 C82 1.259 . S
O101 Ho81 2.346 . S
O101 C82 1.268 . S
O102 Ho80 2.378 . S
O102 C83 1.215 . S
O103 Ho80 2.524 . S
O103 C83 1.289 . S
O104 Ho80 2.381 . S
O104 C90 1.275 . S
O105 Ho80 2.669 . S
O105 Ho81 2.305 . S
O105 C90 1.256 . S
O106 Ho81 2.322 1_655 S
O106 C91 1.259 . S
O107 Ho80 2.346 1_655 S
O107 C91 1.268 . S
O108 Ho81 2.378 . S
O108 C92 1.211 1_455 S
O109 Ho81 2.524 . S
O109 C92 1.289 1_455 S
O110 Ho81 2.381 . S
O110 C99 1.275 . S
O111 Ho80 2.305 . S
O111 Ho81 2.669 . S
O111 C99 1.256 . S
H112 C85 0.930 . S
H113 C86 0.931 . S
H114 C88 0.934 . S
H115 C89 0.930 . S
H116 C94 0.930 . S
H117 C95 0.931 . S
H118 C97 0.934 . S
H119 C98 0.930 . S
Ho120 C123 2.806 1_655 S
Ho120 O140 2.322 1_655 S
Ho120 O142 2.378 . S
Ho120 O143 2.524 . S
Ho120 O144 2.381 . S
Ho120 O145 2.669 . S
Ho120 O147 2.346 . S
Ho120 O151 2.305 . S
Ho121 C132 2.811 . S
Ho121 O141 2.346 1_655 S
Ho121 O145 2.305 . S
Ho121 O146 2.322 . S
Ho121 O148 2.378 . S
Ho121 O149 2.524 . S
Ho121 O150 2.381 . S
Ho121 O151 2.669 . S
C122 O140 1.259 . S
C122 O141 1.268 . S
C123 Ho120 2.806 1_455 S
C123 C124 1.493 . S
C123 O142 1.211 1_455 S
C123 O143 1.289 1_455 S
C124 C123 1.493 . S
C124 C125 1.348 . S
C124 C129 1.413 . S
C125 C124 1.348 . S
C125 C126 1.442 . S
C125 H152 0.930 . S
C126 C125 1.442 . S
C126 C127 1.381 . S
C126 H153 0.931 . S
C127 C126 1.381 . S
C127 C128 1.321 . S
C128 C127 1.321 . S
C128 C129 1.403 . S
C128 H154 0.934 . S
C129 C124 1.413 . S
C129 C128 1.403 . S
C129 H155 0.930 . S
C130 O144 1.275 . S
C130 O145 1.256 . S
C131 O146 1.259 . S
C131 O147 1.268 . S
C132 Ho121 2.811 . S
C132 C133 1.488 . S
C132 O148 1.215 . S
C132 O149 1.289 . S
C133 C132 1.488 . S
C133 C134 1.348 . S
C133 C138 1.413 . S
C134 C133 1.348 . S
C134 C135 1.442 . S
C134 H156 0.930 . S
C135 C134 1.442 . S
C135 C136 1.381 . S
C135 H157 0.931 . S
C136 C135 1.381 . S
C136 C137 1.321 . S
C137 C136 1.321 . S
C137 C138 1.403 . S
C137 H158 0.934 . S
C138 C133 1.413 . S
C138 C137 1.403 . S
C138 H159 0.930 . S
C139 O150 1.275 . S
C139 O151 1.256 . S
O140 Ho120 2.322 1_455 S
O140 C122 1.259 . S
O141 Ho121 2.346 1_455 S
O141 C122 1.268 . S
O142 Ho120 2.378 . S
O142 C123 1.211 1_655 S
O143 Ho120 2.524 . S
O143 C123 1.289 1_655 S
O144 Ho120 2.381 . S
O144 C130 1.275 . S
O145 Ho120 2.669 . S
O145 Ho121 2.305 . S
O145 C130 1.256 . S
O146 Ho121 2.322 . S
O146 C131 1.259 . S
O147 Ho120 2.346 . S
O147 C131 1.268 . S
O148 Ho121 2.378 . S
O148 C132 1.215 . S
O149 Ho121 2.524 . S
O149 C132 1.289 . S
O150 Ho121 2.381 . S
O150 C139 1.275 . S
O151 Ho120 2.305 . S
O151 Ho121 2.669 . S
O151 C139 1.256 . S
H152 C125 0.930 . S
H153 C126 0.931 . S
H154 C128 0.934 . S
H155 C129 0.930 . S
H156 C134 0.930 . S
H157 C135 0.931 . S
H158 C137 0.934 . S
H159 C138 0.930 . S
Ho160 C163 2.811 . S
Ho160 O180 2.322 . S
Ho160 O182 2.378 . S
Ho160 O183 2.524 1_554 S
Ho160 O184 2.381 . S
Ho160 O185 2.669 . S
Ho160 O187 2.346 . S
Ho160 O191 2.305 1_554 S
Ho161 C172 2.811 . S
Ho161 O181 2.346 . S
Ho161 O185 2.305 . S
Ho161 O186 2.322 1_554 S
Ho161 O188 2.378 1_554 S
Ho161 O189 2.524 . S
Ho161 O190 2.381 1_554 S
Ho161 O191 2.669 1_554 S
C162 O180 1.259 . S
C162 O181 1.268 . S
C163 Ho160 2.811 . S
C163 C164 1.488 . S
C163 O182 1.215 . S
C163 O183 1.289 1_554 S
C164 C163 1.488 . S
C164 C165 1.348 1_554 S
C164 C169 1.413 . S
C165 C164 1.348 1_556 S
C165 C166 1.442 . S
C165 H192 0.930 . S
C166 C165 1.442 . S
C166 C167 1.381 1_556 S
C166 H193 0.931 . S
C167 C166 1.381 1_554 S
C167 C168 1.321 . S
C168 C167 1.321 . S
C168 C169 1.403 . S
C168 H194 0.934 . S
C169 C164 1.413 . S
C169 C168 1.403 . S
C169 H195 0.930 . S
C170 O184 1.275 . S
C170 O185 1.256 . S
C171 O186 1.259 1_554 S
C171 O187 1.268 . S
C172 Ho161 2.811 . S
C172 C173 1.488 . S
C172 O188 1.215 1_554 S
C172 O189 1.289 . S
C173 C172 1.488 . S
C173 C174 1.348 . S
C173 C178 1.413 1_554 S
C174 C173 1.348 . S
C174 C175 1.442 . S
C174 H196 0.930 . S
C175 C174 1.442 . S
C175 C176 1.381 . S
C175 H197 0.931 . S
C176 C175 1.381 . S
C176 C177 1.321 1_554 S
C177 C176 1.321 1_556 S
C177 C178 1.403 . S
C177 H198 0.934 . S
C178 C173 1.413 1_556 S
C178 C177 1.403 . S
C178 H199 0.930 . S
C179 O190 1.275 . S
C179 O191 1.256 . S
O180 Ho160 2.322 . S
O180 C162 1.259 . S
O181 Ho161 2.346 . S
O181 C162 1.268 . S
O182 Ho160 2.378 . S
O182 C163 1.215 . S
O183 Ho160 2.524 1_556 S
O183 C163 1.289 1_556 S
O184 Ho160 2.381 . S
O184 C170 1.275 . S
O185 Ho160 2.669 . S
O185 Ho161 2.305 . S
O185 C170 1.256 . S
O186 Ho161 2.322 1_556 S
O186 C171 1.259 1_556 S
O187 Ho160 2.346 . S
O187 C171 1.268 . S
O188 Ho161 2.378 1_556 S
O188 C172 1.215 1_556 S
O189 Ho161 2.524 . S
O189 C172 1.289 . S
O190 Ho161 2.381 1_556 S
O190 C179 1.275 . S
O191 Ho160 2.305 1_556 S
O191 Ho161 2.669 1_556 S
O191 C179 1.256 . S
H192 C165 0.930 . S
H193 C166 0.931 . S
H194 C168 0.934 . S
H195 C169 0.930 . S
H196 C174 0.930 . S
H197 C175 0.931 . S
H198 C177 0.934 . S
H199 C178 0.930 . S
Ho200 C203 2.811 . S
Ho200 O220 2.322 . S
Ho200 O222 2.378 . S
Ho200 O223 2.524 1_554 S
Ho200 O224 2.381 . S
Ho200 O225 2.669 . S
Ho200 O227 2.346 . S
Ho200 O231 2.305 1_554 S
Ho201 C212 2.811 . S
Ho201 O221 2.346 . S
Ho201 O225 2.305 . S
Ho201 O226 2.322 1_554 S
Ho201 O228 2.378 1_554 S
Ho201 O229 2.524 . S
Ho201 O230 2.381 1_554 S
Ho201 O231 2.669 1_554 S
C202 O220 1.259 . S
C202 O221 1.268 . S
C203 Ho200 2.811 . S
C203 C204 1.488 . S
C203 O222 1.215 . S
C203 O223 1.289 1_554 S
C204 C203 1.488 . S
C204 C205 1.348 1_554 S
C204 C209 1.413 . S
C205 C204 1.348 1_556 S
C205 C206 1.442 . S
C205 H232 0.930 . S
C206 C205 1.442 . S
C206 C207 1.381 1_556 S
C206 H233 0.931 . S
C207 C206 1.381 1_554 S
C207 C208 1.321 . S
C208 C207 1.321 . S
C208 C209 1.403 . S
C208 H234 0.934 . S
C209 C204 1.413 . S
C209 C208 1.403 . S
C209 H235 0.930 . S
C210 O224 1.275 . S
C210 O225 1.256 . S
C211 O226 1.259 1_554 S
C211 O227 1.268 . S
C212 Ho201 2.811 . S
C212 C213 1.488 . S
C212 O228 1.215 1_554 S
C212 O229 1.289 . S
C213 C212 1.488 . S
C213 C214 1.348 . S
C213 C218 1.413 1_554 S
C214 C213 1.348 . S
C214 C215 1.442 . S
C214 H236 0.930 . S
C215 C214 1.442 . S
C215 C216 1.381 . S
C215 H237 0.931 . S
C216 C215 1.381 . S
C216 C217 1.321 1_554 S
C217 C216 1.321 1_556 S
C217 C218 1.403 . S
C217 H238 0.934 . S
C218 C213 1.413 1_556 S
C218 C217 1.403 . S
C218 H239 0.930 . S
C219 O230 1.275 . S
C219 O231 1.256 . S
O220 Ho200 2.322 . S
O220 C202 1.259 . S
O221 Ho201 2.346 . S
O221 C202 1.268 . S
O222 Ho200 2.378 . S
O222 C203 1.215 . S
O223 Ho200 2.524 1_556 S
O223 C203 1.289 1_556 S
O224 Ho200 2.381 . S
O224 C210 1.275 . S
O225 Ho200 2.669 . S
O225 Ho201 2.305 . S
O225 C210 1.256 . S
O226 Ho201 2.322 1_556 S
O226 C211 1.259 1_556 S
O227 Ho200 2.346 . S
O227 C211 1.268 . S
O228 Ho201 2.378 1_556 S
O228 C212 1.215 1_556 S
O229 Ho201 2.524 . S
O229 C212 1.289 . S
O230 Ho201 2.381 1_556 S
O230 C219 1.275 . S
O231 Ho200 2.305 1_556 S
O231 Ho201 2.669 1_556 S
O231 C219 1.256 . S
H232 C205 0.930 . S
H233 C206 0.931 . S
H234 C208 0.934 . S
H235 C209 0.930 . S
H236 C214 0.930 . S
H237 C215 0.931 . S
H238 C217 0.934 . S
H239 C218 0.930 . S
Ho240 C243 2.811 . S
Ho240 O260 2.322 . S
Ho240 O262 2.378 . S
Ho240 O263 2.524 . S
Ho240 O264 2.381 . S
Ho240 O265 2.669 . S
Ho240 O267 2.346 . S
Ho240 O271 2.305 . S
Ho241 C252 2.811 . S
Ho241 O261 2.346 . S
Ho241 O265 2.305 . S
Ho241 O266 2.322 . S
Ho241 O268 2.378 . S
Ho241 O269 2.524 . S
Ho241 O270 2.381 . S
Ho241 O271 2.669 . S
C242 O260 1.259 . S
C242 O261 1.268 . S
C243 Ho240 2.811 . S
C243 C244 1.488 . S
C243 O262 1.215 . S
C243 O263 1.289 . S
C244 C243 1.488 . S
C244 C245 1.348 . S
C244 C249 1.413 . S
C245 C244 1.348 . S
C245 C246 1.442 . S
C245 H272 0.930 . S
C246 C245 1.442 . S
C246 C247 1.381 . S
C246 H273 0.931 . S
C247 C246 1.381 . S
C247 C248 1.321 . S
C248 C247 1.321 . S
C248 C249 1.403 . S
C248 H274 0.934 . S
C249 C244 1.413 . S
C249 C248 1.403 . S
C249 H275 0.930 . S
C250 O264 1.275 . S
C250 O265 1.256 . S
C251 O266 1.259 . S
C251 O267 1.268 . S
C252 Ho241 2.811 . S
C252 C253 1.488 . S
C252 O268 1.215 . S
C252 O269 1.289 . S
C253 C252 1.488 . S
C253 C254 1.348 . S
C253 C258 1.413 . S
C254 C253 1.348 . S
C254 C255 1.442 . S
C254 H276 0.930 . S
C255 C254 1.442 . S
C255 C256 1.381 . S
C255 H277 0.931 . S
C256 C255 1.381 . S
C256 C257 1.321 . S
C257 C256 1.321 . S
C257 C258 1.403 . S
C257 H278 0.934 . S
C258 C253 1.413 . S
C258 C257 1.403 . S
C258 H279 0.930 . S
C259 O270 1.275 . S
C259 O271 1.256 . S
O260 Ho240 2.322 . S
O260 C242 1.259 . S
O261 Ho241 2.346 . S
O261 C242 1.268 . S
O262 Ho240 2.378 . S
O262 C243 1.215 . S
O263 Ho240 2.524 . S
O263 C243 1.289 . S
O264 Ho240 2.381 . S
O264 C250 1.275 . S
O265 Ho240 2.669 . S
O265 Ho241 2.305 . S
O265 C250 1.256 . S
O266 Ho241 2.322 . S
O266 C251 1.259 . S
O267 Ho240 2.346 . S
O267 C251 1.268 . S
O268 Ho241 2.378 . S
O268 C252 1.215 . S
O269 Ho241 2.524 . S
O269 C252 1.289 . S
O270 Ho241 2.381 . S
O270 C259 1.275 . S
O271 Ho240 2.305 . S
O271 Ho241 2.669 . S
O271 C259 1.256 . S
H272 C245 0.930 . S
H273 C246 0.931 . S
H274 C248 0.934 . S
H275 C249 0.930 . S
H276 C254 0.930 . S
H277 C255 0.931 . S
H278 C257 0.934 . S
H279 C258 0.930 . S
Ho280 C283 2.811 . S
Ho280 O300 2.322 . S
Ho280 O302 2.378 . S
Ho280 O303 2.524 . S
Ho280 O304 2.381 . S
Ho280 O305 2.669 . S
Ho280 O307 2.346 . S
Ho280 O311 2.305 . S
Ho281 C292 2.811 . S
Ho281 O301 2.346 . S
Ho281 O305 2.305 . S
Ho281 O306 2.322 . S
Ho281 O308 2.378 . S
Ho281 O309 2.524 . S
Ho281 O310 2.381 . S
Ho281 O311 2.669 . S
C282 O300 1.259 . S
C282 O301 1.268 . S
C283 Ho280 2.811 . S
C283 C284 1.488 . S
C283 O302 1.215 . S
C283 O303 1.289 . S
C284 C283 1.488 . S
C284 C285 1.348 . S
C284 C289 1.413 . S
C285 C284 1.348 . S
C285 C286 1.442 . S
C285 H312 0.930 . S
C286 C285 1.442 . S
C286 C287 1.381 . S
C286 H313 0.931 . S
C287 C286 1.381 . S
C287 C288 1.321 . S
C288 C287 1.321 . S
C288 C289 1.403 . S
C288 H314 0.934 . S
C289 C284 1.413 . S
C289 C288 1.403 . S
C289 H315 0.930 . S
C290 O304 1.275 . S
C290 O305 1.256 . S
C291 O306 1.259 . S
C291 O307 1.268 . S
C292 Ho281 2.811 . S
C292 C293 1.488 . S
C292 O308 1.215 . S
C292 O309 1.289 . S
C293 C292 1.488 . S
C293 C294 1.348 . S
C293 C298 1.413 . S
C294 C293 1.348 . S
C294 C295 1.442 . S
C294 H316 0.930 . S
C295 C294 1.442 . S
C295 C296 1.381 . S
C295 H317 0.931 . S
C296 C295 1.381 . S
C296 C297 1.321 . S
C297 C296 1.321 . S
C297 C298 1.403 . S
C297 H318 0.934 . S
C298 C293 1.413 . S
C298 C297 1.403 . S
C298 H319 0.930 . S
C299 O310 1.275 . S
C299 O311 1.256 . S
O300 Ho280 2.322 . S
O300 C282 1.259 . S
O301 Ho281 2.346 . S
O301 C282 1.268 . S
O302 Ho280 2.378 . S
O302 C283 1.215 . S
O303 Ho280 2.524 . S
O303 C283 1.289 . S
O304 Ho280 2.381 . S
O304 C290 1.275 . S
O305 Ho280 2.669 . S
O305 Ho281 2.305 . S
O305 C290 1.256 . S
O306 Ho281 2.322 . S
O306 C291 1.259 . S
O307 Ho280 2.346 . S
O307 C291 1.268 . S
O308 Ho281 2.378 . S
O308 C292 1.215 . S
O309 Ho281 2.524 . S
O309 C292 1.289 . S
O310 Ho281 2.381 . S
O310 C299 1.275 . S
O311 Ho280 2.305 . S
O311 Ho281 2.669 . S
O311 C299 1.256 . S
H312 C285 0.930 . S
H313 C286 0.931 . S
H314 C288 0.934 . S
H315 C289 0.930 . S
H316 C294 0.930 . S
H317 C295 0.931 . S
H318 C297 0.934 . S
H319 C298 0.930 . S
H320 C328 0.950 . S
H321 C333 0.950 . S
H322 C330 0.950 . S
H323 C332 0.950 . S
H324 C334 0.950 . S
H325 C336 0.950 . S
H326 C338 0.950 . S
H327 C339 0.950 . S
C328 H320 0.950 . S
C328 C329 1.386 . S
C328 C330 1.391 . S
C329 C328 1.386 . S
C329 C333 1.393 . S
C330 H322 0.950 . S
C330 C328 1.391 . S
C330 C331 1.400 . S
C331 C330 1.400 . S
C331 C332 1.398 . S
C331 C337 1.491 . S
C332 H323 0.950 . S
C332 C331 1.398 . S
C332 C333 1.391 . S
C333 H321 0.950 . S
C333 C329 1.393 . S
C333 C332 1.391 . S
C334 H324 0.950 . S
C334 C335 1.386 . S
C334 C336 1.391 . S
C335 C334 1.386 . S
C335 C339 1.393 . S
C336 H325 0.950 . S
C336 C334 1.391 . S
C336 C337 1.400 . S
C337 C331 1.491 . S
C337 C336 1.400 . S
C337 C338 1.398 . S
C338 H326 0.950 . S
C338 C337 1.398 . S
C338 C339 1.391 . S
C339 H327 0.950 . S
C339 C335 1.393 . S
C339 C338 1.391 . S
H340 C348 0.950 . S
H341 C353 0.950 . S
H342 C350 0.950 . S
H343 C352 0.950 . S
H344 C354 0.950 . S
H345 C356 0.950 . S
H346 C358 0.950 . S
H347 C359 0.950 . S
C348 H340 0.950 . S
C348 C349 1.386 . S
C348 C350 1.391 . S
C349 C348 1.386 . S
C349 C353 1.393 . S
C350 H342 0.950 . S
C350 C348 1.391 . S
C350 C351 1.400 . S
C351 C350 1.400 . S
C351 C352 1.398 . S
C351 C357 1.491 . S
C352 H343 0.950 . S
C352 C351 1.398 . S
C352 C353 1.391 . S
C353 H341 0.950 . S
C353 C349 1.393 . S
C353 C352 1.391 . S
C354 H344 0.950 . S
C354 C355 1.386 . S
C354 C356 1.391 . S
C355 C354 1.386 . S
C355 C359 1.393 . S
C356 H345 0.950 . S
C356 C354 1.391 . S
C356 C357 1.400 . S
C357 C351 1.491 . S
C357 C356 1.400 . S
C357 C358 1.398 . S
C358 H346 0.950 . S
C358 C357 1.398 . S
C358 C359 1.391 . S
C359 H347 0.950 . S
C359 C355 1.393 . S
C359 C358 1.391 . S
H360 C368 0.950 . S
H361 C373 0.950 . S
H362 C370 0.950 . S
H363 C372 0.950 . S
H364 C374 0.950 . S
H365 C376 0.950 . S
H366 C378 0.950 . S
H367 C379 0.950 . S
C368 H360 0.950 . S
C368 C369 1.386 . S
C368 C370 1.391 . S
C369 C368 1.386 . S
C369 C373 1.393 . S
C370 H362 0.950 . S
C370 C368 1.391 . S
C370 C371 1.400 . S
C371 C370 1.400 . S
C371 C372 1.398 . S
C371 C377 1.491 . S
C372 H363 0.950 . S
C372 C371 1.398 . S
C372 C373 1.391 . S
C373 H361 0.950 . S
C373 C369 1.393 . S
C373 C372 1.391 . S
C374 H364 0.950 . S
C374 C375 1.386 . S
C374 C376 1.391 . S
C375 C374 1.386 . S
C375 C379 1.393 . S
C376 H365 0.950 . S
C376 C374 1.391 . S
C376 C377 1.400 . S
C377 C371 1.491 . S
C377 C376 1.400 . S
C377 C378 1.398 . S
C378 H366 0.950 . S
C378 C377 1.398 . S
C378 C379 1.391 . S
C379 H367 0.950 . S
C379 C375 1.393 . S
C379 C378 1.391 . S
H380 C388 0.950 . S
H381 C393 0.950 . S
H382 C390 0.950 . S
H383 C392 0.950 . S
H384 C394 0.950 . S
H385 C396 0.950 . S
H386 C398 0.950 . S
H387 C399 0.950 . S
C388 H380 0.950 . S
C388 C389 1.386 . S
C388 C390 1.391 . S
C389 C388 1.386 . S
C389 C393 1.393 . S
C390 H382 0.950 . S
C390 C388 1.391 . S
C390 C391 1.400 . S
C391 C390 1.400 . S
C391 C392 1.398 . S
C391 C397 1.491 . S
C392 H383 0.950 . S
C392 C391 1.398 . S
C392 C393 1.391 . S
C393 H381 0.950 . S
C393 C389 1.393 . S
C393 C392 1.391 . S
C394 H384 0.950 . S
C394 C395 1.386 . S
C394 C396 1.391 . S
C395 C394 1.386 . S
C395 C399 1.393 . S
C396 H385 0.950 . S
C396 C394 1.391 . S
C396 C397 1.400 . S
C397 C391 1.491 . S
C397 C396 1.400 . S
C397 C398 1.398 . S
C398 H386 0.950 . S
C398 C397 1.398 . S
C398 C399 1.391 . S
C399 H387 0.950 . S
C399 C395 1.393 . S
C399 C398 1.391 . S
H400 C408 0.950 . S
H401 C413 0.950 . S
H402 C410 0.950 1_455 S
H403 C412 0.950 . S
H404 C414 0.950 . S
H405 C416 0.950 . S
H406 C418 0.950 . S
H407 C419 0.950 . S
C408 H400 0.950 . S
C408 C409 1.386 . S
C408 C410 1.391 . S
C409 C408 1.386 . S
C409 C413 1.393 . S
C410 H402 0.950 1_655 S
C410 C408 1.391 . S
C410 C411 1.400 1_655 S
C411 C410 1.400 1_455 S
C411 C412 1.398 1_455 S
C411 C417 1.491 . S
C412 H403 0.950 . S
C412 C411 1.398 1_655 S
C412 C413 1.391 . S
C413 H401 0.950 . S
C413 C409 1.393 . S
C413 C412 1.391 . S
C414 H404 0.950 . S
C414 C415 1.386 . S
C414 C416 1.391 . S
C415 C414 1.386 . S
C415 C419 1.393 . S
C416 H405 0.950 . S
C416 C414 1.391 . S
C416 C417 1.400 . S
C417 C411 1.491 . S
C417 C416 1.400 . S
C417 C418 1.398 . S
C418 H406 0.950 . S
C418 C417 1.398 . S
C418 C419 1.391 . S
C419 H407 0.950 . S
C419 C415 1.393 . S
C419 C418 1.391 . S
H420 C428 0.950 . S
H421 C433 0.950 . S
H422 C430 0.950 . S
H423 C432 0.950 1_655 S
H424 C434 0.950 . S
H425 C436 0.950 . S
H426 C438 0.953 . S
H427 C439 0.950 . S
C428 H420 0.950 . S
C428 C429 1.386 . S
C428 C430 1.391 . S
C429 C428 1.386 . S
C429 C433 1.393 . S
C430 H422 0.950 . S
C430 C428 1.391 . S
C430 C431 1.400 1_455 S
C431 C430 1.400 1_655 S
C431 C432 1.398 1_655 S
C431 C437 1.491 . S
C432 H423 0.950 1_455 S
C432 C431 1.398 1_455 S
C432 C433 1.391 . S
C433 H421 0.950 . S
C433 C429 1.393 . S
C433 C432 1.391 . S
C434 H424 0.950 . S
C434 C435 1.386 . S
C434 C436 1.391 . S
C435 C434 1.386 . S
C435 C439 1.393 . S
C436 H425 0.950 . S
C436 C434 1.391 . S
C436 C437 1.400 . S
C437 C431 1.491 . S
C437 C436 1.400 . S
C437 C438 1.398 . S
C438 H426 0.953 . S
C438 C437 1.398 . S
C438 C439 1.391 . S
C439 H427 0.950 . S
C439 C435 1.393 . S
C439 C438 1.391 . S
H440 C448 0.950 . S
H441 C453 0.950 . S
H442 C450 0.950 . S
H443 C452 0.950 . S
H444 C454 0.950 . S
H445 C456 0.950 1_455 S
H446 C458 0.950 . S
H447 C459 0.950 . S
C448 H440 0.950 . S
C448 C449 1.386 . S
C448 C450 1.391 . S
C449 C448 1.386 . S
C449 C453 1.393 . S
C450 H442 0.950 . S
C450 C448 1.391 . S
C450 C451 1.400 . S
C451 C450 1.400 . S
C451 C452 1.398 . S
C451 C457 1.491 . S
C452 H443 0.950 . S
C452 C451 1.398 . S
C452 C453 1.391 . S
C453 H441 0.950 . S
C453 C449 1.393 . S
C453 C452 1.391 . S
C454 H444 0.950 . S
C454 C455 1.386 . S
C454 C456 1.391 . S
C455 C454 1.386 . S
C455 C459 1.393 . S
C456 H445 0.950 1_655 S
C456 C454 1.391 . S
C456 C457 1.400 1_655 S
C457 C451 1.491 . S
C457 C456 1.400 1_455 S
C457 C458 1.398 1_455 S
C458 H446 0.950 . S
C458 C457 1.398 1_655 S
C458 C459 1.391 . S
C459 H447 0.950 . S
C459 C455 1.393 . S
C459 C458 1.391 . S
H460 C468 0.950 . S
H461 C473 0.950 . S
H462 C470 0.950 . S
H463 C472 0.950 . S
H464 C474 0.950 . S
H465 C476 0.950 . S
H466 C478 0.950 1_655 S
H467 C479 0.950 . S
C468 H460 0.950 . S
C468 C469 1.386 . S
C468 C470 1.391 . S
C469 C468 1.386 . S
C469 C473 1.393 . S
C470 H462 0.950 . S
C470 C468 1.391 . S
C470 C471 1.400 . S
C471 C470 1.400 . S
C471 C472 1.398 . S
C471 C477 1.491 . S
C472 H463 0.950 . S
C472 C471 1.398 . S
C472 C473 1.391 . S
C473 H461 0.950 . S
C473 C469 1.393 . S
C473 C472 1.391 . S
C474 H464 0.950 . S
C474 C475 1.386 . S
C474 C476 1.391 . S
C475 C474 1.386 . S
C475 C479 1.393 . S
C476 H465 0.950 . S
C476 C474 1.391 . S
C476 C477 1.400 1_455 S
C477 C471 1.491 . S
C477 C476 1.400 1_655 S
C477 C478 1.398 1_655 S
C478 H466 0.950 1_455 S
C478 C477 1.398 1_455 S
C478 C479 1.391 . S
C479 H467 0.950 . S
C479 C475 1.393 . S
C479 C478 1.391 . S
H480 C488 0.950 . S
H481 C493 0.950 . S
H482 C490 0.950 . S
H483 C492 0.950 . S
H484 C494 0.950 . S
H485 C496 0.950 . S
H486 C498 0.950 . S
H487 C499 0.950 . S
C488 H480 0.950 . S
C488 C489 1.386 1_556 S
C488 C490 1.391 1_455 S
C489 C488 1.386 1_554 S
C489 C493 1.393 . S
C490 H482 0.950 . S
C490 C488 1.391 1_655 S
C490 C491 1.400 1_656 S
C491 C490 1.400 1_454 S
C491 C492 1.398 . S
C491 C497 1.491 1_455 S
C492 H483 0.950 . S
C492 C491 1.398 . S
C492 C493 1.391 . S
C493 H481 0.950 . S
C493 C489 1.393 . S
C493 C492 1.391 . S
C494 H484 0.950 . S
C494 C495 1.386 . S
C494 C496 1.391 1_655 S
C495 C494 1.386 . S
C495 C499 1.393 1_554 S
C496 H485 0.950 . S
C496 C494 1.391 1_455 S
C496 C497 1.400 1_455 S
C497 C491 1.491 1_655 S
C497 C496 1.400 1_655 S
C497 C498 1.398 1_554 S
C498 H486 0.950 . S
C498 C497 1.398 1_556 S
C498 C499 1.391 . S
C499 H487 0.950 . S
C499 C495 1.393 1_556 S
C499 C498 1.391 . S
H500 C508 0.950 . S
H501 C513 0.950 1_655 S
H502 C510 0.950 . S
H503 C512 0.950 . S
H504 C514 0.950 . S
H505 C516 0.950 . S
H506 C518 0.950 . S
H507 C519 0.950 1_455 S
C508 H500 0.950 . S
C508 C509 1.386 . S
C508 C510 1.391 . S
C509 C508 1.386 . S
C509 C513 1.393 . S
C510 H502 0.950 . S
C510 C508 1.391 . S
C510 C511 1.400 . S
C511 C510 1.400 . S
C511 C512 1.398 1_455 S
C511 C517 1.491 1_455 S
C512 H503 0.950 . S
C512 C511 1.398 1_655 S
C512 C513 1.391 1_655 S
C513 H501 0.950 1_455 S
C513 C509 1.393 . S
C513 C512 1.391 1_455 S
C514 H504 0.950 . S
C514 C515 1.386 . S
C514 C516 1.391 . S
C515 C514 1.386 . S
C515 C519 1.393 . S
C516 H505 0.950 . S
C516 C514 1.391 . S
C516 C517 1.400 . S
C517 C511 1.491 1_655 S
C517 C516 1.400 . S
C517 C518 1.398 1_655 S
C518 H506 0.950 . S
C518 C517 1.398 1_455 S
C518 C519 1.391 1_455 S
C519 H507 0.950 1_655 S
C519 C515 1.393 . S
C519 C518 1.391 1_655 S
H520 C528 0.950 1_556 S
H521 C533 0.950 . S
H522 C530 0.933 1_545 S
H523 C532 0.950 . S
H524 C534 0.950 . S
H525 C536 0.930 1_565 S
H526 C538 0.951 1_556 S
H527 C539 0.950 . S
C528 H520 0.950 1_554 S
C528 C529 1.386 . S
C528 C530 1.391 . S
C529 C528 1.386 . S
C529 C533 1.393 . S
C530 H522 0.933 1_565 S
C530 C528 1.391 . S
C530 C531 1.400 . S
C531 C530 1.400 . S
C531 C532 1.398 . S
C531 C537 1.491 1_565 S
C532 H523 0.950 . S
C532 C531 1.398 . S
C532 C533 1.391 . S
C533 H521 0.950 . S
C533 C529 1.393 . S
C533 C532 1.391 . S
C534 H524 0.950 . S
C534 C535 1.386 . S
C534 C536 1.391 . S
C535 C534 1.386 . S
C535 C539 1.393 . S
C536 H525 0.930 1_545 S
C536 C534 1.391 . S
C536 C537 1.400 . S
C537 C531 1.491 1_545 S
C537 C536 1.400 . S
C537 C538 1.398 . S
C538 H526 0.951 1_554 S
C538 C537 1.398 . S
C538 C539 1.391 . S
C539 H527 0.950 . S
C539 C535 1.393 . S
C539 C538 1.391 . S
H540 C548 0.950 . S
H541 C553 0.950 . S
H542 C550 0.950 . S
H543 C552 0.919 1_565 S
H544 C554 0.950 . S
H545 C556 0.950 . S
H546 C558 0.918 1_545 S
H547 C559 0.950 . S
C548 H540 0.950 . S
C548 C549 1.386 . S
C548 C550 1.391 . S
C549 C548 1.386 . S
C549 C553 1.393 . S
C550 H542 0.950 . S
C550 C548 1.391 . S
C550 C551 1.400 . S
C551 C550 1.400 . S
C551 C552 1.398 . S
C551 C557 1.491 1_545 S
C552 H543 0.919 1_545 S
C552 C551 1.398 . S
C552 C553 1.391 . S
C553 H541 0.950 . S
C553 C549 1.393 . S
C553 C552 1.391 . S
C554 H544 0.950 . S
C554 C555 1.386 . S
C554 C556 1.391 . S
C555 C554 1.386 . S
C555 C559 1.393 . S
C556 H545 0.950 . S
C556 C554 1.391 . S
C556 C557 1.400 . S
C557 C551 1.491 1_565 S
C557 C556 1.400 . S
C557 C558 1.398 . S
C558 H546 0.918 1_565 S
C558 C557 1.398 . S
C558 C559 1.391 . S
C559 H547 0.950 . S
C559 C555 1.393 . S
C559 C558 1.391 . S
H560 C568 0.950 1_556 S
H561 C573 0.950 . S
H562 C570 0.950 . S
H563 C572 0.950 . S
H564 C574 0.950 . S
H565 C576 0.950 . S
H566 C578 0.950 . S
H567 C579 0.950 . S
C568 H560 0.950 1_554 S
C568 C569 1.386 . S
C568 C570 1.391 1_554 S
C569 C568 1.386 . S
C569 C573 1.393 . S
C570 H562 0.950 . S
C570 C568 1.391 1_556 S
C570 C571 1.400 1_556 S
C571 C570 1.400 1_554 S
C571 C572 1.398 . S
C571 C577 1.491 . S
C572 H563 0.950 . S
C572 C571 1.398 . S
C572 C573 1.391 . S
C573 H561 0.950 . S
C573 C569 1.393 . S
C573 C572 1.391 . S
C574 H564 0.950 . S
C574 C575 1.386 . S
C574 C576 1.391 . S
C575 C574 1.386 . S
C575 C579 1.393 1_554 S
C576 H565 0.950 . S
C576 C574 1.391 . S
C576 C577 1.400 . S
C577 C571 1.491 . S
C577 C576 1.400 . S
C577 C578 1.398 1_554 S
C578 H566 0.950 . S
C578 C577 1.398 1_556 S
C578 C579 1.391 . S
C579 H567 0.950 . S
C579 C575 1.393 1_556 S
C579 C578 1.391 . S
H580 C588 0.950 . S
H581 C593 0.950 . S
H582 C590 0.950 . S
H583 C592 0.950 . S
H584 C594 0.950 . S
H585 C596 0.950 . S
H586 C598 0.950 . S
H587 C599 0.950 . S
C588 H580 0.950 . S
C588 C589 1.386 1_556 S
C588 C590 1.391 . S
C589 C588 1.386 1_554 S
C589 C593 1.393 . S
C590 H582 0.950 . S
C590 C588 1.391 . S
C590 C591 1.400 1_556 S
C591 C590 1.400 1_554 S
C591 C592 1.398 . S
C591 C597 1.491 . S
C592 H583 0.950 . S
C592 C591 1.398 . S
C592 C593 1.391 . S
C593 H581 0.950 . S
C593 C589 1.393 . S
C593 C592 1.391 . S
C594 H584 0.950 . S
C594 C595 1.386 . S
C594 C596 1.391 . S
C595 C594 1.386 . S
C595 C599 1.393 1_554 S
C596 H585 0.950 . S
C596 C594 1.391 . S
C596 C597 1.400 . S
C597 C591 1.491 . S
C597 C596 1.400 . S
C597 C598 1.398 1_554 S
C598 H586 0.950 . S
C598 C597 1.398 1_556 S
C598 C599 1.391 . S
C599 H587 0.950 . S
C599 C595 1.393 1_556 S
C599 C598 1.391 . S
H600 C608 0.950 . S
H601 C613 0.950 . S
H602 C610 0.950 . S
H603 C612 0.950 . S
H604 C614 0.950 . S
H605 C616 0.950 . S
H606 C618 0.950 . S
H607 C619 0.950 . S
C608 H600 0.950 . S
C608 C609 1.386 . S
C608 C610 1.391 . S
C609 C608 1.386 . S
C609 C613 1.393 . S
C610 H602 0.950 . S
C610 C608 1.391 . S
C610 C611 1.400 . S
C611 C610 1.400 . S
C611 C612 1.398 . S
C611 C617 1.491 . S
C612 H603 0.950 . S
C612 C611 1.398 . S
C612 C613 1.391 . S
C613 H601 0.950 . S
C613 C609 1.393 . S
C613 C612 1.391 . S
C614 H604 0.950 . S
C614 C615 1.386 . S
C614 C616 1.391 . S
C615 C614 1.386 . S
C615 C619 1.393 . S
C616 H605 0.950 . S
C616 C614 1.391 . S
C616 C617 1.400 . S
C617 C611 1.491 . S
C617 C616 1.400 . S
C617 C618 1.398 . S
C618 H606 0.950 . S
C618 C617 1.398 . S
C618 C619 1.391 . S
C619 H607 0.950 . S
C619 C615 1.393 . S
C619 C618 1.391 . S
H620 C628 0.950 . S
H621 C633 0.950 . S
H622 C630 0.950 . S
H623 C632 0.950 . S
H624 C634 0.950 . S
H625 C636 0.950 . S
H626 C638 0.950 . S
H627 C639 0.950 . S
C628 H620 0.950 . S
C628 C629 1.386 . S
C628 C630 1.391 . S
C629 C628 1.386 . S
C629 C633 1.393 . S
C630 H622 0.950 . S
C630 C628 1.391 . S
C630 C631 1.400 . S
C631 C630 1.400 . S
C631 C632 1.398 . S
C631 C637 1.491 . S
C632 H623 0.950 . S
C632 C631 1.398 . S
C632 C633 1.391 . S
C633 H621 0.950 . S
C633 C629 1.393 . S
C633 C632 1.391 . S
C634 H624 0.950 . S
C634 C635 1.386 . S
C634 C636 1.391 . S
C635 C634 1.386 . S
C635 C639 1.393 . S
C636 H625 0.950 . S
C636 C634 1.391 . S
C636 C637 1.400 . S
C637 C631 1.491 . S
C637 C636 1.400 . S
C637 C638 1.398 . S
C638 H626 0.950 . S
C638 C637 1.398 . S
C638 C639 1.391 . S
C639 H627 0.950 . S
C639 C635 1.393 . S
C639 C638 1.391 . S
H640 C648 0.950 . S
H641 C653 0.950 . S
H642 C650 0.950 . S
H643 C652 0.950 . S
H644 C654 0.950 . S
H645 C656 0.950 . S
H646 C658 0.950 . S
H647 C659 0.950 . S
C648 H640 0.950 . S
C648 C649 1.386 . S
C648 C650 1.391 . S
C649 C648 1.386 . S
C649 C653 1.393 1_455 S
C650 H642 0.950 . S
C650 C648 1.391 . S
C650 C651 1.400 . S
C651 C650 1.400 . S
C651 C652 1.398 1_455 S
C651 C657 1.491 1_455 S
C652 H643 0.950 . S
C652 C651 1.398 1_655 S
C652 C653 1.391 . S
C653 H641 0.950 . S
C653 C649 1.393 1_655 S
C653 C652 1.391 . S
C654 H644 0.950 . S
C654 C655 1.386 . S
C654 C656 1.391 . S
C655 C654 1.386 . S
C655 C659 1.393 1_655 S
C656 H645 0.950 . S
C656 C654 1.391 . S
C656 C657 1.400 . S
C657 C651 1.491 1_655 S
C657 C656 1.400 . S
C657 C658 1.398 1_655 S
C658 H646 0.950 . S
C658 C657 1.398 1_455 S
C658 C659 1.391 . S
C659 H647 0.950 . S
C659 C655 1.393 1_455 S
C659 C658 1.391 . S
H660 C668 0.950 . S
H661 C673 0.950 . S
H662 C670 0.950 . S
H663 C672 0.950 . S
H664 C674 0.950 . S
H665 C676 0.950 . S
H666 C678 0.950 . S
H667 C679 0.950 . S
C668 H660 0.950 . S
C668 C669 1.386 . S
C668 C670 1.391 . S
C669 C668 1.386 . S
C669 C673 1.393 1_655 S
C670 H662 0.950 . S
C670 C668 1.391 . S
C670 C671 1.400 . S
C671 C670 1.400 . S
C671 C672 1.398 1_655 S
C671 C677 1.491 1_655 S
C672 H663 0.950 . S
C672 C671 1.398 1_455 S
C672 C673 1.391 . S
C673 H661 0.950 . S
C673 C669 1.393 1_455 S
C673 C672 1.391 . S
C674 H664 0.950 . S
C674 C675 1.386 . S
C674 C676 1.391 . S
C675 C674 1.386 . S
C675 C679 1.393 1_455 S
C676 H665 0.950 . S
C676 C674 1.391 . S
C676 C677 1.400 . S
C677 C671 1.491 1_455 S
C677 C676 1.400 . S
C677 C678 1.398 1_455 S
C678 H666 0.950 . S
C678 C677 1.398 1_655 S
C678 C679 1.391 . S
C679 H667 0.950 . S
C679 C675 1.393 1_655 S
C679 C678 1.391 . S
H680 C688 0.950 . S
H681 C693 0.950 . S
H682 C690 0.950 . S
H683 C692 0.950 . S
H684 C694 0.950 . S
H685 C696 0.950 . S
H686 C698 0.950 . S
H687 C699 0.950 . S
C688 H680 0.950 . S
C688 C689 1.386 . S
C688 C690 1.391 . S
C689 C688 1.386 . S
C689 C693 1.393 1_655 S
C690 H682 0.950 . S
C690 C688 1.391 . S
C690 C691 1.400 . S
C691 C690 1.400 . S
C691 C692 1.398 1_655 S
C691 C697 1.491 1_655 S
C692 H683 0.950 . S
C692 C691 1.398 1_455 S
C692 C693 1.391 . S
C693 H681 0.950 . S
C693 C689 1.393 1_455 S
C693 C692 1.391 . S
C694 H684 0.950 . S
C694 C695 1.386 . S
C694 C696 1.391 . S
C695 C694 1.386 . S
C695 C699 1.393 1_455 S
C696 H685 0.950 . S
C696 C694 1.391 . S
C696 C697 1.400 . S
C697 C691 1.491 1_455 S
C697 C696 1.400 . S
C697 C698 1.398 1_455 S
C698 H686 0.950 . S
C698 C697 1.398 1_655 S
C698 C699 1.391 . S
C699 H687 0.950 . S
C699 C695 1.393 1_655 S
C699 C698 1.391 . S
H700 C708 0.950 . S
H701 C713 0.950 . S
H702 C710 0.950 . S
H703 C712 0.950 . S
H704 C714 0.950 . S
H705 C716 0.952 . S
H706 C718 0.950 . S
H707 C719 0.950 . S
C708 H700 0.950 . S
C708 C709 1.386 . S
C708 C710 1.391 1_655 S
C709 C708 1.386 . S
C709 C713 1.393 . S
C710 H702 0.950 . S
C710 C708 1.391 1_455 S
C710 C711 1.400 1_455 S
C711 C710 1.400 1_655 S
C711 C712 1.398 . S
C711 C717 1.491 1_655 S
C712 H703 0.950 . S
C712 C711 1.398 . S
C712 C713 1.391 . S
C713 H701 0.950 . S
C713 C709 1.393 . S
C713 C712 1.391 . S
C714 H704 0.950 . S
C714 C715 1.386 . S
C714 C716 1.390 1_455 S
C715 C714 1.386 . S
C715 C719 1.393 . S
C716 H705 0.952 . S
C716 C714 1.390 1_655 S
C716 C717 1.400 1_655 S
C717 C711 1.491 1_455 S
C717 C716 1.400 1_455 S
C717 C718 1.398 . S
C718 H706 0.950 . S
C718 C717 1.398 . S
C718 C719 1.391 . S
C719 H707 0.950 . S
C719 C715 1.393 . S
C719 C718 1.391 . S
H720 C728 0.950 . S
H721 C733 0.950 . S
H722 C730 0.950 . S
H723 C732 0.950 . S
H724 C734 0.950 . S
H725 C736 0.950 . S
H726 C738 0.950 . S
H727 C739 0.950 . S
C728 H720 0.950 . S
C728 C729 1.386 . S
C728 C730 1.391 . S
C729 C728 1.386 . S
C729 C733 1.393 . S
C730 H722 0.950 . S
C730 C728 1.391 . S
C730 C731 1.400 . S
C731 C730 1.400 . S
C731 C732 1.398 . S
C731 C737 1.491 . S
C732 H723 0.950 . S
C732 C731 1.398 . S
C732 C733 1.391 . S
C733 H721 0.950 . S
C733 C729 1.393 . S
C733 C732 1.391 . S
C734 H724 0.950 . S
C734 C735 1.386 . S
C734 C736 1.391 . S
C735 C734 1.386 . S
C735 C739 1.393 . S
C736 H725 0.950 . S
C736 C734 1.391 . S
C736 C737 1.400 . S
C737 C731 1.491 . S
C737 C736 1.400 . S
C737 C738 1.398 . S
C738 H726 0.950 . S
C738 C737 1.398 . S
C738 C739 1.391 . S
C739 H727 0.950 . S
C739 C735 1.393 . S
C739 C738 1.391 . S
H740 C748 0.950 . S
H741 C753 0.950 . S
H742 C750 0.950 . S
H743 C752 0.950 . S
H744 C754 0.950 . S
H745 C756 0.950 . S
H746 C758 0.950 . S
H747 C759 0.950 . S
C748 H740 0.950 . S
C748 C749 1.386 . S
C748 C750 1.391 . S
C749 C748 1.386 . S
C749 C753 1.393 . S
C750 H742 0.950 . S
C750 C748 1.391 . S
C750 C751 1.400 . S
C751 C750 1.400 . S
C751 C752 1.398 . S
C751 C757 1.491 . S
C752 H743 0.950 . S
C752 C751 1.398 . S
C752 C753 1.391 . S
C753 H741 0.950 . S
C753 C749 1.393 . S
C753 C752 1.391 . S
C754 H744 0.950 . S
C754 C755 1.386 . S
C754 C756 1.391 . S
C755 C754 1.386 . S
C755 C759 1.393 . S
C756 H745 0.950 . S
C756 C754 1.391 . S
C756 C757 1.400 . S
C757 C751 1.491 . S
C757 C756 1.400 . S
C757 C758 1.398 . S
C758 H746 0.950 . S
C758 C757 1.398 . S
C758 C759 1.391 . S
C759 H747 0.950 . S
C759 C755 1.393 . S
C759 C758 1.391 . S
H760 C768 0.950 . S
H761 C773 0.950 . S
H762 C770 0.950 . S
H763 C772 0.950 . S
H764 C774 0.950 . S
H765 C776 0.950 . S
H766 C778 0.950 . S
H767 C779 0.950 . S
C768 H760 0.950 . S
C768 C769 1.386 . S
C768 C770 1.391 . S
C769 C768 1.386 . S
C769 C773 1.393 . S
C770 H762 0.950 . S
C770 C768 1.391 . S
C770 C771 1.400 . S
C771 C770 1.400 . S
C771 C772 1.398 . S
C771 C777 1.491 . S
C772 H763 0.950 . S
C772 C771 1.398 . S
C772 C773 1.391 . S
C773 H761 0.950 . S
C773 C769 1.393 . S
C773 C772 1.391 . S
C774 H764 0.950 . S
C774 C775 1.386 . S
C774 C776 1.391 . S
C775 C774 1.386 . S
C775 C779 1.393 . S
C776 H765 0.950 . S
C776 C774 1.391 . S
C776 C777 1.400 . S
C777 C771 1.491 . S
C777 C776 1.400 . S
C777 C778 1.398 . S
C778 H766 0.950 . S
C778 C777 1.398 . S
C778 C779 1.391 . S
C779 H767 0.950 . S
C779 C775 1.393 . S
C779 C778 1.391 . S
H780 C788 0.950 . S
H781 C793 0.950 . S
H782 C790 0.950 . S
H783 C792 0.950 . S
H784 C794 0.950 . S
H785 C796 0.950 . S
H786 C798 0.950 . S
H787 C799 0.950 . S
C788 H780 0.950 . S
C788 C789 1.386 . S
C788 C790 1.391 . S
C789 C788 1.386 . S
C789 C793 1.393 . S
C790 H782 0.950 . S
C790 C788 1.391 . S
C790 C791 1.400 . S
C791 C790 1.400 . S
C791 C792 1.398 . S
C791 C797 1.491 . S
C792 H783 0.950 . S
C792 C791 1.398 . S
C792 C793 1.391 . S
C793 H781 0.950 . S
C793 C789 1.393 . S
C793 C792 1.391 . S
C794 H784 0.950 . S
C794 C795 1.386 . S
C794 C796 1.391 . S
C795 C794 1.386 . S
C795 C799 1.393 . S
C796 H785 0.950 . S
C796 C794 1.391 . S
C796 C797 1.400 . S
C797 C791 1.491 . S
C797 C796 1.400 . S
C797 C798 1.398 . S
C798 H786 0.950 . S
C798 C797 1.398 . S
C798 C799 1.391 . S
C799 H787 0.950 . S
C799 C795 1.393 . S
C799 C798 1.391 . S
C329 C11 2.326 . S
C335 C2 2.326 . S
C349 C51 2.327 . S
C355 C42 2.327 . S
C369 C91 2.315 . S
C375 C82 2.315 . S
C389 C131 2.329 . S
C395 C122 2.329 . S
C409 C171 2.319 . S
C415 C162 2.319 . S
C429 C202 2.319 . S
C435 C211 2.319 . S
C449 C251 2.315 . S
C455 C242 2.315 . S
C469 C282 2.315 . S
C475 C291 2.315 . S
C489 C56 2.638 . S
C495 C7 2.638 . S
C509 C127 2.626 . S
C515 C96 2.626 . S
C529 C167 2.630 . S
C535 C216 2.630 . S
C549 C256 2.633 . S
C555 C287 2.633 . S
C569 C16 1.851 . S
C575 C207 1.851 . S
C589 C176 1.855 . S
C595 C47 1.855 . S
C609 C87 1.854 . S
C615 C296 1.854 . S
C629 C136 1.842 . S
C635 C247 1.842 . S
C649 C10 1.464 . S
C655 C130 1.483 . S
C669 C50 1.608 . S
C675 C90 1.596 . S
C689 C59 1.482 . S
C695 C99 1.465 . S
C709 C139 1.616 . S
C715 C19 1.612 . S
C729 C170 1.482 . S
C735 C290 1.460 . S
C749 C210 1.595 . S
C755 C250 1.615 . S
C769 C219 1.484 . S
C775 C259 1.462 . S
C789 C299 1.618 . S
C795 C179 1.609 . S
