# Generated by pormake.
# Topology wje, (4)-cn, num edge types: 1
# Building blocks:
#     Node 0, Type 0, BuildingBlock: NAHDIM_clean_sbu_0, # of connection points: 4
#     Node 1, Type 0, BuildingBlock: NAHDIM_clean_sbu_0, # of connection points: 4
#     Node 2, Type 0, BuildingBlock: NAHDIM_clean_sbu_0, # of connection points: 4
#     Node 3, Type 0, BuildingBlock: NAHDIM_clean_sbu_0, # of connection points: 4
#     Node 4, Type 0, BuildingBlock: NAHDIM_clean_sbu_0, # of connection points: 4
#     Node 5, Type 0, BuildingBlock: NAHDIM_clean_sbu_0, # of connection points: 4
#     Node 6, Type 0, BuildingBlock: NAHDIM_clean_sbu_0, # of connection points: 4
#     Node 7, Type 0, BuildingBlock: NAHDIM_clean_sbu_0, # of connection points: 4
#     Node 8, Type 0, BuildingBlock: NAHDIM_clean_sbu_0, # of connection points: 4
#     Node 9, Type 0, BuildingBlock: NAHDIM_clean_sbu_0, # of connection points: 4
#     Node 10, Type 0, BuildingBlock: NAHDIM_clean_sbu_0, # of connection points: 4
#     Node 11, Type 0, BuildingBlock: NAHDIM_clean_sbu_0, # of connection points: 4
#     Edge 12, Type (0, 0), BuildingBlock: AJUNOK_clean_linker_0, # of connection points: 2
#     Edge 13, Type (0, 0), BuildingBlock: AJUNOK_clean_linker_0, # of connection points: 2
#     Edge 14, Type (0, 0), BuildingBlock: AJUNOK_clean_linker_0, # of connection points: 2
#     Edge 15, Type (0, 0), BuildingBlock: AJUNOK_clean_linker_0, # of connection points: 2
#     Edge 16, Type (0, 0), BuildingBlock: AJUNOK_clean_linker_0, # of connection points: 2
#     Edge 17, Type (0, 0), BuildingBlock: AJUNOK_clean_linker_0, # of connection points: 2
#     Edge 18, Type (0, 0), BuildingBlock: AJUNOK_clean_linker_0, # of connection points: 2
#     Edge 19, Type (0, 0), BuildingBlock: AJUNOK_clean_linker_0, # of connection points: 2
#     Edge 20, Type (0, 0), BuildingBlock: AJUNOK_clean_linker_0, # of connection points: 2
#     Edge 21, Type (0, 0), BuildingBlock: AJUNOK_clean_linker_0, # of connection points: 2
#     Edge 22, Type (0, 0), BuildingBlock: AJUNOK_clean_linker_0, # of connection points: 2
#     Edge 23, Type (0, 0), BuildingBlock: AJUNOK_clean_linker_0, # of connection points: 2
#     Edge 24, Type (0, 0), BuildingBlock: AJUNOK_clean_linker_0, # of connection points: 2
#     Edge 25, Type (0, 0), BuildingBlock: AJUNOK_clean_linker_0, # of connection points: 2
#     Edge 26, Type (0, 0), BuildingBlock: AJUNOK_clean_linker_0, # of connection points: 2
#     Edge 27, Type (0, 0), BuildingBlock: AJUNOK_clean_linker_0, # of connection points: 2
#     Edge 28, Type (0, 0), BuildingBlock: AJUNOK_clean_linker_0, # of connection points: 2
#     Edge 29, Type (0, 0), BuildingBlock: AJUNOK_clean_linker_0, # of connection points: 2
#     Edge 30, Type (0, 0), BuildingBlock: AJUNOK_clean_linker_0, # of connection points: 2
#     Edge 31, Type (0, 0), BuildingBlock: AJUNOK_clean_linker_0, # of connection points: 2
#     Edge 32, Type (0, 0), BuildingBlock: AJUNOK_clean_linker_0, # of connection points: 2
#     Edge 33, Type (0, 0), BuildingBlock: AJUNOK_clean_linker_0, # of connection points: 2
#     Edge 34, Type (0, 0), BuildingBlock: AJUNOK_clean_linker_0, # of connection points: 2
#     Edge 35, Type (0, 0), BuildingBlock: AJUNOK_clean_linker_0, # of connection points: 2
# Relax obj value: 0.161
# Max RMSD: 0.138
# Mean RMSD: 0.138
data_MOF--net-wje--node1-NAHDIM_clean_sbu_0--edge1-AJUNOK_clean_linker_0
_symmetry_space_group_name_H-M    P1
_symmetry_Int_Tables_number       1
_symmetry_cell_setting            triclinic
loop_
_symmetry_equiv_pos_as_xyz
'x, y, z'
_cell_length_a     30.530268
_cell_length_b     30.484672
_cell_length_c     27.112182
_cell_angle_alpha  90.039918
_cell_angle_beta   89.658622
_cell_angle_gamma 119.8369
loop_
_atom_site_label
_atom_site_type_symbol
_atom_site_fract_x
_atom_site_fract_y
_atom_site_fract_z
_atom_type_partial_charge
C0 C 0.3108 0.08595 0.22775 0.0
O1 O 0.30559 0.0472 0.20186 0.0
O2 O 0.25049 0.96081 0.2859 0.0
Zn3 Zn 0.31361 0.02432 0.30523 0.0
O4 O 0.37723 0.02336 0.28486 0.0
C5 C 0.2874 0.98431 0.40314 0.0
O6 O 0.27122 0.94201 0.37859 0.0
O7 O 0.31453 0.08481 0.27433 0.0
C8 C 0.39102 0.99488 0.30567 0.0
O9 O 0.36295 0.96453 0.3412 0.0
C10 C 0.24932 0.92081 0.27075 0.0
O11 O 0.29144 0.92322 0.25583 0.0
O12 O 0.30866 0.0263 0.37992 0.0
C13 C 0.21516 0.29605 0.56061 0.0
O14 O 0.23957 0.27859 0.53452 0.0
O15 O 0.29667 0.25577 0.62474 0.0
Zn16 Zn 0.29692 0.32165 0.62788 0.0
O17 O 0.35684 0.38222 0.59744 0.0
C18 C 0.33249 0.32511 0.72349 0.0
O19 O 0.35942 0.31004 0.69831 0.0
O20 O 0.23246 0.3156 0.60242 0.0
C21 C 0.40163 0.38983 0.59435 0.0
O22 O 0.41075 0.35345 0.60635 0.0
C23 C 0.31863 0.23784 0.59869 0.0
O24 O 0.34426 0.26251 0.55928 0.0
O25 O 0.30217 0.33516 0.70073 0.0
C26 C 0.91081 0.23458 0.88955 0.0
O27 O 0.94827 0.27375 0.86748 0.0
O28 O 0.0313 0.28896 0.96641 0.0
Zn29 Zn 0.96569 0.28867 0.97582 0.0
O30 O 0.96731 0.35534 0.96395 0.0
C31 C 0.99033 0.30244 0.07511 0.0
O32 O 0.03021 0.33998 0.05408 0.0
O33 O 0.9102 0.23259 0.9364 0.0
C34 C 0.0052 0.3998 0.96631 0.0
O35 O 0.05029 0.4059 0.97399 0.0
C36 C 0.07224 0.31593 0.943 0.0
O37 O 0.07649 0.3516 0.91293 0.0
O38 O 0.95297 0.27335 0.04831 0.0
C39 C 0.66532 0.92379 0.19941 0.0
O40 O 0.66075 0.96037 0.17903 0.0
O41 O 0.71126 0.03864 0.28669 0.0
Zn42 Zn 0.65335 0.96776 0.28966 0.0
O43 O 0.58611 0.96382 0.27915 0.0
C44 C 0.65513 0.98567 0.38901 0.0
O45 O 0.64618 0.01966 0.36899 0.0
O46 O 0.66338 0.91982 0.24615 0.0
C47 C 0.58097 0.0007 0.26482 0.0
O48 O 0.62124 0.04334 0.2523 0.0
C49 C 0.73485 0.07589 0.25773 0.0
O50 O 0.72154 0.07208 0.21126 0.0
O51 O 0.65642 0.95271 0.36116 0.0
C52 C 0.77929 0.71902 0.55175 0.0
O53 O 0.78327 0.75969 0.57272 0.0
O54 O 0.67241 0.73498 0.58766 0.0
Zn55 Zn 0.67727 0.67124 0.59168 0.0
O56 O 0.61375 0.60815 0.57006 0.0
C57 C 0.70215 0.70117 0.69263 0.0
O58 O 0.7227 0.74671 0.67336 0.0
O59 O 0.73766 0.67769 0.55496 0.0
C60 C 0.57776 0.58781 0.60121 0.0
O61 O 0.58271 0.60867 0.64472 0.0
C62 C 0.63143 0.73438 0.59798 0.0
O63 O 0.58908 0.69103 0.59751 0.0
O64 O 0.6844 0.66306 0.66419 0.0
C65 C 0.0804 0.75525 0.90287 0.0
O66 O 0.03839 0.72838 0.87822 0.0
O67 O 0.95795 0.69153 0.95729 0.0
Zn68 Zn 0.019 0.68745 0.9794 0.0
O69 O 0.01581 0.62068 0.96295 0.0
C70 C 0.97888 0.67802 0.07713 0.0
O71 O 0.93668 0.6532 0.05263 0.0
O72 O 0.08155 0.74476 0.94805 0.0
C73 C 0.98768 0.58002 0.98658 0.0
O74 O 0.95895 0.58046 0.02251 0.0
C75 C 0.91412 0.65363 0.95141 0.0
O76 O 0.90878 0.60819 0.94966 0.0
O77 O 0.02082 0.69681 0.05392 0.0
C78 C 0.94271 0.71852 0.43972 0.0
O79 O 0.97808 0.75938 0.41783 0.0
O80 O 0.05564 0.7317 0.37809 0.0
Zn81 Zn 0.98674 0.66961 0.3827 0.0
O82 O -0.00549 0.60853 0.39726 0.0
C83 C 0.97308 0.70265 0.28824 0.0
O84 O -0.00098 0.74751 0.30846 0.0
O85 O 0.94039 0.67639 0.43132 0.0
C86 C -0.00626 0.58142 0.36121 0.0
O87 O 0.98431 0.59144 0.31674 0.0
C88 C 0.08415 0.73082 0.34407 0.0
O89 O 0.06991 0.68839 0.32025 0.0
O90 O 0.95895 0.66332 0.31454 0.0
C91 C 0.25447 0.91443 0.79736 0.0
O92 O 0.30011 0.93772 0.81602 0.0
O93 O 0.31375 0.04416 0.71116 0.0
Zn94 Zn 0.30519 0.97445 0.70989 0.0
O95 O 0.37129 0.97781 0.72452 0.0
C96 C 0.26258 0.96914 0.61561 0.0
O97 O 0.23994 0.98939 0.6403 0.0
O98 O 0.24815 0.92481 0.75348 0.0
C99 C 0.3771 0.94177 0.70875 0.0
O100 O 0.33854 0.90295 0.68794 0.0
C101 C 0.34326 0.07372 0.67788 0.0
O102 O 0.37109 0.05965 0.65271 0.0
O103 O 0.28904 0.95439 0.63878 0.0
C104 C 0.32877 0.26106 0.12208 0.0
O105 O 0.339 0.30338 0.14432 0.0
O106 O 0.27771 0.32987 0.035 0.0
Zn107 Zn 0.33809 0.32 0.03551 0.0
O108 O 0.40224 0.38185 0.05601 0.0
C109 C 0.34834 0.34404 0.93635 0.0
O110 O 0.34775 0.38279 0.95686 0.0
O111 O 0.32588 0.25914 0.0753 0.0
C112 C 0.4071 0.42542 0.06156 0.0
O113 O 0.36701 0.43061 0.05804 0.0
C114 C 0.23927 0.29418 0.01417 0.0
O115 O 0.23957 0.25237 0.00305 0.0
O116 O 0.34687 0.30964 0.96399 0.0
C117 C 0.04949 0.30853 0.4689 0.0
O118 O 0.02871 0.33279 0.48955 0.0
O119 O 0.92136 0.25182 0.38018 0.0
Zn120 Zn 0.993 0.30846 0.38297 0.0
O121 O -0.00537 0.37316 0.40107 0.0
C122 C -0.00101 0.27537 0.28603 0.0
O123 O 0.97596 0.23095 0.30779 0.0
O124 O 0.0385 0.29377 0.42457 0.0
C125 C 0.03018 0.41319 0.38197 0.0
O126 O 0.0663 0.41064 0.35789 0.0
C127 C 0.89621 0.25824 0.34643 0.0
O128 O 0.91545 0.30291 0.3254 0.0
O129 O 0.01493 0.31503 0.31211 0.0
C130 C 0.74614 0.07012 0.78074 0.0
O131 O 0.71082 0.03151 0.80546 0.0
O132 O 0.68579 0.94868 0.69891 0.0
Zn133 Zn 0.68542 0.01469 0.69644 0.0
O134 O 0.61694 0.0042 0.71678 0.0
C135 C 0.71195 0.01159 0.59583 0.0
O136 O 0.73648 0.99091 0.61567 0.0
O137 O 0.74291 0.07072 0.73406 0.0
C138 C 0.58143 0.97684 0.68727 0.0
O139 O 0.59206 0.95893 0.6477 0.0
C140 C 0.64668 0.90614 0.70709 0.0
O141 O 0.60756 0.90476 0.72897 0.0
O142 O 0.69209 0.03055 0.62378 0.0
C143 C 0.6784 0.76894 0.0839 0.0
O144 O 0.67602 0.73012 0.1074 0.0
O145 O 0.73646 0.70551 0.00174 0.0
Zn146 Zn 0.67156 0.70746 0.00162 0.0
O147 O 0.61063 0.64444 0.02891 0.0
C148 C 0.66469 0.67814 0.9039 0.0
O149 O 0.66857 0.64266 0.92745 0.0
O150 O 0.67838 0.76864 0.03704 0.0
C151 C 0.60548 0.60048 0.032 0.0
O152 O 0.64235 0.59325 0.01705 0.0
C153 C 0.7528 0.68266 0.02838 0.0
O154 O 0.72723 0.65762 0.06767 0.0
O155 O 0.66195 0.71206 0.92889 0.0
C156 C 0.30933 0.1305 0.15084 0.0
C157 C 0.31381 0.13067 0.20249 0.0
C158 C 0.31359 0.17248 0.12548 0.0
C159 C 0.32259 0.21662 0.15057 0.0
H160 H 0.30283 0.09778 0.1295 0.0
H161 H 0.31022 0.17029 0.08568 0.0
S162 S 0.3359 0.23624 0.28617 0.0
N163 N 0.32667 0.17858 0.27813 0.0
N164 N 0.33471 0.25746 0.23049 0.0
C165 C 0.32645 0.21715 0.20237 0.0
C166 C 0.32206 0.17426 0.22827 0.0
C167 C 0.15535 0.27973 0.49123 0.0
C168 C 0.17026 0.29618 0.5399 0.0
C169 C 0.11548 0.28265 0.46925 0.0
C170 C 0.08872 0.30219 0.49492 0.0
H171 H 0.17524 0.26537 0.46933 0.0
H172 H 0.10642 0.27043 0.4313 0.0
S173 S 0.10975 0.34635 0.62487 0.0
N174 N 0.15287 0.32982 0.61434 0.0
N175 N 0.078 0.33534 0.57297 0.0
C176 C 0.10201 0.31716 0.54425 0.0
C177 C 0.1427 0.31415 0.56671 0.0
C178 C 0.79101 0.11172 0.85898 0.0
C179 C 0.78887 0.11253 0.80715 0.0
C180 C 0.83047 0.15118 0.88508 0.0
C181 C 0.86966 0.19327 0.86057 0.0
H182 H 0.76189 0.08036 0.87983 0.0
H183 H 0.83008 0.14852 0.92495 0.0
S184 S 0.88224 0.21395 0.72494 0.0
N185 N 0.82984 0.1592 0.73212 0.0
N186 N 0.90386 0.2332 0.78109 0.0
C187 C 0.86815 0.19459 0.80868 0.0
C188 C 0.82787 0.15434 0.78205 0.0
C189 C 0.67558 0.80857 0.16384 0.0
C190 C 0.67781 0.8106 0.11196 0.0
C191 C 0.67225 0.84561 0.19155 0.0
C192 C 0.67095 0.8864 0.1687 0.0
H193 H 0.67576 0.77773 0.18346 0.0
H194 H 0.67005 0.84171 0.23134 0.0
S195 S 0.67821 0.9109 0.03382 0.0
N196 N 0.68029 0.85801 0.03875 0.0
N197 N 0.67402 0.92758 0.09082 0.0
C198 C 0.6742 0.88958 0.11683 0.0
C199 C 0.67765 0.85177 0.08853 0.0
C200 C 0.85967 0.67495 0.48408 0.0
C201 C 0.90317 0.72034 0.47043 0.0
C202 C 0.82019 0.6751 0.51045 0.0
C203 C 0.82256 0.72062 0.52477 0.0
H204 H 0.85547 0.63877 0.47359 0.0
H205 H 0.78743 0.63902 0.51953 0.0
S206 S 0.92905 0.85004 0.50008 0.0
N207 N 0.94691 0.81226 0.4745 0.0
N208 N 0.87278 0.81252 0.52435 0.0
C209 C 0.86627 0.76637 0.51229 0.0
C210 C 0.90648 0.76623 0.48507 0.0
C211 C 0.16341 0.84745 0.80333 0.0
C212 C 0.21086 0.87507 0.82604 0.0
C213 C 0.12175 0.80916 0.82858 0.0
C214 C 0.12549 0.79677 0.8778 0.0
H215 H 0.15826 0.85505 0.76543 0.0
H216 H 0.0863 0.78907 0.80906 0.0
S217 S 0.2409 0.85831 0.95487 0.0
N218 N 0.25892 0.88776 0.90123 0.0
N219 N 0.18059 0.81589 0.9487 0.0
C220 C 0.17256 0.82439 0.90128 0.0
C221 C 0.21517 0.86343 0.87544 0.0
C222 C 0.44713 0.95717 0.30763 0.0
C223 C 0.4382 -0.00435 0.29077 0.0
C224 C 0.49251 0.95811 0.29719 0.0
C225 C 0.53119 -0.00216 0.26981 0.0
H226 H 0.41912 0.92624 0.32978 0.0
H227 H 0.49776 0.92813 0.31219 0.0
S228 S 0.52546 0.10604 0.2139 0.0
N229 N 0.47074 0.0732 0.24274 0.0
N230 N 0.55634 0.07518 0.22337 0.0
C231 C 0.52217 0.03571 0.25118 0.0
C232 C 0.47563 0.03455 0.26156 0.0
C233 C 0.53478 0.49814 0.57307 0.0
C234 C 0.5316 0.53985 0.59057 0.0
C235 C 0.49185 0.44975 0.57207 0.0
C236 C 0.44431 0.44189 0.58739 0.0
H237 H 0.57107 0.50235 0.56301 0.0
H238 H 0.49625 0.41803 0.56085 0.0
S239 S 0.41596 0.54087 0.63067 0.0
N240 N 0.47737 0.57154 0.61986 0.0
N241 N 0.39633 0.48126 0.61655 0.0
C242 C 0.44034 0.48425 0.60164 0.0
C243 C 0.48417 0.5331 0.60367 0.0
C244 C 0.03471 0.53629 0.95959 0.0
C245 C 0.98963 0.53333 0.97634 0.0
C246 C 0.03899 0.4927 0.95516 0.0
C247 C -0.00196 0.44448 0.96629 0.0
H248 H 0.06757 0.57271 0.95176 0.0
H249 H 0.07497 0.49696 0.94371 0.0
S250 S 0.87033 0.41611 0.00752 0.0
N251 N 0.90238 0.47822 0.00141 0.0
N252 N 0.90998 0.39629 0.99218 0.0
C253 C 0.95201 0.44086 0.98085 0.0
C254 C 0.94795 0.4853 0.98617 0.0
C255 C 0.99114 0.51087 0.41081 0.0
C256 C 0.00648 0.54109 0.36807 0.0
C257 C -8e-05 0.47003 0.41573 0.0
C258 C 0.02561 0.45912 0.37872 0.0
H259 H 0.97072 0.51773 0.43979 0.0
H260 H 0.98605 0.44651 0.44843 0.0
S261 S 0.07635 0.5293 0.26118 0.0
N262 N 0.05022 0.5588 0.2891 0.0
N263 N 0.06775 0.48307 0.29875 0.0
C264 C 0.04282 0.49039 0.33672 0.0
C265 C 0.03294 0.53112 0.33128 0.0
C266 C 0.51878 -0.00204 0.72408 0.0
C267 C 0.52882 0.96464 0.6969 0.0
C268 C 0.46934 0.98935 0.72922 0.0
C269 C 0.42805 0.94678 0.70785 0.0
H270 H 0.54948 0.03192 0.73993 0.0
H271 H 0.46372 0.01703 0.74904 0.0
S272 S 0.43404 0.84462 0.63851 0.0
N273 N 0.49331 0.88517 0.65219 0.0
N274 N 0.40056 0.8686 0.66213 0.0
C275 C 0.43749 0.91175 0.68286 0.0
C276 C 0.48783 0.92082 0.67727 0.0
C277 C 0.46448 0.51896 0.05427 0.0
C278 C 0.45839 0.47062 0.06238 0.0
C279 C 0.51243 0.56122 0.04672 0.0
C280 C 0.55619 0.5568 0.04683 0.0
H281 H 0.43189 0.52401 0.05153 0.0
H282 H 0.51486 0.59715 0.03859 0.0
S283 S 0.56169 0.44039 0.0745 0.0
N284 N 0.50092 0.42208 0.07608 0.0
N285 N 0.59086 0.50141 0.06163 0.0
C286 C 0.55096 0.50939 0.05814 0.0
C287 C 0.50215 0.46637 0.06603 0.0
C288 C 0.12996 0.82481 0.33652 0.0
C289 C 0.12684 0.77845 0.32481 0.0
C290 C 0.16797 0.87021 0.31645 0.0
C291 C 0.20507 0.87138 0.28438 0.0
H292 H 0.10257 0.82618 0.36111 0.0
H293 H 0.16899 0.90485 0.32756 0.0
S294 S 0.21248 0.75994 0.24031 0.0
N295 N 0.16291 0.73602 0.27752 0.0
N296 N 0.23493 0.82164 0.24032 0.0
C297 C 0.20181 0.82514 0.27153 0.0
C298 C 0.16269 0.77869 0.29169 0.0
C299 C 0.35435 0.17952 0.59541 0.0
C300 C 0.32282 0.1947 0.61873 0.0
C301 C 0.36197 0.14159 0.61573 0.0
C302 C 0.33833 0.11713 0.66023 0.0
H303 H 0.37363 0.1972 0.56125 0.0
H304 H 0.38603 0.13087 0.59577 0.0
S305 S 0.25294 0.14347 0.7369 0.0
N306 N 0.26808 0.18239 0.68953 0.0
N307 N 0.28285 0.11161 0.72757 0.0
C308 C 0.30703 0.13217 0.68422 0.0
C309 C 0.29909 0.17068 0.6635 0.0
C310 C 0.14906 0.25917 0.99153 0.0
C311 C 0.1976 0.30136 -0.00358 0.0
C312 C 0.10916 0.26417 0.97272 0.0
C313 C 0.11654 0.31132 0.95685 0.0
H314 H 0.14164 0.22202 0.00295 0.0
H315 H 0.07207 0.23079 0.97088 0.0
S316 S 0.23716 0.4332 0.95948 0.0
N317 N 0.25135 0.39175 0.98263 0.0
N318 N 0.17641 0.40093 0.94623 0.0
C319 C 0.1652 0.35368 0.96031 0.0
C320 C 0.20569 0.34877 0.98049 0.0
C321 C 0.8288 0.16777 0.34971 0.0
C322 C 0.85257 0.21384 0.32396 0.0
C323 C 0.79099 0.12381 0.32775 0.0
C324 C 0.77545 0.12378 0.27883 0.0
H325 H 0.83986 0.1654 0.38708 0.0
H326 H 0.77423 0.08936 0.34947 0.0
S327 S 0.82554 0.23494 0.19528 0.0
N328 N 0.85766 0.2572 0.24678 0.0
N329 N 0.78642 0.17423 0.20551 0.0
C330 C 0.79849 0.16973 0.25269 0.0
C331 C 0.83697 0.21482 0.27526 0.0
C332 C 0.68051 0.82253 0.63095 0.0
C333 C 0.63348 0.77894 0.62262 0.0
C334 C 0.68447 0.86258 0.6596 0.0
C335 C 0.64162 0.86092 0.68119 0.0
H336 H 0.71488 0.82558 0.61594 0.0
H337 H 0.7216 0.89522 0.6647 0.0
S338 S 0.50903 0.75687 0.66824 0.0
N339 N 0.54266 0.73756 0.6367 0.0
N340 N 0.55016 0.81278 0.69044 0.0
C341 C 0.59419 0.81794 0.67256 0.0
C342 C 0.5901 0.77715 0.64316 0.0
C343 C 0.79481 0.63096 0.0168 0.0
C344 C 0.79472 0.67648 0.0089 0.0
C345 C 0.83175 0.6225 -0.00486 0.0
C346 C 0.87057 0.65966 0.96558 0.0
H347 H 0.76573 0.60132 0.03933 0.0
H348 H 0.83096 0.58732 0.00329 0.0
S349 S 0.88685 0.78501 0.93297 0.0
N350 N 0.83587 0.75866 0.96835 0.0
N351 N 0.90623 0.74328 0.92897 0.0
C352 C 0.87068 0.70515 0.95711 0.0
C353 C 0.83257 0.71344 0.97844 0.0
C354 C 0.27986 0.94142 0.48326 0.0
C355 C 0.281 0.98191 0.45721 0.0
C356 C 0.27298 0.93709 0.53445 0.0
C357 C 0.26564 0.97233 0.5613 0.0
H358 H 0.28512 0.91319 0.46404 0.0
H359 H 0.27345 0.90592 0.55314 0.0
S360 S 0.26407 0.0846 0.51036 0.0
N361 N 0.27389 0.05773 0.46187 0.0
N362 N 0.25952 0.04894 0.55812 0.0
C363 C 0.26579 0.01256 0.53564 0.0
C364 C 0.27396 0.01759 0.48357 0.0
C365 C 0.33158 0.36855 0.85397 0.0
C366 C 0.34577 0.33884 0.88211 0.0
C367 C 0.32688 0.36355 0.8027 0.0
C368 C 0.33697 0.32924 0.77759 0.0
H369 H 0.32329 0.39549 0.87165 0.0
H370 H 0.31578 0.38712 0.78257 0.0
S371 S 0.37439 0.24185 0.83383 0.0
N372 N 0.36904 0.27321 0.88097 0.0
N373 N 0.36082 0.26428 0.78441 0.0
C374 C 0.35127 0.29932 0.80511 0.0
C375 C 0.35546 0.30396 0.85744 0.0
C376 C 0.03001 0.32613 0.20883 0.0
C377 C -0.00219 0.27958 0.2318 0.0
C378 C 0.02691 0.33295 0.15827 0.0
C379 C 0.99102 0.29372 0.12867 0.0
H380 H 0.05772 0.35781 0.23014 0.0
H381 H 0.05266 0.3696 0.14242 0.0
S382 S 0.89779 0.1642 0.17069 0.0
N383 N 0.92893 0.19322 0.22102 0.0
N384 N 0.92284 0.20634 0.12585 0.0
C385 C 0.95852 0.24685 0.15104 0.0
C386 C 0.96209 0.23966 0.20259 0.0
C387 C 0.66841 0.02848 0.47044 0.0
C388 C 0.66891 0.99011 0.44186 0.0
C389 C 0.68345 0.03581 0.51979 0.0
C390 C 0.70003 0.00537 0.5426 0.0
H391 H 0.65637 0.05337 0.45467 0.0
H392 H 0.68197 0.06561 0.54024 0.0
S393 S 0.70692 0.89833 0.48493 0.0
N394 N 0.68638 0.92042 0.44055 0.0
N395 N 0.71476 0.93425 0.53339 0.0
C396 C 0.70069 0.96672 0.51464 0.0
C397 C 0.68501 0.959 0.46432 0.0
C398 C 0.68758 0.729 0.82618 0.0
C399 C 0.67105 0.68223 0.8497 0.0
C400 C 0.6986 0.73493 0.7756 0.0
C401 C 0.69304 0.69421 0.74647 0.0
H402 H 0.69315 0.76164 0.84712 0.0
H403 H 0.71113 0.77174 0.75923 0.0
S404 S 0.64889 0.56324 0.79002 0.0
N405 N 0.64829 0.59403 0.83988 0.0
N406 N 0.66878 0.60514 0.74482 0.0
C407 C 0.67579 0.64701 0.76942 0.0
C408 C 0.66484 0.64104 0.82099 0.0
C409 C 0.0127 0.73329 0.20566 0.0
C410 C 0.97163 0.69778 0.2342 0.0
C411 C 0.01537 0.7263 0.15487 0.0
C412 C 0.97662 0.68405 0.13089 0.0
H413 H 0.04384 0.76589 0.2229 0.0
H414 H 0.04777 0.75432 0.13426 0.0
S415 S 0.86067 0.58065 0.18919 0.0
N416 N 0.8915 0.61919 0.23507 0.0
N417 N 0.89573 0.60636 0.13948 0.0
C418 C 0.93497 0.6487 0.15898 0.0
C419 C 0.93269 0.65547 0.21071 0.0
loop_
_geom_bond_atom_site_label_1
_geom_bond_atom_site_label_2
_geom_bond_distance
_geom_bond_site_symmetry_2
_ccdc_geom_bond_type
C0 O1 1.160 . S
C0 O7 1.185 . S
O1 C0 1.160 . S
O2 Zn3 1.899 1_565 S
O2 C10 1.284 . S
Zn3 O2 1.899 1_545 S
Zn3 O4 2.032 . S
Zn3 O7 2.086 . S
Zn3 O12 1.977 . S
O4 Zn3 2.032 . S
O4 C8 1.278 1_545 S
C5 O6 1.203 1_545 S
C5 O12 1.267 . S
O6 C5 1.203 1_565 S
O7 C0 1.185 . S
O7 Zn3 2.086 . S
C8 O4 1.278 1_565 S
C8 O9 1.211 . S
O9 C8 1.211 . S
C10 O2 1.284 . S
C10 O11 1.273 . S
O11 C10 1.273 . S
O12 Zn3 1.977 . S
O12 C5 1.267 . S
C13 O14 1.160 . S
C13 O20 1.185 . S
O14 C13 1.160 . S
O15 Zn16 1.899 . S
O15 C23 1.284 . S
Zn16 O15 1.899 . S
Zn16 O17 2.032 . S
Zn16 O20 2.086 . S
Zn16 O25 1.977 . S
O17 Zn16 2.032 . S
O17 C21 1.278 . S
C18 O19 1.203 . S
C18 O25 1.267 . S
O19 C18 1.203 . S
O20 C13 1.185 . S
O20 Zn16 2.086 . S
C21 O17 1.278 . S
C21 O22 1.211 . S
O22 C21 1.211 . S
C23 O15 1.284 . S
C23 O24 1.273 . S
O24 C23 1.273 . S
O25 Zn16 1.977 . S
O25 C18 1.267 . S
C26 O27 1.160 . S
C26 O33 1.185 . S
O27 C26 1.160 . S
O28 Zn29 1.899 1_455 S
O28 C36 1.284 . S
Zn29 O28 1.899 1_655 S
Zn29 O30 2.032 . S
Zn29 O33 2.086 . S
Zn29 O38 1.977 1_556 S
O30 Zn29 2.032 . S
O30 C34 1.278 1_655 S
C31 O32 1.203 1_655 S
C31 O38 1.267 . S
O32 C31 1.203 1_455 S
O33 C26 1.185 . S
O33 Zn29 2.086 . S
C34 O30 1.278 1_455 S
C34 O35 1.211 . S
O35 C34 1.211 . S
C36 O28 1.284 . S
C36 O37 1.273 . S
O37 C36 1.273 . S
O38 Zn29 1.977 1_554 S
O38 C31 1.267 . S
C39 O40 1.160 . S
C39 O46 1.185 . S
O40 C39 1.160 . S
O41 Zn42 1.899 1_545 S
O41 C49 1.284 . S
Zn42 O41 1.899 1_565 S
Zn42 O43 2.032 . S
Zn42 O46 2.086 . S
Zn42 O51 1.977 . S
O43 Zn42 2.032 . S
O43 C47 1.278 1_565 S
C44 O45 1.203 1_565 S
C44 O51 1.267 . S
O45 C44 1.203 1_545 S
O46 C39 1.185 . S
O46 Zn42 2.086 . S
C47 O43 1.278 1_545 S
C47 O48 1.211 . S
O48 C47 1.211 . S
C49 O41 1.284 . S
C49 O50 1.273 . S
O50 C49 1.273 . S
O51 Zn42 1.977 . S
O51 C44 1.267 . S
C52 O53 1.160 . S
C52 O59 1.185 . S
O53 C52 1.160 . S
O54 Zn55 1.899 . S
O54 C62 1.284 . S
Zn55 O54 1.899 . S
Zn55 O56 2.032 . S
Zn55 O59 2.086 . S
Zn55 O64 1.977 . S
O56 Zn55 2.032 . S
O56 C60 1.278 . S
C57 O58 1.203 . S
C57 O64 1.267 . S
O58 C57 1.203 . S
O59 C52 1.185 . S
O59 Zn55 2.086 . S
C60 O56 1.278 . S
C60 O61 1.211 . S
O61 C60 1.211 . S
C62 O54 1.284 . S
C62 O63 1.273 . S
O63 C62 1.273 . S
O64 Zn55 1.977 . S
O64 C57 1.267 . S
C65 O66 1.160 . S
C65 O72 1.185 . S
O66 C65 1.160 . S
O67 Zn68 1.899 1_655 S
O67 C75 1.284 . S
Zn68 O67 1.899 1_455 S
Zn68 O69 2.032 . S
Zn68 O72 2.086 . S
Zn68 O77 1.977 1_556 S
O69 Zn68 2.032 . S
O69 C73 1.278 1_455 S
C70 O71 1.203 1_455 S
C70 O77 1.267 . S
O71 C70 1.203 1_655 S
O72 C65 1.185 . S
O72 Zn68 2.086 . S
C73 O69 1.278 1_655 S
C73 O74 1.211 . S
O74 C73 1.211 . S
C75 O67 1.284 . S
C75 O76 1.273 . S
O76 C75 1.273 . S
O77 Zn68 1.977 1_554 S
O77 C70 1.267 . S
C78 O79 1.160 . S
C78 O85 1.185 . S
O79 C78 1.160 . S
O80 Zn81 1.899 1_455 S
O80 C88 1.284 . S
Zn81 O80 1.899 1_655 S
Zn81 O82 2.032 . S
Zn81 O85 2.086 . S
Zn81 O90 1.977 . S
O82 Zn81 2.032 . S
O82 C86 1.278 1_655 S
C83 O84 1.203 1_655 S
C83 O90 1.267 . S
O84 C83 1.203 1_455 S
O85 C78 1.185 . S
O85 Zn81 2.086 . S
C86 O82 1.278 1_455 S
C86 O87 1.211 . S
O87 C86 1.211 . S
C88 O80 1.284 . S
C88 O89 1.273 . S
O89 C88 1.273 . S
O90 Zn81 1.977 . S
O90 C83 1.267 . S
C91 O92 1.160 . S
C91 O98 1.185 . S
O92 C91 1.160 . S
O93 Zn94 1.899 1_545 S
O93 C101 1.284 . S
Zn94 O93 1.899 1_565 S
Zn94 O95 2.032 . S
Zn94 O98 2.086 . S
Zn94 O103 1.977 . S
O95 Zn94 2.032 . S
O95 C99 1.278 1_565 S
C96 O97 1.203 1_565 S
C96 O103 1.267 . S
O97 C96 1.203 1_545 S
O98 C91 1.185 . S
O98 Zn94 2.086 . S
C99 O95 1.278 1_545 S
C99 O100 1.211 . S
O100 C99 1.211 . S
C101 O93 1.284 . S
C101 O102 1.273 . S
O102 C101 1.273 . S
O103 Zn94 1.977 . S
O103 C96 1.267 . S
C104 O105 1.160 . S
C104 O111 1.185 . S
O105 C104 1.160 . S
O106 Zn107 1.899 . S
O106 C114 1.284 . S
Zn107 O106 1.899 . S
Zn107 O108 2.032 . S
Zn107 O111 2.086 . S
Zn107 O116 1.977 1_554 S
O108 Zn107 2.032 . S
O108 C112 1.278 . S
C109 O110 1.203 . S
C109 O116 1.267 . S
O110 C109 1.203 . S
O111 C104 1.185 . S
O111 Zn107 2.086 . S
C112 O108 1.278 . S
C112 O113 1.211 . S
O113 C112 1.211 . S
C114 O106 1.284 . S
C114 O115 1.273 . S
O115 C114 1.273 . S
O116 Zn107 1.977 1_556 S
O116 C109 1.267 . S
C117 O118 1.160 . S
C117 O124 1.185 . S
O118 C117 1.160 . S
O119 Zn120 1.899 1_655 S
O119 C127 1.284 . S
Zn120 O119 1.899 1_455 S
Zn120 O121 2.032 . S
Zn120 O124 2.086 . S
Zn120 O129 1.977 . S
O121 Zn120 2.032 . S
O121 C125 1.278 1_455 S
C122 O123 1.203 1_455 S
C122 O129 1.267 . S
O123 C122 1.203 1_655 S
O124 C117 1.185 . S
O124 Zn120 2.086 . S
C125 O121 1.278 1_655 S
C125 O126 1.211 . S
O126 C125 1.211 . S
C127 O119 1.284 . S
C127 O128 1.273 . S
O128 C127 1.273 . S
O129 Zn120 1.977 . S
O129 C122 1.267 . S
C130 O131 1.160 . S
C130 O137 1.185 . S
O131 C130 1.160 . S
O132 Zn133 1.899 1_565 S
O132 C140 1.284 . S
Zn133 O132 1.899 1_545 S
Zn133 O134 2.032 . S
Zn133 O137 2.086 . S
Zn133 O142 1.977 . S
O134 Zn133 2.032 . S
O134 C138 1.278 1_545 S
C135 O136 1.203 1_545 S
C135 O142 1.267 . S
O136 C135 1.203 1_565 S
O137 C130 1.185 . S
O137 Zn133 2.086 . S
C138 O134 1.278 1_565 S
C138 O139 1.211 . S
O139 C138 1.211 . S
C140 O132 1.284 . S
C140 O141 1.273 . S
O141 C140 1.273 . S
O142 Zn133 1.977 . S
O142 C135 1.267 . S
C143 O144 1.160 . S
C143 O150 1.185 . S
O144 C143 1.160 . S
O145 Zn146 1.899 . S
O145 C153 1.284 . S
Zn146 O145 1.899 . S
Zn146 O147 2.032 . S
Zn146 O150 2.086 . S
Zn146 O155 1.977 1_554 S
O147 Zn146 2.032 . S
O147 C151 1.278 . S
C148 O149 1.203 . S
C148 O155 1.267 . S
O149 C148 1.203 . S
O150 C143 1.185 . S
O150 Zn146 2.086 . S
C151 O147 1.278 . S
C151 O152 1.211 . S
O152 C151 1.211 . S
C153 O145 1.284 . S
C153 O154 1.273 . S
O154 C153 1.273 . S
O155 Zn146 1.977 1_556 S
O155 C148 1.267 . S
C156 C157 1.369 . S
C156 C158 1.419 . S
C156 H160 0.930 . S
C157 C156 1.369 . S
C157 C166 1.429 . S
C158 C156 1.419 . S
C158 C159 1.363 . S
C158 H161 0.929 . S
C159 C158 1.363 . S
C159 C165 1.428 . S
H160 C156 0.930 . S
H161 C158 0.929 . S
S162 N163 1.613 . S
S162 N164 1.610 . S
N163 S162 1.613 . S
N163 C166 1.350 . S
N164 S162 1.610 . S
N164 C165 1.351 . S
C165 C159 1.428 . S
C165 N164 1.351 . S
C165 C166 1.434 . S
C166 C157 1.429 . S
C166 N163 1.350 . S
C166 C165 1.434 . S
C167 C168 1.369 . S
C167 C169 1.419 . S
C167 H171 0.930 . S
C168 C167 1.369 . S
C168 C177 1.429 . S
C169 C167 1.419 . S
C169 C170 1.363 . S
C169 H172 0.929 . S
C170 C169 1.363 . S
C170 C176 1.428 . S
H171 C167 0.930 . S
H172 C169 0.929 . S
S173 N174 1.613 . S
S173 N175 1.610 . S
N174 S173 1.613 . S
N174 C177 1.350 . S
N175 S173 1.610 . S
N175 C176 1.351 . S
C176 C170 1.428 . S
C176 N175 1.351 . S
C176 C177 1.434 . S
C177 C168 1.429 . S
C177 N174 1.350 . S
C177 C176 1.434 . S
C178 C179 1.369 . S
C178 C180 1.419 . S
C178 H182 0.930 . S
C179 C178 1.369 . S
C179 C188 1.429 . S
C180 C178 1.419 . S
C180 C181 1.363 . S
C180 H183 0.929 . S
C181 C180 1.363 . S
C181 C187 1.428 . S
H182 C178 0.930 . S
H183 C180 0.929 . S
S184 N185 1.613 . S
S184 N186 1.610 . S
N185 S184 1.613 . S
N185 C188 1.350 . S
N186 S184 1.610 . S
N186 C187 1.351 . S
C187 C181 1.428 . S
C187 N186 1.351 . S
C187 C188 1.434 . S
C188 C179 1.429 . S
C188 N185 1.350 . S
C188 C187 1.434 . S
C189 C190 1.369 . S
C189 C191 1.419 . S
C189 H193 0.930 . S
C190 C189 1.369 . S
C190 C199 1.429 . S
C191 C189 1.419 . S
C191 C192 1.363 . S
C191 H194 0.929 . S
C192 C191 1.363 . S
C192 C198 1.428 . S
H193 C189 0.930 . S
H194 C191 0.929 . S
S195 N196 1.613 . S
S195 N197 1.610 . S
N196 S195 1.613 . S
N196 C199 1.350 . S
N197 S195 1.610 . S
N197 C198 1.351 . S
C198 C192 1.428 . S
C198 N197 1.351 . S
C198 C199 1.434 . S
C199 C190 1.429 . S
C199 N196 1.350 . S
C199 C198 1.434 . S
C200 C201 1.369 . S
C200 C202 1.419 . S
C200 H204 0.930 . S
C201 C200 1.369 . S
C201 C210 1.429 . S
C202 C200 1.419 . S
C202 C203 1.363 . S
C202 H205 0.929 . S
C203 C202 1.363 . S
C203 C209 1.428 . S
H204 C200 0.930 . S
H205 C202 0.929 . S
S206 N207 1.613 . S
S206 N208 1.610 . S
N207 S206 1.613 . S
N207 C210 1.350 . S
N208 S206 1.610 . S
N208 C209 1.351 . S
C209 C203 1.428 . S
C209 N208 1.351 . S
C209 C210 1.434 . S
C210 C201 1.429 . S
C210 N207 1.350 . S
C210 C209 1.434 . S
C211 C212 1.369 . S
C211 C213 1.419 . S
C211 H215 0.930 . S
C212 C211 1.369 . S
C212 C221 1.429 . S
C213 C211 1.419 . S
C213 C214 1.363 . S
C213 H216 0.929 . S
C214 C213 1.363 . S
C214 C220 1.428 . S
H215 C211 0.930 . S
H216 C213 0.929 . S
S217 N218 1.613 . S
S217 N219 1.610 . S
N218 S217 1.613 . S
N218 C221 1.350 . S
N219 S217 1.610 . S
N219 C220 1.351 . S
C220 C214 1.428 . S
C220 N219 1.351 . S
C220 C221 1.434 . S
C221 C212 1.429 . S
C221 N218 1.350 . S
C221 C220 1.434 . S
C222 C223 1.369 . S
C222 C224 1.419 . S
C222 H226 0.930 . S
C223 C222 1.369 . S
C223 C232 1.429 1_565 S
C224 C222 1.419 . S
C224 C225 1.363 1_565 S
C224 H227 0.929 . S
C225 C224 1.363 1_545 S
C225 C231 1.428 . S
H226 C222 0.930 . S
H227 C224 0.929 . S
S228 N229 1.613 . S
S228 N230 1.610 . S
N229 S228 1.613 . S
N229 C232 1.350 . S
N230 S228 1.610 . S
N230 C231 1.351 . S
C231 C225 1.428 . S
C231 N230 1.351 . S
C231 C232 1.434 . S
C232 C223 1.429 1_545 S
C232 N229 1.350 . S
C232 C231 1.434 . S
C233 C234 1.369 . S
C233 C235 1.419 . S
C233 H237 0.930 . S
C234 C233 1.369 . S
C234 C243 1.429 . S
C235 C233 1.419 . S
C235 C236 1.363 . S
C235 H238 0.929 . S
C236 C235 1.363 . S
C236 C242 1.428 . S
H237 C233 0.930 . S
H238 C235 0.929 . S
S239 N240 1.613 . S
S239 N241 1.610 . S
N240 S239 1.613 . S
N240 C243 1.350 . S
N241 S239 1.610 . S
N241 C242 1.351 . S
C242 C236 1.428 . S
C242 N241 1.351 . S
C242 C243 1.434 . S
C243 C234 1.429 . S
C243 N240 1.350 . S
C243 C242 1.434 . S
C244 C245 1.369 1_455 S
C244 C246 1.419 . S
C244 H248 0.930 . S
C245 C244 1.369 1_655 S
C245 C254 1.429 . S
C246 C244 1.419 . S
C246 C247 1.363 . S
C246 H249 0.929 . S
C247 C246 1.363 . S
C247 C253 1.428 1_455 S
H248 C244 0.930 . S
H249 C246 0.929 . S
S250 N251 1.613 . S
S250 N252 1.610 . S
N251 S250 1.613 . S
N251 C254 1.350 . S
N252 S250 1.610 . S
N252 C253 1.351 . S
C253 C247 1.428 1_655 S
C253 N252 1.351 . S
C253 C254 1.434 . S
C254 C245 1.429 . S
C254 N251 1.350 . S
C254 C253 1.434 . S
C255 C256 1.369 1_655 S
C255 C257 1.419 . S
C255 H259 0.930 . S
C256 C255 1.369 1_455 S
C256 C265 1.429 . S
C257 C255 1.419 . S
C257 C258 1.363 . S
C257 H260 0.929 . S
C258 C257 1.363 . S
C258 C264 1.428 1_655 S
H259 C255 0.930 . S
H260 C257 0.929 . S
S261 N262 1.613 . S
S261 N263 1.610 . S
N262 S261 1.613 . S
N262 C265 1.350 . S
N263 S261 1.610 . S
N263 C264 1.351 . S
C264 C258 1.428 1_455 S
C264 N263 1.351 . S
C264 C265 1.434 . S
C265 C256 1.429 . S
C265 N262 1.350 . S
C265 C264 1.434 . S
C266 C267 1.369 1_545 S
C266 C268 1.419 . S
C266 H270 0.930 . S
C267 C266 1.369 1_565 S
C267 C276 1.429 . S
C268 C266 1.419 . S
C268 C269 1.363 . S
C268 H271 0.929 . S
C269 C268 1.363 . S
C269 C275 1.428 1_545 S
H270 C266 0.930 . S
H271 C268 0.929 . S
S272 N273 1.613 . S
S272 N274 1.610 . S
N273 S272 1.613 . S
N273 C276 1.350 . S
N274 S272 1.610 . S
N274 C275 1.351 . S
C275 C269 1.428 1_565 S
C275 N274 1.351 . S
C275 C276 1.434 . S
C276 C267 1.429 . S
C276 N273 1.350 . S
C276 C275 1.434 . S
C277 C278 1.369 . S
C277 C279 1.419 . S
C277 H281 0.930 . S
C278 C277 1.369 . S
C278 C287 1.429 . S
C279 C277 1.419 . S
C279 C280 1.363 . S
C279 H282 0.929 . S
C280 C279 1.363 . S
C280 C286 1.428 . S
H281 C277 0.930 . S
H282 C279 0.929 . S
S283 N284 1.613 . S
S283 N285 1.610 . S
N284 S283 1.613 . S
N284 C287 1.350 . S
N285 S283 1.610 . S
N285 C286 1.351 . S
C286 C280 1.428 . S
C286 N285 1.351 . S
C286 C287 1.434 . S
C287 C278 1.429 . S
C287 N284 1.350 . S
C287 C286 1.434 . S
C288 C289 1.369 . S
C288 C290 1.419 . S
C288 H292 0.930 . S
C289 C288 1.369 . S
C289 C298 1.429 . S
C290 C288 1.419 . S
C290 C291 1.363 . S
C290 H293 0.929 . S
C291 C290 1.363 . S
C291 C297 1.428 . S
H292 C288 0.930 . S
H293 C290 0.929 . S
S294 N295 1.613 . S
S294 N296 1.610 . S
N295 S294 1.613 . S
N295 C298 1.350 . S
N296 S294 1.610 . S
N296 C297 1.351 . S
C297 C291 1.428 . S
C297 N296 1.351 . S
C297 C298 1.434 . S
C298 C289 1.429 . S
C298 N295 1.350 . S
C298 C297 1.434 . S
C299 C300 1.369 . S
C299 C301 1.419 . S
C299 H303 0.930 . S
C300 C299 1.369 . S
C300 C309 1.429 . S
C301 C299 1.419 . S
C301 C302 1.363 . S
C301 H304 0.929 . S
C302 C301 1.363 . S
C302 C308 1.428 . S
H303 C299 0.930 . S
H304 C301 0.929 . S
S305 N306 1.613 . S
S305 N307 1.610 . S
N306 S305 1.613 . S
N306 C309 1.350 . S
N307 S305 1.610 . S
N307 C308 1.351 . S
C308 C302 1.428 . S
C308 N307 1.351 . S
C308 C309 1.434 . S
C309 C300 1.429 . S
C309 N306 1.350 . S
C309 C308 1.434 . S
C310 C311 1.369 . S
C310 C312 1.419 . S
C310 H314 0.930 . S
C311 C310 1.369 . S
C311 C320 1.429 1_554 S
C312 C310 1.419 . S
C312 C313 1.363 1_554 S
C312 H315 0.929 . S
C313 C312 1.363 1_556 S
C313 C319 1.428 . S
H314 C310 0.930 . S
H315 C312 0.929 . S
S316 N317 1.613 . S
S316 N318 1.610 . S
N317 S316 1.613 . S
N317 C320 1.350 . S
N318 S316 1.610 . S
N318 C319 1.351 . S
C319 C313 1.428 . S
C319 N318 1.351 . S
C319 C320 1.434 . S
C320 C311 1.429 1_556 S
C320 N317 1.350 . S
C320 C319 1.434 . S
C321 C322 1.369 . S
C321 C323 1.419 . S
C321 H325 0.930 . S
C322 C321 1.369 . S
C322 C331 1.429 . S
C323 C321 1.419 . S
C323 C324 1.363 . S
C323 H326 0.929 . S
C324 C323 1.363 . S
C324 C330 1.428 . S
H325 C321 0.930 . S
H326 C323 0.929 . S
S327 N328 1.613 . S
S327 N329 1.610 . S
N328 S327 1.613 . S
N328 C331 1.350 . S
N329 S327 1.610 . S
N329 C330 1.351 . S
C330 C324 1.428 . S
C330 N329 1.351 . S
C330 C331 1.434 . S
C331 C322 1.429 . S
C331 N328 1.350 . S
C331 C330 1.434 . S
C332 C333 1.369 . S
C332 C334 1.419 . S
C332 H336 0.930 . S
C333 C332 1.369 . S
C333 C342 1.429 . S
C334 C332 1.419 . S
C334 C335 1.363 . S
C334 H337 0.929 . S
C335 C334 1.363 . S
C335 C341 1.428 . S
H336 C332 0.930 . S
H337 C334 0.929 . S
S338 N339 1.613 . S
S338 N340 1.610 . S
N339 S338 1.613 . S
N339 C342 1.350 . S
N340 S338 1.610 . S
N340 C341 1.351 . S
C341 C335 1.428 . S
C341 N340 1.351 . S
C341 C342 1.434 . S
C342 C333 1.429 . S
C342 N339 1.350 . S
C342 C341 1.434 . S
C343 C344 1.369 . S
C343 C345 1.419 1_554 S
C343 H347 0.930 . S
C344 C343 1.369 . S
C344 C353 1.429 . S
C345 C343 1.419 1_556 S
C345 C346 1.363 . S
C345 H348 0.929 . S
C346 C345 1.363 . S
C346 C352 1.428 . S
H347 C343 0.930 . S
H348 C345 0.929 . S
S349 N350 1.613 1_556 S
S349 N351 1.610 . S
N350 S349 1.613 1_554 S
N350 C353 1.350 . S
N351 S349 1.610 . S
N351 C352 1.351 . S
C352 C346 1.428 . S
C352 N351 1.351 . S
C352 C353 1.434 1_556 S
C353 C344 1.429 . S
C353 N350 1.350 . S
C353 C352 1.434 1_554 S
C354 C355 1.369 1_565 S
C354 C356 1.419 . S
C354 H358 0.930 . S
C355 C354 1.369 1_545 S
C355 C364 1.429 . S
C356 C354 1.419 . S
C356 C357 1.363 . S
C356 H359 0.929 . S
C357 C356 1.363 . S
C357 C363 1.428 1_565 S
H358 C354 0.930 . S
H359 C356 0.929 . S
S360 N361 1.613 . S
S360 N362 1.610 . S
N361 S360 1.613 . S
N361 C364 1.350 . S
N362 S360 1.610 . S
N362 C363 1.351 . S
C363 C357 1.428 1_545 S
C363 N362 1.351 . S
C363 C364 1.434 . S
C364 C355 1.429 . S
C364 N361 1.350 . S
C364 C363 1.434 . S
C365 C366 1.369 . S
C365 C367 1.419 . S
C365 H369 0.930 . S
C366 C365 1.369 . S
C366 C375 1.429 . S
C367 C365 1.419 . S
C367 C368 1.363 . S
C367 H370 0.929 . S
C368 C367 1.363 . S
C368 C374 1.428 . S
H369 C365 0.930 . S
H370 C367 0.929 . S
S371 N372 1.613 . S
S371 N373 1.610 . S
N372 S371 1.613 . S
N372 C375 1.350 . S
N373 S371 1.610 . S
N373 C374 1.351 . S
C374 C368 1.428 . S
C374 N373 1.351 . S
C374 C375 1.434 . S
C375 C366 1.429 . S
C375 N372 1.350 . S
C375 C374 1.434 . S
C376 C377 1.369 . S
C376 C378 1.419 . S
C376 H380 0.930 . S
C377 C376 1.369 . S
C377 C386 1.429 1_455 S
C378 C376 1.419 . S
C378 C379 1.363 1_455 S
C378 H381 0.929 . S
C379 C378 1.363 1_655 S
C379 C385 1.428 . S
H380 C376 0.930 . S
H381 C378 0.929 . S
S382 N383 1.613 . S
S382 N384 1.610 . S
N383 S382 1.613 . S
N383 C386 1.350 . S
N384 S382 1.610 . S
N384 C385 1.351 . S
C385 C379 1.428 . S
C385 N384 1.351 . S
C385 C386 1.434 . S
C386 C377 1.429 1_655 S
C386 N383 1.350 . S
C386 C385 1.434 . S
C387 C388 1.369 . S
C387 C389 1.419 1_565 S
C387 H391 0.930 . S
C388 C387 1.369 . S
C388 C397 1.429 . S
C389 C387 1.419 1_545 S
C389 C390 1.363 . S
C389 H392 0.929 . S
C390 C389 1.363 . S
C390 C396 1.436 . S
H391 C387 0.930 . S
H392 C389 0.929 . S
S393 N394 1.613 . S
S393 N395 1.610 . S
N394 S393 1.613 . S
N394 C397 1.350 . S
N395 S393 1.610 . S
N395 C396 1.345 1_565 S
C396 C390 1.436 . S
C396 N395 1.345 1_545 S
C396 C397 1.431 1_545 S
C397 C388 1.429 . S
C397 N394 1.350 . S
C397 C396 1.431 1_565 S
C398 C399 1.369 . S
C398 C400 1.419 . S
C398 H402 0.930 . S
C399 C398 1.369 . S
C399 C408 1.429 . S
C400 C398 1.419 . S
C400 C401 1.363 . S
C400 H403 0.929 . S
C401 C400 1.363 . S
C401 C407 1.428 . S
H402 C398 0.930 . S
H403 C400 0.929 . S
S404 N405 1.613 . S
S404 N406 1.610 . S
N405 S404 1.613 . S
N405 C408 1.350 . S
N406 S404 1.610 . S
N406 C407 1.351 . S
C407 C401 1.428 . S
C407 N406 1.351 . S
C407 C408 1.434 . S
C408 C399 1.429 . S
C408 N405 1.350 . S
C408 C407 1.434 . S
C409 C410 1.369 1_455 S
C409 C411 1.419 . S
C409 H413 0.930 . S
C410 C409 1.369 1_655 S
C410 C419 1.429 . S
C411 C409 1.419 . S
C411 C412 1.363 . S
C411 H414 0.929 . S
C412 C411 1.363 . S
C412 C418 1.428 1_455 S
H413 C409 0.930 . S
H414 C411 0.929 . S
S415 N416 1.613 . S
S415 N417 1.610 . S
N416 S415 1.613 . S
N416 C419 1.350 . S
N417 S415 1.610 . S
N417 C418 1.351 . S
C418 C412 1.428 1_655 S
C418 N417 1.351 . S
C418 C419 1.434 . S
C419 C410 1.429 . S
C419 N416 1.350 . S
C419 C418 1.434 . S
C157 C0 1.652 . S
C159 C104 1.650 . S
C168 C13 1.651 . S
C170 C117 1.647 . S
C179 C130 1.649 . S
C181 C26 1.646 . S
C190 C143 1.651 . S
C192 C39 1.648 . S
C201 C78 1.649 . S
C203 C52 1.647 . S
C212 C91 1.651 . S
C214 C65 1.648 . S
C223 C8 1.389 . S
C225 C47 1.391 . S
C234 C60 1.380 . S
C236 C21 1.380 . S
C245 C73 1.379 . S
C247 C34 1.375 . S
C256 C86 1.379 . S
C258 C125 1.383 . S
C267 C138 1.376 . S
C269 C99 1.374 . S
C278 C112 1.386 . S
C280 C151 1.386 . S
C289 C88 1.244 . S
C291 C10 1.252 . S
C300 C23 1.242 . S
C302 C101 1.252 . S
C311 C114 1.239 . S
C313 C36 1.252 . S
C322 C127 1.246 . S
C324 C49 1.250 . S
C333 C62 1.241 . S
C335 C140 1.249 . S
C344 C153 1.245 . S
C346 C75 1.251 . S
C355 C5 1.109 . S
C357 C96 1.094 . S
C366 C109 1.110 . S
C368 C18 1.098 . S
C377 C122 1.093 . S
C379 C31 1.106 . S
C388 C44 1.107 . S
C390 C135 1.098 . S
C399 C148 1.095 . S
C401 C57 1.107 . S
C410 C83 1.102 . S
C412 C70 1.098 . S
