# Generated by pormake.
# Topology qtz-e, (6)-cn, num edge types: 1
# Building blocks:
#     Node 0, Type 0, BuildingBlock: PAMTOO_clean_sbu_0, # of connection points: 6
#     Node 1, Type 0, BuildingBlock: PAMTOO_clean_sbu_0, # of connection points: 6
#     Node 2, Type 0, BuildingBlock: PAMTOO_clean_sbu_0, # of connection points: 6
#     Node 3, Type 0, BuildingBlock: PAMTOO_clean_sbu_0, # of connection points: 6
#     Node 4, Type 0, BuildingBlock: PAMTOO_clean_sbu_0, # of connection points: 6
#     Node 5, Type 0, BuildingBlock: PAMTOO_clean_sbu_0, # of connection points: 6
#     Edge 6, Type (0, 0), BuildingBlock: EYOCIG_clean_linker_4, # of connection points: 2
#     Edge 7, Type (0, 0), BuildingBlock: EYOCIG_clean_linker_4, # of connection points: 2
#     Edge 8, Type (0, 0), BuildingBlock: EYOCIG_clean_linker_4, # of connection points: 2
#     Edge 9, Type (0, 0), BuildingBlock: EYOCIG_clean_linker_4, # of connection points: 2
#     Edge 10, Type (0, 0), BuildingBlock: EYOCIG_clean_linker_4, # of connection points: 2
#     Edge 11, Type (0, 0), BuildingBlock: EYOCIG_clean_linker_4, # of connection points: 2
#     Edge 12, Type (0, 0), BuildingBlock: EYOCIG_clean_linker_4, # of connection points: 2
#     Edge 13, Type (0, 0), BuildingBlock: EYOCIG_clean_linker_4, # of connection points: 2
#     Edge 14, Type (0, 0), BuildingBlock: EYOCIG_clean_linker_4, # of connection points: 2
#     Edge 15, Type (0, 0), BuildingBlock: EYOCIG_clean_linker_4, # of connection points: 2
#     Edge 16, Type (0, 0), BuildingBlock: EYOCIG_clean_linker_4, # of connection points: 2
#     Edge 17, Type (0, 0), BuildingBlock: EYOCIG_clean_linker_4, # of connection points: 2
#     Edge 18, Type (0, 0), BuildingBlock: EYOCIG_clean_linker_4, # of connection points: 2
#     Edge 19, Type (0, 0), BuildingBlock: EYOCIG_clean_linker_4, # of connection points: 2
#     Edge 20, Type (0, 0), BuildingBlock: EYOCIG_clean_linker_4, # of connection points: 2
#     Edge 21, Type (0, 0), BuildingBlock: EYOCIG_clean_linker_4, # of connection points: 2
#     Edge 22, Type (0, 0), BuildingBlock: EYOCIG_clean_linker_4, # of connection points: 2
#     Edge 23, Type (0, 0), BuildingBlock: EYOCIG_clean_linker_4, # of connection points: 2
# Relax obj value: 0.236
# Max RMSD: 0.226
# Mean RMSD: 0.226
data_MOF--net-qtz-e--node1-PAMTOO_clean_sbu_0--edge1-EYOCIG_clean_linker_4
_symmetry_space_group_name_H-M    P1
_symmetry_Int_Tables_number       1
_symmetry_cell_setting            triclinic
loop_
_symmetry_equiv_pos_as_xyz
'x, y, z'
_cell_length_a     21.734058
_cell_length_b     21.738307
_cell_length_c     43.247571
_cell_angle_alpha  90.011582
_cell_angle_beta   89.995191
_cell_angle_gamma 120.06189
loop_
_atom_site_label
_atom_site_type_symbol
_atom_site_fract_x
_atom_site_fract_y
_atom_site_fract_z
_atom_type_partial_charge
Dy0 Dy 0.08501 0.34947 0.16821 0.0
Dy1 Dy 0.14943 0.50225 0.20919 0.0
C2 C 0.25455 0.44891 0.18803 0.0
O3 O 0.05211 0.30921 0.21627 0.0
O4 O 0.09972 0.41464 0.24359 0.0
O5 O 0.1009 0.26429 0.15222 0.0
O6 O 0.00868 0.26942 0.13709 0.0
O7 O 0.06908 0.49935 0.17673 0.0
O8 O 0.00039 0.38019 0.16544 0.0
O9 O 0.20457 0.53463 0.16302 0.0
O10 O 0.12642 0.43691 0.13405 0.0
O11 O 0.11251 0.56423 0.23361 0.0
O12 O 0.22504 0.59939 0.2324 0.0
C13 C 0.06499 0.34521 0.24207 0.0
O14 O 0.2046 0.39994 0.17032 0.0
O15 O 0.24183 0.4847 0.2091 0.0
C16 C 0.05801 0.22304 0.10122 0.0
C17 C 0.07329 0.1736 0.04319 0.0
C18 C 0.13301 0.21397 0.06178 0.0
C19 C 0.12559 0.23866 0.09061 0.0
C20 C 0.99902 0.18618 0.08158 0.0
C21 C 0.00658 0.1616 0.0527 0.0
C22 C 0.04683 0.2391 0.13336 0.0
C23 C 0.01157 0.44559 0.16542 0.0
C24 C 0.1835 0.49944 0.13666 0.0
C25 C 0.18052 0.62899 0.27738 0.0
C26 C 0.1953 0.67934 0.3385 0.0
C27 C 0.12889 0.64908 0.3239 0.0
C28 C 0.1215 0.6239 0.29345 0.0
C29 C 0.24637 0.6589 0.29257 0.0
C30 C 0.25353 0.68372 0.3228 0.0
C31 C 0.17543 0.60957 0.24416 0.0
H32 H 0.18506 0.2243 0.05448 0.0
H33 H 0.17235 0.26772 0.10494 0.0
H34 H 0.94656 0.17406 0.08907 0.0
H35 H 0.96005 0.13113 0.03837 0.0
H36 H 0.08339 0.64569 0.33578 0.0
H37 H 0.07014 0.6018 0.2823 0.0
H38 H 0.29298 0.66448 0.28092 0.0
H39 H 0.30518 0.70723 0.33387 0.0
Dy40 Dy 0.94312 0.27848 0.45843 0.0
Dy41 Dy 0.87886 0.36677 0.41739 0.0
C42 C 0.77325 0.20847 0.43896 0.0
O43 O 0.97711 0.27218 0.41045 0.0
O44 O 0.9273 0.32758 0.38297 0.0
O45 O 0.92778 0.17736 0.4741 0.0
O46 O 0.01899 0.275 0.48986 0.0
O47 O 0.95962 0.44454 0.44968 0.0
O48 O 0.02787 0.39383 0.46125 0.0
O49 O 0.82392 0.34445 0.46361 0.0
O50 O 0.90166 0.32443 0.49259 0.0
O51 O 0.91595 0.46551 0.39276 0.0
O52 O 0.80336 0.38829 0.39417 0.0
C53 C 0.96319 0.29412 0.38458 0.0
O54 O 0.82347 0.20907 0.45632 0.0
O55 O 0.7857 0.25719 0.41804 0.0
C56 C 0.96947 0.17844 0.52529 0.0
C57 C 0.95298 0.11249 0.58309 0.0
C58 C 0.89357 0.09385 0.56441 0.0
C59 C 0.9016 0.12658 0.53569 0.0
C60 C 0.02814 0.19993 0.54506 0.0
C61 C 0.01998 0.16716 0.57382 0.0
C62 C 0.98129 0.20634 0.49326 0.0
C63 C 0.01696 0.44819 0.46111 0.0
C64 C 0.84472 0.33003 0.48995 0.0
C65 C 0.84762 0.46195 0.34904 0.0
C66 C 0.83236 0.49677 0.28786 0.0
C67 C 0.89896 0.53297 0.30231 0.0
C68 C 0.90659 0.51555 0.33279 0.0
C69 C 0.78155 0.42602 0.33401 0.0
C70 C 0.77415 0.44331 0.30376 0.0
C71 C 0.853 0.44795 0.38228 0.0
H72 H 0.8413 0.0522 0.57154 0.0
H73 H 0.85507 0.10944 0.52127 0.0
H74 H 0.08081 0.24024 0.53773 0.0
H75 H 0.06627 0.18273 0.58824 0.0
H76 H 0.94443 0.57482 0.29028 0.0
H77 H 0.95812 0.54483 0.34381 0.0
H78 H 0.73497 0.38527 0.34581 0.0
H79 H 0.72236 0.41517 0.29281 0.0
Dy80 Dy 0.67869 0.74982 0.83471 0.0
Dy81 Dy 0.52574 0.66144 0.87538 0.0
C82 C 0.57806 0.8195 0.85384 0.0
O83 O 0.7181 0.7531 0.8826 0.0
O84 O 0.61292 0.70409 0.91007 0.0
O85 O 0.76382 0.85143 0.81898 0.0
O86 O 0.75965 0.75446 0.80398 0.0
O87 O 0.52913 0.58313 0.84359 0.0
O88 O 0.64765 0.63465 0.83072 0.0
O89 O 0.49353 0.68343 0.82901 0.0
O90 O 0.59179 0.70371 0.80032 0.0
O91 O 0.46602 0.56342 0.90068 0.0
O92 O 0.42749 0.63794 0.89807 0.0
C93 C 0.68212 0.7343 0.90851 0.0
O94 O 0.62883 0.81956 0.83705 0.0
O95 O 0.54023 0.77001 0.87423 0.0
C96 C 0.80536 0.84987 0.76802 0.0
C97 C 0.85334 0.91321 0.70964 0.0
C98 C 0.81334 0.93286 0.72828 0.0
C99 C 0.78937 0.90144 0.75729 0.0
C100 C 0.84189 0.82746 0.74836 0.0
C101 C 0.86574 0.85891 0.71931 0.0
C102 C 0.78951 0.82292 0.80021 0.0
C103 C 0.58254 0.57992 0.83155 0.0
C104 C 0.52921 0.69806 0.80277 0.0
C105 C 0.39963 0.5663 0.94382 0.0
C106 C 0.34916 0.53247 1.00499 0.0
C107 C 0.37913 0.49572 0.99074 0.0
C108 C 0.40436 0.51264 0.96027 0.0
C109 C 0.37008 0.60293 0.95867 0.0
C110 C 0.34517 0.58611 0.98892 0.0
C111 C 0.41914 0.57949 0.91058 0.0
H112 H 0.80274 0.9743 0.72087 0.0
H113 H 0.76051 0.91931 0.77163 0.0
H114 H 0.85426 0.78738 0.75594 0.0
H115 H 0.89596 0.84263 0.70496 0.0
H116 H 0.38226 0.4538 1.00291 0.0
H117 H 0.42621 0.48289 0.9494 0.0
H118 H 0.36484 0.64384 0.94673 0.0
H119 H 0.32191 0.61471 0.99973 0.0
Dy120 Dy 0.75001 0.67951 0.12485 0.0
Dy121 Dy 0.66176 0.52667 0.08398 0.0
C122 C 0.8204 0.57979 0.10527 0.0
O123 O 0.75332 0.71921 0.07701 0.0
O124 O 0.70348 0.6141 0.04944 0.0
O125 O 0.8512 0.76543 0.14059 0.0
O126 O 0.75358 0.75933 0.15598 0.0
O127 O 0.58376 0.52964 0.11613 0.0
O128 O 0.63476 0.64833 0.12847 0.0
O129 O 0.68443 0.49423 0.13013 0.0
O130 O 0.70487 0.59223 0.15908 0.0
O131 O 0.56325 0.46621 0.05904 0.0
O132 O 0.6389 0.42901 0.06093 0.0
C133 C 0.73395 0.68331 0.05108 0.0
O134 O 0.82049 0.63054 0.12209 0.0
O135 O 0.77057 0.54157 0.08505 0.0
C136 C 0.84936 0.80593 0.19174 0.0
C137 C 0.9128 0.85352 0.25014 0.0
C138 C 0.93237 0.81358 0.23141 0.0
C139 C 0.90089 0.78981 0.2024 0.0
C140 C 0.82705 0.84243 0.21149 0.0
C141 C 0.85855 0.86608 0.24054 0.0
C142 C 0.82216 0.79014 0.15959 0.0
C143 C 0.58028 0.58309 0.12794 0.0
C144 C 0.69933 0.52972 0.15642 0.0
C145 C 0.56572 0.40021 0.01562 0.0
C146 C 0.5301 0.34888 0.95462 0.0
C147 C 0.49383 0.37915 0.96907 0.0
C148 C 0.51165 0.40482 0.99945 0.0
C149 C 0.60183 0.37034 1.00058 0.0
C150 C 0.58413 0.34502 0.97041 0.0
C151 C 0.57978 0.41992 0.04882 0.0
H152 H 0.97377 0.80286 0.23877 0.0
H153 H 0.91864 0.76095 0.18799 0.0
H154 H 0.78699 0.85488 0.20396 0.0
H155 H 0.84234 0.89625 0.25496 0.0
H156 H 0.45161 0.38219 0.95711 0.0
H157 H 0.48225 0.42687 1.01048 0.0
H158 H 0.64299 0.36513 1.0123 0.0
H159 H 0.61236 0.32152 0.95947 0.0
Dy160 Dy 0.27824 0.94377 0.50147 0.0
Dy161 Dy 0.36638 0.87912 0.54231 0.0
C162 C 0.20767 0.7741 0.52114 0.0
O163 O 0.27063 0.97632 0.54955 0.0
O164 O 0.32818 0.92838 0.57679 0.0
O165 O 0.17743 0.92935 0.48585 0.0
O166 O 0.27548 0.01954 0.46976 0.0
O167 O 0.44369 0.95987 0.5099 0.0
O168 O 0.39354 0.02925 0.49995 0.0
O169 O 0.34318 0.82394 0.49614 0.0
O170 O 0.32518 0.90316 0.46738 0.0
O171 O 0.46534 0.91599 0.56674 0.0
O172 O 0.38794 0.80345 0.56532 0.0
C173 C 0.29358 0.96318 0.57532 0.0
O174 O 0.20871 0.82414 0.5035 0.0
O175 O 0.25628 0.78672 0.54215 0.0
C176 C 0.17852 0.97028 0.43453 0.0
C177 C 0.11212 0.95311 0.37679 0.0
C178 C 0.09384 0.89389 0.39553 0.0
C179 C 0.12681 0.90226 0.42422 0.0
C180 C 0.19963 0.02877 0.4147 0.0
C181 C 0.16664 0.02027 0.38597 0.0
C182 C 0.20673 0.98245 0.46651 0.0
C183 C 0.44777 0.01812 0.49943 0.0
C184 C 0.32943 0.84546 0.46984 0.0
C185 C 0.46189 0.84759 0.61037 0.0
C186 C 0.49708 0.83214 0.67146 0.0
C187 C 0.53353 0.89868 0.65698 0.0
C188 C 0.51594 0.9064 0.62654 0.0
C189 C 0.42562 0.78163 0.62546 0.0
C190 C 0.4431 0.77414 0.65566 0.0
C191 C 0.44773 0.85301 0.57717 0.0
H192 H 0.05231 0.8415 0.38847 0.0
H193 H 0.10999 0.85587 0.43869 0.0
H194 H 0.23984 0.08154 0.42195 0.0
H195 H 0.18193 0.06641 0.3715 0.0
H196 H 0.57571 0.94404 0.66895 0.0
H197 H 0.54545 0.95785 0.61548 0.0
H198 H 0.38446 0.73518 0.61373 0.0
H199 H 0.41472 0.72241 0.66664 0.0
Dy200 Dy 0.34804 0.08437 0.79171 0.0
Dy201 Dy 0.50096 0.1491 0.75072 0.0
C202 C 0.44705 0.25372 0.77185 0.0
O203 O 0.3078 0.05206 0.74361 0.0
O204 O 0.41331 0.09863 0.71636 0.0
O205 O 0.26266 0.09999 0.80769 0.0
O206 O 0.26852 0.00834 0.82308 0.0
O207 O 0.49737 0.06803 0.78293 0.0
O208 O 0.37789 0.99907 0.79356 0.0
O209 O 0.53293 0.20412 0.79694 0.0
O210 O 0.43581 0.12448 0.82571 0.0
O211 O 0.56347 0.11282 0.72628 0.0
O212 O 0.59813 0.22518 0.72766 0.0
C213 C 0.34385 0.06436 0.71786 0.0
O214 O 0.39873 0.20395 0.78982 0.0
O215 O 0.48214 0.24072 0.75053 0.0
C216 C 0.22218 0.05787 0.85884 0.0
C217 C 0.17333 0.07384 0.91689 0.0
C218 C 0.21368 0.13336 0.8982 0.0
C219 C 0.23808 0.1256 0.86936 0.0
C220 C 0.1854 0.99911 0.8786 0.0
C221 C 0.16112 0.00701 0.90748 0.0
C222 C 0.23793 0.04627 0.82672 0.0
C223 C 0.44324 0.01005 0.79371 0.0
C224 C 0.49777 0.18231 0.82328 0.0
C225 C 0.62813 0.18131 0.68258 0.0
C226 C 0.6783 0.19679 0.62138 0.0
C227 C 0.64815 0.13024 0.63585 0.0
C228 C 0.62308 0.1225 0.66634 0.0
C229 C 0.65798 0.24731 0.66753 0.0
C230 C 0.68271 0.25482 0.63727 0.0
C231 C 0.60864 0.17587 0.71581 0.0
H232 H 0.22417 0.1855 0.90543 0.0
H233 H 0.26712 0.17219 0.85494 0.0
H234 H 0.17309 0.94655 0.87118 0.0
H235 H 0.13067 0.96063 0.92189 0.0
H236 H 0.64474 0.08488 0.62383 0.0
H237 H 0.60105 0.07102 0.67737 0.0
H238 H 0.66355 0.29377 0.67931 0.0
H239 H 0.70614 0.30656 0.62632 0.0
C240 C 0.26733 0.76493 0.42181 0.0
C241 C 0.29734 0.79621 0.44498 0.0
C242 C 0.23026 0.73253 0.39437 0.0
C243 C 0.20644 0.70656 0.36952 0.0
C244 C 0.73133 0.23227 0.56548 0.0
C245 C 0.70545 0.2083 0.59033 0.0
C246 C 0.7638 0.26925 0.53802 0.0
C247 C 0.79521 0.29887 0.5148 0.0
C248 C 0.26384 0.51971 0.0884 0.0
C249 C 0.23272 0.51787 0.11171 0.0
C250 C 0.29605 0.51527 0.06087 0.0
C251 C 0.32189 0.51718 0.03602 0.0
C252 C 0.79714 0.51428 0.23191 0.0
C253 C 0.82101 0.51237 0.25678 0.0
C254 C 0.76021 0.5097 0.20444 0.0
C255 C 0.73052 0.51141 0.18124 0.0
C256 C 0.50999 0.75918 0.75464 0.0
C257 C 0.51131 0.72938 0.77786 0.0
C258 C 0.51486 0.79643 0.72724 0.0
C259 C 0.51297 0.8206 0.70245 0.0
C260 C 0.51173 0.295 0.89887 0.0
C261 C 0.51399 0.32121 0.92367 0.0
C262 C 0.51626 0.26256 0.87142 0.0
C263 C 0.51491 0.2314 0.8482 0.0
C264 C 0.38773 0.50517 0.16856 0.0
C265 C 0.32696 0.47944 0.17741 0.0
C266 C 0.45702 0.53984 0.15557 0.0
C267 C 0.51514 0.56566 0.1437 0.0
C268 C 0.13091 0.64085 0.50168 0.0
C269 C 0.16577 0.70172 0.51044 0.0
C270 C 0.09677 0.57147 0.48875 0.0
C271 C 0.06485 0.51331 0.47688 0.0
C272 C 0.4864 0.9298 0.82098 0.0
C273 C 0.46003 0.96168 0.80924 0.0
C274 C 0.522 0.89609 0.83387 0.0
C275 C 0.54826 0.86157 0.8427 0.0
C276 C 0.53895 0.4565 0.80403 0.0
C277 C 0.56501 0.51473 0.81581 0.0
C278 C 0.50392 0.38708 0.79115 0.0
C279 C 0.47792 0.32623 0.78238 0.0
C280 C 0.93214 0.48931 0.13774 0.0
C281 C 0.96381 0.46287 0.14962 0.0
C282 C 0.89816 0.52468 0.12485 0.0
C283 C 0.86311 0.55051 0.1162 0.0
C284 C 0.57108 0.09868 0.47198 0.0
C285 C 0.51291 0.06664 0.48384 0.0
C286 C 0.64031 0.13254 0.45891 0.0
C287 C 0.70106 0.167 0.44993 0.0
C288 C 0.11729 0.0948 0.96715 0.0
C289 C 0.1412 0.08154 0.94463 0.0
C290 C 0.09417 0.11761 0.99291 0.0
C291 C 0.08078 0.14142 0.01542 0.0
C292 C 0.00572 0.28136 0.32926 0.0
C293 C 0.98952 0.28345 0.35578 0.0
C294 C 0.02288 0.28995 0.29742 0.0
C295 C 0.039 0.30821 0.2709 0.0
C296 C 0.90846 0.98903 0.65901 0.0
C297 C 0.885 0.95234 0.68169 0.0
C298 C 0.93136 0.03481 0.63319 0.0
C299 C 0.94488 0.07225 0.61074 0.0
C300 C 0.73666 0.74628 0.96392 0.0
C301 C 0.71859 0.74415 0.93737 0.0
C302 C 0.74533 0.73789 0.99575 0.0
C303 C 0.74356 0.7199 0.02228 0.0
C304 C 0.03423 0.93105 0.3267 0.0
C305 C 0.07169 0.94467 0.34915 0.0
C306 C 0.98853 0.90821 0.30085 0.0
C307 C 0.95192 0.88492 0.27813 0.0
C308 C 0.28867 0.02207 0.66253 0.0
C309 C 0.30686 0.03831 0.68905 0.0
C310 C 0.28026 0.00499 0.63069 0.0
C311 C 0.28252 0.98898 0.60417 0.0
loop_
_geom_bond_atom_site_label_1
_geom_bond_atom_site_label_2
_geom_bond_distance
_geom_bond_site_symmetry_2
_ccdc_geom_bond_type
Dy0 O3 2.307 . S
Dy0 O5 2.395 . S
Dy0 O6 2.379 . S
Dy0 O8 2.339 1_455 S
Dy0 O10 2.298 . S
Dy0 O14 2.275 . S
Dy0 C22 2.738 . S
Dy1 O4 2.298 . S
Dy1 O7 2.275 . S
Dy1 O9 2.307 . S
Dy1 O11 2.395 . S
Dy1 O12 2.379 . S
Dy1 O15 2.339 . S
Dy1 C31 2.738 . S
C2 O14 1.254 . S
C2 O15 1.257 . S
O3 Dy0 2.307 . S
O3 C13 1.266 . S
O4 Dy1 2.298 . S
O4 C13 1.236 . S
O5 Dy0 2.395 . S
O5 C22 1.255 . S
O6 Dy0 2.379 . S
O6 C22 1.249 . S
O7 Dy1 2.275 . S
O7 C23 1.254 1_455 S
O8 Dy0 2.339 1_655 S
O8 C23 1.257 . S
O9 Dy1 2.307 . S
O9 C24 1.266 . S
O10 Dy0 2.298 . S
O10 C24 1.236 . S
O11 Dy1 2.395 . S
O11 C31 1.255 . S
O12 Dy1 2.379 . S
O12 C31 1.249 . S
C13 O3 1.266 . S
C13 O4 1.236 . S
O14 Dy0 2.275 . S
O14 C2 1.254 . S
O15 Dy1 2.339 . S
O15 C2 1.257 . S
C16 C19 1.344 . S
C16 C20 1.328 . S
C16 C22 1.516 . S
C17 C18 1.304 . S
C17 C21 1.323 . S
C18 C17 1.304 . S
C18 C19 1.371 . S
C18 H32 0.930 . S
C19 C16 1.344 . S
C19 C18 1.371 . S
C19 H33 0.931 . S
C20 C16 1.328 . S
C20 C21 1.433 . S
C20 H34 0.931 1_455 S
C21 C17 1.323 . S
C21 C20 1.433 . S
C21 H35 0.933 1_455 S
C22 Dy0 2.738 . S
C22 O5 1.255 . S
C22 O6 1.249 . S
C22 C16 1.516 . S
C23 O7 1.254 1_655 S
C23 O8 1.257 . S
C24 O9 1.266 . S
C24 O10 1.236 . S
C25 C28 1.344 . S
C25 C29 1.328 . S
C25 C31 1.516 . S
C26 C27 1.304 . S
C26 C30 1.323 . S
C27 C26 1.304 . S
C27 C28 1.371 . S
C27 H36 0.930 . S
C28 C25 1.344 . S
C28 C27 1.371 . S
C28 H37 0.931 . S
C29 C25 1.328 . S
C29 C30 1.433 . S
C29 H38 0.931 . S
C30 C26 1.323 . S
C30 C29 1.433 . S
C30 H39 0.933 . S
C31 Dy1 2.738 . S
C31 O11 1.255 . S
C31 O12 1.249 . S
C31 C25 1.516 . S
H32 C18 0.930 . S
H33 C19 0.931 . S
H34 C20 0.931 1_655 S
H35 C21 0.933 1_655 S
H36 C27 0.930 . S
H37 C28 0.931 . S
H38 C29 0.931 . S
H39 C30 0.933 . S
Dy40 O43 2.307 . S
Dy40 O45 2.395 . S
Dy40 O46 2.379 1_655 S
Dy40 O48 2.339 1_655 S
Dy40 O50 2.298 . S
Dy40 O54 2.275 . S
Dy40 C62 2.738 . S
Dy41 O44 2.298 . S
Dy41 O47 2.275 . S
Dy41 O49 2.307 . S
Dy41 O51 2.395 . S
Dy41 O52 2.379 . S
Dy41 O55 2.339 . S
Dy41 C71 2.738 . S
C42 O54 1.254 . S
C42 O55 1.257 . S
O43 Dy40 2.307 . S
O43 C53 1.266 . S
O44 Dy41 2.298 . S
O44 C53 1.236 . S
O45 Dy40 2.395 . S
O45 C62 1.255 . S
O46 Dy40 2.379 1_455 S
O46 C62 1.249 1_455 S
O47 Dy41 2.275 . S
O47 C63 1.254 1_655 S
O48 Dy40 2.339 1_455 S
O48 C63 1.257 . S
O49 Dy41 2.307 . S
O49 C64 1.266 . S
O50 Dy40 2.298 . S
O50 C64 1.236 . S
O51 Dy41 2.395 . S
O51 C71 1.255 . S
O52 Dy41 2.379 . S
O52 C71 1.249 . S
C53 O43 1.266 . S
C53 O44 1.236 . S
O54 Dy40 2.275 . S
O54 C42 1.254 . S
O55 Dy41 2.339 . S
O55 C42 1.257 . S
C56 C59 1.344 . S
C56 C60 1.328 1_655 S
C56 C62 1.516 . S
C57 C58 1.304 . S
C57 C61 1.323 1_655 S
C58 C57 1.304 . S
C58 C59 1.371 . S
C58 H72 0.930 . S
C59 C56 1.344 . S
C59 C58 1.371 . S
C59 H73 0.931 . S
C60 C56 1.328 1_455 S
C60 C61 1.433 . S
C60 H74 0.931 . S
C61 C57 1.323 1_455 S
C61 C60 1.433 . S
C61 H75 0.933 . S
C62 Dy40 2.738 . S
C62 O45 1.255 . S
C62 O46 1.249 1_655 S
C62 C56 1.516 . S
C63 O47 1.254 1_455 S
C63 O48 1.257 . S
C64 O49 1.266 . S
C64 O50 1.236 . S
C65 C68 1.344 . S
C65 C69 1.328 . S
C65 C71 1.516 . S
C66 C67 1.304 . S
C66 C70 1.323 . S
C67 C66 1.304 . S
C67 C68 1.371 . S
C67 H76 0.930 . S
C68 C65 1.344 . S
C68 C67 1.371 . S
C68 H77 0.931 . S
C69 C65 1.328 . S
C69 C70 1.433 . S
C69 H78 0.931 . S
C70 C66 1.323 . S
C70 C69 1.433 . S
C70 H79 0.933 . S
C71 Dy41 2.738 . S
C71 O51 1.255 . S
C71 O52 1.249 . S
C71 C65 1.516 . S
H72 C58 0.930 . S
H73 C59 0.931 . S
H74 C60 0.931 . S
H75 C61 0.933 . S
H76 C67 0.930 . S
H77 C68 0.931 . S
H78 C69 0.931 . S
H79 C70 0.933 . S
Dy80 O83 2.307 . S
Dy80 O85 2.395 . S
Dy80 O86 2.379 . S
Dy80 O88 2.339 . S
Dy80 O90 2.298 . S
Dy80 O94 2.275 . S
Dy80 C102 2.738 . S
Dy81 O84 2.298 . S
Dy81 O87 2.275 . S
Dy81 O89 2.307 . S
Dy81 O91 2.395 . S
Dy81 O92 2.379 . S
Dy81 O95 2.339 . S
Dy81 C111 2.738 . S
C82 O94 1.254 . S
C82 O95 1.257 . S
O83 Dy80 2.307 . S
O83 C93 1.266 . S
O84 Dy81 2.298 . S
O84 C93 1.236 . S
O85 Dy80 2.395 . S
O85 C102 1.255 . S
O86 Dy80 2.379 . S
O86 C102 1.249 . S
O87 Dy81 2.275 . S
O87 C103 1.254 . S
O88 Dy80 2.339 . S
O88 C103 1.257 . S
O89 Dy81 2.307 . S
O89 C104 1.266 . S
O90 Dy80 2.298 . S
O90 C104 1.236 . S
O91 Dy81 2.395 . S
O91 C111 1.255 . S
O92 Dy81 2.379 . S
O92 C111 1.249 . S
C93 O83 1.266 . S
C93 O84 1.236 . S
O94 Dy80 2.275 . S
O94 C82 1.254 . S
O95 Dy81 2.339 . S
O95 C82 1.257 . S
C96 C99 1.344 . S
C96 C100 1.328 . S
C96 C102 1.516 . S
C97 C98 1.304 . S
C97 C101 1.323 . S
C98 C97 1.304 . S
C98 C99 1.371 . S
C98 H112 0.930 . S
C99 C96 1.344 . S
C99 C98 1.371 . S
C99 H113 0.931 . S
C100 C96 1.328 . S
C100 C101 1.433 . S
C100 H114 0.931 . S
C101 C97 1.323 . S
C101 C100 1.433 . S
C101 H115 0.933 . S
C102 Dy80 2.738 . S
C102 O85 1.255 . S
C102 O86 1.249 . S
C102 C96 1.516 . S
C103 O87 1.254 . S
C103 O88 1.257 . S
C104 O89 1.266 . S
C104 O90 1.236 . S
C105 C108 1.344 . S
C105 C109 1.328 . S
C105 C111 1.516 . S
C106 C107 1.304 . S
C106 C110 1.323 . S
C107 C106 1.304 . S
C107 C108 1.371 . S
C107 H116 0.930 . S
C108 C105 1.344 . S
C108 C107 1.371 . S
C108 H117 0.931 . S
C109 C105 1.328 . S
C109 C110 1.433 . S
C109 H118 0.931 . S
C110 C106 1.323 . S
C110 C109 1.433 . S
C110 H119 0.933 . S
C111 Dy81 2.738 . S
C111 O91 1.255 . S
C111 O92 1.249 . S
C111 C105 1.516 . S
H112 C98 0.930 . S
H113 C99 0.931 . S
H114 C100 0.931 . S
H115 C101 0.933 . S
H116 C107 0.930 . S
H117 C108 0.931 . S
H118 C109 0.931 . S
H119 C110 0.933 . S
Dy120 O123 2.307 . S
Dy120 O125 2.395 . S
Dy120 O126 2.379 . S
Dy120 O128 2.339 . S
Dy120 O130 2.298 . S
Dy120 O134 2.275 . S
Dy120 C142 2.738 . S
Dy121 O124 2.298 . S
Dy121 O127 2.275 . S
Dy121 O129 2.307 . S
Dy121 O131 2.395 . S
Dy121 O132 2.379 . S
Dy121 O135 2.339 . S
Dy121 C151 2.738 . S
C122 O134 1.254 . S
C122 O135 1.257 . S
O123 Dy120 2.307 . S
O123 C133 1.266 . S
O124 Dy121 2.298 . S
O124 C133 1.236 . S
O125 Dy120 2.395 . S
O125 C142 1.255 . S
O126 Dy120 2.379 . S
O126 C142 1.249 . S
O127 Dy121 2.275 . S
O127 C143 1.254 . S
O128 Dy120 2.339 . S
O128 C143 1.257 . S
O129 Dy121 2.307 . S
O129 C144 1.266 . S
O130 Dy120 2.298 . S
O130 C144 1.236 . S
O131 Dy121 2.395 . S
O131 C151 1.255 . S
O132 Dy121 2.379 . S
O132 C151 1.249 . S
C133 O123 1.266 . S
C133 O124 1.236 . S
O134 Dy120 2.275 . S
O134 C122 1.254 . S
O135 Dy121 2.339 . S
O135 C122 1.257 . S
C136 C139 1.344 . S
C136 C140 1.328 . S
C136 C142 1.516 . S
C137 C138 1.304 . S
C137 C141 1.323 . S
C138 C137 1.304 . S
C138 C139 1.371 . S
C138 H152 0.930 . S
C139 C136 1.344 . S
C139 C138 1.371 . S
C139 H153 0.931 . S
C140 C136 1.328 . S
C140 C141 1.433 . S
C140 H154 0.931 . S
C141 C137 1.323 . S
C141 C140 1.433 . S
C141 H155 0.933 . S
C142 Dy120 2.738 . S
C142 O125 1.255 . S
C142 O126 1.249 . S
C142 C136 1.516 . S
C143 O127 1.254 . S
C143 O128 1.257 . S
C144 O129 1.266 . S
C144 O130 1.236 . S
C145 C148 1.344 . S
C145 C149 1.328 . S
C145 C151 1.516 1_556 S
C146 C147 1.304 . S
C146 C150 1.323 . S
C147 C146 1.304 . S
C147 C148 1.371 . S
C147 H156 0.930 . S
C148 C145 1.344 . S
C148 C147 1.371 . S
C148 H157 0.931 . S
C149 C145 1.328 . S
C149 C150 1.433 . S
C149 H158 0.931 . S
C150 C146 1.323 . S
C150 C149 1.433 . S
C150 H159 0.933 . S
C151 Dy121 2.738 . S
C151 O131 1.255 . S
C151 O132 1.249 . S
C151 C145 1.516 1_554 S
H152 C138 0.930 . S
H153 C139 0.931 . S
H154 C140 0.931 . S
H155 C141 0.933 . S
H156 C147 0.930 . S
H157 C148 0.931 . S
H158 C149 0.931 . S
H159 C150 0.933 . S
Dy160 O163 2.307 . S
Dy160 O165 2.395 . S
Dy160 O166 2.379 1_565 S
Dy160 O168 2.339 1_565 S
Dy160 O170 2.298 . S
Dy160 O174 2.275 . S
Dy160 C182 2.738 . S
Dy161 O164 2.298 . S
Dy161 O167 2.275 . S
Dy161 O169 2.307 . S
Dy161 O171 2.395 . S
Dy161 O172 2.379 . S
Dy161 O175 2.339 . S
Dy161 C191 2.738 . S
C162 O174 1.254 . S
C162 O175 1.257 . S
O163 Dy160 2.307 . S
O163 C173 1.266 . S
O164 Dy161 2.298 . S
O164 C173 1.236 . S
O165 Dy160 2.395 . S
O165 C182 1.255 . S
O166 Dy160 2.379 1_545 S
O166 C182 1.249 1_545 S
O167 Dy161 2.275 . S
O167 C183 1.254 1_565 S
O168 Dy160 2.339 1_545 S
O168 C183 1.257 . S
O169 Dy161 2.307 . S
O169 C184 1.266 . S
O170 Dy160 2.298 . S
O170 C184 1.236 . S
O171 Dy161 2.395 . S
O171 C191 1.255 . S
O172 Dy161 2.379 . S
O172 C191 1.249 . S
C173 O163 1.266 . S
C173 O164 1.236 . S
O174 Dy160 2.275 . S
O174 C162 1.254 . S
O175 Dy161 2.339 . S
O175 C162 1.257 . S
C176 C179 1.344 . S
C176 C180 1.328 1_565 S
C176 C182 1.516 . S
C177 C178 1.304 . S
C177 C181 1.323 1_565 S
C178 C177 1.304 . S
C178 C179 1.371 . S
C178 H192 0.930 . S
C179 C176 1.344 . S
C179 C178 1.371 . S
C179 H193 0.931 . S
C180 C176 1.328 1_545 S
C180 C181 1.433 . S
C180 H194 0.931 . S
C181 C177 1.323 1_545 S
C181 C180 1.433 . S
C181 H195 0.933 . S
C182 Dy160 2.738 . S
C182 O165 1.255 . S
C182 O166 1.249 1_565 S
C182 C176 1.516 . S
C183 O167 1.254 1_545 S
C183 O168 1.257 . S
C184 O169 1.266 . S
C184 O170 1.236 . S
C185 C188 1.344 . S
C185 C189 1.328 . S
C185 C191 1.516 . S
C186 C187 1.304 . S
C186 C190 1.323 . S
C187 C186 1.304 . S
C187 C188 1.371 . S
C187 H196 0.930 . S
C188 C185 1.344 . S
C188 C187 1.371 . S
C188 H197 0.931 . S
C189 C185 1.328 . S
C189 C190 1.433 . S
C189 H198 0.931 . S
C190 C186 1.323 . S
C190 C189 1.433 . S
C190 H199 0.933 . S
C191 Dy161 2.738 . S
C191 O171 1.255 . S
C191 O172 1.249 . S
C191 C185 1.516 . S
H192 C178 0.930 . S
H193 C179 0.931 . S
H194 C180 0.931 . S
H195 C181 0.933 . S
H196 C187 0.930 . S
H197 C188 0.931 . S
H198 C189 0.931 . S
H199 C190 0.933 . S
Dy200 O203 2.307 . S
Dy200 O205 2.395 . S
Dy200 O206 2.379 . S
Dy200 O208 2.339 1_545 S
Dy200 O210 2.298 . S
Dy200 O214 2.275 . S
Dy200 C222 2.738 . S
Dy201 O204 2.298 . S
Dy201 O207 2.275 . S
Dy201 O209 2.307 . S
Dy201 O211 2.395 . S
Dy201 O212 2.379 . S
Dy201 O215 2.339 . S
Dy201 C231 2.738 . S
C202 O214 1.254 . S
C202 O215 1.257 . S
O203 Dy200 2.307 . S
O203 C213 1.266 . S
O204 Dy201 2.298 . S
O204 C213 1.236 . S
O205 Dy200 2.395 . S
O205 C222 1.255 . S
O206 Dy200 2.379 . S
O206 C222 1.249 . S
O207 Dy201 2.275 . S
O207 C223 1.254 1_545 S
O208 Dy200 2.339 1_565 S
O208 C223 1.257 . S
O209 Dy201 2.307 . S
O209 C224 1.266 . S
O210 Dy200 2.298 . S
O210 C224 1.236 . S
O211 Dy201 2.395 . S
O211 C231 1.255 . S
O212 Dy201 2.379 . S
O212 C231 1.249 . S
C213 O203 1.266 . S
C213 O204 1.236 . S
O214 Dy200 2.275 . S
O214 C202 1.254 . S
O215 Dy201 2.339 . S
O215 C202 1.257 . S
C216 C219 1.344 . S
C216 C220 1.328 . S
C216 C222 1.516 . S
C217 C218 1.304 . S
C217 C221 1.323 . S
C218 C217 1.304 . S
C218 C219 1.371 . S
C218 H232 0.930 . S
C219 C216 1.344 . S
C219 C218 1.371 . S
C219 H233 0.931 . S
C220 C216 1.328 . S
C220 C221 1.433 . S
C220 H234 0.931 1_545 S
C221 C217 1.323 . S
C221 C220 1.433 . S
C221 H235 0.933 1_545 S
C222 Dy200 2.738 . S
C222 O205 1.255 . S
C222 O206 1.249 . S
C222 C216 1.516 . S
C223 O207 1.254 1_565 S
C223 O208 1.257 . S
C224 O209 1.266 . S
C224 O210 1.236 . S
C225 C228 1.344 . S
C225 C229 1.328 . S
C225 C231 1.516 . S
C226 C227 1.304 . S
C226 C230 1.323 . S
C227 C226 1.304 . S
C227 C228 1.371 . S
C227 H236 0.930 . S
C228 C225 1.344 . S
C228 C227 1.371 . S
C228 H237 0.931 . S
C229 C225 1.328 . S
C229 C230 1.433 . S
C229 H238 0.931 . S
C230 C226 1.323 . S
C230 C229 1.433 . S
C230 H239 0.933 . S
C231 Dy201 2.738 . S
C231 O211 1.255 . S
C231 O212 1.249 . S
C231 C225 1.516 . S
H232 C218 0.930 . S
H233 C219 0.931 . S
H234 C220 0.931 1_565 S
H235 C221 0.933 1_565 S
H236 C227 0.930 . S
H237 C228 0.931 . S
H238 C229 0.931 . S
H239 C230 0.933 . S
C240 C241 1.170 . S
C240 C242 1.380 . S
C241 C240 1.170 . S
C242 C240 1.380 . S
C242 C243 1.170 . S
C243 C242 1.170 . S
C244 C245 1.170 . S
C244 C246 1.380 . S
C245 C244 1.170 . S
C246 C244 1.380 . S
C246 C247 1.170 . S
C247 C246 1.170 . S
C248 C249 1.170 . S
C248 C250 1.380 . S
C249 C248 1.170 . S
C250 C248 1.380 . S
C250 C251 1.170 . S
C251 C250 1.170 . S
C252 C253 1.170 . S
C252 C254 1.380 . S
C253 C252 1.170 . S
C254 C252 1.380 . S
C254 C255 1.170 . S
C255 C254 1.170 . S
C256 C257 1.170 . S
C256 C258 1.380 . S
C257 C256 1.170 . S
C258 C256 1.380 . S
C258 C259 1.170 . S
C259 C258 1.170 . S
C260 C261 1.170 . S
C260 C262 1.380 . S
C261 C260 1.170 . S
C262 C260 1.380 . S
C262 C263 1.170 . S
C263 C262 1.170 . S
C264 C265 1.170 . S
C264 C266 1.380 . S
C265 C264 1.170 . S
C266 C264 1.380 . S
C266 C267 1.170 . S
C267 C266 1.170 . S
C268 C269 1.170 . S
C268 C270 1.380 . S
C269 C268 1.170 . S
C270 C268 1.380 . S
C270 C271 1.170 . S
C271 C270 1.170 . S
C272 C273 1.170 . S
C272 C274 1.380 . S
C273 C272 1.170 . S
C274 C272 1.380 . S
C274 C275 1.170 . S
C275 C274 1.170 . S
C276 C277 1.170 . S
C276 C278 1.380 . S
C277 C276 1.170 . S
C278 C276 1.380 . S
C278 C279 1.170 . S
C279 C278 1.170 . S
C280 C281 1.170 . S
C280 C282 1.380 . S
C281 C280 1.170 . S
C282 C280 1.380 . S
C282 C283 1.170 . S
C283 C282 1.170 . S
C284 C285 1.170 . S
C284 C286 1.380 . S
C285 C284 1.170 . S
C286 C284 1.380 . S
C286 C287 1.170 . S
C287 C286 1.170 . S
C288 C289 1.170 . S
C288 C290 1.380 . S
C289 C288 1.170 . S
C290 C288 1.380 . S
C290 C291 1.160 1_556 S
C291 C290 1.160 1_554 S
C292 C293 1.169 1_455 S
C292 C294 1.380 . S
C293 C292 1.169 1_655 S
C294 C292 1.380 . S
C294 C295 1.170 . S
C295 C294 1.170 . S
C296 C297 1.170 . S
C296 C298 1.380 1_565 S
C297 C296 1.170 . S
C298 C296 1.380 1_545 S
C298 C299 1.170 . S
C299 C298 1.170 . S
C300 C301 1.170 . S
C300 C302 1.380 . S
C301 C300 1.170 . S
C302 C300 1.380 . S
C302 C303 1.170 1_556 S
C303 C302 1.170 1_554 S
C304 C305 1.170 . S
C304 C306 1.380 1_455 S
C305 C304 1.170 . S
C306 C304 1.380 1_655 S
C306 C307 1.170 . S
C307 C306 1.170 . S
C308 C309 1.170 . S
C308 C310 1.380 . S
C309 C308 1.170 . S
C310 C308 1.380 . S
C310 C311 1.170 1_545 S
C311 C310 1.170 1_565 S
C241 C184 1.576 . S
C243 C26 1.618 . S
C245 C226 1.583 . S
C247 C64 1.609 . S
C249 C24 1.616 . S
C251 C106 1.590 1_554 S
C253 C66 1.591 . S
C255 C144 1.592 . S
C257 C104 1.602 . S
C259 C186 1.611 . S
C261 C146 1.620 . S
C263 C224 1.588 . S
C265 C2 1.956 . S
C267 C143 2.033 . S
C269 C162 1.956 . S
C271 C63 2.033 . S
C273 C223 2.060 . S
C275 C82 1.928 . S
C277 C103 2.022 . S
C279 C202 1.975 . S
C281 C23 2.023 . S
C283 C122 1.976 . S
C285 C183 2.061 . S
C287 C42 1.928 . S
C289 C217 0.910 . S
C291 C17 0.920 . S
C293 C53 1.677 . S
C295 C13 1.662 . S
C297 C97 0.895 . S
C299 C57 0.902 . S
C301 C93 1.659 . S
C303 C133 1.667 . S
C305 C177 0.896 . S
C307 C137 0.888 . S
C309 C213 1.677 . S
C311 C173 1.658 . S
