# Generated by pormake.
# Topology unw, (4)-cn, num edge types: 1
# Building blocks:
#     Node 0, Type 0, BuildingBlock: QUQFOY_clean_sbu_1, # of connection points: 4
#     Node 1, Type 0, BuildingBlock: QUQFOY_clean_sbu_1, # of connection points: 4
#     Node 2, Type 0, BuildingBlock: QUQFOY_clean_sbu_1, # of connection points: 4
#     Node 3, Type 0, BuildingBlock: QUQFOY_clean_sbu_1, # of connection points: 4
#     Node 4, Type 0, BuildingBlock: QUQFOY_clean_sbu_1, # of connection points: 4
#     Node 5, Type 0, BuildingBlock: QUQFOY_clean_sbu_1, # of connection points: 4
#     Node 6, Type 0, BuildingBlock: QUQFOY_clean_sbu_1, # of connection points: 4
#     Node 7, Type 0, BuildingBlock: QUQFOY_clean_sbu_1, # of connection points: 4
#     Node 8, Type 0, BuildingBlock: QUQFOY_clean_sbu_1, # of connection points: 4
#     Node 9, Type 0, BuildingBlock: QUQFOY_clean_sbu_1, # of connection points: 4
#     Node 10, Type 0, BuildingBlock: QUQFOY_clean_sbu_1, # of connection points: 4
#     Node 11, Type 0, BuildingBlock: QUQFOY_clean_sbu_1, # of connection points: 4
#     Node 12, Type 0, BuildingBlock: QUQFOY_clean_sbu_1, # of connection points: 4
#     Node 13, Type 0, BuildingBlock: QUQFOY_clean_sbu_1, # of connection points: 4
#     Node 14, Type 0, BuildingBlock: QUQFOY_clean_sbu_1, # of connection points: 4
#     Node 15, Type 0, BuildingBlock: QUQFOY_clean_sbu_1, # of connection points: 4
#     Node 16, Type 0, BuildingBlock: QUQFOY_clean_sbu_1, # of connection points: 4
#     Node 17, Type 0, BuildingBlock: QUQFOY_clean_sbu_1, # of connection points: 4
#     Node 18, Type 0, BuildingBlock: QUQFOY_clean_sbu_1, # of connection points: 4
#     Node 19, Type 0, BuildingBlock: QUQFOY_clean_sbu_1, # of connection points: 4
#     Node 20, Type 0, BuildingBlock: QUQFOY_clean_sbu_1, # of connection points: 4
#     Node 21, Type 0, BuildingBlock: QUQFOY_clean_sbu_1, # of connection points: 4
#     Node 22, Type 0, BuildingBlock: QUQFOY_clean_sbu_1, # of connection points: 4
#     Node 23, Type 0, BuildingBlock: QUQFOY_clean_sbu_1, # of connection points: 4
#     Edge 24, Type (0, 0), BuildingBlock: KIFKEQ_clean_linker_1, # of connection points: 2
#     Edge 25, Type (0, 0), BuildingBlock: KIFKEQ_clean_linker_1, # of connection points: 2
#     Edge 26, Type (0, 0), BuildingBlock: KIFKEQ_clean_linker_1, # of connection points: 2
#     Edge 27, Type (0, 0), BuildingBlock: KIFKEQ_clean_linker_1, # of connection points: 2
#     Edge 28, Type (0, 0), BuildingBlock: KIFKEQ_clean_linker_1, # of connection points: 2
#     Edge 29, Type (0, 0), BuildingBlock: KIFKEQ_clean_linker_1, # of connection points: 2
#     Edge 30, Type (0, 0), BuildingBlock: KIFKEQ_clean_linker_1, # of connection points: 2
#     Edge 31, Type (0, 0), BuildingBlock: KIFKEQ_clean_linker_1, # of connection points: 2
#     Edge 32, Type (0, 0), BuildingBlock: KIFKEQ_clean_linker_1, # of connection points: 2
#     Edge 33, Type (0, 0), BuildingBlock: KIFKEQ_clean_linker_1, # of connection points: 2
#     Edge 34, Type (0, 0), BuildingBlock: KIFKEQ_clean_linker_1, # of connection points: 2
#     Edge 35, Type (0, 0), BuildingBlock: KIFKEQ_clean_linker_1, # of connection points: 2
#     Edge 36, Type (0, 0), BuildingBlock: KIFKEQ_clean_linker_1, # of connection points: 2
#     Edge 37, Type (0, 0), BuildingBlock: KIFKEQ_clean_linker_1, # of connection points: 2
#     Edge 38, Type (0, 0), BuildingBlock: KIFKEQ_clean_linker_1, # of connection points: 2
#     Edge 39, Type (0, 0), BuildingBlock: KIFKEQ_clean_linker_1, # of connection points: 2
#     Edge 40, Type (0, 0), BuildingBlock: KIFKEQ_clean_linker_1, # of connection points: 2
#     Edge 41, Type (0, 0), BuildingBlock: KIFKEQ_clean_linker_1, # of connection points: 2
#     Edge 42, Type (0, 0), BuildingBlock: KIFKEQ_clean_linker_1, # of connection points: 2
#     Edge 43, Type (0, 0), BuildingBlock: KIFKEQ_clean_linker_1, # of connection points: 2
#     Edge 44, Type (0, 0), BuildingBlock: KIFKEQ_clean_linker_1, # of connection points: 2
#     Edge 45, Type (0, 0), BuildingBlock: KIFKEQ_clean_linker_1, # of connection points: 2
#     Edge 46, Type (0, 0), BuildingBlock: KIFKEQ_clean_linker_1, # of connection points: 2
#     Edge 47, Type (0, 0), BuildingBlock: KIFKEQ_clean_linker_1, # of connection points: 2
#     Edge 48, Type (0, 0), BuildingBlock: KIFKEQ_clean_linker_1, # of connection points: 2
#     Edge 49, Type (0, 0), BuildingBlock: KIFKEQ_clean_linker_1, # of connection points: 2
#     Edge 50, Type (0, 0), BuildingBlock: KIFKEQ_clean_linker_1, # of connection points: 2
#     Edge 51, Type (0, 0), BuildingBlock: KIFKEQ_clean_linker_1, # of connection points: 2
#     Edge 52, Type (0, 0), BuildingBlock: KIFKEQ_clean_linker_1, # of connection points: 2
#     Edge 53, Type (0, 0), BuildingBlock: KIFKEQ_clean_linker_1, # of connection points: 2
#     Edge 54, Type (0, 0), BuildingBlock: KIFKEQ_clean_linker_1, # of connection points: 2
#     Edge 55, Type (0, 0), BuildingBlock: KIFKEQ_clean_linker_1, # of connection points: 2
#     Edge 56, Type (0, 0), BuildingBlock: KIFKEQ_clean_linker_1, # of connection points: 2
#     Edge 57, Type (0, 0), BuildingBlock: KIFKEQ_clean_linker_1, # of connection points: 2
#     Edge 58, Type (0, 0), BuildingBlock: KIFKEQ_clean_linker_1, # of connection points: 2
#     Edge 59, Type (0, 0), BuildingBlock: KIFKEQ_clean_linker_1, # of connection points: 2
#     Edge 60, Type (0, 0), BuildingBlock: KIFKEQ_clean_linker_1, # of connection points: 2
#     Edge 61, Type (0, 0), BuildingBlock: KIFKEQ_clean_linker_1, # of connection points: 2
#     Edge 62, Type (0, 0), BuildingBlock: KIFKEQ_clean_linker_1, # of connection points: 2
#     Edge 63, Type (0, 0), BuildingBlock: KIFKEQ_clean_linker_1, # of connection points: 2
#     Edge 64, Type (0, 0), BuildingBlock: KIFKEQ_clean_linker_1, # of connection points: 2
#     Edge 65, Type (0, 0), BuildingBlock: KIFKEQ_clean_linker_1, # of connection points: 2
#     Edge 66, Type (0, 0), BuildingBlock: KIFKEQ_clean_linker_1, # of connection points: 2
#     Edge 67, Type (0, 0), BuildingBlock: KIFKEQ_clean_linker_1, # of connection points: 2
#     Edge 68, Type (0, 0), BuildingBlock: KIFKEQ_clean_linker_1, # of connection points: 2
#     Edge 69, Type (0, 0), BuildingBlock: KIFKEQ_clean_linker_1, # of connection points: 2
#     Edge 70, Type (0, 0), BuildingBlock: KIFKEQ_clean_linker_1, # of connection points: 2
#     Edge 71, Type (0, 0), BuildingBlock: KIFKEQ_clean_linker_1, # of connection points: 2
# Relax obj value: 0.142
# Max RMSD: 0.163
# Mean RMSD: 0.163
data_MOF--net-unw--node1-QUQFOY_clean_sbu_1--edge1-KIFKEQ_clean_linker_1
_symmetry_space_group_name_H-M    P1
_symmetry_Int_Tables_number       1
_symmetry_cell_setting            triclinic
loop_
_symmetry_equiv_pos_as_xyz
'x, y, z'
_cell_length_a     51.662954
_cell_length_b     51.565515
_cell_length_c     51.775762
_cell_angle_alpha  89.995987
_cell_angle_beta   90.015108
_cell_angle_gamma 89.983518
loop_
_atom_site_label
_atom_site_type_symbol
_atom_site_fract_x
_atom_site_fract_y
_atom_site_fract_z
_atom_type_partial_charge
O0 O 0.15908 0.32144 0.28029 0.0
Cd1 Cd 0.14059 0.33658 0.24904 0.0
Cd2 Cd 0.17827 0.37692 0.26672 0.0
O3 O 0.18173 0.3528 0.29894 0.0
O4 O 0.11429 0.30845 0.24348 0.0
O5 O 0.10365 0.34776 0.25634 0.0
C6 C 0.09688 0.324 0.25224 0.0
C7 C 0.18534 0.4216 0.26234 0.0
C8 C 0.17325 0.32956 0.29856 0.0
C9 C 0.18605 0.34747 0.21583 0.0
O10 O 0.194 0.36099 0.23464 0.0
O11 O 0.16358 0.33721 0.21588 0.0
O12 O 0.20289 0.40662 0.27182 0.0
O13 O 0.16254 0.41191 0.25876 0.0
O14 O 0.65301 0.19063 0.23815 0.0
Cd15 Cd 0.64346 0.16312 0.26454 0.0
Cd16 Cd 0.66941 0.13635 0.23238 0.0
O17 O 0.65484 0.16321 0.20561 0.0
O18 O 0.61209 0.17853 0.28089 0.0
O19 O 0.61077 0.1453 0.25371 0.0
C20 C 0.59866 0.16354 0.26598 0.0
C21 C 0.66941 0.09197 0.23896 0.0
C22 C 0.65236 0.18635 0.21405 0.0
C23 C 0.69599 0.15031 0.27936 0.0
O24 O 0.69854 0.14994 0.25498 0.0
O25 O 0.67341 0.1517 0.28929 0.0
O26 O 0.68255 0.10201 0.22015 0.0
O27 O 0.65285 0.10662 0.25082 0.0
O28 O 0.85101 0.69254 0.25598 0.0
Cd29 Cd 0.86173 0.66459 0.23076 0.0
Cd30 Cd 0.83817 0.63753 0.26369 0.0
O31 O 0.85379 0.66554 0.28885 0.0
O32 O 0.89501 0.67807 0.2161 0.0
O33 O 0.89279 0.64718 0.24594 0.0
C34 C 0.90646 0.66428 0.23365 0.0
C35 C 0.83818 0.59304 0.25696 0.0
C36 C 0.85405 0.68869 0.27999 0.0
C37 C 0.80907 0.65028 0.21825 0.0
O38 O 0.80784 0.65071 0.24271 0.0
O39 O 0.83117 0.65146 0.20717 0.0
O40 O 0.82602 0.60298 0.2765 0.0
O41 O 0.85396 0.60786 0.2443 0.0
O42 O 0.30912 0.85732 0.24533 0.0
Cd43 Cd 0.34076 0.86542 0.22329 0.0
Cd44 Cd 0.36111 0.83995 0.25904 0.0
O45 O 0.33169 0.85685 0.28142 0.0
O46 O 0.33228 0.89941 0.20635 0.0
O47 O 0.35913 0.8954 0.23954 0.0
C48 C 0.34532 0.91023 0.22482 0.0
C49 C 0.4057 0.83899 0.25324 0.0
C50 C 0.30991 0.85882 0.2698 0.0
C51 C 0.35191 0.8115 0.2131 0.0
O52 O 0.34714 0.81074 0.23711 0.0
O53 O 0.3555 0.83348 0.20222 0.0
O54 O 0.39527 0.82695 0.27261 0.0
O55 O 0.39138 0.855 0.24032 0.0
O56 O 0.13631 0.69272 0.73976 0.0
Cd57 Cd 0.117 0.67581 0.7697 0.0
Cd58 Cd 0.1571 0.63624 0.75103 0.0
O59 O 0.1603 0.66259 0.7206 0.0
O60 O 0.08925 0.70259 0.77549 0.0
O61 O 0.08092 0.66367 0.75998 0.0
C62 C 0.07292 0.68688 0.76505 0.0
C63 C 0.16721 0.59186 0.75186 0.0
C64 C 0.15118 0.68557 0.72162 0.0
C65 C 0.16084 0.66207 0.80469 0.0
O66 O 0.16991 0.64998 0.7854 0.0
O67 O 0.13845 0.67255 0.80396 0.0
O68 O 0.18411 0.60882 0.7449 0.0
O69 O 0.14362 0.59962 0.75489 0.0
O70 O 0.32138 0.15055 0.73238 0.0
Cd71 Cd 0.34613 0.14025 0.76118 0.0
Cd72 Cd 0.37448 0.16814 0.73099 0.0
O73 O 0.35062 0.15402 0.7016 0.0
O74 O 0.32679 0.11024 0.77622 0.0
O75 O 0.36239 0.10589 0.75279 0.0
C76 C 0.34209 0.0954 0.7631 0.0
C77 C 0.41892 0.17226 0.73801 0.0
C78 C 0.32712 0.15099 0.70857 0.0
C79 C 0.3539 0.1928 0.77725 0.0
O80 O 0.35639 0.19523 0.75302 0.0
O81 O 0.35444 0.17023 0.7874 0.0
O82 O 0.40735 0.18579 0.7204 0.0
O83 O 0.40592 0.15375 0.7489 0.0
O84 O 0.82482 0.37863 0.77949 0.0
Cd85 Cd 0.83907 0.40378 0.75253 0.0
Cd86 Cd 0.87907 0.35324 0.76136 0.0
O87 O 0.85147 0.34634 0.78998 0.0
O88 O 0.81017 0.43006 0.75201 0.0
O89 O 0.849 0.43905 0.76706 0.0
C90 C 0.82523 0.44605 0.76374 0.0
C91 C 0.91892 0.33061 0.75769 0.0
C92 C 0.83021 0.35865 0.79277 0.0
C93 C 0.85079 0.36787 0.70889 0.0
O94 O 0.86396 0.35519 0.72523 0.0
O95 O 0.83983 0.38918 0.71494 0.0
O96 O 0.89707 0.31869 0.75769 0.0
O97 O 0.9185 0.35518 0.76244 0.0
O98 O 0.64195 0.85812 0.80363 0.0
Cd99 Cd 0.62085 0.86161 0.77045 0.0
Cd100 Cd 0.66948 0.90804 0.77818 0.0
O101 O 0.67198 0.88763 0.81289 0.0
O102 O 0.59971 0.82863 0.77245 0.0
O103 O 0.58218 0.8673 0.77614 0.0
C104 C 0.57955 0.84244 0.77723 0.0
C105 C 0.69164 0.94782 0.77049 0.0
C106 C 0.65924 0.86718 0.81855 0.0
C107 C 0.66378 0.86774 0.73157 0.0
O108 O 0.67301 0.8852 0.74617 0.0
O109 O 0.64224 0.85671 0.73661 0.0
O110 O 0.7038 0.92644 0.77449 0.0
O111 O 0.66679 0.94735 0.77297 0.0
O112 O 0.23625 0.14254 0.36091 0.0
Cd113 Cd 0.25924 0.16481 0.38501 0.0
Cd114 Cd 0.2607 0.11153 0.32557 0.0
O115 O 0.22784 0.13504 0.32042 0.0
O116 O 0.24397 0.19799 0.39843 0.0
O117 O 0.25249 0.16394 0.42324 0.0
C118 C 0.24329 0.18723 0.42098 0.0
C119 C 0.27392 0.07488 0.30231 0.0
C120 C 0.22544 0.14983 0.34004 0.0
C121 C 0.29772 0.14787 0.35092 0.0
O122 O 0.28359 0.12797 0.35448 0.0
O123 O 0.29555 0.16652 0.36706 0.0
O124 O 0.27851 0.09802 0.29382 0.0
O125 O 0.26067 0.07263 0.32344 0.0
O126 O 0.87672 0.271 0.34722 0.0
Cd127 Cd 0.89786 0.23897 0.35623 0.0
Cd128 Cd 0.85123 0.2495 0.3991 0.0
O129 O 0.84737 0.28283 0.3762 0.0
O130 O 0.91979 0.2382 0.32406 0.0
O131 O 0.9363 0.24574 0.36243 0.0
C132 C 0.93948 0.24478 0.33773 0.0
C133 C 0.83522 0.24432 0.44178 0.0
C134 C 0.85923 0.28645 0.35485 0.0
C135 C 0.85522 0.19994 0.36386 0.0
O136 O 0.84478 0.21576 0.3795 0.0
O137 O 0.87727 0.2044 0.35368 0.0
O138 O 0.8201 0.2498 0.4228 0.0
O139 O 0.85978 0.24418 0.43718 0.0
O140 O 0.78454 0.8407 0.35893 0.0
Cd141 Cd 0.74879 0.84806 0.37347 0.0
Cd142 Cd 0.76354 0.89265 0.33419 0.0
O143 O 0.79941 0.87381 0.33592 0.0
O144 O 0.7456 0.8176 0.39763 0.0
O145 O 0.75043 0.85776 0.41141 0.0
C146 C 0.74986 0.83325 0.41651 0.0
C147 C 0.75528 0.93611 0.32253 0.0
C148 C 0.80251 0.85155 0.34626 0.0
C149 C 0.71833 0.85407 0.32461 0.0
O150 O 0.73475 0.87112 0.3181 0.0
O151 O 0.71872 0.84345 0.34688 0.0
O152 O 0.76689 0.92042 0.30704 0.0
O153 O 0.75104 0.92812 0.3458 0.0
O154 O 0.1346 0.73149 0.31194 0.0
Cd155 Cd 0.10957 0.75929 0.32475 0.0
Cd156 Cd 0.15689 0.75191 0.36704 0.0
O157 O 0.16521 0.72229 0.34084 0.0
O158 O 0.0831 0.75902 0.29588 0.0
O159 O 0.07402 0.74555 0.33515 0.0
C160 C 0.06695 0.7481 0.31136 0.0
C161 C 0.17581 0.75518 0.4088 0.0
C162 C 0.15426 0.71854 0.31904 0.0
C163 C 0.14643 0.80326 0.33584 0.0
O164 O 0.15819 0.78779 0.35084 0.0
O165 O 0.12562 0.79664 0.32423 0.0
O166 O 0.18967 0.75417 0.38821 0.0
O167 O 0.15119 0.7519 0.4061 0.0
O168 O 0.29353 0.87534 0.66076 0.0
Cd169 Cd 0.25898 0.89434 0.65989 0.0
Cd170 Cd 0.26517 0.85104 0.6106 0.0
O171 O 0.30133 0.84818 0.62836 0.0
O172 O 0.26233 0.91361 0.69375 0.0
O173 O 0.2614 0.93375 0.65639 0.0
C174 C 0.26462 0.93493 0.68109 0.0
C175 C 0.25687 0.83444 0.56854 0.0
C176 C 0.3082 0.85935 0.64926 0.0
C177 C 0.2215 0.84954 0.65336 0.0
O178 O 0.23465 0.842 0.63405 0.0
O179 O 0.22703 0.87024 0.66573 0.0
O180 O 0.26443 0.81975 0.58712 0.0
O181 O 0.25585 0.85903 0.57308 0.0
O182 O 0.17111 0.23029 0.63572 0.0
Cd183 Cd 0.15613 0.26492 0.62432 0.0
Cd184 Cd 0.1185 0.24238 0.66326 0.0
O185 O 0.14109 0.20912 0.65786 0.0
O186 O 0.18196 0.2739 0.59674 0.0
O187 O 0.14154 0.26333 0.58803 0.0
C188 C 0.16473 0.26781 0.57982 0.0
C189 C 0.07459 0.24547 0.67491 0.0
C190 C 0.16326 0.20994 0.64702 0.0
C191 C 0.15031 0.29144 0.67507 0.0
O192 O 0.13693 0.27195 0.68169 0.0
O193 O 0.15844 0.2943 0.65198 0.0
O194 O 0.09121 0.2342 0.68971 0.0
O195 O 0.0822 0.25205 0.65205 0.0
O196 O 0.73841 0.16277 0.70129 0.0
Cd197 Cd 0.76921 0.15078 0.68015 0.0
Cd198 Cd 0.73883 0.17114 0.64701 0.0
O199 O 0.71068 0.15349 0.67055 0.0
O200 O 0.78414 0.12538 0.7052 0.0
O201 O 0.76471 0.11363 0.66888 0.0
C202 C 0.77359 0.10732 0.69142 0.0
C203 C 0.75031 0.17086 0.6035 0.0
C204 C 0.71578 0.15634 0.69449 0.0
C205 C 0.78092 0.20271 0.66647 0.0
O206 O 0.75652 0.20245 0.66352 0.0
O207 O 0.79325 0.18133 0.66855 0.0
O208 O 0.72943 0.18247 0.61112 0.0
O209 O 0.76233 0.15623 0.61996 0.0
O210 O 0.81208 0.75946 0.63928 0.0
Cd211 Cd 0.83479 0.73549 0.61776 0.0
Cd212 Cd 0.86873 0.75426 0.66267 0.0
O213 O 0.83874 0.78171 0.66449 0.0
O214 O 0.81245 0.73037 0.5863 0.0
O215 O 0.84866 0.75309 0.58567 0.0
C216 C 0.82774 0.7458 0.57406 0.0
C217 C 0.91043 0.75759 0.68116 0.0
C218 C 0.8162 0.77787 0.65504 0.0
C219 C 0.84916 0.6973 0.65738 0.0
O220 O 0.85798 0.71686 0.6693 0.0
O221 O 0.8406 0.69919 0.63438 0.0
O222 O 0.88981 0.75932 0.69501 0.0
O223 O 0.90747 0.75741 0.65638 0.0
O224 O 0.34046 0.26546 0.14587 0.0
Cd225 Cd 0.34557 0.23079 0.1281 0.0
Cd226 Cd 0.39105 0.24113 0.17174 0.0
O227 O 0.3718 0.27667 0.17306 0.0
O228 O 0.31458 0.23142 0.10433 0.0
O229 O 0.35464 0.2352 0.09021 0.0
C230 C 0.33011 0.23632 0.08554 0.0
C231 C 0.4331 0.23465 0.18899 0.0
C232 C 0.3507 0.28158 0.16124 0.0
C233 C 0.35056 0.19532 0.17387 0.0
O234 O 0.36866 0.21003 0.18161 0.0
O235 O 0.33925 0.19895 0.15224 0.0
O236 O 0.41395 0.24166 0.20321 0.0
O237 O 0.42908 0.23343 0.16441 0.0
O238 O 0.36396 0.76015 0.81058 0.0
Cd239 Cd 0.37626 0.74079 0.84252 0.0
Cd240 Cd 0.34605 0.77323 0.86326 0.0
O241 O 0.35864 0.79641 0.83244 0.0
O242 O 0.41286 0.73036 0.83471 0.0
O243 O 0.40222 0.76334 0.86017 0.0
C244 C 0.4197 0.75121 0.84692 0.0
C245 C 0.34372 0.77384 0.90792 0.0
C246 C 0.36195 0.78469 0.81091 0.0
C247 C 0.32554 0.72201 0.85686 0.0
O248 O 0.3204 0.74566 0.85266 0.0
O249 O 0.3491 0.71453 0.85794 0.0
O250 O 0.32912 0.78901 0.89427 0.0
O251 O 0.36265 0.76216 0.89634 0.0
O252 O 0.27991 0.34017 0.87414 0.0
Cd253 Cd 0.24492 0.34636 0.89091 0.0
Cd254 Cd 0.25776 0.39242 0.8507 0.0
O255 O 0.2936 0.37363 0.85095 0.0
O256 O 0.24315 0.31461 0.91367 0.0
O257 O 0.24819 0.35405 0.92924 0.0
C258 C 0.24791 0.32933 0.93315 0.0
C259 C 0.25007 0.43555 0.83747 0.0
C260 C 0.29723 0.35118 0.86069 0.0
C261 C 0.21207 0.35333 0.84368 0.0
O262 O 0.22799 0.37066 0.83663 0.0
O263 O 0.21372 0.34223 0.86565 0.0
O264 O 0.26068 0.41897 0.82223 0.0
O265 O 0.24627 0.42859 0.86113 0.0
O266 O 0.63656 0.21839 0.84945 0.0
Cd267 Cd 0.61769 0.25293 0.84885 0.0
Cd268 Cd 0.66601 0.24216 0.89721 0.0
O269 O 0.66574 0.20609 0.87834 0.0
O270 O 0.59948 0.24893 0.81451 0.0
O271 O 0.57823 0.25086 0.85118 0.0
C272 C 0.57778 0.24706 0.82654 0.0
C273 C 0.68519 0.25089 0.93816 0.0
C274 C 0.65204 0.20153 0.85829 0.0
C275 C 0.66376 0.28822 0.85541 0.0
O276 O 0.67163 0.27328 0.87327 0.0
O277 O 0.64226 0.28461 0.84375 0.0
O278 O 0.69881 0.24348 0.91868 0.0
O279 O 0.66037 0.25122 0.93519 0.0
O280 O 0.75247 0.70141 0.86016 0.0
Cd281 Cd 0.77307 0.67042 0.87253 0.0
Cd282 Cd 0.73892 0.64753 0.84628 0.0
O283 O 0.7166 0.67835 0.86086 0.0
O284 O 0.78504 0.68015 0.90817 0.0
O285 O 0.75182 0.65401 0.90019 0.0
C286 C 0.76441 0.66842 0.91635 0.0
C287 C 0.74237 0.60292 0.84797 0.0
C288 C 0.72799 0.70035 0.86187 0.0
C289 C 0.78745 0.65346 0.82106 0.0
O290 O 0.76349 0.65765 0.81761 0.0
O291 O 0.79673 0.65345 0.84397 0.0
O292 O 0.72404 0.61363 0.83456 0.0
O293 O 0.7551 0.61732 0.86403 0.0
O294 O 0.65722 0.71877 0.13204 0.0
Cd295 Cd 0.65528 0.75342 0.11344 0.0
Cd296 Cd 0.6071 0.74615 0.15669 0.0
O297 O 0.62473 0.70965 0.15868 0.0
O298 O 0.6884 0.75117 0.09272 0.0
O299 O 0.64991 0.74998 0.07461 0.0
C300 C 0.67469 0.74772 0.0723 0.0
C301 C 0.56483 0.7559 0.17197 0.0
C302 C 0.64591 0.70347 0.14754 0.0
C303 C 0.6499 0.78973 0.15886 0.0
O304 O 0.63101 0.77603 0.16656 0.0
O305 O 0.6615 0.78523 0.13756 0.0
O306 O 0.58243 0.74684 0.18705 0.0
O307 O 0.57032 0.7573 0.14768 0.0
O308 O 0.24699 0.6388 0.16049 0.0
Cd309 Cd 0.27518 0.61378 0.14839 0.0
Cd310 Cd 0.26602 0.66541 0.10708 0.0
O311 O 0.23655 0.67127 0.13405 0.0
O312 O 0.27653 0.58981 0.17915 0.0
O313 O 0.26159 0.57743 0.14128 0.0
C314 C 0.26524 0.57239 0.16543 0.0
C315 C 0.26953 0.68863 0.06759 0.0
C316 C 0.23334 0.6585 0.15493 0.0
C317 C 0.31854 0.65032 0.13582 0.0
O318 O 0.30211 0.66288 0.12259 0.0
O319 O 0.31254 0.62907 0.1469 0.0
O320 O 0.2698 0.70021 0.08958 0.0
O321 O 0.26482 0.66404 0.06771 0.0
O322 O 0.76396 0.37081 0.19471 0.0
Cd323 Cd 0.74233 0.39136 0.16907 0.0
Cd324 Cd 0.76371 0.3477 0.1397 0.0
O325 O 0.7906 0.34788 0.17028 0.0
O326 O 0.73576 0.42364 0.18997 0.0
O327 O 0.76122 0.4232 0.1558 0.0
C328 C 0.75266 0.4354 0.17587 0.0
C329 C 0.76674 0.33312 0.09665 0.0
C330 C 0.78398 0.35677 0.19239 0.0
C331 C 0.70671 0.34941 0.15522 0.0
O332 O 0.72744 0.33719 0.15043 0.0
O333 O 0.70696 0.37363 0.16031 0.0
O334 O 0.77141 0.31781 0.11579 0.0
O335 O 0.76431 0.35755 0.10177 0.0
H336 H 0.21826 0.55055 0.15622 0.0
H337 H 0.28608 0.5429 0.20399 0.0
H338 H 0.19647 0.51735 0.1813 0.0
H339 H 0.26565 0.50774 0.22769 0.0
H340 H 0.22016 0.4571 0.28076 0.0
H341 H 0.23824 0.49405 0.25778 0.0
H342 H 0.18856 0.47679 0.19256 0.0
H343 H 0.16903 0.4418 0.21684 0.0
C344 C 0.22882 0.54105 0.17163 0.0
C345 C 0.25395 0.54914 0.17798 0.0
C346 C 0.21632 0.5218 0.18617 0.0
C347 C 0.22892 0.5094 0.20702 0.0
C348 C 0.25462 0.51703 0.21255 0.0
C349 C 0.2667 0.53695 0.19859 0.0
C350 C 0.21263 0.46188 0.26182 0.0
C351 C 0.1929 0.44681 0.2508 0.0
C352 C 0.2234 0.48281 0.24823 0.0
C353 C 0.21554 0.48861 0.2227 0.0
C354 C 0.19517 0.47374 0.21214 0.0
C355 C 0.18379 0.45346 0.22613 0.0
H356 H 0.56934 0.20342 0.28508 0.0
H357 H 0.56718 0.14073 0.22983 0.0
H358 H 0.52966 0.22108 0.26681 0.0
H359 H 0.52711 0.15813 0.21186 0.0
H360 H 0.47569 0.21341 0.16517 0.0
H361 H 0.51405 0.19474 0.18563 0.0
H362 H 0.48403 0.21577 0.26062 0.0
H363 H 0.4461 0.23485 0.24017 0.0
C364 C 0.56004 0.19296 0.26949 0.0
C365 C 0.57157 0.17059 0.25899 0.0
C366 C 0.53723 0.20318 0.25891 0.0
C367 C 0.52527 0.19132 0.23752 0.0
C368 C 0.53605 0.16815 0.22793 0.0
C369 C 0.55886 0.15792 0.23852 0.0
C370 C 0.47744 0.21435 0.18599 0.0
C371 C 0.4578 0.22576 0.20096 0.0
C372 C 0.49931 0.20333 0.1978 0.0
C373 C 0.50213 0.20344 0.22488 0.0
C374 C 0.48272 0.21543 0.23975 0.0
C375 C 0.46089 0.2264 0.22797 0.0
H376 H 0.79898 0.45681 0.16124 0.0
H377 H 0.73399 0.46943 0.21197 0.0
H378 H 0.8219 0.49276 0.18147 0.0
H379 H 0.75619 0.5062 0.2314 0.0
H380 H 0.8089 0.55514 0.28017 0.0
H381 H 0.78894 0.51755 0.25978 0.0
H382 H 0.82683 0.53686 0.18787 0.0
H383 H 0.84771 0.57355 0.20871 0.0
C384 C 0.78927 0.46771 0.17626 0.0
C385 C 0.76456 0.46019 0.18488 0.0
C386 C 0.80248 0.48843 0.18799 0.0
C387 C 0.79125 0.50249 0.20852 0.0
C388 C 0.766 0.49557 0.21628 0.0
C389 C 0.75298 0.47464 0.20481 0.0
C390 C 0.81347 0.55098 0.26018 0.0
C391 C 0.83011 0.56739 0.24622 0.0
C392 C 0.80162 0.52958 0.24825 0.0
C393 C 0.80567 0.52414 0.22183 0.0
C394 C 0.82322 0.54001 0.20822 0.0
C395 C 0.83534 0.56117 0.22026 0.0
H396 H 0.53619 0.79598 0.15282 0.0
H397 H 0.53943 0.74206 0.2163 0.0
H398 H 0.50038 0.81845 0.17328 0.0
H399 H 0.5021 0.76297 0.23604 0.0
H400 H 0.4464 0.81516 0.27835 0.0
H401 H 0.48494 0.79601 0.25888 0.0
H402 H 0.45865 0.82139 0.1836 0.0
H403 H 0.42179 0.84213 0.20345 0.0
C404 C 0.52869 0.78845 0.17086 0.0
C405 C 0.54056 0.76709 0.18279 0.0
C406 C 0.50793 0.80135 0.18274 0.0
C407 C 0.49782 0.79284 0.20665 0.0
C408 C 0.50939 0.77084 0.21811 0.0
C409 C 0.53066 0.75844 0.20655 0.0
C410 C 0.44935 0.81718 0.25773 0.0
C411 C 0.43117 0.83058 0.24259 0.0
C412 C 0.4713 0.80575 0.24635 0.0
C413 C 0.4753 0.80663 0.21932 0.0
C414 C 0.4571 0.8205 0.20441 0.0
C415 C 0.43567 0.83252 0.21588 0.0
H416 H 0.27102 0.46831 0.80154 0.0
H417 H 0.20312 0.45636 0.84823 0.0
H418 H 0.25034 0.50508 0.78057 0.0
H419 H 0.18107 0.49105 0.82569 0.0
H420 H 0.15134 0.56755 0.79532 0.0
H421 H 0.17192 0.53164 0.81716 0.0
H422 H 0.22338 0.52165 0.75178 0.0
H423 H 0.20418 0.55965 0.73152 0.0
C424 C 0.2516 0.47369 0.80733 0.0
C425 C 0.23889 0.45982 0.82688 0.0
C426 C 0.23935 0.49456 0.7949 0.0
C427 C 0.21353 0.50148 0.80085 0.0
C428 C 0.20101 0.48732 0.82062 0.0
C429 C 0.21367 0.46717 0.8337 0.0
C430 C 0.16675 0.55729 0.78545 0.0
C431 C 0.17594 0.56625 0.76157 0.0
C432 C 0.17874 0.53645 0.79802 0.0
C433 C 0.19984 0.52321 0.78671 0.0
C434 C 0.20794 0.53146 0.76193 0.0
C435 C 0.19655 0.55302 0.74985 0.0
H436 H 0.57087 0.24069 0.77448 0.0
H437 H 0.53106 0.23229 0.84729 0.0
H438 H 0.53405 0.22138 0.75212 0.0
H439 H 0.49404 0.21313 0.82485 0.0
H440 H 0.44432 0.15442 0.78108 0.0
H441 H 0.48238 0.17315 0.80194 0.0
H442 H 0.4891 0.22886 0.74007 0.0
H443 H 0.4512 0.21001 0.71911 0.0
C444 C 0.55411 0.23506 0.78572 0.0
C445 C 0.55398 0.23818 0.81275 0.0
C446 C 0.53293 0.22395 0.77285 0.0
C447 C 0.51104 0.21542 0.78662 0.0
C448 C 0.51069 0.21905 0.81361 0.0
C449 C 0.53183 0.23034 0.82648 0.0
C450 C 0.45419 0.17033 0.77163 0.0
C451 C 0.44464 0.18057 0.74829 0.0
C452 C 0.47586 0.18133 0.78381 0.0
C453 C 0.48874 0.20279 0.77293 0.0
C454 C 0.47983 0.21231 0.74903 0.0
C455 C 0.45806 0.20143 0.73694 0.0
H456 H 0.71778 0.56332 0.82205 0.0
H457 H 0.79121 0.58487 0.85537 0.0
H458 H 0.73776 0.52502 0.8029 0.0
H459 H 0.81168 0.54817 0.8348 0.0
H460 H 0.84204 0.47086 0.80715 0.0
H461 H 0.82081 0.50581 0.83043 0.0
H462 H 0.76309 0.51084 0.77 0.0
H463 H 0.78342 0.47445 0.74801 0.0
C464 C 0.73813 0.55968 0.82556 0.0
C465 C 0.75275 0.57705 0.84053 0.0
C466 C 0.74984 0.53792 0.81413 0.0
C467 C 0.77669 0.53332 0.81669 0.0
C468 C 0.79099 0.55038 0.83247 0.0
C469 C 0.77915 0.57166 0.84442 0.0
C470 C 0.82498 0.47969 0.79873 0.0
C471 C 0.81454 0.47 0.77563 0.0
C472 C 0.81267 0.49989 0.81211 0.0
C473 C 0.78988 0.5115 0.80243 0.0
C474 C 0.78005 0.50221 0.77873 0.0
C475 C 0.79198 0.48153 0.76576 0.0
H476 H 0.54475 0.86154 0.81191 0.0
H477 H 0.56025 0.79472 0.76443 0.0
H478 H 0.50858 0.83913 0.83181 0.0
H479 H 0.52266 0.7728 0.78244 0.0
H480 H 0.46519 0.72871 0.83054 0.0
H481 H 0.50388 0.75067 0.81482 0.0
H482 H 0.46802 0.82477 0.83121 0.0
H483 H 0.43079 0.80264 0.8488 0.0
C484 C 0.53988 0.84225 0.80518 0.0
C485 C 0.55526 0.83001 0.78645 0.0
C486 C 0.51894 0.82924 0.81657 0.0
C487 C 0.51217 0.80378 0.80904 0.0
C488 C 0.52728 0.79196 0.78957 0.0
C489 C 0.54873 0.80471 0.77879 0.0
C490 C 0.46602 0.74969 0.8314 0.0
C491 C 0.44501 0.76384 0.8413 0.0
C492 C 0.48809 0.76246 0.82188 0.0
C493 C 0.48946 0.78985 0.82116 0.0
C494 C 0.46847 0.80382 0.83168 0.0
C495 C 0.44684 0.79103 0.84188 0.0
H496 H 0.20736 0.28511 0.55352 0.0
H497 H 0.14112 0.23463 0.54614 0.0
H498 H 0.22537 0.26719 0.51353 0.0
H499 H 0.15953 0.21628 0.5066 0.0
H500 H 0.22435 0.16603 0.46558 0.0
H501 H 0.20293 0.18833 0.50144 0.0
H502 H 0.21398 0.26171 0.46304 0.0
H503 H 0.23482 0.23938 0.42674 0.0
C504 C 0.19635 0.27064 0.54305 0.0
C505 C 0.17273 0.2614 0.55298 0.0
C506 C 0.20672 0.26033 0.52021 0.0
C507 C 0.194 0.24013 0.50713 0.0
C508 C 0.16985 0.23169 0.51641 0.0
C509 C 0.15918 0.24242 0.5389 0.0
C510 C 0.22227 0.18692 0.46477 0.0
C511 C 0.23137 0.20092 0.44331 0.0
C512 C 0.20981 0.19965 0.48522 0.0
C513 C 0.20664 0.22674 0.48496 0.0
C514 C 0.21613 0.24083 0.46374 0.0
C515 C 0.22806 0.22802 0.44299 0.0
H516 H 0.80156 0.16973 0.59106 0.0
H517 H 0.72688 0.18952 0.5596 0.0
H518 H 0.82262 0.18867 0.55374 0.0
H519 H 0.74764 0.20673 0.52102 0.0
H520 H 0.78934 0.25817 0.46435 0.0
H521 H 0.76934 0.23986 0.50279 0.0
H522 H 0.83531 0.18897 0.51238 0.0
H523 H 0.8559 0.20902 0.47523 0.0
C524 C 0.78956 0.17737 0.57568 0.0
C525 C 0.76248 0.17789 0.57832 0.0
C526 C 0.8017 0.18834 0.55403 0.0
C527 C 0.78714 0.1997 0.5339 0.0
C528 C 0.75987 0.19905 0.53615 0.0
C529 C 0.74778 0.18869 0.55817 0.0
C530 C 0.79972 0.24342 0.47506 0.0
C531 C 0.82435 0.2353 0.46688 0.0
C532 C 0.78805 0.23247 0.497 0.0
C533 C 0.80026 0.21239 0.51102 0.0
C534 C 0.82516 0.20458 0.5028 0.0
C535 C 0.83712 0.2161 0.48131 0.0
H536 H 0.73181 0.79071 0.44248 0.0
H537 H 0.78888 0.85142 0.44648 0.0
H538 H 0.75062 0.7702 0.48042 0.0
H539 H 0.80956 0.82994 0.4826 0.0
H540 H 0.83471 0.79572 0.5589 0.0
H541 H 0.81408 0.8181 0.52329 0.0
H542 H 0.78135 0.74527 0.49728 0.0
H543 H 0.80009 0.72375 0.53467 0.0
C544 C 0.74836 0.79973 0.45168 0.0
C545 C 0.75857 0.8229 0.4418 0.0
C546 C 0.75964 0.78768 0.47323 0.0
C547 C 0.78221 0.79784 0.48491 0.0
C548 C 0.79204 0.8214 0.475 0.0
C549 C 0.78015 0.83391 0.45408 0.0
C550 C 0.82338 0.78449 0.54529 0.0
C551 C 0.81922 0.75793 0.54947 0.0
C552 C 0.81142 0.79736 0.52462 0.0
C553 C 0.79555 0.78389 0.5069 0.0
C554 C 0.79252 0.75688 0.51061 0.0
C555 C 0.80373 0.74425 0.53187 0.0
H556 H 0.22669 0.75214 0.42316 0.0
H557 H 0.15191 0.7774 0.45054 0.0
H558 H 0.24714 0.77096 0.46147 0.0
H559 H 0.17249 0.79668 0.48862 0.0
H560 H 0.22429 0.85628 0.53282 0.0
H561 H 0.20442 0.83529 0.49526 0.0
H562 H 0.24745 0.7654 0.51126 0.0
H563 H 0.26694 0.78615 0.54907 0.0
C564 C 0.21456 0.76139 0.43754 0.0
C565 C 0.18762 0.76312 0.43382 0.0
C566 C 0.22631 0.77222 0.45946 0.0
C567 C 0.21148 0.78557 0.47795 0.0
C568 C 0.18447 0.78678 0.47457 0.0
C569 C 0.17265 0.77547 0.4529 0.0
C570 C 0.22977 0.83655 0.52815 0.0
C571 C 0.24731 0.82295 0.54392 0.0
C572 C 0.21817 0.82443 0.5068 0.0
C573 C 0.2242 0.7986 0.5004 0.0
C574 C 0.24241 0.78531 0.51564 0.0
C575 C 0.2536 0.79723 0.53729 0.0
H576 H 0.73833 0.94928 0.74601 0.0
H577 H 0.67652 0.99906 0.77234 0.0
H578 H 0.76022 0.98671 0.72679 0.0
H579 H 0.69911 0.03672 0.75384 0.0
H580 H 0.76939 0.09622 0.74272 0.0
H581 H 0.75008 0.05784 0.76262 0.0
H582 H 0.74225 0.02241 0.68765 0.0
H583 H 0.7606 0.06142 0.66738 0.0
C584 C 0.72959 0.96827 0.74807 0.0
C585 C 0.70568 0.97117 0.76086 0.0
C586 C 0.74209 0.98965 0.73689 0.0
C587 C 0.73136 0.01458 0.73881 0.0
C588 C 0.70782 0.01769 0.75214 0.0
C589 C 0.69492 0.99616 0.76274 0.0
C590 C 0.76409 0.08009 0.73041 0.0
C591 C 0.76683 0.08188 0.70338 0.0
C592 C 0.75274 0.05822 0.74187 0.0
C593 C 0.74454 0.03723 0.72668 0.0
C594 C 0.74842 0.03835 0.6998 0.0
C595 C 0.75907 0.0606 0.68822 0.0
H596 H 0.92369 0.76235 0.73217 0.0
H597 H 0.95416 0.73784 0.65848 0.0
H598 H 0.96214 0.74517 0.7537 0.0
H599 H 0.99258 0.72054 0.68007 0.0
H600 H 0.04001 0.66407 0.73025 0.0
H601 H 1.0017 0.68318 0.71003 0.0
H602 H 0.01006 0.75121 0.75784 0.0
H603 H 0.04844 0.7322 0.77798 0.0
C604 C 0.93881 0.75375 0.72048 0.0
C605 C 0.93581 0.75162 0.69353 0.0
C606 C 0.96086 0.74382 0.73287 0.0
C607 C 0.98033 0.73114 0.71869 0.0
C608 C 0.97777 0.72981 0.69164 0.0
C609 C 0.95588 0.74007 0.67921 0.0
C610 C 0.03344 0.68291 0.7368 0.0
C611 C 0.04731 0.69652 0.75585 0.0
C612 C 0.01165 0.69402 0.72495 0.0
C613 C 1.00295 0.7189 0.73206 0.0
C614 C 0.01618 0.73203 0.75189 0.0
C615 C 0.03817 0.72107 0.76349 0.0
H616 H 0.30106 0.06737 0.78198 0.0
H617 H 0.36261 0.06393 0.72569 0.0
H618 H 0.28141 0.02876 0.76289 0.0
H619 H 0.34293 0.02537 0.70664 0.0
H620 H 0.28311 0.97969 0.65911 0.0
H621 H 0.30302 0.01673 0.68092 0.0
H622 H 0.28722 0.98149 0.75486 0.0
H623 H 0.26736 0.94445 0.73309 0.0
C624 C 0.31077 0.05805 0.76594 0.0
C625 C 0.33352 0.06883 0.75548 0.0
C626 C 0.29941 0.03592 0.75491 0.0
C627 C 0.31032 0.02415 0.73293 0.0
C628 C 0.33372 0.03421 0.72324 0.0
C629 C 0.34523 0.05614 0.73444 0.0
C630 C 0.28354 0.97998 0.68002 0.0
C631 C 0.27355 0.95905 0.69429 0.0
C632 C 0.29525 1.0011 0.69254 0.0
C633 C 0.29704 1.002 0.71969 0.0
C634 C 0.28617 0.98151 0.73397 0.0
C635 C 0.27475 0.96025 0.72145 0.0
H636 H 0.05009 0.22881 0.71884 0.0
H637 H 0.0425 0.28314 0.65583 0.0
H638 H 0.0128 0.24867 0.74025 0.0
H639 H 0.00545 0.30316 0.67744 0.0
H640 H 0.96386 0.35216 0.73958 0.0
H641 H 1.00016 0.32987 0.71885 0.0
H642 H 0.96414 0.25605 0.73447 0.0
H643 H 0.92766 0.2783 0.7549 0.0
C644 C 0.04019 0.24468 0.70932 0.0
C645 C 0.04927 0.25427 0.68552 0.0
C646 C 0.01886 0.25611 0.72165 0.0
C647 C 0.00637 0.27773 0.71074 0.0
C648 C 0.01489 0.28677 0.68655 0.0
C649 C 0.03593 0.27506 0.67399 0.0
C650 C 0.96387 0.33116 0.73901 0.0
C651 C 0.94285 0.31704 0.74901 0.0
C652 C 0.98453 0.3184 0.72683 0.0
C653 C 0.98491 0.29118 0.72473 0.0
C654 C 0.96446 0.27701 0.73576 0.0
C655 C 0.94358 0.28979 0.74753 0.0
H656 H 0.71246 0.96159 0.34023 0.0
H657 H 0.77125 0.96515 0.28127 0.0
H658 H 0.68912 0.99678 0.3194 0.0
H659 H 0.7491 1.00165 0.26127 0.0
H660 H 0.69539 0.05197 0.21539 0.0
H661 H 0.71539 0.01453 0.23605 0.0
H662 H 0.68435 0.03929 0.30964 0.0
H663 H 0.663 0.07537 0.28851 0.0
C664 C 0.72083 0.97047 0.32321 0.0
C665 C 0.74382 0.96063 0.31252 0.0
C666 C 0.70738 0.99079 0.31112 0.0
C667 C 0.71682 1.0023 0.28824 0.0
C668 C 0.74053 0.99304 0.27829 0.0
C669 C 0.7536 0.97231 0.29004 0.0
C670 C 0.69228 0.04893 0.23585 0.0
C671 C 0.67733 0.06657 0.25017 0.0
C672 C 0.70421 0.02766 0.24793 0.0
C673 C 0.70215 0.02376 0.27486 0.0
C674 C 0.68635 0.04105 0.28892 0.0
C675 C 0.67394 0.06191 0.27673 0.0
H676 H 0.92554 0.65771 0.2822 0.0
H677 H 0.94539 0.69018 0.2081 0.0
H678 H 0.96291 0.67832 0.30147 0.0
H679 H 0.98428 0.70928 0.22674 0.0
H680 H 0.03836 0.76319 0.26944 0.0
H681 H 1.00089 0.74176 0.25061 0.0
H682 H 0.00508 0.68283 0.31003 0.0
H683 H 0.04112 0.70571 0.32976 0.0
C684 C 0.9385 0.66849 0.26975 0.0
C685 C 0.93248 0.67205 0.24349 0.0
C686 C 0.96018 0.68047 0.28087 0.0
C687 C 0.97705 0.69598 0.266 0.0
C688 C 0.97165 0.69831 0.23932 0.0
C689 C 0.9495 0.68689 0.22835 0.0
C690 C 0.0309 0.74589 0.27868 0.0
C691 C 0.04256 0.73638 0.3013 0.0
C692 C 0.00954 0.73321 0.26761 0.0
C693 C 0.9996 0.71006 0.27835 0.0
C694 C 0.0114 0.70073 0.30117 0.0
C695 C 0.03228 0.71387 0.31261 0.0
H696 H 0.31706 0.94728 0.19883 0.0
H697 H 0.36091 0.93497 0.26882 0.0
H698 H 0.30084 0.98837 0.21628 0.0
H699 H 0.34439 0.97566 0.28622 0.0
H700 H 0.278 0.0254 0.32091 0.0
H701 H 0.29825 0.98794 0.3003 0.0
H702 H 0.31496 0.03413 0.23286 0.0
H703 H 0.29504 0.07192 0.25369 0.0
C704 C 0.32377 0.95359 0.21763 0.0
C705 C 0.34031 0.93769 0.23238 0.0
C706 C 0.31438 0.97711 0.22766 0.0
C707 C 0.32098 0.98505 0.25282 0.0
C708 C 0.33862 0.96989 0.26695 0.0
C709 C 0.34831 0.94665 0.2568 0.0
C710 C 0.28585 0.02761 0.30165 0.0
C711 C 0.2848 0.0517 0.28897 0.0
C712 C 0.29767 0.00617 0.28991 0.0
C713 C 0.3084 0.00809 0.265 0.0
C714 C 0.30685 0.03201 0.25203 0.0
C715 C 0.29543 0.05364 0.26399 0.0
H716 H 0.07531 0.27685 0.24117 0.0
H717 H 0.0615 0.3472 0.28424 0.0
H718 H 0.03774 0.25679 0.2616 0.0
H719 H 0.02386 0.32707 0.30471 0.0
H720 H 0.97994 0.27167 0.35926 0.0
H721 H 0.01665 0.29153 0.33688 0.0
H722 H 0.98992 0.25922 0.26474 0.0
H723 H 0.95332 0.23939 0.28704 0.0
C724 C 0.06397 0.28823 0.25463 0.0
C725 C 0.07144 0.31369 0.26099 0.0
C726 C 0.04243 0.27668 0.2664 0.0
C727 C 0.02795 0.29017 0.28507 0.0
C728 C 0.03484 0.31597 0.29073 0.0
C729 C 0.05622 0.32764 0.27873 0.0
C730 C 0.98211 0.26847 0.3387 0.0
C731 C 0.9637 0.25383 0.325 0.0
C732 C 1.00297 0.28013 0.3258 0.0
C733 C 0.00611 0.27721 0.29893 0.0
C734 C 0.98818 0.26182 0.28542 0.0
C735 C 0.96718 0.25042 0.29825 0.0
H736 H 0.78736 0.68746 0.9606 0.0
H737 H 0.71318 0.66874 0.92737 0.0
H738 H 0.76576 0.706 0.99821 0.0
H739 H 0.69149 0.68917 0.96319 0.0
H740 H 0.65483 0.71284 0.0383 0.0
H741 H 0.67688 0.69106 1.00318 0.0
H742 H 0.74432 0.73928 0.01606 0.0
H743 H 0.72268 0.75911 0.05288 0.0
C744 C 0.76642 0.68712 0.96146 0.0
C745 C 0.75207 0.67614 0.94118 0.0
C746 C 0.75385 0.69826 0.98287 0.0
C747 C 0.72652 0.69961 0.98417 0.0
C748 C 0.71238 0.68821 0.9638 0.0
C749 C 0.72493 0.67637 0.94295 0.0
C750 C 0.67426 0.71898 0.03335 0.0
C751 C 0.68688 0.73789 0.04821 0.0
C752 C 0.68709 0.70648 0.01299 0.0
C753 C 0.71277 0.71309 0.00621 0.0
C754 C 0.72497 0.73283 0.02071 0.0
C755 C 0.71238 0.74467 0.04167 0.0
H756 H 0.28361 0.66792 0.02087 0.0
H757 H 0.2746 0.74105 0.06046 0.0
H758 H 0.3026 0.69052 0.98393 0.0
H759 H 0.29348 0.76363 0.02344 0.0
H760 H 0.30459 0.79377 0.938 0.0
H761 H 0.28544 0.77409 0.97653 0.0
H762 H 0.34405 0.71449 0.97534 0.0
H763 H 0.36328 0.73413 0.93705 0.0
C764 C 0.28527 0.68885 0.02155 0.0
C765 C 0.2775 0.70262 0.04367 0.0
C766 C 0.29645 0.70179 1.00048 0.0
C767 C 0.29989 0.72889 1.00082 0.0
C768 C 0.29112 0.74278 0.0225 0.0
C769 C 0.28026 0.7298 0.04372 0.0
C770 C 0.3138 0.77685 0.94632 0.0
C771 C 0.33559 0.76565 0.93435 0.0
C772 C 0.30272 0.76548 0.96836 0.0
C773 C 0.31292 0.74243 0.97879 0.0
C774 C 0.33539 0.73194 0.96754 0.0
C775 C 0.34665 0.74347 0.94574 0.0
H776 H 0.22651 0.29058 0.96248 0.0
H777 H 0.29269 0.34093 0.95721 0.0
H778 H 0.24596 0.26842 0.99915 0.0
H779 H 0.31383 0.31735 0.99149 0.0
H780 H 0.34419 0.28199 0.06458 0.0
H781 H 0.32297 0.30587 0.03055 0.0
H782 H 0.27209 0.24031 0.01715 0.0
H783 H 0.29185 0.21806 0.05361 0.0
C784 C 0.24527 0.29693 0.96937 0.0
C785 C 0.25781 0.31785 0.95745 0.0
C786 C 0.25688 0.28384 0.99019 0.0
C787 C 0.28202 0.29047 0.99888 0.0
C788 C 0.29435 0.31162 0.98656 0.0
C789 C 0.28223 0.32533 0.96658 0.0
C790 C 0.32867 0.27264 0.05401 0.0
C791 C 0.31997 0.24801 0.06144 0.0
C792 C 0.31633 0.28635 0.03417 0.0
C793 C 0.29539 0.27548 0.02028 0.0
C794 C 0.28745 0.25016 0.02734 0.0
C795 C 0.29915 0.23694 0.04803 0.0
H796 H 0.77697 0.28457 0.07742 0.0
H797 H 0.73874 0.35644 0.05815 0.0
H798 H 0.75807 0.26415 0.03912 0.0
H799 H 0.71957 0.3359 0.0201 0.0
H800 H 0.66366 0.28021 0.97686 0.0
H801 H 0.6856 0.30074 0.01343 0.0
H802 H 0.75773 0.26579 0.98996 0.0
H803 H 0.73588 0.2455 0.95318 0.0
C804 C 0.76497 0.29619 0.06475 0.0
C805 C 0.75957 0.32224 0.07087 0.0
C806 C 0.75405 0.28443 0.04281 0.0
C807 C 0.737 0.29825 0.02666 0.0
C808 C 0.73232 0.32456 0.03229 0.0
C809 C 0.74362 0.33645 0.05395 0.0
C810 C 0.68414 0.27665 0.97962 0.0
C811 C 0.69792 0.26105 0.96206 0.0
C812 C 0.69679 0.28867 1.00046 0.0
C813 C 0.72352 0.28512 0.00457 0.0
C814 C 0.73715 0.26892 0.98745 0.0
C815 C 0.72458 0.25725 0.96635 0.0
H816 H 0.14476 0.29716 0.3281 0.0
H817 H 0.22304 0.31492 0.30559 0.0
H818 H 0.15814 0.25381 0.34134 0.0
H819 H 0.23644 0.27124 0.31743 0.0
H820 H 0.25605 0.19188 0.34801 0.0
H821 H 0.24434 0.23737 0.34582 0.0
H822 H 0.16824 0.2158 0.31838 0.0
H823 H 0.17985 0.16996 0.32254 0.0
C824 C 0.16509 0.29208 0.32705 0.0
C825 C 0.18296 0.30947 0.31622 0.0
C826 C 0.17268 0.267 0.33398 0.0
C827 C 0.19823 0.25858 0.32973 0.0
C828 C 0.2166 0.27688 0.32112 0.0
C829 C 0.20904 0.30214 0.31459 0.0
C830 C 0.23669 0.19686 0.34205 0.0
C831 C 0.21864 0.17741 0.33627 0.0
C832 C 0.23002 0.22305 0.34042 0.0
C833 C 0.20516 0.23053 0.3323 0.0
C834 C 0.18732 0.21091 0.32552 0.0
C835 C 0.19402 0.18462 0.3275 0.0
H836 H 0.85124 0.18237 0.31444 0.0
H837 H 0.81971 0.17236 0.39095 0.0
H838 H 0.81256 0.16283 0.29605 0.0
H839 H 0.78122 0.15208 0.37272 0.0
H840 H 0.70432 0.16968 0.32806 0.0
H841 H 0.74581 0.17238 0.3506 0.0
H842 H 0.78223 0.12889 0.28914 0.0
H843 H 0.74109 0.12708 0.26638 0.0
C844 C 0.83665 0.17471 0.3274 0.0
C845 C 0.83832 0.17913 0.35406 0.0
C846 C 0.8143 0.16363 0.31688 0.0
C847 C 0.7934 0.15653 0.33291 0.0
C848 C 0.7966 0.15802 0.3598 0.0
C849 C 0.81882 0.16928 0.37027 0.0
C850 C 0.72113 0.16036 0.31968 0.0
C851 C 0.71963 0.14867 0.29529 0.0
C852 C 0.74491 0.16171 0.33261 0.0
C853 C 0.76751 0.15108 0.32152 0.0
C854 C 0.76542 0.13778 0.29797 0.0
C855 C 0.74181 0.13673 0.28496 0.0
H856 H 0.88437 0.72961 0.26889 0.0
H857 H 0.8325 0.70003 0.32712 0.0
H858 H 0.88306 0.7724 0.2888 0.0
H859 H 0.83058 0.74311 0.34688 0.0
H860 H 0.82778 0.82044 0.37989 0.0
H861 H 0.85006 0.78045 0.36818 0.0
H862 H 0.84817 0.80364 0.288 0.0
H863 H 0.82624 0.84373 0.29991 0.0
C864 C 0.87316 0.7322 0.2864 0.0
C865 C 0.85826 0.71169 0.29636 0.0
C866 C 0.87232 0.75673 0.2977 0.0
C867 C 0.85635 0.76139 0.31911 0.0
C868 C 0.84324 0.74022 0.33047 0.0
C869 C 0.84428 0.71549 0.31921 0.0
C870 C 0.83334 0.81753 0.35991 0.0
C871 C 0.82517 0.83508 0.34074 0.0
C872 C 0.84575 0.79444 0.35317 0.0
C873 C 0.85025 0.78846 0.32712 0.0
C874 C 0.84503 0.80757 0.3083 0.0
C875 C 0.83264 0.83076 0.31509 0.0
H876 H 0.29688 0.84125 0.3183 0.0
H877 H 0.26642 0.88219 0.25224 0.0
H878 H 0.25314 0.83791 0.33607 0.0
H879 H 0.22296 0.87949 0.27013 0.0
H880 H 0.15416 0.82174 0.2872 0.0
H881 H 0.19352 0.84374 0.27356 0.0
H882 H 0.21404 0.85714 0.35336 0.0
H883 H 0.17479 0.83467 0.36687 0.0
C884 C 0.28098 0.85024 0.30801 0.0
C885 C 0.28501 0.86157 0.28373 0.0
C886 C 0.25585 0.84843 0.31817 0.0
C887 C 0.23436 0.85813 0.30432 0.0
C888 C 0.23889 0.87132 0.28105 0.0
C889 C 0.26385 0.87293 0.27086 0.0
C890 C 0.1663 0.83067 0.30177 0.0
C891 C 0.16148 0.82632 0.32807 0.0
C892 C 0.18913 0.84309 0.29399 0.0
C893 C 0.20741 0.85156 0.31241 0.0
C894 C 0.20078 0.85023 0.33869 0.0
C895 C 0.17803 0.83777 0.34642 0.0
H896 H 0.12109 0.71861 0.69433 0.0
H897 H 0.20064 0.70026 0.71183 0.0
H898 H 0.13442 0.76084 0.67716 0.0
H899 H 0.21393 0.74285 0.69534 0.0
H900 H 0.21857 0.83198 0.70265 0.0
H901 H 0.20047 0.79007 0.71576 0.0
H902 H 0.16669 0.78066 0.64014 0.0
H903 H 0.1854 0.82222 0.62679 0.0
C904 C 0.14153 0.72329 0.69358 0.0
C905 C 0.15994 0.7061 0.70395 0.0
C906 C 0.14908 0.74751 0.68408 0.0
C907 C 0.17507 0.75519 0.68548 0.0
C908 C 0.19369 0.73741 0.69442 0.0
C909 C 0.1862 0.71292 0.70337 0.0
C910 C 0.20637 0.82148 0.68921 0.0
C911 C 0.20311 0.83042 0.66382 0.0
C912 C 0.19647 0.79731 0.69652 0.0
C913 C 0.1827 0.78202 0.67872 0.0
C914 C 0.1774 0.79204 0.65411 0.0
C915 C 0.18779 0.81592 0.64661 0.0
H916 H 0.28715 0.11764 0.71096 0.0
H917 H 0.31748 0.18122 0.66612 0.0
H918 H 0.245 0.12283 0.69043 0.0
H919 H 0.2751 0.18693 0.64583 0.0
H920 H 0.19825 0.19472 0.61126 0.0
H921 H 0.23878 0.17211 0.61978 0.0
H922 H 0.21331 0.15673 0.69779 0.0
H923 H 0.17259 0.17907 0.689 0.0
C924 C 0.28495 0.13222 0.69603 0.0
C925 C 0.30544 0.14916 0.69016 0.0
C926 C 0.26075 0.13533 0.68447 0.0
C927 C 0.25646 0.15561 0.66691 0.0
C928 C 0.27772 0.17099 0.65919 0.0
C929 C 0.30208 0.16773 0.67071 0.0
C930 C 0.20094 0.1856 0.62993 0.0
C931 C 0.18238 0.18881 0.64958 0.0
C932 C 0.22428 0.17289 0.63487 0.0
C933 C 0.22959 0.16313 0.6596 0.0
C934 C 0.20986 0.16393 0.67844 0.0
C935 C 0.18639 0.17663 0.67344 0.0
H936 H 0.76391 0.2448 0.6917 0.0
H937 H 0.82596 0.21821 0.64271 0.0
H938 H 0.78109 0.2884 0.6906 0.0
H939 H 0.84291 0.26266 0.64034 0.0
H940 H 0.88088 0.33477 0.6815 0.0
H941 H 0.86417 0.29435 0.66462 0.0
H942 H 0.78671 0.32606 0.66642 0.0
H943 H 0.80352 0.36598 0.68518 0.0
C944 C 0.78132 0.24844 0.68059 0.0
C945 C 0.7938 0.22817 0.66756 0.0
C946 C 0.79093 0.27361 0.67947 0.0
C947 C 0.81308 0.27946 0.66478 0.0
C948 C 0.8258 0.25899 0.65184 0.0
C949 C 0.81631 0.2335 0.65335 0.0
C950 C 0.8604 0.33357 0.6771 0.0
C951 C 0.84338 0.35311 0.6856 0.0
C952 C 0.85073 0.31019 0.66751 0.0
C953 C 0.82388 0.30633 0.66554 0.0
C954 C 0.80743 0.32791 0.66902 0.0
C955 C 0.8171 0.35115 0.67915 0.0
H956 H 0.76741 0.77496 0.63535 0.0
H957 H 0.81325 0.81725 0.69115 0.0
H958 H 0.72907 0.79843 0.64882 0.0
H959 H 0.77438 0.84091 0.70464 0.0
H960 H 0.70428 0.89272 0.70922 0.0
H961 H 0.74122 0.87272 0.68791 0.0
H962 H 0.70175 0.79895 0.68864 0.0
H963 H 0.6647 0.81892 0.71029 0.0
C964 C 0.76944 0.78941 0.6505 0.0
C965 C 0.79356 0.79405 0.66238 0.0
C966 C 0.74729 0.80276 0.65817 0.0
C967 C 0.74862 0.82135 0.67783 0.0
C968 C 0.77282 0.82675 0.68923 0.0
C969 C 0.79512 0.81319 0.68164 0.0
C970 C 0.70315 0.87234 0.70425 0.0
C971 C 0.6816 0.85733 0.7117 0.0
C972 C 0.72447 0.86087 0.6923 0.0
C973 C 0.72464 0.83419 0.68718 0.0
C974 C 0.70219 0.81959 0.69244 0.0
C975 C 0.68084 0.83106 0.70463 0.0
H976 H 0.29361 0.19226 0.32216 0.0
H977 H 0.32405 0.11438 0.32024 0.0
H978 H 0.30369 0.19741 0.27636 0.0
H979 H 0.33466 0.11967 0.27437 0.0
H980 H 0.37734 0.16145 0.20354 0.0
H981 H 0.36441 0.14718 0.2466 0.0
H982 H 0.28781 0.178 0.23365 0.0
H983 H 0.30078 0.19202 0.19035 0.0
C984 C 0.3027 0.17634 0.31202 0.0
C985 C 0.30779 0.1528 0.32465 0.0
C986 C 0.30818 0.17916 0.2857 0.0
C987 C 0.31939 0.1587 0.27162 0.0
C988 C 0.32581 0.13568 0.28464 0.0
C989 C 0.3199 0.13271 0.31088 0.0
C990 C 0.35736 0.16394 0.20941 0.0
C991 C 0.33998 0.1776 0.19354 0.0
C992 C 0.35003 0.15602 0.23418 0.0
C993 C 0.32529 0.16202 0.2437 0.0
C994 C 0.30715 0.17352 0.22693 0.0
C995 C 0.31439 0.18106 0.20195 0.0
H996 H 0.81061 0.30712 0.34834 0.0
H997 H 0.88803 0.30835 0.31689 0.0
H998 H 0.79444 0.32756 0.30882 0.0
H999 H 0.87187 0.32844 0.2775 0.0
H1000 H 0.82418 0.32199 0.20012 0.0
H1001 H 0.84417 0.31036 0.24157 0.0
H1002 H 0.79622 0.36668 0.28048 0.0
H1003 H 0.77649 0.37833 0.23968 0.0
C1004 C 0.82429 0.31261 0.33346 0.0
C1005 C 0.85053 0.30592 0.33568 0.0
C1006 C 0.81503 0.32409 0.31069 0.0
C1007 C 0.83184 0.32899 0.28979 0.0
C1008 C 0.85837 0.3243 0.29297 0.0
C1009 C 0.86762 0.31307 0.3157 0.0
C1010 C 0.81818 0.33207 0.21746 0.0
C1011 C 0.7985 0.35083 0.21648 0.0
C1012 C 0.82963 0.32549 0.2412 0.0
C1013 C 0.82153 0.33748 0.26433 0.0
C1014 C 0.80257 0.35682 0.26312 0.0
C1015 C 0.79132 0.36348 0.23958 0.0
H1016 H 0.69959 0.79197 0.1756 0.0
H1017 H 0.62381 0.82504 0.18747 0.0
H1018 H 0.71318 0.80812 0.21799 0.0
H1019 H 0.63749 0.84159 0.22959 0.0
H1020 H 0.6876 0.88372 0.29452 0.0
H1021 H 0.67102 0.87198 0.25182 0.0
H1022 H 0.69654 0.79316 0.26369 0.0
H1023 H 0.71272 0.80489 0.30669 0.0
C1024 C 0.68628 0.80377 0.18672 0.0
C1025 C 0.66077 0.80754 0.1782 0.0
C1026 C 0.69384 0.8125 0.21118 0.0
C1027 C 0.67614 0.82552 0.22724 0.0
C1028 C 0.65143 0.83144 0.21766 0.0
C1029 C 0.64373 0.82229 0.19345 0.0
C1030 C 0.68864 0.86365 0.28839 0.0
C1031 C 0.70099 0.84507 0.30398 0.0
C1032 C 0.67947 0.85703 0.26388 0.0
C1033 C 0.68306 0.83184 0.2543 0.0
C1034 C 0.69397 0.81285 0.27052 0.0
C1035 C 0.7027 0.81938 0.29528 0.0
H1036 H 0.22924 0.70731 0.17467 0.0
H1037 H 0.20004 0.62936 0.18276 0.0
H1038 H 0.21044 0.71864 0.21673 0.0
H1039 H 0.18099 0.64069 0.22446 0.0
H1040 H 0.13028 0.68564 0.28609 0.0
H1041 H 0.14709 0.67082 0.24452 0.0
H1042 H 0.22184 0.70309 0.26333 0.0
H1043 H 0.20503 0.71761 0.30519 0.0
C1044 C 0.21795 0.69295 0.18498 0.0
C1045 C 0.21577 0.66759 0.1754 0.0
C1046 C 0.20767 0.69923 0.20922 0.0
C1047 C 0.19471 0.68036 0.22402 0.0
C1048 C 0.19096 0.65556 0.21353 0.0
C1049 C 0.20162 0.64917 0.18958 0.0
C1050 C 0.15058 0.68864 0.28173 0.0
C1051 C 0.16647 0.70248 0.29892 0.0
C1052 C 0.1601 0.68042 0.25785 0.0
C1053 C 0.18557 0.68635 0.25051 0.0
C1054 C 0.20197 0.69871 0.26838 0.0
C1055 C 0.19255 0.70652 0.29251 0.0
H1056 H 0.34366 0.83339 0.79914 0.0
H1057 H 0.38308 0.76737 0.76617 0.0
H1058 H 0.3404 0.8528 0.75619 0.0
H1059 H 0.38043 0.78691 0.72353 0.0
H1060 H 0.3244 0.80946 0.65508 0.0
H1061 H 0.34514 0.79297 0.69395 0.0
H1062 H 0.36125 0.8714 0.71857 0.0
H1063 H 0.33999 0.8878 0.67983 0.0
C1064 C 0.35213 0.82333 0.78284 0.0
C1065 C 0.36315 0.79868 0.78597 0.0
C1066 C 0.35045 0.83448 0.7582 0.0
C1067 C 0.35998 0.82127 0.73629 0.0
C1068 C 0.37248 0.79739 0.73983 0.0
C1069 C 0.37399 0.78621 0.76433 0.0
C1070 C 0.3336 0.82311 0.66808 0.0
C1071 C 0.33034 0.84988 0.66458 0.0
C1072 C 0.34531 0.81369 0.69059 0.0
C1073 C 0.35415 0.83093 0.70981 0.0
C1074 C 0.35397 0.85764 0.70453 0.0
C1075 C 0.34218 0.86702 0.68212 0.0
H1076 H 0.17876 0.3821 0.81532 0.0
H1077 H 0.2082 0.30443 0.82499 0.0
H1078 H 0.16218 0.37056 0.77248 0.0
H1079 H 0.19227 0.29308 0.78182 0.0
H1080 H 0.19888 0.29926 0.69299 0.0
H1081 H 0.20975 0.31427 0.73663 0.0
H1082 H 0.12994 0.33533 0.74936 0.0
H1083 H 0.11899 0.31962 0.70601 0.0
C1084 C 0.18068 0.36226 0.80867 0.0
C1085 C 0.19432 0.34399 0.82355 0.0
C1086 C 0.17153 0.3558 0.78409 0.0
C1087 C 0.1765 0.33116 0.77377 0.0
C1088 C 0.18855 0.31234 0.78933 0.0
C1089 C 0.19718 0.31864 0.81417 0.0
C1090 C 0.18394 0.30812 0.70473 0.0
C1091 C 0.15824 0.30882 0.69607 0.0
C1092 C 0.19001 0.3162 0.72982 0.0
C1093 C 0.17053 0.32546 0.74639 0.0
C1094 C 0.14523 0.32816 0.73696 0.0
C1095 C 0.13906 0.31954 0.7121 0.0
H1096 H 0.67037 0.18078 0.70666 0.0
H1097 H 0.72216 0.11989 0.73079 0.0
H1098 H 0.65094 0.18121 0.74987 0.0
H1099 H 0.70309 0.12038 0.77393 0.0
H1100 H 0.6174 0.17666 0.82789 0.0
H1101 H 0.62761 0.15654 0.78652 0.0
H1102 H 0.7088 0.15793 0.80606 0.0
H1103 H 0.69862 0.17861 0.84731 0.0
C1104 C 0.67661 0.16658 0.72078 0.0
C1105 C 0.69754 0.15016 0.71542 0.0
C1106 C 0.6657 0.16691 0.74559 0.0
C1107 C 0.67577 0.15101 0.76538 0.0
C1108 C 0.6951 0.13297 0.75919 0.0
C1109 C 0.7058 0.13252 0.73443 0.0
C1110 C 0.63736 0.17158 0.82388 0.0
C1111 C 0.65726 0.17947 0.84077 0.0
C1112 C 0.64317 0.16032 0.80003 0.0
C1113 C 0.66899 0.15619 0.79282 0.0
C1114 C 0.68867 0.1609 0.81111 0.0
C1115 C 0.68286 0.1725 0.83492 0.0
H1116 H 0.88458 0.6733 0.68745 0.0
H1117 H 0.80424 0.67126 0.66517 0.0
H1118 H 0.87409 0.65181 0.72805 0.0
H1119 H 0.79341 0.65055 0.70593 0.0
H1120 H 0.77467 0.62111 0.78231 0.0
H1121 H 0.79402 0.6191 0.73943 0.0
H1122 H 0.85386 0.6721 0.7644 0.0
H1123 H 0.83481 0.67321 0.80759 0.0
C1124 C 0.86485 0.66696 0.69069 0.0
C1125 C 0.84517 0.674 0.67327 0.0
C1126 C 0.85875 0.6551 0.71417 0.0
C1127 C 0.83282 0.65023 0.72073 0.0
C1128 C 0.81363 0.654 0.70167 0.0
C1129 C 0.81981 0.66569 0.67805 0.0
C1130 C 0.79244 0.6317 0.77875 0.0
C1131 C 0.80316 0.64758 0.79805 0.0
C1132 C 0.80344 0.63065 0.75415 0.0
C1133 C 0.8252 0.64581 0.74818 0.0
C1134 C 0.83721 0.65996 0.76826 0.0
C1135 C 0.82633 0.66072 0.79306 0.0
H1136 H 0.21576 0.38049 0.18818 0.0
H1137 H 0.20271 0.29935 0.20365 0.0
H1138 H 0.25977 0.37067 0.17339 0.0
H1139 H 0.24689 0.28964 0.18948 0.0
H1140 H 0.33294 0.29242 0.20902 0.0
H1141 H 0.2901 0.31103 0.21696 0.0
H1142 H 0.28572 0.3359 0.13756 0.0
H1143 H 0.32834 0.31669 0.12943 0.0
C1144 C 0.22189 0.36042 0.18713 0.0
C1145 C 0.20582 0.34059 0.1967 0.0
C1146 C 0.24714 0.35491 0.1791 0.0
C1147 C 0.25671 0.32957 0.18104 0.0
C1148 C 0.23989 0.30941 0.18824 0.0
C1149 C 0.21448 0.31485 0.19579 0.0
C1150 C 0.32352 0.30318 0.19368 0.0
C1151 C 0.33394 0.30329 0.16868 0.0
C1152 C 0.29881 0.3133 0.19805 0.0
C1153 C 0.28455 0.32418 0.17763 0.0
C1154 C 0.29634 0.32737 0.15348 0.0
C1155 C 0.32086 0.3168 0.14898 0.0
H1156 H 0.28655 0.72966 0.89028 0.0
H1157 H 0.31392 0.67664 0.83199 0.0
H1158 H 0.2435 0.71037 0.88802 0.0
H1159 H 0.27068 0.65748 0.82923 0.0
H1160 H 0.19262 0.62597 0.82519 0.0
H1161 H 0.23329 0.63481 0.84738 0.0
H1162 H 0.21197 0.71561 0.85341 0.0
H1163 H 0.17115 0.70656 0.83144 0.0
C1164 C 0.28348 0.71319 0.87762 0.0
C1165 C 0.30341 0.7046 0.86122 0.0
C1166 C 0.2588 0.70233 0.87616 0.0
C1167 C 0.25346 0.68276 0.85811 0.0
C1168 C 0.27413 0.67244 0.84349 0.0
C1169 C 0.29897 0.6833 0.84506 0.0
C1170 C 0.19616 0.64541 0.83234 0.0
C1171 C 0.17884 0.66566 0.8265 0.0
C1172 C 0.2196 0.6505 0.84476 0.0
C1173 C 0.2262 0.67598 0.85161 0.0
C1174 C 0.20751 0.6957 0.84846 0.0
C1175 C 0.18396 0.69056 0.83602 0.0
H1176 H 0.31804 0.31149 0.88798 0.0
H1177 H 0.32526 0.35246 0.81564 0.0
H1178 H 0.33798 0.27355 0.86905 0.0
H1179 H 0.34703 0.31488 0.79695 0.0
H1180 H 0.32978 0.23609 0.76137 0.0
H1181 H 0.3261 0.27725 0.78316 0.0
H1182 H 0.36777 0.24609 0.8487 0.0
H1183 H 0.37047 0.20392 0.82676 0.0
C1184 C 0.32509 0.3128 0.86831 0.0
C1185 C 0.31927 0.33462 0.853 0.0
C1186 C 0.33664 0.29094 0.85742 0.0
C1187 C 0.34308 0.29064 0.83108 0.0
C1188 C 0.34121 0.31405 0.81702 0.0
C1189 C 0.3292 0.33585 0.82784 0.0
C1190 C 0.33813 0.23795 0.78049 0.0
C1191 C 0.35027 0.21675 0.79245 0.0
C1192 C 0.33645 0.26181 0.79287 0.0
C1193 C 0.34719 0.26542 0.81754 0.0
C1194 C 0.35927 0.24408 0.8297 0.0
C1195 C 0.36066 0.21988 0.81729 0.0
H1196 H 0.69222 0.32196 0.88358 0.0
H1197 H 0.68063 0.2936 0.80606 0.0
H1198 H 0.73425 0.33974 0.87103 0.0
H1199 H 0.72295 0.31102 0.79355 0.0
H1200 H 0.81203 0.30915 0.79385 0.0
H1201 H 0.76891 0.29588 0.80864 0.0
H1202 H 0.75627 0.37232 0.8402 0.0
H1203 H 0.7991 0.38562 0.82508 0.0
C1204 C 0.69824 0.32052 0.86358 0.0
C1205 C 0.68308 0.30675 0.84567 0.0
C1206 C 0.7224 0.33038 0.8565 0.0
C1207 C 0.73206 0.32617 0.83152 0.0
C1208 C 0.71609 0.31409 0.81308 0.0
C1209 C 0.69167 0.30464 0.82005 0.0
C1210 C 0.8004 0.32275 0.80479 0.0
C1211 C 0.80894 0.34828 0.80863 0.0
C1212 C 0.77556 0.31537 0.81276 0.0
C1213 C 0.7591 0.33329 0.82505 0.0
C1214 C 0.76849 0.35819 0.83064 0.0
C1215 C 0.79307 0.36569 0.82226 0.0
H1216 H 0.67936 0.71382 0.84491 0.0
H1217 H 0.7451 0.7424 0.88775 0.0
H1218 H 0.66079 0.7575 0.84475 0.0
H1219 H 0.7264 0.78569 0.8883 0.0
H1220 H 0.7084 0.85788 0.83529 0.0
H1221 H 0.72265 0.81721 0.8544 0.0
H1222 H 0.643 0.79496 0.86698 0.0
H1223 H 0.62884 0.83556 0.84744 0.0
C1224 C 0.68943 0.72927 0.8549 0.0
C1225 C 0.71387 0.72492 0.8658 0.0
C1226 C 0.6788 0.7543 0.85497 0.0
C1227 C 0.69235 0.77524 0.86621 0.0
C1228 C 0.71575 0.7702 0.87899 0.0
C1229 C 0.72643 0.74538 0.87867 0.0
C1230 C 0.694 0.84493 0.84334 0.0
C1231 C 0.66756 0.84972 0.83956 0.0
C1232 C 0.70212 0.82143 0.85416 0.0
C1233 C 0.6839 0.80245 0.86154 0.0
C1234 C 0.65749 0.80882 0.86083 0.0
C1235 C 0.64941 0.83225 0.84998 0.0
H1236 H 0.65312 0.6861 0.19669 0.0
H1237 H 0.67595 0.67254 0.11771 0.0
H1238 H 0.69263 0.66514 0.21158 0.0
H1239 H 0.7154 0.65123 0.13249 0.0
H1240 H 0.79699 0.66902 0.16988 0.0
H1241 H 0.75361 0.67203 0.15098 0.0
H1242 H 0.72232 0.62922 0.21557 0.0
H1243 H 0.76531 0.62676 0.23453 0.0
C1244 C 0.66583 0.67729 0.18255 0.0
C1245 C 0.66157 0.68113 0.15608 0.0
C1246 C 0.68872 0.66547 0.19103 0.0
C1247 C 0.70758 0.65716 0.17316 0.0
C1248 C 0.70162 0.65803 0.14672 0.0
C1249 C 0.6788 0.66983 0.13828 0.0
C1250 C 0.78091 0.65978 0.17965 0.0
C1251 C 0.78443 0.64814 0.20385 0.0
C1252 C 0.75604 0.66138 0.16884 0.0
C1253 C 0.73437 0.65113 0.18198 0.0
C1254 C 0.73842 0.63777 0.20522 0.0
C1255 C 0.7631 0.63635 0.21603 0.0
H1256 H 0.37944 0.79997 0.16867 0.0
H1257 H 0.33056 0.76612 0.2273 0.0
H1258 H 0.38554 0.75677 0.14942 0.0
H1259 H 0.33597 0.72393 0.20826 0.0
H1260 H 0.34458 0.64936 0.18191 0.0
H1261 H 0.36355 0.68833 0.20058 0.0
H1262 H 0.36135 0.72546 0.12579 0.0
H1263 H 0.34421 0.68605 0.10702 0.0
C1264 C 0.36986 0.78341 0.17726 0.0
C1265 C 0.35442 0.78646 0.19939 0.0
C1266 C 0.37353 0.75865 0.16645 0.0
C1267 C 0.36178 0.73661 0.1776 0.0
C1268 C 0.34624 0.74004 0.1996 0.0
C1269 C 0.34271 0.76448 0.21033 0.0
C1270 C 0.34975 0.6652 0.16917 0.0
C1271 C 0.34191 0.66509 0.14325 0.0
C1272 C 0.36014 0.68782 0.17994 0.0
C1273 C 0.3624 0.71059 0.16498 0.0
C1274 C 0.35936 0.70861 0.13811 0.0
C1275 C 0.34952 0.68585 0.12728 0.0
H1276 H 0.67603 0.34194 0.19712 0.0
H1277 H 0.68726 0.31854 0.11803 0.0
H1278 H 0.65369 0.30129 0.20587 0.0
H1279 H 0.66445 0.278 0.1264 0.0
H1280 H 0.61906 0.22592 0.22092 0.0
H1281 H 0.62101 0.26865 0.2009 0.0
H1282 H 0.68146 0.24133 0.14999 0.0
H1283 H 0.6788 0.1983 0.16968 0.0
C1284 C 0.6722 0.32883 0.18121 0.0
C1285 C 0.68326 0.33336 0.15694 0.0
C1286 C 0.65961 0.3053 0.18621 0.0
C1287 C 0.65785 0.286 0.16695 0.0
C1288 C 0.66599 0.29213 0.14181 0.0
C1289 C 0.67862 0.31557 0.13688 0.0
C1290 C 0.63216 0.22889 0.20484 0.0
C1291 C 0.64898 0.20897 0.19695 0.0
C1292 C 0.63339 0.25341 0.1935 0.0
C1293 C 0.65172 0.25868 0.1742 0.0
C1294 C 0.66694 0.238 0.1647 0.0
C1295 C 0.66549 0.21328 0.17593 0.0
loop_
_geom_bond_atom_site_label_1
_geom_bond_atom_site_label_2
_geom_bond_distance
_geom_bond_site_symmetry_2
_ccdc_geom_bond_type
O0 Cd1 2.223 . S
O0 C8 1.315 . S
Cd1 O0 2.223 . S
Cd1 O4 2.297 . S
Cd1 O5 2.439 . S
Cd1 O11 2.240 . S
Cd2 O3 2.240 . S
Cd2 O10 2.223 . S
Cd2 O12 2.297 . S
Cd2 O13 2.439 . S
O3 Cd2 2.240 . S
O3 C8 1.279 . S
O4 Cd1 2.297 . S
O4 C6 1.247 . S
O5 Cd1 2.439 . S
O5 C6 1.208 . S
C6 O4 1.247 . S
C6 O5 1.208 . S
C7 O12 1.247 . S
C7 O13 1.208 . S
C8 O0 1.315 . S
C8 O3 1.279 . S
C9 O10 1.315 . S
C9 O11 1.279 . S
O10 Cd2 2.223 . S
O10 C9 1.315 . S
O11 Cd1 2.240 . S
O11 C9 1.279 . S
O12 Cd2 2.297 . S
O12 C7 1.247 . S
O13 Cd2 2.439 . S
O13 C7 1.208 . S
O14 Cd15 2.223 . S
O14 C22 1.315 . S
Cd15 O14 2.223 . S
Cd15 O18 2.297 . S
Cd15 O19 2.439 . S
Cd15 O25 2.240 . S
Cd16 O17 2.240 . S
Cd16 O24 2.223 . S
Cd16 O26 2.297 . S
Cd16 O27 2.439 . S
O17 Cd16 2.240 . S
O17 C22 1.279 . S
O18 Cd15 2.297 . S
O18 C20 1.247 . S
O19 Cd15 2.439 . S
O19 C20 1.208 . S
C20 O18 1.247 . S
C20 O19 1.208 . S
C21 O26 1.247 . S
C21 O27 1.208 . S
C22 O14 1.315 . S
C22 O17 1.279 . S
C23 O24 1.315 . S
C23 O25 1.279 . S
O24 Cd16 2.223 . S
O24 C23 1.315 . S
O25 Cd15 2.240 . S
O25 C23 1.279 . S
O26 Cd16 2.297 . S
O26 C21 1.247 . S
O27 Cd16 2.439 . S
O27 C21 1.208 . S
O28 Cd29 2.223 . S
O28 C36 1.315 . S
Cd29 O28 2.223 . S
Cd29 O32 2.297 . S
Cd29 O33 2.439 . S
Cd29 O39 2.240 . S
Cd30 O31 2.240 . S
Cd30 O38 2.223 . S
Cd30 O40 2.297 . S
Cd30 O41 2.439 . S
O31 Cd30 2.240 . S
O31 C36 1.279 . S
O32 Cd29 2.297 . S
O32 C34 1.247 . S
O33 Cd29 2.439 . S
O33 C34 1.208 . S
C34 O32 1.247 . S
C34 O33 1.208 . S
C35 O40 1.247 . S
C35 O41 1.208 . S
C36 O28 1.315 . S
C36 O31 1.279 . S
C37 O38 1.315 . S
C37 O39 1.279 . S
O38 Cd30 2.223 . S
O38 C37 1.315 . S
O39 Cd29 2.240 . S
O39 C37 1.279 . S
O40 Cd30 2.297 . S
O40 C35 1.247 . S
O41 Cd30 2.439 . S
O41 C35 1.208 . S
O42 Cd43 2.223 . S
O42 C50 1.315 . S
Cd43 O42 2.223 . S
Cd43 O46 2.297 . S
Cd43 O47 2.439 . S
Cd43 O53 2.240 . S
Cd44 O45 2.240 . S
Cd44 O52 2.223 . S
Cd44 O54 2.297 . S
Cd44 O55 2.439 . S
O45 Cd44 2.240 . S
O45 C50 1.279 . S
O46 Cd43 2.297 . S
O46 C48 1.247 . S
O47 Cd43 2.439 . S
O47 C48 1.208 . S
C48 O46 1.247 . S
C48 O47 1.208 . S
C49 O54 1.247 . S
C49 O55 1.208 . S
C50 O42 1.315 . S
C50 O45 1.279 . S
C51 O52 1.315 . S
C51 O53 1.279 . S
O52 Cd44 2.223 . S
O52 C51 1.315 . S
O53 Cd43 2.240 . S
O53 C51 1.279 . S
O54 Cd44 2.297 . S
O54 C49 1.247 . S
O55 Cd44 2.439 . S
O55 C49 1.208 . S
O56 Cd57 2.223 . S
O56 C64 1.315 . S
Cd57 O56 2.223 . S
Cd57 O60 2.297 . S
Cd57 O61 2.439 . S
Cd57 O67 2.240 . S
Cd58 O59 2.240 . S
Cd58 O66 2.223 . S
Cd58 O68 2.297 . S
Cd58 O69 2.439 . S
O59 Cd58 2.240 . S
O59 C64 1.279 . S
O60 Cd57 2.297 . S
O60 C62 1.247 . S
O61 Cd57 2.439 . S
O61 C62 1.208 . S
C62 O60 1.247 . S
C62 O61 1.208 . S
C63 O68 1.247 . S
C63 O69 1.208 . S
C64 O56 1.315 . S
C64 O59 1.279 . S
C65 O66 1.315 . S
C65 O67 1.279 . S
O66 Cd58 2.223 . S
O66 C65 1.315 . S
O67 Cd57 2.240 . S
O67 C65 1.279 . S
O68 Cd58 2.297 . S
O68 C63 1.247 . S
O69 Cd58 2.439 . S
O69 C63 1.208 . S
O70 Cd71 2.223 . S
O70 C78 1.315 . S
Cd71 O70 2.223 . S
Cd71 O74 2.297 . S
Cd71 O75 2.439 . S
Cd71 O81 2.240 . S
Cd72 O73 2.240 . S
Cd72 O80 2.223 . S
Cd72 O82 2.297 . S
Cd72 O83 2.439 . S
O73 Cd72 2.240 . S
O73 C78 1.279 . S
O74 Cd71 2.297 . S
O74 C76 1.247 . S
O75 Cd71 2.439 . S
O75 C76 1.208 . S
C76 O74 1.247 . S
C76 O75 1.208 . S
C77 O82 1.247 . S
C77 O83 1.208 . S
C78 O70 1.315 . S
C78 O73 1.279 . S
C79 O80 1.315 . S
C79 O81 1.279 . S
O80 Cd72 2.223 . S
O80 C79 1.315 . S
O81 Cd71 2.240 . S
O81 C79 1.279 . S
O82 Cd72 2.297 . S
O82 C77 1.247 . S
O83 Cd72 2.439 . S
O83 C77 1.208 . S
O84 Cd85 2.223 . S
O84 C92 1.315 . S
Cd85 O84 2.223 . S
Cd85 O88 2.297 . S
Cd85 O89 2.439 . S
Cd85 O95 2.240 . S
Cd86 O87 2.240 . S
Cd86 O94 2.223 . S
Cd86 O96 2.297 . S
Cd86 O97 2.439 . S
O87 Cd86 2.240 . S
O87 C92 1.279 . S
O88 Cd85 2.297 . S
O88 C90 1.247 . S
O89 Cd85 2.439 . S
O89 C90 1.208 . S
C90 O88 1.247 . S
C90 O89 1.208 . S
C91 O96 1.247 . S
C91 O97 1.208 . S
C92 O84 1.315 . S
C92 O87 1.279 . S
C93 O94 1.315 . S
C93 O95 1.279 . S
O94 Cd86 2.223 . S
O94 C93 1.315 . S
O95 Cd85 2.240 . S
O95 C93 1.279 . S
O96 Cd86 2.297 . S
O96 C91 1.247 . S
O97 Cd86 2.439 . S
O97 C91 1.208 . S
O98 Cd99 2.223 . S
O98 C106 1.315 . S
Cd99 O98 2.223 . S
Cd99 O102 2.297 . S
Cd99 O103 2.439 . S
Cd99 O109 2.240 . S
Cd100 O101 2.240 . S
Cd100 O108 2.223 . S
Cd100 O110 2.297 . S
Cd100 O111 2.439 . S
O101 Cd100 2.240 . S
O101 C106 1.279 . S
O102 Cd99 2.297 . S
O102 C104 1.247 . S
O103 Cd99 2.439 . S
O103 C104 1.208 . S
C104 O102 1.247 . S
C104 O103 1.208 . S
C105 O110 1.247 . S
C105 O111 1.208 . S
C106 O98 1.315 . S
C106 O101 1.279 . S
C107 O108 1.315 . S
C107 O109 1.279 . S
O108 Cd100 2.223 . S
O108 C107 1.315 . S
O109 Cd99 2.240 . S
O109 C107 1.279 . S
O110 Cd100 2.297 . S
O110 C105 1.247 . S
O111 Cd100 2.439 . S
O111 C105 1.208 . S
O112 Cd113 2.223 . S
O112 C120 1.315 . S
Cd113 O112 2.223 . S
Cd113 O116 2.297 . S
Cd113 O117 2.439 . S
Cd113 O123 2.240 . S
Cd114 O115 2.240 . S
Cd114 O122 2.223 . S
Cd114 O124 2.297 . S
Cd114 O125 2.439 . S
O115 Cd114 2.240 . S
O115 C120 1.279 . S
O116 Cd113 2.297 . S
O116 C118 1.247 . S
O117 Cd113 2.439 . S
O117 C118 1.208 . S
C118 O116 1.247 . S
C118 O117 1.208 . S
C119 O124 1.247 . S
C119 O125 1.208 . S
C120 O112 1.315 . S
C120 O115 1.279 . S
C121 O122 1.315 . S
C121 O123 1.279 . S
O122 Cd114 2.223 . S
O122 C121 1.315 . S
O123 Cd113 2.240 . S
O123 C121 1.279 . S
O124 Cd114 2.297 . S
O124 C119 1.247 . S
O125 Cd114 2.439 . S
O125 C119 1.208 . S
O126 Cd127 2.223 . S
O126 C134 1.315 . S
Cd127 O126 2.223 . S
Cd127 O130 2.297 . S
Cd127 O131 2.439 . S
Cd127 O137 2.240 . S
Cd128 O129 2.240 . S
Cd128 O136 2.223 . S
Cd128 O138 2.297 . S
Cd128 O139 2.439 . S
O129 Cd128 2.240 . S
O129 C134 1.279 . S
O130 Cd127 2.297 . S
O130 C132 1.247 . S
O131 Cd127 2.439 . S
O131 C132 1.208 . S
C132 O130 1.247 . S
C132 O131 1.208 . S
C133 O138 1.247 . S
C133 O139 1.208 . S
C134 O126 1.315 . S
C134 O129 1.279 . S
C135 O136 1.315 . S
C135 O137 1.279 . S
O136 Cd128 2.223 . S
O136 C135 1.315 . S
O137 Cd127 2.240 . S
O137 C135 1.279 . S
O138 Cd128 2.297 . S
O138 C133 1.247 . S
O139 Cd128 2.439 . S
O139 C133 1.208 . S
O140 Cd141 2.223 . S
O140 C148 1.315 . S
Cd141 O140 2.223 . S
Cd141 O144 2.297 . S
Cd141 O145 2.439 . S
Cd141 O151 2.240 . S
Cd142 O143 2.240 . S
Cd142 O150 2.223 . S
Cd142 O152 2.297 . S
Cd142 O153 2.439 . S
O143 Cd142 2.240 . S
O143 C148 1.279 . S
O144 Cd141 2.297 . S
O144 C146 1.247 . S
O145 Cd141 2.439 . S
O145 C146 1.208 . S
C146 O144 1.247 . S
C146 O145 1.208 . S
C147 O152 1.247 . S
C147 O153 1.208 . S
C148 O140 1.315 . S
C148 O143 1.279 . S
C149 O150 1.315 . S
C149 O151 1.279 . S
O150 Cd142 2.223 . S
O150 C149 1.315 . S
O151 Cd141 2.240 . S
O151 C149 1.279 . S
O152 Cd142 2.297 . S
O152 C147 1.247 . S
O153 Cd142 2.439 . S
O153 C147 1.208 . S
O154 Cd155 2.223 . S
O154 C162 1.315 . S
Cd155 O154 2.223 . S
Cd155 O158 2.297 . S
Cd155 O159 2.439 . S
Cd155 O165 2.240 . S
Cd156 O157 2.240 . S
Cd156 O164 2.223 . S
Cd156 O166 2.297 . S
Cd156 O167 2.439 . S
O157 Cd156 2.240 . S
O157 C162 1.279 . S
O158 Cd155 2.297 . S
O158 C160 1.247 . S
O159 Cd155 2.439 . S
O159 C160 1.208 . S
C160 O158 1.247 . S
C160 O159 1.208 . S
C161 O166 1.247 . S
C161 O167 1.208 . S
C162 O154 1.315 . S
C162 O157 1.279 . S
C163 O164 1.315 . S
C163 O165 1.279 . S
O164 Cd156 2.223 . S
O164 C163 1.315 . S
O165 Cd155 2.240 . S
O165 C163 1.279 . S
O166 Cd156 2.297 . S
O166 C161 1.247 . S
O167 Cd156 2.439 . S
O167 C161 1.208 . S
O168 Cd169 2.223 . S
O168 C176 1.315 . S
Cd169 O168 2.223 . S
Cd169 O172 2.297 . S
Cd169 O173 2.439 . S
Cd169 O179 2.240 . S
Cd170 O171 2.240 . S
Cd170 O178 2.223 . S
Cd170 O180 2.297 . S
Cd170 O181 2.439 . S
O171 Cd170 2.240 . S
O171 C176 1.279 . S
O172 Cd169 2.297 . S
O172 C174 1.247 . S
O173 Cd169 2.439 . S
O173 C174 1.208 . S
C174 O172 1.247 . S
C174 O173 1.208 . S
C175 O180 1.247 . S
C175 O181 1.208 . S
C176 O168 1.315 . S
C176 O171 1.279 . S
C177 O178 1.315 . S
C177 O179 1.279 . S
O178 Cd170 2.223 . S
O178 C177 1.315 . S
O179 Cd169 2.240 . S
O179 C177 1.279 . S
O180 Cd170 2.297 . S
O180 C175 1.247 . S
O181 Cd170 2.439 . S
O181 C175 1.208 . S
O182 Cd183 2.223 . S
O182 C190 1.315 . S
Cd183 O182 2.223 . S
Cd183 O186 2.297 . S
Cd183 O187 2.439 . S
Cd183 O193 2.240 . S
Cd184 O185 2.240 . S
Cd184 O192 2.223 . S
Cd184 O194 2.297 . S
Cd184 O195 2.439 . S
O185 Cd184 2.240 . S
O185 C190 1.279 . S
O186 Cd183 2.297 . S
O186 C188 1.247 . S
O187 Cd183 2.439 . S
O187 C188 1.208 . S
C188 O186 1.247 . S
C188 O187 1.208 . S
C189 O194 1.247 . S
C189 O195 1.208 . S
C190 O182 1.315 . S
C190 O185 1.279 . S
C191 O192 1.315 . S
C191 O193 1.279 . S
O192 Cd184 2.223 . S
O192 C191 1.315 . S
O193 Cd183 2.240 . S
O193 C191 1.279 . S
O194 Cd184 2.297 . S
O194 C189 1.247 . S
O195 Cd184 2.439 . S
O195 C189 1.208 . S
O196 Cd197 2.223 . S
O196 C204 1.315 . S
Cd197 O196 2.223 . S
Cd197 O200 2.297 . S
Cd197 O201 2.439 . S
Cd197 O207 2.240 . S
Cd198 O199 2.240 . S
Cd198 O206 2.223 . S
Cd198 O208 2.297 . S
Cd198 O209 2.439 . S
O199 Cd198 2.240 . S
O199 C204 1.279 . S
O200 Cd197 2.297 . S
O200 C202 1.247 . S
O201 Cd197 2.439 . S
O201 C202 1.208 . S
C202 O200 1.247 . S
C202 O201 1.208 . S
C203 O208 1.247 . S
C203 O209 1.208 . S
C204 O196 1.315 . S
C204 O199 1.279 . S
C205 O206 1.315 . S
C205 O207 1.279 . S
O206 Cd198 2.223 . S
O206 C205 1.315 . S
O207 Cd197 2.240 . S
O207 C205 1.279 . S
O208 Cd198 2.297 . S
O208 C203 1.247 . S
O209 Cd198 2.439 . S
O209 C203 1.208 . S
O210 Cd211 2.223 . S
O210 C218 1.315 . S
Cd211 O210 2.223 . S
Cd211 O214 2.297 . S
Cd211 O215 2.439 . S
Cd211 O221 2.240 . S
Cd212 O213 2.240 . S
Cd212 O220 2.223 . S
Cd212 O222 2.297 . S
Cd212 O223 2.439 . S
O213 Cd212 2.240 . S
O213 C218 1.279 . S
O214 Cd211 2.297 . S
O214 C216 1.247 . S
O215 Cd211 2.439 . S
O215 C216 1.208 . S
C216 O214 1.247 . S
C216 O215 1.208 . S
C217 O222 1.247 . S
C217 O223 1.208 . S
C218 O210 1.315 . S
C218 O213 1.279 . S
C219 O220 1.315 . S
C219 O221 1.279 . S
O220 Cd212 2.223 . S
O220 C219 1.315 . S
O221 Cd211 2.240 . S
O221 C219 1.279 . S
O222 Cd212 2.297 . S
O222 C217 1.247 . S
O223 Cd212 2.439 . S
O223 C217 1.208 . S
O224 Cd225 2.223 . S
O224 C232 1.315 . S
Cd225 O224 2.223 . S
Cd225 O228 2.297 . S
Cd225 O229 2.439 . S
Cd225 O235 2.240 . S
Cd226 O227 2.240 . S
Cd226 O234 2.223 . S
Cd226 O236 2.297 . S
Cd226 O237 2.439 . S
O227 Cd226 2.240 . S
O227 C232 1.279 . S
O228 Cd225 2.297 . S
O228 C230 1.247 . S
O229 Cd225 2.439 . S
O229 C230 1.208 . S
C230 O228 1.247 . S
C230 O229 1.208 . S
C231 O236 1.247 . S
C231 O237 1.208 . S
C232 O224 1.315 . S
C232 O227 1.279 . S
C233 O234 1.315 . S
C233 O235 1.279 . S
O234 Cd226 2.223 . S
O234 C233 1.315 . S
O235 Cd225 2.240 . S
O235 C233 1.279 . S
O236 Cd226 2.297 . S
O236 C231 1.247 . S
O237 Cd226 2.439 . S
O237 C231 1.208 . S
O238 Cd239 2.223 . S
O238 C246 1.315 . S
Cd239 O238 2.223 . S
Cd239 O242 2.297 . S
Cd239 O243 2.439 . S
Cd239 O249 2.240 . S
Cd240 O241 2.240 . S
Cd240 O248 2.223 . S
Cd240 O250 2.297 . S
Cd240 O251 2.439 . S
O241 Cd240 2.240 . S
O241 C246 1.279 . S
O242 Cd239 2.297 . S
O242 C244 1.247 . S
O243 Cd239 2.439 . S
O243 C244 1.208 . S
C244 O242 1.247 . S
C244 O243 1.208 . S
C245 O250 1.247 . S
C245 O251 1.208 . S
C246 O238 1.315 . S
C246 O241 1.279 . S
C247 O248 1.315 . S
C247 O249 1.279 . S
O248 Cd240 2.223 . S
O248 C247 1.315 . S
O249 Cd239 2.240 . S
O249 C247 1.279 . S
O250 Cd240 2.297 . S
O250 C245 1.247 . S
O251 Cd240 2.439 . S
O251 C245 1.208 . S
O252 Cd253 2.223 . S
O252 C260 1.315 . S
Cd253 O252 2.223 . S
Cd253 O256 2.297 . S
Cd253 O257 2.439 . S
Cd253 O263 2.240 . S
Cd254 O255 2.240 . S
Cd254 O262 2.223 . S
Cd254 O264 2.297 . S
Cd254 O265 2.439 . S
O255 Cd254 2.240 . S
O255 C260 1.279 . S
O256 Cd253 2.297 . S
O256 C258 1.247 . S
O257 Cd253 2.439 . S
O257 C258 1.208 . S
C258 O256 1.247 . S
C258 O257 1.208 . S
C259 O264 1.247 . S
C259 O265 1.208 . S
C260 O252 1.315 . S
C260 O255 1.279 . S
C261 O262 1.315 . S
C261 O263 1.279 . S
O262 Cd254 2.223 . S
O262 C261 1.315 . S
O263 Cd253 2.240 . S
O263 C261 1.279 . S
O264 Cd254 2.297 . S
O264 C259 1.247 . S
O265 Cd254 2.439 . S
O265 C259 1.208 . S
O266 Cd267 2.223 . S
O266 C274 1.315 . S
Cd267 O266 2.223 . S
Cd267 O270 2.297 . S
Cd267 O271 2.439 . S
Cd267 O277 2.240 . S
Cd268 O269 2.240 . S
Cd268 O276 2.223 . S
Cd268 O278 2.297 . S
Cd268 O279 2.439 . S
O269 Cd268 2.240 . S
O269 C274 1.279 . S
O270 Cd267 2.297 . S
O270 C272 1.247 . S
O271 Cd267 2.439 . S
O271 C272 1.208 . S
C272 O270 1.247 . S
C272 O271 1.208 . S
C273 O278 1.247 . S
C273 O279 1.208 . S
C274 O266 1.315 . S
C274 O269 1.279 . S
C275 O276 1.315 . S
C275 O277 1.279 . S
O276 Cd268 2.223 . S
O276 C275 1.315 . S
O277 Cd267 2.240 . S
O277 C275 1.279 . S
O278 Cd268 2.297 . S
O278 C273 1.247 . S
O279 Cd268 2.439 . S
O279 C273 1.208 . S
O280 Cd281 2.223 . S
O280 C288 1.315 . S
Cd281 O280 2.223 . S
Cd281 O284 2.297 . S
Cd281 O285 2.439 . S
Cd281 O291 2.240 . S
Cd282 O283 2.240 . S
Cd282 O290 2.223 . S
Cd282 O292 2.297 . S
Cd282 O293 2.439 . S
O283 Cd282 2.240 . S
O283 C288 1.279 . S
O284 Cd281 2.297 . S
O284 C286 1.247 . S
O285 Cd281 2.439 . S
O285 C286 1.208 . S
C286 O284 1.247 . S
C286 O285 1.208 . S
C287 O292 1.247 . S
C287 O293 1.208 . S
C288 O280 1.315 . S
C288 O283 1.279 . S
C289 O290 1.315 . S
C289 O291 1.279 . S
O290 Cd282 2.223 . S
O290 C289 1.315 . S
O291 Cd281 2.240 . S
O291 C289 1.279 . S
O292 Cd282 2.297 . S
O292 C287 1.247 . S
O293 Cd282 2.439 . S
O293 C287 1.208 . S
O294 Cd295 2.223 . S
O294 C302 1.315 . S
Cd295 O294 2.223 . S
Cd295 O298 2.297 . S
Cd295 O299 2.439 . S
Cd295 O305 2.240 . S
Cd296 O297 2.240 . S
Cd296 O304 2.223 . S
Cd296 O306 2.297 . S
Cd296 O307 2.439 . S
O297 Cd296 2.240 . S
O297 C302 1.279 . S
O298 Cd295 2.297 . S
O298 C300 1.247 . S
O299 Cd295 2.439 . S
O299 C300 1.208 . S
C300 O298 1.247 . S
C300 O299 1.208 . S
C301 O306 1.247 . S
C301 O307 1.208 . S
C302 O294 1.315 . S
C302 O297 1.279 . S
C303 O304 1.315 . S
C303 O305 1.279 . S
O304 Cd296 2.223 . S
O304 C303 1.315 . S
O305 Cd295 2.240 . S
O305 C303 1.279 . S
O306 Cd296 2.297 . S
O306 C301 1.247 . S
O307 Cd296 2.439 . S
O307 C301 1.208 . S
O308 Cd309 2.223 . S
O308 C316 1.315 . S
Cd309 O308 2.223 . S
Cd309 O312 2.297 . S
Cd309 O313 2.439 . S
Cd309 O319 2.240 . S
Cd310 O311 2.240 . S
Cd310 O318 2.223 . S
Cd310 O320 2.297 . S
Cd310 O321 2.439 . S
O311 Cd310 2.240 . S
O311 C316 1.279 . S
O312 Cd309 2.297 . S
O312 C314 1.247 . S
O313 Cd309 2.439 . S
O313 C314 1.208 . S
C314 O312 1.247 . S
C314 O313 1.208 . S
C315 O320 1.247 . S
C315 O321 1.208 . S
C316 O308 1.315 . S
C316 O311 1.279 . S
C317 O318 1.315 . S
C317 O319 1.279 . S
O318 Cd310 2.223 . S
O318 C317 1.315 . S
O319 Cd309 2.240 . S
O319 C317 1.279 . S
O320 Cd310 2.297 . S
O320 C315 1.247 . S
O321 Cd310 2.439 . S
O321 C315 1.208 . S
O322 Cd323 2.223 . S
O322 C330 1.315 . S
Cd323 O322 2.223 . S
Cd323 O326 2.297 . S
Cd323 O327 2.439 . S
Cd323 O333 2.240 . S
Cd324 O325 2.240 . S
Cd324 O332 2.223 . S
Cd324 O334 2.297 . S
Cd324 O335 2.439 . S
O325 Cd324 2.240 . S
O325 C330 1.279 . S
O326 Cd323 2.297 . S
O326 C328 1.247 . S
O327 Cd323 2.439 . S
O327 C328 1.208 . S
C328 O326 1.247 . S
C328 O327 1.208 . S
C329 O334 1.247 . S
C329 O335 1.208 . S
C330 O322 1.315 . S
C330 O325 1.279 . S
C331 O332 1.315 . S
C331 O333 1.279 . S
O332 Cd324 2.223 . S
O332 C331 1.315 . S
O333 Cd323 2.240 . S
O333 C331 1.279 . S
O334 Cd324 2.297 . S
O334 C329 1.247 . S
O335 Cd324 2.439 . S
O335 C329 1.208 . S
H336 C344 0.950 . S
H337 C349 0.950 . S
H338 C346 0.950 . S
H339 C348 0.950 . S
H340 C350 0.950 . S
H341 C352 0.950 . S
H342 C354 0.950 . S
H343 C355 0.950 . S
C344 H336 0.950 . S
C344 C345 1.386 . S
C344 C346 1.391 . S
C345 C344 1.386 . S
C345 C349 1.393 . S
C346 H338 0.950 . S
C346 C344 1.391 . S
C346 C347 1.400 . S
C347 C346 1.400 . S
C347 C348 1.398 . S
C347 C353 1.491 . S
C348 H339 0.950 . S
C348 C347 1.398 . S
C348 C349 1.391 . S
C349 H337 0.950 . S
C349 C345 1.393 . S
C349 C348 1.391 . S
C350 H340 0.950 . S
C350 C351 1.386 . S
C350 C352 1.391 . S
C351 C350 1.386 . S
C351 C355 1.393 . S
C352 H341 0.950 . S
C352 C350 1.391 . S
C352 C353 1.400 . S
C353 C347 1.491 . S
C353 C352 1.400 . S
C353 C354 1.398 . S
C354 H342 0.950 . S
C354 C353 1.398 . S
C354 C355 1.391 . S
C355 H343 0.950 . S
C355 C351 1.393 . S
C355 C354 1.391 . S
H356 C364 0.950 . S
H357 C369 0.950 . S
H358 C366 0.950 . S
H359 C368 0.950 . S
H360 C370 0.950 . S
H361 C372 0.950 . S
H362 C374 0.950 . S
H363 C375 0.950 . S
C364 H356 0.950 . S
C364 C365 1.386 . S
C364 C366 1.391 . S
C365 C364 1.386 . S
C365 C369 1.393 . S
C366 H358 0.950 . S
C366 C364 1.391 . S
C366 C367 1.400 . S
C367 C366 1.400 . S
C367 C368 1.398 . S
C367 C373 1.491 . S
C368 H359 0.950 . S
C368 C367 1.398 . S
C368 C369 1.391 . S
C369 H357 0.950 . S
C369 C365 1.393 . S
C369 C368 1.391 . S
C370 H360 0.950 . S
C370 C371 1.386 . S
C370 C372 1.391 . S
C371 C370 1.386 . S
C371 C375 1.393 . S
C372 H361 0.950 . S
C372 C370 1.391 . S
C372 C373 1.400 . S
C373 C367 1.491 . S
C373 C372 1.400 . S
C373 C374 1.398 . S
C374 H362 0.950 . S
C374 C373 1.398 . S
C374 C375 1.391 . S
C375 H363 0.950 . S
C375 C371 1.393 . S
C375 C374 1.391 . S
H376 C384 0.950 . S
H377 C389 0.950 . S
H378 C386 0.950 . S
H379 C388 0.950 . S
H380 C390 0.950 . S
H381 C392 0.950 . S
H382 C394 0.950 . S
H383 C395 0.950 . S
C384 H376 0.950 . S
C384 C385 1.386 . S
C384 C386 1.391 . S
C385 C384 1.386 . S
C385 C389 1.393 . S
C386 H378 0.950 . S
C386 C384 1.391 . S
C386 C387 1.400 . S
C387 C386 1.400 . S
C387 C388 1.398 . S
C387 C393 1.491 . S
C388 H379 0.950 . S
C388 C387 1.398 . S
C388 C389 1.391 . S
C389 H377 0.950 . S
C389 C385 1.393 . S
C389 C388 1.391 . S
C390 H380 0.950 . S
C390 C391 1.386 . S
C390 C392 1.391 . S
C391 C390 1.386 . S
C391 C395 1.393 . S
C392 H381 0.950 . S
C392 C390 1.391 . S
C392 C393 1.400 . S
C393 C387 1.491 . S
C393 C392 1.400 . S
C393 C394 1.398 . S
C394 H382 0.950 . S
C394 C393 1.398 . S
C394 C395 1.391 . S
C395 H383 0.950 . S
C395 C391 1.393 . S
C395 C394 1.391 . S
H396 C404 0.950 . S
H397 C409 0.950 . S
H398 C406 0.950 . S
H399 C408 0.950 . S
H400 C410 0.950 . S
H401 C412 0.950 . S
H402 C414 0.950 . S
H403 C415 0.950 . S
C404 H396 0.950 . S
C404 C405 1.386 . S
C404 C406 1.391 . S
C405 C404 1.386 . S
C405 C409 1.393 . S
C406 H398 0.950 . S
C406 C404 1.391 . S
C406 C407 1.400 . S
C407 C406 1.400 . S
C407 C408 1.398 . S
C407 C413 1.491 . S
C408 H399 0.950 . S
C408 C407 1.398 . S
C408 C409 1.391 . S
C409 H397 0.950 . S
C409 C405 1.393 . S
C409 C408 1.391 . S
C410 H400 0.950 . S
C410 C411 1.386 . S
C410 C412 1.391 . S
C411 C410 1.386 . S
C411 C415 1.393 . S
C412 H401 0.950 . S
C412 C410 1.391 . S
C412 C413 1.400 . S
C413 C407 1.491 . S
C413 C412 1.400 . S
C413 C414 1.398 . S
C414 H402 0.950 . S
C414 C413 1.398 . S
C414 C415 1.391 . S
C415 H403 0.950 . S
C415 C411 1.393 . S
C415 C414 1.391 . S
H416 C424 0.950 . S
H417 C429 0.950 . S
H418 C426 0.950 . S
H419 C428 0.950 . S
H420 C430 0.950 . S
H421 C432 0.950 . S
H422 C434 0.950 . S
H423 C435 0.950 . S
C424 H416 0.950 . S
C424 C425 1.386 . S
C424 C426 1.391 . S
C425 C424 1.386 . S
C425 C429 1.393 . S
C426 H418 0.950 . S
C426 C424 1.391 . S
C426 C427 1.400 . S
C427 C426 1.400 . S
C427 C428 1.398 . S
C427 C433 1.491 . S
C428 H419 0.950 . S
C428 C427 1.398 . S
C428 C429 1.391 . S
C429 H417 0.950 . S
C429 C425 1.393 . S
C429 C428 1.391 . S
C430 H420 0.950 . S
C430 C431 1.386 . S
C430 C432 1.391 . S
C431 C430 1.386 . S
C431 C435 1.393 . S
C432 H421 0.950 . S
C432 C430 1.391 . S
C432 C433 1.400 . S
C433 C427 1.491 . S
C433 C432 1.400 . S
C433 C434 1.398 . S
C434 H422 0.950 . S
C434 C433 1.398 . S
C434 C435 1.391 . S
C435 H423 0.950 . S
C435 C431 1.393 . S
C435 C434 1.391 . S
H436 C444 0.950 . S
H437 C449 0.950 . S
H438 C446 0.950 . S
H439 C448 0.950 . S
H440 C450 0.950 . S
H441 C452 0.950 . S
H442 C454 0.950 . S
H443 C455 0.950 . S
C444 H436 0.950 . S
C444 C445 1.386 . S
C444 C446 1.391 . S
C445 C444 1.386 . S
C445 C449 1.393 . S
C446 H438 0.950 . S
C446 C444 1.391 . S
C446 C447 1.400 . S
C447 C446 1.400 . S
C447 C448 1.398 . S
C447 C453 1.491 . S
C448 H439 0.950 . S
C448 C447 1.398 . S
C448 C449 1.391 . S
C449 H437 0.950 . S
C449 C445 1.393 . S
C449 C448 1.391 . S
C450 H440 0.950 . S
C450 C451 1.386 . S
C450 C452 1.391 . S
C451 C450 1.386 . S
C451 C455 1.393 . S
C452 H441 0.950 . S
C452 C450 1.391 . S
C452 C453 1.400 . S
C453 C447 1.491 . S
C453 C452 1.400 . S
C453 C454 1.398 . S
C454 H442 0.950 . S
C454 C453 1.398 . S
C454 C455 1.391 . S
C455 H443 0.950 . S
C455 C451 1.393 . S
C455 C454 1.391 . S
H456 C464 0.950 . S
H457 C469 0.950 . S
H458 C466 0.950 . S
H459 C468 0.950 . S
H460 C470 0.950 . S
H461 C472 0.950 . S
H462 C474 0.950 . S
H463 C475 0.950 . S
C464 H456 0.950 . S
C464 C465 1.386 . S
C464 C466 1.391 . S
C465 C464 1.386 . S
C465 C469 1.393 . S
C466 H458 0.950 . S
C466 C464 1.391 . S
C466 C467 1.400 . S
C467 C466 1.400 . S
C467 C468 1.398 . S
C467 C473 1.491 . S
C468 H459 0.950 . S
C468 C467 1.398 . S
C468 C469 1.391 . S
C469 H457 0.950 . S
C469 C465 1.393 . S
C469 C468 1.391 . S
C470 H460 0.950 . S
C470 C471 1.386 . S
C470 C472 1.391 . S
C471 C470 1.386 . S
C471 C475 1.393 . S
C472 H461 0.950 . S
C472 C470 1.391 . S
C472 C473 1.400 . S
C473 C467 1.491 . S
C473 C472 1.400 . S
C473 C474 1.398 . S
C474 H462 0.950 . S
C474 C473 1.398 . S
C474 C475 1.391 . S
C475 H463 0.950 . S
C475 C471 1.393 . S
C475 C474 1.391 . S
H476 C484 0.950 . S
H477 C489 0.950 . S
H478 C486 0.950 . S
H479 C488 0.950 . S
H480 C490 0.950 . S
H481 C492 0.950 . S
H482 C494 0.950 . S
H483 C495 0.950 . S
C484 H476 0.950 . S
C484 C485 1.386 . S
C484 C486 1.391 . S
C485 C484 1.386 . S
C485 C489 1.393 . S
C486 H478 0.950 . S
C486 C484 1.391 . S
C486 C487 1.400 . S
C487 C486 1.400 . S
C487 C488 1.398 . S
C487 C493 1.491 . S
C488 H479 0.950 . S
C488 C487 1.398 . S
C488 C489 1.391 . S
C489 H477 0.950 . S
C489 C485 1.393 . S
C489 C488 1.391 . S
C490 H480 0.950 . S
C490 C491 1.386 . S
C490 C492 1.391 . S
C491 C490 1.386 . S
C491 C495 1.393 . S
C492 H481 0.950 . S
C492 C490 1.391 . S
C492 C493 1.400 . S
C493 C487 1.491 . S
C493 C492 1.400 . S
C493 C494 1.398 . S
C494 H482 0.950 . S
C494 C493 1.398 . S
C494 C495 1.391 . S
C495 H483 0.950 . S
C495 C491 1.393 . S
C495 C494 1.391 . S
H496 C504 0.950 . S
H497 C509 0.950 . S
H498 C506 0.950 . S
H499 C508 0.950 . S
H500 C510 0.950 . S
H501 C512 0.950 . S
H502 C514 0.950 . S
H503 C515 0.950 . S
C504 H496 0.950 . S
C504 C505 1.386 . S
C504 C506 1.391 . S
C505 C504 1.386 . S
C505 C509 1.393 . S
C506 H498 0.950 . S
C506 C504 1.391 . S
C506 C507 1.400 . S
C507 C506 1.400 . S
C507 C508 1.398 . S
C507 C513 1.491 . S
C508 H499 0.950 . S
C508 C507 1.398 . S
C508 C509 1.391 . S
C509 H497 0.950 . S
C509 C505 1.393 . S
C509 C508 1.391 . S
C510 H500 0.950 . S
C510 C511 1.386 . S
C510 C512 1.391 . S
C511 C510 1.386 . S
C511 C515 1.393 . S
C512 H501 0.950 . S
C512 C510 1.391 . S
C512 C513 1.400 . S
C513 C507 1.491 . S
C513 C512 1.400 . S
C513 C514 1.398 . S
C514 H502 0.950 . S
C514 C513 1.398 . S
C514 C515 1.391 . S
C515 H503 0.950 . S
C515 C511 1.393 . S
C515 C514 1.391 . S
H516 C524 0.950 . S
H517 C529 0.950 . S
H518 C526 0.950 . S
H519 C528 0.950 . S
H520 C530 0.950 . S
H521 C532 0.950 . S
H522 C534 0.950 . S
H523 C535 0.950 . S
C524 H516 0.950 . S
C524 C525 1.386 . S
C524 C526 1.391 . S
C525 C524 1.386 . S
C525 C529 1.393 . S
C526 H518 0.950 . S
C526 C524 1.391 . S
C526 C527 1.400 . S
C527 C526 1.400 . S
C527 C528 1.398 . S
C527 C533 1.491 . S
C528 H519 0.950 . S
C528 C527 1.398 . S
C528 C529 1.391 . S
C529 H517 0.950 . S
C529 C525 1.393 . S
C529 C528 1.391 . S
C530 H520 0.950 . S
C530 C531 1.386 . S
C530 C532 1.391 . S
C531 C530 1.386 . S
C531 C535 1.393 . S
C532 H521 0.950 . S
C532 C530 1.391 . S
C532 C533 1.400 . S
C533 C527 1.491 . S
C533 C532 1.400 . S
C533 C534 1.398 . S
C534 H522 0.950 . S
C534 C533 1.398 . S
C534 C535 1.391 . S
C535 H523 0.950 . S
C535 C531 1.393 . S
C535 C534 1.391 . S
H536 C544 0.950 . S
H537 C549 0.950 . S
H538 C546 0.950 . S
H539 C548 0.950 . S
H540 C550 0.950 . S
H541 C552 0.950 . S
H542 C554 0.950 . S
H543 C555 0.950 . S
C544 H536 0.950 . S
C544 C545 1.386 . S
C544 C546 1.391 . S
C545 C544 1.386 . S
C545 C549 1.393 . S
C546 H538 0.950 . S
C546 C544 1.391 . S
C546 C547 1.400 . S
C547 C546 1.400 . S
C547 C548 1.398 . S
C547 C553 1.491 . S
C548 H539 0.950 . S
C548 C547 1.398 . S
C548 C549 1.391 . S
C549 H537 0.950 . S
C549 C545 1.393 . S
C549 C548 1.391 . S
C550 H540 0.950 . S
C550 C551 1.386 . S
C550 C552 1.391 . S
C551 C550 1.386 . S
C551 C555 1.393 . S
C552 H541 0.950 . S
C552 C550 1.391 . S
C552 C553 1.400 . S
C553 C547 1.491 . S
C553 C552 1.400 . S
C553 C554 1.398 . S
C554 H542 0.950 . S
C554 C553 1.398 . S
C554 C555 1.391 . S
C555 H543 0.950 . S
C555 C551 1.393 . S
C555 C554 1.391 . S
H556 C564 0.950 . S
H557 C569 0.950 . S
H558 C566 0.950 . S
H559 C568 0.950 . S
H560 C570 0.950 . S
H561 C572 0.950 . S
H562 C574 0.950 . S
H563 C575 0.950 . S
C564 H556 0.950 . S
C564 C565 1.386 . S
C564 C566 1.391 . S
C565 C564 1.386 . S
C565 C569 1.393 . S
C566 H558 0.950 . S
C566 C564 1.391 . S
C566 C567 1.400 . S
C567 C566 1.400 . S
C567 C568 1.398 . S
C567 C573 1.491 . S
C568 H559 0.950 . S
C568 C567 1.398 . S
C568 C569 1.391 . S
C569 H557 0.950 . S
C569 C565 1.393 . S
C569 C568 1.391 . S
C570 H560 0.950 . S
C570 C571 1.386 . S
C570 C572 1.391 . S
C571 C570 1.386 . S
C571 C575 1.393 . S
C572 H561 0.950 . S
C572 C570 1.391 . S
C572 C573 1.400 . S
C573 C567 1.491 . S
C573 C572 1.400 . S
C573 C574 1.398 . S
C574 H562 0.950 . S
C574 C573 1.398 . S
C574 C575 1.391 . S
C575 H563 0.950 . S
C575 C571 1.393 . S
C575 C574 1.391 . S
H576 C584 0.950 . S
H577 C589 0.950 . S
H578 C586 0.950 . S
H579 C588 0.950 1_545 S
H580 C590 0.950 . S
H581 C592 0.950 . S
H582 C594 0.950 1_565 S
H583 C595 0.950 . S
C584 H576 0.950 . S
C584 C585 1.386 . S
C584 C586 1.391 . S
C585 C584 1.386 . S
C585 C589 1.393 . S
C586 H578 0.950 . S
C586 C584 1.391 . S
C586 C587 1.400 . S
C587 C586 1.400 . S
C587 C588 1.398 . S
C587 C593 1.491 1_565 S
C588 H579 0.950 1_565 S
C588 C587 1.398 . S
C588 C589 1.391 . S
C589 H577 0.950 . S
C589 C585 1.393 . S
C589 C588 1.391 . S
C590 H580 0.950 . S
C590 C591 1.386 . S
C590 C592 1.391 . S
C591 C590 1.386 . S
C591 C595 1.393 . S
C592 H581 0.950 . S
C592 C590 1.391 . S
C592 C593 1.400 . S
C593 C587 1.491 1_545 S
C593 C592 1.400 . S
C593 C594 1.398 . S
C594 H582 0.950 1_545 S
C594 C593 1.398 . S
C594 C595 1.391 . S
C595 H583 0.950 . S
C595 C591 1.393 . S
C595 C594 1.391 . S
H596 C604 0.950 . S
H597 C609 0.950 . S
H598 C606 0.950 . S
H599 C608 0.950 1_455 S
H600 C610 0.950 . S
H601 C612 0.950 . S
H602 C614 0.950 1_655 S
H603 C615 0.950 . S
C604 H596 0.950 . S
C604 C605 1.386 . S
C604 C606 1.391 . S
C605 C604 1.386 . S
C605 C609 1.393 . S
C606 H598 0.950 . S
C606 C604 1.391 . S
C606 C607 1.400 . S
C607 C606 1.400 . S
C607 C608 1.398 . S
C607 C613 1.491 1_655 S
C608 H599 0.950 1_655 S
C608 C607 1.398 . S
C608 C609 1.391 . S
C609 H597 0.950 . S
C609 C605 1.393 . S
C609 C608 1.391 . S
C610 H600 0.950 . S
C610 C611 1.386 . S
C610 C612 1.391 . S
C611 C610 1.386 . S
C611 C615 1.393 . S
C612 H601 0.950 . S
C612 C610 1.391 . S
C612 C613 1.400 . S
C613 C607 1.491 1_455 S
C613 C612 1.400 . S
C613 C614 1.398 . S
C614 H602 0.950 1_455 S
C614 C613 1.398 . S
C614 C615 1.391 . S
C615 H603 0.950 . S
C615 C611 1.393 . S
C615 C614 1.391 . S
H616 C624 0.950 . S
H617 C629 0.950 . S
H618 C626 0.950 . S
H619 C628 0.950 . S
H620 C630 0.950 . S
H621 C632 0.950 . S
H622 C634 0.950 . S
H623 C635 0.950 . S
C624 H616 0.950 . S
C624 C625 1.386 . S
C624 C626 1.391 . S
C625 C624 1.386 . S
C625 C629 1.393 . S
C626 H618 0.950 . S
C626 C624 1.391 . S
C626 C627 1.400 . S
C627 C626 1.400 . S
C627 C628 1.398 . S
C627 C633 1.491 1_545 S
C628 H619 0.950 . S
C628 C627 1.398 . S
C628 C629 1.391 . S
C629 H617 0.950 . S
C629 C625 1.393 . S
C629 C628 1.391 . S
C630 H620 0.950 . S
C630 C631 1.386 . S
C630 C632 1.391 . S
C631 C630 1.386 . S
C631 C635 1.393 . S
C632 H621 0.950 . S
C632 C630 1.391 . S
C632 C633 1.400 . S
C633 C627 1.491 1_565 S
C633 C632 1.400 . S
C633 C634 1.398 . S
C634 H622 0.950 . S
C634 C633 1.398 . S
C634 C635 1.391 . S
C635 H623 0.950 . S
C635 C631 1.393 . S
C635 C634 1.391 . S
H636 C644 0.950 . S
H637 C649 0.950 . S
H638 C646 0.950 1_655 S
H639 C648 0.950 . S
H640 C650 0.950 . S
H641 C652 0.950 1_455 S
H642 C654 0.950 . S
H643 C655 0.950 . S
C644 H636 0.950 . S
C644 C645 1.386 . S
C644 C646 1.391 . S
C645 C644 1.386 . S
C645 C649 1.393 . S
C646 H638 0.950 1_455 S
C646 C644 1.391 . S
C646 C647 1.400 . S
C647 C646 1.400 . S
C647 C648 1.398 . S
C647 C653 1.491 1_455 S
C648 H639 0.950 . S
C648 C647 1.398 . S
C648 C649 1.391 . S
C649 H637 0.950 . S
C649 C645 1.393 . S
C649 C648 1.391 . S
C650 H640 0.950 . S
C650 C651 1.386 . S
C650 C652 1.391 . S
C651 C650 1.386 . S
C651 C655 1.393 . S
C652 H641 0.950 1_655 S
C652 C650 1.391 . S
C652 C653 1.400 . S
C653 C647 1.491 1_655 S
C653 C652 1.400 . S
C653 C654 1.398 . S
C654 H642 0.950 . S
C654 C653 1.398 . S
C654 C655 1.391 . S
C655 H643 0.950 . S
C655 C651 1.393 . S
C655 C654 1.391 . S
H656 C664 0.950 . S
H657 C669 0.950 . S
H658 C666 0.950 . S
H659 C668 0.950 . S
H660 C670 0.950 . S
H661 C672 0.950 . S
H662 C674 0.950 . S
H663 C675 0.950 . S
C664 H656 0.950 . S
C664 C665 1.386 . S
C664 C666 1.391 . S
C665 C664 1.386 . S
C665 C669 1.393 . S
C666 H658 0.950 . S
C666 C664 1.391 . S
C666 C667 1.400 . S
C667 C666 1.400 . S
C667 C668 1.398 . S
C667 C673 1.491 1_565 S
C668 H659 0.950 . S
C668 C667 1.398 . S
C668 C669 1.391 . S
C669 H657 0.950 . S
C669 C665 1.393 . S
C669 C668 1.391 . S
C670 H660 0.950 . S
C670 C671 1.386 . S
C670 C672 1.391 . S
C671 C670 1.386 . S
C671 C675 1.393 . S
C672 H661 0.950 . S
C672 C670 1.391 . S
C672 C673 1.400 . S
C673 C667 1.491 1_545 S
C673 C672 1.400 . S
C673 C674 1.398 . S
C674 H662 0.950 . S
C674 C673 1.398 . S
C674 C675 1.391 . S
C675 H663 0.950 . S
C675 C671 1.393 . S
C675 C674 1.391 . S
H676 C684 0.950 . S
H677 C689 0.950 . S
H678 C686 0.950 . S
H679 C688 0.950 1_455 S
H680 C690 0.950 . S
H681 C692 0.950 . S
H682 C694 0.950 1_655 S
H683 C695 0.950 . S
C684 H676 0.950 . S
C684 C685 1.386 . S
C684 C686 1.391 . S
C685 C684 1.386 . S
C685 C689 1.393 . S
C686 H678 0.950 . S
C686 C684 1.391 . S
C686 C687 1.400 . S
C687 C686 1.400 . S
C687 C688 1.398 . S
C687 C693 1.491 1_655 S
C688 H679 0.950 1_655 S
C688 C687 1.398 . S
C688 C689 1.391 . S
C689 H677 0.950 . S
C689 C685 1.393 . S
C689 C688 1.391 . S
C690 H680 0.950 . S
C690 C691 1.386 . S
C690 C692 1.391 . S
C691 C690 1.386 . S
C691 C695 1.393 . S
C692 H681 0.950 . S
C692 C690 1.391 . S
C692 C693 1.400 . S
C693 C687 1.491 1_455 S
C693 C692 1.400 . S
C693 C694 1.398 . S
C694 H682 0.950 1_455 S
C694 C693 1.398 . S
C694 C695 1.391 . S
C695 H683 0.950 . S
C695 C691 1.393 . S
C695 C694 1.391 . S
H696 C704 0.950 . S
H697 C709 0.950 . S
H698 C706 0.950 1_545 S
H699 C708 0.950 . S
H700 C710 0.950 . S
H701 C712 0.950 1_565 S
H702 C714 0.950 . S
H703 C715 0.950 . S
C704 H696 0.950 . S
C704 C705 1.386 . S
C704 C706 1.391 . S
C705 C704 1.386 . S
C705 C709 1.393 . S
C706 H698 0.950 1_565 S
C706 C704 1.391 . S
C706 C707 1.400 . S
C707 C706 1.400 . S
C707 C708 1.398 . S
C707 C713 1.491 1_565 S
C708 H699 0.950 . S
C708 C707 1.398 . S
C708 C709 1.391 . S
C709 H697 0.950 . S
C709 C705 1.393 . S
C709 C708 1.391 . S
C710 H700 0.950 . S
C710 C711 1.386 . S
C710 C712 1.391 . S
C711 C710 1.386 . S
C711 C715 1.393 . S
C712 H701 0.950 1_545 S
C712 C710 1.391 . S
C712 C713 1.400 . S
C713 C707 1.491 1_545 S
C713 C712 1.400 . S
C713 C714 1.398 . S
C714 H702 0.950 . S
C714 C713 1.398 . S
C714 C715 1.391 . S
C715 H703 0.950 . S
C715 C711 1.393 . S
C715 C714 1.391 . S
H716 C724 0.950 . S
H717 C729 0.950 . S
H718 C726 0.950 1_655 S
H719 C728 0.950 . S
H720 C730 0.950 . S
H721 C732 0.950 1_455 S
H722 C734 0.950 . S
H723 C735 0.950 . S
C724 H716 0.950 . S
C724 C725 1.386 . S
C724 C726 1.391 . S
C725 C724 1.386 . S
C725 C729 1.393 . S
C726 H718 0.950 1_455 S
C726 C724 1.391 . S
C726 C727 1.400 . S
C727 C726 1.400 . S
C727 C728 1.398 . S
C727 C733 1.491 1_455 S
C728 H719 0.950 . S
C728 C727 1.398 . S
C728 C729 1.391 . S
C729 H717 0.950 . S
C729 C725 1.393 . S
C729 C728 1.391 . S
C730 H720 0.950 . S
C730 C731 1.386 . S
C730 C732 1.391 . S
C731 C730 1.386 . S
C731 C735 1.393 . S
C732 H721 0.950 1_655 S
C732 C730 1.391 . S
C732 C733 1.400 . S
C733 C727 1.491 1_655 S
C733 C732 1.400 . S
C733 C734 1.398 . S
C734 H722 0.950 . S
C734 C733 1.398 . S
C734 C735 1.391 . S
C735 H723 0.950 . S
C735 C731 1.393 . S
C735 C734 1.391 . S
H736 C744 0.950 . S
H737 C749 0.950 . S
H738 C746 0.950 . S
H739 C748 0.950 . S
H740 C750 0.950 . S
H741 C752 0.950 . S
H742 C754 0.950 . S
H743 C755 0.950 . S
C744 H736 0.950 . S
C744 C745 1.386 . S
C744 C746 1.391 . S
C745 C744 1.386 . S
C745 C749 1.393 . S
C746 H738 0.950 . S
C746 C744 1.391 . S
C746 C747 1.400 . S
C747 C746 1.400 . S
C747 C748 1.398 . S
C747 C753 1.491 1_556 S
C748 H739 0.950 . S
C748 C747 1.398 . S
C748 C749 1.391 . S
C749 H737 0.950 . S
C749 C745 1.393 . S
C749 C748 1.391 . S
C750 H740 0.950 . S
C750 C751 1.386 . S
C750 C752 1.391 . S
C751 C750 1.386 . S
C751 C755 1.393 . S
C752 H741 0.950 . S
C752 C750 1.391 . S
C752 C753 1.400 . S
C753 C747 1.491 1_554 S
C753 C752 1.400 . S
C753 C754 1.398 . S
C754 H742 0.950 . S
C754 C753 1.398 . S
C754 C755 1.391 . S
C755 H743 0.950 . S
C755 C751 1.393 . S
C755 C754 1.391 . S
H756 C764 0.950 . S
H757 C769 0.950 . S
H758 C766 0.950 1_556 S
H759 C768 0.950 . S
H760 C770 0.950 . S
H761 C772 0.950 1_554 S
H762 C774 0.950 . S
H763 C775 0.950 . S
C764 H756 0.950 . S
C764 C765 1.386 . S
C764 C766 1.391 . S
C765 C764 1.386 . S
C765 C769 1.393 . S
C766 H758 0.950 1_554 S
C766 C764 1.391 . S
C766 C767 1.400 . S
C767 C766 1.400 . S
C767 C768 1.398 . S
C767 C773 1.491 1_554 S
C768 H759 0.950 . S
C768 C767 1.398 . S
C768 C769 1.391 . S
C769 H757 0.950 . S
C769 C765 1.393 . S
C769 C768 1.391 . S
C770 H760 0.950 . S
C770 C771 1.386 . S
C770 C772 1.391 . S
C771 C770 1.386 . S
C771 C775 1.393 . S
C772 H761 0.950 1_556 S
C772 C770 1.391 . S
C772 C773 1.400 . S
C773 C767 1.491 1_556 S
C773 C772 1.400 . S
C773 C774 1.398 . S
C774 H762 0.950 . S
C774 C773 1.398 . S
C774 C775 1.391 . S
C775 H763 0.950 . S
C775 C771 1.393 . S
C775 C774 1.391 . S
H776 C784 0.950 . S
H777 C789 0.950 . S
H778 C786 0.950 . S
H779 C788 0.950 . S
H780 C790 0.950 . S
H781 C792 0.950 . S
H782 C794 0.950 . S
H783 C795 0.950 . S
C784 H776 0.950 . S
C784 C785 1.386 . S
C784 C786 1.391 . S
C785 C784 1.386 . S
C785 C789 1.393 . S
C786 H778 0.950 . S
C786 C784 1.391 . S
C786 C787 1.400 . S
C787 C786 1.400 . S
C787 C788 1.398 . S
C787 C793 1.491 1_556 S
C788 H779 0.950 . S
C788 C787 1.398 . S
C788 C789 1.391 . S
C789 H777 0.950 . S
C789 C785 1.393 . S
C789 C788 1.391 . S
C790 H780 0.950 . S
C790 C791 1.386 . S
C790 C792 1.391 . S
C791 C790 1.386 . S
C791 C795 1.393 . S
C792 H781 0.950 . S
C792 C790 1.391 . S
C792 C793 1.400 . S
C793 C787 1.491 1_554 S
C793 C792 1.400 . S
C793 C794 1.398 . S
C794 H782 0.950 . S
C794 C793 1.398 . S
C794 C795 1.391 . S
C795 H783 0.950 . S
C795 C791 1.393 . S
C795 C794 1.391 . S
H796 C804 0.950 . S
H797 C809 0.950 . S
H798 C806 0.950 1_556 S
H799 C808 0.950 . S
H800 C810 0.950 . S
H801 C812 0.950 1_554 S
H802 C814 0.950 . S
H803 C815 0.950 . S
C804 H796 0.950 . S
C804 C805 1.386 . S
C804 C806 1.391 . S
C805 C804 1.386 . S
C805 C809 1.393 . S
C806 H798 0.950 1_554 S
C806 C804 1.391 . S
C806 C807 1.400 . S
C807 C806 1.400 . S
C807 C808 1.398 . S
C807 C813 1.491 1_554 S
C808 H799 0.950 . S
C808 C807 1.398 . S
C808 C809 1.391 . S
C809 H797 0.950 . S
C809 C805 1.393 . S
C809 C808 1.391 . S
C810 H800 0.950 . S
C810 C811 1.386 . S
C810 C812 1.391 . S
C811 C810 1.386 . S
C811 C815 1.393 . S
C812 H801 0.950 1_556 S
C812 C810 1.391 . S
C812 C813 1.400 . S
C813 C807 1.491 1_556 S
C813 C812 1.400 . S
C813 C814 1.398 . S
C814 H802 0.950 . S
C814 C813 1.398 . S
C814 C815 1.391 . S
C815 H803 0.950 . S
C815 C811 1.393 . S
C815 C814 1.391 . S
H816 C824 0.950 . S
H817 C829 0.950 . S
H818 C826 0.950 . S
H819 C828 0.950 . S
H820 C830 0.950 . S
H821 C832 0.950 . S
H822 C834 0.950 . S
H823 C835 0.950 . S
C824 H816 0.950 . S
C824 C825 1.386 . S
C824 C826 1.391 . S
C825 C824 1.386 . S
C825 C829 1.393 . S
C826 H818 0.950 . S
C826 C824 1.391 . S
C826 C827 1.400 . S
C827 C826 1.400 . S
C827 C828 1.398 . S
C827 C833 1.491 . S
C828 H819 0.950 . S
C828 C827 1.398 . S
C828 C829 1.391 . S
C829 H817 0.950 . S
C829 C825 1.393 . S
C829 C828 1.391 . S
C830 H820 0.950 . S
C830 C831 1.386 . S
C830 C832 1.391 . S
C831 C830 1.386 . S
C831 C835 1.393 . S
C832 H821 0.950 . S
C832 C830 1.391 . S
C832 C833 1.400 . S
C833 C827 1.491 . S
C833 C832 1.400 . S
C833 C834 1.398 . S
C834 H822 0.950 . S
C834 C833 1.398 . S
C834 C835 1.391 . S
C835 H823 0.950 . S
C835 C831 1.393 . S
C835 C834 1.391 . S
H836 C844 0.950 . S
H837 C849 0.950 . S
H838 C846 0.950 . S
H839 C848 0.950 . S
H840 C850 0.950 . S
H841 C852 0.950 . S
H842 C854 0.950 . S
H843 C855 0.950 . S
C844 H836 0.950 . S
C844 C845 1.386 . S
C844 C846 1.391 . S
C845 C844 1.386 . S
C845 C849 1.393 . S
C846 H838 0.950 . S
C846 C844 1.391 . S
C846 C847 1.400 . S
C847 C846 1.400 . S
C847 C848 1.398 . S
C847 C853 1.491 . S
C848 H839 0.950 . S
C848 C847 1.398 . S
C848 C849 1.391 . S
C849 H837 0.950 . S
C849 C845 1.393 . S
C849 C848 1.391 . S
C850 H840 0.950 . S
C850 C851 1.386 . S
C850 C852 1.391 . S
C851 C850 1.386 . S
C851 C855 1.393 . S
C852 H841 0.950 . S
C852 C850 1.391 . S
C852 C853 1.400 . S
C853 C847 1.491 . S
C853 C852 1.400 . S
C853 C854 1.398 . S
C854 H842 0.950 . S
C854 C853 1.398 . S
C854 C855 1.391 . S
C855 H843 0.950 . S
C855 C851 1.393 . S
C855 C854 1.391 . S
H856 C864 0.950 . S
H857 C869 0.950 . S
H858 C866 0.950 . S
H859 C868 0.950 . S
H860 C870 0.950 . S
H861 C872 0.950 . S
H862 C874 0.950 . S
H863 C875 0.950 . S
C864 H856 0.950 . S
C864 C865 1.386 . S
C864 C866 1.391 . S
C865 C864 1.386 . S
C865 C869 1.393 . S
C866 H858 0.950 . S
C866 C864 1.391 . S
C866 C867 1.400 . S
C867 C866 1.400 . S
C867 C868 1.398 . S
C867 C873 1.491 . S
C868 H859 0.950 . S
C868 C867 1.398 . S
C868 C869 1.391 . S
C869 H857 0.950 . S
C869 C865 1.393 . S
C869 C868 1.391 . S
C870 H860 0.950 . S
C870 C871 1.386 . S
C870 C872 1.391 . S
C871 C870 1.386 . S
C871 C875 1.393 . S
C872 H861 0.950 . S
C872 C870 1.391 . S
C872 C873 1.400 . S
C873 C867 1.491 . S
C873 C872 1.400 . S
C873 C874 1.398 . S
C874 H862 0.950 . S
C874 C873 1.398 . S
C874 C875 1.391 . S
C875 H863 0.950 . S
C875 C871 1.393 . S
C875 C874 1.391 . S
H876 C884 0.950 . S
H877 C889 0.950 . S
H878 C886 0.950 . S
H879 C888 0.950 . S
H880 C890 0.950 . S
H881 C892 0.950 . S
H882 C894 0.950 . S
H883 C895 0.950 . S
C884 H876 0.950 . S
C884 C885 1.386 . S
C884 C886 1.391 . S
C885 C884 1.386 . S
C885 C889 1.393 . S
C886 H878 0.950 . S
C886 C884 1.391 . S
C886 C887 1.400 . S
C887 C886 1.400 . S
C887 C888 1.398 . S
C887 C893 1.491 . S
C888 H879 0.950 . S
C888 C887 1.398 . S
C888 C889 1.391 . S
C889 H877 0.950 . S
C889 C885 1.393 . S
C889 C888 1.391 . S
C890 H880 0.950 . S
C890 C891 1.386 . S
C890 C892 1.391 . S
C891 C890 1.386 . S
C891 C895 1.393 . S
C892 H881 0.950 . S
C892 C890 1.391 . S
C892 C893 1.400 . S
C893 C887 1.491 . S
C893 C892 1.400 . S
C893 C894 1.398 . S
C894 H882 0.950 . S
C894 C893 1.398 . S
C894 C895 1.391 . S
C895 H883 0.950 . S
C895 C891 1.393 . S
C895 C894 1.391 . S
H896 C904 0.950 . S
H897 C909 0.950 . S
H898 C906 0.950 . S
H899 C908 0.950 . S
H900 C910 0.950 . S
H901 C912 0.950 . S
H902 C914 0.950 . S
H903 C915 0.950 . S
C904 H896 0.950 . S
C904 C905 1.386 . S
C904 C906 1.391 . S
C905 C904 1.386 . S
C905 C909 1.393 . S
C906 H898 0.950 . S
C906 C904 1.391 . S
C906 C907 1.400 . S
C907 C906 1.400 . S
C907 C908 1.398 . S
C907 C913 1.491 . S
C908 H899 0.950 . S
C908 C907 1.398 . S
C908 C909 1.391 . S
C909 H897 0.950 . S
C909 C905 1.393 . S
C909 C908 1.391 . S
C910 H900 0.950 . S
C910 C911 1.386 . S
C910 C912 1.391 . S
C911 C910 1.386 . S
C911 C915 1.393 . S
C912 H901 0.950 . S
C912 C910 1.391 . S
C912 C913 1.400 . S
C913 C907 1.491 . S
C913 C912 1.400 . S
C913 C914 1.398 . S
C914 H902 0.950 . S
C914 C913 1.398 . S
C914 C915 1.391 . S
C915 H903 0.950 . S
C915 C911 1.393 . S
C915 C914 1.391 . S
H916 C924 0.950 . S
H917 C929 0.950 . S
H918 C926 0.950 . S
H919 C928 0.950 . S
H920 C930 0.950 . S
H921 C932 0.950 . S
H922 C934 0.950 . S
H923 C935 0.950 . S
C924 H916 0.950 . S
C924 C925 1.386 . S
C924 C926 1.391 . S
C925 C924 1.386 . S
C925 C929 1.393 . S
C926 H918 0.950 . S
C926 C924 1.391 . S
C926 C927 1.400 . S
C927 C926 1.400 . S
C927 C928 1.398 . S
C927 C933 1.491 . S
C928 H919 0.950 . S
C928 C927 1.398 . S
C928 C929 1.391 . S
C929 H917 0.950 . S
C929 C925 1.393 . S
C929 C928 1.391 . S
C930 H920 0.950 . S
C930 C931 1.386 . S
C930 C932 1.391 . S
C931 C930 1.386 . S
C931 C935 1.393 . S
C932 H921 0.950 . S
C932 C930 1.391 . S
C932 C933 1.400 . S
C933 C927 1.491 . S
C933 C932 1.400 . S
C933 C934 1.398 . S
C934 H922 0.950 . S
C934 C933 1.398 . S
C934 C935 1.391 . S
C935 H923 0.950 . S
C935 C931 1.393 . S
C935 C934 1.391 . S
H936 C944 0.950 . S
H937 C949 0.950 . S
H938 C946 0.950 . S
H939 C948 0.950 . S
H940 C950 0.950 . S
H941 C952 0.950 . S
H942 C954 0.950 . S
H943 C955 0.950 . S
C944 H936 0.950 . S
C944 C945 1.386 . S
C944 C946 1.391 . S
C945 C944 1.386 . S
C945 C949 1.393 . S
C946 H938 0.950 . S
C946 C944 1.391 . S
C946 C947 1.400 . S
C947 C946 1.400 . S
C947 C948 1.398 . S
C947 C953 1.491 . S
C948 H939 0.950 . S
C948 C947 1.398 . S
C948 C949 1.391 . S
C949 H937 0.950 . S
C949 C945 1.393 . S
C949 C948 1.391 . S
C950 H940 0.950 . S
C950 C951 1.386 . S
C950 C952 1.391 . S
C951 C950 1.386 . S
C951 C955 1.393 . S
C952 H941 0.950 . S
C952 C950 1.391 . S
C952 C953 1.400 . S
C953 C947 1.491 . S
C953 C952 1.400 . S
C953 C954 1.398 . S
C954 H942 0.950 . S
C954 C953 1.398 . S
C954 C955 1.391 . S
C955 H943 0.950 . S
C955 C951 1.393 . S
C955 C954 1.391 . S
H956 C964 0.950 . S
H957 C969 0.950 . S
H958 C966 0.950 . S
H959 C968 0.950 . S
H960 C970 0.950 . S
H961 C972 0.950 . S
H962 C974 0.950 . S
H963 C975 0.950 . S
C964 H956 0.950 . S
C964 C965 1.386 . S
C964 C966 1.391 . S
C965 C964 1.386 . S
C965 C969 1.393 . S
C966 H958 0.950 . S
C966 C964 1.391 . S
C966 C967 1.400 . S
C967 C966 1.400 . S
C967 C968 1.398 . S
C967 C973 1.491 . S
C968 H959 0.950 . S
C968 C967 1.398 . S
C968 C969 1.391 . S
C969 H957 0.950 . S
C969 C965 1.393 . S
C969 C968 1.391 . S
C970 H960 0.950 . S
C970 C971 1.386 . S
C970 C972 1.391 . S
C971 C970 1.386 . S
C971 C975 1.393 . S
C972 H961 0.950 . S
C972 C970 1.391 . S
C972 C973 1.400 . S
C973 C967 1.491 . S
C973 C972 1.400 . S
C973 C974 1.398 . S
C974 H962 0.950 . S
C974 C973 1.398 . S
C974 C975 1.391 . S
C975 H963 0.950 . S
C975 C971 1.393 . S
C975 C974 1.391 . S
H976 C984 0.950 . S
H977 C989 0.950 . S
H978 C986 0.950 . S
H979 C988 0.950 . S
H980 C990 0.950 . S
H981 C992 0.950 . S
H982 C994 0.950 . S
H983 C995 0.950 . S
C984 H976 0.950 . S
C984 C985 1.386 . S
C984 C986 1.391 . S
C985 C984 1.386 . S
C985 C989 1.393 . S
C986 H978 0.950 . S
C986 C984 1.391 . S
C986 C987 1.400 . S
C987 C986 1.400 . S
C987 C988 1.398 . S
C987 C993 1.491 . S
C988 H979 0.950 . S
C988 C987 1.398 . S
C988 C989 1.391 . S
C989 H977 0.950 . S
C989 C985 1.393 . S
C989 C988 1.391 . S
C990 H980 0.950 . S
C990 C991 1.386 . S
C990 C992 1.391 . S
C991 C990 1.386 . S
C991 C995 1.393 . S
C992 H981 0.950 . S
C992 C990 1.391 . S
C992 C993 1.400 . S
C993 C987 1.491 . S
C993 C992 1.400 . S
C993 C994 1.398 . S
C994 H982 0.950 . S
C994 C993 1.398 . S
C994 C995 1.391 . S
C995 H983 0.950 . S
C995 C991 1.393 . S
C995 C994 1.391 . S
H996 C1004 0.950 . S
H997 C1009 0.950 . S
H998 C1006 0.950 . S
H999 C1008 0.950 . S
H1000 C1010 0.950 . S
H1001 C1012 0.950 . S
H1002 C1014 0.950 . S
H1003 C1015 0.950 . S
C1004 H996 0.950 . S
C1004 C1005 1.386 . S
C1004 C1006 1.391 . S
C1005 C1004 1.386 . S
C1005 C1009 1.393 . S
C1006 H998 0.950 . S
C1006 C1004 1.391 . S
C1006 C1007 1.400 . S
C1007 C1006 1.400 . S
C1007 C1008 1.398 . S
C1007 C1013 1.491 . S
C1008 H999 0.950 . S
C1008 C1007 1.398 . S
C1008 C1009 1.391 . S
C1009 H997 0.950 . S
C1009 C1005 1.393 . S
C1009 C1008 1.391 . S
C1010 H1000 0.950 . S
C1010 C1011 1.386 . S
C1010 C1012 1.391 . S
C1011 C1010 1.386 . S
C1011 C1015 1.393 . S
C1012 H1001 0.950 . S
C1012 C1010 1.391 . S
C1012 C1013 1.400 . S
C1013 C1007 1.491 . S
C1013 C1012 1.400 . S
C1013 C1014 1.398 . S
C1014 H1002 0.950 . S
C1014 C1013 1.398 . S
C1014 C1015 1.391 . S
C1015 H1003 0.950 . S
C1015 C1011 1.393 . S
C1015 C1014 1.391 . S
H1016 C1024 0.950 . S
H1017 C1029 0.950 . S
H1018 C1026 0.950 . S
H1019 C1028 0.950 . S
H1020 C1030 0.950 . S
H1021 C1032 0.950 . S
H1022 C1034 0.950 . S
H1023 C1035 0.950 . S
C1024 H1016 0.950 . S
C1024 C1025 1.386 . S
C1024 C1026 1.391 . S
C1025 C1024 1.386 . S
C1025 C1029 1.393 . S
C1026 H1018 0.950 . S
C1026 C1024 1.391 . S
C1026 C1027 1.400 . S
C1027 C1026 1.400 . S
C1027 C1028 1.398 . S
C1027 C1033 1.491 . S
C1028 H1019 0.950 . S
C1028 C1027 1.398 . S
C1028 C1029 1.391 . S
C1029 H1017 0.950 . S
C1029 C1025 1.393 . S
C1029 C1028 1.391 . S
C1030 H1020 0.950 . S
C1030 C1031 1.386 . S
C1030 C1032 1.391 . S
C1031 C1030 1.386 . S
C1031 C1035 1.393 . S
C1032 H1021 0.950 . S
C1032 C1030 1.391 . S
C1032 C1033 1.400 . S
C1033 C1027 1.491 . S
C1033 C1032 1.400 . S
C1033 C1034 1.398 . S
C1034 H1022 0.950 . S
C1034 C1033 1.398 . S
C1034 C1035 1.391 . S
C1035 H1023 0.950 . S
C1035 C1031 1.393 . S
C1035 C1034 1.391 . S
H1036 C1044 0.950 . S
H1037 C1049 0.950 . S
H1038 C1046 0.950 . S
H1039 C1048 0.950 . S
H1040 C1050 0.950 . S
H1041 C1052 0.950 . S
H1042 C1054 0.950 . S
H1043 C1055 0.950 . S
C1044 H1036 0.950 . S
C1044 C1045 1.386 . S
C1044 C1046 1.391 . S
C1045 C1044 1.386 . S
C1045 C1049 1.393 . S
C1046 H1038 0.950 . S
C1046 C1044 1.391 . S
C1046 C1047 1.400 . S
C1047 C1046 1.400 . S
C1047 C1048 1.398 . S
C1047 C1053 1.491 . S
C1048 H1039 0.950 . S
C1048 C1047 1.398 . S
C1048 C1049 1.391 . S
C1049 H1037 0.950 . S
C1049 C1045 1.393 . S
C1049 C1048 1.391 . S
C1050 H1040 0.950 . S
C1050 C1051 1.386 . S
C1050 C1052 1.391 . S
C1051 C1050 1.386 . S
C1051 C1055 1.393 . S
C1052 H1041 0.950 . S
C1052 C1050 1.391 . S
C1052 C1053 1.400 . S
C1053 C1047 1.491 . S
C1053 C1052 1.400 . S
C1053 C1054 1.398 . S
C1054 H1042 0.950 . S
C1054 C1053 1.398 . S
C1054 C1055 1.391 . S
C1055 H1043 0.950 . S
C1055 C1051 1.393 . S
C1055 C1054 1.391 . S
H1056 C1064 0.950 . S
H1057 C1069 0.950 . S
H1058 C1066 0.950 . S
H1059 C1068 0.950 . S
H1060 C1070 0.950 . S
H1061 C1072 0.950 . S
H1062 C1074 0.950 . S
H1063 C1075 0.950 . S
C1064 H1056 0.950 . S
C1064 C1065 1.386 . S
C1064 C1066 1.391 . S
C1065 C1064 1.386 . S
C1065 C1069 1.393 . S
C1066 H1058 0.950 . S
C1066 C1064 1.391 . S
C1066 C1067 1.400 . S
C1067 C1066 1.400 . S
C1067 C1068 1.398 . S
C1067 C1073 1.491 . S
C1068 H1059 0.950 . S
C1068 C1067 1.398 . S
C1068 C1069 1.391 . S
C1069 H1057 0.950 . S
C1069 C1065 1.393 . S
C1069 C1068 1.391 . S
C1070 H1060 0.950 . S
C1070 C1071 1.386 . S
C1070 C1072 1.391 . S
C1071 C1070 1.386 . S
C1071 C1075 1.393 . S
C1072 H1061 0.950 . S
C1072 C1070 1.391 . S
C1072 C1073 1.400 . S
C1073 C1067 1.491 . S
C1073 C1072 1.400 . S
C1073 C1074 1.398 . S
C1074 H1062 0.950 . S
C1074 C1073 1.398 . S
C1074 C1075 1.391 . S
C1075 H1063 0.950 . S
C1075 C1071 1.393 . S
C1075 C1074 1.391 . S
H1076 C1084 0.950 . S
H1077 C1089 0.950 . S
H1078 C1086 0.950 . S
H1079 C1088 0.950 . S
H1080 C1090 0.950 . S
H1081 C1092 0.950 . S
H1082 C1094 0.950 . S
H1083 C1095 0.950 . S
C1084 H1076 0.950 . S
C1084 C1085 1.386 . S
C1084 C1086 1.391 . S
C1085 C1084 1.386 . S
C1085 C1089 1.393 . S
C1086 H1078 0.950 . S
C1086 C1084 1.391 . S
C1086 C1087 1.400 . S
C1087 C1086 1.400 . S
C1087 C1088 1.398 . S
C1087 C1093 1.491 . S
C1088 H1079 0.950 . S
C1088 C1087 1.398 . S
C1088 C1089 1.391 . S
C1089 H1077 0.950 . S
C1089 C1085 1.393 . S
C1089 C1088 1.391 . S
C1090 H1080 0.950 . S
C1090 C1091 1.386 . S
C1090 C1092 1.391 . S
C1091 C1090 1.386 . S
C1091 C1095 1.393 . S
C1092 H1081 0.950 . S
C1092 C1090 1.391 . S
C1092 C1093 1.400 . S
C1093 C1087 1.491 . S
C1093 C1092 1.400 . S
C1093 C1094 1.398 . S
C1094 H1082 0.950 . S
C1094 C1093 1.398 . S
C1094 C1095 1.391 . S
C1095 H1083 0.950 . S
C1095 C1091 1.393 . S
C1095 C1094 1.391 . S
H1096 C1104 0.950 . S
H1097 C1109 0.950 . S
H1098 C1106 0.950 . S
H1099 C1108 0.950 . S
H1100 C1110 0.950 . S
H1101 C1112 0.950 . S
H1102 C1114 0.950 . S
H1103 C1115 0.950 . S
C1104 H1096 0.950 . S
C1104 C1105 1.386 . S
C1104 C1106 1.391 . S
C1105 C1104 1.386 . S
C1105 C1109 1.393 . S
C1106 H1098 0.950 . S
C1106 C1104 1.391 . S
C1106 C1107 1.400 . S
C1107 C1106 1.400 . S
C1107 C1108 1.398 . S
C1107 C1113 1.491 . S
C1108 H1099 0.950 . S
C1108 C1107 1.398 . S
C1108 C1109 1.391 . S
C1109 H1097 0.950 . S
C1109 C1105 1.393 . S
C1109 C1108 1.391 . S
C1110 H1100 0.950 . S
C1110 C1111 1.386 . S
C1110 C1112 1.391 . S
C1111 C1110 1.386 . S
C1111 C1115 1.393 . S
C1112 H1101 0.950 . S
C1112 C1110 1.391 . S
C1112 C1113 1.400 . S
C1113 C1107 1.491 . S
C1113 C1112 1.400 . S
C1113 C1114 1.398 . S
C1114 H1102 0.950 . S
C1114 C1113 1.398 . S
C1114 C1115 1.391 . S
C1115 H1103 0.950 . S
C1115 C1111 1.393 . S
C1115 C1114 1.391 . S
H1116 C1124 0.950 . S
H1117 C1129 0.950 . S
H1118 C1126 0.950 . S
H1119 C1128 0.950 . S
H1120 C1130 0.950 . S
H1121 C1132 0.950 . S
H1122 C1134 0.950 . S
H1123 C1135 0.950 . S
C1124 H1116 0.950 . S
C1124 C1125 1.386 . S
C1124 C1126 1.391 . S
C1125 C1124 1.386 . S
C1125 C1129 1.393 . S
C1126 H1118 0.950 . S
C1126 C1124 1.391 . S
C1126 C1127 1.400 . S
C1127 C1126 1.400 . S
C1127 C1128 1.398 . S
C1127 C1133 1.491 . S
C1128 H1119 0.950 . S
C1128 C1127 1.398 . S
C1128 C1129 1.391 . S
C1129 H1117 0.950 . S
C1129 C1125 1.393 . S
C1129 C1128 1.391 . S
C1130 H1120 0.950 . S
C1130 C1131 1.386 . S
C1130 C1132 1.391 . S
C1131 C1130 1.386 . S
C1131 C1135 1.393 . S
C1132 H1121 0.950 . S
C1132 C1130 1.391 . S
C1132 C1133 1.400 . S
C1133 C1127 1.491 . S
C1133 C1132 1.400 . S
C1133 C1134 1.398 . S
C1134 H1122 0.950 . S
C1134 C1133 1.398 . S
C1134 C1135 1.391 . S
C1135 H1123 0.950 . S
C1135 C1131 1.393 . S
C1135 C1134 1.391 . S
H1136 C1144 0.950 . S
H1137 C1149 0.950 . S
H1138 C1146 0.950 . S
H1139 C1148 0.950 . S
H1140 C1150 0.950 . S
H1141 C1152 0.950 . S
H1142 C1154 0.950 . S
H1143 C1155 0.950 . S
C1144 H1136 0.950 . S
C1144 C1145 1.386 . S
C1144 C1146 1.391 . S
C1145 C1144 1.386 . S
C1145 C1149 1.393 . S
C1146 H1138 0.950 . S
C1146 C1144 1.391 . S
C1146 C1147 1.400 . S
C1147 C1146 1.400 . S
C1147 C1148 1.398 . S
C1147 C1153 1.491 . S
C1148 H1139 0.950 . S
C1148 C1147 1.398 . S
C1148 C1149 1.391 . S
C1149 H1137 0.950 . S
C1149 C1145 1.393 . S
C1149 C1148 1.391 . S
C1150 H1140 0.950 . S
C1150 C1151 1.386 . S
C1150 C1152 1.391 . S
C1151 C1150 1.386 . S
C1151 C1155 1.393 . S
C1152 H1141 0.950 . S
C1152 C1150 1.391 . S
C1152 C1153 1.400 . S
C1153 C1147 1.491 . S
C1153 C1152 1.400 . S
C1153 C1154 1.398 . S
C1154 H1142 0.950 . S
C1154 C1153 1.398 . S
C1154 C1155 1.391 . S
C1155 H1143 0.950 . S
C1155 C1151 1.393 . S
C1155 C1154 1.391 . S
H1156 C1164 0.950 . S
H1157 C1169 0.950 . S
H1158 C1166 0.950 . S
H1159 C1168 0.950 . S
H1160 C1170 0.950 . S
H1161 C1172 0.950 . S
H1162 C1174 0.950 . S
H1163 C1175 0.950 . S
C1164 H1156 0.950 . S
C1164 C1165 1.386 . S
C1164 C1166 1.391 . S
C1165 C1164 1.386 . S
C1165 C1169 1.393 . S
C1166 H1158 0.950 . S
C1166 C1164 1.391 . S
C1166 C1167 1.400 . S
C1167 C1166 1.400 . S
C1167 C1168 1.398 . S
C1167 C1173 1.491 . S
C1168 H1159 0.950 . S
C1168 C1167 1.398 . S
C1168 C1169 1.391 . S
C1169 H1157 0.950 . S
C1169 C1165 1.393 . S
C1169 C1168 1.391 . S
C1170 H1160 0.950 . S
C1170 C1171 1.386 . S
C1170 C1172 1.391 . S
C1171 C1170 1.386 . S
C1171 C1175 1.393 . S
C1172 H1161 0.950 . S
C1172 C1170 1.391 . S
C1172 C1173 1.400 . S
C1173 C1167 1.491 . S
C1173 C1172 1.400 . S
C1173 C1174 1.398 . S
C1174 H1162 0.950 . S
C1174 C1173 1.398 . S
C1174 C1175 1.391 . S
C1175 H1163 0.950 . S
C1175 C1171 1.393 . S
C1175 C1174 1.391 . S
H1176 C1184 0.950 . S
H1177 C1189 0.950 . S
H1178 C1186 0.950 . S
H1179 C1188 0.950 . S
H1180 C1190 0.950 . S
H1181 C1192 0.950 . S
H1182 C1194 0.950 . S
H1183 C1195 0.950 . S
C1184 H1176 0.950 . S
C1184 C1185 1.386 . S
C1184 C1186 1.391 . S
C1185 C1184 1.386 . S
C1185 C1189 1.393 . S
C1186 H1178 0.950 . S
C1186 C1184 1.391 . S
C1186 C1187 1.400 . S
C1187 C1186 1.400 . S
C1187 C1188 1.398 . S
C1187 C1193 1.491 . S
C1188 H1179 0.950 . S
C1188 C1187 1.398 . S
C1188 C1189 1.391 . S
C1189 H1177 0.950 . S
C1189 C1185 1.393 . S
C1189 C1188 1.391 . S
C1190 H1180 0.950 . S
C1190 C1191 1.386 . S
C1190 C1192 1.391 . S
C1191 C1190 1.386 . S
C1191 C1195 1.393 . S
C1192 H1181 0.950 . S
C1192 C1190 1.391 . S
C1192 C1193 1.400 . S
C1193 C1187 1.491 . S
C1193 C1192 1.400 . S
C1193 C1194 1.398 . S
C1194 H1182 0.950 . S
C1194 C1193 1.398 . S
C1194 C1195 1.391 . S
C1195 H1183 0.950 . S
C1195 C1191 1.393 . S
C1195 C1194 1.391 . S
H1196 C1204 0.950 . S
H1197 C1209 0.950 . S
H1198 C1206 0.950 . S
H1199 C1208 0.950 . S
H1200 C1210 0.950 . S
H1201 C1212 0.950 . S
H1202 C1214 0.950 . S
H1203 C1215 0.950 . S
C1204 H1196 0.950 . S
C1204 C1205 1.386 . S
C1204 C1206 1.391 . S
C1205 C1204 1.386 . S
C1205 C1209 1.393 . S
C1206 H1198 0.950 . S
C1206 C1204 1.391 . S
C1206 C1207 1.400 . S
C1207 C1206 1.400 . S
C1207 C1208 1.398 . S
C1207 C1213 1.491 . S
C1208 H1199 0.950 . S
C1208 C1207 1.398 . S
C1208 C1209 1.391 . S
C1209 H1197 0.950 . S
C1209 C1205 1.393 . S
C1209 C1208 1.391 . S
C1210 H1200 0.950 . S
C1210 C1211 1.386 . S
C1210 C1212 1.391 . S
C1211 C1210 1.386 . S
C1211 C1215 1.393 . S
C1212 H1201 0.950 . S
C1212 C1210 1.391 . S
C1212 C1213 1.400 . S
C1213 C1207 1.491 . S
C1213 C1212 1.400 . S
C1213 C1214 1.398 . S
C1214 H1202 0.950 . S
C1214 C1213 1.398 . S
C1214 C1215 1.391 . S
C1215 H1203 0.950 . S
C1215 C1211 1.393 . S
C1215 C1214 1.391 . S
H1216 C1224 0.950 . S
H1217 C1229 0.950 . S
H1218 C1226 0.950 . S
H1219 C1228 0.950 . S
H1220 C1230 0.950 . S
H1221 C1232 0.950 . S
H1222 C1234 0.950 . S
H1223 C1235 0.950 . S
C1224 H1216 0.950 . S
C1224 C1225 1.386 . S
C1224 C1226 1.391 . S
C1225 C1224 1.386 . S
C1225 C1229 1.393 . S
C1226 H1218 0.950 . S
C1226 C1224 1.391 . S
C1226 C1227 1.400 . S
C1227 C1226 1.400 . S
C1227 C1228 1.398 . S
C1227 C1233 1.491 . S
C1228 H1219 0.950 . S
C1228 C1227 1.398 . S
C1228 C1229 1.391 . S
C1229 H1217 0.950 . S
C1229 C1225 1.393 . S
C1229 C1228 1.391 . S
C1230 H1220 0.950 . S
C1230 C1231 1.386 . S
C1230 C1232 1.391 . S
C1231 C1230 1.386 . S
C1231 C1235 1.393 . S
C1232 H1221 0.950 . S
C1232 C1230 1.391 . S
C1232 C1233 1.400 . S
C1233 C1227 1.491 . S
C1233 C1232 1.400 . S
C1233 C1234 1.398 . S
C1234 H1222 0.950 . S
C1234 C1233 1.398 . S
C1234 C1235 1.391 . S
C1235 H1223 0.950 . S
C1235 C1231 1.393 . S
C1235 C1234 1.391 . S
H1236 C1244 0.950 . S
H1237 C1249 0.950 . S
H1238 C1246 0.950 . S
H1239 C1248 0.950 . S
H1240 C1250 0.950 . S
H1241 C1252 0.950 . S
H1242 C1254 0.950 . S
H1243 C1255 0.950 . S
C1244 H1236 0.950 . S
C1244 C1245 1.386 . S
C1244 C1246 1.391 . S
C1245 C1244 1.386 . S
C1245 C1249 1.393 . S
C1246 H1238 0.950 . S
C1246 C1244 1.391 . S
C1246 C1247 1.400 . S
C1247 C1246 1.400 . S
C1247 C1248 1.398 . S
C1247 C1253 1.491 . S
C1248 H1239 0.950 . S
C1248 C1247 1.398 . S
C1248 C1249 1.391 . S
C1249 H1237 0.950 . S
C1249 C1245 1.393 . S
C1249 C1248 1.391 . S
C1250 H1240 0.950 . S
C1250 C1251 1.386 . S
C1250 C1252 1.391 . S
C1251 C1250 1.386 . S
C1251 C1255 1.393 . S
C1252 H1241 0.950 . S
C1252 C1250 1.391 . S
C1252 C1253 1.400 . S
C1253 C1247 1.491 . S
C1253 C1252 1.400 . S
C1253 C1254 1.398 . S
C1254 H1242 0.950 . S
C1254 C1253 1.398 . S
C1254 C1255 1.391 . S
C1255 H1243 0.950 . S
C1255 C1251 1.393 . S
C1255 C1254 1.391 . S
H1256 C1264 0.950 . S
H1257 C1269 0.950 . S
H1258 C1266 0.950 . S
H1259 C1268 0.950 . S
H1260 C1270 0.950 . S
H1261 C1272 0.950 . S
H1262 C1274 0.950 . S
H1263 C1275 0.950 . S
C1264 H1256 0.950 . S
C1264 C1265 1.386 . S
C1264 C1266 1.391 . S
C1265 C1264 1.386 . S
C1265 C1269 1.393 . S
C1266 H1258 0.950 . S
C1266 C1264 1.391 . S
C1266 C1267 1.400 . S
C1267 C1266 1.400 . S
C1267 C1268 1.398 . S
C1267 C1273 1.491 . S
C1268 H1259 0.950 . S
C1268 C1267 1.398 . S
C1268 C1269 1.391 . S
C1269 H1257 0.950 . S
C1269 C1265 1.393 . S
C1269 C1268 1.391 . S
C1270 H1260 0.950 . S
C1270 C1271 1.386 . S
C1270 C1272 1.391 . S
C1271 C1270 1.386 . S
C1271 C1275 1.393 . S
C1272 H1261 0.950 . S
C1272 C1270 1.391 . S
C1272 C1273 1.400 . S
C1273 C1267 1.491 . S
C1273 C1272 1.400 . S
C1273 C1274 1.398 . S
C1274 H1262 0.950 . S
C1274 C1273 1.398 . S
C1274 C1275 1.391 . S
C1275 H1263 0.950 . S
C1275 C1271 1.393 . S
C1275 C1274 1.391 . S
H1276 C1284 0.950 . S
H1277 C1289 0.950 . S
H1278 C1286 0.950 . S
H1279 C1288 0.950 . S
H1280 C1290 0.950 . S
H1281 C1292 0.950 . S
H1282 C1294 0.950 . S
H1283 C1295 0.950 . S
C1284 H1276 0.950 . S
C1284 C1285 1.386 . S
C1284 C1286 1.391 . S
C1285 C1284 1.386 . S
C1285 C1289 1.393 . S
C1286 H1278 0.950 . S
C1286 C1284 1.391 . S
C1286 C1287 1.400 . S
C1287 C1286 1.400 . S
C1287 C1288 1.398 . S
C1287 C1293 1.491 . S
C1288 H1279 0.950 . S
C1288 C1287 1.398 . S
C1288 C1289 1.391 . S
C1289 H1277 0.950 . S
C1289 C1285 1.393 . S
C1289 C1288 1.391 . S
C1290 H1280 0.950 . S
C1290 C1291 1.386 . S
C1290 C1292 1.391 . S
C1291 C1290 1.386 . S
C1291 C1295 1.393 . S
C1292 H1281 0.950 . S
C1292 C1290 1.391 . S
C1292 C1293 1.400 . S
C1293 C1287 1.491 . S
C1293 C1292 1.400 . S
C1293 C1294 1.398 . S
C1294 H1282 0.950 . S
C1294 C1293 1.398 . S
C1294 C1295 1.391 . S
C1295 H1283 0.950 . S
C1295 C1291 1.393 . S
C1295 C1294 1.391 . S
C345 C314 1.562 . S
C351 C7 1.577 . S
C365 C20 1.550 . S
C371 C231 1.564 . S
C385 C328 1.573 . S
C391 C35 1.576 . S
C405 C301 1.561 . S
C411 C49 1.576 . S
C425 C259 1.559 . S
C431 C63 1.550 . S
C445 C272 1.566 . S
C451 C77 1.551 . S
C465 C287 1.553 . S
C471 C90 1.553 . S
C485 C104 1.560 . S
C491 C244 1.576 . S
C505 C188 1.550 . S
C511 C118 1.561 . S
C525 C203 1.578 . S
C531 C133 1.564 . S
C545 C146 1.552 . S
C551 C216 1.555 . S
C565 C161 1.565 . S
C571 C175 1.551 . S
C585 C105 1.572 . S
C591 C202 1.555 . S
C605 C217 1.568 . S
C611 C62 1.552 . S
C625 C76 1.550 . S
C631 C174 1.558 . S
C645 C189 1.552 . S
C651 C91 1.568 . S
C665 C147 1.575 . S
C671 C21 1.575 . S
C685 C34 1.577 . S
C691 C160 1.563 . S
C705 C48 1.551 . S
C711 C119 1.565 . S
C725 C6 1.550 . S
C731 C132 1.562 . S
C745 C286 1.557 . S
C751 C300 1.551 . S
C765 C315 1.561 . S
C771 C245 1.576 . S
C785 C258 1.559 . S
C791 C230 1.550 . S
C805 C329 1.550 . S
C811 C273 1.561 . S
C825 C8 0.848 . S
C831 C120 0.857 . S
C845 C135 0.877 . S
C851 C23 0.868 . S
C865 C36 0.868 . S
C871 C148 0.877 . S
C885 C50 0.861 . S
C891 C163 0.852 . S
C905 C64 0.847 . S
C911 C177 0.854 . S
C925 C78 0.874 . S
C931 C190 0.882 . S
C945 C205 0.890 . S
C951 C93 0.892 . S
C965 C218 0.853 . S
C971 C107 0.862 . S
C985 C121 0.891 . S
C991 C233 0.886 . S
C1005 C134 0.885 . S
C1011 C330 0.877 . S
C1025 C303 0.890 . S
C1031 C149 0.892 . S
C1045 C316 0.892 . S
C1051 C162 0.892 . S
C1065 C246 0.874 . S
C1071 C176 0.865 . S
C1085 C261 0.851 . S
C1091 C191 0.844 . S
C1105 C204 0.890 . S
C1111 C274 0.885 . S
C1125 C219 0.861 . S
C1131 C289 0.871 . S
C1145 C9 0.853 . S
C1151 C232 0.845 . S
C1165 C247 0.856 . S
C1171 C65 0.866 . S
C1185 C260 0.853 . S
C1191 C79 0.862 . S
C1205 C275 0.847 . S
C1211 C92 0.855 . S
C1225 C288 0.858 . S
C1231 C106 0.849 . S
C1245 C302 0.866 . S
C1251 C37 0.857 . S
C1265 C51 0.851 . S
C1271 C317 0.844 . S
C1285 C331 0.892 . S
C1291 C22 0.891 . S
