# Generated by pormake.
# Topology svf, (7)-cn, num edge types: 1
# Building blocks:
#     Node 0, Type 0, BuildingBlock: HICVOG_clean_sbu_0, # of connection points: 7
#     Node 1, Type 0, BuildingBlock: HICVOG_clean_sbu_0, # of connection points: 7
#     Node 2, Type 0, BuildingBlock: HICVOG_clean_sbu_0, # of connection points: 7
#     Node 3, Type 0, BuildingBlock: HICVOG_clean_sbu_0, # of connection points: 7
#     Node 4, Type 0, BuildingBlock: HICVOG_clean_sbu_0, # of connection points: 7
#     Node 5, Type 0, BuildingBlock: HICVOG_clean_sbu_0, # of connection points: 7
#     Node 6, Type 0, BuildingBlock: HICVOG_clean_sbu_0, # of connection points: 7
#     Node 7, Type 0, BuildingBlock: HICVOG_clean_sbu_0, # of connection points: 7
#     Edge 8, Type (0, 0), None
#     Edge 9, Type (0, 0), None
#     Edge 10, Type (0, 0), None
#     Edge 11, Type (0, 0), None
#     Edge 12, Type (0, 0), None
#     Edge 13, Type (0, 0), None
#     Edge 14, Type (0, 0), None
#     Edge 15, Type (0, 0), None
#     Edge 16, Type (0, 0), None
#     Edge 17, Type (0, 0), None
#     Edge 18, Type (0, 0), None
#     Edge 19, Type (0, 0), None
#     Edge 20, Type (0, 0), None
#     Edge 21, Type (0, 0), None
#     Edge 22, Type (0, 0), None
#     Edge 23, Type (0, 0), None
#     Edge 24, Type (0, 0), None
#     Edge 25, Type (0, 0), None
#     Edge 26, Type (0, 0), None
#     Edge 27, Type (0, 0), None
#     Edge 28, Type (0, 0), None
#     Edge 29, Type (0, 0), None
#     Edge 30, Type (0, 0), None
#     Edge 31, Type (0, 0), None
#     Edge 32, Type (0, 0), None
#     Edge 33, Type (0, 0), None
#     Edge 34, Type (0, 0), None
#     Edge 35, Type (0, 0), None
# Relax obj value: 0.621
# Max RMSD: 0.222
# Mean RMSD: 0.222
data_MOF--net-svf--node1-HICVOG_clean_sbu_0--edge1-none
_symmetry_space_group_name_H-M    P1
_symmetry_Int_Tables_number       1
_symmetry_cell_setting            triclinic
loop_
_symmetry_equiv_pos_as_xyz
'x, y, z'
_cell_length_a     18.125715
_cell_length_b     18.126193
_cell_length_c     8.2945041
_cell_angle_alpha  90.000228
_cell_angle_beta   90.000267
_cell_angle_gamma 89.999931
loop_
_atom_site_label
_atom_site_type_symbol
_atom_site_fract_x
_atom_site_fract_y
_atom_site_fract_z
_atom_type_partial_charge
Zn0 Zn 0.10776 0.34046 1.28714 0.0
C1 C 0.19018 0.18236 0.57161 0.0
N2 N 0.16362 0.21672 0.41389 0.0
C3 C 0.19798 0.19016 1.25618 0.0
N4 N 0.15705 0.23759 1.3424 0.0
N5 N 0.14275 0.2233 0.48539 0.0
C6 C 0.11164 0.39943 0.65208 0.0
O7 O 0.17224 0.36647 0.60563 0.0
O8 O 0.02102 0.32384 1.1369 0.0
Zn9 Zn 0.03988 0.27259 0.54063 0.0
N10 N 0.18836 0.40951 1.3087 0.0
C11 C 0.24913 0.51534 1.41276 0.0
C12 C 0.18394 0.48034 1.36597 0.0
C13 C 0.25541 0.38008 1.28129 0.0
N14 N 0.31352 0.4877 1.35569 0.0
C15 C 0.31228 0.43018 1.25092 0.0
O16 O -0.04327 0.34453 0.45152 0.0
C17 C -0.0301 0.41044 0.41388 0.0
O18 O 0.03581 0.42361 1.37624 0.0
H19 H 0.13239 0.50889 1.37816 0.0
H20 H 0.25683 0.32579 1.23231 0.0
C21 C 0.00026 0.12496 0.54651 0.0
C22 C -0.04983 0.06807 0.57687 0.0
C23 C 0.86501 0.13122 0.41503 0.0
C24 C 0.9 0.19641 0.46183 0.0
N25 N -0.02917 0.19201 0.51912 0.0
N26 N 0.89265 0.06684 0.4721 0.0
H27 H 0.05456 0.12344 0.59541 0.0
C28 C -0.01908 0.2687 1.1757 0.0
O29 O 0.01387 0.2081 1.22218 0.0
O30 O 0.05649 0.35932 0.69089 0.0
H31 H 0.87143 0.24796 0.44963 0.0
H32 H 0.24899 0.56598 0.48042 0.0
H33 H 0.81437 0.13135 1.34737 0.0
Zn34 Zn 0.60776 0.03987 0.54064 0.0
C35 C 0.69017 0.19798 1.25618 0.0
N36 N 0.66362 0.16362 0.4139 0.0
C37 C 0.69798 0.19017 0.57162 0.0
N38 N 0.65704 0.14274 0.48539 0.0
N39 N 0.64275 0.15704 1.3424 0.0
C40 C 0.61164 -0.0191 1.1757 0.0
O41 O 0.67224 0.01386 1.22216 0.0
O42 O 0.52102 0.05648 0.69088 0.0
Zn43 Zn 0.53988 0.10774 1.28717 0.0
N44 N 0.68837 -0.02916 0.51909 0.0
C45 C 0.74914 0.86501 0.41503 0.0
C46 C 0.68396 0.9 0.46182 0.0
C47 C 0.75542 0.00026 0.54651 0.0
N48 N 0.81353 0.89264 0.47213 0.0
C49 C 0.81229 -0.04984 0.57691 0.0
O50 O 0.45673 0.03579 1.37627 0.0
C51 C 0.46991 -0.03012 0.4139 0.0
O52 O 0.53582 -0.04329 0.45155 0.0
H53 H 0.6324 0.87145 0.44962 0.0
H54 H 0.75683 0.05455 0.59551 0.0
C55 C 0.50025 0.25537 1.28129 0.0
C56 C 0.45016 0.31225 1.25092 0.0
C57 C 0.36499 0.2491 1.41275 0.0
C58 C 0.39999 0.18391 1.36596 0.0
N59 N 0.47082 0.18832 1.30869 0.0
N60 N 0.39263 0.31349 1.35568 0.0
H61 H 0.55455 0.25688 1.2324 0.0
C62 C 0.48091 0.11163 0.65209 0.0
O63 O 0.51387 0.17223 0.60562 0.0
O64 O 0.55649 0.02101 1.13689 0.0
H65 H 0.37143 0.13236 1.37817 0.0
H66 H 0.74901 0.81437 1.34737 0.0
H67 H 0.31436 0.24897 0.48042 0.0
Zn68 Zn 0.77259 0.53987 1.28715 0.0
C69 C 0.69017 0.69798 0.57161 0.0
N70 N 0.71673 0.66361 0.41389 0.0
C71 C 0.68237 0.69017 1.25618 0.0
N72 N 0.7233 0.64274 1.3424 0.0
N73 N 0.7376 0.65703 0.48539 0.0
C74 C 0.76871 0.4809 0.65209 0.0
O75 O 0.70811 0.51386 0.60564 0.0
O76 O 0.85933 0.55648 1.1369 0.0
Zn77 Zn 0.84047 0.60774 0.54062 0.0
N78 N 0.69199 0.47083 1.30872 0.0
C79 C 0.63122 0.36499 1.41275 0.0
C80 C 0.6964 0.4 1.36598 0.0
C81 C 0.62494 0.50025 1.28129 0.0
N82 N 0.56683 0.39262 1.35564 0.0
C83 C 0.56807 0.45014 1.25088 0.0
O84 O 0.92363 0.5358 0.45152 0.0
C85 C 0.91045 0.46989 0.41388 0.0
O86 O 0.84454 0.45672 1.37624 0.0
H87 H 0.74796 0.37144 1.37818 0.0
H88 H 0.62353 0.55454 1.2323 0.0
C89 C 0.88009 0.75537 0.54652 0.0
C90 C 0.93018 0.81225 0.5769 0.0
C91 C 0.01534 0.74911 0.41504 0.0
C92 C -0.01965 0.68393 0.46182 0.0
N93 N 0.90952 0.68832 0.5191 0.0
N94 N -0.01229 0.8135 0.47214 0.0
H95 H 0.82579 0.75689 0.59542 0.0
C96 C 0.89944 0.61163 1.1757 0.0
O97 O 0.86648 0.67223 1.22217 0.0
O98 O 0.82386 0.52101 0.69089 0.0
H99 H 0.00892 0.63237 0.44961 0.0
H100 H 0.63135 0.31436 0.48042 0.0
H101 H 0.06598 0.74899 1.34737 0.0
Zn102 Zn 0.34047 0.77258 1.28716 0.0
C103 C 0.18236 0.69017 0.57162 0.0
N104 N 0.21673 0.71672 0.4139 0.0
C105 C 0.19017 0.68236 1.25618 0.0
N106 N 0.2376 0.7233 1.34241 0.0
N107 N 0.2233 0.7376 0.48539 0.0
C108 C 0.39944 0.7687 0.65209 0.0
O109 O 0.36648 0.7081 0.60564 0.0
O110 O 0.32386 0.85932 1.13691 0.0
Zn111 Zn 0.2726 0.84046 0.54063 0.0
N112 N 0.40951 0.69198 1.30872 0.0
C113 C 0.51535 0.63121 1.41276 0.0
C114 C 0.48034 0.69639 1.36599 0.0
C115 C 0.38009 0.62493 1.28128 0.0
N116 N 0.48771 0.56682 1.35565 0.0
C117 C 0.4302 0.56806 1.25088 0.0
O118 O 0.34455 0.92361 0.45153 0.0
C119 C 0.41046 0.91043 0.4139 0.0
O120 O 0.42363 0.84452 1.37625 0.0
H121 H 0.5089 0.74794 1.37818 0.0
H122 H 0.3258 0.62351 1.23228 0.0
C123 C 0.12497 0.88008 0.5465 0.0
C124 C 0.06808 0.93017 0.57687 0.0
C125 C 0.13124 0.01534 0.41504 0.0
C126 C 0.19642 -0.01965 0.46184 0.0
N127 N 0.19202 0.90952 0.51912 0.0
N128 N 0.06685 -0.0123 0.47211 0.0
H129 H 0.12345 0.82578 0.59539 0.0
C130 C 0.26871 0.89943 1.1757 0.0
O131 O 0.20811 0.86647 1.22218 0.0
O132 O 0.35933 0.82385 0.6909 0.0
H133 H 0.24798 0.00891 0.44963 0.0
H134 H 0.56598 0.63134 0.48042 0.0
H135 H 0.13136 0.06597 1.34737 0.0
Zn136 Zn 0.10785 0.53973 1.04045 0.0
C137 C 0.18987 0.69825 0.75629 0.0
N138 N 0.1636 0.6636 0.9139 0.0
C139 C 0.19826 0.68987 1.07151 0.0
N140 N 0.15726 0.64252 0.98519 0.0
N141 N 0.14252 0.65726 0.84261 0.0
C142 C 0.11163 0.4811 0.67558 0.0
O143 O 0.17221 0.51406 0.72221 0.0
O144 O 0.0212 0.55645 1.19092 0.0
Zn145 Zn 0.03973 0.60783 0.78736 0.0
N146 N 0.18835 0.47061 1.0189 0.0
C147 C 0.24904 0.36471 0.91485 0.0
C148 C 0.18389 0.39978 0.96163 0.0
C149 C 0.25541 0.50001 1.04637 0.0
N150 N 0.31347 0.39227 0.97187 0.0
C151 C 0.31228 0.44988 1.07635 0.0
O152 O -0.0433 0.53581 0.8765 0.0
C153 C -0.0301 0.46988 0.9139 0.0
O154 O 0.03584 0.45668 0.95131 0.0
H155 H 0.13231 0.37127 0.94945 0.0
H156 H 0.25686 0.55427 1.09551 0.0
C157 C -0.0 0.75536 0.78144 0.0
C158 C -0.05012 0.81225 0.75148 0.0
C159 C 0.8647 0.749 0.91293 0.0
C160 C 0.89977 0.68385 0.86615 0.0
N161 N -0.0294 0.68831 0.80887 0.0
N162 N 0.89226 0.81343 0.85594 0.0
H163 H 0.05427 0.75691 0.73241 0.0
C164 C -0.01889 0.61163 1.1522 0.0
O165 O 0.01407 0.6722 1.10556 0.0
O166 O 0.05646 0.52119 0.63686 0.0
H167 H 0.87125 0.63227 0.87833 0.0
H168 H 0.24885 0.31406 0.84723 0.0
H169 H 0.81405 0.74881 0.98056 0.0
Zn170 Zn 0.2725 0.03972 0.78735 0.0
C171 C 0.19048 0.19825 1.0715 0.0
N172 N 0.21675 0.16359 0.91389 0.0
C173 C 0.18209 0.18987 0.75629 0.0
N174 N 0.22308 0.14252 0.8426 0.0
N175 N 0.23783 0.15726 0.98519 0.0
C176 C 0.26872 -0.0189 1.1522 0.0
O177 O 0.20815 0.01406 1.10559 0.0
O178 O 0.35915 0.05645 0.63687 0.0
Zn179 Zn 0.34062 0.10783 1.04043 0.0
N180 N 0.192 -0.0294 0.80891 0.0
C181 C 0.13132 0.8647 0.91293 0.0
C182 C 0.19647 0.89978 0.86617 0.0
C183 C 0.12495 -0.0 0.78144 0.0
N184 N 0.06689 0.89225 0.85591 0.0
C185 C 0.06808 -0.05013 0.75144 0.0
O186 O 0.42366 0.03582 0.95128 0.0
C187 C 0.41045 -0.03011 0.91388 0.0
O188 O 0.34452 -0.04332 0.87648 0.0
H189 H 0.24805 0.87126 0.87835 0.0
H190 H 0.1235 0.05425 0.73231 0.0
C191 C 0.38034 0.25536 1.04637 0.0
C192 C 0.43046 0.31225 1.07634 0.0
C193 C 0.51564 0.24902 0.91486 0.0
C194 C 0.48057 0.18386 0.96163 0.0
N195 N 0.40975 0.18831 1.01892 0.0
N196 N 0.48808 0.31344 0.97188 0.0
H197 H 0.32607 0.25691 1.09541 0.0
C198 C 0.39924 0.11162 0.67558 0.0
O199 O 0.36628 0.17219 0.72223 0.0
O200 O 0.3239 0.02119 1.19092 0.0
H201 H 0.50909 0.13228 0.94944 0.0
H202 H 0.13151 0.81405 0.98056 0.0
H203 H 0.56629 0.24883 0.84723 0.0
Zn204 Zn 0.84062 0.27249 0.78735 0.0
C205 C 0.68209 0.19047 1.07151 0.0
N206 N 0.71674 0.21674 0.9139 0.0
C207 C 0.69047 0.18209 0.75629 0.0
N208 N 0.73782 0.22308 0.84261 0.0
N209 N 0.72308 0.23782 0.98519 0.0
C210 C 0.89924 0.26871 1.15221 0.0
O211 O 0.86628 0.20813 1.10559 0.0
O212 O 0.82389 0.35914 0.63687 0.0
Zn213 Zn 0.77251 0.34061 1.04044 0.0
N214 N 0.90973 0.19199 0.8089 0.0
C215 C 0.01564 0.1313 0.91294 0.0
C216 C -0.01944 0.19645 0.86617 0.0
C217 C 0.88034 0.12494 0.78143 0.0
N218 N -0.01191 0.06688 0.85591 0.0
C219 C 0.93047 0.06807 0.75144 0.0
O220 O 0.84453 0.42364 0.9513 0.0
C221 C 0.91046 0.41044 0.9139 0.0
O222 O 0.92367 0.34451 0.87648 0.0
H223 H 0.00908 0.24804 0.87834 0.0
H224 H 0.82608 0.12349 0.73229 0.0
C225 C 0.62498 0.38034 1.04635 0.0
C226 C 0.56809 0.43045 1.07631 0.0
C227 C 0.63133 0.51563 0.91485 0.0
C228 C 0.69649 0.48057 0.96165 0.0
N229 N 0.69203 0.40974 1.01894 0.0
N230 N 0.5669 0.48807 0.97185 0.0
H231 H 0.62343 0.32606 1.09539 0.0
C232 C 0.76872 0.39923 0.67559 0.0
O233 O 0.70814 0.36628 0.72224 0.0
O234 O 0.85915 0.32388 1.19093 0.0
H235 H 0.74807 0.50908 0.94946 0.0
H236 H 0.06629 0.1315 0.98056 0.0
H237 H 0.63153 0.56628 0.84723 0.0
Zn238 Zn 0.60785 0.84061 0.78734 0.0
C239 C 0.68987 0.68208 1.0715 0.0
N240 N 0.6636 0.71674 0.91389 0.0
C241 C 0.69826 0.69046 0.75629 0.0
N242 N 0.65727 0.73782 0.8426 0.0
N243 N 0.64252 0.72308 0.98519 0.0
C244 C 0.61163 0.89923 1.1522 0.0
O245 O 0.67221 0.86628 1.10558 0.0
O246 O 0.5212 0.82388 0.63686 0.0
Zn247 Zn 0.53974 0.7725 1.04044 0.0
N248 N 0.68835 0.90973 0.80889 0.0
C249 C 0.74903 0.01563 0.91294 0.0
C250 C 0.68388 -0.01944 0.86616 0.0
C251 C 0.7554 0.88033 0.78144 0.0
N252 N 0.81346 -0.01193 0.85595 0.0
C253 C 0.81228 0.93046 0.75148 0.0
O254 O 0.45669 0.84452 0.95129 0.0
C255 C 0.4699 0.91044 0.91388 0.0
O256 O 0.53583 0.92365 0.87647 0.0
H257 H 0.63229 0.00907 0.87832 0.0
H258 H 0.75685 0.82608 0.73231 0.0
C259 C 0.50001 0.62497 1.04636 0.0
C260 C 0.4499 0.56808 1.07631 0.0
C261 C 0.36471 0.63132 0.91485 0.0
C262 C 0.39978 0.69647 0.96165 0.0
N263 N 0.4706 0.69202 1.01894 0.0
N264 N 0.39228 0.56689 0.97184 0.0
H265 H 0.55428 0.62342 1.09541 0.0
C266 C 0.48111 0.7687 0.67559 0.0
O267 O 0.51407 0.70813 0.72224 0.0
O268 O 0.55646 0.85914 1.19093 0.0
H269 H 0.37126 0.74805 0.94946 0.0
H270 H 0.74883 0.06628 0.98056 0.0
H271 H 0.31406 0.63151 0.84723 0.0
loop_
_geom_bond_atom_site_label_1
_geom_bond_atom_site_label_2
_geom_bond_distance
_geom_bond_site_symmetry_2
_ccdc_geom_bond_type
Zn0 N4 2.020 . S
Zn0 O8 2.019 . S
Zn0 N10 2.119 . S
Zn0 O18 1.975 . S
C1 N2 1.334 . S
C1 N5 1.336 . S
N2 C1 1.334 . S
N2 C3 1.334 1_554 S
C3 N2 1.334 1_556 S
C3 N4 1.336 . S
N4 Zn0 2.020 . S
N4 C3 1.336 . S
N4 N5 1.354 1_556 S
N5 C1 1.336 . S
N5 N4 1.354 1_554 S
N5 Zn9 2.020 . S
C6 O7 1.244 . S
C6 O30 1.257 . S
O7 C6 1.244 . S
O8 Zn0 2.019 . S
O8 C28 1.257 . S
Zn9 N5 2.020 . S
Zn9 O16 1.975 . S
Zn9 N25 2.119 . S
Zn9 O30 2.019 . S
N10 Zn0 2.119 . S
N10 C12 1.334 . S
N10 C13 1.328 . S
C11 C12 1.391 . S
C11 N14 1.329 . S
C11 H32 0.930 . S
C12 N10 1.334 . S
C12 C11 1.391 . S
C12 H19 0.930 . S
C13 N10 1.328 . S
C13 C15 1.392 . S
C13 H20 0.930 . S
N14 C11 1.329 . S
N14 C15 1.331 . S
C15 C13 1.392 . S
C15 N14 1.331 . S
O16 Zn9 1.975 . S
O16 C17 1.252 . S
C17 O16 1.252 . S
C17 O18 1.252 1_554 S
O18 Zn0 1.975 . S
O18 C17 1.252 1_556 S
H19 C12 0.930 . S
H20 C13 0.930 . S
C21 C22 1.392 1_455 S
C21 N25 1.328 . S
C21 H27 0.930 . S
C22 C21 1.392 1_655 S
C22 N26 1.331 . S
C23 C24 1.391 1_655 S
C23 N26 1.329 . S
C23 H33 0.930 . S
C24 C23 1.391 1_455 S
C24 N25 1.334 . S
C24 H31 0.930 . S
N25 Zn9 2.119 . S
N25 C21 1.328 . S
N25 C24 1.334 . S
N26 C22 1.331 . S
N26 C23 1.329 . S
H27 C21 0.930 . S
C28 O8 1.257 . S
C28 O29 1.244 . S
O29 C28 1.244 . S
O30 C6 1.257 . S
O30 Zn9 2.019 . S
H31 C24 0.930 . S
H32 C11 0.930 . S
H33 C23 0.930 . S
Zn34 N38 2.020 . S
Zn34 O42 2.019 . S
Zn34 N44 2.119 . S
Zn34 O52 1.975 . S
C35 N36 1.334 1_556 S
C35 N39 1.336 . S
N36 C35 1.334 1_554 S
N36 C37 1.334 . S
C37 N36 1.334 . S
C37 N38 1.336 . S
N38 Zn34 2.020 . S
N38 C37 1.336 . S
N38 N39 1.354 1_554 S
N39 C35 1.336 . S
N39 N38 1.354 1_556 S
N39 Zn43 2.020 . S
C40 O41 1.244 . S
C40 O64 1.257 . S
O41 C40 1.244 . S
O42 Zn34 2.019 . S
O42 C62 1.257 . S
Zn43 N39 2.020 . S
Zn43 O50 1.975 . S
Zn43 N59 2.119 . S
Zn43 O64 2.019 . S
N44 Zn34 2.119 . S
N44 C46 1.334 . S
N44 C47 1.328 . S
C45 C46 1.391 1_565 S
C45 N48 1.329 . S
C45 H66 0.930 . S
C46 N44 1.334 . S
C46 C45 1.391 1_545 S
C46 H53 0.930 . S
C47 N44 1.328 . S
C47 C49 1.392 1_545 S
C47 H54 0.930 . S
N48 C45 1.329 . S
N48 C49 1.331 . S
C49 C47 1.392 1_565 S
C49 N48 1.331 . S
O50 Zn43 1.975 . S
O50 C51 1.252 1_556 S
C51 O50 1.252 1_554 S
C51 O52 1.252 . S
O52 Zn34 1.975 . S
O52 C51 1.252 . S
H53 C46 0.930 . S
H54 C47 0.930 . S
C55 C56 1.392 . S
C55 N59 1.328 . S
C55 H61 0.930 . S
C56 C55 1.392 . S
C56 N60 1.331 . S
C57 C58 1.391 . S
C57 N60 1.329 . S
C57 H67 0.930 . S
C58 C57 1.391 . S
C58 N59 1.334 . S
C58 H65 0.930 . S
N59 Zn43 2.119 . S
N59 C55 1.328 . S
N59 C58 1.334 . S
N60 C56 1.331 . S
N60 C57 1.329 . S
H61 C55 0.930 . S
C62 O42 1.257 . S
C62 O63 1.244 . S
O63 C62 1.244 . S
O64 C40 1.257 . S
O64 Zn43 2.019 . S
H65 C58 0.930 . S
H66 C45 0.930 . S
H67 C57 0.930 . S
Zn68 N72 2.020 . S
Zn68 O76 2.019 . S
Zn68 N78 2.119 . S
Zn68 O86 1.975 . S
C69 N70 1.334 . S
C69 N73 1.336 . S
N70 C69 1.334 . S
N70 C71 1.334 1_554 S
C71 N70 1.334 1_556 S
C71 N72 1.336 . S
N72 Zn68 2.020 . S
N72 C71 1.336 . S
N72 N73 1.354 1_556 S
N73 C69 1.336 . S
N73 N72 1.354 1_554 S
N73 Zn77 2.020 . S
C74 O75 1.244 . S
C74 O98 1.257 . S
O75 C74 1.244 . S
O76 Zn68 2.019 . S
O76 C96 1.257 . S
Zn77 N73 2.020 . S
Zn77 O84 1.975 . S
Zn77 N93 2.119 . S
Zn77 O98 2.019 . S
N78 Zn68 2.119 . S
N78 C80 1.334 . S
N78 C81 1.328 . S
C79 C80 1.391 . S
C79 N82 1.329 . S
C79 H100 0.930 . S
C80 N78 1.334 . S
C80 C79 1.391 . S
C80 H87 0.930 . S
C81 N78 1.328 . S
C81 C83 1.392 . S
C81 H88 0.930 . S
N82 C79 1.329 . S
N82 C83 1.331 . S
C83 C81 1.392 . S
C83 N82 1.331 . S
O84 Zn77 1.975 . S
O84 C85 1.252 . S
C85 O84 1.252 . S
C85 O86 1.252 1_554 S
O86 Zn68 1.975 . S
O86 C85 1.252 1_556 S
H87 C80 0.930 . S
H88 C81 0.930 . S
C89 C90 1.392 1_655 S
C89 N93 1.328 . S
C89 H95 0.930 . S
C90 C89 1.392 1_455 S
C90 N94 1.331 . S
C91 C92 1.391 1_455 S
C91 N94 1.329 . S
C91 H101 0.930 . S
C92 C91 1.391 1_655 S
C92 N93 1.334 . S
C92 H99 0.930 . S
N93 Zn77 2.119 . S
N93 C89 1.328 . S
N93 C92 1.334 . S
N94 C90 1.331 . S
N94 C91 1.329 . S
H95 C89 0.930 . S
C96 O76 1.257 . S
C96 O97 1.244 . S
O97 C96 1.244 . S
O98 C74 1.257 . S
O98 Zn77 2.019 . S
H99 C92 0.930 . S
H100 C79 0.930 . S
H101 C91 0.930 . S
Zn102 N106 2.020 . S
Zn102 O110 2.019 . S
Zn102 N112 2.119 . S
Zn102 O120 1.975 . S
C103 N104 1.334 . S
C103 N107 1.336 . S
N104 C103 1.334 . S
N104 C105 1.334 1_554 S
C105 N104 1.334 1_556 S
C105 N106 1.336 . S
N106 Zn102 2.020 . S
N106 C105 1.336 . S
N106 N107 1.354 1_556 S
N107 C103 1.336 . S
N107 N106 1.354 1_554 S
N107 Zn111 2.020 . S
C108 O109 1.244 . S
C108 O132 1.257 . S
O109 C108 1.244 . S
O110 Zn102 2.019 . S
O110 C130 1.257 . S
Zn111 N107 2.020 . S
Zn111 O118 1.975 . S
Zn111 N127 2.119 . S
Zn111 O132 2.019 . S
N112 Zn102 2.119 . S
N112 C114 1.334 . S
N112 C115 1.328 . S
C113 C114 1.391 . S
C113 N116 1.329 . S
C113 H134 0.930 . S
C114 N112 1.334 . S
C114 C113 1.391 . S
C114 H121 0.930 . S
C115 N112 1.328 . S
C115 C117 1.392 . S
C115 H122 0.930 . S
N116 C113 1.329 . S
N116 C117 1.331 . S
C117 C115 1.392 . S
C117 N116 1.331 . S
O118 Zn111 1.975 . S
O118 C119 1.252 . S
C119 O118 1.252 . S
C119 O120 1.252 1_554 S
O120 Zn102 1.975 . S
O120 C119 1.252 1_556 S
H121 C114 0.930 . S
H122 C115 0.930 . S
C123 C124 1.392 1_565 S
C123 N127 1.328 . S
C123 H129 0.930 . S
C124 C123 1.392 1_545 S
C124 N128 1.331 . S
C125 C126 1.391 1_545 S
C125 N128 1.329 . S
C125 H135 0.930 . S
C126 C125 1.391 1_565 S
C126 N127 1.334 . S
C126 H133 0.930 . S
N127 Zn111 2.119 . S
N127 C123 1.328 . S
N127 C126 1.334 . S
N128 C124 1.331 . S
N128 C125 1.329 . S
H129 C123 0.930 . S
C130 O110 1.257 . S
C130 O131 1.244 . S
O131 C130 1.244 . S
O132 C108 1.257 . S
O132 Zn111 2.019 . S
H133 C126 0.930 . S
H134 C113 0.930 . S
H135 C125 0.930 . S
Zn136 N140 2.020 . S
Zn136 O144 2.019 . S
Zn136 N146 2.119 . S
Zn136 O154 1.975 . S
C137 N138 1.334 . S
C137 N141 1.336 . S
N138 C137 1.334 . S
N138 C139 1.334 . S
C139 N138 1.334 . S
C139 N140 1.336 . S
N140 Zn136 2.020 . S
N140 C139 1.336 . S
N140 N141 1.354 . S
N141 C137 1.336 . S
N141 N140 1.354 . S
N141 Zn145 2.020 . S
C142 O143 1.244 . S
C142 O166 1.257 . S
O143 C142 1.244 . S
O144 Zn136 2.019 . S
O144 C164 1.257 . S
Zn145 N141 2.020 . S
Zn145 O152 1.975 . S
Zn145 N161 2.119 . S
Zn145 O166 2.019 . S
N146 Zn136 2.119 . S
N146 C148 1.334 . S
N146 C149 1.328 . S
C147 C148 1.391 . S
C147 N150 1.329 . S
C147 H168 0.930 . S
C148 N146 1.334 . S
C148 C147 1.391 . S
C148 H155 0.930 . S
C149 N146 1.328 . S
C149 C151 1.392 . S
C149 H156 0.930 . S
N150 C147 1.329 . S
N150 C151 1.331 . S
C151 C149 1.392 . S
C151 N150 1.331 . S
O152 Zn145 1.975 . S
O152 C153 1.252 . S
C153 O152 1.252 . S
C153 O154 1.252 . S
O154 Zn136 1.975 . S
O154 C153 1.252 . S
H155 C148 0.930 . S
H156 C149 0.930 . S
C157 C158 1.392 1_455 S
C157 N161 1.328 . S
C157 H163 0.930 . S
C158 C157 1.392 1_655 S
C158 N162 1.331 . S
C159 C160 1.391 1_655 S
C159 N162 1.329 . S
C159 H169 0.930 . S
C160 C159 1.391 1_455 S
C160 N161 1.334 . S
C160 H167 0.930 . S
N161 Zn145 2.119 . S
N161 C157 1.328 . S
N161 C160 1.334 . S
N162 C158 1.331 . S
N162 C159 1.329 . S
H163 C157 0.930 . S
C164 O144 1.257 . S
C164 O165 1.244 . S
O165 C164 1.244 . S
O166 C142 1.257 . S
O166 Zn145 2.019 . S
H167 C160 0.930 . S
H168 C147 0.930 . S
H169 C159 0.930 . S
Zn170 N174 2.020 . S
Zn170 O178 2.019 . S
Zn170 N180 2.119 . S
Zn170 O188 1.975 . S
C171 N172 1.334 . S
C171 N175 1.336 . S
N172 C171 1.334 . S
N172 C173 1.334 . S
C173 N172 1.334 . S
C173 N174 1.336 . S
N174 Zn170 2.020 . S
N174 C173 1.336 . S
N174 N175 1.354 . S
N175 C171 1.336 . S
N175 N174 1.354 . S
N175 Zn179 2.020 . S
C176 O177 1.244 . S
C176 O200 1.257 . S
O177 C176 1.244 . S
O178 Zn170 2.019 . S
O178 C198 1.257 . S
Zn179 N175 2.020 . S
Zn179 O186 1.975 . S
Zn179 N195 2.119 . S
Zn179 O200 2.019 . S
N180 Zn170 2.119 . S
N180 C182 1.334 . S
N180 C183 1.328 . S
C181 C182 1.391 1_565 S
C181 N184 1.329 . S
C181 H202 0.930 . S
C182 N180 1.334 . S
C182 C181 1.391 1_545 S
C182 H189 0.930 . S
C183 N180 1.328 . S
C183 C185 1.392 1_545 S
C183 H190 0.930 . S
N184 C181 1.329 . S
N184 C185 1.331 . S
C185 C183 1.392 1_565 S
C185 N184 1.331 . S
O186 Zn179 1.975 . S
O186 C187 1.252 . S
C187 O186 1.252 . S
C187 O188 1.252 . S
O188 Zn170 1.975 . S
O188 C187 1.252 . S
H189 C182 0.930 . S
H190 C183 0.930 . S
C191 C192 1.392 . S
C191 N195 1.328 . S
C191 H197 0.930 . S
C192 C191 1.392 . S
C192 N196 1.331 . S
C193 C194 1.391 . S
C193 N196 1.329 . S
C193 H203 0.930 . S
C194 C193 1.391 . S
C194 N195 1.334 . S
C194 H201 0.930 . S
N195 Zn179 2.119 . S
N195 C191 1.328 . S
N195 C194 1.334 . S
N196 C192 1.331 . S
N196 C193 1.329 . S
H197 C191 0.930 . S
C198 O178 1.257 . S
C198 O199 1.244 . S
O199 C198 1.244 . S
O200 C176 1.257 . S
O200 Zn179 2.019 . S
H201 C194 0.930 . S
H202 C181 0.930 . S
H203 C193 0.930 . S
Zn204 N208 2.020 . S
Zn204 O212 2.019 . S
Zn204 N214 2.119 . S
Zn204 O222 1.975 . S
C205 N206 1.334 . S
C205 N209 1.336 . S
N206 C205 1.334 . S
N206 C207 1.334 . S
C207 N206 1.334 . S
C207 N208 1.336 . S
N208 Zn204 2.020 . S
N208 C207 1.336 . S
N208 N209 1.354 . S
N209 C205 1.336 . S
N209 N208 1.354 . S
N209 Zn213 2.020 . S
C210 O211 1.244 . S
C210 O234 1.257 . S
O211 C210 1.244 . S
O212 Zn204 2.019 . S
O212 C232 1.257 . S
Zn213 N209 2.020 . S
Zn213 O220 1.975 . S
Zn213 N229 2.119 . S
Zn213 O234 2.019 . S
N214 Zn204 2.119 . S
N214 C216 1.334 . S
N214 C217 1.328 . S
C215 C216 1.391 1_455 S
C215 N218 1.329 . S
C215 H236 0.930 . S
C216 N214 1.334 . S
C216 C215 1.391 1_655 S
C216 H223 0.930 . S
C217 N214 1.328 . S
C217 C219 1.392 1_655 S
C217 H224 0.930 . S
N218 C215 1.329 . S
N218 C219 1.331 . S
C219 C217 1.392 1_455 S
C219 N218 1.331 . S
O220 Zn213 1.975 . S
O220 C221 1.252 . S
C221 O220 1.252 . S
C221 O222 1.252 . S
O222 Zn204 1.975 . S
O222 C221 1.252 . S
H223 C216 0.930 . S
H224 C217 0.930 . S
C225 C226 1.392 . S
C225 N229 1.328 . S
C225 H231 0.930 . S
C226 C225 1.392 . S
C226 N230 1.331 . S
C227 C228 1.391 . S
C227 N230 1.329 . S
C227 H237 0.930 . S
C228 C227 1.391 . S
C228 N229 1.334 . S
C228 H235 0.930 . S
N229 Zn213 2.119 . S
N229 C225 1.328 . S
N229 C228 1.334 . S
N230 C226 1.331 . S
N230 C227 1.329 . S
H231 C225 0.930 . S
C232 O212 1.257 . S
C232 O233 1.244 . S
O233 C232 1.244 . S
O234 C210 1.257 . S
O234 Zn213 2.019 . S
H235 C228 0.930 . S
H236 C215 0.930 . S
H237 C227 0.930 . S
Zn238 N242 2.020 . S
Zn238 O246 2.019 . S
Zn238 N248 2.119 . S
Zn238 O256 1.975 . S
C239 N240 1.334 . S
C239 N243 1.336 . S
N240 C239 1.334 . S
N240 C241 1.334 . S
C241 N240 1.334 . S
C241 N242 1.336 . S
N242 Zn238 2.020 . S
N242 C241 1.336 . S
N242 N243 1.354 . S
N243 C239 1.336 . S
N243 N242 1.354 . S
N243 Zn247 2.020 . S
C244 O245 1.244 . S
C244 O268 1.257 . S
O245 C244 1.244 . S
O246 Zn238 2.019 . S
O246 C266 1.257 . S
Zn247 N243 2.020 . S
Zn247 O254 1.975 . S
Zn247 N263 2.119 . S
Zn247 O268 2.019 . S
N248 Zn238 2.119 . S
N248 C250 1.334 . S
N248 C251 1.328 . S
C249 C250 1.391 1_545 S
C249 N252 1.329 . S
C249 H270 0.930 . S
C250 N248 1.334 . S
C250 C249 1.391 1_565 S
C250 H257 0.930 . S
C251 N248 1.328 . S
C251 C253 1.392 1_565 S
C251 H258 0.930 . S
N252 C249 1.329 . S
N252 C253 1.331 . S
C253 C251 1.392 1_545 S
C253 N252 1.331 . S
O254 Zn247 1.975 . S
O254 C255 1.252 . S
C255 O254 1.252 . S
C255 O256 1.252 . S
O256 Zn238 1.975 . S
O256 C255 1.252 . S
H257 C250 0.930 . S
H258 C251 0.930 . S
C259 C260 1.392 . S
C259 N263 1.328 . S
C259 H265 0.930 . S
C260 C259 1.392 . S
C260 N264 1.331 . S
C261 C262 1.391 . S
C261 N264 1.329 . S
C261 H271 0.930 . S
C262 C261 1.391 . S
C262 N263 1.334 . S
C262 H269 0.930 . S
N263 Zn247 2.119 . S
N263 C259 1.328 . S
N263 C262 1.334 . S
N264 C260 1.331 . S
N264 C261 1.329 . S
H265 C259 0.930 . S
C266 O246 1.257 . S
C266 O267 1.244 . S
O267 C266 1.244 . S
O268 C244 1.257 . S
O268 Zn247 2.019 . S
H269 C262 0.930 . S
H270 C249 0.930 . S
H271 C261 0.930 . S
C17 C85 2.783 1_455 S
C119 C51 2.783 1_565 S
C153 C221 2.783 1_455 S
C255 C187 2.783 1_565 S
C142 C6 1.670 . S
C198 C62 1.670 . S
C232 C74 1.670 . S
C266 C108 1.670 . S
C226 C83 1.111 . S
C260 C117 1.111 . S
C15 C151 1.111 . S
C192 C56 1.111 . S
C244 C40 1.670 1_565 S
C164 C96 1.670 1_455 S
C176 C130 1.670 1_545 S
C210 C28 1.670 1_655 S
C124 C185 1.111 1_545 S
C22 C219 1.111 1_655 S
C49 C253 1.111 1_565 S
C158 C90 1.111 1_655 S
C173 C1 5.751 . S
C37 C207 5.751 . S
C241 C69 5.751 . S
C103 C137 5.752 . S
C239 C71 5.752 . S
C139 C105 5.751 . S
C3 C171 5.752 . S
C205 C35 5.752 . S
