# Generated by pormake.
# Topology sxa, (6)-cn, num edge types: 1
# Building blocks:
#     Node 0, Type 0, BuildingBlock: JUFBIX_clean_sbu_0, # of connection points: 6
#     Node 1, Type 0, BuildingBlock: JUFBIX_clean_sbu_0, # of connection points: 6
#     Node 2, Type 0, BuildingBlock: JUFBIX_clean_sbu_0, # of connection points: 6
#     Node 3, Type 0, BuildingBlock: JUFBIX_clean_sbu_0, # of connection points: 6
#     Edge 4, Type (0, 0), BuildingBlock: UVAHIK_clean_linker_0, # of connection points: 2
#     Edge 5, Type (0, 0), BuildingBlock: UVAHIK_clean_linker_0, # of connection points: 2
#     Edge 6, Type (0, 0), BuildingBlock: UVAHIK_clean_linker_0, # of connection points: 2
#     Edge 7, Type (0, 0), BuildingBlock: UVAHIK_clean_linker_0, # of connection points: 2
#     Edge 8, Type (0, 0), BuildingBlock: UVAHIK_clean_linker_0, # of connection points: 2
#     Edge 9, Type (0, 0), BuildingBlock: UVAHIK_clean_linker_0, # of connection points: 2
#     Edge 10, Type (0, 0), BuildingBlock: UVAHIK_clean_linker_0, # of connection points: 2
#     Edge 11, Type (0, 0), BuildingBlock: UVAHIK_clean_linker_0, # of connection points: 2
#     Edge 12, Type (0, 0), BuildingBlock: UVAHIK_clean_linker_0, # of connection points: 2
#     Edge 13, Type (0, 0), BuildingBlock: UVAHIK_clean_linker_0, # of connection points: 2
#     Edge 14, Type (0, 0), BuildingBlock: UVAHIK_clean_linker_0, # of connection points: 2
#     Edge 15, Type (0, 0), BuildingBlock: UVAHIK_clean_linker_0, # of connection points: 2
# Relax obj value: 0.357
# Max RMSD: 0.284
# Mean RMSD: 0.284
data_MOF--net-sxa--node1-JUFBIX_clean_sbu_0--edge1-UVAHIK_clean_linker_0
_symmetry_space_group_name_H-M    P1
_symmetry_Int_Tables_number       1
_symmetry_cell_setting            triclinic
loop_
_symmetry_equiv_pos_as_xyz
'x, y, z'
_cell_length_a     34.836134
_cell_length_b     34.979648
_cell_length_c     20.679559
_cell_angle_alpha  89.401511
_cell_angle_beta   76.856492
_cell_angle_gamma 86.070731
loop_
_atom_site_label
_atom_site_type_symbol
_atom_site_fract_x
_atom_site_fract_y
_atom_site_fract_z
_atom_type_partial_charge
Co0 Co 0.0079 0.80831 0.16917 0.0
C1 C 0.03262 0.8773 0.20414 0.0
Co2 Co 0.03024 0.80429 0.26123 0.0
C3 C -0.00368 0.78566 0.04283 0.0
C4 C 0.9761 0.84424 0.06529 0.0
N5 N 0.9919 0.81275 0.09034 0.0
N6 N 0.98407 0.79897 0.98907 0.0
C7 C 0.97127 0.83583 1.00299 0.0
H8 H 0.00781 0.7565 0.04781 0.0
H9 H 0.96818 0.87144 0.09091 0.0
C10 C 0.00523 0.73517 0.21872 0.0
N11 N 0.04887 0.79949 0.34009 0.0
C12 C 0.08386 0.80851 0.3526 0.0
C13 C 0.03028 0.78254 0.39617 0.0
N14 N 0.08781 0.79778 0.41431 0.0
C15 C 0.05384 0.78147 0.44145 0.0
C16 C 0.9491 0.82306 0.28294 0.0
O17 O 0.9955 0.75745 0.17575 0.0
O18 O 0.02132 0.74885 0.26257 0.0
O19 O 0.97797 0.81572 0.31034 0.0
O20 O 0.95545 0.82309 0.21966 0.0
O21 O 0.0392 0.85966 0.25554 0.0
H22 H 0.00178 0.77065 0.4031 0.0
H23 H 0.10616 0.82224 0.31657 0.0
O24 O 0.02011 0.85921 0.16159 0.0
O25 O 0.06013 0.79238 0.1202 0.0
O26 O 0.08089 0.79224 0.21278 0.0
C27 C 0.08757 0.78609 0.15098 0.0
H28 H 0.95729 0.85466 0.97194 0.0
H29 H 0.04673 0.76837 0.48993 0.0
Co30 Co 0.50577 0.30609 0.16952 0.0
C31 C 0.51848 0.38085 0.19413 0.0
Co32 Co 0.52927 0.31094 0.26056 0.0
C33 C 0.46539 0.27182 0.08347 0.0
C34 C 0.50323 0.31301 1.03099 0.0
N35 N 0.48858 0.29958 0.09248 0.0
N36 N 0.46626 0.26606 1.01897 0.0
C37 C 0.48928 0.29248 0.98547 0.0
H38 H 0.44983 0.25454 0.1234 0.0
H39 H 0.52496 0.3342 1.01955 0.0
C40 C 0.51595 0.23584 0.22901 0.0
N41 N 0.54867 0.31457 0.33936 0.0
C42 C 0.58548 0.32031 0.34824 0.0
C43 C 0.52816 0.30578 0.40058 0.0
N44 N 0.58848 0.31546 0.41243 0.0
C45 C 0.5521 0.30643 0.44492 0.0
C46 C 0.44657 0.3174 0.28332 0.0
O47 O 0.50424 0.25387 0.18338 0.0
O48 O 0.52907 0.25451 0.27132 0.0
O49 O 0.47615 0.31707 0.30988 0.0
O50 O 0.45243 0.31359 0.22052 0.0
O51 O 0.52955 0.36692 0.24525 0.0
H52 H 0.49807 0.29743 0.41225 0.0
H53 H 0.60991 0.32684 0.30799 0.0
O54 O 0.50722 0.3587 0.15504 0.0
O55 O 0.55923 0.29776 0.11988 0.0
O56 O 0.5803 0.30494 0.21114 0.0
C57 C 0.58738 0.29869 0.14935 0.0
H58 H 0.49741 0.29507 0.93196 0.0
H59 H 0.54347 0.29883 0.49677 0.0
Co60 Co 0.00276 0.30222 0.84052 0.0
C61 C 0.02548 0.36561 0.90524 0.0
Co62 Co 0.04621 0.28844 0.90185 0.0
C63 C 0.93521 0.30163 0.77156 0.0
C64 C 0.97509 0.34571 0.74128 0.0
N65 N 0.96797 0.3164 0.78432 0.0
N66 N 0.92241 0.32048 0.72162 0.0
C67 C 0.9476 0.34816 0.703 0.0
H68 H 0.92189 0.27685 0.79663 0.0
H69 H -0.00048 0.36381 0.73681 0.0
C70 C 0.02316 0.22403 0.84721 0.0
N71 N 0.08105 0.27353 0.95359 0.0
C72 C 0.11416 0.25083 0.93182 0.0
C73 C 0.07765 0.27698 1.01962 0.0
N74 N 0.13147 0.23958 0.98126 0.0
C75 C 0.10876 0.25591 0.03689 0.0
C76 C 0.96793 0.28703 0.96866 0.0
O77 O -0.00063 0.2472 0.8246 0.0
O78 O 0.0474 0.23749 0.87641 0.0
O79 O 0.00333 0.27957 0.97332 0.0
O80 O 0.96046 0.29929 0.91443 0.0
O81 O 0.04516 0.33936 0.92891 0.0
H82 H 0.05353 0.29271 0.0532 0.0
H83 H 0.12449 0.24125 0.88081 0.0
O84 O 0.00592 0.35656 0.86276 0.0
O85 O 0.04718 0.30488 0.76502 0.0
O86 O 0.08867 0.29714 0.82994 0.0
C87 C 0.08256 0.30304 0.77242 0.0
H88 H 0.94634 0.36874 0.66393 0.0
H89 H 0.11427 0.25285 0.08619 0.0
Co90 Co 0.50222 0.81381 0.83473 0.0
C91 C 0.52749 0.87741 0.89491 0.0
Co92 Co 0.54543 0.7996 0.89683 0.0
C93 C 0.43407 0.8111 0.76874 0.0
C94 C 0.47093 0.85767 0.73961 0.0
N95 N 0.46603 0.82752 0.78117 0.0
N96 N 0.41952 0.8298 0.72048 0.0
C97 C 0.44276 0.85911 0.70266 0.0
H98 H 0.42269 0.78523 0.79264 0.0
H99 H 0.49438 0.87695 0.73498 0.0
C100 C 0.52002 0.73512 0.84653 0.0
N101 N 0.58219 0.78569 0.94616 0.0
C102 C 0.61955 0.79632 0.93134 0.0
C103 C 0.583 0.75446 0.98463 0.0
N104 N 0.64461 0.77131 0.95407 0.0
C105 C 0.62136 0.74547 0.98939 0.0
C106 C 0.46822 0.80118 0.96594 0.0
O107 O 0.49786 0.7586 0.82088 0.0
O108 O 0.54396 0.74822 0.87679 0.0
O109 O 0.50354 0.79407 0.97174 0.0
O110 O 0.46124 0.81173 0.91045 0.0
O111 O 0.54725 0.85114 0.91827 0.0
H112 H 0.55849 0.73659 1.00078 0.0
H113 H 0.62858 0.81979 0.89827 0.0
O114 O 0.50634 0.86829 0.85495 0.0
O115 O 0.54514 0.81565 0.75681 0.0
O116 O 0.58661 0.8044 0.82069 0.0
C117 C 0.58057 0.81091 0.76333 0.0
H118 H 0.43982 0.88008 0.6649 0.0
H119 H 0.63161 0.71936 1.01049 0.0
C120 C 0.05263 0.41481 0.96641 0.0
C121 C 0.02407 0.40535 0.93183 0.0
C122 C 0.04951 0.44989 0.99973 0.0
C123 C -0.00132 0.54796 1.0163 0.0
H124 H 0.03003 0.54734 0.18481 0.0
C125 C 0.97031 0.68267 0.18216 0.0
C126 C 0.00141 0.6936 0.20954 0.0
C127 C 0.9713 0.64627 0.15426 0.0
C128 C 0.02145 0.54816 0.13764 0.0
H129 H 0.9702 0.42629 0.90399 0.0
H130 H 0.96441 0.48774 0.96275 0.0
H131 H 0.03522 0.48789 0.12184 0.0
H132 H 0.05719 0.67391 0.23177 0.0
H133 H 0.05886 0.60973 0.18359 0.0
H134 H 0.9848 0.60821 1.03225 0.0
C135 C 0.9896 0.46797 0.9635 0.0
C136 C 0.0245 0.51398 0.1012 0.0
C137 C 0.99289 0.43271 0.9296 0.0
C138 C 0.03239 0.66615 0.21236 0.0
C139 C 0.03346 0.62947 0.18409 0.0
C140 C 0.99549 0.58209 0.05285 0.0
C141 C 0.01752 0.47677 1.0002 0.0
C142 C 0.01335 0.51332 0.03972 0.0
C143 C 0.00358 0.61957 0.15239 0.0
C144 C 0.00682 0.58276 0.11411 0.0
H145 H 0.0773 0.39467 0.96887 0.0
H146 H 0.07225 0.45577 1.02555 0.0
H147 H 0.99036 0.54898 0.96892 0.0
H148 H 0.94605 0.70318 0.17894 0.0
H149 H 0.94723 0.63953 0.13208 0.0
C150 C 0.55366 0.43768 0.1433 0.0
C151 C 0.5185 0.42208 0.1766 0.0
C152 C 0.55259 0.47181 0.10684 0.0
C153 C 0.48756 0.55665 0.07632 0.0
H154 H 0.5568 0.55384 0.90065 0.0
C155 C 0.47812 0.68114 0.8908 0.0
C156 C 0.51452 0.6935 0.85542 0.0
C157 C 0.47636 0.64595 0.92487 0.0
C158 C 0.53745 0.55551 0.9497 0.0
H159 H 0.45477 0.43028 0.19858 0.0
H160 H 0.45277 0.49028 0.1374 0.0
H161 H 0.56016 0.50042 0.97604 0.0
H162 H 0.5771 0.67757 0.82518 0.0
H163 H 0.57421 0.61664 0.8825 0.0
H164 H 0.46533 0.61205 0.05064 0.0
C165 C 0.48127 0.47657 0.13959 0.0
C166 C 0.5395 0.52472 0.99322 0.0
C167 C 0.48238 0.44229 0.17527 0.0
C168 C 0.54843 0.66846 0.85044 0.0
C169 C 0.54673 0.63344 0.88414 0.0
C170 C 0.48575 0.58767 0.03299 0.0
C171 C 0.5163 0.4912 0.10289 0.0
C172 C 0.51472 0.52482 0.05735 0.0
C173 C 0.51097 0.62222 0.9243 0.0
C174 C 0.51079 0.58776 0.96892 0.0
H175 H 0.58186 0.42211 0.14156 0.0
H176 H 0.58022 0.48233 0.07986 0.0
H177 H 0.46811 0.55797 0.12533 0.0
H178 H 0.45164 0.70019 0.89738 0.0
H179 H 0.44807 0.63822 0.95408 0.0
C180 C 0.49322 0.94209 0.93327 0.0
C181 C 0.52753 0.91719 0.92008 0.0
C182 C 0.49175 0.97616 0.96984 0.0
C183 C 0.54404 1.02079 0.08783 0.0
H184 H 0.47989 0.11203 0.0622 0.0
C185 C 0.55126 0.17085 0.20758 0.0
C186 C 0.51562 0.19358 0.22597 0.0
C187 C 0.55225 0.13488 0.17687 0.0
C188 C 0.49763 0.08662 0.07063 0.0
H189 H 0.58788 0.90978 0.93147 0.0
H190 H 0.58609 0.96939 0.99158 0.0
H191 H 0.48295 0.05635 0.99096 0.0
H192 H 0.45294 0.19559 0.22964 0.0
H193 H 0.45438 0.13297 0.17829 0.0
H194 H 0.5593 0.05166 0.1667 0.0
C195 C 0.55963 0.9623 0.97652 0.0
C196 C 0.49938 0.05451 1.02959 0.0
C197 C 0.56088 0.92821 0.941 0.0
C198 C 0.48071 0.17836 0.21753 0.0
C199 C 0.48169 0.14276 0.18671 0.0
C200 C 0.54258 0.05306 0.12843 0.0
C201 C 0.52471 0.98635 0.99352 0.0
C202 C 0.52265 1.02098 0.03735 0.0
C203 C 0.51767 0.12121 0.1633 0.0
C204 C 0.51923 0.08642 0.12064 0.0
H205 H 0.46683 0.93418 0.91877 0.0
H206 H 0.46416 0.99359 0.98194 0.0
H207 H 0.56164 0.99544 0.09688 0.0
H208 H 0.57882 0.18233 0.21113 0.0
H209 H 0.58054 0.11915 0.15937 0.0
C210 C 0.0702 0.92973 0.14405 0.0
C211 C 0.03702 0.91865 0.1911 0.0
C212 C 0.06845 0.96384 0.10792 0.0
C213 C 0.99434 1.02814 0.04821 0.0
H214 H 0.0825 0.0911 0.98687 0.0
C215 C 0.98358 0.17055 0.89946 0.0
C216 C 0.01822 0.18242 0.85706 0.0
C217 C 0.98435 0.13652 0.93635 0.0
C218 C 0.05769 0.0735 1.00239 0.0
H219 H 0.97621 0.93523 0.23792 0.0
H220 H 0.9734 0.99532 0.17706 0.0
H221 H 0.08802 1.0393 0.0644 0.0
H222 H 0.07989 0.16609 0.81595 0.0
H223 H 0.08073 0.1059 0.87607 0.0
H224 H 0.96408 0.0622 0.98582 0.0
C225 C 0.00087 0.97765 0.16759 0.0
C226 C 0.06084 0.04377 0.04748 0.0
C227 C 0.00276 0.94363 0.20386 0.0
C228 C 0.05249 0.15746 0.8472 0.0
C229 C 0.05319 0.12336 0.88329 0.0
C230 C 0.99121 0.05783 1.00287 0.0
C231 C 0.03318 0.98754 0.11714 0.0
C232 C 0.02926 1.02053 0.07114 0.0
C233 C 0.01976 0.11335 0.93123 0.0
C234 C 0.02293 0.08093 0.97884 0.0
H235 H 0.09643 0.91034 0.13098 0.0
H236 H 0.09389 0.97008 0.0693 0.0
H237 H 0.96955 1.01054 0.06409 0.0
H238 H 0.95701 0.18959 0.90977 0.0
H239 H 0.9579 0.13008 0.97259 0.0
C240 C 0.39071 0.82727 0.62183 0.0
C241 C 0.38757 0.82068 0.69002 0.0
C242 C 0.35882 0.82274 0.59243 0.0
C243 C 0.25916 0.78254 0.61867 0.0
H244 H 0.24712 0.85383 0.4786 0.0
C245 C 0.11718 0.79649 0.51381 0.0
C246 C 0.1214 0.80097 0.44467 0.0
C247 C 0.14958 0.79802 0.54329 0.0
C248 C 0.25017 0.83336 0.51706 0.0
H249 H 0.34839 0.80298 0.7804 0.0
H250 H 0.29204 0.79565 0.72958 0.0
H251 H 0.30242 0.85746 0.53143 0.0
H252 H 0.16419 0.81095 0.35301 0.0
H253 H 0.22039 0.81417 0.40452 0.0
H254 H 0.20624 0.75903 0.60479 0.0
C255 C 0.31955 0.8039 0.69833 0.0
C256 C 0.28214 0.83534 0.54754 0.0
C257 C 0.35186 0.80807 0.72772 0.0
C258 C 0.15927 0.80771 0.40627 0.0
C259 C 0.19171 0.80951 0.43596 0.0
C260 C 0.22697 0.78076 0.58845 0.0
C261 C 0.32229 0.81187 0.63028 0.0
C262 C 0.28742 0.80984 0.59868 0.0
C263 C 0.18742 0.80443 0.50494 0.0
C264 C 0.22201 0.80609 0.537 0.0
H265 H 0.418 0.8363 0.59098 0.0
H266 H 0.36295 0.82797 0.5397 0.0
H267 H 0.26218 0.762 0.65701 0.0
H268 H 0.08869 0.79205 0.54585 0.0
H269 H 0.14477 0.79472 0.5966 0.0
C270 C 0.15443 0.31112 0.72751 0.0
C271 C 0.1166 0.30792 0.71563 0.0
C272 C 0.18691 0.31582 0.67509 0.0
C273 C 0.22604 0.2981 0.4976 0.0
H274 H 0.30068 0.37162 0.51905 0.0
C275 C 0.37241 0.31761 0.30031 0.0
C276 C 0.40603 0.32097 0.32628 0.0
C277 C 0.33452 0.31939 0.34246 0.0
C278 C 0.28031 0.35076 0.51233 0.0
H279 H 0.08342 0.3068 0.63884 0.0
H280 H 0.14075 0.31455 0.54654 0.0
H281 H 0.23921 0.36806 0.60242 0.0
H282 H 0.42595 0.32917 0.41699 0.0
H283 H 0.36064 0.33179 0.48972 0.0
H284 H 0.26788 0.27994 0.40844 0.0
C285 C 0.14494 0.31355 0.59686 0.0
C286 C 0.24501 0.34881 0.56009 0.0
C287 C 0.11214 0.30926 0.64967 0.0
C288 C 0.40082 0.32658 0.39503 0.0
C289 C 0.36318 0.32838 0.43689 0.0
C290 C 0.26161 0.29988 0.4498 0.0
C291 C 0.18264 0.31714 0.60916 0.0
C292 C 0.21786 0.32189 0.55415 0.0
C293 C 0.32947 0.32476 0.41137 0.0
C294 C 0.28963 0.32563 0.45747 0.0
H295 H 0.15907 0.31011 0.77757 0.0
H296 H 0.21563 0.3179 0.6862 0.0
H297 H 0.20576 0.27694 0.4918 0.0
H298 H 0.37537 0.3132 0.24759 0.0
H299 H 0.30919 0.31674 0.32106 0.0
C300 C 0.85237 0.30622 0.72824 0.0
C301 C 0.89022 0.3131 0.69054 0.0
C302 C 0.82021 0.30461 0.69755 0.0
C303 C 0.79013 0.33244 0.5377 0.0
H304 H 0.70084 0.27254 0.60928 0.0
C305 C 0.66187 0.31432 0.4013 0.0
C306 C 0.62307 0.31645 0.4411 0.0
C307 C 0.69492 0.31327 0.43025 0.0
C308 C 0.72544 0.28965 0.58872 0.0
H309 H 0.92426 0.32135 0.59066 0.0
H310 H 0.86943 0.31686 0.5371 0.0
H311 H 0.75667 0.27031 0.66245 0.0
H312 H 0.58972 0.32087 0.54361 0.0
H313 H 0.64658 0.31822 0.59295 0.0
H314 H 0.75895 0.35121 0.46333 0.0
C315 C 0.86362 0.31434 0.59059 0.0
C316 C 0.7576 0.28851 0.61956 0.0
C317 C 0.89539 0.31652 0.62128 0.0
C318 C 0.61869 0.31821 0.51064 0.0
C319 C 0.65156 0.31673 0.53937 0.0
C320 C 0.75819 0.33319 0.50645 0.0
C321 C 0.82513 0.30933 0.62812 0.0
C322 C 0.79058 0.31 0.59483 0.0
C323 C 0.69024 0.31397 0.49986 0.0
C324 C 0.72519 0.31202 0.53166 0.0
H325 H 0.84732 0.30385 0.78172 0.0
H326 H 0.79124 0.301 0.72881 0.0
H327 H 0.81417 0.35023 0.51744 0.0
H328 H 0.6669 0.31269 0.3478 0.0
H329 H 0.72423 0.31103 0.39804 0.0
C330 C 0.8749 0.83285 0.29799 0.0
C331 C 0.9084 0.82775 0.32537 0.0
C332 C 0.83669 0.8327 0.33896 0.0
C333 C 0.78603 0.79149 0.49527 0.0
H334 H 0.7007 0.86948 0.5008 0.0
C335 C 0.65296 0.80147 0.71519 0.0
C336 C 0.61503 0.8124 0.70596 0.0
C337 C 0.68622 0.80329 0.66332 0.0
C338 C 0.72396 0.84709 0.49909 0.0
H339 H 0.92769 0.82021 0.41778 0.0
H340 H 0.86166 0.81957 0.48811 0.0
H341 H 0.76355 0.87411 0.41918 0.0
H342 H 0.58229 0.8333 0.63384 0.0
H343 H 0.6408 0.83566 0.54174 0.0
H344 H 0.74713 0.76409 0.57407 0.0
C345 C 0.86484 0.82342 0.43514 0.0
C346 C 0.75996 0.84985 0.45248 0.0
C347 C 0.90274 0.82398 0.39465 0.0
C348 C 0.61113 0.82475 0.64266 0.0
C349 C 0.64468 0.82635 0.59007 0.0
C350 C 0.75015 0.78847 0.54102 0.0
C351 C 0.83141 0.82696 0.40777 0.0
C352 C 0.79168 0.82258 0.45144 0.0
C353 C 0.6827 0.8155 0.59981 0.0
C354 C 0.71896 0.81678 0.54506 0.0
H355 H 0.8782 0.83584 0.24487 0.0
H356 H 0.81138 0.83553 0.3166 0.0
H357 H 0.80968 0.7696 0.4947 0.0
H358 H 0.65708 0.79128 0.76282 0.0
H359 H 0.71487 0.79542 0.67351 0.0
C360 C 0.40016 0.81233 1.03142 0.0
C361 C 0.43527 0.78894 1.0168 0.0
C362 C 0.36457 0.79629 0.05787 0.0
C363 C 0.29972 0.7389 0.13671 0.0
H364 H 0.26365 0.72495 0.97445 0.0
C365 C 0.13776 0.73374 0.15269 0.0
C366 C 0.12504 0.76578 0.11976 0.0
C367 C 0.17679 0.71911 0.13509 0.0
C368 C 0.27354 0.72776 1.02008 0.0
H369 H 0.46194 0.73152 1.02246 0.0
H370 H 0.39889 0.70309 0.06699 0.0
H371 H 0.33365 0.73299 0.96868 0.0
H372 H 0.14096 0.80528 0.03856 0.0
H373 H 0.21022 0.78017 1.00804 0.0
H374 H 0.23946 0.73668 0.18805 0.0
C375 C 0.39922 0.73379 0.05969 0.0
C376 C 0.3134 0.73208 1.01689 0.0
C377 C 0.43506 0.75009 0.03481 0.0
C378 C 0.15049 0.78058 0.06439 0.0
C379 C 0.18989 0.76604 0.04693 0.0
C380 C 0.25997 0.73403 0.14007 0.0
C381 C 0.36385 0.75667 0.06841 0.0
C382 C 0.32617 0.73946 0.07491 0.0
C383 C 0.20369 0.73662 0.08473 0.0
C384 C 0.24631 0.7304 0.08149 0.0
H385 H 0.39985 0.84218 1.01683 0.0
H386 H 0.33728 0.81414 0.06402 0.0
H387 H 0.30917 0.74521 0.18165 0.0
H388 H 0.11808 0.72163 0.19505 0.0
H389 H 0.18667 0.69615 0.16429 0.0
C390 C 0.19783 0.21907 0.91752 0.0
C391 C 0.16734 0.21573 0.97418 0.0
C392 C 0.23394 0.19836 0.91203 0.0
C393 C 0.29395 0.16043 1.02399 0.0
H394 H 0.37154 0.15652 0.85637 0.0
C395 C 0.44457 0.20035 1.02634 0.0
C396 C 0.44857 0.2356 0.99289 0.0
C397 C 0.4198 0.17395 1.01087 0.0
C398 C 0.35029 0.15641 0.90362 0.0
H399 H 0.14908 0.18569 0.06687 0.0
H400 H 0.21225 0.14843 0.05699 0.0
H401 H 0.30194 0.151 0.85741 0.0
H402 H 0.4345 0.26866 0.91145 0.0
H403 H 0.39057 0.22287 0.88477 0.0
H404 H 0.34178 0.1677 0.06996 0.0
C405 C 0.2087 0.16797 1.0175 0.0
C406 C 0.31039 0.15365 0.90434 0.0
C407 C 0.17263 0.18936 1.02348 0.0
C408 C 0.43147 0.24188 0.93829 0.0
C409 C 0.40664 0.21543 0.92274 0.0
C410 C 0.33381 0.16229 1.02336 0.0
C411 C 0.24037 0.17333 0.96284 0.0
C412 C 0.28151 0.15934 0.96399 0.0
C413 C 0.3987 0.1824 0.9617 0.0
C414 C 0.36183 0.16363 0.9628 0.0
H415 H 0.19448 0.23934 0.87892 0.0
H416 H 0.25753 0.2042 0.86984 0.0
H417 H 0.27294 0.16457 0.07113 0.0
H418 H 0.45871 0.19422 0.06717 0.0
H419 H 0.41455 0.1485 0.04106 0.0
C420 C 0.63909 0.24875 0.10352 0.0
C421 C 0.628 0.28774 0.11659 0.0
C422 C 0.67787 0.23474 0.10176 0.0
C423 C 0.75839 0.2598 0.17563 0.0
H424 H 0.83052 0.20619 1.02939 0.0
C425 C 0.90352 0.30342 0.04419 0.0
C426 C 0.93553 0.27685 1.02241 0.0
C427 C 0.86863 0.2914 0.08349 0.0
C428 C 0.81044 0.21969 0.07209 0.0
H429 H 0.64818 0.34322 0.13229 0.0
H430 H 0.71625 0.31929 0.12601 0.0
H431 H 0.75982 0.21134 0.0326 0.0
H432 H 0.95818 0.21788 1.027 0.0
H433 H 0.89549 0.1961 0.09235 0.0
H434 H 0.80942 0.27209 0.2108 0.0
C435 C 0.69505 0.29931 0.11911 0.0
C436 C 0.77013 0.22293 0.07351 0.0
C437 C 0.65652 0.31317 0.12107 0.0
C438 C 0.93352 0.23869 0.04396 0.0
C439 C 0.898 0.2263 0.08134 0.0
C440 C 0.79862 0.25685 0.1739 0.0
C441 C 0.70538 0.25977 0.1134 0.0
C442 C 0.74445 0.24551 0.12259 0.0
C443 C 0.86503 0.25245 0.09933 0.0
C444 C 0.82505 0.23931 0.11941 0.0
H445 H 0.61701 0.22865 0.1017 0.0
H446 H 0.68552 0.20421 0.09635 0.0
H447 H 0.7387 0.27646 0.21503 0.0
H448 H 0.90476 0.3329 1.0276 0.0
H449 H 0.84326 0.3119 0.09594 0.0
C450 C 0.95847 0.7417 0.95178 0.0
C451 C 0.97576 0.77668 0.93676 0.0
C452 C 0.9364 0.72726 0.91041 0.0
C453 C 0.8729 0.77988 0.82106 0.0
H454 H 0.81807 0.68662 0.85758 0.0
C455 C 0.70508 0.78539 0.87014 0.0
C456 C 0.68686 0.76636 0.92835 0.0
C457 C 0.74501 0.77795 0.84139 0.0
C458 C 0.83316 0.71278 0.84649 0.0
H459 H 0.99143 0.81942 0.86084 0.0
H460 H 0.95441 0.79322 0.7865 0.0
H461 H 0.88965 0.68411 0.84478 0.0
H462 H 0.69767 0.7254 1.00285 0.0
H463 H 0.76791 0.71368 0.95407 0.0
H464 H 0.8166 0.80897 0.82672 0.0
C465 C 0.95587 0.77799 0.83184 0.0
C466 C 0.87415 0.71136 0.8388 0.0
C467 C 0.97711 0.79302 0.87416 0.0
C468 C 0.71025 0.7402 0.95762 0.0
C469 C 0.75049 0.73309 0.92914 0.0
C470 C 0.8322 0.78122 0.82817 0.0
C471 C 0.93162 0.74761 0.8533 0.0
C472 C 0.894 0.74542 0.83142 0.0
C473 C 0.76825 0.75194 0.8707 0.0
C474 C 0.81164 0.74815 0.8454 0.0
H475 H 0.95755 0.72821 0.99942 0.0
H476 H 0.91891 0.70334 0.92854 0.0
H477 H 0.88665 0.80691 0.81535 0.0
H478 H 0.68883 0.80586 0.84554 0.0
H479 H 0.7578 0.79295 0.79636 0.0
loop_
_geom_bond_atom_site_label_1
_geom_bond_atom_site_label_2
_geom_bond_distance
_geom_bond_site_symmetry_2
_ccdc_geom_bond_type
Co0 N5 2.057 1_455 S
Co0 O17 2.021 . S
Co0 O20 2.062 1_455 S
Co0 O24 2.117 . S
Co0 O25 2.020 . S
C1 O21 1.259 . S
C1 O24 1.258 . S
Co2 N11 2.057 . S
Co2 O18 2.117 . S
Co2 O19 2.020 1_455 S
Co2 O21 2.021 . S
Co2 O26 2.062 . S
C3 N5 1.316 . S
C3 N6 1.347 . S
C3 H8 0.931 . S
C4 N5 1.375 . S
C4 C7 1.350 . S
C4 H9 0.930 . S
N5 Co0 2.057 1_655 S
N5 C3 1.316 . S
N5 C4 1.375 . S
N6 C3 1.347 . S
N6 C7 1.373 . S
C7 C4 1.350 . S
C7 N6 1.373 . S
C7 H28 0.931 1_554 S
H8 C3 0.931 . S
H9 C4 0.930 . S
C10 O17 1.259 . S
C10 O18 1.258 . S
N11 Co2 2.057 . S
N11 C12 1.316 . S
N11 C13 1.375 . S
C12 N11 1.316 . S
C12 N14 1.347 . S
C12 H23 0.931 . S
C13 N11 1.375 . S
C13 C15 1.350 . S
C13 H22 0.930 . S
N14 C12 1.347 . S
N14 C15 1.373 . S
C15 C13 1.350 . S
C15 N14 1.373 . S
C15 H29 0.931 . S
C16 O19 1.256 . S
C16 O20 1.255 . S
O17 Co0 2.021 . S
O17 C10 1.259 . S
O18 Co2 2.117 . S
O18 C10 1.258 . S
O19 Co2 2.020 1_655 S
O19 C16 1.256 . S
O20 Co0 2.062 1_655 S
O20 C16 1.255 . S
O21 C1 1.259 . S
O21 Co2 2.021 . S
H22 C13 0.930 . S
H23 C12 0.931 . S
O24 Co0 2.117 . S
O24 C1 1.258 . S
O25 Co0 2.020 . S
O25 C27 1.256 . S
O26 Co2 2.062 . S
O26 C27 1.255 . S
C27 O25 1.256 . S
C27 O26 1.255 . S
H28 C7 0.931 1_556 S
H29 C15 0.931 . S
Co30 N35 2.057 . S
Co30 O47 2.021 . S
Co30 O50 2.062 . S
Co30 O54 2.117 . S
Co30 O55 2.020 . S
C31 O51 1.259 . S
C31 O54 1.258 . S
Co32 N41 2.057 . S
Co32 O48 2.117 . S
Co32 O49 2.020 . S
Co32 O51 2.021 . S
Co32 O56 2.062 . S
C33 N35 1.316 . S
C33 N36 1.347 . S
C33 H38 0.931 . S
C34 N35 1.375 . S
C34 C37 1.350 . S
C34 H39 0.930 . S
N35 Co30 2.057 . S
N35 C33 1.316 . S
N35 C34 1.375 . S
N36 C33 1.347 . S
N36 C37 1.373 . S
C37 C34 1.350 . S
C37 N36 1.373 . S
C37 H58 0.931 1_554 S
H38 C33 0.931 . S
H39 C34 0.930 . S
C40 O47 1.259 . S
C40 O48 1.258 . S
N41 Co32 2.057 . S
N41 C42 1.316 . S
N41 C43 1.375 . S
C42 N41 1.316 . S
C42 N44 1.347 . S
C42 H53 0.931 . S
C43 N41 1.375 . S
C43 C45 1.350 . S
C43 H52 0.930 . S
N44 C42 1.347 . S
N44 C45 1.373 . S
C45 C43 1.350 . S
C45 N44 1.373 . S
C45 H59 0.931 . S
C46 O49 1.256 . S
C46 O50 1.255 . S
O47 Co30 2.021 . S
O47 C40 1.259 . S
O48 Co32 2.117 . S
O48 C40 1.258 . S
O49 Co32 2.020 . S
O49 C46 1.256 . S
O50 Co30 2.062 . S
O50 C46 1.255 . S
O51 C31 1.259 . S
O51 Co32 2.021 . S
H52 C43 0.930 . S
H53 C42 0.931 . S
O54 Co30 2.117 . S
O54 C31 1.258 . S
O55 Co30 2.020 . S
O55 C57 1.256 . S
O56 Co32 2.062 . S
O56 C57 1.255 . S
C57 O55 1.256 . S
C57 O56 1.255 . S
H58 C37 0.931 1_556 S
H59 C45 0.931 . S
Co60 N65 2.057 1_455 S
Co60 O77 2.021 . S
Co60 O80 2.062 1_455 S
Co60 O84 2.117 . S
Co60 O85 2.020 . S
C61 O81 1.259 . S
C61 O84 1.258 . S
Co62 N71 2.057 . S
Co62 O78 2.117 . S
Co62 O79 2.020 1_455 S
Co62 O81 2.021 . S
Co62 O86 2.062 . S
C63 N65 1.316 . S
C63 N66 1.347 . S
C63 H68 0.931 . S
C64 N65 1.375 . S
C64 C67 1.350 . S
C64 H69 0.930 . S
N65 Co60 2.057 1_655 S
N65 C63 1.316 . S
N65 C64 1.375 . S
N66 C63 1.347 . S
N66 C67 1.373 . S
C67 C64 1.350 . S
C67 N66 1.373 . S
C67 H88 0.931 . S
H68 C63 0.931 . S
H69 C64 0.930 . S
C70 O77 1.259 . S
C70 O78 1.258 . S
N71 Co62 2.057 . S
N71 C72 1.316 . S
N71 C73 1.375 . S
C72 N71 1.316 . S
C72 N74 1.347 . S
C72 H83 0.931 . S
C73 N71 1.375 . S
C73 C75 1.350 . S
C73 H82 0.930 . S
N74 C72 1.347 . S
N74 C75 1.373 . S
C75 C73 1.350 . S
C75 N74 1.373 . S
C75 H89 0.931 1_556 S
C76 O79 1.256 . S
C76 O80 1.255 . S
O77 Co60 2.021 . S
O77 C70 1.259 . S
O78 Co62 2.117 . S
O78 C70 1.258 . S
O79 Co62 2.020 1_655 S
O79 C76 1.256 . S
O80 Co60 2.062 1_655 S
O80 C76 1.255 . S
O81 C61 1.259 . S
O81 Co62 2.021 . S
H82 C73 0.930 . S
H83 C72 0.931 . S
O84 Co60 2.117 . S
O84 C61 1.258 . S
O85 Co60 2.020 . S
O85 C87 1.256 . S
O86 Co62 2.062 . S
O86 C87 1.255 . S
C87 O85 1.256 . S
C87 O86 1.255 . S
H88 C67 0.931 . S
H89 C75 0.931 1_554 S
Co90 N95 2.057 . S
Co90 O107 2.021 . S
Co90 O110 2.062 . S
Co90 O114 2.117 . S
Co90 O115 2.020 . S
C91 O111 1.259 . S
C91 O114 1.258 . S
Co92 N101 2.057 . S
Co92 O108 2.117 . S
Co92 O109 2.020 . S
Co92 O111 2.021 . S
Co92 O116 2.062 . S
C93 N95 1.316 . S
C93 N96 1.347 . S
C93 H98 0.931 . S
C94 N95 1.375 . S
C94 C97 1.350 . S
C94 H99 0.930 . S
N95 Co90 2.057 . S
N95 C93 1.316 . S
N95 C94 1.375 . S
N96 C93 1.347 . S
N96 C97 1.373 . S
C97 C94 1.350 . S
C97 N96 1.373 . S
C97 H118 0.931 . S
H98 C93 0.931 . S
H99 C94 0.930 . S
C100 O107 1.259 . S
C100 O108 1.258 . S
N101 Co92 2.057 . S
N101 C102 1.316 . S
N101 C103 1.375 . S
C102 N101 1.316 . S
C102 N104 1.347 . S
C102 H113 0.931 . S
C103 N101 1.375 . S
C103 C105 1.350 . S
C103 H112 0.930 . S
N104 C102 1.347 . S
N104 C105 1.373 . S
C105 C103 1.350 . S
C105 N104 1.373 . S
C105 H119 0.931 1_556 S
C106 O109 1.256 . S
C106 O110 1.255 . S
O107 Co90 2.021 . S
O107 C100 1.259 . S
O108 Co92 2.117 . S
O108 C100 1.258 . S
O109 Co92 2.020 . S
O109 C106 1.256 . S
O110 Co90 2.062 . S
O110 C106 1.255 . S
O111 C91 1.259 . S
O111 Co92 2.021 . S
H112 C103 0.930 . S
H113 C102 0.931 . S
O114 Co90 2.117 . S
O114 C91 1.258 . S
O115 Co90 2.020 . S
O115 C117 1.256 . S
O116 Co92 2.062 . S
O116 C117 1.255 . S
C117 O115 1.256 . S
C117 O116 1.255 . S
H118 C97 0.931 . S
H119 C105 0.931 1_554 S
C120 C121 1.349 . S
C120 C122 1.327 . S
C120 H145 0.950 . S
C121 C120 1.349 . S
C121 C137 1.351 . S
C122 C120 1.327 . S
C122 C141 1.429 . S
C122 H146 0.950 . S
C123 C140 1.570 1_556 S
C123 C142 1.349 1_655 S
C123 H147 0.971 . S
H124 C128 0.949 . S
C125 C126 1.349 . S
C125 C127 1.327 . S
C125 H148 0.950 1_455 S
C126 C125 1.349 . S
C126 C138 1.349 . S
C127 C125 1.327 . S
C127 C143 1.429 . S
C127 H149 0.950 1_455 S
C128 H124 0.949 . S
C128 C136 1.574 1_554 S
C128 C144 1.368 . S
H129 C137 0.947 1_655 S
H130 C135 0.951 . S
H131 C136 0.949 . S
H132 C138 0.950 . S
H133 C139 0.950 . S
H134 C140 0.955 . S
C135 H130 0.951 . S
C135 C137 1.328 1_655 S
C135 C141 1.427 1_655 S
C136 C128 1.574 1_556 S
C136 H131 0.949 . S
C136 C142 1.368 . S
C137 C121 1.351 . S
C137 H129 0.947 1_455 S
C137 C135 1.328 1_455 S
C138 C126 1.349 . S
C138 H132 0.950 . S
C138 C139 1.327 . S
C139 H133 0.950 . S
C139 C138 1.327 . S
C139 C143 1.429 . S
C140 C123 1.570 1_554 S
C140 H134 0.955 . S
C140 C144 1.360 1_655 S
C141 C122 1.429 . S
C141 C135 1.427 1_455 S
C141 C142 1.523 . S
C142 C123 1.349 1_455 S
C142 C136 1.368 . S
C142 C141 1.523 . S
C143 C127 1.429 . S
C143 C139 1.429 . S
C143 C144 1.523 . S
C144 C128 1.368 . S
C144 C140 1.360 1_455 S
C144 C143 1.523 . S
H145 C120 0.950 . S
H146 C122 0.950 . S
H147 C123 0.971 . S
H148 C125 0.950 1_655 S
H149 C127 0.950 1_655 S
C150 C151 1.349 . S
C150 C152 1.327 . S
C150 H175 0.950 . S
C151 C150 1.349 . S
C151 C167 1.349 . S
C152 C150 1.327 . S
C152 C171 1.429 . S
C152 H176 0.950 . S
C153 C170 1.574 . S
C153 C172 1.368 . S
C153 H177 0.949 . S
H154 C158 0.949 . S
C155 C156 1.349 . S
C155 C157 1.327 . S
C155 H178 0.950 . S
C156 C155 1.349 . S
C156 C168 1.349 . S
C157 C155 1.327 . S
C157 C173 1.429 . S
C157 H179 0.950 . S
C158 H154 0.949 . S
C158 C166 1.574 . S
C158 C174 1.368 . S
H159 C167 0.950 . S
H160 C165 0.950 . S
H161 C166 0.949 . S
H162 C168 0.950 . S
H163 C169 0.950 . S
H164 C170 0.949 . S
C165 H160 0.950 . S
C165 C167 1.327 . S
C165 C171 1.429 . S
C166 C158 1.574 . S
C166 H161 0.949 . S
C166 C172 1.368 1_556 S
C167 C151 1.349 . S
C167 H159 0.950 . S
C167 C165 1.327 . S
C168 C156 1.349 . S
C168 H162 0.950 . S
C168 C169 1.327 . S
C169 H163 0.950 . S
C169 C168 1.327 . S
C169 C173 1.429 . S
C170 C153 1.574 . S
C170 H164 0.949 . S
C170 C174 1.368 1_554 S
C171 C152 1.429 . S
C171 C165 1.429 . S
C171 C172 1.523 . S
C172 C153 1.368 . S
C172 C166 1.368 1_554 S
C172 C171 1.523 . S
C173 C157 1.429 . S
C173 C169 1.429 . S
C173 C174 1.523 . S
C174 C158 1.368 . S
C174 C170 1.368 1_556 S
C174 C173 1.523 . S
H175 C150 0.950 . S
H176 C152 0.950 . S
H177 C153 0.949 . S
H178 C155 0.950 . S
H179 C157 0.950 . S
C180 C181 1.349 . S
C180 C182 1.327 . S
C180 H205 0.950 . S
C181 C180 1.349 . S
C181 C197 1.349 . S
C182 C180 1.327 . S
C182 C201 1.429 . S
C182 H206 0.950 . S
C183 C200 1.574 1_565 S
C183 C202 1.368 1_554 S
C183 H207 0.949 . S
H184 C188 0.949 . S
C185 C186 1.349 . S
C185 C187 1.327 . S
C185 H208 0.950 . S
C186 C185 1.349 . S
C186 C198 1.349 . S
C187 C185 1.327 . S
C187 C203 1.429 . S
C187 H209 0.950 . S
C188 H184 0.949 . S
C188 C196 1.574 1_545 S
C188 C204 1.368 1_556 S
H189 C197 0.950 . S
H190 C195 0.950 . S
H191 C196 0.949 . S
H192 C198 0.950 . S
H193 C199 0.950 . S
H194 C200 0.949 . S
C195 H190 0.950 . S
C195 C197 1.327 . S
C195 C201 1.429 . S
C196 C188 1.574 1_565 S
C196 H191 0.949 . S
C196 C202 1.368 . S
C197 C181 1.349 . S
C197 H189 0.950 . S
C197 C195 1.327 . S
C198 C186 1.349 . S
C198 H192 0.950 . S
C198 C199 1.327 . S
C199 H193 0.950 . S
C199 C198 1.327 . S
C199 C203 1.429 . S
C200 C183 1.574 1_545 S
C200 H194 0.949 . S
C200 C204 1.368 . S
C201 C182 1.429 . S
C201 C195 1.429 . S
C201 C202 1.523 . S
C202 C183 1.368 1_556 S
C202 C196 1.368 . S
C202 C201 1.523 . S
C203 C187 1.429 . S
C203 C199 1.429 . S
C203 C204 1.523 . S
C204 C188 1.368 1_554 S
C204 C200 1.368 . S
C204 C203 1.523 . S
H205 C180 0.950 . S
H206 C182 0.950 . S
H207 C183 0.949 . S
H208 C185 0.950 . S
H209 C187 0.950 . S
C210 C211 1.349 . S
C210 C212 1.327 . S
C210 H235 0.950 . S
C211 C210 1.349 . S
C211 C227 1.349 . S
C212 C210 1.327 . S
C212 C231 1.429 . S
C212 H236 0.950 . S
C213 C230 1.574 1_565 S
C213 C232 1.368 1_556 S
C213 H237 0.949 1_455 S
H214 C218 0.949 . S
C215 C216 1.349 . S
C215 C217 1.327 . S
C215 H238 0.950 1_455 S
C216 C215 1.349 . S
C216 C228 1.349 . S
C217 C215 1.327 . S
C217 C233 1.429 . S
C217 H239 0.950 1_455 S
C218 H214 0.949 . S
C218 C226 1.574 1_545 S
C218 C234 1.368 1_554 S
H219 C227 0.950 1_655 S
H220 C225 0.950 1_655 S
H221 C226 0.949 . S
H222 C228 0.950 . S
H223 C229 0.950 . S
H224 C230 0.949 1_655 S
C225 H220 0.950 1_455 S
C225 C227 1.327 . S
C225 C231 1.429 . S
C226 C218 1.574 1_565 S
C226 H221 0.949 . S
C226 C232 1.368 . S
C227 C211 1.349 . S
C227 H219 0.950 1_455 S
C227 C225 1.327 . S
C228 C216 1.349 . S
C228 H222 0.950 . S
C228 C229 1.327 . S
C229 H223 0.950 . S
C229 C228 1.327 . S
C229 C233 1.429 . S
C230 C213 1.574 1_545 S
C230 H224 0.949 1_455 S
C230 C234 1.368 . S
C231 C212 1.429 . S
C231 C225 1.429 . S
C231 C232 1.523 . S
C232 C213 1.368 1_554 S
C232 C226 1.368 . S
C232 C231 1.523 . S
C233 C217 1.429 . S
C233 C229 1.429 . S
C233 C234 1.523 . S
C234 C218 1.368 1_556 S
C234 C230 1.368 . S
C234 C233 1.523 . S
H235 C210 0.950 . S
H236 C212 0.950 . S
H237 C213 0.949 1_655 S
H238 C215 0.950 1_655 S
H239 C217 0.950 1_655 S
C240 C241 1.349 . S
C240 C242 1.327 . S
C240 H265 0.950 . S
C241 C240 1.349 . S
C241 C257 1.349 . S
C242 C240 1.327 . S
C242 C261 1.429 . S
C242 H266 0.950 . S
C243 C260 1.574 . S
C243 C262 1.368 . S
C243 H267 0.949 . S
H244 C248 0.949 . S
C245 C246 1.349 . S
C245 C247 1.327 . S
C245 H268 0.950 . S
C246 C245 1.349 . S
C246 C258 1.349 . S
C247 C245 1.327 . S
C247 C263 1.429 . S
C247 H269 0.950 . S
C248 H244 0.949 . S
C248 C256 1.574 . S
C248 C264 1.368 . S
H249 C257 0.950 . S
H250 C255 0.950 . S
H251 C256 0.949 . S
H252 C258 0.950 . S
H253 C259 0.950 . S
H254 C260 0.949 . S
C255 H250 0.950 . S
C255 C257 1.327 . S
C255 C261 1.429 . S
C256 C248 1.574 . S
C256 H251 0.949 . S
C256 C262 1.368 . S
C257 C241 1.349 . S
C257 H249 0.950 . S
C257 C255 1.327 . S
C258 C246 1.349 . S
C258 H252 0.950 . S
C258 C259 1.327 . S
C259 H253 0.950 . S
C259 C258 1.327 . S
C259 C263 1.429 . S
C260 C243 1.574 . S
C260 H254 0.949 . S
C260 C264 1.368 . S
C261 C242 1.429 . S
C261 C255 1.429 . S
C261 C262 1.523 . S
C262 C243 1.368 . S
C262 C256 1.368 . S
C262 C261 1.523 . S
C263 C247 1.429 . S
C263 C259 1.429 . S
C263 C264 1.523 . S
C264 C248 1.368 . S
C264 C260 1.368 . S
C264 C263 1.523 . S
H265 C240 0.950 . S
H266 C242 0.950 . S
H267 C243 0.949 . S
H268 C245 0.950 . S
H269 C247 0.950 . S
C270 C271 1.349 . S
C270 C272 1.327 . S
C270 H295 0.950 . S
C271 C270 1.349 . S
C271 C287 1.349 . S
C272 C270 1.327 . S
C272 C291 1.429 . S
C272 H296 0.950 . S
C273 C290 1.574 . S
C273 C292 1.368 . S
C273 H297 0.949 . S
H274 C278 0.949 . S
C275 C276 1.349 . S
C275 C277 1.327 . S
C275 H298 0.950 . S
C276 C275 1.349 . S
C276 C288 1.349 . S
C277 C275 1.327 . S
C277 C293 1.429 . S
C277 H299 0.950 . S
C278 H274 0.949 . S
C278 C286 1.574 . S
C278 C294 1.368 . S
H279 C287 0.950 . S
H280 C285 0.950 . S
H281 C286 0.949 . S
H282 C288 0.950 . S
H283 C289 0.950 . S
H284 C290 0.949 . S
C285 H280 0.950 . S
C285 C287 1.327 . S
C285 C291 1.429 . S
C286 C278 1.574 . S
C286 H281 0.949 . S
C286 C292 1.368 . S
C287 C271 1.349 . S
C287 H279 0.950 . S
C287 C285 1.327 . S
C288 C276 1.349 . S
C288 H282 0.950 . S
C288 C289 1.327 . S
C289 H283 0.950 . S
C289 C288 1.327 . S
C289 C293 1.429 . S
C290 C273 1.574 . S
C290 H284 0.949 . S
C290 C294 1.368 . S
C291 C272 1.429 . S
C291 C285 1.429 . S
C291 C292 1.523 . S
C292 C273 1.368 . S
C292 C286 1.368 . S
C292 C291 1.523 . S
C293 C277 1.429 . S
C293 C289 1.429 . S
C293 C294 1.523 . S
C294 C278 1.368 . S
C294 C290 1.368 . S
C294 C293 1.523 . S
H295 C270 0.950 . S
H296 C272 0.950 . S
H297 C273 0.949 . S
H298 C275 0.950 . S
H299 C277 0.950 . S
C300 C301 1.349 . S
C300 C302 1.327 . S
C300 H325 0.950 . S
C301 C300 1.349 . S
C301 C317 1.349 . S
C302 C300 1.327 . S
C302 C321 1.429 . S
C302 H326 0.950 . S
C303 C320 1.574 . S
C303 C322 1.368 . S
C303 H327 0.949 . S
H304 C308 0.949 . S
C305 C306 1.349 . S
C305 C307 1.327 . S
C305 H328 0.950 . S
C306 C305 1.349 . S
C306 C318 1.349 . S
C307 C305 1.327 . S
C307 C323 1.429 . S
C307 H329 0.950 . S
C308 H304 0.949 . S
C308 C316 1.574 . S
C308 C324 1.368 . S
H309 C317 0.950 . S
H310 C315 0.950 . S
H311 C316 0.949 . S
H312 C318 0.950 . S
H313 C319 0.950 . S
H314 C320 0.949 . S
C315 H310 0.950 . S
C315 C317 1.327 . S
C315 C321 1.429 . S
C316 C308 1.574 . S
C316 H311 0.949 . S
C316 C322 1.368 . S
C317 C301 1.349 . S
C317 H309 0.950 . S
C317 C315 1.327 . S
C318 C306 1.349 . S
C318 H312 0.950 . S
C318 C319 1.327 . S
C319 H313 0.950 . S
C319 C318 1.327 . S
C319 C323 1.429 . S
C320 C303 1.574 . S
C320 H314 0.949 . S
C320 C324 1.368 . S
C321 C302 1.429 . S
C321 C315 1.429 . S
C321 C322 1.523 . S
C322 C303 1.368 . S
C322 C316 1.368 . S
C322 C321 1.523 . S
C323 C307 1.429 . S
C323 C319 1.429 . S
C323 C324 1.523 . S
C324 C308 1.368 . S
C324 C320 1.368 . S
C324 C323 1.523 . S
H325 C300 0.950 . S
H326 C302 0.950 . S
H327 C303 0.949 . S
H328 C305 0.950 . S
H329 C307 0.950 . S
C330 C331 1.349 . S
C330 C332 1.327 . S
C330 H355 0.950 . S
C331 C330 1.349 . S
C331 C347 1.349 . S
C332 C330 1.327 . S
C332 C351 1.429 . S
C332 H356 0.950 . S
C333 C350 1.574 . S
C333 C352 1.368 . S
C333 H357 0.949 . S
H334 C338 0.949 . S
C335 C336 1.349 . S
C335 C337 1.327 . S
C335 H358 0.950 . S
C336 C335 1.349 . S
C336 C348 1.349 . S
C337 C335 1.327 . S
C337 C353 1.429 . S
C337 H359 0.950 . S
C338 H334 0.949 . S
C338 C346 1.574 . S
C338 C354 1.368 . S
H339 C347 0.950 . S
H340 C345 0.950 . S
H341 C346 0.949 . S
H342 C348 0.950 . S
H343 C349 0.950 . S
H344 C350 0.949 . S
C345 H340 0.950 . S
C345 C347 1.327 . S
C345 C351 1.429 . S
C346 C338 1.574 . S
C346 H341 0.949 . S
C346 C352 1.368 . S
C347 C331 1.349 . S
C347 H339 0.950 . S
C347 C345 1.327 . S
C348 C336 1.349 . S
C348 H342 0.950 . S
C348 C349 1.327 . S
C349 H343 0.950 . S
C349 C348 1.327 . S
C349 C353 1.429 . S
C350 C333 1.574 . S
C350 H344 0.949 . S
C350 C354 1.368 . S
C351 C332 1.429 . S
C351 C345 1.429 . S
C351 C352 1.523 . S
C352 C333 1.368 . S
C352 C346 1.368 . S
C352 C351 1.523 . S
C353 C337 1.429 . S
C353 C349 1.429 . S
C353 C354 1.523 . S
C354 C338 1.368 . S
C354 C350 1.368 . S
C354 C353 1.523 . S
H355 C330 0.950 . S
H356 C332 0.950 . S
H357 C333 0.949 . S
H358 C335 0.950 . S
H359 C337 0.950 . S
C360 C361 1.349 . S
C360 C362 1.327 . S
C360 H385 0.950 . S
C361 C360 1.349 . S
C361 C377 1.349 . S
C362 C360 1.327 . S
C362 C381 1.429 . S
C362 H386 0.950 . S
C363 C380 1.574 . S
C363 C382 1.368 1_554 S
C363 H387 0.949 . S
H364 C368 0.949 . S
C365 C366 1.349 . S
C365 C367 1.327 . S
C365 H388 0.950 . S
C366 C365 1.349 . S
C366 C378 1.349 . S
C367 C365 1.327 . S
C367 C383 1.429 . S
C367 H389 0.950 . S
C368 H364 0.949 . S
C368 C376 1.574 . S
C368 C384 1.368 1_556 S
H369 C377 0.950 . S
H370 C375 0.950 1_554 S
H371 C376 0.949 . S
H372 C378 0.950 . S
H373 C379 0.950 1_556 S
H374 C380 0.949 . S
C375 H370 0.950 1_556 S
C375 C377 1.327 . S
C375 C381 1.429 . S
C376 C368 1.574 . S
C376 H371 0.949 . S
C376 C382 1.368 . S
C377 C361 1.349 . S
C377 H369 0.950 . S
C377 C375 1.327 . S
C378 C366 1.349 . S
C378 H372 0.950 . S
C378 C379 1.327 . S
C379 H373 0.950 1_554 S
C379 C378 1.327 . S
C379 C383 1.429 . S
C380 C363 1.574 . S
C380 H374 0.949 . S
C380 C384 1.368 . S
C381 C362 1.429 . S
C381 C375 1.429 . S
C381 C382 1.523 . S
C382 C363 1.368 1_556 S
C382 C376 1.368 . S
C382 C381 1.523 . S
C383 C367 1.429 . S
C383 C379 1.429 . S
C383 C384 1.523 . S
C384 C368 1.368 1_554 S
C384 C380 1.368 . S
C384 C383 1.523 . S
H385 C360 0.950 . S
H386 C362 0.950 . S
H387 C363 0.949 . S
H388 C365 0.950 . S
H389 C367 0.950 . S
C390 C391 1.349 1_554 S
C390 C392 1.327 . S
C390 H415 0.950 . S
C391 C390 1.349 1_556 S
C391 C407 1.349 . S
C392 C390 1.327 . S
C392 C411 1.429 1_554 S
C392 H416 0.950 . S
C393 C410 1.574 . S
C393 C412 1.373 . S
C393 H417 0.949 . S
H394 C398 0.949 . S
C395 C396 1.349 1_556 S
C395 C397 1.327 . S
C395 H418 0.950 . S
C396 C395 1.349 1_554 S
C396 C408 1.349 . S
C397 C395 1.327 . S
C397 C413 1.429 1_556 S
C397 H419 0.950 . S
C398 H394 0.949 . S
C398 C406 1.574 . S
C398 C414 1.373 . S
H399 C407 0.950 . S
H400 C405 0.950 . S
H401 C406 0.949 . S
H402 C408 0.950 . S
H403 C409 0.950 . S
H404 C410 0.949 . S
C405 H400 0.950 . S
C405 C407 1.327 . S
C405 C411 1.429 . S
C406 C398 1.574 . S
C406 H401 0.949 . S
C406 C412 1.360 1_554 S
C407 C391 1.349 . S
C407 H399 0.950 . S
C407 C405 1.327 . S
C408 C396 1.349 . S
C408 H402 0.950 . S
C408 C409 1.327 . S
C409 H403 0.950 . S
C409 C408 1.327 . S
C409 C413 1.429 . S
C410 C393 1.574 . S
C410 H404 0.949 . S
C410 C414 1.360 1_556 S
C411 C392 1.429 1_556 S
C411 C405 1.429 . S
C411 C412 1.527 . S
C412 C393 1.373 . S
C412 C406 1.360 1_556 S
C412 C411 1.527 . S
C413 C397 1.429 1_554 S
C413 C409 1.429 . S
C413 C414 1.527 . S
C414 C398 1.373 . S
C414 C410 1.360 1_554 S
C414 C413 1.527 . S
H415 C390 0.950 . S
H416 C392 0.950 . S
H417 C393 0.949 . S
H418 C395 0.950 . S
H419 C397 0.950 . S
C420 C421 1.349 . S
C420 C422 1.327 . S
C420 H445 0.950 . S
C421 C420 1.349 . S
C421 C437 1.349 . S
C422 C420 1.327 . S
C422 C441 1.429 . S
C422 H446 0.950 1_554 S
C423 C440 1.574 . S
C423 C442 1.368 . S
C423 H447 0.949 . S
H424 C428 0.949 . S
C425 C426 1.349 . S
C425 C427 1.327 . S
C425 H448 0.950 . S
C426 C425 1.349 . S
C426 C438 1.349 . S
C427 C425 1.327 . S
C427 C443 1.429 . S
C427 H449 0.950 1_556 S
C428 H424 0.949 . S
C428 C436 1.574 . S
C428 C444 1.368 . S
H429 C437 0.950 . S
H430 C435 0.950 . S
H431 C436 0.949 . S
H432 C438 0.950 . S
H433 C439 0.950 . S
H434 C440 0.949 . S
C435 H430 0.950 . S
C435 C437 1.327 . S
C435 C441 1.429 . S
C436 C428 1.574 . S
C436 H431 0.949 . S
C436 C442 1.368 1_556 S
C437 C421 1.349 . S
C437 H429 0.950 . S
C437 C435 1.327 . S
C438 C426 1.349 . S
C438 H432 0.950 . S
C438 C439 1.327 . S
C439 H433 0.950 . S
C439 C438 1.327 . S
C439 C443 1.429 . S
C440 C423 1.574 . S
C440 H434 0.949 . S
C440 C444 1.368 1_554 S
C441 C422 1.429 . S
C441 C435 1.429 . S
C441 C442 1.523 . S
C442 C423 1.368 . S
C442 C436 1.368 1_554 S
C442 C441 1.523 . S
C443 C427 1.429 . S
C443 C439 1.429 . S
C443 C444 1.523 . S
C444 C428 1.368 . S
C444 C440 1.368 1_556 S
C444 C443 1.523 . S
H445 C420 0.950 . S
H446 C422 0.950 1_556 S
H447 C423 0.949 . S
H448 C425 0.950 . S
H449 C427 0.950 1_554 S
C450 C451 1.349 . S
C450 C452 1.327 . S
C450 H475 0.950 . S
C451 C450 1.349 . S
C451 C467 1.349 1_554 S
C452 C450 1.327 . S
C452 C471 1.429 . S
C452 H476 0.950 . S
C453 C470 1.574 . S
C453 C472 1.358 1_556 S
C453 H477 0.949 . S
H454 C458 0.949 . S
C455 C456 1.349 . S
C455 C457 1.327 . S
C455 H478 0.950 . S
C456 C455 1.349 . S
C456 C468 1.349 1_556 S
C457 C455 1.327 . S
C457 C473 1.429 . S
C457 H479 0.950 . S
C458 H454 0.949 . S
C458 C466 1.574 . S
C458 C474 1.358 1_554 S
H459 C467 0.950 . S
H460 C465 0.950 . S
H461 C466 0.949 . S
H462 C468 0.950 . S
H463 C469 0.950 . S
H464 C470 0.949 . S
C465 H460 0.950 . S
C465 C467 1.327 . S
C465 C471 1.429 1_556 S
C466 C458 1.574 . S
C466 H461 0.949 . S
C466 C472 1.376 . S
C467 C451 1.349 1_556 S
C467 H459 0.950 . S
C467 C465 1.327 . S
C468 C456 1.349 1_554 S
C468 H462 0.950 . S
C468 C469 1.327 . S
C469 H463 0.950 . S
C469 C468 1.327 . S
C469 C473 1.429 1_554 S
C470 C453 1.574 . S
C470 H464 0.949 . S
C470 C474 1.376 . S
C471 C452 1.429 . S
C471 C465 1.429 1_554 S
C471 C472 1.527 . S
C472 C453 1.358 1_554 S
C472 C466 1.376 . S
C472 C471 1.527 . S
C473 C457 1.429 . S
C473 C469 1.429 1_556 S
C473 C474 1.527 . S
C474 C458 1.358 1_556 S
C474 C470 1.376 . S
C474 C473 1.527 . S
H475 C450 0.950 . S
H476 C452 0.950 . S
H477 C453 0.949 . S
H478 C455 0.950 . S
H479 C457 0.950 . S
C121 C61 2.274 . S
C126 C10 2.274 . S
C151 C31 2.327 . S
C156 C100 2.327 . S
C181 C91 2.274 . S
C186 C40 2.274 . S
C211 C1 2.327 . S
C216 C70 2.327 . S
C241 N96 1.559 . S
C246 N14 1.559 . S
C271 C87 1.596 . S
C276 C46 1.596 . S
C301 N66 1.559 . S
C306 N44 1.559 . S
C331 C16 1.596 . S
C336 C117 1.596 . S
C361 C106 0.630 . S
C366 C27 0.630 . S
C391 N74 0.398 . S
C396 N36 0.398 . S
C421 C57 0.630 . S
C426 C76 0.630 . S
C451 N6 0.398 . S
C456 N104 0.398 . S
