# Generated by pormake.
# Topology uof, (4)-cn, num edge types: 1
# Building blocks:
#     Node 0, Type 0, BuildingBlock: KUFVIS_clean_sbu_0, # of connection points: 4
#     Node 1, Type 0, BuildingBlock: KUFVIS_clean_sbu_0, # of connection points: 4
#     Node 2, Type 0, BuildingBlock: KUFVIS_clean_sbu_0, # of connection points: 4
#     Node 3, Type 0, BuildingBlock: KUFVIS_clean_sbu_0, # of connection points: 4
#     Node 4, Type 0, BuildingBlock: KUFVIS_clean_sbu_0, # of connection points: 4
#     Node 5, Type 0, BuildingBlock: KUFVIS_clean_sbu_0, # of connection points: 4
#     Node 6, Type 0, BuildingBlock: KUFVIS_clean_sbu_0, # of connection points: 4
#     Node 7, Type 0, BuildingBlock: KUFVIS_clean_sbu_0, # of connection points: 4
#     Node 8, Type 0, BuildingBlock: KUFVIS_clean_sbu_0, # of connection points: 4
#     Node 9, Type 0, BuildingBlock: KUFVIS_clean_sbu_0, # of connection points: 4
#     Node 10, Type 0, BuildingBlock: KUFVIS_clean_sbu_0, # of connection points: 4
#     Node 11, Type 0, BuildingBlock: KUFVIS_clean_sbu_0, # of connection points: 4
#     Edge 12, Type (0, 0), BuildingBlock: XUDNAN_clean_linker_2, # of connection points: 2
#     Edge 13, Type (0, 0), BuildingBlock: XUDNAN_clean_linker_2, # of connection points: 2
#     Edge 14, Type (0, 0), BuildingBlock: XUDNAN_clean_linker_2, # of connection points: 2
#     Edge 15, Type (0, 0), BuildingBlock: XUDNAN_clean_linker_2, # of connection points: 2
#     Edge 16, Type (0, 0), BuildingBlock: XUDNAN_clean_linker_2, # of connection points: 2
#     Edge 17, Type (0, 0), BuildingBlock: XUDNAN_clean_linker_2, # of connection points: 2
#     Edge 18, Type (0, 0), BuildingBlock: XUDNAN_clean_linker_2, # of connection points: 2
#     Edge 19, Type (0, 0), BuildingBlock: XUDNAN_clean_linker_2, # of connection points: 2
#     Edge 20, Type (0, 0), BuildingBlock: XUDNAN_clean_linker_2, # of connection points: 2
#     Edge 21, Type (0, 0), BuildingBlock: XUDNAN_clean_linker_2, # of connection points: 2
#     Edge 22, Type (0, 0), BuildingBlock: XUDNAN_clean_linker_2, # of connection points: 2
#     Edge 23, Type (0, 0), BuildingBlock: XUDNAN_clean_linker_2, # of connection points: 2
#     Edge 24, Type (0, 0), BuildingBlock: XUDNAN_clean_linker_2, # of connection points: 2
#     Edge 25, Type (0, 0), BuildingBlock: XUDNAN_clean_linker_2, # of connection points: 2
#     Edge 26, Type (0, 0), BuildingBlock: XUDNAN_clean_linker_2, # of connection points: 2
#     Edge 27, Type (0, 0), BuildingBlock: XUDNAN_clean_linker_2, # of connection points: 2
#     Edge 28, Type (0, 0), BuildingBlock: XUDNAN_clean_linker_2, # of connection points: 2
#     Edge 29, Type (0, 0), BuildingBlock: XUDNAN_clean_linker_2, # of connection points: 2
#     Edge 30, Type (0, 0), BuildingBlock: XUDNAN_clean_linker_2, # of connection points: 2
#     Edge 31, Type (0, 0), BuildingBlock: XUDNAN_clean_linker_2, # of connection points: 2
#     Edge 32, Type (0, 0), BuildingBlock: XUDNAN_clean_linker_2, # of connection points: 2
#     Edge 33, Type (0, 0), BuildingBlock: XUDNAN_clean_linker_2, # of connection points: 2
#     Edge 34, Type (0, 0), BuildingBlock: XUDNAN_clean_linker_2, # of connection points: 2
#     Edge 35, Type (0, 0), BuildingBlock: XUDNAN_clean_linker_2, # of connection points: 2
# Relax obj value: 0.179
# Max RMSD: 0.139
# Mean RMSD: 0.139
data_MOF--net-uof--node1-KUFVIS_clean_sbu_0--edge1-XUDNAN_clean_linker_2
_symmetry_space_group_name_H-M    P1
_symmetry_Int_Tables_number       1
_symmetry_cell_setting            triclinic
loop_
_symmetry_equiv_pos_as_xyz
'x, y, z'
_cell_length_a     32.0622
_cell_length_b     32.168627
_cell_length_c     62.471529
_cell_angle_alpha  90.121012
_cell_angle_beta   89.942808
_cell_angle_gamma 119.88837
loop_
_atom_site_label
_atom_site_type_symbol
_atom_site_fract_x
_atom_site_fract_y
_atom_site_fract_z
_atom_type_partial_charge
Mn0 Mn 0.24831 0.30477 0.21624 0.0
Mn1 Mn 0.32042 0.26482 0.23629 0.0
C2 C 0.25509 0.24465 0.19961 0.0
C3 C 0.17159 0.29445 0.20831 0.0
C4 C 0.35953 0.36127 0.21508 0.0
O5 O 0.25174 0.32227 0.24824 0.0
O6 O 0.302 0.29533 0.25875 0.0
C7 C 0.25507 0.18987 0.26665 0.0
N8 N 0.28454 0.2031 0.24926 0.0
C9 C 0.2793 0.12587 0.24771 0.0
C10 C 0.24868 0.11135 0.26555 0.0
C11 C 0.23638 0.14346 0.275 0.0
C12 C 0.29664 0.1725 0.24005 0.0
H13 H 0.24614 0.21461 0.27416 0.0
C14 C 0.27637 0.31491 0.26248 0.0
O15 O 0.21027 0.33611 0.20653 0.0
O16 O 0.17702 0.26129 0.21733 0.0
N17 N 0.33916 0.23355 0.2155 0.0
C18 C 0.36512 0.25163 0.19721 0.0
C19 C 0.37762 0.22286 0.18492 0.0
C20 C 0.36389 0.17616 0.19174 0.0
C21 C 0.33739 0.15852 0.21068 0.0
C22 C 0.32524 0.1885 0.22204 0.0
H23 H 0.37603 0.28766 0.19204 0.0
O24 O 0.24638 0.27329 0.18834 0.0
O25 O 0.26471 0.25513 0.21962 0.0
O26 O 0.3193 0.35912 0.21109 0.0
O27 O 0.36283 0.32759 0.22391 0.0
C28 C 0.322 0.11214 0.2186 0.0
C29 C 0.29281 0.09573 0.23705 0.0
H30 H 0.23424 0.07559 0.27204 0.0
H31 H 0.21285 0.13259 0.2888 0.0
H32 H 0.39791 0.23669 0.17027 0.0
H33 H 0.37336 0.15393 0.18223 0.0
H34 H 0.33166 0.08846 0.21038 0.0
H35 H 0.2803 0.0596 0.2427 0.0
Mn36 Mn 0.95391 0.28829 0.54088 0.0
Mn37 Mn 0.06334 0.36613 0.56219 0.0
C38 C 0.02042 0.3335 0.51891 0.0
C39 C 0.89925 0.2101 0.52746 0.0
C40 C 0.98358 0.38979 0.55801 0.0
O41 O 0.94597 0.26565 0.5722 0.0
O42 O 0.02024 0.3203 0.58339 0.0
C43 C 0.09328 0.29397 0.56996 0.0
N44 N 0.10214 0.3364 0.56128 0.0
C45 C 0.18192 0.35548 0.55086 0.0
C46 C 0.1739 0.31224 0.55989 0.0
C47 C 0.12915 0.28109 0.56927 0.0
C48 C 0.14434 0.36576 0.55152 0.0
H49 H 0.05927 0.27035 0.57751 0.0
C50 C 0.97844 0.28476 0.58662 0.0
O51 O 0.88483 0.23966 0.5334 0.0
O52 O 0.9445 0.22504 0.5303 0.0
N53 N 0.11106 0.41407 0.54407 0.0
C54 C 0.11456 0.45624 0.53774 0.0
C55 C 0.15742 0.49185 0.52842 0.0
C56 C 0.19705 0.48471 0.52657 0.0
C57 C 0.19346 0.44202 0.5341 0.0
C58 C 0.14948 0.40739 0.54284 0.0
H59 H 0.08502 0.46285 0.53991 0.0
O60 O 0.97707 0.31542 0.51151 0.0
O61 O 0.02351 0.32472 0.53887 0.0
O62 O 0.9513 0.34956 0.55006 0.0
O63 O 0.02594 0.39918 0.56305 0.0
C64 C 0.23206 0.43283 0.5336 0.0
C65 C 0.22608 0.38929 0.54168 0.0
H66 H 0.20178 0.30256 0.55968 0.0
H67 H 0.12256 0.24753 0.57619 0.0
H68 H 0.16018 0.5251 0.52306 0.0
H69 H 0.23024 0.51248 0.5196 0.0
H70 H 0.2665 0.45899 0.52697 0.0
H71 H 0.25592 0.38247 0.54102 0.0
Mn72 Mn 0.68288 0.91003 0.87449 0.0
Mn73 Mn 0.68759 0.01218 0.89177 0.0
C74 C 0.70991 0.97528 0.85185 0.0
C75 C 0.72311 0.867 0.86414 0.0
C76 C 0.59553 0.92466 0.87869 0.0
O77 O 0.6879 0.90463 0.907 0.0
O78 O 0.68301 0.97032 0.91583 0.0
C79 C 0.7794 0.05894 0.91603 0.0
N80 N 0.75027 0.06072 0.90067 0.0
C81 C 0.79858 0.14672 0.89853 0.0
C82 C 0.82902 0.14577 0.91438 0.0
C83 C 0.81965 0.10161 0.923 0.0
C84 C 0.75953 0.10296 0.89197 0.0
H85 H 0.77166 0.02536 0.92306 0.0
C86 C 0.68604 0.93332 0.92076 0.0
O87 O 0.67672 0.84501 0.86676 0.0
O88 O 0.74542 0.91151 0.86978 0.0
N89 N 0.69314 0.05689 0.87033 0.0
C90 C 0.66304 0.05074 0.85375 0.0
C91 C 0.67018 0.09084 0.8419 0.0
C92 C 0.70739 0.13684 0.84758 0.0
C93 C 0.73774 0.14222 0.86481 0.0
C94 C 0.72965 0.10082 0.87562 0.0
H95 H 0.63358 0.01558 0.8498 0.0
O96 O 0.68604 0.93164 0.84477 0.0
O97 O 0.71184 0.98001 0.87263 0.0
O98 O 0.61161 0.89564 0.87602 0.0
O99 O 0.62183 0.9683 0.88367 0.0
C100 C 0.77567 0.18696 0.87169 0.0
C101 C 0.80586 0.18925 0.88867 0.0
H102 H 0.85992 0.17863 0.9199 0.0
H103 H 0.843 0.10053 0.93522 0.0
H104 H 0.64656 0.08643 0.82867 0.0
H105 H 0.71237 0.16775 0.83859 0.0
H106 H 0.78245 0.21972 0.86383 0.0
H107 H 0.83549 0.22372 0.89353 0.0
Mn108 Mn 0.79929 0.69321 0.21284 0.0
Mn109 Mn 0.70755 0.71349 0.22349 0.0
C110 C 0.77489 0.72908 0.18778 0.0
C111 C 0.88211 0.71853 0.20693 0.0
C112 C 0.6918 0.61591 0.21285 0.0
O113 O 0.80158 0.69747 0.24568 0.0
O114 O 0.73372 0.70192 0.25008 0.0
C115 C 0.75348 0.80232 0.24956 0.0
N116 N 0.7282 0.7781 0.23185 0.0
C117 C 0.70236 0.83571 0.22571 0.0
C118 C 0.7281 0.86118 0.2439 0.0
C119 C 0.75427 0.84472 0.2557 0.0
C120 C 0.70387 0.79433 0.22008 0.0
H121 H 0.77201 0.78891 0.25922 0.0
C122 C 0.77013 0.7002 0.25746 0.0
O123 O 0.85007 0.67366 0.20961 0.0
O124 O 0.86706 0.74864 0.21003 0.0
N125 N 0.68017 0.72648 0.19907 0.0
C126 C 0.65816 0.69817 0.18175 0.0
C127 C 0.63376 0.71174 0.1672 0.0
C128 C 0.63113 0.75345 0.17098 0.0
C129 C 0.65409 0.78194 0.18896 0.0
C130 C 0.6794 0.76756 0.20241 0.0
H131 H 0.65882 0.66526 0.17924 0.0
O132 O 0.79071 0.70062 0.18202 0.0
O133 O 0.7676 0.73068 0.20817 0.0
O134 O 0.73593 0.62649 0.21288 0.0
O135 O 0.6786 0.64655 0.21557 0.0
C136 C 0.65234 0.82368 0.19423 0.0
C137 C 0.67614 0.85034 0.21268 0.0
H138 H 0.72841 0.89364 0.24882 0.0
H139 H 0.77418 0.86412 0.26977 0.0
H140 H 0.61617 0.68959 0.15336 0.0
H141 H 0.6114 0.76327 0.15997 0.0
H142 H 0.63276 0.83557 0.18421 0.0
H143 H 0.67462 0.8824 0.21654 0.0
Mn144 Mn 0.09319 0.81635 0.55771 0.0
Mn145 Mn 0.9935 0.77505 0.58706 0.0
C146 C 0.01957 0.79021 0.53982 0.0
C147 C 0.15699 0.89126 0.54543 0.0
C148 C 0.04379 0.71742 0.57626 0.0
O149 O 0.11562 0.82421 0.58953 0.0
O150 O 0.05293 0.82939 0.59807 0.0
C151 C 0.98639 0.86353 0.58726 0.0
N152 N 0.96571 0.81535 0.58397 0.0
C153 C 0.88992 0.80939 0.57506 0.0
C154 C 0.91028 0.85877 0.57862 0.0
C155 C 0.95883 0.88601 0.58458 0.0
C156 C 0.91929 0.789 0.57778 0.0
H157 H 0.02366 0.88476 0.59192 0.0
C158 C 0.08818 0.82526 0.60403 0.0
O159 O 0.16203 0.85355 0.54637 0.0
O160 O 0.11738 0.88598 0.55313 0.0
N161 N 0.93322 0.72453 0.5765 0.0
C162 C 0.91812 0.67687 0.57449 0.0
C163 C 0.87017 0.64468 0.5689 0.0
C164 C 0.83774 0.66148 0.56594 0.0
C165 C 0.85354 0.71036 0.56869 0.0
C166 C 0.90184 0.74083 0.57424 0.0
H167 H 0.94222 0.66323 0.5772 0.0
O168 O 0.05846 0.80288 0.52902 0.0
O169 O 0.02557 0.79557 0.56009 0.0
O170 O 0.07271 0.74511 0.56163 0.0
O171 O 0.01991 0.72987 0.58898 0.0
C172 C 0.82332 0.73009 0.56592 0.0
C173 C 0.8416 0.77963 0.56894 0.0
H174 H 0.88905 0.87621 0.5767 0.0
H175 H 0.9749 0.92422 0.5872 0.0
H176 H 0.85816 0.60691 0.56702 0.0
H177 H 0.8008 0.63655 0.56157 0.0
H178 H 0.78603 0.70751 0.56133 0.0
H179 H 0.81811 0.79444 0.56662 0.0
Mn180 Mn 0.30088 0.07372 0.88652 0.0
Mn181 Mn 0.25617 0.96275 0.90827 0.0
C182 C 0.23841 1.00745 0.87043 0.0
C183 C 0.29406 0.14213 0.87886 0.0
C184 C 0.35242 0.01431 0.8858 0.0
O185 O 0.32178 0.08938 0.91812 0.0
O186 O 0.28861 0.01274 0.93009 0.0
C187 C 0.18211 0.95961 0.93768 0.0
N188 N 0.19462 0.94032 0.92119 0.0
C189 C 0.11613 0.86975 0.9209 0.0
C190 C 0.10243 0.88886 0.93792 0.0
C191 C 0.1355 0.93412 0.94626 0.0
C192 C 0.16299 0.89693 0.91296 0.0
H193 H 0.20756 0.99404 0.94425 0.0
C194 C 0.31214 0.05816 0.93293 0.0
O195 O 0.33459 0.14269 0.87628 0.0
O196 O 0.26027 0.10465 0.88825 0.0
N197 N 0.22325 0.91121 0.88841 0.0
C198 C 0.24068 0.90031 0.87068 0.0
C199 C 0.21106 0.85766 0.85949 0.0
C200 C 0.16415 0.82645 0.86681 0.0
C201 C 0.14722 0.83832 0.88521 0.0
C202 C 0.17814 0.88157 0.89553 0.0
H203 H 0.2769 0.92398 0.86516 0.0
O204 O 0.26734 0.04428 0.85902 0.0
O205 O 0.24875 1.00879 0.89053 0.0
O206 O 0.35201 0.05271 0.88073 0.0
O207 O 0.31848 0.97984 0.89589 0.0
C208 C 0.10061 0.80934 0.89352 0.0
C209 C 0.08496 0.82516 0.91128 0.0
H210 H 0.06652 0.86928 0.94459 0.0
H211 H 0.12519 0.94916 0.95937 0.0
H212 H 0.22448 0.84876 0.84534 0.0
H213 H 0.14124 0.79374 0.8581 0.0
H214 H 0.07616 0.77526 0.88611 0.0
H215 H 0.04862 0.8031 0.91718 0.0
Mn216 Mn 0.72566 0.81713 0.44271 0.0
Mn217 Mn 0.76179 0.73791 0.42843 0.0
C218 C 0.75126 0.78293 0.46831 0.0
C219 C 0.74724 0.89791 0.4506 0.0
C220 C 0.65695 0.70977 0.43316 0.0
O221 O 0.73427 0.8266 0.40994 0.0
O222 O 0.76086 0.77465 0.40376 0.0
C223 C 0.86208 0.81022 0.41756 0.0
N224 N 0.83048 0.77099 0.42897 0.0
C225 C 0.89479 0.7628 0.44426 0.0
C226 C 0.92801 0.80281 0.4325 0.0
C227 C 0.9116 0.82692 0.41927 0.0
C228 C 0.84597 0.7485 0.44228 0.0
H229 H 0.84956 0.82845 0.40716 0.0
C230 C 0.75004 0.80573 0.39754 0.0
O231 O 0.703 0.86548 0.44638 0.0
O232 O 0.77872 0.8843 0.44846 0.0
N233 N 0.76504 0.69841 0.45046 0.0
C234 C 0.72816 0.65729 0.45877 0.0
C235 C 0.73837 0.62799 0.47184 0.0
C236 C 0.78634 0.64025 0.4756 0.0
C237 C 0.82367 0.68155 0.46612 0.0
C238 C 0.81131 0.70958 0.45338 0.0
H239 H 0.69117 0.6468 0.45543 0.0
O240 O 0.72612 0.80259 0.47377 0.0
O241 O 0.76214 0.78527 0.4482 0.0
O242 O 0.66327 0.75103 0.43878 0.0
O243 O 0.69105 0.70177 0.4283 0.0
C244 C 0.8726 0.69535 0.4684 0.0
C245 C 0.90818 0.73627 0.45768 0.0
H246 H 0.96621 0.81543 0.43358 0.0
H247 H 0.93702 0.85798 0.41023 0.0
H248 H 0.7093 0.59572 0.47878 0.0
H249 H 0.79408 0.61744 0.48559 0.0
H250 H 0.88325 0.67453 0.47825 0.0
H251 H 0.94569 0.74655 0.45959 0.0
Mn252 Mn 0.93598 0.67986 0.78404 0.0
Mn253 Mn 0.04539 0.69227 0.77557 0.0
C254 C 0.99682 0.71725 0.80897 0.0
C255 C 0.88466 0.71402 0.78724 0.0
C256 C 0.9611 0.59934 0.78908 0.0
O257 O 0.93687 0.67673 0.75129 0.0
O258 O 1.00584 0.67372 0.74913 0.0
C259 C 0.08781 0.7735 0.745 0.0
N260 N 0.09008 0.75341 0.76382 0.0
C261 C 0.17452 0.81052 0.76751 0.0
C262 C 0.173 0.83182 0.74819 0.0
C263 C 0.12932 0.81357 0.73703 0.0
C264 C 0.13167 0.77161 0.77499 0.0
H265 H 0.05489 0.75863 0.73593 0.0
C266 C 0.96868 0.6722 0.74065 0.0
O267 O 0.86705 0.66781 0.78728 0.0
O268 O 0.93011 0.73894 0.78331 0.0
N269 N 0.08784 0.71114 0.79959 0.0
C270 C 0.08244 0.68781 0.81844 0.0
C271 C 0.12172 0.70419 0.83248 0.0
C272 C 0.16638 0.74349 0.8267 0.0
C273 C 0.17102 0.7668 0.80716 0.0
C274 C 0.1302 0.74982 0.79417 0.0
H275 H 0.04855 0.65664 0.82258 0.0
O276 O 0.9522 0.69217 0.81479 0.0
O277 O 1.00546 0.71544 0.78876 0.0
O278 O 0.92887 0.61144 0.78638 0.0
O279 O 1.00567 0.62885 0.78741 0.0
C280 C 0.21467 0.8057 0.79989 0.0
C281 C 0.21652 0.8273 0.78 0.0
H282 H 0.20505 0.86241 0.74187 0.0
H283 H 0.12792 0.82978 0.72209 0.0
H284 H 0.11787 0.68603 0.84753 0.0
H285 H 0.19685 0.75544 0.83738 0.0
H286 H 0.247 0.81936 0.80948 0.0
H287 H 0.25018 0.85744 0.77467 0.0
Mn288 Mn 0.27491 0.93296 0.12022 0.0
Mn289 Mn 0.36056 0.04262 0.10359 0.0
C290 C 0.29854 0.99937 0.14173 0.0
C291 C 0.19398 0.87404 0.12877 0.0
C292 C 0.38397 0.96872 0.11927 0.0
O293 O 0.26875 0.92475 0.08768 0.0
O294 O 0.33381 0.99636 0.07953 0.0
C295 C 0.30724 0.07232 0.07446 0.0
N296 N 0.33617 0.08105 0.09179 0.0
C297 C 0.36118 0.16516 0.09099 0.0
C298 C 0.33154 0.15694 0.07315 0.0
C299 C 0.30398 0.11018 0.06502 0.0
C300 C 0.36174 0.1257 0.1001 0.0
H301 H 0.28753 0.037 0.06769 0.0
C302 C 0.29838 0.95537 0.07426 0.0
O303 O 0.22797 0.86335 0.12717 0.0
O304 O 0.20592 0.91738 0.12339 0.0
N305 N 0.38896 0.0912 0.12505 0.0
C306 C 0.41353 0.09221 0.14299 0.0
C307 C 0.43916 0.13531 0.15447 0.0
C308 C 0.44037 0.1771 0.147 0.0
C309 C 0.41494 0.17511 0.1284 0.0
C310 C 0.3887 0.13079 0.11811 0.0
H311 H 0.41407 0.06051 0.14828 0.0
O312 O 0.28602 0.95761 0.14982 0.0
O313 O 0.30292 1.00279 0.12099 0.0
O314 O 0.34076 0.93356 0.12033 0.0
O315 O 0.39334 0.01069 0.11465 0.0
C316 C 0.41515 0.21544 0.11949 0.0
C317 C 0.38872 0.21058 0.10066 0.0
H318 H 0.32929 0.18614 0.06571 0.0
H319 H 0.28105 0.10349 0.05123 0.0
H320 H 0.45877 0.13659 0.16877 0.0
H321 H 0.46097 0.21049 0.15565 0.0
H322 H 0.43542 0.25032 0.127 0.0
H323 H 0.38882 0.24174 0.09407 0.0
Mn324 Mn 0.32784 0.2732 0.45096 0.0
Mn325 Mn 0.2936 0.34012 0.42131 0.0
C326 C 0.28986 0.31067 0.46701 0.0
C327 C 0.30958 0.19744 0.46521 0.0
C328 C 0.39598 0.37738 0.43628 0.0
O329 O 0.33204 0.25315 0.41998 0.0
O330 O 0.30359 0.29621 0.40356 0.0
C331 C 0.19854 0.25928 0.40878 0.0
N332 N 0.2255 0.30375 0.41748 0.0
C333 C 0.15597 0.31295 0.42152 0.0
C334 C 0.12748 0.26743 0.4124 0.0
C335 C 0.14881 0.24029 0.4062 0.0
C336 C 0.2051 0.3294 0.42422 0.0
H337 H 0.21491 0.23857 0.40381 0.0
C338 C 0.31852 0.26631 0.40334 0.0
O339 O 0.35368 0.23213 0.46307 0.0
O340 O 0.27664 0.2061 0.45826 0.0
N341 N 0.28199 0.38599 0.43564 0.0
C342 C 0.31526 0.43128 0.44189 0.0
C343 C 0.30023 0.46397 0.44769 0.0
C344 C 0.2514 0.45051 0.44624 0.0
C345 C 0.21808 0.40456 0.43883 0.0
C346 C 0.23516 0.37342 0.43336 0.0
H347 H 0.35309 0.44256 0.44235 0.0
O348 O 0.3135 0.29587 0.47852 0.0
O349 O 0.28759 0.30175 0.44672 0.0
O350 O 0.38874 0.34013 0.44686 0.0
O351 O 0.36362 0.37989 0.42536 0.0
C352 C 0.16875 0.38878 0.43627 0.0
C353 C 0.13761 0.34279 0.42785 0.0
H354 H 0.08921 0.25295 0.41013 0.0
H355 H 0.12705 0.20503 0.39926 0.0
H356 H 0.32633 0.49967 0.45303 0.0
H357 H 0.23996 0.47587 0.45066 0.0
H358 H 0.15442 0.41182 0.44064 0.0
H359 H 0.09973 0.331 0.426 0.0
Mn360 Mn 0.07302 0.28126 0.77618 0.0
Mn361 Mn 0.96624 0.22384 0.74982 0.0
C362 C 1.00644 0.218 0.79178 0.0
C363 C 0.14326 0.28097 0.78782 0.0
C364 C 1.00379 0.32147 0.77083 0.0
O365 O 0.09414 0.30065 0.74489 0.0
O366 O 0.02001 0.25884 0.73012 0.0
C367 C 0.98163 0.15333 0.72562 0.0
N368 N 0.9543 0.16329 0.73906 0.0
C369 C 0.89025 0.0812 0.73839 0.0
C370 C 0.91765 0.07003 0.72448 0.0
C371 C 0.96367 0.10621 0.71818 0.0
C372 C 0.91032 0.12864 0.74548 0.0
H373 H 1.01675 0.18115 0.7206 0.0
C374 C 0.06544 0.28632 0.72882 0.0
O375 O 0.14036 0.31987 0.78881 0.0
O376 O 0.1085 0.24519 0.77801 0.0
N377 N 0.9099 0.18777 0.76686 0.0
C378 C 0.88868 0.20427 0.78077 0.0
C379 C 0.84229 0.17271 0.78848 0.0
C380 C 0.81834 0.12447 0.78201 0.0
C381 C 0.8406 0.10847 0.76746 0.0
C382 C 0.88653 0.14175 0.76001 0.0
H383 H 0.90659 0.24144 0.7856 0.0
O384 O 0.04061 0.24991 0.80357 0.0
O385 O 1.01084 0.22473 0.77131 0.0
O386 O 0.04413 0.32731 0.77784 0.0
O387 O 0.97411 0.28449 0.76032 0.0
C388 C 0.81898 0.06086 0.75995 0.0
C389 C 0.84398 0.0471 0.74561 0.0
H390 H 0.9038 0.03379 0.71861 0.0
H391 H 0.98507 0.09787 0.70749 0.0
H392 H 0.82482 0.18566 0.79925 0.0
H393 H 0.78275 0.10015 0.78819 0.0
H394 H 0.78335 0.03439 0.76532 0.0
H395 H 0.82734 1.01018 0.74028 0.0
Mn396 Mn 0.81461 0.06961 0.10675 0.0
Mn397 Mn 0.75182 0.95578 0.08782 0.0
C398 C 0.81891 1.00786 0.12318 0.0
C399 C 0.88714 0.14145 0.11377 0.0
C400 C 0.70483 1.00272 0.11203 0.0
O401 O 0.80499 0.0813 0.07519 0.0
O402 O 0.75897 1.00295 0.06593 0.0
C403 C 0.81904 0.95847 0.05447 0.0
N404 N 0.7916 0.9378 0.07213 0.0
C405 C 0.80583 0.87115 0.06995 0.0
C406 C 0.83408 0.89166 0.05166 0.0
C407 C 0.84098 0.93569 0.04398 0.0
C408 C 0.78514 0.89568 0.07977 0.0
H409 H 0.82397 0.99191 0.04843 0.0
C410 C 0.77944 0.04783 0.06174 0.0
O411 O 0.84566 0.13883 0.11637 0.0
O412 O 0.8863 0.10527 0.10427 0.0
N413 N 0.74304 0.90662 0.10743 0.0
C414 C 0.72039 0.89533 0.12674 0.0
C415 C 0.71326 0.85399 0.13742 0.0
C416 C 0.7287 0.82426 0.12802 0.0
C417 C 0.75242 0.83699 0.10821 0.0
C418 C 0.75919 0.87904 0.09847 0.0
H419 H 0.70819 0.91791 0.13396 0.0
O420 O 0.82373 0.04403 0.13432 0.0
O421 O 0.80708 1.00623 0.10327 0.0
O422 O 0.74191 0.04467 0.11346 0.0
O423 O 0.70613 0.96759 0.10347 0.0
C424 C 0.77074 0.81036 0.09798 0.0
C425 C 0.79779 0.82763 0.07896 0.0
H426 H 0.85095 0.87413 0.04349 0.0
H427 H 0.86285 0.95184 0.02991 0.0
H428 H 0.69573 0.84508 0.15281 0.0
H429 H 0.72298 0.79233 0.13634 0.0
H430 H 0.76528 0.77717 0.10489 0.0
H431 H 0.81283 0.80752 0.07158 0.0
H432 H 0.95453 0.12432 0.13134 0.0
H433 H 0.91636 0.23541 0.12557 0.0
H434 H 0.98504 0.2882 0.14932 0.0
H435 H 0.98092 0.1422 0.18687 0.0
H436 H 0.02878 0.12824 0.18552 0.0
H437 H 0.98014 0.102 0.16652 0.0
H438 H 0.04097 0.13593 0.13516 0.0
H439 H 0.08984 0.16178 0.15406 0.0
H440 H 0.08395 0.19921 0.13426 0.0
H441 H 0.06211 0.32965 0.17368 0.0
H442 H 0.13265 0.35169 0.19731 0.0
H443 H 0.11114 0.20838 0.18992 0.0
C444 C 0.96119 0.16021 0.1346 0.0
C445 C 0.9308 0.17623 0.12602 0.0
C446 C 0.9397 0.2227 0.13156 0.0
C447 C 0.97857 0.25281 0.14512 0.0
C448 C 1.0075 0.23549 0.15352 0.0
C449 C 0.99863 0.18988 0.14856 0.0
C450 C 0.03216 0.1778 0.16068 0.0
C451 C 1.0038 0.13503 0.17579 0.0
C452 C 0.06359 0.16813 0.14511 0.0
C453 C 0.06189 0.22383 0.17313 0.0
C454 C 0.04788 0.25717 0.16866 0.0
C455 C 0.07262 0.30335 0.17748 0.0
C456 C 0.11258 0.3156 0.19097 0.0
C457 C 0.12674 0.28148 0.19601 0.0
C458 C 0.10046 0.23496 0.18701 0.0
H459 H 0.92329 0.14491 0.51127 0.0
H460 H 0.80234 0.16885 0.51845 0.0
H461 H 0.75059 0.09335 0.49874 0.0
H462 H 0.89553 0.09669 0.45802 0.0
H463 H 0.9145 0.05329 0.46257 0.0
H464 H 0.94151 0.10852 0.47756 0.0
H465 H 0.91818 0.0608 0.51307 0.0
H466 H 0.89145 1.00544 0.49819 0.0
H467 H 0.85631 0.01592 0.51774 0.0
H468 H 0.71161 0.01352 0.47766 0.0
H469 H 0.68947 0.93746 0.45869 0.0
H470 H 0.83644 0.96695 0.46497 0.0
C471 C 0.88582 0.13422 0.50886 0.0
C472 C 0.867 0.16309 0.51659 0.0
C473 C 0.81775 0.14755 0.51285 0.0
C474 C 0.78805 0.10464 0.50157 0.0
C475 C 0.80791 0.07733 0.494 0.0
C476 C 0.85573 0.09156 0.49761 0.0
C477 C 0.86851 0.056 0.48784 0.0
C478 C 0.90731 0.08007 0.47047 0.0
C479 C 0.88455 0.03319 0.50525 0.0
C480 C 0.82051 0.01947 0.47816 0.0
C481 C 0.78591 0.0323 0.48184 0.0
C482 C 0.73863 1.00341 0.47467 0.0
C483 C 0.72634 0.96023 0.4638 0.0
C484 C 0.7611 0.94605 0.46006 0.0
C485 C 0.80892 0.97668 0.46725 0.0
H486 H 0.70631 0.77182 0.85878 0.0
H487 H 0.79958 0.91935 0.83894 0.0
H488 H 0.84391 0.8939 0.81548 0.0
H489 H 0.80269 0.74239 0.86041 0.0
H490 H 0.76628 0.68197 0.85063 0.0
H491 H 0.73876 0.71035 0.86528 0.0
H492 H 0.68022 0.69377 0.83376 0.0
H493 H 0.70791 0.66575 0.81894 0.0
H494 H 0.70403 0.71499 0.80737 0.0
H495 H 0.87888 0.85505 0.79385 0.0
H496 H 0.90992 0.80569 0.77837 0.0
H497 H 0.80055 0.6813 0.81236 0.0
C498 C 0.73601 0.79859 0.84946 0.0
C499 C 0.74918 0.8479 0.85089 0.0
C500 C 0.78868 0.8816 0.83847 0.0
C501 C 0.81408 0.86744 0.82485 0.0
C502 C 0.80052 0.81913 0.82376 0.0
C503 C 0.76305 0.78506 0.83591 0.0
C504 C 0.75884 0.73594 0.83236 0.0
C505 C 0.76714 0.71651 0.85342 0.0
C506 C 0.70982 0.70051 0.82252 0.0
C507 C 0.79972 0.74811 0.81641 0.0
C508 C 0.82248 0.79638 0.81156 0.0
C509 C 0.8614 0.8172 0.79756 0.0
C510 C 0.87874 0.78861 0.78874 0.0
C511 C 0.85785 0.73929 0.79389 0.0
C512 C 0.81697 0.71857 0.80771 0.0
H513 H 0.9473 0.80723 0.19036 0.0
H514 H 0.92654 0.6649 0.20078 0.0
H515 H 1.0026 0.68819 0.1815 0.0
H516 H 0.99346 0.82136 0.13724 0.0
H517 H 0.03626 0.88437 0.14004 0.0
H518 H 0.98183 0.85757 0.15569 0.0
H519 H 0.0318 0.88791 0.19054 0.0
H520 H 0.08637 0.91526 0.17499 0.0
H521 H 0.07818 0.87314 0.19581 0.0
H522 H 0.08164 0.72743 0.16012 0.0
H523 H 0.15626 0.77908 0.13981 0.0
H524 H 0.12426 0.89506 0.14223 0.0
C525 C 0.95911 0.78113 0.18896 0.0
C526 C 0.93085 0.73419 0.19746 0.0
C527 C 0.94747 0.7011 0.19472 0.0
C528 C 0.99068 0.71402 0.18366 0.0
C529 C 1.01715 0.76024 0.17519 0.0
C530 C 1.00201 0.79334 0.17779 0.0
C531 C 0.03634 0.84029 0.16669 0.0
C532 C 1.01042 0.85154 0.14886 0.0
C533 C 0.05955 0.88159 0.18298 0.0
C534 C 0.07325 0.82858 0.15743 0.0
C535 C 0.06161 0.78223 0.16254 0.0
C536 C 0.09085 0.7637 0.15603 0.0
C537 C 0.13323 0.79331 0.14438 0.0
C538 C 0.14628 0.84114 0.1391 0.0
C539 C 0.11528 0.85853 0.14564 0.0
H540 H 0.22239 0.13228 0.48237 0.0
H541 H 0.36768 0.15855 0.47375 0.0
H542 H 0.34578 0.08296 0.49304 0.0
H543 H 0.2077 0.08692 0.53577 0.0
H544 H 0.14489 0.04349 0.53233 0.0
H545 H 0.17176 0.09804 0.51696 0.0
H546 H 0.14369 0.04863 0.48184 0.0
H547 H 0.11657 0.99395 0.49712 0.0
H548 H 0.16018 1.00353 0.47669 0.0
H549 H 0.30515 1.00082 0.51325 0.0
H550 H 0.25244 0.92594 0.53344 0.0
H551 H 0.13686 0.9588 0.53049 0.0
C552 C 0.2496 0.12202 0.48433 0.0
C553 C 0.29672 0.15131 0.47627 0.0
C554 C 0.3313 0.13674 0.47963 0.0
C555 C 0.31912 0.09374 0.49059 0.0
C556 C 0.27229 0.06581 0.49843 0.0
C557 C 0.23828 0.07981 0.49553 0.0
C558 C 0.19103 0.04492 0.50613 0.0
C559 C 0.17811 0.06984 0.52385 0.0
C560 C 0.15048 0.02136 0.48945 0.0
C561 C 0.20344 1.0089 0.51542 0.0
C562 C 0.25023 0.02095 0.5107 0.0
C563 C 0.26862 0.99152 0.51715 0.0
C564 C 0.23848 0.949 0.52864 0.0
C565 C 0.19067 0.9366 0.53392 0.0
C566 C 0.17345 0.96739 0.52715 0.0
H567 H 0.2069 0.12171 0.86341 0.0
H568 H 0.35482 0.23699 0.86675 0.0
H569 H 0.33345 0.28802 0.84462 0.0
H570 H 0.19135 0.13872 0.8088 0.0
H571 H 0.12897 0.12196 0.81171 0.0
H572 H 0.15535 0.09768 0.8296 0.0
H573 H 0.12955 0.12953 0.86222 0.0
H574 H 0.10274 0.15359 0.84442 0.0
H575 H 0.14737 0.19221 0.86358 0.0
H576 H 0.29203 0.32677 0.82169 0.0
H577 H 0.23906 0.34436 0.79872 0.0
H578 H 0.12291 0.19878 0.80795 0.0
C579 C 0.23475 0.15811 0.85996 0.0
C580 C 0.28235 0.17576 0.86737 0.0
C581 C 0.31794 0.22295 0.86163 0.0
C582 C 0.30604 0.25212 0.84901 0.0
C583 C 0.25862 0.23319 0.84178 0.0
C584 C 0.22385 0.18686 0.84694 0.0
C585 C 0.17652 0.17274 0.83598 0.0
C586 C 0.16224 0.13027 0.82061 0.0
C587 C 0.13671 0.16136 0.85254 0.0
C588 C 0.18955 0.2183 0.82386 0.0
C589 C 0.2367 0.25336 0.82756 0.0
C590 C 0.25531 0.29914 0.81856 0.0
C591 C 0.22506 0.30893 0.80551 0.0
C592 C 0.17718 0.27271 0.8011 0.0
C593 C 0.15971 0.227 0.8105 0.0
H594 H 0.63086 0.55299 0.24211 0.0
H595 H 0.6584 0.57438 0.17412 0.0
H596 H 0.57388 0.51264 0.1667 0.0
H597 H 0.54174 0.42013 0.23947 0.0
H598 H 0.50679 0.42519 0.26088 0.0
H599 H 0.57095 0.46477 0.26008 0.0
H600 H 0.55674 0.53722 0.26188 0.0
H601 H 0.49257 0.49802 0.26168 0.0
H602 H 0.5206 0.54398 0.24159 0.0
H603 H 0.48198 0.45618 0.16717 0.0
H604 H 0.39602 0.39938 0.17552 0.0
H605 H 0.4299 0.41578 0.24315 0.0
C606 C 0.61983 0.54242 0.22567 0.0
C607 C 0.65177 0.56698 0.20867 0.0
C608 C 0.63519 0.5544 0.18735 0.0
C609 C 0.5869 0.52004 0.18301 0.0
C610 C 0.55558 0.4984 0.20021 0.0
C611 C 0.57186 0.50811 0.22113 0.0
C612 C 0.53078 0.48202 0.23682 0.0
C613 C 0.53798 0.44586 0.25009 0.0
C614 C 0.52486 0.51745 0.25134 0.0
C615 C 0.4887 0.45684 0.22155 0.0
C616 C 0.50342 0.46685 0.20047 0.0
C617 C 0.47027 0.44796 0.18364 0.0
C618 C 0.42137 0.41642 0.18849 0.0
C619 C 0.40622 0.4042 0.20997 0.0
C620 C 0.44037 0.42541 0.2266 0.0
H621 H 0.06148 0.66447 0.54629 0.0
H622 H 1.0008 0.65475 0.60949 0.0
H623 H 0.97119 0.56784 0.60996 0.0
H624 H 0.96745 0.55384 0.52595 0.0
H625 H 1.00648 0.53838 0.51145 0.0
H626 H 0.02459 0.60043 0.51604 0.0
H627 H 0.10327 0.61457 0.53425 0.0
H628 H 0.08593 0.55293 0.52915 0.0
H629 H 0.09989 0.57633 0.55603 0.0
H630 H 0.94627 0.48076 0.60333 0.0
H631 H 0.9383 0.40318 0.59197 0.0
H632 H 1.01372 0.46875 0.53315 0.0
C633 C 0.04278 0.64431 0.56041 0.0
C634 C 0.03351 0.66683 0.57783 0.0
C635 C 1.0084 0.63865 0.59589 0.0
C636 C 0.99108 0.58903 0.59627 0.0
C637 C 0.99921 0.56772 0.57852 0.0
C638 C 0.02525 0.59458 0.56109 0.0
C639 C 0.02978 0.56291 0.54426 0.0
C640 C 1.00563 0.56397 0.52318 0.0
C641 C 0.08286 0.57755 0.54072 0.0
C642 C 1.00224 0.51418 0.55495 0.0
C643 C 0.98452 0.51761 0.57464 0.0
C644 C 0.95958 0.4776 0.58784 0.0
C645 C 0.95451 0.43348 0.58115 0.0
C646 C 0.97401 0.4297 0.56143 0.0
C647 C 0.99717 0.47037 0.54801 0.0
H648 H 0.4004 0.98677 0.91242 0.0
H649 H 0.39176 0.01943 0.84594 0.0
H650 H 0.44391 0.98548 0.8359 0.0
H651 H 0.52543 0.01531 0.91125 0.0
H652 H 0.51428 0.96829 0.92996 0.0
H653 H 0.47809 0.99663 0.93083 0.0
H654 H 0.40187 0.91277 0.92722 0.0
H655 H 0.43814 0.88452 0.92528 0.0
H656 H 0.39566 0.87565 0.90442 0.0
H657 H 0.49586 0.94483 0.83359 0.0
H658 H 0.55559 0.9188 0.83985 0.0
H659 H 0.5283 0.9124 0.90786 0.0
C660 C 0.41049 0.98785 0.89579 0.0
C661 C 0.39278 1.00645 0.87996 0.0
C662 C 0.40598 1.0065 0.85834 0.0
C663 C 0.43482 0.98645 0.85251 0.0
C664 C 0.45004 0.96656 0.86851 0.0
C665 C 0.43919 0.96831 0.88978 0.0
C666 C 0.46104 0.9463 0.90413 0.0
C667 C 0.49685 0.98386 0.91996 0.0
C668 C 0.42182 0.90219 0.91596 0.0
C669 C 0.48634 0.93192 0.88771 0.0
C670 C 0.479 0.94308 0.86719 0.0
C671 C 0.50128 0.93552 0.84958 0.0
C672 C 0.53437 0.91952 0.85321 0.0
C673 C 0.54535 0.91179 0.87428 0.0
C674 C 0.51901 0.91576 0.89154 0.0
H675 H 0.60348 0.64018 0.40365 0.0
H676 H 0.60817 0.67905 0.47037 0.0
H677 H 0.54554 0.59579 0.47878 0.0
H678 H 0.46996 0.55594 0.40255 0.0
H679 H 0.47595 0.51624 0.384 0.0
H680 H 0.51851 0.5796 0.38342 0.0
H681 H 0.58772 0.56075 0.38774 0.0
H682 H 0.5453 0.49746 0.38916 0.0
H683 H 0.58797 0.52654 0.41052 0.0
H684 H 0.49107 0.50571 0.48057 0.0
H685 H 0.43229 0.41993 0.47444 0.0
H686 H 0.45628 0.44084 0.40609 0.0
C687 C 0.58969 0.63151 0.41983 0.0
C688 C 0.60975 0.66622 0.43632 0.0
C689 C 0.59212 0.65335 0.45745 0.0
C690 C 0.55718 0.60595 0.46241 0.0
C691 C 0.53952 0.57206 0.44596 0.0
C692 C 0.55373 0.58464 0.42495 0.0
C693 C 0.52829 0.54149 0.41022 0.0
C694 C 0.49626 0.54875 0.3941 0.0
C695 C 0.5645 0.53097 0.39874 0.0
C696 C 0.49839 0.50249 0.42628 0.0
C697 C 0.50624 0.5207 0.44686 0.0
C698 C 0.48421 0.49122 0.46449 0.0
C699 C 0.45153 0.44237 0.46091 0.0
C700 C 0.44047 0.42366 0.43986 0.0
C701 C 0.46477 0.45408 0.42237 0.0
H702 H 0.01823 0.56808 0.80666 0.0
H703 H 0.87988 0.51658 0.77575 0.0
H704 H 0.87343 0.43706 0.77099 0.0
H705 H 0.0614 0.51805 0.77147 0.0
H706 H 0.09397 0.50292 0.79048 0.0
H707 H 0.08345 0.55185 0.79595 0.0
H708 H 0.04219 0.513 0.83183 0.0
H709 H 0.05355 0.46432 0.82677 0.0
H710 H 0.99317 0.45197 0.83208 0.0
H711 H 0.88832 0.36885 0.76443 0.0
H712 H 0.91859 0.31373 0.75852 0.0
H713 H 0.05059 0.41017 0.79243 0.0
C714 C 0.98562 0.53961 0.79956 0.0
C715 C 0.94923 0.5486 0.79169 0.0
C716 C 0.90766 0.51048 0.78226 0.0
C717 C 0.90403 0.46533 0.77933 0.0
C718 C 0.9421 0.45889 0.78605 0.0
C719 C 0.9818 0.4948 0.79629 0.0
C720 C 0.01996 0.48057 0.80004 0.0
C721 C 0.06748 0.51542 0.78881 0.0
C722 C 0.02766 0.47726 0.82411 0.0
C723 C 0.99633 0.43144 0.7896 0.0
C724 C 0.95121 0.41964 0.78191 0.0
C725 C 0.92319 0.37746 0.77069 0.0
C726 C 0.94125 0.34638 0.76734 0.0
C727 C 0.98744 0.35708 0.77502 0.0
C728 C 1.01523 0.40048 0.78642 0.0
H729 H 0.47792 0.03922 0.11638 0.0
H730 H 0.38932 0.88694 0.12956 0.0
H731 H 0.4638 0.88166 0.13333 0.0
H732 H 0.56161 0.03062 0.08382 0.0
H733 H 0.61199 0.08624 0.09289 0.0
H734 H 0.55234 0.07823 0.09352 0.0
H735 H 0.56172 0.09833 0.13402 0.0
H736 H 0.62146 0.10625 0.13357 0.0
H737 H 0.57729 0.06449 0.15204 0.0
H738 H 0.54851 0.89321 0.13318 0.0
H739 H 0.63333 0.9175 0.12702 0.0
H740 H 0.66562 0.06265 0.11319 0.0
C741 C 0.4735 1.00449 0.12032 0.0
C742 C 0.42715 0.9633 0.12274 0.0
C743 C 0.42407 0.91896 0.12771 0.0
C744 C 0.46626 0.91578 0.12993 0.0
C745 C 0.51113 0.95727 0.12719 0.0
C746 C 0.51476 1.00071 0.12244 0.0
C747 C 0.56658 0.03954 0.11873 0.0
C748 C 0.57351 0.05982 0.09589 0.0
C749 C 0.5827 0.07951 0.1356 0.0
C750 C 0.59212 0.01113 0.12173 0.0
C751 C 0.55952 0.96388 0.12688 0.0
C752 C 0.57414 0.93013 0.12934 0.0
C753 C 0.62266 0.94447 0.12581 0.0
C754 C 0.65654 0.99224 0.11973 0.0
C755 C 0.64106 0.02626 0.11824 0.0
H756 H 0.28406 0.06995 0.12542 0.0
H757 H 0.27186 0.99192 0.18376 0.0
H758 H 0.23153 0.03105 0.20125 0.0
H759 H 0.32477 0.17505 0.14581 0.0
H760 H 0.2918 0.19748 0.13083 0.0
H761 H 0.30013 0.15125 0.11977 0.0
H762 H 0.21254 0.09457 0.11382 0.0
H763 H 0.19998 0.1397 0.12404 0.0
H764 H 0.17094 0.08061 0.13566 0.0
H765 H 0.20179 0.08521 0.21367 0.0
H766 H 0.20966 0.16322 0.22323 0.0
H767 H 0.25675 0.21512 0.15905 0.0
C768 C 0.27413 0.06187 0.14198 0.0
C769 C 0.28239 0.02879 0.15328 0.0
C770 C 0.26655 0.01767 0.17477 0.0
C771 C 0.24262 0.03888 0.1847 0.0
C772 C 0.23549 0.07169 0.17307 0.0
C773 C 0.25141 0.08362 0.15225 0.0
C774 C 0.24697 0.12573 0.14453 0.0
C775 C 0.29399 0.16501 0.13482 0.0
C776 C 0.20511 0.10915 0.12858 0.0
C777 C 0.23503 0.14099 0.1653 0.0
C778 C 0.2233 0.10644 0.18091 0.0
C779 C 0.21206 0.11283 0.20167 0.0
C780 C 0.21797 0.15755 0.20708 0.0
C781 C 0.2385 0.19577 0.19225 0.0
C782 C 0.24329 0.18657 0.17075 0.0
H783 H 0.03532 0.26304 0.50565 0.0
H784 H 0.0894 0.41522 0.49874 0.0
H785 H 0.16839 0.42624 0.4867 0.0
H786 H 0.13421 0.25959 0.52277 0.0
H787 H 0.12743 0.2113 0.50586 0.0
H788 H 0.07544 0.21557 0.51335 0.0
H789 H 0.05458 0.21352 0.47376 0.0
H790 H 0.10763 0.21234 0.4651 0.0
H791 H 0.09617 0.25876 0.45586 0.0
H792 H 0.24623 0.42017 0.49031 0.0
H793 H 0.30835 0.39732 0.48292 0.0
H794 H 0.19659 0.2494 0.47526 0.0
C795 C 0.06352 0.29852 0.50106 0.0
C796 C 0.05859 0.33908 0.50452 0.0
C797 C 0.09451 0.38453 0.49744 0.0
C798 C 0.13908 0.39096 0.49068 0.0
C799 C 0.14509 0.35093 0.49025 0.0
C800 C 0.10703 0.30514 0.4933 0.0
C801 C 0.12118 0.26759 0.48904 0.0
C802 C 0.1141 0.2367 0.50895 0.0
C803 C 0.09334 0.23621 0.46978 0.0
C804 C 0.17391 0.29976 0.48417 0.0
C805 C 0.18756 0.34761 0.48637 0.0
C806 C 0.23581 0.38322 0.48711 0.0
C807 C 0.27066 0.3701 0.48298 0.0
C808 C 0.25621 0.32265 0.47693 0.0
C809 C 0.20774 0.28657 0.47862 0.0
H810 H 0.96106 0.20403 0.82981 0.0
H811 H 0.9762 0.12943 0.77534 0.0
H812 H 0.90263 0.05503 0.78614 0.0
H813 H 0.90731 0.08701 0.86578 0.0
H814 H 0.87218 0.10765 0.88006 0.0
H815 H 0.93161 0.15018 0.87067 0.0
H816 H 0.89501 0.19525 0.85205 0.0
H817 H 0.83441 0.15051 0.85841 0.0
H818 H 0.85098 0.16602 0.83118 0.0
H819 H 0.81552 1.00166 0.79586 0.0
H820 H 0.73459 0.9593 0.81176 0.0
H821 H 0.78473 0.06204 0.86375 0.0
C822 C 0.94958 0.17149 0.82065 0.0
C823 C 0.97088 0.17243 0.80093 0.0
C824 C 0.95724 0.1294 0.78969 0.0
C825 C 0.91633 0.087 0.7959 0.0
C826 C 0.89204 0.08847 0.81406 0.0
C827 C 0.91016 0.12848 0.82718 0.0
C828 C 0.87673 0.12091 0.84555 0.0
C829 C 0.89824 0.11613 0.86677 0.0
C830 C 0.86375 0.16074 0.84682 0.0
C831 C 0.83427 0.0737 0.83891 0.0
C832 C 0.84383 0.05523 0.82086 0.0
C833 C 0.8081 0.01488 0.81048 0.0
C834 C 0.76199 0.99158 0.81949 0.0
C835 C 0.75264 1.00779 0.83913 0.0
C836 C 0.78946 0.04965 0.8486 0.0
H837 H 0.82307 0.98449 0.1644 0.0
H838 H 0.86369 0.96939 0.10023 0.0
H839 H 0.87283 0.90092 0.11162 0.0
H840 H 0.91131 0.93468 0.18798 0.0
H841 H 0.87254 0.91253 0.21102 0.0
H842 H 0.88725 0.96968 0.19956 0.0
H843 H 0.79607 0.94119 0.19537 0.0
H844 H 0.78514 0.88675 0.20749 0.0
H845 H 0.75798 0.88489 0.18185 0.0
H846 H 0.84327 0.81904 0.12632 0.0
H847 H 0.80032 0.74188 0.14549 0.0
H848 H 0.79306 0.81676 0.20191 0.0
C849 C 0.83585 0.96782 0.1531 0.0
C850 C 0.83795 0.97795 0.13119 0.0
C851 C 0.85743 0.95824 0.11679 0.0
C852 C 0.86426 0.92053 0.12324 0.0
C853 C 0.85527 0.90637 0.14454 0.0
C854 C 0.8456 0.93206 0.15965 0.0
C855 C 0.83475 0.90761 0.1811 0.0
C856 C 0.8791 0.9326 0.19577 0.0
C857 C 0.79057 0.90493 0.19194 0.0
C858 C 0.82644 0.85909 0.1742 0.0
C859 C 0.8416 0.85995 0.15344 0.0
C860 C 0.83231 0.81813 0.14277 0.0
C861 C 0.80707 0.77442 0.15363 0.0
C862 C 0.79186 0.77301 0.17503 0.0
C863 C 0.8023 0.81612 0.18537 0.0
H864 H 0.84041 0.8491 0.47931 0.0
H865 H 0.72622 0.70611 0.49468 0.0
H866 H 0.78438 0.69143 0.51507 0.0
H867 H 0.94032 0.83726 0.47428 0.0
H868 H 0.97939 0.88973 0.48956 0.0
H869 H 0.92791 0.88598 0.47622 0.0
H870 H 0.90327 0.90413 0.51307 0.0
H871 H 0.95159 0.90225 0.52697 0.0
H872 H 0.89001 0.86309 0.5349 0.0
H873 H 0.8617 0.68614 0.5199 0.0
H874 H 0.94245 0.70212 0.53172 0.0
H875 H 0.99865 0.85431 0.52325 0.0
C876 C 0.82781 0.81494 0.48722 0.0
C877 C 0.78057 0.77707 0.48431 0.0
C878 C 0.76351 0.73405 0.49586 0.0
C879 C 0.79601 0.72563 0.50741 0.0
C880 C 0.84397 0.76199 0.508 0.0
C881 C 0.85886 0.80705 0.49978 0.0
C882 C 0.91072 0.84182 0.50519 0.0
C883 C 0.94127 0.86504 0.48509 0.0
C884 C 0.91416 0.88009 0.52099 0.0
C885 C 0.92397 0.8078 0.51564 0.0
C886 C 0.88543 0.76154 0.51636 0.0
C887 C 0.89136 0.72253 0.52114 0.0
C888 C 0.93699 0.73174 0.5276 0.0
C889 C 0.97481 0.7794 0.52961 0.0
C890 C 0.969 0.81772 0.5228 0.0
H891 H 0.2143 0.97394 0.82988 0.0
H892 H 0.15403 0.96958 0.89222 0.0
H893 H 0.0781 0.89748 0.88171 0.0
H894 H 0.08172 0.92181 0.80345 0.0
H895 H 0.09907 0.89502 0.78245 0.0
H896 H 0.14221 0.95295 0.79308 0.0
H897 H 0.20111 0.9213 0.8021 0.0
H898 H 0.15716 0.86638 0.79035 0.0
H899 H 0.1781 0.8662 0.81715 0.0
H900 H 0.02562 0.81323 0.86898 0.0
H901 H 0.98616 0.73461 0.85081 0.0
H902 H 0.07265 0.80068 0.79427 0.0
C903 C 0.18439 0.95839 0.84096 0.0
C904 C 0.19063 0.9733 0.86238 0.0
C905 C 0.15062 0.95503 0.87629 0.0
C906 C 0.10712 0.91509 0.8703 0.0
C907 C 0.10383 0.89687 0.84981 0.0
C908 C 0.13989 0.92016 0.83479 0.0
C909 C 0.12735 0.89265 0.81405 0.0
C910 C 0.11163 0.91706 0.79727 0.0
C911 C 0.16863 0.88628 0.80557 0.0
C912 C 0.08499 0.84595 0.82137 0.0
C913 C 0.07053 0.84979 0.84174 0.0
C914 C 0.03555 0.81008 0.85275 0.0
C915 C 1.01406 0.76547 0.84247 0.0
C916 C 0.02718 0.76118 0.82128 0.0
C917 C 0.06302 0.80214 0.81069 0.0
H918 H 0.38357 0.30868 0.37197 0.0
H919 H 0.24534 0.1854 0.38639 0.0
H920 H 0.21406 0.19384 0.35159 0.0
H921 H 0.34384 0.37757 0.3523 0.0
H922 H 0.38598 0.40532 0.33066 0.0
H923 H 0.40272 0.38347 0.35371 0.0
H924 H 0.42153 0.32795 0.33045 0.0
H925 H 0.40904 0.35282 0.30716 0.0
H926 H 0.37787 0.28881 0.31106 0.0
H927 H 0.19321 0.22781 0.31919 0.0
H928 H 0.19319 0.26406 0.28436 0.0
H929 H 0.34473 0.36635 0.29187 0.0
C930 C 0.34801 0.28107 0.36703 0.0
C931 C 0.31663 0.24682 0.38197 0.0
C932 C 0.27003 0.21184 0.37514 0.0
C933 C 0.25148 0.21734 0.35564 0.0
C934 C 0.28108 0.25659 0.34283 0.0
C935 C 0.32914 0.28635 0.34768 0.0
C936 C 0.35287 0.32714 0.33179 0.0
C937 C 0.3725 0.37625 0.34279 0.0
C938 C 0.39266 0.32397 0.31937 0.0
C939 C 0.31045 0.31636 0.31756 0.0
C940 C 0.26916 0.27595 0.32434 0.0
C941 C 0.22554 0.25907 0.31356 0.0
C942 C 0.22544 0.28092 0.2941 0.0
C943 C 0.26892 0.31805 0.28546 0.0
C944 C 0.3108 0.33859 0.29829 0.0
H945 H 0.971 0.32537 0.62291 0.0
H946 H 0.98178 0.20539 0.59819 0.0
H947 H 0.02092 0.20244 0.63182 0.0
H948 H 0.08199 0.38501 0.6453 0.0
H949 H 0.06614 0.40638 0.66891 0.0
H950 H 0.03088 0.39411 0.6449 0.0
H951 H 0.95268 0.33405 0.66477 0.0
H952 H 0.98709 0.34908 0.68914 0.0
H953 H 0.95239 0.28734 0.68078 0.0
H954 H 0.06933 0.22074 0.66629 0.0
H955 H 0.09907 0.24138 0.70344 0.0
H956 H 0.05959 0.35175 0.70446 0.0
C957 C 0.97859 0.29641 0.6252 0.0
C958 C 0.97241 0.26487 0.6082 0.0
C959 C 0.9848 0.22881 0.61131 0.0
C960 C 1.00831 0.22782 0.63013 0.0
C961 C 0.01846 0.26282 0.64568 0.0
C962 C 1.00225 0.2952 0.64377 0.0
C963 C 0.01874 0.32997 0.6624 0.0
C964 C 0.05136 0.38193 0.65491 0.0
C965 C 0.97515 0.32477 0.67503 0.0
C966 C 0.04701 0.31232 0.67511 0.0
C967 C 0.04712 0.27404 0.66506 0.0
C968 C 0.0693 0.25059 0.6743 0.0
C969 C 0.08746 0.2635 0.69521 0.0
C970 C 0.08208 0.2985 0.7067 0.0
C971 C 0.0655 0.32589 0.69581 0.0
H972 H 0.70238 0.03082 0.03753 0.0
H973 H 0.85445 0.07841 0.03454 0.0
H974 H 0.84348 0.04272 -0.0015 0.0
H975 H 0.65938 0.92319 0.01528 0.0
H976 H 0.61251 0.92203 -0.00107 0.0
H977 H 0.63229 0.95863 0.02267 0.0
H978 H 0.65328 0.03534 0.0011 0.0
H979 H 0.63016 0.99845 0.97754 0.0
H980 H 0.69027 0.04932 0.9775 0.0
H981 H 0.81157 0.98466 0.967 0.0
H982 H 0.76875 0.93923 0.9346 0.0
H983 H 0.63902 0.93589 0.95661 0.0
C984 C 0.73392 0.03685 0.02862 0.0
C985 C 0.7793 0.05742 0.03878 0.0
C986 C 0.81957 0.06356 0.02689 0.0
C987 C 0.81339 0.04217 0.00663 0.0
C988 C 0.76704 0.01698 -0.00185 0.0
C989 C 0.72851 0.01687 0.00815 0.0
C990 C 0.68241 0.98744 0.99562 0.0
C991 C 0.64444 0.94535 0.00894 0.0
C992 C 0.66289 0.01955 0.98744 0.0
C993 C 0.70069 0.96962 0.97742 0.0
C994 C 0.74935 0.98603 0.97945 0.0
C995 C 0.77369 0.97254 0.965 0.0
C996 C 0.74869 0.94545 0.94693 0.0
C997 C 0.70052 0.93381 0.94316 0.0
C998 C 0.6756 0.94365 0.95926 0.0
H999 H 0.70444 0.67186 0.28956 0.0
H1000 H 0.85612 0.76333 0.27597 0.0
H1001 H 0.86473 0.80993 0.30892 0.0
H1002 H 0.6824 0.7614 0.30663 0.0
H1003 H 0.64067 0.7274 0.32763 0.0
H1004 H 0.64707 0.697 0.30471 0.0
H1005 H 0.66808 0.64452 0.32888 0.0
H1006 H 0.65871 0.6726 0.3519 0.0
H1007 H 0.71482 0.67304 0.34871 0.0
H1008 H 0.85422 0.85113 0.34185 0.0
H1009 H 0.83045 0.87002 0.37659 0.0
H1010 H 0.68519 0.75324 0.3674 0.0
C1011 C 0.73996 0.70035 0.29404 0.0
C1012 C 0.77978 0.71353 0.28034 0.0
C1013 C 0.82542 0.75175 0.28647 0.0
C1014 C 0.83034 0.77913 0.30491 0.0
C1015 C 0.78935 0.76751 0.31706 0.0
C1016 C 0.74538 0.728 0.31223 0.0
C1017 C 0.70667 0.72305 0.32763 0.0
C1018 C 0.66686 0.72748 0.31594 0.0
C1019 C 0.68587 0.67552 0.34002 0.0
C1020 C 0.73563 0.76589 0.34204 0.0
C1021 C 0.78311 0.79159 0.33551 0.0
C1022 C 0.81708 0.83135 0.347 0.0
C1023 C 0.80302 0.84264 0.36649 0.0
C1024 C 0.75562 0.81404 0.37437 0.0
C1025 C 0.72104 0.77702 0.36133 0.0
H1026 H 0.04778 0.8381 0.63955 0.0
H1027 H 0.1113 0.75595 0.61509 0.0
H1028 H 0.07692 0.7002 0.64577 0.0
H1029 H 0.0648 0.8239 0.69648 0.0
H1030 H 1.00876 0.82053 0.70369 0.0
H1031 H 0.04167 0.85471 0.68066 0.0
H1032 H 0.96565 0.80534 0.65739 0.0
H1033 H 0.93297 0.76961 0.68016 0.0
H1034 H 0.93849 0.74101 0.65633 0.0
H1035 H 0.0304 0.65054 0.67795 0.0
H1036 H 0.99176 0.62139 0.71315 0.0
H1037 H 0.95754 0.73565 0.71592 0.0
C1038 C 0.05577 0.80923 0.641 0.0
C1039 C 0.08233 0.80143 0.62496 0.0
C1040 C 0.09168 0.76306 0.62732 0.0
C1041 C 0.07154 0.73075 0.6445 0.0
C1042 C 0.04272 0.73777 0.65921 0.0
C1043 C 0.03607 0.7769 0.65793 0.0
C1044 C 1.00406 0.77688 0.6758 0.0
C1045 C 0.03145 0.82164 0.69001 0.0
C1046 C 0.95755 0.77298 0.66687 0.0
C1047 C 0.99375 0.73164 0.68754 0.0
C1048 C 1.01577 0.70919 0.67751 0.0
C1049 C 1.01302 0.66782 0.68587 0.0
C1050 C 0.99028 0.65104 0.70571 0.0
C1051 C 0.97086 0.67573 0.71708 0.0
C1052 C 0.97047 0.71505 0.7073 0.0
H1053 H 0.35666 0.96781 0.04018 0.0
H1054 H 0.2149 0.94204 0.0575 0.0
H1055 H 0.21237 0.98286 0.02449 0.0
H1056 H 0.40299 0.07946 0.01934 0.0
H1057 H 0.43369 0.07239 0.99664 0.0
H1058 H 0.42328 0.03633 0.0202 0.0
H1059 H 0.37768 0.95757 -0.00173 0.0
H1060 H 0.39126 0.99347 0.97446 0.0
H1061 H 0.32982 0.94951 0.98056 0.0
H1062 H 0.2336 0.0418 0.99383 0.0
H1063 H 0.25743 0.07942 0.95822 0.0
H1064 H 0.3805 0.05825 0.95857 0.0
C1065 C 0.32388 0.96814 0.03634 0.0
C1066 C 0.28601 0.95194 0.0514 0.0
C1067 C 0.24393 0.95349 0.04602 0.0
C1068 C 0.24282 0.97793 0.02761 0.0
C1069 C 0.28317 0.99841 0.01435 0.0
C1070 C 0.32151 0.99094 0.01769 0.0
C1071 C 0.35924 0.01451 0.00035 0.0
C1072 C 0.40765 0.05294 0.00971 0.0
C1073 C 0.3648 0.97651 0.98765 0.0
C1074 C 0.33653 0.03717 0.98694 0.0
C1075 C 0.29356 0.029 0.99577 0.0
C1076 C 0.26664 0.04743 0.98653 0.0
C1077 C 0.28125 0.07008 0.96655 0.0
C1078 C 0.32057 0.07141 0.95561 0.0
C1079 C 0.35073 0.05841 0.96671 0.0
loop_
_geom_bond_atom_site_label_1
_geom_bond_atom_site_label_2
_geom_bond_distance
_geom_bond_site_symmetry_2
_ccdc_geom_bond_type
Mn0 O5 2.095 . S
Mn0 O15 2.162 . S
Mn0 O16 2.297 . S
Mn0 O24 2.385 . S
Mn0 O25 2.209 . S
Mn0 O26 2.094 . S
Mn1 O6 2.121 . S
Mn1 N8 2.257 . S
Mn1 N17 2.282 . S
Mn1 O25 2.215 . S
Mn1 O27 2.117 . S
C2 O24 1.234 . S
C2 O25 1.283 . S
C3 O15 1.281 . S
C3 O16 1.236 . S
C4 O26 1.240 . S
C4 O27 1.264 . S
O5 Mn0 2.095 . S
O5 C14 1.250 . S
O6 Mn1 2.121 . S
O6 C14 1.258 . S
C7 N8 1.326 . S
C7 C11 1.460 . S
C7 H13 0.929 . S
N8 Mn1 2.257 . S
N8 C7 1.326 . S
N8 C12 1.362 . S
C9 C10 1.258 . S
C9 C12 1.431 . S
C9 C29 1.449 . S
C10 C9 1.258 . S
C10 C11 1.477 . S
C10 H30 0.931 . S
C11 C7 1.460 . S
C11 C10 1.477 . S
C11 H31 0.930 . S
C12 N8 1.362 . S
C12 C9 1.431 . S
C12 C22 1.476 . S
H13 C7 0.929 . S
C14 O5 1.250 . S
C14 O6 1.258 . S
O15 Mn0 2.162 . S
O15 C3 1.281 . S
O16 Mn0 2.297 . S
O16 C3 1.236 . S
N17 Mn1 2.282 . S
N17 C18 1.328 . S
N17 C22 1.318 . S
C18 N17 1.328 . S
C18 C19 1.457 . S
C18 H23 0.929 . S
C19 C18 1.457 . S
C19 C20 1.291 . S
C19 H32 0.931 . S
C20 C19 1.291 . S
C20 C21 1.373 . S
C20 H33 0.929 . S
C21 C20 1.373 . S
C21 C22 1.396 . S
C21 C28 1.403 . S
C22 C12 1.476 . S
C22 N17 1.318 . S
C22 C21 1.396 . S
H23 C18 0.929 . S
O24 Mn0 2.385 . S
O24 C2 1.234 . S
O25 Mn0 2.209 . S
O25 Mn1 2.215 . S
O25 C2 1.283 . S
O26 Mn0 2.094 . S
O26 C4 1.240 . S
O27 Mn1 2.117 . S
O27 C4 1.264 . S
C28 C21 1.403 . S
C28 C29 1.399 . S
C28 H34 0.929 . S
C29 C9 1.449 . S
C29 C28 1.399 . S
C29 H35 0.930 . S
H30 C10 0.931 . S
H31 C11 0.930 . S
H32 C19 0.931 . S
H33 C20 0.929 . S
H34 C28 0.929 . S
H35 C29 0.930 . S
Mn36 O41 2.095 . S
Mn36 O51 2.162 . S
Mn36 O52 2.297 . S
Mn36 O60 2.385 . S
Mn36 O61 2.209 1_655 S
Mn36 O62 2.094 . S
Mn37 O42 2.121 . S
Mn37 N44 2.257 . S
Mn37 N53 2.282 . S
Mn37 O61 2.215 . S
Mn37 O63 2.117 . S
C38 O60 1.234 1_455 S
C38 O61 1.283 . S
C39 O51 1.281 . S
C39 O52 1.236 . S
C40 O62 1.240 . S
C40 O63 1.264 1_655 S
O41 Mn36 2.095 . S
O41 C50 1.250 . S
O42 Mn37 2.121 . S
O42 C50 1.258 1_455 S
C43 N44 1.326 . S
C43 C47 1.460 . S
C43 H49 0.929 . S
N44 Mn37 2.257 . S
N44 C43 1.326 . S
N44 C48 1.362 . S
C45 C46 1.258 . S
C45 C48 1.431 . S
C45 C65 1.449 . S
C46 C45 1.258 . S
C46 C47 1.477 . S
C46 H66 0.931 . S
C47 C43 1.460 . S
C47 C46 1.477 . S
C47 H67 0.930 . S
C48 N44 1.362 . S
C48 C45 1.431 . S
C48 C58 1.476 . S
H49 C43 0.929 . S
C50 O41 1.250 . S
C50 O42 1.258 1_655 S
O51 Mn36 2.162 . S
O51 C39 1.281 . S
O52 Mn36 2.297 . S
O52 C39 1.236 . S
N53 Mn37 2.282 . S
N53 C54 1.328 . S
N53 C58 1.318 . S
C54 N53 1.328 . S
C54 C55 1.457 . S
C54 H59 0.929 . S
C55 C54 1.457 . S
C55 C56 1.291 . S
C55 H68 0.931 . S
C56 C55 1.291 . S
C56 C57 1.373 . S
C56 H69 0.929 . S
C57 C56 1.373 . S
C57 C58 1.396 . S
C57 C64 1.403 . S
C58 C48 1.476 . S
C58 N53 1.318 . S
C58 C57 1.396 . S
H59 C54 0.929 . S
O60 Mn36 2.385 . S
O60 C38 1.234 1_655 S
O61 Mn36 2.209 1_455 S
O61 Mn37 2.215 . S
O61 C38 1.283 . S
O62 Mn36 2.094 . S
O62 C40 1.240 . S
O63 Mn37 2.117 . S
O63 C40 1.264 1_455 S
C64 C57 1.403 . S
C64 C65 1.399 . S
C64 H70 0.929 . S
C65 C45 1.449 . S
C65 C64 1.399 . S
C65 H71 0.930 . S
H66 C46 0.931 . S
H67 C47 0.930 . S
H68 C55 0.931 . S
H69 C56 0.929 . S
H70 C64 0.929 . S
H71 C65 0.930 . S
Mn72 O77 2.095 . S
Mn72 O87 2.162 . S
Mn72 O88 2.297 . S
Mn72 O96 2.385 . S
Mn72 O97 2.209 1_565 S
Mn72 O98 2.094 . S
Mn73 O78 2.121 . S
Mn73 N80 2.257 . S
Mn73 N89 2.282 . S
Mn73 O97 2.215 . S
Mn73 O99 2.117 . S
C74 O96 1.234 1_545 S
C74 O97 1.283 . S
C75 O87 1.281 . S
C75 O88 1.236 . S
C76 O98 1.240 . S
C76 O99 1.264 1_565 S
O77 Mn72 2.095 . S
O77 C86 1.250 . S
O78 Mn73 2.121 . S
O78 C86 1.258 1_545 S
C79 N80 1.326 . S
C79 C83 1.460 . S
C79 H85 0.929 . S
N80 Mn73 2.257 . S
N80 C79 1.326 . S
N80 C84 1.362 . S
C81 C82 1.258 . S
C81 C84 1.431 . S
C81 C101 1.449 . S
C82 C81 1.258 . S
C82 C83 1.477 . S
C82 H102 0.931 . S
C83 C79 1.460 . S
C83 C82 1.477 . S
C83 H103 0.930 . S
C84 N80 1.362 . S
C84 C81 1.431 . S
C84 C94 1.476 . S
H85 C79 0.929 . S
C86 O77 1.250 . S
C86 O78 1.258 1_565 S
O87 Mn72 2.162 . S
O87 C75 1.281 . S
O88 Mn72 2.297 . S
O88 C75 1.236 . S
N89 Mn73 2.282 . S
N89 C90 1.328 . S
N89 C94 1.318 . S
C90 N89 1.328 . S
C90 C91 1.457 . S
C90 H95 0.929 . S
C91 C90 1.457 . S
C91 C92 1.291 . S
C91 H104 0.931 . S
C92 C91 1.291 . S
C92 C93 1.373 . S
C92 H105 0.929 . S
C93 C92 1.373 . S
C93 C94 1.396 . S
C93 C100 1.403 . S
C94 C84 1.476 . S
C94 N89 1.318 . S
C94 C93 1.396 . S
H95 C90 0.929 . S
O96 Mn72 2.385 . S
O96 C74 1.234 1_565 S
O97 Mn72 2.209 1_545 S
O97 Mn73 2.215 . S
O97 C74 1.283 . S
O98 Mn72 2.094 . S
O98 C76 1.240 . S
O99 Mn73 2.117 . S
O99 C76 1.264 1_545 S
C100 C93 1.403 . S
C100 C101 1.399 . S
C100 H106 0.929 . S
C101 C81 1.449 . S
C101 C100 1.399 . S
C101 H107 0.930 . S
H102 C82 0.931 . S
H103 C83 0.930 . S
H104 C91 0.931 . S
H105 C92 0.929 . S
H106 C100 0.929 . S
H107 C101 0.930 . S
Mn108 O113 2.095 . S
Mn108 O123 2.162 . S
Mn108 O124 2.297 . S
Mn108 O132 2.385 . S
Mn108 O133 2.209 . S
Mn108 O134 2.094 . S
Mn109 O114 2.121 . S
Mn109 N116 2.257 . S
Mn109 N125 2.282 . S
Mn109 O133 2.215 . S
Mn109 O135 2.117 . S
C110 O132 1.234 . S
C110 O133 1.283 . S
C111 O123 1.281 . S
C111 O124 1.236 . S
C112 O134 1.240 . S
C112 O135 1.264 . S
O113 Mn108 2.095 . S
O113 C122 1.250 . S
O114 Mn109 2.121 . S
O114 C122 1.258 . S
C115 N116 1.326 . S
C115 C119 1.460 . S
C115 H121 0.929 . S
N116 Mn109 2.257 . S
N116 C115 1.326 . S
N116 C120 1.362 . S
C117 C118 1.258 . S
C117 C120 1.431 . S
C117 C137 1.449 . S
C118 C117 1.258 . S
C118 C119 1.477 . S
C118 H138 0.931 . S
C119 C115 1.460 . S
C119 C118 1.477 . S
C119 H139 0.930 . S
C120 N116 1.362 . S
C120 C117 1.431 . S
C120 C130 1.476 . S
H121 C115 0.929 . S
C122 O113 1.250 . S
C122 O114 1.258 . S
O123 Mn108 2.162 . S
O123 C111 1.281 . S
O124 Mn108 2.297 . S
O124 C111 1.236 . S
N125 Mn109 2.282 . S
N125 C126 1.328 . S
N125 C130 1.318 . S
C126 N125 1.328 . S
C126 C127 1.457 . S
C126 H131 0.929 . S
C127 C126 1.457 . S
C127 C128 1.291 . S
C127 H140 0.931 . S
C128 C127 1.291 . S
C128 C129 1.373 . S
C128 H141 0.929 . S
C129 C128 1.373 . S
C129 C130 1.396 . S
C129 C136 1.403 . S
C130 C120 1.476 . S
C130 N125 1.318 . S
C130 C129 1.396 . S
H131 C126 0.929 . S
O132 Mn108 2.385 . S
O132 C110 1.234 . S
O133 Mn108 2.209 . S
O133 Mn109 2.215 . S
O133 C110 1.283 . S
O134 Mn108 2.094 . S
O134 C112 1.240 . S
O135 Mn109 2.117 . S
O135 C112 1.264 . S
C136 C129 1.403 . S
C136 C137 1.399 . S
C136 H142 0.929 . S
C137 C117 1.449 . S
C137 C136 1.399 . S
C137 H143 0.930 . S
H138 C118 0.931 . S
H139 C119 0.930 . S
H140 C127 0.931 . S
H141 C128 0.929 . S
H142 C136 0.929 . S
H143 C137 0.930 . S
Mn144 O149 2.095 . S
Mn144 O159 2.162 . S
Mn144 O160 2.297 . S
Mn144 O168 2.385 . S
Mn144 O169 2.209 1_455 S
Mn144 O170 2.094 . S
Mn145 O150 2.121 . S
Mn145 N152 2.257 . S
Mn145 N161 2.282 . S
Mn145 O169 2.215 . S
Mn145 O171 2.117 . S
C146 O168 1.234 1_655 S
C146 O169 1.283 . S
C147 O159 1.281 . S
C147 O160 1.236 . S
C148 O170 1.240 . S
C148 O171 1.264 1_455 S
O149 Mn144 2.095 . S
O149 C158 1.250 . S
O150 Mn145 2.121 . S
O150 C158 1.258 1_655 S
C151 N152 1.326 . S
C151 C155 1.460 . S
C151 H157 0.929 . S
N152 Mn145 2.257 . S
N152 C151 1.326 . S
N152 C156 1.362 . S
C153 C154 1.258 . S
C153 C156 1.431 . S
C153 C173 1.449 . S
C154 C153 1.258 . S
C154 C155 1.477 . S
C154 H174 0.931 . S
C155 C151 1.460 . S
C155 C154 1.477 . S
C155 H175 0.930 . S
C156 N152 1.362 . S
C156 C153 1.431 . S
C156 C166 1.476 . S
H157 C151 0.929 . S
C158 O149 1.250 . S
C158 O150 1.258 1_455 S
O159 Mn144 2.162 . S
O159 C147 1.281 . S
O160 Mn144 2.297 . S
O160 C147 1.236 . S
N161 Mn145 2.282 . S
N161 C162 1.328 . S
N161 C166 1.318 . S
C162 N161 1.328 . S
C162 C163 1.457 . S
C162 H167 0.929 . S
C163 C162 1.457 . S
C163 C164 1.291 . S
C163 H176 0.931 . S
C164 C163 1.291 . S
C164 C165 1.373 . S
C164 H177 0.929 . S
C165 C164 1.373 . S
C165 C166 1.396 . S
C165 C172 1.403 . S
C166 C156 1.476 . S
C166 N161 1.318 . S
C166 C165 1.396 . S
H167 C162 0.929 . S
O168 Mn144 2.385 . S
O168 C146 1.234 1_455 S
O169 Mn144 2.209 1_655 S
O169 Mn145 2.215 . S
O169 C146 1.283 . S
O170 Mn144 2.094 . S
O170 C148 1.240 . S
O171 Mn145 2.117 . S
O171 C148 1.264 1_655 S
C172 C165 1.403 . S
C172 C173 1.399 . S
C172 H178 0.929 . S
C173 C153 1.449 . S
C173 C172 1.399 . S
C173 H179 0.930 . S
H174 C154 0.931 . S
H175 C155 0.930 . S
H176 C163 0.931 . S
H177 C164 0.929 . S
H178 C172 0.929 . S
H179 C173 0.930 . S
Mn180 O185 2.095 . S
Mn180 O195 2.162 . S
Mn180 O196 2.297 . S
Mn180 O204 2.385 . S
Mn180 O205 2.209 1_545 S
Mn180 O206 2.094 . S
Mn181 O186 2.121 . S
Mn181 N188 2.257 . S
Mn181 N197 2.282 . S
Mn181 O205 2.215 . S
Mn181 O207 2.117 . S
C182 O204 1.234 1_565 S
C182 O205 1.283 . S
C183 O195 1.281 . S
C183 O196 1.236 . S
C184 O206 1.240 . S
C184 O207 1.264 1_545 S
O185 Mn180 2.095 . S
O185 C194 1.250 . S
O186 Mn181 2.121 . S
O186 C194 1.258 1_565 S
C187 N188 1.326 . S
C187 C191 1.460 . S
C187 H193 0.929 . S
N188 Mn181 2.257 . S
N188 C187 1.326 . S
N188 C192 1.362 . S
C189 C190 1.258 . S
C189 C192 1.431 . S
C189 C209 1.449 . S
C190 C189 1.258 . S
C190 C191 1.477 . S
C190 H210 0.931 . S
C191 C187 1.460 . S
C191 C190 1.477 . S
C191 H211 0.930 . S
C192 N188 1.362 . S
C192 C189 1.431 . S
C192 C202 1.476 . S
H193 C187 0.929 . S
C194 O185 1.250 . S
C194 O186 1.258 1_545 S
O195 Mn180 2.162 . S
O195 C183 1.281 . S
O196 Mn180 2.297 . S
O196 C183 1.236 . S
N197 Mn181 2.282 . S
N197 C198 1.328 . S
N197 C202 1.318 . S
C198 N197 1.328 . S
C198 C199 1.457 . S
C198 H203 0.929 . S
C199 C198 1.457 . S
C199 C200 1.291 . S
C199 H212 0.931 . S
C200 C199 1.291 . S
C200 C201 1.373 . S
C200 H213 0.929 . S
C201 C200 1.373 . S
C201 C202 1.396 . S
C201 C208 1.403 . S
C202 C192 1.476 . S
C202 N197 1.318 . S
C202 C201 1.396 . S
H203 C198 0.929 . S
O204 Mn180 2.385 . S
O204 C182 1.234 1_545 S
O205 Mn180 2.209 1_565 S
O205 Mn181 2.215 . S
O205 C182 1.283 . S
O206 Mn180 2.094 . S
O206 C184 1.240 . S
O207 Mn181 2.117 . S
O207 C184 1.264 1_565 S
C208 C201 1.403 . S
C208 C209 1.399 . S
C208 H214 0.929 . S
C209 C189 1.449 . S
C209 C208 1.399 . S
C209 H215 0.930 . S
H210 C190 0.931 . S
H211 C191 0.930 . S
H212 C199 0.931 . S
H213 C200 0.929 . S
H214 C208 0.929 . S
H215 C209 0.930 . S
Mn216 O221 2.095 . S
Mn216 O231 2.162 . S
Mn216 O232 2.297 . S
Mn216 O240 2.385 . S
Mn216 O241 2.209 . S
Mn216 O242 2.094 . S
Mn217 O222 2.121 . S
Mn217 N224 2.257 . S
Mn217 N233 2.282 . S
Mn217 O241 2.215 . S
Mn217 O243 2.117 . S
C218 O240 1.234 . S
C218 O241 1.283 . S
C219 O231 1.281 . S
C219 O232 1.236 . S
C220 O242 1.240 . S
C220 O243 1.264 . S
O221 Mn216 2.095 . S
O221 C230 1.250 . S
O222 Mn217 2.121 . S
O222 C230 1.258 . S
C223 N224 1.326 . S
C223 C227 1.460 . S
C223 H229 0.929 . S
N224 Mn217 2.257 . S
N224 C223 1.326 . S
N224 C228 1.362 . S
C225 C226 1.258 . S
C225 C228 1.431 . S
C225 C245 1.449 . S
C226 C225 1.258 . S
C226 C227 1.477 . S
C226 H246 0.931 . S
C227 C223 1.460 . S
C227 C226 1.477 . S
C227 H247 0.930 . S
C228 N224 1.362 . S
C228 C225 1.431 . S
C228 C238 1.476 . S
H229 C223 0.929 . S
C230 O221 1.250 . S
C230 O222 1.258 . S
O231 Mn216 2.162 . S
O231 C219 1.281 . S
O232 Mn216 2.297 . S
O232 C219 1.236 . S
N233 Mn217 2.282 . S
N233 C234 1.328 . S
N233 C238 1.318 . S
C234 N233 1.328 . S
C234 C235 1.457 . S
C234 H239 0.929 . S
C235 C234 1.457 . S
C235 C236 1.291 . S
C235 H248 0.931 . S
C236 C235 1.291 . S
C236 C237 1.373 . S
C236 H249 0.929 . S
C237 C236 1.373 . S
C237 C238 1.396 . S
C237 C244 1.403 . S
C238 C228 1.476 . S
C238 N233 1.318 . S
C238 C237 1.396 . S
H239 C234 0.929 . S
O240 Mn216 2.385 . S
O240 C218 1.234 . S
O241 Mn216 2.209 . S
O241 Mn217 2.215 . S
O241 C218 1.283 . S
O242 Mn216 2.094 . S
O242 C220 1.240 . S
O243 Mn217 2.117 . S
O243 C220 1.264 . S
C244 C237 1.403 . S
C244 C245 1.399 . S
C244 H250 0.929 . S
C245 C225 1.449 . S
C245 C244 1.399 . S
C245 H251 0.930 . S
H246 C226 0.931 . S
H247 C227 0.930 . S
H248 C235 0.931 . S
H249 C236 0.929 . S
H250 C244 0.929 . S
H251 C245 0.930 . S
Mn252 O257 2.095 . S
Mn252 O267 2.162 . S
Mn252 O268 2.297 . S
Mn252 O276 2.385 . S
Mn252 O277 2.209 1_655 S
Mn252 O278 2.094 . S
Mn253 O258 2.121 . S
Mn253 N260 2.257 . S
Mn253 N269 2.282 . S
Mn253 O277 2.215 . S
Mn253 O279 2.117 . S
C254 O276 1.234 1_455 S
C254 O277 1.283 . S
C255 O267 1.281 . S
C255 O268 1.236 . S
C256 O278 1.240 . S
C256 O279 1.264 1_655 S
O257 Mn252 2.095 . S
O257 C266 1.250 . S
O258 Mn253 2.121 . S
O258 C266 1.258 1_455 S
C259 N260 1.326 . S
C259 C263 1.460 . S
C259 H265 0.929 . S
N260 Mn253 2.257 . S
N260 C259 1.326 . S
N260 C264 1.362 . S
C261 C262 1.258 . S
C261 C264 1.431 . S
C261 C281 1.449 . S
C262 C261 1.258 . S
C262 C263 1.477 . S
C262 H282 0.931 . S
C263 C259 1.460 . S
C263 C262 1.477 . S
C263 H283 0.930 . S
C264 N260 1.362 . S
C264 C261 1.431 . S
C264 C274 1.476 . S
H265 C259 0.929 . S
C266 O257 1.250 . S
C266 O258 1.258 1_655 S
O267 Mn252 2.162 . S
O267 C255 1.281 . S
O268 Mn252 2.297 . S
O268 C255 1.236 . S
N269 Mn253 2.282 . S
N269 C270 1.328 . S
N269 C274 1.318 . S
C270 N269 1.328 . S
C270 C271 1.457 . S
C270 H275 0.929 . S
C271 C270 1.457 . S
C271 C272 1.291 . S
C271 H284 0.931 . S
C272 C271 1.291 . S
C272 C273 1.373 . S
C272 H285 0.929 . S
C273 C272 1.373 . S
C273 C274 1.396 . S
C273 C280 1.403 . S
C274 C264 1.476 . S
C274 N269 1.318 . S
C274 C273 1.396 . S
H275 C270 0.929 . S
O276 Mn252 2.385 . S
O276 C254 1.234 1_655 S
O277 Mn252 2.209 1_455 S
O277 Mn253 2.215 . S
O277 C254 1.283 . S
O278 Mn252 2.094 . S
O278 C256 1.240 . S
O279 Mn253 2.117 . S
O279 C256 1.264 1_455 S
C280 C273 1.403 . S
C280 C281 1.399 . S
C280 H286 0.929 . S
C281 C261 1.449 . S
C281 C280 1.399 . S
C281 H287 0.930 . S
H282 C262 0.931 . S
H283 C263 0.930 . S
H284 C271 0.931 . S
H285 C272 0.929 . S
H286 C280 0.929 . S
H287 C281 0.930 . S
Mn288 O293 2.095 . S
Mn288 O303 2.162 . S
Mn288 O304 2.297 . S
Mn288 O312 2.385 . S
Mn288 O313 2.209 1_565 S
Mn288 O314 2.094 . S
Mn289 O294 2.121 . S
Mn289 N296 2.257 . S
Mn289 N305 2.282 . S
Mn289 O313 2.215 . S
Mn289 O315 2.117 . S
C290 O312 1.234 1_545 S
C290 O313 1.283 . S
C291 O303 1.281 . S
C291 O304 1.236 . S
C292 O314 1.240 . S
C292 O315 1.264 1_565 S
O293 Mn288 2.095 . S
O293 C302 1.250 . S
O294 Mn289 2.121 . S
O294 C302 1.258 1_545 S
C295 N296 1.326 . S
C295 C299 1.460 . S
C295 H301 0.929 . S
N296 Mn289 2.257 . S
N296 C295 1.326 . S
N296 C300 1.362 . S
C297 C298 1.258 . S
C297 C300 1.431 . S
C297 C317 1.449 . S
C298 C297 1.258 . S
C298 C299 1.477 . S
C298 H318 0.931 . S
C299 C295 1.460 . S
C299 C298 1.477 . S
C299 H319 0.930 . S
C300 N296 1.362 . S
C300 C297 1.431 . S
C300 C310 1.476 . S
H301 C295 0.929 . S
C302 O293 1.250 . S
C302 O294 1.258 1_565 S
O303 Mn288 2.162 . S
O303 C291 1.281 . S
O304 Mn288 2.297 . S
O304 C291 1.236 . S
N305 Mn289 2.282 . S
N305 C306 1.328 . S
N305 C310 1.318 . S
C306 N305 1.328 . S
C306 C307 1.457 . S
C306 H311 0.929 . S
C307 C306 1.457 . S
C307 C308 1.291 . S
C307 H320 0.931 . S
C308 C307 1.291 . S
C308 C309 1.373 . S
C308 H321 0.929 . S
C309 C308 1.373 . S
C309 C310 1.396 . S
C309 C316 1.403 . S
C310 C300 1.476 . S
C310 N305 1.318 . S
C310 C309 1.396 . S
H311 C306 0.929 . S
O312 Mn288 2.385 . S
O312 C290 1.234 1_565 S
O313 Mn288 2.209 1_545 S
O313 Mn289 2.215 . S
O313 C290 1.283 . S
O314 Mn288 2.094 . S
O314 C292 1.240 . S
O315 Mn289 2.117 . S
O315 C292 1.264 1_545 S
C316 C309 1.403 . S
C316 C317 1.399 . S
C316 H322 0.929 . S
C317 C297 1.449 . S
C317 C316 1.399 . S
C317 H323 0.930 . S
H318 C298 0.931 . S
H319 C299 0.930 . S
H320 C307 0.931 . S
H321 C308 0.929 . S
H322 C316 0.929 . S
H323 C317 0.930 . S
Mn324 O329 2.095 . S
Mn324 O339 2.162 . S
Mn324 O340 2.297 . S
Mn324 O348 2.385 . S
Mn324 O349 2.209 . S
Mn324 O350 2.094 . S
Mn325 O330 2.121 . S
Mn325 N332 2.257 . S
Mn325 N341 2.282 . S
Mn325 O349 2.215 . S
Mn325 O351 2.117 . S
C326 O348 1.234 . S
C326 O349 1.283 . S
C327 O339 1.281 . S
C327 O340 1.236 . S
C328 O350 1.240 . S
C328 O351 1.264 . S
O329 Mn324 2.095 . S
O329 C338 1.250 . S
O330 Mn325 2.121 . S
O330 C338 1.258 . S
C331 N332 1.326 . S
C331 C335 1.460 . S
C331 H337 0.929 . S
N332 Mn325 2.257 . S
N332 C331 1.326 . S
N332 C336 1.362 . S
C333 C334 1.258 . S
C333 C336 1.431 . S
C333 C353 1.449 . S
C334 C333 1.258 . S
C334 C335 1.477 . S
C334 H354 0.931 . S
C335 C331 1.460 . S
C335 C334 1.477 . S
C335 H355 0.930 . S
C336 N332 1.362 . S
C336 C333 1.431 . S
C336 C346 1.476 . S
H337 C331 0.929 . S
C338 O329 1.250 . S
C338 O330 1.258 . S
O339 Mn324 2.162 . S
O339 C327 1.281 . S
O340 Mn324 2.297 . S
O340 C327 1.236 . S
N341 Mn325 2.282 . S
N341 C342 1.328 . S
N341 C346 1.318 . S
C342 N341 1.328 . S
C342 C343 1.457 . S
C342 H347 0.929 . S
C343 C342 1.457 . S
C343 C344 1.291 . S
C343 H356 0.931 . S
C344 C343 1.291 . S
C344 C345 1.373 . S
C344 H357 0.929 . S
C345 C344 1.373 . S
C345 C346 1.396 . S
C345 C352 1.403 . S
C346 C336 1.476 . S
C346 N341 1.318 . S
C346 C345 1.396 . S
H347 C342 0.929 . S
O348 Mn324 2.385 . S
O348 C326 1.234 . S
O349 Mn324 2.209 . S
O349 Mn325 2.215 . S
O349 C326 1.283 . S
O350 Mn324 2.094 . S
O350 C328 1.240 . S
O351 Mn325 2.117 . S
O351 C328 1.264 . S
C352 C345 1.403 . S
C352 C353 1.399 . S
C352 H358 0.929 . S
C353 C333 1.449 . S
C353 C352 1.399 . S
C353 H359 0.930 . S
H354 C334 0.931 . S
H355 C335 0.930 . S
H356 C343 0.931 . S
H357 C344 0.929 . S
H358 C352 0.929 . S
H359 C353 0.930 . S
Mn360 O365 2.095 . S
Mn360 O375 2.162 . S
Mn360 O376 2.297 . S
Mn360 O384 2.385 . S
Mn360 O385 2.209 1_455 S
Mn360 O386 2.094 . S
Mn361 O366 2.121 . S
Mn361 N368 2.257 . S
Mn361 N377 2.282 . S
Mn361 O385 2.215 . S
Mn361 O387 2.117 . S
C362 O384 1.234 1_655 S
C362 O385 1.283 . S
C363 O375 1.281 . S
C363 O376 1.236 . S
C364 O386 1.240 . S
C364 O387 1.264 1_455 S
O365 Mn360 2.095 . S
O365 C374 1.250 . S
O366 Mn361 2.121 . S
O366 C374 1.258 1_655 S
C367 N368 1.326 . S
C367 C371 1.460 . S
C367 H373 0.929 . S
N368 Mn361 2.257 . S
N368 C367 1.326 . S
N368 C372 1.362 . S
C369 C370 1.258 . S
C369 C372 1.431 . S
C369 C389 1.449 . S
C370 C369 1.258 . S
C370 C371 1.477 . S
C370 H390 0.931 . S
C371 C367 1.460 . S
C371 C370 1.477 . S
C371 H391 0.930 . S
C372 N368 1.362 . S
C372 C369 1.431 . S
C372 C382 1.476 . S
H373 C367 0.929 . S
C374 O365 1.250 . S
C374 O366 1.258 1_455 S
O375 Mn360 2.162 . S
O375 C363 1.281 . S
O376 Mn360 2.297 . S
O376 C363 1.236 . S
N377 Mn361 2.282 . S
N377 C378 1.328 . S
N377 C382 1.318 . S
C378 N377 1.328 . S
C378 C379 1.457 . S
C378 H383 0.929 . S
C379 C378 1.457 . S
C379 C380 1.291 . S
C379 H392 0.931 . S
C380 C379 1.291 . S
C380 C381 1.373 . S
C380 H393 0.929 . S
C381 C380 1.373 . S
C381 C382 1.396 . S
C381 C388 1.403 . S
C382 C372 1.476 . S
C382 N377 1.318 . S
C382 C381 1.396 . S
H383 C378 0.929 . S
O384 Mn360 2.385 . S
O384 C362 1.234 1_455 S
O385 Mn360 2.209 1_655 S
O385 Mn361 2.215 . S
O385 C362 1.283 . S
O386 Mn360 2.094 . S
O386 C364 1.240 . S
O387 Mn361 2.117 . S
O387 C364 1.264 1_655 S
C388 C381 1.403 . S
C388 C389 1.399 . S
C388 H394 0.929 . S
C389 C369 1.449 . S
C389 C388 1.399 . S
C389 H395 0.930 . S
H390 C370 0.931 . S
H391 C371 0.930 . S
H392 C379 0.931 . S
H393 C380 0.929 . S
H394 C388 0.929 . S
H395 C389 0.930 . S
Mn396 O401 2.095 . S
Mn396 O411 2.162 . S
Mn396 O412 2.297 . S
Mn396 O420 2.385 . S
Mn396 O421 2.209 1_545 S
Mn396 O422 2.094 . S
Mn397 O402 2.121 . S
Mn397 N404 2.257 . S
Mn397 N413 2.282 . S
Mn397 O421 2.215 . S
Mn397 O423 2.117 . S
C398 O420 1.234 1_565 S
C398 O421 1.283 . S
C399 O411 1.281 . S
C399 O412 1.236 . S
C400 O422 1.240 . S
C400 O423 1.264 1_545 S
O401 Mn396 2.095 . S
O401 C410 1.250 . S
O402 Mn397 2.121 . S
O402 C410 1.258 1_565 S
C403 N404 1.326 . S
C403 C407 1.460 . S
C403 H409 0.929 . S
N404 Mn397 2.257 . S
N404 C403 1.326 . S
N404 C408 1.362 . S
C405 C406 1.258 . S
C405 C408 1.431 . S
C405 C425 1.449 . S
C406 C405 1.258 . S
C406 C407 1.477 . S
C406 H426 0.931 . S
C407 C403 1.460 . S
C407 C406 1.477 . S
C407 H427 0.930 . S
C408 N404 1.362 . S
C408 C405 1.431 . S
C408 C418 1.476 . S
H409 C403 0.929 . S
C410 O401 1.250 . S
C410 O402 1.258 1_545 S
O411 Mn396 2.162 . S
O411 C399 1.281 . S
O412 Mn396 2.297 . S
O412 C399 1.236 . S
N413 Mn397 2.282 . S
N413 C414 1.328 . S
N413 C418 1.318 . S
C414 N413 1.328 . S
C414 C415 1.457 . S
C414 H419 0.929 . S
C415 C414 1.457 . S
C415 C416 1.291 . S
C415 H428 0.931 . S
C416 C415 1.291 . S
C416 C417 1.373 . S
C416 H429 0.929 . S
C417 C416 1.373 . S
C417 C418 1.396 . S
C417 C424 1.403 . S
C418 C408 1.476 . S
C418 N413 1.318 . S
C418 C417 1.396 . S
H419 C414 0.929 . S
O420 Mn396 2.385 . S
O420 C398 1.234 1_545 S
O421 Mn396 2.209 1_565 S
O421 Mn397 2.215 . S
O421 C398 1.283 . S
O422 Mn396 2.094 . S
O422 C400 1.240 . S
O423 Mn397 2.117 . S
O423 C400 1.264 1_565 S
C424 C417 1.403 . S
C424 C425 1.399 . S
C424 H430 0.929 . S
C425 C405 1.449 . S
C425 C424 1.399 . S
C425 H431 0.930 . S
H426 C406 0.931 . S
H427 C407 0.930 . S
H428 C415 0.931 . S
H429 C416 0.929 . S
H430 C424 0.929 . S
H431 C425 0.930 . S
H432 C444 0.930 . S
H433 C446 0.930 . S
H434 C447 0.930 . S
H435 C451 0.959 . S
H436 C451 0.959 . S
H437 C451 0.961 . S
H438 C452 0.960 . S
H439 C452 0.961 . S
H440 C452 0.959 . S
H441 C455 0.929 . S
H442 C456 0.931 . S
H443 C458 0.930 . S
C444 H432 0.930 . S
C444 C445 1.399 . S
C444 C449 1.399 . S
C445 C444 1.399 . S
C445 C446 1.376 . S
C446 H433 0.930 . S
C446 C445 1.376 . S
C446 C447 1.388 . S
C447 H434 0.930 . S
C447 C446 1.388 . S
C447 C448 1.390 . S
C448 C447 1.390 . S
C448 C449 1.394 . S
C448 C454 1.465 1_655 S
C449 C444 1.399 . S
C449 C448 1.394 . S
C449 C450 1.516 1_655 S
C450 C449 1.516 1_455 S
C450 C451 1.502 . S
C450 C452 1.561 . S
C450 C453 1.526 . S
C451 H435 0.959 . S
C451 H436 0.959 . S
C451 H437 0.961 . S
C451 C450 1.502 . S
C452 H438 0.960 . S
C452 H439 0.961 . S
C452 H440 0.959 . S
C452 C450 1.561 . S
C453 C450 1.526 . S
C453 C454 1.396 . S
C453 C458 1.390 . S
C454 C448 1.465 1_455 S
C454 C453 1.396 . S
C454 C455 1.399 . S
C455 H441 0.929 . S
C455 C454 1.399 . S
C455 C456 1.385 . S
C456 H442 0.931 . S
C456 C455 1.385 . S
C456 C457 1.389 . S
C457 C456 1.389 . S
C457 C458 1.387 . S
C458 H443 0.930 . S
C458 C453 1.390 . S
C458 C457 1.387 . S
H459 C471 0.930 . S
H460 C473 0.930 . S
H461 C474 0.930 . S
H462 C478 0.959 . S
H463 C478 0.959 . S
H464 C478 0.961 . S
H465 C479 0.960 . S
H466 C479 0.961 . S
H467 C479 0.959 . S
H468 C482 0.929 . S
H469 C483 0.931 . S
H470 C485 0.930 . S
C471 H459 0.930 . S
C471 C472 1.399 . S
C471 C476 1.399 . S
C472 C471 1.399 . S
C472 C473 1.376 . S
C473 H460 0.930 . S
C473 C472 1.376 . S
C473 C474 1.388 . S
C474 H461 0.930 . S
C474 C473 1.388 . S
C474 C475 1.390 . S
C475 C474 1.390 . S
C475 C476 1.394 . S
C475 C481 1.465 1_545 S
C476 C471 1.399 . S
C476 C475 1.394 . S
C476 C477 1.516 . S
C477 C476 1.516 . S
C477 C478 1.502 . S
C477 C479 1.561 . S
C477 C480 1.526 1_545 S
C478 H462 0.959 . S
C478 H463 0.959 . S
C478 H464 0.961 . S
C478 C477 1.502 . S
C479 H465 0.960 . S
C479 H466 0.961 . S
C479 H467 0.959 . S
C479 C477 1.561 . S
C480 C477 1.526 1_565 S
C480 C481 1.396 . S
C480 C485 1.390 . S
C481 C475 1.465 1_565 S
C481 C480 1.396 . S
C481 C482 1.399 . S
C482 H468 0.929 . S
C482 C481 1.399 . S
C482 C483 1.385 . S
C483 H469 0.931 . S
C483 C482 1.385 . S
C483 C484 1.389 . S
C484 C483 1.389 . S
C484 C485 1.387 . S
C485 H470 0.930 . S
C485 C480 1.390 . S
C485 C484 1.387 . S
H486 C498 0.930 . S
H487 C500 0.930 . S
H488 C501 0.930 . S
H489 C505 0.959 . S
H490 C505 0.959 . S
H491 C505 0.961 . S
H492 C506 0.960 . S
H493 C506 0.961 . S
H494 C506 0.959 . S
H495 C509 0.929 . S
H496 C510 0.931 . S
H497 C512 0.930 . S
C498 H486 0.930 . S
C498 C499 1.399 . S
C498 C503 1.399 . S
C499 C498 1.399 . S
C499 C500 1.376 . S
C500 H487 0.930 . S
C500 C499 1.376 . S
C500 C501 1.388 . S
C501 H488 0.930 . S
C501 C500 1.388 . S
C501 C502 1.390 . S
C502 C501 1.390 . S
C502 C503 1.394 . S
C502 C508 1.465 . S
C503 C498 1.399 . S
C503 C502 1.394 . S
C503 C504 1.516 . S
C504 C503 1.516 . S
C504 C505 1.502 . S
C504 C506 1.561 . S
C504 C507 1.526 . S
C505 H489 0.959 . S
C505 H490 0.959 . S
C505 H491 0.961 . S
C505 C504 1.502 . S
C506 H492 0.960 . S
C506 H493 0.961 . S
C506 H494 0.959 . S
C506 C504 1.561 . S
C507 C504 1.526 . S
C507 C508 1.396 . S
C507 C512 1.390 . S
C508 C502 1.465 . S
C508 C507 1.396 . S
C508 C509 1.399 . S
C509 H495 0.929 . S
C509 C508 1.399 . S
C509 C510 1.385 . S
C510 H496 0.931 . S
C510 C509 1.385 . S
C510 C511 1.389 . S
C511 C510 1.389 . S
C511 C512 1.387 . S
C512 H497 0.930 . S
C512 C507 1.390 . S
C512 C511 1.387 . S
H513 C525 0.930 . S
H514 C527 0.930 . S
H515 C528 0.930 . S
H516 C532 0.959 . S
H517 C532 0.959 . S
H518 C532 0.961 . S
H519 C533 0.960 . S
H520 C533 0.961 . S
H521 C533 0.959 . S
H522 C536 0.929 . S
H523 C537 0.931 . S
H524 C539 0.930 . S
C525 H513 0.930 . S
C525 C526 1.399 . S
C525 C530 1.399 . S
C526 C525 1.399 . S
C526 C527 1.376 . S
C527 H514 0.930 . S
C527 C526 1.376 . S
C527 C528 1.388 . S
C528 H515 0.930 . S
C528 C527 1.388 . S
C528 C529 1.390 . S
C529 C528 1.390 . S
C529 C530 1.394 . S
C529 C535 1.465 1_655 S
C530 C525 1.399 . S
C530 C529 1.394 . S
C530 C531 1.516 1_655 S
C531 C530 1.516 1_455 S
C531 C532 1.502 . S
C531 C533 1.561 . S
C531 C534 1.526 . S
C532 H516 0.959 . S
C532 H517 0.959 . S
C532 H518 0.961 . S
C532 C531 1.502 . S
C533 H519 0.960 . S
C533 H520 0.961 . S
C533 H521 0.959 . S
C533 C531 1.561 . S
C534 C531 1.526 . S
C534 C535 1.396 . S
C534 C539 1.390 . S
C535 C529 1.465 1_455 S
C535 C534 1.396 . S
C535 C536 1.399 . S
C536 H522 0.929 . S
C536 C535 1.399 . S
C536 C537 1.385 . S
C537 H523 0.931 . S
C537 C536 1.385 . S
C537 C538 1.389 . S
C538 C537 1.389 . S
C538 C539 1.387 . S
C539 H524 0.930 . S
C539 C534 1.390 . S
C539 C538 1.387 . S
H540 C552 0.930 . S
H541 C554 0.930 . S
H542 C555 0.930 . S
H543 C559 0.959 . S
H544 C559 0.959 . S
H545 C559 0.961 . S
H546 C560 0.960 . S
H547 C560 0.961 . S
H548 C560 0.959 . S
H549 C563 0.929 . S
H550 C564 0.931 . S
H551 C566 0.930 . S
C552 H540 0.930 . S
C552 C553 1.399 . S
C552 C557 1.399 . S
C553 C552 1.399 . S
C553 C554 1.376 . S
C554 H541 0.930 . S
C554 C553 1.376 . S
C554 C555 1.388 . S
C555 H542 0.930 . S
C555 C554 1.388 . S
C555 C556 1.390 . S
C556 C555 1.390 . S
C556 C557 1.394 . S
C556 C562 1.465 1_545 S
C557 C552 1.399 . S
C557 C556 1.394 . S
C557 C558 1.516 . S
C558 C557 1.516 . S
C558 C559 1.502 . S
C558 C560 1.561 . S
C558 C561 1.526 1_545 S
C559 H543 0.959 . S
C559 H544 0.959 . S
C559 H545 0.961 . S
C559 C558 1.502 . S
C560 H546 0.960 . S
C560 H547 0.961 . S
C560 H548 0.959 . S
C560 C558 1.561 . S
C561 C558 1.526 1_565 S
C561 C562 1.396 . S
C561 C566 1.390 . S
C562 C556 1.465 1_565 S
C562 C561 1.396 . S
C562 C563 1.399 . S
C563 H549 0.929 . S
C563 C562 1.399 . S
C563 C564 1.385 . S
C564 H550 0.931 . S
C564 C563 1.385 . S
C564 C565 1.389 . S
C565 C564 1.389 . S
C565 C566 1.387 . S
C566 H551 0.930 . S
C566 C561 1.390 . S
C566 C565 1.387 . S
H567 C579 0.930 . S
H568 C581 0.930 . S
H569 C582 0.930 . S
H570 C586 0.959 . S
H571 C586 0.959 . S
H572 C586 0.961 . S
H573 C587 0.960 . S
H574 C587 0.961 . S
H575 C587 0.959 . S
H576 C590 0.929 . S
H577 C591 0.931 . S
H578 C593 0.930 . S
C579 H567 0.930 . S
C579 C580 1.399 . S
C579 C584 1.399 . S
C580 C579 1.399 . S
C580 C581 1.376 . S
C581 H568 0.930 . S
C581 C580 1.376 . S
C581 C582 1.388 . S
C582 H569 0.930 . S
C582 C581 1.388 . S
C582 C583 1.390 . S
C583 C582 1.390 . S
C583 C584 1.394 . S
C583 C589 1.465 . S
C584 C579 1.399 . S
C584 C583 1.394 . S
C584 C585 1.516 . S
C585 C584 1.516 . S
C585 C586 1.502 . S
C585 C587 1.561 . S
C585 C588 1.526 . S
C586 H570 0.959 . S
C586 H571 0.959 . S
C586 H572 0.961 . S
C586 C585 1.502 . S
C587 H573 0.960 . S
C587 H574 0.961 . S
C587 H575 0.959 . S
C587 C585 1.561 . S
C588 C585 1.526 . S
C588 C589 1.396 . S
C588 C593 1.390 . S
C589 C583 1.465 . S
C589 C588 1.396 . S
C589 C590 1.399 . S
C590 H576 0.929 . S
C590 C589 1.399 . S
C590 C591 1.385 . S
C591 H577 0.931 . S
C591 C590 1.385 . S
C591 C592 1.389 . S
C592 C591 1.389 . S
C592 C593 1.387 . S
C593 H578 0.930 . S
C593 C588 1.390 . S
C593 C592 1.387 . S
H594 C606 0.930 . S
H595 C608 0.930 . S
H596 C609 0.930 . S
H597 C613 0.959 . S
H598 C613 0.959 . S
H599 C613 0.961 . S
H600 C614 0.960 . S
H601 C614 0.961 . S
H602 C614 0.959 . S
H603 C617 0.929 . S
H604 C618 0.931 . S
H605 C620 0.930 . S
C606 H594 0.930 . S
C606 C607 1.399 . S
C606 C611 1.399 . S
C607 C606 1.399 . S
C607 C608 1.376 . S
C608 H595 0.930 . S
C608 C607 1.376 . S
C608 C609 1.388 . S
C609 H596 0.930 . S
C609 C608 1.388 . S
C609 C610 1.390 . S
C610 C609 1.390 . S
C610 C611 1.394 . S
C610 C616 1.465 . S
C611 C606 1.399 . S
C611 C610 1.394 . S
C611 C612 1.516 . S
C612 C611 1.516 . S
C612 C613 1.502 . S
C612 C614 1.561 . S
C612 C615 1.526 . S
C613 H597 0.959 . S
C613 H598 0.959 . S
C613 H599 0.961 . S
C613 C612 1.502 . S
C614 H600 0.960 . S
C614 H601 0.961 . S
C614 H602 0.959 . S
C614 C612 1.561 . S
C615 C612 1.526 . S
C615 C616 1.396 . S
C615 C620 1.390 . S
C616 C610 1.465 . S
C616 C615 1.396 . S
C616 C617 1.399 . S
C617 H603 0.929 . S
C617 C616 1.399 . S
C617 C618 1.385 . S
C618 H604 0.931 . S
C618 C617 1.385 . S
C618 C619 1.389 . S
C619 C618 1.389 . S
C619 C620 1.387 . S
C620 H605 0.930 . S
C620 C615 1.390 . S
C620 C619 1.387 . S
H621 C633 0.930 1_655 S
H622 C635 0.930 . S
H623 C636 0.930 . S
H624 C640 0.959 . S
H625 C640 0.959 . S
H626 C640 0.961 . S
H627 C641 0.960 . S
H628 C641 0.961 1_655 S
H629 C641 0.959 . S
H630 C644 0.929 . S
H631 C645 0.931 1_455 S
H632 C647 0.930 . S
C633 H621 0.930 1_455 S
C633 C634 1.399 . S
C633 C638 1.399 . S
C634 C633 1.399 . S
C634 C635 1.376 . S
C635 H622 0.930 . S
C635 C634 1.376 . S
C635 C636 1.388 . S
C636 H623 0.930 . S
C636 C635 1.388 . S
C636 C637 1.390 . S
C637 C636 1.390 . S
C637 C638 1.394 . S
C637 C643 1.465 . S
C638 C633 1.399 . S
C638 C637 1.394 . S
C638 C639 1.516 1_455 S
C639 C638 1.516 1_655 S
C639 C640 1.502 . S
C639 C641 1.561 1_655 S
C639 C642 1.526 . S
C640 H624 0.959 . S
C640 H625 0.959 . S
C640 H626 0.961 . S
C640 C639 1.502 . S
C641 H627 0.960 . S
C641 H628 0.961 1_455 S
C641 H629 0.959 . S
C641 C639 1.561 1_455 S
C642 C639 1.526 . S
C642 C643 1.396 1_655 S
C642 C647 1.390 . S
C643 C637 1.465 . S
C643 C642 1.396 1_455 S
C643 C644 1.399 . S
C644 H630 0.929 . S
C644 C643 1.399 . S
C644 C645 1.385 1_455 S
C645 H631 0.931 1_655 S
C645 C644 1.385 1_655 S
C645 C646 1.389 . S
C646 C645 1.389 . S
C646 C647 1.387 . S
C647 H632 0.930 . S
C647 C642 1.390 . S
C647 C646 1.387 . S
H648 C660 0.930 . S
H649 C662 0.930 . S
H650 C663 0.930 . S
H651 C667 0.959 . S
H652 C667 0.959 . S
H653 C667 0.961 . S
H654 C668 0.960 . S
H655 C668 0.961 . S
H656 C668 0.959 . S
H657 C671 0.929 . S
H658 C672 0.931 . S
H659 C674 0.930 . S
C660 H648 0.930 . S
C660 C661 1.399 1_565 S
C660 C665 1.399 . S
C661 C660 1.399 1_545 S
C661 C662 1.376 . S
C662 H649 0.930 . S
C662 C661 1.376 . S
C662 C663 1.388 . S
C663 H650 0.930 . S
C663 C662 1.388 . S
C663 C664 1.390 . S
C664 C663 1.390 . S
C664 C665 1.394 1_545 S
C664 C670 1.465 . S
C665 C660 1.399 . S
C665 C664 1.394 1_565 S
C665 C666 1.516 . S
C666 C665 1.516 . S
C666 C667 1.502 . S
C666 C668 1.561 . S
C666 C669 1.526 . S
C667 H651 0.959 . S
C667 H652 0.959 . S
C667 H653 0.961 . S
C667 C666 1.502 . S
C668 H654 0.960 . S
C668 H655 0.961 . S
C668 H656 0.959 . S
C668 C666 1.561 . S
C669 C666 1.526 . S
C669 C670 1.396 1_565 S
C669 C674 1.390 . S
C670 C664 1.465 . S
C670 C669 1.396 1_545 S
C670 C671 1.399 . S
C671 H657 0.929 . S
C671 C670 1.399 . S
C671 C672 1.385 . S
C672 H658 0.931 . S
C672 C671 1.385 . S
C672 C673 1.389 1_545 S
C673 C672 1.389 1_565 S
C673 C674 1.387 . S
C674 H659 0.930 . S
C674 C669 1.390 . S
C674 C673 1.387 . S
H675 C687 0.930 . S
H676 C689 0.930 . S
H677 C690 0.930 . S
H678 C694 0.959 . S
H679 C694 0.959 . S
H680 C694 0.961 . S
H681 C695 0.960 . S
H682 C695 0.961 . S
H683 C695 0.959 . S
H684 C698 0.929 . S
H685 C699 0.931 . S
H686 C701 0.930 . S
C687 H675 0.930 . S
C687 C688 1.399 . S
C687 C692 1.399 . S
C688 C687 1.399 . S
C688 C689 1.376 . S
C689 H676 0.930 . S
C689 C688 1.376 . S
C689 C690 1.388 . S
C690 H677 0.930 . S
C690 C689 1.388 . S
C690 C691 1.390 . S
C691 C690 1.390 . S
C691 C692 1.394 . S
C691 C697 1.465 . S
C692 C687 1.399 . S
C692 C691 1.394 . S
C692 C693 1.516 . S
C693 C692 1.516 . S
C693 C694 1.502 . S
C693 C695 1.561 . S
C693 C696 1.526 . S
C694 H678 0.959 . S
C694 H679 0.959 . S
C694 H680 0.961 . S
C694 C693 1.502 . S
C695 H681 0.960 . S
C695 H682 0.961 . S
C695 H683 0.959 . S
C695 C693 1.561 . S
C696 C693 1.526 . S
C696 C697 1.396 . S
C696 C701 1.390 . S
C697 C691 1.465 . S
C697 C696 1.396 . S
C697 C698 1.399 . S
C698 H684 0.929 . S
C698 C697 1.399 . S
C698 C699 1.385 . S
C699 H685 0.931 . S
C699 C698 1.385 . S
C699 C700 1.389 . S
C700 C699 1.389 . S
C700 C701 1.387 . S
C701 H686 0.930 . S
C701 C696 1.390 . S
C701 C700 1.387 . S
H702 C714 0.930 1_455 S
H703 C716 0.930 . S
H704 C717 0.930 . S
H705 C721 0.959 . S
H706 C721 0.959 . S
H707 C721 0.961 . S
H708 C722 0.973 . S
H709 C722 0.941 1_455 S
H710 C722 0.974 . S
H711 C725 0.929 . S
H712 C726 0.931 1_655 S
H713 C728 0.930 . S
C714 H702 0.930 1_655 S
C714 C715 1.399 . S
C714 C719 1.399 . S
C715 C714 1.399 . S
C715 C716 1.376 . S
C716 H703 0.930 . S
C716 C715 1.376 . S
C716 C717 1.388 . S
C717 H704 0.930 . S
C717 C716 1.388 . S
C717 C718 1.390 . S
C718 C717 1.390 . S
C718 C719 1.394 . S
C718 C724 1.465 . S
C719 C714 1.399 . S
C719 C718 1.394 . S
C719 C720 1.516 1_655 S
C720 C719 1.516 1_455 S
C720 C721 1.502 . S
C720 C722 1.553 1_455 S
C720 C723 1.526 . S
C721 H705 0.959 . S
C721 H706 0.959 . S
C721 H707 0.961 . S
C721 C720 1.502 . S
C722 H708 0.973 . S
C722 H709 0.941 1_655 S
C722 H710 0.974 . S
C722 C720 1.553 1_655 S
C723 C720 1.526 . S
C723 C724 1.396 1_455 S
C723 C728 1.390 . S
C724 C718 1.465 . S
C724 C723 1.396 1_655 S
C724 C725 1.399 . S
C725 H711 0.929 . S
C725 C724 1.399 . S
C725 C726 1.385 1_655 S
C726 H712 0.931 1_455 S
C726 C725 1.385 1_455 S
C726 C727 1.389 . S
C727 C726 1.389 . S
C727 C728 1.387 . S
C728 H713 0.930 . S
C728 C723 1.390 . S
C728 C727 1.387 . S
H729 C741 0.941 . S
H730 C743 0.930 . S
H731 C744 0.930 . S
H732 C748 0.959 . S
H733 C748 0.959 . S
H734 C748 0.961 . S
H735 C749 0.960 . S
H736 C749 0.961 1_545 S
H737 C749 0.959 . S
H738 C752 0.929 . S
H739 C753 0.931 . S
H740 C755 0.930 . S
C741 H729 0.941 . S
C741 C742 1.399 . S
C741 C746 1.399 . S
C742 C741 1.399 . S
C742 C743 1.376 . S
C743 H730 0.930 . S
C743 C742 1.376 . S
C743 C744 1.388 . S
C744 H731 0.930 . S
C744 C743 1.388 . S
C744 C745 1.390 . S
C745 C744 1.390 . S
C745 C746 1.394 . S
C745 C751 1.465 . S
C746 C741 1.399 . S
C746 C745 1.394 . S
C746 C747 1.516 1_565 S
C747 C746 1.516 1_545 S
C747 C748 1.502 . S
C747 C749 1.561 1_545 S
C747 C750 1.526 . S
C748 H732 0.959 . S
C748 H733 0.959 . S
C748 H734 0.961 . S
C748 C747 1.502 . S
C749 H735 0.960 . S
C749 H736 0.961 1_565 S
C749 H737 0.959 . S
C749 C747 1.561 1_565 S
C750 C747 1.526 . S
C750 C751 1.396 1_545 S
C750 C755 1.390 . S
C751 C745 1.465 . S
C751 C750 1.396 1_565 S
C751 C752 1.399 . S
C752 H738 0.929 . S
C752 C751 1.399 . S
C752 C753 1.385 1_565 S
C753 H739 0.931 . S
C753 C752 1.385 1_545 S
C753 C754 1.389 . S
C754 C753 1.389 . S
C754 C755 1.387 . S
C755 H740 0.930 . S
C755 C750 1.390 . S
C755 C754 1.387 . S
H756 C768 0.930 . S
H757 C770 0.930 . S
H758 C771 0.930 . S
H759 C775 0.959 . S
H760 C775 0.959 . S
H761 C775 0.961 . S
H762 C776 0.960 . S
H763 C776 0.961 . S
H764 C776 0.959 . S
H765 C779 0.929 . S
H766 C780 0.931 . S
H767 C782 0.930 . S
C768 H756 0.930 . S
C768 C769 1.399 . S
C768 C773 1.399 . S
C769 C768 1.399 . S
C769 C770 1.376 . S
C770 H757 0.930 . S
C770 C769 1.376 . S
C770 C771 1.388 . S
C771 H758 0.930 . S
C771 C770 1.388 . S
C771 C772 1.390 . S
C772 C771 1.390 . S
C772 C773 1.394 . S
C772 C778 1.465 . S
C773 C768 1.399 . S
C773 C772 1.394 . S
C773 C774 1.516 . S
C774 C773 1.516 . S
C774 C775 1.502 . S
C774 C776 1.561 . S
C774 C777 1.526 . S
C775 H759 0.959 . S
C775 H760 0.959 . S
C775 H761 0.961 . S
C775 C774 1.502 . S
C776 H762 0.960 . S
C776 H763 0.961 . S
C776 H764 0.959 . S
C776 C774 1.561 . S
C777 C774 1.526 . S
C777 C778 1.396 . S
C777 C782 1.390 . S
C778 C772 1.465 . S
C778 C777 1.396 . S
C778 C779 1.399 . S
C779 H765 0.929 . S
C779 C778 1.399 . S
C779 C780 1.385 . S
C780 H766 0.931 . S
C780 C779 1.385 . S
C780 C781 1.389 . S
C781 C780 1.389 . S
C781 C782 1.387 . S
C782 H767 0.930 . S
C782 C777 1.390 . S
C782 C781 1.387 . S
H783 C795 0.930 . S
H784 C797 0.930 . S
H785 C798 0.930 . S
H786 C802 0.959 . S
H787 C802 0.959 . S
H788 C802 0.961 . S
H789 C803 0.960 . S
H790 C803 0.961 . S
H791 C803 0.959 . S
H792 C806 0.929 . S
H793 C807 0.931 . S
H794 C809 0.930 . S
C795 H783 0.930 . S
C795 C796 1.399 . S
C795 C800 1.399 . S
C796 C795 1.399 . S
C796 C797 1.376 . S
C797 H784 0.930 . S
C797 C796 1.376 . S
C797 C798 1.388 . S
C798 H785 0.930 . S
C798 C797 1.388 . S
C798 C799 1.390 . S
C799 C798 1.390 . S
C799 C800 1.394 . S
C799 C805 1.465 . S
C800 C795 1.399 . S
C800 C799 1.394 . S
C800 C801 1.516 . S
C801 C800 1.516 . S
C801 C802 1.502 . S
C801 C803 1.561 . S
C801 C804 1.526 . S
C802 H786 0.959 . S
C802 H787 0.959 . S
C802 H788 0.961 . S
C802 C801 1.502 . S
C803 H789 0.960 . S
C803 H790 0.961 . S
C803 H791 0.959 . S
C803 C801 1.561 . S
C804 C801 1.526 . S
C804 C805 1.396 . S
C804 C809 1.390 . S
C805 C799 1.465 . S
C805 C804 1.396 . S
C805 C806 1.399 . S
C806 H792 0.929 . S
C806 C805 1.399 . S
C806 C807 1.385 . S
C807 H793 0.931 . S
C807 C806 1.385 . S
C807 C808 1.389 . S
C808 C807 1.389 . S
C808 C809 1.387 . S
C809 H794 0.930 . S
C809 C804 1.390 . S
C809 C808 1.387 . S
H810 C822 0.930 . S
H811 C824 0.930 . S
H812 C825 0.930 . S
H813 C829 0.959 . S
H814 C829 0.959 . S
H815 C829 0.961 . S
H816 C830 0.960 . S
H817 C830 0.961 . S
H818 C830 0.959 . S
H819 C833 0.929 . S
H820 C834 0.931 1_565 S
H821 C836 0.930 . S
C822 H810 0.930 . S
C822 C823 1.399 . S
C822 C827 1.399 . S
C823 C822 1.399 . S
C823 C824 1.376 . S
C824 H811 0.930 . S
C824 C823 1.376 . S
C824 C825 1.388 . S
C825 H812 0.930 . S
C825 C824 1.388 . S
C825 C826 1.390 . S
C826 C825 1.390 . S
C826 C827 1.394 . S
C826 C832 1.465 . S
C827 C822 1.399 . S
C827 C826 1.394 . S
C827 C828 1.516 . S
C828 C827 1.516 . S
C828 C829 1.502 . S
C828 C830 1.561 . S
C828 C831 1.526 . S
C829 H813 0.959 . S
C829 H814 0.959 . S
C829 H815 0.961 . S
C829 C828 1.502 . S
C830 H816 0.960 . S
C830 H817 0.961 . S
C830 H818 0.959 . S
C830 C828 1.561 . S
C831 C828 1.526 . S
C831 C832 1.396 . S
C831 C836 1.390 . S
C832 C826 1.465 . S
C832 C831 1.396 . S
C832 C833 1.399 . S
C833 H819 0.929 . S
C833 C832 1.399 . S
C833 C834 1.385 . S
C834 H820 0.931 1_545 S
C834 C833 1.385 . S
C834 C835 1.389 . S
C835 C834 1.389 . S
C835 C836 1.387 . S
C836 H821 0.930 . S
C836 C831 1.390 . S
C836 C835 1.387 . S
H837 C849 0.930 . S
H838 C851 0.930 . S
H839 C852 0.930 . S
H840 C856 0.959 . S
H841 C856 0.959 . S
H842 C856 0.961 . S
H843 C857 0.960 . S
H844 C857 0.961 . S
H845 C857 0.959 . S
H846 C860 0.929 . S
H847 C861 0.931 . S
H848 C863 0.930 . S
C849 H837 0.930 . S
C849 C850 1.399 . S
C849 C854 1.399 . S
C850 C849 1.399 . S
C850 C851 1.376 . S
C851 H838 0.930 . S
C851 C850 1.376 . S
C851 C852 1.388 . S
C852 H839 0.930 . S
C852 C851 1.388 . S
C852 C853 1.390 . S
C853 C852 1.390 . S
C853 C854 1.394 . S
C853 C859 1.465 . S
C854 C849 1.399 . S
C854 C853 1.394 . S
C854 C855 1.516 . S
C855 C854 1.516 . S
C855 C856 1.502 . S
C855 C857 1.561 . S
C855 C858 1.526 . S
C856 H840 0.959 . S
C856 H841 0.959 . S
C856 H842 0.961 . S
C856 C855 1.502 . S
C857 H843 0.960 . S
C857 H844 0.961 . S
C857 H845 0.959 . S
C857 C855 1.561 . S
C858 C855 1.526 . S
C858 C859 1.396 . S
C858 C863 1.390 . S
C859 C853 1.465 . S
C859 C858 1.396 . S
C859 C860 1.399 . S
C860 H846 0.929 . S
C860 C859 1.399 . S
C860 C861 1.385 . S
C861 H847 0.931 . S
C861 C860 1.385 . S
C861 C862 1.389 . S
C862 C861 1.389 . S
C862 C863 1.387 . S
C863 H848 0.930 . S
C863 C858 1.390 . S
C863 C862 1.387 . S
H864 C876 0.930 . S
H865 C878 0.930 . S
H866 C879 0.930 . S
H867 C883 0.959 . S
H868 C883 0.959 . S
H869 C883 0.961 . S
H870 C884 0.960 . S
H871 C884 0.961 . S
H872 C884 0.959 . S
H873 C887 0.929 . S
H874 C888 0.931 . S
H875 C890 0.930 . S
C876 H864 0.930 . S
C876 C877 1.399 . S
C876 C881 1.399 . S
C877 C876 1.399 . S
C877 C878 1.376 . S
C878 H865 0.930 . S
C878 C877 1.376 . S
C878 C879 1.388 . S
C879 H866 0.930 . S
C879 C878 1.388 . S
C879 C880 1.390 . S
C880 C879 1.390 . S
C880 C881 1.394 . S
C880 C886 1.465 . S
C881 C876 1.399 . S
C881 C880 1.394 . S
C881 C882 1.516 . S
C882 C881 1.516 . S
C882 C883 1.502 . S
C882 C884 1.561 . S
C882 C885 1.526 . S
C883 H867 0.959 . S
C883 H868 0.959 . S
C883 H869 0.961 . S
C883 C882 1.502 . S
C884 H870 0.960 . S
C884 H871 0.961 . S
C884 H872 0.959 . S
C884 C882 1.561 . S
C885 C882 1.526 . S
C885 C886 1.396 . S
C885 C890 1.390 . S
C886 C880 1.465 . S
C886 C885 1.396 . S
C886 C887 1.399 . S
C887 H873 0.929 . S
C887 C886 1.399 . S
C887 C888 1.385 . S
C888 H874 0.931 . S
C888 C887 1.385 . S
C888 C889 1.389 . S
C889 C888 1.389 . S
C889 C890 1.387 . S
C890 H875 0.930 . S
C890 C885 1.390 . S
C890 C889 1.387 . S
H891 C903 0.930 . S
H892 C905 0.930 . S
H893 C906 0.930 . S
H894 C910 0.959 . S
H895 C910 0.959 . S
H896 C910 0.961 . S
H897 C911 0.960 . S
H898 C911 0.961 . S
H899 C911 0.959 . S
H900 C914 0.929 . S
H901 C915 0.931 1_655 S
H902 C917 0.930 . S
C903 H891 0.930 . S
C903 C904 1.399 . S
C903 C908 1.399 . S
C904 C903 1.399 . S
C904 C905 1.376 . S
C905 H892 0.930 . S
C905 C904 1.376 . S
C905 C906 1.388 . S
C906 H893 0.930 . S
C906 C905 1.388 . S
C906 C907 1.390 . S
C907 C906 1.390 . S
C907 C908 1.394 . S
C907 C913 1.465 . S
C908 C903 1.399 . S
C908 C907 1.394 . S
C908 C909 1.516 . S
C909 C908 1.516 . S
C909 C910 1.502 . S
C909 C911 1.561 . S
C909 C912 1.526 . S
C910 H894 0.959 . S
C910 H895 0.959 . S
C910 H896 0.961 . S
C910 C909 1.502 . S
C911 H897 0.960 . S
C911 H898 0.961 . S
C911 H899 0.959 . S
C911 C909 1.561 . S
C912 C909 1.526 . S
C912 C913 1.396 . S
C912 C917 1.390 . S
C913 C907 1.465 . S
C913 C912 1.396 . S
C913 C914 1.399 . S
C914 H900 0.929 . S
C914 C913 1.399 . S
C914 C915 1.385 . S
C915 H901 0.931 1_455 S
C915 C914 1.385 . S
C915 C916 1.389 . S
C916 C915 1.389 . S
C916 C917 1.387 . S
C917 H902 0.930 . S
C917 C912 1.390 . S
C917 C916 1.387 . S
H918 C930 0.930 . S
H919 C932 0.930 . S
H920 C933 0.930 . S
H921 C937 0.959 . S
H922 C937 0.959 . S
H923 C937 0.961 . S
H924 C938 0.960 . S
H925 C938 0.961 . S
H926 C938 0.959 . S
H927 C941 0.929 . S
H928 C942 0.931 . S
H929 C944 0.930 . S
C930 H918 0.930 . S
C930 C931 1.399 . S
C930 C935 1.399 . S
C931 C930 1.399 . S
C931 C932 1.376 . S
C932 H919 0.930 . S
C932 C931 1.376 . S
C932 C933 1.388 . S
C933 H920 0.930 . S
C933 C932 1.388 . S
C933 C934 1.390 . S
C934 C933 1.390 . S
C934 C935 1.394 . S
C934 C940 1.465 . S
C935 C930 1.399 . S
C935 C934 1.394 . S
C935 C936 1.516 . S
C936 C935 1.516 . S
C936 C937 1.502 . S
C936 C938 1.561 . S
C936 C939 1.526 . S
C937 H921 0.959 . S
C937 H922 0.959 . S
C937 H923 0.961 . S
C937 C936 1.502 . S
C938 H924 0.960 . S
C938 H925 0.961 . S
C938 H926 0.959 . S
C938 C936 1.561 . S
C939 C936 1.526 . S
C939 C940 1.396 . S
C939 C944 1.390 . S
C940 C934 1.465 . S
C940 C939 1.396 . S
C940 C941 1.399 . S
C941 H927 0.929 . S
C941 C940 1.399 . S
C941 C942 1.385 . S
C942 H928 0.931 . S
C942 C941 1.385 . S
C942 C943 1.389 . S
C943 C942 1.389 . S
C943 C944 1.387 . S
C944 H929 0.930 . S
C944 C939 1.390 . S
C944 C943 1.387 . S
H945 C957 0.930 . S
H946 C959 0.930 . S
H947 C960 0.930 . S
H948 C964 0.959 . S
H949 C964 0.959 . S
H950 C964 0.961 . S
H951 C965 0.960 . S
H952 C965 0.961 . S
H953 C965 0.959 . S
H954 C968 0.929 . S
H955 C969 0.931 . S
H956 C971 0.930 . S
C957 H945 0.930 . S
C957 C958 1.399 . S
C957 C962 1.399 . S
C958 C957 1.399 . S
C958 C959 1.376 1_655 S
C959 H946 0.930 . S
C959 C958 1.376 1_455 S
C959 C960 1.388 . S
C960 H947 0.930 . S
C960 C959 1.388 . S
C960 C961 1.390 . S
C961 C960 1.390 . S
C961 C962 1.394 1_455 S
C961 C967 1.465 . S
C962 C957 1.399 . S
C962 C961 1.394 1_655 S
C962 C963 1.516 . S
C963 C962 1.516 . S
C963 C964 1.502 . S
C963 C965 1.561 . S
C963 C966 1.526 . S
C964 H948 0.959 . S
C964 H949 0.959 . S
C964 H950 0.961 . S
C964 C963 1.502 . S
C965 H951 0.960 . S
C965 H952 0.961 . S
C965 H953 0.959 . S
C965 C963 1.561 . S
C966 C963 1.526 . S
C966 C967 1.396 1_655 S
C966 C971 1.390 . S
C967 C961 1.465 . S
C967 C966 1.396 1_455 S
C967 C968 1.399 . S
C968 H954 0.929 . S
C968 C967 1.399 . S
C968 C969 1.385 . S
C969 H955 0.931 . S
C969 C968 1.385 . S
C969 C970 1.389 . S
C970 C969 1.389 . S
C970 C971 1.387 1_455 S
C971 H956 0.930 . S
C971 C966 1.390 . S
C971 C970 1.387 1_655 S
H972 C984 0.930 . S
H973 C986 0.930 . S
H974 C987 0.930 . S
H975 C991 0.959 . S
H976 C991 0.959 . S
H977 C991 0.961 . S
H978 C992 0.960 . S
H979 C992 0.961 . S
H980 C992 0.959 . S
H981 C995 0.929 . S
H982 C996 0.931 . S
H983 C998 0.930 . S
C984 H972 0.930 . S
C984 C985 1.399 . S
C984 C989 1.399 . S
C985 C984 1.399 . S
C985 C986 1.376 1_545 S
C986 H973 0.930 . S
C986 C985 1.376 1_565 S
C986 C987 1.388 . S
C987 H974 0.930 . S
C987 C986 1.388 . S
C987 C988 1.390 . S
C988 C987 1.390 . S
C988 C989 1.394 1_565 S
C988 C994 1.465 1_554 S
C989 C984 1.399 . S
C989 C988 1.394 1_545 S
C989 C990 1.516 1_554 S
C990 C989 1.516 1_556 S
C990 C991 1.502 . S
C990 C992 1.561 . S
C990 C993 1.526 . S
C991 H975 0.959 . S
C991 H976 0.959 . S
C991 H977 0.961 . S
C991 C990 1.502 . S
C992 H978 0.960 . S
C992 H979 0.961 . S
C992 H980 0.959 . S
C992 C990 1.561 . S
C993 C990 1.526 . S
C993 C994 1.396 1_545 S
C993 C998 1.390 . S
C994 C988 1.465 1_556 S
C994 C993 1.396 1_565 S
C994 C995 1.399 . S
C995 H981 0.929 . S
C995 C994 1.399 . S
C995 C996 1.385 . S
C996 H982 0.931 . S
C996 C995 1.385 . S
C996 C997 1.389 . S
C997 C996 1.389 . S
C997 C998 1.387 1_565 S
C998 H983 0.930 . S
C998 C993 1.390 . S
C998 C997 1.387 1_545 S
H999 C1011 0.930 . S
H1000 C1013 0.930 . S
H1001 C1014 0.930 . S
H1002 C1018 0.959 . S
H1003 C1018 0.959 . S
H1004 C1018 0.961 . S
H1005 C1019 0.960 . S
H1006 C1019 0.961 . S
H1007 C1019 0.959 . S
H1008 C1022 0.929 . S
H1009 C1023 0.931 . S
H1010 C1025 0.930 . S
C1011 H999 0.930 . S
C1011 C1012 1.399 . S
C1011 C1016 1.399 . S
C1012 C1011 1.399 . S
C1012 C1013 1.376 . S
C1013 H1000 0.930 . S
C1013 C1012 1.376 . S
C1013 C1014 1.388 . S
C1014 H1001 0.930 . S
C1014 C1013 1.388 . S
C1014 C1015 1.390 . S
C1015 C1014 1.390 . S
C1015 C1016 1.394 . S
C1015 C1021 1.465 . S
C1016 C1011 1.399 . S
C1016 C1015 1.394 . S
C1016 C1017 1.516 . S
C1017 C1016 1.516 . S
C1017 C1018 1.502 . S
C1017 C1019 1.561 . S
C1017 C1020 1.526 . S
C1018 H1002 0.959 . S
C1018 H1003 0.959 . S
C1018 H1004 0.961 . S
C1018 C1017 1.502 . S
C1019 H1005 0.960 . S
C1019 H1006 0.961 . S
C1019 H1007 0.959 . S
C1019 C1017 1.561 . S
C1020 C1017 1.526 . S
C1020 C1021 1.396 . S
C1020 C1025 1.390 . S
C1021 C1015 1.465 . S
C1021 C1020 1.396 . S
C1021 C1022 1.399 . S
C1022 H1008 0.929 . S
C1022 C1021 1.399 . S
C1022 C1023 1.385 . S
C1023 H1009 0.931 . S
C1023 C1022 1.385 . S
C1023 C1024 1.389 . S
C1024 C1023 1.389 . S
C1024 C1025 1.387 . S
C1025 H1010 0.930 . S
C1025 C1020 1.390 . S
C1025 C1024 1.387 . S
H1026 C1038 0.930 . S
H1027 C1040 0.930 . S
H1028 C1041 0.930 . S
H1029 C1045 0.959 . S
H1030 C1045 0.959 . S
H1031 C1045 0.961 . S
H1032 C1046 0.960 . S
H1033 C1046 0.961 . S
H1034 C1046 0.959 . S
H1035 C1049 0.929 . S
H1036 C1050 0.931 . S
H1037 C1052 0.930 . S
C1038 H1026 0.930 . S
C1038 C1039 1.399 . S
C1038 C1043 1.399 . S
C1039 C1038 1.399 . S
C1039 C1040 1.376 1_455 S
C1040 H1027 0.930 . S
C1040 C1039 1.376 1_655 S
C1040 C1041 1.388 . S
C1041 H1028 0.930 . S
C1041 C1040 1.388 . S
C1041 C1042 1.390 . S
C1042 C1041 1.390 . S
C1042 C1043 1.394 1_655 S
C1042 C1048 1.465 . S
C1043 C1038 1.399 . S
C1043 C1042 1.394 1_455 S
C1043 C1044 1.516 . S
C1044 C1043 1.516 . S
C1044 C1045 1.502 . S
C1044 C1046 1.561 . S
C1044 C1047 1.526 . S
C1045 H1029 0.959 . S
C1045 H1030 0.959 . S
C1045 H1031 0.961 . S
C1045 C1044 1.502 . S
C1046 H1032 0.960 . S
C1046 H1033 0.961 . S
C1046 H1034 0.959 . S
C1046 C1044 1.561 . S
C1047 C1044 1.526 . S
C1047 C1048 1.396 1_455 S
C1047 C1052 1.390 . S
C1048 C1042 1.465 . S
C1048 C1047 1.396 1_655 S
C1048 C1049 1.399 . S
C1049 H1035 0.929 . S
C1049 C1048 1.399 . S
C1049 C1050 1.385 . S
C1050 H1036 0.931 . S
C1050 C1049 1.385 . S
C1050 C1051 1.389 . S
C1051 C1050 1.389 . S
C1051 C1052 1.387 1_655 S
C1052 H1037 0.930 . S
C1052 C1047 1.390 . S
C1052 C1051 1.387 1_455 S
H1053 C1065 0.930 . S
H1054 C1067 0.930 . S
H1055 C1068 0.930 . S
H1056 C1072 0.959 . S
H1057 C1072 0.959 . S
H1058 C1072 0.959 1_554 S
H1059 C1073 0.960 . S
H1060 C1073 0.961 . S
H1061 C1073 0.959 . S
H1062 C1076 0.929 . S
H1063 C1077 0.931 . S
H1064 C1079 0.930 . S
C1065 H1053 0.930 . S
C1065 C1066 1.399 . S
C1065 C1070 1.399 . S
C1066 C1065 1.399 . S
C1066 C1067 1.376 1_565 S
C1067 H1054 0.930 . S
C1067 C1066 1.376 1_545 S
C1067 C1068 1.388 . S
C1068 H1055 0.930 . S
C1068 C1067 1.388 . S
C1068 C1069 1.390 . S
C1069 C1068 1.390 . S
C1069 C1070 1.394 1_545 S
C1069 C1075 1.465 1_554 S
C1070 C1065 1.399 . S
C1070 C1069 1.394 1_565 S
C1070 C1071 1.516 1_554 S
C1071 C1070 1.516 1_556 S
C1071 C1072 1.502 . S
C1071 C1073 1.561 . S
C1071 C1074 1.526 . S
C1072 H1056 0.959 . S
C1072 H1057 0.959 . S
C1072 H1058 0.959 1_556 S
C1072 C1071 1.502 . S
C1073 H1059 0.960 . S
C1073 H1060 0.961 . S
C1073 H1061 0.959 . S
C1073 C1071 1.561 . S
C1074 C1071 1.526 . S
C1074 C1075 1.396 1_565 S
C1074 C1079 1.390 . S
C1075 C1069 1.465 1_556 S
C1075 C1074 1.396 1_545 S
C1075 C1076 1.399 . S
C1076 H1062 0.929 . S
C1076 C1075 1.399 . S
C1076 C1077 1.385 . S
C1077 H1063 0.931 . S
C1077 C1076 1.385 . S
C1077 C1078 1.389 . S
C1078 C1077 1.389 . S
C1078 C1079 1.387 1_545 S
C1079 H1064 0.930 . S
C1079 C1074 1.390 . S
C1079 C1078 1.387 1_565 S
C445 C399 1.594 . S
C457 C3 1.607 . S
C472 C39 1.597 . S
C484 C219 1.586 . S
C499 C75 1.583 . S
C511 C255 1.589 . S
C526 C111 1.602 . S
C538 C291 1.612 . S
C553 C327 1.595 . S
C565 C147 1.586 . S
C580 C183 1.596 . S
C592 C363 1.586 . S
C607 C112 1.198 . S
C619 C4 1.242 . S
C634 C148 1.236 . S
C646 C40 1.176 . S
C661 C184 1.249 . S
C673 C76 1.188 . S
C688 C220 1.197 . S
C700 C328 1.242 . S
C715 C256 1.238 . S
C727 C364 1.175 . S
C742 C292 1.234 . S
C754 C400 1.177 . S
C769 C290 0.494 . S
C781 C2 0.505 . S
C796 C38 0.517 . S
C808 C326 0.525 . S
C823 C362 0.505 . S
C835 C74 0.494 . S
C850 C398 0.530 . S
C862 C110 0.524 . S
C877 C218 0.528 . S
C889 C146 0.529 . S
C904 C182 0.491 . S
C916 C254 0.486 . S
C931 C338 1.542 . S
C943 C14 1.469 . S
C958 C50 1.471 . S
C970 C374 1.543 . S
C985 C410 1.473 . S
C997 C86 1.543 . S
C1012 C122 1.529 . S
C1024 C230 1.522 . S
C1039 C158 1.450 . S
C1051 C266 1.531 . S
C1066 C302 1.483 . S
C1078 C194 1.544 . S
