# Generated by pormake.
# Topology vch, (7)-cn, num edge types: 1
# Building blocks:
#     Node 0, Type 0, BuildingBlock: NUHQUE_clean_sbu_2, # of connection points: 7
#     Node 1, Type 0, BuildingBlock: NUHQUE_clean_sbu_2, # of connection points: 7
#     Node 2, Type 0, BuildingBlock: NUHQUE_clean_sbu_2, # of connection points: 7
#     Node 3, Type 0, BuildingBlock: NUHQUE_clean_sbu_2, # of connection points: 7
#     Node 4, Type 0, BuildingBlock: NUHQUE_clean_sbu_2, # of connection points: 7
#     Node 5, Type 0, BuildingBlock: NUHQUE_clean_sbu_2, # of connection points: 7
#     Node 6, Type 0, BuildingBlock: NUHQUE_clean_sbu_2, # of connection points: 7
#     Node 7, Type 0, BuildingBlock: NUHQUE_clean_sbu_2, # of connection points: 7
#     Node 8, Type 0, BuildingBlock: NUHQUE_clean_sbu_2, # of connection points: 7
#     Node 9, Type 0, BuildingBlock: NUHQUE_clean_sbu_2, # of connection points: 7
#     Node 10, Type 0, BuildingBlock: NUHQUE_clean_sbu_2, # of connection points: 7
#     Node 11, Type 0, BuildingBlock: NUHQUE_clean_sbu_2, # of connection points: 7
#     Node 12, Type 0, BuildingBlock: NUHQUE_clean_sbu_2, # of connection points: 7
#     Node 13, Type 0, BuildingBlock: NUHQUE_clean_sbu_2, # of connection points: 7
#     Node 14, Type 0, BuildingBlock: NUHQUE_clean_sbu_2, # of connection points: 7
#     Node 15, Type 0, BuildingBlock: NUHQUE_clean_sbu_2, # of connection points: 7
#     Edge 16, Type (0, 0), BuildingBlock: XUDNAN_clean_linker_2, # of connection points: 2
#     Edge 17, Type (0, 0), BuildingBlock: XUDNAN_clean_linker_2, # of connection points: 2
#     Edge 18, Type (0, 0), BuildingBlock: XUDNAN_clean_linker_2, # of connection points: 2
#     Edge 19, Type (0, 0), BuildingBlock: XUDNAN_clean_linker_2, # of connection points: 2
#     Edge 20, Type (0, 0), BuildingBlock: XUDNAN_clean_linker_2, # of connection points: 2
#     Edge 21, Type (0, 0), BuildingBlock: XUDNAN_clean_linker_2, # of connection points: 2
#     Edge 22, Type (0, 0), BuildingBlock: XUDNAN_clean_linker_2, # of connection points: 2
#     Edge 23, Type (0, 0), BuildingBlock: XUDNAN_clean_linker_2, # of connection points: 2
#     Edge 24, Type (0, 0), BuildingBlock: XUDNAN_clean_linker_2, # of connection points: 2
#     Edge 25, Type (0, 0), BuildingBlock: XUDNAN_clean_linker_2, # of connection points: 2
#     Edge 26, Type (0, 0), BuildingBlock: XUDNAN_clean_linker_2, # of connection points: 2
#     Edge 27, Type (0, 0), BuildingBlock: XUDNAN_clean_linker_2, # of connection points: 2
#     Edge 28, Type (0, 0), BuildingBlock: XUDNAN_clean_linker_2, # of connection points: 2
#     Edge 29, Type (0, 0), BuildingBlock: XUDNAN_clean_linker_2, # of connection points: 2
#     Edge 30, Type (0, 0), BuildingBlock: XUDNAN_clean_linker_2, # of connection points: 2
#     Edge 31, Type (0, 0), BuildingBlock: XUDNAN_clean_linker_2, # of connection points: 2
#     Edge 32, Type (0, 0), BuildingBlock: XUDNAN_clean_linker_2, # of connection points: 2
#     Edge 33, Type (0, 0), BuildingBlock: XUDNAN_clean_linker_2, # of connection points: 2
#     Edge 34, Type (0, 0), BuildingBlock: XUDNAN_clean_linker_2, # of connection points: 2
#     Edge 35, Type (0, 0), BuildingBlock: XUDNAN_clean_linker_2, # of connection points: 2
#     Edge 36, Type (0, 0), BuildingBlock: XUDNAN_clean_linker_2, # of connection points: 2
#     Edge 37, Type (0, 0), BuildingBlock: XUDNAN_clean_linker_2, # of connection points: 2
#     Edge 38, Type (0, 0), BuildingBlock: XUDNAN_clean_linker_2, # of connection points: 2
#     Edge 39, Type (0, 0), BuildingBlock: XUDNAN_clean_linker_2, # of connection points: 2
#     Edge 40, Type (0, 0), BuildingBlock: XUDNAN_clean_linker_2, # of connection points: 2
#     Edge 41, Type (0, 0), BuildingBlock: XUDNAN_clean_linker_2, # of connection points: 2
#     Edge 42, Type (0, 0), BuildingBlock: XUDNAN_clean_linker_2, # of connection points: 2
#     Edge 43, Type (0, 0), BuildingBlock: XUDNAN_clean_linker_2, # of connection points: 2
#     Edge 44, Type (0, 0), BuildingBlock: XUDNAN_clean_linker_2, # of connection points: 2
#     Edge 45, Type (0, 0), BuildingBlock: XUDNAN_clean_linker_2, # of connection points: 2
#     Edge 46, Type (0, 0), BuildingBlock: XUDNAN_clean_linker_2, # of connection points: 2
#     Edge 47, Type (0, 0), BuildingBlock: XUDNAN_clean_linker_2, # of connection points: 2
#     Edge 48, Type (0, 0), BuildingBlock: XUDNAN_clean_linker_2, # of connection points: 2
#     Edge 49, Type (0, 0), BuildingBlock: XUDNAN_clean_linker_2, # of connection points: 2
#     Edge 50, Type (0, 0), BuildingBlock: XUDNAN_clean_linker_2, # of connection points: 2
#     Edge 51, Type (0, 0), BuildingBlock: XUDNAN_clean_linker_2, # of connection points: 2
#     Edge 52, Type (0, 0), BuildingBlock: XUDNAN_clean_linker_2, # of connection points: 2
#     Edge 53, Type (0, 0), BuildingBlock: XUDNAN_clean_linker_2, # of connection points: 2
#     Edge 54, Type (0, 0), BuildingBlock: XUDNAN_clean_linker_2, # of connection points: 2
#     Edge 55, Type (0, 0), BuildingBlock: XUDNAN_clean_linker_2, # of connection points: 2
#     Edge 56, Type (0, 0), BuildingBlock: XUDNAN_clean_linker_2, # of connection points: 2
#     Edge 57, Type (0, 0), BuildingBlock: XUDNAN_clean_linker_2, # of connection points: 2
#     Edge 58, Type (0, 0), BuildingBlock: XUDNAN_clean_linker_2, # of connection points: 2
#     Edge 59, Type (0, 0), BuildingBlock: XUDNAN_clean_linker_2, # of connection points: 2
#     Edge 60, Type (0, 0), BuildingBlock: XUDNAN_clean_linker_2, # of connection points: 2
#     Edge 61, Type (0, 0), BuildingBlock: XUDNAN_clean_linker_2, # of connection points: 2
#     Edge 62, Type (0, 0), BuildingBlock: XUDNAN_clean_linker_2, # of connection points: 2
#     Edge 63, Type (0, 0), BuildingBlock: XUDNAN_clean_linker_2, # of connection points: 2
#     Edge 64, Type (0, 0), BuildingBlock: XUDNAN_clean_linker_2, # of connection points: 2
#     Edge 65, Type (0, 0), BuildingBlock: XUDNAN_clean_linker_2, # of connection points: 2
#     Edge 66, Type (0, 0), BuildingBlock: XUDNAN_clean_linker_2, # of connection points: 2
#     Edge 67, Type (0, 0), BuildingBlock: XUDNAN_clean_linker_2, # of connection points: 2
#     Edge 68, Type (0, 0), BuildingBlock: XUDNAN_clean_linker_2, # of connection points: 2
#     Edge 69, Type (0, 0), BuildingBlock: XUDNAN_clean_linker_2, # of connection points: 2
#     Edge 70, Type (0, 0), BuildingBlock: XUDNAN_clean_linker_2, # of connection points: 2
#     Edge 71, Type (0, 0), BuildingBlock: XUDNAN_clean_linker_2, # of connection points: 2
# Relax obj value: 0.144
# Max RMSD: 0.214
# Mean RMSD: 0.214
data_MOF--net-vch--node1-NUHQUE_clean_sbu_2--edge1-XUDNAN_clean_linker_2
_symmetry_space_group_name_H-M    P1
_symmetry_Int_Tables_number       1
_symmetry_cell_setting            triclinic
loop_
_symmetry_equiv_pos_as_xyz
'x, y, z'
_cell_length_a     21.577602
_cell_length_b     51.503123
_cell_length_c     66.472888
_cell_angle_alpha  90.037986
_cell_angle_beta   89.683773
_cell_angle_gamma 89.856714
loop_
_atom_site_label
_atom_site_type_symbol
_atom_site_fract_x
_atom_site_fract_y
_atom_site_fract_z
_atom_type_partial_charge
O0 O 0.21752 0.1335 0.08544 0.0
Tb1 Tb 0.1984 0.12131 0.11627 0.0
Eu2 Eu 0.03396 0.10382 0.15076 0.0
C3 C 0.20276 0.11852 0.07015 0.0
O4 O 0.17001 0.09753 0.07359 0.0
C5 C 0.13823 0.07251 0.13111 0.0
O6 O 0.02908 0.09857 0.18457 0.0
C7 C 0.92665 0.09139 0.13557 0.0
C8 C 0.03347 0.11775 0.1976 0.0
O9 O 0.04391 0.14141 0.19104 0.0
C10 C 0.10067 0.16267 0.13702 0.0
C11 C 0.86882 0.10002 0.1253 0.0
C12 C 0.86963 0.10731 0.10481 0.0
C13 C 0.81392 0.11189 0.09449 0.0
C14 C 0.7575 0.10976 0.10487 0.0
C15 C 0.75502 0.1023 0.12508 0.0
C16 C 0.81096 0.09773 0.13537 0.0
O17 O 0.12833 0.09219 0.11918 0.0
O18 O 0.10355 0.07131 0.1472 0.0
O19 O 0.28541 0.09935 0.11564 0.0
O20 O 0.26877 0.12504 0.13996 0.0
C21 C 0.30851 0.10878 0.1321 0.0
O22 O 0.05811 0.14637 0.14435 0.0
O23 O 0.15403 0.15658 0.1279 0.0
O24 O 0.93431 0.09796 0.15449 0.0
O25 O 0.97898 0.09071 0.12526 0.0
H26 H 0.91316 0.1084 0.09665 0.0
H27 H 0.71459 0.11389 0.09704 0.0
H28 H 0.80931 0.09141 0.15091 0.0
O29 O 0.35534 0.89437 0.09022 0.0
Tb30 Tb 0.35339 0.89761 0.12275 0.0
Eu31 Eu 0.55858 0.89749 0.138 0.0
C32 C 0.31479 0.9065 0.07886 0.0
O33 O 0.2759 0.92308 0.08711 0.0
C34 C 0.45765 0.93732 0.13437 0.0
O35 O 0.55538 0.88098 0.16943 0.0
C36 C 0.66713 0.89233 0.12128 0.0
C37 C 0.52812 0.89406 0.18399 0.0
O38 O 0.50079 0.91618 0.17971 0.0
C39 C 0.44931 0.85614 0.13082 0.0
C40 C 0.71405 0.90488 0.10813 0.0
C41 C 0.71194 0.90256 0.087 0.0
C42 C 0.76042 0.91237 0.07494 0.0
C43 C 0.8108 0.92467 0.08416 0.0
C44 C 0.81478 0.92605 0.10516 0.0
C45 C 0.76625 0.91634 0.11702 0.0
O46 O 0.43329 0.9144 0.13712 0.0
O47 O 0.51824 0.93817 0.13557 0.0
O48 O 0.26078 0.89187 0.13536 0.0
O49 O 0.29216 0.93029 0.12888 0.0
C50 C 0.24573 0.91648 0.13538 0.0
O51 O 0.48268 0.87467 0.12245 0.0
O52 O 0.38847 0.85935 0.13134 0.0
O53 O 0.61597 0.88352 0.1131 0.0
O54 O 0.65829 0.90245 0.13925 0.0
H55 H 0.6738 0.89247 0.07992 0.0
H56 H 0.84965 0.93113 0.07504 0.0
H57 H 0.77058 0.91678 0.13327 0.0
O58 O 0.74824 0.86289 0.43669 0.0
Tb59 Tb 0.73935 0.85157 0.40533 0.0
Eu60 Eu 0.54562 0.866 0.37665 0.0
C61 C 0.71403 0.88123 0.44489 0.0
O62 O 0.67058 0.89248 0.43419 0.0
C63 C 0.66002 0.89775 0.38471 0.0
O64 O 0.56083 0.8592 0.34349 0.0
C65 C 0.42917 0.87158 0.38503 0.0
C66 C 0.53267 0.87519 0.33109 0.0
O67 O 0.49874 0.894 0.33878 0.0
C68 C 0.6232 0.81946 0.39626 0.0
C69 C 0.38111 0.86268 0.39928 0.0
C70 C 0.38303 0.8679 0.42011 0.0
C71 C 0.33457 0.85937 0.43277 0.0
C72 C 0.28483 0.84562 0.42447 0.0
C73 C 0.28167 0.84138 0.40373 0.0
C74 C 0.32979 0.84974 0.39126 0.0
O75 O 0.6729 0.87306 0.38741 0.0
O76 O 0.6041 0.9023 0.37783 0.0
O77 O 0.8102 0.82269 0.39901 0.0
O78 O 0.82361 0.86136 0.38844 0.0
C79 C 0.84735 0.83806 0.38926 0.0
O80 O 0.59415 0.8414 0.39988 0.0
O81 O 0.68165 0.81731 0.40164 0.0
O82 O 0.45075 0.85375 0.37266 0.0
O83 O 0.47161 0.88796 0.39136 0.0
H84 H 0.42108 0.87887 0.4264 0.0
H85 H 0.24585 0.84014 0.43392 0.0
H86 H 0.3262 0.8469 0.37513 0.0
O87 O 0.85203 0.11863 0.42536 0.0
Tb88 Tb 0.84122 0.11487 0.39283 0.0
Eu89 Eu 0.00197 0.10061 0.39191 0.0
C90 C 0.82985 0.10089 0.43777 0.0
O91 O 0.80796 0.07917 0.43029 0.0
C92 C 0.89522 0.06017 0.39184 0.0
O93 O 0.98402 0.09737 0.35846 0.0
C94 C 0.11781 0.09239 0.40006 0.0
C95 C 0.00256 0.11555 0.34584 0.0
O96 O 0.02884 0.13654 0.35305 0.0
C97 C 0.94413 0.15678 0.39243 0.0
C98 C 0.17207 0.10636 0.40814 0.0
C99 C 0.17358 0.11513 0.42826 0.0
C100 C 0.22743 0.1266 0.43605 0.0
C101 C 0.27948 0.12932 0.42357 0.0
C102 C 0.27899 0.12025 0.40374 0.0
C103 C 0.22521 0.10903 0.39596 0.0
O104 O 0.86761 0.07744 0.38048 0.0
O105 O 0.9447 0.06669 0.40195 0.0
O106 O 0.74468 0.10733 0.40021 0.0
O107 O 0.76488 0.12958 0.37417 0.0
C108 C 0.72084 0.11942 0.38502 0.0
O109 O 0.97843 0.14061 0.40283 0.0
O110 O 0.89282 0.14916 0.38361 0.0
O111 O 0.09852 0.0994 0.38216 0.0
O112 O 0.07237 0.08704 0.41263 0.0
H113 H 0.13366 0.11256 0.43801 0.0
H114 H 0.32222 0.13701 0.42968 0.0
H115 H 0.2257 0.10129 0.38078 0.0
O116 O 0.86746 0.8878 0.91806 0.0
Tb117 Tb 0.85586 0.88946 0.88552 0.0
Eu118 Eu 0.01132 0.90369 0.88812 0.0
C119 C 0.84853 0.90687 0.92983 0.0
O120 O 0.82887 0.9286 0.92171 0.0
C121 C 0.90564 0.94449 0.88507 0.0
O122 O 0.99167 0.90414 0.85481 0.0
C123 C 0.12624 0.91458 0.89591 0.0
C124 C 0.01597 0.88646 0.8428 0.0
O125 O 0.05053 0.86799 0.85055 0.0
C126 C 0.95677 0.84695 0.88993 0.0
C127 C 0.18258 0.90318 0.90497 0.0
C128 C 0.18476 0.89703 0.92565 0.0
C129 C 0.24018 0.88837 0.9344 0.0
C130 C 0.29334 0.88601 0.92236 0.0
C131 C 0.29233 0.89245 0.90192 0.0
C132 C 0.23669 0.90067 0.89316 0.0
O133 O 0.88064 0.92716 0.87318 0.0
O134 O 0.95122 0.93749 0.89681 0.0
O135 O 0.76041 0.89506 0.89504 0.0
O136 O 0.77721 0.87663 0.86696 0.0
C137 C 0.73452 0.88497 0.87934 0.0
O138 O 0.98953 0.86402 0.90003 0.0
O139 O 0.90846 0.85411 0.87916 0.0
O140 O 0.10823 0.90513 0.87855 0.0
O141 O 0.0799 0.92029 0.90806 0.0
H142 H 0.14387 0.8993 0.93503 0.0
H143 H 0.33686 0.8802 0.92913 0.0
H144 H 0.23625 0.90627 0.87743 0.0
O145 O 0.71942 0.15027 0.93886 0.0
Tb146 Tb 0.70074 0.14055 0.90769 0.0
Eu147 Eu 0.52611 0.12999 0.87148 0.0
C148 C 0.69571 0.13609 0.95341 0.0
O149 O 0.65458 0.11829 0.94889 0.0
C150 C 0.62586 0.09495 0.89013 0.0
O151 O 0.54308 0.13393 0.83798 0.0
C152 C 0.41074 0.1202 0.87921 0.0
C153 C 0.54019 0.1565 0.8288 0.0
O154 O 0.52902 0.17748 0.83948 0.0
C155 C 0.60671 0.17762 0.88844 0.0
C156 C 0.35728 0.1223 0.89296 0.0
C157 C 0.36312 0.12377 0.91409 0.0
C158 C 0.3096 0.12329 0.92641 0.0
C159 C 0.25113 0.12179 0.91731 0.0
C160 C 0.2451 0.12029 0.89637 0.0
C161 C 0.29835 0.12078 0.88431 0.0
O162 O 0.62306 0.11512 0.90215 0.0
O163 O 0.58539 0.09415 0.87551 0.0
O164 O 0.76822 0.14481 0.88319 0.0
O165 O 0.78414 0.11672 0.90589 0.0
C166 C 0.80577 0.1268 0.88942 0.0
O167 O 0.56771 0.15897 0.89335 0.0
O168 O 0.66378 0.1764 0.89542 0.0
O169 O 0.42876 0.14116 0.86952 0.0
O170 O 0.45624 0.10455 0.88426 0.0
H171 H 0.40866 0.12459 0.92084 0.0
H172 H 0.20972 0.12221 0.92663 0.0
H173 H 0.29404 0.11919 0.8681 0.0
O174 O 0.366 0.12919 0.59016 0.0
Tb175 Tb 0.37128 0.11747 0.6214 0.0
Eu176 Eu 0.53802 0.10345 0.64227 0.0
C177 C 0.33223 0.1146 0.57826 0.0
O178 O 0.30755 0.09334 0.58569 0.0
C179 C 0.43093 0.06511 0.62914 0.0
O180 O 0.547 0.11283 0.67548 0.0
C181 C 0.63926 0.08584 0.62548 0.0
C182 C 0.56541 0.13603 0.68124 0.0
O183 O 0.58118 0.15303 0.66742 0.0
C184 C 0.46891 0.15697 0.63373 0.0
C185 C 0.69647 0.094 0.6145 0.0
C186 C 0.69566 0.09955 0.59363 0.0
C187 C 0.75067 0.1063 0.58343 0.0
C188 C 0.80641 0.10712 0.59406 0.0
C189 C 0.80877 0.10106 0.61459 0.0
C190 C 0.75368 0.09439 0.62472 0.0
O191 O 0.4208 0.08183 0.61469 0.0
O192 O 0.46586 0.07148 0.64452 0.0
O193 O 0.27506 0.13024 0.6219 0.0
O194 O 0.29887 0.09578 0.63764 0.0
C195 C 0.25356 0.11135 0.6328 0.0
O196 O 0.52022 0.14387 0.63026 0.0
O197 O 0.41908 0.1451 0.6403 0.0
O198 O 0.63488 0.09167 0.64472 0.0
O199 O 0.58599 0.08765 0.61604 0.0
H200 H 0.65267 0.0987 0.58531 0.0
H201 H 0.8489 0.11164 0.586 0.0
H202 H 0.75546 0.08946 0.64056 0.0
O203 O 0.21625 0.86538 0.58419 0.0
Tb204 Tb 0.20394 0.87026 0.61652 0.0
Eu205 Eu 0.02875 0.89234 0.64808 0.0
C206 C 0.18964 0.88114 0.57129 0.0
O207 O 0.14857 0.89809 0.57776 0.0
C208 C 0.1429 0.91926 0.63503 0.0
O209 O 0.00949 0.89455 0.68142 0.0
C210 C 0.92914 0.90613 0.6288 0.0
C211 C 0.03917 0.88064 0.69488 0.0
O212 O 0.08213 0.86416 0.68895 0.0
C213 C 0.09635 0.83219 0.63631 0.0
C214 C 0.87049 0.89953 0.61827 0.0
C215 C 0.86739 0.90223 0.59717 0.0
C216 C 0.81017 0.90098 0.58729 0.0
C217 C 0.75605 0.89667 0.5984 0.0
C218 C 0.75764 0.89377 0.61932 0.0
C219 C 0.81506 0.89491 0.62925 0.0
O220 O 0.13449 0.89743 0.62542 0.0
O221 O 0.09856 0.92486 0.64754 0.0
O222 O 0.28679 0.89282 0.62352 0.0
O223 O 0.28126 0.85411 0.634 0.0
C224 C 0.31596 0.87475 0.63326 0.0
O225 O 0.05415 0.8493 0.64302 0.0
O226 O 0.15075 0.83697 0.62737 0.0
O227 O 0.93144 0.90318 0.6484 0.0
O228 O 0.98276 0.902 0.61975 0.0
H229 H 0.90882 0.90663 0.58854 0.0
H230 H 0.71197 0.89579 0.59064 0.0
H231 H 0.81595 0.89348 0.64551 0.0
O232 O 0.66343 0.63219 0.1032 0.0
Tb233 Tb 0.6775 0.62848 0.13563 0.0
Eu234 Eu 0.51727 0.61802 0.13581 0.0
C235 C 0.68384 0.61398 0.09082 0.0
O236 O 0.70606 0.59238 0.09842 0.0
C237 C 0.61997 0.57474 0.13705 0.0
O238 O 0.52568 0.61177 0.16934 0.0
C239 C 0.40354 0.61057 0.12484 0.0
C240 C 0.51718 0.63072 0.18239 0.0
O241 O 0.50806 0.65445 0.17581 0.0
C242 C 0.58209 0.67397 0.13802 0.0
C243 C 0.34789 0.62406 0.11716 0.0
C244 C 0.3432 0.63091 0.09666 0.0
C245 C 0.28685 0.63997 0.08895 0.0
C246 C 0.2357 0.64269 0.1017 0.0
C247 C 0.23911 0.63544 0.12192 0.0
C248 C 0.29538 0.62649 0.12974 0.0
O249 O 0.65106 0.59127 0.14799 0.0
O250 O 0.57245 0.58268 0.12649 0.0
O251 O 0.77353 0.62095 0.1272 0.0
O252 O 0.75535 0.64153 0.15423 0.0
C253 C 0.79852 0.63194 0.1427 0.0
O254 O 0.54069 0.65976 0.1286 0.0
O255 O 0.63172 0.66358 0.14618 0.0
O256 O 0.41939 0.61512 0.14357 0.0
O257 O 0.45124 0.60799 0.11259 0.0
H258 H 0.38178 0.62771 0.08644 0.0
H259 H 0.19148 0.64866 0.09547 0.0
H260 H 0.29707 0.61981 0.1452 0.0
O261 O 0.81322 0.3601 0.07522 0.0
Tb262 Tb 0.81306 0.36634 0.10767 0.0
Eu263 Eu 0.99259 0.39074 0.14076 0.0
C264 C 0.79299 0.37845 0.06306 0.0
O265 O 0.78141 0.40162 0.07048 0.0
C266 C 0.87454 0.41807 0.12844 0.0
O267 O 0.98746 0.39381 0.17484 0.0
C268 C 0.10061 0.4033 0.12699 0.0
C269 C 0.97768 0.37483 0.18777 0.0
O270 O 0.96932 0.35106 0.18116 0.0
C271 C 0.92363 0.33735 0.12661 0.0
C272 C 0.14671 0.39692 0.11126 0.0
C273 C 0.13528 0.39967 0.09044 0.0
C274 C 0.18333 0.3952 0.07627 0.0
C275 C 0.24252 0.38852 0.08337 0.0
C276 C 0.25362 0.38565 0.10396 0.0
C277 C 0.2057 0.38958 0.11775 0.0
O278 O 0.87454 0.39432 0.12133 0.0
O279 O 0.9256 0.42431 0.13772 0.0
O280 O 0.72479 0.38638 0.1085 0.0
O281 O 0.73418 0.3505 0.12427 0.0
C282 C 0.69656 0.36935 0.11965 0.0
O283 O 0.95192 0.35881 0.121 0.0
O284 O 0.86618 0.33382 0.12022 0.0
O285 O 0.09238 0.38589 0.14127 0.0
O286 O 0.04952 0.41536 0.12163 0.0
H287 H 0.08962 0.40529 0.08531 0.0
H288 H 0.28081 0.38606 0.07291 0.0
H289 H 0.2152 0.38803 0.13372 0.0
O290 O 0.11926 0.38399 0.41307 0.0
Tb291 Tb 0.12318 0.38818 0.38045 0.0
Eu292 Eu 0.95484 0.39743 0.38308 0.0
C293 C 0.14466 0.40149 0.42493 0.0
O294 O 0.16511 0.42325 0.41705 0.0
C295 C 0.0586 0.43921 0.38006 0.0
O296 O 0.9624 0.40229 0.34915 0.0
C297 C 0.84463 0.40667 0.39751 0.0
C298 C 0.95304 0.38289 0.33653 0.0
O299 O 0.93796 0.36002 0.34377 0.0
C300 C 0.02759 0.34316 0.3798 0.0
C301 C 0.78608 0.39744 0.40694 0.0
C302 C 0.77791 0.39849 0.4281 0.0
C303 C 0.71876 0.39509 0.43674 0.0
C304 C 0.6683 0.39012 0.4242 0.0
C305 C 0.67553 0.38898 0.40329 0.0
C306 C 0.7344 0.3923 0.3947 0.0
O307 O 0.08205 0.42239 0.3674 0.0
O308 O 0.01349 0.43162 0.39188 0.0
O309 O 0.21501 0.40569 0.38044 0.0
O310 O 0.20315 0.36965 0.36562 0.0
C311 C 0.24292 0.38758 0.37029 0.0
O312 O 0.98478 0.35633 0.38976 0.0
O313 O 0.07279 0.35456 0.36976 0.0
O314 O 0.85539 0.40158 0.3784 0.0
O315 O 0.89511 0.40721 0.40848 0.0
H316 H 0.81642 0.40352 0.43773 0.0
H317 H 0.62241 0.38789 0.43073 0.0
H318 H 0.73895 0.39258 0.37845 0.0
O319 O 0.27183 0.62881 0.44276 0.0
Tb320 Tb 0.29451 0.62903 0.41083 0.0
Eu321 Eu 0.47375 0.60825 0.37586 0.0
C322 C 0.29734 0.61325 0.45605 0.0
O323 O 0.34245 0.5976 0.45048 0.0
C324 C 0.36267 0.57915 0.39374 0.0
O325 O 0.45564 0.60923 0.34233 0.0
C326 C 0.5882 0.59674 0.38327 0.0
C327 C 0.48033 0.62658 0.33015 0.0
O328 O 0.51242 0.64585 0.33768 0.0
C329 C 0.40458 0.65951 0.39298 0.0
C330 C 0.64041 0.60281 0.39661 0.0
C331 C 0.63437 0.6039 0.41771 0.0
C332 C 0.68661 0.60879 0.42981 0.0
C333 C 0.74425 0.613 0.42042 0.0
C334 C 0.75048 0.61173 0.39945 0.0
C335 C 0.69854 0.60661 0.38767 0.0
O336 O 0.36643 0.60062 0.40431 0.0
O337 O 0.40849 0.5747 0.38111 0.0
O338 O 0.20929 0.64745 0.40073 0.0
O339 O 0.2294 0.60907 0.39102 0.0
C340 C 0.18952 0.62797 0.39017 0.0
O341 O 0.4351 0.63824 0.39761 0.0
O342 O 0.34777 0.66235 0.4001 0.0
O343 O 0.57179 0.61509 0.37062 0.0
O344 O 0.54128 0.58354 0.39073 0.0
H345 H 0.58952 0.60065 0.42466 0.0
H346 H 0.78535 0.61577 0.42948 0.0
H347 H 0.70352 0.60537 0.37144 0.0
O348 O 0.26751 0.38286 0.92266 0.0
Tb349 Tb 0.27735 0.37438 0.89068 0.0
Eu350 Eu 0.47169 0.39542 0.86683 0.0
C351 C 0.22751 0.4006 0.92878 0.0
O352 O 0.19689 0.41399 0.91526 0.0
C353 C 0.35418 0.42354 0.87775 0.0
O354 O 0.45434 0.39899 0.83328 0.0
C355 C 0.58674 0.40056 0.87698 0.0
C356 C 0.47098 0.38133 0.8199 0.0
O357 O 0.49634 0.35955 0.82606 0.0
C358 C 0.39697 0.3442 0.88141 0.0
C359 C 0.63484 0.38802 0.88941 0.0
C360 C 0.62918 0.3842 0.91044 0.0
C361 C 0.67679 0.37129 0.92101 0.0
C362 C 0.72919 0.36243 0.91047 0.0
C363 C 0.73567 0.36697 0.88986 0.0
C364 C 0.68884 0.3798 0.87945 0.0
O365 O 0.33944 0.39935 0.87386 0.0
O366 O 0.4119 0.43002 0.87411 0.0
O367 O 0.19354 0.38776 0.87554 0.0
O368 O 0.20604 0.34736 0.88132 0.0
C369 C 0.16937 0.36472 0.87362 0.0
O370 O 0.42144 0.36651 0.88665 0.0
O371 O 0.33755 0.34085 0.88527 0.0
O372 O 0.56871 0.38723 0.86118 0.0
O373 O 0.54155 0.41334 0.88596 0.0
H374 H 0.58835 0.39094 0.91845 0.0
H375 H 0.76659 0.35301 0.91854 0.0
H376 H 0.6946 0.38341 0.86347 0.0
O377 O 0.12775 0.63698 0.93677 0.0
Tb378 Tb 0.12477 0.62066 0.90666 0.0
Eu379 Eu 0.95775 0.60289 0.88444 0.0
C380 C 0.12761 0.62163 0.95255 0.0
O381 O 0.11666 0.59679 0.95007 0.0
C382 C 0.06794 0.5681 0.89953 0.0
O383 O 0.94927 0.60961 0.85085 0.0
C384 C 0.85771 0.58728 0.90289 0.0
C385 C 0.99924 0.61729 0.8411 0.0
O386 O 0.05147 0.61911 0.85101 0.0
C387 C 0.02684 0.65797 0.89011 0.0
C388 C 0.80103 0.59659 0.91365 0.0
C389 C 0.80278 0.60373 0.93423 0.0
C390 C 0.7483 0.61145 0.94436 0.0
C391 C 0.69211 0.61164 0.93397 0.0
C392 C 0.68883 0.60392 0.91378 0.0
C393 C 0.74341 0.59633 0.9037 0.0
O394 O 0.06998 0.58654 0.91305 0.0
O395 O 0.03008 0.57085 0.88426 0.0
O396 O 0.22157 0.63247 0.90657 0.0
O397 O 0.19771 0.59719 0.89209 0.0
C398 C 0.24318 0.61267 0.89667 0.0
O399 O 0.97531 0.64485 0.89334 0.0
O400 O 0.07903 0.64615 0.88556 0.0
O401 O 0.86097 0.59076 0.88328 0.0
O402 O 0.91139 0.59032 0.91188 0.0
H403 H 0.8461 0.60329 0.94239 0.0
H404 H 0.64996 0.61685 0.942 0.0
H405 H 0.74086 0.59011 0.88815 0.0
O406 O 0.81028 0.62113 0.58128 0.0
Tb407 Tb 0.82662 0.62029 0.6136 0.0
Eu408 Eu 0.99871 0.60879 0.65318 0.0
C409 C 0.7901 0.59955 0.57301 0.0
O410 O 0.78775 0.57856 0.58415 0.0
C411 C 0.88792 0.57636 0.63893 0.0
O412 O 0.97816 0.61908 0.68565 0.0
C413 C 0.11272 0.59397 0.64827 0.0
C414 C 0.00443 0.63907 0.69445 0.0
O415 O 0.03948 0.65458 0.68363 0.0
C416 C 0.93222 0.65505 0.62902 0.0
C417 C 0.16592 0.5944 0.63433 0.0
C418 C 0.15873 0.5951 0.61328 0.0
C419 C 0.2113 0.59545 0.60055 0.0
C420 C 0.27055 0.5951 0.60924 0.0
C421 C 0.278 0.59469 0.63016 0.0
C422 C 0.22552 0.59442 0.64261 0.0
O423 O 0.89609 0.59303 0.6242 0.0
O424 O 0.92983 0.57595 0.65317 0.0
O425 O 0.74586 0.59676 0.6208 0.0
O426 O 0.75224 0.63442 0.63349 0.0
C427 C 0.71864 0.61352 0.63241 0.0
O428 O 0.96269 0.63301 0.62729 0.0
O429 O 0.87545 0.65612 0.62167 0.0
O430 O 0.09724 0.61622 0.65664 0.0
O431 O 0.065 0.57938 0.64353 0.0
H432 H 0.11263 0.59538 0.6069 0.0
H433 H 0.31138 0.59644 0.59972 0.0
H434 H 0.23111 0.59421 0.65882 0.0
O435 O 0.60898 0.39387 0.595 0.0
Tb436 Tb 0.62676 0.38954 0.62704 0.0
Eu437 Eu 0.46701 0.40465 0.62464 0.0
C438 C 0.64226 0.37983 0.58232 0.0
O439 O 0.67949 0.36199 0.58964 0.0
C440 C 0.57323 0.4419 0.63602 0.0
O441 O 0.46365 0.4075 0.6588 0.0
C442 C 0.36049 0.4174 0.60907 0.0
C443 C 0.46802 0.38752 0.67114 0.0
O444 O 0.4748 0.36408 0.66369 0.0
C445 C 0.52643 0.34614 0.62367 0.0
C446 C 0.30426 0.40726 0.59878 0.0
C447 C 0.30391 0.40236 0.57781 0.0
C448 C 0.24901 0.39451 0.56822 0.0
C449 C 0.19434 0.39228 0.57949 0.0
C450 C 0.19309 0.39775 0.60011 0.0
C451 C 0.24829 0.40483 0.60977 0.0
O452 O 0.59551 0.4217 0.64546 0.0
O453 O 0.53359 0.43819 0.62143 0.0
O454 O 0.7185 0.403 0.61804 0.0
O455 O 0.71222 0.37371 0.64035 0.0
C456 C 0.75017 0.38815 0.62994 0.0
O457 O 0.4877 0.36311 0.6157 0.0
O458 O 0.57923 0.35296 0.63208 0.0
O459 O 0.36785 0.41143 0.62814 0.0
O460 O 0.41311 0.41816 0.59898 0.0
H461 H 0.34585 0.40463 0.56895 0.0
H462 H 0.15188 0.38659 0.57202 0.0
H463 H 0.24706 0.40939 0.62569 0.0
H464 H 0.65916 0.07333 0.11097 0.0
H465 H 0.70907 0.12527 0.15945 0.0
H466 H 0.59866 0.12762 0.17 0.0
H467 H 0.53083 0.10534 0.09616 0.0
H468 H 0.48465 0.07733 0.09003 0.0
H469 H 0.56772 0.0752 0.08912 0.0
H470 H 0.56517 0.03643 0.11398 0.0
H471 H 0.48172 0.0383 0.11484 0.0
H472 H 0.52557 0.03986 0.13779 0.0
H473 H 0.48051 0.13017 0.1713 0.0
H474 H 0.36813 0.13172 0.16385 0.0
H475 H 0.39639 0.07801 0.11444 0.0
C476 C 0.64706 0.08443 0.12428 0.0
C477 C 0.69269 0.09896 0.13453 0.0
C478 C 0.67507 0.11365 0.15163 0.0
C479 C 0.61238 0.11515 0.15763 0.0
C480 C 0.56807 0.10152 0.14658 0.0
C481 C 0.58498 0.08603 0.13044 0.0
C482 C 0.52854 0.07545 0.11969 0.0
C483 C 0.52793 0.08385 0.09745 0.0
C484 C 0.52507 0.04575 0.1217 0.0
C485 C 0.47708 0.08846 0.13158 0.0
C486 C 0.50052 0.10304 0.14728 0.0
C487 C 0.46176 0.11838 0.15931 0.0
C488 C 0.39795 0.11917 0.15498 0.0
C489 C 0.37353 0.10489 0.13864 0.0
C490 C 0.4136 0.0889 0.12717 0.0
H491 H 0.14247 0.88981 0.14695 0.0
H492 H 0.20519 0.9651 0.12616 0.0
H493 H 0.09674 0.97899 0.12166 0.0
H494 H 0.03183 0.88141 0.11247 0.0
H495 H 0.97528 0.86579 0.12841 0.0
H496 H 0.05605 0.86381 0.13453 0.0
H497 H 0.0337 0.88323 0.16982 0.0
H498 H 0.95236 0.88505 0.16386 0.0
H499 H 0.99299 0.91372 0.17195 0.0
H500 H 0.98511 0.98089 0.11199 0.0
H501 H 0.87809 0.97171 0.10068 0.0
H502 H 0.88658 0.89617 0.12908 0.0
C503 C 0.13311 0.90956 0.14227 0.0
C504 C 0.18192 0.92648 0.13713 0.0
C505 C 0.16831 0.95198 0.13051 0.0
C506 C 0.1068 0.96003 0.12787 0.0
C507 C 0.05952 0.94247 0.13219 0.0
C508 C 0.07191 0.91792 0.13966 0.0
C509 C 0.01355 0.90175 0.14095 0.0
C510 C 0.01958 0.87674 0.12833 0.0
C511 C 0.99718 0.89558 0.16296 0.0
C512 C 0.96717 0.92042 0.13191 0.0
C513 C 0.99431 0.94395 0.12718 0.0
C514 C 0.96271 0.96293 0.11627 0.0
C515 C 0.9022 0.95758 0.10984 0.0
C516 C 0.87403 0.93356 0.11451 0.0
C517 C 0.90649 0.91506 0.12603 0.0
H518 H 0.93891 0.87031 0.37612 0.0
H519 H 0.89967 0.79014 0.39113 0.0
H520 H 0.0112 0.77989 0.38955 0.0
H521 H 0.08297 0.85655 0.34329 0.0
H522 H 0.12031 0.88523 0.3529 0.0
H523 H 0.03731 0.8847 0.34986 0.0
H524 H 0.0235 0.89744 0.38733 0.0
H525 H 0.10595 0.89775 0.39056 0.0
H526 H 0.0585 0.87752 0.40649 0.0
H527 H 0.12445 0.78088 0.3951 0.0
H528 H 0.23159 0.79275 0.40475 0.0
H529 H 0.19896 0.87149 0.38473 0.0
C530 C 0.95379 0.85039 0.37815 0.0
C531 C 0.91114 0.83099 0.38367 0.0
C532 C 0.93191 0.80524 0.38678 0.0
C533 C 0.99513 0.79921 0.38584 0.0
C534 C 0.0367 0.81909 0.38145 0.0
C535 C 0.01684 0.84409 0.37724 0.0
C536 C 0.0709 0.86264 0.37574 0.0
C537 C 0.07831 0.87287 0.35416 0.0
C538 C 0.06429 0.88513 0.39094 0.0
C539 C 0.12358 0.8446 0.38121 0.0
C540 C 0.10319 0.81942 0.3841 0.0
C541 C 0.14162 0.80023 0.39214 0.0
C542 C 0.20208 0.80707 0.39765 0.0
C543 C 0.22306 0.83275 0.39492 0.0
C544 C 0.18404 0.8515 0.38618 0.0
H545 H 0.63327 0.08941 0.40212 0.0
H546 H 0.65817 0.15168 0.35905 0.0
H547 H 0.54391 0.15471 0.35501 0.0
H548 H 0.49649 0.05933 0.37791 0.0
H549 H 0.46232 0.05149 0.40194 0.0
H550 H 0.54544 0.05229 0.39911 0.0
H551 H 0.55257 0.08543 0.42843 0.0
H552 H 0.46982 0.08466 0.43136 0.0
H553 H 0.5085 0.11517 0.42718 0.0
H554 H 0.42617 0.15444 0.3596 0.0
H555 H 0.31811 0.1511 0.37255 0.0
H556 H 0.37367 0.08817 0.41162 0.0
C557 C 0.61475 0.10341 0.39157 0.0
C558 C 0.654 0.12039 0.38092 0.0
C559 C 0.62842 0.13847 0.36727 0.0
C560 C 0.56377 0.14023 0.36486 0.0
C561 C 0.52604 0.12341 0.37594 0.0
C562 C 0.55094 0.10518 0.38887 0.0
C563 C 0.50133 0.09063 0.40026 0.0
C564 C 0.50141 0.06172 0.39445 0.0
C565 C 0.50849 0.09421 0.42315 0.0
C566 C 0.44438 0.10428 0.39247 0.0
C567 C 0.45908 0.12288 0.37821 0.0
C568 C 0.41403 0.13953 0.37037 0.0
C569 C 0.35293 0.1375 0.37771 0.0
C570 C 0.3382 0.11908 0.39272 0.0
C571 C 0.38402 0.10194 0.39975 0.0
H572 H 0.39312 0.92046 0.91136 0.0
H573 H 0.32579 0.86419 0.86839 0.0
H574 H 0.43264 0.85903 0.85467 0.0
H575 H 0.51773 0.94934 0.87903 0.0
H576 H 0.56831 0.95271 0.90035 0.0
H577 H 0.48557 0.95521 0.90371 0.0
H578 H 0.4899 0.91888 0.93067 0.0
H579 H 0.57224 0.91598 0.92723 0.0
H580 H 0.52353 0.88788 0.9242 0.0
H581 H 0.55101 0.85625 0.84907 0.0
H582 H 0.66601 0.8567 0.85198 0.0
H583 H 0.65118 0.91374 0.89972 0.0
C584 C 0.40068 0.90768 0.89862 0.0
C585 C 0.35174 0.89284 0.89076 0.0
C586 C 0.36294 0.87597 0.87434 0.0
C587 C 0.42339 0.8729 0.86655 0.0
C588 C 0.47144 0.88709 0.87528 0.0
C589 C 0.46022 0.90442 0.89081 0.0
C590 C 0.51947 0.91552 0.8991 0.0
C591 C 0.52296 0.94494 0.89531 0.0
C592 C 0.52667 0.90916 0.92162 0.0
C593 C 0.56624 0.90103 0.88642 0.0
C594 C 0.53822 0.88504 0.87247 0.0
C595 C 0.57325 0.86897 0.85978 0.0
C596 C 0.63834 0.86926 0.86154 0.0
C597 C 0.66704 0.88514 0.87613 0.0
C598 C 0.63038 0.90133 0.88847 0.0
H599 H 0.14989 0.08924 0.90856 0.0
H600 H 0.19945 0.14745 0.86426 0.0
H601 H 0.09112 0.14845 0.85243 0.0
H602 H 0.02308 0.0565 0.87822 0.0
H603 H 0.97654 0.05197 0.90054 0.0
H604 H 0.05994 0.0511 0.90213 0.0
H605 H 0.05667 0.08718 0.92936 0.0
H606 H 0.97371 0.08808 0.92787 0.0
H607 H 0.01772 0.11737 0.92395 0.0
H608 H 0.97586 0.14966 0.8502 0.0
H609 H 0.86388 0.15143 0.85821 0.0
H610 H 0.88929 0.09231 0.90381 0.0
C611 C 0.13815 0.1017 0.89602 0.0
C612 C 0.18279 0.11827 0.8873 0.0
C613 C 0.16598 0.13438 0.87097 0.0
C614 C 0.10462 0.13502 0.86413 0.0
C615 C 0.06107 0.11913 0.87358 0.0
C616 C 0.07729 0.10252 0.88905 0.0
C617 C 0.02086 0.09008 0.89855 0.0
C618 C 0.02008 0.06067 0.89462 0.0
C619 C 0.01704 0.09606 0.92126 0.0
C620 C 0.97013 0.10366 0.88699 0.0
C621 C 0.99413 0.11981 0.87227 0.0
C622 C 0.95642 0.1366 0.86129 0.0
C623 C 0.89296 0.13751 0.86594 0.0
C624 C 0.86841 0.12194 0.88155 0.0
C625 C 0.907 0.10413 0.8916 0.0
H626 H 0.89908 0.13786 0.61227 0.0
H627 H 0.85775 0.06308 0.63891 0.0
H628 H 0.9666 0.05943 0.65036 0.0
H629 H 0.03954 0.12056 0.59195 0.0
H630 H 0.07694 0.15134 0.59612 0.0
H631 H 0.99423 0.14998 0.59331 0.0
H632 H 0.97944 0.17292 0.62774 0.0
H633 H 0.06235 0.17456 0.63061 0.0
H634 H 0.01547 0.1595 0.64983 0.0
H635 H 0.08458 0.06152 0.65446 0.0
H636 H 0.19762 0.0699 0.65166 0.0
H637 H 0.15912 0.143 0.62194 0.0
C638 C 0.91256 0.12099 0.62094 0.0
C639 C 0.87 0.10078 0.62476 0.0
C640 C 0.8894 0.07896 0.63608 0.0
C641 C 0.95122 0.07669 0.64255 0.0
C642 C 0.99271 0.09656 0.63777 0.0
C643 C 0.97374 0.11844 0.62742 0.0
C644 C 0.0277 0.13605 0.62253 0.0
C645 C 0.03501 0.13967 0.59963 0.0
C646 C 0.02082 0.16231 0.63333 0.0
C647 C 0.0805 0.12035 0.63114 0.0
C648 C 0.05971 0.09773 0.64009 0.0
C649 C 0.10111 0.07941 0.64782 0.0
C650 C 0.16516 0.08427 0.64616 0.0
C651 C 0.18688 0.10716 0.63673 0.0
C652 C 0.14382 0.12549 0.62946 0.0
H653 H 0.39654 0.91403 0.62538 0.0
H654 H 0.38486 0.83805 0.65308 0.0
H655 H 0.49863 0.83806 0.65801 0.0
H656 H 0.5252 0.90105 0.59696 0.0
H657 H 0.55922 0.93287 0.59893 0.0
H658 H 0.47679 0.9291 0.60137 0.0
H659 H 0.47926 0.95178 0.63613 0.0
H660 H 0.562 0.95571 0.6338 0.0
H661 H 0.52971 0.9395 0.65546 0.0
H662 H 0.61536 0.84391 0.65555 0.0
H663 H 0.72248 0.85394 0.64425 0.0
H664 H 0.65687 0.92547 0.61751 0.0
C665 C 0.41771 0.89775 0.63307 0.0
C666 C 0.38198 0.87615 0.63907 0.0
C667 C 0.41143 0.85491 0.64858 0.0
C668 C 0.476 0.8548 0.65147 0.0
C669 C 0.51035 0.87611 0.64481 0.0
C670 C 0.48199 0.89724 0.63585 0.0
C671 C 0.52933 0.91628 0.62778 0.0
C672 C 0.5222 0.92001 0.60491 0.0
C673 C 0.5248 0.94236 0.63897 0.0
C674 C 0.58885 0.90211 0.63284 0.0
C675 C 0.57723 0.87925 0.64306 0.0
C676 C 0.62502 0.86199 0.64788 0.0
C677 C 0.68576 0.86786 0.64151 0.0
C678 C 0.69782 0.89054 0.6302 0.0
C679 C 0.64893 0.90816 0.6264 0.0
H680 H 0.88593 0.60359 0.12355 0.0
H681 H 0.86166 0.66196 0.16992 0.0
H682 H 0.97592 0.66478 0.17369 0.0
H683 H 0.02412 0.57164 0.14564 0.0
H684 H 0.0577 0.56595 0.12113 0.0
H685 H 0.97466 0.56641 0.12425 0.0
H686 H 0.96604 0.602 0.09679 0.0
H687 H 0.04871 0.60157 0.09356 0.0
H688 H 0.00965 0.63161 0.09948 0.0
H689 H 0.09331 0.66517 0.16866 0.0
H690 H 0.20082 0.66335 0.15502 0.0
H691 H 0.14515 0.60353 0.11314 0.0
C692 C 0.90464 0.61667 0.13474 0.0
C693 C 0.86554 0.63263 0.14642 0.0
C694 C 0.89131 0.64953 0.16089 0.0
C695 C 0.95597 0.65116 0.16316 0.0
C696 C 0.99356 0.63537 0.1511 0.0
C697 C 0.96853 0.61827 0.13731 0.0
C698 C 0.01805 0.6048 0.12503 0.0
C699 C 0.01866 0.57546 0.12928 0.0
C700 C 0.01013 0.61035 0.10239 0.0
C701 C 0.07498 0.61783 0.13335 0.0
C702 C 0.06044 0.63515 0.14859 0.0
C703 C 0.10539 0.65123 0.15708 0.0
C704 C 0.1662 0.65007 0.14935 0.0
C705 C 0.18065 0.6331 0.13329 0.0
C706 C 0.13502 0.61629 0.12571 0.0
H707 H 0.35664 0.41369 0.09588 0.0
H708 H 0.29121 0.34617 0.12845 0.0
H709 H 0.39839 0.33713 0.13987 0.0
H710 H 0.49361 0.38707 0.07781 0.0
H711 H 0.53884 0.41624 0.08052 0.0
H712 H 0.45657 0.41846 0.07681 0.0
H713 H 0.44624 0.44575 0.1095 0.0
H714 H 0.52867 0.44338 0.1134 0.0
H715 H 0.4757 0.43295 0.13281 0.0
H716 H 0.51391 0.33298 0.14424 0.0
H717 H 0.62843 0.33421 0.1413 0.0
H718 H 0.6155 0.40581 0.10728 0.0
C719 C 0.36505 0.39713 0.10554 0.0
C720 C 0.31657 0.38043 0.11123 0.0
C721 C 0.32841 0.35907 0.124 0.0
C722 C 0.3888 0.35391 0.13059 0.0
C723 C 0.43598 0.37067 0.12456 0.0
C724 C 0.42458 0.39199 0.11247 0.0
C725 C 0.48344 0.40624 0.10717 0.0
C726 C 0.4937 0.40702 0.08423 0.0
C727 C 0.48349 0.4337 0.11627 0.0
C728 C 0.53013 0.38896 0.11741 0.0
C729 C 0.50205 0.3687 0.12758 0.0
C730 C 0.53643 0.34903 0.13668 0.0
C731 C 0.60121 0.34985 0.13494 0.0
C732 C 0.63018 0.37016 0.12416 0.0
C733 C 0.5943 0.39025 0.11582 0.0
H734 H 0.58121 0.42337 0.4025 0.0
H735 H 0.64311 0.35044 0.3769 0.0
H736 H 0.54032 0.34478 0.36081 0.0
H737 H 0.43768 0.40375 0.41639 0.0
H738 H 0.398 0.43369 0.41073 0.0
H739 H 0.47899 0.43413 0.41676 0.0
H740 H 0.5033 0.45746 0.38306 0.0
H741 H 0.42195 0.45728 0.37706 0.0
H742 H 0.47738 0.44338 0.35974 0.0
H743 H 0.42535 0.34394 0.3527 0.0
H744 H 0.31092 0.34862 0.35246 0.0
H745 H 0.32709 0.42274 0.38285 0.0
C746 C 0.57354 0.40664 0.39295 0.0
C747 C 0.61953 0.38738 0.39073 0.0
C748 C 0.60826 0.36549 0.37847 0.0
C749 C 0.55016 0.36217 0.36934 0.0
C750 C 0.50473 0.38118 0.3724 0.0
C751 C 0.51633 0.40321 0.38369 0.0
C752 C 0.45868 0.41957 0.38645 0.0
C753 C 0.44241 0.42295 0.4089 0.0
C754 C 0.46577 0.44599 0.37594 0.0
C755 C 0.41192 0.40275 0.37582 0.0
C756 C 0.43921 0.38085 0.36754 0.0
C757 C 0.40378 0.36131 0.3587 0.0
C758 C 0.33893 0.36408 0.35864 0.0
C759 C 0.31057 0.38613 0.36748 0.0
C760 C 0.34772 0.40589 0.37569 0.0
H761 H 0.0943 0.66083 0.39752 0.0
H762 H 0.14155 0.58885 0.36726 0.0
H763 H 0.03044 0.58105 0.36057 0.0
H764 H 0.97651 0.6361 0.42415 0.0
H765 H 0.92697 0.66432 0.42374 0.0
H766 H 0.00931 0.66805 0.4212 0.0
H767 H 0.99469 0.69256 0.38751 0.0
H768 H 0.91186 0.68919 0.39004 0.0
H769 H 0.9506 0.67775 0.36762 0.0
H770 H 0.91503 0.57754 0.36231 0.0
H771 H 0.80578 0.57735 0.3738 0.0
H772 H 0.83489 0.65022 0.40489 0.0
C773 C 0.08138 0.64401 0.38872 0.0
C774 C 0.12608 0.62564 0.38256 0.0
C775 C 0.1077 0.60333 0.37177 0.0
C776 C 0.0448 0.5988 0.36788 0.0
C777 C 0.00134 0.61679 0.37495 0.0
C778 C 0.01894 0.63901 0.38511 0.0
C779 C 0.96371 0.65302 0.39413 0.0
C780 C 0.9695 0.65549 0.41716 0.0
C781 C 0.95468 0.67971 0.38423 0.0
C782 C 0.91256 0.63455 0.38836 0.0
C783 C 0.93478 0.61419 0.37678 0.0
C784 C 0.89687 0.59365 0.371 0.0
C785 C 0.83503 0.59368 0.37758 0.0
C786 C 0.8124 0.61385 0.3901 0.0
C787 C 0.85128 0.63474 0.39518 0.0
H788 H 0.07908 0.39989 0.86518 0.0
H789 H 0.11601 0.31736 0.86919 0.0
H790 H 0.00427 0.30837 0.86634 0.0
H791 H 0.95987 0.4008 0.8965 0.0
H792 H 0.91305 0.42472 0.88385 0.0
H793 H 0.99546 0.4246 0.88029 0.0
H794 H 0.98144 0.42089 0.84175 0.0
H795 H 0.89844 0.42125 0.84512 0.0
H796 H 0.93503 0.39503 0.83152 0.0
H797 H 0.89148 0.30882 0.87211 0.0
H798 H 0.78495 0.31887 0.88382 0.0
H799 H 0.81919 0.40083 0.87497 0.0
C800 C 0.06368 0.37995 0.86451 0.0
C801 C 0.10567 0.35932 0.86729 0.0
C802 C 0.08425 0.33341 0.86694 0.0
C803 C 0.02093 0.32812 0.86525 0.0
C804 C 0.97999 0.34897 0.86366 0.0
C805 C 0.00055 0.3744 0.8629 0.0
C806 C 0.94707 0.39339 0.86424 0.0
C807 C 0.95432 0.41193 0.88229 0.0
C808 C 0.94008 0.40853 0.84447 0.0
C809 C 0.89384 0.37473 0.86732 0.0
C810 C 0.91358 0.34916 0.86655 0.0
C811 C 0.8748 0.32865 0.87199 0.0
C812 C 0.8147 0.33447 0.8787 0.0
C813 C 0.79431 0.36049 0.87975 0.0
C814 C 0.83361 0.38075 0.87352 0.0
H815 H 0.33755 0.64506 0.90575 0.0
H816 H 0.29899 0.56936 0.88027 0.0
H817 H 0.41204 0.56073 0.87757 0.0
H818 H 0.47992 0.65894 0.87655 0.0
H819 H 0.51624 0.67444 0.89774 0.0
H820 H 0.4332 0.67564 0.89506 0.0
H821 H 0.41999 0.65578 0.93066 0.0
H822 H 0.50274 0.65454 0.93345 0.0
H823 H 0.45756 0.6254 0.93643 0.0
H824 H 0.53009 0.5591 0.88113 0.0
H825 H 0.63939 0.56383 0.89181 0.0
H826 H 0.59808 0.64082 0.91463 0.0
C827 C 0.35286 0.62687 0.89919 0.0
C828 C 0.30981 0.60795 0.89304 0.0
C829 C 0.33147 0.58422 0.88485 0.0
C830 C 0.3955 0.5792 0.88325 0.0
C831 C 0.43691 0.59821 0.88978 0.0
C832 C 0.41618 0.62162 0.89752 0.0
C833 C 0.46913 0.63804 0.9051 0.0
C834 C 0.47496 0.66326 0.89287 0.0
C835 C 0.4619 0.64376 0.92774 0.0
C836 C 0.52302 0.61999 0.90099 0.0
C837 C 0.50396 0.59723 0.8919 0.0
C838 C 0.54554 0.57702 0.88795 0.0
C839 C 0.6076 0.57991 0.89396 0.0
C840 C 0.62715 0.60272 0.90398 0.0
C841 C 0.58447 0.6232 0.90695 0.0
H842 H 0.63863 0.57503 0.62334 0.0
H843 H 0.65568 0.64566 0.6583 0.0
H844 H 0.54407 0.64336 0.66702 0.0
H845 H 0.50564 0.59227 0.60045 0.0
H846 H 0.47161 0.56036 0.59958 0.0
H847 H 0.55433 0.56376 0.60038 0.0
H848 H 0.55839 0.53472 0.63191 0.0
H849 H 0.47534 0.53117 0.63161 0.0
H850 H 0.51321 0.5431 0.65387 0.0
H851 H 0.42904 0.63719 0.66744 0.0
H852 H 0.32004 0.62951 0.65782 0.0
H853 H 0.37795 0.56437 0.6209 0.0
C854 C 0.61926 0.58951 0.6334 0.0
C855 C 0.65541 0.6104 0.64034 0.0
C856 C 0.62851 0.6294 0.65302 0.0
C857 C 0.56534 0.62815 0.6581 0.0
C858 C 0.53015 0.60779 0.65034 0.0
C859 C 0.5563 0.58878 0.63825 0.0
C860 C 0.50745 0.57134 0.62922 0.0
C861 C 0.50992 0.572 0.60605 0.0
C862 C 0.51397 0.54343 0.63714 0.0
C863 C 0.4494 0.58427 0.6373 0.0
C864 C 0.46344 0.60476 0.64994 0.0
C865 C 0.41744 0.6209 0.6579 0.0
C866 C 0.35573 0.6164 0.65239 0.0
C867 C 0.34096 0.5963 0.63873 0.0
C868 C 0.38822 0.5797 0.63152 0.0
H869 H 0.08668 0.42246 0.58968 0.0
H870 H 0.16303 0.37019 0.6342 0.0
H871 H 0.05766 0.36371 0.64859 0.0
H872 H 0.96547 0.45169 0.62233 0.0
H873 H 0.91118 0.45363 0.60188 0.0
H874 H 0.99314 0.45613 0.59693 0.0
H875 H 0.98552 0.41812 0.57147 0.0
H876 H 0.90383 0.41532 0.57649 0.0
H877 H 0.95374 0.38751 0.57961 0.0
H878 H 0.94072 0.35934 0.65532 0.0
H879 H 0.82556 0.35988 0.65514 0.0
H880 H 0.82897 0.41568 0.60635 0.0
C881 C 0.08133 0.41006 0.60273 0.0
C882 C 0.13273 0.39682 0.6109 0.0
C883 C 0.12416 0.38069 0.6279 0.0
C884 C 0.06451 0.37683 0.63608 0.0
C885 C 0.01434 0.38957 0.62721 0.0
C886 C 0.02254 0.4062 0.61109 0.0
C887 C 0.96136 0.41667 0.60356 0.0
C888 C 0.95758 0.44629 0.60635 0.0
C889 C 0.95051 0.40893 0.58148 0.0
C890 C 0.91707 0.40282 0.61756 0.0
C891 C 0.94815 0.38733 0.63119 0.0
C892 C 0.9161 0.37171 0.6449 0.0
C893 C 0.85081 0.37205 0.64466 0.0
C894 C 0.81858 0.38788 0.6308 0.0
C895 C 0.85238 0.40352 0.61724 0.0
H896 H 0.17857 0.0916 0.03551 0.0
H897 H 0.28411 0.15679 0.05834 0.0
H898 H 0.32996 0.16336 0.0245 0.0
H899 H 0.29573 0.06657 1.00203 0.0
H900 H 0.24116 0.05755 0.98283 0.0
H901 H 0.21752 0.05787 1.00886 0.0
H902 H 0.12731 0.08933 1.00044 0.0
H903 H 0.15022 0.08883 0.97436 0.0
H904 H 0.14384 0.11933 0.98753 0.0
H905 H 0.36382 0.16273 0.98738 0.0
H906 H 0.37491 0.15709 0.95042 0.0
H907 H 0.24806 0.09203 0.95284 0.0
C908 C 0.21121 0.10732 0.03345 0.0
C909 C 0.22766 0.12368 0.04964 0.0
C910 C 0.27055 0.14403 0.04619 0.0
C911 C 0.29714 0.14783 0.02702 0.0
C912 C 0.28043 0.1311 0.01145 0.0
C913 C 0.23803 0.11138 0.01449 0.0
C914 C 0.22629 0.09646 0.99527 0.0
C915 C 0.24639 0.06792 0.99738 0.0
C916 C 0.15787 0.09863 0.98904 0.0
C917 C 0.26824 0.11095 0.98086 0.0
C918 C 0.29961 0.13076 0.99041 0.0
C919 C 0.33962 0.14719 0.97981 0.0
C920 C 0.3461 0.14374 0.95886 0.0
C921 C 0.31237 0.12416 0.94878 0.0
C922 C 0.27436 0.10723 0.96013 0.0
H923 H 0.24888 0.93183 0.04946 0.0
H924 H 0.36581 0.86447 0.05992 0.0
H925 H 0.35028 0.85046 0.02486 0.0
H926 H 0.13942 0.90087 0.01594 0.0
H927 H 0.13243 0.9287 0.99967 0.0
H928 H 0.15006 0.9331 0.02592 0.0
H929 H 0.24888 0.95897 0.01645 0.0
H930 H 0.23101 0.95497 0.99022 0.0
H931 H 0.3052 0.94459 0.99965 0.0
H932 H 0.32296 0.84369 0.9889 0.0
H933 H 0.29583 0.84735 0.953 0.0
H934 H 0.19945 0.91975 0.96522 0.0
C935 C 0.27112 0.91411 0.04437 0.0
C936 C 0.30837 0.89918 0.05746 0.0
C937 C 0.3372 0.87627 0.05018 0.0
C938 C 0.32826 0.86802 0.03032 0.0
C939 C 0.29065 0.88296 0.01789 0.0
C940 C 0.2632 0.90571 0.0245 0.0
C941 C 0.22794 0.91891 1.00768 0.0
C942 C 0.15833 0.92048 0.01261 0.0
C943 C 0.25489 0.94595 1.00324 0.0
C944 C 0.24046 0.90015 0.99054 0.0
C945 C 0.27595 0.87936 0.99689 0.0
C946 C 0.29515 0.85985 0.98374 0.0
C947 C 0.27951 0.86209 0.96341 0.0
C948 C 0.24556 0.88381 0.95636 0.0
C949 C 0.22447 0.90271 0.97024 0.0
H950 H 0.78659 0.85717 0.4731 0.0
H951 H 0.67064 0.92504 0.46365 0.0
H952 H 0.69332 0.93993 0.49815 0.0
H953 H 0.73887 0.8457 0.52331 0.0
H954 H 0.81397 0.83501 0.53175 0.0
H955 H 0.79248 0.83088 0.50583 0.0
H956 H 0.89054 0.8562 0.49475 0.0
H957 H 0.91196 0.86066 0.5207 0.0
H958 H 0.90356 0.88843 0.50444 0.0
H959 H 0.72351 0.94622 0.53405 0.0
H960 H 0.753 0.94184 0.56978 0.0
H961 H 0.84933 0.87 0.5562 0.0
C962 C 0.7664 0.8753 0.47821 0.0
C963 C 0.72696 0.89001 0.46565 0.0
C964 C 0.70085 0.91343 0.47301 0.0
C965 C 0.71383 0.92214 0.49254 0.0
C966 C 0.75297 0.9072 0.50451 0.0
C967 C 0.77856 0.88419 0.4977 0.0
C968 C 0.81573 0.87092 0.51406 0.0
C969 C 0.78862 0.84405 0.51903 0.0
C970 C 0.88454 0.86895 0.50812 0.0
C971 C 0.80617 0.88985 0.53127 0.0
C972 C 0.77045 0.91081 0.52532 0.0
C973 C 0.75216 0.93011 0.53881 0.0
C974 C 0.76928 0.92754 0.559 0.0
C975 C 0.80429 0.90587 0.5655 0.0
C976 C 0.82407 0.88709 0.55141 0.0
H977 H 0.78128 0.06913 0.46722 0.0
H978 H 0.85916 0.14584 0.45771 0.0
H979 H 0.83868 0.15662 0.49334 0.0
H980 H 0.65914 0.08854 0.5014 0.0
H981 H 0.66604 0.06014 0.51707 0.0
H982 H 0.68607 0.05832 0.49076 0.0
H983 H 0.79556 0.04129 0.49972 0.0
H984 H 0.7755 0.04267 0.52603 0.0
H985 H 0.84299 0.0596 0.51686 0.0
H986 H 0.81112 0.15897 0.53007 0.0
H987 H 0.78621 0.15147 0.56595 0.0
H988 H 0.72507 0.07352 0.55188 0.0
C989 C 0.79431 0.08818 0.47262 0.0
C990 C 0.82192 0.10665 0.45957 0.0
C991 C 0.83816 0.13132 0.46734 0.0
C992 C 0.82634 0.13769 0.48756 0.0
C993 C 0.79817 0.1192 0.49988 0.0
C994 C 0.78285 0.09486 0.49278 0.0
C995 C 0.75464 0.07829 0.50935 0.0
C996 C 0.68748 0.07089 0.50434 0.0
C997 C 0.79456 0.05403 0.51322 0.0
C998 C 0.75696 0.09704 0.52695 0.0
C999 C 0.78181 0.12061 0.52108 0.0
C1000 C 0.79114 0.14069 0.53478 0.0
C1001 C 0.77653 0.13633 0.55509 0.0
C1002 C 0.75264 0.11214 0.56156 0.0
C1003 C 0.74161 0.09243 0.54722 0.0
H1004 H 0.83774 0.94339 0.95972 0.0
H1005 H 0.83605 0.86026 0.94907 0.0
H1006 H 0.80731 0.85288 0.98464 0.0
H1007 H 0.90537 0.93938 0.00972 0.0
H1008 H 0.8609 0.96643 0.01926 0.0
H1009 H 0.88116 0.96494 0.99297 0.0
H1010 H 0.76505 0.96931 0.98377 0.0
H1011 H 0.74434 0.97037 0.01005 0.0
H1012 H 0.7101 0.94635 0.99383 0.0
H1013 H 0.7726 0.85474 0.02093 0.0
H1014 H 0.7507 0.86523 0.05661 0.0
H1015 H 0.78085 0.94685 0.04416 0.0
C1016 C 0.83186 0.92363 0.96493 0.0
C1017 C 0.83898 0.90239 0.95162 0.0
C1018 C 0.83123 0.87682 0.95902 0.0
C1019 C 0.81439 0.87244 0.97916 0.0
C1020 C 0.80635 0.89383 0.99178 0.0
C1021 C 0.81614 0.91889 0.98508 0.0
C1022 C 0.80674 0.9384 1.00191 0.0
C1023 C 0.86714 0.95315 1.00622 0.0
C1024 C 0.75338 0.95721 0.99709 0.0
C1025 C 0.7897 0.92042 0.0191 0.0
C1026 C 0.7888 0.89482 0.01287 0.0
C1027 C 0.77347 0.87471 0.026 0.0
C1028 C 0.76051 0.88085 0.04617 0.0
C1029 C 0.76376 0.90683 0.05306 0.0
C1030 C 0.77783 0.92684 0.03924 0.0
H1031 H 0.66426 0.10606 0.98579 0.0
H1032 H 0.78574 0.16897 0.96764 0.0
H1033 H 0.83375 0.16858 1.00137 0.0
H1034 H 0.63931 0.12731 0.03675 0.0
H1035 H 0.63895 0.09476 0.04669 0.0
H1036 H 0.61421 0.10061 0.02128 0.0
H1037 H 0.69518 0.06714 1.00835 0.0
H1038 H 0.72068 0.06144 0.03371 0.0
H1039 H 0.77569 0.07124 0.0147 0.0
H1040 H 0.86922 0.16063 0.0376 0.0
H1041 H 0.88311 0.14771 0.07331 0.0
H1042 H 0.74007 0.08944 0.0664 0.0
C1043 C 0.70057 0.11995 0.9889 0.0
C1044 C 0.72106 0.1376 0.97406 0.0
C1045 C 0.76904 0.15532 0.97879 0.0
C1046 C 0.79681 0.15516 0.99788 0.0
C1047 C 0.77619 0.13714 0.01204 0.0
C1048 C 0.72883 0.11999 1.00777 0.0
C1049 C 0.71481 0.10254 0.02548 0.0
C1050 C 0.64786 0.10656 0.03299 0.0
C1051 C 0.72736 0.0739 0.02024 0.0
C1052 C 0.76132 0.11263 0.04048 0.0
C1053 C 0.79665 0.1325 0.03253 0.0
C1054 C 0.84182 0.14504 0.04394 0.0
C1055 C 0.84978 0.13749 0.06413 0.0
C1056 C 0.81247 0.11771 0.07261 0.0
C1057 C 0.76889 0.10482 0.06039 0.0
H1058 H 0.19832 0.09551 0.46796 0.0
H1059 H 0.27432 0.17087 0.45279 0.0
H1060 H 0.30456 0.17735 0.48827 0.0
H1061 H 0.14191 0.11304 0.51957 0.0
H1062 H 0.16297 0.08161 0.52935 0.0
H1063 H 0.13943 0.08485 0.5035 0.0
H1064 H 0.24209 0.06302 0.49209 0.0
H1065 H 0.26656 0.06018 0.51781 0.0
H1066 H 0.31491 0.07683 0.4998 0.0
H1067 H 0.33785 0.17315 0.52444 0.0
H1068 H 0.3648 0.15987 0.55909 0.0
H1069 H 0.26703 0.08721 0.55028 0.0
C1070 C 0.2191 0.11379 0.47228 0.0
C1071 C 0.23346 0.13282 0.45772 0.0
C1072 C 0.26268 0.15613 0.46379 0.0
C1073 C 0.28003 0.15996 0.48387 0.0
C1074 C 0.26753 0.14034 0.49771 0.0
C1075 C 0.23691 0.11787 0.49224 0.0
C1076 C 0.23311 0.09896 0.50962 0.0
C1077 C 0.16532 0.09436 0.51588 0.0
C1078 C 0.26615 0.07324 0.50451 0.0
C1079 C 0.26776 0.114 0.52554 0.0
C1080 C 0.28696 0.13788 0.51847 0.0
C1081 C 0.32229 0.15464 0.53024 0.0
C1082 C 0.33772 0.14687 0.54984 0.0
C1083 C 0.31796 0.12255 0.55741 0.0
C1084 C 0.28259 0.106 0.54501 0.0
H1085 H 0.31895 0.8286 0.46597 0.0
H1086 H 0.33429 0.90883 0.44706 0.0
H1087 H 0.30168 0.92328 0.48103 0.0
H1088 H 0.18637 0.83493 0.49481 0.0
H1089 H 0.20907 0.81318 0.51471 0.0
H1090 H 0.24048 0.80896 0.48978 0.0
H1091 H 0.35221 0.81201 0.50362 0.0
H1092 H 0.32123 0.81567 0.5287 0.0
H1093 H 0.37393 0.83958 0.51872 0.0
H1094 H 0.25144 0.92856 0.51501 0.0
H1095 H 0.20457 0.92483 0.5489 0.0
H1096 H 0.22929 0.84128 0.54691 0.0
C1097 C 0.31741 0.8492 0.46926 0.0
C1098 C 0.32974 0.86767 0.45406 0.0
C1099 C 0.32619 0.89445 0.45866 0.0
C1100 C 0.30716 0.90279 0.47784 0.0
C1101 C 0.29303 0.88407 0.4923 0.0
C1102 C 0.29963 0.85784 0.48844 0.0
C1103 C 0.27991 0.84172 0.50645 0.0
C1104 C 0.22574 0.82364 0.50111 0.0
C1105 C 0.33512 0.82634 0.51487 0.0
C1106 C 0.25942 0.86294 0.52083 0.0
C1107 C 0.2668 0.88722 0.51228 0.0
C1108 C 0.24669 0.90971 0.52202 0.0
C1109 C 0.21955 0.90737 0.54116 0.0
C1110 C 0.21364 0.88279 0.55049 0.0
C1111 C 0.23395 0.86032 0.54018 0.0
H1112 H 0.73056 0.58108 0.06187 0.0
H1113 H 0.65071 0.65787 0.06991 0.0
H1114 H 0.66663 0.66673 0.03369 0.0
H1115 H 0.84814 0.59918 0.02583 0.0
H1116 H 0.84092 0.56985 0.01123 0.0
H1117 H 0.82372 0.56949 0.03779 0.0
H1118 H 0.71416 0.55134 0.03064 0.0
H1119 H 0.73134 0.55128 1.00411 0.0
H1120 H 0.66409 0.56836 0.01346 0.0
H1121 H 0.68949 0.66691 0.99644 0.0
H1122 H 0.71121 0.65736 0.9606 0.0
H1123 H 0.77811 0.58084 0.97677 0.0
C1124 C 0.71614 0.59976 0.05605 0.0
C1125 C 0.68925 0.6188 0.06882 0.0
C1126 C 0.6712 0.64295 0.06049 0.0
C1127 C 0.6804 0.64821 0.03994 0.0
C1128 C 0.70787 0.62916 0.02787 0.0
C1129 C 0.7251 0.60534 0.03559 0.0
C1130 C 0.75233 0.58796 0.01932 0.0
C1131 C 0.82032 0.58123 0.02382 0.0
C1132 C 0.71313 0.56328 0.01673 0.0
C1133 C 0.74727 0.60563 1.00114 0.0
C1134 C 0.72182 0.62937 1.00646 0.0
C1135 C 0.70995 0.6485 0.99216 0.0
C1136 C 0.72272 0.64298 0.97188 0.0
C1137 C 0.74739 0.61859 0.96602 0.0
C1138 C 0.76091 0.59989 0.98092 0.0
H1139 H 0.68187 0.40852 0.95046 0.0
H1140 H 0.67615 0.32538 0.94092 0.0
H1141 H 0.70242 0.3181 0.97663 0.0
H1142 H 0.81095 0.40875 0.98106 0.0
H1143 H 0.78537 0.43402 0.99796 0.0
H1144 H 0.75699 0.43312 0.97257 0.0
H1145 H 0.64367 0.43219 0.98558 0.0
H1146 H 0.67162 0.43371 0.01105 0.0
H1147 H 0.62067 0.40781 1.00356 0.0
H1148 H 0.74291 0.31983 0.01192 0.0
H1149 H 0.78229 0.33036 0.04576 0.0
H1150 H 0.76105 0.41252 0.03289 0.0
C1151 C 0.68348 0.38885 0.95619 0.0
C1152 C 0.67564 0.36747 0.94312 0.0
C1153 C 0.68073 0.34195 0.95085 0.0
C1154 C 0.69611 0.33766 0.97105 0.0
C1155 C 0.70621 0.3591 0.98338 0.0
C1156 C 0.69897 0.38422 0.97639 0.0
C1157 C 0.71617 0.4038 0.99251 0.0
C1158 C 0.7706 0.42092 0.9856 0.0
C1159 C 0.65966 0.42035 0.99853 0.0
C1160 C 0.73536 0.38577 0.00944 0.0
C1161 C 0.72937 0.36008 1.00384 0.0
C1162 C 0.74691 0.33988 0.01658 0.0
C1163 C 0.76977 0.34607 0.03574 0.0
C1164 C 0.77472 0.37225 0.04207 0.0
C1165 C 0.75759 0.3923 0.02859 0.0
H1166 H 0.19543 0.43354 0.45363 0.0
H1167 H 0.12446 0.35557 0.44472 0.0
H1168 H 0.15357 0.34433 0.47951 0.0
H1169 H 0.32624 0.41588 0.48461 0.0
H1170 H 0.31892 0.44374 0.50089 0.0
H1171 H 0.29395 0.44574 0.47511 0.0
H1172 H 0.18445 0.46025 0.48679 0.0
H1173 H 0.20944 0.45872 0.51256 0.0
H1174 H 0.14248 0.44058 0.50466 0.0
H1175 H 0.18889 0.34158 0.51528 0.0
H1176 H 0.21832 0.34885 0.55072 0.0
H1177 H 0.26664 0.42845 0.53682 0.0
C1178 C 0.18582 0.4141 0.45899 0.0
C1179 C 0.15764 0.39541 0.44636 0.0
C1180 C 0.14578 0.37025 0.45405 0.0
C1181 C 0.16259 0.36362 0.47377 0.0
C1182 C 0.19121 0.38235 0.48567 0.0
C1183 C 0.20214 0.40717 0.47867 0.0
C1184 C 0.23132 0.42393 0.49485 0.0
C1185 C 0.29648 0.43284 0.48848 0.0
C1186 C 0.18941 0.44724 0.50002 0.0
C1187 C 0.2344 0.40474 0.51214 0.0
C1188 C 0.21167 0.38078 0.50639 0.0
C1189 C 0.20724 0.36018 0.51989 0.0
C1190 C 0.22442 0.36441 0.53993 0.0
C1191 C 0.24579 0.38902 0.54634 0.0
C1192 C 0.25214 0.40927 0.53215 0.0
H1193 H 0.28119 0.57083 0.57156 0.0
H1194 H 0.13108 0.62628 0.57919 0.0
H1195 H 0.13305 0.63504 0.54264 0.0
H1196 H 0.36683 0.60765 0.53728 0.0
H1197 H 0.39323 0.58052 0.52236 0.0
H1198 H 0.37478 0.576 0.54856 0.0
H1199 H 0.29666 0.5398 0.5394 0.0
H1200 H 0.31538 0.54399 0.51315 0.0
H1201 H 0.23604 0.54651 0.52157 0.0
H1202 H 0.15854 0.64095 0.50592 0.0
H1203 H 0.20132 0.64193 0.47148 0.0
H1204 H 0.33706 0.58339 0.48795 0.0
C1205 C 0.24813 0.58459 0.56553 0.0
C1206 C 0.20589 0.59786 0.5783 0.0
C1207 C 0.1632 0.61558 0.56973 0.0
C1208 C 0.16431 0.62082 0.549 0.0
C1209 C 0.20814 0.60809 0.53701 0.0
C1210 C 0.24885 0.59013 0.54494 0.0
C1211 C 0.29368 0.58015 0.52905 0.0
C1212 C 0.3611 0.58647 0.53465 0.0
C1213 C 0.28488 0.55088 0.52559 0.0
C1214 C 0.27276 0.59575 0.511 0.0
C1215 C 0.22312 0.61161 0.51589 0.0
C1216 C 0.19698 0.62842 0.50188 0.0
C1217 C 0.22188 0.6289 0.48235 0.0
C1218 C 0.27264 0.61274 0.47694 0.0
C1219 C 0.29821 0.59595 0.49155 0.0
H1220 H 0.23127 0.36518 0.04573 0.0
H1221 H 0.11663 0.43317 0.05662 0.0
H1222 H 0.11337 0.4415 0.01997 0.0
H1223 H 0.32464 0.39339 1.00793 0.0
H1224 H 0.33172 0.36414 0.99318 0.0
H1225 H 0.31982 0.36209 0.01996 0.0
H1226 H 0.22252 0.3336 0.0145 0.0
H1227 H 0.23447 0.33532 0.9877 0.0
H1228 H 0.16129 0.34521 0.99848 0.0
H1229 H 0.12865 0.44381 0.98202 0.0
H1230 H 0.15685 0.43886 0.94614 0.0
H1231 H 0.26538 0.37037 0.96059 0.0
C1232 C 0.20512 0.38179 0.04047 0.0
C1233 C 0.17427 0.39856 0.05416 0.0
C1234 C 0.13996 0.41983 0.0465 0.0
C1235 C 0.13831 0.42484 0.02569 0.0
C1236 C 0.17111 0.40838 0.01273 0.0
C1237 C 0.20349 0.38718 0.01986 0.0
C1238 C 0.23688 0.37299 1.00299 0.0
C1239 C 0.30744 0.37318 1.00621 0.0
C1240 C 0.2123 0.34513 1.00079 0.0
C1241 C 0.21879 0.38965 0.98519 0.0
C1242 C 0.18062 0.40991 0.99109 0.0
C1243 C 0.15826 0.42793 0.97726 0.0
C1244 C 0.17468 0.42498 0.9569 0.0
C1245 C 0.2134 0.40423 0.9505 0.0
C1246 C 0.23596 0.3865 0.96496 0.0
H1247 H 0.12448 0.59588 0.98835 0.0
H1248 H 0.18436 0.6681 0.96091 0.0
H1249 H 0.23563 0.68056 0.99269 0.0
H1250 H 0.09451 0.62234 0.03834 0.0
H1251 H 0.12157 0.59333 0.05067 0.0
H1252 H 0.08724 0.59126 0.02609 0.0
H1253 H 0.1859 0.56781 0.01286 0.0
H1254 H 0.22105 0.57029 0.03728 0.0
H1255 H 0.26032 0.58325 0.01551 0.0
H1256 H 0.28525 0.68382 0.02746 0.0
H1257 H 0.3193 0.67919 0.06301 0.0
H1258 H 0.22667 0.60487 0.06658 0.0
C1259 C 0.14758 0.6145 0.98906 0.0
C1260 C 0.15043 0.63101 0.97217 0.0
C1261 C 0.18123 0.6552 0.97374 0.0
C1262 C 0.21084 0.66237 0.99167 0.0
C1263 C 0.20879 0.64519 1.00787 0.0
C1264 C 0.17706 0.62194 1.00677 0.0
C1265 C 0.18175 0.60677 0.02614 0.0
C1266 C 0.11746 0.60323 0.03588 0.0
C1267 C 0.2142 0.58048 0.02273 0.0
C1268 C 0.22167 0.62493 0.03828 0.0
C1269 C 0.23711 0.64701 0.02756 0.0
C1270 C 0.27343 0.66661 0.03596 0.0
C1271 C 0.29301 0.66379 0.056 0.0
C1272 C 0.2761 0.64155 0.06716 0.0
C1273 C 0.24078 0.62185 0.0581 0.0
H1274 H 0.8105 0.63338 0.5413 0.0
H1275 H 0.70862 0.56422 0.55852 0.0
H1276 H 0.6627 0.56204 0.5248 0.0
H1277 H 0.69135 0.6612 0.50824 0.0
H1278 H 0.7469 0.67248 0.48989 0.0
H1279 H 0.7683 0.67019 0.51601 0.0
H1280 H 0.86141 0.64072 0.50642 0.0
H1281 H 0.84049 0.64306 0.48031 0.0
H1282 H 0.84807 0.61164 0.49197 0.0
H1283 H 0.63125 0.56574 0.48898 0.0
H1284 H 0.6234 0.5731 0.45244 0.0
H1285 H 0.74524 0.6397 0.45772 0.0
C1286 C 0.77805 0.61798 0.53799 0.0
C1287 C 0.76319 0.59899 0.55256 0.0
C1288 C 0.72114 0.5789 0.54759 0.0
C1289 C 0.69431 0.57759 0.5285 0.0
C1290 C 0.71004 0.59645 0.51442 0.0
C1291 C 0.75125 0.61617 0.51881 0.0
C1292 C 0.76344 0.63281 0.50039 0.0
C1293 C 0.74115 0.66083 0.50384 0.0
C1294 C 0.83244 0.63199 0.49442 0.0
C1295 C 0.72356 0.61903 0.48498 0.0
C1296 C 0.69243 0.59837 0.4935 0.0
C1297 C 0.65485 0.58204 0.48214 0.0
C1298 C 0.65026 0.58651 0.46139 0.0
C1299 C 0.68343 0.60703 0.45215 0.0
C1300 C 0.71935 0.62382 0.46429 0.0
H1301 H 0.71693 0.35771 0.55343 0.0
H1302 H 0.57388 0.41622 0.56185 0.0
H1303 H 0.58281 0.4281 0.52591 0.0
H1304 H 0.81159 0.39452 0.51898 0.0
H1305 H 0.83282 0.36675 0.5039 0.0
H1306 H 0.81525 0.36273 0.53025 0.0
H1307 H 0.73133 0.32867 0.52159 0.0
H1308 H 0.7491 0.33236 0.49526 0.0
H1309 H 0.6708 0.33705 0.50415 0.0
H1310 H 0.60642 0.43321 0.48904 0.0
H1311 H 0.63922 0.42988 0.45346 0.0
H1312 H 0.76856 0.36864 0.46895 0.0
C1313 C 0.68715 0.37295 0.54773 0.0
C1314 C 0.64445 0.38599 0.5605 0.0
C1315 C 0.60672 0.40589 0.5524 0.0
C1316 C 0.61169 0.41285 0.53201 0.0
C1317 C 0.65482 0.39981 0.51994 0.0
C1318 C 0.69173 0.38021 0.52747 0.0
C1319 C 0.73392 0.36906 0.51126 0.0
C1320 C 0.80246 0.37354 0.51641 0.0
C1321 C 0.72045 0.34007 0.50786 0.0
C1322 C 0.71451 0.38525 0.49331 0.0
C1323 C 0.66903 0.40296 0.49872 0.0
C1324 C 0.64217 0.41951 0.48468 0.0
C1325 C 0.66116 0.41751 0.46454 0.0
C1326 C 0.70666 0.39914 0.45854 0.0
C1327 C 0.73448 0.38313 0.4732 0.0
H1328 H 0.20977 0.04749 0.15946 0.0
H1329 H 0.18479 0.05655 0.09523 0.0
H1330 H 0.26999 0.02551 0.08882 0.0
H1331 H 0.38119 0.0412 0.15664 0.0
H1332 H 0.38365 0.018 0.17691 0.0
H1333 H 0.3236 0.04239 0.17636 0.0
H1334 H 0.23999 0.00634 0.17843 0.0
H1335 H 0.29989 0.98199 0.179 0.0
H1336 H 0.24059 0.98057 0.1601 0.0
H1337 H 0.35228 0.99071 0.08938 0.0
H1338 H 0.42664 0.95528 0.09716 0.0
H1339 H 0.39999 0.96933 0.16085 0.0
C1340 C 0.22271 0.04307 0.14407 0.0
C1341 C 0.19126 0.05467 0.12779 0.0
C1342 C 0.20926 0.04835 0.10787 0.0
C1343 C 0.25741 0.03063 0.10409 0.0
C1344 C 0.28765 0.01952 0.12043 0.0
C1345 C 0.27139 0.02563 0.14004 0.0
C1346 C 0.31075 0.01061 0.15487 0.0
C1347 C 0.35225 0.02916 0.16691 0.0
C1348 C 0.27038 0.99389 0.16891 0.0
C1349 C 0.34905 0.99406 0.14057 0.0
C1350 C 0.33582 0.9998 0.12074 0.0
C1351 C 0.36376 0.98634 0.10483 0.0
C1352 C 0.40593 0.96634 0.10933 0.0
C1353 C 0.41938 0.96009 0.12952 0.0
C1354 C 0.39102 0.97421 0.14528 0.0
H1355 H 0.78567 0.04244 0.37663 0.0
H1356 H 0.9466 0.01805 0.41078 0.0
H1357 H 0.9026 0.97393 0.41368 0.0
H1358 H 0.67328 0.00529 0.40472 0.0
H1359 H 0.62755 0.99775 0.38288 0.0
H1360 H 0.67155 0.0274 0.38372 0.0
H1361 H 0.72713 0.01474 0.35044 0.0
H1362 H 0.68323 0.98509 0.34947 0.0
H1363 H 0.7667 0.98394 0.34868 0.0
H1364 H 0.84141 0.93224 0.41231 0.0
H1365 H 0.76826 0.89636 0.40653 0.0
H1366 H 0.64806 0.94826 0.37337 0.0
C1367 C 0.81186 0.02784 0.38468 0.0
C1368 C 0.86975 0.03364 0.39339 0.0
C1369 C 0.90221 0.01402 0.40394 0.0
C1370 C 0.87756 0.98893 0.4057 0.0
C1371 C 0.82032 0.98388 0.39694 0.0
C1372 C 0.78786 0.00281 0.38667 0.0
C1373 C 0.72749 0.9924 0.37851 0.0
C1374 C 0.67169 0.00655 0.38803 0.0
C1375 C 0.7261 0.99414 0.35541 0.0
C1376 C 0.73143 0.96453 0.38555 0.0
C1377 C 0.78515 0.96 0.39621 0.0
C1378 C 0.79929 0.93556 0.40392 0.0
C1379 C 0.75771 0.91518 0.40042 0.0
C1380 C 0.70288 0.9193 0.38932 0.0
C1381 C 0.68952 0.94443 0.382 0.0
H1382 H 0.82153 0.96841 0.86023 0.0
H1383 H 0.92008 0.978 0.91652 0.0
H1384 H 0.86081 0.01804 0.92342 0.0
H1385 H 0.81458 0.03827 0.84807 0.0
H1386 H 0.73861 0.03574 0.8371 0.0
H1387 H 0.79102 0.00846 0.83613 0.0
H1388 H 0.70773 0.97968 0.85329 0.0
H1389 H 0.65536 0.0069 0.85454 0.0
H1390 H 0.67527 0.98956 0.87715 0.0
H1391 H 0.78137 0.05323 0.92641 0.0
H1392 H 0.6988 0.08596 0.9227 0.0
H1393 H 0.65876 0.05679 0.86299 0.0
C1394 C 0.83123 0.97915 0.87387 0.0
C1395 C 0.87526 0.97003 0.88788 0.0
C1396 C 0.88676 0.98465 0.90553 0.0
C1397 C 0.85312 0.00736 0.90963 0.0
C1398 C 0.80897 0.01545 0.89577 0.0
C1399 C 0.79886 0.00216 0.87803 0.0
C1400 C 0.74862 0.01514 0.86571 0.0
C1401 C 0.77479 0.02499 0.84556 0.0
C1402 C 0.6935 0.99672 0.86249 0.0
C1403 C 0.73126 0.03749 0.87949 0.0
C1404 C 0.76618 0.03706 0.89685 0.0
C1405 C 0.75515 0.0543 0.9126 0.0
C1406 C 0.7082 0.07288 0.91034 0.0
C1407 C 0.67439 0.07478 0.89223 0.0
C1408 C 0.68539 0.05646 0.87675 0.0
H1409 H 0.19673 0.95297 0.662 0.0
H1410 H 0.20721 0.92631 0.60029 0.0
H1411 H 0.2902 0.95768 0.59325 0.0
H1412 H 0.2154 0.01905 0.65128 0.0
H1413 H 0.26229 0.02664 0.67285 0.0
H1414 H 0.20847 1.00003 0.67394 0.0
H1415 H 0.2972 0.96858 0.68369 0.0
H1416 H 0.35154 0.9951 0.68281 0.0
H1417 H 0.36523 0.96637 0.6679 0.0
H1418 H 0.36282 0.9947 0.59171 0.0
H1419 H 0.42229 0.03521 0.59588 0.0
H1420 H 0.37 0.03798 0.6589 0.0
C1421 C 0.21758 0.95341 0.64714 0.0
C1422 C 0.19662 0.93664 0.63176 0.0
C1423 C 0.22344 0.93843 0.61236 0.0
C1424 C 0.27075 0.95622 0.60824 0.0
C1425 C 0.29066 0.97236 0.6237 0.0
C1426 C 0.26524 0.97113 0.6428 0.0
C1427 C 0.29249 0.992 0.65626 0.0
C1428 C 0.24164 0.01052 0.66404 0.0
C1429 C 0.32878 0.97977 0.6737 0.0
C1430 C 0.33571 0.00555 0.64156 0.0
C1431 C 0.33402 0.99372 0.62289 0.0
C1432 C 0.3656 0.00383 0.60634 0.0
C1433 C 0.39914 0.02683 0.60883 0.0
C1434 C 0.40159 0.03933 0.62776 0.0
C1435 C 0.37033 0.02832 0.64442 0.0
H1436 H 0.88385 0.46905 0.11983 0.0
H1437 H 0.75286 0.41074 0.13885 0.0
H1438 H 0.66861 0.44361 0.13893 0.0
H1439 H 0.82881 0.51494 0.15464 0.0
H1440 H 0.84417 0.54276 0.13895 0.0
H1441 H 0.88999 0.51377 0.13607 0.0
H1442 H 0.8618 0.51185 0.09824 0.0
H1443 H 0.81596 0.54094 0.10105 0.0
H1444 H 0.78146 0.51193 0.09093 0.0
H1445 H 0.59945 0.48431 0.13733 0.0
H1446 H 0.5559 0.52898 0.13976 0.0
H1447 H 0.73865 0.56082 0.12891 0.0
C1448 C 0.83689 0.46311 0.12335 0.0
C1449 C 0.82299 0.43686 0.12736 0.0
C1450 C 0.76236 0.43009 0.13343 0.0
C1451 C 0.71487 0.44885 0.13407 0.0
C1452 C 0.72985 0.47458 0.12958 0.0
C1453 C 0.78992 0.48176 0.12483 0.0
C1454 C 0.79637 0.51097 0.12355 0.0
C1455 C 0.84254 0.5212 0.13924 0.0
C1456 C 0.81498 0.51941 0.10217 0.0
C1457 C 0.73074 0.51919 0.12851 0.0
C1458 C 0.69246 0.498 0.13134 0.0
C1459 C 0.62921 0.50101 0.13534 0.0
C1460 C 0.60485 0.52635 0.13667 0.0
C1461 C 0.64416 0.54813 0.13469 0.0
C1462 C 0.70774 0.54442 0.1306 0.0
H1463 H 0.15891 0.45852 0.35976 0.0
H1464 H 0.03749 0.47393 0.41071 0.0
H1465 H 0.10106 0.51206 0.41963 0.0
H1466 H 0.29956 0.47477 0.38399 0.0
H1467 H 0.33393 0.48938 0.36198 0.0
H1468 H 0.27735 0.46401 0.35926 0.0
H1469 H 0.21033 0.49425 0.33688 0.0
H1470 H 0.26694 0.51965 0.33951 0.0
H1471 H 0.18721 0.52567 0.34632 0.0
H1472 H 0.18238 0.54691 0.42415 0.0
H1473 H 0.27066 0.57734 0.42248 0.0
H1474 H 0.33568 0.53962 0.36793 0.0
C1475 C 0.14518 0.47004 0.37268 0.0
C1476 C 0.0932 0.46325 0.38454 0.0
C1477 C 0.07703 0.47881 0.40137 0.0
C1478 C 0.11293 0.50046 0.40659 0.0
C1479 C 0.16452 0.50633 0.39475 0.0
C1480 C 0.18026 0.49168 0.37805 0.0
C1481 C 0.23836 0.50179 0.36797 0.0
C1482 C 0.29035 0.48127 0.36833 0.0
C1483 C 0.22487 0.51089 0.3464 0.0
C1484 C 0.25298 0.52445 0.38161 0.0
C1485 C 0.21016 0.52668 0.39705 0.0
C1486 C 0.21567 0.54556 0.41196 0.0
C1487 C 0.26599 0.56275 0.41091 0.0
C1488 C 0.30927 0.56125 0.39487 0.0
C1489 C 0.30274 0.54163 0.38019 0.0
H1490 H 0.23917 0.43718 0.86459 0.0
H1491 H 0.375 0.45328 0.91065 0.0
H1492 H 0.31057 0.48974 0.92311 0.0
H1493 H 0.21194 0.50157 0.8522 0.0
H1494 H 0.13012 0.49837 0.84749 0.0
H1495 H 0.18062 0.4708 0.8443 0.0
H1496 H 0.11361 0.44427 0.86906 0.0
H1497 H 0.06225 0.47158 0.87243 0.0
H1498 H 0.09824 0.45665 0.89396 0.0
H1499 H 0.23847 0.52672 0.92822 0.0
H1500 H 0.16292 0.56225 0.92607 0.0
H1501 H 0.07412 0.52403 0.87566 0.0
C1502 C 0.25388 0.44783 0.87777 0.0
C1503 C 0.311 0.44217 0.88708 0.0
C1504 C 0.33072 0.45716 0.90364 0.0
C1505 C 0.29447 0.47785 0.91078 0.0
C1506 C 0.23909 0.48347 0.90097 0.0
C1507 C 0.21867 0.46891 0.88485 0.0
C1508 C 0.16069 0.48076 0.87576 0.0
C1509 C 0.17153 0.48832 0.85363 0.0
C1510 C 0.10539 0.46222 0.87795 0.0
C1511 C 0.15269 0.50459 0.88897 0.0
C1512 C 0.19802 0.50548 0.90356 0.0
C1513 C 0.2022 0.52604 0.91705 0.0
C1514 C 0.15886 0.5462 0.91568 0.0
C1515 C 0.1121 0.54598 0.90078 0.0
C1516 C 0.10904 0.52476 0.88728 0.0
H1517 H 0.8347 0.54487 0.61095 0.0
H1518 H 0.81521 0.57223 0.67229 0.0
H1519 H 0.72304 0.54428 0.6769 0.0
H1520 H 0.66864 0.53841 0.59963 0.0
H1521 H 0.67712 0.50842 0.58589 0.0
H1522 H 0.73906 0.53169 0.58579 0.0
H1523 H 0.81728 0.49836 0.59916 0.0
H1524 H 0.75775 0.474 0.59836 0.0
H1525 H 0.79878 0.47995 0.62144 0.0
H1526 H 0.64145 0.50986 0.67611 0.0
H1527 H 0.57595 0.47125 0.66984 0.0
H1528 H 0.64509 0.46719 0.60867 0.0
C1529 C 0.8097 0.54547 0.62511 0.0
C1530 C 0.83075 0.56105 0.64114 0.0
C1531 C 0.79905 0.56058 0.6598 0.0
C1532 C 0.7466 0.5449 0.6625 0.0
C1533 C 0.72687 0.52967 0.64642 0.0
C1534 C 0.75737 0.52982 0.62806 0.0
C1535 C 0.73009 0.50988 0.61385 0.0
C1536 C 0.70202 0.52292 0.59521 0.0
C1537 C 0.77886 0.48934 0.60786 0.0
C1538 C 0.68008 0.49832 0.62714 0.0
C1539 C 0.67894 0.51003 0.64588 0.0
C1540 C 0.64089 0.50095 0.66137 0.0
C1541 C 0.60386 0.47911 0.6577 0.0
C1542 C 0.60451 0.46695 0.63865 0.0
C1543 C 0.64227 0.47689 0.62311 0.0
H1544 H 0.98601 0.1859 0.13975 0.0
H1545 H 0.18261 0.2034 0.13784 0.0
H1546 H 0.15841 0.25029 0.13899 0.0
H1547 H 0.94087 0.23561 0.10698 0.0
H1548 H 0.8689 0.24275 0.11974 0.0
H1549 H 0.90186 0.2107 0.12124 0.0
H1550 H 0.9001 0.21349 0.16016 0.0
H1551 H 0.86725 0.24565 0.15878 0.0
H1552 H 0.93789 0.24025 0.17252 0.0
H1553 H 0.11254 0.29548 0.13824 0.0
H1554 H 0.04917 0.33483 0.13294 0.0
H1555 H 0.88245 0.28786 0.13438 0.0
C1556 C 0.02409 0.19955 0.14 0.0
C1557 C 0.08632 0.19086 0.13889 0.0
C1558 C 0.13459 0.20949 0.13871 0.0
C1559 C 0.1213 0.2362 0.13948 0.0
C1560 C 0.05946 0.24409 0.14034 0.0
C1561 C 0.01162 0.22629 0.1405 0.0
C1562 C 0.94914 0.2398 0.13971 0.0
C1563 C 0.9131 0.23174 0.1208 0.0
C1564 C 0.91137 0.23448 0.15894 0.0
C1565 C 0.96926 0.26796 0.13865 0.0
C1566 C 0.03305 0.27006 0.13938 0.0
C1567 C 0.06253 0.29405 0.1378 0.0
C1568 C 0.02605 0.31635 0.13484 0.0
C1569 C 0.96071 0.31454 0.13323 0.0
C1570 C 0.93218 0.29001 0.13567 0.0
H1571 H 0.39464 0.80812 0.13213 0.0
H1572 H 0.57077 0.84709 0.14002 0.0
H1573 H 0.62207 0.80484 0.14518 0.0
H1574 H 0.42106 0.75369 0.16735 0.0
H1575 H 0.38418 0.73047 0.15106 0.0
H1576 H 0.35962 0.76394 0.15086 0.0
H1577 H 0.37959 0.7659 0.11243 0.0
H1578 H 0.40471 0.73255 0.11254 0.0
H1579 H 0.45507 0.75739 0.10265 0.0
H1580 H 0.65549 0.75831 0.14771 0.0
H1581 H 0.66967 0.71081 0.14585 0.0
H1582 H 0.47349 0.70159 0.13366 0.0
C1583 C 0.44367 0.80778 0.13552 0.0
C1584 C 0.47844 0.83102 0.1362 0.0
C1585 C 0.54294 0.82967 0.13987 0.0
C1586 C 0.57255 0.8057 0.14277 0.0
C1587 C 0.53725 0.78314 0.14161 0.0
C1588 C 0.47425 0.78393 0.13797 0.0
C1589 C 0.44822 0.75675 0.13559 0.0
C1590 C 0.40045 0.75087 0.15221 0.0
C1591 C 0.42027 0.75293 0.11455 0.0
C1592 C 0.50654 0.74063 0.13821 0.0
C1593 C 0.55715 0.75624 0.14198 0.0
C1594 C 0.61617 0.74588 0.14482 0.0
C1595 C 0.62375 0.71885 0.14373 0.0
C1596 C 0.57281 0.70245 0.13952 0.0
C1597 C 0.51344 0.7136 0.13677 0.0
H1598 H 0.36974 0.71072 0.39513 0.0
H1599 H 0.51821 0.65996 0.37517 0.0
H1600 H 0.58103 0.69794 0.36601 0.0
H1601 H 0.40187 0.76756 0.35963 0.0
H1602 H 0.38608 0.79075 0.37934 0.0
H1603 H 0.34517 0.76027 0.37882 0.0
H1604 H 0.38115 0.75059 0.41515 0.0
H1605 H 0.42177 0.78095 0.41572 0.0
H1606 H 0.46278 0.75114 0.42082 0.0
H1607 H 0.63442 0.73946 0.36491 0.0
H1608 H 0.67897 0.78145 0.37465 0.0
H1609 H 0.49976 0.80665 0.3973 0.0
C1610 C 0.41447 0.70765 0.38805 0.0
C1611 C 0.43848 0.6823 0.3852 0.0
C1612 C 0.49827 0.67909 0.37683 0.0
C1613 C 0.53422 0.70062 0.37157 0.0
C1614 C 0.51003 0.72534 0.37504 0.0
C1615 C 0.4516 0.72905 0.3832 0.0
C1616 C 0.44132 0.75732 0.38892 0.0
C1617 C 0.3906 0.7697 0.37589 0.0
C1618 C 0.42591 0.76014 0.41149 0.0
C1619 C 0.50447 0.76848 0.38387 0.0
C1620 C 0.54248 0.74981 0.37523 0.0
C1621 C 0.60486 0.7544 0.37125 0.0
C1622 C 0.62982 0.77827 0.37694 0.0
C1623 C 0.59264 0.7972 0.38665 0.0
C1624 C 0.52869 0.79266 0.38946 0.0
H1625 H 0.92593 0.3115 0.38376 0.0
H1626 H 0.12605 0.31041 0.37672 0.0
H1627 H 0.12558 0.26259 0.37873 0.0
H1628 H 0.91337 0.25906 0.41849 0.0
H1629 H 0.84411 0.24569 0.40759 0.0
H1630 H 0.85967 0.27992 0.40548 0.0
H1631 H 0.85106 0.27683 0.36669 0.0
H1632 H 0.83528 0.24258 0.36868 0.0
H1633 H 0.89861 0.25377 0.35319 0.0
H1634 H 0.10484 0.2157 0.384 0.0
H1635 H 0.06397 0.17147 0.38886 0.0
H1636 H 0.87628 0.20194 0.38971 0.0
C1637 C 0.96954 0.30113 0.38261 0.0
C1638 C 0.0261 0.31456 0.38018 0.0
C1639 C 0.08223 0.30043 0.3785 0.0
C1640 C 0.08246 0.2733 0.37969 0.0
C1641 C 0.02605 0.26062 0.3822 0.0
C1642 C 0.97049 0.27395 0.38333 0.0
C1643 C 0.91639 0.25542 0.38562 0.0
C1644 C 0.88134 0.26032 0.40548 0.0
C1645 C 0.87277 0.25726 0.36746 0.0
C1646 C 0.95044 0.22965 0.38597 0.0
C1647 C 0.01372 0.23321 0.38416 0.0
C1648 C 0.05537 0.21259 0.38516 0.0
C1649 C 0.03175 0.1876 0.38802 0.0
C1650 C 0.96708 0.1834 0.38951 0.0
C1651 C 0.92587 0.20467 0.38832 0.0
H1652 H 0.88752 0.80256 0.88344 0.0
H1653 H 0.07304 0.82949 0.8973 0.0
H1654 H 0.10995 0.78431 0.89855 0.0
H1655 H 0.89166 0.74708 0.91659 0.0
H1656 H 0.84861 0.7262 0.90001 0.0
H1657 H 0.83621 0.7608 0.89938 0.0
H1658 H 0.86099 0.76127 0.86121 0.0
H1659 H 0.87334 0.72666 0.86171 0.0
H1660 H 0.93331 0.74779 0.8523 0.0
H1661 H 0.12808 0.73698 0.89789 0.0
H1662 H 0.12562 0.68923 0.89682 0.0
H1663 H 0.92788 0.69156 0.88508 0.0
C1664 C 0.93591 0.79887 0.88662 0.0
C1665 C 0.97742 0.81955 0.89027 0.0
C1666 C 0.04029 0.81398 0.89459 0.0
C1667 C 0.06183 0.78838 0.89527 0.0
C1668 C 0.01986 0.76845 0.89179 0.0
C1669 C 0.95817 0.77325 0.88767 0.0
C1670 C 0.92285 0.74799 0.88514 0.0
C1671 C 0.87182 0.74537 0.90124 0.0
C1672 C 0.89605 0.74581 0.86382 0.0
C1673 C 0.97448 0.72837 0.88842 0.0
C1674 C 0.03006 0.74073 0.89206 0.0
C1675 C 0.08484 0.72703 0.89513 0.0
C1676 C 0.08296 0.6999 0.89444 0.0
C1677 C 0.02658 0.68667 0.89091 0.0
C1678 C 0.97154 0.70115 0.88797 0.0
H1679 H 0.48589 0.1948 0.88557 0.0
H1680 H 0.67646 0.21808 0.87496 0.0
H1681 H 0.6416 0.26266 0.86774 0.0
H1682 H 0.41511 0.23926 0.8469 0.0
H1683 H 0.34862 0.24557 0.86272 0.0
H1684 H 0.38748 0.21457 0.86392 0.0
H1685 H 0.40202 0.22048 0.90229 0.0
H1686 H 0.36381 0.2515 0.90123 0.0
H1687 H 0.44071 0.24906 0.91153 0.0
H1688 H 0.58889 0.30588 0.86737 0.0
H1689 H 0.52059 0.34399 0.87183 0.0
H1690 H 0.36362 0.29291 0.88108 0.0
C1691 C 0.52006 0.20909 0.88113 0.0
C1692 C 0.58393 0.20294 0.88087 0.0
C1693 C 0.62728 0.22232 0.87531 0.0
C1694 C 0.60793 0.24772 0.8711 0.0
C1695 C 0.54492 0.25343 0.87223 0.0
C1696 C 0.50145 0.23459 0.8768 0.0
C1697 C 0.43716 0.24632 0.87861 0.0
C1698 C 0.39458 0.23581 0.86204 0.0
C1699 C 0.40934 0.24156 0.89966 0.0
C1700 C 0.4518 0.27479 0.87529 0.0
C1701 C 0.51413 0.27845 0.87143 0.0
C1702 C 0.53969 0.30322 0.86982 0.0
C1703 C 0.5006 0.3248 0.87239 0.0
C1704 C 0.43669 0.32153 0.87646 0.0
C1705 C 0.41203 0.29613 0.87754 0.0
H1706 H 0.56584 0.19173 0.63532 0.0
H1707 H 0.36746 0.1864 0.6257 0.0
H1708 H 0.36207 0.23386 0.62109 0.0
H1709 H 0.55896 0.25073 0.66426 0.0
H1710 H 0.6301 0.26372 0.65415 0.0
H1711 H 0.61936 0.2291 0.65567 0.0
H1712 H 0.64185 0.22499 0.61747 0.0
H1713 H 0.65256 0.25961 0.61583 0.0
H1714 H 0.59675 0.24377 0.59994 0.0
H1715 H 0.37743 0.28131 0.61733 0.0
H1716 H 0.41111 0.32684 0.61667 0.0
H1717 H 0.59924 0.30265 0.63045 0.0
C1718 C 0.52143 0.20058 0.6321 0.0
C1719 C 0.46704 0.1854 0.63078 0.0
C1720 C 0.40961 0.19768 0.62683 0.0
C1721 C 0.40612 0.2246 0.62411 0.0
C1722 C 0.46036 0.23904 0.62562 0.0
C1723 C 0.51689 0.22758 0.62969 0.0
C1724 C 0.56749 0.24789 0.63143 0.0
C1725 C 0.59562 0.24785 0.65264 0.0
C1726 C 0.61762 0.24382 0.6152 0.0
C1727 C 0.53048 0.27249 0.62762 0.0
C1728 C 0.46893 0.2668 0.62413 0.0
C1729 C 0.42548 0.28606 0.62006 0.0
C1730 C 0.44525 0.3119 0.61967 0.0
C1731 C 0.50791 0.31842 0.62349 0.0
C1732 C 0.55103 0.29834 0.62752 0.0
H1733 H 0.88547 0.70484 0.63158 0.0
H1734 H 0.05481 0.66012 0.63841 0.0
H1735 H 0.11318 0.70051 0.64391 0.0
H1736 H 0.95037 0.75553 0.60381 0.0
H1737 H 0.9051 0.78111 0.61521 0.0
H1738 H 0.8748 0.74863 0.61418 0.0
H1739 H 0.85929 0.74878 0.65285 0.0
H1740 H 0.88925 0.78138 0.65399 0.0
H1741 H 0.92396 0.75608 0.66893 0.0
H1742 H 0.15535 0.74559 0.6447 0.0
H1743 H 0.17786 0.79242 0.64241 0.0
H1744 H 0.98155 0.80866 0.63581 0.0
C1745 C 0.93459 0.7035 0.63467 0.0
C1746 C 0.9654 0.67918 0.63472 0.0
C1747 C 0.02992 0.67838 0.63852 0.0
C1748 C 0.06359 0.70128 0.64162 0.0
C1749 C 0.03214 0.72493 0.64101 0.0
C1750 C 0.96898 0.72624 0.63784 0.0
C1751 C 0.94716 0.75427 0.63679 0.0
C1752 C 0.91763 0.76022 0.61628 0.0
C1753 C 0.90226 0.76049 0.65418 0.0
C1754 C 0.0082 0.76847 0.63929 0.0
C1755 C 0.05653 0.75112 0.64179 0.0
C1756 C 0.11779 0.75938 0.64307 0.0
C1757 C 0.13014 0.78603 0.64164 0.0
C1758 C 0.08149 0.80426 0.63906 0.0
C1759 C 0.01962 0.79527 0.63815 0.0
H1760 H 0.03301 0.14997 0.31569 0.0
H1761 H 0.96393 0.07194 0.32583 0.0
H1762 H 0.96368 0.06423 0.28915 0.0
H1763 H 0.94403 0.1626 0.2703 0.0
H1764 H 0.00551 0.18072 0.25843 0.0
H1765 H 0.99864 0.18029 0.28545 0.0
H1766 H 0.11177 0.16376 0.28811 0.0
H1767 H 0.11888 0.16398 0.2611 0.0
H1768 H 0.1344 0.1346 0.27493 0.0
H1769 H 0.97571 0.06426 0.25138 0.0
H1770 H 0.99341 0.07279 0.21528 0.0
H1771 H 0.05249 0.15118 0.22948 0.0
C1772 C 0.01737 0.1313 0.31022 0.0
C1773 C 0.99854 0.11153 0.32372 0.0
C1774 C 0.97846 0.08741 0.31586 0.0
C1775 C 0.97828 0.08283 0.29502 0.0
C1776 C 0.99792 0.10259 0.28216 0.0
C1777 C 0.01657 0.12644 0.28944 0.0
C1778 C 0.03574 0.14436 0.2724 0.0
C1779 C 0.99345 0.16842 0.2716 0.0
C1780 C 0.10427 0.15212 0.27425 0.0
C1781 C 0.02552 0.12679 0.25439 0.0
C1782 C 0.00386 0.10276 0.26038 0.0
C1783 C 0.99229 0.08307 0.24652 0.0
C1784 C 0.00271 0.0881 0.22602 0.0
C1785 C 0.02424 0.11268 0.21945 0.0
C1786 C 0.03575 0.13223 0.23394 0.0
H1787 H 0.4763 0.91687 0.2173 0.0
H1788 H 0.58927 0.85121 0.19863 0.0
H1789 H 0.60104 0.83822 0.23425 0.0
H1790 H 0.5618 0.93315 0.26057 0.0
H1791 H 0.4949 0.94196 0.27546 0.0
H1792 H 0.49274 0.94511 0.24851 0.0
H1793 H 0.39506 0.91596 0.24726 0.0
H1794 H 0.3967 0.91284 0.27424 0.0
H1795 H 0.39712 0.88421 0.25863 0.0
H1796 H 0.6044 0.83383 0.27249 0.0
H1797 H 0.59633 0.83784 0.30957 0.0
H1798 H 0.48079 0.90629 0.30245 0.0
C1799 C 0.50308 0.89961 0.22063 0.0
C1800 C 0.53193 0.88509 0.20515 0.0
C1801 C 0.56666 0.86265 0.21023 0.0
C1802 C 0.57364 0.85512 0.23042 0.0
C1803 C 0.54533 0.87015 0.24534 0.0
C1804 C 0.51038 0.89182 0.24064 0.0
C1805 C 0.48568 0.90502 0.25938 0.0
C1806 C 0.51028 0.93296 0.26107 0.0
C1807 C 0.41442 0.90446 0.2599 0.0
C1808 C 0.51293 0.88767 0.27543 0.0
C1809 C 0.54704 0.86758 0.26711 0.0
C1810 C 0.57748 0.84942 0.27913 0.0
C1811 C 0.57275 0.85187 0.30017 0.0
C1812 C 0.53793 0.87235 0.30894 0.0
C1813 C 0.50769 0.89036 0.29628 0.0
H1814 H 0.08962 0.85477 0.72727 0.0
H1815 H 0.95615 0.91463 0.71169 0.0
H1816 H 0.93337 0.92158 0.74766 0.0
H1817 H 0.00272 0.82823 0.76953 0.0
H1818 H 0.07092 0.82219 0.78436 0.0
H1819 H 0.07571 0.82134 0.7573 0.0
H1820 H 0.1631 0.85574 0.75807 0.0
H1821 H 0.15858 0.85668 0.78511 0.0
H1822 H 0.1498 0.88618 0.77082 0.0
H1823 H 0.9276 0.92329 0.7854 0.0
H1824 H 0.93874 0.91919 0.82222 0.0
H1825 H 0.07458 0.85783 0.81339 0.0
C1826 C 0.05537 0.86925 0.7314 0.0
C1827 C 0.02472 0.88415 0.71658 0.0
C1828 C 0.98028 0.90293 0.72269 0.0
C1829 C 0.96693 0.90704 0.74312 0.0
C1830 C 0.99814 0.89214 0.75733 0.0
C1831 C 0.04129 0.87356 0.75176 0.0
C1832 C 0.06892 0.86048 0.77008 0.0
C1833 C 0.05363 0.83133 0.77033 0.0
C1834 C 0.13926 0.86506 0.77107 0.0
C1835 C 0.03505 0.8748 0.78678 0.0
C1836 C 0.99435 0.89296 0.7791 0.0
C1837 C 0.95906 0.90903 0.79159 0.0
C1838 C 0.96576 0.90657 0.8125 0.0
C1839 C 0.00735 0.88815 0.82073 0.0
C1840 C 0.04202 0.87197 0.80761 0.0
H1841 H 0.5398 0.11671 0.80096 0.0
H1842 H 0.55697 0.20039 0.80633 0.0
H1843 H 0.56754 0.20387 0.76945 0.0
H1844 H 0.64854 0.1083 0.75959 0.0
H1845 H 0.60331 0.08352 0.74743 0.0
H1846 H 0.59924 0.08738 0.77434 0.0
H1847 H 0.48007 0.09275 0.77228 0.0
H1848 H 0.48376 0.08893 0.74537 0.0
H1849 H 0.44783 0.11739 0.75614 0.0
H1850 H 0.57635 0.19847 0.73208 0.0
H1851 H 0.57864 0.18484 0.69656 0.0
H1852 H 0.5521 0.10468 0.71482 0.0
C1853 C 0.54625 0.13575 0.79439 0.0
C1854 C 0.54789 0.15829 0.80661 0.0
C1855 C 0.55563 0.18285 0.79735 0.0
C1856 C 0.56179 0.18503 0.77639 0.0
C1857 C 0.55972 0.16248 0.7648 0.0
C1858 C 0.55186 0.13831 0.77342 0.0
C1859 C 0.54938 0.11726 0.75741 0.0
C1860 C 0.60334 0.09798 0.75984 0.0
C1861 C 0.48651 0.10327 0.75783 0.0
C1862 C 0.55693 0.13341 0.73845 0.0
C1863 C 0.56331 0.15942 0.74312 0.0
C1864 C 0.57136 0.17816 0.72825 0.0
C1865 C 0.57272 0.17018 0.70808 0.0
C1866 C 0.56554 0.14367 0.70282 0.0
C1867 C 0.55756 0.12508 0.7183 0.0
H1868 H 0.52799 0.66456 0.21423 0.0
H1869 H 0.49292 0.58375 0.19979 0.0
H1870 H 0.47595 0.57436 0.23582 0.0
H1871 H 0.6126 0.65148 0.2602 0.0
H1872 H 0.58216 0.67957 0.27311 0.0
H1873 H 0.59064 0.67995 0.24614 0.0
H1874 H 0.47437 0.69167 0.24266 0.0
H1875 H 0.46539 0.69109 0.26961 0.0
H1876 H 0.41676 0.67102 0.25409 0.0
H1877 H 0.45777 0.57417 0.27327 0.0
H1878 H 0.45206 0.58195 0.30989 0.0
H1879 H 0.505 0.66229 0.30038 0.0
C1880 C 0.51695 0.64488 0.21867 0.0
C1881 C 0.51153 0.6249 0.20417 0.0
C1882 C 0.49754 0.59935 0.21061 0.0
C1883 C 0.48746 0.59385 0.23104 0.0
C1884 C 0.49236 0.61403 0.24492 0.0
C1885 C 0.50778 0.63894 0.23906 0.0
C1886 C 0.51223 0.65689 0.2571 0.0
C1887 C 0.57834 0.66759 0.25926 0.0
C1888 C 0.46432 0.67897 0.25578 0.0
C1889 C 0.49645 0.63821 0.274 0.0
C1890 C 0.4844 0.61367 0.2666 0.0
C1891 C 0.46754 0.59327 0.27925 0.0
C1892 C 0.46409 0.59792 0.30003 0.0
C1893 C 0.47823 0.6227 0.30804 0.0
C1894 C 0.49415 0.64311 0.29475 0.0
H1895 H 0.95634 0.34131 0.2198 0.0
H1896 H 0.99635 0.42191 0.20578 0.0
H1897 H 0.99484 0.43249 0.24191 0.0
H1898 H 0.8515 0.3542 0.26115 0.0
H1899 H 0.87777 0.32714 0.27605 0.0
H1900 H 0.8825 0.32563 0.24901 0.0
H1901 H 0.0001 0.31592 0.2512 0.0
H1902 H 0.99571 0.3174 0.27825 0.0
H1903 H 0.04955 0.33785 0.26484 0.0
H1904 H 0.98937 0.43464 0.27973 0.0
H1905 H 0.97906 0.42809 0.31639 0.0
H1906 H 0.94176 0.34632 0.30634 0.0
C1907 C 0.96482 0.36118 0.22431 0.0
C1908 C 0.9765 0.38074 0.20978 0.0
C1909 C 0.98728 0.4065 0.21647 0.0
C1910 C 0.98656 0.41276 0.23703 0.0
C1911 C 0.97493 0.39309 0.25091 0.0
C1912 C 0.96419 0.36782 0.24487 0.0
C1913 C 0.95257 0.35043 0.26297 0.0
C1914 C 0.88719 0.33866 0.26225 0.0
C1915 C 0.00246 0.32914 0.2644 0.0
C1916 C 0.95832 0.36989 0.28006 0.0
C1917 C 0.9714 0.39438 0.27275 0.0
C1918 C 0.97905 0.41554 0.28561 0.0
C1919 C 0.9731 0.41162 0.30646 0.0
C1920 C 0.95944 0.38673 0.31437 0.0
C1921 C 0.95206 0.36563 0.30086 0.0
H1922 H 0.49102 0.35192 0.70127 0.0
H1923 H 0.4373 0.43217 0.69137 0.0
H1924 H 0.43002 0.43889 0.72809 0.0
H1925 H 0.39259 0.34018 0.74437 0.0
H1926 H 0.4489 0.32047 0.75728 0.0
H1927 H 0.44899 0.32175 0.73019 0.0
H1928 H 0.56396 0.33606 0.73031 0.0
H1929 H 0.56428 0.33476 0.75739 0.0
H1930 H 0.58627 0.36423 0.74464 0.0
H1931 H 0.4272 0.43682 0.76601 0.0
H1932 H 0.43431 0.42684 0.80222 0.0
H1933 H 0.49283 0.34825 0.7878 0.0
C1934 C 0.47755 0.37091 0.7068 0.0
C1935 C 0.46443 0.3915 0.69333 0.0
C1936 C 0.44753 0.41607 0.70129 0.0
C1937 C 0.44313 0.42007 0.72217 0.0
C1938 C 0.45616 0.39938 0.735 0.0
C1939 C 0.47344 0.37531 0.72764 0.0
C1940 C 0.48635 0.35651 0.74473 0.0
C1941 C 0.44152 0.33336 0.7441 0.0
C1942 C 0.55425 0.34736 0.74423 0.0
C1943 C 0.47353 0.37373 0.76284 0.0
C1944 C 0.45581 0.39834 0.75687 0.0
C1945 C 0.44118 0.41763 0.77084 0.0
C1946 C 0.44525 0.41173 0.79143 0.0
C1947 C 0.46421 0.38676 0.79798 0.0
C1948 C 0.47826 0.36754 0.78337 0.0
H1949 H 0.94393 0.6081 0.72226 0.0
H1950 H 0.0574 0.67733 0.717 0.0
H1951 H 0.06081 0.6808 0.75392 0.0
H1952 H 0.85542 0.62956 0.76744 0.0
H1953 H 0.85405 0.59742 0.77814 0.0
H1954 H 0.85562 0.6015 0.75121 0.0
H1955 H 0.95375 0.57258 0.74899 0.0
H1956 H 0.9527 0.56851 0.77588 0.0
H1957 H 0.02099 0.58102 0.76357 0.0
H1958 H 0.06261 0.67421 0.7909 0.0
H1959 H 0.05739 0.6594 0.82613 0.0
H1960 H 0.93852 0.59562 0.80857 0.0
C1961 C 0.9685 0.62428 0.72887 0.0
C1962 C 0.0004 0.64247 0.71664 0.0
C1963 C 0.03252 0.66317 0.72595 0.0
C1964 C 0.0347 0.66533 0.74696 0.0
C1965 C 0.004 0.64681 0.75855 0.0
C1966 C 0.97086 0.62684 0.74991 0.0
C1967 C 0.94432 0.60892 0.76596 0.0
C1968 C 0.87311 0.60939 0.76566 0.0
C1969 C 0.96946 0.58112 0.76344 0.0
C1970 C 0.96915 0.6216 0.78491 0.0
C1971 C 0.0034 0.64345 0.78019 0.0
C1972 C 0.035 0.65743 0.79482 0.0
C1973 C 0.03196 0.64881 0.81478 0.0
C1974 C 0.99702 0.62659 0.82006 0.0
C1975 C 0.96442 0.61301 0.80497 0.0
loop_
_geom_bond_atom_site_label_1
_geom_bond_atom_site_label_2
_geom_bond_distance
_geom_bond_site_symmetry_2
_ccdc_geom_bond_type
O0 Tb1 2.292 . S
O0 C3 1.255 . S
Tb1 O0 2.292 . S
Tb1 O17 2.326 . S
Tb1 O19 2.500 . S
Tb1 O20 2.473 . S
Tb1 O23 2.324 . S
Eu2 O6 2.292 1_455 S
Eu2 C7 2.852 1_455 S
Eu2 O18 2.324 . S
Eu2 O22 2.326 . S
Eu2 O24 2.500 1_455 S
Eu2 O25 2.473 1_455 S
C3 O0 1.255 . S
C3 O4 1.247 . S
O4 C3 1.247 . S
C5 O17 1.242 . S
C5 O18 1.258 . S
O6 Eu2 2.292 1_655 S
O6 C8 1.255 . S
C7 Eu2 2.852 1_655 S
C7 C11 1.503 . S
C7 O24 1.273 . S
C7 O25 1.257 . S
C8 O6 1.255 . S
C8 O9 1.247 1_655 S
O9 C8 1.247 1_455 S
C10 O22 1.242 . S
C10 O23 1.258 . S
C11 C7 1.503 . S
C11 C12 1.379 . S
C11 C16 1.392 . S
C12 C11 1.379 . S
C12 C13 1.404 . S
C12 H26 0.929 . S
C13 C12 1.404 . S
C13 C14 1.389 . S
C14 C13 1.389 . S
C14 C15 1.399 . S
C14 H27 0.931 . S
C15 C14 1.399 . S
C15 C16 1.390 . S
C16 C11 1.392 . S
C16 C15 1.390 . S
C16 H28 0.929 . S
O17 Tb1 2.326 . S
O17 C5 1.242 . S
O18 Eu2 2.324 . S
O18 C5 1.258 . S
O19 Tb1 2.500 . S
O19 C21 1.273 . S
O20 Tb1 2.473 . S
O20 C21 1.257 . S
C21 O19 1.273 . S
C21 O20 1.257 . S
O22 Eu2 2.326 . S
O22 C10 1.242 . S
O23 Tb1 2.324 . S
O23 C10 1.258 . S
O24 Eu2 2.500 1_655 S
O24 C7 1.273 . S
O25 Eu2 2.473 1_655 S
O25 C7 1.257 . S
H26 C12 0.929 . S
H27 C14 0.931 . S
H28 C16 0.929 . S
O29 Tb30 2.292 . S
O29 C32 1.255 . S
Tb30 O29 2.292 . S
Tb30 O46 2.326 . S
Tb30 O48 2.500 . S
Tb30 O49 2.473 . S
Tb30 O52 2.324 . S
Eu31 O35 2.292 . S
Eu31 C36 2.852 . S
Eu31 O47 2.324 . S
Eu31 O51 2.326 . S
Eu31 O53 2.500 . S
Eu31 O54 2.473 . S
C32 O29 1.255 . S
C32 O33 1.247 . S
O33 C32 1.247 . S
C34 O46 1.242 . S
C34 O47 1.258 . S
O35 Eu31 2.292 . S
O35 C37 1.255 . S
C36 Eu31 2.852 . S
C36 C40 1.503 . S
C36 O53 1.273 . S
C36 O54 1.257 . S
C37 O35 1.255 . S
C37 O38 1.247 . S
O38 C37 1.247 . S
C39 O51 1.242 . S
C39 O52 1.258 . S
C40 C36 1.503 . S
C40 C41 1.379 . S
C40 C45 1.392 . S
C41 C40 1.379 . S
C41 C42 1.404 . S
C41 H55 0.929 . S
C42 C41 1.404 . S
C42 C43 1.389 . S
C43 C42 1.389 . S
C43 C44 1.399 . S
C43 H56 0.931 . S
C44 C43 1.399 . S
C44 C45 1.390 . S
C45 C40 1.392 . S
C45 C44 1.390 . S
C45 H57 0.929 . S
O46 Tb30 2.326 . S
O46 C34 1.242 . S
O47 Eu31 2.324 . S
O47 C34 1.258 . S
O48 Tb30 2.500 . S
O48 C50 1.273 . S
O49 Tb30 2.473 . S
O49 C50 1.257 . S
C50 O48 1.273 . S
C50 O49 1.257 . S
O51 Eu31 2.326 . S
O51 C39 1.242 . S
O52 Tb30 2.324 . S
O52 C39 1.258 . S
O53 Eu31 2.500 . S
O53 C36 1.273 . S
O54 Eu31 2.473 . S
O54 C36 1.257 . S
H55 C41 0.929 . S
H56 C43 0.931 . S
H57 C45 0.929 . S
O58 Tb59 2.292 . S
O58 C61 1.255 . S
Tb59 O58 2.292 . S
Tb59 O75 2.326 . S
Tb59 O77 2.500 . S
Tb59 O78 2.473 . S
Tb59 O81 2.324 . S
Eu60 O64 2.292 . S
Eu60 C65 2.852 . S
Eu60 O76 2.324 . S
Eu60 O80 2.326 . S
Eu60 O82 2.500 . S
Eu60 O83 2.473 . S
C61 O58 1.255 . S
C61 O62 1.247 . S
O62 C61 1.247 . S
C63 O75 1.242 . S
C63 O76 1.258 . S
O64 Eu60 2.292 . S
O64 C66 1.255 . S
C65 Eu60 2.852 . S
C65 C69 1.503 . S
C65 O82 1.273 . S
C65 O83 1.257 . S
C66 O64 1.255 . S
C66 O67 1.247 . S
O67 C66 1.247 . S
C68 O80 1.242 . S
C68 O81 1.258 . S
C69 C65 1.503 . S
C69 C70 1.379 . S
C69 C74 1.392 . S
C70 C69 1.379 . S
C70 C71 1.404 . S
C70 H84 0.929 . S
C71 C70 1.404 . S
C71 C72 1.389 . S
C72 C71 1.389 . S
C72 C73 1.399 . S
C72 H85 0.931 . S
C73 C72 1.399 . S
C73 C74 1.390 . S
C74 C69 1.392 . S
C74 C73 1.390 . S
C74 H86 0.929 . S
O75 Tb59 2.326 . S
O75 C63 1.242 . S
O76 Eu60 2.324 . S
O76 C63 1.258 . S
O77 Tb59 2.500 . S
O77 C79 1.273 . S
O78 Tb59 2.473 . S
O78 C79 1.257 . S
C79 O77 1.273 . S
C79 O78 1.257 . S
O80 Eu60 2.326 . S
O80 C68 1.242 . S
O81 Tb59 2.324 . S
O81 C68 1.258 . S
O82 Eu60 2.500 . S
O82 C65 1.273 . S
O83 Eu60 2.473 . S
O83 C65 1.257 . S
H84 C70 0.929 . S
H85 C72 0.931 . S
H86 C74 0.929 . S
O87 Tb88 2.292 . S
O87 C90 1.255 . S
Tb88 O87 2.292 . S
Tb88 O104 2.326 . S
Tb88 O106 2.500 . S
Tb88 O107 2.473 . S
Tb88 O110 2.324 . S
Eu89 O93 2.292 1_655 S
Eu89 C94 2.852 1_655 S
Eu89 O105 2.324 . S
Eu89 O109 2.326 . S
Eu89 O111 2.500 1_655 S
Eu89 O112 2.473 1_655 S
C90 O87 1.255 . S
C90 O91 1.247 . S
O91 C90 1.247 . S
C92 O104 1.242 . S
C92 O105 1.258 . S
O93 Eu89 2.292 1_455 S
O93 C95 1.255 . S
C94 Eu89 2.852 1_455 S
C94 C98 1.503 . S
C94 O111 1.273 . S
C94 O112 1.257 . S
C95 O93 1.255 . S
C95 O96 1.247 1_455 S
O96 C95 1.247 1_655 S
C97 O109 1.242 . S
C97 O110 1.258 . S
C98 C94 1.503 . S
C98 C99 1.379 . S
C98 C103 1.392 . S
C99 C98 1.379 . S
C99 C100 1.404 . S
C99 H113 0.929 . S
C100 C99 1.404 . S
C100 C101 1.389 . S
C101 C100 1.389 . S
C101 C102 1.399 . S
C101 H114 0.931 . S
C102 C101 1.399 . S
C102 C103 1.390 . S
C103 C98 1.392 . S
C103 C102 1.390 . S
C103 H115 0.929 . S
O104 Tb88 2.326 . S
O104 C92 1.242 . S
O105 Eu89 2.324 . S
O105 C92 1.258 . S
O106 Tb88 2.500 . S
O106 C108 1.273 . S
O107 Tb88 2.473 . S
O107 C108 1.257 . S
C108 O106 1.273 . S
C108 O107 1.257 . S
O109 Eu89 2.326 . S
O109 C97 1.242 . S
O110 Tb88 2.324 . S
O110 C97 1.258 . S
O111 Eu89 2.500 1_455 S
O111 C94 1.273 . S
O112 Eu89 2.473 1_455 S
O112 C94 1.257 . S
H113 C99 0.929 . S
H114 C101 0.931 . S
H115 C103 0.929 . S
O116 Tb117 2.292 . S
O116 C119 1.255 . S
Tb117 O116 2.292 . S
Tb117 O133 2.326 . S
Tb117 O135 2.500 . S
Tb117 O136 2.473 . S
Tb117 O139 2.324 . S
Eu118 O122 2.292 1_655 S
Eu118 C123 2.852 1_655 S
Eu118 O134 2.324 . S
Eu118 O138 2.326 . S
Eu118 O140 2.500 1_655 S
Eu118 O141 2.473 1_655 S
C119 O116 1.255 . S
C119 O120 1.247 . S
O120 C119 1.247 . S
C121 O133 1.242 . S
C121 O134 1.258 . S
O122 Eu118 2.292 1_455 S
O122 C124 1.255 . S
C123 Eu118 2.852 1_455 S
C123 C127 1.503 . S
C123 O140 1.273 . S
C123 O141 1.257 . S
C124 O122 1.255 . S
C124 O125 1.247 1_455 S
O125 C124 1.247 1_655 S
C126 O138 1.242 . S
C126 O139 1.258 . S
C127 C123 1.503 . S
C127 C128 1.379 . S
C127 C132 1.392 . S
C128 C127 1.379 . S
C128 C129 1.404 . S
C128 H142 0.929 . S
C129 C128 1.404 . S
C129 C130 1.389 . S
C130 C129 1.389 . S
C130 C131 1.399 . S
C130 H143 0.931 . S
C131 C130 1.399 . S
C131 C132 1.390 . S
C132 C127 1.392 . S
C132 C131 1.390 . S
C132 H144 0.929 . S
O133 Tb117 2.326 . S
O133 C121 1.242 . S
O134 Eu118 2.324 . S
O134 C121 1.258 . S
O135 Tb117 2.500 . S
O135 C137 1.273 . S
O136 Tb117 2.473 . S
O136 C137 1.257 . S
C137 O135 1.273 . S
C137 O136 1.257 . S
O138 Eu118 2.326 . S
O138 C126 1.242 . S
O139 Tb117 2.324 . S
O139 C126 1.258 . S
O140 Eu118 2.500 1_455 S
O140 C123 1.273 . S
O141 Eu118 2.473 1_455 S
O141 C123 1.257 . S
H142 C128 0.929 . S
H143 C130 0.931 . S
H144 C132 0.929 . S
O145 Tb146 2.292 . S
O145 C148 1.255 . S
Tb146 O145 2.292 . S
Tb146 O162 2.326 . S
Tb146 O164 2.500 . S
Tb146 O165 2.473 . S
Tb146 O168 2.324 . S
Eu147 O151 2.292 . S
Eu147 C152 2.852 . S
Eu147 O163 2.324 . S
Eu147 O167 2.326 . S
Eu147 O169 2.500 . S
Eu147 O170 2.473 . S
C148 O145 1.255 . S
C148 O149 1.247 . S
O149 C148 1.247 . S
C150 O162 1.242 . S
C150 O163 1.258 . S
O151 Eu147 2.292 . S
O151 C153 1.255 . S
C152 Eu147 2.852 . S
C152 C156 1.503 . S
C152 O169 1.273 . S
C152 O170 1.257 . S
C153 O151 1.255 . S
C153 O154 1.247 . S
O154 C153 1.247 . S
C155 O167 1.242 . S
C155 O168 1.258 . S
C156 C152 1.503 . S
C156 C157 1.379 . S
C156 C161 1.392 . S
C157 C156 1.379 . S
C157 C158 1.404 . S
C157 H171 0.929 . S
C158 C157 1.404 . S
C158 C159 1.389 . S
C159 C158 1.389 . S
C159 C160 1.399 . S
C159 H172 0.931 . S
C160 C159 1.399 . S
C160 C161 1.390 . S
C161 C156 1.392 . S
C161 C160 1.390 . S
C161 H173 0.929 . S
O162 Tb146 2.326 . S
O162 C150 1.242 . S
O163 Eu147 2.324 . S
O163 C150 1.258 . S
O164 Tb146 2.500 . S
O164 C166 1.273 . S
O165 Tb146 2.473 . S
O165 C166 1.257 . S
C166 O164 1.273 . S
C166 O165 1.257 . S
O167 Eu147 2.326 . S
O167 C155 1.242 . S
O168 Tb146 2.324 . S
O168 C155 1.258 . S
O169 Eu147 2.500 . S
O169 C152 1.273 . S
O170 Eu147 2.473 . S
O170 C152 1.257 . S
H171 C157 0.929 . S
H172 C159 0.931 . S
H173 C161 0.929 . S
O174 Tb175 2.292 . S
O174 C177 1.255 . S
Tb175 O174 2.292 . S
Tb175 O191 2.326 . S
Tb175 O193 2.500 . S
Tb175 O194 2.473 . S
Tb175 O197 2.324 . S
Eu176 O180 2.292 . S
Eu176 C181 2.852 . S
Eu176 O192 2.324 . S
Eu176 O196 2.326 . S
Eu176 O198 2.500 . S
Eu176 O199 2.473 . S
C177 O174 1.255 . S
C177 O178 1.247 . S
O178 C177 1.247 . S
C179 O191 1.242 . S
C179 O192 1.258 . S
O180 Eu176 2.292 . S
O180 C182 1.255 . S
C181 Eu176 2.852 . S
C181 C185 1.503 . S
C181 O198 1.273 . S
C181 O199 1.257 . S
C182 O180 1.255 . S
C182 O183 1.247 . S
O183 C182 1.247 . S
C184 O196 1.242 . S
C184 O197 1.258 . S
C185 C181 1.503 . S
C185 C186 1.379 . S
C185 C190 1.392 . S
C186 C185 1.379 . S
C186 C187 1.404 . S
C186 H200 0.929 . S
C187 C186 1.404 . S
C187 C188 1.389 . S
C188 C187 1.389 . S
C188 C189 1.399 . S
C188 H201 0.931 . S
C189 C188 1.399 . S
C189 C190 1.390 . S
C190 C185 1.392 . S
C190 C189 1.390 . S
C190 H202 0.929 . S
O191 Tb175 2.326 . S
O191 C179 1.242 . S
O192 Eu176 2.324 . S
O192 C179 1.258 . S
O193 Tb175 2.500 . S
O193 C195 1.273 . S
O194 Tb175 2.473 . S
O194 C195 1.257 . S
C195 O193 1.273 . S
C195 O194 1.257 . S
O196 Eu176 2.326 . S
O196 C184 1.242 . S
O197 Tb175 2.324 . S
O197 C184 1.258 . S
O198 Eu176 2.500 . S
O198 C181 1.273 . S
O199 Eu176 2.473 . S
O199 C181 1.257 . S
H200 C186 0.929 . S
H201 C188 0.931 . S
H202 C190 0.929 . S
O203 Tb204 2.292 . S
O203 C206 1.255 . S
Tb204 O203 2.292 . S
Tb204 O220 2.326 . S
Tb204 O222 2.500 . S
Tb204 O223 2.473 . S
Tb204 O226 2.324 . S
Eu205 O209 2.292 1_455 S
Eu205 C210 2.852 1_455 S
Eu205 O221 2.324 . S
Eu205 O225 2.326 . S
Eu205 O227 2.500 1_455 S
Eu205 O228 2.473 1_455 S
C206 O203 1.255 . S
C206 O207 1.247 . S
O207 C206 1.247 . S
C208 O220 1.242 . S
C208 O221 1.258 . S
O209 Eu205 2.292 1_655 S
O209 C211 1.255 . S
C210 Eu205 2.852 1_655 S
C210 C214 1.503 . S
C210 O227 1.273 . S
C210 O228 1.257 . S
C211 O209 1.255 . S
C211 O212 1.247 1_655 S
O212 C211 1.247 1_455 S
C213 O225 1.242 . S
C213 O226 1.258 . S
C214 C210 1.503 . S
C214 C215 1.379 . S
C214 C219 1.392 . S
C215 C214 1.379 . S
C215 C216 1.404 . S
C215 H229 0.929 . S
C216 C215 1.404 . S
C216 C217 1.389 . S
C217 C216 1.389 . S
C217 C218 1.399 . S
C217 H230 0.931 . S
C218 C217 1.399 . S
C218 C219 1.390 . S
C219 C214 1.392 . S
C219 C218 1.390 . S
C219 H231 0.929 . S
O220 Tb204 2.326 . S
O220 C208 1.242 . S
O221 Eu205 2.324 . S
O221 C208 1.258 . S
O222 Tb204 2.500 . S
O222 C224 1.273 . S
O223 Tb204 2.473 . S
O223 C224 1.257 . S
C224 O222 1.273 . S
C224 O223 1.257 . S
O225 Eu205 2.326 . S
O225 C213 1.242 . S
O226 Tb204 2.324 . S
O226 C213 1.258 . S
O227 Eu205 2.500 1_655 S
O227 C210 1.273 . S
O228 Eu205 2.473 1_655 S
O228 C210 1.257 . S
H229 C215 0.929 . S
H230 C217 0.931 . S
H231 C219 0.929 . S
O232 Tb233 2.292 . S
O232 C235 1.255 . S
Tb233 O232 2.292 . S
Tb233 O249 2.326 . S
Tb233 O251 2.500 . S
Tb233 O252 2.473 . S
Tb233 O255 2.324 . S
Eu234 O238 2.292 . S
Eu234 C239 2.852 . S
Eu234 O250 2.324 . S
Eu234 O254 2.326 . S
Eu234 O256 2.500 . S
Eu234 O257 2.473 . S
C235 O232 1.255 . S
C235 O236 1.247 . S
O236 C235 1.247 . S
C237 O249 1.242 . S
C237 O250 1.258 . S
O238 Eu234 2.292 . S
O238 C240 1.255 . S
C239 Eu234 2.852 . S
C239 C243 1.503 . S
C239 O256 1.273 . S
C239 O257 1.257 . S
C240 O238 1.255 . S
C240 O241 1.247 . S
O241 C240 1.247 . S
C242 O254 1.242 . S
C242 O255 1.258 . S
C243 C239 1.503 . S
C243 C244 1.379 . S
C243 C248 1.392 . S
C244 C243 1.379 . S
C244 C245 1.404 . S
C244 H258 0.929 . S
C245 C244 1.404 . S
C245 C246 1.389 . S
C246 C245 1.389 . S
C246 C247 1.399 . S
C246 H259 0.931 . S
C247 C246 1.399 . S
C247 C248 1.390 . S
C248 C243 1.392 . S
C248 C247 1.390 . S
C248 H260 0.929 . S
O249 Tb233 2.326 . S
O249 C237 1.242 . S
O250 Eu234 2.324 . S
O250 C237 1.258 . S
O251 Tb233 2.500 . S
O251 C253 1.273 . S
O252 Tb233 2.473 . S
O252 C253 1.257 . S
C253 O251 1.273 . S
C253 O252 1.257 . S
O254 Eu234 2.326 . S
O254 C242 1.242 . S
O255 Tb233 2.324 . S
O255 C242 1.258 . S
O256 Eu234 2.500 . S
O256 C239 1.273 . S
O257 Eu234 2.473 . S
O257 C239 1.257 . S
H258 C244 0.929 . S
H259 C246 0.931 . S
H260 C248 0.929 . S
O261 Tb262 2.292 . S
O261 C264 1.255 . S
Tb262 O261 2.292 . S
Tb262 O278 2.326 . S
Tb262 O280 2.500 . S
Tb262 O281 2.473 . S
Tb262 O284 2.324 . S
Eu263 O267 2.292 1_655 S
Eu263 C268 2.852 1_655 S
Eu263 O279 2.324 . S
Eu263 O283 2.326 . S
Eu263 O285 2.500 1_655 S
Eu263 O286 2.473 1_655 S
C264 O261 1.255 . S
C264 O265 1.247 . S
O265 C264 1.247 . S
C266 O278 1.242 . S
C266 O279 1.258 . S
O267 Eu263 2.292 1_455 S
O267 C269 1.255 . S
C268 Eu263 2.852 1_455 S
C268 C272 1.503 . S
C268 O285 1.273 . S
C268 O286 1.257 . S
C269 O267 1.255 . S
C269 O270 1.247 1_455 S
O270 C269 1.247 1_655 S
C271 O283 1.242 . S
C271 O284 1.258 . S
C272 C268 1.503 . S
C272 C273 1.379 . S
C272 C277 1.392 . S
C273 C272 1.379 . S
C273 C274 1.404 . S
C273 H287 0.929 . S
C274 C273 1.404 . S
C274 C275 1.389 . S
C275 C274 1.389 . S
C275 C276 1.399 . S
C275 H288 0.931 . S
C276 C275 1.399 . S
C276 C277 1.390 . S
C277 C272 1.392 . S
C277 C276 1.390 . S
C277 H289 0.929 . S
O278 Tb262 2.326 . S
O278 C266 1.242 . S
O279 Eu263 2.324 . S
O279 C266 1.258 . S
O280 Tb262 2.500 . S
O280 C282 1.273 . S
O281 Tb262 2.473 . S
O281 C282 1.257 . S
C282 O280 1.273 . S
C282 O281 1.257 . S
O283 Eu263 2.326 . S
O283 C271 1.242 . S
O284 Tb262 2.324 . S
O284 C271 1.258 . S
O285 Eu263 2.500 1_455 S
O285 C268 1.273 . S
O286 Eu263 2.473 1_455 S
O286 C268 1.257 . S
H287 C273 0.929 . S
H288 C275 0.931 . S
H289 C277 0.929 . S
O290 Tb291 2.292 . S
O290 C293 1.255 . S
Tb291 O290 2.292 . S
Tb291 O307 2.326 . S
Tb291 O309 2.500 . S
Tb291 O310 2.473 . S
Tb291 O313 2.324 . S
Eu292 O296 2.292 1_455 S
Eu292 C297 2.852 1_455 S
Eu292 O308 2.324 . S
Eu292 O312 2.326 . S
Eu292 O314 2.500 1_455 S
Eu292 O315 2.473 1_455 S
C293 O290 1.255 . S
C293 O294 1.247 . S
O294 C293 1.247 . S
C295 O307 1.242 . S
C295 O308 1.258 . S
O296 Eu292 2.292 1_655 S
O296 C298 1.255 . S
C297 Eu292 2.852 1_655 S
C297 C301 1.503 . S
C297 O314 1.273 . S
C297 O315 1.257 . S
C298 O296 1.255 . S
C298 O299 1.247 1_655 S
O299 C298 1.247 1_455 S
C300 O312 1.242 . S
C300 O313 1.258 . S
C301 C297 1.503 . S
C301 C302 1.379 . S
C301 C306 1.392 . S
C302 C301 1.379 . S
C302 C303 1.404 . S
C302 H316 0.929 . S
C303 C302 1.404 . S
C303 C304 1.389 . S
C304 C303 1.389 . S
C304 C305 1.399 . S
C304 H317 0.931 . S
C305 C304 1.399 . S
C305 C306 1.390 . S
C306 C301 1.392 . S
C306 C305 1.390 . S
C306 H318 0.929 . S
O307 Tb291 2.326 . S
O307 C295 1.242 . S
O308 Eu292 2.324 . S
O308 C295 1.258 . S
O309 Tb291 2.500 . S
O309 C311 1.273 . S
O310 Tb291 2.473 . S
O310 C311 1.257 . S
C311 O309 1.273 . S
C311 O310 1.257 . S
O312 Eu292 2.326 . S
O312 C300 1.242 . S
O313 Tb291 2.324 . S
O313 C300 1.258 . S
O314 Eu292 2.500 1_655 S
O314 C297 1.273 . S
O315 Eu292 2.473 1_655 S
O315 C297 1.257 . S
H316 C302 0.929 . S
H317 C304 0.931 . S
H318 C306 0.929 . S
O319 Tb320 2.292 . S
O319 C322 1.255 . S
Tb320 O319 2.292 . S
Tb320 O336 2.326 . S
Tb320 O338 2.500 . S
Tb320 O339 2.473 . S
Tb320 O342 2.324 . S
Eu321 O325 2.292 . S
Eu321 C326 2.852 . S
Eu321 O337 2.324 . S
Eu321 O341 2.326 . S
Eu321 O343 2.500 . S
Eu321 O344 2.473 . S
C322 O319 1.255 . S
C322 O323 1.247 . S
O323 C322 1.247 . S
C324 O336 1.242 . S
C324 O337 1.258 . S
O325 Eu321 2.292 . S
O325 C327 1.255 . S
C326 Eu321 2.852 . S
C326 C330 1.503 . S
C326 O343 1.273 . S
C326 O344 1.257 . S
C327 O325 1.255 . S
C327 O328 1.247 . S
O328 C327 1.247 . S
C329 O341 1.242 . S
C329 O342 1.258 . S
C330 C326 1.503 . S
C330 C331 1.379 . S
C330 C335 1.392 . S
C331 C330 1.379 . S
C331 C332 1.404 . S
C331 H345 0.929 . S
C332 C331 1.404 . S
C332 C333 1.389 . S
C333 C332 1.389 . S
C333 C334 1.399 . S
C333 H346 0.931 . S
C334 C333 1.399 . S
C334 C335 1.390 . S
C335 C330 1.392 . S
C335 C334 1.390 . S
C335 H347 0.929 . S
O336 Tb320 2.326 . S
O336 C324 1.242 . S
O337 Eu321 2.324 . S
O337 C324 1.258 . S
O338 Tb320 2.500 . S
O338 C340 1.273 . S
O339 Tb320 2.473 . S
O339 C340 1.257 . S
C340 O338 1.273 . S
C340 O339 1.257 . S
O341 Eu321 2.326 . S
O341 C329 1.242 . S
O342 Tb320 2.324 . S
O342 C329 1.258 . S
O343 Eu321 2.500 . S
O343 C326 1.273 . S
O344 Eu321 2.473 . S
O344 C326 1.257 . S
H345 C331 0.929 . S
H346 C333 0.931 . S
H347 C335 0.929 . S
O348 Tb349 2.292 . S
O348 C351 1.255 . S
Tb349 O348 2.292 . S
Tb349 O365 2.326 . S
Tb349 O367 2.500 . S
Tb349 O368 2.473 . S
Tb349 O371 2.324 . S
Eu350 O354 2.292 . S
Eu350 C355 2.852 . S
Eu350 O366 2.324 . S
Eu350 O370 2.326 . S
Eu350 O372 2.500 . S
Eu350 O373 2.473 . S
C351 O348 1.255 . S
C351 O352 1.247 . S
O352 C351 1.247 . S
C353 O365 1.242 . S
C353 O366 1.258 . S
O354 Eu350 2.292 . S
O354 C356 1.255 . S
C355 Eu350 2.852 . S
C355 C359 1.503 . S
C355 O372 1.273 . S
C355 O373 1.257 . S
C356 O354 1.255 . S
C356 O357 1.247 . S
O357 C356 1.247 . S
C358 O370 1.242 . S
C358 O371 1.258 . S
C359 C355 1.503 . S
C359 C360 1.379 . S
C359 C364 1.392 . S
C360 C359 1.379 . S
C360 C361 1.404 . S
C360 H374 0.929 . S
C361 C360 1.404 . S
C361 C362 1.389 . S
C362 C361 1.389 . S
C362 C363 1.399 . S
C362 H375 0.931 . S
C363 C362 1.399 . S
C363 C364 1.390 . S
C364 C359 1.392 . S
C364 C363 1.390 . S
C364 H376 0.929 . S
O365 Tb349 2.326 . S
O365 C353 1.242 . S
O366 Eu350 2.324 . S
O366 C353 1.258 . S
O367 Tb349 2.500 . S
O367 C369 1.273 . S
O368 Tb349 2.473 . S
O368 C369 1.257 . S
C369 O367 1.273 . S
C369 O368 1.257 . S
O370 Eu350 2.326 . S
O370 C358 1.242 . S
O371 Tb349 2.324 . S
O371 C358 1.258 . S
O372 Eu350 2.500 . S
O372 C355 1.273 . S
O373 Eu350 2.473 . S
O373 C355 1.257 . S
H374 C360 0.929 . S
H375 C362 0.931 . S
H376 C364 0.929 . S
O377 Tb378 2.292 . S
O377 C380 1.255 . S
Tb378 O377 2.292 . S
Tb378 O394 2.326 . S
Tb378 O396 2.500 . S
Tb378 O397 2.473 . S
Tb378 O400 2.324 . S
Eu379 O383 2.292 1_455 S
Eu379 C384 2.852 1_455 S
Eu379 O395 2.324 . S
Eu379 O399 2.326 . S
Eu379 O401 2.500 1_455 S
Eu379 O402 2.473 1_455 S
C380 O377 1.255 . S
C380 O381 1.247 . S
O381 C380 1.247 . S
C382 O394 1.242 . S
C382 O395 1.258 . S
O383 Eu379 2.292 1_655 S
O383 C385 1.255 . S
C384 Eu379 2.852 1_655 S
C384 C388 1.503 . S
C384 O401 1.273 . S
C384 O402 1.257 . S
C385 O383 1.255 . S
C385 O386 1.247 1_655 S
O386 C385 1.247 1_455 S
C387 O399 1.242 . S
C387 O400 1.258 . S
C388 C384 1.503 . S
C388 C389 1.379 . S
C388 C393 1.392 . S
C389 C388 1.379 . S
C389 C390 1.404 . S
C389 H403 0.929 . S
C390 C389 1.404 . S
C390 C391 1.389 . S
C391 C390 1.389 . S
C391 C392 1.399 . S
C391 H404 0.931 . S
C392 C391 1.399 . S
C392 C393 1.390 . S
C393 C388 1.392 . S
C393 C392 1.390 . S
C393 H405 0.929 . S
O394 Tb378 2.326 . S
O394 C382 1.242 . S
O395 Eu379 2.324 . S
O395 C382 1.258 . S
O396 Tb378 2.500 . S
O396 C398 1.273 . S
O397 Tb378 2.473 . S
O397 C398 1.257 . S
C398 O396 1.273 . S
C398 O397 1.257 . S
O399 Eu379 2.326 . S
O399 C387 1.242 . S
O400 Tb378 2.324 . S
O400 C387 1.258 . S
O401 Eu379 2.500 1_655 S
O401 C384 1.273 . S
O402 Eu379 2.473 1_655 S
O402 C384 1.257 . S
H403 C389 0.929 . S
H404 C391 0.931 . S
H405 C393 0.929 . S
O406 Tb407 2.292 . S
O406 C409 1.255 . S
Tb407 O406 2.292 . S
Tb407 O423 2.326 . S
Tb407 O425 2.500 . S
Tb407 O426 2.473 . S
Tb407 O429 2.324 . S
Eu408 O412 2.292 1_655 S
Eu408 C413 2.852 1_655 S
Eu408 O424 2.324 . S
Eu408 O428 2.326 . S
Eu408 O430 2.500 1_655 S
Eu408 O431 2.473 1_655 S
C409 O406 1.255 . S
C409 O410 1.247 . S
O410 C409 1.247 . S
C411 O423 1.242 . S
C411 O424 1.258 . S
O412 Eu408 2.292 1_455 S
O412 C414 1.255 . S
C413 Eu408 2.852 1_455 S
C413 C417 1.503 . S
C413 O430 1.273 . S
C413 O431 1.257 . S
C414 O412 1.255 . S
C414 O415 1.247 1_455 S
O415 C414 1.247 1_655 S
C416 O428 1.242 . S
C416 O429 1.258 . S
C417 C413 1.503 . S
C417 C418 1.379 . S
C417 C422 1.392 . S
C418 C417 1.379 . S
C418 C419 1.404 . S
C418 H432 0.929 . S
C419 C418 1.404 . S
C419 C420 1.389 . S
C420 C419 1.389 . S
C420 C421 1.399 . S
C420 H433 0.931 . S
C421 C420 1.399 . S
C421 C422 1.390 . S
C422 C417 1.392 . S
C422 C421 1.390 . S
C422 H434 0.929 . S
O423 Tb407 2.326 . S
O423 C411 1.242 . S
O424 Eu408 2.324 . S
O424 C411 1.258 . S
O425 Tb407 2.500 . S
O425 C427 1.273 . S
O426 Tb407 2.473 . S
O426 C427 1.257 . S
C427 O425 1.273 . S
C427 O426 1.257 . S
O428 Eu408 2.326 . S
O428 C416 1.242 . S
O429 Tb407 2.324 . S
O429 C416 1.258 . S
O430 Eu408 2.500 1_455 S
O430 C413 1.273 . S
O431 Eu408 2.473 1_455 S
O431 C413 1.257 . S
H432 C418 0.929 . S
H433 C420 0.931 . S
H434 C422 0.929 . S
O435 Tb436 2.292 . S
O435 C438 1.255 . S
Tb436 O435 2.292 . S
Tb436 O452 2.326 . S
Tb436 O454 2.500 . S
Tb436 O455 2.473 . S
Tb436 O458 2.324 . S
Eu437 O441 2.292 . S
Eu437 C442 2.852 . S
Eu437 O453 2.324 . S
Eu437 O457 2.326 . S
Eu437 O459 2.500 . S
Eu437 O460 2.473 . S
C438 O435 1.255 . S
C438 O439 1.247 . S
O439 C438 1.247 . S
C440 O452 1.242 . S
C440 O453 1.258 . S
O441 Eu437 2.292 . S
O441 C443 1.255 . S
C442 Eu437 2.852 . S
C442 C446 1.503 . S
C442 O459 1.273 . S
C442 O460 1.257 . S
C443 O441 1.255 . S
C443 O444 1.247 . S
O444 C443 1.247 . S
C445 O457 1.242 . S
C445 O458 1.258 . S
C446 C442 1.503 . S
C446 C447 1.379 . S
C446 C451 1.392 . S
C447 C446 1.379 . S
C447 C448 1.404 . S
C447 H461 0.929 . S
C448 C447 1.404 . S
C448 C449 1.389 . S
C449 C448 1.389 . S
C449 C450 1.399 . S
C449 H462 0.931 . S
C450 C449 1.399 . S
C450 C451 1.390 . S
C451 C446 1.392 . S
C451 C450 1.390 . S
C451 H463 0.929 . S
O452 Tb436 2.326 . S
O452 C440 1.242 . S
O453 Eu437 2.324 . S
O453 C440 1.258 . S
O454 Tb436 2.500 . S
O454 C456 1.273 . S
O455 Tb436 2.473 . S
O455 C456 1.257 . S
C456 O454 1.273 . S
C456 O455 1.257 . S
O457 Eu437 2.326 . S
O457 C445 1.242 . S
O458 Tb436 2.324 . S
O458 C445 1.258 . S
O459 Eu437 2.500 . S
O459 C442 1.273 . S
O460 Eu437 2.473 . S
O460 C442 1.257 . S
H461 C447 0.929 . S
H462 C449 0.931 . S
H463 C451 0.929 . S
H464 C476 0.930 . S
H465 C478 0.930 . S
H466 C479 0.930 . S
H467 C483 0.959 . S
H468 C483 0.959 . S
H469 C483 0.961 . S
H470 C484 0.960 . S
H471 C484 0.961 . S
H472 C484 0.959 . S
H473 C487 0.929 . S
H474 C488 0.931 . S
H475 C490 0.930 . S
C476 H464 0.930 . S
C476 C477 1.399 . S
C476 C481 1.399 . S
C477 C476 1.399 . S
C477 C478 1.376 . S
C478 H465 0.930 . S
C478 C477 1.376 . S
C478 C479 1.388 . S
C479 H466 0.930 . S
C479 C478 1.388 . S
C479 C480 1.390 . S
C480 C479 1.390 . S
C480 C481 1.394 . S
C480 C486 1.465 . S
C481 C476 1.399 . S
C481 C480 1.394 . S
C481 C482 1.516 . S
C482 C481 1.516 . S
C482 C483 1.502 . S
C482 C484 1.561 . S
C482 C485 1.526 . S
C483 H467 0.959 . S
C483 H468 0.959 . S
C483 H469 0.961 . S
C483 C482 1.502 . S
C484 H470 0.960 . S
C484 H471 0.961 . S
C484 H472 0.959 . S
C484 C482 1.561 . S
C485 C482 1.526 . S
C485 C486 1.396 . S
C485 C490 1.390 . S
C486 C480 1.465 . S
C486 C485 1.396 . S
C486 C487 1.399 . S
C487 H473 0.929 . S
C487 C486 1.399 . S
C487 C488 1.385 . S
C488 H474 0.931 . S
C488 C487 1.385 . S
C488 C489 1.389 . S
C489 C488 1.389 . S
C489 C490 1.387 . S
C490 H475 0.930 . S
C490 C485 1.390 . S
C490 C489 1.387 . S
H491 C503 0.930 . S
H492 C505 0.930 . S
H493 C506 0.930 . S
H494 C510 0.959 . S
H495 C510 0.959 . S
H496 C510 0.961 1_455 S
H497 C511 0.960 1_455 S
H498 C511 0.961 . S
H499 C511 0.959 . S
H500 C514 0.929 . S
H501 C515 0.931 . S
H502 C517 0.930 . S
C503 H491 0.930 . S
C503 C504 1.399 . S
C503 C508 1.399 . S
C504 C503 1.399 . S
C504 C505 1.376 . S
C505 H492 0.930 . S
C505 C504 1.376 . S
C505 C506 1.388 . S
C506 H493 0.930 . S
C506 C505 1.388 . S
C506 C507 1.390 . S
C507 C506 1.390 . S
C507 C508 1.394 . S
C507 C513 1.465 1_455 S
C508 C503 1.399 . S
C508 C507 1.394 . S
C508 C509 1.522 . S
C509 C508 1.522 . S
C509 C510 1.501 1_455 S
C509 C511 1.561 1_455 S
C509 C512 1.522 1_455 S
C510 H494 0.959 . S
C510 H495 0.959 . S
C510 H496 0.961 1_655 S
C510 C509 1.501 1_655 S
C511 H497 0.960 1_655 S
C511 H498 0.961 . S
C511 H499 0.959 . S
C511 C509 1.561 1_655 S
C512 C509 1.522 1_655 S
C512 C513 1.396 . S
C512 C517 1.390 . S
C513 C507 1.465 1_655 S
C513 C512 1.396 . S
C513 C514 1.399 . S
C514 H500 0.929 . S
C514 C513 1.399 . S
C514 C515 1.385 . S
C515 H501 0.931 . S
C515 C514 1.385 . S
C515 C516 1.389 . S
C516 C515 1.389 . S
C516 C517 1.387 . S
C517 H502 0.930 . S
C517 C512 1.390 . S
C517 C516 1.387 . S
H518 C530 0.930 . S
H519 C532 0.930 . S
H520 C533 0.930 . S
H521 C537 0.959 . S
H522 C537 0.959 . S
H523 C537 0.961 1_655 S
H524 C538 0.960 . S
H525 C538 0.961 1_455 S
H526 C538 0.959 . S
H527 C541 0.929 . S
H528 C542 0.931 . S
H529 C544 0.930 . S
C530 H518 0.930 . S
C530 C531 1.399 . S
C530 C535 1.399 . S
C531 C530 1.399 . S
C531 C532 1.376 . S
C532 H519 0.930 . S
C532 C531 1.376 . S
C532 C533 1.388 . S
C533 H520 0.930 . S
C533 C532 1.388 . S
C533 C534 1.390 . S
C534 C533 1.390 . S
C534 C535 1.394 . S
C534 C540 1.465 1_655 S
C535 C530 1.399 . S
C535 C534 1.394 . S
C535 C536 1.516 . S
C536 C535 1.516 . S
C536 C537 1.502 1_655 S
C536 C538 1.561 . S
C536 C539 1.526 1_655 S
C537 H521 0.959 . S
C537 H522 0.959 . S
C537 H523 0.961 1_455 S
C537 C536 1.502 1_455 S
C538 H524 0.960 . S
C538 H525 0.961 1_655 S
C538 H526 0.959 . S
C538 C536 1.561 . S
C539 C536 1.526 1_455 S
C539 C540 1.396 . S
C539 C544 1.390 . S
C540 C534 1.465 1_455 S
C540 C539 1.396 . S
C540 C541 1.399 . S
C541 H527 0.929 . S
C541 C540 1.399 . S
C541 C542 1.385 . S
C542 H528 0.931 . S
C542 C541 1.385 . S
C542 C543 1.389 . S
C543 C542 1.389 . S
C543 C544 1.387 . S
C544 H529 0.930 . S
C544 C539 1.390 . S
C544 C543 1.387 . S
H545 C557 0.930 . S
H546 C559 0.930 . S
H547 C560 0.930 . S
H548 C564 0.959 . S
H549 C564 0.959 . S
H550 C564 0.961 . S
H551 C565 0.960 . S
H552 C565 0.961 . S
H553 C565 0.959 . S
H554 C568 0.929 . S
H555 C569 0.931 . S
H556 C571 0.930 . S
C557 H545 0.930 . S
C557 C558 1.399 . S
C557 C562 1.399 . S
C558 C557 1.399 . S
C558 C559 1.376 . S
C559 H546 0.930 . S
C559 C558 1.376 . S
C559 C560 1.388 . S
C560 H547 0.930 . S
C560 C559 1.388 . S
C560 C561 1.390 . S
C561 C560 1.390 . S
C561 C562 1.394 . S
C561 C567 1.465 . S
C562 C557 1.399 . S
C562 C561 1.394 . S
C562 C563 1.516 . S
C563 C562 1.516 . S
C563 C564 1.502 . S
C563 C565 1.561 . S
C563 C566 1.526 . S
C564 H548 0.959 . S
C564 H549 0.959 . S
C564 H550 0.961 . S
C564 C563 1.502 . S
C565 H551 0.960 . S
C565 H552 0.961 . S
C565 H553 0.959 . S
C565 C563 1.561 . S
C566 C563 1.526 . S
C566 C567 1.396 . S
C566 C571 1.390 . S
C567 C561 1.465 . S
C567 C566 1.396 . S
C567 C568 1.399 . S
C568 H554 0.929 . S
C568 C567 1.399 . S
C568 C569 1.385 . S
C569 H555 0.931 . S
C569 C568 1.385 . S
C569 C570 1.389 . S
C570 C569 1.389 . S
C570 C571 1.387 . S
C571 H556 0.930 . S
C571 C566 1.390 . S
C571 C570 1.387 . S
H572 C584 0.930 . S
H573 C586 0.930 . S
H574 C587 0.930 . S
H575 C591 0.959 . S
H576 C591 0.959 . S
H577 C591 0.961 . S
H578 C592 0.960 . S
H579 C592 0.961 . S
H580 C592 0.959 . S
H581 C595 0.929 . S
H582 C596 0.931 . S
H583 C598 0.930 . S
C584 H572 0.930 . S
C584 C585 1.399 . S
C584 C589 1.399 . S
C585 C584 1.399 . S
C585 C586 1.376 . S
C586 H573 0.930 . S
C586 C585 1.376 . S
C586 C587 1.388 . S
C587 H574 0.930 . S
C587 C586 1.388 . S
C587 C588 1.390 . S
C588 C587 1.390 . S
C588 C589 1.394 . S
C588 C594 1.465 . S
C589 C584 1.399 . S
C589 C588 1.394 . S
C589 C590 1.516 . S
C590 C589 1.516 . S
C590 C591 1.502 . S
C590 C592 1.561 . S
C590 C593 1.526 . S
C591 H575 0.959 . S
C591 H576 0.959 . S
C591 H577 0.961 . S
C591 C590 1.502 . S
C592 H578 0.960 . S
C592 H579 0.961 . S
C592 H580 0.959 . S
C592 C590 1.561 . S
C593 C590 1.526 . S
C593 C594 1.396 . S
C593 C598 1.390 . S
C594 C588 1.465 . S
C594 C593 1.396 . S
C594 C595 1.399 . S
C595 H581 0.929 . S
C595 C594 1.399 . S
C595 C596 1.385 . S
C596 H582 0.931 . S
C596 C595 1.385 . S
C596 C597 1.389 . S
C597 C596 1.389 . S
C597 C598 1.387 . S
C598 H583 0.930 . S
C598 C593 1.390 . S
C598 C597 1.387 . S
H599 C611 0.930 . S
H600 C613 0.930 . S
H601 C614 0.930 . S
H602 C618 0.959 . S
H603 C618 0.959 . S
H604 C618 0.961 1_455 S
H605 C619 0.960 1_455 S
H606 C619 0.961 . S
H607 C619 0.959 . S
H608 C622 0.929 . S
H609 C623 0.931 . S
H610 C625 0.930 . S
C611 H599 0.930 . S
C611 C612 1.399 . S
C611 C616 1.399 . S
C612 C611 1.399 . S
C612 C613 1.376 . S
C613 H600 0.930 . S
C613 C612 1.376 . S
C613 C614 1.388 . S
C614 H601 0.930 . S
C614 C613 1.388 . S
C614 C615 1.390 . S
C615 C614 1.390 . S
C615 C616 1.394 . S
C615 C621 1.465 1_455 S
C616 C611 1.399 . S
C616 C615 1.394 . S
C616 C617 1.516 1_455 S
C617 C616 1.516 1_655 S
C617 C618 1.502 . S
C617 C619 1.561 . S
C617 C620 1.526 . S
C618 H602 0.959 . S
C618 H603 0.959 . S
C618 H604 0.961 1_655 S
C618 C617 1.502 . S
C619 H605 0.960 1_655 S
C619 H606 0.961 . S
C619 H607 0.959 . S
C619 C617 1.561 . S
C620 C617 1.526 . S
C620 C621 1.396 . S
C620 C625 1.390 . S
C621 C615 1.465 1_655 S
C621 C620 1.396 . S
C621 C622 1.399 . S
C622 H608 0.929 . S
C622 C621 1.399 . S
C622 C623 1.385 . S
C623 H609 0.931 . S
C623 C622 1.385 . S
C623 C624 1.389 . S
C624 C623 1.389 . S
C624 C625 1.387 . S
C625 H610 0.930 . S
C625 C620 1.390 . S
C625 C624 1.387 . S
H626 C638 0.930 . S
H627 C640 0.930 . S
H628 C641 0.930 . S
H629 C645 0.959 . S
H630 C645 0.959 . S
H631 C645 0.961 1_655 S
H632 C646 0.960 1_655 S
H633 C646 0.961 . S
H634 C646 0.959 . S
H635 C649 0.929 . S
H636 C650 0.931 . S
H637 C652 0.930 . S
C638 H626 0.930 . S
C638 C639 1.399 . S
C638 C643 1.399 . S
C639 C638 1.399 . S
C639 C640 1.376 . S
C640 H627 0.930 . S
C640 C639 1.376 . S
C640 C641 1.388 . S
C641 H628 0.930 . S
C641 C640 1.388 . S
C641 C642 1.390 . S
C642 C641 1.390 . S
C642 C643 1.394 . S
C642 C648 1.465 1_655 S
C643 C638 1.399 . S
C643 C642 1.394 . S
C643 C644 1.516 1_655 S
C644 C643 1.516 1_455 S
C644 C645 1.502 . S
C644 C646 1.561 . S
C644 C647 1.526 . S
C645 H629 0.959 . S
C645 H630 0.959 . S
C645 H631 0.961 1_455 S
C645 C644 1.502 . S
C646 H632 0.960 1_455 S
C646 H633 0.961 . S
C646 H634 0.959 . S
C646 C644 1.561 . S
C647 C644 1.526 . S
C647 C648 1.396 . S
C647 C652 1.390 . S
C648 C642 1.465 1_455 S
C648 C647 1.396 . S
C648 C649 1.399 . S
C649 H635 0.929 . S
C649 C648 1.399 . S
C649 C650 1.385 . S
C650 H636 0.931 . S
C650 C649 1.385 . S
C650 C651 1.389 . S
C651 C650 1.389 . S
C651 C652 1.387 . S
C652 H637 0.930 . S
C652 C647 1.390 . S
C652 C651 1.387 . S
H653 C665 0.930 . S
H654 C667 0.930 . S
H655 C668 0.930 . S
H656 C672 0.959 . S
H657 C672 0.959 . S
H658 C672 0.961 . S
H659 C673 0.960 . S
H660 C673 0.961 . S
H661 C673 0.959 . S
H662 C676 0.929 . S
H663 C677 0.931 . S
H664 C679 0.930 . S
C665 H653 0.930 . S
C665 C666 1.399 . S
C665 C670 1.399 . S
C666 C665 1.399 . S
C666 C667 1.376 . S
C667 H654 0.930 . S
C667 C666 1.376 . S
C667 C668 1.388 . S
C668 H655 0.930 . S
C668 C667 1.388 . S
C668 C669 1.390 . S
C669 C668 1.390 . S
C669 C670 1.394 . S
C669 C675 1.465 . S
C670 C665 1.399 . S
C670 C669 1.394 . S
C670 C671 1.516 . S
C671 C670 1.516 . S
C671 C672 1.502 . S
C671 C673 1.561 . S
C671 C674 1.526 . S
C672 H656 0.959 . S
C672 H657 0.959 . S
C672 H658 0.961 . S
C672 C671 1.502 . S
C673 H659 0.960 . S
C673 H660 0.961 . S
C673 H661 0.959 . S
C673 C671 1.561 . S
C674 C671 1.526 . S
C674 C675 1.396 . S
C674 C679 1.390 . S
C675 C669 1.465 . S
C675 C674 1.396 . S
C675 C676 1.399 . S
C676 H662 0.929 . S
C676 C675 1.399 . S
C676 C677 1.385 . S
C677 H663 0.931 . S
C677 C676 1.385 . S
C677 C678 1.389 . S
C678 C677 1.389 . S
C678 C679 1.387 . S
C679 H664 0.930 . S
C679 C674 1.390 . S
C679 C678 1.387 . S
H680 C692 0.930 . S
H681 C694 0.930 . S
H682 C695 0.930 . S
H683 C699 0.959 . S
H684 C699 0.959 1_455 S
H685 C699 0.961 . S
H686 C700 0.960 . S
H687 C700 0.951 1_455 S
H688 C700 0.959 . S
H689 C703 0.929 . S
H690 C704 0.931 . S
H691 C706 0.930 . S
C692 H680 0.930 . S
C692 C693 1.399 . S
C692 C697 1.399 . S
C693 C692 1.399 . S
C693 C694 1.376 . S
C694 H681 0.930 . S
C694 C693 1.376 . S
C694 C695 1.388 . S
C695 H682 0.930 . S
C695 C694 1.388 . S
C695 C696 1.390 . S
C696 C695 1.390 . S
C696 C697 1.394 . S
C696 C702 1.465 1_655 S
C697 C692 1.399 . S
C697 C696 1.394 . S
C697 C698 1.516 . S
C698 C697 1.516 . S
C698 C699 1.502 . S
C698 C700 1.561 . S
C698 C701 1.526 1_655 S
C699 H683 0.959 . S
C699 H684 0.959 1_655 S
C699 H685 0.961 . S
C699 C698 1.502 . S
C700 H686 0.960 . S
C700 H687 0.951 1_655 S
C700 H688 0.959 . S
C700 C698 1.561 . S
C701 C698 1.526 1_455 S
C701 C702 1.396 . S
C701 C706 1.390 . S
C702 C696 1.465 1_455 S
C702 C701 1.396 . S
C702 C703 1.399 . S
C703 H689 0.929 . S
C703 C702 1.399 . S
C703 C704 1.385 . S
C704 H690 0.931 . S
C704 C703 1.385 . S
C704 C705 1.389 . S
C705 C704 1.389 . S
C705 C706 1.387 . S
C706 H691 0.930 . S
C706 C701 1.390 . S
C706 C705 1.387 . S
H707 C719 0.930 . S
H708 C721 0.930 . S
H709 C722 0.930 . S
H710 C726 0.959 . S
H711 C726 0.959 . S
H712 C726 0.961 . S
H713 C727 0.960 . S
H714 C727 0.961 . S
H715 C727 0.959 . S
H716 C730 0.929 . S
H717 C731 0.931 . S
H718 C733 0.930 . S
C719 H707 0.930 . S
C719 C720 1.399 . S
C719 C724 1.399 . S
C720 C719 1.399 . S
C720 C721 1.376 . S
C721 H708 0.930 . S
C721 C720 1.376 . S
C721 C722 1.388 . S
C722 H709 0.930 . S
C722 C721 1.388 . S
C722 C723 1.390 . S
C723 C722 1.390 . S
C723 C724 1.394 . S
C723 C729 1.465 . S
C724 C719 1.399 . S
C724 C723 1.394 . S
C724 C725 1.516 . S
C725 C724 1.516 . S
C725 C726 1.502 . S
C725 C727 1.561 . S
C725 C728 1.526 . S
C726 H710 0.959 . S
C726 H711 0.959 . S
C726 H712 0.961 . S
C726 C725 1.502 . S
C727 H713 0.960 . S
C727 H714 0.961 . S
C727 H715 0.959 . S
C727 C725 1.561 . S
C728 C725 1.526 . S
C728 C729 1.396 . S
C728 C733 1.390 . S
C729 C723 1.465 . S
C729 C728 1.396 . S
C729 C730 1.399 . S
C730 H716 0.929 . S
C730 C729 1.399 . S
C730 C731 1.385 . S
C731 H717 0.931 . S
C731 C730 1.385 . S
C731 C732 1.389 . S
C732 C731 1.389 . S
C732 C733 1.387 . S
C733 H718 0.930 . S
C733 C728 1.390 . S
C733 C732 1.387 . S
H734 C746 0.930 . S
H735 C748 0.930 . S
H736 C749 0.930 . S
H737 C753 0.959 . S
H738 C753 0.959 . S
H739 C753 0.961 . S
H740 C754 0.960 . S
H741 C754 0.961 . S
H742 C754 0.959 . S
H743 C757 0.929 . S
H744 C758 0.931 . S
H745 C760 0.930 . S
C746 H734 0.930 . S
C746 C747 1.399 . S
C746 C751 1.399 . S
C747 C746 1.399 . S
C747 C748 1.376 . S
C748 H735 0.930 . S
C748 C747 1.376 . S
C748 C749 1.388 . S
C749 H736 0.930 . S
C749 C748 1.388 . S
C749 C750 1.390 . S
C750 C749 1.390 . S
C750 C751 1.394 . S
C750 C756 1.465 . S
C751 C746 1.399 . S
C751 C750 1.394 . S
C751 C752 1.516 . S
C752 C751 1.516 . S
C752 C753 1.502 . S
C752 C754 1.561 . S
C752 C755 1.526 . S
C753 H737 0.959 . S
C753 H738 0.959 . S
C753 H739 0.961 . S
C753 C752 1.502 . S
C754 H740 0.960 . S
C754 H741 0.961 . S
C754 H742 0.959 . S
C754 C752 1.561 . S
C755 C752 1.526 . S
C755 C756 1.396 . S
C755 C760 1.390 . S
C756 C750 1.465 . S
C756 C755 1.396 . S
C756 C757 1.399 . S
C757 H743 0.929 . S
C757 C756 1.399 . S
C757 C758 1.385 . S
C758 H744 0.931 . S
C758 C757 1.385 . S
C758 C759 1.389 . S
C759 C758 1.389 . S
C759 C760 1.387 . S
C760 H745 0.930 . S
C760 C755 1.390 . S
C760 C759 1.387 . S
H761 C773 0.930 . S
H762 C775 0.930 . S
H763 C776 0.930 . S
H764 C780 0.959 . S
H765 C780 0.959 . S
H766 C780 0.961 1_455 S
H767 C781 0.960 1_455 S
H768 C781 0.961 . S
H769 C781 0.959 . S
H770 C784 0.929 . S
H771 C785 0.931 . S
H772 C787 0.930 . S
C773 H761 0.930 . S
C773 C774 1.399 . S
C773 C778 1.399 . S
C774 C773 1.399 . S
C774 C775 1.376 . S
C775 H762 0.930 . S
C775 C774 1.376 . S
C775 C776 1.388 . S
C776 H763 0.930 . S
C776 C775 1.388 . S
C776 C777 1.390 . S
C777 C776 1.390 . S
C777 C778 1.394 . S
C777 C783 1.465 1_455 S
C778 C773 1.399 . S
C778 C777 1.394 . S
C778 C779 1.523 . S
C779 C778 1.523 . S
C779 C780 1.501 1_455 S
C779 C781 1.560 1_455 S
C779 C782 1.520 1_455 S
C780 H764 0.959 . S
C780 H765 0.959 . S
C780 H766 0.961 1_655 S
C780 C779 1.501 1_655 S
C781 H767 0.960 1_655 S
C781 H768 0.961 . S
C781 H769 0.959 . S
C781 C779 1.560 1_655 S
C782 C779 1.520 1_655 S
C782 C783 1.396 . S
C782 C787 1.390 . S
C783 C777 1.465 1_655 S
C783 C782 1.396 . S
C783 C784 1.399 . S
C784 H770 0.929 . S
C784 C783 1.399 . S
C784 C785 1.385 . S
C785 H771 0.931 . S
C785 C784 1.385 . S
C785 C786 1.389 . S
C786 C785 1.389 . S
C786 C787 1.387 . S
C787 H772 0.930 . S
C787 C782 1.390 . S
C787 C786 1.387 . S
H788 C800 0.930 . S
H789 C802 0.930 . S
H790 C803 0.930 . S
H791 C807 0.959 . S
H792 C807 0.959 1_655 S
H793 C807 0.961 . S
H794 C808 0.960 . S
H795 C808 0.961 1_655 S
H796 C808 0.959 1_655 S
H797 C811 0.929 . S
H798 C812 0.931 . S
H799 C814 0.930 . S
C800 H788 0.930 . S
C800 C801 1.399 . S
C800 C805 1.399 . S
C801 C800 1.399 . S
C801 C802 1.376 . S
C802 H789 0.930 . S
C802 C801 1.376 . S
C802 C803 1.388 . S
C803 H790 0.930 . S
C803 C802 1.388 . S
C803 C804 1.390 . S
C804 C803 1.390 . S
C804 C805 1.394 . S
C804 C810 1.465 1_455 S
C805 C800 1.399 . S
C805 C804 1.394 . S
C805 C806 1.516 . S
C806 C805 1.516 . S
C806 C807 1.502 . S
C806 C808 1.561 . S
C806 C809 1.526 1_455 S
C807 H791 0.959 . S
C807 H792 0.959 1_455 S
C807 H793 0.961 . S
C807 C806 1.502 . S
C808 H794 0.960 . S
C808 H795 0.961 1_455 S
C808 H796 0.959 1_455 S
C808 C806 1.561 . S
C809 C806 1.526 1_655 S
C809 C810 1.396 . S
C809 C814 1.390 . S
C810 C804 1.465 1_655 S
C810 C809 1.396 . S
C810 C811 1.399 . S
C811 H797 0.929 . S
C811 C810 1.399 . S
C811 C812 1.385 . S
C812 H798 0.931 . S
C812 C811 1.385 . S
C812 C813 1.389 . S
C813 C812 1.389 . S
C813 C814 1.387 . S
C814 H799 0.930 . S
C814 C809 1.390 . S
C814 C813 1.387 . S
H815 C827 0.930 . S
H816 C829 0.930 . S
H817 C830 0.930 . S
H818 C834 0.959 . S
H819 C834 0.959 . S
H820 C834 0.961 . S
H821 C835 0.960 . S
H822 C835 0.961 . S
H823 C835 0.959 . S
H824 C838 0.929 . S
H825 C839 0.931 . S
H826 C841 0.930 . S
C827 H815 0.930 . S
C827 C828 1.399 . S
C827 C832 1.399 . S
C828 C827 1.399 . S
C828 C829 1.376 . S
C829 H816 0.930 . S
C829 C828 1.376 . S
C829 C830 1.388 . S
C830 H817 0.930 . S
C830 C829 1.388 . S
C830 C831 1.390 . S
C831 C830 1.390 . S
C831 C832 1.394 . S
C831 C837 1.465 . S
C832 C827 1.399 . S
C832 C831 1.394 . S
C832 C833 1.516 . S
C833 C832 1.516 . S
C833 C834 1.502 . S
C833 C835 1.561 . S
C833 C836 1.526 . S
C834 H818 0.959 . S
C834 H819 0.959 . S
C834 H820 0.961 . S
C834 C833 1.502 . S
C835 H821 0.960 . S
C835 H822 0.961 . S
C835 H823 0.959 . S
C835 C833 1.561 . S
C836 C833 1.526 . S
C836 C837 1.396 . S
C836 C841 1.390 . S
C837 C831 1.465 . S
C837 C836 1.396 . S
C837 C838 1.399 . S
C838 H824 0.929 . S
C838 C837 1.399 . S
C838 C839 1.385 . S
C839 H825 0.931 . S
C839 C838 1.385 . S
C839 C840 1.389 . S
C840 C839 1.389 . S
C840 C841 1.387 . S
C841 H826 0.930 . S
C841 C836 1.390 . S
C841 C840 1.387 . S
H842 C854 0.930 . S
H843 C856 0.930 . S
H844 C857 0.930 . S
H845 C861 0.959 . S
H846 C861 0.959 . S
H847 C861 0.961 . S
H848 C862 0.960 . S
H849 C862 0.961 . S
H850 C862 0.959 . S
H851 C865 0.929 . S
H852 C866 0.931 . S
H853 C868 0.930 . S
C854 H842 0.930 . S
C854 C855 1.399 . S
C854 C859 1.399 . S
C855 C854 1.399 . S
C855 C856 1.376 . S
C856 H843 0.930 . S
C856 C855 1.376 . S
C856 C857 1.388 . S
C857 H844 0.930 . S
C857 C856 1.388 . S
C857 C858 1.390 . S
C858 C857 1.390 . S
C858 C859 1.394 . S
C858 C864 1.465 . S
C859 C854 1.399 . S
C859 C858 1.394 . S
C859 C860 1.516 . S
C860 C859 1.516 . S
C860 C861 1.502 . S
C860 C862 1.561 . S
C860 C863 1.526 . S
C861 H845 0.959 . S
C861 H846 0.959 . S
C861 H847 0.961 . S
C861 C860 1.502 . S
C862 H848 0.960 . S
C862 H849 0.961 . S
C862 H850 0.959 . S
C862 C860 1.561 . S
C863 C860 1.526 . S
C863 C864 1.396 . S
C863 C868 1.390 . S
C864 C858 1.465 . S
C864 C863 1.396 . S
C864 C865 1.399 . S
C865 H851 0.929 . S
C865 C864 1.399 . S
C865 C866 1.385 . S
C866 H852 0.931 . S
C866 C865 1.385 . S
C866 C867 1.389 . S
C867 C866 1.389 . S
C867 C868 1.387 . S
C868 H853 0.930 . S
C868 C863 1.390 . S
C868 C867 1.387 . S
H869 C881 0.930 . S
H870 C883 0.930 . S
H871 C884 0.930 . S
H872 C888 0.959 . S
H873 C888 0.959 . S
H874 C888 0.961 1_455 S
H875 C889 0.960 1_455 S
H876 C889 0.961 . S
H877 C889 0.959 . S
H878 C892 0.929 . S
H879 C893 0.931 . S
H880 C895 0.930 . S
C881 H869 0.930 . S
C881 C882 1.399 . S
C881 C886 1.399 . S
C882 C881 1.399 . S
C882 C883 1.376 . S
C883 H870 0.930 . S
C883 C882 1.376 . S
C883 C884 1.388 . S
C884 H871 0.930 . S
C884 C883 1.388 . S
C884 C885 1.390 . S
C885 C884 1.390 . S
C885 C886 1.394 . S
C885 C891 1.465 1_455 S
C886 C881 1.399 . S
C886 C885 1.394 . S
C886 C887 1.516 1_455 S
C887 C886 1.516 1_655 S
C887 C888 1.502 . S
C887 C889 1.561 . S
C887 C890 1.526 . S
C888 H872 0.959 . S
C888 H873 0.959 . S
C888 H874 0.961 1_655 S
C888 C887 1.502 . S
C889 H875 0.960 1_655 S
C889 H876 0.961 . S
C889 H877 0.959 . S
C889 C887 1.561 . S
C890 C887 1.526 . S
C890 C891 1.396 . S
C890 C895 1.390 . S
C891 C885 1.465 1_655 S
C891 C890 1.396 . S
C891 C892 1.399 . S
C892 H878 0.929 . S
C892 C891 1.399 . S
C892 C893 1.385 . S
C893 H879 0.931 . S
C893 C892 1.385 . S
C893 C894 1.389 . S
C894 C893 1.389 . S
C894 C895 1.387 . S
C895 H880 0.930 . S
C895 C890 1.390 . S
C895 C894 1.387 . S
H896 C908 0.930 . S
H897 C910 0.930 . S
H898 C911 0.930 . S
H899 C915 0.949 1_554 S
H900 C915 0.959 . S
H901 C915 0.961 1_554 S
H902 C916 0.960 . S
H903 C916 0.961 . S
H904 C916 0.959 . S
H905 C919 0.929 . S
H906 C920 0.931 . S
H907 C922 0.930 . S
C908 H896 0.930 . S
C908 C909 1.399 . S
C908 C913 1.399 . S
C909 C908 1.399 . S
C909 C910 1.376 . S
C910 H897 0.930 . S
C910 C909 1.376 . S
C910 C911 1.388 . S
C911 H898 0.930 . S
C911 C910 1.388 . S
C911 C912 1.390 . S
C912 C911 1.390 . S
C912 C913 1.394 . S
C912 C918 1.465 1_554 S
C913 C908 1.399 . S
C913 C912 1.394 . S
C913 C914 1.516 1_554 S
C914 C913 1.516 1_556 S
C914 C915 1.502 . S
C914 C916 1.561 . S
C914 C917 1.526 . S
C915 H899 0.949 1_556 S
C915 H900 0.959 . S
C915 H901 0.961 1_556 S
C915 C914 1.502 . S
C916 H902 0.960 . S
C916 H903 0.961 . S
C916 H904 0.959 . S
C916 C914 1.561 . S
C917 C914 1.526 . S
C917 C918 1.396 . S
C917 C922 1.390 . S
C918 C912 1.465 1_556 S
C918 C917 1.396 . S
C918 C919 1.399 . S
C919 H905 0.929 . S
C919 C918 1.399 . S
C919 C920 1.385 . S
C920 H906 0.931 . S
C920 C919 1.385 . S
C920 C921 1.389 . S
C921 C920 1.389 . S
C921 C922 1.387 . S
C922 H907 0.930 . S
C922 C917 1.390 . S
C922 C921 1.387 . S
H923 C935 0.930 . S
H924 C937 0.930 . S
H925 C938 0.930 . S
H926 C942 0.959 1_554 S
H927 C942 0.959 . S
H928 C942 0.961 1_554 S
H929 C943 0.960 . S
H930 C943 0.961 . S
H931 C943 0.959 . S
H932 C946 0.929 . S
H933 C947 0.931 . S
H934 C949 0.930 . S
C935 H923 0.930 . S
C935 C936 1.399 . S
C935 C940 1.399 . S
C936 C935 1.399 . S
C936 C937 1.376 . S
C937 H924 0.930 . S
C937 C936 1.376 . S
C937 C938 1.388 . S
C938 H925 0.930 . S
C938 C937 1.388 . S
C938 C939 1.408 . S
C939 C938 1.408 . S
C939 C940 1.404 . S
C939 C945 1.437 1_554 S
C940 C935 1.399 . S
C940 C939 1.404 . S
C940 C941 1.516 1_554 S
C941 C940 1.516 1_556 S
C941 C942 1.502 . S
C941 C943 1.561 . S
C941 C944 1.526 . S
C942 H926 0.959 1_556 S
C942 H927 0.959 . S
C942 H928 0.961 1_556 S
C942 C941 1.502 . S
C943 H929 0.960 . S
C943 H930 0.961 . S
C943 H931 0.959 . S
C943 C941 1.561 . S
C944 C941 1.526 . S
C944 C945 1.396 . S
C944 C949 1.390 . S
C945 C939 1.437 1_556 S
C945 C944 1.396 . S
C945 C946 1.399 . S
C946 H932 0.929 . S
C946 C945 1.399 . S
C946 C947 1.385 . S
C947 H933 0.931 . S
C947 C946 1.385 . S
C947 C948 1.389 . S
C948 C947 1.389 . S
C948 C949 1.387 . S
C949 H934 0.930 . S
C949 C944 1.390 . S
C949 C948 1.387 . S
H950 C962 0.930 . S
H951 C964 0.930 . S
H952 C965 0.930 . S
H953 C969 0.959 . S
H954 C969 0.959 . S
H955 C969 0.961 . S
H956 C970 0.960 . S
H957 C970 0.961 . S
H958 C970 0.959 . S
H959 C973 0.929 . S
H960 C974 0.931 . S
H961 C976 0.930 . S
C962 H950 0.930 . S
C962 C963 1.399 . S
C962 C967 1.399 . S
C963 C962 1.399 . S
C963 C964 1.376 . S
C964 H951 0.930 . S
C964 C963 1.376 . S
C964 C965 1.388 . S
C965 H952 0.930 . S
C965 C964 1.388 . S
C965 C966 1.390 . S
C966 C965 1.390 . S
C966 C967 1.394 . S
C966 C972 1.465 . S
C967 C962 1.399 . S
C967 C966 1.394 . S
C967 C968 1.516 . S
C968 C967 1.516 . S
C968 C969 1.502 . S
C968 C970 1.561 . S
C968 C971 1.526 . S
C969 H953 0.959 . S
C969 H954 0.959 . S
C969 H955 0.961 . S
C969 C968 1.502 . S
C970 H956 0.960 . S
C970 H957 0.961 . S
C970 H958 0.959 . S
C970 C968 1.561 . S
C971 C968 1.526 . S
C971 C972 1.396 . S
C971 C976 1.390 . S
C972 C966 1.465 . S
C972 C971 1.396 . S
C972 C973 1.399 . S
C973 H959 0.929 . S
C973 C972 1.399 . S
C973 C974 1.385 . S
C974 H960 0.931 . S
C974 C973 1.385 . S
C974 C975 1.389 . S
C975 C974 1.389 . S
C975 C976 1.387 . S
C976 H961 0.930 . S
C976 C971 1.390 . S
C976 C975 1.387 . S
H977 C989 0.930 . S
H978 C991 0.930 . S
H979 C992 0.930 . S
H980 C996 0.959 . S
H981 C996 0.959 . S
H982 C996 0.961 . S
H983 C997 0.960 . S
H984 C997 0.961 . S
H985 C997 0.959 . S
H986 C1000 0.929 . S
H987 C1001 0.931 . S
H988 C1003 0.930 . S
C989 H977 0.930 . S
C989 C990 1.399 . S
C989 C994 1.399 . S
C990 C989 1.399 . S
C990 C991 1.376 . S
C991 H978 0.930 . S
C991 C990 1.376 . S
C991 C992 1.388 . S
C992 H979 0.930 . S
C992 C991 1.388 . S
C992 C993 1.390 . S
C993 C992 1.390 . S
C993 C994 1.394 . S
C993 C999 1.465 . S
C994 C989 1.399 . S
C994 C993 1.394 . S
C994 C995 1.516 . S
C995 C994 1.516 . S
C995 C996 1.502 . S
C995 C997 1.561 . S
C995 C998 1.526 . S
C996 H980 0.959 . S
C996 H981 0.959 . S
C996 H982 0.961 . S
C996 C995 1.502 . S
C997 H983 0.960 . S
C997 H984 0.961 . S
C997 H985 0.959 . S
C997 C995 1.561 . S
C998 C995 1.526 . S
C998 C999 1.396 . S
C998 C1003 1.390 . S
C999 C993 1.465 . S
C999 C998 1.396 . S
C999 C1000 1.399 . S
C1000 H986 0.929 . S
C1000 C999 1.399 . S
C1000 C1001 1.385 . S
C1001 H987 0.931 . S
C1001 C1000 1.385 . S
C1001 C1002 1.389 . S
C1002 C1001 1.389 . S
C1002 C1003 1.387 . S
C1003 H988 0.930 . S
C1003 C998 1.390 . S
C1003 C1002 1.387 . S
H1004 C1016 0.930 . S
H1005 C1018 0.930 . S
H1006 C1019 0.930 . S
H1007 C1023 0.959 . S
H1008 C1023 0.959 . S
H1009 C1023 0.961 . S
H1010 C1024 0.960 1_556 S
H1011 C1024 0.961 . S
H1012 C1024 0.943 1_556 S
H1013 C1027 0.929 . S
H1014 C1028 0.931 . S
H1015 C1030 0.930 . S
C1016 H1004 0.930 . S
C1016 C1017 1.399 . S
C1016 C1021 1.399 . S
C1017 C1016 1.399 . S
C1017 C1018 1.376 . S
C1018 H1005 0.930 . S
C1018 C1017 1.376 . S
C1018 C1019 1.388 . S
C1019 H1006 0.930 . S
C1019 C1018 1.388 . S
C1019 C1020 1.390 . S
C1020 C1019 1.390 . S
C1020 C1021 1.394 . S
C1020 C1026 1.465 1_556 S
C1021 C1016 1.399 . S
C1021 C1020 1.394 . S
C1021 C1022 1.516 1_556 S
C1022 C1021 1.516 1_554 S
C1022 C1023 1.502 . S
C1022 C1024 1.561 . S
C1022 C1025 1.526 . S
C1023 H1007 0.959 . S
C1023 H1008 0.959 . S
C1023 H1009 0.961 . S
C1023 C1022 1.502 . S
C1024 H1010 0.960 1_554 S
C1024 H1011 0.961 . S
C1024 H1012 0.943 1_554 S
C1024 C1022 1.561 . S
C1025 C1022 1.526 . S
C1025 C1026 1.396 . S
C1025 C1030 1.390 . S
C1026 C1020 1.465 1_554 S
C1026 C1025 1.396 . S
C1026 C1027 1.399 . S
C1027 H1013 0.929 . S
C1027 C1026 1.399 . S
C1027 C1028 1.385 . S
C1028 H1014 0.931 . S
C1028 C1027 1.385 . S
C1028 C1029 1.389 . S
C1029 C1028 1.389 . S
C1029 C1030 1.387 . S
C1030 H1015 0.930 . S
C1030 C1025 1.390 . S
C1030 C1029 1.387 . S
H1031 C1043 0.930 . S
H1032 C1045 0.930 . S
H1033 C1046 0.930 . S
H1034 C1050 0.959 . S
H1035 C1050 0.959 . S
H1036 C1050 0.961 . S
H1037 C1051 0.960 . S
H1038 C1051 0.961 . S
H1039 C1051 0.959 . S
H1040 C1054 0.929 . S
H1041 C1055 0.931 . S
H1042 C1057 0.930 . S
C1043 H1031 0.930 . S
C1043 C1044 1.399 . S
C1043 C1048 1.399 . S
C1044 C1043 1.399 . S
C1044 C1045 1.376 . S
C1045 H1032 0.930 . S
C1045 C1044 1.376 . S
C1045 C1046 1.388 . S
C1046 H1033 0.930 . S
C1046 C1045 1.388 . S
C1046 C1047 1.390 . S
C1047 C1046 1.390 . S
C1047 C1048 1.394 . S
C1047 C1053 1.465 1_556 S
C1048 C1043 1.399 . S
C1048 C1047 1.394 . S
C1048 C1049 1.516 1_556 S
C1049 C1048 1.516 1_554 S
C1049 C1050 1.502 . S
C1049 C1051 1.561 . S
C1049 C1052 1.526 . S
C1050 H1034 0.959 . S
C1050 H1035 0.959 . S
C1050 H1036 0.961 . S
C1050 C1049 1.502 . S
C1051 H1037 0.960 . S
C1051 H1038 0.961 . S
C1051 H1039 0.959 . S
C1051 C1049 1.561 . S
C1052 C1049 1.526 . S
C1052 C1053 1.396 . S
C1052 C1057 1.390 . S
C1053 C1047 1.465 1_554 S
C1053 C1052 1.396 . S
C1053 C1054 1.399 . S
C1054 H1040 0.929 . S
C1054 C1053 1.399 . S
C1054 C1055 1.385 . S
C1055 H1041 0.931 . S
C1055 C1054 1.385 . S
C1055 C1056 1.389 . S
C1056 C1055 1.389 . S
C1056 C1057 1.387 . S
C1057 H1042 0.930 . S
C1057 C1052 1.390 . S
C1057 C1056 1.387 . S
H1058 C1070 0.930 . S
H1059 C1072 0.930 . S
H1060 C1073 0.930 . S
H1061 C1077 0.959 . S
H1062 C1077 0.959 . S
H1063 C1077 0.961 . S
H1064 C1078 0.960 . S
H1065 C1078 0.961 . S
H1066 C1078 0.959 . S
H1067 C1081 0.929 . S
H1068 C1082 0.931 . S
H1069 C1084 0.930 . S
C1070 H1058 0.930 . S
C1070 C1071 1.399 . S
C1070 C1075 1.399 . S
C1071 C1070 1.399 . S
C1071 C1072 1.376 . S
C1072 H1059 0.930 . S
C1072 C1071 1.376 . S
C1072 C1073 1.388 . S
C1073 H1060 0.930 . S
C1073 C1072 1.388 . S
C1073 C1074 1.390 . S
C1074 C1073 1.390 . S
C1074 C1075 1.394 . S
C1074 C1080 1.465 . S
C1075 C1070 1.399 . S
C1075 C1074 1.394 . S
C1075 C1076 1.516 . S
C1076 C1075 1.516 . S
C1076 C1077 1.502 . S
C1076 C1078 1.561 . S
C1076 C1079 1.526 . S
C1077 H1061 0.959 . S
C1077 H1062 0.959 . S
C1077 H1063 0.961 . S
C1077 C1076 1.502 . S
C1078 H1064 0.960 . S
C1078 H1065 0.961 . S
C1078 H1066 0.959 . S
C1078 C1076 1.561 . S
C1079 C1076 1.526 . S
C1079 C1080 1.396 . S
C1079 C1084 1.390 . S
C1080 C1074 1.465 . S
C1080 C1079 1.396 . S
C1080 C1081 1.399 . S
C1081 H1067 0.929 . S
C1081 C1080 1.399 . S
C1081 C1082 1.385 . S
C1082 H1068 0.931 . S
C1082 C1081 1.385 . S
C1082 C1083 1.389 . S
C1083 C1082 1.389 . S
C1083 C1084 1.387 . S
C1084 H1069 0.930 . S
C1084 C1079 1.390 . S
C1084 C1083 1.387 . S
H1085 C1097 0.930 . S
H1086 C1099 0.930 . S
H1087 C1100 0.930 . S
H1088 C1104 0.959 . S
H1089 C1104 0.959 . S
H1090 C1104 0.961 . S
H1091 C1105 0.960 . S
H1092 C1105 0.961 . S
H1093 C1105 0.959 . S
H1094 C1108 0.929 . S
H1095 C1109 0.931 . S
H1096 C1111 0.930 . S
C1097 H1085 0.930 . S
C1097 C1098 1.399 . S
C1097 C1102 1.399 . S
C1098 C1097 1.399 . S
C1098 C1099 1.376 . S
C1099 H1086 0.930 . S
C1099 C1098 1.376 . S
C1099 C1100 1.388 . S
C1100 H1087 0.930 . S
C1100 C1099 1.388 . S
C1100 C1101 1.390 . S
C1101 C1100 1.390 . S
C1101 C1102 1.394 . S
C1101 C1107 1.465 . S
C1102 C1097 1.399 . S
C1102 C1101 1.394 . S
C1102 C1103 1.516 . S
C1103 C1102 1.516 . S
C1103 C1104 1.502 . S
C1103 C1105 1.561 . S
C1103 C1106 1.526 . S
C1104 H1088 0.959 . S
C1104 H1089 0.959 . S
C1104 H1090 0.961 . S
C1104 C1103 1.502 . S
C1105 H1091 0.960 . S
C1105 H1092 0.961 . S
C1105 H1093 0.959 . S
C1105 C1103 1.561 . S
C1106 C1103 1.526 . S
C1106 C1107 1.396 . S
C1106 C1111 1.390 . S
C1107 C1101 1.465 . S
C1107 C1106 1.396 . S
C1107 C1108 1.399 . S
C1108 H1094 0.929 . S
C1108 C1107 1.399 . S
C1108 C1109 1.385 . S
C1109 H1095 0.931 . S
C1109 C1108 1.385 . S
C1109 C1110 1.389 . S
C1110 C1109 1.389 . S
C1110 C1111 1.387 . S
C1111 H1096 0.930 . S
C1111 C1106 1.390 . S
C1111 C1110 1.387 . S
H1112 C1124 0.930 . S
H1113 C1126 0.930 . S
H1114 C1127 0.930 . S
H1115 C1131 0.959 . S
H1116 C1131 0.959 . S
H1117 C1131 0.961 . S
H1118 C1132 0.960 . S
H1119 C1132 0.961 . S
H1120 C1132 0.959 . S
H1121 C1135 0.929 . S
H1122 C1136 0.931 . S
H1123 C1138 0.930 . S
C1124 H1112 0.930 . S
C1124 C1125 1.399 . S
C1124 C1129 1.399 . S
C1125 C1124 1.399 . S
C1125 C1126 1.376 . S
C1126 H1113 0.930 . S
C1126 C1125 1.376 . S
C1126 C1127 1.388 . S
C1127 H1114 0.930 . S
C1127 C1126 1.388 . S
C1127 C1128 1.390 . S
C1128 C1127 1.390 . S
C1128 C1129 1.394 . S
C1128 C1134 1.465 1_554 S
C1129 C1124 1.399 . S
C1129 C1128 1.394 . S
C1129 C1130 1.516 1_554 S
C1130 C1129 1.516 1_556 S
C1130 C1131 1.502 . S
C1130 C1132 1.561 . S
C1130 C1133 1.526 . S
C1131 H1115 0.959 . S
C1131 H1116 0.959 . S
C1131 H1117 0.961 . S
C1131 C1130 1.502 . S
C1132 H1118 0.960 . S
C1132 H1119 0.961 . S
C1132 H1120 0.959 . S
C1132 C1130 1.561 . S
C1133 C1130 1.526 . S
C1133 C1134 1.396 . S
C1133 C1138 1.390 . S
C1134 C1128 1.465 1_556 S
C1134 C1133 1.396 . S
C1134 C1135 1.399 . S
C1135 H1121 0.929 . S
C1135 C1134 1.399 . S
C1135 C1136 1.385 . S
C1136 H1122 0.931 . S
C1136 C1135 1.385 . S
C1136 C1137 1.389 . S
C1137 C1136 1.389 . S
C1137 C1138 1.387 . S
C1138 H1123 0.930 . S
C1138 C1133 1.390 . S
C1138 C1137 1.387 . S
H1139 C1151 0.930 . S
H1140 C1153 0.930 . S
H1141 C1154 0.930 . S
H1142 C1158 0.959 . S
H1143 C1158 0.959 . S
H1144 C1158 0.961 . S
H1145 C1159 0.960 . S
H1146 C1159 0.961 . S
H1147 C1159 0.959 . S
H1148 C1162 0.929 . S
H1149 C1163 0.931 . S
H1150 C1165 0.930 . S
C1151 H1139 0.930 . S
C1151 C1152 1.399 . S
C1151 C1156 1.399 . S
C1152 C1151 1.399 . S
C1152 C1153 1.376 . S
C1153 H1140 0.930 . S
C1153 C1152 1.376 . S
C1153 C1154 1.388 . S
C1154 H1141 0.930 . S
C1154 C1153 1.388 . S
C1154 C1155 1.390 . S
C1155 C1154 1.390 . S
C1155 C1156 1.394 . S
C1155 C1161 1.465 1_556 S
C1156 C1151 1.399 . S
C1156 C1155 1.394 . S
C1156 C1157 1.516 . S
C1157 C1156 1.516 . S
C1157 C1158 1.502 . S
C1157 C1159 1.561 . S
C1157 C1160 1.526 1_556 S
C1158 H1142 0.959 . S
C1158 H1143 0.959 . S
C1158 H1144 0.961 . S
C1158 C1157 1.502 . S
C1159 H1145 0.960 . S
C1159 H1146 0.961 . S
C1159 H1147 0.959 . S
C1159 C1157 1.561 . S
C1160 C1157 1.526 1_554 S
C1160 C1161 1.396 . S
C1160 C1165 1.390 . S
C1161 C1155 1.465 1_554 S
C1161 C1160 1.396 . S
C1161 C1162 1.399 . S
C1162 H1148 0.929 . S
C1162 C1161 1.399 . S
C1162 C1163 1.385 . S
C1163 H1149 0.931 . S
C1163 C1162 1.385 . S
C1163 C1164 1.389 . S
C1164 C1163 1.389 . S
C1164 C1165 1.387 . S
C1165 H1150 0.930 . S
C1165 C1160 1.390 . S
C1165 C1164 1.387 . S
H1166 C1178 0.930 . S
H1167 C1180 0.930 . S
H1168 C1181 0.930 . S
H1169 C1185 0.959 . S
H1170 C1185 0.959 . S
H1171 C1185 0.961 . S
H1172 C1186 0.960 . S
H1173 C1186 0.961 . S
H1174 C1186 0.959 . S
H1175 C1189 0.929 . S
H1176 C1190 0.931 . S
H1177 C1192 0.930 . S
C1178 H1166 0.930 . S
C1178 C1179 1.399 . S
C1178 C1183 1.399 . S
C1179 C1178 1.399 . S
C1179 C1180 1.376 . S
C1180 H1167 0.930 . S
C1180 C1179 1.376 . S
C1180 C1181 1.388 . S
C1181 H1168 0.930 . S
C1181 C1180 1.388 . S
C1181 C1182 1.390 . S
C1182 C1181 1.390 . S
C1182 C1183 1.394 . S
C1182 C1188 1.465 . S
C1183 C1178 1.399 . S
C1183 C1182 1.394 . S
C1183 C1184 1.516 . S
C1184 C1183 1.516 . S
C1184 C1185 1.502 . S
C1184 C1186 1.561 . S
C1184 C1187 1.526 . S
C1185 H1169 0.959 . S
C1185 H1170 0.959 . S
C1185 H1171 0.961 . S
C1185 C1184 1.502 . S
C1186 H1172 0.960 . S
C1186 H1173 0.961 . S
C1186 H1174 0.959 . S
C1186 C1184 1.561 . S
C1187 C1184 1.526 . S
C1187 C1188 1.396 . S
C1187 C1192 1.390 . S
C1188 C1182 1.465 . S
C1188 C1187 1.396 . S
C1188 C1189 1.399 . S
C1189 H1175 0.929 . S
C1189 C1188 1.399 . S
C1189 C1190 1.385 . S
C1190 H1176 0.931 . S
C1190 C1189 1.385 . S
C1190 C1191 1.389 . S
C1191 C1190 1.389 . S
C1191 C1192 1.387 . S
C1192 H1177 0.930 . S
C1192 C1187 1.390 . S
C1192 C1191 1.387 . S
H1193 C1205 0.930 . S
H1194 C1207 0.930 . S
H1195 C1208 0.930 . S
H1196 C1212 0.959 . S
H1197 C1212 0.959 . S
H1198 C1212 0.961 . S
H1199 C1213 0.960 . S
H1200 C1213 0.961 . S
H1201 C1213 0.959 . S
H1202 C1216 0.929 . S
H1203 C1217 0.931 . S
H1204 C1219 0.930 . S
C1205 H1193 0.930 . S
C1205 C1206 1.399 . S
C1205 C1210 1.399 . S
C1206 C1205 1.399 . S
C1206 C1207 1.376 . S
C1207 H1194 0.930 . S
C1207 C1206 1.376 . S
C1207 C1208 1.388 . S
C1208 H1195 0.930 . S
C1208 C1207 1.388 . S
C1208 C1209 1.390 . S
C1209 C1208 1.390 . S
C1209 C1210 1.394 . S
C1209 C1215 1.465 . S
C1210 C1205 1.399 . S
C1210 C1209 1.394 . S
C1210 C1211 1.516 . S
C1211 C1210 1.516 . S
C1211 C1212 1.502 . S
C1211 C1213 1.561 . S
C1211 C1214 1.526 . S
C1212 H1196 0.959 . S
C1212 H1197 0.959 . S
C1212 H1198 0.961 . S
C1212 C1211 1.502 . S
C1213 H1199 0.960 . S
C1213 H1200 0.961 . S
C1213 H1201 0.959 . S
C1213 C1211 1.561 . S
C1214 C1211 1.526 . S
C1214 C1215 1.396 . S
C1214 C1219 1.390 . S
C1215 C1209 1.465 . S
C1215 C1214 1.396 . S
C1215 C1216 1.399 . S
C1216 H1202 0.929 . S
C1216 C1215 1.399 . S
C1216 C1217 1.385 . S
C1217 H1203 0.931 . S
C1217 C1216 1.385 . S
C1217 C1218 1.389 . S
C1218 C1217 1.389 . S
C1218 C1219 1.387 . S
C1219 H1204 0.930 . S
C1219 C1214 1.390 . S
C1219 C1218 1.387 . S
H1220 C1232 0.930 . S
H1221 C1234 0.930 . S
H1222 C1235 0.930 . S
H1223 C1239 0.959 . S
H1224 C1239 0.959 . S
H1225 C1239 0.961 . S
H1226 C1240 0.927 1_554 S
H1227 C1240 0.994 . S
H1228 C1240 0.979 . S
H1229 C1243 0.929 . S
H1230 C1244 0.931 . S
H1231 C1246 0.930 . S
C1232 H1220 0.930 . S
C1232 C1233 1.399 . S
C1232 C1237 1.399 . S
C1233 C1232 1.399 . S
C1233 C1234 1.376 . S
C1234 H1221 0.930 . S
C1234 C1233 1.376 . S
C1234 C1235 1.388 . S
C1235 H1222 0.930 . S
C1235 C1234 1.388 . S
C1235 C1236 1.390 . S
C1236 C1235 1.390 . S
C1236 C1237 1.394 . S
C1236 C1242 1.465 1_554 S
C1237 C1232 1.399 . S
C1237 C1236 1.394 . S
C1237 C1238 1.516 . S
C1238 C1237 1.516 . S
C1238 C1239 1.502 . S
C1238 C1240 1.545 1_554 S
C1238 C1241 1.526 1_554 S
C1239 H1223 0.959 . S
C1239 H1224 0.959 . S
C1239 H1225 0.961 . S
C1239 C1238 1.502 . S
C1240 H1226 0.927 1_556 S
C1240 H1227 0.994 . S
C1240 H1228 0.979 . S
C1240 C1238 1.545 1_556 S
C1241 C1238 1.526 1_556 S
C1241 C1242 1.396 . S
C1241 C1246 1.390 . S
C1242 C1236 1.465 1_556 S
C1242 C1241 1.396 . S
C1242 C1243 1.399 . S
C1243 H1229 0.929 . S
C1243 C1242 1.399 . S
C1243 C1244 1.385 . S
C1244 H1230 0.931 . S
C1244 C1243 1.385 . S
C1244 C1245 1.389 . S
C1245 C1244 1.389 . S
C1245 C1246 1.387 . S
C1246 H1231 0.930 . S
C1246 C1241 1.390 . S
C1246 C1245 1.387 . S
H1247 C1259 0.930 . S
H1248 C1261 0.930 . S
H1249 C1262 0.930 . S
H1250 C1266 0.959 . S
H1251 C1266 0.959 . S
H1252 C1266 0.961 . S
H1253 C1267 0.960 . S
H1254 C1267 0.961 . S
H1255 C1267 0.959 . S
H1256 C1270 0.929 . S
H1257 C1271 0.931 . S
H1258 C1273 0.930 . S
C1259 H1247 0.930 . S
C1259 C1260 1.399 . S
C1259 C1264 1.399 . S
C1260 C1259 1.399 . S
C1260 C1261 1.376 . S
C1261 H1248 0.930 . S
C1261 C1260 1.376 . S
C1261 C1262 1.388 . S
C1262 H1249 0.930 . S
C1262 C1261 1.388 . S
C1262 C1263 1.390 . S
C1263 C1262 1.390 . S
C1263 C1264 1.394 . S
C1263 C1269 1.465 1_556 S
C1264 C1259 1.399 . S
C1264 C1263 1.394 . S
C1264 C1265 1.516 1_556 S
C1265 C1264 1.516 1_554 S
C1265 C1266 1.502 . S
C1265 C1267 1.561 . S
C1265 C1268 1.526 . S
C1266 H1250 0.959 . S
C1266 H1251 0.959 . S
C1266 H1252 0.961 . S
C1266 C1265 1.502 . S
C1267 H1253 0.960 . S
C1267 H1254 0.961 . S
C1267 H1255 0.959 . S
C1267 C1265 1.561 . S
C1268 C1265 1.526 . S
C1268 C1269 1.396 . S
C1268 C1273 1.390 . S
C1269 C1263 1.465 1_554 S
C1269 C1268 1.396 . S
C1269 C1270 1.399 . S
C1270 H1256 0.929 . S
C1270 C1269 1.399 . S
C1270 C1271 1.385 . S
C1271 H1257 0.931 . S
C1271 C1270 1.385 . S
C1271 C1272 1.389 . S
C1272 C1271 1.389 . S
C1272 C1273 1.387 . S
C1273 H1258 0.930 . S
C1273 C1268 1.390 . S
C1273 C1272 1.387 . S
H1274 C1286 0.930 . S
H1275 C1288 0.930 . S
H1276 C1289 0.930 . S
H1277 C1293 0.959 . S
H1278 C1293 0.959 . S
H1279 C1293 0.961 . S
H1280 C1294 0.960 . S
H1281 C1294 0.961 . S
H1282 C1294 0.959 . S
H1283 C1297 0.929 . S
H1284 C1298 0.931 . S
H1285 C1300 0.930 . S
C1286 H1274 0.930 . S
C1286 C1287 1.399 . S
C1286 C1291 1.399 . S
C1287 C1286 1.399 . S
C1287 C1288 1.376 . S
C1288 H1275 0.930 . S
C1288 C1287 1.376 . S
C1288 C1289 1.388 . S
C1289 H1276 0.930 . S
C1289 C1288 1.388 . S
C1289 C1290 1.390 . S
C1290 C1289 1.390 . S
C1290 C1291 1.394 . S
C1290 C1296 1.465 . S
C1291 C1286 1.399 . S
C1291 C1290 1.394 . S
C1291 C1292 1.516 . S
C1292 C1291 1.516 . S
C1292 C1293 1.502 . S
C1292 C1294 1.561 . S
C1292 C1295 1.526 . S
C1293 H1277 0.959 . S
C1293 H1278 0.959 . S
C1293 H1279 0.961 . S
C1293 C1292 1.502 . S
C1294 H1280 0.960 . S
C1294 H1281 0.961 . S
C1294 H1282 0.959 . S
C1294 C1292 1.561 . S
C1295 C1292 1.526 . S
C1295 C1296 1.396 . S
C1295 C1300 1.390 . S
C1296 C1290 1.465 . S
C1296 C1295 1.396 . S
C1296 C1297 1.399 . S
C1297 H1283 0.929 . S
C1297 C1296 1.399 . S
C1297 C1298 1.385 . S
C1298 H1284 0.931 . S
C1298 C1297 1.385 . S
C1298 C1299 1.389 . S
C1299 C1298 1.389 . S
C1299 C1300 1.387 . S
C1300 H1285 0.930 . S
C1300 C1295 1.390 . S
C1300 C1299 1.387 . S
H1301 C1313 0.930 . S
H1302 C1315 0.930 . S
H1303 C1316 0.930 . S
H1304 C1320 0.959 . S
H1305 C1320 0.959 . S
H1306 C1320 0.961 . S
H1307 C1321 0.960 . S
H1308 C1321 0.961 . S
H1309 C1321 0.959 . S
H1310 C1324 0.929 . S
H1311 C1325 0.931 . S
H1312 C1327 0.930 . S
C1313 H1301 0.930 . S
C1313 C1314 1.399 . S
C1313 C1318 1.399 . S
C1314 C1313 1.399 . S
C1314 C1315 1.376 . S
C1315 H1302 0.930 . S
C1315 C1314 1.376 . S
C1315 C1316 1.388 . S
C1316 H1303 0.930 . S
C1316 C1315 1.388 . S
C1316 C1317 1.390 . S
C1317 C1316 1.390 . S
C1317 C1318 1.394 . S
C1317 C1323 1.465 . S
C1318 C1313 1.399 . S
C1318 C1317 1.394 . S
C1318 C1319 1.516 . S
C1319 C1318 1.516 . S
C1319 C1320 1.502 . S
C1319 C1321 1.561 . S
C1319 C1322 1.526 . S
C1320 H1304 0.959 . S
C1320 H1305 0.959 . S
C1320 H1306 0.961 . S
C1320 C1319 1.502 . S
C1321 H1307 0.960 . S
C1321 H1308 0.961 . S
C1321 H1309 0.959 . S
C1321 C1319 1.561 . S
C1322 C1319 1.526 . S
C1322 C1323 1.396 . S
C1322 C1327 1.390 . S
C1323 C1317 1.465 . S
C1323 C1322 1.396 . S
C1323 C1324 1.399 . S
C1324 H1310 0.929 . S
C1324 C1323 1.399 . S
C1324 C1325 1.385 . S
C1325 H1311 0.931 . S
C1325 C1324 1.385 . S
C1325 C1326 1.389 . S
C1326 C1325 1.389 . S
C1326 C1327 1.387 . S
C1327 H1312 0.930 . S
C1327 C1322 1.390 . S
C1327 C1326 1.387 . S
H1328 C1340 0.930 . S
H1329 C1342 0.930 . S
H1330 C1343 0.930 . S
H1331 C1347 0.959 . S
H1332 C1347 0.959 . S
H1333 C1347 0.961 . S
H1334 C1348 0.960 . S
H1335 C1348 0.961 . S
H1336 C1348 0.959 . S
H1337 C1351 0.929 1_545 S
H1338 C1352 0.931 . S
H1339 C1354 0.930 . S
C1340 H1328 0.930 . S
C1340 C1341 1.399 . S
C1340 C1345 1.399 . S
C1341 C1340 1.399 . S
C1341 C1342 1.376 . S
C1342 H1329 0.930 . S
C1342 C1341 1.376 . S
C1342 C1343 1.388 . S
C1343 H1330 0.930 . S
C1343 C1342 1.388 . S
C1343 C1344 1.390 . S
C1344 C1343 1.390 . S
C1344 C1345 1.394 . S
C1344 C1350 1.465 1_545 S
C1345 C1340 1.399 . S
C1345 C1344 1.394 . S
C1345 C1346 1.516 1_545 S
C1346 C1345 1.516 1_565 S
C1346 C1347 1.502 . S
C1346 C1348 1.561 . S
C1346 C1349 1.526 . S
C1347 H1331 0.959 . S
C1347 H1332 0.959 . S
C1347 H1333 0.961 . S
C1347 C1346 1.502 . S
C1348 H1334 0.960 . S
C1348 H1335 0.961 . S
C1348 H1336 0.959 . S
C1348 C1346 1.561 . S
C1349 C1346 1.526 . S
C1349 C1350 1.396 . S
C1349 C1354 1.390 . S
C1350 C1344 1.465 1_565 S
C1350 C1349 1.396 . S
C1350 C1351 1.399 . S
C1351 H1337 0.929 1_565 S
C1351 C1350 1.399 . S
C1351 C1352 1.385 . S
C1352 H1338 0.931 . S
C1352 C1351 1.385 . S
C1352 C1353 1.389 . S
C1353 C1352 1.389 . S
C1353 C1354 1.387 . S
C1354 H1339 0.930 . S
C1354 C1349 1.390 . S
C1354 C1353 1.387 . S
H1355 C1367 0.930 . S
H1356 C1369 0.930 . S
H1357 C1370 0.930 1_565 S
H1358 C1374 0.959 . S
H1359 C1374 0.959 . S
H1360 C1374 0.961 . S
H1361 C1375 0.960 . S
H1362 C1375 0.961 . S
H1363 C1375 0.959 . S
H1364 C1378 0.929 . S
H1365 C1379 0.931 . S
H1366 C1381 0.930 . S
C1367 H1355 0.930 . S
C1367 C1368 1.399 . S
C1367 C1372 1.399 . S
C1368 C1367 1.399 . S
C1368 C1369 1.376 . S
C1369 H1356 0.930 . S
C1369 C1368 1.376 . S
C1369 C1370 1.388 . S
C1370 H1357 0.930 1_545 S
C1370 C1369 1.388 . S
C1370 C1371 1.390 . S
C1371 C1370 1.390 . S
C1371 C1372 1.394 . S
C1371 C1377 1.465 1_545 S
C1372 C1367 1.399 . S
C1372 C1371 1.394 . S
C1372 C1373 1.516 . S
C1373 C1372 1.516 . S
C1373 C1374 1.502 . S
C1373 C1375 1.561 . S
C1373 C1376 1.526 1_545 S
C1374 H1358 0.959 . S
C1374 H1359 0.959 . S
C1374 H1360 0.961 . S
C1374 C1373 1.502 . S
C1375 H1361 0.960 . S
C1375 H1362 0.961 . S
C1375 H1363 0.959 . S
C1375 C1373 1.561 . S
C1376 C1373 1.526 1_565 S
C1376 C1377 1.396 . S
C1376 C1381 1.390 . S
C1377 C1371 1.465 1_565 S
C1377 C1376 1.396 . S
C1377 C1378 1.399 . S
C1378 H1364 0.929 . S
C1378 C1377 1.399 . S
C1378 C1379 1.385 . S
C1379 H1365 0.931 . S
C1379 C1378 1.385 . S
C1379 C1380 1.389 . S
C1380 C1379 1.389 . S
C1380 C1381 1.387 . S
C1381 H1366 0.930 . S
C1381 C1376 1.390 . S
C1381 C1380 1.387 . S
H1382 C1394 0.930 . S
H1383 C1396 0.930 . S
H1384 C1397 0.930 1_545 S
H1385 C1401 0.959 . S
H1386 C1401 0.959 . S
H1387 C1401 0.961 . S
H1388 C1402 0.960 . S
H1389 C1402 0.961 . S
H1390 C1402 0.959 . S
H1391 C1405 0.929 . S
H1392 C1406 0.931 . S
H1393 C1408 0.930 . S
C1394 H1382 0.930 . S
C1394 C1395 1.399 . S
C1394 C1399 1.399 . S
C1395 C1394 1.399 . S
C1395 C1396 1.376 . S
C1396 H1383 0.930 . S
C1396 C1395 1.376 . S
C1396 C1397 1.388 . S
C1397 H1384 0.930 1_565 S
C1397 C1396 1.388 . S
C1397 C1398 1.390 . S
C1398 C1397 1.390 . S
C1398 C1399 1.394 . S
C1398 C1404 1.465 1_565 S
C1399 C1394 1.399 . S
C1399 C1398 1.394 . S
C1399 C1400 1.516 . S
C1400 C1399 1.516 . S
C1400 C1401 1.502 . S
C1400 C1402 1.561 . S
C1400 C1403 1.526 1_565 S
C1401 H1385 0.959 . S
C1401 H1386 0.959 . S
C1401 H1387 0.961 . S
C1401 C1400 1.502 . S
C1402 H1388 0.960 . S
C1402 H1389 0.961 . S
C1402 H1390 0.959 . S
C1402 C1400 1.561 . S
C1403 C1400 1.526 1_545 S
C1403 C1404 1.396 . S
C1403 C1408 1.390 . S
C1404 C1398 1.465 1_545 S
C1404 C1403 1.396 . S
C1404 C1405 1.399 . S
C1405 H1391 0.929 . S
C1405 C1404 1.399 . S
C1405 C1406 1.385 . S
C1406 H1392 0.931 . S
C1406 C1405 1.385 . S
C1406 C1407 1.389 . S
C1407 C1406 1.389 . S
C1407 C1408 1.387 . S
C1408 H1393 0.930 . S
C1408 C1403 1.390 . S
C1408 C1407 1.387 . S
H1409 C1421 0.930 . S
H1410 C1423 0.930 . S
H1411 C1424 0.930 . S
H1412 C1428 0.959 . S
H1413 C1428 0.959 . S
H1414 C1428 0.961 . S
H1415 C1429 0.960 . S
H1416 C1429 0.961 1_545 S
H1417 C1429 0.959 . S
H1418 C1432 0.929 . S
H1419 C1433 0.931 . S
H1420 C1435 0.930 . S
C1421 H1409 0.930 . S
C1421 C1422 1.399 . S
C1421 C1426 1.399 . S
C1422 C1421 1.399 . S
C1422 C1423 1.376 . S
C1423 H1410 0.930 . S
C1423 C1422 1.376 . S
C1423 C1424 1.388 . S
C1424 H1411 0.930 . S
C1424 C1423 1.388 . S
C1424 C1425 1.390 . S
C1425 C1424 1.390 . S
C1425 C1426 1.394 . S
C1425 C1431 1.465 1_565 S
C1426 C1421 1.399 . S
C1426 C1425 1.394 . S
C1426 C1427 1.516 1_565 S
C1427 C1426 1.516 1_545 S
C1427 C1428 1.502 . S
C1427 C1429 1.561 1_545 S
C1427 C1430 1.526 . S
C1428 H1412 0.959 . S
C1428 H1413 0.959 . S
C1428 H1414 0.961 . S
C1428 C1427 1.502 . S
C1429 H1415 0.960 . S
C1429 H1416 0.961 1_565 S
C1429 H1417 0.959 . S
C1429 C1427 1.561 1_565 S
C1430 C1427 1.526 . S
C1430 C1431 1.396 . S
C1430 C1435 1.390 . S
C1431 C1425 1.465 1_545 S
C1431 C1430 1.396 . S
C1431 C1432 1.399 . S
C1432 H1418 0.929 . S
C1432 C1431 1.399 . S
C1432 C1433 1.385 . S
C1433 H1419 0.931 . S
C1433 C1432 1.385 . S
C1433 C1434 1.389 . S
C1434 C1433 1.389 . S
C1434 C1435 1.387 . S
C1435 H1420 0.930 . S
C1435 C1430 1.390 . S
C1435 C1434 1.387 . S
H1436 C1448 0.930 . S
H1437 C1450 0.930 . S
H1438 C1451 0.930 . S
H1439 C1455 0.959 . S
H1440 C1455 0.959 . S
H1441 C1455 0.961 . S
H1442 C1456 0.960 . S
H1443 C1456 0.961 . S
H1444 C1456 0.959 . S
H1445 C1459 0.929 . S
H1446 C1460 0.931 . S
H1447 C1462 0.930 . S
C1448 H1436 0.930 . S
C1448 C1449 1.399 . S
C1448 C1453 1.399 . S
C1449 C1448 1.399 . S
C1449 C1450 1.376 . S
C1450 H1437 0.930 . S
C1450 C1449 1.376 . S
C1450 C1451 1.388 . S
C1451 H1438 0.930 . S
C1451 C1450 1.388 . S
C1451 C1452 1.390 . S
C1452 C1451 1.390 . S
C1452 C1453 1.394 . S
C1452 C1458 1.465 . S
C1453 C1448 1.399 . S
C1453 C1452 1.394 . S
C1453 C1454 1.516 . S
C1454 C1453 1.516 . S
C1454 C1455 1.502 . S
C1454 C1456 1.561 . S
C1454 C1457 1.526 . S
C1455 H1439 0.959 . S
C1455 H1440 0.959 . S
C1455 H1441 0.961 . S
C1455 C1454 1.502 . S
C1456 H1442 0.960 . S
C1456 H1443 0.961 . S
C1456 H1444 0.959 . S
C1456 C1454 1.561 . S
C1457 C1454 1.526 . S
C1457 C1458 1.396 . S
C1457 C1462 1.390 . S
C1458 C1452 1.465 . S
C1458 C1457 1.396 . S
C1458 C1459 1.399 . S
C1459 H1445 0.929 . S
C1459 C1458 1.399 . S
C1459 C1460 1.385 . S
C1460 H1446 0.931 . S
C1460 C1459 1.385 . S
C1460 C1461 1.389 . S
C1461 C1460 1.389 . S
C1461 C1462 1.387 . S
C1462 H1447 0.930 . S
C1462 C1457 1.390 . S
C1462 C1461 1.387 . S
H1463 C1475 0.930 . S
H1464 C1477 0.930 . S
H1465 C1478 0.930 . S
H1466 C1482 0.959 . S
H1467 C1482 0.959 . S
H1468 C1482 0.961 . S
H1469 C1483 0.960 . S
H1470 C1483 0.961 . S
H1471 C1483 0.959 . S
H1472 C1486 0.929 . S
H1473 C1487 0.931 . S
H1474 C1489 0.930 . S
C1475 H1463 0.930 . S
C1475 C1476 1.399 . S
C1475 C1480 1.399 . S
C1476 C1475 1.399 . S
C1476 C1477 1.376 . S
C1477 H1464 0.930 . S
C1477 C1476 1.376 . S
C1477 C1478 1.388 . S
C1478 H1465 0.930 . S
C1478 C1477 1.388 . S
C1478 C1479 1.390 . S
C1479 C1478 1.390 . S
C1479 C1480 1.394 . S
C1479 C1485 1.465 . S
C1480 C1475 1.399 . S
C1480 C1479 1.394 . S
C1480 C1481 1.516 . S
C1481 C1480 1.516 . S
C1481 C1482 1.502 . S
C1481 C1483 1.561 . S
C1481 C1484 1.526 . S
C1482 H1466 0.959 . S
C1482 H1467 0.959 . S
C1482 H1468 0.961 . S
C1482 C1481 1.502 . S
C1483 H1469 0.960 . S
C1483 H1470 0.961 . S
C1483 H1471 0.959 . S
C1483 C1481 1.561 . S
C1484 C1481 1.526 . S
C1484 C1485 1.396 . S
C1484 C1489 1.390 . S
C1485 C1479 1.465 . S
C1485 C1484 1.396 . S
C1485 C1486 1.399 . S
C1486 H1472 0.929 . S
C1486 C1485 1.399 . S
C1486 C1487 1.385 . S
C1487 H1473 0.931 . S
C1487 C1486 1.385 . S
C1487 C1488 1.389 . S
C1488 C1487 1.389 . S
C1488 C1489 1.387 . S
C1489 H1474 0.930 . S
C1489 C1484 1.390 . S
C1489 C1488 1.387 . S
H1490 C1502 0.930 . S
H1491 C1504 0.930 . S
H1492 C1505 0.930 . S
H1493 C1509 0.959 . S
H1494 C1509 0.959 . S
H1495 C1509 0.961 . S
H1496 C1510 0.960 . S
H1497 C1510 0.961 . S
H1498 C1510 0.959 . S
H1499 C1513 0.929 . S
H1500 C1514 0.931 . S
H1501 C1516 0.930 . S
C1502 H1490 0.930 . S
C1502 C1503 1.399 . S
C1502 C1507 1.399 . S
C1503 C1502 1.399 . S
C1503 C1504 1.376 . S
C1504 H1491 0.930 . S
C1504 C1503 1.376 . S
C1504 C1505 1.388 . S
C1505 H1492 0.930 . S
C1505 C1504 1.388 . S
C1505 C1506 1.390 . S
C1506 C1505 1.390 . S
C1506 C1507 1.394 . S
C1506 C1512 1.465 . S
C1507 C1502 1.399 . S
C1507 C1506 1.394 . S
C1507 C1508 1.516 . S
C1508 C1507 1.516 . S
C1508 C1509 1.502 . S
C1508 C1510 1.561 . S
C1508 C1511 1.526 . S
C1509 H1493 0.959 . S
C1509 H1494 0.959 . S
C1509 H1495 0.961 . S
C1509 C1508 1.502 . S
C1510 H1496 0.960 . S
C1510 H1497 0.961 . S
C1510 H1498 0.959 . S
C1510 C1508 1.561 . S
C1511 C1508 1.526 . S
C1511 C1512 1.396 . S
C1511 C1516 1.390 . S
C1512 C1506 1.465 . S
C1512 C1511 1.396 . S
C1512 C1513 1.399 . S
C1513 H1499 0.929 . S
C1513 C1512 1.399 . S
C1513 C1514 1.385 . S
C1514 H1500 0.931 . S
C1514 C1513 1.385 . S
C1514 C1515 1.389 . S
C1515 C1514 1.389 . S
C1515 C1516 1.387 . S
C1516 H1501 0.930 . S
C1516 C1511 1.390 . S
C1516 C1515 1.387 . S
H1517 C1529 0.930 . S
H1518 C1531 0.930 . S
H1519 C1532 0.930 . S
H1520 C1536 0.959 . S
H1521 C1536 0.959 . S
H1522 C1536 0.961 . S
H1523 C1537 0.960 . S
H1524 C1537 0.961 . S
H1525 C1537 0.959 . S
H1526 C1540 0.929 . S
H1527 C1541 0.931 . S
H1528 C1543 0.930 . S
C1529 H1517 0.930 . S
C1529 C1530 1.399 . S
C1529 C1534 1.399 . S
C1530 C1529 1.399 . S
C1530 C1531 1.376 . S
C1531 H1518 0.930 . S
C1531 C1530 1.376 . S
C1531 C1532 1.388 . S
C1532 H1519 0.930 . S
C1532 C1531 1.388 . S
C1532 C1533 1.390 . S
C1533 C1532 1.390 . S
C1533 C1534 1.394 . S
C1533 C1539 1.465 . S
C1534 C1529 1.399 . S
C1534 C1533 1.394 . S
C1534 C1535 1.516 . S
C1535 C1534 1.516 . S
C1535 C1536 1.502 . S
C1535 C1537 1.561 . S
C1535 C1538 1.526 . S
C1536 H1520 0.959 . S
C1536 H1521 0.959 . S
C1536 H1522 0.961 . S
C1536 C1535 1.502 . S
C1537 H1523 0.960 . S
C1537 H1524 0.961 . S
C1537 H1525 0.959 . S
C1537 C1535 1.561 . S
C1538 C1535 1.526 . S
C1538 C1539 1.396 . S
C1538 C1543 1.390 . S
C1539 C1533 1.465 . S
C1539 C1538 1.396 . S
C1539 C1540 1.399 . S
C1540 H1526 0.929 . S
C1540 C1539 1.399 . S
C1540 C1541 1.385 . S
C1541 H1527 0.931 . S
C1541 C1540 1.385 . S
C1541 C1542 1.389 . S
C1542 C1541 1.389 . S
C1542 C1543 1.387 . S
C1543 H1528 0.930 . S
C1543 C1538 1.390 . S
C1543 C1542 1.387 . S
H1544 C1556 0.930 . S
H1545 C1558 0.930 . S
H1546 C1559 0.930 . S
H1547 C1563 0.959 . S
H1548 C1563 0.959 . S
H1549 C1563 0.961 . S
H1550 C1564 0.960 . S
H1551 C1564 0.961 . S
H1552 C1564 0.959 . S
H1553 C1567 0.929 . S
H1554 C1568 0.931 . S
H1555 C1570 0.930 . S
C1556 H1544 0.930 . S
C1556 C1557 1.399 1_655 S
C1556 C1561 1.399 1_655 S
C1557 C1556 1.399 1_455 S
C1557 C1558 1.376 . S
C1558 H1545 0.930 . S
C1558 C1557 1.376 . S
C1558 C1559 1.388 . S
C1559 H1546 0.930 . S
C1559 C1558 1.388 . S
C1559 C1560 1.390 . S
C1560 C1559 1.390 . S
C1560 C1561 1.394 . S
C1560 C1566 1.465 . S
C1561 C1556 1.399 1_455 S
C1561 C1560 1.394 . S
C1561 C1562 1.516 1_455 S
C1562 C1561 1.516 1_655 S
C1562 C1563 1.502 . S
C1562 C1564 1.561 1_655 S
C1562 C1565 1.526 . S
C1563 H1547 0.959 . S
C1563 H1548 0.959 . S
C1563 H1549 0.961 . S
C1563 C1562 1.502 . S
C1564 H1550 0.960 . S
C1564 H1551 0.961 . S
C1564 H1552 0.959 . S
C1564 C1562 1.561 1_455 S
C1565 C1562 1.526 . S
C1565 C1566 1.396 1_655 S
C1565 C1570 1.390 . S
C1566 C1560 1.465 . S
C1566 C1565 1.396 1_455 S
C1566 C1567 1.399 . S
C1567 H1553 0.929 . S
C1567 C1566 1.399 . S
C1567 C1568 1.385 . S
C1568 H1554 0.931 . S
C1568 C1567 1.385 . S
C1568 C1569 1.389 1_455 S
C1569 C1568 1.389 1_655 S
C1569 C1570 1.387 . S
C1570 H1555 0.930 . S
C1570 C1565 1.390 . S
C1570 C1569 1.387 . S
H1571 C1583 0.930 . S
H1572 C1585 0.930 . S
H1573 C1586 0.930 . S
H1574 C1590 0.959 . S
H1575 C1590 0.959 . S
H1576 C1590 0.961 . S
H1577 C1591 0.960 . S
H1578 C1591 0.961 . S
H1579 C1591 0.959 . S
H1580 C1594 0.929 . S
H1581 C1595 0.931 . S
H1582 C1597 0.930 . S
C1583 H1571 0.930 . S
C1583 C1584 1.399 . S
C1583 C1588 1.399 . S
C1584 C1583 1.399 . S
C1584 C1585 1.376 . S
C1585 H1572 0.930 . S
C1585 C1584 1.376 . S
C1585 C1586 1.388 . S
C1586 H1573 0.930 . S
C1586 C1585 1.388 . S
C1586 C1587 1.390 . S
C1587 C1586 1.390 . S
C1587 C1588 1.394 . S
C1587 C1593 1.465 . S
C1588 C1583 1.399 . S
C1588 C1587 1.394 . S
C1588 C1589 1.516 . S
C1589 C1588 1.516 . S
C1589 C1590 1.502 . S
C1589 C1591 1.561 . S
C1589 C1592 1.526 . S
C1590 H1574 0.959 . S
C1590 H1575 0.959 . S
C1590 H1576 0.961 . S
C1590 C1589 1.502 . S
C1591 H1577 0.960 . S
C1591 H1578 0.961 . S
C1591 H1579 0.959 . S
C1591 C1589 1.561 . S
C1592 C1589 1.526 . S
C1592 C1593 1.396 . S
C1592 C1597 1.390 . S
C1593 C1587 1.465 . S
C1593 C1592 1.396 . S
C1593 C1594 1.399 . S
C1594 H1580 0.929 . S
C1594 C1593 1.399 . S
C1594 C1595 1.385 . S
C1595 H1581 0.931 . S
C1595 C1594 1.385 . S
C1595 C1596 1.389 . S
C1596 C1595 1.389 . S
C1596 C1597 1.387 . S
C1597 H1582 0.930 . S
C1597 C1592 1.390 . S
C1597 C1596 1.387 . S
H1598 C1610 0.930 . S
H1599 C1612 0.930 . S
H1600 C1613 0.930 . S
H1601 C1617 0.959 . S
H1602 C1617 0.959 . S
H1603 C1617 0.961 . S
H1604 C1618 0.960 . S
H1605 C1618 0.961 . S
H1606 C1618 0.959 . S
H1607 C1621 0.929 . S
H1608 C1622 0.931 . S
H1609 C1624 0.930 . S
C1610 H1598 0.930 . S
C1610 C1611 1.399 . S
C1610 C1615 1.399 . S
C1611 C1610 1.399 . S
C1611 C1612 1.376 . S
C1612 H1599 0.930 . S
C1612 C1611 1.376 . S
C1612 C1613 1.388 . S
C1613 H1600 0.930 . S
C1613 C1612 1.388 . S
C1613 C1614 1.390 . S
C1614 C1613 1.390 . S
C1614 C1615 1.394 . S
C1614 C1620 1.465 . S
C1615 C1610 1.399 . S
C1615 C1614 1.394 . S
C1615 C1616 1.516 . S
C1616 C1615 1.516 . S
C1616 C1617 1.502 . S
C1616 C1618 1.561 . S
C1616 C1619 1.526 . S
C1617 H1601 0.959 . S
C1617 H1602 0.959 . S
C1617 H1603 0.961 . S
C1617 C1616 1.502 . S
C1618 H1604 0.960 . S
C1618 H1605 0.961 . S
C1618 H1606 0.959 . S
C1618 C1616 1.561 . S
C1619 C1616 1.526 . S
C1619 C1620 1.396 . S
C1619 C1624 1.390 . S
C1620 C1614 1.465 . S
C1620 C1619 1.396 . S
C1620 C1621 1.399 . S
C1621 H1607 0.929 . S
C1621 C1620 1.399 . S
C1621 C1622 1.385 . S
C1622 H1608 0.931 . S
C1622 C1621 1.385 . S
C1622 C1623 1.389 . S
C1623 C1622 1.389 . S
C1623 C1624 1.387 . S
C1624 H1609 0.930 . S
C1624 C1619 1.390 . S
C1624 C1623 1.387 . S
H1625 C1637 0.930 . S
H1626 C1639 0.930 . S
H1627 C1640 0.930 . S
H1628 C1644 0.959 . S
H1629 C1644 0.959 . S
H1630 C1644 0.961 . S
H1631 C1645 0.960 . S
H1632 C1645 0.961 . S
H1633 C1645 0.959 . S
H1634 C1648 0.929 . S
H1635 C1649 0.931 . S
H1636 C1651 0.930 . S
C1637 H1625 0.930 . S
C1637 C1638 1.399 1_655 S
C1637 C1642 1.399 . S
C1638 C1637 1.399 1_455 S
C1638 C1639 1.376 . S
C1639 H1626 0.930 . S
C1639 C1638 1.376 . S
C1639 C1640 1.388 . S
C1640 H1627 0.930 . S
C1640 C1639 1.388 . S
C1640 C1641 1.390 . S
C1641 C1640 1.390 . S
C1641 C1642 1.394 1_455 S
C1641 C1647 1.465 . S
C1642 C1637 1.399 . S
C1642 C1641 1.394 1_655 S
C1642 C1643 1.516 . S
C1643 C1642 1.516 . S
C1643 C1644 1.502 . S
C1643 C1645 1.561 1_655 S
C1643 C1646 1.526 . S
C1644 H1628 0.959 . S
C1644 H1629 0.959 . S
C1644 H1630 0.961 . S
C1644 C1643 1.502 . S
C1645 H1631 0.960 . S
C1645 H1632 0.961 . S
C1645 H1633 0.959 . S
C1645 C1643 1.561 1_455 S
C1646 C1643 1.526 . S
C1646 C1647 1.396 1_655 S
C1646 C1651 1.390 . S
C1647 C1641 1.465 . S
C1647 C1646 1.396 1_455 S
C1647 C1648 1.399 . S
C1648 H1634 0.929 . S
C1648 C1647 1.399 . S
C1648 C1649 1.385 . S
C1649 H1635 0.931 . S
C1649 C1648 1.385 . S
C1649 C1650 1.389 1_455 S
C1650 C1649 1.389 1_655 S
C1650 C1651 1.387 . S
C1651 H1636 0.930 . S
C1651 C1646 1.390 . S
C1651 C1650 1.387 . S
H1652 C1664 0.930 . S
H1653 C1666 0.930 . S
H1654 C1667 0.930 . S
H1655 C1671 0.959 . S
H1656 C1671 0.959 . S
H1657 C1671 0.961 . S
H1658 C1672 0.960 . S
H1659 C1672 0.961 . S
H1660 C1672 0.959 . S
H1661 C1675 0.929 . S
H1662 C1676 0.931 . S
H1663 C1678 0.930 . S
C1664 H1652 0.930 . S
C1664 C1665 1.403 . S
C1664 C1669 1.399 . S
C1665 C1664 1.403 . S
C1665 C1666 1.370 1_655 S
C1666 H1653 0.930 . S
C1666 C1665 1.370 1_455 S
C1666 C1667 1.388 . S
C1667 H1654 0.930 . S
C1667 C1666 1.388 . S
C1667 C1668 1.390 . S
C1668 C1667 1.390 . S
C1668 C1669 1.394 1_455 S
C1668 C1674 1.465 . S
C1669 C1664 1.399 . S
C1669 C1668 1.394 1_655 S
C1669 C1670 1.516 . S
C1670 C1669 1.516 . S
C1670 C1671 1.502 . S
C1670 C1672 1.561 1_655 S
C1670 C1673 1.526 . S
C1671 H1655 0.959 . S
C1671 H1656 0.959 . S
C1671 H1657 0.961 . S
C1671 C1670 1.502 . S
C1672 H1658 0.960 . S
C1672 H1659 0.961 . S
C1672 H1660 0.959 . S
C1672 C1670 1.561 1_455 S
C1673 C1670 1.526 . S
C1673 C1674 1.396 1_655 S
C1673 C1678 1.390 . S
C1674 C1668 1.465 . S
C1674 C1673 1.396 1_455 S
C1674 C1675 1.399 . S
C1675 H1661 0.929 . S
C1675 C1674 1.399 . S
C1675 C1676 1.385 . S
C1676 H1662 0.931 . S
C1676 C1675 1.385 . S
C1676 C1677 1.389 . S
C1677 C1676 1.389 . S
C1677 C1678 1.387 1_455 S
C1678 H1663 0.930 . S
C1678 C1673 1.390 . S
C1678 C1677 1.387 1_655 S
H1679 C1691 0.930 . S
H1680 C1693 0.930 . S
H1681 C1694 0.930 . S
H1682 C1698 0.959 . S
H1683 C1698 0.959 . S
H1684 C1698 0.961 . S
H1685 C1699 0.960 . S
H1686 C1699 0.961 . S
H1687 C1699 0.959 . S
H1688 C1702 0.929 . S
H1689 C1703 0.931 . S
H1690 C1705 0.930 . S
C1691 H1679 0.930 . S
C1691 C1692 1.399 . S
C1691 C1696 1.399 . S
C1692 C1691 1.399 . S
C1692 C1693 1.376 . S
C1693 H1680 0.930 . S
C1693 C1692 1.376 . S
C1693 C1694 1.388 . S
C1694 H1681 0.930 . S
C1694 C1693 1.388 . S
C1694 C1695 1.390 . S
C1695 C1694 1.390 . S
C1695 C1696 1.394 . S
C1695 C1701 1.465 . S
C1696 C1691 1.399 . S
C1696 C1695 1.394 . S
C1696 C1697 1.516 . S
C1697 C1696 1.516 . S
C1697 C1698 1.502 . S
C1697 C1699 1.561 . S
C1697 C1700 1.526 . S
C1698 H1682 0.959 . S
C1698 H1683 0.959 . S
C1698 H1684 0.961 . S
C1698 C1697 1.502 . S
C1699 H1685 0.960 . S
C1699 H1686 0.961 . S
C1699 H1687 0.959 . S
C1699 C1697 1.561 . S
C1700 C1697 1.526 . S
C1700 C1701 1.396 . S
C1700 C1705 1.390 . S
C1701 C1695 1.465 . S
C1701 C1700 1.396 . S
C1701 C1702 1.399 . S
C1702 H1688 0.929 . S
C1702 C1701 1.399 . S
C1702 C1703 1.385 . S
C1703 H1689 0.931 . S
C1703 C1702 1.385 . S
C1703 C1704 1.389 . S
C1704 C1703 1.389 . S
C1704 C1705 1.387 . S
C1705 H1690 0.930 . S
C1705 C1700 1.390 . S
C1705 C1704 1.387 . S
H1706 C1718 0.930 . S
H1707 C1720 0.930 . S
H1708 C1721 0.930 . S
H1709 C1725 0.959 . S
H1710 C1725 0.959 . S
H1711 C1725 0.961 . S
H1712 C1726 0.960 . S
H1713 C1726 0.961 . S
H1714 C1726 0.959 . S
H1715 C1729 0.929 . S
H1716 C1730 0.931 . S
H1717 C1732 0.930 . S
C1718 H1706 0.930 . S
C1718 C1719 1.399 . S
C1718 C1723 1.399 . S
C1719 C1718 1.399 . S
C1719 C1720 1.376 . S
C1720 H1707 0.930 . S
C1720 C1719 1.376 . S
C1720 C1721 1.388 . S
C1721 H1708 0.930 . S
C1721 C1720 1.388 . S
C1721 C1722 1.390 . S
C1722 C1721 1.390 . S
C1722 C1723 1.394 . S
C1722 C1728 1.465 . S
C1723 C1718 1.399 . S
C1723 C1722 1.394 . S
C1723 C1724 1.516 . S
C1724 C1723 1.516 . S
C1724 C1725 1.502 . S
C1724 C1726 1.561 . S
C1724 C1727 1.526 . S
C1725 H1709 0.959 . S
C1725 H1710 0.959 . S
C1725 H1711 0.961 . S
C1725 C1724 1.502 . S
C1726 H1712 0.960 . S
C1726 H1713 0.961 . S
C1726 H1714 0.959 . S
C1726 C1724 1.561 . S
C1727 C1724 1.526 . S
C1727 C1728 1.396 . S
C1727 C1732 1.390 . S
C1728 C1722 1.465 . S
C1728 C1727 1.396 . S
C1728 C1729 1.399 . S
C1729 H1715 0.929 . S
C1729 C1728 1.399 . S
C1729 C1730 1.385 . S
C1730 H1716 0.931 . S
C1730 C1729 1.385 . S
C1730 C1731 1.389 . S
C1731 C1730 1.389 . S
C1731 C1732 1.387 . S
C1732 H1717 0.930 . S
C1732 C1727 1.390 . S
C1732 C1731 1.387 . S
H1733 C1745 0.930 . S
H1734 C1747 0.930 . S
H1735 C1748 0.930 . S
H1736 C1752 0.959 . S
H1737 C1752 0.959 . S
H1738 C1752 0.961 . S
H1739 C1753 0.960 . S
H1740 C1753 0.961 . S
H1741 C1753 0.959 . S
H1742 C1756 0.929 . S
H1743 C1757 0.931 . S
H1744 C1759 0.933 . S
C1745 H1733 0.930 . S
C1745 C1746 1.399 . S
C1745 C1750 1.399 . S
C1746 C1745 1.399 . S
C1746 C1747 1.376 1_655 S
C1747 H1734 0.930 . S
C1747 C1746 1.376 1_455 S
C1747 C1748 1.388 . S
C1748 H1735 0.930 . S
C1748 C1747 1.388 . S
C1748 C1749 1.390 . S
C1749 C1748 1.390 . S
C1749 C1750 1.394 1_455 S
C1749 C1755 1.465 . S
C1750 C1745 1.399 . S
C1750 C1749 1.394 1_655 S
C1750 C1751 1.516 . S
C1751 C1750 1.516 . S
C1751 C1752 1.502 . S
C1751 C1753 1.561 1_655 S
C1751 C1754 1.526 1_655 S
C1752 H1736 0.959 . S
C1752 H1737 0.959 . S
C1752 H1738 0.961 . S
C1752 C1751 1.502 . S
C1753 H1739 0.960 . S
C1753 H1740 0.961 . S
C1753 H1741 0.959 . S
C1753 C1751 1.561 1_455 S
C1754 C1751 1.526 1_455 S
C1754 C1755 1.396 . S
C1754 C1759 1.389 1_455 S
C1755 C1749 1.465 . S
C1755 C1754 1.396 . S
C1755 C1756 1.399 . S
C1756 H1742 0.929 . S
C1756 C1755 1.399 . S
C1756 C1757 1.385 . S
C1757 H1743 0.931 . S
C1757 C1756 1.385 . S
C1757 C1758 1.389 . S
C1758 C1757 1.389 . S
C1758 C1759 1.384 1_455 S
C1759 H1744 0.933 . S
C1759 C1754 1.389 1_655 S
C1759 C1758 1.384 1_655 S
H1760 C1772 0.929 1_655 S
H1761 C1774 0.930 . S
H1762 C1775 0.930 . S
H1763 C1779 0.959 . S
H1764 C1779 0.959 . S
H1765 C1779 0.961 . S
H1766 C1780 0.960 . S
H1767 C1780 0.961 . S
H1768 C1780 0.959 . S
H1769 C1783 0.929 . S
H1770 C1784 0.930 1_455 S
H1771 C1786 0.930 . S
C1772 H1760 0.929 1_455 S
C1772 C1773 1.399 . S
C1772 C1777 1.399 . S
C1773 C1772 1.399 . S
C1773 C1774 1.376 . S
C1774 H1761 0.930 . S
C1774 C1773 1.376 . S
C1774 C1775 1.388 . S
C1775 H1762 0.930 . S
C1775 C1774 1.388 . S
C1775 C1776 1.390 . S
C1776 C1775 1.390 . S
C1776 C1777 1.394 . S
C1776 C1782 1.465 . S
C1777 C1772 1.399 . S
C1777 C1776 1.394 . S
C1777 C1778 1.516 1_455 S
C1778 C1777 1.516 1_655 S
C1778 C1779 1.502 . S
C1778 C1780 1.561 1_655 S
C1778 C1781 1.526 . S
C1779 H1763 0.959 . S
C1779 H1764 0.959 . S
C1779 H1765 0.961 . S
C1779 C1778 1.502 . S
C1780 H1766 0.960 . S
C1780 H1767 0.961 . S
C1780 H1768 0.959 . S
C1780 C1778 1.561 1_455 S
C1781 C1778 1.526 . S
C1781 C1782 1.396 1_655 S
C1781 C1786 1.390 . S
C1782 C1776 1.465 . S
C1782 C1781 1.396 1_455 S
C1782 C1783 1.399 . S
C1783 H1769 0.929 . S
C1783 C1782 1.399 . S
C1783 C1784 1.385 1_455 S
C1784 H1770 0.930 1_655 S
C1784 C1783 1.385 1_655 S
C1784 C1785 1.389 . S
C1785 C1784 1.389 . S
C1785 C1786 1.387 . S
C1786 H1771 0.930 . S
C1786 C1781 1.390 . S
C1786 C1785 1.387 . S
H1787 C1799 0.930 . S
H1788 C1801 0.930 . S
H1789 C1802 0.930 . S
H1790 C1806 0.959 . S
H1791 C1806 0.959 . S
H1792 C1806 0.961 . S
H1793 C1807 0.960 . S
H1794 C1807 0.961 . S
H1795 C1807 0.959 . S
H1796 C1810 0.929 . S
H1797 C1811 0.931 . S
H1798 C1813 0.930 . S
C1799 H1787 0.930 . S
C1799 C1800 1.399 . S
C1799 C1804 1.399 . S
C1800 C1799 1.399 . S
C1800 C1801 1.376 . S
C1801 H1788 0.930 . S
C1801 C1800 1.376 . S
C1801 C1802 1.388 . S
C1802 H1789 0.930 . S
C1802 C1801 1.388 . S
C1802 C1803 1.390 . S
C1803 C1802 1.390 . S
C1803 C1804 1.394 . S
C1803 C1809 1.465 . S
C1804 C1799 1.399 . S
C1804 C1803 1.394 . S
C1804 C1805 1.516 . S
C1805 C1804 1.516 . S
C1805 C1806 1.502 . S
C1805 C1807 1.561 . S
C1805 C1808 1.526 . S
C1806 H1790 0.959 . S
C1806 H1791 0.959 . S
C1806 H1792 0.961 . S
C1806 C1805 1.502 . S
C1807 H1793 0.960 . S
C1807 H1794 0.961 . S
C1807 H1795 0.959 . S
C1807 C1805 1.561 . S
C1808 C1805 1.526 . S
C1808 C1809 1.396 . S
C1808 C1813 1.390 . S
C1809 C1803 1.465 . S
C1809 C1808 1.396 . S
C1809 C1810 1.399 . S
C1810 H1796 0.929 . S
C1810 C1809 1.399 . S
C1810 C1811 1.385 . S
C1811 H1797 0.931 . S
C1811 C1810 1.385 . S
C1811 C1812 1.389 . S
C1812 C1811 1.389 . S
C1812 C1813 1.387 . S
C1813 H1798 0.930 . S
C1813 C1808 1.390 . S
C1813 C1812 1.387 . S
H1814 C1826 0.930 . S
H1815 C1828 0.930 . S
H1816 C1829 0.930 . S
H1817 C1833 0.959 . S
H1818 C1833 0.959 . S
H1819 C1833 0.961 . S
H1820 C1834 0.960 . S
H1821 C1834 0.961 . S
H1822 C1834 0.959 . S
H1823 C1837 0.929 . S
H1824 C1838 0.931 . S
H1825 C1840 0.930 . S
C1826 H1814 0.930 . S
C1826 C1827 1.399 1_455 S
C1826 C1831 1.399 . S
C1827 C1826 1.399 1_655 S
C1827 C1828 1.376 . S
C1828 H1815 0.930 . S
C1828 C1827 1.376 . S
C1828 C1829 1.388 . S
C1829 H1816 0.930 . S
C1829 C1828 1.388 . S
C1829 C1830 1.390 . S
C1830 C1829 1.390 . S
C1830 C1831 1.394 1_655 S
C1830 C1836 1.465 . S
C1831 C1826 1.399 . S
C1831 C1830 1.394 1_455 S
C1831 C1832 1.516 . S
C1832 C1831 1.516 . S
C1832 C1833 1.502 . S
C1832 C1834 1.561 . S
C1832 C1835 1.526 . S
C1833 H1817 0.959 . S
C1833 H1818 0.959 . S
C1833 H1819 0.961 . S
C1833 C1832 1.502 . S
C1834 H1820 0.960 . S
C1834 H1821 0.961 . S
C1834 H1822 0.959 . S
C1834 C1832 1.561 . S
C1835 C1832 1.526 . S
C1835 C1836 1.396 1_455 S
C1835 C1840 1.390 . S
C1836 C1830 1.465 . S
C1836 C1835 1.396 1_655 S
C1836 C1837 1.399 . S
C1837 H1823 0.929 . S
C1837 C1836 1.399 . S
C1837 C1838 1.385 . S
C1838 H1824 0.931 . S
C1838 C1837 1.385 . S
C1838 C1839 1.389 1_655 S
C1839 C1838 1.389 1_455 S
C1839 C1840 1.387 . S
C1840 H1825 0.930 . S
C1840 C1835 1.390 . S
C1840 C1839 1.387 . S
H1841 C1853 0.930 . S
H1842 C1855 0.930 . S
H1843 C1856 0.930 . S
H1844 C1860 0.959 . S
H1845 C1860 0.959 . S
H1846 C1860 0.961 . S
H1847 C1861 0.960 . S
H1848 C1861 0.961 . S
H1849 C1861 0.959 . S
H1850 C1864 0.929 . S
H1851 C1865 0.931 . S
H1852 C1867 0.930 . S
C1853 H1841 0.930 . S
C1853 C1854 1.399 . S
C1853 C1858 1.399 . S
C1854 C1853 1.399 . S
C1854 C1855 1.376 . S
C1855 H1842 0.930 . S
C1855 C1854 1.376 . S
C1855 C1856 1.388 . S
C1856 H1843 0.930 . S
C1856 C1855 1.388 . S
C1856 C1857 1.390 . S
C1857 C1856 1.390 . S
C1857 C1858 1.394 . S
C1857 C1863 1.465 . S
C1858 C1853 1.399 . S
C1858 C1857 1.394 . S
C1858 C1859 1.516 . S
C1859 C1858 1.516 . S
C1859 C1860 1.502 . S
C1859 C1861 1.561 . S
C1859 C1862 1.526 . S
C1860 H1844 0.959 . S
C1860 H1845 0.959 . S
C1860 H1846 0.961 . S
C1860 C1859 1.502 . S
C1861 H1847 0.960 . S
C1861 H1848 0.961 . S
C1861 H1849 0.959 . S
C1861 C1859 1.561 . S
C1862 C1859 1.526 . S
C1862 C1863 1.396 . S
C1862 C1867 1.390 . S
C1863 C1857 1.465 . S
C1863 C1862 1.396 . S
C1863 C1864 1.399 . S
C1864 H1850 0.929 . S
C1864 C1863 1.399 . S
C1864 C1865 1.385 . S
C1865 H1851 0.931 . S
C1865 C1864 1.385 . S
C1865 C1866 1.389 . S
C1866 C1865 1.389 . S
C1866 C1867 1.387 . S
C1867 H1852 0.930 . S
C1867 C1862 1.390 . S
C1867 C1866 1.387 . S
H1868 C1880 0.930 . S
H1869 C1882 0.930 . S
H1870 C1883 0.930 . S
H1871 C1887 0.959 . S
H1872 C1887 0.959 . S
H1873 C1887 0.961 . S
H1874 C1888 0.960 . S
H1875 C1888 0.961 . S
H1876 C1888 0.959 . S
H1877 C1891 0.929 . S
H1878 C1892 0.931 . S
H1879 C1894 0.930 . S
C1880 H1868 0.930 . S
C1880 C1881 1.399 . S
C1880 C1885 1.399 . S
C1881 C1880 1.399 . S
C1881 C1882 1.376 . S
C1882 H1869 0.930 . S
C1882 C1881 1.376 . S
C1882 C1883 1.388 . S
C1883 H1870 0.930 . S
C1883 C1882 1.388 . S
C1883 C1884 1.390 . S
C1884 C1883 1.390 . S
C1884 C1885 1.394 . S
C1884 C1890 1.465 . S
C1885 C1880 1.399 . S
C1885 C1884 1.394 . S
C1885 C1886 1.516 . S
C1886 C1885 1.516 . S
C1886 C1887 1.502 . S
C1886 C1888 1.561 . S
C1886 C1889 1.526 . S
C1887 H1871 0.959 . S
C1887 H1872 0.959 . S
C1887 H1873 0.961 . S
C1887 C1886 1.502 . S
C1888 H1874 0.960 . S
C1888 H1875 0.961 . S
C1888 H1876 0.959 . S
C1888 C1886 1.561 . S
C1889 C1886 1.526 . S
C1889 C1890 1.396 . S
C1889 C1894 1.390 . S
C1890 C1884 1.465 . S
C1890 C1889 1.396 . S
C1890 C1891 1.399 . S
C1891 H1877 0.929 . S
C1891 C1890 1.399 . S
C1891 C1892 1.385 . S
C1892 H1878 0.931 . S
C1892 C1891 1.385 . S
C1892 C1893 1.389 . S
C1893 C1892 1.389 . S
C1893 C1894 1.387 . S
C1894 H1879 0.930 . S
C1894 C1889 1.390 . S
C1894 C1893 1.387 . S
H1895 C1907 0.930 . S
H1896 C1909 0.930 . S
H1897 C1910 0.930 . S
H1898 C1914 0.959 . S
H1899 C1914 0.959 . S
H1900 C1914 0.961 . S
H1901 C1915 0.960 . S
H1902 C1915 0.962 . S
H1903 C1915 0.959 . S
H1904 C1918 0.929 . S
H1905 C1919 0.931 . S
H1906 C1921 0.930 . S
C1907 H1895 0.930 . S
C1907 C1908 1.399 1_655 S
C1907 C1912 1.399 . S
C1908 C1907 1.399 1_455 S
C1908 C1909 1.376 . S
C1909 H1896 0.930 . S
C1909 C1908 1.376 . S
C1909 C1910 1.388 . S
C1910 H1897 0.930 . S
C1910 C1909 1.388 . S
C1910 C1911 1.390 . S
C1911 C1910 1.390 . S
C1911 C1912 1.394 1_455 S
C1911 C1917 1.465 . S
C1912 C1907 1.399 . S
C1912 C1911 1.394 1_655 S
C1912 C1913 1.516 . S
C1913 C1912 1.516 . S
C1913 C1914 1.502 . S
C1913 C1915 1.561 1_655 S
C1913 C1916 1.526 . S
C1914 H1898 0.959 . S
C1914 H1899 0.959 . S
C1914 H1900 0.961 . S
C1914 C1913 1.502 . S
C1915 H1901 0.960 . S
C1915 H1902 0.962 . S
C1915 H1903 0.959 . S
C1915 C1913 1.561 1_455 S
C1916 C1913 1.526 . S
C1916 C1917 1.396 1_655 S
C1916 C1921 1.390 . S
C1917 C1911 1.465 . S
C1917 C1916 1.396 1_455 S
C1917 C1918 1.399 . S
C1918 H1904 0.929 . S
C1918 C1917 1.399 . S
C1918 C1919 1.385 . S
C1919 H1905 0.931 . S
C1919 C1918 1.385 . S
C1919 C1920 1.389 1_455 S
C1920 C1919 1.389 1_655 S
C1920 C1921 1.387 . S
C1921 H1906 0.930 . S
C1921 C1916 1.390 . S
C1921 C1920 1.387 . S
H1922 C1934 0.930 . S
H1923 C1936 0.930 . S
H1924 C1937 0.930 . S
H1925 C1941 0.959 . S
H1926 C1941 0.959 . S
H1927 C1941 0.961 . S
H1928 C1942 0.960 . S
H1929 C1942 0.961 . S
H1930 C1942 0.959 . S
H1931 C1945 0.929 . S
H1932 C1946 0.931 . S
H1933 C1948 0.930 . S
C1934 H1922 0.930 . S
C1934 C1935 1.399 . S
C1934 C1939 1.399 . S
C1935 C1934 1.399 . S
C1935 C1936 1.376 . S
C1936 H1923 0.930 . S
C1936 C1935 1.376 . S
C1936 C1937 1.388 . S
C1937 H1924 0.930 . S
C1937 C1936 1.388 . S
C1937 C1938 1.390 . S
C1938 C1937 1.390 . S
C1938 C1939 1.394 . S
C1938 C1944 1.465 . S
C1939 C1934 1.399 . S
C1939 C1938 1.394 . S
C1939 C1940 1.516 . S
C1940 C1939 1.516 . S
C1940 C1941 1.502 . S
C1940 C1942 1.561 . S
C1940 C1943 1.526 . S
C1941 H1925 0.959 . S
C1941 H1926 0.959 . S
C1941 H1927 0.961 . S
C1941 C1940 1.502 . S
C1942 H1928 0.960 . S
C1942 H1929 0.961 . S
C1942 H1930 0.959 . S
C1942 C1940 1.561 . S
C1943 C1940 1.526 . S
C1943 C1944 1.396 . S
C1943 C1948 1.390 . S
C1944 C1938 1.465 . S
C1944 C1943 1.396 . S
C1944 C1945 1.399 . S
C1945 H1931 0.929 . S
C1945 C1944 1.399 . S
C1945 C1946 1.385 . S
C1946 H1932 0.931 . S
C1946 C1945 1.385 . S
C1946 C1947 1.389 . S
C1947 C1946 1.389 . S
C1947 C1948 1.387 . S
C1948 H1933 0.930 . S
C1948 C1943 1.390 . S
C1948 C1947 1.387 . S
H1949 C1961 0.930 . S
H1950 C1963 0.930 . S
H1951 C1964 0.930 . S
H1952 C1968 0.959 . S
H1953 C1968 0.959 . S
H1954 C1968 0.961 . S
H1955 C1969 0.960 . S
H1956 C1969 0.962 . S
H1957 C1969 0.959 . S
H1958 C1972 0.929 . S
H1959 C1973 0.931 . S
H1960 C1975 0.930 . S
C1961 H1949 0.930 . S
C1961 C1962 1.399 1_655 S
C1961 C1966 1.399 . S
C1962 C1961 1.399 1_455 S
C1962 C1963 1.376 . S
C1963 H1950 0.930 . S
C1963 C1962 1.376 . S
C1963 C1964 1.388 . S
C1964 H1951 0.930 . S
C1964 C1963 1.388 . S
C1964 C1965 1.390 . S
C1965 C1964 1.390 . S
C1965 C1966 1.394 1_455 S
C1965 C1971 1.465 . S
C1966 C1961 1.399 . S
C1966 C1965 1.394 1_655 S
C1966 C1967 1.516 . S
C1967 C1966 1.516 . S
C1967 C1968 1.502 . S
C1967 C1969 1.561 1_655 S
C1967 C1970 1.526 . S
C1968 H1952 0.959 . S
C1968 H1953 0.959 . S
C1968 H1954 0.961 . S
C1968 C1967 1.502 . S
C1969 H1955 0.960 . S
C1969 H1956 0.962 . S
C1969 H1957 0.959 . S
C1969 C1967 1.561 1_455 S
C1970 C1967 1.526 . S
C1970 C1971 1.396 1_655 S
C1970 C1975 1.390 . S
C1971 C1965 1.465 . S
C1971 C1970 1.396 1_455 S
C1971 C1972 1.399 . S
C1972 H1958 0.929 . S
C1972 C1971 1.399 . S
C1972 C1973 1.385 . S
C1973 H1959 0.931 . S
C1973 C1972 1.385 . S
C1973 C1974 1.389 1_455 S
C1974 C1973 1.389 1_655 S
C1974 C1975 1.387 . S
C1975 H1960 0.930 . S
C1975 C1970 1.390 . S
C1975 C1974 1.387 . S
C477 C15 2.097 . S
C489 C21 1.941 . S
C504 C50 1.955 . S
C516 C44 2.081 . S
C531 C79 1.942 . S
C543 C73 2.104 . S
C558 C108 2.003 . S
C570 C102 2.118 . S
C585 C131 2.102 . S
C597 C137 1.955 . S
C612 C160 2.100 . S
C624 C166 1.952 . S
C639 C189 2.096 . S
C651 C195 2.010 . S
C666 C224 1.988 . S
C678 C218 2.118 . S
C693 C253 1.988 . S
C705 C247 2.120 . S
C720 C276 2.102 . S
C732 C282 1.942 . S
C747 C305 2.121 . S
C759 C311 1.987 . S
C774 C340 1.964 . S
C786 C334 2.078 . S
C801 C369 2.003 . S
C813 C363 2.120 . S
C828 C398 1.970 . S
C840 C392 2.079 . S
C855 C427 1.997 . S
C867 C421 2.120 . S
C882 C450 2.103 . S
C894 C456 1.956 . S
C909 C3 0.972 . S
C921 C158 1.008 . S
C936 C32 0.972 . S
C948 C129 1.001 . S
C963 C61 1.027 . S
C975 C216 0.965 . S
C990 C90 0.974 . S
C1002 C187 0.993 . S
C1017 C119 1.006 . S
C1029 C42 1.036 . S
C1044 C148 1.039 . S
C1056 C13 1.063 . S
C1071 C100 0.982 . S
C1083 C177 0.974 . S
C1098 C71 1.046 . S
C1110 C206 1.070 . S
C1125 C235 1.013 . S
C1137 C390 1.066 . S
C1152 C361 1.066 . S
C1164 C264 1.011 . S
C1179 C293 0.975 . S
C1191 C448 0.987 . S
C1206 C419 1.062 . S
C1218 C322 1.006 . S
C1233 C274 1.052 . S
C1245 C351 1.072 . S
C1260 C380 1.032 . S
C1272 C245 1.059 . S
C1287 C409 1.029 . S
C1299 C332 0.988 . S
C1314 C438 0.976 . S
C1326 C303 0.965 . S
C1341 C5 1.330 . S
C1353 C34 1.331 . S
C1368 C92 1.304 . S
C1380 C63 1.303 . S
C1395 C121 1.338 . S
C1407 C150 1.321 . S
C1422 C208 1.331 . S
C1434 C179 1.342 . S
C1449 C266 1.286 . S
C1461 C237 1.287 . S
C1476 C295 1.338 . S
C1488 C324 1.337 . S
C1503 C353 1.338 . S
C1515 C382 1.321 . S
C1530 C411 1.286 . S
C1542 C440 1.306 . S
C1557 C10 1.515 . S
C1569 C271 1.543 . S
C1584 C39 1.602 . S
C1596 C242 1.556 . S
C1611 C329 1.601 . S
C1623 C68 1.574 . S
C1638 C300 1.513 . S
C1650 C97 1.549 . S
C1665 C126 1.573 . S
C1677 C387 1.516 . S
C1692 C155 1.561 . S
C1704 C358 1.595 . S
C1719 C184 1.548 . S
C1731 C445 1.600 . S
C1746 C416 1.556 . S
C1758 C213 1.521 . S
C1773 C95 1.364 . S
C1785 C8 1.308 . S
C1800 C37 1.364 . S
C1812 C66 1.308 . S
C1827 C211 1.374 . S
C1839 C124 1.286 . S
C1854 C153 1.407 . S
C1866 C182 1.346 . S
C1881 C240 1.364 . S
C1893 C327 1.308 . S
C1908 C269 1.380 . S
C1920 C298 1.296 . S
C1935 C443 1.290 . S
C1947 C356 1.353 . S
C1962 C414 1.410 . S
C1974 C385 1.338 . S
