# Generated by pormake.
# Topology ilc, (8)-cn, num edge types: 1
# Building blocks:
#     Node 0, Type 0, BuildingBlock: TAGTUT_clean_sbu_1, # of connection points: 8
#     Node 1, Type 0, BuildingBlock: TAGTUT_clean_sbu_1, # of connection points: 8
#     Node 2, Type 0, BuildingBlock: TAGTUT_clean_sbu_1, # of connection points: 8
#     Edge 3, Type (0, 0), BuildingBlock: ZUJKAS_clean_linker_0, # of connection points: 2
#     Edge 4, Type (0, 0), BuildingBlock: ZUJKAS_clean_linker_0, # of connection points: 2
#     Edge 5, Type (0, 0), BuildingBlock: ZUJKAS_clean_linker_0, # of connection points: 2
#     Edge 6, Type (0, 0), BuildingBlock: ZUJKAS_clean_linker_0, # of connection points: 2
#     Edge 7, Type (0, 0), BuildingBlock: ZUJKAS_clean_linker_0, # of connection points: 2
#     Edge 8, Type (0, 0), BuildingBlock: ZUJKAS_clean_linker_0, # of connection points: 2
#     Edge 9, Type (0, 0), BuildingBlock: ZUJKAS_clean_linker_0, # of connection points: 2
#     Edge 10, Type (0, 0), BuildingBlock: ZUJKAS_clean_linker_0, # of connection points: 2
#     Edge 11, Type (0, 0), BuildingBlock: ZUJKAS_clean_linker_0, # of connection points: 2
#     Edge 12, Type (0, 0), BuildingBlock: ZUJKAS_clean_linker_0, # of connection points: 2
#     Edge 13, Type (0, 0), BuildingBlock: ZUJKAS_clean_linker_0, # of connection points: 2
#     Edge 14, Type (0, 0), BuildingBlock: ZUJKAS_clean_linker_0, # of connection points: 2
# Relax obj value: 0.128
# Max RMSD: 0.139
# Mean RMSD: 0.139
data_MOF--net-ilc--node1-TAGTUT_clean_sbu_1--edge1-ZUJKAS_clean_linker_0
_symmetry_space_group_name_H-M    P1
_symmetry_Int_Tables_number       1
_symmetry_cell_setting            triclinic
loop_
_symmetry_equiv_pos_as_xyz
'x, y, z'
_cell_length_a     31.636139
_cell_length_b     34.968977
_cell_length_c     18.962526
_cell_angle_alpha  97.786242
_cell_angle_beta   87.391802
_cell_angle_gamma 133.75446
loop_
_atom_site_label
_atom_site_type_symbol
_atom_site_fract_x
_atom_site_fract_y
_atom_site_fract_z
_atom_type_partial_charge
C0 C 0.11804 0.96112 0.13006 0.0
C1 C 0.10979 0.07758 0.18792 0.0
C2 C 0.91025 0.94765 0.01636 0.0
Mg3 Mg 0.15467 0.0547 0.05999 0.0
O4 O 0.07801 1.00251 0.01952 0.0
Mg5 Mg 1.01238 0.95724 0.0829 0.0
Mg6 Mg 1.04479 0.02273 0.96576 0.0
O7 O 1.01021 0.04122 0.90998 0.0
Mg8 Mg 0.9361 0.98311 0.86148 0.0
Mg9 Mg 0.07799 0.08793 0.84913 0.0
C10 C 0.17993 0.09502 0.91112 0.0
C11 C 0.11436 0.14847 0.01224 0.0
O12 O 0.06485 0.94001 0.12784 0.0
O13 O 0.15942 1.00416 0.1039 0.0
O14 O 0.05952 0.02945 0.17333 0.0
O15 O 0.15176 0.09719 0.14712 0.0
O16 O 0.20007 0.09447 0.96785 0.0
O17 O 0.12546 0.06939 0.90142 0.0
C18 C 0.97263 0.8963 0.9197 0.0
O19 O 0.99574 0.9405 0.89904 0.0
O20 O 0.97311 0.89201 -0.0142 0.0
O21 O 1.02253 0.10032 0.79897 0.0
O22 O 0.92722 0.02954 0.81258 0.0
O23 O 1.04067 1.01682 0.76471 0.0
C24 C 0.96797 0.07499 0.79123 0.0
O25 O 0.94849 0.94272 0.7808 0.0
O26 O 0.89094 0.94442 0.95534 0.0
C27 C 0.99582 0.96669 0.7494 0.0
O28 O 0.96533 0.97749 0.03184 0.0
O29 O 0.09367 0.10491 0.03267 0.0
O30 O 0.1126 0.15233 0.94614 0.0
C31 C 0.79765 0.30454 0.46681 0.0
C32 C 0.77271 0.41428 0.51912 0.0
C33 C 0.58306 0.28642 0.36601 0.0
Mg34 Mg 0.82826 0.39733 0.4007 0.0
O35 O 0.75259 0.34013 0.35587 0.0
Mg36 Mg 0.68651 0.2929 0.41855 0.0
Mg37 Mg 0.71627 0.35857 0.30419 0.0
O38 O 0.6802 0.37753 0.25381 0.0
Mg39 Mg 0.60232 0.32386 0.21655 0.0
Mg40 Mg 0.74305 0.42133 0.18702 0.0
C41 C 0.84833 0.43242 0.24647 0.0
C42 C 0.78794 0.48471 0.34935 0.0
O43 O 0.74314 0.27978 0.46234 0.0
O44 O 0.83785 0.34992 0.44499 0.0
O45 O 0.72712 0.36426 0.50439 0.0
O46 O 0.81876 0.43796 0.485 0.0
O47 O 0.86984 0.43554 0.30542 0.0
O48 O 0.79298 0.40306 0.23462 0.0
C49 C 0.64747 0.23356 0.25448 0.0
O50 O 0.66841 0.27772 0.23638 0.0
O51 O 0.6485 0.22829 0.32008 0.0
O52 O 0.68831 0.43696 0.14527 0.0
O53 O 0.59473 0.37275 0.17268 0.0
O54 O 0.69298 0.34725 0.099 0.0
C55 C 0.635 0.41548 0.14521 0.0
O56 O 0.6025 0.27893 0.12989 0.0
O57 O 0.56065 0.28618 0.311 0.0
C58 C 0.64311 0.29859 0.0869 0.0
O59 O 0.63767 0.31186 0.37207 0.0
O60 O 0.76631 0.44113 0.37072 0.0
O61 O 0.78495 0.48778 0.28325 0.0
C62 C 0.45941 0.62486 0.77529 0.0
C63 C 0.46097 0.74622 0.8436 0.0
C64 C 0.24661 0.61376 0.69689 0.0
Mg65 Mg 0.49219 0.71726 0.70635 0.0
O66 O 0.41249 0.66625 0.67657 0.0
Mg67 Mg 0.35294 0.62356 0.74658 0.0
Mg68 Mg 0.37578 0.68702 0.63299 0.0
O69 O 0.33864 0.70697 0.58716 0.0
Mg70 Mg 0.26222 0.6503 0.54434 0.0
Mg71 Mg 0.40266 0.75455 0.52228 0.0
C72 C 0.5035 0.75294 0.55818 0.0
C73 C 0.44753 0.8123 0.6871 0.0
O74 O 0.40716 0.6055 0.78025 0.0
O75 O 0.49888 0.66647 0.74542 0.0
O76 O 0.40947 0.69853 0.83385 0.0
O77 O 0.49891 0.76425 0.79702 0.0
O78 O 0.5279 0.75089 0.60773 0.0
O79 O 0.45082 0.73256 0.56056 0.0
C80 C 0.30112 0.56039 0.58479 0.0
O81 O 0.32251 0.60434 0.56491 0.0
O82 O 0.30614 0.55698 0.65003 0.0
O83 O 0.34555 0.76923 0.48632 0.0
O84 O 0.25153 0.69869 0.50595 0.0
O85 O 0.35977 0.68522 0.43294 0.0
C86 C 0.29099 0.74445 0.48475 0.0
O87 O 0.26976 0.61075 0.45514 0.0
O88 O 0.22371 0.61102 0.63965 0.0
C89 C 0.31412 0.63535 0.41774 0.0
O90 O 0.3022 0.64337 0.70671 0.0
O91 O 0.42699 0.76776 0.703 0.0
O92 O 0.44411 0.81811 0.62266 0.0
H93 H 0.93517 0.91105 0.6208 0.0
H94 H 0.98828 0.92064 0.517 0.0
H95 H 0.1291 0.97167 0.65376 0.0
H96 H 0.0748 0.95965 0.75731 0.0
H97 H 0.12487 0.05154 0.62265 0.0
H98 H 0.10832 0.93344 0.3788 0.0
H99 H 1.03972 0.90153 0.41811 0.0
H100 H 0.09643 0.91376 0.46661 0.0
C101 C 0.97491 0.9196 0.62823 0.0
C102 C 1.00263 0.9372 0.69626 0.0
C103 C 1.00542 0.9249 0.56872 0.0
C104 C 0.06393 0.9497 0.57844 0.0
C105 C 0.08446 0.95346 0.64535 0.0
H106 H 0.21938 0.15482 0.25515 0.0
H107 H 0.2363 0.14735 0.37405 0.0
C108 C 0.05351 0.94709 0.70468 0.0
C109 C 0.10596 0.99341 0.53637 0.0
H110 H 0.13015 1.01337 0.36316 0.0
C111 C 0.12902 0.04423 0.56648 0.0
C112 C 0.11044 0.98348 0.46339 0.0
C113 C 0.08786 0.93018 0.42972 0.0
C114 C 0.14952 0.08297 0.52361 0.0
C115 C 0.14709 0.07039 0.44955 0.0
C116 C 0.13144 0.02249 0.42051 0.0
C117 C 0.14615 0.0986 0.40003 0.0
C118 C 0.16764 0.13456 0.55643 0.0
C119 C 0.09126 0.07863 0.37921 0.0
C120 C 0.08078 0.08119 0.31024 0.0
C121 C 0.12538 0.1037 0.26257 0.0
C122 C 0.18343 0.13517 0.28992 0.0
C123 C 0.19351 0.13111 0.3581 0.0
H124 H 0.17918 0.14337 0.61463 0.0
H125 H 0.20571 0.16839 0.53011 0.0
H126 H 0.13072 0.13141 0.54838 0.0
H127 H 0.0544 0.05396 0.41187 0.0
H128 H 1.036 0.05814 0.29125 0.0
H129 H 0.69757 0.42618 0.51781 0.0
H130 H 0.64447 0.41303 0.62323 0.0
H131 H 0.78262 0.45447 0.75356 0.0
H132 H 0.83442 0.46514 0.64762 0.0
H133 H 0.64454 0.32821 0.65138 0.0
H134 H 0.66758 0.45075 0.89499 0.0
H135 H 0.68067 0.47057 0.80703 0.0
H136 H 0.73474 0.47862 0.85455 0.0
C137 C 0.71872 0.43653 0.56971 0.0
C138 C 0.76829 0.4441 0.57523 0.0
C139 C 0.68843 0.42938 0.6301 0.0
C140 C 0.70858 0.43056 0.69533 0.0
C141 C 0.76604 0.45258 0.70312 0.0
H142 H 0.7138 0.30909 -0.01406 0.0
H143 H 0.69933 0.31324 0.86322 0.0
C144 C 0.7958 0.45861 0.64244 0.0
C145 C 0.66536 0.38735 0.73735 0.0
H146 H 0.63453 0.36619 0.90939 0.0
C147 C 0.63963 0.33567 0.70716 0.0
C148 C 0.66021 0.39765 0.80986 0.0
C149 C 0.68688 0.45235 0.8437 0.0
C150 C 0.61424 0.2955 0.74956 0.0
C151 C 0.61481 0.30765 0.82331 0.0
C152 C 0.63432 0.35725 0.85224 0.0
C153 C 0.60995 0.27657 0.87354 0.0
C154 C 0.59222 0.24226 0.71683 0.0
C155 C 0.56189 0.24812 0.91566 0.0
C156 C 0.56954 0.244 -0.01489 0.0
C157 C 0.62614 0.2712 0.01307 0.0
C158 C 0.67026 0.28919 0.966 0.0
C159 C 0.66198 0.29163 0.89584 0.0
H160 H 0.58288 0.23479 0.65822 0.0
H161 H 0.6261 0.24177 0.72711 0.0
H162 H 0.5518 0.20935 0.74147 0.0
H163 H 0.52131 0.23585 0.89873 0.0
H164 H 0.53403 0.22833 0.0198 0.0
H165 H 0.57216 0.81118 0.90241 0.0
H166 H 0.59103 0.80841 0.0237 0.0
H167 H 0.41836 0.74043 0.07403 0.0
H168 H 0.3981 0.74083 0.952 0.0
H169 H 0.51686 0.80388 0.19602 0.0
H170 H 0.47355 0.63712 0.01974 0.0
H171 H 0.53313 0.70594 0.00651 0.0
H172 H 0.45892 0.6724 -0.01618 0.0
C173 C 0.53935 0.79856 0.94033 0.0
C174 C 0.48249 0.77374 0.9173 0.0
C175 C 0.55043 0.797 0.00974 0.0
C176 C 0.5054 0.77261 0.05648 0.0
C177 C 0.45334 0.75873 0.03786 0.0
H178 H 0.2676 0.60521 0.2828 0.0
H179 H 0.33183 0.62727 0.1867 0.0
C180 C 0.44175 0.75908 0.96816 0.0
C181 C 0.50353 0.74718 0.11377 0.0
H182 H 0.43141 0.61878 0.13116 0.0
C183 C 0.50136 0.76455 0.18337 0.0
C184 C 0.48361 0.69595 0.09661 0.0
C185 C 0.48743 0.67647 0.02274 0.0
C186 C 0.47114 0.72894 0.23332 0.0
C187 C 0.44277 0.67497 0.21229 0.0
C188 C 0.45277 0.66001 0.1464 0.0
C189 C 0.39185 0.63308 0.24972 0.0
C190 C 0.462 0.74739 0.30386 0.0
C191 C 0.40024 0.62158 0.3125 0.0
C192 C 0.36242 0.60754 0.36687 0.0
C193 C 0.31791 0.60681 0.35848 0.0
C194 C 0.30197 0.60601 0.29035 0.0
C195 C 0.33915 0.61919 0.23563 0.0
H196 H 0.49919 0.7911 0.32031 0.0
H197 H 0.42142 0.73911 0.29844 0.0
H198 H 0.45689 0.72612 0.34665 0.0
H199 H 0.44036 0.63146 0.32364 0.0
H200 H 0.37488 0.60764 0.41927 0.0
H201 H 0.35906 0.83756 0.42617 0.0
H202 H 0.32675 0.87375 0.37109 0.0
H203 H 0.14871 0.74161 0.41921 0.0
H204 H 0.18041 0.70531 0.47497 0.0
H205 H 0.24413 0.82061 0.25405 0.0
H206 H 0.17206 0.87187 0.48931 0.0
H207 H 0.2182 0.85944 0.49769 0.0
H208 H 0.14067 0.8045 0.47666 0.0
C209 C 0.31312 0.81645 0.42586 0.0
C210 C 0.27241 0.76846 0.45512 0.0
C211 C 0.29474 0.8372 0.39429 0.0
C212 C 0.23546 0.81071 0.39184 0.0
C213 C 0.19483 0.76326 0.42175 0.0
H214 H 1.04482 0.87146 0.19694 0.0
H215 H 0.07127 0.83286 0.25929 0.0
C216 C 0.2131 0.7424 0.45323 0.0
C217 C 0.21565 0.83088 0.35389 0.0
H218 H 0.15042 0.87842 0.37599 0.0
C219 C 0.22386 0.83346 0.28075 0.0
C220 C 0.1885 0.84693 0.38871 0.0
C221 C 0.17967 0.84604 0.46755 0.0
C222 C 0.20552 0.85149 0.24129 0.0
C223 C 0.17945 0.86858 0.2763 0.0
C224 C 0.17047 0.86535 0.34931 0.0
C225 C 0.16315 0.89168 0.23848 0.0
C226 C 0.2134 0.85122 0.16216 0.0
C227 C 0.20614 0.9379 0.20699 0.0
C228 C 0.19122 0.95984 0.17107 0.0
C229 C 0.13295 0.93634 0.16638 0.0
C230 C 0.08999 0.89034 0.19887 0.0
C231 C 0.10504 0.86831 0.23476 0.0
H232 H 0.2172 0.82264 0.14033 0.0
H233 H 0.17622 0.84051 0.13254 0.0
H234 H 0.25436 0.89173 0.15234 0.0
H235 H 0.25151 0.95735 0.2107 0.0
H236 H 0.22567 0.9956 0.14751 0.0
H237 H 0.31736 0.4931 0.57569 0.0
H238 H 0.28439 0.42294 0.47666 0.0
H239 H 0.19385 0.45306 0.37099 0.0
H240 H 0.22507 0.52171 0.47089 0.0
H241 H 0.16758 0.32921 0.41675 0.0
H242 H 0.30553 0.47177 0.22203 0.0
H243 H 0.3185 0.4928 0.31727 0.0
H244 H 0.25958 0.47772 0.27002 0.0
C245 C 0.28981 0.48422 0.53168 0.0
C246 C 0.27519 0.51395 0.5297 0.0
C247 C 0.27135 0.44445 0.47507 0.0
C248 C 0.23807 0.43391 0.41571 0.0
C249 C 0.22103 0.46175 0.41532 0.0
H250 H 0.10443 0.22009 0.0122 0.0
H251 H 0.13459 0.29011 0.10978 0.0
C252 C 0.23931 0.50131 0.47201 0.0
C253 C 0.22118 0.39378 0.3542 0.0
H254 H 0.24127 0.37954 0.17754 0.0
C255 C 0.18371 0.34012 0.36445 0.0
C256 C 0.24217 0.4083 0.28606 0.0
C257 C 0.28402 0.46579 0.27288 0.0
C258 C 0.16603 0.30027 0.30806 0.0
C259 C 0.18764 0.31481 0.24001 0.0
C260 C 0.22482 0.36851 0.22969 0.0
C261 C 0.17257 0.27482 0.17924 0.0
C262 C 0.1234 0.24285 0.32169 0.0
C263 C 0.18582 0.24442 0.18485 0.0
C264 C 0.16842 0.20446 0.12952 0.0
C265 C 0.13804 0.19444 0.0672 0.0
C266 C 0.12763 0.22685 0.05985 0.0
C267 C 0.14465 0.26667 0.11557 0.0
H268 H 0.09827 0.23671 0.36901 0.0
H269 H 0.09188 0.21515 0.27485 0.0
H270 H 0.14806 0.23207 0.33221 0.0
H271 H 0.2092 0.25125 0.23236 0.0
H272 H 0.17901 0.1816 0.13542 0.0
H273 H 0.49623 0.69216 0.44734 0.0
H274 H 0.5613 0.72287 0.34888 0.0
H275 H 0.64797 0.88568 0.42659 0.0
H276 H 0.58223 0.85468 0.52526 0.0
H277 H 0.62549 0.8523 0.2682 0.0
H278 H 0.73778 0.80799 0.40174 0.0
H279 H 0.65937 0.75419 0.38755 0.0
H280 H 0.69078 0.81382 0.44755 0.0
C281 C 0.52814 0.7343 0.44198 0.0
C282 C 0.53406 0.77117 0.49261 0.0
C283 C 0.56548 0.75179 0.38633 0.0
C284 C 0.60979 0.80652 0.38123 0.0
C285 C 0.6139 0.84325 0.42982 0.0
H286 H 0.93109 0.97056 0.16188 0.0
H287 H 0.85752 0.93516 0.25077 0.0
C288 C 0.57641 0.82566 0.48573 0.0
C289 C 0.65457 0.82554 0.32881 0.0
H290 H 0.76767 0.83522 0.2879 0.0
C291 C 0.65668 0.84871 0.27233 0.0
C292 C 0.6955 0.82126 0.33518 0.0
C293 C 0.69634 0.79838 0.39652 0.0
C294 C 0.69844 0.86724 0.22126 0.0
C295 C 0.7385 0.86166 0.22651 0.0
C296 C 0.73675 0.83912 0.28369 0.0
C297 C 0.78293 0.87951 0.17357 0.0
C298 C 0.69997 0.89353 0.16299 0.0
C299 C 0.7654 0.8581 0.10127 0.0
C300 C 0.80718 0.87829 0.05057 0.0
C301 C 0.86742 0.9198 0.07127 0.0
C302 C 0.88506 0.93855 0.14427 0.0
C303 C 0.84306 0.9186 0.19503 0.0
H304 H 0.67711 0.90699 0.17701 0.0
H305 H 0.74583 0.92849 0.15183 0.0
H306 H 0.67747 0.8643 0.1134 0.0
H307 H 0.7193 0.82664 0.08378 0.0
H308 H 0.79216 0.86246 -0.00519 0.0
H309 H 0.90839 0.34577 0.48797 0.0
H310 H 0.93733 0.30649 0.54132 0.0
H311 H 0.7562 0.16909 0.57075 0.0
H312 H 0.72658 0.20835 0.51818 0.0
H313 H 0.83135 0.21128 0.6916 0.0
H314 H 0.91795 0.18173 0.45148 0.0
H315 H 0.94912 0.24878 0.47432 0.0
H316 H 0.87241 0.19513 0.44689 0.0
C317 C 0.8745 0.30705 0.50539 0.0
C318 C 0.81502 0.28016 0.49843 0.0
C319 C 0.8912 0.28452 0.53552 0.0
C320 C 0.84886 0.23448 0.55886 0.0
C321 C 0.78954 0.20763 0.55259 0.0
H322 H 0.85749 0.03313 0.76493 0.0
H323 H 0.82956 0.07248 0.70934 0.0
C324 C 0.77271 0.23014 0.52247 0.0
C325 C 0.86672 0.21105 0.59201 0.0
H326 H 0.93667 0.16842 0.56109 0.0
C327 C 0.85408 0.20161 0.66299 0.0
C328 C 0.89665 0.19877 0.55462 0.0
C329 C 0.90943 0.20613 0.47741 0.0
C330 C 0.87135 0.18095 0.69801 0.0
C331 C 0.90117 0.16856 0.66059 0.0
C332 C 0.91394 0.1781 0.58966 0.0
C333 C 0.91848 0.1447 0.69375 0.0
C334 C 0.85856 0.17356 0.77522 0.0
C335 C 0.97774 0.17161 0.70169 0.0
C336 C 0.99401 0.14909 0.73322 0.0
C337 C 0.95119 0.09901 0.75697 0.0
C338 C 0.89177 0.0719 0.74783 0.0
C339 C 0.87563 0.09445 0.71636 0.0
H340 H 0.84995 0.1979 0.80115 0.0
H341 H 0.81893 0.13089 0.7783 0.0
H342 H 0.89562 0.18463 0.80575 0.0
H343 H 1.01145 0.21031 0.6841 0.0
H344 H 1.04012 0.17102 0.73911 0.0
H345 H 0.76553 0.54738 0.35803 0.0
H346 H 0.79882 0.61924 0.4544 0.0
H347 H 0.89864 0.59816 0.55863 0.0
H348 H 0.86706 0.52782 0.46127 0.0
H349 H 0.77858 0.60583 0.60268 0.0
H350 H 1.01573 0.76186 0.55674 0.0
H351 H 0.9618 0.70658 0.48897 0.0
H352 H 0.98748 0.69653 0.56009 0.0
C353 C 0.79534 0.55879 0.40101 0.0
C354 C 0.8129 0.53145 0.40321 0.0
C355 C 0.81401 0.59951 0.45609 0.0
C356 C 0.85125 0.61404 0.51351 0.0
C357 C 0.8702 0.58781 0.5146 0.0
H358 H 0.99937 0.83696 0.90791 0.0
H359 H 0.9675 0.76618 0.81043 0.0
C360 C 0.85137 0.54702 0.45968 0.0
C361 C 0.86791 0.65472 0.57404 0.0
H362 H 0.98506 0.77748 0.66399 0.0
C363 C 0.82366 0.64351 0.61594 0.0
C364 C 0.9268 0.7036 0.59131 0.0
C365 C 0.97577 0.71829 0.5467 0.0
C366 C 0.83683 0.67962 0.67547 0.0
C367 C 0.89571 0.72859 0.69269 0.0
C368 C 0.93998 0.7398 0.65075 0.0
C369 C 0.91228 0.76915 0.75344 0.0
C370 C 0.7878 0.66457 0.7203 0.0
C371 C 0.89133 0.79381 0.75397 0.0
C372 C 0.90917 0.8338 0.80967 0.0
C373 C 0.94879 0.85029 0.86516 0.0
C374 C 0.96862 0.82474 0.86565 0.0
C375 C 0.95081 0.7847 0.8099 0.0
H376 H 0.74852 0.62078 0.7113 0.0
H377 H 0.80214 0.67725 0.77796 0.0
H378 H 0.77475 0.68506 0.70588 0.0
H379 H 0.86195 0.78274 0.7107 0.0
H380 H 0.89179 0.85165 0.8095 0.0
H381 H 0.61319 0.31486 0.50946 0.0
H382 H 0.54534 0.28145 0.60543 0.0
H383 H 0.39873 0.16628 0.45066 0.0
H384 H 0.46569 0.19935 0.35483 0.0
H385 H 0.46011 0.28518 0.61468 0.0
H386 H 0.35854 0.07692 0.60592 0.0
H387 H 0.42646 0.1268 0.56591 0.0
H388 H 0.35741 0.09291 0.52038 0.0
C389 C 0.56669 0.28121 0.49623 0.0
C390 C 0.54471 0.25948 0.42475 0.0
C391 C 0.52809 0.26246 0.55098 0.0
C392 C 0.46725 0.22106 0.53524 0.0
C393 C 0.44554 0.19759 0.4642 0.0
H394 H 0.15445 0.07123 0.76667 0.0
H395 H 0.22512 0.10615 0.67398 0.0
C396 C 0.48388 0.21666 0.40949 0.0
C397 C 0.42609 0.20576 0.59175 0.0
H398 H 0.31008 0.09935 0.67026 0.0
C399 C 0.42763 0.24468 0.62738 0.0
C400 C 0.38357 0.15284 0.60775 0.0
C401 C 0.38158 0.11004 0.5735 0.0
C402 C 0.38687 0.23175 0.67755 0.0
C403 C 0.34398 0.17871 0.69295 0.0
C404 C 0.34268 0.13989 0.6577 0.0
C405 C 0.30154 0.16292 0.74777 0.0
C406 C 0.38915 0.27461 0.71256 0.0
C407 C 0.3214 0.18409 0.81968 0.0
C408 C 0.28138 0.16423 0.87256 0.0
C409 C 0.2207 0.12289 0.85451 0.0
C410 C 0.20078 0.10362 0.78216 0.0
C411 C 0.241 0.12319 0.72924 0.0
H412 H 0.41455 0.3091 0.68231 0.0
H413 H 0.34428 0.25836 0.71744 0.0
H414 H 0.41079 0.28956 0.76702 0.0
H415 H 0.36793 0.2142 0.83521 0.0
H416 H 0.29805 0.17976 0.9279 0.0
H417 H 0.52999 0.38748 0.1444 0.0
H418 H 0.5012 0.42315 0.07997 0.0
H419 H 0.67339 0.53282 0.00032 0.0
H420 H 0.70264 0.49711 0.06404 0.0
H421 H 0.55046 0.52835 0.09081 0.0
H422 H 0.56294 0.45583 0.81882 0.0
H423 H 0.565 0.43326 0.89761 0.0
H424 H 0.62945 0.49743 0.87485 0.0
C425 C 0.56191 0.41927 0.11333 0.0
C426 C 0.61867 0.43931 0.10936 0.0
C427 C 0.54531 0.43961 0.07657 0.0
C428 C 0.58486 0.48008 0.03461 0.0
C429 C 0.64187 0.50095 0.03148 0.0
H430 H 0.56423 0.65239 0.77321 0.0
H431 H 0.59374 0.61692 0.83666 0.0
C432 C 0.65863 0.48074 0.06843 0.0
C433 C 0.56632 0.50054 -0.00537 0.0
H434 H 0.54553 0.51229 0.82665 0.0
C435 C 0.54913 0.52468 0.03305 0.0
C436 C 0.56475 0.49573 0.91928 0.0
C437 C 0.58098 0.46872 0.87504 0.0
C438 C 0.5313 0.54496 -0.00181 0.0
C439 C 0.52951 0.53994 0.92283 0.0
C440 C 0.5468 0.51591 0.88441 0.0
C441 C 0.5105 0.56001 0.88287 0.0
C442 C 0.51595 0.57279 0.04236 0.0
C443 C 0.45343 0.53892 0.88658 0.0
C444 C 0.43627 0.55902 0.85027 0.0
C445 C 0.47586 0.6005 0.80926 0.0
C446 C 0.53256 0.62052 0.80429 0.0
C447 C 0.5496 0.60034 0.84056 0.0
H448 H 0.53298 0.58463 0.09889 0.0
H449 H 0.53385 0.60907 0.02035 0.0
H450 H 0.46755 0.54528 0.0414 0.0
H451 H 0.42219 0.50702 0.91783 0.0
H452 H 0.39228 0.54259 0.85534 0.0
H453 H 0.5165 0.91873 0.67817 0.0
H454 H 0.55251 0.99046 0.7761 0.0
H455 H 0.46744 0.87715 0.92582 0.0
H456 H 0.4318 0.80582 0.82899 0.0
H457 H 0.48799 0.99814 0.86628 0.0
H458 H 0.62967 0.99572 0.02314 0.0
H459 H 0.60217 0.96239 0.93256 0.0
H460 H 0.55599 0.93149 0.00521 0.0
C461 C 0.50607 0.90928 0.73208 0.0
C462 C 0.47213 0.85669 0.74586 0.0
C463 C 0.52663 0.95026 0.78795 0.0
C464 C 0.51363 0.93938 0.8585 0.0
C465 C 0.47955 0.88689 0.87224 0.0
H466 H 0.57701 0.12712 0.26571 0.0
H467 H 0.54204 0.05457 0.16958 0.0
C468 C 0.45923 0.84607 0.81663 0.0
C469 C 0.53295 0.9822 0.91732 0.0
H470 H 0.60914 0.04597 0.07997 0.0
C471 C 0.51482 1.00887 0.91278 0.0
C472 C 0.56757 0.99584 -0.02176 0.0
C473 C 0.59047 0.97023 -0.01504 0.0
C474 C 0.52969 0.0483 0.96787 0.0
C475 C 0.56431 0.06193 0.02872 0.0
C476 C 0.58229 0.03518 0.03345 0.0
C477 C 0.58423 0.10531 0.08676 0.0
C478 C 0.50732 0.07434 0.96099 0.0
C479 C 0.62012 0.15784 0.07218 0.0
C480 C 0.64006 0.1991 0.1267 0.0
C481 C 0.62466 0.18885 0.19716 0.0
C482 C 0.58929 0.13626 0.21195 0.0
C483 C 0.56931 0.09483 0.15714 0.0
H484 H 0.46869 0.04945 0.92199 0.0
H485 H 0.49496 0.08165 0.01321 0.0
H486 H 0.5424 0.11345 0.94189 0.0
H487 H 0.63358 0.16715 0.01871 0.0
H488 H 0.66885 0.23934 0.11378 0.0
H489 H 0.27622 0.63792 0.84047 0.0
H490 H 0.20853 0.60565 0.9361 0.0
H491 H 0.06134 0.49665 0.78016 0.0
H492 H 0.12837 0.52908 0.68461 0.0
H493 H 0.05788 0.56368 0.8693 0.0
H494 H 0.09912 0.46782 0.02578 0.0
H495 H 0.16381 0.53433 0.01051 0.0
H496 H 0.12211 0.48143 0.93631 0.0
C497 C 0.22947 0.60594 0.82677 0.0
C498 C 0.20759 0.58633 0.75503 0.0
C499 C 0.19083 0.58756 0.88146 0.0
C500 C 0.1299 0.54881 0.86514 0.0
C501 C 0.10818 0.52676 0.79384 0.0
H502 H 0.82076 0.4087 0.1024 0.0
H503 H 0.88937 0.44041 0.00806 0.0
C504 C 0.14659 0.54526 0.73934 0.0
C505 C 0.08874 0.53489 0.92107 0.0
H506 H 1.03989 0.48164 0.07644 0.0
C507 C 0.05371 0.54551 0.91449 0.0
C508 C 0.08368 0.5115 -0.01999 0.0
C509 C 0.11876 0.49761 -0.01147 0.0
C510 C 1.01419 0.53394 0.96578 0.0
C511 C 1.00898 0.51039 0.02463 0.0
C512 C 1.04409 0.49985 0.03128 0.0
C513 C 0.96739 0.49608 0.08017 0.0
C514 C 0.97931 0.54804 0.95726 0.0
C515 C 0.98845 0.51741 0.15177 0.0
C516 C 0.94946 0.49917 0.20561 0.0
C517 C 0.88852 0.45911 0.18894 0.0
C518 C 0.86743 0.43995 0.11691 0.0
C519 C 0.90661 0.45803 0.06293 0.0
H520 H 0.99964 0.57851 0.92092 0.0
H521 H 0.93456 0.51161 0.93405 0.0
H522 H 0.97519 0.56348 0.00958 0.0
H523 H 1.03516 0.54695 0.16618 0.0
H524 H 0.96712 0.51495 0.26057 0.0
loop_
_geom_bond_atom_site_label_1
_geom_bond_atom_site_label_2
_geom_bond_distance
_geom_bond_site_symmetry_2
_ccdc_geom_bond_type
C0 O12 1.241 . S
C0 O13 1.280 . S
C1 O14 1.277 1_445 S
C1 O15 1.245 . S
C2 O26 1.247 1_554 S
C2 O28 1.289 . S
Mg3 O4 1.926 1_545 S
Mg3 O13 1.984 1_545 S
Mg3 O15 1.988 . S
Mg3 O16 2.061 . S
O4 Mg3 1.926 1_565 S
O4 Mg5 1.986 1_455 S
O4 Mg6 1.917 1_565 S
Mg5 O4 1.986 1_655 S
Mg5 O12 2.042 1_655 S
Mg5 O14 2.041 . S
Mg5 O20 2.038 . S
Mg5 O28 2.238 . S
Mg6 O4 1.917 1_545 S
Mg6 O7 1.917 1_454 S
Mg6 O17 2.106 1_554 S
Mg6 O19 2.079 1_444 S
Mg6 O28 2.106 1_445 S
Mg6 O29 2.079 . S
O7 Mg6 1.917 1_656 S
O7 Mg8 1.926 1_545 S
O7 Mg9 1.986 1_655 S
Mg8 O7 1.926 1_565 S
Mg8 O22 1.984 1_565 S
Mg8 O25 1.988 . S
Mg8 O26 2.061 . S
Mg9 O7 1.986 1_455 S
Mg9 O17 2.238 . S
Mg9 O21 2.042 1_455 S
Mg9 O23 2.041 . S
Mg9 O30 2.038 . S
C10 O16 1.247 1_556 S
C10 O17 1.289 . S
C11 O29 1.245 . S
C11 O30 1.274 1_554 S
O12 C0 1.241 . S
O12 Mg5 2.042 1_455 S
O13 C0 1.280 . S
O13 Mg3 1.984 1_565 S
O14 C1 1.277 1_665 S
O14 Mg5 2.041 . S
O15 C1 1.245 . S
O15 Mg3 1.988 . S
O16 Mg3 2.061 . S
O16 C10 1.247 1_554 S
O17 Mg6 2.106 1_556 S
O17 Mg9 2.238 . S
O17 C10 1.289 . S
C18 O19 1.245 . S
C18 O20 1.274 1_556 S
O19 Mg6 2.079 1_666 S
O19 C18 1.245 . S
O20 Mg5 2.038 . S
O20 C18 1.274 1_554 S
O21 Mg9 2.042 1_655 S
O21 C24 1.241 . S
O22 Mg8 1.984 1_545 S
O22 C24 1.280 . S
O23 Mg9 2.041 . S
O23 C27 1.277 1_445 S
C24 O21 1.241 . S
C24 O22 1.280 . S
O25 Mg8 1.988 . S
O25 C27 1.245 . S
O26 C2 1.247 1_556 S
O26 Mg8 2.061 . S
C27 O23 1.277 1_665 S
C27 O25 1.245 . S
O28 C2 1.289 . S
O28 Mg5 2.238 . S
O28 Mg6 2.106 1_665 S
O29 Mg6 2.079 . S
O29 C11 1.245 . S
O30 Mg9 2.038 . S
O30 C11 1.274 1_556 S
C31 O43 1.241 . S
C31 O44 1.280 . S
C32 O45 1.277 . S
C32 O46 1.245 . S
C33 O57 1.247 . S
C33 O59 1.289 . S
Mg34 O35 1.926 . S
Mg34 O44 1.984 . S
Mg34 O46 1.988 . S
Mg34 O47 2.061 . S
O35 Mg34 1.926 . S
O35 Mg36 1.986 . S
O35 Mg37 1.917 . S
Mg36 O35 1.986 . S
Mg36 O43 2.042 . S
Mg36 O45 2.041 . S
Mg36 O51 2.038 . S
Mg36 O59 2.238 . S
Mg37 O35 1.917 . S
Mg37 O38 1.917 . S
Mg37 O48 2.106 . S
Mg37 O50 2.079 . S
Mg37 O59 2.106 . S
Mg37 O60 2.079 . S
O38 Mg37 1.917 . S
O38 Mg39 1.926 . S
O38 Mg40 1.986 . S
Mg39 O38 1.926 . S
Mg39 O53 1.984 . S
Mg39 O56 1.988 . S
Mg39 O57 2.061 . S
Mg40 O38 1.986 . S
Mg40 O48 2.238 . S
Mg40 O52 2.042 . S
Mg40 O54 2.041 . S
Mg40 O61 2.038 . S
C41 O47 1.247 . S
C41 O48 1.289 . S
C42 O60 1.245 . S
C42 O61 1.274 . S
O43 C31 1.241 . S
O43 Mg36 2.042 . S
O44 C31 1.280 . S
O44 Mg34 1.984 . S
O45 C32 1.277 . S
O45 Mg36 2.041 . S
O46 C32 1.245 . S
O46 Mg34 1.988 . S
O47 Mg34 2.061 . S
O47 C41 1.247 . S
O48 Mg37 2.106 . S
O48 Mg40 2.238 . S
O48 C41 1.289 . S
C49 O50 1.245 . S
C49 O51 1.274 . S
O50 Mg37 2.079 . S
O50 C49 1.245 . S
O51 Mg36 2.038 . S
O51 C49 1.274 . S
O52 Mg40 2.042 . S
O52 C55 1.241 . S
O53 Mg39 1.984 . S
O53 C55 1.280 . S
O54 Mg40 2.041 . S
O54 C58 1.277 . S
C55 O52 1.241 . S
C55 O53 1.280 . S
O56 Mg39 1.988 . S
O56 C58 1.245 . S
O57 C33 1.247 . S
O57 Mg39 2.061 . S
C58 O54 1.277 . S
C58 O56 1.245 . S
O59 C33 1.289 . S
O59 Mg36 2.238 . S
O59 Mg37 2.106 . S
O60 Mg37 2.079 . S
O60 C42 1.245 . S
O61 Mg40 2.038 . S
O61 C42 1.274 . S
C62 O74 1.241 . S
C62 O75 1.280 . S
C63 O76 1.277 . S
C63 O77 1.245 . S
C64 O88 1.247 . S
C64 O90 1.289 . S
Mg65 O66 1.926 . S
Mg65 O75 1.984 . S
Mg65 O77 1.988 . S
Mg65 O78 2.061 . S
O66 Mg65 1.926 . S
O66 Mg67 1.986 . S
O66 Mg68 1.917 . S
Mg67 O66 1.986 . S
Mg67 O74 2.042 . S
Mg67 O76 2.041 . S
Mg67 O82 2.038 . S
Mg67 O90 2.238 . S
Mg68 O66 1.917 . S
Mg68 O69 1.917 . S
Mg68 O79 2.106 . S
Mg68 O81 2.079 . S
Mg68 O90 2.106 . S
Mg68 O91 2.079 . S
O69 Mg68 1.917 . S
O69 Mg70 1.926 . S
O69 Mg71 1.986 . S
Mg70 O69 1.926 . S
Mg70 O84 1.984 . S
Mg70 O87 1.988 . S
Mg70 O88 2.061 . S
Mg71 O69 1.986 . S
Mg71 O79 2.238 . S
Mg71 O83 2.042 . S
Mg71 O85 2.041 . S
Mg71 O92 2.038 . S
C72 O78 1.247 . S
C72 O79 1.289 . S
C73 O91 1.245 . S
C73 O92 1.274 . S
O74 C62 1.241 . S
O74 Mg67 2.042 . S
O75 C62 1.280 . S
O75 Mg65 1.984 . S
O76 C63 1.277 . S
O76 Mg67 2.041 . S
O77 C63 1.245 . S
O77 Mg65 1.988 . S
O78 Mg65 2.061 . S
O78 C72 1.247 . S
O79 Mg68 2.106 . S
O79 Mg71 2.238 . S
O79 C72 1.289 . S
C80 O81 1.245 . S
C80 O82 1.274 . S
O81 Mg68 2.079 . S
O81 C80 1.245 . S
O82 Mg67 2.038 . S
O82 C80 1.274 . S
O83 Mg71 2.042 . S
O83 C86 1.241 . S
O84 Mg70 1.984 . S
O84 C86 1.280 . S
O85 Mg71 2.041 . S
O85 C89 1.277 . S
C86 O83 1.241 . S
C86 O84 1.280 . S
O87 Mg70 1.988 . S
O87 C89 1.245 . S
O88 C64 1.247 . S
O88 Mg70 2.061 . S
C89 O85 1.277 . S
C89 O87 1.245 . S
O90 C64 1.289 . S
O90 Mg67 2.238 . S
O90 Mg68 2.106 . S
O91 Mg68 2.079 . S
O91 C73 1.245 . S
O92 Mg71 2.038 . S
O92 C73 1.274 . S
H93 C101 0.929 . S
H94 C103 0.930 . S
H95 C105 0.930 . S
H96 C108 0.929 . S
H97 C111 0.930 . S
H98 C113 0.960 . S
H99 C113 0.960 . S
H100 C113 0.960 . S
C101 H93 0.929 . S
C101 C102 1.377 . S
C101 C103 1.384 . S
C102 C101 1.377 . S
C102 C108 1.390 1_665 S
C103 H94 0.930 . S
C103 C101 1.384 . S
C103 C104 1.372 . S
C104 C103 1.372 . S
C104 C105 1.400 1_665 S
C104 C109 1.490 . S
C105 H95 0.930 . S
C105 C104 1.400 1_445 S
C105 C108 1.386 . S
H106 C122 0.930 . S
H107 C123 0.931 . S
C108 H96 0.929 . S
C108 C102 1.390 1_445 S
C108 C105 1.386 . S
C109 C104 1.490 . S
C109 C111 1.395 1_565 S
C109 C112 1.403 1_655 S
H110 C116 0.930 . S
C111 H97 0.930 . S
C111 C109 1.395 1_545 S
C111 C114 1.403 . S
C112 C109 1.403 1_455 S
C112 C113 1.524 . S
C112 C116 1.400 . S
C113 H98 0.960 . S
C113 H99 0.960 . S
C113 H100 0.960 . S
C113 C112 1.524 . S
C114 C111 1.403 . S
C114 C115 1.392 1_655 S
C114 C118 1.495 . S
C115 C114 1.392 1_455 S
C115 C116 1.385 1_545 S
C115 C117 1.478 . S
C116 H110 0.930 . S
C116 C112 1.400 . S
C116 C115 1.385 1_565 S
C117 C115 1.478 . S
C117 C119 1.381 1_445 S
C117 C123 1.383 . S
C118 C114 1.495 . S
C118 H124 0.959 . S
C118 H125 0.961 . S
C118 H126 0.960 . S
C119 C117 1.381 1_665 S
C119 C120 1.394 . S
C119 H127 0.930 . S
C120 C119 1.394 . S
C120 C121 1.383 1_665 S
C120 H128 0.929 . S
C121 C120 1.383 1_445 S
C121 C122 1.377 . S
C122 H106 0.930 . S
C122 C121 1.377 . S
C122 C123 1.379 . S
C123 H107 0.931 . S
C123 C117 1.383 . S
C123 C122 1.379 . S
H124 C118 0.959 . S
H125 C118 0.961 . S
H126 C118 0.960 . S
H127 C119 0.930 . S
H128 C120 0.929 . S
H129 C137 0.929 . S
H130 C139 0.930 . S
H131 C141 0.930 . S
H132 C144 0.929 . S
H133 C147 0.930 . S
H134 C149 0.960 . S
H135 C149 0.960 . S
H136 C149 0.960 . S
C137 H129 0.929 . S
C137 C138 1.377 . S
C137 C139 1.384 . S
C138 C137 1.377 . S
C138 C144 1.390 . S
C139 H130 0.930 . S
C139 C137 1.384 . S
C139 C140 1.372 . S
C140 C139 1.372 . S
C140 C141 1.400 . S
C140 C145 1.490 . S
C141 H131 0.930 . S
C141 C140 1.400 . S
C141 C144 1.386 . S
H142 C158 0.930 . S
H143 C159 0.931 1_556 S
C144 H132 0.929 . S
C144 C138 1.390 . S
C144 C141 1.386 . S
C145 C140 1.490 . S
C145 C147 1.395 . S
C145 C148 1.403 . S
H146 C152 0.930 . S
C147 H133 0.930 . S
C147 C145 1.395 . S
C147 C150 1.403 . S
C148 C145 1.403 . S
C148 C149 1.524 . S
C148 C152 1.400 . S
C149 H134 0.960 . S
C149 H135 0.960 . S
C149 H136 0.960 . S
C149 C148 1.524 . S
C150 C147 1.403 . S
C150 C151 1.392 . S
C150 C154 1.495 . S
C151 C150 1.392 . S
C151 C152 1.385 . S
C151 C153 1.478 . S
C152 H146 0.930 . S
C152 C148 1.400 . S
C152 C151 1.385 . S
C153 C151 1.478 . S
C153 C155 1.381 1_556 S
C153 C159 1.383 1_556 S
C154 C150 1.495 . S
C154 H160 0.959 . S
C154 H161 0.961 . S
C154 H162 0.960 . S
C155 C153 1.381 1_554 S
C155 C156 1.394 . S
C155 H163 0.930 . S
C156 C155 1.394 . S
C156 C157 1.383 . S
C156 H164 0.929 . S
C157 C156 1.383 . S
C157 C158 1.377 . S
C158 H142 0.930 . S
C158 C157 1.377 . S
C158 C159 1.379 . S
C159 H143 0.931 1_554 S
C159 C153 1.383 1_554 S
C159 C158 1.379 . S
H160 C154 0.959 . S
H161 C154 0.961 . S
H162 C154 0.960 . S
H163 C155 0.930 . S
H164 C156 0.929 . S
H165 C173 0.929 . S
H166 C175 0.932 . S
H167 C177 0.930 . S
H168 C180 0.929 . S
H169 C183 0.930 . S
H170 C185 0.960 . S
H171 C185 0.960 . S
H172 C185 0.960 . S
C173 H165 0.929 . S
C173 C174 1.377 . S
C173 C175 1.384 . S
C174 C173 1.377 . S
C174 C180 1.390 . S
C175 H166 0.932 . S
C175 C173 1.384 . S
C175 C176 1.372 1_556 S
C176 C175 1.372 1_554 S
C176 C177 1.400 1_554 S
C176 C181 1.490 . S
C177 H167 0.930 . S
C177 C176 1.400 1_556 S
C177 C180 1.386 . S
H178 C194 0.930 . S
H179 C195 0.931 . S
C180 H168 0.929 . S
C180 C174 1.390 . S
C180 C177 1.386 . S
C181 C176 1.490 . S
C181 C183 1.395 . S
C181 C184 1.403 . S
H182 C188 0.930 . S
C183 H169 0.930 . S
C183 C181 1.395 . S
C183 C186 1.403 . S
C184 C181 1.403 . S
C184 C185 1.524 . S
C184 C188 1.400 . S
C185 H170 0.960 . S
C185 H171 0.960 . S
C185 H172 0.960 . S
C185 C184 1.524 . S
C186 C183 1.403 . S
C186 C187 1.392 . S
C186 C190 1.495 . S
C187 C186 1.392 . S
C187 C188 1.385 . S
C187 C189 1.478 . S
C188 H182 0.930 . S
C188 C184 1.400 . S
C188 C187 1.385 . S
C189 C187 1.478 . S
C189 C191 1.381 . S
C189 C195 1.383 . S
C190 C186 1.495 . S
C190 H196 0.959 . S
C190 H197 0.961 . S
C190 H198 0.960 . S
C191 C189 1.381 . S
C191 C192 1.394 . S
C191 H199 0.930 . S
C192 C191 1.394 . S
C192 C193 1.383 . S
C192 H200 0.929 . S
C193 C192 1.383 . S
C193 C194 1.377 . S
C194 H178 0.930 . S
C194 C193 1.377 . S
C194 C195 1.379 . S
C195 H179 0.931 . S
C195 C189 1.383 . S
C195 C194 1.379 . S
H196 C190 0.959 . S
H197 C190 0.961 . S
H198 C190 0.960 . S
H199 C191 0.930 . S
H200 C192 0.929 . S
H201 C209 0.929 . S
H202 C211 0.930 . S
H203 C213 0.930 . S
H204 C216 0.929 . S
H205 C219 0.930 . S
H206 C221 0.960 . S
H207 C221 0.960 . S
H208 C221 0.960 . S
C209 H201 0.929 . S
C209 C210 1.377 . S
C209 C211 1.384 . S
C210 C209 1.377 . S
C210 C216 1.390 . S
C211 H202 0.930 . S
C211 C209 1.384 . S
C211 C212 1.372 . S
C212 C211 1.372 . S
C212 C213 1.400 . S
C212 C217 1.490 . S
C213 H203 0.930 . S
C213 C212 1.400 . S
C213 C216 1.386 . S
H214 C230 0.930 . S
H215 C231 0.931 . S
C216 H204 0.929 . S
C216 C210 1.390 . S
C216 C213 1.386 . S
C217 C212 1.490 . S
C217 C219 1.395 . S
C217 C220 1.403 . S
H218 C224 0.930 . S
C219 H205 0.930 . S
C219 C217 1.395 . S
C219 C222 1.403 . S
C220 C217 1.403 . S
C220 C221 1.524 . S
C220 C224 1.400 . S
C221 H206 0.960 . S
C221 H207 0.960 . S
C221 H208 0.960 . S
C221 C220 1.524 . S
C222 C219 1.403 . S
C222 C223 1.392 . S
C222 C226 1.495 . S
C223 C222 1.392 . S
C223 C224 1.385 . S
C223 C225 1.478 . S
C224 H218 0.930 . S
C224 C220 1.400 . S
C224 C223 1.385 . S
C225 C223 1.478 . S
C225 C227 1.381 . S
C225 C231 1.383 . S
C226 C222 1.495 . S
C226 H232 0.959 . S
C226 H233 0.961 . S
C226 H234 0.960 . S
C227 C225 1.381 . S
C227 C228 1.394 . S
C227 H235 0.930 . S
C228 C227 1.394 . S
C228 C229 1.383 . S
C228 H236 0.929 . S
C229 C228 1.383 . S
C229 C230 1.377 . S
C230 H214 0.930 . S
C230 C229 1.377 . S
C230 C231 1.379 . S
C231 H215 0.931 . S
C231 C225 1.383 . S
C231 C230 1.379 . S
H232 C226 0.959 . S
H233 C226 0.961 . S
H234 C226 0.960 . S
H235 C227 0.930 . S
H236 C228 0.929 . S
H237 C245 0.929 . S
H238 C247 0.930 . S
H239 C249 0.930 . S
H240 C252 0.929 . S
H241 C255 0.930 . S
H242 C257 0.960 . S
H243 C257 0.960 . S
H244 C257 0.960 . S
C245 H237 0.929 . S
C245 C246 1.377 . S
C245 C247 1.384 . S
C246 C245 1.377 . S
C246 C252 1.390 . S
C247 H238 0.930 . S
C247 C245 1.384 . S
C247 C248 1.372 . S
C248 C247 1.372 . S
C248 C249 1.400 . S
C248 C253 1.490 . S
C249 H239 0.930 . S
C249 C248 1.400 . S
C249 C252 1.386 . S
H250 C266 0.930 . S
H251 C267 0.931 . S
C252 H240 0.929 . S
C252 C246 1.390 . S
C252 C249 1.386 . S
C253 C248 1.490 . S
C253 C255 1.395 . S
C253 C256 1.403 . S
H254 C260 0.930 . S
C255 H241 0.930 . S
C255 C253 1.395 . S
C255 C258 1.403 . S
C256 C253 1.403 . S
C256 C257 1.524 . S
C256 C260 1.400 . S
C257 H242 0.960 . S
C257 H243 0.960 . S
C257 H244 0.960 . S
C257 C256 1.524 . S
C258 C255 1.403 . S
C258 C259 1.392 . S
C258 C262 1.495 . S
C259 C258 1.392 . S
C259 C260 1.385 . S
C259 C261 1.478 . S
C260 H254 0.930 . S
C260 C256 1.400 . S
C260 C259 1.385 . S
C261 C259 1.478 . S
C261 C263 1.381 . S
C261 C267 1.383 . S
C262 C258 1.495 . S
C262 H268 0.959 . S
C262 H269 0.961 . S
C262 H270 0.960 . S
C263 C261 1.381 . S
C263 C264 1.394 . S
C263 H271 0.930 . S
C264 C263 1.394 . S
C264 C265 1.383 . S
C264 H272 0.929 . S
C265 C264 1.383 . S
C265 C266 1.377 . S
C266 H250 0.930 . S
C266 C265 1.377 . S
C266 C267 1.379 . S
C267 H251 0.931 . S
C267 C261 1.383 . S
C267 C266 1.379 . S
H268 C262 0.959 . S
H269 C262 0.961 . S
H270 C262 0.960 . S
H271 C263 0.930 . S
H272 C264 0.929 . S
H273 C281 0.929 . S
H274 C283 0.930 . S
H275 C285 0.930 . S
H276 C288 0.929 . S
H277 C291 0.930 . S
H278 C293 0.960 . S
H279 C293 0.960 . S
H280 C293 0.960 . S
C281 H273 0.929 . S
C281 C282 1.377 . S
C281 C283 1.384 . S
C282 C281 1.377 . S
C282 C288 1.390 . S
C283 H274 0.930 . S
C283 C281 1.384 . S
C283 C284 1.372 . S
C284 C283 1.372 . S
C284 C285 1.400 . S
C284 C289 1.490 . S
C285 H275 0.930 . S
C285 C284 1.400 . S
C285 C288 1.386 . S
H286 C302 0.930 . S
H287 C303 0.931 . S
C288 H276 0.929 . S
C288 C282 1.390 . S
C288 C285 1.386 . S
C289 C284 1.490 . S
C289 C291 1.395 . S
C289 C292 1.403 . S
H290 C296 0.930 . S
C291 H277 0.930 . S
C291 C289 1.395 . S
C291 C294 1.403 . S
C292 C289 1.403 . S
C292 C293 1.524 . S
C292 C296 1.400 . S
C293 H278 0.960 . S
C293 H279 0.960 . S
C293 H280 0.960 . S
C293 C292 1.524 . S
C294 C291 1.403 . S
C294 C295 1.392 . S
C294 C298 1.495 . S
C295 C294 1.392 . S
C295 C296 1.385 . S
C295 C297 1.478 . S
C296 H290 0.930 . S
C296 C292 1.400 . S
C296 C295 1.385 . S
C297 C295 1.478 . S
C297 C299 1.381 . S
C297 C303 1.383 . S
C298 C294 1.495 . S
C298 H304 0.959 . S
C298 H305 0.961 . S
C298 H306 0.960 . S
C299 C297 1.381 . S
C299 C300 1.394 . S
C299 H307 0.930 . S
C300 C299 1.394 . S
C300 C301 1.383 . S
C300 H308 0.929 . S
C301 C300 1.383 . S
C301 C302 1.377 . S
C302 H286 0.930 . S
C302 C301 1.377 . S
C302 C303 1.379 . S
C303 H287 0.931 . S
C303 C297 1.383 . S
C303 C302 1.379 . S
H304 C298 0.959 . S
H305 C298 0.961 . S
H306 C298 0.960 . S
H307 C299 0.930 . S
H308 C300 0.929 . S
H309 C317 0.929 . S
H310 C319 0.930 . S
H311 C321 0.930 . S
H312 C324 0.929 . S
H313 C327 0.930 . S
H314 C329 0.960 . S
H315 C329 0.960 . S
H316 C329 0.960 . S
C317 H309 0.929 . S
C317 C318 1.377 . S
C317 C319 1.384 . S
C318 C317 1.377 . S
C318 C324 1.390 . S
C319 H310 0.930 . S
C319 C317 1.384 . S
C319 C320 1.372 . S
C320 C319 1.372 . S
C320 C321 1.400 . S
C320 C325 1.490 . S
C321 H311 0.930 . S
C321 C320 1.400 . S
C321 C324 1.386 . S
H322 C338 0.930 . S
H323 C339 0.931 . S
C324 H312 0.929 . S
C324 C318 1.390 . S
C324 C321 1.386 . S
C325 C320 1.490 . S
C325 C327 1.395 . S
C325 C328 1.403 . S
H326 C332 0.930 . S
C327 H313 0.930 . S
C327 C325 1.395 . S
C327 C330 1.403 . S
C328 C325 1.403 . S
C328 C329 1.524 . S
C328 C332 1.400 . S
C329 H314 0.960 . S
C329 H315 0.960 . S
C329 H316 0.960 . S
C329 C328 1.524 . S
C330 C327 1.403 . S
C330 C331 1.392 . S
C330 C334 1.495 . S
C331 C330 1.392 . S
C331 C332 1.385 . S
C331 C333 1.478 . S
C332 H326 0.930 . S
C332 C328 1.400 . S
C332 C331 1.385 . S
C333 C331 1.478 . S
C333 C335 1.381 . S
C333 C339 1.383 . S
C334 C330 1.495 . S
C334 H340 0.959 . S
C334 H341 0.961 . S
C334 H342 0.960 . S
C335 C333 1.381 . S
C335 C336 1.394 . S
C335 H343 0.930 . S
C336 C335 1.394 . S
C336 C337 1.383 . S
C336 H344 0.929 . S
C337 C336 1.383 . S
C337 C338 1.377 . S
C338 H322 0.930 . S
C338 C337 1.377 . S
C338 C339 1.379 . S
C339 H323 0.931 . S
C339 C333 1.383 . S
C339 C338 1.379 . S
H340 C334 0.959 . S
H341 C334 0.961 . S
H342 C334 0.960 . S
H343 C335 0.930 . S
H344 C336 0.929 . S
H345 C353 0.929 . S
H346 C355 0.930 . S
H347 C357 0.930 . S
H348 C360 0.929 . S
H349 C363 0.930 . S
H350 C365 0.960 . S
H351 C365 0.960 . S
H352 C365 0.960 . S
C353 H345 0.929 . S
C353 C354 1.377 . S
C353 C355 1.384 . S
C354 C353 1.377 . S
C354 C360 1.390 . S
C355 H346 0.930 . S
C355 C353 1.384 . S
C355 C356 1.372 . S
C356 C355 1.372 . S
C356 C357 1.400 . S
C356 C361 1.490 . S
C357 H347 0.930 . S
C357 C356 1.400 . S
C357 C360 1.386 . S
H358 C374 0.930 . S
H359 C375 0.931 . S
C360 H348 0.929 . S
C360 C354 1.390 . S
C360 C357 1.386 . S
C361 C356 1.490 . S
C361 C363 1.395 . S
C361 C364 1.403 . S
H362 C368 0.930 . S
C363 H349 0.930 . S
C363 C361 1.395 . S
C363 C366 1.403 . S
C364 C361 1.403 . S
C364 C365 1.524 . S
C364 C368 1.400 . S
C365 H350 0.960 . S
C365 H351 0.960 . S
C365 H352 0.960 . S
C365 C364 1.524 . S
C366 C363 1.403 . S
C366 C367 1.392 . S
C366 C370 1.495 . S
C367 C366 1.392 . S
C367 C368 1.385 . S
C367 C369 1.478 . S
C368 H362 0.930 . S
C368 C364 1.400 . S
C368 C367 1.385 . S
C369 C367 1.478 . S
C369 C371 1.381 . S
C369 C375 1.383 . S
C370 C366 1.495 . S
C370 H376 0.959 . S
C370 H377 0.961 . S
C370 H378 0.960 . S
C371 C369 1.381 . S
C371 C372 1.394 . S
C371 H379 0.930 . S
C372 C371 1.394 . S
C372 C373 1.383 . S
C372 H380 0.929 . S
C373 C372 1.383 . S
C373 C374 1.377 . S
C374 H358 0.930 . S
C374 C373 1.377 . S
C374 C375 1.379 . S
C375 H359 0.931 . S
C375 C369 1.383 . S
C375 C374 1.379 . S
H376 C370 0.959 . S
H377 C370 0.961 . S
H378 C370 0.960 . S
H379 C371 0.930 . S
H380 C372 0.929 . S
H381 C389 0.929 . S
H382 C391 0.930 . S
H383 C393 0.930 . S
H384 C396 0.929 . S
H385 C399 0.930 . S
H386 C401 0.960 . S
H387 C401 0.960 . S
H388 C401 0.960 . S
C389 H381 0.929 . S
C389 C390 1.377 . S
C389 C391 1.384 . S
C390 C389 1.377 . S
C390 C396 1.390 . S
C391 H382 0.930 . S
C391 C389 1.384 . S
C391 C392 1.372 . S
C392 C391 1.372 . S
C392 C393 1.400 . S
C392 C397 1.490 . S
C393 H383 0.930 . S
C393 C392 1.400 . S
C393 C396 1.386 . S
H394 C410 0.930 . S
H395 C411 0.931 . S
C396 H384 0.929 . S
C396 C390 1.390 . S
C396 C393 1.386 . S
C397 C392 1.490 . S
C397 C399 1.395 . S
C397 C400 1.403 . S
H398 C404 0.930 . S
C399 H385 0.930 . S
C399 C397 1.395 . S
C399 C402 1.403 . S
C400 C397 1.403 . S
C400 C401 1.524 . S
C400 C404 1.400 . S
C401 H386 0.960 . S
C401 H387 0.960 . S
C401 H388 0.960 . S
C401 C400 1.524 . S
C402 C399 1.403 . S
C402 C403 1.392 . S
C402 C406 1.495 . S
C403 C402 1.392 . S
C403 C404 1.385 . S
C403 C405 1.478 . S
C404 H398 0.930 . S
C404 C400 1.400 . S
C404 C403 1.385 . S
C405 C403 1.478 . S
C405 C407 1.381 . S
C405 C411 1.383 . S
C406 C402 1.495 . S
C406 H412 0.959 . S
C406 H413 0.961 . S
C406 H414 0.960 . S
C407 C405 1.381 . S
C407 C408 1.394 . S
C407 H415 0.930 . S
C408 C407 1.394 . S
C408 C409 1.383 . S
C408 H416 0.929 . S
C409 C408 1.383 . S
C409 C410 1.377 . S
C410 H394 0.930 . S
C410 C409 1.377 . S
C410 C411 1.379 . S
C411 H395 0.931 . S
C411 C405 1.383 . S
C411 C410 1.379 . S
H412 C406 0.959 . S
H413 C406 0.961 . S
H414 C406 0.960 . S
H415 C407 0.930 . S
H416 C408 0.929 . S
H417 C425 0.929 . S
H418 C427 0.930 . S
H419 C429 0.930 . S
H420 C432 0.929 . S
H421 C435 0.930 . S
H422 C437 0.960 . S
H423 C437 0.960 . S
H424 C437 0.960 1_554 S
C425 H417 0.929 . S
C425 C426 1.377 . S
C425 C427 1.384 . S
C426 C425 1.377 . S
C426 C432 1.390 . S
C427 H418 0.930 . S
C427 C425 1.384 . S
C427 C428 1.372 . S
C428 C427 1.372 . S
C428 C429 1.400 . S
C428 C433 1.490 . S
C429 H419 0.930 . S
C429 C428 1.400 . S
C429 C432 1.386 . S
H430 C446 0.930 . S
H431 C447 0.931 . S
C432 H420 0.929 . S
C432 C426 1.390 . S
C432 C429 1.386 . S
C433 C428 1.490 . S
C433 C435 1.395 . S
C433 C436 1.403 1_554 S
H434 C440 0.930 . S
C435 H421 0.930 . S
C435 C433 1.395 . S
C435 C438 1.403 . S
C436 C433 1.403 1_556 S
C436 C437 1.524 . S
C436 C440 1.400 . S
C437 H422 0.960 . S
C437 H423 0.960 . S
C437 H424 0.960 1_556 S
C437 C436 1.524 . S
C438 C435 1.403 . S
C438 C439 1.392 1_554 S
C438 C442 1.495 . S
C439 C438 1.392 1_556 S
C439 C440 1.385 . S
C439 C441 1.478 . S
C440 H434 0.930 . S
C440 C436 1.400 . S
C440 C439 1.385 . S
C441 C439 1.478 . S
C441 C443 1.381 . S
C441 C447 1.383 . S
C442 C438 1.495 . S
C442 H448 0.959 . S
C442 H449 0.961 . S
C442 H450 0.960 1_554 S
C443 C441 1.381 . S
C443 C444 1.394 . S
C443 H451 0.930 . S
C444 C443 1.394 . S
C444 C445 1.383 . S
C444 H452 0.929 . S
C445 C444 1.383 . S
C445 C446 1.377 . S
C446 H430 0.930 . S
C446 C445 1.377 . S
C446 C447 1.379 . S
C447 H431 0.931 . S
C447 C441 1.383 . S
C447 C446 1.379 . S
H448 C442 0.959 . S
H449 C442 0.961 . S
H450 C442 0.960 1_556 S
H451 C443 0.930 . S
H452 C444 0.929 . S
H453 C461 0.929 . S
H454 C463 0.930 . S
H455 C465 0.930 . S
H456 C468 0.929 . S
H457 C471 0.930 . S
H458 C473 0.960 . S
H459 C473 0.960 . S
H460 C473 0.960 . S
C461 H453 0.929 . S
C461 C462 1.377 . S
C461 C463 1.384 . S
C462 C461 1.377 . S
C462 C468 1.390 . S
C463 H454 0.930 . S
C463 C461 1.384 . S
C463 C464 1.372 . S
C464 C463 1.372 . S
C464 C465 1.400 . S
C464 C469 1.490 . S
C465 H455 0.930 . S
C465 C464 1.400 . S
C465 C468 1.386 . S
H466 C482 0.930 . S
H467 C483 0.931 . S
C468 H456 0.929 . S
C468 C462 1.390 . S
C468 C465 1.386 . S
C469 C464 1.490 . S
C469 C471 1.395 . S
C469 C472 1.403 1_556 S
H470 C476 0.930 . S
C471 H457 0.930 . S
C471 C469 1.395 . S
C471 C474 1.403 1_565 S
C472 C469 1.403 1_554 S
C472 C473 1.524 . S
C472 C476 1.400 1_565 S
C473 H458 0.960 . S
C473 H459 0.960 . S
C473 H460 0.960 . S
C473 C472 1.524 . S
C474 C471 1.403 1_545 S
C474 C475 1.392 1_556 S
C474 C478 1.495 . S
C475 C474 1.392 1_554 S
C475 C476 1.385 . S
C475 C477 1.478 . S
C476 H470 0.930 . S
C476 C472 1.400 1_545 S
C476 C475 1.385 . S
C477 C475 1.478 . S
C477 C479 1.381 . S
C477 C483 1.383 . S
C478 C474 1.495 . S
C478 H484 0.959 . S
C478 H485 0.961 . S
C478 H486 0.960 . S
C479 C477 1.381 . S
C479 C480 1.394 . S
C479 H487 0.930 . S
C480 C479 1.394 . S
C480 C481 1.383 . S
C480 H488 0.929 . S
C481 C480 1.383 . S
C481 C482 1.377 . S
C482 H466 0.930 . S
C482 C481 1.377 . S
C482 C483 1.379 . S
C483 H467 0.931 . S
C483 C477 1.383 . S
C483 C482 1.379 . S
H484 C478 0.959 . S
H485 C478 0.961 . S
H486 C478 0.960 . S
H487 C479 0.930 . S
H488 C480 0.929 . S
H489 C497 0.929 . S
H490 C499 0.930 . S
H491 C501 0.930 . S
H492 C504 0.929 . S
H493 C507 0.930 . S
H494 C509 0.960 . S
H495 C509 0.960 . S
H496 C509 0.960 . S
C497 H489 0.929 . S
C497 C498 1.377 . S
C497 C499 1.384 . S
C498 C497 1.377 . S
C498 C504 1.390 . S
C499 H490 0.930 . S
C499 C497 1.384 . S
C499 C500 1.372 . S
C500 C499 1.372 . S
C500 C501 1.400 . S
C500 C505 1.490 . S
C501 H491 0.930 . S
C501 C500 1.400 . S
C501 C504 1.386 . S
H502 C518 0.930 . S
H503 C519 0.931 . S
C504 H492 0.929 . S
C504 C498 1.390 . S
C504 C501 1.386 . S
C505 C500 1.490 . S
C505 C507 1.395 1_455 S
C505 C508 1.403 1_556 S
H506 C512 0.930 . S
C507 H493 0.930 . S
C507 C505 1.395 1_655 S
C507 C510 1.403 . S
C508 C505 1.403 1_554 S
C508 C509 1.524 . S
C508 C512 1.400 1_455 S
C509 H494 0.960 . S
C509 H495 0.960 . S
C509 H496 0.960 . S
C509 C508 1.524 . S
C510 C507 1.403 . S
C510 C511 1.392 1_556 S
C510 C514 1.495 . S
C511 C510 1.392 1_554 S
C511 C512 1.385 . S
C511 C513 1.478 . S
C512 H506 0.930 . S
C512 C508 1.400 1_655 S
C512 C511 1.385 . S
C513 C511 1.478 . S
C513 C515 1.381 . S
C513 C519 1.383 . S
C514 C510 1.495 . S
C514 H520 0.959 . S
C514 H521 0.961 . S
C514 H522 0.960 . S
C515 C513 1.381 . S
C515 C516 1.394 . S
C515 H523 0.930 . S
C516 C515 1.394 . S
C516 C517 1.383 . S
C516 H524 0.929 . S
C517 C516 1.383 . S
C517 C518 1.377 . S
C518 H502 0.930 . S
C518 C517 1.377 . S
C518 C519 1.379 . S
C519 H503 0.931 . S
C519 C513 1.383 . S
C519 C518 1.379 . S
H520 C514 0.959 . S
H521 C514 0.961 . S
H522 C514 0.960 . S
H523 C515 0.930 . S
H524 C516 0.929 . S
C102 C27 1.058 . S
C121 C1 1.087 . S
C138 C32 1.057 . S
C157 C58 1.055 . S
C174 C63 1.047 . S
C193 C89 1.056 . S
C210 C86 2.169 . S
C229 C0 2.185 . S
C246 C80 2.111 . S
C265 C11 2.115 . S
C282 C72 1.679 . S
C301 C2 1.671 . S
C318 C31 2.164 . S
C337 C24 2.179 . S
C354 C42 2.108 . S
C373 C18 2.099 . S
C390 C33 1.679 . S
C409 C10 1.677 . S
C426 C55 2.161 . S
C445 C62 2.156 . S
C462 C73 2.109 . S
C481 C49 2.112 . S
C498 C64 1.679 . S
C517 C41 1.679 . S
