# Generated by pormake.
# Topology sml, (6)-cn, num edge types: 1
# Building blocks:
#     Node 0, Type 0, BuildingBlock: BETFEN_clean_sbu_0, # of connection points: 6
#     Node 1, Type 0, BuildingBlock: BETFEN_clean_sbu_0, # of connection points: 6
#     Node 2, Type 0, BuildingBlock: BETFEN_clean_sbu_0, # of connection points: 6
#     Node 3, Type 0, BuildingBlock: BETFEN_clean_sbu_0, # of connection points: 6
#     Node 4, Type 0, BuildingBlock: BETFEN_clean_sbu_0, # of connection points: 6
#     Node 5, Type 0, BuildingBlock: BETFEN_clean_sbu_0, # of connection points: 6
#     Edge 6, Type (0, 0), BuildingBlock: XUDNAN_clean_linker_2, # of connection points: 2
#     Edge 7, Type (0, 0), BuildingBlock: XUDNAN_clean_linker_2, # of connection points: 2
#     Edge 8, Type (0, 0), BuildingBlock: XUDNAN_clean_linker_2, # of connection points: 2
#     Edge 9, Type (0, 0), BuildingBlock: XUDNAN_clean_linker_2, # of connection points: 2
#     Edge 10, Type (0, 0), BuildingBlock: XUDNAN_clean_linker_2, # of connection points: 2
#     Edge 11, Type (0, 0), BuildingBlock: XUDNAN_clean_linker_2, # of connection points: 2
#     Edge 12, Type (0, 0), BuildingBlock: XUDNAN_clean_linker_2, # of connection points: 2
#     Edge 13, Type (0, 0), BuildingBlock: XUDNAN_clean_linker_2, # of connection points: 2
#     Edge 14, Type (0, 0), BuildingBlock: XUDNAN_clean_linker_2, # of connection points: 2
#     Edge 15, Type (0, 0), BuildingBlock: XUDNAN_clean_linker_2, # of connection points: 2
#     Edge 16, Type (0, 0), BuildingBlock: XUDNAN_clean_linker_2, # of connection points: 2
#     Edge 17, Type (0, 0), BuildingBlock: XUDNAN_clean_linker_2, # of connection points: 2
#     Edge 18, Type (0, 0), BuildingBlock: XUDNAN_clean_linker_2, # of connection points: 2
#     Edge 19, Type (0, 0), BuildingBlock: XUDNAN_clean_linker_2, # of connection points: 2
#     Edge 20, Type (0, 0), BuildingBlock: XUDNAN_clean_linker_2, # of connection points: 2
#     Edge 21, Type (0, 0), BuildingBlock: XUDNAN_clean_linker_2, # of connection points: 2
#     Edge 22, Type (0, 0), BuildingBlock: XUDNAN_clean_linker_2, # of connection points: 2
#     Edge 23, Type (0, 0), BuildingBlock: XUDNAN_clean_linker_2, # of connection points: 2
# Relax obj value: 0.191
# Max RMSD: 0.222
# Mean RMSD: 0.222
data_MOF--net-sml--node1-BETFEN_clean_sbu_0--edge1-XUDNAN_clean_linker_2
_symmetry_space_group_name_H-M    P1
_symmetry_Int_Tables_number       1
_symmetry_cell_setting            triclinic
loop_
_symmetry_equiv_pos_as_xyz
'x, y, z'
_cell_length_a     32.132232
_cell_length_b     32.104888
_cell_length_c     25.432783
_cell_angle_alpha  90.071622
_cell_angle_beta   89.617282
_cell_angle_gamma 119.92692
loop_
_atom_site_label
_atom_site_type_symbol
_atom_site_fract_x
_atom_site_fract_y
_atom_site_fract_z
_atom_type_partial_charge
Pr0 Pr 0.27403 0.4255 0.23288 0.0
Pr1 Pr 0.20692 0.41042 0.13344 0.0
C2 C 0.31629 0.43585 0.32729 0.0
C3 C 0.30765 0.43124 0.38468 0.0
C4 C 0.34526 0.43839 0.41787 0.0
C5 C 0.33798 0.43181 0.47221 0.0
C6 C 0.29277 0.41786 0.49481 0.0
C7 C 0.25525 0.4118 0.46147 0.0
C8 C 0.26257 0.41821 0.4068 0.0
C9 C 0.27845 0.37087 0.15006 0.0
C10 C 0.15414 0.34984 0.23971 0.0
C11 C 0.1706 0.39233 0.03523 0.0
C12 C 0.18778 0.39374 0.98085 0.0
C13 C 0.15756 0.38747 0.93843 0.0
C14 C 0.17281 0.38754 0.88664 0.0
C15 C 0.21869 0.3938 0.87611 0.0
C16 C 0.24899 0.40039 0.91899 0.0
C17 C 0.23375 0.40048 0.97077 0.0
C18 C 0.20106 0.46655 0.21289 0.0
C19 C 0.32485 0.49352 0.13048 0.0
O20 O 0.31513 0.4712 0.30296 0.0
O21 O 0.29744 0.39597 0.30009 0.0
O22 O 0.24092 0.36905 0.16779 0.0
O23 O 0.31564 0.39956 0.17784 0.0
O24 O 0.14947 0.35129 0.18822 0.0
O25 O 0.19524 0.37701 0.26421 0.0
O26 O 0.16963 0.35927 0.06617 0.0
O27 O 0.18592 0.43374 0.05874 0.0
O28 O 0.23904 0.46671 0.19916 0.0
O29 O 0.16596 0.44196 0.18047 0.0
O30 O 0.32924 0.49 0.18169 0.0
O31 O 0.28512 0.46484 0.10458 0.0
H32 H 0.38034 0.44854 0.40164 0.0
H33 H 0.36792 0.43762 0.49658 0.0
H34 H 0.21992 0.4008 0.47745 0.0
H35 H 0.23294 0.41227 0.3818 0.0
H36 H 0.12189 0.38207 0.94538 0.0
H37 H 0.14816 0.38166 0.85492 0.0
H38 H 0.28467 0.40585 0.91253 0.0
H39 H 0.25778 0.40562 1.00294 0.0
Pr40 Pr 0.73294 0.16495 0.42822 0.0
Pr41 Pr 0.78934 0.22547 0.52882 0.0
C42 C 0.70154 0.13337 0.33003 0.0
C43 C 0.71551 0.15114 0.27567 0.0
C44 C 0.68147 0.13178 0.23544 0.0
C45 C 0.69384 0.14901 0.18385 0.0
C46 C 0.74051 0.18622 0.17155 0.0
C47 C 0.77463 0.2054 0.21212 0.0
C48 C 0.76227 0.18795 0.26363 0.0
C49 C 0.7274 0.10939 0.51475 0.0
C50 C 0.85186 0.21341 0.436 0.0
C51 C 0.82589 0.26264 0.62401 0.0
C52 C 0.8171 0.25682 0.68118 0.0
C53 C 0.85554 0.28387 0.71496 0.0
C54 C 0.84844 0.28128 0.76936 0.0
C55 C 0.80262 0.25146 0.79131 0.0
C56 C 0.76419 0.22334 0.75733 0.0
C57 C 0.77134 0.22618 0.70259 0.0
C58 C 0.79522 0.27985 0.44047 0.0
C59 C 0.67038 0.1765 0.52343 0.0
O60 O 0.6847 0.15539 0.35906 0.0
O61 O 0.73054 0.12309 0.35559 0.0
O62 O 0.76383 0.14853 0.50157 0.0
O63 O 0.69433 0.09453 0.47912 0.0
O64 O 0.84886 0.21632 0.48748 0.0
O65 O 0.81497 0.20261 0.40496 0.0
O66 O 0.83445 0.23163 0.5999 0.0
O67 O 0.79988 0.27551 0.59647 0.0
O68 O 0.75834 0.24184 0.45536 0.0
O69 O 0.82961 0.29367 0.47441 0.0
O70 O 0.67062 0.16855 0.4724 0.0
O71 O 0.70873 0.1913 0.55315 0.0
H72 H 0.64514 0.10349 0.24401 0.0
H73 H 0.66654 0.13382 0.15378 0.0
H74 H 0.81103 0.2337 0.20403 0.0
H75 H 0.78914 0.20343 0.29412 0.0
H76 H 0.89114 0.30756 0.69919 0.0
H77 H 0.87898 0.30273 0.79432 0.0
H78 H 0.72844 0.20016 0.77295 0.0
H79 H 0.74115 0.20502 0.67705 0.0
Pr80 Pr 0.55683 0.81777 0.88652 0.0
Pr81 Pr 0.58504 0.78654 0.7836 0.0
C82 C 0.53143 0.82721 0.98505 0.0
C83 C 0.54094 0.81822 0.0389 0.0
C84 C 0.52858 0.83805 0.08106 0.0
C85 C 0.54011 0.83245 0.13243 0.0
C86 C 0.56439 0.80702 0.14238 0.0
C87 C 0.57583 0.78628 0.0999 0.0
C88 C 0.56414 0.79181 0.04851 0.0
C89 C 0.60822 0.89246 0.81599 0.0
C90 C 0.65192 0.80219 0.8841 0.0
C91 C 0.60927 0.7683 0.68828 0.0
C92 C 0.60822 0.77449 0.63137 0.0
C93 C 0.63053 0.75623 0.5988 0.0
C94 C 0.63169 0.76248 0.54451 0.0
C95 C 0.61081 0.78751 0.52168 0.0
C96 C 0.58772 0.80527 0.55456 0.0
C97 C 0.58634 0.79867 0.60915 0.0
C98 C 0.53433 0.71375 0.85744 0.0
C99 C 0.49229 0.80492 0.78357 0.0
O100 O 0.50582 0.78931 0.95596 0.0
O101 O 0.56787 0.86183 0.95985 0.0
O102 O 0.61702 0.85905 0.82522 0.0
O103 O 0.57478 0.89054 0.84653 0.0
O104 O 0.65293 0.80681 0.83261 0.0
O105 O 0.61597 0.79911 0.91269 0.0
O106 O 0.63738 0.80655 0.71574 0.0
O107 O 0.56858 0.73932 0.71183 0.0
O108 O 0.52483 0.7458 0.84424 0.0
O109 O 0.57081 0.71759 0.83119 0.0
O110 O 0.4907 0.80104 0.83528 0.0
O111 O 0.52839 0.80763 0.75563 0.0
H112 H 0.51082 0.85869 0.07416 0.0
H113 H 0.53134 0.84933 0.16417 0.0
H114 H 0.59404 0.76602 0.10636 0.0
H115 H 0.57379 0.77612 0.01627 0.0
H116 H 0.64728 0.73717 0.61542 0.0
H117 H 0.64876 0.74737 0.52038 0.0
H118 H 0.57157 0.82498 0.53824 0.0
H119 H 0.56889 0.81291 0.63402 0.0
Pr120 Pr 0.85221 0.57208 0.06073 0.0
Pr121 Pr 0.80168 0.58397 0.16221 0.0
C122 C 0.88646 0.56379 0.96623 0.0
C123 C 0.88046 0.56414 0.9089 0.0
C124 C 0.91764 0.56867 0.87602 0.0
C125 C 0.91281 0.5675 0.82142 0.0
C126 C 0.87058 0.56179 0.79839 0.0
C127 C 0.83363 0.5583 0.83152 0.0
C128 C 0.83847 0.55932 0.88643 0.0
C129 C 0.91277 0.62988 0.14011 0.0
C130 C 0.80406 0.64395 0.05847 0.0
C131 C 0.78136 0.59851 0.26131 0.0
C132 C 0.79539 0.59419 0.31524 0.0
C133 C 0.76463 0.58834 0.35744 0.0
C134 C 0.77662 0.58274 0.40875 0.0
C135 C 0.81969 0.58284 0.41886 0.0
C136 C 0.85074 0.5894 0.37636 0.0
C137 C 0.83867 0.59485 0.32502 0.0
C138 C 0.73881 0.52309 0.08595 0.0
C139 C 0.83865 0.50396 0.16087 0.0
O140 O 0.85356 0.52709 0.99271 0.0
O141 O 0.90273 0.60464 0.99101 0.0
O142 O 0.87561 0.6297 0.1247 0.0
O143 O 0.92091 0.60035 0.11306 0.0
O144 O 0.80087 0.6429 0.11028 0.0
O145 O 0.81645 0.6164 0.03152 0.0
O146 O 0.81438 0.6326 0.2319 0.0
O147 O 0.75552 0.55823 0.23588 0.0
O148 O 0.77811 0.52608 0.09838 0.0
O149 O 0.72805 0.54859 0.11709 0.0
O150 O 0.83883 0.5046 0.10895 0.0
O151 O 0.83451 0.53635 0.18898 0.0
H152 H 0.95043 0.57273 0.89265 0.0
H153 H 0.94229 0.57115 0.79716 0.0
H154 H 0.80058 0.55364 0.81505 0.0
H155 H 0.80937 0.55584 0.91128 0.0
H156 H 0.731 0.58756 0.35062 0.0
H157 H 0.75158 0.5772 0.44032 0.0
H158 H 0.8845 0.59047 0.38287 0.0
H159 H 0.86299 0.59934 0.29298 0.0
Pr160 Pr 0.14363 0.73187 0.55733 0.0
Pr161 Pr 0.19558 0.7903 0.45587 0.0
C162 C 0.1102 0.69662 0.65449 0.0
C163 C 0.12026 0.71429 0.70894 0.0
C164 C 0.0923 0.68456 0.75037 0.0
C165 C 0.10114 0.70134 0.80223 0.0
C166 C 0.13848 0.74814 0.81367 0.0
C167 C 0.16651 0.77766 0.77167 0.0
C168 C 0.15714 0.76108 0.71987 0.0
C169 C 0.0838 0.72163 0.47384 0.0
C170 C 0.18227 0.84919 0.55133 0.0
C171 C 0.22424 0.82854 0.35893 0.0
C172 C 0.21618 0.82042 0.30206 0.0
C173 C 0.25225 0.85198 0.26745 0.0
C174 C 0.24448 0.84836 0.21328 0.0
C175 C 0.20045 0.81292 0.19263 0.0
C176 C 0.16475 0.78032 0.22728 0.0
C177 C 0.17246 0.7841 0.28175 0.0
C178 C 0.25694 0.79997 0.53812 0.0
C179 C 0.16208 0.6748 0.46312 0.0
O180 O 0.14351 0.69148 0.63049 0.0
O181 O 0.09114 0.7156 0.62447 0.0
O182 O 0.11927 0.76057 0.48833 0.0
O183 O 0.07724 0.68586 0.50333 0.0
O184 O 0.1836 0.84656 0.49976 0.0
O185 O 0.17576 0.81309 0.5819 0.0
O186 O 0.19126 0.83154 0.38636 0.0
O187 O 0.2433 0.80647 0.38367 0.0
O188 O 0.21972 0.76187 0.52518 0.0
O189 O 0.26673 0.83447 0.50503 0.0
O190 O 0.16037 0.67729 0.51489 0.0
O191 O 0.16558 0.70959 0.43234 0.0
H192 H 0.0633 0.64848 0.74256 0.0
H193 H 0.07817 0.67782 0.83317 0.0
H194 H 0.19603 0.8136 0.77866 0.0
H195 H 0.17863 0.78491 0.68838 0.0
H196 H 0.28618 0.88024 0.28244 0.0
H197 H 0.2728 0.87365 0.18748 0.0
H198 H 0.13038 0.75316 0.21221 0.0
H199 H 0.14405 0.75955 0.30797 0.0
Pr200 Pr 0.41927 0.26305 0.74318 0.0
Pr201 Pr 0.38521 0.19865 0.84363 0.0
C202 C 0.44757 0.30525 0.64787 0.0
C203 C 0.44257 0.29717 0.59069 0.0
C204 C 0.45385 0.33627 0.55758 0.0
C205 C 0.45328 0.33106 0.50302 0.0
C206 C 0.44131 0.28651 0.48035 0.0
C207 C 0.42843 0.24682 0.51366 0.0
C208 C 0.42924 0.25216 0.56849 0.0
C209 C 0.36832 0.28486 0.8166 0.0
C210 C 0.3236 0.15143 0.73838 0.0
C211 C 0.35986 0.16348 0.94216 0.0
C212 C 0.37296 0.18142 0.99632 0.0
C213 C 0.36245 0.14885 0.03776 0.0
C214 C 0.37594 0.16539 0.08925 0.0
C215 C 0.40033 0.21497 0.10031 0.0
C216 C 0.41068 0.24746 0.05839 0.0
C217 C 0.39712 0.23088 1.00695 0.0
C218 C 0.43734 0.17736 0.7713 0.0
C219 C 0.48662 0.30456 0.84555 0.0
O220 O 0.47012 0.28729 0.67366 0.0
O221 O 0.41111 0.30281 0.67379 0.0
O222 O 0.35762 0.24318 0.80211 0.0
O223 O 0.40646 0.31765 0.79256 0.0
O224 O 0.32124 0.14914 0.79019 0.0
O225 O 0.35889 0.18789 0.7126 0.0
O226 O 0.33665 0.18001 0.91501 0.0
O227 O 0.3929 0.16062 0.91466 0.0
O228 O 0.4469 0.21885 0.78512 0.0
O229 O 0.40088 0.14421 0.79735 0.0
O230 O 0.48767 0.30421 0.79379 0.0
O231 O 0.44865 0.27317 0.87274 0.0
H232 H 0.46406 0.37123 0.57398 0.0
H233 H 0.46258 0.36211 0.4785 0.0
H234 H 0.41924 0.21211 0.49738 0.0
H235 H 0.42041 0.22149 0.59349 0.0
H236 H 0.34416 0.11055 0.03022 0.0
H237 H 0.36807 0.13929 0.12017 0.0
H238 H 0.42905 0.28578 0.06535 0.0
H239 H 0.40567 0.25668 0.97547 0.0
H240 H 0.40944 0.35667 0.88907 0.0
H241 H 0.27427 0.23273 0.84472 0.0
H242 H 0.2348 0.24497 0.92243 0.0
H243 H 0.39397 0.32829 0.02533 0.0
H244 H 0.42487 0.39024 0.04581 0.0
H245 H 0.43921 0.37365 0.9835 0.0
H246 H 0.42136 0.4359 0.93827 0.0
H247 H 0.40513 0.45041 1.00081 0.0
H248 H 0.36323 0.43057 0.94727 0.0
H249 H 0.21117 0.26822 1.00699 0.0
H250 H 0.20606 0.29811 0.09523 0.0
H251 H 0.35792 0.40336 0.0873 0.0
C252 C 0.37127 0.33296 0.89515 0.0
C253 C 0.34445 0.29433 0.86072 0.0
C254 C 0.29508 0.26279 0.87065 0.0
C255 C 0.27243 0.26957 0.91447 0.0
C256 C 0.29995 0.30761 0.94826 0.0
C257 C 0.34839 0.33859 0.93938 0.0
C258 C 0.3709 0.37325 0.98472 0.0
C259 C 0.40958 0.36596 0.01144 0.0
C260 C 0.39133 0.42561 0.96666 0.0
C261 C 0.32755 0.35709 0.02025 0.0
C262 C 0.28689 0.31948 0.99832 0.0
C263 C 0.24275 0.29771 0.02451 0.0
C264 C 0.24018 0.31478 0.07453 0.0
C265 C 0.28161 0.35269 0.09791 0.0
C266 C 0.32576 0.37404 0.07038 0.0
H267 H 0.05941 0.31925 0.21797 0.0
H268 H 0.15309 0.31446 0.33708 0.0
H269 H 0.08404 0.27274 0.39744 0.0
H270 H 0.99142 0.34664 0.30467 0.0
H271 H 0.93483 0.31119 0.27192 0.0
H272 H 0.99011 0.3352 0.23511 0.0
H273 H 0.96662 0.24962 0.20303 0.0
H274 H 0.91105 0.22542 0.23953 0.0
H275 H 0.95126 0.20243 0.25057 0.0
H276 H 0.0077 0.23921 0.44782 0.0
H277 H 0.92761 0.21443 0.48505 0.0
H278 H 0.88235 0.24062 0.33412 0.0
C279 C 0.06505 0.30814 0.2562 0.0
C280 C 0.1115 0.31957 0.27266 0.0
C281 C 0.11777 0.30583 0.32358 0.0
C282 C 0.07876 0.28203 0.35812 0.0
C283 C 0.03367 0.27228 0.34126 0.0
C284 C 0.02643 0.28468 0.29149 0.0
C285 C 0.97493 0.2734 0.28494 0.0
C286 C 0.97272 0.31934 0.2735 0.0
C287 C 0.94947 0.23545 0.24197 0.0
C288 C 0.95471 0.25337 0.339 0.0
C289 C 0.98921 0.25289 0.3707 0.0
C290 C 0.98012 0.23875 0.42322 0.0
C291 C 0.93459 0.22493 0.44406 0.0
C292 C 0.89865 0.22524 0.41242 0.0
C293 C 0.90882 0.23919 0.35903 0.0
H294 H 0.68045 0.01295 0.53296 0.0
H295 H 0.7576 0.15084 0.61063 0.0
H296 H 0.73926 0.11011 0.69713 0.0
H297 H 0.58678 0.9553 0.62427 0.0
H298 H 0.58353 0.89771 0.6214 0.0
H299 H 0.60497 0.9372 0.56534 0.0
H300 H 0.68307 0.9334 0.56477 0.0
H301 H 0.66392 0.89482 0.62178 0.0
H302 H 0.72013 0.95046 0.62261 0.0
H303 H 0.70344 0.05455 0.77474 0.0
H304 H 0.66093 0.98749 0.83821 0.0
H305 H 0.61427 0.88528 0.71011 0.0
C306 C 0.69407 0.03437 0.56825 0.0
C307 C 0.72086 0.08497 0.56554 0.0
C308 C 0.73799 0.11207 0.61218 0.0
C309 C 0.72737 0.0892 0.66136 0.0
C310 C 0.70048 0.03915 0.66285 0.0
C311 C 0.68485 0.01198 0.61748 0.0
C312 C 0.65656 0.95873 0.62993 0.0
C313 C 0.60492 0.93592 0.60899 0.0
C314 C 0.68246 0.93284 0.60847 0.0
C315 C 0.65741 0.96026 0.68941 0.0
C316 C 0.6826 0.00702 0.70764 0.0
C317 C 0.68468 0.01776 0.76104 0.0
C318 C 0.66046 0.97966 0.79669 0.0
C319 C 0.63557 0.93168 0.77872 0.0
C320 C 0.63434 0.92179 0.72461 0.0
H321 H 0.64906 0.76542 0.98243 0.0
H322 H 0.73549 0.81596 0.83993 0.0
H323 H 0.78818 0.78691 0.87334 0.0
H324 H 0.75034 0.79121 0.07372 0.0
H325 H 0.7135 0.7376 0.11164 0.0
H326 H 0.68669 0.76865 0.08002 0.0
H327 H 0.62704 0.69006 0.03299 0.0
H328 H 0.65391 0.65865 0.06327 0.0
H329 H 0.64959 0.65933 0.99267 0.0
H330 H 0.82317 0.74154 0.91455 0.0
H331 H 0.84373 0.68917 0.96599 0.0
H332 H 0.73757 0.67054 0.08392 0.0
C333 C 0.68002 0.77188 0.95906 0.0
C334 C 0.68822 0.79311 0.90861 0.0
C335 C 0.72849 0.79985 0.8787 0.0
C336 C 0.7587 0.7835 0.89735 0.0
C337 C 0.74851 0.76096 0.94622 0.0
C338 C 0.71069 0.75582 0.97717 0.0
C339 C 0.70561 0.7271 0.02647 0.0
C340 C 0.71459 0.758 0.07589 0.0
C341 C 0.65612 0.68106 0.02895 0.0
C342 C 0.74557 0.71571 0.01749 0.0
C343 C 0.76984 0.73566 0.97095 0.0
C344 C 0.8053 0.72667 0.95171 0.0
C345 C 0.8165 0.69667 0.98095 0.0
C346 C 0.79268 0.67649 0.0291 0.0
C347 C 0.75708 0.6865 0.04779 0.0
H348 H 0.05932 0.65305 0.39924 0.0
H349 H 0.05036 0.77953 0.43937 0.0
H350 H 0.00438 0.76991 0.35782 0.0
H351 H 0.07871 0.68223 0.25799 0.0
H352 H 0.04772 0.61955 0.24058 0.0
H353 H 0.07872 0.63883 0.3023 0.0
H354 H -0.00138 0.57709 0.34828 0.0
H355 H 0.96769 0.56189 0.28628 0.0
H356 H 0.94621 0.58307 0.33968 0.0
H357 H 0.95533 0.74286 0.27426 0.0
H358 H 0.91519 0.70632 0.19005 0.0
H359 H 0.96447 0.60317 0.20125 0.0
C360 C 0.04733 0.67843 0.39083 0.0
C361 C 0.05721 0.71643 0.42548 0.0
C362 C 0.04244 0.74996 0.41305 0.0
C363 C 0.0164 0.74472 0.36706 0.0
C364 C 0.00695 0.70664 0.33354 0.0
C365 C 0.02292 0.67476 0.34431 0.0
C366 C 0.01088 0.63893 0.30032 0.0
C367 C 0.05671 0.64524 0.27366 0.0
C368 C 0.97894 0.58717 0.31994 0.0
C369 C 0.98396 0.65429 0.26413 0.0
C370 C 0.98186 0.69331 0.28394 0.0
C371 C 0.95736 0.71276 0.25801 0.0
C372 C 0.93472 0.69185 0.21039 0.0
C373 C 0.93751 0.65256 0.18917 0.0
C374 C 0.96256 0.63376 0.2163 0.0
H375 H 0.28585 0.05713 0.76483 0.0
H376 H 0.28812 0.15139 0.64156 0.0
H377 H 0.2414 0.08109 0.58434 0.0
H378 H 0.30943 0.98635 0.68271 0.0
H379 H 0.27265 0.93026 0.71665 0.0
H380 H 0.29725 0.98601 0.75206 0.0
H381 H 0.21194 0.96489 0.78305 0.0
H382 H 0.1871 0.90872 0.74807 0.0
H383 H 0.16552 0.94984 0.73508 0.0
H384 H 0.20428 0.00349 0.53721 0.0
H385 H 0.18098 0.92364 0.50142 0.0
H386 H 0.20535 0.87904 0.65386 0.0
C387 C 0.27473 0.06262 0.72657 0.0
C388 C 0.28944 0.10936 0.70781 0.0
C389 C 0.27643 0.11567 0.65671 0.0
C390 C 0.24985 0.076 0.62409 0.0
C391 C 0.237 0.0304 0.64312 0.0
C392 C 0.24897 0.02341 0.69316 0.0
C393 C 0.23651 0.97164 0.70138 0.0
C394 C 0.28165 0.96841 0.71391 0.0
C395 C 0.19796 0.94734 0.74445 0.0
C396 C 0.21681 0.95098 0.6477 0.0
C397 C 0.21676 0.98537 0.61507 0.0
C398 C 0.20346 0.97603 0.56255 0.0
C399 C 0.1905 0.93058 0.54255 0.0
C400 C 0.19124 0.89503 0.57487 0.0
C401 C 0.20373 0.9052 0.6284 0.0
H402 H 0.20133 0.43104 0.7861 0.0
H403 H 0.2717 0.35354 0.84034 0.0
H404 H 0.29761 0.35112 0.74946 0.0
H405 H 0.15735 0.36611 0.66412 0.0
H406 H 0.16712 0.41821 0.6273 0.0
H407 H 0.15453 0.41451 0.69681 0.0
H408 H 0.23281 0.49556 0.71108 0.0
H409 H 0.2456 0.49954 0.64163 0.0
H410 H 0.28918 0.50264 0.68808 0.0
H411 H 0.31572 0.35672 0.65235 0.0
H412 H 0.3254 0.37049 0.55659 0.0
H413 H 0.24251 0.44348 0.56428 0.0
C414 C 0.22182 0.41316 0.77893 0.0
C415 C 0.23449 0.3926 0.82084 0.0
C416 C 0.26206 0.37026 0.80941 0.0
C417 C 0.2767 0.36838 0.75771 0.0
C418 C 0.2635 0.38889 0.71751 0.0
C419 C 0.23669 0.41088 0.72747 0.0
C420 C 0.22748 0.43032 0.6771 0.0
C421 C 0.17341 0.40581 0.66567 0.0
C422 C 0.25013 0.48528 0.67964 0.0
C423 C 0.25324 0.41579 0.63721 0.0
C424 C 0.2738 0.39197 0.66145 0.0
C425 C 0.29987 0.37544 0.63303 0.0
C426 C 0.30538 0.38369 0.57858 0.0
C427 C 0.285 0.40835 0.55265 0.0
C428 C 0.25823 0.4242 0.58265 0.0
H429 H 0.71547 0.13556 0.07835 0.0
H430 H 0.79459 0.2804 0.14082 0.0
H431 H 0.81676 0.31255 0.05058 0.0
H432 H 0.79734 0.15206 0.97404 0.0
H433 H 0.75126 0.11523 0.92775 0.0
H434 H 0.74058 0.10358 0.99719 0.0
H435 H 0.66439 0.1115 0.99061 0.0
H436 H 0.67492 0.12324 0.92111 0.0
H437 H 0.66904 0.16537 0.96301 0.0
H438 H 0.83146 0.32902 0.95387 0.0
H439 H 0.83894 0.3288 0.85733 0.0
H440 H 0.75019 0.17335 0.85671 0.0
C441 C 0.73705 0.17408 0.07305 0.0
C442 C 0.75337 0.20543 0.11687 0.0
C443 C 0.78216 0.25558 0.10808 0.0
C444 C 0.79467 0.27423 0.0569 0.0
C445 C 0.77812 0.24234 0.01472 0.0
C446 C 0.74995 0.19334 0.02216 0.0
C447 C 0.73778 0.16689 0.97 0.0
C448 C 0.75796 0.13241 0.96709 0.0
C449 C 0.6833 0.14018 0.96065 0.0
C450 C 0.76379 0.20867 0.93208 0.0
C451 C 0.78667 0.25185 0.95879 0.0
C452 C 0.81372 0.29543 0.93257 0.0
C453 C 0.81797 0.29488 0.8777 0.0
C454 C 0.79541 0.25106 0.84933 0.0
C455 C 0.7675 0.20746 0.87711 0.0
H456 H 0.54025 0.78102 0.45543 0.0
H457 H 0.68765 0.81048 0.45688 0.0
H458 H 0.691 0.81686 0.36024 0.0
H459 H 0.50399 0.70998 0.33917 0.0
H460 H 0.46726 0.73367 0.31522 0.0
H461 H 0.47627 0.73195 0.38482 0.0
H462 H 0.50815 0.82354 0.3911 0.0
H463 H 0.49887 0.82547 0.32158 0.0
H464 H 0.55727 0.86413 0.34926 0.0
H465 H 0.67796 0.81778 0.26361 0.0
H466 H 0.65088 0.81843 0.17318 0.0
H467 H 0.51252 0.78983 0.23417 0.0
C468 C 0.57344 0.78947 0.43551 0.0
C469 C 0.61353 0.79477 0.46379 0.0
C470 C 0.65614 0.80534 0.43606 0.0
C471 C 0.65852 0.80927 0.38117 0.0
C472 C 0.61811 0.80292 0.35447 0.0
C473 C 0.57652 0.79371 0.38063 0.0
C474 C 0.5383 0.78857 0.34236 0.0
C475 C 0.49384 0.73803 0.3456 0.0
C476 C 0.52487 0.82777 0.35163 0.0
C477 C 0.56491 0.79614 0.29069 0.0
C478 C 0.61082 0.80416 0.29859 0.0
C479 C 0.64212 0.81165 0.25687 0.0
C480 C 0.62628 0.81156 0.20564 0.0
C481 C 0.57961 0.80417 0.19659 0.0
C482 C 0.54856 0.79607 0.23985 0.0
H483 H 0.83389 0.60468 0.73369 0.0
H484 H 0.895 0.51082 0.73115 0.0
H485 H 0.88922 0.50667 0.63445 0.0
H486 H 0.74925 0.54632 0.62798 0.0
H487 H 0.75699 0.60172 0.60117 0.0
H488 H 0.76559 0.59716 0.67039 0.0
H489 H 0.85109 0.67129 0.66357 0.0
H490 H 0.8428 0.67599 0.5943 0.0
H491 H 0.89329 0.67106 0.61667 0.0
H492 H 0.87764 0.51305 0.53802 0.0
H493 H 0.85943 0.52828 0.44843 0.0
H494 H 0.80612 0.61836 0.51256 0.0
C495 C 0.84561 0.5829 0.7128 0.0
C496 C 0.86516 0.55828 0.74012 0.0
C497 C 0.88058 0.53059 0.71116 0.0
C498 C 0.87724 0.5278 0.65619 0.0
C499 C 0.85836 0.5529 0.63048 0.0
C500 C 0.8427 0.57985 0.65773 0.0
C501 C 0.82431 0.60371 0.6203 0.0
C502 C 0.77085 0.58616 0.63058 0.0
C503 C 0.85469 0.65878 0.62394 0.0
C504 C 0.83183 0.5857 0.56787 0.0
C505 C 0.85166 0.55657 0.5747 0.0
C506 C 0.86219 0.53589 0.53218 0.0
C507 C 0.852 0.54503 0.48134 0.0
C508 C 0.83141 0.5746 0.47318 0.0
C509 C 0.82136 0.59518 0.51732 0.0
H510 H 0.13023 0.69778 0.90514 0.0
H511 H 0.16786 0.83997 0.84797 0.0
H512 H 0.18676 0.87111 0.93829 0.0
H513 H 0.07217 0.70525 0.0261 0.0
H514 H 0.09308 0.67214 0.06428 0.0
H515 H 0.0824 0.66067 0.99489 0.0
H516 H 0.16957 0.67773 0.98175 0.0
H517 H 0.18057 0.68939 0.051 0.0
H518 H 0.21897 0.73413 1.00369 0.0
H519 H 0.20472 0.88791 0.03393 0.0
H520 H 0.21728 0.8884 0.12966 0.0
H521 H 0.16363 0.73477 0.12631 0.0
C522 C 0.14173 0.73532 0.91149 0.0
C523 C 0.14797 0.76639 0.86887 0.0
C524 C 0.16382 0.81547 0.87939 0.0
C525 C 0.17426 0.83352 0.93075 0.0
C526 C 0.16808 0.80201 0.97154 0.0
C527 C 0.15174 0.75387 0.96267 0.0
C528 C 0.14815 0.72775 0.01368 0.0
C529 C 0.09584 0.68917 0.02542 0.0
C530 C 0.1813 0.70598 0.01243 0.0
C531 C 0.16577 0.76895 0.05246 0.0
C532 C 0.17712 0.81146 0.0272 0.0
C533 C 0.19566 0.8548 0.05421 0.0
C534 C 0.20289 0.85477 0.10848 0.0
C535 C 0.19142 0.81166 0.13531 0.0
C536 C 0.17223 0.76815 0.10686 0.0
H537 H 0.37648 0.21522 0.41488 0.0
H538 H 0.51287 0.34873 0.41453 0.0
H539 H 0.51764 0.34431 0.31801 0.0
H540 H 0.40627 0.15701 0.31013 0.0
H541 H 0.34699 0.12856 0.28216 0.0
H542 H 0.35475 0.1414 0.35154 0.0
H543 H 0.31013 0.18963 0.34363 0.0
H544 H 0.30227 0.17697 0.27427 0.0
H545 H 0.33121 0.2383 0.29689 0.0
H546 H 0.50774 0.32591 0.22167 0.0
H547 H 0.48333 0.29536 0.1317 0.0
H548 H 0.35188 0.17499 0.19354 0.0
C549 C 0.40754 0.24324 0.39449 0.0
C550 C 0.44423 0.28244 0.42229 0.0
C551 C 0.48404 0.31869 0.39406 0.0
C552 C 0.48722 0.31637 0.33925 0.0
C553 C 0.45029 0.27758 0.313 0.0
C554 C 0.41117 0.24165 0.33957 0.0
C555 C 0.37592 0.20451 0.30159 0.0
C556 C 0.37069 0.15494 0.31198 0.0
C557 C 0.32699 0.20225 0.30426 0.0
C558 C 0.40127 0.22533 0.24961 0.0
C559 C 0.44422 0.26734 0.25718 0.0
C560 C 0.47405 0.29315 0.21521 0.0
C561 C 0.45961 0.27564 0.1641 0.0
C562 C 0.41543 0.23282 0.15507 0.0
C563 C 0.38609 0.20747 0.19878 0.0
H564 H 0.15252 0.51562 0.21936 0.0
H565 H 0.23844 0.4729 0.31018 0.0
H566 H 0.23041 0.51461 0.38821 0.0
H567 H 0.20363 0.63254 0.27007 0.0
H568 H 0.14888 0.635 0.27045 0.0
H569 H 0.1567 0.59721 0.22394 0.0
H570 H 0.07843 0.52366 0.2569 0.0
H571 H 0.06944 0.55974 0.30493 0.0
H572 H 0.07164 0.50732 0.32549 0.0
H573 H 0.21417 0.56293 0.45547 0.0
H574 H 0.20007 0.62209 0.50325 0.0
H575 H 0.12931 0.63726 0.36626 0.0
C576 C 0.16931 0.51488 0.25587 0.0
C577 C 0.19664 0.4917 0.25905 0.0
C578 C 0.21844 0.49156 0.30703 0.0
C579 C 0.2134 0.51452 0.35159 0.0
C580 C 0.18659 0.53764 0.34716 0.0
C581 C 0.16536 0.53842 0.30031 0.0
C582 C 0.14179 0.56899 0.30456 0.0
C583 C 0.16407 0.6109 0.26494 0.0
C584 C 0.08711 0.53812 0.29754 0.0
C585 C 0.15433 0.5865 0.36062 0.0
C586 C 0.17894 0.56692 0.38507 0.0
C587 C 0.19481 0.57838 0.43679 0.0
C588 C 0.18647 0.61179 0.46369 0.0
C589 C 0.16358 0.63405 0.43826 0.0
C590 C 0.14669 0.62055 0.38649 0.0
H591 H 0.66497 0.23507 0.59593 0.0
H592 H 0.57767 0.10265 0.51096 0.0
H593 H 0.50657 0.08808 0.56452 0.0
H594 H 0.61442 0.1959 0.72055 0.0
H595 H 0.61694 0.25133 0.73906 0.0
H596 H 0.65957 0.25203 0.69231 0.0
H597 H 0.63445 0.29546 0.62428 0.0
H598 H 0.59215 0.29541 0.67117 0.0
H599 H 0.57205 0.26951 0.60698 0.0
H600 H 0.44751 0.08495 0.63498 0.0
H601 H 0.40356 0.09832 0.70771 0.0
H602 H 0.52954 0.23596 0.74025 0.0
C603 C 0.63067 0.20333 0.58811 0.0
C604 C 0.62647 0.16985 0.5496 0.0
C605 C 0.58124 0.12882 0.54014 0.0
C606 C 0.54091 0.12022 0.57053 0.0
C607 C 0.54654 0.15363 0.60914 0.0
C608 C 0.59018 0.1949 0.61706 0.0
C609 C 0.58727 0.22538 0.66068 0.0
C610 C 0.62157 0.23149 0.7058 0.0
C611 C 0.59705 0.27433 0.63949 0.0
C612 C 0.53541 0.19442 0.67714 0.0
C613 C 0.51242 0.15293 0.64741 0.0
C614 C 0.46499 0.11766 0.65786 0.0
C615 C 0.44045 0.12535 0.69935 0.0
C616 C 0.46329 0.16822 0.7291 0.0
C617 C 0.51118 0.20311 0.71761 0.0
H618 H 0.32075 0.54824 0.05208 0.0
H619 H 0.4199 0.51974 0.13802 0.0
H620 H 0.48596 0.57452 0.07791 0.0
H621 H 0.36603 0.55267 0.9255 0.0
H622 H 0.35801 0.60132 0.90262 0.0
H623 H 0.31963 0.56186 0.95373 0.0
H624 H 0.3433 0.63487 0.01509 0.0
H625 H 0.3813 0.67465 0.96387 0.0
H626 H 0.40589 0.67609 0.02776 0.0
H627 H 0.53881 0.62659 1.00211 0.0
H628 H 0.57609 0.67865 0.92398 0.0
H629 H 0.44286 0.67719 0.89322 0.0
C630 C 0.35657 0.55412 0.05865 0.0
C631 C 0.36557 0.53008 0.0995 0.0
C632 C 0.41267 0.53843 0.10715 0.0
C633 C 0.45019 0.56918 0.07307 0.0
C634 C 0.43992 0.59186 0.03249 0.0
C635 C 0.39439 0.58541 0.02595 0.0
C636 C 0.39242 0.61385 0.97963 0.0
C637 C 0.35693 0.58043 0.93792 0.0
C638 C 0.38 0.65214 0.99769 0.0
C639 C 0.44371 0.63663 0.96022 0.0
C640 C 0.47058 0.62329 0.99084 0.0
C641 C 0.51828 0.63781 0.97842 0.0
C642 C 0.53901 0.66701 0.93387 0.0
C643 C 0.51218 0.68178 0.90299 0.0
C644 C 0.46415 0.66663 0.9166 0.0
H645 H 0.85645 0.37435 0.41762 0.0
H646 H 0.74334 0.24236 0.35132 0.0
H647 H 0.75175 0.28357 0.26661 0.0
H648 H 0.81804 0.44915 0.36226 0.0
H649 H 0.87736 0.49926 0.35068 0.0
H650 H 0.86739 0.45762 0.40297 0.0
H651 H 0.93305 0.44243 0.3642 0.0
H652 H 0.94337 0.48281 0.31032 0.0
H653 H 0.92831 0.42186 0.29735 0.0
H654 H 0.77098 0.34011 0.19028 0.0
H655 H 0.78844 0.40964 0.13361 0.0
H656 H 0.8828 0.50654 0.25303 0.0
C657 C 0.83389 0.3541 0.38499 0.0
C658 C 0.79964 0.30491 0.39044 0.0
C659 C 0.76997 0.27981 0.34752 0.0
C660 C 0.7748 0.30293 0.29926 0.0
C661 C 0.80901 0.35152 0.295 0.0
C662 C 0.83734 0.37705 0.33708 0.0
C663 C 0.86766 0.42997 0.32411 0.0
C664 C 0.85695 0.46079 0.36225 0.0
C665 C 0.92125 0.44518 0.324 0.0
C666 C 0.85027 0.43062 0.26905 0.0
C667 C 0.81792 0.38471 0.25218 0.0
C668 C 0.79635 0.3762 0.20295 0.0
C669 C 0.80664 0.41581 0.17093 0.0
C670 C 0.83698 0.46315 0.18911 0.0
C671 C 0.85979 0.47055 0.23825 0.0
H672 H 0.35515 0.8411 0.54171 0.0
H673 H 0.22538 0.76427 0.63475 0.0
H674 H 0.27255 0.76326 0.71041 0.0
H675 H 0.40741 0.77364 0.58658 0.0
H676 H 0.46834 0.82303 0.587 0.0
H677 H 0.42543 0.82373 0.5424 0.0
H678 H 0.44279 0.90596 0.57979 0.0
H679 H 0.48588 0.90543 0.6244 0.0
H680 H 0.43698 0.91219 0.6495 0.0
H681 H 0.33256 0.76733 0.77396 0.0
H682 H 0.40122 0.77078 0.82061 0.0
H683 H 0.49261 0.83963 0.68469 0.0
C684 C 0.33709 0.82506 0.57849 0.0
C685 C 0.2867 0.80316 0.58322 0.0
C686 C 0.26386 0.78121 0.63103 0.0
C687 C 0.29043 0.78073 0.67408 0.0
C688 C 0.33997 0.80176 0.66818 0.0
C689 C 0.36321 0.8232 0.62155 0.0
C690 C 0.41624 0.83901 0.62437 0.0
C691 C 0.43015 0.8133 0.58261 0.0
C692 C 0.4473 0.89392 0.61922 0.0
C693 C 0.41875 0.82234 0.67943 0.0
C694 C 0.37451 0.80186 0.70425 0.0
C695 C 0.36749 0.78342 0.7551 0.0
C696 C 0.4067 0.78559 0.78127 0.0
C697 C 0.45212 0.8053 0.75622 0.0
C698 C 0.4582 0.82412 0.70471 0.0
H699 H 0.64123 0.48435 0.07598 0.0
H700 H 0.76581 0.49001 1.00218 0.0
H701 H 0.71526 0.43796 0.93061 0.0
H702 H 0.56063 0.35913 0.04911 0.0
H703 H 0.50943 0.36646 0.0372 0.0
H704 H 0.55596 0.40683 0.08101 0.0
H705 H 0.56641 0.47923 0.02598 0.0
H706 H 0.52056 0.43945 0.98117 0.0
H707 H 0.57943 0.48183 0.95662 0.0
H708 H 0.65222 0.38735 0.86644 0.0
H709 H 0.57848 0.33317 0.81764 0.0
H710 H 0.49258 0.35269 0.93679 0.0
C711 C 0.65772 0.47474 0.04452 0.0
C712 C 0.7076 0.49161 0.04396 0.0
C713 C 0.72789 0.47775 1.00287 0.0
C714 C 0.69941 0.44825 0.96209 0.0
C715 C 0.6504 0.43211 0.96365 0.0
C716 C 0.62943 0.44412 1.00414 0.0
C717 C 0.57542 0.41975 0.99744 0.0
C718 C 0.54882 0.38604 0.04395 0.0
C719 C 0.55952 0.45728 0.98986 0.0
C720 C 0.56945 0.39175 0.94728 0.0
C721 C 0.61336 0.40036 0.92795 0.0
C722 C 0.61755 0.38 0.88127 0.0
C723 C 0.57561 0.3495 0.85378 0.0
C724 C 0.53017 0.33887 0.87375 0.0
C725 C 0.52702 0.36018 0.92108 0.0
loop_
_geom_bond_atom_site_label_1
_geom_bond_atom_site_label_2
_geom_bond_distance
_geom_bond_site_symmetry_2
_ccdc_geom_bond_type
Pr0 C2 2.880 . S
Pr0 O20 2.562 . S
Pr0 O21 2.490 . S
Pr0 O22 2.695 . S
Pr0 O23 2.512 . S
Pr0 O25 2.437 . S
Pr0 O28 2.436 . S
Pr0 O30 2.438 . S
Pr1 C11 2.880 1_554 S
Pr1 O22 2.436 . S
Pr1 O24 2.438 . S
Pr1 O26 2.562 1_554 S
Pr1 O27 2.490 1_554 S
Pr1 O28 2.695 . S
Pr1 O29 2.512 . S
Pr1 O31 2.437 1_554 S
C2 Pr0 2.880 . S
C2 C3 1.491 . S
C2 O20 1.254 . S
C2 O21 1.225 . S
C3 C2 1.491 . S
C3 C4 1.392 . S
C3 C8 1.356 . S
C4 C3 1.392 . S
C4 C5 1.368 . S
C4 H32 0.929 . S
C5 C4 1.368 . S
C5 C6 1.386 . S
C5 H33 0.929 . S
C6 C5 1.386 . S
C6 C7 1.373 . S
C7 C6 1.373 . S
C7 C8 1.409 . S
C7 H34 0.931 . S
C8 C3 1.356 . S
C8 C7 1.409 . S
C8 H35 0.930 . S
C9 O22 1.270 . S
C9 O23 1.248 . S
C10 O24 1.267 . S
C10 O25 1.278 . S
C11 Pr1 2.880 1_556 S
C11 C12 1.491 . S
C11 O26 1.254 . S
C11 O27 1.225 . S
C12 C11 1.491 . S
C12 C13 1.392 . S
C12 C17 1.356 . S
C13 C12 1.392 . S
C13 C14 1.368 . S
C13 H36 0.929 . S
C14 C13 1.368 . S
C14 C15 1.386 . S
C14 H37 0.929 . S
C15 C14 1.386 . S
C15 C16 1.373 . S
C16 C15 1.373 . S
C16 C17 1.409 . S
C16 H38 0.931 . S
C17 C12 1.356 . S
C17 C16 1.409 . S
C17 H39 0.930 . S
C18 O28 1.270 . S
C18 O29 1.248 . S
C19 O30 1.267 1_556 S
C19 O31 1.278 . S
O20 Pr0 2.562 . S
O20 C2 1.254 . S
O21 Pr0 2.490 . S
O21 C2 1.225 . S
O22 Pr0 2.695 . S
O22 Pr1 2.436 . S
O22 C9 1.270 . S
O23 Pr0 2.512 . S
O23 C9 1.248 . S
O24 Pr1 2.438 . S
O24 C10 1.267 . S
O25 Pr0 2.437 . S
O25 C10 1.278 . S
O26 Pr1 2.562 1_556 S
O26 C11 1.254 . S
O27 Pr1 2.490 1_556 S
O27 C11 1.225 . S
O28 Pr0 2.436 . S
O28 Pr1 2.695 . S
O28 C18 1.270 . S
O29 Pr1 2.512 . S
O29 C18 1.248 . S
O30 Pr0 2.438 . S
O30 C19 1.267 1_554 S
O31 Pr1 2.437 1_556 S
O31 C19 1.278 . S
H32 C4 0.929 . S
H33 C5 0.929 . S
H34 C7 0.931 . S
H35 C8 0.930 . S
H36 C13 0.929 . S
H37 C14 0.929 . S
H38 C16 0.931 . S
H39 C17 0.930 . S
Pr40 C42 2.880 . S
Pr40 O60 2.562 . S
Pr40 O61 2.490 . S
Pr40 O62 2.695 . S
Pr40 O63 2.512 . S
Pr40 O65 2.437 . S
Pr40 O68 2.436 . S
Pr40 O70 2.438 . S
Pr41 C51 2.880 . S
Pr41 O62 2.436 . S
Pr41 O64 2.438 . S
Pr41 O66 2.562 . S
Pr41 O67 2.490 . S
Pr41 O68 2.695 . S
Pr41 O69 2.512 . S
Pr41 O71 2.437 . S
C42 Pr40 2.880 . S
C42 C43 1.491 . S
C42 O60 1.254 . S
C42 O61 1.225 . S
C43 C42 1.491 . S
C43 C44 1.392 . S
C43 C48 1.356 . S
C44 C43 1.392 . S
C44 C45 1.368 . S
C44 H72 0.929 . S
C45 C44 1.368 . S
C45 C46 1.386 . S
C45 H73 0.929 . S
C46 C45 1.386 . S
C46 C47 1.373 . S
C47 C46 1.373 . S
C47 C48 1.409 . S
C47 H74 0.931 . S
C48 C43 1.356 . S
C48 C47 1.409 . S
C48 H75 0.930 . S
C49 O62 1.270 . S
C49 O63 1.248 . S
C50 O64 1.267 . S
C50 O65 1.278 . S
C51 Pr41 2.880 . S
C51 C52 1.491 . S
C51 O66 1.254 . S
C51 O67 1.225 . S
C52 C51 1.491 . S
C52 C53 1.392 . S
C52 C57 1.356 . S
C53 C52 1.392 . S
C53 C54 1.368 . S
C53 H76 0.929 . S
C54 C53 1.368 . S
C54 C55 1.386 . S
C54 H77 0.929 . S
C55 C54 1.386 . S
C55 C56 1.373 . S
C56 C55 1.373 . S
C56 C57 1.409 . S
C56 H78 0.931 . S
C57 C52 1.356 . S
C57 C56 1.409 . S
C57 H79 0.930 . S
C58 O68 1.270 . S
C58 O69 1.248 . S
C59 O70 1.267 . S
C59 O71 1.278 . S
O60 Pr40 2.562 . S
O60 C42 1.254 . S
O61 Pr40 2.490 . S
O61 C42 1.225 . S
O62 Pr40 2.695 . S
O62 Pr41 2.436 . S
O62 C49 1.270 . S
O63 Pr40 2.512 . S
O63 C49 1.248 . S
O64 Pr41 2.438 . S
O64 C50 1.267 . S
O65 Pr40 2.437 . S
O65 C50 1.278 . S
O66 Pr41 2.562 . S
O66 C51 1.254 . S
O67 Pr41 2.490 . S
O67 C51 1.225 . S
O68 Pr40 2.436 . S
O68 Pr41 2.695 . S
O68 C58 1.270 . S
O69 Pr41 2.512 . S
O69 C58 1.248 . S
O70 Pr40 2.438 . S
O70 C59 1.267 . S
O71 Pr41 2.437 . S
O71 C59 1.278 . S
H72 C44 0.929 . S
H73 C45 0.929 . S
H74 C47 0.931 . S
H75 C48 0.930 . S
H76 C53 0.929 . S
H77 C54 0.929 . S
H78 C56 0.931 . S
H79 C57 0.930 . S
Pr80 C82 2.880 . S
Pr80 O100 2.562 . S
Pr80 O101 2.490 . S
Pr80 O102 2.695 . S
Pr80 O103 2.512 . S
Pr80 O105 2.437 . S
Pr80 O108 2.436 . S
Pr80 O110 2.438 . S
Pr81 C91 2.880 . S
Pr81 O102 2.436 . S
Pr81 O104 2.438 . S
Pr81 O106 2.562 . S
Pr81 O107 2.490 . S
Pr81 O108 2.695 . S
Pr81 O109 2.512 . S
Pr81 O111 2.437 . S
C82 Pr80 2.880 . S
C82 C83 1.491 . S
C82 O100 1.254 . S
C82 O101 1.225 . S
C83 C82 1.491 . S
C83 C84 1.392 . S
C83 C88 1.356 . S
C84 C83 1.392 . S
C84 C85 1.368 1_556 S
C84 H112 0.929 . S
C85 C84 1.368 1_554 S
C85 C86 1.386 . S
C85 H113 0.929 . S
C86 C85 1.386 . S
C86 C87 1.373 . S
C87 C86 1.373 . S
C87 C88 1.409 1_554 S
C87 H114 0.931 . S
C88 C83 1.356 . S
C88 C87 1.409 1_556 S
C88 H115 0.930 . S
C89 O102 1.270 . S
C89 O103 1.248 . S
C90 O104 1.267 . S
C90 O105 1.278 . S
C91 Pr81 2.880 . S
C91 C92 1.491 . S
C91 O106 1.254 . S
C91 O107 1.225 . S
C92 C91 1.491 . S
C92 C93 1.392 . S
C92 C97 1.356 . S
C93 C92 1.392 . S
C93 C94 1.368 . S
C93 H116 0.929 . S
C94 C93 1.368 . S
C94 C95 1.386 . S
C94 H117 0.929 . S
C95 C94 1.386 . S
C95 C96 1.373 . S
C96 C95 1.373 . S
C96 C97 1.409 . S
C96 H118 0.931 . S
C97 C92 1.356 . S
C97 C96 1.409 . S
C97 H119 0.930 . S
C98 O108 1.270 . S
C98 O109 1.248 . S
C99 O110 1.267 . S
C99 O111 1.278 . S
O100 Pr80 2.562 . S
O100 C82 1.254 . S
O101 Pr80 2.490 . S
O101 C82 1.225 . S
O102 Pr80 2.695 . S
O102 Pr81 2.436 . S
O102 C89 1.270 . S
O103 Pr80 2.512 . S
O103 C89 1.248 . S
O104 Pr81 2.438 . S
O104 C90 1.267 . S
O105 Pr80 2.437 . S
O105 C90 1.278 . S
O106 Pr81 2.562 . S
O106 C91 1.254 . S
O107 Pr81 2.490 . S
O107 C91 1.225 . S
O108 Pr80 2.436 . S
O108 Pr81 2.695 . S
O108 C98 1.270 . S
O109 Pr81 2.512 . S
O109 C98 1.248 . S
O110 Pr80 2.438 . S
O110 C99 1.267 . S
O111 Pr81 2.437 . S
O111 C99 1.278 . S
H112 C84 0.929 . S
H113 C85 0.929 . S
H114 C87 0.931 . S
H115 C88 0.930 . S
H116 C93 0.929 . S
H117 C94 0.929 . S
H118 C96 0.931 . S
H119 C97 0.930 . S
Pr120 C122 2.880 . S
Pr120 O140 2.562 . S
Pr120 O141 2.490 . S
Pr120 O142 2.695 . S
Pr120 O143 2.512 . S
Pr120 O145 2.437 . S
Pr120 O148 2.436 . S
Pr120 O150 2.438 . S
Pr121 C131 2.880 . S
Pr121 O142 2.436 . S
Pr121 O144 2.438 . S
Pr121 O146 2.562 . S
Pr121 O147 2.490 . S
Pr121 O148 2.695 . S
Pr121 O149 2.512 . S
Pr121 O151 2.437 . S
C122 Pr120 2.880 . S
C122 C123 1.495 . S
C122 O140 1.254 . S
C122 O141 1.225 . S
C123 C122 1.495 . S
C123 C124 1.390 1_554 S
C123 C128 1.353 1_554 S
C124 C123 1.390 1_556 S
C124 C125 1.368 . S
C124 H152 0.939 . S
C125 C124 1.368 . S
C125 C126 1.386 . S
C125 H153 0.929 . S
C126 C125 1.386 . S
C126 C127 1.373 . S
C127 C126 1.373 . S
C127 C128 1.409 . S
C127 H154 0.931 . S
C128 C123 1.353 1_556 S
C128 C127 1.409 . S
C128 H155 0.930 . S
C129 O142 1.270 . S
C129 O143 1.248 . S
C130 O144 1.267 . S
C130 O145 1.278 . S
C131 Pr121 2.880 . S
C131 C132 1.491 . S
C131 O146 1.254 . S
C131 O147 1.225 . S
C132 C131 1.491 . S
C132 C133 1.392 . S
C132 C137 1.356 . S
C133 C132 1.392 . S
C133 C134 1.368 . S
C133 H156 0.929 . S
C134 C133 1.368 . S
C134 C135 1.386 . S
C134 H157 0.929 . S
C135 C134 1.386 . S
C135 C136 1.373 . S
C136 C135 1.373 . S
C136 C137 1.409 . S
C136 H158 0.931 . S
C137 C132 1.356 . S
C137 C136 1.409 . S
C137 H159 0.930 . S
C138 O148 1.270 . S
C138 O149 1.248 . S
C139 O150 1.267 . S
C139 O151 1.278 . S
O140 Pr120 2.562 . S
O140 C122 1.254 . S
O141 Pr120 2.490 . S
O141 C122 1.225 . S
O142 Pr120 2.695 . S
O142 Pr121 2.436 . S
O142 C129 1.270 . S
O143 Pr120 2.512 . S
O143 C129 1.248 . S
O144 Pr121 2.438 . S
O144 C130 1.267 . S
O145 Pr120 2.437 . S
O145 C130 1.278 . S
O146 Pr121 2.562 . S
O146 C131 1.254 . S
O147 Pr121 2.490 . S
O147 C131 1.225 . S
O148 Pr120 2.436 . S
O148 Pr121 2.695 . S
O148 C138 1.270 . S
O149 Pr121 2.512 . S
O149 C138 1.248 . S
O150 Pr120 2.438 . S
O150 C139 1.267 . S
O151 Pr121 2.437 . S
O151 C139 1.278 . S
H152 C124 0.939 . S
H153 C125 0.929 . S
H154 C127 0.931 . S
H155 C128 0.930 . S
H156 C133 0.929 . S
H157 C134 0.929 . S
H158 C136 0.931 . S
H159 C137 0.930 . S
Pr160 C162 2.880 . S
Pr160 O180 2.562 . S
Pr160 O181 2.490 . S
Pr160 O182 2.695 . S
Pr160 O183 2.512 . S
Pr160 O185 2.437 . S
Pr160 O188 2.436 . S
Pr160 O190 2.438 . S
Pr161 C171 2.880 . S
Pr161 O182 2.436 . S
Pr161 O184 2.438 . S
Pr161 O186 2.562 . S
Pr161 O187 2.490 . S
Pr161 O188 2.695 . S
Pr161 O189 2.512 . S
Pr161 O191 2.437 . S
C162 Pr160 2.880 . S
C162 C163 1.491 . S
C162 O180 1.254 . S
C162 O181 1.225 . S
C163 C162 1.491 . S
C163 C164 1.392 . S
C163 C168 1.356 . S
C164 C163 1.392 . S
C164 C165 1.368 . S
C164 H192 0.929 . S
C165 C164 1.368 . S
C165 C166 1.386 . S
C165 H193 0.929 . S
C166 C165 1.386 . S
C166 C167 1.373 . S
C167 C166 1.373 . S
C167 C168 1.409 . S
C167 H194 0.931 . S
C168 C163 1.356 . S
C168 C167 1.409 . S
C168 H195 0.930 . S
C169 O182 1.270 . S
C169 O183 1.248 . S
C170 O184 1.267 . S
C170 O185 1.278 . S
C171 Pr161 2.880 . S
C171 C172 1.491 . S
C171 O186 1.254 . S
C171 O187 1.225 . S
C172 C171 1.491 . S
C172 C173 1.392 . S
C172 C177 1.356 . S
C173 C172 1.392 . S
C173 C174 1.368 . S
C173 H196 0.929 . S
C174 C173 1.368 . S
C174 C175 1.386 . S
C174 H197 0.929 . S
C175 C174 1.386 . S
C175 C176 1.373 . S
C176 C175 1.373 . S
C176 C177 1.409 . S
C176 H198 0.931 . S
C177 C172 1.356 . S
C177 C176 1.409 . S
C177 H199 0.930 . S
C178 O188 1.270 . S
C178 O189 1.248 . S
C179 O190 1.267 . S
C179 O191 1.278 . S
O180 Pr160 2.562 . S
O180 C162 1.254 . S
O181 Pr160 2.490 . S
O181 C162 1.225 . S
O182 Pr160 2.695 . S
O182 Pr161 2.436 . S
O182 C169 1.270 . S
O183 Pr160 2.512 . S
O183 C169 1.248 . S
O184 Pr161 2.438 . S
O184 C170 1.267 . S
O185 Pr160 2.437 . S
O185 C170 1.278 . S
O186 Pr161 2.562 . S
O186 C171 1.254 . S
O187 Pr161 2.490 . S
O187 C171 1.225 . S
O188 Pr160 2.436 . S
O188 Pr161 2.695 . S
O188 C178 1.270 . S
O189 Pr161 2.512 . S
O189 C178 1.248 . S
O190 Pr160 2.438 . S
O190 C179 1.267 . S
O191 Pr161 2.437 . S
O191 C179 1.278 . S
H192 C164 0.929 . S
H193 C165 0.929 . S
H194 C167 0.931 . S
H195 C168 0.930 . S
H196 C173 0.929 . S
H197 C174 0.929 . S
H198 C176 0.931 . S
H199 C177 0.930 . S
Pr200 C202 2.880 . S
Pr200 O220 2.562 . S
Pr200 O221 2.490 . S
Pr200 O222 2.695 . S
Pr200 O223 2.512 . S
Pr200 O225 2.437 . S
Pr200 O228 2.436 . S
Pr200 O230 2.438 . S
Pr201 C211 2.880 1_556 S
Pr201 O222 2.436 . S
Pr201 O224 2.438 . S
Pr201 O226 2.562 1_556 S
Pr201 O227 2.490 1_556 S
Pr201 O228 2.695 . S
Pr201 O229 2.512 . S
Pr201 O231 2.437 . S
C202 Pr200 2.880 . S
C202 C203 1.491 . S
C202 O220 1.254 . S
C202 O221 1.225 . S
C203 C202 1.491 . S
C203 C204 1.392 . S
C203 C208 1.356 . S
C204 C203 1.392 . S
C204 C205 1.368 . S
C204 H232 0.929 . S
C205 C204 1.368 . S
C205 C206 1.386 . S
C205 H233 0.929 . S
C206 C205 1.386 . S
C206 C207 1.373 . S
C207 C206 1.373 . S
C207 C208 1.409 . S
C207 H234 0.931 . S
C208 C203 1.356 . S
C208 C207 1.409 . S
C208 H235 0.930 . S
C209 O222 1.270 . S
C209 O223 1.248 . S
C210 O224 1.267 . S
C210 O225 1.278 . S
C211 Pr201 2.880 1_554 S
C211 C212 1.491 . S
C211 O226 1.254 . S
C211 O227 1.225 . S
C212 C211 1.491 . S
C212 C213 1.392 . S
C212 C217 1.356 . S
C213 C212 1.392 . S
C213 C214 1.368 . S
C213 H236 0.929 . S
C214 C213 1.368 . S
C214 C215 1.386 . S
C214 H237 0.929 . S
C215 C214 1.386 . S
C215 C216 1.373 . S
C216 C215 1.373 . S
C216 C217 1.409 . S
C216 H238 0.931 . S
C217 C212 1.356 . S
C217 C216 1.409 . S
C217 H239 0.930 . S
C218 O228 1.270 . S
C218 O229 1.248 . S
C219 O230 1.267 . S
C219 O231 1.278 . S
O220 Pr200 2.562 . S
O220 C202 1.254 . S
O221 Pr200 2.490 . S
O221 C202 1.225 . S
O222 Pr200 2.695 . S
O222 Pr201 2.436 . S
O222 C209 1.270 . S
O223 Pr200 2.512 . S
O223 C209 1.248 . S
O224 Pr201 2.438 . S
O224 C210 1.267 . S
O225 Pr200 2.437 . S
O225 C210 1.278 . S
O226 Pr201 2.562 1_554 S
O226 C211 1.254 . S
O227 Pr201 2.490 1_554 S
O227 C211 1.225 . S
O228 Pr200 2.436 . S
O228 Pr201 2.695 . S
O228 C218 1.270 . S
O229 Pr201 2.512 . S
O229 C218 1.248 . S
O230 Pr200 2.438 . S
O230 C219 1.267 . S
O231 Pr201 2.437 . S
O231 C219 1.278 . S
H232 C204 0.929 . S
H233 C205 0.929 . S
H234 C207 0.931 . S
H235 C208 0.930 . S
H236 C213 0.929 . S
H237 C214 0.929 . S
H238 C216 0.931 . S
H239 C217 0.930 . S
H240 C252 0.930 . S
H241 C254 0.930 1_554 S
H242 C255 0.930 . S
H243 C259 0.959 . S
H244 C259 0.959 . S
H245 C259 0.961 . S
H246 C260 0.960 . S
H247 C260 0.961 . S
H248 C260 0.959 . S
H249 C263 0.929 . S
H250 C264 0.931 . S
H251 C266 0.930 . S
C252 H240 0.930 . S
C252 C253 1.399 . S
C252 C257 1.399 . S
C253 C252 1.399 . S
C253 C254 1.376 . S
C254 H241 0.930 1_556 S
C254 C253 1.376 . S
C254 C255 1.388 1_556 S
C255 H242 0.930 . S
C255 C254 1.388 1_554 S
C255 C256 1.390 1_554 S
C256 C255 1.390 1_556 S
C256 C257 1.394 . S
C256 C262 1.465 1_556 S
C257 C252 1.399 . S
C257 C256 1.394 . S
C257 C258 1.516 . S
C258 C257 1.516 . S
C258 C259 1.502 . S
C258 C260 1.561 . S
C258 C261 1.526 . S
C259 H243 0.959 . S
C259 H244 0.959 . S
C259 H245 0.961 . S
C259 C258 1.502 . S
C260 H246 0.960 . S
C260 H247 0.961 . S
C260 H248 0.959 . S
C260 C258 1.561 . S
C261 C258 1.526 . S
C261 C262 1.396 1_556 S
C261 C266 1.390 . S
C262 C256 1.465 1_554 S
C262 C261 1.396 1_554 S
C262 C263 1.399 . S
C263 H249 0.929 . S
C263 C262 1.399 . S
C263 C264 1.385 . S
C264 H250 0.931 . S
C264 C263 1.385 . S
C264 C265 1.389 . S
C265 C264 1.389 . S
C265 C266 1.387 1_554 S
C266 H251 0.930 . S
C266 C261 1.390 . S
C266 C265 1.387 1_556 S
H267 C279 0.930 1_655 S
H268 C281 0.930 . S
H269 C282 0.930 . S
H270 C286 0.959 . S
H271 C286 0.959 . S
H272 C286 0.961 . S
H273 C287 0.960 . S
H274 C287 0.961 . S
H275 C287 0.959 1_455 S
H276 C290 0.929 . S
H277 C291 0.930 . S
H278 C293 0.930 . S
C279 H267 0.930 1_455 S
C279 C280 1.399 . S
C279 C284 1.399 . S
C280 C279 1.399 . S
C280 C281 1.376 . S
C281 H268 0.930 . S
C281 C280 1.376 . S
C281 C282 1.388 . S
C282 H269 0.930 . S
C282 C281 1.388 . S
C282 C283 1.390 . S
C283 C282 1.390 . S
C283 C284 1.394 . S
C283 C289 1.465 . S
C284 C279 1.399 . S
C284 C283 1.394 . S
C284 C285 1.516 1_455 S
C285 C284 1.516 1_655 S
C285 C286 1.502 . S
C285 C287 1.561 . S
C285 C288 1.526 . S
C286 H270 0.959 . S
C286 H271 0.959 . S
C286 H272 0.961 . S
C286 C285 1.502 . S
C287 H273 0.960 . S
C287 H274 0.961 . S
C287 H275 0.959 1_655 S
C287 C285 1.561 . S
C288 C285 1.526 . S
C288 C289 1.396 1_655 S
C288 C293 1.390 . S
C289 C283 1.465 . S
C289 C288 1.396 1_455 S
C289 C290 1.399 . S
C290 H276 0.929 . S
C290 C289 1.399 . S
C290 C291 1.385 1_455 S
C291 H277 0.930 . S
C291 C290 1.385 1_655 S
C291 C292 1.389 . S
C292 C291 1.389 . S
C292 C293 1.387 . S
C293 H278 0.930 . S
C293 C288 1.390 . S
C293 C292 1.387 . S
H294 C306 0.930 . S
H295 C308 0.930 . S
H296 C309 0.930 . S
H297 C313 0.959 . S
H298 C313 0.959 . S
H299 C313 0.961 . S
H300 C314 0.961 . S
H301 C314 0.961 . S
H302 C314 0.959 . S
H303 C317 0.929 . S
H304 C318 0.931 . S
H305 C320 0.930 . S
C306 H294 0.930 . S
C306 C307 1.399 . S
C306 C311 1.399 . S
C307 C306 1.399 . S
C307 C308 1.376 . S
C308 H295 0.930 . S
C308 C307 1.376 . S
C308 C309 1.388 . S
C309 H296 0.930 . S
C309 C308 1.388 . S
C309 C310 1.390 . S
C310 C309 1.390 . S
C310 C311 1.394 . S
C310 C316 1.465 1_545 S
C311 C306 1.399 . S
C311 C310 1.394 . S
C311 C312 1.516 1_545 S
C312 C311 1.516 1_565 S
C312 C313 1.502 . S
C312 C314 1.561 . S
C312 C315 1.526 . S
C313 H297 0.959 . S
C313 H298 0.959 . S
C313 H299 0.961 . S
C313 C312 1.502 . S
C314 H300 0.961 . S
C314 H301 0.961 . S
C314 H302 0.959 . S
C314 C312 1.561 . S
C315 C312 1.526 . S
C315 C316 1.396 . S
C315 C320 1.390 . S
C316 C310 1.465 1_565 S
C316 C315 1.396 . S
C316 C317 1.399 . S
C317 H303 0.929 . S
C317 C316 1.399 . S
C317 C318 1.385 . S
C318 H304 0.931 . S
C318 C317 1.385 . S
C318 C319 1.389 . S
C319 C318 1.389 . S
C319 C320 1.387 . S
C320 H305 0.930 . S
C320 C315 1.390 . S
C320 C319 1.387 . S
H321 C333 0.930 . S
H322 C335 0.930 . S
H323 C336 0.930 . S
H324 C340 0.959 . S
H325 C340 0.959 . S
H326 C340 0.961 . S
H327 C341 0.960 . S
H328 C341 0.961 1_554 S
H329 C341 0.959 1_554 S
H330 C344 0.929 . S
H331 C345 0.931 . S
H332 C347 0.930 . S
C333 H321 0.930 . S
C333 C334 1.399 . S
C333 C338 1.399 . S
C334 C333 1.399 . S
C334 C335 1.376 . S
C335 H322 0.930 . S
C335 C334 1.376 . S
C335 C336 1.388 . S
C336 H323 0.930 . S
C336 C335 1.388 . S
C336 C337 1.390 . S
C337 C336 1.390 . S
C337 C338 1.394 . S
C337 C343 1.465 1_556 S
C338 C333 1.399 . S
C338 C337 1.394 . S
C338 C339 1.516 . S
C339 C338 1.516 . S
C339 C340 1.502 . S
C339 C341 1.561 . S
C339 C342 1.526 1_556 S
C340 H324 0.959 . S
C340 H325 0.959 . S
C340 H326 0.961 . S
C340 C339 1.502 . S
C341 H327 0.960 . S
C341 H328 0.961 1_556 S
C341 H329 0.959 1_556 S
C341 C339 1.561 . S
C342 C339 1.526 1_554 S
C342 C343 1.396 . S
C342 C347 1.390 . S
C343 C337 1.465 1_554 S
C343 C342 1.396 . S
C343 C344 1.399 . S
C344 H330 0.929 . S
C344 C343 1.399 . S
C344 C345 1.385 . S
C345 H331 0.931 . S
C345 C344 1.385 . S
C345 C346 1.389 . S
C346 C345 1.389 . S
C346 C347 1.387 . S
C347 H332 0.930 . S
C347 C342 1.390 . S
C347 C346 1.387 . S
H348 C360 0.930 . S
H349 C362 0.930 . S
H350 C363 0.930 . S
H351 C367 0.959 . S
H352 C367 0.959 1_655 S
H353 C367 0.961 . S
H354 C368 0.960 1_455 S
H355 C368 0.961 . S
H356 C368 0.959 . S
H357 C371 0.929 . S
H358 C372 0.931 . S
H359 C374 0.930 . S
C360 H348 0.930 . S
C360 C361 1.399 . S
C360 C365 1.399 . S
C361 C360 1.399 . S
C361 C362 1.376 . S
C362 H349 0.930 . S
C362 C361 1.376 . S
C362 C363 1.388 . S
C363 H350 0.930 . S
C363 C362 1.388 . S
C363 C364 1.390 . S
C364 C363 1.390 . S
C364 C365 1.394 . S
C364 C370 1.465 1_455 S
C365 C360 1.399 . S
C365 C364 1.394 . S
C365 C366 1.520 . S
C366 C365 1.520 . S
C366 C367 1.508 . S
C366 C368 1.562 1_455 S
C366 C369 1.514 1_455 S
C367 H351 0.959 . S
C367 H352 0.959 1_455 S
C367 H353 0.961 . S
C367 C366 1.508 . S
C368 H354 0.960 1_655 S
C368 H355 0.961 . S
C368 H356 0.959 . S
C368 C366 1.562 1_655 S
C369 C366 1.514 1_655 S
C369 C370 1.396 . S
C369 C374 1.390 . S
C370 C364 1.465 1_655 S
C370 C369 1.396 . S
C370 C371 1.399 . S
C371 H357 0.929 . S
C371 C370 1.399 . S
C371 C372 1.385 . S
C372 H358 0.931 . S
C372 C371 1.385 . S
C372 C373 1.389 . S
C373 C372 1.389 . S
C373 C374 1.387 . S
C374 H359 0.930 . S
C374 C369 1.390 . S
C374 C373 1.387 . S
H375 C387 0.930 1_565 S
H376 C389 0.930 . S
H377 C390 0.930 . S
H378 C394 0.959 . S
H379 C394 0.959 . S
H380 C394 0.961 . S
H381 C395 0.960 . S
H382 C395 0.961 . S
H383 C395 0.959 . S
H384 C398 0.929 . S
H385 C399 0.931 1_545 S
H386 C401 0.930 . S
C387 H375 0.930 1_545 S
C387 C388 1.399 . S
C387 C392 1.399 1_545 S
C388 C387 1.399 . S
C388 C389 1.376 . S
C389 H376 0.930 . S
C389 C388 1.376 . S
C389 C390 1.388 . S
C390 H377 0.930 . S
C390 C389 1.388 . S
C390 C391 1.390 . S
C391 C390 1.390 . S
C391 C392 1.394 1_545 S
C391 C397 1.465 . S
C392 C387 1.399 1_565 S
C392 C391 1.394 1_565 S
C392 C393 1.516 . S
C393 C392 1.516 . S
C393 C394 1.502 . S
C393 C395 1.561 . S
C393 C396 1.526 . S
C394 H378 0.959 . S
C394 H379 0.959 . S
C394 H380 0.961 . S
C394 C393 1.502 . S
C395 H381 0.960 . S
C395 H382 0.961 . S
C395 H383 0.959 . S
C395 C393 1.561 . S
C396 C393 1.526 . S
C396 C397 1.396 1_565 S
C396 C401 1.390 . S
C397 C391 1.465 . S
C397 C396 1.396 1_545 S
C397 C398 1.399 . S
C398 H384 0.929 . S
C398 C397 1.399 . S
C398 C399 1.385 1_545 S
C399 H385 0.931 1_565 S
C399 C398 1.385 1_565 S
C399 C400 1.389 . S
C400 C399 1.389 . S
C400 C401 1.387 . S
C401 H386 0.930 . S
C401 C396 1.390 . S
C401 C400 1.387 . S
H402 C414 0.930 . S
H403 C416 0.930 . S
H404 C417 0.930 . S
H405 C421 0.959 . S
H406 C421 0.959 . S
H407 C421 0.961 . S
H408 C422 0.960 . S
H409 C422 0.961 . S
H410 C422 0.959 . S
H411 C425 0.929 . S
H412 C426 0.931 . S
H413 C428 0.930 . S
C414 H402 0.930 . S
C414 C415 1.399 . S
C414 C419 1.399 . S
C415 C414 1.399 . S
C415 C416 1.376 . S
C416 H403 0.930 . S
C416 C415 1.376 . S
C416 C417 1.388 . S
C417 H404 0.930 . S
C417 C416 1.388 . S
C417 C418 1.390 . S
C418 C417 1.390 . S
C418 C419 1.394 . S
C418 C424 1.465 . S
C419 C414 1.399 . S
C419 C418 1.394 . S
C419 C420 1.516 . S
C420 C419 1.516 . S
C420 C421 1.502 . S
C420 C422 1.561 . S
C420 C423 1.526 . S
C421 H405 0.959 . S
C421 H406 0.959 . S
C421 H407 0.961 . S
C421 C420 1.502 . S
C422 H408 0.960 . S
C422 H409 0.961 . S
C422 H410 0.959 . S
C422 C420 1.561 . S
C423 C420 1.526 . S
C423 C424 1.396 . S
C423 C428 1.390 . S
C424 C418 1.465 . S
C424 C423 1.396 . S
C424 C425 1.399 . S
C425 H411 0.929 . S
C425 C424 1.399 . S
C425 C426 1.385 . S
C426 H412 0.931 . S
C426 C425 1.385 . S
C426 C427 1.389 . S
C427 C426 1.389 . S
C427 C428 1.387 . S
C428 H413 0.930 . S
C428 C423 1.390 . S
C428 C427 1.387 . S
H429 C441 0.930 . S
H430 C443 0.930 . S
H431 C444 0.930 . S
H432 C448 0.959 . S
H433 C448 0.959 1_556 S
H434 C448 0.961 . S
H435 C449 0.960 . S
H436 C449 0.961 1_556 S
H437 C449 0.959 . S
H438 C452 0.929 . S
H439 C453 0.931 . S
H440 C455 0.930 . S
C441 H429 0.930 . S
C441 C442 1.399 . S
C441 C446 1.399 . S
C442 C441 1.399 . S
C442 C443 1.376 . S
C443 H430 0.930 . S
C443 C442 1.376 . S
C443 C444 1.388 . S
C444 H431 0.930 . S
C444 C443 1.388 . S
C444 C445 1.390 . S
C445 C444 1.390 . S
C445 C446 1.394 . S
C445 C451 1.465 . S
C446 C441 1.399 . S
C446 C445 1.394 . S
C446 C447 1.516 . S
C447 C446 1.516 . S
C447 C448 1.502 . S
C447 C449 1.561 . S
C447 C450 1.526 . S
C448 H432 0.959 . S
C448 H433 0.959 1_554 S
C448 H434 0.961 . S
C448 C447 1.502 . S
C449 H435 0.960 . S
C449 H436 0.961 1_554 S
C449 H437 0.959 . S
C449 C447 1.561 . S
C450 C447 1.526 . S
C450 C451 1.396 . S
C450 C455 1.390 1_554 S
C451 C445 1.465 . S
C451 C450 1.396 . S
C451 C452 1.399 . S
C452 H438 0.929 . S
C452 C451 1.399 . S
C452 C453 1.385 1_554 S
C453 H439 0.931 . S
C453 C452 1.385 1_556 S
C453 C454 1.389 . S
C454 C453 1.389 . S
C454 C455 1.387 . S
C455 H440 0.930 . S
C455 C450 1.390 1_556 S
C455 C454 1.387 . S
H456 C468 0.930 . S
H457 C470 0.930 . S
H458 C471 0.930 . S
H459 C475 0.959 . S
H460 C475 0.959 . S
H461 C475 0.961 . S
H462 C476 0.960 . S
H463 C476 0.961 . S
H464 C476 0.959 . S
H465 C479 0.929 . S
H466 C480 0.931 . S
H467 C482 0.930 . S
C468 H456 0.930 . S
C468 C469 1.399 . S
C468 C473 1.399 . S
C469 C468 1.399 . S
C469 C470 1.376 . S
C470 H457 0.930 . S
C470 C469 1.376 . S
C470 C471 1.388 . S
C471 H458 0.930 . S
C471 C470 1.388 . S
C471 C472 1.390 . S
C472 C471 1.390 . S
C472 C473 1.394 . S
C472 C478 1.465 . S
C473 C468 1.399 . S
C473 C472 1.394 . S
C473 C474 1.516 . S
C474 C473 1.516 . S
C474 C475 1.502 . S
C474 C476 1.561 . S
C474 C477 1.526 . S
C475 H459 0.959 . S
C475 H460 0.959 . S
C475 H461 0.961 . S
C475 C474 1.502 . S
C476 H462 0.960 . S
C476 H463 0.961 . S
C476 H464 0.959 . S
C476 C474 1.561 . S
C477 C474 1.526 . S
C477 C478 1.396 . S
C477 C482 1.390 . S
C478 C472 1.465 . S
C478 C477 1.396 . S
C478 C479 1.399 . S
C479 H465 0.929 . S
C479 C478 1.399 . S
C479 C480 1.385 . S
C480 H466 0.931 . S
C480 C479 1.385 . S
C480 C481 1.389 . S
C481 C480 1.389 . S
C481 C482 1.387 . S
C482 H467 0.930 . S
C482 C477 1.390 . S
C482 C481 1.387 . S
H483 C495 0.930 . S
H484 C497 0.930 . S
H485 C498 0.930 . S
H486 C502 0.959 . S
H487 C502 0.959 . S
H488 C502 0.961 . S
H489 C503 0.960 . S
H490 C503 0.961 . S
H491 C503 0.959 . S
H492 C506 0.929 . S
H493 C507 0.931 . S
H494 C509 0.930 . S
C495 H483 0.930 . S
C495 C496 1.399 . S
C495 C500 1.399 . S
C496 C495 1.399 . S
C496 C497 1.376 . S
C497 H484 0.930 . S
C497 C496 1.376 . S
C497 C498 1.388 . S
C498 H485 0.930 . S
C498 C497 1.388 . S
C498 C499 1.390 . S
C499 C498 1.390 . S
C499 C500 1.394 . S
C499 C505 1.465 . S
C500 C495 1.399 . S
C500 C499 1.394 . S
C500 C501 1.516 . S
C501 C500 1.516 . S
C501 C502 1.502 . S
C501 C503 1.561 . S
C501 C504 1.526 . S
C502 H486 0.959 . S
C502 H487 0.959 . S
C502 H488 0.961 . S
C502 C501 1.502 . S
C503 H489 0.960 . S
C503 H490 0.961 . S
C503 H491 0.959 . S
C503 C501 1.561 . S
C504 C501 1.526 . S
C504 C505 1.396 . S
C504 C509 1.390 . S
C505 C499 1.465 . S
C505 C504 1.396 . S
C505 C506 1.399 . S
C506 H492 0.929 . S
C506 C505 1.399 . S
C506 C507 1.385 . S
C507 H493 0.931 . S
C507 C506 1.385 . S
C507 C508 1.389 . S
C508 C507 1.389 . S
C508 C509 1.387 . S
C509 H494 0.930 . S
C509 C504 1.390 . S
C509 C508 1.387 . S
H510 C522 0.930 . S
H511 C524 0.930 . S
H512 C525 0.930 . S
H513 C529 0.959 . S
H514 C529 0.959 . S
H515 C529 0.961 . S
H516 C530 0.960 . S
H517 C530 0.961 . S
H518 C530 0.959 . S
H519 C533 0.929 . S
H520 C534 0.931 . S
H521 C536 0.922 1_554 S
C522 H510 0.930 . S
C522 C523 1.399 . S
C522 C527 1.399 . S
C523 C522 1.399 . S
C523 C524 1.376 . S
C524 H511 0.930 . S
C524 C523 1.376 . S
C524 C525 1.388 . S
C525 H512 0.930 . S
C525 C524 1.388 . S
C525 C526 1.390 . S
C526 C525 1.390 . S
C526 C527 1.394 . S
C526 C532 1.465 . S
C527 C522 1.399 . S
C527 C526 1.394 . S
C527 C528 1.516 . S
C528 C527 1.516 . S
C528 C529 1.502 . S
C528 C530 1.561 . S
C528 C531 1.526 . S
C529 H513 0.959 . S
C529 H514 0.959 . S
C529 H515 0.961 . S
C529 C528 1.502 . S
C530 H516 0.960 . S
C530 H517 0.961 . S
C530 H518 0.959 . S
C530 C528 1.561 . S
C531 C528 1.526 . S
C531 C532 1.396 . S
C531 C536 1.401 . S
C532 C526 1.465 . S
C532 C531 1.396 . S
C532 C533 1.399 . S
C533 H519 0.929 . S
C533 C532 1.399 . S
C533 C534 1.385 . S
C534 H520 0.931 . S
C534 C533 1.385 . S
C534 C535 1.389 1_556 S
C535 C534 1.389 1_554 S
C535 C536 1.383 1_554 S
C536 H521 0.922 1_556 S
C536 C531 1.401 . S
C536 C535 1.383 1_556 S
H537 C549 0.930 . S
H538 C551 0.930 . S
H539 C552 0.930 . S
H540 C556 0.959 . S
H541 C556 0.959 . S
H542 C556 0.961 . S
H543 C557 0.960 . S
H544 C557 0.961 . S
H545 C557 0.959 . S
H546 C560 0.929 . S
H547 C561 0.931 . S
H548 C563 0.930 . S
C549 H537 0.930 . S
C549 C550 1.399 . S
C549 C554 1.399 . S
C550 C549 1.399 . S
C550 C551 1.376 . S
C551 H538 0.930 . S
C551 C550 1.376 . S
C551 C552 1.388 . S
C552 H539 0.930 . S
C552 C551 1.388 . S
C552 C553 1.390 . S
C553 C552 1.390 . S
C553 C554 1.394 . S
C553 C559 1.465 . S
C554 C549 1.399 . S
C554 C553 1.394 . S
C554 C555 1.516 . S
C555 C554 1.516 . S
C555 C556 1.502 . S
C555 C557 1.561 . S
C555 C558 1.526 . S
C556 H540 0.959 . S
C556 H541 0.959 . S
C556 H542 0.961 . S
C556 C555 1.502 . S
C557 H543 0.960 . S
C557 H544 0.961 . S
C557 H545 0.959 . S
C557 C555 1.561 . S
C558 C555 1.526 . S
C558 C559 1.396 . S
C558 C563 1.390 . S
C559 C553 1.465 . S
C559 C558 1.396 . S
C559 C560 1.399 . S
C560 H546 0.929 . S
C560 C559 1.399 . S
C560 C561 1.385 . S
C561 H547 0.931 . S
C561 C560 1.385 . S
C561 C562 1.389 . S
C562 C561 1.389 . S
C562 C563 1.387 . S
C563 H548 0.930 . S
C563 C558 1.390 . S
C563 C562 1.387 . S
H564 C576 0.930 . S
H565 C578 0.930 . S
H566 C579 0.930 . S
H567 C583 0.959 . S
H568 C583 0.959 . S
H569 C583 0.961 . S
H570 C584 0.960 . S
H571 C584 0.961 . S
H572 C584 0.959 . S
H573 C587 0.929 . S
H574 C588 0.931 . S
H575 C590 0.930 . S
C576 H564 0.930 . S
C576 C577 1.399 . S
C576 C581 1.399 . S
C577 C576 1.399 . S
C577 C578 1.376 . S
C578 H565 0.930 . S
C578 C577 1.376 . S
C578 C579 1.388 . S
C579 H566 0.930 . S
C579 C578 1.388 . S
C579 C580 1.390 . S
C580 C579 1.390 . S
C580 C581 1.394 . S
C580 C586 1.465 . S
C581 C576 1.399 . S
C581 C580 1.394 . S
C581 C582 1.516 . S
C582 C581 1.516 . S
C582 C583 1.502 . S
C582 C584 1.561 . S
C582 C585 1.526 . S
C583 H567 0.959 . S
C583 H568 0.959 . S
C583 H569 0.961 . S
C583 C582 1.502 . S
C584 H570 0.960 . S
C584 H571 0.961 . S
C584 H572 0.959 . S
C584 C582 1.561 . S
C585 C582 1.526 . S
C585 C586 1.396 . S
C585 C590 1.390 . S
C586 C580 1.465 . S
C586 C585 1.396 . S
C586 C587 1.399 . S
C587 H573 0.929 . S
C587 C586 1.399 . S
C587 C588 1.385 . S
C588 H574 0.931 . S
C588 C587 1.385 . S
C588 C589 1.389 . S
C589 C588 1.389 . S
C589 C590 1.387 . S
C590 H575 0.930 . S
C590 C585 1.390 . S
C590 C589 1.387 . S
H591 C603 0.930 . S
H592 C605 0.930 . S
H593 C606 0.930 . S
H594 C610 0.959 . S
H595 C610 0.959 . S
H596 C610 0.961 . S
H597 C611 0.960 . S
H598 C611 0.961 . S
H599 C611 0.959 . S
H600 C614 0.929 . S
H601 C615 0.931 . S
H602 C617 0.930 . S
C603 H591 0.930 . S
C603 C604 1.399 . S
C603 C608 1.399 . S
C604 C603 1.399 . S
C604 C605 1.376 . S
C605 H592 0.930 . S
C605 C604 1.376 . S
C605 C606 1.388 . S
C606 H593 0.930 . S
C606 C605 1.388 . S
C606 C607 1.390 . S
C607 C606 1.390 . S
C607 C608 1.394 . S
C607 C613 1.465 . S
C608 C603 1.399 . S
C608 C607 1.394 . S
C608 C609 1.516 . S
C609 C608 1.516 . S
C609 C610 1.502 . S
C609 C611 1.561 . S
C609 C612 1.526 . S
C610 H594 0.959 . S
C610 H595 0.959 . S
C610 H596 0.961 . S
C610 C609 1.502 . S
C611 H597 0.960 . S
C611 H598 0.961 . S
C611 H599 0.959 . S
C611 C609 1.561 . S
C612 C609 1.526 . S
C612 C613 1.396 . S
C612 C617 1.390 . S
C613 C607 1.465 . S
C613 C612 1.396 . S
C613 C614 1.399 . S
C614 H600 0.929 . S
C614 C613 1.399 . S
C614 C615 1.385 . S
C615 H601 0.931 . S
C615 C614 1.385 . S
C615 C616 1.389 . S
C616 C615 1.389 . S
C616 C617 1.387 . S
C617 H602 0.930 . S
C617 C612 1.390 . S
C617 C616 1.387 . S
H618 C630 0.930 . S
H619 C632 0.930 . S
H620 C633 0.930 . S
H621 C637 0.959 . S
H622 C637 0.959 . S
H623 C637 0.961 . S
H624 C638 0.960 . S
H625 C638 0.961 . S
H626 C638 0.959 . S
H627 C641 0.929 . S
H628 C642 0.931 . S
H629 C644 0.930 . S
C630 H618 0.930 . S
C630 C631 1.399 . S
C630 C635 1.399 . S
C631 C630 1.399 . S
C631 C632 1.376 . S
C632 H619 0.930 . S
C632 C631 1.376 . S
C632 C633 1.388 . S
C633 H620 0.930 . S
C633 C632 1.388 . S
C633 C634 1.390 . S
C634 C633 1.390 . S
C634 C635 1.394 . S
C634 C640 1.465 . S
C635 C630 1.399 . S
C635 C634 1.394 . S
C635 C636 1.516 . S
C636 C635 1.516 . S
C636 C637 1.502 . S
C636 C638 1.561 . S
C636 C639 1.526 . S
C637 H621 0.959 . S
C637 H622 0.959 . S
C637 H623 0.961 . S
C637 C636 1.502 . S
C638 H624 0.960 . S
C638 H625 0.961 . S
C638 H626 0.959 . S
C638 C636 1.561 . S
C639 C636 1.526 . S
C639 C640 1.396 . S
C639 C644 1.390 . S
C640 C634 1.465 . S
C640 C639 1.396 . S
C640 C641 1.399 . S
C641 H627 0.929 . S
C641 C640 1.399 . S
C641 C642 1.385 . S
C642 H628 0.931 . S
C642 C641 1.385 . S
C642 C643 1.389 . S
C643 C642 1.389 . S
C643 C644 1.387 . S
C644 H629 0.930 . S
C644 C639 1.390 . S
C644 C643 1.387 . S
H645 C657 0.930 . S
H646 C659 0.930 . S
H647 C660 0.930 . S
H648 C664 0.959 . S
H649 C664 0.959 . S
H650 C664 0.961 . S
H651 C665 0.960 . S
H652 C665 0.961 . S
H653 C665 0.959 . S
H654 C668 0.929 . S
H655 C669 0.931 . S
H656 C671 0.930 . S
C657 H645 0.930 . S
C657 C658 1.399 . S
C657 C662 1.399 . S
C658 C657 1.399 . S
C658 C659 1.376 . S
C659 H646 0.930 . S
C659 C658 1.376 . S
C659 C660 1.388 . S
C660 H647 0.930 . S
C660 C659 1.388 . S
C660 C661 1.390 . S
C661 C660 1.390 . S
C661 C662 1.394 . S
C661 C667 1.465 . S
C662 C657 1.399 . S
C662 C661 1.394 . S
C662 C663 1.516 . S
C663 C662 1.516 . S
C663 C664 1.502 . S
C663 C665 1.561 . S
C663 C666 1.526 . S
C664 H648 0.959 . S
C664 H649 0.959 . S
C664 H650 0.961 . S
C664 C663 1.502 . S
C665 H651 0.960 . S
C665 H652 0.961 . S
C665 H653 0.959 . S
C665 C663 1.561 . S
C666 C663 1.526 . S
C666 C667 1.396 . S
C666 C671 1.390 . S
C667 C661 1.465 . S
C667 C666 1.396 . S
C667 C668 1.399 . S
C668 H654 0.929 . S
C668 C667 1.399 . S
C668 C669 1.385 . S
C669 H655 0.931 . S
C669 C668 1.385 . S
C669 C670 1.389 . S
C670 C669 1.389 . S
C670 C671 1.387 . S
C671 H656 0.930 . S
C671 C666 1.390 . S
C671 C670 1.387 . S
H672 C684 0.930 . S
H673 C686 0.930 . S
H674 C687 0.930 . S
H675 C691 0.959 . S
H676 C691 0.959 . S
H677 C691 0.961 . S
H678 C692 0.960 . S
H679 C692 0.961 . S
H680 C692 0.959 . S
H681 C695 0.929 . S
H682 C696 0.931 . S
H683 C698 0.930 . S
C684 H672 0.930 . S
C684 C685 1.399 . S
C684 C689 1.399 . S
C685 C684 1.399 . S
C685 C686 1.376 . S
C686 H673 0.930 . S
C686 C685 1.376 . S
C686 C687 1.388 . S
C687 H674 0.930 . S
C687 C686 1.388 . S
C687 C688 1.390 . S
C688 C687 1.390 . S
C688 C689 1.394 . S
C688 C694 1.465 . S
C689 C684 1.399 . S
C689 C688 1.394 . S
C689 C690 1.516 . S
C690 C689 1.516 . S
C690 C691 1.502 . S
C690 C692 1.561 . S
C690 C693 1.526 . S
C691 H675 0.959 . S
C691 H676 0.959 . S
C691 H677 0.961 . S
C691 C690 1.502 . S
C692 H678 0.960 . S
C692 H679 0.961 . S
C692 H680 0.959 . S
C692 C690 1.561 . S
C693 C690 1.526 . S
C693 C694 1.396 . S
C693 C698 1.390 . S
C694 C688 1.465 . S
C694 C693 1.396 . S
C694 C695 1.399 . S
C695 H681 0.929 . S
C695 C694 1.399 . S
C695 C696 1.385 . S
C696 H682 0.931 . S
C696 C695 1.385 . S
C696 C697 1.389 . S
C697 C696 1.389 . S
C697 C698 1.387 . S
C698 H683 0.930 . S
C698 C693 1.390 . S
C698 C697 1.387 . S
H699 C711 0.930 . S
H700 C713 0.930 . S
H701 C714 0.930 . S
H702 C718 0.959 . S
H703 C718 0.959 . S
H704 C718 0.961 . S
H705 C719 0.959 1_554 S
H706 C719 0.971 . S
H707 C719 0.959 . S
H708 C722 0.929 . S
H709 C723 0.931 . S
H710 C725 0.930 1_556 S
C711 H699 0.930 . S
C711 C712 1.399 . S
C711 C716 1.399 . S
C712 C711 1.399 . S
C712 C713 1.376 . S
C713 H700 0.930 . S
C713 C712 1.376 . S
C713 C714 1.388 . S
C714 H701 0.930 . S
C714 C713 1.388 . S
C714 C715 1.390 . S
C715 C714 1.390 . S
C715 C716 1.394 . S
C715 C721 1.465 . S
C716 C711 1.399 . S
C716 C715 1.394 . S
C716 C717 1.516 . S
C717 C716 1.516 . S
C717 C718 1.502 . S
C717 C719 1.552 1_554 S
C717 C720 1.526 . S
C718 H702 0.959 . S
C718 H703 0.959 . S
C718 H704 0.961 . S
C718 C717 1.502 . S
C719 H705 0.959 1_556 S
C719 H706 0.971 . S
C719 H707 0.959 . S
C719 C717 1.552 1_556 S
C720 C717 1.526 . S
C720 C721 1.396 . S
C720 C725 1.390 . S
C721 C715 1.465 . S
C721 C720 1.396 . S
C721 C722 1.399 . S
C722 H708 0.929 . S
C722 C721 1.399 . S
C722 C723 1.385 . S
C723 H709 0.931 . S
C723 C722 1.385 . S
C723 C724 1.389 . S
C724 C723 1.389 . S
C724 C725 1.387 . S
C725 H710 0.930 1_554 S
C725 C720 1.390 . S
C725 C724 1.387 . S
C253 C209 1.443 . S
C265 C9 1.382 . S
C280 C10 1.743 . S
C292 C50 1.779 . S
C307 C49 1.430 . S
C319 C89 1.359 . S
C334 C90 1.751 . S
C346 C130 1.768 . S
C361 C169 1.414 . S
C373 C129 1.442 . S
C388 C210 1.753 . S
C400 C170 1.780 . S
C415 C15 1.233 . S
C427 C6 1.319 . S
C442 C46 1.250 . S
C454 C55 1.320 . S
C469 C95 1.315 . S
C481 C86 1.237 . S
C496 C126 1.318 . S
C508 C135 1.253 . S
C523 C166 1.231 . S
C535 C175 1.324 . S
C550 C206 1.301 . S
C562 C215 1.274 . S
C577 C18 1.843 . S
C589 C179 1.821 . S
C604 C59 1.824 . S
C616 C218 1.845 . S
C631 C19 1.837 . S
C643 C98 1.846 . S
C658 C58 1.843 . S
C670 C139 1.822 . S
C685 C178 1.842 . S
C697 C99 1.824 . S
C712 C138 1.843 . S
C724 C219 1.836 1_554 S
