# Generated by pormake.
# Topology srs, (3)-cn, num edge types: 1
# Building blocks:
#     Node 0, Type 0, BuildingBlock: OLANEW_clean_sbu_2, # of connection points: 3
#     Node 1, Type 0, BuildingBlock: OLANEW_clean_sbu_2, # of connection points: 3
#     Node 2, Type 0, BuildingBlock: OLANEW_clean_sbu_2, # of connection points: 3
#     Node 3, Type 0, BuildingBlock: OLANEW_clean_sbu_2, # of connection points: 3
#     Node 4, Type 0, BuildingBlock: OLANEW_clean_sbu_2, # of connection points: 3
#     Node 5, Type 0, BuildingBlock: OLANEW_clean_sbu_2, # of connection points: 3
#     Node 6, Type 0, BuildingBlock: OLANEW_clean_sbu_2, # of connection points: 3
#     Node 7, Type 0, BuildingBlock: OLANEW_clean_sbu_2, # of connection points: 3
#     Edge 8, Type (0, 0), BuildingBlock: XUDNAN_clean_linker_2, # of connection points: 2
#     Edge 9, Type (0, 0), BuildingBlock: XUDNAN_clean_linker_2, # of connection points: 2
#     Edge 10, Type (0, 0), BuildingBlock: XUDNAN_clean_linker_2, # of connection points: 2
#     Edge 11, Type (0, 0), BuildingBlock: XUDNAN_clean_linker_2, # of connection points: 2
#     Edge 12, Type (0, 0), BuildingBlock: XUDNAN_clean_linker_2, # of connection points: 2
#     Edge 13, Type (0, 0), BuildingBlock: XUDNAN_clean_linker_2, # of connection points: 2
#     Edge 14, Type (0, 0), BuildingBlock: XUDNAN_clean_linker_2, # of connection points: 2
#     Edge 15, Type (0, 0), BuildingBlock: XUDNAN_clean_linker_2, # of connection points: 2
#     Edge 16, Type (0, 0), BuildingBlock: XUDNAN_clean_linker_2, # of connection points: 2
#     Edge 17, Type (0, 0), BuildingBlock: XUDNAN_clean_linker_2, # of connection points: 2
#     Edge 18, Type (0, 0), BuildingBlock: XUDNAN_clean_linker_2, # of connection points: 2
#     Edge 19, Type (0, 0), BuildingBlock: XUDNAN_clean_linker_2, # of connection points: 2
# Relax obj value: 0.001
# Max RMSD: 0.083
# Mean RMSD: 0.072
data_MOF--net-srs--node1-OLANEW_clean_sbu_2--edge1-XUDNAN_clean_linker_2
_symmetry_space_group_name_H-M    P1
_symmetry_Int_Tables_number       1
_symmetry_cell_setting            triclinic
loop_
_symmetry_equiv_pos_as_xyz
'x, y, z'
_cell_length_a     34.879508
_cell_length_b     52.729561
_cell_length_c     44.935819
_cell_angle_alpha  101.05091
_cell_angle_beta   89.382944
_cell_angle_gamma 103.14201
loop_
_atom_site_label
_atom_site_type_symbol
_atom_site_fract_x
_atom_site_fract_y
_atom_site_fract_z
_atom_type_partial_charge
O0 O 0.1528 0.09621 0.1175 0.0
Cd1 Cd 0.09222 0.09887 0.1445 0.0
O2 O 0.19143 0.11864 0.15662 0.0
Cd3 Cd 0.1437 0.13509 0.17838 0.0
O4 O 0.11283 0.16743 0.18551 0.0
C5 C 0.13202 0.19017 0.19895 0.0
O6 O 0.16789 0.19254 0.20955 0.0
C7 C 0.18707 0.10466 0.12995 0.0
C8 C 0.07606 0.05876 0.17843 0.0
O9 O 0.06534 0.05419 0.15036 0.0
O10 O 0.09371 0.08248 0.19076 0.0
O11 O 0.09962 0.93145 0.41067 0.0
Cd12 Cd 0.04159 0.9163 0.37633 0.0
O13 O 0.12127 0.89494 0.39734 0.0
Cd14 Cd 0.07252 0.87312 0.36572 0.0
O15 O 0.03285 0.83533 0.34574 0.0
C16 C 0.03436 0.81645 0.35922 0.0
O17 O 0.05835 0.82141 0.38304 0.0
C18 C 0.12511 0.91812 0.41327 0.0
C19 C 0.04896 0.94127 0.32648 0.0
O20 O 0.03852 0.95257 0.35212 0.0
O21 O 0.05613 0.91821 0.3244 0.0
O22 O 0.46659 0.89977 0.65946 0.0
Cd23 Cd 0.49229 0.86846 0.62174 0.0
O24 O 0.43071 0.90344 0.62166 0.0
Cd25 Cd 0.38972 0.91823 0.59665 0.0
O26 O 0.34671 0.92395 0.56509 0.0
C27 C 0.33417 0.94509 0.56809 0.0
O28 O 0.34745 0.96458 0.5911 0.0
C29 C 0.44075 0.91 0.64973 0.0
C30 C 0.51219 0.82711 0.64397 0.0
O31 O 0.53801 0.84853 0.64298 0.0
O32 O 0.47681 0.82547 0.63497 0.0
O33 O 0.40782 0.12852 0.85603 0.0
Cd34 Cd 0.37444 0.08446 0.86426 0.0
O35 O 0.44132 0.13839 0.89953 0.0
Cd36 Cd 0.40891 0.10404 0.91693 0.0
O37 O 0.37246 0.09018 0.95301 0.0
C38 C 0.38856 0.09425 0.97926 0.0
O39 O 0.42664 0.10452 0.98279 0.0
C40 C 0.43368 0.14448 0.87456 0.0
C41 C 0.37758 0.04539 0.81331 0.0
O42 O 0.3485 0.05667 0.81682 0.0
O43 O 0.40508 0.05253 0.83395 0.0
O44 O 0.59177 0.47261 0.94613 0.0
Cd45 Cd 0.54419 0.49469 0.92876 0.0
O46 O 0.56308 0.43522 0.91633 0.0
Cd47 Cd 0.55442 0.39317 0.8952 0.0
O48 O 0.53737 0.35058 0.87664 0.0
C49 C 0.54565 0.33425 0.89158 0.0
O50 O 0.56531 0.34346 0.91765 0.0
C51 C 0.58938 0.448 0.9365 0.0
C52 C 0.55237 0.50221 0.86908 0.0
O53 O 0.57095 0.51969 0.89112 0.0
O54 O 0.53048 0.48093 0.87523 0.0
O55 O 0.94841 0.38937 0.14205 0.0
Cd56 Cd 0.98103 0.35692 0.11228 0.0
O57 O 0.90254 0.37794 0.10604 0.0
Cd58 Cd 0.84768 0.37739 0.08229 0.0
O59 O 0.79604 0.37883 0.05609 0.0
C60 C 0.79555 0.39964 0.04591 0.0
O61 O 0.82613 0.41989 0.0516 0.0
C62 C 0.91686 0.39269 0.13111 0.0
C63 C 0.01472 0.32753 0.14567 0.0
O64 O 0.03303 0.35083 0.14258 0.0
O65 O 0.98003 0.3183 0.13352 0.0
O66 O 0.85665 0.61814 0.31482 0.0
Cd67 Cd 0.81822 0.57413 0.31949 0.0
O68 O 0.89192 0.62311 0.35672 0.0
Cd69 Cd 0.85838 0.58773 0.37157 0.0
O70 O 0.82871 0.57311 0.41008 0.0
C71 C 0.84987 0.57448 0.43345 0.0
O72 O 0.88831 0.58236 0.43224 0.0
C73 C 0.88425 0.63177 0.33347 0.0
C74 C 0.83152 0.53469 0.27207 0.0
O75 O 0.80556 0.5479 0.26931 0.0
O76 O 0.8512 0.54008 0.29732 0.0
O77 O 0.65283 0.59036 0.60261 0.0
Cd78 Cd 0.6007 0.60251 0.63539 0.0
O79 O 0.70155 0.61301 0.63453 0.0
Cd80 Cd 0.66198 0.63353 0.66231 0.0
O81 O 0.62304 0.66093 0.67273 0.0
C82 C 0.63759 0.68529 0.67255 0.0
O83 O 0.67535 0.69287 0.66782 0.0
C84 C 0.68946 0.59707 0.60971 0.0
C85 C 0.58543 0.5726 0.681 0.0
O86 O 0.56782 0.56423 0.65489 0.0
O87 O 0.61021 0.59511 0.68556 0.0
H88 H 0.05932 0.99436 0.32655 0.0
H89 H 0.04602 0.91765 0.2666 0.0
H90 H 0.04973 0.9393 0.22214 0.0
H91 H 0.0034 0.02317 0.28106 0.0
H92 H 0.03599 0.05568 0.28952 0.0
H93 H 0.0312 0.0341 0.31661 0.0
H94 H 0.10666 0.03822 0.3171 0.0
H95 H 0.11171 0.05988 0.29011 0.0
H96 H 0.13049 0.03023 0.28186 0.0
H97 H 0.05269 0.96914 0.18432 0.0
H98 H 0.06085 0.00548 0.15565 0.0
H99 H 0.07641 0.06304 0.24028 0.0
C100 C 0.05705 0.98213 0.30405 0.0
C101 C 0.0521 0.95431 0.29995 0.0
C102 C 0.04983 0.93899 0.27021 0.0
C103 C 0.05176 0.95109 0.24484 0.0
C104 C 0.0565 0.97855 0.24966 0.0
C105 C 0.05963 0.99393 0.27851 0.0
C106 C 0.06616 0.02314 0.27745 0.0
C107 C 0.03215 0.03469 0.29202 0.0
C108 C 0.10614 0.03878 0.29252 0.0
C109 C 0.06599 0.02178 0.24348 0.0
C110 C 0.05992 0.99585 0.22787 0.0
C111 C 0.05771 0.98953 0.19628 0.0
C112 C 0.06223 0.01029 0.18022 0.0
C113 C 0.06942 0.03706 0.19575 0.0
C114 C 0.07122 0.04278 0.2278 0.0
H115 H 0.18086 0.89293 0.42774 0.0
H116 H 0.1432 0.9671 0.45113 0.0
H117 H 0.19487 0.98314 0.49193 0.0
H118 H 0.19824 0.88632 0.50234 0.0
H119 H 0.24074 0.87249 0.49379 0.0
H120 H 0.20307 0.86779 0.46491 0.0
H121 H 0.25519 0.88846 0.42955 0.0
H122 H 0.29312 0.89309 0.45828 0.0
H123 H 0.28629 0.92098 0.4429 0.0
H124 H 0.24834 0.98991 0.53227 0.0
H125 H 0.29949 0.98697 0.56831 0.0
H126 H 0.30112 0.90816 0.51823 0.0
C127 C 0.18376 0.91272 0.44109 0.0
C128 C 0.15799 0.92878 0.43612 0.0
C129 C 0.16264 0.95444 0.45441 0.0
C130 C 0.19192 0.96374 0.47765 0.0
C131 C 0.21635 0.94717 0.48224 0.0
C132 C 0.21266 0.92225 0.46435 0.0
C133 C 0.24137 0.90783 0.47469 0.0
C134 C 0.21954 0.88209 0.48452 0.0
C135 C 0.27074 0.90227 0.44988 0.0
C136 C 0.26142 0.92835 0.50151 0.0
C137 C 0.24682 0.95099 0.50543 0.0
C138 C 0.26019 0.97235 0.52928 0.0
C139 C 0.28921 0.97048 0.54966 0.0
C140 C 0.30438 0.94736 0.54611 0.0
C141 C 0.29029 0.92616 0.52157 0.0
H142 H 0.47497 0.94244 0.7019 0.0
H143 H 0.36735 0.9205 0.64619 0.0
H144 H 0.34004 0.95352 0.68119 0.0
H145 H 0.4279 0.95042 0.77345 0.0
H146 H 0.46629 0.97807 0.79131 0.0
H147 H 0.47781 0.95339 0.76114 0.0
H148 H 0.50806 0.99013 0.73116 0.0
H149 H 0.49664 0.01492 0.76124 0.0
H150 H 0.47883 0.01227 0.723 0.0
H151 H 0.32446 0.98897 0.72269 0.0
H152 H 0.32124 0.02338 0.7679 0.0
H153 H 0.43822 0.02083 0.79736 0.0
C154 C 0.44568 0.94462 0.69701 0.0
C155 C 0.42377 0.92946 0.67075 0.0
C156 C 0.3854 0.93269 0.66535 0.0
C157 C 0.36942 0.95117 0.68538 0.0
C158 C 0.39204 0.96604 0.71085 0.0
C159 C 0.42927 0.96286 0.7168 0.0
C160 C 0.44726 0.98093 0.74601 0.0
C161 C 0.45527 0.96473 0.76935 0.0
C162 C 0.48492 0.00074 0.73998 0.0
C163 C 0.41431 0.99478 0.75562 0.0
C164 C 0.38275 0.98596 0.73502 0.0
C165 C 0.34898 0.996 0.739 0.0
C166 C 0.34745 0.01554 0.76474 0.0
C167 C 0.37943 0.02477 0.78621 0.0
C168 C 0.41322 0.01416 0.78146 0.0
H169 H 0.19034 0.08585 0.069 0.0
H170 H 0.26276 0.11267 0.15199 0.0
H171 H 0.32171 0.10761 0.12259 0.0
H172 H 0.2464 0.03793 0.02999 0.0
H173 H 0.23994 0.04638 0.99364 0.0
H174 H 0.20283 0.04862 0.02164 0.0
H175 H 0.20835 0.09783 0.01824 0.0
H176 H 0.24539 0.09575 0.99031 0.0
H177 H 0.25576 0.12084 0.02444 0.0
H178 H 0.37334 0.10368 0.08381 0.0
H179 H 0.41401 0.10295 0.03855 0.0
H180 H 0.30793 0.07941 0.98077 0.0
C181 C 0.21844 0.09008 0.08112 0.0
C182 C 0.22189 0.09948 0.11284 0.0
C183 C 0.25937 0.10535 0.12772 0.0
C184 C 0.293 0.10242 0.11123 0.0
C185 C 0.28865 0.09357 0.07991 0.0
C186 C 0.25231 0.08747 0.065 0.0
C187 C 0.25604 0.08067 0.03094 0.0
C188 C 0.23506 0.05167 0.01831 0.0
C189 C 0.24048 0.09993 0.01507 0.0
C190 C 0.3003 0.08468 0.02896 0.0
C191 C 0.31852 0.09169 0.05747 0.0
C192 C 0.35938 0.09789 0.06138 0.0
C193 C 0.38224 0.09745 0.0355 0.0
C194 C 0.3642 0.09108 0.00608 0.0
C195 C 0.32265 0.08408 0.0029 0.0
H196 H 0.99369 0.27371 0.14241 0.0
H197 H 0.08003 0.34464 0.18366 0.0
H198 H 0.11556 0.31716 0.20648 0.0
H199 H 0.99443 0.2361 0.20403 0.0
H200 H 0.99021 0.20508 0.17771 0.0
H201 H 0.96872 0.23055 0.16794 0.0
H202 H 0.00825 0.22944 0.11872 0.0
H203 H 0.02988 0.20406 0.12835 0.0
H204 H 0.06109 0.23443 0.12122 0.0
H205 H 0.14469 0.28191 0.22115 0.0
H206 H 0.16679 0.24143 0.22509 0.0
H207 H 0.06237 0.19322 0.17326 0.0
C208 C 0.01955 0.28352 0.15683 0.0
C209 C 0.03393 0.31134 0.1615 0.0
C210 C 0.06841 0.32336 0.17989 0.0
C211 C 0.0887 0.30793 0.19304 0.0
C212 C 0.07416 0.2805 0.18754 0.0
C213 C 0.04038 0.26838 0.16986 0.0
C214 C 0.03295 0.2384 0.16526 0.0
C215 C 0.99428 0.22686 0.1796 0.0
C216 C 0.03307 0.22586 0.13138 0.0
C217 C 0.06834 0.23556 0.18248 0.0
C218 C 0.09141 0.26008 0.19553 0.0
C219 C 0.12665 0.26259 0.21131 0.0
C220 C 0.13897 0.23945 0.21339 0.0
C221 C 0.11631 0.21411 0.19954 0.0
C222 C 0.08018 0.21224 0.18435 0.0
H223 H 0.48713 0.18396 0.91104 0.0
H224 H 0.42254 0.16531 0.82458 0.0
H225 H 0.44903 0.21124 0.8173 0.0
H226 H 0.46918 0.24657 0.93468 0.0
H227 H 0.51686 0.26157 0.95297 0.0
H228 H 0.49689 0.22652 0.94959 0.0
H229 H 0.5592 0.21658 0.92227 0.0
H230 H 0.57955 0.25168 0.92574 0.0
H231 H 0.57442 0.23011 0.88897 0.0
H232 H 0.47729 0.26042 0.82203 0.0
H233 H 0.50577 0.30852 0.83798 0.0
H234 H 0.55166 0.29452 0.9213 0.0
C235 C 0.47913 0.1893 0.89025 0.0
C236 C 0.45281 0.17096 0.86834 0.0
C237 C 0.44278 0.17895 0.84164 0.0
C238 C 0.45772 0.205 0.83728 0.0
C239 C 0.48284 0.22273 0.85972 0.0
C240 C 0.4937 0.21514 0.88557 0.0
C241 C 0.51896 0.23834 0.9072 0.0
C242 C 0.49928 0.24355 0.93791 0.0
C243 C 0.5605 0.23391 0.91127 0.0
C244 C 0.51973 0.26038 0.8899 0.0
C245 C 0.49907 0.25097 0.86244 0.0
C246 C 0.49398 0.26794 0.8433 0.0
C247 C 0.51019 0.29525 0.8526 0.0
C248 C 0.53107 0.3053 0.88085 0.0
C249 C 0.53621 0.28748 0.89945 0.0
H250 H 0.02869 0.77346 0.3859 0.0
H251 H 0.98441 0.79813 0.30879 0.0
H252 H 0.94345 0.75267 0.2919 0.0
H253 H 0.03328 0.70742 0.34776 0.0
H254 H 0.01767 0.69287 0.38032 0.0
H255 H 0.04439 0.72701 0.38547 0.0
H256 H 0.98808 0.74172 0.41741 0.0
H257 H 0.9613 0.70765 0.41248 0.0
H258 H 0.93845 0.73205 0.40155 0.0
H259 H 0.90584 0.70438 0.28449 0.0
H260 H 0.87347 0.65824 0.28815 0.0
H261 H 0.94319 0.66618 0.3703 0.0
C262 C 0.0106 0.76935 0.36534 0.0
C263 C 0.00984 0.78935 0.34862 0.0
C264 C 0.98549 0.78311 0.32196 0.0
C265 C 0.96221 0.75734 0.31215 0.0
C266 C 0.9637 0.7381 0.32925 0.0
C267 C 0.98725 0.74388 0.35532 0.0
C268 C 0.98274 0.72005 0.37028 0.0
C269 C 0.02185 0.71133 0.37098 0.0
C270 C 0.96668 0.72571 0.40232 0.0
C271 C 0.9527 0.69994 0.34872 0.0
C272 C 0.94216 0.7106 0.32508 0.0
C273 C 0.91403 0.69582 0.30283 0.0
C274 C 0.89585 0.66961 0.30508 0.0
C275 C 0.9058 0.65851 0.32947 0.0
C276 C 0.93499 0.67393 0.35126 0.0
H277 H 0.65963 0.73817 0.6705 0.0
H278 H 0.55736 0.67535 0.67812 0.0
H279 H 0.51414 0.7062 0.6761 0.0
H280 H 0.62196 0.79339 0.71515 0.0
H281 H 0.6438 0.81593 0.69089 0.0
H282 H 0.66679 0.78971 0.69626 0.0
H283 H 0.66464 0.77288 0.63805 0.0
H284 H 0.64152 0.79891 0.63252 0.0
H285 H 0.61818 0.76476 0.6172 0.0
H286 H 0.4818 0.74251 0.66789 0.0
H287 H 0.46299 0.78178 0.65539 0.0
H288 H 0.58655 0.82092 0.65392 0.0
C289 C 0.62821 0.73099 0.67233 0.0
C290 C 0.6119 0.70434 0.67453 0.0
C291 C 0.57057 0.69571 0.67655 0.0
C292 C 0.54577 0.71309 0.67545 0.0
C293 C 0.56279 0.73909 0.6726 0.0
C294 C 0.6031 0.74807 0.67133 0.0
C295 C 0.61386 0.77643 0.66648 0.0
C296 C 0.63803 0.79496 0.69383 0.0
C297 C 0.63583 0.77834 0.6368 0.0
C298 C 0.57325 0.78177 0.66434 0.0
C299 C 0.54418 0.76007 0.66816 0.0
C300 C 0.50432 0.75976 0.66531 0.0
C301 C 0.49392 0.78213 0.65812 0.0
C302 C 0.52329 0.80448 0.65386 0.0
C303 C 0.56341 0.80431 0.65745 0.0
H304 H 0.61382 0.587 0.73995 0.0
H305 H 0.5383 0.52272 0.67701 0.0
H306 H 0.52386 0.49681 0.71778 0.0
H307 H 0.65397 0.5459 0.78162 0.0
H308 H 0.65417 0.56799 0.81764 0.0
H309 H 0.65978 0.581 0.78318 0.0
H310 H 0.60018 0.60233 0.79639 0.0
H311 H 0.59444 0.58943 0.83088 0.0
H312 H 0.55363 0.58179 0.80389 0.0
H313 H 0.51632 0.47842 0.76583 0.0
H314 H 0.51497 0.46939 0.81782 0.0
H315 H 0.5951 0.5459 0.84923 0.0
C316 C 0.59444 0.5674 0.73465 0.0
C317 C 0.57726 0.55686 0.70525 0.0
C318 C 0.55183 0.53121 0.69935 0.0
C319 C 0.54352 0.51632 0.72234 0.0
C320 C 0.56086 0.52735 0.75108 0.0
C321 C 0.58575 0.55232 0.75731 0.0
C322 C 0.5996 0.55998 0.79031 0.0
C323 C 0.64455 0.56394 0.79335 0.0
C324 C 0.58614 0.58485 0.8063 0.0
C325 C 0.57833 0.53551 0.80176 0.0
C326 C 0.55632 0.51685 0.77876 0.0
C327 C 0.53356 0.49284 0.784 0.0
C328 C 0.533 0.48789 0.81361 0.0
C329 C 0.55495 0.50691 0.8376 0.0
C330 C 0.57812 0.5309 0.83139 0.0
H331 H 0.78454 0.44189 0.02246 0.0
H332 H 0.72839 0.36078 0.0288 0.0
H333 H 0.6706 0.36355 0.99934 0.0
H334 H 0.69809 0.46719 0.03145 0.0
H335 H 0.71185 0.48919 0.00502 0.0
H336 H 0.74937 0.48037 0.02547 0.0
H337 H 0.77969 0.46352 0.97465 0.0
H338 H 0.74217 0.47223 0.95403 0.0
H339 H 0.74918 0.4388 0.94594 0.0
H340 H 0.61768 0.37592 0.97113 0.0
H341 H 0.5736 0.39713 0.9468 0.0
H342 H 0.66497 0.46966 0.95786 0.0
C343 C 0.76022 0.42463 0.01754 0.0
C344 C 0.76105 0.4011 0.02792 0.0
C345 C 0.72847 0.37903 0.02108 0.0
C346 C 0.69553 0.38039 0.00431 0.0
C347 C 0.69567 0.40392 0.99449 0.0
C348 C 0.72716 0.42564 0.00086 0.0
C349 C 0.71954 0.44884 0.98842 0.0
C350 C 0.71971 0.47281 0.01412 0.0
C351 C 0.74942 0.45627 0.96433 0.0
C352 C 0.67865 0.43688 0.97434 0.0
C353 C 0.66547 0.4109 0.97791 0.0
C354 C 0.62799 0.39607 0.96766 0.0
C355 C 0.60333 0.40815 0.95346 0.0
C356 C 0.61634 0.4347 0.94948 0.0
C357 C 0.65447 0.44918 0.96018 0.0
H358 H 0.92273 0.41396 0.19182 0.0
H359 H 0.87149 0.42065 0.10696 0.0
H360 H 0.84104 0.4558 0.13418 0.0
H361 H 0.84329 0.42747 0.24055 0.0
H362 H 0.87604 0.44709 0.27145 0.0
H363 H 0.89103 0.42081 0.24556 0.0
H364 H 0.95368 0.45422 0.2341 0.0
H365 H 0.93885 0.48061 0.25988 0.0
H366 H 0.94876 0.48366 0.22111 0.0
H367 H 0.81716 0.49097 0.17064 0.0
H368 H 0.80428 0.52496 0.21316 0.0
H369 H 0.87497 0.49759 0.27377 0.0
C370 C 0.90471 0.4226 0.17901 0.0
C371 C 0.89798 0.41361 0.14737 0.0
C372 C 0.87509 0.42594 0.13135 0.0
C373 C 0.85821 0.44631 0.1466 0.0
C374 C 0.86507 0.45448 0.17783 0.0
C375 C 0.88804 0.44317 0.19383 0.0
C376 C 0.89259 0.45653 0.227 0.0
C377 C 0.87466 0.4368 0.24733 0.0
C378 C 0.93605 0.46953 0.23604 0.0
C379 C 0.86869 0.4772 0.22713 0.0
C380 C 0.8528 0.47554 0.19859 0.0
C381 C 0.82948 0.49248 0.19309 0.0
C382 C 0.82229 0.5117 0.21739 0.0
C383 C 0.8387 0.51398 0.24676 0.0
C384 C 0.86216 0.49643 0.25157 0.0
H385 H 0.77108 0.56389 0.44536 0.0
H386 H 0.8872 0.57912 0.48815 0.0
H387 H 0.85736 0.58088 0.53827 0.0
H388 H 0.73514 0.60814 0.49753 0.0
H389 H 0.68559 0.58834 0.49707 0.0
H390 H 0.71505 0.58377 0.46428 0.0
H391 H 0.70463 0.53377 0.46568 0.0
H392 H 0.6748 0.53814 0.49846 0.0
H393 H 0.71692 0.52391 0.49997 0.0
H394 H 0.81641 0.58809 0.58385 0.0
H395 H 0.76687 0.59815 0.62126 0.0
H396 H 0.67723 0.57702 0.54892 0.0
C397 C 0.79016 0.56682 0.46517 0.0
C398 C 0.83149 0.57132 0.46279 0.0
C399 C 0.85545 0.57552 0.48935 0.0
C400 C 0.83876 0.57651 0.51796 0.0
C401 C 0.79803 0.57292 0.51961 0.0
C402 C 0.77396 0.56779 0.49389 0.0
C403 C 0.73149 0.56693 0.502 0.0
C404 C 0.71594 0.58806 0.48949 0.0
C405 C 0.70542 0.53902 0.49087 0.0
C406 C 0.73571 0.57351 0.53628 0.0
C407 C 0.77424 0.57662 0.54602 0.0
C408 C 0.78597 0.58512 0.57656 0.0
C409 C 0.75768 0.5909 0.59763 0.0
C410 C 0.71813 0.5881 0.58805 0.0
C411 C 0.70702 0.57879 0.55704 0.0
loop_
_geom_bond_atom_site_label_1
_geom_bond_atom_site_label_2
_geom_bond_distance
_geom_bond_site_symmetry_2
_ccdc_geom_bond_type
O0 Cd1 2.300 . S
O0 C7 1.275 . S
Cd1 O0 2.300 . S
Cd1 O9 2.381 . S
Cd1 O10 2.378 . S
O2 Cd3 2.385 . S
O2 C7 1.255 . S
Cd3 O2 2.385 . S
Cd3 O4 2.317 . S
O4 Cd3 2.317 . S
O4 C5 1.232 . S
C5 O4 1.232 . S
C5 O6 1.218 . S
O6 C5 1.218 . S
C7 O0 1.275 . S
C7 O2 1.255 . S
C8 O9 1.258 . S
C8 O10 1.256 . S
O9 Cd1 2.381 . S
O9 C8 1.258 . S
O10 Cd1 2.378 . S
O10 C8 1.256 . S
O11 Cd12 2.300 . S
O11 C18 1.275 . S
Cd12 O11 2.300 . S
Cd12 O20 2.381 . S
Cd12 O21 2.378 . S
O13 Cd14 2.385 . S
O13 C18 1.255 . S
Cd14 O13 2.385 . S
Cd14 O15 2.317 . S
O15 Cd14 2.317 . S
O15 C16 1.232 . S
C16 O15 1.232 . S
C16 O17 1.218 . S
O17 C16 1.218 . S
C18 O11 1.275 . S
C18 O13 1.255 . S
C19 O20 1.258 . S
C19 O21 1.256 . S
O20 Cd12 2.381 . S
O20 C19 1.258 . S
O21 Cd12 2.378 . S
O21 C19 1.256 . S
O22 Cd23 2.300 . S
O22 C29 1.275 . S
Cd23 O22 2.300 . S
Cd23 O31 2.381 . S
Cd23 O32 2.378 . S
O24 Cd25 2.385 . S
O24 C29 1.255 . S
Cd25 O24 2.385 . S
Cd25 O26 2.317 . S
O26 Cd25 2.317 . S
O26 C27 1.232 . S
C27 O26 1.232 . S
C27 O28 1.218 . S
O28 C27 1.218 . S
C29 O22 1.275 . S
C29 O24 1.255 . S
C30 O31 1.258 . S
C30 O32 1.256 . S
O31 Cd23 2.381 . S
O31 C30 1.258 . S
O32 Cd23 2.378 . S
O32 C30 1.256 . S
O33 Cd34 2.300 . S
O33 C40 1.275 . S
Cd34 O33 2.300 . S
Cd34 O42 2.381 . S
Cd34 O43 2.378 . S
O35 Cd36 2.385 . S
O35 C40 1.255 . S
Cd36 O35 2.385 . S
Cd36 O37 2.317 . S
O37 Cd36 2.317 . S
O37 C38 1.232 . S
C38 O37 1.232 . S
C38 O39 1.218 . S
O39 C38 1.218 . S
C40 O33 1.275 . S
C40 O35 1.255 . S
C41 O42 1.258 . S
C41 O43 1.256 . S
O42 Cd34 2.381 . S
O42 C41 1.258 . S
O43 Cd34 2.378 . S
O43 C41 1.256 . S
O44 Cd45 2.300 . S
O44 C51 1.275 . S
Cd45 O44 2.300 . S
Cd45 O53 2.381 . S
Cd45 O54 2.378 . S
O46 Cd47 2.385 . S
O46 C51 1.255 . S
Cd47 O46 2.385 . S
Cd47 O48 2.317 . S
O48 Cd47 2.317 . S
O48 C49 1.232 . S
C49 O48 1.232 . S
C49 O50 1.218 . S
O50 C49 1.218 . S
C51 O44 1.275 . S
C51 O46 1.255 . S
C52 O53 1.258 . S
C52 O54 1.256 . S
O53 Cd45 2.381 . S
O53 C52 1.258 . S
O54 Cd45 2.378 . S
O54 C52 1.256 . S
O55 Cd56 2.300 . S
O55 C62 1.275 . S
Cd56 O55 2.300 . S
Cd56 O64 2.381 . S
Cd56 O65 2.378 . S
O57 Cd58 2.385 . S
O57 C62 1.255 . S
Cd58 O57 2.385 . S
Cd58 O59 2.317 . S
O59 Cd58 2.317 . S
O59 C60 1.232 . S
C60 O59 1.232 . S
C60 O61 1.218 . S
O61 C60 1.218 . S
C62 O55 1.275 . S
C62 O57 1.255 . S
C63 O64 1.258 . S
C63 O65 1.256 . S
O64 Cd56 2.381 . S
O64 C63 1.258 . S
O65 Cd56 2.378 . S
O65 C63 1.256 . S
O66 Cd67 2.300 . S
O66 C73 1.275 . S
Cd67 O66 2.300 . S
Cd67 O75 2.381 . S
Cd67 O76 2.378 . S
O68 Cd69 2.385 . S
O68 C73 1.255 . S
Cd69 O68 2.385 . S
Cd69 O70 2.317 . S
O70 Cd69 2.317 . S
O70 C71 1.232 . S
C71 O70 1.232 . S
C71 O72 1.218 . S
O72 C71 1.218 . S
C73 O66 1.275 . S
C73 O68 1.255 . S
C74 O75 1.258 . S
C74 O76 1.256 . S
O75 Cd67 2.381 . S
O75 C74 1.258 . S
O76 Cd67 2.378 . S
O76 C74 1.256 . S
O77 Cd78 2.300 . S
O77 C84 1.275 . S
Cd78 O77 2.300 . S
Cd78 O86 2.381 . S
Cd78 O87 2.378 . S
O79 Cd80 2.385 . S
O79 C84 1.255 . S
Cd80 O79 2.385 . S
Cd80 O81 2.317 . S
O81 Cd80 2.317 . S
O81 C82 1.232 . S
C82 O81 1.232 . S
C82 O83 1.218 . S
O83 C82 1.218 . S
C84 O77 1.275 . S
C84 O79 1.255 . S
C85 O86 1.258 . S
C85 O87 1.256 . S
O86 Cd78 2.381 . S
O86 C85 1.258 . S
O87 Cd78 2.378 . S
O87 C85 1.256 . S
H88 C100 0.930 1_545 S
H89 C102 0.930 . S
H90 C103 0.930 . S
H91 C107 0.959 . S
H92 C107 0.959 . S
H93 C107 0.961 . S
H94 C108 0.960 . S
H95 C108 0.961 . S
H96 C108 0.959 . S
H97 C111 0.929 . S
H98 C112 0.931 . S
H99 C114 0.930 . S
C100 H88 0.930 1_565 S
C100 C101 1.399 . S
C100 C105 1.399 1_565 S
C101 C100 1.399 . S
C101 C102 1.376 . S
C102 H89 0.930 . S
C102 C101 1.376 . S
C102 C103 1.388 . S
C103 H90 0.930 . S
C103 C102 1.388 . S
C103 C104 1.390 1_565 S
C104 C103 1.390 1_545 S
C104 C105 1.394 . S
C104 C110 1.465 . S
C105 C100 1.399 1_545 S
C105 C104 1.394 . S
C105 C106 1.516 . S
C106 C105 1.516 . S
C106 C107 1.502 . S
C106 C108 1.561 . S
C106 C109 1.526 . S
C107 H91 0.959 . S
C107 H92 0.959 . S
C107 H93 0.961 . S
C107 C106 1.502 . S
C108 H94 0.960 . S
C108 H95 0.961 . S
C108 H96 0.959 . S
C108 C106 1.561 . S
C109 C106 1.526 . S
C109 C110 1.396 . S
C109 C114 1.390 . S
C110 C104 1.465 . S
C110 C109 1.396 . S
C110 C111 1.399 . S
C111 H97 0.929 . S
C111 C110 1.399 . S
C111 C112 1.385 . S
C112 H98 0.931 . S
C112 C111 1.385 . S
C112 C113 1.389 . S
C113 C112 1.389 . S
C113 C114 1.387 . S
C114 H99 0.930 . S
C114 C109 1.390 . S
C114 C113 1.387 . S
H115 C127 0.930 . S
H116 C129 0.930 . S
H117 C130 0.930 . S
H118 C134 0.959 . S
H119 C134 0.959 . S
H120 C134 0.961 . S
H121 C135 0.960 . S
H122 C135 0.961 . S
H123 C135 0.959 . S
H124 C138 0.929 . S
H125 C139 0.931 . S
H126 C141 0.930 . S
C127 H115 0.930 . S
C127 C128 1.399 . S
C127 C132 1.399 . S
C128 C127 1.399 . S
C128 C129 1.376 . S
C129 H116 0.930 . S
C129 C128 1.376 . S
C129 C130 1.388 . S
C130 H117 0.930 . S
C130 C129 1.388 . S
C130 C131 1.390 . S
C131 C130 1.390 . S
C131 C132 1.394 . S
C131 C137 1.465 . S
C132 C127 1.399 . S
C132 C131 1.394 . S
C132 C133 1.516 . S
C133 C132 1.516 . S
C133 C134 1.502 . S
C133 C135 1.561 . S
C133 C136 1.526 . S
C134 H118 0.959 . S
C134 H119 0.959 . S
C134 H120 0.961 . S
C134 C133 1.502 . S
C135 H121 0.960 . S
C135 H122 0.961 . S
C135 H123 0.959 . S
C135 C133 1.561 . S
C136 C133 1.526 . S
C136 C137 1.396 . S
C136 C141 1.390 . S
C137 C131 1.465 . S
C137 C136 1.396 . S
C137 C138 1.399 . S
C138 H124 0.929 . S
C138 C137 1.399 . S
C138 C139 1.385 . S
C139 H125 0.931 . S
C139 C138 1.385 . S
C139 C140 1.389 . S
C140 C139 1.389 . S
C140 C141 1.387 . S
C141 H126 0.930 . S
C141 C136 1.390 . S
C141 C140 1.387 . S
H142 C154 0.930 . S
H143 C156 0.930 . S
H144 C157 0.930 . S
H145 C161 0.959 1_565 S
H146 C161 0.959 . S
H147 C161 0.960 1_565 S
H148 C162 0.960 . S
H149 C162 0.961 . S
H150 C162 0.959 . S
H151 C165 0.929 . S
H152 C166 0.931 . S
H153 C168 0.930 . S
C154 H142 0.930 . S
C154 C155 1.399 . S
C154 C159 1.399 . S
C155 C154 1.399 . S
C155 C156 1.376 . S
C156 H143 0.930 . S
C156 C155 1.376 . S
C156 C157 1.388 . S
C157 H144 0.930 . S
C157 C156 1.388 . S
C157 C158 1.390 . S
C158 C157 1.390 . S
C158 C159 1.394 . S
C158 C164 1.465 . S
C159 C154 1.399 . S
C159 C158 1.394 . S
C159 C160 1.516 . S
C160 C159 1.516 . S
C160 C161 1.502 1_565 S
C160 C162 1.561 1_565 S
C160 C163 1.526 1_565 S
C161 H145 0.959 1_545 S
C161 H146 0.959 . S
C161 H147 0.960 1_545 S
C161 C160 1.502 1_545 S
C162 H148 0.960 . S
C162 H149 0.961 . S
C162 H150 0.959 . S
C162 C160 1.561 1_545 S
C163 C160 1.526 1_545 S
C163 C164 1.396 1_545 S
C163 C168 1.390 . S
C164 C158 1.465 . S
C164 C163 1.396 1_565 S
C164 C165 1.399 . S
C165 H151 0.929 . S
C165 C164 1.399 . S
C165 C166 1.356 1_565 S
C166 H152 0.931 . S
C166 C165 1.356 1_545 S
C166 C167 1.418 . S
C167 C166 1.418 . S
C167 C168 1.387 . S
C168 H153 0.930 . S
C168 C163 1.390 . S
C168 C167 1.387 . S
H169 C181 0.930 . S
H170 C183 0.930 . S
H171 C184 0.930 . S
H172 C188 0.959 . S
H173 C188 0.959 . S
H174 C188 0.961 . S
H175 C189 0.960 . S
H176 C189 0.961 . S
H177 C189 0.959 . S
H178 C192 0.929 . S
H179 C193 0.931 . S
H180 C195 0.930 . S
C181 H169 0.930 . S
C181 C182 1.399 . S
C181 C186 1.399 . S
C182 C181 1.399 . S
C182 C183 1.376 . S
C183 H170 0.930 . S
C183 C182 1.376 . S
C183 C184 1.388 . S
C184 H171 0.930 . S
C184 C183 1.388 . S
C184 C185 1.390 . S
C185 C184 1.390 . S
C185 C186 1.394 . S
C185 C191 1.465 . S
C186 C181 1.399 . S
C186 C185 1.394 . S
C186 C187 1.516 . S
C187 C186 1.516 . S
C187 C188 1.502 . S
C187 C189 1.561 . S
C187 C190 1.526 . S
C188 H172 0.959 . S
C188 H173 0.959 . S
C188 H174 0.961 . S
C188 C187 1.502 . S
C189 H175 0.960 . S
C189 H176 0.961 . S
C189 H177 0.959 . S
C189 C187 1.561 . S
C190 C187 1.526 . S
C190 C191 1.396 . S
C190 C195 1.390 1_554 S
C191 C185 1.465 . S
C191 C190 1.396 . S
C191 C192 1.399 1_554 S
C192 H178 0.929 . S
C192 C191 1.399 1_556 S
C192 C193 1.385 . S
C193 H179 0.931 . S
C193 C192 1.385 . S
C193 C194 1.389 . S
C194 C193 1.389 . S
C194 C195 1.387 . S
C195 H180 0.930 . S
C195 C190 1.390 1_556 S
C195 C194 1.387 . S
H196 C208 0.930 . S
H197 C210 0.930 . S
H198 C211 0.930 . S
H199 C215 0.959 1_455 S
H200 C215 0.959 . S
H201 C215 0.961 . S
H202 C216 0.960 . S
H203 C216 0.961 . S
H204 C216 0.959 . S
H205 C219 0.929 . S
H206 C220 0.931 . S
H207 C222 0.930 . S
C208 H196 0.930 . S
C208 C209 1.399 1_655 S
C208 C213 1.399 1_655 S
C209 C208 1.399 1_455 S
C209 C210 1.376 . S
C210 H197 0.930 . S
C210 C209 1.376 . S
C210 C211 1.388 . S
C211 H198 0.930 . S
C211 C210 1.388 . S
C211 C212 1.390 . S
C212 C211 1.390 . S
C212 C213 1.394 . S
C212 C218 1.465 . S
C213 C208 1.399 1_455 S
C213 C212 1.394 . S
C213 C214 1.516 . S
C214 C213 1.516 . S
C214 C215 1.502 1_455 S
C214 C216 1.561 1_455 S
C214 C217 1.526 . S
C215 H199 0.959 1_655 S
C215 H200 0.959 . S
C215 H201 0.961 . S
C215 C214 1.502 1_655 S
C216 H202 0.960 . S
C216 H203 0.961 . S
C216 H204 0.959 . S
C216 C214 1.561 1_655 S
C217 C214 1.526 . S
C217 C218 1.396 . S
C217 C222 1.390 . S
C218 C212 1.465 . S
C218 C217 1.396 . S
C218 C219 1.399 . S
C219 H205 0.929 . S
C219 C218 1.399 . S
C219 C220 1.385 . S
C220 H206 0.931 . S
C220 C219 1.385 . S
C220 C221 1.389 . S
C221 C220 1.389 . S
C221 C222 1.387 . S
C222 H207 0.930 . S
C222 C217 1.390 . S
C222 C221 1.387 . S
H223 C235 0.930 . S
H224 C237 0.930 . S
H225 C238 0.930 . S
H226 C242 0.959 . S
H227 C242 0.959 . S
H228 C242 0.961 . S
H229 C243 0.960 . S
H230 C243 0.961 . S
H231 C243 0.959 . S
H232 C246 0.929 . S
H233 C247 0.931 . S
H234 C249 0.930 . S
C235 H223 0.930 . S
C235 C236 1.399 . S
C235 C240 1.399 . S
C236 C235 1.399 . S
C236 C237 1.376 . S
C237 H224 0.930 . S
C237 C236 1.376 . S
C237 C238 1.388 . S
C238 H225 0.930 . S
C238 C237 1.388 . S
C238 C239 1.390 . S
C239 C238 1.390 . S
C239 C240 1.394 . S
C239 C245 1.465 . S
C240 C235 1.399 . S
C240 C239 1.394 . S
C240 C241 1.516 . S
C241 C240 1.516 . S
C241 C242 1.502 . S
C241 C243 1.561 . S
C241 C244 1.526 . S
C242 H226 0.959 . S
C242 H227 0.959 . S
C242 H228 0.961 . S
C242 C241 1.502 . S
C243 H229 0.960 . S
C243 H230 0.961 . S
C243 H231 0.959 . S
C243 C241 1.561 . S
C244 C241 1.526 . S
C244 C245 1.396 . S
C244 C249 1.390 . S
C245 C239 1.465 . S
C245 C244 1.396 . S
C245 C246 1.399 . S
C246 H232 0.929 . S
C246 C245 1.399 . S
C246 C247 1.385 . S
C247 H233 0.931 . S
C247 C246 1.385 . S
C247 C248 1.389 . S
C248 C247 1.389 . S
C248 C249 1.387 . S
C249 H234 0.930 . S
C249 C244 1.390 . S
C249 C248 1.387 . S
H250 C262 0.930 . S
H251 C264 0.930 . S
H252 C265 0.930 1_455 S
H253 C269 0.959 . S
H254 C269 0.959 . S
H255 C269 0.961 . S
H256 C270 0.960 . S
H257 C270 0.961 . S
H258 C270 0.959 . S
H259 C273 0.929 . S
H260 C274 0.931 . S
H261 C276 0.930 . S
C262 H250 0.930 . S
C262 C263 1.399 1_655 S
C262 C267 1.399 . S
C263 C262 1.399 1_455 S
C263 C264 1.376 . S
C264 H251 0.930 . S
C264 C263 1.376 . S
C264 C265 1.388 1_455 S
C265 H252 0.930 1_655 S
C265 C264 1.388 1_655 S
C265 C266 1.390 . S
C266 C265 1.390 . S
C266 C267 1.394 . S
C266 C272 1.465 . S
C267 C262 1.399 . S
C267 C266 1.394 . S
C267 C268 1.516 . S
C268 C267 1.516 . S
C268 C269 1.502 . S
C268 C270 1.561 . S
C268 C271 1.526 . S
C269 H253 0.959 . S
C269 H254 0.959 . S
C269 H255 0.961 . S
C269 C268 1.502 . S
C270 H256 0.960 . S
C270 H257 0.961 . S
C270 H258 0.959 . S
C270 C268 1.561 . S
C271 C268 1.526 . S
C271 C272 1.396 . S
C271 C276 1.390 . S
C272 C266 1.465 . S
C272 C271 1.396 . S
C272 C273 1.399 . S
C273 H259 0.929 . S
C273 C272 1.399 . S
C273 C274 1.385 . S
C274 H260 0.931 . S
C274 C273 1.385 . S
C274 C275 1.389 . S
C275 C274 1.389 . S
C275 C276 1.387 . S
C276 H261 0.930 . S
C276 C271 1.390 . S
C276 C275 1.387 . S
H277 C289 0.930 . S
H278 C291 0.930 . S
H279 C292 0.930 . S
H280 C296 0.959 . S
H281 C296 0.959 . S
H282 C296 0.961 . S
H283 C297 0.960 . S
H284 C297 0.961 . S
H285 C297 0.959 . S
H286 C300 0.929 . S
H287 C301 0.931 . S
H288 C303 0.930 . S
C289 H277 0.930 . S
C289 C290 1.399 . S
C289 C294 1.399 . S
C290 C289 1.399 . S
C290 C291 1.376 . S
C291 H278 0.930 . S
C291 C290 1.376 . S
C291 C292 1.388 . S
C292 H279 0.930 . S
C292 C291 1.388 . S
C292 C293 1.390 . S
C293 C292 1.390 . S
C293 C294 1.394 . S
C293 C299 1.465 . S
C294 C289 1.399 . S
C294 C293 1.394 . S
C294 C295 1.516 . S
C295 C294 1.516 . S
C295 C296 1.502 . S
C295 C297 1.561 . S
C295 C298 1.526 . S
C296 H280 0.959 . S
C296 H281 0.959 . S
C296 H282 0.961 . S
C296 C295 1.502 . S
C297 H283 0.960 . S
C297 H284 0.961 . S
C297 H285 0.959 . S
C297 C295 1.561 . S
C298 C295 1.526 . S
C298 C299 1.396 . S
C298 C303 1.390 . S
C299 C293 1.465 . S
C299 C298 1.396 . S
C299 C300 1.399 . S
C300 H286 0.929 . S
C300 C299 1.399 . S
C300 C301 1.385 . S
C301 H287 0.931 . S
C301 C300 1.385 . S
C301 C302 1.389 . S
C302 C301 1.389 . S
C302 C303 1.387 . S
C303 H288 0.930 . S
C303 C298 1.390 . S
C303 C302 1.387 . S
H304 C316 0.930 . S
H305 C318 0.930 . S
H306 C319 0.930 . S
H307 C323 0.959 . S
H308 C323 0.959 . S
H309 C323 0.961 . S
H310 C324 0.960 . S
H311 C324 0.961 . S
H312 C324 0.959 . S
H313 C327 0.929 . S
H314 C328 0.931 . S
H315 C330 0.930 . S
C316 H304 0.930 . S
C316 C317 1.399 . S
C316 C321 1.399 . S
C317 C316 1.399 . S
C317 C318 1.376 . S
C318 H305 0.930 . S
C318 C317 1.376 . S
C318 C319 1.388 . S
C319 H306 0.930 . S
C319 C318 1.388 . S
C319 C320 1.390 . S
C320 C319 1.390 . S
C320 C321 1.394 . S
C320 C326 1.465 . S
C321 C316 1.399 . S
C321 C320 1.394 . S
C321 C322 1.516 . S
C322 C321 1.516 . S
C322 C323 1.502 . S
C322 C324 1.561 . S
C322 C325 1.526 . S
C323 H307 0.959 . S
C323 H308 0.959 . S
C323 H309 0.961 . S
C323 C322 1.502 . S
C324 H310 0.960 . S
C324 H311 0.961 . S
C324 H312 0.959 . S
C324 C322 1.561 . S
C325 C322 1.526 . S
C325 C326 1.396 . S
C325 C330 1.390 . S
C326 C320 1.465 . S
C326 C325 1.396 . S
C326 C327 1.399 . S
C327 H313 0.929 . S
C327 C326 1.399 . S
C327 C328 1.385 . S
C328 H314 0.931 . S
C328 C327 1.385 . S
C328 C329 1.389 . S
C329 C328 1.389 . S
C329 C330 1.387 . S
C330 H315 0.930 . S
C330 C325 1.390 . S
C330 C329 1.387 . S
H331 C343 0.930 1_556 S
H332 C345 0.930 . S
H333 C346 0.930 . S
H334 C350 0.959 . S
H335 C350 0.959 . S
H336 C350 0.961 . S
H337 C351 0.960 . S
H338 C351 0.961 . S
H339 C351 0.959 . S
H340 C354 0.929 1_554 S
H341 C355 0.931 . S
H342 C357 0.930 . S
C343 H331 0.930 1_554 S
C343 C344 1.399 . S
C343 C348 1.399 1_554 S
C344 C343 1.399 . S
C344 C345 1.376 . S
C345 H332 0.930 . S
C345 C344 1.376 . S
C345 C346 1.388 . S
C346 H333 0.930 . S
C346 C345 1.388 . S
C346 C347 1.390 . S
C347 C346 1.390 . S
C347 C348 1.394 1_554 S
C347 C353 1.465 1_554 S
C348 C343 1.399 1_556 S
C348 C347 1.394 1_556 S
C348 C349 1.516 . S
C349 C348 1.516 . S
C349 C350 1.502 . S
C349 C351 1.561 . S
C349 C352 1.526 . S
C350 H334 0.959 . S
C350 H335 0.959 . S
C350 H336 0.961 . S
C350 C349 1.502 . S
C351 H337 0.960 . S
C351 H338 0.961 . S
C351 H339 0.959 . S
C351 C349 1.561 . S
C352 C349 1.526 . S
C352 C353 1.396 . S
C352 C357 1.390 . S
C353 C347 1.465 1_556 S
C353 C352 1.396 . S
C353 C354 1.399 . S
C354 H340 0.929 1_556 S
C354 C353 1.399 . S
C354 C355 1.385 . S
C355 H341 0.931 . S
C355 C354 1.385 . S
C355 C356 1.389 . S
C356 C355 1.389 . S
C356 C357 1.387 . S
C357 H342 0.930 . S
C357 C352 1.390 . S
C357 C356 1.387 . S
H358 C370 0.930 . S
H359 C372 0.930 . S
H360 C373 0.930 . S
H361 C377 0.959 . S
H362 C377 0.959 . S
H363 C377 0.961 . S
H364 C378 0.960 . S
H365 C378 0.961 . S
H366 C378 0.959 . S
H367 C381 0.929 . S
H368 C382 0.931 . S
H369 C384 0.930 . S
C370 H358 0.930 . S
C370 C371 1.399 . S
C370 C375 1.399 . S
C371 C370 1.399 . S
C371 C372 1.376 . S
C372 H359 0.930 . S
C372 C371 1.376 . S
C372 C373 1.388 . S
C373 H360 0.930 . S
C373 C372 1.388 . S
C373 C374 1.390 . S
C374 C373 1.390 . S
C374 C375 1.394 . S
C374 C380 1.465 . S
C375 C370 1.399 . S
C375 C374 1.394 . S
C375 C376 1.516 . S
C376 C375 1.516 . S
C376 C377 1.502 . S
C376 C378 1.561 . S
C376 C379 1.526 . S
C377 H361 0.959 . S
C377 H362 0.959 . S
C377 H363 0.961 . S
C377 C376 1.502 . S
C378 H364 0.960 . S
C378 H365 0.961 . S
C378 H366 0.959 . S
C378 C376 1.561 . S
C379 C376 1.526 . S
C379 C380 1.396 . S
C379 C384 1.390 . S
C380 C374 1.465 . S
C380 C379 1.396 . S
C380 C381 1.399 . S
C381 H367 0.929 . S
C381 C380 1.399 . S
C381 C382 1.385 . S
C382 H368 0.931 . S
C382 C381 1.385 . S
C382 C383 1.389 . S
C383 C382 1.389 . S
C383 C384 1.387 . S
C384 H369 0.930 . S
C384 C379 1.390 . S
C384 C383 1.387 . S
H385 C397 0.930 . S
H386 C399 0.930 . S
H387 C400 0.930 . S
H388 C404 0.959 . S
H389 C404 0.959 . S
H390 C404 0.961 . S
H391 C405 0.960 . S
H392 C405 0.961 . S
H393 C405 0.959 . S
H394 C408 0.929 . S
H395 C409 0.931 . S
H396 C411 0.930 . S
C397 H385 0.930 . S
C397 C398 1.399 . S
C397 C402 1.399 . S
C398 C397 1.399 . S
C398 C399 1.376 . S
C399 H386 0.930 . S
C399 C398 1.376 . S
C399 C400 1.388 . S
C400 H387 0.930 . S
C400 C399 1.388 . S
C400 C401 1.390 . S
C401 C400 1.390 . S
C401 C402 1.394 . S
C401 C407 1.465 . S
C402 C397 1.399 . S
C402 C401 1.394 . S
C402 C403 1.516 . S
C403 C402 1.516 . S
C403 C404 1.502 . S
C403 C405 1.561 . S
C403 C406 1.526 . S
C404 H388 0.959 . S
C404 H389 0.959 . S
C404 H390 0.961 . S
C404 C403 1.502 . S
C405 H391 0.960 . S
C405 H392 0.961 . S
C405 H393 0.959 . S
C405 C403 1.561 . S
C406 C403 1.526 . S
C406 C407 1.396 . S
C406 C411 1.390 . S
C407 C401 1.465 . S
C407 C406 1.396 . S
C407 C408 1.399 . S
C408 H394 0.929 . S
C408 C407 1.399 . S
C408 C409 1.385 . S
C409 H395 0.931 . S
C409 C408 1.385 . S
C409 C410 1.389 . S
C410 C409 1.389 . S
C410 C411 1.387 . S
C411 H396 0.930 . S
C411 C406 1.390 . S
C411 C410 1.387 . S
C101 C19 1.526 . S
C113 C8 1.579 . S
C128 C18 1.452 . S
C140 C27 1.313 . S
C155 C29 1.443 . S
C167 C41 1.525 . S
C182 C7 1.546 . S
C194 C38 1.342 . S
C209 C63 1.577 1_455 S
C221 C5 1.371 . S
C236 C40 1.465 . S
C248 C49 1.204 . S
C263 C16 1.226 . S
C275 C73 1.476 . S
C290 C82 1.451 . S
C302 C30 1.528 . S
C317 C85 1.583 . S
C329 C52 1.563 . S
C344 C60 1.194 . S
C356 C51 1.529 . S
C371 C62 1.501 . S
C383 C74 1.510 . S
C398 C71 1.235 . S
C410 C84 1.527 . S
