# Generated by pormake.
# Topology why, (6)-cn, num edge types: 1
# Building blocks:
#     Node 0, Type 0, BuildingBlock: JUFBIX_clean_sbu_0, # of connection points: 6
#     Node 1, Type 0, BuildingBlock: JUFBIX_clean_sbu_0, # of connection points: 6
#     Node 2, Type 0, BuildingBlock: JUFBIX_clean_sbu_0, # of connection points: 6
#     Node 3, Type 0, BuildingBlock: JUFBIX_clean_sbu_0, # of connection points: 6
#     Node 4, Type 0, BuildingBlock: JUFBIX_clean_sbu_0, # of connection points: 6
#     Node 5, Type 0, BuildingBlock: JUFBIX_clean_sbu_0, # of connection points: 6
#     Node 6, Type 0, BuildingBlock: JUFBIX_clean_sbu_0, # of connection points: 6
#     Node 7, Type 0, BuildingBlock: JUFBIX_clean_sbu_0, # of connection points: 6
#     Node 8, Type 0, BuildingBlock: JUFBIX_clean_sbu_0, # of connection points: 6
#     Node 9, Type 0, BuildingBlock: JUFBIX_clean_sbu_0, # of connection points: 6
#     Node 10, Type 0, BuildingBlock: JUFBIX_clean_sbu_0, # of connection points: 6
#     Node 11, Type 0, BuildingBlock: JUFBIX_clean_sbu_0, # of connection points: 6
#     Node 12, Type 0, BuildingBlock: JUFBIX_clean_sbu_0, # of connection points: 6
#     Node 13, Type 0, BuildingBlock: JUFBIX_clean_sbu_0, # of connection points: 6
#     Node 14, Type 0, BuildingBlock: JUFBIX_clean_sbu_0, # of connection points: 6
#     Node 15, Type 0, BuildingBlock: JUFBIX_clean_sbu_0, # of connection points: 6
#     Edge 16, Type (0, 0), None
#     Edge 17, Type (0, 0), None
#     Edge 18, Type (0, 0), None
#     Edge 19, Type (0, 0), None
#     Edge 20, Type (0, 0), None
#     Edge 21, Type (0, 0), None
#     Edge 22, Type (0, 0), None
#     Edge 23, Type (0, 0), None
#     Edge 24, Type (0, 0), None
#     Edge 25, Type (0, 0), None
#     Edge 26, Type (0, 0), None
#     Edge 27, Type (0, 0), None
#     Edge 28, Type (0, 0), None
#     Edge 29, Type (0, 0), None
#     Edge 30, Type (0, 0), None
#     Edge 31, Type (0, 0), None
#     Edge 32, Type (0, 0), None
#     Edge 33, Type (0, 0), None
#     Edge 34, Type (0, 0), None
#     Edge 35, Type (0, 0), None
#     Edge 36, Type (0, 0), None
#     Edge 37, Type (0, 0), None
#     Edge 38, Type (0, 0), None
#     Edge 39, Type (0, 0), None
#     Edge 40, Type (0, 0), None
#     Edge 41, Type (0, 0), None
#     Edge 42, Type (0, 0), None
#     Edge 43, Type (0, 0), None
#     Edge 44, Type (0, 0), None
#     Edge 45, Type (0, 0), None
#     Edge 46, Type (0, 0), None
#     Edge 47, Type (0, 0), None
#     Edge 48, Type (0, 0), None
#     Edge 49, Type (0, 0), None
#     Edge 50, Type (0, 0), None
#     Edge 51, Type (0, 0), None
#     Edge 52, Type (0, 0), None
#     Edge 53, Type (0, 0), None
#     Edge 54, Type (0, 0), None
#     Edge 55, Type (0, 0), None
#     Edge 56, Type (0, 0), None
#     Edge 57, Type (0, 0), None
#     Edge 58, Type (0, 0), None
#     Edge 59, Type (0, 0), None
#     Edge 60, Type (0, 0), None
#     Edge 61, Type (0, 0), None
#     Edge 62, Type (0, 0), None
#     Edge 63, Type (0, 0), None
# Relax obj value: 0.577
# Max RMSD: 0.238
# Mean RMSD: 0.208
data_MOF--net-why--node1-JUFBIX_clean_sbu_0--edge1-none
_symmetry_space_group_name_H-M    P1
_symmetry_Int_Tables_number       1
_symmetry_cell_setting            triclinic
loop_
_symmetry_equiv_pos_as_xyz
'x, y, z'
_cell_length_a     25.476355
_cell_length_b     23.312454
_cell_length_c     12.890875
_cell_angle_alpha  96.619859
_cell_angle_beta   72.786301
_cell_angle_gamma 102.74932
loop_
_atom_site_label
_atom_site_type_symbol
_atom_site_fract_x
_atom_site_fract_y
_atom_site_fract_z
_atom_type_partial_charge
Co0 Co 0.36004 0.26314 0.05751 0.0
C1 C 0.39362 0.38109 0.96516 0.0
Co2 Co 0.41601 0.33093 0.11642 0.0
C3 C 0.25943 0.23422 1.00298 0.0
C4 C 0.30637 0.16547 0.94514 0.0
N5 N 0.30583 0.21697 1.005 0.0
N6 N 0.2318 0.1966 0.94167 0.0
C7 C 0.26077 0.15313 0.90438 0.0
H8 H 0.24825 0.27573 1.03903 0.0
H9 H 0.33896 0.14 0.92807 0.0
C10 C 0.40231 0.2129 0.18435 0.0
N11 N 0.46897 0.3798 0.16586 0.0
C12 C 0.51775 0.39765 0.09258 0.0
C13 C 0.48118 0.36409 0.25148 0.0
N14 N 0.55826 0.38104 0.11962 0.0
C15 C 0.53617 0.35983 0.2187 0.0
C16 C 0.30835 0.33705 0.25642 0.0
O17 O 0.36008 0.19826 0.14615 0.0
O18 O 0.42433 0.26698 0.18675 0.0
O19 O 0.35991 0.3577 0.24766 0.0
O20 O 0.29886 0.29676 0.18308 0.0
O21 O 0.4131 0.39421 0.04503 0.0
H22 H 0.4498 0.34287 0.31928 0.0
H23 H 0.52157 0.40965 1.01149 0.0
O24 O 0.36713 0.32785 0.95537 0.0
O25 O 0.41539 0.22915 0.94138 0.0
O26 O 0.4756 0.3027 0.98162 0.0
C27 C 0.46595 0.25525 0.92266 0.0
H28 H 0.24997 0.1157 0.85126 0.0
H29 H 0.55762 0.33773 0.25742 0.0
Co30 Co 0.59916 0.65729 0.29357 0.0
C31 C 0.49899 0.69166 0.31732 0.0
Co32 Co 0.58885 0.72959 0.41165 0.0
C33 C 0.66126 0.58407 0.15452 0.0
C34 C 0.57771 0.541 0.22666 0.0
N35 N 0.60909 0.59419 0.1959 0.0
N36 N 0.66562 0.53085 0.17784 0.0
C37 C 0.61285 0.50438 0.22625 0.0
H38 H 0.69696 0.61737 0.11736 0.0
H39 H 0.53327 0.53295 0.26794 0.0
C40 C 0.68339 0.69007 0.39546 0.0
N41 N 0.57756 0.78664 0.51486 0.0
C42 C 0.52662 0.79016 0.57977 0.0
C43 C 0.61185 0.83679 0.5337 0.0
N44 N 0.52549 0.8433 0.63038 0.0
C45 C 0.57969 0.87199 0.60538 0.0
C46 C 0.54468 0.61911 0.49984 0.0
O47 O 0.66902 0.65884 0.31837 0.0
O48 O 0.65402 0.72655 0.4482 0.0
O49 O 0.54634 0.67364 0.52234 0.0
O50 O 0.5667 0.60301 0.40424 0.0
O51 O 0.51985 0.73361 0.37471 0.0
H52 H 0.65563 0.84919 0.48973 0.0
H53 H 0.48929 0.75852 0.57434 0.0
O54 O 0.52748 0.65263 0.27322 0.0
O55 O 0.63484 0.71438 0.17981 0.0
O56 O 0.63251 0.78699 0.30364 0.0
C57 C 0.64859 0.76952 0.20419 0.0
H58 H 0.60055 0.46038 0.25472 0.0
H59 H 0.59357 0.9183 0.62455 0.0
Co60 Co 0.20555 0.94362 0.39277 0.0
C61 C 0.20173 1.02666 0.55478 0.0
Co62 Co 0.20255 0.91082 0.54596 0.0
C63 C 0.14308 0.94989 0.24544 0.0
C64 C 0.20009 1.03097 0.2587 0.0
N65 N 0.19173 0.97272 0.27268 0.0
N66 N 0.1172 0.99229 0.23257 0.0
C67 C 0.1533 1.04329 0.23985 0.0
H68 H 0.12157 0.90453 0.2573 0.0
H69 H 0.23295 1.06371 0.28056 0.0
C70 C 0.18783 0.82397 0.37493 0.0
N71 N 0.20966 0.87937 0.66122 0.0
C72 C 0.24875 0.9016 0.71327 0.0
C73 C 0.18961 0.82324 0.69082 0.0
N74 N 0.25491 0.86091 0.77146 0.0
C75 C 0.21832 0.81131 0.75774 0.0
C76 C 0.10315 0.91589 0.55342 0.0
O77 O 0.20655 0.86928 0.31891 0.0
O78 O 0.18829 0.83004 0.47433 0.0
O79 O 0.13097 0.90327 0.60941 0.0
O80 O 0.12511 0.92286 0.45222 0.0
O81 O 0.20833 0.98987 0.61411 0.0
H82 H 0.15859 0.79193 0.66074 0.0
H83 H 0.27491 0.94504 0.70192 0.0
O84 O 0.20287 1.01222 0.45838 0.0
O85 O 0.28741 0.97285 0.35297 0.0
O86 O 0.28043 0.9229 0.49136 0.0
C87 C 0.30691 0.96487 0.43091 0.0
H88 H 0.14506 1.08677 0.23809 0.0
H89 H 0.21294 0.76961 0.79245 0.0
Co90 Co 0.96424 0.53353 0.81353 0.0
C91 C 0.05721 0.4754 0.74404 0.0
Co92 Co 0.9613 0.46629 0.92319 0.0
C93 C 0.91948 0.61829 0.71932 0.0
C94 C 1.0044 0.64778 0.72576 0.0
N95 N 0.96383 0.59914 0.7354 0.0
N96 N 0.93056 0.67743 0.70567 0.0
C97 C 0.98437 0.69507 0.70884 0.0
H98 H 0.87851 0.5906 0.72709 0.0
H99 H 0.04476 0.64994 0.73917 0.0
C100 C 0.86388 0.50024 0.954 0.0
N101 N 0.95306 0.40912 1.01434 0.0
C102 C 0.98918 0.41001 0.07184 0.0
C103 C 0.91131 0.36293 0.04823 0.0
N104 N 0.97286 0.36633 0.14071 0.0
C105 C 0.92411 0.33563 0.12415 0.0
C106 C 1.01531 0.5761 1.00288 0.0
O107 O 0.89115 0.54164 0.89304 0.0
O108 O 0.89001 0.4785 1.00461 0.0
O109 O 0.99887 0.52195 1.01975 0.0
O110 O 1.0034 0.59249 0.9208 0.0
O111 O 0.03206 0.44934 0.83236 0.0
H112 H 0.87508 0.34903 1.0174 0.0
H113 H 1.03 0.43872 0.05502 0.0
O114 O 0.03817 0.51824 0.72271 0.0
O115 O 0.92652 0.47391 0.71813 0.0
O116 O 0.92446 0.41105 0.83437 0.0
C117 C 0.91034 0.42145 0.75275 0.0
H118 H 1.0082 0.73976 0.6997 0.0
H119 H 0.90196 0.29364 0.15748 0.0
Co120 Co 0.6469 0.86312 0.96512 0.0
C121 C 0.6606 0.98115 0.8972 0.0
Co122 Co 0.70288 0.93091 1.02404 0.0
C123 C 0.54516 0.7964 0.98896 0.0
C124 C 0.58173 0.82996 0.83006 0.0
N125 N 0.59394 0.81425 0.91568 0.0
N126 N 0.50466 0.81302 0.96193 0.0
C127 C 0.52675 0.83422 0.86285 0.0
H128 H 0.54135 0.7844 0.07005 0.0
H129 H 0.61311 0.85118 0.76226 0.0
C130 C 0.66928 0.81297 0.1164 0.0
N131 N 0.75708 0.97708 0.07654 0.0
C132 C 0.80348 0.95983 0.07856 0.0
C133 C 0.75655 1.02858 0.13641 0.0
N134 N 0.83112 0.99745 0.13988 0.0
C135 C 0.80214 1.04092 0.17718 0.0
C136 C 0.59696 0.9388 0.15888 0.0
O137 O 0.64981 0.79983 1.03652 0.0
O138 O 0.6958 0.86621 0.12618 0.0
O139 O 0.64752 0.9649 0.14016 0.0
O140 O 0.58732 0.89136 0.09992 0.0
O141 O 0.70284 0.99579 0.93539 0.0
H142 H 0.72396 1.05405 0.15348 0.0
H143 H 0.81467 0.91832 0.04252 0.0
O144 O 0.63859 0.92706 0.89478 0.0
O145 O 0.70301 0.83635 0.83389 0.0
O146 O 0.76405 0.89729 0.89847 0.0
C147 C 0.75456 0.85699 0.82513 0.0
H148 H 0.5053 0.85632 0.82412 0.0
H149 H 0.81295 1.07835 0.23029 0.0
Co150 Co 0.47406 0.46445 0.6699 0.0
C151 C 0.37953 0.50398 0.68609 0.0
Co152 Co 0.46376 0.53676 0.78798 0.0
C153 C 0.5363 0.40389 0.50178 0.0
C154 C 0.45106 0.35725 0.54785 0.0
N155 N 0.48536 0.40741 0.56669 0.0
N156 N 0.53742 0.35075 0.45117 0.0
C157 C 0.48322 0.32206 0.47616 0.0
H158 H 0.57363 0.43553 0.50721 0.0
H159 H 0.40728 0.34486 0.59181 0.0
C160 C 0.56393 0.50239 0.76423 0.0
N161 N 0.45383 0.59987 0.88564 0.0
C162 C 0.40166 0.60998 0.92703 0.0
C163 C 0.48521 0.65305 0.85488 0.0
N164 N 0.39729 0.66321 0.9037 0.0
C165 C 0.45006 0.68967 0.85529 0.0
C166 C 0.41434 0.42453 0.87736 0.0
O167 O 0.54307 0.46044 0.70684 0.0
O168 O 0.53543 0.54142 0.80833 0.0
O169 O 0.42808 0.47968 0.90174 0.0
O170 O 0.43041 0.40705 0.77791 0.0
O171 O 0.39389 0.53521 0.76317 0.0
H172 H 0.52964 0.66111 0.8136 0.0
H173 H 0.36595 0.57668 0.96419 0.0
O174 O 0.4089 0.4675 0.63335 0.0
O175 O 0.51658 0.5204 0.55921 0.0
O176 O 0.49622 0.59104 0.6773 0.0
C177 C 0.51824 0.57494 0.5817 0.0
H178 H 0.46935 0.27575 0.45699 0.0
H179 H 0.46237 0.73367 0.82682 0.0
Co180 Co 0.86036 0.28323 0.53559 0.0
C181 C 0.8751 0.37007 0.70661 0.0
Co182 Co 0.85737 0.25043 0.68878 0.0
C183 C 0.81417 0.29246 0.36828 0.0
C184 C 0.87331 0.37081 0.39072 0.0
N185 N 0.85326 0.31468 0.42032 0.0
N186 N 0.808 0.33314 0.31008 0.0
C187 C 0.8446 0.38274 0.3238 0.0
H188 H 0.78801 0.24901 0.37963 0.0
H189 H 0.90433 0.40213 0.4208 0.0
C190 C 0.86119 0.1674 0.52676 0.0
N191 N 0.87119 0.22133 0.80886 0.0
C192 C 0.91984 0.24415 0.83611 0.0
C193 C 0.86283 0.16307 0.82283 0.0
N194 N 0.94572 0.20175 0.84897 0.0
C195 C 0.90963 0.15075 0.84168 0.0
C196 C 0.756 0.22919 0.65063 0.0
O197 O 0.85459 0.20419 0.46743 0.0
O198 O 0.86004 0.18183 0.62316 0.0
O199 O 0.7755 0.2212 0.72858 0.0
O200 O 0.78249 0.27115 0.59018 0.0
O201 O 0.85637 0.32476 0.76264 0.0
H202 H 0.82997 0.13033 0.80098 0.0
H203 H 0.94135 0.28951 0.82425 0.0
O204 O 0.87462 0.36402 0.60721 0.0
O205 O 0.93195 0.29079 0.47214 0.0
O206 O 0.93781 0.27118 0.62932 0.0
C207 C 0.95977 0.27816 0.52813 0.0
H208 H 0.84998 0.42445 0.28909 0.0
H209 H 0.91786 0.10728 0.84344 0.0
Co210 Co 0.10162 0.72776 0.15835 0.0
C211 C 0.19904 0.69381 0.12755 0.0
Co212 Co 0.09867 0.66051 0.26801 0.0
C213 C 0.07374 0.78404 1.00971 0.0
C214 C 0.15161 0.83112 1.03331 0.0
N215 N 0.10986 0.78493 0.0672 0.0
N216 N 0.09006 0.82772 0.94083 0.0
C217 C 0.1388 0.85842 0.9574 0.0
H218 H 0.03292 0.75533 1.02653 0.0
H219 H 0.18784 0.84502 0.06414 0.0
C220 C 1.00571 0.71865 0.3375 0.0
N221 N 0.09909 0.59491 0.34614 0.0
C222 C 0.14343 0.57575 0.36222 0.0
C223 C 0.05852 0.54626 0.35577 0.0
N224 N 0.13236 0.51662 0.37587 0.0
C225 C 0.07855 0.49897 0.37269 0.0
C226 C 0.15258 0.7726 0.3288 0.0
O227 O 1.03086 0.74471 0.24918 0.0
O228 O 1.02474 0.67581 0.35883 0.0
O229 O 0.13639 0.72014 0.36341 0.0
O230 O 0.13846 0.783 0.24717 0.0
O231 O 0.17177 0.65241 0.1885 0.0
H232 H 1.01816 0.54411 0.34236 0.0
H233 H 0.18441 0.60345 0.35445 0.0
O234 O 0.17291 0.71555 0.07693 0.0
O235 O 0.06405 0.6721 0.06179 0.0
O236 O 0.05951 0.60156 0.16074 0.0
C237 C 0.04761 0.61795 0.07866 0.0
H238 H 0.16095 0.90041 0.92406 0.0
H239 H 0.05472 0.45428 0.38183 0.0
Co240 Co 0.85429 0.75291 0.5425 0.0
C241 C 0.88835 0.86087 0.42653 0.0
Co242 Co 0.90874 0.8234 0.59896 0.0
C243 C 0.75362 0.71982 0.48981 0.0
C244 C 0.79988 0.65019 0.43987 0.0
N245 N 0.79865 0.70199 0.49872 0.0
N246 N 0.72801 0.68272 0.42449 0.0
C247 C 0.75643 0.63849 0.3927 0.0
H248 H 0.74312 0.76221 0.5212 0.0
H249 H 0.8325 0.62495 0.42512 0.0
C250 C 0.89965 0.71476 0.68536 0.0
N251 N 0.96203 0.87772 0.63164 0.0
C252 C 1.00912 0.89881 0.55627 0.0
C253 C 0.97125 0.89423 0.72892 0.0
N254 N 0.04997 0.9198 0.60213 0.0
C255 C 1.02641 0.92056 0.71052 0.0
C256 C 0.80223 0.83364 0.7331 0.0
O257 O 0.85814 0.69667 0.64469 0.0
O258 O 0.92002 0.76969 0.68611 0.0
O259 O 0.85357 0.85553 0.7235 0.0
O260 O 0.79325 0.79107 0.66295 0.0
O261 O 0.90388 0.87861 0.51024 0.0
H262 H 0.94178 0.88192 0.80613 0.0
H263 H 1.01583 0.88973 0.46949 0.0
O264 O 0.86027 0.80812 0.42475 0.0
O265 O 0.90836 0.71522 0.43441 0.0
O266 O 0.96672 0.79074 0.47455 0.0
C267 C 0.95833 0.74233 0.41879 0.0
H268 H 0.74722 0.60135 0.33774 0.0
H269 H 0.04918 0.9335 0.77059 0.0
Co270 Co 0.10022 0.17242 0.81969 0.0
C271 C 1.00043 0.20748 0.84837 0.0
Co272 Co 0.09162 0.24279 0.94097 0.0
C273 C 0.15024 1.08405 0.69834 0.0
C274 C 0.12452 0.13681 0.60254 0.0
N275 N 0.11874 0.12437 0.70489 0.0
N276 N 0.17805 1.07328 0.59552 0.0
C277 C 0.16215 0.10651 0.53507 0.0
H278 H 0.15404 1.06461 0.76755 0.0
H279 H 0.1063 0.16941 0.57943 0.0
C280 C 0.18508 0.20293 0.92 0.0
N281 N 0.07425 0.29116 0.06022 0.0
C282 C 1.02083 0.28916 0.11692 0.0
C283 C 0.10284 0.34232 0.09166 0.0
N284 N 1.01235 0.34127 0.16678 0.0
C285 C 0.06466 0.37258 0.16116 0.0
C286 C 0.04611 0.12062 1.00269 0.0
O287 O 0.16905 0.17206 0.84443 0.0
O288 O 0.15644 0.2392 0.97601 0.0
O289 O 0.05029 0.17516 1.03359 0.0
O290 O 0.06763 0.10729 0.90439 0.0
O291 O 1.02274 0.24809 0.90564 0.0
H292 H 0.14674 0.3598 0.05507 0.0
H293 H 0.98726 0.25497 0.10148 0.0
O294 O 1.02861 0.16911 0.79793 0.0
O295 O 0.13617 0.23839 0.7256 0.0
O296 O 0.13445 0.31006 0.84829 0.0
C297 C 0.15118 0.29282 0.74869 0.0
H298 H 0.17549 0.10748 0.44738 0.0
H299 H 0.07417 0.41909 0.18334 0.0
Co300 Co 0.7086 0.44208 0.91639 0.0
C301 C 0.70086 0.49954 0.11026 0.0
Co302 Co 0.71371 0.3865 1.03843 0.0
C303 C 0.64219 0.46352 0.7837 0.0
C304 C 0.69334 0.54314 0.8277 0.0
N305 N 0.68796 0.48398 0.82159 0.0
N306 N 0.61634 0.50718 0.77635 0.0
C307 C 0.64882 0.55724 0.80309 0.0
H308 H 0.62283 0.4173 0.78007 0.0
H309 H 0.72298 0.57375 0.86255 0.0
C310 C 0.69977 0.32397 0.85431 0.0
N311 N 0.72709 0.3454 0.13501 0.0
C312 C 0.7635 0.36727 0.19283 0.0
C313 C 0.70827 0.28826 0.15889 0.0
N314 N 0.76911 0.32598 0.25019 0.0
C315 C 0.73455 0.27595 0.23044 0.0
C316 C 0.61071 0.38299 0.05921 0.0
O317 O 0.70736 0.375 0.81942 0.0
O318 O 0.71407 0.31909 0.93882 0.0
O319 O 0.64175 0.35962 0.09315 0.0
O320 O 0.631 0.41592 0.97964 0.0
O321 O 0.70604 0.45156 0.14035 0.0
H322 H 0.6788 0.25738 0.12403 0.0
H323 H 0.78687 0.41209 0.18956 0.0
O324 O 0.70767 0.50519 1.01117 0.0
O325 O 0.78769 0.47342 0.86607 0.0
O326 O 0.79062 0.41737 0.98946 0.0
C327 C 0.81209 0.4623 0.93354 0.0
H328 H 0.6393 0.60085 0.81058 0.0
H329 H 0.72985 0.23364 0.26244 0.0
Co330 Co 0.46123 1.03043 0.31708 0.0
C331 C 0.55055 0.9655 0.24268 0.0
Co332 Co 0.45494 0.96441 0.43 0.0
C333 C 0.41856 0.11466 0.21828 0.0
C334 C 0.5049 0.14039 0.21756 0.0
N335 N 0.46226 1.09368 0.23292 0.0
N336 N 0.43212 0.17339 0.20076 0.0
C337 C 0.4867 0.18864 0.19971 0.0
H338 H 0.37638 1.08905 0.23134 0.0
H339 H 0.54544 0.14087 0.22871 0.0
C340 C 0.35917 1.00145 0.45648 0.0
N341 N 0.44758 0.9113 0.52622 0.0
C342 C 0.49153 0.91214 0.56225 0.0
C343 C 0.4063 0.86979 0.58121 0.0
N344 N 0.48194 0.8714 0.63348 0.0
C345 C 0.42781 0.84432 0.64703 0.0
C346 C 0.51454 1.0761 0.5031 0.0
O347 O 0.38907 1.04316 0.39814 0.0
O348 O 0.3831 0.97862 0.51041 0.0
O349 O 0.49439 1.0228 0.52395 0.0
O350 O 0.5048 1.09143 0.41762 0.0
O351 O 0.52614 0.94324 0.33532 0.0
H352 H 0.36467 0.85727 0.57044 0.0
H353 H 0.5327 0.93752 0.5257 0.0
O354 O 0.53335 1.00976 0.22155 0.0
O355 O 0.41942 0.97032 0.2319 0.0
O356 O 0.41664 0.90734 0.34905 0.0
C357 C 0.40127 0.91868 0.26993 0.0
H358 H 0.51223 0.23241 0.18781 0.0
H359 H 0.4075 0.80498 0.6914 0.0
Co360 Co 0.15418 0.37065 0.48259 0.0
C361 C 0.16327 0.47929 0.39618 0.0
Co362 Co 0.20863 0.44114 0.53904 0.0
C363 C 0.05379 0.29524 0.52527 0.0
C364 C 0.09167 0.29982 0.35262 0.0
N365 N 0.10088 0.31633 0.44991 0.0
N366 N 1.01295 0.27425 0.47941 0.0
C367 C 0.0365 0.27349 0.37103 0.0
H368 H 0.04708 0.30432 0.61205 0.0
H369 H 0.12113 0.31213 0.27542 0.0
C370 C 0.17455 0.33319 0.65503 0.0
N371 N 0.26427 0.49206 0.58282 0.0
C372 C 0.3093 0.47423 0.59173 0.0
C373 C 0.26304 0.54386 0.64167 0.0
N374 N 0.33491 0.51133 0.65705 0.0
C375 C 0.30649 0.55556 0.68884 0.0
C376 C 0.10459 0.45172 0.66275 0.0
O377 O 0.15903 0.31545 0.57133 0.0
O378 O 0.20266 0.38593 0.65679 0.0
O379 O 0.15456 0.47883 0.64714 0.0
O380 O 0.09619 0.40332 0.60698 0.0
O381 O 0.20477 0.49738 0.43686 0.0
H382 H 0.23042 0.5691 0.65642 0.0
H383 H 0.3198 0.43184 0.56034 0.0
O384 O 0.14291 0.42435 0.39543 0.0
O385 O 0.20935 0.33851 0.35805 0.0
O386 O 0.26967 0.40298 0.41859 0.0
C387 C 0.26069 0.36041 0.34844 0.0
H388 H 1.01374 0.26054 0.31095 0.0
H389 H 0.3157 0.5927 0.7438 0.0
Co390 Co 0.97129 0.95126 0.14057 0.0
C391 C 0.87784 0.99112 0.16155 0.0
Co392 Co 0.9627 1.02163 0.26185 0.0
C393 C 0.04209 0.90489 0.96463 0.0
C394 C 0.96007 0.85172 0.98988 0.0
N395 N 0.98866 0.90289 1.02133 0.0
N396 N 0.05057 0.85278 0.91476 0.0
C397 C 0.99826 0.82147 0.92039 0.0
H398 H 0.07566 0.93908 0.98007 0.0
H399 H 0.91618 0.83424 1.02647 0.0
C400 C 0.06249 0.98657 0.23317 0.0
N401 N 0.94418 1.06969 0.37665 0.0
C402 C 0.91269 0.11001 0.3832 0.0
C403 C 0.93841 1.05725 0.47899 0.0
N404 N 0.88488 0.12078 0.48601 0.0
C405 C 0.90078 1.08755 0.54647 0.0
C406 C 0.91177 0.90124 0.33286 0.0
O407 O 0.04017 0.94595 0.1759 0.0
O408 O 0.03431 1.02494 0.2836 0.0
O409 O 0.92676 0.95567 0.35596 0.0
O410 O 0.92846 0.88399 0.23326 0.0
O411 O 0.89386 1.02198 0.23712 0.0
H412 H 0.95663 1.02466 0.50211 0.0
H413 H 0.90888 0.12944 0.31399 0.0
O414 O 0.90648 0.95485 0.10554 0.0
O415 O 1.01262 1.01888 0.04795 0.0
O416 O 0.99529 1.08676 0.17714 0.0
C417 C 1.0168 1.07342 0.07885 0.0
H418 H 0.98874 0.77495 0.8982 0.0
H419 H 0.88744 1.08657 0.63416 0.0
Co420 Co 0.34921 0.80755 0.04312 0.0
C421 C 0.36315 0.87008 0.22724 0.0
Co422 Co 0.35432 0.75197 0.16516 0.0
C423 C 0.29942 0.82679 0.88871 0.0
C424 C 0.35465 0.90579 0.92265 0.0
N425 N 0.33583 0.84866 0.94653 0.0
N426 N 0.2938 0.86807 0.83136 0.0
C427 C 0.32837 0.9181 0.85111 0.0
H428 H 0.27605 0.78197 0.89199 0.0
H429 H 0.38412 0.93667 0.95751 0.0
C430 C 0.36205 0.69451 0.97128 0.0
N431 N 0.37496 0.71007 0.25995 0.0
C432 C 0.42073 0.73053 0.29784 0.0
C433 C 0.36958 0.65091 0.25385 0.0
N434 N 0.44658 0.68687 0.3052 0.0
C435 C 0.4141 0.63681 0.27845 0.0
C436 C 0.25083 0.73175 0.14801 0.0
O437 O 0.35688 0.74249 0.94119 0.0
O438 O 0.35525 0.68886 0.07038 0.0
O439 O 0.27522 0.72063 0.21548 0.0
O440 O 0.2723 0.77668 0.09209 0.0
O441 O 0.35556 0.81905 0.26213 0.0
H442 H 0.33994 0.6203 0.219 0.0
H443 H 0.44008 0.77675 0.30148 0.0
O444 O 0.34884 0.87497 0.14273 0.0
O445 O 0.42117 0.83443 0.9884 0.0
O446 O 0.43191 0.77814 0.10191 0.0
C447 C 0.45221 0.81106 1.02234 0.0
H448 H 0.33307 0.96041 0.8191 0.0
H449 H 0.42362 0.5932 0.27096 0.0
Co450 Co 0.60797 0.22963 0.65154 0.0
C451 C 0.70375 0.1926 0.62507 0.0
Co452 Co 0.60168 0.16362 0.76446 0.0
C453 C 0.57139 0.28191 0.51929 0.0
C454 C 0.65662 0.32426 0.50034 0.0
N455 N 0.61533 0.28275 0.55532 0.0
N456 N 0.58098 0.32265 0.44806 0.0
C457 C 0.63511 0.34973 0.43451 0.0
H458 H 0.53021 0.25653 0.55584 0.0
H459 H 0.69825 0.33678 0.51111 0.0
C460 C 0.51236 0.22855 0.83886 0.0
N461 N 0.60066 0.10036 0.84862 0.0
C462 C 0.64436 1.07939 0.86327 0.0
C463 C 0.55802 1.05365 0.86398 0.0
N464 N 0.6308 1.02066 0.88078 0.0
C465 C 0.57622 1.00541 0.88183 0.0
C466 C 0.66164 0.27537 0.81161 0.0
O467 O 0.53678 0.25081 0.74622 0.0
O468 O 0.52956 0.18428 0.85999 0.0
O469 O 0.6435 0.22373 0.84965 0.0
O470 O 0.64628 0.28671 0.73249 0.0
O471 O 0.67384 0.15089 0.68341 0.0
H472 H 0.51748 1.05317 0.85282 0.0
H473 H 0.68654 0.105 0.85021 0.0
O474 O 0.67982 0.21543 0.57113 0.0
O475 O 0.56853 0.17125 0.55759 0.0
O476 O 0.55812 0.10262 0.66392 0.0
C477 C 0.54838 0.11795 0.57844 0.0
H478 H 0.65542 0.38907 0.39014 0.0
H479 H 0.55069 0.96164 0.89373 0.0
loop_
_geom_bond_atom_site_label_1
_geom_bond_atom_site_label_2
_geom_bond_distance
_geom_bond_site_symmetry_2
_ccdc_geom_bond_type
Co0 N5 2.057 . S
Co0 O17 2.021 1_556 S
Co0 O20 2.062 1_556 S
Co0 O24 2.117 . S
Co0 O25 2.020 . S
C1 O21 1.259 . S
C1 O24 1.258 . S
Co2 N11 2.057 . S
Co2 O18 2.117 . S
Co2 O19 2.020 . S
Co2 O21 2.021 1_554 S
Co2 O26 2.062 1_554 S
C3 N5 1.316 . S
C3 N6 1.347 . S
C3 H8 0.931 1_556 S
C4 N5 1.375 . S
C4 C7 1.350 . S
C4 H9 0.930 . S
N5 Co0 2.057 . S
N5 C3 1.316 . S
N5 C4 1.375 . S
N6 C3 1.347 . S
N6 C7 1.373 . S
C7 C4 1.350 . S
C7 N6 1.373 . S
C7 H28 0.931 . S
H8 C3 0.931 1_554 S
H9 C4 0.930 . S
C10 O17 1.259 . S
C10 O18 1.258 . S
N11 Co2 2.057 . S
N11 C12 1.316 . S
N11 C13 1.375 . S
C12 N11 1.316 . S
C12 N14 1.347 . S
C12 H23 0.931 . S
C13 N11 1.375 . S
C13 C15 1.350 . S
C13 H22 0.930 . S
N14 C12 1.347 . S
N14 C15 1.373 . S
C15 C13 1.350 . S
C15 N14 1.373 . S
C15 H29 0.931 . S
C16 O19 1.256 . S
C16 O20 1.255 . S
O17 Co0 2.021 1_554 S
O17 C10 1.259 . S
O18 Co2 2.117 . S
O18 C10 1.258 . S
O19 Co2 2.020 . S
O19 C16 1.256 . S
O20 Co0 2.062 1_554 S
O20 C16 1.255 . S
O21 C1 1.259 . S
O21 Co2 2.021 1_556 S
H22 C13 0.930 . S
H23 C12 0.931 . S
O24 Co0 2.117 . S
O24 C1 1.258 . S
O25 Co0 2.020 . S
O25 C27 1.256 . S
O26 Co2 2.062 1_556 S
O26 C27 1.255 . S
C27 O25 1.256 . S
C27 O26 1.255 . S
H28 C7 0.931 . S
H29 C15 0.931 . S
Co30 N35 2.057 . S
Co30 O47 2.021 . S
Co30 O50 2.062 . S
Co30 O54 2.117 . S
Co30 O55 2.020 . S
C31 O51 1.259 . S
C31 O54 1.258 . S
Co32 N41 2.057 . S
Co32 O48 2.117 . S
Co32 O49 2.020 . S
Co32 O51 2.021 . S
Co32 O56 2.062 . S
C33 N35 1.316 . S
C33 N36 1.347 . S
C33 H38 0.931 . S
C34 N35 1.375 . S
C34 C37 1.350 . S
C34 H39 0.930 . S
N35 Co30 2.057 . S
N35 C33 1.316 . S
N35 C34 1.375 . S
N36 C33 1.347 . S
N36 C37 1.373 . S
C37 C34 1.350 . S
C37 N36 1.373 . S
C37 H58 0.931 . S
H38 C33 0.931 . S
H39 C34 0.930 . S
C40 O47 1.259 . S
C40 O48 1.258 . S
N41 Co32 2.057 . S
N41 C42 1.316 . S
N41 C43 1.375 . S
C42 N41 1.316 . S
C42 N44 1.347 . S
C42 H53 0.931 . S
C43 N41 1.375 . S
C43 C45 1.350 . S
C43 H52 0.930 . S
N44 C42 1.347 . S
N44 C45 1.373 . S
C45 C43 1.350 . S
C45 N44 1.373 . S
C45 H59 0.931 . S
C46 O49 1.256 . S
C46 O50 1.255 . S
O47 Co30 2.021 . S
O47 C40 1.259 . S
O48 Co32 2.117 . S
O48 C40 1.258 . S
O49 Co32 2.020 . S
O49 C46 1.256 . S
O50 Co30 2.062 . S
O50 C46 1.255 . S
O51 C31 1.259 . S
O51 Co32 2.021 . S
H52 C43 0.930 . S
H53 C42 0.931 . S
O54 Co30 2.117 . S
O54 C31 1.258 . S
O55 Co30 2.020 . S
O55 C57 1.256 . S
O56 Co32 2.062 . S
O56 C57 1.255 . S
C57 O55 1.256 . S
C57 O56 1.255 . S
H58 C37 0.931 . S
H59 C45 0.931 . S
Co60 N65 2.057 . S
Co60 O77 2.021 . S
Co60 O80 2.062 . S
Co60 O84 2.117 . S
Co60 O85 2.020 . S
C61 O81 1.259 . S
C61 O84 1.258 . S
Co62 N71 2.057 . S
Co62 O78 2.117 . S
Co62 O79 2.020 . S
Co62 O81 2.021 . S
Co62 O86 2.062 . S
C63 N65 1.316 . S
C63 N66 1.347 . S
C63 H68 0.931 . S
C64 N65 1.375 . S
C64 C67 1.350 . S
C64 H69 0.930 . S
N65 Co60 2.057 . S
N65 C63 1.316 . S
N65 C64 1.375 . S
N66 C63 1.347 . S
N66 C67 1.373 . S
C67 C64 1.350 . S
C67 N66 1.373 . S
C67 H88 0.931 . S
H68 C63 0.931 . S
H69 C64 0.930 . S
C70 O77 1.259 . S
C70 O78 1.258 . S
N71 Co62 2.057 . S
N71 C72 1.316 . S
N71 C73 1.375 . S
C72 N71 1.316 . S
C72 N74 1.347 . S
C72 H83 0.931 . S
C73 N71 1.375 . S
C73 C75 1.350 . S
C73 H82 0.930 . S
N74 C72 1.347 . S
N74 C75 1.373 . S
C75 C73 1.350 . S
C75 N74 1.373 . S
C75 H89 0.931 . S
C76 O79 1.256 . S
C76 O80 1.255 . S
O77 Co60 2.021 . S
O77 C70 1.259 . S
O78 Co62 2.117 . S
O78 C70 1.258 . S
O79 Co62 2.020 . S
O79 C76 1.256 . S
O80 Co60 2.062 . S
O80 C76 1.255 . S
O81 C61 1.259 . S
O81 Co62 2.021 . S
H82 C73 0.930 . S
H83 C72 0.931 . S
O84 Co60 2.117 . S
O84 C61 1.258 . S
O85 Co60 2.020 . S
O85 C87 1.256 . S
O86 Co62 2.062 . S
O86 C87 1.255 . S
C87 O85 1.256 . S
C87 O86 1.255 . S
H88 C67 0.931 . S
H89 C75 0.931 . S
Co90 N95 2.057 . S
Co90 O107 2.021 . S
Co90 O110 2.062 . S
Co90 O114 2.117 . S
Co90 O115 2.020 . S
C91 O111 1.259 1_455 S
C91 O114 1.258 1_455 S
Co92 N101 2.057 . S
Co92 O108 2.117 . S
Co92 O109 2.020 . S
Co92 O111 2.021 . S
Co92 O116 2.062 . S
C93 N95 1.316 . S
C93 N96 1.347 . S
C93 H98 0.931 . S
C94 N95 1.375 . S
C94 C97 1.350 . S
C94 H99 0.930 . S
N95 Co90 2.057 . S
N95 C93 1.316 . S
N95 C94 1.375 . S
N96 C93 1.347 . S
N96 C97 1.373 . S
C97 C94 1.350 . S
C97 N96 1.373 . S
C97 H118 0.931 . S
H98 C93 0.931 . S
H99 C94 0.930 . S
C100 O107 1.259 . S
C100 O108 1.258 . S
N101 Co92 2.057 . S
N101 C102 1.316 . S
N101 C103 1.375 1_556 S
C102 N101 1.316 . S
C102 N104 1.347 1_556 S
C102 H113 0.931 . S
C103 N101 1.375 1_554 S
C103 C105 1.350 . S
C103 H112 0.930 . S
N104 C102 1.347 1_554 S
N104 C105 1.373 . S
C105 C103 1.350 . S
C105 N104 1.373 . S
C105 H119 0.931 . S
C106 O109 1.256 . S
C106 O110 1.255 . S
O107 Co90 2.021 . S
O107 C100 1.259 . S
O108 Co92 2.117 . S
O108 C100 1.258 . S
O109 Co92 2.020 . S
O109 C106 1.256 . S
O110 Co90 2.062 . S
O110 C106 1.255 . S
O111 C91 1.259 1_655 S
O111 Co92 2.021 . S
H112 C103 0.930 . S
H113 C102 0.931 . S
O114 Co90 2.117 . S
O114 C91 1.258 1_655 S
O115 Co90 2.020 . S
O115 C117 1.256 . S
O116 Co92 2.062 . S
O116 C117 1.255 . S
C117 O115 1.256 . S
C117 O116 1.255 . S
H118 C97 0.931 . S
H119 C105 0.931 . S
Co120 N125 2.057 . S
Co120 O137 2.021 1_556 S
Co120 O140 2.062 1_556 S
Co120 O144 2.117 . S
Co120 O145 2.020 . S
C121 O141 1.259 . S
C121 O144 1.258 . S
Co122 N131 2.057 . S
Co122 O138 2.117 . S
Co122 O139 2.020 . S
Co122 O141 2.021 1_554 S
Co122 O146 2.062 1_554 S
C123 N125 1.316 . S
C123 N126 1.347 . S
C123 H128 0.931 . S
C124 N125 1.375 . S
C124 C127 1.350 . S
C124 H129 0.930 . S
N125 Co120 2.057 . S
N125 C123 1.316 . S
N125 C124 1.375 . S
N126 C123 1.347 . S
N126 C127 1.373 . S
C127 C124 1.350 . S
C127 N126 1.373 . S
C127 H148 0.931 . S
H128 C123 0.931 . S
H129 C124 0.930 . S
C130 O137 1.259 . S
C130 O138 1.258 . S
N131 Co122 2.057 . S
N131 C132 1.316 . S
N131 C133 1.375 . S
C132 N131 1.316 . S
C132 N134 1.347 . S
C132 H143 0.931 1_554 S
C133 N131 1.375 . S
C133 C135 1.350 . S
C133 H142 0.930 . S
N134 C132 1.347 . S
N134 C135 1.373 . S
C135 C133 1.350 . S
C135 N134 1.373 . S
C135 H149 0.931 . S
C136 O139 1.256 . S
C136 O140 1.255 . S
O137 Co120 2.021 1_554 S
O137 C130 1.259 . S
O138 Co122 2.117 . S
O138 C130 1.258 . S
O139 Co122 2.020 . S
O139 C136 1.256 . S
O140 Co120 2.062 1_554 S
O140 C136 1.255 . S
O141 C121 1.259 . S
O141 Co122 2.021 1_556 S
H142 C133 0.930 . S
H143 C132 0.931 1_556 S
O144 Co120 2.117 . S
O144 C121 1.258 . S
O145 Co120 2.020 . S
O145 C147 1.256 . S
O146 Co122 2.062 1_556 S
O146 C147 1.255 . S
C147 O145 1.256 . S
C147 O146 1.255 . S
H148 C127 0.931 . S
H149 C135 0.931 . S
Co150 N155 2.057 . S
Co150 O167 2.021 . S
Co150 O170 2.062 . S
Co150 O174 2.117 . S
Co150 O175 2.020 . S
C151 O171 1.259 . S
C151 O174 1.258 . S
Co152 N161 2.057 . S
Co152 O168 2.117 . S
Co152 O169 2.020 . S
Co152 O171 2.021 . S
Co152 O176 2.062 . S
C153 N155 1.316 . S
C153 N156 1.347 . S
C153 H158 0.931 . S
C154 N155 1.375 . S
C154 C157 1.350 . S
C154 H159 0.930 . S
N155 Co150 2.057 . S
N155 C153 1.316 . S
N155 C154 1.375 . S
N156 C153 1.347 . S
N156 C157 1.373 . S
C157 C154 1.350 . S
C157 N156 1.373 . S
C157 H178 0.931 . S
H158 C153 0.931 . S
H159 C154 0.930 . S
C160 O167 1.259 . S
C160 O168 1.258 . S
N161 Co152 2.057 . S
N161 C162 1.316 . S
N161 C163 1.375 . S
C162 N161 1.316 . S
C162 N164 1.347 . S
C162 H173 0.931 . S
C163 N161 1.375 . S
C163 C165 1.350 . S
C163 H172 0.930 . S
N164 C162 1.347 . S
N164 C165 1.373 . S
C165 C163 1.350 . S
C165 N164 1.373 . S
C165 H179 0.931 . S
C166 O169 1.256 . S
C166 O170 1.255 . S
O167 Co150 2.021 . S
O167 C160 1.259 . S
O168 Co152 2.117 . S
O168 C160 1.258 . S
O169 Co152 2.020 . S
O169 C166 1.256 . S
O170 Co150 2.062 . S
O170 C166 1.255 . S
O171 C151 1.259 . S
O171 Co152 2.021 . S
H172 C163 0.930 . S
H173 C162 0.931 . S
O174 Co150 2.117 . S
O174 C151 1.258 . S
O175 Co150 2.020 . S
O175 C177 1.256 . S
O176 Co152 2.062 . S
O176 C177 1.255 . S
C177 O175 1.256 . S
C177 O176 1.255 . S
H178 C157 0.931 . S
H179 C165 0.931 . S
Co180 N185 2.057 . S
Co180 O197 2.021 . S
Co180 O200 2.062 . S
Co180 O204 2.117 . S
Co180 O205 2.020 . S
C181 O201 1.259 . S
C181 O204 1.258 . S
Co182 N191 2.057 . S
Co182 O198 2.117 . S
Co182 O199 2.020 . S
Co182 O201 2.021 . S
Co182 O206 2.062 . S
C183 N185 1.316 . S
C183 N186 1.347 . S
C183 H188 0.931 . S
C184 N185 1.375 . S
C184 C187 1.350 . S
C184 H189 0.930 . S
N185 Co180 2.057 . S
N185 C183 1.316 . S
N185 C184 1.375 . S
N186 C183 1.347 . S
N186 C187 1.373 . S
C187 C184 1.350 . S
C187 N186 1.373 . S
C187 H208 0.931 . S
H188 C183 0.931 . S
H189 C184 0.930 . S
C190 O197 1.259 . S
C190 O198 1.258 . S
N191 Co182 2.057 . S
N191 C192 1.316 . S
N191 C193 1.375 . S
C192 N191 1.316 . S
C192 N194 1.347 . S
C192 H203 0.931 . S
C193 N191 1.375 . S
C193 C195 1.350 . S
C193 H202 0.930 . S
N194 C192 1.347 . S
N194 C195 1.373 . S
C195 C193 1.350 . S
C195 N194 1.373 . S
C195 H209 0.931 . S
C196 O199 1.256 . S
C196 O200 1.255 . S
O197 Co180 2.021 . S
O197 C190 1.259 . S
O198 Co182 2.117 . S
O198 C190 1.258 . S
O199 Co182 2.020 . S
O199 C196 1.256 . S
O200 Co180 2.062 . S
O200 C196 1.255 . S
O201 C181 1.259 . S
O201 Co182 2.021 . S
H202 C193 0.930 . S
H203 C192 0.931 . S
O204 Co180 2.117 . S
O204 C181 1.258 . S
O205 Co180 2.020 . S
O205 C207 1.256 . S
O206 Co182 2.062 . S
O206 C207 1.255 . S
C207 O205 1.256 . S
C207 O206 1.255 . S
H208 C187 0.931 . S
H209 C195 0.931 . S
Co210 N215 2.057 . S
Co210 O227 2.021 . S
Co210 O230 2.062 . S
Co210 O234 2.117 . S
Co210 O235 2.020 . S
C211 O231 1.259 . S
C211 O234 1.258 . S
Co212 N221 2.057 . S
Co212 O228 2.117 . S
Co212 O229 2.020 . S
Co212 O231 2.021 . S
Co212 O236 2.062 . S
C213 N215 1.316 . S
C213 N216 1.347 1_554 S
C213 H218 0.931 . S
C214 N215 1.375 1_556 S
C214 C217 1.350 . S
C214 H219 0.930 . S
N215 Co210 2.057 . S
N215 C213 1.316 . S
N215 C214 1.375 1_554 S
N216 C213 1.347 1_556 S
N216 C217 1.373 . S
C217 C214 1.350 . S
C217 N216 1.373 . S
C217 H238 0.931 . S
H218 C213 0.931 . S
H219 C214 0.930 . S
C220 O227 1.259 1_655 S
C220 O228 1.258 1_655 S
N221 Co212 2.057 . S
N221 C222 1.316 . S
N221 C223 1.375 . S
C222 N221 1.316 . S
C222 N224 1.347 . S
C222 H233 0.931 . S
C223 N221 1.375 . S
C223 C225 1.350 . S
C223 H232 0.930 . S
N224 C222 1.347 . S
N224 C225 1.373 . S
C225 C223 1.350 . S
C225 N224 1.373 . S
C225 H239 0.931 . S
C226 O229 1.256 . S
C226 O230 1.255 . S
O227 Co210 2.021 . S
O227 C220 1.259 1_455 S
O228 Co212 2.117 . S
O228 C220 1.258 1_455 S
O229 Co212 2.020 . S
O229 C226 1.256 . S
O230 Co210 2.062 . S
O230 C226 1.255 . S
O231 C211 1.259 . S
O231 Co212 2.021 . S
H232 C223 0.930 . S
H233 C222 0.931 . S
O234 Co210 2.117 . S
O234 C211 1.258 . S
O235 Co210 2.020 . S
O235 C237 1.256 . S
O236 Co212 2.062 . S
O236 C237 1.255 . S
C237 O235 1.256 . S
C237 O236 1.255 . S
H238 C217 0.931 . S
H239 C225 0.931 . S
Co240 N245 2.057 . S
Co240 O257 2.021 . S
Co240 O260 2.062 . S
Co240 O264 2.117 . S
Co240 O265 2.020 . S
C241 O261 1.259 . S
C241 O264 1.258 . S
Co242 N251 2.057 . S
Co242 O258 2.117 . S
Co242 O259 2.020 . S
Co242 O261 2.021 . S
Co242 O266 2.062 . S
C243 N245 1.316 . S
C243 N246 1.347 . S
C243 H248 0.931 . S
C244 N245 1.375 . S
C244 C247 1.350 . S
C244 H249 0.930 . S
N245 Co240 2.057 . S
N245 C243 1.316 . S
N245 C244 1.375 . S
N246 C243 1.347 . S
N246 C247 1.373 . S
C247 C244 1.350 . S
C247 N246 1.373 . S
C247 H268 0.931 . S
H248 C243 0.931 . S
H249 C244 0.930 . S
C250 O257 1.259 . S
C250 O258 1.258 . S
N251 Co242 2.057 . S
N251 C252 1.316 1_655 S
N251 C253 1.375 . S
C252 N251 1.316 1_455 S
C252 N254 1.347 . S
C252 H263 0.931 . S
C253 N251 1.375 . S
C253 C255 1.350 1_655 S
C253 H262 0.930 . S
N254 C252 1.347 . S
N254 C255 1.373 . S
C255 C253 1.350 1_455 S
C255 N254 1.373 . S
C255 H269 0.931 . S
C256 O259 1.256 . S
C256 O260 1.255 . S
O257 Co240 2.021 . S
O257 C250 1.259 . S
O258 Co242 2.117 . S
O258 C250 1.258 . S
O259 Co242 2.020 . S
O259 C256 1.256 . S
O260 Co240 2.062 . S
O260 C256 1.255 . S
O261 C241 1.259 . S
O261 Co242 2.021 . S
H262 C253 0.930 . S
H263 C252 0.931 . S
O264 Co240 2.117 . S
O264 C241 1.258 . S
O265 Co240 2.020 . S
O265 C267 1.256 . S
O266 Co242 2.062 . S
O266 C267 1.255 . S
C267 O265 1.256 . S
C267 O266 1.255 . S
H268 C247 0.931 . S
H269 C255 0.931 . S
Co270 N275 2.057 1_545 S
Co270 O287 2.021 . S
Co270 O290 2.062 . S
Co270 O294 2.117 . S
Co270 O295 2.020 . S
C271 O291 1.259 . S
C271 O294 1.258 1_655 S
Co272 N281 2.057 . S
Co272 O288 2.117 . S
Co272 O289 2.020 . S
Co272 O291 2.021 1_455 S
Co272 O296 2.062 . S
C273 N275 1.316 . S
C273 N276 1.347 . S
C273 H278 0.931 . S
C274 N275 1.375 . S
C274 C277 1.350 . S
C274 H279 0.930 . S
N275 Co270 2.057 1_565 S
N275 C273 1.316 . S
N275 C274 1.375 . S
N276 C273 1.347 . S
N276 C277 1.373 . S
C277 C274 1.350 . S
C277 N276 1.373 . S
C277 H298 0.931 . S
H278 C273 0.931 . S
H279 C274 0.930 . S
C280 O287 1.259 . S
C280 O288 1.258 . S
N281 Co272 2.057 . S
N281 C282 1.314 1_455 S
N281 C283 1.375 1_556 S
C282 N281 1.314 1_655 S
C282 N284 1.340 1_556 S
C282 H293 0.939 . S
C283 N281 1.375 1_554 S
C283 C285 1.350 . S
C283 H292 0.930 . S
N284 C282 1.340 1_554 S
N284 C285 1.373 1_655 S
C285 C283 1.350 . S
C285 N284 1.373 1_455 S
C285 H299 0.931 . S
C286 O289 1.256 . S
C286 O290 1.255 . S
O287 Co270 2.021 . S
O287 C280 1.259 . S
O288 Co272 2.117 . S
O288 C280 1.258 . S
O289 Co272 2.020 . S
O289 C286 1.256 . S
O290 Co270 2.062 . S
O290 C286 1.255 . S
O291 C271 1.259 . S
O291 Co272 2.021 1_655 S
H292 C283 0.930 . S
H293 C282 0.939 . S
O294 Co270 2.117 . S
O294 C271 1.258 1_455 S
O295 Co270 2.020 . S
O295 C297 1.256 . S
O296 Co272 2.062 . S
O296 C297 1.255 . S
C297 O295 1.256 . S
C297 O296 1.255 . S
H298 C277 0.931 . S
H299 C285 0.931 . S
Co300 N305 2.057 . S
Co300 O317 2.021 . S
Co300 O320 2.062 . S
Co300 O324 2.117 1_556 S
Co300 O325 2.020 . S
C301 O321 1.259 . S
C301 O324 1.258 . S
Co302 N311 2.057 . S
Co302 O318 2.117 1_554 S
Co302 O319 2.020 . S
Co302 O321 2.021 . S
Co302 O326 2.062 . S
C303 N305 1.316 . S
C303 N306 1.347 . S
C303 H308 0.931 . S
C304 N305 1.375 . S
C304 C307 1.350 . S
C304 H309 0.930 . S
N305 Co300 2.057 . S
N305 C303 1.316 . S
N305 C304 1.375 . S
N306 C303 1.347 . S
N306 C307 1.373 . S
C307 C304 1.350 . S
C307 N306 1.373 . S
C307 H328 0.931 . S
H308 C303 0.931 . S
H309 C304 0.930 . S
C310 O317 1.259 . S
C310 O318 1.258 . S
N311 Co302 2.057 . S
N311 C312 1.316 . S
N311 C313 1.375 . S
C312 N311 1.316 . S
C312 N314 1.347 . S
C312 H323 0.931 . S
C313 N311 1.375 . S
C313 C315 1.350 . S
C313 H322 0.930 . S
N314 C312 1.347 . S
N314 C315 1.373 . S
C315 C313 1.350 . S
C315 N314 1.373 . S
C315 H329 0.931 . S
C316 O319 1.256 . S
C316 O320 1.255 1_554 S
O317 Co300 2.021 . S
O317 C310 1.259 . S
O318 Co302 2.117 1_556 S
O318 C310 1.258 . S
O319 Co302 2.020 . S
O319 C316 1.256 . S
O320 Co300 2.062 . S
O320 C316 1.255 1_556 S
O321 C301 1.259 . S
O321 Co302 2.021 . S
H322 C313 0.930 . S
H323 C312 0.931 . S
O324 Co300 2.117 1_554 S
O324 C301 1.258 . S
O325 Co300 2.020 . S
O325 C327 1.256 . S
O326 Co302 2.062 . S
O326 C327 1.255 1_554 S
C327 O325 1.256 . S
C327 O326 1.255 1_556 S
H328 C307 0.931 . S
H329 C315 0.931 . S
Co330 N335 2.057 1_565 S
Co330 O347 2.021 . S
Co330 O350 2.062 . S
Co330 O354 2.117 . S
Co330 O355 2.020 . S
C331 O351 1.259 . S
C331 O354 1.258 . S
Co332 N341 2.057 . S
Co332 O348 2.117 . S
Co332 O349 2.020 . S
Co332 O351 2.021 . S
Co332 O356 2.062 . S
C333 N335 1.316 . S
C333 N336 1.347 . S
C333 H338 0.931 . S
C334 N335 1.375 . S
C334 C337 1.350 . S
C334 H339 0.930 . S
N335 Co330 2.057 1_545 S
N335 C333 1.316 . S
N335 C334 1.375 . S
N336 C333 1.347 . S
N336 C337 1.373 . S
C337 C334 1.350 . S
C337 N336 1.373 . S
C337 H358 0.931 . S
H338 C333 0.931 . S
H339 C334 0.930 . S
C340 O347 1.259 . S
C340 O348 1.258 . S
N341 Co332 2.057 . S
N341 C342 1.316 . S
N341 C343 1.375 . S
C342 N341 1.316 . S
C342 N344 1.347 . S
C342 H353 0.931 . S
C343 N341 1.375 . S
C343 C345 1.350 . S
C343 H352 0.930 . S
N344 C342 1.347 . S
N344 C345 1.373 . S
C345 C343 1.350 . S
C345 N344 1.373 . S
C345 H359 0.931 . S
C346 O349 1.256 . S
C346 O350 1.255 . S
O347 Co330 2.021 . S
O347 C340 1.259 . S
O348 Co332 2.117 . S
O348 C340 1.258 . S
O349 Co332 2.020 . S
O349 C346 1.256 . S
O350 Co330 2.062 . S
O350 C346 1.255 . S
O351 C331 1.259 . S
O351 Co332 2.021 . S
H352 C343 0.930 . S
H353 C342 0.931 . S
O354 Co330 2.117 . S
O354 C331 1.258 . S
O355 Co330 2.020 . S
O355 C357 1.256 . S
O356 Co332 2.062 . S
O356 C357 1.255 . S
C357 O355 1.256 . S
C357 O356 1.255 . S
H358 C337 0.931 . S
H359 C345 0.931 . S
Co360 N365 2.057 . S
Co360 O377 2.021 . S
Co360 O380 2.062 . S
Co360 O384 2.117 . S
Co360 O385 2.020 . S
C361 O381 1.259 . S
C361 O384 1.258 . S
Co362 N371 2.057 . S
Co362 O378 2.117 . S
Co362 O379 2.020 . S
Co362 O381 2.021 . S
Co362 O386 2.062 . S
C363 N365 1.316 1_655 S
C363 N366 1.347 . S
C363 H368 0.931 . S
C364 N365 1.375 . S
C364 C367 1.350 1_455 S
C364 H369 0.930 . S
N365 Co360 2.057 . S
N365 C363 1.316 1_455 S
N365 C364 1.375 . S
N366 C363 1.347 . S
N366 C367 1.373 . S
C367 C364 1.350 1_655 S
C367 N366 1.373 . S
C367 H388 0.931 . S
H368 C363 0.931 . S
H369 C364 0.930 . S
C370 O377 1.259 . S
C370 O378 1.258 . S
N371 Co362 2.057 . S
N371 C372 1.316 . S
N371 C373 1.375 . S
C372 N371 1.316 . S
C372 N374 1.347 . S
C372 H383 0.931 . S
C373 N371 1.375 . S
C373 C375 1.350 . S
C373 H382 0.930 . S
N374 C372 1.347 . S
N374 C375 1.373 . S
C375 C373 1.350 . S
C375 N374 1.373 . S
C375 H389 0.931 . S
C376 O379 1.256 . S
C376 O380 1.255 . S
O377 Co360 2.021 . S
O377 C370 1.259 . S
O378 Co362 2.117 . S
O378 C370 1.258 . S
O379 Co362 2.020 . S
O379 C376 1.256 . S
O380 Co360 2.062 . S
O380 C376 1.255 . S
O381 C361 1.259 . S
O381 Co362 2.021 . S
H382 C373 0.930 . S
H383 C372 0.931 . S
O384 Co360 2.117 . S
O384 C361 1.258 . S
O385 Co360 2.020 . S
O385 C387 1.256 . S
O386 Co362 2.062 . S
O386 C387 1.255 . S
C387 O385 1.256 . S
C387 O386 1.255 . S
H388 C367 0.931 . S
H389 C375 0.931 . S
Co390 N395 2.057 . S
Co390 O407 2.021 1_655 S
Co390 O410 2.062 . S
Co390 O414 2.117 . S
Co390 O415 2.020 . S
C391 O411 1.259 . S
C391 O414 1.258 . S
Co392 N401 2.057 1_565 S
Co392 O408 2.117 . S
Co392 O409 2.020 . S
Co392 O411 2.021 . S
Co392 O416 2.062 . S
C393 N395 1.314 1_455 S
C393 N396 1.340 1_554 S
C393 H398 0.939 . S
C394 N395 1.375 1_556 S
C394 C397 1.350 . S
C394 H399 0.930 . S
N395 Co390 2.057 . S
N395 C393 1.314 1_655 S
N395 C394 1.375 1_554 S
N396 C393 1.340 1_556 S
N396 C397 1.373 1_455 S
C397 C394 1.350 . S
C397 N396 1.373 1_655 S
C397 H418 0.931 . S
H398 C393 0.939 . S
H399 C394 0.930 . S
C400 O407 1.259 . S
C400 O408 1.258 1_455 S
N401 Co392 2.057 1_545 S
N401 C402 1.316 . S
N401 C403 1.375 . S
C402 N401 1.316 . S
C402 N404 1.347 . S
C402 H413 0.931 . S
C403 N401 1.375 . S
C403 C405 1.350 . S
C403 H412 0.930 . S
N404 C402 1.347 . S
N404 C405 1.373 . S
C405 C403 1.350 . S
C405 N404 1.373 . S
C405 H419 0.931 . S
C406 O409 1.256 . S
C406 O410 1.255 . S
O407 Co390 2.021 1_455 S
O407 C400 1.259 . S
O408 Co392 2.117 . S
O408 C400 1.258 1_655 S
O409 Co392 2.020 . S
O409 C406 1.256 . S
O410 Co390 2.062 . S
O410 C406 1.255 . S
O411 C391 1.259 . S
O411 Co392 2.021 . S
H412 C403 0.930 . S
H413 C402 0.931 . S
O414 Co390 2.117 . S
O414 C391 1.258 . S
O415 Co390 2.020 . S
O415 C417 1.256 . S
O416 Co392 2.062 . S
O416 C417 1.255 . S
C417 O415 1.256 . S
C417 O416 1.255 . S
H418 C397 0.931 . S
H419 C405 0.931 . S
Co420 N425 2.057 . S
Co420 O437 2.021 . S
Co420 O440 2.062 . S
Co420 O444 2.117 1_556 S
Co420 O445 2.020 . S
C421 O441 1.259 . S
C421 O444 1.258 . S
Co422 N431 2.057 . S
Co422 O438 2.117 1_554 S
Co422 O439 2.020 . S
Co422 O441 2.021 . S
Co422 O446 2.062 . S
C423 N425 1.316 . S
C423 N426 1.347 . S
C423 H428 0.931 . S
C424 N425 1.375 . S
C424 C427 1.350 . S
C424 H429 0.930 . S
N425 Co420 2.057 . S
N425 C423 1.316 . S
N425 C424 1.375 . S
N426 C423 1.347 . S
N426 C427 1.373 . S
C427 C424 1.350 . S
C427 N426 1.373 . S
C427 H448 0.931 . S
H428 C423 0.931 . S
H429 C424 0.930 . S
C430 O437 1.259 . S
C430 O438 1.258 . S
N431 Co422 2.057 . S
N431 C432 1.316 . S
N431 C433 1.375 . S
C432 N431 1.316 . S
C432 N434 1.347 . S
C432 H443 0.931 . S
C433 N431 1.375 . S
C433 C435 1.350 . S
C433 H442 0.930 . S
N434 C432 1.347 . S
N434 C435 1.373 . S
C435 C433 1.350 . S
C435 N434 1.373 . S
C435 H449 0.931 . S
C436 O439 1.256 . S
C436 O440 1.255 1_554 S
O437 Co420 2.021 . S
O437 C430 1.259 . S
O438 Co422 2.117 1_556 S
O438 C430 1.258 . S
O439 Co422 2.020 . S
O439 C436 1.256 . S
O440 Co420 2.062 . S
O440 C436 1.255 1_556 S
O441 C421 1.259 . S
O441 Co422 2.021 . S
H442 C433 0.930 . S
H443 C432 0.931 . S
O444 Co420 2.117 1_554 S
O444 C421 1.258 . S
O445 Co420 2.020 . S
O445 C447 1.256 . S
O446 Co422 2.062 . S
O446 C447 1.255 1_554 S
C447 O445 1.256 . S
C447 O446 1.255 1_556 S
H448 C427 0.931 . S
H449 C435 0.931 . S
Co450 N455 2.057 . S
Co450 O467 2.021 . S
Co450 O470 2.062 . S
Co450 O474 2.117 . S
Co450 O475 2.020 . S
C451 O471 1.259 . S
C451 O474 1.258 . S
Co452 N461 2.057 1_545 S
Co452 O468 2.117 . S
Co452 O469 2.020 . S
Co452 O471 2.021 . S
Co452 O476 2.062 . S
C453 N455 1.316 . S
C453 N456 1.347 . S
C453 H458 0.931 . S
C454 N455 1.375 . S
C454 C457 1.350 . S
C454 H459 0.930 . S
N455 Co450 2.057 . S
N455 C453 1.316 . S
N455 C454 1.375 . S
N456 C453 1.347 . S
N456 C457 1.373 . S
C457 C454 1.350 . S
C457 N456 1.373 . S
C457 H478 0.931 . S
H458 C453 0.931 . S
H459 C454 0.930 . S
C460 O467 1.259 . S
C460 O468 1.258 . S
N461 Co452 2.057 1_565 S
N461 C462 1.316 . S
N461 C463 1.375 . S
C462 N461 1.316 . S
C462 N464 1.347 . S
C462 H473 0.931 . S
C463 N461 1.375 . S
C463 C465 1.350 . S
C463 H472 0.930 . S
N464 C462 1.347 . S
N464 C465 1.373 . S
C465 C463 1.350 . S
C465 N464 1.373 . S
C465 H479 0.931 . S
C466 O469 1.256 . S
C466 O470 1.255 . S
O467 Co450 2.021 . S
O467 C460 1.259 . S
O468 Co452 2.117 . S
O468 C460 1.258 . S
O469 Co452 2.020 . S
O469 C466 1.256 . S
O470 Co450 2.062 . S
O470 C466 1.255 . S
O471 C451 1.259 . S
O471 Co452 2.021 . S
H472 C463 0.930 . S
H473 C462 0.931 . S
O474 Co450 2.117 . S
O474 C451 1.258 . S
O475 Co450 2.020 . S
O475 C477 1.256 . S
O476 Co452 2.062 . S
O476 C477 1.255 . S
C477 O475 1.256 . S
C477 O476 1.255 . S
H478 C457 0.931 . S
H479 C465 0.931 . S
N14 C316 0.891 . S
N44 N344 1.526 . S
C76 N254 1.775 . S
N104 N284 1.413 . S
N126 C447 0.891 . S
N156 N456 1.526 . S
C207 N366 1.775 . S
N216 N396 1.413 . S
C280 N6 0.910 . S
C301 N36 0.394 . S
C340 C87 2.108 . S
C250 N96 1.919 . S
N134 C391 0.910 . S
C430 N164 0.394 . S
C451 C196 2.108 . S
C361 N224 1.919 . S
C40 N246 1.074 . S
N276 C61 1.319 . S
C327 C100 2.039 . S
N336 C10 1.969 . S
N374 C151 1.074 . S
C190 N404 1.319 . S
C211 C436 2.039 . S
N464 C121 1.969 . S
C27 C460 2.690 . S
C57 C130 2.687 . S
C400 N66 2.191 . S
C181 C117 3.079 . S
C136 C331 2.690 . S
C166 C1 2.687 . S
C271 N194 2.191 . S
C70 C226 3.079 . S
C267 C220 2.681 . S
C297 C370 2.609 . S
C160 N306 1.697 . S
C421 C357 3.094 . S
C376 C91 2.681 . S
C406 C241 2.609 . S
N434 C31 1.697 . S
C310 C466 3.094 . S
C16 C387 2.820 . S
C46 C177 1.397 . S
N74 N426 1.215 . S
C237 C106 3.220 1_454 S
C147 C256 2.820 . S
N314 N186 1.215 . S
C286 C417 1.290 1_446 S
C477 C346 3.728 1_545 S
