# Generated by pormake.
# Topology yfa, (5)-cn, num edge types: 1
# Building blocks:
#     Node 0, Type 0, BuildingBlock: BEQFEK_clean_sbu_0, # of connection points: 5
#     Node 1, Type 0, BuildingBlock: BEQFEK_clean_sbu_0, # of connection points: 5
#     Node 2, Type 0, BuildingBlock: BEQFEK_clean_sbu_0, # of connection points: 5
#     Node 3, Type 0, BuildingBlock: BEQFEK_clean_sbu_0, # of connection points: 5
#     Node 4, Type 0, BuildingBlock: BEQFEK_clean_sbu_0, # of connection points: 5
#     Node 5, Type 0, BuildingBlock: BEQFEK_clean_sbu_0, # of connection points: 5
#     Node 6, Type 0, BuildingBlock: BEQFEK_clean_sbu_0, # of connection points: 5
#     Node 7, Type 0, BuildingBlock: BEQFEK_clean_sbu_0, # of connection points: 5
#     Node 8, Type 0, BuildingBlock: BEQFEK_clean_sbu_0, # of connection points: 5
#     Node 9, Type 0, BuildingBlock: BEQFEK_clean_sbu_0, # of connection points: 5
#     Node 10, Type 0, BuildingBlock: BEQFEK_clean_sbu_0, # of connection points: 5
#     Node 11, Type 0, BuildingBlock: BEQFEK_clean_sbu_0, # of connection points: 5
#     Node 12, Type 0, BuildingBlock: BEQFEK_clean_sbu_0, # of connection points: 5
#     Node 13, Type 0, BuildingBlock: BEQFEK_clean_sbu_0, # of connection points: 5
#     Node 14, Type 0, BuildingBlock: BEQFEK_clean_sbu_0, # of connection points: 5
#     Node 15, Type 0, BuildingBlock: BEQFEK_clean_sbu_0, # of connection points: 5
#     Edge 16, Type (0, 0), BuildingBlock: TEMPAE_clean_linker_10, # of connection points: 2
#     Edge 17, Type (0, 0), BuildingBlock: TEMPAE_clean_linker_10, # of connection points: 2
#     Edge 18, Type (0, 0), BuildingBlock: TEMPAE_clean_linker_10, # of connection points: 2
#     Edge 19, Type (0, 0), BuildingBlock: TEMPAE_clean_linker_10, # of connection points: 2
#     Edge 20, Type (0, 0), BuildingBlock: TEMPAE_clean_linker_10, # of connection points: 2
#     Edge 21, Type (0, 0), BuildingBlock: TEMPAE_clean_linker_10, # of connection points: 2
#     Edge 22, Type (0, 0), BuildingBlock: TEMPAE_clean_linker_10, # of connection points: 2
#     Edge 23, Type (0, 0), BuildingBlock: TEMPAE_clean_linker_10, # of connection points: 2
#     Edge 24, Type (0, 0), BuildingBlock: TEMPAE_clean_linker_10, # of connection points: 2
#     Edge 25, Type (0, 0), BuildingBlock: TEMPAE_clean_linker_10, # of connection points: 2
#     Edge 26, Type (0, 0), BuildingBlock: TEMPAE_clean_linker_10, # of connection points: 2
#     Edge 27, Type (0, 0), BuildingBlock: TEMPAE_clean_linker_10, # of connection points: 2
#     Edge 28, Type (0, 0), BuildingBlock: TEMPAE_clean_linker_10, # of connection points: 2
#     Edge 29, Type (0, 0), BuildingBlock: TEMPAE_clean_linker_10, # of connection points: 2
#     Edge 30, Type (0, 0), BuildingBlock: TEMPAE_clean_linker_10, # of connection points: 2
#     Edge 31, Type (0, 0), BuildingBlock: TEMPAE_clean_linker_10, # of connection points: 2
#     Edge 32, Type (0, 0), BuildingBlock: TEMPAE_clean_linker_10, # of connection points: 2
#     Edge 33, Type (0, 0), BuildingBlock: TEMPAE_clean_linker_10, # of connection points: 2
#     Edge 34, Type (0, 0), BuildingBlock: TEMPAE_clean_linker_10, # of connection points: 2
#     Edge 35, Type (0, 0), BuildingBlock: TEMPAE_clean_linker_10, # of connection points: 2
#     Edge 36, Type (0, 0), BuildingBlock: TEMPAE_clean_linker_10, # of connection points: 2
#     Edge 37, Type (0, 0), BuildingBlock: TEMPAE_clean_linker_10, # of connection points: 2
#     Edge 38, Type (0, 0), BuildingBlock: TEMPAE_clean_linker_10, # of connection points: 2
#     Edge 39, Type (0, 0), BuildingBlock: TEMPAE_clean_linker_10, # of connection points: 2
#     Edge 40, Type (0, 0), BuildingBlock: TEMPAE_clean_linker_10, # of connection points: 2
#     Edge 41, Type (0, 0), BuildingBlock: TEMPAE_clean_linker_10, # of connection points: 2
#     Edge 42, Type (0, 0), BuildingBlock: TEMPAE_clean_linker_10, # of connection points: 2
#     Edge 43, Type (0, 0), BuildingBlock: TEMPAE_clean_linker_10, # of connection points: 2
#     Edge 44, Type (0, 0), BuildingBlock: TEMPAE_clean_linker_10, # of connection points: 2
#     Edge 45, Type (0, 0), BuildingBlock: TEMPAE_clean_linker_10, # of connection points: 2
#     Edge 46, Type (0, 0), BuildingBlock: TEMPAE_clean_linker_10, # of connection points: 2
#     Edge 47, Type (0, 0), BuildingBlock: TEMPAE_clean_linker_10, # of connection points: 2
#     Edge 48, Type (0, 0), BuildingBlock: TEMPAE_clean_linker_10, # of connection points: 2
#     Edge 49, Type (0, 0), BuildingBlock: TEMPAE_clean_linker_10, # of connection points: 2
#     Edge 50, Type (0, 0), BuildingBlock: TEMPAE_clean_linker_10, # of connection points: 2
#     Edge 51, Type (0, 0), BuildingBlock: TEMPAE_clean_linker_10, # of connection points: 2
#     Edge 52, Type (0, 0), BuildingBlock: TEMPAE_clean_linker_10, # of connection points: 2
#     Edge 53, Type (0, 0), BuildingBlock: TEMPAE_clean_linker_10, # of connection points: 2
#     Edge 54, Type (0, 0), BuildingBlock: TEMPAE_clean_linker_10, # of connection points: 2
#     Edge 55, Type (0, 0), BuildingBlock: TEMPAE_clean_linker_10, # of connection points: 2
# Relax obj value: 0.788
# Max RMSD: 0.296
# Mean RMSD: 0.296
data_MOF--net-yfa--node1-BEQFEK_clean_sbu_0--edge1-TEMPAE_clean_linker_10
_symmetry_space_group_name_H-M    P1
_symmetry_Int_Tables_number       1
_symmetry_cell_setting            triclinic
loop_
_symmetry_equiv_pos_as_xyz
'x, y, z'
_cell_length_a     49.835307
_cell_length_b     49.872918
_cell_length_c     30.350454
_cell_angle_alpha  89.977586
_cell_angle_beta   90.016381
_cell_angle_gamma 90.019976
loop_
_atom_site_label
_atom_site_type_symbol
_atom_site_fract_x
_atom_site_fract_y
_atom_site_fract_z
_atom_type_partial_charge
Co0 Co 0.6238 0.03012 0.1677 0.0
Co1 Co 0.64616 0.07716 0.10972 0.0
C2 C 0.68195 0.03513 0.14743 0.0
O3 O 0.6618 0.02392 0.16479 0.0
O4 O 0.67933 0.05612 0.12398 0.0
C5 C 0.61952 0.97531 0.18784 0.0
O6 O 0.63863 0.97429 0.15807 0.0
C7 C 0.66283 0.09655 0.02446 0.0
C8 C 0.65878 0.14046 0.03053 0.0
C9 C 0.66445 0.12024 0.00048 0.0
N10 N 0.65622 0.10255 0.06614 0.0
N11 N 0.65448 0.12886 0.06996 0.0
C12 C 0.66421 0.06839 0.0074 0.0
H13 H 0.65762 0.05387 0.03284 0.0
H14 H 0.65161 0.0662 0.97745 0.0
H15 H 0.68525 0.06362 -0.00156 0.0
C16 C 0.58609 0.02515 0.09543 0.0
N17 N 0.60889 0.03533 0.11191 0.0
N18 N 0.61603 0.05657 0.08905 0.0
C19 C 0.59698 0.0613 0.05822 0.0
C20 C 0.57737 0.04152 0.06143 0.0
C21 C 0.57196 0.00121 0.11423 0.0
H22 H 0.58644 0.98453 0.11792 0.0
H23 H 0.55539 0.99428 0.09266 0.0
H24 H 0.56391 0.00625 0.14729 0.0
O25 O 0.61827 0.06262 0.20436 0.0
O26 O 0.63567 0.09589 0.16436 0.0
H27 H 0.57382 0.0912 0.02328 0.0
H28 H 0.60637 0.08421 0.00075 0.0
C29 C 0.59497 0.08661 0.03186 0.0
H30 H 0.60356 0.10366 0.05056 0.0
H31 H 0.64888 0.13878 0.09885 0.0
O32 O 0.60899 0.99786 0.19712 0.0
C33 C 0.62449 0.08731 0.19944 0.0
Co34 Co 0.47443 0.66332 0.11557 0.0
Co35 Co 0.42482 0.65819 0.05483 0.0
C36 C 0.44582 0.70978 0.09767 0.0
O37 O 0.46957 0.70124 0.10305 0.0
O38 O 0.42844 0.69524 0.07831 0.0
C39 C 0.52771 0.66788 0.1573 0.0
O40 O 0.53439 0.68597 0.12779 0.0
C41 C 0.40795 0.66415 0.96412 0.0
C42 C 0.36585 0.6504 0.96575 0.0
C43 C 0.38603 0.65872 0.93735 0.0
N44 N 0.40117 0.65875 0.00596 0.0
N45 N 0.37584 0.65098 0.00694 0.0
C46 C 0.43485 0.67481 0.95089 0.0
H47 H 0.44343 0.68708 0.97798 0.0
H48 H 0.44878 0.65791 0.94474 0.0
H49 H 0.43326 0.68702 0.9204 0.0
C50 C 0.49698 0.62459 0.05312 0.0
N51 N 0.47841 0.64297 0.06414 0.0
N52 N 0.45677 0.63928 0.04021 0.0
C53 C 0.46038 0.61751 0.01456 0.0
C54 C 0.48606 0.60747 0.02181 0.0
C55 C 0.52383 0.62216 0.07486 0.0
H56 H 0.53334 0.64219 0.07666 0.0
H57 H 0.5373 0.60854 0.05627 0.0
H58 H 0.52125 0.6144 0.10887 0.0
O59 O 0.44233 0.65049 0.14889 0.0
O60 O 0.40803 0.64026 0.10518 0.0
H61 H 0.41832 0.60887 0.00586 0.0
H62 H 0.44039 0.58129 0.99312 0.0
C63 C 0.43793 0.60337 0.99124 0.0
H64 H 0.438 0.60923 0.95598 0.0
H65 H 0.36574 0.64508 0.03545 0.0
O66 O 0.50456 0.65729 0.15628 0.0
C67 C 0.41856 0.64152 0.14339 0.0
Co68 Co 0.86168 0.48335 0.14127 0.0
Co69 Co 0.84388 0.43275 0.0916 0.0
C70 C 0.80832 0.47598 0.12962 0.0
O71 O 0.8262 0.49313 0.12141 0.0
O72 O 0.81214 0.45186 0.11779 0.0
C73 C 0.86876 0.53808 0.16616 0.0
O74 O 0.85006 0.54243 0.1365 0.0
C75 C 0.8249 0.41457 0.00694 0.0
C76 C 0.82592 0.37052 0.01364 0.0
C77 C 0.8217 0.39091 0.98318 0.0
N78 N 0.83128 0.40828 0.0486 0.0
N79 N 0.83113 0.38195 0.05286 0.0
C80 C 0.82466 0.44283 0.99013 0.0
H81 H 0.8317 0.45699 0.01581 0.0
H82 H 0.83738 0.44475 0.96031 0.0
H83 H 0.80383 0.44844 0.98114 0.0
C84 C 0.90437 0.48436 0.0758 0.0
N85 N 0.88135 0.47453 0.09193 0.0
N86 N 0.87402 0.4532 0.06957 0.0
C87 C 0.89294 0.44826 0.03867 0.0
C88 C 0.91252 0.46818 0.04121 0.0
C89 C 0.91978 0.50665 0.09719 0.0
H90 H 0.9215 0.5027 0.13303 0.0
H91 H 0.90859 0.52571 0.0929 0.0
H92 H 0.94023 0.50894 0.08336 0.0
O93 O 0.86056 0.45183 0.18213 0.0
O94 O 0.85641 0.41379 0.14409 0.0
H95 H 0.88432 0.40662 0.02694 0.0
H96 H 0.91377 0.41897 -0.00153 0.0
C97 C 0.89322 0.42403 0.00951 0.0
H98 H 0.88111 0.42815 0.97966 0.0
H99 H 0.83616 0.37181 0.08179 0.0
O100 O 0.877 0.5143 0.1728 0.0
C101 C 0.85968 0.42622 0.18042 0.0
Co102 Co 0.03282 0.83312 0.11314 0.0
Co103 Co 0.08227 0.84072 0.05284 0.0
C104 C 0.06489 0.78861 0.0962 0.0
O105 O 0.04057 0.79579 0.09912 0.0
O106 O 0.08183 0.8038 0.07729 0.0
C107 C 0.0003 0.83437 0.19072 0.0
O108 O 0.02313 0.83005 0.21111 0.0
C109 C 0.10128 0.83236 0.96394 0.0
C110 C 0.13974 0.85429 0.96297 0.0
C111 C 0.12192 0.8404 0.93622 0.0
N112 N 0.10638 0.84165 0.00458 0.0
N113 N 0.12966 0.85429 0.00411 0.0
C114 C 0.0768 0.81641 0.95252 0.0
H115 H 0.05984 0.83019 0.94569 0.0
H116 H 0.08041 0.80377 0.92301 0.0
H117 H 0.07094 0.80363 0.9809 0.0
C118 C 0.00965 0.87255 0.05389 0.0
N119 N 0.02816 0.85361 0.06239 0.0
N120 N 0.04904 0.85704 0.03663 0.0
C121 C 0.04459 0.87866 0.01094 0.0
C122 C 0.01955 0.8894 0.02132 0.0
C123 C 0.98619 0.87793 0.08353 0.0
H124 H 0.99364 0.88368 0.11667 0.0
H125 H 0.9741 0.85937 0.08693 0.0
H126 H 0.9731 0.89415 0.07104 0.0
O127 O 0.06311 0.84859 0.14821 0.0
O128 O 0.09674 0.86044 0.10395 0.0
H129 H 0.08408 0.89494 0.00229 0.0
H130 H 0.05875 0.91039 0.96754 0.0
C131 C 0.06569 0.89135 0.98253 0.0
H132 H 0.07092 0.87756 0.95533 0.0
H133 H 0.13806 0.86389 0.03137 0.0
O134 O -5e-05 0.83493 0.14894 0.0
C135 C 0.08619 0.8592 0.14224 0.0
Co136 Co 0.63611 0.4752 0.34118 0.0
Co137 Co 0.64776 0.42435 0.39845 0.0
C138 C 0.69013 0.4656 0.37564 0.0
O139 O 0.67294 0.48054 0.35714 0.0
O140 O 0.68341 0.44312 0.39238 0.0
C141 C 0.63422 0.53032 0.31447 0.0
O142 O 0.6528 0.5334 0.34475 0.0
C143 C 0.65331 0.40304 0.4862 0.0
C144 C 0.64599 0.35972 0.47729 0.0
C145 C 0.64955 0.37927 0.50928 0.0
N146 N 0.65121 0.39785 0.443 0.0
N147 N 0.64744 0.37184 0.43769 0.0
C148 C 0.6585 0.4305 0.50423 0.0
H149 H 0.63933 0.44168 0.50663 0.0
H150 H 0.66786 0.42938 0.53737 0.0
H151 H 0.67177 0.44182 0.48151 0.0
C152 C 0.59179 0.48128 0.40247 0.0
N153 N 0.61492 0.46948 0.39088 0.0
N154 N 0.61779 0.44689 0.41264 0.0
C155 C 0.5955 0.44282 0.43716 0.0
C156 C 0.57833 0.46457 0.43154 0.0
C157 C 0.5824 0.50759 0.38436 0.0
H158 H 0.59931 0.52201 0.38416 0.0
H159 H 0.56588 0.51616 0.4044 0.0
H160 H 0.57542 0.5048 0.34994 0.0
O161 O 0.63393 0.44372 0.30109 0.0
O162 O 0.64042 0.40703 0.34156 0.0
H163 H 0.56647 0.41349 0.45911 0.0
H164 H 0.59574 0.41684 0.49314 0.0
C165 C 0.5885 0.41669 0.45862 0.0
H166 H 0.59808 0.39982 0.44086 0.0
H167 H 0.64436 0.3626 0.4072 0.0
O168 O 0.6242 0.5072 0.30798 0.0
C169 C 0.63573 0.41827 0.30466 0.0
Co170 Co 0.03356 0.65981 0.36563 0.0
Co171 Co 0.08188 0.65768 0.42978 0.0
C172 C 0.06253 0.70809 0.38478 0.0
O173 O 0.03999 0.698 0.37471 0.0
O174 O 0.07971 0.69458 0.40631 0.0
C175 C 0.97915 0.66608 0.33312 0.0
O176 O 0.97414 0.67954 0.3694 0.0
C177 C 0.10334 0.66859 0.51684 0.0
C178 C 0.14039 0.64434 0.51711 0.0
C179 C 0.12424 0.66017 0.54371 0.0
N180 N 0.10664 0.65757 0.47691 0.0
N181 N 0.12918 0.64367 0.47684 0.0
C182 C 0.08029 0.68648 0.52855 0.0
H183 H 0.07577 0.70002 0.50049 0.0
H184 H 0.06209 0.67424 0.53463 0.0
H185 H 0.08485 0.69848 0.55843 0.0
C186 C 0.01118 0.62123 0.42817 0.0
N187 N 0.0289 0.64068 0.4181 0.0
N188 N 0.04907 0.64001 0.44604 0.0
C189 C 0.04464 0.62009 0.4753 0.0
C190 C 0.02047 0.60754 0.46492 0.0
C191 C 0.98941 0.6121 0.39746 0.0
H192 H 0.997 0.61188 0.36316 0.0
H193 H 0.97231 0.62626 0.39948 0.0
H194 H 0.98202 0.59171 0.40538 0.0
O195 O 0.06406 0.644 0.33301 0.0
O196 O 0.098 0.63846 0.37995 0.0
H197 H 0.08377 0.60539 0.49191 0.0
H198 H 0.05742 0.59382 0.52858 0.0
C199 C 0.06481 0.61095 0.50874 0.0
H200 H 0.06918 0.6275 0.53179 0.0
H201 H 0.1362 0.63268 0.44997 0.0
O202 O 0.00243 0.65659 0.32653 0.0
C203 C 0.08773 0.63595 0.34178 0.0
Co204 Co 0.8602 0.00992 0.36217 0.0
Co205 Co 0.84712 0.06052 0.41634 0.0
C206 C 0.80917 0.0158 0.38982 0.0
O207 O 0.82803 -0.00098 0.39268 0.0
O208 O 0.81355 0.03991 0.40138 0.0
C209 C 0.86811 0.95558 0.33234 0.0
O210 O 0.84949 0.94942 0.36124 0.0
C211 C 0.84125 0.07698 0.50656 0.0
C212 C 0.83956 0.12113 0.50212 0.0
C213 C 0.84117 0.10013 0.53212 0.0
N214 N 0.84023 0.08411 0.46397 0.0
N215 N 0.83861 0.11048 0.4614 0.0
C216 C 0.8454 0.04861 0.52132 0.0
H217 H 0.84856 0.03511 0.49282 0.0
H218 H 0.86278 0.04731 0.54411 0.0
H219 H 0.82722 0.04149 0.53882 0.0
C220 C 0.90975 0.01108 0.41251 0.0
N221 N 0.88474 0.01967 0.40467 0.0
N222 N 0.88021 0.04189 0.42653 0.0
C223 C 0.90305 0.04907 0.44743 0.0
C224 C 0.92258 0.02978 0.43896 0.0
C225 C 0.92103 0.98552 0.39436 0.0
H226 H 0.90579 0.96941 0.3969 0.0
H227 H 0.93923 0.97912 0.41259 0.0
H228 H 0.92609 0.98834 0.35906 0.0
O229 O 0.85382 0.04167 0.32221 0.0
O230 O 0.85204 0.07964 0.36116 0.0
H231 H 0.89387 0.09099 0.45429 0.0
H232 H 0.92841 0.08231 0.46606 0.0
C233 C 0.90723 0.07569 0.46914 0.0
H234 H 0.90237 0.0739 0.50469 0.0
H235 H 0.83854 0.12123 0.43187 0.0
O236 O 0.87477 0.97998 0.3271 0.0
C237 C 0.85214 0.06728 0.32435 0.0
Co238 Co 0.47186 0.8302 0.37222 0.0
Co239 Co 0.42242 0.83814 0.4318 0.0
C240 C 0.44199 0.78522 0.39153 0.0
O241 O 0.46613 0.79285 0.38754 0.0
O242 O 0.42477 0.80067 0.40925 0.0
C243 C 0.52517 0.82437 0.33021 0.0
O244 O 0.53235 0.80703 0.36059 0.0
C245 C 0.40515 0.83417 0.52253 0.0
C246 C 0.3631 0.84799 0.51959 0.0
C247 C 0.38308 0.84005 0.54864 0.0
N248 N 0.39864 0.83892 0.48037 0.0
N249 N 0.37335 0.84675 0.47862 0.0
C250 C 0.43191 0.82359 0.53668 0.0
H251 H 0.44591 0.84052 0.54228 0.0
H252 H 0.43007 0.81192 0.56769 0.0
H253 H 0.44056 0.81082 0.5103 0.0
C254 C 0.49551 0.86985 0.43172 0.0
N255 N 0.47648 0.85162 0.42218 0.0
N256 N 0.45494 0.85653 0.44572 0.0
C257 C 0.45913 0.87896 0.46961 0.0
C258 C 0.48504 0.88817 0.46146 0.0
C259 C 0.52248 0.8709 0.4101 0.0
H260 H 0.52025 0.87788 0.37557 0.0
H261 H 0.53138 0.85057 0.40989 0.0
H262 H 0.53633 0.88457 0.42786 0.0
O263 O 0.44035 0.84368 0.33812 0.0
O264 O 0.40632 0.85599 0.38092 0.0
H265 H 0.44019 0.91614 0.48876 0.0
H266 H 0.43728 0.88923 0.5278 0.0
C267 C 0.43716 0.89419 0.49217 0.0
H268 H 0.41734 0.88874 0.47823 0.0
H269 H 0.36342 0.85215 0.44967 0.0
O270 O 0.5019 0.83467 0.33113 0.0
C271 C 0.417 0.8538 0.34296 0.0
Co272 Co 0.33384 0.9782 0.86968 0.0
Co273 Co 0.34192 0.93026 0.93249 0.0
C274 C 0.28912 0.94969 0.89614 0.0
O275 O 0.29783 0.97349 0.89347 0.0
O276 O 0.30367 0.93182 0.91403 0.0
C277 C 0.32922 0.03293 0.83664 0.0
O278 O 0.32043 0.0397 0.87589 0.0
C279 C 0.33525 0.90798 0.02052 0.0
C280 C 0.36006 0.87136 0.01711 0.0
C281 C 0.34461 0.88667 0.04555 0.0
N282 N 0.34521 0.90563 0.97962 0.0
N283 N 0.3596 0.88343 0.97749 0.0
C284 C 0.31711 0.93028 0.03475 0.0
H285 H 0.30407 0.93649 0.00691 0.0
H286 H 0.32926 0.94793 0.04449 0.0
H287 H 0.30461 0.92402 0.06324 0.0
C288 C 0.3795 -0.00024 0.92021 0.0
N289 N 0.35892 0.98252 0.91503 0.0
N290 N 0.36075 0.96317 0.94433 0.0
C291 C 0.38234 0.96791 0.97006 0.0
C292 C 0.39496 0.99126 0.95555 0.0
C293 C 0.38738 0.02035 0.88658 0.0
H294 H 0.38242 0.01318 0.85303 0.0
H295 H 0.37629 0.03919 0.89317 0.0
H296 H 0.40918 0.02476 0.88761 0.0
O297 O 0.34438 0.94669 0.83448 0.0
O298 O 0.35806 0.91417 0.87927 0.0
H299 H 0.39919 0.93023 0.98942 0.0
H300 H 0.40846 0.95797 0.02499 0.0
C301 C 0.39211 0.94907 0.005 0.0
H302 H 0.37548 0.94403 0.02754 0.0
H303 H 0.3698 0.877 0.9494 0.0
O304 O 0.33447 0.00852 0.82858 0.0
C305 C 0.35461 0.92357 0.8406 0.0
Co306 Co 0.51243 0.35922 0.84638 0.0
Co307 Co 0.56341 0.34746 0.90034 0.0
C308 C 0.52158 0.30745 0.87195 0.0
O309 O 0.50386 0.32544 0.87428 0.0
O310 O 0.54553 0.313 0.88313 0.0
C311 C 0.45708 0.36403 0.82225 0.0
O312 O 0.453 0.34869 0.85679 0.0
C313 C 0.58401 0.33358 0.98629 0.0
C314 C 0.62658 0.34547 0.98156 0.0
C315 C 0.60721 0.33681 0.01122 0.0
N316 N 0.58931 0.3409 0.94469 0.0
N317 N 0.61495 0.34731 0.94167 0.0
C318 C 0.55691 0.32426 0.0011 0.0
H319 H 0.54744 0.31203 0.97481 0.0
H320 H 0.54375 0.34185 0.00682 0.0
H321 H 0.55838 0.31227 0.03182 0.0
C322 C 0.51016 0.40693 0.9021 0.0
N323 N 0.52059 0.38307 0.89108 0.0
N324 N 0.54144 0.37771 0.91609 0.0
C325 C 0.54527 0.39858 0.94379 0.0
C326 C 0.52538 0.41761 0.93604 0.0
C327 C 0.48814 0.4204 0.87679 0.0
H328 H 0.49194 0.41835 0.84096 0.0
H329 H 0.46882 0.41033 0.88433 0.0
H330 H 0.48644 0.44201 0.88487 0.0
O331 O 0.54367 0.35581 0.8053 0.0
O332 O 0.58136 0.35645 0.84488 0.0
H333 H 0.58744 0.39716 0.95732 0.0
H334 H 0.56914 0.42077 0.99136 0.0
C335 C 0.56837 0.40089 0.97512 0.0
H336 H 0.56631 0.3855 0.00117 0.0
H337 H 0.62407 0.35448 0.91306 0.0
O338 O 0.48087 0.37098 0.81236 0.0
C339 C 0.56927 0.35628 0.80785 0.0
Co340 Co 0.16056 0.52018 0.86446 0.0
Co341 Co 0.15547 0.5696 0.92546 0.0
C342 C 0.20746 0.54684 0.88661 0.0
O343 O 0.19821 0.52344 0.88052 0.0
O344 O 0.19303 0.56462 0.90507 0.0
C345 C 0.16518 0.4666 0.82582 0.0
O346 O 0.1824 0.46067 0.85712 0.0
C347 C 0.1593 0.58925 0.01606 0.0
C348 C 0.15007 0.63225 0.00743 0.0
C349 C 0.15566 0.61306 0.03927 0.0
N350 N 0.15572 0.59429 0.97298 0.0
N351 N 0.15067 0.62009 0.96794 0.0
C352 C 0.1644 0.56176 0.0341 0.0
H353 H 0.16231 0.54632 0.00818 0.0
H354 H 0.15041 0.55739 0.06163 0.0
H355 H 0.18527 0.56066 0.04668 0.0
C356 C 0.11869 0.49904 0.923 0.0
N357 N 0.13813 0.51694 0.9139 0.0
N358 N 0.13445 0.53857 0.93777 0.0
C359 C 0.11168 0.53569 0.96132 0.0
C360 C 0.10086 0.51047 0.9527 0.0
C361 C 0.1165 0.47202 0.90183 0.0
H362 H 0.11005 0.47434 0.86704 0.0
H363 H 0.13637 0.46211 0.90243 0.0
H364 H 0.102 0.45897 0.91943 0.0
O365 O 0.15007 0.55267 0.82975 0.0
O366 O 0.13997 0.58682 0.87382 0.0
H367 H 0.10503 0.57793 0.97138 0.0
H368 H 0.07591 0.55712 0.98069 0.0
C369 C 0.09802 0.55841 0.98451 0.0
H370 H 0.10281 0.55742 0.02017 0.0
H371 H 0.14684 0.62923 0.93765 0.0
O372 O 0.155 0.4899 0.82413 0.0
C373 C 0.14186 0.57668 0.83546 0.0
Co374 Co 0.97631 0.13429 0.87223 0.0
Co375 Co 0.92125 0.13896 0.91897 0.0
C376 C 0.95161 0.18522 0.87626 0.0
O377 O 0.97383 0.17293 0.87623 0.0
O378 O 0.93069 0.17428 0.89216 0.0
C379 C 0.02001 0.13521 0.81076 0.0
O380 O 0.00451 0.1515 0.78815 0.0
C381 C 0.89633 0.14934 0.00265 0.0
C382 C 0.85466 0.13566 0.99254 0.0
C383 C 0.87249 0.14418 0.02478 0.0
N384 N 0.89294 0.14334 0.96 0.0
N385 N 0.86781 0.1358 0.95378 0.0
C386 C 0.92231 0.15939 0.02118 0.0
H387 H 0.93567 0.1422 0.02857 0.0
H388 H 0.91888 0.171 0.05187 0.0
H389 H 0.93266 0.17211 0.99642 0.0
C390 C 0.98743 0.09781 0.94342 0.0
N391 N 0.97285 0.11819 0.92731 0.0
N392 N 0.94876 0.11766 0.94467 0.0
C393 C 0.94666 0.09569 0.97044 0.0
C394 C 0.97112 0.08219 0.9702 0.0
C395 C 0.01534 0.09138 0.92849 0.0
H396 H 0.01466 0.08208 0.89531 0.0
H397 H 0.02728 0.11011 0.92617 0.0
H398 H 0.02531 0.07733 0.95167 0.0
O399 O 0.94742 0.12081 0.83104 0.0
O400 O 0.90859 0.11988 0.86764 0.0
H401 H 0.92077 0.06244 0.98828 0.0
H402 H 0.91589 0.09278 0.01916 0.0
C403 C 0.92034 0.08463 0.98597 0.0
H404 H 0.904 0.0907 0.96328 0.0
H405 H 0.86016 0.12911 0.92373 0.0
O406 O 0.01164 0.12568 0.84703 0.0
C407 C 0.92224 0.11577 0.83284 0.0
Co408 Co 0.33419 0.52503 0.6129 0.0
Co409 Co 0.33978 0.57451 0.55277 0.0
C410 C 0.28823 0.55382 0.59424 0.0
O411 O 0.29681 0.52995 0.59614 0.0
O412 O 0.30269 0.57194 0.57676 0.0
C413 C 0.32813 0.47095 0.64997 0.0
O414 O 0.31369 0.46438 0.61539 0.0
C415 C 0.33076 0.5949 0.46444 0.0
C416 C 0.35233 0.63356 0.46573 0.0
C417 C 0.33863 0.6162 0.43798 0.0
N418 N 0.34003 0.59919 0.50535 0.0
N419 N 0.35238 0.62261 0.50624 0.0
C420 C 0.31494 0.57061 0.4515 0.0
H421 H 0.32874 0.55365 0.44489 0.0
H422 H 0.30284 0.57459 0.42149 0.0
H423 H 0.30164 0.56452 0.47907 0.0
C424 C 0.3757 0.50353 0.55432 0.0
N425 N 0.35615 0.52129 0.56348 0.0
N426 N 0.35815 0.54208 0.53704 0.0
C427 C 0.37928 0.53823 0.50998 0.0
C428 C 0.3911 0.51366 0.52004 0.0
C429 C 0.38272 0.48044 0.5838 0.0
H430 H 0.38372 0.48741 0.61844 0.0
H431 H 0.36682 0.46497 0.58132 0.0
H432 H 0.40224 0.47119 0.57525 0.0
O433 O 0.34671 0.55633 0.6475 0.0
O434 O 0.3584 0.59018 0.60389 0.0
H435 H 0.39398 0.57797 0.49794 0.0
H436 H 0.40848 0.55266 0.46216 0.0
C437 C 0.39001 0.55924 0.47933 0.0
H438 H 0.37489 0.56372 0.45377 0.0
H439 H 0.36189 0.63051 0.53398 0.0
O440 O 0.33755 0.4945 0.6533 0.0
C441 C 0.35653 0.57972 0.64212 0.0
Co442 Co 0.96065 0.37272 0.66366 0.0
Co443 Co 0.91187 0.36323 0.60059 0.0
C444 C 0.94383 0.31808 0.63976 0.0
O445 O 0.96004 0.33413 0.6581 0.0
O446 O 0.9243 0.32655 0.61663 0.0
C447 C 0.01456 0.36814 0.69312 0.0
O448 O 0.01469 0.34788 0.66545 0.0
C449 C 0.89438 0.35217 0.51225 0.0
C450 C 0.85206 0.3652 0.51213 0.0
C451 C 0.87244 0.35607 0.4848 0.0
N452 N 0.88748 0.35937 0.55324 0.0
N453 N 0.86199 0.36659 0.55333 0.0
C454 C 0.92171 0.34195 0.50046 0.0
H455 H 0.93543 0.35914 0.49491 0.0
H456 H 0.92095 0.32945 0.47024 0.0
H457 H 0.93004 0.33003 0.52812 0.0
C458 C 0.97596 0.41055 0.59525 0.0
N459 N 0.96087 0.3898 0.60876 0.0
N460 N 0.93925 0.38813 0.58413 0.0
C461 C 0.93923 0.40885 0.55541 0.0
C462 C 0.96252 0.42379 0.56166 0.0
C463 C 0.00188 0.41861 0.61646 0.0
H464 H 0.99782 0.42708 0.6496 0.0
H465 H 0.01481 0.40071 0.62038 0.0
H466 H 0.01286 0.43359 0.59632 0.0
O467 O 0.92809 0.38363 0.69754 0.0
O468 O 0.89327 0.37692 0.65273 0.0
H469 H 0.91514 0.43905 0.52271 0.0
H470 H 0.91553 0.40664 0.49684 0.0
C471 C 0.91521 0.41715 0.52902 0.0
H472 H 0.89652 0.41167 0.54663 0.0
H473 H 0.8518 0.37369 0.58099 0.0
O474 O 0.99322 0.38184 0.69774 0.0
C475 C 0.90288 0.3841 0.68978 0.0
Co476 Co 0.16251 0.97527 0.61509 0.0
Co477 Co 0.16288 0.92591 0.55308 0.0
C478 C 0.21166 0.9499 0.60121 0.0
O479 O 0.20116 0.97277 0.60757 0.0
O480 O 0.19892 0.93174 0.58026 0.0
C481 C 0.16212 0.02623 0.66774 0.0
O482 O 0.18659 0.03258 0.6555 0.0
C483 C 0.17405 0.9082 0.46359 0.0
C484 C 0.1561 0.86774 0.46298 0.0
C485 C 0.16772 0.88693 0.4359 0.0
N486 N 0.1658 0.9021 0.50451 0.0
N487 N 0.15567 0.87763 0.50419 0.0
C488 C 0.18761 0.93403 0.45185 0.0
H489 H 0.1724 0.94986 0.44613 0.0
H490 H 0.1999 0.9317 0.4216 0.0
H491 H 0.20044 0.94073 0.47966 0.0
C492 C 0.12622 0.9965 0.54844 0.0
N493 N 0.14462 0.97842 0.56134 0.0
N494 N 0.14336 0.95716 0.53594 0.0
C495 C 0.12331 0.96067 0.50659 0.0
C496 C 0.11182 0.98581 0.5135 0.0
C497 C 0.1191 0.02083 0.57496 0.0
H498 H 0.10899 0.01442 0.60577 0.0
H499 H 0.13766 0.03186 0.5837 0.0
H500 H 0.1055 0.03461 0.55716 0.0
O501 O 0.15036 0.94263 0.64656 0.0
O502 O 0.14385 0.90798 0.602 0.0
H503 H 0.11173 0.91977 0.49517 0.0
H504 H 0.09342 0.94391 0.46194 0.0
C505 C 0.1131 0.93895 0.47678 0.0
H506 H 0.12731 0.93611 0.44926 0.0
H507 H 0.14711 0.8683 0.53158 0.0
O508 O 0.15151 0.0046 0.65424 0.0
C509 C 0.14301 0.91845 0.64028 0.0
Co510 Co 0.53737 0.11418 0.66675 0.0
Co511 Co 0.58431 0.13565 0.60789 0.0
C512 C 0.54304 0.17223 0.64353 0.0
O513 O 0.53218 0.15236 0.6623 0.0
O514 O 0.56384 0.16931 0.61978 0.0
C515 C 0.48216 0.1117 0.68206 0.0
O516 O 0.48267 0.12897 0.64937 0.0
C517 C 0.60593 0.15378 0.52482 0.0
C518 C 0.64922 0.14532 0.5313 0.0
C519 C 0.62995 0.1541 0.50148 0.0
N520 N 0.61083 0.14479 0.56569 0.0
N521 N 0.63683 0.14044 0.56988 0.0
C522 C 0.57817 0.15913 0.50794 0.0
H523 H 0.56287 0.15176 0.53158 0.0
H524 H 0.57502 0.14945 0.47545 0.0
H525 H 0.57544 0.18106 0.50382 0.0
C526 C 0.53063 0.07694 0.59402 0.0
N527 N 0.5424 0.09864 0.61155 0.0
N528 N 0.56266 0.10626 0.5867 0.0
C529 C 0.56472 0.08887 0.55258 0.0
C530 C 0.54409 0.07018 0.5558 0.0
C531 C 0.50944 0.06079 0.61697 0.0
H532 H 0.51453 0.05877 0.65237 0.0
H533 H 0.48994 0.07137 0.61426 0.0
H534 H 0.50728 0.04044 0.60268 0.0
O535 O 0.56904 0.10807 0.70426 0.0
O536 O 0.60224 0.12522 0.66391 0.0
H537 H 0.60618 0.09464 0.53551 0.0
H538 H 0.58948 0.06876 0.5041 0.0
C539 C 0.58707 0.08873 0.51959 0.0
H540 H 0.58244 0.10317 0.49297 0.0
H541 H 0.64587 0.13279 0.59824 0.0
O542 O 0.50408 0.10132 0.69518 0.0
C543 C 0.5937 0.11425 0.69923 0.0
C544 C 0.61927 0.92534 0.19418 0.0
C545 C 0.6096 0.95032 0.20837 0.0
C546 C 0.60927 0.90139 0.21203 0.0
C547 C 0.58923 0.90251 0.24493 0.0
C548 C 0.57998 0.92768 0.26034 0.0
C549 C 0.59022 0.95129 0.24175 0.0
C550 C 0.61955 0.87492 0.19479 0.0
C551 C 0.55873 0.92969 0.29572 0.0
C552 C 0.53707 0.84883 0.2622 0.0
C553 C 0.54522 0.83794 0.30256 0.0
C554 C 0.55245 0.86849 0.24112 0.0
C555 C 0.57638 0.87759 0.26128 0.0
C556 C 0.58591 0.86493 0.30004 0.0
C557 C 0.5702 0.84503 0.32021 0.0
C558 C 0.5418 0.88117 0.19944 0.0
C559 C 0.61136 0.87407 0.32242 0.0
H560 H 0.63434 0.92442 0.16848 0.0
H561 H 0.58281 0.97052 0.25311 0.0
H562 H 0.626 0.86191 0.22248 0.0
H563 H 0.60317 0.86427 0.17726 0.0
H564 H 0.63667 0.87749 0.17174 0.0
H565 H 0.55479 0.95076 0.30564 0.0
H566 H 0.53969 0.92078 0.28366 0.0
H567 H 0.56493 0.91818 0.32531 0.0
H568 H 0.51774 0.84324 0.24857 0.0
H569 H 0.57635 0.83681 0.35171 0.0
H570 H 0.55794 0.88306 0.17447 0.0
H571 H 0.53443 0.90168 0.20685 0.0
H572 H 0.525 0.86946 0.18498 0.0
H573 H 0.62761 0.87728 0.29802 0.0
H574 H 0.61834 0.85939 0.34748 0.0
H575 H 0.60765 0.8935 0.33913 0.0
C576 C 0.62886 0.57992 0.3052 0.0
C577 C 0.62335 0.55378 0.29067 0.0
C578 C 0.61673 0.60218 0.28502 0.0
C579 C 0.59892 0.59812 0.24934 0.0
C580 C 0.59428 0.57186 0.23328 0.0
C581 C 0.60645 0.55002 0.25429 0.0
C582 C 0.62203 0.62986 0.30313 0.0
C583 C 0.57561 0.56671 0.19495 0.0
C584 C 0.53979 0.64284 0.22495 0.0
C585 C 0.54804 0.6554 0.18595 0.0
C586 C 0.55704 0.62568 0.24793 0.0
C587 C 0.58305 0.62074 0.23111 0.0
C588 C 0.5922 0.63496 0.19359 0.0
C589 C 0.57455 0.65232 0.17147 0.0
C590 C 0.54663 0.61124 0.28821 0.0
C591 C 0.6198 0.63021 0.17473 0.0
H592 H 0.64195 0.58297 0.33329 0.0
H593 H 0.60233 0.52989 0.2426 0.0
H594 H 0.62703 0.64399 0.2761 0.0
H595 H 0.60365 0.63751 0.31945 0.0
H596 H 0.63866 0.62996 0.32752 0.0
H597 H 0.57589 0.54541 0.18425 0.0
H598 H 0.55477 0.57202 0.20441 0.0
H599 H 0.58119 0.57951 0.16648 0.0
H600 H 0.51933 0.64542 0.23636 0.0
H601 H 0.5809 0.66191 0.14115 0.0
H602 H 0.56154 0.61212 0.31532 0.0
H603 H 0.54331 0.58978 0.2802 0.0
H604 H 0.52739 0.61983 0.30015 0.0
H605 H 0.63513 0.62979 0.20122 0.0
H606 H 0.62543 0.64581 0.15028 0.0
H607 H 0.62022 0.61039 0.15811 0.0
C608 C 0.87279 0.58713 0.18239 0.0
C609 C 0.88056 0.5606 0.19106 0.0
C610 C 0.88485 0.60866 0.20465 0.0
C611 C 0.90512 0.60342 0.23609 0.0
C612 C 0.91239 0.57664 0.24598 0.0
C613 C 0.90003 0.55558 0.22332 0.0
C614 C 0.87656 0.63697 0.1935 0.0
C615 C 0.93391 0.57022 0.27949 0.0
C616 C 0.96316 0.64898 0.26123 0.0
C617 C 0.95726 0.65665 0.30454 0.0
C618 C 0.94504 0.63362 0.23676 0.0
C619 C 0.92056 0.62562 0.25635 0.0
C620 C 0.91337 0.63552 0.29845 0.0
C621 C 0.93188 0.65111 0.32214 0.0
C622 C 0.95331 0.62378 0.1917 0.0
C623 C 0.88734 0.62757 0.32023 0.0
H624 H 0.85761 0.59115 0.15767 0.0
H625 H 0.90599 0.53513 0.23048 0.0
H626 H 0.87241 0.64851 0.22399 0.0
H627 H 0.8932 0.64726 0.17608 0.0
H628 H 0.85846 0.63754 0.17213 0.0
H629 H 0.93607 0.54831 0.28513 0.0
H630 H 0.95349 0.57822 0.26806 0.0
H631 H 0.92926 0.57998 0.31142 0.0
H632 H 0.9827 0.6536 0.24743 0.0
H633 H 0.92729 0.65703 0.35567 0.0
H634 H 0.93651 0.62567 0.16795 0.0
H635 H 0.95871 0.60222 0.19373 0.0
H636 H 0.97089 0.63496 0.17866 0.0
H637 H 0.88242 0.64088 0.34843 0.0
H638 H 0.88906 0.60673 0.33273 0.0
H639 H 0.87052 0.62804 0.29631 0.0
C640 C 0.97911 0.85183 0.25951 0.0
C641 C 0.97665 0.84418 0.21526 0.0
C642 C 0.95877 0.86657 0.28031 0.0
C643 C 0.93543 0.87357 0.25628 0.0
C644 C 0.93183 0.86379 0.21295 0.0
C645 C 0.95252 0.84921 0.19292 0.0
C646 C 0.96328 0.87654 0.32669 0.0
C647 C 0.9071 0.87056 0.18642 0.0
C648 C 0.87821 0.90714 0.31794 0.0
C649 C 0.88379 0.93432 0.31026 0.0
C650 C 0.89452 0.88696 0.29993 0.0
C651 C 0.91692 0.89424 0.27391 0.0
C652 C 0.92224 0.92162 0.2652 0.0
C653 C 0.90558 0.94129 0.28336 0.0
C654 C 0.88816 0.85794 0.30948 0.0
C655 C 0.94594 0.93021 0.2375 0.0
H656 H 0.99761 0.84783 0.27713 0.0
H657 H 0.9503 0.84298 0.1589 0.0
H658 H 0.96737 0.89841 0.3259 0.0
H659 H 0.9451 0.87341 0.34711 0.0
H660 H 0.98052 0.86639 0.34282 0.0
H661 H 0.90539 0.85799 0.15635 0.0
H662 H 0.88871 0.86794 0.20654 0.0
H663 H 0.908 0.8919 0.17616 0.0
H664 H 0.86138 0.9016 0.33864 0.0
H665 H 0.91005 0.96223 0.27721 0.0
H666 H 0.90461 0.84891 0.32913 0.0
H667 H 0.88674 0.84644 0.27829 0.0
H668 H 0.86906 0.85557 0.32796 0.0
H669 H 0.96486 0.92334 0.25311 0.0
H670 H 0.94696 0.95232 0.23326 0.0
H671 H 0.9448 0.92081 0.20443 0.0
C672 C 0.35241 0.07661 0.82485 0.0
C673 C 0.34153 0.05301 0.80727 0.0
C674 C 0.37228 0.09081 0.80183 0.0
C675 C 0.38111 0.08114 0.76044 0.0
C676 C 0.36767 0.05938 0.74029 0.0
C677 C 0.34792 0.04561 0.76397 0.0
C678 C 0.38579 0.11428 0.82402 0.0
C679 C 0.37624 0.04861 0.69599 0.0
C680 C 0.4327 0.11795 0.69116 0.0
C681 C 0.4564 0.10453 0.70302 0.0
C682 C 0.40803 0.11115 0.71043 0.0
C683 C 0.40709 0.09033 0.74199 0.0
C684 C 0.43101 0.07701 0.75463 0.0
C685 C 0.45538 0.08432 0.73502 0.0
C686 C 0.38297 0.12591 0.69656 0.0
C687 C 0.4308 0.05467 0.78832 0.0
H688 H 0.34744 0.08251 0.85824 0.0
H689 H 0.33918 0.02757 0.75005 0.0
H690 H 0.40502 0.10752 0.83873 0.0
H691 H 0.39046 0.13035 0.79993 0.0
H692 H 0.37315 0.12278 0.85073 0.0
H693 H 0.36111 0.03465 0.68192 0.0
H694 H 0.37968 0.06516 0.67225 0.0
H695 H 0.39545 0.03758 0.69974 0.0
H696 H 0.43337 0.13376 0.66668 0.0
H697 H 0.47361 0.07394 0.74444 0.0
H698 H 0.37222 0.13366 0.72592 0.0
H699 H 0.36914 0.11194 0.67944 0.0
H700 H 0.38742 0.14296 0.67415 0.0
H701 H 0.42203 0.06192 0.81972 0.0
H702 H 0.45122 0.04676 0.79513 0.0
H703 H 0.41805 0.03791 0.77647 0.0
C704 C 0.34065 0.42356 0.66755 0.0
C705 C 0.33831 0.4504 0.68065 0.0
C706 C 0.35613 0.40546 0.69231 0.0
C707 C 0.36939 0.41458 0.73076 0.0
C708 C 0.3649 0.44096 0.7462 0.0
C709 C 0.34937 0.45853 0.72095 0.0
C710 C 0.36011 0.37733 0.67526 0.0
C711 C 0.37849 0.45145 0.78724 0.0
C712 C 0.4077 0.36999 0.81013 0.0
C713 C 0.43422 0.37454 0.79648 0.0
C714 C 0.38606 0.38178 0.78769 0.0
C715 C 0.39118 0.39847 0.75094 0.0
C716 C 0.41782 0.40208 0.73585 0.0
C717 C 0.43899 0.39008 0.75881 0.0
C718 C 0.3579 0.37734 0.80447 0.0
C719 C 0.42412 0.41968 0.69663 0.0
H720 H 0.33203 0.41716 0.63648 0.0
H721 H 0.34719 0.47918 0.73155 0.0
H722 H 0.38012 0.37582 0.65944 0.0
H723 H 0.35955 0.36258 0.70263 0.0
H724 H 0.34464 0.3718 0.65052 0.0
H725 H 0.37027 0.47115 0.7977 0.0
H726 H 0.37625 0.43704 0.81483 0.0
H727 H 0.40028 0.45387 0.78084 0.0
H728 H 0.40385 0.35785 0.83907 0.0
H729 H 0.4594 0.39345 0.74776 0.0
H730 H 0.34408 0.37269 0.77684 0.0
H731 H 0.35052 0.39595 0.82038 0.0
H732 H 0.35692 0.3608 0.82895 0.0
H733 H 0.41193 0.41353 0.66777 0.0
H734 H 0.44566 0.41888 0.68732 0.0
H735 H 0.41887 0.44079 0.70432 0.0
C736 C 0.03905 0.39672 0.74725 0.0
C737 C 0.0397 0.37691 0.71455 0.0
C738 C 0.06281 0.40712 0.76498 0.0
C739 C 0.08785 0.39766 0.74927 0.0
C740 C 0.08867 0.37685 0.71766 0.0
C741 C 0.06452 0.36663 0.70074 0.0
C742 C 0.0611 0.42909 0.79916 0.0
C743 C 0.11498 0.36632 0.70014 0.0
C744 C 0.14001 0.45187 0.75987 0.0
C745 C 0.15171 0.44538 0.80043 0.0
C746 C 0.12073 0.43512 0.74075 0.0
C747 C 0.1128 0.41152 0.76314 0.0
C748 C 0.12634 0.40364 0.80207 0.0
C749 C 0.14587 0.42068 0.82022 0.0
C750 C 0.10712 0.44402 0.69874 0.0
C751 C 0.11847 0.3786 0.82681 0.0
H752 H 0.01992 0.40454 0.75838 0.0
H753 H 0.06517 0.35126 0.67552 0.0
H754 H 0.07368 0.42406 0.82817 0.0
H755 H 0.06892 0.4481 0.78514 0.0
H756 H 0.04019 0.43254 0.81052 0.0
H757 H 0.11227 0.34794 0.67997 0.0
H758 H 0.12461 0.38189 0.67935 0.0
H759 H 0.12896 0.36181 0.7276 0.0
H760 H 0.1447 0.47094 0.74448 0.0
H761 H 0.15477 0.41573 0.8518 0.0
H762 H 0.08649 0.451 0.70636 0.0
H763 H 0.10539 0.42706 0.67528 0.0
H764 H 0.1181 0.46066 0.68239 0.0
H765 H 0.09938 0.38226 0.84462 0.0
H766 H 0.13397 0.37269 0.85129 0.0
H767 H 0.11508 0.36164 0.80385 0.0
C768 C 0.15429 0.0707 0.7049 0.0
C769 C 0.14515 0.04509 0.69305 0.0
C770 C 0.13712 0.089 0.72615 0.0
C771 C 0.11027 0.08147 0.73523 0.0
C772 C 0.10119 0.05548 0.72408 0.0
C773 C 0.11874 0.03764 0.70348 0.0
C774 C 0.1475 0.11645 0.73822 0.0
C775 C 0.07269 0.0466 0.73311 0.0
C776 C 0.06395 0.11191 0.81964 0.0
C777 C 0.04583 0.12578 0.79258 0.0
C778 C 0.08665 0.09937 0.80185 0.0
C779 C 0.09109 0.10045 0.75586 0.0
C780 C 0.07396 0.11608 0.72887 0.0
C781 C 0.05155 0.12872 0.74765 0.0
C782 C 0.10462 0.08321 0.83185 0.0
C783 C 0.07794 0.1176 0.67962 0.0
H784 H 0.17467 0.07659 0.69703 0.0
H785 H 0.11144 0.01786 0.69477 0.0
H786 H 0.13653 0.13196 0.71917 0.0
H787 H 0.14381 0.12052 0.77364 0.0
H788 H 0.16931 0.1186 0.73151 0.0
H789 H 0.06885 0.02567 0.72223 0.0
H790 H 0.06834 0.04797 0.76888 0.0
H791 H 0.05839 0.06002 0.71582 0.0
H792 H 0.05989 0.10997 0.85459 0.0
H793 H 0.03772 0.13957 0.72662 0.0
H794 H 0.12605 0.0866 0.82365 0.0
H795 H 0.10042 0.06155 0.82723 0.0
H796 H 0.10136 0.08823 0.86711 0.0
H797 H 0.09931 0.12136 0.67153 0.0
H798 H 0.0655 0.13358 0.66436 0.0
H799 H 0.07229 0.09812 0.66457 0.0
C800 C 0.80132 0.00123 0.31277 0.0
C801 C 0.79113 0.01274 0.35162 0.0
C802 C 0.78749 0.00326 0.27282 0.0
C803 C 0.76232 0.01617 0.27197 0.0
C804 C 0.75133 0.02688 0.31136 0.0
C805 C 0.76616 0.02549 0.35065 0.0
C806 C 0.80039 0.99271 0.23125 0.0
C807 C 0.72419 0.04034 0.31177 0.0
C808 C 0.72835 0.04608 0.17208 0.0
C809 C 0.70835 0.02685 0.16464 0.0
C810 C 0.74799 0.04181 0.20455 0.0
C811 C 0.74705 0.01806 0.23018 0.0
C812 C 0.72906 0.9973 0.21875 0.0
C813 C 0.71028 0.00176 0.18535 0.0
C814 C 0.7679 0.06384 0.21424 0.0
C815 C 0.72739 0.97165 0.24514 0.0
H816 H 0.821 0.99206 0.31284 0.0
H817 H 0.75853 0.0348 0.38039 0.0
H818 H 0.78703 0.97796 0.21493 0.0
H819 H 0.8035 0.00944 0.20769 0.0
H820 H 0.82007 0.983 0.2377 0.0
H821 H 0.71789 0.04625 0.34551 0.0
H822 H 0.72471 0.05856 0.29082 0.0
H823 H 0.7088 0.02668 0.29777 0.0
H824 H 0.72714 0.06543 0.15591 0.0
H825 H 0.69513 0.98663 0.17898 0.0
H826 H 0.78766 0.05545 0.22376 0.0
H827 H 0.76047 0.07609 0.24219 0.0
H828 H 0.77065 0.07728 0.18538 0.0
H829 H 0.74761 0.96305 0.25071 0.0
H830 H 0.71468 0.95632 0.2287 0.0
H831 H 0.71859 0.97608 0.27794 0.0
C832 C 0.45149 0.74755 0.15067 0.0
C833 C 0.43554 0.72702 0.13331 0.0
C834 C 0.447 0.75714 0.19353 0.0
C835 C 0.42703 0.74486 0.22006 0.0
C836 C 0.40966 0.72555 0.20158 0.0
C837 C 0.41363 0.71746 0.15798 0.0
C838 C 0.46495 0.77893 0.21154 0.0
C839 C 0.38884 0.71122 0.22906 0.0
C840 C 0.44745 0.74676 0.33998 0.0
C841 C 0.432 0.76821 0.35536 0.0
C842 C 0.44419 0.73722 0.29679 0.0
C843 C 0.42611 0.75048 0.26799 0.0
C844 C 0.40903 0.77071 0.28442 0.0
C845 C 0.41162 0.77874 0.32835 0.0
C846 C 0.46161 0.7144 0.28098 0.0
C847 C 0.39019 0.78605 0.25464 0.0
H848 H 0.46849 0.75483 0.13185 0.0
H849 H 0.40135 0.70129 0.14515 0.0
H850 H 0.4529 0.79424 0.2292 0.0
H851 H 0.47926 0.77016 0.23555 0.0
H852 H 0.47663 0.78899 0.1851 0.0
H853 H 0.37471 0.69935 0.20853 0.0
H854 H 0.39914 0.69729 0.25204 0.0
H855 H 0.37717 0.72559 0.24928 0.0
H856 H 0.46325 0.73868 0.36066 0.0
H857 H 0.39972 0.79556 0.33973 0.0
H858 H 0.4774 0.72228 0.2587 0.0
H859 H 0.4495 0.69973 0.26197 0.0
H860 H 0.47151 0.70378 0.30875 0.0
H861 H 0.4021 0.79996 0.23382 0.0
H862 H 0.37544 0.79811 0.27361 0.0
H863 H 0.37915 0.77238 0.23226 0.0
C864 C 0.80811 0.48876 0.2084 0.0
C865 C 0.79387 0.47934 0.17154 0.0
C866 C 0.79714 0.48754 0.25075 0.0
C867 C 0.77068 0.478 0.25609 0.0
C868 C 0.75579 0.46932 0.21875 0.0
C869 C 0.76787 0.46946 0.17696 0.0
C870 C 0.8142 0.49616 0.28941 0.0
C871 C 0.72719 0.45961 0.22298 0.0
C872 C 0.73592 0.45013 0.35576 0.0
C873 C 0.7184 0.47142 0.36481 0.0
C874 C 0.75605 0.45306 0.32377 0.0
C875 C 0.75794 0.47751 0.30022 0.0
C876 C 0.74355 0.5002 0.31495 0.0
C877 C 0.72447 0.49702 0.34831 0.0
C878 C 0.773 0.42913 0.31158 0.0
C879 C 0.74534 0.5268 0.29138 0.0
H880 H 0.82853 0.49584 0.20457 0.0
H881 H 0.75712 0.46176 0.1486 0.0
H882 H 0.81086 0.51777 0.29594 0.0
H883 H 0.8092 0.48482 0.31978 0.0
H884 H 0.83591 0.49347 0.2823 0.0
H885 H 0.71783 0.45552 0.19044 0.0
H886 H 0.72665 0.4409 0.24274 0.0
H887 H 0.71488 0.47478 0.24051 0.0
H888 H 0.73191 0.43042 0.36934 0.0
H889 H 0.71154 0.51378 0.35655 0.0
H890 H 0.79358 0.43541 0.30215 0.0
H891 H 0.76388 0.41877 0.2829 0.0
H892 H 0.77428 0.41458 0.33923 0.0
H893 H 0.76655 0.5327 0.28646 0.0
H894 H 0.73493 0.54305 0.30968 0.0
H895 H 0.73596 0.52495 0.25833 0.0
C896 C 0.05561 0.74823 0.33773 0.0
C897 C 0.07279 0.72833 0.35384 0.0
C898 C 0.06003 0.75968 0.29614 0.0
C899 C 0.08132 0.74998 0.26958 0.0
C900 C 0.10015 0.73182 0.28746 0.0
C901 C 0.09609 0.72184 0.33005 0.0
C902 C 0.04062 0.78047 0.27915 0.0
C903 C 0.123 0.72084 0.26017 0.0
C904 C 0.06126 0.75063 0.1493 0.0
C905 C 0.07507 0.77321 0.13408 0.0
C906 C 0.065 0.74144 0.19261 0.0
C907 C 0.08167 0.7562 0.22178 0.0
C908 C 0.09681 0.77803 0.20576 0.0
C909 C 0.09393 0.78574 0.16171 0.0
C910 C 0.04969 0.71704 0.20799 0.0
C911 C 0.11386 0.79502 0.23592 0.0
H912 H 0.03762 0.75323 0.35605 0.0
H913 H 0.10937 0.70628 0.34222 0.0
H914 H 0.05181 0.79758 0.26474 0.0
H915 H 0.02803 0.77167 0.25269 0.0
H916 H 0.0272 0.78813 0.30552 0.0
H917 H 0.13461 0.70521 0.27795 0.0
H918 H 0.11513 0.71208 0.22917 0.0
H919 H 0.13689 0.73724 0.25087 0.0
H920 H 0.04655 0.74109 0.12816 0.0
H921 H 0.10444 0.80348 0.15038 0.0
H922 H 0.03343 0.72328 0.23074 0.0
H923 H 0.06317 0.7033 0.22639 0.0
H924 H 0.04058 0.70587 0.18008 0.0
H925 H 0.10061 0.80677 0.25804 0.0
H926 H 0.12675 0.80926 0.21735 0.0
H927 H 0.12679 0.78235 0.25708 0.0
C928 C 0.25052 0.95634 0.65193 0.0
C929 C 0.22925 0.94051 0.63691 0.0
C930 C 0.26089 0.9527 0.69457 0.0
C931 C 0.24844 0.93403 0.72335 0.0
C932 C 0.22809 0.91691 0.70732 0.0
C933 C 0.21936 0.91982 0.66383 0.0
C934 C 0.28384 0.97014 0.70984 0.0
C935 C 0.21326 0.89775 0.73719 0.0
C936 C 0.2824 0.91952 0.8322 0.0
C937 C 0.27274 0.94072 0.85838 0.0
C938 C 0.27431 0.91668 0.78828 0.0
C939 C 0.25488 0.9344 0.77104 0.0
C940 C 0.24272 0.95375 0.79883 0.0
C941 C 0.25231 0.95715 0.84195 0.0
C942 C 0.28816 0.89622 0.75944 0.0
C943 C 0.22077 0.972 0.78217 0.0
H944 H 0.25796 0.97249 0.63136 0.0
H945 H 0.20249 0.90785 0.65273 0.0
H946 H 0.27622 0.98563 0.73288 0.0
H947 H 0.29893 0.95798 0.72788 0.0
H948 H 0.29392 0.98041 0.68188 0.0
H949 H 0.20113 0.88301 0.71828 0.0
H950 H 0.22725 0.8867 0.75901 0.0
H951 H 0.19945 0.90935 0.75862 0.0
H952 H 0.2983 0.90674 0.8445 0.0
H953 H 0.24489 0.97354 0.86199 0.0
H954 H 0.29878 0.90659 0.73217 0.0
H955 H 0.27324 0.88261 0.74418 0.0
H956 H 0.30294 0.88393 0.77798 0.0
H957 H 0.22933 0.98668 0.75856 0.0
H958 H 0.21097 0.98324 0.80935 0.0
H959 H 0.20526 0.96025 0.76437 0.0
C960 C 0.55275 0.21981 0.66289 0.0
C961 C 0.53417 0.19892 0.65827 0.0
C962 C 0.54788 0.24077 0.69272 0.0
C963 C 0.52422 0.24023 0.71858 0.0
C964 C 0.50398 0.22116 0.70961 0.0
C965 C 0.50903 0.201 0.67881 0.0
C966 C 0.56923 0.26183 0.69971 0.0
C967 C 0.47836 0.22001 0.73617 0.0
C968 C 0.53206 0.26352 0.83676 0.0
C969 C 0.51876 0.28815 0.83562 0.0
C970 C 0.53348 0.24744 0.7989 0.0
C971 C 0.52219 0.25685 0.75881 0.0
C972 C 0.50865 0.28166 0.7576 0.0
C973 C 0.50672 0.2968 0.7962 0.0
C974 C 0.54753 0.22066 0.80157 0.0
C975 C 0.49741 0.29289 0.71519 0.0
H976 H 0.57209 0.21849 0.64667 0.0
H977 H 0.49435 0.18516 0.67445 0.0
H978 H 0.56011 0.28187 0.70499 0.0
H979 H 0.58104 0.25679 0.72959 0.0
H980 H 0.58322 0.26299 0.67128 0.0
H981 H 0.46337 0.20619 0.72137 0.0
H982 H 0.48301 0.21287 0.76997 0.0
H983 H 0.46923 0.24018 0.73919 0.0
H984 H 0.54177 0.25713 0.86698 0.0
H985 H 0.49714 0.31629 0.7947 0.0
H986 H 0.56553 0.2208 0.78008 0.0
H987 H 0.53405 0.20453 0.7895 0.0
H988 H 0.55392 0.2157 0.83568 0.0
H989 H 0.51418 0.29799 0.69266 0.0
H990 H 0.48526 0.31126 0.72074 0.0
H991 H 0.48476 0.27781 0.69817 0.0
C992 C 0.2463 0.54029 0.83584 0.0
C993 C 0.22574 0.55666 0.85197 0.0
C994 C 0.25718 0.54478 0.79378 0.0
C995 C 0.2461 0.56514 0.76666 0.0
C996 C 0.22666 0.58282 0.78394 0.0
C997 C 0.21736 0.57887 0.82689 0.0
C998 C 0.27909 0.5265 0.77718 0.0
C999 C 0.2134 0.60396 0.75568 0.0
C1000 C 0.28231 0.58168 0.66067 0.0
C1001 C 0.27167 0.56225 0.63198 0.0
C1002 C 0.27382 0.58334 0.7045 0.0
C1003 C 0.25308 0.56625 0.71921 0.0
C1004 C 0.24011 0.54881 0.68903 0.0
C1005 C 0.2501 0.54646 0.64595 0.0
C1006 C 0.28871 0.60158 0.73588 0.0
C1007 C 0.21683 0.5314 0.70302 0.0
H1008 H 0.2527 0.52306 0.85496 0.0
H1009 H 0.20118 0.59148 0.83873 0.0
H1010 H 0.2707 0.51245 0.75241 0.0
H1011 H 0.2951 0.53832 0.76074 0.0
H1012 H 0.28822 0.51455 0.8042 0.0
H1013 H 0.20147 0.61836 0.77557 0.0
H1014 H 0.22841 0.61529 0.73619 0.0
H1015 H 0.19965 0.59399 0.73201 0.0
H1016 H 0.29925 0.59377 0.6503 0.0
H1017 H 0.24202 0.53133 0.62399 0.0
H1018 H 0.30004 0.58924 0.75998 0.0
H1019 H 0.27449 0.61414 0.7549 0.0
H1020 H 0.30312 0.61494 0.71857 0.0
H1021 H 0.22408 0.5154 0.72546 0.0
H1022 H 0.20678 0.52179 0.67442 0.0
H1023 H 0.2018 0.54344 0.72136 0.0
C1024 C 0.94584 0.19048 0.79682 0.0
C1025 C 0.94734 0.20274 0.83831 0.0
C1026 C 0.94343 0.20565 0.75842 0.0
C1027 C 0.94254 0.23383 0.76172 0.0
C1028 C 0.94305 0.24637 0.8038 0.0
C1029 C 0.94549 0.23054 0.84194 0.0
C1030 C 0.94293 0.1915 0.71439 0.0
C1031 C 0.94174 0.27648 0.80834 0.0
C1032 C 0.96788 0.27954 0.67212 0.0
C1033 C 0.94379 0.29046 0.65653 0.0
C1034 C 0.96774 0.25948 0.70433 0.0
C1035 C 0.94291 0.25036 0.72122 0.0
C1036 C 0.91859 0.259 0.7018 0.0
C1037 C 0.91933 0.2789 0.66918 0.0
C1038 C 0.99413 0.25001 0.72322 0.0
C1039 C 0.89174 0.24936 0.71851 0.0
H1040 H 0.94712 0.16885 0.79438 0.0
H1041 H 0.94651 0.2398 0.87421 0.0
H1042 H 0.92626 0.19913 0.69368 0.0
H1043 H 0.96189 0.19559 0.69648 0.0
H1044 H 0.94067 0.16943 0.71799 0.0
H1045 H 0.94072 0.28295 0.84332 0.0
H1046 H 0.95975 0.28565 0.79298 0.0
H1047 H 0.92391 0.28437 0.79068 0.0
H1048 H 0.98679 0.28843 0.6621 0.0
H1049 H 0.90065 0.28741 0.65734 0.0
H1050 H 0.99442 0.22784 0.72607 0.0
H1051 H 0.9967 0.25835 0.75685 0.0
H1052 H 0.01148 0.25644 0.70279 0.0
H1053 H 0.89184 0.22734 0.72361 0.0
H1054 H 0.87519 0.25456 0.69551 0.0
H1055 H 0.88753 0.25885 0.75084 0.0
C1056 C 0.67796 0.10556 0.9246 0.0
C1057 C 0.66349 0.12297 0.95197 0.0
C1058 C 0.67221 0.10387 0.87942 0.0
C1059 C 0.65186 0.12032 0.86142 0.0
C1060 C 0.63932 0.13996 0.88805 0.0
C1061 C 0.6453 0.14103 0.93308 0.0
C1062 C 0.68638 0.08304 0.85189 0.0
C1063 C 0.61786 0.15829 0.86989 0.0
C1064 C 0.63538 0.12708 0.74009 0.0
C1065 C 0.61193 0.11156 0.73741 0.0
C1066 C 0.64987 0.12884 0.77967 0.0
C1067 C 0.64069 0.11462 0.81709 0.0
C1068 C 0.61835 0.09721 0.81342 0.0
C1069 C 0.6042 0.09595 0.77364 0.0
C1070 C 0.67369 0.14747 0.78221 0.0
C1071 C 0.60819 0.08134 0.85244 0.0
H1072 H 0.69294 0.09242 0.93873 0.0
H1073 H 0.63428 0.15479 0.95397 0.0
H1074 H 0.6727 0.06579 0.84642 0.0
H1075 H 0.69179 0.09124 0.8191 0.0
H1076 H 0.70484 0.07553 0.86827 0.0
H1077 H 0.61255 0.17454 0.89334 0.0
H1078 H 0.62454 0.1675 0.83848 0.0
H1079 H 0.59949 0.14646 0.86282 0.0
H1080 H 0.64154 0.13916 0.71216 0.0
H1081 H 0.58632 0.08362 0.77158 0.0
H1082 H 0.69012 0.13848 0.80196 0.0
H1083 H 0.66758 0.16634 0.79874 0.0
H1084 H 0.68152 0.15257 0.74897 0.0
H1085 H 0.6249 0.07033 0.86841 0.0
H1086 H 0.5924 0.0667 0.84296 0.0
H1087 H 0.59965 0.09524 0.87731 0.0
C1088 C 0.36074 0.66039 0.86666 0.0
C1089 C 0.38499 0.65602 0.88889 0.0
C1090 C 0.35756 0.65261 0.82257 0.0
C1091 C 0.37912 0.63992 0.8005 0.0
C1092 C 0.40425 0.63732 0.82174 0.0
C1093 C 0.40683 0.64521 0.86582 0.0
C1094 C 0.33039 0.65572 0.80118 0.0
C1095 C 0.4277 0.62377 0.79944 0.0
C1096 C 0.36042 0.58348 0.72353 0.0
C1097 C 0.3639 0.59522 0.68189 0.0
C1098 C 0.36524 0.59794 0.76211 0.0
C1099 C 0.374 0.62485 0.75921 0.0
C1100 C 0.3779 0.63686 0.71743 0.0
C1101 C 0.37275 0.62188 0.6791 0.0
C1102 C 0.36061 0.58438 0.80604 0.0
C1103 C 0.38713 0.66557 0.71334 0.0
H1104 H 0.34379 0.66868 0.88444 0.0
H1105 H 0.42536 0.64087 0.8829 0.0
H1106 H 0.33231 0.66111 0.76587 0.0
H1107 H 0.31947 0.63636 0.80312 0.0
H1108 H 0.31809 0.67121 0.81801 0.0
H1109 H 0.44685 0.62749 0.81716 0.0
H1110 H 0.42415 0.60181 0.79849 0.0
H1111 H 0.42982 0.6308 0.76494 0.0
H1112 H 0.35343 0.56296 0.72621 0.0
H1113 H 0.37531 0.63114 0.64707 0.0
H1114 H 0.34515 0.59547 0.82499 0.0
H1115 H 0.37936 0.5846 0.82576 0.0
H1116 H 0.35388 0.56326 0.80242 0.0
H1117 H 0.37232 0.67908 0.7292 0.0
H1118 H 0.38971 0.67181 0.67845 0.0
H1119 H 0.40648 0.66831 0.73086 0.0
C1120 C 0.81269 0.40687 0.90594 0.0
C1121 C 0.82336 0.38763 0.93473 0.0
C1122 C 0.82053 0.40766 0.86156 0.0
C1123 C 0.83868 0.38816 0.84561 0.0
C1124 C 0.84668 0.36671 0.87314 0.0
C1125 C 0.839 0.36676 0.91747 0.0
C1126 C 0.81122 0.43061 0.83297 0.0
C1127 C 0.86533 0.34497 0.85693 0.0
C1128 C 0.85831 0.37898 0.72621 0.0
C1129 C 0.8843 0.38986 0.72639 0.0
C1130 C 0.84227 0.3797 0.76414 0.0
C1131 C 0.8524 0.39192 0.80274 0.0
C1132 C 0.87768 0.40492 0.80189 0.0
C1133 C 0.89344 0.40352 0.76378 0.0
C1134 C 0.81552 0.36549 0.7638 0.0
C1135 C 0.88891 0.41871 0.8422 0.0
H1136 H 0.79928 0.42213 0.91839 0.0
H1137 H 0.84691 0.35143 0.93919 0.0
H1138 H 0.82778 0.44535 0.82952 0.0
H1139 H 0.80596 0.42352 0.79943 0.0
H1140 H 0.7936 0.44105 0.84737 0.0
H1141 H 0.86661 0.32791 0.88039 0.0
H1142 H 0.85858 0.33724 0.8245 0.0
H1143 H 0.88577 0.35339 0.85249 0.0
H1144 H 0.85112 0.36835 0.69737 0.0
H1145 H 0.91338 0.41224 0.76384 0.0
H1146 H 0.80021 0.37695 0.78244 0.0
H1147 H 0.81772 0.34566 0.78001 0.0
H1148 H 0.8081 0.36216 0.72971 0.0
H1149 H 0.87371 0.43229 0.85684 0.0
H1150 H 0.90723 0.43053 0.83457 0.0
H1151 H 0.89412 0.40347 0.86746 0.0
C1152 C 0.13174 0.87436 0.67654 0.0
C1153 C 0.13612 0.90212 0.67951 0.0
C1154 C 0.12809 0.85876 0.71477 0.0
C1155 C 0.129 0.87125 0.75664 0.0
C1156 C 0.13298 0.89927 0.75965 0.0
C1157 C 0.13631 0.9143 0.72119 0.0
C1158 C 0.12404 0.8289 0.71052 0.0
C1159 C 0.13443 0.91343 0.80364 0.0
C1160 C 0.09929 0.84703 0.86347 0.0
C1161 C 0.12255 0.84099 0.88752 0.0
C1162 C 0.10075 0.85409 0.81881 0.0
C1163 C 0.12612 0.85554 0.798 0.0
C1164 C 0.14933 0.84703 0.82104 0.0
C1165 C 0.14727 0.84004 0.86566 0.0
C1166 C 0.07547 0.86282 0.79544 0.0
C1167 C 0.17685 0.84805 0.80047 0.0
H1168 H 0.13179 0.86474 0.64453 0.0
H1169 H 0.13975 0.93569 0.72405 0.0
H1170 H 0.14117 0.81823 0.72598 0.0
H1171 H 0.10563 0.82268 0.72834 0.0
H1172 H 0.1224 0.82244 0.67561 0.0
H1173 H 0.1372 0.93543 0.80012 0.0
H1174 H 0.1158 0.90977 0.82272 0.0
H1175 H 0.15144 0.90537 0.82316 0.0
H1176 H 0.08017 0.84854 0.88013 0.0
H1177 H 0.1653 0.83536 0.88414 0.0
H1178 H 0.07516 0.85533 0.76103 0.0
H1179 H 0.0748 0.88505 0.79417 0.0
H1180 H 0.05716 0.85562 0.81266 0.0
H1181 H 0.17613 0.84494 0.76432 0.0
H1182 H 0.1903 0.83272 0.81524 0.0
H1183 H 0.18579 0.86802 0.80703 0.0
C1184 C 0.61149 0.36564 0.76588 0.0
C1185 C 0.58496 0.35631 0.76663 0.0
C1186 C 0.62567 0.36752 0.72603 0.0
C1187 C 0.61301 0.35964 0.68633 0.0
C1188 C 0.58681 0.34869 0.68737 0.0
C1189 C 0.57306 0.34729 0.72748 0.0
C1190 C 0.65361 0.37919 0.72613 0.0
C1191 C 0.57276 0.33964 0.64584 0.0
C1192 C 0.62856 0.39498 0.57933 0.0
C1193 C 0.64359 0.37566 0.55667 0.0
C1194 C 0.61969 0.39046 0.6224 0.0
C1195 C 0.6256 0.36577 0.6432 0.0
C1196 C 0.64137 0.34639 0.62109 0.0
C1197 C 0.65009 0.35154 0.57787 0.0
C1198 C 0.6027 0.41157 0.64469 0.0
C1199 C 0.648 0.31982 0.64227 0.0
H1200 H 0.62084 0.37241 0.79616 0.0
H1201 H 0.55276 0.33944 0.72806 0.0
H1202 H 0.6674 0.36648 0.70648 0.0
H1203 H 0.65325 0.39932 0.71053 0.0
H1204 H 0.66181 0.38125 0.76 0.0
H1205 H 0.55346 0.32933 0.65287 0.0
H1206 H 0.56861 0.35726 0.62456 0.0
H1207 H 0.58578 0.32581 0.62685 0.0
H1208 H 0.62233 0.41313 0.56281 0.0
H1209 H 0.66145 0.33642 0.56024 0.0
H1210 H 0.61071 0.41611 0.67796 0.0
H1211 H 0.58194 0.40393 0.64894 0.0
H1212 H 0.60181 0.43051 0.62547 0.0
H1213 H 0.65593 0.32291 0.67605 0.0
H1214 H 0.66295 0.30828 0.62287 0.0
H1215 H 0.62948 0.30761 0.64527 0.0
C1216 C 0.13334 0.62139 0.80035 0.0
C1217 C 0.13685 0.59356 0.7963 0.0
C1218 C 0.13095 0.63772 0.76286 0.0
C1219 C 0.13196 0.62586 0.72059 0.0
C1220 C 0.13522 0.59779 0.71637 0.0
C1221 C 0.13763 0.58202 0.75423 0.0
C1222 C 0.12792 0.66764 0.76837 0.0
C1223 C 0.13652 0.58435 0.67178 0.0
C1224 C 0.10212 0.65381 0.61652 0.0
C1225 C 0.12536 0.65953 0.59226 0.0
C1226 C 0.10379 0.64529 0.66039 0.0
C1227 C 0.12931 0.64236 0.6802 0.0
C1228 C 0.1526 0.65074 0.6573 0.0
C1229 C 0.15034 0.65904 0.61334 0.0
C1230 C 0.07847 0.63654 0.68364 0.0
C1231 C 0.18022 0.6483 0.67728 0.0
H1232 H 0.13306 0.63051 0.83276 0.0
H1233 H 0.14049 0.56057 0.75074 0.0
H1234 H 0.14516 0.67803 0.75273 0.0
H1235 H 0.10949 0.67467 0.75144 0.0
H1236 H 0.1269 0.67367 0.80356 0.0
H1237 H 0.13858 0.56222 0.67435 0.0
H1238 H 0.11813 0.58893 0.65258 0.0
H1239 H 0.15389 0.59222 0.65291 0.0
H1240 H 0.08278 0.65349 0.60034 0.0
H1241 H 0.16833 0.66343 0.59458 0.0
H1242 H 0.07848 0.64328 0.71845 0.0
H1243 H 0.0774 0.61431 0.68368 0.0
H1244 H 0.06018 0.6444 0.66715 0.0
H1245 H 0.17987 0.65196 0.71331 0.0
H1246 H 0.19452 0.66254 0.66175 0.0
H1247 H 0.18784 0.62769 0.6716 0.0
C1248 C 0.84188 0.08279 0.60992 0.0
C1249 C 0.84845 0.1028 0.5793 0.0
C1250 C 0.8526 0.08313 0.65261 0.0
C1251 C 0.86917 0.10473 0.66562 0.0
C1252 C 0.87409 0.12613 0.63609 0.0
C1253 C 0.86388 0.12478 0.59312 0.0
C1254 C 0.84701 0.0599 0.68321 0.0
C1255 C 0.89091 0.15002 0.64935 0.0
C1256 C 0.88109 0.11782 0.78683 0.0
C1257 C 0.90776 0.10933 0.79184 0.0
C1258 C 0.86808 0.11604 0.74606 0.0
C1259 C 0.88185 0.1048 0.7098 0.0
C1260 C 0.90829 0.0949 0.7152 0.0
C1261 C 0.92112 0.09767 0.75609 0.0
C1262 C 0.84022 0.12763 0.74124 0.0
C1263 C 0.92331 0.08216 0.67743 0.0
H1264 H 0.8287 0.06658 0.60055 0.0
H1265 H 0.86881 0.14055 0.56991 0.0
H1266 H 0.86616 0.04998 0.69229 0.0
H1267 H 0.8377 0.06717 0.71416 0.0
H1268 H 0.83352 0.04472 0.66811 0.0
H1269 H 0.89044 0.16622 0.62421 0.0
H1270 H 0.88379 0.15833 0.68119 0.0
H1271 H 0.91205 0.14368 0.65406 0.0
H1272 H 0.8708 0.12727 0.8142 0.0
H1273 H 0.94174 0.09113 0.75992 0.0
H1274 H 0.8265 0.11282 0.72591 0.0
H1275 H 0.84096 0.14533 0.7191 0.0
H1276 H 0.83161 0.13397 0.77335 0.0
H1277 H 0.91086 0.06631 0.66189 0.0
H1278 H 0.94264 0.07317 0.68814 0.0
H1279 H 0.92756 0.09746 0.65182 0.0
C1280 C 0.40348 0.85481 0.61971 0.0
C1281 C 0.38181 0.84346 0.59693 0.0
C1282 C 0.40071 0.86331 0.66343 0.0
C1283 C 0.37556 0.86072 0.68457 0.0
C1284 C 0.35418 0.84749 0.66287 0.0
C1285 C 0.35753 0.83915 0.61909 0.0
C1286 C 0.42395 0.87749 0.68531 0.0
C1287 C 0.32702 0.84432 0.68429 0.0
C1288 C 0.36986 0.88063 0.80518 0.0
C1289 C 0.36102 0.90724 0.80136 0.0
C1290 C 0.37456 0.86497 0.76744 0.0
C1291 C 0.37025 0.87627 0.72525 0.0
C1292 C 0.36132 0.90308 0.72131 0.0
C1293 C 0.35694 0.9182 0.75931 0.0
C1294 C 0.38393 0.83638 0.77262 0.0
C1295 C 0.35623 0.91587 0.6769 0.0
H1296 H 0.42201 0.8591 0.60258 0.0
H1297 H 0.34072 0.83043 0.60149 0.0
H1298 H 0.42004 0.8994 0.68565 0.0
H1299 H 0.4262 0.87087 0.72 0.0
H1300 H 0.44316 0.87392 0.6677 0.0
H1301 H 0.31483 0.82861 0.66776 0.0
H1302 H 0.32902 0.83918 0.7197 0.0
H1303 H 0.31596 0.86358 0.68207 0.0
H1304 H 0.37287 0.87196 0.83755 0.0
H1305 H 0.34995 0.93868 0.75588 0.0
H1306 H 0.40347 0.83363 0.75572 0.0
H1307 H 0.36939 0.82257 0.75674 0.0
H1308 H 0.38623 0.83054 0.80775 0.0
H1309 H 0.37489 0.91567 0.65696 0.0
H1310 H 0.34915 0.93692 0.67974 0.0
H1311 H 0.34087 0.90424 0.6586 0.0
C1312 C 0.4152 0.86239 0.26236 0.0
C1313 C 0.40186 0.86137 0.30299 0.0
C1314 C 0.40123 0.86729 0.22327 0.0
C1315 C 0.37312 0.87123 0.22468 0.0
C1316 C 0.35947 0.87057 0.26555 0.0
C1317 C 0.37405 0.86571 0.3044 0.0
C1318 C 0.41659 0.86782 0.18033 0.0
C1319 C 0.32946 0.87429 0.26801 0.0
C1320 C 0.34999 0.90564 0.12097 0.0
C1321 C 0.34469 0.88353 0.09385 0.0
C1322 C 0.35682 0.9021 0.16538 0.0
C1323 C 0.35847 0.87583 0.18281 0.0
C1324 C 0.35074 0.85366 0.15658 0.0
C1325 C 0.34419 0.85777 0.11219 0.0
C1326 C 0.36503 0.92626 0.19216 0.0
C1327 C 0.35196 0.82531 0.17387 0.0
H1328 H 0.43667 0.85904 0.26093 0.0
H1329 H 0.36358 0.86465 0.33564 0.0
H1330 H 0.40936 0.85153 0.15846 0.0
H1331 H 0.41312 0.88711 0.16302 0.0
H1332 H 0.43854 0.86524 0.18522 0.0
H1333 H 0.32201 0.87432 0.3025 0.0
H1334 H 0.32361 0.89343 0.25205 0.0
H1335 H 0.31932 0.8579 0.24973 0.0
H1336 H 0.35111 0.92553 0.1068 0.0
H1337 H 0.34012 0.84066 0.09118 0.0
H1338 H 0.38723 0.92682 0.19487 0.0
H1339 H 0.35679 0.92507 0.22604 0.0
H1340 H 0.35822 0.9453 0.17675 0.0
H1341 H 0.37283 0.81781 0.17097 0.0
H1342 H 0.33874 0.81171 0.15463 0.0
H1343 H 0.34608 0.82431 0.20908 0.0
C1344 C 0.62693 0.37417 0.26779 0.0
C1345 C 0.63274 0.40164 0.26472 0.0
C1346 C 0.62315 0.35862 0.22971 0.0
C1347 C 0.62556 0.37086 0.18783 0.0
C1348 C 0.63231 0.39837 0.18463 0.0
C1349 C 0.63565 0.41344 0.22309 0.0
C1350 C 0.61576 0.3294 0.23425 0.0
C1351 C 0.63539 0.41212 0.14052 0.0
C1352 C 0.63523 0.33526 0.07917 0.0
C1353 C 0.61002 0.33911 0.05964 0.0
C1354 C 0.64017 0.34348 0.12264 0.0
C1355 C 0.61933 0.35578 0.14699 0.0
C1356 C 0.59329 0.35764 0.12875 0.0
C1357 C 0.58904 0.34964 0.08512 0.0
C1358 C 0.66823 0.34118 0.14095 0.0
C1359 C 0.57046 0.3705 0.15374 0.0
H1360 H 0.6247 0.36495 0.29994 0.0
H1361 H 0.64053 0.43456 0.22049 0.0
H1362 H 0.59499 0.32624 0.22211 0.0
H1363 H 0.62919 0.31681 0.21373 0.0
H1364 H 0.61692 0.32238 0.26894 0.0
H1365 H 0.64228 0.43321 0.14383 0.0
H1366 H 0.65002 0.4011 0.11977 0.0
H1367 H 0.6159 0.41208 0.12285 0.0
H1368 H 0.65156 0.32723 0.05959 0.0
H1369 H 0.56977 0.35377 0.07033 0.0
H1370 H 0.66782 0.33435 0.17573 0.0
H1371 H 0.67795 0.3612 0.14033 0.0
H1372 H 0.68076 0.3271 0.12145 0.0
H1373 H 0.5699 0.36324 0.18828 0.0
H1374 H 0.55072 0.36637 0.13812 0.0
H1375 H 0.57347 0.39254 0.15466 0.0
C1376 C 0.16598 0.60091 0.11813 0.0
C1377 C 0.1525 0.61704 0.08739 0.0
C1378 C 0.15966 0.60218 0.16313 0.0
C1379 C 0.14015 0.62072 0.1777 0.0
C1380 C 0.12823 0.63868 0.14736 0.0
C1381 C 0.13443 0.6365 0.10257 0.0
C1382 C 0.17274 0.58271 0.19459 0.0
C1383 C 0.10768 0.65919 0.16171 0.0
C1384 C 0.09366 0.60944 0.2737 0.0
C1385 C 0.1044 0.62699 0.30494 0.0
C1386 C 0.10658 0.60537 0.23333 0.0
C1387 C 0.13021 0.62001 0.22366 0.0
C1388 C 0.14193 0.63664 0.2562 0.0
C1389 C 0.12898 0.63967 0.29691 0.0
C1390 C 0.09381 0.58696 0.19982 0.0
C1391 C 0.16663 0.65316 0.24663 0.0
H1392 H 0.18114 0.58696 0.10727 0.0
H1393 H 0.12415 0.64936 0.07924 0.0
H1394 H 0.18058 0.59336 0.22397 0.0
H1395 H 0.15755 0.56809 0.20633 0.0
H1396 H 0.18945 0.57146 0.17893 0.0
H1397 H 0.10409 0.67464 0.13599 0.0
H1398 H 0.08837 0.64897 0.16873 0.0
H1399 H 0.11416 0.66934 0.19238 0.0
H1400 H 0.07456 0.59978 0.28015 0.0
H1401 H 0.13692 0.65365 0.32098 0.0
H1402 H 0.10915 0.57379 0.18458 0.0
H1403 H 0.08466 0.5991 0.17311 0.0
H1404 H 0.07791 0.57422 0.21466 0.0
H1405 H 0.18222 0.64086 0.23018 0.0
H1406 H 0.17528 0.66206 0.27704 0.0
H1407 H 0.16127 0.6697 0.22379 0.0
C1408 C 0.84461 0.06951 0.24336 0.0
C1409 C 0.85058 0.08271 0.28292 0.0
C1410 C 0.84509 0.08322 0.20315 0.0
C1411 C 0.85197 0.11075 0.20248 0.0
C1412 C 0.85653 0.12458 0.24248 0.0
C1413 C 0.8557 0.11037 0.28238 0.0
C1414 C 0.83967 0.06784 0.1612 0.0
C1415 C 0.86377 0.15396 0.24295 0.0
C1416 C 0.88882 0.12913 0.09841 0.0
C1417 C 0.86835 0.14029 0.0726 0.0
C1418 C 0.88407 0.12108 0.14181 0.0
C1419 C 0.85801 0.12376 0.1597 0.0
C1420 C 0.83746 0.13603 0.13463 0.0
C1421 C 0.84286 0.14406 0.09114 0.0
C1422 C 0.90654 0.10791 0.16736 0.0
C1423 C 0.80944 0.13925 0.15271 0.0
H1424 H 0.84005 0.04825 0.24364 0.0
H1425 H 0.86009 0.12075 0.31293 0.0
H1426 H 0.82456 0.07849 0.14085 0.0
H1427 H 0.85838 0.06646 0.14151 0.0
H1428 H 0.83229 0.0472 0.16774 0.0
H1429 H 0.86291 0.16258 0.27667 0.0
H1430 H 0.88444 0.15657 0.23004 0.0
H1431 H 0.85011 0.16551 0.2212 0.0
H1432 H 0.9082 0.12491 0.08409 0.0
H1433 H 0.8269 0.15241 0.07111 0.0
H1434 H 0.90205 0.08628 0.17172 0.0
H1435 H 0.9083 0.11691 0.20066 0.0
H1436 H 0.9262 0.10981 0.15041 0.0
H1437 H 0.79933 0.11943 0.15342 0.0
H1438 H 0.79716 0.1531 0.13232 0.0
H1439 H 0.81001 0.14687 0.18703 0.0
C1440 C 0.37505 0.62905 0.17996 0.0
C1441 C 0.40256 0.63481 0.18298 0.0
C1442 C 0.35953 0.62507 0.2181 0.0
C1443 C 0.37189 0.62686 0.25998 0.0
C1444 C 0.39968 0.63241 0.26312 0.0
C1445 C 0.41463 0.63624 0.22468 0.0
C1446 C 0.32988 0.61959 0.21373 0.0
C1447 C 0.41364 0.63475 0.30719 0.0
C1448 C 0.33849 0.64251 0.36843 0.0
C1449 C 0.33995 0.61756 0.38943 0.0
C1450 C 0.34629 0.64544 0.3243 0.0
C1451 C 0.35624 0.62292 0.30109 0.0
C1452 C 0.3556 0.59728 0.32104 0.0
C1453 C 0.34751 0.59491 0.36508 0.0
C1454 C 0.34632 0.67317 0.30439 0.0
C1455 C 0.36612 0.57276 0.29752 0.0
H1456 H 0.3655 0.62821 0.1479 0.0
H1457 H 0.43582 0.64084 0.22749 0.0
H1458 H 0.32461 0.60067 0.23091 0.0
H1459 H 0.31835 0.63593 0.22978 0.0
H1460 H 0.32344 0.61806 0.17877 0.0
H1461 H 0.43551 0.63854 0.30378 0.0
H1462 H 0.40471 0.65144 0.32638 0.0
H1463 H 0.41078 0.61607 0.32651 0.0
H1464 H 0.3327 0.66006 0.38724 0.0
H1465 H 0.34939 0.57567 0.38125 0.0
H1466 H 0.34294 0.67259 0.26829 0.0
H1467 H 0.3661 0.68265 0.31057 0.0
H1468 H 0.33072 0.68604 0.31971 0.0
H1469 H 0.35883 0.57213 0.263 0.0
H1470 H 0.36008 0.55392 0.31438 0.0
H1471 H 0.38836 0.5736 0.29652 0.0
C1472 C 0.86698 0.38367 0.22293 0.0
C1473 C 0.86084 0.41111 0.22217 0.0
C1474 C 0.86838 0.36966 0.26305 0.0
C1475 C 0.86326 0.38346 0.30291 0.0
C1476 C 0.85616 0.41093 0.30205 0.0
C1477 C 0.85514 0.4244 0.26175 0.0
C1478 C 0.87609 0.34041 0.26292 0.0
C1479 C 0.85022 0.42632 0.34384 0.0
C1480 C 0.84765 0.35265 0.41364 0.0
C1481 C 0.87177 0.35736 0.43613 0.0
C1482 C 0.84511 0.35892 0.36875 0.0
C1483 C 0.86722 0.37022 0.34612 0.0
C1484 C 0.89213 0.37319 0.36787 0.0
C1485 C 0.894 0.36708 0.41273 0.0
C1486 C 0.81822 0.35548 0.34657 0.0
C1487 C 0.91619 0.38527 0.34496 0.0
H1488 H 0.87121 0.3733 0.19233 0.0
H1489 H 0.8498 0.44546 0.26131 0.0
H1490 H 0.89606 0.33794 0.27859 0.0
H1491 H 0.86155 0.32854 0.28256 0.0
H1492 H 0.87699 0.33201 0.22905 0.0
H1493 H 0.84421 0.44738 0.33721 0.0
H1494 H 0.83384 0.41637 0.36242 0.0
H1495 H 0.86822 0.42655 0.36536 0.0
H1496 H 0.83038 0.34526 0.43167 0.0
H1497 H 0.91238 0.37193 0.42981 0.0
H1498 H 0.82066 0.34653 0.31336 0.0
H1499 H 0.8087 0.37541 0.34219 0.0
H1500 H 0.80446 0.34266 0.36622 0.0
H1501 H 0.91882 0.37645 0.3117 0.0
H1502 H 0.93498 0.38225 0.36404 0.0
H1503 H 0.91301 0.40715 0.34074 0.0
C1504 C 0.08994 0.86581 0.22344 0.0
C1505 C 0.10174 0.86759 0.18157 0.0
C1506 C 0.10484 0.87054 0.26173 0.0
C1507 C 0.13228 0.87755 0.25831 0.0
C1508 C 0.14425 0.88012 0.21623 0.0
C1509 C 0.12884 0.87506 0.17826 0.0
C1510 C 0.09131 0.86723 0.30597 0.0
C1511 C 0.1735 0.88737 0.21144 0.0
C1512 C 0.15648 0.90908 0.36423 0.0
C1513 C 0.16571 0.8865 0.38726 0.0
C1514 C 0.14774 0.90698 0.32041 0.0
C1515 C 0.14814 0.88169 0.2993 0.0
C1516 C 0.15976 0.85941 0.3211 0.0
C1517 C 0.16819 0.86206 0.36496 0.0
C1518 C 0.13566 0.93128 0.29834 0.0
C1519 C 0.1609 0.83203 0.30016 0.0
H1520 H 0.06907 0.86003 0.22654 0.0
H1521 H 0.13821 0.87631 0.14611 0.0
H1522 H 0.10122 0.85091 0.32474 0.0
H1523 H 0.09332 0.8859 0.32555 0.0
H1524 H 0.06964 0.86233 0.30284 0.0
H1525 H 0.17946 0.88997 0.17643 0.0
H1526 H 0.17788 0.90619 0.22954 0.0
H1527 H 0.18608 0.87137 0.22626 0.0
H1528 H 0.1539 0.92795 0.38124 0.0
H1529 H 0.1753 0.84455 0.38265 0.0
H1530 H 0.11347 0.92934 0.29811 0.0
H1531 H 0.1424 0.9328 0.26361 0.0
H1532 H 0.14098 0.95014 0.31577 0.0
H1533 H 0.14201 0.82122 0.3078 0.0
H1534 H 0.17778 0.82004 0.3137 0.0
H1535 H 0.1631 0.83322 0.26386 0.0
C1536 C 0.63758 0.12872 0.24055 0.0
C1537 C 0.62168 0.10554 0.23751 0.0
C1538 C 0.63933 0.14311 0.28018 0.0
C1539 C 0.62467 0.13415 0.31725 0.0
C1540 C 0.60673 0.11226 0.31309 0.0
C1541 C 0.60556 0.09813 0.2733 0.0
C1542 C 0.65853 0.16644 0.2832 0.0
C1543 C 0.5903 0.10242 0.35169 0.0
C1544 C 0.65088 0.13609 0.4334 0.0
C1545 C 0.63324 0.15443 0.45299 0.0
C1546 C 0.6499 0.13104 0.38809 0.0
C1547 C 0.63075 0.14463 0.36187 0.0
C1548 C 0.61499 0.16528 0.38057 0.0
C1549 C 0.61669 0.17018 0.42603 0.0
C1550 C 0.66765 0.10936 0.36914 0.0
C1551 C 0.59475 0.1806 0.3535 0.0
H1552 H 0.65003 0.13466 0.21294 0.0
H1553 H 0.59292 0.08049 0.2709 0.0
H1554 H 0.65014 0.18279 0.30377 0.0
H1555 H 0.67743 0.15964 0.29898 0.0
H1556 H 0.66351 0.17461 0.25014 0.0
H1557 H 0.57511 0.08729 0.34168 0.0
H1558 H 0.60377 0.09314 0.37652 0.0
H1559 H 0.57986 0.1194 0.36789 0.0
H1560 H 0.66413 0.12415 0.45384 0.0
H1561 H 0.60404 0.1854 0.44065 0.0
H1562 H 0.67708 0.11621 0.33801 0.0
H1563 H 0.65531 0.09144 0.3614 0.0
H1564 H 0.68376 0.10327 0.39241 0.0
H1565 H 0.60298 0.18573 0.32061 0.0
H1566 H 0.58829 0.19933 0.37023 0.0
H1567 H 0.57677 0.16786 0.34826 0.0
C1568 C 0.54626 0.04133 0.99661 0.0
C1569 C 0.55013 0.04149 0.04226 0.0
C1570 C 0.52056 0.037 0.97883 0.0
C1571 C 0.49867 0.03215 0.0076 0.0
C1572 C 0.50234 0.03414 0.05369 0.0
C1573 C 0.52794 0.03938 0.07036 0.0
C1574 C 0.51715 0.03619 0.92946 0.0
C1575 C 0.4797 0.02873 0.08561 0.0
C1576 C 0.42552 0.02946 0.97341 0.0
C1577 C 0.42168 0.00181 0.96805 0.0
C1578 C 0.45092 0.0399 0.98367 0.0
C1579 C 0.47266 0.02212 0.99036 0.0
C1580 C 0.46893 0.9942 0.98443 0.0
C1581 C 0.44361 0.98447 0.97232 0.0
C1582 C 0.45438 0.06986 0.98801 0.0
C1583 C 0.49147 0.9745 0.99213 0.0
H1584 H 0.56343 0.04343 0.97495 0.0
H1585 H 0.5309 0.04043 0.10571 0.0
H1586 H 0.51525 0.01507 0.91848 0.0
H1587 H 0.49858 0.04684 0.91942 0.0
H1588 H 0.53453 0.04533 0.91213 0.0
H1589 H 0.48567 0.03236 0.12037 0.0
H1590 H 0.46215 0.04154 0.07786 0.0
H1591 H 0.47315 0.00754 0.08245 0.0
H1592 H 0.40861 0.04293 0.96949 0.0
H1593 H 0.44098 0.96322 0.96632 0.0
H1594 H 0.47233 0.0766 0.96943 0.0
H1595 H 0.45761 0.07519 0.02308 0.0
H1596 H 0.43657 0.08101 0.97578 0.0
H1597 H 0.50859 0.97914 0.97009 0.0
H1598 H 0.48517 0.95342 0.98628 0.0
H1599 H 0.49879 0.97624 0.02655 0.0
C1600 C 0.49791 0.45317 0.971 0.0
C1601 C 0.52271 0.44484 0.95437 0.0
C1602 C 0.49359 0.47996 0.98279 0.0
C1603 C 0.51478 0.49868 0.97841 0.0
C1604 C 0.54023 0.4901 0.96326 0.0
C1605 C 0.54382 0.46324 0.9509 0.0
C1606 C 0.46609 0.48839 -0.00155 0.0
C1607 C 0.5634 0.50943 0.95894 0.0
C1608 C 0.49389 0.57142 0.96624 0.0
C1609 C 0.49585 0.58046 0.00975 0.0
C1610 C 0.50064 0.54494 0.95528 0.0
C1611 C 0.50992 0.52734 0.98864 0.0
C1612 C 0.5128 0.53669 0.03235 0.0
C1613 C 0.5053 0.56302 0.04251 0.0
C1614 C 0.49692 0.53553 0.9084 0.0
C1615 C 0.5229 0.51863 0.06871 0.0
H1616 H 0.48161 0.43882 0.97337 0.0
H1617 H 0.56283 0.45682 0.93714 0.0
H1618 H 0.46753 0.49791 0.03138 0.0
H1619 H 0.45761 0.50354 0.97556 0.0
H1620 H 0.45192 0.47124 0.00056 0.0
H1621 H 0.58238 0.49915 0.94985 0.0
H1622 H 0.55876 0.52462 0.93334 0.0
H1623 H 0.56651 0.52033 0.9904 0.0
H1624 H 0.48646 0.58492 0.94102 0.0
H1625 H 0.50604 0.56964 0.07647 0.0
H1626 H 0.48157 0.51941 0.90737 0.0
H1627 H 0.51591 0.5269 0.89566 0.0
H1628 H 0.49048 0.55199 0.8861 0.0
H1629 H 0.50785 0.50277 0.07554 0.0
H1630 H 0.52678 0.5298 0.09973 0.0
H1631 H 0.5417 0.50848 0.05844 0.0
C1632 C 0.0569 0.49073 0.92966 0.0
C1633 C 0.07335 0.50113 0.96308 0.0
C1634 C 0.03056 0.48253 0.9385 0.0
C1635 C 0.02006 0.48586 0.98139 0.0
C1636 C 0.03649 0.49656 0.01524 0.0
C1637 C 0.06309 0.50377 0.00575 0.0
C1638 C 0.01385 0.47074 0.90178 0.0
C1639 C 0.02577 0.50099 0.0612 0.0
C1640 C 0.94528 0.49448 -0.00229 0.0
C1641 C 0.93844 0.47026 0.01808 0.0
C1642 C 0.97168 0.49953 0.98427 0.0
C1643 C 0.99149 0.47954 0.99051 0.0
C1644 C 0.98422 0.4543 0.00828 0.0
C1645 C 0.95777 0.4501 0.02256 0.0
C1646 C 0.97869 0.52685 0.96612 0.0
C1647 C 0.00466 0.43228 0.01434 0.0
H1648 H 0.0644 0.48948 0.89624 0.0
H1649 H 0.07578 0.51184 0.03156 0.0
H1650 H 0.0055 0.45108 0.91208 0.0
H1651 H 0.99663 0.48409 0.89444 0.0
H1652 H 0.02562 0.46787 0.87105 0.0
H1653 H 0.04113 0.50957 0.08368 0.0
H1654 H 0.00834 0.51482 0.06003 0.0
H1655 H 0.01858 0.48176 0.07526 0.0
H1656 H 0.93025 0.5101 0.99475 0.0
H1657 H 0.9526 0.43161 0.03933 0.0
H1658 H 0.9894 0.52489 0.93427 0.0
H1659 H 0.99241 0.53727 0.98929 0.0
H1660 H 0.96066 0.53958 0.96107 0.0
H1661 H 0.01663 0.4296 0.98383 0.0
H1662 H 0.99512 0.41284 0.02301 0.0
H1663 H 0.01878 0.43785 0.04107 0.0
C1664 C 0.02767 0.93856 0.02531 0.0
C1665 C 0.01067 0.9173 0.01394 0.0
C1666 C 0.01948 0.96519 0.01996 0.0
C1667 C 0.99324 0.97064 0.00457 0.0
C1668 C 0.9756 0.94921 0.99459 0.0
C1669 C 0.98472 0.9227 -0.00127 0.0
C1670 C 0.03914 0.98747 0.0298 0.0
C1671 C 0.94721 0.95429 0.97937 0.0
C1672 C 0.97019 0.04258 0.02106 0.0
C1673 C 0.97525 0.05337 0.97932 0.0
C1674 C 0.9748 0.01523 0.02947 0.0
C1675 C 0.98523 -0.00127 0.99551 0.0
C1676 C 0.98963 0.00951 0.95305 0.0
C1677 C 0.98397 0.03652 0.94528 0.0
C1678 C 0.969 0.00413 0.07473 0.0
C1679 C 0.00116 0.99276 0.91612 0.0
H1680 H 0.04747 0.93432 0.03839 0.0
H1681 H 0.97151 0.90615 0.99058 0.0
H1682 H 0.04255 -0.00038 -0.00034 0.0
H1683 H 0.0308 0.00106 0.05524 0.0
H1684 H 0.05879 0.97976 0.04154 0.0
H1685 H 0.93529 0.93551 0.9772 0.0
H1686 H 0.93699 0.96829 0.00229 0.0
H1687 H 0.94743 0.96393 0.94644 0.0
H1688 H 0.9629 0.05556 0.04707 0.0
H1689 H 0.98663 0.04453 0.9124 0.0
H1690 H 0.98808 -0.00136 0.09123 0.0
H1691 H 0.95677 0.9856 0.07213 0.0
H1692 H 0.95821 0.01878 0.09583 0.0
H1693 H 0.02113 0.98491 0.92589 0.0
H1694 H 0.00347 0.00434 0.88507 0.0
H1695 H 0.98806 0.97524 0.90954 0.0
C1696 C 0.4403 0.52102 0.51174 0.0
C1697 C 0.41804 0.50412 0.50715 0.0
C1698 C 0.46605 0.51221 0.50042 0.0
C1699 C 0.46973 0.48549 0.48592 0.0
C1700 C 0.44744 0.46799 0.48287 0.0
C1701 C 0.42172 0.47767 0.49292 0.0
C1702 C 0.48923 0.53167 0.5032 0.0
C1703 C 0.45076 0.43913 0.46891 0.0
C1704 C 0.53053 0.47424 0.41403 0.0
C1705 C 0.54995 0.46688 0.44513 0.0
C1706 C 0.50413 0.47972 0.42674 0.0
C1707 C 0.49672 0.47661 0.47142 0.0
C1708 C 0.51575 0.46715 0.50245 0.0
C1709 C 0.54235 0.46267 0.48898 0.0
C1710 C 0.4846 0.49017 0.39274 0.0
C1711 C 0.5083 0.46273 0.5501 0.0
H1712 H 0.43755 0.54119 0.52423 0.0
H1713 H 0.40447 0.46453 0.49012 0.0
H1714 H 0.50467 0.52396 0.52625 0.0
H1715 H 0.49885 0.53373 0.47039 0.0
H1716 H 0.48284 0.55187 0.51453 0.0
H1717 H 0.43175 0.42761 0.47169 0.0
H1718 H 0.45773 0.43822 0.43425 0.0
H1719 H 0.46629 0.42923 0.48946 0.0
H1720 H 0.53617 0.47647 0.37975 0.0
H1721 H 0.55733 0.45664 0.51291 0.0
H1722 H 0.4783 0.51081 0.40168 0.0
H1723 H 0.46628 0.47757 0.39204 0.0
H1724 H 0.49338 0.49064 0.35911 0.0
H1725 H 0.50507 0.48236 0.56642 0.0
H1726 H 0.52418 0.45174 0.56838 0.0
H1727 H 0.48925 0.4513 0.55253 0.0
C1728 C 0.02795 0.55895 0.48017 0.0
C1729 C 0.01072 0.58112 0.48015 0.0
C1730 C 0.01867 0.53351 0.49246 0.0
C1731 C 0.99124 0.53002 0.50312 0.0
C1732 C 0.97356 0.55221 0.50187 0.0
C1733 C 0.98364 0.57764 0.49105 0.0
C1734 C 0.03829 0.51046 0.49446 0.0
C1735 C 0.94403 0.54906 0.5117 0.0
C1736 C 0.96708 0.45777 0.50132 0.0
C1737 C 0.96795 0.45139 0.5462 0.0
C1738 C 0.97351 0.48374 0.48675 0.0
C1739 C 0.98153 0.50337 0.51786 0.0
C1740 C 0.98166 0.49712 0.56329 0.0
C1741 C 0.97429 0.47138 0.57691 0.0
C1742 C 0.97228 0.49 0.43814 0.0
C1743 C 0.99051 0.51731 0.59746 0.0
H1744 H 0.04867 0.56144 0.47018 0.0
H1745 H 0.97028 0.59479 0.49027 0.0
H1746 H 0.03834 0.50164 0.52804 0.0
H1747 H 0.03207 0.49444 0.47128 0.0
H1748 H 0.05907 0.51673 0.48613 0.0
H1749 H 0.9327 0.56796 0.50637 0.0
H1750 H 0.93529 0.53319 0.49046 0.0
H1751 H 0.94121 0.54264 0.54638 0.0
H1752 H 0.96181 0.44236 0.47766 0.0
H1753 H 0.97394 0.46674 0.61179 0.0
H1754 H 0.99285 0.49336 0.42532 0.0
H1755 H 0.96075 0.50872 0.43246 0.0
H1756 H 0.96287 0.47352 0.41895 0.0
H1757 H 0.01153 0.52351 0.59089 0.0
H1758 H 0.98935 0.50921 0.63151 0.0
H1759 H 0.97789 0.53558 0.59552 0.0
C1760 C 0.0818 0.02108 0.48235 0.0
C1761 C 0.08513 0.99512 0.49907 0.0
C1762 C 0.05609 0.03124 0.47357 0.0
C1763 C 0.03348 0.01448 0.47972 0.0
C1764 C 0.03688 0.988 0.49557 0.0
C1765 C 0.06262 0.97893 0.50624 0.0
C1766 C 0.05307 0.05996 0.45868 0.0
C1767 C 0.01336 0.96916 0.50117 0.0
C1768 C 0.9611 0.03623 0.49081 0.0
C1769 C 0.95163 0.0309 0.44831 0.0
C1770 C 0.98845 0.03325 0.5008 0.0
C1771 C 0.00625 0.02388 0.4678 0.0
C1772 C 0.99696 0.02024 0.4242 0.0
C1773 C 0.96987 0.02456 0.4148 0.0
C1774 C 0.99795 0.03858 0.5472 0.0
C1775 C 0.01504 0.00958 0.38827 0.0
H1776 H 0.09929 0.03366 0.47737 0.0
H1777 H 0.06513 0.95919 0.52063 0.0
H1778 H 0.04368 0.06073 0.42559 0.0
H1779 H 0.03956 0.07085 0.48158 0.0
H1780 H 0.07262 0.07064 0.45729 0.0
H1781 H 0.01973 0.9487 0.51117 0.0
H1782 H -0.00053 0.97708 0.52654 0.0
H1783 H 0.00195 0.96766 0.46984 0.0
H1784 H 0.94702 0.04155 0.51659 0.0
H1785 H 0.96268 0.02158 0.38146 0.0
H1786 H 0.01752 0.04919 0.54696 0.0
H1787 H 0.00086 0.01926 0.56468 0.0
H1788 H 0.98322 0.05072 0.56609 0.0
H1789 H 0.03371 0.02157 0.38608 0.0
H1790 H 0.0051 0.00964 0.3555 0.0
H1791 H 0.02094 0.98867 0.39625 0.0
C1792 C 0.50618 0.9312 0.43767 0.0
C1793 C 0.49587 0.91509 0.47157 0.0
C1794 C 0.51627 0.95687 0.4464 0.0
C1795 C 0.51525 0.96693 0.48989 0.0
C1796 C 0.50452 0.95088 0.5242 0.0
C1797 C 0.49507 0.92502 0.51462 0.0
C1798 C 0.52774 0.9733 0.40907 0.0
C1799 C 0.50269 0.96116 0.5709 0.0
C1800 C 0.55794 0.0249 0.52991 0.0
C1801 C 0.53919 0.04576 0.52977 0.0
C1802 C 0.55092 -0.00066 0.5144 0.0
C1803 C 0.5244 0.99464 0.49946 0.0
C1804 C 0.50591 0.01612 0.49706 0.0
C1805 C 0.51362 0.04152 0.51208 0.0
C1806 C 0.57132 0.97702 0.51664 0.0
C1807 C 0.4774 0.01189 0.48163 0.0
H1808 H 0.50602 0.92391 0.40406 0.0
H1809 H 0.48694 0.91259 0.54071 0.0
H1810 H 0.51592 0.99196 0.40479 0.0
H1811 H 0.54863 0.97932 0.41692 0.0
H1812 H 0.52776 0.96217 0.37737 0.0
H1813 H 0.49378 0.94617 0.59369 0.0
H1814 H 0.52295 0.96659 0.58313 0.0
H1815 H 0.49026 0.97962 0.57183 0.0
H1816 H 0.57752 0.02811 0.54459 0.0
H1817 H 0.49912 0.05772 0.51262 0.0
H1818 H 0.57168 0.96564 0.48524 0.0
H1819 H 0.56566 0.96277 0.54314 0.0
H1820 H 0.59183 0.98466 0.52355 0.0
H1821 H 0.47711 0.00133 0.4495 0.0
H1822 H 0.46629 0.03109 0.47818 0.0
H1823 H 0.46659 -0.00094 0.50568 0.0
loop_
_geom_bond_atom_site_label_1
_geom_bond_atom_site_label_2
_geom_bond_distance
_geom_bond_site_symmetry_2
_ccdc_geom_bond_type
Co0 O3 1.970 . S
Co0 N17 1.989 . S
Co0 O25 1.967 . S
Co0 O32 1.920 . S
Co1 O4 1.966 . S
Co1 N10 2.022 . S
Co1 N18 1.993 . S
Co1 O26 1.941 . S
C2 O3 1.258 . S
C2 O4 1.263 . S
O3 Co0 1.970 . S
O3 C2 1.258 . S
O4 Co1 1.966 . S
O4 C2 1.263 . S
C5 O6 1.235 . S
C5 O32 1.289 1_565 S
O6 C5 1.235 . S
C7 C9 1.400 1_554 S
C7 N10 1.351 . S
C7 C12 1.501 . S
C8 C9 1.387 . S
C8 N11 1.341 1_556 S
C9 C7 1.400 1_556 S
C9 C8 1.387 . S
N10 Co1 2.022 . S
N10 C7 1.351 . S
N10 N11 1.365 . S
N11 C8 1.341 1_554 S
N11 N10 1.365 . S
N11 H31 0.862 . S
C12 C7 1.501 . S
C12 H13 0.961 . S
C12 H14 0.961 1_554 S
C12 H15 0.960 . S
H13 C12 0.961 . S
H14 C12 0.961 1_556 S
H15 C12 0.960 . S
C16 N17 1.342 . S
C16 C20 1.401 . S
C16 C21 1.499 1_545 S
N17 Co0 1.989 . S
N17 C16 1.342 . S
N17 N18 1.388 . S
N18 Co1 1.993 . S
N18 N17 1.388 . S
N18 C19 1.346 . S
C19 N18 1.346 . S
C19 C20 1.396 . S
C19 C29 1.510 1_554 S
C20 C16 1.401 . S
C20 C19 1.396 . S
C21 C16 1.499 1_565 S
C21 H22 0.959 . S
C21 H23 0.960 . S
C21 H24 0.961 1_565 S
H22 C21 0.959 . S
H23 C21 0.960 . S
H24 C21 0.961 1_545 S
O25 Co0 1.967 . S
O25 C33 1.258 . S
O26 Co1 1.941 . S
O26 C33 1.266 . S
H27 C29 0.959 . S
H28 C29 0.961 . S
C29 C19 1.510 1_556 S
C29 H27 0.959 . S
C29 H28 0.961 . S
C29 H30 0.960 . S
H30 C29 0.960 . S
H31 N11 0.862 . S
O32 Co0 1.920 . S
O32 C5 1.289 1_545 S
C33 O25 1.258 . S
C33 O26 1.266 . S
Co34 O37 1.970 . S
Co34 N51 1.989 . S
Co34 O59 1.967 . S
Co34 O66 1.920 . S
Co35 O38 1.966 . S
Co35 N44 2.022 . S
Co35 N52 1.993 . S
Co35 O60 1.941 . S
C36 O37 1.258 . S
C36 O38 1.263 . S
O37 Co34 1.970 . S
O37 C36 1.258 . S
O38 Co35 1.966 . S
O38 C36 1.263 . S
C39 O40 1.235 . S
C39 O66 1.289 . S
O40 C39 1.235 . S
C41 C43 1.400 1_554 S
C41 N44 1.351 . S
C41 C46 1.501 . S
C42 C43 1.387 . S
C42 N45 1.341 1_556 S
C43 C41 1.400 1_556 S
C43 C42 1.387 . S
N44 Co35 2.022 . S
N44 C41 1.351 . S
N44 N45 1.365 . S
N45 C42 1.341 1_554 S
N45 N44 1.365 . S
N45 H65 0.862 . S
C46 C41 1.501 . S
C46 H47 0.961 . S
C46 H48 0.961 1_554 S
C46 H49 0.960 . S
H47 C46 0.961 . S
H48 C46 0.961 1_556 S
H49 C46 0.960 . S
C50 N51 1.342 . S
C50 C54 1.401 . S
C50 C55 1.499 . S
N51 Co34 1.989 . S
N51 C50 1.342 . S
N51 N52 1.388 . S
N52 Co35 1.993 . S
N52 N51 1.388 . S
N52 C53 1.346 . S
C53 N52 1.346 . S
C53 C54 1.396 . S
C53 C63 1.510 1_554 S
C54 C50 1.401 . S
C54 C53 1.396 . S
C55 C50 1.499 . S
C55 H56 0.959 . S
C55 H57 0.960 . S
C55 H58 0.961 . S
H56 C55 0.959 . S
H57 C55 0.960 . S
H58 C55 0.961 . S
O59 Co34 1.967 . S
O59 C67 1.258 . S
O60 Co35 1.941 . S
O60 C67 1.266 . S
H61 C63 0.959 . S
H62 C63 0.961 . S
C63 C53 1.510 1_556 S
C63 H61 0.959 . S
C63 H62 0.961 . S
C63 H64 0.960 . S
H64 C63 0.960 . S
H65 N45 0.862 . S
O66 Co34 1.920 . S
O66 C39 1.289 . S
C67 O59 1.258 . S
C67 O60 1.266 . S
Co68 O71 1.970 . S
Co68 N85 1.989 . S
Co68 O93 1.967 . S
Co68 O100 1.920 . S
Co69 O72 1.966 . S
Co69 N78 2.022 . S
Co69 N86 1.993 . S
Co69 O94 1.941 . S
C70 O71 1.258 . S
C70 O72 1.263 . S
O71 Co68 1.970 . S
O71 C70 1.258 . S
O72 Co69 1.966 . S
O72 C70 1.263 . S
C73 O74 1.235 . S
C73 O100 1.289 . S
O74 C73 1.235 . S
C75 C77 1.400 1_554 S
C75 N78 1.351 . S
C75 C80 1.501 . S
C76 C77 1.387 . S
C76 N79 1.341 1_556 S
C77 C75 1.400 1_556 S
C77 C76 1.387 . S
N78 Co69 2.022 . S
N78 C75 1.351 . S
N78 N79 1.365 . S
N79 C76 1.341 1_554 S
N79 N78 1.365 . S
N79 H99 0.862 . S
C80 C75 1.501 . S
C80 H81 0.961 . S
C80 H82 0.961 1_554 S
C80 H83 0.960 . S
H81 C80 0.961 . S
H82 C80 0.961 1_556 S
H83 C80 0.960 . S
C84 N85 1.342 . S
C84 C88 1.401 . S
C84 C89 1.499 . S
N85 Co68 1.989 . S
N85 C84 1.342 . S
N85 N86 1.388 . S
N86 Co69 1.993 . S
N86 N85 1.388 . S
N86 C87 1.346 . S
C87 N86 1.346 . S
C87 C88 1.396 . S
C87 C97 1.510 1_554 S
C88 C84 1.401 . S
C88 C87 1.396 . S
C89 C84 1.499 . S
C89 H90 0.959 . S
C89 H91 0.960 . S
C89 H92 0.961 . S
H90 C89 0.959 . S
H91 C89 0.960 . S
H92 C89 0.961 . S
O93 Co68 1.967 . S
O93 C101 1.258 . S
O94 Co69 1.941 . S
O94 C101 1.266 . S
H95 C97 0.959 . S
H96 C97 0.961 . S
C97 C87 1.510 1_556 S
C97 H95 0.959 . S
C97 H96 0.961 . S
C97 H98 0.960 . S
H98 C97 0.960 . S
H99 N79 0.862 . S
O100 Co68 1.920 . S
O100 C73 1.289 . S
C101 O93 1.258 . S
C101 O94 1.266 . S
Co102 O105 1.970 . S
Co102 N119 1.989 . S
Co102 O127 1.967 . S
Co102 O134 1.920 . S
Co103 O106 1.966 . S
Co103 N112 2.022 . S
Co103 N120 1.993 . S
Co103 O128 1.941 . S
C104 O105 1.258 . S
C104 O106 1.263 . S
O105 Co102 1.970 . S
O105 C104 1.258 . S
O106 Co103 1.966 . S
O106 C104 1.263 . S
C107 O108 1.235 . S
C107 O134 1.289 1_655 S
O108 C107 1.235 . S
C109 C111 1.400 1_554 S
C109 N112 1.351 . S
C109 C114 1.501 . S
C110 C111 1.387 . S
C110 N113 1.341 1_556 S
C111 C109 1.400 1_556 S
C111 C110 1.387 . S
N112 Co103 2.022 . S
N112 C109 1.351 . S
N112 N113 1.365 . S
N113 C110 1.341 1_554 S
N113 N112 1.365 . S
N113 H133 0.862 . S
C114 C109 1.501 . S
C114 H115 0.961 . S
C114 H116 0.961 1_554 S
C114 H117 0.960 . S
H115 C114 0.961 . S
H116 C114 0.961 1_556 S
H117 C114 0.960 . S
C118 N119 1.342 . S
C118 C122 1.401 . S
C118 C123 1.499 1_455 S
N119 Co102 1.989 . S
N119 C118 1.342 . S
N119 N120 1.388 . S
N120 Co103 1.993 . S
N120 N119 1.388 . S
N120 C121 1.346 . S
C121 N120 1.346 . S
C121 C122 1.396 . S
C121 C131 1.510 1_554 S
C122 C118 1.401 . S
C122 C121 1.396 . S
C123 C118 1.499 1_655 S
C123 H124 0.959 . S
C123 H125 0.960 . S
C123 H126 0.961 1_655 S
H124 C123 0.959 . S
H125 C123 0.960 . S
H126 C123 0.961 1_455 S
O127 Co102 1.967 . S
O127 C135 1.258 . S
O128 Co103 1.941 . S
O128 C135 1.266 . S
H129 C131 0.959 . S
H130 C131 0.961 . S
C131 C121 1.510 1_556 S
C131 H129 0.959 . S
C131 H130 0.961 . S
C131 H132 0.960 . S
H132 C131 0.960 . S
H133 N113 0.862 . S
O134 Co102 1.920 . S
O134 C107 1.289 1_455 S
C135 O127 1.258 . S
C135 O128 1.266 . S
Co136 O139 1.970 . S
Co136 N153 1.989 . S
Co136 O161 1.967 . S
Co136 O168 1.920 . S
Co137 O140 1.966 . S
Co137 N146 2.022 . S
Co137 N154 1.993 . S
Co137 O162 1.941 . S
C138 O139 1.258 . S
C138 O140 1.263 . S
O139 Co136 1.970 . S
O139 C138 1.258 . S
O140 Co137 1.966 . S
O140 C138 1.263 . S
C141 O142 1.235 . S
C141 O168 1.289 . S
O142 C141 1.235 . S
C143 C145 1.400 . S
C143 N146 1.351 . S
C143 C148 1.501 . S
C144 C145 1.387 . S
C144 N147 1.341 . S
C145 C143 1.400 . S
C145 C144 1.387 . S
N146 Co137 2.022 . S
N146 C143 1.351 . S
N146 N147 1.365 . S
N147 C144 1.341 . S
N147 N146 1.365 . S
N147 H167 0.862 . S
C148 C143 1.501 . S
C148 H149 0.961 . S
C148 H150 0.961 . S
C148 H151 0.960 . S
H149 C148 0.961 . S
H150 C148 0.961 . S
H151 C148 0.960 . S
C152 N153 1.342 . S
C152 C156 1.401 . S
C152 C157 1.499 . S
N153 Co136 1.989 . S
N153 C152 1.342 . S
N153 N154 1.388 . S
N154 Co137 1.993 . S
N154 N153 1.388 . S
N154 C155 1.346 . S
C155 N154 1.346 . S
C155 C156 1.396 . S
C155 C165 1.510 . S
C156 C152 1.401 . S
C156 C155 1.396 . S
C157 C152 1.499 . S
C157 H158 0.959 . S
C157 H159 0.960 . S
C157 H160 0.961 . S
H158 C157 0.959 . S
H159 C157 0.960 . S
H160 C157 0.961 . S
O161 Co136 1.967 . S
O161 C169 1.258 . S
O162 Co137 1.941 . S
O162 C169 1.266 . S
H163 C165 0.959 . S
H164 C165 0.961 . S
C165 C155 1.510 . S
C165 H163 0.959 . S
C165 H164 0.961 . S
C165 H166 0.960 . S
H166 C165 0.960 . S
H167 N147 0.862 . S
O168 Co136 1.920 . S
O168 C141 1.289 . S
C169 O161 1.258 . S
C169 O162 1.266 . S
Co170 O173 1.970 . S
Co170 N187 1.989 . S
Co170 O195 1.967 . S
Co170 O202 1.920 . S
Co171 O174 1.966 . S
Co171 N180 2.022 . S
Co171 N188 1.993 . S
Co171 O196 1.941 . S
C172 O173 1.258 . S
C172 O174 1.263 . S
O173 Co170 1.970 . S
O173 C172 1.258 . S
O174 Co171 1.966 . S
O174 C172 1.263 . S
C175 O176 1.235 . S
C175 O202 1.289 1_655 S
O176 C175 1.235 . S
C177 C179 1.400 . S
C177 N180 1.351 . S
C177 C182 1.501 . S
C178 C179 1.387 . S
C178 N181 1.341 . S
C179 C177 1.400 . S
C179 C178 1.387 . S
N180 Co171 2.022 . S
N180 C177 1.351 . S
N180 N181 1.365 . S
N181 C178 1.341 . S
N181 N180 1.365 . S
N181 H201 0.862 . S
C182 C177 1.501 . S
C182 H183 0.961 . S
C182 H184 0.961 . S
C182 H185 0.960 . S
H183 C182 0.961 . S
H184 C182 0.961 . S
H185 C182 0.960 . S
C186 N187 1.342 . S
C186 C190 1.401 . S
C186 C191 1.499 1_455 S
N187 Co170 1.989 . S
N187 C186 1.342 . S
N187 N188 1.388 . S
N188 Co171 1.993 . S
N188 N187 1.388 . S
N188 C189 1.346 . S
C189 N188 1.346 . S
C189 C190 1.396 . S
C189 C199 1.510 . S
C190 C186 1.401 . S
C190 C189 1.396 . S
C191 C186 1.499 1_655 S
C191 H192 0.959 . S
C191 H193 0.960 . S
C191 H194 0.961 1_655 S
H192 C191 0.959 . S
H193 C191 0.960 . S
H194 C191 0.961 1_455 S
O195 Co170 1.967 . S
O195 C203 1.258 . S
O196 Co171 1.941 . S
O196 C203 1.266 . S
H197 C199 0.959 . S
H198 C199 0.961 . S
C199 C189 1.510 . S
C199 H197 0.959 . S
C199 H198 0.961 . S
C199 H200 0.960 . S
H200 C199 0.960 . S
H201 N181 0.862 . S
O202 Co170 1.920 . S
O202 C175 1.289 1_455 S
C203 O195 1.258 . S
C203 O196 1.266 . S
Co204 O207 1.970 . S
Co204 N221 1.989 . S
Co204 O229 1.967 . S
Co204 O236 1.920 . S
Co205 O208 1.966 . S
Co205 N214 2.022 . S
Co205 N222 1.993 . S
Co205 O230 1.941 . S
C206 O207 1.258 . S
C206 O208 1.263 . S
O207 Co204 1.970 . S
O207 C206 1.258 . S
O208 Co205 1.966 . S
O208 C206 1.263 . S
C209 O210 1.235 . S
C209 O236 1.289 1_565 S
O210 C209 1.235 . S
C211 C213 1.400 . S
C211 N214 1.351 . S
C211 C216 1.501 . S
C212 C213 1.387 . S
C212 N215 1.341 . S
C213 C211 1.400 . S
C213 C212 1.387 . S
N214 Co205 2.022 . S
N214 C211 1.351 . S
N214 N215 1.365 . S
N215 C212 1.341 . S
N215 N214 1.365 . S
N215 H235 0.862 . S
C216 C211 1.501 . S
C216 H217 0.961 . S
C216 H218 0.961 . S
C216 H219 0.960 . S
H217 C216 0.961 . S
H218 C216 0.961 . S
H219 C216 0.960 . S
C220 N221 1.342 . S
C220 C224 1.401 . S
C220 C225 1.499 1_545 S
N221 Co204 1.989 . S
N221 C220 1.342 . S
N221 N222 1.388 . S
N222 Co205 1.993 . S
N222 N221 1.388 . S
N222 C223 1.346 . S
C223 N222 1.346 . S
C223 C224 1.396 . S
C223 C233 1.510 . S
C224 C220 1.401 . S
C224 C223 1.396 . S
C225 C220 1.499 1_565 S
C225 H226 0.959 . S
C225 H227 0.960 . S
C225 H228 0.961 1_565 S
H226 C225 0.959 . S
H227 C225 0.960 . S
H228 C225 0.961 1_545 S
O229 Co204 1.967 . S
O229 C237 1.258 . S
O230 Co205 1.941 . S
O230 C237 1.266 . S
H231 C233 0.959 . S
H232 C233 0.961 . S
C233 C223 1.510 . S
C233 H231 0.959 . S
C233 H232 0.961 . S
C233 H234 0.960 . S
H234 C233 0.960 . S
H235 N215 0.862 . S
O236 Co204 1.920 . S
O236 C209 1.289 1_545 S
C237 O229 1.258 . S
C237 O230 1.266 . S
Co238 O241 1.970 . S
Co238 N255 1.989 . S
Co238 O263 1.967 . S
Co238 O270 1.920 . S
Co239 O242 1.966 . S
Co239 N248 2.022 . S
Co239 N256 1.993 . S
Co239 O264 1.941 . S
C240 O241 1.258 . S
C240 O242 1.263 . S
O241 Co238 1.970 . S
O241 C240 1.258 . S
O242 Co239 1.966 . S
O242 C240 1.263 . S
C243 O244 1.235 . S
C243 O270 1.289 . S
O244 C243 1.235 . S
C245 C247 1.400 . S
C245 N248 1.351 . S
C245 C250 1.501 . S
C246 C247 1.387 . S
C246 N249 1.341 . S
C247 C245 1.400 . S
C247 C246 1.387 . S
N248 Co239 2.022 . S
N248 C245 1.351 . S
N248 N249 1.365 . S
N249 C246 1.341 . S
N249 N248 1.365 . S
N249 H269 0.862 . S
C250 C245 1.501 . S
C250 H251 0.961 . S
C250 H252 0.961 . S
C250 H253 0.960 . S
H251 C250 0.961 . S
H252 C250 0.961 . S
H253 C250 0.960 . S
C254 N255 1.342 . S
C254 C258 1.401 . S
C254 C259 1.499 . S
N255 Co238 1.989 . S
N255 C254 1.342 . S
N255 N256 1.388 . S
N256 Co239 1.993 . S
N256 N255 1.388 . S
N256 C257 1.346 . S
C257 N256 1.346 . S
C257 C258 1.396 . S
C257 C267 1.510 . S
C258 C254 1.401 . S
C258 C257 1.396 . S
C259 C254 1.499 . S
C259 H260 0.959 . S
C259 H261 0.960 . S
C259 H262 0.961 . S
H260 C259 0.959 . S
H261 C259 0.960 . S
H262 C259 0.961 . S
O263 Co238 1.967 . S
O263 C271 1.258 . S
O264 Co239 1.941 . S
O264 C271 1.266 . S
H265 C267 0.959 . S
H266 C267 0.961 . S
C267 C257 1.510 . S
C267 H265 0.959 . S
C267 H266 0.961 . S
C267 H268 0.960 . S
H268 C267 0.960 . S
H269 N249 0.862 . S
O270 Co238 1.920 . S
O270 C243 1.289 . S
C271 O263 1.258 . S
C271 O264 1.266 . S
Co272 O275 1.970 . S
Co272 N289 1.989 . S
Co272 O297 1.967 . S
Co272 O304 1.920 . S
Co273 O276 1.966 . S
Co273 N282 2.022 . S
Co273 N290 1.993 . S
Co273 O298 1.941 . S
C274 O275 1.258 . S
C274 O276 1.263 . S
O275 Co272 1.970 . S
O275 C274 1.258 . S
O276 Co273 1.966 . S
O276 C274 1.263 . S
C277 O278 1.235 . S
C277 O304 1.289 1_545 S
O278 C277 1.235 . S
C279 C281 1.400 1_556 S
C279 N282 1.351 . S
C279 C284 1.501 . S
C280 C281 1.387 . S
C280 N283 1.341 1_554 S
C281 C279 1.400 1_554 S
C281 C280 1.387 . S
N282 Co273 2.022 . S
N282 C279 1.351 . S
N282 N283 1.365 . S
N283 C280 1.341 1_556 S
N283 N282 1.365 . S
N283 H303 0.862 . S
C284 C279 1.501 . S
C284 H285 0.961 . S
C284 H286 0.961 1_556 S
C284 H287 0.960 . S
H285 C284 0.961 . S
H286 C284 0.961 1_554 S
H287 C284 0.960 . S
C288 N289 1.342 . S
C288 C292 1.401 . S
C288 C293 1.499 1_565 S
N289 Co272 1.989 . S
N289 C288 1.342 . S
N289 N290 1.388 . S
N290 Co273 1.993 . S
N290 N289 1.388 . S
N290 C291 1.346 . S
C291 N290 1.346 . S
C291 C292 1.396 . S
C291 C301 1.510 1_556 S
C292 C288 1.401 . S
C292 C291 1.396 . S
C293 C288 1.499 1_545 S
C293 H294 0.959 . S
C293 H295 0.960 . S
C293 H296 0.961 1_545 S
H294 C293 0.959 . S
H295 C293 0.960 . S
H296 C293 0.961 1_565 S
O297 Co272 1.967 . S
O297 C305 1.258 . S
O298 Co273 1.941 . S
O298 C305 1.266 . S
H299 C301 0.959 . S
H300 C301 0.961 . S
C301 C291 1.510 1_554 S
C301 H299 0.959 . S
C301 H300 0.961 . S
C301 H302 0.960 . S
H302 C301 0.960 . S
H303 N283 0.862 . S
O304 Co272 1.920 . S
O304 C277 1.289 1_565 S
C305 O297 1.258 . S
C305 O298 1.266 . S
Co306 O309 1.970 . S
Co306 N323 1.989 . S
Co306 O331 1.967 . S
Co306 O338 1.920 . S
Co307 O310 1.966 . S
Co307 N316 2.022 . S
Co307 N324 1.993 . S
Co307 O332 1.941 . S
C308 O309 1.258 . S
C308 O310 1.263 . S
O309 Co306 1.970 . S
O309 C308 1.258 . S
O310 Co307 1.966 . S
O310 C308 1.263 . S
C311 O312 1.235 . S
C311 O338 1.289 . S
O312 C311 1.235 . S
C313 C315 1.400 1_556 S
C313 N316 1.351 . S
C313 C318 1.501 . S
C314 C315 1.387 . S
C314 N317 1.341 1_554 S
C315 C313 1.400 1_554 S
C315 C314 1.387 . S
N316 Co307 2.022 . S
N316 C313 1.351 . S
N316 N317 1.365 . S
N317 C314 1.341 1_556 S
N317 N316 1.365 . S
N317 H337 0.862 . S
C318 C313 1.501 . S
C318 H319 0.961 . S
C318 H320 0.961 1_556 S
C318 H321 0.960 . S
H319 C318 0.961 . S
H320 C318 0.961 1_554 S
H321 C318 0.960 . S
C322 N323 1.342 . S
C322 C326 1.401 . S
C322 C327 1.499 . S
N323 Co306 1.989 . S
N323 C322 1.342 . S
N323 N324 1.388 . S
N324 Co307 1.993 . S
N324 N323 1.388 . S
N324 C325 1.346 . S
C325 N324 1.346 . S
C325 C326 1.396 . S
C325 C335 1.510 1_556 S
C326 C322 1.401 . S
C326 C325 1.396 . S
C327 C322 1.499 . S
C327 H328 0.959 . S
C327 H329 0.960 . S
C327 H330 0.961 . S
H328 C327 0.959 . S
H329 C327 0.960 . S
H330 C327 0.961 . S
O331 Co306 1.967 . S
O331 C339 1.258 . S
O332 Co307 1.941 . S
O332 C339 1.266 . S
H333 C335 0.959 . S
H334 C335 0.961 . S
C335 C325 1.510 1_554 S
C335 H333 0.959 . S
C335 H334 0.961 . S
C335 H336 0.960 . S
H336 C335 0.960 . S
H337 N317 0.862 . S
O338 Co306 1.920 . S
O338 C311 1.289 . S
C339 O331 1.258 . S
C339 O332 1.266 . S
Co340 O343 1.970 . S
Co340 N357 1.989 . S
Co340 O365 1.967 . S
Co340 O372 1.920 . S
Co341 O344 1.966 . S
Co341 N350 2.022 . S
Co341 N358 1.993 . S
Co341 O366 1.941 . S
C342 O343 1.258 . S
C342 O344 1.263 . S
O343 Co340 1.970 . S
O343 C342 1.258 . S
O344 Co341 1.966 . S
O344 C342 1.263 . S
C345 O346 1.235 . S
C345 O372 1.289 . S
O346 C345 1.235 . S
C347 C349 1.400 1_556 S
C347 N350 1.351 . S
C347 C352 1.501 . S
C348 C349 1.387 . S
C348 N351 1.341 1_554 S
C349 C347 1.400 1_554 S
C349 C348 1.387 . S
N350 Co341 2.022 . S
N350 C347 1.351 . S
N350 N351 1.365 . S
N351 C348 1.341 1_556 S
N351 N350 1.365 . S
N351 H371 0.862 . S
C352 C347 1.501 . S
C352 H353 0.961 . S
C352 H354 0.961 1_556 S
C352 H355 0.960 . S
H353 C352 0.961 . S
H354 C352 0.961 1_554 S
H355 C352 0.960 . S
C356 N357 1.342 . S
C356 C360 1.401 . S
C356 C361 1.499 . S
N357 Co340 1.989 . S
N357 C356 1.342 . S
N357 N358 1.388 . S
N358 Co341 1.993 . S
N358 N357 1.388 . S
N358 C359 1.346 . S
C359 N358 1.346 . S
C359 C360 1.396 . S
C359 C369 1.510 1_556 S
C360 C356 1.401 . S
C360 C359 1.396 . S
C361 C356 1.499 . S
C361 H362 0.959 . S
C361 H363 0.960 . S
C361 H364 0.961 . S
H362 C361 0.959 . S
H363 C361 0.960 . S
H364 C361 0.961 . S
O365 Co340 1.967 . S
O365 C373 1.258 . S
O366 Co341 1.941 . S
O366 C373 1.266 . S
H367 C369 0.959 . S
H368 C369 0.961 . S
C369 C359 1.510 1_554 S
C369 H367 0.959 . S
C369 H368 0.961 . S
C369 H370 0.960 . S
H370 C369 0.960 . S
H371 N351 0.862 . S
O372 Co340 1.920 . S
O372 C345 1.289 . S
C373 O365 1.258 . S
C373 O366 1.266 . S
Co374 O377 1.970 . S
Co374 N391 1.989 . S
Co374 O399 1.967 . S
Co374 O406 1.920 . S
Co375 O378 1.966 . S
Co375 N384 2.022 . S
Co375 N392 1.993 . S
Co375 O400 1.941 . S
C376 O377 1.258 . S
C376 O378 1.263 . S
O377 Co374 1.970 . S
O377 C376 1.258 . S
O378 Co375 1.966 . S
O378 C376 1.263 . S
C379 O380 1.235 . S
C379 O406 1.289 1_455 S
O380 C379 1.235 . S
C381 C383 1.400 1_556 S
C381 N384 1.351 . S
C381 C386 1.501 . S
C382 C383 1.387 . S
C382 N385 1.341 1_554 S
C383 C381 1.400 1_554 S
C383 C382 1.387 . S
N384 Co375 2.022 . S
N384 C381 1.351 . S
N384 N385 1.365 . S
N385 C382 1.341 1_556 S
N385 N384 1.365 . S
N385 H405 0.862 . S
C386 C381 1.501 . S
C386 H387 0.961 . S
C386 H388 0.961 1_556 S
C386 H389 0.960 . S
H387 C386 0.961 . S
H388 C386 0.961 1_554 S
H389 C386 0.960 . S
C390 N391 1.342 . S
C390 C394 1.401 . S
C390 C395 1.499 1_655 S
N391 Co374 1.989 . S
N391 C390 1.342 . S
N391 N392 1.388 . S
N392 Co375 1.993 . S
N392 N391 1.388 . S
N392 C393 1.346 . S
C393 N392 1.346 . S
C393 C394 1.396 . S
C393 C403 1.510 1_556 S
C394 C390 1.401 . S
C394 C393 1.396 . S
C395 C390 1.499 1_455 S
C395 H396 0.959 . S
C395 H397 0.960 . S
C395 H398 0.961 1_455 S
H396 C395 0.959 . S
H397 C395 0.960 . S
H398 C395 0.961 1_655 S
O399 Co374 1.967 . S
O399 C407 1.258 . S
O400 Co375 1.941 . S
O400 C407 1.266 . S
H401 C403 0.959 . S
H402 C403 0.961 . S
C403 C393 1.510 1_554 S
C403 H401 0.959 . S
C403 H402 0.961 . S
C403 H404 0.960 . S
H404 C403 0.960 . S
H405 N385 0.862 . S
O406 Co374 1.920 . S
O406 C379 1.289 1_655 S
C407 O399 1.258 . S
C407 O400 1.266 . S
Co408 O411 1.970 . S
Co408 N425 1.989 . S
Co408 O433 1.967 . S
Co408 O440 1.920 . S
Co409 O412 1.966 . S
Co409 N418 2.022 . S
Co409 N426 1.993 . S
Co409 O434 1.941 . S
C410 O411 1.258 . S
C410 O412 1.263 . S
O411 Co408 1.970 . S
O411 C410 1.258 . S
O412 Co409 1.966 . S
O412 C410 1.263 . S
C413 O414 1.235 . S
C413 O440 1.289 . S
O414 C413 1.235 . S
C415 C417 1.400 . S
C415 N418 1.351 . S
C415 C420 1.501 . S
C416 C417 1.387 . S
C416 N419 1.341 . S
C417 C415 1.400 . S
C417 C416 1.387 . S
N418 Co409 2.022 . S
N418 C415 1.351 . S
N418 N419 1.365 . S
N419 C416 1.341 . S
N419 N418 1.365 . S
N419 H439 0.862 . S
C420 C415 1.501 . S
C420 H421 0.961 . S
C420 H422 0.961 . S
C420 H423 0.960 . S
H421 C420 0.961 . S
H422 C420 0.961 . S
H423 C420 0.960 . S
C424 N425 1.342 . S
C424 C428 1.401 . S
C424 C429 1.499 . S
N425 Co408 1.989 . S
N425 C424 1.342 . S
N425 N426 1.388 . S
N426 Co409 1.993 . S
N426 N425 1.388 . S
N426 C427 1.346 . S
C427 N426 1.346 . S
C427 C428 1.396 . S
C427 C437 1.510 . S
C428 C424 1.401 . S
C428 C427 1.396 . S
C429 C424 1.499 . S
C429 H430 0.959 . S
C429 H431 0.960 . S
C429 H432 0.961 . S
H430 C429 0.959 . S
H431 C429 0.960 . S
H432 C429 0.961 . S
O433 Co408 1.967 . S
O433 C441 1.258 . S
O434 Co409 1.941 . S
O434 C441 1.266 . S
H435 C437 0.959 . S
H436 C437 0.961 . S
C437 C427 1.510 . S
C437 H435 0.959 . S
C437 H436 0.961 . S
C437 H438 0.960 . S
H438 C437 0.960 . S
H439 N419 0.862 . S
O440 Co408 1.920 . S
O440 C413 1.289 . S
C441 O433 1.258 . S
C441 O434 1.266 . S
Co442 O445 1.970 . S
Co442 N459 1.989 . S
Co442 O467 1.967 . S
Co442 O474 1.920 . S
Co443 O446 1.966 . S
Co443 N452 2.022 . S
Co443 N460 1.993 . S
Co443 O468 1.941 . S
C444 O445 1.258 . S
C444 O446 1.263 . S
O445 Co442 1.970 . S
O445 C444 1.258 . S
O446 Co443 1.966 . S
O446 C444 1.263 . S
C447 O448 1.235 . S
C447 O474 1.289 1_455 S
O448 C447 1.235 . S
C449 C451 1.400 . S
C449 N452 1.351 . S
C449 C454 1.501 . S
C450 C451 1.387 . S
C450 N453 1.341 . S
C451 C449 1.400 . S
C451 C450 1.387 . S
N452 Co443 2.022 . S
N452 C449 1.351 . S
N452 N453 1.365 . S
N453 C450 1.341 . S
N453 N452 1.365 . S
N453 H473 0.862 . S
C454 C449 1.501 . S
C454 H455 0.961 . S
C454 H456 0.961 . S
C454 H457 0.960 . S
H455 C454 0.961 . S
H456 C454 0.961 . S
H457 C454 0.960 . S
C458 N459 1.342 . S
C458 C462 1.401 . S
C458 C463 1.499 1_655 S
N459 Co442 1.989 . S
N459 C458 1.342 . S
N459 N460 1.388 . S
N460 Co443 1.993 . S
N460 N459 1.388 . S
N460 C461 1.346 . S
C461 N460 1.346 . S
C461 C462 1.396 . S
C461 C471 1.510 . S
C462 C458 1.401 . S
C462 C461 1.396 . S
C463 C458 1.499 1_455 S
C463 H464 0.959 . S
C463 H465 0.960 . S
C463 H466 0.961 1_455 S
H464 C463 0.959 . S
H465 C463 0.960 . S
H466 C463 0.961 1_655 S
O467 Co442 1.967 . S
O467 C475 1.258 . S
O468 Co443 1.941 . S
O468 C475 1.266 . S
H469 C471 0.959 . S
H470 C471 0.961 . S
C471 C461 1.510 . S
C471 H469 0.959 . S
C471 H470 0.961 . S
C471 H472 0.960 . S
H472 C471 0.960 . S
H473 N453 0.862 . S
O474 Co442 1.920 . S
O474 C447 1.289 1_655 S
C475 O467 1.258 . S
C475 O468 1.266 . S
Co476 O479 1.970 . S
Co476 N493 1.989 . S
Co476 O501 1.967 . S
Co476 O508 1.920 . S
Co477 O480 1.966 . S
Co477 N486 2.022 . S
Co477 N494 1.993 . S
Co477 O502 1.941 . S
C478 O479 1.258 . S
C478 O480 1.263 . S
O479 Co476 1.970 . S
O479 C478 1.258 . S
O480 Co477 1.966 . S
O480 C478 1.263 . S
C481 O482 1.235 . S
C481 O508 1.289 1_545 S
O482 C481 1.235 . S
C483 C485 1.400 . S
C483 N486 1.351 . S
C483 C488 1.501 . S
C484 C485 1.387 . S
C484 N487 1.341 . S
C485 C483 1.400 . S
C485 C484 1.387 . S
N486 Co477 2.022 . S
N486 C483 1.351 . S
N486 N487 1.365 . S
N487 C484 1.341 . S
N487 N486 1.365 . S
N487 H507 0.862 . S
C488 C483 1.501 . S
C488 H489 0.961 . S
C488 H490 0.961 . S
C488 H491 0.960 . S
H489 C488 0.961 . S
H490 C488 0.961 . S
H491 C488 0.960 . S
C492 N493 1.342 . S
C492 C496 1.401 . S
C492 C497 1.499 1_565 S
N493 Co476 1.989 . S
N493 C492 1.342 . S
N493 N494 1.388 . S
N494 Co477 1.993 . S
N494 N493 1.388 . S
N494 C495 1.346 . S
C495 N494 1.346 . S
C495 C496 1.396 . S
C495 C505 1.510 . S
C496 C492 1.401 . S
C496 C495 1.396 . S
C497 C492 1.499 1_545 S
C497 H498 0.959 . S
C497 H499 0.960 . S
C497 H500 0.961 1_545 S
H498 C497 0.959 . S
H499 C497 0.960 . S
H500 C497 0.961 1_565 S
O501 Co476 1.967 . S
O501 C509 1.258 . S
O502 Co477 1.941 . S
O502 C509 1.266 . S
H503 C505 0.959 . S
H504 C505 0.961 . S
C505 C495 1.510 . S
C505 H503 0.959 . S
C505 H504 0.961 . S
C505 H506 0.960 . S
H506 C505 0.960 . S
H507 N487 0.862 . S
O508 Co476 1.920 . S
O508 C481 1.289 1_565 S
C509 O501 1.258 . S
C509 O502 1.266 . S
Co510 O513 1.970 . S
Co510 N527 1.989 . S
Co510 O535 1.967 . S
Co510 O542 1.920 . S
Co511 O514 1.966 . S
Co511 N520 2.022 . S
Co511 N528 1.993 . S
Co511 O536 1.941 . S
C512 O513 1.258 . S
C512 O514 1.263 . S
O513 Co510 1.970 . S
O513 C512 1.258 . S
O514 Co511 1.966 . S
O514 C512 1.263 . S
C515 O516 1.235 . S
C515 O542 1.289 . S
O516 C515 1.235 . S
C517 C519 1.400 . S
C517 N520 1.351 . S
C517 C522 1.501 . S
C518 C519 1.387 . S
C518 N521 1.341 . S
C519 C517 1.400 . S
C519 C518 1.387 . S
N520 Co511 2.022 . S
N520 C517 1.351 . S
N520 N521 1.365 . S
N521 C518 1.341 . S
N521 N520 1.365 . S
N521 H541 0.862 . S
C522 C517 1.501 . S
C522 H523 0.961 . S
C522 H524 0.961 . S
C522 H525 0.960 . S
H523 C522 0.961 . S
H524 C522 0.961 . S
H525 C522 0.960 . S
C526 N527 1.342 . S
C526 C530 1.401 . S
C526 C531 1.499 . S
N527 Co510 1.989 . S
N527 C526 1.342 . S
N527 N528 1.388 . S
N528 Co511 1.993 . S
N528 N527 1.388 . S
N528 C529 1.346 . S
C529 N528 1.346 . S
C529 C530 1.396 . S
C529 C539 1.510 . S
C530 C526 1.401 . S
C530 C529 1.396 . S
C531 C526 1.499 . S
C531 H532 0.959 . S
C531 H533 0.960 . S
C531 H534 0.961 . S
H532 C531 0.959 . S
H533 C531 0.960 . S
H534 C531 0.961 . S
O535 Co510 1.967 . S
O535 C543 1.258 . S
O536 Co511 1.941 . S
O536 C543 1.266 . S
H537 C539 0.959 . S
H538 C539 0.961 . S
C539 C529 1.510 . S
C539 H537 0.959 . S
C539 H538 0.961 . S
C539 H540 0.960 . S
H540 C539 0.960 . S
H541 N521 0.862 . S
O542 Co510 1.920 . S
O542 C515 1.289 . S
C543 O535 1.258 . S
C543 O536 1.266 . S
C544 C545 1.391 . S
C544 C546 1.394 . S
C544 H560 0.931 . S
C545 C544 1.391 . S
C545 C549 1.376 . S
C546 C544 1.394 . S
C546 C547 1.369 . S
C546 C550 1.531 . S
C547 C546 1.369 . S
C547 C548 1.410 . S
C547 C555 1.503 . S
C548 C547 1.410 . S
C548 C549 1.392 . S
C548 C551 1.511 . S
C549 C545 1.376 . S
C549 C548 1.392 . S
C549 H561 0.929 . S
C550 C546 1.531 . S
C550 H562 0.960 . S
C550 H563 0.962 . S
C550 H564 0.960 . S
C551 C548 1.511 . S
C551 H565 0.961 . S
C551 H566 0.961 . S
C551 H567 0.961 . S
C552 C553 1.370 . S
C552 C554 1.363 . S
C552 H568 0.931 . S
C553 C552 1.370 . S
C553 C557 1.408 . S
C554 C552 1.363 . S
C554 C555 1.370 . S
C554 C558 1.524 . S
C555 C547 1.503 . S
C555 C554 1.370 . S
C555 C556 1.403 . S
C556 C555 1.403 . S
C556 C557 1.404 . S
C556 C559 1.539 . S
C557 C553 1.408 . S
C557 C556 1.404 . S
C557 H569 0.930 . S
C558 C554 1.524 . S
C558 H570 0.956 . S
C558 H571 0.961 . S
C558 H572 0.961 . S
C559 C556 1.539 . S
C559 H573 0.958 . S
C559 H574 0.961 . S
C559 H575 0.960 . S
H560 C544 0.931 . S
H561 C549 0.929 . S
H562 C550 0.960 . S
H563 C550 0.962 . S
H564 C550 0.960 . S
H565 C551 0.961 . S
H566 C551 0.961 . S
H567 C551 0.961 . S
H568 C552 0.931 . S
H569 C557 0.930 . S
H570 C558 0.956 . S
H571 C558 0.961 . S
H572 C558 0.961 . S
H573 C559 0.958 . S
H574 C559 0.961 . S
H575 C559 0.960 . S
C576 C577 1.391 . S
C576 C578 1.394 . S
C576 H592 0.931 . S
C577 C576 1.391 . S
C577 C581 1.376 . S
C578 C576 1.394 . S
C578 C579 1.369 . S
C578 C582 1.531 . S
C579 C578 1.369 . S
C579 C580 1.410 . S
C579 C587 1.503 . S
C580 C579 1.410 . S
C580 C581 1.392 . S
C580 C583 1.511 . S
C581 C577 1.376 . S
C581 C580 1.392 . S
C581 H593 0.929 . S
C582 C578 1.531 . S
C582 H594 0.960 . S
C582 H595 0.962 . S
C582 H596 0.960 . S
C583 C580 1.511 . S
C583 H597 0.961 . S
C583 H598 0.961 . S
C583 H599 0.961 . S
C584 C585 1.370 . S
C584 C586 1.363 . S
C584 H600 0.931 . S
C585 C584 1.370 . S
C585 C589 1.408 . S
C586 C584 1.363 . S
C586 C587 1.370 . S
C586 C590 1.524 . S
C587 C579 1.503 . S
C587 C586 1.370 . S
C587 C588 1.403 . S
C588 C587 1.403 . S
C588 C589 1.404 . S
C588 C591 1.539 . S
C589 C585 1.408 . S
C589 C588 1.404 . S
C589 H601 0.930 . S
C590 C586 1.524 . S
C590 H602 0.956 . S
C590 H603 0.961 . S
C590 H604 0.961 . S
C591 C588 1.539 . S
C591 H605 0.958 . S
C591 H606 0.961 . S
C591 H607 0.960 . S
H592 C576 0.931 . S
H593 C581 0.929 . S
H594 C582 0.960 . S
H595 C582 0.962 . S
H596 C582 0.960 . S
H597 C583 0.961 . S
H598 C583 0.961 . S
H599 C583 0.961 . S
H600 C584 0.931 . S
H601 C589 0.930 . S
H602 C590 0.956 . S
H603 C590 0.961 . S
H604 C590 0.961 . S
H605 C591 0.958 . S
H606 C591 0.961 . S
H607 C591 0.960 . S
C608 C609 1.391 . S
C608 C610 1.394 . S
C608 H624 0.931 . S
C609 C608 1.391 . S
C609 C613 1.376 . S
C610 C608 1.394 . S
C610 C611 1.369 . S
C610 C614 1.531 . S
C611 C610 1.369 . S
C611 C612 1.410 . S
C611 C619 1.503 . S
C612 C611 1.410 . S
C612 C613 1.392 . S
C612 C615 1.511 . S
C613 C609 1.376 . S
C613 C612 1.392 . S
C613 H625 0.929 . S
C614 C610 1.531 . S
C614 H626 0.960 . S
C614 H627 0.962 . S
C614 H628 0.960 . S
C615 C612 1.511 . S
C615 H629 0.961 . S
C615 H630 0.961 . S
C615 H631 0.961 . S
C616 C617 1.370 . S
C616 C618 1.363 . S
C616 H632 0.931 . S
C617 C616 1.370 . S
C617 C621 1.408 . S
C618 C616 1.363 . S
C618 C619 1.370 . S
C618 C622 1.524 . S
C619 C611 1.503 . S
C619 C618 1.370 . S
C619 C620 1.403 . S
C620 C619 1.403 . S
C620 C621 1.404 . S
C620 C623 1.539 . S
C621 C617 1.408 . S
C621 C620 1.404 . S
C621 H633 0.930 . S
C622 C618 1.524 . S
C622 H634 0.956 . S
C622 H635 0.961 . S
C622 H636 0.961 . S
C623 C620 1.539 . S
C623 H637 0.958 . S
C623 H638 0.961 . S
C623 H639 0.960 . S
H624 C608 0.931 . S
H625 C613 0.929 . S
H626 C614 0.960 . S
H627 C614 0.962 . S
H628 C614 0.960 . S
H629 C615 0.961 . S
H630 C615 0.961 . S
H631 C615 0.961 . S
H632 C616 0.931 . S
H633 C621 0.930 . S
H634 C622 0.956 . S
H635 C622 0.961 . S
H636 C622 0.961 . S
H637 C623 0.958 . S
H638 C623 0.961 . S
H639 C623 0.960 . S
C640 C641 1.391 . S
C640 C642 1.394 . S
C640 H656 0.931 . S
C641 C640 1.391 . S
C641 C645 1.376 . S
C642 C640 1.394 . S
C642 C643 1.369 . S
C642 C646 1.531 . S
C643 C642 1.369 . S
C643 C644 1.410 . S
C643 C651 1.503 . S
C644 C643 1.410 . S
C644 C645 1.392 . S
C644 C647 1.511 . S
C645 C641 1.376 . S
C645 C644 1.392 . S
C645 H657 0.929 . S
C646 C642 1.531 . S
C646 H658 0.960 . S
C646 H659 0.962 . S
C646 H660 0.960 . S
C647 C644 1.511 . S
C647 H661 0.961 . S
C647 H662 0.961 . S
C647 H663 0.961 . S
C648 C649 1.370 . S
C648 C650 1.363 . S
C648 H664 0.931 . S
C649 C648 1.370 . S
C649 C653 1.408 . S
C650 C648 1.363 . S
C650 C651 1.370 . S
C650 C654 1.524 . S
C651 C643 1.503 . S
C651 C650 1.370 . S
C651 C652 1.403 . S
C652 C651 1.403 . S
C652 C653 1.404 . S
C652 C655 1.539 . S
C653 C649 1.408 . S
C653 C652 1.404 . S
C653 H665 0.930 . S
C654 C650 1.524 . S
C654 H666 0.956 . S
C654 H667 0.961 . S
C654 H668 0.961 . S
C655 C652 1.539 . S
C655 H669 0.958 . S
C655 H670 0.961 . S
C655 H671 0.960 . S
H656 C640 0.931 . S
H657 C645 0.929 . S
H658 C646 0.960 . S
H659 C646 0.962 . S
H660 C646 0.960 . S
H661 C647 0.961 . S
H662 C647 0.961 . S
H663 C647 0.961 . S
H664 C648 0.931 . S
H665 C653 0.930 . S
H666 C654 0.956 . S
H667 C654 0.961 . S
H668 C654 0.961 . S
H669 C655 0.958 . S
H670 C655 0.961 . S
H671 C655 0.960 . S
C672 C673 1.391 . S
C672 C674 1.394 . S
C672 H688 0.931 . S
C673 C672 1.391 . S
C673 C677 1.376 . S
C674 C672 1.394 . S
C674 C675 1.369 . S
C674 C678 1.531 . S
C675 C674 1.369 . S
C675 C676 1.410 . S
C675 C683 1.503 . S
C676 C675 1.410 . S
C676 C677 1.392 . S
C676 C679 1.511 . S
C677 C673 1.376 . S
C677 C676 1.392 . S
C677 H689 0.929 . S
C678 C674 1.531 . S
C678 H690 0.960 . S
C678 H691 0.962 . S
C678 H692 0.960 . S
C679 C676 1.511 . S
C679 H693 0.961 . S
C679 H694 0.961 . S
C679 H695 0.961 . S
C680 C681 1.370 . S
C680 C682 1.363 . S
C680 H696 0.931 . S
C681 C680 1.370 . S
C681 C685 1.408 . S
C682 C680 1.363 . S
C682 C683 1.370 . S
C682 C686 1.524 . S
C683 C675 1.503 . S
C683 C682 1.370 . S
C683 C684 1.403 . S
C684 C683 1.403 . S
C684 C685 1.404 . S
C684 C687 1.539 . S
C685 C681 1.408 . S
C685 C684 1.404 . S
C685 H697 0.930 . S
C686 C682 1.524 . S
C686 H698 0.956 . S
C686 H699 0.961 . S
C686 H700 0.961 . S
C687 C684 1.539 . S
C687 H701 0.958 . S
C687 H702 0.961 . S
C687 H703 0.960 . S
H688 C672 0.931 . S
H689 C677 0.929 . S
H690 C678 0.960 . S
H691 C678 0.962 . S
H692 C678 0.960 . S
H693 C679 0.961 . S
H694 C679 0.961 . S
H695 C679 0.961 . S
H696 C680 0.931 . S
H697 C685 0.930 . S
H698 C686 0.956 . S
H699 C686 0.961 . S
H700 C686 0.961 . S
H701 C687 0.958 . S
H702 C687 0.961 . S
H703 C687 0.960 . S
C704 C705 1.391 . S
C704 C706 1.394 . S
C704 H720 0.931 . S
C705 C704 1.391 . S
C705 C709 1.376 . S
C706 C704 1.394 . S
C706 C707 1.369 . S
C706 C710 1.531 . S
C707 C706 1.369 . S
C707 C708 1.410 . S
C707 C715 1.503 . S
C708 C707 1.410 . S
C708 C709 1.392 . S
C708 C711 1.511 . S
C709 C705 1.376 . S
C709 C708 1.392 . S
C709 H721 0.929 . S
C710 C706 1.531 . S
C710 H722 0.960 . S
C710 H723 0.962 . S
C710 H724 0.960 . S
C711 C708 1.511 . S
C711 H725 0.961 . S
C711 H726 0.961 . S
C711 H727 0.961 . S
C712 C713 1.370 . S
C712 C714 1.363 . S
C712 H728 0.931 . S
C713 C712 1.370 . S
C713 C717 1.408 . S
C714 C712 1.363 . S
C714 C715 1.370 . S
C714 C718 1.524 . S
C715 C707 1.503 . S
C715 C714 1.370 . S
C715 C716 1.403 . S
C716 C715 1.403 . S
C716 C717 1.404 . S
C716 C719 1.539 . S
C717 C713 1.408 . S
C717 C716 1.404 . S
C717 H729 0.930 . S
C718 C714 1.524 . S
C718 H730 0.956 . S
C718 H731 0.961 . S
C718 H732 0.961 . S
C719 C716 1.539 . S
C719 H733 0.958 . S
C719 H734 0.961 . S
C719 H735 0.960 . S
H720 C704 0.931 . S
H721 C709 0.929 . S
H722 C710 0.960 . S
H723 C710 0.962 . S
H724 C710 0.960 . S
H725 C711 0.961 . S
H726 C711 0.961 . S
H727 C711 0.961 . S
H728 C712 0.931 . S
H729 C717 0.930 . S
H730 C718 0.956 . S
H731 C718 0.961 . S
H732 C718 0.961 . S
H733 C719 0.958 . S
H734 C719 0.961 . S
H735 C719 0.960 . S
C736 C737 1.391 . S
C736 C738 1.394 . S
C736 H752 0.953 . S
C737 C736 1.391 . S
C737 C741 1.376 . S
C738 C736 1.394 . S
C738 C739 1.369 . S
C738 C742 1.531 . S
C739 C738 1.369 . S
C739 C740 1.410 . S
C739 C747 1.503 . S
C740 C739 1.410 . S
C740 C741 1.392 . S
C740 C743 1.511 . S
C741 C737 1.376 . S
C741 C740 1.392 . S
C741 H753 0.929 . S
C742 C738 1.531 . S
C742 H754 0.960 . S
C742 H755 0.962 . S
C742 H756 0.960 . S
C743 C740 1.511 . S
C743 H757 0.961 . S
C743 H758 0.961 . S
C743 H759 0.961 . S
C744 C745 1.370 . S
C744 C746 1.363 . S
C744 H760 0.931 . S
C745 C744 1.370 . S
C745 C749 1.408 . S
C746 C744 1.363 . S
C746 C747 1.370 . S
C746 C750 1.524 . S
C747 C739 1.503 . S
C747 C746 1.370 . S
C747 C748 1.403 . S
C748 C747 1.403 . S
C748 C749 1.404 . S
C748 C751 1.539 . S
C749 C745 1.408 . S
C749 C748 1.404 . S
C749 H761 0.930 . S
C750 C746 1.524 . S
C750 H762 0.956 . S
C750 H763 0.961 . S
C750 H764 0.961 . S
C751 C748 1.539 . S
C751 H765 0.958 . S
C751 H766 0.961 . S
C751 H767 0.960 . S
H752 C736 0.953 . S
H753 C741 0.929 . S
H754 C742 0.960 . S
H755 C742 0.962 . S
H756 C742 0.960 . S
H757 C743 0.961 . S
H758 C743 0.961 . S
H759 C743 0.961 . S
H760 C744 0.931 . S
H761 C749 0.930 . S
H762 C750 0.956 . S
H763 C750 0.961 . S
H764 C750 0.961 . S
H765 C751 0.958 . S
H766 C751 0.961 . S
H767 C751 0.960 . S
C768 C769 1.391 . S
C768 C770 1.394 . S
C768 H784 0.931 . S
C769 C768 1.391 . S
C769 C773 1.376 . S
C770 C768 1.394 . S
C770 C771 1.369 . S
C770 C774 1.531 . S
C771 C770 1.369 . S
C771 C772 1.410 . S
C771 C779 1.503 . S
C772 C771 1.410 . S
C772 C773 1.392 . S
C772 C775 1.511 . S
C773 C769 1.376 . S
C773 C772 1.392 . S
C773 H785 0.929 . S
C774 C770 1.531 . S
C774 H786 0.960 . S
C774 H787 0.962 . S
C774 H788 0.960 . S
C775 C772 1.511 . S
C775 H789 0.961 . S
C775 H790 0.961 . S
C775 H791 0.961 . S
C776 C777 1.370 . S
C776 C778 1.363 . S
C776 H792 0.931 . S
C777 C776 1.370 . S
C777 C781 1.408 . S
C778 C776 1.363 . S
C778 C779 1.370 . S
C778 C782 1.524 . S
C779 C771 1.503 . S
C779 C778 1.370 . S
C779 C780 1.403 . S
C780 C779 1.403 . S
C780 C781 1.404 . S
C780 C783 1.539 . S
C781 C777 1.408 . S
C781 C780 1.404 . S
C781 H793 0.930 . S
C782 C778 1.524 . S
C782 H794 0.956 . S
C782 H795 0.961 . S
C782 H796 0.961 . S
C783 C780 1.539 . S
C783 H797 0.958 . S
C783 H798 0.961 . S
C783 H799 0.960 . S
H784 C768 0.931 . S
H785 C773 0.929 . S
H786 C774 0.960 . S
H787 C774 0.962 . S
H788 C774 0.960 . S
H789 C775 0.961 . S
H790 C775 0.961 . S
H791 C775 0.961 . S
H792 C776 0.931 . S
H793 C781 0.930 . S
H794 C782 0.956 . S
H795 C782 0.961 . S
H796 C782 0.961 . S
H797 C783 0.958 . S
H798 C783 0.961 . S
H799 C783 0.960 . S
C800 C801 1.391 . S
C800 C802 1.394 . S
C800 H816 0.931 . S
C801 C800 1.391 . S
C801 C805 1.376 . S
C802 C800 1.394 . S
C802 C803 1.369 . S
C802 C806 1.531 . S
C803 C802 1.369 . S
C803 C804 1.410 . S
C803 C811 1.503 . S
C804 C803 1.410 . S
C804 C805 1.392 . S
C804 C807 1.511 . S
C805 C801 1.376 . S
C805 C804 1.392 . S
C805 H817 0.929 . S
C806 C802 1.531 . S
C806 H818 0.960 . S
C806 H819 0.962 . S
C806 H820 0.960 . S
C807 C804 1.511 . S
C807 H821 0.961 . S
C807 H822 0.961 . S
C807 H823 0.961 . S
C808 C809 1.370 . S
C808 C810 1.363 . S
C808 H824 0.931 . S
C809 C808 1.370 . S
C809 C813 1.408 . S
C810 C808 1.363 . S
C810 C811 1.370 . S
C810 C814 1.524 . S
C811 C803 1.503 . S
C811 C810 1.370 . S
C811 C812 1.403 . S
C812 C811 1.403 . S
C812 C813 1.404 . S
C812 C815 1.539 1_545 S
C813 C809 1.408 . S
C813 C812 1.404 . S
C813 H825 0.930 . S
C814 C810 1.524 . S
C814 H826 0.956 . S
C814 H827 0.961 . S
C814 H828 0.961 . S
C815 C812 1.539 1_565 S
C815 H829 0.958 . S
C815 H830 0.961 . S
C815 H831 0.960 . S
H816 C800 0.931 . S
H817 C805 0.929 . S
H818 C806 0.960 . S
H819 C806 0.962 . S
H820 C806 0.960 . S
H821 C807 0.961 . S
H822 C807 0.961 . S
H823 C807 0.961 . S
H824 C808 0.931 . S
H825 C813 0.930 . S
H826 C814 0.956 . S
H827 C814 0.961 . S
H828 C814 0.961 . S
H829 C815 0.958 . S
H830 C815 0.961 . S
H831 C815 0.960 . S
C832 C833 1.391 . S
C832 C834 1.394 . S
C832 H848 0.931 . S
C833 C832 1.391 . S
C833 C837 1.376 . S
C834 C832 1.394 . S
C834 C835 1.369 . S
C834 C838 1.531 . S
C835 C834 1.369 . S
C835 C836 1.410 . S
C835 C843 1.503 . S
C836 C835 1.410 . S
C836 C837 1.392 . S
C836 C839 1.511 . S
C837 C833 1.376 . S
C837 C836 1.392 . S
C837 H849 0.929 . S
C838 C834 1.531 . S
C838 H850 0.960 . S
C838 H851 0.962 . S
C838 H852 0.960 . S
C839 C836 1.511 . S
C839 H853 0.961 . S
C839 H854 0.961 . S
C839 H855 0.961 . S
C840 C841 1.370 . S
C840 C842 1.363 . S
C840 H856 0.931 . S
C841 C840 1.370 . S
C841 C845 1.408 . S
C842 C840 1.363 . S
C842 C843 1.370 . S
C842 C846 1.524 . S
C843 C835 1.503 . S
C843 C842 1.370 . S
C843 C844 1.403 . S
C844 C843 1.403 . S
C844 C845 1.404 . S
C844 C847 1.539 . S
C845 C841 1.408 . S
C845 C844 1.404 . S
C845 H857 0.930 . S
C846 C842 1.524 . S
C846 H858 0.956 . S
C846 H859 0.961 . S
C846 H860 0.961 . S
C847 C844 1.539 . S
C847 H861 0.958 . S
C847 H862 0.961 . S
C847 H863 0.960 . S
H848 C832 0.931 . S
H849 C837 0.929 . S
H850 C838 0.960 . S
H851 C838 0.962 . S
H852 C838 0.960 . S
H853 C839 0.961 . S
H854 C839 0.961 . S
H855 C839 0.961 . S
H856 C840 0.931 . S
H857 C845 0.930 . S
H858 C846 0.956 . S
H859 C846 0.961 . S
H860 C846 0.961 . S
H861 C847 0.958 . S
H862 C847 0.961 . S
H863 C847 0.960 . S
C864 C865 1.391 . S
C864 C866 1.394 . S
C864 H880 0.931 . S
C865 C864 1.391 . S
C865 C869 1.376 . S
C866 C864 1.394 . S
C866 C867 1.369 . S
C866 C870 1.531 . S
C867 C866 1.369 . S
C867 C868 1.410 . S
C867 C875 1.503 . S
C868 C867 1.410 . S
C868 C869 1.392 . S
C868 C871 1.511 . S
C869 C865 1.376 . S
C869 C868 1.392 . S
C869 H881 0.929 . S
C870 C866 1.531 . S
C870 H882 0.960 . S
C870 H883 0.962 . S
C870 H884 0.960 . S
C871 C868 1.511 . S
C871 H885 0.961 . S
C871 H886 0.961 . S
C871 H887 0.961 . S
C872 C873 1.370 . S
C872 C874 1.363 . S
C872 H888 0.931 . S
C873 C872 1.370 . S
C873 C877 1.408 . S
C874 C872 1.363 . S
C874 C875 1.370 . S
C874 C878 1.524 . S
C875 C867 1.503 . S
C875 C874 1.370 . S
C875 C876 1.403 . S
C876 C875 1.403 . S
C876 C877 1.404 . S
C876 C879 1.539 . S
C877 C873 1.408 . S
C877 C876 1.404 . S
C877 H889 0.930 . S
C878 C874 1.524 . S
C878 H890 0.956 . S
C878 H891 0.961 . S
C878 H892 0.961 . S
C879 C876 1.539 . S
C879 H893 0.958 . S
C879 H894 0.961 . S
C879 H895 0.960 . S
H880 C864 0.931 . S
H881 C869 0.929 . S
H882 C870 0.960 . S
H883 C870 0.962 . S
H884 C870 0.960 . S
H885 C871 0.961 . S
H886 C871 0.961 . S
H887 C871 0.961 . S
H888 C872 0.931 . S
H889 C877 0.930 . S
H890 C878 0.956 . S
H891 C878 0.961 . S
H892 C878 0.961 . S
H893 C879 0.958 . S
H894 C879 0.961 . S
H895 C879 0.960 . S
C896 C897 1.391 . S
C896 C898 1.394 . S
C896 H912 0.931 . S
C897 C896 1.391 . S
C897 C901 1.376 . S
C898 C896 1.394 . S
C898 C899 1.369 . S
C898 C902 1.531 . S
C899 C898 1.369 . S
C899 C900 1.410 . S
C899 C907 1.503 . S
C900 C899 1.410 . S
C900 C901 1.392 . S
C900 C903 1.511 . S
C901 C897 1.376 . S
C901 C900 1.392 . S
C901 H913 0.929 . S
C902 C898 1.531 . S
C902 H914 0.960 . S
C902 H915 0.962 . S
C902 H916 0.960 . S
C903 C900 1.511 . S
C903 H917 0.961 . S
C903 H918 0.961 . S
C903 H919 0.961 . S
C904 C905 1.370 . S
C904 C906 1.363 . S
C904 H920 0.931 . S
C905 C904 1.370 . S
C905 C909 1.408 . S
C906 C904 1.363 . S
C906 C907 1.370 . S
C906 C910 1.524 . S
C907 C899 1.503 . S
C907 C906 1.370 . S
C907 C908 1.403 . S
C908 C907 1.403 . S
C908 C909 1.404 . S
C908 C911 1.539 . S
C909 C905 1.408 . S
C909 C908 1.404 . S
C909 H921 0.930 . S
C910 C906 1.524 . S
C910 H922 0.956 1_455 S
C910 H923 0.961 . S
C910 H924 0.961 1_455 S
C911 C908 1.539 . S
C911 H925 0.958 . S
C911 H926 0.961 . S
C911 H927 0.960 . S
H912 C896 0.931 . S
H913 C901 0.929 . S
H914 C902 0.960 . S
H915 C902 0.962 . S
H916 C902 0.960 . S
H917 C903 0.961 . S
H918 C903 0.961 . S
H919 C903 0.961 . S
H920 C904 0.931 . S
H921 C909 0.930 . S
H922 C910 0.956 1_655 S
H923 C910 0.961 . S
H924 C910 0.961 1_655 S
H925 C911 0.958 . S
H926 C911 0.961 . S
H927 C911 0.960 . S
C928 C929 1.391 . S
C928 C930 1.394 . S
C928 H944 0.931 . S
C929 C928 1.391 . S
C929 C933 1.376 . S
C930 C928 1.394 . S
C930 C931 1.369 . S
C930 C934 1.531 . S
C931 C930 1.369 . S
C931 C932 1.410 . S
C931 C939 1.503 . S
C932 C931 1.410 . S
C932 C933 1.392 . S
C932 C935 1.511 . S
C933 C929 1.376 . S
C933 C932 1.392 . S
C933 H945 0.929 . S
C934 C930 1.531 . S
C934 H946 0.960 . S
C934 H947 0.962 . S
C934 H948 0.960 1_565 S
C935 C932 1.511 . S
C935 H949 0.961 . S
C935 H950 0.961 . S
C935 H951 0.961 . S
C936 C937 1.370 . S
C936 C938 1.363 . S
C936 H952 0.931 . S
C937 C936 1.370 . S
C937 C941 1.408 . S
C938 C936 1.363 . S
C938 C939 1.370 . S
C938 C942 1.524 . S
C939 C931 1.503 . S
C939 C938 1.370 . S
C939 C940 1.403 . S
C940 C939 1.403 . S
C940 C941 1.404 . S
C940 C943 1.539 1_565 S
C941 C937 1.408 . S
C941 C940 1.404 . S
C941 H953 0.930 . S
C942 C938 1.524 . S
C942 H954 0.956 . S
C942 H955 0.961 . S
C942 H956 0.961 . S
C943 C940 1.539 1_545 S
C943 H957 0.958 . S
C943 H958 0.961 . S
C943 H959 0.950 1_545 S
H944 C928 0.931 . S
H945 C933 0.929 . S
H946 C934 0.960 . S
H947 C934 0.962 . S
H948 C934 0.960 1_545 S
H949 C935 0.961 . S
H950 C935 0.961 . S
H951 C935 0.961 . S
H952 C936 0.931 . S
H953 C941 0.930 . S
H954 C942 0.956 . S
H955 C942 0.961 . S
H956 C942 0.961 . S
H957 C943 0.958 . S
H958 C943 0.961 . S
H959 C943 0.950 1_565 S
C960 C961 1.391 . S
C960 C962 1.394 . S
C960 H976 0.931 . S
C961 C960 1.391 . S
C961 C965 1.376 . S
C962 C960 1.394 . S
C962 C963 1.369 . S
C962 C966 1.531 . S
C963 C962 1.369 . S
C963 C964 1.410 . S
C963 C971 1.503 . S
C964 C963 1.410 . S
C964 C965 1.392 . S
C964 C967 1.511 . S
C965 C961 1.376 . S
C965 C964 1.392 . S
C965 H977 0.929 . S
C966 C962 1.531 . S
C966 H978 0.960 . S
C966 H979 0.962 . S
C966 H980 0.960 . S
C967 C964 1.511 . S
C967 H981 0.961 . S
C967 H982 0.961 . S
C967 H983 0.961 . S
C968 C969 1.370 . S
C968 C970 1.363 . S
C968 H984 0.931 . S
C969 C968 1.370 . S
C969 C973 1.408 . S
C970 C968 1.363 . S
C970 C971 1.370 . S
C970 C974 1.524 . S
C971 C963 1.503 . S
C971 C970 1.370 . S
C971 C972 1.403 . S
C972 C971 1.403 . S
C972 C973 1.404 . S
C972 C975 1.539 . S
C973 C969 1.408 . S
C973 C972 1.404 . S
C973 H985 0.930 . S
C974 C970 1.524 . S
C974 H986 0.956 . S
C974 H987 0.961 . S
C974 H988 0.961 . S
C975 C972 1.539 . S
C975 H989 0.958 . S
C975 H990 0.961 . S
C975 H991 0.960 . S
H976 C960 0.931 . S
H977 C965 0.929 . S
H978 C966 0.960 . S
H979 C966 0.962 . S
H980 C966 0.960 . S
H981 C967 0.961 . S
H982 C967 0.961 . S
H983 C967 0.961 . S
H984 C968 0.931 . S
H985 C973 0.930 . S
H986 C974 0.956 . S
H987 C974 0.961 . S
H988 C974 0.961 . S
H989 C975 0.958 . S
H990 C975 0.961 . S
H991 C975 0.960 . S
C992 C993 1.391 . S
C992 C994 1.394 . S
C992 H1008 0.931 . S
C993 C992 1.391 . S
C993 C997 1.376 . S
C994 C992 1.394 . S
C994 C995 1.369 . S
C994 C998 1.531 . S
C995 C994 1.369 . S
C995 C996 1.410 . S
C995 C1003 1.503 . S
C996 C995 1.410 . S
C996 C997 1.392 . S
C996 C999 1.511 . S
C997 C993 1.376 . S
C997 C996 1.392 . S
C997 H1009 0.929 . S
C998 C994 1.531 . S
C998 H1010 0.960 . S
C998 H1011 0.962 . S
C998 H1012 0.960 . S
C999 C996 1.511 . S
C999 H1013 0.961 . S
C999 H1014 0.961 . S
C999 H1015 0.961 . S
C1000 C1001 1.370 . S
C1000 C1002 1.363 . S
C1000 H1016 0.931 . S
C1001 C1000 1.370 . S
C1001 C1005 1.408 . S
C1002 C1000 1.363 . S
C1002 C1003 1.370 . S
C1002 C1006 1.524 . S
C1003 C995 1.503 . S
C1003 C1002 1.370 . S
C1003 C1004 1.403 . S
C1004 C1003 1.403 . S
C1004 C1005 1.404 . S
C1004 C1007 1.539 . S
C1005 C1001 1.408 . S
C1005 C1004 1.404 . S
C1005 H1017 0.930 . S
C1006 C1002 1.524 . S
C1006 H1018 0.956 . S
C1006 H1019 0.961 . S
C1006 H1020 0.961 . S
C1007 C1004 1.539 . S
C1007 H1021 0.958 . S
C1007 H1022 0.961 . S
C1007 H1023 0.960 . S
H1008 C992 0.931 . S
H1009 C997 0.929 . S
H1010 C998 0.960 . S
H1011 C998 0.962 . S
H1012 C998 0.960 . S
H1013 C999 0.961 . S
H1014 C999 0.961 . S
H1015 C999 0.961 . S
H1016 C1000 0.931 . S
H1017 C1005 0.930 . S
H1018 C1006 0.956 . S
H1019 C1006 0.961 . S
H1020 C1006 0.961 . S
H1021 C1007 0.958 . S
H1022 C1007 0.961 . S
H1023 C1007 0.960 . S
C1024 C1025 1.391 . S
C1024 C1026 1.394 . S
C1024 H1040 0.931 . S
C1025 C1024 1.391 . S
C1025 C1029 1.376 . S
C1026 C1024 1.394 . S
C1026 C1027 1.369 . S
C1026 C1030 1.531 . S
C1027 C1026 1.369 . S
C1027 C1028 1.410 . S
C1027 C1035 1.503 . S
C1028 C1027 1.410 . S
C1028 C1029 1.392 . S
C1028 C1031 1.511 . S
C1029 C1025 1.376 . S
C1029 C1028 1.392 . S
C1029 H1041 0.929 . S
C1030 C1026 1.531 . S
C1030 H1042 0.960 . S
C1030 H1043 0.962 . S
C1030 H1044 0.960 . S
C1031 C1028 1.511 . S
C1031 H1045 0.961 . S
C1031 H1046 0.961 . S
C1031 H1047 0.961 . S
C1032 C1033 1.370 . S
C1032 C1034 1.363 . S
C1032 H1048 0.931 . S
C1033 C1032 1.370 . S
C1033 C1037 1.408 . S
C1034 C1032 1.363 . S
C1034 C1035 1.370 . S
C1034 C1038 1.524 . S
C1035 C1027 1.503 . S
C1035 C1034 1.370 . S
C1035 C1036 1.403 . S
C1036 C1035 1.403 . S
C1036 C1037 1.404 . S
C1036 C1039 1.539 . S
C1037 C1033 1.408 . S
C1037 C1036 1.404 . S
C1037 H1049 0.930 . S
C1038 C1034 1.524 . S
C1038 H1050 0.956 1_655 S
C1038 H1051 0.961 . S
C1038 H1052 0.961 1_655 S
C1039 C1036 1.539 . S
C1039 H1053 0.958 . S
C1039 H1054 0.961 . S
C1039 H1055 0.960 . S
H1040 C1024 0.931 . S
H1041 C1029 0.929 . S
H1042 C1030 0.960 . S
H1043 C1030 0.962 . S
H1044 C1030 0.960 . S
H1045 C1031 0.961 . S
H1046 C1031 0.961 . S
H1047 C1031 0.961 . S
H1048 C1032 0.931 . S
H1049 C1037 0.930 . S
H1050 C1038 0.956 1_455 S
H1051 C1038 0.961 . S
H1052 C1038 0.961 1_455 S
H1053 C1039 0.958 . S
H1054 C1039 0.961 . S
H1055 C1039 0.960 . S
C1056 C1057 1.391 . S
C1056 C1058 1.394 . S
C1056 H1072 0.931 . S
C1057 C1056 1.391 . S
C1057 C1061 1.376 . S
C1058 C1056 1.394 . S
C1058 C1059 1.369 . S
C1058 C1062 1.531 . S
C1059 C1058 1.369 . S
C1059 C1060 1.410 . S
C1059 C1067 1.503 . S
C1060 C1059 1.410 . S
C1060 C1061 1.392 . S
C1060 C1063 1.511 . S
C1061 C1057 1.376 . S
C1061 C1060 1.392 . S
C1061 H1073 0.929 . S
C1062 C1058 1.531 . S
C1062 H1074 0.960 . S
C1062 H1075 0.962 . S
C1062 H1076 0.960 . S
C1063 C1060 1.511 . S
C1063 H1077 0.961 . S
C1063 H1078 0.961 . S
C1063 H1079 0.961 . S
C1064 C1065 1.370 . S
C1064 C1066 1.363 . S
C1064 H1080 0.931 . S
C1065 C1064 1.370 . S
C1065 C1069 1.408 . S
C1066 C1064 1.363 . S
C1066 C1067 1.370 . S
C1066 C1070 1.524 . S
C1067 C1059 1.503 . S
C1067 C1066 1.370 . S
C1067 C1068 1.403 . S
C1068 C1067 1.403 . S
C1068 C1069 1.404 . S
C1068 C1071 1.539 . S
C1069 C1065 1.408 . S
C1069 C1068 1.404 . S
C1069 H1081 0.930 . S
C1070 C1066 1.524 . S
C1070 H1082 0.956 . S
C1070 H1083 0.961 . S
C1070 H1084 0.961 . S
C1071 C1068 1.539 . S
C1071 H1085 0.958 . S
C1071 H1086 0.961 . S
C1071 H1087 0.960 . S
H1072 C1056 0.931 . S
H1073 C1061 0.929 . S
H1074 C1062 0.960 . S
H1075 C1062 0.962 . S
H1076 C1062 0.960 . S
H1077 C1063 0.961 . S
H1078 C1063 0.961 . S
H1079 C1063 0.961 . S
H1080 C1064 0.931 . S
H1081 C1069 0.930 . S
H1082 C1070 0.956 . S
H1083 C1070 0.961 . S
H1084 C1070 0.961 . S
H1085 C1071 0.958 . S
H1086 C1071 0.961 . S
H1087 C1071 0.960 . S
C1088 C1089 1.391 . S
C1088 C1090 1.394 . S
C1088 H1104 0.931 . S
C1089 C1088 1.391 . S
C1089 C1093 1.376 . S
C1090 C1088 1.394 . S
C1090 C1091 1.369 . S
C1090 C1094 1.531 . S
C1091 C1090 1.369 . S
C1091 C1092 1.410 . S
C1091 C1099 1.503 . S
C1092 C1091 1.410 . S
C1092 C1093 1.392 . S
C1092 C1095 1.511 . S
C1093 C1089 1.376 . S
C1093 C1092 1.392 . S
C1093 H1105 0.929 . S
C1094 C1090 1.531 . S
C1094 H1106 0.960 . S
C1094 H1107 0.962 . S
C1094 H1108 0.960 . S
C1095 C1092 1.511 . S
C1095 H1109 0.961 . S
C1095 H1110 0.961 . S
C1095 H1111 0.961 . S
C1096 C1097 1.370 . S
C1096 C1098 1.363 . S
C1096 H1112 0.931 . S
C1097 C1096 1.370 . S
C1097 C1101 1.408 . S
C1098 C1096 1.363 . S
C1098 C1099 1.370 . S
C1098 C1102 1.524 . S
C1099 C1091 1.503 . S
C1099 C1098 1.370 . S
C1099 C1100 1.403 . S
C1100 C1099 1.403 . S
C1100 C1101 1.404 . S
C1100 C1103 1.539 . S
C1101 C1097 1.408 . S
C1101 C1100 1.404 . S
C1101 H1113 0.930 . S
C1102 C1098 1.524 . S
C1102 H1114 0.956 . S
C1102 H1115 0.961 . S
C1102 H1116 0.961 . S
C1103 C1100 1.539 . S
C1103 H1117 0.958 . S
C1103 H1118 0.961 . S
C1103 H1119 0.960 . S
H1104 C1088 0.931 . S
H1105 C1093 0.929 . S
H1106 C1094 0.960 . S
H1107 C1094 0.962 . S
H1108 C1094 0.960 . S
H1109 C1095 0.961 . S
H1110 C1095 0.961 . S
H1111 C1095 0.961 . S
H1112 C1096 0.931 . S
H1113 C1101 0.930 . S
H1114 C1102 0.956 . S
H1115 C1102 0.961 . S
H1116 C1102 0.961 . S
H1117 C1103 0.958 . S
H1118 C1103 0.961 . S
H1119 C1103 0.960 . S
C1120 C1121 1.391 . S
C1120 C1122 1.394 . S
C1120 H1136 0.931 . S
C1121 C1120 1.391 . S
C1121 C1125 1.376 . S
C1122 C1120 1.394 . S
C1122 C1123 1.369 . S
C1122 C1126 1.531 . S
C1123 C1122 1.369 . S
C1123 C1124 1.410 . S
C1123 C1131 1.503 . S
C1124 C1123 1.410 . S
C1124 C1125 1.392 . S
C1124 C1127 1.511 . S
C1125 C1121 1.376 . S
C1125 C1124 1.392 . S
C1125 H1137 0.929 . S
C1126 C1122 1.531 . S
C1126 H1138 0.960 . S
C1126 H1139 0.962 . S
C1126 H1140 0.960 . S
C1127 C1124 1.511 . S
C1127 H1141 0.961 . S
C1127 H1142 0.961 . S
C1127 H1143 0.961 . S
C1128 C1129 1.370 . S
C1128 C1130 1.363 . S
C1128 H1144 0.931 . S
C1129 C1128 1.370 . S
C1129 C1133 1.408 . S
C1130 C1128 1.363 . S
C1130 C1131 1.370 . S
C1130 C1134 1.524 . S
C1131 C1123 1.503 . S
C1131 C1130 1.370 . S
C1131 C1132 1.403 . S
C1132 C1131 1.403 . S
C1132 C1133 1.404 . S
C1132 C1135 1.539 . S
C1133 C1129 1.408 . S
C1133 C1132 1.404 . S
C1133 H1145 0.930 . S
C1134 C1130 1.524 . S
C1134 H1146 0.956 . S
C1134 H1147 0.961 . S
C1134 H1148 0.961 . S
C1135 C1132 1.539 . S
C1135 H1149 0.958 . S
C1135 H1150 0.961 . S
C1135 H1151 0.960 . S
H1136 C1120 0.931 . S
H1137 C1125 0.929 . S
H1138 C1126 0.960 . S
H1139 C1126 0.962 . S
H1140 C1126 0.960 . S
H1141 C1127 0.961 . S
H1142 C1127 0.961 . S
H1143 C1127 0.961 . S
H1144 C1128 0.931 . S
H1145 C1133 0.930 . S
H1146 C1134 0.956 . S
H1147 C1134 0.961 . S
H1148 C1134 0.961 . S
H1149 C1135 0.958 . S
H1150 C1135 0.961 . S
H1151 C1135 0.960 . S
C1152 C1153 1.391 . S
C1152 C1154 1.394 . S
C1152 H1168 0.931 . S
C1153 C1152 1.391 . S
C1153 C1157 1.376 . S
C1154 C1152 1.394 . S
C1154 C1155 1.369 . S
C1154 C1158 1.531 . S
C1155 C1154 1.369 . S
C1155 C1156 1.410 . S
C1155 C1163 1.503 . S
C1156 C1155 1.410 . S
C1156 C1157 1.392 . S
C1156 C1159 1.511 . S
C1157 C1153 1.376 . S
C1157 C1156 1.392 . S
C1157 H1169 0.929 . S
C1158 C1154 1.531 . S
C1158 H1170 0.960 . S
C1158 H1171 0.962 . S
C1158 H1172 0.960 . S
C1159 C1156 1.511 . S
C1159 H1173 0.961 . S
C1159 H1174 0.961 . S
C1159 H1175 0.961 . S
C1160 C1161 1.370 . S
C1160 C1162 1.363 . S
C1160 H1176 0.931 . S
C1161 C1160 1.370 . S
C1161 C1165 1.408 . S
C1162 C1160 1.363 . S
C1162 C1163 1.370 . S
C1162 C1166 1.524 . S
C1163 C1155 1.503 . S
C1163 C1162 1.370 . S
C1163 C1164 1.403 . S
C1164 C1163 1.403 . S
C1164 C1165 1.404 . S
C1164 C1167 1.539 . S
C1165 C1161 1.408 . S
C1165 C1164 1.404 . S
C1165 H1177 0.930 . S
C1166 C1162 1.524 . S
C1166 H1178 0.956 . S
C1166 H1179 0.961 . S
C1166 H1180 0.961 . S
C1167 C1164 1.539 . S
C1167 H1181 0.958 . S
C1167 H1182 0.961 . S
C1167 H1183 0.960 . S
H1168 C1152 0.931 . S
H1169 C1157 0.929 . S
H1170 C1158 0.960 . S
H1171 C1158 0.962 . S
H1172 C1158 0.960 . S
H1173 C1159 0.961 . S
H1174 C1159 0.961 . S
H1175 C1159 0.961 . S
H1176 C1160 0.931 . S
H1177 C1165 0.930 . S
H1178 C1166 0.956 . S
H1179 C1166 0.961 . S
H1180 C1166 0.961 . S
H1181 C1167 0.958 . S
H1182 C1167 0.961 . S
H1183 C1167 0.960 . S
C1184 C1185 1.391 . S
C1184 C1186 1.394 . S
C1184 H1200 0.931 . S
C1185 C1184 1.391 . S
C1185 C1189 1.376 . S
C1186 C1184 1.394 . S
C1186 C1187 1.369 . S
C1186 C1190 1.531 . S
C1187 C1186 1.369 . S
C1187 C1188 1.410 . S
C1187 C1195 1.503 . S
C1188 C1187 1.410 . S
C1188 C1189 1.392 . S
C1188 C1191 1.511 . S
C1189 C1185 1.376 . S
C1189 C1188 1.392 . S
C1189 H1201 0.929 . S
C1190 C1186 1.531 . S
C1190 H1202 0.960 . S
C1190 H1203 0.962 . S
C1190 H1204 0.960 . S
C1191 C1188 1.511 . S
C1191 H1205 0.961 . S
C1191 H1206 0.961 . S
C1191 H1207 0.961 . S
C1192 C1193 1.370 . S
C1192 C1194 1.363 . S
C1192 H1208 0.931 . S
C1193 C1192 1.370 . S
C1193 C1197 1.408 . S
C1194 C1192 1.363 . S
C1194 C1195 1.370 . S
C1194 C1198 1.524 . S
C1195 C1187 1.503 . S
C1195 C1194 1.370 . S
C1195 C1196 1.403 . S
C1196 C1195 1.403 . S
C1196 C1197 1.404 . S
C1196 C1199 1.539 . S
C1197 C1193 1.408 . S
C1197 C1196 1.404 . S
C1197 H1209 0.930 . S
C1198 C1194 1.524 . S
C1198 H1210 0.956 . S
C1198 H1211 0.961 . S
C1198 H1212 0.961 . S
C1199 C1196 1.539 . S
C1199 H1213 0.958 . S
C1199 H1214 0.961 . S
C1199 H1215 0.960 . S
H1200 C1184 0.931 . S
H1201 C1189 0.929 . S
H1202 C1190 0.960 . S
H1203 C1190 0.962 . S
H1204 C1190 0.960 . S
H1205 C1191 0.961 . S
H1206 C1191 0.961 . S
H1207 C1191 0.961 . S
H1208 C1192 0.931 . S
H1209 C1197 0.930 . S
H1210 C1198 0.956 . S
H1211 C1198 0.961 . S
H1212 C1198 0.961 . S
H1213 C1199 0.958 . S
H1214 C1199 0.961 . S
H1215 C1199 0.960 . S
C1216 C1217 1.391 . S
C1216 C1218 1.394 . S
C1216 H1232 0.931 . S
C1217 C1216 1.391 . S
C1217 C1221 1.376 . S
C1218 C1216 1.394 . S
C1218 C1219 1.369 . S
C1218 C1222 1.531 . S
C1219 C1218 1.369 . S
C1219 C1220 1.410 . S
C1219 C1227 1.503 . S
C1220 C1219 1.410 . S
C1220 C1221 1.392 . S
C1220 C1223 1.511 . S
C1221 C1217 1.376 . S
C1221 C1220 1.392 . S
C1221 H1233 0.929 . S
C1222 C1218 1.531 . S
C1222 H1234 0.960 . S
C1222 H1235 0.962 . S
C1222 H1236 0.960 . S
C1223 C1220 1.511 . S
C1223 H1237 0.961 . S
C1223 H1238 0.961 . S
C1223 H1239 0.961 . S
C1224 C1225 1.370 . S
C1224 C1226 1.363 . S
C1224 H1240 0.931 . S
C1225 C1224 1.370 . S
C1225 C1229 1.408 . S
C1226 C1224 1.363 . S
C1226 C1227 1.370 . S
C1226 C1230 1.524 . S
C1227 C1219 1.503 . S
C1227 C1226 1.370 . S
C1227 C1228 1.403 . S
C1228 C1227 1.403 . S
C1228 C1229 1.404 . S
C1228 C1231 1.539 . S
C1229 C1225 1.408 . S
C1229 C1228 1.404 . S
C1229 H1241 0.930 . S
C1230 C1226 1.524 . S
C1230 H1242 0.956 . S
C1230 H1243 0.961 . S
C1230 H1244 0.961 . S
C1231 C1228 1.539 . S
C1231 H1245 0.958 . S
C1231 H1246 0.961 . S
C1231 H1247 0.960 . S
H1232 C1216 0.931 . S
H1233 C1221 0.929 . S
H1234 C1222 0.960 . S
H1235 C1222 0.962 . S
H1236 C1222 0.960 . S
H1237 C1223 0.961 . S
H1238 C1223 0.961 . S
H1239 C1223 0.961 . S
H1240 C1224 0.931 . S
H1241 C1229 0.930 . S
H1242 C1230 0.956 . S
H1243 C1230 0.961 . S
H1244 C1230 0.961 . S
H1245 C1231 0.958 . S
H1246 C1231 0.961 . S
H1247 C1231 0.960 . S
C1248 C1249 1.391 . S
C1248 C1250 1.394 . S
C1248 H1264 0.931 . S
C1249 C1248 1.391 . S
C1249 C1253 1.376 . S
C1250 C1248 1.394 . S
C1250 C1251 1.369 . S
C1250 C1254 1.531 . S
C1251 C1250 1.369 . S
C1251 C1252 1.410 . S
C1251 C1259 1.503 . S
C1252 C1251 1.410 . S
C1252 C1253 1.392 . S
C1252 C1255 1.511 . S
C1253 C1249 1.376 . S
C1253 C1252 1.392 . S
C1253 H1265 0.929 . S
C1254 C1250 1.531 . S
C1254 H1266 0.960 . S
C1254 H1267 0.962 . S
C1254 H1268 0.960 . S
C1255 C1252 1.511 . S
C1255 H1269 0.961 . S
C1255 H1270 0.961 . S
C1255 H1271 0.961 . S
C1256 C1257 1.370 . S
C1256 C1258 1.363 . S
C1256 H1272 0.931 . S
C1257 C1256 1.370 . S
C1257 C1261 1.408 . S
C1258 C1256 1.363 . S
C1258 C1259 1.370 . S
C1258 C1262 1.524 . S
C1259 C1251 1.503 . S
C1259 C1258 1.370 . S
C1259 C1260 1.403 . S
C1260 C1259 1.403 . S
C1260 C1261 1.404 . S
C1260 C1263 1.539 . S
C1261 C1257 1.408 . S
C1261 C1260 1.404 . S
C1261 H1273 0.930 . S
C1262 C1258 1.524 . S
C1262 H1274 0.956 . S
C1262 H1275 0.961 . S
C1262 H1276 0.961 . S
C1263 C1260 1.539 . S
C1263 H1277 0.958 . S
C1263 H1278 0.961 . S
C1263 H1279 0.960 . S
H1264 C1248 0.931 . S
H1265 C1253 0.929 . S
H1266 C1254 0.960 . S
H1267 C1254 0.962 . S
H1268 C1254 0.960 . S
H1269 C1255 0.961 . S
H1270 C1255 0.961 . S
H1271 C1255 0.961 . S
H1272 C1256 0.931 . S
H1273 C1261 0.930 . S
H1274 C1262 0.956 . S
H1275 C1262 0.961 . S
H1276 C1262 0.961 . S
H1277 C1263 0.958 . S
H1278 C1263 0.961 . S
H1279 C1263 0.960 . S
C1280 C1281 1.391 . S
C1280 C1282 1.394 . S
C1280 H1296 0.931 . S
C1281 C1280 1.391 . S
C1281 C1285 1.376 . S
C1282 C1280 1.394 . S
C1282 C1283 1.369 . S
C1282 C1286 1.531 . S
C1283 C1282 1.369 . S
C1283 C1284 1.410 . S
C1283 C1291 1.503 . S
C1284 C1283 1.410 . S
C1284 C1285 1.392 . S
C1284 C1287 1.511 . S
C1285 C1281 1.376 . S
C1285 C1284 1.392 . S
C1285 H1297 0.929 . S
C1286 C1282 1.531 . S
C1286 H1298 0.960 . S
C1286 H1299 0.962 . S
C1286 H1300 0.960 . S
C1287 C1284 1.511 . S
C1287 H1301 0.961 . S
C1287 H1302 0.961 . S
C1287 H1303 0.961 . S
C1288 C1289 1.370 . S
C1288 C1290 1.363 . S
C1288 H1304 0.931 . S
C1289 C1288 1.370 . S
C1289 C1293 1.408 . S
C1290 C1288 1.363 . S
C1290 C1291 1.370 . S
C1290 C1294 1.524 . S
C1291 C1283 1.503 . S
C1291 C1290 1.370 . S
C1291 C1292 1.403 . S
C1292 C1291 1.403 . S
C1292 C1293 1.404 . S
C1292 C1295 1.539 . S
C1293 C1289 1.408 . S
C1293 C1292 1.404 . S
C1293 H1305 0.930 . S
C1294 C1290 1.524 . S
C1294 H1306 0.956 . S
C1294 H1307 0.961 . S
C1294 H1308 0.961 . S
C1295 C1292 1.539 . S
C1295 H1309 0.958 . S
C1295 H1310 0.961 . S
C1295 H1311 0.960 . S
H1296 C1280 0.931 . S
H1297 C1285 0.929 . S
H1298 C1286 0.960 . S
H1299 C1286 0.962 . S
H1300 C1286 0.960 . S
H1301 C1287 0.961 . S
H1302 C1287 0.961 . S
H1303 C1287 0.961 . S
H1304 C1288 0.931 . S
H1305 C1293 0.930 . S
H1306 C1294 0.956 . S
H1307 C1294 0.961 . S
H1308 C1294 0.961 . S
H1309 C1295 0.958 . S
H1310 C1295 0.961 . S
H1311 C1295 0.960 . S
C1312 C1313 1.391 . S
C1312 C1314 1.394 . S
C1312 H1328 0.931 . S
C1313 C1312 1.391 . S
C1313 C1317 1.376 . S
C1314 C1312 1.394 . S
C1314 C1315 1.369 . S
C1314 C1318 1.531 . S
C1315 C1314 1.369 . S
C1315 C1316 1.410 . S
C1315 C1323 1.503 . S
C1316 C1315 1.410 . S
C1316 C1317 1.392 . S
C1316 C1319 1.511 . S
C1317 C1313 1.376 . S
C1317 C1316 1.392 . S
C1317 H1329 0.929 . S
C1318 C1314 1.531 . S
C1318 H1330 0.960 . S
C1318 H1331 0.962 . S
C1318 H1332 0.960 . S
C1319 C1316 1.511 . S
C1319 H1333 0.961 . S
C1319 H1334 0.961 . S
C1319 H1335 0.961 . S
C1320 C1321 1.370 . S
C1320 C1322 1.363 . S
C1320 H1336 0.931 . S
C1321 C1320 1.370 . S
C1321 C1325 1.408 . S
C1322 C1320 1.363 . S
C1322 C1323 1.370 . S
C1322 C1326 1.524 . S
C1323 C1315 1.503 . S
C1323 C1322 1.370 . S
C1323 C1324 1.403 . S
C1324 C1323 1.403 . S
C1324 C1325 1.404 . S
C1324 C1327 1.539 . S
C1325 C1321 1.408 . S
C1325 C1324 1.404 . S
C1325 H1337 0.930 . S
C1326 C1322 1.524 . S
C1326 H1338 0.956 . S
C1326 H1339 0.961 . S
C1326 H1340 0.961 . S
C1327 C1324 1.539 . S
C1327 H1341 0.958 . S
C1327 H1342 0.961 . S
C1327 H1343 0.960 . S
H1328 C1312 0.931 . S
H1329 C1317 0.929 . S
H1330 C1318 0.960 . S
H1331 C1318 0.962 . S
H1332 C1318 0.960 . S
H1333 C1319 0.961 . S
H1334 C1319 0.961 . S
H1335 C1319 0.961 . S
H1336 C1320 0.931 . S
H1337 C1325 0.930 . S
H1338 C1326 0.956 . S
H1339 C1326 0.961 . S
H1340 C1326 0.961 . S
H1341 C1327 0.958 . S
H1342 C1327 0.961 . S
H1343 C1327 0.960 . S
C1344 C1345 1.391 . S
C1344 C1346 1.394 . S
C1344 H1360 0.931 . S
C1345 C1344 1.391 . S
C1345 C1349 1.376 . S
C1346 C1344 1.394 . S
C1346 C1347 1.369 . S
C1346 C1350 1.531 . S
C1347 C1346 1.369 . S
C1347 C1348 1.410 . S
C1347 C1355 1.503 . S
C1348 C1347 1.410 . S
C1348 C1349 1.392 . S
C1348 C1351 1.511 . S
C1349 C1345 1.376 . S
C1349 C1348 1.392 . S
C1349 H1361 0.929 . S
C1350 C1346 1.531 . S
C1350 H1362 0.960 . S
C1350 H1363 0.962 . S
C1350 H1364 0.960 . S
C1351 C1348 1.511 . S
C1351 H1365 0.961 . S
C1351 H1366 0.961 . S
C1351 H1367 0.961 . S
C1352 C1353 1.370 . S
C1352 C1354 1.363 . S
C1352 H1368 0.931 . S
C1353 C1352 1.370 . S
C1353 C1357 1.408 . S
C1354 C1352 1.363 . S
C1354 C1355 1.370 . S
C1354 C1358 1.524 . S
C1355 C1347 1.503 . S
C1355 C1354 1.370 . S
C1355 C1356 1.403 . S
C1356 C1355 1.403 . S
C1356 C1357 1.404 . S
C1356 C1359 1.539 . S
C1357 C1353 1.408 . S
C1357 C1356 1.404 . S
C1357 H1369 0.930 . S
C1358 C1354 1.524 . S
C1358 H1370 0.956 . S
C1358 H1371 0.961 . S
C1358 H1372 0.961 . S
C1359 C1356 1.539 . S
C1359 H1373 0.958 . S
C1359 H1374 0.961 . S
C1359 H1375 0.960 . S
H1360 C1344 0.931 . S
H1361 C1349 0.929 . S
H1362 C1350 0.960 . S
H1363 C1350 0.962 . S
H1364 C1350 0.960 . S
H1365 C1351 0.961 . S
H1366 C1351 0.961 . S
H1367 C1351 0.961 . S
H1368 C1352 0.931 . S
H1369 C1357 0.930 . S
H1370 C1358 0.956 . S
H1371 C1358 0.961 . S
H1372 C1358 0.961 . S
H1373 C1359 0.958 . S
H1374 C1359 0.961 . S
H1375 C1359 0.960 . S
C1376 C1377 1.391 . S
C1376 C1378 1.394 . S
C1376 H1392 0.931 . S
C1377 C1376 1.391 . S
C1377 C1381 1.376 . S
C1378 C1376 1.394 . S
C1378 C1379 1.369 . S
C1378 C1382 1.531 . S
C1379 C1378 1.369 . S
C1379 C1380 1.410 . S
C1379 C1387 1.503 . S
C1380 C1379 1.410 . S
C1380 C1381 1.392 . S
C1380 C1383 1.511 . S
C1381 C1377 1.376 . S
C1381 C1380 1.392 . S
C1381 H1393 0.929 . S
C1382 C1378 1.531 . S
C1382 H1394 0.960 . S
C1382 H1395 0.962 . S
C1382 H1396 0.960 . S
C1383 C1380 1.511 . S
C1383 H1397 0.961 . S
C1383 H1398 0.961 . S
C1383 H1399 0.961 . S
C1384 C1385 1.370 . S
C1384 C1386 1.363 . S
C1384 H1400 0.931 . S
C1385 C1384 1.370 . S
C1385 C1389 1.408 . S
C1386 C1384 1.363 . S
C1386 C1387 1.370 . S
C1386 C1390 1.524 . S
C1387 C1379 1.503 . S
C1387 C1386 1.370 . S
C1387 C1388 1.403 . S
C1388 C1387 1.403 . S
C1388 C1389 1.404 . S
C1388 C1391 1.539 . S
C1389 C1385 1.408 . S
C1389 C1388 1.404 . S
C1389 H1401 0.930 . S
C1390 C1386 1.524 . S
C1390 H1402 0.956 . S
C1390 H1403 0.961 . S
C1390 H1404 0.961 . S
C1391 C1388 1.539 . S
C1391 H1405 0.958 . S
C1391 H1406 0.961 . S
C1391 H1407 0.960 . S
H1392 C1376 0.931 . S
H1393 C1381 0.929 . S
H1394 C1382 0.960 . S
H1395 C1382 0.962 . S
H1396 C1382 0.960 . S
H1397 C1383 0.961 . S
H1398 C1383 0.961 . S
H1399 C1383 0.961 . S
H1400 C1384 0.931 . S
H1401 C1389 0.930 . S
H1402 C1390 0.956 . S
H1403 C1390 0.961 . S
H1404 C1390 0.961 . S
H1405 C1391 0.958 . S
H1406 C1391 0.961 . S
H1407 C1391 0.960 . S
C1408 C1409 1.391 . S
C1408 C1410 1.394 . S
C1408 H1424 0.931 . S
C1409 C1408 1.391 . S
C1409 C1413 1.376 . S
C1410 C1408 1.394 . S
C1410 C1411 1.369 . S
C1410 C1414 1.531 . S
C1411 C1410 1.369 . S
C1411 C1412 1.410 . S
C1411 C1419 1.503 . S
C1412 C1411 1.410 . S
C1412 C1413 1.392 . S
C1412 C1415 1.511 . S
C1413 C1409 1.376 . S
C1413 C1412 1.392 . S
C1413 H1425 0.929 . S
C1414 C1410 1.531 . S
C1414 H1426 0.960 . S
C1414 H1427 0.962 . S
C1414 H1428 0.960 . S
C1415 C1412 1.511 . S
C1415 H1429 0.961 . S
C1415 H1430 0.961 . S
C1415 H1431 0.961 . S
C1416 C1417 1.370 . S
C1416 C1418 1.363 . S
C1416 H1432 0.931 . S
C1417 C1416 1.370 . S
C1417 C1421 1.408 . S
C1418 C1416 1.363 . S
C1418 C1419 1.370 . S
C1418 C1422 1.524 . S
C1419 C1411 1.503 . S
C1419 C1418 1.370 . S
C1419 C1420 1.403 . S
C1420 C1419 1.403 . S
C1420 C1421 1.404 . S
C1420 C1423 1.539 . S
C1421 C1417 1.408 . S
C1421 C1420 1.404 . S
C1421 H1433 0.930 . S
C1422 C1418 1.524 . S
C1422 H1434 0.956 . S
C1422 H1435 0.961 . S
C1422 H1436 0.961 . S
C1423 C1420 1.539 . S
C1423 H1437 0.958 . S
C1423 H1438 0.961 . S
C1423 H1439 0.960 . S
H1424 C1408 0.931 . S
H1425 C1413 0.929 . S
H1426 C1414 0.960 . S
H1427 C1414 0.962 . S
H1428 C1414 0.960 . S
H1429 C1415 0.961 . S
H1430 C1415 0.961 . S
H1431 C1415 0.961 . S
H1432 C1416 0.931 . S
H1433 C1421 0.930 . S
H1434 C1422 0.956 . S
H1435 C1422 0.961 . S
H1436 C1422 0.961 . S
H1437 C1423 0.958 . S
H1438 C1423 0.961 . S
H1439 C1423 0.960 . S
C1440 C1441 1.391 . S
C1440 C1442 1.394 . S
C1440 H1456 0.931 . S
C1441 C1440 1.391 . S
C1441 C1445 1.376 . S
C1442 C1440 1.394 . S
C1442 C1443 1.369 . S
C1442 C1446 1.531 . S
C1443 C1442 1.369 . S
C1443 C1444 1.410 . S
C1443 C1451 1.503 . S
C1444 C1443 1.410 . S
C1444 C1445 1.392 . S
C1444 C1447 1.511 . S
C1445 C1441 1.376 . S
C1445 C1444 1.392 . S
C1445 H1457 0.929 . S
C1446 C1442 1.531 . S
C1446 H1458 0.960 . S
C1446 H1459 0.962 . S
C1446 H1460 0.960 . S
C1447 C1444 1.511 . S
C1447 H1461 0.961 . S
C1447 H1462 0.961 . S
C1447 H1463 0.961 . S
C1448 C1449 1.370 . S
C1448 C1450 1.363 . S
C1448 H1464 0.931 . S
C1449 C1448 1.370 . S
C1449 C1453 1.408 . S
C1450 C1448 1.363 . S
C1450 C1451 1.370 . S
C1450 C1454 1.524 . S
C1451 C1443 1.503 . S
C1451 C1450 1.370 . S
C1451 C1452 1.403 . S
C1452 C1451 1.403 . S
C1452 C1453 1.404 . S
C1452 C1455 1.539 . S
C1453 C1449 1.408 . S
C1453 C1452 1.404 . S
C1453 H1465 0.930 . S
C1454 C1450 1.524 . S
C1454 H1466 0.956 . S
C1454 H1467 0.961 . S
C1454 H1468 0.961 . S
C1455 C1452 1.539 . S
C1455 H1469 0.958 . S
C1455 H1470 0.961 . S
C1455 H1471 0.960 . S
H1456 C1440 0.931 . S
H1457 C1445 0.929 . S
H1458 C1446 0.960 . S
H1459 C1446 0.962 . S
H1460 C1446 0.960 . S
H1461 C1447 0.961 . S
H1462 C1447 0.961 . S
H1463 C1447 0.961 . S
H1464 C1448 0.931 . S
H1465 C1453 0.930 . S
H1466 C1454 0.956 . S
H1467 C1454 0.961 . S
H1468 C1454 0.961 . S
H1469 C1455 0.958 . S
H1470 C1455 0.961 . S
H1471 C1455 0.960 . S
C1472 C1473 1.391 . S
C1472 C1474 1.394 . S
C1472 H1488 0.931 . S
C1473 C1472 1.391 . S
C1473 C1477 1.376 . S
C1474 C1472 1.394 . S
C1474 C1475 1.369 . S
C1474 C1478 1.531 . S
C1475 C1474 1.369 . S
C1475 C1476 1.410 . S
C1475 C1483 1.503 . S
C1476 C1475 1.410 . S
C1476 C1477 1.392 . S
C1476 C1479 1.511 . S
C1477 C1473 1.376 . S
C1477 C1476 1.392 . S
C1477 H1489 0.929 . S
C1478 C1474 1.531 . S
C1478 H1490 0.960 . S
C1478 H1491 0.962 . S
C1478 H1492 0.960 . S
C1479 C1476 1.511 . S
C1479 H1493 0.961 . S
C1479 H1494 0.961 . S
C1479 H1495 0.961 . S
C1480 C1481 1.370 . S
C1480 C1482 1.363 . S
C1480 H1496 0.931 . S
C1481 C1480 1.370 . S
C1481 C1485 1.408 . S
C1482 C1480 1.363 . S
C1482 C1483 1.370 . S
C1482 C1486 1.524 . S
C1483 C1475 1.503 . S
C1483 C1482 1.370 . S
C1483 C1484 1.403 . S
C1484 C1483 1.403 . S
C1484 C1485 1.404 . S
C1484 C1487 1.539 . S
C1485 C1481 1.408 . S
C1485 C1484 1.404 . S
C1485 H1497 0.930 . S
C1486 C1482 1.524 . S
C1486 H1498 0.956 . S
C1486 H1499 0.961 . S
C1486 H1500 0.961 . S
C1487 C1484 1.539 . S
C1487 H1501 0.958 . S
C1487 H1502 0.961 . S
C1487 H1503 0.960 . S
H1488 C1472 0.931 . S
H1489 C1477 0.929 . S
H1490 C1478 0.960 . S
H1491 C1478 0.962 . S
H1492 C1478 0.960 . S
H1493 C1479 0.961 . S
H1494 C1479 0.961 . S
H1495 C1479 0.961 . S
H1496 C1480 0.931 . S
H1497 C1485 0.930 . S
H1498 C1486 0.956 . S
H1499 C1486 0.961 . S
H1500 C1486 0.961 . S
H1501 C1487 0.958 . S
H1502 C1487 0.961 . S
H1503 C1487 0.960 . S
C1504 C1505 1.391 . S
C1504 C1506 1.394 . S
C1504 H1520 0.931 . S
C1505 C1504 1.391 . S
C1505 C1509 1.376 . S
C1506 C1504 1.394 . S
C1506 C1507 1.369 . S
C1506 C1510 1.531 . S
C1507 C1506 1.369 . S
C1507 C1508 1.410 . S
C1507 C1515 1.503 . S
C1508 C1507 1.410 . S
C1508 C1509 1.392 . S
C1508 C1511 1.511 . S
C1509 C1505 1.376 . S
C1509 C1508 1.392 . S
C1509 H1521 0.929 . S
C1510 C1506 1.531 . S
C1510 H1522 0.960 . S
C1510 H1523 0.962 . S
C1510 H1524 0.960 . S
C1511 C1508 1.511 . S
C1511 H1525 0.961 . S
C1511 H1526 0.961 . S
C1511 H1527 0.961 . S
C1512 C1513 1.370 . S
C1512 C1514 1.363 . S
C1512 H1528 0.931 . S
C1513 C1512 1.370 . S
C1513 C1517 1.408 . S
C1514 C1512 1.363 . S
C1514 C1515 1.370 . S
C1514 C1518 1.524 . S
C1515 C1507 1.503 . S
C1515 C1514 1.370 . S
C1515 C1516 1.403 . S
C1516 C1515 1.403 . S
C1516 C1517 1.404 . S
C1516 C1519 1.539 . S
C1517 C1513 1.408 . S
C1517 C1516 1.404 . S
C1517 H1529 0.930 . S
C1518 C1514 1.524 . S
C1518 H1530 0.956 . S
C1518 H1531 0.961 . S
C1518 H1532 0.961 . S
C1519 C1516 1.539 . S
C1519 H1533 0.958 . S
C1519 H1534 0.961 . S
C1519 H1535 0.960 . S
H1520 C1504 0.931 . S
H1521 C1509 0.929 . S
H1522 C1510 0.960 . S
H1523 C1510 0.962 . S
H1524 C1510 0.960 . S
H1525 C1511 0.961 . S
H1526 C1511 0.961 . S
H1527 C1511 0.961 . S
H1528 C1512 0.931 . S
H1529 C1517 0.930 . S
H1530 C1518 0.956 . S
H1531 C1518 0.961 . S
H1532 C1518 0.961 . S
H1533 C1519 0.958 . S
H1534 C1519 0.961 . S
H1535 C1519 0.960 . S
C1536 C1537 1.391 . S
C1536 C1538 1.394 . S
C1536 H1552 0.931 . S
C1537 C1536 1.391 . S
C1537 C1541 1.376 . S
C1538 C1536 1.394 . S
C1538 C1539 1.369 . S
C1538 C1542 1.531 . S
C1539 C1538 1.369 . S
C1539 C1540 1.410 . S
C1539 C1547 1.503 . S
C1540 C1539 1.410 . S
C1540 C1541 1.392 . S
C1540 C1543 1.511 . S
C1541 C1537 1.376 . S
C1541 C1540 1.392 . S
C1541 H1553 0.929 . S
C1542 C1538 1.531 . S
C1542 H1554 0.960 . S
C1542 H1555 0.962 . S
C1542 H1556 0.960 . S
C1543 C1540 1.511 . S
C1543 H1557 0.961 . S
C1543 H1558 0.961 . S
C1543 H1559 0.961 . S
C1544 C1545 1.370 . S
C1544 C1546 1.363 . S
C1544 H1560 0.931 . S
C1545 C1544 1.370 . S
C1545 C1549 1.408 . S
C1546 C1544 1.363 . S
C1546 C1547 1.370 . S
C1546 C1550 1.524 . S
C1547 C1539 1.503 . S
C1547 C1546 1.370 . S
C1547 C1548 1.403 . S
C1548 C1547 1.403 . S
C1548 C1549 1.404 . S
C1548 C1551 1.539 . S
C1549 C1545 1.408 . S
C1549 C1548 1.404 . S
C1549 H1561 0.930 . S
C1550 C1546 1.524 . S
C1550 H1562 0.956 . S
C1550 H1563 0.961 . S
C1550 H1564 0.961 . S
C1551 C1548 1.539 . S
C1551 H1565 0.958 . S
C1551 H1566 0.961 . S
C1551 H1567 0.960 . S
H1552 C1536 0.931 . S
H1553 C1541 0.929 . S
H1554 C1542 0.960 . S
H1555 C1542 0.962 . S
H1556 C1542 0.960 . S
H1557 C1543 0.961 . S
H1558 C1543 0.961 . S
H1559 C1543 0.961 . S
H1560 C1544 0.931 . S
H1561 C1549 0.930 . S
H1562 C1550 0.956 . S
H1563 C1550 0.961 . S
H1564 C1550 0.961 . S
H1565 C1551 0.958 . S
H1566 C1551 0.961 . S
H1567 C1551 0.960 . S
C1568 C1569 1.385 1_566 S
C1568 C1570 1.397 . S
C1568 H1584 0.934 . S
C1569 C1568 1.385 1_544 S
C1569 C1573 1.376 . S
C1570 C1568 1.397 . S
C1570 C1571 1.371 1_556 S
C1570 C1574 1.531 . S
C1571 C1570 1.371 1_554 S
C1571 C1572 1.404 1_565 S
C1571 C1579 1.505 1_554 S
C1572 C1571 1.404 1_545 S
C1572 C1573 1.392 . S
C1572 C1575 1.511 . S
C1573 C1569 1.376 . S
C1573 C1572 1.392 . S
C1573 H1585 0.929 . S
C1574 C1570 1.531 . S
C1574 H1586 0.960 . S
C1574 H1587 0.962 . S
C1574 H1588 0.960 . S
C1575 C1572 1.511 . S
C1575 H1589 0.961 . S
C1575 H1590 0.961 . S
C1575 H1591 0.961 . S
C1576 C1577 1.370 . S
C1576 C1578 1.363 1_565 S
C1576 H1592 0.931 1_565 S
C1577 C1576 1.370 . S
C1577 C1581 1.408 1_556 S
C1578 C1576 1.363 1_545 S
C1578 C1579 1.370 1_545 S
C1578 C1582 1.524 . S
C1579 C1571 1.505 1_556 S
C1579 C1578 1.370 1_565 S
C1579 C1580 1.403 1_556 S
C1580 C1579 1.403 1_554 S
C1580 C1581 1.404 . S
C1580 C1583 1.539 . S
C1581 C1577 1.408 1_554 S
C1581 C1580 1.404 . S
C1581 H1593 0.930 . S
C1582 C1578 1.524 . S
C1582 H1594 0.956 . S
C1582 H1595 0.961 . S
C1582 H1596 0.961 . S
C1583 C1580 1.539 . S
C1583 H1597 0.958 . S
C1583 H1598 0.961 . S
C1583 H1599 0.960 . S
H1584 C1568 0.934 . S
H1585 C1573 0.929 . S
H1586 C1574 0.960 . S
H1587 C1574 0.962 . S
H1588 C1574 0.960 . S
H1589 C1575 0.961 . S
H1590 C1575 0.961 . S
H1591 C1575 0.961 . S
H1592 C1576 0.931 1_545 S
H1593 C1581 0.930 . S
H1594 C1582 0.956 . S
H1595 C1582 0.961 . S
H1596 C1582 0.961 . S
H1597 C1583 0.958 . S
H1598 C1583 0.961 . S
H1599 C1583 0.960 . S
C1600 C1601 1.391 . S
C1600 C1602 1.394 . S
C1600 H1616 0.931 . S
C1601 C1600 1.391 . S
C1601 C1605 1.376 . S
C1602 C1600 1.394 . S
C1602 C1603 1.369 1_556 S
C1602 C1606 1.531 . S
C1603 C1602 1.369 1_554 S
C1603 C1604 1.410 . S
C1603 C1611 1.503 . S
C1604 C1603 1.410 . S
C1604 C1605 1.392 1_554 S
C1604 C1607 1.511 . S
C1605 C1601 1.376 . S
C1605 C1604 1.392 1_556 S
C1605 H1617 0.929 1_556 S
C1606 C1602 1.531 . S
C1606 H1618 0.960 1_556 S
C1606 H1619 0.962 . S
C1606 H1620 0.960 . S
C1607 C1604 1.511 . S
C1607 H1621 0.961 . S
C1607 H1622 0.961 . S
C1607 H1623 0.961 . S
C1608 C1609 1.370 1_556 S
C1608 C1610 1.363 . S
C1608 H1624 0.931 . S
C1609 C1608 1.370 1_554 S
C1609 C1613 1.408 . S
C1610 C1608 1.363 . S
C1610 C1611 1.370 1_556 S
C1610 C1614 1.524 . S
C1611 C1603 1.503 . S
C1611 C1610 1.370 1_554 S
C1611 C1612 1.403 . S
C1612 C1611 1.403 . S
C1612 C1613 1.404 . S
C1612 C1615 1.539 . S
C1613 C1609 1.408 . S
C1613 C1612 1.404 . S
C1613 H1625 0.930 . S
C1614 C1610 1.524 . S
C1614 H1626 0.956 . S
C1614 H1627 0.961 . S
C1614 H1628 0.961 . S
C1615 C1612 1.539 . S
C1615 H1629 0.958 . S
C1615 H1630 0.961 . S
C1615 H1631 0.960 . S
H1616 C1600 0.931 . S
H1617 C1605 0.929 1_554 S
H1618 C1606 0.960 1_554 S
H1619 C1606 0.962 . S
H1620 C1606 0.960 . S
H1621 C1607 0.961 . S
H1622 C1607 0.961 . S
H1623 C1607 0.961 . S
H1624 C1608 0.931 . S
H1625 C1613 0.930 . S
H1626 C1614 0.956 . S
H1627 C1614 0.961 . S
H1628 C1614 0.961 . S
H1629 C1615 0.958 . S
H1630 C1615 0.961 . S
H1631 C1615 0.960 . S
C1632 C1633 1.391 . S
C1632 C1634 1.394 . S
C1632 H1648 0.931 . S
C1633 C1632 1.391 . S
C1633 C1637 1.376 . S
C1634 C1632 1.394 . S
C1634 C1635 1.369 . S
C1634 C1638 1.531 1_455 S
C1635 C1634 1.369 . S
C1635 C1636 1.410 1_556 S
C1635 C1643 1.503 1_455 S
C1636 C1635 1.410 1_554 S
C1636 C1637 1.392 1_554 S
C1636 C1639 1.511 . S
C1637 C1633 1.376 . S
C1637 C1636 1.392 1_556 S
C1637 H1649 0.929 1_556 S
C1638 C1634 1.531 1_655 S
C1638 H1650 0.960 . S
C1638 H1651 0.962 . S
C1638 H1652 0.960 1_655 S
C1639 C1636 1.511 . S
C1639 H1653 0.961 . S
C1639 H1654 0.961 . S
C1639 H1655 0.961 . S
C1640 C1641 1.370 . S
C1640 C1642 1.363 . S
C1640 H1656 0.931 . S
C1641 C1640 1.370 . S
C1641 C1645 1.408 1_554 S
C1642 C1640 1.363 . S
C1642 C1643 1.370 1_554 S
C1642 C1646 1.524 . S
C1643 C1635 1.503 1_655 S
C1643 C1642 1.370 1_556 S
C1643 C1644 1.403 . S
C1644 C1643 1.403 . S
C1644 C1645 1.404 . S
C1644 C1647 1.539 . S
C1645 C1641 1.408 1_556 S
C1645 C1644 1.404 . S
C1645 H1657 0.930 . S
C1646 C1642 1.524 . S
C1646 H1658 0.956 . S
C1646 H1659 0.961 1_655 S
C1646 H1660 0.961 . S
C1647 C1644 1.539 . S
C1647 H1661 0.958 . S
C1647 H1662 0.961 . S
C1647 H1663 0.960 1_655 S
H1648 C1632 0.931 . S
H1649 C1637 0.929 1_554 S
H1650 C1638 0.960 . S
H1651 C1638 0.962 . S
H1652 C1638 0.960 1_455 S
H1653 C1639 0.961 . S
H1654 C1639 0.961 . S
H1655 C1639 0.961 . S
H1656 C1640 0.931 . S
H1657 C1645 0.930 . S
H1658 C1646 0.956 . S
H1659 C1646 0.961 1_455 S
H1660 C1646 0.961 . S
H1661 C1647 0.958 . S
H1662 C1647 0.961 . S
H1663 C1647 0.960 1_455 S
C1664 C1665 1.391 . S
C1664 C1666 1.388 1_554 S
C1664 H1680 0.931 . S
C1665 C1664 1.391 . S
C1665 C1669 1.376 1_455 S
C1666 C1664 1.388 1_556 S
C1666 C1667 1.371 . S
C1666 C1670 1.535 1_565 S
C1667 C1666 1.371 . S
C1667 C1668 1.410 1_456 S
C1667 C1675 1.503 1_465 S
C1668 C1667 1.410 1_654 S
C1668 C1669 1.392 . S
C1668 C1671 1.511 1_554 S
C1669 C1665 1.376 1_655 S
C1669 C1668 1.392 . S
C1669 H1681 0.929 . S
C1670 C1666 1.535 1_545 S
C1670 H1682 0.960 . S
C1670 H1683 0.962 1_556 S
C1670 H1684 0.960 1_545 S
C1671 C1668 1.511 1_556 S
C1671 H1685 0.961 1_556 S
C1671 H1686 0.961 1_556 S
C1671 H1687 0.961 . S
C1672 C1673 1.370 1_554 S
C1672 C1674 1.363 . S
C1672 H1688 0.931 . S
C1673 C1672 1.370 1_556 S
C1673 C1677 1.408 . S
C1674 C1672 1.363 . S
C1674 C1675 1.370 1_554 S
C1674 C1678 1.524 . S
C1675 C1667 1.503 1_645 S
C1675 C1674 1.370 1_556 S
C1675 C1676 1.403 . S
C1676 C1675 1.403 . S
C1676 C1677 1.404 . S
C1676 C1679 1.539 . S
C1677 C1673 1.408 . S
C1677 C1676 1.404 . S
C1677 H1689 0.930 . S
C1678 C1674 1.524 . S
C1678 H1690 0.956 1_655 S
C1678 H1691 0.961 . S
C1678 H1692 0.961 . S
C1679 C1676 1.539 . S
C1679 H1693 0.958 1_655 S
C1679 H1694 0.961 . S
C1679 H1695 0.960 1_545 S
H1680 C1664 0.931 . S
H1681 C1669 0.929 . S
H1682 C1670 0.960 . S
H1683 C1670 0.962 1_554 S
H1684 C1670 0.960 1_565 S
H1685 C1671 0.961 1_554 S
H1686 C1671 0.961 1_554 S
H1687 C1671 0.961 . S
H1688 C1672 0.931 . S
H1689 C1677 0.930 . S
H1690 C1678 0.956 1_455 S
H1691 C1678 0.961 . S
H1692 C1678 0.961 . S
H1693 C1679 0.958 1_455 S
H1694 C1679 0.961 . S
H1695 C1679 0.960 1_565 S
C1696 C1697 1.391 . S
C1696 C1698 1.394 . S
C1696 H1712 0.931 . S
C1697 C1696 1.391 . S
C1697 C1701 1.376 . S
C1698 C1696 1.394 . S
C1698 C1699 1.369 . S
C1698 C1702 1.531 . S
C1699 C1698 1.369 . S
C1699 C1700 1.410 . S
C1699 C1707 1.503 . S
C1700 C1699 1.410 . S
C1700 C1701 1.392 . S
C1700 C1703 1.511 . S
C1701 C1697 1.376 . S
C1701 C1700 1.392 . S
C1701 H1713 0.929 . S
C1702 C1698 1.531 . S
C1702 H1714 0.960 . S
C1702 H1715 0.962 . S
C1702 H1716 0.960 . S
C1703 C1700 1.511 . S
C1703 H1717 0.961 . S
C1703 H1718 0.961 . S
C1703 H1719 0.961 . S
C1704 C1705 1.370 . S
C1704 C1706 1.363 . S
C1704 H1720 0.931 . S
C1705 C1704 1.370 . S
C1705 C1709 1.408 . S
C1706 C1704 1.363 . S
C1706 C1707 1.370 . S
C1706 C1710 1.524 . S
C1707 C1699 1.503 . S
C1707 C1706 1.370 . S
C1707 C1708 1.403 . S
C1708 C1707 1.403 . S
C1708 C1709 1.404 . S
C1708 C1711 1.539 . S
C1709 C1705 1.408 . S
C1709 C1708 1.404 . S
C1709 H1721 0.930 . S
C1710 C1706 1.524 . S
C1710 H1722 0.956 . S
C1710 H1723 0.961 . S
C1710 H1724 0.961 . S
C1711 C1708 1.539 . S
C1711 H1725 0.958 . S
C1711 H1726 0.961 . S
C1711 H1727 0.960 . S
H1712 C1696 0.931 . S
H1713 C1701 0.929 . S
H1714 C1702 0.960 . S
H1715 C1702 0.962 . S
H1716 C1702 0.960 . S
H1717 C1703 0.961 . S
H1718 C1703 0.961 . S
H1719 C1703 0.961 . S
H1720 C1704 0.931 . S
H1721 C1709 0.930 . S
H1722 C1710 0.956 . S
H1723 C1710 0.961 . S
H1724 C1710 0.961 . S
H1725 C1711 0.958 . S
H1726 C1711 0.961 . S
H1727 C1711 0.960 . S
C1728 C1729 1.391 . S
C1728 C1730 1.394 . S
C1728 H1744 0.931 . S
C1729 C1728 1.391 . S
C1729 C1733 1.376 . S
C1730 C1728 1.394 . S
C1730 C1731 1.353 1_455 S
C1730 C1734 1.531 . S
C1731 C1730 1.353 1_655 S
C1731 C1732 1.416 . S
C1731 C1739 1.511 . S
C1732 C1731 1.416 . S
C1732 C1733 1.392 1_655 S
C1732 C1735 1.511 . S
C1733 C1729 1.376 . S
C1733 C1732 1.392 1_455 S
C1733 H1745 0.929 . S
C1734 C1730 1.531 . S
C1734 H1746 0.960 . S
C1734 H1747 0.962 . S
C1734 H1748 0.960 . S
C1735 C1732 1.511 . S
C1735 H1749 0.961 . S
C1735 H1750 0.961 . S
C1735 H1751 0.961 . S
C1736 C1737 1.370 1_455 S
C1736 C1738 1.363 . S
C1736 H1752 0.931 . S
C1737 C1736 1.370 1_655 S
C1737 C1741 1.408 . S
C1738 C1736 1.363 . S
C1738 C1739 1.370 1_455 S
C1738 C1742 1.524 . S
C1739 C1731 1.511 . S
C1739 C1738 1.370 1_655 S
C1739 C1740 1.403 . S
C1740 C1739 1.403 . S
C1740 C1741 1.404 . S
C1740 C1743 1.539 . S
C1741 C1737 1.408 . S
C1741 C1740 1.404 . S
C1741 H1753 0.930 . S
C1742 C1738 1.524 . S
C1742 H1754 0.956 . S
C1742 H1755 0.961 . S
C1742 H1756 0.961 . S
C1743 C1740 1.539 . S
C1743 H1757 0.958 . S
C1743 H1758 0.961 . S
C1743 H1759 0.960 . S
H1744 C1728 0.931 . S
H1745 C1733 0.929 . S
H1746 C1734 0.960 . S
H1747 C1734 0.962 . S
H1748 C1734 0.960 . S
H1749 C1735 0.961 . S
H1750 C1735 0.961 . S
H1751 C1735 0.961 . S
H1752 C1736 0.931 . S
H1753 C1741 0.930 . S
H1754 C1742 0.956 . S
H1755 C1742 0.961 . S
H1756 C1742 0.961 . S
H1757 C1743 0.958 . S
H1758 C1743 0.961 . S
H1759 C1743 0.960 . S
C1760 C1761 1.391 1_545 S
C1760 C1762 1.394 . S
C1760 H1776 0.931 . S
C1761 C1760 1.391 1_565 S
C1761 C1765 1.376 . S
C1762 C1760 1.394 . S
C1762 C1763 1.369 1_545 S
C1762 C1766 1.531 . S
C1763 C1762 1.369 1_565 S
C1763 C1764 1.410 . S
C1763 C1771 1.503 1_465 S
C1764 C1763 1.410 . S
C1764 C1765 1.392 . S
C1764 C1767 1.511 . S
C1765 C1761 1.376 . S
C1765 C1764 1.392 . S
C1765 H1777 0.929 . S
C1766 C1762 1.531 . S
C1766 H1778 0.960 . S
C1766 H1779 0.962 . S
C1766 H1780 0.960 . S
C1767 C1764 1.511 . S
C1767 H1781 0.961 . S
C1767 H1782 0.961 1_455 S
C1767 H1783 0.961 . S
C1768 C1769 1.370 . S
C1768 C1770 1.359 1_545 S
C1768 H1784 0.931 . S
C1769 C1768 1.370 . S
C1769 C1773 1.408 . S
C1770 C1768 1.359 1_565 S
C1770 C1771 1.366 1_565 S
C1770 C1774 1.533 . S
C1771 C1763 1.503 1_645 S
C1771 C1770 1.366 1_545 S
C1771 C1772 1.403 . S
C1772 C1771 1.403 . S
C1772 C1773 1.404 . S
C1772 C1775 1.539 1_655 S
C1773 C1769 1.408 . S
C1773 C1772 1.404 . S
C1773 H1785 0.930 . S
C1774 C1770 1.533 . S
C1774 H1786 0.956 . S
C1774 H1787 0.961 . S
C1774 H1788 0.961 . S
C1775 C1772 1.539 1_455 S
C1775 H1789 0.958 . S
C1775 H1790 0.961 1_455 S
C1775 H1791 0.960 . S
H1776 C1760 0.931 . S
H1777 C1765 0.929 . S
H1778 C1766 0.960 . S
H1779 C1766 0.962 . S
H1780 C1766 0.960 . S
H1781 C1767 0.961 . S
H1782 C1767 0.961 1_655 S
H1783 C1767 0.961 . S
H1784 C1768 0.931 . S
H1785 C1773 0.930 . S
H1786 C1774 0.956 . S
H1787 C1774 0.961 . S
H1788 C1774 0.961 . S
H1789 C1775 0.958 . S
H1790 C1775 0.961 1_655 S
H1791 C1775 0.960 . S
C1792 C1793 1.391 . S
C1792 C1794 1.394 . S
C1792 H1808 0.931 . S
C1793 C1792 1.391 . S
C1793 C1797 1.376 . S
C1794 C1792 1.394 . S
C1794 C1795 1.369 . S
C1794 C1798 1.531 . S
C1795 C1794 1.369 . S
C1795 C1796 1.410 . S
C1795 C1803 1.503 1_565 S
C1796 C1795 1.410 . S
C1796 C1797 1.392 . S
C1796 C1799 1.511 . S
C1797 C1793 1.376 . S
C1797 C1796 1.392 . S
C1797 H1809 0.929 . S
C1798 C1794 1.531 . S
C1798 H1810 0.960 1_565 S
C1798 H1811 0.962 . S
C1798 H1812 0.960 . S
C1799 C1796 1.511 . S
C1799 H1813 0.961 . S
C1799 H1814 0.961 . S
C1799 H1815 0.961 . S
C1800 C1801 1.370 . S
C1800 C1802 1.363 . S
C1800 H1816 0.931 . S
C1801 C1800 1.370 . S
C1801 C1805 1.408 . S
C1802 C1800 1.363 . S
C1802 C1803 1.370 . S
C1802 C1806 1.524 1_545 S
C1803 C1795 1.503 1_545 S
C1803 C1802 1.370 . S
C1803 C1804 1.403 . S
C1804 C1803 1.403 . S
C1804 C1805 1.404 . S
C1804 C1807 1.539 . S
C1805 C1801 1.408 . S
C1805 C1804 1.404 . S
C1805 H1817 0.930 . S
C1806 C1802 1.524 1_565 S
C1806 H1818 0.956 . S
C1806 H1819 0.961 . S
C1806 H1820 0.957 1_565 S
C1807 C1804 1.539 . S
C1807 H1821 0.958 . S
C1807 H1822 0.961 . S
C1807 H1823 0.960 . S
H1808 C1792 0.931 . S
H1809 C1797 0.929 . S
H1810 C1798 0.960 1_545 S
H1811 C1798 0.962 . S
H1812 C1798 0.960 . S
H1813 C1799 0.961 . S
H1814 C1799 0.961 . S
H1815 C1799 0.961 . S
H1816 C1800 0.931 . S
H1817 C1805 0.930 . S
H1818 C1806 0.956 . S
H1819 C1806 0.961 . S
H1820 C1806 0.957 1_545 S
H1821 C1807 0.958 . S
H1822 C1807 0.961 . S
H1823 C1807 0.960 . S
C545 C5 0.800 . S
C553 C243 0.715 . S
C577 C141 0.753 . S
C585 C39 0.751 . S
C609 C73 0.787 . S
C617 C175 0.717 . S
C641 C107 0.765 . S
C649 C209 0.723 . S
C673 C277 0.681 . S
C681 C515 0.768 . S
C705 C413 0.678 . S
C713 C311 0.766 . S
C737 C447 0.806 . S
C745 C345 0.727 . S
C769 C481 0.689 . S
C777 C379 0.769 . S
C801 C206 1.347 . S
C809 C2 1.317 . S
C833 C36 1.354 . S
C841 C240 1.311 . S
C865 C70 1.354 . S
C873 C138 1.314 . S
C897 C172 1.344 . S
C905 C104 1.315 . S
C929 C478 1.303 . S
C937 C274 1.341 . S
C961 C512 1.370 . S
C969 C308 1.310 . S
C993 C342 1.275 . S
C1001 C410 1.347 . S
C1025 C376 1.297 . S
C1033 C444 1.329 . S
C1057 C9 1.284 . S
C1065 C543 1.468 . S
C1089 C43 1.353 . S
C1097 C441 1.472 . S
C1121 C77 1.250 . S
C1129 C475 1.462 . S
C1153 C509 1.463 . S
C1161 C111 1.314 . S
C1185 C339 1.460 . S
C1193 C145 1.312 . S
C1217 C373 1.442 . S
C1225 C179 1.282 . S
C1249 C213 1.251 . S
C1257 C407 1.463 . S
C1281 C247 1.258 . S
C1289 C305 1.457 . S
C1313 C271 1.445 . S
C1321 C281 1.296 . S
C1345 C169 1.452 . S
C1353 C315 1.275 . S
C1377 C349 1.327 . S
C1385 C203 1.462 . S
C1409 C237 1.459 . S
C1417 C383 1.317 . S
C1441 C67 1.460 . S
C1449 C417 1.279 . S
C1473 C101 1.458 . S
C1481 C451 1.278 . S
C1505 C135 1.459 . S
C1513 C485 1.316 . S
C1537 C33 1.480 . S
C1545 C519 1.315 . S
C1569 C20 1.171 . S
C1577 C292 1.205 . S
C1601 C326 1.220 . S
C1609 C54 1.183 . S
C1633 C360 1.167 . S
C1641 C88 1.204 . S
C1665 C122 1.221 . S
C1673 C394 1.183 . S
C1697 C428 1.163 . S
C1705 C156 1.206 . S
C1729 C190 1.201 . S
C1737 C462 1.193 . S
C1761 C496 1.216 . S
C1769 C224 1.184 . S
C1793 C258 1.190 . S
C1801 C530 1.194 . S
