# Generated by pormake.
# Topology ske, (6)-cn, num edge types: 1
# Building blocks:
#     Node 0, Type 0, BuildingBlock: BETDAH_clean_sbu_0, # of connection points: 6
#     Node 1, Type 0, BuildingBlock: BETDAH_clean_sbu_0, # of connection points: 6
#     Node 2, Type 0, BuildingBlock: BETDAH_clean_sbu_0, # of connection points: 6
#     Node 3, Type 0, BuildingBlock: BETDAH_clean_sbu_0, # of connection points: 6
#     Node 4, Type 0, BuildingBlock: BETDAH_clean_sbu_0, # of connection points: 6
#     Node 5, Type 0, BuildingBlock: BETDAH_clean_sbu_0, # of connection points: 6
#     Node 6, Type 0, BuildingBlock: BETDAH_clean_sbu_0, # of connection points: 6
#     Node 7, Type 0, BuildingBlock: BETDAH_clean_sbu_0, # of connection points: 6
#     Edge 8, Type (0, 0), BuildingBlock: OJICUG_clean_linker_0, # of connection points: 2
#     Edge 9, Type (0, 0), BuildingBlock: OJICUG_clean_linker_0, # of connection points: 2
#     Edge 10, Type (0, 0), BuildingBlock: OJICUG_clean_linker_0, # of connection points: 2
#     Edge 11, Type (0, 0), BuildingBlock: OJICUG_clean_linker_0, # of connection points: 2
#     Edge 12, Type (0, 0), BuildingBlock: OJICUG_clean_linker_0, # of connection points: 2
#     Edge 13, Type (0, 0), BuildingBlock: OJICUG_clean_linker_0, # of connection points: 2
#     Edge 14, Type (0, 0), BuildingBlock: OJICUG_clean_linker_0, # of connection points: 2
#     Edge 15, Type (0, 0), BuildingBlock: OJICUG_clean_linker_0, # of connection points: 2
#     Edge 16, Type (0, 0), BuildingBlock: OJICUG_clean_linker_0, # of connection points: 2
#     Edge 17, Type (0, 0), BuildingBlock: OJICUG_clean_linker_0, # of connection points: 2
#     Edge 18, Type (0, 0), BuildingBlock: OJICUG_clean_linker_0, # of connection points: 2
#     Edge 19, Type (0, 0), BuildingBlock: OJICUG_clean_linker_0, # of connection points: 2
#     Edge 20, Type (0, 0), BuildingBlock: OJICUG_clean_linker_0, # of connection points: 2
#     Edge 21, Type (0, 0), BuildingBlock: OJICUG_clean_linker_0, # of connection points: 2
#     Edge 22, Type (0, 0), BuildingBlock: OJICUG_clean_linker_0, # of connection points: 2
#     Edge 23, Type (0, 0), BuildingBlock: OJICUG_clean_linker_0, # of connection points: 2
#     Edge 24, Type (0, 0), BuildingBlock: OJICUG_clean_linker_0, # of connection points: 2
#     Edge 25, Type (0, 0), BuildingBlock: OJICUG_clean_linker_0, # of connection points: 2
#     Edge 26, Type (0, 0), BuildingBlock: OJICUG_clean_linker_0, # of connection points: 2
#     Edge 27, Type (0, 0), BuildingBlock: OJICUG_clean_linker_0, # of connection points: 2
#     Edge 28, Type (0, 0), BuildingBlock: OJICUG_clean_linker_0, # of connection points: 2
#     Edge 29, Type (0, 0), BuildingBlock: OJICUG_clean_linker_0, # of connection points: 2
#     Edge 30, Type (0, 0), BuildingBlock: OJICUG_clean_linker_0, # of connection points: 2
#     Edge 31, Type (0, 0), BuildingBlock: OJICUG_clean_linker_0, # of connection points: 2
# Relax obj value: 0.203
# Max RMSD: 0.215
# Mean RMSD: 0.208
data_MOF--net-ske--node1-BETDAH_clean_sbu_0--edge1-OJICUG_clean_linker_0
_symmetry_space_group_name_H-M    P1
_symmetry_Int_Tables_number       1
_symmetry_cell_setting            triclinic
loop_
_symmetry_equiv_pos_as_xyz
'x, y, z'
_cell_length_a     87.54235
_cell_length_b     20.684262
_cell_length_c     11.421383
_cell_angle_alpha  90.002004
_cell_angle_beta   89.996208
_cell_angle_gamma 84.042505
loop_
_atom_site_label
_atom_site_type_symbol
_atom_site_fract_x
_atom_site_fract_y
_atom_site_fract_z
_atom_type_partial_charge
Ho0 Ho 0.16104 0.26362 0.53766 0.0
Ho1 Ho 0.12581 0.25626 0.53997 0.0
C2 C 0.14343 0.2568 0.78589 0.0
C3 C 0.18849 0.29945 0.55429 0.0
C4 C 0.20353 0.28817 0.6142 0.0
C5 C 0.2097 0.3411 0.66658 0.0
C6 C 0.2247 0.3346 0.71047 0.0
C7 C 0.23395 0.27493 0.70254 0.0
C8 C 0.22759 0.22136 0.65309 0.0
C9 C 0.21255 0.22788 0.60933 0.0
C10 C 0.15243 0.14117 0.52939 0.0
C11 C 0.144 0.25579 0.29443 0.0
C12 C 0.09824 0.22112 0.52268 0.0
C13 C 0.08177 0.24112 0.50006 0.0
C14 C 0.07411 0.20743 0.41523 0.0
C15 C 0.05808 0.21655 0.40573 0.0
C16 C 0.04934 0.25931 0.48161 0.0
C17 C 0.05709 0.29525 0.56305 0.0
C18 C 0.07313 0.28626 0.57226 0.0
C19 C 0.13439 0.37918 0.54212 0.0
O20 O 0.15531 0.27652 0.72942 0.0
O21 O 0.13172 0.23584 0.72911 0.0
O22 O 0.1847 0.25507 0.48118 0.0
O23 O 0.17679 0.32604 0.61486 0.0
O24 O 0.16549 0.15671 0.49106 0.0
O25 O 0.14583 0.18858 0.58501 0.0
O26 O 0.13284 0.23162 0.3531 0.0
O27 O 0.15489 0.2835 0.34968 0.0
O28 O 0.10417 0.24063 0.61978 0.0
O29 O 0.10787 0.21915 0.43494 0.0
O30 O 0.12143 0.36385 0.58303 0.0
O31 O 0.14091 0.33071 0.48909 0.0
H32 H 0.20306 0.3883 0.67008 0.0
H33 H 0.22923 0.37709 0.74663 0.0
H34 H 0.2343 0.17444 0.64715 0.0
H35 H 0.20814 0.18614 0.56924 0.0
H36 H 0.08047 0.17172 0.35957 0.0
H37 H 0.05251 0.18768 0.34272 0.0
H38 H 0.05073 0.32938 0.62152 0.0
H39 H 0.07868 0.31291 0.6388 0.0
Ho40 Ho 0.8709 0.26679 0.53724 0.0
Ho41 Ho 0.90613 0.2742 0.53942 0.0
C42 C 0.88852 0.2736 0.78545 0.0
C43 C 0.84346 0.23093 0.55395 0.0
C44 C 0.82841 0.24223 0.61388 0.0
C45 C 0.82226 0.18934 0.6665 0.0
C46 C 0.80726 0.19585 0.71042 0.0
C47 C 0.798 0.25548 0.70227 0.0
C48 C 0.80434 0.30901 0.65258 0.0
C49 C 0.81939 0.30249 0.60879 0.0
C50 C 0.87951 0.38925 0.5289 0.0
C51 C 0.88792 0.27474 0.29402 0.0
C52 C 0.93369 0.3094 0.52166 0.0
C53 C 0.95017 0.28927 0.49974 0.0
C54 C 0.95785 0.32204 0.41366 0.0
C55 C 0.97387 0.31288 0.40439 0.0
C56 C 0.98261 0.271 0.48174 0.0
C57 C 0.97485 0.23596 0.56454 0.0
C58 C 0.95881 0.24499 0.57353 0.0
C59 C 0.89757 0.15126 0.5417 0.0
O60 O 0.87663 0.25397 0.72901 0.0
O61 O 0.90025 0.29444 0.72868 0.0
O62 O 0.84724 0.27527 0.48076 0.0
O63 O 0.85516 0.20438 0.61454 0.0
O64 O 0.86644 0.37371 0.49065 0.0
O65 O 0.8861 0.34185 0.58448 0.0
O66 O 0.89905 0.29908 0.35273 0.0
O67 O 0.87705 0.24688 0.34927 0.0
O68 O 0.92772 0.29067 0.61918 0.0
O69 O 0.92411 0.31059 0.43376 0.0
O70 O 0.91053 0.16662 0.58254 0.0
O71 O 0.89104 0.19971 0.48866 0.0
H72 H 0.8289 0.14216 0.67017 0.0
H73 H 0.80274 0.15339 0.74678 0.0
H74 H 0.79763 0.3559 0.64647 0.0
H75 H 0.82379 0.34419 0.56851 0.0
H76 H 0.95149 0.35709 0.35675 0.0
H77 H 0.97945 0.34106 0.34029 0.0
H78 H 0.98121 0.20251 0.62419 0.0
H79 H 0.95326 0.21906 0.64106 0.0
Ho80 Ho 0.12587 0.75624 0.51509 0.0
Ho81 Ho 0.16113 0.76347 0.51723 0.0
C82 C 0.1441 0.75564 0.76044 0.0
C83 C 0.09832 0.72095 0.53278 0.0
C84 C 0.08182 0.74096 0.55434 0.0
C85 C 0.07412 0.70799 0.63998 0.0
C86 C 0.05809 0.71711 0.64896 0.0
C87 C 0.04936 0.75916 0.57178 0.0
C88 C 0.05715 0.79435 0.48938 0.0
C89 C 0.0732 0.78536 0.48065 0.0
C90 C 0.13443 0.87913 0.51296 0.0
C91 C 0.1435 0.75683 0.26901 0.0
C92 C 0.18861 0.79904 0.50064 0.0
C93 C 0.20364 0.7878 0.44063 0.0
C94 C 0.20988 0.84089 0.38945 0.0
C95 C 0.22488 0.83434 0.34548 0.0
C96 C 0.23406 0.77444 0.35213 0.0
C97 C 0.22763 0.72072 0.40038 0.0
C98 C 0.21258 0.7273 0.44423 0.0
C99 C 0.15243 0.64111 0.52576 0.0
O100 O 0.13296 0.73134 0.70176 0.0
O101 O 0.15498 0.78344 0.70518 0.0
O102 O 0.1043 0.73953 0.43523 0.0
O103 O 0.10788 0.72 0.6208 0.0
O104 O 0.12145 0.86377 0.47235 0.0
O105 O 0.14102 0.83073 0.56583 0.0
O106 O 0.1554 0.77629 0.32546 0.0
O107 O 0.13175 0.73614 0.32576 0.0
O108 O 0.18481 0.75456 0.57347 0.0
O109 O 0.17691 0.82583 0.44026 0.0
O110 O 0.16551 0.65649 0.5641 0.0
O111 O 0.14591 0.68864 0.47008 0.0
H112 H 0.08046 0.67284 0.69679 0.0
H113 H 0.0525 0.68878 0.71275 0.0
H114 H 0.05081 0.82795 0.42986 0.0
H115 H 0.07877 0.81145 0.41346 0.0
H116 H 0.2033 0.88824 0.38694 0.0
H117 H 0.22946 0.87694 0.31029 0.0
H118 H 0.23427 0.67364 0.40531 0.0
H119 H 0.20812 0.68543 0.48338 0.0
Ho120 Ho 0.90609 0.77413 0.51467 0.0
Ho121 Ho 0.87084 0.76693 0.5169 0.0
C122 C 0.88787 0.7747 0.7601 0.0
C123 C 0.93365 0.80937 0.53219 0.0
C124 C 0.95015 0.78938 0.55399 0.0
C125 C 0.95784 0.82251 0.63947 0.0
C126 C 0.97387 0.81342 0.64857 0.0
C127 C 0.9826 0.77124 0.57166 0.0
C128 C 0.97482 0.73588 0.48943 0.0
C129 C 0.95878 0.74485 0.48059 0.0
C130 C 0.89753 0.65125 0.51254 0.0
C131 C 0.88846 0.77359 0.26866 0.0
C132 C 0.84336 0.73139 0.50036 0.0
C133 C 0.82832 0.74263 0.44037 0.0
C134 C 0.82208 0.68952 0.38928 0.0
C135 C 0.80708 0.69607 0.34534 0.0
C136 C 0.79791 0.75598 0.35192 0.0
C137 C 0.80434 0.80972 0.40007 0.0
C138 C 0.81938 0.80314 0.44389 0.0
C139 C 0.87955 0.88929 0.52545 0.0
O140 O 0.89902 0.79895 0.70142 0.0
O141 O 0.87698 0.74696 0.70484 0.0
O142 O 0.92768 0.79054 0.43478 0.0
O143 O 0.92408 0.81059 0.62017 0.0
O144 O 0.9105 0.6666 0.47188 0.0
O145 O 0.89094 0.69965 0.56545 0.0
O146 O 0.87656 0.7541 0.32512 0.0
O147 O 0.90021 0.79431 0.3254 0.0
O148 O 0.84716 0.7759 0.57314 0.0
O149 O 0.85505 0.70457 0.44 0.0
O150 O 0.86647 0.87391 0.56383 0.0
O151 O 0.88606 0.84176 0.46971 0.0
H152 H 0.95149 0.85777 0.69605 0.0
H153 H 0.97945 0.84186 0.71222 0.0
H154 H 0.98117 0.70218 0.43012 0.0
H155 H 0.95322 0.71864 0.41351 0.0
H156 H 0.82865 0.64216 0.38683 0.0
H157 H 0.80249 0.65346 0.31022 0.0
H158 H 0.7977 0.85681 0.40494 0.0
H159 H 0.82385 0.84502 0.48297 0.0
Ho160 Ho 0.66106 0.76331 0.0377 0.0
Ho161 Ho 0.62583 0.7559 0.03993 0.0
C162 C 0.64344 0.75647 0.28593 0.0
C163 C 0.6885 0.79923 0.05435 0.0
C164 C 0.70354 0.78805 0.11434 0.0
C165 C 0.70978 0.84119 0.16535 0.0
C166 C 0.72477 0.83467 0.20931 0.0
C167 C 0.73395 0.77477 0.20282 0.0
C168 C 0.72752 0.721 0.15476 0.0
C169 C 0.71248 0.72754 0.11093 0.0
C170 C 0.65246 0.64085 0.02932 0.0
C171 C 0.64404 0.75534 0.79449 0.0
C172 C 0.59827 0.72071 1.02231 0.0
C173 C 0.58179 0.74082 1.00033 0.0
C174 C 0.5741 0.70775 0.91475 0.0
C175 C 0.55808 0.71695 0.9055 0.0
C176 C 0.54935 0.75917 0.98238 0.0
C177 C 0.55712 0.79449 0.06467 0.0
C178 C 0.57316 0.78542 0.07364 0.0
C179 C 0.6344 0.87884 0.04213 0.0
O180 O 0.65533 0.7761 0.22948 0.0
O181 O 0.63171 0.73563 0.22917 0.0
O182 O 0.68473 0.75476 0.98138 0.0
O183 O 0.67679 0.82584 0.11482 0.0
O184 O 0.66552 0.6564 0.99105 0.0
O185 O 0.64586 0.68825 0.08494 0.0
O186 O 0.6329 0.73105 0.8532 0.0
O187 O 0.65491 0.78318 0.84972 0.0
O188 O 0.60423 0.73957 0.11975 0.0
O189 O 0.60785 0.7194 0.93441 0.0
O190 O 0.62143 0.86349 0.08301 0.0
O191 O 0.64092 0.83037 0.98911 0.0
H192 H 0.7032 0.88854 0.16773 0.0
H193 H 0.72936 0.8773 0.24436 0.0
H194 H 0.73417 0.67391 0.14996 0.0
H195 H 0.70801 0.68564 0.07194 0.0
H196 H 0.58045 0.67245 0.85823 0.0
H197 H 0.55249 0.68855 0.84181 0.0
H198 H 0.55078 0.82821 0.12394 0.0
H199 H 0.57873 0.81159 0.14077 0.0
Ho200 Ho 0.3709 0.76711 0.03777 0.0
Ho201 Ho 0.40613 0.77452 0.03998 0.0
C202 C 0.38851 0.77397 0.28598 0.0
C203 C 0.34346 0.7312 0.05444 0.0
C204 C 0.32842 0.74239 0.11444 0.0
C205 C 0.32219 0.68926 0.16554 0.0
C206 C 0.30719 0.69578 0.20951 0.0
C207 C 0.29801 0.75567 0.20295 0.0
C208 C 0.30444 0.80942 0.1548 0.0
C209 C 0.31948 0.80288 0.11095 0.0
C210 C 0.3795 0.88957 0.02939 0.0
C211 C 0.38792 0.77507 0.79454 0.0
C212 C 0.43369 0.80972 1.0224 0.0
C213 C 0.45017 0.78962 1.00032 0.0
C214 C 0.45786 0.82286 0.91498 0.0
C215 C 0.47389 0.81366 0.90571 0.0
C216 C 0.48261 0.77128 0.98232 0.0
C217 C 0.47483 0.7358 0.06435 0.0
C218 C 0.45879 0.74487 0.07334 0.0
C219 C 0.39756 0.65159 0.04216 0.0
O220 O 0.37663 0.75432 0.22954 0.0
O221 O 0.40024 0.79482 0.22921 0.0
O222 O 0.34723 0.77567 0.98146 0.0
O223 O 0.35517 0.70459 0.11489 0.0
O224 O 0.36644 0.87402 0.99113 0.0
O225 O 0.3861 0.84218 0.08501 0.0
O226 O 0.39907 0.79935 0.85324 0.0
O227 O 0.37705 0.74725 0.84978 0.0
O228 O 0.42774 0.79075 0.11978 0.0
O229 O 0.4241 0.81112 0.93452 0.0
O230 O 0.41052 0.66693 0.08304 0.0
O231 O 0.39104 0.70006 0.98915 0.0
H232 H 0.32877 0.64192 0.16798 0.0
H233 H 0.30261 0.65316 0.24465 0.0
H234 H 0.29778 0.8565 0.14994 0.0
H235 H 0.32394 0.84478 0.07189 0.0
H236 H 0.45152 0.85827 0.85868 0.0
H237 H 0.47947 0.84219 0.84223 0.0
H238 H 0.48118 0.70195 0.1234 0.0
H239 H 0.45323 0.71857 0.14028 0.0
Ho240 Ho 0.62587 0.25598 1.01465 0.0
Ho241 Ho 0.66112 0.26315 1.01681 0.0
C242 C 0.64409 0.25538 0.26002 0.0
C243 C 0.59831 0.22073 0.03229 0.0
C244 C 0.58181 0.24077 0.05386 0.0
C245 C 0.5741 0.20772 0.13934 0.0
C246 C 0.55807 0.21687 0.14832 0.0
C247 C 0.54936 0.25904 0.07128 0.0
C248 C 0.55715 0.2943 0.98902 0.0
C249 C 0.5732 0.28527 0.98031 0.0
C250 C 0.63443 0.37886 1.0125 0.0
C251 C 0.64349 0.25652 0.76859 0.0
C252 C 0.68861 0.29864 1.00014 0.0
C253 C 0.70364 0.28728 0.94008 0.0
C254 C 0.7098 0.34012 0.88735 0.0
C255 C 0.72479 0.33357 0.84334 0.0
C256 C 0.73405 0.27393 0.85151 0.0
C257 C 0.7277 0.22043 0.9013 0.0
C258 C 0.71266 0.227 0.94518 0.0
C259 C 0.65241 0.14081 1.02543 0.0
O260 O 0.63295 0.23109 0.20134 0.0
O261 O 0.65497 0.28316 0.20475 0.0
O262 O 0.6043 0.23934 0.93476 0.0
O263 O 0.60787 0.21974 0.12031 0.0
O264 O 0.62146 0.36351 0.97187 0.0
O265 O 0.64102 0.33045 0.06539 0.0
O266 O 0.6554 0.27598 0.82504 0.0
O267 O 0.63174 0.23584 0.82533 0.0
O268 O 0.6848 0.25423 0.0731 0.0
O269 O 0.67691 0.32544 0.93976 0.0
O270 O 0.66549 0.15618 0.06378 0.0
O271 O 0.6459 0.18832 0.96968 0.0
H272 H 0.58044 0.17248 0.19603 0.0
H273 H 0.55248 0.18849 0.21198 0.0
H274 H 0.55082 0.32799 0.92962 0.0
H275 H 0.57878 0.31141 0.91323 0.0
H276 H 0.70316 0.38732 0.88367 0.0
H277 H 0.72932 0.37601 0.80692 0.0
H278 H 0.73441 0.17353 0.90743 0.0
H279 H 0.70826 0.18532 0.98555 0.0
Ho280 Ho 0.40608 0.27447 1.01468 0.0
Ho281 Ho 0.37083 0.26729 1.01686 0.0
C282 C 0.38785 0.27507 0.26005 0.0
C283 C 0.43364 0.30972 0.03232 0.0
C284 C 0.45014 0.28967 0.05384 0.0
C285 C 0.45784 0.32264 0.13945 0.0
C286 C 0.47387 0.31349 0.14842 0.0
C287 C 0.48259 0.27141 0.07124 0.0
C288 C 0.4748 0.23622 0.98885 0.0
C289 C 0.45875 0.24525 0.98014 0.0
C290 C 0.39752 0.15159 1.01253 0.0
C291 C 0.38846 0.27391 0.76862 0.0
C292 C 0.34334 0.23179 1.00022 0.0
C293 C 0.32831 0.24313 0.94018 0.0
C294 C 0.32214 0.19024 0.88769 0.0
C295 C 0.30715 0.19679 0.8437 0.0
C296 C 0.2979 0.25646 0.85165 0.0
C297 C 0.30426 0.31001 0.9012 0.0
C298 C 0.3193 0.30344 0.94506 0.0
C299 C 0.37954 0.38963 1.02548 0.0
O300 O 0.399 0.29937 0.20136 0.0
O301 O 0.37697 0.24728 0.2048 0.0
O302 O 0.42765 0.29115 0.93477 0.0
O303 O 0.42408 0.31067 0.12036 0.0
O304 O 0.41049 0.16693 0.97189 0.0
O305 O 0.39093 0.19999 0.06542 0.0
O306 O 0.37655 0.25446 0.82508 0.0
O307 O 0.40021 0.29458 0.82536 0.0
O308 O 0.34715 0.27622 0.07315 0.0
O309 O 0.35504 0.20499 0.93984 0.0
O310 O 0.36646 0.37426 0.06383 0.0
O311 O 0.38605 0.34211 0.96973 0.0
H312 H 0.4515 0.35781 0.19626 0.0
H313 H 0.47947 0.3418 0.21219 0.0
H314 H 0.48113 0.2026 0.92933 0.0
H315 H 0.45317 0.21918 0.91296 0.0
H316 H 0.32877 0.14302 0.88418 0.0
H317 H 0.30261 0.15432 0.80747 0.0
H318 H 0.29756 0.35693 0.90715 0.0
H319 H 0.32371 0.34515 0.98524 0.0
C320 C 0.25459 0.3012 0.84376 0.0
C321 C 0.25031 0.2695 0.7417 0.0
H322 H 0.2728 0.32149 0.9589 0.0
C323 C 0.26186 0.23397 0.67549 0.0
H324 H 0.246 0.3283 0.89776 0.0
C325 C 0.27726 0.23024 0.71038 0.0
C326 C 0.28154 0.26194 0.81244 0.0
H327 H 0.25905 0.20995 0.59524 0.0
H328 H 0.28586 0.20314 0.65637 0.0
C329 C 0.26999 0.29747 0.87864 0.0
C330 C 0.75468 0.30004 0.71006 0.0
C331 C 0.75041 0.26846 0.81228 0.0
H332 H 0.77288 0.32023 0.59478 0.0
C333 C 0.76197 0.23306 0.8786 0.0
H334 H 0.74608 0.32704 0.65597 0.0
C335 C 0.77737 0.22933 0.84367 0.0
C336 C 0.78164 0.26091 0.74146 0.0
H337 H 0.75916 0.20914 0.95896 0.0
H338 H 0.78596 0.20233 0.89776 0.0
C339 C 0.77008 0.29631 0.67514 0.0
C340 C 0.27013 0.79743 0.17675 0.0
C341 C 0.28165 0.76118 0.24216 0.0
H342 H 0.24616 0.8289 0.15823 0.0
C343 C 0.27734 0.72884 0.34342 0.0
H344 H 0.27297 0.82196 0.09711 0.0
C345 C 0.26193 0.73265 0.37831 0.0
C346 C 0.25041 0.7689 0.3129 0.0
H347 H 0.2859 0.70117 0.39681 0.0
H348 H 0.2591 0.70812 0.45795 0.0
C349 C 0.25473 0.80123 0.21163 0.0
C350 C 0.75463 0.80164 0.34321 0.0
C351 C 0.75031 0.76925 0.24201 0.0
H352 H 0.77287 0.8224 0.45767 0.0
C353 C 0.76183 0.73295 0.17664 0.0
H354 H 0.74606 0.82935 0.39657 0.0
C355 C 0.77723 0.72914 0.2115 0.0
C356 C 0.78155 0.76153 0.3127 0.0
H357 H 0.75899 0.70838 0.09705 0.0
H358 H 0.78579 0.70144 0.15813 0.0
C359 C 0.77003 0.79783 0.37807 0.0
C360 C 0.12805 1.0004 0.50214 0.0
C361 C 0.13894 0.94635 0.52025 0.0
H362 H 0.12372 0.10457 0.49508 0.0
C363 C 0.15418 0.95725 0.54522 0.0
H364 H 0.11618 0.99367 0.48375 0.0
C365 C 0.15859 0.02054 0.54689 0.0
C366 C 0.14769 0.07445 0.52931 0.0
H367 H 0.16275 0.91685 0.56216 0.0
H368 H 0.17049 0.02739 0.56375 0.0
C369 C 0.13233 0.06386 0.50892 0.0
C370 C 0.89961 0.46653 0.50819 0.0
C371 C 0.88425 0.45596 0.52877 0.0
H372 H 0.91576 0.5367 0.48293 0.0
C373 C 0.87336 0.50988 0.54655 0.0
H374 H 0.90821 0.4258 0.49419 0.0
C375 C 0.87777 0.57316 0.5449 0.0
C376 C 0.89301 0.58404 0.51978 0.0
H377 H 0.86146 0.50304 0.56355 0.0
H378 H 0.86921 0.61357 0.562 0.0
C379 C 0.9039 0.52998 0.50145 0.0
C380 C 0.89965 0.96654 0.54593 0.0
C381 C 0.88431 0.95596 0.52508 0.0
H382 H 0.91579 0.03675 0.5715 0.0
C383 C 0.87342 1.00987 0.50697 0.0
H384 H 0.90825 0.92584 0.56023 0.0
C385 C 0.87783 0.07315 0.50865 0.0
C386 C 0.89306 0.08405 0.53414 0.0
H387 H 0.86153 1.00301 0.4898 0.0
H388 H 0.86927 0.11355 0.4914 0.0
C389 C 0.90394 0.03001 0.55269 0.0
C390 C 0.15854 0.52053 0.50724 0.0
C391 C 0.14766 0.57444 0.52543 0.0
H392 H 0.16268 0.41684 0.49164 0.0
C393 C 0.13231 0.56389 0.54637 0.0
H394 H 0.17044 0.52737 0.49 0.0
C395 C 0.12803 0.50043 0.55315 0.0
C396 C 0.1389 0.44638 0.53452 0.0
H397 H 0.12372 0.60461 0.56074 0.0
H398 H 0.11617 0.49371 0.57203 0.0
C399 C 0.15413 0.45725 0.50894 0.0
C400 C 0.63235 0.56359 1.00865 0.0
C401 C 0.64771 0.57414 0.02909 0.0
H402 H 0.61619 0.49343 0.98337 0.0
C403 C 0.65861 0.52021 0.04659 0.0
H404 H 0.62374 0.60432 0.99485 0.0
C405 C 0.65419 0.45693 0.04481 0.0
C406 C 0.63895 0.44607 1.01984 0.0
H407 H 0.67051 0.52704 0.06347 0.0
H408 H 0.66276 0.41651 0.06169 0.0
C409 C 0.62806 0.50014 1.00178 0.0
C410 C 0.37335 1.01022 0.04666 0.0
C411 C 0.38425 0.95629 0.02917 0.0
H412 H 0.36919 0.11392 0.06174 0.0
C413 C 0.39961 0.96685 1.00873 0.0
H414 H 0.36145 1.00338 0.06354 0.0
C415 C 0.40389 0.03031 1.00184 0.0
C416 C 0.393 0.08437 1.01989 0.0
H417 H 0.40821 0.92612 0.99494 0.0
H418 H 0.41576 0.03702 0.98343 0.0
C419 C 0.37776 0.0735 0.04487 0.0
C420 C 0.37342 0.51021 1.00698 0.0
C421 C 0.3843 0.4563 1.0252 0.0
H422 H 0.36928 0.6139 0.99145 0.0
C423 C 0.39965 0.46687 0.04626 0.0
H424 H 0.36153 0.50336 0.98965 0.0
C425 C 0.40393 0.53033 0.05314 0.0
C426 C 0.39305 0.58438 0.03449 0.0
H427 H 0.40824 0.42615 0.06066 0.0
H428 H 0.41578 0.53706 0.07212 0.0
C429 C 0.37783 0.5735 1.00878 0.0
C430 C 0.63231 0.06356 0.04621 0.0
C431 C 0.64765 0.07413 1.02514 0.0
H432 H 0.61617 0.99336 0.07206 0.0
C433 C 0.65853 0.02023 1.00694 0.0
H434 H 0.62371 0.10427 0.0606 0.0
C435 C 0.65412 0.95694 1.00875 0.0
C436 C 0.6389 0.94605 0.03445 0.0
H437 H 0.67042 0.02709 0.98961 0.0
H438 H 0.66268 0.91654 0.99142 0.0
C439 C 0.62803 1.00009 0.05309 0.0
C440 C 0.15589 0.27875 0.1008 0.0
C441 C 0.14392 0.25478 0.16434 0.0
H442 H 0.16515 0.29816 0.93262 0.0
C443 C 0.13183 0.23086 0.10218 0.0
H444 H 0.16541 0.2975 0.14555 0.0
C445 C 0.13166 0.23139 0.9795 0.0
C446 C 0.14361 0.25563 0.91603 0.0
H447 H 0.12241 0.21209 0.14816 0.0
H448 H 0.12213 0.21286 0.93457 0.0
C449 C 0.15575 0.27911 0.97832 0.0
C450 C 0.87604 0.25172 0.10037 0.0
C451 C 0.888 0.27575 0.16393 0.0
H452 H 0.8668 0.23222 0.93218 0.0
C453 C 0.9001 0.29967 0.10178 0.0
H454 H 0.86653 0.23295 0.14511 0.0
C455 C 0.90028 0.29909 0.9791 0.0
C456 C 0.88834 0.2748 0.91561 0.0
H457 H 0.90951 0.31848 0.14778 0.0
H458 H 0.90981 0.31763 0.93418 0.0
C459 C 0.8762 0.25132 0.97789 0.0
C460 C 0.13173 0.73144 0.07537 0.0
C461 C 0.14368 0.75564 0.13886 0.0
H462 H 0.12248 0.71211 0.9067 0.0
C463 C 0.15583 0.77901 0.07657 0.0
H464 H 0.12218 0.71299 0.12029 0.0
C465 C 0.15599 0.77859 0.9541 0.0
C466 C 0.14402 0.75466 0.89054 0.0
H467 H 0.16524 0.79803 0.12229 0.0
H468 H 0.16552 0.79727 0.90935 0.0
C469 C 0.13191 0.73085 0.95269 0.0
C470 C 0.90006 0.7995 0.95234 0.0
C471 C 0.88795 0.7757 0.89019 0.0
H472 H 0.90978 0.81739 0.11994 0.0
C473 C 0.87598 0.75179 0.95375 0.0
H474 H 0.90949 0.81822 0.90635 0.0
C475 C 0.87613 0.7514 0.07623 0.0
C476 C 0.88828 0.77477 0.13851 0.0
H477 H 0.86645 0.73311 0.909 0.0
H478 H 0.86672 0.7324 0.12194 0.0
C479 C 0.90024 0.79894 0.07502 0.0
C480 C 0.63168 0.731 0.47958 0.0
C481 C 0.64363 0.75526 0.41608 0.0
H482 H 0.62244 0.71164 0.64826 0.0
C483 C 0.65577 0.77872 0.47836 0.0
H484 H 0.62215 0.71248 0.43466 0.0
C485 C 0.65592 0.77832 0.60084 0.0
C486 C 0.64396 0.75433 0.6644 0.0
H487 H 0.66517 0.79779 0.43265 0.0
H488 H 0.66544 0.79707 0.64558 0.0
C489 C 0.63186 0.73043 0.60226 0.0
C490 C 0.37604 0.7521 0.6009 0.0
C491 C 0.388 0.77609 0.66445 0.0
H492 H 0.36679 0.73264 0.43272 0.0
C493 C 0.4001 0.79999 0.6023 0.0
H494 H 0.36652 0.73335 0.64565 0.0
C495 C 0.40028 0.79943 0.47961 0.0
C496 C 0.38833 0.77517 0.41613 0.0
H497 H 0.40952 0.81877 0.64828 0.0
H498 H 0.40981 0.81794 0.43468 0.0
C499 C 0.37619 0.75171 0.47842 0.0
C500 C 0.6319 0.23058 0.45226 0.0
C501 C 0.64401 0.25439 0.39011 0.0
H502 H 0.62218 0.21271 0.61986 0.0
C503 C 0.65598 0.27831 0.45367 0.0
H504 H 0.62247 0.21186 0.40627 0.0
C505 C 0.65583 0.27871 0.57615 0.0
C506 C 0.64368 0.25534 0.63844 0.0
H507 H 0.66551 0.29699 0.40892 0.0
H508 H 0.66524 0.29772 0.62186 0.0
C509 C 0.63172 0.23116 0.57494 0.0
C510 C 0.37596 0.25214 0.45372 0.0
C511 C 0.38794 0.27606 0.39015 0.0
H512 H 0.36671 0.23273 0.62192 0.0
C513 C 0.40005 0.29987 0.45229 0.0
H514 H 0.36644 0.23347 0.40898 0.0
C515 C 0.40023 0.29928 0.57497 0.0
C516 C 0.38827 0.2751 0.63847 0.0
H517 H 0.40948 0.31859 0.40629 0.0
H518 H 0.40977 0.31773 0.61988 0.0
C519 C 0.37612 0.25174 0.5762 0.0
C520 C 0.02397 0.26492 0.58643 0.0
C521 C 0.03222 0.26338 0.48059 0.0
H522 H 1.00201 0.26857 0.66974 0.0
C523 C 0.02401 0.26356 0.37465 0.0
H524 H 0.02992 0.26388 0.66968 0.0
C525 C 1.00795 0.26559 0.3747 0.0
C526 C 0.99973 0.26695 0.48069 0.0
H527 H 0.02998 0.26269 0.29154 0.0
H528 H 1.00199 0.26553 0.29164 0.0
C529 C 1.00796 0.2666 0.58648 0.0
C530 C 1.00798 0.76601 0.46687 0.0
C531 C 0.99973 0.7671 0.57267 0.0
H532 H 0.02995 0.7626 0.38365 0.0
C533 C 1.00795 0.76635 0.67864 0.0
H534 H 1.00204 0.76749 0.3836 0.0
C535 C 0.02401 0.76424 0.67866 0.0
C536 C 0.03224 0.76331 0.57272 0.0
H537 H 1.00198 0.76685 0.76173 0.0
H538 H 0.02997 0.76388 0.76178 0.0
C539 C 0.024 0.76422 0.4669 0.0
C540 C 0.52399 0.76422 0.08717 0.0
C541 C 0.53223 0.76333 0.98136 0.0
H542 H 0.50202 0.76746 0.17041 0.0
C543 C 0.52401 0.76427 0.87538 0.0
H544 H 0.52993 0.76259 0.17043 0.0
C545 C 0.50795 0.76639 0.87537 0.0
C546 C 0.49973 0.76711 0.98132 0.0
H547 H 0.52998 0.76392 0.7923 0.0
H548 H 0.50198 0.76691 0.79227 0.0
C549 C 0.50797 0.766 0.08715 0.0
C550 C 0.50794 0.26626 0.17817 0.0
C551 C 0.49972 0.26719 0.07221 0.0
H552 H 0.52997 0.26359 0.26129 0.0
C553 C 0.50797 0.26621 0.9664 0.0
H554 H 0.50198 0.26666 0.26127 0.0
C555 C 0.52399 0.26436 0.96641 0.0
C556 C 0.53223 0.26326 0.07223 0.0
H557 H 0.50202 0.26783 0.88314 0.0
H558 H 0.52993 0.26282 0.88315 0.0
C559 C 0.524 0.26408 0.17818 0.0
loop_
_geom_bond_atom_site_label_1
_geom_bond_atom_site_label_2
_geom_bond_distance
_geom_bond_site_symmetry_2
_ccdc_geom_bond_type
Ho0 C3 2.811 . S
Ho0 O20 2.322 . S
Ho0 O22 2.378 . S
Ho0 O23 2.524 . S
Ho0 O24 2.381 . S
Ho0 O25 2.669 . S
Ho0 O27 2.346 . S
Ho0 O31 2.305 . S
Ho1 C12 2.811 . S
Ho1 O21 2.346 . S
Ho1 O25 2.305 . S
Ho1 O26 2.322 . S
Ho1 O28 2.378 . S
Ho1 O29 2.524 . S
Ho1 O30 2.381 . S
Ho1 O31 2.669 . S
C2 O20 1.259 . S
C2 O21 1.268 . S
C3 Ho0 2.811 . S
C3 C4 1.488 . S
C3 O22 1.215 . S
C3 O23 1.289 . S
C4 C3 1.488 . S
C4 C5 1.348 . S
C4 C9 1.413 . S
C5 C4 1.348 . S
C5 C6 1.442 . S
C5 H32 0.930 . S
C6 C5 1.442 . S
C6 C7 1.381 . S
C6 H33 0.931 . S
C7 C6 1.381 . S
C7 C8 1.321 . S
C8 C7 1.321 . S
C8 C9 1.403 . S
C8 H34 0.934 . S
C9 C4 1.413 . S
C9 C8 1.403 . S
C9 H35 0.930 . S
C10 O24 1.275 . S
C10 O25 1.256 . S
C11 O26 1.259 . S
C11 O27 1.268 . S
C12 Ho1 2.811 . S
C12 C13 1.488 . S
C12 O28 1.215 . S
C12 O29 1.289 . S
C13 C12 1.488 . S
C13 C14 1.348 . S
C13 C18 1.413 . S
C14 C13 1.348 . S
C14 C15 1.442 . S
C14 H36 0.930 . S
C15 C14 1.442 . S
C15 C16 1.381 . S
C15 H37 0.931 . S
C16 C15 1.381 . S
C16 C17 1.321 . S
C17 C16 1.321 . S
C17 C18 1.403 . S
C17 H38 0.934 . S
C18 C13 1.413 . S
C18 C17 1.403 . S
C18 H39 0.930 . S
C19 O30 1.275 . S
C19 O31 1.256 . S
O20 Ho0 2.322 . S
O20 C2 1.259 . S
O21 Ho1 2.346 . S
O21 C2 1.268 . S
O22 Ho0 2.378 . S
O22 C3 1.215 . S
O23 Ho0 2.524 . S
O23 C3 1.289 . S
O24 Ho0 2.381 . S
O24 C10 1.275 . S
O25 Ho0 2.669 . S
O25 Ho1 2.305 . S
O25 C10 1.256 . S
O26 Ho1 2.322 . S
O26 C11 1.259 . S
O27 Ho0 2.346 . S
O27 C11 1.268 . S
O28 Ho1 2.378 . S
O28 C12 1.215 . S
O29 Ho1 2.524 . S
O29 C12 1.289 . S
O30 Ho1 2.381 . S
O30 C19 1.275 . S
O31 Ho0 2.305 . S
O31 Ho1 2.669 . S
O31 C19 1.256 . S
H32 C5 0.930 . S
H33 C6 0.931 . S
H34 C8 0.934 . S
H35 C9 0.930 . S
H36 C14 0.930 . S
H37 C15 0.931 . S
H38 C17 0.934 . S
H39 C18 0.930 . S
Ho40 C43 2.811 . S
Ho40 O60 2.322 . S
Ho40 O62 2.378 . S
Ho40 O63 2.524 . S
Ho40 O64 2.381 . S
Ho40 O65 2.669 . S
Ho40 O67 2.346 . S
Ho40 O71 2.305 . S
Ho41 C52 2.811 . S
Ho41 O61 2.346 . S
Ho41 O65 2.305 . S
Ho41 O66 2.322 . S
Ho41 O68 2.378 . S
Ho41 O69 2.524 . S
Ho41 O70 2.381 . S
Ho41 O71 2.669 . S
C42 O60 1.259 . S
C42 O61 1.268 . S
C43 Ho40 2.811 . S
C43 C44 1.488 . S
C43 O62 1.215 . S
C43 O63 1.289 . S
C44 C43 1.488 . S
C44 C45 1.348 . S
C44 C49 1.413 . S
C45 C44 1.348 . S
C45 C46 1.442 . S
C45 H72 0.930 . S
C46 C45 1.442 . S
C46 C47 1.381 . S
C46 H73 0.931 . S
C47 C46 1.381 . S
C47 C48 1.321 . S
C48 C47 1.321 . S
C48 C49 1.403 . S
C48 H74 0.934 . S
C49 C44 1.413 . S
C49 C48 1.403 . S
C49 H75 0.930 . S
C50 O64 1.275 . S
C50 O65 1.256 . S
C51 O66 1.259 . S
C51 O67 1.268 . S
C52 Ho41 2.811 . S
C52 C53 1.488 . S
C52 O68 1.215 . S
C52 O69 1.289 . S
C53 C52 1.488 . S
C53 C54 1.348 . S
C53 C58 1.413 . S
C54 C53 1.348 . S
C54 C55 1.442 . S
C54 H76 0.930 . S
C55 C54 1.442 . S
C55 C56 1.381 . S
C55 H77 0.931 . S
C56 C55 1.381 . S
C56 C57 1.321 . S
C57 C56 1.321 . S
C57 C58 1.403 . S
C57 H78 0.934 . S
C58 C53 1.413 . S
C58 C57 1.403 . S
C58 H79 0.930 . S
C59 O70 1.275 . S
C59 O71 1.256 . S
O60 Ho40 2.322 . S
O60 C42 1.259 . S
O61 Ho41 2.346 . S
O61 C42 1.268 . S
O62 Ho40 2.378 . S
O62 C43 1.215 . S
O63 Ho40 2.524 . S
O63 C43 1.289 . S
O64 Ho40 2.381 . S
O64 C50 1.275 . S
O65 Ho40 2.669 . S
O65 Ho41 2.305 . S
O65 C50 1.256 . S
O66 Ho41 2.322 . S
O66 C51 1.259 . S
O67 Ho40 2.346 . S
O67 C51 1.268 . S
O68 Ho41 2.378 . S
O68 C52 1.215 . S
O69 Ho41 2.524 . S
O69 C52 1.289 . S
O70 Ho41 2.381 . S
O70 C59 1.275 . S
O71 Ho40 2.305 . S
O71 Ho41 2.669 . S
O71 C59 1.256 . S
H72 C45 0.930 . S
H73 C46 0.931 . S
H74 C48 0.934 . S
H75 C49 0.930 . S
H76 C54 0.930 . S
H77 C55 0.931 . S
H78 C57 0.934 . S
H79 C58 0.930 . S
Ho80 C83 2.811 . S
Ho80 O100 2.322 . S
Ho80 O102 2.378 . S
Ho80 O103 2.524 . S
Ho80 O104 2.381 . S
Ho80 O105 2.669 . S
Ho80 O107 2.346 . S
Ho80 O111 2.305 . S
Ho81 C92 2.811 . S
Ho81 O101 2.346 . S
Ho81 O105 2.305 . S
Ho81 O106 2.322 . S
Ho81 O108 2.378 . S
Ho81 O109 2.524 . S
Ho81 O110 2.381 . S
Ho81 O111 2.669 . S
C82 O100 1.259 . S
C82 O101 1.268 . S
C83 Ho80 2.811 . S
C83 C84 1.488 . S
C83 O102 1.215 . S
C83 O103 1.289 . S
C84 C83 1.488 . S
C84 C85 1.348 . S
C84 C89 1.413 . S
C85 C84 1.348 . S
C85 C86 1.442 . S
C85 H112 0.930 . S
C86 C85 1.442 . S
C86 C87 1.381 . S
C86 H113 0.931 . S
C87 C86 1.381 . S
C87 C88 1.321 . S
C88 C87 1.321 . S
C88 C89 1.403 . S
C88 H114 0.934 . S
C89 C84 1.413 . S
C89 C88 1.403 . S
C89 H115 0.930 . S
C90 O104 1.275 . S
C90 O105 1.256 . S
C91 O106 1.259 . S
C91 O107 1.268 . S
C92 Ho81 2.811 . S
C92 C93 1.488 . S
C92 O108 1.215 . S
C92 O109 1.289 . S
C93 C92 1.488 . S
C93 C94 1.348 . S
C93 C98 1.413 . S
C94 C93 1.348 . S
C94 C95 1.442 . S
C94 H116 0.930 . S
C95 C94 1.442 . S
C95 C96 1.381 . S
C95 H117 0.931 . S
C96 C95 1.381 . S
C96 C97 1.321 . S
C97 C96 1.321 . S
C97 C98 1.403 . S
C97 H118 0.934 . S
C98 C93 1.413 . S
C98 C97 1.403 . S
C98 H119 0.930 . S
C99 O110 1.275 . S
C99 O111 1.256 . S
O100 Ho80 2.322 . S
O100 C82 1.259 . S
O101 Ho81 2.346 . S
O101 C82 1.268 . S
O102 Ho80 2.378 . S
O102 C83 1.215 . S
O103 Ho80 2.524 . S
O103 C83 1.289 . S
O104 Ho80 2.381 . S
O104 C90 1.275 . S
O105 Ho80 2.669 . S
O105 Ho81 2.305 . S
O105 C90 1.256 . S
O106 Ho81 2.322 . S
O106 C91 1.259 . S
O107 Ho80 2.346 . S
O107 C91 1.268 . S
O108 Ho81 2.378 . S
O108 C92 1.215 . S
O109 Ho81 2.524 . S
O109 C92 1.289 . S
O110 Ho81 2.381 . S
O110 C99 1.275 . S
O111 Ho80 2.305 . S
O111 Ho81 2.669 . S
O111 C99 1.256 . S
H112 C85 0.930 . S
H113 C86 0.931 . S
H114 C88 0.934 . S
H115 C89 0.930 . S
H116 C94 0.930 . S
H117 C95 0.931 . S
H118 C97 0.934 . S
H119 C98 0.930 . S
Ho120 C123 2.811 . S
Ho120 O140 2.322 . S
Ho120 O142 2.378 . S
Ho120 O143 2.524 . S
Ho120 O144 2.381 . S
Ho120 O145 2.669 . S
Ho120 O147 2.346 . S
Ho120 O151 2.305 . S
Ho121 C132 2.811 . S
Ho121 O141 2.346 . S
Ho121 O145 2.305 . S
Ho121 O146 2.322 . S
Ho121 O148 2.378 . S
Ho121 O149 2.524 . S
Ho121 O150 2.381 . S
Ho121 O151 2.669 . S
C122 O140 1.259 . S
C122 O141 1.268 . S
C123 Ho120 2.811 . S
C123 C124 1.488 . S
C123 O142 1.215 . S
C123 O143 1.289 . S
C124 C123 1.488 . S
C124 C125 1.348 . S
C124 C129 1.413 . S
C125 C124 1.348 . S
C125 C126 1.442 . S
C125 H152 0.930 . S
C126 C125 1.442 . S
C126 C127 1.381 . S
C126 H153 0.931 . S
C127 C126 1.381 . S
C127 C128 1.321 . S
C128 C127 1.321 . S
C128 C129 1.403 . S
C128 H154 0.934 . S
C129 C124 1.413 . S
C129 C128 1.403 . S
C129 H155 0.930 . S
C130 O144 1.275 . S
C130 O145 1.256 . S
C131 O146 1.259 . S
C131 O147 1.268 . S
C132 Ho121 2.811 . S
C132 C133 1.488 . S
C132 O148 1.215 . S
C132 O149 1.289 . S
C133 C132 1.488 . S
C133 C134 1.348 . S
C133 C138 1.413 . S
C134 C133 1.348 . S
C134 C135 1.442 . S
C134 H156 0.930 . S
C135 C134 1.442 . S
C135 C136 1.381 . S
C135 H157 0.931 . S
C136 C135 1.381 . S
C136 C137 1.321 . S
C137 C136 1.321 . S
C137 C138 1.403 . S
C137 H158 0.934 . S
C138 C133 1.413 . S
C138 C137 1.403 . S
C138 H159 0.930 . S
C139 O150 1.275 . S
C139 O151 1.256 . S
O140 Ho120 2.322 . S
O140 C122 1.259 . S
O141 Ho121 2.346 . S
O141 C122 1.268 . S
O142 Ho120 2.378 . S
O142 C123 1.215 . S
O143 Ho120 2.524 . S
O143 C123 1.289 . S
O144 Ho120 2.381 . S
O144 C130 1.275 . S
O145 Ho120 2.669 . S
O145 Ho121 2.305 . S
O145 C130 1.256 . S
O146 Ho121 2.322 . S
O146 C131 1.259 . S
O147 Ho120 2.346 . S
O147 C131 1.268 . S
O148 Ho121 2.378 . S
O148 C132 1.215 . S
O149 Ho121 2.524 . S
O149 C132 1.289 . S
O150 Ho121 2.381 . S
O150 C139 1.275 . S
O151 Ho120 2.305 . S
O151 Ho121 2.669 . S
O151 C139 1.256 . S
H152 C125 0.930 . S
H153 C126 0.931 . S
H154 C128 0.934 . S
H155 C129 0.930 . S
H156 C134 0.930 . S
H157 C135 0.931 . S
H158 C137 0.934 . S
H159 C138 0.930 . S
Ho160 C163 2.811 1_556 S
Ho160 O180 2.322 1_556 S
Ho160 O182 2.378 1_556 S
Ho160 O183 2.524 1_556 S
Ho160 O184 2.381 . S
Ho160 O185 2.669 . S
Ho160 O187 2.346 . S
Ho160 O191 2.305 1_556 S
Ho161 C172 2.811 1_554 S
Ho161 O181 2.346 . S
Ho161 O185 2.305 1_554 S
Ho161 O186 2.322 1_554 S
Ho161 O188 2.378 1_554 S
Ho161 O189 2.524 1_554 S
Ho161 O190 2.381 . S
Ho161 O191 2.669 . S
C162 O180 1.259 . S
C162 O181 1.268 . S
C163 Ho160 2.811 1_554 S
C163 C164 1.488 . S
C163 O182 1.215 . S
C163 O183 1.289 . S
C164 C163 1.488 . S
C164 C165 1.348 . S
C164 C169 1.413 . S
C165 C164 1.348 . S
C165 C166 1.442 . S
C165 H192 0.930 . S
C166 C165 1.442 . S
C166 C167 1.381 . S
C166 H193 0.931 . S
C167 C166 1.381 . S
C167 C168 1.321 . S
C168 C167 1.321 . S
C168 C169 1.403 . S
C168 H194 0.934 . S
C169 C164 1.413 . S
C169 C168 1.403 . S
C169 H195 0.930 . S
C170 O184 1.275 . S
C170 O185 1.256 . S
C171 O186 1.259 . S
C171 O187 1.268 . S
C172 Ho161 2.811 1_556 S
C172 C173 1.488 . S
C172 O188 1.215 . S
C172 O189 1.289 . S
C173 C172 1.488 . S
C173 C174 1.348 . S
C173 C178 1.413 . S
C174 C173 1.348 . S
C174 C175 1.442 . S
C174 H196 0.930 . S
C175 C174 1.442 . S
C175 C176 1.381 . S
C175 H197 0.931 . S
C176 C175 1.381 . S
C176 C177 1.321 . S
C177 C176 1.321 . S
C177 C178 1.403 . S
C177 H198 0.934 . S
C178 C173 1.413 . S
C178 C177 1.403 . S
C178 H199 0.930 . S
C179 O190 1.275 . S
C179 O191 1.256 . S
O180 Ho160 2.322 1_554 S
O180 C162 1.259 . S
O181 Ho161 2.346 . S
O181 C162 1.268 . S
O182 Ho160 2.378 1_554 S
O182 C163 1.215 . S
O183 Ho160 2.524 1_554 S
O183 C163 1.289 . S
O184 Ho160 2.381 . S
O184 C170 1.275 . S
O185 Ho160 2.669 . S
O185 Ho161 2.305 1_556 S
O185 C170 1.256 . S
O186 Ho161 2.322 1_556 S
O186 C171 1.259 . S
O187 Ho160 2.346 . S
O187 C171 1.268 . S
O188 Ho161 2.378 1_556 S
O188 C172 1.215 . S
O189 Ho161 2.524 1_556 S
O189 C172 1.289 . S
O190 Ho161 2.381 . S
O190 C179 1.275 . S
O191 Ho160 2.305 1_554 S
O191 Ho161 2.669 . S
O191 C179 1.256 . S
H192 C165 0.930 . S
H193 C166 0.931 . S
H194 C168 0.934 . S
H195 C169 0.930 . S
H196 C174 0.930 . S
H197 C175 0.931 . S
H198 C177 0.934 . S
H199 C178 0.930 . S
Ho200 C203 2.811 1_556 S
Ho200 O220 2.322 1_556 S
Ho200 O222 2.378 1_556 S
Ho200 O223 2.524 1_556 S
Ho200 O224 2.381 . S
Ho200 O225 2.669 . S
Ho200 O227 2.346 . S
Ho200 O231 2.305 1_556 S
Ho201 C212 2.811 1_554 S
Ho201 O221 2.346 . S
Ho201 O225 2.305 1_554 S
Ho201 O226 2.322 1_554 S
Ho201 O228 2.378 1_554 S
Ho201 O229 2.524 1_554 S
Ho201 O230 2.381 . S
Ho201 O231 2.669 . S
C202 O220 1.259 . S
C202 O221 1.268 . S
C203 Ho200 2.811 1_554 S
C203 C204 1.488 . S
C203 O222 1.215 . S
C203 O223 1.289 . S
C204 C203 1.488 . S
C204 C205 1.348 . S
C204 C209 1.413 . S
C205 C204 1.348 . S
C205 C206 1.442 . S
C205 H232 0.930 . S
C206 C205 1.442 . S
C206 C207 1.381 . S
C206 H233 0.931 . S
C207 C206 1.381 . S
C207 C208 1.321 . S
C208 C207 1.321 . S
C208 C209 1.403 . S
C208 H234 0.934 . S
C209 C204 1.413 . S
C209 C208 1.403 . S
C209 H235 0.930 . S
C210 O224 1.275 . S
C210 O225 1.256 . S
C211 O226 1.259 . S
C211 O227 1.268 . S
C212 Ho201 2.811 1_556 S
C212 C213 1.488 . S
C212 O228 1.215 . S
C212 O229 1.289 . S
C213 C212 1.488 . S
C213 C214 1.348 . S
C213 C218 1.413 . S
C214 C213 1.348 . S
C214 C215 1.442 . S
C214 H236 0.930 . S
C215 C214 1.442 . S
C215 C216 1.381 . S
C215 H237 0.931 . S
C216 C215 1.381 . S
C216 C217 1.321 . S
C217 C216 1.321 . S
C217 C218 1.403 . S
C217 H238 0.934 . S
C218 C213 1.413 . S
C218 C217 1.403 . S
C218 H239 0.930 . S
C219 O230 1.275 . S
C219 O231 1.256 . S
O220 Ho200 2.322 1_554 S
O220 C202 1.259 . S
O221 Ho201 2.346 . S
O221 C202 1.268 . S
O222 Ho200 2.378 1_554 S
O222 C203 1.215 . S
O223 Ho200 2.524 1_554 S
O223 C203 1.289 . S
O224 Ho200 2.381 . S
O224 C210 1.275 . S
O225 Ho200 2.669 . S
O225 Ho201 2.305 1_556 S
O225 C210 1.256 . S
O226 Ho201 2.322 1_556 S
O226 C211 1.259 . S
O227 Ho200 2.346 . S
O227 C211 1.268 . S
O228 Ho201 2.378 1_556 S
O228 C212 1.215 . S
O229 Ho201 2.524 1_556 S
O229 C212 1.289 . S
O230 Ho201 2.381 . S
O230 C219 1.275 . S
O231 Ho200 2.305 1_554 S
O231 Ho201 2.669 . S
O231 C219 1.256 . S
H232 C205 0.930 . S
H233 C206 0.931 . S
H234 C208 0.934 . S
H235 C209 0.930 . S
H236 C214 0.930 . S
H237 C215 0.931 . S
H238 C217 0.934 . S
H239 C218 0.930 . S
Ho240 C243 2.811 1_556 S
Ho240 O260 2.322 1_556 S
Ho240 O262 2.378 1_556 S
Ho240 O263 2.524 1_556 S
Ho240 O264 2.381 . S
Ho240 O265 2.669 . S
Ho240 O267 2.346 . S
Ho240 O271 2.305 1_556 S
Ho241 C252 2.811 1_554 S
Ho241 O261 2.346 . S
Ho241 O265 2.305 1_554 S
Ho241 O266 2.322 1_554 S
Ho241 O268 2.378 1_554 S
Ho241 O269 2.524 1_554 S
Ho241 O270 2.381 . S
Ho241 O271 2.669 . S
C242 O260 1.259 . S
C242 O261 1.268 . S
C243 Ho240 2.811 1_554 S
C243 C244 1.488 . S
C243 O262 1.215 . S
C243 O263 1.289 . S
C244 C243 1.488 . S
C244 C245 1.348 . S
C244 C249 1.413 . S
C245 C244 1.348 . S
C245 C246 1.442 . S
C245 H272 0.930 . S
C246 C245 1.442 . S
C246 C247 1.381 . S
C246 H273 0.931 . S
C247 C246 1.381 . S
C247 C248 1.321 . S
C248 C247 1.321 . S
C248 C249 1.403 . S
C248 H274 0.934 . S
C249 C244 1.413 . S
C249 C248 1.403 . S
C249 H275 0.930 . S
C250 O264 1.275 . S
C250 O265 1.256 . S
C251 O266 1.259 . S
C251 O267 1.268 . S
C252 Ho241 2.811 1_556 S
C252 C253 1.488 . S
C252 O268 1.215 . S
C252 O269 1.289 . S
C253 C252 1.488 . S
C253 C254 1.348 . S
C253 C258 1.413 . S
C254 C253 1.348 . S
C254 C255 1.442 . S
C254 H276 0.930 . S
C255 C254 1.442 . S
C255 C256 1.381 . S
C255 H277 0.931 . S
C256 C255 1.381 . S
C256 C257 1.321 . S
C257 C256 1.321 . S
C257 C258 1.403 . S
C257 H278 0.934 . S
C258 C253 1.413 . S
C258 C257 1.403 . S
C258 H279 0.930 . S
C259 O270 1.275 . S
C259 O271 1.256 . S
O260 Ho240 2.322 1_554 S
O260 C242 1.259 . S
O261 Ho241 2.346 . S
O261 C242 1.268 . S
O262 Ho240 2.378 1_554 S
O262 C243 1.215 . S
O263 Ho240 2.524 1_554 S
O263 C243 1.289 . S
O264 Ho240 2.381 . S
O264 C250 1.275 . S
O265 Ho240 2.669 . S
O265 Ho241 2.305 1_556 S
O265 C250 1.256 . S
O266 Ho241 2.322 1_556 S
O266 C251 1.259 . S
O267 Ho240 2.346 . S
O267 C251 1.268 . S
O268 Ho241 2.378 1_556 S
O268 C252 1.215 . S
O269 Ho241 2.524 1_556 S
O269 C252 1.289 . S
O270 Ho241 2.381 . S
O270 C259 1.275 . S
O271 Ho240 2.305 1_554 S
O271 Ho241 2.669 . S
O271 C259 1.256 . S
H272 C245 0.930 . S
H273 C246 0.931 . S
H274 C248 0.934 . S
H275 C249 0.930 . S
H276 C254 0.930 . S
H277 C255 0.931 . S
H278 C257 0.934 . S
H279 C258 0.930 . S
Ho280 C283 2.811 1_556 S
Ho280 O300 2.322 1_556 S
Ho280 O302 2.378 1_556 S
Ho280 O303 2.524 1_556 S
Ho280 O304 2.381 . S
Ho280 O305 2.669 . S
Ho280 O307 2.346 . S
Ho280 O311 2.305 1_556 S
Ho281 C292 2.811 1_554 S
Ho281 O301 2.346 . S
Ho281 O305 2.305 1_554 S
Ho281 O306 2.322 1_554 S
Ho281 O308 2.378 1_554 S
Ho281 O309 2.524 1_554 S
Ho281 O310 2.381 . S
Ho281 O311 2.669 . S
C282 O300 1.259 . S
C282 O301 1.268 . S
C283 Ho280 2.811 1_554 S
C283 C284 1.488 . S
C283 O302 1.215 . S
C283 O303 1.289 . S
C284 C283 1.488 . S
C284 C285 1.348 . S
C284 C289 1.413 . S
C285 C284 1.348 . S
C285 C286 1.442 . S
C285 H312 0.930 . S
C286 C285 1.442 . S
C286 C287 1.381 . S
C286 H313 0.931 . S
C287 C286 1.381 . S
C287 C288 1.321 . S
C288 C287 1.321 . S
C288 C289 1.403 . S
C288 H314 0.934 . S
C289 C284 1.413 . S
C289 C288 1.403 . S
C289 H315 0.930 . S
C290 O304 1.275 . S
C290 O305 1.256 . S
C291 O306 1.259 . S
C291 O307 1.268 . S
C292 Ho281 2.811 1_556 S
C292 C293 1.488 . S
C292 O308 1.215 . S
C292 O309 1.289 . S
C293 C292 1.488 . S
C293 C294 1.348 . S
C293 C298 1.413 . S
C294 C293 1.348 . S
C294 C295 1.442 . S
C294 H316 0.930 . S
C295 C294 1.442 . S
C295 C296 1.381 . S
C295 H317 0.931 . S
C296 C295 1.381 . S
C296 C297 1.321 . S
C297 C296 1.321 . S
C297 C298 1.403 . S
C297 H318 0.934 . S
C298 C293 1.413 . S
C298 C297 1.403 . S
C298 H319 0.930 . S
C299 O310 1.275 . S
C299 O311 1.256 . S
O300 Ho280 2.322 1_554 S
O300 C282 1.259 . S
O301 Ho281 2.346 . S
O301 C282 1.268 . S
O302 Ho280 2.378 1_554 S
O302 C283 1.215 . S
O303 Ho280 2.524 1_554 S
O303 C283 1.289 . S
O304 Ho280 2.381 . S
O304 C290 1.275 . S
O305 Ho280 2.669 . S
O305 Ho281 2.305 1_556 S
O305 C290 1.256 . S
O306 Ho281 2.322 1_556 S
O306 C291 1.259 . S
O307 Ho280 2.346 . S
O307 C291 1.268 . S
O308 Ho281 2.378 1_556 S
O308 C292 1.215 . S
O309 Ho281 2.524 1_556 S
O309 C292 1.289 . S
O310 Ho281 2.381 . S
O310 C299 1.275 . S
O311 Ho280 2.305 1_554 S
O311 Ho281 2.669 . S
O311 C299 1.256 . S
H312 C285 0.930 . S
H313 C286 0.931 . S
H314 C288 0.934 . S
H315 C289 0.930 . S
H316 C294 0.930 . S
H317 C295 0.931 . S
H318 C297 0.934 . S
H319 C298 0.930 . S
C320 C321 1.387 . S
C320 H324 0.950 . S
C320 C329 1.390 . S
C321 C320 1.387 . S
C321 C323 1.387 . S
H322 C329 0.950 . S
C323 C321 1.387 . S
C323 C325 1.390 . S
C323 H327 0.950 . S
H324 C320 0.950 . S
C325 C323 1.390 . S
C325 C326 1.387 . S
C325 H328 0.950 . S
C326 C325 1.387 . S
C326 C329 1.387 . S
H327 C323 0.950 . S
H328 C325 0.950 . S
C329 C320 1.390 . S
C329 H322 0.950 . S
C329 C326 1.387 . S
C330 C331 1.387 . S
C330 H334 0.950 . S
C330 C339 1.390 . S
C331 C330 1.387 . S
C331 C333 1.387 . S
H332 C339 0.950 . S
C333 C331 1.387 . S
C333 C335 1.390 . S
C333 H337 0.950 . S
H334 C330 0.950 . S
C335 C333 1.390 . S
C335 C336 1.387 . S
C335 H338 0.950 . S
C336 C335 1.387 . S
C336 C339 1.387 . S
H337 C333 0.950 . S
H338 C335 0.950 . S
C339 C330 1.390 . S
C339 H332 0.950 . S
C339 C336 1.387 . S
C340 C341 1.387 . S
C340 H344 0.950 . S
C340 C349 1.390 . S
C341 C340 1.387 . S
C341 C343 1.387 . S
H342 C349 0.950 . S
C343 C341 1.387 . S
C343 C345 1.390 . S
C343 H347 0.950 . S
H344 C340 0.950 . S
C345 C343 1.390 . S
C345 C346 1.387 . S
C345 H348 0.950 . S
C346 C345 1.387 . S
C346 C349 1.387 . S
H347 C343 0.950 . S
H348 C345 0.950 . S
C349 C340 1.390 . S
C349 H342 0.950 . S
C349 C346 1.387 . S
C350 C351 1.387 . S
C350 H354 0.950 . S
C350 C359 1.390 . S
C351 C350 1.387 . S
C351 C353 1.387 . S
H352 C359 0.950 . S
C353 C351 1.387 . S
C353 C355 1.390 . S
C353 H357 0.950 . S
H354 C350 0.950 . S
C355 C353 1.390 . S
C355 C356 1.387 . S
C355 H358 0.950 . S
C356 C355 1.387 . S
C356 C359 1.387 . S
H357 C353 0.950 . S
H358 C355 0.950 . S
C359 C350 1.390 . S
C359 H352 0.950 . S
C359 C356 1.387 . S
C360 C361 1.387 . S
C360 H364 0.950 . S
C360 C369 1.390 1_565 S
C361 C360 1.387 . S
C361 C363 1.387 . S
H362 C369 0.950 . S
C363 C361 1.387 . S
C363 C365 1.390 1_565 S
C363 H367 0.950 . S
H364 C360 0.950 . S
C365 C363 1.390 1_545 S
C365 C366 1.387 . S
C365 H368 0.950 . S
C366 C365 1.387 . S
C366 C369 1.387 . S
H367 C363 0.950 . S
H368 C365 0.950 . S
C369 C360 1.390 1_545 S
C369 H362 0.950 . S
C369 C366 1.387 . S
C370 C371 1.387 . S
C370 H374 0.950 . S
C370 C379 1.390 . S
C371 C370 1.387 . S
C371 C373 1.387 . S
H372 C379 0.950 . S
C373 C371 1.387 . S
C373 C375 1.390 . S
C373 H377 0.950 . S
H374 C370 0.950 . S
C375 C373 1.390 . S
C375 C376 1.387 . S
C375 H378 0.950 . S
C376 C375 1.387 . S
C376 C379 1.387 . S
H377 C373 0.950 . S
H378 C375 0.950 . S
C379 C370 1.390 . S
C379 H372 0.950 . S
C379 C376 1.387 . S
C380 C381 1.387 . S
C380 H384 0.950 . S
C380 C389 1.390 1_565 S
C381 C380 1.387 . S
C381 C383 1.387 . S
H382 C389 0.950 . S
C383 C381 1.387 . S
C383 C385 1.390 1_565 S
C383 H387 0.950 . S
H384 C380 0.950 . S
C385 C383 1.390 1_545 S
C385 C386 1.387 . S
C385 H388 0.950 . S
C386 C385 1.387 . S
C386 C389 1.387 . S
H387 C383 0.950 . S
H388 C385 0.950 . S
C389 C380 1.390 1_545 S
C389 H382 0.950 . S
C389 C386 1.387 . S
C390 C391 1.387 . S
C390 H394 0.950 . S
C390 C399 1.390 . S
C391 C390 1.387 . S
C391 C393 1.387 . S
H392 C399 0.950 . S
C393 C391 1.387 . S
C393 C395 1.390 . S
C393 H397 0.950 . S
H394 C390 0.950 . S
C395 C393 1.390 . S
C395 C396 1.387 . S
C395 H398 0.950 . S
C396 C395 1.387 . S
C396 C399 1.387 . S
H397 C393 0.950 . S
H398 C395 0.950 . S
C399 C390 1.390 . S
C399 H392 0.950 . S
C399 C396 1.387 . S
C400 C401 1.387 . S
C400 H404 0.950 . S
C400 C409 1.390 . S
C401 C400 1.387 . S
C401 C403 1.387 1_556 S
H402 C409 0.950 . S
C403 C401 1.387 1_554 S
C403 C405 1.390 . S
C403 H407 0.950 . S
H404 C400 0.950 . S
C405 C403 1.390 . S
C405 C406 1.387 1_554 S
C405 H408 0.950 . S
C406 C405 1.387 1_556 S
C406 C409 1.387 . S
H407 C403 0.950 . S
H408 C405 0.950 . S
C409 C400 1.390 . S
C409 H402 0.950 . S
C409 C406 1.387 . S
C410 C411 1.387 1_554 S
C410 H414 0.950 . S
C410 C419 1.390 1_565 S
C411 C410 1.387 1_556 S
C411 C413 1.387 . S
H412 C419 0.950 . S
C413 C411 1.387 . S
C413 C415 1.390 1_565 S
C413 H417 0.950 . S
H414 C410 0.950 . S
C415 C413 1.390 1_545 S
C415 C416 1.387 . S
C415 H418 0.950 . S
C416 C415 1.387 . S
C416 C419 1.387 1_556 S
H417 C413 0.950 . S
H418 C415 0.950 . S
C419 C410 1.390 1_545 S
C419 H412 0.950 . S
C419 C416 1.387 1_554 S
C420 C421 1.387 1_556 S
C420 H424 0.950 . S
C420 C429 1.390 . S
C421 C420 1.387 1_554 S
C421 C423 1.387 . S
H422 C429 0.950 . S
C423 C421 1.387 . S
C423 C425 1.390 . S
C423 H427 0.950 . S
H424 C420 0.950 . S
C425 C423 1.390 . S
C425 C426 1.387 . S
C425 H428 0.950 . S
C426 C425 1.387 . S
C426 C429 1.387 1_554 S
H427 C423 0.950 . S
H428 C425 0.950 . S
C429 C420 1.390 . S
C429 H422 0.950 . S
C429 C426 1.387 1_556 S
C430 C431 1.387 . S
C430 H434 0.950 . S
C430 C439 1.390 1_545 S
C431 C430 1.387 . S
C431 C433 1.387 1_554 S
H432 C439 0.950 . S
C433 C431 1.387 1_556 S
C433 C435 1.390 1_545 S
C433 H437 0.950 . S
H434 C430 0.950 . S
C435 C433 1.390 1_565 S
C435 C436 1.387 1_556 S
C435 H438 0.950 . S
C436 C435 1.387 1_554 S
C436 C439 1.387 . S
H437 C433 0.950 . S
H438 C435 0.950 . S
C439 C430 1.390 1_565 S
C439 H432 0.950 . S
C439 C436 1.387 . S
C440 C441 1.387 1_556 S
C440 H444 0.950 1_556 S
C440 C449 1.390 . S
C441 C440 1.387 1_554 S
C441 C443 1.387 1_554 S
H442 C449 0.950 . S
C443 C441 1.387 1_556 S
C443 C445 1.390 . S
C443 H447 0.950 1_556 S
H444 C440 0.950 1_554 S
C445 C443 1.390 . S
C445 C446 1.387 . S
C445 H448 0.950 . S
C446 C445 1.387 . S
C446 C449 1.387 . S
H447 C443 0.950 1_554 S
H448 C445 0.950 . S
C449 C440 1.390 . S
C449 H442 0.950 . S
C449 C446 1.387 . S
C450 C451 1.387 1_556 S
C450 H454 0.950 1_556 S
C450 C459 1.390 . S
C451 C450 1.387 1_554 S
C451 C453 1.387 1_554 S
H452 C459 0.950 . S
C453 C451 1.387 1_556 S
C453 C455 1.390 . S
C453 H457 0.950 . S
H454 C450 0.950 1_554 S
C455 C453 1.390 . S
C455 C456 1.387 . S
C455 H458 0.950 . S
C456 C455 1.387 . S
C456 C459 1.387 . S
H457 C453 0.950 . S
H458 C455 0.950 . S
C459 C450 1.390 . S
C459 H452 0.950 . S
C459 C456 1.387 . S
C460 C461 1.387 . S
C460 H464 0.950 . S
C460 C469 1.390 . S
C461 C460 1.387 . S
C461 C463 1.387 . S
H462 C469 0.950 1_556 S
C463 C461 1.387 . S
C463 C465 1.390 . S
C463 H467 0.950 . S
H464 C460 0.950 . S
C465 C463 1.390 . S
C465 C466 1.387 1_554 S
C465 H468 0.950 1_554 S
C466 C465 1.387 1_556 S
C466 C469 1.387 1_556 S
H467 C463 0.950 . S
H468 C465 0.950 1_556 S
C469 C460 1.390 . S
C469 H462 0.950 1_554 S
C469 C466 1.387 1_554 S
C470 C471 1.387 1_554 S
C470 H474 0.950 1_554 S
C470 C479 1.390 . S
C471 C470 1.387 1_556 S
C471 C473 1.387 1_556 S
H472 C479 0.950 . S
C473 C471 1.387 1_554 S
C473 C475 1.390 . S
C473 H477 0.950 1_554 S
H474 C470 0.950 1_556 S
C475 C473 1.390 . S
C475 C476 1.387 . S
C475 H478 0.950 . S
C476 C475 1.387 . S
C476 C479 1.387 . S
H477 C473 0.950 1_556 S
H478 C475 0.950 . S
C479 C470 1.390 . S
C479 H472 0.950 . S
C479 C476 1.387 . S
C480 C481 1.387 . S
C480 H484 0.950 . S
C480 C489 1.390 . S
C481 C480 1.387 . S
C481 C483 1.387 . S
H482 C489 0.950 . S
C483 C481 1.387 . S
C483 C485 1.390 . S
C483 H487 0.950 . S
H484 C480 0.950 . S
C485 C483 1.390 . S
C485 C486 1.387 . S
C485 H488 0.950 . S
C486 C485 1.387 . S
C486 C489 1.387 . S
H487 C483 0.950 . S
H488 C485 0.950 . S
C489 C480 1.390 . S
C489 H482 0.950 . S
C489 C486 1.387 . S
C490 C491 1.387 . S
C490 H494 0.950 . S
C490 C499 1.390 . S
C491 C490 1.387 . S
C491 C493 1.387 . S
H492 C499 0.950 . S
C493 C491 1.387 . S
C493 C495 1.390 . S
C493 H497 0.950 . S
H494 C490 0.950 . S
C495 C493 1.390 . S
C495 C496 1.387 . S
C495 H498 0.950 . S
C496 C495 1.387 . S
C496 C499 1.387 . S
H497 C493 0.950 . S
H498 C495 0.950 . S
C499 C490 1.390 . S
C499 H492 0.950 . S
C499 C496 1.387 . S
C500 C501 1.387 . S
C500 H504 0.950 . S
C500 C509 1.390 . S
C501 C500 1.387 . S
C501 C503 1.387 . S
H502 C509 0.950 . S
C503 C501 1.387 . S
C503 C505 1.390 . S
C503 H507 0.950 . S
H504 C500 0.950 . S
C505 C503 1.390 . S
C505 C506 1.387 . S
C505 H508 0.950 . S
C506 C505 1.387 . S
C506 C509 1.387 . S
H507 C503 0.950 . S
H508 C505 0.950 . S
C509 C500 1.390 . S
C509 H502 0.950 . S
C509 C506 1.387 . S
C510 C511 1.387 . S
C510 H514 0.950 . S
C510 C519 1.390 . S
C511 C510 1.387 . S
C511 C513 1.387 . S
H512 C519 0.950 . S
C513 C511 1.387 . S
C513 C515 1.390 . S
C513 H517 0.950 . S
H514 C510 0.950 . S
C515 C513 1.390 . S
C515 C516 1.387 . S
C515 H518 0.950 . S
C516 C515 1.387 . S
C516 C519 1.387 . S
H517 C513 0.950 . S
H518 C515 0.950 . S
C519 C510 1.390 . S
C519 H512 0.950 . S
C519 C516 1.387 . S
C520 C521 1.387 . S
C520 H524 0.950 . S
C520 C529 1.390 1_455 S
C521 C520 1.387 . S
C521 C523 1.387 . S
H522 C529 0.950 . S
C523 C521 1.387 . S
C523 C525 1.390 1_455 S
C523 H527 0.950 1_554 S
H524 C520 0.950 . S
C525 C523 1.390 1_655 S
C525 C526 1.387 . S
C525 H528 0.950 1_554 S
C526 C525 1.387 . S
C526 C529 1.387 . S
H527 C523 0.950 1_556 S
H528 C525 0.950 1_556 S
C529 C520 1.390 1_655 S
C529 H522 0.950 . S
C529 C526 1.387 . S
C530 C531 1.387 . S
C530 H534 0.950 . S
C530 C539 1.390 1_655 S
C531 C530 1.387 . S
C531 C533 1.387 . S
H532 C539 0.950 . S
C533 C531 1.387 . S
C533 C535 1.390 1_655 S
C533 H537 0.950 1_556 S
H534 C530 0.950 . S
C535 C533 1.390 1_455 S
C535 C536 1.387 . S
C535 H538 0.950 1_556 S
C536 C535 1.387 . S
C536 C539 1.387 . S
H537 C533 0.950 1_554 S
H538 C535 0.950 1_554 S
C539 C530 1.390 1_455 S
C539 H532 0.950 . S
C539 C536 1.387 . S
C540 C541 1.387 . S
C540 H544 0.950 . S
C540 C549 1.390 . S
C541 C540 1.387 . S
C541 C543 1.387 . S
H542 C549 0.950 . S
C543 C541 1.387 . S
C543 C545 1.390 . S
C543 H547 0.950 . S
H544 C540 0.950 . S
C545 C543 1.390 . S
C545 C546 1.387 . S
C545 H548 0.950 . S
C546 C545 1.387 . S
C546 C549 1.387 . S
H547 C543 0.950 . S
H548 C545 0.950 . S
C549 C540 1.390 . S
C549 H542 0.950 . S
C549 C546 1.387 . S
C550 C551 1.387 . S
C550 H554 0.950 . S
C550 C559 1.390 . S
C551 C550 1.387 . S
C551 C553 1.387 . S
H552 C559 0.950 . S
C553 C551 1.387 . S
C553 C555 1.390 . S
C553 H557 0.950 . S
H554 C550 0.950 . S
C555 C553 1.390 . S
C555 C556 1.387 . S
C555 H558 0.950 . S
C556 C555 1.387 . S
C556 C559 1.387 . S
H557 C553 0.950 . S
H558 C555 0.950 . S
C559 C550 1.390 . S
C559 H552 0.950 . S
C559 C556 1.387 . S
C321 C7 1.714 . S
C326 C296 1.714 . S
C331 C256 1.715 . S
C336 C47 1.715 . S
C341 C207 1.715 . S
C346 C96 1.715 . S
C351 C167 1.714 . S
C356 C136 1.714 . S
C361 C90 1.628 . S
C366 C10 1.650 . S
C371 C50 1.649 . S
C376 C130 1.627 . S
C381 C139 1.651 . S
C386 C59 1.629 . S
C391 C99 1.650 . S
C396 C19 1.628 . S
C401 C170 1.449 . S
C406 C250 1.449 . S
C411 C210 1.446 . S
C416 C290 1.446 . S
C421 C299 1.449 . S
C426 C219 1.449 . S
C431 C259 1.446 . S
C436 C179 1.446 . S
C441 C11 2.076 . S
C446 C2 2.076 . S
C451 C51 2.078 . S
C456 C42 2.078 . S
C461 C91 2.078 . S
C466 C82 2.078 . S
C471 C122 2.076 . S
C476 C131 2.076 . S
C481 C162 2.075 . S
C486 C171 2.075 . S
C491 C211 2.078 . S
C496 C202 2.078 . S
C501 C242 2.078 . S
C506 C251 2.078 . S
C511 C282 2.075 . S
C516 C291 2.075 . S
C521 C16 2.250 . S
C526 C56 2.250 . S
C531 C127 2.250 . S
C536 C87 2.250 . S
C541 C176 2.252 . S
C546 C216 2.252 . S
C551 C287 2.252 . S
C556 C247 2.252 . S
