# Generated by pormake.
# Topology wjd, (6)-cn, num edge types: 1
# Building blocks:
#     Node 0, Type 0, BuildingBlock: UKALOJ_clean_sbu_0, # of connection points: 6
#     Node 1, Type 0, BuildingBlock: UKALOJ_clean_sbu_0, # of connection points: 6
#     Node 2, Type 0, BuildingBlock: UKALOJ_clean_sbu_0, # of connection points: 6
#     Node 3, Type 0, BuildingBlock: UKALOJ_clean_sbu_0, # of connection points: 6
#     Node 4, Type 0, BuildingBlock: UKALOJ_clean_sbu_0, # of connection points: 6
#     Node 5, Type 0, BuildingBlock: UKALOJ_clean_sbu_0, # of connection points: 6
#     Node 6, Type 0, BuildingBlock: UKALOJ_clean_sbu_0, # of connection points: 6
#     Node 7, Type 0, BuildingBlock: UKALOJ_clean_sbu_0, # of connection points: 6
#     Node 8, Type 0, BuildingBlock: UKALOJ_clean_sbu_0, # of connection points: 6
#     Node 9, Type 0, BuildingBlock: UKALOJ_clean_sbu_0, # of connection points: 6
#     Node 10, Type 0, BuildingBlock: UKALOJ_clean_sbu_0, # of connection points: 6
#     Node 11, Type 0, BuildingBlock: UKALOJ_clean_sbu_0, # of connection points: 6
#     Edge 12, Type (0, 0), BuildingBlock: OJICUG_clean_linker_0, # of connection points: 2
#     Edge 13, Type (0, 0), BuildingBlock: OJICUG_clean_linker_0, # of connection points: 2
#     Edge 14, Type (0, 0), BuildingBlock: OJICUG_clean_linker_0, # of connection points: 2
#     Edge 15, Type (0, 0), BuildingBlock: OJICUG_clean_linker_0, # of connection points: 2
#     Edge 16, Type (0, 0), BuildingBlock: OJICUG_clean_linker_0, # of connection points: 2
#     Edge 17, Type (0, 0), BuildingBlock: OJICUG_clean_linker_0, # of connection points: 2
#     Edge 18, Type (0, 0), BuildingBlock: OJICUG_clean_linker_0, # of connection points: 2
#     Edge 19, Type (0, 0), BuildingBlock: OJICUG_clean_linker_0, # of connection points: 2
#     Edge 20, Type (0, 0), BuildingBlock: OJICUG_clean_linker_0, # of connection points: 2
#     Edge 21, Type (0, 0), BuildingBlock: OJICUG_clean_linker_0, # of connection points: 2
#     Edge 22, Type (0, 0), BuildingBlock: OJICUG_clean_linker_0, # of connection points: 2
#     Edge 23, Type (0, 0), BuildingBlock: OJICUG_clean_linker_0, # of connection points: 2
#     Edge 24, Type (0, 0), BuildingBlock: OJICUG_clean_linker_0, # of connection points: 2
#     Edge 25, Type (0, 0), BuildingBlock: OJICUG_clean_linker_0, # of connection points: 2
#     Edge 26, Type (0, 0), BuildingBlock: OJICUG_clean_linker_0, # of connection points: 2
#     Edge 27, Type (0, 0), BuildingBlock: OJICUG_clean_linker_0, # of connection points: 2
#     Edge 28, Type (0, 0), BuildingBlock: OJICUG_clean_linker_0, # of connection points: 2
#     Edge 29, Type (0, 0), BuildingBlock: OJICUG_clean_linker_0, # of connection points: 2
#     Edge 30, Type (0, 0), BuildingBlock: OJICUG_clean_linker_0, # of connection points: 2
#     Edge 31, Type (0, 0), BuildingBlock: OJICUG_clean_linker_0, # of connection points: 2
#     Edge 32, Type (0, 0), BuildingBlock: OJICUG_clean_linker_0, # of connection points: 2
#     Edge 33, Type (0, 0), BuildingBlock: OJICUG_clean_linker_0, # of connection points: 2
#     Edge 34, Type (0, 0), BuildingBlock: OJICUG_clean_linker_0, # of connection points: 2
#     Edge 35, Type (0, 0), BuildingBlock: OJICUG_clean_linker_0, # of connection points: 2
#     Edge 36, Type (0, 0), BuildingBlock: OJICUG_clean_linker_0, # of connection points: 2
#     Edge 37, Type (0, 0), BuildingBlock: OJICUG_clean_linker_0, # of connection points: 2
#     Edge 38, Type (0, 0), BuildingBlock: OJICUG_clean_linker_0, # of connection points: 2
#     Edge 39, Type (0, 0), BuildingBlock: OJICUG_clean_linker_0, # of connection points: 2
#     Edge 40, Type (0, 0), BuildingBlock: OJICUG_clean_linker_0, # of connection points: 2
#     Edge 41, Type (0, 0), BuildingBlock: OJICUG_clean_linker_0, # of connection points: 2
#     Edge 42, Type (0, 0), BuildingBlock: OJICUG_clean_linker_0, # of connection points: 2
#     Edge 43, Type (0, 0), BuildingBlock: OJICUG_clean_linker_0, # of connection points: 2
#     Edge 44, Type (0, 0), BuildingBlock: OJICUG_clean_linker_0, # of connection points: 2
#     Edge 45, Type (0, 0), BuildingBlock: OJICUG_clean_linker_0, # of connection points: 2
#     Edge 46, Type (0, 0), BuildingBlock: OJICUG_clean_linker_0, # of connection points: 2
#     Edge 47, Type (0, 0), BuildingBlock: OJICUG_clean_linker_0, # of connection points: 2
# Relax obj value: 0.098
# Max RMSD: 0.177
# Mean RMSD: 0.177
data_MOF--net-wjd--node1-UKALOJ_clean_sbu_0--edge1-OJICUG_clean_linker_0
_symmetry_space_group_name_H-M    P1
_symmetry_Int_Tables_number       1
_symmetry_cell_setting            triclinic
loop_
_symmetry_equiv_pos_as_xyz
'x, y, z'
_cell_length_a     21.473004
_cell_length_b     21.43211
_cell_length_c     63.277834
_cell_angle_alpha  90.039287
_cell_angle_beta   89.982116
_cell_angle_gamma 120.00688
loop_
_atom_site_label
_atom_site_type_symbol
_atom_site_fract_x
_atom_site_fract_y
_atom_site_fract_z
_atom_type_partial_charge
Zn0 Zn 0.29484 0.10175 0.16461 0.0
O1 O 0.37207 0.21006 0.16543 0.0
C2 C 0.40285 0.07009 0.15077 0.0
Zn3 Zn 0.29773 0.10339 0.1291 0.0
C4 C 0.39506 0.2455 0.14836 0.0
O5 O 0.3742 0.21367 0.1306 0.0
C6 C 0.19259 0.96131 0.14578 0.0
O7 O 0.21855 0.13195 0.12579 0.0
O8 O 0.21774 0.13247 0.16051 0.0
N9 N 0.30925 0.1005 0.09663 0.0
C10 C 0.26197 0.06169 0.08116 0.0
C11 C 0.367 0.10625 0.06816 0.0
N12 N 0.37434 0.12883 0.08834 0.0
N13 N 0.29701 0.06336 0.06311 0.0
C14 C 0.31874 0.11866 0.21435 0.0
C15 C 0.21101 0.08387 0.22384 0.0
N16 N 0.278 0.09999 0.19664 0.0
N17 N 0.21121 0.07814 0.20272 0.0
N18 N 0.27772 0.10915 0.23163 0.0
H19 H 0.42245 0.17518 0.19925 0.0
H20 H 0.42343 0.18812 0.22766 0.0
H21 H 0.40972 0.10431 0.21704 0.0
C22 C 0.3984 0.14893 0.21454 0.0
C23 C 0.18191 0.02099 0.08399 0.0
H24 H 0.16584 0.0231 0.10042 0.0
H25 H 0.15789 0.04612 0.07408 0.0
H26 H 0.15957 0.96424 0.07886 0.0
O27 O 0.22093 -0.00563 0.12875 0.0
O28 O 0.21532 -0.00643 0.16331 0.0
C29 C 0.19603 0.1437 0.14305 0.0
O30 O 0.37434 0.07413 0.16795 0.0
O31 O 0.37907 0.07811 0.1332 0.0
Zn32 Zn 0.75631 0.64222 0.42248 0.0
O33 O 0.86475 0.71992 0.42586 0.0
C34 C 0.72118 0.74878 0.40594 0.0
Zn35 Zn 0.7578 0.64512 0.38699 0.0
C36 C 0.89893 0.74309 0.40861 0.0
O37 O 0.86572 0.72242 0.39115 0.0
C38 C 0.61755 0.53755 0.40071 0.0
O39 O 0.78885 0.56809 0.38591 0.0
O40 O 0.78809 0.56413 0.42074 0.0
N41 N 0.77294 0.66296 0.35501 0.0
C42 C 0.75154 0.62281 0.33717 0.0
C43 C 0.82364 0.73138 0.32804 0.0
N44 N 0.81736 0.73029 0.34916 0.0
N45 N 0.78296 0.66472 0.32003 0.0
C46 C 0.74794 0.67677 0.47012 0.0
C47 C 0.69613 0.57252 0.4841 0.0
N48 N 0.7416 0.62966 0.45489 0.0
N49 N 0.70981 0.56494 0.46372 0.0
N50 N 0.71913 0.64224 0.48848 0.0
H51 H 0.81939 0.7747 0.45316 0.0
H52 H 0.81905 0.78343 0.48159 0.0
H53 H 0.74477 0.77411 0.46651 0.0
C54 C 0.78532 0.75687 0.46749 0.0
C55 C 0.70284 0.54287 0.33671 0.0
H56 H 0.70445 0.51846 0.35199 0.0
H57 H 0.71813 0.51862 0.32363 0.0
H58 H 0.64693 0.53092 0.33391 0.0
O59 O 0.6507 0.56534 0.38355 0.0
O60 O 0.64891 0.562 0.41832 0.0
C61 C 0.80012 0.54415 0.40298 0.0
O62 O 0.72697 0.72167 0.42311 0.0
O63 O 0.72915 0.72444 0.3885 0.0
Zn64 Zn 0.83964 0.18465 0.16441 0.0
O65 O 0.73183 0.15464 0.16554 0.0
C66 C 0.87259 0.32508 0.15108 0.0
Zn67 Zn 0.8376 0.18638 0.12892 0.0
C68 C 0.69622 0.14263 0.14853 0.0
O69 O 0.72769 0.15356 0.13072 0.0
C70 C -0.02072 0.22158 0.14527 0.0
O71 O 0.80805 0.07827 0.12521 0.0
O72 O 0.80786 0.07657 0.15993 0.0
N73 N 0.83961 0.20198 0.09652 0.0
C74 C 0.87806 0.19438 0.08077 0.0
C75 C 0.83245 0.25486 0.06844 0.0
N76 N 0.81063 0.23875 0.08865 0.0
N77 N 0.87557 0.22841 0.06294 0.0
C78 C 0.82336 0.19038 0.21416 0.0
C79 C 0.85789 0.11679 0.22331 0.0
N80 N 0.84183 0.16863 0.19634 0.0
N81 N 0.86352 0.12328 0.20219 0.0
N82 N 0.83284 0.15826 0.23129 0.0
H83 H 0.75394 0.22535 0.22768 0.0
H84 H 0.83788 0.29583 0.21738 0.0
H85 H 0.76747 0.23879 0.19933 0.0
C86 C 0.79332 0.24006 0.21461 0.0
C87 C 0.91877 0.15481 0.08312 0.0
H88 H 0.9165 0.13538 0.0994 0.0
H89 H 0.89375 0.10627 0.07292 0.0
H90 H -0.02455 0.18964 0.0781 0.0
O91 O 0.94627 0.21744 0.12828 0.0
O92 O 0.9473 0.21218 0.16283 0.0
C93 C 0.79615 0.0437 0.14242 0.0
O94 O 0.86832 0.29204 0.16816 0.0
O95 O 0.864 0.29341 0.13343 0.0
Zn96 Zn 0.29944 0.10163 0.42275 0.0
O97 O 0.22024 0.13042 0.42574 0.0
C98 C 0.19419 0.95857 0.4064 0.0
Zn99 Zn 0.29655 0.09845 0.38723 0.0
C100 C 0.19734 0.14064 0.40832 0.0
O101 O 0.21899 0.12831 0.39101 0.0
C102 C 0.40509 0.06823 0.40134 0.0
O103 O 0.37336 0.20724 0.38616 0.0
O104 O 0.37602 0.21203 0.42098 0.0
N105 N 0.27946 0.09509 0.35518 0.0
C106 C 0.32016 0.11605 0.33746 0.0
C107 C 0.21123 0.07499 0.32801 0.0
N108 N 0.21193 0.0693 0.34913 0.0
N109 N 0.27836 0.10407 0.32022 0.0
C110 C 0.26394 0.0611 0.47083 0.0
C111 C 0.36909 0.10643 0.48378 0.0
N112 N 0.31102 0.0998 0.45531 0.0
N113 N 0.37618 0.12861 0.46357 0.0
N114 N 0.29919 0.06328 0.48889 0.0
H115 H 0.16769 0.02229 0.45164 0.0
H116 H 0.15972 0.04493 0.47804 0.0
H117 H 0.16185 0.96335 0.47312 0.0
C118 C 0.18388 0.02009 0.46805 0.0
C119 C 0.40035 0.1508 0.33716 0.0
H120 H 0.42338 0.19459 0.32522 0.0
H121 H 0.41518 0.10994 0.33258 0.0
H122 H 0.42341 0.1724 0.35295 0.0
O123 O 0.37645 0.07159 0.38412 0.0
O124 O 0.38104 0.0763 0.41887 0.0
C125 C 0.39655 0.24332 0.40314 0.0
O126 O 0.22225 -0.00761 0.42337 0.0
O127 O 0.21745 -0.00997 0.3888 0.0
Zn128 Zn 0.75653 0.64338 0.12889 0.0
O129 O 0.86436 0.72243 0.12582 0.0
C130 C 0.71927 0.74909 0.14473 0.0
Zn131 Zn 0.75658 0.64702 0.16438 0.0
C132 C 0.898 0.74532 0.14316 0.0
O133 O 0.86443 0.72411 0.16055 0.0
C134 C 0.61733 0.53878 0.1503 0.0
O135 O 0.78762 0.56973 0.16584 0.0
O136 O 0.79002 0.56687 0.13103 0.0
N137 N 0.77011 0.66489 0.19639 0.0
C138 C 0.74983 0.62428 0.21414 0.0
C139 C 0.81844 0.73336 0.22353 0.0
N140 N 0.81232 0.73253 0.2024 0.0
N141 N 0.77977 0.66622 0.23137 0.0
C142 C 0.7525 0.67695 0.08067 0.0
C143 C 0.69334 0.57106 0.068 0.0
N144 N 0.7436 0.63045 0.09642 0.0
N145 N 0.70769 0.56482 0.08835 0.0
N146 N 0.72021 0.64087 0.06263 0.0
H147 H 0.80921 0.77416 0.0996 0.0
H148 H 0.84052 0.78131 0.07334 0.0
H149 H 0.75661 0.77891 0.07783 0.0
C150 C 0.79128 0.75726 0.0832 0.0
C151 C 0.70377 0.54398 0.21447 0.0
H152 H 0.70256 0.52059 0.19875 0.0
H153 H 0.7237 0.52072 0.22657 0.0
H154 H 0.64811 0.52961 0.21882 0.0
O155 O 0.64945 0.56758 0.1675 0.0
O156 O 0.64967 0.56211 0.13277 0.0
C157 C 0.80057 0.54644 0.1489 0.0
O158 O 0.72468 0.72047 0.12784 0.0
O159 O 0.72806 0.72662 0.1624 0.0
Zn160 Zn 0.84092 0.18625 0.42237 0.0
O161 O 0.8091 0.07729 0.42546 0.0
C162 C -0.01789 0.22057 0.40573 0.0
Zn163 Zn 0.84251 0.18537 0.38689 0.0
C164 C 0.7985 0.04365 0.4081 0.0
O165 O 0.81148 0.07744 0.39075 0.0
C166 C 0.87631 0.32569 0.40088 0.0
O167 O 0.7345 0.15483 0.38595 0.0
O168 O 0.73159 0.15554 0.42078 0.0
N169 N 0.84503 0.17086 0.35488 0.0
C170 C 0.82511 0.19162 0.33716 0.0
C171 C 0.86302 0.12095 0.32773 0.0
N172 N 0.86886 0.12736 0.34884 0.0
N173 N 0.83577 0.1607 0.31992 0.0
C174 C 0.88388 0.1934 0.46995 0.0
C175 C 0.83225 0.24559 0.48418 0.0
N176 N 0.84336 0.20039 0.45482 0.0
N177 N 0.81094 0.23242 0.4638 0.0
N178 N 0.87852 0.22205 0.4884 0.0
H179 H 0.90907 0.12132 0.45281 0.0
H180 H 0.91893 0.12171 0.48122 0.0
H181 H -0.01623 0.19587 0.466 0.0
C182 C 0.92596 0.15551 0.46714 0.0
C183 C 0.79266 0.23922 0.33687 0.0
H184 H 0.75074 0.22133 0.32443 0.0
H185 H 0.83531 0.29505 0.33312 0.0
H186 H 0.76934 0.23945 0.35249 0.0
O187 O 0.87061 0.29256 0.38369 0.0
O188 O 0.8692 0.29409 0.41846 0.0
C189 C 0.69953 0.14386 0.40305 0.0
O190 O 0.94921 0.21463 0.42291 0.0
O191 O 0.95013 0.21339 0.38829 0.0
Zn192 Zn 0.08634 0.30316 0.66459 0.0
O193 O 0.19416 0.38048 0.66554 0.0
C194 C 0.05277 0.41031 0.65107 0.0
Zn195 Zn 0.08743 0.30627 0.62911 0.0
C196 C 0.22917 0.40462 0.64846 0.0
O197 O 0.19709 0.38463 0.63072 0.0
C198 C 0.94623 0.19929 0.64578 0.0
O199 O 0.11855 0.22879 0.62561 0.0
O200 O 0.11739 0.22622 0.66032 0.0
N201 N 0.08486 0.31891 0.59671 0.0
C202 C 0.04414 0.27185 0.58148 0.0
C203 C 0.09634 0.37616 0.56754 0.0
N204 N 0.11762 0.38366 0.58791 0.0
N205 N 0.04975 0.30646 0.56315 0.0
C206 C 0.10381 0.32627 0.71431 0.0
C207 C 0.06743 0.21786 0.72364 0.0
N208 N 0.0843 0.28562 0.69656 0.0
N209 N 0.06145 0.2184 0.70253 0.0
N210 N 0.09384 0.28477 0.73151 0.0
H211 H 0.16003 0.43021 0.69918 0.0
H212 H 0.1759 0.43073 0.72741 0.0
H213 H 0.09175 0.41857 0.71783 0.0
C214 C 0.13529 0.40627 0.71463 0.0
C215 C 0.00162 0.19174 0.58408 0.0
H216 H 0.01799 0.17389 0.59838 0.0
H217 H 0.00879 0.16525 0.56995 0.0
H218 H 0.94385 0.17447 0.58511 0.0
O219 O -0.02113 0.22659 0.62859 0.0
O220 O -0.02136 0.22355 0.6632 0.0
C221 C 0.12986 0.20567 0.64282 0.0
O222 O 0.05847 0.38247 0.66817 0.0
O223 O 0.05978 0.38618 0.63341 0.0
Zn224 Zn 0.1729 0.85401 0.92277 0.0
O225 O 0.06498 0.82533 0.92451 0.0
C226 C 0.2113 -0.00223 0.90824 0.0
Zn227 Zn 0.17447 0.85901 0.88727 0.0
C228 C 0.03204 0.81538 0.90705 0.0
O229 O 0.06621 0.82835 0.88973 0.0
C230 C 0.31313 0.88925 0.90281 0.0
O231 O 0.14324 0.75054 0.88463 0.0
O232 O 0.13919 0.74404 0.91945 0.0
N233 N 0.16907 0.87075 0.85515 0.0
C234 C 0.18644 0.84716 0.8375 0.0
C235 C 0.151 0.91946 0.82775 0.0
N236 N 0.14678 0.91528 0.84892 0.0
N237 N 0.17582 0.87739 0.82008 0.0
C238 C 0.17247 0.88736 0.97115 0.0
C239 C 0.22917 0.83834 0.9839 0.0
N240 N 0.18113 0.84972 0.95534 0.0
N241 N 0.21542 0.81849 0.96348 0.0
N242 N 0.20358 0.88233 0.98927 0.0
H243 H 0.11647 0.92848 0.95224 0.0
H244 H 0.08591 0.90568 0.97861 0.0
H245 H 0.17045 -0.0137 0.97384 0.0
C246 C 0.13483 0.92989 0.96862 0.0
C247 C 0.21658 0.79753 0.83746 0.0
H248 H 0.24229 0.79949 0.85282 0.0
H249 H 0.17211 0.7416 0.83484 0.0
H250 H 0.25608 0.81171 0.82445 0.0
O251 O 0.28196 0.88679 0.88551 0.0
O252 O 0.2799 0.87957 0.92018 0.0
C253 C 0.12944 0.71364 0.90148 0.0
O254 O 0.20505 0.963 0.92502 0.0
O255 O 0.20333 0.96716 0.89051 0.0
Zn256 Zn 0.6284 0.76216 0.62915 0.0
O257 O 0.70584 0.87099 0.62616 0.0
C258 C 0.73443 0.72698 0.64607 0.0
Zn259 Zn 0.6303 0.76306 0.66463 0.0
C260 C 0.7288 0.90452 0.64353 0.0
O261 O 0.70766 0.87072 0.66087 0.0
C262 C 0.5236 0.62301 0.65054 0.0
O263 O 0.55336 0.79441 0.66535 0.0
O264 O 0.55007 0.79339 0.63052 0.0
N265 N 0.64665 0.77736 0.69666 0.0
C266 C 0.60557 0.75807 0.71429 0.0
C267 C 0.71436 0.8261 0.7239 0.0
N268 N 0.71409 0.8192 0.7028 0.0
N269 N 0.64705 0.78826 0.73157 0.0
C270 C 0.66519 0.75494 0.58166 0.0
C271 C 0.56182 0.70354 0.56723 0.0
N272 N 0.61746 0.74819 0.59669 0.0
N273 N 0.55329 0.71664 0.58758 0.0
N274 N 0.63159 0.72662 0.56314 0.0
H275 H 0.7621 0.82677 0.59892 0.0
H276 H 0.77227 0.82585 0.57055 0.0
H277 H 0.76207 0.7517 0.58598 0.0
C278 C 0.74501 0.79236 0.58463 0.0
C279 C 0.52536 0.71269 0.71448 0.0
H280 H 0.50222 0.73476 0.72596 0.0
H281 H 0.51023 0.65744 0.71967 0.0
H282 H 0.50268 0.70962 0.69854 0.0
O283 O 0.55078 0.65611 0.66774 0.0
O284 O 0.54852 0.65447 0.63297 0.0
C285 C 0.52962 0.80538 0.6482 0.0
O286 O 0.70798 0.73322 0.62883 0.0
O287 O 0.70935 0.73424 0.66345 0.0
Zn288 Zn 0.09009 0.31121 0.88703 0.0
O289 O 0.198 0.38867 0.88588 0.0
C290 C 0.05785 0.41995 0.89973 0.0
Zn291 Zn 0.09179 0.31648 0.92251 0.0
C292 C 0.23345 0.41299 0.90289 0.0
O293 O 0.20179 0.39337 0.9207 0.0
C294 C 0.95006 0.20955 0.90624 0.0
O295 O 0.121 0.23789 0.92666 0.0
O296 O 0.12133 0.23465 0.89197 0.0
N297 N 0.08925 0.33058 0.95487 0.0
C298 C 0.05161 0.28407 0.97062 0.0
C299 C 0.09506 0.39005 0.98299 0.0
N300 N 0.11687 0.3963 0.96276 0.0
N301 N 0.05337 0.32017 0.98847 0.0
C302 C 0.1064 0.33077 0.83719 0.0
C303 C 0.0713 0.222 0.82854 0.0
N304 N 0.0879 0.29147 0.85518 0.0
N305 N 0.06586 0.22402 0.84964 0.0
N306 N 0.09658 0.28818 0.82026 0.0
H307 H 0.17592 0.43447 0.82323 0.0
H308 H 0.09239 0.42185 0.83358 0.0
H309 H 0.16309 0.43593 0.85158 0.0
C310 C 0.13682 0.41058 0.8364 0.0
C311 C 0.01197 0.20367 0.96824 0.0
H312 H 0.0133 0.18663 0.95188 0.0
H313 H 0.03843 0.181 0.97814 0.0
H314 H 0.95553 0.18075 0.97363 0.0
O315 O -0.01696 0.23903 0.92319 0.0
O316 O -0.01781 0.23139 0.88867 0.0
C317 C 0.13294 0.21435 0.90962 0.0
O318 O 0.06218 0.39038 0.8828 0.0
O319 O 0.06587 0.39737 0.91753 0.0
Zn320 Zn 0.17096 0.84929 0.66444 0.0
O321 O 0.13964 0.74077 0.66588 0.0
C322 C 0.30981 0.87977 0.64981 0.0
Zn323 Zn 0.17039 0.84593 0.62891 0.0
C324 C 0.12623 0.70452 0.64891 0.0
O325 O 0.13649 0.73562 0.63105 0.0
C326 C 0.20828 -0.01095 0.6449 0.0
O327 O 0.06244 0.81734 0.62631 0.0
O328 O 0.06334 0.81901 0.66106 0.0
N329 N 0.18241 0.8462 0.59632 0.0
C330 C 0.17448 0.88502 0.58073 0.0
C331 C 0.23285 0.83795 0.56782 0.0
N332 N 0.21782 0.81628 0.58808 0.0
N333 N 0.20701 0.88188 0.56266 0.0
C334 C 0.18633 0.84077 0.71414 0.0
C335 C 0.12067 0.88382 0.72419 0.0
N336 N 0.15937 0.85451 0.69657 0.0
N337 N 0.11834 0.88079 0.70298 0.0
N338 N 0.16266 0.85874 0.73164 0.0
H339 H 0.23231 0.78224 0.6996 0.0
H340 H 0.23212 0.78159 0.72832 0.0
H341 H 0.29425 0.86152 0.7142 0.0
C342 C 0.23895 0.81439 0.71403 0.0
C343 C 0.13626 0.92692 0.58346 0.0
H344 H 0.11761 0.92476 0.59984 0.0
H345 H 0.08751 0.90277 0.57339 0.0
H346 H 0.17161 -0.01639 0.57845 0.0
O347 O 0.20261 0.95514 0.62795 0.0
O348 O 0.1998 0.95761 0.66252 0.0
C349 C 0.02937 0.80685 0.64376 0.0
O350 O 0.27815 0.87673 0.66707 0.0
O351 O 0.27723 0.87112 0.63235 0.0
Zn352 Zn 0.63397 0.77403 0.88695 0.0
O353 O 0.55633 0.80443 0.88669 0.0
C354 C 0.52687 0.6338 0.90062 0.0
Zn355 Zn 0.63232 0.77218 0.92244 0.0
C356 C 0.53408 0.8167 0.90394 0.0
O357 O 0.55575 0.80567 0.92152 0.0
C358 C 0.73731 0.73638 0.90499 0.0
O359 O 0.71158 0.88012 0.92593 0.0
O360 O 0.71068 0.88191 0.89122 0.0
N361 N 0.621 0.75684 0.95485 0.0
C362 C 0.66774 0.76422 0.97034 0.0
C363 C 0.56238 0.70535 0.98325 0.0
N364 N 0.55573 0.72109 0.96308 0.0
N365 N 0.6321 0.73111 0.98836 0.0
C366 C 0.60844 0.76655 0.83736 0.0
C367 C 0.71493 0.84277 0.82759 0.0
N368 N 0.64965 0.7901 0.85494 0.0
N369 N 0.71568 0.83713 0.84871 0.0
N370 N 0.64837 0.79913 0.81999 0.0
H371 H 0.50284 0.7257 0.82399 0.0
H372 H 0.52006 0.65918 0.8356 0.0
H373 H 0.50487 0.71772 0.85253 0.0
C374 C 0.52924 0.71466 0.83739 0.0
C375 C 0.74777 0.80243 0.96756 0.0
H376 H 0.76411 0.82128 0.95119 0.0
H377 H 0.77263 0.8512 0.97767 0.0
H378 H 0.76898 0.76688 0.97244 0.0
O379 O 0.70934 0.74032 0.92221 0.0
O380 O 0.71394 0.7462 0.88764 0.0
C381 C 0.73316 0.9147 0.90868 0.0
O382 O 0.5549 0.66672 0.88346 0.0
O383 O 0.55098 0.66543 0.91821 0.0
C384 C 0.07643 0.21185 0.16325 0.0
C385 C 0.04657 0.21967 0.14443 0.0
H386 H 0.14616 0.18036 0.17753 0.0
C387 C 0.07258 0.21058 0.12496 0.0
H388 H 0.05798 0.21912 0.17851 0.0
C389 C 0.12245 0.18707 0.12437 0.0
C390 C 0.14744 0.17322 0.14326 0.0
H391 H 0.05126 0.21724 0.11018 0.0
H392 H 0.13938 0.1774 0.10918 0.0
C393 C 0.12629 0.18866 0.16268 0.0
C394 C 0.08687 0.86169 0.38839 0.0
C395 C 0.12481 0.8912 0.40721 0.0
H396 H -0.01465 0.79274 0.37412 0.0
C397 C 0.08973 0.86508 0.42668 0.0
H398 H 0.11249 0.8802 0.37313 0.0
C399 C 0.01623 0.81562 0.42728 0.0
C400 C -0.02283 0.79112 0.4084 0.0
H401 H 0.1179 0.88606 0.44146 0.0
H402 H -0.0103 0.79867 0.44247 0.0
C403 C 0.01368 0.81226 0.38898 0.0
C404 C 0.74957 0.92856 0.16194 0.0
C405 C 0.76624 0.96542 0.14256 0.0
H406 H 0.71855 0.8296 0.17778 0.0
C407 C 0.75368 0.92675 0.12366 0.0
H408 H 0.75677 0.95657 0.17679 0.0
C409 C 0.73049 0.85332 0.12425 0.0
C410 C 0.72042 0.81804 0.14375 0.0
H411 H 0.76433 0.95357 0.10849 0.0
H412 H 0.72498 0.8255 0.1095 0.0
C413 C 0.72666 0.85547 0.16252 0.0
C414 C 0.12172 0.17702 0.38815 0.0
C415 C 0.14866 0.16996 0.40768 0.0
H416 H 0.0494 0.20143 0.37213 0.0
C417 C 0.13013 0.19287 0.42619 0.0
H418 H 0.13649 0.16153 0.37351 0.0
C419 C 0.08108 0.21738 0.4253 0.0
C420 C 0.04904 0.2179 0.406 0.0
H421 H 0.15204 0.19024 0.44136 0.0
H422 H 0.06571 0.23247 0.43983 0.0
C423 C 0.0725 0.20095 0.38731 0.0
C424 C 0.08913 0.86681 0.12549 0.0
C425 C 0.12349 0.89379 0.145 0.0
H426 H -0.0103 0.79965 0.10952 0.0
C427 C 0.08504 0.865 0.16378 0.0
H428 H 0.11777 0.8872 0.11075 0.0
C429 C 0.01193 0.81545 0.16307 0.0
C430 C -0.0239 0.79354 0.14356 0.0
H431 H 0.11017 0.8842 0.17907 0.0
H432 H -0.01687 0.79648 0.17787 0.0
C433 C 0.01571 0.81728 0.12476 0.0
C434 C 0.72442 0.85124 0.42553 0.0
C435 C 0.7227 0.818 0.40623 0.0
H436 H 0.75191 0.94988 0.44144 0.0
C437 C 0.73726 0.85755 0.38743 0.0
H438 H 0.71121 0.82147 0.44016 0.0
C439 C 0.7603 0.93064 0.38812 0.0
C440 C 0.76887 0.96546 0.40761 0.0
H441 H 0.73566 0.83338 0.37225 0.0
H442 H 0.77412 0.96028 0.37338 0.0
C443 C 0.74803 0.92474 0.42626 0.0
C444 C 0.1974 0.08261 0.62459 0.0
C445 C 0.20676 0.05672 0.64405 0.0
H446 H 0.16376 0.14919 0.60887 0.0
C447 C 0.19932 0.08691 0.66288 0.0
H448 H 0.20388 0.06114 0.60981 0.0
C449 C 0.17597 0.13672 0.66234 0.0
C450 C 0.16005 0.15756 0.64296 0.0
H451 H 0.20683 0.06861 0.67813 0.0
H452 H 0.16785 0.15673 0.67721 0.0
C453 C 0.17378 0.13247 0.62404 0.0
C454 C 0.91836 0.77374 0.88714 0.0
C455 C 0.954 0.78573 0.9066 0.0
H456 H 0.82016 0.74561 0.87132 0.0
C457 C 0.91423 0.76805 0.92542 0.0
H458 H 0.94733 0.7851 0.87232 0.0
C459 C 0.84086 0.74412 0.92481 0.0
C460 C 0.80659 0.73843 0.90541 0.0
H461 H 0.94007 0.77495 0.94062 0.0
H462 H 0.81217 0.73446 0.93961 0.0
C463 C 0.84521 0.75009 0.88654 0.0
C464 C 0.804 0.01726 0.66355 0.0
C465 C 0.77755 -0.01736 0.64405 0.0
H466 H 0.87669 0.11434 0.67946 0.0
C467 C 0.79724 0.0235 0.62543 0.0
H468 H 0.78832 -0.01251 0.67828 0.0
C469 C 0.84709 0.09697 0.6262 0.0
C470 C 0.87872 0.13003 0.6455 0.0
H471 H 0.77582 -0.00149 0.61026 0.0
H472 H 0.86346 0.12686 0.61159 0.0
C473 C 0.854 0.09032 0.66428 0.0
C474 C 0.17338 0.1392 0.92892 0.0
C475 C 0.16316 0.1663 0.90987 0.0
H476 H 0.20052 0.06607 0.94342 0.0
C477 C 0.18265 0.14752 0.89072 0.0
H478 H 0.16051 0.15428 0.94394 0.0
C479 C 0.20604 0.09775 0.89043 0.0
C480 C 0.20988 0.06546 0.90927 0.0
H481 H 0.17738 0.16919 0.87579 0.0
H482 H 0.21642 0.08114 0.87527 0.0
C483 C 0.19697 0.08927 0.92862 0.0
C484 C 0.91735 0.77086 0.66388 0.0
C485 C 0.95141 0.77742 0.64439 0.0
H486 H 0.82058 0.74689 0.67979 0.0
C487 C 0.91006 0.75391 0.62588 0.0
H488 H 0.94756 0.78683 0.67852 0.0
C489 C 0.83654 0.72935 0.62671 0.0
C490 C 0.80392 0.72941 0.64594 0.0
H491 H 0.93464 0.7561 0.61074 0.0
H492 H 0.80614 0.7138 0.61218 0.0
C493 C 0.84422 0.7469 0.66466 0.0
C494 C 0.85208 0.10264 0.88842 0.0
C495 C 0.8826 0.1404 0.90719 0.0
H496 H 0.7818 0.00129 0.87421 0.0
C497 C 0.85714 0.10534 0.9267 0.0
H498 H 0.87008 0.12834 0.87315 0.0
C499 C 0.80724 0.03187 0.92734 0.0
C500 C 0.78163 -0.00707 0.90847 0.0
H501 H 0.87898 0.13339 0.94145 0.0
H502 H 0.79078 0.00526 0.94254 0.0
C503 C 0.80216 0.02952 0.88905 0.0
C504 C 0.33098 0.09127 0.28674 0.0
C505 C 0.29623 0.12119 0.29828 0.0
H506 H 0.35262 0.06422 0.25582 0.0
C507 C 0.26661 0.15713 0.28737 0.0
H508 H 0.35307 0.06222 0.29485 0.0
C509 C 0.26641 0.15834 0.26536 0.0
C510 C 0.29576 0.12356 0.25368 0.0
H511 H 0.23943 0.18035 0.29595 0.0
H512 H 0.23915 0.18257 0.25736 0.0
C513 C 0.33072 0.09243 0.26449 0.0
C514 C 0.71444 0.6122 0.28694 0.0
C515 C 0.78014 0.64754 0.29793 0.0
H516 H 0.66274 0.59008 0.25646 0.0
C517 C 0.84457 0.67802 0.28642 0.0
H518 H 0.6641 0.58943 0.29549 0.0
C519 C 0.84379 0.67847 0.26441 0.0
C520 C 0.77856 0.64835 0.25333 0.0
H521 H 0.89578 0.70559 0.29456 0.0
H522 H 0.89438 0.70637 0.25597 0.0
C523 C 0.71366 0.61259 0.26469 0.0
C524 C 0.78301 0.0966 0.2648 0.0
C525 C 0.81825 0.1612 0.25336 0.0
H526 H 0.75996 0.04641 0.29521 0.0
C527 C 0.84938 0.22698 0.2644 0.0
H528 H 0.75875 0.04534 0.25662 0.0
C529 C 0.85001 0.22758 0.28665 0.0
C530 C 0.81953 0.16241 0.29795 0.0
H531 H 0.87792 0.27743 0.2559 0.0
H532 H 0.87902 0.27846 0.29493 0.0
C533 C 0.78366 0.0972 0.28681 0.0
C534 C 0.1446 0.273 0.76483 0.0
C535 C 0.10955 0.30275 0.75351 0.0
H536 H 0.169 0.24667 0.79516 0.0
C537 C 0.07983 0.33848 0.76465 0.0
H538 H 0.16778 0.24516 0.75658 0.0
C539 C 0.0805 0.33933 0.7869 0.0
C540 C 0.11092 0.30446 0.79812 0.0
H541 H 0.05145 0.3607 0.75625 0.0
H542 H 0.0526 0.36217 0.79526 0.0
C543 C 0.14529 0.27386 0.78684 0.0
C544 C 0.15857 0.80399 0.78794 0.0
C545 C 0.18819 0.87147 0.79798 0.0
H546 H 0.12782 0.74708 0.75823 0.0
C547 C 0.21969 0.93406 0.78553 0.0
H548 H 0.1327 0.75495 0.79717 0.0
C549 C 0.21691 0.92952 0.76353 0.0
C550 C 0.18275 0.86231 0.75345 0.0
H551 H 0.24262 -0.01339 0.7929 0.0
H552 H 0.2372 -0.02155 0.75432 0.0
C553 C 0.15576 0.79946 0.76574 0.0
C554 C 0.65666 0.85436 0.76398 0.0
C555 C 0.62865 0.78823 0.75341 0.0
H556 H 0.68323 0.90911 0.79373 0.0
C557 C 0.5956 0.72413 0.76523 0.0
H558 H 0.68261 0.90433 0.75516 0.0
C559 C 0.59612 0.72683 0.78746 0.0
C560 C 0.62963 0.79368 0.79796 0.0
H561 H 0.57483 0.67263 0.75737 0.0
H562 H 0.57572 0.67732 0.79637 0.0
C563 C 0.65709 0.85706 0.78598 0.0
C564 C 0.18048 0.9506 1.01749 0.0
C565 C 0.2246 0.92698 1.00812 0.0
H566 H 0.16984 0.01571 0.0412 0.0
C567 C 0.29201 0.94888 1.01739 0.0
H568 H 0.12736 0.9334 1.01148 0.0
C569 C 0.31498 -0.00661 0.03519 0.0
C570 C 0.27152 0.01787 0.04446 0.0
H571 H 0.32778 0.93219 1.01069 0.0
H572 H 0.36705 0.0083 0.04184 0.0
C573 C 0.20418 -0.00348 0.03517 0.0
C574 C 0.71857 0.6525 0.52731 0.0
C575 C 0.70264 0.66905 0.5073 0.0
H576 H 0.7083 0.65808 0.56087 0.0
C577 C 0.66454 0.70653 0.50598 0.0
H578 H 0.74644 0.62229 0.52867 0.0
C579 C 0.64271 0.72693 0.52433 0.0
C580 C 0.65922 0.71099 0.54434 0.0
H581 H 0.64904 0.71738 0.49076 0.0
H582 H 0.61196 0.75424 0.52295 0.0
C583 C 0.69744 0.67362 0.54566 0.0
C584 C -0.01472 0.3392 1.01674 0.0
C585 C 0.00921 0.29537 1.00739 0.0
H586 H 0.92527 0.3527 0.04143 0.0
C587 C -0.01152 0.22827 1.01683 0.0
H588 H -0.00022 0.39116 1.01001 0.0
C589 C 0.94336 0.20495 0.03465 0.0
C590 C 0.92009 0.24933 0.04408 0.0
H591 H 0.0074 0.19369 1.01079 0.0
H592 H 0.9264 0.15182 0.04067 0.0
C593 C 0.94169 0.31669 0.03472 0.0
C594 C 0.31809 -0.00584 0.51686 0.0
C595 C 0.27411 0.01797 0.50759 0.0
H596 H 0.33159 0.93339 0.54133 0.0
C597 C 0.20669 -0.00389 0.51691 0.0
H598 H 0.37025 0.00948 0.51021 0.0
C599 C 0.18339 0.95027 0.5346 0.0
C600 C 0.22795 0.92714 0.54394 0.0
H601 H 0.17193 0.01477 0.51088 0.0
H602 H 0.13018 0.93262 0.54062 0.0
C603 C 0.29548 0.94969 0.53467 0.0
C604 C 0.74623 0.73243 0.03426 0.0
C605 C 0.70047 0.66518 0.0437 0.0
H606 H 0.75958 0.80849 1.01036 0.0
C607 C 0.6329 0.62076 0.03437 0.0
H608 H 0.79953 0.76744 0.04033 0.0
C609 C 0.61132 0.64289 1.01643 0.0
C610 C 0.6564 0.71038 1.00709 0.0
H611 H 0.59595 0.56868 0.04112 0.0
H612 H 0.55902 0.60654 1.00974 0.0
C613 C 0.72396 0.75529 1.01644 0.0
C614 C 0.9311 0.2421 0.54559 0.0
C615 C 0.00662 0.27968 0.5443 0.0
H616 H 0.831 0.19432 0.52857 0.0
C617 C 0.03921 0.29633 0.52431 0.0
H618 H 0.90466 0.23114 0.5608 0.0
C619 C -0.00288 0.27521 0.50594 0.0
C620 C 0.92159 0.23774 0.50723 0.0
H621 H 0.09724 0.3266 0.52297 0.0
H622 H 0.02359 0.29078 0.49074 0.0
C623 C 0.88902 0.22171 0.52722 0.0
C624 C 0.58477 0.10933 0.16902 0.0
C625 C 0.61843 0.11456 0.14953 0.0
H626 H 0.48844 0.08887 0.18482 0.0
C627 C 0.57712 0.0929 0.131 0.0
H628 H 0.61518 0.12448 0.18363 0.0
C629 C 0.50441 0.0714 0.13173 0.0
C630 C 0.47201 0.07183 0.15099 0.0
H631 H 0.60132 0.09473 0.11582 0.0
H632 H 0.47472 0.05858 0.11701 0.0
C633 C 0.51199 0.08805 0.16975 0.0
C634 C 0.52637 0.42781 0.38178 0.0
C635 C 0.55 0.46821 0.4005 0.0
H636 H 0.4597 0.32418 0.36799 0.0
C637 C 0.51691 0.43599 0.41975 0.0
H638 H 0.55091 0.45117 0.36671 0.0
C639 C 0.46562 0.36312 0.42054 0.0
C640 C 0.44611 0.32139 0.40206 0.0
H641 H 0.53366 0.46595 0.43444 0.0
H642 H 0.4431 0.33908 0.43572 0.0
C643 C 0.47478 0.35487 0.38256 0.0
C644 C 0.87358 0.42698 0.13231 0.0
C645 C 0.87159 0.39299 0.15148 0.0
H646 H 0.85144 0.50152 0.11643 0.0
C647 C 0.8542 0.41595 0.17021 0.0
H648 H 0.8874 0.41077 0.11763 0.0
C649 C 0.83302 0.46766 0.16948 0.0
C650 C 0.82909 0.49702 0.15002 0.0
H651 H 0.85219 0.39067 0.18521 0.0
H652 H 0.81675 0.48216 0.18403 0.0
C653 C 0.85219 0.47835 0.13157 0.0
C654 C 0.50819 0.07279 0.42039 0.0
C655 C 0.47478 0.07106 0.40113 0.0
H656 H 0.60605 0.09849 0.43612 0.0
C657 C 0.5141 0.08623 0.38226 0.0
H658 H 0.47907 0.06091 0.43519 0.0
C659 C 0.58709 0.10838 0.38284 0.0
C660 C 0.62166 0.11556 0.40228 0.0
H661 H 0.48978 0.08543 0.36719 0.0
H662 H 0.61689 0.12254 0.36812 0.0
C663 C 0.58112 0.09514 0.42096 0.0
C664 C 0.47307 0.35757 0.16871 0.0
C665 C 0.44489 0.32345 0.14924 0.0
H666 H 0.54922 0.45419 0.18441 0.0
C667 C 0.46523 0.36437 0.13063 0.0
H668 H 0.4573 0.32749 0.18338 0.0
C669 C 0.51697 0.43707 0.13127 0.0
C670 C 0.54957 0.46983 0.15052 0.0
H671 H 0.44309 0.3398 0.11546 0.0
H672 H 0.53443 0.46642 0.1165 0.0
C673 C 0.52505 0.43034 0.16935 0.0
C674 C 0.8361 0.46776 0.38259 0.0
C675 C 0.82916 0.49515 0.40209 0.0
H676 H 0.85897 0.3934 0.36681 0.0
C677 C 0.85046 0.4755 0.42069 0.0
H678 H 0.82136 0.48313 0.36794 0.0
C679 C 0.87319 0.42511 0.42 0.0
C680 C 0.87427 0.39308 0.40072 0.0
H681 H 0.84741 0.4972 0.43587 0.0
H682 H 0.88555 0.40805 0.43476 0.0
C683 C 0.85857 0.41709 0.38191 0.0
C684 C 0.07456 0.58469 0.63151 0.0
C685 C 0.0975 0.62643 0.64998 0.0
H686 H 0.03914 0.4818 0.61754 0.0
C687 C 0.09315 0.59293 0.66944 0.0
H688 H 0.07566 0.60875 0.61636 0.0
C689 C 0.07163 0.51992 0.67016 0.0
C690 C 0.05429 0.47954 0.65142 0.0
H691 H 0.10929 0.62364 0.684 0.0
H692 H 0.07324 0.49652 0.68517 0.0
C693 C 0.05282 0.51177 0.63223 0.0
C694 C 0.40664 0.87551 0.8837 0.0
C695 C 0.38054 0.88754 0.9027 0.0
H696 H 0.47519 0.84237 0.86923 0.0
C697 C 0.41115 0.88392 0.92195 0.0
H698 H 0.38411 0.87799 0.86862 0.0
C699 C 0.46256 0.86258 0.92233 0.0
C700 C 0.48444 0.84497 0.90345 0.0
H701 H 0.3924 0.89341 0.93686 0.0
H702 H 0.48318 0.85749 0.93746 0.0
C703 C 0.45816 0.85425 0.88408 0.0
C704 C 0.42096 0.52406 0.63137 0.0
C705 C 0.45411 0.55581 0.65066 0.0
H706 H 0.32316 0.45215 0.6155 0.0
C707 C 0.41449 0.53165 0.66948 0.0
H708 H 0.45032 0.54127 0.6166 0.0
C709 C 0.34143 0.481 0.6688 0.0
C710 C 0.3071 0.45379 0.64931 0.0
H711 H 0.43859 0.55513 0.68458 0.0
H712 H 0.31141 0.46546 0.68348 0.0
C713 C 0.34794 0.47369 0.63069 0.0
C714 C 0.07594 0.59348 0.91861 0.0
C715 C 0.10102 0.6356 0.90027 0.0
H716 H 0.03944 0.49051 0.93261 0.0
C717 C 0.09941 0.60259 0.88093 0.0
H718 H 0.07486 0.61712 0.93365 0.0
C719 C 0.07853 0.52966 0.88029 0.0
C720 C 0.05906 0.48899 0.899 0.0
H721 H 0.11733 0.63366 0.86646 0.0
H722 H 0.08234 0.5066 0.86544 0.0
C723 C 0.05486 0.52074 0.91797 0.0
C724 C 0.40231 0.86401 0.66883 0.0
C725 C 0.37692 0.8774 0.64991 0.0
H726 H 0.46999 0.82936 0.68308 0.0
C727 C 0.40782 0.87446 0.63063 0.0
H728 H 0.37957 0.86592 0.68393 0.0
C729 C 0.45876 0.85252 0.63011 0.0
C730 C 0.48001 0.8337 0.64887 0.0
H731 H 0.38966 0.88501 0.61578 0.0
H732 H 0.47965 0.8481 0.61494 0.0
C733 C 0.45346 0.84221 0.66831 0.0
C734 C 0.41784 0.54213 0.88165 0.0
C735 C 0.45776 0.5662 0.90042 0.0
H736 H 0.31465 0.47518 0.86777 0.0
C737 C 0.42529 0.53355 0.91969 0.0
H738 H 0.44145 0.56629 0.86657 0.0
C739 C 0.35254 0.48237 0.92043 0.0
C740 C 0.31128 0.46253 0.90189 0.0
H741 H 0.45494 0.55062 0.93441 0.0
H742 H 0.32826 0.46019 0.93561 0.0
C743 C 0.34502 0.49062 0.88238 0.0
loop_
_geom_bond_atom_site_label_1
_geom_bond_atom_site_label_2
_geom_bond_distance
_geom_bond_site_symmetry_2
_ccdc_geom_bond_type
Zn0 O1 2.055 . S
Zn0 O8 2.046 . S
Zn0 N16 2.036 . S
Zn0 O28 2.053 . S
Zn0 O30 2.066 . S
O1 Zn0 2.055 . S
O1 C4 1.259 . S
C2 O30 1.256 . S
C2 O31 1.244 . S
Zn3 O5 2.046 . S
Zn3 O7 2.055 . S
Zn3 N9 2.036 . S
Zn3 O27 2.066 . S
Zn3 O31 2.053 . S
C4 O1 1.259 . S
C4 O5 1.254 . S
O5 Zn3 2.046 . S
O5 C4 1.254 . S
C6 O27 1.256 . S
C6 O28 1.244 . S
O7 Zn3 2.055 . S
O7 C29 1.259 . S
O8 Zn0 2.046 . S
O8 C29 1.254 . S
N9 Zn3 2.036 . S
N9 C10 1.298 . S
N9 N12 1.398 . S
C10 N9 1.298 . S
C10 N13 1.367 . S
C10 C23 1.481 . S
C11 N12 1.299 . S
C11 N13 1.379 . S
N12 N9 1.398 . S
N12 C11 1.299 . S
N13 C10 1.367 . S
N13 C11 1.379 . S
C14 N16 1.298 . S
C14 N18 1.367 . S
C14 C22 1.481 . S
C15 N17 1.299 . S
C15 N18 1.379 . S
N16 Zn0 2.036 . S
N16 C14 1.298 . S
N16 N17 1.398 . S
N17 C15 1.299 . S
N17 N16 1.398 . S
N18 C14 1.367 . S
N18 C15 1.379 . S
H19 C22 0.980 . S
H20 C22 0.981 . S
H21 C22 0.981 . S
C22 C14 1.481 . S
C22 H19 0.980 . S
C22 H20 0.981 . S
C22 H21 0.981 . S
C23 C10 1.481 . S
C23 H24 0.980 . S
C23 H25 0.981 . S
C23 H26 0.981 . S
H24 C23 0.980 . S
H25 C23 0.981 . S
H26 C23 0.981 . S
O27 Zn3 2.066 . S
O27 C6 1.256 . S
O28 Zn0 2.053 . S
O28 C6 1.244 . S
C29 O7 1.259 . S
C29 O8 1.254 . S
O30 Zn0 2.066 . S
O30 C2 1.256 . S
O31 C2 1.244 . S
O31 Zn3 2.053 . S
Zn32 O33 2.055 . S
Zn32 O40 2.046 . S
Zn32 N48 2.036 . S
Zn32 O60 2.053 . S
Zn32 O62 2.066 . S
O33 Zn32 2.055 . S
O33 C36 1.259 . S
C34 O62 1.256 . S
C34 O63 1.244 . S
Zn35 O37 2.046 . S
Zn35 O39 2.055 . S
Zn35 N41 2.036 . S
Zn35 O59 2.066 . S
Zn35 O63 2.053 . S
C36 O33 1.259 . S
C36 O37 1.254 . S
O37 Zn35 2.046 . S
O37 C36 1.254 . S
C38 O59 1.256 . S
C38 O60 1.244 . S
O39 Zn35 2.055 . S
O39 C61 1.259 . S
O40 Zn32 2.046 . S
O40 C61 1.254 . S
N41 Zn35 2.036 . S
N41 C42 1.298 . S
N41 N44 1.398 . S
C42 N41 1.298 . S
C42 N45 1.367 . S
C42 C55 1.481 . S
C43 N44 1.299 . S
C43 N45 1.379 . S
N44 N41 1.398 . S
N44 C43 1.299 . S
N45 C42 1.367 . S
N45 C43 1.379 . S
C46 N48 1.298 . S
C46 N50 1.367 . S
C46 C54 1.481 . S
C47 N49 1.299 . S
C47 N50 1.379 . S
N48 Zn32 2.036 . S
N48 C46 1.298 . S
N48 N49 1.398 . S
N49 C47 1.299 . S
N49 N48 1.398 . S
N50 C46 1.367 . S
N50 C47 1.379 . S
H51 C54 0.980 . S
H52 C54 0.981 . S
H53 C54 0.981 . S
C54 C46 1.481 . S
C54 H51 0.980 . S
C54 H52 0.981 . S
C54 H53 0.981 . S
C55 C42 1.481 . S
C55 H56 0.980 . S
C55 H57 0.981 . S
C55 H58 0.981 . S
H56 C55 0.980 . S
H57 C55 0.981 . S
H58 C55 0.981 . S
O59 Zn35 2.066 . S
O59 C38 1.256 . S
O60 Zn32 2.053 . S
O60 C38 1.244 . S
C61 O39 1.259 . S
C61 O40 1.254 . S
O62 Zn32 2.066 . S
O62 C34 1.256 . S
O63 C34 1.244 . S
O63 Zn35 2.053 . S
Zn64 O65 2.055 . S
Zn64 O72 2.046 . S
Zn64 N80 2.036 . S
Zn64 O92 2.053 . S
Zn64 O94 2.066 . S
O65 Zn64 2.055 . S
O65 C68 1.259 . S
C66 O94 1.256 . S
C66 O95 1.244 . S
Zn67 O69 2.046 . S
Zn67 O71 2.055 . S
Zn67 N73 2.036 . S
Zn67 O91 2.066 . S
Zn67 O95 2.053 . S
C68 O65 1.259 . S
C68 O69 1.254 . S
O69 Zn67 2.046 . S
O69 C68 1.254 . S
C70 O91 1.256 . S
C70 O92 1.244 . S
O71 Zn67 2.055 . S
O71 C93 1.259 . S
O72 Zn64 2.046 . S
O72 C93 1.254 . S
N73 Zn67 2.036 . S
N73 C74 1.298 . S
N73 N76 1.398 . S
C74 N73 1.298 . S
C74 N77 1.367 . S
C74 C87 1.481 . S
C75 N76 1.299 . S
C75 N77 1.379 . S
N76 N73 1.398 . S
N76 C75 1.299 . S
N77 C74 1.367 . S
N77 C75 1.379 . S
C78 N80 1.298 . S
C78 N82 1.367 . S
C78 C86 1.481 . S
C79 N81 1.299 . S
C79 N82 1.379 . S
N80 Zn64 2.036 . S
N80 C78 1.298 . S
N80 N81 1.398 . S
N81 C79 1.299 . S
N81 N80 1.398 . S
N82 C78 1.367 . S
N82 C79 1.379 . S
H83 C86 0.980 . S
H84 C86 0.981 . S
H85 C86 0.981 . S
C86 C78 1.481 . S
C86 H83 0.980 . S
C86 H84 0.981 . S
C86 H85 0.981 . S
C87 C74 1.481 . S
C87 H88 0.980 . S
C87 H89 0.981 . S
C87 H90 0.981 . S
H88 C87 0.980 . S
H89 C87 0.981 . S
H90 C87 0.981 . S
O91 Zn67 2.066 . S
O91 C70 1.256 . S
O92 Zn64 2.053 . S
O92 C70 1.244 . S
C93 O71 1.259 . S
C93 O72 1.254 . S
O94 Zn64 2.066 . S
O94 C66 1.256 . S
O95 C66 1.244 . S
O95 Zn67 2.053 . S
Zn96 O97 2.055 . S
Zn96 O104 2.046 . S
Zn96 N112 2.036 . S
Zn96 O124 2.053 . S
Zn96 O126 2.066 . S
O97 Zn96 2.055 . S
O97 C100 1.259 . S
C98 O126 1.256 . S
C98 O127 1.244 . S
Zn99 O101 2.046 . S
Zn99 O103 2.055 . S
Zn99 N105 2.036 . S
Zn99 O123 2.066 . S
Zn99 O127 2.053 . S
C100 O97 1.259 . S
C100 O101 1.254 . S
O101 Zn99 2.046 . S
O101 C100 1.254 . S
C102 O123 1.256 . S
C102 O124 1.244 . S
O103 Zn99 2.055 . S
O103 C125 1.259 . S
O104 Zn96 2.046 . S
O104 C125 1.254 . S
N105 Zn99 2.036 . S
N105 C106 1.298 . S
N105 N108 1.398 . S
C106 N105 1.298 . S
C106 N109 1.367 . S
C106 C119 1.481 . S
C107 N108 1.299 . S
C107 N109 1.379 . S
N108 N105 1.398 . S
N108 C107 1.299 . S
N109 C106 1.367 . S
N109 C107 1.379 . S
C110 N112 1.298 . S
C110 N114 1.367 . S
C110 C118 1.481 . S
C111 N113 1.299 . S
C111 N114 1.379 . S
N112 Zn96 2.036 . S
N112 C110 1.298 . S
N112 N113 1.398 . S
N113 C111 1.299 . S
N113 N112 1.398 . S
N114 C110 1.367 . S
N114 C111 1.379 . S
H115 C118 0.980 . S
H116 C118 0.981 . S
H117 C118 0.981 . S
C118 C110 1.481 . S
C118 H115 0.980 . S
C118 H116 0.981 . S
C118 H117 0.981 . S
C119 C106 1.481 . S
C119 H120 0.980 . S
C119 H121 0.981 . S
C119 H122 0.981 . S
H120 C119 0.980 . S
H121 C119 0.981 . S
H122 C119 0.981 . S
O123 Zn99 2.066 . S
O123 C102 1.256 . S
O124 Zn96 2.053 . S
O124 C102 1.244 . S
C125 O103 1.259 . S
C125 O104 1.254 . S
O126 Zn96 2.066 . S
O126 C98 1.256 . S
O127 C98 1.244 . S
O127 Zn99 2.053 . S
Zn128 O129 2.055 . S
Zn128 O136 2.046 . S
Zn128 N144 2.036 . S
Zn128 O156 2.053 . S
Zn128 O158 2.066 . S
O129 Zn128 2.055 . S
O129 C132 1.259 . S
C130 O158 1.256 . S
C130 O159 1.244 . S
Zn131 O133 2.046 . S
Zn131 O135 2.055 . S
Zn131 N137 2.036 . S
Zn131 O155 2.066 . S
Zn131 O159 2.053 . S
C132 O129 1.259 . S
C132 O133 1.254 . S
O133 Zn131 2.046 . S
O133 C132 1.254 . S
C134 O155 1.256 . S
C134 O156 1.244 . S
O135 Zn131 2.055 . S
O135 C157 1.259 . S
O136 Zn128 2.046 . S
O136 C157 1.254 . S
N137 Zn131 2.036 . S
N137 C138 1.298 . S
N137 N140 1.398 . S
C138 N137 1.298 . S
C138 N141 1.367 . S
C138 C151 1.481 . S
C139 N140 1.299 . S
C139 N141 1.379 . S
N140 N137 1.398 . S
N140 C139 1.299 . S
N141 C138 1.367 . S
N141 C139 1.379 . S
C142 N144 1.298 . S
C142 N146 1.367 . S
C142 C150 1.481 . S
C143 N145 1.299 . S
C143 N146 1.379 . S
N144 Zn128 2.036 . S
N144 C142 1.298 . S
N144 N145 1.398 . S
N145 C143 1.299 . S
N145 N144 1.398 . S
N146 C142 1.367 . S
N146 C143 1.379 . S
H147 C150 0.980 . S
H148 C150 0.981 . S
H149 C150 0.981 . S
C150 C142 1.481 . S
C150 H147 0.980 . S
C150 H148 0.981 . S
C150 H149 0.981 . S
C151 C138 1.481 . S
C151 H152 0.980 . S
C151 H153 0.981 . S
C151 H154 0.981 . S
H152 C151 0.980 . S
H153 C151 0.981 . S
H154 C151 0.981 . S
O155 Zn131 2.066 . S
O155 C134 1.256 . S
O156 Zn128 2.053 . S
O156 C134 1.244 . S
C157 O135 1.259 . S
C157 O136 1.254 . S
O158 Zn128 2.066 . S
O158 C130 1.256 . S
O159 C130 1.244 . S
O159 Zn131 2.053 . S
Zn160 O161 2.055 . S
Zn160 O168 2.046 . S
Zn160 N176 2.036 . S
Zn160 O188 2.053 . S
Zn160 O190 2.066 . S
O161 Zn160 2.055 . S
O161 C164 1.259 . S
C162 O190 1.256 . S
C162 O191 1.244 . S
Zn163 O165 2.046 . S
Zn163 O167 2.055 . S
Zn163 N169 2.036 . S
Zn163 O187 2.066 . S
Zn163 O191 2.053 . S
C164 O161 1.259 . S
C164 O165 1.254 . S
O165 Zn163 2.046 . S
O165 C164 1.254 . S
C166 O187 1.256 . S
C166 O188 1.244 . S
O167 Zn163 2.055 . S
O167 C189 1.259 . S
O168 Zn160 2.046 . S
O168 C189 1.254 . S
N169 Zn163 2.036 . S
N169 C170 1.298 . S
N169 N172 1.398 . S
C170 N169 1.298 . S
C170 N173 1.367 . S
C170 C183 1.481 . S
C171 N172 1.299 . S
C171 N173 1.379 . S
N172 N169 1.398 . S
N172 C171 1.299 . S
N173 C170 1.367 . S
N173 C171 1.379 . S
C174 N176 1.298 . S
C174 N178 1.367 . S
C174 C182 1.481 . S
C175 N177 1.299 . S
C175 N178 1.379 . S
N176 Zn160 2.036 . S
N176 C174 1.298 . S
N176 N177 1.398 . S
N177 C175 1.299 . S
N177 N176 1.398 . S
N178 C174 1.367 . S
N178 C175 1.379 . S
H179 C182 0.980 . S
H180 C182 0.981 . S
H181 C182 0.981 . S
C182 C174 1.481 . S
C182 H179 0.980 . S
C182 H180 0.981 . S
C182 H181 0.981 . S
C183 C170 1.481 . S
C183 H184 0.980 . S
C183 H185 0.981 . S
C183 H186 0.981 . S
H184 C183 0.980 . S
H185 C183 0.981 . S
H186 C183 0.981 . S
O187 Zn163 2.066 . S
O187 C166 1.256 . S
O188 Zn160 2.053 . S
O188 C166 1.244 . S
C189 O167 1.259 . S
C189 O168 1.254 . S
O190 Zn160 2.066 . S
O190 C162 1.256 . S
O191 C162 1.244 . S
O191 Zn163 2.053 . S
Zn192 O193 2.055 . S
Zn192 O200 2.046 . S
Zn192 N208 2.036 . S
Zn192 O220 2.053 . S
Zn192 O222 2.066 . S
O193 Zn192 2.055 . S
O193 C196 1.259 . S
C194 O222 1.256 . S
C194 O223 1.244 . S
Zn195 O197 2.046 . S
Zn195 O199 2.055 . S
Zn195 N201 2.036 . S
Zn195 O219 2.066 . S
Zn195 O223 2.053 . S
C196 O193 1.259 . S
C196 O197 1.254 . S
O197 Zn195 2.046 . S
O197 C196 1.254 . S
C198 O219 1.256 . S
C198 O220 1.244 . S
O199 Zn195 2.055 . S
O199 C221 1.259 . S
O200 Zn192 2.046 . S
O200 C221 1.254 . S
N201 Zn195 2.036 . S
N201 C202 1.298 . S
N201 N204 1.398 . S
C202 N201 1.298 . S
C202 N205 1.367 . S
C202 C215 1.481 . S
C203 N204 1.299 . S
C203 N205 1.379 . S
N204 N201 1.398 . S
N204 C203 1.299 . S
N205 C202 1.367 . S
N205 C203 1.379 . S
C206 N208 1.298 . S
C206 N210 1.367 . S
C206 C214 1.481 . S
C207 N209 1.299 . S
C207 N210 1.379 . S
N208 Zn192 2.036 . S
N208 C206 1.298 . S
N208 N209 1.398 . S
N209 C207 1.299 . S
N209 N208 1.398 . S
N210 C206 1.367 . S
N210 C207 1.379 . S
H211 C214 0.980 . S
H212 C214 0.981 . S
H213 C214 0.981 . S
C214 C206 1.481 . S
C214 H211 0.980 . S
C214 H212 0.981 . S
C214 H213 0.981 . S
C215 C202 1.481 . S
C215 H216 0.980 . S
C215 H217 0.981 . S
C215 H218 0.981 . S
H216 C215 0.980 . S
H217 C215 0.981 . S
H218 C215 0.981 . S
O219 Zn195 2.066 . S
O219 C198 1.256 . S
O220 Zn192 2.053 . S
O220 C198 1.244 . S
C221 O199 1.259 . S
C221 O200 1.254 . S
O222 Zn192 2.066 . S
O222 C194 1.256 . S
O223 C194 1.244 . S
O223 Zn195 2.053 . S
Zn224 O225 2.055 . S
Zn224 O232 2.046 . S
Zn224 N240 2.036 . S
Zn224 O252 2.053 . S
Zn224 O254 2.066 . S
O225 Zn224 2.055 . S
O225 C228 1.259 . S
C226 O254 1.256 . S
C226 O255 1.244 . S
Zn227 O229 2.046 . S
Zn227 O231 2.055 . S
Zn227 N233 2.036 . S
Zn227 O251 2.066 . S
Zn227 O255 2.053 . S
C228 O225 1.259 . S
C228 O229 1.254 . S
O229 Zn227 2.046 . S
O229 C228 1.254 . S
C230 O251 1.256 . S
C230 O252 1.244 . S
O231 Zn227 2.055 . S
O231 C253 1.259 . S
O232 Zn224 2.046 . S
O232 C253 1.254 . S
N233 Zn227 2.036 . S
N233 C234 1.298 . S
N233 N236 1.398 . S
C234 N233 1.298 . S
C234 N237 1.367 . S
C234 C247 1.481 . S
C235 N236 1.299 . S
C235 N237 1.379 . S
N236 N233 1.398 . S
N236 C235 1.299 . S
N237 C234 1.367 . S
N237 C235 1.379 . S
C238 N240 1.298 . S
C238 N242 1.367 . S
C238 C246 1.481 . S
C239 N241 1.299 . S
C239 N242 1.379 . S
N240 Zn224 2.036 . S
N240 C238 1.298 . S
N240 N241 1.398 . S
N241 C239 1.299 . S
N241 N240 1.398 . S
N242 C238 1.367 . S
N242 C239 1.379 . S
H243 C246 0.980 . S
H244 C246 0.981 . S
H245 C246 0.981 . S
C246 C238 1.481 . S
C246 H243 0.980 . S
C246 H244 0.981 . S
C246 H245 0.981 . S
C247 C234 1.481 . S
C247 H248 0.980 . S
C247 H249 0.981 . S
C247 H250 0.981 . S
H248 C247 0.980 . S
H249 C247 0.981 . S
H250 C247 0.981 . S
O251 Zn227 2.066 . S
O251 C230 1.256 . S
O252 Zn224 2.053 . S
O252 C230 1.244 . S
C253 O231 1.259 . S
C253 O232 1.254 . S
O254 Zn224 2.066 . S
O254 C226 1.256 . S
O255 C226 1.244 . S
O255 Zn227 2.053 . S
Zn256 O257 2.055 . S
Zn256 O264 2.046 . S
Zn256 N272 2.036 . S
Zn256 O284 2.053 . S
Zn256 O286 2.066 . S
O257 Zn256 2.055 . S
O257 C260 1.259 . S
C258 O286 1.256 . S
C258 O287 1.244 . S
Zn259 O261 2.046 . S
Zn259 O263 2.055 . S
Zn259 N265 2.036 . S
Zn259 O283 2.066 . S
Zn259 O287 2.053 . S
C260 O257 1.259 . S
C260 O261 1.254 . S
O261 Zn259 2.046 . S
O261 C260 1.254 . S
C262 O283 1.256 . S
C262 O284 1.244 . S
O263 Zn259 2.055 . S
O263 C285 1.259 . S
O264 Zn256 2.046 . S
O264 C285 1.254 . S
N265 Zn259 2.036 . S
N265 C266 1.298 . S
N265 N268 1.398 . S
C266 N265 1.298 . S
C266 N269 1.367 . S
C266 C279 1.481 . S
C267 N268 1.299 . S
C267 N269 1.379 . S
N268 N265 1.398 . S
N268 C267 1.299 . S
N269 C266 1.367 . S
N269 C267 1.379 . S
C270 N272 1.298 . S
C270 N274 1.367 . S
C270 C278 1.481 . S
C271 N273 1.299 . S
C271 N274 1.379 . S
N272 Zn256 2.036 . S
N272 C270 1.298 . S
N272 N273 1.398 . S
N273 C271 1.299 . S
N273 N272 1.398 . S
N274 C270 1.367 . S
N274 C271 1.379 . S
H275 C278 0.980 . S
H276 C278 0.981 . S
H277 C278 0.981 . S
C278 C270 1.481 . S
C278 H275 0.980 . S
C278 H276 0.981 . S
C278 H277 0.981 . S
C279 C266 1.481 . S
C279 H280 0.980 . S
C279 H281 0.981 . S
C279 H282 0.981 . S
H280 C279 0.980 . S
H281 C279 0.981 . S
H282 C279 0.981 . S
O283 Zn259 2.066 . S
O283 C262 1.256 . S
O284 Zn256 2.053 . S
O284 C262 1.244 . S
C285 O263 1.259 . S
C285 O264 1.254 . S
O286 Zn256 2.066 . S
O286 C258 1.256 . S
O287 C258 1.244 . S
O287 Zn259 2.053 . S
Zn288 O289 2.055 . S
Zn288 O296 2.046 . S
Zn288 N304 2.036 . S
Zn288 O316 2.053 . S
Zn288 O318 2.066 . S
O289 Zn288 2.055 . S
O289 C292 1.259 . S
C290 O318 1.256 . S
C290 O319 1.244 . S
Zn291 O293 2.046 . S
Zn291 O295 2.055 . S
Zn291 N297 2.036 . S
Zn291 O315 2.066 . S
Zn291 O319 2.053 . S
C292 O289 1.259 . S
C292 O293 1.254 . S
O293 Zn291 2.046 . S
O293 C292 1.254 . S
C294 O315 1.256 . S
C294 O316 1.244 . S
O295 Zn291 2.055 . S
O295 C317 1.259 . S
O296 Zn288 2.046 . S
O296 C317 1.254 . S
N297 Zn291 2.036 . S
N297 C298 1.298 . S
N297 N300 1.398 . S
C298 N297 1.298 . S
C298 N301 1.367 . S
C298 C311 1.481 . S
C299 N300 1.299 . S
C299 N301 1.379 . S
N300 N297 1.398 . S
N300 C299 1.299 . S
N301 C298 1.367 . S
N301 C299 1.379 . S
C302 N304 1.298 . S
C302 N306 1.367 . S
C302 C310 1.481 . S
C303 N305 1.299 . S
C303 N306 1.379 . S
N304 Zn288 2.036 . S
N304 C302 1.298 . S
N304 N305 1.398 . S
N305 C303 1.299 . S
N305 N304 1.398 . S
N306 C302 1.367 . S
N306 C303 1.379 . S
H307 C310 0.980 . S
H308 C310 0.981 . S
H309 C310 0.981 . S
C310 C302 1.481 . S
C310 H307 0.980 . S
C310 H308 0.981 . S
C310 H309 0.981 . S
C311 C298 1.481 . S
C311 H312 0.980 . S
C311 H313 0.981 . S
C311 H314 0.981 . S
H312 C311 0.980 . S
H313 C311 0.981 . S
H314 C311 0.981 . S
O315 Zn291 2.066 . S
O315 C294 1.256 . S
O316 Zn288 2.053 . S
O316 C294 1.244 . S
C317 O295 1.259 . S
C317 O296 1.254 . S
O318 Zn288 2.066 . S
O318 C290 1.256 . S
O319 C290 1.244 . S
O319 Zn291 2.053 . S
Zn320 O321 2.055 . S
Zn320 O328 2.046 . S
Zn320 N336 2.036 . S
Zn320 O348 2.053 . S
Zn320 O350 2.066 . S
O321 Zn320 2.055 . S
O321 C324 1.259 . S
C322 O350 1.256 . S
C322 O351 1.244 . S
Zn323 O325 2.046 . S
Zn323 O327 2.055 . S
Zn323 N329 2.036 . S
Zn323 O347 2.066 . S
Zn323 O351 2.053 . S
C324 O321 1.259 . S
C324 O325 1.254 . S
O325 Zn323 2.046 . S
O325 C324 1.254 . S
C326 O347 1.256 . S
C326 O348 1.244 . S
O327 Zn323 2.055 . S
O327 C349 1.259 . S
O328 Zn320 2.046 . S
O328 C349 1.254 . S
N329 Zn323 2.036 . S
N329 C330 1.298 . S
N329 N332 1.398 . S
C330 N329 1.298 . S
C330 N333 1.367 . S
C330 C343 1.481 . S
C331 N332 1.299 . S
C331 N333 1.379 . S
N332 N329 1.398 . S
N332 C331 1.299 . S
N333 C330 1.367 . S
N333 C331 1.379 . S
C334 N336 1.298 . S
C334 N338 1.367 . S
C334 C342 1.481 . S
C335 N337 1.299 . S
C335 N338 1.379 . S
N336 Zn320 2.036 . S
N336 C334 1.298 . S
N336 N337 1.398 . S
N337 C335 1.299 . S
N337 N336 1.398 . S
N338 C334 1.367 . S
N338 C335 1.379 . S
H339 C342 0.980 . S
H340 C342 0.981 . S
H341 C342 0.981 . S
C342 C334 1.481 . S
C342 H339 0.980 . S
C342 H340 0.981 . S
C342 H341 0.981 . S
C343 C330 1.481 . S
C343 H344 0.980 . S
C343 H345 0.981 . S
C343 H346 0.981 . S
H344 C343 0.980 . S
H345 C343 0.981 . S
H346 C343 0.981 . S
O347 Zn323 2.066 . S
O347 C326 1.256 . S
O348 Zn320 2.053 . S
O348 C326 1.244 . S
C349 O327 1.259 . S
C349 O328 1.254 . S
O350 Zn320 2.066 . S
O350 C322 1.256 . S
O351 C322 1.244 . S
O351 Zn323 2.053 . S
Zn352 O353 2.055 . S
Zn352 O360 2.046 . S
Zn352 N368 2.036 . S
Zn352 O380 2.053 . S
Zn352 O382 2.066 . S
O353 Zn352 2.055 . S
O353 C356 1.259 . S
C354 O382 1.256 . S
C354 O383 1.244 . S
Zn355 O357 2.046 . S
Zn355 O359 2.055 . S
Zn355 N361 2.036 . S
Zn355 O379 2.066 . S
Zn355 O383 2.053 . S
C356 O353 1.259 . S
C356 O357 1.254 . S
O357 Zn355 2.046 . S
O357 C356 1.254 . S
C358 O379 1.256 . S
C358 O380 1.244 . S
O359 Zn355 2.055 . S
O359 C381 1.259 . S
O360 Zn352 2.046 . S
O360 C381 1.254 . S
N361 Zn355 2.036 . S
N361 C362 1.298 . S
N361 N364 1.398 . S
C362 N361 1.298 . S
C362 N365 1.367 . S
C362 C375 1.481 . S
C363 N364 1.299 . S
C363 N365 1.379 . S
N364 N361 1.398 . S
N364 C363 1.299 . S
N365 C362 1.367 . S
N365 C363 1.379 . S
C366 N368 1.298 . S
C366 N370 1.367 . S
C366 C374 1.481 . S
C367 N369 1.299 . S
C367 N370 1.379 . S
N368 Zn352 2.036 . S
N368 C366 1.298 . S
N368 N369 1.398 . S
N369 C367 1.299 . S
N369 N368 1.398 . S
N370 C366 1.367 . S
N370 C367 1.379 . S
H371 C374 0.980 . S
H372 C374 0.981 . S
H373 C374 0.981 . S
C374 C366 1.481 . S
C374 H371 0.980 . S
C374 H372 0.981 . S
C374 H373 0.981 . S
C375 C362 1.481 . S
C375 H376 0.980 . S
C375 H377 0.981 . S
C375 H378 0.981 . S
H376 C375 0.980 . S
H377 C375 0.981 . S
H378 C375 0.981 . S
O379 Zn355 2.066 . S
O379 C358 1.256 . S
O380 Zn352 2.053 . S
O380 C358 1.244 . S
C381 O359 1.259 . S
C381 O360 1.254 . S
O382 Zn352 2.066 . S
O382 C354 1.256 . S
O383 C354 1.244 . S
O383 Zn355 2.053 . S
C384 C385 1.387 . S
C384 H388 0.950 . S
C384 C393 1.390 . S
C385 C384 1.387 . S
C385 C387 1.387 . S
H386 C393 0.950 . S
C387 C385 1.387 . S
C387 C389 1.390 . S
C387 H391 0.950 . S
H388 C384 0.950 . S
C389 C387 1.390 . S
C389 C390 1.387 . S
C389 H392 0.950 . S
C390 C389 1.387 . S
C390 C393 1.387 . S
H391 C387 0.950 . S
H392 C389 0.950 . S
C393 C384 1.390 . S
C393 H386 0.950 . S
C393 C390 1.387 . S
C394 C395 1.387 . S
C394 H398 0.950 . S
C394 C403 1.390 . S
C395 C394 1.387 . S
C395 C397 1.387 . S
H396 C403 0.950 . S
C397 C395 1.387 . S
C397 C399 1.390 . S
C397 H401 0.950 . S
H398 C394 0.950 . S
C399 C397 1.390 . S
C399 C400 1.387 . S
C399 H402 0.950 . S
C400 C399 1.387 . S
C400 C403 1.387 . S
H401 C397 0.950 . S
H402 C399 0.950 . S
C403 C394 1.390 . S
C403 H396 0.950 . S
C403 C400 1.387 . S
C404 C405 1.387 . S
C404 H408 0.950 . S
C404 C413 1.390 . S
C405 C404 1.387 . S
C405 C407 1.387 . S
H406 C413 0.950 . S
C407 C405 1.387 . S
C407 C409 1.390 . S
C407 H411 0.950 . S
H408 C404 0.950 . S
C409 C407 1.390 . S
C409 C410 1.387 . S
C409 H412 0.950 . S
C410 C409 1.387 . S
C410 C413 1.387 . S
H411 C407 0.950 . S
H412 C409 0.950 . S
C413 C404 1.390 . S
C413 H406 0.950 . S
C413 C410 1.387 . S
C414 C415 1.387 . S
C414 H418 0.950 . S
C414 C423 1.390 . S
C415 C414 1.387 . S
C415 C417 1.387 . S
H416 C423 0.950 . S
C417 C415 1.387 . S
C417 C419 1.390 . S
C417 H421 0.950 . S
H418 C414 0.950 . S
C419 C417 1.390 . S
C419 C420 1.387 . S
C419 H422 0.950 . S
C420 C419 1.387 . S
C420 C423 1.387 . S
H421 C417 0.950 . S
H422 C419 0.950 . S
C423 C414 1.390 . S
C423 H416 0.950 . S
C423 C420 1.387 . S
C424 C425 1.387 . S
C424 H428 0.950 . S
C424 C433 1.390 . S
C425 C424 1.387 . S
C425 C427 1.387 . S
H426 C433 0.950 . S
C427 C425 1.387 . S
C427 C429 1.390 . S
C427 H431 0.950 . S
H428 C424 0.950 . S
C429 C427 1.390 . S
C429 C430 1.387 . S
C429 H432 0.950 . S
C430 C429 1.387 . S
C430 C433 1.387 . S
H431 C427 0.950 . S
H432 C429 0.950 . S
C433 C424 1.390 . S
C433 H426 0.950 . S
C433 C430 1.387 . S
C434 C435 1.387 . S
C434 H438 0.950 . S
C434 C443 1.390 . S
C435 C434 1.387 . S
C435 C437 1.387 . S
H436 C443 0.950 . S
C437 C435 1.387 . S
C437 C439 1.390 . S
C437 H441 0.950 . S
H438 C434 0.950 . S
C439 C437 1.390 . S
C439 C440 1.387 . S
C439 H442 0.950 . S
C440 C439 1.387 . S
C440 C443 1.387 . S
H441 C437 0.950 . S
H442 C439 0.950 . S
C443 C434 1.390 . S
C443 H436 0.950 . S
C443 C440 1.387 . S
C444 C445 1.387 . S
C444 H448 0.950 . S
C444 C453 1.390 . S
C445 C444 1.387 . S
C445 C447 1.387 . S
H446 C453 0.950 . S
C447 C445 1.387 . S
C447 C449 1.390 . S
C447 H451 0.950 . S
H448 C444 0.950 . S
C449 C447 1.390 . S
C449 C450 1.387 . S
C449 H452 0.950 . S
C450 C449 1.387 . S
C450 C453 1.387 . S
H451 C447 0.950 . S
H452 C449 0.950 . S
C453 C444 1.390 . S
C453 H446 0.950 . S
C453 C450 1.387 . S
C454 C455 1.387 . S
C454 H458 0.950 . S
C454 C463 1.390 . S
C455 C454 1.387 . S
C455 C457 1.387 . S
H456 C463 0.950 . S
C457 C455 1.387 . S
C457 C459 1.390 . S
C457 H461 0.950 . S
H458 C454 0.950 . S
C459 C457 1.390 . S
C459 C460 1.387 . S
C459 H462 0.950 . S
C460 C459 1.387 . S
C460 C463 1.387 . S
H461 C457 0.950 . S
H462 C459 0.950 . S
C463 C454 1.390 . S
C463 H456 0.950 . S
C463 C460 1.387 . S
C464 C465 1.387 . S
C464 H468 0.950 . S
C464 C473 1.390 . S
C465 C464 1.387 . S
C465 C467 1.387 . S
H466 C473 0.950 . S
C467 C465 1.387 . S
C467 C469 1.390 . S
C467 H471 0.950 . S
H468 C464 0.950 . S
C469 C467 1.390 . S
C469 C470 1.387 . S
C469 H472 0.950 . S
C470 C469 1.387 . S
C470 C473 1.387 . S
H471 C467 0.950 . S
H472 C469 0.950 . S
C473 C464 1.390 . S
C473 H466 0.950 . S
C473 C470 1.387 . S
C474 C475 1.387 . S
C474 H478 0.950 . S
C474 C483 1.390 . S
C475 C474 1.387 . S
C475 C477 1.387 . S
H476 C483 0.950 . S
C477 C475 1.387 . S
C477 C479 1.390 . S
C477 H481 0.950 . S
H478 C474 0.950 . S
C479 C477 1.390 . S
C479 C480 1.387 . S
C479 H482 0.950 . S
C480 C479 1.387 . S
C480 C483 1.387 . S
H481 C477 0.950 . S
H482 C479 0.950 . S
C483 C474 1.390 . S
C483 H476 0.950 . S
C483 C480 1.387 . S
C484 C485 1.387 . S
C484 H488 0.950 . S
C484 C493 1.390 . S
C485 C484 1.387 . S
C485 C487 1.387 . S
H486 C493 0.950 . S
C487 C485 1.387 . S
C487 C489 1.390 . S
C487 H491 0.950 . S
H488 C484 0.950 . S
C489 C487 1.390 . S
C489 C490 1.387 . S
C489 H492 0.950 . S
C490 C489 1.387 . S
C490 C493 1.387 . S
H491 C487 0.950 . S
H492 C489 0.950 . S
C493 C484 1.390 . S
C493 H486 0.950 . S
C493 C490 1.387 . S
C494 C495 1.387 . S
C494 H498 0.950 . S
C494 C503 1.390 . S
C495 C494 1.387 . S
C495 C497 1.387 . S
H496 C503 0.950 . S
C497 C495 1.387 . S
C497 C499 1.390 . S
C497 H501 0.950 . S
H498 C494 0.950 . S
C499 C497 1.390 . S
C499 C500 1.387 . S
C499 H502 0.950 . S
C500 C499 1.387 . S
C500 C503 1.387 . S
H501 C497 0.950 . S
H502 C499 0.950 . S
C503 C494 1.390 . S
C503 H496 0.950 . S
C503 C500 1.387 . S
C504 C505 1.387 . S
C504 H508 0.950 . S
C504 C513 1.390 . S
C505 C504 1.387 . S
C505 C507 1.387 . S
H506 C513 0.950 . S
C507 C505 1.387 . S
C507 C509 1.390 . S
C507 H511 0.950 . S
H508 C504 0.950 . S
C509 C507 1.390 . S
C509 C510 1.387 . S
C509 H512 0.950 . S
C510 C509 1.387 . S
C510 C513 1.387 . S
H511 C507 0.950 . S
H512 C509 0.950 . S
C513 C504 1.390 . S
C513 H506 0.950 . S
C513 C510 1.387 . S
C514 C515 1.387 . S
C514 H518 0.950 . S
C514 C523 1.390 . S
C515 C514 1.387 . S
C515 C517 1.387 . S
H516 C523 0.950 . S
C517 C515 1.387 . S
C517 C519 1.390 . S
C517 H521 0.950 . S
H518 C514 0.950 . S
C519 C517 1.390 . S
C519 C520 1.387 . S
C519 H522 0.950 . S
C520 C519 1.387 . S
C520 C523 1.387 . S
H521 C517 0.950 . S
H522 C519 0.950 . S
C523 C514 1.390 . S
C523 H516 0.950 . S
C523 C520 1.387 . S
C524 C525 1.387 . S
C524 H528 0.950 . S
C524 C533 1.390 . S
C525 C524 1.387 . S
C525 C527 1.387 . S
H526 C533 0.950 . S
C527 C525 1.387 . S
C527 C529 1.390 . S
C527 H531 0.950 . S
H528 C524 0.950 . S
C529 C527 1.390 . S
C529 C530 1.387 . S
C529 H532 0.950 . S
C530 C529 1.387 . S
C530 C533 1.387 . S
H531 C527 0.950 . S
H532 C529 0.950 . S
C533 C524 1.390 . S
C533 H526 0.950 . S
C533 C530 1.387 . S
C534 C535 1.387 . S
C534 H538 0.950 . S
C534 C543 1.390 . S
C535 C534 1.387 . S
C535 C537 1.387 . S
H536 C543 0.950 . S
C537 C535 1.387 . S
C537 C539 1.390 . S
C537 H541 0.950 . S
H538 C534 0.950 . S
C539 C537 1.390 . S
C539 C540 1.387 . S
C539 H542 0.950 . S
C540 C539 1.387 . S
C540 C543 1.387 . S
H541 C537 0.950 . S
H542 C539 0.950 . S
C543 C534 1.390 . S
C543 H536 0.950 . S
C543 C540 1.387 . S
C544 C545 1.387 . S
C544 H548 0.950 . S
C544 C553 1.390 . S
C545 C544 1.387 . S
C545 C547 1.387 . S
H546 C553 0.950 . S
C547 C545 1.387 . S
C547 C549 1.390 . S
C547 H551 0.950 . S
H548 C544 0.950 . S
C549 C547 1.390 . S
C549 C550 1.387 . S
C549 H552 0.950 . S
C550 C549 1.387 . S
C550 C553 1.387 . S
H551 C547 0.950 . S
H552 C549 0.950 . S
C553 C544 1.390 . S
C553 H546 0.950 . S
C553 C550 1.387 . S
C554 C555 1.387 . S
C554 H558 0.950 . S
C554 C563 1.390 . S
C555 C554 1.387 . S
C555 C557 1.387 . S
H556 C563 0.950 . S
C557 C555 1.387 . S
C557 C559 1.390 . S
C557 H561 0.950 . S
H558 C554 0.950 . S
C559 C557 1.390 . S
C559 C560 1.387 . S
C559 H562 0.950 . S
C560 C559 1.387 . S
C560 C563 1.387 . S
H561 C557 0.950 . S
H562 C559 0.950 . S
C563 C554 1.390 . S
C563 H556 0.950 . S
C563 C560 1.387 . S
C564 C565 1.387 . S
C564 H568 0.950 . S
C564 C573 1.390 1_566 S
C565 C564 1.387 . S
C565 C567 1.387 . S
H566 C573 0.950 . S
C567 C565 1.387 . S
C567 C569 1.390 1_566 S
C567 H571 0.950 . S
H568 C564 0.950 . S
C569 C567 1.390 1_544 S
C569 C570 1.387 . S
C569 H572 0.950 . S
C570 C569 1.387 . S
C570 C573 1.387 . S
H571 C567 0.950 . S
H572 C569 0.950 . S
C573 C564 1.390 1_544 S
C573 H566 0.950 . S
C573 C570 1.387 . S
C574 C575 1.387 . S
C574 H578 0.950 . S
C574 C583 1.390 . S
C575 C574 1.387 . S
C575 C577 1.387 . S
H576 C583 0.950 . S
C577 C575 1.387 . S
C577 C579 1.390 . S
C577 H581 0.950 . S
H578 C574 0.950 . S
C579 C577 1.390 . S
C579 C580 1.387 . S
C579 H582 0.950 . S
C580 C579 1.387 . S
C580 C583 1.387 . S
H581 C577 0.950 . S
H582 C579 0.950 . S
C583 C574 1.390 . S
C583 H576 0.950 . S
C583 C580 1.387 . S
C584 C585 1.387 . S
C584 H588 0.950 . S
C584 C593 1.390 1_456 S
C585 C584 1.387 . S
C585 C587 1.387 . S
H586 C593 0.950 . S
C587 C585 1.387 . S
C587 C589 1.390 1_456 S
C587 H591 0.950 . S
H588 C584 0.950 . S
C589 C587 1.390 1_654 S
C589 C590 1.387 . S
C589 H592 0.950 . S
C590 C589 1.387 . S
C590 C593 1.387 . S
H591 C587 0.950 . S
H592 C589 0.950 . S
C593 C584 1.390 1_654 S
C593 H586 0.950 . S
C593 C590 1.387 . S
C594 C595 1.387 . S
C594 H598 0.950 . S
C594 C603 1.390 1_545 S
C595 C594 1.387 . S
C595 C597 1.387 . S
H596 C603 0.950 . S
C597 C595 1.387 . S
C597 C599 1.390 1_545 S
C597 H601 0.950 . S
H598 C594 0.950 . S
C599 C597 1.390 1_565 S
C599 C600 1.387 . S
C599 H602 0.950 . S
C600 C599 1.387 . S
C600 C603 1.387 . S
H601 C597 0.950 . S
H602 C599 0.950 . S
C603 C594 1.390 1_565 S
C603 H596 0.950 . S
C603 C600 1.387 . S
C604 C605 1.387 . S
C604 H608 0.950 . S
C604 C613 1.390 1_554 S
C605 C604 1.387 . S
C605 C607 1.387 . S
H606 C613 0.950 . S
C607 C605 1.387 . S
C607 C609 1.390 1_554 S
C607 H611 0.950 . S
H608 C604 0.950 . S
C609 C607 1.390 1_556 S
C609 C610 1.387 . S
C609 H612 0.950 . S
C610 C609 1.387 . S
C610 C613 1.387 . S
H611 C607 0.950 . S
H612 C609 0.950 . S
C613 C604 1.390 1_556 S
C613 H606 0.950 . S
C613 C610 1.387 . S
C614 C615 1.387 1_655 S
C614 H618 0.950 . S
C614 C623 1.390 . S
C615 C614 1.387 1_455 S
C615 C617 1.387 . S
H616 C623 0.950 . S
C617 C615 1.387 . S
C617 C619 1.390 . S
C617 H621 0.950 . S
H618 C614 0.950 . S
C619 C617 1.390 . S
C619 C620 1.387 1_455 S
C619 H622 0.950 . S
C620 C619 1.387 1_655 S
C620 C623 1.387 . S
H621 C617 0.950 . S
H622 C619 0.950 . S
C623 C614 1.390 . S
C623 H616 0.950 . S
C623 C620 1.387 . S
C624 C625 1.387 . S
C624 H628 0.950 . S
C624 C633 1.390 . S
C625 C624 1.387 . S
C625 C627 1.387 . S
H626 C633 0.950 . S
C627 C625 1.387 . S
C627 C629 1.390 . S
C627 H631 0.950 . S
H628 C624 0.950 . S
C629 C627 1.390 . S
C629 C630 1.387 . S
C629 H632 0.950 . S
C630 C629 1.387 . S
C630 C633 1.387 . S
H631 C627 0.950 . S
H632 C629 0.950 . S
C633 C624 1.390 . S
C633 H626 0.950 . S
C633 C630 1.387 . S
C634 C635 1.387 . S
C634 H638 0.950 . S
C634 C643 1.390 . S
C635 C634 1.387 . S
C635 C637 1.387 . S
H636 C643 0.950 . S
C637 C635 1.387 . S
C637 C639 1.390 . S
C637 H641 0.950 . S
H638 C634 0.950 . S
C639 C637 1.390 . S
C639 C640 1.387 . S
C639 H642 0.950 . S
C640 C639 1.387 . S
C640 C643 1.387 . S
H641 C637 0.950 . S
H642 C639 0.950 . S
C643 C634 1.390 . S
C643 H636 0.950 . S
C643 C640 1.387 . S
C644 C645 1.387 . S
C644 H648 0.950 . S
C644 C653 1.390 . S
C645 C644 1.387 . S
C645 C647 1.387 . S
H646 C653 0.950 . S
C647 C645 1.387 . S
C647 C649 1.390 . S
C647 H651 0.950 . S
H648 C644 0.950 . S
C649 C647 1.390 . S
C649 C650 1.387 . S
C649 H652 0.950 . S
C650 C649 1.387 . S
C650 C653 1.387 . S
H651 C647 0.950 . S
H652 C649 0.950 . S
C653 C644 1.390 . S
C653 H646 0.950 . S
C653 C650 1.387 . S
C654 C655 1.387 . S
C654 H658 0.950 . S
C654 C663 1.390 . S
C655 C654 1.387 . S
C655 C657 1.387 . S
H656 C663 0.950 . S
C657 C655 1.387 . S
C657 C659 1.390 . S
C657 H661 0.950 . S
H658 C654 0.950 . S
C659 C657 1.390 . S
C659 C660 1.387 . S
C659 H662 0.950 . S
C660 C659 1.387 . S
C660 C663 1.387 . S
H661 C657 0.950 . S
H662 C659 0.950 . S
C663 C654 1.390 . S
C663 H656 0.950 . S
C663 C660 1.387 . S
C664 C665 1.387 . S
C664 H668 0.950 . S
C664 C673 1.390 . S
C665 C664 1.387 . S
C665 C667 1.387 . S
H666 C673 0.950 . S
C667 C665 1.387 . S
C667 C669 1.390 . S
C667 H671 0.950 . S
H668 C664 0.950 . S
C669 C667 1.390 . S
C669 C670 1.387 . S
C669 H672 0.950 . S
C670 C669 1.387 . S
C670 C673 1.387 . S
H671 C667 0.950 . S
H672 C669 0.950 . S
C673 C664 1.390 . S
C673 H666 0.950 . S
C673 C670 1.387 . S
C674 C675 1.387 . S
C674 H678 0.950 . S
C674 C683 1.390 . S
C675 C674 1.387 . S
C675 C677 1.387 . S
H676 C683 0.950 . S
C677 C675 1.387 . S
C677 C679 1.390 . S
C677 H681 0.950 . S
H678 C674 0.950 . S
C679 C677 1.390 . S
C679 C680 1.387 . S
C679 H682 0.950 . S
C680 C679 1.387 . S
C680 C683 1.387 . S
H681 C677 0.950 . S
H682 C679 0.950 . S
C683 C674 1.390 . S
C683 H676 0.950 . S
C683 C680 1.387 . S
C684 C685 1.387 . S
C684 H688 0.950 . S
C684 C693 1.390 . S
C685 C684 1.387 . S
C685 C687 1.387 . S
H686 C693 0.950 . S
C687 C685 1.387 . S
C687 C689 1.390 . S
C687 H691 0.950 . S
H688 C684 0.950 . S
C689 C687 1.390 . S
C689 C690 1.387 . S
C689 H692 0.950 . S
C690 C689 1.387 . S
C690 C693 1.387 . S
H691 C687 0.950 . S
H692 C689 0.950 . S
C693 C684 1.390 . S
C693 H686 0.950 . S
C693 C690 1.387 . S
C694 C695 1.387 . S
C694 H698 0.950 . S
C694 C703 1.390 . S
C695 C694 1.387 . S
C695 C697 1.387 . S
H696 C703 0.950 . S
C697 C695 1.387 . S
C697 C699 1.390 . S
C697 H701 0.950 . S
H698 C694 0.950 . S
C699 C697 1.390 . S
C699 C700 1.387 . S
C699 H702 0.950 . S
C700 C699 1.387 . S
C700 C703 1.387 . S
H701 C697 0.950 . S
H702 C699 0.950 . S
C703 C694 1.390 . S
C703 H696 0.950 . S
C703 C700 1.387 . S
C704 C705 1.387 . S
C704 H708 0.950 . S
C704 C713 1.390 . S
C705 C704 1.387 . S
C705 C707 1.387 . S
H706 C713 0.950 . S
C707 C705 1.387 . S
C707 C709 1.390 . S
C707 H711 0.950 . S
H708 C704 0.950 . S
C709 C707 1.390 . S
C709 C710 1.387 . S
C709 H712 0.950 . S
C710 C709 1.387 . S
C710 C713 1.387 . S
H711 C707 0.950 . S
H712 C709 0.950 . S
C713 C704 1.390 . S
C713 H706 0.950 . S
C713 C710 1.387 . S
C714 C715 1.387 . S
C714 H718 0.950 . S
C714 C723 1.390 . S
C715 C714 1.387 . S
C715 C717 1.387 . S
H716 C723 0.950 . S
C717 C715 1.387 . S
C717 C719 1.390 . S
C717 H721 0.950 . S
H718 C714 0.950 . S
C719 C717 1.390 . S
C719 C720 1.387 . S
C719 H722 0.950 . S
C720 C719 1.387 . S
C720 C723 1.387 . S
H721 C717 0.950 . S
H722 C719 0.950 . S
C723 C714 1.390 . S
C723 H716 0.950 . S
C723 C720 1.387 . S
C724 C725 1.387 . S
C724 H728 0.950 . S
C724 C733 1.390 . S
C725 C724 1.387 . S
C725 C727 1.387 . S
H726 C733 0.950 . S
C727 C725 1.387 . S
C727 C729 1.390 . S
C727 H731 0.950 . S
H728 C724 0.950 . S
C729 C727 1.390 . S
C729 C730 1.387 . S
C729 H732 0.950 . S
C730 C729 1.387 . S
C730 C733 1.387 . S
H731 C727 0.950 . S
H732 C729 0.950 . S
C733 C724 1.390 . S
C733 H726 0.950 . S
C733 C730 1.387 . S
C734 C735 1.387 . S
C734 H738 0.950 . S
C734 C743 1.390 . S
C735 C734 1.387 . S
C735 C737 1.387 . S
H736 C743 0.950 . S
C737 C735 1.387 . S
C737 C739 1.390 . S
C737 H741 0.950 . S
H738 C734 0.950 . S
C739 C737 1.390 . S
C739 C740 1.387 . S
C739 H742 0.950 . S
C740 C739 1.387 . S
C740 C743 1.387 . S
H741 C737 0.950 . S
H742 C739 0.950 . S
C743 C734 1.390 . S
C743 H736 0.950 . S
C743 C740 1.387 . S
C385 C70 1.222 1_455 S
C390 C29 1.231 . S
C395 C98 1.220 1_565 S
C400 C36 1.230 1_455 S
C405 C93 1.231 1_565 S
C410 C130 1.222 . S
C415 C100 1.230 . S
C420 C162 1.219 1_455 S
C425 C6 1.220 1_565 S
C430 C132 1.230 1_455 S
C435 C34 1.222 . S
C440 C164 1.231 1_565 S
C445 C326 1.222 1_545 S
C450 C221 1.231 . S
C455 C228 1.231 1_655 S
C460 C358 1.222 . S
C465 C260 1.230 1_545 S
C470 C198 1.220 1_655 S
C475 C317 1.230 . S
C480 C226 1.220 1_545 S
C485 C349 1.230 1_655 S
C490 C258 1.219 . S
C495 C294 1.222 1_655 S
C500 C381 1.232 1_545 S
C505 N109 1.534 . S
C510 N18 1.531 . S
C515 N45 1.533 . S
C520 N141 1.532 . S
C525 N82 1.534 . S
C530 N173 1.531 . S
C535 N210 1.533 . S
C540 N306 1.533 . S
C545 N237 1.534 . S
C550 N338 1.531 . S
C555 N269 1.531 . S
C560 N370 1.534 . S
C565 N242 1.658 . S
C570 N13 1.658 . S
C575 N50 1.659 . S
C580 N274 1.659 . S
C585 N301 1.659 . S
C590 N77 1.659 . S
C595 N114 1.658 . S
C600 N333 1.658 . S
C605 N146 1.658 . S
C610 N365 1.659 . S
C615 N205 1.660 . S
C620 N178 1.658 . S
C625 C68 1.298 . S
C630 C2 1.285 . S
C635 C38 1.286 . S
C640 C125 1.298 . S
C645 C66 1.287 . S
C650 C157 1.299 . S
C655 C102 1.285 . S
C660 C189 1.298 . S
C665 C4 1.298 . S
C670 C134 1.284 . S
C675 C61 1.299 . S
C680 C166 1.287 . S
C685 C324 1.298 . S
C690 C194 1.285 . S
C695 C230 1.285 . S
C700 C356 1.298 . S
C705 C262 1.285 . S
C710 C196 1.298 . S
C715 C253 1.299 . S
C720 C290 1.287 . S
C725 C322 1.287 . S
C730 C285 1.299 . S
C735 C354 1.285 . S
C740 C292 1.298 . S
