# Generated by pormake.
# Topology pbg, (3)-cn, num edge types: 1
# Building blocks:
#     Node 0, Type 0, BuildingBlock: WUSLED_clean_sbu_0, # of connection points: 3
#     Node 1, Type 0, BuildingBlock: WUSLED_clean_sbu_0, # of connection points: 3
#     Node 2, Type 0, BuildingBlock: WUSLED_clean_sbu_0, # of connection points: 3
#     Node 3, Type 0, BuildingBlock: WUSLED_clean_sbu_0, # of connection points: 3
#     Node 4, Type 0, BuildingBlock: WUSLED_clean_sbu_0, # of connection points: 3
#     Node 5, Type 0, BuildingBlock: WUSLED_clean_sbu_0, # of connection points: 3
#     Node 6, Type 0, BuildingBlock: WUSLED_clean_sbu_0, # of connection points: 3
#     Node 7, Type 0, BuildingBlock: WUSLED_clean_sbu_0, # of connection points: 3
#     Node 8, Type 0, BuildingBlock: WUSLED_clean_sbu_0, # of connection points: 3
#     Node 9, Type 0, BuildingBlock: WUSLED_clean_sbu_0, # of connection points: 3
#     Node 10, Type 0, BuildingBlock: WUSLED_clean_sbu_0, # of connection points: 3
#     Node 11, Type 0, BuildingBlock: WUSLED_clean_sbu_0, # of connection points: 3
#     Node 12, Type 0, BuildingBlock: WUSLED_clean_sbu_0, # of connection points: 3
#     Node 13, Type 0, BuildingBlock: WUSLED_clean_sbu_0, # of connection points: 3
#     Node 14, Type 0, BuildingBlock: WUSLED_clean_sbu_0, # of connection points: 3
#     Node 15, Type 0, BuildingBlock: WUSLED_clean_sbu_0, # of connection points: 3
#     Node 16, Type 0, BuildingBlock: WUSLED_clean_sbu_0, # of connection points: 3
#     Node 17, Type 0, BuildingBlock: WUSLED_clean_sbu_0, # of connection points: 3
#     Node 18, Type 0, BuildingBlock: WUSLED_clean_sbu_0, # of connection points: 3
#     Node 19, Type 0, BuildingBlock: WUSLED_clean_sbu_0, # of connection points: 3
#     Node 20, Type 0, BuildingBlock: WUSLED_clean_sbu_0, # of connection points: 3
#     Node 21, Type 0, BuildingBlock: WUSLED_clean_sbu_0, # of connection points: 3
#     Node 22, Type 0, BuildingBlock: WUSLED_clean_sbu_0, # of connection points: 3
#     Node 23, Type 0, BuildingBlock: WUSLED_clean_sbu_0, # of connection points: 3
#     Node 24, Type 0, BuildingBlock: WUSLED_clean_sbu_0, # of connection points: 3
#     Node 25, Type 0, BuildingBlock: WUSLED_clean_sbu_0, # of connection points: 3
#     Node 26, Type 0, BuildingBlock: WUSLED_clean_sbu_0, # of connection points: 3
#     Node 27, Type 0, BuildingBlock: WUSLED_clean_sbu_0, # of connection points: 3
#     Node 28, Type 0, BuildingBlock: WUSLED_clean_sbu_0, # of connection points: 3
#     Node 29, Type 0, BuildingBlock: WUSLED_clean_sbu_0, # of connection points: 3
#     Node 30, Type 0, BuildingBlock: WUSLED_clean_sbu_0, # of connection points: 3
#     Node 31, Type 0, BuildingBlock: WUSLED_clean_sbu_0, # of connection points: 3
#     Node 32, Type 0, BuildingBlock: WUSLED_clean_sbu_0, # of connection points: 3
#     Node 33, Type 0, BuildingBlock: WUSLED_clean_sbu_0, # of connection points: 3
#     Node 34, Type 0, BuildingBlock: WUSLED_clean_sbu_0, # of connection points: 3
#     Node 35, Type 0, BuildingBlock: WUSLED_clean_sbu_0, # of connection points: 3
#     Node 36, Type 0, BuildingBlock: WUSLED_clean_sbu_0, # of connection points: 3
#     Node 37, Type 0, BuildingBlock: WUSLED_clean_sbu_0, # of connection points: 3
#     Node 38, Type 0, BuildingBlock: WUSLED_clean_sbu_0, # of connection points: 3
#     Node 39, Type 0, BuildingBlock: WUSLED_clean_sbu_0, # of connection points: 3
#     Node 40, Type 0, BuildingBlock: WUSLED_clean_sbu_0, # of connection points: 3
#     Node 41, Type 0, BuildingBlock: WUSLED_clean_sbu_0, # of connection points: 3
#     Node 42, Type 0, BuildingBlock: WUSLED_clean_sbu_0, # of connection points: 3
#     Node 43, Type 0, BuildingBlock: WUSLED_clean_sbu_0, # of connection points: 3
#     Node 44, Type 0, BuildingBlock: WUSLED_clean_sbu_0, # of connection points: 3
#     Node 45, Type 0, BuildingBlock: WUSLED_clean_sbu_0, # of connection points: 3
#     Node 46, Type 0, BuildingBlock: WUSLED_clean_sbu_0, # of connection points: 3
#     Node 47, Type 0, BuildingBlock: WUSLED_clean_sbu_0, # of connection points: 3
#     Node 48, Type 0, BuildingBlock: WUSLED_clean_sbu_0, # of connection points: 3
#     Node 49, Type 0, BuildingBlock: WUSLED_clean_sbu_0, # of connection points: 3
#     Node 50, Type 0, BuildingBlock: WUSLED_clean_sbu_0, # of connection points: 3
#     Node 51, Type 0, BuildingBlock: WUSLED_clean_sbu_0, # of connection points: 3
#     Node 52, Type 0, BuildingBlock: WUSLED_clean_sbu_0, # of connection points: 3
#     Node 53, Type 0, BuildingBlock: WUSLED_clean_sbu_0, # of connection points: 3
#     Node 54, Type 0, BuildingBlock: WUSLED_clean_sbu_0, # of connection points: 3
#     Node 55, Type 0, BuildingBlock: WUSLED_clean_sbu_0, # of connection points: 3
#     Node 56, Type 0, BuildingBlock: WUSLED_clean_sbu_0, # of connection points: 3
#     Node 57, Type 0, BuildingBlock: WUSLED_clean_sbu_0, # of connection points: 3
#     Node 58, Type 0, BuildingBlock: WUSLED_clean_sbu_0, # of connection points: 3
#     Node 59, Type 0, BuildingBlock: WUSLED_clean_sbu_0, # of connection points: 3
#     Node 60, Type 0, BuildingBlock: WUSLED_clean_sbu_0, # of connection points: 3
#     Node 61, Type 0, BuildingBlock: WUSLED_clean_sbu_0, # of connection points: 3
#     Node 62, Type 0, BuildingBlock: WUSLED_clean_sbu_0, # of connection points: 3
#     Node 63, Type 0, BuildingBlock: WUSLED_clean_sbu_0, # of connection points: 3
#     Node 64, Type 0, BuildingBlock: WUSLED_clean_sbu_0, # of connection points: 3
#     Node 65, Type 0, BuildingBlock: WUSLED_clean_sbu_0, # of connection points: 3
#     Node 66, Type 0, BuildingBlock: WUSLED_clean_sbu_0, # of connection points: 3
#     Node 67, Type 0, BuildingBlock: WUSLED_clean_sbu_0, # of connection points: 3
#     Node 68, Type 0, BuildingBlock: WUSLED_clean_sbu_0, # of connection points: 3
#     Node 69, Type 0, BuildingBlock: WUSLED_clean_sbu_0, # of connection points: 3
#     Node 70, Type 0, BuildingBlock: WUSLED_clean_sbu_0, # of connection points: 3
#     Node 71, Type 0, BuildingBlock: WUSLED_clean_sbu_0, # of connection points: 3
#     Node 72, Type 0, BuildingBlock: WUSLED_clean_sbu_0, # of connection points: 3
#     Node 73, Type 0, BuildingBlock: WUSLED_clean_sbu_0, # of connection points: 3
#     Node 74, Type 0, BuildingBlock: WUSLED_clean_sbu_0, # of connection points: 3
#     Node 75, Type 0, BuildingBlock: WUSLED_clean_sbu_0, # of connection points: 3
#     Node 76, Type 0, BuildingBlock: WUSLED_clean_sbu_0, # of connection points: 3
#     Node 77, Type 0, BuildingBlock: WUSLED_clean_sbu_0, # of connection points: 3
#     Node 78, Type 0, BuildingBlock: WUSLED_clean_sbu_0, # of connection points: 3
#     Node 79, Type 0, BuildingBlock: WUSLED_clean_sbu_0, # of connection points: 3
#     Node 80, Type 0, BuildingBlock: WUSLED_clean_sbu_0, # of connection points: 3
#     Node 81, Type 0, BuildingBlock: WUSLED_clean_sbu_0, # of connection points: 3
#     Node 82, Type 0, BuildingBlock: WUSLED_clean_sbu_0, # of connection points: 3
#     Node 83, Type 0, BuildingBlock: WUSLED_clean_sbu_0, # of connection points: 3
#     Node 84, Type 0, BuildingBlock: WUSLED_clean_sbu_0, # of connection points: 3
#     Node 85, Type 0, BuildingBlock: WUSLED_clean_sbu_0, # of connection points: 3
#     Node 86, Type 0, BuildingBlock: WUSLED_clean_sbu_0, # of connection points: 3
#     Node 87, Type 0, BuildingBlock: WUSLED_clean_sbu_0, # of connection points: 3
#     Node 88, Type 0, BuildingBlock: WUSLED_clean_sbu_0, # of connection points: 3
#     Node 89, Type 0, BuildingBlock: WUSLED_clean_sbu_0, # of connection points: 3
#     Node 90, Type 0, BuildingBlock: WUSLED_clean_sbu_0, # of connection points: 3
#     Node 91, Type 0, BuildingBlock: WUSLED_clean_sbu_0, # of connection points: 3
#     Node 92, Type 0, BuildingBlock: WUSLED_clean_sbu_0, # of connection points: 3
#     Node 93, Type 0, BuildingBlock: WUSLED_clean_sbu_0, # of connection points: 3
#     Node 94, Type 0, BuildingBlock: WUSLED_clean_sbu_0, # of connection points: 3
#     Node 95, Type 0, BuildingBlock: WUSLED_clean_sbu_0, # of connection points: 3
#     Edge 96, Type (0, 0), None
#     Edge 97, Type (0, 0), None
#     Edge 98, Type (0, 0), None
#     Edge 99, Type (0, 0), None
#     Edge 100, Type (0, 0), None
#     Edge 101, Type (0, 0), None
#     Edge 102, Type (0, 0), None
#     Edge 103, Type (0, 0), None
#     Edge 104, Type (0, 0), None
#     Edge 105, Type (0, 0), None
#     Edge 106, Type (0, 0), None
#     Edge 107, Type (0, 0), None
#     Edge 108, Type (0, 0), None
#     Edge 109, Type (0, 0), None
#     Edge 110, Type (0, 0), None
#     Edge 111, Type (0, 0), None
#     Edge 112, Type (0, 0), None
#     Edge 113, Type (0, 0), None
#     Edge 114, Type (0, 0), None
#     Edge 115, Type (0, 0), None
#     Edge 116, Type (0, 0), None
#     Edge 117, Type (0, 0), None
#     Edge 118, Type (0, 0), None
#     Edge 119, Type (0, 0), None
#     Edge 120, Type (0, 0), None
#     Edge 121, Type (0, 0), None
#     Edge 122, Type (0, 0), None
#     Edge 123, Type (0, 0), None
#     Edge 124, Type (0, 0), None
#     Edge 125, Type (0, 0), None
#     Edge 126, Type (0, 0), None
#     Edge 127, Type (0, 0), None
#     Edge 128, Type (0, 0), None
#     Edge 129, Type (0, 0), None
#     Edge 130, Type (0, 0), None
#     Edge 131, Type (0, 0), None
#     Edge 132, Type (0, 0), None
#     Edge 133, Type (0, 0), None
#     Edge 134, Type (0, 0), None
#     Edge 135, Type (0, 0), None
#     Edge 136, Type (0, 0), None
#     Edge 137, Type (0, 0), None
#     Edge 138, Type (0, 0), None
#     Edge 139, Type (0, 0), None
#     Edge 140, Type (0, 0), None
#     Edge 141, Type (0, 0), None
#     Edge 142, Type (0, 0), None
#     Edge 143, Type (0, 0), None
#     Edge 144, Type (0, 0), None
#     Edge 145, Type (0, 0), None
#     Edge 146, Type (0, 0), None
#     Edge 147, Type (0, 0), None
#     Edge 148, Type (0, 0), None
#     Edge 149, Type (0, 0), None
#     Edge 150, Type (0, 0), None
#     Edge 151, Type (0, 0), None
#     Edge 152, Type (0, 0), None
#     Edge 153, Type (0, 0), None
#     Edge 154, Type (0, 0), None
#     Edge 155, Type (0, 0), None
#     Edge 156, Type (0, 0), None
#     Edge 157, Type (0, 0), None
#     Edge 158, Type (0, 0), None
#     Edge 159, Type (0, 0), None
#     Edge 160, Type (0, 0), None
#     Edge 161, Type (0, 0), None
#     Edge 162, Type (0, 0), None
#     Edge 163, Type (0, 0), None
#     Edge 164, Type (0, 0), None
#     Edge 165, Type (0, 0), None
#     Edge 166, Type (0, 0), None
#     Edge 167, Type (0, 0), None
#     Edge 168, Type (0, 0), None
#     Edge 169, Type (0, 0), None
#     Edge 170, Type (0, 0), None
#     Edge 171, Type (0, 0), None
#     Edge 172, Type (0, 0), None
#     Edge 173, Type (0, 0), None
#     Edge 174, Type (0, 0), None
#     Edge 175, Type (0, 0), None
#     Edge 176, Type (0, 0), None
#     Edge 177, Type (0, 0), None
#     Edge 178, Type (0, 0), None
#     Edge 179, Type (0, 0), None
#     Edge 180, Type (0, 0), None
#     Edge 181, Type (0, 0), None
#     Edge 182, Type (0, 0), None
#     Edge 183, Type (0, 0), None
#     Edge 184, Type (0, 0), None
#     Edge 185, Type (0, 0), None
#     Edge 186, Type (0, 0), None
#     Edge 187, Type (0, 0), None
#     Edge 188, Type (0, 0), None
#     Edge 189, Type (0, 0), None
#     Edge 190, Type (0, 0), None
#     Edge 191, Type (0, 0), None
#     Edge 192, Type (0, 0), None
#     Edge 193, Type (0, 0), None
#     Edge 194, Type (0, 0), None
#     Edge 195, Type (0, 0), None
#     Edge 196, Type (0, 0), None
#     Edge 197, Type (0, 0), None
#     Edge 198, Type (0, 0), None
#     Edge 199, Type (0, 0), None
#     Edge 200, Type (0, 0), None
#     Edge 201, Type (0, 0), None
#     Edge 202, Type (0, 0), None
#     Edge 203, Type (0, 0), None
#     Edge 204, Type (0, 0), None
#     Edge 205, Type (0, 0), None
#     Edge 206, Type (0, 0), None
#     Edge 207, Type (0, 0), None
#     Edge 208, Type (0, 0), None
#     Edge 209, Type (0, 0), None
#     Edge 210, Type (0, 0), None
#     Edge 211, Type (0, 0), None
#     Edge 212, Type (0, 0), None
#     Edge 213, Type (0, 0), None
#     Edge 214, Type (0, 0), None
#     Edge 215, Type (0, 0), None
#     Edge 216, Type (0, 0), None
#     Edge 217, Type (0, 0), None
#     Edge 218, Type (0, 0), None
#     Edge 219, Type (0, 0), None
#     Edge 220, Type (0, 0), None
#     Edge 221, Type (0, 0), None
#     Edge 222, Type (0, 0), None
#     Edge 223, Type (0, 0), None
#     Edge 224, Type (0, 0), None
#     Edge 225, Type (0, 0), None
#     Edge 226, Type (0, 0), None
#     Edge 227, Type (0, 0), None
#     Edge 228, Type (0, 0), None
#     Edge 229, Type (0, 0), None
#     Edge 230, Type (0, 0), None
#     Edge 231, Type (0, 0), None
#     Edge 232, Type (0, 0), None
#     Edge 233, Type (0, 0), None
#     Edge 234, Type (0, 0), None
#     Edge 235, Type (0, 0), None
#     Edge 236, Type (0, 0), None
#     Edge 237, Type (0, 0), None
#     Edge 238, Type (0, 0), None
#     Edge 239, Type (0, 0), None
# Relax obj value: 0.000
# Max RMSD: 0.004
# Mean RMSD: 0.004
data_MOF--net-pbg--node1-WUSLED_clean_sbu_0--edge1-none
_symmetry_space_group_name_H-M    P1
_symmetry_Int_Tables_number       1
_symmetry_cell_setting            triclinic
loop_
_symmetry_equiv_pos_as_xyz
'x, y, z'
_cell_length_a     98.203254
_cell_length_b     98.207152
_cell_length_c     98.20263
_cell_angle_alpha  90.00099
_cell_angle_beta   90.00047
_cell_angle_gamma 90.00122
loop_
_atom_site_label
_atom_site_type_symbol
_atom_site_fract_x
_atom_site_fract_y
_atom_site_fract_z
_atom_type_partial_charge
C0 C 0.18637 0.255 0.38064 0.0
C1 C 0.19832 0.262 0.37709 0.0
C2 C 0.1849 0.28093 0.36791 0.0
C3 C 0.19759 0.27484 0.37081 0.0
C4 C 0.17299 0.2738 0.37151 0.0
C5 C 0.17373 0.26101 0.37779 0.0
U6 U 0.20385 0.22121 0.39136 0.0
O7 O 0.20226 0.21017 0.41086 0.0
O8 O 0.19523 0.20051 0.39202 0.0
C9 C 0.19623 0.19957 0.40534 0.0
C10 C 0.18674 0.24154 0.38744 0.0
C11 C 0.18419 0.19411 0.41259 0.0
C12 C 0.16018 0.19492 0.41885 0.0
C13 C 0.1715 0.20068 0.41223 0.0
C14 C 0.17415 0.17608 0.42639 0.0
C15 C 0.16132 0.18247 0.42597 0.0
C16 C 0.18542 0.18183 0.41979 0.0
C17 C 0.2415 0.21482 0.38025 0.0
C18 C 0.25424 0.19351 0.38023 0.0
C19 C 0.26596 0.21477 0.37604 0.0
C20 C 0.25365 0.22181 0.37748 0.0
C21 C 0.26646 0.2005 0.37733 0.0
C22 C 0.24188 0.2006 0.38167 0.0
C23 C 0.22865 0.22267 0.38114 0.0
O24 O 0.18744 0.23086 0.37941 0.0
O25 O 0.19465 0.2405 0.39819 0.0
O26 O 0.22537 0.22749 0.39319 0.0
O27 O 0.21814 0.21783 0.3744 0.0
H28 H 0.2082 0.25758 0.37922 0.0
H29 H 0.207 0.28003 0.36834 0.0
H30 H 0.16304 0.27799 0.36927 0.0
H31 H 0.16438 0.25577 0.38041 0.0
H32 H 0.15055 0.20026 0.41842 0.0
H33 H 0.17032 0.21019 0.40677 0.0
H34 H 0.17545 0.16642 0.43155 0.0
H35 H 0.19511 0.17656 0.42016 0.0
H36 H 0.25417 0.18252 0.38119 0.0
H37 H 0.27514 0.22056 0.37407 0.0
H38 H 0.2536 0.23279 0.37637 0.0
H39 H 0.23263 0.19497 0.38377 0.0
C40 C 0.05538 0.9363 0.6306 0.0
C41 C 0.04833 0.94825 0.62713 0.0
C42 C 1.02944 0.93483 0.61787 0.0
C43 C 0.0355 0.94752 0.62085 0.0
C44 C 0.0366 0.92292 0.6214 0.0
C45 C 0.0494 0.92366 0.62768 0.0
U46 U 0.08916 0.95377 0.64133 0.0
O47 O 0.1002 0.95218 0.66085 0.0
O48 O 0.10986 0.94515 0.64201 0.0
C49 C 0.11079 0.94615 0.65533 0.0
C50 C 0.06883 0.93667 0.63741 0.0
C51 C 0.11625 0.93411 0.66258 0.0
C52 C 0.11549 0.91008 0.66877 0.0
C53 C 0.10973 0.9214 0.66215 0.0
C54 C 0.13424 0.92409 0.67645 0.0
C55 C 0.1279 0.91124 0.67596 0.0
C56 C 0.12849 0.93536 0.66985 0.0
C57 C 0.09557 0.99142 0.63024 0.0
C58 C 0.11689 1.00414 0.63016 0.0
C59 C 0.09562 1.01589 0.62609 0.0
C60 C 0.08858 1.00358 0.62753 0.0
C61 C 0.1099 1.01638 0.62731 0.0
C62 C 0.1098 0.99179 0.63159 0.0
C63 C 0.08771 0.97857 0.63112 0.0
O64 O 0.07952 0.93736 0.62938 0.0
O65 O 0.06987 0.94457 0.64816 0.0
O66 O 0.08289 0.97529 0.64316 0.0
O67 O 0.09255 0.96806 0.62438 0.0
H68 H 0.05273 0.95813 0.62932 0.0
H69 H 0.03027 0.95692 0.61844 0.0
H70 H 0.03245 0.91297 0.61909 0.0
H71 H 0.05467 0.91431 0.63024 0.0
H72 H 0.11019 0.90043 0.66828 0.0
H73 H 0.10026 0.9202 0.65663 0.0
H74 H 0.14387 0.92541 0.68166 0.0
H75 H 0.13372 0.94506 0.67027 0.0
H76 H 0.12788 1.00407 0.63107 0.0
H77 H 0.08983 1.02507 0.62416 0.0
H78 H 0.07759 1.00354 0.62646 0.0
H79 H 0.11543 0.98253 0.63365 0.0
C80 C 0.37404 0.80535 0.88062 0.0
C81 C 0.36209 0.79835 0.87708 0.0
C82 C 0.37551 0.77942 0.86788 0.0
C83 C 0.36282 0.78552 0.87079 0.0
C84 C 0.38742 0.78655 0.87147 0.0
C85 C 0.38668 0.79934 0.87776 0.0
U86 U 0.35658 0.83914 0.89136 0.0
O87 O 0.35817 0.85016 0.91088 0.0
O88 O 0.36521 0.85983 0.89205 0.0
C89 C 0.36421 0.86076 0.90537 0.0
C90 C 0.37368 0.81881 0.88743 0.0
C91 C 0.37625 0.86621 0.91263 0.0
C92 C 0.40036 0.86564 0.91852 0.0
C93 C 0.38904 0.85986 0.91192 0.0
C94 C 0.3862 0.88404 0.92675 0.0
C95 C 0.39912 0.87788 0.92597 0.0
C96 C 0.37493 0.87827 0.92017 0.0
C97 C 0.31893 0.84556 0.88025 0.0
C98 C 0.30621 0.86689 0.88017 0.0
C99 C 0.29446 0.84562 0.8761 0.0
C100 C 0.30677 0.83857 0.87755 0.0
C101 C 0.29397 0.85989 0.87733 0.0
C102 C 0.31856 0.85979 0.88161 0.0
C103 C 0.33178 0.8377 0.88113 0.0
O104 O 0.37298 0.8295 0.87941 0.0
O105 O 0.36576 0.81984 0.89818 0.0
O106 O 0.33506 0.83287 0.89318 0.0
O107 O 0.34229 0.84254 0.87441 0.0
H108 H 0.35221 0.80277 0.87921 0.0
H109 H 0.35341 0.78032 0.86833 0.0
H110 H 0.39737 0.78237 0.86922 0.0
H111 H 0.39603 0.80458 0.88038 0.0
H112 H 0.41007 0.86047 0.91781 0.0
H113 H 0.39029 0.85052 0.90619 0.0
H114 H 0.38482 0.89354 0.93218 0.0
H115 H 0.36516 0.88336 0.92081 0.0
H116 H 0.30629 0.87787 0.88108 0.0
H117 H 0.28527 0.83983 0.87418 0.0
H118 H 0.3068 0.82759 0.87648 0.0
H119 H 0.32783 0.86542 0.88366 0.0
C120 C 0.50502 0.12406 0.1306 0.0
C121 C 0.51202 0.11211 0.12706 0.0
C122 C 0.53096 0.12552 0.11787 0.0
C123 C 0.52485 0.11283 0.12077 0.0
C124 C 0.52383 0.13744 0.12147 0.0
C125 C 0.51104 0.1367 0.12775 0.0
U126 U 0.47123 0.1066 0.14133 0.0
O127 O 0.46019 0.10821 0.16084 0.0
O128 O 0.45053 0.11523 0.14201 0.0
C129 C 0.4496 0.11424 0.15532 0.0
C130 C 0.49156 0.1237 0.13741 0.0
C131 C 0.44414 0.12628 0.16257 0.0
C132 C 0.44492 0.1503 0.16878 0.0
C133 C 0.45068 0.13898 0.16217 0.0
C134 C 0.42614 0.13631 0.17642 0.0
C135 C 0.4325 0.14915 0.17595 0.0
C136 C 0.43189 0.12504 0.16982 0.0
C137 C 0.46482 0.06896 0.13024 0.0
C138 C 0.44349 0.05623 0.13017 0.0
C139 C 0.46476 0.04449 0.12608 0.0
C140 C 0.47181 0.0568 0.12752 0.0
C141 C 0.45048 0.044 0.12732 0.0
C142 C 0.45058 0.06859 0.13161 0.0
C143 C 0.47267 0.08181 0.13112 0.0
O144 O 0.48088 0.12301 0.12938 0.0
O145 O 0.49052 0.1158 0.14816 0.0
O146 O 0.4775 0.08509 0.14316 0.0
O147 O 0.46783 0.09232 0.12438 0.0
H148 H 0.50759 0.10224 0.12919 0.0
H149 H 0.53005 0.10343 0.11831 0.0
H150 H 0.52802 0.14739 0.11922 0.0
H151 H 0.5058 0.14605 0.13037 0.0
H152 H 0.45024 0.15995 0.16831 0.0
H153 H 0.46017 0.14017 0.15666 0.0
H154 H 0.4165 0.135 0.18162 0.0
H155 H 0.42664 0.11534 0.17023 0.0
H156 H 0.4325 0.05631 0.13109 0.0
H157 H 0.47055 0.03531 0.12414 0.0
H158 H 0.48279 0.05683 0.12644 0.0
H159 H 0.44495 0.07785 0.13367 0.0
C160 C 0.18636 0.80535 0.17979 0.0
C161 C 0.19831 0.79834 0.18334 0.0
C162 C 0.18489 0.77941 0.19252 0.0
C163 C 0.19759 0.78551 0.18963 0.0
C164 C 0.17298 0.78654 0.18892 0.0
C165 C 0.17372 0.79933 0.18264 0.0
U166 U 0.20383 0.83913 0.16907 0.0
O167 O 0.20224 0.85017 0.14956 0.0
O168 O 0.19521 0.85983 0.16839 0.0
C169 C 0.19621 0.86077 0.15508 0.0
C170 C 0.18673 0.8188 0.17299 0.0
C171 C 0.18417 0.86623 0.14782 0.0
C172 C 0.16014 0.86548 0.14165 0.0
C173 C 0.17145 0.85972 0.14827 0.0
C174 C 0.17417 0.88421 0.13393 0.0
C175 C 0.16131 0.87788 0.13445 0.0
C176 C 0.18543 0.87845 0.14054 0.0
C177 C 0.24148 0.84554 0.18018 0.0
C178 C 0.2542 0.86687 0.18022 0.0
C179 C 0.26594 0.84561 0.18437 0.0
C180 C 0.25363 0.83856 0.18293 0.0
C181 C 0.26643 0.85988 0.1831 0.0
C182 C 0.24185 0.85977 0.17879 0.0
C183 C 0.22863 0.83769 0.1793 0.0
O184 O 0.18742 0.82949 0.18102 0.0
O185 O 0.19464 0.81985 0.16224 0.0
O186 O 0.22535 0.83286 0.16725 0.0
O187 O 0.21811 0.84252 0.18603 0.0
H188 H 0.20819 0.80277 0.18121 0.0
H189 H 0.20699 0.78032 0.19209 0.0
H190 H 0.16303 0.78235 0.19116 0.0
H191 H 0.16437 0.80456 0.18001 0.0
H192 H 0.15048 0.86019 0.14216 0.0
H193 H 0.17025 0.85025 0.1538 0.0
H194 H 0.17549 0.89382 0.12871 0.0
H195 H 0.19514 0.88367 0.1401 0.0
H196 H 0.25412 0.87785 0.17929 0.0
H197 H 0.27512 0.83982 0.18632 0.0
H198 H 0.25359 0.82758 0.18402 0.0
H199 H 0.23259 0.8654 0.17671 0.0
C200 C 0.50504 0.93629 0.42982 0.0
C201 C 0.51203 0.94824 0.43338 0.0
C202 C 0.53098 0.93483 0.44256 0.0
C203 C 0.52487 0.94752 0.43967 0.0
C204 C 0.52386 0.92291 0.43895 0.0
C205 C 0.51106 0.92365 0.43266 0.0
U206 U 0.47125 0.95375 0.4191 0.0
O207 O 0.46021 0.95216 0.3996 0.0
O208 O 0.45055 0.94513 0.41843 0.0
C209 C 0.44961 0.94613 0.40512 0.0
C210 C 0.49158 0.93665 0.42302 0.0
C211 C 0.44415 0.93409 0.39787 0.0
C212 C 0.44497 0.91009 0.39158 0.0
C213 C 0.45072 0.9214 0.3982 0.0
C214 C 0.42611 0.92406 0.38407 0.0
C215 C 0.43251 0.91123 0.38447 0.0
C216 C 0.43186 0.93532 0.39068 0.0
C217 C 0.46484 0.9914 0.4302 0.0
C218 C 0.44351 1.00411 0.43029 0.0
C219 C 0.46478 1.01587 0.43433 0.0
C220 C 0.47183 1.00356 0.4329 0.0
C221 C 0.4505 1.01635 0.43312 0.0
C222 C 0.4506 0.99176 0.42886 0.0
C223 C 0.4727 0.97855 0.42932 0.0
O224 O 0.4809 0.93735 0.43106 0.0
O225 O 0.49054 0.94456 0.41227 0.0
O226 O 0.47752 0.97527 0.41728 0.0
O227 O 0.46786 0.96804 0.43606 0.0
H228 H 0.5076 0.95811 0.43127 0.0
H229 H 0.53006 0.95692 0.44215 0.0
H230 H 0.52805 0.91296 0.44118 0.0
H231 H 0.50583 0.9143 0.43003 0.0
H232 H 0.45031 0.90046 0.39199 0.0
H233 H 0.46024 0.92023 0.40366 0.0
H234 H 0.41644 0.92535 0.37893 0.0
H235 H 0.42659 0.945 0.39033 0.0
H236 H 0.43252 1.00403 0.4294 0.0
H237 H 0.47057 1.02506 0.43625 0.0
H238 H 0.48281 1.00353 0.43395 0.0
H239 H 0.44497 0.9825 0.42682 0.0
C240 C 0.37405 0.255 0.67979 0.0
C241 C 0.3621 0.262 0.68334 0.0
C242 C 0.37552 0.28094 0.69252 0.0
C243 C 0.36282 0.27484 0.68962 0.0
C244 C 0.38743 0.27382 0.68891 0.0
C245 C 0.38669 0.26102 0.68263 0.0
U246 U 0.35658 0.22122 0.66907 0.0
O247 O 0.35817 0.21017 0.64957 0.0
O248 O 0.3652 0.20051 0.66841 0.0
C249 C 0.3642 0.19957 0.65509 0.0
C250 C 0.37368 0.24154 0.67299 0.0
C251 C 0.37624 0.19411 0.64784 0.0
C252 C 0.40023 0.19493 0.64154 0.0
C253 C 0.38892 0.20069 0.64816 0.0
C254 C 0.38627 0.17606 0.63406 0.0
C255 C 0.3991 0.18247 0.63445 0.0
C256 C 0.37501 0.18182 0.64067 0.0
C257 C 0.31893 0.21481 0.68018 0.0
C258 C 0.3062 0.19349 0.68021 0.0
C259 C 0.29447 0.21474 0.68438 0.0
C260 C 0.30678 0.2218 0.68294 0.0
C261 C 0.29397 0.20047 0.6831 0.0
C262 C 0.31856 0.20058 0.67878 0.0
C263 C 0.33178 0.22267 0.6793 0.0
O264 O 0.37299 0.23086 0.68102 0.0
O265 O 0.36577 0.2405 0.66224 0.0
O266 O 0.33506 0.22749 0.66725 0.0
O267 O 0.34229 0.21783 0.68603 0.0
H268 H 0.35222 0.25757 0.68121 0.0
H269 H 0.35342 0.28003 0.69209 0.0
H270 H 0.39738 0.27801 0.69115 0.0
H271 H 0.39604 0.25579 0.68001 0.0
H272 H 0.40986 0.20028 0.64195 0.0
H273 H 0.39009 0.21021 0.65361 0.0
H274 H 0.38498 0.16639 0.62892 0.0
H275 H 0.36533 0.17654 0.64032 0.0
H276 H 0.30628 0.18251 0.67926 0.0
H277 H 0.28529 0.22053 0.68634 0.0
H278 H 0.30682 0.23278 0.68405 0.0
H279 H 0.32782 0.19496 0.67669 0.0
C280 C 0.05537 0.12406 0.92981 0.0
C281 C 0.04834 0.11212 0.9333 0.0
C282 C 1.02943 0.12554 0.94254 0.0
C283 C 0.03551 0.11284 0.93959 0.0
C284 C 0.03659 0.13745 0.939 0.0
C285 C 0.04938 0.1367 0.93272 0.0
U286 U 0.08916 0.1066 0.91908 0.0
O287 O 0.1002 0.10819 0.89957 0.0
O288 O 0.10986 0.11522 0.91841 0.0
C289 C 0.11079 0.11422 0.90509 0.0
C290 C 0.06883 0.1237 0.92301 0.0
C291 C 0.11625 0.12626 0.89784 0.0
C292 C 0.11547 0.15027 0.8916 0.0
C293 C 0.10971 0.13896 0.89822 0.0
C294 C 0.13427 0.13628 0.884 0.0
C295 C 0.1279 0.14912 0.88446 0.0
C296 C 0.12851 0.12502 0.89061 0.0
C297 C 0.09557 0.06895 0.93018 0.0
C298 C 0.11689 0.05623 0.93024 0.0
C299 C 0.09563 0.04448 0.93435 0.0
C300 C 0.08858 0.0568 0.93291 0.0
C301 C 0.1099 0.04399 0.9331 0.0
C302 C 0.1098 0.06858 0.92881 0.0
C303 C 0.08771 0.0818 0.9293 0.0
O304 O 0.07951 0.123 0.93104 0.0
O305 O 0.06987 0.11579 0.91226 0.0
O306 O 0.08289 0.08508 0.91726 0.0
O307 O 0.09255 0.09231 0.93604 0.0
H308 H 0.05274 0.10224 0.93113 0.0
H309 H 0.03029 0.10344 0.94201 0.0
H310 H 0.03243 0.1474 0.94129 0.0
H311 H 0.05464 0.14606 0.93014 0.0
H312 H 0.11014 0.15991 0.89206 0.0
H313 H 0.10021 0.14014 0.90371 0.0
H314 H 0.14391 0.13498 0.87883 0.0
H315 H 0.13377 0.11532 0.89022 0.0
H316 H 0.12788 0.05631 0.92932 0.0
H317 H 0.08984 0.0353 0.93629 0.0
H318 H 0.0776 0.05683 0.93399 0.0
H319 H 0.11543 0.07784 0.92674 0.0
C320 C 0.38063 0.18638 0.25502 0.0
C321 C 0.37704 0.19833 0.262 0.0
C322 C 0.36789 0.18492 0.28096 0.0
C323 C 0.37075 0.19761 0.27483 0.0
C324 C 0.37155 0.17301 0.27386 0.0
C325 C 0.37783 0.17375 0.26107 0.0
U326 U 0.39134 0.20385 0.22123 0.0
O327 O 0.41085 0.20225 0.21019 0.0
O328 O 0.39201 0.19523 0.20053 0.0
C329 C 0.40532 0.19623 0.19959 0.0
C330 C 0.38743 0.18674 0.24156 0.0
C331 C 0.41257 0.18419 0.19413 0.0
C332 C 0.41886 0.16019 0.19496 0.0
C333 C 0.41224 0.1715 0.20071 0.0
C334 C 0.42635 0.17414 0.17608 0.0
C335 C 0.42595 0.16132 0.18249 0.0
C336 C 0.41974 0.1854 0.18183 0.0
C337 C 0.38024 0.2415 0.21484 0.0
C338 C 0.38023 0.25424 0.19352 0.0
C339 C 0.37602 0.26596 0.21478 0.0
C340 C 0.37746 0.25364 0.22183 0.0
C341 C 0.37732 0.26646 0.20051 0.0
C342 C 0.38166 0.24188 0.20061 0.0
C343 C 0.38113 0.22865 0.22269 0.0
O344 O 0.37939 0.18744 0.23088 0.0
O345 O 0.39818 0.19465 0.24052 0.0
O346 O 0.39317 0.22537 0.22751 0.0
O347 O 0.37439 0.21814 0.21785 0.0
H348 H 0.37912 0.20821 0.25755 0.0
H349 H 0.36824 0.20702 0.28001 0.0
H350 H 0.36934 0.16306 0.27807 0.0
H351 H 0.38049 0.16439 0.25585 0.0
H352 H 0.41846 0.15056 0.20031 0.0
H353 H 0.4068 0.17034 0.21024 0.0
H354 H 0.43148 0.17543 0.16641 0.0
H355 H 0.42009 0.19509 0.17655 0.0
H356 H 0.38119 0.25417 0.18254 0.0
H357 H 0.37404 0.27513 0.22057 0.0
H358 H 0.37634 0.2536 0.23281 0.0
H359 H 0.38377 0.23263 0.19499 0.0
C360 C 0.12407 0.13058 0.50503 0.0
C361 C 0.11212 0.12703 0.51203 0.0
C362 C 0.12553 0.11784 0.53097 0.0
C363 C 0.11284 0.12074 0.52486 0.0
C364 C 0.13745 0.12145 0.52385 0.0
C365 C 0.13671 0.12773 0.51105 0.0
U366 U 0.10661 0.1413 0.47124 0.0
O367 O 0.10821 0.16081 0.4602 0.0
O368 O 0.11524 0.14198 0.45054 0.0
C369 C 0.11424 0.15529 0.44961 0.0
C370 C 0.12371 0.13738 0.49157 0.0
C371 C 0.12628 0.16254 0.44415 0.0
C372 C 0.1503 0.16879 0.44495 0.0
C373 C 0.13898 0.16217 0.45071 0.0
C374 C 0.13632 0.17637 0.42613 0.0
C375 C 0.14915 0.17592 0.43252 0.0
C376 C 0.12505 0.16976 0.43188 0.0
C377 C 0.06896 0.1302 0.46483 0.0
C378 C 0.05624 0.13015 0.4435 0.0
C379 C 0.0445 0.12604 0.46477 0.0
C380 C 0.05681 0.12748 0.47182 0.0
C381 C 0.04401 0.12728 0.45049 0.0
C382 C 0.06859 0.13158 0.4506 0.0
C383 C 0.08181 0.13109 0.47269 0.0
O384 O 0.12302 0.12935 0.48089 0.0
O385 O 0.11581 0.14813 0.49053 0.0
O386 O 0.08509 0.14313 0.47751 0.0
O387 O 0.09232 0.12435 0.46785 0.0
H388 H 0.10225 0.12915 0.5076 0.0
H389 H 0.10343 0.11827 0.53005 0.0
H390 H 0.1474 0.1192 0.52804 0.0
H391 H 0.14606 0.13035 0.50582 0.0
H392 H 0.15994 0.16834 0.45028 0.0
H393 H 0.14016 0.15669 0.46021 0.0
H394 H 0.13502 0.18154 0.41648 0.0
H395 H 0.11536 0.17014 0.42662 0.0
H396 H 0.05632 0.13107 0.43252 0.0
H397 H 0.03531 0.1241 0.47056 0.0
H398 H 0.05684 0.12639 0.4828 0.0
H399 H 0.07785 0.13365 0.44497 0.0
C400 C 0.17979 0.87403 0.75503 0.0
C401 C 0.18335 0.86208 0.76203 0.0
C402 C 0.19253 0.8755 0.78097 0.0
C403 C 0.18963 0.86281 0.77487 0.0
C404 C 0.18892 0.88741 0.77384 0.0
C405 C 0.18264 0.88667 0.76105 0.0
U406 U 0.16908 0.85656 0.72124 0.0
O407 O 0.14958 0.85815 0.71019 0.0
O408 O 0.16842 0.86518 0.70054 0.0
C409 C 0.1551 0.86418 0.6996 0.0
C410 C 0.173 0.87367 0.74157 0.0
C411 C 0.14785 0.87622 0.69413 0.0
C412 C 0.14152 0.9002 0.69498 0.0
C413 C 0.14815 0.88889 0.70073 0.0
C414 C 0.13409 0.88626 0.67607 0.0
C415 C 0.13446 0.89908 0.6825 0.0
C416 C 0.14071 0.875 0.68182 0.0
C417 C 0.18019 0.81892 0.71484 0.0
C418 C 0.18022 0.80619 0.69352 0.0
C419 C 0.18439 0.79445 0.71477 0.0
C420 C 0.18295 0.80677 0.72182 0.0
C421 C 0.18311 0.79396 0.7005 0.0
C422 C 0.17878 0.81854 0.70061 0.0
C423 C 0.17931 0.83177 0.72269 0.0
O424 O 0.18103 0.87297 0.73089 0.0
O425 O 0.16225 0.86576 0.74052 0.0
O426 O 0.16726 0.83504 0.72751 0.0
O427 O 0.18604 0.84228 0.71786 0.0
H428 H 0.18122 0.85221 0.7576 0.0
H429 H 0.1921 0.85341 0.78006 0.0
H430 H 0.19116 0.89736 0.77803 0.0
H431 H 0.18002 0.89602 0.75581 0.0
H432 H 0.14191 0.90983 0.70034 0.0
H433 H 0.15357 0.89006 0.71027 0.0
H434 H 0.12898 0.88497 0.66639 0.0
H435 H 0.14038 0.86532 0.67653 0.0
H436 H 0.17927 0.80626 0.68253 0.0
H437 H 0.18635 0.78528 0.72056 0.0
H438 H 0.18405 0.8068 0.7328 0.0
H439 H 0.17669 0.8278 0.69499 0.0
C440 C 0.43631 0.92982 1.00503 0.0
C441 C 0.44826 0.93337 1.01203 0.0
C442 C 0.43485 0.94255 0.03097 0.0
C443 C 0.44754 0.93966 1.02486 0.0
C444 C 0.42293 0.93894 1.02384 0.0
C445 C 0.42367 0.93266 1.01105 0.0
U446 U 0.45378 0.91912 0.97124 0.0
O447 O 0.45219 0.89962 0.96018 0.0
O448 O 0.44516 0.91847 0.95053 0.0
C449 C 0.44617 0.90515 0.94958 0.0
C450 C 0.43667 0.92303 0.99156 0.0
C451 C 0.43413 0.8979 0.9441 0.0
C452 C 0.41023 0.89127 0.94512 0.0
C453 C 0.42154 0.89792 0.95086 0.0
C454 C 0.42402 0.8844 0.92589 0.0
C455 C 0.41129 0.88447 0.93248 0.0
C456 C 0.43527 0.89103 0.93163 0.0
C457 C 0.49143 0.93022 0.96484 0.0
C458 C 0.50415 0.93026 0.94352 0.0
C459 C 0.5159 0.93439 0.96478 0.0
C460 C 0.50358 0.93296 0.97183 0.0
C461 C 0.51639 0.93313 0.9505 0.0
C462 C 0.4918 0.92883 0.95061 0.0
C463 C 0.47858 0.92933 0.9727 0.0
O464 O 0.43737 0.93106 0.98089 0.0
O465 O 0.44458 0.91228 0.99051 0.0
O466 O 0.4753 0.91729 0.97751 0.0
O467 O 0.46807 0.93607 0.96786 0.0
H468 H 0.45814 0.93125 1.00759 0.0
H469 H 0.45695 0.94213 1.03005 0.0
H470 H 0.41298 0.94118 1.02804 0.0
H471 H 0.41432 0.93003 1.00582 0.0
H472 H 0.40068 0.89143 0.95061 0.0
H473 H 0.42043 0.90313 0.96052 0.0
H474 H 0.42524 0.8795 0.91609 0.0
H475 H 0.44489 0.89093 0.92621 0.0
H476 H 0.50407 0.92933 0.93253 0.0
H477 H 0.52508 0.93634 0.97056 0.0
H478 H 0.50355 0.93405 0.98281 0.0
H479 H 0.48254 0.92676 0.94498 0.0
C480 C 0.38062 0.87402 0.30539 0.0
C481 C 0.37708 0.86207 0.29838 0.0
C482 C 0.36789 0.87549 0.27945 0.0
C483 C 0.37079 0.8628 0.28555 0.0
C484 C 0.37149 0.8874 0.28658 0.0
C485 C 0.37777 0.88666 0.29937 0.0
U486 U 0.39134 0.85655 0.33917 0.0
O487 O 0.41085 0.85814 0.35021 0.0
O488 O 0.39201 0.86517 0.35988 0.0
C489 C 0.40532 0.86416 0.36081 0.0
C490 C 0.38742 0.87365 0.31884 0.0
C491 C 0.41258 0.8762 0.36627 0.0
C492 C 0.41881 0.90022 0.36549 0.0
C493 C 0.41219 0.88891 0.35973 0.0
C494 C 0.42642 0.88622 0.38429 0.0
C495 C 0.42596 0.89907 0.37792 0.0
C496 C 0.41981 0.87496 0.37853 0.0
C497 C 0.38023 0.8189 0.34557 0.0
C498 C 0.38019 0.80617 0.3669 0.0
C499 C 0.37603 0.79444 0.34564 0.0
C500 C 0.37748 0.80675 0.33859 0.0
C501 C 0.37731 0.79394 0.35991 0.0
C502 C 0.38163 0.81853 0.3598 0.0
C503 C 0.38111 0.83175 0.33772 0.0
O504 O 0.37939 0.87296 0.32953 0.0
O505 O 0.39817 0.86574 0.31989 0.0
O506 O 0.39316 0.83503 0.3329 0.0
O507 O 0.37438 0.84226 0.34256 0.0
H508 H 0.3792 0.85219 0.30281 0.0
H509 H 0.36832 0.85339 0.28035 0.0
H510 H 0.36924 0.89735 0.28239 0.0
H511 H 0.38039 0.89601 0.30461 0.0
H512 H 0.41835 0.90986 0.36017 0.0
H513 H 0.4067 0.89009 0.35024 0.0
H514 H 0.4316 0.88492 0.39393 0.0
H515 H 0.4202 0.86526 0.38378 0.0
H516 H 0.38114 0.80625 0.37788 0.0
H517 H 0.37408 0.78526 0.33985 0.0
H518 H 0.37637 0.80679 0.32761 0.0
H519 H 0.38371 0.82778 0.36543 0.0
C520 C 0.43632 0.13058 0.55537 0.0
C521 C 0.44827 0.1271 0.54833 0.0
C522 C 0.43485 0.11785 0.52943 0.0
C523 C 0.44754 0.12081 0.5355 0.0
C524 C 0.42293 0.12138 0.53659 0.0
C525 C 0.42368 0.12766 0.54939 0.0
U526 U 0.45379 0.1413 0.58916 0.0
O527 O 0.4522 0.16081 0.6002 0.0
O528 O 0.44517 0.14198 0.60986 0.0
C529 C 0.44617 0.15529 0.61079 0.0
C530 C 0.43668 0.13738 0.56883 0.0
C531 C 0.43413 0.16254 0.61625 0.0
C532 C 0.41011 0.16876 0.61547 0.0
C533 C 0.42142 0.16214 0.60972 0.0
C534 C 0.42411 0.1764 0.63426 0.0
C535 C 0.41126 0.17593 0.62789 0.0
C536 C 0.43537 0.16979 0.6285 0.0
C537 C 0.49144 0.1302 0.59556 0.0
C538 C 0.50416 0.13013 0.61689 0.0
C539 C 0.51591 0.12603 0.59562 0.0
C540 C 0.50359 0.12747 0.58857 0.0
C541 C 0.5164 0.12727 0.6099 0.0
C542 C 0.49181 0.13157 0.6098 0.0
C543 C 0.47859 0.13108 0.58771 0.0
O544 O 0.43738 0.12935 0.57951 0.0
O545 O 0.44459 0.14813 0.56987 0.0
O546 O 0.47531 0.14312 0.58289 0.0
O547 O 0.46808 0.12435 0.59255 0.0
H548 H 0.45815 0.12927 0.55273 0.0
H549 H 0.45694 0.1184 0.53027 0.0
H550 H 0.41299 0.11908 0.53243 0.0
H551 H 0.41433 0.13023 0.55465 0.0
H552 H 0.40046 0.1683 0.61016 0.0
H553 H 0.42024 0.15664 0.60023 0.0
H554 H 0.42542 0.18159 0.6439 0.0
H555 H 0.44507 0.17019 0.63375 0.0
H556 H 0.50408 0.13105 0.62787 0.0
H557 H 0.52509 0.12409 0.58983 0.0
H558 H 0.50356 0.12639 0.57759 0.0
H559 H 0.48255 0.13363 0.61542 0.0
C560 C 0.17979 0.18633 0.80538 0.0
C561 C 0.18334 0.19828 0.79837 0.0
C562 C 0.19252 0.18486 0.77944 0.0
C563 C 0.18963 0.19755 0.78554 0.0
C564 C 0.18892 0.17295 0.78657 0.0
C565 C 0.18263 0.17369 0.79936 0.0
U566 U 0.16907 0.20381 0.83916 0.0
O567 O 0.14957 0.20221 0.85021 0.0
O568 O 0.1684 0.19518 0.85987 0.0
C569 C 0.15509 0.19619 0.8608 0.0
C570 C 0.17299 0.1867 0.81884 0.0
C571 C 0.14784 0.18415 0.86627 0.0
C572 C 0.14155 0.16015 0.86545 0.0
C573 C 0.14818 0.17146 0.8597 0.0
C574 C 0.13404 0.17411 0.88431 0.0
C575 C 0.13445 0.16129 0.87791 0.0
C576 C 0.14065 0.18538 0.87855 0.0
C577 C 0.18018 0.24145 0.84557 0.0
C578 C 0.18021 0.25418 0.86689 0.0
C579 C 0.18438 0.26591 0.84563 0.0
C580 C 0.18294 0.2536 0.83858 0.0
C581 C 0.1831 0.26641 0.8599 0.0
C582 C 0.17878 0.24182 0.8598 0.0
C583 C 0.1793 0.2286 0.83771 0.0
O584 O 0.18102 0.18739 0.82952 0.0
O585 O 0.16224 0.19461 0.81988 0.0
O586 O 0.16725 0.22532 0.83289 0.0
O587 O 0.18603 0.21809 0.84255 0.0
H588 H 0.18121 0.20816 0.8028 0.0
H589 H 0.19209 0.20696 0.78035 0.0
H590 H 0.19116 0.163 0.78238 0.0
H591 H 0.18001 0.16434 0.80459 0.0
H592 H 0.14198 0.15051 0.86011 0.0
H593 H 0.15364 0.17028 0.85018 0.0
H594 H 0.12889 0.17541 0.89397 0.0
H595 H 0.14029 0.19506 0.88382 0.0
H596 H 0.17927 0.2541 0.87787 0.0
H597 H 0.18634 0.27509 0.83984 0.0
H598 H 0.18404 0.25356 0.8276 0.0
H599 H 0.17669 0.23257 0.86542 0.0
C600 C 0.12409 0.9298 0.05538 0.0
C601 C 0.11214 0.93335 0.04838 0.0
C602 C 0.12555 0.94253 1.02944 0.0
C603 C 0.11286 0.93964 0.03555 0.0
C604 C 0.13747 0.93893 0.03657 0.0
C605 C 0.13673 0.93264 0.04936 0.0
U606 U 0.10663 0.91908 0.08917 0.0
O607 O 0.10822 0.89957 0.10021 0.0
O608 O 0.11525 0.91841 0.10987 0.0
C609 C 0.11425 0.90509 0.11081 0.0
C610 C 0.12373 0.923 0.06884 0.0
C611 C 0.12629 0.89784 0.11627 0.0
C612 C 0.15027 0.89149 0.11542 0.0
C613 C 0.13896 0.89812 0.10966 0.0
C614 C 0.13633 0.88409 0.13434 0.0
C615 C 0.14914 0.88444 0.12791 0.0
C616 C 0.12507 0.89071 0.12859 0.0
C617 C 0.06898 0.93018 0.09558 0.0
C618 C 0.05626 0.93026 0.11691 0.0
C619 C 0.04451 0.93432 0.09564 0.0
C620 C 0.05682 0.93288 0.08859 0.0
C621 C 0.04402 0.93309 0.10992 0.0
C622 C 0.06862 0.92883 0.10981 0.0
C623 C 0.08183 0.92929 0.08772 0.0
O624 O 0.12303 0.93103 0.07952 0.0
O625 O 0.11582 0.91224 0.06988 0.0
O626 O 0.08511 0.91725 0.0829 0.0
O627 O 0.09234 0.93603 0.09256 0.0
H628 H 0.10226 0.93122 0.05281 0.0
H629 H 0.10345 0.9421 0.03036 0.0
H630 H 0.14741 0.94117 0.03237 0.0
H631 H 0.14608 0.93002 0.05459 0.0
H632 H 0.15989 0.89186 0.11005 0.0
H633 H 0.14012 0.90353 0.10012 0.0
H634 H 0.13505 0.879 0.14403 0.0
H635 H 0.1154 0.8904 0.13389 0.0
H636 H 0.05635 0.92936 0.1279 0.0
H637 H 0.03532 0.93624 0.08985 0.0
H638 H 0.05685 0.93394 0.0776 0.0
H639 H 0.07788 0.92678 0.11544 0.0
C640 C 0.25501 0.3806 0.18638 0.0
C641 C 0.26198 0.377 0.19833 0.0
C642 C 0.28094 0.36787 0.18492 0.0
C643 C 0.27481 0.37071 0.19761 0.0
C644 C 0.27385 0.37152 0.17301 0.0
C645 C 0.26105 0.3778 0.17375 0.0
U646 U 0.22122 0.39131 0.20385 0.0
O647 O 0.21017 0.41081 0.20225 0.0
O648 O 0.20051 0.39197 0.19522 0.0
C649 C 0.19957 0.40529 0.19622 0.0
C650 C 0.24155 0.3874 0.18674 0.0
C651 C 0.19411 0.41254 0.18418 0.0
C652 C 0.19492 0.41879 0.16017 0.0
C653 C 0.20067 0.41217 0.17149 0.0
C654 C 0.17609 0.42635 0.17415 0.0
C655 C 0.18248 0.42592 0.16131 0.0
C656 C 0.18184 0.41975 0.18541 0.0
C657 C 0.21481 0.3802 0.24149 0.0
C658 C 0.19349 0.38015 0.25422 0.0
C659 C 0.21475 0.37601 0.26596 0.0
C660 C 0.2218 0.37746 0.25364 0.0
C661 C 0.20048 0.37727 0.26645 0.0
C662 C 0.20058 0.38159 0.24187 0.0
C663 C 0.22267 0.38109 0.22864 0.0
O664 O 0.23087 0.37936 0.18744 0.0
O665 O 0.2405 0.39814 0.19465 0.0
O666 O 0.22748 0.39313 0.22536 0.0
O667 O 0.21783 0.37435 0.21813 0.0
H668 H 0.25753 0.37909 0.20821 0.0
H669 H 0.27999 0.36821 0.20702 0.0
H670 H 0.27806 0.36931 0.16306 0.0
H671 H 0.25584 0.38046 0.16439 0.0
H672 H 0.20025 0.41835 0.15053 0.0
H673 H 0.21018 0.4067 0.17031 0.0
H674 H 0.16644 0.43152 0.17545 0.0
H675 H 0.17658 0.42012 0.1951 0.0
H676 H 0.1825 0.38109 0.25415 0.0
H677 H 0.22054 0.37406 0.27514 0.0
H678 H 0.23278 0.37636 0.25361 0.0
H679 H 0.19495 0.38367 0.23261 0.0
C680 C 0.75503 0.17978 0.87403 0.0
C681 C 0.76201 0.18336 0.86208 0.0
C682 C 0.78096 0.19251 0.87549 0.0
C683 C 0.77484 0.18965 0.8628 0.0
C684 C 0.77386 0.18887 0.8874 0.0
C685 C 0.76106 0.18259 0.88666 0.0
U686 U 0.72124 0.16907 0.85656 0.0
O687 O 0.71019 0.14956 0.85815 0.0
O688 O 0.70053 0.1684 0.86519 0.0
C689 C 0.69959 0.15509 0.86418 0.0
C690 C 0.74157 0.17298 0.87366 0.0
C691 C 0.69413 0.14784 0.87622 0.0
C692 C 0.69496 0.14153 0.90022 0.0
C693 C 0.70072 0.14816 0.8889 0.0
C694 C 0.67608 0.13407 0.88627 0.0
C695 C 0.68249 0.13445 0.89909 0.0
C696 C 0.68183 0.14068 0.875 0.0
C697 C 0.71483 0.18017 0.81891 0.0
C698 C 0.6935 0.1802 0.80619 0.0
C699 C 0.71476 0.18437 0.79445 0.0
C700 C 0.72181 0.18293 0.80676 0.0
C701 C 0.70049 0.18309 0.79396 0.0
C702 C 0.7006 0.17877 0.81854 0.0
C703 C 0.72269 0.17929 0.83176 0.0
O704 O 0.73089 0.18102 0.87297 0.0
O705 O 0.74052 0.16223 0.86575 0.0
O706 O 0.7275 0.16724 0.83504 0.0
O707 O 0.71785 0.18602 0.84227 0.0
H708 H 0.75756 0.18126 0.8522 0.0
H709 H 0.78002 0.19214 0.85339 0.0
H710 H 0.77806 0.19109 0.89735 0.0
H711 H 0.75585 0.17994 0.89602 0.0
H712 H 0.70032 0.14193 0.90984 0.0
H713 H 0.71025 0.15359 0.89007 0.0
H714 H 0.6664 0.12894 0.88498 0.0
H715 H 0.67654 0.14034 0.86532 0.0
H716 H 0.68252 0.17925 0.80626 0.0
H717 H 0.72055 0.18633 0.78527 0.0
H718 H 0.73279 0.18404 0.8068 0.0
H719 H 0.69498 0.17667 0.8278 0.0
C720 C 0.1306 0.50499 0.12407 0.0
C721 C 0.12706 0.512 0.11212 0.0
C722 C 0.11787 0.53093 0.12554 0.0
C723 C 0.12077 0.52483 0.11285 0.0
C724 C 0.12146 0.5238 0.13745 0.0
C725 C 0.12775 0.51101 0.13671 0.0
U726 U 0.14132 0.4712 0.10661 0.0
O727 O 0.16082 0.46016 0.10821 0.0
O728 O 0.14198 0.4505 0.11523 0.0
C729 C 0.1553 0.44956 0.11423 0.0
C730 C 0.1374 0.49153 0.12371 0.0
C731 C 0.16255 0.4441 0.12628 0.0
C732 C 0.1688 0.44491 0.15028 0.0
C733 C 0.16218 0.45066 0.13897 0.0
C734 C 0.17636 0.42608 0.13631 0.0
C735 C 0.17593 0.43247 0.14914 0.0
C736 C 0.16975 0.43183 0.12505 0.0
C737 C 0.13022 0.4648 0.06896 0.0
C738 C 0.13016 0.44347 0.05623 0.0
C739 C 0.12605 0.46474 0.04449 0.0
C740 C 0.12749 0.47179 0.0568 0.0
C741 C 0.1273 0.45046 0.044 0.0
C742 C 0.1316 0.45057 0.06859 0.0
C743 C 0.1311 0.47265 0.08181 0.0
O744 O 0.12937 0.48085 0.12301 0.0
O745 O 0.14815 0.49049 0.1158 0.0
O746 O 0.14315 0.47747 0.08509 0.0
O747 O 0.12437 0.46781 0.09232 0.0
H748 H 0.12919 0.50757 0.10225 0.0
H749 H 0.11831 0.53003 0.10344 0.0
H750 H 0.11921 0.52799 0.1474 0.0
H751 H 0.13036 0.50577 0.14607 0.0
H752 H 0.16837 0.45024 0.15992 0.0
H753 H 0.15671 0.46017 0.14015 0.0
H754 H 0.18152 0.41642 0.13501 0.0
H755 H 0.17013 0.42657 0.11536 0.0
H756 H 0.13109 0.43249 0.05631 0.0
H757 H 0.12411 0.47053 0.03531 0.0
H758 H 0.12641 0.48277 0.05684 0.0
H759 H 0.13366 0.44494 0.07785 0.0
C760 C 0.80537 0.8806 0.37403 0.0
C761 C 0.79836 0.87706 0.36208 0.0
C762 C 0.77944 0.86786 0.3755 0.0
C763 C 0.78553 0.87077 0.36281 0.0
C764 C 0.78657 0.87146 0.38742 0.0
C765 C 0.79936 0.87775 0.38667 0.0
U766 U 0.83915 0.89134 0.35656 0.0
O767 O 0.85018 0.91086 0.35815 0.0
O768 O 0.85985 0.89203 0.36518 0.0
C769 C 0.86078 0.90534 0.36419 0.0
C770 C 0.81882 0.88741 0.37366 0.0
C771 C 0.86623 0.9126 0.37623 0.0
C772 C 0.86561 0.91857 0.40031 0.0
C773 C 0.85984 0.91197 0.389 0.0
C774 C 0.8841 0.92666 0.38619 0.0
C775 C 0.8779 0.92595 0.3991 0.0
C776 C 0.87834 0.92006 0.37493 0.0
C777 C 0.84556 0.88023 0.31891 0.0
C778 C 0.86688 0.88018 0.30618 0.0
C779 C 0.84562 0.87605 0.29444 0.0
C780 C 0.83857 0.8775 0.30676 0.0
C781 C 0.85989 0.87731 0.29395 0.0
C782 C 0.85979 0.88161 0.31854 0.0
C783 C 0.83771 0.88111 0.33176 0.0
O784 O 0.82951 0.87938 0.37297 0.0
O785 O 0.81986 0.89816 0.36575 0.0
O786 O 0.83288 0.89316 0.33504 0.0
O787 O 0.84255 0.87439 0.34227 0.0
H788 H 0.80279 0.87919 0.3522 0.0
H789 H 0.78033 0.8683 0.35341 0.0
H790 H 0.78239 0.86921 0.39736 0.0
H791 H 0.8046 0.88036 0.39602 0.0
H792 H 0.86041 0.91791 0.41001 0.0
H793 H 0.85046 0.90629 0.39023 0.0
H794 H 0.89364 0.93202 0.38483 0.0
H795 H 0.88347 0.92065 0.36518 0.0
H796 H 0.87787 0.8811 0.30625 0.0
H797 H 0.83983 0.87411 0.28526 0.0
H798 H 0.82759 0.87641 0.3068 0.0
H799 H 0.86542 0.88368 0.32779 0.0
C800 C 0.92981 0.05535 0.1241 0.0
C801 C 0.9333 0.04832 0.11215 0.0
C802 C 0.94254 1.02941 0.12557 0.0
C803 C 0.93959 0.03548 0.11288 0.0
C804 C 0.939 0.03657 0.13749 0.0
C805 C 0.93272 0.04936 0.13674 0.0
U806 U 0.91908 0.08914 0.10664 0.0
O807 O 0.89957 0.10017 0.10823 0.0
O808 O 0.91841 0.10984 0.11526 0.0
C809 C 0.90509 0.11077 0.11426 0.0
C810 C 0.92301 0.06881 0.12374 0.0
C811 C 0.89784 0.11623 0.1263 0.0
C812 C 0.89164 0.11547 0.15032 0.0
C813 C 0.89826 0.10971 0.13901 0.0
C814 C 0.88397 0.13422 0.13631 0.0
C815 C 0.88445 0.12787 0.14916 0.0
C816 C 0.89057 0.12846 0.12505 0.0
C817 C 0.93018 0.09555 0.06899 0.0
C818 C 0.93029 0.11688 0.05627 0.0
C819 C 0.93431 0.09561 0.04451 0.0
C820 C 0.93287 0.08856 0.05683 0.0
C821 C 0.93311 0.10989 0.04403 0.0
C822 C 0.92885 0.10979 0.06863 0.0
C823 C 0.9293 0.08769 0.08184 0.0
O824 O 0.93104 0.07949 0.12304 0.0
O825 O 0.91226 0.06985 0.11583 0.0
O826 O 0.91726 0.08287 0.08512 0.0
O827 O 0.93604 0.09253 0.09235 0.0
H828 H 0.93113 0.05272 0.10227 0.0
H829 H 0.942 0.03026 0.10347 0.0
H830 H 0.94129 0.0324 0.14743 0.0
H831 H 0.93014 0.05462 0.1461 0.0
H832 H 0.89212 0.11016 0.15998 0.0
H833 H 0.90377 0.10023 0.1402 0.0
H834 H 0.87876 0.14385 0.135 0.0
H835 H 0.89015 0.1337 0.11535 0.0
H836 H 0.9294 0.12787 0.05636 0.0
H837 H 0.93621 0.08982 0.03532 0.0
H838 H 0.93391 0.07758 0.05685 0.0
H839 H 0.92682 0.11542 0.07789 0.0
C840 C 0.30538 0.67977 0.68634 0.0
C841 C 0.29838 0.68332 0.69829 0.0
C842 C 0.27944 0.6925 0.68487 0.0
C843 C 0.28555 0.68961 0.69757 0.0
C844 C 0.28656 0.68889 0.67296 0.0
C845 C 0.29935 0.68261 0.6737 0.0
U846 U 0.33916 0.66905 0.70381 0.0
O847 O 0.35021 0.64954 0.70222 0.0
O848 O 0.35987 0.66838 0.69518 0.0
C849 C 0.3608 0.65506 0.69619 0.0
C850 C 0.31883 0.67297 0.6867 0.0
C851 C 0.36626 0.64781 0.68415 0.0
C852 C 0.36547 0.64157 0.66013 0.0
C853 C 0.35971 0.64819 0.67145 0.0
C854 C 0.38428 0.63398 0.67412 0.0
C855 C 0.3779 0.63443 0.66128 0.0
C856 C 0.37852 0.64059 0.68538 0.0
C857 C 0.34557 0.68016 0.74145 0.0
C858 C 0.36689 0.6802 0.75418 0.0
C859 C 0.34563 0.68435 0.76592 0.0
C860 C 0.33858 0.68291 0.75361 0.0
C861 C 0.35991 0.68308 0.76641 0.0
C862 C 0.3598 0.67877 0.74183 0.0
C863 C 0.33771 0.67927 0.7286 0.0
O864 O 0.32952 0.681 0.6874 0.0
O865 O 0.31988 0.66222 0.69461 0.0
O866 O 0.33289 0.66723 0.72533 0.0
O867 O 0.34255 0.68601 0.71809 0.0
H868 H 0.30281 0.6812 0.70817 0.0
H869 H 0.28036 0.69209 0.70697 0.0
H870 H 0.28237 0.69113 0.66301 0.0
H871 H 0.30459 0.67998 0.66435 0.0
H872 H 0.36015 0.64202 0.65049 0.0
H873 H 0.35022 0.65368 0.67026 0.0
H874 H 0.39392 0.6288 0.67543 0.0
H875 H 0.38378 0.6402 0.69508 0.0
H876 H 0.37788 0.67926 0.75411 0.0
H877 H 0.33984 0.6863 0.7751 0.0
H878 H 0.3276 0.68401 0.75357 0.0
H879 H 0.36543 0.67668 0.73257 0.0
C880 C 0.13061 0.55535 0.43635 0.0
C881 C 0.12706 0.54835 0.4483 0.0
C882 C 0.11787 0.52942 0.43489 0.0
C883 C 0.12077 0.53552 0.44758 0.0
C884 C 0.12147 0.53654 0.42297 0.0
C885 C 0.12776 0.54933 0.42371 0.0
U886 U 0.14133 0.58914 0.45381 0.0
O887 O 0.16084 0.60018 0.45222 0.0
O888 O 0.142 0.60984 0.44519 0.0
C889 C 0.15531 0.61078 0.44619 0.0
C890 C 0.13741 0.56881 0.43671 0.0
C891 C 0.16257 0.61624 0.43415 0.0
C892 C 0.1688 0.61545 0.41013 0.0
C893 C 0.16218 0.60969 0.42145 0.0
C894 C 0.17641 0.63425 0.42412 0.0
C895 C 0.17595 0.62788 0.41128 0.0
C896 C 0.1698 0.62849 0.43539 0.0
C897 C 0.13022 0.59555 0.49146 0.0
C898 C 0.13018 0.61687 0.50419 0.0
C899 C 0.12604 0.59561 0.51593 0.0
C900 C 0.12748 0.58856 0.50361 0.0
C901 C 0.1273 0.60988 0.51642 0.0
C902 C 0.13161 0.60978 0.49183 0.0
C903 C 0.13111 0.58769 0.47861 0.0
O904 O 0.12938 0.57949 0.43741 0.0
O905 O 0.14816 0.56985 0.44462 0.0
O906 O 0.14315 0.58287 0.47533 0.0
O907 O 0.12437 0.59253 0.4681 0.0
H908 H 0.12919 0.55278 0.45818 0.0
H909 H 0.11831 0.53032 0.45698 0.0
H910 H 0.11923 0.53235 0.41302 0.0
H911 H 0.13038 0.55457 0.41436 0.0
H912 H 0.16834 0.61013 0.40049 0.0
H913 H 0.15669 0.6002 0.42026 0.0
H914 H 0.18159 0.64389 0.42543 0.0
H915 H 0.17019 0.63375 0.44508 0.0
H916 H 0.13111 0.62786 0.50411 0.0
H917 H 0.12409 0.58982 0.52511 0.0
H918 H 0.12639 0.57758 0.50358 0.0
H919 H 0.13369 0.6154 0.48257 0.0
C920 C 0.42981 0.50502 0.9363 0.0
C921 C 0.43338 0.51201 0.94825 0.0
C922 C 0.44255 0.53096 0.93484 0.0
C923 C 0.43967 0.52484 0.94753 0.0
C924 C 0.43893 0.52384 0.92292 0.0
C925 C 0.43265 0.51105 0.92366 0.0
U926 U 0.4191 0.47123 0.95377 0.0
O927 O 0.39959 0.46019 0.95218 0.0
O928 O 0.41843 0.45053 0.94514 0.0
C929 C 0.40512 0.44959 0.94615 0.0
C930 C 0.42301 0.49156 0.93666 0.0
C931 C 0.39786 0.44413 0.93411 0.0
C932 C 0.39157 0.44495 0.91011 0.0
C933 C 0.39819 0.4507 0.92142 0.0
C934 C 0.38407 0.42609 0.92407 0.0
C935 C 0.38447 0.43249 0.91125 0.0
C936 C 0.39068 0.43184 0.93534 0.0
C937 C 0.43021 0.46482 0.99141 0.0
C938 C 0.43026 0.44349 1.00413 0.0
C939 C 0.43437 0.46475 1.01588 0.0
C940 C 0.43293 0.47181 1.00357 0.0
C941 C 0.43312 0.45048 1.01637 0.0
C942 C 0.42883 0.45059 0.99178 0.0
C943 C 0.42932 0.47268 0.97856 0.0
O944 O 0.43105 0.48088 0.93736 0.0
O945 O 0.41227 0.49052 0.94457 0.0
O946 O 0.41728 0.4775 0.97528 0.0
O947 O 0.43606 0.46784 0.96805 0.0
H948 H 0.43127 0.50757 0.95813 0.0
H949 H 0.44215 0.53003 0.95694 0.0
H950 H 0.44116 0.52804 0.91298 0.0
H951 H 0.43001 0.50582 0.91431 0.0
H952 H 0.39198 0.45029 0.90048 0.0
H953 H 0.40364 0.46022 0.92025 0.0
H954 H 0.37893 0.41642 0.92537 0.0
H955 H 0.39033 0.42657 0.94502 0.0
H956 H 0.42934 0.43251 1.00405 0.0
H957 H 0.43631 0.47054 1.02506 0.0
H958 H 0.43402 0.48279 1.00354 0.0
H959 H 0.42676 0.44496 0.98252 0.0
C960 C 0.87381 0.80526 0.6797 0.0
C961 C 0.86505 0.80205 0.69053 0.0
C962 C 0.87582 0.77969 0.69307 0.0
C963 C 0.86605 0.78941 0.69715 0.0
C964 C 0.88439 0.78291 0.68204 0.0
C965 C 0.88339 0.79555 0.67546 0.0
U966 U 0.85675 0.83948 0.66973 0.0
O967 O 0.86574 0.86002 0.66907 0.0
O968 O 0.85807 0.85071 0.6503 0.0
C969 C 0.86441 0.86114 0.6558 0.0
C970 C 0.87352 0.81876 0.67298 0.0
C971 C 0.87635 0.86652 0.64831 0.0
C972 C 0.90016 0.86542 0.6414 0.0
C973 C 0.88891 0.85971 0.64817 0.0
C974 C 0.88636 0.88471 0.63471 0.0
C975 C 0.89908 0.87808 0.63464 0.0
C976 C 0.87517 0.87899 0.64146 0.0
C977 C 0.8196 0.84662 0.68187 0.0
C978 C 0.80408 0.86428 0.67393 0.0
C979 C 0.79782 0.85029 0.69322 0.0
C980 C 0.81021 0.84329 0.69211 0.0
C981 C 0.7945 0.86083 0.68408 0.0
C982 C 0.8165 0.85725 0.67284 0.0
C983 C 0.83222 0.83845 0.68063 0.0
O984 O 0.86534 0.82001 0.66246 0.0
O985 O 0.87328 0.82943 0.68106 0.0
O986 O 0.84298 0.84299 0.68716 0.0
O987 O 0.83512 0.8337 0.66845 0.0
H988 H 0.85752 0.80935 0.69395 0.0
H989 H 0.85912 0.78725 0.70545 0.0
H990 H 0.89213 0.77582 0.67868 0.0
H991 H 0.89029 0.79782 0.66715 0.0
H992 H 0.90971 0.85991 0.64145 0.0
H993 H 0.89005 0.85004 0.65336 0.0
H994 H 0.88512 0.89453 0.62986 0.0
H995 H 0.86558 0.88445 0.64149 0.0
H996 H 0.802 0.87245 0.66682 0.0
H997 H 0.79071 0.84717 0.70104 0.0
H998 H 0.81236 0.83508 0.69916 0.0
H999 H 0.82361 0.86003 0.66487 0.0
C1000 C 1.00518 0.12378 0.42966 0.0
C1001 C 1.00838 0.11503 0.44051 0.0
C1002 C 0.03075 0.12579 0.44304 0.0
C1003 C 1.02102 0.11603 0.44713 0.0
C1004 C 1.02755 0.13433 0.43198 0.0
C1005 C 1.01492 0.13334 0.4254 0.0
U1006 U 0.97096 0.10673 0.41966 0.0
O1007 O 0.95043 0.11574 0.41898 0.0
O1008 O 0.95975 0.10806 0.40022 0.0
C1009 C 0.94933 0.11442 0.4057 0.0
C1010 C 0.99169 0.12349 0.42292 0.0
C1011 C 0.94397 0.12637 0.39822 0.0
C1012 C 0.94479 0.15032 0.39179 0.0
C1013 C 0.95053 0.13906 0.39852 0.0
C1014 C 0.92601 0.13628 0.38424 0.0
C1015 C 0.93238 0.14912 0.38463 0.0
C1016 C 0.93175 0.12507 0.39095 0.0
C1017 C 0.9638 0.06958 0.43179 0.0
C1018 C 0.94617 0.05404 0.42381 0.0
C1019 C 0.9601 0.04783 0.44316 0.0
C1020 C 0.96709 0.06021 0.44206 0.0
C1021 C 0.94959 0.04448 0.434 0.0
C1022 C 0.95319 0.06646 0.42273 0.0
C1023 C 0.97197 0.0822 0.43055 0.0
O1024 O 0.99045 0.11531 0.41241 0.0
O1025 O 0.98101 0.12326 0.431 0.0
O1026 O 0.96743 0.09296 0.43708 0.0
O1027 O 0.97673 0.0851 0.41838 0.0
H1028 H 1.00106 0.10752 0.44394 0.0
H1029 H 1.02316 0.10913 0.45545 0.0
H1030 H 0.03466 0.14205 0.42861 0.0
H1031 H 1.01266 0.14021 0.41707 0.0
H1032 H 0.95011 0.15997 0.3922 0.0
H1033 H 0.95999 0.1403 0.40405 0.0
H1034 H 0.91638 0.13493 0.37905 0.0
H1035 H 0.92648 0.11537 0.39063 0.0
H1036 H 0.93802 0.05195 0.41668 0.0
H1037 H 0.96319 0.04072 0.451 0.0
H1038 H 0.97528 0.06238 0.44913 0.0
H1039 H 0.95044 0.07356 0.41474 0.0
C1040 C 0.6866 0.25513 0.17967 0.0
C1041 C 0.69537 0.25834 0.19049 0.0
C1042 C 0.6846 0.2807 0.19305 0.0
C1043 C 0.69437 0.27098 0.19712 0.0
C1044 C 0.67603 0.27748 0.18201 0.0
C1045 C 0.67702 0.26485 0.17543 0.0
U1046 U 0.70365 0.22091 0.16967 0.0
O1047 O 0.69465 0.20038 0.16899 0.0
O1048 O 0.70233 0.2097 0.15023 0.0
C1049 C 0.69597 0.19928 0.15571 0.0
C1050 C 0.68689 0.24164 0.17293 0.0
C1051 C 0.68402 0.19393 0.14822 0.0
C1052 C 0.66007 0.19475 0.14178 0.0
C1053 C 0.67132 0.20049 0.14851 0.0
C1054 C 0.67411 0.17597 0.13424 0.0
C1055 C 0.66126 0.18234 0.13462 0.0
C1056 C 0.68532 0.1817 0.14095 0.0
C1057 C 0.74079 0.21375 0.18182 0.0
C1058 C 0.75634 0.19611 0.17385 0.0
C1059 C 0.76255 0.21005 0.1932 0.0
C1060 C 0.75016 0.21705 0.19209 0.0
C1061 C 0.7659 0.19954 0.18403 0.0
C1062 C 0.74392 0.20314 0.17276 0.0
C1063 C 0.72818 0.22192 0.18057 0.0
O1064 O 0.69508 0.2404 0.16242 0.0
O1065 O 0.68712 0.23096 0.181 0.0
O1066 O 0.71741 0.21738 0.1871 0.0
O1067 O 0.72529 0.22668 0.1684 0.0
H1068 H 0.70289 0.25103 0.19391 0.0
H1069 H 0.7013 0.27313 0.20542 0.0
H1070 H 0.66829 0.28459 0.17866 0.0
H1071 H 0.67013 0.26259 0.16711 0.0
H1072 H 0.65042 0.20007 0.14218 0.0
H1073 H 0.67009 0.20995 0.15404 0.0
H1074 H 0.67546 0.16633 0.12905 0.0
H1075 H 0.69501 0.17644 0.14064 0.0
H1076 H 0.75843 0.18797 0.16672 0.0
H1077 H 0.76965 0.21315 0.20104 0.0
H1078 H 0.74799 0.22523 0.19916 0.0
H1079 H 0.73682 0.20038 0.16477 0.0
C1080 C 0.5552 0.93662 0.92966 0.0
C1081 C 0.55201 0.94537 0.94051 0.0
C1082 C 0.52964 0.93463 0.94305 0.0
C1083 C 0.53938 0.94438 0.94713 0.0
C1084 C 0.53284 0.92607 0.932 0.0
C1085 C 0.54547 0.92706 0.92541 0.0
U1086 U 0.58944 0.95365 0.91965 0.0
O1087 O 0.60996 0.94463 0.91895 0.0
O1088 O 0.60063 0.95231 0.9002 0.0
C1089 C 0.61105 0.94594 0.90568 0.0
C1090 C 0.5687 0.9369 0.92292 0.0
C1091 C 0.61638 0.93398 0.89819 0.0
C1092 C 0.61581 0.90991 0.89216 0.0
C1093 C 0.61006 0.92118 0.89886 0.0
C1094 C 0.63412 0.92415 0.88387 0.0
C1095 C 0.62801 0.9112 0.88465 0.0
C1096 C 0.62838 0.93537 0.89056 0.0
C1097 C 0.59663 0.99079 0.93179 0.0
C1098 C 0.61422 1.00636 0.92377 0.0
C1099 C 0.60039 1.01251 0.94321 0.0
C1100 C 0.59339 1.00013 0.9421 0.0
C1101 C 0.61084 1.01589 0.934 0.0
C1102 C 0.60719 0.99394 0.92268 0.0
C1103 C 0.58846 0.97818 0.93055 0.0
O1104 O 0.56994 0.94509 0.91241 0.0
O1105 O 0.57938 0.93713 0.93099 0.0
O1106 O 0.59299 0.96741 0.93707 0.0
O1107 O 0.58369 0.97529 0.91838 0.0
H1108 H 0.55933 0.95288 0.94393 0.0
H1109 H 0.53723 0.95129 0.95545 0.0
H1110 H 0.52573 0.91835 0.92863 0.0
H1111 H 0.54772 0.92018 0.91708 0.0
H1112 H 0.61068 0.90018 0.89287 0.0
H1113 H 0.60077 0.91987 0.90467 0.0
H1114 H 0.64359 0.92558 0.8784 0.0
H1115 H 0.63346 0.94515 0.88995 0.0
H1116 H 0.62232 1.00848 0.9166 0.0
H1117 H 0.59733 1.01959 0.95109 0.0
H1118 H 0.58524 0.99794 0.94921 0.0
H1119 H 0.60991 0.98687 0.91466 0.0
C1120 C 0.87382 0.25511 0.88072 0.0
C1121 C 0.86508 0.25831 0.86987 0.0
C1122 C 0.87584 0.28068 0.86734 0.0
C1123 C 0.86608 0.27095 0.86325 0.0
C1124 C 0.88438 0.27747 0.8784 0.0
C1125 C 0.88338 0.26484 0.88498 0.0
U1126 U 0.85676 0.2209 0.8907 0.0
O1127 O 0.86575 0.20036 0.89136 0.0
O1128 O 0.85808 0.20967 0.91013 0.0
C1129 C 0.86442 0.19924 0.90463 0.0
C1130 C 0.87353 0.24161 0.88745 0.0
C1131 C 0.87636 0.19387 0.91212 0.0
C1132 C 0.90019 0.19492 0.91897 0.0
C1133 C 0.88894 0.20064 0.91221 0.0
C1134 C 0.88636 0.17571 0.92577 0.0
C1135 C 0.89909 0.1823 0.92578 0.0
C1136 C 0.87516 0.18143 0.91903 0.0
C1137 C 0.81961 0.21376 0.87855 0.0
C1138 C 0.80408 0.1961 0.8865 0.0
C1139 C 0.79784 0.21008 0.8672 0.0
C1140 C 0.81022 0.21708 0.86831 0.0
C1141 C 0.7945 0.19955 0.87634 0.0
C1142 C 0.8165 0.20313 0.88759 0.0
C1143 C 0.83223 0.22192 0.8798 0.0
O1144 O 0.86535 0.24037 0.89796 0.0
O1145 O 0.87329 0.23094 0.87937 0.0
O1146 O 0.84299 0.21739 0.87327 0.0
O1147 O 0.83513 0.22667 0.89197 0.0
H1148 H 0.85756 0.251 0.86644 0.0
H1149 H 0.85917 0.2731 0.85493 0.0
H1150 H 0.89211 0.28458 0.88177 0.0
H1151 H 0.89026 0.26258 0.89331 0.0
H1152 H 0.90975 0.20041 0.91887 0.0
H1153 H 0.89009 0.21028 0.90696 0.0
H1154 H 0.8851 0.16591 0.93067 0.0
H1155 H 0.86555 0.17599 0.91905 0.0
H1156 H 0.802 0.18793 0.89361 0.0
H1157 H 0.79072 0.2132 0.85938 0.0
H1158 H 0.81238 0.22529 0.86126 0.0
H1159 H 0.82361 0.20035 0.89556 0.0
C1160 C 0.55522 0.12376 0.63073 0.0
C1161 C 0.55202 0.11502 0.61987 0.0
C1162 C 0.52965 0.12577 0.61735 0.0
C1163 C 0.53939 0.11602 0.61325 0.0
C1164 C 0.53285 0.13431 0.62841 0.0
C1165 C 0.54549 0.13332 0.63499 0.0
U1166 U 0.58944 0.10672 0.64073 0.0
O1167 O 0.60997 0.11572 0.64141 0.0
O1168 O 0.60065 0.10805 0.66017 0.0
C1169 C 0.61108 0.11441 0.65468 0.0
C1170 C 0.56872 0.12348 0.63746 0.0
C1171 C 0.61643 0.12636 0.66217 0.0
C1172 C 0.61562 0.15032 0.66858 0.0
C1173 C 0.60989 0.13906 0.66185 0.0
C1174 C 0.63437 0.13626 0.67617 0.0
C1175 C 0.62802 0.14912 0.67576 0.0
C1176 C 0.62864 0.12505 0.66946 0.0
C1177 C 0.59661 0.06957 0.62859 0.0
C1178 C 0.61424 0.05403 0.63658 0.0
C1179 C 0.60033 0.04782 0.61722 0.0
C1180 C 0.59333 0.0602 0.61832 0.0
C1181 C 0.61082 0.04447 0.62639 0.0
C1182 C 0.60721 0.06645 0.63767 0.0
C1183 C 0.58844 0.08219 0.62983 0.0
O1184 O 0.56996 0.11529 0.64798 0.0
O1185 O 0.57939 0.12324 0.62939 0.0
O1186 O 0.59297 0.09295 0.6233 0.0
O1187 O 0.58368 0.08508 0.64201 0.0
H1188 H 0.55934 0.10752 0.61644 0.0
H1189 H 0.53724 0.10912 0.60493 0.0
H1190 H 0.52574 0.14203 0.63178 0.0
H1191 H 0.54774 0.14019 0.64332 0.0
H1192 H 0.61031 0.15997 0.66815 0.0
H1193 H 0.60043 0.14029 0.65631 0.0
H1194 H 0.644 0.13491 0.68138 0.0
H1195 H 0.63389 0.11535 0.6698 0.0
H1196 H 0.62238 0.05193 0.64372 0.0
H1197 H 0.59724 0.04072 0.60937 0.0
H1198 H 0.58515 0.06237 0.61124 0.0
H1199 H 0.60996 0.07354 0.64566 0.0
C1200 C 0.68661 0.80521 0.38074 0.0
C1201 C 0.69537 0.80201 0.36991 0.0
C1202 C 0.6846 0.77964 0.36736 0.0
C1203 C 0.69437 0.78937 0.36328 0.0
C1204 C 0.67605 0.78285 0.37841 0.0
C1205 C 0.67704 0.79548 0.38499 0.0
U1206 U 0.70366 0.83943 0.39074 0.0
O1207 O 0.69465 0.85996 0.39142 0.0
O1208 O 0.70234 0.85064 0.41018 0.0
C1209 C 0.69598 0.86106 0.40469 0.0
C1210 C 0.6869 0.81871 0.38748 0.0
C1211 C 0.68403 0.86642 0.41218 0.0
C1212 C 0.66008 0.86559 0.41863 0.0
C1213 C 0.67133 0.85986 0.41189 0.0
C1214 C 0.67412 0.88437 0.42618 0.0
C1215 C 0.66128 0.87801 0.42579 0.0
C1216 C 0.68533 0.87864 0.41946 0.0
C1217 C 0.7408 0.84661 0.37858 0.0
C1218 C 0.75635 0.86424 0.38655 0.0
C1219 C 0.76255 0.85032 0.36719 0.0
C1220 C 0.75016 0.84332 0.3683 0.0
C1221 C 0.7659 0.86082 0.37636 0.0
C1222 C 0.74393 0.85721 0.38765 0.0
C1223 C 0.72818 0.83843 0.37983 0.0
O1224 O 0.69509 0.81995 0.39799 0.0
O1225 O 0.68713 0.82938 0.3794 0.0
O1226 O 0.71742 0.84296 0.3733 0.0
O1227 O 0.72529 0.83367 0.392 0.0
H1228 H 0.70289 0.80932 0.36648 0.0
H1229 H 0.70128 0.78722 0.35497 0.0
H1230 H 0.66831 0.77575 0.38177 0.0
H1231 H 0.67015 0.79775 0.39331 0.0
H1232 H 0.65043 0.86027 0.41823 0.0
H1233 H 0.6701 0.85039 0.40637 0.0
H1234 H 0.67547 0.894 0.43137 0.0
H1235 H 0.69503 0.8839 0.41977 0.0
H1236 H 0.75844 0.87238 0.39369 0.0
H1237 H 0.76964 0.84723 0.35934 0.0
H1238 H 0.74799 0.83514 0.36123 0.0
H1239 H 0.73683 0.85996 0.39564 0.0
C1240 C 1.00521 0.9366 0.13076 0.0
C1241 C 1.00839 0.94532 0.11989 0.0
C1242 C 0.03077 0.93459 0.11737 0.0
C1243 C 1.02102 0.94433 0.11326 0.0
C1244 C 1.02758 0.92607 0.12845 0.0
C1245 C 1.01495 0.92706 0.13503 0.0
U1246 U 0.97098 0.95362 0.14078 0.0
O1247 O 0.95045 0.94461 0.14147 0.0
O1248 O 0.95978 0.95229 0.16023 0.0
C1249 C 0.94936 0.94592 0.15475 0.0
C1250 C 0.99171 0.93688 0.1375 0.0
C1251 C 0.94403 0.93396 0.16223 0.0
C1252 C 0.94461 0.9099 0.16828 0.0
C1253 C 0.95036 0.92116 0.16158 0.0
C1254 C 0.92628 0.92413 0.17654 0.0
C1255 C 0.9324 0.91119 0.17578 0.0
C1256 C 0.93203 0.93535 0.16985 0.0
C1257 C 0.96378 0.99077 0.12863 0.0
C1258 C 0.9462 1.00634 0.13665 0.0
C1259 C 0.96003 1.01249 0.11722 0.0
C1260 C 0.96703 1.00011 0.11833 0.0
C1261 C 0.94958 1.01587 0.12643 0.0
C1262 C 0.95322 0.99392 0.13774 0.0
C1263 C 0.97196 0.97815 0.12987 0.0
O1264 O 0.99047 0.94506 0.14801 0.0
O1265 O 0.98103 0.93711 0.12943 0.0
O1266 O 0.96743 0.96739 0.12335 0.0
O1267 O 0.97673 0.97526 0.14205 0.0
H1268 H 1.00106 0.95282 0.11645 0.0
H1269 H 1.02316 0.95122 0.10493 0.0
H1270 H 0.0347 0.91836 0.13183 0.0
H1271 H 1.01271 0.9202 0.14338 0.0
H1272 H 0.94974 0.90017 0.16758 0.0
H1273 H 0.95965 0.91986 0.15578 0.0
H1274 H 0.91681 0.92556 0.182 0.0
H1275 H 0.92694 0.94513 0.17045 0.0
H1276 H 0.93809 1.00846 0.14382 0.0
H1277 H 0.96309 1.01957 0.10934 0.0
H1278 H 0.97518 0.99792 0.11122 0.0
H1279 H 0.9505 0.98685 0.14576 0.0
C1280 C 0.67969 0.87379 0.8053 0.0
C1281 C 0.69051 0.86503 0.80209 0.0
C1282 C 0.69306 0.8758 0.77973 0.0
C1283 C 0.69713 0.86603 0.78945 0.0
C1284 C 0.68202 0.88437 0.78295 0.0
C1285 C 0.67544 0.88337 0.79559 0.0
U1286 U 0.66971 0.85673 0.83952 0.0
O1287 O 0.66905 0.86572 0.86006 0.0
O1288 O 0.65028 0.85805 0.85075 0.0
C1289 C 0.65577 0.8644 0.86118 0.0
C1290 C 0.67296 0.8735 0.8188 0.0
C1291 C 0.64829 0.87633 0.86655 0.0
C1292 C 0.64144 0.90017 0.86549 0.0
C1293 C 0.6482 0.88892 0.85977 0.0
C1294 C 0.63465 0.88634 0.88472 0.0
C1295 C 0.63464 0.89907 0.87811 0.0
C1296 C 0.64139 0.87514 0.879 0.0
C1297 C 0.68185 0.81958 0.84666 0.0
C1298 C 0.6739 0.80405 0.86431 0.0
C1299 C 0.6932 0.79781 0.85033 0.0
C1300 C 0.69209 0.8102 0.84334 0.0
C1301 C 0.68406 0.79447 0.86086 0.0
C1302 C 0.67281 0.81647 0.85729 0.0
C1303 C 0.6806 0.8322 0.83849 0.0
O1304 O 0.66244 0.86532 0.82005 0.0
O1305 O 0.68104 0.87326 0.82948 0.0
O1306 O 0.68714 0.84296 0.84303 0.0
O1307 O 0.66843 0.8351 0.83374 0.0
H1308 H 0.69393 0.8575 0.8094 0.0
H1309 H 0.70543 0.8591 0.78729 0.0
H1310 H 0.67867 0.89211 0.77585 0.0
H1311 H 0.66713 0.89027 0.79786 0.0
H1312 H 0.64153 0.90972 0.85999 0.0
H1313 H 0.65344 0.89006 0.85013 0.0
H1314 H 0.62976 0.88509 0.89451 0.0
H1315 H 0.64138 0.86554 0.88444 0.0
H1316 H 0.66679 0.80197 0.87248 0.0
H1317 H 0.70103 0.7907 0.84722 0.0
H1318 H 0.69915 0.81235 0.83513 0.0
H1319 H 0.66484 0.82358 0.86006 0.0
C1320 C 0.93662 0.92963 0.5552 0.0
C1321 C 0.94537 0.94048 0.55201 0.0
C1322 C 0.93463 0.94302 0.52963 0.0
C1323 C 0.94437 0.94711 0.53938 0.0
C1324 C 0.92609 0.93195 0.53283 0.0
C1325 C 0.92707 0.92536 0.54546 0.0
U1326 U 0.95365 0.91961 0.58943 0.0
O1327 O 0.94463 0.91891 0.60995 0.0
O1328 O 0.95231 0.90016 0.60063 0.0
C1329 C 0.94594 0.90564 0.61104 0.0
C1330 C 0.9369 0.92288 0.56869 0.0
C1331 C 0.93398 0.89815 0.61637 0.0
C1332 C 0.9099 0.89217 0.61584 0.0
C1333 C 0.92116 0.89887 0.61009 0.0
C1334 C 0.92417 0.88378 0.63408 0.0
C1335 C 0.91121 0.88461 0.62801 0.0
C1336 C 0.93539 0.89047 0.62833 0.0
C1337 C 0.99079 0.93176 0.59663 0.0
C1338 C 1.00637 0.92373 0.61421 0.0
C1339 C 1.01251 0.94319 0.6004 0.0
C1340 C 1.00012 0.94208 0.5934 0.0
C1341 C 1.0159 0.93397 0.61084 0.0
C1342 C 0.99395 0.92264 0.60718 0.0
C1343 C 0.97818 0.93052 0.58845 0.0
O1344 O 0.94509 0.91237 0.56993 0.0
O1345 O 0.93713 0.93095 0.57937 0.0
O1346 O 0.96741 0.93704 0.59298 0.0
O1347 O 0.97529 0.91835 0.58368 0.0
H1348 H 0.95287 0.94391 0.55934 0.0
H1349 H 0.95128 0.95543 0.53724 0.0
H1350 H 0.91837 0.92858 0.52571 0.0
H1351 H 0.9202 0.91703 0.54771 0.0
H1352 H 0.90015 0.89291 0.61074 0.0
H1353 H 0.91984 0.90471 0.60082 0.0
H1354 H 0.92561 0.87828 0.64353 0.0
H1355 H 0.94518 0.88982 0.63339 0.0
H1356 H 1.0085 0.91656 0.6223 0.0
H1357 H 1.01958 0.95108 0.59735 0.0
H1358 H 0.99792 0.9492 0.58526 0.0
H1359 H 0.98689 0.91461 0.60989 0.0
C1360 C 0.88074 0.18659 0.30526 0.0
C1361 C 0.86992 0.19536 0.30205 0.0
C1362 C 0.86735 0.18459 0.27969 0.0
C1363 C 0.86329 0.19437 0.28941 0.0
C1364 C 0.87839 0.17601 0.28291 0.0
C1365 C 0.88497 0.17701 0.29554 0.0
U1366 U 0.89074 0.20364 0.33948 0.0
O1367 O 0.89143 0.19464 0.36001 0.0
O1368 O 0.91018 0.20232 0.35069 0.0
C1369 C 0.9047 0.19596 0.36111 0.0
C1370 C 0.88748 0.18688 0.31875 0.0
C1371 C 0.91219 0.18401 0.36646 0.0
C1372 C 0.91863 0.16006 0.36563 0.0
C1373 C 0.9119 0.17132 0.3599 0.0
C1374 C 0.92617 0.1741 0.38442 0.0
C1375 C 0.92579 0.16126 0.37805 0.0
C1376 C 0.91945 0.18531 0.37869 0.0
C1377 C 0.87859 0.24078 0.34664 0.0
C1378 C 0.88657 0.25633 0.36427 0.0
C1379 C 0.86722 0.26254 0.35035 0.0
C1380 C 0.86832 0.25015 0.34335 0.0
C1381 C 0.87638 0.26589 0.36085 0.0
C1382 C 0.88766 0.24391 0.35725 0.0
C1383 C 0.87984 0.22817 0.33847 0.0
O1384 O 0.89799 0.19507 0.31999 0.0
O1385 O 0.8794 0.18711 0.32943 0.0
O1386 O 0.87331 0.2174 0.34301 0.0
O1387 O 0.89201 0.22528 0.33371 0.0
H1388 H 0.86651 0.20289 0.30936 0.0
H1389 H 0.85499 0.2013 0.28726 0.0
H1390 H 0.88173 0.16827 0.27581 0.0
H1391 H 0.89328 0.17011 0.29781 0.0
H1392 H 0.91823 0.15041 0.36031 0.0
H1393 H 0.90638 0.17009 0.35043 0.0
H1394 H 0.93135 0.17544 0.39406 0.0
H1395 H 0.91977 0.195 0.38396 0.0
H1396 H 0.8937 0.25843 0.37242 0.0
H1397 H 0.85937 0.26964 0.34725 0.0
H1398 H 0.86125 0.24798 0.33516 0.0
H1399 H 0.89564 0.23682 0.36 0.0
C1400 C 0.62379 0.13072 0.05522 0.0
C1401 C 0.61506 0.11986 0.05203 0.0
C1402 C 0.6258 0.11734 1.02965 0.0
C1403 C 0.61606 0.11324 0.0394 0.0
C1404 C 0.63434 0.12842 0.03285 0.0
C1405 C 0.63334 0.135 0.04549 0.0
U1406 U 0.60674 0.14072 0.08945 0.0
O1407 O 0.61575 0.1414 0.10998 0.0
O1408 O 0.60807 0.16016 0.10066 0.0
C1409 C 0.61443 0.15467 0.11108 0.0
C1410 C 0.62351 0.13746 0.06872 0.0
C1411 C 0.62638 0.16216 0.11644 0.0
C1412 C 0.65033 0.1686 0.11562 0.0
C1413 C 0.63907 0.16186 0.10988 0.0
C1414 C 0.63629 0.17614 0.1344 0.0
C1415 C 0.64913 0.17576 0.12804 0.0
C1416 C 0.62508 0.16943 0.12866 0.0
C1417 C 0.5696 0.12858 0.09662 0.0
C1418 C 0.55405 0.13656 0.11425 0.0
C1419 C 0.54784 0.11721 0.10033 0.0
C1420 C 0.56023 0.11831 0.09333 0.0
C1421 C 0.54449 0.12638 0.11083 0.0
C1422 C 0.56648 0.13765 0.10722 0.0
C1423 C 0.58221 0.12982 0.08844 0.0
O1424 O 0.61532 0.14797 0.06996 0.0
O1425 O 0.62327 0.12938 0.0794 0.0
O1426 O 0.59298 0.12329 0.09298 0.0
O1427 O 0.58511 0.14199 0.08368 0.0
H1428 H 0.60756 0.11642 0.05935 0.0
H1429 H 0.60917 0.10491 0.03725 0.0
H1430 H 0.64205 0.13179 1.02574 0.0
H1431 H 0.64021 0.14334 0.04774 0.0
H1432 H 0.65998 0.16819 0.1103 0.0
H1433 H 0.64031 0.15634 0.10041 0.0
H1434 H 0.63494 0.18133 0.14403 0.0
H1435 H 0.61538 0.16974 0.13393 0.0
H1436 H 0.55196 0.14369 0.12239 0.0
H1437 H 0.54074 0.10936 0.09723 0.0
H1438 H 0.5624 0.11123 0.08514 0.0
H1439 H 0.57357 0.14563 0.10997 0.0
C1440 C 0.67965 0.18659 0.75514 0.0
C1441 C 0.69048 0.19535 0.75834 0.0
C1442 C 0.69304 0.18459 0.78071 0.0
C1443 C 0.69711 0.19436 0.77098 0.0
C1444 C 0.682 0.17602 0.77749 0.0
C1445 C 0.67541 0.17701 0.76486 0.0
U1446 U 0.66965 0.20363 0.72092 0.0
O1447 O 0.66897 0.19463 0.70038 0.0
O1448 O 0.65021 0.20231 0.7097 0.0
C1449 C 0.6557 0.19595 0.69928 0.0
C1450 C 0.67291 0.18687 0.74164 0.0
C1451 C 0.64821 0.18401 0.69393 0.0
C1452 C 0.64174 0.16006 0.69477 0.0
C1453 C 0.64848 0.17132 0.7005 0.0
C1454 C 0.63425 0.17408 0.67596 0.0
C1455 C 0.63461 0.16125 0.68234 0.0
C1456 C 0.64097 0.1853 0.68169 0.0
C1457 C 0.6818 0.24078 0.71375 0.0
C1458 C 0.67383 0.25633 0.69612 0.0
C1459 C 0.69318 0.26253 0.71005 0.0
C1460 C 0.69207 0.25015 0.71705 0.0
C1461 C 0.68401 0.26588 0.69955 0.0
C1462 C 0.67274 0.2439 0.70315 0.0
C1463 C 0.68056 0.22816 0.72192 0.0
O1464 O 0.6624 0.19506 0.7404 0.0
O1465 O 0.68099 0.18711 0.73096 0.0
O1466 O 0.68708 0.2174 0.71739 0.0
O1467 O 0.66838 0.22527 0.72668 0.0
H1468 H 0.6939 0.20288 0.75103 0.0
H1469 H 0.70541 0.20128 0.77313 0.0
H1470 H 0.67865 0.16828 0.78459 0.0
H1471 H 0.6671 0.17012 0.7626 0.0
H1472 H 0.64213 0.15041 0.7001 0.0
H1473 H 0.65398 0.17009 0.70998 0.0
H1474 H 0.62908 0.17542 0.66631 0.0
H1475 H 0.64067 0.19498 0.67641 0.0
H1476 H 0.6667 0.25842 0.68798 0.0
H1477 H 0.70103 0.26963 0.71315 0.0
H1478 H 0.69915 0.24797 0.72523 0.0
H1479 H 0.66475 0.23681 0.70039 0.0
C1480 C 0.62381 0.92962 0.50519 0.0
C1481 C 0.61505 0.94046 0.5084 0.0
C1482 C 0.62581 0.94301 0.53076 0.0
C1483 C 0.61605 0.94708 0.52103 0.0
C1484 C 0.63438 0.93196 0.52755 0.0
C1485 C 0.63338 0.92538 0.51492 0.0
U1486 U 0.60676 0.91962 0.47097 0.0
O1487 O 0.61577 0.91894 0.45044 0.0
O1488 O 0.60809 0.90019 0.45976 0.0
C1489 C 0.61445 0.90567 0.44934 0.0
C1490 C 0.62353 0.92289 0.4917 0.0
C1491 C 0.62639 0.89819 0.44398 0.0
C1492 C 0.65035 0.89174 0.4448 0.0
C1493 C 0.63909 0.89847 0.45054 0.0
C1494 C 0.6363 0.8842 0.42602 0.0
C1495 C 0.64915 0.88459 0.43238 0.0
C1496 C 0.62509 0.89092 0.43175 0.0
C1497 C 0.56962 0.93177 0.46381 0.0
C1498 C 0.55408 0.9238 0.44617 0.0
C1499 C 0.54786 0.94313 0.46011 0.0
C1500 C 0.56024 0.94202 0.46711 0.0
C1501 C 0.54451 0.93397 0.4496 0.0
C1502 C 0.5665 0.92271 0.4532 0.0
C1503 C 0.58223 0.93052 0.47198 0.0
O1504 O 0.61534 0.91237 0.49046 0.0
O1505 O 0.62329 0.93096 0.48102 0.0
O1506 O 0.593 0.93705 0.46745 0.0
O1507 O 0.58513 0.91835 0.47674 0.0
H1508 H 0.60753 0.94388 0.50108 0.0
H1509 H 0.60913 0.95539 0.52319 0.0
H1510 H 0.64211 0.9286 0.53466 0.0
H1511 H 0.64027 0.91706 0.51266 0.0
H1512 H 0.66 0.89214 0.45012 0.0
H1513 H 0.64032 0.904 0.46001 0.0
H1514 H 0.63495 0.87902 0.41638 0.0
H1515 H 0.6154 0.89061 0.42649 0.0
H1516 H 0.55199 0.91667 0.43802 0.0
H1517 H 0.54075 0.95097 0.46321 0.0
H1518 H 0.56241 0.94909 0.4753 0.0
H1519 H 0.5736 0.91473 0.45044 0.0
C1520 C 0.88071 0.87378 0.25512 0.0
C1521 C 0.86986 0.86504 0.25833 0.0
C1522 C 0.86734 0.8758 0.2807 0.0
C1523 C 0.86325 0.86604 0.27096 0.0
C1524 C 0.87839 0.88435 0.27748 0.0
C1525 C 0.88497 0.88335 0.26485 0.0
U1526 U 0.89069 0.85672 0.22091 0.0
O1527 O 0.89136 0.86571 0.20037 0.0
O1528 O 0.91012 0.85804 0.20968 0.0
C1529 C 0.90463 0.86438 0.19925 0.0
C1530 C 0.88744 0.87349 0.24162 0.0
C1531 C 0.91211 0.87632 0.19388 0.0
C1532 C 0.91896 0.90016 0.19494 0.0
C1533 C 0.9122 0.88891 0.20066 0.0
C1534 C 0.92577 0.88632 0.17572 0.0
C1535 C 0.92577 0.89906 0.18232 0.0
C1536 C 0.91903 0.87512 0.18144 0.0
C1537 C 0.87855 0.81957 0.21377 0.0
C1538 C 0.8865 0.80404 0.19611 0.0
C1539 C 0.8672 0.7978 0.2101 0.0
C1540 C 0.86831 0.81018 0.21709 0.0
C1541 C 0.87635 0.79446 0.19956 0.0
C1542 C 0.88759 0.81646 0.20314 0.0
C1543 C 0.8798 0.83219 0.22194 0.0
O1544 O 0.89796 0.86531 0.24038 0.0
O1545 O 0.87936 0.87325 0.23095 0.0
O1546 O 0.87327 0.84295 0.2174 0.0
O1547 O 0.89197 0.83509 0.22669 0.0
H1548 H 0.86643 0.85752 0.25101 0.0
H1549 H 0.85493 0.85914 0.27312 0.0
H1550 H 0.88176 0.89207 0.28459 0.0
H1551 H 0.8933 0.89022 0.26259 0.0
H1552 H 0.91885 0.90972 0.20043 0.0
H1553 H 0.90695 0.89006 0.21029 0.0
H1554 H 0.93068 0.88506 0.16593 0.0
H1555 H 0.91905 0.86552 0.17601 0.0
H1556 H 0.89362 0.80196 0.18795 0.0
H1557 H 0.85938 0.79068 0.21321 0.0
H1558 H 0.86126 0.81234 0.2253 0.0
H1559 H 0.89556 0.82357 0.20036 0.0
C1560 C 0.93662 0.13073 1.00522 0.0
C1561 C 0.94533 0.11985 1.00839 0.0
C1562 C 0.93461 0.11734 0.03078 0.0
C1563 C 0.94433 0.11322 1.02102 0.0
C1564 C 0.9261 0.12843 1.0276 0.0
C1565 C 0.92709 0.13502 1.01497 0.0
U1566 U 0.95365 0.14075 0.97099 0.0
O1567 O 0.94463 0.14145 0.95046 0.0
O1568 O 0.95232 0.1602 0.95979 0.0
C1569 C 0.94594 0.15472 0.94937 0.0
C1570 C 0.9369 0.13748 0.99172 0.0
C1571 C 0.93399 0.16221 0.94404 0.0
C1572 C 0.90992 0.16826 0.94461 0.0
C1573 C 0.92119 0.16155 0.95036 0.0
C1574 C 0.92417 0.17653 0.92629 0.0
C1575 C 0.91122 0.17576 0.93241 0.0
C1576 C 0.93538 0.16984 0.93204 0.0
C1577 C 0.99079 0.1286 0.96379 0.0
C1578 C 1.00636 0.13662 0.9462 0.0
C1579 C 1.01251 0.11719 0.96004 0.0
C1580 C 1.00013 0.11829 0.96704 0.0
C1581 C 1.01589 0.12639 0.94958 0.0
C1582 C 0.99394 0.13771 0.95323 0.0
C1583 C 0.97818 0.12984 0.97197 0.0
O1584 O 0.94509 0.14799 0.99048 0.0
O1585 O 0.93713 0.12941 0.98104 0.0
O1586 O 0.96741 0.12332 0.96743 0.0
O1587 O 0.97529 0.14201 0.97674 0.0
H1588 H 0.95281 0.1164 1.00106 0.0
H1589 H 0.95121 0.10488 1.02315 0.0
H1590 H 0.9184 0.13182 0.03472 0.0
H1591 H 0.92024 0.14337 1.01273 0.0
H1592 H 0.90019 0.16756 0.94974 0.0
H1593 H 0.91988 0.15575 0.95965 0.0
H1594 H 0.9256 0.18199 0.91682 0.0
H1595 H 0.94516 0.17044 0.92696 0.0
H1596 H 1.00848 0.14378 0.93809 0.0
H1597 H 1.0196 0.10931 0.9631 0.0
H1598 H 0.99794 0.11119 0.97519 0.0
H1599 H 0.98687 0.14572 0.95051 0.0
C1600 C 0.80526 0.67963 0.8738 0.0
C1601 C 0.80207 0.69048 0.86505 0.0
C1602 C 0.7797 0.69302 0.87581 0.0
C1603 C 0.78943 0.6971 0.86605 0.0
C1604 C 0.7829 0.68196 0.88436 0.0
C1605 C 0.79554 0.67538 0.88336 0.0
U1606 U 0.83949 0.66964 0.85675 0.0
O1607 O 0.86002 0.66896 0.86576 0.0
O1608 O 0.8507 0.6502 0.85807 0.0
C1609 C 0.86112 0.65569 0.86443 0.0
C1610 C 0.81876 0.6729 0.87351 0.0
C1611 C 0.86647 0.6482 0.87638 0.0
C1612 C 0.86565 0.64176 0.90034 0.0
C1613 C 0.85992 0.6485 0.88908 0.0
C1614 C 0.88442 0.63421 0.88629 0.0
C1615 C 0.87806 0.6346 0.89914 0.0
C1616 C 0.87869 0.64092 0.87508 0.0
C1617 C 0.84666 0.6818 0.81961 0.0
C1618 C 0.86428 0.67382 0.80406 0.0
C1619 C 0.85036 0.69318 0.79786 0.0
C1620 C 0.84337 0.69207 0.81024 0.0
C1621 C 0.86086 0.68401 0.7945 0.0
C1622 C 0.85726 0.67273 0.81648 0.0
C1623 C 0.83848 0.68055 0.83222 0.0
O1624 O 0.82 0.66239 0.86532 0.0
O1625 O 0.82944 0.68097 0.87328 0.0
O1626 O 0.84302 0.68707 0.84299 0.0
O1627 O 0.83372 0.66838 0.83511 0.0
H1628 H 0.80938 0.6939 0.85753 0.0
H1629 H 0.78728 0.70542 0.85914 0.0
H1630 H 0.7758 0.6786 0.89208 0.0
H1631 H 0.7978 0.66705 0.89024 0.0
H1632 H 0.86033 0.64217 0.90999 0.0
H1633 H 0.85045 0.65403 0.89031 0.0
H1634 H 0.89406 0.62902 0.88494 0.0
H1635 H 0.88396 0.6406 0.86539 0.0
H1636 H 0.87242 0.66669 0.80196 0.0
H1637 H 0.84727 0.70103 0.79076 0.0
H1638 H 0.83518 0.69915 0.81242 0.0
H1639 H 0.86001 0.66474 0.82357 0.0
C1640 C 0.30525 0.88072 0.18661 0.0
C1641 C 0.30205 0.86988 0.19537 0.0
C1642 C 0.27968 0.86733 0.1846 0.0
C1643 C 0.28942 0.86325 0.19437 0.0
C1644 C 0.28289 0.87838 0.17605 0.0
C1645 C 0.29553 0.88497 0.17704 0.0
U1646 U 0.33947 0.89072 0.20366 0.0
O1647 O 0.36 0.89141 0.19466 0.0
O1648 O 0.35068 0.91016 0.20234 0.0
C1649 C 0.3611 0.90468 0.19598 0.0
C1650 C 0.31875 0.88746 0.1869 0.0
C1651 C 0.36645 0.91217 0.18404 0.0
C1652 C 0.36563 0.91861 0.16008 0.0
C1653 C 0.3599 0.91187 0.17134 0.0
C1654 C 0.3844 0.92617 0.17413 0.0
C1655 C 0.37804 0.92578 0.16128 0.0
C1656 C 0.37867 0.91945 0.18534 0.0
C1657 C 0.34664 0.87856 0.24081 0.0
C1658 C 0.36427 0.88654 0.25635 0.0
C1659 C 0.35035 0.86718 0.26256 0.0
C1660 C 0.34335 0.86829 0.25017 0.0
C1661 C 0.36085 0.87635 0.26591 0.0
C1662 C 0.35724 0.88763 0.24393 0.0
C1663 C 0.33847 0.87981 0.22819 0.0
O1664 O 0.31999 0.89797 0.19509 0.0
O1665 O 0.32942 0.87938 0.18713 0.0
O1666 O 0.343 0.87329 0.21742 0.0
O1667 O 0.33371 0.89198 0.2253 0.0
H1668 H 0.30936 0.86646 0.20288 0.0
H1669 H 0.28726 0.85494 0.20128 0.0
H1670 H 0.27579 0.88174 0.16832 0.0
H1671 H 0.29779 0.89329 0.17016 0.0
H1672 H 0.36031 0.9182 0.15043 0.0
H1673 H 0.35043 0.90634 0.17011 0.0
H1674 H 0.39404 0.93136 0.17547 0.0
H1675 H 0.38394 0.91977 0.19503 0.0
H1676 H 0.37241 0.89367 0.25845 0.0
H1677 H 0.34725 0.85934 0.26966 0.0
H1678 H 0.33516 0.86122 0.248 0.0
H1679 H 0.36 0.89562 0.23684 0.0
C1680 C 0.92967 0.55521 0.93661 0.0
C1681 C 0.9405 0.552 0.94538 0.0
C1682 C 0.94305 0.52964 0.93461 0.0
C1683 C 0.94712 0.53936 0.94439 0.0
C1684 C 0.93201 0.53285 0.92605 0.0
C1685 C 0.92543 0.54549 0.92704 0.0
U1686 U 0.91968 0.58943 0.95366 0.0
O1687 O 0.919 0.60996 0.94466 0.0
O1688 O 0.90024 0.60064 0.95233 0.0
C1689 C 0.90573 0.61107 0.94597 0.0
C1690 C 0.92294 0.5687 0.9369 0.0
C1691 C 0.89824 0.61642 0.93403 0.0
C1692 C 0.8918 0.61559 0.91007 0.0
C1693 C 0.89853 0.60986 0.92133 0.0
C1694 C 0.88426 0.63438 0.92411 0.0
C1695 C 0.88464 0.62801 0.91127 0.0
C1696 C 0.89098 0.62865 0.93532 0.0
C1697 C 0.93182 0.5966 0.99081 0.0
C1698 C 0.92384 0.61422 1.00636 0.0
C1699 C 0.94319 0.6003 1.01256 0.0
C1700 C 0.94209 0.59331 1.00018 0.0
C1701 C 0.93402 0.6108 1.01591 0.0
C1702 C 0.92275 0.6072 0.99393 0.0
C1703 C 0.93057 0.58842 0.97819 0.0
O1704 O 0.91242 0.56995 0.94509 0.0
O1705 O 0.93101 0.57938 0.93714 0.0
O1706 O 0.9371 0.59296 0.96743 0.0
O1707 O 0.9184 0.58367 0.9753 0.0
H1708 H 0.94391 0.55931 0.95291 0.0
H1709 H 0.95542 0.53721 0.95131 0.0
H1710 H 0.92866 0.52575 0.91831 0.0
H1711 H 0.91712 0.54775 0.92014 0.0
H1712 H 0.89219 0.61027 0.90042 0.0
H1713 H 0.90405 0.60039 0.9201 0.0
H1714 H 0.87909 0.64402 0.92546 0.0
H1715 H 0.89067 0.63392 0.94502 0.0
H1716 H 0.9167 0.62236 1.00845 0.0
H1717 H 0.95104 0.59721 1.01966 0.0
H1718 H 0.94917 0.58513 0.998 0.0
H1719 H 0.91476 0.60995 0.98684 0.0
C1720 C 0.25516 0.17964 0.6866 0.0
C1721 C 0.25836 0.19047 0.69537 0.0
C1722 C 0.28072 0.19302 0.6846 0.0
C1723 C 0.271 0.19709 0.69437 0.0
C1724 C 0.27751 0.18198 0.67603 0.0
C1725 C 0.26488 0.1754 0.67703 0.0
U1726 U 0.22093 0.16964 0.70365 0.0
O1727 O 0.2004 0.16896 0.69465 0.0
O1728 O 0.20972 0.1502 0.70233 0.0
C1729 C 0.1993 0.15568 0.69597 0.0
C1730 C 0.24166 0.1729 0.68689 0.0
C1731 C 0.19395 0.1482 0.68403 0.0
C1732 C 0.19477 0.14176 0.66007 0.0
C1733 C 0.2005 0.14849 0.67133 0.0
C1734 C 0.176 0.1342 0.67412 0.0
C1735 C 0.18235 0.13459 0.66127 0.0
C1736 C 0.18173 0.14091 0.68533 0.0
C1737 C 0.21377 0.18179 0.7408 0.0
C1738 C 0.19614 0.17382 0.75634 0.0
C1739 C 0.21007 0.19317 0.76255 0.0
C1740 C 0.21706 0.19206 0.75017 0.0
C1741 C 0.19956 0.184 0.7659 0.0
C1742 C 0.20316 0.17273 0.74392 0.0
C1743 C 0.22194 0.18055 0.72818 0.0
O1744 O 0.24042 0.16239 0.69508 0.0
O1745 O 0.23098 0.18098 0.68712 0.0
O1746 O 0.2174 0.18707 0.71741 0.0
O1747 O 0.2267 0.16837 0.72529 0.0
H1748 H 0.25105 0.19389 0.70289 0.0
H1749 H 0.27315 0.2054 0.70129 0.0
H1750 H 0.28461 0.17863 0.6683 0.0
H1751 H 0.26261 0.16708 0.67014 0.0
H1752 H 0.20008 0.14217 0.65042 0.0
H1753 H 0.20996 0.15403 0.67009 0.0
H1754 H 0.16637 0.129 0.67547 0.0
H1755 H 0.17647 0.14059 0.69502 0.0
H1756 H 0.18799 0.16669 0.75844 0.0
H1757 H 0.21316 0.20101 0.76965 0.0
H1758 H 0.22525 0.19913 0.748 0.0
H1759 H 0.20041 0.16474 0.73683 0.0
C1760 C 0.13074 1.00518 0.93661 0.0
C1761 C 0.11989 1.00837 0.94535 0.0
C1762 C 0.11735 0.03074 0.9346 0.0
C1763 C 0.11326 1.021 0.94435 0.0
C1764 C 0.12842 1.02754 0.92606 0.0
C1765 C 0.135 1.01491 0.92705 0.0
U1766 U 0.14074 0.97096 0.95366 0.0
O1767 O 0.14143 0.95043 0.94465 0.0
O1768 O 0.16019 0.95975 0.95233 0.0
C1769 C 0.1547 0.94932 0.94597 0.0
C1770 C 0.13748 0.99168 0.93689 0.0
C1771 C 0.16219 0.94397 0.93402 0.0
C1772 C 0.16859 0.94477 0.91005 0.0
C1773 C 0.16186 0.9505 0.92131 0.0
C1774 C 0.17621 0.92604 0.92412 0.0
C1775 C 0.17578 0.93237 0.91126 0.0
C1776 C 0.16949 0.93177 0.93533 0.0
C1777 C 0.12861 0.96379 0.9908 0.0
C1778 C 0.13658 0.94615 1.00634 0.0
C1779 C 0.11724 0.96008 1.01256 0.0
C1780 C 0.11834 0.96708 1.00018 0.0
C1781 C 0.1264 0.94957 1.01591 0.0
C1782 C 0.13767 0.95318 0.99392 0.0
C1783 C 0.12985 0.97196 0.97819 0.0
O1784 O 0.14799 0.99044 0.94508 0.0
O1785 O 0.1294 0.981 0.93713 0.0
O1786 O 0.12332 0.96742 0.96742 0.0
O1787 O 0.14202 0.97672 0.97529 0.0
H1788 H 0.11646 1.00105 0.95286 0.0
H1789 H 0.10494 1.02315 0.95126 0.0
H1790 H 0.13179 0.03465 0.91834 0.0
H1791 H 0.14333 1.01265 0.92018 0.0
H1792 H 0.16815 0.95006 0.90039 0.0
H1793 H 0.1563 0.95995 0.92007 0.0
H1794 H 0.18142 0.91642 0.92548 0.0
H1795 H 0.16984 0.92652 0.94504 0.0
H1796 H 0.14371 0.93801 1.00843 0.0
H1797 H 0.1094 0.96317 1.01967 0.0
H1798 H 0.11127 0.97527 0.99801 0.0
H1799 H 0.14565 0.95042 0.98682 0.0
C1800 C 0.75516 0.38072 0.3738 0.0
C1801 C 0.75836 0.36988 0.36504 0.0
C1802 C 0.78073 0.36734 0.37581 0.0
C1803 C 0.771 0.36326 0.36604 0.0
C1804 C 0.77752 0.37839 0.38436 0.0
C1805 C 0.76489 0.38497 0.38337 0.0
U1806 U 0.72094 0.39071 0.35675 0.0
O1807 O 0.70041 0.3914 0.36575 0.0
O1808 O 0.70973 0.41015 0.35807 0.0
C1809 C 0.6993 0.40467 0.36443 0.0
C1810 C 0.74166 0.38746 0.37351 0.0
C1811 C 0.69395 0.41216 0.37638 0.0
C1812 C 0.69477 0.41859 0.40034 0.0
C1813 C 0.70051 0.41186 0.38908 0.0
C1814 C 0.676 0.42615 0.38629 0.0
C1815 C 0.68236 0.42576 0.39914 0.0
C1816 C 0.68173 0.41943 0.37508 0.0
C1817 C 0.71377 0.37856 0.3196 0.0
C1818 C 0.69614 0.38654 0.30406 0.0
C1819 C 0.71007 0.36719 0.29785 0.0
C1820 C 0.71707 0.3683 0.31023 0.0
C1821 C 0.69956 0.37635 0.2945 0.0
C1822 C 0.70317 0.38763 0.31648 0.0
C1823 C 0.72195 0.37981 0.33222 0.0
O1824 O 0.74042 0.39797 0.36532 0.0
O1825 O 0.73099 0.37938 0.37328 0.0
O1826 O 0.71741 0.37329 0.34299 0.0
O1827 O 0.7267 0.39198 0.33511 0.0
H1828 H 0.75105 0.36646 0.35753 0.0
H1829 H 0.77315 0.35495 0.35913 0.0
H1830 H 0.78462 0.38175 0.3921 0.0
H1831 H 0.76262 0.39329 0.39025 0.0
H1832 H 0.70009 0.41819 0.40999 0.0
H1833 H 0.70997 0.40633 0.39031 0.0
H1834 H 0.66636 0.43134 0.38494 0.0
H1835 H 0.67647 0.41975 0.36538 0.0
H1836 H 0.68799 0.39367 0.30197 0.0
H1837 H 0.71317 0.35935 0.29075 0.0
H1838 H 0.72526 0.36123 0.3124 0.0
H1839 H 0.70041 0.39561 0.32358 0.0
C1840 C 0.92966 0.50516 0.62381 0.0
C1841 C 0.9405 0.50836 0.61506 0.0
C1842 C 0.94304 0.53073 0.62581 0.0
C1843 C 0.94712 0.521 0.61606 0.0
C1844 C 0.93198 0.52752 0.63436 0.0
C1845 C 0.9254 0.51489 0.63337 0.0
U1846 U 0.91966 0.47094 0.60676 0.0
O1847 O 0.91898 0.45041 0.61577 0.0
O1848 O 0.90022 0.45973 0.60809 0.0
C1849 C 0.90571 0.4493 0.61445 0.0
C1850 C 0.92292 0.49166 0.62352 0.0
C1851 C 0.89822 0.44395 0.62639 0.0
C1852 C 0.89179 0.44476 0.65035 0.0
C1853 C 0.89852 0.4505 0.63909 0.0
C1854 C 0.88422 0.426 0.6363 0.0
C1855 C 0.88462 0.43235 0.64915 0.0
C1856 C 0.89094 0.43173 0.62509 0.0
C1857 C 0.93181 0.46377 0.56962 0.0
C1858 C 0.92383 0.44614 0.55408 0.0
C1859 C 0.94318 0.46007 0.54786 0.0
C1860 C 0.94207 0.46707 0.56024 0.0
C1861 C 0.93401 0.44956 0.54451 0.0
C1862 C 0.92274 0.45316 0.5665 0.0
C1863 C 0.93056 0.47194 0.58223 0.0
O1864 O 0.91241 0.49042 0.61534 0.0
O1865 O 0.931 0.48099 0.62329 0.0
O1866 O 0.93709 0.46741 0.593 0.0
O1867 O 0.91839 0.4767 0.58513 0.0
H1868 H 0.94393 0.50104 0.60755 0.0
H1869 H 0.95544 0.52314 0.60915 0.0
H1870 H 0.92862 0.53463 0.64209 0.0
H1871 H 0.91707 0.51263 0.64025 0.0
H1872 H 0.89221 0.45007 0.66001 0.0
H1873 H 0.90406 0.45996 0.64033 0.0
H1874 H 0.87903 0.41637 0.63494 0.0
H1875 H 0.89061 0.42647 0.61539 0.0
H1876 H 0.9167 0.43799 0.55198 0.0
H1877 H 0.95102 0.46316 0.54076 0.0
H1878 H 0.94914 0.47526 0.56241 0.0
H1879 H 0.91476 0.45041 0.57359 0.0
C1880 C 0.63073 0.55519 0.12379 0.0
C1881 C 0.61987 0.55199 0.11505 0.0
C1882 C 0.61734 0.52962 0.1258 0.0
C1883 C 0.61325 0.53936 0.11605 0.0
C1884 C 0.62841 0.53282 0.13434 0.0
C1885 C 0.63499 0.54545 0.13334 0.0
U1886 U 0.64073 0.58941 0.10674 0.0
O1887 O 0.64141 0.60994 0.11575 0.0
O1888 O 0.66017 0.60062 0.10807 0.0
C1889 C 0.65468 0.61104 0.11443 0.0
C1890 C 0.63746 0.56868 0.1235 0.0
C1891 C 0.66217 0.61639 0.12638 0.0
C1892 C 0.66858 0.61558 0.15035 0.0
C1893 C 0.66185 0.60985 0.13908 0.0
C1894 C 0.67617 0.63434 0.13629 0.0
C1895 C 0.67576 0.62799 0.14914 0.0
C1896 C 0.66946 0.62861 0.12508 0.0
C1897 C 0.62859 0.59658 0.0696 0.0
C1898 C 0.63657 0.61421 0.05405 0.0
C1899 C 0.61721 0.60029 0.04784 0.0
C1900 C 0.61832 0.59329 0.06023 0.0
C1901 C 0.62638 0.61079 0.04449 0.0
C1902 C 0.63766 0.60718 0.06648 0.0
C1903 C 0.62983 0.58841 0.08221 0.0
O1904 O 0.64798 0.56992 0.11532 0.0
O1905 O 0.62939 0.57936 0.12327 0.0
O1906 O 0.6233 0.59294 0.09298 0.0
O1907 O 0.642 0.58365 0.08511 0.0
H1908 H 0.61644 0.55931 0.10755 0.0
H1909 H 0.60492 0.53721 0.10915 0.0
H1910 H 0.63178 0.52571 0.14206 0.0
H1911 H 0.64333 0.54771 0.14022 0.0
H1912 H 0.66816 0.61028 0.16 0.0
H1913 H 0.65631 0.60039 0.14032 0.0
H1914 H 0.68137 0.64396 0.13494 0.0
H1915 H 0.66979 0.63386 0.11538 0.0
H1916 H 0.64371 0.62235 0.05196 0.0
H1917 H 0.60937 0.5972 0.04074 0.0
H1918 H 0.61124 0.58511 0.0624 0.0
H1919 H 0.64565 0.60993 0.07357 0.0
C1920 C 0.68638 0.755 0.88063 0.0
C1921 C 0.69833 0.76198 0.87705 0.0
C1922 C 0.68491 0.78094 0.8679 0.0
C1923 C 0.6976 0.77482 0.87076 0.0
C1924 C 0.673 0.77383 0.87153 0.0
C1925 C 0.67374 0.76103 0.87782 0.0
U1926 U 0.70384 0.72121 0.89134 0.0
O1927 O 0.70225 0.71016 0.91085 0.0
O1928 O 0.69521 0.70051 0.89201 0.0
C1929 C 0.69621 0.69957 0.90532 0.0
C1930 C 0.68674 0.74154 0.88743 0.0
C1931 C 0.68417 0.69411 0.91258 0.0
C1932 C 0.66015 0.69489 0.91879 0.0
C1933 C 0.67147 0.70065 0.91217 0.0
C1934 C 0.67415 0.67611 0.92643 0.0
C1935 C 0.66131 0.68247 0.92595 0.0
C1936 C 0.68542 0.68186 0.91982 0.0
C1937 C 0.74149 0.7148 0.88023 0.0
C1938 C 0.75421 0.69348 0.88018 0.0
C1939 C 0.76595 0.71474 0.87605 0.0
C1940 C 0.75364 0.72179 0.87749 0.0
C1941 C 0.76644 0.70047 0.87731 0.0
C1942 C 0.74186 0.70057 0.88162 0.0
C1943 C 0.72864 0.72266 0.88112 0.0
O1944 O 0.68743 0.73086 0.87939 0.0
O1945 O 0.69465 0.74049 0.89818 0.0
O1946 O 0.72536 0.72748 0.89316 0.0
O1947 O 0.71812 0.71782 0.87439 0.0
H1948 H 0.7082 0.75754 0.87915 0.0
H1949 H 0.70701 0.78 0.86827 0.0
H1950 H 0.66305 0.77803 0.86931 0.0
H1951 H 0.66438 0.75581 0.88046 0.0
H1952 H 0.65051 0.7002 0.91832 0.0
H1953 H 0.67028 0.71013 0.90667 0.0
H1954 H 0.67546 0.66647 0.93162 0.0
H1955 H 0.69512 0.67662 0.92023 0.0
H1956 H 0.75413 0.68249 0.88111 0.0
H1957 H 0.77513 0.72053 0.8741 0.0
H1958 H 0.7536 0.73277 0.8764 0.0
H1959 H 0.7326 0.69494 0.88369 0.0
C1960 C 0.55537 0.43629 0.13059 0.0
C1961 C 0.54833 0.44824 0.12711 0.0
C1962 C 0.52943 0.43482 0.11786 0.0
C1963 C 0.5355 0.44751 0.12082 0.0
C1964 C 0.53659 0.42291 0.1214 0.0
C1965 C 0.54938 0.42365 0.12768 0.0
U1966 U 0.58915 0.45376 0.14132 0.0
O1967 O 0.60019 0.45217 0.16084 0.0
O1968 O 0.60985 0.44514 0.142 0.0
C1969 C 0.61079 0.44614 0.15532 0.0
C1970 C 0.56882 0.43666 0.1374 0.0
C1971 C 0.61625 0.4341 0.16257 0.0
C1972 C 0.61549 0.41007 0.16875 0.0
C1973 C 0.60973 0.42138 0.16214 0.0
C1974 C 0.63423 0.42409 0.17645 0.0
C1975 C 0.62789 0.41123 0.17595 0.0
C1976 C 0.62847 0.43535 0.16985 0.0
C1977 C 0.59556 0.49141 0.13022 0.0
C1978 C 0.61689 0.50413 0.13016 0.0
C1979 C 0.59562 0.51588 0.12606 0.0
C1980 C 0.58857 0.50356 0.1275 0.0
C1981 C 0.6099 0.51637 0.1273 0.0
C1982 C 0.60979 0.49178 0.13159 0.0
C1983 C 0.58771 0.47856 0.1311 0.0
O1984 O 0.57951 0.43735 0.12937 0.0
O1985 O 0.56987 0.44456 0.14815 0.0
O1986 O 0.58288 0.47528 0.14315 0.0
O1987 O 0.59255 0.46805 0.12437 0.0
H1988 H 0.55273 0.45812 0.12929 0.0
H1989 H 0.53027 0.45692 0.11841 0.0
H1990 H 0.53243 0.41296 0.1191 0.0
H1991 H 0.55465 0.4143 0.13025 0.0
H1992 H 0.61019 0.40041 0.16826 0.0
H1993 H 0.60026 0.42019 0.15661 0.0
H1994 H 0.64385 0.4254 0.18167 0.0
H1995 H 0.6337 0.44506 0.17028 0.0
H1996 H 0.62787 0.50405 0.13107 0.0
H1997 H 0.58983 0.52506 0.12412 0.0
H1998 H 0.57759 0.50353 0.12642 0.0
H1999 H 0.61542 0.48252 0.13365 0.0
C2000 C 0.87406 0.30536 0.38062 0.0
C2001 C 0.86211 0.29836 0.37707 0.0
C2002 C 0.87552 0.27943 0.36789 0.0
C2003 C 0.86283 0.28553 0.37079 0.0
C2004 C 0.88744 0.28656 0.37149 0.0
C2005 C 0.88669 0.29935 0.37777 0.0
U2006 U 0.85659 0.33915 0.39134 0.0
O2007 O 0.85818 0.35019 0.41085 0.0
O2008 O 0.86521 0.35985 0.39201 0.0
C2009 C 0.86421 0.36079 0.40532 0.0
C2010 C 0.87369 0.31882 0.38742 0.0
C2011 C 0.87625 0.36625 0.41258 0.0
C2012 C 0.90026 0.36546 0.41881 0.0
C2013 C 0.88895 0.3597 0.41219 0.0
C2014 C 0.88627 0.38426 0.42641 0.0
C2015 C 0.89911 0.37789 0.42596 0.0
C2016 C 0.87501 0.37851 0.41981 0.0
C2017 C 0.81894 0.34555 0.38023 0.0
C2018 C 0.80621 0.36688 0.38019 0.0
C2019 C 0.79447 0.34562 0.37604 0.0
C2020 C 0.80679 0.33857 0.37748 0.0
C2021 C 0.79398 0.35989 0.37731 0.0
C2022 C 0.81857 0.35978 0.38162 0.0
C2023 C 0.83179 0.3377 0.38111 0.0
O2024 O 0.873 0.3295 0.37939 0.0
O2025 O 0.86578 0.31987 0.39817 0.0
O2026 O 0.83507 0.33288 0.39316 0.0
O2027 O 0.8423 0.34254 0.37438 0.0
H2028 H 0.85223 0.30279 0.3792 0.0
H2029 H 0.85343 0.28033 0.36832 0.0
H2030 H 0.89739 0.28237 0.36924 0.0
H2031 H 0.89605 0.30458 0.38039 0.0
H2032 H 0.90991 0.36014 0.41836 0.0
H2033 H 0.89013 0.35021 0.4067 0.0
H2034 H 0.88497 0.39391 0.43159 0.0
H2035 H 0.86531 0.38376 0.4202 0.0
H2036 H 0.80629 0.37786 0.38112 0.0
H2037 H 0.78529 0.33983 0.37409 0.0
H2038 H 0.80682 0.32759 0.37639 0.0
H2039 H 0.82782 0.36541 0.3837 0.0
C2040 C 1.00502 0.62405 0.63061 0.0
C2041 C 1.01202 0.6121 0.62707 0.0
C2042 C 0.03096 0.62551 0.61787 0.0
C2043 C 1.02486 0.61282 0.62078 0.0
C2044 C 1.02383 0.63743 0.62147 0.0
C2045 C 1.01104 0.63669 0.62775 0.0
U2046 U 0.97123 0.60659 0.64133 0.0
O2047 O 0.96019 0.60819 0.66084 0.0
O2048 O 0.95053 0.61522 0.642 0.0
C2049 C 0.94959 0.61422 0.65531 0.0
C2050 C 0.99156 0.62369 0.63741 0.0
C2051 C 0.94413 0.62626 0.66257 0.0
C2052 C 0.94494 0.65027 0.66882 0.0
C2053 C 0.9507 0.63895 0.6622 0.0
C2054 C 0.92611 0.63629 0.67638 0.0
C2055 C 0.9325 0.64913 0.67595 0.0
C2056 C 0.93187 0.62503 0.66978 0.0
C2057 C 0.96482 0.56894 0.63023 0.0
C2058 C 0.9435 0.55621 0.63018 0.0
C2059 C 0.96476 0.54447 0.62606 0.0
C2060 C 0.97181 0.55679 0.6275 0.0
C2061 C 0.95049 0.54398 0.62731 0.0
C2062 C 0.95059 0.56857 0.63162 0.0
C2063 C 0.97268 0.58179 0.63111 0.0
O2064 O 0.98088 0.62299 0.62938 0.0
O2065 O 0.99052 0.61578 0.64816 0.0
O2066 O 0.9775 0.58507 0.64316 0.0
O2067 O 0.96784 0.5923 0.62438 0.0
H2068 H 1.00759 0.60223 0.62919 0.0
H2069 H 1.03005 0.60342 0.61832 0.0
H2070 H 1.02802 0.64738 0.61922 0.0
H2071 H 1.0058 0.64604 0.63037 0.0
H2072 H 0.95028 0.6599 0.66838 0.0
H2073 H 0.9602 0.64013 0.65672 0.0
H2074 H 0.91646 0.63499 0.68155 0.0
H2075 H 0.9266 0.61534 0.67015 0.0
H2076 H 0.93251 0.55629 0.63111 0.0
H2077 H 0.97055 0.53529 0.62411 0.0
H2078 H 0.98279 0.55682 0.6264 0.0
H2079 H 0.94496 0.57783 0.63369 0.0
C2080 C 0.68634 0.30536 0.67978 0.0
C2081 C 0.69829 0.29835 0.68333 0.0
C2082 C 0.68487 0.27942 0.69251 0.0
C2083 C 0.69757 0.28552 0.68961 0.0
C2084 C 0.67296 0.28655 0.68891 0.0
C2085 C 0.6737 0.29934 0.68263 0.0
U2086 U 0.70381 0.33915 0.66907 0.0
O2087 O 0.70222 0.35019 0.64956 0.0
O2088 O 0.69519 0.35985 0.6684 0.0
C2089 C 0.69619 0.36079 0.65508 0.0
C2090 C 0.68671 0.31882 0.67298 0.0
C2091 C 0.68415 0.36625 0.64783 0.0
C2092 C 0.66014 0.36546 0.64159 0.0
C2093 C 0.67145 0.3597 0.64821 0.0
C2094 C 0.67412 0.38426 0.634 0.0
C2095 C 0.66129 0.37789 0.63445 0.0
C2096 C 0.68539 0.37851 0.64061 0.0
C2097 C 0.74146 0.34555 0.68017 0.0
C2098 C 0.75419 0.36687 0.68022 0.0
C2099 C 0.76593 0.34561 0.68436 0.0
C2100 C 0.75361 0.33856 0.68292 0.0
C2101 C 0.76642 0.35988 0.6831 0.0
C2102 C 0.74183 0.35978 0.67878 0.0
C2103 C 0.72861 0.3377 0.67929 0.0
O2104 O 0.6874 0.3295 0.68102 0.0
O2105 O 0.69462 0.31986 0.66223 0.0
O2106 O 0.72533 0.33288 0.66724 0.0
O2107 O 0.7181 0.34253 0.68602 0.0
H2108 H 0.70817 0.30278 0.6812 0.0
H2109 H 0.70697 0.28033 0.69208 0.0
H2110 H 0.66301 0.28236 0.69116 0.0
H2111 H 0.66435 0.30458 0.68001 0.0
H2112 H 0.6505 0.36013 0.64204 0.0
H2113 H 0.67027 0.3502 0.6537 0.0
H2114 H 0.67543 0.39391 0.62883 0.0
H2115 H 0.69508 0.38376 0.64022 0.0
H2116 H 0.75411 0.37786 0.67928 0.0
H2117 H 0.7751 0.33982 0.68631 0.0
H2118 H 0.75357 0.32758 0.68401 0.0
H2119 H 0.73258 0.36541 0.67671 0.0
C2120 C 1.00502 0.43631 0.92981 0.0
C2121 C 1.01202 0.44826 0.93335 0.0
C2122 C 0.03096 0.43484 0.94254 0.0
C2123 C 1.02485 0.44754 0.93964 0.0
C2124 C 1.02383 0.42293 0.93894 0.0
C2125 C 1.01103 0.42367 0.93266 0.0
U2126 U 0.97123 0.45378 0.9191 0.0
O2127 O 0.96017 0.45218 0.8996 0.0
O2128 O 0.95052 0.44516 0.91844 0.0
C2129 C 0.94958 0.44616 0.90513 0.0
C2130 C 0.99155 0.43667 0.92301 0.0
C2131 C 0.94411 0.43412 0.89788 0.0
C2132 C 0.94505 0.41018 0.89138 0.0
C2133 C 0.9508 0.42149 0.89802 0.0
C2134 C 0.92596 0.42403 0.88427 0.0
C2135 C 0.93249 0.41126 0.88447 0.0
C2136 C 0.9317 0.43529 0.89089 0.0
C2137 C 0.96483 0.49143 0.9302 0.0
C2138 C 0.94351 0.50416 0.93022 0.0
C2139 C 0.96477 0.51589 0.9344 0.0
C2140 C 0.97182 0.50357 0.93296 0.0
C2141 C 0.9505 0.51638 0.93312 0.0
C2142 C 0.9506 0.4918 0.92879 0.0
C2143 C 0.97269 0.47858 0.92932 0.0
O2144 O 0.98088 0.43737 0.93105 0.0
O2145 O 0.99051 0.44458 0.91226 0.0
O2146 O 0.9775 0.47529 0.91727 0.0
O2147 O 0.96785 0.46807 0.93605 0.0
H2148 H 1.00759 0.45813 0.93122 0.0
H2149 H 1.03005 0.45694 0.9421 0.0
H2150 H 1.02801 0.41298 0.94119 0.0
H2151 H 1.0058 0.41432 0.93005 0.0
H2152 H 0.95049 0.4006 0.89164 0.0
H2153 H 0.96041 0.42037 0.90332 0.0
H2154 H 0.91621 0.42528 0.87928 0.0
H2155 H 0.92633 0.44493 0.8907 0.0
H2156 H 0.93253 0.50408 0.92927 0.0
H2157 H 0.97056 0.52507 0.93637 0.0
H2158 H 0.9828 0.50354 0.93407 0.0
H2159 H 0.94498 0.48255 0.9267 0.0
C2160 C 0.87403 0.75499 0.17979 0.0
C2161 C 0.86208 0.76197 0.18337 0.0
C2162 C 0.87549 0.78092 0.19253 0.0
C2163 C 0.8628 0.7748 0.18966 0.0
C2164 C 0.88741 0.77382 0.18889 0.0
C2165 C 0.88667 0.76102 0.18261 0.0
U2166 U 0.85657 0.7212 0.16908 0.0
O2167 O 0.85816 0.71015 0.14958 0.0
O2168 O 0.8652 0.70049 0.16842 0.0
C2169 C 0.86419 0.69955 0.1551 0.0
C2170 C 0.87367 0.74153 0.173 0.0
C2171 C 0.87623 0.69409 0.14785 0.0
C2172 C 0.90023 0.69492 0.14156 0.0
C2173 C 0.88892 0.70067 0.14819 0.0
C2174 C 0.88628 0.67605 0.13407 0.0
C2175 C 0.8991 0.68246 0.13447 0.0
C2176 C 0.87501 0.6818 0.14068 0.0
C2177 C 0.81892 0.71479 0.18019 0.0
C2178 C 0.8062 0.69346 0.18022 0.0
C2179 C 0.79446 0.71472 0.18438 0.0
C2180 C 0.80677 0.72177 0.18294 0.0
C2181 C 0.79396 0.70045 0.18311 0.0
C2182 C 0.81855 0.70056 0.17879 0.0
C2183 C 0.83177 0.72264 0.1793 0.0
O2184 O 0.87297 0.73085 0.18103 0.0
O2185 O 0.86576 0.74048 0.16225 0.0
O2186 O 0.83505 0.72746 0.16726 0.0
O2187 O 0.84228 0.71781 0.18604 0.0
H2188 H 0.85221 0.75752 0.18128 0.0
H2189 H 0.85339 0.77998 0.19215 0.0
H2190 H 0.89735 0.77802 0.19111 0.0
H2191 H 0.89602 0.75581 0.17996 0.0
H2192 H 0.90986 0.70027 0.14198 0.0
H2193 H 0.89009 0.71019 0.15363 0.0
H2194 H 0.88498 0.66638 0.12893 0.0
H2195 H 0.86533 0.67652 0.14033 0.0
H2196 H 0.80627 0.68248 0.17927 0.0
H2197 H 0.78528 0.72051 0.18634 0.0
H2198 H 0.80681 0.73275 0.18405 0.0
H2199 H 0.82781 0.69494 0.1767 0.0
C2200 C 0.55538 0.62403 0.4298 0.0
C2201 C 0.54838 0.61208 0.43335 0.0
C2202 C 0.52944 0.6255 0.44253 0.0
C2203 C 0.53555 0.61281 0.43964 0.0
C2204 C 0.53656 0.63741 0.43893 0.0
C2205 C 0.54936 0.63667 0.43264 0.0
U2206 U 0.58917 0.60656 0.41908 0.0
O2207 O 0.60021 0.60816 0.39957 0.0
O2208 O 0.60987 0.61519 0.41841 0.0
C2209 C 0.6108 0.61419 0.40509 0.0
C2210 C 0.56884 0.62367 0.423 0.0
C2211 C 0.61627 0.62623 0.39784 0.0
C2212 C 0.61547 0.65024 0.39161 0.0
C2213 C 0.60972 0.63893 0.39822 0.0
C2214 C 0.63428 0.63626 0.38401 0.0
C2215 C 0.6279 0.64909 0.38446 0.0
C2216 C 0.62853 0.62499 0.39062 0.0
C2217 C 0.59557 0.56892 0.43018 0.0
C2218 C 0.61689 0.55619 0.43022 0.0
C2219 C 0.59563 0.54446 0.43437 0.0
C2220 C 0.58858 0.55677 0.43293 0.0
C2221 C 0.60991 0.54396 0.4331 0.0
C2222 C 0.6098 0.56855 0.42879 0.0
C2223 C 0.58772 0.58177 0.4293 0.0
O2224 O 0.57952 0.62297 0.43103 0.0
O2225 O 0.56988 0.61576 0.41225 0.0
O2226 O 0.58289 0.58505 0.41725 0.0
O2227 O 0.59255 0.59228 0.43603 0.0
H2228 H 0.55281 0.60221 0.43123 0.0
H2229 H 0.53035 0.6034 0.44211 0.0
H2230 H 0.53237 0.64736 0.44117 0.0
H2231 H 0.55459 0.64602 0.43002 0.0
H2232 H 0.61015 0.65988 0.39206 0.0
H2233 H 0.60022 0.64011 0.40371 0.0
H2234 H 0.64393 0.63495 0.37883 0.0
H2235 H 0.63378 0.6153 0.39023 0.0
H2236 H 0.62788 0.55627 0.42928 0.0
H2237 H 0.58985 0.53528 0.43632 0.0
H2238 H 0.5776 0.5568 0.43403 0.0
H2239 H 0.61543 0.5778 0.42671 0.0
C2240 C 0.88063 0.68635 0.75502 0.0
C2241 C 0.87709 0.6983 0.76203 0.0
C2242 C 0.8679 0.68487 0.78096 0.0
C2243 C 0.8708 0.69757 0.77487 0.0
C2244 C 0.87149 0.67296 0.77383 0.0
C2245 C 0.87778 0.67371 0.76104 0.0
U2246 U 0.89135 0.70382 0.72124 0.0
O2247 O 0.91085 0.70223 0.71019 0.0
O2248 O 0.89201 0.6952 0.70053 0.0
C2249 C 0.90533 0.6962 0.6996 0.0
C2250 C 0.88743 0.68672 0.74156 0.0
C2251 C 0.91258 0.68416 0.69413 0.0
C2252 C 0.91883 0.66015 0.69494 0.0
C2253 C 0.91221 0.67147 0.7007 0.0
C2254 C 0.92639 0.67413 0.67611 0.0
C2255 C 0.92596 0.66129 0.6825 0.0
C2256 C 0.91978 0.68539 0.68186 0.0
C2257 C 0.88024 0.74147 0.71485 0.0
C2258 C 0.88022 0.75421 0.69353 0.0
C2259 C 0.87604 0.76593 0.71479 0.0
C2260 C 0.87748 0.75362 0.72184 0.0
C2261 C 0.87732 0.76644 0.70052 0.0
C2262 C 0.88165 0.74185 0.70062 0.0
C2263 C 0.88113 0.72862 0.7227 0.0
O2264 O 0.8794 0.68742 0.73088 0.0
O2265 O 0.89818 0.69462 0.74052 0.0
O2266 O 0.89317 0.72534 0.72751 0.0
O2267 O 0.87439 0.71811 0.71785 0.0
H2268 H 0.87922 0.70817 0.75761 0.0
H2269 H 0.86834 0.70697 0.78007 0.0
H2270 H 0.86924 0.66301 0.77801 0.0
H2271 H 0.88039 0.66436 0.7558 0.0
H2272 H 0.91839 0.65052 0.70028 0.0
H2273 H 0.90674 0.67029 0.71021 0.0
H2274 H 0.93155 0.67542 0.66645 0.0
H2275 H 0.92016 0.69508 0.6766 0.0
H2276 H 0.88117 0.75414 0.68254 0.0
H2277 H 0.87407 0.77511 0.72058 0.0
H2278 H 0.87637 0.75358 0.73282 0.0
H2279 H 0.88375 0.7326 0.69499 0.0
C2280 C 0.62407 0.63057 1.00502 0.0
C2281 C 0.61212 0.62702 1.01202 0.0
C2282 C 0.62553 0.61783 0.03096 0.0
C2283 C 0.61284 0.62073 1.02485 0.0
C2284 C 0.63745 0.62143 1.02383 0.0
C2285 C 0.63671 0.62771 1.01104 0.0
U2286 U 0.60661 0.64129 0.97123 0.0
O2287 O 0.60821 0.6608 0.96019 0.0
O2288 O 0.61524 0.64196 0.95053 0.0
C2289 C 0.61423 0.65527 0.94959 0.0
C2290 C 0.62371 0.63737 0.99156 0.0
C2291 C 0.62628 0.66253 0.94413 0.0
C2292 C 0.65027 0.66882 0.94496 0.0
C2293 C 0.63896 0.6622 0.95072 0.0
C2294 C 0.63632 0.67631 0.92609 0.0
C2295 C 0.64914 0.67591 0.9325 0.0
C2296 C 0.62505 0.6697 0.93184 0.0
C2297 C 0.56896 0.63019 0.96482 0.0
C2298 C 0.55623 0.63017 0.9435 0.0
C2299 C 0.5445 0.626 0.96475 0.0
C2300 C 0.55681 0.62744 0.97181 0.0
C2301 C 0.544 0.62728 0.95048 0.0
C2302 C 0.56859 0.6316 0.95059 0.0
C2303 C 0.58181 0.63107 0.97268 0.0
O2304 O 0.62301 0.62934 0.98088 0.0
O2305 O 0.6158 0.64812 0.99052 0.0
O2306 O 0.58509 0.64312 0.9775 0.0
O2307 O 0.59232 0.62434 0.96784 0.0
H2308 H 0.60224 0.62915 1.00759 0.0
H2309 H 0.60343 0.61827 1.03005 0.0
H2310 H 0.64739 0.61918 1.02802 0.0
H2311 H 0.64606 0.63033 1.0058 0.0
H2312 H 0.6599 0.66842 0.95031 0.0
H2313 H 0.64013 0.65676 0.96024 0.0
H2314 H 0.63503 0.68144 0.91641 0.0
H2315 H 0.61537 0.67004 0.92655 0.0
H2316 H 0.55631 0.63112 0.93251 0.0
H2317 H 0.53532 0.62404 0.97054 0.0
H2318 H 0.55685 0.62632 0.98279 0.0
H2319 H 0.57784 0.63369 0.94497 0.0
C2320 C 0.67979 0.37403 0.25502 0.0
C2321 C 0.68334 0.36208 0.26203 0.0
C2322 C 0.69253 0.3755 0.28096 0.0
C2323 C 0.68963 0.3628 0.27486 0.0
C2324 C 0.68892 0.38741 0.27384 0.0
C2325 C 0.68264 0.38666 0.26104 0.0
U2326 U 0.66908 0.35655 0.22124 0.0
O2327 O 0.64957 0.35815 0.21019 0.0
O2328 O 0.66841 0.36518 0.20053 0.0
C2329 C 0.6551 0.36417 0.19959 0.0
C2330 C 0.67299 0.37366 0.24157 0.0
C2331 C 0.64784 0.37621 0.19413 0.0
C2332 C 0.64151 0.40019 0.19497 0.0
C2333 C 0.64814 0.38888 0.20073 0.0
C2334 C 0.63409 0.38626 0.17606 0.0
C2335 C 0.63445 0.39907 0.18249 0.0
C2336 C 0.64071 0.37499 0.18181 0.0
C2337 C 0.68018 0.31891 0.21484 0.0
C2338 C 0.68021 0.30618 0.19351 0.0
C2339 C 0.68439 0.29445 0.21477 0.0
C2340 C 0.68295 0.30676 0.22182 0.0
C2341 C 0.6831 0.29395 0.2005 0.0
C2342 C 0.67878 0.31854 0.20061 0.0
C2343 C 0.6793 0.33176 0.22269 0.0
O2344 O 0.68103 0.37296 0.23088 0.0
O2345 O 0.66224 0.36575 0.24052 0.0
O2346 O 0.66725 0.33504 0.22751 0.0
O2347 O 0.68603 0.34227 0.21785 0.0
H2348 H 0.68122 0.3522 0.2576 0.0
H2349 H 0.6921 0.3534 0.28006 0.0
H2350 H 0.69116 0.39736 0.27803 0.0
H2351 H 0.68002 0.39602 0.25581 0.0
H2352 H 0.64189 0.40982 0.20034 0.0
H2353 H 0.65355 0.39005 0.21027 0.0
H2354 H 0.62898 0.38497 0.16638 0.0
H2355 H 0.64039 0.36532 0.17652 0.0
H2356 H 0.67926 0.30626 0.18253 0.0
H2357 H 0.68635 0.28527 0.22056 0.0
H2358 H 0.68406 0.3068 0.2328 0.0
H2359 H 0.67668 0.32779 0.19498 0.0
C2360 C 0.93633 0.42978 0.50504 0.0
C2361 C 0.94828 0.43334 0.51204 0.0
C2362 C 0.93487 0.44252 0.53098 0.0
C2363 C 0.94756 0.43963 0.52487 0.0
C2364 C 0.92295 0.43891 0.52385 0.0
C2365 C 0.9237 0.43263 0.51106 0.0
U2366 U 0.9538 0.41907 0.47125 0.0
O2367 O 0.95221 0.39956 0.46021 0.0
O2368 O 0.94518 0.4184 0.45055 0.0
C2369 C 0.94618 0.40508 0.44961 0.0
C2370 C 0.9367 0.42299 0.49158 0.0
C2371 C 0.93414 0.39783 0.44415 0.0
C2372 C 0.91014 0.39155 0.44496 0.0
C2373 C 0.92145 0.39817 0.45072 0.0
C2374 C 0.9241 0.38403 0.42611 0.0
C2375 C 0.91128 0.38444 0.43251 0.0
C2376 C 0.93537 0.39064 0.43186 0.0
C2377 C 0.99145 0.43017 0.46485 0.0
C2378 C 1.00418 0.43021 0.44353 0.0
C2379 C 1.01592 0.43435 0.46479 0.0
C2380 C 1.0036 0.43291 0.47184 0.0
C2381 C 1.01641 0.43308 0.45051 0.0
C2382 C 0.99182 0.42878 0.45062 0.0
C2383 C 0.9786 0.42928 0.4727 0.0
O2384 O 0.93739 0.43102 0.4809 0.0
O2385 O 0.9446 0.41223 0.49054 0.0
O2386 O 0.97532 0.41724 0.47752 0.0
O2387 O 0.96809 0.43602 0.46787 0.0
H2388 H 0.95816 0.43121 0.50761 0.0
H2389 H 0.95697 0.4421 0.53006 0.0
H2390 H 0.91301 0.44116 0.52804 0.0
H2391 H 0.91434 0.43001 0.50583 0.0
H2392 H 0.90051 0.39197 0.45031 0.0
H2393 H 0.92028 0.40363 0.46024 0.0
H2394 H 0.9254 0.37889 0.41645 0.0
H2395 H 0.94505 0.39029 0.42659 0.0
H2396 H 1.0041 0.42928 0.43254 0.0
H2397 H 1.0251 0.43629 0.47058 0.0
H2398 H 1.00357 0.434 0.48282 0.0
H2399 H 0.98256 0.4267 0.44499 0.0
C2400 C 0.88063 0.37401 0.80537 0.0
C2401 C 0.87708 0.36207 0.79836 0.0
C2402 C 0.86789 0.37548 0.77944 0.0
C2403 C 0.87079 0.36279 0.78553 0.0
C2404 C 0.87148 0.3874 0.78657 0.0
C2405 C 0.87777 0.38665 0.79936 0.0
U2406 U 0.89136 0.35655 0.83916 0.0
O2407 O 0.91088 0.35814 0.85019 0.0
O2408 O 0.89204 0.36517 0.85986 0.0
C2409 C 0.90536 0.36418 0.86078 0.0
C2410 C 0.88743 0.37365 0.81883 0.0
C2411 C 0.91261 0.37622 0.86624 0.0
C2412 C 0.91863 0.4003 0.86558 0.0
C2413 C 0.91202 0.38898 0.85981 0.0
C2414 C 0.92663 0.3862 0.88414 0.0
C2415 C 0.92596 0.3991 0.87789 0.0
C2416 C 0.92004 0.37493 0.87837 0.0
C2417 C 0.88026 0.3189 0.84557 0.0
C2418 C 0.88021 0.30617 0.86689 0.0
C2419 C 0.87609 0.29443 0.84562 0.0
C2420 C 0.87753 0.30675 0.83857 0.0
C2421 C 0.87734 0.29394 0.8599 0.0
C2422 C 0.88164 0.31852 0.8598 0.0
C2423 C 0.88114 0.33175 0.83771 0.0
O2424 O 0.8794 0.37295 0.82951 0.0
O2425 O 0.89818 0.36574 0.81987 0.0
O2426 O 0.89319 0.33503 0.83289 0.0
O2427 O 0.87441 0.34226 0.84256 0.0
H2428 H 0.87922 0.35219 0.80279 0.0
H2429 H 0.86833 0.35339 0.78033 0.0
H2430 H 0.86923 0.39734 0.78239 0.0
H2431 H 0.88038 0.39601 0.8046 0.0
H2432 H 0.91801 0.40998 0.86036 0.0
H2433 H 0.90638 0.3902 0.85041 0.0
H2434 H 0.93196 0.38485 0.89369 0.0
H2435 H 0.92059 0.36519 0.88353 0.0
H2436 H 0.88113 0.30624 0.87787 0.0
H2437 H 0.87415 0.28525 0.83983 0.0
H2438 H 0.87645 0.30678 0.82759 0.0
H2439 H 0.88371 0.32778 0.86543 0.0
C2440 C 0.93634 0.63058 0.05539 0.0
C2441 C 0.94829 0.62703 0.04839 0.0
C2442 C 0.93488 0.61784 1.02945 0.0
C2443 C 0.94757 0.62075 0.03555 0.0
C2444 C 0.92296 0.62144 0.03658 0.0
C2445 C 0.9237 0.62772 0.04937 0.0
U2446 U 0.9538 0.6413 0.08918 0.0
O2447 O 0.95221 0.66081 0.10022 0.0
O2448 O 0.94518 0.64197 0.10988 0.0
C2449 C 0.94618 0.65528 0.11082 0.0
C2450 C 0.9367 0.63738 0.06885 0.0
C2451 C 0.93414 0.66253 0.11628 0.0
C2452 C 0.91012 0.66875 0.11549 0.0
C2453 C 0.92143 0.66214 0.10973 0.0
C2454 C 0.92411 0.67638 0.13428 0.0
C2455 C 0.91127 0.67591 0.12792 0.0
C2456 C 0.93537 0.66977 0.12853 0.0
C2457 C 0.99145 0.6302 0.09559 0.0
C2458 C 1.00418 0.63013 0.11691 0.0
C2459 C 1.01592 0.62604 0.09565 0.0
C2460 C 1.00361 0.62748 0.0886 0.0
C2461 C 1.01641 0.62727 0.10992 0.0
C2462 C 0.99182 0.63156 0.10982 0.0
C2463 C 0.9786 0.63108 0.08773 0.0
O2464 O 0.9374 0.62935 0.07953 0.0
O2465 O 0.94461 0.64813 0.06989 0.0
O2466 O 0.97532 0.64312 0.08291 0.0
O2467 O 0.96809 0.62435 0.09257 0.0
H2468 H 0.95817 0.62917 0.05281 0.0
H2469 H 0.95697 0.61829 0.03036 0.0
H2470 H 0.91301 0.61919 0.03239 0.0
H2471 H 0.91435 0.63033 0.05461 0.0
H2472 H 0.90047 0.66829 0.11017 0.0
H2473 H 0.92025 0.65664 0.10024 0.0
H2474 H 0.92542 0.68157 0.14392 0.0
H2475 H 0.94507 0.67018 0.13378 0.0
H2476 H 1.0041 0.63104 0.1279 0.0
H2477 H 1.0251 0.6241 0.08985 0.0
H2478 H 1.00357 0.6264 0.07761 0.0
H2479 H 0.98256 0.63362 0.11545 0.0
C2480 C 0.67979 0.68631 0.30539 0.0
C2481 C 0.68334 0.69826 0.29838 0.0
C2482 C 0.69252 0.68484 0.27945 0.0
C2483 C 0.68962 0.69753 0.28555 0.0
C2484 C 0.68891 0.67293 0.28657 0.0
C2485 C 0.68263 0.67367 0.29937 0.0
U2486 U 0.66908 0.70379 0.33917 0.0
O2487 O 0.64957 0.70219 0.35022 0.0
O2488 O 0.66841 0.69516 0.35988 0.0
C2489 C 0.65509 0.69616 0.36081 0.0
C2490 C 0.67299 0.68668 0.31884 0.0
C2491 C 0.64784 0.68412 0.36628 0.0
C2492 C 0.64157 0.66012 0.36546 0.0
C2493 C 0.64819 0.67144 0.35971 0.0
C2494 C 0.63404 0.67409 0.38431 0.0
C2495 C 0.63446 0.66126 0.37791 0.0
C2496 C 0.64065 0.68535 0.37856 0.0
C2497 C 0.68018 0.74143 0.34558 0.0
C2498 C 0.68022 0.75416 0.3669 0.0
C2499 C 0.68437 0.76589 0.34564 0.0
C2500 C 0.68293 0.75358 0.33859 0.0
C2501 C 0.6831 0.76639 0.35991 0.0
C2502 C 0.67879 0.7418 0.35981 0.0
C2503 C 0.6793 0.72858 0.33772 0.0
O2504 O 0.68102 0.68738 0.32953 0.0
O2505 O 0.66224 0.69459 0.31989 0.0
O2506 O 0.66725 0.7253 0.3329 0.0
O2507 O 0.68603 0.71807 0.34256 0.0
H2508 H 0.68121 0.70814 0.30281 0.0
H2509 H 0.69209 0.70694 0.28035 0.0
H2510 H 0.69116 0.66298 0.28239 0.0
H2511 H 0.68001 0.66432 0.3046 0.0
H2512 H 0.64199 0.65049 0.36012 0.0
H2513 H 0.65365 0.67026 0.35019 0.0
H2514 H 0.62889 0.67539 0.39398 0.0
H2515 H 0.64029 0.69504 0.38383 0.0
H2516 H 0.67928 0.75408 0.37788 0.0
H2517 H 0.68633 0.77507 0.33985 0.0
H2518 H 0.68403 0.75354 0.32761 0.0
H2519 H 0.67671 0.73255 0.36543 0.0
C2520 C 0.62406 0.42978 0.55538 0.0
C2521 C 0.61211 0.43333 0.54838 0.0
C2522 C 0.62553 0.44251 0.52944 0.0
C2523 C 0.61284 0.43962 0.53555 0.0
C2524 C 0.63744 0.4389 0.53656 0.0
C2525 C 0.6367 0.43262 0.54936 0.0
U2526 U 0.60659 0.41906 0.58916 0.0
O2527 O 0.60819 0.39955 0.60021 0.0
O2528 O 0.61522 0.41839 0.60987 0.0
C2529 C 0.61422 0.40508 0.6108 0.0
C2530 C 0.6237 0.42298 0.56884 0.0
C2531 C 0.62626 0.39782 0.61627 0.0
C2532 C 0.65026 0.39155 0.61545 0.0
C2533 C 0.63894 0.39817 0.6097 0.0
C2534 C 0.63629 0.38402 0.6343 0.0
C2535 C 0.64912 0.38444 0.6279 0.0
C2536 C 0.62503 0.39063 0.62855 0.0
C2537 C 0.56895 0.43017 0.59557 0.0
C2538 C 0.55622 0.4302 0.61689 0.0
C2539 C 0.54448 0.43435 0.59563 0.0
C2540 C 0.5568 0.43291 0.58858 0.0
C2541 C 0.54399 0.43308 0.6099 0.0
C2542 C 0.56857 0.42877 0.6098 0.0
C2543 C 0.5818 0.42928 0.58771 0.0
O2544 O 0.623 0.43101 0.57952 0.0
O2545 O 0.61579 0.41223 0.56988 0.0
O2546 O 0.58508 0.41724 0.58289 0.0
O2547 O 0.59231 0.43601 0.59255 0.0
H2548 H 0.60224 0.43121 0.55281 0.0
H2549 H 0.60343 0.44209 0.53035 0.0
H2550 H 0.64739 0.44115 0.53237 0.0
H2551 H 0.64605 0.43 0.55459 0.0
H2552 H 0.65989 0.39198 0.61011 0.0
H2553 H 0.64012 0.40363 0.60018 0.0
H2554 H 0.63499 0.37888 0.64396 0.0
H2555 H 0.61534 0.39027 0.63382 0.0
H2556 H 0.55629 0.42926 0.62788 0.0
H2557 H 0.5353 0.43631 0.58984 0.0
H2558 H 0.55683 0.43401 0.5776 0.0
H2559 H 0.57783 0.42668 0.61542 0.0
C2560 C 0.75502 0.88061 0.6864 0.0
C2561 C 0.762 0.87702 0.69835 0.0
C2562 C 0.78096 0.86787 0.68494 0.0
C2563 C 0.77484 0.87073 0.69763 0.0
C2564 C 0.77386 0.87151 0.67302 0.0
C2565 C 0.76106 0.8778 0.67376 0.0
U2566 U 0.72124 0.89133 0.70387 0.0
O2567 O 0.71019 0.91083 0.70227 0.0
O2568 O 0.70053 0.892 0.69524 0.0
C2569 C 0.6996 0.90531 0.69624 0.0
C2570 C 0.74157 0.88741 0.68676 0.0
C2571 C 0.69414 0.91256 0.6842 0.0
C2572 C 0.69492 0.91878 0.66018 0.0
C2573 C 0.70068 0.91216 0.67149 0.0
C2574 C 0.67613 0.92641 0.67417 0.0
C2575 C 0.6825 0.92594 0.66133 0.0
C2576 C 0.68189 0.9198 0.68544 0.0
C2577 C 0.71484 0.88022 0.74152 0.0
C2578 C 0.69352 0.8802 0.75425 0.0
C2579 C 0.71478 0.87602 0.76598 0.0
C2580 C 0.72182 0.87746 0.75366 0.0
C2581 C 0.7005 0.8773 0.76648 0.0
C2582 C 0.70061 0.88163 0.74189 0.0
C2583 C 0.72269 0.88111 0.72866 0.0
O2584 O 0.73088 0.87938 0.68746 0.0
O2585 O 0.74052 0.89816 0.69467 0.0
O2586 O 0.72751 0.89315 0.72538 0.0
O2587 O 0.71785 0.87437 0.71815 0.0
H2588 H 0.75756 0.87911 0.70823 0.0
H2589 H 0.78001 0.86823 0.70704 0.0
H2590 H 0.77806 0.8693 0.66308 0.0
H2591 H 0.75585 0.88045 0.66441 0.0
H2592 H 0.70024 0.91831 0.65053 0.0
H2593 H 0.71017 0.90666 0.67031 0.0
H2594 H 0.66649 0.93159 0.67548 0.0
H2595 H 0.67664 0.92021 0.69514 0.0
H2596 H 0.68253 0.88115 0.75418 0.0
H2597 H 0.72056 0.87405 0.77515 0.0
H2598 H 0.7328 0.87635 0.75362 0.0
H2599 H 0.69498 0.88372 0.73264 0.0
C2600 C 0.25502 0.67976 0.37406 0.0
C2601 C 0.26202 0.68331 0.36211 0.0
C2602 C 0.28096 0.6925 0.37553 0.0
C2603 C 0.27486 0.6896 0.36283 0.0
C2604 C 0.27384 0.68889 0.38744 0.0
C2605 C 0.26104 0.68261 0.3867 0.0
U2606 U 0.22124 0.66905 0.35659 0.0
O2607 O 0.21019 0.64954 0.35818 0.0
O2608 O 0.20053 0.66838 0.36521 0.0
C2609 C 0.19959 0.65507 0.36421 0.0
C2610 C 0.24156 0.67296 0.3737 0.0
C2611 C 0.19413 0.64781 0.37625 0.0
C2612 C 0.19495 0.64153 0.40025 0.0
C2613 C 0.20071 0.64815 0.38894 0.0
C2614 C 0.17609 0.63402 0.38629 0.0
C2615 C 0.18249 0.63443 0.39912 0.0
C2616 C 0.18184 0.64063 0.37503 0.0
C2617 C 0.21483 0.68015 0.31894 0.0
C2618 C 0.19351 0.68019 0.30621 0.0
C2619 C 0.21477 0.68434 0.29448 0.0
C2620 C 0.22182 0.6829 0.30679 0.0
C2621 C 0.2005 0.68307 0.29398 0.0
C2622 C 0.2006 0.67876 0.31857 0.0
C2623 C 0.22269 0.67927 0.33179 0.0
O2624 O 0.23088 0.681 0.373 0.0
O2625 O 0.24052 0.66221 0.36579 0.0
O2626 O 0.22751 0.66722 0.33507 0.0
O2627 O 0.21785 0.686 0.3423 0.0
H2628 H 0.25759 0.68119 0.35223 0.0
H2629 H 0.28005 0.69207 0.35343 0.0
H2630 H 0.27803 0.69113 0.39739 0.0
H2631 H 0.25581 0.67999 0.39605 0.0
H2632 H 0.2003 0.64195 0.40989 0.0
H2633 H 0.21022 0.65361 0.39011 0.0
H2634 H 0.16643 0.62888 0.38499 0.0
H2635 H 0.17657 0.64028 0.36534 0.0
H2636 H 0.18253 0.67925 0.30629 0.0
H2637 H 0.22056 0.6863 0.2853 0.0
H2638 H 0.2328 0.684 0.30683 0.0
H2639 H 0.19498 0.67667 0.32783 0.0
C2640 C 0.6306 1.005 0.62408 0.0
C2641 C 0.62706 1.012 0.61213 0.0
C2642 C 0.61786 0.03093 0.62554 0.0
C2643 C 0.62077 1.02483 0.61285 0.0
C2644 C 0.62146 1.0238 0.63746 0.0
C2645 C 0.62774 1.01101 0.63672 0.0
U2646 U 0.64132 0.97121 0.60662 0.0
O2647 O 0.66083 0.96017 0.60822 0.0
O2648 O 0.64199 0.95051 0.61525 0.0
C2649 C 0.65531 0.94957 0.61425 0.0
C2650 C 0.6374 0.99154 0.62372 0.0
C2651 C 0.66256 0.94411 0.62629 0.0
C2652 C 0.66885 0.94494 0.65029 0.0
C2653 C 0.66223 0.95069 0.63898 0.0
C2654 C 0.67634 0.92607 0.63634 0.0
C2655 C 0.67594 0.93248 0.64916 0.0
C2656 C 0.66973 0.93182 0.62507 0.0
C2657 C 0.63023 0.9648 0.56897 0.0
C2658 C 0.63019 0.94347 0.55625 0.0
C2659 C 0.62604 0.96473 0.54451 0.0
C2660 C 0.62748 0.97178 0.55682 0.0
C2661 C 0.62731 0.95046 0.54402 0.0
C2662 C 0.63162 0.95057 0.5686 0.0
C2663 C 0.63111 0.97265 0.58182 0.0
O2664 O 0.62937 0.98086 0.62303 0.0
O2665 O 0.64815 0.99049 0.61582 0.0
O2666 O 0.64315 0.97747 0.58511 0.0
O2667 O 0.62437 0.96781 0.59233 0.0
H2668 H 0.62919 1.00757 0.60225 0.0
H2669 H 0.61831 1.03003 0.60344 0.0
H2670 H 0.6192 1.02799 0.6474 0.0
H2671 H 0.63035 1.00578 0.64607 0.0
H2672 H 0.66844 0.95029 0.65992 0.0
H2673 H 0.65678 0.96021 0.64015 0.0
H2674 H 0.68148 0.9164 0.63505 0.0
H2675 H 0.67008 0.92654 0.61539 0.0
H2676 H 0.63114 0.93249 0.55632 0.0
H2677 H 0.62408 0.97052 0.53533 0.0
H2678 H 0.62638 0.98276 0.55686 0.0
H2679 H 0.63371 0.94494 0.57786 0.0
C2680 C 0.30537 0.3806 0.87404 0.0
C2681 C 0.29837 0.37705 0.86209 0.0
C2682 C 0.27944 0.36787 0.87551 0.0
C2683 C 0.28554 0.37076 0.86282 0.0
C2684 C 0.28657 0.37147 0.88742 0.0
C2685 C 0.29936 0.37775 0.88668 0.0
U2686 U 0.33916 0.39132 0.85657 0.0
O2687 O 0.3502 0.41083 0.85816 0.0
O2688 O 0.35986 0.39199 0.86519 0.0
C2689 C 0.3608 0.4053 0.86418 0.0
C2690 C 0.31883 0.3874 0.87367 0.0
C2691 C 0.36626 0.41256 0.87622 0.0
C2692 C 0.36548 0.41879 0.90024 0.0
C2693 C 0.35972 0.41217 0.88893 0.0
C2694 C 0.38427 0.4264 0.88624 0.0
C2695 C 0.37791 0.42594 0.89908 0.0
C2696 C 0.37852 0.41979 0.87498 0.0
C2697 C 0.34556 0.38021 0.81892 0.0
C2698 C 0.36689 0.38018 0.80619 0.0
C2699 C 0.34563 0.37601 0.79446 0.0
C2700 C 0.33858 0.37745 0.80677 0.0
C2701 C 0.3599 0.37728 0.79396 0.0
C2702 C 0.35979 0.38161 0.81855 0.0
C2703 C 0.33771 0.38109 0.83177 0.0
O2704 O 0.32952 0.37937 0.87298 0.0
O2705 O 0.31988 0.39815 0.86576 0.0
O2706 O 0.33289 0.39314 0.83505 0.0
O2707 O 0.34255 0.37436 0.84228 0.0
H2708 H 0.3028 0.37918 0.85221 0.0
H2709 H 0.28034 0.3683 0.85341 0.0
H2710 H 0.28238 0.36922 0.89737 0.0
H2711 H 0.3046 0.38037 0.89603 0.0
H2712 H 0.36017 0.41833 0.90989 0.0
H2713 H 0.35023 0.40668 0.89011 0.0
H2714 H 0.39392 0.43158 0.88493 0.0
H2715 H 0.38377 0.42019 0.86528 0.0
H2716 H 0.37787 0.38112 0.80627 0.0
H2717 H 0.33984 0.37404 0.78528 0.0
H2718 H 0.3276 0.37634 0.80681 0.0
H2719 H 0.36542 0.3837 0.8278 0.0
C2720 C 0.42979 0.55535 0.62406 0.0
C2721 C 0.43335 0.54835 0.61211 0.0
C2722 C 0.44253 0.52942 0.62553 0.0
C2723 C 0.43964 0.53552 0.61283 0.0
C2724 C 0.43892 0.53654 0.63744 0.0
C2725 C 0.43264 0.54933 0.6367 0.0
U2726 U 0.41908 0.58914 0.60659 0.0
O2727 O 0.39957 0.60018 0.60818 0.0
O2728 O 0.41841 0.60984 0.61522 0.0
C2729 C 0.40509 0.61078 0.61421 0.0
C2730 C 0.42299 0.56881 0.6237 0.0
C2731 C 0.39784 0.61624 0.62625 0.0
C2732 C 0.39156 0.61543 0.65025 0.0
C2733 C 0.39819 0.60967 0.63894 0.0
C2734 C 0.38404 0.63428 0.63629 0.0
C2735 C 0.38445 0.62788 0.64912 0.0
C2736 C 0.39065 0.62852 0.62502 0.0
C2737 C 0.43018 0.59554 0.56894 0.0
C2738 C 0.43021 0.61686 0.55622 0.0
C2739 C 0.43438 0.5956 0.54448 0.0
C2740 C 0.43294 0.58855 0.55679 0.0
C2741 C 0.4331 0.60988 0.54399 0.0
C2742 C 0.42878 0.60977 0.56857 0.0
C2743 C 0.4293 0.58769 0.5818 0.0
O2744 O 0.43103 0.57949 0.623 0.0
O2745 O 0.41224 0.56985 0.61579 0.0
O2746 O 0.41725 0.58287 0.58507 0.0
O2747 O 0.43603 0.59252 0.59231 0.0
H2748 H 0.43122 0.55278 0.60223 0.0
H2749 H 0.4421 0.53033 0.60343 0.0
H2750 H 0.44116 0.53235 0.64739 0.0
H2751 H 0.43002 0.55456 0.64605 0.0
H2752 H 0.39199 0.61009 0.65989 0.0
H2753 H 0.40365 0.60016 0.64012 0.0
H2754 H 0.37889 0.64394 0.63499 0.0
H2755 H 0.39029 0.63379 0.61534 0.0
H2756 H 0.42927 0.62785 0.55629 0.0
H2757 H 0.43634 0.58982 0.5353 0.0
H2758 H 0.43404 0.57758 0.55683 0.0
H2759 H 0.42669 0.61539 0.57783 0.0
C2760 C 0.80537 0.17977 0.18636 0.0
C2761 C 0.79837 0.18332 0.19831 0.0
C2762 C 0.77944 0.1925 0.18489 0.0
C2763 C 0.78554 0.18961 0.19759 0.0
C2764 C 0.78656 0.18889 0.17298 0.0
C2765 C 0.79935 0.18261 0.17372 0.0
U2766 U 0.83916 0.16906 0.20384 0.0
O2767 O 0.85021 0.14956 0.20225 0.0
O2768 O 0.85986 0.16839 0.19522 0.0
C2769 C 0.8608 0.15508 0.19622 0.0
C2770 C 0.81883 0.17297 0.18673 0.0
C2771 C 0.86627 0.14782 0.18419 0.0
C2772 C 0.86543 0.1415 0.1602 0.0
C2773 C 0.85968 0.14813 0.17151 0.0
C2774 C 0.88433 0.13406 0.17415 0.0
C2775 C 0.87791 0.13443 0.16133 0.0
C2776 C 0.87858 0.14068 0.18541 0.0
C2777 C 0.84556 0.18017 0.24148 0.0
C2778 C 0.86689 0.18019 0.25421 0.0
C2779 C 0.84563 0.18439 0.26594 0.0
C2780 C 0.83858 0.18295 0.25363 0.0
C2781 C 0.8599 0.18309 0.26644 0.0
C2782 C 0.85979 0.17876 0.24186 0.0
C2783 C 0.83771 0.17929 0.22863 0.0
O2784 O 0.82951 0.18101 0.18743 0.0
O2785 O 0.81988 0.16222 0.19464 0.0
O2786 O 0.83289 0.16724 0.22536 0.0
O2787 O 0.84254 0.18602 0.21812 0.0
H2788 H 0.8028 0.1812 0.20819 0.0
H2789 H 0.78034 0.19208 0.20699 0.0
H2790 H 0.78237 0.19114 0.16303 0.0
H2791 H 0.80459 0.17999 0.16437 0.0
H2792 H 0.86008 0.14189 0.15057 0.0
H2793 H 0.85014 0.15356 0.17034 0.0
H2794 H 0.89401 0.12894 0.17544 0.0
H2795 H 0.88386 0.14035 0.19509 0.0
H2796 H 0.87787 0.17923 0.25414 0.0
H2797 H 0.83985 0.18636 0.27512 0.0
H2798 H 0.8276 0.18406 0.25359 0.0
H2799 H 0.86541 0.17665 0.2326 0.0
C2800 C 0.63061 0.05537 0.93632 0.0
C2801 C 0.62712 0.04834 0.94827 0.0
C2802 C 0.61788 1.02944 0.93485 0.0
C2803 C 0.62083 0.03551 0.94754 0.0
C2804 C 0.62141 0.03659 0.92294 0.0
C2805 C 0.6277 0.04939 0.92368 0.0
U2806 U 0.64133 0.08916 0.95379 0.0
O2807 O 0.66084 0.1002 0.95219 0.0
O2808 O 0.64201 0.10986 0.94516 0.0
C2809 C 0.65532 0.11079 0.94616 0.0
C2810 C 0.63741 0.06883 0.93669 0.0
C2811 C 0.66257 0.11625 0.93412 0.0
C2812 C 0.66878 0.11548 0.9101 0.0
C2813 C 0.66216 0.10972 0.92141 0.0
C2814 C 0.67643 0.13425 0.9241 0.0
C2815 C 0.67595 0.1279 0.91125 0.0
C2816 C 0.66983 0.1285 0.93537 0.0
C2817 C 0.63023 0.09557 0.99144 0.0
C2818 C 0.63016 0.11689 1.00417 0.0
C2819 C 0.62608 0.09562 1.01591 0.0
C2820 C 0.62752 0.08857 1.00359 0.0
C2821 C 0.62731 0.1099 1.0164 0.0
C2822 C 0.63159 0.1098 0.99181 0.0
C2823 C 0.63111 0.08771 0.97859 0.0
O2824 O 0.62938 0.07951 0.93738 0.0
O2825 O 0.64816 0.06987 0.94459 0.0
O2826 O 0.64316 0.08289 0.97531 0.0
O2827 O 0.62438 0.09255 0.96808 0.0
H2828 H 0.62929 0.05274 0.95815 0.0
H2829 H 0.61842 0.03028 0.95695 0.0
H2830 H 0.61912 0.03243 0.91299 0.0
H2831 H 0.63027 0.05465 0.91433 0.0
H2832 H 0.6683 0.11017 0.90045 0.0
H2833 H 0.65665 0.10024 0.92023 0.0
H2834 H 0.68163 0.14389 0.92541 0.0
H2835 H 0.67024 0.13374 0.94507 0.0
H2836 H 0.63106 0.12788 1.00409 0.0
H2837 H 0.62415 0.08983 1.02509 0.0
H2838 H 0.62645 0.07759 1.00356 0.0
H2839 H 0.63365 0.11543 0.98255 0.0
C2840 C 0.92983 1.005 0.43631 0.0
C2841 C 0.93337 1.012 0.44826 0.0
C2842 C 0.94255 0.03094 0.43485 0.0
C2843 C 0.93966 1.02483 0.44754 0.0
C2844 C 0.93895 1.02382 0.42293 0.0
C2845 C 0.93267 1.01102 0.42367 0.0
U2846 U 0.91912 0.97121 0.45378 0.0
O2847 O 0.89962 0.96016 0.45218 0.0
O2848 O 0.91846 0.9505 0.44515 0.0
C2849 C 0.90515 0.94956 0.44615 0.0
C2850 C 0.92303 0.99154 0.43667 0.0
C2851 C 0.8979 0.94409 0.43412 0.0
C2852 C 0.89135 0.94506 0.4102 0.0
C2853 C 0.89799 0.9508 0.4215 0.0
C2854 C 0.88433 0.92591 0.42402 0.0
C2855 C 0.88448 0.93247 0.41127 0.0
C2856 C 0.89096 0.93166 0.43528 0.0
C2857 C 0.93022 0.96481 0.49142 0.0
C2858 C 0.93028 0.94348 0.50414 0.0
C2859 C 0.93438 0.96474 0.51589 0.0
C2860 C 0.93294 0.97179 0.50358 0.0
C2861 C 0.93313 0.95047 0.51638 0.0
C2862 C 0.92885 0.95058 0.49179 0.0
C2863 C 0.92933 0.97266 0.47857 0.0
O2864 O 0.93107 0.98086 0.43737 0.0
O2865 O 0.91228 0.99049 0.44458 0.0
O2866 O 0.91729 0.97748 0.47529 0.0
O2867 O 0.93607 0.96783 0.46806 0.0
H2868 H 0.93125 1.00757 0.45814 0.0
H2869 H 0.94212 1.03003 0.45695 0.0
H2870 H 0.9412 1.02801 0.41299 0.0
H2871 H 0.93005 1.00579 0.41432 0.0
H2872 H 0.89157 0.95052 0.40062 0.0
H2873 H 0.90326 0.96043 0.42038 0.0
H2874 H 0.87937 0.91615 0.42526 0.0
H2875 H 0.89079 0.92627 0.44491 0.0
H2876 H 0.92936 0.93249 0.50406 0.0
H2877 H 0.93631 0.97053 0.52508 0.0
H2878 H 0.93402 0.98278 0.50355 0.0
H2879 H 0.92679 0.94495 0.48253 0.0
C2880 C 0.37381 0.30529 0.17969 0.0
C2881 C 0.36503 0.30207 0.19051 0.0
C2882 C 0.37582 0.27971 0.19306 0.0
C2883 C 0.36603 0.28943 0.19713 0.0
C2884 C 0.3844 0.28294 0.18204 0.0
C2885 C 0.3834 0.29558 0.17546 0.0
U2886 U 0.35674 0.3395 0.16972 0.0
O2887 O 0.36573 0.36004 0.16906 0.0
O2888 O 0.35806 0.35073 0.1503 0.0
C2889 C 0.3644 0.36116 0.15579 0.0
C2890 C 0.37352 0.31879 0.17297 0.0
C2891 C 0.37633 0.36654 0.14831 0.0
C2892 C 0.40013 0.36541 0.14133 0.0
C2893 C 0.38888 0.3597 0.1481 0.0
C2894 C 0.38637 0.38477 0.13477 0.0
C2895 C 0.39906 0.3781 0.13463 0.0
C2896 C 0.37517 0.37905 0.14152 0.0
C2897 C 0.31959 0.34662 0.18186 0.0
C2898 C 0.30407 0.36429 0.17392 0.0
C2899 C 0.29781 0.35028 0.1932 0.0
C2900 C 0.31019 0.34329 0.19209 0.0
C2901 C 0.29448 0.36083 0.18407 0.0
C2902 C 0.31649 0.35727 0.17283 0.0
C2903 C 0.33221 0.33846 0.18061 0.0
O2904 O 0.36534 0.32003 0.16245 0.0
O2905 O 0.37327 0.32946 0.18105 0.0
O2906 O 0.34297 0.343 0.18715 0.0
O2907 O 0.33511 0.33371 0.16844 0.0
H2908 H 0.3575 0.30937 0.19392 0.0
H2909 H 0.3591 0.28726 0.20542 0.0
H2910 H 0.39215 0.27585 0.17869 0.0
H2911 H 0.3903 0.29785 0.16716 0.0
H2912 H 0.40965 0.35986 0.14132 0.0
H2913 H 0.39 0.35 0.15325 0.0
H2914 H 0.38514 0.39461 0.12996 0.0
H2915 H 0.3656 0.38454 0.1416 0.0
H2916 H 0.30199 0.37246 0.16682 0.0
H2917 H 0.29069 0.34716 0.20101 0.0
H2918 H 0.31235 0.33507 0.19914 0.0
H2919 H 0.3236 0.36005 0.16487 0.0
C2920 C 0.50518 0.62379 0.92964 0.0
C2921 C 0.50839 0.61502 0.94047 0.0
C2922 C 0.53075 0.62579 0.94303 0.0
C2923 C 0.52102 0.61602 0.9471 0.0
C2924 C 0.52754 0.63436 0.93199 0.0
C2925 C 0.51491 0.63337 0.92541 0.0
U2926 U 0.47096 0.60674 0.91964 0.0
O2927 O 0.45043 0.61574 0.91896 0.0
O2928 O 0.45975 0.60807 0.9002 0.0
C2929 C 0.44933 0.61443 0.90569 0.0
C2930 C 0.49169 0.62351 0.92291 0.0
C2931 C 0.44397 0.62637 0.8982 0.0
C2932 C 0.44478 0.65033 0.89178 0.0
C2933 C 0.45052 0.63907 0.89851 0.0
C2934 C 0.42602 0.63628 0.88421 0.0
C2935 C 0.43237 0.64913 0.88461 0.0
C2936 C 0.43176 0.62507 0.89092 0.0
C2937 C 0.4638 0.5696 0.93178 0.0
C2938 C 0.44616 0.55406 0.92381 0.0
C2939 C 0.46011 0.54783 0.94314 0.0
C2940 C 0.46711 0.56022 0.94203 0.0
C2941 C 0.44959 0.54449 0.93398 0.0
C2942 C 0.45318 0.56648 0.92273 0.0
C2943 C 0.47197 0.58221 0.93054 0.0
O2944 O 0.49045 0.61532 0.91239 0.0
O2945 O 0.48101 0.62327 0.93098 0.0
O2946 O 0.46743 0.59298 0.93707 0.0
O2947 O 0.47673 0.58511 0.91836 0.0
H2948 H 0.50108 0.6075 0.94389 0.0
H2949 H 0.52318 0.60909 0.9554 0.0
H2950 H 0.53464 0.64209 0.92864 0.0
H2951 H 0.51264 0.64026 0.91709 0.0
H2952 H 0.45009 0.65999 0.8922 0.0
H2953 H 0.45998 0.64031 0.90405 0.0
H2954 H 0.41639 0.63493 0.87901 0.0
H2955 H 0.4265 0.61537 0.89059 0.0
H2956 H 0.438 0.55198 0.91669 0.0
H2957 H 0.46321 0.54072 0.95097 0.0
H2958 H 0.4753 0.56238 0.9491 0.0
H2959 H 0.45042 0.57358 0.91475 0.0
C2960 C 0.18661 0.75514 0.67967 0.0
C2961 C 0.19537 0.75834 0.6905 0.0
C2962 C 0.1846 0.78071 0.69305 0.0
C2963 C 0.19437 0.77098 0.69712 0.0
C2964 C 0.17604 0.77749 0.68201 0.0
C2965 C 0.17703 0.76486 0.67542 0.0
U2966 U 0.20366 0.72092 0.66967 0.0
O2967 O 0.19465 0.70039 0.66898 0.0
O2968 O 0.20233 0.70971 0.65023 0.0
C2969 C 0.19597 0.69929 0.65571 0.0
C2970 C 0.18689 0.74164 0.67293 0.0
C2971 C 0.18403 0.69393 0.64823 0.0
C2972 C 0.16007 0.69476 0.64178 0.0
C2973 C 0.17133 0.70049 0.64852 0.0
C2974 C 0.17411 0.67598 0.63424 0.0
C2975 C 0.16127 0.68234 0.63462 0.0
C2976 C 0.18532 0.68171 0.64095 0.0
C2977 C 0.2408 0.71376 0.68181 0.0
C2978 C 0.25634 0.69612 0.67384 0.0
C2979 C 0.26256 0.71006 0.69318 0.0
C2980 C 0.25018 0.71705 0.69207 0.0
C2981 C 0.2659 0.69955 0.68402 0.0
C2982 C 0.24392 0.70315 0.67275 0.0
C2983 C 0.22819 0.72193 0.68057 0.0
O2984 O 0.19508 0.7404 0.66242 0.0
O2985 O 0.18713 0.73097 0.681 0.0
O2986 O 0.21742 0.71739 0.68709 0.0
O2987 O 0.22529 0.72669 0.66839 0.0
H2988 H 0.20289 0.75103 0.69391 0.0
H2989 H 0.2013 0.77314 0.70543 0.0
H2990 H 0.1683 0.7846 0.67866 0.0
H2991 H 0.17014 0.7626 0.66711 0.0
H2992 H 0.15042 0.70007 0.64219 0.0
H2993 H 0.1701 0.70996 0.65404 0.0
H2994 H 0.17546 0.66634 0.62905 0.0
H2995 H 0.19502 0.67644 0.64064 0.0
H2996 H 0.25843 0.68797 0.66671 0.0
H2997 H 0.26967 0.71315 0.70102 0.0
H2998 H 0.24801 0.72524 0.69914 0.0
H2999 H 0.23682 0.70039 0.66477 0.0
C3000 C 0.05523 0.43658 0.42968 0.0
C3001 C 0.05203 0.44534 0.44053 0.0
C3002 C 1.02966 0.43458 0.44307 0.0
C3003 C 0.0394 0.44434 0.44715 0.0
C3004 C 0.03287 0.42603 0.43201 0.0
C3005 C 0.0455 0.42702 0.42543 0.0
U3006 U 0.08946 0.45363 0.41969 0.0
O3007 O 0.10999 0.44462 0.41901 0.0
O3008 O 0.10067 0.4523 0.40025 0.0
C3009 C 0.11109 0.44594 0.40573 0.0
C3010 C 0.06873 0.43687 0.42295 0.0
C3011 C 0.11644 0.43399 0.39825 0.0
C3012 C 0.11564 0.41002 0.39184 0.0
C3013 C 0.1099 0.42129 0.39857 0.0
C3014 C 0.13438 0.42409 0.38423 0.0
C3015 C 0.12804 0.41123 0.38465 0.0
C3016 C 0.12865 0.4353 0.39095 0.0
C3017 C 0.09662 0.49077 0.43183 0.0
C3018 C 0.11426 0.50632 0.42385 0.0
C3019 C 0.10033 0.51253 0.4432 0.0
C3020 C 0.09333 0.50014 0.44209 0.0
C3021 C 0.11083 0.51588 0.43403 0.0
C3022 C 0.10723 0.4939 0.42276 0.0
C3023 C 0.08845 0.47816 0.43058 0.0
O3024 O 0.06997 0.44505 0.41243 0.0
O3025 O 0.0794 0.4371 0.43102 0.0
O3026 O 0.09299 0.46739 0.43711 0.0
O3027 O 0.08369 0.47526 0.41841 0.0
H3028 H 0.05935 0.45285 0.44395 0.0
H3029 H 0.03725 0.45125 0.45546 0.0
H3030 H 1.02576 0.4183 0.42865 0.0
H3031 H 0.04776 0.42014 0.41711 0.0
H3032 H 0.11033 0.40037 0.39227 0.0
H3033 H 0.10045 0.42005 0.40412 0.0
H3034 H 0.144 0.42544 0.37903 0.0
H3035 H 0.1339 0.445 0.39061 0.0
H3036 H 0.1224 0.50841 0.41671 0.0
H3037 H 0.09724 0.51963 0.45104 0.0
H3038 H 0.08515 0.49797 0.44917 0.0
H3039 H 0.10998 0.4868 0.41477 0.0
C3040 C 0.3738 0.75513 0.38074 0.0
C3041 C 0.36504 0.75833 0.36991 0.0
C3042 C 0.37581 0.78069 0.36736 0.0
C3043 C 0.36604 0.77096 0.36328 0.0
C3044 C 0.38437 0.77748 0.3784 0.0
C3045 C 0.38338 0.76485 0.38499 0.0
U3046 U 0.35675 0.72091 0.39074 0.0
O3047 O 0.36575 0.70037 0.39142 0.0
O3048 O 0.35807 0.70969 0.41018 0.0
C3049 C 0.36443 0.69927 0.40469 0.0
C3050 C 0.37352 0.74163 0.38748 0.0
C3051 C 0.37638 0.69392 0.41218 0.0
C3052 C 0.40034 0.69474 0.41861 0.0
C3053 C 0.38908 0.70047 0.41188 0.0
C3054 C 0.38629 0.67597 0.42617 0.0
C3055 C 0.39914 0.68233 0.42578 0.0
C3056 C 0.37508 0.6817 0.41946 0.0
C3057 C 0.3196 0.71374 0.37859 0.0
C3058 C 0.30406 0.69611 0.38656 0.0
C3059 C 0.29785 0.71004 0.36722 0.0
C3060 C 0.31023 0.71704 0.36833 0.0
C3061 C 0.2945 0.69953 0.37638 0.0
C3062 C 0.31648 0.70314 0.38766 0.0
C3063 C 0.33222 0.72191 0.37984 0.0
O3064 O 0.36533 0.74039 0.39799 0.0
O3065 O 0.37328 0.73095 0.3794 0.0
O3066 O 0.34299 0.71738 0.37331 0.0
O3067 O 0.33512 0.72667 0.39201 0.0
H3068 H 0.35752 0.75102 0.36649 0.0
H3069 H 0.35912 0.77312 0.35497 0.0
H3070 H 0.3921 0.78458 0.38176 0.0
H3071 H 0.39026 0.76258 0.39331 0.0
H3072 H 0.40999 0.70005 0.41821 0.0
H3073 H 0.39031 0.70994 0.40635 0.0
H3074 H 0.38494 0.66633 0.43136 0.0
H3075 H 0.36538 0.67643 0.41977 0.0
H3076 H 0.30197 0.68796 0.39369 0.0
H3077 H 0.29074 0.71314 0.35938 0.0
H3078 H 0.3124 0.72523 0.36125 0.0
H3079 H 0.32358 0.70038 0.39564 0.0
C3080 C 0.05523 0.62376 0.13075 0.0
C3081 C 0.05204 0.61502 0.11989 0.0
C3082 C 1.02967 0.62577 0.11737 0.0
C3083 C 0.0394 0.61603 0.11327 0.0
C3084 C 0.03287 0.63431 0.12844 0.0
C3085 C 0.0455 0.63331 0.13502 0.0
U3086 U 0.08946 0.60672 0.14075 0.0
O3087 O 0.10999 0.61572 0.14143 0.0
O3088 O 0.10067 0.60804 0.16019 0.0
C3089 C 0.11109 0.6144 0.1547 0.0
C3090 C 0.06873 0.62348 0.13749 0.0
C3091 C 0.11645 0.62635 0.16218 0.0
C3092 C 0.11564 0.65031 0.1686 0.0
C3093 C 0.1099 0.63905 0.16188 0.0
C3094 C 0.1344 0.63626 0.17618 0.0
C3095 C 0.12804 0.64911 0.17578 0.0
C3096 C 0.12866 0.62505 0.16947 0.0
C3097 C 0.09663 0.56957 0.1286 0.0
C3098 C 0.11425 0.55402 0.13658 0.0
C3099 C 0.10033 0.54782 0.11722 0.0
C3100 C 0.09334 0.5602 0.11833 0.0
C3101 C 0.11083 0.54447 0.12639 0.0
C3102 C 0.10722 0.56645 0.13767 0.0
C3103 C 0.08845 0.58219 0.12985 0.0
O3104 O 0.06998 0.61529 0.148 0.0
O3105 O 0.07941 0.62324 0.12941 0.0
O3106 O 0.09299 0.59295 0.12332 0.0
O3107 O 0.08369 0.58508 0.14202 0.0
H3108 H 0.05936 0.60752 0.11646 0.0
H3109 H 0.03726 0.60912 0.10494 0.0
H3110 H 1.02576 0.64203 0.13181 0.0
H3111 H 0.04776 0.64018 0.14335 0.0
H3112 H 0.11033 0.65997 0.16819 0.0
H3113 H 0.10044 0.64029 0.15634 0.0
H3114 H 0.14403 0.63491 0.18138 0.0
H3115 H 0.13392 0.61535 0.1698 0.0
H3116 H 0.12239 0.55193 0.14372 0.0
H3117 H 0.09724 0.54072 0.10938 0.0
H3118 H 0.08515 0.56238 0.11125 0.0
H3119 H 0.10998 0.57354 0.14566 0.0
C3120 C 0.1866 0.30523 0.88074 0.0
C3121 C 0.19537 0.30202 0.8699 0.0
C3122 C 0.1846 0.27966 0.86735 0.0
C3123 C 0.19437 0.28939 0.86328 0.0
C3124 C 0.17604 0.28287 0.8784 0.0
C3125 C 0.17703 0.2955 0.88498 0.0
U3126 U 0.20365 0.33945 0.89073 0.0
O3127 O 0.19465 0.35998 0.89142 0.0
O3128 O 0.20233 0.35066 0.91018 0.0
C3129 C 0.19597 0.36108 0.90469 0.0
C3130 C 0.18689 0.31872 0.88747 0.0
C3131 C 0.18402 0.36643 0.91218 0.0
C3132 C 0.16006 0.36562 0.9186 0.0
C3133 C 0.17132 0.35988 0.91187 0.0
C3134 C 0.17412 0.38437 0.92619 0.0
C3135 C 0.16126 0.37802 0.92578 0.0
C3136 C 0.18533 0.37864 0.91947 0.0
C3137 C 0.2408 0.34662 0.87858 0.0
C3138 C 0.25634 0.36425 0.88656 0.0
C3139 C 0.26255 0.35032 0.8672 0.0
C3140 C 0.25016 0.34333 0.86831 0.0
C3141 C 0.2659 0.36083 0.87637 0.0
C3142 C 0.24392 0.35722 0.88765 0.0
C3143 C 0.22818 0.33844 0.87983 0.0
O3144 O 0.19508 0.31996 0.89799 0.0
O3145 O 0.18712 0.3294 0.8794 0.0
O3146 O 0.21741 0.34298 0.8733 0.0
O3147 O 0.22529 0.33368 0.892 0.0
H3148 H 0.20289 0.30933 0.86648 0.0
H3149 H 0.20129 0.28723 0.85497 0.0
H3150 H 0.1683 0.27577 0.88175 0.0
H3151 H 0.17014 0.29777 0.8933 0.0
H3152 H 0.15041 0.36031 0.91819 0.0
H3153 H 0.17009 0.35042 0.90633 0.0
H3154 H 0.17547 0.394 0.93138 0.0
H3155 H 0.19502 0.3839 0.9198 0.0
H3156 H 0.25844 0.37239 0.89369 0.0
H3157 H 0.26965 0.34723 0.85936 0.0
H3158 H 0.24799 0.33514 0.86124 0.0
H3159 H 0.23683 0.35997 0.89564 0.0
C3160 C 0.50517 0.43659 0.63073 0.0
C3161 C 0.50837 0.44534 0.6199 0.0
C3162 C 0.53074 0.43458 0.61735 0.0
C3163 C 0.52101 0.44435 0.61328 0.0
C3164 C 0.52752 0.42602 0.6284 0.0
C3165 C 0.51489 0.42701 0.63498 0.0
U3166 U 0.47094 0.45363 0.64073 0.0
O3167 O 0.45041 0.44463 0.64141 0.0
O3168 O 0.45973 0.45231 0.66017 0.0
C3169 C 0.44931 0.44595 0.65468 0.0
C3170 C 0.49167 0.43687 0.63747 0.0
C3171 C 0.44395 0.434 0.66217 0.0
C3172 C 0.44477 0.41004 0.6686 0.0
C3173 C 0.4505 0.4213 0.66187 0.0
C3174 C 0.426 0.42409 0.67617 0.0
C3175 C 0.43236 0.41124 0.67577 0.0
C3176 C 0.43174 0.4353 0.66945 0.0
C3177 C 0.46378 0.49078 0.62859 0.0
C3178 C 0.44614 0.50632 0.63656 0.0
C3179 C 0.46008 0.51253 0.61722 0.0
C3180 C 0.46707 0.50015 0.61832 0.0
C3181 C 0.44957 0.51588 0.62638 0.0
C3182 C 0.45317 0.4939 0.63765 0.0
C3183 C 0.47195 0.47816 0.62983 0.0
O3184 O 0.49043 0.44506 0.64798 0.0
O3185 O 0.48099 0.43711 0.62939 0.0
O3186 O 0.46742 0.4674 0.6233 0.0
O3187 O 0.47671 0.47527 0.64201 0.0
H3188 H 0.50106 0.45286 0.61648 0.0
H3189 H 0.52316 0.45126 0.60497 0.0
H3190 H 0.53463 0.41829 0.63176 0.0
H3191 H 0.51263 0.42013 0.6433 0.0
H3192 H 0.45008 0.40039 0.66818 0.0
H3193 H 0.45997 0.42007 0.65633 0.0
H3194 H 0.41637 0.42544 0.68136 0.0
H3195 H 0.42648 0.445 0.66978 0.0
H3196 H 0.438 0.50841 0.64369 0.0
H3197 H 0.46317 0.51964 0.60938 0.0
H3198 H 0.47526 0.49798 0.61125 0.0
H3199 H 0.45041 0.4868 0.64563 0.0
C3200 C 0.17965 0.37377 0.30528 0.0
C3201 C 0.19049 0.36501 0.30207 0.0
C3202 C 0.19303 0.37577 0.2797 0.0
C3203 C 0.19711 0.36601 0.28944 0.0
C3204 C 0.18198 0.38433 0.28292 0.0
C3205 C 0.1754 0.38333 0.29555 0.0
U3206 U 0.16967 0.35672 0.3395 0.0
O3207 O 0.16899 0.36572 0.36003 0.0
O3208 O 0.15023 0.35804 0.35072 0.0
C3209 C 0.15571 0.3644 0.36114 0.0
C3210 C 0.17292 0.37348 0.31877 0.0
C3211 C 0.14823 0.37634 0.36649 0.0
C3212 C 0.14175 0.40029 0.36564 0.0
C3213 C 0.14849 0.38903 0.35991 0.0
C3214 C 0.13427 0.38627 0.38447 0.0
C3215 C 0.13462 0.3991 0.37808 0.0
C3216 C 0.14099 0.37505 0.37874 0.0
C3217 C 0.18182 0.31957 0.34667 0.0
C3218 C 0.17385 0.30403 0.3643 0.0
C3219 C 0.1932 0.29783 0.35037 0.0
C3220 C 0.19209 0.31021 0.34337 0.0
C3221 C 0.18404 0.29447 0.36087 0.0
C3222 C 0.17276 0.31645 0.35727 0.0
C3223 C 0.18057 0.33219 0.33849 0.0
O3224 O 0.16241 0.36529 0.32002 0.0
O3225 O 0.181 0.37324 0.32945 0.0
O3226 O 0.1871 0.34296 0.34303 0.0
O3227 O 0.1684 0.33508 0.33374 0.0
H3228 H 0.19392 0.3575 0.30939 0.0
H3229 H 0.20543 0.3591 0.28728 0.0
H3230 H 0.17862 0.39206 0.27581 0.0
H3231 H 0.16708 0.39021 0.29781 0.0
H3232 H 0.14213 0.40993 0.36031 0.0
H3233 H 0.15399 0.39025 0.35043 0.0
H3234 H 0.12911 0.38493 0.39412 0.0
H3235 H 0.1407 0.36537 0.38402 0.0
H3236 H 0.16672 0.30193 0.37244 0.0
H3237 H 0.20105 0.29073 0.34727 0.0
H3238 H 0.19917 0.31238 0.33518 0.0
H3239 H 0.16477 0.32354 0.36003 0.0
C3240 C 0.43662 0.42964 0.05518 0.0
C3241 C 0.44536 0.44049 0.05199 0.0
C3242 C 0.43462 0.44303 1.02962 0.0
C3243 C 0.44437 0.44711 0.03936 0.0
C3244 C 0.42607 0.43197 0.03282 0.0
C3245 C 0.42706 0.42538 0.04544 0.0
U3246 U 0.45364 0.41962 0.08941 0.0
O3247 O 0.44462 0.41891 0.10993 0.0
O3248 O 0.45231 0.40016 0.10061 0.0
C3249 C 0.44593 0.40564 0.11102 0.0
C3250 C 0.4369 0.42289 0.06868 0.0
C3251 C 0.43397 0.39815 0.11635 0.0
C3252 C 0.40987 0.39224 0.11586 0.0
C3253 C 0.42114 0.39893 0.1101 0.0
C3254 C 0.42417 0.38373 0.13402 0.0
C3255 C 0.41119 0.38462 0.12799 0.0
C3256 C 0.43539 0.39041 0.12827 0.0
C3257 C 0.49078 0.43176 0.09662 0.0
C3258 C 0.50636 0.42374 0.1142 0.0
C3259 C 0.51251 0.44318 0.10037 0.0
C3260 C 0.50012 0.44207 0.09337 0.0
C3261 C 0.51589 0.43396 0.11083 0.0
C3262 C 0.49394 0.42265 0.10717 0.0
C3263 C 0.47817 0.43052 0.08844 0.0
O3264 O 0.44508 0.41238 0.06992 0.0
O3265 O 0.43712 0.43096 0.07936 0.0
O3266 O 0.4674 0.43704 0.09297 0.0
O3267 O 0.47528 0.41835 0.08366 0.0
H3268 H 0.45287 0.44392 0.05932 0.0
H3269 H 0.45127 0.45544 0.03722 0.0
H3270 H 0.41835 0.4286 1.0257 0.0
H3271 H 0.42019 0.41705 0.04769 0.0
H3272 H 0.40011 0.39304 0.11079 0.0
H3273 H 0.4198 0.40482 0.10087 0.0
H3274 H 0.42562 0.37818 0.14344 0.0
H3275 H 0.44519 0.38971 0.13329 0.0
H3276 H 0.50848 0.41657 0.1223 0.0
H3277 H 0.51959 0.45106 0.09732 0.0
H3278 H 0.49793 0.44918 0.08523 0.0
H3279 H 0.48687 0.41462 0.10989 0.0
C3280 C 0.38074 0.68659 0.80523 0.0
C3281 C 0.3699 0.69535 0.80203 0.0
C3282 C 0.36736 0.68458 0.77966 0.0
C3283 C 0.36328 0.69435 0.78939 0.0
C3284 C 0.3784 0.67603 0.78288 0.0
C3285 C 0.38499 0.67702 0.79551 0.0
U3286 U 0.39073 0.70364 0.83946 0.0
O3287 O 0.39142 0.69464 0.85999 0.0
O3288 O 0.41017 0.70232 0.85067 0.0
C3289 C 0.40469 0.69596 0.86109 0.0
C3290 C 0.38747 0.68688 0.81873 0.0
C3291 C 0.41218 0.68401 0.86644 0.0
C3292 C 0.41864 0.66006 0.8656 0.0
C3293 C 0.4119 0.67132 0.85987 0.0
C3294 C 0.42615 0.6741 0.88441 0.0
C3295 C 0.42579 0.66126 0.87803 0.0
C3296 C 0.41944 0.68531 0.87868 0.0
C3297 C 0.37858 0.74078 0.84663 0.0
C3298 C 0.38656 0.75633 0.86426 0.0
C3299 C 0.3672 0.76253 0.85034 0.0
C3300 C 0.36831 0.75015 0.84334 0.0
C3301 C 0.37637 0.76588 0.86084 0.0
C3302 C 0.38765 0.74391 0.85723 0.0
C3303 C 0.37983 0.72817 0.83845 0.0
O3304 O 0.39798 0.69507 0.81997 0.0
O3305 O 0.3794 0.68711 0.82941 0.0
O3306 O 0.3733 0.7174 0.84299 0.0
O3307 O 0.392 0.72528 0.83369 0.0
H3308 H 0.36648 0.70287 0.80934 0.0
H3309 H 0.35496 0.70126 0.78724 0.0
H3310 H 0.38176 0.66829 0.77577 0.0
H3311 H 0.39331 0.67014 0.79777 0.0
H3312 H 0.41825 0.65042 0.86028 0.0
H3313 H 0.40639 0.6701 0.8504 0.0
H3314 H 0.43133 0.67544 0.89405 0.0
H3315 H 0.41974 0.695 0.88395 0.0
H3316 H 0.39369 0.75843 0.87239 0.0
H3317 H 0.35935 0.76963 0.84725 0.0
H3318 H 0.36123 0.74797 0.83516 0.0
H3319 H 0.39564 0.73682 0.85998 0.0
C3320 C 0.1238 0.63072 0.55524 0.0
C3321 C 0.11504 0.61988 0.55204 0.0
C3322 C 0.1258 0.61733 0.52967 0.0
C3323 C 0.11604 0.61325 0.5394 0.0
C3324 C 0.13436 0.62839 0.53288 0.0
C3325 C 0.13336 0.63497 0.54551 0.0
U3326 U 0.10675 0.64072 0.58946 0.0
O3327 O 0.11575 0.6414 0.60999 0.0
O3328 O 0.10807 0.66016 0.60067 0.0
C3329 C 0.11443 0.65467 0.6111 0.0
C3330 C 0.12351 0.63746 0.56874 0.0
C3331 C 0.12638 0.66216 0.61645 0.0
C3332 C 0.15034 0.6686 0.61562 0.0
C3333 C 0.13907 0.66187 0.60989 0.0
C3334 C 0.13629 0.67614 0.63441 0.0
C3335 C 0.14914 0.67576 0.62804 0.0
C3336 C 0.12508 0.66943 0.62868 0.0
C3337 C 0.0696 0.62857 0.59663 0.0
C3338 C 0.05406 0.63655 0.61426 0.0
C3339 C 0.04785 0.6172 0.60033 0.0
C3340 C 0.06023 0.6183 0.59334 0.0
C3341 C 0.0445 0.62637 0.61083 0.0
C3342 C 0.06648 0.63764 0.60723 0.0
C3343 C 0.08222 0.62982 0.58845 0.0
O3344 O 0.11532 0.64797 0.56998 0.0
O3345 O 0.12327 0.62938 0.57941 0.0
O3346 O 0.09298 0.62329 0.59299 0.0
O3347 O 0.08511 0.64199 0.58369 0.0
H3348 H 0.10753 0.61645 0.55935 0.0
H3349 H 0.10913 0.60494 0.53725 0.0
H3350 H 0.14209 0.63175 0.52577 0.0
H3351 H 0.14025 0.64329 0.54777 0.0
H3352 H 0.15998 0.6682 0.61031 0.0
H3353 H 0.14031 0.65634 0.60042 0.0
H3354 H 0.13494 0.68133 0.64404 0.0
H3355 H 0.11539 0.66974 0.63394 0.0
H3356 H 0.05196 0.64369 0.6224 0.0
H3357 H 0.04075 0.60935 0.59724 0.0
H3358 H 0.0624 0.61123 0.58515 0.0
H3359 H 0.07357 0.64563 0.60998 0.0
C3360 C 0.17967 0.68658 0.25516 0.0
C3361 C 0.1905 0.69534 0.25836 0.0
C3362 C 0.19305 0.68457 0.28073 0.0
C3363 C 0.19713 0.69434 0.271 0.0
C3364 C 0.182 0.67601 0.27752 0.0
C3365 C 0.17542 0.67701 0.26488 0.0
U3366 U 0.16968 0.70363 0.22094 0.0
O3367 O 0.16899 0.69462 0.20041 0.0
O3368 O 0.15024 0.7023 0.20972 0.0
C3369 C 0.15572 0.69594 0.1993 0.0
C3370 C 0.17293 0.68686 0.24166 0.0
C3371 C 0.14824 0.684 0.19395 0.0
C3372 C 0.14177 0.66005 0.19479 0.0
C3373 C 0.14851 0.67131 0.20052 0.0
C3374 C 0.13426 0.67408 0.17598 0.0
C3375 C 0.13463 0.66124 0.18236 0.0
C3376 C 0.14098 0.68529 0.18171 0.0
C3377 C 0.18182 0.74077 0.21377 0.0
C3378 C 0.17385 0.75631 0.19614 0.0
C3379 C 0.1932 0.76252 0.21007 0.0
C3380 C 0.19209 0.75014 0.21707 0.0
C3381 C 0.18404 0.76587 0.19956 0.0
C3382 C 0.17276 0.74389 0.20317 0.0
C3383 C 0.18058 0.72815 0.22194 0.0
O3384 O 0.16242 0.69505 0.24042 0.0
O3385 O 0.18101 0.6871 0.23099 0.0
O3386 O 0.1871 0.71739 0.21741 0.0
O3387 O 0.1684 0.72526 0.2267 0.0
H3388 H 0.19393 0.70285 0.25105 0.0
H3389 H 0.20544 0.70125 0.27316 0.0
H3390 H 0.17864 0.66828 0.28462 0.0
H3391 H 0.1671 0.67012 0.26262 0.0
H3392 H 0.14216 0.6504 0.20011 0.0
H3393 H 0.15402 0.67008 0.21 0.0
H3394 H 0.12909 0.67542 0.16634 0.0
H3395 H 0.14068 0.69498 0.17644 0.0
H3396 H 0.16672 0.75841 0.18799 0.0
H3397 H 0.20104 0.76962 0.21316 0.0
H3398 H 0.19917 0.74797 0.22525 0.0
H3399 H 0.16477 0.7368 0.20041 0.0
C3400 C 0.12379 0.42964 1.00517 0.0
C3401 C 0.11505 0.44048 1.00837 0.0
C3402 C 0.1258 0.44302 0.03074 0.0
C3403 C 0.11605 0.44711 1.02101 0.0
C3404 C 0.13434 0.43196 1.02754 0.0
C3405 C 0.13335 0.42537 1.01491 0.0
U3406 U 0.10675 0.41964 0.97095 0.0
O3407 O 0.11575 0.41896 0.95042 0.0
O3408 O 0.10807 0.4002 0.95974 0.0
C3409 C 0.11443 0.40569 0.94931 0.0
C3410 C 0.12351 0.4229 0.99168 0.0
C3411 C 0.12638 0.39821 0.94396 0.0
C3412 C 0.15033 0.39175 0.94479 0.0
C3413 C 0.13907 0.39848 0.95053 0.0
C3414 C 0.13629 0.38424 0.92599 0.0
C3415 C 0.14913 0.3846 0.93236 0.0
C3416 C 0.12508 0.39095 0.93172 0.0
C3417 C 0.0696 0.43178 0.96378 0.0
C3418 C 0.05405 0.4238 0.94616 0.0
C3419 C 0.04785 0.44316 0.96008 0.0
C3420 C 0.06023 0.44205 0.96707 0.0
C3421 C 0.04449 0.43399 0.94958 0.0
C3422 C 0.06647 0.42271 0.95318 0.0
C3423 C 0.08221 0.43054 0.97196 0.0
O3424 O 0.11532 0.41239 0.99043 0.0
O3425 O 0.12327 0.43098 0.981 0.0
O3426 O 0.09298 0.43707 0.96742 0.0
O3427 O 0.08511 0.41837 0.97671 0.0
H3428 H 0.10754 0.44392 1.00105 0.0
H3429 H 0.10914 0.45543 1.02316 0.0
H3430 H 0.14207 0.42859 0.03465 0.0
H3431 H 0.14023 0.41705 1.01265 0.0
H3432 H 0.15997 0.39213 0.95012 0.0
H3433 H 0.1403 0.40399 0.96 0.0
H3434 H 0.13495 0.37907 0.91634 0.0
H3435 H 0.11539 0.39065 0.92645 0.0
H3436 H 0.05196 0.41667 0.93802 0.0
H3437 H 0.04075 0.451 0.96317 0.0
H3438 H 0.0624 0.44913 0.97526 0.0
H3439 H 0.07357 0.41473 0.95043 0.0
C3440 C 0.38073 0.37378 0.75514 0.0
C3441 C 0.3699 0.36502 0.75835 0.0
C3442 C 0.36735 0.37579 0.78071 0.0
C3443 C 0.36328 0.36602 0.77099 0.0
C3444 C 0.37839 0.38435 0.7775 0.0
C3445 C 0.38497 0.38336 0.76486 0.0
U3446 U 0.39073 0.35673 0.72092 0.0
O3447 O 0.39141 0.36573 0.70039 0.0
O3448 O 0.41017 0.35805 0.70971 0.0
C3449 C 0.40469 0.36441 0.69929 0.0
C3450 C 0.38747 0.37349 0.74165 0.0
C3451 C 0.41217 0.37636 0.69393 0.0
C3452 C 0.41863 0.40031 0.69477 0.0
C3453 C 0.41189 0.38905 0.7005 0.0
C3454 C 0.42615 0.38627 0.67597 0.0
C3455 C 0.42578 0.39911 0.68235 0.0
C3456 C 0.41943 0.37506 0.6817 0.0
C3457 C 0.37858 0.31958 0.71376 0.0
C3458 C 0.38655 0.30404 0.69613 0.0
C3459 C 0.36721 0.29783 0.71006 0.0
C3460 C 0.36832 0.31021 0.71706 0.0
C3461 C 0.37637 0.29448 0.69956 0.0
C3462 C 0.38765 0.31646 0.70315 0.0
C3463 C 0.37983 0.3322 0.72193 0.0
O3464 O 0.39798 0.3653 0.74041 0.0
O3465 O 0.37939 0.37326 0.73097 0.0
O3466 O 0.3733 0.34296 0.7174 0.0
O3467 O 0.392 0.33509 0.72669 0.0
H3468 H 0.36648 0.35749 0.75104 0.0
H3469 H 0.35497 0.35909 0.77314 0.0
H3470 H 0.38174 0.39209 0.7846 0.0
H3471 H 0.39329 0.39025 0.7626 0.0
H3472 H 0.41824 0.40995 0.7001 0.0
H3473 H 0.40638 0.39028 0.70998 0.0
H3474 H 0.43132 0.38493 0.66633 0.0
H3475 H 0.41973 0.36537 0.67643 0.0
H3476 H 0.39368 0.30195 0.68798 0.0
H3477 H 0.35937 0.29073 0.71316 0.0
H3478 H 0.36124 0.31238 0.72525 0.0
H3479 H 0.39563 0.32356 0.7004 0.0
C3480 C 0.4366 0.63071 0.50517 0.0
C3481 C 0.44537 0.61988 0.50837 0.0
C3482 C 0.4346 0.61733 0.53073 0.0
C3483 C 0.44437 0.61325 0.52101 0.0
C3484 C 0.42604 0.62837 0.52752 0.0
C3485 C 0.42703 0.63495 0.51489 0.0
U3486 U 0.45365 0.6407 0.47094 0.0
O3487 O 0.44465 0.64138 0.45041 0.0
O3488 O 0.45233 0.66014 0.45973 0.0
C3489 C 0.44597 0.65466 0.44931 0.0
C3490 C 0.43689 0.63744 0.49167 0.0
C3491 C 0.43402 0.66214 0.44395 0.0
C3492 C 0.41007 0.66859 0.44478 0.0
C3493 C 0.42133 0.66186 0.45052 0.0
C3494 C 0.42411 0.67612 0.42599 0.0
C3495 C 0.41127 0.67574 0.43236 0.0
C3496 C 0.43532 0.6694 0.43172 0.0
C3497 C 0.4908 0.62856 0.46378 0.0
C3498 C 0.50634 0.63653 0.44615 0.0
C3499 C 0.51255 0.61719 0.46008 0.0
C3500 C 0.50017 0.61829 0.46708 0.0
C3501 C 0.5159 0.62635 0.44957 0.0
C3502 C 0.49392 0.63762 0.45317 0.0
C3503 C 0.47818 0.6298 0.47195 0.0
O3504 O 0.44508 0.64795 0.49043 0.0
O3505 O 0.43712 0.62937 0.48099 0.0
O3506 O 0.46742 0.62328 0.46742 0.0
O3507 O 0.47529 0.64198 0.47671 0.0
H3508 H 0.45289 0.61646 0.50106 0.0
H3509 H 0.45129 0.60494 0.52316 0.0
H3510 H 0.4183 0.63172 0.53462 0.0
H3511 H 0.42014 0.64327 0.51262 0.0
H3512 H 0.40042 0.66819 0.4501 0.0
H3513 H 0.4201 0.65634 0.45999 0.0
H3514 H 0.42546 0.6813 0.41635 0.0
H3515 H 0.44501 0.66971 0.42646 0.0
H3516 H 0.50843 0.64366 0.438 0.0
H3517 H 0.51966 0.60935 0.46318 0.0
H3518 H 0.498 0.61122 0.47527 0.0
H3519 H 0.48682 0.64561 0.45042 0.0
C3520 C 0.30529 0.17968 0.37382 0.0
C3521 C 0.30208 0.19051 0.36505 0.0
C3522 C 0.27972 0.19305 0.37583 0.0
C3523 C 0.28944 0.19712 0.36605 0.0
C3524 C 0.28295 0.18202 0.3844 0.0
C3525 C 0.29558 0.17544 0.3834 0.0
U3526 U 0.33951 0.16971 0.35675 0.0
O3527 O 0.36005 0.16905 0.36574 0.0
O3528 O 0.35074 0.15029 0.35807 0.0
C3529 C 0.36117 0.15578 0.36441 0.0
C3530 C 0.3188 0.17296 0.37353 0.0
C3531 C 0.36655 0.1483 0.37634 0.0
C3532 C 0.36543 0.14134 0.40014 0.0
C3533 C 0.35972 0.14811 0.3889 0.0
C3534 C 0.38477 0.13474 0.38637 0.0
C3535 C 0.37811 0.13462 0.39907 0.0
C3536 C 0.37905 0.14149 0.37517 0.0
C3537 C 0.34664 0.18186 0.3196 0.0
C3538 C 0.36431 0.17392 0.30408 0.0
C3539 C 0.35031 0.1932 0.29782 0.0
C3540 C 0.34331 0.19209 0.31021 0.0
C3541 C 0.36085 0.18407 0.2945 0.0
C3542 C 0.35728 0.17282 0.3165 0.0
C3543 C 0.33848 0.18061 0.33222 0.0
O3544 O 0.32004 0.16245 0.36534 0.0
O3545 O 0.32947 0.18104 0.37328 0.0
O3546 O 0.34301 0.18714 0.34298 0.0
O3547 O 0.33373 0.16843 0.33512 0.0
H3548 H 0.30938 0.19392 0.35752 0.0
H3549 H 0.28727 0.20542 0.35912 0.0
H3550 H 0.27585 0.17867 0.39214 0.0
H3551 H 0.29786 0.16713 0.3903 0.0
H3552 H 0.3599 0.14135 0.40968 0.0
H3553 H 0.35003 0.15327 0.39002 0.0
H3554 H 0.3946 0.12991 0.38513 0.0
H3555 H 0.38453 0.14155 0.3656 0.0
H3556 H 0.37248 0.16681 0.302 0.0
H3557 H 0.34719 0.20101 0.2907 0.0
H3558 H 0.3351 0.19914 0.31236 0.0
H3559 H 0.36007 0.16487 0.32361 0.0
C3560 C 0.80524 0.38071 0.68661 0.0
C3561 C 0.80204 0.36987 0.69536 0.0
C3562 C 0.77967 0.36733 0.6846 0.0
C3563 C 0.7894 0.36325 0.69436 0.0
C3564 C 0.78288 0.37838 0.67604 0.0
C3565 C 0.79552 0.38497 0.67704 0.0
U3566 U 0.83946 0.39071 0.70366 0.0
O3567 O 0.86 0.39139 0.69465 0.0
O3568 O 0.85068 0.41015 0.70234 0.0
C3569 C 0.8611 0.40466 0.69597 0.0
C3570 C 0.81874 0.38745 0.68689 0.0
C3571 C 0.86645 0.41215 0.68403 0.0
C3572 C 0.86562 0.41861 0.66008 0.0
C3573 C 0.85989 0.41188 0.67134 0.0
C3574 C 0.88441 0.42613 0.67412 0.0
C3575 C 0.87804 0.42576 0.66128 0.0
C3576 C 0.87868 0.41941 0.68533 0.0
C3577 C 0.84663 0.37855 0.7408 0.0
C3578 C 0.86426 0.38653 0.75635 0.0
C3579 C 0.85035 0.36717 0.76255 0.0
C3580 C 0.84335 0.36828 0.75016 0.0
C3581 C 0.86085 0.37634 0.7659 0.0
C3582 C 0.85723 0.38762 0.74393 0.0
C3583 C 0.83846 0.3798 0.72818 0.0
O3584 O 0.81998 0.39796 0.69508 0.0
O3585 O 0.82941 0.37938 0.68713 0.0
O3586 O 0.84299 0.37328 0.71742 0.0
O3587 O 0.8337 0.39197 0.72529 0.0
H3588 H 0.80935 0.36645 0.70288 0.0
H3589 H 0.78725 0.35494 0.70127 0.0
H3590 H 0.77578 0.38174 0.66831 0.0
H3591 H 0.79778 0.39329 0.67015 0.0
H3592 H 0.86029 0.41822 0.65043 0.0
H3593 H 0.85041 0.40636 0.67011 0.0
H3594 H 0.89406 0.43131 0.67546 0.0
H3595 H 0.88396 0.41971 0.69502 0.0
H3596 H 0.8724 0.39367 0.75844 0.0
H3597 H 0.84726 0.35932 0.76964 0.0
H3598 H 0.83517 0.3612 0.74799 0.0
H3599 H 0.85998 0.39562 0.73684 0.0
C3600 C 0.42965 0.05517 0.43662 0.0
C3601 C 0.44053 0.05199 0.44534 0.0
C3602 C 0.44305 1.02961 0.43462 0.0
C3603 C 0.44716 0.03936 0.44434 0.0
C3604 C 0.43196 0.03279 0.4261 0.0
C3605 C 0.42537 0.04542 0.42709 0.0
U3606 U 0.41964 0.0894 0.45364 0.0
O3607 O 0.41893 0.10992 0.44462 0.0
O3608 O 0.40018 0.10059 0.45231 0.0
C3609 C 0.40566 0.11101 0.44593 0.0
C3610 C 0.42291 0.06866 0.4369 0.0
C3611 C 0.39817 0.11634 0.43397 0.0
C3612 C 0.39223 0.11584 0.40988 0.0
C3613 C 0.39893 0.11008 0.42114 0.0
C3614 C 0.38377 0.13403 0.42417 0.0
C3615 C 0.38464 0.12798 0.4112 0.0
C3616 C 0.39045 0.12827 0.43539 0.0
C3617 C 0.43178 0.0966 0.49078 0.0
C3618 C 0.42376 0.11418 0.50636 0.0
C3619 C 0.4432 0.10036 0.51251 0.0
C3620 C 0.4421 0.09336 0.50012 0.0
C3621 C 0.43399 0.11081 0.51589 0.0
C3622 C 0.42267 0.10716 0.49394 0.0
C3623 C 0.43054 0.08842 0.47817 0.0
O3624 O 0.4124 0.0699 0.44509 0.0
O3625 O 0.43098 0.07934 0.43712 0.0
O3626 O 0.43706 0.09296 0.4674 0.0
O3627 O 0.41837 0.08365 0.47528 0.0
H3628 H 0.44397 0.05933 0.45283 0.0
H3629 H 0.4555 0.03723 0.45123 0.0
H3630 H 0.42858 1.02567 0.41839 0.0
H3631 H 0.41703 0.04766 0.42023 0.0
H3632 H 0.39302 0.11076 0.40012 0.0
H3633 H 0.40481 0.10084 0.41982 0.0
H3634 H 0.37823 0.14345 0.42562 0.0
H3635 H 0.38977 0.1333 0.44519 0.0
H3636 H 0.41659 0.12229 0.50848 0.0
H3637 H 0.45109 0.09731 0.51958 0.0
H3638 H 0.44921 0.08522 0.49793 0.0
H3639 H 0.41464 0.10987 0.48687 0.0
C3640 C 0.75515 0.67961 0.18661 0.0
C3641 C 0.75835 0.69045 0.19537 0.0
C3642 C 0.78071 0.693 0.1846 0.0
C3643 C 0.77098 0.69707 0.19437 0.0
C3644 C 0.7775 0.68195 0.17604 0.0
C3645 C 0.76487 0.67537 0.17703 0.0
U3646 U 0.72092 0.66962 0.20366 0.0
O3647 O 0.70039 0.66894 0.19465 0.0
O3648 O 0.70971 0.65018 0.20233 0.0
C3649 C 0.69929 0.65566 0.19597 0.0
C3650 C 0.74165 0.67288 0.18689 0.0
C3651 C 0.69393 0.64818 0.18403 0.0
C3652 C 0.69477 0.64171 0.16008 0.0
C3653 C 0.7005 0.64845 0.17134 0.0
C3654 C 0.67596 0.63421 0.17411 0.0
C3655 C 0.68234 0.63457 0.16127 0.0
C3656 C 0.68169 0.64093 0.18532 0.0
C3657 C 0.71376 0.68177 0.2408 0.0
C3658 C 0.69613 0.6738 0.25635 0.0
C3659 C 0.71006 0.69315 0.26256 0.0
C3660 C 0.71706 0.69204 0.25017 0.0
C3661 C 0.69956 0.68398 0.26591 0.0
C3662 C 0.70315 0.67271 0.24393 0.0
C3663 C 0.72193 0.68052 0.22819 0.0
O3664 O 0.74041 0.66237 0.19508 0.0
O3665 O 0.73097 0.68095 0.18713 0.0
O3666 O 0.7174 0.68705 0.21742 0.0
O3667 O 0.72669 0.66835 0.22529 0.0
H3668 H 0.75104 0.69387 0.20289 0.0
H3669 H 0.77314 0.70538 0.20129 0.0
H3670 H 0.7846 0.6786 0.16831 0.0
H3671 H 0.76261 0.66705 0.17014 0.0
H3672 H 0.7001 0.6421 0.15043 0.0
H3673 H 0.70998 0.65395 0.17011 0.0
H3674 H 0.66632 0.62904 0.17545 0.0
H3675 H 0.67642 0.64063 0.19501 0.0
H3676 H 0.68798 0.66667 0.25844 0.0
H3677 H 0.71316 0.70099 0.26966 0.0
H3678 H 0.72525 0.69911 0.248 0.0
H3679 H 0.7004 0.66472 0.23683 0.0
C3680 C 0.63074 0.50514 0.4366 0.0
C3681 C 0.6199 0.50834 0.44536 0.0
C3682 C 0.61736 0.53071 0.4346 0.0
C3683 C 0.61328 0.52098 0.44436 0.0
C3684 C 0.6284 0.5275 0.42604 0.0
C3685 C 0.63499 0.51487 0.42703 0.0
U3686 U 0.64074 0.47092 0.45365 0.0
O3687 O 0.64142 0.45039 0.44465 0.0
O3688 O 0.66018 0.45971 0.45233 0.0
C3689 C 0.65469 0.44929 0.44597 0.0
C3690 C 0.63748 0.49165 0.43689 0.0
C3691 C 0.66217 0.44393 0.43402 0.0
C3692 C 0.66862 0.44476 0.41007 0.0
C3693 C 0.66189 0.45049 0.42133 0.0
C3694 C 0.67616 0.42597 0.42411 0.0
C3695 C 0.67578 0.43234 0.41127 0.0
C3696 C 0.66944 0.43171 0.43532 0.0
C3697 C 0.62859 0.46376 0.4908 0.0
C3698 C 0.63656 0.44612 0.50634 0.0
C3699 C 0.61722 0.46006 0.51256 0.0
C3700 C 0.61833 0.46706 0.50017 0.0
C3701 C 0.62638 0.44955 0.5159 0.0
C3702 C 0.63765 0.45315 0.49392 0.0
C3703 C 0.62983 0.47193 0.47818 0.0
O3704 O 0.64799 0.49041 0.44508 0.0
O3705 O 0.6294 0.48097 0.43713 0.0
O3706 O 0.62331 0.4674 0.46742 0.0
O3707 O 0.64201 0.47669 0.47529 0.0
H3708 H 0.61648 0.50103 0.45288 0.0
H3709 H 0.60497 0.52313 0.45128 0.0
H3710 H 0.63176 0.53461 0.41831 0.0
H3711 H 0.64331 0.51261 0.42015 0.0
H3712 H 0.66822 0.45008 0.40042 0.0
H3713 H 0.65637 0.45996 0.4201 0.0
H3714 H 0.68134 0.41634 0.42546 0.0
H3715 H 0.66975 0.42644 0.44501 0.0
H3716 H 0.64369 0.43798 0.50843 0.0
H3717 H 0.60938 0.46316 0.51966 0.0
H3718 H 0.61126 0.47525 0.498 0.0
H3719 H 0.64564 0.45039 0.48682 0.0
C3720 C 0.25516 0.88073 0.87381 0.0
C3721 C 0.25834 0.86986 0.86508 0.0
C3722 C 0.28072 0.86734 0.87582 0.0
C3723 C 0.27098 0.86324 0.86608 0.0
C3724 C 0.27752 0.87842 0.88435 0.0
C3725 C 0.26489 0.885 0.88336 0.0
U3726 U 0.22093 0.89073 0.85676 0.0
O3727 O 0.2004 0.89141 0.86576 0.0
O3728 O 0.20972 0.91017 0.85808 0.0
C3729 C 0.1993 0.90468 0.86444 0.0
C3730 C 0.24166 0.88747 0.87352 0.0
C3731 C 0.19395 0.91217 0.87638 0.0
C3732 C 0.1948 0.91866 0.90032 0.0
C3733 C 0.20053 0.91192 0.88907 0.0
C3734 C 0.17597 0.92613 0.8863 0.0
C3735 C 0.18236 0.92578 0.89913 0.0
C3736 C 0.1817 0.9194 0.87509 0.0
C3737 C 0.21377 0.87857 0.81961 0.0
C3738 C 0.19614 0.88654 0.80407 0.0
C3739 C 0.21007 0.8672 0.79786 0.0
C3740 C 0.21707 0.86831 0.81024 0.0
C3741 C 0.19956 0.87636 0.79451 0.0
C3742 C 0.20316 0.88764 0.81649 0.0
C3743 C 0.22194 0.87982 0.83223 0.0
O3744 O 0.24042 0.89798 0.86533 0.0
O3745 O 0.23098 0.87939 0.87329 0.0
O3746 O 0.21741 0.8733 0.843 0.0
O3747 O 0.2267 0.89199 0.83512 0.0
H3748 H 0.25102 0.86642 0.85758 0.0
H3749 H 0.27312 0.85491 0.85919 0.0
H3750 H 0.28464 0.8818 0.89207 0.0
H3751 H 0.26264 0.89334 0.89022 0.0
H3752 H 0.20013 0.91829 0.90996 0.0
H3753 H 0.21001 0.90643 0.89029 0.0
H3754 H 0.16631 0.93128 0.88496 0.0
H3755 H 0.17641 0.91969 0.86541 0.0
H3756 H 0.18799 0.89367 0.80197 0.0
H3757 H 0.21317 0.85935 0.79075 0.0
H3758 H 0.22526 0.86123 0.81241 0.0
H3759 H 0.20041 0.89562 0.82358 0.0
C3760 C 0.42965 1.00518 0.12381 0.0
C3761 C 0.4405 1.00837 0.11507 0.0
C3762 C 0.44303 0.03075 0.12582 0.0
C3763 C 0.44713 1.02101 0.11607 0.0
C3764 C 0.43197 1.02754 0.13435 0.0
C3765 C 0.42538 1.01491 0.13336 0.0
U3766 U 0.41965 0.97095 0.10676 0.0
O3767 O 0.41897 0.95042 0.11576 0.0
O3768 O 0.40021 0.95974 0.10809 0.0
C3769 C 0.4057 0.94932 0.11445 0.0
C3770 C 0.42291 0.99168 0.12352 0.0
C3771 C 0.39822 0.94396 0.12639 0.0
C3772 C 0.39177 0.94478 0.15035 0.0
C3773 C 0.3985 0.95052 0.13909 0.0
C3774 C 0.38424 0.926 0.1363 0.0
C3775 C 0.38462 0.93236 0.14915 0.0
C3776 C 0.39095 0.93173 0.12509 0.0
C3777 C 0.43179 0.96379 0.06961 0.0
C3778 C 0.42382 0.94616 0.05407 0.0
C3779 C 0.44316 0.96009 0.04785 0.0
C3780 C 0.44205 0.96709 0.06024 0.0
C3781 C 0.43399 0.94959 0.04451 0.0
C3782 C 0.42273 0.95318 0.06649 0.0
C3783 C 0.43055 0.97196 0.08223 0.0
O3784 O 0.4124 0.99044 0.11534 0.0
O3785 O 0.43099 0.981 0.12329 0.0
O3786 O 0.43708 0.96743 0.09299 0.0
O3787 O 0.41837 0.97672 0.08513 0.0
H3788 H 0.44394 1.00105 0.10756 0.0
H3789 H 0.45545 1.02315 0.10917 0.0
H3790 H 0.42859 0.03466 0.14207 0.0
H3791 H 0.41705 1.01266 0.14023 0.0
H3792 H 0.39217 0.9501 0.16 0.0
H3793 H 0.40402 0.95999 0.14032 0.0
H3794 H 0.37906 0.91636 0.13496 0.0
H3795 H 0.39065 0.92646 0.1154 0.0
H3796 H 0.41669 0.93801 0.05198 0.0
H3797 H 0.451 0.96319 0.04075 0.0
H3798 H 0.44912 0.97528 0.0624 0.0
H3799 H 0.41474 0.95042 0.07359 0.0
C3800 C 0.13073 0.0552 0.6238 0.0
C3801 C 0.11987 0.05201 0.61507 0.0
C3802 C 0.11735 1.02963 0.62581 0.0
C3803 C 0.11324 0.03937 0.61607 0.0
C3804 C 0.12842 0.03283 0.63434 0.0
C3805 C 0.135 0.04546 0.63335 0.0
U3806 U 0.14073 0.08942 0.60675 0.0
O3807 O 0.14141 0.10995 0.61576 0.0
O3808 O 0.16017 0.10063 0.60808 0.0
C3809 C 0.15468 0.11106 0.61444 0.0
C3810 C 0.13747 0.0687 0.62352 0.0
C3811 C 0.16217 0.11641 0.62638 0.0
C3812 C 0.16862 0.11558 0.65034 0.0
C3813 C 0.16189 0.10985 0.63908 0.0
C3814 C 0.17615 0.13438 0.6363 0.0
C3815 C 0.17577 0.12801 0.64914 0.0
C3816 C 0.16943 0.12864 0.62509 0.0
C3817 C 0.12859 0.09659 0.56961 0.0
C3818 C 0.13657 0.11422 0.55407 0.0
C3819 C 0.11722 0.1003 0.54785 0.0
C3820 C 0.11832 0.0933 0.56023 0.0
C3821 C 0.12639 0.1108 0.5445 0.0
C3822 C 0.13765 0.1072 0.56649 0.0
C3823 C 0.12983 0.08842 0.58222 0.0
O3824 O 0.14798 0.06994 0.61533 0.0
O3825 O 0.12939 0.07937 0.62328 0.0
O3826 O 0.1233 0.09295 0.59299 0.0
O3827 O 0.142 0.08366 0.58512 0.0
H3828 H 0.11643 0.05933 0.60757 0.0
H3829 H 0.10491 0.03723 0.60917 0.0
H3830 H 0.1318 1.02572 0.64206 0.0
H3831 H 0.14334 0.04772 0.64021 0.0
H3832 H 0.16823 0.11026 0.65999 0.0
H3833 H 0.15637 0.10038 0.64031 0.0
H3834 H 0.18132 0.14402 0.63495 0.0
H3835 H 0.16973 0.13391 0.6154 0.0
H3836 H 0.1437 0.12237 0.55198 0.0
H3837 H 0.10938 0.0972 0.54075 0.0
H3838 H 0.11125 0.08511 0.5624 0.0
H3839 H 0.14564 0.10995 0.57359 0.0
loop_
_geom_bond_atom_site_label_1
_geom_bond_atom_site_label_2
_geom_bond_distance
_geom_bond_site_symmetry_2
_ccdc_geom_bond_type
C0 C1 1.264 . S
C0 C5 1.479 . S
C0 C10 1.465 . S
C1 C0 1.264 . S
C1 C3 1.339 . S
C1 H28 0.931 . S
C2 C3 1.395 . S
C2 C4 1.320 . S
C3 C1 1.339 . S
C3 C2 1.395 . S
C3 H29 0.929 . S
C4 C2 1.320 . S
C4 C5 1.405 . S
C4 H30 0.930 . S
C5 C0 1.479 . S
C5 C4 1.405 . S
C5 H31 0.931 . S
U6 O7 2.454 . S
U6 O8 2.458 . S
U6 C9 2.984 . S
U6 C10 2.847 . S
U6 C23 2.882 . S
U6 O24 2.441 . S
U6 O25 2.420 . S
U6 O26 2.455 . S
U6 O27 2.449 . S
O7 U6 2.454 . S
O7 C9 1.353 . S
O8 U6 2.458 . S
O8 C9 1.286 . S
C9 U6 2.984 . S
C9 O7 1.353 . S
C9 O8 1.286 . S
C9 C11 1.363 . S
C10 C0 1.465 . S
C10 U6 2.847 . S
C10 O24 1.249 . S
C10 O25 1.202 . S
C11 C9 1.363 . S
C11 C13 1.408 . S
C11 C16 1.342 . S
C12 C13 1.310 . S
C12 C15 1.461 . S
C12 H32 0.932 . S
C13 C11 1.408 . S
C13 C12 1.310 . S
C13 H33 0.930 . S
C14 C15 1.474 . S
C14 C16 1.285 . S
C14 H34 0.929 . S
C15 C12 1.461 . S
C15 C14 1.474 . S
C16 C11 1.342 . S
C16 C14 1.285 . S
C16 H35 0.930 . S
C17 C20 1.424 . S
C17 C22 1.245 . S
C17 C23 1.428 . S
C18 C21 1.260 . S
C18 C22 1.477 . S
C18 H36 0.932 . S
C19 C20 1.384 . S
C19 C21 1.479 . S
C19 H37 0.929 . S
C20 C17 1.424 . S
C20 C19 1.384 . S
C20 H38 0.928 . S
C21 C18 1.260 . S
C21 C19 1.479 . S
C22 C17 1.245 . S
C22 C18 1.477 . S
C22 H39 0.932 . S
C23 U6 2.882 . S
C23 C17 1.428 . S
C23 O26 1.301 . S
C23 O27 1.282 . S
O24 U6 2.441 . S
O24 C10 1.249 . S
O25 U6 2.420 . S
O25 C10 1.202 . S
O26 U6 2.455 . S
O26 C23 1.301 . S
O27 U6 2.449 . S
O27 C23 1.282 . S
H28 C1 0.931 . S
H29 C3 0.929 . S
H30 C4 0.930 . S
H31 C5 0.931 . S
H32 C12 0.932 . S
H33 C13 0.930 . S
H34 C14 0.929 . S
H35 C16 0.930 . S
H36 C18 0.932 . S
H37 C19 0.929 . S
H38 C20 0.928 . S
H39 C22 0.932 . S
C40 C41 1.264 . S
C40 C45 1.479 . S
C40 C50 1.465 . S
C41 C40 1.264 . S
C41 C43 1.339 1_455 S
C41 H68 0.931 . S
C42 C43 1.395 . S
C42 C44 1.354 . S
C43 C41 1.339 1_655 S
C43 C42 1.395 . S
C43 H69 0.929 . S
C44 C42 1.354 . S
C44 C45 1.351 1_655 S
C44 H70 0.956 . S
C45 C40 1.479 . S
C45 C44 1.351 1_455 S
C45 H71 0.931 . S
U46 O47 2.454 . S
U46 O48 2.458 . S
U46 C49 2.984 . S
U46 C50 2.847 . S
U46 C63 2.882 . S
U46 O64 2.441 . S
U46 O65 2.420 . S
U46 O66 2.455 . S
U46 O67 2.449 . S
O47 U46 2.454 . S
O47 C49 1.353 . S
O48 U46 2.458 . S
O48 C49 1.286 . S
C49 U46 2.984 . S
C49 O47 1.353 . S
C49 O48 1.286 . S
C49 C51 1.363 . S
C50 C40 1.465 . S
C50 U46 2.847 . S
C50 O64 1.249 . S
C50 O65 1.202 . S
C51 C49 1.363 . S
C51 C53 1.408 . S
C51 C56 1.342 . S
C52 C53 1.310 . S
C52 C55 1.461 . S
C52 H72 0.932 . S
C53 C51 1.408 . S
C53 C52 1.310 . S
C53 H73 0.930 . S
C54 C55 1.474 . S
C54 C56 1.285 . S
C54 H74 0.929 . S
C55 C52 1.461 . S
C55 C54 1.474 . S
C56 C51 1.342 . S
C56 C54 1.285 . S
C56 H75 0.930 . S
C57 C60 1.424 . S
C57 C62 1.245 . S
C57 C63 1.428 . S
C58 C61 1.260 . S
C58 C62 1.477 . S
C58 H76 0.932 . S
C59 C60 1.384 . S
C59 C61 1.479 . S
C59 H77 0.929 . S
C60 C57 1.424 . S
C60 C59 1.384 . S
C60 H78 0.928 . S
C61 C58 1.260 . S
C61 C59 1.479 . S
C62 C57 1.245 . S
C62 C58 1.477 . S
C62 H79 0.932 . S
C63 U46 2.882 . S
C63 C57 1.428 . S
C63 O66 1.301 . S
C63 O67 1.282 . S
O64 U46 2.441 . S
O64 C50 1.249 . S
O65 U46 2.420 . S
O65 C50 1.202 . S
O66 U46 2.455 . S
O66 C63 1.301 . S
O67 U46 2.449 . S
O67 C63 1.282 . S
H68 C41 0.931 . S
H69 C43 0.929 . S
H70 C44 0.956 . S
H71 C45 0.931 . S
H72 C52 0.932 . S
H73 C53 0.930 . S
H74 C54 0.929 . S
H75 C56 0.930 . S
H76 C58 0.932 . S
H77 C59 0.929 . S
H78 C60 0.928 . S
H79 C62 0.932 . S
C80 C81 1.264 . S
C80 C85 1.479 . S
C80 C90 1.465 . S
C81 C80 1.264 . S
C81 C83 1.339 . S
C81 H108 0.931 . S
C82 C83 1.395 . S
C82 C84 1.320 . S
C83 C81 1.339 . S
C83 C82 1.395 . S
C83 H109 0.929 . S
C84 C82 1.320 . S
C84 C85 1.405 . S
C84 H110 0.930 . S
C85 C80 1.479 . S
C85 C84 1.405 . S
C85 H111 0.931 . S
U86 O87 2.454 . S
U86 O88 2.458 . S
U86 C89 2.984 . S
U86 C90 2.847 . S
U86 C103 2.882 . S
U86 O104 2.441 . S
U86 O105 2.420 . S
U86 O106 2.455 . S
U86 O107 2.449 . S
O87 U86 2.454 . S
O87 C89 1.353 . S
O88 U86 2.458 . S
O88 C89 1.286 . S
C89 U86 2.984 . S
C89 O87 1.353 . S
C89 O88 1.286 . S
C89 C91 1.363 . S
C90 C80 1.465 . S
C90 U86 2.847 . S
C90 O104 1.249 . S
C90 O105 1.202 . S
C91 C89 1.363 . S
C91 C93 1.408 . S
C91 C96 1.342 . S
C92 C93 1.310 . S
C92 C95 1.461 . S
C92 H112 0.932 . S
C93 C91 1.408 . S
C93 C92 1.310 . S
C93 H113 0.930 . S
C94 C95 1.474 . S
C94 C96 1.285 . S
C94 H114 0.929 . S
C95 C92 1.461 . S
C95 C94 1.474 . S
C96 C91 1.342 . S
C96 C94 1.285 . S
C96 H115 0.930 . S
C97 C100 1.424 . S
C97 C102 1.245 . S
C97 C103 1.428 . S
C98 C101 1.260 . S
C98 C102 1.477 . S
C98 H116 0.932 . S
C99 C100 1.384 . S
C99 C101 1.479 . S
C99 H117 0.929 . S
C100 C97 1.424 . S
C100 C99 1.384 . S
C100 H118 0.928 . S
C101 C98 1.260 . S
C101 C99 1.479 . S
C102 C97 1.245 . S
C102 C98 1.477 . S
C102 H119 0.932 . S
C103 U86 2.882 . S
C103 C97 1.428 . S
C103 O106 1.301 . S
C103 O107 1.282 . S
O104 U86 2.441 . S
O104 C90 1.249 . S
O105 U86 2.420 . S
O105 C90 1.202 . S
O106 U86 2.455 . S
O106 C103 1.301 . S
O107 U86 2.449 . S
O107 C103 1.282 . S
H108 C81 0.931 . S
H109 C83 0.929 . S
H110 C84 0.930 . S
H111 C85 0.931 . S
H112 C92 0.932 . S
H113 C93 0.930 . S
H114 C94 0.929 . S
H115 C96 0.930 . S
H116 C98 0.932 . S
H117 C99 0.929 . S
H118 C100 0.928 . S
H119 C102 0.932 . S
C120 C121 1.264 . S
C120 C125 1.479 . S
C120 C130 1.465 . S
C121 C120 1.264 . S
C121 C123 1.339 . S
C121 H148 0.931 . S
C122 C123 1.395 . S
C122 C124 1.320 . S
C123 C121 1.339 . S
C123 C122 1.395 . S
C123 H149 0.929 . S
C124 C122 1.320 . S
C124 C125 1.405 . S
C124 H150 0.930 . S
C125 C120 1.479 . S
C125 C124 1.405 . S
C125 H151 0.931 . S
U126 O127 2.454 . S
U126 O128 2.458 . S
U126 C129 2.984 . S
U126 C130 2.847 . S
U126 C143 2.882 . S
U126 O144 2.441 . S
U126 O145 2.420 . S
U126 O146 2.455 . S
U126 O147 2.449 . S
O127 U126 2.454 . S
O127 C129 1.353 . S
O128 U126 2.458 . S
O128 C129 1.286 . S
C129 U126 2.984 . S
C129 O127 1.353 . S
C129 O128 1.286 . S
C129 C131 1.363 . S
C130 C120 1.465 . S
C130 U126 2.847 . S
C130 O144 1.249 . S
C130 O145 1.202 . S
C131 C129 1.363 . S
C131 C133 1.408 . S
C131 C136 1.342 . S
C132 C133 1.310 . S
C132 C135 1.461 . S
C132 H152 0.932 . S
C133 C131 1.408 . S
C133 C132 1.310 . S
C133 H153 0.930 . S
C134 C135 1.474 . S
C134 C136 1.285 . S
C134 H154 0.929 . S
C135 C132 1.461 . S
C135 C134 1.474 . S
C136 C131 1.342 . S
C136 C134 1.285 . S
C136 H155 0.930 . S
C137 C140 1.424 . S
C137 C142 1.245 . S
C137 C143 1.428 . S
C138 C141 1.260 . S
C138 C142 1.477 . S
C138 H156 0.932 . S
C139 C140 1.384 . S
C139 C141 1.479 . S
C139 H157 0.929 . S
C140 C137 1.424 . S
C140 C139 1.384 . S
C140 H158 0.928 . S
C141 C138 1.260 . S
C141 C139 1.479 . S
C142 C137 1.245 . S
C142 C138 1.477 . S
C142 H159 0.932 . S
C143 U126 2.882 . S
C143 C137 1.428 . S
C143 O146 1.301 . S
C143 O147 1.282 . S
O144 U126 2.441 . S
O144 C130 1.249 . S
O145 U126 2.420 . S
O145 C130 1.202 . S
O146 U126 2.455 . S
O146 C143 1.301 . S
O147 U126 2.449 . S
O147 C143 1.282 . S
H148 C121 0.931 . S
H149 C123 0.929 . S
H150 C124 0.930 . S
H151 C125 0.931 . S
H152 C132 0.932 . S
H153 C133 0.930 . S
H154 C134 0.929 . S
H155 C136 0.930 . S
H156 C138 0.932 . S
H157 C139 0.929 . S
H158 C140 0.928 . S
H159 C142 0.932 . S
C160 C161 1.264 . S
C160 C165 1.479 . S
C160 C170 1.465 . S
C161 C160 1.264 . S
C161 C163 1.339 . S
C161 H188 0.931 . S
C162 C163 1.395 . S
C162 C164 1.320 . S
C163 C161 1.339 . S
C163 C162 1.395 . S
C163 H189 0.929 . S
C164 C162 1.320 . S
C164 C165 1.405 . S
C164 H190 0.930 . S
C165 C160 1.479 . S
C165 C164 1.405 . S
C165 H191 0.931 . S
U166 O167 2.454 . S
U166 O168 2.458 . S
U166 C169 2.984 . S
U166 C170 2.847 . S
U166 C183 2.882 . S
U166 O184 2.441 . S
U166 O185 2.420 . S
U166 O186 2.455 . S
U166 O187 2.449 . S
O167 U166 2.454 . S
O167 C169 1.353 . S
O168 U166 2.458 . S
O168 C169 1.286 . S
C169 U166 2.984 . S
C169 O167 1.353 . S
C169 O168 1.286 . S
C169 C171 1.363 . S
C170 C160 1.465 . S
C170 U166 2.847 . S
C170 O184 1.249 . S
C170 O185 1.202 . S
C171 C169 1.363 . S
C171 C173 1.408 . S
C171 C176 1.342 . S
C172 C173 1.310 . S
C172 C175 1.461 . S
C172 H192 0.932 . S
C173 C171 1.408 . S
C173 C172 1.310 . S
C173 H193 0.930 . S
C174 C175 1.474 . S
C174 C176 1.285 . S
C174 H194 0.929 . S
C175 C172 1.461 . S
C175 C174 1.474 . S
C176 C171 1.342 . S
C176 C174 1.285 . S
C176 H195 0.930 . S
C177 C180 1.424 . S
C177 C182 1.245 . S
C177 C183 1.428 . S
C178 C181 1.260 . S
C178 C182 1.477 . S
C178 H196 0.932 . S
C179 C180 1.384 . S
C179 C181 1.479 . S
C179 H197 0.929 . S
C180 C177 1.424 . S
C180 C179 1.384 . S
C180 H198 0.928 . S
C181 C178 1.260 . S
C181 C179 1.479 . S
C182 C177 1.245 . S
C182 C178 1.477 . S
C182 H199 0.932 . S
C183 U166 2.882 . S
C183 C177 1.428 . S
C183 O186 1.301 . S
C183 O187 1.282 . S
O184 U166 2.441 . S
O184 C170 1.249 . S
O185 U166 2.420 . S
O185 C170 1.202 . S
O186 U166 2.455 . S
O186 C183 1.301 . S
O187 U166 2.449 . S
O187 C183 1.282 . S
H188 C161 0.931 . S
H189 C163 0.929 . S
H190 C164 0.930 . S
H191 C165 0.931 . S
H192 C172 0.932 . S
H193 C173 0.930 . S
H194 C174 0.929 . S
H195 C176 0.930 . S
H196 C178 0.932 . S
H197 C179 0.929 . S
H198 C180 0.928 . S
H199 C182 0.932 . S
C200 C201 1.264 . S
C200 C205 1.479 . S
C200 C210 1.465 . S
C201 C200 1.264 . S
C201 C203 1.339 . S
C201 H228 0.931 . S
C202 C203 1.395 . S
C202 C204 1.320 . S
C203 C201 1.339 . S
C203 C202 1.395 . S
C203 H229 0.929 . S
C204 C202 1.320 . S
C204 C205 1.405 . S
C204 H230 0.930 . S
C205 C200 1.479 . S
C205 C204 1.405 . S
C205 H231 0.931 . S
U206 O207 2.454 . S
U206 O208 2.458 . S
U206 C209 2.984 . S
U206 C210 2.847 . S
U206 C223 2.882 . S
U206 O224 2.441 . S
U206 O225 2.420 . S
U206 O226 2.455 . S
U206 O227 2.449 . S
O207 U206 2.454 . S
O207 C209 1.353 . S
O208 U206 2.458 . S
O208 C209 1.286 . S
C209 U206 2.984 . S
C209 O207 1.353 . S
C209 O208 1.286 . S
C209 C211 1.363 . S
C210 C200 1.465 . S
C210 U206 2.847 . S
C210 O224 1.249 . S
C210 O225 1.202 . S
C211 C209 1.363 . S
C211 C213 1.408 . S
C211 C216 1.342 . S
C212 C213 1.310 . S
C212 C215 1.461 . S
C212 H232 0.932 . S
C213 C211 1.408 . S
C213 C212 1.310 . S
C213 H233 0.930 . S
C214 C215 1.474 . S
C214 C216 1.285 . S
C214 H234 0.929 . S
C215 C212 1.461 . S
C215 C214 1.474 . S
C216 C211 1.342 . S
C216 C214 1.285 . S
C216 H235 0.930 . S
C217 C220 1.424 . S
C217 C222 1.245 . S
C217 C223 1.428 . S
C218 C221 1.260 . S
C218 C222 1.477 . S
C218 H236 0.932 . S
C219 C220 1.384 . S
C219 C221 1.479 . S
C219 H237 0.929 . S
C220 C217 1.424 . S
C220 C219 1.384 . S
C220 H238 0.928 . S
C221 C218 1.260 . S
C221 C219 1.479 . S
C222 C217 1.245 . S
C222 C218 1.477 . S
C222 H239 0.932 . S
C223 U206 2.882 . S
C223 C217 1.428 . S
C223 O226 1.301 . S
C223 O227 1.282 . S
O224 U206 2.441 . S
O224 C210 1.249 . S
O225 U206 2.420 . S
O225 C210 1.202 . S
O226 U206 2.455 . S
O226 C223 1.301 . S
O227 U206 2.449 . S
O227 C223 1.282 . S
H228 C201 0.931 . S
H229 C203 0.929 . S
H230 C204 0.930 . S
H231 C205 0.931 . S
H232 C212 0.932 . S
H233 C213 0.930 . S
H234 C214 0.929 . S
H235 C216 0.930 . S
H236 C218 0.932 . S
H237 C219 0.929 . S
H238 C220 0.928 . S
H239 C222 0.932 . S
C240 C241 1.264 . S
C240 C245 1.479 . S
C240 C250 1.465 . S
C241 C240 1.264 . S
C241 C243 1.339 . S
C241 H268 0.931 . S
C242 C243 1.395 . S
C242 C244 1.320 . S
C243 C241 1.339 . S
C243 C242 1.395 . S
C243 H269 0.929 . S
C244 C242 1.320 . S
C244 C245 1.405 . S
C244 H270 0.930 . S
C245 C240 1.479 . S
C245 C244 1.405 . S
C245 H271 0.931 . S
U246 O247 2.454 . S
U246 O248 2.458 . S
U246 C249 2.984 . S
U246 C250 2.847 . S
U246 C263 2.882 . S
U246 O264 2.441 . S
U246 O265 2.420 . S
U246 O266 2.455 . S
U246 O267 2.449 . S
O247 U246 2.454 . S
O247 C249 1.353 . S
O248 U246 2.458 . S
O248 C249 1.286 . S
C249 U246 2.984 . S
C249 O247 1.353 . S
C249 O248 1.286 . S
C249 C251 1.363 . S
C250 C240 1.465 . S
C250 U246 2.847 . S
C250 O264 1.249 . S
C250 O265 1.202 . S
C251 C249 1.363 . S
C251 C253 1.408 . S
C251 C256 1.342 . S
C252 C253 1.310 . S
C252 C255 1.461 . S
C252 H272 0.932 . S
C253 C251 1.408 . S
C253 C252 1.310 . S
C253 H273 0.930 . S
C254 C255 1.474 . S
C254 C256 1.285 . S
C254 H274 0.929 . S
C255 C252 1.461 . S
C255 C254 1.474 . S
C256 C251 1.342 . S
C256 C254 1.285 . S
C256 H275 0.930 . S
C257 C260 1.424 . S
C257 C262 1.245 . S
C257 C263 1.428 . S
C258 C261 1.260 . S
C258 C262 1.477 . S
C258 H276 0.932 . S
C259 C260 1.384 . S
C259 C261 1.479 . S
C259 H277 0.929 . S
C260 C257 1.424 . S
C260 C259 1.384 . S
C260 H278 0.928 . S
C261 C258 1.260 . S
C261 C259 1.479 . S
C262 C257 1.245 . S
C262 C258 1.477 . S
C262 H279 0.932 . S
C263 U246 2.882 . S
C263 C257 1.428 . S
C263 O266 1.301 . S
C263 O267 1.282 . S
O264 U246 2.441 . S
O264 C250 1.249 . S
O265 U246 2.420 . S
O265 C250 1.202 . S
O266 U246 2.455 . S
O266 C263 1.301 . S
O267 U246 2.449 . S
O267 C263 1.282 . S
H268 C241 0.931 . S
H269 C243 0.929 . S
H270 C244 0.930 . S
H271 C245 0.931 . S
H272 C252 0.932 . S
H273 C253 0.930 . S
H274 C254 0.929 . S
H275 C256 0.930 . S
H276 C258 0.932 . S
H277 C259 0.929 . S
H278 C260 0.928 . S
H279 C262 0.932 . S
C280 C281 1.264 . S
C280 C285 1.479 . S
C280 C290 1.465 . S
C281 C280 1.264 . S
C281 C283 1.339 1_455 S
C281 H308 0.931 . S
C282 C283 1.395 . S
C282 C284 1.354 . S
C283 C281 1.339 1_655 S
C283 C282 1.395 . S
C283 H309 0.929 . S
C284 C282 1.354 . S
C284 C285 1.351 1_655 S
C284 H310 0.956 . S
C285 C280 1.479 . S
C285 C284 1.351 1_455 S
C285 H311 0.931 . S
U286 O287 2.454 . S
U286 O288 2.458 . S
U286 C289 2.984 . S
U286 C290 2.847 . S
U286 C303 2.882 . S
U286 O304 2.441 . S
U286 O305 2.420 . S
U286 O306 2.455 . S
U286 O307 2.449 . S
O287 U286 2.454 . S
O287 C289 1.353 . S
O288 U286 2.458 . S
O288 C289 1.286 . S
C289 U286 2.984 . S
C289 O287 1.353 . S
C289 O288 1.286 . S
C289 C291 1.363 . S
C290 C280 1.465 . S
C290 U286 2.847 . S
C290 O304 1.249 . S
C290 O305 1.202 . S
C291 C289 1.363 . S
C291 C293 1.408 . S
C291 C296 1.342 . S
C292 C293 1.310 . S
C292 C295 1.461 . S
C292 H312 0.932 . S
C293 C291 1.408 . S
C293 C292 1.310 . S
C293 H313 0.930 . S
C294 C295 1.474 . S
C294 C296 1.285 . S
C294 H314 0.929 . S
C295 C292 1.461 . S
C295 C294 1.474 . S
C296 C291 1.342 . S
C296 C294 1.285 . S
C296 H315 0.930 . S
C297 C300 1.424 . S
C297 C302 1.245 . S
C297 C303 1.428 . S
C298 C301 1.260 . S
C298 C302 1.477 . S
C298 H316 0.932 . S
C299 C300 1.384 . S
C299 C301 1.479 . S
C299 H317 0.929 . S
C300 C297 1.424 . S
C300 C299 1.384 . S
C300 H318 0.928 . S
C301 C298 1.260 . S
C301 C299 1.479 . S
C302 C297 1.245 . S
C302 C298 1.477 . S
C302 H319 0.932 . S
C303 U286 2.882 . S
C303 C297 1.428 . S
C303 O306 1.301 . S
C303 O307 1.282 . S
O304 U286 2.441 . S
O304 C290 1.249 . S
O305 U286 2.420 . S
O305 C290 1.202 . S
O306 U286 2.455 . S
O306 C303 1.301 . S
O307 U286 2.449 . S
O307 C303 1.282 . S
H308 C281 0.931 . S
H309 C283 0.929 . S
H310 C284 0.956 . S
H311 C285 0.931 . S
H312 C292 0.932 . S
H313 C293 0.930 . S
H314 C294 0.929 . S
H315 C296 0.930 . S
H316 C298 0.932 . S
H317 C299 0.929 . S
H318 C300 0.928 . S
H319 C302 0.932 . S
C320 C321 1.264 . S
C320 C325 1.479 . S
C320 C330 1.465 . S
C321 C320 1.264 . S
C321 C323 1.339 . S
C321 H348 0.931 . S
C322 C323 1.395 . S
C322 C324 1.320 . S
C323 C321 1.339 . S
C323 C322 1.395 . S
C323 H349 0.929 . S
C324 C322 1.320 . S
C324 C325 1.405 . S
C324 H350 0.930 . S
C325 C320 1.479 . S
C325 C324 1.405 . S
C325 H351 0.931 . S
U326 O327 2.454 . S
U326 O328 2.458 . S
U326 C329 2.984 . S
U326 C330 2.847 . S
U326 C343 2.882 . S
U326 O344 2.441 . S
U326 O345 2.420 . S
U326 O346 2.455 . S
U326 O347 2.449 . S
O327 U326 2.454 . S
O327 C329 1.353 . S
O328 U326 2.458 . S
O328 C329 1.286 . S
C329 U326 2.984 . S
C329 O327 1.353 . S
C329 O328 1.286 . S
C329 C331 1.363 . S
C330 C320 1.465 . S
C330 U326 2.847 . S
C330 O344 1.249 . S
C330 O345 1.202 . S
C331 C329 1.363 . S
C331 C333 1.408 . S
C331 C336 1.342 . S
C332 C333 1.310 . S
C332 C335 1.461 . S
C332 H352 0.932 . S
C333 C331 1.408 . S
C333 C332 1.310 . S
C333 H353 0.930 . S
C334 C335 1.474 . S
C334 C336 1.285 . S
C334 H354 0.929 . S
C335 C332 1.461 . S
C335 C334 1.474 . S
C336 C331 1.342 . S
C336 C334 1.285 . S
C336 H355 0.930 . S
C337 C340 1.424 . S
C337 C342 1.245 . S
C337 C343 1.428 . S
C338 C341 1.260 . S
C338 C342 1.477 . S
C338 H356 0.932 . S
C339 C340 1.384 . S
C339 C341 1.479 . S
C339 H357 0.929 . S
C340 C337 1.424 . S
C340 C339 1.384 . S
C340 H358 0.928 . S
C341 C338 1.260 . S
C341 C339 1.479 . S
C342 C337 1.245 . S
C342 C338 1.477 . S
C342 H359 0.932 . S
C343 U326 2.882 . S
C343 C337 1.428 . S
C343 O346 1.301 . S
C343 O347 1.282 . S
O344 U326 2.441 . S
O344 C330 1.249 . S
O345 U326 2.420 . S
O345 C330 1.202 . S
O346 U326 2.455 . S
O346 C343 1.301 . S
O347 U326 2.449 . S
O347 C343 1.282 . S
H348 C321 0.931 . S
H349 C323 0.929 . S
H350 C324 0.930 . S
H351 C325 0.931 . S
H352 C332 0.932 . S
H353 C333 0.930 . S
H354 C334 0.929 . S
H355 C336 0.930 . S
H356 C338 0.932 . S
H357 C339 0.929 . S
H358 C340 0.928 . S
H359 C342 0.932 . S
C360 C361 1.264 . S
C360 C365 1.479 . S
C360 C370 1.465 . S
C361 C360 1.264 . S
C361 C363 1.339 . S
C361 H388 0.931 . S
C362 C363 1.395 . S
C362 C364 1.320 . S
C363 C361 1.339 . S
C363 C362 1.395 . S
C363 H389 0.929 . S
C364 C362 1.320 . S
C364 C365 1.405 . S
C364 H390 0.930 . S
C365 C360 1.479 . S
C365 C364 1.405 . S
C365 H391 0.931 . S
U366 O367 2.454 . S
U366 O368 2.458 . S
U366 C369 2.984 . S
U366 C370 2.847 . S
U366 C383 2.882 . S
U366 O384 2.441 . S
U366 O385 2.420 . S
U366 O386 2.455 . S
U366 O387 2.449 . S
O367 U366 2.454 . S
O367 C369 1.353 . S
O368 U366 2.458 . S
O368 C369 1.286 . S
C369 U366 2.984 . S
C369 O367 1.353 . S
C369 O368 1.286 . S
C369 C371 1.363 . S
C370 C360 1.465 . S
C370 U366 2.847 . S
C370 O384 1.249 . S
C370 O385 1.202 . S
C371 C369 1.363 . S
C371 C373 1.408 . S
C371 C376 1.342 . S
C372 C373 1.310 . S
C372 C375 1.461 . S
C372 H392 0.932 . S
C373 C371 1.408 . S
C373 C372 1.310 . S
C373 H393 0.930 . S
C374 C375 1.474 . S
C374 C376 1.285 . S
C374 H394 0.929 . S
C375 C372 1.461 . S
C375 C374 1.474 . S
C376 C371 1.342 . S
C376 C374 1.285 . S
C376 H395 0.930 . S
C377 C380 1.424 . S
C377 C382 1.245 . S
C377 C383 1.428 . S
C378 C381 1.260 . S
C378 C382 1.477 . S
C378 H396 0.932 . S
C379 C380 1.384 . S
C379 C381 1.479 . S
C379 H397 0.929 . S
C380 C377 1.424 . S
C380 C379 1.384 . S
C380 H398 0.928 . S
C381 C378 1.260 . S
C381 C379 1.479 . S
C382 C377 1.245 . S
C382 C378 1.477 . S
C382 H399 0.932 . S
C383 U366 2.882 . S
C383 C377 1.428 . S
C383 O386 1.301 . S
C383 O387 1.282 . S
O384 U366 2.441 . S
O384 C370 1.249 . S
O385 U366 2.420 . S
O385 C370 1.202 . S
O386 U366 2.455 . S
O386 C383 1.301 . S
O387 U366 2.449 . S
O387 C383 1.282 . S
H388 C361 0.931 . S
H389 C363 0.929 . S
H390 C364 0.930 . S
H391 C365 0.931 . S
H392 C372 0.932 . S
H393 C373 0.930 . S
H394 C374 0.929 . S
H395 C376 0.930 . S
H396 C378 0.932 . S
H397 C379 0.929 . S
H398 C380 0.928 . S
H399 C382 0.932 . S
C400 C401 1.264 . S
C400 C405 1.479 . S
C400 C410 1.465 . S
C401 C400 1.264 . S
C401 C403 1.339 . S
C401 H428 0.931 . S
C402 C403 1.395 . S
C402 C404 1.320 . S
C403 C401 1.339 . S
C403 C402 1.395 . S
C403 H429 0.929 . S
C404 C402 1.320 . S
C404 C405 1.405 . S
C404 H430 0.930 . S
C405 C400 1.479 . S
C405 C404 1.405 . S
C405 H431 0.931 . S
U406 O407 2.454 . S
U406 O408 2.458 . S
U406 C409 2.984 . S
U406 C410 2.847 . S
U406 C423 2.882 . S
U406 O424 2.441 . S
U406 O425 2.420 . S
U406 O426 2.455 . S
U406 O427 2.449 . S
O407 U406 2.454 . S
O407 C409 1.353 . S
O408 U406 2.458 . S
O408 C409 1.286 . S
C409 U406 2.984 . S
C409 O407 1.353 . S
C409 O408 1.286 . S
C409 C411 1.363 . S
C410 C400 1.465 . S
C410 U406 2.847 . S
C410 O424 1.249 . S
C410 O425 1.202 . S
C411 C409 1.363 . S
C411 C413 1.408 . S
C411 C416 1.342 . S
C412 C413 1.310 . S
C412 C415 1.461 . S
C412 H432 0.932 . S
C413 C411 1.408 . S
C413 C412 1.310 . S
C413 H433 0.930 . S
C414 C415 1.474 . S
C414 C416 1.285 . S
C414 H434 0.929 . S
C415 C412 1.461 . S
C415 C414 1.474 . S
C416 C411 1.342 . S
C416 C414 1.285 . S
C416 H435 0.930 . S
C417 C420 1.424 . S
C417 C422 1.245 . S
C417 C423 1.428 . S
C418 C421 1.260 . S
C418 C422 1.477 . S
C418 H436 0.932 . S
C419 C420 1.384 . S
C419 C421 1.479 . S
C419 H437 0.929 . S
C420 C417 1.424 . S
C420 C419 1.384 . S
C420 H438 0.928 . S
C421 C418 1.260 . S
C421 C419 1.479 . S
C422 C417 1.245 . S
C422 C418 1.477 . S
C422 H439 0.932 . S
C423 U406 2.882 . S
C423 C417 1.428 . S
C423 O426 1.301 . S
C423 O427 1.282 . S
O424 U406 2.441 . S
O424 C410 1.249 . S
O425 U406 2.420 . S
O425 C410 1.202 . S
O426 U406 2.455 . S
O426 C423 1.301 . S
O427 U406 2.449 . S
O427 C423 1.282 . S
H428 C401 0.931 . S
H429 C403 0.929 . S
H430 C404 0.930 . S
H431 C405 0.931 . S
H432 C412 0.932 . S
H433 C413 0.930 . S
H434 C414 0.929 . S
H435 C416 0.930 . S
H436 C418 0.932 . S
H437 C419 0.929 . S
H438 C420 0.928 . S
H439 C422 0.932 . S
C440 C441 1.264 . S
C440 C445 1.479 . S
C440 C450 1.465 . S
C441 C440 1.264 . S
C441 C443 1.339 1_556 S
C441 H468 0.931 . S
C442 C443 1.395 . S
C442 C444 1.354 . S
C443 C441 1.339 1_554 S
C443 C442 1.395 . S
C443 H469 0.929 . S
C444 C442 1.354 . S
C444 C445 1.351 1_554 S
C444 H470 0.956 . S
C445 C440 1.479 . S
C445 C444 1.351 1_556 S
C445 H471 0.931 . S
U446 O447 2.454 . S
U446 O448 2.458 . S
U446 C449 2.984 . S
U446 C450 2.847 . S
U446 C463 2.882 . S
U446 O464 2.441 . S
U446 O465 2.420 . S
U446 O466 2.455 . S
U446 O467 2.449 . S
O447 U446 2.454 . S
O447 C449 1.353 . S
O448 U446 2.458 . S
O448 C449 1.286 . S
C449 U446 2.984 . S
C449 O447 1.353 . S
C449 O448 1.286 . S
C449 C451 1.363 . S
C450 C440 1.465 . S
C450 U446 2.847 . S
C450 O464 1.249 . S
C450 O465 1.202 . S
C451 C449 1.363 . S
C451 C453 1.408 . S
C451 C456 1.342 . S
C452 C453 1.310 . S
C452 C455 1.461 . S
C452 H472 0.932 . S
C453 C451 1.408 . S
C453 C452 1.310 . S
C453 H473 0.930 . S
C454 C455 1.474 . S
C454 C456 1.285 . S
C454 H474 0.929 . S
C455 C452 1.461 . S
C455 C454 1.474 . S
C456 C451 1.342 . S
C456 C454 1.285 . S
C456 H475 0.930 . S
C457 C460 1.424 . S
C457 C462 1.245 . S
C457 C463 1.428 . S
C458 C461 1.260 . S
C458 C462 1.477 . S
C458 H476 0.932 . S
C459 C460 1.384 . S
C459 C461 1.479 . S
C459 H477 0.929 . S
C460 C457 1.424 . S
C460 C459 1.384 . S
C460 H478 0.928 . S
C461 C458 1.260 . S
C461 C459 1.479 . S
C462 C457 1.245 . S
C462 C458 1.477 . S
C462 H479 0.932 . S
C463 U446 2.882 . S
C463 C457 1.428 . S
C463 O466 1.301 . S
C463 O467 1.282 . S
O464 U446 2.441 . S
O464 C450 1.249 . S
O465 U446 2.420 . S
O465 C450 1.202 . S
O466 U446 2.455 . S
O466 C463 1.301 . S
O467 U446 2.449 . S
O467 C463 1.282 . S
H468 C441 0.931 . S
H469 C443 0.929 . S
H470 C444 0.956 . S
H471 C445 0.931 . S
H472 C452 0.932 . S
H473 C453 0.930 . S
H474 C454 0.929 . S
H475 C456 0.930 . S
H476 C458 0.932 . S
H477 C459 0.929 . S
H478 C460 0.928 . S
H479 C462 0.932 . S
C480 C481 1.264 . S
C480 C485 1.479 . S
C480 C490 1.465 . S
C481 C480 1.264 . S
C481 C483 1.339 . S
C481 H508 0.931 . S
C482 C483 1.395 . S
C482 C484 1.320 . S
C483 C481 1.339 . S
C483 C482 1.395 . S
C483 H509 0.929 . S
C484 C482 1.320 . S
C484 C485 1.405 . S
C484 H510 0.930 . S
C485 C480 1.479 . S
C485 C484 1.405 . S
C485 H511 0.931 . S
U486 O487 2.454 . S
U486 O488 2.458 . S
U486 C489 2.984 . S
U486 C490 2.847 . S
U486 C503 2.882 . S
U486 O504 2.441 . S
U486 O505 2.420 . S
U486 O506 2.455 . S
U486 O507 2.449 . S
O487 U486 2.454 . S
O487 C489 1.353 . S
O488 U486 2.458 . S
O488 C489 1.286 . S
C489 U486 2.984 . S
C489 O487 1.353 . S
C489 O488 1.286 . S
C489 C491 1.363 . S
C490 C480 1.465 . S
C490 U486 2.847 . S
C490 O504 1.249 . S
C490 O505 1.202 . S
C491 C489 1.363 . S
C491 C493 1.408 . S
C491 C496 1.342 . S
C492 C493 1.310 . S
C492 C495 1.461 . S
C492 H512 0.932 . S
C493 C491 1.408 . S
C493 C492 1.310 . S
C493 H513 0.930 . S
C494 C495 1.474 . S
C494 C496 1.285 . S
C494 H514 0.929 . S
C495 C492 1.461 . S
C495 C494 1.474 . S
C496 C491 1.342 . S
C496 C494 1.285 . S
C496 H515 0.930 . S
C497 C500 1.424 . S
C497 C502 1.245 . S
C497 C503 1.428 . S
C498 C501 1.260 . S
C498 C502 1.477 . S
C498 H516 0.932 . S
C499 C500 1.384 . S
C499 C501 1.479 . S
C499 H517 0.929 . S
C500 C497 1.424 . S
C500 C499 1.384 . S
C500 H518 0.928 . S
C501 C498 1.260 . S
C501 C499 1.479 . S
C502 C497 1.245 . S
C502 C498 1.477 . S
C502 H519 0.932 . S
C503 U486 2.882 . S
C503 C497 1.428 . S
C503 O506 1.301 . S
C503 O507 1.282 . S
O504 U486 2.441 . S
O504 C490 1.249 . S
O505 U486 2.420 . S
O505 C490 1.202 . S
O506 U486 2.455 . S
O506 C503 1.301 . S
O507 U486 2.449 . S
O507 C503 1.282 . S
H508 C481 0.931 . S
H509 C483 0.929 . S
H510 C484 0.930 . S
H511 C485 0.931 . S
H512 C492 0.932 . S
H513 C493 0.930 . S
H514 C494 0.929 . S
H515 C496 0.930 . S
H516 C498 0.932 . S
H517 C499 0.929 . S
H518 C500 0.928 . S
H519 C502 0.932 . S
C520 C521 1.264 . S
C520 C525 1.479 . S
C520 C530 1.465 . S
C521 C520 1.264 . S
C521 C523 1.339 . S
C521 H548 0.931 . S
C522 C523 1.395 . S
C522 C524 1.320 . S
C523 C521 1.339 . S
C523 C522 1.395 . S
C523 H549 0.929 . S
C524 C522 1.320 . S
C524 C525 1.405 . S
C524 H550 0.930 . S
C525 C520 1.479 . S
C525 C524 1.405 . S
C525 H551 0.931 . S
U526 O527 2.454 . S
U526 O528 2.458 . S
U526 C529 2.984 . S
U526 C530 2.847 . S
U526 C543 2.882 . S
U526 O544 2.441 . S
U526 O545 2.420 . S
U526 O546 2.455 . S
U526 O547 2.449 . S
O527 U526 2.454 . S
O527 C529 1.353 . S
O528 U526 2.458 . S
O528 C529 1.286 . S
C529 U526 2.984 . S
C529 O527 1.353 . S
C529 O528 1.286 . S
C529 C531 1.363 . S
C530 C520 1.465 . S
C530 U526 2.847 . S
C530 O544 1.249 . S
C530 O545 1.202 . S
C531 C529 1.363 . S
C531 C533 1.408 . S
C531 C536 1.342 . S
C532 C533 1.310 . S
C532 C535 1.461 . S
C532 H552 0.932 . S
C533 C531 1.408 . S
C533 C532 1.310 . S
C533 H553 0.930 . S
C534 C535 1.474 . S
C534 C536 1.285 . S
C534 H554 0.929 . S
C535 C532 1.461 . S
C535 C534 1.474 . S
C536 C531 1.342 . S
C536 C534 1.285 . S
C536 H555 0.930 . S
C537 C540 1.424 . S
C537 C542 1.245 . S
C537 C543 1.428 . S
C538 C541 1.260 . S
C538 C542 1.477 . S
C538 H556 0.932 . S
C539 C540 1.384 . S
C539 C541 1.479 . S
C539 H557 0.929 . S
C540 C537 1.424 . S
C540 C539 1.384 . S
C540 H558 0.928 . S
C541 C538 1.260 . S
C541 C539 1.479 . S
C542 C537 1.245 . S
C542 C538 1.477 . S
C542 H559 0.932 . S
C543 U526 2.882 . S
C543 C537 1.428 . S
C543 O546 1.301 . S
C543 O547 1.282 . S
O544 U526 2.441 . S
O544 C530 1.249 . S
O545 U526 2.420 . S
O545 C530 1.202 . S
O546 U526 2.455 . S
O546 C543 1.301 . S
O547 U526 2.449 . S
O547 C543 1.282 . S
H548 C521 0.931 . S
H549 C523 0.929 . S
H550 C524 0.930 . S
H551 C525 0.931 . S
H552 C532 0.932 . S
H553 C533 0.930 . S
H554 C534 0.929 . S
H555 C536 0.930 . S
H556 C538 0.932 . S
H557 C539 0.929 . S
H558 C540 0.928 . S
H559 C542 0.932 . S
C560 C561 1.264 . S
C560 C565 1.479 . S
C560 C570 1.465 . S
C561 C560 1.264 . S
C561 C563 1.339 . S
C561 H588 0.931 . S
C562 C563 1.395 . S
C562 C564 1.320 . S
C563 C561 1.339 . S
C563 C562 1.395 . S
C563 H589 0.929 . S
C564 C562 1.320 . S
C564 C565 1.405 . S
C564 H590 0.930 . S
C565 C560 1.479 . S
C565 C564 1.405 . S
C565 H591 0.931 . S
U566 O567 2.454 . S
U566 O568 2.458 . S
U566 C569 2.984 . S
U566 C570 2.847 . S
U566 C583 2.882 . S
U566 O584 2.441 . S
U566 O585 2.420 . S
U566 O586 2.455 . S
U566 O587 2.449 . S
O567 U566 2.454 . S
O567 C569 1.353 . S
O568 U566 2.458 . S
O568 C569 1.286 . S
C569 U566 2.984 . S
C569 O567 1.353 . S
C569 O568 1.286 . S
C569 C571 1.363 . S
C570 C560 1.465 . S
C570 U566 2.847 . S
C570 O584 1.249 . S
C570 O585 1.202 . S
C571 C569 1.363 . S
C571 C573 1.408 . S
C571 C576 1.342 . S
C572 C573 1.310 . S
C572 C575 1.461 . S
C572 H592 0.932 . S
C573 C571 1.408 . S
C573 C572 1.310 . S
C573 H593 0.930 . S
C574 C575 1.474 . S
C574 C576 1.285 . S
C574 H594 0.929 . S
C575 C572 1.461 . S
C575 C574 1.474 . S
C576 C571 1.342 . S
C576 C574 1.285 . S
C576 H595 0.930 . S
C577 C580 1.424 . S
C577 C582 1.245 . S
C577 C583 1.428 . S
C578 C581 1.260 . S
C578 C582 1.477 . S
C578 H596 0.932 . S
C579 C580 1.384 . S
C579 C581 1.479 . S
C579 H597 0.929 . S
C580 C577 1.424 . S
C580 C579 1.384 . S
C580 H598 0.928 . S
C581 C578 1.260 . S
C581 C579 1.479 . S
C582 C577 1.245 . S
C582 C578 1.477 . S
C582 H599 0.932 . S
C583 U566 2.882 . S
C583 C577 1.428 . S
C583 O586 1.301 . S
C583 O587 1.282 . S
O584 U566 2.441 . S
O584 C570 1.249 . S
O585 U566 2.420 . S
O585 C570 1.202 . S
O586 U566 2.455 . S
O586 C583 1.301 . S
O587 U566 2.449 . S
O587 C583 1.282 . S
H588 C561 0.931 . S
H589 C563 0.929 . S
H590 C564 0.930 . S
H591 C565 0.931 . S
H592 C572 0.932 . S
H593 C573 0.930 . S
H594 C574 0.929 . S
H595 C576 0.930 . S
H596 C578 0.932 . S
H597 C579 0.929 . S
H598 C580 0.928 . S
H599 C582 0.932 . S
C600 C601 1.264 . S
C600 C605 1.479 . S
C600 C610 1.465 . S
C601 C600 1.264 . S
C601 C603 1.339 1_554 S
C601 H628 0.931 . S
C602 C603 1.395 . S
C602 C604 1.354 . S
C603 C601 1.339 1_556 S
C603 C602 1.395 . S
C603 H629 0.929 . S
C604 C602 1.354 . S
C604 C605 1.351 1_556 S
C604 H630 0.956 . S
C605 C600 1.479 . S
C605 C604 1.351 1_554 S
C605 H631 0.931 . S
U606 O607 2.454 . S
U606 O608 2.458 . S
U606 C609 2.984 . S
U606 C610 2.847 . S
U606 C623 2.882 . S
U606 O624 2.441 . S
U606 O625 2.420 . S
U606 O626 2.455 . S
U606 O627 2.449 . S
O607 U606 2.454 . S
O607 C609 1.353 . S
O608 U606 2.458 . S
O608 C609 1.286 . S
C609 U606 2.984 . S
C609 O607 1.353 . S
C609 O608 1.286 . S
C609 C611 1.363 . S
C610 C600 1.465 . S
C610 U606 2.847 . S
C610 O624 1.249 . S
C610 O625 1.202 . S
C611 C609 1.363 . S
C611 C613 1.408 . S
C611 C616 1.342 . S
C612 C613 1.310 . S
C612 C615 1.461 . S
C612 H632 0.932 . S
C613 C611 1.408 . S
C613 C612 1.310 . S
C613 H633 0.930 . S
C614 C615 1.474 . S
C614 C616 1.285 . S
C614 H634 0.929 . S
C615 C612 1.461 . S
C615 C614 1.474 . S
C616 C611 1.342 . S
C616 C614 1.285 . S
C616 H635 0.930 . S
C617 C620 1.424 . S
C617 C622 1.245 . S
C617 C623 1.428 . S
C618 C621 1.260 . S
C618 C622 1.477 . S
C618 H636 0.932 . S
C619 C620 1.384 . S
C619 C621 1.479 . S
C619 H637 0.929 . S
C620 C617 1.424 . S
C620 C619 1.384 . S
C620 H638 0.928 . S
C621 C618 1.260 . S
C621 C619 1.479 . S
C622 C617 1.245 . S
C622 C618 1.477 . S
C622 H639 0.932 . S
C623 U606 2.882 . S
C623 C617 1.428 . S
C623 O626 1.301 . S
C623 O627 1.282 . S
O624 U606 2.441 . S
O624 C610 1.249 . S
O625 U606 2.420 . S
O625 C610 1.202 . S
O626 U606 2.455 . S
O626 C623 1.301 . S
O627 U606 2.449 . S
O627 C623 1.282 . S
H628 C601 0.931 . S
H629 C603 0.929 . S
H630 C604 0.956 . S
H631 C605 0.931 . S
H632 C612 0.932 . S
H633 C613 0.930 . S
H634 C614 0.929 . S
H635 C616 0.930 . S
H636 C618 0.932 . S
H637 C619 0.929 . S
H638 C620 0.928 . S
H639 C622 0.932 . S
C640 C641 1.264 . S
C640 C645 1.479 . S
C640 C650 1.465 . S
C641 C640 1.264 . S
C641 C643 1.339 . S
C641 H668 0.931 . S
C642 C643 1.395 . S
C642 C644 1.320 . S
C643 C641 1.339 . S
C643 C642 1.395 . S
C643 H669 0.929 . S
C644 C642 1.320 . S
C644 C645 1.405 . S
C644 H670 0.930 . S
C645 C640 1.479 . S
C645 C644 1.405 . S
C645 H671 0.931 . S
U646 O647 2.454 . S
U646 O648 2.458 . S
U646 C649 2.984 . S
U646 C650 2.847 . S
U646 C663 2.882 . S
U646 O664 2.441 . S
U646 O665 2.420 . S
U646 O666 2.455 . S
U646 O667 2.449 . S
O647 U646 2.454 . S
O647 C649 1.353 . S
O648 U646 2.458 . S
O648 C649 1.286 . S
C649 U646 2.984 . S
C649 O647 1.353 . S
C649 O648 1.286 . S
C649 C651 1.363 . S
C650 C640 1.465 . S
C650 U646 2.847 . S
C650 O664 1.249 . S
C650 O665 1.202 . S
C651 C649 1.363 . S
C651 C653 1.408 . S
C651 C656 1.342 . S
C652 C653 1.310 . S
C652 C655 1.461 . S
C652 H672 0.932 . S
C653 C651 1.408 . S
C653 C652 1.310 . S
C653 H673 0.930 . S
C654 C655 1.474 . S
C654 C656 1.285 . S
C654 H674 0.929 . S
C655 C652 1.461 . S
C655 C654 1.474 . S
C656 C651 1.342 . S
C656 C654 1.285 . S
C656 H675 0.930 . S
C657 C660 1.424 . S
C657 C662 1.245 . S
C657 C663 1.428 . S
C658 C661 1.260 . S
C658 C662 1.477 . S
C658 H676 0.932 . S
C659 C660 1.384 . S
C659 C661 1.479 . S
C659 H677 0.929 . S
C660 C657 1.424 . S
C660 C659 1.384 . S
C660 H678 0.928 . S
C661 C658 1.260 . S
C661 C659 1.479 . S
C662 C657 1.245 . S
C662 C658 1.477 . S
C662 H679 0.932 . S
C663 U646 2.882 . S
C663 C657 1.428 . S
C663 O666 1.301 . S
C663 O667 1.282 . S
O664 U646 2.441 . S
O664 C650 1.249 . S
O665 U646 2.420 . S
O665 C650 1.202 . S
O666 U646 2.455 . S
O666 C663 1.301 . S
O667 U646 2.449 . S
O667 C663 1.282 . S
H668 C641 0.931 . S
H669 C643 0.929 . S
H670 C644 0.930 . S
H671 C645 0.931 . S
H672 C652 0.932 . S
H673 C653 0.930 . S
H674 C654 0.929 . S
H675 C656 0.930 . S
H676 C658 0.932 . S
H677 C659 0.929 . S
H678 C660 0.928 . S
H679 C662 0.932 . S
C680 C681 1.264 . S
C680 C685 1.479 . S
C680 C690 1.465 . S
C681 C680 1.264 . S
C681 C683 1.339 . S
C681 H708 0.931 . S
C682 C683 1.395 . S
C682 C684 1.320 . S
C683 C681 1.339 . S
C683 C682 1.395 . S
C683 H709 0.929 . S
C684 C682 1.320 . S
C684 C685 1.405 . S
C684 H710 0.930 . S
C685 C680 1.479 . S
C685 C684 1.405 . S
C685 H711 0.931 . S
U686 O687 2.454 . S
U686 O688 2.458 . S
U686 C689 2.984 . S
U686 C690 2.847 . S
U686 C703 2.882 . S
U686 O704 2.441 . S
U686 O705 2.420 . S
U686 O706 2.455 . S
U686 O707 2.449 . S
O687 U686 2.454 . S
O687 C689 1.353 . S
O688 U686 2.458 . S
O688 C689 1.286 . S
C689 U686 2.984 . S
C689 O687 1.353 . S
C689 O688 1.286 . S
C689 C691 1.363 . S
C690 C680 1.465 . S
C690 U686 2.847 . S
C690 O704 1.249 . S
C690 O705 1.202 . S
C691 C689 1.363 . S
C691 C693 1.408 . S
C691 C696 1.342 . S
C692 C693 1.310 . S
C692 C695 1.461 . S
C692 H712 0.932 . S
C693 C691 1.408 . S
C693 C692 1.310 . S
C693 H713 0.930 . S
C694 C695 1.474 . S
C694 C696 1.285 . S
C694 H714 0.929 . S
C695 C692 1.461 . S
C695 C694 1.474 . S
C696 C691 1.342 . S
C696 C694 1.285 . S
C696 H715 0.930 . S
C697 C700 1.424 . S
C697 C702 1.245 . S
C697 C703 1.428 . S
C698 C701 1.260 . S
C698 C702 1.477 . S
C698 H716 0.932 . S
C699 C700 1.384 . S
C699 C701 1.479 . S
C699 H717 0.929 . S
C700 C697 1.424 . S
C700 C699 1.384 . S
C700 H718 0.928 . S
C701 C698 1.260 . S
C701 C699 1.479 . S
C702 C697 1.245 . S
C702 C698 1.477 . S
C702 H719 0.932 . S
C703 U686 2.882 . S
C703 C697 1.428 . S
C703 O706 1.301 . S
C703 O707 1.282 . S
O704 U686 2.441 . S
O704 C690 1.249 . S
O705 U686 2.420 . S
O705 C690 1.202 . S
O706 U686 2.455 . S
O706 C703 1.301 . S
O707 U686 2.449 . S
O707 C703 1.282 . S
H708 C681 0.931 . S
H709 C683 0.929 . S
H710 C684 0.930 . S
H711 C685 0.931 . S
H712 C692 0.932 . S
H713 C693 0.930 . S
H714 C694 0.929 . S
H715 C696 0.930 . S
H716 C698 0.932 . S
H717 C699 0.929 . S
H718 C700 0.928 . S
H719 C702 0.932 . S
C720 C721 1.264 . S
C720 C725 1.479 . S
C720 C730 1.465 . S
C721 C720 1.264 . S
C721 C723 1.339 . S
C721 H748 0.931 . S
C722 C723 1.395 . S
C722 C724 1.320 . S
C723 C721 1.339 . S
C723 C722 1.395 . S
C723 H749 0.929 . S
C724 C722 1.320 . S
C724 C725 1.405 . S
C724 H750 0.930 . S
C725 C720 1.479 . S
C725 C724 1.405 . S
C725 H751 0.931 . S
U726 O727 2.454 . S
U726 O728 2.458 . S
U726 C729 2.984 . S
U726 C730 2.847 . S
U726 C743 2.882 . S
U726 O744 2.441 . S
U726 O745 2.420 . S
U726 O746 2.455 . S
U726 O747 2.449 . S
O727 U726 2.454 . S
O727 C729 1.353 . S
O728 U726 2.458 . S
O728 C729 1.286 . S
C729 U726 2.984 . S
C729 O727 1.353 . S
C729 O728 1.286 . S
C729 C731 1.363 . S
C730 C720 1.465 . S
C730 U726 2.847 . S
C730 O744 1.249 . S
C730 O745 1.202 . S
C731 C729 1.363 . S
C731 C733 1.408 . S
C731 C736 1.342 . S
C732 C733 1.310 . S
C732 C735 1.461 . S
C732 H752 0.932 . S
C733 C731 1.408 . S
C733 C732 1.310 . S
C733 H753 0.930 . S
C734 C735 1.474 . S
C734 C736 1.285 . S
C734 H754 0.929 . S
C735 C732 1.461 . S
C735 C734 1.474 . S
C736 C731 1.342 . S
C736 C734 1.285 . S
C736 H755 0.930 . S
C737 C740 1.424 . S
C737 C742 1.245 . S
C737 C743 1.428 . S
C738 C741 1.260 . S
C738 C742 1.477 . S
C738 H756 0.932 . S
C739 C740 1.384 . S
C739 C741 1.479 . S
C739 H757 0.929 . S
C740 C737 1.424 . S
C740 C739 1.384 . S
C740 H758 0.928 . S
C741 C738 1.260 . S
C741 C739 1.479 . S
C742 C737 1.245 . S
C742 C738 1.477 . S
C742 H759 0.932 . S
C743 U726 2.882 . S
C743 C737 1.428 . S
C743 O746 1.301 . S
C743 O747 1.282 . S
O744 U726 2.441 . S
O744 C730 1.249 . S
O745 U726 2.420 . S
O745 C730 1.202 . S
O746 U726 2.455 . S
O746 C743 1.301 . S
O747 U726 2.449 . S
O747 C743 1.282 . S
H748 C721 0.931 . S
H749 C723 0.929 . S
H750 C724 0.930 . S
H751 C725 0.931 . S
H752 C732 0.932 . S
H753 C733 0.930 . S
H754 C734 0.929 . S
H755 C736 0.930 . S
H756 C738 0.932 . S
H757 C739 0.929 . S
H758 C740 0.928 . S
H759 C742 0.932 . S
C760 C761 1.264 . S
C760 C765 1.479 . S
C760 C770 1.465 . S
C761 C760 1.264 . S
C761 C763 1.339 . S
C761 H788 0.931 . S
C762 C763 1.395 . S
C762 C764 1.320 . S
C763 C761 1.339 . S
C763 C762 1.395 . S
C763 H789 0.929 . S
C764 C762 1.320 . S
C764 C765 1.405 . S
C764 H790 0.930 . S
C765 C760 1.479 . S
C765 C764 1.405 . S
C765 H791 0.931 . S
U766 O767 2.454 . S
U766 O768 2.458 . S
U766 C769 2.984 . S
U766 C770 2.847 . S
U766 C783 2.882 . S
U766 O784 2.441 . S
U766 O785 2.420 . S
U766 O786 2.455 . S
U766 O787 2.449 . S
O767 U766 2.454 . S
O767 C769 1.353 . S
O768 U766 2.458 . S
O768 C769 1.286 . S
C769 U766 2.984 . S
C769 O767 1.353 . S
C769 O768 1.286 . S
C769 C771 1.363 . S
C770 C760 1.465 . S
C770 U766 2.847 . S
C770 O784 1.249 . S
C770 O785 1.202 . S
C771 C769 1.363 . S
C771 C773 1.408 . S
C771 C776 1.342 . S
C772 C773 1.310 . S
C772 C775 1.461 . S
C772 H792 0.932 . S
C773 C771 1.408 . S
C773 C772 1.310 . S
C773 H793 0.930 . S
C774 C775 1.474 . S
C774 C776 1.285 . S
C774 H794 0.929 . S
C775 C772 1.461 . S
C775 C774 1.474 . S
C776 C771 1.342 . S
C776 C774 1.285 . S
C776 H795 0.930 . S
C777 C780 1.424 . S
C777 C782 1.245 . S
C777 C783 1.428 . S
C778 C781 1.260 . S
C778 C782 1.477 . S
C778 H796 0.932 . S
C779 C780 1.384 . S
C779 C781 1.479 . S
C779 H797 0.929 . S
C780 C777 1.424 . S
C780 C779 1.384 . S
C780 H798 0.928 . S
C781 C778 1.260 . S
C781 C779 1.479 . S
C782 C777 1.245 . S
C782 C778 1.477 . S
C782 H799 0.932 . S
C783 U766 2.882 . S
C783 C777 1.428 . S
C783 O786 1.301 . S
C783 O787 1.282 . S
O784 U766 2.441 . S
O784 C770 1.249 . S
O785 U766 2.420 . S
O785 C770 1.202 . S
O786 U766 2.455 . S
O786 C783 1.301 . S
O787 U766 2.449 . S
O787 C783 1.282 . S
H788 C761 0.931 . S
H789 C763 0.929 . S
H790 C764 0.930 . S
H791 C765 0.931 . S
H792 C772 0.932 . S
H793 C773 0.930 . S
H794 C774 0.929 . S
H795 C776 0.930 . S
H796 C778 0.932 . S
H797 C779 0.929 . S
H798 C780 0.928 . S
H799 C782 0.932 . S
C800 C801 1.264 . S
C800 C805 1.479 . S
C800 C810 1.465 . S
C801 C800 1.264 . S
C801 C803 1.339 1_545 S
C801 H828 0.931 . S
C802 C803 1.395 . S
C802 C804 1.354 . S
C803 C801 1.339 1_565 S
C803 C802 1.395 . S
C803 H829 0.929 . S
C804 C802 1.354 . S
C804 C805 1.351 1_565 S
C804 H830 0.956 . S
C805 C800 1.479 . S
C805 C804 1.351 1_545 S
C805 H831 0.931 . S
U806 O807 2.454 . S
U806 O808 2.458 . S
U806 C809 2.984 . S
U806 C810 2.847 . S
U806 C823 2.882 . S
U806 O824 2.441 . S
U806 O825 2.420 . S
U806 O826 2.455 . S
U806 O827 2.449 . S
O807 U806 2.454 . S
O807 C809 1.353 . S
O808 U806 2.458 . S
O808 C809 1.286 . S
C809 U806 2.984 . S
C809 O807 1.353 . S
C809 O808 1.286 . S
C809 C811 1.363 . S
C810 C800 1.465 . S
C810 U806 2.847 . S
C810 O824 1.249 . S
C810 O825 1.202 . S
C811 C809 1.363 . S
C811 C813 1.408 . S
C811 C816 1.342 . S
C812 C813 1.310 . S
C812 C815 1.461 . S
C812 H832 0.932 . S
C813 C811 1.408 . S
C813 C812 1.310 . S
C813 H833 0.930 . S
C814 C815 1.474 . S
C814 C816 1.285 . S
C814 H834 0.929 . S
C815 C812 1.461 . S
C815 C814 1.474 . S
C816 C811 1.342 . S
C816 C814 1.285 . S
C816 H835 0.930 . S
C817 C820 1.424 . S
C817 C822 1.245 . S
C817 C823 1.428 . S
C818 C821 1.260 . S
C818 C822 1.477 . S
C818 H836 0.932 . S
C819 C820 1.384 . S
C819 C821 1.479 . S
C819 H837 0.929 . S
C820 C817 1.424 . S
C820 C819 1.384 . S
C820 H838 0.928 . S
C821 C818 1.260 . S
C821 C819 1.479 . S
C822 C817 1.245 . S
C822 C818 1.477 . S
C822 H839 0.932 . S
C823 U806 2.882 . S
C823 C817 1.428 . S
C823 O826 1.301 . S
C823 O827 1.282 . S
O824 U806 2.441 . S
O824 C810 1.249 . S
O825 U806 2.420 . S
O825 C810 1.202 . S
O826 U806 2.455 . S
O826 C823 1.301 . S
O827 U806 2.449 . S
O827 C823 1.282 . S
H828 C801 0.931 . S
H829 C803 0.929 . S
H830 C804 0.956 . S
H831 C805 0.931 . S
H832 C812 0.932 . S
H833 C813 0.930 . S
H834 C814 0.929 . S
H835 C816 0.930 . S
H836 C818 0.932 . S
H837 C819 0.929 . S
H838 C820 0.928 . S
H839 C822 0.932 . S
C840 C841 1.264 . S
C840 C845 1.479 . S
C840 C850 1.465 . S
C841 C840 1.264 . S
C841 C843 1.339 . S
C841 H868 0.931 . S
C842 C843 1.395 . S
C842 C844 1.320 . S
C843 C841 1.339 . S
C843 C842 1.395 . S
C843 H869 0.929 . S
C844 C842 1.320 . S
C844 C845 1.405 . S
C844 H870 0.930 . S
C845 C840 1.479 . S
C845 C844 1.405 . S
C845 H871 0.931 . S
U846 O847 2.454 . S
U846 O848 2.458 . S
U846 C849 2.984 . S
U846 C850 2.847 . S
U846 C863 2.882 . S
U846 O864 2.441 . S
U846 O865 2.420 . S
U846 O866 2.455 . S
U846 O867 2.449 . S
O847 U846 2.454 . S
O847 C849 1.353 . S
O848 U846 2.458 . S
O848 C849 1.286 . S
C849 U846 2.984 . S
C849 O847 1.353 . S
C849 O848 1.286 . S
C849 C851 1.363 . S
C850 C840 1.465 . S
C850 U846 2.847 . S
C850 O864 1.249 . S
C850 O865 1.202 . S
C851 C849 1.363 . S
C851 C853 1.408 . S
C851 C856 1.342 . S
C852 C853 1.310 . S
C852 C855 1.461 . S
C852 H872 0.932 . S
C853 C851 1.408 . S
C853 C852 1.310 . S
C853 H873 0.930 . S
C854 C855 1.474 . S
C854 C856 1.285 . S
C854 H874 0.929 . S
C855 C852 1.461 . S
C855 C854 1.474 . S
C856 C851 1.342 . S
C856 C854 1.285 . S
C856 H875 0.930 . S
C857 C860 1.424 . S
C857 C862 1.245 . S
C857 C863 1.428 . S
C858 C861 1.260 . S
C858 C862 1.477 . S
C858 H876 0.932 . S
C859 C860 1.384 . S
C859 C861 1.479 . S
C859 H877 0.929 . S
C860 C857 1.424 . S
C860 C859 1.384 . S
C860 H878 0.928 . S
C861 C858 1.260 . S
C861 C859 1.479 . S
C862 C857 1.245 . S
C862 C858 1.477 . S
C862 H879 0.932 . S
C863 U846 2.882 . S
C863 C857 1.428 . S
C863 O866 1.301 . S
C863 O867 1.282 . S
O864 U846 2.441 . S
O864 C850 1.249 . S
O865 U846 2.420 . S
O865 C850 1.202 . S
O866 U846 2.455 . S
O866 C863 1.301 . S
O867 U846 2.449 . S
O867 C863 1.282 . S
H868 C841 0.931 . S
H869 C843 0.929 . S
H870 C844 0.930 . S
H871 C845 0.931 . S
H872 C852 0.932 . S
H873 C853 0.930 . S
H874 C854 0.929 . S
H875 C856 0.930 . S
H876 C858 0.932 . S
H877 C859 0.929 . S
H878 C860 0.928 . S
H879 C862 0.932 . S
C880 C881 1.264 . S
C880 C885 1.479 . S
C880 C890 1.465 . S
C881 C880 1.264 . S
C881 C883 1.339 . S
C881 H908 0.931 . S
C882 C883 1.395 . S
C882 C884 1.320 . S
C883 C881 1.339 . S
C883 C882 1.395 . S
C883 H909 0.929 . S
C884 C882 1.320 . S
C884 C885 1.405 . S
C884 H910 0.930 . S
C885 C880 1.479 . S
C885 C884 1.405 . S
C885 H911 0.931 . S
U886 O887 2.454 . S
U886 O888 2.458 . S
U886 C889 2.984 . S
U886 C890 2.847 . S
U886 C903 2.882 . S
U886 O904 2.441 . S
U886 O905 2.420 . S
U886 O906 2.455 . S
U886 O907 2.449 . S
O887 U886 2.454 . S
O887 C889 1.353 . S
O888 U886 2.458 . S
O888 C889 1.286 . S
C889 U886 2.984 . S
C889 O887 1.353 . S
C889 O888 1.286 . S
C889 C891 1.363 . S
C890 C880 1.465 . S
C890 U886 2.847 . S
C890 O904 1.249 . S
C890 O905 1.202 . S
C891 C889 1.363 . S
C891 C893 1.408 . S
C891 C896 1.342 . S
C892 C893 1.310 . S
C892 C895 1.461 . S
C892 H912 0.932 . S
C893 C891 1.408 . S
C893 C892 1.310 . S
C893 H913 0.930 . S
C894 C895 1.474 . S
C894 C896 1.285 . S
C894 H914 0.929 . S
C895 C892 1.461 . S
C895 C894 1.474 . S
C896 C891 1.342 . S
C896 C894 1.285 . S
C896 H915 0.930 . S
C897 C900 1.424 . S
C897 C902 1.245 . S
C897 C903 1.428 . S
C898 C901 1.260 . S
C898 C902 1.477 . S
C898 H916 0.932 . S
C899 C900 1.384 . S
C899 C901 1.479 . S
C899 H917 0.929 . S
C900 C897 1.424 . S
C900 C899 1.384 . S
C900 H918 0.928 . S
C901 C898 1.260 . S
C901 C899 1.479 . S
C902 C897 1.245 . S
C902 C898 1.477 . S
C902 H919 0.932 . S
C903 U886 2.882 . S
C903 C897 1.428 . S
C903 O906 1.301 . S
C903 O907 1.282 . S
O904 U886 2.441 . S
O904 C890 1.249 . S
O905 U886 2.420 . S
O905 C890 1.202 . S
O906 U886 2.455 . S
O906 C903 1.301 . S
O907 U886 2.449 . S
O907 C903 1.282 . S
H908 C881 0.931 . S
H909 C883 0.929 . S
H910 C884 0.930 . S
H911 C885 0.931 . S
H912 C892 0.932 . S
H913 C893 0.930 . S
H914 C894 0.929 . S
H915 C896 0.930 . S
H916 C898 0.932 . S
H917 C899 0.929 . S
H918 C900 0.928 . S
H919 C902 0.932 . S
C920 C921 1.264 . S
C920 C925 1.479 . S
C920 C930 1.465 . S
C921 C920 1.264 . S
C921 C923 1.339 . S
C921 H948 0.931 . S
C922 C923 1.395 . S
C922 C924 1.320 . S
C923 C921 1.339 . S
C923 C922 1.395 . S
C923 H949 0.929 . S
C924 C922 1.320 . S
C924 C925 1.405 . S
C924 H950 0.930 . S
C925 C920 1.479 . S
C925 C924 1.405 . S
C925 H951 0.931 . S
U926 O927 2.454 . S
U926 O928 2.458 . S
U926 C929 2.984 . S
U926 C930 2.847 . S
U926 C943 2.882 . S
U926 O944 2.441 . S
U926 O945 2.420 . S
U926 O946 2.455 . S
U926 O947 2.449 . S
O927 U926 2.454 . S
O927 C929 1.353 . S
O928 U926 2.458 . S
O928 C929 1.286 . S
C929 U926 2.984 . S
C929 O927 1.353 . S
C929 O928 1.286 . S
C929 C931 1.363 . S
C930 C920 1.465 . S
C930 U926 2.847 . S
C930 O944 1.249 . S
C930 O945 1.202 . S
C931 C929 1.363 . S
C931 C933 1.408 . S
C931 C936 1.342 . S
C932 C933 1.310 . S
C932 C935 1.461 . S
C932 H952 0.932 . S
C933 C931 1.408 . S
C933 C932 1.310 . S
C933 H953 0.930 . S
C934 C935 1.474 . S
C934 C936 1.285 . S
C934 H954 0.929 . S
C935 C932 1.461 . S
C935 C934 1.474 . S
C936 C931 1.342 . S
C936 C934 1.285 . S
C936 H955 0.930 . S
C937 C940 1.424 . S
C937 C942 1.245 . S
C937 C943 1.428 . S
C938 C941 1.260 . S
C938 C942 1.477 . S
C938 H956 0.932 . S
C939 C940 1.384 . S
C939 C941 1.479 . S
C939 H957 0.929 . S
C940 C937 1.424 . S
C940 C939 1.384 . S
C940 H958 0.928 . S
C941 C938 1.260 . S
C941 C939 1.479 . S
C942 C937 1.245 . S
C942 C938 1.477 . S
C942 H959 0.932 . S
C943 U926 2.882 . S
C943 C937 1.428 . S
C943 O946 1.301 . S
C943 O947 1.282 . S
O944 U926 2.441 . S
O944 C930 1.249 . S
O945 U926 2.420 . S
O945 C930 1.202 . S
O946 U926 2.455 . S
O946 C943 1.301 . S
O947 U926 2.449 . S
O947 C943 1.282 . S
H948 C921 0.931 . S
H949 C923 0.929 . S
H950 C924 0.930 . S
H951 C925 0.931 . S
H952 C932 0.932 . S
H953 C933 0.930 . S
H954 C934 0.929 . S
H955 C936 0.930 . S
H956 C938 0.932 . S
H957 C939 0.929 . S
H958 C940 0.928 . S
H959 C942 0.932 . S
C960 C961 1.264 . S
C960 C965 1.479 . S
C960 C970 1.465 . S
C961 C960 1.264 . S
C961 C963 1.339 . S
C961 H988 0.931 . S
C962 C963 1.395 . S
C962 C964 1.320 . S
C963 C961 1.339 . S
C963 C962 1.395 . S
C963 H989 0.929 . S
C964 C962 1.320 . S
C964 C965 1.405 . S
C964 H990 0.930 . S
C965 C960 1.479 . S
C965 C964 1.405 . S
C965 H991 0.931 . S
U966 O967 2.454 . S
U966 O968 2.458 . S
U966 C969 2.984 . S
U966 C970 2.847 . S
U966 C983 2.882 . S
U966 O984 2.441 . S
U966 O985 2.420 . S
U966 O986 2.455 . S
U966 O987 2.449 . S
O967 U966 2.454 . S
O967 C969 1.353 . S
O968 U966 2.458 . S
O968 C969 1.286 . S
C969 U966 2.984 . S
C969 O967 1.353 . S
C969 O968 1.286 . S
C969 C971 1.363 . S
C970 C960 1.465 . S
C970 U966 2.847 . S
C970 O984 1.249 . S
C970 O985 1.202 . S
C971 C969 1.363 . S
C971 C973 1.408 . S
C971 C976 1.342 . S
C972 C973 1.310 . S
C972 C975 1.461 . S
C972 H992 0.932 . S
C973 C971 1.408 . S
C973 C972 1.310 . S
C973 H993 0.930 . S
C974 C975 1.474 . S
C974 C976 1.285 . S
C974 H994 0.929 . S
C975 C972 1.461 . S
C975 C974 1.474 . S
C976 C971 1.342 . S
C976 C974 1.285 . S
C976 H995 0.930 . S
C977 C980 1.424 . S
C977 C982 1.245 . S
C977 C983 1.428 . S
C978 C981 1.260 . S
C978 C982 1.477 . S
C978 H996 0.932 . S
C979 C980 1.384 . S
C979 C981 1.479 . S
C979 H997 0.929 . S
C980 C977 1.424 . S
C980 C979 1.384 . S
C980 H998 0.928 . S
C981 C978 1.260 . S
C981 C979 1.479 . S
C982 C977 1.245 . S
C982 C978 1.477 . S
C982 H999 0.932 . S
C983 U966 2.882 . S
C983 C977 1.428 . S
C983 O986 1.301 . S
C983 O987 1.282 . S
O984 U966 2.441 . S
O984 C970 1.249 . S
O985 U966 2.420 . S
O985 C970 1.202 . S
O986 U966 2.455 . S
O986 C983 1.301 . S
O987 U966 2.449 . S
O987 C983 1.282 . S
H988 C961 0.931 . S
H989 C963 0.929 . S
H990 C964 0.930 . S
H991 C965 0.931 . S
H992 C972 0.932 . S
H993 C973 0.930 . S
H994 C974 0.929 . S
H995 C976 0.930 . S
H996 C978 0.932 . S
H997 C979 0.929 . S
H998 C980 0.928 . S
H999 C982 0.932 . S
C1000 C1001 1.264 . S
C1000 C1005 1.479 . S
C1000 C1010 1.465 . S
C1001 C1000 1.264 . S
C1001 C1003 1.339 . S
C1001 H1028 0.931 . S
C1002 C1003 1.395 1_455 S
C1002 C1004 1.301 1_455 S
C1003 C1001 1.339 . S
C1003 C1002 1.395 1_655 S
C1003 H1029 0.929 1_655 S
C1004 C1002 1.301 1_655 S
C1004 C1005 1.448 . S
C1004 H1030 0.907 1_655 S
C1005 C1000 1.479 . S
C1005 C1004 1.448 . S
C1005 H1031 0.931 . S
U1006 O1007 2.454 . S
U1006 O1008 2.458 . S
U1006 C1009 2.984 . S
U1006 C1010 2.847 . S
U1006 C1023 2.882 . S
U1006 O1024 2.441 . S
U1006 O1025 2.420 . S
U1006 O1026 2.455 . S
U1006 O1027 2.449 . S
O1007 U1006 2.454 . S
O1007 C1009 1.353 . S
O1008 U1006 2.458 . S
O1008 C1009 1.286 . S
C1009 U1006 2.984 . S
C1009 O1007 1.353 . S
C1009 O1008 1.286 . S
C1009 C1011 1.363 . S
C1010 C1000 1.465 . S
C1010 U1006 2.847 . S
C1010 O1024 1.249 . S
C1010 O1025 1.202 . S
C1011 C1009 1.363 . S
C1011 C1013 1.408 . S
C1011 C1016 1.342 . S
C1012 C1013 1.310 . S
C1012 C1015 1.461 . S
C1012 H1032 0.932 . S
C1013 C1011 1.408 . S
C1013 C1012 1.310 . S
C1013 H1033 0.930 . S
C1014 C1015 1.474 . S
C1014 C1016 1.285 . S
C1014 H1034 0.929 . S
C1015 C1012 1.461 . S
C1015 C1014 1.474 . S
C1016 C1011 1.342 . S
C1016 C1014 1.285 . S
C1016 H1035 0.930 . S
C1017 C1020 1.424 . S
C1017 C1022 1.245 . S
C1017 C1023 1.428 . S
C1018 C1021 1.260 . S
C1018 C1022 1.477 . S
C1018 H1036 0.932 . S
C1019 C1020 1.384 . S
C1019 C1021 1.479 . S
C1019 H1037 0.929 . S
C1020 C1017 1.424 . S
C1020 C1019 1.384 . S
C1020 H1038 0.928 . S
C1021 C1018 1.260 . S
C1021 C1019 1.479 . S
C1022 C1017 1.245 . S
C1022 C1018 1.477 . S
C1022 H1039 0.932 . S
C1023 U1006 2.882 . S
C1023 C1017 1.428 . S
C1023 O1026 1.301 . S
C1023 O1027 1.282 . S
O1024 U1006 2.441 . S
O1024 C1010 1.249 . S
O1025 U1006 2.420 . S
O1025 C1010 1.202 . S
O1026 U1006 2.455 . S
O1026 C1023 1.301 . S
O1027 U1006 2.449 . S
O1027 C1023 1.282 . S
H1028 C1001 0.931 . S
H1029 C1003 0.929 1_455 S
H1030 C1004 0.907 1_455 S
H1031 C1005 0.931 . S
H1032 C1012 0.932 . S
H1033 C1013 0.930 . S
H1034 C1014 0.929 . S
H1035 C1016 0.930 . S
H1036 C1018 0.932 . S
H1037 C1019 0.929 . S
H1038 C1020 0.928 . S
H1039 C1022 0.932 . S
C1040 C1041 1.264 . S
C1040 C1045 1.479 . S
C1040 C1050 1.465 . S
C1041 C1040 1.264 . S
C1041 C1043 1.339 . S
C1041 H1068 0.931 . S
C1042 C1043 1.395 . S
C1042 C1044 1.320 . S
C1043 C1041 1.339 . S
C1043 C1042 1.395 . S
C1043 H1069 0.929 . S
C1044 C1042 1.320 . S
C1044 C1045 1.405 . S
C1044 H1070 0.930 . S
C1045 C1040 1.479 . S
C1045 C1044 1.405 . S
C1045 H1071 0.931 . S
U1046 O1047 2.454 . S
U1046 O1048 2.458 . S
U1046 C1049 2.984 . S
U1046 C1050 2.847 . S
U1046 C1063 2.882 . S
U1046 O1064 2.441 . S
U1046 O1065 2.420 . S
U1046 O1066 2.455 . S
U1046 O1067 2.449 . S
O1047 U1046 2.454 . S
O1047 C1049 1.353 . S
O1048 U1046 2.458 . S
O1048 C1049 1.286 . S
C1049 U1046 2.984 . S
C1049 O1047 1.353 . S
C1049 O1048 1.286 . S
C1049 C1051 1.363 . S
C1050 C1040 1.465 . S
C1050 U1046 2.847 . S
C1050 O1064 1.249 . S
C1050 O1065 1.202 . S
C1051 C1049 1.363 . S
C1051 C1053 1.408 . S
C1051 C1056 1.342 . S
C1052 C1053 1.310 . S
C1052 C1055 1.461 . S
C1052 H1072 0.932 . S
C1053 C1051 1.408 . S
C1053 C1052 1.310 . S
C1053 H1073 0.930 . S
C1054 C1055 1.474 . S
C1054 C1056 1.285 . S
C1054 H1074 0.929 . S
C1055 C1052 1.461 . S
C1055 C1054 1.474 . S
C1056 C1051 1.342 . S
C1056 C1054 1.285 . S
C1056 H1075 0.930 . S
C1057 C1060 1.424 . S
C1057 C1062 1.245 . S
C1057 C1063 1.428 . S
C1058 C1061 1.260 . S
C1058 C1062 1.477 . S
C1058 H1076 0.932 . S
C1059 C1060 1.384 . S
C1059 C1061 1.479 . S
C1059 H1077 0.929 . S
C1060 C1057 1.424 . S
C1060 C1059 1.384 . S
C1060 H1078 0.928 . S
C1061 C1058 1.260 . S
C1061 C1059 1.479 . S
C1062 C1057 1.245 . S
C1062 C1058 1.477 . S
C1062 H1079 0.932 . S
C1063 U1046 2.882 . S
C1063 C1057 1.428 . S
C1063 O1066 1.301 . S
C1063 O1067 1.282 . S
O1064 U1046 2.441 . S
O1064 C1050 1.249 . S
O1065 U1046 2.420 . S
O1065 C1050 1.202 . S
O1066 U1046 2.455 . S
O1066 C1063 1.301 . S
O1067 U1046 2.449 . S
O1067 C1063 1.282 . S
H1068 C1041 0.931 . S
H1069 C1043 0.929 . S
H1070 C1044 0.930 . S
H1071 C1045 0.931 . S
H1072 C1052 0.932 . S
H1073 C1053 0.930 . S
H1074 C1054 0.929 . S
H1075 C1056 0.930 . S
H1076 C1058 0.932 . S
H1077 C1059 0.929 . S
H1078 C1060 0.928 . S
H1079 C1062 0.932 . S
C1080 C1081 1.264 . S
C1080 C1085 1.479 . S
C1080 C1090 1.465 . S
C1081 C1080 1.264 . S
C1081 C1083 1.339 . S
C1081 H1108 0.931 . S
C1082 C1083 1.395 . S
C1082 C1084 1.320 . S
C1083 C1081 1.339 . S
C1083 C1082 1.395 . S
C1083 H1109 0.929 . S
C1084 C1082 1.320 . S
C1084 C1085 1.405 . S
C1084 H1110 0.930 . S
C1085 C1080 1.479 . S
C1085 C1084 1.405 . S
C1085 H1111 0.931 . S
U1086 O1087 2.454 . S
U1086 O1088 2.458 . S
U1086 C1089 2.984 . S
U1086 C1090 2.847 . S
U1086 C1103 2.882 . S
U1086 O1104 2.441 . S
U1086 O1105 2.420 . S
U1086 O1106 2.455 . S
U1086 O1107 2.449 . S
O1087 U1086 2.454 . S
O1087 C1089 1.353 . S
O1088 U1086 2.458 . S
O1088 C1089 1.286 . S
C1089 U1086 2.984 . S
C1089 O1087 1.353 . S
C1089 O1088 1.286 . S
C1089 C1091 1.363 . S
C1090 C1080 1.465 . S
C1090 U1086 2.847 . S
C1090 O1104 1.249 . S
C1090 O1105 1.202 . S
C1091 C1089 1.363 . S
C1091 C1093 1.408 . S
C1091 C1096 1.342 . S
C1092 C1093 1.310 . S
C1092 C1095 1.461 . S
C1092 H1112 0.932 . S
C1093 C1091 1.408 . S
C1093 C1092 1.310 . S
C1093 H1113 0.930 . S
C1094 C1095 1.474 . S
C1094 C1096 1.285 . S
C1094 H1114 0.929 . S
C1095 C1092 1.461 . S
C1095 C1094 1.474 . S
C1096 C1091 1.342 . S
C1096 C1094 1.285 . S
C1096 H1115 0.930 . S
C1097 C1100 1.424 . S
C1097 C1102 1.245 . S
C1097 C1103 1.428 . S
C1098 C1101 1.260 . S
C1098 C1102 1.477 . S
C1098 H1116 0.932 . S
C1099 C1100 1.384 . S
C1099 C1101 1.479 . S
C1099 H1117 0.929 . S
C1100 C1097 1.424 . S
C1100 C1099 1.384 . S
C1100 H1118 0.928 . S
C1101 C1098 1.260 . S
C1101 C1099 1.479 . S
C1102 C1097 1.245 . S
C1102 C1098 1.477 . S
C1102 H1119 0.932 . S
C1103 U1086 2.882 . S
C1103 C1097 1.428 . S
C1103 O1106 1.301 . S
C1103 O1107 1.282 . S
O1104 U1086 2.441 . S
O1104 C1090 1.249 . S
O1105 U1086 2.420 . S
O1105 C1090 1.202 . S
O1106 U1086 2.455 . S
O1106 C1103 1.301 . S
O1107 U1086 2.449 . S
O1107 C1103 1.282 . S
H1108 C1081 0.931 . S
H1109 C1083 0.929 . S
H1110 C1084 0.930 . S
H1111 C1085 0.931 . S
H1112 C1092 0.932 . S
H1113 C1093 0.930 . S
H1114 C1094 0.929 . S
H1115 C1096 0.930 . S
H1116 C1098 0.932 . S
H1117 C1099 0.929 . S
H1118 C1100 0.928 . S
H1119 C1102 0.932 . S
C1120 C1121 1.264 . S
C1120 C1125 1.479 . S
C1120 C1130 1.465 . S
C1121 C1120 1.264 . S
C1121 C1123 1.339 . S
C1121 H1148 0.931 . S
C1122 C1123 1.395 . S
C1122 C1124 1.320 . S
C1123 C1121 1.339 . S
C1123 C1122 1.395 . S
C1123 H1149 0.929 . S
C1124 C1122 1.320 . S
C1124 C1125 1.405 . S
C1124 H1150 0.930 . S
C1125 C1120 1.479 . S
C1125 C1124 1.405 . S
C1125 H1151 0.931 . S
U1126 O1127 2.454 . S
U1126 O1128 2.458 . S
U1126 C1129 2.984 . S
U1126 C1130 2.847 . S
U1126 C1143 2.882 . S
U1126 O1144 2.441 . S
U1126 O1145 2.420 . S
U1126 O1146 2.455 . S
U1126 O1147 2.449 . S
O1127 U1126 2.454 . S
O1127 C1129 1.353 . S
O1128 U1126 2.458 . S
O1128 C1129 1.286 . S
C1129 U1126 2.984 . S
C1129 O1127 1.353 . S
C1129 O1128 1.286 . S
C1129 C1131 1.363 . S
C1130 C1120 1.465 . S
C1130 U1126 2.847 . S
C1130 O1144 1.249 . S
C1130 O1145 1.202 . S
C1131 C1129 1.363 . S
C1131 C1133 1.408 . S
C1131 C1136 1.342 . S
C1132 C1133 1.310 . S
C1132 C1135 1.461 . S
C1132 H1152 0.932 . S
C1133 C1131 1.408 . S
C1133 C1132 1.310 . S
C1133 H1153 0.930 . S
C1134 C1135 1.474 . S
C1134 C1136 1.285 . S
C1134 H1154 0.929 . S
C1135 C1132 1.461 . S
C1135 C1134 1.474 . S
C1136 C1131 1.342 . S
C1136 C1134 1.285 . S
C1136 H1155 0.930 . S
C1137 C1140 1.424 . S
C1137 C1142 1.245 . S
C1137 C1143 1.428 . S
C1138 C1141 1.260 . S
C1138 C1142 1.477 . S
C1138 H1156 0.932 . S
C1139 C1140 1.384 . S
C1139 C1141 1.479 . S
C1139 H1157 0.929 . S
C1140 C1137 1.424 . S
C1140 C1139 1.384 . S
C1140 H1158 0.928 . S
C1141 C1138 1.260 . S
C1141 C1139 1.479 . S
C1142 C1137 1.245 . S
C1142 C1138 1.477 . S
C1142 H1159 0.932 . S
C1143 U1126 2.882 . S
C1143 C1137 1.428 . S
C1143 O1146 1.301 . S
C1143 O1147 1.282 . S
O1144 U1126 2.441 . S
O1144 C1130 1.249 . S
O1145 U1126 2.420 . S
O1145 C1130 1.202 . S
O1146 U1126 2.455 . S
O1146 C1143 1.301 . S
O1147 U1126 2.449 . S
O1147 C1143 1.282 . S
H1148 C1121 0.931 . S
H1149 C1123 0.929 . S
H1150 C1124 0.930 . S
H1151 C1125 0.931 . S
H1152 C1132 0.932 . S
H1153 C1133 0.930 . S
H1154 C1134 0.929 . S
H1155 C1136 0.930 . S
H1156 C1138 0.932 . S
H1157 C1139 0.929 . S
H1158 C1140 0.928 . S
H1159 C1142 0.932 . S
C1160 C1161 1.264 . S
C1160 C1165 1.479 . S
C1160 C1170 1.465 . S
C1161 C1160 1.264 . S
C1161 C1163 1.339 . S
C1161 H1188 0.931 . S
C1162 C1163 1.395 . S
C1162 C1164 1.320 . S
C1163 C1161 1.339 . S
C1163 C1162 1.395 . S
C1163 H1189 0.929 . S
C1164 C1162 1.320 . S
C1164 C1165 1.405 . S
C1164 H1190 0.930 . S
C1165 C1160 1.479 . S
C1165 C1164 1.405 . S
C1165 H1191 0.931 . S
U1166 O1167 2.454 . S
U1166 O1168 2.458 . S
U1166 C1169 2.984 . S
U1166 C1170 2.847 . S
U1166 C1183 2.882 . S
U1166 O1184 2.441 . S
U1166 O1185 2.420 . S
U1166 O1186 2.455 . S
U1166 O1187 2.449 . S
O1167 U1166 2.454 . S
O1167 C1169 1.353 . S
O1168 U1166 2.458 . S
O1168 C1169 1.286 . S
C1169 U1166 2.984 . S
C1169 O1167 1.353 . S
C1169 O1168 1.286 . S
C1169 C1171 1.363 . S
C1170 C1160 1.465 . S
C1170 U1166 2.847 . S
C1170 O1184 1.249 . S
C1170 O1185 1.202 . S
C1171 C1169 1.363 . S
C1171 C1173 1.408 . S
C1171 C1176 1.342 . S
C1172 C1173 1.310 . S
C1172 C1175 1.461 . S
C1172 H1192 0.932 . S
C1173 C1171 1.408 . S
C1173 C1172 1.310 . S
C1173 H1193 0.930 . S
C1174 C1175 1.474 . S
C1174 C1176 1.285 . S
C1174 H1194 0.929 . S
C1175 C1172 1.461 . S
C1175 C1174 1.474 . S
C1176 C1171 1.342 . S
C1176 C1174 1.285 . S
C1176 H1195 0.930 . S
C1177 C1180 1.424 . S
C1177 C1182 1.245 . S
C1177 C1183 1.428 . S
C1178 C1181 1.260 . S
C1178 C1182 1.477 . S
C1178 H1196 0.932 . S
C1179 C1180 1.384 . S
C1179 C1181 1.479 . S
C1179 H1197 0.929 . S
C1180 C1177 1.424 . S
C1180 C1179 1.384 . S
C1180 H1198 0.928 . S
C1181 C1178 1.260 . S
C1181 C1179 1.479 . S
C1182 C1177 1.245 . S
C1182 C1178 1.477 . S
C1182 H1199 0.932 . S
C1183 U1166 2.882 . S
C1183 C1177 1.428 . S
C1183 O1186 1.301 . S
C1183 O1187 1.282 . S
O1184 U1166 2.441 . S
O1184 C1170 1.249 . S
O1185 U1166 2.420 . S
O1185 C1170 1.202 . S
O1186 U1166 2.455 . S
O1186 C1183 1.301 . S
O1187 U1166 2.449 . S
O1187 C1183 1.282 . S
H1188 C1161 0.931 . S
H1189 C1163 0.929 . S
H1190 C1164 0.930 . S
H1191 C1165 0.931 . S
H1192 C1172 0.932 . S
H1193 C1173 0.930 . S
H1194 C1174 0.929 . S
H1195 C1176 0.930 . S
H1196 C1178 0.932 . S
H1197 C1179 0.929 . S
H1198 C1180 0.928 . S
H1199 C1182 0.932 . S
C1200 C1201 1.264 . S
C1200 C1205 1.479 . S
C1200 C1210 1.465 . S
C1201 C1200 1.264 . S
C1201 C1203 1.339 . S
C1201 H1228 0.931 . S
C1202 C1203 1.395 . S
C1202 C1204 1.320 . S
C1203 C1201 1.339 . S
C1203 C1202 1.395 . S
C1203 H1229 0.929 . S
C1204 C1202 1.320 . S
C1204 C1205 1.405 . S
C1204 H1230 0.930 . S
C1205 C1200 1.479 . S
C1205 C1204 1.405 . S
C1205 H1231 0.931 . S
U1206 O1207 2.454 . S
U1206 O1208 2.458 . S
U1206 C1209 2.984 . S
U1206 C1210 2.847 . S
U1206 C1223 2.882 . S
U1206 O1224 2.441 . S
U1206 O1225 2.420 . S
U1206 O1226 2.455 . S
U1206 O1227 2.449 . S
O1207 U1206 2.454 . S
O1207 C1209 1.353 . S
O1208 U1206 2.458 . S
O1208 C1209 1.286 . S
C1209 U1206 2.984 . S
C1209 O1207 1.353 . S
C1209 O1208 1.286 . S
C1209 C1211 1.363 . S
C1210 C1200 1.465 . S
C1210 U1206 2.847 . S
C1210 O1224 1.249 . S
C1210 O1225 1.202 . S
C1211 C1209 1.363 . S
C1211 C1213 1.408 . S
C1211 C1216 1.342 . S
C1212 C1213 1.310 . S
C1212 C1215 1.461 . S
C1212 H1232 0.932 . S
C1213 C1211 1.408 . S
C1213 C1212 1.310 . S
C1213 H1233 0.930 . S
C1214 C1215 1.474 . S
C1214 C1216 1.285 . S
C1214 H1234 0.929 . S
C1215 C1212 1.461 . S
C1215 C1214 1.474 . S
C1216 C1211 1.342 . S
C1216 C1214 1.285 . S
C1216 H1235 0.930 . S
C1217 C1220 1.424 . S
C1217 C1222 1.245 . S
C1217 C1223 1.428 . S
C1218 C1221 1.260 . S
C1218 C1222 1.477 . S
C1218 H1236 0.932 . S
C1219 C1220 1.384 . S
C1219 C1221 1.479 . S
C1219 H1237 0.929 . S
C1220 C1217 1.424 . S
C1220 C1219 1.384 . S
C1220 H1238 0.928 . S
C1221 C1218 1.260 . S
C1221 C1219 1.479 . S
C1222 C1217 1.245 . S
C1222 C1218 1.477 . S
C1222 H1239 0.932 . S
C1223 U1206 2.882 . S
C1223 C1217 1.428 . S
C1223 O1226 1.301 . S
C1223 O1227 1.282 . S
O1224 U1206 2.441 . S
O1224 C1210 1.249 . S
O1225 U1206 2.420 . S
O1225 C1210 1.202 . S
O1226 U1206 2.455 . S
O1226 C1223 1.301 . S
O1227 U1206 2.449 . S
O1227 C1223 1.282 . S
H1228 C1201 0.931 . S
H1229 C1203 0.929 . S
H1230 C1204 0.930 . S
H1231 C1205 0.931 . S
H1232 C1212 0.932 . S
H1233 C1213 0.930 . S
H1234 C1214 0.929 . S
H1235 C1216 0.930 . S
H1236 C1218 0.932 . S
H1237 C1219 0.929 . S
H1238 C1220 0.928 . S
H1239 C1222 0.932 . S
C1240 C1241 1.264 . S
C1240 C1245 1.479 . S
C1240 C1250 1.465 . S
C1241 C1240 1.264 . S
C1241 C1243 1.339 . S
C1241 H1268 0.931 . S
C1242 C1243 1.395 1_455 S
C1242 C1244 1.301 1_455 S
C1243 C1241 1.339 . S
C1243 C1242 1.395 1_655 S
C1243 H1269 0.929 1_655 S
C1244 C1242 1.301 1_655 S
C1244 C1245 1.448 . S
C1244 H1270 0.907 1_655 S
C1245 C1240 1.479 . S
C1245 C1244 1.448 . S
C1245 H1271 0.931 . S
U1246 O1247 2.454 . S
U1246 O1248 2.458 . S
U1246 C1249 2.984 . S
U1246 C1250 2.847 . S
U1246 C1263 2.882 . S
U1246 O1264 2.441 . S
U1246 O1265 2.420 . S
U1246 O1266 2.455 . S
U1246 O1267 2.449 . S
O1247 U1246 2.454 . S
O1247 C1249 1.353 . S
O1248 U1246 2.458 . S
O1248 C1249 1.286 . S
C1249 U1246 2.984 . S
C1249 O1247 1.353 . S
C1249 O1248 1.286 . S
C1249 C1251 1.363 . S
C1250 C1240 1.465 . S
C1250 U1246 2.847 . S
C1250 O1264 1.249 . S
C1250 O1265 1.202 . S
C1251 C1249 1.363 . S
C1251 C1253 1.408 . S
C1251 C1256 1.342 . S
C1252 C1253 1.310 . S
C1252 C1255 1.461 . S
C1252 H1272 0.932 . S
C1253 C1251 1.408 . S
C1253 C1252 1.310 . S
C1253 H1273 0.930 . S
C1254 C1255 1.474 . S
C1254 C1256 1.285 . S
C1254 H1274 0.929 . S
C1255 C1252 1.461 . S
C1255 C1254 1.474 . S
C1256 C1251 1.342 . S
C1256 C1254 1.285 . S
C1256 H1275 0.930 . S
C1257 C1260 1.424 . S
C1257 C1262 1.245 . S
C1257 C1263 1.428 . S
C1258 C1261 1.260 . S
C1258 C1262 1.477 . S
C1258 H1276 0.932 . S
C1259 C1260 1.384 . S
C1259 C1261 1.479 . S
C1259 H1277 0.929 . S
C1260 C1257 1.424 . S
C1260 C1259 1.384 . S
C1260 H1278 0.928 . S
C1261 C1258 1.260 . S
C1261 C1259 1.479 . S
C1262 C1257 1.245 . S
C1262 C1258 1.477 . S
C1262 H1279 0.932 . S
C1263 U1246 2.882 . S
C1263 C1257 1.428 . S
C1263 O1266 1.301 . S
C1263 O1267 1.282 . S
O1264 U1246 2.441 . S
O1264 C1250 1.249 . S
O1265 U1246 2.420 . S
O1265 C1250 1.202 . S
O1266 U1246 2.455 . S
O1266 C1263 1.301 . S
O1267 U1246 2.449 . S
O1267 C1263 1.282 . S
H1268 C1241 0.931 . S
H1269 C1243 0.929 1_455 S
H1270 C1244 0.907 1_455 S
H1271 C1245 0.931 . S
H1272 C1252 0.932 . S
H1273 C1253 0.930 . S
H1274 C1254 0.929 . S
H1275 C1256 0.930 . S
H1276 C1258 0.932 . S
H1277 C1259 0.929 . S
H1278 C1260 0.928 . S
H1279 C1262 0.932 . S
C1280 C1281 1.264 . S
C1280 C1285 1.479 . S
C1280 C1290 1.465 . S
C1281 C1280 1.264 . S
C1281 C1283 1.339 . S
C1281 H1308 0.931 . S
C1282 C1283 1.395 . S
C1282 C1284 1.320 . S
C1283 C1281 1.339 . S
C1283 C1282 1.395 . S
C1283 H1309 0.929 . S
C1284 C1282 1.320 . S
C1284 C1285 1.405 . S
C1284 H1310 0.930 . S
C1285 C1280 1.479 . S
C1285 C1284 1.405 . S
C1285 H1311 0.931 . S
U1286 O1287 2.454 . S
U1286 O1288 2.458 . S
U1286 C1289 2.984 . S
U1286 C1290 2.847 . S
U1286 C1303 2.882 . S
U1286 O1304 2.441 . S
U1286 O1305 2.420 . S
U1286 O1306 2.455 . S
U1286 O1307 2.449 . S
O1287 U1286 2.454 . S
O1287 C1289 1.353 . S
O1288 U1286 2.458 . S
O1288 C1289 1.286 . S
C1289 U1286 2.984 . S
C1289 O1287 1.353 . S
C1289 O1288 1.286 . S
C1289 C1291 1.363 . S
C1290 C1280 1.465 . S
C1290 U1286 2.847 . S
C1290 O1304 1.249 . S
C1290 O1305 1.202 . S
C1291 C1289 1.363 . S
C1291 C1293 1.408 . S
C1291 C1296 1.342 . S
C1292 C1293 1.310 . S
C1292 C1295 1.461 . S
C1292 H1312 0.932 . S
C1293 C1291 1.408 . S
C1293 C1292 1.310 . S
C1293 H1313 0.930 . S
C1294 C1295 1.474 . S
C1294 C1296 1.285 . S
C1294 H1314 0.929 . S
C1295 C1292 1.461 . S
C1295 C1294 1.474 . S
C1296 C1291 1.342 . S
C1296 C1294 1.285 . S
C1296 H1315 0.930 . S
C1297 C1300 1.424 . S
C1297 C1302 1.245 . S
C1297 C1303 1.428 . S
C1298 C1301 1.260 . S
C1298 C1302 1.477 . S
C1298 H1316 0.932 . S
C1299 C1300 1.384 . S
C1299 C1301 1.479 . S
C1299 H1317 0.929 . S
C1300 C1297 1.424 . S
C1300 C1299 1.384 . S
C1300 H1318 0.928 . S
C1301 C1298 1.260 . S
C1301 C1299 1.479 . S
C1302 C1297 1.245 . S
C1302 C1298 1.477 . S
C1302 H1319 0.932 . S
C1303 U1286 2.882 . S
C1303 C1297 1.428 . S
C1303 O1306 1.301 . S
C1303 O1307 1.282 . S
O1304 U1286 2.441 . S
O1304 C1290 1.249 . S
O1305 U1286 2.420 . S
O1305 C1290 1.202 . S
O1306 U1286 2.455 . S
O1306 C1303 1.301 . S
O1307 U1286 2.449 . S
O1307 C1303 1.282 . S
H1308 C1281 0.931 . S
H1309 C1283 0.929 . S
H1310 C1284 0.930 . S
H1311 C1285 0.931 . S
H1312 C1292 0.932 . S
H1313 C1293 0.930 . S
H1314 C1294 0.929 . S
H1315 C1296 0.930 . S
H1316 C1298 0.932 . S
H1317 C1299 0.929 . S
H1318 C1300 0.928 . S
H1319 C1302 0.932 . S
C1320 C1321 1.264 . S
C1320 C1325 1.479 . S
C1320 C1330 1.465 . S
C1321 C1320 1.264 . S
C1321 C1323 1.339 . S
C1321 H1348 0.931 . S
C1322 C1323 1.395 . S
C1322 C1324 1.320 . S
C1323 C1321 1.339 . S
C1323 C1322 1.395 . S
C1323 H1349 0.929 . S
C1324 C1322 1.320 . S
C1324 C1325 1.405 . S
C1324 H1350 0.930 . S
C1325 C1320 1.479 . S
C1325 C1324 1.405 . S
C1325 H1351 0.931 . S
U1326 O1327 2.454 . S
U1326 O1328 2.458 . S
U1326 C1329 2.984 . S
U1326 C1330 2.847 . S
U1326 C1343 2.882 . S
U1326 O1344 2.441 . S
U1326 O1345 2.420 . S
U1326 O1346 2.455 . S
U1326 O1347 2.449 . S
O1327 U1326 2.454 . S
O1327 C1329 1.353 . S
O1328 U1326 2.458 . S
O1328 C1329 1.286 . S
C1329 U1326 2.984 . S
C1329 O1327 1.353 . S
C1329 O1328 1.286 . S
C1329 C1331 1.363 . S
C1330 C1320 1.465 . S
C1330 U1326 2.847 . S
C1330 O1344 1.249 . S
C1330 O1345 1.202 . S
C1331 C1329 1.363 . S
C1331 C1333 1.408 . S
C1331 C1336 1.342 . S
C1332 C1333 1.310 . S
C1332 C1335 1.461 . S
C1332 H1352 0.932 . S
C1333 C1331 1.408 . S
C1333 C1332 1.310 . S
C1333 H1353 0.930 . S
C1334 C1335 1.474 . S
C1334 C1336 1.285 . S
C1334 H1354 0.929 . S
C1335 C1332 1.461 . S
C1335 C1334 1.474 . S
C1336 C1331 1.342 . S
C1336 C1334 1.285 . S
C1336 H1355 0.930 . S
C1337 C1340 1.424 . S
C1337 C1342 1.245 . S
C1337 C1343 1.428 . S
C1338 C1341 1.260 . S
C1338 C1342 1.477 . S
C1338 H1356 0.932 . S
C1339 C1340 1.384 . S
C1339 C1341 1.479 . S
C1339 H1357 0.929 . S
C1340 C1337 1.424 . S
C1340 C1339 1.384 . S
C1340 H1358 0.928 . S
C1341 C1338 1.260 . S
C1341 C1339 1.479 . S
C1342 C1337 1.245 . S
C1342 C1338 1.477 . S
C1342 H1359 0.932 . S
C1343 U1326 2.882 . S
C1343 C1337 1.428 . S
C1343 O1346 1.301 . S
C1343 O1347 1.282 . S
O1344 U1326 2.441 . S
O1344 C1330 1.249 . S
O1345 U1326 2.420 . S
O1345 C1330 1.202 . S
O1346 U1326 2.455 . S
O1346 C1343 1.301 . S
O1347 U1326 2.449 . S
O1347 C1343 1.282 . S
H1348 C1321 0.931 . S
H1349 C1323 0.929 . S
H1350 C1324 0.930 . S
H1351 C1325 0.931 . S
H1352 C1332 0.932 . S
H1353 C1333 0.930 . S
H1354 C1334 0.929 . S
H1355 C1336 0.930 . S
H1356 C1338 0.932 . S
H1357 C1339 0.929 . S
H1358 C1340 0.928 . S
H1359 C1342 0.932 . S
C1360 C1361 1.264 . S
C1360 C1365 1.479 . S
C1360 C1370 1.465 . S
C1361 C1360 1.264 . S
C1361 C1363 1.339 . S
C1361 H1388 0.931 . S
C1362 C1363 1.395 . S
C1362 C1364 1.320 . S
C1363 C1361 1.339 . S
C1363 C1362 1.395 . S
C1363 H1389 0.929 . S
C1364 C1362 1.320 . S
C1364 C1365 1.405 . S
C1364 H1390 0.930 . S
C1365 C1360 1.479 . S
C1365 C1364 1.405 . S
C1365 H1391 0.931 . S
U1366 O1367 2.454 . S
U1366 O1368 2.458 . S
U1366 C1369 2.984 . S
U1366 C1370 2.847 . S
U1366 C1383 2.882 . S
U1366 O1384 2.441 . S
U1366 O1385 2.420 . S
U1366 O1386 2.455 . S
U1366 O1387 2.449 . S
O1367 U1366 2.454 . S
O1367 C1369 1.353 . S
O1368 U1366 2.458 . S
O1368 C1369 1.286 . S
C1369 U1366 2.984 . S
C1369 O1367 1.353 . S
C1369 O1368 1.286 . S
C1369 C1371 1.363 . S
C1370 C1360 1.465 . S
C1370 U1366 2.847 . S
C1370 O1384 1.249 . S
C1370 O1385 1.202 . S
C1371 C1369 1.363 . S
C1371 C1373 1.408 . S
C1371 C1376 1.342 . S
C1372 C1373 1.310 . S
C1372 C1375 1.461 . S
C1372 H1392 0.932 . S
C1373 C1371 1.408 . S
C1373 C1372 1.310 . S
C1373 H1393 0.930 . S
C1374 C1375 1.474 . S
C1374 C1376 1.285 . S
C1374 H1394 0.929 . S
C1375 C1372 1.461 . S
C1375 C1374 1.474 . S
C1376 C1371 1.342 . S
C1376 C1374 1.285 . S
C1376 H1395 0.930 . S
C1377 C1380 1.424 . S
C1377 C1382 1.245 . S
C1377 C1383 1.428 . S
C1378 C1381 1.260 . S
C1378 C1382 1.477 . S
C1378 H1396 0.932 . S
C1379 C1380 1.384 . S
C1379 C1381 1.479 . S
C1379 H1397 0.929 . S
C1380 C1377 1.424 . S
C1380 C1379 1.384 . S
C1380 H1398 0.928 . S
C1381 C1378 1.260 . S
C1381 C1379 1.479 . S
C1382 C1377 1.245 . S
C1382 C1378 1.477 . S
C1382 H1399 0.932 . S
C1383 U1366 2.882 . S
C1383 C1377 1.428 . S
C1383 O1386 1.301 . S
C1383 O1387 1.282 . S
O1384 U1366 2.441 . S
O1384 C1370 1.249 . S
O1385 U1366 2.420 . S
O1385 C1370 1.202 . S
O1386 U1366 2.455 . S
O1386 C1383 1.301 . S
O1387 U1366 2.449 . S
O1387 C1383 1.282 . S
H1388 C1361 0.931 . S
H1389 C1363 0.929 . S
H1390 C1364 0.930 . S
H1391 C1365 0.931 . S
H1392 C1372 0.932 . S
H1393 C1373 0.930 . S
H1394 C1374 0.929 . S
H1395 C1376 0.930 . S
H1396 C1378 0.932 . S
H1397 C1379 0.929 . S
H1398 C1380 0.928 . S
H1399 C1382 0.932 . S
C1400 C1401 1.264 . S
C1400 C1405 1.479 . S
C1400 C1410 1.465 . S
C1401 C1400 1.264 . S
C1401 C1403 1.339 . S
C1401 H1428 0.931 . S
C1402 C1403 1.395 1_556 S
C1402 C1404 1.301 1_556 S
C1403 C1401 1.339 . S
C1403 C1402 1.395 1_554 S
C1403 H1429 0.929 1_554 S
C1404 C1402 1.301 1_554 S
C1404 C1405 1.448 . S
C1404 H1430 0.907 1_554 S
C1405 C1400 1.479 . S
C1405 C1404 1.448 . S
C1405 H1431 0.931 . S
U1406 O1407 2.454 . S
U1406 O1408 2.458 . S
U1406 C1409 2.984 . S
U1406 C1410 2.847 . S
U1406 C1423 2.882 . S
U1406 O1424 2.441 . S
U1406 O1425 2.420 . S
U1406 O1426 2.455 . S
U1406 O1427 2.449 . S
O1407 U1406 2.454 . S
O1407 C1409 1.353 . S
O1408 U1406 2.458 . S
O1408 C1409 1.286 . S
C1409 U1406 2.984 . S
C1409 O1407 1.353 . S
C1409 O1408 1.286 . S
C1409 C1411 1.363 . S
C1410 C1400 1.465 . S
C1410 U1406 2.847 . S
C1410 O1424 1.249 . S
C1410 O1425 1.202 . S
C1411 C1409 1.363 . S
C1411 C1413 1.408 . S
C1411 C1416 1.342 . S
C1412 C1413 1.310 . S
C1412 C1415 1.461 . S
C1412 H1432 0.932 . S
C1413 C1411 1.408 . S
C1413 C1412 1.310 . S
C1413 H1433 0.930 . S
C1414 C1415 1.474 . S
C1414 C1416 1.285 . S
C1414 H1434 0.929 . S
C1415 C1412 1.461 . S
C1415 C1414 1.474 . S
C1416 C1411 1.342 . S
C1416 C1414 1.285 . S
C1416 H1435 0.930 . S
C1417 C1420 1.424 . S
C1417 C1422 1.245 . S
C1417 C1423 1.428 . S
C1418 C1421 1.260 . S
C1418 C1422 1.477 . S
C1418 H1436 0.932 . S
C1419 C1420 1.384 . S
C1419 C1421 1.479 . S
C1419 H1437 0.929 . S
C1420 C1417 1.424 . S
C1420 C1419 1.384 . S
C1420 H1438 0.928 . S
C1421 C1418 1.260 . S
C1421 C1419 1.479 . S
C1422 C1417 1.245 . S
C1422 C1418 1.477 . S
C1422 H1439 0.932 . S
C1423 U1406 2.882 . S
C1423 C1417 1.428 . S
C1423 O1426 1.301 . S
C1423 O1427 1.282 . S
O1424 U1406 2.441 . S
O1424 C1410 1.249 . S
O1425 U1406 2.420 . S
O1425 C1410 1.202 . S
O1426 U1406 2.455 . S
O1426 C1423 1.301 . S
O1427 U1406 2.449 . S
O1427 C1423 1.282 . S
H1428 C1401 0.931 . S
H1429 C1403 0.929 1_556 S
H1430 C1404 0.907 1_556 S
H1431 C1405 0.931 . S
H1432 C1412 0.932 . S
H1433 C1413 0.930 . S
H1434 C1414 0.929 . S
H1435 C1416 0.930 . S
H1436 C1418 0.932 . S
H1437 C1419 0.929 . S
H1438 C1420 0.928 . S
H1439 C1422 0.932 . S
C1440 C1441 1.264 . S
C1440 C1445 1.479 . S
C1440 C1450 1.465 . S
C1441 C1440 1.264 . S
C1441 C1443 1.339 . S
C1441 H1468 0.931 . S
C1442 C1443 1.395 . S
C1442 C1444 1.320 . S
C1443 C1441 1.339 . S
C1443 C1442 1.395 . S
C1443 H1469 0.929 . S
C1444 C1442 1.320 . S
C1444 C1445 1.405 . S
C1444 H1470 0.930 . S
C1445 C1440 1.479 . S
C1445 C1444 1.405 . S
C1445 H1471 0.931 . S
U1446 O1447 2.454 . S
U1446 O1448 2.458 . S
U1446 C1449 2.984 . S
U1446 C1450 2.847 . S
U1446 C1463 2.882 . S
U1446 O1464 2.441 . S
U1446 O1465 2.420 . S
U1446 O1466 2.455 . S
U1446 O1467 2.449 . S
O1447 U1446 2.454 . S
O1447 C1449 1.353 . S
O1448 U1446 2.458 . S
O1448 C1449 1.286 . S
C1449 U1446 2.984 . S
C1449 O1447 1.353 . S
C1449 O1448 1.286 . S
C1449 C1451 1.363 . S
C1450 C1440 1.465 . S
C1450 U1446 2.847 . S
C1450 O1464 1.249 . S
C1450 O1465 1.202 . S
C1451 C1449 1.363 . S
C1451 C1453 1.408 . S
C1451 C1456 1.342 . S
C1452 C1453 1.310 . S
C1452 C1455 1.461 . S
C1452 H1472 0.932 . S
C1453 C1451 1.408 . S
C1453 C1452 1.310 . S
C1453 H1473 0.930 . S
C1454 C1455 1.474 . S
C1454 C1456 1.285 . S
C1454 H1474 0.929 . S
C1455 C1452 1.461 . S
C1455 C1454 1.474 . S
C1456 C1451 1.342 . S
C1456 C1454 1.285 . S
C1456 H1475 0.930 . S
C1457 C1460 1.424 . S
C1457 C1462 1.245 . S
C1457 C1463 1.428 . S
C1458 C1461 1.260 . S
C1458 C1462 1.477 . S
C1458 H1476 0.932 . S
C1459 C1460 1.384 . S
C1459 C1461 1.479 . S
C1459 H1477 0.929 . S
C1460 C1457 1.424 . S
C1460 C1459 1.384 . S
C1460 H1478 0.928 . S
C1461 C1458 1.260 . S
C1461 C1459 1.479 . S
C1462 C1457 1.245 . S
C1462 C1458 1.477 . S
C1462 H1479 0.932 . S
C1463 U1446 2.882 . S
C1463 C1457 1.428 . S
C1463 O1466 1.301 . S
C1463 O1467 1.282 . S
O1464 U1446 2.441 . S
O1464 C1450 1.249 . S
O1465 U1446 2.420 . S
O1465 C1450 1.202 . S
O1466 U1446 2.455 . S
O1466 C1463 1.301 . S
O1467 U1446 2.449 . S
O1467 C1463 1.282 . S
H1468 C1441 0.931 . S
H1469 C1443 0.929 . S
H1470 C1444 0.930 . S
H1471 C1445 0.931 . S
H1472 C1452 0.932 . S
H1473 C1453 0.930 . S
H1474 C1454 0.929 . S
H1475 C1456 0.930 . S
H1476 C1458 0.932 . S
H1477 C1459 0.929 . S
H1478 C1460 0.928 . S
H1479 C1462 0.932 . S
C1480 C1481 1.264 . S
C1480 C1485 1.479 . S
C1480 C1490 1.465 . S
C1481 C1480 1.264 . S
C1481 C1483 1.339 . S
C1481 H1508 0.931 . S
C1482 C1483 1.395 . S
C1482 C1484 1.320 . S
C1483 C1481 1.339 . S
C1483 C1482 1.395 . S
C1483 H1509 0.929 . S
C1484 C1482 1.320 . S
C1484 C1485 1.405 . S
C1484 H1510 0.930 . S
C1485 C1480 1.479 . S
C1485 C1484 1.405 . S
C1485 H1511 0.931 . S
U1486 O1487 2.454 . S
U1486 O1488 2.458 . S
U1486 C1489 2.984 . S
U1486 C1490 2.847 . S
U1486 C1503 2.882 . S
U1486 O1504 2.441 . S
U1486 O1505 2.420 . S
U1486 O1506 2.455 . S
U1486 O1507 2.449 . S
O1487 U1486 2.454 . S
O1487 C1489 1.353 . S
O1488 U1486 2.458 . S
O1488 C1489 1.286 . S
C1489 U1486 2.984 . S
C1489 O1487 1.353 . S
C1489 O1488 1.286 . S
C1489 C1491 1.363 . S
C1490 C1480 1.465 . S
C1490 U1486 2.847 . S
C1490 O1504 1.249 . S
C1490 O1505 1.202 . S
C1491 C1489 1.363 . S
C1491 C1493 1.408 . S
C1491 C1496 1.342 . S
C1492 C1493 1.310 . S
C1492 C1495 1.461 . S
C1492 H1512 0.932 . S
C1493 C1491 1.408 . S
C1493 C1492 1.310 . S
C1493 H1513 0.930 . S
C1494 C1495 1.474 . S
C1494 C1496 1.285 . S
C1494 H1514 0.929 . S
C1495 C1492 1.461 . S
C1495 C1494 1.474 . S
C1496 C1491 1.342 . S
C1496 C1494 1.285 . S
C1496 H1515 0.930 . S
C1497 C1500 1.424 . S
C1497 C1502 1.245 . S
C1497 C1503 1.428 . S
C1498 C1501 1.260 . S
C1498 C1502 1.477 . S
C1498 H1516 0.932 . S
C1499 C1500 1.384 . S
C1499 C1501 1.479 . S
C1499 H1517 0.929 . S
C1500 C1497 1.424 . S
C1500 C1499 1.384 . S
C1500 H1518 0.928 . S
C1501 C1498 1.260 . S
C1501 C1499 1.479 . S
C1502 C1497 1.245 . S
C1502 C1498 1.477 . S
C1502 H1519 0.932 . S
C1503 U1486 2.882 . S
C1503 C1497 1.428 . S
C1503 O1506 1.301 . S
C1503 O1507 1.282 . S
O1504 U1486 2.441 . S
O1504 C1490 1.249 . S
O1505 U1486 2.420 . S
O1505 C1490 1.202 . S
O1506 U1486 2.455 . S
O1506 C1503 1.301 . S
O1507 U1486 2.449 . S
O1507 C1503 1.282 . S
H1508 C1481 0.931 . S
H1509 C1483 0.929 . S
H1510 C1484 0.930 . S
H1511 C1485 0.931 . S
H1512 C1492 0.932 . S
H1513 C1493 0.930 . S
H1514 C1494 0.929 . S
H1515 C1496 0.930 . S
H1516 C1498 0.932 . S
H1517 C1499 0.929 . S
H1518 C1500 0.928 . S
H1519 C1502 0.932 . S
C1520 C1521 1.264 . S
C1520 C1525 1.479 . S
C1520 C1530 1.465 . S
C1521 C1520 1.264 . S
C1521 C1523 1.339 . S
C1521 H1548 0.931 . S
C1522 C1523 1.395 . S
C1522 C1524 1.320 . S
C1523 C1521 1.339 . S
C1523 C1522 1.395 . S
C1523 H1549 0.929 . S
C1524 C1522 1.320 . S
C1524 C1525 1.405 . S
C1524 H1550 0.930 . S
C1525 C1520 1.479 . S
C1525 C1524 1.405 . S
C1525 H1551 0.931 . S
U1526 O1527 2.454 . S
U1526 O1528 2.458 . S
U1526 C1529 2.984 . S
U1526 C1530 2.847 . S
U1526 C1543 2.882 . S
U1526 O1544 2.441 . S
U1526 O1545 2.420 . S
U1526 O1546 2.455 . S
U1526 O1547 2.449 . S
O1527 U1526 2.454 . S
O1527 C1529 1.353 . S
O1528 U1526 2.458 . S
O1528 C1529 1.286 . S
C1529 U1526 2.984 . S
C1529 O1527 1.353 . S
C1529 O1528 1.286 . S
C1529 C1531 1.363 . S
C1530 C1520 1.465 . S
C1530 U1526 2.847 . S
C1530 O1544 1.249 . S
C1530 O1545 1.202 . S
C1531 C1529 1.363 . S
C1531 C1533 1.408 . S
C1531 C1536 1.342 . S
C1532 C1533 1.310 . S
C1532 C1535 1.461 . S
C1532 H1552 0.932 . S
C1533 C1531 1.408 . S
C1533 C1532 1.310 . S
C1533 H1553 0.930 . S
C1534 C1535 1.474 . S
C1534 C1536 1.285 . S
C1534 H1554 0.929 . S
C1535 C1532 1.461 . S
C1535 C1534 1.474 . S
C1536 C1531 1.342 . S
C1536 C1534 1.285 . S
C1536 H1555 0.930 . S
C1537 C1540 1.424 . S
C1537 C1542 1.245 . S
C1537 C1543 1.428 . S
C1538 C1541 1.260 . S
C1538 C1542 1.477 . S
C1538 H1556 0.932 . S
C1539 C1540 1.384 . S
C1539 C1541 1.479 . S
C1539 H1557 0.929 . S
C1540 C1537 1.424 . S
C1540 C1539 1.384 . S
C1540 H1558 0.928 . S
C1541 C1538 1.260 . S
C1541 C1539 1.479 . S
C1542 C1537 1.245 . S
C1542 C1538 1.477 . S
C1542 H1559 0.932 . S
C1543 U1526 2.882 . S
C1543 C1537 1.428 . S
C1543 O1546 1.301 . S
C1543 O1547 1.282 . S
O1544 U1526 2.441 . S
O1544 C1530 1.249 . S
O1545 U1526 2.420 . S
O1545 C1530 1.202 . S
O1546 U1526 2.455 . S
O1546 C1543 1.301 . S
O1547 U1526 2.449 . S
O1547 C1543 1.282 . S
H1548 C1521 0.931 . S
H1549 C1523 0.929 . S
H1550 C1524 0.930 . S
H1551 C1525 0.931 . S
H1552 C1532 0.932 . S
H1553 C1533 0.930 . S
H1554 C1534 0.929 . S
H1555 C1536 0.930 . S
H1556 C1538 0.932 . S
H1557 C1539 0.929 . S
H1558 C1540 0.928 . S
H1559 C1542 0.932 . S
C1560 C1561 1.264 . S
C1560 C1565 1.479 . S
C1560 C1570 1.465 . S
C1561 C1560 1.264 . S
C1561 C1563 1.339 . S
C1561 H1588 0.931 . S
C1562 C1563 1.395 1_554 S
C1562 C1564 1.301 1_554 S
C1563 C1561 1.339 . S
C1563 C1562 1.395 1_556 S
C1563 H1589 0.929 1_556 S
C1564 C1562 1.301 1_556 S
C1564 C1565 1.448 . S
C1564 H1590 0.907 1_556 S
C1565 C1560 1.479 . S
C1565 C1564 1.448 . S
C1565 H1591 0.931 . S
U1566 O1567 2.454 . S
U1566 O1568 2.458 . S
U1566 C1569 2.984 . S
U1566 C1570 2.847 . S
U1566 C1583 2.882 . S
U1566 O1584 2.441 . S
U1566 O1585 2.420 . S
U1566 O1586 2.455 . S
U1566 O1587 2.449 . S
O1567 U1566 2.454 . S
O1567 C1569 1.353 . S
O1568 U1566 2.458 . S
O1568 C1569 1.286 . S
C1569 U1566 2.984 . S
C1569 O1567 1.353 . S
C1569 O1568 1.286 . S
C1569 C1571 1.363 . S
C1570 C1560 1.465 . S
C1570 U1566 2.847 . S
C1570 O1584 1.249 . S
C1570 O1585 1.202 . S
C1571 C1569 1.363 . S
C1571 C1573 1.408 . S
C1571 C1576 1.342 . S
C1572 C1573 1.310 . S
C1572 C1575 1.461 . S
C1572 H1592 0.932 . S
C1573 C1571 1.408 . S
C1573 C1572 1.310 . S
C1573 H1593 0.930 . S
C1574 C1575 1.474 . S
C1574 C1576 1.285 . S
C1574 H1594 0.929 . S
C1575 C1572 1.461 . S
C1575 C1574 1.474 . S
C1576 C1571 1.342 . S
C1576 C1574 1.285 . S
C1576 H1595 0.930 . S
C1577 C1580 1.424 . S
C1577 C1582 1.245 . S
C1577 C1583 1.428 . S
C1578 C1581 1.260 . S
C1578 C1582 1.477 . S
C1578 H1596 0.932 . S
C1579 C1580 1.384 . S
C1579 C1581 1.479 . S
C1579 H1597 0.929 . S
C1580 C1577 1.424 . S
C1580 C1579 1.384 . S
C1580 H1598 0.928 . S
C1581 C1578 1.260 . S
C1581 C1579 1.479 . S
C1582 C1577 1.245 . S
C1582 C1578 1.477 . S
C1582 H1599 0.932 . S
C1583 U1566 2.882 . S
C1583 C1577 1.428 . S
C1583 O1586 1.301 . S
C1583 O1587 1.282 . S
O1584 U1566 2.441 . S
O1584 C1570 1.249 . S
O1585 U1566 2.420 . S
O1585 C1570 1.202 . S
O1586 U1566 2.455 . S
O1586 C1583 1.301 . S
O1587 U1566 2.449 . S
O1587 C1583 1.282 . S
H1588 C1561 0.931 . S
H1589 C1563 0.929 1_554 S
H1590 C1564 0.907 1_554 S
H1591 C1565 0.931 . S
H1592 C1572 0.932 . S
H1593 C1573 0.930 . S
H1594 C1574 0.929 . S
H1595 C1576 0.930 . S
H1596 C1578 0.932 . S
H1597 C1579 0.929 . S
H1598 C1580 0.928 . S
H1599 C1582 0.932 . S
C1600 C1601 1.264 . S
C1600 C1605 1.479 . S
C1600 C1610 1.465 . S
C1601 C1600 1.264 . S
C1601 C1603 1.339 . S
C1601 H1628 0.931 . S
C1602 C1603 1.395 . S
C1602 C1604 1.320 . S
C1603 C1601 1.339 . S
C1603 C1602 1.395 . S
C1603 H1629 0.929 . S
C1604 C1602 1.320 . S
C1604 C1605 1.405 . S
C1604 H1630 0.930 . S
C1605 C1600 1.479 . S
C1605 C1604 1.405 . S
C1605 H1631 0.931 . S
U1606 O1607 2.454 . S
U1606 O1608 2.458 . S
U1606 C1609 2.984 . S
U1606 C1610 2.847 . S
U1606 C1623 2.882 . S
U1606 O1624 2.441 . S
U1606 O1625 2.420 . S
U1606 O1626 2.455 . S
U1606 O1627 2.449 . S
O1607 U1606 2.454 . S
O1607 C1609 1.353 . S
O1608 U1606 2.458 . S
O1608 C1609 1.286 . S
C1609 U1606 2.984 . S
C1609 O1607 1.353 . S
C1609 O1608 1.286 . S
C1609 C1611 1.363 . S
C1610 C1600 1.465 . S
C1610 U1606 2.847 . S
C1610 O1624 1.249 . S
C1610 O1625 1.202 . S
C1611 C1609 1.363 . S
C1611 C1613 1.408 . S
C1611 C1616 1.342 . S
C1612 C1613 1.310 . S
C1612 C1615 1.461 . S
C1612 H1632 0.932 . S
C1613 C1611 1.408 . S
C1613 C1612 1.310 . S
C1613 H1633 0.930 . S
C1614 C1615 1.474 . S
C1614 C1616 1.285 . S
C1614 H1634 0.929 . S
C1615 C1612 1.461 . S
C1615 C1614 1.474 . S
C1616 C1611 1.342 . S
C1616 C1614 1.285 . S
C1616 H1635 0.930 . S
C1617 C1620 1.424 . S
C1617 C1622 1.245 . S
C1617 C1623 1.428 . S
C1618 C1621 1.260 . S
C1618 C1622 1.477 . S
C1618 H1636 0.932 . S
C1619 C1620 1.384 . S
C1619 C1621 1.479 . S
C1619 H1637 0.929 . S
C1620 C1617 1.424 . S
C1620 C1619 1.384 . S
C1620 H1638 0.928 . S
C1621 C1618 1.260 . S
C1621 C1619 1.479 . S
C1622 C1617 1.245 . S
C1622 C1618 1.477 . S
C1622 H1639 0.932 . S
C1623 U1606 2.882 . S
C1623 C1617 1.428 . S
C1623 O1626 1.301 . S
C1623 O1627 1.282 . S
O1624 U1606 2.441 . S
O1624 C1610 1.249 . S
O1625 U1606 2.420 . S
O1625 C1610 1.202 . S
O1626 U1606 2.455 . S
O1626 C1623 1.301 . S
O1627 U1606 2.449 . S
O1627 C1623 1.282 . S
H1628 C1601 0.931 . S
H1629 C1603 0.929 . S
H1630 C1604 0.930 . S
H1631 C1605 0.931 . S
H1632 C1612 0.932 . S
H1633 C1613 0.930 . S
H1634 C1614 0.929 . S
H1635 C1616 0.930 . S
H1636 C1618 0.932 . S
H1637 C1619 0.929 . S
H1638 C1620 0.928 . S
H1639 C1622 0.932 . S
C1640 C1641 1.264 . S
C1640 C1645 1.479 . S
C1640 C1650 1.465 . S
C1641 C1640 1.264 . S
C1641 C1643 1.339 . S
C1641 H1668 0.931 . S
C1642 C1643 1.395 . S
C1642 C1644 1.320 . S
C1643 C1641 1.339 . S
C1643 C1642 1.395 . S
C1643 H1669 0.929 . S
C1644 C1642 1.320 . S
C1644 C1645 1.405 . S
C1644 H1670 0.930 . S
C1645 C1640 1.479 . S
C1645 C1644 1.405 . S
C1645 H1671 0.931 . S
U1646 O1647 2.454 . S
U1646 O1648 2.458 . S
U1646 C1649 2.984 . S
U1646 C1650 2.847 . S
U1646 C1663 2.882 . S
U1646 O1664 2.441 . S
U1646 O1665 2.420 . S
U1646 O1666 2.455 . S
U1646 O1667 2.449 . S
O1647 U1646 2.454 . S
O1647 C1649 1.353 . S
O1648 U1646 2.458 . S
O1648 C1649 1.286 . S
C1649 U1646 2.984 . S
C1649 O1647 1.353 . S
C1649 O1648 1.286 . S
C1649 C1651 1.363 . S
C1650 C1640 1.465 . S
C1650 U1646 2.847 . S
C1650 O1664 1.249 . S
C1650 O1665 1.202 . S
C1651 C1649 1.363 . S
C1651 C1653 1.408 . S
C1651 C1656 1.342 . S
C1652 C1653 1.310 . S
C1652 C1655 1.461 . S
C1652 H1672 0.932 . S
C1653 C1651 1.408 . S
C1653 C1652 1.310 . S
C1653 H1673 0.930 . S
C1654 C1655 1.474 . S
C1654 C1656 1.285 . S
C1654 H1674 0.929 . S
C1655 C1652 1.461 . S
C1655 C1654 1.474 . S
C1656 C1651 1.342 . S
C1656 C1654 1.285 . S
C1656 H1675 0.930 . S
C1657 C1660 1.424 . S
C1657 C1662 1.245 . S
C1657 C1663 1.428 . S
C1658 C1661 1.260 . S
C1658 C1662 1.477 . S
C1658 H1676 0.932 . S
C1659 C1660 1.384 . S
C1659 C1661 1.479 . S
C1659 H1677 0.929 . S
C1660 C1657 1.424 . S
C1660 C1659 1.384 . S
C1660 H1678 0.928 . S
C1661 C1658 1.260 . S
C1661 C1659 1.479 . S
C1662 C1657 1.245 . S
C1662 C1658 1.477 . S
C1662 H1679 0.932 . S
C1663 U1646 2.882 . S
C1663 C1657 1.428 . S
C1663 O1666 1.301 . S
C1663 O1667 1.282 . S
O1664 U1646 2.441 . S
O1664 C1650 1.249 . S
O1665 U1646 2.420 . S
O1665 C1650 1.202 . S
O1666 U1646 2.455 . S
O1666 C1663 1.301 . S
O1667 U1646 2.449 . S
O1667 C1663 1.282 . S
H1668 C1641 0.931 . S
H1669 C1643 0.929 . S
H1670 C1644 0.930 . S
H1671 C1645 0.931 . S
H1672 C1652 0.932 . S
H1673 C1653 0.930 . S
H1674 C1654 0.929 . S
H1675 C1656 0.930 . S
H1676 C1658 0.932 . S
H1677 C1659 0.929 . S
H1678 C1660 0.928 . S
H1679 C1662 0.932 . S
C1680 C1681 1.264 . S
C1680 C1685 1.479 . S
C1680 C1690 1.465 . S
C1681 C1680 1.264 . S
C1681 C1683 1.339 . S
C1681 H1708 0.931 . S
C1682 C1683 1.395 . S
C1682 C1684 1.320 . S
C1683 C1681 1.339 . S
C1683 C1682 1.395 . S
C1683 H1709 0.929 . S
C1684 C1682 1.320 . S
C1684 C1685 1.405 . S
C1684 H1710 0.930 . S
C1685 C1680 1.479 . S
C1685 C1684 1.405 . S
C1685 H1711 0.931 . S
U1686 O1687 2.454 . S
U1686 O1688 2.458 . S
U1686 C1689 2.984 . S
U1686 C1690 2.847 . S
U1686 C1703 2.882 . S
U1686 O1704 2.441 . S
U1686 O1705 2.420 . S
U1686 O1706 2.455 . S
U1686 O1707 2.449 . S
O1687 U1686 2.454 . S
O1687 C1689 1.353 . S
O1688 U1686 2.458 . S
O1688 C1689 1.286 . S
C1689 U1686 2.984 . S
C1689 O1687 1.353 . S
C1689 O1688 1.286 . S
C1689 C1691 1.363 . S
C1690 C1680 1.465 . S
C1690 U1686 2.847 . S
C1690 O1704 1.249 . S
C1690 O1705 1.202 . S
C1691 C1689 1.363 . S
C1691 C1693 1.408 . S
C1691 C1696 1.342 . S
C1692 C1693 1.310 . S
C1692 C1695 1.461 . S
C1692 H1712 0.932 . S
C1693 C1691 1.408 . S
C1693 C1692 1.310 . S
C1693 H1713 0.930 . S
C1694 C1695 1.474 . S
C1694 C1696 1.285 . S
C1694 H1714 0.929 . S
C1695 C1692 1.461 . S
C1695 C1694 1.474 . S
C1696 C1691 1.342 . S
C1696 C1694 1.285 . S
C1696 H1715 0.930 . S
C1697 C1700 1.424 . S
C1697 C1702 1.245 . S
C1697 C1703 1.428 . S
C1698 C1701 1.260 . S
C1698 C1702 1.477 . S
C1698 H1716 0.932 . S
C1699 C1700 1.384 . S
C1699 C1701 1.479 . S
C1699 H1717 0.929 . S
C1700 C1697 1.424 . S
C1700 C1699 1.384 . S
C1700 H1718 0.928 . S
C1701 C1698 1.260 . S
C1701 C1699 1.479 . S
C1702 C1697 1.245 . S
C1702 C1698 1.477 . S
C1702 H1719 0.932 . S
C1703 U1686 2.882 . S
C1703 C1697 1.428 . S
C1703 O1706 1.301 . S
C1703 O1707 1.282 . S
O1704 U1686 2.441 . S
O1704 C1690 1.249 . S
O1705 U1686 2.420 . S
O1705 C1690 1.202 . S
O1706 U1686 2.455 . S
O1706 C1703 1.301 . S
O1707 U1686 2.449 . S
O1707 C1703 1.282 . S
H1708 C1681 0.931 . S
H1709 C1683 0.929 . S
H1710 C1684 0.930 . S
H1711 C1685 0.931 . S
H1712 C1692 0.932 . S
H1713 C1693 0.930 . S
H1714 C1694 0.929 . S
H1715 C1696 0.930 . S
H1716 C1698 0.932 . S
H1717 C1699 0.929 . S
H1718 C1700 0.928 . S
H1719 C1702 0.932 . S
C1720 C1721 1.264 . S
C1720 C1725 1.479 . S
C1720 C1730 1.465 . S
C1721 C1720 1.264 . S
C1721 C1723 1.339 . S
C1721 H1748 0.931 . S
C1722 C1723 1.395 . S
C1722 C1724 1.320 . S
C1723 C1721 1.339 . S
C1723 C1722 1.395 . S
C1723 H1749 0.929 . S
C1724 C1722 1.320 . S
C1724 C1725 1.405 . S
C1724 H1750 0.930 . S
C1725 C1720 1.479 . S
C1725 C1724 1.405 . S
C1725 H1751 0.931 . S
U1726 O1727 2.454 . S
U1726 O1728 2.458 . S
U1726 C1729 2.984 . S
U1726 C1730 2.847 . S
U1726 C1743 2.882 . S
U1726 O1744 2.441 . S
U1726 O1745 2.420 . S
U1726 O1746 2.455 . S
U1726 O1747 2.449 . S
O1727 U1726 2.454 . S
O1727 C1729 1.353 . S
O1728 U1726 2.458 . S
O1728 C1729 1.286 . S
C1729 U1726 2.984 . S
C1729 O1727 1.353 . S
C1729 O1728 1.286 . S
C1729 C1731 1.363 . S
C1730 C1720 1.465 . S
C1730 U1726 2.847 . S
C1730 O1744 1.249 . S
C1730 O1745 1.202 . S
C1731 C1729 1.363 . S
C1731 C1733 1.408 . S
C1731 C1736 1.342 . S
C1732 C1733 1.310 . S
C1732 C1735 1.461 . S
C1732 H1752 0.932 . S
C1733 C1731 1.408 . S
C1733 C1732 1.310 . S
C1733 H1753 0.930 . S
C1734 C1735 1.474 . S
C1734 C1736 1.285 . S
C1734 H1754 0.929 . S
C1735 C1732 1.461 . S
C1735 C1734 1.474 . S
C1736 C1731 1.342 . S
C1736 C1734 1.285 . S
C1736 H1755 0.930 . S
C1737 C1740 1.424 . S
C1737 C1742 1.245 . S
C1737 C1743 1.428 . S
C1738 C1741 1.260 . S
C1738 C1742 1.477 . S
C1738 H1756 0.932 . S
C1739 C1740 1.384 . S
C1739 C1741 1.479 . S
C1739 H1757 0.929 . S
C1740 C1737 1.424 . S
C1740 C1739 1.384 . S
C1740 H1758 0.928 . S
C1741 C1738 1.260 . S
C1741 C1739 1.479 . S
C1742 C1737 1.245 . S
C1742 C1738 1.477 . S
C1742 H1759 0.932 . S
C1743 U1726 2.882 . S
C1743 C1737 1.428 . S
C1743 O1746 1.301 . S
C1743 O1747 1.282 . S
O1744 U1726 2.441 . S
O1744 C1730 1.249 . S
O1745 U1726 2.420 . S
O1745 C1730 1.202 . S
O1746 U1726 2.455 . S
O1746 C1743 1.301 . S
O1747 U1726 2.449 . S
O1747 C1743 1.282 . S
H1748 C1721 0.931 . S
H1749 C1723 0.929 . S
H1750 C1724 0.930 . S
H1751 C1725 0.931 . S
H1752 C1732 0.932 . S
H1753 C1733 0.930 . S
H1754 C1734 0.929 . S
H1755 C1736 0.930 . S
H1756 C1738 0.932 . S
H1757 C1739 0.929 . S
H1758 C1740 0.928 . S
H1759 C1742 0.932 . S
C1760 C1761 1.264 . S
C1760 C1765 1.479 . S
C1760 C1770 1.465 . S
C1761 C1760 1.264 . S
C1761 C1763 1.339 . S
C1761 H1788 0.931 . S
C1762 C1763 1.395 1_545 S
C1762 C1764 1.301 1_545 S
C1763 C1761 1.339 . S
C1763 C1762 1.395 1_565 S
C1763 H1789 0.929 1_565 S
C1764 C1762 1.301 1_565 S
C1764 C1765 1.448 . S
C1764 H1790 0.907 1_565 S
C1765 C1760 1.479 . S
C1765 C1764 1.448 . S
C1765 H1791 0.931 . S
U1766 O1767 2.454 . S
U1766 O1768 2.458 . S
U1766 C1769 2.984 . S
U1766 C1770 2.847 . S
U1766 C1783 2.882 . S
U1766 O1784 2.441 . S
U1766 O1785 2.420 . S
U1766 O1786 2.455 . S
U1766 O1787 2.449 . S
O1767 U1766 2.454 . S
O1767 C1769 1.353 . S
O1768 U1766 2.458 . S
O1768 C1769 1.286 . S
C1769 U1766 2.984 . S
C1769 O1767 1.353 . S
C1769 O1768 1.286 . S
C1769 C1771 1.363 . S
C1770 C1760 1.465 . S
C1770 U1766 2.847 . S
C1770 O1784 1.249 . S
C1770 O1785 1.202 . S
C1771 C1769 1.363 . S
C1771 C1773 1.408 . S
C1771 C1776 1.342 . S
C1772 C1773 1.310 . S
C1772 C1775 1.461 . S
C1772 H1792 0.932 . S
C1773 C1771 1.408 . S
C1773 C1772 1.310 . S
C1773 H1793 0.930 . S
C1774 C1775 1.474 . S
C1774 C1776 1.285 . S
C1774 H1794 0.929 . S
C1775 C1772 1.461 . S
C1775 C1774 1.474 . S
C1776 C1771 1.342 . S
C1776 C1774 1.285 . S
C1776 H1795 0.930 . S
C1777 C1780 1.424 . S
C1777 C1782 1.245 . S
C1777 C1783 1.428 . S
C1778 C1781 1.260 . S
C1778 C1782 1.477 . S
C1778 H1796 0.932 . S
C1779 C1780 1.384 . S
C1779 C1781 1.479 . S
C1779 H1797 0.929 . S
C1780 C1777 1.424 . S
C1780 C1779 1.384 . S
C1780 H1798 0.928 . S
C1781 C1778 1.260 . S
C1781 C1779 1.479 . S
C1782 C1777 1.245 . S
C1782 C1778 1.477 . S
C1782 H1799 0.932 . S
C1783 U1766 2.882 . S
C1783 C1777 1.428 . S
C1783 O1786 1.301 . S
C1783 O1787 1.282 . S
O1784 U1766 2.441 . S
O1784 C1770 1.249 . S
O1785 U1766 2.420 . S
O1785 C1770 1.202 . S
O1786 U1766 2.455 . S
O1786 C1783 1.301 . S
O1787 U1766 2.449 . S
O1787 C1783 1.282 . S
H1788 C1761 0.931 . S
H1789 C1763 0.929 1_545 S
H1790 C1764 0.907 1_545 S
H1791 C1765 0.931 . S
H1792 C1772 0.932 . S
H1793 C1773 0.930 . S
H1794 C1774 0.929 . S
H1795 C1776 0.930 . S
H1796 C1778 0.932 . S
H1797 C1779 0.929 . S
H1798 C1780 0.928 . S
H1799 C1782 0.932 . S
C1800 C1801 1.264 . S
C1800 C1805 1.479 . S
C1800 C1810 1.465 . S
C1801 C1800 1.264 . S
C1801 C1803 1.339 . S
C1801 H1828 0.931 . S
C1802 C1803 1.395 . S
C1802 C1804 1.320 . S
C1803 C1801 1.339 . S
C1803 C1802 1.395 . S
C1803 H1829 0.929 . S
C1804 C1802 1.320 . S
C1804 C1805 1.405 . S
C1804 H1830 0.930 . S
C1805 C1800 1.479 . S
C1805 C1804 1.405 . S
C1805 H1831 0.931 . S
U1806 O1807 2.454 . S
U1806 O1808 2.458 . S
U1806 C1809 2.984 . S
U1806 C1810 2.847 . S
U1806 C1823 2.882 . S
U1806 O1824 2.441 . S
U1806 O1825 2.420 . S
U1806 O1826 2.455 . S
U1806 O1827 2.449 . S
O1807 U1806 2.454 . S
O1807 C1809 1.353 . S
O1808 U1806 2.458 . S
O1808 C1809 1.286 . S
C1809 U1806 2.984 . S
C1809 O1807 1.353 . S
C1809 O1808 1.286 . S
C1809 C1811 1.363 . S
C1810 C1800 1.465 . S
C1810 U1806 2.847 . S
C1810 O1824 1.249 . S
C1810 O1825 1.202 . S
C1811 C1809 1.363 . S
C1811 C1813 1.408 . S
C1811 C1816 1.342 . S
C1812 C1813 1.310 . S
C1812 C1815 1.461 . S
C1812 H1832 0.932 . S
C1813 C1811 1.408 . S
C1813 C1812 1.310 . S
C1813 H1833 0.930 . S
C1814 C1815 1.474 . S
C1814 C1816 1.285 . S
C1814 H1834 0.929 . S
C1815 C1812 1.461 . S
C1815 C1814 1.474 . S
C1816 C1811 1.342 . S
C1816 C1814 1.285 . S
C1816 H1835 0.930 . S
C1817 C1820 1.424 . S
C1817 C1822 1.245 . S
C1817 C1823 1.428 . S
C1818 C1821 1.260 . S
C1818 C1822 1.477 . S
C1818 H1836 0.932 . S
C1819 C1820 1.384 . S
C1819 C1821 1.479 . S
C1819 H1837 0.929 . S
C1820 C1817 1.424 . S
C1820 C1819 1.384 . S
C1820 H1838 0.928 . S
C1821 C1818 1.260 . S
C1821 C1819 1.479 . S
C1822 C1817 1.245 . S
C1822 C1818 1.477 . S
C1822 H1839 0.932 . S
C1823 U1806 2.882 . S
C1823 C1817 1.428 . S
C1823 O1826 1.301 . S
C1823 O1827 1.282 . S
O1824 U1806 2.441 . S
O1824 C1810 1.249 . S
O1825 U1806 2.420 . S
O1825 C1810 1.202 . S
O1826 U1806 2.455 . S
O1826 C1823 1.301 . S
O1827 U1806 2.449 . S
O1827 C1823 1.282 . S
H1828 C1801 0.931 . S
H1829 C1803 0.929 . S
H1830 C1804 0.930 . S
H1831 C1805 0.931 . S
H1832 C1812 0.932 . S
H1833 C1813 0.930 . S
H1834 C1814 0.929 . S
H1835 C1816 0.930 . S
H1836 C1818 0.932 . S
H1837 C1819 0.929 . S
H1838 C1820 0.928 . S
H1839 C1822 0.932 . S
C1840 C1841 1.264 . S
C1840 C1845 1.479 . S
C1840 C1850 1.465 . S
C1841 C1840 1.264 . S
C1841 C1843 1.339 . S
C1841 H1868 0.931 . S
C1842 C1843 1.395 . S
C1842 C1844 1.320 . S
C1843 C1841 1.339 . S
C1843 C1842 1.395 . S
C1843 H1869 0.929 . S
C1844 C1842 1.320 . S
C1844 C1845 1.405 . S
C1844 H1870 0.930 . S
C1845 C1840 1.479 . S
C1845 C1844 1.405 . S
C1845 H1871 0.931 . S
U1846 O1847 2.454 . S
U1846 O1848 2.458 . S
U1846 C1849 2.984 . S
U1846 C1850 2.847 . S
U1846 C1863 2.882 . S
U1846 O1864 2.441 . S
U1846 O1865 2.420 . S
U1846 O1866 2.455 . S
U1846 O1867 2.449 . S
O1847 U1846 2.454 . S
O1847 C1849 1.353 . S
O1848 U1846 2.458 . S
O1848 C1849 1.286 . S
C1849 U1846 2.984 . S
C1849 O1847 1.353 . S
C1849 O1848 1.286 . S
C1849 C1851 1.363 . S
C1850 C1840 1.465 . S
C1850 U1846 2.847 . S
C1850 O1864 1.249 . S
C1850 O1865 1.202 . S
C1851 C1849 1.363 . S
C1851 C1853 1.408 . S
C1851 C1856 1.342 . S
C1852 C1853 1.310 . S
C1852 C1855 1.461 . S
C1852 H1872 0.932 . S
C1853 C1851 1.408 . S
C1853 C1852 1.310 . S
C1853 H1873 0.930 . S
C1854 C1855 1.474 . S
C1854 C1856 1.285 . S
C1854 H1874 0.929 . S
C1855 C1852 1.461 . S
C1855 C1854 1.474 . S
C1856 C1851 1.342 . S
C1856 C1854 1.285 . S
C1856 H1875 0.930 . S
C1857 C1860 1.424 . S
C1857 C1862 1.245 . S
C1857 C1863 1.428 . S
C1858 C1861 1.260 . S
C1858 C1862 1.477 . S
C1858 H1876 0.932 . S
C1859 C1860 1.384 . S
C1859 C1861 1.479 . S
C1859 H1877 0.929 . S
C1860 C1857 1.424 . S
C1860 C1859 1.384 . S
C1860 H1878 0.928 . S
C1861 C1858 1.260 . S
C1861 C1859 1.479 . S
C1862 C1857 1.245 . S
C1862 C1858 1.477 . S
C1862 H1879 0.932 . S
C1863 U1846 2.882 . S
C1863 C1857 1.428 . S
C1863 O1866 1.301 . S
C1863 O1867 1.282 . S
O1864 U1846 2.441 . S
O1864 C1850 1.249 . S
O1865 U1846 2.420 . S
O1865 C1850 1.202 . S
O1866 U1846 2.455 . S
O1866 C1863 1.301 . S
O1867 U1846 2.449 . S
O1867 C1863 1.282 . S
H1868 C1841 0.931 . S
H1869 C1843 0.929 . S
H1870 C1844 0.930 . S
H1871 C1845 0.931 . S
H1872 C1852 0.932 . S
H1873 C1853 0.930 . S
H1874 C1854 0.929 . S
H1875 C1856 0.930 . S
H1876 C1858 0.932 . S
H1877 C1859 0.929 . S
H1878 C1860 0.928 . S
H1879 C1862 0.932 . S
C1880 C1881 1.264 . S
C1880 C1885 1.479 . S
C1880 C1890 1.465 . S
C1881 C1880 1.264 . S
C1881 C1883 1.339 . S
C1881 H1908 0.931 . S
C1882 C1883 1.395 . S
C1882 C1884 1.320 . S
C1883 C1881 1.339 . S
C1883 C1882 1.395 . S
C1883 H1909 0.929 . S
C1884 C1882 1.320 . S
C1884 C1885 1.405 . S
C1884 H1910 0.930 . S
C1885 C1880 1.479 . S
C1885 C1884 1.405 . S
C1885 H1911 0.931 . S
U1886 O1887 2.454 . S
U1886 O1888 2.458 . S
U1886 C1889 2.984 . S
U1886 C1890 2.847 . S
U1886 C1903 2.882 . S
U1886 O1904 2.441 . S
U1886 O1905 2.420 . S
U1886 O1906 2.455 . S
U1886 O1907 2.449 . S
O1887 U1886 2.454 . S
O1887 C1889 1.353 . S
O1888 U1886 2.458 . S
O1888 C1889 1.286 . S
C1889 U1886 2.984 . S
C1889 O1887 1.353 . S
C1889 O1888 1.286 . S
C1889 C1891 1.363 . S
C1890 C1880 1.465 . S
C1890 U1886 2.847 . S
C1890 O1904 1.249 . S
C1890 O1905 1.202 . S
C1891 C1889 1.363 . S
C1891 C1893 1.408 . S
C1891 C1896 1.342 . S
C1892 C1893 1.310 . S
C1892 C1895 1.461 . S
C1892 H1912 0.932 . S
C1893 C1891 1.408 . S
C1893 C1892 1.310 . S
C1893 H1913 0.930 . S
C1894 C1895 1.474 . S
C1894 C1896 1.285 . S
C1894 H1914 0.929 . S
C1895 C1892 1.461 . S
C1895 C1894 1.474 . S
C1896 C1891 1.342 . S
C1896 C1894 1.285 . S
C1896 H1915 0.930 . S
C1897 C1900 1.424 . S
C1897 C1902 1.245 . S
C1897 C1903 1.428 . S
C1898 C1901 1.260 . S
C1898 C1902 1.477 . S
C1898 H1916 0.932 . S
C1899 C1900 1.384 . S
C1899 C1901 1.479 . S
C1899 H1917 0.929 . S
C1900 C1897 1.424 . S
C1900 C1899 1.384 . S
C1900 H1918 0.928 . S
C1901 C1898 1.260 . S
C1901 C1899 1.479 . S
C1902 C1897 1.245 . S
C1902 C1898 1.477 . S
C1902 H1919 0.932 . S
C1903 U1886 2.882 . S
C1903 C1897 1.428 . S
C1903 O1906 1.301 . S
C1903 O1907 1.282 . S
O1904 U1886 2.441 . S
O1904 C1890 1.249 . S
O1905 U1886 2.420 . S
O1905 C1890 1.202 . S
O1906 U1886 2.455 . S
O1906 C1903 1.301 . S
O1907 U1886 2.449 . S
O1907 C1903 1.282 . S
H1908 C1881 0.931 . S
H1909 C1883 0.929 . S
H1910 C1884 0.930 . S
H1911 C1885 0.931 . S
H1912 C1892 0.932 . S
H1913 C1893 0.930 . S
H1914 C1894 0.929 . S
H1915 C1896 0.930 . S
H1916 C1898 0.932 . S
H1917 C1899 0.929 . S
H1918 C1900 0.928 . S
H1919 C1902 0.932 . S
C1920 C1921 1.264 . S
C1920 C1925 1.479 . S
C1920 C1930 1.465 . S
C1921 C1920 1.264 . S
C1921 C1923 1.339 . S
C1921 H1948 0.931 . S
C1922 C1923 1.395 . S
C1922 C1924 1.320 . S
C1923 C1921 1.339 . S
C1923 C1922 1.395 . S
C1923 H1949 0.929 . S
C1924 C1922 1.320 . S
C1924 C1925 1.405 . S
C1924 H1950 0.930 . S
C1925 C1920 1.479 . S
C1925 C1924 1.405 . S
C1925 H1951 0.931 . S
U1926 O1927 2.454 . S
U1926 O1928 2.458 . S
U1926 C1929 2.984 . S
U1926 C1930 2.847 . S
U1926 C1943 2.882 . S
U1926 O1944 2.441 . S
U1926 O1945 2.420 . S
U1926 O1946 2.455 . S
U1926 O1947 2.449 . S
O1927 U1926 2.454 . S
O1927 C1929 1.353 . S
O1928 U1926 2.458 . S
O1928 C1929 1.286 . S
C1929 U1926 2.984 . S
C1929 O1927 1.353 . S
C1929 O1928 1.286 . S
C1929 C1931 1.363 . S
C1930 C1920 1.465 . S
C1930 U1926 2.847 . S
C1930 O1944 1.249 . S
C1930 O1945 1.202 . S
C1931 C1929 1.363 . S
C1931 C1933 1.408 . S
C1931 C1936 1.342 . S
C1932 C1933 1.310 . S
C1932 C1935 1.461 . S
C1932 H1952 0.932 . S
C1933 C1931 1.408 . S
C1933 C1932 1.310 . S
C1933 H1953 0.930 . S
C1934 C1935 1.474 . S
C1934 C1936 1.285 . S
C1934 H1954 0.929 . S
C1935 C1932 1.461 . S
C1935 C1934 1.474 . S
C1936 C1931 1.342 . S
C1936 C1934 1.285 . S
C1936 H1955 0.930 . S
C1937 C1940 1.424 . S
C1937 C1942 1.245 . S
C1937 C1943 1.428 . S
C1938 C1941 1.260 . S
C1938 C1942 1.477 . S
C1938 H1956 0.932 . S
C1939 C1940 1.384 . S
C1939 C1941 1.479 . S
C1939 H1957 0.929 . S
C1940 C1937 1.424 . S
C1940 C1939 1.384 . S
C1940 H1958 0.928 . S
C1941 C1938 1.260 . S
C1941 C1939 1.479 . S
C1942 C1937 1.245 . S
C1942 C1938 1.477 . S
C1942 H1959 0.932 . S
C1943 U1926 2.882 . S
C1943 C1937 1.428 . S
C1943 O1946 1.301 . S
C1943 O1947 1.282 . S
O1944 U1926 2.441 . S
O1944 C1930 1.249 . S
O1945 U1926 2.420 . S
O1945 C1930 1.202 . S
O1946 U1926 2.455 . S
O1946 C1943 1.301 . S
O1947 U1926 2.449 . S
O1947 C1943 1.282 . S
H1948 C1921 0.931 . S
H1949 C1923 0.929 . S
H1950 C1924 0.930 . S
H1951 C1925 0.931 . S
H1952 C1932 0.932 . S
H1953 C1933 0.930 . S
H1954 C1934 0.929 . S
H1955 C1936 0.930 . S
H1956 C1938 0.932 . S
H1957 C1939 0.929 . S
H1958 C1940 0.928 . S
H1959 C1942 0.932 . S
C1960 C1961 1.264 . S
C1960 C1965 1.479 . S
C1960 C1970 1.465 . S
C1961 C1960 1.264 . S
C1961 C1963 1.339 . S
C1961 H1988 0.931 . S
C1962 C1963 1.395 . S
C1962 C1964 1.320 . S
C1963 C1961 1.339 . S
C1963 C1962 1.395 . S
C1963 H1989 0.929 . S
C1964 C1962 1.320 . S
C1964 C1965 1.405 . S
C1964 H1990 0.930 . S
C1965 C1960 1.479 . S
C1965 C1964 1.405 . S
C1965 H1991 0.931 . S
U1966 O1967 2.454 . S
U1966 O1968 2.458 . S
U1966 C1969 2.984 . S
U1966 C1970 2.847 . S
U1966 C1983 2.882 . S
U1966 O1984 2.441 . S
U1966 O1985 2.420 . S
U1966 O1986 2.455 . S
U1966 O1987 2.449 . S
O1967 U1966 2.454 . S
O1967 C1969 1.353 . S
O1968 U1966 2.458 . S
O1968 C1969 1.286 . S
C1969 U1966 2.984 . S
C1969 O1967 1.353 . S
C1969 O1968 1.286 . S
C1969 C1971 1.363 . S
C1970 C1960 1.465 . S
C1970 U1966 2.847 . S
C1970 O1984 1.249 . S
C1970 O1985 1.202 . S
C1971 C1969 1.363 . S
C1971 C1973 1.408 . S
C1971 C1976 1.342 . S
C1972 C1973 1.310 . S
C1972 C1975 1.461 . S
C1972 H1992 0.932 . S
C1973 C1971 1.408 . S
C1973 C1972 1.310 . S
C1973 H1993 0.930 . S
C1974 C1975 1.474 . S
C1974 C1976 1.285 . S
C1974 H1994 0.929 . S
C1975 C1972 1.461 . S
C1975 C1974 1.474 . S
C1976 C1971 1.342 . S
C1976 C1974 1.285 . S
C1976 H1995 0.930 . S
C1977 C1980 1.424 . S
C1977 C1982 1.245 . S
C1977 C1983 1.428 . S
C1978 C1981 1.260 . S
C1978 C1982 1.477 . S
C1978 H1996 0.932 . S
C1979 C1980 1.384 . S
C1979 C1981 1.479 . S
C1979 H1997 0.929 . S
C1980 C1977 1.424 . S
C1980 C1979 1.384 . S
C1980 H1998 0.928 . S
C1981 C1978 1.260 . S
C1981 C1979 1.479 . S
C1982 C1977 1.245 . S
C1982 C1978 1.477 . S
C1982 H1999 0.932 . S
C1983 U1966 2.882 . S
C1983 C1977 1.428 . S
C1983 O1986 1.301 . S
C1983 O1987 1.282 . S
O1984 U1966 2.441 . S
O1984 C1970 1.249 . S
O1985 U1966 2.420 . S
O1985 C1970 1.202 . S
O1986 U1966 2.455 . S
O1986 C1983 1.301 . S
O1987 U1966 2.449 . S
O1987 C1983 1.282 . S
H1988 C1961 0.931 . S
H1989 C1963 0.929 . S
H1990 C1964 0.930 . S
H1991 C1965 0.931 . S
H1992 C1972 0.932 . S
H1993 C1973 0.930 . S
H1994 C1974 0.929 . S
H1995 C1976 0.930 . S
H1996 C1978 0.932 . S
H1997 C1979 0.929 . S
H1998 C1980 0.928 . S
H1999 C1982 0.932 . S
C2000 C2001 1.264 . S
C2000 C2005 1.479 . S
C2000 C2010 1.465 . S
C2001 C2000 1.264 . S
C2001 C2003 1.339 . S
C2001 H2028 0.931 . S
C2002 C2003 1.395 . S
C2002 C2004 1.320 . S
C2003 C2001 1.339 . S
C2003 C2002 1.395 . S
C2003 H2029 0.929 . S
C2004 C2002 1.320 . S
C2004 C2005 1.405 . S
C2004 H2030 0.930 . S
C2005 C2000 1.479 . S
C2005 C2004 1.405 . S
C2005 H2031 0.931 . S
U2006 O2007 2.454 . S
U2006 O2008 2.458 . S
U2006 C2009 2.984 . S
U2006 C2010 2.847 . S
U2006 C2023 2.882 . S
U2006 O2024 2.441 . S
U2006 O2025 2.420 . S
U2006 O2026 2.455 . S
U2006 O2027 2.449 . S
O2007 U2006 2.454 . S
O2007 C2009 1.353 . S
O2008 U2006 2.458 . S
O2008 C2009 1.286 . S
C2009 U2006 2.984 . S
C2009 O2007 1.353 . S
C2009 O2008 1.286 . S
C2009 C2011 1.363 . S
C2010 C2000 1.465 . S
C2010 U2006 2.847 . S
C2010 O2024 1.249 . S
C2010 O2025 1.202 . S
C2011 C2009 1.363 . S
C2011 C2013 1.408 . S
C2011 C2016 1.342 . S
C2012 C2013 1.310 . S
C2012 C2015 1.461 . S
C2012 H2032 0.932 . S
C2013 C2011 1.408 . S
C2013 C2012 1.310 . S
C2013 H2033 0.930 . S
C2014 C2015 1.474 . S
C2014 C2016 1.285 . S
C2014 H2034 0.929 . S
C2015 C2012 1.461 . S
C2015 C2014 1.474 . S
C2016 C2011 1.342 . S
C2016 C2014 1.285 . S
C2016 H2035 0.930 . S
C2017 C2020 1.424 . S
C2017 C2022 1.245 . S
C2017 C2023 1.428 . S
C2018 C2021 1.260 . S
C2018 C2022 1.477 . S
C2018 H2036 0.932 . S
C2019 C2020 1.384 . S
C2019 C2021 1.479 . S
C2019 H2037 0.929 . S
C2020 C2017 1.424 . S
C2020 C2019 1.384 . S
C2020 H2038 0.928 . S
C2021 C2018 1.260 . S
C2021 C2019 1.479 . S
C2022 C2017 1.245 . S
C2022 C2018 1.477 . S
C2022 H2039 0.932 . S
C2023 U2006 2.882 . S
C2023 C2017 1.428 . S
C2023 O2026 1.301 . S
C2023 O2027 1.282 . S
O2024 U2006 2.441 . S
O2024 C2010 1.249 . S
O2025 U2006 2.420 . S
O2025 C2010 1.202 . S
O2026 U2006 2.455 . S
O2026 C2023 1.301 . S
O2027 U2006 2.449 . S
O2027 C2023 1.282 . S
H2028 C2001 0.931 . S
H2029 C2003 0.929 . S
H2030 C2004 0.930 . S
H2031 C2005 0.931 . S
H2032 C2012 0.932 . S
H2033 C2013 0.930 . S
H2034 C2014 0.929 . S
H2035 C2016 0.930 . S
H2036 C2018 0.932 . S
H2037 C2019 0.929 . S
H2038 C2020 0.928 . S
H2039 C2022 0.932 . S
C2040 C2041 1.264 . S
C2040 C2045 1.479 . S
C2040 C2050 1.465 . S
C2041 C2040 1.264 . S
C2041 C2043 1.339 1_655 S
C2041 H2068 0.931 . S
C2042 C2043 1.395 . S
C2042 C2044 1.354 . S
C2043 C2041 1.339 1_455 S
C2043 C2042 1.395 . S
C2043 H2069 0.929 . S
C2044 C2042 1.354 . S
C2044 C2045 1.351 1_455 S
C2044 H2070 0.956 . S
C2045 C2040 1.479 . S
C2045 C2044 1.351 1_655 S
C2045 H2071 0.931 . S
U2046 O2047 2.454 . S
U2046 O2048 2.458 . S
U2046 C2049 2.984 . S
U2046 C2050 2.847 . S
U2046 C2063 2.882 . S
U2046 O2064 2.441 . S
U2046 O2065 2.420 . S
U2046 O2066 2.455 . S
U2046 O2067 2.449 . S
O2047 U2046 2.454 . S
O2047 C2049 1.353 . S
O2048 U2046 2.458 . S
O2048 C2049 1.286 . S
C2049 U2046 2.984 . S
C2049 O2047 1.353 . S
C2049 O2048 1.286 . S
C2049 C2051 1.363 . S
C2050 C2040 1.465 . S
C2050 U2046 2.847 . S
C2050 O2064 1.249 . S
C2050 O2065 1.202 . S
C2051 C2049 1.363 . S
C2051 C2053 1.408 . S
C2051 C2056 1.342 . S
C2052 C2053 1.310 . S
C2052 C2055 1.461 . S
C2052 H2072 0.932 . S
C2053 C2051 1.408 . S
C2053 C2052 1.310 . S
C2053 H2073 0.930 . S
C2054 C2055 1.474 . S
C2054 C2056 1.285 . S
C2054 H2074 0.929 . S
C2055 C2052 1.461 . S
C2055 C2054 1.474 . S
C2056 C2051 1.342 . S
C2056 C2054 1.285 . S
C2056 H2075 0.930 . S
C2057 C2060 1.424 . S
C2057 C2062 1.245 . S
C2057 C2063 1.428 . S
C2058 C2061 1.260 . S
C2058 C2062 1.477 . S
C2058 H2076 0.932 . S
C2059 C2060 1.384 . S
C2059 C2061 1.479 . S
C2059 H2077 0.929 . S
C2060 C2057 1.424 . S
C2060 C2059 1.384 . S
C2060 H2078 0.928 . S
C2061 C2058 1.260 . S
C2061 C2059 1.479 . S
C2062 C2057 1.245 . S
C2062 C2058 1.477 . S
C2062 H2079 0.932 . S
C2063 U2046 2.882 . S
C2063 C2057 1.428 . S
C2063 O2066 1.301 . S
C2063 O2067 1.282 . S
O2064 U2046 2.441 . S
O2064 C2050 1.249 . S
O2065 U2046 2.420 . S
O2065 C2050 1.202 . S
O2066 U2046 2.455 . S
O2066 C2063 1.301 . S
O2067 U2046 2.449 . S
O2067 C2063 1.282 . S
H2068 C2041 0.931 . S
H2069 C2043 0.929 . S
H2070 C2044 0.956 . S
H2071 C2045 0.931 . S
H2072 C2052 0.932 . S
H2073 C2053 0.930 . S
H2074 C2054 0.929 . S
H2075 C2056 0.930 . S
H2076 C2058 0.932 . S
H2077 C2059 0.929 . S
H2078 C2060 0.928 . S
H2079 C2062 0.932 . S
C2080 C2081 1.264 . S
C2080 C2085 1.479 . S
C2080 C2090 1.465 . S
C2081 C2080 1.264 . S
C2081 C2083 1.339 . S
C2081 H2108 0.931 . S
C2082 C2083 1.395 . S
C2082 C2084 1.320 . S
C2083 C2081 1.339 . S
C2083 C2082 1.395 . S
C2083 H2109 0.929 . S
C2084 C2082 1.320 . S
C2084 C2085 1.405 . S
C2084 H2110 0.930 . S
C2085 C2080 1.479 . S
C2085 C2084 1.405 . S
C2085 H2111 0.931 . S
U2086 O2087 2.454 . S
U2086 O2088 2.458 . S
U2086 C2089 2.984 . S
U2086 C2090 2.847 . S
U2086 C2103 2.882 . S
U2086 O2104 2.441 . S
U2086 O2105 2.420 . S
U2086 O2106 2.455 . S
U2086 O2107 2.449 . S
O2087 U2086 2.454 . S
O2087 C2089 1.353 . S
O2088 U2086 2.458 . S
O2088 C2089 1.286 . S
C2089 U2086 2.984 . S
C2089 O2087 1.353 . S
C2089 O2088 1.286 . S
C2089 C2091 1.363 . S
C2090 C2080 1.465 . S
C2090 U2086 2.847 . S
C2090 O2104 1.249 . S
C2090 O2105 1.202 . S
C2091 C2089 1.363 . S
C2091 C2093 1.408 . S
C2091 C2096 1.342 . S
C2092 C2093 1.310 . S
C2092 C2095 1.461 . S
C2092 H2112 0.932 . S
C2093 C2091 1.408 . S
C2093 C2092 1.310 . S
C2093 H2113 0.930 . S
C2094 C2095 1.474 . S
C2094 C2096 1.285 . S
C2094 H2114 0.929 . S
C2095 C2092 1.461 . S
C2095 C2094 1.474 . S
C2096 C2091 1.342 . S
C2096 C2094 1.285 . S
C2096 H2115 0.930 . S
C2097 C2100 1.424 . S
C2097 C2102 1.245 . S
C2097 C2103 1.428 . S
C2098 C2101 1.260 . S
C2098 C2102 1.477 . S
C2098 H2116 0.932 . S
C2099 C2100 1.384 . S
C2099 C2101 1.479 . S
C2099 H2117 0.929 . S
C2100 C2097 1.424 . S
C2100 C2099 1.384 . S
C2100 H2118 0.928 . S
C2101 C2098 1.260 . S
C2101 C2099 1.479 . S
C2102 C2097 1.245 . S
C2102 C2098 1.477 . S
C2102 H2119 0.932 . S
C2103 U2086 2.882 . S
C2103 C2097 1.428 . S
C2103 O2106 1.301 . S
C2103 O2107 1.282 . S
O2104 U2086 2.441 . S
O2104 C2090 1.249 . S
O2105 U2086 2.420 . S
O2105 C2090 1.202 . S
O2106 U2086 2.455 . S
O2106 C2103 1.301 . S
O2107 U2086 2.449 . S
O2107 C2103 1.282 . S
H2108 C2081 0.931 . S
H2109 C2083 0.929 . S
H2110 C2084 0.930 . S
H2111 C2085 0.931 . S
H2112 C2092 0.932 . S
H2113 C2093 0.930 . S
H2114 C2094 0.929 . S
H2115 C2096 0.930 . S
H2116 C2098 0.932 . S
H2117 C2099 0.929 . S
H2118 C2100 0.928 . S
H2119 C2102 0.932 . S
C2120 C2121 1.264 . S
C2120 C2125 1.479 . S
C2120 C2130 1.465 . S
C2121 C2120 1.264 . S
C2121 C2123 1.339 1_655 S
C2121 H2148 0.931 . S
C2122 C2123 1.395 . S
C2122 C2124 1.354 . S
C2123 C2121 1.339 1_455 S
C2123 C2122 1.395 . S
C2123 H2149 0.929 . S
C2124 C2122 1.354 . S
C2124 C2125 1.351 1_455 S
C2124 H2150 0.956 . S
C2125 C2120 1.479 . S
C2125 C2124 1.351 1_655 S
C2125 H2151 0.931 . S
U2126 O2127 2.454 . S
U2126 O2128 2.458 . S
U2126 C2129 2.984 . S
U2126 C2130 2.847 . S
U2126 C2143 2.882 . S
U2126 O2144 2.441 . S
U2126 O2145 2.420 . S
U2126 O2146 2.455 . S
U2126 O2147 2.449 . S
O2127 U2126 2.454 . S
O2127 C2129 1.353 . S
O2128 U2126 2.458 . S
O2128 C2129 1.286 . S
C2129 U2126 2.984 . S
C2129 O2127 1.353 . S
C2129 O2128 1.286 . S
C2129 C2131 1.363 . S
C2130 C2120 1.465 . S
C2130 U2126 2.847 . S
C2130 O2144 1.249 . S
C2130 O2145 1.202 . S
C2131 C2129 1.363 . S
C2131 C2133 1.408 . S
C2131 C2136 1.342 . S
C2132 C2133 1.310 . S
C2132 C2135 1.461 . S
C2132 H2152 0.932 . S
C2133 C2131 1.408 . S
C2133 C2132 1.310 . S
C2133 H2153 0.930 . S
C2134 C2135 1.474 . S
C2134 C2136 1.285 . S
C2134 H2154 0.929 . S
C2135 C2132 1.461 . S
C2135 C2134 1.474 . S
C2136 C2131 1.342 . S
C2136 C2134 1.285 . S
C2136 H2155 0.930 . S
C2137 C2140 1.424 . S
C2137 C2142 1.245 . S
C2137 C2143 1.428 . S
C2138 C2141 1.260 . S
C2138 C2142 1.477 . S
C2138 H2156 0.932 . S
C2139 C2140 1.384 . S
C2139 C2141 1.479 . S
C2139 H2157 0.929 . S
C2140 C2137 1.424 . S
C2140 C2139 1.384 . S
C2140 H2158 0.928 . S
C2141 C2138 1.260 . S
C2141 C2139 1.479 . S
C2142 C2137 1.245 . S
C2142 C2138 1.477 . S
C2142 H2159 0.932 . S
C2143 U2126 2.882 . S
C2143 C2137 1.428 . S
C2143 O2146 1.301 . S
C2143 O2147 1.282 . S
O2144 U2126 2.441 . S
O2144 C2130 1.249 . S
O2145 U2126 2.420 . S
O2145 C2130 1.202 . S
O2146 U2126 2.455 . S
O2146 C2143 1.301 . S
O2147 U2126 2.449 . S
O2147 C2143 1.282 . S
H2148 C2121 0.931 . S
H2149 C2123 0.929 . S
H2150 C2124 0.956 . S
H2151 C2125 0.931 . S
H2152 C2132 0.932 . S
H2153 C2133 0.930 . S
H2154 C2134 0.929 . S
H2155 C2136 0.930 . S
H2156 C2138 0.932 . S
H2157 C2139 0.929 . S
H2158 C2140 0.928 . S
H2159 C2142 0.932 . S
C2160 C2161 1.264 . S
C2160 C2165 1.479 . S
C2160 C2170 1.465 . S
C2161 C2160 1.264 . S
C2161 C2163 1.339 . S
C2161 H2188 0.931 . S
C2162 C2163 1.395 . S
C2162 C2164 1.320 . S
C2163 C2161 1.339 . S
C2163 C2162 1.395 . S
C2163 H2189 0.929 . S
C2164 C2162 1.320 . S
C2164 C2165 1.405 . S
C2164 H2190 0.930 . S
C2165 C2160 1.479 . S
C2165 C2164 1.405 . S
C2165 H2191 0.931 . S
U2166 O2167 2.454 . S
U2166 O2168 2.458 . S
U2166 C2169 2.984 . S
U2166 C2170 2.847 . S
U2166 C2183 2.882 . S
U2166 O2184 2.441 . S
U2166 O2185 2.420 . S
U2166 O2186 2.455 . S
U2166 O2187 2.449 . S
O2167 U2166 2.454 . S
O2167 C2169 1.353 . S
O2168 U2166 2.458 . S
O2168 C2169 1.286 . S
C2169 U2166 2.984 . S
C2169 O2167 1.353 . S
C2169 O2168 1.286 . S
C2169 C2171 1.363 . S
C2170 C2160 1.465 . S
C2170 U2166 2.847 . S
C2170 O2184 1.249 . S
C2170 O2185 1.202 . S
C2171 C2169 1.363 . S
C2171 C2173 1.408 . S
C2171 C2176 1.342 . S
C2172 C2173 1.310 . S
C2172 C2175 1.461 . S
C2172 H2192 0.932 . S
C2173 C2171 1.408 . S
C2173 C2172 1.310 . S
C2173 H2193 0.930 . S
C2174 C2175 1.474 . S
C2174 C2176 1.285 . S
C2174 H2194 0.929 . S
C2175 C2172 1.461 . S
C2175 C2174 1.474 . S
C2176 C2171 1.342 . S
C2176 C2174 1.285 . S
C2176 H2195 0.930 . S
C2177 C2180 1.424 . S
C2177 C2182 1.245 . S
C2177 C2183 1.428 . S
C2178 C2181 1.260 . S
C2178 C2182 1.477 . S
C2178 H2196 0.932 . S
C2179 C2180 1.384 . S
C2179 C2181 1.479 . S
C2179 H2197 0.929 . S
C2180 C2177 1.424 . S
C2180 C2179 1.384 . S
C2180 H2198 0.928 . S
C2181 C2178 1.260 . S
C2181 C2179 1.479 . S
C2182 C2177 1.245 . S
C2182 C2178 1.477 . S
C2182 H2199 0.932 . S
C2183 U2166 2.882 . S
C2183 C2177 1.428 . S
C2183 O2186 1.301 . S
C2183 O2187 1.282 . S
O2184 U2166 2.441 . S
O2184 C2170 1.249 . S
O2185 U2166 2.420 . S
O2185 C2170 1.202 . S
O2186 U2166 2.455 . S
O2186 C2183 1.301 . S
O2187 U2166 2.449 . S
O2187 C2183 1.282 . S
H2188 C2161 0.931 . S
H2189 C2163 0.929 . S
H2190 C2164 0.930 . S
H2191 C2165 0.931 . S
H2192 C2172 0.932 . S
H2193 C2173 0.930 . S
H2194 C2174 0.929 . S
H2195 C2176 0.930 . S
H2196 C2178 0.932 . S
H2197 C2179 0.929 . S
H2198 C2180 0.928 . S
H2199 C2182 0.932 . S
C2200 C2201 1.264 . S
C2200 C2205 1.479 . S
C2200 C2210 1.465 . S
C2201 C2200 1.264 . S
C2201 C2203 1.339 . S
C2201 H2228 0.931 . S
C2202 C2203 1.395 . S
C2202 C2204 1.320 . S
C2203 C2201 1.339 . S
C2203 C2202 1.395 . S
C2203 H2229 0.929 . S
C2204 C2202 1.320 . S
C2204 C2205 1.405 . S
C2204 H2230 0.930 . S
C2205 C2200 1.479 . S
C2205 C2204 1.405 . S
C2205 H2231 0.931 . S
U2206 O2207 2.454 . S
U2206 O2208 2.458 . S
U2206 C2209 2.984 . S
U2206 C2210 2.847 . S
U2206 C2223 2.882 . S
U2206 O2224 2.441 . S
U2206 O2225 2.420 . S
U2206 O2226 2.455 . S
U2206 O2227 2.449 . S
O2207 U2206 2.454 . S
O2207 C2209 1.353 . S
O2208 U2206 2.458 . S
O2208 C2209 1.286 . S
C2209 U2206 2.984 . S
C2209 O2207 1.353 . S
C2209 O2208 1.286 . S
C2209 C2211 1.363 . S
C2210 C2200 1.465 . S
C2210 U2206 2.847 . S
C2210 O2224 1.249 . S
C2210 O2225 1.202 . S
C2211 C2209 1.363 . S
C2211 C2213 1.408 . S
C2211 C2216 1.342 . S
C2212 C2213 1.310 . S
C2212 C2215 1.461 . S
C2212 H2232 0.932 . S
C2213 C2211 1.408 . S
C2213 C2212 1.310 . S
C2213 H2233 0.930 . S
C2214 C2215 1.474 . S
C2214 C2216 1.285 . S
C2214 H2234 0.929 . S
C2215 C2212 1.461 . S
C2215 C2214 1.474 . S
C2216 C2211 1.342 . S
C2216 C2214 1.285 . S
C2216 H2235 0.930 . S
C2217 C2220 1.424 . S
C2217 C2222 1.245 . S
C2217 C2223 1.428 . S
C2218 C2221 1.260 . S
C2218 C2222 1.477 . S
C2218 H2236 0.932 . S
C2219 C2220 1.384 . S
C2219 C2221 1.479 . S
C2219 H2237 0.929 . S
C2220 C2217 1.424 . S
C2220 C2219 1.384 . S
C2220 H2238 0.928 . S
C2221 C2218 1.260 . S
C2221 C2219 1.479 . S
C2222 C2217 1.245 . S
C2222 C2218 1.477 . S
C2222 H2239 0.932 . S
C2223 U2206 2.882 . S
C2223 C2217 1.428 . S
C2223 O2226 1.301 . S
C2223 O2227 1.282 . S
O2224 U2206 2.441 . S
O2224 C2210 1.249 . S
O2225 U2206 2.420 . S
O2225 C2210 1.202 . S
O2226 U2206 2.455 . S
O2226 C2223 1.301 . S
O2227 U2206 2.449 . S
O2227 C2223 1.282 . S
H2228 C2201 0.931 . S
H2229 C2203 0.929 . S
H2230 C2204 0.930 . S
H2231 C2205 0.931 . S
H2232 C2212 0.932 . S
H2233 C2213 0.930 . S
H2234 C2214 0.929 . S
H2235 C2216 0.930 . S
H2236 C2218 0.932 . S
H2237 C2219 0.929 . S
H2238 C2220 0.928 . S
H2239 C2222 0.932 . S
C2240 C2241 1.264 . S
C2240 C2245 1.479 . S
C2240 C2250 1.465 . S
C2241 C2240 1.264 . S
C2241 C2243 1.339 . S
C2241 H2268 0.931 . S
C2242 C2243 1.395 . S
C2242 C2244 1.320 . S
C2243 C2241 1.339 . S
C2243 C2242 1.395 . S
C2243 H2269 0.929 . S
C2244 C2242 1.320 . S
C2244 C2245 1.405 . S
C2244 H2270 0.930 . S
C2245 C2240 1.479 . S
C2245 C2244 1.405 . S
C2245 H2271 0.931 . S
U2246 O2247 2.454 . S
U2246 O2248 2.458 . S
U2246 C2249 2.984 . S
U2246 C2250 2.847 . S
U2246 C2263 2.882 . S
U2246 O2264 2.441 . S
U2246 O2265 2.420 . S
U2246 O2266 2.455 . S
U2246 O2267 2.449 . S
O2247 U2246 2.454 . S
O2247 C2249 1.353 . S
O2248 U2246 2.458 . S
O2248 C2249 1.286 . S
C2249 U2246 2.984 . S
C2249 O2247 1.353 . S
C2249 O2248 1.286 . S
C2249 C2251 1.363 . S
C2250 C2240 1.465 . S
C2250 U2246 2.847 . S
C2250 O2264 1.249 . S
C2250 O2265 1.202 . S
C2251 C2249 1.363 . S
C2251 C2253 1.408 . S
C2251 C2256 1.342 . S
C2252 C2253 1.310 . S
C2252 C2255 1.461 . S
C2252 H2272 0.932 . S
C2253 C2251 1.408 . S
C2253 C2252 1.310 . S
C2253 H2273 0.930 . S
C2254 C2255 1.474 . S
C2254 C2256 1.285 . S
C2254 H2274 0.929 . S
C2255 C2252 1.461 . S
C2255 C2254 1.474 . S
C2256 C2251 1.342 . S
C2256 C2254 1.285 . S
C2256 H2275 0.930 . S
C2257 C2260 1.424 . S
C2257 C2262 1.245 . S
C2257 C2263 1.428 . S
C2258 C2261 1.260 . S
C2258 C2262 1.477 . S
C2258 H2276 0.932 . S
C2259 C2260 1.384 . S
C2259 C2261 1.479 . S
C2259 H2277 0.929 . S
C2260 C2257 1.424 . S
C2260 C2259 1.384 . S
C2260 H2278 0.928 . S
C2261 C2258 1.260 . S
C2261 C2259 1.479 . S
C2262 C2257 1.245 . S
C2262 C2258 1.477 . S
C2262 H2279 0.932 . S
C2263 U2246 2.882 . S
C2263 C2257 1.428 . S
C2263 O2266 1.301 . S
C2263 O2267 1.282 . S
O2264 U2246 2.441 . S
O2264 C2250 1.249 . S
O2265 U2246 2.420 . S
O2265 C2250 1.202 . S
O2266 U2246 2.455 . S
O2266 C2263 1.301 . S
O2267 U2246 2.449 . S
O2267 C2263 1.282 . S
H2268 C2241 0.931 . S
H2269 C2243 0.929 . S
H2270 C2244 0.930 . S
H2271 C2245 0.931 . S
H2272 C2252 0.932 . S
H2273 C2253 0.930 . S
H2274 C2254 0.929 . S
H2275 C2256 0.930 . S
H2276 C2258 0.932 . S
H2277 C2259 0.929 . S
H2278 C2260 0.928 . S
H2279 C2262 0.932 . S
C2280 C2281 1.264 . S
C2280 C2285 1.479 . S
C2280 C2290 1.465 . S
C2281 C2280 1.264 . S
C2281 C2283 1.339 1_556 S
C2281 H2308 0.931 . S
C2282 C2283 1.395 . S
C2282 C2284 1.354 . S
C2283 C2281 1.339 1_554 S
C2283 C2282 1.395 . S
C2283 H2309 0.929 . S
C2284 C2282 1.354 . S
C2284 C2285 1.351 1_554 S
C2284 H2310 0.956 . S
C2285 C2280 1.479 . S
C2285 C2284 1.351 1_556 S
C2285 H2311 0.931 . S
U2286 O2287 2.454 . S
U2286 O2288 2.458 . S
U2286 C2289 2.984 . S
U2286 C2290 2.847 . S
U2286 C2303 2.882 . S
U2286 O2304 2.441 . S
U2286 O2305 2.420 . S
U2286 O2306 2.455 . S
U2286 O2307 2.449 . S
O2287 U2286 2.454 . S
O2287 C2289 1.353 . S
O2288 U2286 2.458 . S
O2288 C2289 1.286 . S
C2289 U2286 2.984 . S
C2289 O2287 1.353 . S
C2289 O2288 1.286 . S
C2289 C2291 1.363 . S
C2290 C2280 1.465 . S
C2290 U2286 2.847 . S
C2290 O2304 1.249 . S
C2290 O2305 1.202 . S
C2291 C2289 1.363 . S
C2291 C2293 1.408 . S
C2291 C2296 1.342 . S
C2292 C2293 1.310 . S
C2292 C2295 1.461 . S
C2292 H2312 0.932 . S
C2293 C2291 1.408 . S
C2293 C2292 1.310 . S
C2293 H2313 0.930 . S
C2294 C2295 1.474 . S
C2294 C2296 1.285 . S
C2294 H2314 0.929 . S
C2295 C2292 1.461 . S
C2295 C2294 1.474 . S
C2296 C2291 1.342 . S
C2296 C2294 1.285 . S
C2296 H2315 0.930 . S
C2297 C2300 1.424 . S
C2297 C2302 1.245 . S
C2297 C2303 1.428 . S
C2298 C2301 1.260 . S
C2298 C2302 1.477 . S
C2298 H2316 0.932 . S
C2299 C2300 1.384 . S
C2299 C2301 1.479 . S
C2299 H2317 0.929 . S
C2300 C2297 1.424 . S
C2300 C2299 1.384 . S
C2300 H2318 0.928 . S
C2301 C2298 1.260 . S
C2301 C2299 1.479 . S
C2302 C2297 1.245 . S
C2302 C2298 1.477 . S
C2302 H2319 0.932 . S
C2303 U2286 2.882 . S
C2303 C2297 1.428 . S
C2303 O2306 1.301 . S
C2303 O2307 1.282 . S
O2304 U2286 2.441 . S
O2304 C2290 1.249 . S
O2305 U2286 2.420 . S
O2305 C2290 1.202 . S
O2306 U2286 2.455 . S
O2306 C2303 1.301 . S
O2307 U2286 2.449 . S
O2307 C2303 1.282 . S
H2308 C2281 0.931 . S
H2309 C2283 0.929 . S
H2310 C2284 0.956 . S
H2311 C2285 0.931 . S
H2312 C2292 0.932 . S
H2313 C2293 0.930 . S
H2314 C2294 0.929 . S
H2315 C2296 0.930 . S
H2316 C2298 0.932 . S
H2317 C2299 0.929 . S
H2318 C2300 0.928 . S
H2319 C2302 0.932 . S
C2320 C2321 1.264 . S
C2320 C2325 1.479 . S
C2320 C2330 1.465 . S
C2321 C2320 1.264 . S
C2321 C2323 1.339 . S
C2321 H2348 0.931 . S
C2322 C2323 1.395 . S
C2322 C2324 1.320 . S
C2323 C2321 1.339 . S
C2323 C2322 1.395 . S
C2323 H2349 0.929 . S
C2324 C2322 1.320 . S
C2324 C2325 1.405 . S
C2324 H2350 0.930 . S
C2325 C2320 1.479 . S
C2325 C2324 1.405 . S
C2325 H2351 0.931 . S
U2326 O2327 2.454 . S
U2326 O2328 2.458 . S
U2326 C2329 2.984 . S
U2326 C2330 2.847 . S
U2326 C2343 2.882 . S
U2326 O2344 2.441 . S
U2326 O2345 2.420 . S
U2326 O2346 2.455 . S
U2326 O2347 2.449 . S
O2327 U2326 2.454 . S
O2327 C2329 1.353 . S
O2328 U2326 2.458 . S
O2328 C2329 1.286 . S
C2329 U2326 2.984 . S
C2329 O2327 1.353 . S
C2329 O2328 1.286 . S
C2329 C2331 1.363 . S
C2330 C2320 1.465 . S
C2330 U2326 2.847 . S
C2330 O2344 1.249 . S
C2330 O2345 1.202 . S
C2331 C2329 1.363 . S
C2331 C2333 1.408 . S
C2331 C2336 1.342 . S
C2332 C2333 1.310 . S
C2332 C2335 1.461 . S
C2332 H2352 0.932 . S
C2333 C2331 1.408 . S
C2333 C2332 1.310 . S
C2333 H2353 0.930 . S
C2334 C2335 1.474 . S
C2334 C2336 1.285 . S
C2334 H2354 0.929 . S
C2335 C2332 1.461 . S
C2335 C2334 1.474 . S
C2336 C2331 1.342 . S
C2336 C2334 1.285 . S
C2336 H2355 0.930 . S
C2337 C2340 1.424 . S
C2337 C2342 1.245 . S
C2337 C2343 1.428 . S
C2338 C2341 1.260 . S
C2338 C2342 1.477 . S
C2338 H2356 0.932 . S
C2339 C2340 1.384 . S
C2339 C2341 1.479 . S
C2339 H2357 0.929 . S
C2340 C2337 1.424 . S
C2340 C2339 1.384 . S
C2340 H2358 0.928 . S
C2341 C2338 1.260 . S
C2341 C2339 1.479 . S
C2342 C2337 1.245 . S
C2342 C2338 1.477 . S
C2342 H2359 0.932 . S
C2343 U2326 2.882 . S
C2343 C2337 1.428 . S
C2343 O2346 1.301 . S
C2343 O2347 1.282 . S
O2344 U2326 2.441 . S
O2344 C2330 1.249 . S
O2345 U2326 2.420 . S
O2345 C2330 1.202 . S
O2346 U2326 2.455 . S
O2346 C2343 1.301 . S
O2347 U2326 2.449 . S
O2347 C2343 1.282 . S
H2348 C2321 0.931 . S
H2349 C2323 0.929 . S
H2350 C2324 0.930 . S
H2351 C2325 0.931 . S
H2352 C2332 0.932 . S
H2353 C2333 0.930 . S
H2354 C2334 0.929 . S
H2355 C2336 0.930 . S
H2356 C2338 0.932 . S
H2357 C2339 0.929 . S
H2358 C2340 0.928 . S
H2359 C2342 0.932 . S
C2360 C2361 1.264 . S
C2360 C2365 1.479 . S
C2360 C2370 1.465 . S
C2361 C2360 1.264 . S
C2361 C2363 1.339 . S
C2361 H2388 0.931 . S
C2362 C2363 1.395 . S
C2362 C2364 1.320 . S
C2363 C2361 1.339 . S
C2363 C2362 1.395 . S
C2363 H2389 0.929 . S
C2364 C2362 1.320 . S
C2364 C2365 1.405 . S
C2364 H2390 0.930 . S
C2365 C2360 1.479 . S
C2365 C2364 1.405 . S
C2365 H2391 0.931 . S
U2366 O2367 2.454 . S
U2366 O2368 2.458 . S
U2366 C2369 2.984 . S
U2366 C2370 2.847 . S
U2366 C2383 2.882 . S
U2366 O2384 2.441 . S
U2366 O2385 2.420 . S
U2366 O2386 2.455 . S
U2366 O2387 2.449 . S
O2367 U2366 2.454 . S
O2367 C2369 1.353 . S
O2368 U2366 2.458 . S
O2368 C2369 1.286 . S
C2369 U2366 2.984 . S
C2369 O2367 1.353 . S
C2369 O2368 1.286 . S
C2369 C2371 1.363 . S
C2370 C2360 1.465 . S
C2370 U2366 2.847 . S
C2370 O2384 1.249 . S
C2370 O2385 1.202 . S
C2371 C2369 1.363 . S
C2371 C2373 1.408 . S
C2371 C2376 1.342 . S
C2372 C2373 1.310 . S
C2372 C2375 1.461 . S
C2372 H2392 0.932 . S
C2373 C2371 1.408 . S
C2373 C2372 1.310 . S
C2373 H2393 0.930 . S
C2374 C2375 1.474 . S
C2374 C2376 1.285 . S
C2374 H2394 0.929 . S
C2375 C2372 1.461 . S
C2375 C2374 1.474 . S
C2376 C2371 1.342 . S
C2376 C2374 1.285 . S
C2376 H2395 0.930 . S
C2377 C2380 1.424 . S
C2377 C2382 1.245 . S
C2377 C2383 1.428 . S
C2378 C2381 1.260 . S
C2378 C2382 1.477 . S
C2378 H2396 0.932 . S
C2379 C2380 1.384 . S
C2379 C2381 1.479 . S
C2379 H2397 0.929 . S
C2380 C2377 1.424 . S
C2380 C2379 1.384 . S
C2380 H2398 0.928 . S
C2381 C2378 1.260 . S
C2381 C2379 1.479 . S
C2382 C2377 1.245 . S
C2382 C2378 1.477 . S
C2382 H2399 0.932 . S
C2383 U2366 2.882 . S
C2383 C2377 1.428 . S
C2383 O2386 1.301 . S
C2383 O2387 1.282 . S
O2384 U2366 2.441 . S
O2384 C2370 1.249 . S
O2385 U2366 2.420 . S
O2385 C2370 1.202 . S
O2386 U2366 2.455 . S
O2386 C2383 1.301 . S
O2387 U2366 2.449 . S
O2387 C2383 1.282 . S
H2388 C2361 0.931 . S
H2389 C2363 0.929 . S
H2390 C2364 0.930 . S
H2391 C2365 0.931 . S
H2392 C2372 0.932 . S
H2393 C2373 0.930 . S
H2394 C2374 0.929 . S
H2395 C2376 0.930 . S
H2396 C2378 0.932 . S
H2397 C2379 0.929 . S
H2398 C2380 0.928 . S
H2399 C2382 0.932 . S
C2400 C2401 1.264 . S
C2400 C2405 1.479 . S
C2400 C2410 1.465 . S
C2401 C2400 1.264 . S
C2401 C2403 1.339 . S
C2401 H2428 0.931 . S
C2402 C2403 1.395 . S
C2402 C2404 1.320 . S
C2403 C2401 1.339 . S
C2403 C2402 1.395 . S
C2403 H2429 0.929 . S
C2404 C2402 1.320 . S
C2404 C2405 1.405 . S
C2404 H2430 0.930 . S
C2405 C2400 1.479 . S
C2405 C2404 1.405 . S
C2405 H2431 0.931 . S
U2406 O2407 2.454 . S
U2406 O2408 2.458 . S
U2406 C2409 2.984 . S
U2406 C2410 2.847 . S
U2406 C2423 2.882 . S
U2406 O2424 2.441 . S
U2406 O2425 2.420 . S
U2406 O2426 2.455 . S
U2406 O2427 2.449 . S
O2407 U2406 2.454 . S
O2407 C2409 1.353 . S
O2408 U2406 2.458 . S
O2408 C2409 1.286 . S
C2409 U2406 2.984 . S
C2409 O2407 1.353 . S
C2409 O2408 1.286 . S
C2409 C2411 1.363 . S
C2410 C2400 1.465 . S
C2410 U2406 2.847 . S
C2410 O2424 1.249 . S
C2410 O2425 1.202 . S
C2411 C2409 1.363 . S
C2411 C2413 1.408 . S
C2411 C2416 1.342 . S
C2412 C2413 1.310 . S
C2412 C2415 1.461 . S
C2412 H2432 0.932 . S
C2413 C2411 1.408 . S
C2413 C2412 1.310 . S
C2413 H2433 0.930 . S
C2414 C2415 1.474 . S
C2414 C2416 1.285 . S
C2414 H2434 0.929 . S
C2415 C2412 1.461 . S
C2415 C2414 1.474 . S
C2416 C2411 1.342 . S
C2416 C2414 1.285 . S
C2416 H2435 0.930 . S
C2417 C2420 1.424 . S
C2417 C2422 1.245 . S
C2417 C2423 1.428 . S
C2418 C2421 1.260 . S
C2418 C2422 1.477 . S
C2418 H2436 0.932 . S
C2419 C2420 1.384 . S
C2419 C2421 1.479 . S
C2419 H2437 0.929 . S
C2420 C2417 1.424 . S
C2420 C2419 1.384 . S
C2420 H2438 0.928 . S
C2421 C2418 1.260 . S
C2421 C2419 1.479 . S
C2422 C2417 1.245 . S
C2422 C2418 1.477 . S
C2422 H2439 0.932 . S
C2423 U2406 2.882 . S
C2423 C2417 1.428 . S
C2423 O2426 1.301 . S
C2423 O2427 1.282 . S
O2424 U2406 2.441 . S
O2424 C2410 1.249 . S
O2425 U2406 2.420 . S
O2425 C2410 1.202 . S
O2426 U2406 2.455 . S
O2426 C2423 1.301 . S
O2427 U2406 2.449 . S
O2427 C2423 1.282 . S
H2428 C2401 0.931 . S
H2429 C2403 0.929 . S
H2430 C2404 0.930 . S
H2431 C2405 0.931 . S
H2432 C2412 0.932 . S
H2433 C2413 0.930 . S
H2434 C2414 0.929 . S
H2435 C2416 0.930 . S
H2436 C2418 0.932 . S
H2437 C2419 0.929 . S
H2438 C2420 0.928 . S
H2439 C2422 0.932 . S
C2440 C2441 1.264 . S
C2440 C2445 1.479 . S
C2440 C2450 1.465 . S
C2441 C2440 1.264 . S
C2441 C2443 1.339 1_554 S
C2441 H2468 0.931 . S
C2442 C2443 1.395 . S
C2442 C2444 1.354 . S
C2443 C2441 1.339 1_556 S
C2443 C2442 1.395 . S
C2443 H2469 0.929 . S
C2444 C2442 1.354 . S
C2444 C2445 1.351 1_556 S
C2444 H2470 0.956 . S
C2445 C2440 1.479 . S
C2445 C2444 1.351 1_554 S
C2445 H2471 0.931 . S
U2446 O2447 2.454 . S
U2446 O2448 2.458 . S
U2446 C2449 2.984 . S
U2446 C2450 2.847 . S
U2446 C2463 2.882 . S
U2446 O2464 2.441 . S
U2446 O2465 2.420 . S
U2446 O2466 2.455 . S
U2446 O2467 2.449 . S
O2447 U2446 2.454 . S
O2447 C2449 1.353 . S
O2448 U2446 2.458 . S
O2448 C2449 1.286 . S
C2449 U2446 2.984 . S
C2449 O2447 1.353 . S
C2449 O2448 1.286 . S
C2449 C2451 1.363 . S
C2450 C2440 1.465 . S
C2450 U2446 2.847 . S
C2450 O2464 1.249 . S
C2450 O2465 1.202 . S
C2451 C2449 1.363 . S
C2451 C2453 1.408 . S
C2451 C2456 1.342 . S
C2452 C2453 1.310 . S
C2452 C2455 1.461 . S
C2452 H2472 0.932 . S
C2453 C2451 1.408 . S
C2453 C2452 1.310 . S
C2453 H2473 0.930 . S
C2454 C2455 1.474 . S
C2454 C2456 1.285 . S
C2454 H2474 0.929 . S
C2455 C2452 1.461 . S
C2455 C2454 1.474 . S
C2456 C2451 1.342 . S
C2456 C2454 1.285 . S
C2456 H2475 0.930 . S
C2457 C2460 1.424 . S
C2457 C2462 1.245 . S
C2457 C2463 1.428 . S
C2458 C2461 1.260 . S
C2458 C2462 1.477 . S
C2458 H2476 0.932 . S
C2459 C2460 1.384 . S
C2459 C2461 1.479 . S
C2459 H2477 0.929 . S
C2460 C2457 1.424 . S
C2460 C2459 1.384 . S
C2460 H2478 0.928 . S
C2461 C2458 1.260 . S
C2461 C2459 1.479 . S
C2462 C2457 1.245 . S
C2462 C2458 1.477 . S
C2462 H2479 0.932 . S
C2463 U2446 2.882 . S
C2463 C2457 1.428 . S
C2463 O2466 1.301 . S
C2463 O2467 1.282 . S
O2464 U2446 2.441 . S
O2464 C2450 1.249 . S
O2465 U2446 2.420 . S
O2465 C2450 1.202 . S
O2466 U2446 2.455 . S
O2466 C2463 1.301 . S
O2467 U2446 2.449 . S
O2467 C2463 1.282 . S
H2468 C2441 0.931 . S
H2469 C2443 0.929 . S
H2470 C2444 0.956 . S
H2471 C2445 0.931 . S
H2472 C2452 0.932 . S
H2473 C2453 0.930 . S
H2474 C2454 0.929 . S
H2475 C2456 0.930 . S
H2476 C2458 0.932 . S
H2477 C2459 0.929 . S
H2478 C2460 0.928 . S
H2479 C2462 0.932 . S
C2480 C2481 1.264 . S
C2480 C2485 1.479 . S
C2480 C2490 1.465 . S
C2481 C2480 1.264 . S
C2481 C2483 1.339 . S
C2481 H2508 0.931 . S
C2482 C2483 1.395 . S
C2482 C2484 1.320 . S
C2483 C2481 1.339 . S
C2483 C2482 1.395 . S
C2483 H2509 0.929 . S
C2484 C2482 1.320 . S
C2484 C2485 1.405 . S
C2484 H2510 0.930 . S
C2485 C2480 1.479 . S
C2485 C2484 1.405 . S
C2485 H2511 0.931 . S
U2486 O2487 2.454 . S
U2486 O2488 2.458 . S
U2486 C2489 2.984 . S
U2486 C2490 2.847 . S
U2486 C2503 2.882 . S
U2486 O2504 2.441 . S
U2486 O2505 2.420 . S
U2486 O2506 2.455 . S
U2486 O2507 2.449 . S
O2487 U2486 2.454 . S
O2487 C2489 1.353 . S
O2488 U2486 2.458 . S
O2488 C2489 1.286 . S
C2489 U2486 2.984 . S
C2489 O2487 1.353 . S
C2489 O2488 1.286 . S
C2489 C2491 1.363 . S
C2490 C2480 1.465 . S
C2490 U2486 2.847 . S
C2490 O2504 1.249 . S
C2490 O2505 1.202 . S
C2491 C2489 1.363 . S
C2491 C2493 1.408 . S
C2491 C2496 1.342 . S
C2492 C2493 1.310 . S
C2492 C2495 1.461 . S
C2492 H2512 0.932 . S
C2493 C2491 1.408 . S
C2493 C2492 1.310 . S
C2493 H2513 0.930 . S
C2494 C2495 1.474 . S
C2494 C2496 1.285 . S
C2494 H2514 0.929 . S
C2495 C2492 1.461 . S
C2495 C2494 1.474 . S
C2496 C2491 1.342 . S
C2496 C2494 1.285 . S
C2496 H2515 0.930 . S
C2497 C2500 1.424 . S
C2497 C2502 1.245 . S
C2497 C2503 1.428 . S
C2498 C2501 1.260 . S
C2498 C2502 1.477 . S
C2498 H2516 0.932 . S
C2499 C2500 1.384 . S
C2499 C2501 1.479 . S
C2499 H2517 0.929 . S
C2500 C2497 1.424 . S
C2500 C2499 1.384 . S
C2500 H2518 0.928 . S
C2501 C2498 1.260 . S
C2501 C2499 1.479 . S
C2502 C2497 1.245 . S
C2502 C2498 1.477 . S
C2502 H2519 0.932 . S
C2503 U2486 2.882 . S
C2503 C2497 1.428 . S
C2503 O2506 1.301 . S
C2503 O2507 1.282 . S
O2504 U2486 2.441 . S
O2504 C2490 1.249 . S
O2505 U2486 2.420 . S
O2505 C2490 1.202 . S
O2506 U2486 2.455 . S
O2506 C2503 1.301 . S
O2507 U2486 2.449 . S
O2507 C2503 1.282 . S
H2508 C2481 0.931 . S
H2509 C2483 0.929 . S
H2510 C2484 0.930 . S
H2511 C2485 0.931 . S
H2512 C2492 0.932 . S
H2513 C2493 0.930 . S
H2514 C2494 0.929 . S
H2515 C2496 0.930 . S
H2516 C2498 0.932 . S
H2517 C2499 0.929 . S
H2518 C2500 0.928 . S
H2519 C2502 0.932 . S
C2520 C2521 1.264 . S
C2520 C2525 1.479 . S
C2520 C2530 1.465 . S
C2521 C2520 1.264 . S
C2521 C2523 1.339 . S
C2521 H2548 0.931 . S
C2522 C2523 1.395 . S
C2522 C2524 1.320 . S
C2523 C2521 1.339 . S
C2523 C2522 1.395 . S
C2523 H2549 0.929 . S
C2524 C2522 1.320 . S
C2524 C2525 1.405 . S
C2524 H2550 0.930 . S
C2525 C2520 1.479 . S
C2525 C2524 1.405 . S
C2525 H2551 0.931 . S
U2526 O2527 2.454 . S
U2526 O2528 2.458 . S
U2526 C2529 2.984 . S
U2526 C2530 2.847 . S
U2526 C2543 2.882 . S
U2526 O2544 2.441 . S
U2526 O2545 2.420 . S
U2526 O2546 2.455 . S
U2526 O2547 2.449 . S
O2527 U2526 2.454 . S
O2527 C2529 1.353 . S
O2528 U2526 2.458 . S
O2528 C2529 1.286 . S
C2529 U2526 2.984 . S
C2529 O2527 1.353 . S
C2529 O2528 1.286 . S
C2529 C2531 1.363 . S
C2530 C2520 1.465 . S
C2530 U2526 2.847 . S
C2530 O2544 1.249 . S
C2530 O2545 1.202 . S
C2531 C2529 1.363 . S
C2531 C2533 1.408 . S
C2531 C2536 1.342 . S
C2532 C2533 1.310 . S
C2532 C2535 1.461 . S
C2532 H2552 0.932 . S
C2533 C2531 1.408 . S
C2533 C2532 1.310 . S
C2533 H2553 0.930 . S
C2534 C2535 1.474 . S
C2534 C2536 1.285 . S
C2534 H2554 0.929 . S
C2535 C2532 1.461 . S
C2535 C2534 1.474 . S
C2536 C2531 1.342 . S
C2536 C2534 1.285 . S
C2536 H2555 0.930 . S
C2537 C2540 1.424 . S
C2537 C2542 1.245 . S
C2537 C2543 1.428 . S
C2538 C2541 1.260 . S
C2538 C2542 1.477 . S
C2538 H2556 0.932 . S
C2539 C2540 1.384 . S
C2539 C2541 1.479 . S
C2539 H2557 0.929 . S
C2540 C2537 1.424 . S
C2540 C2539 1.384 . S
C2540 H2558 0.928 . S
C2541 C2538 1.260 . S
C2541 C2539 1.479 . S
C2542 C2537 1.245 . S
C2542 C2538 1.477 . S
C2542 H2559 0.932 . S
C2543 U2526 2.882 . S
C2543 C2537 1.428 . S
C2543 O2546 1.301 . S
C2543 O2547 1.282 . S
O2544 U2526 2.441 . S
O2544 C2530 1.249 . S
O2545 U2526 2.420 . S
O2545 C2530 1.202 . S
O2546 U2526 2.455 . S
O2546 C2543 1.301 . S
O2547 U2526 2.449 . S
O2547 C2543 1.282 . S
H2548 C2521 0.931 . S
H2549 C2523 0.929 . S
H2550 C2524 0.930 . S
H2551 C2525 0.931 . S
H2552 C2532 0.932 . S
H2553 C2533 0.930 . S
H2554 C2534 0.929 . S
H2555 C2536 0.930 . S
H2556 C2538 0.932 . S
H2557 C2539 0.929 . S
H2558 C2540 0.928 . S
H2559 C2542 0.932 . S
C2560 C2561 1.264 . S
C2560 C2565 1.479 . S
C2560 C2570 1.465 . S
C2561 C2560 1.264 . S
C2561 C2563 1.339 . S
C2561 H2588 0.931 . S
C2562 C2563 1.395 . S
C2562 C2564 1.320 . S
C2563 C2561 1.339 . S
C2563 C2562 1.395 . S
C2563 H2589 0.929 . S
C2564 C2562 1.320 . S
C2564 C2565 1.405 . S
C2564 H2590 0.930 . S
C2565 C2560 1.479 . S
C2565 C2564 1.405 . S
C2565 H2591 0.931 . S
U2566 O2567 2.454 . S
U2566 O2568 2.458 . S
U2566 C2569 2.984 . S
U2566 C2570 2.847 . S
U2566 C2583 2.882 . S
U2566 O2584 2.441 . S
U2566 O2585 2.420 . S
U2566 O2586 2.455 . S
U2566 O2587 2.449 . S
O2567 U2566 2.454 . S
O2567 C2569 1.353 . S
O2568 U2566 2.458 . S
O2568 C2569 1.286 . S
C2569 U2566 2.984 . S
C2569 O2567 1.353 . S
C2569 O2568 1.286 . S
C2569 C2571 1.363 . S
C2570 C2560 1.465 . S
C2570 U2566 2.847 . S
C2570 O2584 1.249 . S
C2570 O2585 1.202 . S
C2571 C2569 1.363 . S
C2571 C2573 1.408 . S
C2571 C2576 1.342 . S
C2572 C2573 1.310 . S
C2572 C2575 1.461 . S
C2572 H2592 0.932 . S
C2573 C2571 1.408 . S
C2573 C2572 1.310 . S
C2573 H2593 0.930 . S
C2574 C2575 1.474 . S
C2574 C2576 1.285 . S
C2574 H2594 0.929 . S
C2575 C2572 1.461 . S
C2575 C2574 1.474 . S
C2576 C2571 1.342 . S
C2576 C2574 1.285 . S
C2576 H2595 0.930 . S
C2577 C2580 1.424 . S
C2577 C2582 1.245 . S
C2577 C2583 1.428 . S
C2578 C2581 1.260 . S
C2578 C2582 1.477 . S
C2578 H2596 0.932 . S
C2579 C2580 1.384 . S
C2579 C2581 1.479 . S
C2579 H2597 0.929 . S
C2580 C2577 1.424 . S
C2580 C2579 1.384 . S
C2580 H2598 0.928 . S
C2581 C2578 1.260 . S
C2581 C2579 1.479 . S
C2582 C2577 1.245 . S
C2582 C2578 1.477 . S
C2582 H2599 0.932 . S
C2583 U2566 2.882 . S
C2583 C2577 1.428 . S
C2583 O2586 1.301 . S
C2583 O2587 1.282 . S
O2584 U2566 2.441 . S
O2584 C2570 1.249 . S
O2585 U2566 2.420 . S
O2585 C2570 1.202 . S
O2586 U2566 2.455 . S
O2586 C2583 1.301 . S
O2587 U2566 2.449 . S
O2587 C2583 1.282 . S
H2588 C2561 0.931 . S
H2589 C2563 0.929 . S
H2590 C2564 0.930 . S
H2591 C2565 0.931 . S
H2592 C2572 0.932 . S
H2593 C2573 0.930 . S
H2594 C2574 0.929 . S
H2595 C2576 0.930 . S
H2596 C2578 0.932 . S
H2597 C2579 0.929 . S
H2598 C2580 0.928 . S
H2599 C2582 0.932 . S
C2600 C2601 1.264 . S
C2600 C2605 1.479 . S
C2600 C2610 1.465 . S
C2601 C2600 1.264 . S
C2601 C2603 1.339 . S
C2601 H2628 0.931 . S
C2602 C2603 1.395 . S
C2602 C2604 1.320 . S
C2603 C2601 1.339 . S
C2603 C2602 1.395 . S
C2603 H2629 0.929 . S
C2604 C2602 1.320 . S
C2604 C2605 1.405 . S
C2604 H2630 0.930 . S
C2605 C2600 1.479 . S
C2605 C2604 1.405 . S
C2605 H2631 0.931 . S
U2606 O2607 2.454 . S
U2606 O2608 2.458 . S
U2606 C2609 2.984 . S
U2606 C2610 2.847 . S
U2606 C2623 2.882 . S
U2606 O2624 2.441 . S
U2606 O2625 2.420 . S
U2606 O2626 2.455 . S
U2606 O2627 2.449 . S
O2607 U2606 2.454 . S
O2607 C2609 1.353 . S
O2608 U2606 2.458 . S
O2608 C2609 1.286 . S
C2609 U2606 2.984 . S
C2609 O2607 1.353 . S
C2609 O2608 1.286 . S
C2609 C2611 1.363 . S
C2610 C2600 1.465 . S
C2610 U2606 2.847 . S
C2610 O2624 1.249 . S
C2610 O2625 1.202 . S
C2611 C2609 1.363 . S
C2611 C2613 1.408 . S
C2611 C2616 1.342 . S
C2612 C2613 1.310 . S
C2612 C2615 1.461 . S
C2612 H2632 0.932 . S
C2613 C2611 1.408 . S
C2613 C2612 1.310 . S
C2613 H2633 0.930 . S
C2614 C2615 1.474 . S
C2614 C2616 1.285 . S
C2614 H2634 0.929 . S
C2615 C2612 1.461 . S
C2615 C2614 1.474 . S
C2616 C2611 1.342 . S
C2616 C2614 1.285 . S
C2616 H2635 0.930 . S
C2617 C2620 1.424 . S
C2617 C2622 1.245 . S
C2617 C2623 1.428 . S
C2618 C2621 1.260 . S
C2618 C2622 1.477 . S
C2618 H2636 0.932 . S
C2619 C2620 1.384 . S
C2619 C2621 1.479 . S
C2619 H2637 0.929 . S
C2620 C2617 1.424 . S
C2620 C2619 1.384 . S
C2620 H2638 0.928 . S
C2621 C2618 1.260 . S
C2621 C2619 1.479 . S
C2622 C2617 1.245 . S
C2622 C2618 1.477 . S
C2622 H2639 0.932 . S
C2623 U2606 2.882 . S
C2623 C2617 1.428 . S
C2623 O2626 1.301 . S
C2623 O2627 1.282 . S
O2624 U2606 2.441 . S
O2624 C2610 1.249 . S
O2625 U2606 2.420 . S
O2625 C2610 1.202 . S
O2626 U2606 2.455 . S
O2626 C2623 1.301 . S
O2627 U2606 2.449 . S
O2627 C2623 1.282 . S
H2628 C2601 0.931 . S
H2629 C2603 0.929 . S
H2630 C2604 0.930 . S
H2631 C2605 0.931 . S
H2632 C2612 0.932 . S
H2633 C2613 0.930 . S
H2634 C2614 0.929 . S
H2635 C2616 0.930 . S
H2636 C2618 0.932 . S
H2637 C2619 0.929 . S
H2638 C2620 0.928 . S
H2639 C2622 0.932 . S
C2640 C2641 1.264 . S
C2640 C2645 1.479 . S
C2640 C2650 1.465 . S
C2641 C2640 1.264 . S
C2641 C2643 1.339 1_565 S
C2641 H2668 0.931 . S
C2642 C2643 1.395 . S
C2642 C2644 1.354 . S
C2643 C2641 1.339 1_545 S
C2643 C2642 1.395 . S
C2643 H2669 0.929 . S
C2644 C2642 1.354 . S
C2644 C2645 1.351 1_545 S
C2644 H2670 0.956 . S
C2645 C2640 1.479 . S
C2645 C2644 1.351 1_565 S
C2645 H2671 0.931 . S
U2646 O2647 2.454 . S
U2646 O2648 2.458 . S
U2646 C2649 2.984 . S
U2646 C2650 2.847 . S
U2646 C2663 2.882 . S
U2646 O2664 2.441 . S
U2646 O2665 2.420 . S
U2646 O2666 2.455 . S
U2646 O2667 2.449 . S
O2647 U2646 2.454 . S
O2647 C2649 1.353 . S
O2648 U2646 2.458 . S
O2648 C2649 1.286 . S
C2649 U2646 2.984 . S
C2649 O2647 1.353 . S
C2649 O2648 1.286 . S
C2649 C2651 1.363 . S
C2650 C2640 1.465 . S
C2650 U2646 2.847 . S
C2650 O2664 1.249 . S
C2650 O2665 1.202 . S
C2651 C2649 1.363 . S
C2651 C2653 1.408 . S
C2651 C2656 1.342 . S
C2652 C2653 1.310 . S
C2652 C2655 1.461 . S
C2652 H2672 0.932 . S
C2653 C2651 1.408 . S
C2653 C2652 1.310 . S
C2653 H2673 0.930 . S
C2654 C2655 1.474 . S
C2654 C2656 1.285 . S
C2654 H2674 0.929 . S
C2655 C2652 1.461 . S
C2655 C2654 1.474 . S
C2656 C2651 1.342 . S
C2656 C2654 1.285 . S
C2656 H2675 0.930 . S
C2657 C2660 1.424 . S
C2657 C2662 1.245 . S
C2657 C2663 1.428 . S
C2658 C2661 1.260 . S
C2658 C2662 1.477 . S
C2658 H2676 0.932 . S
C2659 C2660 1.384 . S
C2659 C2661 1.479 . S
C2659 H2677 0.929 . S
C2660 C2657 1.424 . S
C2660 C2659 1.384 . S
C2660 H2678 0.928 . S
C2661 C2658 1.260 . S
C2661 C2659 1.479 . S
C2662 C2657 1.245 . S
C2662 C2658 1.477 . S
C2662 H2679 0.932 . S
C2663 U2646 2.882 . S
C2663 C2657 1.428 . S
C2663 O2666 1.301 . S
C2663 O2667 1.282 . S
O2664 U2646 2.441 . S
O2664 C2650 1.249 . S
O2665 U2646 2.420 . S
O2665 C2650 1.202 . S
O2666 U2646 2.455 . S
O2666 C2663 1.301 . S
O2667 U2646 2.449 . S
O2667 C2663 1.282 . S
H2668 C2641 0.931 . S
H2669 C2643 0.929 . S
H2670 C2644 0.956 . S
H2671 C2645 0.931 . S
H2672 C2652 0.932 . S
H2673 C2653 0.930 . S
H2674 C2654 0.929 . S
H2675 C2656 0.930 . S
H2676 C2658 0.932 . S
H2677 C2659 0.929 . S
H2678 C2660 0.928 . S
H2679 C2662 0.932 . S
C2680 C2681 1.264 . S
C2680 C2685 1.479 . S
C2680 C2690 1.465 . S
C2681 C2680 1.264 . S
C2681 C2683 1.339 . S
C2681 H2708 0.931 . S
C2682 C2683 1.395 . S
C2682 C2684 1.320 . S
C2683 C2681 1.339 . S
C2683 C2682 1.395 . S
C2683 H2709 0.929 . S
C2684 C2682 1.320 . S
C2684 C2685 1.405 . S
C2684 H2710 0.930 . S
C2685 C2680 1.479 . S
C2685 C2684 1.405 . S
C2685 H2711 0.931 . S
U2686 O2687 2.454 . S
U2686 O2688 2.458 . S
U2686 C2689 2.984 . S
U2686 C2690 2.847 . S
U2686 C2703 2.882 . S
U2686 O2704 2.441 . S
U2686 O2705 2.420 . S
U2686 O2706 2.455 . S
U2686 O2707 2.449 . S
O2687 U2686 2.454 . S
O2687 C2689 1.353 . S
O2688 U2686 2.458 . S
O2688 C2689 1.286 . S
C2689 U2686 2.984 . S
C2689 O2687 1.353 . S
C2689 O2688 1.286 . S
C2689 C2691 1.363 . S
C2690 C2680 1.465 . S
C2690 U2686 2.847 . S
C2690 O2704 1.249 . S
C2690 O2705 1.202 . S
C2691 C2689 1.363 . S
C2691 C2693 1.408 . S
C2691 C2696 1.342 . S
C2692 C2693 1.310 . S
C2692 C2695 1.461 . S
C2692 H2712 0.932 . S
C2693 C2691 1.408 . S
C2693 C2692 1.310 . S
C2693 H2713 0.930 . S
C2694 C2695 1.474 . S
C2694 C2696 1.285 . S
C2694 H2714 0.929 . S
C2695 C2692 1.461 . S
C2695 C2694 1.474 . S
C2696 C2691 1.342 . S
C2696 C2694 1.285 . S
C2696 H2715 0.930 . S
C2697 C2700 1.424 . S
C2697 C2702 1.245 . S
C2697 C2703 1.428 . S
C2698 C2701 1.260 . S
C2698 C2702 1.477 . S
C2698 H2716 0.932 . S
C2699 C2700 1.384 . S
C2699 C2701 1.479 . S
C2699 H2717 0.929 . S
C2700 C2697 1.424 . S
C2700 C2699 1.384 . S
C2700 H2718 0.928 . S
C2701 C2698 1.260 . S
C2701 C2699 1.479 . S
C2702 C2697 1.245 . S
C2702 C2698 1.477 . S
C2702 H2719 0.932 . S
C2703 U2686 2.882 . S
C2703 C2697 1.428 . S
C2703 O2706 1.301 . S
C2703 O2707 1.282 . S
O2704 U2686 2.441 . S
O2704 C2690 1.249 . S
O2705 U2686 2.420 . S
O2705 C2690 1.202 . S
O2706 U2686 2.455 . S
O2706 C2703 1.301 . S
O2707 U2686 2.449 . S
O2707 C2703 1.282 . S
H2708 C2681 0.931 . S
H2709 C2683 0.929 . S
H2710 C2684 0.930 . S
H2711 C2685 0.931 . S
H2712 C2692 0.932 . S
H2713 C2693 0.930 . S
H2714 C2694 0.929 . S
H2715 C2696 0.930 . S
H2716 C2698 0.932 . S
H2717 C2699 0.929 . S
H2718 C2700 0.928 . S
H2719 C2702 0.932 . S
C2720 C2721 1.264 . S
C2720 C2725 1.479 . S
C2720 C2730 1.465 . S
C2721 C2720 1.264 . S
C2721 C2723 1.339 . S
C2721 H2748 0.931 . S
C2722 C2723 1.395 . S
C2722 C2724 1.320 . S
C2723 C2721 1.339 . S
C2723 C2722 1.395 . S
C2723 H2749 0.929 . S
C2724 C2722 1.320 . S
C2724 C2725 1.405 . S
C2724 H2750 0.930 . S
C2725 C2720 1.479 . S
C2725 C2724 1.405 . S
C2725 H2751 0.931 . S
U2726 O2727 2.454 . S
U2726 O2728 2.458 . S
U2726 C2729 2.984 . S
U2726 C2730 2.847 . S
U2726 C2743 2.882 . S
U2726 O2744 2.441 . S
U2726 O2745 2.420 . S
U2726 O2746 2.455 . S
U2726 O2747 2.449 . S
O2727 U2726 2.454 . S
O2727 C2729 1.353 . S
O2728 U2726 2.458 . S
O2728 C2729 1.286 . S
C2729 U2726 2.984 . S
C2729 O2727 1.353 . S
C2729 O2728 1.286 . S
C2729 C2731 1.363 . S
C2730 C2720 1.465 . S
C2730 U2726 2.847 . S
C2730 O2744 1.249 . S
C2730 O2745 1.202 . S
C2731 C2729 1.363 . S
C2731 C2733 1.408 . S
C2731 C2736 1.342 . S
C2732 C2733 1.310 . S
C2732 C2735 1.461 . S
C2732 H2752 0.932 . S
C2733 C2731 1.408 . S
C2733 C2732 1.310 . S
C2733 H2753 0.930 . S
C2734 C2735 1.474 . S
C2734 C2736 1.285 . S
C2734 H2754 0.929 . S
C2735 C2732 1.461 . S
C2735 C2734 1.474 . S
C2736 C2731 1.342 . S
C2736 C2734 1.285 . S
C2736 H2755 0.930 . S
C2737 C2740 1.424 . S
C2737 C2742 1.245 . S
C2737 C2743 1.428 . S
C2738 C2741 1.260 . S
C2738 C2742 1.477 . S
C2738 H2756 0.932 . S
C2739 C2740 1.384 . S
C2739 C2741 1.479 . S
C2739 H2757 0.929 . S
C2740 C2737 1.424 . S
C2740 C2739 1.384 . S
C2740 H2758 0.928 . S
C2741 C2738 1.260 . S
C2741 C2739 1.479 . S
C2742 C2737 1.245 . S
C2742 C2738 1.477 . S
C2742 H2759 0.932 . S
C2743 U2726 2.882 . S
C2743 C2737 1.428 . S
C2743 O2746 1.301 . S
C2743 O2747 1.282 . S
O2744 U2726 2.441 . S
O2744 C2730 1.249 . S
O2745 U2726 2.420 . S
O2745 C2730 1.202 . S
O2746 U2726 2.455 . S
O2746 C2743 1.301 . S
O2747 U2726 2.449 . S
O2747 C2743 1.282 . S
H2748 C2721 0.931 . S
H2749 C2723 0.929 . S
H2750 C2724 0.930 . S
H2751 C2725 0.931 . S
H2752 C2732 0.932 . S
H2753 C2733 0.930 . S
H2754 C2734 0.929 . S
H2755 C2736 0.930 . S
H2756 C2738 0.932 . S
H2757 C2739 0.929 . S
H2758 C2740 0.928 . S
H2759 C2742 0.932 . S
C2760 C2761 1.264 . S
C2760 C2765 1.479 . S
C2760 C2770 1.465 . S
C2761 C2760 1.264 . S
C2761 C2763 1.339 . S
C2761 H2788 0.931 . S
C2762 C2763 1.395 . S
C2762 C2764 1.320 . S
C2763 C2761 1.339 . S
C2763 C2762 1.395 . S
C2763 H2789 0.929 . S
C2764 C2762 1.320 . S
C2764 C2765 1.405 . S
C2764 H2790 0.930 . S
C2765 C2760 1.479 . S
C2765 C2764 1.405 . S
C2765 H2791 0.931 . S
U2766 O2767 2.454 . S
U2766 O2768 2.458 . S
U2766 C2769 2.984 . S
U2766 C2770 2.847 . S
U2766 C2783 2.882 . S
U2766 O2784 2.441 . S
U2766 O2785 2.420 . S
U2766 O2786 2.455 . S
U2766 O2787 2.449 . S
O2767 U2766 2.454 . S
O2767 C2769 1.353 . S
O2768 U2766 2.458 . S
O2768 C2769 1.286 . S
C2769 U2766 2.984 . S
C2769 O2767 1.353 . S
C2769 O2768 1.286 . S
C2769 C2771 1.363 . S
C2770 C2760 1.465 . S
C2770 U2766 2.847 . S
C2770 O2784 1.249 . S
C2770 O2785 1.202 . S
C2771 C2769 1.363 . S
C2771 C2773 1.408 . S
C2771 C2776 1.342 . S
C2772 C2773 1.310 . S
C2772 C2775 1.461 . S
C2772 H2792 0.932 . S
C2773 C2771 1.408 . S
C2773 C2772 1.310 . S
C2773 H2793 0.930 . S
C2774 C2775 1.474 . S
C2774 C2776 1.285 . S
C2774 H2794 0.929 . S
C2775 C2772 1.461 . S
C2775 C2774 1.474 . S
C2776 C2771 1.342 . S
C2776 C2774 1.285 . S
C2776 H2795 0.930 . S
C2777 C2780 1.424 . S
C2777 C2782 1.245 . S
C2777 C2783 1.428 . S
C2778 C2781 1.260 . S
C2778 C2782 1.477 . S
C2778 H2796 0.932 . S
C2779 C2780 1.384 . S
C2779 C2781 1.479 . S
C2779 H2797 0.929 . S
C2780 C2777 1.424 . S
C2780 C2779 1.384 . S
C2780 H2798 0.928 . S
C2781 C2778 1.260 . S
C2781 C2779 1.479 . S
C2782 C2777 1.245 . S
C2782 C2778 1.477 . S
C2782 H2799 0.932 . S
C2783 U2766 2.882 . S
C2783 C2777 1.428 . S
C2783 O2786 1.301 . S
C2783 O2787 1.282 . S
O2784 U2766 2.441 . S
O2784 C2770 1.249 . S
O2785 U2766 2.420 . S
O2785 C2770 1.202 . S
O2786 U2766 2.455 . S
O2786 C2783 1.301 . S
O2787 U2766 2.449 . S
O2787 C2783 1.282 . S
H2788 C2761 0.931 . S
H2789 C2763 0.929 . S
H2790 C2764 0.930 . S
H2791 C2765 0.931 . S
H2792 C2772 0.932 . S
H2793 C2773 0.930 . S
H2794 C2774 0.929 . S
H2795 C2776 0.930 . S
H2796 C2778 0.932 . S
H2797 C2779 0.929 . S
H2798 C2780 0.928 . S
H2799 C2782 0.932 . S
C2800 C2801 1.264 . S
C2800 C2805 1.479 . S
C2800 C2810 1.465 . S
C2801 C2800 1.264 . S
C2801 C2803 1.339 1_545 S
C2801 H2828 0.931 . S
C2802 C2803 1.395 . S
C2802 C2804 1.354 . S
C2803 C2801 1.339 1_565 S
C2803 C2802 1.395 . S
C2803 H2829 0.929 . S
C2804 C2802 1.354 . S
C2804 C2805 1.351 1_565 S
C2804 H2830 0.956 . S
C2805 C2800 1.479 . S
C2805 C2804 1.351 1_545 S
C2805 H2831 0.931 . S
U2806 O2807 2.454 . S
U2806 O2808 2.458 . S
U2806 C2809 2.984 . S
U2806 C2810 2.847 . S
U2806 C2823 2.882 . S
U2806 O2824 2.441 . S
U2806 O2825 2.420 . S
U2806 O2826 2.455 . S
U2806 O2827 2.449 . S
O2807 U2806 2.454 . S
O2807 C2809 1.353 . S
O2808 U2806 2.458 . S
O2808 C2809 1.286 . S
C2809 U2806 2.984 . S
C2809 O2807 1.353 . S
C2809 O2808 1.286 . S
C2809 C2811 1.363 . S
C2810 C2800 1.465 . S
C2810 U2806 2.847 . S
C2810 O2824 1.249 . S
C2810 O2825 1.202 . S
C2811 C2809 1.363 . S
C2811 C2813 1.408 . S
C2811 C2816 1.342 . S
C2812 C2813 1.310 . S
C2812 C2815 1.461 . S
C2812 H2832 0.932 . S
C2813 C2811 1.408 . S
C2813 C2812 1.310 . S
C2813 H2833 0.930 . S
C2814 C2815 1.474 . S
C2814 C2816 1.285 . S
C2814 H2834 0.929 . S
C2815 C2812 1.461 . S
C2815 C2814 1.474 . S
C2816 C2811 1.342 . S
C2816 C2814 1.285 . S
C2816 H2835 0.930 . S
C2817 C2820 1.424 . S
C2817 C2822 1.245 . S
C2817 C2823 1.428 . S
C2818 C2821 1.260 . S
C2818 C2822 1.477 . S
C2818 H2836 0.932 . S
C2819 C2820 1.384 . S
C2819 C2821 1.479 . S
C2819 H2837 0.929 . S
C2820 C2817 1.424 . S
C2820 C2819 1.384 . S
C2820 H2838 0.928 . S
C2821 C2818 1.260 . S
C2821 C2819 1.479 . S
C2822 C2817 1.245 . S
C2822 C2818 1.477 . S
C2822 H2839 0.932 . S
C2823 U2806 2.882 . S
C2823 C2817 1.428 . S
C2823 O2826 1.301 . S
C2823 O2827 1.282 . S
O2824 U2806 2.441 . S
O2824 C2810 1.249 . S
O2825 U2806 2.420 . S
O2825 C2810 1.202 . S
O2826 U2806 2.455 . S
O2826 C2823 1.301 . S
O2827 U2806 2.449 . S
O2827 C2823 1.282 . S
H2828 C2801 0.931 . S
H2829 C2803 0.929 . S
H2830 C2804 0.956 . S
H2831 C2805 0.931 . S
H2832 C2812 0.932 . S
H2833 C2813 0.930 . S
H2834 C2814 0.929 . S
H2835 C2816 0.930 . S
H2836 C2818 0.932 . S
H2837 C2819 0.929 . S
H2838 C2820 0.928 . S
H2839 C2822 0.932 . S
C2840 C2841 1.264 . S
C2840 C2845 1.479 . S
C2840 C2850 1.465 . S
C2841 C2840 1.264 . S
C2841 C2843 1.339 1_565 S
C2841 H2868 0.931 . S
C2842 C2843 1.395 . S
C2842 C2844 1.354 . S
C2843 C2841 1.339 1_545 S
C2843 C2842 1.395 . S
C2843 H2869 0.929 . S
C2844 C2842 1.354 . S
C2844 C2845 1.351 1_545 S
C2844 H2870 0.956 . S
C2845 C2840 1.479 . S
C2845 C2844 1.351 1_565 S
C2845 H2871 0.931 . S
U2846 O2847 2.454 . S
U2846 O2848 2.458 . S
U2846 C2849 2.984 . S
U2846 C2850 2.847 . S
U2846 C2863 2.882 . S
U2846 O2864 2.441 . S
U2846 O2865 2.420 . S
U2846 O2866 2.455 . S
U2846 O2867 2.449 . S
O2847 U2846 2.454 . S
O2847 C2849 1.353 . S
O2848 U2846 2.458 . S
O2848 C2849 1.286 . S
C2849 U2846 2.984 . S
C2849 O2847 1.353 . S
C2849 O2848 1.286 . S
C2849 C2851 1.363 . S
C2850 C2840 1.465 . S
C2850 U2846 2.847 . S
C2850 O2864 1.249 . S
C2850 O2865 1.202 . S
C2851 C2849 1.363 . S
C2851 C2853 1.408 . S
C2851 C2856 1.342 . S
C2852 C2853 1.310 . S
C2852 C2855 1.461 . S
C2852 H2872 0.932 . S
C2853 C2851 1.408 . S
C2853 C2852 1.310 . S
C2853 H2873 0.930 . S
C2854 C2855 1.474 . S
C2854 C2856 1.285 . S
C2854 H2874 0.929 . S
C2855 C2852 1.461 . S
C2855 C2854 1.474 . S
C2856 C2851 1.342 . S
C2856 C2854 1.285 . S
C2856 H2875 0.930 . S
C2857 C2860 1.424 . S
C2857 C2862 1.245 . S
C2857 C2863 1.428 . S
C2858 C2861 1.260 . S
C2858 C2862 1.477 . S
C2858 H2876 0.932 . S
C2859 C2860 1.384 . S
C2859 C2861 1.479 . S
C2859 H2877 0.929 . S
C2860 C2857 1.424 . S
C2860 C2859 1.384 . S
C2860 H2878 0.928 . S
C2861 C2858 1.260 . S
C2861 C2859 1.479 . S
C2862 C2857 1.245 . S
C2862 C2858 1.477 . S
C2862 H2879 0.932 . S
C2863 U2846 2.882 . S
C2863 C2857 1.428 . S
C2863 O2866 1.301 . S
C2863 O2867 1.282 . S
O2864 U2846 2.441 . S
O2864 C2850 1.249 . S
O2865 U2846 2.420 . S
O2865 C2850 1.202 . S
O2866 U2846 2.455 . S
O2866 C2863 1.301 . S
O2867 U2846 2.449 . S
O2867 C2863 1.282 . S
H2868 C2841 0.931 . S
H2869 C2843 0.929 . S
H2870 C2844 0.956 . S
H2871 C2845 0.931 . S
H2872 C2852 0.932 . S
H2873 C2853 0.930 . S
H2874 C2854 0.929 . S
H2875 C2856 0.930 . S
H2876 C2858 0.932 . S
H2877 C2859 0.929 . S
H2878 C2860 0.928 . S
H2879 C2862 0.932 . S
C2880 C2881 1.264 . S
C2880 C2885 1.479 . S
C2880 C2890 1.465 . S
C2881 C2880 1.264 . S
C2881 C2883 1.339 . S
C2881 H2908 0.931 . S
C2882 C2883 1.395 . S
C2882 C2884 1.320 . S
C2883 C2881 1.339 . S
C2883 C2882 1.395 . S
C2883 H2909 0.929 . S
C2884 C2882 1.320 . S
C2884 C2885 1.405 . S
C2884 H2910 0.930 . S
C2885 C2880 1.479 . S
C2885 C2884 1.405 . S
C2885 H2911 0.931 . S
U2886 O2887 2.454 . S
U2886 O2888 2.458 . S
U2886 C2889 2.984 . S
U2886 C2890 2.847 . S
U2886 C2903 2.882 . S
U2886 O2904 2.441 . S
U2886 O2905 2.420 . S
U2886 O2906 2.455 . S
U2886 O2907 2.449 . S
O2887 U2886 2.454 . S
O2887 C2889 1.353 . S
O2888 U2886 2.458 . S
O2888 C2889 1.286 . S
C2889 U2886 2.984 . S
C2889 O2887 1.353 . S
C2889 O2888 1.286 . S
C2889 C2891 1.363 . S
C2890 C2880 1.465 . S
C2890 U2886 2.847 . S
C2890 O2904 1.249 . S
C2890 O2905 1.202 . S
C2891 C2889 1.363 . S
C2891 C2893 1.408 . S
C2891 C2896 1.342 . S
C2892 C2893 1.310 . S
C2892 C2895 1.461 . S
C2892 H2912 0.932 . S
C2893 C2891 1.408 . S
C2893 C2892 1.310 . S
C2893 H2913 0.930 . S
C2894 C2895 1.474 . S
C2894 C2896 1.285 . S
C2894 H2914 0.929 . S
C2895 C2892 1.461 . S
C2895 C2894 1.474 . S
C2896 C2891 1.342 . S
C2896 C2894 1.285 . S
C2896 H2915 0.930 . S
C2897 C2900 1.424 . S
C2897 C2902 1.245 . S
C2897 C2903 1.428 . S
C2898 C2901 1.260 . S
C2898 C2902 1.477 . S
C2898 H2916 0.932 . S
C2899 C2900 1.384 . S
C2899 C2901 1.479 . S
C2899 H2917 0.929 . S
C2900 C2897 1.424 . S
C2900 C2899 1.384 . S
C2900 H2918 0.928 . S
C2901 C2898 1.260 . S
C2901 C2899 1.479 . S
C2902 C2897 1.245 . S
C2902 C2898 1.477 . S
C2902 H2919 0.932 . S
C2903 U2886 2.882 . S
C2903 C2897 1.428 . S
C2903 O2906 1.301 . S
C2903 O2907 1.282 . S
O2904 U2886 2.441 . S
O2904 C2890 1.249 . S
O2905 U2886 2.420 . S
O2905 C2890 1.202 . S
O2906 U2886 2.455 . S
O2906 C2903 1.301 . S
O2907 U2886 2.449 . S
O2907 C2903 1.282 . S
H2908 C2881 0.931 . S
H2909 C2883 0.929 . S
H2910 C2884 0.930 . S
H2911 C2885 0.931 . S
H2912 C2892 0.932 . S
H2913 C2893 0.930 . S
H2914 C2894 0.929 . S
H2915 C2896 0.930 . S
H2916 C2898 0.932 . S
H2917 C2899 0.929 . S
H2918 C2900 0.928 . S
H2919 C2902 0.932 . S
C2920 C2921 1.264 . S
C2920 C2925 1.479 . S
C2920 C2930 1.465 . S
C2921 C2920 1.264 . S
C2921 C2923 1.339 . S
C2921 H2948 0.931 . S
C2922 C2923 1.395 . S
C2922 C2924 1.320 . S
C2923 C2921 1.339 . S
C2923 C2922 1.395 . S
C2923 H2949 0.929 . S
C2924 C2922 1.320 . S
C2924 C2925 1.405 . S
C2924 H2950 0.930 . S
C2925 C2920 1.479 . S
C2925 C2924 1.405 . S
C2925 H2951 0.931 . S
U2926 O2927 2.454 . S
U2926 O2928 2.458 . S
U2926 C2929 2.984 . S
U2926 C2930 2.847 . S
U2926 C2943 2.882 . S
U2926 O2944 2.441 . S
U2926 O2945 2.420 . S
U2926 O2946 2.455 . S
U2926 O2947 2.449 . S
O2927 U2926 2.454 . S
O2927 C2929 1.353 . S
O2928 U2926 2.458 . S
O2928 C2929 1.286 . S
C2929 U2926 2.984 . S
C2929 O2927 1.353 . S
C2929 O2928 1.286 . S
C2929 C2931 1.363 . S
C2930 C2920 1.465 . S
C2930 U2926 2.847 . S
C2930 O2944 1.249 . S
C2930 O2945 1.202 . S
C2931 C2929 1.363 . S
C2931 C2933 1.408 . S
C2931 C2936 1.342 . S
C2932 C2933 1.310 . S
C2932 C2935 1.461 . S
C2932 H2952 0.932 . S
C2933 C2931 1.408 . S
C2933 C2932 1.310 . S
C2933 H2953 0.930 . S
C2934 C2935 1.474 . S
C2934 C2936 1.285 . S
C2934 H2954 0.929 . S
C2935 C2932 1.461 . S
C2935 C2934 1.474 . S
C2936 C2931 1.342 . S
C2936 C2934 1.285 . S
C2936 H2955 0.930 . S
C2937 C2940 1.424 . S
C2937 C2942 1.245 . S
C2937 C2943 1.428 . S
C2938 C2941 1.260 . S
C2938 C2942 1.477 . S
C2938 H2956 0.932 . S
C2939 C2940 1.384 . S
C2939 C2941 1.479 . S
C2939 H2957 0.929 . S
C2940 C2937 1.424 . S
C2940 C2939 1.384 . S
C2940 H2958 0.928 . S
C2941 C2938 1.260 . S
C2941 C2939 1.479 . S
C2942 C2937 1.245 . S
C2942 C2938 1.477 . S
C2942 H2959 0.932 . S
C2943 U2926 2.882 . S
C2943 C2937 1.428 . S
C2943 O2946 1.301 . S
C2943 O2947 1.282 . S
O2944 U2926 2.441 . S
O2944 C2930 1.249 . S
O2945 U2926 2.420 . S
O2945 C2930 1.202 . S
O2946 U2926 2.455 . S
O2946 C2943 1.301 . S
O2947 U2926 2.449 . S
O2947 C2943 1.282 . S
H2948 C2921 0.931 . S
H2949 C2923 0.929 . S
H2950 C2924 0.930 . S
H2951 C2925 0.931 . S
H2952 C2932 0.932 . S
H2953 C2933 0.930 . S
H2954 C2934 0.929 . S
H2955 C2936 0.930 . S
H2956 C2938 0.932 . S
H2957 C2939 0.929 . S
H2958 C2940 0.928 . S
H2959 C2942 0.932 . S
C2960 C2961 1.264 . S
C2960 C2965 1.479 . S
C2960 C2970 1.465 . S
C2961 C2960 1.264 . S
C2961 C2963 1.339 . S
C2961 H2988 0.931 . S
C2962 C2963 1.395 . S
C2962 C2964 1.320 . S
C2963 C2961 1.339 . S
C2963 C2962 1.395 . S
C2963 H2989 0.929 . S
C2964 C2962 1.320 . S
C2964 C2965 1.405 . S
C2964 H2990 0.930 . S
C2965 C2960 1.479 . S
C2965 C2964 1.405 . S
C2965 H2991 0.931 . S
U2966 O2967 2.454 . S
U2966 O2968 2.458 . S
U2966 C2969 2.984 . S
U2966 C2970 2.847 . S
U2966 C2983 2.882 . S
U2966 O2984 2.441 . S
U2966 O2985 2.420 . S
U2966 O2986 2.455 . S
U2966 O2987 2.449 . S
O2967 U2966 2.454 . S
O2967 C2969 1.353 . S
O2968 U2966 2.458 . S
O2968 C2969 1.286 . S
C2969 U2966 2.984 . S
C2969 O2967 1.353 . S
C2969 O2968 1.286 . S
C2969 C2971 1.363 . S
C2970 C2960 1.465 . S
C2970 U2966 2.847 . S
C2970 O2984 1.249 . S
C2970 O2985 1.202 . S
C2971 C2969 1.363 . S
C2971 C2973 1.408 . S
C2971 C2976 1.342 . S
C2972 C2973 1.310 . S
C2972 C2975 1.461 . S
C2972 H2992 0.932 . S
C2973 C2971 1.408 . S
C2973 C2972 1.310 . S
C2973 H2993 0.930 . S
C2974 C2975 1.474 . S
C2974 C2976 1.285 . S
C2974 H2994 0.929 . S
C2975 C2972 1.461 . S
C2975 C2974 1.474 . S
C2976 C2971 1.342 . S
C2976 C2974 1.285 . S
C2976 H2995 0.930 . S
C2977 C2980 1.424 . S
C2977 C2982 1.245 . S
C2977 C2983 1.428 . S
C2978 C2981 1.260 . S
C2978 C2982 1.477 . S
C2978 H2996 0.932 . S
C2979 C2980 1.384 . S
C2979 C2981 1.479 . S
C2979 H2997 0.929 . S
C2980 C2977 1.424 . S
C2980 C2979 1.384 . S
C2980 H2998 0.928 . S
C2981 C2978 1.260 . S
C2981 C2979 1.479 . S
C2982 C2977 1.245 . S
C2982 C2978 1.477 . S
C2982 H2999 0.932 . S
C2983 U2966 2.882 . S
C2983 C2977 1.428 . S
C2983 O2986 1.301 . S
C2983 O2987 1.282 . S
O2984 U2966 2.441 . S
O2984 C2970 1.249 . S
O2985 U2966 2.420 . S
O2985 C2970 1.202 . S
O2986 U2966 2.455 . S
O2986 C2983 1.301 . S
O2987 U2966 2.449 . S
O2987 C2983 1.282 . S
H2988 C2961 0.931 . S
H2989 C2963 0.929 . S
H2990 C2964 0.930 . S
H2991 C2965 0.931 . S
H2992 C2972 0.932 . S
H2993 C2973 0.930 . S
H2994 C2974 0.929 . S
H2995 C2976 0.930 . S
H2996 C2978 0.932 . S
H2997 C2979 0.929 . S
H2998 C2980 0.928 . S
H2999 C2982 0.932 . S
C3000 C3001 1.264 . S
C3000 C3005 1.479 . S
C3000 C3010 1.465 . S
C3001 C3000 1.264 . S
C3001 C3003 1.339 . S
C3001 H3028 0.931 . S
C3002 C3003 1.395 1_655 S
C3002 C3004 1.301 1_655 S
C3003 C3001 1.339 . S
C3003 C3002 1.395 1_455 S
C3003 H3029 0.929 1_455 S
C3004 C3002 1.301 1_455 S
C3004 C3005 1.448 . S
C3004 H3030 0.907 1_455 S
C3005 C3000 1.479 . S
C3005 C3004 1.448 . S
C3005 H3031 0.931 . S
U3006 O3007 2.454 . S
U3006 O3008 2.458 . S
U3006 C3009 2.984 . S
U3006 C3010 2.847 . S
U3006 C3023 2.882 . S
U3006 O3024 2.441 . S
U3006 O3025 2.420 . S
U3006 O3026 2.455 . S
U3006 O3027 2.449 . S
O3007 U3006 2.454 . S
O3007 C3009 1.353 . S
O3008 U3006 2.458 . S
O3008 C3009 1.286 . S
C3009 U3006 2.984 . S
C3009 O3007 1.353 . S
C3009 O3008 1.286 . S
C3009 C3011 1.363 . S
C3010 C3000 1.465 . S
C3010 U3006 2.847 . S
C3010 O3024 1.249 . S
C3010 O3025 1.202 . S
C3011 C3009 1.363 . S
C3011 C3013 1.408 . S
C3011 C3016 1.342 . S
C3012 C3013 1.310 . S
C3012 C3015 1.461 . S
C3012 H3032 0.932 . S
C3013 C3011 1.408 . S
C3013 C3012 1.310 . S
C3013 H3033 0.930 . S
C3014 C3015 1.474 . S
C3014 C3016 1.285 . S
C3014 H3034 0.929 . S
C3015 C3012 1.461 . S
C3015 C3014 1.474 . S
C3016 C3011 1.342 . S
C3016 C3014 1.285 . S
C3016 H3035 0.930 . S
C3017 C3020 1.424 . S
C3017 C3022 1.245 . S
C3017 C3023 1.428 . S
C3018 C3021 1.260 . S
C3018 C3022 1.477 . S
C3018 H3036 0.932 . S
C3019 C3020 1.384 . S
C3019 C3021 1.479 . S
C3019 H3037 0.929 . S
C3020 C3017 1.424 . S
C3020 C3019 1.384 . S
C3020 H3038 0.928 . S
C3021 C3018 1.260 . S
C3021 C3019 1.479 . S
C3022 C3017 1.245 . S
C3022 C3018 1.477 . S
C3022 H3039 0.932 . S
C3023 U3006 2.882 . S
C3023 C3017 1.428 . S
C3023 O3026 1.301 . S
C3023 O3027 1.282 . S
O3024 U3006 2.441 . S
O3024 C3010 1.249 . S
O3025 U3006 2.420 . S
O3025 C3010 1.202 . S
O3026 U3006 2.455 . S
O3026 C3023 1.301 . S
O3027 U3006 2.449 . S
O3027 C3023 1.282 . S
H3028 C3001 0.931 . S
H3029 C3003 0.929 1_655 S
H3030 C3004 0.907 1_655 S
H3031 C3005 0.931 . S
H3032 C3012 0.932 . S
H3033 C3013 0.930 . S
H3034 C3014 0.929 . S
H3035 C3016 0.930 . S
H3036 C3018 0.932 . S
H3037 C3019 0.929 . S
H3038 C3020 0.928 . S
H3039 C3022 0.932 . S
C3040 C3041 1.264 . S
C3040 C3045 1.479 . S
C3040 C3050 1.465 . S
C3041 C3040 1.264 . S
C3041 C3043 1.339 . S
C3041 H3068 0.931 . S
C3042 C3043 1.395 . S
C3042 C3044 1.320 . S
C3043 C3041 1.339 . S
C3043 C3042 1.395 . S
C3043 H3069 0.929 . S
C3044 C3042 1.320 . S
C3044 C3045 1.405 . S
C3044 H3070 0.930 . S
C3045 C3040 1.479 . S
C3045 C3044 1.405 . S
C3045 H3071 0.931 . S
U3046 O3047 2.454 . S
U3046 O3048 2.458 . S
U3046 C3049 2.984 . S
U3046 C3050 2.847 . S
U3046 C3063 2.882 . S
U3046 O3064 2.441 . S
U3046 O3065 2.420 . S
U3046 O3066 2.455 . S
U3046 O3067 2.449 . S
O3047 U3046 2.454 . S
O3047 C3049 1.353 . S
O3048 U3046 2.458 . S
O3048 C3049 1.286 . S
C3049 U3046 2.984 . S
C3049 O3047 1.353 . S
C3049 O3048 1.286 . S
C3049 C3051 1.363 . S
C3050 C3040 1.465 . S
C3050 U3046 2.847 . S
C3050 O3064 1.249 . S
C3050 O3065 1.202 . S
C3051 C3049 1.363 . S
C3051 C3053 1.408 . S
C3051 C3056 1.342 . S
C3052 C3053 1.310 . S
C3052 C3055 1.461 . S
C3052 H3072 0.932 . S
C3053 C3051 1.408 . S
C3053 C3052 1.310 . S
C3053 H3073 0.930 . S
C3054 C3055 1.474 . S
C3054 C3056 1.285 . S
C3054 H3074 0.929 . S
C3055 C3052 1.461 . S
C3055 C3054 1.474 . S
C3056 C3051 1.342 . S
C3056 C3054 1.285 . S
C3056 H3075 0.930 . S
C3057 C3060 1.424 . S
C3057 C3062 1.245 . S
C3057 C3063 1.428 . S
C3058 C3061 1.260 . S
C3058 C3062 1.477 . S
C3058 H3076 0.932 . S
C3059 C3060 1.384 . S
C3059 C3061 1.479 . S
C3059 H3077 0.929 . S
C3060 C3057 1.424 . S
C3060 C3059 1.384 . S
C3060 H3078 0.928 . S
C3061 C3058 1.260 . S
C3061 C3059 1.479 . S
C3062 C3057 1.245 . S
C3062 C3058 1.477 . S
C3062 H3079 0.932 . S
C3063 U3046 2.882 . S
C3063 C3057 1.428 . S
C3063 O3066 1.301 . S
C3063 O3067 1.282 . S
O3064 U3046 2.441 . S
O3064 C3050 1.249 . S
O3065 U3046 2.420 . S
O3065 C3050 1.202 . S
O3066 U3046 2.455 . S
O3066 C3063 1.301 . S
O3067 U3046 2.449 . S
O3067 C3063 1.282 . S
H3068 C3041 0.931 . S
H3069 C3043 0.929 . S
H3070 C3044 0.930 . S
H3071 C3045 0.931 . S
H3072 C3052 0.932 . S
H3073 C3053 0.930 . S
H3074 C3054 0.929 . S
H3075 C3056 0.930 . S
H3076 C3058 0.932 . S
H3077 C3059 0.929 . S
H3078 C3060 0.928 . S
H3079 C3062 0.932 . S
C3080 C3081 1.264 . S
C3080 C3085 1.479 . S
C3080 C3090 1.465 . S
C3081 C3080 1.264 . S
C3081 C3083 1.339 . S
C3081 H3108 0.931 . S
C3082 C3083 1.395 1_655 S
C3082 C3084 1.301 1_655 S
C3083 C3081 1.339 . S
C3083 C3082 1.395 1_455 S
C3083 H3109 0.929 1_455 S
C3084 C3082 1.301 1_455 S
C3084 C3085 1.448 . S
C3084 H3110 0.907 1_455 S
C3085 C3080 1.479 . S
C3085 C3084 1.448 . S
C3085 H3111 0.931 . S
U3086 O3087 2.454 . S
U3086 O3088 2.458 . S
U3086 C3089 2.984 . S
U3086 C3090 2.847 . S
U3086 C3103 2.882 . S
U3086 O3104 2.441 . S
U3086 O3105 2.420 . S
U3086 O3106 2.455 . S
U3086 O3107 2.449 . S
O3087 U3086 2.454 . S
O3087 C3089 1.353 . S
O3088 U3086 2.458 . S
O3088 C3089 1.286 . S
C3089 U3086 2.984 . S
C3089 O3087 1.353 . S
C3089 O3088 1.286 . S
C3089 C3091 1.363 . S
C3090 C3080 1.465 . S
C3090 U3086 2.847 . S
C3090 O3104 1.249 . S
C3090 O3105 1.202 . S
C3091 C3089 1.363 . S
C3091 C3093 1.408 . S
C3091 C3096 1.342 . S
C3092 C3093 1.310 . S
C3092 C3095 1.461 . S
C3092 H3112 0.932 . S
C3093 C3091 1.408 . S
C3093 C3092 1.310 . S
C3093 H3113 0.930 . S
C3094 C3095 1.474 . S
C3094 C3096 1.285 . S
C3094 H3114 0.929 . S
C3095 C3092 1.461 . S
C3095 C3094 1.474 . S
C3096 C3091 1.342 . S
C3096 C3094 1.285 . S
C3096 H3115 0.930 . S
C3097 C3100 1.424 . S
C3097 C3102 1.245 . S
C3097 C3103 1.428 . S
C3098 C3101 1.260 . S
C3098 C3102 1.477 . S
C3098 H3116 0.932 . S
C3099 C3100 1.384 . S
C3099 C3101 1.479 . S
C3099 H3117 0.929 . S
C3100 C3097 1.424 . S
C3100 C3099 1.384 . S
C3100 H3118 0.928 . S
C3101 C3098 1.260 . S
C3101 C3099 1.479 . S
C3102 C3097 1.245 . S
C3102 C3098 1.477 . S
C3102 H3119 0.932 . S
C3103 U3086 2.882 . S
C3103 C3097 1.428 . S
C3103 O3106 1.301 . S
C3103 O3107 1.282 . S
O3104 U3086 2.441 . S
O3104 C3090 1.249 . S
O3105 U3086 2.420 . S
O3105 C3090 1.202 . S
O3106 U3086 2.455 . S
O3106 C3103 1.301 . S
O3107 U3086 2.449 . S
O3107 C3103 1.282 . S
H3108 C3081 0.931 . S
H3109 C3083 0.929 1_655 S
H3110 C3084 0.907 1_655 S
H3111 C3085 0.931 . S
H3112 C3092 0.932 . S
H3113 C3093 0.930 . S
H3114 C3094 0.929 . S
H3115 C3096 0.930 . S
H3116 C3098 0.932 . S
H3117 C3099 0.929 . S
H3118 C3100 0.928 . S
H3119 C3102 0.932 . S
C3120 C3121 1.264 . S
C3120 C3125 1.479 . S
C3120 C3130 1.465 . S
C3121 C3120 1.264 . S
C3121 C3123 1.339 . S
C3121 H3148 0.931 . S
C3122 C3123 1.395 . S
C3122 C3124 1.320 . S
C3123 C3121 1.339 . S
C3123 C3122 1.395 . S
C3123 H3149 0.929 . S
C3124 C3122 1.320 . S
C3124 C3125 1.405 . S
C3124 H3150 0.930 . S
C3125 C3120 1.479 . S
C3125 C3124 1.405 . S
C3125 H3151 0.931 . S
U3126 O3127 2.454 . S
U3126 O3128 2.458 . S
U3126 C3129 2.984 . S
U3126 C3130 2.847 . S
U3126 C3143 2.882 . S
U3126 O3144 2.441 . S
U3126 O3145 2.420 . S
U3126 O3146 2.455 . S
U3126 O3147 2.449 . S
O3127 U3126 2.454 . S
O3127 C3129 1.353 . S
O3128 U3126 2.458 . S
O3128 C3129 1.286 . S
C3129 U3126 2.984 . S
C3129 O3127 1.353 . S
C3129 O3128 1.286 . S
C3129 C3131 1.363 . S
C3130 C3120 1.465 . S
C3130 U3126 2.847 . S
C3130 O3144 1.249 . S
C3130 O3145 1.202 . S
C3131 C3129 1.363 . S
C3131 C3133 1.408 . S
C3131 C3136 1.342 . S
C3132 C3133 1.310 . S
C3132 C3135 1.461 . S
C3132 H3152 0.932 . S
C3133 C3131 1.408 . S
C3133 C3132 1.310 . S
C3133 H3153 0.930 . S
C3134 C3135 1.474 . S
C3134 C3136 1.285 . S
C3134 H3154 0.929 . S
C3135 C3132 1.461 . S
C3135 C3134 1.474 . S
C3136 C3131 1.342 . S
C3136 C3134 1.285 . S
C3136 H3155 0.930 . S
C3137 C3140 1.424 . S
C3137 C3142 1.245 . S
C3137 C3143 1.428 . S
C3138 C3141 1.260 . S
C3138 C3142 1.477 . S
C3138 H3156 0.932 . S
C3139 C3140 1.384 . S
C3139 C3141 1.479 . S
C3139 H3157 0.929 . S
C3140 C3137 1.424 . S
C3140 C3139 1.384 . S
C3140 H3158 0.928 . S
C3141 C3138 1.260 . S
C3141 C3139 1.479 . S
C3142 C3137 1.245 . S
C3142 C3138 1.477 . S
C3142 H3159 0.932 . S
C3143 U3126 2.882 . S
C3143 C3137 1.428 . S
C3143 O3146 1.301 . S
C3143 O3147 1.282 . S
O3144 U3126 2.441 . S
O3144 C3130 1.249 . S
O3145 U3126 2.420 . S
O3145 C3130 1.202 . S
O3146 U3126 2.455 . S
O3146 C3143 1.301 . S
O3147 U3126 2.449 . S
O3147 C3143 1.282 . S
H3148 C3121 0.931 . S
H3149 C3123 0.929 . S
H3150 C3124 0.930 . S
H3151 C3125 0.931 . S
H3152 C3132 0.932 . S
H3153 C3133 0.930 . S
H3154 C3134 0.929 . S
H3155 C3136 0.930 . S
H3156 C3138 0.932 . S
H3157 C3139 0.929 . S
H3158 C3140 0.928 . S
H3159 C3142 0.932 . S
C3160 C3161 1.264 . S
C3160 C3165 1.479 . S
C3160 C3170 1.465 . S
C3161 C3160 1.264 . S
C3161 C3163 1.339 . S
C3161 H3188 0.931 . S
C3162 C3163 1.395 . S
C3162 C3164 1.320 . S
C3163 C3161 1.339 . S
C3163 C3162 1.395 . S
C3163 H3189 0.929 . S
C3164 C3162 1.320 . S
C3164 C3165 1.405 . S
C3164 H3190 0.930 . S
C3165 C3160 1.479 . S
C3165 C3164 1.405 . S
C3165 H3191 0.931 . S
U3166 O3167 2.454 . S
U3166 O3168 2.458 . S
U3166 C3169 2.984 . S
U3166 C3170 2.847 . S
U3166 C3183 2.882 . S
U3166 O3184 2.441 . S
U3166 O3185 2.420 . S
U3166 O3186 2.455 . S
U3166 O3187 2.449 . S
O3167 U3166 2.454 . S
O3167 C3169 1.353 . S
O3168 U3166 2.458 . S
O3168 C3169 1.286 . S
C3169 U3166 2.984 . S
C3169 O3167 1.353 . S
C3169 O3168 1.286 . S
C3169 C3171 1.363 . S
C3170 C3160 1.465 . S
C3170 U3166 2.847 . S
C3170 O3184 1.249 . S
C3170 O3185 1.202 . S
C3171 C3169 1.363 . S
C3171 C3173 1.408 . S
C3171 C3176 1.342 . S
C3172 C3173 1.310 . S
C3172 C3175 1.461 . S
C3172 H3192 0.932 . S
C3173 C3171 1.408 . S
C3173 C3172 1.310 . S
C3173 H3193 0.930 . S
C3174 C3175 1.474 . S
C3174 C3176 1.285 . S
C3174 H3194 0.929 . S
C3175 C3172 1.461 . S
C3175 C3174 1.474 . S
C3176 C3171 1.342 . S
C3176 C3174 1.285 . S
C3176 H3195 0.930 . S
C3177 C3180 1.424 . S
C3177 C3182 1.245 . S
C3177 C3183 1.428 . S
C3178 C3181 1.260 . S
C3178 C3182 1.477 . S
C3178 H3196 0.932 . S
C3179 C3180 1.384 . S
C3179 C3181 1.479 . S
C3179 H3197 0.929 . S
C3180 C3177 1.424 . S
C3180 C3179 1.384 . S
C3180 H3198 0.928 . S
C3181 C3178 1.260 . S
C3181 C3179 1.479 . S
C3182 C3177 1.245 . S
C3182 C3178 1.477 . S
C3182 H3199 0.932 . S
C3183 U3166 2.882 . S
C3183 C3177 1.428 . S
C3183 O3186 1.301 . S
C3183 O3187 1.282 . S
O3184 U3166 2.441 . S
O3184 C3170 1.249 . S
O3185 U3166 2.420 . S
O3185 C3170 1.202 . S
O3186 U3166 2.455 . S
O3186 C3183 1.301 . S
O3187 U3166 2.449 . S
O3187 C3183 1.282 . S
H3188 C3161 0.931 . S
H3189 C3163 0.929 . S
H3190 C3164 0.930 . S
H3191 C3165 0.931 . S
H3192 C3172 0.932 . S
H3193 C3173 0.930 . S
H3194 C3174 0.929 . S
H3195 C3176 0.930 . S
H3196 C3178 0.932 . S
H3197 C3179 0.929 . S
H3198 C3180 0.928 . S
H3199 C3182 0.932 . S
C3200 C3201 1.264 . S
C3200 C3205 1.479 . S
C3200 C3210 1.465 . S
C3201 C3200 1.264 . S
C3201 C3203 1.339 . S
C3201 H3228 0.931 . S
C3202 C3203 1.395 . S
C3202 C3204 1.320 . S
C3203 C3201 1.339 . S
C3203 C3202 1.395 . S
C3203 H3229 0.929 . S
C3204 C3202 1.320 . S
C3204 C3205 1.405 . S
C3204 H3230 0.930 . S
C3205 C3200 1.479 . S
C3205 C3204 1.405 . S
C3205 H3231 0.931 . S
U3206 O3207 2.454 . S
U3206 O3208 2.458 . S
U3206 C3209 2.984 . S
U3206 C3210 2.847 . S
U3206 C3223 2.882 . S
U3206 O3224 2.441 . S
U3206 O3225 2.420 . S
U3206 O3226 2.455 . S
U3206 O3227 2.449 . S
O3207 U3206 2.454 . S
O3207 C3209 1.353 . S
O3208 U3206 2.458 . S
O3208 C3209 1.286 . S
C3209 U3206 2.984 . S
C3209 O3207 1.353 . S
C3209 O3208 1.286 . S
C3209 C3211 1.363 . S
C3210 C3200 1.465 . S
C3210 U3206 2.847 . S
C3210 O3224 1.249 . S
C3210 O3225 1.202 . S
C3211 C3209 1.363 . S
C3211 C3213 1.408 . S
C3211 C3216 1.342 . S
C3212 C3213 1.310 . S
C3212 C3215 1.461 . S
C3212 H3232 0.932 . S
C3213 C3211 1.408 . S
C3213 C3212 1.310 . S
C3213 H3233 0.930 . S
C3214 C3215 1.474 . S
C3214 C3216 1.285 . S
C3214 H3234 0.929 . S
C3215 C3212 1.461 . S
C3215 C3214 1.474 . S
C3216 C3211 1.342 . S
C3216 C3214 1.285 . S
C3216 H3235 0.930 . S
C3217 C3220 1.424 . S
C3217 C3222 1.245 . S
C3217 C3223 1.428 . S
C3218 C3221 1.260 . S
C3218 C3222 1.477 . S
C3218 H3236 0.932 . S
C3219 C3220 1.384 . S
C3219 C3221 1.479 . S
C3219 H3237 0.929 . S
C3220 C3217 1.424 . S
C3220 C3219 1.384 . S
C3220 H3238 0.928 . S
C3221 C3218 1.260 . S
C3221 C3219 1.479 . S
C3222 C3217 1.245 . S
C3222 C3218 1.477 . S
C3222 H3239 0.932 . S
C3223 U3206 2.882 . S
C3223 C3217 1.428 . S
C3223 O3226 1.301 . S
C3223 O3227 1.282 . S
O3224 U3206 2.441 . S
O3224 C3210 1.249 . S
O3225 U3206 2.420 . S
O3225 C3210 1.202 . S
O3226 U3206 2.455 . S
O3226 C3223 1.301 . S
O3227 U3206 2.449 . S
O3227 C3223 1.282 . S
H3228 C3201 0.931 . S
H3229 C3203 0.929 . S
H3230 C3204 0.930 . S
H3231 C3205 0.931 . S
H3232 C3212 0.932 . S
H3233 C3213 0.930 . S
H3234 C3214 0.929 . S
H3235 C3216 0.930 . S
H3236 C3218 0.932 . S
H3237 C3219 0.929 . S
H3238 C3220 0.928 . S
H3239 C3222 0.932 . S
C3240 C3241 1.264 . S
C3240 C3245 1.479 . S
C3240 C3250 1.465 . S
C3241 C3240 1.264 . S
C3241 C3243 1.339 . S
C3241 H3268 0.931 . S
C3242 C3243 1.395 1_556 S
C3242 C3244 1.301 1_556 S
C3243 C3241 1.339 . S
C3243 C3242 1.395 1_554 S
C3243 H3269 0.929 1_554 S
C3244 C3242 1.301 1_554 S
C3244 C3245 1.448 . S
C3244 H3270 0.907 1_554 S
C3245 C3240 1.479 . S
C3245 C3244 1.448 . S
C3245 H3271 0.931 . S
U3246 O3247 2.454 . S
U3246 O3248 2.458 . S
U3246 C3249 2.984 . S
U3246 C3250 2.847 . S
U3246 C3263 2.882 . S
U3246 O3264 2.441 . S
U3246 O3265 2.420 . S
U3246 O3266 2.455 . S
U3246 O3267 2.449 . S
O3247 U3246 2.454 . S
O3247 C3249 1.353 . S
O3248 U3246 2.458 . S
O3248 C3249 1.286 . S
C3249 U3246 2.984 . S
C3249 O3247 1.353 . S
C3249 O3248 1.286 . S
C3249 C3251 1.363 . S
C3250 C3240 1.465 . S
C3250 U3246 2.847 . S
C3250 O3264 1.249 . S
C3250 O3265 1.202 . S
C3251 C3249 1.363 . S
C3251 C3253 1.408 . S
C3251 C3256 1.342 . S
C3252 C3253 1.310 . S
C3252 C3255 1.461 . S
C3252 H3272 0.932 . S
C3253 C3251 1.408 . S
C3253 C3252 1.310 . S
C3253 H3273 0.930 . S
C3254 C3255 1.474 . S
C3254 C3256 1.285 . S
C3254 H3274 0.929 . S
C3255 C3252 1.461 . S
C3255 C3254 1.474 . S
C3256 C3251 1.342 . S
C3256 C3254 1.285 . S
C3256 H3275 0.930 . S
C3257 C3260 1.424 . S
C3257 C3262 1.245 . S
C3257 C3263 1.428 . S
C3258 C3261 1.260 . S
C3258 C3262 1.477 . S
C3258 H3276 0.932 . S
C3259 C3260 1.384 . S
C3259 C3261 1.479 . S
C3259 H3277 0.929 . S
C3260 C3257 1.424 . S
C3260 C3259 1.384 . S
C3260 H3278 0.928 . S
C3261 C3258 1.260 . S
C3261 C3259 1.479 . S
C3262 C3257 1.245 . S
C3262 C3258 1.477 . S
C3262 H3279 0.932 . S
C3263 U3246 2.882 . S
C3263 C3257 1.428 . S
C3263 O3266 1.301 . S
C3263 O3267 1.282 . S
O3264 U3246 2.441 . S
O3264 C3250 1.249 . S
O3265 U3246 2.420 . S
O3265 C3250 1.202 . S
O3266 U3246 2.455 . S
O3266 C3263 1.301 . S
O3267 U3246 2.449 . S
O3267 C3263 1.282 . S
H3268 C3241 0.931 . S
H3269 C3243 0.929 1_556 S
H3270 C3244 0.907 1_556 S
H3271 C3245 0.931 . S
H3272 C3252 0.932 . S
H3273 C3253 0.930 . S
H3274 C3254 0.929 . S
H3275 C3256 0.930 . S
H3276 C3258 0.932 . S
H3277 C3259 0.929 . S
H3278 C3260 0.928 . S
H3279 C3262 0.932 . S
C3280 C3281 1.264 . S
C3280 C3285 1.479 . S
C3280 C3290 1.465 . S
C3281 C3280 1.264 . S
C3281 C3283 1.339 . S
C3281 H3308 0.931 . S
C3282 C3283 1.395 . S
C3282 C3284 1.320 . S
C3283 C3281 1.339 . S
C3283 C3282 1.395 . S
C3283 H3309 0.929 . S
C3284 C3282 1.320 . S
C3284 C3285 1.405 . S
C3284 H3310 0.930 . S
C3285 C3280 1.479 . S
C3285 C3284 1.405 . S
C3285 H3311 0.931 . S
U3286 O3287 2.454 . S
U3286 O3288 2.458 . S
U3286 C3289 2.984 . S
U3286 C3290 2.847 . S
U3286 C3303 2.882 . S
U3286 O3304 2.441 . S
U3286 O3305 2.420 . S
U3286 O3306 2.455 . S
U3286 O3307 2.449 . S
O3287 U3286 2.454 . S
O3287 C3289 1.353 . S
O3288 U3286 2.458 . S
O3288 C3289 1.286 . S
C3289 U3286 2.984 . S
C3289 O3287 1.353 . S
C3289 O3288 1.286 . S
C3289 C3291 1.363 . S
C3290 C3280 1.465 . S
C3290 U3286 2.847 . S
C3290 O3304 1.249 . S
C3290 O3305 1.202 . S
C3291 C3289 1.363 . S
C3291 C3293 1.408 . S
C3291 C3296 1.342 . S
C3292 C3293 1.310 . S
C3292 C3295 1.461 . S
C3292 H3312 0.932 . S
C3293 C3291 1.408 . S
C3293 C3292 1.310 . S
C3293 H3313 0.930 . S
C3294 C3295 1.474 . S
C3294 C3296 1.285 . S
C3294 H3314 0.929 . S
C3295 C3292 1.461 . S
C3295 C3294 1.474 . S
C3296 C3291 1.342 . S
C3296 C3294 1.285 . S
C3296 H3315 0.930 . S
C3297 C3300 1.424 . S
C3297 C3302 1.245 . S
C3297 C3303 1.428 . S
C3298 C3301 1.260 . S
C3298 C3302 1.477 . S
C3298 H3316 0.932 . S
C3299 C3300 1.384 . S
C3299 C3301 1.479 . S
C3299 H3317 0.929 . S
C3300 C3297 1.424 . S
C3300 C3299 1.384 . S
C3300 H3318 0.928 . S
C3301 C3298 1.260 . S
C3301 C3299 1.479 . S
C3302 C3297 1.245 . S
C3302 C3298 1.477 . S
C3302 H3319 0.932 . S
C3303 U3286 2.882 . S
C3303 C3297 1.428 . S
C3303 O3306 1.301 . S
C3303 O3307 1.282 . S
O3304 U3286 2.441 . S
O3304 C3290 1.249 . S
O3305 U3286 2.420 . S
O3305 C3290 1.202 . S
O3306 U3286 2.455 . S
O3306 C3303 1.301 . S
O3307 U3286 2.449 . S
O3307 C3303 1.282 . S
H3308 C3281 0.931 . S
H3309 C3283 0.929 . S
H3310 C3284 0.930 . S
H3311 C3285 0.931 . S
H3312 C3292 0.932 . S
H3313 C3293 0.930 . S
H3314 C3294 0.929 . S
H3315 C3296 0.930 . S
H3316 C3298 0.932 . S
H3317 C3299 0.929 . S
H3318 C3300 0.928 . S
H3319 C3302 0.932 . S
C3320 C3321 1.264 . S
C3320 C3325 1.479 . S
C3320 C3330 1.465 . S
C3321 C3320 1.264 . S
C3321 C3323 1.339 . S
C3321 H3348 0.931 . S
C3322 C3323 1.395 . S
C3322 C3324 1.320 . S
C3323 C3321 1.339 . S
C3323 C3322 1.395 . S
C3323 H3349 0.929 . S
C3324 C3322 1.320 . S
C3324 C3325 1.405 . S
C3324 H3350 0.930 . S
C3325 C3320 1.479 . S
C3325 C3324 1.405 . S
C3325 H3351 0.931 . S
U3326 O3327 2.454 . S
U3326 O3328 2.458 . S
U3326 C3329 2.984 . S
U3326 C3330 2.847 . S
U3326 C3343 2.882 . S
U3326 O3344 2.441 . S
U3326 O3345 2.420 . S
U3326 O3346 2.455 . S
U3326 O3347 2.449 . S
O3327 U3326 2.454 . S
O3327 C3329 1.353 . S
O3328 U3326 2.458 . S
O3328 C3329 1.286 . S
C3329 U3326 2.984 . S
C3329 O3327 1.353 . S
C3329 O3328 1.286 . S
C3329 C3331 1.363 . S
C3330 C3320 1.465 . S
C3330 U3326 2.847 . S
C3330 O3344 1.249 . S
C3330 O3345 1.202 . S
C3331 C3329 1.363 . S
C3331 C3333 1.408 . S
C3331 C3336 1.342 . S
C3332 C3333 1.310 . S
C3332 C3335 1.461 . S
C3332 H3352 0.932 . S
C3333 C3331 1.408 . S
C3333 C3332 1.310 . S
C3333 H3353 0.930 . S
C3334 C3335 1.474 . S
C3334 C3336 1.285 . S
C3334 H3354 0.929 . S
C3335 C3332 1.461 . S
C3335 C3334 1.474 . S
C3336 C3331 1.342 . S
C3336 C3334 1.285 . S
C3336 H3355 0.930 . S
C3337 C3340 1.424 . S
C3337 C3342 1.245 . S
C3337 C3343 1.428 . S
C3338 C3341 1.260 . S
C3338 C3342 1.477 . S
C3338 H3356 0.932 . S
C3339 C3340 1.384 . S
C3339 C3341 1.479 . S
C3339 H3357 0.929 . S
C3340 C3337 1.424 . S
C3340 C3339 1.384 . S
C3340 H3358 0.928 . S
C3341 C3338 1.260 . S
C3341 C3339 1.479 . S
C3342 C3337 1.245 . S
C3342 C3338 1.477 . S
C3342 H3359 0.932 . S
C3343 U3326 2.882 . S
C3343 C3337 1.428 . S
C3343 O3346 1.301 . S
C3343 O3347 1.282 . S
O3344 U3326 2.441 . S
O3344 C3330 1.249 . S
O3345 U3326 2.420 . S
O3345 C3330 1.202 . S
O3346 U3326 2.455 . S
O3346 C3343 1.301 . S
O3347 U3326 2.449 . S
O3347 C3343 1.282 . S
H3348 C3321 0.931 . S
H3349 C3323 0.929 . S
H3350 C3324 0.930 . S
H3351 C3325 0.931 . S
H3352 C3332 0.932 . S
H3353 C3333 0.930 . S
H3354 C3334 0.929 . S
H3355 C3336 0.930 . S
H3356 C3338 0.932 . S
H3357 C3339 0.929 . S
H3358 C3340 0.928 . S
H3359 C3342 0.932 . S
C3360 C3361 1.264 . S
C3360 C3365 1.479 . S
C3360 C3370 1.465 . S
C3361 C3360 1.264 . S
C3361 C3363 1.339 . S
C3361 H3388 0.931 . S
C3362 C3363 1.395 . S
C3362 C3364 1.320 . S
C3363 C3361 1.339 . S
C3363 C3362 1.395 . S
C3363 H3389 0.929 . S
C3364 C3362 1.320 . S
C3364 C3365 1.405 . S
C3364 H3390 0.930 . S
C3365 C3360 1.479 . S
C3365 C3364 1.405 . S
C3365 H3391 0.931 . S
U3366 O3367 2.454 . S
U3366 O3368 2.458 . S
U3366 C3369 2.984 . S
U3366 C3370 2.847 . S
U3366 C3383 2.882 . S
U3366 O3384 2.441 . S
U3366 O3385 2.420 . S
U3366 O3386 2.455 . S
U3366 O3387 2.449 . S
O3367 U3366 2.454 . S
O3367 C3369 1.353 . S
O3368 U3366 2.458 . S
O3368 C3369 1.286 . S
C3369 U3366 2.984 . S
C3369 O3367 1.353 . S
C3369 O3368 1.286 . S
C3369 C3371 1.363 . S
C3370 C3360 1.465 . S
C3370 U3366 2.847 . S
C3370 O3384 1.249 . S
C3370 O3385 1.202 . S
C3371 C3369 1.363 . S
C3371 C3373 1.408 . S
C3371 C3376 1.342 . S
C3372 C3373 1.310 . S
C3372 C3375 1.461 . S
C3372 H3392 0.932 . S
C3373 C3371 1.408 . S
C3373 C3372 1.310 . S
C3373 H3393 0.930 . S
C3374 C3375 1.474 . S
C3374 C3376 1.285 . S
C3374 H3394 0.929 . S
C3375 C3372 1.461 . S
C3375 C3374 1.474 . S
C3376 C3371 1.342 . S
C3376 C3374 1.285 . S
C3376 H3395 0.930 . S
C3377 C3380 1.424 . S
C3377 C3382 1.245 . S
C3377 C3383 1.428 . S
C3378 C3381 1.260 . S
C3378 C3382 1.477 . S
C3378 H3396 0.932 . S
C3379 C3380 1.384 . S
C3379 C3381 1.479 . S
C3379 H3397 0.929 . S
C3380 C3377 1.424 . S
C3380 C3379 1.384 . S
C3380 H3398 0.928 . S
C3381 C3378 1.260 . S
C3381 C3379 1.479 . S
C3382 C3377 1.245 . S
C3382 C3378 1.477 . S
C3382 H3399 0.932 . S
C3383 U3366 2.882 . S
C3383 C3377 1.428 . S
C3383 O3386 1.301 . S
C3383 O3387 1.282 . S
O3384 U3366 2.441 . S
O3384 C3370 1.249 . S
O3385 U3366 2.420 . S
O3385 C3370 1.202 . S
O3386 U3366 2.455 . S
O3386 C3383 1.301 . S
O3387 U3366 2.449 . S
O3387 C3383 1.282 . S
H3388 C3361 0.931 . S
H3389 C3363 0.929 . S
H3390 C3364 0.930 . S
H3391 C3365 0.931 . S
H3392 C3372 0.932 . S
H3393 C3373 0.930 . S
H3394 C3374 0.929 . S
H3395 C3376 0.930 . S
H3396 C3378 0.932 . S
H3397 C3379 0.929 . S
H3398 C3380 0.928 . S
H3399 C3382 0.932 . S
C3400 C3401 1.264 . S
C3400 C3405 1.479 . S
C3400 C3410 1.465 . S
C3401 C3400 1.264 . S
C3401 C3403 1.339 . S
C3401 H3428 0.931 . S
C3402 C3403 1.395 1_554 S
C3402 C3404 1.301 1_554 S
C3403 C3401 1.339 . S
C3403 C3402 1.395 1_556 S
C3403 H3429 0.929 1_556 S
C3404 C3402 1.301 1_556 S
C3404 C3405 1.448 . S
C3404 H3430 0.907 1_556 S
C3405 C3400 1.479 . S
C3405 C3404 1.448 . S
C3405 H3431 0.931 . S
U3406 O3407 2.454 . S
U3406 O3408 2.458 . S
U3406 C3409 2.984 . S
U3406 C3410 2.847 . S
U3406 C3423 2.882 . S
U3406 O3424 2.441 . S
U3406 O3425 2.420 . S
U3406 O3426 2.455 . S
U3406 O3427 2.449 . S
O3407 U3406 2.454 . S
O3407 C3409 1.353 . S
O3408 U3406 2.458 . S
O3408 C3409 1.286 . S
C3409 U3406 2.984 . S
C3409 O3407 1.353 . S
C3409 O3408 1.286 . S
C3409 C3411 1.363 . S
C3410 C3400 1.465 . S
C3410 U3406 2.847 . S
C3410 O3424 1.249 . S
C3410 O3425 1.202 . S
C3411 C3409 1.363 . S
C3411 C3413 1.408 . S
C3411 C3416 1.342 . S
C3412 C3413 1.310 . S
C3412 C3415 1.461 . S
C3412 H3432 0.932 . S
C3413 C3411 1.408 . S
C3413 C3412 1.310 . S
C3413 H3433 0.930 . S
C3414 C3415 1.474 . S
C3414 C3416 1.285 . S
C3414 H3434 0.929 . S
C3415 C3412 1.461 . S
C3415 C3414 1.474 . S
C3416 C3411 1.342 . S
C3416 C3414 1.285 . S
C3416 H3435 0.930 . S
C3417 C3420 1.424 . S
C3417 C3422 1.245 . S
C3417 C3423 1.428 . S
C3418 C3421 1.260 . S
C3418 C3422 1.477 . S
C3418 H3436 0.932 . S
C3419 C3420 1.384 . S
C3419 C3421 1.479 . S
C3419 H3437 0.929 . S
C3420 C3417 1.424 . S
C3420 C3419 1.384 . S
C3420 H3438 0.928 . S
C3421 C3418 1.260 . S
C3421 C3419 1.479 . S
C3422 C3417 1.245 . S
C3422 C3418 1.477 . S
C3422 H3439 0.932 . S
C3423 U3406 2.882 . S
C3423 C3417 1.428 . S
C3423 O3426 1.301 . S
C3423 O3427 1.282 . S
O3424 U3406 2.441 . S
O3424 C3410 1.249 . S
O3425 U3406 2.420 . S
O3425 C3410 1.202 . S
O3426 U3406 2.455 . S
O3426 C3423 1.301 . S
O3427 U3406 2.449 . S
O3427 C3423 1.282 . S
H3428 C3401 0.931 . S
H3429 C3403 0.929 1_554 S
H3430 C3404 0.907 1_554 S
H3431 C3405 0.931 . S
H3432 C3412 0.932 . S
H3433 C3413 0.930 . S
H3434 C3414 0.929 . S
H3435 C3416 0.930 . S
H3436 C3418 0.932 . S
H3437 C3419 0.929 . S
H3438 C3420 0.928 . S
H3439 C3422 0.932 . S
C3440 C3441 1.264 . S
C3440 C3445 1.479 . S
C3440 C3450 1.465 . S
C3441 C3440 1.264 . S
C3441 C3443 1.339 . S
C3441 H3468 0.931 . S
C3442 C3443 1.395 . S
C3442 C3444 1.320 . S
C3443 C3441 1.339 . S
C3443 C3442 1.395 . S
C3443 H3469 0.929 . S
C3444 C3442 1.320 . S
C3444 C3445 1.405 . S
C3444 H3470 0.930 . S
C3445 C3440 1.479 . S
C3445 C3444 1.405 . S
C3445 H3471 0.931 . S
U3446 O3447 2.454 . S
U3446 O3448 2.458 . S
U3446 C3449 2.984 . S
U3446 C3450 2.847 . S
U3446 C3463 2.882 . S
U3446 O3464 2.441 . S
U3446 O3465 2.420 . S
U3446 O3466 2.455 . S
U3446 O3467 2.449 . S
O3447 U3446 2.454 . S
O3447 C3449 1.353 . S
O3448 U3446 2.458 . S
O3448 C3449 1.286 . S
C3449 U3446 2.984 . S
C3449 O3447 1.353 . S
C3449 O3448 1.286 . S
C3449 C3451 1.363 . S
C3450 C3440 1.465 . S
C3450 U3446 2.847 . S
C3450 O3464 1.249 . S
C3450 O3465 1.202 . S
C3451 C3449 1.363 . S
C3451 C3453 1.408 . S
C3451 C3456 1.342 . S
C3452 C3453 1.310 . S
C3452 C3455 1.461 . S
C3452 H3472 0.932 . S
C3453 C3451 1.408 . S
C3453 C3452 1.310 . S
C3453 H3473 0.930 . S
C3454 C3455 1.474 . S
C3454 C3456 1.285 . S
C3454 H3474 0.929 . S
C3455 C3452 1.461 . S
C3455 C3454 1.474 . S
C3456 C3451 1.342 . S
C3456 C3454 1.285 . S
C3456 H3475 0.930 . S
C3457 C3460 1.424 . S
C3457 C3462 1.245 . S
C3457 C3463 1.428 . S
C3458 C3461 1.260 . S
C3458 C3462 1.477 . S
C3458 H3476 0.932 . S
C3459 C3460 1.384 . S
C3459 C3461 1.479 . S
C3459 H3477 0.929 . S
C3460 C3457 1.424 . S
C3460 C3459 1.384 . S
C3460 H3478 0.928 . S
C3461 C3458 1.260 . S
C3461 C3459 1.479 . S
C3462 C3457 1.245 . S
C3462 C3458 1.477 . S
C3462 H3479 0.932 . S
C3463 U3446 2.882 . S
C3463 C3457 1.428 . S
C3463 O3466 1.301 . S
C3463 O3467 1.282 . S
O3464 U3446 2.441 . S
O3464 C3450 1.249 . S
O3465 U3446 2.420 . S
O3465 C3450 1.202 . S
O3466 U3446 2.455 . S
O3466 C3463 1.301 . S
O3467 U3446 2.449 . S
O3467 C3463 1.282 . S
H3468 C3441 0.931 . S
H3469 C3443 0.929 . S
H3470 C3444 0.930 . S
H3471 C3445 0.931 . S
H3472 C3452 0.932 . S
H3473 C3453 0.930 . S
H3474 C3454 0.929 . S
H3475 C3456 0.930 . S
H3476 C3458 0.932 . S
H3477 C3459 0.929 . S
H3478 C3460 0.928 . S
H3479 C3462 0.932 . S
C3480 C3481 1.264 . S
C3480 C3485 1.479 . S
C3480 C3490 1.465 . S
C3481 C3480 1.264 . S
C3481 C3483 1.339 . S
C3481 H3508 0.931 . S
C3482 C3483 1.395 . S
C3482 C3484 1.320 . S
C3483 C3481 1.339 . S
C3483 C3482 1.395 . S
C3483 H3509 0.929 . S
C3484 C3482 1.320 . S
C3484 C3485 1.405 . S
C3484 H3510 0.930 . S
C3485 C3480 1.479 . S
C3485 C3484 1.405 . S
C3485 H3511 0.931 . S
U3486 O3487 2.454 . S
U3486 O3488 2.458 . S
U3486 C3489 2.984 . S
U3486 C3490 2.847 . S
U3486 C3503 2.882 . S
U3486 O3504 2.441 . S
U3486 O3505 2.420 . S
U3486 O3506 2.455 . S
U3486 O3507 2.449 . S
O3487 U3486 2.454 . S
O3487 C3489 1.353 . S
O3488 U3486 2.458 . S
O3488 C3489 1.286 . S
C3489 U3486 2.984 . S
C3489 O3487 1.353 . S
C3489 O3488 1.286 . S
C3489 C3491 1.363 . S
C3490 C3480 1.465 . S
C3490 U3486 2.847 . S
C3490 O3504 1.249 . S
C3490 O3505 1.202 . S
C3491 C3489 1.363 . S
C3491 C3493 1.408 . S
C3491 C3496 1.342 . S
C3492 C3493 1.310 . S
C3492 C3495 1.461 . S
C3492 H3512 0.932 . S
C3493 C3491 1.408 . S
C3493 C3492 1.310 . S
C3493 H3513 0.930 . S
C3494 C3495 1.474 . S
C3494 C3496 1.285 . S
C3494 H3514 0.929 . S
C3495 C3492 1.461 . S
C3495 C3494 1.474 . S
C3496 C3491 1.342 . S
C3496 C3494 1.285 . S
C3496 H3515 0.930 . S
C3497 C3500 1.424 . S
C3497 C3502 1.245 . S
C3497 C3503 1.428 . S
C3498 C3501 1.260 . S
C3498 C3502 1.477 . S
C3498 H3516 0.932 . S
C3499 C3500 1.384 . S
C3499 C3501 1.479 . S
C3499 H3517 0.929 . S
C3500 C3497 1.424 . S
C3500 C3499 1.384 . S
C3500 H3518 0.928 . S
C3501 C3498 1.260 . S
C3501 C3499 1.479 . S
C3502 C3497 1.245 . S
C3502 C3498 1.477 . S
C3502 H3519 0.932 . S
C3503 U3486 2.882 . S
C3503 C3497 1.428 . S
C3503 O3506 1.301 . S
C3503 O3507 1.282 . S
O3504 U3486 2.441 . S
O3504 C3490 1.249 . S
O3505 U3486 2.420 . S
O3505 C3490 1.202 . S
O3506 U3486 2.455 . S
O3506 C3503 1.301 . S
O3507 U3486 2.449 . S
O3507 C3503 1.282 . S
H3508 C3481 0.931 . S
H3509 C3483 0.929 . S
H3510 C3484 0.930 . S
H3511 C3485 0.931 . S
H3512 C3492 0.932 . S
H3513 C3493 0.930 . S
H3514 C3494 0.929 . S
H3515 C3496 0.930 . S
H3516 C3498 0.932 . S
H3517 C3499 0.929 . S
H3518 C3500 0.928 . S
H3519 C3502 0.932 . S
C3520 C3521 1.264 . S
C3520 C3525 1.479 . S
C3520 C3530 1.465 . S
C3521 C3520 1.264 . S
C3521 C3523 1.339 . S
C3521 H3548 0.931 . S
C3522 C3523 1.395 . S
C3522 C3524 1.320 . S
C3523 C3521 1.339 . S
C3523 C3522 1.395 . S
C3523 H3549 0.929 . S
C3524 C3522 1.320 . S
C3524 C3525 1.405 . S
C3524 H3550 0.930 . S
C3525 C3520 1.479 . S
C3525 C3524 1.405 . S
C3525 H3551 0.931 . S
U3526 O3527 2.454 . S
U3526 O3528 2.458 . S
U3526 C3529 2.984 . S
U3526 C3530 2.847 . S
U3526 C3543 2.882 . S
U3526 O3544 2.441 . S
U3526 O3545 2.420 . S
U3526 O3546 2.455 . S
U3526 O3547 2.449 . S
O3527 U3526 2.454 . S
O3527 C3529 1.353 . S
O3528 U3526 2.458 . S
O3528 C3529 1.286 . S
C3529 U3526 2.984 . S
C3529 O3527 1.353 . S
C3529 O3528 1.286 . S
C3529 C3531 1.363 . S
C3530 C3520 1.465 . S
C3530 U3526 2.847 . S
C3530 O3544 1.249 . S
C3530 O3545 1.202 . S
C3531 C3529 1.363 . S
C3531 C3533 1.408 . S
C3531 C3536 1.342 . S
C3532 C3533 1.310 . S
C3532 C3535 1.461 . S
C3532 H3552 0.932 . S
C3533 C3531 1.408 . S
C3533 C3532 1.310 . S
C3533 H3553 0.930 . S
C3534 C3535 1.474 . S
C3534 C3536 1.285 . S
C3534 H3554 0.929 . S
C3535 C3532 1.461 . S
C3535 C3534 1.474 . S
C3536 C3531 1.342 . S
C3536 C3534 1.285 . S
C3536 H3555 0.930 . S
C3537 C3540 1.424 . S
C3537 C3542 1.245 . S
C3537 C3543 1.428 . S
C3538 C3541 1.260 . S
C3538 C3542 1.477 . S
C3538 H3556 0.932 . S
C3539 C3540 1.384 . S
C3539 C3541 1.479 . S
C3539 H3557 0.929 . S
C3540 C3537 1.424 . S
C3540 C3539 1.384 . S
C3540 H3558 0.928 . S
C3541 C3538 1.260 . S
C3541 C3539 1.479 . S
C3542 C3537 1.245 . S
C3542 C3538 1.477 . S
C3542 H3559 0.932 . S
C3543 U3526 2.882 . S
C3543 C3537 1.428 . S
C3543 O3546 1.301 . S
C3543 O3547 1.282 . S
O3544 U3526 2.441 . S
O3544 C3530 1.249 . S
O3545 U3526 2.420 . S
O3545 C3530 1.202 . S
O3546 U3526 2.455 . S
O3546 C3543 1.301 . S
O3547 U3526 2.449 . S
O3547 C3543 1.282 . S
H3548 C3521 0.931 . S
H3549 C3523 0.929 . S
H3550 C3524 0.930 . S
H3551 C3525 0.931 . S
H3552 C3532 0.932 . S
H3553 C3533 0.930 . S
H3554 C3534 0.929 . S
H3555 C3536 0.930 . S
H3556 C3538 0.932 . S
H3557 C3539 0.929 . S
H3558 C3540 0.928 . S
H3559 C3542 0.932 . S
C3560 C3561 1.264 . S
C3560 C3565 1.479 . S
C3560 C3570 1.465 . S
C3561 C3560 1.264 . S
C3561 C3563 1.339 . S
C3561 H3588 0.931 . S
C3562 C3563 1.395 . S
C3562 C3564 1.320 . S
C3563 C3561 1.339 . S
C3563 C3562 1.395 . S
C3563 H3589 0.929 . S
C3564 C3562 1.320 . S
C3564 C3565 1.405 . S
C3564 H3590 0.930 . S
C3565 C3560 1.479 . S
C3565 C3564 1.405 . S
C3565 H3591 0.931 . S
U3566 O3567 2.454 . S
U3566 O3568 2.458 . S
U3566 C3569 2.984 . S
U3566 C3570 2.847 . S
U3566 C3583 2.882 . S
U3566 O3584 2.441 . S
U3566 O3585 2.420 . S
U3566 O3586 2.455 . S
U3566 O3587 2.449 . S
O3567 U3566 2.454 . S
O3567 C3569 1.353 . S
O3568 U3566 2.458 . S
O3568 C3569 1.286 . S
C3569 U3566 2.984 . S
C3569 O3567 1.353 . S
C3569 O3568 1.286 . S
C3569 C3571 1.363 . S
C3570 C3560 1.465 . S
C3570 U3566 2.847 . S
C3570 O3584 1.249 . S
C3570 O3585 1.202 . S
C3571 C3569 1.363 . S
C3571 C3573 1.408 . S
C3571 C3576 1.342 . S
C3572 C3573 1.310 . S
C3572 C3575 1.461 . S
C3572 H3592 0.932 . S
C3573 C3571 1.408 . S
C3573 C3572 1.310 . S
C3573 H3593 0.930 . S
C3574 C3575 1.474 . S
C3574 C3576 1.285 . S
C3574 H3594 0.929 . S
C3575 C3572 1.461 . S
C3575 C3574 1.474 . S
C3576 C3571 1.342 . S
C3576 C3574 1.285 . S
C3576 H3595 0.930 . S
C3577 C3580 1.424 . S
C3577 C3582 1.245 . S
C3577 C3583 1.428 . S
C3578 C3581 1.260 . S
C3578 C3582 1.477 . S
C3578 H3596 0.932 . S
C3579 C3580 1.384 . S
C3579 C3581 1.479 . S
C3579 H3597 0.929 . S
C3580 C3577 1.424 . S
C3580 C3579 1.384 . S
C3580 H3598 0.928 . S
C3581 C3578 1.260 . S
C3581 C3579 1.479 . S
C3582 C3577 1.245 . S
C3582 C3578 1.477 . S
C3582 H3599 0.932 . S
C3583 U3566 2.882 . S
C3583 C3577 1.428 . S
C3583 O3586 1.301 . S
C3583 O3587 1.282 . S
O3584 U3566 2.441 . S
O3584 C3570 1.249 . S
O3585 U3566 2.420 . S
O3585 C3570 1.202 . S
O3586 U3566 2.455 . S
O3586 C3583 1.301 . S
O3587 U3566 2.449 . S
O3587 C3583 1.282 . S
H3588 C3561 0.931 . S
H3589 C3563 0.929 . S
H3590 C3564 0.930 . S
H3591 C3565 0.931 . S
H3592 C3572 0.932 . S
H3593 C3573 0.930 . S
H3594 C3574 0.929 . S
H3595 C3576 0.930 . S
H3596 C3578 0.932 . S
H3597 C3579 0.929 . S
H3598 C3580 0.928 . S
H3599 C3582 0.932 . S
C3600 C3601 1.264 . S
C3600 C3605 1.479 . S
C3600 C3610 1.465 . S
C3601 C3600 1.264 . S
C3601 C3603 1.339 . S
C3601 H3628 0.931 . S
C3602 C3603 1.395 1_565 S
C3602 C3604 1.301 1_565 S
C3603 C3601 1.339 . S
C3603 C3602 1.395 1_545 S
C3603 H3629 0.929 1_545 S
C3604 C3602 1.301 1_545 S
C3604 C3605 1.448 . S
C3604 H3630 0.907 1_545 S
C3605 C3600 1.479 . S
C3605 C3604 1.448 . S
C3605 H3631 0.931 . S
U3606 O3607 2.454 . S
U3606 O3608 2.458 . S
U3606 C3609 2.984 . S
U3606 C3610 2.847 . S
U3606 C3623 2.882 . S
U3606 O3624 2.441 . S
U3606 O3625 2.420 . S
U3606 O3626 2.455 . S
U3606 O3627 2.449 . S
O3607 U3606 2.454 . S
O3607 C3609 1.353 . S
O3608 U3606 2.458 . S
O3608 C3609 1.286 . S
C3609 U3606 2.984 . S
C3609 O3607 1.353 . S
C3609 O3608 1.286 . S
C3609 C3611 1.363 . S
C3610 C3600 1.465 . S
C3610 U3606 2.847 . S
C3610 O3624 1.249 . S
C3610 O3625 1.202 . S
C3611 C3609 1.363 . S
C3611 C3613 1.408 . S
C3611 C3616 1.342 . S
C3612 C3613 1.310 . S
C3612 C3615 1.461 . S
C3612 H3632 0.932 . S
C3613 C3611 1.408 . S
C3613 C3612 1.310 . S
C3613 H3633 0.930 . S
C3614 C3615 1.474 . S
C3614 C3616 1.285 . S
C3614 H3634 0.929 . S
C3615 C3612 1.461 . S
C3615 C3614 1.474 . S
C3616 C3611 1.342 . S
C3616 C3614 1.285 . S
C3616 H3635 0.930 . S
C3617 C3620 1.424 . S
C3617 C3622 1.245 . S
C3617 C3623 1.428 . S
C3618 C3621 1.260 . S
C3618 C3622 1.477 . S
C3618 H3636 0.932 . S
C3619 C3620 1.384 . S
C3619 C3621 1.479 . S
C3619 H3637 0.929 . S
C3620 C3617 1.424 . S
C3620 C3619 1.384 . S
C3620 H3638 0.928 . S
C3621 C3618 1.260 . S
C3621 C3619 1.479 . S
C3622 C3617 1.245 . S
C3622 C3618 1.477 . S
C3622 H3639 0.932 . S
C3623 U3606 2.882 . S
C3623 C3617 1.428 . S
C3623 O3626 1.301 . S
C3623 O3627 1.282 . S
O3624 U3606 2.441 . S
O3624 C3610 1.249 . S
O3625 U3606 2.420 . S
O3625 C3610 1.202 . S
O3626 U3606 2.455 . S
O3626 C3623 1.301 . S
O3627 U3606 2.449 . S
O3627 C3623 1.282 . S
H3628 C3601 0.931 . S
H3629 C3603 0.929 1_565 S
H3630 C3604 0.907 1_565 S
H3631 C3605 0.931 . S
H3632 C3612 0.932 . S
H3633 C3613 0.930 . S
H3634 C3614 0.929 . S
H3635 C3616 0.930 . S
H3636 C3618 0.932 . S
H3637 C3619 0.929 . S
H3638 C3620 0.928 . S
H3639 C3622 0.932 . S
C3640 C3641 1.264 . S
C3640 C3645 1.479 . S
C3640 C3650 1.465 . S
C3641 C3640 1.264 . S
C3641 C3643 1.339 . S
C3641 H3668 0.931 . S
C3642 C3643 1.395 . S
C3642 C3644 1.320 . S
C3643 C3641 1.339 . S
C3643 C3642 1.395 . S
C3643 H3669 0.929 . S
C3644 C3642 1.320 . S
C3644 C3645 1.405 . S
C3644 H3670 0.930 . S
C3645 C3640 1.479 . S
C3645 C3644 1.405 . S
C3645 H3671 0.931 . S
U3646 O3647 2.454 . S
U3646 O3648 2.458 . S
U3646 C3649 2.984 . S
U3646 C3650 2.847 . S
U3646 C3663 2.882 . S
U3646 O3664 2.441 . S
U3646 O3665 2.420 . S
U3646 O3666 2.455 . S
U3646 O3667 2.449 . S
O3647 U3646 2.454 . S
O3647 C3649 1.353 . S
O3648 U3646 2.458 . S
O3648 C3649 1.286 . S
C3649 U3646 2.984 . S
C3649 O3647 1.353 . S
C3649 O3648 1.286 . S
C3649 C3651 1.363 . S
C3650 C3640 1.465 . S
C3650 U3646 2.847 . S
C3650 O3664 1.249 . S
C3650 O3665 1.202 . S
C3651 C3649 1.363 . S
C3651 C3653 1.408 . S
C3651 C3656 1.342 . S
C3652 C3653 1.310 . S
C3652 C3655 1.461 . S
C3652 H3672 0.932 . S
C3653 C3651 1.408 . S
C3653 C3652 1.310 . S
C3653 H3673 0.930 . S
C3654 C3655 1.474 . S
C3654 C3656 1.285 . S
C3654 H3674 0.929 . S
C3655 C3652 1.461 . S
C3655 C3654 1.474 . S
C3656 C3651 1.342 . S
C3656 C3654 1.285 . S
C3656 H3675 0.930 . S
C3657 C3660 1.424 . S
C3657 C3662 1.245 . S
C3657 C3663 1.428 . S
C3658 C3661 1.260 . S
C3658 C3662 1.477 . S
C3658 H3676 0.932 . S
C3659 C3660 1.384 . S
C3659 C3661 1.479 . S
C3659 H3677 0.929 . S
C3660 C3657 1.424 . S
C3660 C3659 1.384 . S
C3660 H3678 0.928 . S
C3661 C3658 1.260 . S
C3661 C3659 1.479 . S
C3662 C3657 1.245 . S
C3662 C3658 1.477 . S
C3662 H3679 0.932 . S
C3663 U3646 2.882 . S
C3663 C3657 1.428 . S
C3663 O3666 1.301 . S
C3663 O3667 1.282 . S
O3664 U3646 2.441 . S
O3664 C3650 1.249 . S
O3665 U3646 2.420 . S
O3665 C3650 1.202 . S
O3666 U3646 2.455 . S
O3666 C3663 1.301 . S
O3667 U3646 2.449 . S
O3667 C3663 1.282 . S
H3668 C3641 0.931 . S
H3669 C3643 0.929 . S
H3670 C3644 0.930 . S
H3671 C3645 0.931 . S
H3672 C3652 0.932 . S
H3673 C3653 0.930 . S
H3674 C3654 0.929 . S
H3675 C3656 0.930 . S
H3676 C3658 0.932 . S
H3677 C3659 0.929 . S
H3678 C3660 0.928 . S
H3679 C3662 0.932 . S
C3680 C3681 1.264 . S
C3680 C3685 1.479 . S
C3680 C3690 1.465 . S
C3681 C3680 1.264 . S
C3681 C3683 1.339 . S
C3681 H3708 0.931 . S
C3682 C3683 1.395 . S
C3682 C3684 1.320 . S
C3683 C3681 1.339 . S
C3683 C3682 1.395 . S
C3683 H3709 0.929 . S
C3684 C3682 1.320 . S
C3684 C3685 1.405 . S
C3684 H3710 0.930 . S
C3685 C3680 1.479 . S
C3685 C3684 1.405 . S
C3685 H3711 0.931 . S
U3686 O3687 2.454 . S
U3686 O3688 2.458 . S
U3686 C3689 2.984 . S
U3686 C3690 2.847 . S
U3686 C3703 2.882 . S
U3686 O3704 2.441 . S
U3686 O3705 2.420 . S
U3686 O3706 2.455 . S
U3686 O3707 2.449 . S
O3687 U3686 2.454 . S
O3687 C3689 1.353 . S
O3688 U3686 2.458 . S
O3688 C3689 1.286 . S
C3689 U3686 2.984 . S
C3689 O3687 1.353 . S
C3689 O3688 1.286 . S
C3689 C3691 1.363 . S
C3690 C3680 1.465 . S
C3690 U3686 2.847 . S
C3690 O3704 1.249 . S
C3690 O3705 1.202 . S
C3691 C3689 1.363 . S
C3691 C3693 1.408 . S
C3691 C3696 1.342 . S
C3692 C3693 1.310 . S
C3692 C3695 1.461 . S
C3692 H3712 0.932 . S
C3693 C3691 1.408 . S
C3693 C3692 1.310 . S
C3693 H3713 0.930 . S
C3694 C3695 1.474 . S
C3694 C3696 1.285 . S
C3694 H3714 0.929 . S
C3695 C3692 1.461 . S
C3695 C3694 1.474 . S
C3696 C3691 1.342 . S
C3696 C3694 1.285 . S
C3696 H3715 0.930 . S
C3697 C3700 1.424 . S
C3697 C3702 1.245 . S
C3697 C3703 1.428 . S
C3698 C3701 1.260 . S
C3698 C3702 1.477 . S
C3698 H3716 0.932 . S
C3699 C3700 1.384 . S
C3699 C3701 1.479 . S
C3699 H3717 0.929 . S
C3700 C3697 1.424 . S
C3700 C3699 1.384 . S
C3700 H3718 0.928 . S
C3701 C3698 1.260 . S
C3701 C3699 1.479 . S
C3702 C3697 1.245 . S
C3702 C3698 1.477 . S
C3702 H3719 0.932 . S
C3703 U3686 2.882 . S
C3703 C3697 1.428 . S
C3703 O3706 1.301 . S
C3703 O3707 1.282 . S
O3704 U3686 2.441 . S
O3704 C3690 1.249 . S
O3705 U3686 2.420 . S
O3705 C3690 1.202 . S
O3706 U3686 2.455 . S
O3706 C3703 1.301 . S
O3707 U3686 2.449 . S
O3707 C3703 1.282 . S
H3708 C3681 0.931 . S
H3709 C3683 0.929 . S
H3710 C3684 0.930 . S
H3711 C3685 0.931 . S
H3712 C3692 0.932 . S
H3713 C3693 0.930 . S
H3714 C3694 0.929 . S
H3715 C3696 0.930 . S
H3716 C3698 0.932 . S
H3717 C3699 0.929 . S
H3718 C3700 0.928 . S
H3719 C3702 0.932 . S
C3720 C3721 1.264 . S
C3720 C3725 1.479 . S
C3720 C3730 1.465 . S
C3721 C3720 1.264 . S
C3721 C3723 1.339 . S
C3721 H3748 0.931 . S
C3722 C3723 1.395 . S
C3722 C3724 1.320 . S
C3723 C3721 1.339 . S
C3723 C3722 1.395 . S
C3723 H3749 0.929 . S
C3724 C3722 1.320 . S
C3724 C3725 1.405 . S
C3724 H3750 0.930 . S
C3725 C3720 1.479 . S
C3725 C3724 1.405 . S
C3725 H3751 0.931 . S
U3726 O3727 2.454 . S
U3726 O3728 2.458 . S
U3726 C3729 2.984 . S
U3726 C3730 2.847 . S
U3726 C3743 2.882 . S
U3726 O3744 2.441 . S
U3726 O3745 2.420 . S
U3726 O3746 2.455 . S
U3726 O3747 2.449 . S
O3727 U3726 2.454 . S
O3727 C3729 1.353 . S
O3728 U3726 2.458 . S
O3728 C3729 1.286 . S
C3729 U3726 2.984 . S
C3729 O3727 1.353 . S
C3729 O3728 1.286 . S
C3729 C3731 1.363 . S
C3730 C3720 1.465 . S
C3730 U3726 2.847 . S
C3730 O3744 1.249 . S
C3730 O3745 1.202 . S
C3731 C3729 1.363 . S
C3731 C3733 1.408 . S
C3731 C3736 1.342 . S
C3732 C3733 1.310 . S
C3732 C3735 1.461 . S
C3732 H3752 0.932 . S
C3733 C3731 1.408 . S
C3733 C3732 1.310 . S
C3733 H3753 0.930 . S
C3734 C3735 1.474 . S
C3734 C3736 1.285 . S
C3734 H3754 0.929 . S
C3735 C3732 1.461 . S
C3735 C3734 1.474 . S
C3736 C3731 1.342 . S
C3736 C3734 1.285 . S
C3736 H3755 0.930 . S
C3737 C3740 1.424 . S
C3737 C3742 1.245 . S
C3737 C3743 1.428 . S
C3738 C3741 1.260 . S
C3738 C3742 1.477 . S
C3738 H3756 0.932 . S
C3739 C3740 1.384 . S
C3739 C3741 1.479 . S
C3739 H3757 0.929 . S
C3740 C3737 1.424 . S
C3740 C3739 1.384 . S
C3740 H3758 0.928 . S
C3741 C3738 1.260 . S
C3741 C3739 1.479 . S
C3742 C3737 1.245 . S
C3742 C3738 1.477 . S
C3742 H3759 0.932 . S
C3743 U3726 2.882 . S
C3743 C3737 1.428 . S
C3743 O3746 1.301 . S
C3743 O3747 1.282 . S
O3744 U3726 2.441 . S
O3744 C3730 1.249 . S
O3745 U3726 2.420 . S
O3745 C3730 1.202 . S
O3746 U3726 2.455 . S
O3746 C3743 1.301 . S
O3747 U3726 2.449 . S
O3747 C3743 1.282 . S
H3748 C3721 0.931 . S
H3749 C3723 0.929 . S
H3750 C3724 0.930 . S
H3751 C3725 0.931 . S
H3752 C3732 0.932 . S
H3753 C3733 0.930 . S
H3754 C3734 0.929 . S
H3755 C3736 0.930 . S
H3756 C3738 0.932 . S
H3757 C3739 0.929 . S
H3758 C3740 0.928 . S
H3759 C3742 0.932 . S
C3760 C3761 1.264 . S
C3760 C3765 1.479 . S
C3760 C3770 1.465 . S
C3761 C3760 1.264 . S
C3761 C3763 1.339 . S
C3761 H3788 0.931 . S
C3762 C3763 1.395 1_545 S
C3762 C3764 1.301 1_545 S
C3763 C3761 1.339 . S
C3763 C3762 1.395 1_565 S
C3763 H3789 0.929 1_565 S
C3764 C3762 1.301 1_565 S
C3764 C3765 1.448 . S
C3764 H3790 0.907 1_565 S
C3765 C3760 1.479 . S
C3765 C3764 1.448 . S
C3765 H3791 0.931 . S
U3766 O3767 2.454 . S
U3766 O3768 2.458 . S
U3766 C3769 2.984 . S
U3766 C3770 2.847 . S
U3766 C3783 2.882 . S
U3766 O3784 2.441 . S
U3766 O3785 2.420 . S
U3766 O3786 2.455 . S
U3766 O3787 2.449 . S
O3767 U3766 2.454 . S
O3767 C3769 1.353 . S
O3768 U3766 2.458 . S
O3768 C3769 1.286 . S
C3769 U3766 2.984 . S
C3769 O3767 1.353 . S
C3769 O3768 1.286 . S
C3769 C3771 1.363 . S
C3770 C3760 1.465 . S
C3770 U3766 2.847 . S
C3770 O3784 1.249 . S
C3770 O3785 1.202 . S
C3771 C3769 1.363 . S
C3771 C3773 1.408 . S
C3771 C3776 1.342 . S
C3772 C3773 1.310 . S
C3772 C3775 1.461 . S
C3772 H3792 0.932 . S
C3773 C3771 1.408 . S
C3773 C3772 1.310 . S
C3773 H3793 0.930 . S
C3774 C3775 1.474 . S
C3774 C3776 1.285 . S
C3774 H3794 0.929 . S
C3775 C3772 1.461 . S
C3775 C3774 1.474 . S
C3776 C3771 1.342 . S
C3776 C3774 1.285 . S
C3776 H3795 0.930 . S
C3777 C3780 1.424 . S
C3777 C3782 1.245 . S
C3777 C3783 1.428 . S
C3778 C3781 1.260 . S
C3778 C3782 1.477 . S
C3778 H3796 0.932 . S
C3779 C3780 1.384 . S
C3779 C3781 1.479 . S
C3779 H3797 0.929 . S
C3780 C3777 1.424 . S
C3780 C3779 1.384 . S
C3780 H3798 0.928 . S
C3781 C3778 1.260 . S
C3781 C3779 1.479 . S
C3782 C3777 1.245 . S
C3782 C3778 1.477 . S
C3782 H3799 0.932 . S
C3783 U3766 2.882 . S
C3783 C3777 1.428 . S
C3783 O3786 1.301 . S
C3783 O3787 1.282 . S
O3784 U3766 2.441 . S
O3784 C3770 1.249 . S
O3785 U3766 2.420 . S
O3785 C3770 1.202 . S
O3786 U3766 2.455 . S
O3786 C3783 1.301 . S
O3787 U3766 2.449 . S
O3787 C3783 1.282 . S
H3788 C3761 0.931 . S
H3789 C3763 0.929 1_545 S
H3790 C3764 0.907 1_545 S
H3791 C3765 0.931 . S
H3792 C3772 0.932 . S
H3793 C3773 0.930 . S
H3794 C3774 0.929 . S
H3795 C3776 0.930 . S
H3796 C3778 0.932 . S
H3797 C3779 0.929 . S
H3798 C3780 0.928 . S
H3799 C3782 0.932 . S
C3800 C3801 1.264 . S
C3800 C3805 1.479 . S
C3800 C3810 1.465 . S
C3801 C3800 1.264 . S
C3801 C3803 1.339 . S
C3801 H3828 0.931 . S
C3802 C3803 1.395 1_565 S
C3802 C3804 1.301 1_565 S
C3803 C3801 1.339 . S
C3803 C3802 1.395 1_545 S
C3803 H3829 0.929 1_545 S
C3804 C3802 1.301 1_545 S
C3804 C3805 1.448 . S
C3804 H3830 0.907 1_545 S
C3805 C3800 1.479 . S
C3805 C3804 1.448 . S
C3805 H3831 0.931 . S
U3806 O3807 2.454 . S
U3806 O3808 2.458 . S
U3806 C3809 2.984 . S
U3806 C3810 2.847 . S
U3806 C3823 2.882 . S
U3806 O3824 2.441 . S
U3806 O3825 2.420 . S
U3806 O3826 2.455 . S
U3806 O3827 2.449 . S
O3807 U3806 2.454 . S
O3807 C3809 1.353 . S
O3808 U3806 2.458 . S
O3808 C3809 1.286 . S
C3809 U3806 2.984 . S
C3809 O3807 1.353 . S
C3809 O3808 1.286 . S
C3809 C3811 1.363 . S
C3810 C3800 1.465 . S
C3810 U3806 2.847 . S
C3810 O3824 1.249 . S
C3810 O3825 1.202 . S
C3811 C3809 1.363 . S
C3811 C3813 1.408 . S
C3811 C3816 1.342 . S
C3812 C3813 1.310 . S
C3812 C3815 1.461 . S
C3812 H3832 0.932 . S
C3813 C3811 1.408 . S
C3813 C3812 1.310 . S
C3813 H3833 0.930 . S
C3814 C3815 1.474 . S
C3814 C3816 1.285 . S
C3814 H3834 0.929 . S
C3815 C3812 1.461 . S
C3815 C3814 1.474 . S
C3816 C3811 1.342 . S
C3816 C3814 1.285 . S
C3816 H3835 0.930 . S
C3817 C3820 1.424 . S
C3817 C3822 1.245 . S
C3817 C3823 1.428 . S
C3818 C3821 1.260 . S
C3818 C3822 1.477 . S
C3818 H3836 0.932 . S
C3819 C3820 1.384 . S
C3819 C3821 1.479 . S
C3819 H3837 0.929 . S
C3820 C3817 1.424 . S
C3820 C3819 1.384 . S
C3820 H3838 0.928 . S
C3821 C3818 1.260 . S
C3821 C3819 1.479 . S
C3822 C3817 1.245 . S
C3822 C3818 1.477 . S
C3822 H3839 0.932 . S
C3823 U3806 2.882 . S
C3823 C3817 1.428 . S
C3823 O3826 1.301 . S
C3823 O3827 1.282 . S
O3824 U3806 2.441 . S
O3824 C3810 1.249 . S
O3825 U3806 2.420 . S
O3825 C3810 1.202 . S
O3826 U3806 2.455 . S
O3826 C3823 1.301 . S
O3827 U3806 2.449 . S
O3827 C3823 1.282 . S
H3828 C3801 0.931 . S
H3829 C3803 0.929 1_565 S
H3830 C3804 0.907 1_565 S
H3831 C3805 0.931 . S
H3832 C3812 0.932 . S
H3833 C3813 0.930 . S
H3834 C3814 0.929 . S
H3835 C3816 0.930 . S
H3836 C3818 0.932 . S
H3837 C3819 0.929 . S
H3838 C3820 0.928 . S
H3839 C3822 0.932 . S
C2 C3221 1.545 . S
C42 C1341 1.545 . S
C3301 C82 1.545 . S
C1421 C122 1.545 . S
C162 C3381 1.545 . S
C202 C1501 1.545 . S
C3461 C242 1.545 . S
C1581 C282 1.545 . S
C322 C3541 1.545 . S
C362 C3821 1.545 . S
C402 C3741 1.545 . S
C442 C3781 1.545 . S
C1661 C482 1.545 . S
C522 C3621 1.545 . S
C1741 C562 1.545 . S
C1781 C602 1.545 . S
C2901 C642 1.545 . S
C1141 C682 1.545 . S
C3101 C722 1.545 . S
C762 C1221 1.545 . S
C1261 C802 1.545 . S
C842 C2981 1.545 . S
C3021 C882 1.545 . S
C922 C2941 1.545 . S
C2261 C962 1.537 . S
C381 C1002 1.537 . S
C1042 C2341 1.537 . S
C1082 C461 1.537 . S
C1122 C2421 1.537 . S
C541 C1162 1.537 . S
C2501 C1202 1.537 . S
C1242 C621 1.537 . S
C2581 C1282 1.537 . S
C2861 C1322 1.537 . S
C2781 C1362 1.537 . S
C1402 C2821 1.537 . S
C701 C1442 1.537 . S
C1482 C2661 1.537 . S
C781 C1522 1.537 . S
C821 C1562 1.537 . S
C1941 C1602 1.537 . S
C181 C1642 1.537 . S
C2141 C1682 1.537 . S
C261 C1722 1.537 . S
C301 C1762 1.537 . S
C2021 C1802 1.537 . S
C2061 C1842 1.537 . S
C1882 C1981 1.537 . S
C1301 C1922 1.545 . S
C1962 C3261 1.545 . S
C1381 C2002 1.545 . S
C3341 C2042 1.545 . S
C2082 C1461 1.545 . S
C3421 C2122 1.545 . S
C1541 C2162 1.545 . S
C2202 C3501 1.545 . S
C2242 C1621 1.545 . S
C2282 C1901 1.545 . S
C2322 C1821 1.545 . S
C1861 C2362 1.545 . S
C3581 C2402 1.545 . S
C2442 C1701 1.545 . S
C2482 C3661 1.545 . S
C3701 C2522 1.545 . S
C2562 C981 1.545 . S
C2602 C3061 1.545 . S
C1181 C2642 1.545 . S
C3141 C2682 1.545 . S
C3181 C2722 1.545 . S
C1061 C2762 1.545 . S
C1101 C2802 1.545 . S
C2842 C1021 1.545 . S
C341 C2882 1.537 . S
C2301 C2922 1.537 . S
C2962 C421 1.537 . S
C3002 C2381 1.537 . S
C501 C3042 1.537 . S
C3082 C2461 1.537 . S
C581 C3122 1.537 . S
C2541 C3162 1.537 . S
C3202 C661 1.537 . S
C3242 C941 1.537 . S
C861 C3282 1.537 . S
C901 C3322 1.537 . S
C2621 C3362 1.537 . S
C741 C3402 1.537 . S
C3442 C2701 1.537 . S
C2741 C3482 1.537 . S
C21 C3522 1.537 . S
C3562 C2101 1.537 . S
C221 C3602 1.537 . S
C2181 C3642 1.537 . S
C2221 C3682 1.537 . S
C101 C3722 1.537 . S
C3762 C141 1.537 . S
C3802 C61 1.537 . S
C375 C15 1.533 . S
C415 C55 1.533 . S
C455 C95 1.533 . S
C335 C135 1.533 . S
C615 C175 1.533 . S
C495 C215 1.533 . S
C255 C535 1.533 . S
C575 C295 1.533 . S
C655 C735 1.533 . S
C2815 C695 1.533 . S
C775 C2855 1.533 . S
C2775 C815 1.533 . S
C2735 C855 1.533 . S
C895 C2615 1.533 . S
C2695 C935 1.533 . S
C975 C1335 1.526 . S
C1015 C1375 1.526 . S
C1415 C1055 1.526 . S
C1295 C1095 1.526 . S
C1575 C1135 1.526 . S
C1455 C1175 1.526 . S
C1215 C1495 1.526 . S
C1535 C1255 1.526 . S
C1695 C1615 1.526 . S
C1655 C3775 1.526 . S
C1735 C3815 1.526 . S
C3735 C1775 1.526 . S
C1815 C3695 1.526 . S
C1855 C3575 1.526 . S
C3655 C1895 1.526 . S
C2295 C1935 1.533 . S
C1975 C2335 1.533 . S
C2015 C2375 1.533 . S
C2255 C2055 1.533 . S
C2535 C2095 1.533 . S
C2415 C2135 1.533 . S
C2175 C2455 1.533 . S
C2215 C2495 1.533 . S
C2575 C2655 1.533 . S
C3255 C2895 1.526 . S
C2935 C3295 1.526 . S
C3335 C2975 1.526 . S
C3215 C3015 1.526 . S
C3495 C3055 1.526 . S
C3375 C3095 1.526 . S
C3415 C3135 1.526 . S
C3455 C3175 1.526 . S
C3535 C3615 1.526 . S
