# Generated by pormake.
# Topology sod, (4)-cn, num edge types: 1
# Building blocks:
#     Node 0, Type 0, BuildingBlock: GALJAG_clean_sbu_0, # of connection points: 4
#     Node 1, Type 0, BuildingBlock: GALJAG_clean_sbu_0, # of connection points: 4
#     Node 2, Type 0, BuildingBlock: GALJAG_clean_sbu_0, # of connection points: 4
#     Node 3, Type 0, BuildingBlock: GALJAG_clean_sbu_0, # of connection points: 4
#     Node 4, Type 0, BuildingBlock: GALJAG_clean_sbu_0, # of connection points: 4
#     Node 5, Type 0, BuildingBlock: GALJAG_clean_sbu_0, # of connection points: 4
#     Node 6, Type 0, BuildingBlock: GALJAG_clean_sbu_0, # of connection points: 4
#     Node 7, Type 0, BuildingBlock: GALJAG_clean_sbu_0, # of connection points: 4
#     Node 8, Type 0, BuildingBlock: GALJAG_clean_sbu_0, # of connection points: 4
#     Node 9, Type 0, BuildingBlock: GALJAG_clean_sbu_0, # of connection points: 4
#     Node 10, Type 0, BuildingBlock: GALJAG_clean_sbu_0, # of connection points: 4
#     Node 11, Type 0, BuildingBlock: GALJAG_clean_sbu_0, # of connection points: 4
#     Edge 12, Type (0, 0), BuildingBlock: MIFKUJ_clean_linker_0, # of connection points: 2
#     Edge 13, Type (0, 0), BuildingBlock: MIFKUJ_clean_linker_0, # of connection points: 2
#     Edge 14, Type (0, 0), BuildingBlock: MIFKUJ_clean_linker_0, # of connection points: 2
#     Edge 15, Type (0, 0), BuildingBlock: MIFKUJ_clean_linker_0, # of connection points: 2
#     Edge 16, Type (0, 0), BuildingBlock: MIFKUJ_clean_linker_0, # of connection points: 2
#     Edge 17, Type (0, 0), BuildingBlock: MIFKUJ_clean_linker_0, # of connection points: 2
#     Edge 18, Type (0, 0), BuildingBlock: MIFKUJ_clean_linker_0, # of connection points: 2
#     Edge 19, Type (0, 0), BuildingBlock: MIFKUJ_clean_linker_0, # of connection points: 2
#     Edge 20, Type (0, 0), BuildingBlock: MIFKUJ_clean_linker_0, # of connection points: 2
#     Edge 21, Type (0, 0), BuildingBlock: MIFKUJ_clean_linker_0, # of connection points: 2
#     Edge 22, Type (0, 0), BuildingBlock: MIFKUJ_clean_linker_0, # of connection points: 2
#     Edge 23, Type (0, 0), BuildingBlock: MIFKUJ_clean_linker_0, # of connection points: 2
#     Edge 24, Type (0, 0), BuildingBlock: MIFKUJ_clean_linker_0, # of connection points: 2
#     Edge 25, Type (0, 0), BuildingBlock: MIFKUJ_clean_linker_0, # of connection points: 2
#     Edge 26, Type (0, 0), BuildingBlock: MIFKUJ_clean_linker_0, # of connection points: 2
#     Edge 27, Type (0, 0), BuildingBlock: MIFKUJ_clean_linker_0, # of connection points: 2
#     Edge 28, Type (0, 0), BuildingBlock: MIFKUJ_clean_linker_0, # of connection points: 2
#     Edge 29, Type (0, 0), BuildingBlock: MIFKUJ_clean_linker_0, # of connection points: 2
#     Edge 30, Type (0, 0), BuildingBlock: MIFKUJ_clean_linker_0, # of connection points: 2
#     Edge 31, Type (0, 0), BuildingBlock: MIFKUJ_clean_linker_0, # of connection points: 2
#     Edge 32, Type (0, 0), BuildingBlock: MIFKUJ_clean_linker_0, # of connection points: 2
#     Edge 33, Type (0, 0), BuildingBlock: MIFKUJ_clean_linker_0, # of connection points: 2
#     Edge 34, Type (0, 0), BuildingBlock: MIFKUJ_clean_linker_0, # of connection points: 2
#     Edge 35, Type (0, 0), BuildingBlock: MIFKUJ_clean_linker_0, # of connection points: 2
# Relax obj value: 0.078
# Max RMSD: 0.153
# Mean RMSD: 0.153
data_MOF--net-sod--node1-GALJAG_clean_sbu_0--edge1-MIFKUJ_clean_linker_0
_symmetry_space_group_name_H-M    P1
_symmetry_Int_Tables_number       1
_symmetry_cell_setting            triclinic
loop_
_symmetry_equiv_pos_as_xyz
'x, y, z'
_cell_length_a     55.833271
_cell_length_b     55.752728
_cell_length_c     55.790614
_cell_angle_alpha  89.973453
_cell_angle_beta   89.948783
_cell_angle_gamma 89.970461
loop_
_atom_site_label
_atom_site_type_symbol
_atom_site_fract_x
_atom_site_fract_y
_atom_site_fract_z
_atom_type_partial_charge
In0 In 0.01179 0.25213 0.50418 0.0
O1 O 0.97442 0.23966 0.51465 0.0
O2 O 0.9909 0.22249 0.48494 0.0
C3 C 0.01619 0.28154 0.54263 0.0
C4 C 0.04946 0.22181 0.50922 0.0
C5 C 0.00722 0.28129 0.46567 0.0
O6 O 0.00231 0.26375 0.54232 0.0
O7 O 0.02823 0.28429 0.52372 0.0
O8 O 0.0238 0.26606 0.46762 0.0
O9 O 0.99265 0.28158 0.48296 0.0
C10 C 0.97289 0.22386 0.49857 0.0
O11 O 0.05001 0.23993 0.49575 0.0
O12 O 0.03005 0.21912 0.52044 0.0
In13 In 0.75326 0.01101 0.49996 0.0
O14 O 0.73737 0.9976 0.53525 0.0
O15 O 0.72338 0.02988 0.52064 0.0
C16 C 0.78157 0.97162 0.5017 0.0
C17 C 0.72256 0.01004 0.4625 0.0
C18 C 0.78552 0.04732 0.49846 0.0
O19 O 0.77907 0.98569 0.51922 0.0
O20 O 0.76956 0.9772 0.4834 0.0
O21 O 0.78426 0.03132 0.48259 0.0
O22 O 0.77041 0.04516 0.51512 0.0
C23 C 0.72256 0.01458 0.5373 0.0
O24 O 0.73837 0.026 0.46491 0.0
O25 O 0.72232 0.99443 0.47888 0.0
In26 In 0.99648 0.75348 0.49978 0.0
O27 O 0.0147 0.73187 0.52935 0.0
O28 O 0.97698 0.72869 0.52597 0.0
C29 C 0.03331 0.78485 0.49801 0.0
C30 C 0.99825 0.7211 0.4637 0.0
C31 C 0.95997 0.78543 0.50089 0.0
O32 O 0.02618 0.77539 0.51727 0.0
O33 O 0.02185 0.77852 0.47959 0.0
O34 O 0.96752 0.77615 0.48171 0.0
O35 O 0.97071 0.7785 0.51952 0.0
C36 C 0.99567 0.72241 0.53702 0.0
O37 O 0.97881 0.72901 0.47209 0.0
O38 O 0.01678 0.72961 0.47339 0.0
In39 In 0.25446 0.99562 0.49959 0.0
O40 O 0.23007 0.97019 0.47846 0.0
O41 O 0.23321 0.9648 0.51595 0.0
C42 C 0.28472 0.99344 0.46162 0.0
C43 C 0.226 0.03466 0.50432 0.0
C44 C 0.2841 0.99614 0.53783 0.0
O45 O 0.2644 0.00327 0.46033 0.0
O46 O 0.28955 0.9846 0.48181 0.0
O47 O 0.27553 0.01509 0.52888 0.0
O48 O 0.27758 0.97706 0.5276 0.0
C49 C 0.2238 0.95814 0.49655 0.0
O50 O 0.24512 0.03499 0.49225 0.0
O51 O 0.22144 0.01481 0.51413 0.0
In52 In 0.50403 0.003 0.24957 0.0
O53 O 0.54229 0.99463 0.26135 0.0
O54 O 0.52255 0.0198 0.28198 0.0
C55 C 0.49963 0.96414 0.22081 0.0
C56 C 0.46573 0.99698 0.27868 0.0
C57 C 0.50922 0.04193 0.22089 0.0
O58 O 0.51534 0.96564 0.23696 0.0
O59 O 0.48591 0.98205 0.21941 0.0
O60 O 0.49439 0.04121 0.23792 0.0
O61 O 0.52159 0.02319 0.2185 0.0
C62 C 0.5419 0.00843 0.27925 0.0
O63 O 0.46522 0.01041 0.26048 0.0
O64 O 0.48538 0.9863 0.28194 0.0
In65 In 0.00412 0.50028 0.25166 0.0
O66 O 0.97201 0.48459 0.23181 0.0
O67 O 0.98168 0.5206 0.2241 0.0
C68 C 0.00353 0.46313 0.28299 0.0
C69 C 0.04102 0.49783 0.22037 0.0
C70 C 0.00431 0.53753 0.2827 0.0
O71 O 0.9854 0.47591 0.27878 0.0
O72 O 0.02196 0.46893 0.27129 0.0
O73 O 0.02316 0.52664 0.27661 0.0
O74 O 0.98546 0.52977 0.273 0.0
C75 C 0.96766 0.50337 0.21997 0.0
O76 O 0.03735 0.51587 0.23354 0.0
O77 O 0.02614 0.481 0.22305 0.0
In78 In 0.50332 0.00781 0.75003 0.0
O79 O 0.54169 1.00001 0.73792 0.0
O80 O 0.5212 0.02455 0.71725 0.0
C81 C 0.50457 0.04477 0.78146 0.0
C82 C 0.46567 0.00401 0.71974 0.0
C83 C 0.50214 0.96885 0.77904 0.0
O84 O 0.5233 0.03606 0.77226 0.0
O85 O 0.48541 0.03499 0.77469 0.0
O86 O 0.48936 0.98716 0.78245 0.0
O87 O 0.51549 0.97001 0.76082 0.0
C88 C 0.5408 0.01359 0.71984 0.0
O89 O 0.47819 0.9862 0.72582 0.0
O90 O 0.47208 0.0236 0.72897 0.0
In91 In 0.0028 0.50446 0.75155 0.0
O92 O 0.0371 0.48982 0.76823 0.0
O93 O 0.0249 0.5239 0.78004 0.0
C94 C 0.00577 0.46681 0.72098 0.0
C95 C 0.96514 0.50238 0.78209 0.0
C96 C 0.99997 0.54228 0.7214 0.0
O97 O 0.02014 0.48421 0.72052 0.0
O98 O 0.98983 0.46828 0.73693 0.0
O99 O 0.98308 0.52751 0.72415 0.0
O100 O 0.01823 0.53815 0.73406 0.0
C101 C 0.04044 0.50755 0.78184 0.0
O102 O 0.9667 0.51781 0.76563 0.0
O103 O 0.98245 0.48788 0.78304 0.0
In104 In 0.25344 0.49966 0.00074 0.0
O105 O 0.22408 0.48112 0.02245 0.0
O106 O 0.24013 0.51201 0.0376 0.0
C107 C 0.28343 0.46206 0.99523 0.0
C108 C 0.22279 0.50343 0.96332 0.0
C109 C 0.28426 0.53707 0.003 0.0
O110 O 0.26998 0.46439 0.0133 0.0
O111 O 0.28148 0.47852 0.97979 0.0
O112 O 0.2649 0.53797 0.99144 0.0
O113 O 0.28795 0.51749 0.01367 0.0
C114 C 0.22469 0.49566 0.03971 0.0
O115 O 0.22433 0.51906 0.97955 0.0
O116 O 0.23688 0.48592 0.96579 0.0
In117 In 0.50869 0.25619 0.003 0.0
O118 O 0.52645 0.22529 0.02341 0.0
O119 O 0.4969 0.2426 0.03985 0.0
C120 C 0.54509 0.28788 0.00799 0.0
C121 C 0.5067 0.22503 0.96587 0.0
C122 C 0.47048 0.28539 0.9964 0.0
O123 O 0.53014 0.28391 0.02448 0.0
O124 O 0.54172 0.27584 0.98919 0.0
O125 O 0.48895 0.2864 0.9834 0.0
O126 O 0.47117 0.26949 0.01245 0.0
C127 C 0.51252 0.22634 0.04118 0.0
O128 O 0.48876 0.22955 0.97887 0.0
O129 O 0.52543 0.23626 0.97154 0.0
In130 In 0.75349 0.51074 0.00271 0.0
O131 O 0.73745 0.47544 0.98965 0.0
O132 O 0.72501 0.48946 0.02285 0.0
C133 C 0.78311 0.50673 0.96434 0.0
C134 C 0.72318 0.5486 0.99995 0.0
C135 C 0.78284 0.51316 0.04118 0.0
O136 O 0.76616 0.52164 0.9651 0.0
O137 O 0.78491 0.49372 0.98269 0.0
O138 O 0.78172 0.52958 0.02565 0.0
O139 O 0.76889 0.49578 0.03752 0.0
C140 C 0.72361 0.47298 0.0074 0.0
O141 O 0.74251 0.54941 0.01161 0.0
O142 O 0.71935 0.52892 0.98956 0.0
In143 In 0.49862 0.7554 0.99781 0.0
O144 O 0.46867 0.73442 0.01621 0.0
O145 O 0.47219 0.73084 0.97846 0.0
C146 C 0.49769 0.78367 0.03731 0.0
C147 C 0.53712 0.72611 0.99944 0.0
C148 C 0.49915 0.78502 0.95905 0.0
O149 O 0.48108 0.78319 0.02205 0.0
O150 O 0.51484 0.76962 0.03288 0.0
O151 O 0.51413 0.76835 0.96176 0.0
O152 O 0.48396 0.78655 0.97561 0.0
C153 C 0.46101 0.72488 0.99721 0.0
O154 O 0.53905 0.74868 0.00058 0.0
O155 O 0.51591 0.71851 0.99773 0.0
H156 H 0.97139 0.31318 0.45574 0.0
H157 H 0.97013 0.34271 0.42324 0.0
H158 H 0.03856 0.31756 0.39756 0.0
H159 H 0.03991 0.28794 0.42994 0.0
H160 H 0.03625 0.36713 0.40194 0.0
H161 H 0.9896 0.30341 0.36735 0.0
H162 H 0.95701 0.2736 0.36626 0.0
H163 H 0.90487 0.32995 0.37204 0.0
H164 H 0.93718 0.36009 0.37351 0.0
H165 H 0.03934 0.43119 0.29261 0.0
H166 H 0.03924 0.39908 0.32251 0.0
H167 H 0.9674 0.41862 0.34342 0.0
H168 H 0.96719 0.45037 0.31313 0.0
H169 H 0.97136 0.37148 0.34139 0.0
H170 H 0.01635 0.43507 0.37714 0.0
H171 H 0.04796 0.46584 0.37958 0.0
H172 H 0.10194 0.41128 0.37355 0.0
H173 H 0.07062 0.38019 0.37075 0.0
C174 C 0.98607 0.31382 0.44306 0.0
C175 C 0.00574 0.29825 0.44535 0.0
C176 C 0.9853 0.33065 0.42448 0.0
C177 C 0.00421 0.33224 0.40795 0.0
C178 C 0.02379 0.31661 0.41014 0.0
C179 C 0.02449 0.29966 0.42858 0.0
C180 C 0.00394 0.3507 0.38882 0.0
C181 C 0.02227 0.36789 0.38847 0.0
C182 C 0.98528 0.35207 0.37174 0.0
C183 C 0.96582 0.33399 0.37078 0.0
C184 C 0.97119 0.30943 0.36859 0.0
C185 C 0.95277 0.29248 0.36786 0.0
C186 C 0.92888 0.29987 0.36914 0.0
C187 C 0.92338 0.32425 0.37108 0.0
C188 C 0.94174 0.34127 0.37184 0.0
C189 C 0.0235 0.42858 0.30354 0.0
C190 C 0.00331 0.44334 0.30062 0.0
C191 C 0.0235 0.4103 0.32069 0.0
C192 C 0.00344 0.40666 0.33547 0.0
C193 C 0.98309 0.42111 0.33225 0.0
C194 C 0.98302 0.43928 0.31499 0.0
C195 C 0.00374 0.38793 0.35442 0.0
C196 C 0.98539 0.37071 0.3548 0.0
C197 C 0.02224 0.38669 0.37173 0.0
C198 C 0.04113 0.40533 0.37349 0.0
C199 C 0.03495 0.42965 0.37615 0.0
C200 C 0.05282 0.44715 0.37763 0.0
C201 C 0.07694 0.44053 0.37666 0.0
C202 C 0.08324 0.41638 0.37427 0.0
C203 C 0.06545 0.39881 0.37275 0.0
H204 H 0.09074 0.4541 0.37781 0.0
H205 H 0.91464 0.28672 0.36857 0.0
H206 H 0.68246 0.98254 0.45761 0.0
H207 H 0.65358 0.98312 0.42471 0.0
H208 H 0.69541 0.03738 0.38871 0.0
H209 H 0.72388 0.03745 0.42201 0.0
H210 H 0.65082 0.04869 0.38549 0.0
H211 H 0.69533 0.97729 0.37039 0.0
H212 H 0.71366 0.93813 0.37966 0.0
H213 H 0.64416 0.9085 0.39416 0.0
H214 H 0.62544 0.94759 0.38528 0.0
H215 H 0.58683 0.98978 0.2744 0.0
H216 H 0.61971 0.99146 0.30331 0.0
H217 H 0.57495 0.03178 0.35189 0.0
H218 H 0.54234 0.03082 0.32272 0.0
H219 H 0.62414 0.97376 0.34574 0.0
H220 H 0.60779 0.0683 0.38663 0.0
H221 H 0.59307 0.10802 0.37385 0.0
H222 H 0.61295 0.09242 0.30114 0.0
H223 H 0.62809 0.05276 0.31353 0.0
C224 C 0.68552 0.99453 0.44263 0.0
C225 C 0.70545 0.00989 0.44232 0.0
C226 C 0.66906 0.99478 0.42378 0.0
C227 C 0.67246 0.01005 0.40402 0.0
C228 C 0.69238 0.02544 0.40373 0.0
C229 C 0.70868 0.02541 0.42273 0.0
C230 C 0.65503 0.0103 0.38387 0.0
C231 C 0.64503 0.0323 0.37677 0.0
C232 C 0.64783 0.98901 0.37207 0.0
C233 C 0.659 0.96543 0.37736 0.0
C234 C 0.68397 0.96247 0.37571 0.0
C235 C 0.69443 0.94028 0.38088 0.0
C236 C 0.68009 0.92085 0.38755 0.0
C237 C 0.65525 0.92357 0.38901 0.0
C238 C 0.6447 0.94573 0.38389 0.0
C239 C 0.58411 0.99921 0.29116 0.0
C240 C 0.56207 0.01026 0.29627 0.0
C241 C 0.60287 1.00008 0.3077 0.0
C242 C 0.59993 0.01194 0.32972 0.0
C243 C 0.57787 0.02295 0.33485 0.0
C244 C 0.55919 0.02231 0.3182 0.0
C245 C 0.61964 0.0121 0.34764 0.0
C246 C 0.63001 0.99017 0.35437 0.0
C247 C 0.6277 0.03353 0.3586 0.0
C248 C 0.61886 0.05747 0.351 0.0
C249 C 0.60911 0.07339 0.36794 0.0
C250 C 0.60068 0.09589 0.36075 0.0
C251 C 0.60201 0.10271 0.33668 0.0
C252 C 0.61185 0.08708 0.31976 0.0
C253 C 0.62033 0.06458 0.32685 0.0
H254 H 0.59545 0.12013 0.33116 0.0
H255 H 0.68822 0.90368 0.39154 0.0
H256 H 0.04283 0.55972 0.30311 0.0
H257 H 0.04241 0.59192 0.3329 0.0
H258 H 0.96512 0.59188 0.33208 0.0
H259 H 0.96546 0.56015 0.30185 0.0
H260 H 0.98128 0.63636 0.33258 0.0
H261 H 0.99752 0.5646 0.37746 0.0
H262 H 0.01923 0.52733 0.38727 0.0
H263 H 0.08373 0.56759 0.39883 0.0
H264 H 0.06248 0.60507 0.38875 0.0
H265 H 0.96072 0.69911 0.44138 0.0
H266 H 0.96246 0.66873 0.40981 0.0
H267 H 0.03966 0.67211 0.41053 0.0
H268 H 0.03804 0.70222 0.4424 0.0
H269 H 0.02437 0.62649 0.4097 0.0
H270 H 0.00725 0.69857 0.36566 0.0
H271 H 0.98497 0.73555 0.35608 0.0
H272 H 0.92131 0.69428 0.34343 0.0
H273 H 0.94313 0.65707 0.35325 0.0
C274 C 0.02576 0.56664 0.30924 0.0
C275 C 0.00418 0.55737 0.30024 0.0
C276 C 0.02554 0.58496 0.32634 0.0
C277 C 0.00372 0.59408 0.335 0.0
C278 C 0.98216 0.58511 0.3257 0.0
C279 C 0.98238 0.56693 0.30847 0.0
C280 C 0.0033 0.61286 0.35388 0.0
C281 C 0.99047 0.63408 0.34955 0.0
C282 C 0.01571 0.61011 0.37584 0.0
C283 C 0.02846 0.58761 0.38212 0.0
C284 C 0.01637 0.56548 0.38193 0.0
C285 C 0.02859 0.54432 0.38757 0.0
C286 C 0.05286 0.54508 0.39361 0.0
C287 C 0.06494 0.56702 0.39411 0.0
C288 C 0.05282 0.58823 0.38846 0.0
C289 C 0.97806 0.69343 0.43476 0.0
C290 C 0.99925 0.70308 0.44431 0.0
C291 C 0.97903 0.67614 0.41666 0.0
C292 C 0.00119 0.66834 0.40761 0.0
C293 C 0.02237 0.67788 0.41722 0.0
C294 C 0.02141 0.69513 0.43537 0.0
C295 C 0.00229 0.64995 0.38841 0.0
C296 C 0.01524 0.62879 0.39269 0.0
C297 C 0.9899 0.65271 0.36645 0.0
C298 C 0.97678 0.67506 0.3604 0.0
C299 C 0.98845 0.6974 0.361 0.0
C300 C 0.97591 0.7184 0.3555 0.0
C301 C 0.95172 0.71727 0.3492 0.0
C302 C 0.94004 0.69513 0.34833 0.0
C303 C 0.95249 0.67408 0.35384 0.0
H304 H 0.94204 0.73355 0.34496 0.0
H305 H 0.06228 0.52868 0.39795 0.0
H306 H 0.27789 0.00917 0.4156 0.0
H307 H 0.30715 0.00919 0.38277 0.0
H308 H 0.35948 0.97658 0.42938 0.0
H309 H 0.33046 0.97657 0.46218 0.0
H310 H 0.37801 0.01436 0.40505 0.0
H311 H 0.33213 0.9438 0.38707 0.0
H312 H 0.29542 0.92066 0.37889 0.0
H313 H 0.28132 0.96428 0.31704 0.0
H314 H 0.31779 0.98793 0.32505 0.0
H315 H 0.46567 0.9757 0.32264 0.0
H316 H 0.4331 0.97499 0.35198 0.0
H317 H 0.38749 0.01306 0.30255 0.0
H318 H 0.42013 0.01403 0.27309 0.0
H319 H 0.36442 0.97426 0.32683 0.0
H320 H 0.41106 0.0441 0.34441 0.0
H321 H 0.44808 0.06676 0.35251 0.0
H322 H 0.46083 0.02408 0.4153 0.0
H323 H 0.42405 0.0009 0.40736 0.0
C324 C 0.2956 0.00192 0.41878 0.0
C325 C 0.30189 0.99286 0.44144 0.0
C326 C 0.31226 0.00187 0.40001 0.0
C327 C 0.33546 0.99278 0.40361 0.0
C328 C 0.3417 0.9837 0.42622 0.0
C329 C 0.32506 0.98364 0.44491 0.0
C330 C 0.3535 0.99318 0.38408 0.0
C331 C 0.37513 0.00536 0.38805 0.0
C332 C 0.34948 0.98198 0.36167 0.0
C333 C 0.32754 0.96782 0.35682 0.0
C334 C 0.32108 0.94861 0.37185 0.0
C335 C 0.30034 0.93537 0.36722 0.0
C336 C 0.286 0.94104 0.3475 0.0
C337 C 0.29241 0.95994 0.33234 0.0
C338 C 0.31312 0.97326 0.3369 0.0
C339 C 0.44865 0.98374 0.31792 0.0
C340 C 0.44546 0.99502 0.29562 0.0
C341 C 0.43009 0.98338 0.33472 0.0
C342 C 0.40798 0.99415 0.32948 0.0
C343 C 0.40444 0.00468 0.30691 0.0
C344 C 0.42311 0.00527 0.29016 0.0
C345 C 0.38897 0.99515 0.348 0.0
C346 C 0.3672 0.98332 0.34381 0.0
C347 C 0.39283 0.00665 0.37025 0.0
C348 C 0.41492 0.0206 0.37515 0.0
C349 C 0.42187 0.0394 0.35983 0.0
C350 C 0.44279 0.05236 0.36441 0.0
C351 C 0.45684 0.04682 0.38437 0.0
C352 C 0.44995 0.02833 0.39983 0.0
C353 C 0.42906 0.01528 0.3953 0.0
H354 H 0.47303 0.05688 0.38789 0.0
H355 H 0.26996 0.93076 0.34394 0.0
H356 H 0.96112 0.55731 0.69585 0.0
H357 H 0.95951 0.58929 0.66591 0.0
H358 H 0.03452 0.60397 0.67736 0.0
H359 H 0.03604 0.57243 0.70785 0.0
H360 H 0.01072 0.64459 0.6729 0.0
H361 H 0.01461 0.5709 0.62871 0.0
H362 H 0.0022 0.53007 0.61716 0.0
H363 H 0.93323 0.55672 0.59597 0.0
H364 H 0.94512 0.59769 0.6077 0.0
H365 H 0.03346 0.70769 0.56429 0.0
H366 H 0.03314 0.67837 0.59693 0.0
H367 H 0.95705 0.66872 0.58774 0.0
H368 H 0.95727 0.69793 0.55494 0.0
H369 H 0.98066 0.62609 0.59131 0.0
H370 H 0.97817 0.70053 0.63461 0.0
H371 H 0.99179 0.74113 0.64558 0.0
H372 H 0.05978 0.71267 0.66763 0.0
H373 H 0.04668 0.67193 0.65647 0.0
C374 C 0.97724 0.56744 0.69207 0.0
C375 C 0.99874 0.56229 0.70407 0.0
C376 C 0.97633 0.58564 0.67487 0.0
C377 C 0.99701 0.59877 0.66906 0.0
C378 C 0.01836 0.59404 0.68148 0.0
C379 C 0.01922 0.57599 0.69886 0.0
C380 C 0.99648 0.61715 0.64978 0.0
C381 C 0.00441 0.64047 0.65498 0.0
C382 C 0.98783 0.61191 0.6265 0.0
C383 C 0.98068 0.58732 0.61931 0.0
C384 C 0.99674 0.56803 0.62175 0.0
C385 C 0.98981 0.54486 0.61514 0.0
C386 C 0.96692 0.54079 0.60589 0.0
C387 C 0.95094 0.5599 0.60317 0.0
C388 C 0.95777 0.58309 0.60977 0.0
C389 C 0.01664 0.69939 0.56928 0.0
C390 C 0.99538 0.70512 0.55709 0.0
C391 C 0.01647 0.68272 0.58799 0.0
C392 C 0.99503 0.67153 0.5949 0.0
C393 C 0.97378 0.67718 0.58271 0.0
C394 C 0.97392 0.6939 0.56403 0.0
C395 C 0.99489 0.65349 0.61445 0.0
C396 C 0.98687 0.63022 0.60926 0.0
C397 C 0.00364 0.65873 0.63766 0.0
C398 C 0.01151 0.6832 0.6445 0.0
C399 C 0.99609 0.70295 0.64162 0.0
C400 C 0.00371 0.72599 0.64791 0.0
C401 C 0.02666 0.72949 0.65725 0.0
C402 C 0.04201 0.70994 0.66038 0.0
C403 C 0.03449 0.68687 0.6541 0.0
H404 H 0.03252 0.74733 0.6621 0.0
H405 H 0.96159 0.52285 0.60079 0.0
H406 H 0.44969 0.96418 0.69615 0.0
H407 H 0.41733 0.9619 0.66664 0.0
H408 H 0.40412 0.03768 0.67504 0.0
H409 H 0.43625 0.04004 0.70472 0.0
H410 H 0.36262 0.01262 0.67323 0.0
H411 H 0.4354 0.01737 0.62761 0.0
H412 H 0.47616 0.00539 0.61545 0.0
H413 H 0.4502 0.93579 0.59525 0.0
H414 H 0.40932 0.94725 0.60763 0.0
H415 H 0.29834 0.03442 0.56486 0.0
H416 H 0.32767 0.03454 0.59749 0.0
H417 H 0.33765 0.95829 0.58902 0.0
H418 H 0.30838 0.95803 0.55642 0.0
H419 H 0.38021 0.98258 0.59137 0.0
H420 H 0.30685 0.97873 0.63582 0.0
H421 H 0.2662 0.9913 0.64768 0.0
H422 H 0.29328 0.05992 0.66964 0.0
H423 H 0.33407 0.04788 0.65758 0.0
C424 C 0.43981 0.98032 0.69178 0.0
C425 C 0.44557 0.00231 0.70263 0.0
C426 C 0.42139 0.97901 0.67488 0.0
C427 C 0.40851 0.99969 0.66846 0.0
C428 C 0.41385 0.02153 0.67972 0.0
C429 C 0.43226 0.02285 0.6966 0.0
C430 C 0.38981 0.99869 0.64961 0.0
C431 C 0.36651 0.0063 0.65525 0.0
C432 C 0.39481 0.99 0.6263 0.0
C433 C 0.41935 0.98308 0.61879 0.0
C434 C 0.43842 0.99944 0.62076 0.0
C435 C 0.46154 0.99276 0.6138 0.0
C436 C 0.46578 0.96982 0.60465 0.0
C437 C 0.44689 0.95354 0.60238 0.0
C438 C 0.42374 0.96012 0.60936 0.0
C439 C 0.30669 0.01767 0.57006 0.0
C440 C 0.30108 0.99622 0.55811 0.0
C441 C 0.32337 0.01775 0.58874 0.0
C442 C 0.33472 0.99639 0.59575 0.0
C443 C 0.32908 0.97495 0.58388 0.0
C444 C 0.31231 0.97483 0.56532 0.0
C445 C 0.35302 0.99652 0.61497 0.0
C446 C 0.37628 0.98879 0.60938 0.0
C447 C 0.348 0.00518 0.63827 0.0
C448 C 0.32349 0.01248 0.64557 0.0
C449 C 0.30411 0.99658 0.64298 0.0
C450 C 0.28104 0.00359 0.64977 0.0
C451 C 0.27714 0.02642 0.65934 0.0
C452 C 0.29632 0.04226 0.66219 0.0
C453 C 0.31942 0.03534 0.6554 0.0
H454 H 0.25927 0.03181 0.6646 0.0
H455 H 0.48369 0.96468 0.59926 0.0
H456 H 0.99057 0.27986 0.58426 0.0
H457 H 0.98993 0.30962 0.61645 0.0
H458 H 0.04285 0.35163 0.57883 0.0
H459 H 0.04376 0.32178 0.54666 0.0
H460 H 0.05193 0.34965 0.62686 0.0
H461 H 0.98445 0.3666 0.57576 0.0
H462 H 0.94726 0.35689 0.55403 0.0
H463 H 0.91274 0.33878 0.62042 0.0
H464 H 0.94986 0.34808 0.64253 0.0
H465 H 0.03613 0.46224 0.683 0.0
H466 H 0.03871 0.42901 0.65461 0.0
H467 H 0.98228 0.39209 0.69249 0.0
H468 H 0.97921 0.42564 0.72066 0.0
H469 H 0.97491 0.38989 0.64582 0.0
H470 H 0.04165 0.37463 0.69734 0.0
H471 H 0.07878 0.3842 0.71923 0.0
H472 H 0.1147 0.39874 0.65271 0.0
H473 H 0.07768 0.38957 0.63043 0.0
C474 C 0.00222 0.29533 0.58294 0.0
C475 C 0.01712 0.29857 0.56288 0.0
C476 C 0.00177 0.31236 0.6013 0.0
C477 C 0.0161 0.33299 0.59987 0.0
C478 C 0.03161 0.33585 0.58025 0.0
C479 C 0.03207 0.31882 0.56188 0.0
C480 C 0.01439 0.35197 0.61841 0.0
C481 C 0.03516 0.35864 0.63087 0.0
C482 C 0.99237 0.36326 0.62401 0.0
C483 C 0.97 0.35779 0.61076 0.0
C484 C 0.96898 0.36037 0.58571 0.0
C485 C 0.94791 0.35497 0.57333 0.0
C486 C 0.92767 0.34716 0.58583 0.0
C487 C 0.92844 0.3448 0.61076 0.0
C488 C 0.94949 0.35015 0.62322 0.0
C489 C 0.02432 0.44701 0.68533 0.0
C490 C 0.0075 0.44649 0.70408 0.0
C491 C 0.0259 0.42796 0.66916 0.0
C492 C 0.01094 0.40786 0.67162 0.0
C493 C 0.99405 0.40737 0.69029 0.0
C494 C 0.99235 0.42651 0.70639 0.0
C495 C 0.0125 0.38771 0.65429 0.0
C496 C 0.99169 0.38083 0.64199 0.0
C497 C 0.03448 0.37619 0.6489 0.0
C498 C 0.05682 0.38161 0.66223 0.0
C499 C 0.05741 0.38003 0.68739 0.0
C500 C 0.07845 0.38536 0.69986 0.0
C501 C 0.09907 0.39212 0.68737 0.0
C502 C 0.09871 0.39351 0.66236 0.0
C503 C 0.07771 0.38823 0.6498 0.0
H504 H 0.11534 0.39624 0.69706 0.0
H505 H 0.91137 0.34299 0.57621 0.0
H506 H 0.58357 0.98976 0.72017 0.0
H507 H 0.61546 0.99171 0.69015 0.0
H508 H 0.57498 0.04428 0.65036 0.0
H509 H 0.54284 0.04205 0.68009 0.0
H510 H 0.59161 0.01082 0.62122 0.0
H511 H 0.62493 0.05993 0.68302 0.0
H512 H 0.63791 0.07017 0.72398 0.0
H513 H 0.68816 0.01185 0.723 0.0
H514 H 0.67523 0.00104 0.68213 0.0
H515 H 0.68495 0.04552 0.54189 0.0
H516 H 0.65503 0.04668 0.57398 0.0
H517 H 0.69084 0.98821 0.60975 0.0
H518 H 0.72078 0.98685 0.57763 0.0
H519 H 0.67702 0.02537 0.64094 0.0
H520 H 0.64268 0.97622 0.57907 0.0
H521 H 0.62976 0.96679 0.53789 0.0
H522 H 0.58129 0.0266 0.53903 0.0
H523 H 0.5942 0.03661 0.58012 0.0
C524 C 0.58156 0.00186 0.70512 0.0
C525 C 0.56072 0.01577 0.70249 0.0
C526 C 0.59984 0.00304 0.68801 0.0
C527 C 0.59774 0.01831 0.66808 0.0
C528 C 0.57701 0.03237 0.66557 0.0
C529 C 0.5587 0.03114 0.68262 0.0
C530 C 0.61671 0.01898 0.64939 0.0
C531 C 0.61022 0.01438 0.62552 0.0
C532 C 0.6411 0.02308 0.65502 0.0
C533 C 0.64893 0.02953 0.6796 0.0
C534 C 0.6386 0.04916 0.69161 0.0
C535 C 0.64598 0.05509 0.7148 0.0
C536 C 0.66381 0.04163 0.72611 0.0
C537 C 0.67433 0.02224 0.71423 0.0
C538 C 0.667 0.01622 0.69104 0.0
C539 C 0.68652 0.03299 0.55665 0.0
C540 C 0.70514 0.01602 0.55721 0.0
C541 C 0.6694 0.03364 0.57492 0.0
C542 C 0.67064 0.01741 0.59413 0.0
C543 C 0.68957 0.00088 0.59507 0.0
C544 C 0.70659 1.00007 0.57668 0.0
C545 C 0.65183 0.0173 0.6129 0.0
C546 C 0.65837 0.02192 0.63673 0.0
C547 C 0.62746 0.01335 0.60724 0.0
C548 C 0.6196 0.00731 0.58257 0.0
C549 C 0.62942 0.98749 0.57046 0.0
C550 C 0.62207 0.98202 0.54715 0.0
C551 C 0.60477 0.99613 0.53582 0.0
C552 C 0.59472 0.01571 0.54781 0.0
C553 C 0.60204 0.02128 0.57112 0.0
H554 H 0.59909 0.99186 0.51778 0.0
H555 H 0.6695 0.04625 0.74406 0.0
H556 H 0.43014 0.28779 0.02389 0.0
H557 H 0.39729 0.31657 0.02074 0.0
H558 H 0.43161 0.34936 0.95964 0.0
H559 H 0.46482 0.32084 0.96301 0.0
H560 H 0.41679 0.38262 0.99011 0.0
H561 H 0.38144 0.31397 0.95325 0.0
H562 H 0.36924 0.27163 0.9497 0.0
H563 H 0.32483 0.27878 0.01217 0.0
H564 H 0.33703 0.3211 0.01629 0.0
H565 H 0.3171 0.45593 0.96026 0.0
H566 H 0.34773 0.42459 0.95784 0.0
H567 H 0.32015 0.3924 0.02253 0.0
H568 H 0.28941 0.42366 0.02503 0.0
H569 H 0.33123 0.35872 0.98781 0.0
H570 H 0.36847 0.42697 0.02538 0.0
H571 H 0.38057 0.4694 0.0284 0.0
H572 H 0.42145 0.46277 0.96351 0.0
H573 H 0.4093 0.42037 0.95991 0.0
C574 C 0.43062 0.30102 0.00968 0.0
C575 C 0.45004 0.30204 0.99367 0.0
C576 C 0.41176 0.3174 0.00782 0.0
C577 C 0.41182 0.33498 0.98978 0.0
C578 C 0.43115 0.33593 0.97368 0.0
C579 C 0.45008 0.31959 0.97558 0.0
C580 C 0.39218 0.35292 0.98835 0.0
C581 C 0.39811 0.37737 0.98917 0.0
C582 C 0.36775 0.3461 0.98763 0.0
C583 C 0.36032 0.32066 0.98519 0.0
C584 C 0.36922 0.30647 0.96634 0.0
C585 C 0.36228 0.28248 0.96421 0.0
C586 C 0.34631 0.2725 0.98073 0.0
C587 C 0.33721 0.28652 0.99939 0.0
C588 C 0.34412 0.31052 0.00162 0.0
C589 C 0.31745 0.44207 0.97387 0.0
C590 C 0.30094 0.4423 0.99291 0.0
C591 C 0.335 0.42424 0.9725 0.0
C592 C 0.33636 0.40633 0.99015 0.0
C593 C 0.31942 0.40608 0.00875 0.0
C594 C 0.30193 0.42398 0.01019 0.0
C595 C 0.35591 0.3883 0.98967 0.0
C596 C 0.34994 0.36389 0.98855 0.0
C597 C 0.38031 0.39513 0.99002 0.0
C598 C 0.38776 0.42058 0.99223 0.0
C599 C 0.37988 0.43462 0.01164 0.0
C600 C 0.38677 0.45865 0.01348 0.0
C601 C 0.40171 0.46879 0.99612 0.0
C602 C 0.40985 0.4549 0.97692 0.0
C603 C 0.40297 0.43087 0.97498 0.0
H604 H 0.40703 0.4874 0.99757 0.0
H605 H 0.34096 0.25393 0.97905 0.0
H606 H 0.27632 0.58399 0.99156 0.0
H607 H 0.30551 0.6167 0.99114 0.0
H608 H 0.36086 0.56739 0.01341 0.0
H609 H 0.33145 0.53499 0.01505 0.0
H610 H 0.36752 0.60619 0.03556 0.0
H611 H 0.35367 0.58763 0.95324 0.0
H612 H 0.32993 0.5808 0.91662 0.0
H613 H 0.30408 0.6533 0.91939 0.0
H614 H 0.32744 0.66047 0.95622 0.0
H615 H 0.45033 0.69254 0.96223 0.0
H616 H 0.41992 0.66102 0.96345 0.0
H617 H 0.3964 0.68637 0.0327 0.0
H618 H 0.42763 0.7171 0.03205 0.0
H619 H 0.37464 0.65882 0.9642 0.0
H620 H 0.3759 0.64154 0.06688 0.0
H621 H 0.40421 0.644 0.10073 0.0
H622 H 0.4634 0.63534 0.0523 0.0
H623 H 0.43544 0.63251 0.01822 0.0
C624 C 0.29471 0.58021 0.99647 0.0
C625 C 0.30166 0.55698 0.00328 0.0
C626 C 0.31142 0.59887 0.99607 0.0
C627 C 0.33555 0.59449 0.0018 0.0
C628 C 0.34239 0.57129 0.00892 0.0
C629 C 0.32558 0.55276 0.0098 0.0
C630 C 0.35372 0.61397 1.00034 0.0
C631 C 0.36903 0.61768 0.01994 0.0
C632 C 0.35616 0.62872 0.97978 0.0
C633 C 0.34212 0.62451 0.95761 0.0
C634 C 0.34279 0.60206 0.94613 0.0
C635 C 0.32942 0.59814 0.92533 0.0
C636 C 0.31545 0.61658 0.91572 0.0
C637 C 0.31488 0.63901 0.92687 0.0
C638 C 0.32819 0.64303 0.9477 0.0
C639 C 0.43861 0.69139 0.97768 0.0
C640 C 0.44144 0.7071 0.99714 0.0
C641 C 0.42119 0.67341 0.97835 0.0
C642 C 0.40607 0.67099 0.99835 0.0
C643 C 0.40823 0.6874 0.01735 0.0
C644 C 0.42598 0.70506 0.01691 0.0
C645 C 0.38836 0.65107 0.99945 0.0
C646 C 0.37308 0.64734 0.97982 0.0
C647 C 0.38662 0.63565 0.01957 0.0
C648 C 0.40358 0.63708 0.03999 0.0
C649 C 0.39496 0.64008 0.06348 0.0
C650 C 0.41094 0.64155 0.0827 0.0
C651 C 0.43559 0.63991 0.07866 0.0
C652 C 0.44431 0.6367 0.0554 0.0
C653 C 0.4284 0.63518 0.03612 0.0
H654 H 0.44794 0.64108 0.09356 0.0
H655 H 0.30512 0.61351 0.89961 0.0
H656 H 0.5531 0.31953 0.04454 0.0
H657 H 0.58461 0.35004 0.04696 0.0
H658 H 0.61252 0.32679 0.97869 0.0
H659 H 0.58116 0.29628 0.97617 0.0
H660 H 0.64823 0.33479 0.01173 0.0
H661 H 0.57852 0.37558 0.98135 0.0
H662 H 0.53631 0.38861 0.98182 0.0
H663 H 0.54777 0.42495 0.04868 0.0
H664 H 0.58999 0.41183 0.04877 0.0
H665 H 0.71759 0.43543 0.9766 0.0
H666 H 0.68839 0.40288 0.97954 0.0
H667 H 0.66205 0.4323 0.04605 0.0
H668 H 0.69106 0.46507 0.04307 0.0
H669 H 0.62583 0.4208 0.01659 0.0
H670 H 0.69624 0.38199 0.04596 0.0
H671 H 0.73845 0.36897 0.04549 0.0
H672 H 0.72592 0.32893 0.98099 0.0
H673 H 0.6837 0.34199 0.98087 0.0
C674 C 0.56604 0.32086 0.03012 0.0
C675 C 0.56462 0.30562 0.01012 0.0
C676 C 0.58397 0.33831 0.03149 0.0
C677 C 0.60077 0.34078 0.0129 0.0
C678 C 0.59973 0.32517 0.99322 0.0
C679 C 0.58176 0.30783 0.99178 0.0
C680 C 0.61908 0.36002 0.01358 0.0
C681 C 0.64336 0.35362 0.01258 0.0
C682 C 0.61269 0.38453 0.01526 0.0
C683 C 0.58734 0.39249 0.0152 0.0
C684 C 0.57198 0.38618 0.99625 0.0
C685 C 0.54807 0.39361 0.9964 0.0
C686 C 0.53934 0.40754 0.01531 0.0
C687 C 0.55454 0.41412 0.03407 0.0
C688 C 0.57847 0.4067 0.03403 0.0
C689 C 0.70567 0.43489 0.99191 0.0
C690 C 0.70662 0.45278 0.00962 0.0
C691 C 0.68906 0.41622 0.99363 0.0
C692 C 0.67318 0.41503 0.01314 0.0
C693 C 0.67415 0.43285 0.03087 0.0
C694 C 0.69078 0.45152 0.02917 0.0
C695 C 0.65506 0.39562 0.0146 0.0
C696 C 0.63077 0.40198 0.01596 0.0
C697 C 0.66146 0.37108 0.01328 0.0
C698 C 0.68685 0.36316 0.01329 0.0
C699 C 0.70253 0.37057 0.03156 0.0
C700 C 0.72645 0.36315 0.03142 0.0
C701 C 0.73487 0.34818 0.01319 0.0
C702 C 0.71938 0.34055 0.99509 0.0
C703 C 0.69544 0.34794 0.99513 0.0
H704 H 0.7534 0.34246 0.01312 0.0
H705 H 0.52082 0.41328 0.01538 0.0
H706 H 0.67726 0.54754 0.98381 0.0
H707 H 0.64833 0.5803 0.98312 0.0
H708 H 0.70141 0.62818 0.01261 0.0
H709 H 0.73023 0.59502 0.01423 0.0
H710 H 0.6609 0.63584 0.03386 0.0
H711 H 0.68404 0.63023 0.95199 0.0
H712 H 0.69236 0.61056 0.91329 0.0
H713 H 0.61882 0.58867 0.90819 0.0
H714 H 0.61012 0.60792 0.94703 0.0
H715 H 0.58421 0.73703 0.00801 0.0
H716 H 0.61847 0.70939 0.00759 0.0
H717 H 0.57115 0.65076 0.99038 0.0
H718 H 0.53697 0.67811 0.99092 0.0
H719 H 0.61211 0.65255 0.96147 0.0
H720 H 0.59093 0.65643 0.04577 0.0
H721 H 0.58361 0.67734 0.08402 0.0
H722 H 0.65546 0.70478 0.08317 0.0
H723 H 0.6631 0.68427 0.04472 0.0
C724 C 0.68282 0.56507 0.99004 0.0
C725 C 0.70604 0.56876 0.99896 0.0
C726 C 0.66629 0.58385 0.98952 0.0
C727 C 0.67278 0.6069 0.99736 0.0
C728 C 0.69599 0.6106 0.00636 0.0
C729 C 0.71246 0.59168 0.00722 0.0
C730 C 0.65505 0.62681 0.99674 0.0
C731 C 0.65058 0.63978 0.01787 0.0
C732 C 0.64136 0.63191 0.97597 0.0
C733 C 0.64648 0.62039 0.95252 0.0
C734 C 0.66968 0.62109 0.9427 0.0
C735 C 0.67445 0.61003 0.92072 0.0
C736 C 0.65614 0.59834 0.90831 0.0
C737 C 0.63299 0.59773 0.91783 0.0
C738 C 0.62812 0.60874 0.93981 0.0
C739 C 0.58115 0.71824 0.00419 0.0
C740 C 0.55793 0.70971 0.99953 0.0
C741 C 0.6007 0.70249 0.004 0.0
C742 C 0.5973 0.67804 0.999 0.0
C743 C 0.57415 0.66957 0.99422 0.0
C744 C 0.55463 0.68521 0.99463 0.0
C745 C 0.61775 0.66108 0.99864 0.0
C746 C 0.6227 0.64873 0.97732 0.0
C747 C 0.63207 0.6568 0.0191 0.0
C748 C 0.62749 0.66905 0.04224 0.0
C749 C 0.6051 0.66709 0.05363 0.0
C750 C 0.60091 0.67884 0.07537 0.0
C751 C 0.61903 0.69245 0.08598 0.0
C752 C 0.64142 0.69427 0.07491 0.0
C753 C 0.64569 0.68258 0.05315 0.0
H754 H 0.61576 0.70152 0.10281 0.0
H755 H 0.65988 0.58978 0.8913 0.0
H756 H 0.47155 0.82473 0.95276 0.0
H757 H 0.47255 0.85313 0.91952 0.0
H758 H 0.52826 0.81162 0.88548 0.0
H759 H 0.52777 0.78336 0.91919 0.0
H760 H 0.53858 0.85787 0.88329 0.0
H761 H 0.46985 0.81065 0.86459 0.0
H762 H 0.43123 0.7906 0.87218 0.0
H763 H 0.39826 0.85871 0.88646 0.0
H764 H 0.43677 0.87915 0.87928 0.0
H765 H 0.52849 0.92754 0.77595 0.0
H766 H 0.5283 0.89356 0.80385 0.0
H767 H 0.47503 0.92932 0.84705 0.0
H768 H 0.47491 0.9631 0.81914 0.0
H769 H 0.46433 0.88258 0.84116 0.0
H770 H 0.53413 0.92903 0.86307 0.0
H771 H 0.57287 0.9489 0.85554 0.0
H772 H 0.60377 0.88153 0.83463 0.0
H773 H 0.5651 0.86131 0.84175 0.0
C774 C 0.48395 0.82157 0.93815 0.0
C775 C 0.49952 0.80176 0.93851 0.0
C776 C 0.48442 0.83776 0.91908 0.0
C777 C 0.50019 0.83431 0.89976 0.0
C778 C 0.51587 0.81459 0.90013 0.0
C779 C 0.51553 0.79844 0.91935 0.0
C780 C 0.50066 0.85173 0.8796 0.0
C781 C 0.52241 0.86293 0.87376 0.0
C782 C 0.47952 0.85863 0.86738 0.0
C783 C 0.45626 0.84641 0.87156 0.0
C784 C 0.45441 0.82134 0.8695 0.0
C785 C 0.43252 0.80991 0.87371 0.0
C786 C 0.41231 0.82337 0.87984 0.0
C787 C 0.41393 0.8483 0.88172 0.0
C788 C 0.43578 0.85983 0.87755 0.0
C789 C 0.5167 0.92809 0.79136 0.0
C790 C 0.50177 0.948 0.79541 0.0
C791 C 0.51667 0.90872 0.80732 0.0
C792 C 0.50181 0.909 0.82766 0.0
C793 C 0.48662 0.9287 0.83147 0.0
C794 C 0.48663 0.94803 0.81555 0.0
C795 C 0.50213 0.88898 0.84521 0.0
C796 C 0.48052 0.87729 0.85052 0.0
C797 C 0.5234 0.88158 0.85686 0.0
C798 C 0.54666 0.89371 0.85268 0.0
C799 C 0.54914 0.91849 0.85669 0.0
C800 C 0.57109 0.92981 0.85253 0.0
C801 C 0.59075 0.9165 0.84454 0.0
C802 C 0.58851 0.89183 0.84077 0.0
C803 C 0.56659 0.88043 0.84488 0.0
H804 H 0.60773 0.9253 0.84133 0.0
H805 H 0.39539 0.81448 0.8831 0.0
H806 H 0.21548 0.47147 0.92695 0.0
H807 H 0.18563 0.47389 0.89495 0.0
H808 H 0.16112 0.54182 0.92273 0.0
H809 H 0.1907 0.53935 0.95496 0.0
H810 H 0.1242 0.51298 0.91292 0.0
H811 H 0.19491 0.53896 0.87176 0.0
H812 H 0.23679 0.53639 0.85794 0.0
H813 H 0.22089 0.47116 0.8203 0.0
H814 H 0.17897 0.47315 0.83418 0.0
H815 H 0.0504 0.54314 0.81396 0.0
H816 H 0.08264 0.54397 0.84366 0.0
H817 H 0.10776 0.47524 0.81854 0.0
H818 H 0.07576 0.47442 0.78862 0.0
H819 H 0.14467 0.50573 0.82667 0.0
H820 H 0.07441 0.47914 0.86891 0.0
H821 H 0.03252 0.48163 0.88271 0.0
H822 H 0.04774 0.5481 0.91843 0.0
H823 H 0.08967 0.54617 0.90453 0.0
C824 C 0.20381 0.48698 0.92615 0.0
C825 C 0.20543 0.50524 0.94343 0.0
C826 C 0.18683 0.48839 0.9078 0.0
C827 C 0.17129 0.50816 0.90631 0.0
C828 C 0.17294 0.52643 0.92353 0.0
C829 C 0.18989 0.52501 0.94189 0.0
C830 C 0.15281 0.50943 0.88723 0.0
C831 C 0.12872 0.51178 0.89404 0.0
C832 C 0.15866 0.50731 0.86263 0.0
C833 C 0.18385 0.50609 0.8542 0.0
C834 C 0.20039 0.52396 0.86069 0.0
C835 C 0.22413 0.52263 0.85282 0.0
C836 C 0.23151 0.50359 0.8383 0.0
C837 C 0.21515 0.48588 0.83157 0.0
C838 C 0.19139 0.48712 0.83942 0.0
C839 C 0.06288 0.52827 0.81469 0.0
C840 C 0.0605 0.50865 0.79906 0.0
C841 C 0.08123 0.52873 0.83171 0.0
C842 C 0.09742 0.50952 0.8335 0.0
C843 C 0.09544 0.49022 0.81749 0.0
C844 C 0.07711 0.48975 0.80047 0.0
C845 C 0.11611 0.50926 0.85239 0.0
C846 C 0.1402 0.50706 0.84555 0.0
C847 C 0.11028 0.51151 0.87698 0.0
C848 C 0.08511 0.51264 0.88547 0.0
C849 C 0.06878 0.49438 0.87955 0.0
C850 C 0.04503 0.49567 0.88741 0.0
C851 C 0.03745 0.51504 0.90138 0.0
C852 C 0.05363 0.53312 0.90757 0.0
C853 C 0.07739 0.53193 0.89972 0.0
H854 H 0.01906 0.51601 0.90746 0.0
H855 H 0.2499 0.5026 0.83222 0.0
H856 H 0.54267 0.07242 0.79499 0.0
H857 H 0.54309 0.10433 0.82513 0.0
H858 H 0.46786 0.09271 0.83867 0.0
H859 H 0.46719 0.0614 0.80807 0.0
H860 H 0.47656 0.13875 0.83778 0.0
H861 H 0.51266 0.07074 0.87656 0.0
H862 H 0.54156 0.03758 0.88107 0.0
H863 H 0.59976 0.0879 0.88084 0.0
H864 H 0.57121 0.12135 0.87602 0.0
H865 H 0.46895 0.1976 0.95095 0.0
H866 H 0.46864 0.168 0.91852 0.0
H867 H 0.54277 0.18369 0.90328 0.0
H868 H 0.54328 0.21301 0.93584 0.0
H869 H 0.53502 0.13623 0.90465 0.0
H870 H 0.49797 0.20444 0.86701 0.0
H871 H 0.46846 0.23713 0.8632 0.0
H872 H 0.41121 0.18575 0.86224 0.0
H873 H 0.44037 0.15274 0.86637 0.0
C874 C 0.52623 0.07675 0.80437 0.0
C875 C 0.50493 0.06437 0.79927 0.0
C876 C 0.5265 0.0949 0.82166 0.0
C877 C 0.50558 0.10069 0.83446 0.0
C878 C 0.48423 0.08858 0.82907 0.0
C879 C 0.48388 0.07063 0.81161 0.0
C880 C 0.50589 0.11923 0.8536 0.0
C881 C 0.48917 0.13803 0.85255 0.0
C882 C 0.52263 0.11859 0.87265 0.0
C883 C 0.53981 0.09852 0.87569 0.0
C884 C 0.53163 0.07472 0.87731 0.0
C885 C 0.54795 0.05587 0.87994 0.0
C886 C 0.57249 0.06062 0.88118 0.0
C887 C 0.58075 0.08424 0.87985 0.0
C888 C 0.56451 0.10315 0.87718 0.0
C889 C 0.48514 0.19479 0.94061 0.0
C890 C 0.50613 0.20763 0.9459 0.0
C891 C 0.48492 0.17795 0.92204 0.0
C892 C 0.50563 0.17379 0.90833 0.0
C893 C 0.52659 0.18661 0.91361 0.0
C894 C 0.52683 0.20341 0.93218 0.0
C895 C 0.50568 0.15569 0.88883 0.0
C896 C 0.52246 0.13697 0.88983 0.0
C897 C 0.4889 0.15632 0.86984 0.0
C898 C 0.47135 0.17613 0.86722 0.0
C899 C 0.47908 0.20012 0.86616 0.0
C900 C 0.46242 0.21871 0.86392 0.0
C901 C 0.43797 0.21353 0.86254 0.0
C902 C 0.43015 0.18974 0.86333 0.0
C903 C 0.44674 0.17108 0.8656 0.0
H904 H 0.4251 0.22794 0.8608 0.0
H905 H 0.58509 0.04601 0.88321 0.0
H906 H 0.92375 0.52844 0.78057 0.0
H907 H 0.89092 0.52816 0.80964 0.0
H908 H 0.92842 0.47514 0.85169 0.0
H909 H 0.96097 0.47484 0.82231 0.0
H910 H 0.88241 0.46445 0.84959 0.0
H911 H 0.92799 0.53569 0.86698 0.0
H912 H 0.94733 0.57432 0.85755 0.0
H913 H 0.87935 0.60394 0.83706 0.0
H914 H 0.85964 0.56537 0.84608 0.0
H915 H 0.82284 0.47852 0.96086 0.0
H916 H 0.85181 0.477 0.92807 0.0
H917 H 0.81055 0.52946 0.88895 0.0
H918 H 0.78173 0.53145 0.92203 0.0
H919 H 0.85675 0.54051 0.88795 0.0
H920 H 0.81087 0.46946 0.87283 0.0
H921 H 0.79186 0.43082 0.88284 0.0
H922 H 0.86064 0.40074 0.89965 0.0
H923 H 0.88004 0.43931 0.89005 0.0
C924 C 0.92494 0.51666 0.79598 0.0
C925 C 0.94497 0.50174 0.79925 0.0
C926 C 0.90622 0.51659 0.81263 0.0
C927 C 0.90736 0.5019 0.83307 0.0
C928 C 0.92715 0.48665 0.83609 0.0
C929 C 0.94577 0.48654 0.81932 0.0
C930 C 0.88811 0.50261 0.85147 0.0
C931 C 0.87697 0.48104 0.85816 0.0
C932 C 0.88058 0.52433 0.86226 0.0
C933 C 0.89239 0.54757 0.85697 0.0
C934 C 0.91719 0.55039 0.8603 0.0
C935 C 0.92822 0.57228 0.85506 0.0
C936 C 0.91459 0.59155 0.84665 0.0
C937 C 0.88989 0.58899 0.84354 0.0
C938 C 0.87878 0.56713 0.84873 0.0
C939 C 0.81985 0.48962 0.94521 0.0
C940 C 0.8 0.50508 0.94398 0.0
C941 C 0.83637 0.48865 0.92641 0.0
C942 C 0.83321 0.50288 0.90588 0.0
C943 C 0.81333 0.51828 0.90458 0.0
C944 C 0.79685 0.51935 0.92346 0.0
C945 C 0.85113 0.50233 0.88619 0.0
C946 C 0.86205 0.52392 0.87927 0.0
C947 C 0.8585 0.48062 0.87525 0.0
C948 C 0.84688 0.45735 0.8809 0.0
C949 C 0.82192 0.45466 0.87882 0.0
C950 C 0.81108 0.43276 0.88439 0.0
C951 C 0.82502 0.41335 0.89192 0.0
C952 C 0.84985 0.41579 0.89383 0.0
C953 C 0.86079 0.43766 0.88829 0.0
H954 H 0.81659 0.39641 0.89624 0.0
H955 H 0.92316 0.60849 0.84259 0.0
H956 H 0.48289 0.08324 0.22124 0.0
H957 H 0.48478 0.11641 0.19254 0.0
H958 H 0.54168 0.08039 0.15451 0.0
H959 H 0.54003 0.04727 0.18328 0.0
H960 H 0.55044 0.12825 0.1589 0.0
H961 H 0.48519 0.07792 0.13378 0.0
H962 H 0.44736 0.05569 0.13885 0.0
H963 H 0.41074 0.12122 0.15604 0.0
H964 H 0.44846 0.14381 0.15139 0.0
H965 H 0.54338 0.18875 0.04686 0.0
H966 H 0.54403 0.15937 0.07943 0.0
H967 H 0.48532 0.19609 0.11388 0.0
H968 H 0.48433 0.22531 0.08115 0.0
H969 H 0.47748 0.14901 0.11259 0.0
H970 H 0.54255 0.19973 0.13596 0.0
H971 H 0.58042 0.22185 0.13067 0.0
H972 H 0.61744 0.1558 0.11663 0.0
H973 H 0.57971 0.1333 0.12151 0.0
C974 C 0.49591 0.08247 0.20686 0.0
C975 C 0.51123 0.06261 0.20442 0.0
C976 C 0.49692 0.10139 0.19043 0.0
C977 C 0.51318 0.10073 0.17122 0.0
C978 C 0.52898 0.08125 0.16918 0.0
C979 C 0.52796 0.06231 0.18558 0.0
C980 C 0.51327 0.11999 0.15285 0.0
C981 C 0.53457 0.13265 0.14859 0.0
C982 C 0.49241 0.12605 0.13977 0.0
C983 C 0.4697 0.11252 0.14249 0.0
C984 C 0.46911 0.08756 0.13883 0.0
C985 C 0.44768 0.0749 0.14159 0.0
C986 C 0.42667 0.08702 0.14783 0.0
C987 C 0.42704 0.11185 0.15125 0.0
C988 C 0.44843 0.12459 0.14854 0.0
C989 C 0.53073 0.19066 0.06147 0.0
C990 C 0.51381 0.20933 0.06147 0.0
C991 C 0.53119 0.17392 0.08012 0.0
C992 C 0.51487 0.17565 0.09923 0.0
C993 C 0.49809 0.19441 0.09934 0.0
C994 C 0.49759 0.21113 0.08067 0.0
C995 C 0.51467 0.15734 0.11858 0.0
C996 C 0.49334 0.14477 0.12299 0.0
C997 C 0.53551 0.15139 0.13177 0.0
C998 C 0.55825 0.16486 0.12888 0.0
C999 C 0.55873 0.18994 0.13156 0.0
C1000 C 0.58018 0.20254 0.12867 0.0
C1001 C 0.60132 0.19024 0.12326 0.0
C1002 C 0.60105 0.1653 0.12079 0.0
C1003 C 0.57964 0.15262 0.12364 0.0
H1004 H 0.6179 0.20003 0.12104 0.0
H1005 H 0.4101 0.07718 0.14996 0.0
H1006 H 0.95631 0.54115 0.19096 0.0
H1007 H 0.92375 0.54356 0.16175 0.0
H1008 H 0.90141 0.47193 0.1807 0.0
H1009 H 0.93423 0.46924 0.2096 0.0
H1010 H 0.9021 0.47729 0.13346 0.0
H1011 H 0.87022 0.5217 0.1998 0.0
H1012 H 0.87001 0.55285 0.23115 0.0
H1013 H 0.8746 0.60772 0.17732 0.0
H1014 H 0.87518 0.57687 0.14563 0.0
H1015 H 0.7899 0.47862 0.07505 0.0
H1016 H 0.82023 0.47799 0.10663 0.0
H1017 H 0.84516 0.54771 0.0842 0.0
H1018 H 0.8147 0.54853 0.05262 0.0
H1019 H 0.84278 0.5436 0.13334 0.0
H1020 H 0.87514 0.49893 0.06717 0.0
H1021 H 0.87503 0.46767 0.03592 0.0
H1022 H 0.86925 0.41307 0.08992 0.0
H1023 H 0.86897 0.44405 0.1215 0.0
C1024 C 0.94441 0.52594 0.18894 0.0
C1025 C 0.94778 0.50501 0.20258 0.0
C1026 C 0.92574 0.52739 0.17233 0.0
C1027 C 0.90995 0.50803 0.16923 0.0
C1028 C 0.91335 0.48709 0.18281 0.0
C1029 C 0.93207 0.4856 0.19935 0.0
C1030 C 0.89024 0.50937 0.15144 0.0
C1031 C 0.88893 0.4916 0.13368 0.0
C1032 C 0.87338 0.52836 0.15134 0.0
C1033 C 0.87297 0.54696 0.17035 0.0
C1034 C 0.87138 0.5404 0.19465 0.0
C1035 C 0.87116 0.55801 0.21248 0.0
C1036 C 0.87235 0.58225 0.20623 0.0
C1037 C 0.87371 0.58894 0.18213 0.0
C1038 C 0.87396 0.5714 0.16423 0.0
C1039 C 0.80171 0.4939 0.07695 0.0
C1040 C 0.80003 0.51357 0.06129 0.0
C1041 C 0.81908 0.49348 0.09495 0.0
C1042 C 0.83514 0.51267 0.09755 0.0
C1043 C 0.83297 0.5327 0.08245 0.0
C1044 C 0.81562 0.53311 0.0644 0.0
C1045 C 0.85464 0.51147 0.11552 0.0
C1046 C 0.85594 0.52928 0.13323 0.0
C1047 C 0.87148 0.49249 0.11563 0.0
C1048 C 0.8718 0.47382 0.09668 0.0
C1049 C 0.87366 0.48027 0.07237 0.0
C1050 C 0.8737 0.4626 0.0546 0.0
C1051 C 0.87207 0.4384 0.06092 0.0
C1052 C 0.87047 0.43182 0.08504 0.0
C1053 C 0.87039 0.44943 0.10289 0.0
H1054 H 0.87211 0.42475 0.04714 0.0
H1055 H 0.87218 0.59585 0.22007 0.0
H1056 H 0.46351 0.81666 0.04841 0.0
H1057 H 0.46375 0.84552 0.08134 0.0
H1058 H 0.5312 0.81701 0.10601 0.0
H1059 H 0.53104 0.78789 0.07303 0.0
H1060 H 0.49912 0.82622 0.14332 0.0
H1061 H 0.53145 0.86728 0.07495 0.0
H1062 H 0.53203 0.88126 0.03302 0.0
H1063 H 0.4668 0.92038 0.04475 0.0
H1064 H 0.46565 0.90633 0.08668 0.0
H1065 H 0.52988 0.92575 0.21771 0.0
H1066 H 0.52898 0.89332 0.18821 0.0
H1067 H 0.4652 0.9237 0.1568 0.0
H1068 H 0.46632 0.95644 0.18592 0.0
H1069 H 0.49646 0.91287 0.12311 0.0
H1070 H 0.46373 0.87195 0.19132 0.0
H1071 H 0.46256 0.85768 0.23315 0.0
H1072 H 0.52772 0.81828 0.22194 0.0
H1073 H 0.52945 0.83258 0.18012 0.0
C1074 C 0.47834 0.81641 0.06091 0.0
C1075 C 0.49734 0.80012 0.05807 0.0
C1076 C 0.47847 0.83295 0.07968 0.0
C1077 C 0.49763 0.83358 0.09593 0.0
C1078 C 0.51627 0.81684 0.09361 0.0
C1079 C 0.51619 0.80029 0.07475 0.0
C1080 C 0.49844 0.85225 0.11482 0.0
C1081 C 0.49887 0.84518 0.13896 0.0
C1082 C 0.49761 0.87696 0.10906 0.0
C1083 C 0.49835 0.88557 0.0839 0.0
C1084 C 0.51713 0.87871 0.06854 0.0
C1085 C 0.51758 0.88667 0.04478 0.0
C1086 C 0.49943 0.90165 0.03621 0.0
C1087 C 0.48083 0.90875 0.05141 0.0
C1088 C 0.48028 0.90081 0.07518 0.0
C1089 C 0.51555 0.92539 0.20464 0.0
C1090 C 0.49817 0.94363 0.2041 0.0
C1091 C 0.515 0.90678 0.18785 0.0
C1092 C 0.4969 0.90594 0.17039 0.0
C1093 C 0.47934 0.92398 0.17008 0.0
C1094 C 0.47996 0.94264 0.18678 0.0
C1095 C 0.49686 0.88691 0.15175 0.0
C1096 C 0.49668 0.89392 0.12758 0.0
C1097 C 0.49785 0.86218 0.15752 0.0
C1098 C 0.49684 0.85354 0.18265 0.0
C1099 C 0.47791 0.8604 0.19783 0.0
C1100 C 0.47713 0.85228 0.22153 0.0
C1101 C 0.49509 0.83714 0.23022 0.0
C1102 C 0.51384 0.83004 0.2152 0.0
C1103 C 0.51471 0.83813 0.19149 0.0
H1104 H 0.49445 0.83087 0.24857 0.0
H1105 H 0.49981 0.90779 0.0178 0.0
H1106 H 0.19116 0.46119 0.04845 0.0
H1107 H 0.16128 0.46047 0.0805 0.0
H1108 H 0.18956 0.52675 0.10857 0.0
H1109 H 0.21984 0.52731 0.07679 0.0
H1110 H 0.17871 0.49648 0.14426 0.0
H1111 H 0.1391 0.52627 0.0741 0.0
H1112 H 0.12613 0.52583 0.03186 0.0
H1113 H 0.08781 0.46017 0.04399 0.0
H1114 H 0.10084 0.46005 0.08625 0.0
H1115 H 0.07672 0.53059 0.21343 0.0
H1116 H 0.1092 0.52892 0.18398 0.0
H1117 H 0.08279 0.46087 0.15847 0.0
H1118 H 0.05021 0.46247 0.18782 0.0
H1119 H 0.09286 0.49174 0.12182 0.0
H1120 H 0.13214 0.46291 0.19275 0.0
H1121 H 0.14495 0.46432 0.235 0.0
H1122 H 0.18356 0.52953 0.22146 0.0
H1123 H 0.17069 0.52869 0.17917 0.0
C1124 C 0.19113 0.47551 0.06156 0.0
C1125 C 0.20774 0.49439 0.06004 0.0
C1126 C 0.17398 0.47514 0.0798 0.0
C1127 C 0.17292 0.49378 0.09671 0.0
C1128 C 0.19 0.51223 0.09569 0.0
C1129 C 0.20725 0.51255 0.07749 0.0
C1130 C 0.15362 0.49433 0.11504 0.0
C1131 C 0.15993 0.49573 0.13935 0.0
C1132 C 0.12911 0.49294 0.10865 0.0
C1133 C 0.12115 0.49303 0.08328 0.0
C1134 C 0.12806 0.51164 0.06772 0.0
C1135 C 0.12067 0.51151 0.04378 0.0
C1136 C 0.10621 0.49295 0.03523 0.0
C1137 C 0.09904 0.47452 0.05063 0.0
C1138 C 0.10641 0.47455 0.07458 0.0
C1139 C 0.07789 0.51524 0.20161 0.0
C1140 C 0.06094 0.49664 0.20294 0.0
C1141 C 0.0965 0.51426 0.18486 0.0
C1142 C 0.09852 0.49468 0.16917 0.0
C1143 C 0.08157 0.47613 0.17043 0.0
C1144 C 0.06302 0.47704 0.18725 0.0
C1145 C 0.11795 0.49381 0.15103 0.0
C1146 C 0.11164 0.49241 0.12674 0.0
C1147 C 0.14242 0.49536 0.15744 0.0
C1148 C 0.15025 0.49586 0.18284 0.0
C1149 C 0.14319 0.47766 0.19882 0.0
C1150 C 0.1505 0.47834 0.22277 0.0
C1151 C 0.16501 0.49704 0.23092 0.0
C1152 C 0.1723 0.51507 0.21512 0.0
C1153 C 0.16502 0.51449 0.19116 0.0
H1154 H 0.17065 0.49753 0.24947 0.0
H1155 H 0.10051 0.49288 0.0167 0.0
H1156 H 0.8047 0.95287 0.5405 0.0
H1157 H 0.83345 0.91978 0.54107 0.0
H1158 H 0.82509 0.91104 0.46467 0.0
H1159 H 0.79571 0.9436 0.46416 0.0
H1160 H 0.82742 0.86878 0.48515 0.0
H1161 H 0.87386 0.94111 0.4898 0.0
H1162 H 0.88586 0.98033 0.50631 0.0
H1163 H 0.90245 0.94718 0.57378 0.0
H1164 H 0.89024 0.9078 0.55775 0.0
H1165 H 0.93472 0.80335 0.463 0.0
H1166 H 0.90307 0.83371 0.46389 0.0
H1167 H 0.90932 0.83818 0.54083 0.0
H1168 H 0.9412 0.80804 0.54002 0.0
H1169 H 0.90776 0.88206 0.52068 0.0
H1170 H 0.86223 0.80913 0.51473 0.0
H1171 H 0.85084 0.77019 0.49716 0.0
H1172 H 0.83339 0.80492 0.43072 0.0
H1173 H 0.84499 0.84404 0.44779 0.0
C1174 C 0.8089 0.9438 0.52385 0.0
C1175 C 0.79807 0.9509 0.50226 0.0
C1176 C 0.82543 0.92497 0.52417 0.0
C1177 C 0.83181 0.91319 0.50283 0.0
C1178 C 0.82053 0.91988 0.48135 0.0
C1179 C 0.80377 0.93852 0.48107 0.0
C1180 C 0.8505 0.89419 0.50281 0.0
C1181 C 0.84508 0.87179 0.49267 0.0
C1182 C 0.87343 0.89791 0.51302 0.0
C1183 C 0.88092 0.92155 0.52264 0.0
C1184 C 0.87991 0.94221 0.5082 0.0
C1185 C 0.88677 0.96446 0.51747 0.0
C1186 C 0.89485 0.96625 0.5411 0.0
C1187 C 0.89616 0.94577 0.55549 0.0
C1188 C 0.88929 0.92348 0.54632 0.0
C1189 C 0.92927 0.81073 0.48011 0.0
C1190 C 0.9404 0.8033 0.50145 0.0
C1191 C 0.91112 0.828 0.48061 0.0
C1192 C 0.90365 0.83804 0.50246 0.0
C1193 C 0.91477 0.83065 0.52378 0.0
C1194 C 0.93294 0.81339 0.5233 0.0
C1195 C 0.88467 0.85669 0.50303 0.0
C1196 C 0.89007 0.87904 0.51324 0.0
C1197 C 0.86181 0.85297 0.49273 0.0
C1198 C 0.85469 0.82948 0.48248 0.0
C1199 C 0.85613 0.80844 0.49632 0.0
C1200 C 0.84961 0.78634 0.48646 0.0
C1201 C 0.84145 0.78508 0.46282 0.0
C1202 C 0.83974 0.80592 0.44902 0.0
C1203 C 0.84626 0.82807 0.45879 0.0
H1204 H 0.83642 0.76795 0.45522 0.0
H1205 H 0.90015 0.9835 0.54824 0.0
H1206 H 0.93377 0.22218 0.52775 0.0
H1207 H 0.90072 0.19347 0.52655 0.0
H1208 H 0.9321 0.15965 0.46449 0.0
H1209 H 0.96525 0.18847 0.4655 0.0
H1210 H 0.88295 0.16496 0.46047 0.0
H1211 H 0.93942 0.13461 0.51801 0.0
H1212 H 0.96548 0.13673 0.5536 0.0
H1213 H 0.90436 0.1511 0.5981 0.0
H1214 H 0.87795 0.14941 0.5627 0.0
H1215 H 0.82045 0.05424 0.46499 0.0
H1216 H 0.85086 0.08575 0.46415 0.0
H1217 H 0.82158 0.11592 0.52909 0.0
H1218 H 0.79132 0.08415 0.53025 0.0
H1219 H 0.86915 0.11324 0.53157 0.0
H1220 H 0.81238 0.14273 0.47453 0.0
H1221 H 0.7861 0.14097 0.43908 0.0
H1222 H 0.84715 0.12871 0.39384 0.0
H1223 H 0.87377 0.13005 0.42908 0.0
C1224 C 0.93356 0.20875 0.51373 0.0
C1225 C 0.95216 0.20747 0.49679 0.0
C1226 C 0.9147 0.19231 0.51313 0.0
C1227 C 0.91412 0.17426 0.49561 0.0
C1228 C 0.93225 0.17343 0.47818 0.0
C1229 C 0.95119 0.18984 0.47881 0.0
C1230 C 0.89497 0.15585 0.49598 0.0
C1231 C 0.88008 0.15344 0.47588 0.0
C1232 C 0.89092 0.14123 0.51633 0.0
C1233 C 0.90674 0.14213 0.53766 0.0
C1234 C 0.93156 0.13842 0.53535 0.0
C1235 C 0.94639 0.1395 0.5555 0.0
C1236 C 0.93659 0.14411 0.57809 0.0
C1237 C 0.91193 0.14757 0.58059 0.0
C1238 C 0.89701 0.14653 0.56049 0.0
C1239 C 0.82043 0.06765 0.47904 0.0
C1240 C 0.80349 0.06676 0.49767 0.0
C1241 C 0.83775 0.08571 0.47847 0.0
C1242 C 0.83833 0.10338 0.4964 0.0
C1243 C 0.82144 0.10251 0.51504 0.0
C1244 C 0.80413 0.08439 0.51566 0.0
C1245 C 0.85702 0.12231 0.49606 0.0
C1246 C 0.8719 0.1248 0.51616 0.0
C1247 C 0.861 0.13703 0.47573 0.0
C1248 C 0.84505 0.13627 0.45449 0.0
C1249 C 0.82018 0.13946 0.45705 0.0
C1250 C 0.80523 0.13858 0.43698 0.0
C1251 C 0.81494 0.13467 0.41423 0.0
C1252 C 0.83964 0.13171 0.41148 0.0
C1253 C 0.85468 0.13255 0.43149 0.0
H1254 H 0.80333 0.134 0.39872 0.0
H1255 H 0.9481 0.14494 0.59366 0.0
H1256 H 0.05067 0.80884 0.45898 0.0
H1257 H 0.08387 0.83746 0.45778 0.0
H1258 H 0.09489 0.82785 0.53372 0.0
H1259 H 0.06145 0.79957 0.53511 0.0
H1260 H 0.096 0.87411 0.52223 0.0
H1261 H 0.13241 0.80209 0.49208 0.0
H1262 H 0.13636 0.76705 0.46541 0.0
H1263 H 0.14183 0.81367 0.40438 0.0
H1264 H 0.1376 0.84901 0.43066 0.0
H1265 H 0.20863 0.92968 0.53321 0.0
H1266 H 0.17717 0.89927 0.53223 0.0
H1267 H 0.16669 0.91242 0.45675 0.0
H1268 H 0.19851 0.9427 0.45753 0.0
H1269 H 0.16515 0.86474 0.46707 0.0
H1270 H 0.12898 0.93673 0.49737 0.0
H1271 H 0.12533 0.97172 0.52415 0.0
H1272 H 0.11942 0.92495 0.58504 0.0
H1273 H 0.12339 0.88966 0.55864 0.0
C1274 C 0.06021 0.81281 0.4754 0.0
C1275 C 0.0535 0.80196 0.49714 0.0
C1276 C 0.07924 0.82907 0.47467 0.0
C1277 C 0.09205 0.8346 0.49561 0.0
C1278 C 0.08528 0.82384 0.51734 0.0
C1279 C 0.06621 0.80765 0.5181 0.0
C1280 C 0.11219 0.85197 0.49504 0.0
C1281 C 0.11127 0.87187 0.51039 0.0
C1282 C 0.13181 0.84939 0.47915 0.0
C1283 C 0.13444 0.82818 0.46332 0.0
C1284 C 0.13427 0.80486 0.47295 0.0
C1285 C 0.13659 0.78495 0.45791 0.0
C1286 C 0.13928 0.78813 0.43321 0.0
C1287 C 0.13972 0.81124 0.42351 0.0
C1288 C 0.13737 0.83121 0.43847 0.0
C1289 C 0.19975 0.92599 0.51636 0.0
C1290 C 0.20591 0.93867 0.49548 0.0
C1291 C 0.18171 0.90867 0.51585 0.0
C1292 C 0.16932 0.90387 0.4945 0.0
C1293 C 0.17598 0.91592 0.47343 0.0
C1294 C 0.1941 0.93323 0.47391 0.0
C1295 C 0.14901 0.88672 0.4944 0.0
C1296 C 0.14986 0.86694 0.47889 0.0
C1297 C 0.1293 0.88937 0.51016 0.0
C1298 C 0.1267 0.91056 0.52605 0.0
C1299 C 0.12707 0.93391 0.51649 0.0
C1300 C 0.12492 0.95379 0.5316 0.0
C1301 C 0.1222 0.95056 0.55629 0.0
C1302 C 0.12156 0.92742 0.56591 0.0
C1303 C 0.12374 0.90748 0.55089 0.0
H1304 H 0.12054 0.96598 0.56795 0.0
H1305 H 0.14108 0.77269 0.42159 0.0
H1306 H 0.09344 0.22499 0.48803 0.0
H1307 H 0.12569 0.19529 0.48886 0.0
H1308 H 0.08278 0.14969 0.5343 0.0
H1309 H 0.05066 0.17956 0.53395 0.0
H1310 H 0.12836 0.1499 0.54894 0.0
H1311 H 0.08741 0.13959 0.47371 0.0
H1312 H 0.07099 0.15262 0.4348 0.0
H1313 H 0.14133 0.17333 0.41149 0.0
H1314 H 0.15812 0.16071 0.45042 0.0
H1315 H 0.184 0.03744 0.52909 0.0
H1316 H 0.15646 0.07141 0.5314 0.0
H1317 H 0.20383 0.11316 0.48672 0.0
H1318 H 0.23138 0.07903 0.48408 0.0
H1319 H 0.15816 0.11679 0.47193 0.0
H1320 H 0.19943 0.12441 0.54665 0.0
H1321 H 0.2155 0.11072 0.58547 0.0
H1322 H 0.14434 0.09441 0.60974 0.0
H1323 H 0.12787 0.1077 0.57093 0.0
C1324 C 0.09095 0.2087 0.49833 0.0
C1325 C 0.06948 0.20453 0.51082 0.0
C1326 C 0.10935 0.1917 0.49871 0.0
C1327 C 0.10652 0.17009 0.51134 0.0
C1328 C 0.08536 0.16621 0.52439 0.0
C1329 C 0.06699 0.18326 0.52413 0.0
C1330 C 0.12531 0.15123 0.51048 0.0
C1331 C 0.13471 0.14249 0.53211 0.0
C1332 C 0.13402 0.14196 0.48851 0.0
C1333 C 0.12397 0.14945 0.46506 0.0
C1334 C 0.09934 0.14709 0.46035 0.0
C1335 C 0.08998 0.15437 0.43829 0.0
C1336 C 0.1051 0.16386 0.42071 0.0
C1337 C 0.12963 0.16602 0.42514 0.0
C1338 C 0.13909 0.15879 0.44719 0.0
C1339 C 0.18864 0.0539 0.51987 0.0
C1340 C 0.20987 0.05559 0.50643 0.0
C1341 C 0.17293 0.07335 0.5213 0.0
C1342 C 0.17821 0.09494 0.50946 0.0
C1343 C 0.19943 0.09669 0.49605 0.0
C1344 C 0.21518 0.07721 0.49461 0.0
C1345 C 0.1611 0.11532 0.5104 0.0
C1346 C 0.15197 0.12433 0.48877 0.0
C1347 C 0.1526 0.12477 0.53237 0.0
C1348 C 0.16244 0.11687 0.55579 0.0
C1349 C 0.18722 0.11774 0.5602 0.0
C1350 C 0.1964 0.11008 0.58221 0.0
C1351 C 0.18096 0.10165 0.60004 0.0
C1352 C 0.15629 0.10093 0.59591 0.0
C1353 C 0.14702 0.10855 0.57391 0.0
H1354 H 0.1881 0.09573 0.61708 0.0
H1355 H 0.09781 0.16948 0.40364 0.0
loop_
_geom_bond_atom_site_label_1
_geom_bond_atom_site_label_2
_geom_bond_distance
_geom_bond_site_symmetry_2
_ccdc_geom_bond_type
In0 O1 2.294 1_455 S
In0 O2 2.326 1_455 S
In0 O6 2.266 1_455 S
In0 O7 2.326 . S
In0 O8 2.266 . S
In0 O9 2.326 1_455 S
In0 O11 2.294 . S
In0 O12 2.326 . S
O1 In0 2.294 1_655 S
O1 C10 1.240 . S
O2 In0 2.326 1_655 S
O2 C10 1.252 . S
C3 O6 1.252 1_455 S
C3 O7 1.260 . S
C4 O11 1.240 . S
C4 O12 1.252 . S
C5 O8 1.252 1_655 S
C5 O9 1.260 . S
O6 In0 2.266 1_655 S
O6 C3 1.252 1_655 S
O7 In0 2.326 . S
O7 C3 1.260 . S
O8 In0 2.266 . S
O8 C5 1.252 1_455 S
O9 In0 2.326 1_655 S
O9 C5 1.260 . S
C10 O1 1.240 . S
C10 O2 1.252 . S
O11 In0 2.294 . S
O11 C4 1.240 . S
O12 In0 2.326 . S
O12 C4 1.252 . S
In13 O14 2.294 1_545 S
In13 O15 2.326 . S
In13 O19 2.266 1_545 S
In13 O20 2.326 1_545 S
In13 O21 2.266 . S
In13 O22 2.326 . S
In13 O24 2.294 . S
In13 O25 2.326 1_545 S
O14 In13 2.294 1_565 S
O14 C23 1.240 1_565 S
O15 In13 2.326 . S
O15 C23 1.252 . S
C16 O19 1.252 . S
C16 O20 1.260 . S
C17 O24 1.240 1_565 S
C17 O25 1.252 . S
C18 O21 1.252 . S
C18 O22 1.260 . S
O19 In13 2.266 1_565 S
O19 C16 1.252 . S
O20 In13 2.326 1_565 S
O20 C16 1.260 . S
O21 In13 2.266 . S
O21 C18 1.252 . S
O22 In13 2.326 . S
O22 C18 1.260 . S
C23 O14 1.240 1_545 S
C23 O15 1.252 . S
O24 In13 2.294 . S
O24 C17 1.240 1_545 S
O25 In13 2.326 1_565 S
O25 C17 1.252 . S
In26 O27 2.294 . S
In26 O28 2.326 1_455 S
In26 O32 2.266 . S
In26 O33 2.326 . S
In26 O34 2.266 1_455 S
In26 O35 2.326 1_455 S
In26 O37 2.294 1_455 S
In26 O38 2.326 . S
O27 In26 2.294 . S
O27 C36 1.240 1_455 S
O28 In26 2.326 1_655 S
O28 C36 1.252 . S
C29 O32 1.252 . S
C29 O33 1.260 . S
C30 O37 1.240 1_455 S
C30 O38 1.252 . S
C31 O34 1.252 . S
C31 O35 1.260 . S
O32 In26 2.266 . S
O32 C29 1.252 . S
O33 In26 2.326 . S
O33 C29 1.260 . S
O34 In26 2.266 1_655 S
O34 C31 1.252 . S
O35 In26 2.326 1_655 S
O35 C31 1.260 . S
C36 O27 1.240 1_655 S
C36 O28 1.252 . S
O37 In26 2.294 1_655 S
O37 C30 1.240 1_655 S
O38 In26 2.326 . S
O38 C30 1.252 . S
In39 O40 2.294 1_545 S
In39 O41 2.326 1_545 S
In39 O45 2.266 1_545 S
In39 O46 2.326 . S
In39 O47 2.266 . S
In39 O48 2.326 1_545 S
In39 O50 2.294 . S
In39 O51 2.326 . S
O40 In39 2.294 1_565 S
O40 C49 1.240 . S
O41 In39 2.326 1_565 S
O41 C49 1.252 . S
C42 O45 1.252 1_545 S
C42 O46 1.260 . S
C43 O50 1.240 . S
C43 O51 1.252 . S
C44 O47 1.252 1_565 S
C44 O48 1.260 . S
O45 In39 2.266 1_565 S
O45 C42 1.252 1_565 S
O46 In39 2.326 . S
O46 C42 1.260 . S
O47 In39 2.266 . S
O47 C44 1.252 1_545 S
O48 In39 2.326 1_565 S
O48 C44 1.260 . S
C49 O40 1.240 . S
C49 O41 1.252 . S
O50 In39 2.294 . S
O50 C43 1.240 . S
O51 In39 2.326 . S
O51 C43 1.252 . S
In52 O53 2.294 1_545 S
In52 O54 2.326 . S
In52 O58 2.266 1_545 S
In52 O59 2.326 1_545 S
In52 O60 2.266 . S
In52 O61 2.326 . S
In52 O63 2.294 . S
In52 O64 2.326 1_545 S
O53 In52 2.294 1_565 S
O53 C62 1.240 1_565 S
O54 In52 2.326 . S
O54 C62 1.252 . S
C55 O58 1.252 . S
C55 O59 1.260 . S
C56 O63 1.240 1_565 S
C56 O64 1.252 . S
C57 O60 1.252 . S
C57 O61 1.260 . S
O58 In52 2.266 1_565 S
O58 C55 1.252 . S
O59 In52 2.326 1_565 S
O59 C55 1.260 . S
O60 In52 2.266 . S
O60 C57 1.252 . S
O61 In52 2.326 . S
O61 C57 1.260 . S
C62 O53 1.240 1_545 S
C62 O54 1.252 . S
O63 In52 2.294 . S
O63 C56 1.240 1_545 S
O64 In52 2.326 1_565 S
O64 C56 1.252 . S
In65 O66 2.294 1_455 S
In65 O67 2.326 1_455 S
In65 O71 2.266 1_455 S
In65 O72 2.326 . S
In65 O73 2.266 . S
In65 O74 2.326 1_455 S
In65 O76 2.294 . S
In65 O77 2.326 . S
O66 In65 2.294 1_655 S
O66 C75 1.240 . S
O67 In65 2.326 1_655 S
O67 C75 1.252 . S
C68 O71 1.252 1_455 S
C68 O72 1.260 . S
C69 O76 1.240 . S
C69 O77 1.252 . S
C70 O73 1.252 1_655 S
C70 O74 1.260 . S
O71 In65 2.266 1_655 S
O71 C68 1.252 1_655 S
O72 In65 2.326 . S
O72 C68 1.260 . S
O73 In65 2.266 . S
O73 C70 1.252 1_455 S
O74 In65 2.326 1_655 S
O74 C70 1.260 . S
C75 O66 1.240 . S
C75 O67 1.252 . S
O76 In65 2.294 . S
O76 C69 1.240 . S
O77 In65 2.326 . S
O77 C69 1.252 . S
In78 O79 2.294 . S
In78 O80 2.326 1_545 S
In78 O84 2.266 . S
In78 O85 2.326 . S
In78 O86 2.266 1_545 S
In78 O87 2.326 1_545 S
In78 O89 2.294 1_545 S
In78 O90 2.326 . S
O79 In78 2.294 . S
O79 C88 1.240 1_545 S
O80 In78 2.326 1_565 S
O80 C88 1.252 . S
C81 O84 1.252 . S
C81 O85 1.260 . S
C82 O89 1.240 1_545 S
C82 O90 1.252 . S
C83 O86 1.252 . S
C83 O87 1.260 . S
O84 In78 2.266 . S
O84 C81 1.252 . S
O85 In78 2.326 . S
O85 C81 1.260 . S
O86 In78 2.266 1_565 S
O86 C83 1.252 . S
O87 In78 2.326 1_565 S
O87 C83 1.260 . S
C88 O79 1.240 1_565 S
C88 O80 1.252 . S
O89 In78 2.294 1_565 S
O89 C82 1.240 1_565 S
O90 In78 2.326 . S
O90 C82 1.252 . S
In91 O92 2.294 . S
In91 O93 2.326 . S
In91 O97 2.266 . S
In91 O98 2.326 1_455 S
In91 O99 2.266 1_455 S
In91 O100 2.326 . S
In91 O102 2.294 1_455 S
In91 O103 2.326 1_455 S
O92 In91 2.294 . S
O92 C101 1.240 . S
O93 In91 2.326 . S
O93 C101 1.252 . S
C94 O97 1.252 1_655 S
C94 O98 1.260 . S
C95 O102 1.240 . S
C95 O103 1.252 . S
C96 O99 1.252 1_455 S
C96 O100 1.260 . S
O97 In91 2.266 . S
O97 C94 1.252 1_455 S
O98 In91 2.326 1_655 S
O98 C94 1.260 . S
O99 In91 2.266 1_655 S
O99 C96 1.252 1_655 S
O100 In91 2.326 . S
O100 C96 1.260 . S
C101 O92 1.240 . S
C101 O93 1.252 . S
O102 In91 2.294 1_655 S
O102 C95 1.240 . S
O103 In91 2.326 1_655 S
O103 C95 1.252 . S
In104 O105 2.299 . S
In104 O106 2.329 . S
In104 O110 2.268 . S
In104 O111 2.322 1_554 S
In104 O112 2.264 1_554 S
In104 O113 2.329 . S
In104 O115 2.289 1_554 S
In104 O116 2.324 1_554 S
O105 In104 2.299 . S
O105 C114 1.240 . S
O106 In104 2.329 . S
O106 C114 1.252 . S
C107 O110 1.252 1_556 S
C107 O111 1.260 . S
C108 O115 1.240 . S
C108 O116 1.252 . S
C109 O112 1.252 1_554 S
C109 O113 1.260 . S
O110 In104 2.268 . S
O110 C107 1.252 1_554 S
O111 In104 2.322 1_556 S
O111 C107 1.260 . S
O112 In104 2.264 1_556 S
O112 C109 1.252 1_556 S
O113 In104 2.329 . S
O113 C109 1.260 . S
C114 O105 1.240 . S
C114 O106 1.252 . S
O115 In104 2.289 1_556 S
O115 C108 1.240 . S
O116 In104 2.324 1_556 S
O116 C108 1.252 . S
In117 O118 2.301 . S
In117 O119 2.330 . S
In117 O123 2.269 . S
In117 O124 2.320 1_554 S
In117 O125 2.264 1_554 S
In117 O126 2.331 . S
In117 O128 2.286 1_554 S
In117 O129 2.323 1_554 S
O118 In117 2.301 . S
O118 C127 1.240 . S
O119 In117 2.330 . S
O119 C127 1.252 . S
C120 O123 1.252 1_556 S
C120 O124 1.260 . S
C121 O128 1.240 . S
C121 O129 1.252 . S
C122 O125 1.252 1_554 S
C122 O126 1.260 . S
O123 In117 2.269 . S
O123 C120 1.252 1_554 S
O124 In117 2.320 1_556 S
O124 C120 1.260 . S
O125 In117 2.264 1_556 S
O125 C122 1.252 1_556 S
O126 In117 2.331 . S
O126 C122 1.260 . S
C127 O118 1.240 . S
C127 O119 1.252 . S
O128 In117 2.286 1_556 S
O128 C121 1.240 . S
O129 In117 2.323 1_556 S
O129 C121 1.252 . S
In130 O131 2.291 1_554 S
In130 O132 2.331 . S
In130 O136 2.259 1_554 S
In130 O137 2.322 1_554 S
In130 O138 2.274 . S
In130 O139 2.329 . S
In130 O141 2.297 . S
In130 O142 2.321 1_554 S
O131 In130 2.291 1_556 S
O131 C140 1.240 1_556 S
O132 In130 2.331 . S
O132 C140 1.252 . S
C133 O136 1.252 . S
C133 O137 1.260 . S
C134 O141 1.240 1_556 S
C134 O142 1.252 . S
C135 O138 1.252 . S
C135 O139 1.260 . S
O136 In130 2.259 1_556 S
O136 C133 1.252 . S
O137 In130 2.322 1_556 S
O137 C133 1.260 . S
O138 In130 2.274 . S
O138 C135 1.252 . S
O139 In130 2.329 . S
O139 C135 1.260 . S
C140 O131 1.240 1_554 S
C140 O132 1.252 . S
O141 In130 2.297 . S
O141 C134 1.240 1_554 S
O142 In130 2.321 1_556 S
O142 C134 1.252 . S
In143 O144 2.296 . S
In143 O145 2.323 1_554 S
In143 O149 2.272 . S
In143 O150 2.328 . S
In143 O151 2.261 1_554 S
In143 O152 2.323 1_554 S
In143 O154 2.292 1_554 S
In143 O155 2.330 . S
O144 In143 2.296 . S
O144 C153 1.240 1_554 S
O145 In143 2.323 1_556 S
O145 C153 1.252 . S
C146 O149 1.252 . S
C146 O150 1.260 . S
C147 O154 1.240 1_554 S
C147 O155 1.252 . S
C148 O151 1.252 . S
C148 O152 1.260 . S
O149 In143 2.272 . S
O149 C146 1.252 . S
O150 In143 2.328 . S
O150 C146 1.260 . S
O151 In143 2.261 1_556 S
O151 C148 1.252 . S
O152 In143 2.323 1_556 S
O152 C148 1.260 . S
C153 O144 1.240 1_556 S
C153 O145 1.252 . S
O154 In143 2.292 1_556 S
O154 C147 1.240 1_556 S
O155 In143 2.330 . S
O155 C147 1.252 . S
H156 C174 0.951 . S
H157 C176 0.951 . S
H158 C178 0.950 . S
H159 C179 0.950 . S
H160 C181 0.950 . S
H161 C184 0.950 . S
H162 C185 0.950 . S
H163 C187 0.950 . S
H164 C188 0.950 . S
H165 C189 0.951 . S
H166 C191 0.951 . S
H167 C193 0.950 . S
H168 C194 0.950 . S
H169 C196 0.950 . S
H170 C199 0.950 . S
H171 C200 0.950 . S
H172 C202 0.950 . S
H173 C203 0.950 . S
C174 H156 0.951 . S
C174 C175 1.366 . S
C174 C176 1.388 . S
C175 C174 1.366 . S
C175 C179 1.385 1_655 S
C176 H157 0.951 . S
C176 C174 1.388 . S
C176 C177 1.366 . S
C177 C176 1.366 . S
C177 C178 1.414 1_655 S
C177 C180 1.499 1_655 S
C178 H158 0.950 . S
C178 C177 1.414 1_455 S
C178 C179 1.374 . S
C179 H159 0.950 . S
C179 C175 1.385 1_455 S
C179 C178 1.374 . S
C180 C177 1.499 1_455 S
C180 C181 1.373 . S
C180 C182 1.389 1_455 S
C181 H160 0.950 . S
C181 C180 1.373 . S
C181 C197 1.377 . S
C182 C180 1.389 1_655 S
C182 C183 1.524 . S
C182 C196 1.377 . S
C183 C182 1.524 . S
C183 C184 1.397 . S
C183 C188 1.363 . S
C184 H161 0.950 . S
C184 C183 1.397 . S
C184 C185 1.334 . S
C185 H162 0.950 . S
C185 C184 1.334 . S
C185 C186 1.287 . S
C186 C185 1.287 . S
C186 C187 1.524 . S
C186 H205 0.913 . S
C187 H163 0.950 . S
C187 C186 1.524 . S
C187 C188 1.415 . S
C188 H164 0.950 . S
C188 C183 1.363 . S
C188 C187 1.415 . S
C189 H165 0.951 . S
C189 C190 1.366 . S
C189 C191 1.388 . S
C190 C189 1.366 . S
C190 C194 1.385 1_455 S
C191 H166 0.951 . S
C191 C189 1.388 . S
C191 C192 1.366 . S
C192 C191 1.366 . S
C192 C193 1.414 1_455 S
C192 C195 1.499 . S
C193 H167 0.950 . S
C193 C192 1.414 1_655 S
C193 C194 1.374 . S
C194 H168 0.950 . S
C194 C190 1.385 1_655 S
C194 C193 1.374 . S
C195 C192 1.499 . S
C195 C196 1.373 1_455 S
C195 C197 1.389 . S
C196 H169 0.950 . S
C196 C182 1.377 . S
C196 C195 1.373 1_655 S
C197 C181 1.377 . S
C197 C195 1.389 . S
C197 C198 1.524 . S
C198 C197 1.524 . S
C198 C199 1.397 . S
C198 C203 1.363 . S
C199 H170 0.950 . S
C199 C198 1.397 . S
C199 C200 1.334 . S
C200 H171 0.950 . S
C200 C199 1.334 . S
C200 C201 1.287 . S
C201 C200 1.287 . S
C201 C202 1.524 . S
C201 H204 0.999 . S
C202 H172 0.950 . S
C202 C201 1.524 . S
C202 C203 1.415 . S
C203 H173 0.950 . S
C203 C198 1.363 . S
C203 C202 1.415 . S
H204 C201 0.999 . S
H205 C186 0.913 . S
H206 C224 0.951 . S
H207 C226 0.951 . S
H208 C228 0.950 . S
H209 C229 0.958 . S
H210 C231 0.950 . S
H211 C234 0.950 . S
H212 C235 0.950 . S
H213 C237 0.950 . S
H214 C238 0.950 . S
H215 C239 0.951 . S
H216 C241 0.951 . S
H217 C243 0.960 . S
H218 C244 0.950 . S
H219 C246 0.950 . S
H220 C249 0.950 . S
H221 C250 0.950 . S
H222 C252 0.950 . S
H223 C253 0.950 . S
C224 H206 0.951 . S
C224 C225 1.366 . S
C224 C226 1.388 . S
C225 C224 1.366 . S
C225 C229 1.375 1_565 S
C226 H207 0.951 . S
C226 C224 1.388 . S
C226 C227 1.366 . S
C227 C226 1.366 . S
C227 C228 1.414 1_565 S
C227 C230 1.497 1_565 S
C228 H208 0.950 . S
C228 C227 1.414 1_545 S
C228 C229 1.378 . S
C229 H209 0.958 . S
C229 C225 1.375 1_545 S
C229 C228 1.378 . S
C230 C227 1.497 1_545 S
C230 C231 1.393 . S
C230 C232 1.373 1_545 S
C231 H210 0.950 . S
C231 C230 1.393 . S
C231 C247 1.377 . S
C232 C230 1.373 1_565 S
C232 C233 1.524 . S
C232 C246 1.377 . S
C233 C232 1.524 . S
C233 C234 1.397 . S
C233 C238 1.363 . S
C234 H211 0.950 . S
C234 C233 1.397 . S
C234 C235 1.334 . S
C235 H212 0.950 . S
C235 C234 1.334 . S
C235 C236 1.287 . S
C236 C235 1.287 . S
C236 C237 1.524 . S
C236 H255 0.913 . S
C237 H213 0.950 . S
C237 C236 1.524 . S
C237 C238 1.415 . S
C238 H214 0.950 . S
C238 C233 1.363 . S
C238 C237 1.415 . S
C239 H215 0.951 . S
C239 C240 1.366 . S
C239 C241 1.388 . S
C240 C239 1.366 . S
C240 C244 1.385 . S
C241 H216 0.951 . S
C241 C239 1.388 . S
C241 C242 1.366 . S
C242 C241 1.366 . S
C242 C243 1.414 . S
C242 C245 1.499 . S
C243 H217 0.960 . S
C243 C242 1.414 . S
C243 C244 1.374 . S
C244 H218 0.950 . S
C244 C240 1.385 . S
C244 C243 1.374 . S
C245 C242 1.499 . S
C245 C246 1.373 1_545 S
C245 C247 1.389 . S
C246 H219 0.950 . S
C246 C232 1.377 . S
C246 C245 1.373 1_565 S
C247 C231 1.377 . S
C247 C245 1.389 . S
C247 C248 1.524 . S
C248 C247 1.524 . S
C248 C249 1.397 . S
C248 C253 1.363 . S
C249 H220 0.950 . S
C249 C248 1.397 . S
C249 C250 1.334 . S
C250 H221 0.950 . S
C250 C249 1.334 . S
C250 C251 1.287 . S
C251 C250 1.287 . S
C251 C252 1.524 . S
C251 H254 0.999 . S
C252 H222 0.950 . S
C252 C251 1.524 . S
C252 C253 1.415 . S
C253 H223 0.950 . S
C253 C248 1.363 . S
C253 C252 1.415 . S
H254 C251 0.999 . S
H255 C236 0.913 . S
H256 C274 0.951 . S
H257 C276 0.951 . S
H258 C278 0.950 . S
H259 C279 0.950 . S
H260 C281 0.950 . S
H261 C284 0.950 . S
H262 C285 0.950 . S
H263 C287 0.950 . S
H264 C288 0.950 . S
H265 C289 0.951 1_655 S
H266 C291 0.950 . S
H267 C293 0.950 . S
H268 C294 0.950 . S
H269 C296 0.950 . S
H270 C299 0.950 . S
H271 C300 0.950 . S
H272 C302 0.950 . S
H273 C303 0.950 . S
C274 H256 0.951 . S
C274 C275 1.366 1_455 S
C274 C276 1.388 . S
C275 C274 1.366 1_655 S
C275 C279 1.385 . S
C276 H257 0.951 . S
C276 C274 1.388 . S
C276 C277 1.375 . S
C277 C276 1.375 . S
C277 C278 1.401 1_455 S
C277 C280 1.501 . S
C278 H258 0.950 . S
C278 C277 1.401 1_655 S
C278 C279 1.374 . S
C279 H259 0.950 . S
C279 C275 1.385 . S
C279 C278 1.374 . S
C280 C277 1.501 . S
C280 C281 1.373 1_455 S
C280 C282 1.389 . S
C281 H260 0.950 . S
C281 C280 1.373 1_655 S
C281 C297 1.377 . S
C282 C280 1.389 . S
C282 C283 1.524 . S
C282 C296 1.377 . S
C283 C282 1.524 . S
C283 C284 1.397 . S
C283 C288 1.363 . S
C284 H261 0.950 . S
C284 C283 1.397 . S
C284 C285 1.334 . S
C285 H262 0.950 . S
C285 C284 1.334 . S
C285 C286 1.287 . S
C286 C285 1.287 . S
C286 C287 1.524 . S
C286 H305 0.913 . S
C287 H263 0.950 . S
C287 C286 1.524 . S
C287 C288 1.415 . S
C288 H264 0.950 . S
C288 C283 1.363 . S
C288 C287 1.415 . S
C289 H265 0.951 1_455 S
C289 C290 1.366 . S
C289 C291 1.388 1_455 S
C290 C289 1.366 . S
C290 C294 1.385 . S
C291 H266 0.950 . S
C291 C289 1.388 1_655 S
C291 C292 1.366 1_655 S
C292 C291 1.366 1_455 S
C292 C293 1.414 . S
C292 C295 1.499 . S
C293 H267 0.950 . S
C293 C292 1.414 . S
C293 C294 1.374 . S
C294 H268 0.950 . S
C294 C290 1.385 . S
C294 C293 1.374 . S
C295 C292 1.499 . S
C295 C296 1.373 . S
C295 C297 1.389 1_455 S
C296 H269 0.950 . S
C296 C282 1.377 . S
C296 C295 1.373 . S
C297 C281 1.377 . S
C297 C295 1.389 1_655 S
C297 C298 1.524 . S
C298 C297 1.524 . S
C298 C299 1.397 . S
C298 C303 1.363 . S
C299 H270 0.950 . S
C299 C298 1.397 . S
C299 C300 1.334 . S
C300 H271 0.950 . S
C300 C299 1.334 . S
C300 C301 1.287 . S
C301 C300 1.287 . S
C301 C302 1.524 . S
C301 H304 0.999 . S
C302 H272 0.950 . S
C302 C301 1.524 . S
C302 C303 1.415 . S
C303 H273 0.950 . S
C303 C298 1.363 . S
C303 C302 1.415 . S
H304 C301 0.999 . S
H305 C286 0.913 . S
H306 C324 0.951 . S
H307 C326 0.951 . S
H308 C328 0.950 . S
H309 C329 0.950 . S
H310 C331 0.950 . S
H311 C334 0.950 . S
H312 C335 0.950 . S
H313 C337 0.950 . S
H314 C338 0.950 . S
H315 C339 0.951 . S
H316 C341 0.951 . S
H317 C343 0.950 . S
H318 C344 0.950 . S
H319 C346 0.950 . S
H320 C349 0.950 . S
H321 C350 0.950 . S
H322 C352 0.950 . S
H323 C353 0.950 . S
C324 H306 0.951 . S
C324 C325 1.366 . S
C324 C326 1.388 . S
C325 C324 1.366 . S
C325 C329 1.385 . S
C326 H307 0.951 . S
C326 C324 1.388 . S
C326 C327 1.366 . S
C327 C326 1.366 . S
C327 C328 1.414 . S
C327 C330 1.499 . S
C328 H308 0.950 . S
C328 C327 1.414 . S
C328 C329 1.374 . S
C329 H309 0.950 . S
C329 C325 1.385 . S
C329 C328 1.374 . S
C330 C327 1.499 . S
C330 C331 1.373 . S
C330 C332 1.389 1_545 S
C331 H310 0.950 . S
C331 C330 1.373 . S
C331 C347 1.377 . S
C332 C330 1.389 1_565 S
C332 C333 1.524 . S
C332 C346 1.377 . S
C333 C332 1.524 . S
C333 C334 1.397 . S
C333 C338 1.363 . S
C334 H311 0.950 . S
C334 C333 1.397 . S
C334 C335 1.334 . S
C335 H312 0.950 . S
C335 C334 1.334 . S
C335 C336 1.287 . S
C336 C335 1.287 . S
C336 C337 1.524 . S
C336 H355 0.913 . S
C337 H313 0.950 . S
C337 C336 1.524 . S
C337 C338 1.415 . S
C338 H314 0.950 . S
C338 C333 1.363 . S
C338 C337 1.415 . S
C339 H315 0.951 . S
C339 C340 1.365 1_545 S
C339 C341 1.388 . S
C340 C339 1.365 1_565 S
C340 C344 1.385 . S
C341 H316 0.951 . S
C341 C339 1.388 . S
C341 C342 1.369 . S
C342 C341 1.369 . S
C342 C343 1.406 1_545 S
C342 C345 1.503 . S
C343 H317 0.950 . S
C343 C342 1.406 1_565 S
C343 C344 1.374 . S
C344 H318 0.950 . S
C344 C340 1.385 . S
C344 C343 1.374 . S
C345 C342 1.503 . S
C345 C346 1.373 1_545 S
C345 C347 1.389 . S
C346 H319 0.950 . S
C346 C332 1.377 . S
C346 C345 1.373 1_565 S
C347 C331 1.377 . S
C347 C345 1.389 . S
C347 C348 1.524 . S
C348 C347 1.524 . S
C348 C349 1.397 . S
C348 C353 1.363 . S
C349 H320 0.950 . S
C349 C348 1.397 . S
C349 C350 1.334 . S
C350 H321 0.950 . S
C350 C349 1.334 . S
C350 C351 1.287 . S
C351 C350 1.287 . S
C351 C352 1.524 . S
C351 H354 0.999 . S
C352 H322 0.950 . S
C352 C351 1.524 . S
C352 C353 1.415 . S
C353 H323 0.950 . S
C353 C348 1.363 . S
C353 C352 1.415 . S
H354 C351 0.999 . S
H355 C336 0.913 . S
H356 C374 0.951 . S
H357 C376 0.951 . S
H358 C378 0.950 . S
H359 C379 0.950 . S
H360 C381 0.950 . S
H361 C384 0.950 . S
H362 C385 0.950 . S
H363 C387 0.950 . S
H364 C388 0.950 . S
H365 C389 0.951 . S
H366 C391 0.951 . S
H367 C393 0.950 . S
H368 C394 0.950 . S
H369 C396 0.950 . S
H370 C399 0.950 . S
H371 C400 0.950 1_655 S
H372 C402 0.950 . S
H373 C403 0.950 . S
C374 H356 0.951 . S
C374 C375 1.366 1_655 S
C374 C376 1.388 . S
C375 C374 1.366 1_455 S
C375 C379 1.385 . S
C376 H357 0.951 . S
C376 C374 1.388 . S
C376 C377 1.366 1_655 S
C377 C376 1.366 1_455 S
C377 C378 1.414 . S
C377 C380 1.499 . S
C378 H358 0.950 . S
C378 C377 1.414 . S
C378 C379 1.374 . S
C379 H359 0.950 . S
C379 C375 1.385 . S
C379 C378 1.374 . S
C380 C377 1.499 . S
C380 C381 1.373 . S
C380 C382 1.389 1_455 S
C381 H360 0.950 . S
C381 C380 1.373 . S
C381 C397 1.377 . S
C382 C380 1.389 1_655 S
C382 C383 1.524 . S
C382 C396 1.377 . S
C383 C382 1.524 . S
C383 C384 1.397 1_655 S
C383 C388 1.363 . S
C384 H361 0.950 . S
C384 C383 1.397 1_455 S
C384 C385 1.334 . S
C385 H362 0.950 . S
C385 C384 1.334 . S
C385 C386 1.287 1_455 S
C386 C385 1.287 1_655 S
C386 C387 1.524 . S
C386 H405 0.913 . S
C387 H363 0.950 . S
C387 C386 1.524 . S
C387 C388 1.415 . S
C388 H364 0.950 . S
C388 C383 1.363 . S
C388 C387 1.415 . S
C389 H365 0.951 . S
C389 C390 1.366 1_455 S
C389 C391 1.388 . S
C390 C389 1.366 1_655 S
C390 C394 1.385 . S
C391 H366 0.951 . S
C391 C389 1.388 . S
C391 C392 1.327 1_455 S
C392 C391 1.327 1_655 S
C392 C393 1.456 . S
C392 C395 1.497 1_655 S
C393 H367 0.950 . S
C393 C392 1.456 . S
C393 C394 1.374 . S
C394 H368 0.950 . S
C394 C390 1.385 . S
C394 C393 1.374 . S
C395 C392 1.497 1_455 S
C395 C396 1.369 1_455 S
C395 C397 1.396 . S
C396 H369 0.950 . S
C396 C382 1.377 . S
C396 C395 1.369 1_655 S
C397 C381 1.377 . S
C397 C395 1.396 . S
C397 C398 1.524 . S
C398 C397 1.524 . S
C398 C399 1.397 1_455 S
C398 C403 1.363 . S
C399 H370 0.950 . S
C399 C398 1.397 1_655 S
C399 C400 1.334 1_655 S
C400 H371 0.950 1_455 S
C400 C399 1.334 1_455 S
C400 C401 1.287 . S
C401 C400 1.287 . S
C401 C402 1.524 . S
C401 H404 0.999 . S
C402 H372 0.950 . S
C402 C401 1.524 . S
C402 C403 1.415 . S
C403 H373 0.950 . S
C403 C398 1.363 . S
C403 C402 1.415 . S
H404 C401 0.999 . S
H405 C386 0.913 . S
H406 C424 0.951 1_565 S
H407 C426 0.936 1_565 S
H408 C428 0.950 . S
H409 C429 0.950 . S
H410 C431 0.950 . S
H411 C434 0.950 . S
H412 C435 0.950 . S
H413 C437 0.950 . S
H414 C438 0.950 . S
H415 C439 0.951 . S
H416 C441 0.951 . S
H417 C443 0.950 . S
H418 C444 0.950 . S
H419 C446 0.950 . S
H420 C449 0.950 . S
H421 C450 0.950 . S
H422 C452 0.950 . S
H423 C453 0.953 1_545 S
C424 H406 0.951 1_545 S
C424 C425 1.366 . S
C424 C426 1.390 . S
C425 C424 1.366 . S
C425 C429 1.385 . S
C426 H407 0.936 1_545 S
C426 C424 1.390 . S
C426 C427 1.379 . S
C427 C426 1.379 . S
C427 C428 1.414 . S
C427 C430 1.499 . S
C428 H408 0.950 . S
C428 C427 1.414 . S
C428 C429 1.374 . S
C429 H409 0.950 . S
C429 C425 1.385 . S
C429 C428 1.374 . S
C430 C427 1.499 . S
C430 C431 1.373 1_545 S
C430 C432 1.389 . S
C431 H410 0.950 . S
C431 C430 1.373 1_565 S
C431 C447 1.377 . S
C432 C430 1.389 . S
C432 C433 1.524 . S
C432 C446 1.377 . S
C433 C432 1.524 . S
C433 C434 1.397 . S
C433 C438 1.363 . S
C434 H411 0.950 . S
C434 C433 1.397 . S
C434 C435 1.334 . S
C435 H412 0.950 . S
C435 C434 1.334 . S
C435 C436 1.287 . S
C436 C435 1.287 . S
C436 C437 1.524 . S
C436 H455 0.913 . S
C437 H413 0.950 . S
C437 C436 1.524 . S
C437 C438 1.415 . S
C438 H414 0.950 . S
C438 C433 1.363 . S
C438 C437 1.415 . S
C439 H415 0.951 . S
C439 C440 1.366 1_545 S
C439 C441 1.388 . S
C440 C439 1.366 1_565 S
C440 C444 1.385 . S
C441 H416 0.951 . S
C441 C439 1.388 . S
C441 C442 1.366 1_545 S
C442 C441 1.366 1_565 S
C442 C443 1.414 . S
C442 C445 1.498 1_565 S
C443 H417 0.950 . S
C443 C442 1.414 . S
C443 C444 1.374 . S
C444 H418 0.950 . S
C444 C440 1.385 . S
C444 C443 1.374 . S
C445 C442 1.498 1_545 S
C445 C446 1.376 . S
C445 C447 1.388 1_545 S
C446 H419 0.950 . S
C446 C432 1.377 . S
C446 C445 1.376 . S
C447 C431 1.377 . S
C447 C445 1.388 1_565 S
C447 C448 1.524 . S
C448 C447 1.524 . S
C448 C449 1.397 . S
C448 C453 1.363 . S
C449 H420 0.950 . S
C449 C448 1.397 . S
C449 C450 1.334 . S
C450 H421 0.950 . S
C450 C449 1.334 . S
C450 C451 1.287 . S
C451 C450 1.287 . S
C451 C452 1.524 . S
C451 H454 0.999 . S
C452 H422 0.950 . S
C452 C451 1.524 . S
C452 C453 1.415 . S
C453 H423 0.953 1_565 S
C453 C448 1.363 . S
C453 C452 1.415 . S
H454 C451 0.999 . S
H455 C436 0.913 . S
H456 C474 0.951 . S
H457 C476 0.951 . S
H458 C478 0.950 . S
H459 C479 0.950 . S
H460 C481 0.950 . S
H461 C484 0.950 . S
H462 C485 0.950 . S
H463 C487 0.950 . S
H464 C488 0.950 . S
H465 C489 0.951 . S
H466 C491 0.951 . S
H467 C493 0.950 . S
H468 C494 0.950 . S
H469 C496 0.950 . S
H470 C499 0.950 . S
H471 C500 0.950 . S
H472 C502 0.950 . S
H473 C503 0.950 . S
C474 H456 0.951 . S
C474 C475 1.366 1_655 S
C474 C476 1.388 . S
C475 C474 1.366 1_455 S
C475 C479 1.385 . S
C476 H457 0.951 . S
C476 C474 1.388 . S
C476 C477 1.366 1_655 S
C477 C476 1.366 1_455 S
C477 C478 1.414 . S
C477 C480 1.499 . S
C478 H458 0.950 . S
C478 C477 1.414 . S
C478 C479 1.374 . S
C479 H459 0.950 . S
C479 C475 1.385 . S
C479 C478 1.374 . S
C480 C477 1.499 . S
C480 C481 1.373 . S
C480 C482 1.389 1_455 S
C481 H460 0.950 . S
C481 C480 1.373 . S
C481 C497 1.377 . S
C482 C480 1.389 1_655 S
C482 C483 1.524 . S
C482 C496 1.377 . S
C483 C482 1.524 . S
C483 C484 1.397 . S
C483 C488 1.363 . S
C484 H461 0.950 . S
C484 C483 1.397 . S
C484 C485 1.334 . S
C485 H462 0.950 . S
C485 C484 1.334 . S
C485 C486 1.287 . S
C486 C485 1.287 . S
C486 C487 1.524 . S
C486 H505 0.913 . S
C487 H463 0.950 . S
C487 C486 1.524 . S
C487 C488 1.415 . S
C488 H464 0.950 . S
C488 C483 1.363 . S
C488 C487 1.415 . S
C489 H465 0.951 . S
C489 C490 1.366 1_455 S
C489 C491 1.388 . S
C490 C489 1.366 1_655 S
C490 C494 1.385 . S
C491 H466 0.951 . S
C491 C489 1.388 . S
C491 C492 1.375 . S
C492 C491 1.375 . S
C492 C493 1.402 1_455 S
C492 C495 1.500 . S
C493 H467 0.950 . S
C493 C492 1.402 1_655 S
C493 C494 1.374 . S
C494 H468 0.950 . S
C494 C490 1.385 . S
C494 C493 1.374 . S
C495 C492 1.500 . S
C495 C496 1.373 1_455 S
C495 C497 1.389 . S
C496 H469 0.950 . S
C496 C482 1.377 . S
C496 C495 1.373 1_655 S
C497 C481 1.377 . S
C497 C495 1.389 . S
C497 C498 1.524 . S
C498 C497 1.524 . S
C498 C499 1.397 . S
C498 C503 1.363 . S
C499 H470 0.950 . S
C499 C498 1.397 . S
C499 C500 1.334 . S
C500 H471 0.950 . S
C500 C499 1.334 . S
C500 C501 1.287 . S
C501 C500 1.287 . S
C501 C502 1.524 . S
C501 H504 0.999 . S
C502 H472 0.950 . S
C502 C501 1.524 . S
C502 C503 1.415 . S
C503 H473 0.950 . S
C503 C498 1.363 . S
C503 C502 1.415 . S
H504 C501 0.999 . S
H505 C486 0.913 . S
H506 C524 0.951 . S
H507 C526 0.951 . S
H508 C528 0.950 . S
H509 C529 0.951 . S
H510 C531 0.950 . S
H511 C534 0.950 . S
H512 C535 0.950 . S
H513 C537 0.950 . S
H514 C538 0.950 . S
H515 C539 0.951 . S
H516 C541 0.951 . S
H517 C543 0.950 . S
H518 C544 0.950 . S
H519 C546 0.950 . S
H520 C549 0.950 . S
H521 C550 0.950 . S
H522 C552 0.950 . S
H523 C553 0.950 . S
C524 H506 0.951 . S
C524 C525 1.366 . S
C524 C526 1.388 . S
C525 C524 1.366 . S
C525 C529 1.385 . S
C526 H507 0.951 . S
C526 C524 1.388 . S
C526 C527 1.360 1_565 S
C527 C526 1.360 1_545 S
C527 C528 1.415 . S
C527 C530 1.503 . S
C528 H508 0.950 . S
C528 C527 1.415 . S
C528 C529 1.374 1_545 S
C529 H509 0.951 . S
C529 C525 1.385 . S
C529 C528 1.374 1_565 S
C530 C527 1.503 . S
C530 C531 1.373 1_545 S
C530 C532 1.389 . S
C531 H510 0.950 . S
C531 C530 1.373 1_565 S
C531 C547 1.377 . S
C532 C530 1.389 . S
C532 C533 1.524 . S
C532 C546 1.377 . S
C533 C532 1.524 . S
C533 C534 1.397 . S
C533 C538 1.363 . S
C534 H511 0.950 . S
C534 C533 1.397 . S
C534 C535 1.334 . S
C535 H512 0.950 . S
C535 C534 1.334 . S
C535 C536 1.287 . S
C536 C535 1.287 . S
C536 C537 1.524 . S
C536 H555 0.913 . S
C537 H513 0.950 . S
C537 C536 1.524 . S
C537 C538 1.415 . S
C538 H514 0.950 . S
C538 C533 1.363 . S
C538 C537 1.415 . S
C539 H515 0.951 . S
C539 C540 1.366 . S
C539 C541 1.388 . S
C540 C539 1.366 . S
C540 C544 1.385 . S
C541 H516 0.951 . S
C541 C539 1.388 . S
C541 C542 1.366 . S
C542 C541 1.366 . S
C542 C543 1.414 . S
C542 C545 1.499 . S
C543 H517 0.950 . S
C543 C542 1.414 . S
C543 C544 1.374 . S
C544 H518 0.950 . S
C544 C540 1.385 . S
C544 C543 1.374 . S
C545 C542 1.499 . S
C545 C546 1.373 . S
C545 C547 1.389 1_545 S
C546 H519 0.950 . S
C546 C532 1.377 . S
C546 C545 1.373 . S
C547 C531 1.377 . S
C547 C545 1.389 1_565 S
C547 C548 1.524 . S
C548 C547 1.524 . S
C548 C549 1.397 . S
C548 C553 1.363 . S
C549 H520 0.950 . S
C549 C548 1.397 . S
C549 C550 1.334 . S
C550 H521 0.950 . S
C550 C549 1.334 . S
C550 C551 1.287 . S
C551 C550 1.287 . S
C551 C552 1.524 . S
C551 H554 0.999 . S
C552 H522 0.950 . S
C552 C551 1.524 . S
C552 C553 1.415 . S
C553 H523 0.950 . S
C553 C548 1.363 . S
C553 C552 1.415 . S
H554 C551 0.999 . S
H555 C536 0.913 . S
H556 C574 0.951 . S
H557 C576 0.951 . S
H558 C578 0.950 . S
H559 C579 0.956 . S
H560 C581 0.950 . S
H561 C584 0.950 . S
H562 C585 0.950 . S
H563 C587 0.950 . S
H564 C588 0.950 . S
H565 C589 0.951 . S
H566 C591 0.951 . S
H567 C593 0.950 . S
H568 C594 0.964 . S
H569 C596 0.950 . S
H570 C599 0.950 . S
H571 C600 0.950 . S
H572 C602 0.950 . S
H573 C603 0.950 . S
C574 H556 0.951 . S
C574 C575 1.366 . S
C574 C576 1.388 . S
C575 C574 1.366 . S
C575 C579 1.377 1_554 S
C576 H557 0.951 . S
C576 C574 1.388 . S
C576 C577 1.366 . S
C577 C576 1.366 . S
C577 C578 1.414 1_554 S
C577 C580 1.502 . S
C578 H558 0.950 . S
C578 C577 1.414 1_556 S
C578 C579 1.376 . S
C579 H559 0.956 . S
C579 C575 1.377 1_556 S
C579 C578 1.376 . S
C580 C577 1.502 . S
C580 C581 1.385 . S
C580 C582 1.377 1_554 S
C581 H560 0.950 . S
C581 C580 1.385 . S
C581 C597 1.377 . S
C582 C580 1.377 1_556 S
C582 C583 1.524 . S
C582 C596 1.377 . S
C583 C582 1.524 . S
C583 C584 1.397 . S
C583 C588 1.363 . S
C584 H561 0.950 . S
C584 C583 1.397 . S
C584 C585 1.334 . S
C585 H562 0.950 . S
C585 C584 1.334 . S
C585 C586 1.287 . S
C586 C585 1.287 . S
C586 C587 1.524 . S
C586 H605 0.913 . S
C587 H563 0.950 . S
C587 C586 1.524 . S
C587 C588 1.415 . S
C588 H564 0.950 . S
C588 C583 1.363 . S
C588 C587 1.415 . S
C589 H565 0.951 . S
C589 C590 1.366 . S
C589 C591 1.388 . S
C590 C589 1.366 . S
C590 C594 1.368 1_556 S
C591 H566 0.951 . S
C591 C589 1.388 . S
C591 C592 1.366 . S
C592 C591 1.366 . S
C592 C593 1.414 1_556 S
C592 C595 1.499 . S
C593 H567 0.950 . S
C593 C592 1.414 1_554 S
C593 C594 1.379 . S
C594 H568 0.964 . S
C594 C590 1.368 1_554 S
C594 C593 1.379 . S
C595 C592 1.499 . S
C595 C596 1.374 . S
C595 C597 1.389 1_556 S
C596 H569 0.950 . S
C596 C582 1.377 . S
C596 C595 1.374 . S
C597 C581 1.377 . S
C597 C595 1.389 1_554 S
C597 C598 1.524 . S
C598 C597 1.524 . S
C598 C599 1.397 . S
C598 C603 1.363 . S
C599 H570 0.950 . S
C599 C598 1.397 . S
C599 C600 1.334 . S
C600 H571 0.950 . S
C600 C599 1.334 . S
C600 C601 1.287 . S
C601 C600 1.287 . S
C601 C602 1.524 . S
C601 H604 0.999 . S
C602 H572 0.950 . S
C602 C601 1.524 . S
C602 C603 1.415 . S
C603 H573 0.950 . S
C603 C598 1.363 . S
C603 C602 1.415 . S
H604 C601 0.999 . S
H605 C586 0.913 . S
H606 C624 0.951 . S
H607 C626 0.952 . S
H608 C628 0.950 . S
H609 C629 0.950 . S
H610 C631 0.950 . S
H611 C634 0.950 . S
H612 C635 0.950 . S
H613 C637 0.950 . S
H614 C638 0.950 . S
H615 C639 0.951 . S
H616 C641 0.951 1_554 S
H617 C643 0.950 . S
H618 C644 0.950 . S
H619 C646 0.950 . S
H620 C649 0.950 . S
H621 C650 0.950 . S
H622 C652 0.950 . S
H623 C653 0.950 . S
C624 H606 0.951 . S
C624 C625 1.366 . S
C624 C626 1.388 . S
C625 C624 1.366 . S
C625 C629 1.385 . S
C626 H607 0.952 . S
C626 C624 1.388 . S
C626 C627 1.366 . S
C627 C626 1.366 . S
C627 C628 1.414 . S
C627 C630 1.502 . S
C628 H608 0.950 . S
C628 C627 1.414 . S
C628 C629 1.374 . S
C629 H609 0.950 . S
C629 C625 1.385 . S
C629 C628 1.374 . S
C630 C627 1.502 . S
C630 C631 1.402 . S
C630 C632 1.361 1_554 S
C631 H610 0.950 . S
C631 C630 1.402 . S
C631 C647 1.377 . S
C632 C630 1.361 1_556 S
C632 C633 1.524 . S
C632 C646 1.377 . S
C633 C632 1.524 . S
C633 C634 1.397 . S
C633 C638 1.363 . S
C634 H611 0.950 . S
C634 C633 1.397 . S
C634 C635 1.334 . S
C635 H612 0.950 . S
C635 C634 1.334 . S
C635 C636 1.287 . S
C636 C635 1.287 . S
C636 C637 1.524 . S
C636 H655 0.913 . S
C637 H613 0.950 . S
C637 C636 1.524 . S
C637 C638 1.415 . S
C638 H614 0.950 . S
C638 C633 1.363 . S
C638 C637 1.415 . S
C639 H615 0.951 . S
C639 C640 1.366 . S
C639 C641 1.388 . S
C640 C639 1.366 . S
C640 C644 1.385 . S
C641 H616 0.951 1_556 S
C641 C639 1.388 . S
C641 C642 1.366 . S
C642 C641 1.366 . S
C642 C643 1.414 . S
C642 C645 1.500 . S
C643 H617 0.950 . S
C643 C642 1.414 . S
C643 C644 1.374 . S
C644 H618 0.950 . S
C644 C640 1.385 . S
C644 C643 1.374 . S
C645 C642 1.500 . S
C645 C646 1.387 . S
C645 C647 1.375 1_556 S
C646 H619 0.950 . S
C646 C632 1.377 . S
C646 C645 1.387 . S
C647 C631 1.377 . S
C647 C645 1.375 1_554 S
C647 C648 1.524 . S
C648 C647 1.524 . S
C648 C649 1.397 . S
C648 C653 1.363 . S
C649 H620 0.950 . S
C649 C648 1.397 . S
C649 C650 1.334 . S
C650 H621 0.950 . S
C650 C649 1.334 . S
C650 C651 1.287 . S
C651 C650 1.287 . S
C651 C652 1.524 . S
C651 H654 0.999 . S
C652 H622 0.950 . S
C652 C651 1.524 . S
C652 C653 1.415 . S
C653 H623 0.950 . S
C653 C648 1.363 . S
C653 C652 1.415 . S
H654 C651 0.999 . S
H655 C636 0.913 . S
H656 C674 0.951 . S
H657 C676 0.951 . S
H658 C678 0.950 . S
H659 C679 0.950 . S
H660 C681 0.950 . S
H661 C684 0.950 . S
H662 C685 0.950 . S
H663 C687 0.950 . S
H664 C688 0.950 1_554 S
H665 C689 0.951 . S
H666 C691 0.951 . S
H667 C693 0.950 . S
H668 C694 0.950 . S
H669 C696 0.950 . S
H670 C699 0.950 . S
H671 C700 0.950 . S
H672 C702 0.950 . S
H673 C703 0.950 1_556 S
C674 H656 0.951 . S
C674 C675 1.366 1_554 S
C674 C676 1.388 . S
C675 C674 1.366 1_556 S
C675 C679 1.385 . S
C676 H657 0.951 . S
C676 C674 1.388 . S
C676 C677 1.366 1_554 S
C677 C676 1.366 1_556 S
C677 C678 1.414 . S
C677 C680 1.499 . S
C678 H658 0.950 . S
C678 C677 1.414 . S
C678 C679 1.374 . S
C679 H659 0.950 . S
C679 C675 1.385 . S
C679 C678 1.374 . S
C680 C677 1.499 . S
C680 C681 1.373 1_556 S
C680 C682 1.389 . S
C681 H660 0.950 . S
C681 C680 1.373 1_554 S
C681 C697 1.377 . S
C682 C680 1.389 . S
C682 C683 1.524 . S
C682 C696 1.377 . S
C683 C682 1.524 . S
C683 C684 1.397 . S
C683 C688 1.363 . S
C684 H661 0.950 . S
C684 C683 1.397 . S
C684 C685 1.334 . S
C685 H662 0.950 . S
C685 C684 1.334 . S
C685 C686 1.287 . S
C686 C685 1.287 . S
C686 C687 1.524 . S
C686 H705 0.913 . S
C687 H663 0.950 . S
C687 C686 1.524 . S
C687 C688 1.415 . S
C688 H664 0.950 1_556 S
C688 C683 1.363 . S
C688 C687 1.415 . S
C689 H665 0.951 . S
C689 C690 1.366 1_556 S
C689 C691 1.388 . S
C690 C689 1.366 1_554 S
C690 C694 1.385 . S
C691 H666 0.951 . S
C691 C689 1.388 . S
C691 C692 1.366 1_556 S
C692 C691 1.366 1_554 S
C692 C693 1.414 . S
C692 C695 1.499 . S
C693 H667 0.950 . S
C693 C692 1.414 . S
C693 C694 1.374 . S
C694 H668 0.950 . S
C694 C690 1.385 . S
C694 C693 1.374 . S
C695 C692 1.499 . S
C695 C696 1.373 1_554 S
C695 C697 1.389 . S
C696 H669 0.950 . S
C696 C682 1.377 . S
C696 C695 1.373 1_556 S
C697 C681 1.377 . S
C697 C695 1.389 . S
C697 C698 1.524 . S
C698 C697 1.524 . S
C698 C699 1.397 . S
C698 C703 1.363 . S
C699 H670 0.950 . S
C699 C698 1.397 . S
C699 C700 1.334 . S
C700 H671 0.950 . S
C700 C699 1.334 . S
C700 C701 1.287 . S
C701 C700 1.287 . S
C701 C702 1.524 . S
C701 H704 0.999 . S
C702 H672 0.950 . S
C702 C701 1.524 . S
C702 C703 1.415 . S
C703 H673 0.950 1_554 S
C703 C698 1.363 . S
C703 C702 1.415 . S
H704 C701 0.999 . S
H705 C686 0.913 . S
H706 C724 0.951 . S
H707 C726 0.951 . S
H708 C728 0.950 1_554 S
H709 C729 0.950 . S
H710 C731 0.950 . S
H711 C734 0.950 . S
H712 C735 0.950 . S
H713 C737 0.950 . S
H714 C738 0.950 . S
H715 C739 0.951 . S
H716 C741 0.951 . S
H717 C743 0.942 1_556 S
H718 C744 0.950 . S
H719 C746 0.950 . S
H720 C749 0.950 . S
H721 C750 0.950 . S
H722 C752 0.950 . S
H723 C753 0.950 . S
C724 H706 0.951 . S
C724 C725 1.366 . S
C724 C726 1.388 . S
C725 C724 1.366 . S
C725 C729 1.385 . S
C726 H707 0.951 . S
C726 C724 1.388 . S
C726 C727 1.366 . S
C727 C726 1.366 . S
C727 C728 1.414 . S
C727 C730 1.499 . S
C728 H708 0.950 1_556 S
C728 C727 1.414 . S
C728 C729 1.374 . S
C729 H709 0.950 . S
C729 C725 1.385 . S
C729 C728 1.374 . S
C730 C727 1.499 . S
C730 C731 1.373 1_556 S
C730 C732 1.389 . S
C731 H710 0.950 . S
C731 C730 1.373 1_554 S
C731 C747 1.377 . S
C732 C730 1.389 . S
C732 C733 1.524 . S
C732 C746 1.377 . S
C733 C732 1.524 . S
C733 C734 1.397 . S
C733 C738 1.363 . S
C734 H711 0.950 . S
C734 C733 1.397 . S
C734 C735 1.334 . S
C735 H712 0.950 . S
C735 C734 1.334 . S
C735 C736 1.287 . S
C736 C735 1.287 . S
C736 C737 1.524 . S
C736 H755 0.913 . S
C737 H713 0.950 . S
C737 C736 1.524 . S
C737 C738 1.415 . S
C738 H714 0.950 . S
C738 C733 1.363 . S
C738 C737 1.415 . S
C739 H715 0.951 . S
C739 C740 1.366 . S
C739 C741 1.388 . S
C740 C739 1.366 . S
C740 C744 1.385 . S
C741 H716 0.951 . S
C741 C739 1.388 . S
C741 C742 1.366 . S
C742 C741 1.366 . S
C742 C743 1.414 . S
C742 C745 1.499 . S
C743 H717 0.942 1_554 S
C743 C742 1.414 . S
C743 C744 1.374 . S
C744 H718 0.950 . S
C744 C740 1.385 . S
C744 C743 1.374 . S
C745 C742 1.499 . S
C745 C746 1.373 1_554 S
C745 C747 1.389 . S
C746 H719 0.950 . S
C746 C732 1.377 . S
C746 C745 1.373 1_556 S
C747 C731 1.377 . S
C747 C745 1.389 . S
C747 C748 1.524 . S
C748 C747 1.524 . S
C748 C749 1.397 . S
C748 C753 1.363 . S
C749 H720 0.950 . S
C749 C748 1.397 . S
C749 C750 1.334 . S
C750 H721 0.950 . S
C750 C749 1.334 . S
C750 C751 1.287 . S
C751 C750 1.287 . S
C751 C752 1.524 . S
C751 H754 0.999 . S
C752 H722 0.950 . S
C752 C751 1.524 . S
C752 C753 1.415 . S
C753 H723 0.950 . S
C753 C748 1.363 . S
C753 C752 1.415 . S
H754 C751 0.999 . S
H755 C736 0.913 . S
H756 C774 0.951 . S
H757 C776 0.951 . S
H758 C778 0.950 . S
H759 C779 0.950 . S
H760 C781 0.950 . S
H761 C784 0.950 . S
H762 C785 0.950 . S
H763 C787 0.950 . S
H764 C788 0.950 . S
H765 C789 0.951 . S
H766 C791 0.951 . S
H767 C793 0.950 . S
H768 C794 0.950 . S
H769 C796 0.950 . S
H770 C799 0.950 . S
H771 C800 0.950 . S
H772 C802 0.950 . S
H773 C803 0.950 . S
C774 H756 0.951 . S
C774 C775 1.366 . S
C774 C776 1.388 . S
C775 C774 1.366 . S
C775 C779 1.385 . S
C776 H757 0.951 . S
C776 C774 1.388 . S
C776 C777 1.366 . S
C777 C776 1.366 . S
C777 C778 1.414 . S
C777 C780 1.499 . S
C778 H758 0.950 . S
C778 C777 1.414 . S
C778 C779 1.374 . S
C779 H759 0.950 . S
C779 C775 1.385 . S
C779 C778 1.374 . S
C780 C777 1.499 . S
C780 C781 1.373 . S
C780 C782 1.389 . S
C781 H760 0.950 . S
C781 C780 1.373 . S
C781 C797 1.377 . S
C782 C780 1.389 . S
C782 C783 1.524 . S
C782 C796 1.377 . S
C783 C782 1.524 . S
C783 C784 1.397 . S
C783 C788 1.363 . S
C784 H761 0.950 . S
C784 C783 1.397 . S
C784 C785 1.334 . S
C785 H762 0.950 . S
C785 C784 1.334 . S
C785 C786 1.287 . S
C786 C785 1.287 . S
C786 C787 1.524 . S
C786 H805 0.913 . S
C787 H763 0.950 . S
C787 C786 1.524 . S
C787 C788 1.415 . S
C788 H764 0.950 . S
C788 C783 1.363 . S
C788 C787 1.415 . S
C789 H765 0.951 . S
C789 C790 1.366 . S
C789 C791 1.388 . S
C790 C789 1.366 . S
C790 C794 1.385 . S
C791 H766 0.951 . S
C791 C789 1.388 . S
C791 C792 1.366 . S
C792 C791 1.366 . S
C792 C793 1.414 . S
C792 C795 1.499 . S
C793 H767 0.950 . S
C793 C792 1.414 . S
C793 C794 1.374 . S
C794 H768 0.950 . S
C794 C790 1.385 . S
C794 C793 1.374 . S
C795 C792 1.499 . S
C795 C796 1.373 . S
C795 C797 1.389 . S
C796 H769 0.950 . S
C796 C782 1.377 . S
C796 C795 1.373 . S
C797 C781 1.377 . S
C797 C795 1.389 . S
C797 C798 1.524 . S
C798 C797 1.524 . S
C798 C799 1.397 . S
C798 C803 1.363 . S
C799 H770 0.950 . S
C799 C798 1.397 . S
C799 C800 1.334 . S
C800 H771 0.950 . S
C800 C799 1.334 . S
C800 C801 1.287 . S
C801 C800 1.287 . S
C801 C802 1.524 . S
C801 H804 0.999 . S
C802 H772 0.950 . S
C802 C801 1.524 . S
C802 C803 1.415 . S
C803 H773 0.950 . S
C803 C798 1.363 . S
C803 C802 1.415 . S
H804 C801 0.999 . S
H805 C786 0.913 . S
H806 C824 0.951 . S
H807 C826 0.951 . S
H808 C828 0.950 . S
H809 C829 0.950 . S
H810 C831 0.950 . S
H811 C834 0.950 . S
H812 C835 0.950 . S
H813 C837 0.950 . S
H814 C838 0.950 . S
H815 C839 0.951 . S
H816 C841 0.951 . S
H817 C843 0.950 . S
H818 C844 0.950 . S
H819 C846 0.950 . S
H820 C849 0.950 . S
H821 C850 0.950 . S
H822 C852 0.950 . S
H823 C853 0.950 . S
C824 H806 0.951 . S
C824 C825 1.366 . S
C824 C826 1.388 . S
C825 C824 1.366 . S
C825 C829 1.385 . S
C826 H807 0.951 . S
C826 C824 1.388 . S
C826 C827 1.366 . S
C827 C826 1.366 . S
C827 C828 1.414 . S
C827 C830 1.499 . S
C828 H808 0.950 . S
C828 C827 1.414 . S
C828 C829 1.374 . S
C829 H809 0.950 . S
C829 C825 1.385 . S
C829 C828 1.374 . S
C830 C827 1.499 . S
C830 C831 1.373 . S
C830 C832 1.389 . S
C831 H810 0.950 . S
C831 C830 1.373 . S
C831 C847 1.377 . S
C832 C830 1.389 . S
C832 C833 1.524 . S
C832 C846 1.377 . S
C833 C832 1.524 . S
C833 C834 1.397 . S
C833 C838 1.363 . S
C834 H811 0.950 . S
C834 C833 1.397 . S
C834 C835 1.334 . S
C835 H812 0.950 . S
C835 C834 1.334 . S
C835 C836 1.287 . S
C836 C835 1.287 . S
C836 C837 1.524 . S
C836 H855 0.913 . S
C837 H813 0.950 . S
C837 C836 1.524 . S
C837 C838 1.415 . S
C838 H814 0.950 . S
C838 C833 1.363 . S
C838 C837 1.415 . S
C839 H815 0.951 . S
C839 C840 1.366 . S
C839 C841 1.388 . S
C840 C839 1.366 . S
C840 C844 1.385 . S
C841 H816 0.951 . S
C841 C839 1.388 . S
C841 C842 1.366 . S
C842 C841 1.366 . S
C842 C843 1.414 . S
C842 C845 1.499 . S
C843 H817 0.950 . S
C843 C842 1.414 . S
C843 C844 1.374 . S
C844 H818 0.950 . S
C844 C840 1.385 . S
C844 C843 1.374 . S
C845 C842 1.499 . S
C845 C846 1.373 . S
C845 C847 1.389 . S
C846 H819 0.950 . S
C846 C832 1.377 . S
C846 C845 1.373 . S
C847 C831 1.377 . S
C847 C845 1.389 . S
C847 C848 1.524 . S
C848 C847 1.524 . S
C848 C849 1.397 . S
C848 C853 1.363 . S
C849 H820 0.950 . S
C849 C848 1.397 . S
C849 C850 1.334 . S
C850 H821 0.950 . S
C850 C849 1.334 . S
C850 C851 1.287 . S
C851 C850 1.287 . S
C851 C852 1.524 . S
C851 H854 0.999 . S
C852 H822 0.950 . S
C852 C851 1.524 . S
C852 C853 1.415 . S
C853 H823 0.950 . S
C853 C848 1.363 . S
C853 C852 1.415 . S
H854 C851 0.999 . S
H855 C836 0.913 . S
H856 C874 0.951 . S
H857 C876 0.951 . S
H858 C878 0.950 . S
H859 C879 0.950 . S
H860 C881 0.950 . S
H861 C884 0.950 . S
H862 C885 0.950 . S
H863 C887 0.950 . S
H864 C888 0.950 . S
H865 C889 0.951 . S
H866 C891 0.951 . S
H867 C893 0.950 . S
H868 C894 0.950 . S
H869 C896 0.950 . S
H870 C899 0.950 . S
H871 C900 0.950 . S
H872 C902 0.950 . S
H873 C903 0.950 . S
C874 H856 0.951 . S
C874 C875 1.366 . S
C874 C876 1.388 . S
C875 C874 1.366 . S
C875 C879 1.385 . S
C876 H857 0.951 . S
C876 C874 1.388 . S
C876 C877 1.366 . S
C877 C876 1.366 . S
C877 C878 1.414 . S
C877 C880 1.499 . S
C878 H858 0.950 . S
C878 C877 1.414 . S
C878 C879 1.374 . S
C879 H859 0.950 . S
C879 C875 1.385 . S
C879 C878 1.374 . S
C880 C877 1.499 . S
C880 C881 1.373 . S
C880 C882 1.389 . S
C881 H860 0.950 . S
C881 C880 1.373 . S
C881 C897 1.377 . S
C882 C880 1.389 . S
C882 C883 1.524 . S
C882 C896 1.377 . S
C883 C882 1.524 . S
C883 C884 1.397 . S
C883 C888 1.363 . S
C884 H861 0.950 . S
C884 C883 1.397 . S
C884 C885 1.334 . S
C885 H862 0.950 . S
C885 C884 1.334 . S
C885 C886 1.287 . S
C886 C885 1.287 . S
C886 C887 1.524 . S
C886 H905 0.913 . S
C887 H863 0.950 . S
C887 C886 1.524 . S
C887 C888 1.415 . S
C888 H864 0.950 . S
C888 C883 1.363 . S
C888 C887 1.415 . S
C889 H865 0.951 . S
C889 C890 1.366 . S
C889 C891 1.388 . S
C890 C889 1.366 . S
C890 C894 1.385 . S
C891 H866 0.951 . S
C891 C889 1.388 . S
C891 C892 1.366 . S
C892 C891 1.366 . S
C892 C893 1.414 . S
C892 C895 1.499 . S
C893 H867 0.950 . S
C893 C892 1.414 . S
C893 C894 1.374 . S
C894 H868 0.950 . S
C894 C890 1.385 . S
C894 C893 1.374 . S
C895 C892 1.499 . S
C895 C896 1.373 . S
C895 C897 1.389 . S
C896 H869 0.950 . S
C896 C882 1.377 . S
C896 C895 1.373 . S
C897 C881 1.377 . S
C897 C895 1.389 . S
C897 C898 1.524 . S
C898 C897 1.524 . S
C898 C899 1.397 . S
C898 C903 1.363 . S
C899 H870 0.950 . S
C899 C898 1.397 . S
C899 C900 1.334 . S
C900 H871 0.950 . S
C900 C899 1.334 . S
C900 C901 1.287 . S
C901 C900 1.287 . S
C901 C902 1.524 . S
C901 H904 0.999 . S
C902 H872 0.950 . S
C902 C901 1.524 . S
C902 C903 1.415 . S
C903 H873 0.950 . S
C903 C898 1.363 . S
C903 C902 1.415 . S
H904 C901 0.999 . S
H905 C886 0.913 . S
H906 C924 0.951 . S
H907 C926 0.951 . S
H908 C928 0.950 . S
H909 C929 0.950 . S
H910 C931 0.950 . S
H911 C934 0.950 . S
H912 C935 0.950 . S
H913 C937 0.950 . S
H914 C938 0.950 . S
H915 C939 0.951 . S
H916 C941 0.951 . S
H917 C943 0.950 . S
H918 C944 0.950 . S
H919 C946 0.950 . S
H920 C949 0.950 . S
H921 C950 0.950 . S
H922 C952 0.950 . S
H923 C953 0.950 . S
C924 H906 0.951 . S
C924 C925 1.366 . S
C924 C926 1.388 . S
C925 C924 1.366 . S
C925 C929 1.385 . S
C926 H907 0.951 . S
C926 C924 1.388 . S
C926 C927 1.366 . S
C927 C926 1.366 . S
C927 C928 1.414 . S
C927 C930 1.499 . S
C928 H908 0.950 . S
C928 C927 1.414 . S
C928 C929 1.374 . S
C929 H909 0.950 . S
C929 C925 1.385 . S
C929 C928 1.374 . S
C930 C927 1.499 . S
C930 C931 1.373 . S
C930 C932 1.389 . S
C931 H910 0.950 . S
C931 C930 1.373 . S
C931 C947 1.377 . S
C932 C930 1.389 . S
C932 C933 1.524 . S
C932 C946 1.377 . S
C933 C932 1.524 . S
C933 C934 1.397 . S
C933 C938 1.363 . S
C934 H911 0.950 . S
C934 C933 1.397 . S
C934 C935 1.334 . S
C935 H912 0.950 . S
C935 C934 1.334 . S
C935 C936 1.287 . S
C936 C935 1.287 . S
C936 C937 1.524 . S
C936 H955 0.913 . S
C937 H913 0.950 . S
C937 C936 1.524 . S
C937 C938 1.415 . S
C938 H914 0.950 . S
C938 C933 1.363 . S
C938 C937 1.415 . S
C939 H915 0.951 . S
C939 C940 1.366 . S
C939 C941 1.388 . S
C940 C939 1.366 . S
C940 C944 1.385 . S
C941 H916 0.951 . S
C941 C939 1.388 . S
C941 C942 1.366 . S
C942 C941 1.366 . S
C942 C943 1.414 . S
C942 C945 1.499 . S
C943 H917 0.950 . S
C943 C942 1.414 . S
C943 C944 1.374 . S
C944 H918 0.950 . S
C944 C940 1.385 . S
C944 C943 1.374 . S
C945 C942 1.499 . S
C945 C946 1.373 . S
C945 C947 1.389 . S
C946 H919 0.950 . S
C946 C932 1.377 . S
C946 C945 1.373 . S
C947 C931 1.377 . S
C947 C945 1.389 . S
C947 C948 1.524 . S
C948 C947 1.524 . S
C948 C949 1.397 . S
C948 C953 1.363 . S
C949 H920 0.950 . S
C949 C948 1.397 . S
C949 C950 1.334 . S
C950 H921 0.950 . S
C950 C949 1.334 . S
C950 C951 1.287 . S
C951 C950 1.287 . S
C951 C952 1.524 . S
C951 H954 0.999 . S
C952 H922 0.950 . S
C952 C951 1.524 . S
C952 C953 1.415 . S
C953 H923 0.950 . S
C953 C948 1.363 . S
C953 C952 1.415 . S
H954 C951 0.999 . S
H955 C936 0.913 . S
H956 C974 0.951 . S
H957 C976 0.951 . S
H958 C978 0.950 . S
H959 C979 0.950 . S
H960 C981 0.950 . S
H961 C984 0.950 . S
H962 C985 0.950 . S
H963 C987 0.950 . S
H964 C988 0.950 . S
H965 C989 0.951 . S
H966 C991 0.951 . S
H967 C993 0.950 . S
H968 C994 0.950 . S
H969 C996 0.950 . S
H970 C999 0.950 . S
H971 C1000 0.950 . S
H972 C1002 0.950 . S
H973 C1003 0.950 . S
C974 H956 0.951 . S
C974 C975 1.366 . S
C974 C976 1.388 . S
C975 C974 1.366 . S
C975 C979 1.385 . S
C976 H957 0.951 . S
C976 C974 1.388 . S
C976 C977 1.366 . S
C977 C976 1.366 . S
C977 C978 1.414 . S
C977 C980 1.499 . S
C978 H958 0.950 . S
C978 C977 1.414 . S
C978 C979 1.374 . S
C979 H959 0.950 . S
C979 C975 1.385 . S
C979 C978 1.374 . S
C980 C977 1.499 . S
C980 C981 1.373 . S
C980 C982 1.389 . S
C981 H960 0.950 . S
C981 C980 1.373 . S
C981 C997 1.377 . S
C982 C980 1.389 . S
C982 C983 1.524 . S
C982 C996 1.377 . S
C983 C982 1.524 . S
C983 C984 1.397 . S
C983 C988 1.363 . S
C984 H961 0.950 . S
C984 C983 1.397 . S
C984 C985 1.334 . S
C985 H962 0.950 . S
C985 C984 1.334 . S
C985 C986 1.287 . S
C986 C985 1.287 . S
C986 C987 1.524 . S
C986 H1005 0.913 . S
C987 H963 0.950 . S
C987 C986 1.524 . S
C987 C988 1.415 . S
C988 H964 0.950 . S
C988 C983 1.363 . S
C988 C987 1.415 . S
C989 H965 0.951 . S
C989 C990 1.366 . S
C989 C991 1.388 . S
C990 C989 1.366 . S
C990 C994 1.385 . S
C991 H966 0.951 . S
C991 C989 1.388 . S
C991 C992 1.366 . S
C992 C991 1.366 . S
C992 C993 1.414 . S
C992 C995 1.499 . S
C993 H967 0.950 . S
C993 C992 1.414 . S
C993 C994 1.374 . S
C994 H968 0.950 . S
C994 C990 1.385 . S
C994 C993 1.374 . S
C995 C992 1.499 . S
C995 C996 1.373 . S
C995 C997 1.389 . S
C996 H969 0.950 . S
C996 C982 1.377 . S
C996 C995 1.373 . S
C997 C981 1.377 . S
C997 C995 1.389 . S
C997 C998 1.524 . S
C998 C997 1.524 . S
C998 C999 1.397 . S
C998 C1003 1.363 . S
C999 H970 0.950 . S
C999 C998 1.397 . S
C999 C1000 1.334 . S
C1000 H971 0.950 . S
C1000 C999 1.334 . S
C1000 C1001 1.287 . S
C1001 C1000 1.287 . S
C1001 C1002 1.524 . S
C1001 H1004 0.999 . S
C1002 H972 0.950 . S
C1002 C1001 1.524 . S
C1002 C1003 1.415 . S
C1003 H973 0.950 . S
C1003 C998 1.363 . S
C1003 C1002 1.415 . S
H1004 C1001 0.999 . S
H1005 C986 0.913 . S
H1006 C1024 0.951 . S
H1007 C1026 0.951 . S
H1008 C1028 0.950 . S
H1009 C1029 0.950 . S
H1010 C1031 0.950 . S
H1011 C1034 0.950 . S
H1012 C1035 0.950 . S
H1013 C1037 0.950 . S
H1014 C1038 0.950 . S
H1015 C1039 0.951 . S
H1016 C1041 0.951 . S
H1017 C1043 0.950 . S
H1018 C1044 0.950 . S
H1019 C1046 0.950 . S
H1020 C1049 0.950 . S
H1021 C1050 0.950 . S
H1022 C1052 0.950 . S
H1023 C1053 0.950 . S
C1024 H1006 0.951 . S
C1024 C1025 1.366 . S
C1024 C1026 1.388 . S
C1025 C1024 1.366 . S
C1025 C1029 1.385 . S
C1026 H1007 0.951 . S
C1026 C1024 1.388 . S
C1026 C1027 1.366 . S
C1027 C1026 1.366 . S
C1027 C1028 1.414 . S
C1027 C1030 1.499 . S
C1028 H1008 0.950 . S
C1028 C1027 1.414 . S
C1028 C1029 1.374 . S
C1029 H1009 0.950 . S
C1029 C1025 1.385 . S
C1029 C1028 1.374 . S
C1030 C1027 1.499 . S
C1030 C1031 1.373 . S
C1030 C1032 1.389 . S
C1031 H1010 0.950 . S
C1031 C1030 1.373 . S
C1031 C1047 1.377 . S
C1032 C1030 1.389 . S
C1032 C1033 1.524 . S
C1032 C1046 1.377 . S
C1033 C1032 1.524 . S
C1033 C1034 1.397 . S
C1033 C1038 1.363 . S
C1034 H1011 0.950 . S
C1034 C1033 1.397 . S
C1034 C1035 1.334 . S
C1035 H1012 0.950 . S
C1035 C1034 1.334 . S
C1035 C1036 1.287 . S
C1036 C1035 1.287 . S
C1036 C1037 1.524 . S
C1036 H1055 0.913 . S
C1037 H1013 0.950 . S
C1037 C1036 1.524 . S
C1037 C1038 1.415 . S
C1038 H1014 0.950 . S
C1038 C1033 1.363 . S
C1038 C1037 1.415 . S
C1039 H1015 0.951 . S
C1039 C1040 1.366 . S
C1039 C1041 1.388 . S
C1040 C1039 1.366 . S
C1040 C1044 1.385 . S
C1041 H1016 0.951 . S
C1041 C1039 1.388 . S
C1041 C1042 1.366 . S
C1042 C1041 1.366 . S
C1042 C1043 1.414 . S
C1042 C1045 1.499 . S
C1043 H1017 0.950 . S
C1043 C1042 1.414 . S
C1043 C1044 1.374 . S
C1044 H1018 0.950 . S
C1044 C1040 1.385 . S
C1044 C1043 1.374 . S
C1045 C1042 1.499 . S
C1045 C1046 1.373 . S
C1045 C1047 1.389 . S
C1046 H1019 0.950 . S
C1046 C1032 1.377 . S
C1046 C1045 1.373 . S
C1047 C1031 1.377 . S
C1047 C1045 1.389 . S
C1047 C1048 1.524 . S
C1048 C1047 1.524 . S
C1048 C1049 1.397 . S
C1048 C1053 1.363 . S
C1049 H1020 0.950 . S
C1049 C1048 1.397 . S
C1049 C1050 1.334 . S
C1050 H1021 0.950 . S
C1050 C1049 1.334 . S
C1050 C1051 1.287 . S
C1051 C1050 1.287 . S
C1051 C1052 1.524 . S
C1051 H1054 0.999 . S
C1052 H1022 0.950 . S
C1052 C1051 1.524 . S
C1052 C1053 1.415 . S
C1053 H1023 0.950 . S
C1053 C1048 1.363 . S
C1053 C1052 1.415 . S
H1054 C1051 0.999 . S
H1055 C1036 0.913 . S
H1056 C1074 0.951 . S
H1057 C1076 0.951 . S
H1058 C1078 0.950 . S
H1059 C1079 0.950 . S
H1060 C1081 0.950 . S
H1061 C1084 0.950 . S
H1062 C1085 0.950 . S
H1063 C1087 0.950 . S
H1064 C1088 0.950 . S
H1065 C1089 0.951 . S
H1066 C1091 0.951 . S
H1067 C1093 0.950 . S
H1068 C1094 0.950 . S
H1069 C1096 0.950 . S
H1070 C1099 0.950 . S
H1071 C1100 0.950 . S
H1072 C1102 0.950 . S
H1073 C1103 0.950 . S
C1074 H1056 0.951 . S
C1074 C1075 1.366 . S
C1074 C1076 1.388 . S
C1075 C1074 1.366 . S
C1075 C1079 1.385 . S
C1076 H1057 0.951 . S
C1076 C1074 1.388 . S
C1076 C1077 1.366 . S
C1077 C1076 1.366 . S
C1077 C1078 1.414 . S
C1077 C1080 1.499 . S
C1078 H1058 0.950 . S
C1078 C1077 1.414 . S
C1078 C1079 1.374 . S
C1079 H1059 0.950 . S
C1079 C1075 1.385 . S
C1079 C1078 1.374 . S
C1080 C1077 1.499 . S
C1080 C1081 1.373 . S
C1080 C1082 1.389 . S
C1081 H1060 0.950 . S
C1081 C1080 1.373 . S
C1081 C1097 1.377 . S
C1082 C1080 1.389 . S
C1082 C1083 1.524 . S
C1082 C1096 1.377 . S
C1083 C1082 1.524 . S
C1083 C1084 1.397 . S
C1083 C1088 1.363 . S
C1084 H1061 0.950 . S
C1084 C1083 1.397 . S
C1084 C1085 1.334 . S
C1085 H1062 0.950 . S
C1085 C1084 1.334 . S
C1085 C1086 1.287 . S
C1086 C1085 1.287 . S
C1086 C1087 1.524 . S
C1086 H1105 0.913 . S
C1087 H1063 0.950 . S
C1087 C1086 1.524 . S
C1087 C1088 1.415 . S
C1088 H1064 0.950 . S
C1088 C1083 1.363 . S
C1088 C1087 1.415 . S
C1089 H1065 0.951 . S
C1089 C1090 1.366 . S
C1089 C1091 1.388 . S
C1090 C1089 1.366 . S
C1090 C1094 1.385 . S
C1091 H1066 0.951 . S
C1091 C1089 1.388 . S
C1091 C1092 1.366 . S
C1092 C1091 1.366 . S
C1092 C1093 1.414 . S
C1092 C1095 1.499 . S
C1093 H1067 0.950 . S
C1093 C1092 1.414 . S
C1093 C1094 1.374 . S
C1094 H1068 0.950 . S
C1094 C1090 1.385 . S
C1094 C1093 1.374 . S
C1095 C1092 1.499 . S
C1095 C1096 1.373 . S
C1095 C1097 1.389 . S
C1096 H1069 0.950 . S
C1096 C1082 1.377 . S
C1096 C1095 1.373 . S
C1097 C1081 1.377 . S
C1097 C1095 1.389 . S
C1097 C1098 1.524 . S
C1098 C1097 1.524 . S
C1098 C1099 1.397 . S
C1098 C1103 1.363 . S
C1099 H1070 0.950 . S
C1099 C1098 1.397 . S
C1099 C1100 1.334 . S
C1100 H1071 0.950 . S
C1100 C1099 1.334 . S
C1100 C1101 1.287 . S
C1101 C1100 1.287 . S
C1101 C1102 1.524 . S
C1101 H1104 0.999 . S
C1102 H1072 0.950 . S
C1102 C1101 1.524 . S
C1102 C1103 1.415 . S
C1103 H1073 0.950 . S
C1103 C1098 1.363 . S
C1103 C1102 1.415 . S
H1104 C1101 0.999 . S
H1105 C1086 0.913 . S
H1106 C1124 0.951 . S
H1107 C1126 0.951 . S
H1108 C1128 0.950 . S
H1109 C1129 0.950 . S
H1110 C1131 0.950 . S
H1111 C1134 0.950 . S
H1112 C1135 0.950 . S
H1113 C1137 0.950 . S
H1114 C1138 0.950 . S
H1115 C1139 0.951 . S
H1116 C1141 0.951 . S
H1117 C1143 0.950 . S
H1118 C1144 0.950 . S
H1119 C1146 0.950 . S
H1120 C1149 0.950 . S
H1121 C1150 0.950 . S
H1122 C1152 0.950 . S
H1123 C1153 0.950 . S
C1124 H1106 0.951 . S
C1124 C1125 1.366 . S
C1124 C1126 1.388 . S
C1125 C1124 1.366 . S
C1125 C1129 1.385 . S
C1126 H1107 0.951 . S
C1126 C1124 1.388 . S
C1126 C1127 1.366 . S
C1127 C1126 1.366 . S
C1127 C1128 1.414 . S
C1127 C1130 1.499 . S
C1128 H1108 0.950 . S
C1128 C1127 1.414 . S
C1128 C1129 1.374 . S
C1129 H1109 0.950 . S
C1129 C1125 1.385 . S
C1129 C1128 1.374 . S
C1130 C1127 1.499 . S
C1130 C1131 1.373 . S
C1130 C1132 1.389 . S
C1131 H1110 0.950 . S
C1131 C1130 1.373 . S
C1131 C1147 1.377 . S
C1132 C1130 1.389 . S
C1132 C1133 1.524 . S
C1132 C1146 1.377 . S
C1133 C1132 1.524 . S
C1133 C1134 1.397 . S
C1133 C1138 1.363 . S
C1134 H1111 0.950 . S
C1134 C1133 1.397 . S
C1134 C1135 1.334 . S
C1135 H1112 0.950 . S
C1135 C1134 1.334 . S
C1135 C1136 1.287 . S
C1136 C1135 1.287 . S
C1136 C1137 1.524 . S
C1136 H1155 0.913 . S
C1137 H1113 0.950 . S
C1137 C1136 1.524 . S
C1137 C1138 1.415 . S
C1138 H1114 0.950 . S
C1138 C1133 1.363 . S
C1138 C1137 1.415 . S
C1139 H1115 0.951 . S
C1139 C1140 1.366 . S
C1139 C1141 1.388 . S
C1140 C1139 1.366 . S
C1140 C1144 1.385 . S
C1141 H1116 0.951 . S
C1141 C1139 1.388 . S
C1141 C1142 1.366 . S
C1142 C1141 1.366 . S
C1142 C1143 1.414 . S
C1142 C1145 1.499 . S
C1143 H1117 0.950 . S
C1143 C1142 1.414 . S
C1143 C1144 1.374 . S
C1144 H1118 0.950 . S
C1144 C1140 1.385 . S
C1144 C1143 1.374 . S
C1145 C1142 1.499 . S
C1145 C1146 1.373 . S
C1145 C1147 1.389 . S
C1146 H1119 0.950 . S
C1146 C1132 1.377 . S
C1146 C1145 1.373 . S
C1147 C1131 1.377 . S
C1147 C1145 1.389 . S
C1147 C1148 1.524 . S
C1148 C1147 1.524 . S
C1148 C1149 1.397 . S
C1148 C1153 1.363 . S
C1149 H1120 0.950 . S
C1149 C1148 1.397 . S
C1149 C1150 1.334 . S
C1150 H1121 0.950 . S
C1150 C1149 1.334 . S
C1150 C1151 1.287 . S
C1151 C1150 1.287 . S
C1151 C1152 1.524 . S
C1151 H1154 0.999 . S
C1152 H1122 0.950 . S
C1152 C1151 1.524 . S
C1152 C1153 1.415 . S
C1153 H1123 0.950 . S
C1153 C1148 1.363 . S
C1153 C1152 1.415 . S
H1154 C1151 0.999 . S
H1155 C1136 0.913 . S
H1156 C1174 0.951 . S
H1157 C1176 0.951 . S
H1158 C1178 0.950 . S
H1159 C1179 0.950 . S
H1160 C1181 0.950 . S
H1161 C1184 0.950 . S
H1162 C1185 0.950 . S
H1163 C1187 0.950 . S
H1164 C1188 0.950 . S
H1165 C1189 0.951 . S
H1166 C1191 0.951 . S
H1167 C1193 0.950 . S
H1168 C1194 0.950 . S
H1169 C1196 0.950 . S
H1170 C1199 0.950 . S
H1171 C1200 0.950 . S
H1172 C1202 0.950 . S
H1173 C1203 0.950 . S
C1174 H1156 0.951 . S
C1174 C1175 1.366 . S
C1174 C1176 1.388 . S
C1175 C1174 1.366 . S
C1175 C1179 1.385 . S
C1176 H1157 0.951 . S
C1176 C1174 1.388 . S
C1176 C1177 1.366 . S
C1177 C1176 1.366 . S
C1177 C1178 1.414 . S
C1177 C1180 1.499 . S
C1178 H1158 0.950 . S
C1178 C1177 1.414 . S
C1178 C1179 1.374 . S
C1179 H1159 0.950 . S
C1179 C1175 1.385 . S
C1179 C1178 1.374 . S
C1180 C1177 1.499 . S
C1180 C1181 1.373 . S
C1180 C1182 1.389 . S
C1181 H1160 0.950 . S
C1181 C1180 1.373 . S
C1181 C1197 1.377 . S
C1182 C1180 1.389 . S
C1182 C1183 1.524 . S
C1182 C1196 1.377 . S
C1183 C1182 1.524 . S
C1183 C1184 1.397 . S
C1183 C1188 1.363 . S
C1184 H1161 0.950 . S
C1184 C1183 1.397 . S
C1184 C1185 1.334 . S
C1185 H1162 0.950 . S
C1185 C1184 1.334 . S
C1185 C1186 1.287 . S
C1186 C1185 1.287 . S
C1186 C1187 1.524 . S
C1186 H1205 0.913 . S
C1187 H1163 0.950 . S
C1187 C1186 1.524 . S
C1187 C1188 1.415 . S
C1188 H1164 0.950 . S
C1188 C1183 1.363 . S
C1188 C1187 1.415 . S
C1189 H1165 0.951 . S
C1189 C1190 1.366 . S
C1189 C1191 1.388 . S
C1190 C1189 1.366 . S
C1190 C1194 1.385 . S
C1191 H1166 0.951 . S
C1191 C1189 1.388 . S
C1191 C1192 1.366 . S
C1192 C1191 1.366 . S
C1192 C1193 1.414 . S
C1192 C1195 1.499 . S
C1193 H1167 0.950 . S
C1193 C1192 1.414 . S
C1193 C1194 1.374 . S
C1194 H1168 0.950 . S
C1194 C1190 1.385 . S
C1194 C1193 1.374 . S
C1195 C1192 1.499 . S
C1195 C1196 1.373 . S
C1195 C1197 1.389 . S
C1196 H1169 0.950 . S
C1196 C1182 1.377 . S
C1196 C1195 1.373 . S
C1197 C1181 1.377 . S
C1197 C1195 1.389 . S
C1197 C1198 1.524 . S
C1198 C1197 1.524 . S
C1198 C1199 1.397 . S
C1198 C1203 1.363 . S
C1199 H1170 0.950 . S
C1199 C1198 1.397 . S
C1199 C1200 1.334 . S
C1200 H1171 0.950 . S
C1200 C1199 1.334 . S
C1200 C1201 1.287 . S
C1201 C1200 1.287 . S
C1201 C1202 1.524 . S
C1201 H1204 0.999 . S
C1202 H1172 0.950 . S
C1202 C1201 1.524 . S
C1202 C1203 1.415 . S
C1203 H1173 0.950 . S
C1203 C1198 1.363 . S
C1203 C1202 1.415 . S
H1204 C1201 0.999 . S
H1205 C1186 0.913 . S
H1206 C1224 0.951 . S
H1207 C1226 0.951 . S
H1208 C1228 0.950 . S
H1209 C1229 0.950 . S
H1210 C1231 0.950 . S
H1211 C1234 0.950 . S
H1212 C1235 0.950 . S
H1213 C1237 0.950 . S
H1214 C1238 0.950 . S
H1215 C1239 0.951 . S
H1216 C1241 0.951 . S
H1217 C1243 0.950 . S
H1218 C1244 0.950 . S
H1219 C1246 0.950 . S
H1220 C1249 0.950 . S
H1221 C1250 0.950 . S
H1222 C1252 0.950 . S
H1223 C1253 0.950 . S
C1224 H1206 0.951 . S
C1224 C1225 1.366 . S
C1224 C1226 1.388 . S
C1225 C1224 1.366 . S
C1225 C1229 1.385 . S
C1226 H1207 0.951 . S
C1226 C1224 1.388 . S
C1226 C1227 1.366 . S
C1227 C1226 1.366 . S
C1227 C1228 1.414 . S
C1227 C1230 1.499 . S
C1228 H1208 0.950 . S
C1228 C1227 1.414 . S
C1228 C1229 1.374 . S
C1229 H1209 0.950 . S
C1229 C1225 1.385 . S
C1229 C1228 1.374 . S
C1230 C1227 1.499 . S
C1230 C1231 1.373 . S
C1230 C1232 1.389 . S
C1231 H1210 0.950 . S
C1231 C1230 1.373 . S
C1231 C1247 1.377 . S
C1232 C1230 1.389 . S
C1232 C1233 1.524 . S
C1232 C1246 1.377 . S
C1233 C1232 1.524 . S
C1233 C1234 1.397 . S
C1233 C1238 1.363 . S
C1234 H1211 0.950 . S
C1234 C1233 1.397 . S
C1234 C1235 1.334 . S
C1235 H1212 0.950 . S
C1235 C1234 1.334 . S
C1235 C1236 1.287 . S
C1236 C1235 1.287 . S
C1236 C1237 1.524 . S
C1236 H1255 0.913 . S
C1237 H1213 0.950 . S
C1237 C1236 1.524 . S
C1237 C1238 1.415 . S
C1238 H1214 0.950 . S
C1238 C1233 1.363 . S
C1238 C1237 1.415 . S
C1239 H1215 0.951 . S
C1239 C1240 1.366 . S
C1239 C1241 1.388 . S
C1240 C1239 1.366 . S
C1240 C1244 1.385 . S
C1241 H1216 0.951 . S
C1241 C1239 1.388 . S
C1241 C1242 1.366 . S
C1242 C1241 1.366 . S
C1242 C1243 1.414 . S
C1242 C1245 1.499 . S
C1243 H1217 0.950 . S
C1243 C1242 1.414 . S
C1243 C1244 1.374 . S
C1244 H1218 0.950 . S
C1244 C1240 1.385 . S
C1244 C1243 1.374 . S
C1245 C1242 1.499 . S
C1245 C1246 1.373 . S
C1245 C1247 1.389 . S
C1246 H1219 0.950 . S
C1246 C1232 1.377 . S
C1246 C1245 1.373 . S
C1247 C1231 1.377 . S
C1247 C1245 1.389 . S
C1247 C1248 1.524 . S
C1248 C1247 1.524 . S
C1248 C1249 1.397 . S
C1248 C1253 1.363 . S
C1249 H1220 0.950 . S
C1249 C1248 1.397 . S
C1249 C1250 1.334 . S
C1250 H1221 0.950 . S
C1250 C1249 1.334 . S
C1250 C1251 1.287 . S
C1251 C1250 1.287 . S
C1251 C1252 1.524 . S
C1251 H1254 0.999 . S
C1252 H1222 0.950 . S
C1252 C1251 1.524 . S
C1252 C1253 1.415 . S
C1253 H1223 0.950 . S
C1253 C1248 1.363 . S
C1253 C1252 1.415 . S
H1254 C1251 0.999 . S
H1255 C1236 0.913 . S
H1256 C1274 0.951 . S
H1257 C1276 0.951 . S
H1258 C1278 0.950 . S
H1259 C1279 0.950 . S
H1260 C1281 0.950 . S
H1261 C1284 0.950 . S
H1262 C1285 0.950 . S
H1263 C1287 0.950 . S
H1264 C1288 0.950 . S
H1265 C1289 0.951 . S
H1266 C1291 0.951 . S
H1267 C1293 0.950 . S
H1268 C1294 0.950 . S
H1269 C1296 0.950 . S
H1270 C1299 0.950 . S
H1271 C1300 0.950 . S
H1272 C1302 0.950 . S
H1273 C1303 0.950 . S
C1274 H1256 0.951 . S
C1274 C1275 1.366 . S
C1274 C1276 1.388 . S
C1275 C1274 1.366 . S
C1275 C1279 1.385 . S
C1276 H1257 0.951 . S
C1276 C1274 1.388 . S
C1276 C1277 1.366 . S
C1277 C1276 1.366 . S
C1277 C1278 1.414 . S
C1277 C1280 1.499 . S
C1278 H1258 0.950 . S
C1278 C1277 1.414 . S
C1278 C1279 1.374 . S
C1279 H1259 0.950 . S
C1279 C1275 1.385 . S
C1279 C1278 1.374 . S
C1280 C1277 1.499 . S
C1280 C1281 1.373 . S
C1280 C1282 1.389 . S
C1281 H1260 0.950 . S
C1281 C1280 1.373 . S
C1281 C1297 1.377 . S
C1282 C1280 1.389 . S
C1282 C1283 1.524 . S
C1282 C1296 1.377 . S
C1283 C1282 1.524 . S
C1283 C1284 1.397 . S
C1283 C1288 1.363 . S
C1284 H1261 0.950 . S
C1284 C1283 1.397 . S
C1284 C1285 1.334 . S
C1285 H1262 0.950 . S
C1285 C1284 1.334 . S
C1285 C1286 1.287 . S
C1286 C1285 1.287 . S
C1286 C1287 1.524 . S
C1286 H1305 0.913 . S
C1287 H1263 0.950 . S
C1287 C1286 1.524 . S
C1287 C1288 1.415 . S
C1288 H1264 0.950 . S
C1288 C1283 1.363 . S
C1288 C1287 1.415 . S
C1289 H1265 0.951 . S
C1289 C1290 1.366 . S
C1289 C1291 1.388 . S
C1290 C1289 1.366 . S
C1290 C1294 1.385 . S
C1291 H1266 0.951 . S
C1291 C1289 1.388 . S
C1291 C1292 1.366 . S
C1292 C1291 1.366 . S
C1292 C1293 1.414 . S
C1292 C1295 1.499 . S
C1293 H1267 0.950 . S
C1293 C1292 1.414 . S
C1293 C1294 1.374 . S
C1294 H1268 0.950 . S
C1294 C1290 1.385 . S
C1294 C1293 1.374 . S
C1295 C1292 1.499 . S
C1295 C1296 1.373 . S
C1295 C1297 1.389 . S
C1296 H1269 0.950 . S
C1296 C1282 1.377 . S
C1296 C1295 1.373 . S
C1297 C1281 1.377 . S
C1297 C1295 1.389 . S
C1297 C1298 1.524 . S
C1298 C1297 1.524 . S
C1298 C1299 1.397 . S
C1298 C1303 1.363 . S
C1299 H1270 0.950 . S
C1299 C1298 1.397 . S
C1299 C1300 1.334 . S
C1300 H1271 0.950 . S
C1300 C1299 1.334 . S
C1300 C1301 1.287 . S
C1301 C1300 1.287 . S
C1301 C1302 1.524 . S
C1301 H1304 0.999 . S
C1302 H1272 0.950 . S
C1302 C1301 1.524 . S
C1302 C1303 1.415 . S
C1303 H1273 0.950 . S
C1303 C1298 1.363 . S
C1303 C1302 1.415 . S
H1304 C1301 0.999 . S
H1305 C1286 0.913 . S
H1306 C1324 0.951 . S
H1307 C1326 0.951 . S
H1308 C1328 0.950 . S
H1309 C1329 0.950 . S
H1310 C1331 0.950 . S
H1311 C1334 0.950 . S
H1312 C1335 0.950 . S
H1313 C1337 0.950 . S
H1314 C1338 0.950 . S
H1315 C1339 0.951 . S
H1316 C1341 0.951 . S
H1317 C1343 0.950 . S
H1318 C1344 0.950 . S
H1319 C1346 0.950 . S
H1320 C1349 0.950 . S
H1321 C1350 0.950 . S
H1322 C1352 0.950 . S
H1323 C1353 0.950 . S
C1324 H1306 0.951 . S
C1324 C1325 1.366 . S
C1324 C1326 1.388 . S
C1325 C1324 1.366 . S
C1325 C1329 1.385 . S
C1326 H1307 0.951 . S
C1326 C1324 1.388 . S
C1326 C1327 1.366 . S
C1327 C1326 1.366 . S
C1327 C1328 1.414 . S
C1327 C1330 1.499 . S
C1328 H1308 0.950 . S
C1328 C1327 1.414 . S
C1328 C1329 1.374 . S
C1329 H1309 0.950 . S
C1329 C1325 1.385 . S
C1329 C1328 1.374 . S
C1330 C1327 1.499 . S
C1330 C1331 1.373 . S
C1330 C1332 1.389 . S
C1331 H1310 0.950 . S
C1331 C1330 1.373 . S
C1331 C1347 1.377 . S
C1332 C1330 1.389 . S
C1332 C1333 1.524 . S
C1332 C1346 1.377 . S
C1333 C1332 1.524 . S
C1333 C1334 1.397 . S
C1333 C1338 1.363 . S
C1334 H1311 0.950 . S
C1334 C1333 1.397 . S
C1334 C1335 1.334 . S
C1335 H1312 0.950 . S
C1335 C1334 1.334 . S
C1335 C1336 1.287 . S
C1336 C1335 1.287 . S
C1336 C1337 1.524 . S
C1336 H1355 0.913 . S
C1337 H1313 0.950 . S
C1337 C1336 1.524 . S
C1337 C1338 1.415 . S
C1338 H1314 0.950 . S
C1338 C1333 1.363 . S
C1338 C1337 1.415 . S
C1339 H1315 0.951 . S
C1339 C1340 1.366 . S
C1339 C1341 1.388 . S
C1340 C1339 1.366 . S
C1340 C1344 1.385 . S
C1341 H1316 0.951 . S
C1341 C1339 1.388 . S
C1341 C1342 1.366 . S
C1342 C1341 1.366 . S
C1342 C1343 1.414 . S
C1342 C1345 1.499 . S
C1343 H1317 0.950 . S
C1343 C1342 1.414 . S
C1343 C1344 1.374 . S
C1344 H1318 0.950 . S
C1344 C1340 1.385 . S
C1344 C1343 1.374 . S
C1345 C1342 1.499 . S
C1345 C1346 1.373 . S
C1345 C1347 1.389 . S
C1346 H1319 0.950 . S
C1346 C1332 1.377 . S
C1346 C1345 1.373 . S
C1347 C1331 1.377 . S
C1347 C1345 1.389 . S
C1347 C1348 1.524 . S
C1348 C1347 1.524 . S
C1348 C1349 1.397 . S
C1348 C1353 1.363 . S
C1349 H1320 0.950 . S
C1349 C1348 1.397 . S
C1349 C1350 1.334 . S
C1350 H1321 0.950 . S
C1350 C1349 1.334 . S
C1350 C1351 1.287 . S
C1351 C1350 1.287 . S
C1351 C1352 1.524 . S
C1351 H1354 0.999 . S
C1352 H1322 0.950 . S
C1352 C1351 1.524 . S
C1352 C1353 1.415 . S
C1353 H1323 0.950 . S
C1353 C1348 1.363 . S
C1353 C1352 1.415 . S
H1354 C1351 0.999 . S
H1355 C1336 0.913 . S
C175 C5 1.595 . S
C190 C68 1.595 . S
C225 C17 1.576 . S
C240 C62 1.576 . S
C275 C70 1.581 . S
C290 C30 1.578 . S
C325 C42 1.594 . S
C340 C56 1.590 . S
C375 C96 1.581 . S
C390 C36 1.577 . S
C425 C82 1.590 . S
C440 C44 1.593 . S
C475 C3 1.595 . S
C490 C94 1.595 . S
C525 C88 1.576 . S
C540 C23 1.576 . S
C575 C122 1.601 . S
C590 C107 1.601 . S
C625 C109 1.587 . S
C640 C153 1.584 . S
C675 C120 1.587 . S
C690 C140 1.584 . S
C725 C134 1.569 . S
C740 C147 1.569 . S
C775 C148 1.595 . S
C790 C83 1.595 . S
C825 C108 1.576 . S
C840 C101 1.576 . S
C875 C81 1.581 . S
C890 C121 1.578 . S
C925 C95 1.590 . S
C940 C133 1.594 . S
C975 C57 1.581 . S
C990 C127 1.578 . S
C1025 C75 1.590 . S
C1040 C135 1.593 . S
C1075 C146 1.595 . S
C1090 C55 1.595 . S
C1125 C114 1.576 . S
C1140 C69 1.576 . S
C1175 C16 1.601 . S
C1190 C31 1.601 . S
C1225 C10 1.584 . S
C1240 C18 1.587 . S
C1275 C29 1.587 . S
C1290 C49 1.583 . S
C1325 C4 1.570 . S
C1340 C43 1.570 . S
