# Generated by pormake.
# Topology neb, (4)-cn, num edge types: 1
# Building blocks:
#     Node 0, Type 0, BuildingBlock: TATPOV_clean_sbu_0, # of connection points: 4
#     Node 1, Type 0, BuildingBlock: TATPOV_clean_sbu_0, # of connection points: 4
#     Node 2, Type 0, BuildingBlock: TATPOV_clean_sbu_0, # of connection points: 4
#     Node 3, Type 0, BuildingBlock: TATPOV_clean_sbu_0, # of connection points: 4
#     Node 4, Type 0, BuildingBlock: TATPOV_clean_sbu_0, # of connection points: 4
#     Node 5, Type 0, BuildingBlock: TATPOV_clean_sbu_0, # of connection points: 4
#     Node 6, Type 0, BuildingBlock: TATPOV_clean_sbu_0, # of connection points: 4
#     Node 7, Type 0, BuildingBlock: TATPOV_clean_sbu_0, # of connection points: 4
#     Node 8, Type 0, BuildingBlock: TATPOV_clean_sbu_0, # of connection points: 4
#     Node 9, Type 0, BuildingBlock: TATPOV_clean_sbu_0, # of connection points: 4
#     Node 10, Type 0, BuildingBlock: TATPOV_clean_sbu_0, # of connection points: 4
#     Node 11, Type 0, BuildingBlock: TATPOV_clean_sbu_0, # of connection points: 4
#     Node 12, Type 0, BuildingBlock: TATPOV_clean_sbu_0, # of connection points: 4
#     Node 13, Type 0, BuildingBlock: TATPOV_clean_sbu_0, # of connection points: 4
#     Node 14, Type 0, BuildingBlock: TATPOV_clean_sbu_0, # of connection points: 4
#     Node 15, Type 0, BuildingBlock: TATPOV_clean_sbu_0, # of connection points: 4
#     Edge 16, Type (0, 0), BuildingBlock: KIFKEQ_clean_linker_1, # of connection points: 2
#     Edge 17, Type (0, 0), BuildingBlock: KIFKEQ_clean_linker_1, # of connection points: 2
#     Edge 18, Type (0, 0), BuildingBlock: KIFKEQ_clean_linker_1, # of connection points: 2
#     Edge 19, Type (0, 0), BuildingBlock: KIFKEQ_clean_linker_1, # of connection points: 2
#     Edge 20, Type (0, 0), BuildingBlock: KIFKEQ_clean_linker_1, # of connection points: 2
#     Edge 21, Type (0, 0), BuildingBlock: KIFKEQ_clean_linker_1, # of connection points: 2
#     Edge 22, Type (0, 0), BuildingBlock: KIFKEQ_clean_linker_1, # of connection points: 2
#     Edge 23, Type (0, 0), BuildingBlock: KIFKEQ_clean_linker_1, # of connection points: 2
#     Edge 24, Type (0, 0), BuildingBlock: KIFKEQ_clean_linker_1, # of connection points: 2
#     Edge 25, Type (0, 0), BuildingBlock: KIFKEQ_clean_linker_1, # of connection points: 2
#     Edge 26, Type (0, 0), BuildingBlock: KIFKEQ_clean_linker_1, # of connection points: 2
#     Edge 27, Type (0, 0), BuildingBlock: KIFKEQ_clean_linker_1, # of connection points: 2
#     Edge 28, Type (0, 0), BuildingBlock: KIFKEQ_clean_linker_1, # of connection points: 2
#     Edge 29, Type (0, 0), BuildingBlock: KIFKEQ_clean_linker_1, # of connection points: 2
#     Edge 30, Type (0, 0), BuildingBlock: KIFKEQ_clean_linker_1, # of connection points: 2
#     Edge 31, Type (0, 0), BuildingBlock: KIFKEQ_clean_linker_1, # of connection points: 2
#     Edge 32, Type (0, 0), BuildingBlock: KIFKEQ_clean_linker_1, # of connection points: 2
#     Edge 33, Type (0, 0), BuildingBlock: KIFKEQ_clean_linker_1, # of connection points: 2
#     Edge 34, Type (0, 0), BuildingBlock: KIFKEQ_clean_linker_1, # of connection points: 2
#     Edge 35, Type (0, 0), BuildingBlock: KIFKEQ_clean_linker_1, # of connection points: 2
#     Edge 36, Type (0, 0), BuildingBlock: KIFKEQ_clean_linker_1, # of connection points: 2
#     Edge 37, Type (0, 0), BuildingBlock: KIFKEQ_clean_linker_1, # of connection points: 2
#     Edge 38, Type (0, 0), BuildingBlock: KIFKEQ_clean_linker_1, # of connection points: 2
#     Edge 39, Type (0, 0), BuildingBlock: KIFKEQ_clean_linker_1, # of connection points: 2
#     Edge 40, Type (0, 0), BuildingBlock: KIFKEQ_clean_linker_1, # of connection points: 2
#     Edge 41, Type (0, 0), BuildingBlock: KIFKEQ_clean_linker_1, # of connection points: 2
#     Edge 42, Type (0, 0), BuildingBlock: KIFKEQ_clean_linker_1, # of connection points: 2
#     Edge 43, Type (0, 0), BuildingBlock: KIFKEQ_clean_linker_1, # of connection points: 2
#     Edge 44, Type (0, 0), BuildingBlock: KIFKEQ_clean_linker_1, # of connection points: 2
#     Edge 45, Type (0, 0), BuildingBlock: KIFKEQ_clean_linker_1, # of connection points: 2
#     Edge 46, Type (0, 0), BuildingBlock: KIFKEQ_clean_linker_1, # of connection points: 2
#     Edge 47, Type (0, 0), BuildingBlock: KIFKEQ_clean_linker_1, # of connection points: 2
# Relax obj value: 0.060
# Max RMSD: 0.117
# Mean RMSD: 0.117
data_MOF--net-neb--node1-TATPOV_clean_sbu_0--edge1-KIFKEQ_clean_linker_1
_symmetry_space_group_name_H-M    P1
_symmetry_Int_Tables_number       1
_symmetry_cell_setting            triclinic
loop_
_symmetry_equiv_pos_as_xyz
'x, y, z'
_cell_length_a     45.333073
_cell_length_b     22.492249
_cell_length_c     70.684027
_cell_angle_alpha  89.681158
_cell_angle_beta   93.288522
_cell_angle_gamma 90.316711
loop_
_atom_site_label
_atom_site_type_symbol
_atom_site_fract_x
_atom_site_fract_y
_atom_site_fract_z
_atom_type_partial_charge
Zn0 Zn 0.22394 0.0241 0.432 0.0
Zn1 Zn 0.17587 0.02857 0.45235 0.0
O2 O 0.20785 0.07686 0.46796 0.0
O3 O 0.24671 0.07616 0.45065 0.0
O4 O 0.14058 0.0272 0.46903 0.0
O5 O 0.22565 0.93523 0.43364 0.0
O6 O 0.18322 0.93964 0.44717 0.0
C7 C 0.23433 0.09311 0.46526 0.0
C8 C 0.17347 0.08008 0.41232 0.0
O9 O 0.16135 0.07242 0.42801 0.0
O10 O 0.19953 0.06193 0.41037 0.0
C11 C 0.11781 -0.00445 0.46476 0.0
O12 O 0.11703 0.96424 0.4491 0.0
C13 C 0.20349 0.90923 0.44006 0.0
Zn14 Zn 0.07756 0.02372 0.83962 0.0
Zn15 Zn 0.12531 0.02943 0.81904 0.0
O16 O 0.09298 0.07691 0.80354 0.0
O17 O 0.05428 0.07501 0.82098 0.0
O18 O 0.15997 0.02842 0.80188 0.0
O19 O 0.0759 0.93485 0.83835 0.0
O20 O 0.11827 0.9404 0.82472 0.0
C21 C 0.06649 0.09236 0.80626 0.0
C22 C 0.12837 0.08102 0.8588 0.0
O23 O 0.14032 0.07383 0.84307 0.0
O24 O 0.10237 0.06216 0.86094 0.0
C25 C 0.18529 0.00905 0.80761 0.0
O26 O 0.18929 -0.00969 0.8252 0.0
C27 C 0.0981 0.90946 0.83201 0.0
Zn28 Zn 0.83525 0.96042 0.57909 0.0
Zn29 Zn 0.88527 0.95654 0.56119 0.0
O30 O 0.85431 0.90852 0.54458 0.0
O31 O 0.81266 0.91385 0.559 0.0
O32 O 0.92114 0.95928 0.54503 0.0
O33 O 0.83465 0.0489 0.5794 0.0
O34 O 0.87812 0.04546 0.56717 0.0
C35 C 0.82701 0.8951 0.54544 0.0
C36 C 0.88364 0.9007 0.60023 0.0
O37 O 0.89795 0.91064 0.5855 0.0
O38 O 0.85714 0.91793 0.60088 0.0
C39 C 0.94751 0.96769 0.55172 0.0
O40 O 0.9524 0.97389 0.57011 0.0
C41 C 0.85754 0.07527 0.57421 0.0
Zn42 Zn 0.96881 0.95941 0.18709 0.0
Zn43 Zn 0.91787 0.96534 0.20401 0.0
O44 O 0.94654 0.91846 0.2227 0.0
O45 O 0.98962 0.92262 0.20983 0.0
O46 O 0.88091 0.97814 0.21867 0.0
O47 O 0.97053 0.04668 0.18213 0.0
O48 O 0.92831 0.05131 0.19589 0.0
C49 C 0.97406 0.90613 0.22321 0.0
C50 C 0.92016 0.89556 0.16754 0.0
O51 O 0.90481 0.91544 0.18067 0.0
O52 O 0.94757 0.90695 0.16756 0.0
C53 C 0.86087 0.93923 0.22086 0.0
O54 O 0.86366 0.88632 0.21341 0.0
C55 C 0.94894 0.07676 0.18726 0.0
Zn56 Zn 0.21547 0.5237 0.93313 0.0
Zn57 Zn 0.16785 0.52783 0.95375 0.0
O58 O 0.2001 0.57583 0.96943 0.0
O59 O 0.23842 0.57555 0.95164 0.0
O60 O 0.1328 0.52272 0.9708 0.0
O61 O 0.21786 0.43502 0.93439 0.0
O62 O 0.17533 0.43934 0.94778 0.0
C63 C 0.22648 0.59222 0.96644 0.0
C64 C 0.16503 0.58051 0.91385 0.0
O65 O 0.15322 0.57322 0.92966 0.0
O66 O 0.19087 0.56157 0.91164 0.0
C67 C 0.10595 0.52944 0.96484 0.0
O68 O 0.10001 0.54236 0.94688 0.0
C69 C 0.19555 0.40899 0.94059 0.0
Zn70 Zn 0.08609 0.52353 0.33985 0.0
Zn71 Zn 0.13331 0.53108 0.31896 0.0
O72 O 0.10074 0.57973 0.304 0.0
O73 O 0.06252 0.57632 0.32184 0.0
O74 O 0.16784 0.53092 0.30165 0.0
O75 O 0.08423 0.43481 0.33794 0.0
O76 O 0.12639 0.44164 0.32414 0.0
C77 C 0.07436 0.59496 0.30714 0.0
C78 C 0.13699 0.58001 0.35909 0.0
O79 O 0.14862 0.57408 0.34319 0.0
O80 O 0.11113 0.56053 0.36132 0.0
C81 C 0.19294 0.5101 0.30723 0.0
O82 O 0.19664 0.48967 0.32466 0.0
C83 C 0.10636 0.41003 0.33131 0.0
Zn84 Zn 0.82701 0.45981 0.08163 0.0
Zn85 Zn 0.87749 0.46611 0.06424 0.0
O86 O 0.84801 0.41815 0.04634 0.0
O87 O 0.80521 0.42187 0.05952 0.0
O88 O 0.91371 0.47909 0.0487 0.0
O89 O 0.82543 0.54707 0.08616 0.0
O90 O 0.8676 0.55199 0.07231 0.0
C91 C 0.82052 0.4051 0.04616 0.0
C92 C 0.87617 0.39696 0.10103 0.0
O93 O 0.89125 0.41671 0.08764 0.0
O94 O 0.84881 0.40816 0.10122 0.0
C95 C 0.93527 0.44327 0.04793 0.0
O96 O 0.93483 0.39334 0.05765 0.0
C97 C 0.84714 0.57728 0.08094 0.0
Zn98 Zn 0.96705 0.46058 0.68428 0.0
Zn99 Zn 0.91323 0.45511 0.69861 0.0
O100 O 0.94125 0.40905 0.7178 0.0
O101 O 0.98568 0.42005 0.70715 0.0
O102 O 0.87352 0.45508 0.71079 0.0
O103 O 0.96527 0.54941 0.68237 0.0
O104 O 0.92085 0.54406 0.69333 0.0
C105 C 0.96903 0.39956 0.71941 0.0
C106 C 0.9231 0.396 0.66083 0.0
O107 O 0.9057 0.41018 0.67361 0.0
O108 O 0.95014 0.41083 0.66238 0.0
C109 C 0.87119 0.47749 0.72714 0.0
O110 O 0.89488 0.49985 0.73609 0.0
C111 C 0.94182 0.57471 0.68684 0.0
Zn112 Zn 0.71541 0.01416 0.93068 0.0
Zn113 Zn 0.66642 0.01853 0.94993 0.0
O114 O 0.69653 0.07012 0.96618 0.0
O115 O 0.73599 0.0689 0.94938 0.0
O116 O 0.62894 0.01102 0.96459 0.0
O117 O 0.71915 0.92583 0.93285 0.0
O118 O 0.67589 0.9301 0.9453 0.0
C119 C 0.72296 0.08714 0.96359 0.0
C120 C 0.66589 0.06769 0.90957 0.0
O121 O 0.65313 0.06114 0.92508 0.0
O122 O 0.69203 0.04925 0.90817 0.0
C123 C 0.62319 0.03738 0.97984 0.0
O124 O 0.64244 0.07547 0.98742 0.0
C125 C 0.69682 0.89968 0.93896 0.0
Zn126 Zn 0.58631 0.00717 0.34084 0.0
Zn127 Zn 0.63344 0.00693 0.31998 0.0
O128 O 0.60342 0.05955 0.30412 0.0
O129 O 0.56562 0.06269 0.32233 0.0
O130 O 0.66911 -0.0035 0.30397 0.0
O131 O 0.58017 0.91922 0.33948 0.0
O132 O 0.62239 0.91941 0.32566 0.0
C133 C 0.57776 0.0788 0.30744 0.0
C134 C 0.63863 0.05741 0.35995 0.0
O135 O 0.64982 0.04985 0.34399 0.0
O136 O 0.61236 0.04077 0.36237 0.0
C137 C 0.6806 0.03605 0.29371 0.0
O138 O 0.66897 0.08944 0.29279 0.0
C139 C 0.6013 0.891 0.3329 0.0
Zn140 Zn 0.33514 0.9568 0.08707 0.0
Zn141 Zn 0.3855 0.96016 0.06925 0.0
O142 O 0.35653 0.91213 0.05112 0.0
O143 O 0.31474 0.91249 0.06558 0.0
O144 O 0.42266 0.97333 0.05473 0.0
O145 O 0.33209 0.04472 0.08915 0.0
O146 O 0.37524 0.04671 0.07645 0.0
C147 C 0.32938 0.89709 0.05173 0.0
C148 C 0.38439 0.89781 0.10744 0.0
O149 O 0.39861 0.91132 0.09294 0.0
O150 O 0.35756 0.9126 0.10824 0.0
C151 C 0.43772 0.93302 0.04726 0.0
O152 O 0.42927 0.87727 0.04867 0.0
C153 C 0.35423 0.07373 0.08401 0.0
Zn154 Zn 0.46307 0.96839 0.68931 0.0
Zn155 Zn 0.41266 0.95911 0.70725 0.0
O156 O 0.44393 0.91148 0.72368 0.0
O157 O 0.48552 0.92059 0.70926 0.0
O158 O 0.37624 0.95764 0.72301 0.0
O159 O 0.46302 0.05717 0.68997 0.0
O160 O 0.41931 0.04874 0.70174 0.0
C161 C 0.47134 0.89976 0.72271 0.0
C162 C 0.41497 0.90751 0.66788 0.0
O163 O 0.4007 0.91492 0.68271 0.0
O164 O 0.44122 0.92686 0.66723 0.0
C165 C 0.35489 -0.0063 0.71996 0.0
O166 O 0.35595 0.03194 0.7059 0.0
C167 C 0.43968 0.08101 0.69522 0.0
Zn168 Zn 0.71716 0.50662 0.43054 0.0
Zn169 Zn 0.67063 0.50541 0.45193 0.0
O170 O 0.70125 0.55826 0.46717 0.0
O171 O 0.73857 0.56245 0.44857 0.0
O172 O 0.63612 0.49475 0.46894 0.0
O173 O 0.72312 0.41868 0.43216 0.0
O174 O 0.68122 0.41811 0.44635 0.0
C175 C 0.7268 0.57808 0.46356 0.0
C176 C 0.66429 0.55615 0.4119 0.0
O177 O 0.65347 0.54819 0.42799 0.0
O178 O 0.69046 0.54 0.40925 0.0
C179 C 0.61564 0.53246 0.47071 0.0
O180 O 0.6166 0.58316 0.46144 0.0
C181 C 0.7021 0.39009 0.43901 0.0
Zn182 Zn 0.58509 0.51384 0.83752 0.0
Zn183 Zn 0.6333 0.52221 0.81758 0.0
O184 O 0.6018 0.5712 0.8017 0.0
O185 O 0.56314 0.56803 0.81919 0.0
O186 O 0.67021 0.52436 0.80228 0.0
O187 O 0.58291 0.42542 0.8349 0.0
O188 O 0.62589 0.43238 0.8221 0.0
C189 C 0.57539 0.58675 0.80465 0.0
C190 C 0.63434 0.56919 0.85817 0.0
O191 O 0.64651 0.56422 0.84243 0.0
O192 O 0.60848 0.54908 0.85995 0.0
C193 C 0.67566 0.48444 0.79027 0.0
O194 O 0.65646 0.44111 0.78716 0.0
C195 C 0.60529 0.40067 0.82859 0.0
Zn196 Zn 0.33546 0.46709 0.58561 0.0
Zn197 Zn 0.3878 0.46404 0.56963 0.0
O198 O 0.35943 0.41638 0.55119 0.0
O199 O 0.31634 0.42084 0.56402 0.0
O200 O 0.42609 0.47298 0.55606 0.0
O201 O 0.334 0.5559 0.5861 0.0
O202 O 0.37873 0.55167 0.57572 0.0
C203 C 0.33201 0.40292 0.55096 0.0
C204 C 0.38245 0.40642 0.60814 0.0
O205 O 0.39807 0.41692 0.59403 0.0
O206 O 0.35587 0.42383 0.60793 0.0
C207 C 0.43738 0.4339 0.54576 0.0
O208 O 0.42424 0.38193 0.54369 0.0
C209 C 0.35751 0.58186 0.5818 0.0
Zn210 Zn 0.47199 0.45857 0.19019 0.0
Zn211 Zn 0.42057 0.45393 0.20734 0.0
O212 O 0.45122 0.40637 0.22442 0.0
O213 O 0.49404 0.41647 0.21153 0.0
O214 O 0.3838 0.45444 0.22284 0.0
O215 O 0.47107 0.54741 0.1884 0.0
O216 O 0.428 0.54268 0.20119 0.0
C217 C 0.47888 0.39565 0.22452 0.0
C218 C 0.42428 0.39514 0.16913 0.0
O219 O 0.40874 0.40902 0.18291 0.0
O220 O 0.45131 0.41005 0.16923 0.0
C221 C 0.36292 0.49163 0.21988 0.0
O222 O 0.36454 0.53036 0.206 0.0
C223 C 0.44822 0.573 0.19372 0.0
H224 H 0.36013 0.32463 0.52864 0.0
H225 H 0.27353 0.38706 0.54126 0.0
H226 H 0.33741 0.24742 0.50844 0.0
H227 H 0.25082 0.31172 0.52056 0.0
H228 H 0.21778 0.13261 0.49973 0.0
H229 H 0.24231 0.20781 0.51986 0.0
H230 H 0.31013 0.22744 0.47967 0.0
H231 H 0.28634 0.15084 0.46004 0.0
C232 C 0.33626 0.32265 0.52678 0.0
C233 C 0.31864 0.36175 0.5366 0.0
C234 C 0.32319 0.27835 0.5152 0.0
C235 C 0.29221 0.27268 0.51304 0.0
C236 C 0.2747 0.31357 0.52228 0.0
C237 C 0.28774 0.35727 0.53399 0.0
C238 C 0.23808 0.15259 0.49531 0.0
C239 C 0.25005 0.13567 0.47828 0.0
C240 C 0.25203 0.19617 0.50675 0.0
C241 C 0.27811 0.2243 0.50132 0.0
C242 C 0.29032 0.20642 0.48445 0.0
C243 C 0.27656 0.16251 0.47313 0.0
H244 H 1.00669 0.97665 0.56154 0.0
H245 H 0.94476 0.96804 0.51285 0.0
H246 H 0.0475 0.98358 0.54063 0.0
H247 H 0.9855 0.9766 0.49192 0.0
H248 H 0.0671 0.92947 0.46008 0.0
H249 H 0.02639 0.92254 0.48099 0.0
H250 H 0.07039 0.04911 0.51889 0.0
H251 H 0.11155 0.0549 0.49814 0.0
C252 C 1.00174 0.97652 0.54637 0.0
C253 C 0.97239 0.97167 0.53891 0.0
C254 C 1.02518 0.98092 0.53435 0.0
C255 C 1.01992 0.9808 0.51453 0.0
C256 C 0.99052 0.97598 0.50709 0.0
C257 C 0.96708 0.97136 0.51911 0.0
C258 C 0.06814 0.95592 0.47286 0.0
C259 C 0.09269 -0.00729 0.47741 0.0
C260 C 0.04463 0.9522 0.48483 0.0
C261 C 0.04496 0.98527 0.50169 0.0
C262 C 0.06949 0.02233 0.50618 0.0
C263 C 0.09305 0.02597 0.49421 0.0
H264 H 0.34341 0.9168 0.74899 0.0
H265 H 0.30898 0.07219 0.71931 0.0
H266 H 0.30217 0.91922 0.76969 0.0
H267 H 0.26834 0.07575 0.7403 0.0
H268 H 0.18352 0.03368 0.76949 0.0
H269 H 0.22376 0.0277 0.74813 0.0
H270 H 0.2833 0.97423 0.795 0.0
H271 H 0.24288 0.97848 0.81619 0.0
C272 C 0.3271 0.95159 0.7469 0.0
C273 C 0.32956 -0.00575 0.73245 0.0
C274 C 0.30351 0.95326 0.75887 0.0
C275 C 0.28181 -0.00221 0.75677 0.0
C276 C 0.28427 0.04023 0.74222 0.0
C277 C 0.30776 0.03839 0.73022 0.0
C278 C 0.2052 0.02064 0.77524 0.0
C279 C 0.2099 0.00657 0.79458 0.0
C280 C 0.22838 0.01748 0.76299 0.0
C281 C 0.25694 0.00046 0.76977 0.0
C282 C 0.26158 0.98655 0.78915 0.0
C283 C 0.23838 -0.01057 0.80137 0.0
H284 H 1.01322 0.14502 0.8107 0.0
H285 H 0.08393 0.13603 0.77234 0.0
H286 H 0.98918 0.22138 0.79097 0.0
H287 H 0.05928 0.21114 0.75219 0.0
H288 H 0.02694 0.38987 0.73138 0.0
H289 H 0.04945 0.31512 0.75246 0.0
H290 H 0.96313 0.241 0.76134 0.0
H291 H 0.94049 0.31738 0.74066 0.0
C292 C 1.02345 0.15869 0.7979 0.0
C293 C 0.05062 0.13452 0.79315 0.0
C294 C 1.00956 0.20245 0.78653 0.0
C295 C 1.02236 0.22291 0.77006 0.0
C296 C 0.0491 0.19741 0.76501 0.0
C297 C 0.06312 0.1539 0.77646 0.0
C298 C 1.01271 0.35809 0.73802 0.0
C299 C 0.98193 0.35941 0.73429 0.0
C300 C 0.02566 0.31477 0.74996 0.0
C301 C 1.0082 0.27123 0.75834 0.0
C302 C 0.97727 0.27397 0.7552 0.0
C303 C 0.96425 0.3178 0.74337 0.0
H304 H 0.76793 0.87526 0.53873 0.0
H305 H 0.85332 0.81819 0.52185 0.0
H306 H 0.74407 0.79863 0.519 0.0
H307 H 0.82961 0.73987 0.50269 0.0
H308 H 0.77627 0.6415 0.45631 0.0
H309 H 0.79996 0.71993 0.47507 0.0
H310 H 0.73671 0.69416 0.51792 0.0
H311 H 0.71208 0.61683 0.49862 0.0
C312 C 0.78162 0.84641 0.53074 0.0
C313 C 0.81253 0.85286 0.53183 0.0
C314 C 0.76794 0.80197 0.51958 0.0
C315 C 0.78486 0.76241 0.50939 0.0
C316 C 0.81578 0.76984 0.51015 0.0
C317 C 0.82944 0.81479 0.52115 0.0
C318 C 0.76743 0.65219 0.46979 0.0
C319 C 0.74221 0.62276 0.47596 0.0
C320 C 0.78118 0.69719 0.48062 0.0
C321 C 0.77032 0.71366 0.49804 0.0
C322 C 0.74539 0.68346 0.50441 0.0
C323 C 0.7314 0.6387 0.49344 0.0
H324 H 0.70975 0.10864 0.26958 0.0
H325 H 0.7114 0.93153 0.29355 0.0
H326 H 0.75289 0.08536 0.25196 0.0
H327 H 0.7549 0.9087 0.27628 0.0
H328 H 0.81361 0.86724 0.22757 0.0
H329 H 0.77019 0.89083 0.24483 0.0
H330 H 0.80516 0.06695 0.25612 0.0
H331 H 0.8483 0.04376 0.23848 0.0
C332 C 0.71936 0.06479 0.27117 0.0
C333 C 0.707 0.02198 0.28299 0.0
C334 C 0.74427 0.05153 0.26113 0.0
C335 C 0.75751 -0.00491 0.26266 0.0
C336 C 0.74512 0.95233 0.27451 0.0
C337 C 0.72021 0.96557 0.28452 0.0
C338 C 0.81207 0.91103 0.23372 0.0
C339 C 0.83452 0.95356 0.2316 0.0
C340 C 0.7872 0.92447 0.24374 0.0
C341 C 0.78407 0.98083 0.25194 0.0
C342 C 0.80656 0.02337 0.2498 0.0
C343 C 0.83144 0.00992 0.23977 0.0
H344 H 0.94646 0.82595 0.24563 0.0
H345 H 0.03244 0.89572 0.23378 0.0
H346 H 0.96987 0.74904 0.26573 0.0
H347 H 0.05582 0.82059 0.25435 0.0
H348 H 0.09029 0.64017 0.27304 0.0
H349 H 0.06511 0.71692 0.25383 0.0
H350 H 0.99751 0.72709 0.29439 0.0
H351 H 1.02198 0.64903 0.31313 0.0
C352 C 0.97032 0.82577 0.24771 0.0
C353 C 0.9876 0.86665 0.23804 0.0
C354 C 0.98379 0.78161 0.2592 0.0
C355 C 1.01482 0.77786 0.26143 0.0
C356 C 0.03194 0.82092 0.25254 0.0
C357 C 1.01851 0.86451 0.24092 0.0
C358 C 0.06991 0.6584 0.27774 0.0
C359 C 0.05821 0.6384 0.29462 0.0
C360 C 0.05559 0.70288 0.26684 0.0
C361 C 0.02939 0.72883 0.27265 0.0
C362 C 1.01743 0.70787 0.28935 0.0
C363 C 0.03158 0.6631 0.30015 0.0
H364 H 0.35591 0.82001 0.02818 0.0
H365 H 0.27052 0.88259 0.04324 0.0
H366 H 0.3318 0.74411 1.00807 0.0
H367 H 0.24638 0.80871 0.02263 0.0
H368 H 0.21144 0.63116 1.00137 0.0
H369 H 0.23714 0.70534 0.02136 0.0
H370 H 0.30305 0.7255 0.9799 0.0
H371 H 0.27818 0.64993 0.96045 0.0
C372 C 0.33199 0.81839 0.02686 0.0
C373 C 0.31513 0.85709 0.03734 0.0
C374 C 0.31811 0.77483 0.01534 0.0
C375 C 0.28706 0.76958 0.01389 0.0
C376 C 0.2703 0.81017 0.02378 0.0
C377 C 0.28415 0.85307 0.03545 0.0
C378 C 0.23156 0.65107 0.99664 0.0
C379 C 0.24271 0.63449 0.97932 0.0
C380 C 0.24619 0.69406 1.00801 0.0
C381 C 0.27212 0.72198 1.0022 0.0
C382 C 0.28343 0.70459 0.985 0.0
C383 C 0.26901 0.66126 0.97377 0.0
H384 H 0.10914 0.48713 1.00144 0.0
H385 H 0.04704 0.55031 0.95732 0.0
H386 H 0.06841 0.46831 0.02191 0.0
H387 H 1.00641 0.53093 0.97766 0.0
H388 H 0.94311 0.54187 0.02568 0.0
H389 H 0.98467 0.56506 1.0064 0.0
H390 H 0.02644 0.40026 0.02412 0.0
H391 H 0.9851 0.37741 0.0436 0.0
C392 C 0.08684 0.49722 0.99612 0.0
C393 C 0.08142 0.52017 0.9777 0.0
C394 C 0.06344 0.48604 1.00782 0.0
C395 C 0.03405 0.49793 1.00145 0.0
C396 C 0.02874 0.52179 0.98314 0.0
C397 C 0.05208 0.5326 0.97141 0.0
C398 C 0.96116 0.51057 0.0255 0.0
C399 C 0.96066 0.45769 0.03621 0.0
C400 C 0.98497 0.52377 0.01436 0.0
C401 C 1.00897 0.48455 0.01367 0.0
C402 C 1.00855 0.43189 0.02449 0.0
C403 C 0.98471 0.41859 0.03558 0.0
H404 H 0.35023 0.41394 0.24845 0.0
H405 H 0.318 0.57243 0.21954 0.0
H406 H 0.30888 0.41737 0.26903 0.0
H407 H 0.27725 0.57698 0.24044 0.0
H408 H 0.1917 0.53757 0.26929 0.0
H409 H 0.23199 0.53107 0.24798 0.0
H410 H 0.2906 0.47183 0.29459 0.0
H411 H 0.25012 0.47661 0.31571 0.0
C412 C 0.33438 0.44964 0.24651 0.0
C413 C 0.3375 0.49287 0.2323 0.0
C414 C 0.31073 0.45188 0.25841 0.0
C415 C 0.28961 0.49759 0.25651 0.0
C416 C 0.29271 0.5406 0.24221 0.0
C417 C 0.31627 0.53818 0.23025 0.0
C418 C 0.21318 0.52317 0.27499 0.0
C419 C 0.2176 0.5076 0.29424 0.0
C420 C 0.2364 0.51971 0.26277 0.0
C421 C 0.26471 0.50084 0.26948 0.0
C422 C 0.26907 0.48555 0.28878 0.0
C423 C 0.24584 0.48874 0.30096 0.0
H424 H 0.70525 0.13239 0.9972 0.0
H425 H 0.7747 0.14478 0.95792 0.0
H426 H 0.72938 0.2107 0.01635 0.0
H427 H 0.79792 0.2242 0.97643 0.0
H428 H 0.8481 0.32539 0.02415 0.0
H429 H 0.82497 0.24696 1.00473 0.0
H430 H 0.73872 0.31432 0.01632 0.0
H431 H 0.76192 0.39098 0.03634 0.0
C432 C 0.72562 0.15174 0.99266 0.0
C433 C 0.73803 0.13209 0.97606 0.0
C434 C 0.73934 0.19709 1.00352 0.0
C435 C 0.76559 0.22424 0.9979 0.0
C436 C 0.77805 0.20396 0.9814 0.0
C437 C 0.76457 0.15836 0.97071 0.0
C438 C 0.82423 0.32396 0.02228 0.0
C439 C 0.80686 0.36427 0.0318 0.0
C440 C 0.81089 0.2789 0.01116 0.0
C441 C 0.77987 0.27365 1.0091 0.0
C442 C 0.7626 0.31584 0.01796 0.0
C443 C 0.77592 0.36034 0.02925 0.0
H444 H 0.71962 0.56906 0.79219 0.0
H445 H 0.69551 0.40137 0.76596 0.0
H446 H 0.76611 0.56875 0.77642 0.0
H447 H 0.74223 0.40022 0.75063 0.0
H448 H 0.81685 0.4423 0.71185 0.0
H449 H 0.7694 0.44625 0.72644 0.0
H450 H 0.81264 0.51896 0.77731 0.0
H451 H 0.85982 0.51649 0.76256 0.0
C452 C 0.72423 0.53206 0.78309 0.0
C453 C 0.70376 0.48525 0.78037 0.0
C454 C 0.75102 0.53166 0.77412 0.0
C455 C 0.75811 0.48435 0.76225 0.0
C456 C 0.73746 0.43782 0.75943 0.0
C457 C 0.71067 0.43832 0.76834 0.0
C458 C 0.81622 0.45918 0.72614 0.0
C459 C 0.84221 0.47907 0.736 0.0
C460 C 0.78899 0.46118 0.73457 0.0
C461 C 0.78704 0.48297 0.7531 0.0
C462 C 0.8131 0.50281 0.76293 0.0
C463 C 0.84027 0.50097 0.75449 0.0
H464 H 0.60359 0.08624 0.01226 0.0
H465 H 0.57987 0.95688 0.969 0.0
H466 H 0.55894 0.06131 0.02834 0.0
H467 H 0.53498 0.9327 0.98491 0.0
H468 H 0.47492 0.85827 0.02964 0.0
H469 H 0.51923 0.88412 0.01333 0.0
H470 H 0.5056 0.06972 0.02531 0.0
H471 H 0.46157 0.04379 0.04191 0.0
C472 C 0.58879 0.05272 1.0061 0.0
C473 C 0.59544 0.02355 0.98932 0.0
C474 C 0.56305 0.03862 0.01528 0.0
C475 C 0.54328 -0.00513 1.00797 0.0
C476 C 0.54985 0.96601 0.99111 0.0
C477 C 0.57555 0.98021 0.9819 0.0
C478 C 0.48134 0.90462 0.0288 0.0
C479 C 0.46461 0.94888 0.03713 0.0
C480 C 0.5067 0.91951 0.01933 0.0
C481 C 0.51607 0.97908 0.01795 0.0
C482 C 0.49931 0.02334 0.02628 0.0
C483 C 0.47392 0.00846 0.03572 0.0
H484 H 0.45192 0.31497 0.24703 0.0
H485 H 0.53781 0.38001 0.23296 0.0
H486 H 0.47538 0.2367 0.26641 0.0
H487 H 0.56135 0.30329 0.25289 0.0
H488 H 0.59424 0.12165 0.27303 0.0
H489 H 0.56989 0.19907 0.25352 0.0
H490 H 0.50355 0.21641 0.29467 0.0
H491 H 0.52699 0.13801 0.3136 0.0
C492 C 0.47582 0.31334 0.24841 0.0
C493 C 0.49297 0.35365 0.23843 0.0
C494 C 0.48933 0.2684 0.25952 0.0
C495 C 0.52034 0.26315 0.2611 0.0
C496 C 0.53745 0.30495 0.25165 0.0
C497 C 0.52394 0.34943 0.24039 0.0
C498 C 0.5743 0.14166 0.27777 0.0
C499 C 0.56257 0.1234 0.29484 0.0
C500 C 0.56047 0.18647 0.2667 0.0
C501 C 0.53476 0.21435 0.27254 0.0
C502 C 0.52298 0.19551 0.28953 0.0
C503 C 0.53659 0.15053 0.30046 0.0
H504 H 0.53059 0.88459 0.72981 0.0
H505 H 0.44583 0.81794 0.74551 0.0
H506 H 0.55535 0.80858 0.74942 0.0
H507 H 0.47046 0.74016 0.76449 0.0
H508 H 0.52414 0.64363 0.81115 0.0
H509 H 0.49945 0.72065 0.79227 0.0
H510 H 0.56498 0.70537 0.75049 0.0
H511 H 0.59062 0.62958 0.76998 0.0
C512 C 0.51724 0.8537 0.7375 0.0
C513 C 0.48624 0.85739 0.73615 0.0
C514 C 0.53144 0.80962 0.74858 0.0
C515 C 0.51499 0.7676 0.75842 0.0
C516 C 0.48394 0.77209 0.75733 0.0
C517 C 0.46975 0.81672 0.74644 0.0
C518 C 0.53328 0.65631 0.79788 0.0
C519 C 0.55943 0.63033 0.79208 0.0
C520 C 0.51895 0.70049 0.78697 0.0
C521 C 0.53013 0.71953 0.76981 0.0
C522 C 0.55599 0.69268 0.76379 0.0
C523 C 0.57058 0.6488 0.77487 0.0
H524 H 0.46869 0.53853 0.54569 0.0
H525 H 0.46748 0.36087 0.52274 0.0
H526 H 0.51232 0.56213 0.5284 0.0
H527 H 0.51084 0.38482 0.50521 0.0
H528 H 0.60549 0.43001 0.49061 0.0
H529 H 0.56343 0.40627 0.50939 0.0
H530 H 0.52614 0.57883 0.49611 0.0
H531 H 0.56839 0.60296 0.4776 0.0
C532 C 0.47771 0.50444 0.53697 0.0
C533 C 0.46448 0.44777 0.53562 0.0
C534 C 0.50267 0.51813 0.52694 0.0
C535 C 0.51513 0.47548 0.51534 0.0
C536 C 0.50209 0.41858 0.51417 0.0
C537 C 0.47708 0.40493 0.52415 0.0
C538 C 0.58839 0.46302 0.49175 0.0
C539 C 0.59038 0.51844 0.48256 0.0
C540 C 0.56415 0.44923 0.50244 0.0
C541 C 0.54129 0.49054 0.50427 0.0
C542 C 0.54346 0.54618 0.49523 0.0
C543 C 0.56766 0.55991 0.48451 0.0
H544 H 0.18567 0.65189 0.35742 0.0
H545 H 0.12326 0.5833 0.39614 0.0
H546 H 0.20584 0.71859 0.38191 0.0
H547 H 0.14405 0.64866 0.42086 0.0
H548 H 0.15217 0.84574 0.4417 0.0
H549 H 0.14041 0.75319 0.42543 0.0
H550 H 0.23174 0.73549 0.41193 0.0
H551 H 0.24334 0.82937 0.42777 0.0
C552 C 0.17675 0.65 0.3713 0.0
C553 C 0.15252 0.61318 0.37472 0.0
C554 C 0.18847 0.68796 0.38544 0.0
C555 C 0.17636 0.68947 0.40335 0.0
C556 C 0.1535 0.64948 0.40713 0.0
C557 C 0.14164 0.61194 0.39296 0.0
C558 C 0.16995 0.82127 0.43579 0.0
C559 C 0.19854 0.84562 0.43565 0.0
C560 C 0.16323 0.76791 0.42645 0.0
C561 C 0.18502 0.73754 0.41696 0.0
C562 C 0.21428 0.75864 0.41864 0.0
C563 C 0.22097 0.81223 0.42786 0.0
H564 H 0.12429 0.14951 0.41361 0.0
H565 H 0.1882 0.0863 0.37547 0.0
H566 H 0.10417 0.21636 0.38904 0.0
H567 H 0.16745 0.15174 0.35064 0.0
H568 H 0.15811 0.34918 0.32985 0.0
H569 H 0.17025 0.25644 0.34607 0.0
H570 H 0.07879 0.23343 0.35892 0.0
H571 H 0.06681 0.32755 0.34315 0.0
C572 C 0.13357 0.14884 0.39983 0.0
C573 C 0.15817 0.11348 0.39661 0.0
C574 C 0.12189 0.18687 0.38564 0.0
C575 C 0.13438 0.18991 0.36786 0.0
C576 C 0.15768 0.15139 0.36426 0.0
C577 C 0.16952 0.1138 0.3785 0.0
C578 C 0.14039 0.32349 0.33559 0.0
C579 C 0.11164 0.34641 0.33559 0.0
C580 C 0.14734 0.27003 0.3449 0.0
C581 C 0.1256 0.2381 0.35422 0.0
C582 C 0.0962 0.25779 0.35235 0.0
C583 C 0.0893 0.31151 0.34318 0.0
H584 H 0.11453 0.08468 0.89582 0.0
H585 H 0.17698 0.15309 0.85709 0.0
H586 H 0.13542 0.14985 0.92055 0.0
H587 H 0.19722 0.21974 0.88159 0.0
H588 H 0.23511 0.32944 0.92776 0.0
H589 H 0.22323 0.23627 0.91156 0.0
H590 H 0.13203 0.2541 0.92535 0.0
H591 H 0.14407 0.34589 0.94197 0.0
C592 C 0.13291 0.11331 0.89263 0.0
C593 C 0.14381 0.11449 0.8744 0.0
C594 C 0.14484 0.15075 0.90681 0.0
C595 C 0.16774 0.19064 0.90304 0.0
C596 C 0.17981 0.18918 0.88512 0.0
C597 C 0.16806 0.15126 0.87097 0.0
C598 C 0.21271 0.31247 0.92783 0.0
C599 C 0.1904 0.34567 0.93583 0.0
C600 C 0.20586 0.25931 0.9184 0.0
C601 C 0.17655 0.23843 0.91672 0.0
C602 C 0.15488 0.26863 0.92637 0.0
C603 C 0.16177 0.32155 0.93591 0.0
H604 H 0.1165 0.65169 0.9155 0.0
H605 H 0.17885 0.58533 0.87683 0.0
H606 H 0.09629 0.71852 0.89092 0.0
H607 H 0.15802 0.65072 0.85203 0.0
H608 H 0.14955 0.84751 0.8306 0.0
H609 H 0.16152 0.75534 0.8472 0.0
H610 H 0.07028 0.73503 0.86088 0.0
H611 H 0.05845 0.82854 0.84469 0.0
C612 C 0.12541 0.65036 0.90162 0.0
C613 C 0.14963 0.61411 0.89823 0.0
C614 C 0.11368 0.68837 0.88743 0.0
C615 C 0.12574 0.69046 0.8695 0.0
C616 C 0.14861 0.6511 0.86577 0.0
C617 C 0.1605 0.61355 0.87999 0.0
C618 C 0.13183 0.82254 0.83662 0.0
C619 C 0.1032 0.84604 0.83669 0.0
C620 C 0.13868 0.76941 0.84615 0.0
C621 C 0.11697 0.73841 0.85578 0.0
C622 C 0.08767 0.75869 0.85406 0.0
C623 C 0.08086 0.81205 0.84464 0.0
H624 H 0.95483 0.3222 0.63964 0.0
H625 H 0.86688 0.39063 0.64469 0.0
H626 H 0.93676 0.25758 0.6142 0.0
H627 H 0.84882 0.32887 0.61819 0.0
H628 H 0.82257 0.14345 0.5953 0.0
H629 H 0.83728 0.23114 0.61288 0.0
H630 H 0.91855 0.23935 0.58368 0.0
H631 H 0.90449 0.14815 0.56693 0.0
C632 C 0.93166 0.32427 0.63499 0.0
C633 C 0.91216 0.36067 0.64433 0.0
C634 C 0.92128 0.28766 0.62017 0.0
C635 C 0.89118 0.28746 0.61401 0.0
C636 C 0.87199 0.32653 0.62277 0.0
C637 C 0.8823 0.36212 0.63793 0.0
C638 C 0.84334 0.16451 0.59227 0.0
C639 C 0.86272 0.13774 0.58007 0.0
C640 C 0.85177 0.2155 0.60234 0.0
C641 C 0.87958 0.24191 0.60018 0.0
C642 C 0.89746 0.21904 0.58628 0.0
C643 C 0.88925 0.16712 0.57646 0.0
H644 H 0.98252 0.65501 0.6751 0.0
H645 H 0.88969 0.63531 0.68475 0.0
H646 H 0.97215 0.74686 0.65759 0.0
H647 H 0.87923 0.72577 0.66682 0.0
H648 H 0.86501 0.89519 0.63615 0.0
H649 H 0.88288 0.83001 0.66185 0.0
H650 H 0.94971 0.76256 0.62647 0.0
H651 H 0.93244 0.8294 0.60101 0.0
C652 C 0.95998 0.67096 0.67386 0.0
C653 C 0.93684 0.63728 0.68101 0.0
C654 C 0.95403 0.72336 0.66368 0.0
C655 C 0.9248 0.74299 0.66039 0.0
C656 C 0.90204 0.71222 0.66909 0.0
C657 C 0.90803 0.66007 0.67938 0.0
C658 C 0.88381 0.86704 0.63396 0.0
C659 C 0.89704 0.86668 0.61645 0.0
C660 C 0.894 0.82959 0.64869 0.0
C661 C 0.91747 0.79044 0.64619 0.0
C662 C 0.93178 0.79256 0.62901 0.0
C663 C 0.92176 0.83056 0.61433 0.0
H664 H 0.88895 0.6594 0.07163 0.0
H665 H 0.8155 0.63312 0.10718 0.0
H666 H 0.90321 0.74855 0.08941 0.0
H667 H 0.83064 0.71942 0.12558 0.0
H668 H 0.94842 0.82453 0.14357 0.0
H669 H 0.92704 0.75998 0.1192 0.0
H670 H 0.83964 0.81993 0.13138 0.0
H671 H 0.86131 0.88284 0.15667 0.0
C672 C 0.87555 0.6732 0.08301 0.0
C673 C 0.85146 0.63848 0.08821 0.0
C674 C 0.88389 0.72396 0.09337 0.0
C675 C 0.86867 0.74033 0.10937 0.0
C676 C 0.84296 0.70859 0.1134 0.0
C677 C 0.83432 0.65859 0.10284 0.0
C678 C 0.92463 0.82429 0.14101 0.0
C679 C 0.90654 0.8584 0.15218 0.0
C680 C 0.91231 0.78768 0.1268 0.0
C681 C 0.88152 0.78475 0.12311 0.0
C682 C 0.86341 0.82035 0.13394 0.0
C683 C 0.87579 0.85647 0.14843 0.0
H684 H 0.98018 0.13247 0.16048 0.0
H685 H 0.90837 0.15943 0.1971 0.0
H686 H 0.96536 0.21959 0.14223 0.0
H687 H 0.8945 0.24938 0.17947 0.0
H688 H 0.9352 0.38368 0.1112 0.0
H689 H 0.95715 0.32037 0.1364 0.0
H690 H 0.86976 0.26174 0.15 0.0
H691 H 0.84816 0.32666 0.12573 0.0
C692 C 0.96182 0.15826 0.16508 0.0
C693 C 0.94499 0.13814 0.17997 0.0
C694 C 0.95337 0.20873 0.15461 0.0
C695 C 0.92819 0.24091 0.159 0.0
C696 C 0.91338 0.22447 0.17524 0.0
C697 C 0.9215 0.17324 0.1855 0.0
C698 C 0.92079 0.35755 0.11974 0.0
C699 C 0.88998 0.35991 0.11641 0.0
C700 C 0.93333 0.3212 0.13417 0.0
C701 C 0.9153 0.2858 0.14536 0.0
C702 C 0.88446 0.28926 0.14212 0.0
C703 C 0.872 0.32609 0.12796 0.0
H704 H 0.61919 0.57203 0.89499 0.0
H705 H 0.68312 0.64091 0.85735 0.0
H706 H 0.63915 0.63712 0.92006 0.0
H707 H 0.70242 0.70733 0.88213 0.0
H708 H 0.73768 0.82003 0.92778 0.0
H709 H 0.72713 0.72507 0.91235 0.0
H710 H 0.6352 0.74136 0.92459 0.0
H711 H 0.64591 0.83486 0.94049 0.0
C712 C 0.63772 0.60064 0.89213 0.0
C713 C 0.64927 0.60209 0.87408 0.0
C714 C 0.64912 0.63803 0.9065 0.0
C715 C 0.67215 0.67806 0.90309 0.0
C716 C 0.68491 0.67666 0.88539 0.0
C717 C 0.67368 0.63887 0.87107 0.0
C718 C 0.7154 0.80234 0.92771 0.0
C719 C 0.69249 0.83563 0.93498 0.0
C720 C 0.70932 0.74812 0.91873 0.0
C721 C 0.68019 0.72635 0.91675 0.0
C722 C 0.65792 0.75659 0.92583 0.0
C723 C 0.66405 0.81054 0.93495 0.0
H724 H 0.68262 0.07341 0.87311 0.0
H725 H 0.61661 0.13727 0.90967 0.0
H726 H 0.66363 0.1396 0.84795 0.0
H727 H 0.59821 0.20472 0.88477 0.0
H728 H 0.56442 0.31831 0.83863 0.0
H729 H 0.57482 0.22301 0.85407 0.0
H730 H 0.6674 0.24465 0.84392 0.0
H731 H 0.65686 0.33868 0.82802 0.0
C732 C 0.66382 0.10111 0.87571 0.0
C733 C 0.65141 0.10085 0.8935 0.0
C734 C 0.65299 0.13914 0.86128 0.0
C735 C 0.62965 0.17807 0.86437 0.0
C736 C 0.61601 0.17493 0.88176 0.0
C737 C 0.6267 0.13652 0.89614 0.0
C738 C 0.58685 0.30175 0.83916 0.0
C739 C 0.60994 0.33664 0.83248 0.0
C740 C 0.59283 0.24734 0.84815 0.0
C741 C 0.62204 0.22692 0.85072 0.0
C742 C 0.64462 0.25885 0.84221 0.0
C743 C 0.63859 0.31304 0.83309 0.0
H744 H 0.68636 0.1311 0.35725 0.0
H745 H 0.62781 0.05719 0.39748 0.0
H746 H 0.70699 0.19839 0.38142 0.0
H747 H 0.64921 0.12287 0.42192 0.0
H748 H 0.65327 0.32016 0.44238 0.0
H749 H 0.64337 0.22603 0.42673 0.0
H750 H 0.73385 0.21947 0.41059 0.0
H751 H 0.74349 0.31516 0.42578 0.0
C752 C 0.67851 0.12805 0.37141 0.0
C753 C 0.65507 0.0898 0.37536 0.0
C754 C 0.69048 0.16637 0.38537 0.0
C755 C 0.67948 0.16668 0.40361 0.0
C756 C 0.65773 0.12479 0.40793 0.0
C757 C 0.64552 0.08704 0.39392 0.0
C758 C 0.67134 0.29788 0.43601 0.0
C759 C 0.69895 0.32587 0.43492 0.0
C760 C 0.66569 0.24354 0.42704 0.0
C761 C 0.68765 0.21572 0.41697 0.0
C762 C 0.71622 0.24054 0.41775 0.0
C763 C 0.7218 0.29518 0.42659 0.0
H764 H 0.61696 0.62958 0.41495 0.0
H765 H 0.67422 0.55673 0.37425 0.0
H766 H 0.59632 0.69774 0.39091 0.0
H767 H 0.65283 0.62332 0.34995 0.0
H768 H 0.64982 0.82132 0.32953 0.0
H769 H 0.65941 0.72684 0.34526 0.0
H770 H 0.56911 0.71979 0.36181 0.0
H771 H 0.55977 0.81573 0.34651 0.0
C772 C 0.62451 0.62693 0.40071 0.0
C773 C 0.64762 0.58874 0.39659 0.0
C774 C 0.61253 0.66577 0.38684 0.0
C775 C 0.62322 0.66666 0.36851 0.0
C776 C 0.64458 0.62479 0.36402 0.0
C777 C 0.65677 0.58651 0.37794 0.0
C778 C 0.63172 0.79888 0.33601 0.0
C779 C 0.60425 0.82675 0.33715 0.0
C780 C 0.63719 0.74434 0.34502 0.0
C781 C 0.61519 0.71622 0.3552 0.0
C782 C 0.58676 0.74104 0.35454 0.0
C783 C 0.58135 0.79584 0.34563 0.0
H784 H 0.45368 0.32711 0.14491 0.0
H785 H 0.36596 0.38355 0.15719 0.0
H786 H 0.43316 0.2624 0.12028 0.0
H787 H 0.34515 0.32123 0.13154 0.0
H788 H 0.32152 0.13357 0.10873 0.0
H789 H 0.33612 0.22184 0.12616 0.0
H790 H 0.41016 0.24574 0.09081 0.0
H791 H 0.39647 0.15424 0.07413 0.0
C792 C 0.42995 0.32658 0.14204 0.0
C793 C 0.41139 0.35973 0.15316 0.0
C794 C 0.4181 0.28988 0.12768 0.0
C795 C 0.38736 0.28619 0.12377 0.0
C796 C 0.36887 0.32182 0.13434 0.0
C797 C 0.38075 0.35768 0.14902 0.0
C798 C 0.34056 0.15827 0.10434 0.0
C799 C 0.35829 0.13597 0.09035 0.0
C800 C 0.34891 0.2095 0.11434 0.0
C801 C 0.37487 0.24045 0.11032 0.0
C802 C 0.39065 0.22187 0.09481 0.0
C803 C 0.38264 0.16976 0.08506 0.0
H804 H 0.39589 0.63282 0.19267 0.0
H805 H 0.4877 0.65324 0.18043 0.0
H806 H 0.3839 0.72197 0.17448 0.0
H807 H 0.47587 0.74405 0.16271 0.0
H808 H 0.43331 0.82705 0.10717 0.0
H809 H 0.45193 0.75997 0.13223 0.0
H810 H 0.38634 0.82532 0.16891 0.0
H811 H 0.36706 0.89041 0.14359 0.0
C812 C 0.41372 0.65751 0.18668 0.0
C813 C 0.44264 0.63524 0.1877 0.0
C814 C 0.40685 0.70895 0.17622 0.0
C815 C 0.42884 0.73966 0.16675 0.0
C816 C 0.45827 0.72058 0.16937 0.0
C817 C 0.46509 0.66881 0.1797 0.0
C818 C 0.42318 0.8276 0.12068 0.0
C819 C 0.39843 0.86315 0.1233 0.0
C820 C 0.43397 0.78947 0.13514 0.0
C821 C 0.42045 0.78674 0.15259 0.0
C822 C 0.39687 0.82524 0.15554 0.0
C823 C 0.38587 0.86268 0.14103 0.0
H824 H 0.43401 0.90334 0.632 0.0
H825 H 0.36626 0.83505 0.66694 0.0
H826 H 0.41627 0.83851 0.60628 0.0
H827 H 0.34916 0.76868 0.64151 0.0
H828 H 0.31663 0.66101 0.59327 0.0
H829 H 0.32686 0.75311 0.61046 0.0
H830 H 0.41982 0.73461 0.6013 0.0
H831 H 0.40949 0.64403 0.58365 0.0
C832 C 0.41517 0.87476 0.63414 0.0
C833 C 0.4018 0.87362 0.65161 0.0
C834 C 0.40504 0.83751 0.6194 0.0
C835 C 0.38151 0.79782 0.62185 0.0
C836 C 0.36711 0.79913 0.63899 0.0
C837 C 0.37706 0.83687 0.65367 0.0
C838 C 0.33914 0.67761 0.59445 0.0
C839 C 0.36233 0.64459 0.58741 0.0
C840 C 0.34502 0.73015 0.60445 0.0
C841 C 0.37423 0.75054 0.60769 0.0
C842 C 0.39702 0.72048 0.59907 0.0
C843 C 0.39111 0.66822 0.58894 0.0
H844 H 0.35998 0.39666 0.64301 0.0
H845 H 0.43224 0.33794 0.61059 0.0
H846 H 0.3767 0.33182 0.6691 0.0
H847 H 0.44839 0.27149 0.63638 0.0
H848 H 0.4796 0.1656 0.68544 0.0
H849 H 0.46854 0.25724 0.66798 0.0
H850 H 0.3753 0.22764 0.67428 0.0
H851 H 0.38645 0.1375 0.69223 0.0
C852 C 0.37956 0.3701 0.64149 0.0
C853 C 0.39458 0.3718 0.62462 0.0
C854 C 0.3891 0.33283 0.65645 0.0
C855 C 0.41373 0.29594 0.65483 0.0
C856 C 0.42957 0.29983 0.63829 0.0
C857 C 0.42019 0.3376 0.62339 0.0
C858 C 0.45681 0.17973 0.68361 0.0
C859 C 0.43385 0.14373 0.68992 0.0
C860 C 0.45045 0.23196 0.67343 0.0
C861 C 0.421 0.24903 0.66925 0.0
C862 C 0.39826 0.21608 0.67722 0.0
C863 C 0.40465 0.16414 0.68755 0.0
loop_
_geom_bond_atom_site_label_1
_geom_bond_atom_site_label_2
_geom_bond_distance
_geom_bond_site_symmetry_2
_ccdc_geom_bond_type
Zn0 O3 2.031 . S
Zn0 O5 2.049 . S
Zn0 O10 2.067 . S
Zn1 O2 1.962 . S
Zn1 O4 1.986 . S
Zn1 O6 1.996 . S
Zn1 O9 1.943 . S
O2 Zn1 1.962 . S
O2 C7 1.254 . S
O3 Zn0 2.031 . S
O3 C7 1.269 . S
O4 Zn1 1.986 . S
O4 C11 1.262 . S
O5 Zn0 2.049 . S
O5 C13 1.260 . S
O6 Zn1 1.996 . S
O6 C13 1.257 . S
C7 O2 1.254 . S
C7 O3 1.269 . S
C8 O9 1.249 . S
C8 O10 1.270 . S
O9 Zn1 1.943 . S
O9 C8 1.249 . S
O10 Zn0 2.067 . S
O10 C8 1.270 . S
C11 O4 1.262 . S
C11 O12 1.232 . S
O12 C11 1.232 . S
C13 O5 1.260 . S
C13 O6 1.257 . S
Zn14 O17 2.031 . S
Zn14 O19 2.049 . S
Zn14 O24 2.067 . S
Zn15 O16 1.962 . S
Zn15 O18 1.986 . S
Zn15 O20 1.996 . S
Zn15 O23 1.943 . S
O16 Zn15 1.962 . S
O16 C21 1.254 . S
O17 Zn14 2.031 . S
O17 C21 1.269 . S
O18 Zn15 1.986 . S
O18 C25 1.262 . S
O19 Zn14 2.049 . S
O19 C27 1.260 . S
O20 Zn15 1.996 . S
O20 C27 1.257 . S
C21 O16 1.254 . S
C21 O17 1.269 . S
C22 O23 1.249 . S
C22 O24 1.270 . S
O23 Zn15 1.943 . S
O23 C22 1.249 . S
O24 Zn14 2.067 . S
O24 C22 1.270 . S
C25 O18 1.262 . S
C25 O26 1.232 . S
O26 C25 1.232 . S
C27 O19 1.260 . S
C27 O20 1.257 . S
Zn28 O31 2.031 . S
Zn28 O33 2.049 . S
Zn28 O38 2.067 . S
Zn29 O30 1.962 . S
Zn29 O32 1.986 . S
Zn29 O34 1.996 . S
Zn29 O37 1.943 . S
O30 Zn29 1.962 . S
O30 C35 1.254 . S
O31 Zn28 2.031 . S
O31 C35 1.269 . S
O32 Zn29 1.986 . S
O32 C39 1.262 . S
O33 Zn28 2.049 . S
O33 C41 1.260 . S
O34 Zn29 1.996 . S
O34 C41 1.257 . S
C35 O30 1.254 . S
C35 O31 1.269 . S
C36 O37 1.249 . S
C36 O38 1.270 . S
O37 Zn29 1.943 . S
O37 C36 1.249 . S
O38 Zn28 2.067 . S
O38 C36 1.270 . S
C39 O32 1.262 . S
C39 O40 1.232 . S
O40 C39 1.232 . S
C41 O33 1.260 . S
C41 O34 1.257 . S
Zn42 O45 2.031 . S
Zn42 O47 2.049 . S
Zn42 O52 2.067 . S
Zn43 O44 1.962 . S
Zn43 O46 1.986 . S
Zn43 O48 1.996 . S
Zn43 O51 1.943 . S
O44 Zn43 1.962 . S
O44 C49 1.254 . S
O45 Zn42 2.031 . S
O45 C49 1.269 . S
O46 Zn43 1.986 . S
O46 C53 1.262 . S
O47 Zn42 2.049 . S
O47 C55 1.260 . S
O48 Zn43 1.996 . S
O48 C55 1.257 . S
C49 O44 1.254 . S
C49 O45 1.269 . S
C50 O51 1.249 . S
C50 O52 1.270 . S
O51 Zn43 1.943 . S
O51 C50 1.249 . S
O52 Zn42 2.067 . S
O52 C50 1.270 . S
C53 O46 1.262 . S
C53 O54 1.232 . S
O54 C53 1.232 . S
C55 O47 1.260 . S
C55 O48 1.257 . S
Zn56 O59 2.031 . S
Zn56 O61 2.049 . S
Zn56 O66 2.067 . S
Zn57 O58 1.962 . S
Zn57 O60 1.986 . S
Zn57 O62 1.996 . S
Zn57 O65 1.943 . S
O58 Zn57 1.962 . S
O58 C63 1.254 . S
O59 Zn56 2.031 . S
O59 C63 1.269 . S
O60 Zn57 1.986 . S
O60 C67 1.262 . S
O61 Zn56 2.049 . S
O61 C69 1.260 . S
O62 Zn57 1.996 . S
O62 C69 1.257 . S
C63 O58 1.254 . S
C63 O59 1.269 . S
C64 O65 1.249 . S
C64 O66 1.270 . S
O65 Zn57 1.943 . S
O65 C64 1.249 . S
O66 Zn56 2.067 . S
O66 C64 1.270 . S
C67 O60 1.262 . S
C67 O68 1.232 . S
O68 C67 1.232 . S
C69 O61 1.260 . S
C69 O62 1.257 . S
Zn70 O73 2.031 . S
Zn70 O75 2.049 . S
Zn70 O80 2.067 . S
Zn71 O72 1.962 . S
Zn71 O74 1.986 . S
Zn71 O76 1.996 . S
Zn71 O79 1.943 . S
O72 Zn71 1.962 . S
O72 C77 1.254 . S
O73 Zn70 2.031 . S
O73 C77 1.269 . S
O74 Zn71 1.986 . S
O74 C81 1.262 . S
O75 Zn70 2.049 . S
O75 C83 1.260 . S
O76 Zn71 1.996 . S
O76 C83 1.257 . S
C77 O72 1.254 . S
C77 O73 1.269 . S
C78 O79 1.249 . S
C78 O80 1.270 . S
O79 Zn71 1.943 . S
O79 C78 1.249 . S
O80 Zn70 2.067 . S
O80 C78 1.270 . S
C81 O74 1.262 . S
C81 O82 1.232 . S
O82 C81 1.232 . S
C83 O75 1.260 . S
C83 O76 1.257 . S
Zn84 O87 2.031 . S
Zn84 O89 2.049 . S
Zn84 O94 2.067 . S
Zn85 O86 1.962 . S
Zn85 O88 1.986 . S
Zn85 O90 1.996 . S
Zn85 O93 1.943 . S
O86 Zn85 1.962 . S
O86 C91 1.254 . S
O87 Zn84 2.031 . S
O87 C91 1.269 . S
O88 Zn85 1.986 . S
O88 C95 1.262 . S
O89 Zn84 2.049 . S
O89 C97 1.260 . S
O90 Zn85 1.996 . S
O90 C97 1.257 . S
C91 O86 1.254 . S
C91 O87 1.269 . S
C92 O93 1.249 . S
C92 O94 1.270 . S
O93 Zn85 1.943 . S
O93 C92 1.249 . S
O94 Zn84 2.067 . S
O94 C92 1.270 . S
C95 O88 1.262 . S
C95 O96 1.232 . S
O96 C95 1.232 . S
C97 O89 1.260 . S
C97 O90 1.257 . S
Zn98 O101 2.031 . S
Zn98 O103 2.049 . S
Zn98 O108 2.067 . S
Zn99 O100 1.962 . S
Zn99 O102 1.986 . S
Zn99 O104 1.996 . S
Zn99 O107 1.943 . S
O100 Zn99 1.962 . S
O100 C105 1.254 . S
O101 Zn98 2.031 . S
O101 C105 1.269 . S
O102 Zn99 1.986 . S
O102 C109 1.262 . S
O103 Zn98 2.049 . S
O103 C111 1.260 . S
O104 Zn99 1.996 . S
O104 C111 1.257 . S
C105 O100 1.254 . S
C105 O101 1.269 . S
C106 O107 1.249 . S
C106 O108 1.270 . S
O107 Zn99 1.943 . S
O107 C106 1.249 . S
O108 Zn98 2.067 . S
O108 C106 1.270 . S
C109 O102 1.262 . S
C109 O110 1.232 . S
O110 C109 1.232 . S
C111 O103 1.260 . S
C111 O104 1.257 . S
Zn112 O115 2.031 . S
Zn112 O117 2.049 . S
Zn112 O122 2.067 . S
Zn113 O114 1.962 . S
Zn113 O116 1.986 . S
Zn113 O118 1.996 . S
Zn113 O121 1.943 . S
O114 Zn113 1.962 . S
O114 C119 1.254 . S
O115 Zn112 2.031 . S
O115 C119 1.269 . S
O116 Zn113 1.986 . S
O116 C123 1.262 . S
O117 Zn112 2.049 . S
O117 C125 1.260 . S
O118 Zn113 1.996 . S
O118 C125 1.257 . S
C119 O114 1.254 . S
C119 O115 1.269 . S
C120 O121 1.249 . S
C120 O122 1.270 . S
O121 Zn113 1.943 . S
O121 C120 1.249 . S
O122 Zn112 2.067 . S
O122 C120 1.270 . S
C123 O116 1.262 . S
C123 O124 1.232 . S
O124 C123 1.232 . S
C125 O117 1.260 . S
C125 O118 1.257 . S
Zn126 O129 2.031 . S
Zn126 O131 2.049 . S
Zn126 O136 2.067 . S
Zn127 O128 1.962 . S
Zn127 O130 1.986 . S
Zn127 O132 1.996 . S
Zn127 O135 1.943 . S
O128 Zn127 1.962 . S
O128 C133 1.254 . S
O129 Zn126 2.031 . S
O129 C133 1.269 . S
O130 Zn127 1.986 . S
O130 C137 1.262 . S
O131 Zn126 2.049 . S
O131 C139 1.260 . S
O132 Zn127 1.996 . S
O132 C139 1.257 . S
C133 O128 1.254 . S
C133 O129 1.269 . S
C134 O135 1.249 . S
C134 O136 1.270 . S
O135 Zn127 1.943 . S
O135 C134 1.249 . S
O136 Zn126 2.067 . S
O136 C134 1.270 . S
C137 O130 1.262 . S
C137 O138 1.232 . S
O138 C137 1.232 . S
C139 O131 1.260 . S
C139 O132 1.257 . S
Zn140 O143 2.031 . S
Zn140 O145 2.049 . S
Zn140 O150 2.067 . S
Zn141 O142 1.962 . S
Zn141 O144 1.986 . S
Zn141 O146 1.996 . S
Zn141 O149 1.943 . S
O142 Zn141 1.962 . S
O142 C147 1.254 . S
O143 Zn140 2.031 . S
O143 C147 1.269 . S
O144 Zn141 1.986 . S
O144 C151 1.262 . S
O145 Zn140 2.049 . S
O145 C153 1.260 . S
O146 Zn141 1.996 . S
O146 C153 1.257 . S
C147 O142 1.254 . S
C147 O143 1.269 . S
C148 O149 1.249 . S
C148 O150 1.270 . S
O149 Zn141 1.943 . S
O149 C148 1.249 . S
O150 Zn140 2.067 . S
O150 C148 1.270 . S
C151 O144 1.262 . S
C151 O152 1.232 . S
O152 C151 1.232 . S
C153 O145 1.260 . S
C153 O146 1.257 . S
Zn154 O157 2.031 . S
Zn154 O159 2.049 . S
Zn154 O164 2.067 . S
Zn155 O156 1.962 . S
Zn155 O158 1.986 . S
Zn155 O160 1.996 . S
Zn155 O163 1.943 . S
O156 Zn155 1.962 . S
O156 C161 1.254 . S
O157 Zn154 2.031 . S
O157 C161 1.269 . S
O158 Zn155 1.986 . S
O158 C165 1.262 . S
O159 Zn154 2.049 . S
O159 C167 1.260 . S
O160 Zn155 1.996 . S
O160 C167 1.257 . S
C161 O156 1.254 . S
C161 O157 1.269 . S
C162 O163 1.249 . S
C162 O164 1.270 . S
O163 Zn155 1.943 . S
O163 C162 1.249 . S
O164 Zn154 2.067 . S
O164 C162 1.270 . S
C165 O158 1.262 . S
C165 O166 1.232 . S
O166 C165 1.232 . S
C167 O159 1.260 . S
C167 O160 1.257 . S
Zn168 O171 2.031 . S
Zn168 O173 2.049 . S
Zn168 O178 2.067 . S
Zn169 O170 1.962 . S
Zn169 O172 1.986 . S
Zn169 O174 1.996 . S
Zn169 O177 1.943 . S
O170 Zn169 1.962 . S
O170 C175 1.254 . S
O171 Zn168 2.031 . S
O171 C175 1.269 . S
O172 Zn169 1.986 . S
O172 C179 1.262 . S
O173 Zn168 2.049 . S
O173 C181 1.260 . S
O174 Zn169 1.996 . S
O174 C181 1.257 . S
C175 O170 1.254 . S
C175 O171 1.269 . S
C176 O177 1.249 . S
C176 O178 1.270 . S
O177 Zn169 1.943 . S
O177 C176 1.249 . S
O178 Zn168 2.067 . S
O178 C176 1.270 . S
C179 O172 1.262 . S
C179 O180 1.232 . S
O180 C179 1.232 . S
C181 O173 1.260 . S
C181 O174 1.257 . S
Zn182 O185 2.031 . S
Zn182 O187 2.049 . S
Zn182 O192 2.067 . S
Zn183 O184 1.962 . S
Zn183 O186 1.986 . S
Zn183 O188 1.996 . S
Zn183 O191 1.943 . S
O184 Zn183 1.962 . S
O184 C189 1.254 . S
O185 Zn182 2.031 . S
O185 C189 1.269 . S
O186 Zn183 1.986 . S
O186 C193 1.262 . S
O187 Zn182 2.049 . S
O187 C195 1.260 . S
O188 Zn183 1.996 . S
O188 C195 1.257 . S
C189 O184 1.254 . S
C189 O185 1.269 . S
C190 O191 1.249 . S
C190 O192 1.270 . S
O191 Zn183 1.943 . S
O191 C190 1.249 . S
O192 Zn182 2.067 . S
O192 C190 1.270 . S
C193 O186 1.262 . S
C193 O194 1.232 . S
O194 C193 1.232 . S
C195 O187 1.260 . S
C195 O188 1.257 . S
Zn196 O199 2.031 . S
Zn196 O201 2.049 . S
Zn196 O206 2.067 . S
Zn197 O198 1.962 . S
Zn197 O200 1.986 . S
Zn197 O202 1.996 . S
Zn197 O205 1.943 . S
O198 Zn197 1.962 . S
O198 C203 1.254 . S
O199 Zn196 2.031 . S
O199 C203 1.269 . S
O200 Zn197 1.986 . S
O200 C207 1.262 . S
O201 Zn196 2.049 . S
O201 C209 1.260 . S
O202 Zn197 1.996 . S
O202 C209 1.257 . S
C203 O198 1.254 . S
C203 O199 1.269 . S
C204 O205 1.249 . S
C204 O206 1.270 . S
O205 Zn197 1.943 . S
O205 C204 1.249 . S
O206 Zn196 2.067 . S
O206 C204 1.270 . S
C207 O200 1.262 . S
C207 O208 1.232 . S
O208 C207 1.232 . S
C209 O201 1.260 . S
C209 O202 1.257 . S
Zn210 O213 2.031 . S
Zn210 O215 2.049 . S
Zn210 O220 2.067 . S
Zn211 O212 1.962 . S
Zn211 O214 1.986 . S
Zn211 O216 1.996 . S
Zn211 O219 1.943 . S
O212 Zn211 1.962 . S
O212 C217 1.254 . S
O213 Zn210 2.031 . S
O213 C217 1.269 . S
O214 Zn211 1.986 . S
O214 C221 1.262 . S
O215 Zn210 2.049 . S
O215 C223 1.260 . S
O216 Zn211 1.996 . S
O216 C223 1.257 . S
C217 O212 1.254 . S
C217 O213 1.269 . S
C218 O219 1.249 . S
C218 O220 1.270 . S
O219 Zn211 1.943 . S
O219 C218 1.249 . S
O220 Zn210 2.067 . S
O220 C218 1.270 . S
C221 O214 1.262 . S
C221 O222 1.232 . S
O222 C221 1.232 . S
C223 O215 1.260 . S
C223 O216 1.257 . S
H224 C232 0.950 . S
H225 C237 0.950 . S
H226 C234 0.950 . S
H227 C236 0.950 . S
H228 C238 0.950 . S
H229 C240 0.950 . S
H230 C242 0.950 . S
H231 C243 0.950 . S
C232 H224 0.950 . S
C232 C233 1.386 . S
C232 C234 1.391 . S
C233 C232 1.386 . S
C233 C237 1.393 . S
C234 H226 0.950 . S
C234 C232 1.391 . S
C234 C235 1.400 . S
C235 C234 1.400 . S
C235 C236 1.398 . S
C235 C241 1.491 . S
C236 H227 0.950 . S
C236 C235 1.398 . S
C236 C237 1.391 . S
C237 H225 0.950 . S
C237 C233 1.393 . S
C237 C236 1.391 . S
C238 H228 0.950 . S
C238 C239 1.386 . S
C238 C240 1.391 . S
C239 C238 1.386 . S
C239 C243 1.393 . S
C240 H229 0.950 . S
C240 C238 1.391 . S
C240 C241 1.400 . S
C241 C235 1.491 . S
C241 C240 1.400 . S
C241 C242 1.398 . S
C242 H230 0.950 . S
C242 C241 1.398 . S
C242 C243 1.391 . S
C243 H231 0.950 . S
C243 C239 1.393 . S
C243 C242 1.391 . S
H244 C252 0.950 . S
H245 C257 0.950 . S
H246 C254 0.950 . S
H247 C256 0.950 . S
H248 C258 0.950 . S
H249 C260 0.950 . S
H250 C262 0.950 . S
H251 C263 0.950 . S
C252 H244 0.950 . S
C252 C253 1.386 . S
C252 C254 1.391 . S
C253 C252 1.386 . S
C253 C257 1.393 1_565 S
C254 H246 0.950 . S
C254 C252 1.391 . S
C254 C255 1.400 . S
C255 C254 1.400 . S
C255 C256 1.398 1_565 S
C255 C261 1.491 1_665 S
C256 H247 0.950 . S
C256 C255 1.398 1_545 S
C256 C257 1.391 . S
C257 H245 0.950 . S
C257 C253 1.393 1_545 S
C257 C256 1.391 . S
C258 H248 0.950 . S
C258 C259 1.386 . S
C258 C260 1.391 . S
C259 C258 1.386 . S
C259 C263 1.393 1_545 S
C260 H249 0.950 . S
C260 C258 1.391 . S
C260 C261 1.400 . S
C261 C255 1.491 1_445 S
C261 C260 1.400 . S
C261 C262 1.398 1_545 S
C262 H250 0.950 . S
C262 C261 1.398 1_565 S
C262 C263 1.391 . S
C263 H251 0.950 . S
C263 C259 1.393 1_565 S
C263 C262 1.391 . S
H264 C272 0.941 1_545 S
H265 C277 0.950 . S
H266 C274 0.950 . S
H267 C276 0.950 . S
H268 C278 0.941 1_565 S
H269 C280 0.950 . S
H270 C282 0.950 . S
H271 C283 0.950 . S
C272 H264 0.941 1_565 S
C272 C273 1.400 . S
C272 C274 1.386 1_565 S
C273 C272 1.400 . S
C273 C277 1.393 . S
C274 H266 0.950 . S
C274 C272 1.386 1_545 S
C274 C275 1.400 1_545 S
C275 C274 1.400 1_565 S
C275 C276 1.398 . S
C275 C281 1.491 1_565 S
C276 H267 0.950 . S
C276 C275 1.398 . S
C276 C277 1.391 . S
C277 H265 0.950 . S
C277 C273 1.393 . S
C277 C276 1.391 . S
C278 H268 0.941 1_545 S
C278 C279 1.400 . S
C278 C280 1.386 1_545 S
C279 C278 1.400 . S
C279 C283 1.393 . S
C280 H269 0.950 . S
C280 C278 1.386 1_565 S
C280 C281 1.400 1_565 S
C281 C275 1.491 1_545 S
C281 C280 1.400 1_545 S
C281 C282 1.398 . S
C282 H270 0.950 . S
C282 C281 1.398 . S
C282 C283 1.391 . S
C283 H271 0.950 . S
C283 C279 1.393 . S
C283 C282 1.391 . S
H284 C292 0.950 . S
H285 C297 0.950 . S
H286 C294 0.950 . S
H287 C296 0.950 . S
H288 C298 0.950 . S
H289 C300 0.950 . S
H290 C302 0.950 . S
H291 C303 0.950 . S
C292 H284 0.950 . S
C292 C293 1.386 . S
C292 C294 1.391 . S
C293 C292 1.386 . S
C293 C297 1.393 . S
C294 H286 0.950 . S
C294 C292 1.391 . S
C294 C295 1.400 . S
C295 C294 1.400 . S
C295 C296 1.398 . S
C295 C301 1.491 1_455 S
C296 H287 0.950 . S
C296 C295 1.398 . S
C296 C297 1.391 . S
C297 H285 0.950 . S
C297 C293 1.393 . S
C297 C296 1.391 . S
C298 H288 0.950 . S
C298 C299 1.386 . S
C298 C300 1.391 . S
C299 C298 1.386 . S
C299 C303 1.393 . S
C300 H289 0.950 . S
C300 C298 1.391 . S
C300 C301 1.400 . S
C301 C295 1.491 1_655 S
C301 C300 1.400 . S
C301 C302 1.398 . S
C302 H290 0.950 . S
C302 C301 1.398 . S
C302 C303 1.391 . S
C303 H291 0.950 . S
C303 C299 1.393 . S
C303 C302 1.391 . S
H304 C312 0.950 . S
H305 C317 0.950 . S
H306 C314 0.950 . S
H307 C316 0.950 . S
H308 C318 0.950 . S
H309 C320 0.950 . S
H310 C322 0.950 . S
H311 C323 0.950 . S
C312 H304 0.950 . S
C312 C313 1.386 . S
C312 C314 1.391 . S
C313 C312 1.386 . S
C313 C317 1.393 . S
C314 H306 0.950 . S
C314 C312 1.391 . S
C314 C315 1.400 . S
C315 C314 1.400 . S
C315 C316 1.398 . S
C315 C321 1.491 . S
C316 H307 0.950 . S
C316 C315 1.398 . S
C316 C317 1.391 . S
C317 H305 0.950 . S
C317 C313 1.393 . S
C317 C316 1.391 . S
C318 H308 0.950 . S
C318 C319 1.386 . S
C318 C320 1.391 . S
C319 C318 1.386 . S
C319 C323 1.393 . S
C320 H309 0.950 . S
C320 C318 1.391 . S
C320 C321 1.400 . S
C321 C315 1.491 . S
C321 C320 1.400 . S
C321 C322 1.398 . S
C322 H310 0.950 . S
C322 C321 1.398 . S
C322 C323 1.391 . S
C323 H311 0.950 . S
C323 C319 1.393 . S
C323 C322 1.391 . S
H324 C332 0.950 . S
H325 C337 0.950 . S
H326 C334 0.950 . S
H327 C336 0.950 1_565 S
H328 C338 0.950 . S
H329 C340 0.950 . S
H330 C342 0.950 1_545 S
H331 C343 0.950 . S
C332 H324 0.950 . S
C332 C333 1.386 . S
C332 C334 1.391 . S
C333 C332 1.386 . S
C333 C337 1.393 . S
C334 H326 0.950 . S
C334 C332 1.391 . S
C334 C335 1.400 . S
C335 C334 1.400 . S
C335 C336 1.398 . S
C335 C341 1.491 1_545 S
C336 H327 0.950 1_545 S
C336 C335 1.398 . S
C336 C337 1.391 . S
C337 H325 0.950 . S
C337 C333 1.393 . S
C337 C336 1.391 . S
C338 H328 0.950 . S
C338 C339 1.386 . S
C338 C340 1.391 . S
C339 C338 1.386 . S
C339 C343 1.393 . S
C340 H329 0.950 . S
C340 C338 1.391 . S
C340 C341 1.400 . S
C341 C335 1.491 1_565 S
C341 C340 1.400 . S
C341 C342 1.398 . S
C342 H330 0.950 1_565 S
C342 C341 1.398 . S
C342 C343 1.391 . S
C343 H331 0.950 . S
C343 C339 1.393 . S
C343 C342 1.391 . S
H344 C352 0.950 . S
H345 C357 0.950 . S
H346 C354 0.950 . S
H347 C356 0.950 1_455 S
H348 C358 0.950 . S
H349 C360 0.950 . S
H350 C362 0.950 1_655 S
H351 C363 0.950 . S
C352 H344 0.950 . S
C352 C353 1.386 . S
C352 C354 1.391 . S
C353 C352 1.386 . S
C353 C357 1.393 . S
C354 H346 0.950 . S
C354 C352 1.391 . S
C354 C355 1.400 . S
C355 C354 1.400 . S
C355 C356 1.398 . S
C355 C361 1.491 1_655 S
C356 H347 0.950 1_655 S
C356 C355 1.398 . S
C356 C357 1.391 . S
C357 H345 0.950 . S
C357 C353 1.393 . S
C357 C356 1.391 . S
C358 H348 0.950 . S
C358 C359 1.386 . S
C358 C360 1.391 . S
C359 C358 1.386 . S
C359 C363 1.393 . S
C360 H349 0.950 . S
C360 C358 1.391 . S
C360 C361 1.400 . S
C361 C355 1.491 1_455 S
C361 C360 1.400 . S
C361 C362 1.398 . S
C362 H350 0.950 1_455 S
C362 C361 1.398 . S
C362 C363 1.391 . S
C363 H351 0.950 . S
C363 C359 1.393 . S
C363 C362 1.391 . S
H364 C372 0.950 . S
H365 C377 0.950 . S
H366 C374 0.914 1_556 S
H367 C376 0.950 . S
H368 C378 0.950 . S
H369 C380 0.914 1_554 S
H370 C382 0.950 . S
H371 C383 0.950 . S
C372 H364 0.950 . S
C372 C373 1.386 . S
C372 C374 1.412 . S
C373 C372 1.386 . S
C373 C377 1.393 . S
C374 H366 0.914 1_554 S
C374 C372 1.412 . S
C374 C375 1.416 . S
C375 C374 1.416 . S
C375 C376 1.398 . S
C375 C381 1.491 1_554 S
C376 H367 0.950 . S
C376 C375 1.398 . S
C376 C377 1.391 . S
C377 H365 0.950 . S
C377 C373 1.393 . S
C377 C376 1.391 . S
C378 H368 0.950 . S
C378 C379 1.386 . S
C378 C380 1.412 . S
C379 C378 1.386 . S
C379 C383 1.393 . S
C380 H369 0.914 1_556 S
C380 C378 1.412 . S
C380 C381 1.416 . S
C381 C375 1.491 1_556 S
C381 C380 1.416 . S
C381 C382 1.398 . S
C382 H370 0.950 . S
C382 C381 1.398 . S
C382 C383 1.391 . S
C383 H371 0.950 . S
C383 C379 1.393 . S
C383 C382 1.391 . S
H384 C392 0.950 . S
H385 C397 0.950 . S
H386 C394 0.950 . S
H387 C396 0.950 . S
H388 C398 0.950 . S
H389 C400 0.950 . S
H390 C402 0.950 . S
H391 C403 0.950 . S
C392 H384 0.950 . S
C392 C393 1.386 . S
C392 C394 1.391 . S
C393 C392 1.386 . S
C393 C397 1.393 . S
C394 H386 0.950 . S
C394 C392 1.391 . S
C394 C395 1.400 . S
C395 C394 1.400 . S
C395 C396 1.398 . S
C395 C401 1.491 1_456 S
C396 H387 0.950 . S
C396 C395 1.398 . S
C396 C397 1.391 . S
C397 H385 0.950 . S
C397 C393 1.393 . S
C397 C396 1.391 . S
C398 H388 0.950 . S
C398 C399 1.386 . S
C398 C400 1.391 . S
C399 C398 1.386 . S
C399 C403 1.393 . S
C400 H389 0.950 . S
C400 C398 1.391 . S
C400 C401 1.400 . S
C401 C395 1.491 1_654 S
C401 C400 1.400 . S
C401 C402 1.398 . S
C402 H390 0.950 . S
C402 C401 1.398 . S
C402 C403 1.391 . S
C403 H391 0.950 . S
C403 C399 1.393 . S
C403 C402 1.391 . S
H404 C412 0.950 . S
H405 C417 0.950 . S
H406 C414 0.950 . S
H407 C416 0.950 . S
H408 C418 0.950 . S
H409 C420 0.950 . S
H410 C422 0.950 . S
H411 C423 0.950 . S
C412 H404 0.950 . S
C412 C413 1.386 . S
C412 C414 1.391 . S
C413 C412 1.386 . S
C413 C417 1.393 . S
C414 H406 0.950 . S
C414 C412 1.391 . S
C414 C415 1.400 . S
C415 C414 1.400 . S
C415 C416 1.398 . S
C415 C421 1.491 . S
C416 H407 0.950 . S
C416 C415 1.398 . S
C416 C417 1.391 . S
C417 H405 0.950 . S
C417 C413 1.393 . S
C417 C416 1.391 . S
C418 H408 0.950 . S
C418 C419 1.386 . S
C418 C420 1.391 . S
C419 C418 1.386 . S
C419 C423 1.393 . S
C420 H409 0.950 . S
C420 C418 1.391 . S
C420 C421 1.400 . S
C421 C415 1.491 . S
C421 C420 1.400 . S
C421 C422 1.398 . S
C422 H410 0.950 . S
C422 C421 1.398 . S
C422 C423 1.391 . S
C423 H411 0.950 . S
C423 C419 1.393 . S
C423 C422 1.391 . S
H424 C432 0.950 . S
H425 C437 0.950 . S
H426 C434 0.950 . S
H427 C436 0.950 . S
H428 C438 0.950 . S
H429 C440 0.950 . S
H430 C442 0.950 . S
H431 C443 0.950 . S
C432 H424 0.950 . S
C432 C433 1.386 . S
C432 C434 1.391 . S
C433 C432 1.386 . S
C433 C437 1.393 . S
C434 H426 0.950 . S
C434 C432 1.391 . S
C434 C435 1.400 . S
C435 C434 1.400 . S
C435 C436 1.398 . S
C435 C441 1.491 1_556 S
C436 H427 0.950 . S
C436 C435 1.398 . S
C436 C437 1.391 . S
C437 H425 0.950 . S
C437 C433 1.393 . S
C437 C436 1.391 . S
C438 H428 0.950 . S
C438 C439 1.386 . S
C438 C440 1.391 . S
C439 C438 1.386 . S
C439 C443 1.393 . S
C440 H429 0.950 . S
C440 C438 1.391 . S
C440 C441 1.400 . S
C441 C435 1.491 1_554 S
C441 C440 1.400 . S
C441 C442 1.398 . S
C442 H430 0.950 . S
C442 C441 1.398 . S
C442 C443 1.391 . S
C443 H431 0.950 . S
C443 C439 1.393 . S
C443 C442 1.391 . S
H444 C452 0.950 . S
H445 C457 0.950 . S
H446 C454 0.950 . S
H447 C456 0.950 . S
H448 C458 0.950 . S
H449 C460 0.950 . S
H450 C462 0.950 . S
H451 C463 0.950 . S
C452 H444 0.950 . S
C452 C453 1.386 . S
C452 C454 1.391 . S
C453 C452 1.386 . S
C453 C457 1.393 . S
C454 H446 0.950 . S
C454 C452 1.391 . S
C454 C455 1.400 . S
C455 C454 1.400 . S
C455 C456 1.398 . S
C455 C461 1.491 . S
C456 H447 0.950 . S
C456 C455 1.398 . S
C456 C457 1.391 . S
C457 H445 0.950 . S
C457 C453 1.393 . S
C457 C456 1.391 . S
C458 H448 0.950 . S
C458 C459 1.386 . S
C458 C460 1.391 . S
C459 C458 1.386 . S
C459 C463 1.393 . S
C460 H449 0.950 . S
C460 C458 1.391 . S
C460 C461 1.400 . S
C461 C455 1.491 . S
C461 C460 1.400 . S
C461 C462 1.398 . S
C462 H450 0.950 . S
C462 C461 1.398 . S
C462 C463 1.391 . S
C463 H451 0.950 . S
C463 C459 1.393 . S
C463 C462 1.391 . S
H464 C472 0.950 . S
H465 C477 0.950 . S
H466 C474 0.950 . S
H467 C476 0.950 . S
H468 C478 0.950 . S
H469 C480 0.950 . S
H470 C482 0.950 . S
H471 C483 0.950 . S
C472 H464 0.950 . S
C472 C473 1.386 . S
C472 C474 1.391 . S
C473 C472 1.386 . S
C473 C477 1.393 1_545 S
C474 H466 0.950 . S
C474 C472 1.391 . S
C474 C475 1.400 . S
C475 C474 1.400 . S
C475 C476 1.398 1_545 S
C475 C481 1.491 1_546 S
C476 H467 0.950 . S
C476 C475 1.398 1_565 S
C476 C477 1.391 . S
C477 H465 0.950 . S
C477 C473 1.393 1_565 S
C477 C476 1.391 . S
C478 H468 0.950 . S
C478 C479 1.386 . S
C478 C480 1.391 . S
C479 C478 1.386 . S
C479 C483 1.393 1_565 S
C480 H469 0.950 . S
C480 C478 1.391 . S
C480 C481 1.400 . S
C481 C475 1.491 1_564 S
C481 C480 1.400 . S
C481 C482 1.398 1_565 S
C482 H470 0.950 . S
C482 C481 1.398 1_545 S
C482 C483 1.391 . S
C483 H471 0.950 . S
C483 C479 1.393 1_545 S
C483 C482 1.391 . S
H484 C492 0.950 . S
H485 C497 0.950 . S
H486 C494 0.950 . S
H487 C496 0.950 . S
H488 C498 0.950 . S
H489 C500 0.950 . S
H490 C502 0.950 . S
H491 C503 0.950 . S
C492 H484 0.950 . S
C492 C493 1.386 . S
C492 C494 1.391 . S
C493 C492 1.386 . S
C493 C497 1.393 . S
C494 H486 0.950 . S
C494 C492 1.391 . S
C494 C495 1.400 . S
C495 C494 1.400 . S
C495 C496 1.398 . S
C495 C501 1.491 . S
C496 H487 0.950 . S
C496 C495 1.398 . S
C496 C497 1.391 . S
C497 H485 0.950 . S
C497 C493 1.393 . S
C497 C496 1.391 . S
C498 H488 0.950 . S
C498 C499 1.386 . S
C498 C500 1.391 . S
C499 C498 1.386 . S
C499 C503 1.393 . S
C500 H489 0.950 . S
C500 C498 1.391 . S
C500 C501 1.400 . S
C501 C495 1.491 . S
C501 C500 1.400 . S
C501 C502 1.398 . S
C502 H490 0.950 . S
C502 C501 1.398 . S
C502 C503 1.391 . S
C503 H491 0.950 . S
C503 C499 1.393 . S
C503 C502 1.391 . S
H504 C512 0.950 . S
H505 C517 0.950 . S
H506 C514 0.950 . S
H507 C516 0.950 . S
H508 C518 0.950 . S
H509 C520 0.950 . S
H510 C522 0.950 . S
H511 C523 0.950 . S
C512 H504 0.950 . S
C512 C513 1.386 . S
C512 C514 1.391 . S
C513 C512 1.386 . S
C513 C517 1.393 . S
C514 H506 0.950 . S
C514 C512 1.391 . S
C514 C515 1.400 . S
C515 C514 1.400 . S
C515 C516 1.398 . S
C515 C521 1.491 . S
C516 H507 0.950 . S
C516 C515 1.398 . S
C516 C517 1.391 . S
C517 H505 0.950 . S
C517 C513 1.393 . S
C517 C516 1.391 . S
C518 H508 0.950 . S
C518 C519 1.386 . S
C518 C520 1.391 . S
C519 C518 1.386 . S
C519 C523 1.393 . S
C520 H509 0.950 . S
C520 C518 1.391 . S
C520 C521 1.400 . S
C521 C515 1.491 . S
C521 C520 1.400 . S
C521 C522 1.398 . S
C522 H510 0.950 . S
C522 C521 1.398 . S
C522 C523 1.391 . S
C523 H511 0.950 . S
C523 C519 1.393 . S
C523 C522 1.391 . S
H524 C532 0.950 . S
H525 C537 0.950 . S
H526 C534 0.950 . S
H527 C536 0.950 . S
H528 C538 0.950 . S
H529 C540 0.950 . S
H530 C542 0.950 . S
H531 C543 0.950 . S
C532 H524 0.950 . S
C532 C533 1.386 . S
C532 C534 1.391 . S
C533 C532 1.386 . S
C533 C537 1.393 . S
C534 H526 0.950 . S
C534 C532 1.391 . S
C534 C535 1.400 . S
C535 C534 1.400 . S
C535 C536 1.398 . S
C535 C541 1.491 . S
C536 H527 0.950 . S
C536 C535 1.398 . S
C536 C537 1.391 . S
C537 H525 0.950 . S
C537 C533 1.393 . S
C537 C536 1.391 . S
C538 H528 0.950 . S
C538 C539 1.386 . S
C538 C540 1.391 . S
C539 C538 1.386 . S
C539 C543 1.393 . S
C540 H529 0.950 . S
C540 C538 1.391 . S
C540 C541 1.400 . S
C541 C535 1.491 . S
C541 C540 1.400 . S
C541 C542 1.398 . S
C542 H530 0.950 . S
C542 C541 1.398 . S
C542 C543 1.391 . S
C543 H531 0.950 . S
C543 C539 1.393 . S
C543 C542 1.391 . S
H544 C552 0.950 . S
H545 C557 0.950 . S
H546 C554 0.950 . S
H547 C556 0.950 . S
H548 C558 0.950 . S
H549 C560 0.950 . S
H550 C562 0.950 . S
H551 C563 0.950 . S
C552 H544 0.950 . S
C552 C553 1.386 . S
C552 C554 1.391 . S
C553 C552 1.386 . S
C553 C557 1.393 . S
C554 H546 0.950 . S
C554 C552 1.391 . S
C554 C555 1.400 . S
C555 C554 1.400 . S
C555 C556 1.398 . S
C555 C561 1.491 . S
C556 H547 0.950 . S
C556 C555 1.398 . S
C556 C557 1.391 . S
C557 H545 0.950 . S
C557 C553 1.393 . S
C557 C556 1.391 . S
C558 H548 0.950 . S
C558 C559 1.386 . S
C558 C560 1.391 . S
C559 C558 1.386 . S
C559 C563 1.393 . S
C560 H549 0.950 . S
C560 C558 1.391 . S
C560 C561 1.400 . S
C561 C555 1.491 . S
C561 C560 1.400 . S
C561 C562 1.398 . S
C562 H550 0.950 . S
C562 C561 1.398 . S
C562 C563 1.391 . S
C563 H551 0.950 . S
C563 C559 1.393 . S
C563 C562 1.391 . S
H564 C572 0.950 . S
H565 C577 0.950 . S
H566 C574 0.950 . S
H567 C576 0.950 . S
H568 C578 0.950 . S
H569 C580 0.950 . S
H570 C582 0.950 . S
H571 C583 0.950 . S
C572 H564 0.950 . S
C572 C573 1.386 . S
C572 C574 1.391 . S
C573 C572 1.386 . S
C573 C577 1.393 . S
C574 H566 0.950 . S
C574 C572 1.391 . S
C574 C575 1.400 . S
C575 C574 1.400 . S
C575 C576 1.398 . S
C575 C581 1.491 . S
C576 H567 0.950 . S
C576 C575 1.398 . S
C576 C577 1.391 . S
C577 H565 0.950 . S
C577 C573 1.393 . S
C577 C576 1.391 . S
C578 H568 0.950 . S
C578 C579 1.386 . S
C578 C580 1.391 . S
C579 C578 1.386 . S
C579 C583 1.393 . S
C580 H569 0.950 . S
C580 C578 1.391 . S
C580 C581 1.400 . S
C581 C575 1.491 . S
C581 C580 1.400 . S
C581 C582 1.398 . S
C582 H570 0.950 . S
C582 C581 1.398 . S
C582 C583 1.391 . S
C583 H571 0.950 . S
C583 C579 1.393 . S
C583 C582 1.391 . S
H584 C592 0.950 . S
H585 C597 0.950 . S
H586 C594 0.950 . S
H587 C596 0.950 . S
H588 C598 0.950 . S
H589 C600 0.950 . S
H590 C602 0.950 . S
H591 C603 0.950 . S
C592 H584 0.950 . S
C592 C593 1.386 . S
C592 C594 1.391 . S
C593 C592 1.386 . S
C593 C597 1.393 . S
C594 H586 0.950 . S
C594 C592 1.391 . S
C594 C595 1.400 . S
C595 C594 1.400 . S
C595 C596 1.398 . S
C595 C601 1.491 . S
C596 H587 0.950 . S
C596 C595 1.398 . S
C596 C597 1.391 . S
C597 H585 0.950 . S
C597 C593 1.393 . S
C597 C596 1.391 . S
C598 H588 0.950 . S
C598 C599 1.386 . S
C598 C600 1.391 . S
C599 C598 1.386 . S
C599 C603 1.393 . S
C600 H589 0.950 . S
C600 C598 1.391 . S
C600 C601 1.400 . S
C601 C595 1.491 . S
C601 C600 1.400 . S
C601 C602 1.398 . S
C602 H590 0.950 . S
C602 C601 1.398 . S
C602 C603 1.391 . S
C603 H591 0.950 . S
C603 C599 1.393 . S
C603 C602 1.391 . S
H604 C612 0.950 . S
H605 C617 0.950 . S
H606 C614 0.950 . S
H607 C616 0.950 . S
H608 C618 0.950 . S
H609 C620 0.950 . S
H610 C622 0.950 . S
H611 C623 0.950 1_545 S
C612 H604 0.950 . S
C612 C613 1.386 . S
C612 C614 1.391 . S
C613 C612 1.386 . S
C613 C617 1.393 . S
C614 H606 0.950 . S
C614 C612 1.391 . S
C614 C615 1.400 . S
C615 C614 1.400 . S
C615 C616 1.398 . S
C615 C621 1.491 . S
C616 H607 0.950 . S
C616 C615 1.398 . S
C616 C617 1.391 . S
C617 H605 0.950 . S
C617 C613 1.393 . S
C617 C616 1.391 . S
C618 H608 0.950 . S
C618 C619 1.386 . S
C618 C620 1.391 . S
C619 C618 1.386 . S
C619 C623 1.393 . S
C620 H609 0.950 . S
C620 C618 1.391 . S
C620 C621 1.400 . S
C621 C615 1.491 . S
C621 C620 1.400 . S
C621 C622 1.398 . S
C622 H610 0.950 . S
C622 C621 1.398 . S
C622 C623 1.391 . S
C623 H611 0.950 1_565 S
C623 C619 1.393 . S
C623 C622 1.391 . S
H624 C632 0.950 . S
H625 C637 0.950 . S
H626 C634 0.950 . S
H627 C636 0.950 . S
H628 C638 0.950 . S
H629 C640 0.950 . S
H630 C642 0.950 . S
H631 C643 0.950 . S
C632 H624 0.950 . S
C632 C633 1.386 . S
C632 C634 1.391 . S
C633 C632 1.386 . S
C633 C637 1.393 . S
C634 H626 0.950 . S
C634 C632 1.391 . S
C634 C635 1.400 . S
C635 C634 1.400 . S
C635 C636 1.398 . S
C635 C641 1.491 . S
C636 H627 0.950 . S
C636 C635 1.398 . S
C636 C637 1.391 . S
C637 H625 0.950 . S
C637 C633 1.393 . S
C637 C636 1.391 . S
C638 H628 0.950 . S
C638 C639 1.386 . S
C638 C640 1.391 . S
C639 C638 1.386 . S
C639 C643 1.393 . S
C640 H629 0.950 . S
C640 C638 1.391 . S
C640 C641 1.400 . S
C641 C635 1.491 . S
C641 C640 1.400 . S
C641 C642 1.398 . S
C642 H630 0.950 . S
C642 C641 1.398 . S
C642 C643 1.391 . S
C643 H631 0.950 . S
C643 C639 1.393 . S
C643 C642 1.391 . S
H644 C652 0.950 . S
H645 C657 0.950 . S
H646 C654 0.950 . S
H647 C656 0.950 . S
H648 C658 0.950 . S
H649 C660 0.950 . S
H650 C662 0.950 . S
H651 C663 0.950 . S
C652 H644 0.950 . S
C652 C653 1.386 . S
C652 C654 1.391 . S
C653 C652 1.386 . S
C653 C657 1.393 . S
C654 H646 0.950 . S
C654 C652 1.391 . S
C654 C655 1.400 . S
C655 C654 1.400 . S
C655 C656 1.398 . S
C655 C661 1.491 . S
C656 H647 0.950 . S
C656 C655 1.398 . S
C656 C657 1.391 . S
C657 H645 0.950 . S
C657 C653 1.393 . S
C657 C656 1.391 . S
C658 H648 0.950 . S
C658 C659 1.386 . S
C658 C660 1.391 . S
C659 C658 1.386 . S
C659 C663 1.393 . S
C660 H649 0.950 . S
C660 C658 1.391 . S
C660 C661 1.400 . S
C661 C655 1.491 . S
C661 C660 1.400 . S
C661 C662 1.398 . S
C662 H650 0.950 . S
C662 C661 1.398 . S
C662 C663 1.391 . S
C663 H651 0.950 . S
C663 C659 1.393 . S
C663 C662 1.391 . S
H664 C672 0.950 . S
H665 C677 0.950 . S
H666 C674 0.950 . S
H667 C676 0.950 . S
H668 C678 0.950 . S
H669 C680 0.950 . S
H670 C682 0.950 . S
H671 C683 0.950 . S
C672 H664 0.950 . S
C672 C673 1.386 . S
C672 C674 1.391 . S
C673 C672 1.386 . S
C673 C677 1.393 . S
C674 H666 0.950 . S
C674 C672 1.391 . S
C674 C675 1.400 . S
C675 C674 1.400 . S
C675 C676 1.398 . S
C675 C681 1.491 . S
C676 H667 0.950 . S
C676 C675 1.398 . S
C676 C677 1.391 . S
C677 H665 0.950 . S
C677 C673 1.393 . S
C677 C676 1.391 . S
C678 H668 0.950 . S
C678 C679 1.386 . S
C678 C680 1.391 . S
C679 C678 1.386 . S
C679 C683 1.393 . S
C680 H669 0.950 . S
C680 C678 1.391 . S
C680 C681 1.400 . S
C681 C675 1.491 . S
C681 C680 1.400 . S
C681 C682 1.398 . S
C682 H670 0.950 . S
C682 C681 1.398 . S
C682 C683 1.391 . S
C683 H671 0.950 . S
C683 C679 1.393 . S
C683 C682 1.391 . S
H684 C692 0.950 . S
H685 C697 0.950 . S
H686 C694 0.950 . S
H687 C696 0.950 . S
H688 C698 0.950 . S
H689 C700 0.950 . S
H690 C702 0.950 . S
H691 C703 0.950 . S
C692 H684 0.950 . S
C692 C693 1.386 . S
C692 C694 1.391 . S
C693 C692 1.386 . S
C693 C697 1.393 . S
C694 H686 0.950 . S
C694 C692 1.391 . S
C694 C695 1.400 . S
C695 C694 1.400 . S
C695 C696 1.398 . S
C695 C701 1.491 . S
C696 H687 0.950 . S
C696 C695 1.398 . S
C696 C697 1.391 . S
C697 H685 0.950 . S
C697 C693 1.393 . S
C697 C696 1.391 . S
C698 H688 0.950 . S
C698 C699 1.386 . S
C698 C700 1.391 . S
C699 C698 1.386 . S
C699 C703 1.393 . S
C700 H689 0.950 . S
C700 C698 1.391 . S
C700 C701 1.400 . S
C701 C695 1.491 . S
C701 C700 1.400 . S
C701 C702 1.398 . S
C702 H690 0.950 . S
C702 C701 1.398 . S
C702 C703 1.391 . S
C703 H691 0.950 . S
C703 C699 1.393 . S
C703 C702 1.391 . S
H704 C712 0.950 . S
H705 C717 0.950 . S
H706 C714 0.950 . S
H707 C716 0.950 . S
H708 C718 0.950 . S
H709 C720 0.950 . S
H710 C722 0.950 . S
H711 C723 0.950 . S
C712 H704 0.950 . S
C712 C713 1.386 . S
C712 C714 1.391 . S
C713 C712 1.386 . S
C713 C717 1.393 . S
C714 H706 0.950 . S
C714 C712 1.391 . S
C714 C715 1.400 . S
C715 C714 1.400 . S
C715 C716 1.398 . S
C715 C721 1.491 . S
C716 H707 0.950 . S
C716 C715 1.398 . S
C716 C717 1.391 . S
C717 H705 0.950 . S
C717 C713 1.393 . S
C717 C716 1.391 . S
C718 H708 0.950 . S
C718 C719 1.386 . S
C718 C720 1.391 . S
C719 C718 1.386 . S
C719 C723 1.393 . S
C720 H709 0.950 . S
C720 C718 1.391 . S
C720 C721 1.400 . S
C721 C715 1.491 . S
C721 C720 1.400 . S
C721 C722 1.398 . S
C722 H710 0.950 . S
C722 C721 1.398 . S
C722 C723 1.391 . S
C723 H711 0.950 . S
C723 C719 1.393 . S
C723 C722 1.391 . S
H724 C732 0.950 . S
H725 C737 0.950 . S
H726 C734 0.950 . S
H727 C736 0.950 . S
H728 C738 0.950 . S
H729 C740 0.950 . S
H730 C742 0.950 . S
H731 C743 0.950 . S
C732 H724 0.950 . S
C732 C733 1.386 . S
C732 C734 1.391 . S
C733 C732 1.386 . S
C733 C737 1.393 . S
C734 H726 0.950 . S
C734 C732 1.391 . S
C734 C735 1.400 . S
C735 C734 1.400 . S
C735 C736 1.398 . S
C735 C741 1.491 . S
C736 H727 0.950 . S
C736 C735 1.398 . S
C736 C737 1.391 . S
C737 H725 0.950 . S
C737 C733 1.393 . S
C737 C736 1.391 . S
C738 H728 0.950 . S
C738 C739 1.386 . S
C738 C740 1.391 . S
C739 C738 1.386 . S
C739 C743 1.393 . S
C740 H729 0.950 . S
C740 C738 1.391 . S
C740 C741 1.400 . S
C741 C735 1.491 . S
C741 C740 1.400 . S
C741 C742 1.398 . S
C742 H730 0.950 . S
C742 C741 1.398 . S
C742 C743 1.391 . S
C743 H731 0.950 . S
C743 C739 1.393 . S
C743 C742 1.391 . S
H744 C752 0.950 . S
H745 C757 0.950 . S
H746 C754 0.950 . S
H747 C756 0.950 . S
H748 C758 0.950 . S
H749 C760 0.950 . S
H750 C762 0.950 . S
H751 C763 0.950 . S
C752 H744 0.950 . S
C752 C753 1.386 . S
C752 C754 1.391 . S
C753 C752 1.386 . S
C753 C757 1.393 . S
C754 H746 0.950 . S
C754 C752 1.391 . S
C754 C755 1.400 . S
C755 C754 1.400 . S
C755 C756 1.398 . S
C755 C761 1.491 . S
C756 H747 0.950 . S
C756 C755 1.398 . S
C756 C757 1.391 . S
C757 H745 0.950 . S
C757 C753 1.393 . S
C757 C756 1.391 . S
C758 H748 0.950 . S
C758 C759 1.386 . S
C758 C760 1.391 . S
C759 C758 1.386 . S
C759 C763 1.393 . S
C760 H749 0.950 . S
C760 C758 1.391 . S
C760 C761 1.400 . S
C761 C755 1.491 . S
C761 C760 1.400 . S
C761 C762 1.398 . S
C762 H750 0.950 . S
C762 C761 1.398 . S
C762 C763 1.391 . S
C763 H751 0.950 . S
C763 C759 1.393 . S
C763 C762 1.391 . S
H764 C772 0.950 . S
H765 C777 0.950 . S
H766 C774 0.950 . S
H767 C776 0.950 . S
H768 C778 0.950 . S
H769 C780 0.950 . S
H770 C782 0.950 . S
H771 C783 0.950 . S
C772 H764 0.950 . S
C772 C773 1.386 . S
C772 C774 1.391 . S
C773 C772 1.386 . S
C773 C777 1.393 . S
C774 H766 0.950 . S
C774 C772 1.391 . S
C774 C775 1.400 . S
C775 C774 1.400 . S
C775 C776 1.398 . S
C775 C781 1.491 . S
C776 H767 0.950 . S
C776 C775 1.398 . S
C776 C777 1.391 . S
C777 H765 0.950 . S
C777 C773 1.393 . S
C777 C776 1.391 . S
C778 H768 0.950 . S
C778 C779 1.386 . S
C778 C780 1.391 . S
C779 C778 1.386 . S
C779 C783 1.393 . S
C780 H769 0.950 . S
C780 C778 1.391 . S
C780 C781 1.400 . S
C781 C775 1.491 . S
C781 C780 1.400 . S
C781 C782 1.398 . S
C782 H770 0.950 . S
C782 C781 1.398 . S
C782 C783 1.391 . S
C783 H771 0.950 . S
C783 C779 1.393 . S
C783 C782 1.391 . S
H784 C792 0.950 . S
H785 C797 0.950 . S
H786 C794 0.950 . S
H787 C796 0.950 . S
H788 C798 0.950 1_565 S
H789 C800 0.950 . S
H790 C802 0.950 . S
H791 C803 0.950 . S
C792 H784 0.950 . S
C792 C793 1.386 . S
C792 C794 1.391 . S
C793 C792 1.386 . S
C793 C797 1.393 . S
C794 H786 0.950 . S
C794 C792 1.391 . S
C794 C795 1.400 . S
C795 C794 1.400 . S
C795 C796 1.398 . S
C795 C801 1.491 . S
C796 H787 0.950 . S
C796 C795 1.398 . S
C796 C797 1.391 . S
C797 H785 0.950 . S
C797 C793 1.393 . S
C797 C796 1.391 . S
C798 H788 0.950 1_545 S
C798 C799 1.386 . S
C798 C800 1.391 . S
C799 C798 1.386 . S
C799 C803 1.393 . S
C800 H789 0.950 . S
C800 C798 1.391 . S
C800 C801 1.400 . S
C801 C795 1.491 . S
C801 C800 1.400 . S
C801 C802 1.398 . S
C802 H790 0.950 . S
C802 C801 1.398 . S
C802 C803 1.391 . S
C803 H791 0.950 . S
C803 C799 1.393 . S
C803 C802 1.391 . S
H804 C812 0.950 . S
H805 C817 0.950 . S
H806 C814 0.950 . S
H807 C816 0.950 . S
H808 C818 0.950 . S
H809 C820 0.950 . S
H810 C822 0.950 . S
H811 C823 0.950 . S
C812 H804 0.950 . S
C812 C813 1.386 . S
C812 C814 1.391 . S
C813 C812 1.386 . S
C813 C817 1.393 . S
C814 H806 0.950 . S
C814 C812 1.391 . S
C814 C815 1.400 . S
C815 C814 1.400 . S
C815 C816 1.398 . S
C815 C821 1.491 . S
C816 H807 0.950 . S
C816 C815 1.398 . S
C816 C817 1.391 . S
C817 H805 0.950 . S
C817 C813 1.393 . S
C817 C816 1.391 . S
C818 H808 0.950 . S
C818 C819 1.386 . S
C818 C820 1.391 . S
C819 C818 1.386 . S
C819 C823 1.393 . S
C820 H809 0.950 . S
C820 C818 1.391 . S
C820 C821 1.400 . S
C821 C815 1.491 . S
C821 C820 1.400 . S
C821 C822 1.398 . S
C822 H810 0.950 . S
C822 C821 1.398 . S
C822 C823 1.391 . S
C823 H811 0.950 . S
C823 C819 1.393 . S
C823 C822 1.391 . S
H824 C832 0.950 . S
H825 C837 0.950 . S
H826 C834 0.950 . S
H827 C836 0.950 . S
H828 C838 0.950 . S
H829 C840 0.950 . S
H830 C842 0.950 . S
H831 C843 0.950 . S
C832 H824 0.950 . S
C832 C833 1.386 . S
C832 C834 1.391 . S
C833 C832 1.386 . S
C833 C837 1.393 . S
C834 H826 0.950 . S
C834 C832 1.391 . S
C834 C835 1.400 . S
C835 C834 1.400 . S
C835 C836 1.398 . S
C835 C841 1.491 . S
C836 H827 0.950 . S
C836 C835 1.398 . S
C836 C837 1.391 . S
C837 H825 0.950 . S
C837 C833 1.393 . S
C837 C836 1.391 . S
C838 H828 0.950 . S
C838 C839 1.386 . S
C838 C840 1.391 . S
C839 C838 1.386 . S
C839 C843 1.393 . S
C840 H829 0.950 . S
C840 C838 1.391 . S
C840 C841 1.400 . S
C841 C835 1.491 . S
C841 C840 1.400 . S
C841 C842 1.398 . S
C842 H830 0.950 . S
C842 C841 1.398 . S
C842 C843 1.391 . S
C843 H831 0.950 . S
C843 C839 1.393 . S
C843 C842 1.391 . S
H844 C852 0.950 . S
H845 C857 0.950 . S
H846 C854 0.950 . S
H847 C856 0.950 . S
H848 C858 0.950 . S
H849 C860 0.950 . S
H850 C862 0.950 . S
H851 C863 0.950 1_565 S
C852 H844 0.950 . S
C852 C853 1.386 . S
C852 C854 1.391 . S
C853 C852 1.386 . S
C853 C857 1.393 . S
C854 H846 0.950 . S
C854 C852 1.391 . S
C854 C855 1.400 . S
C855 C854 1.400 . S
C855 C856 1.398 . S
C855 C861 1.491 . S
C856 H847 0.950 . S
C856 C855 1.398 . S
C856 C857 1.391 . S
C857 H845 0.950 . S
C857 C853 1.393 . S
C857 C856 1.391 . S
C858 H848 0.950 . S
C858 C859 1.386 . S
C858 C860 1.391 . S
C859 C858 1.386 . S
C859 C863 1.393 . S
C860 H849 0.950 . S
C860 C858 1.391 . S
C860 C861 1.400 . S
C861 C855 1.491 . S
C861 C860 1.400 . S
C861 C862 1.398 . S
C862 H850 0.950 . S
C862 C861 1.398 . S
C862 C863 1.391 . S
C863 H851 0.950 1_545 S
C863 C859 1.393 . S
C863 C862 1.391 . S
C233 C203 1.505 . S
C239 C7 1.505 . S
C253 C39 1.499 . S
C259 C11 1.499 . S
C273 C165 1.508 . S
C279 C25 1.508 . S
C293 C21 1.513 . S
C299 C105 1.513 . S
C313 C35 1.508 . S
C319 C175 1.508 . S
C333 C137 1.510 . S
C339 C53 1.510 . S
C353 C49 1.505 . S
C359 C77 1.505 . S
C373 C147 1.506 . S
C379 C63 1.506 . S
C393 C67 1.501 . S
C399 C95 1.501 . S
C413 C221 1.508 . S
C419 C81 1.508 . S
C433 C119 1.516 . S
C439 C91 1.516 . S
C453 C193 1.500 . S
C459 C109 1.500 . S
C473 C123 1.509 . S
C479 C151 1.509 . S
C493 C217 1.505 . S
C499 C133 1.505 . S
C513 C161 1.516 . S
C519 C189 1.516 . S
C533 C207 1.506 . S
C539 C179 1.506 . S
C553 C78 1.184 . S
C559 C13 1.166 1_565 S
C573 C8 1.184 . S
C579 C83 1.165 . S
C593 C22 1.183 . S
C599 C69 1.163 . S
C613 C64 1.165 . S
C619 C27 1.141 1_565 S
C633 C106 1.178 . S
C639 C41 1.156 1_545 S
C653 C111 1.135 . S
C659 C36 1.151 . S
C673 C97 1.132 . S
C679 C50 1.154 . S
C693 C55 1.171 1_545 S
C699 C92 1.186 . S
C713 C190 1.160 . S
C719 C125 1.148 1_565 S
C733 C120 1.153 . S
C739 C195 1.138 . S
C753 C134 1.164 . S
C759 C181 1.140 . S
C773 C176 1.173 . S
C779 C139 1.150 1_565 S
C793 C218 1.173 . S
C799 C153 1.150 1_545 S
C813 C223 1.156 . S
C819 C148 1.178 . S
C833 C162 1.176 . S
C839 C209 1.153 . S
C853 C204 1.179 . S
C859 C167 1.168 1_545 S
