# Generated by pormake.
# Topology ttw, (5)-cn, num edge types: 1
# Building blocks:
#     Node 0, Type 0, BuildingBlock: XOMCOT_clean_sbu_1, # of connection points: 5
#     Node 1, Type 0, BuildingBlock: XOMCOT_clean_sbu_1, # of connection points: 5
#     Node 2, Type 0, BuildingBlock: XOMCOT_clean_sbu_1, # of connection points: 5
#     Node 3, Type 0, BuildingBlock: XOMCOT_clean_sbu_1, # of connection points: 5
#     Node 4, Type 0, BuildingBlock: XOMCOT_clean_sbu_1, # of connection points: 5
#     Node 5, Type 0, BuildingBlock: XOMCOT_clean_sbu_1, # of connection points: 5
#     Edge 6, Type (0, 0), BuildingBlock: UVAHIK_clean_linker_0, # of connection points: 2
#     Edge 7, Type (0, 0), BuildingBlock: UVAHIK_clean_linker_0, # of connection points: 2
#     Edge 8, Type (0, 0), BuildingBlock: UVAHIK_clean_linker_0, # of connection points: 2
#     Edge 9, Type (0, 0), BuildingBlock: UVAHIK_clean_linker_0, # of connection points: 2
#     Edge 10, Type (0, 0), BuildingBlock: UVAHIK_clean_linker_0, # of connection points: 2
#     Edge 11, Type (0, 0), BuildingBlock: UVAHIK_clean_linker_0, # of connection points: 2
#     Edge 12, Type (0, 0), BuildingBlock: UVAHIK_clean_linker_0, # of connection points: 2
#     Edge 13, Type (0, 0), BuildingBlock: UVAHIK_clean_linker_0, # of connection points: 2
#     Edge 14, Type (0, 0), BuildingBlock: UVAHIK_clean_linker_0, # of connection points: 2
#     Edge 15, Type (0, 0), BuildingBlock: UVAHIK_clean_linker_0, # of connection points: 2
#     Edge 16, Type (0, 0), BuildingBlock: UVAHIK_clean_linker_0, # of connection points: 2
#     Edge 17, Type (0, 0), BuildingBlock: UVAHIK_clean_linker_0, # of connection points: 2
#     Edge 18, Type (0, 0), BuildingBlock: UVAHIK_clean_linker_0, # of connection points: 2
#     Edge 19, Type (0, 0), BuildingBlock: UVAHIK_clean_linker_0, # of connection points: 2
#     Edge 20, Type (0, 0), BuildingBlock: UVAHIK_clean_linker_0, # of connection points: 2
# Relax obj value: 0.327
# Max RMSD: 0.294
# Mean RMSD: 0.267
data_MOF--net-ttw--node1-XOMCOT_clean_sbu_1--edge1-UVAHIK_clean_linker_0
_symmetry_space_group_name_H-M    P1
_symmetry_Int_Tables_number       1
_symmetry_cell_setting            triclinic
loop_
_symmetry_equiv_pos_as_xyz
'x, y, z'
_cell_length_a     69.701558
_cell_length_b     70.048589
_cell_length_c     21.980776
_cell_angle_alpha  94.474779
_cell_angle_beta   94.281811
_cell_angle_gamma 120.67573
loop_
_atom_site_label
_atom_site_type_symbol
_atom_site_fract_x
_atom_site_fract_y
_atom_site_fract_z
_atom_type_partial_charge
C0 C 0.1313 0.52525 0.96262 0.0
C1 C 0.1289 0.5212 0.89959 0.0
N2 N 0.13767 0.54101 0.87761 0.0
N3 N 0.1416 0.54748 0.9803 0.0
C4 C 0.14512 0.55669 0.92752 0.0
H5 H 0.12631 0.51284 0.99391 0.0
Co6 Co 0.14972 0.56018 0.06193 0.0
C7 C 0.19234 0.60282 0.06543 0.0
O8 O 0.20085 0.5963 0.10877 0.0
N9 N 0.15686 0.57279 0.14547 0.0
C10 C 0.16252 0.59697 0.22692 0.0
C11 C 0.16152 0.59375 0.16433 0.0
C12 C 0.15401 0.56328 0.19796 0.0
N13 N 0.15767 0.57773 0.2482 0.0
O14 O 0.12736 0.56816 0.05492 0.0
H15 H 0.16289 0.60576 0.13424 0.0
H16 H 0.1476 0.54572 0.19936 0.0
O17 O 0.17193 0.58977 0.04024 0.0
C18 C 0.10699 0.5525 0.05296 0.0
O19 O 0.10234 0.53176 0.05113 0.0
N20 N 0.17095 0.55083 0.06798 0.0
C21 C 0.19861 0.53265 0.06919 0.0
C22 C 0.20128 0.54849 0.03013 0.0
C23 C 0.18692 0.55685 0.02896 0.0
C24 C 0.16708 0.53426 0.10292 0.0
C25 C 0.18102 0.52533 0.10542 0.0
H26 H 0.18853 0.568 0.99579 0.0
H27 H 0.15244 0.52698 0.12644 0.0
H28 H 0.1537 0.57454 0.9258 0.0
H29 H 0.1214 0.50496 0.8721 0.0
H30 H 0.16588 0.61214 0.25422 0.0
H31 H 0.21433 0.55443 1.00041 0.0
H32 H 0.17757 0.51225 0.13382 0.0
C33 C 0.5619 0.09811 0.79035 0.0
C34 C 0.56355 0.09543 0.72871 0.0
N35 N 0.55252 0.1037 0.69848 0.0
N36 N 0.55054 0.10873 0.79978 0.0
C37 C 0.54425 0.11099 0.74223 0.0
H38 H 0.56766 0.09156 0.82558 0.0
Co39 Co 0.54117 0.11278 0.87568 0.0
C40 C 0.54028 0.14886 0.81556 0.0
O41 O 0.56066 0.15592 0.80149 0.0
N42 N 0.5311 0.11517 0.9502 0.0
C43 C 0.51003 0.11597 0.02 0.0
C44 C 0.51285 0.11651 0.95882 0.0
C45 C 0.53902 0.11365 1.00645 0.0
N46 N 0.52649 0.11414 0.04995 0.0
O47 O 0.51235 0.08707 0.84825 0.0
H48 H 0.50191 0.11723 0.92271 0.0
H49 H 0.55329 0.11155 0.01482 0.0
O50 O 0.53059 0.13159 0.84335 0.0
C51 C 0.50927 0.06802 0.85664 0.0
O52 O 0.52675 0.06661 0.87588 0.0
N53 N 0.56997 0.13848 0.90656 0.0
C54 C 0.61147 0.17567 0.9595 0.0
C55 C 0.59162 0.17604 0.96041 0.0
C56 C 0.57111 0.15727 0.93451 0.0
C57 C 0.58907 0.13748 0.90823 0.0
C58 C 0.61004 0.15603 0.93322 0.0
H59 H 0.55602 0.15786 0.9376 0.0
H60 H 0.58827 0.12219 0.89218 0.0
H61 H 0.53266 0.11655 0.73168 0.0
H62 H 0.57188 0.08763 0.70781 0.0
H63 H 0.4968 0.11676 0.04071 0.0
H64 H 0.5919 0.19078 0.9808 0.0
H65 H 0.62492 0.15479 0.93359 0.0
C66 C 0.46797 0.59169 0.06883 0.0
C67 C 0.47345 0.59173 1.01011 0.0
N68 N 0.46289 0.57039 0.98254 0.0
N69 N 0.45354 0.57047 0.0785 0.0
C70 C 0.45155 0.55781 0.02576 0.0
H71 H 0.47389 0.60638 0.1021 0.0
Co72 Co 0.44174 0.56298 0.15374 0.0
C73 C 0.39782 0.53384 0.06232 0.0
O74 O 0.40592 0.53978 1.01052 0.0
N75 N 0.4309 0.55607 0.22968 0.0
C76 C 0.40895 0.5487 0.30359 0.0
C77 C 0.41093 0.55265 0.24354 0.0
C78 C 0.44102 0.55461 0.28273 0.0
N79 N 0.42788 0.54994 0.32838 0.0
O80 O 0.44753 0.53922 0.15033 0.0
H81 H 0.39884 0.55374 0.21253 0.0
H82 H 0.45772 0.55706 0.28791 0.0
O83 O 0.41078 0.54228 0.11362 0.0
C84 C 0.46819 0.54591 0.16511 0.0
O85 O 0.48251 0.56745 0.18156 0.0
N86 N 0.43703 0.58714 0.15871 0.0
C87 C 0.43495 0.62596 0.16794 0.0
C88 C 0.42248 0.60878 0.11866 0.0
C89 C 0.42387 0.58958 0.11465 0.0
C90 C 0.44922 0.6036 0.20716 0.0
C91 C 0.44831 0.62311 0.21295 0.0
H92 H 0.41503 0.57721 0.07476 0.0
H93 H 0.46011 0.60176 0.24083 0.0
H94 H 0.44174 0.53968 0.01884 0.0
H95 H 0.48364 0.60644 0.98854 0.0
H96 H 0.39499 0.54595 0.32788 0.0
H97 H 0.41189 0.61023 0.08299 0.0
H98 H 0.45849 0.63611 0.25123 0.0
C99 C 0.8759 0.43608 0.34856 0.0
C100 C 0.88175 0.4375 0.41047 0.0
N101 N 0.88653 0.45755 0.43803 0.0
N102 N 0.87658 0.45501 0.33642 0.0
C103 C 0.88382 0.46807 0.39194 0.0
H104 H 0.87147 0.42197 0.31479 0.0
Co105 Co 0.87036 0.46081 0.25678 0.0
C106 C 0.84438 0.47564 0.33326 0.0
O107 O 0.84136 0.46216 0.37468 0.0
N108 N 0.86464 0.46634 0.17752 0.0
C109 C 0.84801 0.47066 0.09399 0.0
C110 C 0.84652 0.46696 0.15434 0.0
C111 C 0.8768 0.46944 0.13004 0.0
N112 N 0.86707 0.47225 0.0785 0.0
O113 O 0.89784 0.48908 0.2699 0.0
H114 H 0.8327 0.46424 0.17906 0.0
H115 H 0.89242 0.46954 0.1333 0.0
O116 O 0.8548 0.47548 0.2879 0.0
C117 C 0.91578 0.48843 0.27187 0.0
O118 O 0.91433 0.46895 0.27087 0.0
N119 N 0.84393 0.43233 0.23964 0.0
C120 C 0.80854 0.38857 0.19833 0.0
C121 C 0.80457 0.40436 0.22873 0.0
C122 C 0.82245 0.4262 0.24862 0.0
C123 C 0.848 0.41736 0.20897 0.0
C124 C 0.83066 0.39536 0.18864 0.0
H125 H 0.81852 0.43802 0.26881 0.0
H126 H 0.86497 0.42263 0.20035 0.0
H127 H 0.88669 0.48485 0.3986 0.0
H128 H 0.88175 0.42443 0.43366 0.0
H129 H 0.83555 0.47133 0.06327 0.0
H130 H 0.78768 0.40013 0.23544 0.0
H131 H 0.83464 0.38382 0.16563 0.0
C132 C 0.41275 0.88138 0.28679 0.0
C133 C 0.41596 0.88835 0.34866 0.0
N134 N 0.39769 0.88863 0.36299 0.0
N135 N 0.39232 0.87675 0.26151 0.0
C136 C 0.38386 0.88216 0.30911 0.0
H137 H 0.42464 0.8796 0.2617 0.0
Co138 Co 0.38316 0.86708 0.17581 0.0
C139 C 0.33724 0.8355 0.22063 0.0
O140 O 0.34242 0.84209 0.2801 0.0
N141 N 0.37514 0.85822 0.09035 0.0
C142 C 0.35983 0.83724 0.99913 0.0
C143 C 0.36235 0.83701 0.06159 0.0
C144 C 0.38057 0.87106 0.04416 0.0
N145 N 0.37123 0.85869 0.98801 0.0
O146 O 0.37507 0.88907 0.168 0.0
H147 H 0.35549 0.82222 0.0846 0.0
H148 H 0.39101 0.88914 0.05164 0.0
O149 O 0.35209 0.84465 0.18464 0.0
C150 C 0.39083 0.90954 0.17577 0.0
O151 O 0.41109 0.91476 0.19914 0.0
N152 N 0.39179 0.84581 0.18155 0.0
C153 C 0.40593 0.81512 0.18472 0.0
C154 C 0.38971 0.81394 0.22094 0.0
C155 C 0.383 0.82955 0.21905 0.0
C156 C 0.40817 0.84776 0.1477 0.0
C157 C 0.41537 0.83247 0.1482 0.0
H158 H 0.37095 0.82866 0.2484 0.0
H159 H 0.41555 0.86119 0.11975 0.0
H160 H 0.36816 0.88187 0.30448 0.0
H161 H 0.43031 0.89214 0.38109 0.0
H162 H 0.35066 0.82266 0.9645 0.0
H163 H 0.38197 0.80085 0.24984 0.0
H164 H 0.42828 0.8343 0.12053 0.0
C165 C 0.60892 0.4458 0.98715 0.0
C166 C 0.60921 0.44932 0.92644 0.0
N167 N 0.6107 0.43312 0.89376 0.0
N168 N 0.61007 0.42738 0.99293 0.0
C169 C 0.61134 0.42014 0.93537 0.0
H170 H 0.60809 0.45616 0.02477 0.0
Co171 Co 0.61019 0.4151 0.06537 0.0
C172 C 0.65398 0.44964 0.08575 0.0
O173 O 0.65494 0.43819 0.03701 0.0
N174 N 0.61088 0.40321 0.13947 0.0
C175 C 0.61446 0.38415 0.21156 0.0
C176 C 0.61287 0.38546 0.14952 0.0
C177 C 0.61204 0.41275 0.1968 0.0
N178 N 0.6139 0.40134 0.24142 0.0
O179 O 0.58964 0.42376 0.09359 0.0
H180 H 0.61381 0.37431 0.11495 0.0
H181 H 0.61208 0.42818 0.20572 0.0
O182 O 0.63501 0.44317 0.10423 0.0
C183 C 0.57269 0.41528 0.12316 0.0
O184 O 0.56513 0.3954 0.14055 0.0
N185 N 0.58683 0.3871 0.0255 0.0
C186 C 0.5571 0.34343 0.9699 0.0
C187 C 0.58017 0.35158 0.98161 0.0
C188 C 0.59477 0.37366 1.00788 0.0
C189 C 0.56478 0.38029 1.00811 0.0
C190 C 0.54943 0.35821 0.98092 0.0
H191 H 0.61267 0.38011 0.01549 0.0
H192 H 0.55884 0.39173 0.01469 0.0
H193 H 0.61244 0.40545 0.92417 0.0
H194 H 0.60874 0.46298 0.90808 0.0
H195 H 0.61592 0.37146 0.23287 0.0
H196 H 0.58681 0.34088 0.97094 0.0
H197 H 0.5318 0.35264 0.96992 0.0
C198 C 0.0942 0.57755 0.09696 0.0
C199 C 0.08916 0.55745 0.06227 0.0
C200 C 0.07686 0.58012 0.11639 0.0
C201 C 0.01471 0.5546 0.09734 0.0
H202 H 0.02236 0.5644 0.2758 0.0
C203 C 0.95753 0.50953 0.28534 0.0
C204 C 0.93739 0.5082 0.26372 0.0
C205 C 0.97775 0.52509 0.26624 0.0
C206 C 0.02006 0.56205 0.22591 0.0
H207 H 0.06225 0.52515 0.01625 0.0
H208 H 0.03211 0.5297 0.04915 0.0
H209 H 0.05496 0.57419 0.22229 0.0
H210 H 0.92266 0.52297 0.20845 0.0
H211 H 0.95814 0.55006 0.17385 0.0
H212 H 0.97955 0.54082 0.10111 0.0
C213 C 0.04931 0.54347 0.06168 0.0
C214 C 0.03875 0.5678 0.1952 0.0
C215 C 0.06658 0.54077 0.0432 0.0
C216 C 0.93803 0.52379 0.22612 0.0
C217 C 0.95827 0.53917 0.20605 0.0
C218 C 0.99604 0.54897 0.12803 0.0
C219 C 0.05426 0.5628 0.1004 0.0
C220 C 0.03605 0.563 0.13076 0.0
C221 C 0.97818 0.53942 0.22428 0.0
C222 C -0.00162 0.55152 0.19272 0.0
H223 H 0.11151 0.59065 0.11248 0.0
H224 H 0.08114 0.59521 0.14608 0.0
H225 H 0.0122 0.55096 0.04759 0.0
H226 H 0.95746 0.49769 0.3144 0.0
H227 H 0.99272 0.52466 0.28061 0.0
C228 C 0.37336 0.91861 0.08786 0.0
C229 C 0.38852 0.92589 0.14239 0.0
C230 C 0.3762 0.93353 0.04568 0.0
C231 C 0.40409 0.96186 0.95176 0.0
H232 H 0.42999 0.02579 0.99374 0.0
C233 C 0.48284 0.02773 0.86485 0.0
C234 C 0.48634 0.04908 0.8596 0.0
C235 C 0.46271 0.01103 0.8818 0.0
C236 C 0.42232 0.00794 0.98032 0.0
H237 H 0.41649 0.95484 0.19937 0.0
H238 H 0.42114 0.98089 0.12689 0.0
H239 H 0.40742 0.00039 0.06365 0.0
H240 H 0.47075 0.06914 0.86279 0.0
H241 H 0.43558 0.03992 0.89285 0.0
H242 H 0.42015 0.96954 0.87025 0.0
C243 C 0.40727 0.96372 0.11593 0.0
C244 C 0.40952 0.99341 0.02068 0.0
C245 C 0.40468 0.94877 0.15749 0.0
C246 C 0.46858 0.05284 0.8666 0.0
C247 C 0.44848 0.03617 0.88414 0.0
C248 C 0.41695 0.97641 0.91148 0.0
C249 C 0.3939 0.95601 0.05812 0.0
C250 C 0.40126 0.97036 1.00831 0.0
C251 C 0.4457 0.01538 0.89428 0.0
C252 C 0.42715 -0.00031 0.9269 0.0
H253 H 0.36067 0.90105 0.07503 0.0
H254 H 0.36551 0.92719 1.00173 0.0
H255 H 0.39806 0.94419 0.94095 0.0
H256 H 0.49616 0.0243 0.85941 0.0
H257 H 0.46123 0.99528 0.88969 0.0
C258 C 0.57085 0.44991 0.12533 0.0
C259 C 0.56041 0.42711 0.13201 0.0
C260 C 0.55898 0.46094 0.12901 0.0
C261 C 0.5081 0.45748 0.18109 0.0
H262 H 0.5204 0.50135 0.06907 0.0
C263 C 0.46163 0.50695 0.15579 0.0
C264 C 0.47645 0.53026 0.1609 0.0
C265 C 0.4699 0.49245 0.15132 0.0
C266 C 0.51679 0.48913 0.10057 0.0
H267 H 0.52948 0.39806 0.14936 0.0
H268 H 0.50849 0.41729 0.15463 0.0
H269 H 0.53848 0.47946 0.06347 0.0
H270 H 0.51146 0.55661 0.16521 0.0
H271 H 0.52568 0.53137 0.15635 0.0
H272 H 0.4862 0.46728 0.21765 0.0
C273 C 0.52598 0.4267 0.14729 0.0
C274 C 0.52725 0.47669 0.09772 0.0
C275 C 0.53798 0.41568 0.14416 0.0
C276 C 0.49959 0.53875 0.16142 0.0
C277 C 0.50775 0.52431 0.15603 0.0
C278 C 0.49741 0.46982 0.18347 0.0
C279 C 0.53627 0.4494 0.13877 0.0
C280 C 0.5235 0.46112 0.13895 0.0
C281 C 0.49302 0.50106 0.15074 0.0
C282 C 0.5021 0.48611 0.14414 0.0
H283 H 0.58823 0.45928 0.1169 0.0
H284 H 0.56765 0.47858 0.12402 0.0
H285 H 0.5049 0.44569 0.21367 0.0
H286 H 0.44371 0.49996 0.15546 0.0
H287 H 0.45822 0.47454 0.1472 0.0
C288 C 0.15038 0.58608 0.35231 0.0
C289 C 0.15515 0.57319 0.31087 0.0
C290 C 0.14861 0.58224 0.41346 0.0
C291 C 0.13726 0.53992 0.51566 0.0
H292 H 0.16762 0.5911 0.64376 0.0
C293 C 0.14222 0.52987 0.77298 0.0
C294 C 0.13981 0.54461 0.81432 0.0
C295 C 0.14431 0.53327 0.71155 0.0
C296 C 0.1588 0.57665 0.60856 0.0
H297 H 0.16158 0.54597 0.30142 0.0
H298 H 0.15815 0.53905 0.4085 0.0
H299 H 0.17072 0.59689 0.53618 0.0
H300 H 0.13748 0.57434 0.82368 0.0
H301 H 0.14079 0.58017 0.716 0.0
H302 H 0.12504 0.51968 0.58781 0.0
C303 C 0.15576 0.55211 0.3932 0.0
C304 C 0.16064 0.57997 0.54698 0.0
C305 C 0.15768 0.55605 0.33192 0.0
C306 C 0.13957 0.56287 0.79298 0.0
C307 C 0.14151 0.5662 0.73135 0.0
C308 C 0.13529 0.5366 0.57726 0.0
C309 C 0.1514 0.56533 0.43464 0.0
C310 C 0.14984 0.56165 0.49994 0.0
C311 C 0.14391 0.55143 0.68992 0.0
C312 C 0.14601 0.55494 0.62443 0.0
H313 H 0.14779 0.59906 0.33757 0.0
H314 H 0.14481 0.5924 0.4441 0.0
H315 H 0.12855 0.52553 0.48024 0.0
H316 H 0.14289 0.51589 0.78835 0.0
H317 H 0.14658 0.52183 0.68122 0.0
C318 C 0.51079 0.10294 0.14706 0.0
C319 C 0.52944 0.11234 0.11447 0.0
C320 C 0.51358 0.10173 0.20993 0.0
C321 C 0.5534 0.10395 0.33583 0.0
H322 H 0.51714 0.11609 0.43934 0.0
C323 C 0.55047 0.08868 0.5908 0.0
C324 C 0.54979 0.10439 0.63312 0.0
C325 C 0.54823 0.08966 0.52753 0.0
C326 C 0.52755 0.11284 0.41128 0.0
H327 H 0.56565 0.12774 0.12243 0.0
H328 H 0.57061 0.12585 0.2326 0.0
H329 H 0.51335 0.11824 0.32959 0.0
H330 H 0.54665 0.13367 0.64204 0.0
H331 H 0.5429 0.13549 0.53192 0.0
H332 H 0.56801 0.09911 0.41798 0.0
C333 C 0.55376 0.1191 0.20924 0.0
C334 C 0.52517 0.11378 0.34809 0.0
C335 C 0.55094 0.12022 0.14612 0.0
C336 C 0.54685 0.12109 0.61066 0.0
C337 C 0.5447 0.12213 0.54745 0.0
C338 C 0.55583 0.10306 0.39915 0.0
C339 C 0.53511 0.10999 0.24202 0.0
C340 C 0.53799 0.10927 0.30948 0.0
C341 C 0.54535 0.10642 0.50504 0.0
C342 C 0.5429 0.10745 0.43766 0.0
H343 H 0.49395 0.0963 0.12384 0.0
H344 H 0.49877 0.09414 0.23329 0.0
H345 H 0.56341 0.10019 0.30744 0.0
H346 H 0.55242 0.07543 0.60646 0.0
H347 H 0.54843 0.07706 0.49619 0.0
C348 C 0.44126 0.54506 0.88574 0.0
C349 C 0.46129 0.56342 0.91774 0.0
C350 C 0.43842 0.54061 0.82135 0.0
C351 C 0.46854 0.55348 0.68322 0.0
H352 H 0.41223 0.54353 0.60258 0.0
C353 C 0.45468 0.56157 0.42398 0.0
C354 C 0.43291 0.54794 0.39168 0.0
C355 C 0.45874 0.5613 0.48738 0.0
C356 C 0.42792 0.54587 0.62395 0.0
H357 H 0.49459 0.59049 0.90726 0.0
H358 H 0.48968 0.58276 0.79523 0.0
H359 H 0.41812 0.54599 0.71387 0.0
H360 H 0.39869 0.52229 0.39952 0.0
H361 H 0.40575 0.52127 0.50898 0.0
H362 H 0.47837 0.55345 0.59307 0.0
C363 C 0.47611 0.57183 0.81974 0.0
C364 C 0.43129 0.5473 0.68807 0.0
C365 C 0.47887 0.57638 0.88401 0.0
C366 C 0.41555 0.53329 0.42343 0.0
C367 C 0.41962 0.53282 0.48637 0.0
C368 C 0.4651 0.55188 0.61884 0.0
C369 C 0.45562 0.55427 0.78741 0.0
C370 C 0.45169 0.55128 0.71868 0.0
C371 C 0.44113 0.54722 0.51975 0.0
C372 C 0.44477 0.54818 0.58825 0.0
H373 H 0.42735 0.53479 0.9101 0.0
H374 H 0.42254 0.52675 0.79799 0.0
H375 H 0.4844 0.55637 0.70525 0.0
H376 H 0.46834 0.57314 0.40083 0.0
H377 H 0.47549 0.57277 0.51137 0.0
C378 C 0.887 0.46597 0.99729 0.0
C379 C 0.87431 0.475 0.01811 0.0
C380 C 0.89209 0.46691 0.93661 0.0
C381 C 0.89345 0.49487 0.79756 0.0
H382 H 0.88485 0.44036 0.7096 0.0
C383 C 0.88239 0.47724 0.5303 0.0
C384 C 0.89072 0.46448 0.50373 0.0
C385 C 0.88355 0.48103 0.59448 0.0
C386 C 0.88772 0.45589 0.73353 0.0
H387 H 0.85817 0.49321 0.99216 0.0
H388 H 0.86667 0.49454 0.88678 0.0
H389 H 0.88157 0.44244 0.81895 0.0
H390 H 0.90823 0.44709 0.52387 0.0
H391 H 0.9106 0.45394 0.63533 0.0
H392 H 0.89923 0.50815 0.71165 0.0
C393 C 0.87278 0.48676 0.91709 0.0
C394 C 0.88584 0.45708 0.79648 0.0
C395 C 0.86765 0.48576 0.97749 0.0
C396 C 0.9013 0.45664 0.54286 0.0
C397 C 0.90256 0.46049 0.60682 0.0
C398 C 0.89535 0.49368 0.73449 0.0
C399 C 0.88475 0.47703 0.8954 0.0
C400 C 0.88845 0.47649 0.82931 0.0
C401 C 0.89317 0.47222 0.63357 0.0
C402 C 0.89232 0.4741 0.70146 0.0
H403 H 0.89235 0.45751 0.02717 0.0
H404 H 0.9016 0.45949 0.92178 0.0
H405 H 0.89589 0.51021 0.82146 0.0
H406 H 0.87395 0.48332 0.50145 0.0
H407 H 0.87599 0.48999 0.61326 0.0
C408 C 0.41085 0.90741 0.47017 0.0
C409 C 0.3932 0.89184 0.42482 0.0
C410 C 0.40787 0.90777 0.53239 0.0
C411 C 0.36472 0.88486 0.64108 0.0
H412 H 0.41503 0.89254 0.75112 0.0
C413 C 0.35573 0.85341 0.87886 0.0
C414 C 0.37297 0.86629 0.92819 0.0
C415 C 0.35789 0.85967 0.81974 0.0
C416 C 0.40093 0.89072 0.72136 0.0
H417 H 0.35829 0.86507 0.40893 0.0
H418 H 0.35304 0.8653 0.51764 0.0
H419 H 0.41902 0.8977 0.64375 0.0
H420 H 0.40575 0.89641 0.95403 0.0
H421 H 0.40958 0.9074 0.85045 0.0
H422 H 0.34643 0.87704 0.71879 0.0
C423 C 0.36916 0.87758 0.50528 0.0
C424 C 0.40321 0.89372 0.65952 0.0
C425 C 0.3721 0.87743 0.44279 0.0
C426 C 0.39216 0.88609 0.91718 0.0
C427 C 0.39442 0.89229 0.85771 0.0
C428 C 0.3624 0.88169 0.70293 0.0
C429 C 0.38722 0.89234 0.55119 0.0
C430 C 0.38507 0.89062 0.61818 0.0
C431 C 0.37741 0.87898 0.80806 0.0
C432 C 0.3804 0.88432 0.74371 0.0
H433 H 0.42723 0.91886 0.45751 0.0
H434 H 0.422 0.91983 0.56592 0.0
H435 H 0.35049 0.88268 0.61117 0.0
H436 H 0.34054 0.83828 0.8858 0.0
H437 H 0.34453 0.84893 0.78268 0.0
C438 C 0.62516 0.39871 0.34857 0.0
C439 C 0.61493 0.40624 0.3071 0.0
C440 C 0.62532 0.40254 0.41203 0.0
C441 C 0.5954 0.41482 0.5263 0.0
H442 H 0.64769 0.4295 0.6404 0.0
C443 C 0.60186 0.4389 0.78798 0.0
C444 C 0.6113 0.4303 0.82821 0.0
C445 C 0.60252 0.43635 0.72458 0.0
C446 C 0.63285 0.42516 0.6092 0.0
H447 H 0.59699 0.42392 0.30037 0.0
H448 H 0.59761 0.43097 0.41122 0.0
H449 H 0.64885 0.42505 0.52984 0.0
H450 H 0.62899 0.41231 0.83277 0.0
H451 H 0.62985 0.40755 0.72209 0.0
H452 H 0.57939 0.41489 0.60568 0.0
C453 C 0.6053 0.42184 0.39447 0.0
C454 C 0.63352 0.42264 0.54575 0.0
C455 C 0.60517 0.41804 0.33089 0.0
C456 C 0.62138 0.41899 0.80325 0.0
C457 C 0.6221 0.41649 0.73978 0.0
C458 C 0.59474 0.41737 0.58975 0.0
C459 C 0.61525 0.41401 0.43585 0.0
C460 C 0.61478 0.41735 0.50345 0.0
C461 C 0.61268 0.42514 0.69963 0.0
C462 C 0.61343 0.42251 0.63204 0.0
H463 H 0.6331 0.38983 0.33208 0.0
H464 H 0.63295 0.39607 0.44238 0.0
H465 H 0.58052 0.41038 0.49516 0.0
H466 H 0.59372 0.44746 0.80533 0.0
H467 H 0.59529 0.44341 0.69516 0.0
C468 C 0.22189 0.52022 0.12728 0.0
C469 C 0.21392 0.52372 0.07109 0.0
C470 C 0.23796 0.51388 0.12964 0.0
C471 C 0.2674 0.4938 0.03119 0.0
H472 H 0.31721 0.52827 0.16201 0.0
C473 C 0.35895 0.51976 1.0101 0.0
C474 C 0.37314 0.52211 0.06274 0.0
C475 C 0.33647 0.51298 1.01358 0.0
C476 C 0.30326 0.5181 0.12588 0.0
H477 H 0.21546 0.52172 0.97272 0.0
H478 H 0.24397 0.51156 0.9771 0.0
H479 H 0.28316 0.52964 0.16439 0.0
H480 H 0.37407 0.51646 0.15823 0.0
H481 H 0.33491 0.50508 0.16463 0.0
H482 H 0.28821 0.48332 0.99109 0.0
C483 C 0.23771 0.51346 0.01939 0.0
C484 C 0.28367 0.51887 0.12724 0.0
C485 C 0.2216 0.51967 0.017 0.0
C486 C 0.36381 0.51558 0.11744 0.0
C487 C 0.34135 0.50896 0.12106 0.0
C488 C 0.2871 0.49317 0.02962 0.0
C489 C 0.24647 0.51093 0.0759 0.0
C490 C 0.26572 0.50724 0.07904 0.0
C491 C 0.32769 0.50839 0.06973 0.0
C492 C 0.30546 0.5058 0.07615 0.0
H493 H 0.21636 0.52321 0.16983 0.0
H494 H 0.24407 0.51175 0.17383 0.0
H495 H 0.25373 0.48425 0.99396 0.0
H496 H 0.36549 0.52444 0.96701 0.0
H497 H 0.32641 0.51278 0.97324 0.0
C498 C 0.65226 0.20337 0.95503 0.0
C499 C 0.63341 0.19561 0.98672 0.0
C500 C 0.67248 0.22306 0.97888 0.0
C501 C 0.70395 0.26201 0.12171 0.0
H502 H 0.73258 0.30599 1.01087 0.0
C503 C 0.77175 0.35417 0.20969 0.0
C504 C 0.78964 0.36541 0.17531 0.0
C505 C 0.75372 0.33264 0.18729 0.0
C506 C 0.72506 0.29379 0.04232 0.0
H507 H 0.62121 0.20183 0.0694 0.0
H508 H 0.65645 0.2362 0.11093 0.0
H509 H 0.69965 0.26951 0.97099 0.0
H510 H 0.80248 0.36267 0.09014 0.0
H511 H 0.77146 0.32492 0.05211 0.0
H512 H 0.7293 0.28626 0.19311 0.0
C513 C 0.65563 0.2271 0.06768 0.0
C514 C 0.70615 0.27287 0.0194 0.0
C515 C 0.63539 0.20755 0.04361 0.0
C516 C 0.78916 0.35445 0.11828 0.0
C517 C 0.77119 0.33288 0.09603 0.0
C518 C 0.72295 0.28288 0.14459 0.0
C519 C 0.67431 0.23524 0.0352 0.0
C520 C 0.69525 0.25685 0.05895 0.0
C521 C 0.75316 0.32176 0.13005 0.0
C522 C 0.7336 0.29913 0.1053 0.0
H523 H 0.65119 0.19455 0.91097 0.0
H524 H 0.68666 0.22883 0.9531 0.0
H525 H 0.69607 0.24989 0.15315 0.0
H526 H 0.77168 0.36197 0.25411 0.0
H527 H 0.74001 0.32471 0.21443 0.0
C528 C 0.43486 0.65674 0.11733 0.0
C529 C 0.43448 0.64695 0.17101 0.0
C530 C 0.43374 0.67609 0.11943 0.0
C531 C 0.44188 0.72414 0.22438 0.0
H532 H 0.40165 0.72577 0.09596 0.0
C533 C 0.41498 0.7898 0.23871 0.0
C534 C 0.41248 0.79799 0.18413 0.0
C535 C 0.41957 0.77257 0.2374 0.0
C536 C 0.41322 0.72575 0.13165 0.0
H537 H 0.43294 0.64999 0.26919 0.0
H538 H 0.43094 0.68388 0.27288 0.0
H539 H 0.40598 0.69339 0.0935 0.0
H540 H 0.41335 0.79482 0.08556 0.0
H541 H 0.42186 0.76511 0.08349 0.0
H542 H 0.449 0.7565 0.26271 0.0
C543 C 0.43232 0.67665 0.22926 0.0
C544 C 0.41568 0.70717 0.13029 0.0
C545 C 0.43344 0.65724 0.22715 0.0
C546 C 0.41533 0.78901 0.12849 0.0
C547 C 0.41994 0.77179 0.12719 0.0
C548 C 0.43945 0.74278 0.22569 0.0
C549 C 0.43224 0.68615 0.17528 0.0
C550 C 0.42999 0.70613 0.17667 0.0
C551 C 0.42178 0.76315 0.18149 0.0
C552 C 0.42505 0.74376 0.17939 0.0
H553 H 0.43617 0.64951 0.07358 0.0
H554 H 0.43414 0.68325 0.07727 0.0
H555 H 0.45325 0.72393 0.26036 0.0
H556 H 0.4132 0.79658 0.28247 0.0
H557 H 0.42074 0.76619 0.27998 0.0
C558 C 0.8175 0.48507 0.37654 0.0
C559 C 0.83104 0.48666 0.33061 0.0
C560 C 0.8015 0.49136 0.36798 0.0
C561 C 0.75719 0.48401 0.31191 0.0
H562 H 0.75926 0.52461 0.19878 0.0
C563 C 0.69546 0.47603 0.10008 0.0
C564 C 0.67508 0.46644 0.12502 0.0
C565 C 0.71597 0.48751 0.13862 0.0
C566 C 0.75848 0.51339 0.2311 0.0
H567 H 0.84019 0.49856 0.24293 0.0
H568 H 0.81177 0.50842 0.22657 0.0
H569 H 0.79432 0.52895 0.24641 0.0
H570 H 0.6601 0.46307 0.20954 0.0
H571 H 0.69604 0.48296 0.27709 0.0
H572 H 0.72141 0.46792 0.29482 0.0
C573 C 0.81349 0.50258 0.26965 0.0
C574 C 0.77854 0.51577 0.25811 0.0
C575 C 0.82969 0.49662 0.27865 0.0
C576 C 0.67556 0.47027 0.189 0.0
C577 C 0.69612 0.48156 0.22769 0.0
C578 C 0.73722 0.48182 0.2855 0.0
C579 C 0.79851 0.49912 0.31297 0.0
C580 C 0.77809 0.5004 0.29651 0.0
C581 C 0.71648 0.48943 0.20293 0.0
C582 C 0.73759 0.49581 0.24261 0.0
H583 H 0.81844 0.47792 0.41781 0.0
H584 H 0.79074 0.48909 0.40322 0.0
H585 H 0.75599 0.47165 0.34056 0.0
H586 H 0.69558 0.47346 0.05089 0.0
H587 H 0.73132 0.49323 0.11806 0.0
C588 C 0.1943 0.63841 0.04431 0.0
C589 C 0.2052 0.62657 0.05599 0.0
C590 C 0.20666 0.6619 0.0517 0.0
C591 C 0.23992 0.71318 0.05755 0.0
H592 H 0.28164 0.73567 0.20876 0.0
C593 C 0.31013 0.80638 0.13363 0.0
C594 C 0.31627 0.81394 0.19718 0.0
C595 C 0.29324 0.7842 0.11221 0.0
C596 C 0.26987 0.72972 0.16686 0.0
H597 H 0.23757 0.62967 0.07777 0.0
H598 H 0.25909 0.67041 0.08893 0.0
H599 H 0.2598 0.69577 0.17397 0.0
H600 H 0.30761 0.80487 0.28769 0.0
H601 H 0.2779 0.76648 0.25035 0.0
H602 H 0.25017 0.74747 0.05106 0.0
C603 C 0.24103 0.66174 0.07609 0.0
C604 C 0.2576 0.70683 0.14633 0.0
C605 C 0.22873 0.63841 0.06929 0.0
C606 C 0.30362 0.79954 0.23848 0.0
C607 C 0.28667 0.77745 0.2171 0.0
C608 C 0.25238 0.73628 0.07808 0.0
C609 C 0.23003 0.67377 0.07049 0.0
C610 C 0.24268 0.69827 0.09117 0.0
C611 C 0.28201 0.76924 0.15398 0.0
C612 C 0.26753 0.74478 0.13299 0.0
H613 H 0.17613 0.62965 0.03423 0.0
H614 H 0.19774 0.67074 0.04693 0.0
H615 H 0.22848 0.70703 0.01497 0.0
H616 H 0.31903 0.81727 0.10049 0.0
H617 H 0.28996 0.77847 0.06327 0.0
C618 C 0.50927 0.15667 0.82718 0.0
C619 C 0.53015 0.16275 0.80747 0.0
C620 C 0.50161 0.17166 0.82888 0.0
C621 C 0.51507 0.2278 0.7874 0.0
H622 H 0.49863 0.23464 0.94871 0.0
C623 C 0.52832 0.31212 0.8901 0.0
C624 C 0.54158 0.3194 0.94786 0.0
C625 C 0.51709 0.28944 0.86522 0.0
C626 C 0.50295 0.23286 0.90313 0.0
H627 H 0.55845 0.18859 0.7694 0.0
H628 H 0.54553 0.21476 0.77383 0.0
H629 H 0.49772 0.20052 0.91253 0.0
H630 H 0.55225 0.30894 0.027 0.0
H631 H 0.53289 0.26969 0.98427 0.0
H632 H 0.52242 0.2611 0.78076 0.0
C633 C 0.53479 0.19839 0.78725 0.0
C634 C 0.5022 0.21314 0.88198 0.0
C635 C 0.54237 0.18341 0.78529 0.0
C636 C 0.54214 0.30363 0.98224 0.0
C637 C 0.53085 0.2811 0.95784 0.0
C638 C 0.51605 0.24763 0.80886 0.0
C639 C 0.5147 0.19304 0.81107 0.0
C640 C 0.50946 0.21089 0.82529 0.0
C641 C 0.51881 0.2738 0.89818 0.0
C642 C 0.51122 0.25085 0.86844 0.0
H643 H 0.49928 0.14073 0.84374 0.0
H644 H 0.48587 0.16683 0.84646 0.0
H645 H 0.52019 0.22636 0.74277 0.0
H646 H 0.52774 0.32409 0.86284 0.0
H647 H 0.50783 0.28431 0.81931 0.0
loop_
_geom_bond_atom_site_label_1
_geom_bond_atom_site_label_2
_geom_bond_distance
_geom_bond_site_symmetry_2
_ccdc_geom_bond_type
C0 C1 1.351 . S
C0 N3 1.368 . S
C0 H5 0.931 . S
C1 C0 1.351 . S
C1 N2 1.373 . S
C1 H29 0.930 . S
N2 C1 1.373 . S
N2 C4 1.340 . S
N3 C0 1.368 . S
N3 C4 1.321 . S
N3 Co6 2.135 1_556 S
C4 N2 1.340 . S
C4 N3 1.321 . S
C4 H28 0.930 . S
H5 C0 0.931 . S
Co6 N3 2.135 1_554 S
Co6 N9 2.121 . S
Co6 O14 2.055 . S
Co6 O17 2.039 . S
Co6 N20 2.140 . S
C7 O8 1.227 . S
C7 O17 1.265 . S
O8 C7 1.227 . S
N9 Co6 2.121 . S
N9 C11 1.375 . S
N9 C12 1.313 . S
C10 C11 1.338 . S
C10 N13 1.377 . S
C10 H30 0.930 . S
C11 N9 1.375 . S
C11 C10 1.338 . S
C11 H15 0.931 . S
C12 N9 1.313 . S
C12 N13 1.344 . S
C12 H16 0.930 . S
N13 C10 1.377 . S
N13 C12 1.344 . S
O14 Co6 2.055 . S
O14 C18 1.253 . S
H15 C11 0.931 . S
H16 C12 0.930 . S
O17 Co6 2.039 . S
O17 C7 1.265 . S
C18 O14 1.253 . S
C18 O19 1.227 . S
O19 C18 1.227 . S
N20 Co6 2.140 . S
N20 C23 1.346 . S
N20 C24 1.345 . S
C21 C22 1.387 . S
C21 C25 1.391 . S
C22 C21 1.387 . S
C22 C23 1.369 . S
C22 H31 0.929 1_554 S
C23 N20 1.346 . S
C23 C22 1.369 . S
C23 H26 0.928 1_554 S
C24 N20 1.345 . S
C24 C25 1.371 . S
C24 H27 0.931 . S
C25 C21 1.391 . S
C25 C24 1.371 . S
C25 H32 0.930 . S
H26 C23 0.928 1_556 S
H27 C24 0.931 . S
H28 C4 0.930 . S
H29 C1 0.930 . S
H30 C10 0.930 . S
H31 C22 0.929 1_556 S
H32 C25 0.930 . S
C33 C34 1.351 . S
C33 N36 1.368 . S
C33 H38 0.931 . S
C34 C33 1.351 . S
C34 N35 1.373 . S
C34 H62 0.930 . S
N35 C34 1.373 . S
N35 C37 1.340 . S
N36 C33 1.368 . S
N36 C37 1.321 . S
N36 Co39 2.135 1_556 S
C37 N35 1.340 . S
C37 N36 1.321 . S
C37 H61 0.930 . S
H38 C33 0.931 . S
Co39 N36 2.135 1_554 S
Co39 N42 2.121 . S
Co39 O47 2.055 . S
Co39 O50 2.039 . S
Co39 N53 2.140 . S
C40 O41 1.227 . S
C40 O50 1.265 . S
O41 C40 1.227 . S
N42 Co39 2.121 . S
N42 C44 1.375 . S
N42 C45 1.313 . S
C43 C44 1.338 . S
C43 N46 1.377 . S
C43 H63 0.930 . S
C44 N42 1.375 . S
C44 C43 1.338 . S
C44 H48 0.931 . S
C45 N42 1.313 . S
C45 N46 1.344 . S
C45 H49 0.930 . S
N46 C43 1.377 . S
N46 C45 1.344 . S
O47 Co39 2.055 . S
O47 C51 1.253 . S
H48 C44 0.931 . S
H49 C45 0.930 . S
O50 Co39 2.039 . S
O50 C40 1.265 . S
C51 O47 1.253 . S
C51 O52 1.227 . S
O52 C51 1.227 . S
N53 Co39 2.140 . S
N53 C56 1.346 . S
N53 C57 1.345 . S
C54 C55 1.387 . S
C54 C58 1.391 . S
C55 C54 1.387 . S
C55 C56 1.369 . S
C55 H64 0.929 1_554 S
C56 N53 1.346 . S
C56 C55 1.369 . S
C56 H59 0.928 1_554 S
C57 N53 1.345 . S
C57 C58 1.371 . S
C57 H60 0.931 . S
C58 C54 1.391 . S
C58 C57 1.371 . S
C58 H65 0.930 . S
H59 C56 0.928 1_556 S
H60 C57 0.931 . S
H61 C37 0.930 . S
H62 C34 0.930 . S
H63 C43 0.930 . S
H64 C55 0.929 1_556 S
H65 C58 0.930 . S
C66 C67 1.351 . S
C66 N69 1.368 1_556 S
C66 H71 0.931 1_556 S
C67 C66 1.351 . S
C67 N68 1.373 . S
C67 H95 0.930 . S
N68 C67 1.373 . S
N68 C70 1.340 . S
N69 C66 1.368 1_554 S
N69 C70 1.321 1_554 S
N69 Co72 2.135 . S
C70 N68 1.340 . S
C70 N69 1.321 1_556 S
C70 H94 0.930 . S
H71 C66 0.931 1_554 S
Co72 N69 2.135 . S
Co72 N75 2.121 . S
Co72 O80 2.055 . S
Co72 O83 2.039 . S
Co72 N86 2.140 . S
C73 O74 1.227 . S
C73 O83 1.265 . S
O74 C73 1.227 . S
N75 Co72 2.121 . S
N75 C77 1.375 . S
N75 C78 1.313 . S
C76 C77 1.338 . S
C76 N79 1.377 . S
C76 H96 0.930 . S
C77 N75 1.375 . S
C77 C76 1.338 . S
C77 H81 0.931 . S
C78 N75 1.313 . S
C78 N79 1.344 . S
C78 H82 0.930 . S
N79 C76 1.377 . S
N79 C78 1.344 . S
O80 Co72 2.055 . S
O80 C84 1.253 . S
H81 C77 0.931 . S
H82 C78 0.930 . S
O83 Co72 2.039 . S
O83 C73 1.265 . S
C84 O80 1.253 . S
C84 O85 1.227 . S
O85 C84 1.227 . S
N86 Co72 2.140 . S
N86 C89 1.346 . S
N86 C90 1.345 . S
C87 C88 1.387 . S
C87 C91 1.391 . S
C88 C87 1.387 . S
C88 C89 1.369 . S
C88 H97 0.929 . S
C89 N86 1.346 . S
C89 C88 1.369 . S
C89 H92 0.928 . S
C90 N86 1.345 . S
C90 C91 1.371 . S
C90 H93 0.931 . S
C91 C87 1.391 . S
C91 C90 1.371 . S
C91 H98 0.930 . S
H92 C89 0.928 . S
H93 C90 0.931 . S
H94 C70 0.930 . S
H95 C67 0.930 . S
H96 C76 0.930 . S
H97 C88 0.929 . S
H98 C91 0.930 . S
C99 C100 1.351 . S
C99 N102 1.368 . S
C99 H104 0.931 . S
C100 C99 1.351 . S
C100 N101 1.373 . S
C100 H128 0.930 . S
N101 C100 1.373 . S
N101 C103 1.340 . S
N102 C99 1.368 . S
N102 C103 1.321 . S
N102 Co105 2.135 . S
C103 N101 1.340 . S
C103 N102 1.321 . S
C103 H127 0.930 . S
H104 C99 0.931 . S
Co105 N102 2.135 . S
Co105 N108 2.121 . S
Co105 O113 2.055 . S
Co105 O116 2.039 . S
Co105 N119 2.140 . S
C106 O107 1.227 . S
C106 O116 1.265 . S
O107 C106 1.227 . S
N108 Co105 2.121 . S
N108 C110 1.375 1_554 S
N108 C111 1.313 1_554 S
C109 C110 1.338 . S
C109 N112 1.377 . S
C109 H129 0.930 . S
C110 N108 1.375 1_556 S
C110 C109 1.338 . S
C110 H114 0.931 . S
C111 N108 1.313 1_556 S
C111 N112 1.344 . S
C111 H115 0.930 . S
N112 C109 1.377 . S
N112 C111 1.344 . S
O113 Co105 2.055 . S
O113 C117 1.253 . S
H114 C110 0.931 . S
H115 C111 0.930 . S
O116 Co105 2.039 . S
O116 C106 1.265 . S
C117 O113 1.253 . S
C117 O118 1.227 . S
O118 C117 1.227 . S
N119 Co105 2.140 . S
N119 C122 1.346 . S
N119 C123 1.345 . S
C120 C121 1.387 . S
C120 C124 1.391 . S
C121 C120 1.387 . S
C121 C122 1.369 . S
C121 H130 0.929 . S
C122 N119 1.346 . S
C122 C121 1.369 . S
C122 H125 0.928 . S
C123 N119 1.345 . S
C123 C124 1.371 . S
C123 H126 0.931 . S
C124 C120 1.391 . S
C124 C123 1.371 . S
C124 H131 0.930 . S
H125 C122 0.928 . S
H126 C123 0.931 . S
H127 C103 0.930 . S
H128 C100 0.930 . S
H129 C109 0.930 . S
H130 C121 0.929 . S
H131 C124 0.930 . S
C132 C133 1.351 . S
C132 N135 1.368 . S
C132 H137 0.931 . S
C133 C132 1.351 . S
C133 N134 1.373 . S
C133 H161 0.930 . S
N134 C133 1.373 . S
N134 C136 1.340 . S
N135 C132 1.368 . S
N135 C136 1.321 . S
N135 Co138 2.135 . S
C136 N134 1.340 . S
C136 N135 1.321 . S
C136 H160 0.930 . S
H137 C132 0.931 . S
Co138 N135 2.135 . S
Co138 N141 2.121 1_554 S
Co138 O146 2.055 . S
Co138 O149 2.039 . S
Co138 N152 2.140 . S
C139 O140 1.227 . S
C139 O149 1.265 . S
O140 C139 1.227 . S
N141 Co138 2.121 1_556 S
N141 C143 1.375 . S
N141 C144 1.313 . S
C142 C143 1.338 . S
C142 N145 1.377 . S
C142 H162 0.930 . S
C143 N141 1.375 . S
C143 C142 1.338 . S
C143 H147 0.931 . S
C144 N141 1.313 . S
C144 N145 1.344 . S
C144 H148 0.930 . S
N145 C142 1.377 . S
N145 C144 1.344 . S
O146 Co138 2.055 . S
O146 C150 1.253 . S
H147 C143 0.931 . S
H148 C144 0.930 . S
O149 Co138 2.039 . S
O149 C139 1.265 . S
C150 O146 1.253 . S
C150 O151 1.227 . S
O151 C150 1.227 . S
N152 Co138 2.140 . S
N152 C155 1.346 . S
N152 C156 1.345 . S
C153 C154 1.387 . S
C153 C157 1.391 . S
C154 C153 1.387 . S
C154 C155 1.369 . S
C154 H163 0.929 . S
C155 N152 1.346 . S
C155 C154 1.369 . S
C155 H158 0.928 . S
C156 N152 1.345 . S
C156 C157 1.371 . S
C156 H159 0.931 . S
C157 C153 1.391 . S
C157 C156 1.371 . S
C157 H164 0.930 . S
H158 C155 0.928 . S
H159 C156 0.931 . S
H160 C136 0.930 . S
H161 C133 0.930 . S
H162 C142 0.930 . S
H163 C154 0.929 . S
H164 C157 0.930 . S
C165 C166 1.351 . S
C165 N168 1.368 1_556 S
C165 H170 0.931 1_556 S
C166 C165 1.351 . S
C166 N167 1.373 . S
C166 H194 0.930 . S
N167 C166 1.373 . S
N167 C169 1.340 . S
N168 C165 1.368 1_554 S
N168 C169 1.321 1_554 S
N168 Co171 2.135 . S
C169 N167 1.340 . S
C169 N168 1.321 1_556 S
C169 H193 0.930 . S
H170 C165 0.931 1_554 S
Co171 N168 2.135 . S
Co171 N174 2.121 . S
Co171 O179 2.055 . S
Co171 O182 2.039 . S
Co171 N185 2.140 . S
C172 O173 1.227 . S
C172 O182 1.265 . S
O173 C172 1.227 . S
N174 Co171 2.121 . S
N174 C176 1.375 . S
N174 C177 1.313 . S
C175 C176 1.338 . S
C175 N178 1.377 . S
C175 H195 0.930 . S
C176 N174 1.375 . S
C176 C175 1.338 . S
C176 H180 0.931 . S
C177 N174 1.313 . S
C177 N178 1.344 . S
C177 H181 0.930 . S
N178 C175 1.377 . S
N178 C177 1.344 . S
O179 Co171 2.055 . S
O179 C183 1.253 . S
H180 C176 0.931 . S
H181 C177 0.930 . S
O182 Co171 2.039 . S
O182 C172 1.265 . S
C183 O179 1.253 . S
C183 O184 1.227 . S
O184 C183 1.227 . S
N185 Co171 2.140 . S
N185 C188 1.346 . S
N185 C189 1.345 . S
C186 C187 1.387 . S
C186 C190 1.391 . S
C187 C186 1.387 . S
C187 C188 1.369 . S
C187 H196 0.929 . S
C188 N185 1.346 . S
C188 C187 1.369 . S
C188 H191 0.928 . S
C189 N185 1.345 . S
C189 C190 1.371 . S
C189 H192 0.931 . S
C190 C186 1.391 . S
C190 C189 1.371 . S
C190 H197 0.930 . S
H191 C188 0.928 . S
H192 C189 0.931 . S
H193 C169 0.930 . S
H194 C166 0.930 . S
H195 C175 0.930 . S
H196 C187 0.929 . S
H197 C190 0.930 . S
C198 C199 1.349 . S
C198 C200 1.327 . S
C198 H223 0.950 1_554 S
C199 C198 1.349 . S
C199 C215 1.349 . S
C200 C198 1.327 . S
C200 C219 1.429 . S
C200 H224 0.950 . S
C201 C218 1.574 1_455 S
C201 C220 1.368 . S
C201 H225 0.949 . S
H202 C206 0.949 . S
C203 C204 1.349 . S
C203 C205 1.327 . S
C203 H226 0.950 . S
C204 C203 1.349 . S
C204 C216 1.349 . S
C205 C203 1.327 . S
C205 C221 1.429 . S
C205 H227 0.950 . S
C206 H202 0.949 . S
C206 C214 1.574 1_655 S
C206 C222 1.368 . S
H207 C215 0.950 . S
H208 C213 0.950 . S
H209 C214 0.949 . S
H210 C216 0.950 . S
H211 C217 0.950 . S
H212 C218 0.949 . S
C213 H208 0.950 . S
C213 C215 1.327 . S
C213 C219 1.429 . S
C214 C206 1.574 1_455 S
C214 H209 0.949 . S
C214 C220 1.368 . S
C215 C199 1.349 . S
C215 H207 0.950 . S
C215 C213 1.327 . S
C216 C204 1.349 . S
C216 H210 0.950 . S
C216 C217 1.327 . S
C217 H211 0.950 . S
C217 C216 1.327 . S
C217 C221 1.429 . S
C218 C201 1.574 1_655 S
C218 H212 0.949 . S
C218 C222 1.368 . S
C219 C200 1.429 . S
C219 C213 1.429 . S
C219 C220 1.523 . S
C220 C201 1.368 . S
C220 C214 1.368 . S
C220 C219 1.523 . S
C221 C205 1.429 . S
C221 C217 1.429 . S
C221 C222 1.523 . S
C222 C206 1.368 . S
C222 C218 1.368 . S
C222 C221 1.523 . S
H223 C198 0.950 1_556 S
H224 C200 0.950 . S
H225 C201 0.949 . S
H226 C203 0.950 . S
H227 C205 0.950 . S
C228 C229 1.349 . S
C228 C230 1.327 . S
C228 H253 0.950 . S
C229 C228 1.349 . S
C229 C245 1.349 . S
C230 C228 1.327 . S
C230 C249 1.429 . S
C230 H254 0.950 . S
C231 C248 1.574 1_565 S
C231 C250 1.368 . S
C231 H255 0.949 . S
H232 C236 0.949 1_556 S
C233 C234 1.349 . S
C233 C235 1.327 . S
C233 H256 0.950 . S
C234 C233 1.349 . S
C234 C246 1.349 . S
C235 C233 1.327 . S
C235 C251 1.429 . S
C235 H257 0.950 . S
C236 H232 0.949 1_554 S
C236 C244 1.574 1_545 S
C236 C252 1.368 . S
H237 C245 0.950 . S
H238 C243 0.950 . S
H239 C244 0.949 . S
H240 C246 0.950 1_556 S
H241 C247 0.950 1_556 S
H242 C248 0.949 . S
C243 H238 0.950 . S
C243 C245 1.327 . S
C243 C249 1.429 . S
C244 C236 1.574 1_565 S
C244 H239 0.949 . S
C244 C250 1.368 . S
C245 C229 1.349 . S
C245 H237 0.950 . S
C245 C243 1.327 . S
C246 C234 1.349 . S
C246 H240 0.950 1_554 S
C246 C247 1.327 . S
C247 H241 0.950 1_554 S
C247 C246 1.327 . S
C247 C251 1.429 . S
C248 C231 1.574 1_545 S
C248 H242 0.949 . S
C248 C252 1.368 . S
C249 C230 1.429 . S
C249 C243 1.429 . S
C249 C250 1.523 . S
C250 C231 1.368 . S
C250 C244 1.368 . S
C250 C249 1.523 . S
C251 C235 1.429 . S
C251 C247 1.429 . S
C251 C252 1.523 . S
C252 C236 1.368 . S
C252 C248 1.368 . S
C252 C251 1.523 . S
H253 C228 0.950 . S
H254 C230 0.950 . S
H255 C231 0.949 . S
H256 C233 0.950 . S
H257 C235 0.950 . S
C258 C259 1.349 . S
C258 C260 1.327 . S
C258 H283 0.950 . S
C259 C258 1.349 . S
C259 C275 1.349 . S
C260 C258 1.327 . S
C260 C279 1.429 . S
C260 H284 0.950 . S
C261 C278 1.574 . S
C261 C280 1.368 . S
C261 H285 0.949 . S
H262 C266 0.949 . S
C263 C264 1.349 . S
C263 C265 1.327 . S
C263 H286 0.950 . S
C264 C263 1.349 . S
C264 C276 1.349 . S
C265 C263 1.327 . S
C265 C281 1.429 . S
C265 H287 0.950 . S
C266 H262 0.949 . S
C266 C274 1.574 . S
C266 C282 1.368 . S
H267 C275 0.950 . S
H268 C273 0.950 . S
H269 C274 0.949 . S
H270 C276 0.950 . S
H271 C277 0.950 . S
H272 C278 0.949 . S
C273 H268 0.950 . S
C273 C275 1.327 . S
C273 C279 1.429 . S
C274 C266 1.574 . S
C274 H269 0.949 . S
C274 C280 1.368 . S
C275 C259 1.349 . S
C275 H267 0.950 . S
C275 C273 1.327 . S
C276 C264 1.349 . S
C276 H270 0.950 . S
C276 C277 1.327 . S
C277 H271 0.950 . S
C277 C276 1.327 . S
C277 C281 1.429 . S
C278 C261 1.574 . S
C278 H272 0.949 . S
C278 C282 1.368 . S
C279 C260 1.429 . S
C279 C273 1.429 . S
C279 C280 1.523 . S
C280 C261 1.368 . S
C280 C274 1.368 . S
C280 C279 1.523 . S
C281 C265 1.429 . S
C281 C277 1.429 . S
C281 C282 1.523 . S
C282 C266 1.368 . S
C282 C278 1.368 . S
C282 C281 1.523 . S
H283 C258 0.950 . S
H284 C260 0.950 . S
H285 C261 0.949 . S
H286 C263 0.950 . S
H287 C265 0.950 . S
C288 C289 1.349 . S
C288 C290 1.327 . S
C288 H313 0.950 . S
C289 C288 1.349 . S
C289 C305 1.349 . S
C290 C288 1.327 . S
C290 C309 1.429 . S
C290 H314 0.950 . S
C291 C308 1.574 . S
C291 C310 1.368 . S
C291 H315 0.949 . S
H292 C296 0.949 . S
C293 C294 1.349 . S
C293 C295 1.327 . S
C293 H316 0.950 . S
C294 C293 1.349 . S
C294 C306 1.349 . S
C295 C293 1.327 . S
C295 C311 1.429 . S
C295 H317 0.950 . S
C296 H292 0.949 . S
C296 C304 1.574 . S
C296 C312 1.368 . S
H297 C305 0.950 . S
H298 C303 0.950 . S
H299 C304 0.949 . S
H300 C306 0.950 . S
H301 C307 0.950 . S
H302 C308 0.949 . S
C303 H298 0.950 . S
C303 C305 1.327 . S
C303 C309 1.429 . S
C304 C296 1.574 . S
C304 H299 0.949 . S
C304 C310 1.368 . S
C305 C289 1.349 . S
C305 H297 0.950 . S
C305 C303 1.327 . S
C306 C294 1.349 . S
C306 H300 0.950 . S
C306 C307 1.327 . S
C307 H301 0.950 . S
C307 C306 1.327 . S
C307 C311 1.429 . S
C308 C291 1.574 . S
C308 H302 0.949 . S
C308 C312 1.368 . S
C309 C290 1.429 . S
C309 C303 1.429 . S
C309 C310 1.523 . S
C310 C291 1.368 . S
C310 C304 1.368 . S
C310 C309 1.523 . S
C311 C295 1.429 . S
C311 C307 1.429 . S
C311 C312 1.523 . S
C312 C296 1.368 . S
C312 C308 1.368 . S
C312 C311 1.523 . S
H313 C288 0.950 . S
H314 C290 0.950 . S
H315 C291 0.949 . S
H316 C293 0.950 . S
H317 C295 0.950 . S
C318 C319 1.349 . S
C318 C320 1.327 . S
C318 H343 0.950 . S
C319 C318 1.349 . S
C319 C335 1.349 . S
C320 C318 1.327 . S
C320 C339 1.429 . S
C320 H344 0.950 . S
C321 C338 1.574 . S
C321 C340 1.368 . S
C321 H345 0.949 . S
H322 C326 0.949 . S
C323 C324 1.349 . S
C323 C325 1.327 . S
C323 H346 0.950 . S
C324 C323 1.349 . S
C324 C336 1.349 . S
C325 C323 1.327 . S
C325 C341 1.429 . S
C325 H347 0.950 . S
C326 H322 0.949 . S
C326 C334 1.574 . S
C326 C342 1.368 . S
H327 C335 0.950 . S
H328 C333 0.950 . S
H329 C334 0.949 . S
H330 C336 0.950 . S
H331 C337 0.950 . S
H332 C338 0.949 . S
C333 H328 0.950 . S
C333 C335 1.327 . S
C333 C339 1.429 . S
C334 C326 1.574 . S
C334 H329 0.949 . S
C334 C340 1.368 . S
C335 C319 1.349 . S
C335 H327 0.950 . S
C335 C333 1.327 . S
C336 C324 1.349 . S
C336 H330 0.950 . S
C336 C337 1.327 . S
C337 H331 0.950 . S
C337 C336 1.327 . S
C337 C341 1.429 . S
C338 C321 1.574 . S
C338 H332 0.949 . S
C338 C342 1.368 . S
C339 C320 1.429 . S
C339 C333 1.429 . S
C339 C340 1.523 . S
C340 C321 1.368 . S
C340 C334 1.368 . S
C340 C339 1.523 . S
C341 C325 1.429 . S
C341 C337 1.429 . S
C341 C342 1.523 . S
C342 C326 1.368 . S
C342 C338 1.368 . S
C342 C341 1.523 . S
H343 C318 0.950 . S
H344 C320 0.950 . S
H345 C321 0.949 . S
H346 C323 0.950 . S
H347 C325 0.950 . S
C348 C349 1.349 . S
C348 C350 1.327 . S
C348 H373 0.950 . S
C349 C348 1.349 . S
C349 C365 1.349 . S
C350 C348 1.327 . S
C350 C369 1.429 . S
C350 H374 0.950 . S
C351 C368 1.574 . S
C351 C370 1.368 . S
C351 H375 0.949 . S
H352 C356 0.949 . S
C353 C354 1.349 . S
C353 C355 1.327 . S
C353 H376 0.950 . S
C354 C353 1.349 . S
C354 C366 1.349 . S
C355 C353 1.327 . S
C355 C371 1.429 . S
C355 H377 0.950 . S
C356 H352 0.949 . S
C356 C364 1.574 . S
C356 C372 1.368 . S
H357 C365 0.950 . S
H358 C363 0.950 . S
H359 C364 0.949 . S
H360 C366 0.950 . S
H361 C367 0.950 . S
H362 C368 0.949 . S
C363 H358 0.950 . S
C363 C365 1.327 . S
C363 C369 1.429 . S
C364 C356 1.574 . S
C364 H359 0.949 . S
C364 C370 1.368 . S
C365 C349 1.349 . S
C365 H357 0.950 . S
C365 C363 1.327 . S
C366 C354 1.349 . S
C366 H360 0.950 . S
C366 C367 1.327 . S
C367 H361 0.950 . S
C367 C366 1.327 . S
C367 C371 1.429 . S
C368 C351 1.574 . S
C368 H362 0.949 . S
C368 C372 1.368 . S
C369 C350 1.429 . S
C369 C363 1.429 . S
C369 C370 1.523 . S
C370 C351 1.368 . S
C370 C364 1.368 . S
C370 C369 1.523 . S
C371 C355 1.429 . S
C371 C367 1.429 . S
C371 C372 1.523 . S
C372 C356 1.368 . S
C372 C368 1.368 . S
C372 C371 1.523 . S
H373 C348 0.950 . S
H374 C350 0.950 . S
H375 C351 0.949 . S
H376 C353 0.950 . S
H377 C355 0.950 . S
C378 C379 1.349 . S
C378 C380 1.327 . S
C378 H403 0.950 . S
C379 C378 1.349 . S
C379 C395 1.349 . S
C380 C378 1.327 . S
C380 C399 1.429 . S
C380 H404 0.950 . S
C381 C398 1.574 . S
C381 C400 1.368 . S
C381 H405 0.949 . S
H382 C386 0.949 . S
C383 C384 1.349 . S
C383 C385 1.327 . S
C383 H406 0.950 . S
C384 C383 1.349 . S
C384 C396 1.349 . S
C385 C383 1.327 . S
C385 C401 1.429 . S
C385 H407 0.950 . S
C386 H382 0.949 . S
C386 C394 1.574 . S
C386 C402 1.368 . S
H387 C395 0.950 . S
H388 C393 0.950 . S
H389 C394 0.949 . S
H390 C396 0.950 . S
H391 C397 0.950 . S
H392 C398 0.949 . S
C393 H388 0.950 . S
C393 C395 1.327 . S
C393 C399 1.429 . S
C394 C386 1.574 . S
C394 H389 0.949 . S
C394 C400 1.368 . S
C395 C379 1.349 . S
C395 H387 0.950 . S
C395 C393 1.327 . S
C396 C384 1.349 . S
C396 H390 0.950 . S
C396 C397 1.327 . S
C397 H391 0.950 . S
C397 C396 1.327 . S
C397 C401 1.429 . S
C398 C381 1.574 . S
C398 H392 0.949 . S
C398 C402 1.368 . S
C399 C380 1.429 . S
C399 C393 1.429 . S
C399 C400 1.523 . S
C400 C381 1.368 . S
C400 C394 1.368 . S
C400 C399 1.523 . S
C401 C385 1.429 . S
C401 C397 1.429 . S
C401 C402 1.523 . S
C402 C386 1.368 . S
C402 C398 1.368 . S
C402 C401 1.523 . S
H403 C378 0.950 . S
H404 C380 0.950 . S
H405 C381 0.949 . S
H406 C383 0.950 . S
H407 C385 0.950 . S
C408 C409 1.349 . S
C408 C410 1.327 . S
C408 H433 0.950 . S
C409 C408 1.349 . S
C409 C425 1.349 . S
C410 C408 1.327 . S
C410 C429 1.429 . S
C410 H434 0.950 . S
C411 C428 1.574 . S
C411 C430 1.368 . S
C411 H435 0.949 . S
H412 C416 0.949 . S
C413 C414 1.349 . S
C413 C415 1.327 . S
C413 H436 0.950 . S
C414 C413 1.349 . S
C414 C426 1.349 . S
C415 C413 1.327 . S
C415 C431 1.429 . S
C415 H437 0.950 . S
C416 H412 0.949 . S
C416 C424 1.574 . S
C416 C432 1.368 . S
H417 C425 0.950 . S
H418 C423 0.950 . S
H419 C424 0.949 . S
H420 C426 0.950 . S
H421 C427 0.950 . S
H422 C428 0.949 . S
C423 H418 0.950 . S
C423 C425 1.327 . S
C423 C429 1.429 . S
C424 C416 1.574 . S
C424 H419 0.949 . S
C424 C430 1.368 . S
C425 C409 1.349 . S
C425 H417 0.950 . S
C425 C423 1.327 . S
C426 C414 1.349 . S
C426 H420 0.950 . S
C426 C427 1.327 . S
C427 H421 0.950 . S
C427 C426 1.327 . S
C427 C431 1.429 . S
C428 C411 1.574 . S
C428 H422 0.949 . S
C428 C432 1.368 . S
C429 C410 1.429 . S
C429 C423 1.429 . S
C429 C430 1.523 . S
C430 C411 1.368 . S
C430 C424 1.368 . S
C430 C429 1.523 . S
C431 C415 1.429 . S
C431 C427 1.429 . S
C431 C432 1.523 . S
C432 C416 1.368 . S
C432 C428 1.368 . S
C432 C431 1.523 . S
H433 C408 0.950 . S
H434 C410 0.950 . S
H435 C411 0.949 . S
H436 C413 0.950 . S
H437 C415 0.950 . S
C438 C439 1.349 . S
C438 C440 1.327 . S
C438 H463 0.950 . S
C439 C438 1.349 . S
C439 C455 1.349 . S
C440 C438 1.327 . S
C440 C459 1.429 . S
C440 H464 0.950 . S
C441 C458 1.574 . S
C441 C460 1.368 . S
C441 H465 0.949 . S
H442 C446 0.949 . S
C443 C444 1.349 . S
C443 C445 1.327 . S
C443 H466 0.950 . S
C444 C443 1.349 . S
C444 C456 1.349 . S
C445 C443 1.327 . S
C445 C461 1.429 . S
C445 H467 0.950 . S
C446 H442 0.949 . S
C446 C454 1.574 . S
C446 C462 1.368 . S
H447 C455 0.950 . S
H448 C453 0.950 . S
H449 C454 0.949 . S
H450 C456 0.950 . S
H451 C457 0.950 . S
H452 C458 0.949 . S
C453 H448 0.950 . S
C453 C455 1.327 . S
C453 C459 1.429 . S
C454 C446 1.574 . S
C454 H449 0.949 . S
C454 C460 1.368 . S
C455 C439 1.349 . S
C455 H447 0.950 . S
C455 C453 1.327 . S
C456 C444 1.349 . S
C456 H450 0.950 . S
C456 C457 1.327 . S
C457 H451 0.950 . S
C457 C456 1.327 . S
C457 C461 1.429 . S
C458 C441 1.574 . S
C458 H452 0.949 . S
C458 C462 1.368 . S
C459 C440 1.429 . S
C459 C453 1.429 . S
C459 C460 1.523 . S
C460 C441 1.368 . S
C460 C454 1.368 . S
C460 C459 1.523 . S
C461 C445 1.429 . S
C461 C457 1.429 . S
C461 C462 1.523 . S
C462 C446 1.368 . S
C462 C458 1.368 . S
C462 C461 1.523 . S
H463 C438 0.950 . S
H464 C440 0.950 . S
H465 C441 0.949 . S
H466 C443 0.950 . S
H467 C445 0.950 . S
C468 C469 1.349 . S
C468 C470 1.327 . S
C468 H493 0.950 . S
C469 C468 1.349 . S
C469 C485 1.349 1_554 S
C470 C468 1.327 . S
C470 C489 1.429 . S
C470 H494 0.950 . S
C471 C488 1.574 . S
C471 C490 1.368 . S
C471 H495 0.949 1_554 S
H472 C476 0.949 . S
C473 C474 1.349 . S
C473 C475 1.327 . S
C473 H496 0.939 1_554 S
C474 C473 1.349 . S
C474 C486 1.349 . S
C475 C473 1.327 . S
C475 C491 1.429 . S
C475 H497 0.950 1_554 S
C476 H472 0.949 . S
C476 C484 1.574 . S
C476 C492 1.368 . S
H477 C485 0.950 . S
H478 C483 0.947 1_556 S
H479 C484 0.949 . S
H480 C486 0.950 . S
H481 C487 0.950 . S
H482 C488 0.949 1_556 S
C483 H478 0.947 1_554 S
C483 C485 1.327 1_554 S
C483 C489 1.431 . S
C484 C476 1.574 . S
C484 H479 0.949 . S
C484 C490 1.368 . S
C485 C469 1.349 1_556 S
C485 H477 0.950 . S
C485 C483 1.327 1_556 S
C486 C474 1.349 . S
C486 H480 0.950 . S
C486 C487 1.327 . S
C487 H481 0.950 . S
C487 C486 1.327 . S
C487 C491 1.429 . S
C488 C471 1.574 . S
C488 H482 0.949 1_554 S
C488 C492 1.368 . S
C489 C470 1.429 . S
C489 C483 1.431 . S
C489 C490 1.523 . S
C490 C471 1.368 . S
C490 C484 1.368 . S
C490 C489 1.523 . S
C491 C475 1.429 . S
C491 C487 1.429 . S
C491 C492 1.523 . S
C492 C476 1.368 . S
C492 C488 1.368 . S
C492 C491 1.523 . S
H493 C468 0.950 . S
H494 C470 0.950 . S
H495 C471 0.949 1_556 S
H496 C473 0.939 1_556 S
H497 C475 0.950 1_556 S
C498 C499 1.349 . S
C498 C500 1.327 . S
C498 H523 0.950 1_554 S
C499 C498 1.349 . S
C499 C515 1.349 . S
C500 C498 1.327 . S
C500 C519 1.429 . S
C500 H524 0.950 1_554 S
C501 C518 1.574 . S
C501 C520 1.368 . S
C501 H525 0.949 . S
H502 C506 0.949 1_556 S
C503 C504 1.349 . S
C503 C505 1.327 . S
C503 H526 0.950 . S
C504 C503 1.349 . S
C504 C516 1.349 . S
C505 C503 1.327 . S
C505 C521 1.429 . S
C505 H527 0.950 . S
C506 H502 0.949 1_554 S
C506 C514 1.574 . S
C506 C522 1.368 . S
H507 C515 0.950 . S
H508 C513 0.950 . S
H509 C514 0.949 1_556 S
H510 C516 0.950 . S
H511 C517 0.950 1_556 S
H512 C518 0.949 . S
C513 H508 0.950 . S
C513 C515 1.327 . S
C513 C519 1.429 . S
C514 C506 1.574 . S
C514 H509 0.949 1_554 S
C514 C520 1.368 . S
C515 C499 1.349 . S
C515 H507 0.950 . S
C515 C513 1.327 . S
C516 C504 1.349 . S
C516 H510 0.950 . S
C516 C517 1.327 . S
C517 H511 0.950 1_554 S
C517 C516 1.327 . S
C517 C521 1.429 . S
C518 C501 1.574 . S
C518 H512 0.949 . S
C518 C522 1.368 . S
C519 C500 1.429 . S
C519 C513 1.429 . S
C519 C520 1.523 . S
C520 C501 1.368 . S
C520 C514 1.368 . S
C520 C519 1.523 . S
C521 C505 1.429 . S
C521 C517 1.429 . S
C521 C522 1.523 . S
C522 C506 1.368 . S
C522 C518 1.368 . S
C522 C521 1.523 . S
H523 C498 0.950 1_556 S
H524 C500 0.950 1_556 S
H525 C501 0.949 . S
H526 C503 0.950 . S
H527 C505 0.950 . S
C528 C529 1.349 . S
C528 C530 1.327 . S
C528 H553 0.950 . S
C529 C528 1.349 . S
C529 C545 1.349 . S
C530 C528 1.327 . S
C530 C549 1.429 . S
C530 H554 0.950 . S
C531 C548 1.574 . S
C531 C550 1.368 . S
C531 H555 0.949 . S
H532 C536 0.949 . S
C533 C534 1.349 . S
C533 C535 1.327 . S
C533 H556 0.950 . S
C534 C533 1.349 . S
C534 C546 1.349 . S
C535 C533 1.327 . S
C535 C551 1.429 . S
C535 H557 0.950 . S
C536 H532 0.949 . S
C536 C544 1.574 . S
C536 C552 1.368 . S
H537 C545 0.950 . S
H538 C543 0.950 . S
H539 C544 0.949 . S
H540 C546 0.950 . S
H541 C547 0.950 . S
H542 C548 0.949 . S
C543 H538 0.950 . S
C543 C545 1.327 . S
C543 C549 1.429 . S
C544 C536 1.574 . S
C544 H539 0.949 . S
C544 C550 1.368 . S
C545 C529 1.349 . S
C545 H537 0.950 . S
C545 C543 1.327 . S
C546 C534 1.349 . S
C546 H540 0.950 . S
C546 C547 1.327 . S
C547 H541 0.950 . S
C547 C546 1.327 . S
C547 C551 1.429 . S
C548 C531 1.574 . S
C548 H542 0.949 . S
C548 C552 1.368 . S
C549 C530 1.429 . S
C549 C543 1.429 . S
C549 C550 1.523 . S
C550 C531 1.368 . S
C550 C544 1.368 . S
C550 C549 1.523 . S
C551 C535 1.429 . S
C551 C547 1.429 . S
C551 C552 1.523 . S
C552 C536 1.368 . S
C552 C548 1.368 . S
C552 C551 1.523 . S
H553 C528 0.950 . S
H554 C530 0.950 . S
H555 C531 0.949 . S
H556 C533 0.950 . S
H557 C535 0.950 . S
C558 C559 1.349 . S
C558 C560 1.327 . S
C558 H583 0.950 . S
C559 C558 1.349 . S
C559 C575 1.349 . S
C560 C558 1.327 . S
C560 C579 1.429 . S
C560 H584 0.950 . S
C561 C578 1.574 . S
C561 C580 1.368 . S
C561 H585 0.949 . S
H562 C566 0.949 . S
C563 C564 1.349 . S
C563 C565 1.327 . S
C563 H586 0.950 . S
C564 C563 1.349 . S
C564 C576 1.349 . S
C565 C563 1.327 . S
C565 C581 1.429 . S
C565 H587 0.950 . S
C566 H562 0.949 . S
C566 C574 1.574 . S
C566 C582 1.368 . S
H567 C575 0.950 . S
H568 C573 0.950 . S
H569 C574 0.949 . S
H570 C576 0.950 . S
H571 C577 0.950 . S
H572 C578 0.949 . S
C573 H568 0.950 . S
C573 C575 1.327 . S
C573 C579 1.429 . S
C574 C566 1.574 . S
C574 H569 0.949 . S
C574 C580 1.368 . S
C575 C559 1.349 . S
C575 H567 0.950 . S
C575 C573 1.327 . S
C576 C564 1.349 . S
C576 H570 0.950 . S
C576 C577 1.327 . S
C577 H571 0.950 . S
C577 C576 1.327 . S
C577 C581 1.429 . S
C578 C561 1.574 . S
C578 H572 0.949 . S
C578 C582 1.368 . S
C579 C560 1.429 . S
C579 C573 1.429 . S
C579 C580 1.523 . S
C580 C561 1.368 . S
C580 C574 1.368 . S
C580 C579 1.523 . S
C581 C565 1.429 . S
C581 C577 1.429 . S
C581 C582 1.523 . S
C582 C566 1.368 . S
C582 C578 1.368 . S
C582 C581 1.523 . S
H583 C558 0.950 . S
H584 C560 0.950 . S
H585 C561 0.949 . S
H586 C563 0.950 . S
H587 C565 0.950 . S
C588 C589 1.349 . S
C588 C590 1.327 . S
C588 H613 0.950 . S
C589 C588 1.349 . S
C589 C605 1.349 . S
C590 C588 1.327 . S
C590 C609 1.429 . S
C590 H614 0.950 . S
C591 C608 1.574 . S
C591 C610 1.368 . S
C591 H615 0.949 1_554 S
H592 C596 0.949 . S
C593 C594 1.349 . S
C593 C595 1.327 . S
C593 H616 0.950 . S
C594 C593 1.349 . S
C594 C606 1.349 . S
C595 C593 1.327 . S
C595 C611 1.429 . S
C595 H617 0.950 . S
C596 H592 0.949 . S
C596 C604 1.574 . S
C596 C612 1.368 . S
H597 C605 0.950 1_556 S
H598 C603 0.950 1_556 S
H599 C604 0.949 . S
H600 C606 0.950 . S
H601 C607 0.950 . S
H602 C608 0.961 . S
C603 H598 0.950 1_554 S
C603 C605 1.327 . S
C603 C609 1.429 . S
C604 C596 1.574 . S
C604 H599 0.949 . S
C604 C610 1.368 . S
C605 C589 1.349 . S
C605 H597 0.950 1_554 S
C605 C603 1.327 . S
C606 C594 1.349 . S
C606 H600 0.950 . S
C606 C607 1.327 . S
C607 H601 0.950 . S
C607 C606 1.327 . S
C607 C611 1.429 . S
C608 C591 1.574 . S
C608 H602 0.961 . S
C608 C612 1.368 . S
C609 C590 1.429 . S
C609 C603 1.429 . S
C609 C610 1.523 . S
C610 C591 1.368 . S
C610 C604 1.368 . S
C610 C609 1.523 . S
C611 C595 1.429 . S
C611 C607 1.429 . S
C611 C612 1.523 . S
C612 C596 1.368 . S
C612 C608 1.368 . S
C612 C611 1.523 . S
H613 C588 0.950 . S
H614 C590 0.950 . S
H615 C591 0.949 1_556 S
H616 C593 0.950 . S
H617 C595 0.950 . S
C618 C619 1.349 . S
C618 C620 1.327 . S
C618 H643 0.950 . S
C619 C618 1.349 . S
C619 C635 1.349 1_554 S
C620 C618 1.327 . S
C620 C639 1.429 . S
C620 H644 0.950 . S
C621 C638 1.574 . S
C621 C640 1.368 . S
C621 H645 0.949 1_554 S
H622 C626 0.949 . S
C623 C624 1.349 . S
C623 C625 1.327 . S
C623 H646 0.950 . S
C624 C623 1.349 . S
C624 C636 1.349 . S
C625 C623 1.327 . S
C625 C641 1.429 . S
C625 H647 0.950 1_554 S
C626 H622 0.949 . S
C626 C634 1.574 . S
C626 C642 1.368 . S
H627 C635 0.950 . S
H628 C633 0.950 . S
H629 C634 0.949 . S
H630 C636 0.950 . S
H631 C637 0.950 . S
H632 C638 0.949 1_556 S
C633 H628 0.950 . S
C633 C635 1.327 . S
C633 C639 1.429 1_556 S
C634 C626 1.574 . S
C634 H629 0.949 . S
C634 C640 1.368 . S
C635 C619 1.349 1_556 S
C635 H627 0.950 . S
C635 C633 1.327 . S
C636 C624 1.349 . S
C636 H630 0.950 . S
C636 C637 1.327 . S
C637 H631 0.950 . S
C637 C636 1.327 . S
C637 C641 1.429 . S
C638 C621 1.574 . S
C638 H632 0.949 1_554 S
C638 C642 1.368 . S
C639 C620 1.429 . S
C639 C633 1.429 1_554 S
C639 C640 1.523 . S
C640 C621 1.368 . S
C640 C634 1.368 . S
C640 C639 1.523 . S
C641 C625 1.429 . S
C641 C637 1.429 . S
C641 C642 1.523 . S
C642 C626 1.368 . S
C642 C638 1.368 . S
C642 C641 1.523 . S
H643 C618 0.950 . S
H644 C620 0.950 . S
H645 C621 0.949 1_556 S
H646 C623 0.950 . S
H647 C625 0.950 1_556 S
C199 C18 0.844 . S
C204 C117 0.844 . S
C229 C150 0.721 . S
C234 C51 0.721 . S
C259 C183 0.824 . S
C264 C84 0.824 . S
C289 N13 1.442 . S
C294 N2 1.439 . S
C319 N46 1.443 . S
C324 N35 1.441 . S
C349 N68 1.443 . S
C354 N79 1.446 . S
C379 N112 1.441 . S
C384 N101 1.439 . S
C409 N134 1.439 . S
C414 N145 1.441 . S
C439 N178 1.444 . S
C444 N167 1.441 . S
C469 C21 0.518 . S
C474 C73 0.553 . S
C499 C54 0.476 . S
C504 C120 0.443 . S
C529 C87 0.460 . S
C534 C153 0.458 . S
C559 C106 0.625 . S
C564 C172 0.619 . S
C589 C7 0.641 . S
C594 C139 0.649 . S
C619 C40 0.567 . S
C624 C186 0.528 . S
