# Generated by pormake.
# Topology zfe, (5)-cn, num edge types: 1
# Building blocks:
#     Node 0, Type 0, BuildingBlock: BEQFEK_clean_sbu_0, # of connection points: 5
#     Node 1, Type 0, BuildingBlock: BEQFEK_clean_sbu_0, # of connection points: 5
#     Node 2, Type 0, BuildingBlock: BEQFEK_clean_sbu_0, # of connection points: 5
#     Node 3, Type 0, BuildingBlock: BEQFEK_clean_sbu_0, # of connection points: 5
#     Node 4, Type 0, BuildingBlock: BEQFEK_clean_sbu_0, # of connection points: 5
#     Node 5, Type 0, BuildingBlock: BEQFEK_clean_sbu_0, # of connection points: 5
#     Node 6, Type 0, BuildingBlock: BEQFEK_clean_sbu_0, # of connection points: 5
#     Node 7, Type 0, BuildingBlock: BEQFEK_clean_sbu_0, # of connection points: 5
#     Node 8, Type 0, BuildingBlock: BEQFEK_clean_sbu_0, # of connection points: 5
#     Node 9, Type 0, BuildingBlock: BEQFEK_clean_sbu_0, # of connection points: 5
#     Node 10, Type 0, BuildingBlock: BEQFEK_clean_sbu_0, # of connection points: 5
#     Node 11, Type 0, BuildingBlock: BEQFEK_clean_sbu_0, # of connection points: 5
#     Node 12, Type 0, BuildingBlock: BEQFEK_clean_sbu_0, # of connection points: 5
#     Node 13, Type 0, BuildingBlock: BEQFEK_clean_sbu_0, # of connection points: 5
#     Node 14, Type 0, BuildingBlock: BEQFEK_clean_sbu_0, # of connection points: 5
#     Node 15, Type 0, BuildingBlock: BEQFEK_clean_sbu_0, # of connection points: 5
#     Edge 16, Type (0, 0), BuildingBlock: MIFKUJ_clean_linker_0, # of connection points: 2
#     Edge 17, Type (0, 0), BuildingBlock: MIFKUJ_clean_linker_0, # of connection points: 2
#     Edge 18, Type (0, 0), BuildingBlock: MIFKUJ_clean_linker_0, # of connection points: 2
#     Edge 19, Type (0, 0), BuildingBlock: MIFKUJ_clean_linker_0, # of connection points: 2
#     Edge 20, Type (0, 0), BuildingBlock: MIFKUJ_clean_linker_0, # of connection points: 2
#     Edge 21, Type (0, 0), BuildingBlock: MIFKUJ_clean_linker_0, # of connection points: 2
#     Edge 22, Type (0, 0), BuildingBlock: MIFKUJ_clean_linker_0, # of connection points: 2
#     Edge 23, Type (0, 0), BuildingBlock: MIFKUJ_clean_linker_0, # of connection points: 2
#     Edge 24, Type (0, 0), BuildingBlock: MIFKUJ_clean_linker_0, # of connection points: 2
#     Edge 25, Type (0, 0), BuildingBlock: MIFKUJ_clean_linker_0, # of connection points: 2
#     Edge 26, Type (0, 0), BuildingBlock: MIFKUJ_clean_linker_0, # of connection points: 2
#     Edge 27, Type (0, 0), BuildingBlock: MIFKUJ_clean_linker_0, # of connection points: 2
#     Edge 28, Type (0, 0), BuildingBlock: MIFKUJ_clean_linker_0, # of connection points: 2
#     Edge 29, Type (0, 0), BuildingBlock: MIFKUJ_clean_linker_0, # of connection points: 2
#     Edge 30, Type (0, 0), BuildingBlock: MIFKUJ_clean_linker_0, # of connection points: 2
#     Edge 31, Type (0, 0), BuildingBlock: MIFKUJ_clean_linker_0, # of connection points: 2
#     Edge 32, Type (0, 0), BuildingBlock: MIFKUJ_clean_linker_0, # of connection points: 2
#     Edge 33, Type (0, 0), BuildingBlock: MIFKUJ_clean_linker_0, # of connection points: 2
#     Edge 34, Type (0, 0), BuildingBlock: MIFKUJ_clean_linker_0, # of connection points: 2
#     Edge 35, Type (0, 0), BuildingBlock: MIFKUJ_clean_linker_0, # of connection points: 2
#     Edge 36, Type (0, 0), BuildingBlock: MIFKUJ_clean_linker_0, # of connection points: 2
#     Edge 37, Type (0, 0), BuildingBlock: MIFKUJ_clean_linker_0, # of connection points: 2
#     Edge 38, Type (0, 0), BuildingBlock: MIFKUJ_clean_linker_0, # of connection points: 2
#     Edge 39, Type (0, 0), BuildingBlock: MIFKUJ_clean_linker_0, # of connection points: 2
#     Edge 40, Type (0, 0), BuildingBlock: MIFKUJ_clean_linker_0, # of connection points: 2
#     Edge 41, Type (0, 0), BuildingBlock: MIFKUJ_clean_linker_0, # of connection points: 2
#     Edge 42, Type (0, 0), BuildingBlock: MIFKUJ_clean_linker_0, # of connection points: 2
#     Edge 43, Type (0, 0), BuildingBlock: MIFKUJ_clean_linker_0, # of connection points: 2
#     Edge 44, Type (0, 0), BuildingBlock: MIFKUJ_clean_linker_0, # of connection points: 2
#     Edge 45, Type (0, 0), BuildingBlock: MIFKUJ_clean_linker_0, # of connection points: 2
#     Edge 46, Type (0, 0), BuildingBlock: MIFKUJ_clean_linker_0, # of connection points: 2
#     Edge 47, Type (0, 0), BuildingBlock: MIFKUJ_clean_linker_0, # of connection points: 2
#     Edge 48, Type (0, 0), BuildingBlock: MIFKUJ_clean_linker_0, # of connection points: 2
#     Edge 49, Type (0, 0), BuildingBlock: MIFKUJ_clean_linker_0, # of connection points: 2
#     Edge 50, Type (0, 0), BuildingBlock: MIFKUJ_clean_linker_0, # of connection points: 2
#     Edge 51, Type (0, 0), BuildingBlock: MIFKUJ_clean_linker_0, # of connection points: 2
#     Edge 52, Type (0, 0), BuildingBlock: MIFKUJ_clean_linker_0, # of connection points: 2
#     Edge 53, Type (0, 0), BuildingBlock: MIFKUJ_clean_linker_0, # of connection points: 2
#     Edge 54, Type (0, 0), BuildingBlock: MIFKUJ_clean_linker_0, # of connection points: 2
#     Edge 55, Type (0, 0), BuildingBlock: MIFKUJ_clean_linker_0, # of connection points: 2
# Relax obj value: 0.096
# Max RMSD: 0.101
# Mean RMSD: 0.101
data_MOF--net-zfe--node1-BEQFEK_clean_sbu_0--edge1-MIFKUJ_clean_linker_0
_symmetry_space_group_name_H-M    P1
_symmetry_Int_Tables_number       1
_symmetry_cell_setting            triclinic
loop_
_symmetry_equiv_pos_as_xyz
'x, y, z'
_cell_length_a     69.330896
_cell_length_b     69.33026
_cell_length_c     39.517795
_cell_angle_alpha  89.993827
_cell_angle_beta   89.989147
_cell_angle_gamma 89.99242
loop_
_atom_site_label
_atom_site_type_symbol
_atom_site_fract_x
_atom_site_fract_y
_atom_site_fract_z
_atom_type_partial_charge
Co0 Co 0.01313 0.19803 0.03603 0.0
Co1 Co 0.04696 0.22789 0.0383 0.0
C2 C 0.01971 0.2245 0.09585 0.0
O3 O 0.01073 0.21106 0.08057 0.0
O4 O 0.03416 0.23281 0.08231 0.0
C5 C 0.97305 0.18871 0.03504 0.0
O6 O 0.97101 0.20711 0.04211 0.0
C7 C 0.07034 0.26393 0.04022 0.0
C8 C 0.09712 0.25332 0.01622 0.0
C9 C 0.08883 0.26946 0.03083 0.0
N10 N 0.06785 0.24532 0.03138 0.0
N11 N 0.0839 0.23918 0.01691 0.0
C12 C 0.05564 0.27583 0.05848 0.0
H13 H 0.04445 0.26662 0.07017 0.0
H14 H 0.04847 0.28561 0.04018 0.0
H15 H 0.06271 0.28483 0.07814 0.0
C16 C 0.00667 0.21712 0.96982 0.0
N17 N 0.01551 0.21598 1.0001 0.0
N18 N 0.02933 0.22897 0.00149 0.0
C19 C 0.02949 0.23904 0.97232 0.0
C20 C 0.01517 0.23186 0.95121 0.0
C21 C 0.99233 0.20262 0.95727 0.0
H22 H 0.9958 0.18814 0.96749 0.0
H23 H 0.97774 0.20677 0.96617 0.0
H24 H 0.99218 0.20186 0.92923 0.0
O25 O 0.03565 0.18062 0.0363 0.0
O26 O 0.05932 0.20203 0.03973 0.0
H27 H 0.05807 0.24852 0.96071 0.0
H28 H 0.03928 0.26291 0.94138 0.0
C29 C 0.04351 0.25482 0.96443 0.0
H30 H 0.04419 0.26499 0.986 0.0
H31 H 0.08593 0.22518 0.00788 0.0
O32 O 0.98988 0.18189 0.03069 0.0
C33 C 0.05353 0.18463 0.03829 0.0
Co34 Co 0.80223 0.01414 0.03614 0.0
Co35 Co 0.77202 0.04748 0.0302 0.0
C36 C 0.77236 0.02185 0.0903 0.0
O37 O 0.78621 0.01214 0.07771 0.0
O38 O 0.76524 0.03636 0.07495 0.0
C39 C 0.81358 0.97438 0.03899 0.0
O40 O 0.79501 0.97126 0.04276 0.0
C41 C 0.73591 0.07013 0.02651 0.0
C42 C 0.74423 0.09221 0.98884 0.0
C43 C 0.72899 0.08587 0.00853 0.0
N44 N 0.7544 0.06724 0.01756 0.0
N45 N 0.75931 0.08061 0.99534 0.0
C46 C 0.72487 0.05716 0.04973 0.0
H47 H 0.73002 0.04208 0.04703 0.0
H48 H 0.70916 0.05786 0.04442 0.0
H49 H 0.72741 0.06176 0.07625 0.0
C50 C 0.78768 0.00588 0.96699 0.0
N51 N 0.78672 0.01523 0.99685 0.0
N52 N 0.77311 0.02843 0.99534 0.0
C53 C 0.76451 0.02741 0.96479 0.0
C54 C 0.77362 0.01332 0.94557 0.0
C55 C 0.80343 0.99205 0.95783 0.0
H56 H 0.81702 0.99614 0.97075 0.0
H57 H 0.79929 0.97736 0.96627 0.0
H58 H 0.80597 0.99174 0.93012 0.0
O59 O 0.81883 0.03722 0.03818 0.0
O60 O 0.7973 0.06072 0.03379 0.0
H61 H 0.75338 0.05407 0.9459 0.0
H62 H 0.74002 0.03313 0.93251 0.0
C63 C 0.74792 0.03977 0.95399 0.0
H64 H 0.73779 0.04178 0.97539 0.0
H65 H 0.77289 0.08154 0.98404 0.0
O66 O 0.81959 0.99155 0.03525 0.0
C67 C 0.81469 0.05508 0.03676 0.0
Co68 Co 0.98856 0.80151 0.04474 0.0
Co69 Co 0.9531 0.77369 0.04095 0.0
C70 C 0.97958 0.77364 0.10072 0.0
O71 O 0.99006 0.78677 0.08768 0.0
O72 O 0.96481 0.76711 0.08535 0.0
C73 C 0.02852 0.81262 0.05074 0.0
O74 O 0.03102 0.79498 0.06209 0.0
C75 C 0.93083 0.73748 0.03627 0.0
C76 C 0.90196 0.74891 0.02353 0.0
C77 C 0.91187 0.73208 0.03064 0.0
N78 N 0.93207 0.75673 0.03264 0.0
N79 N 0.9148 0.76341 0.02468 0.0
C80 C 0.94708 0.72485 0.04747 0.0
H81 H 0.96085 0.73302 0.04779 0.0
H82 H 0.94837 0.71229 0.03023 0.0
H83 H 0.94397 0.71925 0.07321 0.0
C84 C 0.99594 0.78423 0.97726 0.0
N85 N 0.98626 0.78484 0.00679 0.0
N86 N 0.97129 0.7732 0.00499 0.0
C87 C 0.97084 0.76498 0.97408 0.0
C88 C 0.98649 0.77167 0.95543 0.0
C89 C 0.01336 0.79623 0.96971 0.0
H90 H 0.02455 0.79337 0.98907 0.0
H91 H 0.01948 0.79296 0.94443 0.0
H92 H 0.00947 0.81174 0.97116 0.0
O93 O 0.96633 0.81962 0.04612 0.0
O94 O 0.94149 0.79957 0.04377 0.0
H95 H 0.95501 0.75091 0.93348 0.0
H96 H 0.95392 0.73923 0.97427 0.0
C97 C 0.95417 0.75337 0.96115 0.0
H98 H 0.94049 0.76097 0.96691 0.0
H99 H 0.91165 0.77797 0.02091 0.0
O100 O 0.01182 0.81795 0.04135 0.0
C101 C 0.94822 0.8166 0.04552 0.0
Co102 Co 0.20008 0.98821 0.04001 0.0
Co103 Co 0.22889 0.95334 0.0368 0.0
C104 C 0.22804 0.97978 0.0964 0.0
O105 O 0.21452 0.98959 0.08301 0.0
O106 O 0.2353 0.96525 0.0813 0.0
C107 C 0.18905 0.02787 0.04792 0.0
O108 O 0.20616 0.0296 0.06188 0.0
C109 C 0.26471 0.9296 0.0336 0.0
C110 C 0.25292 0.90316 0.01021 0.0
C111 C 0.26971 0.9111 0.02311 0.0
N112 N 0.24583 0.93234 0.02707 0.0
N113 N 0.23897 0.9165 0.01291 0.0
C114 C 0.27731 0.94404 0.05098 0.0
H115 H 0.26858 0.95528 0.06365 0.0
H116 H 0.28659 0.9512 0.03188 0.0
H117 H 0.28677 0.93677 0.06972 0.0
C118 C 0.21764 0.99613 0.9733 0.0
N119 N 0.21702 0.98627 0.0026 0.0
N120 N 0.2291 0.97166 0.00097 0.0
C121 C 0.23772 0.97168 0.97036 0.0
C122 C 0.23068 0.98717 0.95174 0.0
C123 C 0.20529 0.01332 0.96573 0.0
H124 H 0.20768 0.02444 0.98542 0.0
H125 H 0.20868 0.01973 0.9407 0.0
H126 H 0.18987 0.00906 0.96657 0.0
O127 O 0.18233 0.96583 0.04095 0.0
O128 O 0.203 0.94145 0.03992 0.0
H129 H 0.24218 0.94188 0.95905 0.0
H130 H 0.25504 0.95797 0.9313 0.0
C131 C 0.25027 0.95565 0.95774 0.0
H132 H 0.26312 0.95437 0.9743 0.0
H133 H 0.22464 0.91468 0.00553 0.0
O134 O 0.1838 0.01157 0.03646 0.0
C135 C 0.1858 0.9478 0.04106 0.0
Co136 Co 0.00918 0.79888 0.50498 0.0
Co137 Co 0.04485 0.77125 0.51134 0.0
C138 C 0.01883 0.76994 0.4511 0.0
O139 O 0.00807 0.78306 0.46338 0.0
O140 O 0.03382 0.76401 0.46658 0.0
C141 C 0.96993 0.81071 0.49282 0.0
O142 O 0.96826 0.79382 0.47804 0.0
C143 C 0.06849 0.7357 0.51758 0.0
C144 C 0.09534 0.74808 0.53848 0.0
C145 C 0.08715 0.73097 0.52751 0.0
N146 N 0.06591 0.75474 0.52246 0.0
N147 N 0.08197 0.76197 0.53524 0.0
C148 C 0.05377 0.72266 0.50203 0.0
H149 H 0.04209 0.73107 0.48989 0.0
H150 H 0.04723 0.7136 0.52212 0.0
H151 H 0.06066 0.71297 0.48322 0.0
C152 C 0.00093 0.78268 0.57262 0.0
N153 N 0.01115 0.78299 0.54369 0.0
N154 N 0.02609 0.77139 0.54664 0.0
C155 C 0.02594 0.76345 0.57781 0.0
C156 C 0.00997 0.77037 0.59537 0.0
C157 C 0.98328 0.79464 0.57862 0.0
H158 H 0.98733 0.81012 0.57879 0.0
H159 H 0.97294 0.79235 0.55762 0.0
H160 H 0.97612 0.79087 0.60284 0.0
O161 O 0.03139 0.81698 0.50314 0.0
O162 O 0.05635 0.79713 0.50701 0.0
H163 H 0.0559 0.75986 0.58901 0.0
H164 H 0.04017 0.74826 0.61902 0.0
C165 C 0.04222 0.75174 0.59189 0.0
H166 H 0.04352 0.73814 0.5773 0.0
H167 H 0.08394 0.77651 0.5411 0.0
O168 O 0.98584 0.81531 0.5066 0.0
C169 C 0.04951 0.81406 0.50411 0.0
Co170 Co 0.19664 0.01078 0.50559 0.0
Co171 Co 0.22629 0.04497 0.50594 0.0
C172 C 0.22396 0.01805 0.4475 0.0
O173 O 0.21014 0.00903 0.46164 0.0
O174 O 0.23223 0.03224 0.46197 0.0
C175 C 0.1846 0.97137 0.49871 0.0
O176 O 0.20157 0.96916 0.48444 0.0
C177 C 0.26249 0.06826 0.5084 0.0
C178 C 0.2509 0.09512 0.5306 0.0
C179 C 0.26773 0.08677 0.51866 0.0
N180 N 0.24348 0.06595 0.51425 0.0
N181 N 0.23673 0.08208 0.52752 0.0
C182 C 0.275 0.05331 0.49219 0.0
H183 H 0.26618 0.0426 0.47835 0.0
H184 H 0.28318 0.04557 0.51215 0.0
H185 H 0.28546 0.06016 0.47464 0.0
C186 C 0.21496 0.00341 0.57186 0.0
N187 N 0.21426 0.01276 0.54206 0.0
N188 N 0.22662 0.02717 0.54258 0.0
C189 C 0.2355 0.02751 0.57294 0.0
C190 C 0.22836 0.01248 0.59259 0.0
C191 C 0.2022 0.98676 0.58081 0.0
H192 H 0.18693 0.99158 0.58082 0.0
H193 H 0.20374 0.97536 0.56134 0.0
H194 H 0.2059 0.98054 0.60584 0.0
O195 O 0.1793 0.03337 0.50538 0.0
O196 O 0.20048 0.05726 0.50337 0.0
H197 H 0.24047 0.05748 0.58211 0.0
H198 H 0.25301 0.04187 0.61106 0.0
C199 C 0.24832 0.04361 0.58445 0.0
H200 H 0.26122 0.04426 0.56791 0.0
H201 H 0.22236 0.08421 0.53445 0.0
O202 O 0.17989 0.98782 0.51025 0.0
C203 C 0.18314 0.05129 0.504 0.0
Co204 Co 0.98586 0.19648 0.50753 0.0
Co205 Co 0.95266 0.22717 0.50686 0.0
C206 C 0.97926 0.22393 0.44869 0.0
O207 O 0.98791 0.21007 0.46347 0.0
O208 O 0.96519 0.23264 0.46273 0.0
C209 C 0.02583 0.18638 0.50717 0.0
O210 O 0.0282 0.20476 0.50021 0.0
C211 C 0.92823 0.26284 0.50747 0.0
C212 C 0.9042 0.25216 0.5391 0.0
C213 C 0.91069 0.26826 0.52177 0.0
N214 N 0.93188 0.24442 0.51634 0.0
N215 N 0.91741 0.2382 0.53517 0.0
C216 C 0.94096 0.27462 0.48494 0.0
H217 H 0.94979 0.26521 0.46847 0.0
H218 H 0.95087 0.28334 0.50081 0.0
H219 H 0.93224 0.28453 0.46906 0.0
C220 C 0.99289 0.21444 0.57448 0.0
N221 N 0.98402 0.21396 0.54416 0.0
N222 N 0.97069 0.22746 0.54319 0.0
C223 C 0.97102 0.23732 0.57257 0.0
C224 C 0.98496 0.22931 0.59357 0.0
C225 C 0.0067 0.19929 0.58642 0.0
H226 H 0.00287 0.18511 0.57534 0.0
H227 H 0.02147 0.20315 0.57797 0.0
H228 H 0.00667 0.19804 0.61441 0.0
O229 O 0.96313 0.17949 0.50708 0.0
O230 O 0.93995 0.20145 0.50457 0.0
H231 H 0.94342 0.24834 0.58695 0.0
H232 H 0.96351 0.2624 0.60236 0.0
C233 C 0.95798 0.2539 0.58064 0.0
H234 H 0.95677 0.26348 0.55831 0.0
H235 H 0.91659 0.22436 0.54546 0.0
O236 O 0.0089 0.1799 0.51183 0.0
C237 C 0.94536 0.18391 0.5054 0.0
Co238 Co 0.79959 0.98771 0.49624 0.0
Co239 Co 0.77092 0.95277 0.49822 0.0
C240 C 0.77069 0.98023 0.44044 0.0
O241 O 0.78415 0.9901 0.45397 0.0
O242 O 0.76395 0.96522 0.45478 0.0
C243 C 0.80896 0.02806 0.49605 0.0
O244 O 0.79061 0.03031 0.48879 0.0
C245 C 0.73582 0.92784 0.50165 0.0
C246 C 0.74781 0.90339 0.53075 0.0
C247 C 0.73101 0.91009 0.51584 0.0
N248 N 0.75454 0.93142 0.50839 0.0
N249 N 0.76156 0.91669 0.52564 0.0
C250 C 0.72315 0.9409 0.48129 0.0
H251 H 0.73185 0.94992 0.46397 0.0
H252 H 0.71518 0.95061 0.49866 0.0
H253 H 0.71258 0.93242 0.46636 0.0
C254 C 0.78381 0.99329 0.5653 0.0
N255 N 0.78366 0.98463 0.53477 0.0
N256 N 0.77098 0.9705 0.53506 0.0
C257 C 0.76232 0.97003 0.5656 0.0
C258 C 0.77024 0.98435 0.58589 0.0
C259 C 0.79853 0.00793 0.57581 0.0
H260 H 0.81266 0.00451 0.56415 0.0
H261 H 0.79391 0.02237 0.56683 0.0
H262 H 0.80028 0.00842 0.6037 0.0
O263 O 0.81751 0.9656 0.49279 0.0
O264 O 0.79689 0.94117 0.49327 0.0
H265 H 0.75379 0.94155 0.5799 0.0
H266 H 0.73943 0.96043 0.59882 0.0
C267 C 0.74706 0.95585 0.57548 0.0
H268 H 0.7364 0.95446 0.55476 0.0
H269 H 0.77577 0.9158 0.53418 0.0
O270 O 0.81559 0.01116 0.50045 0.0
C271 C 0.81406 0.94759 0.4917 0.0
Co272 Co 0.51021 0.69859 0.54187 0.0
Co273 Co 0.54539 0.72693 0.54002 0.0
C274 C 0.51779 0.72704 0.59787 0.0
O275 O 0.50808 0.71351 0.58431 0.0
O276 O 0.53273 0.73392 0.58349 0.0
C277 C 0.47021 0.68811 0.5463 0.0
O278 O 0.46783 0.70607 0.55608 0.0
C279 C 0.56921 0.76257 0.53662 0.0
C280 C 0.59643 0.75027 0.51708 0.0
C281 C 0.58804 0.76734 0.52775 0.0
N282 N 0.56673 0.74354 0.53133 0.0
N283 N 0.58304 0.73636 0.5195 0.0
C284 C 0.55415 0.77555 0.55132 0.0
H285 H 0.54262 0.76709 0.56379 0.0
H286 H 0.54748 0.7841 0.53068 0.0
H287 H 0.56073 0.78569 0.56972 0.0
C288 C 0.50383 0.71556 0.47404 0.0
N289 N 0.51302 0.7151 0.50401 0.0
N290 N 0.52783 0.72697 0.50301 0.0
C291 C 0.52861 0.73527 0.47217 0.0
C292 C 0.51342 0.72828 0.45273 0.0
C293 C 0.48666 0.70335 0.46571 0.0
H294 H 0.47502 0.70637 0.48415 0.0
H295 H 0.48107 0.70629 0.43993 0.0
H296 H 0.49059 0.68788 0.46801 0.0
O297 O 0.53239 0.68061 0.54448 0.0
O298 O 0.55698 0.70101 0.54467 0.0
H299 H 0.54382 0.7514 0.4332 0.0
H300 H 0.54586 0.76072 0.47571 0.0
C301 C 0.54513 0.74741 0.46024 0.0
H302 H 0.55879 0.73935 0.4638 0.0
H303 H 0.58512 0.72185 0.51347 0.0
O304 O 0.48695 0.68227 0.53814 0.0
C305 C 0.55043 0.68389 0.54571 0.0
Co306 Co 0.30089 0.51147 0.53903 0.0
Co307 Co 0.2709 0.54539 0.53649 0.0
C308 C 0.27191 0.51843 0.59482 0.0
O309 O 0.2855 0.50882 0.58117 0.0
O310 O 0.26476 0.53329 0.58061 0.0
C311 C 0.31186 0.47155 0.54091 0.0
O312 O 0.29352 0.46872 0.54769 0.0
C313 C 0.23541 0.56999 0.53461 0.0
C314 C 0.24605 0.59333 0.50139 0.0
C315 C 0.22999 0.58725 0.5193 0.0
N316 N 0.25377 0.56607 0.52572 0.0
N317 N 0.25997 0.58013 0.50595 0.0
C318 C 0.22371 0.55786 0.55828 0.0
H319 H 0.23316 0.54966 0.57563 0.0
H320 H 0.21511 0.5474 0.54334 0.0
H321 H 0.21373 0.56695 0.57337 0.0
C322 C 0.28502 0.50482 0.47033 0.0
N323 N 0.28471 0.51366 0.50068 0.0
N324 N 0.27131 0.5271 0.50053 0.0
C325 C 0.26225 0.52683 0.47038 0.0
C326 C 0.27076 0.51288 0.45001 0.0
C327 C 0.30041 0.49092 0.45971 0.0
H328 H 0.31429 0.49472 0.47193 0.0
H329 H 0.29628 0.47619 0.46796 0.0
H330 H 0.30243 0.4909 0.43187 0.0
O331 O 0.3179 0.53426 0.54201 0.0
O332 O 0.29649 0.55797 0.54003 0.0
H333 H 0.25169 0.55433 0.45437 0.0
H334 H 0.23774 0.53415 0.43909 0.0
C335 C 0.24591 0.5399 0.46103 0.0
H336 H 0.23597 0.54148 0.4828 0.0
H337 H 0.27379 0.58069 0.4955 0.0
O338 O 0.31786 0.48861 0.53577 0.0
C339 C 0.31386 0.55216 0.54196 0.0
Co340 Co 0.48728 0.29903 0.54285 0.0
Co341 Co 0.45184 0.27101 0.53857 0.0
C342 C 0.47852 0.27069 0.59816 0.0
O343 O 0.48904 0.28373 0.58499 0.0
O344 O 0.46343 0.26445 0.58337 0.0
C345 C 0.52653 0.31134 0.55312 0.0
O346 O 0.52845 0.29468 0.56859 0.0
C347 C 0.42855 0.23505 0.534 0.0
C348 C 0.40154 0.24689 0.51277 0.0
C349 C 0.40996 0.22996 0.52409 0.0
N350 N 0.43085 0.2541 0.52869 0.0
N351 N 0.41468 0.26101 0.51583 0.0
C352 C 0.44353 0.22236 0.54968 0.0
H353 H 0.45481 0.23105 0.56234 0.0
H354 H 0.45056 0.21369 0.52956 0.0
H355 H 0.4368 0.21233 0.56811 0.0
C356 C 0.49482 0.28242 0.47526 0.0
N357 N 0.48506 0.28271 0.50468 0.0
N358 N 0.4702 0.27095 0.50258 0.0
C359 C 0.46993 0.26294 0.47145 0.0
C360 C 0.48552 0.27 0.45301 0.0
C361 C 0.51223 0.29455 0.46827 0.0
H362 H 0.52286 0.29257 0.48894 0.0
H363 H 0.51916 0.29064 0.4439 0.0
H364 H 0.50799 0.30998 0.4678 0.0
O365 O 0.4649 0.31693 0.54476 0.0
O366 O 0.44008 0.29686 0.54191 0.0
H367 H 0.43988 0.25922 0.4613 0.0
H368 H 0.45532 0.24731 0.43121 0.0
C369 C 0.45353 0.25107 0.45827 0.0
H370 H 0.45239 0.23763 0.47334 0.0
H371 H 0.4125 0.27546 0.50954 0.0
O372 O 0.51043 0.31566 0.53973 0.0
C373 C 0.4468 0.31388 0.54407 0.0
Co374 Co 0.69798 0.4877 0.54624 0.0
Co375 Co 0.72597 0.45225 0.54212 0.0
C376 C 0.72618 0.47872 0.60189 0.0
O377 O 0.713 0.48917 0.58893 0.0
O378 O 0.73268 0.46392 0.58653 0.0
C379 C 0.68659 0.52745 0.55388 0.0
O380 O 0.70387 0.52971 0.5669 0.0
C381 C 0.76177 0.4288 0.53729 0.0
C382 C 0.74968 0.40164 0.51712 0.0
C383 C 0.76672 0.41013 0.52775 0.0
N384 N 0.74269 0.43112 0.5324 0.0
N385 N 0.73563 0.41485 0.52017 0.0
C386 C 0.77465 0.44385 0.55229 0.0
H387 H 0.7661 0.45522 0.56504 0.0
H388 H 0.78313 0.45074 0.53177 0.0
H389 H 0.78487 0.4372 0.57049 0.0
C390 C 0.71472 0.49504 0.47849 0.0
N391 N 0.71437 0.48539 0.50805 0.0
N392 N 0.72612 0.47052 0.50612 0.0
C393 C 0.73426 0.47018 0.47511 0.0
C394 C 0.72727 0.48571 0.4565 0.0
C395 C 0.70246 0.51231 0.47107 0.0
H396 H 0.70504 0.52345 0.49066 0.0
H397 H 0.70574 0.51859 0.4459 0.0
H398 H 0.68702 0.50815 0.47225 0.0
O399 O 0.67994 0.46547 0.54792 0.0
O400 O 0.70008 0.44066 0.54607 0.0
H401 H 0.73812 0.4401 0.46536 0.0
H402 H 0.74997 0.45546 0.43508 0.0
C403 C 0.7462 0.45377 0.46216 0.0
H404 H 0.75965 0.45276 0.47723 0.0
H405 H 0.72112 0.41267 0.51432 0.0
O406 O 0.68156 0.51096 0.54298 0.0
C407 C 0.68305 0.44738 0.54791 0.0
Co408 Co 0.51316 0.30087 0.00315 0.0
Co409 Co 0.54771 0.272 0.00802 0.0
C410 C 0.52155 0.27203 0.94804 0.0
O411 O 0.51156 0.28562 0.96078 0.0
O412 O 0.53609 0.26509 0.96356 0.0
C413 C 0.47353 0.31185 0.99603 0.0
O414 O 0.47135 0.29398 0.98566 0.0
C415 C 0.56952 0.23564 0.01115 0.0
C416 C 0.59493 0.24449 0.04116 0.0
C417 C 0.58653 0.22881 0.02525 0.0
N418 N 0.56792 0.25448 0.01861 0.0
N419 N 0.58322 0.25971 0.03632 0.0
C420 C 0.55439 0.22436 0.99284 0.0
H421 H 0.53993 0.23065 0.99777 0.0
H422 H 0.55461 0.20899 0.00069 0.0
H423 H 0.55721 0.22518 0.96523 0.0
C424 C 0.50494 0.28475 0.07106 0.0
N425 N 0.51477 0.28473 0.04167 0.0
N426 N 0.52921 0.27247 0.04386 0.0
C427 C 0.52897 0.26424 0.07483 0.0
C428 C 0.51361 0.27182 0.09318 0.0
C429 C 0.48806 0.2976 0.07816 0.0
H430 H 0.47651 0.29455 0.05955 0.0
H431 H 0.48215 0.29532 0.10392 0.0
H432 H 0.49246 0.31289 0.07508 0.0
O433 O 0.53586 0.31828 0.00155 0.0
O434 O 0.5602 0.29753 0.00368 0.0
H435 H 0.5584 0.25968 0.08847 0.0
H436 H 0.5417 0.24625 0.11401 0.0
C437 C 0.54468 0.25149 0.08806 0.0
H438 H 0.54647 0.23893 0.07099 0.0
H439 H 0.58554 0.27364 0.04547 0.0
O440 O 0.49011 0.31759 0.00534 0.0
C441 C 0.55388 0.31472 0.00162 0.0
Co442 Co 0.70148 0.51065 0.00579 0.0
Co443 Co 0.72893 0.54641 0.01092 0.0
C444 C 0.73083 0.51961 0.95197 0.0
O445 O 0.7175 0.50917 0.96446 0.0
O446 O 0.73686 0.53472 0.967 0.0
C447 C 0.6897 0.47132 0.99428 0.0
O448 O 0.70611 0.46991 0.97785 0.0
C449 C 0.76447 0.56954 0.01857 0.0
C450 C 0.75241 0.59638 0.04007 0.0
C451 C 0.76957 0.58775 0.03038 0.0
N452 N 0.74523 0.56763 0.0214 0.0
N453 N 0.73813 0.58376 0.03409 0.0
C454 C 0.77751 0.55368 0.00696 0.0
H455 H 0.77041 0.53947 0.0105 0.0
H456 H 0.79136 0.55406 0.02103 0.0
H457 H 0.78056 0.55558 0.97961 0.0
C458 C 0.71724 0.50343 0.07408 0.0
N459 N 0.71711 0.51325 0.04471 0.0
N460 N 0.72863 0.52826 0.04724 0.0
C461 C 0.73632 0.52859 0.07862 0.0
C462 C 0.72933 0.51285 0.09671 0.0
C463 C 0.70538 0.48578 0.08055 0.0
H464 H 0.70776 0.47524 0.05987 0.0
H465 H 0.70915 0.47887 0.105 0.0
H466 H 0.68987 0.48973 0.08055 0.0
O467 O 0.68324 0.53269 0.00266 0.0
O468 O 0.70301 0.55773 0.00565 0.0
H469 H 0.73998 0.55874 0.08806 0.0
H470 H 0.75078 0.54356 0.11977 0.0
C471 C 0.74789 0.54506 0.09232 0.0
H472 H 0.76182 0.54589 0.0786 0.0
H473 H 0.72353 0.58607 0.03903 0.0
O474 O 0.6853 0.48717 0.00849 0.0
C475 C 0.6861 0.55083 0.00287 0.0
Co476 Co 0.48833 0.69683 0.00512 0.0
Co477 Co 0.454 0.72635 0.00825 0.0
C478 C 0.48087 0.72567 0.94945 0.0
O479 O 0.49028 0.71186 0.96284 0.0
O480 O 0.46624 0.73304 0.96412 0.0
C481 C 0.52795 0.68521 0.99873 0.0
O482 O 0.53054 0.70296 0.98803 0.0
C483 C 0.42993 0.7621 0.01283 0.0
C484 C 0.40471 0.75007 0.03976 0.0
C485 C 0.41193 0.76699 0.02605 0.0
N486 N 0.43307 0.74321 0.01884 0.0
N487 N 0.4179 0.7362 0.03488 0.0
C488 C 0.44359 0.77479 0.99379 0.0
H489 H 0.45366 0.76609 0.97833 0.0
H490 H 0.45222 0.78331 0.0121 0.0
H491 H 0.43554 0.78491 0.97722 0.0
C492 C 0.49625 0.71377 0.07237 0.0
N493 N 0.48647 0.71341 0.04297 0.0
N494 N 0.47223 0.72594 0.04438 0.0
C495 C 0.4725 0.73469 0.07488 0.0
C496 C 0.4877 0.7272 0.09368 0.0
C497 C 0.51307 0.70096 0.08012 0.0
H498 H 0.50859 0.68565 0.0779 0.0
H499 H 0.52461 0.70361 0.06129 0.0
H500 H 0.51905 0.70367 0.10571 0.0
O501 O 0.46567 0.67954 0.00325 0.0
O502 O 0.44171 0.70068 0.00423 0.0
H503 H 0.44306 0.74026 0.08741 0.0
H504 H 0.45992 0.75348 0.11302 0.0
C505 C 0.45703 0.74802 0.08717 0.0
H506 H 0.45577 0.76041 0.06957 0.0
H507 H 0.41656 0.72186 0.04256 0.0
O508 O 0.51123 0.67989 0.00805 0.0
C509 C 0.44772 0.68336 0.00287 0.0
Co510 Co 0.30161 0.48662 1.0002 0.0
Co511 Co 0.2725 0.45214 0.00539 0.0
C512 C 0.27255 0.47792 0.94533 0.0
O513 O 0.28605 0.48808 0.958 0.0
O514 O 0.26576 0.46333 0.96087 0.0
C515 C 0.31166 0.52684 0.99797 0.0
O516 O 0.29312 0.52946 0.99288 0.0
C517 C 0.23707 0.42782 0.01078 0.0
C518 C 0.24842 0.40452 0.04336 0.0
C519 C 0.23186 0.41081 0.02716 0.0
N520 N 0.25577 0.43142 0.01758 0.0
N521 N 0.26242 0.41737 0.03689 0.0
C522 C 0.2248 0.44013 0.98833 0.0
H523 H 0.23377 0.44814 0.96997 0.0
H524 H 0.2169 0.45077 0.00407 0.0
H525 H 0.21417 0.43119 0.97438 0.0
C526 C 0.28618 0.49413 0.069 0.0
N527 N 0.28577 0.48481 0.03909 0.0
N528 N 0.27278 0.47099 0.04042 0.0
C529 C 0.26411 0.47145 0.07094 0.0
C530 C 0.27245 0.48597 0.09025 0.0
C531 C 0.30124 0.50865 0.07844 0.0
H532 H 0.31518 0.50491 0.06636 0.0
H533 H 0.29671 0.52307 0.06919 0.0
H534 H 0.30331 0.5094 0.10624 0.0
O535 O 0.31914 0.46419 0.99837 0.0
O536 O 0.2983 0.44001 0.0017 0.0
H537 H 0.25466 0.44375 0.08792 0.0
H538 H 0.24063 0.4636 0.10428 0.0
C539 C 0.24837 0.45802 0.08173 0.0
H540 H 0.23789 0.45621 0.06083 0.0
H541 H 0.27654 0.41665 0.04596 0.0
O542 O 0.31807 0.50983 0.00204 0.0
C543 C 0.31552 0.4462 0.99923 0.0
H544 H 0.07469 0.30638 0.02366 0.0
H545 H 0.09291 0.33658 0.02901 0.0
H546 H 0.14409 0.30414 0.05392 0.0
H547 H 0.12597 0.27414 0.04928 0.0
H548 H 0.14045 0.33614 0.09351 0.0
H549 H 0.13538 0.31885 0.97369 0.0
H550 H 0.11719 0.31229 0.92129 0.0
H551 H 0.0915 0.36859 0.92642 0.0
H552 H 0.10939 0.37537 0.97912 0.0
H553 H 0.22647 0.3724 0.03337 0.0
H554 H 0.1962 0.35492 0.03934 0.0
H555 H 0.16445 0.40811 0.02999 0.0
H556 H 0.19484 0.42599 0.02552 0.0
H557 H 0.151 0.37399 0.9885 0.0
H558 H 0.16351 0.39332 0.10174 0.0
H559 H 0.18349 0.39911 0.15232 0.0
H560 H 0.19609 0.33859 0.15904 0.0
H561 H 0.17645 0.33247 0.10816 0.0
C562 C 0.08968 0.30576 0.03116 0.0
C563 C 0.0989 0.28794 0.03641 0.0
C564 C 0.1001 0.32299 0.03389 0.0
C565 C 0.11984 0.32257 0.04183 0.0
C566 C 0.12885 0.3048 0.04799 0.0
C567 C 0.11852 0.28767 0.0451 0.0
C568 C 0.13177 0.34026 0.04169 0.0
C569 C 0.14264 0.34454 0.07067 0.0
C570 C 0.13418 0.35159 0.01217 0.0
C571 C 0.12349 0.34751 0.98053 0.0
C572 C 0.12573 0.32976 0.96377 0.0
C573 C 0.1155 0.32602 0.93401 0.0
C574 C 0.10314 0.33999 0.92061 0.0
C575 C 0.10104 0.35776 0.93689 0.0
C576 C 0.11121 0.36156 0.96669 0.0
C577 C 0.21308 0.38045 0.0325 0.0
C578 C 0.21312 0.40057 0.02828 0.0
C579 C 0.19581 0.37043 0.0359 0.0
C580 C 0.17818 0.38028 0.03516 0.0
C581 C 0.17798 0.40031 0.03038 0.0
C582 C 0.19538 0.41045 0.02738 0.0
C583 C 0.16019 0.36922 0.03985 0.0
C584 C 0.14825 0.36613 0.01176 0.0
C585 C 0.15683 0.35892 0.07015 0.0
C586 C 0.16854 0.36245 0.10101 0.0
C587 C 0.17065 0.38126 0.11385 0.0
C588 C 0.1819 0.3846 0.14261 0.0
C589 C 0.19107 0.36923 0.15887 0.0
C590 C 0.18897 0.35048 0.14643 0.0
C591 C 0.17775 0.34706 0.11766 0.0
H592 H 0.19978 0.37185 0.18113 0.0
H593 H 0.09524 0.33706 0.89755 0.0
H594 H 0.70719 0.0952 0.06368 0.0
H595 H 0.67753 0.11434 0.06415 0.0
H596 H 0.67777 0.11552 0.95488 0.0
H597 H 0.70783 0.0971 0.95455 0.0
H598 H 0.67388 0.14964 0.97623 0.0
H599 H 0.64231 0.09076 0.00351 0.0
H600 H 0.63648 0.06033 0.03411 0.0
H601 H 0.62724 0.0918 0.12627 0.0
H602 H 0.63329 0.12243 0.09634 0.0
H603 H 0.58862 0.20491 0.97032 0.0
H604 H 0.60729 0.17502 0.9657 0.0
H605 H 0.62309 0.17949 0.07096 0.0
H606 H 0.60448 0.2094 0.07569 0.0
H607 H 0.61559 0.14021 0.04718 0.0
H608 H 0.65224 0.1981 0.01939 0.0
H609 H 0.65772 0.2283 0.98786 0.0
H610 H 0.65658 0.19705 0.89406 0.0
H611 H 0.65079 0.16668 0.92508 0.0
C612 C 0.7006 0.09916 0.03983 0.0
C613 C 0.70967 0.09468 0.00908 0.0
C614 C 0.68362 0.11004 0.04006 0.0
C615 C 0.67526 0.11626 0.00951 0.0
C616 C 0.68393 0.11095 0.97877 0.0
C617 C 0.70106 0.10042 0.97857 0.0
C618 C 0.65888 0.13008 0.00961 0.0
C619 C 0.66095 0.14726 0.99113 0.0
C620 C 0.64212 0.12728 0.02957 0.0
C621 C 0.6384 0.1089 0.0477 0.0
C622 C 0.63918 0.09119 0.03036 0.0
C623 C 0.63581 0.0739 0.04758 0.0
C624 C 0.63153 0.07413 0.08213 0.0
C625 C 0.63057 0.09165 0.09951 0.0
C626 C 0.63394 0.10898 0.08241 0.0
C627 C 0.59555 0.19918 0.99271 0.0
C628 C 0.59508 0.20936 0.02342 0.0
C629 C 0.60626 0.18217 0.99001 0.0
C630 C 0.61654 0.17512 0.018 0.0
C631 C 0.61513 0.18465 0.04917 0.0
C632 C 0.60464 0.20177 0.05177 0.0
C633 C 0.6308 0.15946 0.01384 0.0
C634 C 0.62839 0.14216 0.03174 0.0
C635 C 0.64721 0.16198 0.99311 0.0
C636 C 0.65085 0.18018 0.9745 0.0
C637 C 0.65299 0.1977 0.99203 0.0
C638 C 0.65618 0.21484 0.97426 0.0
C639 C 0.65744 0.21461 0.93897 0.0
C640 C 0.65556 0.19722 0.92139 0.0
C641 C 0.65233 0.18004 0.93905 0.0
H642 H 0.65991 0.22789 0.92525 0.0
H643 H 0.62893 0.06073 0.09541 0.0
H644 H 0.80095 0.58421 0.98756 0.0
H645 H 0.83033 0.60389 0.9882 0.0
H646 H 0.81001 0.63327 0.07749 0.0
H647 H 0.78102 0.61341 0.07767 0.0
H648 H 0.81766 0.65676 0.01793 0.0
H649 H 0.84603 0.60611 0.08714 0.0
H650 H 0.85656 0.57272 0.09807 0.0
H651 H 0.89427 0.57511 0.01196 0.0
H652 H 0.88373 0.60845 1.00022 0.0
H653 H 0.88304 0.723 0.07327 0.0
H654 H 0.86371 0.69356 0.07346 0.0
H655 H 0.89998 0.6694 0.99546 0.0
H656 H 0.91987 0.69885 0.99615 0.0
H657 H 0.88639 0.64122 0.04024 0.0
H658 H 0.8604 0.6913 0.97168 0.0
H659 H 0.85018 0.72443 0.95779 0.0
H660 H 0.80777 0.72248 0.03692 0.0
H661 H 0.81796 0.68943 0.05166 0.0
C662 C 0.80306 0.59431 0.00807 0.0
C663 C 0.78868 0.59717 0.03271 0.0
C664 C 0.81981 0.60563 0.00824 0.0
C665 C 0.82226 0.61999 0.03289 0.0
C666 C 0.80835 0.62224 0.05828 0.0
C667 C 0.79177 0.61092 0.05825 0.0
C668 C 0.83794 0.63434 0.03028 0.0
C669 C 0.83267 0.65339 0.02301 0.0
C670 C 0.85757 0.62969 0.03542 0.0
C671 C 0.8639 0.60968 0.04254 0.0
C672 C 0.8564 0.59945 0.07031 0.0
C673 C 0.86242 0.58055 0.07671 0.0
C674 C 0.87603 0.57177 0.05565 0.0
C675 C 0.8837 0.58191 0.02821 0.0
C676 C 0.87772 0.60081 0.02169 0.0
C677 C 0.88716 0.71119 0.05682 0.0
C678 C 0.9028 0.71307 0.03464 0.0
C679 C 0.87612 0.69443 0.05686 0.0
C680 C 0.88017 0.67949 0.03394 0.0
C681 C 0.8966 0.68079 0.01327 0.0
C682 C 0.90793 0.69754 0.01367 0.0
C683 C 0.86592 0.66379 0.02937 0.0
C684 C 0.87141 0.64454 0.03485 0.0
C685 C 0.84642 0.66813 0.02198 0.0
C686 C 0.84003 0.68792 0.01291 0.0
C687 C 0.84897 0.69797 0.98625 0.0
C688 C 0.84318 0.71674 0.97822 0.0
C689 C 0.82836 0.72556 0.99649 0.0
C690 C 0.81926 0.71562 0.02279 0.0
C691 C 0.82502 0.69687 0.03098 0.0
H692 H 0.8239 0.74009 0.99024 0.0
H693 H 0.88067 0.55714 0.06066 0.0
H694 H 0.27373 0.87313 0.03628 0.0
H695 H 0.3033 0.85452 0.04116 0.0
H696 H 0.33696 0.9059 0.02374 0.0
H697 H 0.30714 0.92466 0.0176 0.0
H698 H 0.35032 0.87537 0.98696 0.0
H699 H 0.33652 0.88706 0.10197 0.0
H700 H 0.31668 0.89001 0.15349 0.0
H701 H 0.30366 0.82951 0.14943 0.0
H702 H 0.32316 0.82623 0.09759 0.0
H703 H 0.42629 0.80446 0.02717 0.0
H704 H 0.40753 0.83439 0.02941 0.0
H705 H 0.35485 0.80138 0.0299 0.0
H706 H 0.37325 0.7716 0.02615 0.0
H707 H 0.35861 0.82997 0.08296 0.0
H708 H 0.367 0.82165 0.96035 0.0
H709 H 0.38705 0.81924 0.90896 0.0
H710 H 0.41167 0.87481 0.92987 0.0
H711 H 0.39193 0.87742 0.98167 0.0
C712 C 0.2874 0.88055 0.0336 0.0
C713 C 0.28806 0.90046 0.02723 0.0
C714 C 0.30432 0.86991 0.03667 0.0
C715 C 0.32235 0.8789 0.03359 0.0
C716 C 0.32317 0.89875 0.02671 0.0
C717 C 0.30613 0.90949 0.02363 0.0
C718 C 0.34006 0.86703 0.03636 0.0
C719 C 0.35249 0.86582 0.00837 0.0
C720 C 0.34295 0.85463 0.06435 0.0
C721 C 0.3313 0.85642 0.09579 0.0
C722 C 0.32935 0.8744 0.11195 0.0
C723 C 0.31816 0.87613 0.14123 0.0
C724 C 0.30891 0.85996 0.15472 0.0
C725 C 0.31085 0.84202 0.13898 0.0
C726 C 0.32201 0.84021 0.10967 0.0
C727 C 0.41074 0.80354 0.02667 0.0
C728 C 0.4013 0.78556 0.02579 0.0
C729 C 0.40006 0.82068 0.02844 0.0
C730 C 0.37985 0.82002 0.02989 0.0
C731 C 0.37046 0.80216 0.02897 0.0
C732 C 0.38103 0.78515 0.02681 0.0
C733 C 0.36808 0.8377 0.03292 0.0
C734 C 0.35683 0.84 0.0621 0.0
C735 C 0.36645 0.85118 0.00625 0.0
C736 C 0.37821 0.84961 0.97509 0.0
C737 C 0.37683 0.83327 0.95416 0.0
C738 C 0.38811 0.83189 0.92492 0.0
C739 C 0.40069 0.84683 0.91622 0.0
C740 C 0.40196 0.86323 0.93668 0.0
C741 C 0.39073 0.86466 0.96597 0.0
H742 H 0.4094 0.84574 0.89358 0.0
H743 H 0.30025 0.86133 0.17738 0.0
H744 H 0.07388 0.6938 0.53766 0.0
H745 H 0.09254 0.66386 0.53277 0.0
H746 H 0.14315 0.6969 0.5067 0.0
H747 H 0.12458 0.7266 0.51055 0.0
H748 H 0.1393 0.66576 0.46626 0.0
H749 H 0.13527 0.68055 0.58702 0.0
H750 H 0.11762 0.68593 0.64041 0.0
H751 H 0.0925 0.62947 0.63299 0.0
H752 H 0.10984 0.62387 0.5793 0.0
H753 H 0.2257 0.62593 0.51669 0.0
H754 H 0.19588 0.64448 0.51525 0.0
H755 H 0.16275 0.5921 0.52408 0.0
H756 H 0.19267 0.57321 0.52428 0.0
H757 H 0.15085 0.6254 0.56801 0.0
H758 H 0.16148 0.60879 0.45253 0.0
H759 H 0.18075 0.60412 0.40073 0.0
H760 H 0.19429 0.66454 0.39878 0.0
H761 H 0.17537 0.66953 0.45089 0.0
C762 C 0.08885 0.69462 0.53013 0.0
C763 C 0.0977 0.71254 0.52401 0.0
C764 C 0.09954 0.67753 0.52773 0.0
C765 C 0.11922 0.67817 0.51934 0.0
C766 C 0.12795 0.69605 0.51297 0.0
C767 C 0.11735 0.71303 0.51542 0.0
C768 C 0.13126 0.66054 0.5181 0.0
C769 C 0.14174 0.65685 0.48844 0.0
C770 C 0.13396 0.64853 0.5467 0.0
C771 C 0.12362 0.6519 0.57897 0.0
C772 C 0.12585 0.66935 0.59665 0.0
C773 C 0.11593 0.67243 0.62698 0.0
C774 C 0.10389 0.65808 0.64002 0.0
C775 C 0.10179 0.6406 0.62281 0.0
C776 C 0.11166 0.63746 0.59244 0.0
C777 C 0.21211 0.61829 0.51845 0.0
C778 C 0.21162 0.59809 0.52114 0.0
C779 C 0.19509 0.62892 0.51767 0.0
C780 C 0.17719 0.61962 0.51947 0.0
C781 C 0.1765 0.5995 0.52291 0.0
C782 C 0.19363 0.58876 0.52338 0.0
C783 C 0.15943 0.63128 0.51667 0.0
C784 C 0.14791 0.63385 0.54548 0.0
C785 C 0.1558 0.64236 0.48733 0.0
C786 C 0.16705 0.63951 0.45573 0.0
C787 C 0.16867 0.62106 0.44119 0.0
C788 C 0.17952 0.61836 0.41175 0.0
C789 C 0.18875 0.63402 0.39649 0.0
C790 C 0.18712 0.65242 0.41062 0.0
C791 C 0.17631 0.6552 0.44008 0.0
H792 H 0.19715 0.6319 0.3737 0.0
H793 H 0.09622 0.66049 0.6635 0.0
H794 H 0.42429 0.19288 0.51634 0.0
H795 H 0.40609 0.16265 0.51978 0.0
H796 H 0.35399 0.19487 0.53913 0.0
H797 H 0.3721 0.22485 0.53718 0.0
H798 H 0.3557 0.16449 0.57941 0.0
H799 H 0.3664 0.17759 0.4593 0.0
H800 H 0.38681 0.18247 0.40888 0.0
H801 H 0.41228 0.1266 0.4233 0.0
H802 H 0.39215 0.1215 0.47408 0.0
H803 H 0.27349 0.12499 0.51051 0.0
H804 H 0.30362 0.14283 0.51451 0.0
H805 H 0.33495 0.08971 0.52811 0.0
H806 H 0.30461 0.07159 0.52547 0.0
H807 H 0.35055 0.12261 0.47796 0.0
H808 H 0.33328 0.10808 0.59306 0.0
H809 H 0.31038 0.10448 0.64039 0.0
H810 H 0.29561 0.16449 0.63318 0.0
H811 H 0.31819 0.16837 0.58542 0.0
C812 C 0.40909 0.19349 0.52224 0.0
C813 C 0.39971 0.21129 0.52704 0.0
C814 C 0.39864 0.1762 0.52374 0.0
C815 C 0.37867 0.1765 0.52967 0.0
C816 C 0.36941 0.19425 0.53476 0.0
C817 C 0.37978 0.21141 0.53338 0.0
C818 C 0.36688 0.15864 0.52957 0.0
C819 C 0.35473 0.15523 0.55735 0.0
C820 C 0.36595 0.14621 0.50117 0.0
C821 C 0.37798 0.14928 0.47069 0.0
C822 C 0.37647 0.16642 0.45185 0.0
C823 C 0.38796 0.16921 0.4232 0.0
C824 C 0.40089 0.15489 0.41297 0.0
C825 C 0.4023 0.13771 0.43131 0.0
C826 C 0.39085 0.13486 0.46002 0.0
C827 C 0.28676 0.11699 0.51409 0.0
C828 C 0.28658 0.0968 0.51733 0.0
C829 C 0.30397 0.12723 0.51622 0.0
C830 C 0.32142 0.11755 0.52159 0.0
C831 C 0.32157 0.09736 0.52365 0.0
C832 C 0.30421 0.08703 0.52183 0.0
C833 C 0.33902 0.12909 0.52722 0.0
C834 C 0.35213 0.13138 0.50053 0.0
C835 C 0.34076 0.14066 0.55647 0.0
C836 C 0.32737 0.13848 0.58555 0.0
C837 C 0.32505 0.12048 0.60141 0.0
C838 C 0.31214 0.11839 0.62834 0.0
C839 C 0.30153 0.13424 0.63977 0.0
C840 C 0.30384 0.15222 0.62432 0.0
C841 C 0.31672 0.15438 0.59735 0.0
H842 H 0.29154 0.1326 0.66061 0.0
H843 H 0.40977 0.15707 0.39077 0.0
H844 H 0.80354 0.42422 0.51681 0.0
H845 H 0.83382 0.40599 0.51929 0.0
H846 H 0.80202 0.35449 0.5447 0.0
H847 H 0.77201 0.37263 0.54342 0.0
H848 H 0.83372 0.3575 0.5828 0.0
H849 H 0.81684 0.36461 0.46322 0.0
H850 H 0.81044 0.38359 0.41161 0.0
H851 H 0.86673 0.40914 0.4184 0.0
H852 H 0.87336 0.39045 0.47031 0.0
H853 H 0.87204 0.27285 0.5222 0.0
H854 H 0.85376 0.30277 0.52557 0.0
H855 H 0.90652 0.33558 0.52135 0.0
H856 H 0.92515 0.3055 0.51914 0.0
H857 H 0.87227 0.34902 0.47801 0.0
H858 H 0.89078 0.33513 0.59192 0.0
H859 H 0.8962 0.31411 0.64134 0.0
H860 H 0.83589 0.30011 0.64409 0.0
H861 H 0.83016 0.3208 0.59433 0.0
C862 C 0.80307 0.40915 0.52379 0.0
C863 C 0.7854 0.39992 0.53041 0.0
C864 C 0.82037 0.3987 0.52478 0.0
C865 C 0.82017 0.37888 0.53215 0.0
C866 C 0.80255 0.36979 0.53918 0.0
C867 C 0.78538 0.38016 0.5382 0.0
C868 C 0.83797 0.36704 0.53145 0.0
C869 C 0.84224 0.35577 0.55997 0.0
C870 C 0.84948 0.36519 0.50201 0.0
C871 C 0.84549 0.37636 0.47084 0.0
C872 C 0.82778 0.3744 0.45384 0.0
C873 C 0.82413 0.38507 0.42452 0.0
C874 C 0.83814 0.39762 0.4118 0.0
C875 C 0.85587 0.39946 0.42833 0.0
C876 C 0.85959 0.38883 0.45768 0.0
C877 C 0.87982 0.2864 0.52173 0.0
C878 C 0.90006 0.28675 0.52 0.0
C879 C 0.86934 0.30347 0.52358 0.0
C880 C 0.87884 0.3213 0.52382 0.0
C881 C 0.89899 0.32189 0.52096 0.0
C882 C 0.90958 0.30469 0.51937 0.0
C883 C 0.86733 0.339 0.52882 0.0
C884 C 0.86422 0.3513 0.50121 0.0
C885 C 0.85676 0.34174 0.55902 0.0
C886 C 0.86006 0.32947 0.58929 0.0
C887 C 0.87869 0.32748 0.60292 0.0
C888 C 0.88182 0.31563 0.63102 0.0
C889 C 0.8664 0.30577 0.64583 0.0
C890 C 0.84782 0.30777 0.63261 0.0
C891 C 0.84462 0.31958 0.60449 0.0
H892 H 0.86885 0.29659 0.66757 0.0
H893 H 0.83529 0.40587 0.3891 0.0
H894 H 0.57433 0.80438 0.51738 0.0
H895 H 0.59287 0.83442 0.52021 0.0
H896 H 0.64404 0.80195 0.54513 0.0
H897 H 0.62555 0.77217 0.54372 0.0
H898 H 0.64204 0.83354 0.58276 0.0
H899 H 0.63355 0.81705 0.46341 0.0
H900 H 0.61408 0.8109 0.41228 0.0
H901 H 0.58901 0.86738 0.42011 0.0
H902 H 0.6082 0.87375 0.47155 0.0
H903 H 0.7262 0.87144 0.51684 0.0
H904 H 0.69627 0.85333 0.52267 0.0
H905 H 0.66375 0.90631 0.52208 0.0
H906 H 0.69381 0.92475 0.51771 0.0
H907 H 0.64965 0.87232 0.47803 0.0
H908 H 0.66513 0.89027 0.59169 0.0
H909 H 0.6868 0.89525 0.64036 0.0
H910 H 0.70027 0.8348 0.64168 0.0
H911 H 0.67892 0.8295 0.59264 0.0
C912 C 0.58938 0.8037 0.5244 0.0
C913 C 0.59842 0.7859 0.53081 0.0
C914 C 0.60002 0.82087 0.52557 0.0
C915 C 0.61985 0.82042 0.5328 0.0
C916 C 0.62873 0.80268 0.53972 0.0
C917 C 0.61817 0.78564 0.53864 0.0
C918 C 0.63192 0.83805 0.53182 0.0
C919 C 0.64359 0.84211 0.55995 0.0
C920 C 0.63356 0.84961 0.5024 0.0
C921 C 0.62209 0.84577 0.47152 0.0
C922 C 0.62377 0.82809 0.45436 0.0
C923 C 0.61281 0.82458 0.42531 0.0
C924 C 0.60026 0.83871 0.41303 0.0
C925 C 0.5987 0.85642 0.42971 0.0
C926 C 0.60961 0.85999 0.4588 0.0
C927 C 0.71271 0.87931 0.51776 0.0
C928 C 0.71243 0.89955 0.51622 0.0
C929 C 0.69563 0.86893 0.52103 0.0
C930 C 0.6779 0.87854 0.52281 0.0
C931 C 0.67736 0.8987 0.52045 0.0
C932 C 0.69456 0.90919 0.51755 0.0
C933 C 0.66022 0.86712 0.52842 0.0
C934 C 0.64757 0.86422 0.50124 0.0
C935 C 0.65777 0.85647 0.55859 0.0
C936 C 0.67047 0.85952 0.58837 0.0
C937 C 0.67281 0.87806 0.6022 0.0
C938 C 0.68503 0.88093 0.62988 0.0
C939 C 0.69492 0.86535 0.64408 0.0
C940 C 0.69259 0.84685 0.63066 0.0
C941 C 0.6804 0.8439 0.60295 0.0
H942 H 0.70438 0.86761 0.66551 0.0
H943 H 0.5918 0.83597 0.39053 0.0
H944 H 0.15188 0.02835 0.02516 0.0
H945 H 0.13002 0.05585 0.02223 0.0
H946 H 0.1747 0.09296 0.06142 0.0
H947 H 0.19658 0.06536 0.06522 0.0
H948 H 0.14169 0.10022 0.09207 0.0
H949 H 0.16192 0.09401 0.97747 0.0
H950 H 0.16845 0.07729 0.9236 0.0
H951 H 0.10833 0.06357 0.91365 0.0
H952 H 0.10147 0.07995 0.96775 0.0
H953 H 0.09219 0.18732 0.05121 0.0
H954 H 0.11595 0.16129 0.05161 0.0
H955 H 0.07147 0.12031 0.02615 0.0
H956 H 0.04752 0.14624 0.02578 0.0
H957 H 0.1055 0.11626 0.98744 0.0
H958 H 0.08637 0.12224 0.10457 0.0
H959 H 0.08087 0.13998 0.15778 0.0
H960 H 0.14075 0.15568 0.16135 0.0
H961 H 0.14655 0.13824 0.10787 0.0
C962 C 0.15711 0.04237 0.03306 0.0
C963 C 0.17599 0.04467 0.04539 0.0
C964 C 0.1446 0.05811 0.03121 0.0
C965 C 0.15079 0.07653 0.04117 0.0
C966 C 0.16963 0.07888 0.05354 0.0
C967 C 0.18213 0.0631 0.05561 0.0
C968 C 0.1374 0.09319 0.03947 0.0
C969 C 0.13402 0.10391 0.06903 0.0
C970 C 0.12717 0.09785 0.00953 0.0
C971 C 0.1312 0.08807 0.97684 0.0
C972 C 0.1501 0.0873 0.96393 0.0
C973 C 0.15386 0.0779 0.93333 0.0
C974 C 0.13882 0.06934 0.91525 0.0
C975 C 0.11997 0.0702 0.9277 0.0
C976 C 0.11613 0.07955 0.95832 0.0
C977 C 0.08742 0.17278 0.0457 0.0
C978 C 0.06792 0.16885 0.0386 0.0
C979 C 0.10103 0.15793 0.04599 0.0
C980 C 0.09542 0.1389 0.03908 0.0
C981 C 0.07605 0.13493 0.03153 0.0
C982 C 0.06239 0.14975 0.03151 0.0
C983 C 0.10974 0.12307 0.04005 0.0
C984 C 0.11327 0.11256 0.01037 0.0
C985 C 0.12029 0.11876 0.06973 0.0
C986 C 0.11685 0.1291 0.10204 0.0
C987 C 0.09833 0.1296 0.11656 0.0
C988 C 0.09517 0.13958 0.14679 0.0
C989 C 0.11044 0.149 0.16289 0.0
C990 C 0.12892 0.1484 0.14883 0.0
C991 C 0.13216 0.13846 0.11858 0.0
H992 H 0.10796 0.15672 0.18629 0.0
H993 H 0.14176 0.06207 0.89157 0.0
H994 H 0.93488 0.19871 0.03814 0.0
H995 H 0.90699 0.1771 0.03712 0.0
H996 H 0.945 0.12809 0.02779 0.0
H997 H 0.97285 0.14957 0.02791 0.0
H998 H 0.91538 0.12413 0.98683 0.0
H999 H 0.92387 0.14083 0.10414 0.0
H1000 H 0.92703 0.16291 0.15275 0.0
H1001 H 0.87077 0.18606 0.13241 0.0
H1002 H 0.86738 0.16428 0.08337 0.0
H1003 H 0.8536 0.0485 0.03742 0.0
H1004 H 0.87945 0.0724 0.03625 0.0
H1005 H 0.83739 0.11823 0.03637 0.0
H1006 H 0.81136 0.09444 0.03771 0.0
H1007 H 0.86762 0.12506 0.08037 0.0
H1008 H 0.85887 0.10672 0.9643 0.0
H1009 H 0.85595 0.08387 0.91676 0.0
H1010 H 0.91323 0.06302 0.93601 0.0
H1011 H 0.91639 0.08556 0.984 0.0
C1012 C 0.93729 0.18333 0.03575 0.0
C1013 C 0.95608 0.17584 0.03328 0.0
C1014 C 0.92134 0.171 0.03532 0.0
C1015 C 0.92392 0.15095 0.03288 0.0
C1016 C 0.94266 0.1435 0.02974 0.0
C1017 C 0.95857 0.15581 0.02989 0.0
C1018 C 0.9072 0.13762 0.03381 0.0
C1019 C 0.90506 0.12421 0.00747 0.0
C1020 C 0.89347 0.13802 0.06035 0.0
C1021 C 0.89546 0.15108 0.08987 0.0
C1022 C 0.91223 0.15073 0.10988 0.0
C1023 C 0.91406 0.16317 0.13753 0.0
C1024 C 0.89914 0.17592 0.1456 0.0
C1025 C 0.88233 0.17621 0.12609 0.0
C1026 C 0.88044 0.16381 0.09838 0.0
C1027 C 0.8498 0.06365 0.03734 0.0
C1028 C 0.83039 0.06954 0.0375 0.0
C1029 C 0.86461 0.07729 0.03654 0.0
C1030 C 0.8603 0.09706 0.03582 0.0
C1031 C 0.84099 0.10303 0.03683 0.0
C1032 C 0.82615 0.0894 0.0375 0.0
C1033 C 0.87601 0.11147 0.03364 0.0
C1034 C 0.87791 0.12507 0.05968 0.0
C1035 C 0.8896 0.11119 0.00695 0.0
C1036 C 0.88779 0.09772 0.97793 0.0
C1037 C 0.87079 0.09717 0.95856 0.0
C1038 C 0.8691 0.08429 0.9315 0.0
C1039 C 0.88438 0.07197 0.92342 0.0
C1040 C 0.9014 0.07255 0.94232 0.0
C1041 C 0.90315 0.08539 0.96943 0.0
H1042 H 0.88304 0.06201 0.90247 0.0
H1043 H 0.90057 0.18553 0.16703 0.0
H1044 H 0.95667 0.85526 0.04796 0.0
H1045 H 0.9339 0.88223 0.04737 0.0
H1046 H 0.8863 0.84221 0.04401 0.0
H1047 H 0.90885 0.81523 0.04418 0.0
H1048 H 0.88155 0.87062 0.99885 0.0
H1049 H 0.89754 0.86574 0.11662 0.0
H1050 H 0.91915 0.86428 0.1661 0.0
H1051 H 0.94123 0.92052 0.14221 0.0
H1052 H 0.91993 0.92221 0.09228 0.0
H1053 H 0.80572 0.93569 0.04048 0.0
H1054 H 0.82892 0.90908 0.04167 0.0
H1055 H 0.87592 0.94981 0.03971 0.0
H1056 H 0.8529 0.97648 0.03857 0.0
H1057 H 0.88117 0.92135 0.08739 0.0
H1058 H 0.86469 0.92613 0.96972 0.0
H1059 H 0.84269 0.92748 0.92077 0.0
H1060 H 0.82112 0.87111 0.94515 0.0
H1061 H 0.8428 0.86955 0.99458 0.0
C1062 C 0.94136 0.85219 0.04722 0.0
C1063 C 0.9346 0.83306 0.04616 0.0
C1064 C 0.92836 0.86762 0.04698 0.0
C1065 C 0.9084 0.86421 0.04589 0.0
C1066 C 0.90164 0.84516 0.04482 0.0
C1067 C 0.91458 0.82975 0.04504 0.0
C1068 C 0.89451 0.88046 0.0453 0.0
C1069 C 0.8813 0.88157 0.01845 0.0
C1070 C 0.89447 0.89497 0.07049 0.0
C1071 C 0.90729 0.89401 0.10051 0.0
C1072 C 0.90712 0.87773 0.12175 0.0
C1073 C 0.91929 0.87688 0.14991 0.0
C1074 C 0.9316 0.89228 0.15724 0.0
C1075 C 0.93172 0.90859 0.13647 0.0
C1076 C 0.91959 0.90951 0.10825 0.0
C1077 C 0.82099 0.93899 0.04026 0.0
C1078 C 0.82747 0.95819 0.03936 0.0
C1079 C 0.83422 0.92377 0.04086 0.0
C1080 C 0.85412 0.9275 0.04058 0.0
C1081 C 0.86062 0.94664 0.03996 0.0
C1082 C 0.84743 0.96185 0.03917 0.0
C1083 C 0.8682 0.91144 0.04102 0.0
C1084 C 0.88144 0.91038 0.06782 0.0
C1085 C 0.86823 0.89695 0.01585 0.0
C1086 C 0.85523 0.89781 0.98606 0.0
C1087 C 0.85514 0.91409 0.96482 0.0
C1088 C 0.84275 0.91488 0.93695 0.0
C1089 C 0.83048 0.89941 0.92991 0.0
C1090 C 0.83061 0.88309 0.95067 0.0
C1091 C 0.84296 0.88224 0.9786 0.0
H1092 H 0.8209 0.90005 0.90831 0.0
H1093 H 0.941 0.89159 0.17906 0.0
H1094 H 0.147 0.95551 0.04087 0.0
H1095 H 0.12048 0.93232 0.0425 0.0
H1096 H 0.16133 0.88542 0.04606 0.0
H1097 H 0.18793 0.90843 0.04382 0.0
H1098 H 0.1332 0.87757 0.00257 0.0
H1099 H 0.13711 0.89981 0.11695 0.0
H1100 H 0.13822 0.92387 0.16285 0.0
H1101 H 0.082 0.94436 0.13481 0.0
H1102 H 0.08066 0.92059 0.08839 0.0
H1103 H 0.06702 0.80471 0.05729 0.0
H1104 H 0.09388 0.82766 0.05514 0.0
H1105 H 0.05378 0.8743 0.03883 0.0
H1106 H 0.0269 0.85151 0.04064 0.0
H1107 H 0.08156 0.88193 0.0892 0.0
H1108 H 0.0782 0.85905 0.97443 0.0
H1109 H 0.07747 0.83431 0.92963 0.0
H1110 H 0.13335 0.81412 0.96031 0.0
H1111 H 0.13429 0.83857 0.00567 0.0
C1112 C 0.15036 0.94027 0.04205 0.0
C1113 C 0.16961 0.93386 0.04233 0.0
C1114 C 0.13518 0.92703 0.0431 0.0
C1115 C 0.13893 0.90714 0.04478 0.0
C1116 C 0.1581 0.9007 0.04479 0.0
C1117 C 0.17329 0.9139 0.04362 0.0
C1118 C 0.12287 0.89303 0.04629 0.0
C1119 C 0.12206 0.87837 0.02181 0.0
C1120 C 0.10814 0.89426 0.07104 0.0
C1121 C 0.10887 0.90855 0.09897 0.0
C1122 C 0.12505 0.90955 0.12039 0.0
C1123 C 0.12571 0.92312 0.14653 0.0
C1124 C 0.11021 0.93567 0.15169 0.0
C1125 C 0.094 0.93464 0.13075 0.0
C1126 C 0.09328 0.92112 0.10454 0.0
C1127 C 0.06393 0.81985 0.0532 0.0
C1128 C 0.04485 0.8263 0.04908 0.0
C1129 C 0.07927 0.83291 0.0519 0.0
C1130 C 0.07577 0.85263 0.04672 0.0
C1131 C 0.05675 0.85913 0.04287 0.0
C1132 C 0.04143 0.84607 0.04377 0.0
C1133 C 0.09193 0.86656 0.0455 0.0
C1134 C 0.09274 0.88115 0.07004 0.0
C1135 C 0.10673 0.86517 0.02099 0.0
C1136 C 0.10622 0.8505 0.99369 0.0
C1137 C 0.09026 0.84922 0.97183 0.0
C1138 C 0.08982 0.83527 0.9463 0.0
C1139 C 0.10533 0.82262 0.94219 0.0
C1140 C 0.12133 0.82391 0.96356 0.0
C1141 C 0.12183 0.83782 0.98917 0.0
H1142 H 0.10497 0.81184 0.92239 0.0
H1143 H 0.11075 0.94616 0.17195 0.0
H1144 H 0.19084 0.93373 0.48109 0.0
H1145 H 0.16764 0.90721 0.48214 0.0
H1146 H 0.12393 0.94578 0.52044 0.0
H1147 H 0.14717 0.97223 0.5203 0.0
H1148 H 0.1221 0.91266 0.55257 0.0
H1149 H 0.12517 0.93197 0.43644 0.0
H1150 H 0.14083 0.9397 0.38208 0.0
H1151 H 0.16288 0.88194 0.37568 0.0
H1152 H 0.14757 0.87393 0.43028 0.0
H1153 H 0.04146 0.85242 0.51317 0.0
H1154 H 0.06429 0.87939 0.51221 0.0
H1155 H 0.11073 0.84003 0.48983 0.0
H1156 H 0.08814 0.81299 0.49106 0.0
H1157 H 0.11047 0.87376 0.44915 0.0
H1158 H 0.10705 0.85513 0.56656 0.0
H1159 H 0.09038 0.84793 0.62021 0.0
H1160 H 0.06757 0.9055 0.62283 0.0
H1161 H 0.08389 0.91295 0.56888 0.0
C1162 C 0.17631 0.93655 0.48984 0.0
C1163 C 0.17083 0.95511 0.50043 0.0
C1164 C 0.16303 0.9214 0.49027 0.0
C1165 C 0.14394 0.92458 0.50083 0.0
C1166 C 0.13855 0.943 0.51209 0.0
C1167 C 0.15186 0.95812 0.51193 0.0
C1168 C 0.12956 0.90872 0.50005 0.0
C1169 C 0.11938 0.90435 0.5298 0.0
C1170 C 0.12619 0.89766 0.4705 0.0
C1171 C 0.13538 0.90241 0.43762 0.0
C1172 C 0.13349 0.92096 0.42358 0.0
C1173 C 0.14228 0.92538 0.3927 0.0
C1174 C 0.15288 0.91133 0.37548 0.0
C1175 C 0.15468 0.89281 0.38907 0.0
C1176 C 0.14594 0.88832 0.41997 0.0
C1177 C 0.05651 0.84951 0.5079 0.0
C1178 C 0.063 0.83056 0.5023 0.0
C1179 C 0.06952 0.86492 0.50746 0.0
C1180 C 0.08917 0.86163 0.50113 0.0
C1181 C 0.09561 0.84282 0.49477 0.0
C1182 C 0.08268 0.8274 0.49562 0.0
C1183 C 0.10313 0.87777 0.5016 0.0
C1184 C 0.1132 0.88216 0.47182 0.0
C1185 C 0.10627 0.88896 0.531 0.0
C1186 C 0.09651 0.88453 0.56349 0.0
C1187 C 0.09833 0.8662 0.57841 0.0
C1188 C 0.08898 0.86208 0.60891 0.0
C1189 C 0.07788 0.87623 0.62487 0.0
C1190 C 0.07615 0.89454 0.6104 0.0
C1191 C 0.08546 0.89873 0.57988 0.0
H1192 H 0.07065 0.87302 0.64848 0.0
H1193 H 0.15968 0.91479 0.35157 0.0
H1194 H 0.02537 0.14733 0.51598 0.0
H1195 H 0.05282 0.12535 0.5167 0.0
H1196 H 0.09163 0.17338 0.50318 0.0
H1197 H 0.06413 0.19551 0.50168 0.0
H1198 H 0.10115 0.14449 0.46228 0.0
H1199 H 0.08709 0.15077 0.58012 0.0
H1200 H 0.06673 0.15067 0.63128 0.0
H1201 H 0.05355 0.09083 0.6155 0.0
H1202 H 0.07362 0.09064 0.56394 0.0
H1203 H 0.18589 0.09061 0.50012 0.0
H1204 H 0.15967 0.11411 0.50153 0.0
H1205 H 0.11819 0.06796 0.50925 0.0
H1206 H 0.14432 0.04429 0.50817 0.0
H1207 H 0.11099 0.09687 0.55441 0.0
H1208 H 0.12452 0.09129 0.43526 0.0
H1209 H 0.14522 0.09171 0.38451 0.0
H1210 H 0.15997 0.15084 0.40386 0.0
H1211 H 0.13955 0.15069 0.45501 0.0
C1212 C 0.03974 0.15327 0.51332 0.0
C1213 C 0.04257 0.17319 0.50882 0.0
C1214 C 0.05544 0.14067 0.51388 0.0
C1215 C 0.0743 0.14774 0.51042 0.0
C1216 C 0.07719 0.16762 0.50596 0.0
C1217 C 0.06147 0.18025 0.5052 0.0
C1218 C 0.09092 0.13427 0.51055 0.0
C1219 C 0.10349 0.13429 0.4827 0.0
C1220 C 0.09375 0.1207 0.53688 0.0
C1221 C 0.08173 0.12074 0.56798 0.0
C1222 C 0.07974 0.13763 0.58741 0.0
C1223 C 0.06827 0.13762 0.6165 0.0
C1224 C 0.05882 0.12077 0.62659 0.0
C1225 C 0.06086 0.10388 0.60764 0.0
C1226 C 0.0723 0.10381 0.57849 0.0
C1227 C 0.17119 0.08541 0.502 0.0
C1228 C 0.16721 0.06553 0.50394 0.0
C1229 C 0.15623 0.09888 0.50272 0.0
C1230 C 0.13699 0.09276 0.50522 0.0
C1231 C 0.13295 0.07297 0.5073 0.0
C1232 C 0.14791 0.05947 0.50654 0.0
C1233 C 0.12108 0.10701 0.50605 0.0
C1234 C 0.10867 0.10713 0.53409 0.0
C1235 C 0.11846 0.12077 0.47999 0.0
C1236 C 0.13066 0.12092 0.44914 0.0
C1237 C 0.1323 0.10434 0.42884 0.0
C1238 C 0.14396 0.10454 0.39998 0.0
C1239 C 0.15395 0.12128 0.39102 0.0
C1240 C 0.15225 0.13788 0.41085 0.0
C1241 C 0.14062 0.13775 0.43976 0.0
H1242 H 0.16297 0.1214 0.36866 0.0
H1243 H 0.04994 0.12079 0.64912 0.0
H1244 H 0.84758 0.02793 0.50935 0.0
H1245 H 0.86924 0.05553 0.5128 0.0
H1246 H 0.82159 0.09398 0.49326 0.0
H1247 H 0.79977 0.0663 0.48912 0.0
H1248 H 0.8523 0.1035 0.45583 0.0
H1249 H 0.84075 0.08997 0.57257 0.0
H1250 H 0.83856 0.06998 0.62403 0.0
H1251 H 0.89895 0.05683 0.6169 0.0
H1252 H 0.90145 0.07653 0.5651 0.0
H1253 H 0.90626 0.18774 0.49817 0.0
H1254 H 0.88202 0.16216 0.49801 0.0
H1255 H 0.9267 0.11955 0.51145 0.0
H1256 H 0.95108 0.14501 0.51181 0.0
H1257 H 0.89587 0.11363 0.55383 0.0
H1258 H 0.90671 0.1258 0.43529 0.0
H1259 H 0.90881 0.14601 0.38406 0.0
H1260 H 0.84934 0.16205 0.39536 0.0
H1261 H 0.84696 0.14214 0.44696 0.0
C1262 C 0.84165 0.04224 0.50589 0.0
C1263 C 0.82193 0.04491 0.49898 0.0
C1264 C 0.85405 0.05803 0.50805 0.0
C1265 C 0.84699 0.07684 0.50372 0.0
C1266 C 0.82732 0.07958 0.49677 0.0
C1267 C 0.81488 0.06376 0.49449 0.0
C1268 C 0.86032 0.09353 0.50552 0.0
C1269 C 0.86158 0.10592 0.47752 0.0
C1270 C 0.87269 0.09646 0.53356 0.0
C1271 C 0.87124 0.08461 0.56477 0.0
C1272 C 0.85353 0.08269 0.58181 0.0
C1273 C 0.85224 0.07143 0.61108 0.0
C1274 C 0.8686 0.06211 0.62368 0.0
C1275 C 0.88629 0.06405 0.60708 0.0
C1276 C 0.88765 0.07528 0.57779 0.0
C1277 C 0.91097 0.17293 0.50103 0.0
C1278 C 0.93065 0.16842 0.50489 0.0
C1279 C 0.89709 0.15833 0.50086 0.0
C1280 C 0.9026 0.13897 0.50448 0.0
C1281 C 0.92217 0.13442 0.50862 0.0
C1282 C 0.93608 0.14899 0.50868 0.0
C1283 C 0.88797 0.12341 0.50402 0.0
C1284 C 0.88647 0.11126 0.53228 0.0
C1285 C 0.87534 0.12074 0.47629 0.0
C1286 C 0.87672 0.13265 0.44519 0.0
C1287 C 0.89413 0.13376 0.42701 0.0
C1288 C 0.89536 0.14514 0.39788 0.0
C1289 C 0.87924 0.15535 0.38652 0.0
C1290 C 0.86183 0.15416 0.40422 0.0
C1291 C 0.86052 0.14282 0.4334 0.0
H1292 H 0.88022 0.16415 0.36396 0.0
H1293 H 0.8676 0.05341 0.64636 0.0
H1294 H 0.93286 0.80457 0.47159 0.0
H1295 H 0.90636 0.82783 0.4704 0.0
H1296 H 0.94406 0.8716 0.51106 0.0
H1297 H 0.97039 0.8483 0.51335 0.0
H1298 H 0.91099 0.87359 0.54134 0.0
H1299 H 0.93072 0.87107 0.42512 0.0
H1300 H 0.93888 0.85561 0.37077 0.0
H1301 H 0.88195 0.83147 0.36494 0.0
H1302 H 0.87343 0.84683 0.41928 0.0
H1303 H 0.85258 0.95473 0.50066 0.0
H1304 H 0.87902 0.93134 0.49964 0.0
H1305 H 0.83872 0.88582 0.47667 0.0
H1306 H 0.81217 0.90902 0.47781 0.0
H1307 H 0.8728 0.88491 0.43701 0.0
H1308 H 0.85358 0.88959 0.55416 0.0
H1309 H 0.8464 0.90693 0.60717 0.0
H1310 H 0.90432 0.92881 0.6099 0.0
H1311 H 0.91176 0.91182 0.5566 0.0
C1312 C 0.93549 0.81914 0.48034 0.0
C1313 C 0.95373 0.82459 0.49253 0.0
C1314 C 0.92036 0.83246 0.47943 0.0
C1315 C 0.92328 0.85157 0.49015 0.0
C1316 C 0.94145 0.85696 0.50263 0.0
C1317 C 0.95651 0.84362 0.50388 0.0
C1318 C 0.90737 0.8659 0.48885 0.0
C1319 C 0.90284 0.87623 0.51837 0.0
C1320 C 0.89648 0.86917 0.45908 0.0
C1321 C 0.90151 0.85994 0.42639 0.0
C1322 C 0.91998 0.86237 0.41232 0.0
C1323 C 0.92465 0.85368 0.38149 0.0
C1324 C 0.91097 0.84248 0.36448 0.0
C1325 C 0.89254 0.84011 0.37817 0.0
C1326 C 0.88776 0.84886 0.40893 0.0
C1327 C 0.84934 0.93977 0.49519 0.0
C1328 C 0.83025 0.93373 0.48947 0.0
C1329 C 0.86445 0.92643 0.49471 0.0
C1330 C 0.86076 0.90687 0.48832 0.0
C1331 C 0.84183 0.90087 0.48168 0.0
C1332 C 0.82669 0.91414 0.48248 0.0
C1333 C 0.87658 0.89256 0.48939 0.0
C1334 C 0.88103 0.88223 0.45989 0.0
C1335 C 0.88758 0.88949 0.51904 0.0
C1336 C 0.88316 0.89959 0.55121 0.0
C1337 C 0.86474 0.89823 0.56591 0.0
C1338 C 0.86063 0.90797 0.59604 0.0
C1339 C 0.87488 0.919 0.61185 0.0
C1340 C 0.89329 0.92028 0.59761 0.0
C1341 C 0.89746 0.91059 0.56745 0.0
H1342 H 0.87167 0.92653 0.63517 0.0
H1343 H 0.91466 0.83569 0.34068 0.0
H1344 H 0.64853 0.52632 0.5364 0.0
H1345 H 0.62563 0.553 0.53525 0.0
H1346 H 0.67062 0.59227 0.56596 0.0
H1347 H 0.69357 0.56547 0.56812 0.0
H1348 H 0.63887 0.59927 0.60045 0.0
H1349 H 0.65392 0.59048 0.48332 0.0
H1350 H 0.658 0.57237 0.4301 0.0
H1351 H 0.59792 0.55737 0.43097 0.0
H1352 H 0.59352 0.57517 0.48448 0.0
H1353 H 0.58927 0.6856 0.55699 0.0
H1354 H 0.61215 0.65886 0.55889 0.0
H1355 H 0.5659 0.6186 0.54062 0.0
H1356 H 0.5428 0.6453 0.53869 0.0
H1357 H 0.59822 0.61239 0.4997 0.0
H1358 H 0.58371 0.62184 0.61749 0.0
H1359 H 0.58019 0.64081 0.6699 0.0
H1360 H 0.64028 0.65566 0.66643 0.0
H1361 H 0.6441 0.63701 0.61368 0.0
C1362 C 0.6536 0.54064 0.5428 0.0
C1363 C 0.6729 0.54379 0.55227 0.0
C1364 C 0.64049 0.55591 0.54198 0.0
C1365 C 0.64645 0.5747 0.55005 0.0
C1366 C 0.6657 0.57789 0.55959 0.0
C1367 C 0.67881 0.56257 0.56071 0.0
C1368 C 0.63249 0.59092 0.54912 0.0
C1369 C 0.6302 0.6023 0.57823 0.0
C1370 C 0.62086 0.59465 0.52037 0.0
C1371 C 0.62343 0.58401 0.48809 0.0
C1372 C 0.6416 0.5832 0.4723 0.0
C1373 C 0.64397 0.57301 0.44206 0.0
C1374 C 0.62824 0.56369 0.42721 0.0
C1375 C 0.6101 0.56458 0.44252 0.0
C1376 C 0.60765 0.57473 0.47279 0.0
C1377 C 0.58391 0.67107 0.55348 0.0
C1378 C 0.56418 0.66759 0.54775 0.0
C1379 C 0.59701 0.6558 0.55468 0.0
C1380 C 0.59068 0.63677 0.55011 0.0
C1381 C 0.57104 0.63321 0.54424 0.0
C1382 C 0.55787 0.64847 0.54329 0.0
C1383 C 0.60465 0.62063 0.55098 0.0
C1384 C 0.60693 0.60931 0.52186 0.0
C1385 C 0.61638 0.61707 0.57958 0.0
C1386 C 0.61415 0.62818 0.61145 0.0
C1387 C 0.59614 0.62928 0.62774 0.0
C1388 C 0.59409 0.63995 0.65754 0.0
C1389 C 0.60999 0.64947 0.67144 0.0
C1390 C 0.62797 0.6483 0.65561 0.0
C1391 C 0.63009 0.63766 0.62578 0.0
H1392 H 0.60838 0.65773 0.69452 0.0
H1393 H 0.6301 0.55581 0.40379 0.0
H1394 H 0.35271 0.54549 0.54699 0.0
H1395 H 0.3786 0.56935 0.54859 0.0
H1396 H 0.33671 0.61523 0.54236 0.0
H1397 H 0.31071 0.59149 0.54029 0.0
H1398 H 0.3663 0.62154 0.5 0.0
H1399 H 0.35865 0.60523 0.6166 0.0
H1400 H 0.35607 0.58374 0.6661 0.0
H1401 H 0.41335 0.56261 0.64777 0.0
H1402 H 0.41617 0.58379 0.59782 0.0
H1403 H 0.43174 0.6968 0.54882 0.0
H1404 H 0.40459 0.67414 0.54817 0.0
H1405 H 0.44433 0.62642 0.54165 0.0
H1406 H 0.47149 0.6489 0.54186 0.0
H1407 H 0.41519 0.62205 0.59169 0.0
H1408 H 0.42202 0.63832 0.47383 0.0
H1409 H 0.42423 0.66045 0.42515 0.0
H1410 H 0.36778 0.68255 0.44745 0.0
H1411 H 0.36535 0.66074 0.49663 0.0
C1412 C 0.34897 0.56064 0.54605 0.0
C1413 C 0.32961 0.56656 0.54362 0.0
C1414 C 0.36379 0.57427 0.54709 0.0
C1415 C 0.35956 0.59406 0.54594 0.0
C1416 C 0.34029 0.60002 0.54332 0.0
C1417 C 0.32545 0.58642 0.54227 0.0
C1418 C 0.37528 0.60853 0.54698 0.0
C1419 C 0.37682 0.62184 0.52032 0.0
C1420 C 0.38917 0.60871 0.57322 0.0
C1421 C 0.38755 0.59596 0.60326 0.0
C1422 C 0.37064 0.59588 0.62294 0.0
C1423 C 0.36914 0.58378 0.65112 0.0
C1424 C 0.38452 0.57178 0.66002 0.0
C1425 C 0.40144 0.5719 0.64081 0.0
C1426 C 0.403 0.58396 0.61258 0.0
C1427 C 0.43468 0.68149 0.54717 0.0
C1428 C 0.45373 0.67463 0.54534 0.0
C1429 C 0.41918 0.66859 0.54674 0.0
C1430 C 0.42252 0.64865 0.54481 0.0
C1431 C 0.4415 0.64177 0.54319 0.0
C1432 C 0.45697 0.65464 0.54316 0.0
C1433 C 0.40623 0.63489 0.54466 0.0
C1434 C 0.4046 0.62176 0.57149 0.0
C1435 C 0.39219 0.63496 0.51873 0.0
C1436 C 0.3936 0.64806 0.48915 0.0
C1437 C 0.41015 0.64804 0.46857 0.0
C1438 C 0.41143 0.66049 0.44084 0.0
C1439 C 0.39618 0.67294 0.43327 0.0
C1440 C 0.37959 0.67292 0.45338 0.0
C1441 C 0.37826 0.66051 0.48118 0.0
H1442 H 0.39719 0.68257 0.41178 0.0
H1443 H 0.38334 0.56243 0.68185 0.0
H1444 H 0.35093 0.47305 0.53252 0.0
H1445 H 0.37373 0.44626 0.5331 0.0
H1446 H 0.32682 0.40624 0.54782 0.0
H1447 H 0.30389 0.43308 0.54803 0.0
H1448 H 0.35594 0.39795 0.58905 0.0
H1449 H 0.3493 0.41099 0.47067 0.0
H1450 H 0.34911 0.43104 0.41913 0.0
H1451 H 0.40871 0.44528 0.43481 0.0
H1452 H 0.40918 0.42553 0.48674 0.0
H1453 H 0.40748 0.31255 0.54851 0.0
H1454 H 0.38493 0.33956 0.54849 0.0
H1455 H 0.43245 0.37951 0.54162 0.0
H1456 H 0.45523 0.35252 0.54149 0.0
H1457 H 0.40323 0.38781 0.49647 0.0
H1458 H 0.40951 0.37424 0.61509 0.0
H1459 H 0.40933 0.35372 0.66605 0.0
H1460 H 0.34979 0.33979 0.64883 0.0
H1461 H 0.34969 0.36003 0.59747 0.0
C1462 C 0.34542 0.45855 0.53575 0.0
C1463 C 0.32557 0.4552 0.54016 0.0
C1464 C 0.35849 0.44323 0.53594 0.0
C1465 C 0.35197 0.42421 0.54009 0.0
C1466 C 0.33216 0.4208 0.54454 0.0
C1467 C 0.31907 0.43615 0.54454 0.0
C1468 C 0.36588 0.40794 0.54045 0.0
C1469 C 0.36609 0.39557 0.56857 0.0
C1470 C 0.37943 0.4051 0.51409 0.0
C1471 C 0.37922 0.41692 0.48278 0.0
C1472 C 0.36232 0.41851 0.46327 0.0
C1473 C 0.36217 0.42981 0.43396 0.0
C1474 C 0.37887 0.43947 0.42375 0.0
C1475 C 0.39578 0.43781 0.44278 0.0
C1476 C 0.396 0.42656 0.47214 0.0
C1477 C 0.4132 0.32707 0.54712 0.0
C1478 C 0.4332 0.33036 0.54507 0.0
C1479 C 0.40026 0.3425 0.54722 0.0
C1480 C 0.40703 0.36153 0.54532 0.0
C1481 C 0.42695 0.36491 0.54315 0.0
C1482 C 0.43994 0.34947 0.54322 0.0
C1483 C 0.39324 0.37786 0.54502 0.0
C1484 C 0.39307 0.39022 0.51692 0.0
C1485 C 0.37965 0.38063 0.57129 0.0
C1486 C 0.37965 0.36851 0.60225 0.0
C1487 C 0.39642 0.36668 0.62201 0.0
C1488 C 0.39636 0.35512 0.651 0.0
C1489 C 0.37957 0.34541 0.66062 0.0
C1490 C 0.36279 0.34729 0.64132 0.0
C1491 C 0.36278 0.35882 0.61229 0.0
H1492 H 0.37955 0.33647 0.68307 0.0
H1493 H 0.37873 0.4482 0.40105 0.0
H1494 H 0.56358 0.30596 0.57499 0.0
H1495 H 0.58995 0.32933 0.57445 0.0
H1496 H 0.55225 0.37172 0.5295 0.0
H1497 H 0.52599 0.34827 0.52905 0.0
H1498 H 0.58577 0.37297 0.49969 0.0
H1499 H 0.56473 0.3739 0.61508 0.0
H1500 H 0.55588 0.36022 0.67055 0.0
H1501 H 0.61273 0.33636 0.681 0.0
H1502 H 0.62192 0.34994 0.62554 0.0
H1503 H 0.64478 0.45489 0.53671 0.0
H1504 H 0.61798 0.43186 0.53792 0.0
H1505 H 0.6574 0.38621 0.56459 0.0
H1506 H 0.68427 0.409 0.5631 0.0
H1507 H 0.62291 0.38723 0.60406 0.0
H1508 H 0.64339 0.38811 0.48728 0.0
H1509 H 0.65127 0.40369 0.43292 0.0
H1510 H 0.59363 0.42603 0.42627 0.0
H1511 H 0.58548 0.4108 0.48088 0.0
C1512 C 0.56092 0.32024 0.56492 0.0
C1513 C 0.54268 0.32527 0.55216 0.0
C1514 C 0.57598 0.33363 0.56482 0.0
C1515 C 0.57301 0.3524 0.55243 0.0
C1516 C 0.55488 0.35735 0.53924 0.0
C1517 C 0.53987 0.34392 0.53907 0.0
C1518 C 0.58883 0.36683 0.55291 0.0
C1519 C 0.59369 0.37627 0.52264 0.0
C1520 C 0.59938 0.37097 0.58272 0.0
C1521 C 0.59395 0.36277 0.61604 0.0
C1522 C 0.5753 0.36564 0.62912 0.0
C1523 C 0.57024 0.35795 0.66059 0.0
C1524 C 0.5837 0.34735 0.67922 0.0
C1525 C 0.6023 0.34454 0.66651 0.0
C1526 C 0.60747 0.35229 0.63512 0.0
C1527 C 0.64773 0.43997 0.54296 0.0
C1528 C 0.66665 0.43376 0.5497 0.0
C1529 C 0.63243 0.42684 0.54355 0.0
C1530 C 0.63578 0.40735 0.55118 0.0
C1531 C 0.65456 0.4012 0.55864 0.0
C1532 C 0.66988 0.41424 0.55764 0.0
C1533 C 0.61976 0.39327 0.55092 0.0
C1534 C 0.61491 0.38392 0.5812 0.0
C1535 C 0.60904 0.38941 0.52126 0.0
C1536 C 0.61389 0.39849 0.48835 0.0
C1537 C 0.63245 0.39649 0.47438 0.0
C1538 C 0.63695 0.40522 0.44349 0.0
C1539 C 0.62298 0.41589 0.4262 0.0
C1540 C 0.60445 0.41779 0.43972 0.0
C1541 C 0.59988 0.4091 0.47063 0.0
H1542 H 0.62649 0.42264 0.40228 0.0
H1543 H 0.57973 0.34134 0.70352 0.0
H1544 H 0.69481 0.43507 0.96838 0.0
H1545 H 0.67194 0.40824 0.96934 0.0
H1546 H 0.63092 0.44366 0.02304 0.0
H1547 H 0.65386 0.47037 0.02296 0.0
H1548 H 0.63173 0.40897 0.04965 0.0
H1549 H 0.62589 0.43444 0.93748 0.0
H1550 H 0.63756 0.44552 0.88184 0.0
H1551 H 0.6604 0.38914 0.86138 0.0
H1552 H 0.64894 0.37774 0.91705 0.0
H1553 H 0.54757 0.35284 0.01568 0.0
H1554 H 0.57112 0.37917 0.014 0.0
H1555 H 0.61505 0.33944 0.98074 0.0
H1556 H 0.59174 0.31296 0.98291 0.0
H1557 H 0.61276 0.37583 0.94342 0.0
H1558 H 0.61715 0.35086 0.0571 0.0
H1559 H 0.60411 0.34077 0.11238 0.0
H1560 H 0.58232 0.39794 0.12929 0.0
H1561 H 0.59499 0.4083 0.07382 0.0
C1562 C 0.68095 0.43713 0.98049 0.0
C1563 C 0.67613 0.45487 0.99549 0.0
C1564 C 0.66784 0.42181 0.98085 0.0
C1565 C 0.6496 0.42403 0.99583 0.0
C1566 C 0.6449 0.44163 0.01129 0.0
C1567 C 0.65802 0.4569 0.01114 0.0
C1568 C 0.6354 0.40801 0.9955 0.0
C1569 C 0.62742 0.40191 0.02635 0.0
C1570 C 0.62997 0.39857 0.96518 0.0
C1571 C 0.63673 0.40529 0.93156 0.0
C1572 C 0.6335 0.42443 0.9212 0.0
C1573 C 0.64005 0.43076 0.88964 0.0
C1574 C 0.64979 0.41807 0.86814 0.0
C1575 C 0.65288 0.39897 0.87808 0.0
C1576 C 0.64633 0.39255 0.90961 0.0
C1577 C 0.56222 0.34972 0.00788 0.0
C1578 C 0.56783 0.33081 0.99955 0.0
C1579 C 0.57564 0.36475 0.007 0.0
C1580 C 0.59478 0.36118 0.99734 0.0
C1581 C 0.60032 0.34244 0.98824 0.0
C1582 C 0.58701 0.32734 0.98965 0.0
C1583 C 0.60915 0.37694 0.99749 0.0
C1584 C 0.61713 0.38295 0.96664 0.0
C1585 C 0.61439 0.38646 0.02774 0.0
C1586 C 0.60683 0.38029 0.06114 0.0
C1587 C 0.60942 0.36123 0.07245 0.0
C1588 C 0.60213 0.35547 0.10385 0.0
C1589 C 0.59234 0.36869 0.12429 0.0
C1590 C 0.58987 0.38771 0.11341 0.0
C1591 C 0.59712 0.39353 0.082 0.0
H1592 H 0.58672 0.36421 0.1486 0.0
H1593 H 0.6549 0.42302 0.84376 0.0
H1594 H 0.56641 0.69288 0.99121 0.0
H1595 H 0.59307 0.66979 0.99154 0.0
H1596 H 0.55277 0.62319 0.00726 0.0
H1597 H 0.52616 0.64625 0.00811 0.0
H1598 H 0.58272 0.61799 0.04568 0.0
H1599 H 0.57361 0.6329 0.92826 0.0
H1600 H 0.57051 0.65399 0.8783 0.0
H1601 H 0.62775 0.67567 0.8948 0.0
H1602 H 0.6311 0.65489 0.94515 0.0
H1603 H 0.6475 0.54205 0.00278 0.0
H1604 H 0.62036 0.56461 0.00117 0.0
H1605 H 0.66001 0.61246 0.99658 0.0
H1606 H 0.68719 0.59012 0.99798 0.0
H1607 H 0.63017 0.61641 0.95171 0.0
H1608 H 0.63864 0.60124 0.06991 0.0
H1609 H 0.64141 0.57949 0.11905 0.0
H1610 H 0.58463 0.55738 0.09952 0.0
H1611 H 0.58163 0.57883 0.04996 0.0
C1612 C 0.56324 0.67771 0.99478 0.0
C1613 C 0.54418 0.67138 0.99949 0.0
C1614 C 0.57848 0.66451 0.99478 0.0
C1615 C 0.5749 0.64469 0.99883 0.0
C1616 C 0.55589 0.63839 0.00402 0.0
C1617 C 0.54069 0.6516 0.00444 0.0
C1618 C 0.59094 0.6305 0.99786 0.0
C1619 C 0.59292 0.61749 0.02487 0.0
C1620 C 0.60448 0.63002 0.97101 0.0
C1621 C 0.60253 0.64247 0.94065 0.0
C1622 C 0.58549 0.64226 0.92137 0.0
C1623 C 0.58369 0.65415 0.89296 0.0
C1624 C 0.59891 0.6662 0.88343 0.0
C1625 C 0.61597 0.66635 0.90224 0.0
C1626 C 0.61783 0.65451 0.93069 0.0
C1627 C 0.65046 0.55736 0.00128 0.0
C1628 C 0.66953 0.56426 0.00065 0.0
C1629 C 0.63493 0.57023 0.00049 0.0
C1630 C 0.6382 0.5902 0.99908 0.0
C1631 C 0.65719 0.5971 0.99769 0.0
C1632 C 0.6727 0.58428 0.99861 0.0
C1633 C 0.62188 0.60399 0.99949 0.0
C1634 C 0.61989 0.61692 0.97241 0.0
C1635 C 0.60825 0.6043 0.02611 0.0
C1636 C 0.60999 0.59149 0.05603 0.0
C1637 C 0.6268 0.59163 0.07594 0.0
C1638 C 0.62841 0.57938 0.1039 0.0
C1639 C 0.61323 0.56702 0.11235 0.0
C1640 C 0.59639 0.56694 0.09292 0.0
C1641 C 0.59473 0.57915 0.06491 0.0
H1642 H 0.61449 0.55755 0.134 0.0
H1643 H 0.59749 0.67539 0.86143 0.0
H1644 H 0.35091 0.52578 0.00237 0.0
H1645 H 0.37319 0.55295 0.00354 0.0
H1646 H 0.32531 0.59257 0.99768 0.0
H1647 H 0.30283 0.56534 0.99571 0.0
H1648 H 0.35353 0.60335 0.95602 0.0
H1649 H 0.34939 0.58498 0.07239 0.0
H1650 H 0.35026 0.56269 0.12098 0.0
H1651 H 0.40959 0.54957 0.0999 0.0
H1652 H 0.40899 0.57159 0.05086 0.0
H1653 H 0.40838 0.68622 0.00107 0.0
H1654 H 0.38488 0.66002 1.00024 0.0
H1655 H 0.43107 0.61834 0.00084 0.0
H1656 H 0.45476 0.64446 0.00199 0.0
H1657 H 0.40292 0.60937 0.04626 0.0
H1658 H 0.40644 0.62752 0.92883 0.0
H1659 H 0.40521 0.6501 0.88067 0.0
H1660 H 0.3465 0.66419 0.90488 0.0
H1661 H 0.34746 0.64187 0.95349 0.0
C1662 C 0.34507 0.54026 0.0014 0.0
C1663 C 0.32508 0.54341 0.99905 0.0
C1664 C 0.35785 0.55579 0.00223 0.0
C1665 C 0.35091 0.5748 0.00121 0.0
C1666 C 0.33097 0.57801 0.99859 0.0
C1667 C 0.31815 0.56245 0.99755 0.0
C1668 C 0.36456 0.59126 0.00236 0.0
C1669 C 0.36413 0.60484 0.97604 0.0
C1670 C 0.37864 0.59298 0.02814 0.0
C1671 C 0.37909 0.57982 0.05776 0.0
C1672 C 0.36258 0.57724 0.07796 0.0
C1673 C 0.36303 0.56467 0.10561 0.0
C1674 C 0.37996 0.55469 0.11348 0.0
C1675 C 0.39648 0.5573 0.09376 0.0
C1676 C 0.3961 0.56984 0.06605 0.0
C1677 C 0.41359 0.67149 0.0009 0.0
C1678 C 0.43349 0.66745 0.00151 0.0
C1679 C 0.40012 0.65653 1.00032 0.0
C1680 C 0.40624 0.63725 1.00017 0.0
C1681 C 0.42606 0.63314 0.00091 0.0
C1682 C 0.43957 0.64809 0.00145 0.0
C1683 C 0.39197 0.62135 0.9998 0.0
C1684 C 0.39228 0.60789 0.02631 0.0
C1685 C 0.37772 0.61981 0.97431 0.0
C1686 C 0.37709 0.63316 0.94499 0.0
C1687 C 0.39332 0.63554 0.92404 0.0
C1688 C 0.39266 0.64828 0.89663 0.0
C1689 C 0.3758 0.65861 0.88977 0.0
C1690 C 0.35955 0.6562 0.91025 0.0
C1691 C 0.36014 0.64349 0.93771 0.0
H1692 H 0.37532 0.66847 0.86854 0.0
H1693 H 0.38028 0.54496 0.13489 0.0
H1694 H 0.43535 0.30331 0.98703 0.0
H1695 H 0.40809 0.32569 0.98793 0.0
H1696 H 0.44703 0.37301 0.007 0.0
H1697 H 0.47424 0.35068 0.00716 0.0
H1698 H 0.41661 0.37641 0.04549 0.0
H1699 H 0.42726 0.36423 0.92731 0.0
H1700 H 0.43121 0.34423 0.87617 0.0
H1701 H 0.37421 0.32125 0.88962 0.0
H1702 H 0.37002 0.34093 0.94112 0.0
H1703 H 0.3543 0.45366 0.00142 0.0
H1704 H 0.38069 0.43029 0.00096 0.0
H1705 H 0.33967 0.3837 0.99389 0.0
H1706 H 0.31315 0.40692 0.99426 0.0
H1707 H 0.37044 0.37955 0.94971 0.0
H1708 H 0.36001 0.39284 0.06775 0.0
H1709 H 0.3564 0.41368 0.11792 0.0
H1710 H 0.41372 0.43559 0.10327 0.0
H1711 H 0.41757 0.41507 0.0527 0.0
C1712 C 0.4381 0.31848 0.99144 0.0
C1713 C 0.45695 0.32524 0.99689 0.0
C1714 C 0.42251 0.33127 0.9918 0.0
C1715 C 0.42554 0.35108 0.99703 0.0
C1716 C 0.44434 0.3578 0.00288 0.0
C1717 C 0.45989 0.34501 0.00289 0.0
C1718 C 0.40917 0.36487 0.99655 0.0
C1719 C 0.40667 0.37725 0.02433 0.0
C1720 C 0.39594 0.36571 0.96928 0.0
C1721 C 0.39841 0.35391 0.93826 0.0
C1722 C 0.41563 0.3548 0.9195 0.0
C1723 C 0.4179 0.34354 0.89043 0.0
C1724 C 0.40299 0.33144 0.87971 0.0
C1725 C 0.38576 0.33061 0.89799 0.0
C1726 C 0.38342 0.34182 0.9271 0.0
C1727 C 0.35086 0.43846 0.99966 0.0
C1728 C 0.3316 0.43217 0.99799 0.0
C1729 C 0.36597 0.42512 0.99952 0.0
C1730 C 0.36209 0.40528 0.9977 0.0
C1731 C 0.34293 0.39897 0.99536 0.0
C1732 C 0.32781 0.41227 0.99568 0.0
C1733 C 0.37804 0.3911 0.99849 0.0
C1734 C 0.38041 0.37866 0.97082 0.0
C1735 C 0.39125 0.3903 0.02572 0.0
C1736 C 0.38901 0.40256 0.05625 0.0
C1737 C 0.37179 0.40222 0.07507 0.0
C1738 C 0.36971 0.41395 0.10361 0.0
C1739 C 0.3848 0.42599 0.11373 0.0
C1740 C 0.40203 0.42628 0.09538 0.0
C1741 C 0.40418 0.41459 0.06679 0.0
H1742 H 0.38317 0.43506 0.13583 0.0
H1743 H 0.40478 0.32273 0.85719 0.0
H1744 H 0.96738 0.2548 0.41021 0.0
H1745 H 0.97486 0.26104 0.35063 0.0
H1746 H 0.01066 0.21013 0.34807 0.0
H1747 H 0.0039 0.20424 0.40751 0.0
H1748 H 0.02698 0.23628 0.31229 0.0
H1749 H 0.9622 0.21077 0.32012 0.0
H1750 H 0.92836 0.21042 0.33944 0.0
H1751 H 0.91893 0.26574 0.29339 0.0
H1752 H 0.9528 0.26649 0.27414 0.0
H1753 H 0.99261 0.20681 0.13523 0.0
H1754 H 0.98573 0.21259 0.19477 0.0
H1755 H 0.02644 0.25966 0.19556 0.0
H1756 H 0.03387 0.2536 0.13595 0.0
H1757 H 0.97205 0.24034 0.23218 0.0
H1758 H 0.04959 0.26014 0.27164 0.0
H1759 H 0.08308 0.25514 0.25226 0.0
H1760 H 0.06637 0.20237 0.2035 0.0
H1761 H 0.03287 0.20695 0.22293 0.0
C1762 C 0.97703 0.24508 0.39703 0.0
C1763 C 0.98491 0.22893 0.41359 0.0
C1764 C 0.98123 0.24862 0.36293 0.0
C1765 C 0.99309 0.23589 0.34464 0.0
C1766 C 0.00151 0.2202 0.36155 0.0
C1767 C 0.99754 0.21681 0.39562 0.0
C1768 C 0.99606 0.23806 0.30757 0.0
C1769 C 0.01496 0.23739 0.29482 0.0
C1770 C 0.98042 0.23926 0.28461 0.0
C1771 C 0.96006 0.23879 0.29606 0.0
C1772 C 0.95293 0.22291 0.31433 0.0
C1773 C 0.93375 0.22263 0.32523 0.0
C1774 C 0.92152 0.23808 0.31774 0.0
C1775 C 0.92843 0.25381 0.29924 0.0
C1776 C 0.94761 0.25417 0.28831 0.0
C1777 C 1e-05 0.21853 0.14789 0.0
C1778 C 0.01399 0.22958 0.13088 0.0
C1779 C 0.99597 0.22187 0.18198 0.0
C1780 C 0.00575 0.23638 0.19982 0.0
C1781 C 0.01896 0.24815 0.18247 0.0
C1782 C 0.02315 0.2447 0.14836 0.0
C1783 C 0.00293 0.23817 0.23696 0.0
C1784 C 0.98408 0.23967 0.24969 0.0
C1785 C 0.01858 0.23702 0.2599 0.0
C1786 C 0.0387 0.23404 0.24836 0.0
C1787 C 0.05309 0.24746 0.25683 0.0
C1788 C 0.07207 0.2447 0.24584 0.0
C1789 C 0.07683 0.22849 0.22655 0.0
C1790 C 0.06265 0.21496 0.21832 0.0
C1791 C 0.04367 0.21765 0.22929 0.0
H1792 H 0.09152 0.22639 0.21804 0.0
H1793 H 0.90667 0.23784 0.3262 0.0
H1794 H 0.75342 0.95674 0.39399 0.0
H1795 H 0.74753 0.96377 0.33415 0.0
H1796 H 0.76708 0.02217 0.34897 0.0
H1797 H 0.77351 0.01517 0.4087 0.0
H1798 H 0.73115 0.01432 0.30223 0.0
H1799 H 0.79915 0.99823 0.32366 0.0
H1800 H 0.82437 0.97713 0.3475 0.0
H1801 H 0.8028 0.92949 0.28926 0.0
H1802 H 0.77725 0.95029 0.2655 0.0
H1803 H 0.76011 0.04652 0.13947 0.0
H1804 H 0.75406 0.03892 0.19886 0.0
H1805 H 0.76256 0.97838 0.17765 0.0
H1806 H 0.77 0.9862 0.11878 0.0
H1807 H 0.78157 0.98562 0.22869 0.0
H1808 H 0.71656 0.00066 0.20065 0.0
H1809 H 0.68953 0.01954 0.17724 0.0
H1810 H 0.7019 0.06572 0.24629 0.0
H1811 H 0.72918 0.04723 0.26983 0.0
C1812 C 0.75609 0.9712 0.38472 0.0
C1813 C 0.76411 0.98536 0.40597 0.0
C1814 C 0.75268 0.97518 0.35056 0.0
C1815 C 0.75689 0.99346 0.3373 0.0
C1816 C 0.76365 0.00801 0.35889 0.0
C1817 C 0.76743 0.00394 0.39291 0.0
C1818 C 0.75661 0.99666 0.30031 0.0
C1819 C 0.74217 0.0082 0.28596 0.0
C1820 C 0.77066 0.98813 0.27926 0.0
C1821 C 0.78618 0.97574 0.29314 0.0
C1822 C 0.79969 0.98322 0.31619 0.0
C1823 C 0.81405 0.97132 0.32963 0.0
C1824 C 0.81515 0.95196 0.31998 0.0
C1825 C 0.80191 0.94448 0.29676 0.0
C1826 C 0.7875 0.95631 0.2833 0.0
C1827 C 0.76034 0.03157 0.14744 0.0
C1828 C 0.76558 0.01694 0.12464 0.0
C1829 C 0.75675 0.02719 0.18141 0.0
C1830 C 0.75763 0.008 0.19297 0.0
C1831 C 0.76189 0.9933 0.16961 0.0
C1832 C 0.76606 0.99775 0.13591 0.0
C1833 C 0.756 0.00344 0.22975 0.0
C1834 C 0.77024 0.99165 0.24439 0.0
C1835 C 0.74146 0.01145 0.25082 0.0
C1836 C 0.72502 0.02261 0.23682 0.0
C1837 C 0.7136 0.0149 0.21069 0.0
C1838 C 0.69822 0.02553 0.19742 0.0
C1839 C 0.69403 0.04384 0.21022 0.0
C1840 C 0.70518 0.05154 0.23638 0.0
C1841 C 0.72058 0.04098 0.24973 0.0
H1842 H 0.68212 0.05204 0.19991 0.0
H1843 H 0.82628 0.94277 0.33042 0.0
H1844 H 0.0135 0.77696 0.13548 0.0
H1845 H 0.01927 0.7695 0.19517 0.0
H1846 H 0.96092 0.74871 0.20486 0.0
H1847 H 0.9551 0.75578 0.145 0.0
H1848 H 0.97254 0.77834 0.25242 0.0
H1849 H 0.99368 0.71693 0.20998 0.0
H1850 H 0.01261 0.69534 0.17317 0.0
H1851 H 0.06521 0.71848 0.21369 0.0
H1852 H 0.04659 0.74042 0.2504 0.0
H1853 H 0.98379 0.76067 0.42496 0.0
H1854 H 0.97618 0.75376 0.36573 0.0
H1855 H 0.0366 0.75833 0.34031 0.0
H1856 H 0.04431 0.76368 0.40002 0.0
H1857 H 0.02164 0.73391 0.3001 0.0
H1858 H 0.00291 0.79775 0.33531 0.0
H1859 H 0.98602 0.8209 0.37232 0.0
H1860 H 0.9315 0.79647 0.34378 0.0
H1861 H 0.9481 0.77295 0.30697 0.0
C1862 C 0.00198 0.77051 0.15016 0.0
C1863 C 0.98381 0.76703 0.13555 0.0
C1864 C 0.00533 0.76621 0.1842 0.0
C1865 C 0.99051 0.75856 0.20432 0.0
C1866 C 0.97253 0.75457 0.18966 0.0
C1867 C 0.96927 0.75857 0.15545 0.0
C1868 C 0.99339 0.75625 0.24121 0.0
C1869 C 0.98299 0.76836 0.26297 0.0
C1870 C 0.00749 0.74368 0.25469 0.0
C1871 C 0.01872 0.73043 0.23275 0.0
C1872 C 0.00928 0.71754 0.21084 0.0
C1873 C 0.01996 0.70521 0.19003 0.0
C1874 C 0.0401 0.70557 0.19104 0.0
C1875 C 0.04961 0.71822 0.21292 0.0
C1876 C 0.03899 0.73059 0.23376 0.0
C1877 C 0.99544 0.75971 0.40676 0.0
C1878 C 0.01459 0.76284 0.41681 0.0
C1879 C 0.9911 0.75593 0.3729 0.0
C1880 C 0.00573 0.75621 0.34824 0.0
C1881 C 0.02501 0.75817 0.35871 0.0
C1882 C 0.02943 0.76125 0.39281 0.0
C1883 C 0.00089 0.75615 0.31153 0.0
C1884 C 0.01098 0.74371 0.28971 0.0
C1885 C 0.98683 0.7688 0.29779 0.0
C1886 C 0.97676 0.78346 0.31871 0.0
C1887 C 0.98732 0.7973 0.33698 0.0
C1888 C 0.97781 0.81046 0.35794 0.0
C1889 C 0.95772 0.81007 0.36053 0.0
C1890 C 0.94707 0.79669 0.34183 0.0
C1891 C 0.95652 0.78344 0.3209 0.0
H1892 H 0.95041 0.82012 0.37708 0.0
H1893 H 0.04834 0.69601 0.17491 0.0
H1894 H 0.25792 0.02566 0.41415 0.0
H1895 H 0.26597 0.01755 0.3554 0.0
H1896 H 0.21009 0.9909 0.34343 0.0
H1897 H 0.20249 0.99798 0.40211 0.0
H1898 H 0.23401 0.9705 0.3116 0.0
H1899 H 0.22196 0.03954 0.31711 0.0
H1900 H 0.22793 0.07271 0.33721 0.0
H1901 H 0.28613 0.06981 0.3003 0.0
H1902 H 0.28053 0.03654 0.2803 0.0
H1903 H 0.21604 0.01007 0.13511 0.0
H1904 H 0.22269 0.01582 0.19466 0.0
H1905 H 0.26105 0.96682 0.1965 0.0
H1906 H 0.25413 0.96064 0.13668 0.0
H1907 H 0.25244 0.02353 0.23378 0.0
H1908 H 0.25433 0.94344 0.27209 0.0
H1909 H 0.24288 0.91185 0.25136 0.0
H1910 H 0.19605 0.93956 0.19944 0.0
H1911 H 0.20708 0.97124 0.22021 0.0
C1912 C 0.24747 0.01791 0.39898 0.0
C1913 C 0.22954 0.01253 0.4127 0.0
C1914 C 0.25204 0.01335 0.36538 0.0
C1915 C 0.23853 0.00385 0.3447 0.0
C1916 C 0.22083 0.99813 0.35876 0.0
C1917 C 0.21645 0.00228 0.39239 0.0
C1918 C 0.24213 0.00046 0.30805 0.0
C1919 C 0.23827 0.98208 0.2947 0.0
C1920 C 0.24758 0.01552 0.28575 0.0
C1921 C 0.2509 0.03551 0.2976 0.0
C1922 C 0.23606 0.04596 0.31347 0.0
C1923 C 0.23937 0.06477 0.32482 0.0
C1924 C 0.25742 0.07334 0.32014 0.0
C1925 C 0.27217 0.06314 0.30398 0.0
C1926 C 0.26894 0.04431 0.29263 0.0
C1927 C 0.22608 0.00059 0.14795 0.0
C1928 C 0.23431 0.98469 0.1312 0.0
C1929 C 0.22997 0.004 0.18204 0.0
C1930 C 0.24217 0.99162 0.20018 0.0
C1931 C 0.25137 0.97641 0.18308 0.0
C1932 C 0.24742 0.97292 0.14888 0.0
C1933 C 0.2437 0.99379 0.23745 0.0
C1934 C 0.24865 0.01188 0.25086 0.0
C1935 C 0.23852 0.97868 0.25974 0.0
C1936 C 0.23171 0.9597 0.24729 0.0
C1937 C 0.24158 0.94276 0.25627 0.0
C1938 C 0.23516 0.92485 0.24453 0.0
C1939 C 0.2188 0.92371 0.22397 0.0
C1940 C 0.20877 0.94047 0.21523 0.0
C1941 C 0.21511 0.9584 0.22695 0.0
H1942 H 0.21386 0.90984 0.2149 0.0
H1943 H 0.25996 0.0879 0.32894 0.0
H1944 H 0.98901 0.80028 0.9088 0.0
H1945 H 0.99237 0.79706 0.84751 0.0
H1946 H 0.99308 0.73507 0.85745 0.0
H1947 H 0.99034 0.73835 0.91927 0.0
H1948 H 0.01945 0.74724 0.81134 0.0
H1949 H 0.95259 0.75753 0.8322 0.0
H1950 H 0.9241 0.77358 0.8567 0.0
H1951 H 0.9382 0.82571 0.80351 0.0
H1952 H 0.96697 0.81007 0.7791 0.0
H1953 H 0.00517 0.73731 0.63197 0.0
H1954 H -1e-05 0.73454 0.69336 0.0
H1955 H 0.00091 0.79658 0.70203 0.0
H1956 H 0.00624 0.79932 0.64103 0.0
H1957 H 0.97147 0.7804 0.7385 0.0
H1958 H 0.03994 0.77029 0.72175 0.0
H1959 H 0.06814 0.7538 0.69703 0.0
H1960 H 0.0502 0.70042 0.74226 0.0
H1961 H 0.0217 0.71654 0.76679 0.0
C1962 C 0.99021 0.78599 0.89793 0.0
C1963 C 0.98953 0.76955 0.9186 0.0
C1964 C 0.99193 0.78415 0.86292 0.0
C1965 C 0.99267 0.76582 0.84786 0.0
C1966 C 0.99246 0.74935 0.86855 0.0
C1967 C 0.99084 0.75121 0.90371 0.0
C1968 C 0.9933 0.76404 0.81046 0.0
C1969 C 0.00877 0.75419 0.7954 0.0
C1970 C 0.97944 0.77323 0.78966 0.0
C1971 C 0.96202 0.78265 0.804 0.0
C1972 C 0.94969 0.77245 0.82589 0.0
C1973 C 0.93348 0.78148 0.83975 0.0
C1974 C 0.92936 0.80067 0.83171 0.0
C1975 C 0.94141 0.81085 0.80973 0.0
C1976 C 0.95767 0.80191 0.79584 0.0
C1977 C 0.00421 0.75029 0.64713 0.0
C1978 C 0.00602 0.76851 0.63197 0.0
C1979 C 0.00128 0.74872 0.68206 0.0
C1980 C 0.00016 0.76537 0.70223 0.0
C1981 C 0.00163 0.78356 0.68691 0.0
C1982 C 0.00463 0.78512 0.65212 0.0
C1983 C 0.99785 0.76403 0.73945 0.0
C1984 C 0.98202 0.77326 0.75446 0.0
C1985 C 0.01131 0.75419 0.76013 0.0
C1986 C 0.02858 0.74457 0.74578 0.0
C1987 C 0.04193 0.755 0.72621 0.0
C1988 C 0.05798 0.74573 0.71226 0.0
C1989 C 0.06093 0.72606 0.71799 0.0
C1990 C 0.04788 0.71564 0.73779 0.0
C1991 C 0.03178 0.72484 0.75173 0.0
H1992 H 0.07336 0.71891 0.70716 0.0
H1993 H 0.9168 0.80763 0.84247 0.0
H1994 H 0.26183 0.00716 0.62778 0.0
H1995 H 0.26556 0.00425 0.6894 0.0
H1996 H 0.20382 0.00876 0.70136 0.0
H1997 H 0.20024 0.0125 0.64021 0.0
H1998 H 0.22088 0.03033 0.74634 0.0
H1999 H 0.22845 0.96504 0.70687 0.0
H2000 H 0.24292 0.93885 0.67313 0.0
H2001 H 0.29793 0.9494 0.71946 0.0
H2002 H 0.28383 0.97585 0.75317 0.0
H2003 H 0.20223 0.98852 0.90489 0.0
H2004 H 0.20535 0.99431 0.84411 0.0
H2005 H 0.26714 0.99838 0.8548 0.0
H2006 H 0.26398 0.99291 0.91616 0.0
H2007 H 0.25431 0.97479 0.79962 0.0
H2008 H 0.24412 0.03829 0.84429 0.0
H2009 H 0.22757 0.06253 0.87953 0.0
H2010 H 0.17515 0.05354 0.82389 0.0
H2011 H 0.19131 0.02901 0.78863 0.0
C2012 C 0.24913 0.00753 0.64374 0.0
C2013 C 0.23075 0.00987 0.62945 0.0
C2014 C 0.25124 0.00577 0.67882 0.0
C2015 C 0.23494 0.0061 0.70001 0.0
C2016 C 0.2166 0.00847 0.68557 0.0
C2017 C 0.21453 0.0104 0.65065 0.0
C2018 C 0.23681 0.00412 0.73726 0.0
C2019 C 0.2281 0.01811 0.75793 0.0
C2020 C 0.24664 0.98844 0.75248 0.0
C2021 C 0.25514 0.97257 0.73222 0.0
C2022 C 0.24367 0.96188 0.70964 0.0
C2023 C 0.25179 0.94697 0.69057 0.0
C2024 C 0.27135 0.9425 0.69406 0.0
C2025 C 0.2828 0.95291 0.71672 0.0
C2026 C 0.27475 0.96785 0.73583 0.0
C2027 C 0.21645 0.99086 0.8943 0.0
C2028 C 0.23286 0.99053 0.91505 0.0
C2029 C 0.21822 0.99409 0.85965 0.0
C2030 C 0.23646 0.99697 0.84512 0.0
C2031 C 0.25296 0.99624 0.86566 0.0
C2032 C 0.25115 0.99315 0.90052 0.0
C2033 C 0.23802 0.00074 0.80839 0.0
C2034 C 0.24737 0.98713 0.78791 0.0
C2035 C 0.22856 0.01663 0.79329 0.0
C2036 C 0.21891 0.03171 0.81394 0.0
C2037 C 0.22903 0.0414 0.83968 0.0
C2038 C 0.21972 0.0552 0.85965 0.0
C2039 C 0.20031 0.05955 0.85399 0.0
C2040 C 0.19019 0.05015 0.82825 0.0
C2041 C 0.19943 0.03632 0.80822 0.0
H2042 H 0.19312 0.07022 0.86951 0.0
H2043 H 0.27761 0.93095 0.67928 0.0
H2044 H 0.98115 0.23941 0.91959 0.0
H2045 H 0.97561 0.24282 0.85854 0.0
H2046 H 0.03669 0.23684 0.84042 0.0
H2047 H 0.04221 0.23327 0.9013 0.0
H2048 H 0.01969 0.26465 0.79911 0.0
H2049 H 0.00883 0.19875 0.83338 0.0
H2050 H 0.99382 0.17335 0.86822 0.0
H2051 H 0.93778 0.19014 0.83255 0.0
H2052 H 0.95245 0.2159 0.79796 0.0
H2053 H 0.0191 0.23388 0.62695 0.0
H2054 H 0.02393 0.23766 0.68807 0.0
H2055 H 0.96227 0.23711 0.70316 0.0
H2056 H 0.95749 0.23247 0.64246 0.0
H2057 H 0.97887 0.21406 0.74658 0.0
H2058 H 0.9894 0.27908 0.71026 0.0
H2059 H 0.00405 0.30513 0.67645 0.0
H2060 H 0.05995 0.29073 0.71579 0.0
H2061 H 0.04568 0.2644 0.7495 0.0
C2062 C 0.99337 0.23907 0.90251 0.0
C2063 C 0.01208 0.23612 0.91498 0.0
C2064 C 0.99022 0.24103 0.86776 0.0
C2065 C 0.00574 0.23992 0.845 0.0
C2066 C 0.02454 0.23783 0.85758 0.0
C2067 C 0.02768 0.23583 0.89231 0.0
C2068 C 0.00228 0.23946 0.80803 0.0
C2069 C 0.0109 0.25353 0.78749 0.0
C2070 C 0.99052 0.22512 0.7931 0.0
C2071 C 0.98172 0.20938 0.81335 0.0
C2072 C 0.9933 0.19711 0.83314 0.0
C2073 C 0.98485 0.18265 0.85283 0.0
C2074 C 0.96486 0.18016 0.85266 0.0
C2075 C 0.95327 0.1921 0.8327 0.0
C2076 C 0.96164 0.20664 0.81304 0.0
C2077 C 0.00663 0.23467 0.64341 0.0
C2078 C 0.98794 0.23307 0.63005 0.0
C2079 C 0.00937 0.23698 0.67823 0.0
C2080 C 0.99344 0.23791 0.7002 0.0
C2081 C 0.97477 0.23651 0.68673 0.0
C2082 C 0.97204 0.23407 0.652 0.0
C2083 C 0.99621 0.23934 0.73737 0.0
C2084 C 0.98753 0.22534 0.75804 0.0
C2085 C 0.00786 0.25379 0.75235 0.0
C2086 C 0.01649 0.26964 0.73217 0.0
C2087 C 0.00484 0.28136 0.71151 0.0
C2088 C 0.01307 0.2962 0.69239 0.0
C2089 C 0.03293 0.29955 0.69391 0.0
C2090 C 0.04458 0.2881 0.71461 0.0
C2091 C 0.03642 0.27323 0.73375 0.0
H2092 H 0.03927 0.31105 0.6791 0.0
H2093 H 0.95834 0.16896 0.86794 0.0
H2094 H 0.7638 0.01796 0.61976 0.0
H2095 H 0.76222 0.02264 0.68128 0.0
H2096 H 0.76956 0.96143 0.69624 0.0
H2097 H 0.77134 0.95677 0.63491 0.0
H2098 H 0.74217 0.97716 0.73945 0.0
H2099 H 0.80727 0.99012 0.70324 0.0
H2100 H 0.83183 0.00621 0.66802 0.0
H2101 H 0.81421 0.06133 0.70672 0.0
H2102 H 0.78929 0.04559 0.74176 0.0
H2103 H 0.7713 0.97875 0.91253 0.0
H2104 H 0.76917 0.97339 0.85127 0.0
H2105 H 0.76874 0.03494 0.83482 0.0
H2106 H 0.77185 0.04025 0.89561 0.0
H2107 H 0.79209 0.01882 0.79191 0.0
H2108 H 0.7272 0.00657 0.82824 0.0
H2109 H 0.70163 0.99114 0.86212 0.0
H2110 H 0.71782 0.93567 0.82296 0.0
H2111 H 0.74367 0.95076 0.78918 0.0
C2112 C 0.76492 0.00554 0.63627 0.0
C2113 C 0.76764 0.98702 0.62274 0.0
C2114 C 0.76402 0.0082 0.6713 0.0
C2115 C 0.76592 0.99238 0.69328 0.0
C2116 C 0.76797 0.9738 0.67971 0.0
C2117 C 0.76894 0.97115 0.64472 0.0
C2118 C 0.76684 0.99529 0.73039 0.0
C2119 C 0.75318 0.98611 0.75104 0.0
C2120 C 0.78101 0.00724 0.74531 0.0
C2121 C 0.7963 0.01669 0.72488 0.0
C2122 C 0.80855 0.00569 0.70409 0.0
C2123 C 0.82254 0.01474 0.68417 0.0
C2124 C 0.82454 0.03478 0.68508 0.0
C2125 C 0.81262 0.04581 0.70602 0.0
C2126 C 0.79857 0.03683 0.72593 0.0
C2127 C 0.77075 0.99108 0.89573 0.0
C2128 C 0.77149 0.00989 0.90877 0.0
C2129 C 0.76938 0.98803 0.8608 0.0
C2130 C 0.7685 0.00378 0.83841 0.0
C2131 C 0.76929 0.02257 0.85154 0.0
C2132 C 0.77084 0.02559 0.88633 0.0
C2133 C 0.7673 0.0008 0.80123 0.0
C2134 C 0.78099 0.00992 0.78048 0.0
C2135 C 0.75307 0.98888 0.78625 0.0
C2136 C 0.7375 0.97978 0.80644 0.0
C2137 C 0.7254 0.99107 0.82705 0.0
C2138 C 0.71084 0.98238 0.84621 0.0
C2139 C 0.70813 0.96243 0.84476 0.0
C2140 C 0.71995 0.95113 0.82409 0.0
C2141 C 0.73455 0.95974 0.80491 0.0
H2142 H 0.69685 0.95573 0.85961 0.0
H2143 H 0.83536 0.04176 0.66962 0.0
H2144 H 0.51418 0.71757 0.9158 0.0
H2145 H 0.52163 0.72403 0.85666 0.0
H2146 H 0.46764 0.75432 0.84555 0.0
H2147 H 0.46015 0.74815 0.90517 0.0
H2148 H 0.50157 0.70975 0.80605 0.0
H2149 H 0.47213 0.78642 0.77825 0.0
H2150 H 0.46867 0.81777 0.80718 0.0
H2151 H 0.51644 0.80396 0.87196 0.0
H2152 H 0.52035 0.77267 0.84313 0.0
H2153 H 0.48552 0.71755 0.63376 0.0
H2154 H 0.47936 0.72355 0.69356 0.0
H2155 H 0.5317 0.7569 0.70037 0.0
H2156 H 0.53801 0.7511 0.64021 0.0
H2157 H 0.50073 0.77131 0.74192 0.0
H2158 H 0.5355 0.71239 0.71962 0.0
H2159 H 0.541 0.6813 0.69085 0.0
H2160 H 0.48697 0.66003 0.7287 0.0
H2161 H 0.48103 0.69112 0.75729 0.0
C2162 C 0.50399 0.72588 0.901 0.0
C2163 C 0.48645 0.73213 0.9151 0.0
C2164 C 0.50829 0.72957 0.86716 0.0
C2165 C 0.49517 0.73957 0.84663 0.0
C2166 C 0.47807 0.74672 0.861 0.0
C2167 C 0.47378 0.74312 0.89505 0.0
C2168 C 0.49857 0.74064 0.80962 0.0
C2169 C 0.50142 0.72325 0.79216 0.0
C2170 C 0.49849 0.75824 0.79143 0.0
C2171 C 0.49639 0.77711 0.80873 0.0
C2172 C 0.48194 0.79011 0.79858 0.0
C2173 C 0.47989 0.80786 0.81498 0.0
C2174 C 0.49228 0.81282 0.84147 0.0
C2175 C 0.50679 0.80007 0.85154 0.0
C2176 C 0.50891 0.7823 0.83522 0.0
C2177 C 0.49558 0.72648 0.64771 0.0
C2178 C 0.51247 0.73354 0.63233 0.0
C2179 C 0.49198 0.72994 0.68189 0.0
C2180 C 0.50522 0.74042 0.7014 0.0
C2181 C 0.52133 0.74876 0.68566 0.0
C2182 C 0.52494 0.74534 0.65134 0.0
C2183 C 0.50347 0.74043 0.73872 0.0
C2184 C 0.50088 0.7579 0.75606 0.0
C2185 C 0.50408 0.72294 0.75709 0.0
C2186 C 0.50775 0.70413 0.74034 0.0
C2187 C 0.52474 0.70113 0.72161 0.0
C2188 C 0.52794 0.6835 0.70537 0.0
C2189 C 0.51432 0.66872 0.70788 0.0
C2190 C 0.4975 0.67151 0.72674 0.0
C2191 C 0.49421 0.68912 0.743 0.0
H2192 H 0.51682 0.65509 0.69528 0.0
H2193 H 0.49067 0.82657 0.85413 0.0
H2194 H 0.2746 0.51222 0.91151 0.0
H2195 H 0.26779 0.51794 0.85147 0.0
H2196 H 0.24991 0.45876 0.8401 0.0
H2197 H 0.25611 0.45302 0.90031 0.0
H2198 H 0.28417 0.47667 0.79721 0.0
H2199 H 0.21695 0.48263 0.82898 0.0
H2200 H 0.19012 0.49612 0.86239 0.0
H2201 H 0.20387 0.55299 0.82674 0.0
H2202 H 0.231 0.53986 0.79352 0.0
H2203 H 0.27087 0.48249 0.62257 0.0
H2204 H 0.26447 0.47414 0.68161 0.0
H2205 H 0.25368 0.53413 0.70412 0.0
H2206 H 0.25885 0.5423 0.6446 0.0
H2207 H 0.23178 0.51405 0.74223 0.0
H2208 H 0.29923 0.51152 0.71633 0.0
H2209 H 0.32834 0.50131 0.68525 0.0
H2210 H 0.31759 0.44236 0.71272 0.0
H2211 H 0.28825 0.4522 0.74361 0.0
C2212 C 0.26883 0.50054 0.89638 0.0
C2213 C 0.26596 0.48215 0.91055 0.0
C2214 C 0.2649 0.50384 0.86219 0.0
C2215 C 0.25834 0.48876 0.84158 0.0
C2216 C 0.25486 0.47057 0.8558 0.0
C2217 C 0.25838 0.46735 0.89016 0.0
C2218 C 0.25725 0.49149 0.80458 0.0
C2219 C 0.27254 0.4845 0.78496 0.0
C2220 C 0.24245 0.50237 0.78917 0.0
C2221 C 0.22613 0.51028 0.80906 0.0
C2222 C 0.21439 0.49804 0.82856 0.0
C2223 C 0.19909 0.50561 0.84739 0.0
C2224 C 0.19533 0.52541 0.84677 0.0
C2225 C 0.20682 0.53766 0.82724 0.0
C2226 C 0.22215 0.53016 0.80838 0.0
C2227 C 0.26678 0.49381 0.64004 0.0
C2228 C 0.26556 0.51305 0.62918 0.0
C2229 C 0.26324 0.48907 0.67381 0.0
C2230 C 0.25919 0.50358 0.69762 0.0
C2231 C 0.25689 0.52267 0.68635 0.0
C2232 C 0.25988 0.52734 0.65234 0.0
C2233 C 0.25873 0.49912 0.73444 0.0
C2234 C 0.2433 0.50595 0.75419 0.0
C2235 C 0.27372 0.48852 0.75028 0.0
C2236 C 0.29143 0.48257 0.73195 0.0
C2237 C 0.30301 0.49636 0.71556 0.0
C2238 C 0.31956 0.49065 0.69799 0.0
C2239 C 0.32478 0.47119 0.69692 0.0
C2240 C 0.3135 0.45742 0.71351 0.0
C2241 C 0.29692 0.46306 0.73107 0.0
H2242 H 0.33759 0.46679 0.6833 0.0
H2243 H 0.18347 0.53125 0.86136 0.0
H2244 H 0.4872 0.27489 0.91467 0.0
H2245 H 0.48089 0.268 0.85494 0.0
H2246 H 0.53947 0.24837 0.84257 0.0
H2247 H 0.54582 0.2548 0.90257 0.0
H2248 H 0.52609 0.27924 0.79693 0.0
H2249 H 0.50829 0.21606 0.83631 0.0
H2250 H 0.49077 0.193 0.87251 0.0
H2251 H 0.43673 0.21466 0.83546 0.0
H2252 H 0.45393 0.23806 0.79939 0.0
H2253 H 0.51416 0.26342 0.62382 0.0
H2254 H 0.52249 0.25661 0.68275 0.0
H2255 H 0.46208 0.25767 0.70935 0.0
H2256 H 0.45372 0.26302 0.64988 0.0
H2257 H 0.47853 0.23351 0.74833 0.0
H2258 H 0.49358 0.2986 0.7162 0.0
H2259 H 0.50874 0.32354 0.68051 0.0
H2260 H 0.56486 0.30178 0.70604 0.0
H2261 H 0.55001 0.2765 0.74154 0.0
C2262 C 0.49865 0.26878 0.8994 0.0
C2263 C 0.51703 0.26545 0.91329 0.0
C2264 C 0.495 0.26481 0.86533 0.0
C2265 C 0.50973 0.25769 0.84443 0.0
C2266 C 0.52793 0.25382 0.85838 0.0
C2267 C 0.53149 0.25743 0.89266 0.0
C2268 C 0.50649 0.25595 0.80751 0.0
C2269 C 0.516 0.26898 0.78613 0.0
C2270 C 0.49279 0.24305 0.7938 0.0
C2271 C 0.48241 0.22893 0.81535 0.0
C2272 C 0.49267 0.21603 0.8361 0.0
C2273 C 0.4828 0.20287 0.85655 0.0
C2274 C 0.46265 0.20239 0.85634 0.0
C2275 C 0.45234 0.21505 0.83561 0.0
C2276 C 0.46214 0.22825 0.81513 0.0
C2277 C 0.50268 0.26177 0.64221 0.0
C2278 C 0.48333 0.2639 0.6325 0.0
C2279 C 0.50743 0.25803 0.67592 0.0
C2280 C 0.49297 0.25728 0.70084 0.0
C2281 C 0.47354 0.25831 0.69075 0.0
C2282 C 0.46876 0.2614 0.65678 0.0
C2283 C 0.49808 0.25689 0.73748 0.0
C2284 C 0.48884 0.2436 0.75891 0.0
C2285 C 0.51168 0.26994 0.75151 0.0
C2286 C 0.52068 0.28553 0.73119 0.0
C2287 C 0.50916 0.2991 0.71413 0.0
C2288 C 0.51769 0.31328 0.69392 0.0
C2289 C 0.53774 0.31417 0.69089 0.0
C2290 C 0.54933 0.30102 0.70834 0.0
C2291 C 0.54086 0.28677 0.72852 0.0
H2292 H 0.54429 0.32505 0.675 0.0
H2293 H 0.45503 0.19219 0.87219 0.0
H2294 H 0.7241 0.51304 0.63569 0.0
H2295 H 0.73155 0.51902 0.69537 0.0
H2296 H 0.74984 0.45995 0.70683 0.0
H2297 H 0.74289 0.45393 0.64696 0.0
H2298 H 0.71933 0.47436 0.75316 0.0
H2299 H 0.78297 0.48955 0.71232 0.0
H2300 H 0.80643 0.50626 0.67572 0.0
H2301 H 0.78737 0.56099 0.71409 0.0
H2302 H 0.76359 0.54461 0.75056 0.0
H2303 H 0.73742 0.48399 0.92564 0.0
H2304 H 0.74365 0.47596 0.86639 0.0
H2305 H 0.74448 0.5366 0.84143 0.0
H2306 H 0.73961 0.54462 0.90114 0.0
H2307 H 0.7677 0.51945 0.80121 0.0
H2308 H 0.70246 0.5071 0.83553 0.0
H2309 H 0.67701 0.49282 0.87125 0.0
H2310 H 0.6956 0.43597 0.84307 0.0
H2311 H 0.72138 0.44992 0.80755 0.0
C2312 C 0.73002 0.50141 0.65076 0.0
C2313 C 0.73284 0.483 0.63666 0.0
C2314 C 0.73431 0.50487 0.68479 0.0
C2315 C 0.74123 0.48991 0.70538 0.0
C2316 C 0.74456 0.47166 0.69122 0.0
C2317 C 0.74063 0.46829 0.65703 0.0
C2318 C 0.74338 0.49296 0.74224 0.0
C2319 C 0.73014 0.48391 0.76383 0.0
C2320 C 0.75703 0.50597 0.75578 0.0
C2321 C 0.77137 0.51585 0.73396 0.0
C2322 C 0.78365 0.50516 0.71273 0.0
C2323 C 0.79704 0.51457 0.69206 0.0
C2324 C 0.79836 0.53468 0.69252 0.0
C2325 C 0.78632 0.54541 0.71373 0.0
C2326 C 0.7729 0.53607 0.73444 0.0
C2327 C 0.73942 0.49558 0.90757 0.0
C2328 C 0.73788 0.5149 0.91778 0.0
C2329 C 0.74283 0.491 0.87368 0.0
C2330 C 0.74386 0.50565 0.84915 0.0
C2331 C 0.74359 0.52501 0.85975 0.0
C2332 C 0.7408 0.5296 0.89387 0.0
C2333 C 0.7436 0.50085 0.81242 0.0
C2334 C 0.75704 0.50968 0.79074 0.0
C2335 C 0.72977 0.48799 0.79857 0.0
C2336 C 0.71398 0.47955 0.8192 0.0
C2337 C 0.70117 0.49155 0.83707 0.0
C2338 C 0.6867 0.48352 0.85728 0.0
C2339 C 0.68475 0.46351 0.85954 0.0
C2340 C 0.69718 0.45148 0.84137 0.0
C2341 C 0.71171 0.45944 0.82118 0.0
H2342 H 0.67362 0.45733 0.87535 0.0
H2343 H 0.80873 0.54194 0.6765 0.0
H2344 H 0.50682 0.23894 0.12936 0.0
H2345 H 0.50275 0.23601 0.19089 0.0
H2346 H 0.50831 0.29778 0.20086 0.0
H2347 H 0.51319 0.30055 0.13976 0.0
H2348 H 0.52896 0.2808 0.24728 0.0
H2349 H 0.46396 0.27374 0.20604 0.0
H2350 H 0.43797 0.25927 0.17186 0.0
H2351 H 0.4474 0.20456 0.22007 0.0
H2352 H 0.47364 0.21867 0.25424 0.0
H2353 H 0.48831 0.29909 0.40736 0.0
H2354 H 0.49393 0.29662 0.34643 0.0
H2355 H 0.49514 0.23457 0.3543 0.0
H2356 H 0.4898 0.23705 0.41575 0.0
H2357 H 0.4727 0.24827 0.29987 0.0
H2358 H 0.53621 0.25705 0.34481 0.0
H2359 H 0.56108 0.27274 0.37986 0.0
H2360 H 0.55343 0.32559 0.32481 0.0
H2361 H 0.52827 0.31031 0.28977 0.0
C2362 C 0.50715 0.25183 0.14485 0.0
C2363 C 0.51017 0.26997 0.12999 0.0
C2364 C 0.50471 0.25018 0.17989 0.0
C2365 C 0.50502 0.2667 0.20053 0.0
C2366 C 0.508 0.28483 0.18553 0.0
C2367 C 0.5106 0.28643 0.15062 0.0
C2368 C 0.50258 0.26526 0.23783 0.0
C2369 C 0.51655 0.27383 0.2587 0.0
C2370 C 0.48669 0.25569 0.25289 0.0
C2371 C 0.47091 0.2472 0.23241 0.0
C2372 C 0.4606 0.25859 0.20915 0.0
C2373 C 0.4458 0.25046 0.18982 0.0
C2374 C 0.44108 0.23099 0.19371 0.0
C2375 C 0.4511 0.21963 0.21703 0.0
C2376 C 0.46593 0.22769 0.2364 0.0
C2377 C 0.48999 0.28494 0.39613 0.0
C2378 C 0.48886 0.26826 0.41616 0.0
C2379 C 0.49313 0.28354 0.36136 0.0
C2380 C 0.49515 0.26542 0.34593 0.0
C2381 C 0.49366 0.24868 0.36578 0.0
C2382 C 0.49064 0.2501 0.40073 0.0
C2383 C 0.49884 0.26417 0.30904 0.0
C2384 C 0.48517 0.25506 0.28833 0.0
C2385 C 0.51492 0.27339 0.29407 0.0
C2386 C 0.53024 0.28256 0.31481 0.0
C2387 C 0.53973 0.27206 0.34032 0.0
C2388 C 0.55389 0.28087 0.36018 0.0
C2389 C 0.55881 0.30016 0.35461 0.0
C2390 C 0.5496 0.31065 0.32911 0.0
C2391 C 0.5354 0.30191 0.30922 0.0
H2392 H 0.56978 0.30696 0.37002 0.0
H2393 H 0.42961 0.22473 0.17873 0.0
H2394 H 0.76037 0.49056 0.42006 0.0
H2395 H 0.76336 0.49435 0.35844 0.0
H2396 H 0.70139 0.49175 0.34891 0.0
H2397 H 0.69849 0.48737 0.41012 0.0
H2398 H 0.718 0.46964 0.30273 0.0
H2399 H 0.72653 0.53466 0.34334 0.0
H2400 H 0.74171 0.56035 0.37728 0.0
H2401 H 0.79608 0.54945 0.32883 0.0
H2402 H 0.78126 0.52349 0.29491 0.0
H2403 H 0.70017 0.50947 0.14209 0.0
H2404 H 0.70261 0.50382 0.20302 0.0
H2405 H 0.76469 0.50323 0.1954 0.0
H2406 H 0.76223 0.50876 0.13402 0.0
H2407 H 0.75149 0.52512 0.24944 0.0
H2408 H 0.74169 0.46175 0.20513 0.0
H2409 H 0.72572 0.43689 0.17043 0.0
H2410 H 0.67303 0.44522 0.22564 0.0
H2411 H 0.68859 0.47037 0.26034 0.0
C2412 C 0.74745 0.49085 0.40465 0.0
C2413 C 0.72921 0.48885 0.41965 0.0
C2414 C 0.74914 0.49309 0.36957 0.0
C2415 C 0.73257 0.4935 0.34906 0.0
C2416 C 0.71436 0.49149 0.36419 0.0
C2417 C 0.71269 0.48917 0.39914 0.0
C2418 C 0.73406 0.49574 0.31178 0.0
C2419 C 0.72519 0.48186 0.29111 0.0
C2420 C 0.74392 0.51138 0.29655 0.0
C2421 C 0.75284 0.52699 0.31688 0.0
C2422 C 0.74176 0.53763 0.34013 0.0
C2423 C 0.75029 0.55226 0.35932 0.0
C2424 C 0.76986 0.55649 0.35529 0.0
C2425 C 0.78093 0.54613 0.33197 0.0
C2426 C 0.77247 0.53147 0.31275 0.0
C2427 C 0.71432 0.50791 0.15339 0.0
C2428 C 0.73102 0.50931 0.13348 0.0
C2429 C 0.7157 0.50474 0.18815 0.0
C2430 C 0.73383 0.50287 0.20365 0.0
C2431 C 0.75057 0.50457 0.18388 0.0
C2432 C 0.74917 0.50769 0.14897 0.0
C2433 C 0.73508 0.49924 0.24056 0.0
C2434 C 0.74449 0.5128 0.2611 0.0
C2435 C 0.72563 0.48335 0.25573 0.0
C2436 C 0.71628 0.46805 0.23519 0.0
C2437 C 0.72666 0.45838 0.20973 0.0
C2438 C 0.71768 0.44422 0.19007 0.0
C2439 C 0.69836 0.43951 0.19578 0.0
C2440 C 0.68799 0.4489 0.22123 0.0
C2441 C 0.69689 0.46309 0.24093 0.0
H2442 H 0.69144 0.42855 0.18053 0.0
H2443 H 0.77644 0.56782 0.37016 0.0
H2444 H 0.5094 0.76152 0.41634 0.0
H2445 H 0.50646 0.76464 0.35463 0.0
H2446 H 0.50842 0.70264 0.34493 0.0
H2447 H 0.51226 0.69963 0.40615 0.0
H2448 H 0.53052 0.71819 0.29935 0.0
H2449 H 0.46563 0.72933 0.33882 0.0
H2450 H 0.44029 0.74557 0.37208 0.0
H2451 H 0.45347 0.79931 0.32323 0.0
H2452 H 0.47908 0.78342 0.28997 0.0
H2453 H 0.4878 0.69929 0.14159 0.0
H2454 H 0.4937 0.70293 0.20229 0.0
H2455 H 0.5006 0.76432 0.18914 0.0
H2456 H 0.49504 0.76062 0.12792 0.0
H2457 H 0.47643 0.75329 0.24486 0.0
H2458 H 0.53933 0.73982 0.20053 0.0
H2459 H 0.56302 0.7219 0.16621 0.0
H2460 H 0.55199 0.67066 0.22408 0.0
H2461 H 0.52799 0.68818 0.2584 0.0
C2462 C 0.50921 0.74863 0.40085 0.0
C2463 C 0.51086 0.73034 0.4158 0.0
C2464 C 0.50742 0.75039 0.36572 0.0
C2465 C 0.50701 0.73386 0.34515 0.0
C2466 C 0.50869 0.7156 0.36024 0.0
C2467 C 0.51068 0.71387 0.39521 0.0
C2468 C 0.50504 0.73535 0.30785 0.0
C2469 C 0.51861 0.72577 0.28751 0.0
C2470 C 0.4898 0.74567 0.29227 0.0
C2471 C 0.47441 0.75524 0.31222 0.0
C2472 C 0.46323 0.74464 0.33537 0.0
C2473 C 0.4488 0.75378 0.35419 0.0
C2474 C 0.44531 0.77348 0.34985 0.0
C2475 C 0.45621 0.78406 0.32662 0.0
C2476 C 0.47068 0.775 0.30777 0.0
C2477 C 0.49078 0.71352 0.15165 0.0
C2478 C 0.49121 0.72967 0.13026 0.0
C2479 C 0.49407 0.71559 0.18624 0.0
C2480 C 0.49776 0.73386 0.20005 0.0
C2481 C 0.49781 0.75011 0.17885 0.0
C2482 C 0.49467 0.748 0.14407 0.0
C2483 C 0.50161 0.73573 0.2367 0.0
C2484 C 0.48846 0.74596 0.25682 0.0
C2485 C 0.51709 0.72581 0.25215 0.0
C2486 C 0.53176 0.7153 0.23191 0.0
C2487 C 0.54186 0.7247 0.2058 0.0
C2488 C 0.55536 0.71461 0.18636 0.0
C2489 C 0.55899 0.69515 0.19292 0.0
C2490 C 0.54916 0.68574 0.21901 0.0
C2491 C 0.53563 0.69575 0.2385 0.0
H2492 H 0.56943 0.68736 0.17783 0.0
H2493 H 0.43413 0.78052 0.36443 0.0
H2494 H 0.27278 0.459 0.14019 0.0
H2495 H 0.26979 0.46421 0.20112 0.0
H2496 H 0.26481 0.5255 0.18437 0.0
H2497 H 0.26748 0.52026 0.12302 0.0
H2498 H 0.29127 0.51599 0.23418 0.0
H2499 H 0.22572 0.50034 0.20584 0.0
H2500 H 0.20001 0.48061 0.18015 0.0
H2501 H 0.21562 0.43282 0.2436 0.0
H2502 H 0.24163 0.45217 0.26933 0.0
H2503 H 0.26876 0.5407 0.40157 0.0
H2504 H 0.26622 0.5364 0.34048 0.0
H2505 H 0.26579 0.47461 0.35379 0.0
H2506 H 0.26731 0.47895 0.41541 0.0
H2507 H 0.2411 0.48486 0.30523 0.0
H2508 H 0.307 0.49859 0.33162 0.0
H2509 H 0.33396 0.51678 0.35685 0.0
H2510 H 0.31928 0.56624 0.29672 0.0
H2511 H 0.29204 0.54843 0.27149 0.0
C2512 C 0.27066 0.47354 0.14946 0.0
C2513 C 0.27008 0.48923 0.12699 0.0
C2514 C 0.26903 0.47651 0.18425 0.0
C2515 C 0.26685 0.49521 0.1972 0.0
C2516 C 0.26641 0.51095 0.17482 0.0
C2517 C 0.26793 0.50796 0.13992 0.0
C2518 C 0.26574 0.49832 0.23422 0.0
C2519 C 0.28011 0.50948 0.24969 0.0
C2520 C 0.25154 0.48925 0.25444 0.0
C2521 C 0.23573 0.47767 0.23932 0.0
C2522 C 0.22376 0.48558 0.21416 0.0
C2523 C 0.20912 0.47447 0.19961 0.0
C2524 C 0.20621 0.45546 0.21018 0.0
C2525 C 0.2179 0.44754 0.23542 0.0
C2526 C 0.23258 0.45859 0.25002 0.0
C2527 C 0.26765 0.52621 0.39156 0.0
C2528 C 0.26812 0.51014 0.41317 0.0
C2529 C 0.26645 0.52376 0.3566 0.0
C2530 C 0.26615 0.50518 0.34251 0.0
C2531 C 0.26607 0.48908 0.36411 0.0
C2532 C 0.26706 0.49155 0.3992 0.0
C2533 C 0.2666 0.50261 0.30524 0.0
C2534 C 0.25218 0.49149 0.28973 0.0
C2535 C 0.28091 0.51151 0.28495 0.0
C2536 C 0.29736 0.52223 0.29991 0.0
C2537 C 0.30943 0.51339 0.32396 0.0
C2538 C 0.32478 0.52363 0.33823 0.0
C2539 C 0.3283 0.54267 0.32845 0.0
C2540 C 0.31651 0.5515 0.3043 0.0
C2541 C 0.30113 0.54134 0.28999 0.0
H2542 H 0.34019 0.55058 0.33953 0.0
H2543 H 0.19488 0.44688 0.19887 0.0
loop_
_geom_bond_atom_site_label_1
_geom_bond_atom_site_label_2
_geom_bond_distance
_geom_bond_site_symmetry_2
_ccdc_geom_bond_type
Co0 O3 1.970 . S
Co0 N17 1.989 . S
Co0 O25 1.967 . S
Co0 O32 1.920 1_455 S
Co1 O4 1.966 . S
Co1 N10 2.022 . S
Co1 N18 1.993 . S
Co1 O26 1.941 . S
C2 O3 1.258 . S
C2 O4 1.263 . S
O3 Co0 1.970 . S
O3 C2 1.258 . S
O4 Co1 1.966 . S
O4 C2 1.263 . S
C5 O6 1.235 . S
C5 O32 1.289 . S
O6 C5 1.235 . S
C7 C9 1.400 . S
C7 N10 1.351 . S
C7 C12 1.501 . S
C8 C9 1.387 . S
C8 N11 1.341 . S
C9 C7 1.400 . S
C9 C8 1.387 . S
N10 Co1 2.022 . S
N10 C7 1.351 . S
N10 N11 1.365 . S
N11 C8 1.341 . S
N11 N10 1.365 . S
N11 H31 0.862 1_554 S
C12 C7 1.501 . S
C12 H13 0.961 . S
C12 H14 0.961 . S
C12 H15 0.960 . S
H13 C12 0.961 . S
H14 C12 0.961 . S
H15 C12 0.960 . S
C16 N17 1.342 1_556 S
C16 C20 1.401 . S
C16 C21 1.499 1_455 S
N17 Co0 1.989 . S
N17 C16 1.342 1_554 S
N17 N18 1.388 . S
N18 Co1 1.993 . S
N18 N17 1.388 . S
N18 C19 1.346 1_554 S
C19 N18 1.346 1_556 S
C19 C20 1.396 . S
C19 C29 1.510 . S
C20 C16 1.401 . S
C20 C19 1.396 . S
C21 C16 1.499 1_655 S
C21 H22 0.959 . S
C21 H23 0.960 . S
C21 H24 0.961 . S
H22 C21 0.959 . S
H23 C21 0.960 . S
H24 C21 0.961 . S
O25 Co0 1.967 . S
O25 C33 1.258 . S
O26 Co1 1.941 . S
O26 C33 1.266 . S
H27 C29 0.959 . S
H28 C29 0.961 . S
C29 C19 1.510 . S
C29 H27 0.959 . S
C29 H28 0.961 . S
C29 H30 0.960 . S
H30 C29 0.960 . S
H31 N11 0.862 1_556 S
O32 Co0 1.920 1_655 S
O32 C5 1.289 . S
C33 O25 1.258 . S
C33 O26 1.266 . S
Co34 O37 1.970 . S
Co34 N51 1.989 . S
Co34 O59 1.967 . S
Co34 O66 1.920 1_545 S
Co35 O38 1.966 . S
Co35 N44 2.022 . S
Co35 N52 1.993 . S
Co35 O60 1.941 . S
C36 O37 1.258 . S
C36 O38 1.263 . S
O37 Co34 1.970 . S
O37 C36 1.258 . S
O38 Co35 1.966 . S
O38 C36 1.263 . S
C39 O40 1.235 . S
C39 O66 1.289 . S
O40 C39 1.235 . S
C41 C43 1.400 . S
C41 N44 1.351 . S
C41 C46 1.501 . S
C42 C43 1.387 . S
C42 N45 1.341 . S
C43 C41 1.400 . S
C43 C42 1.387 . S
N44 Co35 2.022 . S
N44 C41 1.351 . S
N44 N45 1.365 . S
N45 C42 1.341 . S
N45 N44 1.365 . S
N45 H65 0.862 1_554 S
C46 C41 1.501 . S
C46 H47 0.961 . S
C46 H48 0.961 . S
C46 H49 0.960 . S
H47 C46 0.961 . S
H48 C46 0.961 . S
H49 C46 0.960 . S
C50 N51 1.342 1_556 S
C50 C54 1.401 . S
C50 C55 1.499 1_545 S
N51 Co34 1.989 . S
N51 C50 1.342 1_554 S
N51 N52 1.388 . S
N52 Co35 1.993 . S
N52 N51 1.388 . S
N52 C53 1.346 1_554 S
C53 N52 1.346 1_556 S
C53 C54 1.396 . S
C53 C63 1.510 . S
C54 C50 1.401 . S
C54 C53 1.396 . S
C55 C50 1.499 1_565 S
C55 H56 0.959 . S
C55 H57 0.960 . S
C55 H58 0.961 . S
H56 C55 0.959 . S
H57 C55 0.960 . S
H58 C55 0.961 . S
O59 Co34 1.967 . S
O59 C67 1.258 . S
O60 Co35 1.941 . S
O60 C67 1.266 . S
H61 C63 0.959 . S
H62 C63 0.961 . S
C63 C53 1.510 . S
C63 H61 0.959 . S
C63 H62 0.961 . S
C63 H64 0.960 . S
H64 C63 0.960 . S
H65 N45 0.862 1_556 S
O66 Co34 1.920 1_565 S
O66 C39 1.289 . S
C67 O59 1.258 . S
C67 O60 1.266 . S
Co68 O71 1.970 . S
Co68 N85 1.989 . S
Co68 O93 1.967 . S
Co68 O100 1.920 1_655 S
Co69 O72 1.966 . S
Co69 N78 2.022 . S
Co69 N86 1.993 . S
Co69 O94 1.941 . S
C70 O71 1.258 . S
C70 O72 1.263 . S
O71 Co68 1.970 . S
O71 C70 1.258 . S
O72 Co69 1.966 . S
O72 C70 1.263 . S
C73 O74 1.235 . S
C73 O100 1.289 . S
O74 C73 1.235 . S
C75 C77 1.400 . S
C75 N78 1.351 . S
C75 C80 1.501 . S
C76 C77 1.387 . S
C76 N79 1.341 . S
C77 C75 1.400 . S
C77 C76 1.387 . S
N78 Co69 2.022 . S
N78 C75 1.351 . S
N78 N79 1.365 . S
N79 C76 1.341 . S
N79 N78 1.365 . S
N79 H99 0.862 1_554 S
C80 C75 1.501 . S
C80 H81 0.961 . S
C80 H82 0.961 . S
C80 H83 0.960 . S
H81 C80 0.961 . S
H82 C80 0.961 . S
H83 C80 0.960 . S
C84 N85 1.342 1_556 S
C84 C88 1.401 . S
C84 C89 1.499 1_655 S
N85 Co68 1.989 . S
N85 C84 1.342 1_554 S
N85 N86 1.388 . S
N86 Co69 1.993 . S
N86 N85 1.388 . S
N86 C87 1.346 1_554 S
C87 N86 1.346 1_556 S
C87 C88 1.396 . S
C87 C97 1.510 . S
C88 C84 1.401 . S
C88 C87 1.396 . S
C89 C84 1.499 1_455 S
C89 H90 0.959 . S
C89 H91 0.960 . S
C89 H92 0.961 . S
H90 C89 0.959 . S
H91 C89 0.960 . S
H92 C89 0.961 . S
O93 Co68 1.967 . S
O93 C101 1.258 . S
O94 Co69 1.941 . S
O94 C101 1.266 . S
H95 C97 0.959 . S
H96 C97 0.961 . S
C97 C87 1.510 . S
C97 H95 0.959 . S
C97 H96 0.961 . S
C97 H98 0.960 . S
H98 C97 0.960 . S
H99 N79 0.862 1_556 S
O100 Co68 1.920 1_455 S
O100 C73 1.289 . S
C101 O93 1.258 . S
C101 O94 1.266 . S
Co102 O105 1.970 . S
Co102 N119 1.989 . S
Co102 O127 1.967 . S
Co102 O134 1.920 1_565 S
Co103 O106 1.966 . S
Co103 N112 2.022 . S
Co103 N120 1.993 . S
Co103 O128 1.941 . S
C104 O105 1.258 . S
C104 O106 1.263 . S
O105 Co102 1.970 . S
O105 C104 1.258 . S
O106 Co103 1.966 . S
O106 C104 1.263 . S
C107 O108 1.235 . S
C107 O134 1.289 . S
O108 C107 1.235 . S
C109 C111 1.400 . S
C109 N112 1.351 . S
C109 C114 1.501 . S
C110 C111 1.387 . S
C110 N113 1.341 . S
C111 C109 1.400 . S
C111 C110 1.387 . S
N112 Co103 2.022 . S
N112 C109 1.351 . S
N112 N113 1.365 . S
N113 C110 1.341 . S
N113 N112 1.365 . S
N113 H133 0.862 1_554 S
C114 C109 1.501 . S
C114 H115 0.961 . S
C114 H116 0.961 . S
C114 H117 0.960 . S
H115 C114 0.961 . S
H116 C114 0.961 . S
H117 C114 0.960 . S
C118 N119 1.342 1_556 S
C118 C122 1.401 . S
C118 C123 1.499 1_565 S
N119 Co102 1.989 . S
N119 C118 1.342 1_554 S
N119 N120 1.388 . S
N120 Co103 1.993 . S
N120 N119 1.388 . S
N120 C121 1.346 1_554 S
C121 N120 1.346 1_556 S
C121 C122 1.396 . S
C121 C131 1.510 . S
C122 C118 1.401 . S
C122 C121 1.396 . S
C123 C118 1.499 1_545 S
C123 H124 0.959 . S
C123 H125 0.960 . S
C123 H126 0.961 . S
H124 C123 0.959 . S
H125 C123 0.960 . S
H126 C123 0.961 . S
O127 Co102 1.967 . S
O127 C135 1.258 . S
O128 Co103 1.941 . S
O128 C135 1.266 . S
H129 C131 0.959 . S
H130 C131 0.961 . S
C131 C121 1.510 . S
C131 H129 0.959 . S
C131 H130 0.961 . S
C131 H132 0.960 . S
H132 C131 0.960 . S
H133 N113 0.862 1_556 S
O134 Co102 1.920 1_545 S
O134 C107 1.289 . S
C135 O127 1.258 . S
C135 O128 1.266 . S
Co136 O139 1.970 . S
Co136 N153 1.989 . S
Co136 O161 1.967 . S
Co136 O168 1.920 1_455 S
Co137 O140 1.966 . S
Co137 N146 2.022 . S
Co137 N154 1.993 . S
Co137 O162 1.941 . S
C138 O139 1.258 . S
C138 O140 1.263 . S
O139 Co136 1.970 . S
O139 C138 1.258 . S
O140 Co137 1.966 . S
O140 C138 1.263 . S
C141 O142 1.235 . S
C141 O168 1.289 . S
O142 C141 1.235 . S
C143 C145 1.400 . S
C143 N146 1.351 . S
C143 C148 1.501 . S
C144 C145 1.387 . S
C144 N147 1.341 . S
C145 C143 1.400 . S
C145 C144 1.387 . S
N146 Co137 2.022 . S
N146 C143 1.351 . S
N146 N147 1.365 . S
N147 C144 1.341 . S
N147 N146 1.365 . S
N147 H167 0.862 . S
C148 C143 1.501 . S
C148 H149 0.961 . S
C148 H150 0.961 . S
C148 H151 0.960 . S
H149 C148 0.961 . S
H150 C148 0.961 . S
H151 C148 0.960 . S
C152 N153 1.342 . S
C152 C156 1.401 . S
C152 C157 1.499 1_455 S
N153 Co136 1.989 . S
N153 C152 1.342 . S
N153 N154 1.388 . S
N154 Co137 1.993 . S
N154 N153 1.388 . S
N154 C155 1.346 . S
C155 N154 1.346 . S
C155 C156 1.396 . S
C155 C165 1.510 . S
C156 C152 1.401 . S
C156 C155 1.396 . S
C157 C152 1.499 1_655 S
C157 H158 0.959 . S
C157 H159 0.960 . S
C157 H160 0.961 . S
H158 C157 0.959 . S
H159 C157 0.960 . S
H160 C157 0.961 . S
O161 Co136 1.967 . S
O161 C169 1.258 . S
O162 Co137 1.941 . S
O162 C169 1.266 . S
H163 C165 0.959 . S
H164 C165 0.961 . S
C165 C155 1.510 . S
C165 H163 0.959 . S
C165 H164 0.961 . S
C165 H166 0.960 . S
H166 C165 0.960 . S
H167 N147 0.862 . S
O168 Co136 1.920 1_655 S
O168 C141 1.289 . S
C169 O161 1.258 . S
C169 O162 1.266 . S
Co170 O173 1.970 . S
Co170 N187 1.989 . S
Co170 O195 1.967 . S
Co170 O202 1.920 1_545 S
Co171 O174 1.966 . S
Co171 N180 2.022 . S
Co171 N188 1.993 . S
Co171 O196 1.941 . S
C172 O173 1.258 . S
C172 O174 1.263 . S
O173 Co170 1.970 . S
O173 C172 1.258 . S
O174 Co171 1.966 . S
O174 C172 1.263 . S
C175 O176 1.235 . S
C175 O202 1.289 . S
O176 C175 1.235 . S
C177 C179 1.400 . S
C177 N180 1.351 . S
C177 C182 1.501 . S
C178 C179 1.387 . S
C178 N181 1.341 . S
C179 C177 1.400 . S
C179 C178 1.387 . S
N180 Co171 2.022 . S
N180 C177 1.351 . S
N180 N181 1.365 . S
N181 C178 1.341 . S
N181 N180 1.365 . S
N181 H201 0.862 . S
C182 C177 1.501 . S
C182 H183 0.961 . S
C182 H184 0.961 . S
C182 H185 0.960 . S
H183 C182 0.961 . S
H184 C182 0.961 . S
H185 C182 0.960 . S
C186 N187 1.342 . S
C186 C190 1.401 . S
C186 C191 1.499 1_545 S
N187 Co170 1.989 . S
N187 C186 1.342 . S
N187 N188 1.388 . S
N188 Co171 1.993 . S
N188 N187 1.388 . S
N188 C189 1.346 . S
C189 N188 1.346 . S
C189 C190 1.396 . S
C189 C199 1.510 . S
C190 C186 1.401 . S
C190 C189 1.396 . S
C191 C186 1.499 1_565 S
C191 H192 0.959 . S
C191 H193 0.960 . S
C191 H194 0.961 . S
H192 C191 0.959 . S
H193 C191 0.960 . S
H194 C191 0.961 . S
O195 Co170 1.967 . S
O195 C203 1.258 . S
O196 Co171 1.941 . S
O196 C203 1.266 . S
H197 C199 0.959 . S
H198 C199 0.961 . S
C199 C189 1.510 . S
C199 H197 0.959 . S
C199 H198 0.961 . S
C199 H200 0.960 . S
H200 C199 0.960 . S
H201 N181 0.862 . S
O202 Co170 1.920 1_565 S
O202 C175 1.289 . S
C203 O195 1.258 . S
C203 O196 1.266 . S
Co204 O207 1.970 . S
Co204 N221 1.989 . S
Co204 O229 1.967 . S
Co204 O236 1.920 1_655 S
Co205 O208 1.966 . S
Co205 N214 2.022 . S
Co205 N222 1.993 . S
Co205 O230 1.941 . S
C206 O207 1.258 . S
C206 O208 1.263 . S
O207 Co204 1.970 . S
O207 C206 1.258 . S
O208 Co205 1.966 . S
O208 C206 1.263 . S
C209 O210 1.235 . S
C209 O236 1.289 . S
O210 C209 1.235 . S
C211 C213 1.400 . S
C211 N214 1.351 . S
C211 C216 1.501 . S
C212 C213 1.387 . S
C212 N215 1.341 . S
C213 C211 1.400 . S
C213 C212 1.387 . S
N214 Co205 2.022 . S
N214 C211 1.351 . S
N214 N215 1.365 . S
N215 C212 1.341 . S
N215 N214 1.365 . S
N215 H235 0.862 . S
C216 C211 1.501 . S
C216 H217 0.961 . S
C216 H218 0.961 . S
C216 H219 0.960 . S
H217 C216 0.961 . S
H218 C216 0.961 . S
H219 C216 0.960 . S
C220 N221 1.342 . S
C220 C224 1.401 . S
C220 C225 1.499 1_655 S
N221 Co204 1.989 . S
N221 C220 1.342 . S
N221 N222 1.388 . S
N222 Co205 1.993 . S
N222 N221 1.388 . S
N222 C223 1.346 . S
C223 N222 1.346 . S
C223 C224 1.396 . S
C223 C233 1.510 . S
C224 C220 1.401 . S
C224 C223 1.396 . S
C225 C220 1.499 1_455 S
C225 H226 0.959 . S
C225 H227 0.960 . S
C225 H228 0.961 . S
H226 C225 0.959 . S
H227 C225 0.960 . S
H228 C225 0.961 . S
O229 Co204 1.967 . S
O229 C237 1.258 . S
O230 Co205 1.941 . S
O230 C237 1.266 . S
H231 C233 0.959 . S
H232 C233 0.961 . S
C233 C223 1.510 . S
C233 H231 0.959 . S
C233 H232 0.961 . S
C233 H234 0.960 . S
H234 C233 0.960 . S
H235 N215 0.862 . S
O236 Co204 1.920 1_455 S
O236 C209 1.289 . S
C237 O229 1.258 . S
C237 O230 1.266 . S
Co238 O241 1.970 . S
Co238 N255 1.989 . S
Co238 O263 1.967 . S
Co238 O270 1.920 1_565 S
Co239 O242 1.966 . S
Co239 N248 2.022 . S
Co239 N256 1.993 . S
Co239 O264 1.941 . S
C240 O241 1.258 . S
C240 O242 1.263 . S
O241 Co238 1.970 . S
O241 C240 1.258 . S
O242 Co239 1.966 . S
O242 C240 1.263 . S
C243 O244 1.235 . S
C243 O270 1.289 . S
O244 C243 1.235 . S
C245 C247 1.400 . S
C245 N248 1.351 . S
C245 C250 1.501 . S
C246 C247 1.387 . S
C246 N249 1.341 . S
C247 C245 1.400 . S
C247 C246 1.387 . S
N248 Co239 2.022 . S
N248 C245 1.351 . S
N248 N249 1.365 . S
N249 C246 1.341 . S
N249 N248 1.365 . S
N249 H269 0.862 . S
C250 C245 1.501 . S
C250 H251 0.961 . S
C250 H252 0.961 . S
C250 H253 0.960 . S
H251 C250 0.961 . S
H252 C250 0.961 . S
H253 C250 0.960 . S
C254 N255 1.342 . S
C254 C258 1.401 . S
C254 C259 1.499 1_565 S
N255 Co238 1.989 . S
N255 C254 1.342 . S
N255 N256 1.388 . S
N256 Co239 1.993 . S
N256 N255 1.388 . S
N256 C257 1.346 . S
C257 N256 1.346 . S
C257 C258 1.396 . S
C257 C267 1.510 . S
C258 C254 1.401 . S
C258 C257 1.396 . S
C259 C254 1.499 1_545 S
C259 H260 0.959 . S
C259 H261 0.960 . S
C259 H262 0.961 . S
H260 C259 0.959 . S
H261 C259 0.960 . S
H262 C259 0.961 . S
O263 Co238 1.967 . S
O263 C271 1.258 . S
O264 Co239 1.941 . S
O264 C271 1.266 . S
H265 C267 0.959 . S
H266 C267 0.961 . S
C267 C257 1.510 . S
C267 H265 0.959 . S
C267 H266 0.961 . S
C267 H268 0.960 . S
H268 C267 0.960 . S
H269 N249 0.862 . S
O270 Co238 1.920 1_545 S
O270 C243 1.289 . S
C271 O263 1.258 . S
C271 O264 1.266 . S
Co272 O275 1.970 . S
Co272 N289 1.989 . S
Co272 O297 1.967 . S
Co272 O304 1.920 . S
Co273 O276 1.966 . S
Co273 N282 2.022 . S
Co273 N290 1.993 . S
Co273 O298 1.941 . S
C274 O275 1.258 . S
C274 O276 1.263 . S
O275 Co272 1.970 . S
O275 C274 1.258 . S
O276 Co273 1.966 . S
O276 C274 1.263 . S
C277 O278 1.235 . S
C277 O304 1.289 . S
O278 C277 1.235 . S
C279 C281 1.400 . S
C279 N282 1.351 . S
C279 C284 1.501 . S
C280 C281 1.387 . S
C280 N283 1.341 . S
C281 C279 1.400 . S
C281 C280 1.387 . S
N282 Co273 2.022 . S
N282 C279 1.351 . S
N282 N283 1.365 . S
N283 C280 1.341 . S
N283 N282 1.365 . S
N283 H303 0.862 . S
C284 C279 1.501 . S
C284 H285 0.961 . S
C284 H286 0.961 . S
C284 H287 0.960 . S
H285 C284 0.961 . S
H286 C284 0.961 . S
H287 C284 0.960 . S
C288 N289 1.342 . S
C288 C292 1.401 . S
C288 C293 1.499 . S
N289 Co272 1.989 . S
N289 C288 1.342 . S
N289 N290 1.388 . S
N290 Co273 1.993 . S
N290 N289 1.388 . S
N290 C291 1.346 . S
C291 N290 1.346 . S
C291 C292 1.396 . S
C291 C301 1.510 . S
C292 C288 1.401 . S
C292 C291 1.396 . S
C293 C288 1.499 . S
C293 H294 0.959 . S
C293 H295 0.960 . S
C293 H296 0.961 . S
H294 C293 0.959 . S
H295 C293 0.960 . S
H296 C293 0.961 . S
O297 Co272 1.967 . S
O297 C305 1.258 . S
O298 Co273 1.941 . S
O298 C305 1.266 . S
H299 C301 0.959 . S
H300 C301 0.961 . S
C301 C291 1.510 . S
C301 H299 0.959 . S
C301 H300 0.961 . S
C301 H302 0.960 . S
H302 C301 0.960 . S
H303 N283 0.862 . S
O304 Co272 1.920 . S
O304 C277 1.289 . S
C305 O297 1.258 . S
C305 O298 1.266 . S
Co306 O309 1.970 . S
Co306 N323 1.989 . S
Co306 O331 1.967 . S
Co306 O338 1.920 . S
Co307 O310 1.966 . S
Co307 N316 2.022 . S
Co307 N324 1.993 . S
Co307 O332 1.941 . S
C308 O309 1.258 . S
C308 O310 1.263 . S
O309 Co306 1.970 . S
O309 C308 1.258 . S
O310 Co307 1.966 . S
O310 C308 1.263 . S
C311 O312 1.235 . S
C311 O338 1.289 . S
O312 C311 1.235 . S
C313 C315 1.400 . S
C313 N316 1.351 . S
C313 C318 1.501 . S
C314 C315 1.387 . S
C314 N317 1.341 . S
C315 C313 1.400 . S
C315 C314 1.387 . S
N316 Co307 2.022 . S
N316 C313 1.351 . S
N316 N317 1.365 . S
N317 C314 1.341 . S
N317 N316 1.365 . S
N317 H337 0.862 . S
C318 C313 1.501 . S
C318 H319 0.961 . S
C318 H320 0.961 . S
C318 H321 0.960 . S
H319 C318 0.961 . S
H320 C318 0.961 . S
H321 C318 0.960 . S
C322 N323 1.342 . S
C322 C326 1.401 . S
C322 C327 1.499 . S
N323 Co306 1.989 . S
N323 C322 1.342 . S
N323 N324 1.388 . S
N324 Co307 1.993 . S
N324 N323 1.388 . S
N324 C325 1.346 . S
C325 N324 1.346 . S
C325 C326 1.396 . S
C325 C335 1.510 . S
C326 C322 1.401 . S
C326 C325 1.396 . S
C327 C322 1.499 . S
C327 H328 0.959 . S
C327 H329 0.960 . S
C327 H330 0.961 . S
H328 C327 0.959 . S
H329 C327 0.960 . S
H330 C327 0.961 . S
O331 Co306 1.967 . S
O331 C339 1.258 . S
O332 Co307 1.941 . S
O332 C339 1.266 . S
H333 C335 0.959 . S
H334 C335 0.961 . S
C335 C325 1.510 . S
C335 H333 0.959 . S
C335 H334 0.961 . S
C335 H336 0.960 . S
H336 C335 0.960 . S
H337 N317 0.862 . S
O338 Co306 1.920 . S
O338 C311 1.289 . S
C339 O331 1.258 . S
C339 O332 1.266 . S
Co340 O343 1.970 . S
Co340 N357 1.989 . S
Co340 O365 1.967 . S
Co340 O372 1.920 . S
Co341 O344 1.966 . S
Co341 N350 2.022 . S
Co341 N358 1.993 . S
Co341 O366 1.941 . S
C342 O343 1.258 . S
C342 O344 1.263 . S
O343 Co340 1.970 . S
O343 C342 1.258 . S
O344 Co341 1.966 . S
O344 C342 1.263 . S
C345 O346 1.235 . S
C345 O372 1.289 . S
O346 C345 1.235 . S
C347 C349 1.400 . S
C347 N350 1.351 . S
C347 C352 1.501 . S
C348 C349 1.387 . S
C348 N351 1.341 . S
C349 C347 1.400 . S
C349 C348 1.387 . S
N350 Co341 2.022 . S
N350 C347 1.351 . S
N350 N351 1.365 . S
N351 C348 1.341 . S
N351 N350 1.365 . S
N351 H371 0.862 . S
C352 C347 1.501 . S
C352 H353 0.961 . S
C352 H354 0.961 . S
C352 H355 0.960 . S
H353 C352 0.961 . S
H354 C352 0.961 . S
H355 C352 0.960 . S
C356 N357 1.342 . S
C356 C360 1.401 . S
C356 C361 1.499 . S
N357 Co340 1.989 . S
N357 C356 1.342 . S
N357 N358 1.388 . S
N358 Co341 1.993 . S
N358 N357 1.388 . S
N358 C359 1.346 . S
C359 N358 1.346 . S
C359 C360 1.396 . S
C359 C369 1.510 . S
C360 C356 1.401 . S
C360 C359 1.396 . S
C361 C356 1.499 . S
C361 H362 0.959 . S
C361 H363 0.960 . S
C361 H364 0.961 . S
H362 C361 0.959 . S
H363 C361 0.960 . S
H364 C361 0.961 . S
O365 Co340 1.967 . S
O365 C373 1.258 . S
O366 Co341 1.941 . S
O366 C373 1.266 . S
H367 C369 0.959 . S
H368 C369 0.961 . S
C369 C359 1.510 . S
C369 H367 0.959 . S
C369 H368 0.961 . S
C369 H370 0.960 . S
H370 C369 0.960 . S
H371 N351 0.862 . S
O372 Co340 1.920 . S
O372 C345 1.289 . S
C373 O365 1.258 . S
C373 O366 1.266 . S
Co374 O377 1.970 . S
Co374 N391 1.989 . S
Co374 O399 1.967 . S
Co374 O406 1.920 . S
Co375 O378 1.966 . S
Co375 N384 2.022 . S
Co375 N392 1.993 . S
Co375 O400 1.941 . S
C376 O377 1.258 . S
C376 O378 1.263 . S
O377 Co374 1.970 . S
O377 C376 1.258 . S
O378 Co375 1.966 . S
O378 C376 1.263 . S
C379 O380 1.235 . S
C379 O406 1.289 . S
O380 C379 1.235 . S
C381 C383 1.400 . S
C381 N384 1.351 . S
C381 C386 1.501 . S
C382 C383 1.387 . S
C382 N385 1.341 . S
C383 C381 1.400 . S
C383 C382 1.387 . S
N384 Co375 2.022 . S
N384 C381 1.351 . S
N384 N385 1.365 . S
N385 C382 1.341 . S
N385 N384 1.365 . S
N385 H405 0.862 . S
C386 C381 1.501 . S
C386 H387 0.961 . S
C386 H388 0.961 . S
C386 H389 0.960 . S
H387 C386 0.961 . S
H388 C386 0.961 . S
H389 C386 0.960 . S
C390 N391 1.342 . S
C390 C394 1.401 . S
C390 C395 1.499 . S
N391 Co374 1.989 . S
N391 C390 1.342 . S
N391 N392 1.388 . S
N392 Co375 1.993 . S
N392 N391 1.388 . S
N392 C393 1.346 . S
C393 N392 1.346 . S
C393 C394 1.396 . S
C393 C403 1.510 . S
C394 C390 1.401 . S
C394 C393 1.396 . S
C395 C390 1.499 . S
C395 H396 0.959 . S
C395 H397 0.960 . S
C395 H398 0.961 . S
H396 C395 0.959 . S
H397 C395 0.960 . S
H398 C395 0.961 . S
O399 Co374 1.967 . S
O399 C407 1.258 . S
O400 Co375 1.941 . S
O400 C407 1.266 . S
H401 C403 0.959 . S
H402 C403 0.961 . S
C403 C393 1.510 . S
C403 H401 0.959 . S
C403 H402 0.961 . S
C403 H404 0.960 . S
H404 C403 0.960 . S
H405 N385 0.862 . S
O406 Co374 1.920 . S
O406 C379 1.289 . S
C407 O399 1.258 . S
C407 O400 1.266 . S
Co408 O411 1.970 1_554 S
Co408 N425 1.989 . S
Co408 O433 1.967 1_554 S
Co408 O440 1.920 . S
Co409 O412 1.966 1_554 S
Co409 N418 2.022 . S
Co409 N426 1.993 . S
Co409 O434 1.941 . S
C410 O411 1.258 . S
C410 O412 1.263 . S
O411 Co408 1.970 1_556 S
O411 C410 1.258 . S
O412 Co409 1.966 1_556 S
O412 C410 1.263 . S
C413 O414 1.235 . S
C413 O440 1.289 . S
O414 C413 1.235 . S
C415 C417 1.400 1_556 S
C415 N418 1.351 1_556 S
C415 C420 1.501 . S
C416 C417 1.387 . S
C416 N419 1.341 . S
C417 C415 1.400 1_554 S
C417 C416 1.387 . S
N418 Co409 2.022 . S
N418 C415 1.351 1_554 S
N418 N419 1.365 . S
N419 C416 1.341 . S
N419 N418 1.365 . S
N419 H439 0.862 . S
C420 C415 1.501 . S
C420 H421 0.961 . S
C420 H422 0.961 . S
C420 H423 0.960 . S
H421 C420 0.961 . S
H422 C420 0.961 . S
H423 C420 0.960 . S
C424 N425 1.342 . S
C424 C428 1.401 . S
C424 C429 1.499 . S
N425 Co408 1.989 . S
N425 C424 1.342 . S
N425 N426 1.388 . S
N426 Co409 1.993 . S
N426 N425 1.388 . S
N426 C427 1.346 . S
C427 N426 1.346 . S
C427 C428 1.396 . S
C427 C437 1.510 . S
C428 C424 1.401 . S
C428 C427 1.396 . S
C429 C424 1.499 . S
C429 H430 0.959 . S
C429 H431 0.960 . S
C429 H432 0.961 . S
H430 C429 0.959 . S
H431 C429 0.960 . S
H432 C429 0.961 . S
O433 Co408 1.967 1_556 S
O433 C441 1.258 . S
O434 Co409 1.941 . S
O434 C441 1.266 1_554 S
H435 C437 0.959 . S
H436 C437 0.961 . S
C437 C427 1.510 . S
C437 H435 0.959 . S
C437 H436 0.961 . S
C437 H438 0.960 . S
H438 C437 0.960 . S
H439 N419 0.862 . S
O440 Co408 1.920 . S
O440 C413 1.289 . S
C441 O433 1.258 . S
C441 O434 1.266 1_556 S
Co442 O445 1.970 1_554 S
Co442 N459 1.989 . S
Co442 O467 1.967 1_554 S
Co442 O474 1.920 . S
Co443 O446 1.966 1_554 S
Co443 N452 2.022 . S
Co443 N460 1.993 . S
Co443 O468 1.941 . S
C444 O445 1.258 . S
C444 O446 1.263 . S
O445 Co442 1.970 1_556 S
O445 C444 1.258 . S
O446 Co443 1.966 1_556 S
O446 C444 1.263 . S
C447 O448 1.235 . S
C447 O474 1.289 . S
O448 C447 1.235 . S
C449 C451 1.400 1_556 S
C449 N452 1.351 1_556 S
C449 C454 1.501 . S
C450 C451 1.387 . S
C450 N453 1.341 . S
C451 C449 1.400 1_554 S
C451 C450 1.387 . S
N452 Co443 2.022 . S
N452 C449 1.351 1_554 S
N452 N453 1.365 . S
N453 C450 1.341 . S
N453 N452 1.365 . S
N453 H473 0.862 . S
C454 C449 1.501 . S
C454 H455 0.961 . S
C454 H456 0.961 . S
C454 H457 0.960 . S
H455 C454 0.961 . S
H456 C454 0.961 . S
H457 C454 0.960 . S
C458 N459 1.342 . S
C458 C462 1.401 . S
C458 C463 1.499 . S
N459 Co442 1.989 . S
N459 C458 1.342 . S
N459 N460 1.388 . S
N460 Co443 1.993 . S
N460 N459 1.388 . S
N460 C461 1.346 . S
C461 N460 1.346 . S
C461 C462 1.396 . S
C461 C471 1.510 . S
C462 C458 1.401 . S
C462 C461 1.396 . S
C463 C458 1.499 . S
C463 H464 0.959 . S
C463 H465 0.960 . S
C463 H466 0.961 . S
H464 C463 0.959 . S
H465 C463 0.960 . S
H466 C463 0.961 . S
O467 Co442 1.967 1_556 S
O467 C475 1.258 . S
O468 Co443 1.941 . S
O468 C475 1.266 1_554 S
H469 C471 0.959 . S
H470 C471 0.961 . S
C471 C461 1.510 . S
C471 H469 0.959 . S
C471 H470 0.961 . S
C471 H472 0.960 . S
H472 C471 0.960 . S
H473 N453 0.862 . S
O474 Co442 1.920 . S
O474 C447 1.289 . S
C475 O467 1.258 . S
C475 O468 1.266 1_556 S
Co476 O479 1.970 1_554 S
Co476 N493 1.989 . S
Co476 O501 1.967 1_554 S
Co476 O508 1.920 . S
Co477 O480 1.966 1_554 S
Co477 N486 2.022 . S
Co477 N494 1.993 . S
Co477 O502 1.941 . S
C478 O479 1.258 . S
C478 O480 1.263 . S
O479 Co476 1.970 1_556 S
O479 C478 1.258 . S
O480 Co477 1.966 1_556 S
O480 C478 1.263 . S
C481 O482 1.235 . S
C481 O508 1.289 . S
O482 C481 1.235 . S
C483 C485 1.400 1_556 S
C483 N486 1.351 1_556 S
C483 C488 1.501 . S
C484 C485 1.387 . S
C484 N487 1.341 . S
C485 C483 1.400 1_554 S
C485 C484 1.387 . S
N486 Co477 2.022 . S
N486 C483 1.351 1_554 S
N486 N487 1.365 . S
N487 C484 1.341 . S
N487 N486 1.365 . S
N487 H507 0.862 . S
C488 C483 1.501 . S
C488 H489 0.961 . S
C488 H490 0.961 . S
C488 H491 0.960 . S
H489 C488 0.961 . S
H490 C488 0.961 . S
H491 C488 0.960 . S
C492 N493 1.342 . S
C492 C496 1.401 . S
C492 C497 1.499 . S
N493 Co476 1.989 . S
N493 C492 1.342 . S
N493 N494 1.388 . S
N494 Co477 1.993 . S
N494 N493 1.388 . S
N494 C495 1.346 . S
C495 N494 1.346 . S
C495 C496 1.396 . S
C495 C505 1.510 . S
C496 C492 1.401 . S
C496 C495 1.396 . S
C497 C492 1.499 . S
C497 H498 0.959 . S
C497 H499 0.960 . S
C497 H500 0.961 . S
H498 C497 0.959 . S
H499 C497 0.960 . S
H500 C497 0.961 . S
O501 Co476 1.967 1_556 S
O501 C509 1.258 . S
O502 Co477 1.941 . S
O502 C509 1.266 1_554 S
H503 C505 0.959 . S
H504 C505 0.961 . S
C505 C495 1.510 . S
C505 H503 0.959 . S
C505 H504 0.961 . S
C505 H506 0.960 . S
H506 C505 0.960 . S
H507 N487 0.862 . S
O508 Co476 1.920 . S
O508 C481 1.289 . S
C509 O501 1.258 . S
C509 O502 1.266 1_556 S
Co510 O513 1.970 1_554 S
Co510 N527 1.989 . S
Co510 O535 1.967 1_554 S
Co510 O542 1.920 . S
Co511 O514 1.966 1_554 S
Co511 N520 2.022 . S
Co511 N528 1.993 . S
Co511 O536 1.941 . S
C512 O513 1.258 . S
C512 O514 1.263 . S
O513 Co510 1.970 1_556 S
O513 C512 1.258 . S
O514 Co511 1.966 1_556 S
O514 C512 1.263 . S
C515 O516 1.235 . S
C515 O542 1.289 . S
O516 C515 1.235 . S
C517 C519 1.400 1_556 S
C517 N520 1.351 1_556 S
C517 C522 1.501 . S
C518 C519 1.387 . S
C518 N521 1.341 . S
C519 C517 1.400 1_554 S
C519 C518 1.387 . S
N520 Co511 2.022 . S
N520 C517 1.351 1_554 S
N520 N521 1.365 . S
N521 C518 1.341 . S
N521 N520 1.365 . S
N521 H541 0.862 . S
C522 C517 1.501 . S
C522 H523 0.961 . S
C522 H524 0.961 . S
C522 H525 0.960 . S
H523 C522 0.961 . S
H524 C522 0.961 . S
H525 C522 0.960 . S
C526 N527 1.342 . S
C526 C530 1.401 . S
C526 C531 1.499 . S
N527 Co510 1.989 . S
N527 C526 1.342 . S
N527 N528 1.388 . S
N528 Co511 1.993 . S
N528 N527 1.388 . S
N528 C529 1.346 . S
C529 N528 1.346 . S
C529 C530 1.396 . S
C529 C539 1.510 . S
C530 C526 1.401 . S
C530 C529 1.396 . S
C531 C526 1.499 . S
C531 H532 0.959 . S
C531 H533 0.960 . S
C531 H534 0.961 . S
H532 C531 0.959 . S
H533 C531 0.960 . S
H534 C531 0.961 . S
O535 Co510 1.967 1_556 S
O535 C543 1.258 . S
O536 Co511 1.941 . S
O536 C543 1.266 1_554 S
H537 C539 0.959 . S
H538 C539 0.961 . S
C539 C529 1.510 . S
C539 H537 0.959 . S
C539 H538 0.961 . S
C539 H540 0.960 . S
H540 C539 0.960 . S
H541 N521 0.862 . S
O542 Co510 1.920 . S
O542 C515 1.289 . S
C543 O535 1.258 . S
C543 O536 1.266 1_556 S
H544 C562 0.951 . S
H545 C564 0.951 . S
H546 C566 0.950 . S
H547 C567 0.950 . S
H548 C569 0.950 . S
H549 C572 0.950 . S
H550 C573 0.950 . S
H551 C575 0.950 . S
H552 C576 0.950 . S
H553 C577 0.951 . S
H554 C579 0.951 . S
H555 C581 0.950 1_556 S
H556 C582 0.950 1_556 S
H557 C584 0.950 . S
H558 C587 0.950 . S
H559 C588 0.950 . S
H560 C590 0.950 . S
H561 C591 0.950 . S
C562 H544 0.951 . S
C562 C563 1.366 . S
C562 C564 1.388 . S
C563 C562 1.366 . S
C563 C567 1.385 . S
C564 H545 0.951 . S
C564 C562 1.388 . S
C564 C565 1.366 . S
C565 C564 1.366 . S
C565 C566 1.414 . S
C565 C568 1.499 . S
C566 H546 0.950 . S
C566 C565 1.414 . S
C566 C567 1.374 . S
C567 H547 0.950 . S
C567 C563 1.385 . S
C567 C566 1.374 . S
C568 C565 1.499 . S
C568 C569 1.373 . S
C568 C570 1.389 1_554 S
C569 H548 0.950 . S
C569 C568 1.373 . S
C569 C585 1.377 . S
C570 C568 1.389 1_556 S
C570 C571 1.524 . S
C570 C584 1.377 . S
C571 C570 1.524 . S
C571 C572 1.397 . S
C571 C576 1.363 . S
C572 H549 0.950 . S
C572 C571 1.397 . S
C572 C573 1.334 . S
C573 H550 0.950 . S
C573 C572 1.334 . S
C573 C574 1.287 . S
C574 C573 1.287 . S
C574 C575 1.524 . S
C574 H593 0.913 . S
C575 H551 0.950 . S
C575 C574 1.524 . S
C575 C576 1.415 . S
C576 H552 0.950 . S
C576 C571 1.363 . S
C576 C575 1.415 . S
C577 H553 0.951 . S
C577 C578 1.366 . S
C577 C579 1.388 . S
C578 C577 1.366 . S
C578 C582 1.385 . S
C579 H554 0.951 . S
C579 C577 1.388 . S
C579 C580 1.366 . S
C580 C579 1.366 . S
C580 C581 1.414 . S
C580 C583 1.499 . S
C581 H555 0.950 1_554 S
C581 C580 1.414 . S
C581 C582 1.374 . S
C582 H556 0.950 1_554 S
C582 C578 1.385 . S
C582 C581 1.374 . S
C583 C580 1.499 . S
C583 C584 1.373 1_554 S
C583 C585 1.389 . S
C584 H557 0.950 . S
C584 C570 1.377 . S
C584 C583 1.373 1_556 S
C585 C569 1.377 . S
C585 C583 1.389 . S
C585 C586 1.524 . S
C586 C585 1.524 . S
C586 C587 1.397 . S
C586 C591 1.363 . S
C587 H558 0.950 . S
C587 C586 1.397 . S
C587 C588 1.334 . S
C588 H559 0.950 . S
C588 C587 1.334 . S
C588 C589 1.287 . S
C589 C588 1.287 . S
C589 C590 1.524 . S
C589 H592 0.999 . S
C590 H560 0.950 . S
C590 C589 1.524 . S
C590 C591 1.415 . S
C591 H561 0.950 . S
C591 C586 1.363 . S
C591 C590 1.415 . S
H592 C589 0.999 . S
H593 C574 0.913 . S
H594 C612 0.951 . S
H595 C614 0.951 . S
H596 C616 0.926 1_556 S
H597 C617 0.950 1_556 S
H598 C619 0.950 . S
H599 C622 0.950 1_556 S
H600 C623 0.950 1_556 S
H601 C625 0.950 . S
H602 C626 0.950 . S
H603 C627 0.951 . S
H604 C629 0.951 . S
H605 C631 0.950 . S
H606 C632 0.950 . S
H607 C634 0.950 . S
H608 C637 0.950 . S
H609 C638 0.950 . S
H610 C640 0.950 . S
H611 C641 0.950 . S
C612 H594 0.951 . S
C612 C613 1.366 . S
C612 C614 1.388 . S
C613 C612 1.366 . S
C613 C617 1.385 . S
C614 H595 0.951 . S
C614 C612 1.388 . S
C614 C615 1.366 . S
C615 C614 1.366 . S
C615 C616 1.436 . S
C615 C618 1.499 . S
C616 H596 0.926 1_554 S
C616 C615 1.436 . S
C616 C617 1.377 . S
C617 H597 0.950 1_554 S
C617 C613 1.385 . S
C617 C616 1.377 . S
C618 C615 1.499 . S
C618 C619 1.373 . S
C618 C620 1.389 . S
C619 H598 0.950 . S
C619 C618 1.373 . S
C619 C635 1.377 . S
C620 C618 1.389 . S
C620 C621 1.524 . S
C620 C634 1.377 . S
C621 C620 1.524 . S
C621 C622 1.397 . S
C621 C626 1.363 . S
C622 H599 0.950 1_554 S
C622 C621 1.397 . S
C622 C623 1.334 . S
C623 H600 0.950 1_554 S
C623 C622 1.334 . S
C623 C624 1.287 . S
C624 C623 1.287 . S
C624 C625 1.524 . S
C624 H643 0.913 . S
C625 H601 0.950 . S
C625 C624 1.524 . S
C625 C626 1.415 . S
C626 H602 0.950 . S
C626 C621 1.363 . S
C626 C625 1.415 . S
C627 H603 0.951 . S
C627 C628 1.366 1_556 S
C627 C629 1.388 . S
C628 C627 1.366 1_554 S
C628 C632 1.385 . S
C629 H604 0.951 . S
C629 C627 1.388 . S
C629 C630 1.366 1_556 S
C630 C629 1.366 1_554 S
C630 C631 1.414 . S
C630 C633 1.499 . S
C631 H605 0.950 . S
C631 C630 1.414 . S
C631 C632 1.374 . S
C632 H606 0.950 . S
C632 C628 1.385 . S
C632 C631 1.374 . S
C633 C630 1.499 . S
C633 C634 1.373 . S
C633 C635 1.389 . S
C634 H607 0.950 . S
C634 C620 1.377 . S
C634 C633 1.373 . S
C635 C619 1.377 . S
C635 C633 1.389 . S
C635 C636 1.524 . S
C636 C635 1.524 . S
C636 C637 1.397 . S
C636 C641 1.363 1_554 S
C637 H608 0.950 . S
C637 C636 1.397 . S
C637 C638 1.334 . S
C638 H609 0.950 . S
C638 C637 1.334 . S
C638 C639 1.287 . S
C639 C638 1.287 . S
C639 C640 1.524 1_554 S
C639 H642 0.999 . S
C640 H610 0.950 . S
C640 C639 1.524 1_556 S
C640 C641 1.415 . S
C641 H611 0.950 . S
C641 C636 1.363 1_556 S
C641 C640 1.415 . S
H642 C639 0.999 . S
H643 C624 0.913 . S
H644 C662 0.951 . S
H645 C664 0.951 . S
H646 C666 0.950 . S
H647 C667 0.950 . S
H648 C669 0.950 . S
H649 C672 0.950 . S
H650 C673 0.950 . S
H651 C675 0.950 . S
H652 C676 0.950 1_556 S
H653 C677 0.951 . S
H654 C679 0.951 . S
H655 C681 0.950 1_556 S
H656 C682 0.950 1_556 S
H657 C684 0.950 . S
H658 C687 0.950 . S
H659 C688 0.950 . S
H660 C690 0.950 . S
H661 C691 0.950 . S
C662 H644 0.951 . S
C662 C663 1.366 1_556 S
C662 C664 1.388 . S
C663 C662 1.366 1_554 S
C663 C667 1.385 . S
C664 H645 0.951 . S
C664 C662 1.388 . S
C664 C665 1.366 1_556 S
C665 C664 1.366 1_554 S
C665 C666 1.414 . S
C665 C668 1.499 . S
C666 H646 0.950 . S
C666 C665 1.414 . S
C666 C667 1.374 . S
C667 H647 0.950 . S
C667 C663 1.385 . S
C667 C666 1.374 . S
C668 C665 1.499 . S
C668 C669 1.373 . S
C668 C670 1.389 . S
C669 H648 0.950 . S
C669 C668 1.373 . S
C669 C685 1.377 . S
C670 C668 1.389 . S
C670 C671 1.524 . S
C670 C684 1.377 . S
C671 C670 1.524 . S
C671 C672 1.397 . S
C671 C676 1.363 . S
C672 H649 0.950 . S
C672 C671 1.397 . S
C672 C673 1.334 . S
C673 H650 0.950 . S
C673 C672 1.334 . S
C673 C674 1.287 . S
C674 C673 1.287 . S
C674 C675 1.524 . S
C674 H693 0.913 . S
C675 H651 0.950 . S
C675 C674 1.524 . S
C675 C676 1.415 . S
C676 H652 0.950 1_554 S
C676 C671 1.363 . S
C676 C675 1.415 . S
C677 H653 0.951 . S
C677 C678 1.366 . S
C677 C679 1.388 . S
C678 C677 1.366 . S
C678 C682 1.385 . S
C679 H654 0.951 . S
C679 C677 1.388 . S
C679 C680 1.366 . S
C680 C679 1.366 . S
C680 C681 1.414 . S
C680 C683 1.499 . S
C681 H655 0.950 1_554 S
C681 C680 1.414 . S
C681 C682 1.374 . S
C682 H656 0.950 1_554 S
C682 C678 1.385 . S
C682 C681 1.374 . S
C683 C680 1.499 . S
C683 C684 1.373 . S
C683 C685 1.389 . S
C684 H657 0.950 . S
C684 C670 1.377 . S
C684 C683 1.373 . S
C685 C669 1.377 . S
C685 C683 1.389 . S
C685 C686 1.524 . S
C686 C685 1.524 . S
C686 C687 1.397 1_554 S
C686 C691 1.363 . S
C687 H658 0.950 . S
C687 C686 1.397 1_556 S
C687 C688 1.334 . S
C688 H659 0.950 . S
C688 C687 1.334 . S
C688 C689 1.287 . S
C689 C688 1.287 . S
C689 C690 1.524 1_556 S
C689 H692 0.999 . S
C690 H660 0.950 . S
C690 C689 1.524 1_554 S
C690 C691 1.415 . S
C691 H661 0.950 . S
C691 C686 1.363 . S
C691 C690 1.415 . S
H692 C689 0.999 . S
H693 C674 0.913 . S
H694 C712 0.951 . S
H695 C714 0.951 . S
H696 C716 0.950 . S
H697 C717 0.950 . S
H698 C719 0.950 1_556 S
H699 C722 0.950 . S
H700 C723 0.950 . S
H701 C725 0.950 . S
H702 C726 0.950 . S
H703 C727 0.951 . S
H704 C729 0.951 . S
H705 C731 0.950 . S
H706 C732 0.950 . S
H707 C734 0.950 . S
H708 C737 0.950 . S
H709 C738 0.950 . S
H710 C740 0.950 . S
H711 C741 0.950 . S
C712 H694 0.951 . S
C712 C713 1.366 . S
C712 C714 1.388 . S
C713 C712 1.366 . S
C713 C717 1.385 . S
C714 H695 0.951 . S
C714 C712 1.388 . S
C714 C715 1.366 . S
C715 C714 1.366 . S
C715 C716 1.414 . S
C715 C718 1.499 . S
C716 H696 0.950 . S
C716 C715 1.414 . S
C716 C717 1.374 . S
C717 H697 0.950 . S
C717 C713 1.385 . S
C717 C716 1.374 . S
C718 C715 1.499 . S
C718 C719 1.373 . S
C718 C720 1.389 . S
C719 H698 0.950 1_554 S
C719 C718 1.373 . S
C719 C735 1.380 . S
C720 C718 1.389 . S
C720 C721 1.524 . S
C720 C734 1.377 . S
C721 C720 1.524 . S
C721 C722 1.397 . S
C721 C726 1.363 . S
C722 H699 0.950 . S
C722 C721 1.397 . S
C722 C723 1.334 . S
C723 H700 0.950 . S
C723 C722 1.334 . S
C723 C724 1.287 . S
C724 C723 1.287 . S
C724 C725 1.524 . S
C724 H743 0.913 . S
C725 H701 0.950 . S
C725 C724 1.524 . S
C725 C726 1.415 . S
C726 H702 0.950 . S
C726 C721 1.363 . S
C726 C725 1.415 . S
C727 H703 0.951 . S
C727 C728 1.366 . S
C727 C729 1.388 . S
C728 C727 1.366 . S
C728 C732 1.385 . S
C729 H704 0.951 . S
C729 C727 1.388 . S
C729 C730 1.366 . S
C730 C729 1.366 . S
C730 C731 1.414 . S
C730 C733 1.499 . S
C731 H705 0.950 . S
C731 C730 1.414 . S
C731 C732 1.374 . S
C732 H706 0.950 . S
C732 C728 1.385 . S
C732 C731 1.374 . S
C733 C730 1.499 . S
C733 C734 1.373 . S
C733 C735 1.403 . S
C734 H707 0.950 . S
C734 C720 1.377 . S
C734 C733 1.373 . S
C735 C719 1.380 . S
C735 C733 1.403 . S
C735 C736 1.506 1_554 S
C736 C735 1.506 1_556 S
C736 C737 1.397 . S
C736 C741 1.363 . S
C737 H708 0.950 . S
C737 C736 1.397 . S
C737 C738 1.334 . S
C738 H709 0.950 . S
C738 C737 1.334 . S
C738 C739 1.287 . S
C739 C738 1.287 . S
C739 C740 1.524 . S
C739 H742 0.999 . S
C740 H710 0.950 . S
C740 C739 1.524 . S
C740 C741 1.415 . S
C741 H711 0.950 . S
C741 C736 1.363 . S
C741 C740 1.415 . S
H742 C739 0.999 . S
H743 C724 0.913 . S
H744 C762 0.951 . S
H745 C764 0.951 . S
H746 C766 0.950 . S
H747 C767 0.950 . S
H748 C769 0.950 . S
H749 C772 0.950 . S
H750 C773 0.950 . S
H751 C775 0.950 . S
H752 C776 0.950 . S
H753 C777 0.951 . S
H754 C779 0.951 . S
H755 C781 0.950 . S
H756 C782 0.950 . S
H757 C784 0.950 . S
H758 C787 0.950 . S
H759 C788 0.950 . S
H760 C790 0.950 . S
H761 C791 0.950 . S
C762 H744 0.951 . S
C762 C763 1.366 . S
C762 C764 1.388 . S
C763 C762 1.366 . S
C763 C767 1.385 . S
C764 H745 0.951 . S
C764 C762 1.388 . S
C764 C765 1.366 . S
C765 C764 1.366 . S
C765 C766 1.414 . S
C765 C768 1.499 . S
C766 H746 0.950 . S
C766 C765 1.414 . S
C766 C767 1.374 . S
C767 H747 0.950 . S
C767 C763 1.385 . S
C767 C766 1.374 . S
C768 C765 1.499 . S
C768 C769 1.373 . S
C768 C770 1.389 . S
C769 H748 0.950 . S
C769 C768 1.373 . S
C769 C785 1.377 . S
C770 C768 1.389 . S
C770 C771 1.524 . S
C770 C784 1.377 . S
C771 C770 1.524 . S
C771 C772 1.397 . S
C771 C776 1.363 . S
C772 H749 0.950 . S
C772 C771 1.397 . S
C772 C773 1.334 . S
C773 H750 0.950 . S
C773 C772 1.334 . S
C773 C774 1.287 . S
C774 C773 1.287 . S
C774 C775 1.524 . S
C774 H793 0.913 . S
C775 H751 0.950 . S
C775 C774 1.524 . S
C775 C776 1.415 . S
C776 H752 0.950 . S
C776 C771 1.363 . S
C776 C775 1.415 . S
C777 H753 0.951 . S
C777 C778 1.366 . S
C777 C779 1.388 . S
C778 C777 1.366 . S
C778 C782 1.385 . S
C779 H754 0.951 . S
C779 C777 1.388 . S
C779 C780 1.366 . S
C780 C779 1.366 . S
C780 C781 1.414 . S
C780 C783 1.499 . S
C781 H755 0.950 . S
C781 C780 1.414 . S
C781 C782 1.374 . S
C782 H756 0.950 . S
C782 C778 1.385 . S
C782 C781 1.374 . S
C783 C780 1.499 . S
C783 C784 1.373 . S
C783 C785 1.389 . S
C784 H757 0.950 . S
C784 C770 1.377 . S
C784 C783 1.373 . S
C785 C769 1.377 . S
C785 C783 1.389 . S
C785 C786 1.524 . S
C786 C785 1.524 . S
C786 C787 1.397 . S
C786 C791 1.363 . S
C787 H758 0.950 . S
C787 C786 1.397 . S
C787 C788 1.334 . S
C788 H759 0.950 . S
C788 C787 1.334 . S
C788 C789 1.287 . S
C789 C788 1.287 . S
C789 C790 1.524 . S
C789 H792 0.999 . S
C790 H760 0.950 . S
C790 C789 1.524 . S
C790 C791 1.415 . S
C791 H761 0.950 . S
C791 C786 1.363 . S
C791 C790 1.415 . S
H792 C789 0.999 . S
H793 C774 0.913 . S
H794 C812 0.951 . S
H795 C814 0.951 . S
H796 C816 0.950 . S
H797 C817 0.950 . S
H798 C819 0.950 . S
H799 C822 0.950 . S
H800 C823 0.950 . S
H801 C825 0.950 . S
H802 C826 0.950 . S
H803 C827 0.951 . S
H804 C829 0.951 . S
H805 C831 0.950 . S
H806 C832 0.950 . S
H807 C834 0.950 . S
H808 C837 0.950 . S
H809 C838 0.950 . S
H810 C840 0.950 . S
H811 C841 0.950 . S
C812 H794 0.951 . S
C812 C813 1.366 . S
C812 C814 1.388 . S
C813 C812 1.366 . S
C813 C817 1.385 . S
C814 H795 0.951 . S
C814 C812 1.388 . S
C814 C815 1.366 . S
C815 C814 1.366 . S
C815 C816 1.414 . S
C815 C818 1.499 . S
C816 H796 0.950 . S
C816 C815 1.414 . S
C816 C817 1.374 . S
C817 H797 0.950 . S
C817 C813 1.385 . S
C817 C816 1.374 . S
C818 C815 1.499 . S
C818 C819 1.373 . S
C818 C820 1.389 . S
C819 H798 0.950 . S
C819 C818 1.373 . S
C819 C835 1.377 . S
C820 C818 1.389 . S
C820 C821 1.524 . S
C820 C834 1.377 . S
C821 C820 1.524 . S
C821 C822 1.397 . S
C821 C826 1.363 . S
C822 H799 0.950 . S
C822 C821 1.397 . S
C822 C823 1.334 . S
C823 H800 0.950 . S
C823 C822 1.334 . S
C823 C824 1.287 . S
C824 C823 1.287 . S
C824 C825 1.524 . S
C824 H843 0.913 . S
C825 H801 0.950 . S
C825 C824 1.524 . S
C825 C826 1.415 . S
C826 H802 0.950 . S
C826 C821 1.363 . S
C826 C825 1.415 . S
C827 H803 0.951 . S
C827 C828 1.366 . S
C827 C829 1.388 . S
C828 C827 1.366 . S
C828 C832 1.385 . S
C829 H804 0.951 . S
C829 C827 1.388 . S
C829 C830 1.366 . S
C830 C829 1.366 . S
C830 C831 1.414 . S
C830 C833 1.499 . S
C831 H805 0.950 . S
C831 C830 1.414 . S
C831 C832 1.374 . S
C832 H806 0.950 . S
C832 C828 1.385 . S
C832 C831 1.374 . S
C833 C830 1.499 . S
C833 C834 1.373 . S
C833 C835 1.389 . S
C834 H807 0.950 . S
C834 C820 1.377 . S
C834 C833 1.373 . S
C835 C819 1.377 . S
C835 C833 1.389 . S
C835 C836 1.524 . S
C836 C835 1.524 . S
C836 C837 1.397 . S
C836 C841 1.363 . S
C837 H808 0.950 . S
C837 C836 1.397 . S
C837 C838 1.334 . S
C838 H809 0.950 . S
C838 C837 1.334 . S
C838 C839 1.287 . S
C839 C838 1.287 . S
C839 C840 1.524 . S
C839 H842 0.999 . S
C840 H810 0.950 . S
C840 C839 1.524 . S
C840 C841 1.415 . S
C841 H811 0.950 . S
C841 C836 1.363 . S
C841 C840 1.415 . S
H842 C839 0.999 . S
H843 C824 0.913 . S
H844 C862 0.951 . S
H845 C864 0.951 . S
H846 C866 0.950 . S
H847 C867 0.950 . S
H848 C869 0.950 . S
H849 C872 0.950 . S
H850 C873 0.950 . S
H851 C875 0.950 . S
H852 C876 0.950 . S
H853 C877 0.951 . S
H854 C879 0.951 . S
H855 C881 0.950 . S
H856 C882 0.950 . S
H857 C884 0.950 . S
H858 C887 0.950 . S
H859 C888 0.950 . S
H860 C890 0.950 . S
H861 C891 0.950 . S
C862 H844 0.951 . S
C862 C863 1.366 . S
C862 C864 1.388 . S
C863 C862 1.366 . S
C863 C867 1.385 . S
C864 H845 0.951 . S
C864 C862 1.388 . S
C864 C865 1.366 . S
C865 C864 1.366 . S
C865 C866 1.414 . S
C865 C868 1.499 . S
C866 H846 0.950 . S
C866 C865 1.414 . S
C866 C867 1.374 . S
C867 H847 0.950 . S
C867 C863 1.385 . S
C867 C866 1.374 . S
C868 C865 1.499 . S
C868 C869 1.373 . S
C868 C870 1.389 . S
C869 H848 0.950 . S
C869 C868 1.373 . S
C869 C885 1.377 . S
C870 C868 1.389 . S
C870 C871 1.524 . S
C870 C884 1.377 . S
C871 C870 1.524 . S
C871 C872 1.397 . S
C871 C876 1.363 . S
C872 H849 0.950 . S
C872 C871 1.397 . S
C872 C873 1.334 . S
C873 H850 0.950 . S
C873 C872 1.334 . S
C873 C874 1.287 . S
C874 C873 1.287 . S
C874 C875 1.524 . S
C874 H893 0.913 . S
C875 H851 0.950 . S
C875 C874 1.524 . S
C875 C876 1.415 . S
C876 H852 0.950 . S
C876 C871 1.363 . S
C876 C875 1.415 . S
C877 H853 0.951 . S
C877 C878 1.366 . S
C877 C879 1.388 . S
C878 C877 1.366 . S
C878 C882 1.385 . S
C879 H854 0.951 . S
C879 C877 1.388 . S
C879 C880 1.366 . S
C880 C879 1.366 . S
C880 C881 1.414 . S
C880 C883 1.499 . S
C881 H855 0.950 . S
C881 C880 1.414 . S
C881 C882 1.374 . S
C882 H856 0.950 . S
C882 C878 1.385 . S
C882 C881 1.374 . S
C883 C880 1.499 . S
C883 C884 1.373 . S
C883 C885 1.389 . S
C884 H857 0.950 . S
C884 C870 1.377 . S
C884 C883 1.373 . S
C885 C869 1.377 . S
C885 C883 1.389 . S
C885 C886 1.524 . S
C886 C885 1.524 . S
C886 C887 1.397 . S
C886 C891 1.363 . S
C887 H858 0.950 . S
C887 C886 1.397 . S
C887 C888 1.334 . S
C888 H859 0.950 . S
C888 C887 1.334 . S
C888 C889 1.287 . S
C889 C888 1.287 . S
C889 C890 1.524 . S
C889 H892 0.999 . S
C890 H860 0.950 . S
C890 C889 1.524 . S
C890 C891 1.415 . S
C891 H861 0.950 . S
C891 C886 1.363 . S
C891 C890 1.415 . S
H892 C889 0.999 . S
H893 C874 0.913 . S
H894 C912 0.951 . S
H895 C914 0.951 . S
H896 C916 0.950 . S
H897 C917 0.950 . S
H898 C919 0.950 . S
H899 C922 0.950 . S
H900 C923 0.950 . S
H901 C925 0.950 . S
H902 C926 0.950 . S
H903 C927 0.951 . S
H904 C929 0.951 . S
H905 C931 0.950 . S
H906 C932 0.950 . S
H907 C934 0.950 . S
H908 C937 0.950 . S
H909 C938 0.950 . S
H910 C940 0.950 . S
H911 C941 0.950 . S
C912 H894 0.951 . S
C912 C913 1.366 . S
C912 C914 1.388 . S
C913 C912 1.366 . S
C913 C917 1.385 . S
C914 H895 0.951 . S
C914 C912 1.388 . S
C914 C915 1.366 . S
C915 C914 1.366 . S
C915 C916 1.414 . S
C915 C918 1.499 . S
C916 H896 0.950 . S
C916 C915 1.414 . S
C916 C917 1.374 . S
C917 H897 0.950 . S
C917 C913 1.385 . S
C917 C916 1.374 . S
C918 C915 1.499 . S
C918 C919 1.373 . S
C918 C920 1.389 . S
C919 H898 0.950 . S
C919 C918 1.373 . S
C919 C935 1.377 . S
C920 C918 1.389 . S
C920 C921 1.524 . S
C920 C934 1.377 . S
C921 C920 1.524 . S
C921 C922 1.397 . S
C921 C926 1.363 . S
C922 H899 0.950 . S
C922 C921 1.397 . S
C922 C923 1.334 . S
C923 H900 0.950 . S
C923 C922 1.334 . S
C923 C924 1.287 . S
C924 C923 1.287 . S
C924 C925 1.524 . S
C924 H943 0.913 . S
C925 H901 0.950 . S
C925 C924 1.524 . S
C925 C926 1.415 . S
C926 H902 0.950 . S
C926 C921 1.363 . S
C926 C925 1.415 . S
C927 H903 0.951 . S
C927 C928 1.366 . S
C927 C929 1.388 . S
C928 C927 1.366 . S
C928 C932 1.385 . S
C929 H904 0.951 . S
C929 C927 1.388 . S
C929 C930 1.366 . S
C930 C929 1.366 . S
C930 C931 1.414 . S
C930 C933 1.499 . S
C931 H905 0.950 . S
C931 C930 1.414 . S
C931 C932 1.374 . S
C932 H906 0.950 . S
C932 C928 1.385 . S
C932 C931 1.374 . S
C933 C930 1.499 . S
C933 C934 1.373 . S
C933 C935 1.389 . S
C934 H907 0.950 . S
C934 C920 1.377 . S
C934 C933 1.373 . S
C935 C919 1.377 . S
C935 C933 1.389 . S
C935 C936 1.524 . S
C936 C935 1.524 . S
C936 C937 1.397 . S
C936 C941 1.363 . S
C937 H908 0.950 . S
C937 C936 1.397 . S
C937 C938 1.334 . S
C938 H909 0.950 . S
C938 C937 1.334 . S
C938 C939 1.287 . S
C939 C938 1.287 . S
C939 C940 1.524 . S
C939 H942 0.999 . S
C940 H910 0.950 . S
C940 C939 1.524 . S
C940 C941 1.415 . S
C941 H911 0.950 . S
C941 C936 1.363 . S
C941 C940 1.415 . S
H942 C939 0.999 . S
H943 C924 0.913 . S
H944 C962 0.951 . S
H945 C964 0.951 . S
H946 C966 0.950 . S
H947 C967 0.950 . S
H948 C969 0.950 . S
H949 C972 0.950 . S
H950 C973 0.950 . S
H951 C975 0.950 . S
H952 C976 0.950 . S
H953 C977 0.951 . S
H954 C979 0.951 . S
H955 C981 0.950 . S
H956 C982 0.950 . S
H957 C984 0.950 . S
H958 C987 0.950 . S
H959 C988 0.950 . S
H960 C990 0.950 . S
H961 C991 0.950 . S
C962 H944 0.951 . S
C962 C963 1.366 . S
C962 C964 1.388 . S
C963 C962 1.366 . S
C963 C967 1.385 . S
C964 H945 0.951 . S
C964 C962 1.388 . S
C964 C965 1.366 . S
C965 C964 1.366 . S
C965 C966 1.414 . S
C965 C968 1.499 . S
C966 H946 0.950 . S
C966 C965 1.414 . S
C966 C967 1.374 . S
C967 H947 0.950 . S
C967 C963 1.385 . S
C967 C966 1.374 . S
C968 C965 1.499 . S
C968 C969 1.373 . S
C968 C970 1.389 . S
C969 H948 0.950 . S
C969 C968 1.373 . S
C969 C985 1.377 . S
C970 C968 1.389 . S
C970 C971 1.524 1_554 S
C970 C984 1.377 . S
C971 C970 1.524 1_556 S
C971 C972 1.397 . S
C971 C976 1.363 . S
C972 H949 0.950 . S
C972 C971 1.397 . S
C972 C973 1.334 . S
C973 H950 0.950 . S
C973 C972 1.334 . S
C973 C974 1.287 . S
C974 C973 1.287 . S
C974 C975 1.524 . S
C974 H993 0.913 . S
C975 H951 0.950 . S
C975 C974 1.524 . S
C975 C976 1.415 . S
C976 H952 0.950 . S
C976 C971 1.363 . S
C976 C975 1.415 . S
C977 H953 0.951 . S
C977 C978 1.366 . S
C977 C979 1.388 . S
C978 C977 1.366 . S
C978 C982 1.385 . S
C979 H954 0.951 . S
C979 C977 1.388 . S
C979 C980 1.366 . S
C980 C979 1.366 . S
C980 C981 1.414 . S
C980 C983 1.499 . S
C981 H955 0.950 . S
C981 C980 1.414 . S
C981 C982 1.374 . S
C982 H956 0.950 . S
C982 C978 1.385 . S
C982 C981 1.374 . S
C983 C980 1.499 . S
C983 C984 1.373 . S
C983 C985 1.389 . S
C984 H957 0.950 . S
C984 C970 1.377 . S
C984 C983 1.373 . S
C985 C969 1.377 . S
C985 C983 1.389 . S
C985 C986 1.524 . S
C986 C985 1.524 . S
C986 C987 1.397 . S
C986 C991 1.363 . S
C987 H958 0.950 . S
C987 C986 1.397 . S
C987 C988 1.334 . S
C988 H959 0.950 . S
C988 C987 1.334 . S
C988 C989 1.287 . S
C989 C988 1.287 . S
C989 C990 1.524 . S
C989 H992 0.999 . S
C990 H960 0.950 . S
C990 C989 1.524 . S
C990 C991 1.415 . S
C991 H961 0.950 . S
C991 C986 1.363 . S
C991 C990 1.415 . S
H992 C989 0.999 . S
H993 C974 0.913 . S
H994 C1012 0.951 . S
H995 C1014 0.951 . S
H996 C1016 0.950 . S
H997 C1017 0.950 . S
H998 C1019 0.950 . S
H999 C1022 0.950 . S
H1000 C1023 0.950 . S
H1001 C1025 0.950 . S
H1002 C1026 0.950 . S
H1003 C1027 0.951 . S
H1004 C1029 0.951 . S
H1005 C1031 0.950 . S
H1006 C1032 0.950 . S
H1007 C1034 0.950 . S
H1008 C1037 0.950 . S
H1009 C1038 0.950 . S
H1010 C1040 0.950 . S
H1011 C1041 0.950 1_554 S
C1012 H994 0.951 . S
C1012 C1013 1.366 . S
C1012 C1014 1.388 . S
C1013 C1012 1.366 . S
C1013 C1017 1.385 . S
C1014 H995 0.951 . S
C1014 C1012 1.388 . S
C1014 C1015 1.366 . S
C1015 C1014 1.366 . S
C1015 C1016 1.414 . S
C1015 C1018 1.499 . S
C1016 H996 0.950 . S
C1016 C1015 1.414 . S
C1016 C1017 1.374 . S
C1017 H997 0.950 . S
C1017 C1013 1.385 . S
C1017 C1016 1.374 . S
C1018 C1015 1.499 . S
C1018 C1019 1.373 . S
C1018 C1020 1.389 . S
C1019 H998 0.950 . S
C1019 C1018 1.373 . S
C1019 C1035 1.377 . S
C1020 C1018 1.389 . S
C1020 C1021 1.524 . S
C1020 C1034 1.377 . S
C1021 C1020 1.524 . S
C1021 C1022 1.397 . S
C1021 C1026 1.363 . S
C1022 H999 0.950 . S
C1022 C1021 1.397 . S
C1022 C1023 1.334 . S
C1023 H1000 0.950 . S
C1023 C1022 1.334 . S
C1023 C1024 1.287 . S
C1024 C1023 1.287 . S
C1024 C1025 1.524 . S
C1024 H1043 0.913 . S
C1025 H1001 0.950 . S
C1025 C1024 1.524 . S
C1025 C1026 1.415 . S
C1026 H1002 0.950 . S
C1026 C1021 1.363 . S
C1026 C1025 1.415 . S
C1027 H1003 0.951 . S
C1027 C1028 1.366 . S
C1027 C1029 1.388 . S
C1028 C1027 1.366 . S
C1028 C1032 1.385 . S
C1029 H1004 0.951 . S
C1029 C1027 1.388 . S
C1029 C1030 1.366 . S
C1030 C1029 1.366 . S
C1030 C1031 1.414 . S
C1030 C1033 1.499 . S
C1031 H1005 0.950 . S
C1031 C1030 1.414 . S
C1031 C1032 1.374 . S
C1032 H1006 0.950 . S
C1032 C1028 1.385 . S
C1032 C1031 1.374 . S
C1033 C1030 1.499 . S
C1033 C1034 1.373 . S
C1033 C1035 1.389 . S
C1034 H1007 0.950 . S
C1034 C1020 1.377 . S
C1034 C1033 1.373 . S
C1035 C1019 1.377 . S
C1035 C1033 1.389 . S
C1035 C1036 1.501 1_554 S
C1036 C1035 1.501 1_556 S
C1036 C1037 1.421 . S
C1036 C1041 1.364 . S
C1037 H1008 0.950 . S
C1037 C1036 1.421 . S
C1037 C1038 1.334 . S
C1038 H1009 0.950 . S
C1038 C1037 1.334 . S
C1038 C1039 1.287 . S
C1039 C1038 1.287 . S
C1039 C1040 1.524 . S
C1039 H1042 0.999 . S
C1040 H1010 0.950 . S
C1040 C1039 1.524 . S
C1040 C1041 1.415 . S
C1041 H1011 0.950 1_556 S
C1041 C1036 1.364 . S
C1041 C1040 1.415 . S
H1042 C1039 0.999 . S
H1043 C1024 0.913 . S
H1044 C1062 0.951 . S
H1045 C1064 0.951 . S
H1046 C1066 0.950 . S
H1047 C1067 0.950 . S
H1048 C1069 0.950 1_556 S
H1049 C1072 0.950 . S
H1050 C1073 0.950 . S
H1051 C1075 0.950 . S
H1052 C1076 0.950 . S
H1053 C1077 0.951 . S
H1054 C1079 0.951 . S
H1055 C1081 0.950 . S
H1056 C1082 0.950 . S
H1057 C1084 0.950 . S
H1058 C1087 0.950 . S
H1059 C1088 0.950 . S
H1060 C1090 0.950 . S
H1061 C1091 0.950 . S
C1062 H1044 0.951 . S
C1062 C1063 1.366 . S
C1062 C1064 1.388 . S
C1063 C1062 1.366 . S
C1063 C1067 1.385 . S
C1064 H1045 0.951 . S
C1064 C1062 1.388 . S
C1064 C1065 1.366 . S
C1065 C1064 1.366 . S
C1065 C1066 1.414 . S
C1065 C1068 1.499 . S
C1066 H1046 0.950 . S
C1066 C1065 1.414 . S
C1066 C1067 1.374 . S
C1067 H1047 0.950 . S
C1067 C1063 1.385 . S
C1067 C1066 1.374 . S
C1068 C1065 1.499 . S
C1068 C1069 1.373 . S
C1068 C1070 1.389 . S
C1069 H1048 0.950 1_554 S
C1069 C1068 1.373 . S
C1069 C1085 1.377 . S
C1070 C1068 1.389 . S
C1070 C1071 1.524 . S
C1070 C1084 1.377 . S
C1071 C1070 1.524 . S
C1071 C1072 1.397 . S
C1071 C1076 1.363 . S
C1072 H1049 0.950 . S
C1072 C1071 1.397 . S
C1072 C1073 1.334 . S
C1073 H1050 0.950 . S
C1073 C1072 1.334 . S
C1073 C1074 1.287 . S
C1074 C1073 1.287 . S
C1074 C1075 1.524 . S
C1074 H1093 0.913 . S
C1075 H1051 0.950 . S
C1075 C1074 1.524 . S
C1075 C1076 1.415 . S
C1076 H1052 0.950 . S
C1076 C1071 1.363 . S
C1076 C1075 1.415 . S
C1077 H1053 0.951 . S
C1077 C1078 1.366 . S
C1077 C1079 1.388 . S
C1078 C1077 1.366 . S
C1078 C1082 1.385 . S
C1079 H1054 0.951 . S
C1079 C1077 1.388 . S
C1079 C1080 1.366 . S
C1080 C1079 1.366 . S
C1080 C1081 1.414 . S
C1080 C1083 1.499 . S
C1081 H1055 0.950 . S
C1081 C1080 1.414 . S
C1081 C1082 1.374 . S
C1082 H1056 0.950 . S
C1082 C1078 1.385 . S
C1082 C1081 1.374 . S
C1083 C1080 1.499 . S
C1083 C1084 1.373 . S
C1083 C1085 1.389 . S
C1084 H1057 0.950 . S
C1084 C1070 1.377 . S
C1084 C1083 1.373 . S
C1085 C1069 1.377 . S
C1085 C1083 1.389 . S
C1085 C1086 1.524 1_554 S
C1086 C1085 1.524 1_556 S
C1086 C1087 1.397 . S
C1086 C1091 1.363 . S
C1087 H1058 0.950 . S
C1087 C1086 1.397 . S
C1087 C1088 1.334 . S
C1088 H1059 0.950 . S
C1088 C1087 1.334 . S
C1088 C1089 1.287 . S
C1089 C1088 1.287 . S
C1089 C1090 1.524 . S
C1089 H1092 0.999 . S
C1090 H1060 0.950 . S
C1090 C1089 1.524 . S
C1090 C1091 1.415 . S
C1091 H1061 0.950 . S
C1091 C1086 1.363 . S
C1091 C1090 1.415 . S
H1092 C1089 0.999 . S
H1093 C1074 0.913 . S
H1094 C1112 0.951 . S
H1095 C1114 0.951 . S
H1096 C1116 0.950 . S
H1097 C1117 0.950 . S
H1098 C1119 0.949 . S
H1099 C1122 0.950 . S
H1100 C1123 0.950 . S
H1101 C1125 0.950 . S
H1102 C1126 0.950 . S
H1103 C1127 0.951 . S
H1104 C1129 0.951 . S
H1105 C1131 0.950 . S
H1106 C1132 0.950 . S
H1107 C1134 0.950 . S
H1108 C1137 0.950 . S
H1109 C1138 0.950 . S
H1110 C1140 0.950 . S
H1111 C1141 0.950 . S
C1112 H1094 0.951 . S
C1112 C1113 1.366 . S
C1112 C1114 1.388 . S
C1113 C1112 1.366 . S
C1113 C1117 1.385 . S
C1114 H1095 0.951 . S
C1114 C1112 1.388 . S
C1114 C1115 1.366 . S
C1115 C1114 1.366 . S
C1115 C1116 1.414 . S
C1115 C1118 1.499 . S
C1116 H1096 0.950 . S
C1116 C1115 1.414 . S
C1116 C1117 1.374 . S
C1117 H1097 0.950 . S
C1117 C1113 1.385 . S
C1117 C1116 1.374 . S
C1118 C1115 1.499 . S
C1118 C1119 1.373 . S
C1118 C1120 1.389 . S
C1119 H1098 0.949 . S
C1119 C1118 1.373 . S
C1119 C1135 1.377 . S
C1120 C1118 1.389 . S
C1120 C1121 1.524 . S
C1120 C1134 1.377 . S
C1121 C1120 1.524 . S
C1121 C1122 1.397 . S
C1121 C1126 1.363 . S
C1122 H1099 0.950 . S
C1122 C1121 1.397 . S
C1122 C1123 1.334 . S
C1123 H1100 0.950 . S
C1123 C1122 1.334 . S
C1123 C1124 1.287 . S
C1124 C1123 1.287 . S
C1124 C1125 1.524 . S
C1124 H1143 0.913 . S
C1125 H1101 0.950 . S
C1125 C1124 1.524 . S
C1125 C1126 1.415 . S
C1126 H1102 0.950 . S
C1126 C1121 1.363 . S
C1126 C1125 1.415 . S
C1127 H1103 0.951 . S
C1127 C1128 1.366 . S
C1127 C1129 1.388 . S
C1128 C1127 1.366 . S
C1128 C1132 1.385 . S
C1129 H1104 0.951 . S
C1129 C1127 1.388 . S
C1129 C1130 1.366 . S
C1130 C1129 1.366 . S
C1130 C1131 1.414 . S
C1130 C1133 1.499 . S
C1131 H1105 0.950 . S
C1131 C1130 1.414 . S
C1131 C1132 1.374 . S
C1132 H1106 0.950 . S
C1132 C1128 1.385 . S
C1132 C1131 1.374 . S
C1133 C1130 1.499 . S
C1133 C1134 1.373 . S
C1133 C1135 1.389 . S
C1134 H1107 0.950 . S
C1134 C1120 1.377 . S
C1134 C1133 1.373 . S
C1135 C1119 1.377 . S
C1135 C1133 1.389 . S
C1135 C1136 1.524 1_554 S
C1136 C1135 1.524 1_556 S
C1136 C1137 1.397 . S
C1136 C1141 1.363 . S
C1137 H1108 0.950 . S
C1137 C1136 1.397 . S
C1137 C1138 1.334 . S
C1138 H1109 0.950 . S
C1138 C1137 1.334 . S
C1138 C1139 1.287 . S
C1139 C1138 1.287 . S
C1139 C1140 1.524 . S
C1139 H1142 0.999 . S
C1140 H1110 0.950 . S
C1140 C1139 1.524 . S
C1140 C1141 1.415 . S
C1141 H1111 0.950 . S
C1141 C1136 1.363 . S
C1141 C1140 1.415 . S
H1142 C1139 0.999 . S
H1143 C1124 0.913 . S
H1144 C1162 0.951 . S
H1145 C1164 0.951 . S
H1146 C1166 0.950 . S
H1147 C1167 0.950 . S
H1148 C1169 0.950 . S
H1149 C1172 0.950 . S
H1150 C1173 0.950 . S
H1151 C1175 0.950 . S
H1152 C1176 0.950 . S
H1153 C1177 0.951 . S
H1154 C1179 0.951 . S
H1155 C1181 0.950 . S
H1156 C1182 0.950 . S
H1157 C1184 0.950 . S
H1158 C1187 0.950 . S
H1159 C1188 0.950 . S
H1160 C1190 0.950 . S
H1161 C1191 0.950 . S
C1162 H1144 0.951 . S
C1162 C1163 1.366 . S
C1162 C1164 1.388 . S
C1163 C1162 1.366 . S
C1163 C1167 1.385 . S
C1164 H1145 0.951 . S
C1164 C1162 1.388 . S
C1164 C1165 1.366 . S
C1165 C1164 1.366 . S
C1165 C1166 1.414 . S
C1165 C1168 1.499 . S
C1166 H1146 0.950 . S
C1166 C1165 1.414 . S
C1166 C1167 1.374 . S
C1167 H1147 0.950 . S
C1167 C1163 1.385 . S
C1167 C1166 1.374 . S
C1168 C1165 1.499 . S
C1168 C1169 1.373 . S
C1168 C1170 1.389 . S
C1169 H1148 0.950 . S
C1169 C1168 1.373 . S
C1169 C1185 1.377 . S
C1170 C1168 1.389 . S
C1170 C1171 1.524 . S
C1170 C1184 1.377 . S
C1171 C1170 1.524 . S
C1171 C1172 1.397 . S
C1171 C1176 1.363 . S
C1172 H1149 0.950 . S
C1172 C1171 1.397 . S
C1172 C1173 1.334 . S
C1173 H1150 0.950 . S
C1173 C1172 1.334 . S
C1173 C1174 1.287 . S
C1174 C1173 1.287 . S
C1174 C1175 1.524 . S
C1174 H1193 0.913 . S
C1175 H1151 0.950 . S
C1175 C1174 1.524 . S
C1175 C1176 1.415 . S
C1176 H1152 0.950 . S
C1176 C1171 1.363 . S
C1176 C1175 1.415 . S
C1177 H1153 0.951 . S
C1177 C1178 1.366 . S
C1177 C1179 1.388 . S
C1178 C1177 1.366 . S
C1178 C1182 1.385 . S
C1179 H1154 0.951 . S
C1179 C1177 1.388 . S
C1179 C1180 1.366 . S
C1180 C1179 1.366 . S
C1180 C1181 1.414 . S
C1180 C1183 1.499 . S
C1181 H1155 0.950 . S
C1181 C1180 1.414 . S
C1181 C1182 1.374 . S
C1182 H1156 0.950 . S
C1182 C1178 1.385 . S
C1182 C1181 1.374 . S
C1183 C1180 1.499 . S
C1183 C1184 1.373 . S
C1183 C1185 1.389 . S
C1184 H1157 0.950 . S
C1184 C1170 1.377 . S
C1184 C1183 1.373 . S
C1185 C1169 1.377 . S
C1185 C1183 1.389 . S
C1185 C1186 1.524 . S
C1186 C1185 1.524 . S
C1186 C1187 1.397 . S
C1186 C1191 1.363 . S
C1187 H1158 0.950 . S
C1187 C1186 1.397 . S
C1187 C1188 1.334 . S
C1188 H1159 0.950 . S
C1188 C1187 1.334 . S
C1188 C1189 1.287 . S
C1189 C1188 1.287 . S
C1189 C1190 1.524 . S
C1189 H1192 0.999 . S
C1190 H1160 0.950 . S
C1190 C1189 1.524 . S
C1190 C1191 1.415 . S
C1191 H1161 0.950 . S
C1191 C1186 1.363 . S
C1191 C1190 1.415 . S
H1192 C1189 0.999 . S
H1193 C1174 0.913 . S
H1194 C1212 0.951 . S
H1195 C1214 0.951 . S
H1196 C1216 0.950 . S
H1197 C1217 0.950 . S
H1198 C1219 0.950 . S
H1199 C1222 0.950 . S
H1200 C1223 0.950 . S
H1201 C1225 0.950 . S
H1202 C1226 0.950 . S
H1203 C1227 0.951 . S
H1204 C1229 0.951 . S
H1205 C1231 0.950 . S
H1206 C1232 0.950 . S
H1207 C1234 0.950 . S
H1208 C1237 0.950 . S
H1209 C1238 0.950 . S
H1210 C1240 0.950 . S
H1211 C1241 0.950 . S
C1212 H1194 0.951 . S
C1212 C1213 1.366 . S
C1212 C1214 1.388 . S
C1213 C1212 1.366 . S
C1213 C1217 1.385 . S
C1214 H1195 0.951 . S
C1214 C1212 1.388 . S
C1214 C1215 1.366 . S
C1215 C1214 1.366 . S
C1215 C1216 1.414 . S
C1215 C1218 1.499 . S
C1216 H1196 0.950 . S
C1216 C1215 1.414 . S
C1216 C1217 1.374 . S
C1217 H1197 0.950 . S
C1217 C1213 1.385 . S
C1217 C1216 1.374 . S
C1218 C1215 1.499 . S
C1218 C1219 1.373 . S
C1218 C1220 1.389 . S
C1219 H1198 0.950 . S
C1219 C1218 1.373 . S
C1219 C1235 1.377 . S
C1220 C1218 1.389 . S
C1220 C1221 1.524 . S
C1220 C1234 1.377 . S
C1221 C1220 1.524 . S
C1221 C1222 1.397 . S
C1221 C1226 1.363 . S
C1222 H1199 0.950 . S
C1222 C1221 1.397 . S
C1222 C1223 1.334 . S
C1223 H1200 0.950 . S
C1223 C1222 1.334 . S
C1223 C1224 1.287 . S
C1224 C1223 1.287 . S
C1224 C1225 1.524 . S
C1224 H1243 0.913 . S
C1225 H1201 0.950 . S
C1225 C1224 1.524 . S
C1225 C1226 1.415 . S
C1226 H1202 0.950 . S
C1226 C1221 1.363 . S
C1226 C1225 1.415 . S
C1227 H1203 0.951 . S
C1227 C1228 1.366 . S
C1227 C1229 1.388 . S
C1228 C1227 1.366 . S
C1228 C1232 1.385 . S
C1229 H1204 0.951 . S
C1229 C1227 1.388 . S
C1229 C1230 1.366 . S
C1230 C1229 1.366 . S
C1230 C1231 1.414 . S
C1230 C1233 1.499 . S
C1231 H1205 0.950 . S
C1231 C1230 1.414 . S
C1231 C1232 1.374 . S
C1232 H1206 0.950 . S
C1232 C1228 1.385 . S
C1232 C1231 1.374 . S
C1233 C1230 1.499 . S
C1233 C1234 1.373 . S
C1233 C1235 1.389 . S
C1234 H1207 0.950 . S
C1234 C1220 1.377 . S
C1234 C1233 1.373 . S
C1235 C1219 1.377 . S
C1235 C1233 1.389 . S
C1235 C1236 1.524 . S
C1236 C1235 1.524 . S
C1236 C1237 1.397 . S
C1236 C1241 1.363 . S
C1237 H1208 0.950 . S
C1237 C1236 1.397 . S
C1237 C1238 1.334 . S
C1238 H1209 0.950 . S
C1238 C1237 1.334 . S
C1238 C1239 1.287 . S
C1239 C1238 1.287 . S
C1239 C1240 1.524 . S
C1239 H1242 0.999 . S
C1240 H1210 0.950 . S
C1240 C1239 1.524 . S
C1240 C1241 1.415 . S
C1241 H1211 0.950 . S
C1241 C1236 1.363 . S
C1241 C1240 1.415 . S
H1242 C1239 0.999 . S
H1243 C1224 0.913 . S
H1244 C1262 0.951 . S
H1245 C1264 0.951 . S
H1246 C1266 0.950 . S
H1247 C1267 0.950 . S
H1248 C1269 0.950 . S
H1249 C1272 0.950 . S
H1250 C1273 0.950 . S
H1251 C1275 0.950 . S
H1252 C1276 0.950 . S
H1253 C1277 0.951 . S
H1254 C1279 0.951 . S
H1255 C1281 0.950 . S
H1256 C1282 0.950 . S
H1257 C1284 0.950 . S
H1258 C1287 0.950 . S
H1259 C1288 0.950 . S
H1260 C1290 0.950 . S
H1261 C1291 0.950 . S
C1262 H1244 0.951 . S
C1262 C1263 1.366 . S
C1262 C1264 1.388 . S
C1263 C1262 1.366 . S
C1263 C1267 1.385 . S
C1264 H1245 0.951 . S
C1264 C1262 1.388 . S
C1264 C1265 1.366 . S
C1265 C1264 1.366 . S
C1265 C1266 1.414 . S
C1265 C1268 1.499 . S
C1266 H1246 0.950 . S
C1266 C1265 1.414 . S
C1266 C1267 1.374 . S
C1267 H1247 0.950 . S
C1267 C1263 1.385 . S
C1267 C1266 1.374 . S
C1268 C1265 1.499 . S
C1268 C1269 1.373 . S
C1268 C1270 1.389 . S
C1269 H1248 0.950 . S
C1269 C1268 1.373 . S
C1269 C1285 1.377 . S
C1270 C1268 1.389 . S
C1270 C1271 1.524 . S
C1270 C1284 1.377 . S
C1271 C1270 1.524 . S
C1271 C1272 1.397 . S
C1271 C1276 1.363 . S
C1272 H1249 0.950 . S
C1272 C1271 1.397 . S
C1272 C1273 1.334 . S
C1273 H1250 0.950 . S
C1273 C1272 1.334 . S
C1273 C1274 1.287 . S
C1274 C1273 1.287 . S
C1274 C1275 1.524 . S
C1274 H1293 0.913 . S
C1275 H1251 0.950 . S
C1275 C1274 1.524 . S
C1275 C1276 1.415 . S
C1276 H1252 0.950 . S
C1276 C1271 1.363 . S
C1276 C1275 1.415 . S
C1277 H1253 0.951 . S
C1277 C1278 1.366 . S
C1277 C1279 1.388 . S
C1278 C1277 1.366 . S
C1278 C1282 1.385 . S
C1279 H1254 0.951 . S
C1279 C1277 1.388 . S
C1279 C1280 1.366 . S
C1280 C1279 1.366 . S
C1280 C1281 1.414 . S
C1280 C1283 1.499 . S
C1281 H1255 0.950 . S
C1281 C1280 1.414 . S
C1281 C1282 1.374 . S
C1282 H1256 0.950 . S
C1282 C1278 1.385 . S
C1282 C1281 1.374 . S
C1283 C1280 1.499 . S
C1283 C1284 1.373 . S
C1283 C1285 1.389 . S
C1284 H1257 0.950 . S
C1284 C1270 1.377 . S
C1284 C1283 1.373 . S
C1285 C1269 1.377 . S
C1285 C1283 1.389 . S
C1285 C1286 1.524 . S
C1286 C1285 1.524 . S
C1286 C1287 1.397 . S
C1286 C1291 1.363 . S
C1287 H1258 0.950 . S
C1287 C1286 1.397 . S
C1287 C1288 1.334 . S
C1288 H1259 0.950 . S
C1288 C1287 1.334 . S
C1288 C1289 1.287 . S
C1289 C1288 1.287 . S
C1289 C1290 1.524 . S
C1289 H1292 0.999 . S
C1290 H1260 0.950 . S
C1290 C1289 1.524 . S
C1290 C1291 1.415 . S
C1291 H1261 0.950 . S
C1291 C1286 1.363 . S
C1291 C1290 1.415 . S
H1292 C1289 0.999 . S
H1293 C1274 0.913 . S
H1294 C1312 0.951 . S
H1295 C1314 0.951 . S
H1296 C1316 0.950 . S
H1297 C1317 0.950 . S
H1298 C1319 0.950 . S
H1299 C1322 0.950 . S
H1300 C1323 0.950 . S
H1301 C1325 0.950 . S
H1302 C1326 0.950 . S
H1303 C1327 0.951 . S
H1304 C1329 0.951 . S
H1305 C1331 0.950 . S
H1306 C1332 0.950 . S
H1307 C1334 0.950 . S
H1308 C1337 0.950 . S
H1309 C1338 0.950 . S
H1310 C1340 0.950 . S
H1311 C1341 0.950 . S
C1312 H1294 0.951 . S
C1312 C1313 1.366 . S
C1312 C1314 1.388 . S
C1313 C1312 1.366 . S
C1313 C1317 1.385 . S
C1314 H1295 0.951 . S
C1314 C1312 1.388 . S
C1314 C1315 1.366 . S
C1315 C1314 1.366 . S
C1315 C1316 1.414 . S
C1315 C1318 1.499 . S
C1316 H1296 0.950 . S
C1316 C1315 1.414 . S
C1316 C1317 1.374 . S
C1317 H1297 0.950 . S
C1317 C1313 1.385 . S
C1317 C1316 1.374 . S
C1318 C1315 1.499 . S
C1318 C1319 1.373 . S
C1318 C1320 1.389 . S
C1319 H1298 0.950 . S
C1319 C1318 1.373 . S
C1319 C1335 1.377 . S
C1320 C1318 1.389 . S
C1320 C1321 1.524 . S
C1320 C1334 1.377 . S
C1321 C1320 1.524 . S
C1321 C1322 1.397 . S
C1321 C1326 1.363 . S
C1322 H1299 0.950 . S
C1322 C1321 1.397 . S
C1322 C1323 1.334 . S
C1323 H1300 0.950 . S
C1323 C1322 1.334 . S
C1323 C1324 1.287 . S
C1324 C1323 1.287 . S
C1324 C1325 1.524 . S
C1324 H1343 0.913 . S
C1325 H1301 0.950 . S
C1325 C1324 1.524 . S
C1325 C1326 1.415 . S
C1326 H1302 0.950 . S
C1326 C1321 1.363 . S
C1326 C1325 1.415 . S
C1327 H1303 0.951 . S
C1327 C1328 1.366 . S
C1327 C1329 1.388 . S
C1328 C1327 1.366 . S
C1328 C1332 1.385 . S
C1329 H1304 0.951 . S
C1329 C1327 1.388 . S
C1329 C1330 1.366 . S
C1330 C1329 1.366 . S
C1330 C1331 1.414 . S
C1330 C1333 1.499 . S
C1331 H1305 0.950 . S
C1331 C1330 1.414 . S
C1331 C1332 1.374 . S
C1332 H1306 0.950 . S
C1332 C1328 1.385 . S
C1332 C1331 1.374 . S
C1333 C1330 1.499 . S
C1333 C1334 1.373 . S
C1333 C1335 1.389 . S
C1334 H1307 0.950 . S
C1334 C1320 1.377 . S
C1334 C1333 1.373 . S
C1335 C1319 1.377 . S
C1335 C1333 1.389 . S
C1335 C1336 1.524 . S
C1336 C1335 1.524 . S
C1336 C1337 1.397 . S
C1336 C1341 1.363 . S
C1337 H1308 0.950 . S
C1337 C1336 1.397 . S
C1337 C1338 1.334 . S
C1338 H1309 0.950 . S
C1338 C1337 1.334 . S
C1338 C1339 1.287 . S
C1339 C1338 1.287 . S
C1339 C1340 1.524 . S
C1339 H1342 0.999 . S
C1340 H1310 0.950 . S
C1340 C1339 1.524 . S
C1340 C1341 1.415 . S
C1341 H1311 0.950 . S
C1341 C1336 1.363 . S
C1341 C1340 1.415 . S
H1342 C1339 0.999 . S
H1343 C1324 0.913 . S
H1344 C1362 0.951 . S
H1345 C1364 0.951 . S
H1346 C1366 0.950 . S
H1347 C1367 0.950 . S
H1348 C1369 0.950 . S
H1349 C1372 0.950 . S
H1350 C1373 0.950 . S
H1351 C1375 0.950 . S
H1352 C1376 0.950 . S
H1353 C1377 0.951 . S
H1354 C1379 0.951 . S
H1355 C1381 0.950 . S
H1356 C1382 0.950 . S
H1357 C1384 0.950 . S
H1358 C1387 0.950 . S
H1359 C1388 0.950 . S
H1360 C1390 0.950 . S
H1361 C1391 0.950 . S
C1362 H1344 0.951 . S
C1362 C1363 1.366 . S
C1362 C1364 1.388 . S
C1363 C1362 1.366 . S
C1363 C1367 1.385 . S
C1364 H1345 0.951 . S
C1364 C1362 1.388 . S
C1364 C1365 1.366 . S
C1365 C1364 1.366 . S
C1365 C1366 1.414 . S
C1365 C1368 1.499 . S
C1366 H1346 0.950 . S
C1366 C1365 1.414 . S
C1366 C1367 1.374 . S
C1367 H1347 0.950 . S
C1367 C1363 1.385 . S
C1367 C1366 1.374 . S
C1368 C1365 1.499 . S
C1368 C1369 1.373 . S
C1368 C1370 1.389 . S
C1369 H1348 0.950 . S
C1369 C1368 1.373 . S
C1369 C1385 1.377 . S
C1370 C1368 1.389 . S
C1370 C1371 1.524 . S
C1370 C1384 1.377 . S
C1371 C1370 1.524 . S
C1371 C1372 1.397 . S
C1371 C1376 1.363 . S
C1372 H1349 0.950 . S
C1372 C1371 1.397 . S
C1372 C1373 1.334 . S
C1373 H1350 0.950 . S
C1373 C1372 1.334 . S
C1373 C1374 1.287 . S
C1374 C1373 1.287 . S
C1374 C1375 1.524 . S
C1374 H1393 0.913 . S
C1375 H1351 0.950 . S
C1375 C1374 1.524 . S
C1375 C1376 1.415 . S
C1376 H1352 0.950 . S
C1376 C1371 1.363 . S
C1376 C1375 1.415 . S
C1377 H1353 0.951 . S
C1377 C1378 1.366 . S
C1377 C1379 1.388 . S
C1378 C1377 1.366 . S
C1378 C1382 1.385 . S
C1379 H1354 0.951 . S
C1379 C1377 1.388 . S
C1379 C1380 1.366 . S
C1380 C1379 1.366 . S
C1380 C1381 1.414 . S
C1380 C1383 1.499 . S
C1381 H1355 0.950 . S
C1381 C1380 1.414 . S
C1381 C1382 1.374 . S
C1382 H1356 0.950 . S
C1382 C1378 1.385 . S
C1382 C1381 1.374 . S
C1383 C1380 1.499 . S
C1383 C1384 1.373 . S
C1383 C1385 1.389 . S
C1384 H1357 0.950 . S
C1384 C1370 1.377 . S
C1384 C1383 1.373 . S
C1385 C1369 1.377 . S
C1385 C1383 1.389 . S
C1385 C1386 1.524 . S
C1386 C1385 1.524 . S
C1386 C1387 1.397 . S
C1386 C1391 1.363 . S
C1387 H1358 0.950 . S
C1387 C1386 1.397 . S
C1387 C1388 1.334 . S
C1388 H1359 0.950 . S
C1388 C1387 1.334 . S
C1388 C1389 1.287 . S
C1389 C1388 1.287 . S
C1389 C1390 1.524 . S
C1389 H1392 0.999 . S
C1390 H1360 0.950 . S
C1390 C1389 1.524 . S
C1390 C1391 1.415 . S
C1391 H1361 0.950 . S
C1391 C1386 1.363 . S
C1391 C1390 1.415 . S
H1392 C1389 0.999 . S
H1393 C1374 0.913 . S
H1394 C1412 0.951 . S
H1395 C1414 0.951 . S
H1396 C1416 0.950 . S
H1397 C1417 0.950 . S
H1398 C1419 0.950 . S
H1399 C1422 0.950 . S
H1400 C1423 0.950 . S
H1401 C1425 0.950 . S
H1402 C1426 0.950 . S
H1403 C1427 0.951 . S
H1404 C1429 0.951 . S
H1405 C1431 0.950 . S
H1406 C1432 0.950 . S
H1407 C1434 0.950 . S
H1408 C1437 0.950 . S
H1409 C1438 0.950 . S
H1410 C1440 0.950 . S
H1411 C1441 0.950 . S
C1412 H1394 0.951 . S
C1412 C1413 1.366 . S
C1412 C1414 1.388 . S
C1413 C1412 1.366 . S
C1413 C1417 1.385 . S
C1414 H1395 0.951 . S
C1414 C1412 1.388 . S
C1414 C1415 1.366 . S
C1415 C1414 1.366 . S
C1415 C1416 1.414 . S
C1415 C1418 1.499 . S
C1416 H1396 0.950 . S
C1416 C1415 1.414 . S
C1416 C1417 1.374 . S
C1417 H1397 0.950 . S
C1417 C1413 1.385 . S
C1417 C1416 1.374 . S
C1418 C1415 1.499 . S
C1418 C1419 1.373 . S
C1418 C1420 1.389 . S
C1419 H1398 0.950 . S
C1419 C1418 1.373 . S
C1419 C1435 1.377 . S
C1420 C1418 1.389 . S
C1420 C1421 1.524 . S
C1420 C1434 1.377 . S
C1421 C1420 1.524 . S
C1421 C1422 1.397 . S
C1421 C1426 1.363 . S
C1422 H1399 0.950 . S
C1422 C1421 1.397 . S
C1422 C1423 1.334 . S
C1423 H1400 0.950 . S
C1423 C1422 1.334 . S
C1423 C1424 1.287 . S
C1424 C1423 1.287 . S
C1424 C1425 1.524 . S
C1424 H1443 0.913 . S
C1425 H1401 0.950 . S
C1425 C1424 1.524 . S
C1425 C1426 1.415 . S
C1426 H1402 0.950 . S
C1426 C1421 1.363 . S
C1426 C1425 1.415 . S
C1427 H1403 0.951 . S
C1427 C1428 1.366 . S
C1427 C1429 1.388 . S
C1428 C1427 1.366 . S
C1428 C1432 1.385 . S
C1429 H1404 0.951 . S
C1429 C1427 1.388 . S
C1429 C1430 1.366 . S
C1430 C1429 1.366 . S
C1430 C1431 1.414 . S
C1430 C1433 1.499 . S
C1431 H1405 0.950 . S
C1431 C1430 1.414 . S
C1431 C1432 1.374 . S
C1432 H1406 0.950 . S
C1432 C1428 1.385 . S
C1432 C1431 1.374 . S
C1433 C1430 1.499 . S
C1433 C1434 1.373 . S
C1433 C1435 1.389 . S
C1434 H1407 0.950 . S
C1434 C1420 1.377 . S
C1434 C1433 1.373 . S
C1435 C1419 1.377 . S
C1435 C1433 1.389 . S
C1435 C1436 1.524 . S
C1436 C1435 1.524 . S
C1436 C1437 1.397 . S
C1436 C1441 1.363 . S
C1437 H1408 0.950 . S
C1437 C1436 1.397 . S
C1437 C1438 1.334 . S
C1438 H1409 0.950 . S
C1438 C1437 1.334 . S
C1438 C1439 1.287 . S
C1439 C1438 1.287 . S
C1439 C1440 1.524 . S
C1439 H1442 0.999 . S
C1440 H1410 0.950 . S
C1440 C1439 1.524 . S
C1440 C1441 1.415 . S
C1441 H1411 0.950 . S
C1441 C1436 1.363 . S
C1441 C1440 1.415 . S
H1442 C1439 0.999 . S
H1443 C1424 0.913 . S
H1444 C1462 0.951 . S
H1445 C1464 0.951 . S
H1446 C1466 0.950 . S
H1447 C1467 0.950 . S
H1448 C1469 0.950 . S
H1449 C1472 0.950 . S
H1450 C1473 0.950 . S
H1451 C1475 0.950 . S
H1452 C1476 0.950 . S
H1453 C1477 0.951 . S
H1454 C1479 0.951 . S
H1455 C1481 0.950 . S
H1456 C1482 0.950 . S
H1457 C1484 0.950 . S
H1458 C1487 0.950 . S
H1459 C1488 0.950 . S
H1460 C1490 0.950 . S
H1461 C1491 0.950 . S
C1462 H1444 0.951 . S
C1462 C1463 1.366 . S
C1462 C1464 1.388 . S
C1463 C1462 1.366 . S
C1463 C1467 1.385 . S
C1464 H1445 0.951 . S
C1464 C1462 1.388 . S
C1464 C1465 1.366 . S
C1465 C1464 1.366 . S
C1465 C1466 1.414 . S
C1465 C1468 1.499 . S
C1466 H1446 0.950 . S
C1466 C1465 1.414 . S
C1466 C1467 1.374 . S
C1467 H1447 0.950 . S
C1467 C1463 1.385 . S
C1467 C1466 1.374 . S
C1468 C1465 1.499 . S
C1468 C1469 1.373 . S
C1468 C1470 1.389 . S
C1469 H1448 0.950 . S
C1469 C1468 1.373 . S
C1469 C1485 1.377 . S
C1470 C1468 1.389 . S
C1470 C1471 1.524 . S
C1470 C1484 1.377 . S
C1471 C1470 1.524 . S
C1471 C1472 1.397 . S
C1471 C1476 1.363 . S
C1472 H1449 0.950 . S
C1472 C1471 1.397 . S
C1472 C1473 1.334 . S
C1473 H1450 0.950 . S
C1473 C1472 1.334 . S
C1473 C1474 1.287 . S
C1474 C1473 1.287 . S
C1474 C1475 1.524 . S
C1474 H1493 0.913 . S
C1475 H1451 0.950 . S
C1475 C1474 1.524 . S
C1475 C1476 1.415 . S
C1476 H1452 0.950 . S
C1476 C1471 1.363 . S
C1476 C1475 1.415 . S
C1477 H1453 0.951 . S
C1477 C1478 1.366 . S
C1477 C1479 1.388 . S
C1478 C1477 1.366 . S
C1478 C1482 1.385 . S
C1479 H1454 0.951 . S
C1479 C1477 1.388 . S
C1479 C1480 1.366 . S
C1480 C1479 1.366 . S
C1480 C1481 1.414 . S
C1480 C1483 1.499 . S
C1481 H1455 0.950 . S
C1481 C1480 1.414 . S
C1481 C1482 1.374 . S
C1482 H1456 0.950 . S
C1482 C1478 1.385 . S
C1482 C1481 1.374 . S
C1483 C1480 1.499 . S
C1483 C1484 1.373 . S
C1483 C1485 1.389 . S
C1484 H1457 0.950 . S
C1484 C1470 1.377 . S
C1484 C1483 1.373 . S
C1485 C1469 1.377 . S
C1485 C1483 1.389 . S
C1485 C1486 1.524 . S
C1486 C1485 1.524 . S
C1486 C1487 1.397 . S
C1486 C1491 1.363 . S
C1487 H1458 0.950 . S
C1487 C1486 1.397 . S
C1487 C1488 1.334 . S
C1488 H1459 0.950 . S
C1488 C1487 1.334 . S
C1488 C1489 1.287 . S
C1489 C1488 1.287 . S
C1489 C1490 1.524 . S
C1489 H1492 0.999 . S
C1490 H1460 0.950 . S
C1490 C1489 1.524 . S
C1490 C1491 1.415 . S
C1491 H1461 0.950 . S
C1491 C1486 1.363 . S
C1491 C1490 1.415 . S
H1492 C1489 0.999 . S
H1493 C1474 0.913 . S
H1494 C1512 0.951 . S
H1495 C1514 0.951 . S
H1496 C1516 0.950 . S
H1497 C1517 0.950 . S
H1498 C1519 0.950 . S
H1499 C1522 0.950 . S
H1500 C1523 0.950 . S
H1501 C1525 0.950 . S
H1502 C1526 0.950 . S
H1503 C1527 0.951 . S
H1504 C1529 0.951 . S
H1505 C1531 0.950 . S
H1506 C1532 0.950 . S
H1507 C1534 0.950 . S
H1508 C1537 0.950 . S
H1509 C1538 0.950 . S
H1510 C1540 0.950 . S
H1511 C1541 0.950 . S
C1512 H1494 0.951 . S
C1512 C1513 1.366 . S
C1512 C1514 1.388 . S
C1513 C1512 1.366 . S
C1513 C1517 1.385 . S
C1514 H1495 0.951 . S
C1514 C1512 1.388 . S
C1514 C1515 1.366 . S
C1515 C1514 1.366 . S
C1515 C1516 1.414 . S
C1515 C1518 1.499 . S
C1516 H1496 0.950 . S
C1516 C1515 1.414 . S
C1516 C1517 1.374 . S
C1517 H1497 0.950 . S
C1517 C1513 1.385 . S
C1517 C1516 1.374 . S
C1518 C1515 1.499 . S
C1518 C1519 1.373 . S
C1518 C1520 1.389 . S
C1519 H1498 0.950 . S
C1519 C1518 1.373 . S
C1519 C1535 1.377 . S
C1520 C1518 1.389 . S
C1520 C1521 1.524 . S
C1520 C1534 1.377 . S
C1521 C1520 1.524 . S
C1521 C1522 1.397 . S
C1521 C1526 1.363 . S
C1522 H1499 0.950 . S
C1522 C1521 1.397 . S
C1522 C1523 1.334 . S
C1523 H1500 0.950 . S
C1523 C1522 1.334 . S
C1523 C1524 1.287 . S
C1524 C1523 1.287 . S
C1524 C1525 1.524 . S
C1524 H1543 0.913 . S
C1525 H1501 0.950 . S
C1525 C1524 1.524 . S
C1525 C1526 1.415 . S
C1526 H1502 0.950 . S
C1526 C1521 1.363 . S
C1526 C1525 1.415 . S
C1527 H1503 0.951 . S
C1527 C1528 1.366 . S
C1527 C1529 1.388 . S
C1528 C1527 1.366 . S
C1528 C1532 1.385 . S
C1529 H1504 0.951 . S
C1529 C1527 1.388 . S
C1529 C1530 1.366 . S
C1530 C1529 1.366 . S
C1530 C1531 1.414 . S
C1530 C1533 1.499 . S
C1531 H1505 0.950 . S
C1531 C1530 1.414 . S
C1531 C1532 1.374 . S
C1532 H1506 0.950 . S
C1532 C1528 1.385 . S
C1532 C1531 1.374 . S
C1533 C1530 1.499 . S
C1533 C1534 1.373 . S
C1533 C1535 1.389 . S
C1534 H1507 0.950 . S
C1534 C1520 1.377 . S
C1534 C1533 1.373 . S
C1535 C1519 1.377 . S
C1535 C1533 1.389 . S
C1535 C1536 1.524 . S
C1536 C1535 1.524 . S
C1536 C1537 1.397 . S
C1536 C1541 1.363 . S
C1537 H1508 0.950 . S
C1537 C1536 1.397 . S
C1537 C1538 1.334 . S
C1538 H1509 0.950 . S
C1538 C1537 1.334 . S
C1538 C1539 1.287 . S
C1539 C1538 1.287 . S
C1539 C1540 1.524 . S
C1539 H1542 0.999 . S
C1540 H1510 0.950 . S
C1540 C1539 1.524 . S
C1540 C1541 1.415 . S
C1541 H1511 0.950 . S
C1541 C1536 1.363 . S
C1541 C1540 1.415 . S
H1542 C1539 0.999 . S
H1543 C1524 0.913 . S
H1544 C1562 0.951 . S
H1545 C1564 0.951 . S
H1546 C1566 0.950 . S
H1547 C1567 0.950 . S
H1548 C1569 0.950 . S
H1549 C1572 0.950 . S
H1550 C1573 0.950 . S
H1551 C1575 0.950 . S
H1552 C1576 0.950 . S
H1553 C1577 0.951 . S
H1554 C1579 0.951 . S
H1555 C1581 0.950 . S
H1556 C1582 0.950 . S
H1557 C1584 0.950 . S
H1558 C1587 0.950 . S
H1559 C1588 0.950 . S
H1560 C1590 0.950 . S
H1561 C1591 0.950 . S
C1562 H1544 0.951 . S
C1562 C1563 1.366 1_556 S
C1562 C1564 1.388 . S
C1563 C1562 1.366 1_554 S
C1563 C1567 1.385 . S
C1564 H1545 0.951 . S
C1564 C1562 1.388 . S
C1564 C1565 1.366 1_556 S
C1565 C1564 1.366 1_554 S
C1565 C1566 1.414 . S
C1565 C1568 1.499 . S
C1566 H1546 0.950 . S
C1566 C1565 1.414 . S
C1566 C1567 1.374 . S
C1567 H1547 0.950 . S
C1567 C1563 1.385 . S
C1567 C1566 1.374 . S
C1568 C1565 1.499 . S
C1568 C1569 1.373 . S
C1568 C1570 1.389 1_554 S
C1569 H1548 0.950 . S
C1569 C1568 1.373 . S
C1569 C1585 1.377 . S
C1570 C1568 1.389 1_556 S
C1570 C1571 1.524 . S
C1570 C1584 1.377 . S
C1571 C1570 1.524 . S
C1571 C1572 1.397 . S
C1571 C1576 1.363 . S
C1572 H1549 0.950 . S
C1572 C1571 1.397 . S
C1572 C1573 1.334 . S
C1573 H1550 0.950 . S
C1573 C1572 1.334 . S
C1573 C1574 1.287 . S
C1574 C1573 1.287 . S
C1574 C1575 1.524 . S
C1574 H1593 0.913 . S
C1575 H1551 0.950 . S
C1575 C1574 1.524 . S
C1575 C1576 1.415 . S
C1576 H1552 0.950 . S
C1576 C1571 1.363 . S
C1576 C1575 1.415 . S
C1577 H1553 0.951 . S
C1577 C1578 1.366 1_554 S
C1577 C1579 1.388 . S
C1578 C1577 1.366 1_556 S
C1578 C1582 1.385 . S
C1579 H1554 0.951 . S
C1579 C1577 1.388 . S
C1579 C1580 1.366 1_554 S
C1580 C1579 1.366 1_556 S
C1580 C1581 1.414 . S
C1580 C1583 1.499 . S
C1581 H1555 0.950 . S
C1581 C1580 1.414 . S
C1581 C1582 1.374 . S
C1582 H1556 0.950 . S
C1582 C1578 1.385 . S
C1582 C1581 1.374 . S
C1583 C1580 1.499 . S
C1583 C1584 1.394 . S
C1583 C1585 1.368 1_556 S
C1584 H1557 0.950 . S
C1584 C1570 1.377 . S
C1584 C1583 1.394 . S
C1585 C1569 1.377 . S
C1585 C1583 1.368 1_554 S
C1585 C1586 1.524 . S
C1586 C1585 1.524 . S
C1586 C1587 1.397 . S
C1586 C1591 1.363 . S
C1587 H1558 0.950 . S
C1587 C1586 1.397 . S
C1587 C1588 1.334 . S
C1588 H1559 0.950 . S
C1588 C1587 1.334 . S
C1588 C1589 1.287 . S
C1589 C1588 1.287 . S
C1589 C1590 1.524 . S
C1589 H1592 0.999 . S
C1590 H1560 0.950 . S
C1590 C1589 1.524 . S
C1590 C1591 1.415 . S
C1591 H1561 0.950 . S
C1591 C1586 1.363 . S
C1591 C1590 1.415 . S
H1592 C1589 0.999 . S
H1593 C1574 0.913 . S
H1594 C1612 0.951 . S
H1595 C1614 0.951 . S
H1596 C1616 0.950 . S
H1597 C1617 0.950 . S
H1598 C1619 0.950 . S
H1599 C1622 0.950 . S
H1600 C1623 0.950 . S
H1601 C1625 0.950 . S
H1602 C1626 0.950 . S
H1603 C1627 0.951 . S
H1604 C1629 0.951 . S
H1605 C1631 0.950 . S
H1606 C1632 0.950 . S
H1607 C1634 0.950 . S
H1608 C1637 0.950 . S
H1609 C1638 0.950 . S
H1610 C1640 0.950 . S
H1611 C1641 0.950 . S
C1612 H1594 0.951 . S
C1612 C1613 1.366 . S
C1612 C1614 1.388 . S
C1613 C1612 1.366 . S
C1613 C1617 1.385 1_554 S
C1614 H1595 0.951 . S
C1614 C1612 1.388 . S
C1614 C1615 1.366 . S
C1615 C1614 1.366 . S
C1615 C1616 1.414 1_554 S
C1615 C1618 1.498 1_554 S
C1616 H1596 0.950 . S
C1616 C1615 1.414 1_556 S
C1616 C1617 1.374 . S
C1617 H1597 0.950 . S
C1617 C1613 1.385 1_556 S
C1617 C1616 1.374 . S
C1618 C1615 1.498 1_556 S
C1618 C1619 1.370 1_556 S
C1618 C1620 1.393 . S
C1619 H1598 0.950 . S
C1619 C1618 1.370 1_554 S
C1619 C1635 1.377 . S
C1620 C1618 1.393 . S
C1620 C1621 1.524 . S
C1620 C1634 1.377 . S
C1621 C1620 1.524 . S
C1621 C1622 1.397 . S
C1621 C1626 1.363 . S
C1622 H1599 0.950 . S
C1622 C1621 1.397 . S
C1622 C1623 1.334 . S
C1623 H1600 0.950 . S
C1623 C1622 1.334 . S
C1623 C1624 1.287 . S
C1624 C1623 1.287 . S
C1624 C1625 1.524 . S
C1624 H1643 0.913 . S
C1625 H1601 0.950 . S
C1625 C1624 1.524 . S
C1625 C1626 1.415 . S
C1626 H1602 0.950 . S
C1626 C1621 1.363 . S
C1626 C1625 1.415 . S
C1627 H1603 0.951 . S
C1627 C1628 1.366 . S
C1627 C1629 1.388 . S
C1628 C1627 1.366 . S
C1628 C1632 1.385 1_556 S
C1629 H1604 0.951 . S
C1629 C1627 1.388 . S
C1629 C1630 1.367 . S
C1630 C1629 1.367 . S
C1630 C1631 1.413 1_556 S
C1630 C1633 1.498 1_556 S
C1631 H1605 0.950 . S
C1631 C1630 1.413 1_554 S
C1631 C1632 1.374 . S
C1632 H1606 0.950 . S
C1632 C1628 1.385 1_554 S
C1632 C1631 1.374 . S
C1633 C1630 1.498 1_554 S
C1633 C1634 1.373 1_554 S
C1633 C1635 1.389 . S
C1634 H1607 0.950 . S
C1634 C1620 1.377 . S
C1634 C1633 1.373 1_556 S
C1635 C1619 1.377 . S
C1635 C1633 1.389 . S
C1635 C1636 1.524 . S
C1636 C1635 1.524 . S
C1636 C1637 1.397 . S
C1636 C1641 1.363 . S
C1637 H1608 0.950 . S
C1637 C1636 1.397 . S
C1637 C1638 1.334 . S
C1638 H1609 0.950 . S
C1638 C1637 1.334 . S
C1638 C1639 1.287 . S
C1639 C1638 1.287 . S
C1639 C1640 1.524 . S
C1639 H1642 0.999 . S
C1640 H1610 0.950 . S
C1640 C1639 1.524 . S
C1640 C1641 1.415 . S
C1641 H1611 0.950 . S
C1641 C1636 1.363 . S
C1641 C1640 1.415 . S
H1642 C1639 0.999 . S
H1643 C1624 0.913 . S
H1644 C1662 0.957 . S
H1645 C1664 0.951 . S
H1646 C1666 0.950 . S
H1647 C1667 0.950 . S
H1648 C1669 0.950 . S
H1649 C1672 0.950 . S
H1650 C1673 0.950 . S
H1651 C1675 0.950 . S
H1652 C1676 0.950 . S
H1653 C1677 0.951 . S
H1654 C1679 0.951 . S
H1655 C1681 0.950 . S
H1656 C1682 0.950 . S
H1657 C1684 0.950 . S
H1658 C1687 0.950 . S
H1659 C1688 0.950 . S
H1660 C1690 0.950 . S
H1661 C1691 0.950 . S
C1662 H1644 0.957 . S
C1662 C1663 1.360 1_556 S
C1662 C1664 1.389 . S
C1663 C1662 1.360 1_554 S
C1663 C1667 1.385 . S
C1664 H1645 0.951 . S
C1664 C1662 1.389 . S
C1664 C1665 1.366 1_556 S
C1665 C1664 1.366 1_554 S
C1665 C1666 1.414 . S
C1665 C1668 1.499 . S
C1666 H1646 0.950 . S
C1666 C1665 1.414 . S
C1666 C1667 1.374 . S
C1667 H1647 0.950 . S
C1667 C1663 1.385 . S
C1667 C1666 1.374 . S
C1668 C1665 1.499 . S
C1668 C1669 1.373 1_554 S
C1668 C1670 1.389 . S
C1669 H1648 0.950 . S
C1669 C1668 1.373 1_556 S
C1669 C1685 1.377 . S
C1670 C1668 1.389 . S
C1670 C1671 1.524 . S
C1670 C1684 1.377 . S
C1671 C1670 1.524 . S
C1671 C1672 1.397 . S
C1671 C1676 1.363 . S
C1672 H1649 0.950 . S
C1672 C1671 1.397 . S
C1672 C1673 1.334 . S
C1673 H1650 0.950 . S
C1673 C1672 1.334 . S
C1673 C1674 1.287 . S
C1674 C1673 1.287 . S
C1674 C1675 1.524 . S
C1674 H1693 0.913 . S
C1675 H1651 0.950 . S
C1675 C1674 1.524 . S
C1675 C1676 1.415 . S
C1676 H1652 0.950 . S
C1676 C1671 1.363 . S
C1676 C1675 1.415 . S
C1677 H1653 0.951 . S
C1677 C1678 1.366 1_554 S
C1677 C1679 1.388 . S
C1678 C1677 1.366 1_556 S
C1678 C1682 1.385 . S
C1679 H1654 0.951 . S
C1679 C1677 1.388 . S
C1679 C1680 1.366 1_554 S
C1680 C1679 1.366 1_556 S
C1680 C1681 1.414 . S
C1680 C1683 1.499 . S
C1681 H1655 0.950 . S
C1681 C1680 1.414 . S
C1681 C1682 1.374 . S
C1682 H1656 0.950 . S
C1682 C1678 1.385 . S
C1682 C1681 1.374 . S
C1683 C1680 1.499 . S
C1683 C1684 1.373 1_556 S
C1683 C1685 1.389 . S
C1684 H1657 0.950 . S
C1684 C1670 1.377 . S
C1684 C1683 1.373 1_554 S
C1685 C1669 1.377 . S
C1685 C1683 1.389 . S
C1685 C1686 1.524 . S
C1686 C1685 1.524 . S
C1686 C1687 1.397 . S
C1686 C1691 1.363 . S
C1687 H1658 0.950 . S
C1687 C1686 1.397 . S
C1687 C1688 1.334 . S
C1688 H1659 0.950 . S
C1688 C1687 1.334 . S
C1688 C1689 1.287 . S
C1689 C1688 1.287 . S
C1689 C1690 1.524 . S
C1689 H1692 0.999 . S
C1690 H1660 0.950 . S
C1690 C1689 1.524 . S
C1690 C1691 1.415 . S
C1691 H1661 0.950 . S
C1691 C1686 1.363 . S
C1691 C1690 1.415 . S
H1692 C1689 0.999 . S
H1693 C1674 0.913 . S
H1694 C1712 0.951 . S
H1695 C1714 0.951 . S
H1696 C1716 0.949 1_556 S
H1697 C1717 0.950 . S
H1698 C1719 0.950 . S
H1699 C1722 0.950 . S
H1700 C1723 0.950 . S
H1701 C1725 0.950 . S
H1702 C1726 0.950 . S
H1703 C1727 0.951 . S
H1704 C1729 0.951 . S
H1705 C1731 0.953 . S
H1706 C1732 0.949 1_554 S
H1707 C1734 0.950 . S
H1708 C1737 0.950 . S
H1709 C1738 0.950 . S
H1710 C1740 0.950 . S
H1711 C1741 0.950 . S
C1712 H1694 0.951 . S
C1712 C1713 1.366 . S
C1712 C1714 1.388 . S
C1713 C1712 1.366 . S
C1713 C1717 1.385 . S
C1714 H1695 0.951 . S
C1714 C1712 1.388 . S
C1714 C1715 1.366 . S
C1715 C1714 1.366 . S
C1715 C1716 1.414 . S
C1715 C1718 1.499 1_554 S
C1716 H1696 0.949 1_554 S
C1716 C1715 1.414 . S
C1716 C1717 1.375 . S
C1717 H1697 0.950 . S
C1717 C1713 1.385 . S
C1717 C1716 1.375 . S
C1718 C1715 1.499 1_556 S
C1718 C1719 1.372 1_556 S
C1718 C1720 1.390 . S
C1719 H1698 0.950 . S
C1719 C1718 1.372 1_554 S
C1719 C1735 1.377 . S
C1720 C1718 1.390 . S
C1720 C1721 1.524 . S
C1720 C1734 1.377 . S
C1721 C1720 1.524 . S
C1721 C1722 1.397 . S
C1721 C1726 1.363 . S
C1722 H1699 0.950 . S
C1722 C1721 1.397 . S
C1722 C1723 1.334 . S
C1723 H1700 0.950 . S
C1723 C1722 1.334 . S
C1723 C1724 1.287 . S
C1724 C1723 1.287 . S
C1724 C1725 1.524 . S
C1724 H1743 0.913 . S
C1725 H1701 0.950 . S
C1725 C1724 1.524 . S
C1725 C1726 1.415 . S
C1726 H1702 0.950 . S
C1726 C1721 1.363 . S
C1726 C1725 1.415 . S
C1727 H1703 0.951 . S
C1727 C1728 1.366 . S
C1727 C1729 1.388 . S
C1728 C1727 1.366 . S
C1728 C1732 1.388 . S
C1729 H1704 0.951 . S
C1729 C1727 1.388 . S
C1729 C1730 1.366 . S
C1730 C1729 1.366 . S
C1730 C1731 1.413 1_556 S
C1730 C1733 1.499 1_556 S
C1731 H1705 0.953 . S
C1731 C1730 1.413 1_554 S
C1731 C1732 1.372 1_554 S
C1732 H1706 0.949 1_556 S
C1732 C1728 1.388 . S
C1732 C1731 1.372 1_556 S
C1733 C1730 1.499 1_554 S
C1733 C1734 1.373 1_554 S
C1733 C1735 1.389 . S
C1734 H1707 0.950 . S
C1734 C1720 1.377 . S
C1734 C1733 1.373 1_556 S
C1735 C1719 1.377 . S
C1735 C1733 1.389 . S
C1735 C1736 1.524 . S
C1736 C1735 1.524 . S
C1736 C1737 1.397 . S
C1736 C1741 1.363 . S
C1737 H1708 0.950 . S
C1737 C1736 1.397 . S
C1737 C1738 1.334 . S
C1738 H1709 0.950 . S
C1738 C1737 1.334 . S
C1738 C1739 1.287 . S
C1739 C1738 1.287 . S
C1739 C1740 1.524 . S
C1739 H1742 0.999 . S
C1740 H1710 0.950 . S
C1740 C1739 1.524 . S
C1740 C1741 1.415 . S
C1741 H1711 0.950 . S
C1741 C1736 1.363 . S
C1741 C1740 1.415 . S
H1742 C1739 0.999 . S
H1743 C1724 0.913 . S
H1744 C1762 0.951 . S
H1745 C1764 0.951 . S
H1746 C1766 0.950 . S
H1747 C1767 0.950 . S
H1748 C1769 0.950 . S
H1749 C1772 0.950 . S
H1750 C1773 0.950 . S
H1751 C1775 0.950 . S
H1752 C1776 0.950 . S
H1753 C1777 0.951 . S
H1754 C1779 0.951 . S
H1755 C1781 0.950 . S
H1756 C1782 0.950 . S
H1757 C1784 0.950 . S
H1758 C1787 0.950 . S
H1759 C1788 0.950 . S
H1760 C1790 0.950 . S
H1761 C1791 0.950 . S
C1762 H1744 0.951 . S
C1762 C1763 1.366 . S
C1762 C1764 1.388 . S
C1763 C1762 1.366 . S
C1763 C1767 1.385 . S
C1764 H1745 0.951 . S
C1764 C1762 1.388 . S
C1764 C1765 1.366 . S
C1765 C1764 1.366 . S
C1765 C1766 1.414 . S
C1765 C1768 1.499 . S
C1766 H1746 0.950 . S
C1766 C1765 1.414 . S
C1766 C1767 1.374 . S
C1767 H1747 0.950 . S
C1767 C1763 1.385 . S
C1767 C1766 1.374 . S
C1768 C1765 1.499 . S
C1768 C1769 1.373 1_655 S
C1768 C1770 1.389 . S
C1769 H1748 0.950 . S
C1769 C1768 1.373 1_455 S
C1769 C1785 1.377 . S
C1770 C1768 1.389 . S
C1770 C1771 1.524 . S
C1770 C1784 1.377 . S
C1771 C1770 1.524 . S
C1771 C1772 1.397 . S
C1771 C1776 1.363 . S
C1772 H1749 0.950 . S
C1772 C1771 1.397 . S
C1772 C1773 1.334 . S
C1773 H1750 0.950 . S
C1773 C1772 1.334 . S
C1773 C1774 1.287 . S
C1774 C1773 1.287 . S
C1774 C1775 1.524 . S
C1774 H1793 0.913 . S
C1775 H1751 0.950 . S
C1775 C1774 1.524 . S
C1775 C1776 1.415 . S
C1776 H1752 0.950 . S
C1776 C1771 1.363 . S
C1776 C1775 1.415 . S
C1777 H1753 0.951 . S
C1777 C1778 1.366 . S
C1777 C1779 1.388 . S
C1778 C1777 1.366 . S
C1778 C1782 1.385 . S
C1779 H1754 0.951 . S
C1779 C1777 1.388 . S
C1779 C1780 1.366 . S
C1780 C1779 1.366 . S
C1780 C1781 1.414 . S
C1780 C1783 1.499 . S
C1781 H1755 0.950 . S
C1781 C1780 1.414 . S
C1781 C1782 1.374 . S
C1782 H1756 0.950 . S
C1782 C1778 1.385 . S
C1782 C1781 1.374 . S
C1783 C1780 1.499 . S
C1783 C1784 1.373 1_455 S
C1783 C1785 1.389 . S
C1784 H1757 0.950 . S
C1784 C1770 1.377 . S
C1784 C1783 1.373 1_655 S
C1785 C1769 1.377 . S
C1785 C1783 1.389 . S
C1785 C1786 1.524 . S
C1786 C1785 1.524 . S
C1786 C1787 1.397 . S
C1786 C1791 1.363 . S
C1787 H1758 0.950 . S
C1787 C1786 1.397 . S
C1787 C1788 1.334 . S
C1788 H1759 0.950 . S
C1788 C1787 1.334 . S
C1788 C1789 1.287 . S
C1789 C1788 1.287 . S
C1789 C1790 1.524 . S
C1789 H1792 0.999 . S
C1790 H1760 0.950 . S
C1790 C1789 1.524 . S
C1790 C1791 1.415 . S
C1791 H1761 0.950 . S
C1791 C1786 1.363 . S
C1791 C1790 1.415 . S
H1792 C1789 0.999 . S
H1793 C1774 0.913 . S
H1794 C1812 0.951 . S
H1795 C1814 0.951 . S
H1796 C1816 0.950 . S
H1797 C1817 0.950 . S
H1798 C1819 0.950 . S
H1799 C1822 0.950 . S
H1800 C1823 0.950 . S
H1801 C1825 0.950 . S
H1802 C1826 0.950 . S
H1803 C1827 0.951 . S
H1804 C1829 0.951 . S
H1805 C1831 0.950 . S
H1806 C1832 0.950 . S
H1807 C1834 0.950 . S
H1808 C1837 0.950 . S
H1809 C1838 0.950 . S
H1810 C1840 0.950 . S
H1811 C1841 0.950 . S
C1812 H1794 0.951 . S
C1812 C1813 1.366 . S
C1812 C1814 1.388 . S
C1813 C1812 1.366 . S
C1813 C1817 1.385 1_565 S
C1814 H1795 0.951 . S
C1814 C1812 1.388 . S
C1814 C1815 1.366 . S
C1815 C1814 1.366 . S
C1815 C1816 1.414 1_565 S
C1815 C1818 1.499 . S
C1816 H1796 0.950 . S
C1816 C1815 1.414 1_545 S
C1816 C1817 1.374 . S
C1817 H1797 0.950 . S
C1817 C1813 1.385 1_545 S
C1817 C1816 1.374 . S
C1818 C1815 1.499 . S
C1818 C1819 1.373 1_565 S
C1818 C1820 1.389 . S
C1819 H1798 0.950 . S
C1819 C1818 1.373 1_545 S
C1819 C1835 1.377 . S
C1820 C1818 1.389 . S
C1820 C1821 1.524 . S
C1820 C1834 1.377 . S
C1821 C1820 1.524 . S
C1821 C1822 1.397 . S
C1821 C1826 1.363 . S
C1822 H1799 0.950 . S
C1822 C1821 1.397 . S
C1822 C1823 1.334 . S
C1823 H1800 0.950 . S
C1823 C1822 1.334 . S
C1823 C1824 1.287 . S
C1824 C1823 1.287 . S
C1824 C1825 1.524 . S
C1824 H1843 0.913 . S
C1825 H1801 0.950 . S
C1825 C1824 1.524 . S
C1825 C1826 1.415 . S
C1826 H1802 0.950 . S
C1826 C1821 1.363 . S
C1826 C1825 1.415 . S
C1827 H1803 0.951 . S
C1827 C1828 1.366 . S
C1827 C1829 1.388 . S
C1828 C1827 1.366 . S
C1828 C1832 1.385 1_545 S
C1829 H1804 0.951 . S
C1829 C1827 1.388 . S
C1829 C1830 1.366 . S
C1830 C1829 1.366 . S
C1830 C1831 1.414 1_545 S
C1830 C1833 1.499 . S
C1831 H1805 0.950 . S
C1831 C1830 1.414 1_565 S
C1831 C1832 1.374 . S
C1832 H1806 0.950 . S
C1832 C1828 1.385 1_565 S
C1832 C1831 1.374 . S
C1833 C1830 1.499 . S
C1833 C1834 1.373 1_545 S
C1833 C1835 1.389 . S
C1834 H1807 0.950 . S
C1834 C1820 1.377 . S
C1834 C1833 1.373 1_565 S
C1835 C1819 1.377 . S
C1835 C1833 1.389 . S
C1835 C1836 1.524 . S
C1836 C1835 1.524 . S
C1836 C1837 1.397 . S
C1836 C1841 1.363 . S
C1837 H1808 0.950 . S
C1837 C1836 1.397 . S
C1837 C1838 1.334 . S
C1838 H1809 0.950 . S
C1838 C1837 1.334 . S
C1838 C1839 1.287 . S
C1839 C1838 1.287 . S
C1839 C1840 1.524 . S
C1839 H1842 0.999 . S
C1840 H1810 0.950 . S
C1840 C1839 1.524 . S
C1840 C1841 1.415 . S
C1841 H1811 0.950 . S
C1841 C1836 1.363 . S
C1841 C1840 1.415 . S
H1842 C1839 0.999 . S
H1843 C1824 0.913 . S
H1844 C1862 0.928 1_455 S
H1845 C1864 0.951 . S
H1846 C1866 0.950 . S
H1847 C1867 0.950 . S
H1848 C1869 0.950 . S
H1849 C1872 0.950 . S
H1850 C1873 0.950 . S
H1851 C1875 0.950 . S
H1852 C1876 0.950 . S
H1853 C1877 0.928 1_655 S
H1854 C1879 0.951 . S
H1855 C1881 0.950 . S
H1856 C1882 0.950 . S
H1857 C1884 0.950 . S
H1858 C1887 0.950 . S
H1859 C1888 0.950 . S
H1860 C1890 0.950 . S
H1861 C1891 0.950 . S
C1862 H1844 0.928 1_655 S
C1862 C1863 1.397 . S
C1862 C1864 1.380 1_655 S
C1863 C1862 1.397 . S
C1863 C1867 1.385 . S
C1864 H1845 0.951 . S
C1864 C1862 1.380 1_455 S
C1864 C1865 1.366 1_455 S
C1865 C1864 1.366 1_655 S
C1865 C1866 1.414 . S
C1865 C1868 1.499 . S
C1866 H1846 0.950 . S
C1866 C1865 1.414 . S
C1866 C1867 1.374 . S
C1867 H1847 0.950 . S
C1867 C1863 1.385 . S
C1867 C1866 1.374 . S
C1868 C1865 1.499 . S
C1868 C1869 1.373 . S
C1868 C1870 1.389 1_655 S
C1869 H1848 0.950 . S
C1869 C1868 1.373 . S
C1869 C1885 1.377 . S
C1870 C1868 1.389 1_455 S
C1870 C1871 1.524 . S
C1870 C1884 1.377 . S
C1871 C1870 1.524 . S
C1871 C1872 1.397 . S
C1871 C1876 1.363 . S
C1872 H1849 0.950 . S
C1872 C1871 1.397 . S
C1872 C1873 1.334 . S
C1873 H1850 0.950 . S
C1873 C1872 1.334 . S
C1873 C1874 1.287 . S
C1874 C1873 1.287 . S
C1874 C1875 1.524 . S
C1874 H1893 0.913 . S
C1875 H1851 0.950 . S
C1875 C1874 1.524 . S
C1875 C1876 1.415 . S
C1876 H1852 0.950 . S
C1876 C1871 1.363 . S
C1876 C1875 1.415 . S
C1877 H1853 0.928 1_455 S
C1877 C1878 1.397 . S
C1877 C1879 1.380 1_455 S
C1878 C1877 1.397 . S
C1878 C1882 1.385 . S
C1879 H1854 0.951 . S
C1879 C1877 1.380 1_655 S
C1879 C1880 1.366 1_655 S
C1880 C1879 1.366 1_455 S
C1880 C1881 1.414 . S
C1880 C1883 1.499 . S
C1881 H1855 0.950 . S
C1881 C1880 1.414 . S
C1881 C1882 1.374 . S
C1882 H1856 0.950 . S
C1882 C1878 1.385 . S
C1882 C1881 1.374 . S
C1883 C1880 1.499 . S
C1883 C1884 1.373 . S
C1883 C1885 1.389 1_455 S
C1884 H1857 0.950 . S
C1884 C1870 1.377 . S
C1884 C1883 1.373 . S
C1885 C1869 1.377 . S
C1885 C1883 1.389 1_655 S
C1885 C1886 1.524 . S
C1886 C1885 1.524 . S
C1886 C1887 1.397 . S
C1886 C1891 1.363 . S
C1887 H1858 0.950 . S
C1887 C1886 1.397 . S
C1887 C1888 1.334 . S
C1888 H1859 0.950 . S
C1888 C1887 1.334 . S
C1888 C1889 1.287 . S
C1889 C1888 1.287 . S
C1889 C1890 1.524 . S
C1889 H1892 0.999 . S
C1890 H1860 0.950 . S
C1890 C1889 1.524 . S
C1890 C1891 1.415 . S
C1891 H1861 0.950 . S
C1891 C1886 1.363 . S
C1891 C1890 1.415 . S
H1892 C1889 0.999 . S
H1893 C1874 0.913 . S
H1894 C1912 0.951 . S
H1895 C1914 0.951 1_565 S
H1896 C1916 0.950 . S
H1897 C1917 0.950 . S
H1898 C1919 0.950 . S
H1899 C1922 0.950 . S
H1900 C1923 0.950 . S
H1901 C1925 0.950 . S
H1902 C1926 0.950 . S
H1903 C1927 0.951 . S
H1904 C1929 0.951 1_545 S
H1905 C1931 0.950 . S
H1906 C1932 0.950 . S
H1907 C1934 0.950 . S
H1908 C1937 0.950 . S
H1909 C1938 0.950 . S
H1910 C1940 0.950 . S
H1911 C1941 0.950 . S
C1912 H1894 0.951 . S
C1912 C1913 1.366 . S
C1912 C1914 1.388 . S
C1913 C1912 1.366 . S
C1913 C1917 1.385 . S
C1914 H1895 0.951 1_545 S
C1914 C1912 1.388 . S
C1914 C1915 1.366 . S
C1915 C1914 1.366 . S
C1915 C1916 1.414 . S
C1915 C1918 1.499 . S
C1916 H1896 0.950 . S
C1916 C1915 1.414 . S
C1916 C1917 1.374 . S
C1917 H1897 0.950 . S
C1917 C1913 1.385 . S
C1917 C1916 1.374 . S
C1918 C1915 1.499 . S
C1918 C1919 1.373 1_545 S
C1918 C1920 1.389 . S
C1919 H1898 0.950 . S
C1919 C1918 1.373 1_565 S
C1919 C1935 1.377 . S
C1920 C1918 1.389 . S
C1920 C1921 1.524 . S
C1920 C1934 1.377 . S
C1921 C1920 1.524 . S
C1921 C1922 1.397 . S
C1921 C1926 1.363 . S
C1922 H1899 0.950 . S
C1922 C1921 1.397 . S
C1922 C1923 1.334 . S
C1923 H1900 0.950 . S
C1923 C1922 1.334 . S
C1923 C1924 1.287 . S
C1924 C1923 1.287 . S
C1924 C1925 1.524 . S
C1924 H1943 0.913 . S
C1925 H1901 0.950 . S
C1925 C1924 1.524 . S
C1925 C1926 1.415 . S
C1926 H1902 0.950 . S
C1926 C1921 1.363 . S
C1926 C1925 1.415 . S
C1927 H1903 0.951 . S
C1927 C1928 1.366 . S
C1927 C1929 1.388 . S
C1928 C1927 1.366 . S
C1928 C1932 1.385 . S
C1929 H1904 0.951 1_565 S
C1929 C1927 1.388 . S
C1929 C1930 1.366 . S
C1930 C1929 1.366 . S
C1930 C1931 1.414 . S
C1930 C1933 1.499 . S
C1931 H1905 0.950 . S
C1931 C1930 1.414 . S
C1931 C1932 1.374 . S
C1932 H1906 0.950 . S
C1932 C1928 1.385 . S
C1932 C1931 1.374 . S
C1933 C1930 1.499 . S
C1933 C1934 1.373 1_565 S
C1933 C1935 1.389 . S
C1934 H1907 0.950 . S
C1934 C1920 1.377 . S
C1934 C1933 1.373 1_545 S
C1935 C1919 1.377 . S
C1935 C1933 1.389 . S
C1935 C1936 1.524 . S
C1936 C1935 1.524 . S
C1936 C1937 1.397 . S
C1936 C1941 1.363 . S
C1937 H1908 0.950 . S
C1937 C1936 1.397 . S
C1937 C1938 1.334 . S
C1938 H1909 0.950 . S
C1938 C1937 1.334 . S
C1938 C1939 1.287 . S
C1939 C1938 1.287 . S
C1939 C1940 1.524 . S
C1939 H1942 0.999 . S
C1940 H1910 0.950 . S
C1940 C1939 1.524 . S
C1940 C1941 1.415 . S
C1941 H1911 0.950 . S
C1941 C1936 1.363 . S
C1941 C1940 1.415 . S
H1942 C1939 0.999 . S
H1943 C1924 0.913 . S
H1944 C1962 0.948 1_455 S
H1945 C1964 0.951 . S
H1946 C1966 0.950 . S
H1947 C1967 0.950 . S
H1948 C1969 0.950 . S
H1949 C1972 0.950 . S
H1950 C1973 0.950 . S
H1951 C1975 0.950 . S
H1952 C1976 0.950 1_455 S
H1953 C1977 0.948 1_655 S
H1954 C1979 0.951 . S
H1955 C1981 0.950 . S
H1956 C1982 0.950 . S
H1957 C1984 0.950 . S
H1958 C1987 0.950 . S
H1959 C1988 0.950 . S
H1960 C1990 0.950 . S
H1961 C1991 0.950 1_655 S
C1962 H1944 0.948 1_655 S
C1962 C1963 1.370 . S
C1962 C1964 1.387 1_655 S
C1963 C1962 1.370 . S
C1963 C1967 1.385 . S
C1964 H1945 0.951 . S
C1964 C1962 1.387 1_455 S
C1964 C1965 1.366 1_455 S
C1965 C1964 1.366 1_655 S
C1965 C1966 1.414 . S
C1965 C1968 1.499 . S
C1966 H1946 0.950 . S
C1966 C1965 1.414 . S
C1966 C1967 1.374 . S
C1967 H1947 0.950 . S
C1967 C1963 1.385 . S
C1967 C1966 1.374 . S
C1968 C1965 1.499 . S
C1968 C1969 1.373 1_655 S
C1968 C1970 1.389 . S
C1969 H1948 0.950 . S
C1969 C1968 1.373 1_455 S
C1969 C1985 1.377 . S
C1970 C1968 1.389 . S
C1970 C1971 1.524 . S
C1970 C1984 1.377 . S
C1971 C1970 1.524 . S
C1971 C1972 1.397 . S
C1971 C1976 1.363 . S
C1972 H1949 0.950 . S
C1972 C1971 1.397 . S
C1972 C1973 1.334 . S
C1973 H1950 0.950 . S
C1973 C1972 1.334 . S
C1973 C1974 1.287 . S
C1974 C1973 1.287 . S
C1974 C1975 1.524 . S
C1974 H1993 0.913 . S
C1975 H1951 0.950 . S
C1975 C1974 1.524 . S
C1975 C1976 1.415 . S
C1976 H1952 0.950 1_655 S
C1976 C1971 1.363 . S
C1976 C1975 1.415 . S
C1977 H1953 0.948 1_455 S
C1977 C1978 1.370 . S
C1977 C1979 1.387 1_455 S
C1978 C1977 1.370 . S
C1978 C1982 1.385 . S
C1979 H1954 0.951 . S
C1979 C1977 1.387 1_655 S
C1979 C1980 1.366 1_655 S
C1980 C1979 1.366 1_455 S
C1980 C1981 1.414 . S
C1980 C1983 1.499 . S
C1981 H1955 0.950 . S
C1981 C1980 1.414 . S
C1981 C1982 1.374 . S
C1982 H1956 0.950 . S
C1982 C1978 1.385 . S
C1982 C1981 1.374 . S
C1983 C1980 1.499 . S
C1983 C1984 1.373 1_455 S
C1983 C1985 1.389 . S
C1984 H1957 0.950 . S
C1984 C1970 1.377 . S
C1984 C1983 1.373 1_655 S
C1985 C1969 1.377 . S
C1985 C1983 1.389 . S
C1985 C1986 1.524 . S
C1986 C1985 1.524 . S
C1986 C1987 1.397 . S
C1986 C1991 1.363 . S
C1987 H1958 0.950 . S
C1987 C1986 1.397 . S
C1987 C1988 1.334 . S
C1988 H1959 0.950 . S
C1988 C1987 1.334 . S
C1988 C1989 1.287 . S
C1989 C1988 1.287 . S
C1989 C1990 1.524 . S
C1989 H1992 0.999 . S
C1990 H1960 0.950 . S
C1990 C1989 1.524 . S
C1990 C1991 1.415 . S
C1991 H1961 0.950 1_455 S
C1991 C1986 1.363 . S
C1991 C1990 1.415 . S
H1992 C1989 0.999 . S
H1993 C1974 0.913 . S
H1994 C2012 0.951 . S
H1995 C2014 0.951 . S
H1996 C2016 0.950 . S
H1997 C2017 0.950 . S
H1998 C2019 0.950 . S
H1999 C2022 0.950 . S
H2000 C2023 0.950 . S
H2001 C2025 0.950 . S
H2002 C2026 0.950 . S
H2003 C2027 0.951 . S
H2004 C2029 0.951 . S
H2005 C2031 0.950 . S
H2006 C2032 0.950 . S
H2007 C2034 0.950 . S
H2008 C2037 0.950 . S
H2009 C2038 0.950 . S
H2010 C2040 0.950 . S
H2011 C2041 0.950 . S
C2012 H1994 0.951 . S
C2012 C2013 1.366 1_565 S
C2012 C2014 1.388 . S
C2013 C2012 1.366 1_545 S
C2013 C2017 1.385 . S
C2014 H1995 0.951 . S
C2014 C2012 1.388 . S
C2014 C2015 1.366 1_565 S
C2015 C2014 1.366 1_545 S
C2015 C2016 1.414 . S
C2015 C2018 1.499 . S
C2016 H1996 0.950 . S
C2016 C2015 1.414 . S
C2016 C2017 1.374 . S
C2017 H1997 0.950 . S
C2017 C2013 1.385 . S
C2017 C2016 1.374 . S
C2018 C2015 1.499 . S
C2018 C2019 1.373 . S
C2018 C2020 1.389 1_545 S
C2019 H1998 0.950 . S
C2019 C2018 1.373 . S
C2019 C2035 1.377 . S
C2020 C2018 1.389 1_565 S
C2020 C2021 1.524 . S
C2020 C2034 1.377 . S
C2021 C2020 1.524 . S
C2021 C2022 1.397 . S
C2021 C2026 1.363 . S
C2022 H1999 0.950 . S
C2022 C2021 1.397 . S
C2022 C2023 1.334 . S
C2023 H2000 0.950 . S
C2023 C2022 1.334 . S
C2023 C2024 1.287 . S
C2024 C2023 1.287 . S
C2024 C2025 1.524 . S
C2024 H2043 0.913 . S
C2025 H2001 0.950 . S
C2025 C2024 1.524 . S
C2025 C2026 1.415 . S
C2026 H2002 0.950 . S
C2026 C2021 1.363 . S
C2026 C2025 1.415 . S
C2027 H2003 0.951 . S
C2027 C2028 1.366 1_545 S
C2027 C2029 1.388 . S
C2028 C2027 1.366 1_565 S
C2028 C2032 1.385 . S
C2029 H2004 0.951 . S
C2029 C2027 1.388 . S
C2029 C2030 1.366 1_545 S
C2030 C2029 1.366 1_565 S
C2030 C2031 1.414 . S
C2030 C2033 1.499 . S
C2031 H2005 0.950 . S
C2031 C2030 1.414 . S
C2031 C2032 1.374 . S
C2032 H2006 0.950 . S
C2032 C2028 1.385 . S
C2032 C2031 1.374 . S
C2033 C2030 1.499 . S
C2033 C2034 1.373 . S
C2033 C2035 1.389 1_565 S
C2034 H2007 0.950 . S
C2034 C2020 1.377 . S
C2034 C2033 1.373 . S
C2035 C2019 1.377 . S
C2035 C2033 1.389 1_545 S
C2035 C2036 1.524 . S
C2036 C2035 1.524 . S
C2036 C2037 1.397 . S
C2036 C2041 1.363 . S
C2037 H2008 0.950 . S
C2037 C2036 1.397 . S
C2037 C2038 1.334 . S
C2038 H2009 0.950 . S
C2038 C2037 1.334 . S
C2038 C2039 1.287 . S
C2039 C2038 1.287 . S
C2039 C2040 1.524 . S
C2039 H2042 0.999 . S
C2040 H2010 0.950 . S
C2040 C2039 1.524 . S
C2040 C2041 1.415 . S
C2041 H2011 0.950 . S
C2041 C2036 1.363 . S
C2041 C2040 1.415 . S
H2042 C2039 0.999 . S
H2043 C2024 0.913 . S
H2044 C2062 0.951 . S
H2045 C2064 0.951 . S
H2046 C2066 0.950 . S
H2047 C2067 0.950 . S
H2048 C2069 0.950 . S
H2049 C2072 0.950 . S
H2050 C2073 0.950 . S
H2051 C2075 0.950 . S
H2052 C2076 0.950 . S
H2053 C2077 0.951 . S
H2054 C2079 0.951 . S
H2055 C2081 0.950 . S
H2056 C2082 0.950 . S
H2057 C2084 0.950 . S
H2058 C2087 0.950 . S
H2059 C2088 0.950 . S
H2060 C2090 0.950 . S
H2061 C2091 0.950 . S
C2062 H2044 0.951 . S
C2062 C2063 1.366 1_655 S
C2062 C2064 1.388 . S
C2063 C2062 1.366 1_455 S
C2063 C2067 1.385 . S
C2064 H2045 0.951 . S
C2064 C2062 1.388 . S
C2064 C2065 1.366 1_655 S
C2065 C2064 1.366 1_455 S
C2065 C2066 1.414 . S
C2065 C2068 1.499 . S
C2066 H2046 0.950 . S
C2066 C2065 1.414 . S
C2066 C2067 1.374 . S
C2067 H2047 0.950 . S
C2067 C2063 1.385 . S
C2067 C2066 1.374 . S
C2068 C2065 1.499 . S
C2068 C2069 1.373 . S
C2068 C2070 1.389 1_455 S
C2069 H2048 0.950 . S
C2069 C2068 1.373 . S
C2069 C2085 1.377 . S
C2070 C2068 1.389 1_655 S
C2070 C2071 1.524 . S
C2070 C2084 1.377 . S
C2071 C2070 1.524 . S
C2071 C2072 1.397 . S
C2071 C2076 1.363 . S
C2072 H2049 0.950 . S
C2072 C2071 1.397 . S
C2072 C2073 1.334 . S
C2073 H2050 0.950 . S
C2073 C2072 1.334 . S
C2073 C2074 1.287 . S
C2074 C2073 1.287 . S
C2074 C2075 1.524 . S
C2074 H2093 0.913 . S
C2075 H2051 0.950 . S
C2075 C2074 1.524 . S
C2075 C2076 1.415 . S
C2076 H2052 0.950 . S
C2076 C2071 1.363 . S
C2076 C2075 1.415 . S
C2077 H2053 0.951 . S
C2077 C2078 1.366 1_455 S
C2077 C2079 1.388 . S
C2078 C2077 1.366 1_655 S
C2078 C2082 1.385 . S
C2079 H2054 0.951 . S
C2079 C2077 1.388 . S
C2079 C2080 1.366 1_455 S
C2080 C2079 1.366 1_655 S
C2080 C2081 1.414 . S
C2080 C2083 1.499 . S
C2081 H2055 0.950 . S
C2081 C2080 1.414 . S
C2081 C2082 1.374 . S
C2082 H2056 0.950 . S
C2082 C2078 1.385 . S
C2082 C2081 1.374 . S
C2083 C2080 1.499 . S
C2083 C2084 1.373 . S
C2083 C2085 1.389 1_655 S
C2084 H2057 0.950 . S
C2084 C2070 1.377 . S
C2084 C2083 1.373 . S
C2085 C2069 1.377 . S
C2085 C2083 1.389 1_455 S
C2085 C2086 1.524 . S
C2086 C2085 1.524 . S
C2086 C2087 1.397 . S
C2086 C2091 1.363 . S
C2087 H2058 0.950 . S
C2087 C2086 1.397 . S
C2087 C2088 1.334 . S
C2088 H2059 0.950 . S
C2088 C2087 1.334 . S
C2088 C2089 1.287 . S
C2089 C2088 1.287 . S
C2089 C2090 1.524 . S
C2089 H2092 0.999 . S
C2090 H2060 0.950 . S
C2090 C2089 1.524 . S
C2090 C2091 1.415 . S
C2091 H2061 0.950 . S
C2091 C2086 1.363 . S
C2091 C2090 1.415 . S
H2092 C2089 0.999 . S
H2093 C2074 0.913 . S
H2094 C2112 0.951 . S
H2095 C2114 0.951 . S
H2096 C2116 0.950 . S
H2097 C2117 0.950 . S
H2098 C2119 0.950 . S
H2099 C2122 0.950 . S
H2100 C2123 0.950 . S
H2101 C2125 0.950 . S
H2102 C2126 0.950 . S
H2103 C2127 0.951 . S
H2104 C2129 0.951 . S
H2105 C2131 0.950 . S
H2106 C2132 0.950 . S
H2107 C2134 0.950 . S
H2108 C2137 0.950 . S
H2109 C2138 0.950 . S
H2110 C2140 0.950 . S
H2111 C2141 0.950 . S
C2112 H2094 0.951 . S
C2112 C2113 1.366 1_545 S
C2112 C2114 1.388 . S
C2113 C2112 1.366 1_565 S
C2113 C2117 1.385 . S
C2114 H2095 0.951 . S
C2114 C2112 1.388 . S
C2114 C2115 1.366 1_545 S
C2115 C2114 1.366 1_565 S
C2115 C2116 1.414 . S
C2115 C2118 1.499 . S
C2116 H2096 0.950 . S
C2116 C2115 1.414 . S
C2116 C2117 1.374 . S
C2117 H2097 0.950 . S
C2117 C2113 1.385 . S
C2117 C2116 1.374 . S
C2118 C2115 1.499 . S
C2118 C2119 1.373 . S
C2118 C2120 1.389 1_565 S
C2119 H2098 0.950 . S
C2119 C2118 1.373 . S
C2119 C2135 1.377 . S
C2120 C2118 1.389 1_545 S
C2120 C2121 1.524 . S
C2120 C2134 1.377 . S
C2121 C2120 1.524 . S
C2121 C2122 1.397 . S
C2121 C2126 1.363 . S
C2122 H2099 0.950 . S
C2122 C2121 1.397 . S
C2122 C2123 1.334 . S
C2123 H2100 0.950 . S
C2123 C2122 1.334 . S
C2123 C2124 1.287 . S
C2124 C2123 1.287 . S
C2124 C2125 1.524 . S
C2124 H2143 0.913 . S
C2125 H2101 0.950 . S
C2125 C2124 1.524 . S
C2125 C2126 1.415 . S
C2126 H2102 0.950 . S
C2126 C2121 1.363 . S
C2126 C2125 1.415 . S
C2127 H2103 0.951 . S
C2127 C2128 1.366 1_565 S
C2127 C2129 1.388 . S
C2128 C2127 1.366 1_545 S
C2128 C2132 1.385 . S
C2129 H2104 0.951 . S
C2129 C2127 1.388 . S
C2129 C2130 1.366 1_565 S
C2130 C2129 1.366 1_545 S
C2130 C2131 1.414 . S
C2130 C2133 1.499 . S
C2131 H2105 0.950 . S
C2131 C2130 1.414 . S
C2131 C2132 1.374 . S
C2132 H2106 0.950 . S
C2132 C2128 1.385 . S
C2132 C2131 1.374 . S
C2133 C2130 1.499 . S
C2133 C2134 1.373 . S
C2133 C2135 1.389 1_545 S
C2134 H2107 0.950 . S
C2134 C2120 1.377 . S
C2134 C2133 1.373 . S
C2135 C2119 1.377 . S
C2135 C2133 1.389 1_565 S
C2135 C2136 1.524 . S
C2136 C2135 1.524 . S
C2136 C2137 1.397 . S
C2136 C2141 1.363 . S
C2137 H2108 0.950 . S
C2137 C2136 1.397 . S
C2137 C2138 1.334 . S
C2138 H2109 0.950 . S
C2138 C2137 1.334 . S
C2138 C2139 1.287 . S
C2139 C2138 1.287 . S
C2139 C2140 1.524 . S
C2139 H2142 0.999 . S
C2140 H2110 0.950 . S
C2140 C2139 1.524 . S
C2140 C2141 1.415 . S
C2141 H2111 0.950 . S
C2141 C2136 1.363 . S
C2141 C2140 1.415 . S
H2142 C2139 0.999 . S
H2143 C2124 0.913 . S
H2144 C2162 0.951 . S
H2145 C2164 0.951 . S
H2146 C2166 0.950 . S
H2147 C2167 0.950 . S
H2148 C2169 0.950 . S
H2149 C2172 0.950 . S
H2150 C2173 0.950 . S
H2151 C2175 0.950 . S
H2152 C2176 0.950 . S
H2153 C2177 0.951 . S
H2154 C2179 0.951 . S
H2155 C2181 0.950 . S
H2156 C2182 0.950 . S
H2157 C2184 0.950 . S
H2158 C2187 0.950 . S
H2159 C2188 0.950 . S
H2160 C2190 0.950 . S
H2161 C2191 0.950 . S
C2162 H2144 0.951 . S
C2162 C2163 1.366 . S
C2162 C2164 1.388 . S
C2163 C2162 1.366 . S
C2163 C2167 1.385 . S
C2164 H2145 0.951 . S
C2164 C2162 1.388 . S
C2164 C2165 1.366 . S
C2165 C2164 1.366 . S
C2165 C2166 1.414 . S
C2165 C2168 1.499 . S
C2166 H2146 0.950 . S
C2166 C2165 1.414 . S
C2166 C2167 1.374 . S
C2167 H2147 0.950 . S
C2167 C2163 1.385 . S
C2167 C2166 1.374 . S
C2168 C2165 1.499 . S
C2168 C2169 1.373 . S
C2168 C2170 1.389 . S
C2169 H2148 0.950 . S
C2169 C2168 1.373 . S
C2169 C2185 1.377 . S
C2170 C2168 1.389 . S
C2170 C2171 1.524 . S
C2170 C2184 1.377 . S
C2171 C2170 1.524 . S
C2171 C2172 1.397 . S
C2171 C2176 1.363 . S
C2172 H2149 0.950 . S
C2172 C2171 1.397 . S
C2172 C2173 1.334 . S
C2173 H2150 0.950 . S
C2173 C2172 1.334 . S
C2173 C2174 1.287 . S
C2174 C2173 1.287 . S
C2174 C2175 1.524 . S
C2174 H2193 0.913 . S
C2175 H2151 0.950 . S
C2175 C2174 1.524 . S
C2175 C2176 1.415 . S
C2176 H2152 0.950 . S
C2176 C2171 1.363 . S
C2176 C2175 1.415 . S
C2177 H2153 0.951 . S
C2177 C2178 1.366 . S
C2177 C2179 1.388 . S
C2178 C2177 1.366 . S
C2178 C2182 1.385 . S
C2179 H2154 0.951 . S
C2179 C2177 1.388 . S
C2179 C2180 1.366 . S
C2180 C2179 1.366 . S
C2180 C2181 1.414 . S
C2180 C2183 1.499 . S
C2181 H2155 0.950 . S
C2181 C2180 1.414 . S
C2181 C2182 1.374 . S
C2182 H2156 0.950 . S
C2182 C2178 1.385 . S
C2182 C2181 1.374 . S
C2183 C2180 1.499 . S
C2183 C2184 1.373 . S
C2183 C2185 1.389 . S
C2184 H2157 0.950 . S
C2184 C2170 1.377 . S
C2184 C2183 1.373 . S
C2185 C2169 1.377 . S
C2185 C2183 1.389 . S
C2185 C2186 1.524 . S
C2186 C2185 1.524 . S
C2186 C2187 1.397 . S
C2186 C2191 1.363 . S
C2187 H2158 0.950 . S
C2187 C2186 1.397 . S
C2187 C2188 1.334 . S
C2188 H2159 0.950 . S
C2188 C2187 1.334 . S
C2188 C2189 1.287 . S
C2189 C2188 1.287 . S
C2189 C2190 1.524 . S
C2189 H2192 0.999 . S
C2190 H2160 0.950 . S
C2190 C2189 1.524 . S
C2190 C2191 1.415 . S
C2191 H2161 0.950 . S
C2191 C2186 1.363 . S
C2191 C2190 1.415 . S
H2192 C2189 0.999 . S
H2193 C2174 0.913 . S
H2194 C2212 0.951 . S
H2195 C2214 0.951 . S
H2196 C2216 0.950 . S
H2197 C2217 0.950 . S
H2198 C2219 0.950 . S
H2199 C2222 0.950 . S
H2200 C2223 0.950 . S
H2201 C2225 0.950 . S
H2202 C2226 0.950 . S
H2203 C2227 0.951 . S
H2204 C2229 0.951 . S
H2205 C2231 0.950 . S
H2206 C2232 0.950 . S
H2207 C2234 0.950 . S
H2208 C2237 0.950 . S
H2209 C2238 0.950 . S
H2210 C2240 0.950 . S
H2211 C2241 0.950 . S
C2212 H2194 0.951 . S
C2212 C2213 1.366 . S
C2212 C2214 1.388 . S
C2213 C2212 1.366 . S
C2213 C2217 1.385 . S
C2214 H2195 0.951 . S
C2214 C2212 1.388 . S
C2214 C2215 1.366 . S
C2215 C2214 1.366 . S
C2215 C2216 1.414 . S
C2215 C2218 1.499 . S
C2216 H2196 0.950 . S
C2216 C2215 1.414 . S
C2216 C2217 1.374 . S
C2217 H2197 0.950 . S
C2217 C2213 1.385 . S
C2217 C2216 1.374 . S
C2218 C2215 1.499 . S
C2218 C2219 1.373 . S
C2218 C2220 1.389 . S
C2219 H2198 0.950 . S
C2219 C2218 1.373 . S
C2219 C2235 1.377 . S
C2220 C2218 1.389 . S
C2220 C2221 1.524 . S
C2220 C2234 1.377 . S
C2221 C2220 1.524 . S
C2221 C2222 1.397 . S
C2221 C2226 1.363 . S
C2222 H2199 0.950 . S
C2222 C2221 1.397 . S
C2222 C2223 1.334 . S
C2223 H2200 0.950 . S
C2223 C2222 1.334 . S
C2223 C2224 1.287 . S
C2224 C2223 1.287 . S
C2224 C2225 1.524 . S
C2224 H2243 0.913 . S
C2225 H2201 0.950 . S
C2225 C2224 1.524 . S
C2225 C2226 1.415 . S
C2226 H2202 0.950 . S
C2226 C2221 1.363 . S
C2226 C2225 1.415 . S
C2227 H2203 0.951 . S
C2227 C2228 1.366 . S
C2227 C2229 1.388 . S
C2228 C2227 1.366 . S
C2228 C2232 1.385 . S
C2229 H2204 0.951 . S
C2229 C2227 1.388 . S
C2229 C2230 1.366 . S
C2230 C2229 1.366 . S
C2230 C2231 1.414 . S
C2230 C2233 1.499 . S
C2231 H2205 0.950 . S
C2231 C2230 1.414 . S
C2231 C2232 1.374 . S
C2232 H2206 0.950 . S
C2232 C2228 1.385 . S
C2232 C2231 1.374 . S
C2233 C2230 1.499 . S
C2233 C2234 1.373 . S
C2233 C2235 1.389 . S
C2234 H2207 0.950 . S
C2234 C2220 1.377 . S
C2234 C2233 1.373 . S
C2235 C2219 1.377 . S
C2235 C2233 1.389 . S
C2235 C2236 1.524 . S
C2236 C2235 1.524 . S
C2236 C2237 1.397 . S
C2236 C2241 1.363 . S
C2237 H2208 0.950 . S
C2237 C2236 1.397 . S
C2237 C2238 1.334 . S
C2238 H2209 0.950 . S
C2238 C2237 1.334 . S
C2238 C2239 1.287 . S
C2239 C2238 1.287 . S
C2239 C2240 1.524 . S
C2239 H2242 0.999 . S
C2240 H2210 0.950 . S
C2240 C2239 1.524 . S
C2240 C2241 1.415 . S
C2241 H2211 0.950 . S
C2241 C2236 1.363 . S
C2241 C2240 1.415 . S
H2242 C2239 0.999 . S
H2243 C2224 0.913 . S
H2244 C2262 0.951 . S
H2245 C2264 0.951 . S
H2246 C2266 0.950 . S
H2247 C2267 0.950 . S
H2248 C2269 0.950 . S
H2249 C2272 0.950 . S
H2250 C2273 0.950 . S
H2251 C2275 0.950 . S
H2252 C2276 0.950 . S
H2253 C2277 0.951 . S
H2254 C2279 0.951 . S
H2255 C2281 0.950 . S
H2256 C2282 0.950 . S
H2257 C2284 0.950 . S
H2258 C2287 0.950 . S
H2259 C2288 0.950 . S
H2260 C2290 0.950 . S
H2261 C2291 0.950 . S
C2262 H2244 0.951 . S
C2262 C2263 1.366 . S
C2262 C2264 1.388 . S
C2263 C2262 1.366 . S
C2263 C2267 1.385 . S
C2264 H2245 0.951 . S
C2264 C2262 1.388 . S
C2264 C2265 1.366 . S
C2265 C2264 1.366 . S
C2265 C2266 1.414 . S
C2265 C2268 1.499 . S
C2266 H2246 0.950 . S
C2266 C2265 1.414 . S
C2266 C2267 1.374 . S
C2267 H2247 0.950 . S
C2267 C2263 1.385 . S
C2267 C2266 1.374 . S
C2268 C2265 1.499 . S
C2268 C2269 1.373 . S
C2268 C2270 1.389 . S
C2269 H2248 0.950 . S
C2269 C2268 1.373 . S
C2269 C2285 1.377 . S
C2270 C2268 1.389 . S
C2270 C2271 1.524 . S
C2270 C2284 1.377 . S
C2271 C2270 1.524 . S
C2271 C2272 1.397 . S
C2271 C2276 1.363 . S
C2272 H2249 0.950 . S
C2272 C2271 1.397 . S
C2272 C2273 1.334 . S
C2273 H2250 0.950 . S
C2273 C2272 1.334 . S
C2273 C2274 1.287 . S
C2274 C2273 1.287 . S
C2274 C2275 1.524 . S
C2274 H2293 0.913 . S
C2275 H2251 0.950 . S
C2275 C2274 1.524 . S
C2275 C2276 1.415 . S
C2276 H2252 0.950 . S
C2276 C2271 1.363 . S
C2276 C2275 1.415 . S
C2277 H2253 0.951 . S
C2277 C2278 1.366 . S
C2277 C2279 1.388 . S
C2278 C2277 1.366 . S
C2278 C2282 1.385 . S
C2279 H2254 0.951 . S
C2279 C2277 1.388 . S
C2279 C2280 1.366 . S
C2280 C2279 1.366 . S
C2280 C2281 1.414 . S
C2280 C2283 1.499 . S
C2281 H2255 0.950 . S
C2281 C2280 1.414 . S
C2281 C2282 1.374 . S
C2282 H2256 0.950 . S
C2282 C2278 1.385 . S
C2282 C2281 1.374 . S
C2283 C2280 1.499 . S
C2283 C2284 1.373 . S
C2283 C2285 1.389 . S
C2284 H2257 0.950 . S
C2284 C2270 1.377 . S
C2284 C2283 1.373 . S
C2285 C2269 1.377 . S
C2285 C2283 1.389 . S
C2285 C2286 1.524 . S
C2286 C2285 1.524 . S
C2286 C2287 1.397 . S
C2286 C2291 1.363 . S
C2287 H2258 0.950 . S
C2287 C2286 1.397 . S
C2287 C2288 1.334 . S
C2288 H2259 0.950 . S
C2288 C2287 1.334 . S
C2288 C2289 1.287 . S
C2289 C2288 1.287 . S
C2289 C2290 1.524 . S
C2289 H2292 0.999 . S
C2290 H2260 0.950 . S
C2290 C2289 1.524 . S
C2290 C2291 1.415 . S
C2291 H2261 0.950 . S
C2291 C2286 1.363 . S
C2291 C2290 1.415 . S
H2292 C2289 0.999 . S
H2293 C2274 0.913 . S
H2294 C2312 0.951 . S
H2295 C2314 0.951 . S
H2296 C2316 0.950 . S
H2297 C2317 0.950 . S
H2298 C2319 0.950 . S
H2299 C2322 0.950 . S
H2300 C2323 0.950 . S
H2301 C2325 0.950 . S
H2302 C2326 0.950 . S
H2303 C2327 0.951 . S
H2304 C2329 0.951 . S
H2305 C2331 0.950 . S
H2306 C2332 0.950 . S
H2307 C2334 0.950 . S
H2308 C2337 0.950 . S
H2309 C2338 0.950 . S
H2310 C2340 0.950 . S
H2311 C2341 0.950 . S
C2312 H2294 0.951 . S
C2312 C2313 1.366 . S
C2312 C2314 1.388 . S
C2313 C2312 1.366 . S
C2313 C2317 1.385 . S
C2314 H2295 0.951 . S
C2314 C2312 1.388 . S
C2314 C2315 1.366 . S
C2315 C2314 1.366 . S
C2315 C2316 1.414 . S
C2315 C2318 1.499 . S
C2316 H2296 0.950 . S
C2316 C2315 1.414 . S
C2316 C2317 1.374 . S
C2317 H2297 0.950 . S
C2317 C2313 1.385 . S
C2317 C2316 1.374 . S
C2318 C2315 1.499 . S
C2318 C2319 1.373 . S
C2318 C2320 1.389 . S
C2319 H2298 0.950 . S
C2319 C2318 1.373 . S
C2319 C2335 1.377 . S
C2320 C2318 1.389 . S
C2320 C2321 1.524 . S
C2320 C2334 1.377 . S
C2321 C2320 1.524 . S
C2321 C2322 1.397 . S
C2321 C2326 1.363 . S
C2322 H2299 0.950 . S
C2322 C2321 1.397 . S
C2322 C2323 1.334 . S
C2323 H2300 0.950 . S
C2323 C2322 1.334 . S
C2323 C2324 1.287 . S
C2324 C2323 1.287 . S
C2324 C2325 1.524 . S
C2324 H2343 0.913 . S
C2325 H2301 0.950 . S
C2325 C2324 1.524 . S
C2325 C2326 1.415 . S
C2326 H2302 0.950 . S
C2326 C2321 1.363 . S
C2326 C2325 1.415 . S
C2327 H2303 0.951 . S
C2327 C2328 1.366 . S
C2327 C2329 1.388 . S
C2328 C2327 1.366 . S
C2328 C2332 1.385 . S
C2329 H2304 0.951 . S
C2329 C2327 1.388 . S
C2329 C2330 1.366 . S
C2330 C2329 1.366 . S
C2330 C2331 1.414 . S
C2330 C2333 1.499 . S
C2331 H2305 0.950 . S
C2331 C2330 1.414 . S
C2331 C2332 1.374 . S
C2332 H2306 0.950 . S
C2332 C2328 1.385 . S
C2332 C2331 1.374 . S
C2333 C2330 1.499 . S
C2333 C2334 1.373 . S
C2333 C2335 1.389 . S
C2334 H2307 0.950 . S
C2334 C2320 1.377 . S
C2334 C2333 1.373 . S
C2335 C2319 1.377 . S
C2335 C2333 1.389 . S
C2335 C2336 1.524 . S
C2336 C2335 1.524 . S
C2336 C2337 1.397 . S
C2336 C2341 1.363 . S
C2337 H2308 0.950 . S
C2337 C2336 1.397 . S
C2337 C2338 1.334 . S
C2338 H2309 0.950 . S
C2338 C2337 1.334 . S
C2338 C2339 1.287 . S
C2339 C2338 1.287 . S
C2339 C2340 1.524 . S
C2339 H2342 0.999 . S
C2340 H2310 0.950 . S
C2340 C2339 1.524 . S
C2340 C2341 1.415 . S
C2341 H2311 0.950 . S
C2341 C2336 1.363 . S
C2341 C2340 1.415 . S
H2342 C2339 0.999 . S
H2343 C2324 0.913 . S
H2344 C2362 0.951 . S
H2345 C2364 0.951 . S
H2346 C2366 0.950 . S
H2347 C2367 0.950 . S
H2348 C2369 0.950 . S
H2349 C2372 0.950 . S
H2350 C2373 0.950 . S
H2351 C2375 0.950 . S
H2352 C2376 0.950 . S
H2353 C2377 0.951 . S
H2354 C2379 0.951 . S
H2355 C2381 0.950 . S
H2356 C2382 0.950 . S
H2357 C2384 0.950 . S
H2358 C2387 0.950 . S
H2359 C2388 0.950 . S
H2360 C2390 0.950 . S
H2361 C2391 0.950 . S
C2362 H2344 0.951 . S
C2362 C2363 1.366 . S
C2362 C2364 1.388 . S
C2363 C2362 1.366 . S
C2363 C2367 1.385 . S
C2364 H2345 0.951 . S
C2364 C2362 1.388 . S
C2364 C2365 1.366 . S
C2365 C2364 1.366 . S
C2365 C2366 1.414 . S
C2365 C2368 1.499 . S
C2366 H2346 0.950 . S
C2366 C2365 1.414 . S
C2366 C2367 1.374 . S
C2367 H2347 0.950 . S
C2367 C2363 1.385 . S
C2367 C2366 1.374 . S
C2368 C2365 1.499 . S
C2368 C2369 1.373 . S
C2368 C2370 1.389 . S
C2369 H2348 0.950 . S
C2369 C2368 1.373 . S
C2369 C2385 1.377 . S
C2370 C2368 1.389 . S
C2370 C2371 1.524 . S
C2370 C2384 1.377 . S
C2371 C2370 1.524 . S
C2371 C2372 1.397 . S
C2371 C2376 1.363 . S
C2372 H2349 0.950 . S
C2372 C2371 1.397 . S
C2372 C2373 1.334 . S
C2373 H2350 0.950 . S
C2373 C2372 1.334 . S
C2373 C2374 1.287 . S
C2374 C2373 1.287 . S
C2374 C2375 1.524 . S
C2374 H2393 0.913 . S
C2375 H2351 0.950 . S
C2375 C2374 1.524 . S
C2375 C2376 1.415 . S
C2376 H2352 0.950 . S
C2376 C2371 1.363 . S
C2376 C2375 1.415 . S
C2377 H2353 0.951 . S
C2377 C2378 1.366 . S
C2377 C2379 1.388 . S
C2378 C2377 1.366 . S
C2378 C2382 1.385 . S
C2379 H2354 0.951 . S
C2379 C2377 1.388 . S
C2379 C2380 1.366 . S
C2380 C2379 1.366 . S
C2380 C2381 1.414 . S
C2380 C2383 1.499 . S
C2381 H2355 0.950 . S
C2381 C2380 1.414 . S
C2381 C2382 1.374 . S
C2382 H2356 0.950 . S
C2382 C2378 1.385 . S
C2382 C2381 1.374 . S
C2383 C2380 1.499 . S
C2383 C2384 1.373 . S
C2383 C2385 1.389 . S
C2384 H2357 0.950 . S
C2384 C2370 1.377 . S
C2384 C2383 1.373 . S
C2385 C2369 1.377 . S
C2385 C2383 1.389 . S
C2385 C2386 1.524 . S
C2386 C2385 1.524 . S
C2386 C2387 1.397 . S
C2386 C2391 1.363 . S
C2387 H2358 0.950 . S
C2387 C2386 1.397 . S
C2387 C2388 1.334 . S
C2388 H2359 0.950 . S
C2388 C2387 1.334 . S
C2388 C2389 1.287 . S
C2389 C2388 1.287 . S
C2389 C2390 1.524 . S
C2389 H2392 0.999 . S
C2390 H2360 0.950 . S
C2390 C2389 1.524 . S
C2390 C2391 1.415 . S
C2391 H2361 0.950 . S
C2391 C2386 1.363 . S
C2391 C2390 1.415 . S
H2392 C2389 0.999 . S
H2393 C2374 0.913 . S
H2394 C2412 0.951 . S
H2395 C2414 0.951 . S
H2396 C2416 0.950 . S
H2397 C2417 0.950 . S
H2398 C2419 0.950 . S
H2399 C2422 0.950 . S
H2400 C2423 0.950 . S
H2401 C2425 0.950 . S
H2402 C2426 0.950 . S
H2403 C2427 0.951 . S
H2404 C2429 0.951 . S
H2405 C2431 0.950 . S
H2406 C2432 0.950 . S
H2407 C2434 0.950 . S
H2408 C2437 0.950 . S
H2409 C2438 0.950 . S
H2410 C2440 0.950 . S
H2411 C2441 0.950 . S
C2412 H2394 0.951 . S
C2412 C2413 1.366 . S
C2412 C2414 1.388 . S
C2413 C2412 1.366 . S
C2413 C2417 1.385 . S
C2414 H2395 0.951 . S
C2414 C2412 1.388 . S
C2414 C2415 1.366 . S
C2415 C2414 1.366 . S
C2415 C2416 1.414 . S
C2415 C2418 1.499 . S
C2416 H2396 0.950 . S
C2416 C2415 1.414 . S
C2416 C2417 1.374 . S
C2417 H2397 0.950 . S
C2417 C2413 1.385 . S
C2417 C2416 1.374 . S
C2418 C2415 1.499 . S
C2418 C2419 1.373 . S
C2418 C2420 1.389 . S
C2419 H2398 0.950 . S
C2419 C2418 1.373 . S
C2419 C2435 1.377 . S
C2420 C2418 1.389 . S
C2420 C2421 1.524 . S
C2420 C2434 1.377 . S
C2421 C2420 1.524 . S
C2421 C2422 1.397 . S
C2421 C2426 1.363 . S
C2422 H2399 0.950 . S
C2422 C2421 1.397 . S
C2422 C2423 1.334 . S
C2423 H2400 0.950 . S
C2423 C2422 1.334 . S
C2423 C2424 1.287 . S
C2424 C2423 1.287 . S
C2424 C2425 1.524 . S
C2424 H2443 0.913 . S
C2425 H2401 0.950 . S
C2425 C2424 1.524 . S
C2425 C2426 1.415 . S
C2426 H2402 0.950 . S
C2426 C2421 1.363 . S
C2426 C2425 1.415 . S
C2427 H2403 0.951 . S
C2427 C2428 1.366 . S
C2427 C2429 1.388 . S
C2428 C2427 1.366 . S
C2428 C2432 1.385 . S
C2429 H2404 0.951 . S
C2429 C2427 1.388 . S
C2429 C2430 1.366 . S
C2430 C2429 1.366 . S
C2430 C2431 1.414 . S
C2430 C2433 1.499 . S
C2431 H2405 0.950 . S
C2431 C2430 1.414 . S
C2431 C2432 1.374 . S
C2432 H2406 0.950 . S
C2432 C2428 1.385 . S
C2432 C2431 1.374 . S
C2433 C2430 1.499 . S
C2433 C2434 1.373 . S
C2433 C2435 1.389 . S
C2434 H2407 0.950 . S
C2434 C2420 1.377 . S
C2434 C2433 1.373 . S
C2435 C2419 1.377 . S
C2435 C2433 1.389 . S
C2435 C2436 1.524 . S
C2436 C2435 1.524 . S
C2436 C2437 1.397 . S
C2436 C2441 1.363 . S
C2437 H2408 0.950 . S
C2437 C2436 1.397 . S
C2437 C2438 1.334 . S
C2438 H2409 0.950 . S
C2438 C2437 1.334 . S
C2438 C2439 1.287 . S
C2439 C2438 1.287 . S
C2439 C2440 1.524 . S
C2439 H2442 0.999 . S
C2440 H2410 0.950 . S
C2440 C2439 1.524 . S
C2440 C2441 1.415 . S
C2441 H2411 0.950 . S
C2441 C2436 1.363 . S
C2441 C2440 1.415 . S
H2442 C2439 0.999 . S
H2443 C2424 0.913 . S
H2444 C2462 0.951 . S
H2445 C2464 0.951 . S
H2446 C2466 0.950 . S
H2447 C2467 0.950 . S
H2448 C2469 0.950 . S
H2449 C2472 0.950 . S
H2450 C2473 0.950 . S
H2451 C2475 0.950 . S
H2452 C2476 0.950 . S
H2453 C2477 0.951 . S
H2454 C2479 0.951 . S
H2455 C2481 0.950 . S
H2456 C2482 0.950 . S
H2457 C2484 0.950 . S
H2458 C2487 0.950 . S
H2459 C2488 0.950 . S
H2460 C2490 0.950 . S
H2461 C2491 0.950 . S
C2462 H2444 0.951 . S
C2462 C2463 1.366 . S
C2462 C2464 1.388 . S
C2463 C2462 1.366 . S
C2463 C2467 1.385 . S
C2464 H2445 0.951 . S
C2464 C2462 1.388 . S
C2464 C2465 1.366 . S
C2465 C2464 1.366 . S
C2465 C2466 1.414 . S
C2465 C2468 1.499 . S
C2466 H2446 0.950 . S
C2466 C2465 1.414 . S
C2466 C2467 1.374 . S
C2467 H2447 0.950 . S
C2467 C2463 1.385 . S
C2467 C2466 1.374 . S
C2468 C2465 1.499 . S
C2468 C2469 1.373 . S
C2468 C2470 1.389 . S
C2469 H2448 0.950 . S
C2469 C2468 1.373 . S
C2469 C2485 1.377 . S
C2470 C2468 1.389 . S
C2470 C2471 1.524 . S
C2470 C2484 1.377 . S
C2471 C2470 1.524 . S
C2471 C2472 1.397 . S
C2471 C2476 1.363 . S
C2472 H2449 0.950 . S
C2472 C2471 1.397 . S
C2472 C2473 1.334 . S
C2473 H2450 0.950 . S
C2473 C2472 1.334 . S
C2473 C2474 1.287 . S
C2474 C2473 1.287 . S
C2474 C2475 1.524 . S
C2474 H2493 0.913 . S
C2475 H2451 0.950 . S
C2475 C2474 1.524 . S
C2475 C2476 1.415 . S
C2476 H2452 0.950 . S
C2476 C2471 1.363 . S
C2476 C2475 1.415 . S
C2477 H2453 0.951 . S
C2477 C2478 1.366 . S
C2477 C2479 1.388 . S
C2478 C2477 1.366 . S
C2478 C2482 1.385 . S
C2479 H2454 0.951 . S
C2479 C2477 1.388 . S
C2479 C2480 1.366 . S
C2480 C2479 1.366 . S
C2480 C2481 1.414 . S
C2480 C2483 1.499 . S
C2481 H2455 0.950 . S
C2481 C2480 1.414 . S
C2481 C2482 1.374 . S
C2482 H2456 0.950 . S
C2482 C2478 1.385 . S
C2482 C2481 1.374 . S
C2483 C2480 1.499 . S
C2483 C2484 1.373 . S
C2483 C2485 1.389 . S
C2484 H2457 0.950 . S
C2484 C2470 1.377 . S
C2484 C2483 1.373 . S
C2485 C2469 1.377 . S
C2485 C2483 1.389 . S
C2485 C2486 1.524 . S
C2486 C2485 1.524 . S
C2486 C2487 1.397 . S
C2486 C2491 1.363 . S
C2487 H2458 0.950 . S
C2487 C2486 1.397 . S
C2487 C2488 1.334 . S
C2488 H2459 0.950 . S
C2488 C2487 1.334 . S
C2488 C2489 1.287 . S
C2489 C2488 1.287 . S
C2489 C2490 1.524 . S
C2489 H2492 0.999 . S
C2490 H2460 0.950 . S
C2490 C2489 1.524 . S
C2490 C2491 1.415 . S
C2491 H2461 0.950 . S
C2491 C2486 1.363 . S
C2491 C2490 1.415 . S
H2492 C2489 0.999 . S
H2493 C2474 0.913 . S
H2494 C2512 0.951 . S
H2495 C2514 0.951 . S
H2496 C2516 0.950 . S
H2497 C2517 0.950 . S
H2498 C2519 0.950 . S
H2499 C2522 0.950 . S
H2500 C2523 0.950 . S
H2501 C2525 0.950 . S
H2502 C2526 0.950 . S
H2503 C2527 0.951 . S
H2504 C2529 0.951 . S
H2505 C2531 0.950 . S
H2506 C2532 0.950 . S
H2507 C2534 0.950 . S
H2508 C2537 0.950 . S
H2509 C2538 0.950 . S
H2510 C2540 0.950 . S
H2511 C2541 0.950 . S
C2512 H2494 0.951 . S
C2512 C2513 1.366 . S
C2512 C2514 1.388 . S
C2513 C2512 1.366 . S
C2513 C2517 1.385 . S
C2514 H2495 0.951 . S
C2514 C2512 1.388 . S
C2514 C2515 1.366 . S
C2515 C2514 1.366 . S
C2515 C2516 1.414 . S
C2515 C2518 1.499 . S
C2516 H2496 0.950 . S
C2516 C2515 1.414 . S
C2516 C2517 1.374 . S
C2517 H2497 0.950 . S
C2517 C2513 1.385 . S
C2517 C2516 1.374 . S
C2518 C2515 1.499 . S
C2518 C2519 1.373 . S
C2518 C2520 1.389 . S
C2519 H2498 0.950 . S
C2519 C2518 1.373 . S
C2519 C2535 1.377 . S
C2520 C2518 1.389 . S
C2520 C2521 1.524 . S
C2520 C2534 1.377 . S
C2521 C2520 1.524 . S
C2521 C2522 1.397 . S
C2521 C2526 1.363 . S
C2522 H2499 0.950 . S
C2522 C2521 1.397 . S
C2522 C2523 1.334 . S
C2523 H2500 0.950 . S
C2523 C2522 1.334 . S
C2523 C2524 1.287 . S
C2524 C2523 1.287 . S
C2524 C2525 1.524 . S
C2524 H2543 0.913 . S
C2525 H2501 0.950 . S
C2525 C2524 1.524 . S
C2525 C2526 1.415 . S
C2526 H2502 0.950 . S
C2526 C2521 1.363 . S
C2526 C2525 1.415 . S
C2527 H2503 0.951 . S
C2527 C2528 1.366 . S
C2527 C2529 1.388 . S
C2528 C2527 1.366 . S
C2528 C2532 1.385 . S
C2529 H2504 0.951 . S
C2529 C2527 1.388 . S
C2529 C2530 1.366 . S
C2530 C2529 1.366 . S
C2530 C2531 1.414 . S
C2530 C2533 1.499 . S
C2531 H2505 0.950 . S
C2531 C2530 1.414 . S
C2531 C2532 1.374 . S
C2532 H2506 0.950 . S
C2532 C2528 1.385 . S
C2532 C2531 1.374 . S
C2533 C2530 1.499 . S
C2533 C2534 1.373 . S
C2533 C2535 1.389 . S
C2534 H2507 0.950 . S
C2534 C2520 1.377 . S
C2534 C2533 1.373 . S
C2535 C2519 1.377 . S
C2535 C2533 1.389 . S
C2535 C2536 1.524 . S
C2536 C2535 1.524 . S
C2536 C2537 1.397 . S
C2536 C2541 1.363 . S
C2537 H2508 0.950 . S
C2537 C2536 1.397 . S
C2537 C2538 1.334 . S
C2538 H2509 0.950 . S
C2538 C2537 1.334 . S
C2538 C2539 1.287 . S
C2539 C2538 1.287 . S
C2539 C2540 1.524 . S
C2539 H2542 0.999 . S
C2540 H2510 0.950 . S
C2540 C2539 1.524 . S
C2540 C2541 1.415 . S
C2541 H2511 0.950 . S
C2541 C2536 1.363 . S
C2541 C2540 1.415 . S
H2542 C2539 0.999 . S
H2543 C2524 0.913 . S
C563 C9 1.388 . S
C578 C519 1.388 . S
C613 C43 1.387 . S
C628 C417 1.388 . S
C663 C451 1.387 . S
C678 C77 1.388 . S
C713 C111 1.388 . S
C728 C485 1.387 . S
C763 C145 1.388 . S
C778 C315 1.388 . S
C813 C349 1.387 . S
C828 C179 1.388 . S
C863 C383 1.387 . S
C878 C213 1.388 . S
C913 C281 1.387 . S
C928 C247 1.388 . S
C963 C107 1.521 . S
C978 C33 1.525 . S
C1013 C5 1.521 . S
C1028 C67 1.525 . S
C1063 C101 1.525 . S
C1078 C39 1.521 . S
C1113 C135 1.525 . S
C1128 C73 1.521 . S
C1163 C175 1.521 . S
C1178 C169 1.525 . S
C1213 C209 1.521 . S
C1228 C203 1.525 . S
C1263 C243 1.521 . S
C1278 C237 1.525 . S
C1313 C141 1.521 . S
C1328 C271 1.525 . S
C1363 C379 1.521 . S
C1378 C305 1.525 . S
C1413 C339 1.525 . S
C1428 C277 1.521 . S
C1463 C311 1.521 . S
C1478 C373 1.525 . S
C1513 C345 1.521 . S
C1528 C407 1.525 . S
C1563 C447 1.521 . S
C1578 C441 1.525 . S
C1613 C481 1.521 . S
C1628 C475 1.525 . S
C1663 C515 1.521 . S
C1678 C509 1.525 . S
C1713 C413 1.521 . S
C1728 C543 1.525 . S
C1763 C206 1.341 . S
C1778 C2 1.341 . S
C1813 C240 1.342 . S
C1828 C36 1.341 . S
C1863 C70 1.341 . S
C1878 C138 1.342 . S
C1913 C172 1.341 . S
C1928 C104 1.341 . S
C1963 C88 1.479 . S
C1978 C156 1.479 . S
C2013 C190 1.479 . S
C2028 C122 1.479 . S
C2063 C20 1.479 . S
C2078 C224 1.478 . S
C2113 C258 1.479 . S
C2128 C54 1.479 . S
C2163 C478 1.341 . S
C2178 C274 1.342 . S
C2213 C512 1.341 . S
C2228 C308 1.342 . S
C2263 C410 1.341 . S
C2278 C342 1.342 . S
C2313 C376 1.341 . S
C2328 C444 1.342 . S
C2363 C428 1.479 . S
C2378 C360 1.479 . S
C2413 C394 1.479 . S
C2428 C462 1.479 . S
C2463 C292 1.478 . S
C2478 C496 1.479 . S
C2513 C530 1.479 . S
C2528 C326 1.479 . S
