# Generated by pormake.
# Topology vbf, (5)-cn, num edge types: 1
# Building blocks:
#     Node 0, Type 0, BuildingBlock: BEQFEK_clean_sbu_0, # of connection points: 5
#     Node 1, Type 0, BuildingBlock: BEQFEK_clean_sbu_0, # of connection points: 5
#     Node 2, Type 0, BuildingBlock: BEQFEK_clean_sbu_0, # of connection points: 5
#     Node 3, Type 0, BuildingBlock: BEQFEK_clean_sbu_0, # of connection points: 5
#     Node 4, Type 0, BuildingBlock: BEQFEK_clean_sbu_0, # of connection points: 5
#     Node 5, Type 0, BuildingBlock: BEQFEK_clean_sbu_0, # of connection points: 5
#     Node 6, Type 0, BuildingBlock: BEQFEK_clean_sbu_0, # of connection points: 5
#     Node 7, Type 0, BuildingBlock: BEQFEK_clean_sbu_0, # of connection points: 5
#     Node 8, Type 0, BuildingBlock: BEQFEK_clean_sbu_0, # of connection points: 5
#     Node 9, Type 0, BuildingBlock: BEQFEK_clean_sbu_0, # of connection points: 5
#     Node 10, Type 0, BuildingBlock: BEQFEK_clean_sbu_0, # of connection points: 5
#     Node 11, Type 0, BuildingBlock: BEQFEK_clean_sbu_0, # of connection points: 5
#     Node 12, Type 0, BuildingBlock: BEQFEK_clean_sbu_0, # of connection points: 5
#     Node 13, Type 0, BuildingBlock: BEQFEK_clean_sbu_0, # of connection points: 5
#     Node 14, Type 0, BuildingBlock: BEQFEK_clean_sbu_0, # of connection points: 5
#     Node 15, Type 0, BuildingBlock: BEQFEK_clean_sbu_0, # of connection points: 5
#     Edge 16, Type (0, 0), BuildingBlock: XIVTED_clean_linker_0, # of connection points: 2
#     Edge 17, Type (0, 0), BuildingBlock: XIVTED_clean_linker_0, # of connection points: 2
#     Edge 18, Type (0, 0), BuildingBlock: XIVTED_clean_linker_0, # of connection points: 2
#     Edge 19, Type (0, 0), BuildingBlock: XIVTED_clean_linker_0, # of connection points: 2
#     Edge 20, Type (0, 0), BuildingBlock: XIVTED_clean_linker_0, # of connection points: 2
#     Edge 21, Type (0, 0), BuildingBlock: XIVTED_clean_linker_0, # of connection points: 2
#     Edge 22, Type (0, 0), BuildingBlock: XIVTED_clean_linker_0, # of connection points: 2
#     Edge 23, Type (0, 0), BuildingBlock: XIVTED_clean_linker_0, # of connection points: 2
#     Edge 24, Type (0, 0), BuildingBlock: XIVTED_clean_linker_0, # of connection points: 2
#     Edge 25, Type (0, 0), BuildingBlock: XIVTED_clean_linker_0, # of connection points: 2
#     Edge 26, Type (0, 0), BuildingBlock: XIVTED_clean_linker_0, # of connection points: 2
#     Edge 27, Type (0, 0), BuildingBlock: XIVTED_clean_linker_0, # of connection points: 2
#     Edge 28, Type (0, 0), BuildingBlock: XIVTED_clean_linker_0, # of connection points: 2
#     Edge 29, Type (0, 0), BuildingBlock: XIVTED_clean_linker_0, # of connection points: 2
#     Edge 30, Type (0, 0), BuildingBlock: XIVTED_clean_linker_0, # of connection points: 2
#     Edge 31, Type (0, 0), BuildingBlock: XIVTED_clean_linker_0, # of connection points: 2
#     Edge 32, Type (0, 0), BuildingBlock: XIVTED_clean_linker_0, # of connection points: 2
#     Edge 33, Type (0, 0), BuildingBlock: XIVTED_clean_linker_0, # of connection points: 2
#     Edge 34, Type (0, 0), BuildingBlock: XIVTED_clean_linker_0, # of connection points: 2
#     Edge 35, Type (0, 0), BuildingBlock: XIVTED_clean_linker_0, # of connection points: 2
#     Edge 36, Type (0, 0), BuildingBlock: XIVTED_clean_linker_0, # of connection points: 2
#     Edge 37, Type (0, 0), BuildingBlock: XIVTED_clean_linker_0, # of connection points: 2
#     Edge 38, Type (0, 0), BuildingBlock: XIVTED_clean_linker_0, # of connection points: 2
#     Edge 39, Type (0, 0), BuildingBlock: XIVTED_clean_linker_0, # of connection points: 2
#     Edge 40, Type (0, 0), BuildingBlock: XIVTED_clean_linker_0, # of connection points: 2
#     Edge 41, Type (0, 0), BuildingBlock: XIVTED_clean_linker_0, # of connection points: 2
#     Edge 42, Type (0, 0), BuildingBlock: XIVTED_clean_linker_0, # of connection points: 2
#     Edge 43, Type (0, 0), BuildingBlock: XIVTED_clean_linker_0, # of connection points: 2
#     Edge 44, Type (0, 0), BuildingBlock: XIVTED_clean_linker_0, # of connection points: 2
#     Edge 45, Type (0, 0), BuildingBlock: XIVTED_clean_linker_0, # of connection points: 2
#     Edge 46, Type (0, 0), BuildingBlock: XIVTED_clean_linker_0, # of connection points: 2
#     Edge 47, Type (0, 0), BuildingBlock: XIVTED_clean_linker_0, # of connection points: 2
#     Edge 48, Type (0, 0), BuildingBlock: XIVTED_clean_linker_0, # of connection points: 2
#     Edge 49, Type (0, 0), BuildingBlock: XIVTED_clean_linker_0, # of connection points: 2
#     Edge 50, Type (0, 0), BuildingBlock: XIVTED_clean_linker_0, # of connection points: 2
#     Edge 51, Type (0, 0), BuildingBlock: XIVTED_clean_linker_0, # of connection points: 2
#     Edge 52, Type (0, 0), BuildingBlock: XIVTED_clean_linker_0, # of connection points: 2
#     Edge 53, Type (0, 0), BuildingBlock: XIVTED_clean_linker_0, # of connection points: 2
#     Edge 54, Type (0, 0), BuildingBlock: XIVTED_clean_linker_0, # of connection points: 2
#     Edge 55, Type (0, 0), BuildingBlock: XIVTED_clean_linker_0, # of connection points: 2
# Relax obj value: 0.043
# Max RMSD: 0.098
# Mean RMSD: 0.098
data_MOF--net-vbf--node1-BEQFEK_clean_sbu_0--edge1-XIVTED_clean_linker_0
_symmetry_space_group_name_H-M    P1
_symmetry_Int_Tables_number       1
_symmetry_cell_setting            triclinic
loop_
_symmetry_equiv_pos_as_xyz
'x, y, z'
_cell_length_a     37.516308
_cell_length_b     85.82796
_cell_length_c     29.59897
_cell_angle_alpha  89.992033
_cell_angle_beta   89.992308
_cell_angle_gamma 90.007012
loop_
_atom_site_label
_atom_site_type_symbol
_atom_site_fract_x
_atom_site_fract_y
_atom_site_fract_z
_atom_type_partial_charge
Co0 Co 0.10529 0.31054 0.95563 0.0
Co1 Co 0.06009 0.28535 0.00738 0.0
C2 C 0.1404 0.28433 0.0045 0.0
O3 O 0.14246 0.2969 0.98187 0.0
O4 O 0.11037 0.27864 0.01581 0.0
C5 C 0.15638 0.33504 0.94625 0.0
O6 O 0.16724 0.32989 0.98572 0.0
C7 C 0.03541 0.26925 0.08958 0.0
C8 C 0.98776 0.2568 0.06476 0.0
C9 C 0.00808 0.25935 0.1032 0.0
N10 N 0.03107 0.2725 0.0454 0.0
N11 N 0.00256 0.265 0.03081 0.0
C12 C 0.06624 0.27491 0.11722 0.0
H13 H 0.0882 0.27905 0.09535 0.0
H14 H 0.05763 0.28484 0.13852 0.0
H15 H 0.076 0.2655 0.13978 0.0
C16 C 0.06209 0.33166 0.01319 0.0
N17 N 0.07239 0.3173 1.00016 0.0
N18 N 0.05321 0.30682 0.02178 0.0
C19 C 0.02995 0.31425 0.04914 0.0
C20 C 0.03503 0.33019 0.04481 0.0
C21 C 0.07806 0.34646 0.99571 0.0
H22 H 0.07749 0.34643 0.95825 0.0
H23 H 0.10624 0.34715 0.00672 0.0
H24 H 0.06394 0.35691 0.00849 0.0
O25 O 0.07978 0.29908 0.90704 0.0
O26 O 0.04697 0.28146 0.94319 0.0
H27 H 0.98892 0.29695 0.05491 0.0
H28 H 0.97973 0.31478 0.08512 0.0
C29 C 0.00091 0.30641 0.07534 0.0
H30 H 0.01227 0.30129 0.10652 0.0
H31 H 0.99324 0.26544 0.99761 0.0
O32 O 0.12985 0.32855 0.92728 0.0
C33 C 0.05748 0.28786 0.90663 0.0
Co34 Co 0.89681 0.69125 0.95381 0.0
Co35 Co 0.93929 0.71664 0.008 0.0
C36 C 0.85975 0.71748 1.00153 0.0
O37 O 0.85944 0.70545 0.97644 0.0
O38 O 0.88874 0.72292 0.01735 0.0
C39 C 0.84639 0.66653 0.94592 0.0
O40 O 0.83698 0.67136 0.98631 0.0
C41 C 0.96241 0.73331 0.08949 0.0
C42 C 0.01133 0.74505 0.0659 0.0
C43 C 0.98996 0.74306 0.10382 0.0
N44 N 0.96768 0.72977 0.04569 0.0
N45 N 0.9968 0.73693 0.03171 0.0
C46 C 0.93263 0.72652 0.11678 0.0
H47 H 0.92076 0.71636 0.09909 0.0
H48 H 0.94241 0.72281 0.1505 0.0
H49 H 0.91152 0.73543 0.12135 0.0
C50 C 0.93812 0.67033 0.01425 0.0
N51 N 0.92825 0.68464 1.0003 0.0
N52 N 0.94692 0.69518 0.02239 0.0
C53 C 0.96961 0.68783 0.05071 0.0
C54 C 0.96443 0.67187 0.04679 0.0
C55 C 0.92479 0.65542 0.99416 0.0
H56 H 0.92317 0.65653 0.95691 0.0
H57 H 0.89772 0.65297 0.00743 0.0
H58 H 0.94242 0.64547 0.00273 0.0
O59 O 0.92373 0.7022 0.90602 0.0
O60 O 0.95268 0.72073 0.94351 0.0
H61 H 0.01007 0.70508 0.06144 0.0
H62 H 0.01552 0.68771 0.09534 0.0
C63 C 0.99585 0.69592 0.08073 0.0
H64 H 0.98139 0.70152 0.109 0.0
H65 H 0.00696 0.73612 0.99898 0.0
O66 O 0.872 0.67328 0.92571 0.0
C67 C 0.94456 0.71393 0.90656 0.0
Co68 Co 0.14419 0.55911 0.20795 0.0
Co69 Co 0.19131 0.53389 0.25718 0.0
C70 C 0.1109 0.53243 0.25671 0.0
O71 O 0.10799 0.54515 0.23494 0.0
O72 O 0.14132 0.52682 0.26668 0.0
C73 C 0.08914 0.58205 0.19517 0.0
O74 O 0.07347 0.57454 0.22834 0.0
C75 C 0.21578 0.51611 0.33614 0.0
C76 C 0.26929 0.5083 0.31475 0.0
C77 C 0.24573 0.50803 0.35081 0.0
N78 N 0.22177 0.52118 0.29379 0.0
N79 N 0.25367 0.51635 0.28107 0.0
C80 C 0.18123 0.51844 0.36062 0.0
H81 H 0.15921 0.51361 0.33999 0.0
H82 H 0.17618 0.5311 0.36488 0.0
H83 H 0.18076 0.51254 0.39388 0.0
C84 C 0.18773 0.58013 0.26485 0.0
N85 N 0.17771 0.56576 0.25168 0.0
N86 N 0.19744 0.55532 0.27256 0.0
C87 C 0.22078 0.56278 0.29972 0.0
C88 C 0.21537 0.57874 0.29576 0.0
C89 C 0.17316 0.59484 0.24492 0.0
H90 H 0.1736 0.59402 0.20753 0.0
H91 H 0.14502 0.59628 0.25569 0.0
H92 H 0.18867 0.60523 0.25543 0.0
O93 O 0.16863 0.54781 0.15821 0.0
O94 O 0.20376 0.53058 0.19243 0.0
H95 H 0.26575 0.5477 0.30758 0.0
H96 H 0.26348 0.56308 0.34931 0.0
C97 C 0.24762 0.55474 0.32899 0.0
H98 H 0.23365 0.54678 0.3525 0.0
H99 H 0.26499 0.51874 0.24962 0.0
O100 O 0.11943 0.57743 0.18125 0.0
C101 C 0.19171 0.53692 0.15656 0.0
Co102 Co 0.85569 0.44226 0.20817 0.0
Co103 Co 0.80983 0.46771 0.2575 0.0
C104 C 0.89008 0.46844 0.25829 0.0
O105 O 0.8924 0.4559 0.23553 0.0
O106 O 0.85992 0.47419 0.26877 0.0
C107 C 0.90713 0.41771 0.19966 0.0
O108 O 0.91808 0.42291 0.23904 0.0
C109 C 0.78439 0.48398 0.33806 0.0
C110 C 0.73748 0.49675 0.31248 0.0
C111 C 0.75728 0.49411 0.3514 0.0
N112 N 0.78053 0.48091 0.29378 0.0
N113 N 0.75257 0.48864 0.2786 0.0
C114 C 0.81238 0.47643 0.36665 0.0
H115 H 0.82346 0.46603 0.34934 0.0
H116 H 0.80116 0.47295 0.39984 0.0
H117 H 0.83449 0.48479 0.3723 0.0
C118 C 0.81097 0.4214 0.26455 0.0
N119 N 0.82156 0.4357 0.25144 0.0
N120 N 0.80199 0.44627 0.2721 0.0
C121 C 0.77821 0.43894 0.299 0.0
C122 C 0.78328 0.42297 0.29525 0.0
C123 C 0.82749 0.40655 0.24828 0.0
H124 H 0.85563 0.40612 0.25959 0.0
H125 H 0.81358 0.39612 0.26158 0.0
H126 H 0.8272 0.40629 0.21081 0.0
O127 O 0.83165 0.45362 0.15834 0.0
O128 O 0.79862 0.47157 0.19266 0.0
H129 H 0.72741 0.43866 0.33356 0.0
H130 H 0.76023 0.45172 0.35656 0.0
C131 C 0.74914 0.44691 0.32479 0.0
H132 H 0.73797 0.45661 0.30456 0.0
H133 H 0.74364 0.48828 0.24523 0.0
O134 O 0.88051 0.42415 0.18075 0.0
C135 C 0.80976 0.46497 0.15672 0.0
Co136 Co 0.10425 0.81042 0.4536 0.0
Co137 Co 0.0602 0.78523 0.50749 0.0
C138 C 0.14027 0.78391 0.50007 0.0
O139 O 0.14134 0.79632 0.47665 0.0
O140 O 0.11086 0.77841 0.51444 0.0
C141 C 0.15545 0.83477 0.44445 0.0
O142 O 0.16544 0.82975 0.48442 0.0
C143 C 0.0371 0.76864 0.5901 0.0
C144 C 0.98752 0.75731 0.56695 0.0
C145 C 0.00935 0.75907 0.60439 0.0
N146 N 0.03156 0.77247 0.54649 0.0
N147 N 0.00188 0.76562 0.53293 0.0
C148 C 0.06922 0.77348 0.61669 0.0
H149 H 0.09081 0.77757 0.5942 0.0
H150 H 0.0621 0.78323 0.63949 0.0
H151 H 0.07888 0.76364 0.63774 0.0
C152 C 0.06303 0.83156 0.51324 0.0
N153 N 0.07283 0.81718 0.49981 0.0
N154 N 0.05378 0.80675 0.52184 0.0
C155 C 0.03088 0.81424 0.54954 0.0
C156 C 0.03628 0.83018 0.54529 0.0
C157 C 0.0767 0.84635 0.49276 0.0
H158 H 0.07784 0.84517 0.45549 0.0
H159 H 0.10404 0.84859 0.50542 0.0
H160 H 0.05957 0.85644 0.5015 0.0
O161 O 0.07762 0.79912 0.40628 0.0
O162 O 0.04561 0.78139 0.44326 0.0
H163 H 0.9885 0.7978 0.55846 0.0
H164 H 0.98535 0.81468 0.59487 0.0
C165 C 0.0039 0.8063 0.57883 0.0
H166 H 0.01785 0.79987 0.60598 0.0
H167 H 0.99146 0.7666 0.50036 0.0
O168 O 0.12916 0.82828 0.42493 0.0
C169 C 0.05545 0.78786 0.40645 0.0
Co170 Co 0.89369 0.19301 0.45508 0.0
Co171 Co 0.93949 0.21782 0.50762 0.0
C172 C 0.85946 0.21915 0.50577 0.0
O173 O 0.85729 0.20663 0.48296 0.0
O174 O 0.88953 0.22482 0.51684 0.0
C175 C 0.84536 0.16733 0.44892 0.0
O176 O 0.8414 0.1699 0.49238 0.0
C177 C 0.96485 0.23375 0.58991 0.0
C178 C 0.01279 0.24595 0.56494 0.0
C179 C 0.99242 0.24355 0.60342 0.0
N180 N 0.9691 0.23042 0.54575 0.0
N181 N 0.99781 0.23777 0.53109 0.0
C182 C 0.93389 0.22827 0.61765 0.0
H183 H 0.91195 0.22406 0.59589 0.0
H184 H 0.94236 0.21842 0.63936 0.0
H185 H 0.92418 0.2378 0.63981 0.0
C186 C 0.93907 0.17139 0.50904 0.0
N187 N 0.92748 0.18579 0.49817 0.0
N188 N 0.94616 0.19618 0.52089 0.0
C189 C 0.96992 0.18865 0.54729 0.0
C190 C 0.966 0.17274 0.54088 0.0
C191 C 0.92522 0.15663 0.48855 0.0
H192 H 0.92026 0.15834 0.45196 0.0
H193 H 0.89978 0.15346 0.50521 0.0
H194 H 0.94394 0.14679 0.49322 0.0
O195 O 0.91887 0.20462 0.40673 0.0
O196 O 0.95227 0.22193 0.4433 0.0
H197 H 0.01112 0.20579 0.55411 0.0
H198 H 0.01927 0.18806 0.58525 0.0
C199 C 0.99847 0.19645 0.5744 0.0
H200 H 0.98645 0.20176 0.6049 0.0
H201 H 0.00708 0.23727 0.49788 0.0
O202 O 0.867 0.17565 0.42631 0.0
C203 C 0.94143 0.21574 0.40658 0.0
Co204 Co 0.14885 0.06064 0.69878 0.0
Co205 Co 0.18846 0.03622 0.76036 0.0
C206 C 0.11021 0.03459 0.74757 0.0
O207 O 0.11138 0.04601 0.72015 0.0
O208 O 0.13807 0.02974 0.76764 0.0
C209 C 0.0985 0.08507 0.68926 0.0
O210 O 0.09005 0.08053 0.73029 0.0
C211 C 0.20974 0.01839 0.84154 0.0
C212 C 0.26571 0.01255 0.8256 0.0
C213 C 0.23987 0.01105 0.85878 0.0
N214 N 0.21773 0.02417 0.80046 0.0
N215 N 0.25115 0.02055 0.79109 0.0
C216 C 0.17331 0.0192 0.86207 0.0
H217 H 0.15393 0.01371 0.8387 0.0
H218 H 0.1654 0.03157 0.86628 0.0
H219 H 0.17177 0.01304 0.8949 0.0
C220 C 0.18763 0.08257 0.75837 0.0
N221 N 0.17791 0.06803 0.74648 0.0
N222 N 0.19419 0.05793 0.77285 0.0
C223 C 0.21429 0.06581 0.80305 0.0
C224 C 0.21077 0.08169 0.79485 0.0
C225 C 0.17802 0.09691 0.73225 0.0
H226 H 0.17649 0.09421 0.69569 0.0
H227 H 0.15162 0.10117 0.74374 0.0
H228 H 0.19789 0.10632 0.73743 0.0
O229 O 0.17872 0.04977 0.65419 0.0
O230 O 0.20358 0.03128 0.6966 0.0
H231 H 0.25819 0.05172 0.82419 0.0
H232 H 0.2465 0.06694 0.86383 0.0
C233 C 0.23579 0.05828 0.83958 0.0
H234 H 0.21883 0.04994 0.85835 0.0
H235 H 0.26415 0.02368 0.76126 0.0
O236 O 0.12367 0.07815 0.66863 0.0
C237 C 0.19847 0.03779 0.65831 0.0
Co238 Co 0.85193 0.94254 0.70061 0.0
Co239 Co 0.8115 0.96796 0.75744 0.0
C240 C 0.89026 0.9691 0.74648 0.0
O241 O 0.8894 0.95729 0.72051 0.0
O242 O 0.86213 0.97426 0.76527 0.0
C243 C 0.90652 0.91988 0.68709 0.0
O244 O 0.92155 0.92748 0.72057 0.0
C245 C 0.78913 0.98431 0.8399 0.0
C246 C 0.73953 0.99582 0.81772 0.0
C247 C 0.76138 0.99378 0.85515 0.0
N248 N 0.7835 0.98096 0.79604 0.0
N249 N 0.75398 0.98798 0.78291 0.0
C250 C 0.81936 0.97756 0.86645 0.0
H251 H 0.83128 0.96753 0.84822 0.0
H252 H 0.81004 0.9737 0.90023 0.0
H253 H 0.84029 0.98656 0.87093 0.0
C254 C 0.81299 0.92165 0.76267 0.0
N255 N 0.8224 0.93602 0.74884 0.0
N256 N 0.80412 0.94647 0.77172 0.0
C257 C 0.78193 0.93898 0.80041 0.0
C258 C 0.78711 0.92303 0.79586 0.0
C259 C 0.82629 0.90691 0.74153 0.0
H260 H 0.82363 0.90769 0.70428 0.0
H261 H 0.85497 0.90546 0.74964 0.0
H262 H 0.81142 0.89655 0.75368 0.0
O263 O 0.8228 0.95303 0.654 0.0
O264 O 0.79747 0.97221 0.69323 0.0
H265 H 0.74137 0.95609 0.81231 0.0
H266 H 0.7366 0.93864 0.846 0.0
C267 C 0.75596 0.94693 0.83113 0.0
H268 H 0.7707 0.9525 0.85919 0.0
H269 H 0.74342 0.98723 0.75037 0.0
O270 O 0.87618 0.92429 0.67281 0.0
C271 C 0.80323 0.96515 0.65596 0.0
Co272 Co 0.60626 0.31009 0.45937 0.0
Co273 Co 0.55938 0.28504 0.50929 0.0
C274 C 0.63965 0.28361 0.50914 0.0
O275 O 0.64268 0.29608 0.48614 0.0
O276 O 0.60917 0.27828 0.51999 0.0
C277 C 0.65804 0.33461 0.45008 0.0
O278 O 0.66918 0.32951 0.48948 0.0
C279 C 0.53474 0.26892 0.59052 0.0
C280 C 0.4873 0.25624 0.56621 0.0
C281 C 0.50781 0.25881 0.60459 0.0
N282 N 0.53012 0.27204 0.54637 0.0
N283 N 0.50182 0.26437 0.53196 0.0
C284 C 0.56336 0.27638 0.61831 0.0
H285 H 0.57415 0.2868 0.6008 0.0
H286 H 0.55283 0.27982 0.6519 0.0
H287 H 0.58552 0.26798 0.62308 0.0
C288 C 0.56256 0.33129 0.51619 0.0
N289 N 0.57262 0.31691 0.50308 0.0
N290 N 0.55266 0.3065 0.52382 0.0
C291 C 0.52922 0.31398 0.55078 0.0
C292 C 0.53488 0.3299 0.54699 0.0
C293 C 0.57942 0.34603 0.49965 0.0
H294 H 0.60758 0.34635 0.5109 0.0
H295 H 0.56579 0.35654 0.51287 0.0
H296 H 0.57904 0.34624 0.46219 0.0
O297 O 0.58126 0.29889 0.40996 0.0
O298 O 0.54758 0.28122 0.44457 0.0
H299 H 0.47854 0.31459 0.58564 0.0
H300 H 0.51088 0.30121 0.60818 0.0
C301 C 0.49988 0.3062 0.57658 0.0
H302 H 0.48823 0.29664 0.55622 0.0
H303 H 0.49235 0.26474 0.49883 0.0
O304 O 0.63138 0.32809 0.43146 0.0
C305 C 0.55884 0.28773 0.40853 0.0
Co306 Co 0.39621 0.69174 0.45742 0.0
Co307 Co 0.43818 0.71696 0.51385 0.0
C308 C 0.35853 0.71803 0.50361 0.0
O309 O 0.35835 0.70592 0.47882 0.0
O310 O 0.38738 0.72342 0.51999 0.0
C311 C 0.34242 0.66877 0.43977 0.0
O312 O 0.32584 0.67592 0.4729 0.0
C313 C 0.46009 0.73293 0.59784 0.0
C314 C 0.50797 0.74572 0.57532 0.0
C315 C 0.48665 0.74302 0.6128 0.0
N316 N 0.46578 0.72977 0.55383 0.0
N317 N 0.49446 0.73747 0.54065 0.0
C318 C 0.42868 0.72705 0.62401 0.0
H319 H 0.43711 0.71727 0.64599 0.0
H320 H 0.41778 0.73643 0.64584 0.0
H321 H 0.40765 0.72266 0.60109 0.0
C322 C 0.43599 0.67066 0.51813 0.0
N323 N 0.42628 0.68508 0.50502 0.0
N324 N 0.44465 0.69545 0.52809 0.0
C325 C 0.46697 0.68789 0.55639 0.0
C326 C 0.46205 0.67195 0.55115 0.0
C327 C 0.42067 0.65599 0.49892 0.0
H328 H 0.42688 0.65536 0.46232 0.0
H329 H 0.39128 0.65622 0.50271 0.0
H330 H 0.43111 0.64546 0.51613 0.0
O331 O 0.4246 0.70289 0.41135 0.0
O332 O 0.45369 0.7211 0.45006 0.0
H333 H 0.50767 0.70522 0.56456 0.0
H334 H 0.51628 0.68725 0.59435 0.0
C335 C 0.49526 0.69563 0.58408 0.0
H336 H 0.48306 0.70058 0.61498 0.0
H337 H 0.50471 0.73715 0.50789 0.0
O338 O 0.3731 0.67354 0.42774 0.0
C339 C 0.44597 0.71443 0.41275 0.0
Co340 Co 0.64378 0.55925 0.70735 0.0
Co341 Co 0.69128 0.5343 0.75686 0.0
C342 C 0.61073 0.53273 0.7563 0.0
O343 O 0.60762 0.54551 0.73492 0.0
O344 O 0.64124 0.52711 0.76571 0.0
C345 C 0.59176 0.58348 0.69927 0.0
O346 O 0.58155 0.5782 0.73888 0.0
C347 C 0.71683 0.5186 0.83906 0.0
C348 C 0.76491 0.5064 0.81459 0.0
C349 C 0.7446 0.509 0.85302 0.0
N350 N 0.72092 0.52165 0.79473 0.0
N351 N 0.74969 0.51429 0.78033 0.0
C352 C 0.68589 0.5242 0.86663 0.0
H353 H 0.69407 0.53447 0.88685 0.0
H354 H 0.67686 0.51494 0.89018 0.0
H355 H 0.66351 0.52784 0.84474 0.0
C356 C 0.68744 0.58057 0.76373 0.0
N357 N 0.67741 0.56616 0.75078 0.0
N358 N 0.6974 0.55578 0.77157 0.0
C359 C 0.72096 0.56332 0.79826 0.0
C360 C 0.7152 0.57923 0.79441 0.0
C361 C 0.67059 0.59529 0.74705 0.0
H362 H 0.64254 0.5957 0.75874 0.0
H363 H 0.68445 0.60581 0.75978 0.0
H364 H 0.6706 0.59538 0.70958 0.0
O365 O 0.66829 0.54769 0.65806 0.0
O366 O 0.70417 0.53078 0.6924 0.0
H367 H 0.77204 0.56414 0.83218 0.0
H368 H 0.74055 0.55039 0.85471 0.0
C369 C 0.75092 0.55564 0.82315 0.0
H370 H 0.76274 0.5463 0.8021 0.0
H371 H 0.75894 0.51466 0.74709 0.0
O372 O 0.61825 0.57717 0.67969 0.0
C373 C 0.69169 0.53692 0.65647 0.0
Co374 Co 0.35601 0.4427 0.70735 0.0
Co375 Co 0.31012 0.46808 0.7571 0.0
C376 C 0.3903 0.46875 0.75809 0.0
O377 O 0.39264 0.45627 0.73506 0.0
O378 O 0.36015 0.4745 0.76859 0.0
C379 C 0.40729 0.41808 0.69924 0.0
O380 O 0.41784 0.4232 0.73888 0.0
C381 C 0.28465 0.48425 0.83786 0.0
C382 C 0.23783 0.49709 0.81234 0.0
C383 C 0.25757 0.49438 0.85127 0.0
N384 N 0.28081 0.48124 0.79353 0.0
N385 N 0.25291 0.48902 0.7784 0.0
C386 C 0.31259 0.47663 0.8664 0.0
H387 H 0.32366 0.46626 0.84896 0.0
H388 H 0.30131 0.4731 0.89951 0.0
H389 H 0.3347 0.48498 0.8722 0.0
C390 C 0.3111 0.42178 0.76328 0.0
N391 N 0.3218 0.4361 0.75047 0.0
N392 N 0.30227 0.44664 0.7713 0.0
C393 C 0.27842 0.43928 0.79801 0.0
C394 C 0.2834 0.42333 0.79396 0.0
C395 C 0.3275 0.40694 0.74674 0.0
H396 H 0.32752 0.40682 0.70926 0.0
H397 H 0.35553 0.40637 0.75845 0.0
H398 H 0.3133 0.39651 0.75951 0.0
O399 O 0.33202 0.45416 0.65763 0.0
O400 O 0.29896 0.47201 0.69233 0.0
H401 H 0.23819 0.45695 0.8037 0.0
H402 H 0.22758 0.43898 0.83249 0.0
C403 C 0.24933 0.44722 0.82384 0.0
H404 H 0.2604 0.45199 0.85568 0.0
H405 H 0.24401 0.48871 0.74501 0.0
O406 O 0.38095 0.4246 0.67993 0.0
C407 C 0.31009 0.4655 0.65626 0.0
Co408 Co 0.60509 0.81089 0.95825 0.0
Co409 Co 0.56245 0.78556 0.01356 0.0
C410 C 0.64178 0.78379 1.00222 0.0
O411 O 0.64214 0.79603 0.978 0.0
O412 O 0.61295 0.77857 0.01913 0.0
C413 C 0.66093 0.83287 0.94082 0.0
O414 O 0.67783 0.82452 0.97123 0.0
C415 C 0.53975 0.76934 0.09674 0.0
C416 C 0.49154 0.75694 0.07351 0.0
C417 C 0.51281 0.75936 0.11119 0.0
N418 N 0.53432 0.77272 0.05281 0.0
N419 N 0.50544 0.76526 0.03921 0.0
C420 C 0.57127 0.77489 0.12326 0.0
H421 H 0.59249 0.77927 0.10057 0.0
H422 H 0.56311 0.7846 0.14564 0.0
H423 H 0.58182 0.76534 0.14472 0.0
C424 C 0.56667 0.8318 0.02068 0.0
N425 N 0.57571 0.81741 0.00666 0.0
N426 N 0.55692 0.80702 0.02914 0.0
C427 C 0.53492 0.81456 0.05788 0.0
C428 C 0.54055 0.83049 0.05362 0.0
C429 C 0.58261 0.84647 1.00228 0.0
H430 H 0.61205 0.8458 0.0048 0.0
H431 H 0.57334 0.85692 0.02091 0.0
H432 H 0.57553 0.84762 0.96603 0.0
O433 O 0.57587 0.80045 0.91163 0.0
O434 O 0.54675 0.78202 0.94954 0.0
H435 H 0.49358 0.79744 0.06479 0.0
H436 H 0.48521 0.81534 0.09499 0.0
C437 C 0.50608 0.80687 0.08482 0.0
H438 H 0.51778 0.80174 0.11579 0.0
H439 H 0.49532 0.76579 0.00641 0.0
O440 O 0.6292 0.82917 0.93006 0.0
C441 C 0.55431 0.78896 0.91257 0.0
Co442 Co 0.39354 0.19304 0.9608 0.0
Co443 Co 0.44151 0.21828 0.00842 0.0
C444 C 0.3608 0.21998 0.00774 0.0
O445 O 0.35751 0.20699 0.98751 0.0
O446 O 0.3914 0.22563 0.01662 0.0
C447 C 0.33613 0.17483 0.92414 0.0
O448 O 0.31803 0.18781 0.92943 0.0
C449 C 0.46683 0.23388 0.09057 0.0
C450 C 0.51371 0.24694 0.06607 0.0
C451 C 0.49388 0.24386 0.10463 0.0
N452 N 0.47086 0.2311 0.04609 0.0
N453 N 0.49893 0.23896 0.03166 0.0
C454 C 0.43647 0.22768 0.11809 0.0
H455 H 0.41447 0.22364 0.0961 0.0
H456 H 0.44562 0.21756 0.13823 0.0
H457 H 0.42655 0.23675 0.1417 0.0
C458 C 0.43534 0.1722 0.01987 0.0
N459 N 0.42658 0.18653 0.0051 0.0
N460 N 0.44741 0.1969 0.02447 0.0
C461 C 0.47075 0.18939 0.05152 0.0
C462 C 0.46367 0.17351 0.04976 0.0
C463 C 0.41646 0.15762 0.00588 0.0
H464 H 0.38723 0.15948 0.00748 0.0
H465 H 0.42361 0.14762 0.02783 0.0
H466 H 0.42356 0.15484 0.97038 0.0
O467 O 0.41827 0.20425 0.91082 0.0
O468 O 0.45448 0.22136 0.94382 0.0
H469 H 0.52346 0.18845 0.08095 0.0
H470 H 0.49303 0.20181 0.10736 0.0
C471 C 0.5018 0.19697 0.07449 0.0
H472 H 0.51238 0.20657 0.05337 0.0
H473 H 0.50792 0.23891 0.9983 0.0
O474 O 0.36896 0.17454 0.93479 0.0
C475 C 0.44177 0.21497 0.90837 0.0
Co476 Co 0.64443 0.06027 0.20588 0.0
Co477 Co 0.6905 0.03581 0.2592 0.0
C478 C 0.61077 0.03398 0.25743 0.0
O479 O 0.60837 0.04649 0.23449 0.0
O480 O 0.64094 0.02838 0.26859 0.0
C481 C 0.5957 0.08585 0.19903 0.0
O482 O 0.59005 0.08274 0.24191 0.0
C483 C 0.71433 0.01669 0.33611 0.0
C484 C 0.77257 0.01593 0.32527 0.0
C485 C 0.74598 0.01152 0.35507 0.0
N486 N 0.72188 0.0239 0.29686 0.0
N487 N 0.75668 0.02315 0.29022 0.0
C488 C 0.67814 0.01651 0.35738 0.0
H489 H 0.66533 0.02808 0.35334 0.0
H490 H 0.67949 0.01348 0.39378 0.0
H491 H 0.66132 0.00779 0.33974 0.0
C492 C 0.6886 0.08216 0.25992 0.0
N493 N 0.67799 0.06768 0.24859 0.0
N494 N 0.69508 0.05747 0.2737 0.0
C495 C 0.71578 0.06522 0.30349 0.0
C496 C 0.71277 0.08116 0.29546 0.0
C497 C 0.67858 0.0965 0.23402 0.0
H498 H 0.67362 0.09356 0.19811 0.0
H499 H 0.6539 0.10152 0.24863 0.0
H500 H 0.7 0.10539 0.23574 0.0
O501 O 0.66887 0.04855 0.15782 0.0
O502 O 0.7039 0.03189 0.19438 0.0
H503 H 0.76147 0.05286 0.32756 0.0
H504 H 0.74192 0.06584 0.3687 0.0
C505 C 0.73604 0.05755 0.34096 0.0
H506 H 0.7202 0.04783 0.3551 0.0
H507 H 0.76976 0.0282 0.26277 0.0
O508 O 0.6182 0.07775 0.17715 0.0
C509 C 0.69206 0.03772 0.15763 0.0
Co510 Co 0.3565 0.94317 0.20742 0.0
Co511 Co 0.3101 0.96776 0.25995 0.0
C512 C 0.39002 0.96984 0.25691 0.0
O513 O 0.39256 0.95734 0.23396 0.0
O514 O 0.3598 0.97523 0.26868 0.0
C515 C 0.40884 0.91909 0.1984 0.0
O516 O 0.41872 0.92405 0.23848 0.0
C517 C 0.28753 0.98516 0.34007 0.0
C518 C 0.23099 0.99024 0.32537 0.0
C519 C 0.25706 0.99179 0.35818 0.0
N520 N 0.27988 0.97986 0.29843 0.0
N521 N 0.24617 0.98316 0.28955 0.0
C522 C 0.32235 0.9825 0.36346 0.0
H523 H 0.33359 0.97106 0.35331 0.0
H524 H 0.31923 0.98294 0.40073 0.0
H525 H 0.34139 0.99172 0.353 0.0
C526 C 0.31483 0.92142 0.26482 0.0
N527 N 0.32426 0.93591 0.2519 0.0
N528 N 0.30537 0.94615 0.27478 0.0
C529 C 0.2837 0.93844 0.30357 0.0
C530 C 0.289 0.92255 0.29814 0.0
C531 C 0.33035 0.90679 0.24555 0.0
H532 H 0.33033 0.90745 0.20812 0.0
H533 H 0.35833 0.90565 0.2571 0.0
H534 H 0.31554 0.89628 0.25655 0.0
O535 O 0.33007 0.9543 0.1592 0.0
O536 O 0.29631 0.9715 0.19559 0.0
H537 H 0.23831 0.95318 0.31203 0.0
H538 H 0.24028 0.93738 0.35196 0.0
C539 C 0.25642 0.94604 0.33314 0.0
H540 H 0.26995 0.95381 0.35763 0.0
H541 H 0.23317 0.98004 0.25972 0.0
O542 O 0.38247 0.92554 0.17893 0.0
C543 C 0.30704 0.96522 0.15893 0.0
H544 H 0.20494 0.35503 0.98376 0.0
H545 H 0.24454 0.40041 0.75375 0.0
H546 H 0.14842 0.34572 0.85964 0.0
H547 H 0.27575 0.41804 0.88411 0.0
H548 H 0.2123 0.37913 0.79112 0.0
H549 H 0.23458 0.37706 0.94713 0.0
C550 C 0.19877 0.35761 0.9488 0.0
C551 C 0.17422 0.3485 0.92469 0.0
C552 C 0.22608 0.38767 0.8116 0.0
C553 C 0.20815 0.37364 0.88256 0.0
C554 C 0.24452 0.39973 0.79031 0.0
C555 C 0.2629 0.4108 0.81608 0.0
C556 C 0.22636 0.38664 0.85898 0.0
C557 C 0.26188 0.40964 0.86325 0.0
C558 C 0.2156 0.37022 0.92799 0.0
C559 C 0.16714 0.35243 0.87953 0.0
N560 N 0.24413 0.39767 0.88328 0.0
N561 N 0.18418 0.36465 0.85985 0.0
H562 H 0.79854 0.64643 0.98448 0.0
H563 H 0.7531 0.60239 0.75377 0.0
H564 H 0.8517 0.65644 0.8584 0.0
H565 H 0.72357 0.58445 0.88443 0.0
H566 H 0.78604 0.62352 0.79085 0.0
H567 H 0.76734 0.62482 0.94789 0.0
C568 C 0.80366 0.64409 0.94911 0.0
C569 C 0.82773 0.65328 0.92444 0.0
C570 C 0.77241 0.61496 0.81146 0.0
C571 C 0.79199 0.62862 0.88236 0.0
C572 C 0.75355 0.60299 0.79032 0.0
C573 C 0.7355 0.59187 0.81627 0.0
C574 C 0.77294 0.61583 0.85887 0.0
C575 C 0.73714 0.59292 0.86344 0.0
C576 C 0.78592 0.63172 0.9283 0.0
C577 C 0.8334 0.64966 0.87874 0.0
N578 N 0.75536 0.60477 0.88332 0.0
N579 N 0.81552 0.63767 0.85912 0.0
H580 H 0.93501 0.64956 0.10002 0.0
H581 H 0.11748 0.60273 0.13434 0.0
H582 H 0.03564 0.66519 0.0466 0.0
H583 H 0.02102 0.59253 0.20818 0.0
H584 H 0.08764 0.62501 0.09936 0.0
H585 H 0.9656 0.62786 0.13747 0.0
C586 C 0.96364 0.64841 0.09652 0.0
C587 C 0.98302 0.65917 0.0708 0.0
C588 C 0.07304 0.61792 0.12331 0.0
C589 C 0.01815 0.63441 0.11287 0.0
C590 C 0.09002 0.60516 0.1432 0.0
C591 C 0.07168 0.59571 0.17416 0.0
C592 C 0.03737 0.62119 0.13416 0.0
C593 C 0.0362 0.59949 0.18452 0.0
C594 C 0.98109 0.63608 0.11784 0.0
C595 C 0.01996 0.65721 0.0668 0.0
N596 N 0.02017 0.61188 0.16442 0.0
N597 N 0.03637 0.64502 0.08752 0.0
H598 H 0.99534 0.35301 0.00536 0.0
H599 H 0.9567 0.398 0.2364 0.0
H600 H 0.02886 0.3356 0.13505 0.0
H601 H 0.89884 0.40707 0.1131 0.0
H602 H 0.98689 0.37626 0.1991 0.0
H603 H 0.9631 0.37415 0.04337 0.0
C604 C 0.99588 0.35372 0.0419 0.0
C605 C 0.01488 0.34275 0.06729 0.0
C606 C 0.9675 0.38298 0.18029 0.0
C607 C 0.97828 0.36673 0.11094 0.0
C608 C 0.95034 0.39543 0.20149 0.0
C609 C 0.92524 0.40439 0.17781 0.0
C610 C 0.95983 0.37958 0.13491 0.0
C611 C 0.91797 0.40047 0.13268 0.0
C612 C 0.97742 0.36569 0.06357 0.0
C613 C 0.01453 0.34394 0.11448 0.0
N614 N 0.93533 0.38842 0.11263 0.0
N615 N 0.99671 0.35581 0.13486 0.0
H616 H 0.14736 0.84579 0.35817 0.0
H617 H 0.28712 0.91557 0.38782 0.0
H618 H 0.20659 0.85372 0.48107 0.0
H619 H 0.24629 0.90081 0.25874 0.0
H620 H 0.25405 0.8943 0.42424 0.0
H621 H 0.17957 0.8673 0.3226 0.0
C622 C 0.16708 0.85207 0.37772 0.0
C623 C 0.17435 0.84791 0.42265 0.0
C624 C 0.25238 0.89567 0.38794 0.0
C625 C 0.21124 0.87259 0.38215 0.0
C626 C 0.27116 0.90779 0.36729 0.0
C627 C 0.26946 0.90976 0.32039 0.0
C628 C 0.23151 0.8856 0.36142 0.0
C629 C 0.24842 0.8995 0.29502 0.0
C630 C 0.18553 0.86432 0.35734 0.0
C631 C 0.20021 0.85647 0.44631 0.0
N632 N 0.23017 0.88786 0.31587 0.0
N633 N 0.21767 0.86842 0.42581 0.0
H634 H 0.83157 0.13842 0.48267 0.0
H635 H 0.6867 0.1098 0.32014 0.0
H636 H 0.81501 0.16729 0.36526 0.0
H637 H 0.78271 0.08209 0.32262 0.0
H638 H 0.71952 0.13119 0.35635 0.0
H639 H 0.79935 0.1171 0.44462 0.0
C640 C 0.82093 0.14027 0.44907 0.0
C641 C 0.82588 0.15454 0.42686 0.0
C642 C 0.73311 0.12035 0.34897 0.0
C643 C 0.78864 0.1306 0.3843 0.0
C644 C 0.71461 0.1082 0.32811 0.0
C645 C 0.73196 0.0941 0.31831 0.0
C646 C 0.76878 0.11818 0.36127 0.0
C647 C 0.76802 0.09259 0.33045 0.0
C648 C 0.80281 0.12816 0.42751 0.0
C649 C 0.81185 0.15639 0.38326 0.0
N650 N 0.78519 0.10443 0.35182 0.0
N651 N 0.79337 0.14458 0.36348 0.0
H652 H 0.00972 0.15165 0.49981 0.0
H653 H 0.04935 0.10453 0.72773 0.0
H654 H 0.96987 0.16557 0.63016 0.0
H655 H 0.10457 0.0958 0.6023 0.0
H656 H 0.01805 0.12621 0.69194 0.0
H657 H 0.04294 0.13041 0.53596 0.0
C658 C 0.00794 0.15013 0.53608 0.0
C659 C 0.98682 0.16013 0.56216 0.0
C660 C 0.03708 0.11958 0.67226 0.0
C661 C 0.02469 0.13606 0.60376 0.0
C662 C 0.0549 0.10716 0.69264 0.0
C663 C 0.07959 0.0983 0.66796 0.0
C664 C 0.04375 0.12313 0.62671 0.0
C665 C 0.08576 0.10231 0.62263 0.0
C666 C 0.02697 0.1381 0.55672 0.0
C667 C 0.98578 0.15797 0.60903 0.0
N668 N 0.06786 0.11439 0.60342 0.0
N669 N 0.00428 0.1461 0.62837 0.0
H670 H 0.8798 0.89897 0.62569 0.0
H671 H 0.06421 0.85301 0.59796 0.0
H672 H 0.97478 0.90992 0.70166 0.0
H673 H 0.96498 0.83654 0.54251 0.0
H674 H 0.0324 0.87477 0.63333 0.0
H675 H 0.91094 0.87678 0.59188 0.0
C676 C 0.9072 0.89672 0.63524 0.0
C677 C 0.92473 0.90634 0.6665 0.0
C678 C 0.01748 0.86636 0.61368 0.0
C679 C 0.96051 0.881 0.62788 0.0
C680 C 0.03563 0.85399 0.59354 0.0
C681 C 0.01699 0.84298 0.56788 0.0
C682 C 0.98046 0.86781 0.6076 0.0
C683 C 0.98009 0.84473 0.56269 0.0
C684 C 0.92492 0.88403 0.61603 0.0
C685 C 0.96018 0.90282 0.67775 0.0
N686 N 0.96298 0.85696 0.58229 0.0
N687 N 0.97692 0.89049 0.65834 0.0
H688 H 0.74464 0.39981 0.25575 0.0
H689 H 0.7066 0.3548 0.48685 0.0
H690 H 0.77581 0.41791 0.38559 0.0
H691 H 0.64961 0.3451 0.36333 0.0
H692 H 0.73575 0.37684 0.44962 0.0
H693 H 0.71287 0.37852 0.29373 0.0
C694 C 0.74471 0.39924 0.29232 0.0
C695 C 0.76295 0.41045 0.31776 0.0
C696 C 0.71678 0.36991 0.43074 0.0
C697 C 0.72696 0.38625 0.36137 0.0
C698 C 0.70023 0.35729 0.4519 0.0
C699 C 0.67567 0.34806 0.42814 0.0
C700 C 0.70906 0.37323 0.38532 0.0
C701 C 0.66833 0.3519 0.38296 0.0
C702 C 0.72654 0.38717 0.31397 0.0
C703 C 0.76205 0.4094 0.36497 0.0
N704 N 0.68511 0.36413 0.36295 0.0
N705 N 0.74458 0.39742 0.38533 0.0
H706 H 0.28733 0.58312 0.29299 0.0
H707 H 0.36993 0.6507 0.3718 0.0
H708 H 0.1906 0.60317 0.34554 0.0
H709 H 0.27692 0.6559 0.45632 0.0
H710 H 0.34173 0.62856 0.33477 0.0
H711 H 0.32139 0.60427 0.32738 0.0
C712 C 0.27335 0.59206 0.31178 0.0
C713 C 0.23623 0.59147 0.3166 0.0
C714 C 0.32764 0.63429 0.36196 0.0
C715 C 0.27469 0.61609 0.35472 0.0
C716 C 0.34367 0.64709 0.38287 0.0
C717 C 0.32585 0.65515 0.41738 0.0
C718 C 0.29353 0.62944 0.37584 0.0
C719 C 0.29174 0.65001 0.43001 0.0
C720 C 0.29272 0.60429 0.3309 0.0
C721 C 0.21923 0.60332 0.34095 0.0
N722 N 0.27669 0.63753 0.40916 0.0
N723 N 0.2386 0.61513 0.35922 0.0
H724 H 0.50101 0.64928 0.5099 0.0
H725 H 0.54266 0.60296 0.73788 0.0
H726 H 0.46932 0.666 0.64112 0.0
H727 H 0.59871 0.59453 0.61288 0.0
H728 H 0.51198 0.62492 0.70229 0.0
H729 H 0.53358 0.6279 0.54618 0.0
C730 C 0.50093 0.64837 0.54641 0.0
C731 C 0.48238 0.65924 0.57272 0.0
C732 C 0.53107 0.61828 0.68272 0.0
C733 C 0.51938 0.63494 0.61441 0.0
C734 C 0.5485 0.60571 0.70294 0.0
C735 C 0.57325 0.59687 0.67829 0.0
C736 C 0.5381 0.62194 0.63734 0.0
C737 C 0.57987 0.60103 0.63318 0.0
C738 C 0.51959 0.63625 0.5671 0.0
C739 C 0.48333 0.65776 0.61983 0.0
N740 N 0.56225 0.6132 0.61409 0.0
N741 N 0.50134 0.64575 0.63925 0.0
H742 H 0.49684 0.35308 0.50673 0.0
H743 H 0.45574 0.39808 0.73702 0.0
H744 H 0.52708 0.33517 0.63715 0.0
H745 H 0.40004 0.40755 0.6124 0.0
H746 H 0.48582 0.37617 0.70036 0.0
H747 H 0.46468 0.37438 0.54407 0.0
C748 C 0.49666 0.35371 0.54329 0.0
C749 C 0.51472 0.34254 0.56909 0.0
C750 C 0.46692 0.38302 0.68111 0.0
C751 C 0.47822 0.36673 0.61197 0.0
C752 C 0.44984 0.39556 0.70195 0.0
C753 C 0.42538 0.40468 0.67771 0.0
C754 C 0.45983 0.37968 0.63555 0.0
C755 C 0.41867 0.40083 0.6324 0.0
C756 C 0.47826 0.36578 0.56457 0.0
C757 C 0.51348 0.34365 0.61627 0.0
N758 N 0.43595 0.38868 0.61272 0.0
N759 N 0.49574 0.35562 0.63629 0.0
H760 H 0.63193 0.85467 0.88373 0.0
H761 H 0.8162 0.90027 0.84781 0.0
H762 H 0.73025 0.84216 0.95026 0.0
H763 H 0.7158 0.91659 0.7955 0.0
H764 H 0.78528 0.87842 0.88401 0.0
H765 H 0.66216 0.877 0.84938 0.0
C766 C 0.65987 0.8566 0.89109 0.0
C767 C 0.6786 0.8465 0.91986 0.0
C768 C 0.7699 0.88682 0.86488 0.0
C769 C 0.71335 0.87202 0.88064 0.0
C770 C 0.78755 0.89924 0.84428 0.0
C771 C 0.76835 0.91022 0.8192 0.0
C772 C 0.73278 0.8853 0.85994 0.0
C773 C 0.73136 0.90842 0.81519 0.0
C774 C 0.67708 0.86938 0.87156 0.0
C775 C 0.71472 0.84962 0.92833 0.0
N776 N 0.71474 0.89616 0.83527 0.0
N777 N 0.73091 0.86207 0.90872 0.0
H778 H 0.36576 0.14627 0.90575 0.0
H779 H 0.18063 0.10824 0.82746 0.0
H780 H 0.26569 0.17109 0.90294 0.0
H781 H 0.28195 0.08512 0.81293 0.0
H782 H 0.21105 0.13073 0.86049 0.0
H783 H 0.33533 0.12311 0.87674 0.0
C784 C 0.33741 0.14686 0.89903 0.0
C785 C 0.31828 0.16068 0.90663 0.0
C786 C 0.22669 0.12073 0.85031 0.0
C787 C 0.28329 0.13419 0.87366 0.0
C788 C 0.20932 0.10791 0.83148 0.0
C789 C 0.22886 0.09485 0.81763 0.0
C790 C 0.26393 0.12048 0.85534 0.0
C791 C 0.26592 0.09492 0.82375 0.0
C792 C 0.32006 0.13363 0.88248 0.0
C793 C 0.28157 0.16074 0.89746 0.0
N794 N 0.28231 0.10757 0.84208 0.0
N795 N 0.26531 0.14771 0.8815 0.0
H796 H 0.59335 0.09272 0.10877 0.0
H797 H 0.47913 0.17071 0.13937 0.0
H798 H 0.55497 0.10864 0.23827 0.0
H799 H 0.49328 0.1477 0.01124 0.0
H800 H 0.51182 0.14946 0.17636 0.0
H801 H 0.56163 0.1142 0.07241 0.0
C802 C 0.57829 0.10074 0.12959 0.0
C803 C 0.57673 0.09885 0.17665 0.0
C804 C 0.50769 0.14904 0.14017 0.0
C805 C 0.54051 0.12352 0.13521 0.0
C806 C 0.48921 0.16116 0.11914 0.0
C807 C 0.48341 0.16082 0.07239 0.0
C808 C 0.5208 0.13661 0.11409 0.0
C809 C 0.49689 0.14825 0.04749 0.0
C810 C 0.56011 0.11298 0.10878 0.0
C811 C 0.55677 0.10961 0.20188 0.0
N812 N 0.51507 0.13665 0.06862 0.0
N813 N 0.53953 0.12151 0.18086 0.0
H814 H 0.5322 0.83564 0.14385 0.0
H815 H 0.40274 0.90884 0.11112 0.0
H816 H 0.50326 0.85394 0.01337 0.0
H817 H 0.45721 0.89911 0.23644 0.0
H818 H 0.4341 0.88699 0.076 0.0
H819 H 0.49939 0.85708 0.17991 0.0
C820 C 0.51886 0.8442 0.12293 0.0
C821 C 0.52058 0.84321 0.07576 0.0
C822 C 0.4392 0.88966 0.11117 0.0
C823 C 0.48295 0.86755 0.11636 0.0
C824 C 0.42125 0.9021 0.13129 0.0
C825 C 0.42746 0.90585 0.17676 0.0
C826 C 0.46324 0.88077 0.13682 0.0
C827 C 0.45175 0.89669 0.20123 0.0
C828 C 0.5003 0.85642 0.14339 0.0
C829 C 0.50284 0.85448 0.04991 0.0
N830 N 0.46867 0.88454 0.18099 0.0
N831 N 0.48468 0.86618 0.07054 0.0
H832 H 0.98306 0.24154 0.39047 0.0
H833 H 0.9791 0.23099 0.12145 0.0
H834 H 0.92927 0.20379 0.3222 0.0
H835 H 0.01903 0.27221 0.18774 0.0
H836 H 0.96511 0.21984 0.19529 0.0
H837 H 0.00153 0.25184 0.31699 0.0
C838 C 0.97527 0.23536 0.36012 0.0
C839 C 0.9544 0.2218 0.36261 0.0
C840 C 0.97727 0.23128 0.19371 0.0
C841 C 0.97547 0.23356 0.2784 0.0
C842 C 0.98524 0.23765 0.15154 0.0
C843 C 0.00102 0.25243 0.14826 0.0
C844 C 0.98488 0.23977 0.2331 0.0
C845 C 0.00816 0.26057 0.18843 0.0
C846 C 0.98576 0.24129 0.31817 0.0
C847 C 0.94515 0.21432 0.32205 0.0
N848 N 1.00003 0.25413 0.22915 0.0
N849 N 0.9557 0.2203 0.28172 0.0
H850 H 0.99757 0.76895 0.38899 0.0
H851 H 0.05434 0.75284 0.13489 0.0
H852 H 0.08529 0.79246 0.3236 0.0
H853 H 0.94429 0.74911 0.17658 0.0
H854 H 0.06878 0.76396 0.20825 0.0
H855 H 0.97988 0.75811 0.31533 0.0
C856 C 0.01301 0.77187 0.35924 0.0
C857 C 0.04293 0.78165 0.36249 0.0
C858 C 0.04149 0.76059 0.20135 0.0
C859 C 0.02325 0.76912 0.27876 0.0
C860 C 0.03313 0.75422 0.1594 0.0
C861 C 0.99808 0.74961 0.14934 0.0
C862 C 0.01475 0.76231 0.23404 0.0
C863 C 0.97191 0.7518 0.18285 0.0
C864 C 0.00285 0.76572 0.31733 0.0
C865 C 0.06195 0.78505 0.3228 0.0
N866 N 0.98083 0.75789 0.22383 0.0
N867 N 0.05199 0.77869 0.28278 0.0
H868 H 0.27855 0.48049 0.36931 0.0
H869 H 0.26805 0.49098 0.63823 0.0
H870 H 0.23202 0.52056 0.43433 0.0
H871 H 0.32511 0.45364 0.57239 0.0
H872 H 0.2509 0.50106 0.56409 0.0
H873 H 0.2928 0.46966 0.4437 0.0
C874 C 0.27102 0.48692 0.39933 0.0
C875 C 0.25316 0.5012 0.39574 0.0
C876 C 0.26712 0.49065 0.5659 0.0
C877 C 0.26968 0.48902 0.48094 0.0
C878 C 0.27687 0.48486 0.60826 0.0
C879 C 0.29819 0.47145 0.61167 0.0
C880 C 0.27864 0.48297 0.52658 0.0
C881 C 0.30878 0.46403 0.57153 0.0
C882 C 0.27915 0.48075 0.44175 0.0
C883 C 0.24452 0.50921 0.43561 0.0
N884 N 0.29893 0.4699 0.53075 0.0
N885 N 0.25279 0.503 0.47655 0.0
H886 H 0.75078 0.5193 0.6361 0.0
H887 H 0.69256 0.50398 0.38145 0.0
H888 H 0.65887 0.54101 0.57492 0.0
H889 H 0.80208 0.49982 0.42472 0.0
H890 H 0.67744 0.51476 0.45522 0.0
H891 H 0.76789 0.50908 0.56173 0.0
C892 C 0.73425 0.52194 0.60709 0.0
C893 C 0.70336 0.53104 0.61177 0.0
C894 C 0.70476 0.51137 0.44857 0.0
C895 C 0.72252 0.51923 0.52698 0.0
C896 C 0.71348 0.5052 0.40642 0.0
C897 C 0.74856 0.50052 0.39682 0.0
C898 C 0.73122 0.51285 0.48176 0.0
C899 C 0.77443 0.50253 0.43073 0.0
C900 C 0.74409 0.51614 0.56471 0.0
C901 C 0.68299 0.53411 0.57296 0.0
N902 N 0.76519 0.50844 0.47178 0.0
N903 N 0.69277 0.52812 0.53233 0.0
H904 H 0.98431 0.7404 0.89133 0.0
H905 H 0.9797 0.7308 0.62189 0.0
H906 H 0.93549 0.7016 0.82203 0.0
H907 H 0.02293 0.77115 0.68926 0.0
H908 H 0.96675 0.71922 0.69546 0.0
H909 H 0.00276 0.75103 0.81818 0.0
C910 C 0.97766 0.73405 0.86084 0.0
C911 C 0.95812 0.72011 0.86296 0.0
C912 C 0.97942 0.73055 0.69421 0.0
C913 C 0.9791 0.73225 0.77908 0.0
C914 C 0.98679 0.73717 0.65217 0.0
C915 C 0.00313 0.75184 0.64925 0.0
C916 C 0.98811 0.7387 0.73386 0.0
C917 C 0.01151 0.75961 0.68966 0.0
C918 C 0.98814 0.74016 0.81907 0.0
C919 C 0.95032 0.71242 0.82222 0.0
N920 N 0.00384 0.75296 0.73026 0.0
N921 N 0.96071 0.71861 0.78209 0.0
H922 H 0.01581 0.26211 0.89038 0.0
H923 H 0.022 0.27185 0.62115 0.0
H924 H 0.07011 0.29973 0.82214 0.0
H925 H 0.98093 0.231 0.68827 0.0
H926 H 0.03567 0.28322 0.69484 0.0
H927 H 0.99793 0.25165 0.81693 0.0
C928 C 0.02383 0.26823 0.86003 0.0
C929 C 0.04467 0.2818 0.86256 0.0
C930 C 0.02333 0.27182 0.69346 0.0
C931 C 0.02428 0.26985 0.77829 0.0
C932 C 0.01555 0.26531 0.65138 0.0
C933 C 0.9995 0.25058 0.64836 0.0
C934 C 0.01525 0.2635 0.73301 0.0
C935 C 0.99198 0.24261 0.6887 0.0
C936 C 0.01367 0.26222 0.81808 0.0
C937 C 0.05421 0.28921 0.82197 0.0
N938 N 0.99992 0.24916 0.72931 0.0
N939 N 0.04401 0.28313 0.78161 0.0
H940 H 0.21892 0.02162 0.94234 0.0
H941 H 0.32108 0.95358 0.07467 0.0
H942 H 0.27575 0.98426 0.87688 0.0
H943 H 0.26278 0.99019 0.14219 0.0
H944 H 0.30205 0.96406 1.00213 0.0
H945 H 0.23187 0.00973 0.01577 0.0
C946 C 0.23339 0.01071 0.94339 0.0
C947 C 0.24548 0.00367 0.90343 0.0
C948 C 0.29327 0.96979 0.03276 0.0
C949 C 0.26149 0.99029 0.98736 0.0
C950 C 0.30414 0.9638 0.07434 0.0
C951 C 0.29371 0.97105 0.1148 0.0
C952 C 0.27184 0.98319 0.0313 0.0
C953 C 0.27157 0.98422 0.11196 0.0
C954 C 0.24114 0.00402 0.98534 0.0
C955 C 0.26563 0.98997 0.90688 0.0
N956 N 0.26153 0.98992 0.07095 0.0
N957 N 0.27297 0.98372 0.94804 0.0
H958 H 0.80768 1.00009 0.927 0.0
H959 H 0.65925 0.04114 0.07618 0.0
H960 H 0.69679 0.00247 0.8882 0.0
H961 H 0.75148 0.01993 0.13808 0.0
H962 H 0.67727 0.03037 0.00361 0.0
H963 H 0.79175 0.01013 1.0015 0.0
C964 C 0.77995 0.00234 0.93408 0.0
C965 C 0.75345 0.99994 0.90116 0.0
C966 C 0.6936 0.02806 0.03304 0.0
C967 C 0.73546 0.01224 0.98601 0.0
C968 C 0.68345 0.03428 0.07453 0.0
C969 C 0.70387 0.03143 0.11342 0.0
C970 C 0.72472 0.01908 0.02994 0.0
C971 C 0.73488 0.02236 0.10902 0.0
C972 C 0.77098 0.00828 0.97666 0.0
C973 C 0.71823 0.00402 0.91225 0.0
N974 N 0.74451 0.01656 0.0679 0.0
N975 N 0.71034 0.00999 0.95351 0.0
H976 H 0.5541 0.25303 0.67649 0.0
H977 H 0.4086 0.21019 0.82734 0.0
H978 H 0.44394 0.24843 0.63625 0.0
H979 H 0.50043 0.23268 0.88634 0.0
H980 H 0.42564 0.22055 0.7536 0.0
H981 H 0.53885 0.24248 0.75045 0.0
C982 C 0.5266 0.25019 0.68318 0.0
C983 C 0.50008 0.2522 0.65011 0.0
C984 C 0.44208 0.22319 0.78268 0.0
C985 C 0.48293 0.23925 0.73441 0.0
C986 C 0.43251 0.21722 0.82479 0.0
C987 C 0.45307 0.2206 0.8632 0.0
C988 C 0.47275 0.23245 0.77863 0.0
C989 C 0.4837 0.22984 0.8577 0.0
C990 C 0.51804 0.24394 0.72545 0.0
C991 C 0.46531 0.24727 0.66059 0.0
N992 N 0.4927 0.2354 0.81615 0.0
N993 N 0.45778 0.24101 0.70167 0.0
H994 H 0.55952 0.8024 0.829 0.0
H995 H 0.47399 0.73018 0.69714 0.0
H996 H 0.51588 0.76213 0.8968 0.0
H997 H 0.51374 0.77165 0.63193 0.0
H998 H 0.48598 0.74203 0.77056 0.0
H999 H 0.53986 0.79175 0.75699 0.0
C1000 C 0.5456 0.79134 0.82886 0.0
C1001 C 0.53958 0.78312 0.86918 0.0
C1002 C 0.49169 0.74861 0.74019 0.0
C1003 C 0.51708 0.77074 0.78626 0.0
C1004 C 0.48443 0.7419 0.6981 0.0
C1005 C 0.49214 0.75005 0.65811 0.0
C1006 C 0.50707 0.76352 0.74236 0.0
C1007 C 0.50727 0.76495 0.66182 0.0
C1008 C 0.53436 0.78525 0.78757 0.0
C1009 C 0.52118 0.76888 0.86663 0.0
N1010 N 0.51423 0.77118 0.70308 0.0
N1011 N 0.51081 0.76309 0.82585 0.0
H1012 H 0.82345 0.45245 0.07334 0.0
H1013 H 0.73337 0.52245 0.93665 0.0
H1014 H 0.7696 0.49096 0.13781 0.0
H1015 H 0.77495 0.48101 0.87317 0.0
H1016 H 0.74661 0.51127 0.01042 0.0
H1017 H 0.80631 0.46287 0.99983 0.0
C1018 C 0.80792 0.46308 0.07212 0.0
C1019 C 0.79806 0.47085 0.11198 0.0
C1020 C 0.7525 0.50454 0.98038 0.0
C1021 C 0.77844 0.48291 0.02755 0.0
C1022 C 0.7445 0.51085 0.93809 0.0
C1023 C 0.75205 0.50248 0.89849 0.0
C1024 C 0.76866 0.48982 0.98321 0.0
C1025 C 0.7684 0.48784 0.90278 0.0
C1026 C 0.79811 0.46902 0.03003 0.0
C1027 C 0.77782 0.48456 0.10808 0.0
N1028 N 0.77611 0.48197 0.94431 0.0
N1029 N 0.76883 0.49018 0.06664 0.0
H1030 H 0.25053 0.51912 0.13628 0.0
H1031 H 0.19292 0.50438 0.88119 0.0
H1032 H 0.15935 0.54133 0.07485 0.0
H1033 H 0.30228 0.49989 0.92484 0.0
H1034 H 0.17778 0.51511 0.955 0.0
H1035 H 0.26773 0.50898 0.06186 0.0
C1036 C 0.23418 0.52189 0.1072 0.0
C1037 C 0.20346 0.5311 0.11183 0.0
C1038 C 0.20506 0.51167 0.94842 0.0
C1039 C 0.22273 0.51938 0.02697 0.0
C1040 C 0.2138 0.50552 0.90625 0.0
C1041 C 0.24884 0.50076 0.89674 0.0
C1042 C 0.23146 0.51303 0.98173 0.0
C1043 C 0.27465 0.50266 0.93077 0.0
C1044 C 0.24408 0.51614 0.06479 0.0
C1045 C 0.18333 0.53434 0.07293 0.0
N1046 N 0.26539 0.50854 0.97184 0.0
N1047 N 0.19315 0.52839 0.03227 0.0
H1048 H 0.48516 0.74115 0.39831 0.0
H1049 H 0.48527 0.73073 0.12907 0.0
H1050 H 0.43962 0.70174 0.32836 0.0
H1051 H 0.52517 0.77182 0.19603 0.0
H1052 H 0.4724 0.71922 0.20265 0.0
H1053 H 0.50464 0.75175 0.32546 0.0
C1054 C 0.47949 0.73466 0.36777 0.0
C1055 C 0.46049 0.72056 0.36958 0.0
C1056 C 0.48432 0.7307 0.20134 0.0
C1057 C 0.48263 0.73266 0.28609 0.0
C1058 C 0.49165 0.73729 0.15928 0.0
C1059 C 0.50694 0.75217 0.15622 0.0
C1060 C 0.49198 0.73908 0.24093 0.0
C1061 C 0.51448 0.76015 0.19656 0.0
C1062 C 0.49054 0.74075 0.32617 0.0
C1063 C 0.45394 0.71269 0.32879 0.0
N1064 N 0.50683 0.75352 0.23723 0.0
N1065 N 0.46485 0.71887 0.28887 0.0
H1066 H 0.57154 0.3005 0.32524 0.0
H1067 H 0.48373 0.2301 0.18816 0.0
H1068 H 0.51878 0.26169 0.38969 0.0
H1069 H 0.52231 0.27218 0.12516 0.0
H1070 H 0.49655 0.24129 0.26204 0.0
H1071 H 0.55412 0.29016 0.25176 0.0
C1072 C 0.55618 0.28982 0.32402 0.0
C1073 C 0.54674 0.28193 0.36386 0.0
C1074 C 0.50185 0.24815 0.23208 0.0
C1075 C 0.52681 0.26996 0.27945 0.0
C1076 C 0.49409 0.24183 0.18972 0.0
C1077 C 0.50098 0.25037 0.15021 0.0
C1078 C 0.5171 0.26306 0.23507 0.0
C1079 C 0.51633 0.26521 0.15468 0.0
C1080 C 0.5462 0.28393 0.28195 0.0
C1081 C 0.52668 0.26817 0.35996 0.0
N1082 N 0.52386 0.27107 0.19627 0.0
N1083 N 0.51757 0.26258 0.31852 0.0
H1084 H 0.78509 0.94957 0.57871 0.0
H1085 H 0.78646 0.02351 0.42256 0.0
H1086 H 0.7904 0.99573 0.636 0.0
H1087 H 0.71828 0.98468 0.39026 0.0
H1088 H 0.79623 0.01242 0.49808 0.0
H1089 H 0.76754 0.96103 0.50602 0.0
C1090 C 0.78227 0.9621 0.57606 0.0
C1091 C 0.78917 0.97173 0.61337 0.0
C1092 C 0.779 0.00638 0.47451 0.0
C1093 C 0.77007 0.98485 0.53037 0.0
C1094 C 0.77364 0.01263 0.43151 0.0
C1095 C 0.75158 0.00494 0.40053 0.0
C1096 C 0.76299 0.99214 0.48599 0.0
C1097 C 0.73539 0.99092 0.41351 0.0
C1098 C 0.7722 0.9686 0.53471 0.0
C1099 C 0.78512 0.98789 0.60814 0.0
N1100 N 0.74177 0.98483 0.4552 0.0
N1101 N 0.7764 0.99397 0.56717 0.0
H1102 H 0.22407 0.05283 0.58393 0.0
H1103 H 0.20938 0.98173 0.42077 0.0
H1104 H 0.2059 0.00689 0.63826 0.0
H1105 H 0.29257 0.01557 0.39966 0.0
H1106 H 0.19985 0.99227 0.49709 0.0
H1107 H 0.24255 0.04101 0.51208 0.0
C1108 C 0.22435 0.04025 0.58081 0.0
C1109 C 0.21358 0.03079 0.61698 0.0
C1110 C 0.22033 0.9973 0.4758 0.0
C1111 C 0.23354 0.01732 0.53488 0.0
C1112 C 0.22558 0.99138 0.43236 0.0
C1113 C 0.25174 0.99785 0.40428 0.0
C1114 C 0.24064 0.01005 0.49051 0.0
C1115 C 0.27221 0.0103 0.42061 0.0
C1116 C 0.23493 0.03355 0.53998 0.0
C1117 C 0.2143 0.01456 0.61125 0.0
N1118 N 0.26588 0.01618 0.46254 0.0
N1119 N 0.22347 0.00832 0.57061 0.0
H1120 H 0.29168 0.20984 0.01089 0.0
H1121 H 0.20952 0.29458 0.99951 0.0
H1122 H 0.35608 0.25118 0.02659 0.0
H1123 H 0.14651 0.25406 0.03268 0.0
H1124 H 0.26363 0.27903 0.009 0.0
H1125 H 0.23811 0.2258 0.0186 0.0
C1126 C 0.29457 0.22226 0.01641 0.0
C1127 C 0.32843 0.2292 0.01776 0.0
C1128 C 0.23796 0.2736 0.01473 0.0
C1129 C 0.26717 0.24756 0.02602 0.0
C1130 C 0.20706 0.28246 0.00918 0.0
C1131 C 0.17339 0.27558 0.01491 0.0
C1132 C 0.2352 0.2577 0.02533 0.0
C1133 C 0.17186 0.25984 0.02775 0.0
C1134 C 0.26397 0.23135 0.02093 0.0
C1135 C 0.33053 0.24534 0.02526 0.0
N1136 N 0.2023 0.25138 0.03191 0.0
N1137 N 0.3003 0.25401 0.02845 0.0
H1138 H 0.84048 0.73637 0.07259 0.0
H1139 H 0.69666 0.78226 0.94262 0.0
H1140 H 0.8034 0.71888 0.9442 0.0
H1141 H 0.6621 0.76446 0.07183 0.0
H1142 H 0.74928 0.76546 0.94676 0.0
H1143 H 0.78636 0.75267 0.0776 0.0
C1144 C 0.82087 0.73587 0.04577 0.0
C1145 C 0.82628 0.72626 0.00797 0.0
C1146 C 0.73026 0.76541 0.97432 0.0
C1147 C 0.76567 0.745 0.013 0.0
C1148 C 0.70042 0.77501 0.97219 0.0
C1149 C 0.67498 0.7747 0.00691 0.0
C1150 C 0.73522 0.75577 0.01194 0.0
C1151 C 0.68107 0.76495 0.04429 0.0
C1152 C 0.79017 0.74509 0.04875 0.0
C1153 C 0.80015 0.72603 0.97405 0.0
N1154 N 0.71084 0.75588 0.04603 0.0
N1155 N 0.77128 0.73549 0.97696 0.0
H1156 H 0.04176 0.54268 0.25757 0.0
H1157 H 0.95913 0.45801 0.25603 0.0
H1158 H 0.10574 0.50158 0.27975 0.0
H1159 H 0.89611 0.49895 0.28427 0.0
H1160 H 0.01325 0.47362 0.26456 0.0
H1161 H 0.988 0.52693 0.26706 0.0
C1162 C 0.04452 0.53037 0.26486 0.0
C1163 C 0.07833 0.52342 0.2675 0.0
C1164 C 0.98758 0.47913 0.26947 0.0
C1165 C 0.01687 0.50529 0.27786 0.0
C1166 C 0.95666 0.47024 0.26451 0.0
C1167 C 0.923 0.47721 0.26906 0.0
C1168 C 0.98483 0.49517 0.27825 0.0
C1169 C 0.92146 0.49309 0.28033 0.0
C1170 C 0.01381 0.5214 0.27041 0.0
C1171 C 0.08025 0.50743 0.27732 0.0
N1172 N 0.95192 0.50159 0.28386 0.0
N1173 N 0.04994 0.49886 0.28148 0.0
H1174 H 0.33969 0.73746 0.57352 0.0
H1175 H 0.19908 0.78431 0.44653 0.0
H1176 H 0.30154 0.71883 0.44696 0.0
H1177 H 0.15682 0.7629 0.56724 0.0
H1178 H 0.25174 0.7676 0.45232 0.0
H1179 H 0.28542 0.75364 0.57832 0.0
C1180 C 0.31983 0.73668 0.54706 0.0
C1181 C 0.32502 0.7268 0.50979 0.0
C1182 C 0.23103 0.76677 0.47774 0.0
C1183 C 0.26412 0.74534 0.51474 0.0
C1184 C 0.20113 0.7763 0.47469 0.0
C1185 C 0.1735 0.77495 0.50643 0.0
C1186 C 0.23378 0.75612 0.51333 0.0
C1187 C 0.17749 0.76423 0.542 0.0
C1188 C 0.28903 0.74583 0.54996 0.0
C1189 C 0.29851 0.72621 0.47637 0.0
N1190 N 0.20729 0.75519 0.54467 0.0
N1191 N 0.26948 0.73559 0.47921 0.0
H1192 H 0.79077 0.20845 0.50401 0.0
H1193 H 0.643 0.25452 0.54707 0.0
H1194 H 0.85294 0.24976 0.53085 0.0
H1195 H 0.70986 0.29145 0.49561 0.0
H1196 H 0.69569 0.2381 0.5555 0.0
H1197 H 0.73642 0.22371 0.51347 0.0
C1198 C 0.79298 0.22068 0.51262 0.0
C1199 C 0.82647 0.22784 0.51657 0.0
C1200 C 0.69879 0.24977 0.54219 0.0
C1201 C 0.76427 0.24538 0.52784 0.0
C1202 C 0.66876 0.25923 0.53776 0.0
C1203 C 0.67187 0.27432 0.5198 0.0
C1204 C 0.73223 0.25543 0.52862 0.0
C1205 C 0.70609 0.27983 0.50897 0.0
C1206 C 0.76189 0.22937 0.51844 0.0
C1207 C 0.82769 0.24375 0.52764 0.0
N1208 N 0.73493 0.27035 0.51336 0.0
N1209 N 0.79702 0.25205 0.53216 0.0
H1210 H 0.08569 0.01823 0.82122 0.0
H1211 H 0.94415 0.97071 0.68538 0.0
H1212 H 0.05875 0.03068 0.68415 0.0
H1213 H 0.91267 0.98774 0.81669 0.0
H1214 H 0.99726 0.98718 0.68877 0.0
H1215 H 0.03139 0.00203 0.82475 0.0
C1216 C 0.06829 0.01762 0.79207 0.0
C1217 C 0.07657 0.02581 0.75235 0.0
C1218 C 0.9788 0.98718 0.71694 0.0
C1219 C 0.01572 0.00713 0.75585 0.0
C1220 C 0.94868 0.97773 0.71525 0.0
C1221 C 0.92394 0.9779 0.75079 0.0
C1222 C 0.98478 0.99656 0.75489 0.0
C1223 C 0.93106 0.98735 0.78851 0.0
C1224 C 0.03745 0.00845 0.7942 0.0
C1225 C 0.0532 0.02465 0.71551 0.0
N1226 N 0.96108 0.99629 0.78978 0.0
N1227 N 0.02415 0.01527 0.71789 0.0
H1228 H 0.45932 0.4583 0.75572 0.0
H1229 H 0.54163 0.54297 0.7582 0.0
H1230 H 0.39629 0.49917 0.78495 0.0
H1231 H 0.60586 0.50185 0.77901 0.0
H1232 H 0.48798 0.52718 0.76813 0.0
H1233 H 0.51343 0.47389 0.76454 0.0
C1234 C 0.45685 0.47051 0.76449 0.0
C1235 C 0.42319 0.47747 0.76917 0.0
C1236 C 0.51383 0.52165 0.7711 0.0
C1237 C 0.48499 0.4954 0.77871 0.0
C1238 C 0.54447 0.53065 0.76528 0.0
C1239 C 0.57829 0.5237 0.76738 0.0
C1240 C 0.51698 0.50554 0.77825 0.0
C1241 C 0.58033 0.5077 0.77697 0.0
C1242 C 0.48776 0.47939 0.76962 0.0
C1243 C 0.42164 0.49332 0.78085 0.0
N1244 N 0.55008 0.49911 0.78139 0.0
N1245 N 0.45209 0.5018 0.78453 0.0
H1246 H 0.45917 0.95967 0.255 0.0
H1247 H 0.54167 0.04432 0.25564 0.0
H1248 H 0.39541 1.00053 0.28154 0.0
H1249 H 0.60502 0.00334 0.28227 0.0
H1250 H 0.48765 0.02862 0.26418 0.0
H1251 H 0.51303 0.97541 0.26394 0.0
C1252 C 0.4565 0.97192 0.2631 0.0
C1253 C 0.42272 0.97882 0.26716 0.0
C1254 C 0.51338 0.02312 0.26873 0.0
C1255 C 0.48425 0.99693 0.27687 0.0
C1256 C 0.54423 0.03206 0.26374 0.0
C1257 C 0.57794 0.02511 0.2679 0.0
C1258 C 0.51625 0.00707 0.2771 0.0
C1259 C 0.57962 0.00919 0.27869 0.0
C1260 C 0.48725 0.98089 0.26835 0.0
C1261 C 0.42089 0.99473 0.278 0.0
N1262 N 0.54922 1.00066 0.28224 0.0
N1263 N 0.45123 0.0033 0.28182 0.0
loop_
_geom_bond_atom_site_label_1
_geom_bond_atom_site_label_2
_geom_bond_distance
_geom_bond_site_symmetry_2
_ccdc_geom_bond_type
Co0 O3 1.970 . S
Co0 N17 1.989 . S
Co0 O25 1.967 . S
Co0 O32 1.920 . S
Co1 O4 1.966 . S
Co1 N10 2.022 . S
Co1 N18 1.993 . S
Co1 O26 1.941 1_554 S
C2 O3 1.258 . S
C2 O4 1.263 1_556 S
O3 Co0 1.970 . S
O3 C2 1.258 . S
O4 Co1 1.966 . S
O4 C2 1.263 1_554 S
C5 O6 1.235 . S
C5 O32 1.289 . S
O6 C5 1.235 . S
C7 C9 1.400 . S
C7 N10 1.351 . S
C7 C12 1.501 . S
C8 C9 1.387 1_655 S
C8 N11 1.341 . S
C9 C7 1.400 . S
C9 C8 1.387 1_455 S
N10 Co1 2.022 . S
N10 C7 1.351 . S
N10 N11 1.365 1_455 S
N11 C8 1.341 . S
N11 N10 1.365 1_655 S
N11 H31 0.862 . S
C12 C7 1.501 . S
C12 H13 0.961 . S
C12 H14 0.961 . S
C12 H15 0.960 . S
H13 C12 0.961 . S
H14 C12 0.961 . S
H15 C12 0.960 . S
C16 N17 1.342 1_554 S
C16 C20 1.401 . S
C16 C21 1.499 1_554 S
N17 Co0 1.989 . S
N17 C16 1.342 1_556 S
N17 N18 1.388 1_556 S
N18 Co1 1.993 . S
N18 N17 1.388 1_554 S
N18 C19 1.346 . S
C19 N18 1.346 . S
C19 C20 1.396 . S
C19 C29 1.510 . S
C20 C16 1.401 . S
C20 C19 1.396 . S
C21 C16 1.499 1_556 S
C21 H22 0.959 . S
C21 H23 0.969 . S
C21 H24 0.961 . S
H22 C21 0.959 . S
H23 C21 0.969 . S
H24 C21 0.961 . S
O25 Co0 1.967 . S
O25 C33 1.258 . S
O26 Co1 1.941 1_556 S
O26 C33 1.266 . S
H27 C29 0.959 1_655 S
H28 C29 0.961 . S
C29 C19 1.510 . S
C29 H27 0.959 1_455 S
C29 H28 0.961 . S
C29 H30 0.960 . S
H30 C29 0.960 . S
H31 N11 0.862 . S
O32 Co0 1.920 . S
O32 C5 1.289 . S
C33 O25 1.258 . S
C33 O26 1.266 . S
Co34 O37 1.970 . S
Co34 N51 1.989 . S
Co34 O59 1.967 . S
Co34 O66 1.920 . S
Co35 O38 1.966 . S
Co35 N44 2.022 . S
Co35 N52 1.993 . S
Co35 O60 1.941 1_554 S
C36 O37 1.258 . S
C36 O38 1.263 1_556 S
O37 Co34 1.970 . S
O37 C36 1.258 . S
O38 Co35 1.966 . S
O38 C36 1.263 1_554 S
C39 O40 1.235 . S
C39 O66 1.289 . S
O40 C39 1.235 . S
C41 C43 1.400 . S
C41 N44 1.351 . S
C41 C46 1.501 . S
C42 C43 1.387 1_455 S
C42 N45 1.341 . S
C43 C41 1.400 . S
C43 C42 1.387 1_655 S
N44 Co35 2.022 . S
N44 C41 1.351 . S
N44 N45 1.365 1_655 S
N45 C42 1.341 . S
N45 N44 1.365 1_455 S
N45 H65 0.862 . S
C46 C41 1.501 . S
C46 H47 0.961 . S
C46 H48 0.961 . S
C46 H49 0.960 . S
H47 C46 0.961 . S
H48 C46 0.961 . S
H49 C46 0.960 . S
C50 N51 1.342 1_554 S
C50 C54 1.401 . S
C50 C55 1.499 1_554 S
N51 Co34 1.989 . S
N51 C50 1.342 1_556 S
N51 N52 1.388 1_556 S
N52 Co35 1.993 . S
N52 N51 1.388 1_554 S
N52 C53 1.346 . S
C53 N52 1.346 . S
C53 C54 1.396 . S
C53 C63 1.510 . S
C54 C50 1.401 . S
C54 C53 1.396 . S
C55 C50 1.499 1_556 S
C55 H56 0.959 . S
C55 H57 0.969 . S
C55 H58 0.961 . S
H56 C55 0.959 . S
H57 C55 0.969 . S
H58 C55 0.961 . S
O59 Co34 1.967 . S
O59 C67 1.258 . S
O60 Co35 1.941 1_556 S
O60 C67 1.266 . S
H61 C63 0.959 1_455 S
H62 C63 0.961 . S
C63 C53 1.510 . S
C63 H61 0.959 1_655 S
C63 H62 0.961 . S
C63 H64 0.960 . S
H64 C63 0.960 . S
H65 N45 0.862 . S
O66 Co34 1.920 . S
O66 C39 1.289 . S
C67 O59 1.258 . S
C67 O60 1.266 . S
Co68 O71 1.970 . S
Co68 N85 1.989 . S
Co68 O93 1.967 . S
Co68 O100 1.920 . S
Co69 O72 1.966 . S
Co69 N78 2.022 . S
Co69 N86 1.993 . S
Co69 O94 1.941 . S
C70 O71 1.258 . S
C70 O72 1.263 . S
O71 Co68 1.970 . S
O71 C70 1.258 . S
O72 Co69 1.966 . S
O72 C70 1.263 . S
C73 O74 1.235 . S
C73 O100 1.289 . S
O74 C73 1.235 . S
C75 C77 1.400 . S
C75 N78 1.351 . S
C75 C80 1.501 . S
C76 C77 1.387 . S
C76 N79 1.341 . S
C77 C75 1.400 . S
C77 C76 1.387 . S
N78 Co69 2.022 . S
N78 C75 1.351 . S
N78 N79 1.365 . S
N79 C76 1.341 . S
N79 N78 1.365 . S
N79 H99 0.862 . S
C80 C75 1.501 . S
C80 H81 0.961 . S
C80 H82 0.961 . S
C80 H83 0.960 . S
H81 C80 0.961 . S
H82 C80 0.961 . S
H83 C80 0.960 . S
C84 N85 1.342 . S
C84 C88 1.401 . S
C84 C89 1.499 . S
N85 Co68 1.989 . S
N85 C84 1.342 . S
N85 N86 1.388 . S
N86 Co69 1.993 . S
N86 N85 1.388 . S
N86 C87 1.346 . S
C87 N86 1.346 . S
C87 C88 1.396 . S
C87 C97 1.510 . S
C88 C84 1.401 . S
C88 C87 1.396 . S
C89 C84 1.499 . S
C89 H90 0.959 . S
C89 H91 0.960 . S
C89 H92 0.961 . S
H90 C89 0.959 . S
H91 C89 0.960 . S
H92 C89 0.961 . S
O93 Co68 1.967 . S
O93 C101 1.258 . S
O94 Co69 1.941 . S
O94 C101 1.266 . S
H95 C97 0.959 . S
H96 C97 0.961 . S
C97 C87 1.510 . S
C97 H95 0.959 . S
C97 H96 0.961 . S
C97 H98 0.960 . S
H98 C97 0.960 . S
H99 N79 0.862 . S
O100 Co68 1.920 . S
O100 C73 1.289 . S
C101 O93 1.258 . S
C101 O94 1.266 . S
Co102 O105 1.970 . S
Co102 N119 1.989 . S
Co102 O127 1.967 . S
Co102 O134 1.920 . S
Co103 O106 1.966 . S
Co103 N112 2.022 . S
Co103 N120 1.993 . S
Co103 O128 1.941 . S
C104 O105 1.258 . S
C104 O106 1.263 . S
O105 Co102 1.970 . S
O105 C104 1.258 . S
O106 Co103 1.966 . S
O106 C104 1.263 . S
C107 O108 1.235 . S
C107 O134 1.289 . S
O108 C107 1.235 . S
C109 C111 1.400 . S
C109 N112 1.351 . S
C109 C114 1.501 . S
C110 C111 1.387 . S
C110 N113 1.341 . S
C111 C109 1.400 . S
C111 C110 1.387 . S
N112 Co103 2.022 . S
N112 C109 1.351 . S
N112 N113 1.365 . S
N113 C110 1.341 . S
N113 N112 1.365 . S
N113 H133 0.862 . S
C114 C109 1.501 . S
C114 H115 0.961 . S
C114 H116 0.961 . S
C114 H117 0.960 . S
H115 C114 0.961 . S
H116 C114 0.961 . S
H117 C114 0.960 . S
C118 N119 1.342 . S
C118 C122 1.401 . S
C118 C123 1.499 . S
N119 Co102 1.989 . S
N119 C118 1.342 . S
N119 N120 1.388 . S
N120 Co103 1.993 . S
N120 N119 1.388 . S
N120 C121 1.346 . S
C121 N120 1.346 . S
C121 C122 1.396 . S
C121 C131 1.510 . S
C122 C118 1.401 . S
C122 C121 1.396 . S
C123 C118 1.499 . S
C123 H124 0.959 . S
C123 H125 0.960 . S
C123 H126 0.961 . S
H124 C123 0.959 . S
H125 C123 0.960 . S
H126 C123 0.961 . S
O127 Co102 1.967 . S
O127 C135 1.258 . S
O128 Co103 1.941 . S
O128 C135 1.266 . S
H129 C131 0.959 . S
H130 C131 0.961 . S
C131 C121 1.510 . S
C131 H129 0.959 . S
C131 H130 0.961 . S
C131 H132 0.960 . S
H132 C131 0.960 . S
H133 N113 0.862 . S
O134 Co102 1.920 . S
O134 C107 1.289 . S
C135 O127 1.258 . S
C135 O128 1.266 . S
Co136 O139 1.970 . S
Co136 N153 1.989 . S
Co136 O161 1.967 . S
Co136 O168 1.920 . S
Co137 O140 1.966 . S
Co137 N146 2.022 . S
Co137 N154 1.993 . S
Co137 O162 1.941 . S
C138 O139 1.258 . S
C138 O140 1.263 . S
O139 Co136 1.970 . S
O139 C138 1.258 . S
O140 Co137 1.966 . S
O140 C138 1.263 . S
C141 O142 1.235 . S
C141 O168 1.289 . S
O142 C141 1.235 . S
C143 C145 1.400 . S
C143 N146 1.351 . S
C143 C148 1.501 . S
C144 C145 1.387 1_655 S
C144 N147 1.341 . S
C145 C143 1.400 . S
C145 C144 1.387 1_455 S
N146 Co137 2.022 . S
N146 C143 1.351 . S
N146 N147 1.365 1_455 S
N147 C144 1.341 . S
N147 N146 1.365 1_655 S
N147 H167 0.862 . S
C148 C143 1.501 . S
C148 H149 0.961 . S
C148 H150 0.961 . S
C148 H151 0.960 . S
H149 C148 0.961 . S
H150 C148 0.961 . S
H151 C148 0.960 . S
C152 N153 1.342 . S
C152 C156 1.401 . S
C152 C157 1.499 . S
N153 Co136 1.989 . S
N153 C152 1.342 . S
N153 N154 1.388 . S
N154 Co137 1.993 . S
N154 N153 1.388 . S
N154 C155 1.346 . S
C155 N154 1.346 . S
C155 C156 1.396 . S
C155 C165 1.510 . S
C156 C152 1.401 . S
C156 C155 1.396 . S
C157 C152 1.499 . S
C157 H158 0.959 . S
C157 H159 0.960 . S
C157 H160 0.961 . S
H158 C157 0.959 . S
H159 C157 0.960 . S
H160 C157 0.961 . S
O161 Co136 1.967 . S
O161 C169 1.258 . S
O162 Co137 1.941 . S
O162 C169 1.266 . S
H163 C165 0.959 1_655 S
H164 C165 0.961 . S
C165 C155 1.510 . S
C165 H163 0.959 1_455 S
C165 H164 0.961 . S
C165 H166 0.960 . S
H166 C165 0.960 . S
H167 N147 0.862 . S
O168 Co136 1.920 . S
O168 C141 1.289 . S
C169 O161 1.258 . S
C169 O162 1.266 . S
Co170 O173 1.970 . S
Co170 N187 1.989 . S
Co170 O195 1.967 . S
Co170 O202 1.920 . S
Co171 O174 1.966 . S
Co171 N180 2.022 . S
Co171 N188 1.993 . S
Co171 O196 1.941 . S
C172 O173 1.258 . S
C172 O174 1.263 . S
O173 Co170 1.970 . S
O173 C172 1.258 . S
O174 Co171 1.966 . S
O174 C172 1.263 . S
C175 O176 1.235 . S
C175 O202 1.289 . S
O176 C175 1.235 . S
C177 C179 1.400 . S
C177 N180 1.351 . S
C177 C182 1.501 . S
C178 C179 1.387 1_455 S
C178 N181 1.341 . S
C179 C177 1.400 . S
C179 C178 1.387 1_655 S
N180 Co171 2.022 . S
N180 C177 1.351 . S
N180 N181 1.365 1_655 S
N181 C178 1.341 . S
N181 N180 1.365 1_455 S
N181 H201 0.862 . S
C182 C177 1.501 . S
C182 H183 0.961 . S
C182 H184 0.961 . S
C182 H185 0.960 . S
H183 C182 0.961 . S
H184 C182 0.961 . S
H185 C182 0.960 . S
C186 N187 1.342 . S
C186 C190 1.401 . S
C186 C191 1.499 . S
N187 Co170 1.989 . S
N187 C186 1.342 . S
N187 N188 1.388 . S
N188 Co171 1.993 . S
N188 N187 1.388 . S
N188 C189 1.346 . S
C189 N188 1.346 . S
C189 C190 1.396 . S
C189 C199 1.510 . S
C190 C186 1.401 . S
C190 C189 1.396 . S
C191 C186 1.499 . S
C191 H192 0.959 . S
C191 H193 0.960 . S
C191 H194 0.961 . S
H192 C191 0.959 . S
H193 C191 0.960 . S
H194 C191 0.961 . S
O195 Co170 1.967 . S
O195 C203 1.258 . S
O196 Co171 1.941 . S
O196 C203 1.266 . S
H197 C199 0.959 1_455 S
H198 C199 0.961 . S
C199 C189 1.510 . S
C199 H197 0.959 1_655 S
C199 H198 0.961 . S
C199 H200 0.960 . S
H200 C199 0.960 . S
H201 N181 0.862 . S
O202 Co170 1.920 . S
O202 C175 1.289 . S
C203 O195 1.258 . S
C203 O196 1.266 . S
Co204 O207 1.970 . S
Co204 N221 1.989 . S
Co204 O229 1.967 . S
Co204 O236 1.920 . S
Co205 O208 1.966 . S
Co205 N214 2.022 . S
Co205 N222 1.993 . S
Co205 O230 1.941 . S
C206 O207 1.258 . S
C206 O208 1.263 . S
O207 Co204 1.970 . S
O207 C206 1.258 . S
O208 Co205 1.966 . S
O208 C206 1.263 . S
C209 O210 1.235 . S
C209 O236 1.289 . S
O210 C209 1.235 . S
C211 C213 1.400 . S
C211 N214 1.351 . S
C211 C216 1.501 . S
C212 C213 1.387 . S
C212 N215 1.341 . S
C213 C211 1.400 . S
C213 C212 1.387 . S
N214 Co205 2.022 . S
N214 C211 1.351 . S
N214 N215 1.365 . S
N215 C212 1.341 . S
N215 N214 1.365 . S
N215 H235 0.862 . S
C216 C211 1.501 . S
C216 H217 0.961 . S
C216 H218 0.961 . S
C216 H219 0.960 . S
H217 C216 0.961 . S
H218 C216 0.961 . S
H219 C216 0.960 . S
C220 N221 1.342 . S
C220 C224 1.401 . S
C220 C225 1.499 . S
N221 Co204 1.989 . S
N221 C220 1.342 . S
N221 N222 1.388 . S
N222 Co205 1.993 . S
N222 N221 1.388 . S
N222 C223 1.346 . S
C223 N222 1.346 . S
C223 C224 1.396 . S
C223 C233 1.510 . S
C224 C220 1.401 . S
C224 C223 1.396 . S
C225 C220 1.499 . S
C225 H226 0.959 . S
C225 H227 0.960 . S
C225 H228 0.961 . S
H226 C225 0.959 . S
H227 C225 0.960 . S
H228 C225 0.961 . S
O229 Co204 1.967 . S
O229 C237 1.258 . S
O230 Co205 1.941 . S
O230 C237 1.266 . S
H231 C233 0.959 . S
H232 C233 0.961 . S
C233 C223 1.510 . S
C233 H231 0.959 . S
C233 H232 0.961 . S
C233 H234 0.960 . S
H234 C233 0.960 . S
H235 N215 0.862 . S
O236 Co204 1.920 . S
O236 C209 1.289 . S
C237 O229 1.258 . S
C237 O230 1.266 . S
Co238 O241 1.970 . S
Co238 N255 1.989 . S
Co238 O263 1.967 . S
Co238 O270 1.920 . S
Co239 O242 1.966 . S
Co239 N248 2.022 . S
Co239 N256 1.993 . S
Co239 O264 1.941 . S
C240 O241 1.258 . S
C240 O242 1.263 . S
O241 Co238 1.970 . S
O241 C240 1.258 . S
O242 Co239 1.966 . S
O242 C240 1.263 . S
C243 O244 1.235 . S
C243 O270 1.289 . S
O244 C243 1.235 . S
C245 C247 1.400 . S
C245 N248 1.351 . S
C245 C250 1.501 . S
C246 C247 1.387 . S
C246 N249 1.341 . S
C247 C245 1.400 . S
C247 C246 1.387 . S
N248 Co239 2.022 . S
N248 C245 1.351 . S
N248 N249 1.365 . S
N249 C246 1.341 . S
N249 N248 1.365 . S
N249 H269 0.862 . S
C250 C245 1.501 . S
C250 H251 0.961 . S
C250 H252 0.961 . S
C250 H253 0.960 . S
H251 C250 0.961 . S
H252 C250 0.961 . S
H253 C250 0.960 . S
C254 N255 1.342 . S
C254 C258 1.401 . S
C254 C259 1.499 . S
N255 Co238 1.989 . S
N255 C254 1.342 . S
N255 N256 1.388 . S
N256 Co239 1.993 . S
N256 N255 1.388 . S
N256 C257 1.346 . S
C257 N256 1.346 . S
C257 C258 1.396 . S
C257 C267 1.510 . S
C258 C254 1.401 . S
C258 C257 1.396 . S
C259 C254 1.499 . S
C259 H260 0.959 . S
C259 H261 0.960 . S
C259 H262 0.961 . S
H260 C259 0.959 . S
H261 C259 0.960 . S
H262 C259 0.961 . S
O263 Co238 1.967 . S
O263 C271 1.258 . S
O264 Co239 1.941 . S
O264 C271 1.266 . S
H265 C267 0.959 . S
H266 C267 0.961 . S
C267 C257 1.510 . S
C267 H265 0.959 . S
C267 H266 0.961 . S
C267 H268 0.960 . S
H268 C267 0.960 . S
H269 N249 0.862 . S
O270 Co238 1.920 . S
O270 C243 1.289 . S
C271 O263 1.258 . S
C271 O264 1.266 . S
Co272 O275 1.970 . S
Co272 N289 1.989 . S
Co272 O297 1.967 . S
Co272 O304 1.920 . S
Co273 O276 1.966 . S
Co273 N282 2.022 . S
Co273 N290 1.993 . S
Co273 O298 1.941 . S
C274 O275 1.258 . S
C274 O276 1.263 . S
O275 Co272 1.970 . S
O275 C274 1.258 . S
O276 Co273 1.966 . S
O276 C274 1.263 . S
C277 O278 1.235 . S
C277 O304 1.289 . S
O278 C277 1.235 . S
C279 C281 1.400 . S
C279 N282 1.351 . S
C279 C284 1.501 . S
C280 C281 1.387 . S
C280 N283 1.341 . S
C281 C279 1.400 . S
C281 C280 1.387 . S
N282 Co273 2.022 . S
N282 C279 1.351 . S
N282 N283 1.365 . S
N283 C280 1.341 . S
N283 N282 1.365 . S
N283 H303 0.862 . S
C284 C279 1.501 . S
C284 H285 0.961 . S
C284 H286 0.961 . S
C284 H287 0.960 . S
H285 C284 0.961 . S
H286 C284 0.961 . S
H287 C284 0.960 . S
C288 N289 1.342 . S
C288 C292 1.401 . S
C288 C293 1.499 . S
N289 Co272 1.989 . S
N289 C288 1.342 . S
N289 N290 1.388 . S
N290 Co273 1.993 . S
N290 N289 1.388 . S
N290 C291 1.346 . S
C291 N290 1.346 . S
C291 C292 1.396 . S
C291 C301 1.510 . S
C292 C288 1.401 . S
C292 C291 1.396 . S
C293 C288 1.499 . S
C293 H294 0.959 . S
C293 H295 0.960 . S
C293 H296 0.961 . S
H294 C293 0.959 . S
H295 C293 0.960 . S
H296 C293 0.961 . S
O297 Co272 1.967 . S
O297 C305 1.258 . S
O298 Co273 1.941 . S
O298 C305 1.266 . S
H299 C301 0.959 . S
H300 C301 0.961 . S
C301 C291 1.510 . S
C301 H299 0.959 . S
C301 H300 0.961 . S
C301 H302 0.960 . S
H302 C301 0.960 . S
H303 N283 0.862 . S
O304 Co272 1.920 . S
O304 C277 1.289 . S
C305 O297 1.258 . S
C305 O298 1.266 . S
Co306 O309 1.970 . S
Co306 N323 1.989 . S
Co306 O331 1.967 . S
Co306 O338 1.920 . S
Co307 O310 1.966 . S
Co307 N316 2.022 . S
Co307 N324 1.993 . S
Co307 O332 1.941 . S
C308 O309 1.258 . S
C308 O310 1.263 . S
O309 Co306 1.970 . S
O309 C308 1.258 . S
O310 Co307 1.966 . S
O310 C308 1.263 . S
C311 O312 1.235 . S
C311 O338 1.289 . S
O312 C311 1.235 . S
C313 C315 1.400 . S
C313 N316 1.351 . S
C313 C318 1.501 . S
C314 C315 1.387 . S
C314 N317 1.341 . S
C315 C313 1.400 . S
C315 C314 1.387 . S
N316 Co307 2.022 . S
N316 C313 1.351 . S
N316 N317 1.365 . S
N317 C314 1.341 . S
N317 N316 1.365 . S
N317 H337 0.862 . S
C318 C313 1.501 . S
C318 H319 0.961 . S
C318 H320 0.961 . S
C318 H321 0.960 . S
H319 C318 0.961 . S
H320 C318 0.961 . S
H321 C318 0.960 . S
C322 N323 1.342 . S
C322 C326 1.401 . S
C322 C327 1.499 . S
N323 Co306 1.989 . S
N323 C322 1.342 . S
N323 N324 1.388 . S
N324 Co307 1.993 . S
N324 N323 1.388 . S
N324 C325 1.346 . S
C325 N324 1.346 . S
C325 C326 1.396 . S
C325 C335 1.510 . S
C326 C322 1.401 . S
C326 C325 1.396 . S
C327 C322 1.499 . S
C327 H328 0.959 . S
C327 H329 0.960 . S
C327 H330 0.961 . S
H328 C327 0.959 . S
H329 C327 0.960 . S
H330 C327 0.961 . S
O331 Co306 1.967 . S
O331 C339 1.258 . S
O332 Co307 1.941 . S
O332 C339 1.266 . S
H333 C335 0.959 . S
H334 C335 0.961 . S
C335 C325 1.510 . S
C335 H333 0.959 . S
C335 H334 0.961 . S
C335 H336 0.960 . S
H336 C335 0.960 . S
H337 N317 0.862 . S
O338 Co306 1.920 . S
O338 C311 1.289 . S
C339 O331 1.258 . S
C339 O332 1.266 . S
Co340 O343 1.970 . S
Co340 N357 1.989 . S
Co340 O365 1.967 . S
Co340 O372 1.920 . S
Co341 O344 1.966 . S
Co341 N350 2.022 . S
Co341 N358 1.993 . S
Co341 O366 1.941 . S
C342 O343 1.258 . S
C342 O344 1.263 . S
O343 Co340 1.970 . S
O343 C342 1.258 . S
O344 Co341 1.966 . S
O344 C342 1.263 . S
C345 O346 1.235 . S
C345 O372 1.289 . S
O346 C345 1.235 . S
C347 C349 1.400 . S
C347 N350 1.351 . S
C347 C352 1.501 . S
C348 C349 1.387 . S
C348 N351 1.341 . S
C349 C347 1.400 . S
C349 C348 1.387 . S
N350 Co341 2.022 . S
N350 C347 1.351 . S
N350 N351 1.365 . S
N351 C348 1.341 . S
N351 N350 1.365 . S
N351 H371 0.862 . S
C352 C347 1.501 . S
C352 H353 0.961 . S
C352 H354 0.961 . S
C352 H355 0.960 . S
H353 C352 0.961 . S
H354 C352 0.961 . S
H355 C352 0.960 . S
C356 N357 1.342 . S
C356 C360 1.401 . S
C356 C361 1.499 . S
N357 Co340 1.989 . S
N357 C356 1.342 . S
N357 N358 1.388 . S
N358 Co341 1.993 . S
N358 N357 1.388 . S
N358 C359 1.346 . S
C359 N358 1.346 . S
C359 C360 1.396 . S
C359 C369 1.510 . S
C360 C356 1.401 . S
C360 C359 1.396 . S
C361 C356 1.499 . S
C361 H362 0.959 . S
C361 H363 0.960 . S
C361 H364 0.961 . S
H362 C361 0.959 . S
H363 C361 0.960 . S
H364 C361 0.961 . S
O365 Co340 1.967 . S
O365 C373 1.258 . S
O366 Co341 1.941 . S
O366 C373 1.266 . S
H367 C369 0.959 . S
H368 C369 0.961 . S
C369 C359 1.510 . S
C369 H367 0.959 . S
C369 H368 0.961 . S
C369 H370 0.960 . S
H370 C369 0.960 . S
H371 N351 0.862 . S
O372 Co340 1.920 . S
O372 C345 1.289 . S
C373 O365 1.258 . S
C373 O366 1.266 . S
Co374 O377 1.970 . S
Co374 N391 1.989 . S
Co374 O399 1.967 . S
Co374 O406 1.920 . S
Co375 O378 1.966 . S
Co375 N384 2.022 . S
Co375 N392 1.993 . S
Co375 O400 1.941 . S
C376 O377 1.258 . S
C376 O378 1.263 . S
O377 Co374 1.970 . S
O377 C376 1.258 . S
O378 Co375 1.966 . S
O378 C376 1.263 . S
C379 O380 1.235 . S
C379 O406 1.289 . S
O380 C379 1.235 . S
C381 C383 1.400 . S
C381 N384 1.351 . S
C381 C386 1.501 . S
C382 C383 1.387 . S
C382 N385 1.341 . S
C383 C381 1.400 . S
C383 C382 1.387 . S
N384 Co375 2.022 . S
N384 C381 1.351 . S
N384 N385 1.365 . S
N385 C382 1.341 . S
N385 N384 1.365 . S
N385 H405 0.862 . S
C386 C381 1.501 . S
C386 H387 0.961 . S
C386 H388 0.961 . S
C386 H389 0.960 . S
H387 C386 0.961 . S
H388 C386 0.961 . S
H389 C386 0.960 . S
C390 N391 1.342 . S
C390 C394 1.401 . S
C390 C395 1.499 . S
N391 Co374 1.989 . S
N391 C390 1.342 . S
N391 N392 1.388 . S
N392 Co375 1.993 . S
N392 N391 1.388 . S
N392 C393 1.346 . S
C393 N392 1.346 . S
C393 C394 1.396 . S
C393 C403 1.510 . S
C394 C390 1.401 . S
C394 C393 1.396 . S
C395 C390 1.499 . S
C395 H396 0.959 . S
C395 H397 0.960 . S
C395 H398 0.961 . S
H396 C395 0.959 . S
H397 C395 0.960 . S
H398 C395 0.961 . S
O399 Co374 1.967 . S
O399 C407 1.258 . S
O400 Co375 1.941 . S
O400 C407 1.266 . S
H401 C403 0.959 . S
H402 C403 0.961 . S
C403 C393 1.510 . S
C403 H401 0.959 . S
C403 H402 0.961 . S
C403 H404 0.960 . S
H404 C403 0.960 . S
H405 N385 0.862 . S
O406 Co374 1.920 . S
O406 C379 1.289 . S
C407 O399 1.258 . S
C407 O400 1.266 . S
Co408 O411 1.970 . S
Co408 N425 1.989 . S
Co408 O433 1.967 . S
Co408 O440 1.920 . S
Co409 O412 1.966 . S
Co409 N418 2.022 . S
Co409 N426 1.993 . S
Co409 O434 1.941 1_554 S
C410 O411 1.258 . S
C410 O412 1.263 1_556 S
O411 Co408 1.970 . S
O411 C410 1.258 . S
O412 Co409 1.966 . S
O412 C410 1.263 1_554 S
C413 O414 1.235 . S
C413 O440 1.289 . S
O414 C413 1.235 . S
C415 C417 1.400 . S
C415 N418 1.351 . S
C415 C420 1.501 . S
C416 C417 1.387 . S
C416 N419 1.341 . S
C417 C415 1.400 . S
C417 C416 1.387 . S
N418 Co409 2.022 . S
N418 C415 1.351 . S
N418 N419 1.365 . S
N419 C416 1.341 . S
N419 N418 1.365 . S
N419 H439 0.862 . S
C420 C415 1.501 . S
C420 H421 0.961 . S
C420 H422 0.961 . S
C420 H423 0.960 . S
H421 C420 0.961 . S
H422 C420 0.961 . S
H423 C420 0.960 . S
C424 N425 1.342 1_554 S
C424 C428 1.401 . S
C424 C429 1.499 1_554 S
N425 Co408 1.989 . S
N425 C424 1.342 1_556 S
N425 N426 1.388 1_556 S
N426 Co409 1.993 . S
N426 N425 1.388 1_554 S
N426 C427 1.346 . S
C427 N426 1.346 . S
C427 C428 1.396 . S
C427 C437 1.510 . S
C428 C424 1.401 . S
C428 C427 1.396 . S
C429 C424 1.499 1_556 S
C429 H430 0.959 . S
C429 H431 0.969 . S
C429 H432 0.961 . S
H430 C429 0.959 . S
H431 C429 0.969 . S
H432 C429 0.961 . S
O433 Co408 1.967 . S
O433 C441 1.258 . S
O434 Co409 1.941 1_556 S
O434 C441 1.266 . S
H435 C437 0.959 . S
H436 C437 0.961 . S
C437 C427 1.510 . S
C437 H435 0.959 . S
C437 H436 0.961 . S
C437 H438 0.960 . S
H438 C437 0.960 . S
H439 N419 0.862 . S
O440 Co408 1.920 . S
O440 C413 1.289 . S
C441 O433 1.258 . S
C441 O434 1.266 . S
Co442 O445 1.970 . S
Co442 N459 1.989 . S
Co442 O467 1.967 . S
Co442 O474 1.920 . S
Co443 O446 1.966 . S
Co443 N452 2.022 . S
Co443 N460 1.993 . S
Co443 O468 1.941 1_554 S
C444 O445 1.258 . S
C444 O446 1.263 1_556 S
O445 Co442 1.970 . S
O445 C444 1.258 . S
O446 Co443 1.966 . S
O446 C444 1.263 1_554 S
C447 O448 1.235 . S
C447 O474 1.289 . S
O448 C447 1.235 . S
C449 C451 1.400 . S
C449 N452 1.351 . S
C449 C454 1.501 . S
C450 C451 1.387 . S
C450 N453 1.341 . S
C451 C449 1.400 . S
C451 C450 1.387 . S
N452 Co443 2.022 . S
N452 C449 1.351 . S
N452 N453 1.365 . S
N453 C450 1.341 . S
N453 N452 1.365 . S
N453 H473 0.862 . S
C454 C449 1.501 . S
C454 H455 0.961 . S
C454 H456 0.961 . S
C454 H457 0.960 . S
H455 C454 0.961 . S
H456 C454 0.961 . S
H457 C454 0.960 . S
C458 N459 1.342 1_554 S
C458 C462 1.401 . S
C458 C463 1.499 1_554 S
N459 Co442 1.989 . S
N459 C458 1.342 1_556 S
N459 N460 1.388 1_556 S
N460 Co443 1.993 . S
N460 N459 1.388 1_554 S
N460 C461 1.346 . S
C461 N460 1.346 . S
C461 C462 1.396 . S
C461 C471 1.510 . S
C462 C458 1.401 . S
C462 C461 1.396 . S
C463 C458 1.499 1_556 S
C463 H464 0.959 . S
C463 H465 0.969 . S
C463 H466 0.961 . S
H464 C463 0.959 . S
H465 C463 0.969 . S
H466 C463 0.961 . S
O467 Co442 1.967 . S
O467 C475 1.258 . S
O468 Co443 1.941 1_556 S
O468 C475 1.266 . S
H469 C471 0.959 . S
H470 C471 0.961 . S
C471 C461 1.510 . S
C471 H469 0.959 . S
C471 H470 0.961 . S
C471 H472 0.960 . S
H472 C471 0.960 . S
H473 N453 0.862 . S
O474 Co442 1.920 . S
O474 C447 1.289 . S
C475 O467 1.258 . S
C475 O468 1.266 . S
Co476 O479 1.970 . S
Co476 N493 1.989 . S
Co476 O501 1.967 . S
Co476 O508 1.920 . S
Co477 O480 1.966 . S
Co477 N486 2.022 . S
Co477 N494 1.993 . S
Co477 O502 1.941 . S
C478 O479 1.258 . S
C478 O480 1.263 . S
O479 Co476 1.970 . S
O479 C478 1.258 . S
O480 Co477 1.966 . S
O480 C478 1.263 . S
C481 O482 1.235 . S
C481 O508 1.289 . S
O482 C481 1.235 . S
C483 C485 1.400 . S
C483 N486 1.351 . S
C483 C488 1.501 . S
C484 C485 1.387 . S
C484 N487 1.341 . S
C485 C483 1.400 . S
C485 C484 1.387 . S
N486 Co477 2.022 . S
N486 C483 1.351 . S
N486 N487 1.365 . S
N487 C484 1.341 . S
N487 N486 1.365 . S
N487 H507 0.862 . S
C488 C483 1.501 . S
C488 H489 0.961 . S
C488 H490 0.961 . S
C488 H491 0.960 . S
H489 C488 0.961 . S
H490 C488 0.961 . S
H491 C488 0.960 . S
C492 N493 1.342 . S
C492 C496 1.401 . S
C492 C497 1.499 . S
N493 Co476 1.989 . S
N493 C492 1.342 . S
N493 N494 1.388 . S
N494 Co477 1.993 . S
N494 N493 1.388 . S
N494 C495 1.346 . S
C495 N494 1.346 . S
C495 C496 1.396 . S
C495 C505 1.510 . S
C496 C492 1.401 . S
C496 C495 1.396 . S
C497 C492 1.499 . S
C497 H498 0.959 . S
C497 H499 0.960 . S
C497 H500 0.961 . S
H498 C497 0.959 . S
H499 C497 0.960 . S
H500 C497 0.961 . S
O501 Co476 1.967 . S
O501 C509 1.258 . S
O502 Co477 1.941 . S
O502 C509 1.266 . S
H503 C505 0.959 . S
H504 C505 0.961 . S
C505 C495 1.510 . S
C505 H503 0.959 . S
C505 H504 0.961 . S
C505 H506 0.960 . S
H506 C505 0.960 . S
H507 N487 0.862 . S
O508 Co476 1.920 . S
O508 C481 1.289 . S
C509 O501 1.258 . S
C509 O502 1.266 . S
Co510 O513 1.970 . S
Co510 N527 1.989 . S
Co510 O535 1.967 . S
Co510 O542 1.920 . S
Co511 O514 1.966 . S
Co511 N520 2.022 . S
Co511 N528 1.993 . S
Co511 O536 1.941 . S
C512 O513 1.258 . S
C512 O514 1.263 . S
O513 Co510 1.970 . S
O513 C512 1.258 . S
O514 Co511 1.966 . S
O514 C512 1.263 . S
C515 O516 1.235 . S
C515 O542 1.289 . S
O516 C515 1.235 . S
C517 C519 1.400 . S
C517 N520 1.351 . S
C517 C522 1.501 . S
C518 C519 1.387 . S
C518 N521 1.341 . S
C519 C517 1.400 . S
C519 C518 1.387 . S
N520 Co511 2.022 . S
N520 C517 1.351 . S
N520 N521 1.365 . S
N521 C518 1.341 . S
N521 N520 1.365 . S
N521 H541 0.862 . S
C522 C517 1.501 . S
C522 H523 0.961 . S
C522 H524 0.961 . S
C522 H525 0.960 . S
H523 C522 0.961 . S
H524 C522 0.961 . S
H525 C522 0.960 . S
C526 N527 1.342 . S
C526 C530 1.401 . S
C526 C531 1.499 . S
N527 Co510 1.989 . S
N527 C526 1.342 . S
N527 N528 1.388 . S
N528 Co511 1.993 . S
N528 N527 1.388 . S
N528 C529 1.346 . S
C529 N528 1.346 . S
C529 C530 1.396 . S
C529 C539 1.510 . S
C530 C526 1.401 . S
C530 C529 1.396 . S
C531 C526 1.499 . S
C531 H532 0.959 . S
C531 H533 0.960 . S
C531 H534 0.961 . S
H532 C531 0.959 . S
H533 C531 0.960 . S
H534 C531 0.961 . S
O535 Co510 1.967 . S
O535 C543 1.258 . S
O536 Co511 1.941 . S
O536 C543 1.266 . S
H537 C539 0.959 . S
H538 C539 0.961 . S
C539 C529 1.510 . S
C539 H537 0.959 . S
C539 H538 0.961 . S
C539 H540 0.960 . S
H540 C539 0.960 . S
H541 N521 0.862 . S
O542 Co510 1.920 . S
O542 C515 1.289 . S
C543 O535 1.258 . S
C543 O536 1.266 . S
H544 C550 0.930 . S
H545 C554 0.930 . S
H546 C559 0.929 . S
H547 C557 0.929 . S
H548 C552 0.929 . S
H549 C558 0.929 . S
C550 H544 0.930 . S
C550 C551 1.367 . S
C550 C558 1.378 . S
C551 C550 1.367 . S
C551 C559 1.433 . S
C552 H548 0.929 . S
C552 C554 1.378 . S
C552 C556 1.350 . S
C553 C556 1.463 . S
C553 C558 1.350 . S
C553 N561 1.427 . S
C554 H545 0.930 . S
C554 C552 1.378 . S
C554 C555 1.367 . S
C555 C554 1.367 . S
C555 C557 1.433 . S
C556 C552 1.350 . S
C556 C553 1.463 . S
C556 N560 1.427 . S
C557 H547 0.929 . S
C557 C555 1.433 . S
C557 N560 1.384 . S
C558 H549 0.929 . S
C558 C550 1.378 . S
C558 C553 1.350 . S
C559 H546 0.929 . S
C559 C551 1.433 . S
C559 N561 1.384 . S
N560 C556 1.427 . S
N560 C557 1.384 . S
N561 C553 1.427 . S
N561 C559 1.384 . S
H562 C568 0.930 . S
H563 C572 0.930 . S
H564 C577 0.929 . S
H565 C575 0.929 . S
H566 C570 0.929 . S
H567 C576 0.929 . S
C568 H562 0.930 . S
C568 C569 1.367 . S
C568 C576 1.378 . S
C569 C568 1.367 . S
C569 C577 1.433 . S
C570 H566 0.929 . S
C570 C572 1.378 . S
C570 C574 1.350 . S
C571 C574 1.463 . S
C571 C576 1.350 . S
C571 N579 1.427 . S
C572 H563 0.930 . S
C572 C570 1.378 . S
C572 C573 1.367 . S
C573 C572 1.367 . S
C573 C575 1.433 . S
C574 C570 1.350 . S
C574 C571 1.463 . S
C574 N578 1.427 . S
C575 H565 0.929 . S
C575 C573 1.433 . S
C575 N578 1.384 . S
C576 H567 0.929 . S
C576 C568 1.378 . S
C576 C571 1.350 . S
C577 H564 0.929 . S
C577 C569 1.433 . S
C577 N579 1.384 . S
N578 C574 1.427 . S
N578 C575 1.384 . S
N579 C571 1.427 . S
N579 C577 1.384 . S
H580 C586 0.930 . S
H581 C590 0.930 . S
H582 C595 0.929 . S
H583 C593 0.929 . S
H584 C588 0.929 . S
H585 C594 0.929 . S
C586 H580 0.930 . S
C586 C587 1.367 . S
C586 C594 1.378 . S
C587 C586 1.367 . S
C587 C595 1.433 1_655 S
C588 H584 0.929 . S
C588 C590 1.378 . S
C588 C592 1.350 . S
C589 C592 1.463 . S
C589 C594 1.350 1_455 S
C589 N597 1.427 . S
C590 H581 0.930 . S
C590 C588 1.378 . S
C590 C591 1.367 . S
C591 C590 1.367 . S
C591 C593 1.433 . S
C592 C588 1.350 . S
C592 C589 1.463 . S
C592 N596 1.427 . S
C593 H583 0.929 . S
C593 C591 1.433 . S
C593 N596 1.384 . S
C594 H585 0.929 . S
C594 C586 1.378 . S
C594 C589 1.350 1_655 S
C595 H582 0.929 . S
C595 C587 1.433 1_455 S
C595 N597 1.384 . S
N596 C592 1.427 . S
N596 C593 1.384 . S
N597 C589 1.427 . S
N597 C595 1.384 . S
H598 C604 0.930 . S
H599 C608 0.930 . S
H600 C613 0.929 . S
H601 C611 0.929 . S
H602 C606 0.929 . S
H603 C612 0.929 . S
C604 H598 0.930 . S
C604 C605 1.367 1_655 S
C604 C612 1.378 . S
C605 C604 1.367 1_455 S
C605 C613 1.433 . S
C606 H602 0.929 . S
C606 C608 1.378 . S
C606 C610 1.350 . S
C607 C610 1.463 . S
C607 C612 1.350 . S
C607 N615 1.427 . S
C608 H599 0.930 . S
C608 C606 1.378 . S
C608 C609 1.367 . S
C609 C608 1.367 . S
C609 C611 1.433 . S
C610 C606 1.350 . S
C610 C607 1.463 . S
C610 N614 1.427 . S
C611 H601 0.929 . S
C611 C609 1.433 . S
C611 N614 1.384 . S
C612 H603 0.929 . S
C612 C604 1.378 . S
C612 C607 1.350 . S
C613 H600 0.929 . S
C613 C605 1.433 . S
C613 N615 1.384 1_455 S
N614 C610 1.427 . S
N614 C611 1.384 . S
N615 C607 1.427 . S
N615 C613 1.384 1_655 S
H616 C622 0.930 . S
H617 C626 0.930 . S
H618 C631 0.929 . S
H619 C629 0.929 . S
H620 C624 0.929 . S
H621 C630 0.929 . S
C622 H616 0.930 . S
C622 C623 1.367 . S
C622 C630 1.378 . S
C623 C622 1.367 . S
C623 C631 1.433 . S
C624 H620 0.929 . S
C624 C626 1.378 . S
C624 C628 1.350 . S
C625 C628 1.463 . S
C625 C630 1.350 . S
C625 N633 1.427 . S
C626 H617 0.930 . S
C626 C624 1.378 . S
C626 C627 1.367 . S
C627 C626 1.367 . S
C627 C629 1.433 . S
C628 C624 1.350 . S
C628 C625 1.463 . S
C628 N632 1.427 . S
C629 H619 0.929 . S
C629 C627 1.433 . S
C629 N632 1.384 . S
C630 H621 0.929 . S
C630 C622 1.378 . S
C630 C625 1.350 . S
C631 H618 0.929 . S
C631 C623 1.433 . S
C631 N633 1.384 . S
N632 C628 1.427 . S
N632 C629 1.384 . S
N633 C625 1.427 . S
N633 C631 1.384 . S
H634 C640 0.930 . S
H635 C644 0.930 . S
H636 C649 0.929 . S
H637 C647 0.929 . S
H638 C642 0.929 . S
H639 C648 0.929 . S
C640 H634 0.930 . S
C640 C641 1.367 . S
C640 C648 1.378 . S
C641 C640 1.367 . S
C641 C649 1.433 . S
C642 H638 0.929 . S
C642 C644 1.378 . S
C642 C646 1.350 . S
C643 C646 1.463 . S
C643 C648 1.350 . S
C643 N651 1.427 . S
C644 H635 0.930 . S
C644 C642 1.378 . S
C644 C645 1.367 . S
C645 C644 1.367 . S
C645 C647 1.433 . S
C646 C642 1.350 . S
C646 C643 1.463 . S
C646 N650 1.427 . S
C647 H637 0.929 . S
C647 C645 1.433 . S
C647 N650 1.384 . S
C648 H639 0.929 . S
C648 C640 1.378 . S
C648 C643 1.350 . S
C649 H636 0.929 . S
C649 C641 1.433 . S
C649 N651 1.384 . S
N650 C646 1.427 . S
N650 C647 1.384 . S
N651 C643 1.427 . S
N651 C649 1.384 . S
H652 C658 0.930 . S
H653 C662 0.930 . S
H654 C667 0.929 . S
H655 C665 0.929 . S
H656 C660 0.929 . S
H657 C666 0.929 . S
C658 H652 0.930 . S
C658 C659 1.367 1_455 S
C658 C666 1.378 . S
C659 C658 1.367 1_655 S
C659 C667 1.433 . S
C660 H656 0.929 . S
C660 C662 1.378 . S
C660 C664 1.350 . S
C661 C664 1.463 . S
C661 C666 1.350 . S
C661 N669 1.427 . S
C662 H653 0.930 . S
C662 C660 1.378 . S
C662 C663 1.367 . S
C663 C662 1.367 . S
C663 C665 1.433 . S
C664 C660 1.350 . S
C664 C661 1.463 . S
C664 N668 1.427 . S
C665 H655 0.929 . S
C665 C663 1.433 . S
C665 N668 1.384 . S
C666 H657 0.929 . S
C666 C658 1.378 . S
C666 C661 1.350 . S
C667 H654 0.929 . S
C667 C659 1.433 . S
C667 N669 1.384 1_655 S
N668 C664 1.427 . S
N668 C665 1.384 . S
N669 C661 1.427 . S
N669 C667 1.384 1_455 S
H670 C676 0.930 . S
H671 C680 0.930 . S
H672 C685 0.929 . S
H673 C683 0.929 . S
H674 C678 0.929 . S
H675 C684 0.929 . S
C676 H670 0.930 . S
C676 C677 1.367 . S
C676 C684 1.378 . S
C677 C676 1.367 . S
C677 C685 1.433 . S
C678 H674 0.929 . S
C678 C680 1.378 . S
C678 C682 1.350 1_455 S
C679 C682 1.463 . S
C679 C684 1.350 . S
C679 N687 1.427 . S
C680 H671 0.930 . S
C680 C678 1.378 . S
C680 C681 1.367 . S
C681 C680 1.367 . S
C681 C683 1.433 1_455 S
C682 C678 1.350 1_655 S
C682 C679 1.463 . S
C682 N686 1.427 . S
C683 H673 0.929 . S
C683 C681 1.433 1_655 S
C683 N686 1.384 . S
C684 H675 0.929 . S
C684 C676 1.378 . S
C684 C679 1.350 . S
C685 H672 0.929 . S
C685 C677 1.433 . S
C685 N687 1.384 . S
N686 C682 1.427 . S
N686 C683 1.384 . S
N687 C679 1.427 . S
N687 C685 1.384 . S
H688 C694 0.930 . S
H689 C698 0.930 . S
H690 C703 0.929 . S
H691 C701 0.929 . S
H692 C696 0.929 . S
H693 C702 0.929 . S
C694 H688 0.930 . S
C694 C695 1.367 . S
C694 C702 1.378 . S
C695 C694 1.367 . S
C695 C703 1.433 . S
C696 H692 0.929 . S
C696 C698 1.378 . S
C696 C700 1.350 . S
C697 C700 1.463 . S
C697 C702 1.350 . S
C697 N705 1.427 . S
C698 H689 0.930 . S
C698 C696 1.378 . S
C698 C699 1.367 . S
C699 C698 1.367 . S
C699 C701 1.433 . S
C700 C696 1.350 . S
C700 C697 1.463 . S
C700 N704 1.427 . S
C701 H691 0.929 . S
C701 C699 1.433 . S
C701 N704 1.384 . S
C702 H693 0.929 . S
C702 C694 1.378 . S
C702 C697 1.350 . S
C703 H690 0.929 . S
C703 C695 1.433 . S
C703 N705 1.384 . S
N704 C700 1.427 . S
N704 C701 1.384 . S
N705 C697 1.427 . S
N705 C703 1.384 . S
H706 C712 0.930 . S
H707 C716 0.930 . S
H708 C721 0.929 . S
H709 C719 0.929 . S
H710 C714 0.929 . S
H711 C720 0.929 . S
C712 H706 0.930 . S
C712 C713 1.367 . S
C712 C720 1.378 . S
C713 C712 1.367 . S
C713 C721 1.433 . S
C714 H710 0.929 . S
C714 C716 1.378 . S
C714 C718 1.350 . S
C715 C718 1.463 . S
C715 C720 1.350 . S
C715 N723 1.427 . S
C716 H707 0.930 . S
C716 C714 1.378 . S
C716 C717 1.367 . S
C717 C716 1.367 . S
C717 C719 1.433 . S
C718 C714 1.350 . S
C718 C715 1.463 . S
C718 N722 1.427 . S
C719 H709 0.929 . S
C719 C717 1.433 . S
C719 N722 1.384 . S
C720 H711 0.929 . S
C720 C712 1.378 . S
C720 C715 1.350 . S
C721 H708 0.929 . S
C721 C713 1.433 . S
C721 N723 1.384 . S
N722 C718 1.427 . S
N722 C719 1.384 . S
N723 C715 1.427 . S
N723 C721 1.384 . S
H724 C730 0.930 . S
H725 C734 0.930 . S
H726 C739 0.929 . S
H727 C737 0.929 . S
H728 C732 0.929 . S
H729 C738 0.929 . S
C730 H724 0.930 . S
C730 C731 1.367 . S
C730 C738 1.378 . S
C731 C730 1.367 . S
C731 C739 1.433 . S
C732 H728 0.929 . S
C732 C734 1.378 . S
C732 C736 1.350 . S
C733 C736 1.463 . S
C733 C738 1.350 . S
C733 N741 1.427 . S
C734 H725 0.930 . S
C734 C732 1.378 . S
C734 C735 1.367 . S
C735 C734 1.367 . S
C735 C737 1.433 . S
C736 C732 1.350 . S
C736 C733 1.463 . S
C736 N740 1.427 . S
C737 H727 0.929 . S
C737 C735 1.433 . S
C737 N740 1.384 . S
C738 H729 0.929 . S
C738 C730 1.378 . S
C738 C733 1.350 . S
C739 H726 0.929 . S
C739 C731 1.433 . S
C739 N741 1.384 . S
N740 C736 1.427 . S
N740 C737 1.384 . S
N741 C733 1.427 . S
N741 C739 1.384 . S
H742 C748 0.930 . S
H743 C752 0.930 . S
H744 C757 0.929 . S
H745 C755 0.929 . S
H746 C750 0.929 . S
H747 C756 0.929 . S
C748 H742 0.930 . S
C748 C749 1.367 . S
C748 C756 1.378 . S
C749 C748 1.367 . S
C749 C757 1.433 . S
C750 H746 0.929 . S
C750 C752 1.378 . S
C750 C754 1.350 . S
C751 C754 1.463 . S
C751 C756 1.350 . S
C751 N759 1.427 . S
C752 H743 0.930 . S
C752 C750 1.378 . S
C752 C753 1.367 . S
C753 C752 1.367 . S
C753 C755 1.433 . S
C754 C750 1.350 . S
C754 C751 1.463 . S
C754 N758 1.427 . S
C755 H745 0.929 . S
C755 C753 1.433 . S
C755 N758 1.384 . S
C756 H747 0.929 . S
C756 C748 1.378 . S
C756 C751 1.350 . S
C757 H744 0.929 . S
C757 C749 1.433 . S
C757 N759 1.384 . S
N758 C754 1.427 . S
N758 C755 1.384 . S
N759 C751 1.427 . S
N759 C757 1.384 . S
H760 C766 0.930 . S
H761 C770 0.930 . S
H762 C775 0.929 . S
H763 C773 0.929 . S
H764 C768 0.929 . S
H765 C774 0.929 . S
C766 H760 0.930 . S
C766 C767 1.367 . S
C766 C774 1.378 . S
C767 C766 1.367 . S
C767 C775 1.433 . S
C768 H764 0.929 . S
C768 C770 1.378 . S
C768 C772 1.350 . S
C769 C772 1.463 . S
C769 C774 1.350 . S
C769 N777 1.427 . S
C770 H761 0.930 . S
C770 C768 1.378 . S
C770 C771 1.367 . S
C771 C770 1.367 . S
C771 C773 1.433 . S
C772 C768 1.350 . S
C772 C769 1.463 . S
C772 N776 1.427 . S
C773 H763 0.929 . S
C773 C771 1.433 . S
C773 N776 1.384 . S
C774 H765 0.929 . S
C774 C766 1.378 . S
C774 C769 1.350 . S
C775 H762 0.929 . S
C775 C767 1.433 . S
C775 N777 1.384 . S
N776 C772 1.427 . S
N776 C773 1.384 . S
N777 C769 1.427 . S
N777 C775 1.384 . S
H778 C784 0.930 . S
H779 C788 0.930 . S
H780 C793 0.929 . S
H781 C791 0.929 . S
H782 C786 0.929 . S
H783 C792 0.929 . S
C784 H778 0.930 . S
C784 C785 1.367 . S
C784 C792 1.378 . S
C785 C784 1.367 . S
C785 C793 1.433 . S
C786 H782 0.929 . S
C786 C788 1.378 . S
C786 C790 1.350 . S
C787 C790 1.463 . S
C787 C792 1.350 . S
C787 N795 1.427 . S
C788 H779 0.930 . S
C788 C786 1.378 . S
C788 C789 1.367 . S
C789 C788 1.367 . S
C789 C791 1.433 . S
C790 C786 1.350 . S
C790 C787 1.463 . S
C790 N794 1.427 . S
C791 H781 0.929 . S
C791 C789 1.433 . S
C791 N794 1.384 . S
C792 H783 0.929 . S
C792 C784 1.378 . S
C792 C787 1.350 . S
C793 H780 0.929 . S
C793 C785 1.433 . S
C793 N795 1.384 . S
N794 C790 1.427 . S
N794 C791 1.384 . S
N795 C787 1.427 . S
N795 C793 1.384 . S
H796 C802 0.930 . S
H797 C806 0.930 . S
H798 C811 0.929 . S
H799 C809 0.929 . S
H800 C804 0.929 . S
H801 C810 0.929 . S
C802 H796 0.930 . S
C802 C803 1.367 . S
C802 C810 1.378 . S
C803 C802 1.367 . S
C803 C811 1.433 . S
C804 H800 0.929 . S
C804 C806 1.378 . S
C804 C808 1.350 . S
C805 C808 1.463 . S
C805 C810 1.350 . S
C805 N813 1.427 . S
C806 H797 0.930 . S
C806 C804 1.378 . S
C806 C807 1.367 . S
C807 C806 1.367 . S
C807 C809 1.433 . S
C808 C804 1.350 . S
C808 C805 1.463 . S
C808 N812 1.427 . S
C809 H799 0.929 . S
C809 C807 1.433 . S
C809 N812 1.384 . S
C810 H801 0.929 . S
C810 C802 1.378 . S
C810 C805 1.350 . S
C811 H798 0.929 . S
C811 C803 1.433 . S
C811 N813 1.384 . S
N812 C808 1.427 . S
N812 C809 1.384 . S
N813 C805 1.427 . S
N813 C811 1.384 . S
H814 C820 0.930 . S
H815 C824 0.930 . S
H816 C829 0.944 . S
H817 C827 0.929 . S
H818 C822 0.929 . S
H819 C828 0.929 . S
C820 H814 0.930 . S
C820 C821 1.367 . S
C820 C828 1.378 . S
C821 C820 1.367 . S
C821 C829 1.433 . S
C822 H818 0.929 . S
C822 C824 1.378 . S
C822 C826 1.350 . S
C823 C826 1.463 . S
C823 C828 1.350 . S
C823 N831 1.427 . S
C824 H815 0.930 . S
C824 C822 1.378 . S
C824 C825 1.367 . S
C825 C824 1.367 . S
C825 C827 1.433 . S
C826 C822 1.350 . S
C826 C823 1.463 . S
C826 N830 1.427 . S
C827 H817 0.929 . S
C827 C825 1.433 . S
C827 N830 1.384 . S
C828 H819 0.929 . S
C828 C820 1.378 . S
C828 C823 1.350 . S
C829 H816 0.944 . S
C829 C821 1.433 . S
C829 N831 1.384 . S
N830 C826 1.427 . S
N830 C827 1.384 . S
N831 C823 1.427 . S
N831 C829 1.384 . S
H832 C838 0.930 . S
H833 C842 0.930 . S
H834 C847 0.929 . S
H835 C845 0.929 . S
H836 C840 0.929 . S
H837 C846 0.929 1_455 S
C838 H832 0.930 . S
C838 C839 1.367 . S
C838 C846 1.378 . S
C839 C838 1.367 . S
C839 C847 1.433 . S
C840 H836 0.929 . S
C840 C842 1.378 . S
C840 C844 1.350 . S
C841 C844 1.463 . S
C841 C846 1.350 . S
C841 N849 1.427 . S
C842 H833 0.930 . S
C842 C840 1.378 . S
C842 C843 1.367 1_655 S
C843 C842 1.367 1_455 S
C843 C845 1.433 . S
C844 C840 1.350 . S
C844 C841 1.463 . S
C844 N848 1.427 1_655 S
C845 H835 0.929 . S
C845 C843 1.433 . S
C845 N848 1.384 . S
C846 H837 0.929 1_655 S
C846 C838 1.378 . S
C846 C841 1.350 . S
C847 H834 0.929 . S
C847 C839 1.433 . S
C847 N849 1.384 . S
N848 C844 1.427 1_455 S
N848 C845 1.384 . S
N849 C841 1.427 . S
N849 C847 1.384 . S
H850 C856 0.930 1_655 S
H851 C860 0.930 . S
H852 C865 0.929 . S
H853 C863 0.929 . S
H854 C858 0.929 . S
H855 C864 0.929 . S
C856 H850 0.930 1_455 S
C856 C857 1.367 . S
C856 C864 1.378 1_455 S
C857 C856 1.367 . S
C857 C865 1.433 . S
C858 H854 0.929 . S
C858 C860 1.378 . S
C858 C862 1.350 . S
C859 C862 1.463 . S
C859 C864 1.350 1_455 S
C859 N867 1.427 . S
C860 H851 0.930 . S
C860 C858 1.378 . S
C860 C861 1.367 1_455 S
C861 C860 1.367 1_655 S
C861 C863 1.433 . S
C862 C858 1.350 . S
C862 C859 1.463 . S
C862 N866 1.427 1_455 S
C863 H853 0.929 . S
C863 C861 1.433 . S
C863 N866 1.384 . S
C864 H855 0.929 . S
C864 C856 1.378 1_655 S
C864 C859 1.350 1_655 S
C865 H852 0.929 . S
C865 C857 1.433 . S
C865 N867 1.384 . S
N866 C862 1.427 1_655 S
N866 C863 1.384 . S
N867 C859 1.427 . S
N867 C865 1.384 . S
H868 C874 0.930 . S
H869 C878 0.930 . S
H870 C883 0.929 . S
H871 C881 0.929 . S
H872 C876 0.929 . S
H873 C882 0.929 . S
C874 H868 0.930 . S
C874 C875 1.367 . S
C874 C882 1.378 . S
C875 C874 1.367 . S
C875 C883 1.433 . S
C876 H872 0.929 . S
C876 C878 1.378 . S
C876 C880 1.350 . S
C877 C880 1.463 . S
C877 C882 1.350 . S
C877 N885 1.427 . S
C878 H869 0.930 . S
C878 C876 1.378 . S
C878 C879 1.367 . S
C879 C878 1.367 . S
C879 C881 1.433 . S
C880 C876 1.350 . S
C880 C877 1.463 . S
C880 N884 1.427 . S
C881 H871 0.929 . S
C881 C879 1.433 . S
C881 N884 1.384 . S
C882 H873 0.929 . S
C882 C874 1.378 . S
C882 C877 1.350 . S
C883 H870 0.929 . S
C883 C875 1.433 . S
C883 N885 1.384 . S
N884 C880 1.427 . S
N884 C881 1.384 . S
N885 C877 1.427 . S
N885 C883 1.384 . S
H886 C892 0.930 . S
H887 C896 0.930 . S
H888 C901 0.929 . S
H889 C899 0.929 . S
H890 C894 0.929 . S
H891 C900 0.929 . S
C892 H886 0.930 . S
C892 C893 1.367 . S
C892 C900 1.378 . S
C893 C892 1.367 . S
C893 C901 1.433 . S
C894 H890 0.929 . S
C894 C896 1.378 . S
C894 C898 1.350 . S
C895 C898 1.463 . S
C895 C900 1.350 . S
C895 N903 1.427 . S
C896 H887 0.930 . S
C896 C894 1.378 . S
C896 C897 1.367 . S
C897 C896 1.367 . S
C897 C899 1.433 . S
C898 C894 1.350 . S
C898 C895 1.463 . S
C898 N902 1.427 . S
C899 H889 0.929 . S
C899 C897 1.433 . S
C899 N902 1.384 . S
C900 H891 0.929 . S
C900 C892 1.378 . S
C900 C895 1.350 . S
C901 H888 0.929 . S
C901 C893 1.433 . S
C901 N903 1.384 . S
N902 C898 1.427 . S
N902 C899 1.384 . S
N903 C895 1.427 . S
N903 C901 1.384 . S
H904 C910 0.930 . S
H905 C914 0.928 1_655 S
H906 C919 0.929 . S
H907 C917 0.929 . S
H908 C912 0.929 . S
H909 C918 0.929 . S
C910 H904 0.930 . S
C910 C911 1.367 . S
C910 C918 1.378 . S
C911 C910 1.367 . S
C911 C919 1.433 . S
C912 H908 0.929 . S
C912 C914 1.370 1_655 S
C912 C916 1.350 . S
C913 C916 1.463 . S
C913 C918 1.350 . S
C913 N921 1.427 . S
C914 H905 0.928 1_455 S
C914 C912 1.370 1_455 S
C914 C915 1.377 . S
C915 C914 1.377 . S
C915 C917 1.433 . S
C916 C912 1.350 . S
C916 C913 1.463 . S
C916 N920 1.427 1_655 S
C917 H907 0.929 . S
C917 C915 1.433 . S
C917 N920 1.384 . S
C918 H909 0.929 . S
C918 C910 1.378 . S
C918 C913 1.350 . S
C919 H906 0.929 . S
C919 C911 1.433 . S
C919 N921 1.384 . S
N920 C916 1.427 1_455 S
N920 C917 1.384 . S
N921 C913 1.427 . S
N921 C919 1.384 . S
H922 C928 0.930 . S
H923 C932 0.930 . S
H924 C937 0.929 . S
H925 C935 0.929 . S
H926 C930 0.929 . S
H927 C936 0.929 1_655 S
C928 H922 0.930 . S
C928 C929 1.367 . S
C928 C936 1.378 . S
C929 C928 1.367 . S
C929 C937 1.433 . S
C930 H926 0.929 . S
C930 C932 1.378 . S
C930 C934 1.350 . S
C931 C934 1.463 . S
C931 C936 1.350 . S
C931 N939 1.427 . S
C932 H923 0.930 . S
C932 C930 1.378 . S
C932 C933 1.367 1_455 S
C933 C932 1.367 1_655 S
C933 C935 1.433 . S
C934 C930 1.350 . S
C934 C931 1.463 . S
C934 N938 1.427 1_455 S
C935 H925 0.929 . S
C935 C933 1.433 . S
C935 N938 1.384 . S
C936 H927 0.929 1_455 S
C936 C928 1.378 . S
C936 C931 1.350 . S
C937 H924 0.929 . S
C937 C929 1.433 . S
C937 N939 1.384 . S
N938 C934 1.427 1_655 S
N938 C935 1.384 . S
N939 C931 1.427 . S
N939 C937 1.384 . S
H940 C946 0.930 . S
H941 C950 0.930 . S
H942 C955 0.929 . S
H943 C953 0.929 . S
H944 C948 0.929 . S
H945 C954 0.929 . S
C946 H940 0.930 . S
C946 C947 1.367 . S
C946 C954 1.378 1_556 S
C947 C946 1.367 . S
C947 C955 1.433 1_545 S
C948 H944 0.929 . S
C948 C950 1.378 . S
C948 C952 1.350 . S
C949 C952 1.463 . S
C949 C954 1.350 1_565 S
C949 N957 1.427 1_554 S
C950 H941 0.930 . S
C950 C948 1.378 . S
C950 C951 1.367 . S
C951 C950 1.367 . S
C951 C953 1.433 . S
C952 C948 1.350 . S
C952 C949 1.463 . S
C952 N956 1.427 . S
C953 H943 0.929 . S
C953 C951 1.433 . S
C953 N956 1.384 . S
C954 H945 0.929 . S
C954 C946 1.378 1_554 S
C954 C949 1.350 1_545 S
C955 H942 0.929 . S
C955 C947 1.433 1_565 S
C955 N957 1.384 . S
N956 C952 1.427 . S
N956 C953 1.384 . S
N957 C949 1.427 1_556 S
N957 C955 1.384 . S
H958 C964 0.930 . S
H959 C968 0.930 . S
H960 C973 0.929 . S
H961 C971 0.929 . S
H962 C966 0.929 . S
H963 C972 0.929 . S
C964 H958 0.930 . S
C964 C965 1.367 1_545 S
C964 C972 1.378 . S
C965 C964 1.367 1_565 S
C965 C973 1.433 . S
C966 H962 0.929 . S
C966 C968 1.378 . S
C966 C970 1.350 . S
C967 C970 1.463 . S
C967 C972 1.350 1_554 S
C967 N975 1.427 1_544 S
C968 H959 0.930 . S
C968 C966 1.378 . S
C968 C969 1.367 . S
C969 C968 1.367 . S
C969 C971 1.433 . S
C970 C966 1.350 . S
C970 C967 1.463 . S
C970 N974 1.427 . S
C971 H961 0.929 . S
C971 C969 1.433 . S
C971 N974 1.384 . S
C972 H963 0.929 . S
C972 C964 1.378 . S
C972 C967 1.350 1_556 S
C973 H960 0.929 . S
C973 C965 1.433 . S
C973 N975 1.384 . S
N974 C970 1.427 . S
N974 C971 1.384 . S
N975 C967 1.427 1_566 S
N975 C973 1.384 . S
H976 C982 0.930 . S
H977 C986 0.930 . S
H978 C991 0.929 . S
H979 C989 0.929 . S
H980 C984 0.929 . S
H981 C990 0.929 . S
C982 H976 0.930 . S
C982 C983 1.367 . S
C982 C990 1.378 . S
C983 C982 1.367 . S
C983 C991 1.433 . S
C984 H980 0.929 . S
C984 C986 1.378 . S
C984 C988 1.350 . S
C985 C988 1.463 . S
C985 C990 1.350 . S
C985 N993 1.427 . S
C986 H977 0.930 . S
C986 C984 1.378 . S
C986 C987 1.367 . S
C987 C986 1.367 . S
C987 C989 1.433 . S
C988 C984 1.350 . S
C988 C985 1.463 . S
C988 N992 1.427 . S
C989 H979 0.929 . S
C989 C987 1.433 . S
C989 N992 1.384 . S
C990 H981 0.929 . S
C990 C982 1.378 . S
C990 C985 1.350 . S
C991 H978 0.929 . S
C991 C983 1.433 . S
C991 N993 1.384 . S
N992 C988 1.427 . S
N992 C989 1.384 . S
N993 C985 1.427 . S
N993 C991 1.384 . S
H994 C1000 0.930 . S
H995 C1004 0.930 . S
H996 C1009 0.929 . S
H997 C1007 0.929 . S
H998 C1002 0.929 . S
H999 C1008 0.929 . S
C1000 H994 0.930 . S
C1000 C1001 1.367 . S
C1000 C1008 1.378 . S
C1001 C1000 1.367 . S
C1001 C1009 1.433 . S
C1002 H998 0.929 . S
C1002 C1004 1.378 . S
C1002 C1006 1.350 . S
C1003 C1006 1.463 . S
C1003 C1008 1.350 . S
C1003 N1011 1.427 . S
C1004 H995 0.930 . S
C1004 C1002 1.378 . S
C1004 C1005 1.367 . S
C1005 C1004 1.367 . S
C1005 C1007 1.433 . S
C1006 C1002 1.350 . S
C1006 C1003 1.463 . S
C1006 N1010 1.427 . S
C1007 H997 0.929 . S
C1007 C1005 1.433 . S
C1007 N1010 1.384 . S
C1008 H999 0.929 . S
C1008 C1000 1.378 . S
C1008 C1003 1.350 . S
C1009 H996 0.929 . S
C1009 C1001 1.433 . S
C1009 N1011 1.384 . S
N1010 C1006 1.427 . S
N1010 C1007 1.384 . S
N1011 C1003 1.427 . S
N1011 C1009 1.384 . S
H1012 C1018 0.930 . S
H1013 C1022 0.930 . S
H1014 C1027 0.929 . S
H1015 C1025 0.929 . S
H1016 C1020 0.929 1_554 S
H1017 C1026 0.929 . S
C1018 H1012 0.930 . S
C1018 C1019 1.367 . S
C1018 C1026 1.378 . S
C1019 C1018 1.367 . S
C1019 C1027 1.433 . S
C1020 H1016 0.929 1_556 S
C1020 C1022 1.378 . S
C1020 C1024 1.350 1_556 S
C1021 C1024 1.463 . S
C1021 C1026 1.350 . S
C1021 N1029 1.427 . S
C1022 H1013 0.930 . S
C1022 C1020 1.378 . S
C1022 C1023 1.367 . S
C1023 C1022 1.367 . S
C1023 C1025 1.433 . S
C1024 C1020 1.350 1_554 S
C1024 C1021 1.463 . S
C1024 N1028 1.427 1_554 S
C1025 H1015 0.929 . S
C1025 C1023 1.433 . S
C1025 N1028 1.384 . S
C1026 H1017 0.929 . S
C1026 C1018 1.378 . S
C1026 C1021 1.350 . S
C1027 H1014 0.929 . S
C1027 C1019 1.433 . S
C1027 N1029 1.384 . S
N1028 C1024 1.427 1_556 S
N1028 C1025 1.384 . S
N1029 C1021 1.427 . S
N1029 C1027 1.384 . S
H1030 C1036 0.930 . S
H1031 C1040 0.930 . S
H1032 C1045 0.929 . S
H1033 C1043 0.929 . S
H1034 C1038 0.929 . S
H1035 C1044 0.929 . S
C1036 H1030 0.930 . S
C1036 C1037 1.367 . S
C1036 C1044 1.378 . S
C1037 C1036 1.367 . S
C1037 C1045 1.433 . S
C1038 H1034 0.929 . S
C1038 C1040 1.378 . S
C1038 C1042 1.350 1_556 S
C1039 C1042 1.463 . S
C1039 C1044 1.350 . S
C1039 N1047 1.427 . S
C1040 H1031 0.930 . S
C1040 C1038 1.378 . S
C1040 C1041 1.367 . S
C1041 C1040 1.367 . S
C1041 C1043 1.433 . S
C1042 C1038 1.350 1_554 S
C1042 C1039 1.463 . S
C1042 N1046 1.427 1_554 S
C1043 H1033 0.929 . S
C1043 C1041 1.433 . S
C1043 N1046 1.384 . S
C1044 H1035 0.929 . S
C1044 C1036 1.378 . S
C1044 C1039 1.350 . S
C1045 H1032 0.929 . S
C1045 C1037 1.433 . S
C1045 N1047 1.384 . S
N1046 C1042 1.427 1_556 S
N1046 C1043 1.384 . S
N1047 C1039 1.427 . S
N1047 C1045 1.384 . S
H1048 C1054 0.930 . S
H1049 C1058 0.930 . S
H1050 C1063 0.929 . S
H1051 C1061 0.929 . S
H1052 C1056 0.929 . S
H1053 C1062 0.929 . S
C1054 H1048 0.930 . S
C1054 C1055 1.367 . S
C1054 C1062 1.378 . S
C1055 C1054 1.367 . S
C1055 C1063 1.433 . S
C1056 H1052 0.929 . S
C1056 C1058 1.378 . S
C1056 C1060 1.350 . S
C1057 C1060 1.463 . S
C1057 C1062 1.350 . S
C1057 N1065 1.427 . S
C1058 H1049 0.930 . S
C1058 C1056 1.378 . S
C1058 C1059 1.367 . S
C1059 C1058 1.367 . S
C1059 C1061 1.433 . S
C1060 C1056 1.350 . S
C1060 C1057 1.463 . S
C1060 N1064 1.427 . S
C1061 H1051 0.929 . S
C1061 C1059 1.433 . S
C1061 N1064 1.384 . S
C1062 H1053 0.929 . S
C1062 C1054 1.378 . S
C1062 C1057 1.350 . S
C1063 H1050 0.929 . S
C1063 C1055 1.433 . S
C1063 N1065 1.384 . S
N1064 C1060 1.427 . S
N1064 C1061 1.384 . S
N1065 C1057 1.427 . S
N1065 C1063 1.384 . S
H1066 C1072 0.930 . S
H1067 C1076 0.930 . S
H1068 C1081 0.929 . S
H1069 C1079 0.929 . S
H1070 C1074 0.929 . S
H1071 C1080 0.929 . S
C1072 H1066 0.930 . S
C1072 C1073 1.367 . S
C1072 C1080 1.378 . S
C1073 C1072 1.367 . S
C1073 C1081 1.433 . S
C1074 H1070 0.929 . S
C1074 C1076 1.378 . S
C1074 C1078 1.350 . S
C1075 C1078 1.463 . S
C1075 C1080 1.350 . S
C1075 N1083 1.427 . S
C1076 H1067 0.930 . S
C1076 C1074 1.378 . S
C1076 C1077 1.367 . S
C1077 C1076 1.367 . S
C1077 C1079 1.433 . S
C1078 C1074 1.350 . S
C1078 C1075 1.463 . S
C1078 N1082 1.427 . S
C1079 H1069 0.929 . S
C1079 C1077 1.433 . S
C1079 N1082 1.384 . S
C1080 H1071 0.929 . S
C1080 C1072 1.378 . S
C1080 C1075 1.350 . S
C1081 H1068 0.929 . S
C1081 C1073 1.433 . S
C1081 N1083 1.384 . S
N1082 C1078 1.427 . S
N1082 C1079 1.384 . S
N1083 C1075 1.427 . S
N1083 C1081 1.384 . S
H1084 C1090 0.930 . S
H1085 C1094 0.930 . S
H1086 C1099 0.929 . S
H1087 C1097 0.929 . S
H1088 C1092 0.929 . S
H1089 C1098 0.929 . S
C1090 H1084 0.930 . S
C1090 C1091 1.367 . S
C1090 C1098 1.378 . S
C1091 C1090 1.367 . S
C1091 C1099 1.433 . S
C1092 H1088 0.929 . S
C1092 C1094 1.378 . S
C1092 C1096 1.350 1_545 S
C1093 C1096 1.463 . S
C1093 C1098 1.350 . S
C1093 N1101 1.427 . S
C1094 H1085 0.930 . S
C1094 C1092 1.378 . S
C1094 C1095 1.367 . S
C1095 C1094 1.367 . S
C1095 C1097 1.433 1_545 S
C1096 C1092 1.350 1_565 S
C1096 C1093 1.463 . S
C1096 N1100 1.427 . S
C1097 H1087 0.929 . S
C1097 C1095 1.433 1_565 S
C1097 N1100 1.384 . S
C1098 H1089 0.929 . S
C1098 C1090 1.378 . S
C1098 C1093 1.350 . S
C1099 H1086 0.929 . S
C1099 C1091 1.433 . S
C1099 N1101 1.384 . S
N1100 C1096 1.427 . S
N1100 C1097 1.384 . S
N1101 C1093 1.427 . S
N1101 C1099 1.384 . S
H1102 C1108 0.930 . S
H1103 C1112 0.930 . S
H1104 C1117 0.929 . S
H1105 C1115 0.929 . S
H1106 C1110 0.929 . S
H1107 C1116 0.929 . S
C1108 H1102 0.930 . S
C1108 C1109 1.367 . S
C1108 C1116 1.378 . S
C1109 C1108 1.367 . S
C1109 C1117 1.433 . S
C1110 H1106 0.929 . S
C1110 C1112 1.378 . S
C1110 C1114 1.350 1_565 S
C1111 C1114 1.463 . S
C1111 C1116 1.350 . S
C1111 N1119 1.427 . S
C1112 H1103 0.930 . S
C1112 C1110 1.378 . S
C1112 C1113 1.367 . S
C1113 C1112 1.367 . S
C1113 C1115 1.433 1_565 S
C1114 C1110 1.350 1_545 S
C1114 C1111 1.463 . S
C1114 N1118 1.427 . S
C1115 H1105 0.929 . S
C1115 C1113 1.433 1_545 S
C1115 N1118 1.384 . S
C1116 H1107 0.929 . S
C1116 C1108 1.378 . S
C1116 C1111 1.350 . S
C1117 H1104 0.929 . S
C1117 C1109 1.433 . S
C1117 N1119 1.384 . S
N1118 C1114 1.427 . S
N1118 C1115 1.384 . S
N1119 C1111 1.427 . S
N1119 C1117 1.384 . S
H1120 C1126 0.930 . S
H1121 C1130 0.930 . S
H1122 C1135 0.929 . S
H1123 C1133 0.929 . S
H1124 C1128 0.929 . S
H1125 C1134 0.929 . S
C1126 H1120 0.930 . S
C1126 C1127 1.360 1_554 S
C1126 C1134 1.378 . S
C1127 C1126 1.360 1_556 S
C1127 C1135 1.440 . S
C1128 H1124 0.929 . S
C1128 C1130 1.378 . S
C1128 C1132 1.350 . S
C1129 C1132 1.463 . S
C1129 C1134 1.349 1_556 S
C1129 N1137 1.428 . S
C1130 H1121 0.930 . S
C1130 C1128 1.378 . S
C1130 C1131 1.367 . S
C1131 C1130 1.367 . S
C1131 C1133 1.433 1_556 S
C1132 C1128 1.350 . S
C1132 C1129 1.463 . S
C1132 N1136 1.427 1_556 S
C1133 H1123 0.929 . S
C1133 C1131 1.433 1_554 S
C1133 N1136 1.384 . S
C1134 H1125 0.929 . S
C1134 C1126 1.378 . S
C1134 C1129 1.349 1_554 S
C1135 H1122 0.929 . S
C1135 C1127 1.440 . S
C1135 N1137 1.384 . S
N1136 C1132 1.427 1_554 S
N1136 C1133 1.384 . S
N1137 C1129 1.428 . S
N1137 C1135 1.384 . S
H1138 C1144 0.930 . S
H1139 C1148 0.930 . S
H1140 C1153 0.929 . S
H1141 C1151 0.929 . S
H1142 C1146 0.929 . S
H1143 C1152 0.929 . S
C1144 H1138 0.930 . S
C1144 C1145 1.364 1_554 S
C1144 C1152 1.378 . S
C1145 C1144 1.364 1_556 S
C1145 C1153 1.436 . S
C1146 H1142 0.929 . S
C1146 C1148 1.378 . S
C1146 C1150 1.350 . S
C1147 C1150 1.462 1_554 S
C1147 C1152 1.353 . S
C1147 N1155 1.425 1_554 S
C1148 H1139 0.930 . S
C1148 C1146 1.378 . S
C1148 C1149 1.367 . S
C1149 C1148 1.367 . S
C1149 C1151 1.433 1_556 S
C1150 C1146 1.350 . S
C1150 C1147 1.462 1_556 S
C1150 N1154 1.427 1_556 S
C1151 H1141 0.929 . S
C1151 C1149 1.433 1_554 S
C1151 N1154 1.384 . S
C1152 H1143 0.929 . S
C1152 C1144 1.378 . S
C1152 C1147 1.353 . S
C1153 H1140 0.929 . S
C1153 C1145 1.436 . S
C1153 N1155 1.384 . S
N1154 C1150 1.427 1_554 S
N1154 C1151 1.384 . S
N1155 C1147 1.425 1_556 S
N1155 C1153 1.384 . S
H1156 C1162 0.930 . S
H1157 C1166 0.930 . S
H1158 C1171 0.929 . S
H1159 C1169 0.929 . S
H1160 C1164 0.929 1_455 S
H1161 C1170 0.929 1_655 S
C1162 H1156 0.930 . S
C1162 C1163 1.367 . S
C1162 C1170 1.378 . S
C1163 C1162 1.367 . S
C1163 C1171 1.433 . S
C1164 H1160 0.929 1_655 S
C1164 C1166 1.378 . S
C1164 C1168 1.350 . S
C1165 C1168 1.463 1_455 S
C1165 C1170 1.350 . S
C1165 N1173 1.427 . S
C1166 H1157 0.930 . S
C1166 C1164 1.378 . S
C1166 C1167 1.367 . S
C1167 C1166 1.367 . S
C1167 C1169 1.433 . S
C1168 C1164 1.350 . S
C1168 C1165 1.463 1_655 S
C1168 N1172 1.427 . S
C1169 H1159 0.929 . S
C1169 C1167 1.433 . S
C1169 N1172 1.384 . S
C1170 H1161 0.929 1_455 S
C1170 C1162 1.378 . S
C1170 C1165 1.350 . S
C1171 H1158 0.929 . S
C1171 C1163 1.433 . S
C1171 N1173 1.384 . S
N1172 C1168 1.427 . S
N1172 C1169 1.384 . S
N1173 C1165 1.427 . S
N1173 C1171 1.384 . S
H1174 C1180 0.930 . S
H1175 C1184 0.930 . S
H1176 C1189 0.929 . S
H1177 C1187 0.929 . S
H1178 C1182 0.929 . S
H1179 C1188 0.929 . S
C1180 H1174 0.930 . S
C1180 C1181 1.367 . S
C1180 C1188 1.378 . S
C1181 C1180 1.367 . S
C1181 C1189 1.433 . S
C1182 H1178 0.929 . S
C1182 C1184 1.378 . S
C1182 C1186 1.350 . S
C1183 C1186 1.463 . S
C1183 C1188 1.350 . S
C1183 N1191 1.427 . S
C1184 H1175 0.930 . S
C1184 C1182 1.378 . S
C1184 C1185 1.367 . S
C1185 C1184 1.367 . S
C1185 C1187 1.433 . S
C1186 C1182 1.350 . S
C1186 C1183 1.463 . S
C1186 N1190 1.427 . S
C1187 H1177 0.929 . S
C1187 C1185 1.433 . S
C1187 N1190 1.384 . S
C1188 H1179 0.929 . S
C1188 C1180 1.378 . S
C1188 C1183 1.350 . S
C1189 H1176 0.929 . S
C1189 C1181 1.433 . S
C1189 N1191 1.384 . S
N1190 C1186 1.427 . S
N1190 C1187 1.384 . S
N1191 C1183 1.427 . S
N1191 C1189 1.384 . S
H1192 C1198 0.930 . S
H1193 C1202 0.930 . S
H1194 C1207 0.929 . S
H1195 C1205 0.929 . S
H1196 C1200 0.929 . S
H1197 C1206 0.929 . S
C1198 H1192 0.930 . S
C1198 C1199 1.367 . S
C1198 C1206 1.378 . S
C1199 C1198 1.367 . S
C1199 C1207 1.433 . S
C1200 H1196 0.929 . S
C1200 C1202 1.378 . S
C1200 C1204 1.350 . S
C1201 C1204 1.463 . S
C1201 C1206 1.350 . S
C1201 N1209 1.427 . S
C1202 H1193 0.930 . S
C1202 C1200 1.378 . S
C1202 C1203 1.367 . S
C1203 C1202 1.367 . S
C1203 C1205 1.433 . S
C1204 C1200 1.350 . S
C1204 C1201 1.463 . S
C1204 N1208 1.427 . S
C1205 H1195 0.929 . S
C1205 C1203 1.433 . S
C1205 N1208 1.384 . S
C1206 H1197 0.929 . S
C1206 C1198 1.378 . S
C1206 C1201 1.350 . S
C1207 H1194 0.929 . S
C1207 C1199 1.433 . S
C1207 N1209 1.384 . S
N1208 C1204 1.427 . S
N1208 C1205 1.384 . S
N1209 C1201 1.427 . S
N1209 C1207 1.384 . S
H1210 C1216 0.930 . S
H1211 C1220 0.930 . S
H1212 C1225 0.929 . S
H1213 C1223 0.929 . S
H1214 C1218 0.929 . S
H1215 C1224 0.929 . S
C1216 H1210 0.930 . S
C1216 C1217 1.367 . S
C1216 C1224 1.378 . S
C1217 C1216 1.367 . S
C1217 C1225 1.433 . S
C1218 H1214 0.929 . S
C1218 C1220 1.378 . S
C1218 C1222 1.350 . S
C1219 C1222 1.463 1_445 S
C1219 C1224 1.350 . S
C1219 N1227 1.427 . S
C1220 H1211 0.930 . S
C1220 C1218 1.378 . S
C1220 C1221 1.367 . S
C1221 C1220 1.367 . S
C1221 C1223 1.433 . S
C1222 C1218 1.350 . S
C1222 C1219 1.463 1_665 S
C1222 N1226 1.427 . S
C1223 H1213 0.929 . S
C1223 C1221 1.433 . S
C1223 N1226 1.384 . S
C1224 H1215 0.929 . S
C1224 C1216 1.378 . S
C1224 C1219 1.350 . S
C1225 H1212 0.929 . S
C1225 C1217 1.433 . S
C1225 N1227 1.384 . S
N1226 C1222 1.427 . S
N1226 C1223 1.384 . S
N1227 C1219 1.427 . S
N1227 C1225 1.384 . S
H1228 C1234 0.930 . S
H1229 C1238 0.930 . S
H1230 C1243 0.929 . S
H1231 C1241 0.929 . S
H1232 C1236 0.929 . S
H1233 C1242 0.929 . S
C1234 H1228 0.930 . S
C1234 C1235 1.367 . S
C1234 C1242 1.378 . S
C1235 C1234 1.367 . S
C1235 C1243 1.433 . S
C1236 H1232 0.929 . S
C1236 C1238 1.378 . S
C1236 C1240 1.350 . S
C1237 C1240 1.463 . S
C1237 C1242 1.350 . S
C1237 N1245 1.427 . S
C1238 H1229 0.930 . S
C1238 C1236 1.378 . S
C1238 C1239 1.367 . S
C1239 C1238 1.367 . S
C1239 C1241 1.433 . S
C1240 C1236 1.350 . S
C1240 C1237 1.463 . S
C1240 N1244 1.427 . S
C1241 H1231 0.929 . S
C1241 C1239 1.433 . S
C1241 N1244 1.384 . S
C1242 H1233 0.929 . S
C1242 C1234 1.378 . S
C1242 C1237 1.350 . S
C1243 H1230 0.929 . S
C1243 C1235 1.433 . S
C1243 N1245 1.384 . S
N1244 C1240 1.427 . S
N1244 C1241 1.384 . S
N1245 C1237 1.427 . S
N1245 C1243 1.384 . S
H1246 C1252 0.930 . S
H1247 C1256 0.930 . S
H1248 C1261 0.929 . S
H1249 C1259 0.929 . S
H1250 C1254 0.929 . S
H1251 C1260 0.929 . S
C1252 H1246 0.930 . S
C1252 C1253 1.367 . S
C1252 C1260 1.378 . S
C1253 C1252 1.367 . S
C1253 C1261 1.433 . S
C1254 H1250 0.929 . S
C1254 C1256 1.378 . S
C1254 C1258 1.350 . S
C1255 C1258 1.463 1_565 S
C1255 C1260 1.350 . S
C1255 N1263 1.416 1_565 S
C1256 H1247 0.930 . S
C1256 C1254 1.378 . S
C1256 C1257 1.367 . S
C1257 C1256 1.367 . S
C1257 C1259 1.433 . S
C1258 C1254 1.350 . S
C1258 C1255 1.463 1_545 S
C1258 N1262 1.416 1_545 S
C1259 H1249 0.929 . S
C1259 C1257 1.433 . S
C1259 N1262 1.365 1_545 S
C1260 H1251 0.929 . S
C1260 C1252 1.378 . S
C1260 C1255 1.350 . S
C1261 H1248 0.929 . S
C1261 C1253 1.433 . S
C1261 N1263 1.365 1_565 S
N1262 C1258 1.416 1_565 S
N1262 C1259 1.365 1_565 S
N1263 C1255 1.416 1_545 S
N1263 C1261 1.365 1_545 S
C551 C5 1.394 . S
C555 C394 1.441 . S
C569 C39 1.395 . S
C573 C360 1.440 . S
C587 C54 1.440 . S
C591 C73 1.405 . S
C605 C20 1.440 . S
C609 C107 1.393 . S
C623 C141 1.408 . S
C627 C530 1.440 . S
C641 C175 1.397 . S
C645 C496 1.439 . S
C659 C190 1.439 . S
C663 C209 1.394 . S
C677 C243 1.400 . S
C681 C156 1.439 . S
C695 C122 1.439 . S
C699 C277 1.395 . S
C713 C88 1.441 . S
C717 C311 1.404 . S
C731 C326 1.439 . S
C735 C345 1.394 . S
C749 C292 1.439 . S
C753 C379 1.395 . S
C767 C413 1.404 . S
C771 C258 1.440 . S
C785 C447 1.403 . S
C789 C224 1.440 . S
C803 C481 1.406 . S
C807 C462 1.440 . S
C821 C428 1.440 . S
C825 C515 1.406 . S
C839 C203 1.542 . S
C843 C9 1.502 . S
C857 C169 1.542 . S
C861 C43 1.501 . S
C875 C77 1.504 . S
C879 C407 1.542 . S
C893 C373 1.542 . S
C897 C111 1.504 . S
C911 C67 1.541 . S
C915 C145 1.510 . S
C929 C33 1.541 . S
C933 C179 1.509 . S
C947 C213 1.514 . S
C951 C543 1.541 . S
C965 C247 1.514 . S
C969 C509 1.540 . S
C983 C281 1.515 . S
C987 C475 1.543 . S
C1001 C441 1.542 . S
C1005 C315 1.514 . S
C1019 C135 1.542 . S
C1023 C349 1.507 . S
C1037 C101 1.542 . S
C1041 C383 1.505 . S
C1055 C339 1.542 . S
C1059 C417 1.502 . S
C1073 C305 1.541 . S
C1077 C451 1.512 . S
C1091 C271 1.542 . S
C1095 C485 1.508 . S
C1109 C237 1.542 . S
C1113 C519 1.507 . S
C1127 C444 1.698 . S
C1131 C2 1.696 . S
C1145 C36 1.698 . S
C1149 C410 1.696 . S
C1163 C70 1.698 . S
C1167 C104 1.696 . S
C1181 C308 1.698 . S
C1185 C138 1.695 . S
C1199 C172 1.696 . S
C1203 C274 1.698 . S
C1217 C206 1.698 . S
C1221 C240 1.696 . S
C1235 C376 1.696 . S
C1239 C342 1.698 . S
C1253 C512 1.696 . S
C1257 C478 1.698 . S
