# Generated by pormake.
# Topology uki, (4)-cn, num edge types: 1
# Building blocks:
#     Node 0, Type 0, BuildingBlock: NAWXER_clean_sbu_0, # of connection points: 4
#     Node 1, Type 0, BuildingBlock: NAWXER_clean_sbu_0, # of connection points: 4
#     Node 2, Type 0, BuildingBlock: NAWXER_clean_sbu_0, # of connection points: 4
#     Node 3, Type 0, BuildingBlock: NAWXER_clean_sbu_0, # of connection points: 4
#     Node 4, Type 0, BuildingBlock: NAWXER_clean_sbu_0, # of connection points: 4
#     Node 5, Type 0, BuildingBlock: NAWXER_clean_sbu_0, # of connection points: 4
#     Node 6, Type 0, BuildingBlock: NAWXER_clean_sbu_0, # of connection points: 4
#     Node 7, Type 0, BuildingBlock: NAWXER_clean_sbu_0, # of connection points: 4
#     Node 8, Type 0, BuildingBlock: NAWXER_clean_sbu_0, # of connection points: 4
#     Node 9, Type 0, BuildingBlock: NAWXER_clean_sbu_0, # of connection points: 4
#     Node 10, Type 0, BuildingBlock: NAWXER_clean_sbu_0, # of connection points: 4
#     Node 11, Type 0, BuildingBlock: NAWXER_clean_sbu_0, # of connection points: 4
#     Node 12, Type 0, BuildingBlock: NAWXER_clean_sbu_0, # of connection points: 4
#     Node 13, Type 0, BuildingBlock: NAWXER_clean_sbu_0, # of connection points: 4
#     Node 14, Type 0, BuildingBlock: NAWXER_clean_sbu_0, # of connection points: 4
#     Node 15, Type 0, BuildingBlock: NAWXER_clean_sbu_0, # of connection points: 4
#     Edge 16, Type (0, 0), BuildingBlock: KIFKEQ_clean_linker_1, # of connection points: 2
#     Edge 17, Type (0, 0), BuildingBlock: KIFKEQ_clean_linker_1, # of connection points: 2
#     Edge 18, Type (0, 0), BuildingBlock: KIFKEQ_clean_linker_1, # of connection points: 2
#     Edge 19, Type (0, 0), BuildingBlock: KIFKEQ_clean_linker_1, # of connection points: 2
#     Edge 20, Type (0, 0), BuildingBlock: KIFKEQ_clean_linker_1, # of connection points: 2
#     Edge 21, Type (0, 0), BuildingBlock: KIFKEQ_clean_linker_1, # of connection points: 2
#     Edge 22, Type (0, 0), BuildingBlock: KIFKEQ_clean_linker_1, # of connection points: 2
#     Edge 23, Type (0, 0), BuildingBlock: KIFKEQ_clean_linker_1, # of connection points: 2
#     Edge 24, Type (0, 0), BuildingBlock: KIFKEQ_clean_linker_1, # of connection points: 2
#     Edge 25, Type (0, 0), BuildingBlock: KIFKEQ_clean_linker_1, # of connection points: 2
#     Edge 26, Type (0, 0), BuildingBlock: KIFKEQ_clean_linker_1, # of connection points: 2
#     Edge 27, Type (0, 0), BuildingBlock: KIFKEQ_clean_linker_1, # of connection points: 2
#     Edge 28, Type (0, 0), BuildingBlock: KIFKEQ_clean_linker_1, # of connection points: 2
#     Edge 29, Type (0, 0), BuildingBlock: KIFKEQ_clean_linker_1, # of connection points: 2
#     Edge 30, Type (0, 0), BuildingBlock: KIFKEQ_clean_linker_1, # of connection points: 2
#     Edge 31, Type (0, 0), BuildingBlock: KIFKEQ_clean_linker_1, # of connection points: 2
#     Edge 32, Type (0, 0), BuildingBlock: KIFKEQ_clean_linker_1, # of connection points: 2
#     Edge 33, Type (0, 0), BuildingBlock: KIFKEQ_clean_linker_1, # of connection points: 2
#     Edge 34, Type (0, 0), BuildingBlock: KIFKEQ_clean_linker_1, # of connection points: 2
#     Edge 35, Type (0, 0), BuildingBlock: KIFKEQ_clean_linker_1, # of connection points: 2
#     Edge 36, Type (0, 0), BuildingBlock: KIFKEQ_clean_linker_1, # of connection points: 2
#     Edge 37, Type (0, 0), BuildingBlock: KIFKEQ_clean_linker_1, # of connection points: 2
#     Edge 38, Type (0, 0), BuildingBlock: KIFKEQ_clean_linker_1, # of connection points: 2
#     Edge 39, Type (0, 0), BuildingBlock: KIFKEQ_clean_linker_1, # of connection points: 2
#     Edge 40, Type (0, 0), BuildingBlock: KIFKEQ_clean_linker_1, # of connection points: 2
#     Edge 41, Type (0, 0), BuildingBlock: KIFKEQ_clean_linker_1, # of connection points: 2
#     Edge 42, Type (0, 0), BuildingBlock: KIFKEQ_clean_linker_1, # of connection points: 2
#     Edge 43, Type (0, 0), BuildingBlock: KIFKEQ_clean_linker_1, # of connection points: 2
#     Edge 44, Type (0, 0), BuildingBlock: KIFKEQ_clean_linker_1, # of connection points: 2
#     Edge 45, Type (0, 0), BuildingBlock: KIFKEQ_clean_linker_1, # of connection points: 2
#     Edge 46, Type (0, 0), BuildingBlock: KIFKEQ_clean_linker_1, # of connection points: 2
#     Edge 47, Type (0, 0), BuildingBlock: KIFKEQ_clean_linker_1, # of connection points: 2
# Relax obj value: 0.074
# Max RMSD: 0.234
# Mean RMSD: 0.234
data_MOF--net-uki--node1-NAWXER_clean_sbu_0--edge1-KIFKEQ_clean_linker_1
_symmetry_space_group_name_H-M    P1
_symmetry_Int_Tables_number       1
_symmetry_cell_setting            triclinic
loop_
_symmetry_equiv_pos_as_xyz
'x, y, z'
_cell_length_a     32.127482
_cell_length_b     32.120818
_cell_length_c     74.202306
_cell_angle_alpha  89.998237
_cell_angle_beta   90.04761
_cell_angle_gamma 89.958183
loop_
_atom_site_label
_atom_site_type_symbol
_atom_site_fract_x
_atom_site_fract_y
_atom_site_fract_z
_atom_type_partial_charge
C0 C 0.14183 0.22522 0.33403 0.0
C1 C 0.02375 0.25465 0.29492 0.0
O2 O 0.10763 0.24307 0.33768 0.0
Zn3 Zn 0.08236 0.23848 0.31433 0.0
O4 O 0.14784 0.21092 0.31809 0.0
Zn5 Zn 0.11295 0.20846 0.29318 0.0
O6 O 0.1484 0.23718 0.27672 0.0
O7 O 0.1207 0.2782 0.29733 0.0
O8 O 0.05249 0.23458 0.2866 0.0
O9 O 0.02841 0.26334 0.3115 0.0
O10 O 0.06826 0.17286 0.31173 0.0
O11 O 0.10522 0.15037 0.28871 0.0
C12 C 0.14393 0.27329 0.28339 0.0
C13 C 0.07918 0.14318 0.30115 0.0
C14 C 0.27519 0.8657 0.72752 0.0
C15 C 0.1429 0.92866 0.71143 0.0
O16 O 0.27904 0.89054 0.71403 0.0
Zn17 Zn 0.23733 0.92793 0.6974 0.0
O18 O 0.23939 0.85875 0.73408 0.0
Zn19 Zn 0.20922 0.89537 0.71854 0.0
O20 O 0.21086 0.86206 0.69333 0.0
O21 O 0.24157 0.90353 0.67382 0.0
O22 O 0.15109 0.90238 0.72369 0.0
O23 O 0.17186 0.94031 0.70067 0.0
O24 O 0.25988 0.98272 0.7003 0.0
O25 O 0.23546 0.95569 0.72557 0.0
C26 C 0.22435 0.86895 0.67733 0.0
C27 C 0.25342 0.9856 0.71713 0.0
C28 C 0.86639 0.73682 0.28391 0.0
C29 C 0.93114 0.86704 0.30151 0.0
O30 O 0.86175 0.77295 0.27728 0.0
Zn31 Zn 0.89739 0.8017 0.29367 0.0
O32 O 0.88982 0.7319 0.2978 0.0
Zn33 Zn 0.92826 0.77175 0.31476 0.0
O34 O 0.90338 0.76716 0.33816 0.0
O35 O 0.86289 0.79935 0.31866 0.0
O36 O 0.94227 0.83743 0.31209 0.0
O37 O 0.90493 0.85976 0.28913 0.0
O38 O 0.95786 0.77569 0.287 0.0
O39 O 0.9822 0.747 0.31188 0.0
C40 C 0.86915 0.78507 0.33459 0.0
C41 C 0.98671 0.75568 0.2953 0.0
C42 C 0.78584 0.14189 0.6793 0.0
C43 C 0.75527 0.0227 0.71733 0.0
O44 O 0.79942 0.14765 0.6954 0.0
Zn45 Zn 0.8014 0.1115 0.72009 0.0
O46 O 0.76863 0.10759 0.67532 0.0
Zn47 Zn 0.77236 0.08176 0.69848 0.0
O48 O 0.73192 0.11996 0.71546 0.0
O49 O 0.77237 0.14557 0.73689 0.0
O50 O 0.74812 0.0273 0.70062 0.0
O51 O 0.77434 0.05134 0.7261 0.0
O52 O 0.85938 0.1031 0.72495 0.0
O53 O 0.83768 0.06748 0.70141 0.0
C54 C 0.7366 0.14198 0.7298 0.0
C55 C 0.86695 0.07764 0.71232 0.0
C56 C 0.0243 0.25614 0.96793 0.0
C57 C 0.14056 0.28467 0.92796 0.0
O58 O 0.02781 0.24782 0.95127 0.0
Zn59 Zn 0.08172 0.27195 0.94812 0.0
O60 O 0.05346 0.27591 0.97612 0.0
Zn61 Zn 0.11341 0.3027 0.96886 0.0
O62 O 0.10579 0.3615 0.97268 0.0
O63 O 0.06688 0.337 0.95065 0.0
O64 O 0.14722 0.2992 0.94381 0.0
O65 O 0.10617 0.26695 0.92459 0.0
O66 O 0.12053 0.23273 0.96522 0.0
O67 O 0.14967 0.27441 0.98523 0.0
C68 C 0.07839 0.36747 0.96064 0.0
C69 C 0.14447 0.23803 0.97892 0.0
C70 C 0.2848 0.86887 0.08418 0.0
C71 C 0.25499 0.98644 0.04489 0.0
O72 O 0.29901 0.86267 0.06824 0.0
Zn73 Zn 0.30128 0.89727 0.04327 0.0
O74 O 0.26691 0.90308 0.08778 0.0
Zn75 Zn 0.27138 0.92807 0.06439 0.0
O76 O 0.23157 0.88956 0.04746 0.0
O77 O 0.27251 0.86159 0.02689 0.0
O78 O 0.24649 0.98196 0.06149 0.0
O79 O 0.27503 0.95763 0.0366 0.0
O80 O 0.35933 0.90499 0.03874 0.0
O81 O 0.33697 0.94218 0.06173 0.0
C82 C 0.23643 0.86616 0.03357 0.0
C83 C 0.36659 0.93114 0.05115 0.0
C84 C 0.86825 0.72648 0.92784 0.0
C85 C 0.98474 0.75625 0.96771 0.0
O86 O 0.90231 0.74483 0.92448 0.0
Zn87 Zn 0.92705 0.74003 0.94798 0.0
O88 O 0.86198 0.71166 0.94366 0.0
Zn89 Zn 0.89618 0.70838 0.96865 0.0
O90 O 0.86 0.73612 0.98528 0.0
O91 O 0.88792 0.77829 0.96518 0.0
O92 O 0.95633 0.7351 0.97575 0.0
O93 O 0.98013 0.76585 0.95122 0.0
O94 O 0.94323 0.67501 0.95044 0.0
O95 O 0.9043 0.64977 0.9723 0.0
C96 C 0.86444 0.77259 0.97897 0.0
C97 C 0.93196 0.64429 0.96034 0.0
C98 C 0.7247 0.14292 0.08349 0.0
C99 C 0.75392 0.02407 0.04488 0.0
O100 O 0.71049 0.14881 0.06751 0.0
Zn101 Zn 0.70769 0.11307 0.04275 0.0
O102 O 0.74231 0.10866 0.08727 0.0
Zn103 Zn 0.73782 0.08319 0.06405 0.0
O104 O 0.77733 0.12178 0.04701 0.0
O105 O 0.73629 0.1472 0.02577 0.0
O106 O 0.76296 0.0292 0.06139 0.0
O107 O 0.7336 0.05253 0.0365 0.0
O108 O 0.64962 0.10533 0.03836 0.0
O109 O 0.67217 0.06886 0.06154 0.0
C110 C 0.77222 0.14383 0.03273 0.0
C111 C 0.64247 0.07955 0.05091 0.0
C112 C 0.52485 0.75617 0.79397 0.0
C113 C 0.64214 0.72584 0.83326 0.0
O114 O 0.53085 0.76748 0.81016 0.0
Zn115 Zn 0.583 0.73953 0.81343 0.0
O116 O 0.55199 0.73322 0.78604 0.0
Zn117 Zn 0.61216 0.7064 0.79276 0.0
O118 O 0.60345 0.64789 0.78972 0.0
O119 O 0.56539 0.67454 0.81159 0.0
O120 O 0.64778 0.71041 0.81748 0.0
O121 O 0.60832 0.74457 0.83672 0.0
O122 O 0.62308 0.776 0.79602 0.0
O123 O 0.64714 0.7329 0.77529 0.0
C124 C 0.5761 0.64325 0.80186 0.0
C125 C 0.64497 0.76933 0.78184 0.0
C126 C 0.72602 0.36953 0.17778 0.0
C127 C 0.75576 0.48583 0.21775 0.0
O128 O 0.71122 0.36321 0.1936 0.0
Zn129 Zn 0.70804 0.3972 0.21862 0.0
O130 O 0.74443 0.40357 0.17444 0.0
Zn131 Zn 0.73959 0.42821 0.19795 0.0
O132 O 0.77796 0.389 0.2151 0.0
O133 O 0.73592 0.36088 0.23519 0.0
O134 O 0.76527 0.48136 0.20125 0.0
O135 O 0.73469 0.45732 0.22576 0.0
O136 O 0.64942 0.40517 0.22227 0.0
O137 O 0.6745 0.44409 0.20036 0.0
C138 C 0.77235 0.3654 0.22886 0.0
C139 C 0.64381 0.43271 0.21026 0.0
C140 C 0.36638 0.28379 0.83339 0.0
C141 C 0.48395 0.25492 0.79418 0.0
O142 O 0.4007 0.26611 0.837 0.0
Zn143 Zn 0.42586 0.2711 0.81368 0.0
O144 O 0.36025 0.29839 0.8175 0.0
Zn145 Zn 0.39539 0.30221 0.7927 0.0
O146 O 0.36047 0.27436 0.77572 0.0
O147 O 0.38682 0.23243 0.79644 0.0
O148 O 0.45529 0.27514 0.78587 0.0
O149 O 0.47976 0.24638 0.81079 0.0
O150 O 0.44096 0.33618 0.81149 0.0
O151 O 0.4033 0.36101 0.78912 0.0
C152 C 0.36422 0.23811 0.78235 0.0
C153 C 0.42997 0.36681 0.80147 0.0
C154 C 0.2842 0.64196 0.1783 0.0
C155 C 0.25471 0.52495 0.21786 0.0
O156 O 0.29904 0.64805 0.19414 0.0
Zn157 Zn 0.30239 0.61359 0.21905 0.0
O158 O 0.26589 0.60792 0.17484 0.0
Zn159 Zn 0.27081 0.58291 0.19827 0.0
O160 O 0.23247 0.62185 0.2155 0.0
O161 O 0.27451 0.64961 0.23571 0.0
O162 O 0.24514 0.52971 0.20138 0.0
O163 O 0.27579 0.55332 0.22598 0.0
O164 O 0.36105 0.60559 0.22266 0.0
O165 O 0.3359 0.56704 0.20063 0.0
C166 C 0.23808 0.64524 0.22933 0.0
C167 C 0.36661 0.57825 0.21056 0.0
C168 C 0.52365 0.75403 0.46723 0.0
C169 C 0.64182 0.78344 0.42844 0.0
O170 O 0.52813 0.74555 0.45063 0.0
Zn171 Zn 0.58213 0.77023 0.44798 0.0
O172 O 0.55221 0.77407 0.47567 0.0
Zn173 Zn 0.61228 0.80103 0.46911 0.0
O174 O 0.60434 0.85968 0.47291 0.0
O175 O 0.56681 0.8353 0.45041 0.0
O176 O 0.64771 0.79774 0.4444 0.0
O177 O 0.60762 0.76573 0.4247 0.0
O178 O 0.62092 0.73123 0.46525 0.0
O179 O 0.64692 0.77296 0.48611 0.0
C180 C 0.57769 0.86571 0.46056 0.0
C181 C 0.6433 0.73678 0.47941 0.0
C182 C 0.78451 0.36909 0.58527 0.0
C183 C 0.75481 0.48514 0.54518 0.0
O184 O 0.79888 0.36252 0.5694 0.0
Zn185 Zn 0.80169 0.39613 0.54429 0.0
O186 O 0.7664 0.40332 0.58864 0.0
Zn187 Zn 0.77098 0.42778 0.56505 0.0
O188 O 0.73177 0.38876 0.54806 0.0
O189 O 0.77345 0.35966 0.52804 0.0
O190 O 0.74663 0.4817 0.56185 0.0
O191 O 0.77461 0.45597 0.537 0.0
O192 O 0.86034 0.40385 0.54033 0.0
O193 O 0.83601 0.44272 0.56241 0.0
C194 C 0.7371 0.36475 0.53438 0.0
C195 C 0.86639 0.43122 0.55237 0.0
C196 C 0.43297 0.14321 0.46022 0.0
C197 C 0.36594 0.27169 0.47892 0.0
O198 O 0.40551 0.14878 0.47226 0.0
Zn199 Zn 0.39764 0.20743 0.46867 0.0
O200 O 0.44433 0.17393 0.45033 0.0
Zn201 Zn 0.42853 0.23903 0.44796 0.0
O202 O 0.48178 0.26466 0.45125 0.0
O203 O 0.45782 0.23394 0.47575 0.0
O204 O 0.38942 0.27732 0.46513 0.0
O205 O 0.36155 0.23526 0.48529 0.0
O206 O 0.36337 0.2109 0.44373 0.0
O207 O 0.40361 0.24397 0.42448 0.0
C208 C 0.48633 0.25501 0.46774 0.0
C209 C 0.36952 0.22573 0.4279 0.0
C210 C 0.27087 0.6434 0.53206 0.0
C211 C 0.14327 0.57667 0.5516 0.0
O212 O 0.27694 0.62141 0.54628 0.0
Zn213 Zn 0.23919 0.58224 0.56368 0.0
O214 O 0.23458 0.64626 0.5254 0.0
Zn215 Zn 0.20719 0.61176 0.54272 0.0
O216 O 0.2109 0.64752 0.56737 0.0
O217 O 0.24403 0.6079 0.58691 0.0
O218 O 0.14859 0.60358 0.53932 0.0
O219 O 0.17412 0.56592 0.56157 0.0
O220 O 0.26536 0.52899 0.56082 0.0
O221 O 0.2337 0.55137 0.53625 0.0
C222 C 0.22581 0.6419 0.58324 0.0
C223 C 0.2552 0.52344 0.54445 0.0
H224 H 0.14276 0.35458 0.29449 0.0
H225 H 0.18972 0.27433 0.25237 0.0
H226 H 0.17163 0.41493 0.27892 0.0
H227 H 0.21886 0.33461 0.23697 0.0
H228 H 0.26305 0.50837 0.25387 0.0
H229 H 0.23896 0.44699 0.27022 0.0
H230 H 0.19084 0.39546 0.22065 0.0
H231 H 0.21519 0.45648 0.20426 0.0
C232 C 0.15953 0.34975 0.28201 0.0
C233 C 0.16377 0.30964 0.27464 0.0
C234 C 0.17624 0.38432 0.27314 0.0
C235 C 0.19733 0.37953 0.25667 0.0
C236 C 0.20227 0.33935 0.2495 0.0
C237 C 0.18577 0.30479 0.2584 0.0
C238 C 0.24749 0.48386 0.24644 0.0
C239 C 0.24103 0.48734 0.22775 0.0
C240 C 0.2335 0.44883 0.25583 0.0
C241 C 0.21303 0.4164 0.24672 0.0
C242 C 0.20697 0.4197 0.22801 0.0
C243 C 0.22071 0.4548 0.21864 0.0
H244 H 0.48846 0.72002 0.76461 0.0
H245 H 0.47732 0.82466 0.80091 0.0
H246 H 0.42751 0.74492 0.74779 0.0
H247 H 0.41722 0.84988 0.78372 0.0
H248 H 0.3547 0.89523 0.72686 0.0
H249 H 0.41529 0.86728 0.74295 0.0
H250 H 0.3405 0.76626 0.76323 0.0
H251 H 0.27942 0.79463 0.74761 0.0
C252 C 0.47307 0.7483 0.76896 0.0
C253 C 0.48755 0.77039 0.78408 0.0
C254 C 0.43831 0.76239 0.75937 0.0
C255 C 0.41816 0.79924 0.76452 0.0
C256 C 0.43255 0.82141 0.77956 0.0
C257 C 0.46671 0.80688 0.78939 0.0
C258 C 0.35126 0.86686 0.73462 0.0
C259 C 0.31238 0.84708 0.73601 0.0
C260 C 0.3858 0.85108 0.74383 0.0
C261 C 0.38218 0.8148 0.75422 0.0
C262 C 0.34377 0.79427 0.75522 0.0
C263 C 0.30899 0.81054 0.74633 0.0
H264 H 0.74808 0.50153 0.25385 0.0
H265 H 0.79476 0.55477 0.20434 0.0
H266 H 0.77219 0.56264 0.2704 0.0
H267 H 0.81911 0.61553 0.22092 0.0
H268 H 0.8683 0.65532 0.29475 0.0
H269 H 0.83951 0.59504 0.27906 0.0
H270 H 0.79088 0.67583 0.23754 0.0
H271 H 0.8199 0.736 0.25307 0.0
C272 C 0.76339 0.52627 0.24649 0.0
C273 C 0.7695 0.52326 0.22776 0.0
C274 C 0.77739 0.56116 0.25599 0.0
C275 C 0.79751 0.5939 0.24696 0.0
C276 C 0.80326 0.59105 0.22822 0.0
C277 C 0.78951 0.55609 0.21874 0.0
C278 C 0.85123 0.66026 0.28234 0.0
C279 C 0.84658 0.70047 0.27513 0.0
C280 C 0.83458 0.62574 0.2734 0.0
C281 C 0.81313 0.63068 0.25702 0.0
C282 C 0.80775 0.67097 0.25001 0.0
C283 C 0.82419 0.70547 0.25898 0.0
H284 H 0.56384 0.25433 0.80617 0.0
H285 H 0.48767 0.22413 0.76015 0.0
H286 H 0.62552 0.23119 0.79006 0.0
H287 H 0.54843 0.19722 0.74443 0.0
H288 H 0.66833 0.1774 0.7141 0.0
H289 H 0.60846 0.20838 0.7292 0.0
H290 H 0.66207 0.17536 0.78087 0.0
H291 H 0.72301 0.14815 0.76565 0.0
C292 C 0.5604 0.24214 0.79264 0.0
C293 C 0.52121 0.24093 0.78437 0.0
C294 C 0.5957 0.22842 0.78339 0.0
C295 C 0.59244 0.21167 0.76586 0.0
C296 C 0.55281 0.21057 0.75768 0.0
C297 C 0.51775 0.22565 0.76673 0.0
C298 C 0.66719 0.1773 0.7287 0.0
C299 C 0.70026 0.16078 0.73874 0.0
C300 C 0.63269 0.19468 0.73742 0.0
C301 C 0.6299 0.19462 0.75641 0.0
C302 C 0.66314 0.17737 0.76633 0.0
C303 C 0.69811 0.16133 0.75761 0.0
H304 H 0.21681 0.05566 0.05865 0.0
H305 H 0.26195 1.00252 0.00883 0.0
H306 H 0.19243 0.1168 0.04225 0.0
H307 H 0.2379 0.06391 0.9925 0.0
H308 H 0.19101 0.23743 0.0098 0.0
H309 H 0.21992 0.17723 0.02545 0.0
H310 H 0.17073 0.09626 0.98415 0.0
H311 H 0.14213 0.15645 0.96836 0.0
C312 C 0.22173 0.05709 0.04422 0.0
C313 C 0.24127 0.02415 0.03505 0.0
C314 C 0.20797 0.09225 0.03485 0.0
C315 C 0.21325 0.09518 0.01608 0.0
C316 C 0.23301 0.06237 0.00693 0.0
C317 C 0.24698 0.0273 0.01631 0.0
C318 C 0.1866 0.20684 1.00397 0.0
C319 C 0.16417 0.20176 0.98784 0.0
C320 C 0.20295 0.17233 0.01301 0.0
C321 C 0.19744 0.13199 0.00608 0.0
C322 C 0.17582 0.12698 0.98975 0.0
C323 C 0.15927 0.16147 0.98074 0.0
H324 H 0.23531 0.82002 1.00263 0.0
H325 H 0.15512 0.86776 0.04459 0.0
H326 H 0.17497 0.79112 0.98717 0.0
H327 H 0.0947 0.83911 0.02896 0.0
H328 H 1.00092 0.74805 1.00376 0.0
H329 H 0.06226 0.77189 0.02022 0.0
H330 H 0.11443 0.8196 0.97074 0.0
H331 H 0.05345 0.79551 0.95424 0.0
C332 C 0.20485 0.82418 0.00862 0.0
C333 C 0.20004 0.84636 0.02482 0.0
C334 C 0.17026 0.80782 0.99969 0.0
C335 C 0.13007 0.81306 0.00679 0.0
C336 C 0.12531 0.83428 0.02323 0.0
C337 C 0.15992 0.85085 0.03213 0.0
C338 C 0.02555 0.76347 0.99637 0.0
C339 C 0.02227 0.76989 0.97768 0.0
C340 C 0.06057 0.77731 1.00583 0.0
C341 C 0.09317 0.79758 0.99678 0.0
C342 C 0.09005 0.80363 0.97806 0.0
C343 C 0.05497 0.79003 0.96863 0.0
H344 H 0.86481 0.85399 0.96821 0.0
H345 H 0.81943 0.77275 0.01027 0.0
H346 H 0.83609 0.91388 0.9841 0.0
H347 H 0.79035 0.83273 0.02604 0.0
H348 H 0.74511 0.00669 0.00904 0.0
H349 H 0.7689 0.94511 0.99284 0.0
H350 H 0.81746 0.89409 0.04245 0.0
H351 H 0.7933 0.95551 0.05873 0.0
C352 C 0.84839 0.84884 0.98076 0.0
C353 C 0.84452 0.80857 0.98799 0.0
C354 C 0.83177 0.88317 0.98982 0.0
C355 C 0.81106 0.87804 0.00635 0.0
C356 C 0.80658 0.83772 0.01344 0.0
C357 C 0.82302 0.80334 1.00433 0.0
C358 C 0.76069 0.98228 0.01653 0.0
C359 C 0.76737 0.98607 0.03519 0.0
C360 C 0.7745 0.94709 0.00721 0.0
C361 C 0.79512 0.91478 0.01635 0.0
C362 C 0.80127 0.91827 0.03506 0.0
C363 C 0.78764 0.95358 0.04437 0.0
H364 H 0.84081 0.17862 0.04835 0.0
H365 H 0.7849 0.15145 0.99684 0.0
H366 H 0.90053 0.20969 0.03321 0.0
H367 H 0.84567 0.17879 0.98156 0.0
H368 H 0.94418 0.25726 0.95634 0.0
H369 H 0.88256 0.23458 0.97259 0.0
H370 H 0.96018 0.19821 0.01771 0.0
H371 H 0.02097 0.22466 1.00187 0.0
C372 C 0.84163 0.17902 0.03375 0.0
C373 C 0.80828 0.163 0.02373 0.0
C374 C 0.87604 0.19646 0.025 0.0
C375 C 0.87847 0.19696 1.00601 0.0
C376 C 0.8449 0.18033 0.99612 0.0
C377 C 0.81002 0.16422 1.00487 0.0
C378 C 0.94775 0.24466 0.9698 0.0
C379 C 0.98711 0.2426 0.97789 0.0
C380 C 0.91248 0.23119 0.97912 0.0
C381 C 0.91592 0.21388 0.99653 0.0
C382 C 0.9557 0.212 1.00455 0.0
C383 C 0.99076 0.22682 0.99543 0.0
H384 H 0.68196 0.83698 0.79702 0.0
H385 H 0.65249 0.78092 0.74579 0.0
H386 H 0.71246 0.89652 0.78164 0.0
H387 H 0.67932 0.84175 0.73024 0.0
H388 H 0.75536 0.9431 0.70477 0.0
H389 H 0.73356 0.88051 0.72066 0.0
H390 H 0.69828 0.95597 0.76659 0.0
H391 H 0.72373 0.01754 0.75113 0.0
C392 C 0.68184 0.83769 0.78242 0.0
C393 C 0.66513 0.80445 0.77256 0.0
C394 C 0.69887 0.87206 0.77353 0.0
C395 C 0.69822 0.87466 0.75455 0.0
C396 C 0.68148 0.84094 0.74478 0.0
C397 C 0.66574 0.80601 0.75368 0.0
C398 C 0.74312 0.94597 0.71832 0.0
C399 C 0.74123 0.98493 0.72678 0.0
C400 C 0.73022 0.91014 0.72744 0.0
C401 C 0.7138 0.91266 0.74504 0.0
C402 C 0.71164 0.95212 0.75332 0.0
C403 C 0.72583 0.98767 0.7444 0.0
H404 H 0.00703 0.24662 0.25895 0.0
H405 H 0.95485 0.29345 0.30866 0.0
H406 H 0.94552 0.27044 0.24266 0.0
H407 H 0.89357 0.31763 0.29229 0.0
H408 H 0.85379 0.36628 0.21818 0.0
H409 H 0.91374 0.33748 0.23402 0.0
H410 H 0.83264 0.29051 0.27571 0.0
H411 H 0.77262 0.31968 0.25999 0.0
C412 C 0.98242 0.26192 0.26642 0.0
C413 C 0.9859 0.26819 0.28512 0.0
C414 C 0.94728 0.27575 0.25705 0.0
C415 C 0.91471 0.29595 0.26618 0.0
C416 C 0.91793 0.30174 0.28491 0.0
C417 C 0.95317 0.2881 0.29427 0.0
C418 C 0.84866 0.34958 0.23066 0.0
C419 C 0.8084 0.34541 0.23783 0.0
C420 C 0.88303 0.3329 0.23969 0.0
C421 C 0.87794 0.31185 0.25615 0.0
C422 C 0.83761 0.30703 0.26317 0.0
C423 C 0.80321 0.32352 0.25409 0.0
H424 H 0.28714 0.98895 0.75067 0.0
H425 H 0.25042 0.06598 0.70581 0.0
H426 H 0.31313 0.04995 0.7665 0.0
H427 H 0.27275 0.12776 0.7221 0.0
H428 H 0.35476 0.22684 0.7464 0.0
H429 H 0.32791 0.16602 0.73091 0.0
H430 H 0.30049 0.10877 0.78242 0.0
H431 H 0.33101 0.16855 0.79771 0.0
C432 C 0.284 0.01923 0.74438 0.0
C433 C 0.2671 0.0229 0.72703 0.0
C434 C 0.29855 0.05442 0.7535 0.0
C435 C 0.2953 0.09434 0.74571 0.0
C436 C 0.27709 0.09776 0.72846 0.0
C437 C 0.26385 0.06239 0.71912 0.0
C438 C 0.34282 0.2012 0.75435 0.0
C439 C 0.3449 0.20227 0.77321 0.0
C440 C 0.32702 0.16627 0.74548 0.0
C441 C 0.31163 0.13197 0.75528 0.0
C442 C 0.31284 0.13381 0.77427 0.0
C443 C 0.32993 0.16827 0.78311 0.0
H444 H 1.00332 0.76382 0.25933 0.0
H445 H 0.05571 0.71699 0.30904 0.0
H446 H 0.06484 0.74013 0.24305 0.0
H447 H 0.11696 0.69293 0.29268 0.0
H448 H 0.23782 0.69085 0.26049 0.0
H449 H 0.17781 0.72004 0.27616 0.0
H450 H 0.09671 0.67322 0.23439 0.0
H451 H 0.15666 0.64441 0.21858 0.0
C452 C 0.02796 0.74855 0.2668 0.0
C453 C 0.02454 0.74224 0.2855 0.0
C454 C 0.06312 0.7348 0.25744 0.0
C455 C 0.09574 0.71463 0.26657 0.0
C456 C 0.09257 0.7088 0.28529 0.0
C457 C 0.05733 0.72236 0.29465 0.0
C458 C 0.20724 0.68704 0.25456 0.0
C459 C 0.20204 0.6652 0.23829 0.0
C460 C 0.17284 0.70355 0.26362 0.0
C461 C 0.13251 0.69878 0.25656 0.0
C462 C 0.12742 0.67776 0.24009 0.0
C463 C 0.16178 0.66109 0.23108 0.0
H464 H 0.75584 0.56542 0.55661 0.0
H465 H 0.72311 0.4882 0.51126 0.0
H466 H 0.73335 0.62696 0.54018 0.0
H467 H 0.69683 0.54889 0.49525 0.0
H468 H 0.67786 0.66768 0.46415 0.0
H469 H 0.70863 0.60811 0.47956 0.0
H470 H 0.67811 0.66437 0.53095 0.0
H471 H 0.65111 0.72501 0.51538 0.0
C472 C 0.74323 0.56173 0.54315 0.0
C473 C 0.74113 0.52228 0.53516 0.0
C474 C 0.72988 0.59696 0.53373 0.0
C475 C 0.71264 0.5934 0.5163 0.0
C476 C 0.71061 0.5535 0.50841 0.0
C477 C 0.72532 0.51848 0.51763 0.0
C478 C 0.67831 0.66721 0.47875 0.0
C479 C 0.66248 0.7009 0.4886 0.0
C480 C 0.69554 0.63287 0.48766 0.0
C481 C 0.69602 0.63084 0.50666 0.0
C482 C 0.67964 0.66479 0.51639 0.0
C483 C 0.66373 0.69961 0.50747 0.0
H484 H 0.65551 0.36668 0.54497 0.0
H485 H 0.73667 0.31833 0.5035 0.0
H486 H 0.59543 0.33809 0.5291 0.0
H487 H 0.67661 0.2895 0.48777 0.0
H488 H 0.50204 0.24699 0.50382 0.0
H489 H 0.5632 0.27076 0.52041 0.0
H490 H 0.61631 0.31785 0.47101 0.0
H491 H 0.55545 0.29384 0.45437 0.0
C492 C 0.6606 0.34965 0.53257 0.0
C493 C 0.7009 0.34493 0.52548 0.0
C494 C 0.62617 0.33311 0.52352 0.0
C495 C 0.63128 0.31172 0.50714 0.0
C496 C 0.67164 0.30631 0.50024 0.0
C497 C 0.70607 0.32262 0.50933 0.0
C498 C 0.52684 0.26226 0.49647 0.0
C499 C 0.52384 0.26854 0.47776 0.0
C500 C 0.56176 0.27606 0.50601 0.0
C501 C 0.59456 0.29616 0.49702 0.0
C502 C 0.59176 0.30203 0.47828 0.0
C503 C 0.55676 0.28848 0.46877 0.0
H504 H 0.24534 0.50555 0.50868 0.0
H505 H 0.29551 0.45543 0.55822 0.0
H506 H 0.26907 0.44384 0.49251 0.0
H507 H 0.31953 0.39394 0.54197 0.0
H508 H 0.36556 0.35287 0.46785 0.0
H509 H 0.33656 0.41287 0.48357 0.0
H510 H 0.29193 0.33219 0.52591 0.0
H511 H 0.32125 0.27212 0.5103 0.0
C512 C 0.26133 0.48135 0.51614 0.0
C513 C 0.2686 0.48546 0.53474 0.0
C514 C 0.2751 0.4461 0.50684 0.0
C515 C 0.2962 0.41407 0.51596 0.0
C516 C 0.30295 0.4179 0.53461 0.0
C517 C 0.2894 0.45325 0.54389 0.0
C518 C 0.34933 0.34785 0.48045 0.0
C519 C 0.34586 0.3077 0.48784 0.0
C520 C 0.33254 0.38222 0.48941 0.0
C521 C 0.31209 0.37726 0.50601 0.0
C522 C 0.30796 0.33705 0.51325 0.0
C523 C 0.32454 0.30262 0.50424 0.0
H524 H 0.44391 0.75396 0.45497 0.0
H525 H 0.51917 0.72337 0.50124 0.0
H526 H 0.38172 0.73193 0.47103 0.0
H527 H 0.45797 0.69758 0.51689 0.0
H528 H 0.33883 0.67978 0.54734 0.0
H529 H 0.39838 0.71044 0.53201 0.0
H530 H 0.34374 0.67733 0.48056 0.0
H531 H 0.28296 0.65042 0.49605 0.0
C532 C 0.44703 0.74191 0.46854 0.0
C533 C 0.48611 0.74032 0.47691 0.0
C534 C 0.41144 0.72885 0.47777 0.0
C535 C 0.4143 0.71247 0.49537 0.0
C536 C 0.45385 0.7108 0.5036 0.0
C537 C 0.48919 0.72521 0.49458 0.0
C538 C 0.33961 0.67966 0.53274 0.0
C539 C 0.30637 0.66303 0.52285 0.0
C540 C 0.37397 0.69682 0.52388 0.0
C541 C 0.37654 0.69637 0.5049 0.0
C542 C 0.34293 0.67946 0.49511 0.0
C543 C 0.30804 0.66363 0.50398 0.0
H544 H 0.29019 0.19626 0.43182 0.0
H545 H 0.37435 0.24823 0.39238 0.0
H546 H 0.23531 0.19341 0.40912 0.0
H547 H 0.31929 0.24566 0.36975 0.0
H548 H 0.22182 0.19755 0.32972 0.0
H549 H 0.27703 0.19506 0.35233 0.0
H550 H 0.19217 0.24392 0.39219 0.0
H551 H 0.13689 0.24612 0.36969 0.0
C552 C 0.29706 0.20694 0.4183 0.0
C553 C 0.33666 0.22257 0.41394 0.0
C554 C 0.26552 0.20551 0.40533 0.0
C555 C 0.27293 0.2194 0.38765 0.0
C556 C 0.31273 0.23434 0.3832 0.0
C557 C 0.34421 0.23603 0.39621 0.0
C558 C 0.21485 0.20753 0.34333 0.0
C559 C 0.17493 0.22209 0.34789 0.0
C560 C 0.24656 0.20633 0.35625 0.0
C561 C 0.23898 0.21936 0.37404 0.0
C562 C 0.19889 0.23325 0.37865 0.0
C563 C 0.16727 0.23473 0.36572 0.0
H564 H 0.1967 0.72146 0.57898 0.0
H565 H 0.24793 0.63751 0.61877 0.0
H566 H 0.19349 0.77657 0.60161 0.0
H567 H 0.24504 0.69267 0.64128 0.0
H568 H 0.19643 0.78903 0.68122 0.0
H569 H 0.19404 0.73439 0.65841 0.0
H570 H 0.24311 0.82003 0.61893 0.0
H571 H 0.24516 0.87486 0.64166 0.0
C572 C 0.20715 0.7147 0.59255 0.0
C573 C 0.22262 0.67507 0.59706 0.0
C574 C 0.20552 0.74636 0.60549 0.0
C575 C 0.21903 0.73899 0.62323 0.0
C576 C 0.23395 0.69921 0.62778 0.0
C577 C 0.23583 0.66766 0.61484 0.0
C578 C 0.20647 0.79632 0.66765 0.0
C579 C 0.2211 0.83631 0.66328 0.0
C580 C 0.20531 0.76492 0.65461 0.0
C581 C 0.21852 0.77284 0.63688 0.0
C582 C 0.23234 0.81305 0.63242 0.0
C583 C 0.23373 0.8444 0.64548 0.0
H584 H 0.7215 0.81194 0.43277 0.0
H585 H 0.63711 0.76228 0.3928 0.0
H586 H 0.77652 0.8153 0.41014 0.0
H587 H 0.69222 0.76531 0.37029 0.0
H588 H 0.78942 0.81372 0.33057 0.0
H589 H 0.73455 0.81615 0.35328 0.0
H590 H 0.81945 0.76553 0.39277 0.0
H591 H 0.87443 0.76343 0.37017 0.0
C592 C 0.71462 0.80186 0.41916 0.0
C593 C 0.67491 0.78676 0.41461 0.0
C594 C 0.74622 0.80359 0.40622 0.0
C595 C 0.73874 0.79053 0.38843 0.0
C596 C 0.69885 0.77604 0.38382 0.0
C597 C 0.66734 0.77407 0.39677 0.0
C598 C 0.79648 0.80335 0.34412 0.0
C599 C 0.83631 0.78829 0.34854 0.0
C600 C 0.76496 0.80453 0.3571 0.0
C601 C 0.77263 0.79093 0.37481 0.0
C602 C 0.81267 0.77662 0.3793 0.0
C603 C 0.84411 0.7752 0.36631 0.0
H604 H 0.81215 0.22236 0.68398 0.0
H605 H 0.76651 0.137 0.64352 0.0
H606 H 0.81474 0.27775 0.66143 0.0
H607 H 0.76874 0.19233 0.62113 0.0
H608 H 0.81545 0.2902 0.58171 0.0
H609 H 0.81889 0.23578 0.60457 0.0
H610 H 0.76469 0.31962 0.64355 0.0
H611 H 0.7616 0.37428 0.62075 0.0
C612 C 0.80283 0.21535 0.67029 0.0
C613 C 0.78908 0.17525 0.66557 0.0
C614 C 0.8041 0.24714 0.65739 0.0
C615 C 0.79193 0.23943 0.63949 0.0
C616 C 0.77879 0.19918 0.63475 0.0
C617 C 0.77728 0.16751 0.64763 0.0
C618 C 0.80446 0.29715 0.59517 0.0
C619 C 0.7881 0.33658 0.59937 0.0
C620 C 0.80625 0.26587 0.60825 0.0
C621 C 0.79193 0.27333 0.62585 0.0
C622 C 0.77635 0.31301 0.63016 0.0
C623 C 0.77435 0.34425 0.61705 0.0
H624 H 0.13468 0.26239 0.89245 0.0
H625 H 0.2203 0.31327 0.93163 0.0
H626 H 0.18924 0.2644 0.86963 0.0
H627 H 0.2747 0.31559 0.90873 0.0
H628 H 0.37172 0.26231 0.86897 0.0
H629 H 0.3169 0.26477 0.89163 0.0
H630 H 0.23162 0.31444 0.85207 0.0
H631 H 0.28637 0.31166 0.82929 0.0
C632 C 0.16505 0.27424 0.89618 0.0
C633 C 0.17315 0.28755 0.91389 0.0
C634 C 0.19624 0.27561 0.88306 0.0
C635 C 0.2363 0.29009 0.88738 0.0
C636 C 0.24427 0.30384 0.90504 0.0
C637 C 0.21302 0.30271 0.91813 0.0
C638 C 0.34133 0.2739 0.86509 0.0
C639 C 0.33342 0.28671 0.8473 0.0
C640 C 0.30999 0.27553 0.87812 0.0
C641 C 0.26992 0.28979 0.87364 0.0
C642 C 0.26207 0.30291 0.85588 0.0
C643 C 0.29351 0.30152 0.84287 0.0
H644 H 0.31366 0.72134 0.18223 0.0
H645 H 0.26195 0.63696 0.14276 0.0
H646 H 0.31667 0.77612 0.15949 0.0
H647 H 0.26468 0.69188 0.1201 0.0
H648 H 0.31277 0.78893 0.08004 0.0
H649 H 0.31538 0.73397 0.10274 0.0
H650 H 0.26625 0.81914 0.14243 0.0
H651 H 0.26392 0.87418 0.11983 0.0
C652 C 0.30307 0.7144 0.1687 0.0
C653 C 0.28747 0.67477 0.16434 0.0
C654 C 0.3046 0.74587 0.1557 0.0
C655 C 0.29084 0.73835 0.13801 0.0
C656 C 0.27591 0.69853 0.13357 0.0
C657 C 0.27413 0.66713 0.14659 0.0
C658 C 0.30275 0.79602 0.09363 0.0
C659 C 0.28806 0.83595 0.0981 0.0
C660 C 0.30404 0.76445 0.1066 0.0
C661 C 0.29095 0.7722 0.12436 0.0
C662 C 0.27696 0.81231 0.12891 0.0
C663 C 0.27541 0.84379 0.11592 0.0
H664 H 0.78869 0.69746 0.93158 0.0
H665 H 0.8739 0.74821 0.89226 0.0
H666 H 0.73421 0.69452 0.90867 0.0
H667 H 0.81928 0.74552 0.86944 0.0
H668 H 0.72197 0.69736 0.82924 0.0
H669 H 0.77685 0.69478 0.85203 0.0
H670 H 0.69191 0.74539 0.89144 0.0
H671 H 0.63702 0.74773 0.86878 0.0
C672 C 0.79587 0.70784 0.91804 0.0
C673 C 0.83564 0.72318 0.91377 0.0
C674 C 0.76458 0.70635 0.90495 0.0
C675 C 0.77242 0.71988 0.88726 0.0
C676 C 0.81239 0.73448 0.8829 0.0
C677 C 0.84361 0.73625 0.89602 0.0
C678 C 0.71494 0.70772 0.84279 0.0
C679 C 0.67511 0.72281 0.84718 0.0
C680 C 0.74644 0.70645 0.85581 0.0
C681 C 0.73872 0.71991 0.87353 0.0
C682 C 0.69872 0.73437 0.87797 0.0
C683 C 0.66734 0.73594 0.86494 0.0
H684 H 0.69789 0.22329 0.07909 0.0
H685 H 0.7449 0.13771 0.1192 0.0
H686 H 0.69541 0.27841 0.10175 0.0
H687 H 0.74273 0.19282 0.14172 0.0
H688 H 0.7488 0.3748 0.14231 0.0
H689 H 0.74586 0.32017 0.1195 0.0
H690 H 0.69234 0.23604 0.1585 0.0
H691 H 0.69558 0.29047 0.18138 0.0
C692 C 0.70754 0.21617 0.09273 0.0
C693 C 0.72164 0.17609 0.09731 0.0
C694 C 0.70634 0.24781 0.10569 0.0
C695 C 0.7189 0.23997 0.12352 0.0
C696 C 0.73239 0.19974 0.12815 0.0
C697 C 0.73386 0.16821 0.11519 0.0
C698 C 0.73623 0.34471 0.14601 0.0
C699 C 0.72257 0.33698 0.1637 0.0
C700 C 0.73432 0.31349 0.1329 0.0
C701 C 0.71895 0.27376 0.13721 0.0
C702 C 0.70478 0.26619 0.15483 0.0
C703 C 0.70645 0.29747 0.16791 0.0
H704 H 0.92884 0.92969 0.27678 0.0
H705 H 0.97824 0.89818 0.32924 0.0
H706 H 0.96554 0.99603 0.27777 0.0
H707 H 0.01467 0.96517 0.33025 0.0
H708 H 0.03258 0.11225 0.32904 0.0
H709 H 0.9961 0.04531 0.33023 0.0
H710 H 0.04413 0.01412 0.27764 0.0
H711 H 0.08087 0.08043 0.27646 0.0
C712 C 0.94717 0.93707 0.28861 0.0
C713 C 0.95076 0.90859 0.30291 0.0
C714 C 0.96836 0.97496 0.28911 0.0
C715 C 0.99314 0.98548 0.30402 0.0
C716 C 0.99568 0.95775 0.31862 0.0
C717 C 0.97494 0.91945 0.318 0.0
C718 C 0.03562 0.09092 0.31781 0.0
C719 C 0.05952 0.10168 0.30264 0.0
C720 C 0.01486 0.05265 0.31853 0.0
C721 C 0.01708 0.02484 0.30396 0.0
C722 C 0.04156 0.03526 0.28896 0.0
C723 C 0.06278 0.07312 0.28835 0.0
H724 H 0.89823 0.03165 0.68434 0.0
H725 H 0.92899 0.07776 0.73743 0.0
H726 H 0.96473 0.99444 0.68328 0.0
H727 H 0.99501 0.04033 0.73636 0.0
H728 H 0.08097 0.92602 0.73656 0.0
H729 H 0.01444 0.96269 0.73592 0.0
H730 H 0.0437 0.01184 0.6833 0.0
H731 H 0.11062 0.97542 0.68393 0.0
C732 C 0.91924 0.03406 0.69571 0.0
C733 C 0.90832 0.0576 0.71098 0.0
C734 C 0.95727 0.01284 0.69508 0.0
C735 C 0.98474 0.01427 0.7098 0.0
C736 C 0.97413 0.03832 0.72492 0.0
C737 C 0.93646 0.05998 0.72546 0.0
C738 C 0.07312 0.94432 0.72477 0.0
C739 C 0.10113 0.94793 0.71032 0.0
C740 C 0.03517 0.96552 0.72448 0.0
C741 C 0.02415 0.99031 0.70962 0.0
C742 C 0.05144 0.99284 0.69489 0.0
C743 C 0.08973 0.97209 0.69529 0.0
H744 H 0.10743 0.44302 0.97203 0.0
H745 H 1.0033 0.38461 0.9452 0.0
H746 H 0.07178 0.51032 0.97032 0.0
H747 H 0.96751 0.45176 0.94384 0.0
H748 H 0.90285 0.56844 0.97112 0.0
H749 H 0.93895 0.50142 0.9696 0.0
H750 H 0.04437 0.56099 0.9445 0.0
H751 H 0.00807 0.62797 0.94567 0.0
C752 C 0.07707 0.4446 0.96571 0.0
C753 C 0.05815 0.40858 0.95875 0.0
C754 C 0.0568 0.48307 0.96467 0.0
C755 C 0.01694 0.48604 0.95699 0.0
C756 C 0.99817 0.45016 0.9499 0.0
C757 C 0.01876 0.41186 0.9506 0.0
C758 C 0.93357 0.56716 0.96514 0.0
C759 C 0.95264 0.6034 0.9585 0.0
C760 C 0.95411 0.52885 0.96422 0.0
C761 C 0.99439 0.52622 0.95697 0.0
C762 C 0.01338 0.56233 0.95022 0.0
C763 C 0.99251 0.60052 0.9508 0.0
H764 H 0.3976 0.97818 0.07892 0.0
H765 H 0.42931 0.92896 0.02647 0.0
H766 H 0.46454 0.01467 0.08 0.0
H767 H 0.4956 0.96571 0.02754 0.0
H768 H 0.57964 0.08121 0.02625 0.0
H769 H 0.51344 0.04436 0.02743 0.0
H770 H 0.54477 0.99629 0.08003 0.0
H771 H 0.61165 0.0329 0.07884 0.0
C772 C 0.4189 0.97493 0.0677 0.0
C773 C 0.40811 0.95078 0.05258 0.0
C774 C 0.45718 0.9957 0.06836 0.0
C775 C 0.48494 0.99323 0.05379 0.0
C776 C 0.4745 0.96847 0.03886 0.0
C777 C 0.43664 0.94725 0.03832 0.0
C778 C 0.5724 0.06309 0.03815 0.0
C779 C 0.60099 0.05986 0.05243 0.0
C780 C 0.53459 0.04181 0.03876 0.0
C781 C 0.52424 0.01727 0.05375 0.0
C782 C 0.55207 0.01508 0.06833 0.0
C783 C 0.5903 0.03593 0.06761 0.0
H784 H 0.50398 0.38401 0.81785 0.0
H785 H 0.40125 0.44242 0.78997 0.0
H786 H 0.53949 0.45121 0.81965 0.0
H787 H 0.43659 0.50976 0.79212 0.0
H788 H 0.4996 0.62791 0.81643 0.0
H789 H 0.46309 0.56104 0.81793 0.0
H790 H 0.56919 0.50009 0.79394 0.0
H791 H 0.60541 0.56687 0.79209 0.0
C792 C 0.48875 0.41127 0.81233 0.0
C793 C 0.44988 0.40796 0.80372 0.0
C794 C 0.50916 0.44961 0.8133 0.0
C795 C 0.49071 0.4855 0.80602 0.0
C796 C 0.45129 0.48252 0.79793 0.0
C797 C 0.43122 0.44401 0.79663 0.0
C798 C 0.51525 0.60016 0.81164 0.0
C799 C 0.55532 0.60256 0.80412 0.0
C800 C 0.49428 0.56204 0.81242 0.0
C801 C 0.5134 0.52558 0.80605 0.0
C802 C 0.55392 0.52777 0.79904 0.0
C803 C 0.57453 0.56596 0.79792 0.0
H804 H 0.62697 0.50839 0.19523 0.0
H805 H 0.56814 0.4033 0.22112 0.0
H806 H 0.55978 0.54424 0.1939 0.0
H807 H 0.5009 0.43895 0.21943 0.0
H808 H 0.3834 0.50288 0.19525 0.0
H809 H 0.45058 0.46708 0.19377 0.0
H810 H 0.50958 0.57184 0.21969 0.0
H811 H 0.44234 0.60744 0.22153 0.0
C812 C 0.59963 0.49275 0.20042 0.0
C813 C 0.60278 0.45307 0.20831 0.0
C814 C 0.56131 0.51335 0.19973 0.0
C815 C 0.52532 0.4943 0.20657 0.0
C816 C 0.52821 0.45416 0.21397 0.0
C817 C 0.56666 0.43389 0.215 0.0
C818 C 0.41076 0.51842 0.2005 0.0
C819 C 0.40764 0.55793 0.20854 0.0
C820 C 0.44908 0.49784 0.19972 0.0
C821 C 0.4851 0.51676 0.20662 0.0
C822 C 0.48224 0.55674 0.21418 0.0
C823 C 0.4438 0.57698 0.21529 0.0
H824 H 0.50888 0.12651 0.44545 0.0
H825 H 0.40325 0.06745 0.47079 0.0
H826 H 0.54468 0.05928 0.44413 0.0
H827 H 0.43885 1.00017 0.4691 0.0
H828 H 0.50309 0.88308 0.4447 0.0
H829 H 0.46756 0.95041 0.4432 0.0
H830 H 0.57143 0.00853 0.47015 0.0
H831 H 0.60675 0.94111 0.47202 0.0
C832 C 0.49311 0.09911 0.45052 0.0
C833 C 0.4533 0.10219 0.45825 0.0
C834 C 0.51369 0.06078 0.44984 0.0
C835 C 0.49445 0.02473 0.45652 0.0
C836 C 0.45419 0.02755 0.46377 0.0
C837 C 0.43395 0.06601 0.4648 0.0
C838 C 0.5185 0.91028 0.45017 0.0
C839 C 0.55766 0.90687 0.45851 0.0
C840 C 0.49808 0.94868 0.44938 0.0
C841 C 0.51683 0.98447 0.45656 0.0
C842 C 0.55649 0.98135 0.46442 0.0
C843 C 0.57656 0.94281 0.46555 0.0
H844 H 0.88366 0.50644 0.56764 0.0
H845 H 0.94182 0.40181 0.54106 0.0
H846 H 0.95087 0.54206 0.56889 0.0
H847 H 0.00916 0.43728 0.54266 0.0
H848 H 0.12706 0.50117 0.5669 0.0
H849 H 0.06002 0.46511 0.56845 0.0
H850 H 1.0003 0.56994 0.54282 0.0
H851 H 0.06734 0.60575 0.5409 0.0
C852 C 0.91087 0.49084 0.56227 0.0
C853 C 0.90751 0.45137 0.55422 0.0
C854 C 0.9492 0.51132 0.56292 0.0
C855 C 0.98502 0.49234 0.55587 0.0
C856 C 0.98197 0.4524 0.54829 0.0
C857 C 0.94347 0.43225 0.54731 0.0
C858 C 0.09955 0.51665 0.56174 0.0
C859 C 0.10239 0.55625 0.55376 0.0
C860 C 0.06134 0.49593 0.56254 0.0
C861 C 0.02518 0.51482 0.55574 0.0
C862 C 0.02777 0.55487 0.54825 0.0
C863 C 0.06609 0.57523 0.5471 0.0
loop_
_geom_bond_atom_site_label_1
_geom_bond_atom_site_label_2
_geom_bond_distance
_geom_bond_site_symmetry_2
_ccdc_geom_bond_type
C0 O2 1.247 . S
C0 O4 1.258 . S
C1 O8 1.247 . S
C1 O9 1.258 . S
O2 C0 1.247 . S
O2 Zn3 2.028 . S
Zn3 O2 2.028 . S
Zn3 O7 2.035 . S
Zn3 O9 2.035 . S
Zn3 O10 2.028 . S
O4 C0 1.258 . S
O4 Zn5 2.035 . S
Zn5 O4 2.035 . S
Zn5 O6 2.028 . S
Zn5 O8 2.028 . S
Zn5 O11 2.035 . S
O6 Zn5 2.028 . S
O6 C12 1.247 . S
O7 Zn3 2.035 . S
O7 C12 1.258 . S
O8 C1 1.247 . S
O8 Zn5 2.028 . S
O9 C1 1.258 . S
O9 Zn3 2.035 . S
O10 Zn3 2.028 . S
O10 C13 1.247 . S
O11 Zn5 2.035 . S
O11 C13 1.258 . S
C12 O6 1.247 . S
C12 O7 1.258 . S
C13 O10 1.247 . S
C13 O11 1.258 . S
C14 O16 1.247 . S
C14 O18 1.258 . S
C15 O22 1.247 . S
C15 O23 1.258 . S
O16 C14 1.247 . S
O16 Zn17 2.028 . S
Zn17 O16 2.028 . S
Zn17 O21 2.035 . S
Zn17 O23 2.035 . S
Zn17 O24 2.028 . S
O18 C14 1.258 . S
O18 Zn19 2.035 . S
Zn19 O18 2.035 . S
Zn19 O20 2.028 . S
Zn19 O22 2.028 . S
Zn19 O25 2.035 . S
O20 Zn19 2.028 . S
O20 C26 1.247 . S
O21 Zn17 2.035 . S
O21 C26 1.258 . S
O22 C15 1.247 . S
O22 Zn19 2.028 . S
O23 C15 1.258 . S
O23 Zn17 2.035 . S
O24 Zn17 2.028 . S
O24 C27 1.247 . S
O25 Zn19 2.035 . S
O25 C27 1.258 . S
C26 O20 1.247 . S
C26 O21 1.258 . S
C27 O24 1.247 . S
C27 O25 1.258 . S
C28 O30 1.247 . S
C28 O32 1.258 . S
C29 O36 1.247 . S
C29 O37 1.258 . S
O30 C28 1.247 . S
O30 Zn31 2.028 . S
Zn31 O30 2.028 . S
Zn31 O35 2.035 . S
Zn31 O37 2.035 . S
Zn31 O38 2.028 . S
O32 C28 1.258 . S
O32 Zn33 2.035 . S
Zn33 O32 2.035 . S
Zn33 O34 2.028 . S
Zn33 O36 2.028 . S
Zn33 O39 2.035 . S
O34 Zn33 2.028 . S
O34 C40 1.247 . S
O35 Zn31 2.035 . S
O35 C40 1.258 . S
O36 C29 1.247 . S
O36 Zn33 2.028 . S
O37 C29 1.258 . S
O37 Zn31 2.035 . S
O38 Zn31 2.028 . S
O38 C41 1.247 . S
O39 Zn33 2.035 . S
O39 C41 1.258 . S
C40 O34 1.247 . S
C40 O35 1.258 . S
C41 O38 1.247 . S
C41 O39 1.258 . S
C42 O44 1.247 . S
C42 O46 1.258 . S
C43 O50 1.247 . S
C43 O51 1.258 . S
O44 C42 1.247 . S
O44 Zn45 2.028 . S
Zn45 O44 2.028 . S
Zn45 O49 2.035 . S
Zn45 O51 2.035 . S
Zn45 O52 2.028 . S
O46 C42 1.258 . S
O46 Zn47 2.035 . S
Zn47 O46 2.035 . S
Zn47 O48 2.028 . S
Zn47 O50 2.028 . S
Zn47 O53 2.035 . S
O48 Zn47 2.028 . S
O48 C54 1.247 . S
O49 Zn45 2.035 . S
O49 C54 1.258 . S
O50 C43 1.247 . S
O50 Zn47 2.028 . S
O51 C43 1.258 . S
O51 Zn45 2.035 . S
O52 Zn45 2.028 . S
O52 C55 1.247 . S
O53 Zn47 2.035 . S
O53 C55 1.258 . S
C54 O48 1.247 . S
C54 O49 1.258 . S
C55 O52 1.247 . S
C55 O53 1.258 . S
C56 O58 1.247 . S
C56 O60 1.258 . S
C57 O64 1.247 . S
C57 O65 1.258 . S
O58 C56 1.247 . S
O58 Zn59 2.028 . S
Zn59 O58 2.028 . S
Zn59 O63 2.035 . S
Zn59 O65 2.035 . S
Zn59 O66 2.028 . S
O60 C56 1.258 . S
O60 Zn61 2.035 . S
Zn61 O60 2.035 . S
Zn61 O62 2.028 . S
Zn61 O64 2.028 . S
Zn61 O67 2.035 . S
O62 Zn61 2.028 . S
O62 C68 1.247 . S
O63 Zn59 2.035 . S
O63 C68 1.258 . S
O64 C57 1.247 . S
O64 Zn61 2.028 . S
O65 C57 1.258 . S
O65 Zn59 2.035 . S
O66 Zn59 2.028 . S
O66 C69 1.247 . S
O67 Zn61 2.035 . S
O67 C69 1.258 . S
C68 O62 1.247 . S
C68 O63 1.258 . S
C69 O66 1.247 . S
C69 O67 1.258 . S
C70 O72 1.247 . S
C70 O74 1.258 . S
C71 O78 1.247 . S
C71 O79 1.258 . S
O72 C70 1.247 . S
O72 Zn73 2.028 . S
Zn73 O72 2.028 . S
Zn73 O77 2.035 . S
Zn73 O79 2.035 . S
Zn73 O80 2.028 . S
O74 C70 1.258 . S
O74 Zn75 2.035 . S
Zn75 O74 2.035 . S
Zn75 O76 2.028 . S
Zn75 O78 2.028 . S
Zn75 O81 2.035 . S
O76 Zn75 2.028 . S
O76 C82 1.247 . S
O77 Zn73 2.035 . S
O77 C82 1.258 . S
O78 C71 1.247 . S
O78 Zn75 2.028 . S
O79 C71 1.258 . S
O79 Zn73 2.035 . S
O80 Zn73 2.028 . S
O80 C83 1.247 . S
O81 Zn75 2.035 . S
O81 C83 1.258 . S
C82 O76 1.247 . S
C82 O77 1.258 . S
C83 O80 1.247 . S
C83 O81 1.258 . S
C84 O86 1.247 . S
C84 O88 1.258 . S
C85 O92 1.247 . S
C85 O93 1.258 . S
O86 C84 1.247 . S
O86 Zn87 2.028 . S
Zn87 O86 2.028 . S
Zn87 O91 2.035 . S
Zn87 O93 2.035 . S
Zn87 O94 2.028 . S
O88 C84 1.258 . S
O88 Zn89 2.035 . S
Zn89 O88 2.035 . S
Zn89 O90 2.028 . S
Zn89 O92 2.028 . S
Zn89 O95 2.035 . S
O90 Zn89 2.028 . S
O90 C96 1.247 . S
O91 Zn87 2.035 . S
O91 C96 1.258 . S
O92 C85 1.247 . S
O92 Zn89 2.028 . S
O93 C85 1.258 . S
O93 Zn87 2.035 . S
O94 Zn87 2.028 . S
O94 C97 1.247 . S
O95 Zn89 2.035 . S
O95 C97 1.258 . S
C96 O90 1.247 . S
C96 O91 1.258 . S
C97 O94 1.247 . S
C97 O95 1.258 . S
C98 O100 1.247 . S
C98 O102 1.258 . S
C99 O106 1.247 . S
C99 O107 1.258 . S
O100 C98 1.247 . S
O100 Zn101 2.028 . S
Zn101 O100 2.028 . S
Zn101 O105 2.035 . S
Zn101 O107 2.035 . S
Zn101 O108 2.028 . S
O102 C98 1.258 . S
O102 Zn103 2.035 . S
Zn103 O102 2.035 . S
Zn103 O104 2.028 . S
Zn103 O106 2.028 . S
Zn103 O109 2.035 . S
O104 Zn103 2.028 . S
O104 C110 1.247 . S
O105 Zn101 2.035 . S
O105 C110 1.258 . S
O106 C99 1.247 . S
O106 Zn103 2.028 . S
O107 C99 1.258 . S
O107 Zn101 2.035 . S
O108 Zn101 2.028 . S
O108 C111 1.247 . S
O109 Zn103 2.035 . S
O109 C111 1.258 . S
C110 O104 1.247 . S
C110 O105 1.258 . S
C111 O108 1.247 . S
C111 O109 1.258 . S
C112 O114 1.247 . S
C112 O116 1.258 . S
C113 O120 1.247 . S
C113 O121 1.258 . S
O114 C112 1.247 . S
O114 Zn115 2.028 . S
Zn115 O114 2.028 . S
Zn115 O119 2.035 . S
Zn115 O121 2.035 . S
Zn115 O122 2.028 . S
O116 C112 1.258 . S
O116 Zn117 2.035 . S
Zn117 O116 2.035 . S
Zn117 O118 2.028 . S
Zn117 O120 2.028 . S
Zn117 O123 2.035 . S
O118 Zn117 2.028 . S
O118 C124 1.247 . S
O119 Zn115 2.035 . S
O119 C124 1.258 . S
O120 C113 1.247 . S
O120 Zn117 2.028 . S
O121 C113 1.258 . S
O121 Zn115 2.035 . S
O122 Zn115 2.028 . S
O122 C125 1.247 . S
O123 Zn117 2.035 . S
O123 C125 1.258 . S
C124 O118 1.247 . S
C124 O119 1.258 . S
C125 O122 1.247 . S
C125 O123 1.258 . S
C126 O128 1.247 . S
C126 O130 1.258 . S
C127 O134 1.247 . S
C127 O135 1.258 . S
O128 C126 1.247 . S
O128 Zn129 2.028 . S
Zn129 O128 2.028 . S
Zn129 O133 2.035 . S
Zn129 O135 2.035 . S
Zn129 O136 2.028 . S
O130 C126 1.258 . S
O130 Zn131 2.035 . S
Zn131 O130 2.035 . S
Zn131 O132 2.028 . S
Zn131 O134 2.028 . S
Zn131 O137 2.035 . S
O132 Zn131 2.028 . S
O132 C138 1.247 . S
O133 Zn129 2.035 . S
O133 C138 1.258 . S
O134 C127 1.247 . S
O134 Zn131 2.028 . S
O135 C127 1.258 . S
O135 Zn129 2.035 . S
O136 Zn129 2.028 . S
O136 C139 1.247 . S
O137 Zn131 2.035 . S
O137 C139 1.258 . S
C138 O132 1.247 . S
C138 O133 1.258 . S
C139 O136 1.247 . S
C139 O137 1.258 . S
C140 O142 1.247 . S
C140 O144 1.258 . S
C141 O148 1.247 . S
C141 O149 1.258 . S
O142 C140 1.247 . S
O142 Zn143 2.028 . S
Zn143 O142 2.028 . S
Zn143 O147 2.035 . S
Zn143 O149 2.035 . S
Zn143 O150 2.028 . S
O144 C140 1.258 . S
O144 Zn145 2.035 . S
Zn145 O144 2.035 . S
Zn145 O146 2.028 . S
Zn145 O148 2.028 . S
Zn145 O151 2.035 . S
O146 Zn145 2.028 . S
O146 C152 1.247 . S
O147 Zn143 2.035 . S
O147 C152 1.258 . S
O148 C141 1.247 . S
O148 Zn145 2.028 . S
O149 C141 1.258 . S
O149 Zn143 2.035 . S
O150 Zn143 2.028 . S
O150 C153 1.247 . S
O151 Zn145 2.035 . S
O151 C153 1.258 . S
C152 O146 1.247 . S
C152 O147 1.258 . S
C153 O150 1.247 . S
C153 O151 1.258 . S
C154 O156 1.247 . S
C154 O158 1.258 . S
C155 O162 1.247 . S
C155 O163 1.258 . S
O156 C154 1.247 . S
O156 Zn157 2.028 . S
Zn157 O156 2.028 . S
Zn157 O161 2.035 . S
Zn157 O163 2.035 . S
Zn157 O164 2.028 . S
O158 C154 1.258 . S
O158 Zn159 2.035 . S
Zn159 O158 2.035 . S
Zn159 O160 2.028 . S
Zn159 O162 2.028 . S
Zn159 O165 2.035 . S
O160 Zn159 2.028 . S
O160 C166 1.247 . S
O161 Zn157 2.035 . S
O161 C166 1.258 . S
O162 C155 1.247 . S
O162 Zn159 2.028 . S
O163 C155 1.258 . S
O163 Zn157 2.035 . S
O164 Zn157 2.028 . S
O164 C167 1.247 . S
O165 Zn159 2.035 . S
O165 C167 1.258 . S
C166 O160 1.247 . S
C166 O161 1.258 . S
C167 O164 1.247 . S
C167 O165 1.258 . S
C168 O170 1.247 . S
C168 O172 1.258 . S
C169 O176 1.247 . S
C169 O177 1.258 . S
O170 C168 1.247 . S
O170 Zn171 2.028 . S
Zn171 O170 2.028 . S
Zn171 O175 2.035 . S
Zn171 O177 2.035 . S
Zn171 O178 2.028 . S
O172 C168 1.258 . S
O172 Zn173 2.035 . S
Zn173 O172 2.035 . S
Zn173 O174 2.028 . S
Zn173 O176 2.028 . S
Zn173 O179 2.035 . S
O174 Zn173 2.028 . S
O174 C180 1.247 . S
O175 Zn171 2.035 . S
O175 C180 1.258 . S
O176 C169 1.247 . S
O176 Zn173 2.028 . S
O177 C169 1.258 . S
O177 Zn171 2.035 . S
O178 Zn171 2.028 . S
O178 C181 1.247 . S
O179 Zn173 2.035 . S
O179 C181 1.258 . S
C180 O174 1.247 . S
C180 O175 1.258 . S
C181 O178 1.247 . S
C181 O179 1.258 . S
C182 O184 1.247 . S
C182 O186 1.258 . S
C183 O190 1.247 . S
C183 O191 1.258 . S
O184 C182 1.247 . S
O184 Zn185 2.028 . S
Zn185 O184 2.028 . S
Zn185 O189 2.035 . S
Zn185 O191 2.035 . S
Zn185 O192 2.028 . S
O186 C182 1.258 . S
O186 Zn187 2.035 . S
Zn187 O186 2.035 . S
Zn187 O188 2.028 . S
Zn187 O190 2.028 . S
Zn187 O193 2.035 . S
O188 Zn187 2.028 . S
O188 C194 1.247 . S
O189 Zn185 2.035 . S
O189 C194 1.258 . S
O190 C183 1.247 . S
O190 Zn187 2.028 . S
O191 C183 1.258 . S
O191 Zn185 2.035 . S
O192 Zn185 2.028 . S
O192 C195 1.247 . S
O193 Zn187 2.035 . S
O193 C195 1.258 . S
C194 O188 1.247 . S
C194 O189 1.258 . S
C195 O192 1.247 . S
C195 O193 1.258 . S
C196 O198 1.247 . S
C196 O200 1.258 . S
C197 O204 1.247 . S
C197 O205 1.258 . S
O198 C196 1.247 . S
O198 Zn199 2.028 . S
Zn199 O198 2.028 . S
Zn199 O203 2.035 . S
Zn199 O205 2.035 . S
Zn199 O206 2.028 . S
O200 C196 1.258 . S
O200 Zn201 2.035 . S
Zn201 O200 2.035 . S
Zn201 O202 2.028 . S
Zn201 O204 2.028 . S
Zn201 O207 2.035 . S
O202 Zn201 2.028 . S
O202 C208 1.247 . S
O203 Zn199 2.035 . S
O203 C208 1.258 . S
O204 C197 1.247 . S
O204 Zn201 2.028 . S
O205 C197 1.258 . S
O205 Zn199 2.035 . S
O206 Zn199 2.028 . S
O206 C209 1.247 . S
O207 Zn201 2.035 . S
O207 C209 1.258 . S
C208 O202 1.247 . S
C208 O203 1.258 . S
C209 O206 1.247 . S
C209 O207 1.258 . S
C210 O212 1.247 . S
C210 O214 1.258 . S
C211 O218 1.247 . S
C211 O219 1.258 . S
O212 C210 1.247 . S
O212 Zn213 2.028 . S
Zn213 O212 2.028 . S
Zn213 O217 2.035 . S
Zn213 O219 2.035 . S
Zn213 O220 2.028 . S
O214 C210 1.258 . S
O214 Zn215 2.035 . S
Zn215 O214 2.035 . S
Zn215 O216 2.028 . S
Zn215 O218 2.028 . S
Zn215 O221 2.035 . S
O216 Zn215 2.028 . S
O216 C222 1.247 . S
O217 Zn213 2.035 . S
O217 C222 1.258 . S
O218 C211 1.247 . S
O218 Zn215 2.028 . S
O219 C211 1.258 . S
O219 Zn213 2.035 . S
O220 Zn213 2.028 . S
O220 C223 1.247 . S
O221 Zn215 2.035 . S
O221 C223 1.258 . S
C222 O216 1.247 . S
C222 O217 1.258 . S
C223 O220 1.247 . S
C223 O221 1.258 . S
H224 C232 0.950 . S
H225 C237 0.950 . S
H226 C234 0.950 . S
H227 C236 0.950 . S
H228 C238 0.950 . S
H229 C240 0.950 . S
H230 C242 0.950 . S
H231 C243 0.950 . S
C232 H224 0.950 . S
C232 C233 1.386 . S
C232 C234 1.391 . S
C233 C232 1.386 . S
C233 C237 1.393 . S
C234 H226 0.950 . S
C234 C232 1.391 . S
C234 C235 1.400 . S
C235 C234 1.400 . S
C235 C236 1.398 . S
C235 C241 1.491 . S
C236 H227 0.950 . S
C236 C235 1.398 . S
C236 C237 1.391 . S
C237 H225 0.950 . S
C237 C233 1.393 . S
C237 C236 1.391 . S
C238 H228 0.950 . S
C238 C239 1.386 . S
C238 C240 1.391 . S
C239 C238 1.386 . S
C239 C243 1.393 . S
C240 H229 0.950 . S
C240 C238 1.391 . S
C240 C241 1.400 . S
C241 C235 1.491 . S
C241 C240 1.400 . S
C241 C242 1.398 . S
C242 H230 0.950 . S
C242 C241 1.398 . S
C242 C243 1.391 . S
C243 H231 0.950 . S
C243 C239 1.393 . S
C243 C242 1.391 . S
H244 C252 0.950 . S
H245 C257 0.950 . S
H246 C254 0.950 . S
H247 C256 0.950 . S
H248 C258 0.950 . S
H249 C260 0.950 . S
H250 C262 0.950 . S
H251 C263 0.950 . S
C252 H244 0.950 . S
C252 C253 1.386 . S
C252 C254 1.391 . S
C253 C252 1.386 . S
C253 C257 1.393 . S
C254 H246 0.950 . S
C254 C252 1.391 . S
C254 C255 1.400 . S
C255 C254 1.400 . S
C255 C256 1.398 . S
C255 C261 1.491 . S
C256 H247 0.950 . S
C256 C255 1.398 . S
C256 C257 1.391 . S
C257 H245 0.950 . S
C257 C253 1.393 . S
C257 C256 1.391 . S
C258 H248 0.950 . S
C258 C259 1.386 . S
C258 C260 1.391 . S
C259 C258 1.386 . S
C259 C263 1.393 . S
C260 H249 0.950 . S
C260 C258 1.391 . S
C260 C261 1.400 . S
C261 C255 1.491 . S
C261 C260 1.400 . S
C261 C262 1.398 . S
C262 H250 0.950 . S
C262 C261 1.398 . S
C262 C263 1.391 . S
C263 H251 0.950 . S
C263 C259 1.393 . S
C263 C262 1.391 . S
H264 C272 0.950 . S
H265 C277 0.950 . S
H266 C274 0.950 . S
H267 C276 0.950 . S
H268 C278 0.950 . S
H269 C280 0.950 . S
H270 C282 0.950 . S
H271 C283 0.950 . S
C272 H264 0.950 . S
C272 C273 1.386 . S
C272 C274 1.391 . S
C273 C272 1.386 . S
C273 C277 1.393 . S
C274 H266 0.950 . S
C274 C272 1.391 . S
C274 C275 1.400 . S
C275 C274 1.400 . S
C275 C276 1.398 . S
C275 C281 1.491 . S
C276 H267 0.950 . S
C276 C275 1.398 . S
C276 C277 1.391 . S
C277 H265 0.950 . S
C277 C273 1.393 . S
C277 C276 1.391 . S
C278 H268 0.950 . S
C278 C279 1.386 . S
C278 C280 1.391 . S
C279 C278 1.386 . S
C279 C283 1.393 . S
C280 H269 0.950 . S
C280 C278 1.391 . S
C280 C281 1.400 . S
C281 C275 1.491 . S
C281 C280 1.400 . S
C281 C282 1.398 . S
C282 H270 0.950 . S
C282 C281 1.398 . S
C282 C283 1.391 . S
C283 H271 0.950 . S
C283 C279 1.393 . S
C283 C282 1.391 . S
H284 C292 0.950 . S
H285 C297 0.950 . S
H286 C294 0.950 . S
H287 C296 0.950 . S
H288 C298 0.950 . S
H289 C300 0.950 . S
H290 C302 0.950 . S
H291 C303 0.950 . S
C292 H284 0.950 . S
C292 C293 1.386 . S
C292 C294 1.391 . S
C293 C292 1.386 . S
C293 C297 1.393 . S
C294 H286 0.950 . S
C294 C292 1.391 . S
C294 C295 1.400 . S
C295 C294 1.400 . S
C295 C296 1.398 . S
C295 C301 1.491 . S
C296 H287 0.950 . S
C296 C295 1.398 . S
C296 C297 1.391 . S
C297 H285 0.950 . S
C297 C293 1.393 . S
C297 C296 1.391 . S
C298 H288 0.950 . S
C298 C299 1.386 . S
C298 C300 1.391 . S
C299 C298 1.386 . S
C299 C303 1.393 . S
C300 H289 0.950 . S
C300 C298 1.391 . S
C300 C301 1.400 . S
C301 C295 1.491 . S
C301 C300 1.400 . S
C301 C302 1.398 . S
C302 H290 0.950 . S
C302 C301 1.398 . S
C302 C303 1.391 . S
C303 H291 0.950 . S
C303 C299 1.393 . S
C303 C302 1.391 . S
H304 C312 0.950 1_565 S
H305 C317 0.950 . S
H306 C314 0.950 1_556 S
H307 C316 0.950 . S
H308 C318 0.950 . S
H309 C320 0.950 . S
H310 C322 0.950 . S
H311 C323 0.950 . S
C312 H304 0.950 1_545 S
C312 C313 1.386 . S
C312 C314 1.391 . S
C313 C312 1.386 . S
C313 C317 1.393 . S
C314 H306 0.950 1_554 S
C314 C312 1.391 . S
C314 C315 1.400 1_554 S
C315 C314 1.400 1_556 S
C315 C316 1.398 1_556 S
C315 C321 1.491 . S
C316 H307 0.950 . S
C316 C315 1.398 1_554 S
C316 C317 1.391 . S
C317 H305 0.950 . S
C317 C313 1.393 . S
C317 C316 1.391 . S
C318 H308 0.950 . S
C318 C319 1.386 . S
C318 C320 1.391 . S
C319 C318 1.386 . S
C319 C323 1.393 . S
C320 H309 0.950 . S
C320 C318 1.391 . S
C320 C321 1.400 . S
C321 C315 1.491 . S
C321 C320 1.400 . S
C321 C322 1.398 . S
C322 H310 0.950 . S
C322 C321 1.398 . S
C322 C323 1.391 . S
C323 H311 0.950 . S
C323 C319 1.393 . S
C323 C322 1.391 . S
H324 C332 0.950 . S
H325 C337 0.950 . S
H326 C334 0.950 . S
H327 C336 0.950 . S
H328 C338 0.950 1_655 S
H329 C340 0.936 1_554 S
H330 C342 0.950 . S
H331 C343 0.950 . S
C332 H324 0.950 . S
C332 C333 1.386 . S
C332 C334 1.391 . S
C333 C332 1.386 . S
C333 C337 1.393 . S
C334 H326 0.950 . S
C334 C332 1.391 . S
C334 C335 1.400 . S
C335 C334 1.400 . S
C335 C336 1.398 . S
C335 C341 1.491 . S
C336 H327 0.950 . S
C336 C335 1.398 . S
C336 C337 1.391 . S
C337 H325 0.950 . S
C337 C333 1.393 . S
C337 C336 1.391 . S
C338 H328 0.950 1_455 S
C338 C339 1.386 . S
C338 C340 1.411 . S
C339 C338 1.386 . S
C339 C343 1.393 . S
C340 H329 0.936 1_556 S
C340 C338 1.411 . S
C340 C341 1.395 1_556 S
C341 C335 1.491 . S
C341 C340 1.395 1_554 S
C341 C342 1.398 1_554 S
C342 H330 0.950 . S
C342 C341 1.398 1_556 S
C342 C343 1.391 . S
C343 H331 0.950 . S
C343 C339 1.393 . S
C343 C342 1.391 . S
H344 C352 0.950 . S
H345 C357 0.950 . S
H346 C354 0.950 . S
H347 C356 0.950 . S
H348 C358 0.950 . S
H349 C360 0.950 . S
H350 C362 0.950 . S
H351 C363 0.939 1_545 S
C352 H344 0.950 . S
C352 C353 1.386 . S
C352 C354 1.391 . S
C353 C352 1.386 . S
C353 C357 1.393 . S
C354 H346 0.950 . S
C354 C352 1.391 . S
C354 C355 1.400 . S
C355 C354 1.400 . S
C355 C356 1.398 . S
C355 C361 1.491 . S
C356 H347 0.950 . S
C356 C355 1.398 . S
C356 C357 1.391 . S
C357 H345 0.950 . S
C357 C353 1.393 . S
C357 C356 1.391 . S
C358 H348 0.950 . S
C358 C359 1.386 . S
C358 C360 1.391 1_554 S
C359 C358 1.386 . S
C359 C363 1.393 . S
C360 H349 0.950 . S
C360 C358 1.391 1_556 S
C360 C361 1.400 . S
C361 C355 1.491 . S
C361 C360 1.400 . S
C361 C362 1.398 1_556 S
C362 H350 0.950 . S
C362 C361 1.398 1_554 S
C362 C363 1.391 . S
C363 H351 0.939 1_565 S
C363 C359 1.393 . S
C363 C362 1.391 . S
H364 C372 0.950 . S
H365 C377 0.950 . S
H366 C374 0.950 . S
H367 C376 0.950 1_556 S
H368 C378 0.950 . S
H369 C380 0.950 . S
H370 C382 0.950 . S
H371 C383 0.922 1_454 S
C372 H364 0.950 . S
C372 C373 1.386 . S
C372 C374 1.391 . S
C373 C372 1.386 . S
C373 C377 1.393 . S
C374 H366 0.950 . S
C374 C372 1.391 . S
C374 C375 1.400 . S
C375 C374 1.400 . S
C375 C376 1.398 . S
C375 C381 1.491 . S
C376 H367 0.950 1_554 S
C376 C375 1.398 . S
C376 C377 1.391 . S
C377 H365 0.950 . S
C377 C373 1.393 . S
C377 C376 1.391 . S
C378 H368 0.950 . S
C378 C379 1.386 . S
C378 C380 1.391 . S
C379 C378 1.386 . S
C379 C383 1.400 . S
C380 H369 0.950 . S
C380 C378 1.391 . S
C380 C381 1.400 1_556 S
C381 C375 1.491 . S
C381 C380 1.400 1_554 S
C381 C382 1.398 . S
C382 H370 0.950 . S
C382 C381 1.398 . S
C382 C383 1.412 1_554 S
C383 H371 0.922 1_656 S
C383 C379 1.400 . S
C383 C382 1.412 1_556 S
H384 C392 0.950 . S
H385 C397 0.950 . S
H386 C394 0.950 . S
H387 C396 0.950 . S
H388 C398 0.950 . S
H389 C400 0.950 . S
H390 C402 0.950 . S
H391 C403 0.950 1_545 S
C392 H384 0.950 . S
C392 C393 1.386 . S
C392 C394 1.391 . S
C393 C392 1.386 . S
C393 C397 1.393 . S
C394 H386 0.950 . S
C394 C392 1.391 . S
C394 C395 1.400 . S
C395 C394 1.400 . S
C395 C396 1.398 . S
C395 C401 1.491 . S
C396 H387 0.950 . S
C396 C395 1.398 . S
C396 C397 1.391 . S
C397 H385 0.950 . S
C397 C393 1.393 . S
C397 C396 1.391 . S
C398 H388 0.950 . S
C398 C399 1.386 . S
C398 C400 1.391 . S
C399 C398 1.386 . S
C399 C403 1.393 . S
C400 H389 0.950 . S
C400 C398 1.391 . S
C400 C401 1.400 . S
C401 C395 1.491 . S
C401 C400 1.400 . S
C401 C402 1.398 . S
C402 H390 0.950 . S
C402 C401 1.398 . S
C402 C403 1.391 . S
C403 H391 0.950 1_565 S
C403 C399 1.393 . S
C403 C402 1.391 . S
H404 C412 0.950 . S
H405 C417 0.950 . S
H406 C414 0.950 . S
H407 C416 0.950 . S
H408 C418 0.950 . S
H409 C420 0.950 . S
H410 C422 0.950 . S
H411 C423 0.950 . S
C412 H404 0.950 . S
C412 C413 1.386 . S
C412 C414 1.391 . S
C413 C412 1.386 . S
C413 C417 1.393 . S
C414 H406 0.950 . S
C414 C412 1.391 . S
C414 C415 1.400 . S
C415 C414 1.400 . S
C415 C416 1.398 . S
C415 C421 1.491 . S
C416 H407 0.950 . S
C416 C415 1.398 . S
C416 C417 1.391 . S
C417 H405 0.950 . S
C417 C413 1.393 . S
C417 C416 1.391 . S
C418 H408 0.950 . S
C418 C419 1.386 . S
C418 C420 1.391 . S
C419 C418 1.386 . S
C419 C423 1.393 . S
C420 H409 0.950 . S
C420 C418 1.391 . S
C420 C421 1.400 . S
C421 C415 1.491 . S
C421 C420 1.400 . S
C421 C422 1.398 . S
C422 H410 0.950 . S
C422 C421 1.398 . S
C422 C423 1.391 . S
C423 H411 0.950 . S
C423 C419 1.393 . S
C423 C422 1.391 . S
H424 C432 0.950 1_565 S
H425 C437 0.950 . S
H426 C434 0.950 . S
H427 C436 0.950 . S
H428 C438 0.950 . S
H429 C440 0.950 . S
H430 C442 0.950 . S
H431 C443 0.950 . S
C432 H424 0.950 1_545 S
C432 C433 1.386 . S
C432 C434 1.391 . S
C433 C432 1.386 . S
C433 C437 1.393 . S
C434 H426 0.950 . S
C434 C432 1.391 . S
C434 C435 1.400 . S
C435 C434 1.400 . S
C435 C436 1.398 . S
C435 C441 1.491 . S
C436 H427 0.950 . S
C436 C435 1.398 . S
C436 C437 1.391 . S
C437 H425 0.950 . S
C437 C433 1.393 . S
C437 C436 1.391 . S
C438 H428 0.950 . S
C438 C439 1.386 . S
C438 C440 1.391 . S
C439 C438 1.386 . S
C439 C443 1.393 . S
C440 H429 0.950 . S
C440 C438 1.391 . S
C440 C441 1.400 . S
C441 C435 1.491 . S
C441 C440 1.400 . S
C441 C442 1.398 . S
C442 H430 0.950 . S
C442 C441 1.398 . S
C442 C443 1.391 . S
C443 H431 0.950 . S
C443 C439 1.393 . S
C443 C442 1.391 . S
H444 C452 0.950 1_655 S
H445 C457 0.950 . S
H446 C454 0.950 . S
H447 C456 0.950 . S
H448 C458 0.950 . S
H449 C460 0.950 . S
H450 C462 0.950 . S
H451 C463 0.950 . S
C452 H444 0.950 1_455 S
C452 C453 1.386 . S
C452 C454 1.391 . S
C453 C452 1.386 . S
C453 C457 1.393 . S
C454 H446 0.950 . S
C454 C452 1.391 . S
C454 C455 1.400 . S
C455 C454 1.400 . S
C455 C456 1.398 . S
C455 C461 1.491 . S
C456 H447 0.950 . S
C456 C455 1.398 . S
C456 C457 1.391 . S
C457 H445 0.950 . S
C457 C453 1.393 . S
C457 C456 1.391 . S
C458 H448 0.950 . S
C458 C459 1.386 . S
C458 C460 1.391 . S
C459 C458 1.386 . S
C459 C463 1.393 . S
C460 H449 0.950 . S
C460 C458 1.391 . S
C460 C461 1.400 . S
C461 C455 1.491 . S
C461 C460 1.400 . S
C461 C462 1.398 . S
C462 H450 0.950 . S
C462 C461 1.398 . S
C462 C463 1.391 . S
C463 H451 0.950 . S
C463 C459 1.393 . S
C463 C462 1.391 . S
H464 C472 0.950 . S
H465 C477 0.950 . S
H466 C474 0.950 . S
H467 C476 0.950 . S
H468 C478 0.950 . S
H469 C480 0.950 . S
H470 C482 0.950 . S
H471 C483 0.950 . S
C472 H464 0.950 . S
C472 C473 1.386 . S
C472 C474 1.391 . S
C473 C472 1.386 . S
C473 C477 1.393 . S
C474 H466 0.950 . S
C474 C472 1.391 . S
C474 C475 1.400 . S
C475 C474 1.400 . S
C475 C476 1.398 . S
C475 C481 1.491 . S
C476 H467 0.950 . S
C476 C475 1.398 . S
C476 C477 1.391 . S
C477 H465 0.950 . S
C477 C473 1.393 . S
C477 C476 1.391 . S
C478 H468 0.950 . S
C478 C479 1.386 . S
C478 C480 1.391 . S
C479 C478 1.386 . S
C479 C483 1.393 . S
C480 H469 0.950 . S
C480 C478 1.391 . S
C480 C481 1.400 . S
C481 C475 1.491 . S
C481 C480 1.400 . S
C481 C482 1.398 . S
C482 H470 0.950 . S
C482 C481 1.398 . S
C482 C483 1.391 . S
C483 H471 0.950 . S
C483 C479 1.393 . S
C483 C482 1.391 . S
H484 C492 0.950 . S
H485 C497 0.950 . S
H486 C494 0.950 . S
H487 C496 0.950 . S
H488 C498 0.950 . S
H489 C500 0.950 . S
H490 C502 0.950 . S
H491 C503 0.950 . S
C492 H484 0.950 . S
C492 C493 1.386 . S
C492 C494 1.391 . S
C493 C492 1.386 . S
C493 C497 1.393 . S
C494 H486 0.950 . S
C494 C492 1.391 . S
C494 C495 1.400 . S
C495 C494 1.400 . S
C495 C496 1.398 . S
C495 C501 1.491 . S
C496 H487 0.950 . S
C496 C495 1.398 . S
C496 C497 1.391 . S
C497 H485 0.950 . S
C497 C493 1.393 . S
C497 C496 1.391 . S
C498 H488 0.950 . S
C498 C499 1.386 . S
C498 C500 1.391 . S
C499 C498 1.386 . S
C499 C503 1.393 . S
C500 H489 0.950 . S
C500 C498 1.391 . S
C500 C501 1.400 . S
C501 C495 1.491 . S
C501 C500 1.400 . S
C501 C502 1.398 . S
C502 H490 0.950 . S
C502 C501 1.398 . S
C502 C503 1.391 . S
C503 H491 0.950 . S
C503 C499 1.393 . S
C503 C502 1.391 . S
H504 C512 0.950 . S
H505 C517 0.950 . S
H506 C514 0.950 . S
H507 C516 0.950 . S
H508 C518 0.950 . S
H509 C520 0.950 . S
H510 C522 0.950 . S
H511 C523 0.950 . S
C512 H504 0.950 . S
C512 C513 1.386 . S
C512 C514 1.391 . S
C513 C512 1.386 . S
C513 C517 1.393 . S
C514 H506 0.950 . S
C514 C512 1.391 . S
C514 C515 1.400 . S
C515 C514 1.400 . S
C515 C516 1.398 . S
C515 C521 1.491 . S
C516 H507 0.950 . S
C516 C515 1.398 . S
C516 C517 1.391 . S
C517 H505 0.950 . S
C517 C513 1.393 . S
C517 C516 1.391 . S
C518 H508 0.950 . S
C518 C519 1.386 . S
C518 C520 1.391 . S
C519 C518 1.386 . S
C519 C523 1.393 . S
C520 H509 0.950 . S
C520 C518 1.391 . S
C520 C521 1.400 . S
C521 C515 1.491 . S
C521 C520 1.400 . S
C521 C522 1.398 . S
C522 H510 0.950 . S
C522 C521 1.398 . S
C522 C523 1.391 . S
C523 H511 0.950 . S
C523 C519 1.393 . S
C523 C522 1.391 . S
H524 C532 0.950 . S
H525 C537 0.950 . S
H526 C534 0.950 . S
H527 C536 0.950 . S
H528 C538 0.950 . S
H529 C540 0.950 . S
H530 C542 0.950 . S
H531 C543 0.950 . S
C532 H524 0.950 . S
C532 C533 1.386 . S
C532 C534 1.391 . S
C533 C532 1.386 . S
C533 C537 1.393 . S
C534 H526 0.950 . S
C534 C532 1.391 . S
C534 C535 1.400 . S
C535 C534 1.400 . S
C535 C536 1.398 . S
C535 C541 1.491 . S
C536 H527 0.950 . S
C536 C535 1.398 . S
C536 C537 1.391 . S
C537 H525 0.950 . S
C537 C533 1.393 . S
C537 C536 1.391 . S
C538 H528 0.950 . S
C538 C539 1.386 . S
C538 C540 1.391 . S
C539 C538 1.386 . S
C539 C543 1.393 . S
C540 H529 0.950 . S
C540 C538 1.391 . S
C540 C541 1.400 . S
C541 C535 1.491 . S
C541 C540 1.400 . S
C541 C542 1.398 . S
C542 H530 0.950 . S
C542 C541 1.398 . S
C542 C543 1.391 . S
C543 H531 0.950 . S
C543 C539 1.393 . S
C543 C542 1.391 . S
H544 C552 0.950 . S
H545 C557 0.950 . S
H546 C554 0.950 . S
H547 C556 0.950 . S
H548 C558 0.950 . S
H549 C560 0.950 . S
H550 C562 0.950 . S
H551 C563 0.950 . S
C552 H544 0.950 . S
C552 C553 1.386 . S
C552 C554 1.391 . S
C553 C552 1.386 . S
C553 C557 1.393 . S
C554 H546 0.950 . S
C554 C552 1.391 . S
C554 C555 1.400 . S
C555 C554 1.400 . S
C555 C556 1.398 . S
C555 C561 1.491 . S
C556 H547 0.950 . S
C556 C555 1.398 . S
C556 C557 1.391 . S
C557 H545 0.950 . S
C557 C553 1.393 . S
C557 C556 1.391 . S
C558 H548 0.950 . S
C558 C559 1.386 . S
C558 C560 1.391 . S
C559 C558 1.386 . S
C559 C563 1.393 . S
C560 H549 0.950 . S
C560 C558 1.391 . S
C560 C561 1.400 . S
C561 C555 1.491 . S
C561 C560 1.400 . S
C561 C562 1.398 . S
C562 H550 0.950 . S
C562 C561 1.398 . S
C562 C563 1.391 . S
C563 H551 0.950 . S
C563 C559 1.393 . S
C563 C562 1.391 . S
H564 C572 0.950 . S
H565 C577 0.950 . S
H566 C574 0.950 . S
H567 C576 0.950 . S
H568 C578 0.950 . S
H569 C580 0.950 . S
H570 C582 0.950 . S
H571 C583 0.950 . S
C572 H564 0.950 . S
C572 C573 1.386 . S
C572 C574 1.391 . S
C573 C572 1.386 . S
C573 C577 1.393 . S
C574 H566 0.950 . S
C574 C572 1.391 . S
C574 C575 1.400 . S
C575 C574 1.400 . S
C575 C576 1.398 . S
C575 C581 1.491 . S
C576 H567 0.950 . S
C576 C575 1.398 . S
C576 C577 1.391 . S
C577 H565 0.950 . S
C577 C573 1.393 . S
C577 C576 1.391 . S
C578 H568 0.950 . S
C578 C579 1.386 . S
C578 C580 1.391 . S
C579 C578 1.386 . S
C579 C583 1.393 . S
C580 H569 0.950 . S
C580 C578 1.391 . S
C580 C581 1.400 . S
C581 C575 1.491 . S
C581 C580 1.400 . S
C581 C582 1.398 . S
C582 H570 0.950 . S
C582 C581 1.398 . S
C582 C583 1.391 . S
C583 H571 0.950 . S
C583 C579 1.393 . S
C583 C582 1.391 . S
H584 C592 0.950 . S
H585 C597 0.950 . S
H586 C594 0.950 . S
H587 C596 0.950 . S
H588 C598 0.950 . S
H589 C600 0.950 . S
H590 C602 0.950 . S
H591 C603 0.950 . S
C592 H584 0.950 . S
C592 C593 1.386 . S
C592 C594 1.391 . S
C593 C592 1.386 . S
C593 C597 1.393 . S
C594 H586 0.950 . S
C594 C592 1.391 . S
C594 C595 1.400 . S
C595 C594 1.400 . S
C595 C596 1.398 . S
C595 C601 1.491 . S
C596 H587 0.950 . S
C596 C595 1.398 . S
C596 C597 1.391 . S
C597 H585 0.950 . S
C597 C593 1.393 . S
C597 C596 1.391 . S
C598 H588 0.950 . S
C598 C599 1.386 . S
C598 C600 1.391 . S
C599 C598 1.386 . S
C599 C603 1.393 . S
C600 H589 0.950 . S
C600 C598 1.391 . S
C600 C601 1.400 . S
C601 C595 1.491 . S
C601 C600 1.400 . S
C601 C602 1.398 . S
C602 H590 0.950 . S
C602 C601 1.398 . S
C602 C603 1.391 . S
C603 H591 0.950 . S
C603 C599 1.393 . S
C603 C602 1.391 . S
H604 C612 0.950 . S
H605 C617 0.950 . S
H606 C614 0.950 . S
H607 C616 0.950 . S
H608 C618 0.950 . S
H609 C620 0.950 . S
H610 C622 0.950 . S
H611 C623 0.950 . S
C612 H604 0.950 . S
C612 C613 1.386 . S
C612 C614 1.391 . S
C613 C612 1.386 . S
C613 C617 1.393 . S
C614 H606 0.950 . S
C614 C612 1.391 . S
C614 C615 1.400 . S
C615 C614 1.400 . S
C615 C616 1.398 . S
C615 C621 1.491 . S
C616 H607 0.950 . S
C616 C615 1.398 . S
C616 C617 1.391 . S
C617 H605 0.950 . S
C617 C613 1.393 . S
C617 C616 1.391 . S
C618 H608 0.950 . S
C618 C619 1.386 . S
C618 C620 1.391 . S
C619 C618 1.386 . S
C619 C623 1.393 . S
C620 H609 0.950 . S
C620 C618 1.391 . S
C620 C621 1.400 . S
C621 C615 1.491 . S
C621 C620 1.400 . S
C621 C622 1.398 . S
C622 H610 0.950 . S
C622 C621 1.398 . S
C622 C623 1.391 . S
C623 H611 0.950 . S
C623 C619 1.393 . S
C623 C622 1.391 . S
H624 C632 0.950 . S
H625 C637 0.950 . S
H626 C634 0.950 . S
H627 C636 0.950 . S
H628 C638 0.950 . S
H629 C640 0.950 . S
H630 C642 0.950 . S
H631 C643 0.950 . S
C632 H624 0.950 . S
C632 C633 1.386 . S
C632 C634 1.391 . S
C633 C632 1.386 . S
C633 C637 1.393 . S
C634 H626 0.950 . S
C634 C632 1.391 . S
C634 C635 1.400 . S
C635 C634 1.400 . S
C635 C636 1.398 . S
C635 C641 1.491 . S
C636 H627 0.950 . S
C636 C635 1.398 . S
C636 C637 1.391 . S
C637 H625 0.950 . S
C637 C633 1.393 . S
C637 C636 1.391 . S
C638 H628 0.950 . S
C638 C639 1.386 . S
C638 C640 1.391 . S
C639 C638 1.386 . S
C639 C643 1.393 . S
C640 H629 0.950 . S
C640 C638 1.391 . S
C640 C641 1.400 . S
C641 C635 1.491 . S
C641 C640 1.400 . S
C641 C642 1.398 . S
C642 H630 0.950 . S
C642 C641 1.398 . S
C642 C643 1.391 . S
C643 H631 0.950 . S
C643 C639 1.393 . S
C643 C642 1.391 . S
H644 C652 0.950 . S
H645 C657 0.950 . S
H646 C654 0.950 . S
H647 C656 0.950 . S
H648 C658 0.950 . S
H649 C660 0.950 . S
H650 C662 0.950 . S
H651 C663 0.950 . S
C652 H644 0.950 . S
C652 C653 1.386 . S
C652 C654 1.391 . S
C653 C652 1.386 . S
C653 C657 1.393 . S
C654 H646 0.950 . S
C654 C652 1.391 . S
C654 C655 1.400 . S
C655 C654 1.400 . S
C655 C656 1.398 . S
C655 C661 1.491 . S
C656 H647 0.950 . S
C656 C655 1.398 . S
C656 C657 1.391 . S
C657 H645 0.950 . S
C657 C653 1.393 . S
C657 C656 1.391 . S
C658 H648 0.950 . S
C658 C659 1.386 . S
C658 C660 1.391 . S
C659 C658 1.386 . S
C659 C663 1.393 . S
C660 H649 0.950 . S
C660 C658 1.391 . S
C660 C661 1.400 . S
C661 C655 1.491 . S
C661 C660 1.400 . S
C661 C662 1.398 . S
C662 H650 0.950 . S
C662 C661 1.398 . S
C662 C663 1.391 . S
C663 H651 0.950 . S
C663 C659 1.393 . S
C663 C662 1.391 . S
H664 C672 0.950 . S
H665 C677 0.950 . S
H666 C674 0.950 . S
H667 C676 0.950 . S
H668 C678 0.950 . S
H669 C680 0.950 . S
H670 C682 0.950 . S
H671 C683 0.950 . S
C672 H664 0.950 . S
C672 C673 1.386 . S
C672 C674 1.391 . S
C673 C672 1.386 . S
C673 C677 1.393 . S
C674 H666 0.950 . S
C674 C672 1.391 . S
C674 C675 1.400 . S
C675 C674 1.400 . S
C675 C676 1.398 . S
C675 C681 1.491 . S
C676 H667 0.950 . S
C676 C675 1.398 . S
C676 C677 1.391 . S
C677 H665 0.950 . S
C677 C673 1.393 . S
C677 C676 1.391 . S
C678 H668 0.950 . S
C678 C679 1.386 . S
C678 C680 1.391 . S
C679 C678 1.386 . S
C679 C683 1.393 . S
C680 H669 0.950 . S
C680 C678 1.391 . S
C680 C681 1.400 . S
C681 C675 1.491 . S
C681 C680 1.400 . S
C681 C682 1.398 . S
C682 H670 0.950 . S
C682 C681 1.398 . S
C682 C683 1.391 . S
C683 H671 0.950 . S
C683 C679 1.393 . S
C683 C682 1.391 . S
H684 C692 0.950 . S
H685 C697 0.950 . S
H686 C694 0.950 . S
H687 C696 0.950 . S
H688 C698 0.950 . S
H689 C700 0.950 . S
H690 C702 0.950 . S
H691 C703 0.950 . S
C692 H684 0.950 . S
C692 C693 1.386 . S
C692 C694 1.391 . S
C693 C692 1.386 . S
C693 C697 1.393 . S
C694 H686 0.950 . S
C694 C692 1.391 . S
C694 C695 1.400 . S
C695 C694 1.400 . S
C695 C696 1.398 . S
C695 C701 1.491 . S
C696 H687 0.950 . S
C696 C695 1.398 . S
C696 C697 1.391 . S
C697 H685 0.950 . S
C697 C693 1.393 . S
C697 C696 1.391 . S
C698 H688 0.950 . S
C698 C699 1.386 . S
C698 C700 1.391 . S
C699 C698 1.386 . S
C699 C703 1.393 . S
C700 H689 0.950 . S
C700 C698 1.391 . S
C700 C701 1.400 . S
C701 C695 1.491 . S
C701 C700 1.400 . S
C701 C702 1.398 . S
C702 H690 0.950 . S
C702 C701 1.398 . S
C702 C703 1.391 . S
C703 H691 0.950 . S
C703 C699 1.393 . S
C703 C702 1.391 . S
H704 C712 0.950 . S
H705 C717 0.950 . S
H706 C714 0.950 . S
H707 C716 0.950 . S
H708 C718 0.950 . S
H709 C720 0.950 . S
H710 C722 0.950 . S
H711 C723 0.950 . S
C712 H704 0.950 . S
C712 C713 1.386 . S
C712 C714 1.391 . S
C713 C712 1.386 . S
C713 C717 1.393 . S
C714 H706 0.950 . S
C714 C712 1.391 . S
C714 C715 1.400 . S
C715 C714 1.400 . S
C715 C716 1.398 . S
C715 C721 1.491 1_665 S
C716 H707 0.950 . S
C716 C715 1.398 . S
C716 C717 1.391 . S
C717 H705 0.950 . S
C717 C713 1.393 . S
C717 C716 1.391 . S
C718 H708 0.950 . S
C718 C719 1.386 . S
C718 C720 1.391 . S
C719 C718 1.386 . S
C719 C723 1.393 . S
C720 H709 0.950 . S
C720 C718 1.391 . S
C720 C721 1.400 . S
C721 C715 1.491 1_445 S
C721 C720 1.400 . S
C721 C722 1.398 . S
C722 H710 0.950 . S
C722 C721 1.398 . S
C722 C723 1.391 . S
C723 H711 0.950 . S
C723 C719 1.393 . S
C723 C722 1.391 . S
H724 C732 0.950 . S
H725 C737 0.950 . S
H726 C734 0.950 . S
H727 C736 0.951 . S
H728 C738 0.950 . S
H729 C740 0.950 . S
H730 C742 0.951 . S
H731 C743 0.950 . S
C732 H724 0.950 . S
C732 C733 1.386 . S
C732 C734 1.391 . S
C733 C732 1.386 . S
C733 C737 1.393 . S
C734 H726 0.950 . S
C734 C732 1.391 . S
C734 C735 1.400 . S
C735 C734 1.400 . S
C735 C736 1.398 1_545 S
C735 C741 1.491 1_645 S
C736 H727 0.951 . S
C736 C735 1.398 1_565 S
C736 C737 1.390 1_565 S
C737 H725 0.950 . S
C737 C733 1.393 . S
C737 C736 1.390 1_545 S
C738 H728 0.950 . S
C738 C739 1.386 . S
C738 C740 1.391 . S
C739 C738 1.386 . S
C739 C743 1.393 . S
C740 H729 0.950 . S
C740 C738 1.391 . S
C740 C741 1.400 . S
C741 C735 1.491 1_465 S
C741 C740 1.400 . S
C741 C742 1.398 1_565 S
C742 H730 0.951 . S
C742 C741 1.398 1_545 S
C742 C743 1.390 1_545 S
C743 H731 0.950 . S
C743 C739 1.393 . S
C743 C742 1.390 1_565 S
H744 C752 0.950 . S
H745 C757 0.950 1_655 S
H746 C754 0.950 . S
H747 C756 0.950 . S
H748 C758 0.950 . S
H749 C760 0.950 . S
H750 C762 0.950 . S
H751 C763 0.950 1_455 S
C752 H744 0.950 . S
C752 C753 1.386 . S
C752 C754 1.391 . S
C753 C752 1.386 . S
C753 C757 1.393 . S
C754 H746 0.950 . S
C754 C752 1.391 . S
C754 C755 1.400 . S
C755 C754 1.400 . S
C755 C756 1.398 1_455 S
C755 C761 1.491 1_455 S
C756 H747 0.950 . S
C756 C755 1.398 1_655 S
C756 C757 1.391 1_655 S
C757 H745 0.950 1_455 S
C757 C753 1.393 . S
C757 C756 1.391 1_455 S
C758 H748 0.950 . S
C758 C759 1.386 . S
C758 C760 1.391 . S
C759 C758 1.386 . S
C759 C763 1.393 . S
C760 H749 0.950 . S
C760 C758 1.391 . S
C760 C761 1.400 . S
C761 C755 1.491 1_655 S
C761 C760 1.400 . S
C761 C762 1.398 1_655 S
C762 H750 0.950 . S
C762 C761 1.398 1_455 S
C762 C763 1.391 1_455 S
C763 H751 0.950 1_655 S
C763 C759 1.393 . S
C763 C762 1.391 1_655 S
H764 C772 0.950 . S
H765 C777 0.950 . S
H766 C774 0.950 1_545 S
H767 C776 0.950 . S
H768 C778 0.950 . S
H769 C780 0.950 1_565 S
H770 C782 0.950 . S
H771 C783 0.950 . S
C772 H764 0.950 . S
C772 C773 1.386 . S
C772 C774 1.391 . S
C773 C772 1.386 . S
C773 C777 1.393 . S
C774 H766 0.950 1_565 S
C774 C772 1.391 . S
C774 C775 1.400 . S
C775 C774 1.400 . S
C775 C776 1.398 . S
C775 C781 1.491 1_565 S
C776 H767 0.950 . S
C776 C775 1.398 . S
C776 C777 1.391 . S
C777 H765 0.950 . S
C777 C773 1.393 . S
C777 C776 1.391 . S
C778 H768 0.950 . S
C778 C779 1.386 . S
C778 C780 1.391 . S
C779 C778 1.386 . S
C779 C783 1.393 . S
C780 H769 0.950 1_545 S
C780 C778 1.391 . S
C780 C781 1.400 . S
C781 C775 1.491 1_545 S
C781 C780 1.400 . S
C781 C782 1.398 . S
C782 H770 0.950 . S
C782 C781 1.398 . S
C782 C783 1.391 . S
C783 H771 0.950 . S
C783 C779 1.393 . S
C783 C782 1.391 . S
H784 C792 0.950 . S
H785 C797 0.950 . S
H786 C794 0.950 . S
H787 C796 0.950 . S
H788 C798 0.950 . S
H789 C800 0.950 . S
H790 C802 0.950 . S
H791 C803 0.950 . S
C792 H784 0.950 . S
C792 C793 1.386 . S
C792 C794 1.391 . S
C793 C792 1.386 . S
C793 C797 1.393 . S
C794 H786 0.950 . S
C794 C792 1.391 . S
C794 C795 1.400 . S
C795 C794 1.400 . S
C795 C796 1.398 . S
C795 C801 1.491 . S
C796 H787 0.950 . S
C796 C795 1.398 . S
C796 C797 1.391 . S
C797 H785 0.950 . S
C797 C793 1.393 . S
C797 C796 1.391 . S
C798 H788 0.950 . S
C798 C799 1.386 . S
C798 C800 1.391 . S
C799 C798 1.386 . S
C799 C803 1.393 . S
C800 H789 0.950 . S
C800 C798 1.391 . S
C800 C801 1.400 . S
C801 C795 1.491 . S
C801 C800 1.400 . S
C801 C802 1.398 . S
C802 H790 0.950 . S
C802 C801 1.398 . S
C802 C803 1.391 . S
C803 H791 0.950 . S
C803 C799 1.393 . S
C803 C802 1.391 . S
H804 C812 0.950 . S
H805 C817 0.950 . S
H806 C814 0.950 . S
H807 C816 0.950 . S
H808 C818 0.950 . S
H809 C820 0.950 . S
H810 C822 0.950 . S
H811 C823 0.950 . S
C812 H804 0.950 . S
C812 C813 1.386 . S
C812 C814 1.391 . S
C813 C812 1.386 . S
C813 C817 1.393 . S
C814 H806 0.950 . S
C814 C812 1.391 . S
C814 C815 1.400 . S
C815 C814 1.400 . S
C815 C816 1.398 . S
C815 C821 1.491 . S
C816 H807 0.950 . S
C816 C815 1.398 . S
C816 C817 1.391 . S
C817 H805 0.950 . S
C817 C813 1.393 . S
C817 C816 1.391 . S
C818 H808 0.950 . S
C818 C819 1.386 . S
C818 C820 1.391 . S
C819 C818 1.386 . S
C819 C823 1.393 . S
C820 H809 0.950 . S
C820 C818 1.391 . S
C820 C821 1.400 . S
C821 C815 1.491 . S
C821 C820 1.400 . S
C821 C822 1.398 . S
C822 H810 0.950 . S
C822 C821 1.398 . S
C822 C823 1.391 . S
C823 H811 0.950 . S
C823 C819 1.393 . S
C823 C822 1.391 . S
H824 C832 0.950 . S
H825 C837 0.950 . S
H826 C834 0.950 . S
H827 C836 0.950 . S
H828 C838 0.950 . S
H829 C840 0.950 . S
H830 C842 0.950 . S
H831 C843 0.950 . S
C832 H824 0.950 . S
C832 C833 1.386 . S
C832 C834 1.391 . S
C833 C832 1.386 . S
C833 C837 1.393 . S
C834 H826 0.950 . S
C834 C832 1.391 . S
C834 C835 1.400 . S
C835 C834 1.400 . S
C835 C836 1.398 . S
C835 C841 1.491 1_545 S
C836 H827 0.950 . S
C836 C835 1.398 . S
C836 C837 1.391 . S
C837 H825 0.950 . S
C837 C833 1.393 . S
C837 C836 1.391 . S
C838 H828 0.950 . S
C838 C839 1.386 . S
C838 C840 1.391 . S
C839 C838 1.386 . S
C839 C843 1.393 . S
C840 H829 0.950 . S
C840 C838 1.391 . S
C840 C841 1.400 . S
C841 C835 1.491 1_565 S
C841 C840 1.400 . S
C841 C842 1.398 . S
C842 H830 0.950 . S
C842 C841 1.398 . S
C842 C843 1.391 . S
C843 H831 0.950 . S
C843 C839 1.393 . S
C843 C842 1.391 . S
H844 C852 0.950 . S
H845 C857 0.950 . S
H846 C854 0.950 . S
H847 C856 0.950 . S
H848 C858 0.950 . S
H849 C860 0.950 . S
H850 C862 0.950 . S
H851 C863 0.950 . S
C852 H844 0.950 . S
C852 C853 1.386 . S
C852 C854 1.391 . S
C853 C852 1.386 . S
C853 C857 1.393 . S
C854 H846 0.950 . S
C854 C852 1.391 . S
C854 C855 1.400 . S
C855 C854 1.400 . S
C855 C856 1.398 . S
C855 C861 1.491 1_655 S
C856 H847 0.950 . S
C856 C855 1.398 . S
C856 C857 1.391 . S
C857 H845 0.950 . S
C857 C853 1.393 . S
C857 C856 1.391 . S
C858 H848 0.950 . S
C858 C859 1.386 . S
C858 C860 1.391 . S
C859 C858 1.386 . S
C859 C863 1.393 . S
C860 H849 0.950 . S
C860 C858 1.391 . S
C860 C861 1.400 . S
C861 C855 1.491 1_455 S
C861 C860 1.400 . S
C861 C862 1.398 . S
C862 H850 0.950 . S
C862 C861 1.398 . S
C862 C863 1.391 . S
C863 H851 0.950 . S
C863 C859 1.393 . S
C863 C862 1.391 . S
C233 C12 1.603 . S
C239 C155 1.605 . S
C253 C112 1.608 . S
C259 C14 1.609 . S
C273 C127 1.611 . S
C279 C28 1.594 . S
C293 C141 1.607 . S
C299 C54 1.599 . S
C313 C71 1.606 1_545 S
C319 C69 1.606 . S
C333 C82 1.606 . S
C339 C85 1.607 1_455 S
C353 C96 1.606 . S
C359 C99 1.607 1_565 S
C373 C110 1.603 . S
C379 C56 1.615 1_655 S
C393 C125 1.596 . S
C399 C43 1.609 1_565 S
C413 C1 1.611 1_655 S
C419 C138 1.609 . S
C433 C27 1.606 1_545 S
C439 C152 1.597 . S
C453 C41 1.615 1_455 S
C459 C166 1.604 . S
C473 C183 1.614 . S
C479 C181 1.607 . S
C493 C194 1.596 . S
C499 C208 1.610 . S
C513 C223 1.614 . S
C519 C197 1.598 . S
C533 C168 1.609 . S
C539 C210 1.596 . S
C553 C209 1.799 . S
C559 C0 1.809 . S
C573 C222 1.808 . S
C579 C26 1.804 . S
C593 C169 1.805 . S
C599 C40 1.806 . S
C613 C42 1.810 . S
C619 C182 1.796 . S
C633 C57 1.810 . S
C639 C140 1.795 . S
C653 C154 1.804 . S
C659 C70 1.798 . S
C673 C84 1.803 . S
C679 C113 1.807 . S
C693 C98 1.800 . S
C699 C126 1.802 . S
C713 C29 1.666 . S
C719 C13 1.666 . S
C733 C55 1.659 . S
C739 C15 1.668 . S
C753 C68 1.668 . S
C759 C97 1.660 . S
C773 C83 1.665 . S
C779 C111 1.663 . S
C793 C153 1.658 . S
C799 C124 1.671 . S
C813 C139 1.671 . S
C819 C167 1.656 . S
C833 C196 1.658 . S
C839 C180 1.670 . S
C853 C195 1.671 . S
C859 C211 1.657 . S
