# Generated by pormake.
# Topology acs-a, (4)-cn, num edge types: 1
# Building blocks:
#     Node 0, Type 0, BuildingBlock: ICAMEG_clean_sbu_1, # of connection points: 4
#     Node 1, Type 0, BuildingBlock: ICAMEG_clean_sbu_1, # of connection points: 4
#     Node 2, Type 0, BuildingBlock: ICAMEG_clean_sbu_1, # of connection points: 4
#     Node 3, Type 0, BuildingBlock: ICAMEG_clean_sbu_1, # of connection points: 4
#     Node 4, Type 0, BuildingBlock: ICAMEG_clean_sbu_1, # of connection points: 4
#     Node 5, Type 0, BuildingBlock: ICAMEG_clean_sbu_1, # of connection points: 4
#     Node 6, Type 0, BuildingBlock: ICAMEG_clean_sbu_1, # of connection points: 4
#     Node 7, Type 0, BuildingBlock: ICAMEG_clean_sbu_1, # of connection points: 4
#     Node 8, Type 0, BuildingBlock: ICAMEG_clean_sbu_1, # of connection points: 4
#     Node 9, Type 0, BuildingBlock: ICAMEG_clean_sbu_1, # of connection points: 4
#     Node 10, Type 0, BuildingBlock: ICAMEG_clean_sbu_1, # of connection points: 4
#     Node 11, Type 0, BuildingBlock: ICAMEG_clean_sbu_1, # of connection points: 4
#     Edge 12, Type (0, 0), BuildingBlock: UVAHIK_clean_linker_0, # of connection points: 2
#     Edge 13, Type (0, 0), BuildingBlock: UVAHIK_clean_linker_0, # of connection points: 2
#     Edge 14, Type (0, 0), BuildingBlock: UVAHIK_clean_linker_0, # of connection points: 2
#     Edge 15, Type (0, 0), BuildingBlock: UVAHIK_clean_linker_0, # of connection points: 2
#     Edge 16, Type (0, 0), BuildingBlock: UVAHIK_clean_linker_0, # of connection points: 2
#     Edge 17, Type (0, 0), BuildingBlock: UVAHIK_clean_linker_0, # of connection points: 2
#     Edge 18, Type (0, 0), BuildingBlock: UVAHIK_clean_linker_0, # of connection points: 2
#     Edge 19, Type (0, 0), BuildingBlock: UVAHIK_clean_linker_0, # of connection points: 2
#     Edge 20, Type (0, 0), BuildingBlock: UVAHIK_clean_linker_0, # of connection points: 2
#     Edge 21, Type (0, 0), BuildingBlock: UVAHIK_clean_linker_0, # of connection points: 2
#     Edge 22, Type (0, 0), BuildingBlock: UVAHIK_clean_linker_0, # of connection points: 2
#     Edge 23, Type (0, 0), BuildingBlock: UVAHIK_clean_linker_0, # of connection points: 2
#     Edge 24, Type (0, 0), BuildingBlock: UVAHIK_clean_linker_0, # of connection points: 2
#     Edge 25, Type (0, 0), BuildingBlock: UVAHIK_clean_linker_0, # of connection points: 2
#     Edge 26, Type (0, 0), BuildingBlock: UVAHIK_clean_linker_0, # of connection points: 2
#     Edge 27, Type (0, 0), BuildingBlock: UVAHIK_clean_linker_0, # of connection points: 2
#     Edge 28, Type (0, 0), BuildingBlock: UVAHIK_clean_linker_0, # of connection points: 2
#     Edge 29, Type (0, 0), BuildingBlock: UVAHIK_clean_linker_0, # of connection points: 2
#     Edge 30, Type (0, 0), BuildingBlock: UVAHIK_clean_linker_0, # of connection points: 2
#     Edge 31, Type (0, 0), BuildingBlock: UVAHIK_clean_linker_0, # of connection points: 2
#     Edge 32, Type (0, 0), BuildingBlock: UVAHIK_clean_linker_0, # of connection points: 2
#     Edge 33, Type (0, 0), BuildingBlock: UVAHIK_clean_linker_0, # of connection points: 2
#     Edge 34, Type (0, 0), BuildingBlock: UVAHIK_clean_linker_0, # of connection points: 2
#     Edge 35, Type (0, 0), BuildingBlock: UVAHIK_clean_linker_0, # of connection points: 2
# Relax obj value: 0.498
# Max RMSD: 0.314
# Mean RMSD: 0.245
data_MOF--net-acs-a--node1-ICAMEG_clean_sbu_1--edge1-UVAHIK_clean_linker_0
_symmetry_space_group_name_H-M    P1
_symmetry_Int_Tables_number       1
_symmetry_cell_setting            triclinic
loop_
_symmetry_equiv_pos_as_xyz
'x, y, z'
_cell_length_a     69.342818
_cell_length_b     57.541952
_cell_length_c     55.882661
_cell_angle_alpha  90.019138
_cell_angle_beta   89.979009
_cell_angle_gamma 114.5593
loop_
_atom_site_label
_atom_site_type_symbol
_atom_site_fract_x
_atom_site_fract_y
_atom_site_fract_z
_atom_type_partial_charge
Co0 Co 0.59425 0.15633 0.11295 0.0
Co1 Co 0.5812 0.15276 0.05334 0.0
O2 O 0.57692 0.13814 0.08559 0.0
C3 C 0.60667 0.11735 0.13387 0.0
O4 O 0.62642 0.13249 0.12873 0.0
C5 C 0.53505 0.13542 0.06197 0.0
O6 O 0.53929 0.14427 0.08388 0.0
O7 O 0.57953 0.18435 0.0657 0.0
O8 O 0.59684 0.18998 0.1006 0.0
H9 H 0.61454 0.22187 0.99206 0.0
H10 H 0.55307 0.11236 0.12211 0.0
O11 O 0.5917 0.12282 0.12635 0.0
H12 H 0.54714 0.18618 0.1607 0.0
H13 H 0.61368 0.16922 0.20046 0.0
H14 H 0.63363 0.20362 0.11894 0.0
H15 H 0.57997 0.19131 0.1398 0.0
H16 H 0.59161 0.14723 0.16586 0.0
O17 O 0.54989 0.13727 0.04768 0.0
H18 H 0.60903 0.20292 0.03245 0.0
H19 H 0.5617 0.13361 0.00562 0.0
H20 H 0.6561 0.22632 0.15305 0.0
H21 H 0.52009 0.10631 0.14319 0.0
H22 H 0.6462 0.20909 0.19417 0.0
H23 H 0.51693 0.14342 0.16259 0.0
O24 O 0.62057 0.16115 0.09521 0.0
H25 H 0.55696 0.05776 0.04596 0.0
H26 H 0.61052 0.14191 0.02057 0.0
H27 H 0.6129 0.1028 0.00583 0.0
H28 H 0.58594 0.06032 0.01847 0.0
H29 H 0.55534 0.09741 0.06047 0.0
H30 H 0.56656 0.1519 0.96499 0.0
H31 H 0.59322 0.19629 0.95798 0.0
O32 O 0.61267 0.16855 0.05783 0.0
C33 C 0.58884 0.19797 0.08373 0.0
C34 C 0.60292 0.20248 0.99487 0.0
C35 C 0.57597 0.16322 0.97968 0.0
N36 N 0.58518 0.16713 0.02136 0.0
C37 C 0.59977 0.19162 0.01769 0.0
C38 C 0.57325 0.15299 0.00274 0.0
C39 C 0.59094 0.18812 0.97576 0.0
C40 C 0.55194 0.12854 0.13078 0.0
N41 N 0.5685 0.15213 0.12981 0.0
C42 C 0.53317 0.12502 0.14257 0.0
C43 C 0.5314 0.14586 0.15341 0.0
C44 C 0.54833 0.16987 0.15233 0.0
C45 C 0.56685 0.17267 0.14036 0.0
C46 C 0.6182 0.1769 0.18262 0.0
C47 C 0.62921 0.19599 0.13676 0.0
C48 C 0.60578 0.16449 0.16294 0.0
N49 N 0.6114 0.174 0.14033 0.0
C50 C 0.64199 0.20894 0.15602 0.0
C51 C 0.63643 0.19927 0.17909 0.0
C52 C 0.62592 0.1688 0.07378 0.0
C53 C 0.5688 0.07616 0.04031 0.0
C54 C 0.59884 0.12352 0.0263 0.0
C55 C 0.60021 0.10143 0.01782 0.0
C56 C 0.58507 0.0776 0.0249 0.0
N57 N 0.58281 0.12195 0.04136 0.0
C58 C 0.56793 0.09866 0.04842 0.0
Co59 Co 0.34332 0.48221 0.58689 0.0
Co60 Co 0.38977 0.51466 0.55651 0.0
O61 O 0.37024 0.48461 0.57393 0.0
C62 C 0.36847 0.48231 0.63013 0.0
O63 O 0.38571 0.49742 0.61881 0.0
C64 C 0.37792 0.471 0.52167 0.0
O65 O 0.36047 0.45778 0.53359 0.0
O66 O 0.36601 0.52117 0.5418 0.0
O67 O 0.33565 0.49024 0.55474 0.0
H68 H 0.41862 0.60617 0.52933 0.0
H69 H 0.3561 0.4397 0.59519 0.0
O70 O 0.35053 0.47419 0.61971 0.0
H71 H 0.28933 0.40192 0.54952 0.0
H72 H 0.27658 0.44264 0.63602 0.0
H73 H 0.31803 0.51269 0.58109 0.0
H74 H 0.30456 0.44752 0.5607 0.0
H75 H 0.31083 0.44617 0.61997 0.0
O76 O 0.39029 0.49349 0.52826 0.0
H77 H 0.3938 0.56777 0.55037 0.0
H78 H 0.42816 0.52593 0.52634 0.0
H79 H 0.28377 0.5097 0.59643 0.0
H80 H 0.34134 0.39396 0.58457 0.0
H81 H 0.26278 0.47448 0.62415 0.0
H82 H 0.30774 0.37481 0.56152 0.0
O83 O 0.35561 0.51965 0.5953 0.0
H84 H 0.42908 0.46218 0.58133 0.0
H85 H 0.42929 0.54798 0.58207 0.0
H86 H 0.45869 0.54138 0.60114 0.0
H87 H 0.45875 0.49825 0.60076 0.0
H88 H 0.3999 0.46956 0.56273 0.0
H89 H 0.45323 0.56383 0.50478 0.0
H90 H 0.44861 0.60436 0.50628 0.0
O91 O 0.3897 0.53622 0.58398 0.0
C92 C 0.34579 0.50965 0.54173 0.0
C93 C 0.42083 0.58864 0.52856 0.0
C94 C 0.44024 0.56487 0.51476 0.0
N95 N 0.40954 0.54463 0.5397 0.0
C96 C 0.40684 0.56683 0.54051 0.0
C97 C 0.42594 0.54344 0.52695 0.0
C98 C 0.43764 0.5876 0.51562 0.0
C99 C 0.34136 0.43143 0.58538 0.0
N100 N 0.33111 0.44619 0.57875 0.0
C101 C 0.33313 0.40555 0.57931 0.0
C102 C 0.31429 0.39483 0.56635 0.0
C103 C 0.30396 0.41003 0.5596 0.0
C104 C 0.31268 0.43585 0.56594 0.0
C105 C 0.28555 0.45803 0.62391 0.0
C106 C 0.30892 0.49717 0.59294 0.0
C107 C 0.30498 0.46016 0.6148 0.0
N108 N 0.31633 0.47945 0.59938 0.0
C109 C 0.28956 0.49564 0.60167 0.0
C110 C 0.27781 0.4759 0.61723 0.0
C111 C 0.37412 0.53798 0.59455 0.0
C112 C 0.4293 0.4811 0.58149 0.0
C113 C 0.42919 0.52915 0.58184 0.0
C114 C 0.4459 0.52553 0.59265 0.0
C115 C 0.44592 0.50133 0.59242 0.0
N116 N 0.41303 0.50925 0.57097 0.0
C117 C 0.41286 0.48543 0.57085 0.0
Co118 Co 0.85665 0.39986 0.04874 0.0
Co119 Co 0.81937 0.34797 0.08737 0.0
O120 O 0.84869 0.37335 0.07553 0.0
C121 C 0.89162 0.39239 0.02477 0.0
O122 O 0.87985 0.38712 0.0054 0.0
C123 C 0.82664 0.38591 0.12664 0.0
O124 O 0.81085 0.39044 0.1183 0.0
O125 O 0.80603 0.37087 0.07557 0.0
O126 O 0.82914 0.40292 0.05276 0.0
H127 H 0.74129 0.29803 0.0962 0.0
H128 H 0.88595 0.40677 0.08921 0.0
O129 O 0.8845 0.39712 0.0444 0.0
H130 H 0.86931 0.48214 0.09123 0.0
H131 H 0.90566 0.47736 0.0029 0.0
H132 H 0.8336 0.40827 0.00743 0.0
H133 H 0.85444 0.44951 0.05968 0.0
H134 H 0.896 0.44542 0.03532 0.0
O135 O 0.83254 0.37045 0.11582 0.0
H136 H 0.77469 0.32402 0.075 0.0
H137 H 0.80993 0.33009 0.1384 0.0
H138 H 0.84254 0.4399 0.97478 0.0
H139 H 0.90129 0.43901 0.12102 0.0
H140 H 0.8788 0.47475 0.97237 0.0
H141 H 0.89292 0.47698 0.1222 0.0
O142 O 0.8427 0.37195 0.02481 0.0
H143 H 0.87592 0.32449 0.1226 0.0
H144 H 0.80417 0.29222 0.08785 0.0
H145 H 0.81875 0.26158 0.10037 0.0
H146 H 0.85489 0.27774 0.11794 0.0
H147 H 0.86081 0.35432 0.10969 0.0
H148 H 0.77706 0.30475 0.16059 0.0
H149 H 0.74242 0.28842 0.13941 0.0
O150 O 0.84071 0.36067 0.06139 0.0
C151 C 0.81106 0.39097 0.06266 0.0
C152 C 0.75624 0.3052 0.10569 0.0
C153 C 0.77633 0.309 0.14183 0.0
N154 N 0.79399 0.32888 0.10558 0.0
C155 C 0.7751 0.31988 0.09376 0.0
C156 C 0.79487 0.32354 0.12926 0.0
C157 C 0.7569 0.2998 0.12992 0.0
C158 C 0.88244 0.4234 0.08947 0.0
N159 N 0.86948 0.42639 0.07251 0.0
C160 C 0.89109 0.44152 0.10757 0.0
C161 C 0.88636 0.4628 0.10825 0.0
C162 C 0.87311 0.46571 0.09088 0.0
C163 C 0.86471 0.44716 0.07308 0.0
C164 C 0.8898 0.46228 0.00377 0.0
C165 C 0.84939 0.42343 0.00652 0.0
C166 C 0.88425 0.44414 0.02206 0.0
N167 N 0.86424 0.42505 0.02327 0.0
C168 C 0.85437 0.44126 0.98799 0.0
C169 C 0.87472 0.4608 0.98664 0.0
C170 C 0.83498 0.35366 0.03909 0.0
C171 C 0.86018 0.31722 0.11493 0.0
C172 C 0.81996 0.29929 0.09529 0.0
C173 C 0.8281 0.28191 0.10244 0.0
C174 C 0.84837 0.29099 0.1123 0.0
N175 N 0.83163 0.32496 0.09783 0.0
C176 C 0.85151 0.33404 0.10755 0.0
Co177 Co 0.39188 0.83576 0.61487 0.0
Co178 Co 0.4121 0.84526 0.55796 0.0
O179 O 0.41314 0.85646 0.59134 0.0
C180 C 0.40353 0.89101 0.62843 0.0
O181 O 0.41497 0.89947 0.60904 0.0
C182 C 0.4574 0.86296 0.5721 0.0
O183 O 0.45135 0.85317 0.59343 0.0
O184 O 0.41273 0.8127 0.56896 0.0
O185 O 0.38956 0.8034 0.59927 0.0
H186 H 0.38519 0.7824 0.4903 0.0
H187 H 0.43391 0.87467 0.63193 0.0
O188 O 0.39318 0.86712 0.63197 0.0
H189 H 0.42694 0.79287 0.66658 0.0
H190 H 0.35935 0.81326 0.69701 0.0
H191 H 0.35159 0.78904 0.61175 0.0
H192 H 0.39875 0.79471 0.64092 0.0
H193 H 0.38647 0.83871 0.6677 0.0
O194 O 0.44382 0.86121 0.55611 0.0
H195 H 0.38674 0.79729 0.53194 0.0
H196 H 0.43596 0.86902 0.51343 0.0
H197 H 0.32419 0.76295 0.64049 0.0
H198 H 0.46212 0.87378 0.65795 0.0
H199 H 0.32796 0.77502 0.68348 0.0
H200 H 0.45886 0.83263 0.67542 0.0
O201 O 0.36883 0.83614 0.59402 0.0
H202 H 0.43765 0.94076 0.55607 0.0
H203 H 0.38531 0.8591 0.52393 0.0
H204 H 0.38429 0.89945 0.5108 0.0
H205 H 0.41064 0.9407 0.52685 0.0
H206 H 0.4379 0.89991 0.56895 0.0
H207 H 0.43506 0.85483 0.47164 0.0
H208 H 0.40947 0.81127 0.45981 0.0
O209 O 0.38026 0.82903 0.55841 0.0
C210 C 0.40028 0.79712 0.58412 0.0
C211 C 0.39637 0.80145 0.49521 0.0
C212 C 0.42438 0.84208 0.48475 0.0
N213 N 0.41131 0.83405 0.52508 0.0
C214 C 0.39729 0.81 0.51876 0.0
C215 C 0.42485 0.84999 0.50846 0.0
C216 C 0.41001 0.81765 0.47813 0.0
C217 C 0.43199 0.85679 0.63986 0.0
N218 N 0.41439 0.83489 0.63518 0.0
C219 C 0.4482 0.85635 0.65441 0.0
C220 C 0.4464 0.83325 0.66415 0.0
C221 C 0.42851 0.81095 0.65917 0.0
C222 C 0.41261 0.81212 0.64455 0.0
C223 C 0.35752 0.80781 0.67833 0.0
C224 C 0.3534 0.79439 0.63042 0.0
C225 C 0.37279 0.82222 0.66161 0.0
N226 N 0.37064 0.8154 0.63798 0.0
C227 C 0.33781 0.77956 0.64662 0.0
C228 C 0.33992 0.78635 0.67073 0.0
C229 C 0.3656 0.82918 0.57217 0.0
C230 C 0.42606 0.92292 0.54897 0.0
C231 C 0.39666 0.87691 0.53124 0.0
C232 C 0.39609 0.89973 0.52361 0.0
C233 C 0.41089 0.92287 0.53259 0.0
N234 N 0.41154 0.8771 0.54737 0.0
C235 C 0.42615 0.89972 0.55616 0.0
Co236 Co 0.65206 0.51407 0.0861 0.0
Co237 Co 0.61369 0.48662 0.04245 0.0
O238 O 0.62899 0.51358 0.06563 0.0
C239 C 0.61994 0.51397 0.1212 0.0
O240 O 0.60527 0.49699 0.10781 0.0
C241 C 0.62896 0.53554 0.01462 0.0
O242 O 0.64574 0.54567 0.02837 0.0
O243 O 0.64052 0.48532 0.03051 0.0
O244 O 0.66534 0.50477 0.05852 0.0
H245 H 0.59426 0.40211 0.00138 0.0
H246 H 0.64126 0.55879 0.08619 0.0
O247 O 0.63926 0.52326 0.11462 0.0
H248 H 0.71537 0.5918 0.05837 0.0
H249 H 0.70716 0.54968 0.1508 0.0
H250 H 0.67547 0.48132 0.0909 0.0
H251 H 0.69592 0.54636 0.06911 0.0
H252 H 0.67806 0.54863 0.12483 0.0
O253 O 0.61573 0.51247 0.01756 0.0
H254 H 0.61368 0.43644 0.03007 0.0
H255 H 0.58012 0.47921 0.00599 0.0
H256 H 0.70467 0.48179 0.11633 0.0
H257 H 0.66019 0.60442 0.07586 0.0
H258 H 0.72072 0.51614 0.14657 0.0
H259 H 0.6975 0.62117 0.06176 0.0
O260 O 0.63644 0.47692 0.09428 0.0
H261 H 0.56672 0.52922 0.06805 0.0
H262 H 0.57167 0.44681 0.05747 0.0
H263 H 0.53862 0.44737 0.07313 0.0
H264 H 0.53598 0.48881 0.07845 0.0
H265 H 0.59954 0.52779 0.05273 0.0
H266 H 0.56047 0.44543 0.9769 0.0
H267 H 0.56744 0.40649 0.97451 0.0
O268 O 0.61095 0.46028 0.06646 0.0
C269 C 0.65936 0.49298 0.03875 0.0
C270 C 0.5911 0.419 0.00223 0.0
C271 C 0.57216 0.44333 0.98847 0.0
N272 N 0.59814 0.45988 0.01967 0.0
C273 C 0.60205 0.43851 0.01845 0.0
C274 C 0.58342 0.46245 0.00492 0.0
C275 C 0.57606 0.42147 0.98715 0.0
C276 C 0.65756 0.566 0.08031 0.0
N277 N 0.6675 0.54996 0.07833 0.0
C278 C 0.66817 0.59183 0.07438 0.0
C279 C 0.68909 0.6012 0.06643 0.0
C280 C 0.69912 0.58472 0.06449 0.0
C281 C 0.688 0.559 0.07053 0.0
C282 C 0.70031 0.53462 0.13769 0.0
C283 C 0.68242 0.4964 0.10394 0.0
C284 C 0.68378 0.53388 0.12299 0.0
N285 N 0.67511 0.51498 0.10632 0.0
C286 C 0.69893 0.49654 0.11833 0.0
C287 C 0.70791 0.5158 0.1353 0.0
C288 C 0.6207 0.4583 0.08508 0.0
C289 C 0.56766 0.51104 0.06575 0.0
C290 C 0.57068 0.46491 0.05984 0.0
C291 C 0.5519 0.46511 0.06865 0.0
C292 C 0.55042 0.48836 0.07161 0.0
N293 N 0.5875 0.48722 0.05406 0.0
C294 C 0.58618 0.5101 0.05697 0.0
Co295 Co 0.14583 0.59512 0.54435 0.0
Co296 Co 0.18076 0.65355 0.57765 0.0
O297 O 0.15227 0.62449 0.56796 0.0
C298 C 0.10822 0.60817 0.53769 0.0
O299 O 0.12005 0.63254 0.5412 0.0
C300 C 0.17777 0.62184 0.62067 0.0
O301 O 0.19559 0.62093 0.61401 0.0
O302 O 0.19669 0.63242 0.569 0.0
O303 O 0.1751 0.59725 0.54864 0.0
H304 H 0.25755 0.7121 0.58355 0.0
H305 H 0.11753 0.58938 0.58553 0.0
O306 O 0.11611 0.59176 0.53917 0.0
H307 H 0.14365 0.52234 0.59598 0.0
H308 H 0.10169 0.50955 0.50729 0.0
H309 H 0.16974 0.58576 0.50439 0.0
H310 H 0.15414 0.55068 0.56072 0.0
H311 H 0.10928 0.54484 0.536 0.0
O312 O 0.16937 0.63348 0.60786 0.0
H313 H 0.22509 0.68051 0.56432 0.0
H314 H 0.18922 0.67751 0.62657 0.0
H315 H 0.16292 0.55078 0.4755 0.0
H316 H 0.10657 0.56142 0.62106 0.0
H317 H 0.12867 0.51235 0.47682 0.0
H318 H 0.11973 0.52767 0.62648 0.0
O319 O 0.15623 0.62012 0.51726 0.0
H320 H 0.1201 0.67209 0.60831 0.0
H321 H 0.19126 0.70803 0.57182 0.0
H322 H 0.17329 0.73635 0.58002 0.0
H323 H 0.13742 0.71833 0.59844 0.0
H324 H 0.13854 0.64459 0.59966 0.0
H325 H 0.22122 0.70855 0.64683 0.0
H326 H 0.25567 0.72617 0.62521 0.0
O327 O 0.15953 0.63549 0.55261 0.0
C328 C 0.19299 0.61156 0.55781 0.0
C329 C 0.24268 0.70445 0.59323 0.0
C330 C 0.22228 0.70244 0.62875 0.0
N331 N 0.20555 0.67703 0.59444 0.0
C332 C 0.22434 0.68663 0.58241 0.0
C333 C 0.20426 0.68473 0.61728 0.0
C334 C 0.2416 0.71234 0.61659 0.0
C335 C 0.12309 0.57452 0.58765 0.0
N336 N 0.13628 0.57148 0.57098 0.0
C337 C 0.11692 0.55883 0.60784 0.0
C338 C 0.12434 0.53992 0.61089 0.0
C339 C 0.13777 0.53693 0.59379 0.0
C340 C 0.14365 0.55303 0.57386 0.0
C341 C 0.11667 0.5262 0.50652 0.0
C342 C 0.15484 0.56905 0.50512 0.0
C343 C 0.12102 0.54628 0.52267 0.0
N344 N 0.13995 0.56731 0.52188 0.0
C345 C 0.15105 0.54933 0.4887 0.0
C346 C 0.13182 0.52778 0.48944 0.0
C347 C 0.16403 0.64002 0.52966 0.0
C348 C 0.1357 0.68016 0.60024 0.0
C349 C 0.1756 0.70014 0.57964 0.0
C350 C 0.16553 0.71622 0.58434 0.0
C351 C 0.14542 0.7061 0.59469 0.0
N352 N 0.16595 0.67474 0.58503 0.0
C353 C 0.14626 0.66466 0.59528 0.0
Co354 Co 0.82156 0.45107 0.41377 0.0
Co355 Co 0.85635 0.44111 0.45982 0.0
O356 O 0.85025 0.45644 0.42914 0.0
C357 C 0.83027 0.41981 0.37661 0.0
O358 O 0.81327 0.40024 0.38396 0.0
C359 C 0.8931 0.49354 0.45621 0.0
O360 O 0.88473 0.5004 0.43798 0.0
O361 O 0.8418 0.45817 0.47926 0.0
O362 O 0.8412 0.46211 0.44133 0.0
H363 H 0.83623 0.39547 0.53869 0.0
H364 H 0.86394 0.48604 0.39356 0.0
O365 O 0.83667 0.44106 0.38776 0.0
H366 H 0.82005 0.53495 0.39278 0.0
H367 H 0.78316 0.44765 0.33618 0.0
H368 H 0.77618 0.42849 0.42255 0.0
H369 H 0.80539 0.49046 0.40749 0.0
H370 H 0.81487 0.45762 0.36135 0.0
O371 O 0.884 0.47136 0.46542 0.0
H372 H 0.83006 0.41436 0.50143 0.0
H373 H 0.89428 0.4367 0.48089 0.0
H374 H 0.74389 0.41859 0.39825 0.0
H375 H 0.87918 0.53027 0.37858 0.0
H376 H 0.74735 0.42808 0.35467 0.0
H377 H 0.85723 0.55511 0.37817 0.0
O378 O 0.80824 0.4153 0.42681 0.0
H379 H 0.90504 0.43698 0.39495 0.0
H380 H 0.85392 0.38821 0.45731 0.0
H381 H 0.8706 0.36647 0.43214 0.0
H382 H 0.89642 0.39092 0.40073 0.0
H383 H 0.88788 0.45787 0.42041 0.0
H384 H 0.90121 0.41831 0.51804 0.0
H385 H 0.87202 0.39739 0.54719 0.0
O386 O 0.82891 0.41047 0.45591 0.0
C387 C 0.83443 0.46613 0.46233 0.0
C388 C 0.84906 0.40445 0.5261 0.0
C389 C 0.88553 0.41729 0.51452 0.0
N390 N 0.86173 0.42638 0.48891 0.0
C391 C 0.84564 0.41511 0.50494 0.0
C392 C 0.88152 0.42772 0.49354 0.0
C393 C 0.86915 0.40556 0.53086 0.0
C394 C 0.85426 0.49666 0.39354 0.0
N395 N 0.83384 0.48582 0.40174 0.0
C396 C 0.86299 0.52174 0.38499 0.0
C397 C 0.85067 0.53567 0.38476 0.0
C398 C 0.82982 0.52439 0.39297 0.0
C399 C 0.82163 0.49928 0.40139 0.0
C400 C 0.78144 0.44321 0.35509 0.0
C401 C 0.77762 0.4325 0.4036 0.0
C402 C 0.79932 0.44861 0.36937 0.0
N403 N 0.79718 0.44302 0.39325 0.0
C404 C 0.75938 0.42692 0.38994 0.0
C405 C 0.76135 0.43227 0.36549 0.0
C406 C 0.8121 0.40225 0.44319 0.0
C407 C 0.89395 0.42617 0.4087 0.0
C408 C 0.86521 0.39901 0.44375 0.0
C409 C 0.87459 0.38659 0.42954 0.0
C410 C 0.88907 0.40031 0.41192 0.0
N411 N 0.87025 0.42444 0.44066 0.0
C412 C 0.88428 0.43796 0.42328 0.0
Co413 Co 0.37202 0.87344 0.89795 0.0
Co414 Co 0.3975 0.88563 0.95314 0.0
O415 O 0.39097 0.89667 0.92198 0.0
C416 C 0.41121 0.90757 0.87007 0.0
O417 O 0.42089 0.92044 0.88912 0.0
C418 C 0.38059 0.92436 0.96489 0.0
O419 O 0.36809 0.91728 0.94615 0.0
O420 O 0.36725 0.86126 0.95863 0.0
O421 O 0.35086 0.85613 0.9231 0.0
H422 H 0.39605 0.82125 0.01469 0.0
H423 H 0.38849 0.93016 0.8917 0.0
O424 O 0.39268 0.88959 0.87132 0.0
H425 H 0.31068 0.89818 0.89043 0.0
H426 H 0.33516 0.84993 0.81811 0.0
H427 H 0.34459 0.81785 0.89707 0.0
H428 H 0.3276 0.86838 0.89539 0.0
H429 H 0.35896 0.87932 0.84816 0.0
O430 O 0.39249 0.91321 0.97012 0.0
H431 H 0.38778 0.83543 0.97592 0.0
H432 H 0.4219 0.91305 0.99619 0.0
H433 H 0.32048 0.78787 0.86765 0.0
H434 H 0.37227 0.96049 0.88635 0.0
H435 H 0.31564 0.80387 0.82783 0.0
H436 H 0.33305 0.94461 0.88574 0.0
O437 O 0.38489 0.8484 0.90245 0.0
H438 H 0.4569 0.97031 0.93302 0.0
H439 H 0.43872 0.88111 0.95668 0.0
H440 H 0.47619 0.91042 0.95031 0.0
H441 H 0.48549 0.95543 0.9385 0.0
H442 H 0.41963 0.94024 0.93914 0.0
H443 H 0.43038 0.8997 0.03525 0.0
H444 H 0.41749 0.8535 0.04469 0.0
O445 O 0.40286 0.85813 0.9372 0.0
C446 C 0.35082 0.85172 0.94537 0.0
C447 C 0.40178 0.84143 0.01078 0.0
C448 C 0.42102 0.88546 0.02233 0.0
N449 N 0.40436 0.87503 0.98376 0.0
C450 C 0.39717 0.84958 0.98884 0.0
C451 C 0.4161 0.89291 1.00021 0.0
C452 C 0.41379 0.85954 0.02761 0.0
C453 C 0.37148 0.92291 0.89097 0.0
N454 N 0.3591 0.89736 0.89337 0.0
C455 C 0.36234 0.94028 0.88815 0.0
C456 C 0.34034 0.93137 0.88788 0.0
C457 C 0.32779 0.90533 0.89052 0.0
C458 C 0.33749 0.88854 0.89335 0.0
C459 C 0.33712 0.84274 0.83541 0.0
C460 C 0.34249 0.82499 0.87984 0.0
C461 C 0.35063 0.85927 0.85247 0.0
N462 N 0.35309 0.85033 0.87441 0.0
C463 C 0.32885 0.80791 0.86322 0.0
C464 C 0.32616 0.81689 0.84088 0.0
C465 C 0.39669 0.84484 0.91823 0.0
C466 C 0.45306 0.95076 0.9382 0.0
C467 C 0.44261 0.90057 0.95128 0.0
C468 C 0.46387 0.91713 0.94783 0.0
C469 C 0.46909 0.94239 0.94124 0.0
N470 N 0.42697 0.90892 0.94827 0.0
C471 C 0.43197 0.93366 0.94181 0.0
Co472 Co 0.58157 0.42443 0.44186 0.0
Co473 Co 0.59164 0.42994 0.38115 0.0
O474 O 0.57771 0.43512 0.40969 0.0
C475 C 0.53497 0.40083 0.43447 0.0
O476 O 0.53807 0.39259 0.41354 0.0
C477 C 0.61151 0.48186 0.36058 0.0
O478 O 0.62992 0.48086 0.36375 0.0
O479 O 0.61986 0.44566 0.39731 0.0
O480 O 0.61258 0.43613 0.43625 0.0
H481 H 0.64275 0.40474 0.3361 0.0
H482 H 0.55998 0.45889 0.43465 0.0
O483 O 0.55061 0.41294 0.44818 0.0
H484 H 0.62074 0.50627 0.48735 0.0
H485 H 0.56832 0.41436 0.53067 0.0
H486 H 0.60639 0.39807 0.4627 0.0
H487 H 0.61396 0.46292 0.47335 0.0
H488 H 0.56413 0.42796 0.48988 0.0
O489 O 0.59474 0.46408 0.36889 0.0
H490 H 0.62455 0.41075 0.37193 0.0
H491 H 0.5883 0.43854 0.32876 0.0
H492 H 0.61119 0.38434 0.50323 0.0
H493 H 0.566 0.50207 0.44847 0.0
H494 H 0.59207 0.39248 0.53756 0.0
H495 H 0.5966 0.52609 0.47498 0.0
O496 O 0.5766 0.38949 0.43041 0.0
H497 H 0.51977 0.42425 0.35806 0.0
H498 H 0.56858 0.38195 0.35325 0.0
H499 H 0.53314 0.36134 0.33489 0.0
H500 H 0.50846 0.38255 0.33719 0.0
H501 H 0.55526 0.44403 0.37642 0.0
H502 H 0.60619 0.43297 0.2925 0.0
H503 H 0.63362 0.41593 0.29603 0.0
O504 O 0.58845 0.39581 0.39252 0.0
C505 C 0.62559 0.44492 0.41892 0.0
C506 C 0.63083 0.41219 0.33433 0.0
C507 C 0.61031 0.42803 0.30986 0.0
N508 N 0.60542 0.42505 0.35248 0.0
C509 C 0.62046 0.41563 0.35456 0.0
C510 C 0.60025 0.43117 0.33047 0.0
C511 C 0.6257 0.41847 0.31185 0.0
C512 C 0.57328 0.46916 0.44626 0.0
N513 N 0.58662 0.45838 0.45317 0.0
C514 C 0.57663 0.49364 0.45399 0.0
C515 C 0.59381 0.50711 0.46885 0.0
C516 C 0.60737 0.49601 0.47578 0.0
C517 C 0.60352 0.4715 0.4677 0.0
C518 C 0.57675 0.41072 0.51586 0.0
C519 C 0.5981 0.40178 0.47757 0.0
C520 C 0.57438 0.4183 0.49271 0.0
N521 N 0.58508 0.41391 0.47395 0.0
C522 C 0.60084 0.39391 0.50047 0.0
C523 C 0.59009 0.39846 0.51971 0.0
C524 C 0.58173 0.38179 0.411 0.0
C525 C 0.5304 0.41486 0.35687 0.0
C526 C 0.5579 0.39122 0.35447 0.0
C527 C 0.53787 0.37951 0.34395 0.0
C528 C 0.52405 0.39143 0.34521 0.0
N529 N 0.56403 0.4142 0.36586 0.0
C530 C 0.55056 0.42602 0.36715 0.0
Co531 Co 0.16801 0.55532 0.91033 0.0
Co532 Co 0.14287 0.5656 0.95978 0.0
O533 O 0.14227 0.55221 0.92728 0.0
C534 C 0.15019 0.57745 0.87218 0.0
O535 O 0.14992 0.59494 0.88712 0.0
C536 C 0.10956 0.51214 0.96294 0.0
O537 O 0.12082 0.50418 0.94901 0.0
O538 O 0.15968 0.54707 0.97195 0.0
O539 O 0.18066 0.54983 0.94043 0.0
H540 H 0.17749 0.60683 0.03696 0.0
H541 H 0.12621 0.51879 0.89216 0.0
O542 O 0.15607 0.56039 0.87921 0.0
H543 H 0.16522 0.46645 0.91139 0.0
H544 H 0.20882 0.54016 0.842 0.0
H545 H 0.21407 0.58149 0.92053 0.0
H546 H 0.18191 0.51312 0.91726 0.0
H547 H 0.17657 0.53594 0.86371 0.0
O548 O 0.11605 0.53566 0.96829 0.0
H549 H 0.17641 0.59 0.99615 0.0
H550 H 0.1101 0.56919 0.9924 0.0
H551 H 0.24671 0.58598 0.89954 0.0
H552 H 0.10902 0.47218 0.88567 0.0
H553 H 0.24421 0.56524 0.85997 0.0
H554 H 0.12853 0.44568 0.89541 0.0
O555 O 0.1816 0.59297 0.91605 0.0
H556 H 0.08373 0.57351 0.91367 0.0
H557 H 0.14642 0.61899 0.96431 0.0
H558 H 0.1263 0.64225 0.94847 0.0
H559 H 0.09466 0.61946 0.92299 0.0
H560 H 0.10446 0.55106 0.92973 0.0
H561 H 0.11043 0.58557 0.03325 0.0
H562 H 0.14432 0.60466 0.05578 0.0
O563 O 0.16956 0.59616 0.95263 0.0
C564 C 0.17543 0.54477 0.96224 0.0
C565 C 0.16263 0.59861 0.0273 0.0
C566 C 0.12499 0.58665 0.02523 0.0
N567 N 0.14324 0.57876 0.99184 0.0
C568 C 0.16193 0.5891 0.00417 0.0
C569 C 0.12489 0.57735 0.00212 0.0
C570 C 0.14401 0.59737 0.03786 0.0
C571 C 0.13487 0.50741 0.8962 0.0
N572 N 0.15504 0.51868 0.90504 0.0
C573 C 0.12503 0.48102 0.89259 0.0
C574 C 0.13597 0.46615 0.89809 0.0
C575 C 0.15655 0.47779 0.90708 0.0
C576 C 0.16588 0.50422 0.91046 0.0
C577 C 0.21012 0.54928 0.85924 0.0
C578 C 0.21283 0.57231 0.90336 0.0
C579 C 0.1919 0.54703 0.87158 0.0
N580 N 0.19341 0.5584 0.89341 0.0
C581 C 0.23138 0.57497 0.89154 0.0
C582 C 0.22997 0.56334 0.86933 0.0
C583 C 0.18208 0.60557 0.93503 0.0
C584 C 0.09747 0.58364 0.92479 0.0
C585 C 0.13276 0.60898 0.95314 0.0
C586 C 0.12138 0.62223 0.94428 0.0
C587 C 0.10362 0.60943 0.93 0.0
N588 N 0.12661 0.58368 0.94799 0.0
C589 C 0.10923 0.57101 0.93398 0.0
Co590 Co 0.64058 0.12238 0.41198 0.0
Co591 Co 0.6061 0.1164 0.45897 0.0
O592 O 0.61771 0.1021 0.43382 0.0
C593 C 0.60641 0.09421 0.37693 0.0
O594 O 0.59336 0.10123 0.38878 0.0
C595 C 0.61905 0.07935 0.48387 0.0
O596 O 0.6355 0.08594 0.4696 0.0
O597 O 0.635 0.14103 0.46971 0.0
O598 O 0.6566 0.14474 0.43858 0.0
H599 H 0.59818 0.18697 0.50504 0.0
H600 H 0.62559 0.06607 0.41281 0.0
O601 O 0.62522 0.1004 0.38442 0.0
H602 H 0.70126 0.10031 0.43467 0.0
H603 H 0.69121 0.13491 0.3435 0.0
H604 H 0.66739 0.17776 0.40583 0.0
H605 H 0.68433 0.1294 0.4254 0.0
H606 H 0.66253 0.10973 0.37134 0.0
O607 O 0.60649 0.0903 0.48238 0.0
H608 H 0.61285 0.16876 0.47372 0.0
H609 H 0.5737 0.09365 0.49737 0.0
H610 H 0.69627 0.20364 0.37852 0.0
H611 H 0.64192 0.03627 0.42168 0.0
H612 H 0.70836 0.18221 0.34706 0.0
H613 H 0.68001 0.05336 0.4328 0.0
O614 O 0.62703 0.14643 0.40519 0.0
H615 H 0.55037 0.03099 0.43382 0.0
H616 H 0.56604 0.12166 0.44796 0.0
H617 H 0.53047 0.09238 0.43395 0.0
H618 H 0.52243 0.04665 0.42685 0.0
H619 H 0.58579 0.061 0.44757 0.0
H620 H 0.55873 0.11106 0.52906 0.0
H621 H 0.57092 0.15803 0.533 0.0
O622 O 0.60512 0.14231 0.43626 0.0
C623 C 0.65312 0.1508 0.4595 0.0
C624 C 0.59274 0.16646 0.50351 0.0
C625 C 0.57062 0.12386 0.51701 0.0
N626 N 0.59418 0.13018 0.48372 0.0
C627 C 0.60098 0.15604 0.48579 0.0
C628 C 0.57922 0.11412 0.49908 0.0
C629 C 0.57745 0.15022 0.5192 0.0
C630 C 0.64222 0.07365 0.41741 0.0
N631 N 0.654 0.09945 0.41859 0.0
C632 C 0.65136 0.05668 0.42251 0.0
C633 C 0.67272 0.06629 0.42879 0.0
C634 C 0.68465 0.09263 0.42988 0.0
C635 C 0.67496 0.10902 0.42471 0.0
C636 C 0.68609 0.14447 0.35714 0.0
C637 C 0.67261 0.16827 0.39226 0.0
C638 C 0.6698 0.13032 0.37291 0.0
N639 N 0.66332 0.14225 0.39026 0.0
C640 C 0.68895 0.18304 0.37681 0.0
C641 C 0.69571 0.171 0.35915 0.0
C642 C 0.61367 0.15232 0.41649 0.0
C643 C 0.55366 0.05086 0.43689 0.0
C644 C 0.5627 0.10183 0.44479 0.0
C645 C 0.54251 0.08532 0.43692 0.0
C646 C 0.538 0.05966 0.43296 0.0
N647 N 0.57796 0.09304 0.44866 0.0
C648 C 0.57367 0.06793 0.44476 0.0
Co649 Co 0.41709 0.56301 0.95801 0.0
Co650 Co 0.4036 0.56324 0.89832 0.0
O651 O 0.4183 0.55455 0.92423 0.0
C652 C 0.46274 0.58789 0.94601 0.0
O653 O 0.4575 0.59689 0.92669 0.0
C654 C 0.37802 0.51286 0.8767 0.0
O655 O 0.36107 0.51596 0.88334 0.0
O656 O 0.37665 0.54983 0.91714 0.0
O657 O 0.38585 0.55204 0.95593 0.0
H658 H 0.3544 0.59845 0.86368 0.0
H659 H 0.43787 0.52921 0.944 0.0
O660 O 0.44848 0.57414 0.96066 0.0
H661 H 0.38001 0.47777 0.99868 0.0
H662 H 0.43712 0.56615 0.04492 0.0
H663 H 0.39434 0.58776 0.98586 0.0
H664 H 0.38626 0.52211 0.98886 0.0
H665 H 0.43802 0.55577 0.00222 0.0
O666 O 0.3963 0.52877 0.88355 0.0
H667 H 0.37378 0.58798 0.89589 0.0
H668 H 0.40191 0.55663 0.84507 0.0
H669 H 0.39283 0.5983 0.02841 0.0
H670 H 0.43232 0.48501 0.95352 0.0
H671 H 0.41434 0.58748 0.05827 0.0
H672 H 0.40319 0.45897 0.98102 0.0
O673 O 0.42162 0.59882 0.95022 0.0
H674 H 0.47051 0.56108 0.86611 0.0
H675 H 0.42753 0.61098 0.87054 0.0
H676 H 0.46169 0.62877 0.84908 0.0
H677 H 0.48342 0.60372 0.84673 0.0
H678 H 0.43637 0.54419 0.88765 0.0
H679 H 0.38274 0.5666 0.81235 0.0
H680 H 0.35879 0.5877 0.82156 0.0
O681 O 0.41108 0.59776 0.91202 0.0
C682 C 0.37205 0.54725 0.93941 0.0
C683 C 0.36479 0.58927 0.85944 0.0
C684 C 0.38069 0.57139 0.83063 0.0
N685 N 0.38895 0.57168 0.87239 0.0
C686 C 0.37582 0.58331 0.8776 0.0
C687 C 0.39148 0.56575 0.84924 0.0
C688 C 0.36726 0.58322 0.83581 0.0
C689 C 0.42525 0.51804 0.9561 0.0
N690 N 0.41247 0.52827 0.96594 0.0
C691 C 0.42214 0.49301 0.96137 0.0
C692 C 0.40578 0.47839 0.97678 0.0
C693 C 0.39276 0.48893 0.98668 0.0
C694 C 0.39634 0.51402 0.981 0.0
C695 C 0.42768 0.57096 0.03208 0.0
C696 C 0.40368 0.58291 0.99876 0.0
C697 C 0.42817 0.5652 0.00787 0.0
N698 N 0.41619 0.57108 0.99158 0.0
C699 C 0.40279 0.58897 0.02282 0.0
C700 C 0.41488 0.58291 0.03956 0.0
C701 C 0.41805 0.60936 0.93169 0.0
C702 C 0.46118 0.57217 0.86699 0.0
C703 C 0.43698 0.60009 0.86977 0.0
C704 C 0.45626 0.61019 0.85749 0.0
C705 C 0.46843 0.59611 0.85615 0.0
N706 N 0.42998 0.57662 0.8804 0.0
C707 C 0.4418 0.56267 0.87909 0.0
C708 C 0.61456 0.07359 0.34141 0.0
C709 C 0.60093 0.08265 0.35281 0.0
C710 C 0.61225 0.06749 0.31712 0.0
C711 C 0.57808 0.05636 0.26377 0.0
H712 H 0.63125 0.09613 0.2317 0.0
C713 C 0.58305 0.09164 0.16684 0.0
C714 C 0.60229 0.09939 0.15424 0.0
C715 C 0.58099 0.08115 0.18973 0.0
C716 C 0.61633 0.08422 0.24012 0.0
H717 H 0.57303 0.09022 0.34812 0.0
H718 H 0.56901 0.07952 0.30547 0.0
H719 H 0.63039 0.09285 0.27483 0.0
H720 H 0.63336 0.09892 0.1544 0.0
H721 H 0.62937 0.07922 0.19374 0.0
H722 H 0.56396 0.04793 0.22895 0.0
C723 C 0.58149 0.07719 0.31543 0.0
C724 C 0.61585 0.08249 0.26501 0.0
C725 C 0.58382 0.08338 0.33984 0.0
C726 C 0.61848 0.09358 0.16382 0.0
C727 C 0.61624 0.08255 0.18654 0.0
C728 C 0.57861 0.05775 0.23872 0.0
C729 C 0.59622 0.07019 0.30366 0.0
C730 C 0.59667 0.06904 0.27715 0.0
C731 C 0.59796 0.0776 0.20038 0.0
C732 C 0.59768 0.07228 0.22657 0.0
H733 H 0.62771 0.0724 0.35096 0.0
H734 H 0.62362 0.06174 0.3086 0.0
H735 H 0.56311 0.04568 0.27269 0.0
H736 H 0.57015 0.09566 0.15998 0.0
H737 H 0.56666 0.07771 0.19966 0.0
C738 C 0.35072 0.46077 0.66801 0.0
C739 C 0.36939 0.47618 0.65574 0.0
C740 C 0.35101 0.45711 0.69268 0.0
C741 C 0.38576 0.4643 0.7451 0.0
H742 H 0.34271 0.47795 0.77882 0.0
C743 C 0.39486 0.50052 0.84225 0.0
C744 C 0.37659 0.49649 0.8557 0.0
C745 C 0.39312 0.49068 0.81909 0.0
C746 C 0.35456 0.4734 0.76986 0.0
H747 H 0.40323 0.49871 0.65962 0.0
H748 H 0.40369 0.49243 0.70281 0.0
H749 H 0.34151 0.47488 0.73558 0.0
H750 H 0.34234 0.47629 0.85657 0.0
H751 H 0.33934 0.45826 0.81657 0.0
H752 H 0.39905 0.46335 0.7795 0.0
C753 C 0.38885 0.48308 0.69326 0.0
C754 C 0.3539 0.47175 0.74495 0.0
C755 C 0.38856 0.48681 0.66853 0.0
C756 C 0.35671 0.48008 0.84653 0.0
C757 C 0.35498 0.46995 0.82348 0.0
C758 C 0.38634 0.46574 0.77013 0.0
C759 C 0.36998 0.46871 0.70568 0.0
C760 C 0.36971 0.46769 0.73224 0.0
C761 C 0.37308 0.47627 0.809 0.0
C762 C 0.37097 0.47085 0.78281 0.0
H763 H 0.33569 0.45206 0.65871 0.0
H764 H 0.33627 0.44562 0.70168 0.0
H765 H 0.39803 0.46085 0.73579 0.0
H766 H 0.41047 0.51299 0.84876 0.0
H767 H 0.40743 0.49605 0.80856 0.0
C768 C 0.83376 0.41683 0.16056 0.0
C769 C 0.83492 0.39496 0.15088 0.0
C770 C 0.83881 0.4233 0.18461 0.0
C771 C 0.86019 0.4046 0.24009 0.0
H772 H 0.82539 0.43346 0.27169 0.0
C773 C 0.83398 0.3958 0.34072 0.0
C774 C 0.83866 0.4192 0.35234 0.0
C775 C 0.8384 0.39521 0.31633 0.0
C776 C 0.83535 0.42562 0.26302 0.0
H777 H 0.84313 0.36325 0.15849 0.0
H778 H 0.85065 0.37345 0.20049 0.0
H779 H 0.82361 0.42854 0.22848 0.0
H780 H 0.85267 0.46041 0.34772 0.0
H781 H 0.85963 0.45917 0.30499 0.0
H782 H 0.87058 0.40008 0.27536 0.0
C783 C 0.84659 0.38631 0.18961 0.0
C784 C 0.83453 0.42297 0.23815 0.0
C785 C 0.84211 0.38029 0.16543 0.0
C786 C 0.8489 0.44205 0.33937 0.0
C787 C 0.85285 0.4414 0.3149 0.0
C788 C 0.86057 0.40667 0.26509 0.0
C789 C 0.84454 0.4076 0.19977 0.0
C790 C 0.84682 0.41224 0.22622 0.0
C791 C 0.84719 0.41797 0.3031 0.0
C792 C 0.84808 0.41711 0.2767 0.0
H793 H 0.82854 0.42868 0.14965 0.0
H794 H 0.83773 0.44034 0.19136 0.0
H795 H 0.87028 0.39677 0.23174 0.0
H796 H 0.82611 0.37791 0.35023 0.0
H797 H 0.83381 0.37692 0.3075 0.0
C798 C 0.42647 0.94126 0.83875 0.0
C799 C 0.42006 0.91578 0.84605 0.0
C800 C 0.43027 0.94773 0.81449 0.0
C801 C 0.44152 0.927 0.75617 0.0
H802 H 0.39976 0.94824 0.72947 0.0
C803 C 0.39156 0.90204 0.66705 0.0
C804 C 0.40743 0.90768 0.64959 0.0
C805 C 0.39656 0.91258 0.68994 0.0
C806 C 0.41179 0.94283 0.73669 0.0
H807 H 0.41364 0.87741 0.83433 0.0
H808 H 0.42124 0.8889 0.7922 0.0
H809 H 0.40458 0.94858 0.77295 0.0
H810 H 0.44072 0.9299 0.64187 0.0
H811 H 0.44958 0.94791 0.68219 0.0
H812 H 0.44807 0.92009 0.72007 0.0
C813 C 0.42315 0.90381 0.80505 0.0
C814 C 0.41463 0.94313 0.7615 0.0
C815 C 0.41881 0.89723 0.8291 0.0
C816 C 0.42812 0.92551 0.65489 0.0
C817 C 0.43323 0.93564 0.67799 0.0
C818 C 0.43899 0.92717 0.73138 0.0
C819 C 0.42826 0.92892 0.79741 0.0
C820 C 0.42895 0.9343 0.77146 0.0
C821 C 0.41763 0.92855 0.69593 0.0
C822 C 0.42354 0.93416 0.72145 0.0
H823 H 0.42715 0.95575 0.85152 0.0
H824 H 0.43407 0.96719 0.80894 0.0
H825 H 0.45259 0.92002 0.76347 0.0
H826 H 0.37553 0.88817 0.66346 0.0
H827 H 0.38426 0.90658 0.70348 0.0
C828 C 0.62709 0.51447 0.32824 0.0
C829 C 0.60923 0.49821 0.34128 0.0
C830 C 0.62464 0.52419 0.30608 0.0
C831 C 0.58833 0.50165 0.25654 0.0
H832 H 0.62568 0.56523 0.2266 0.0
C833 C 0.5939 0.50917 0.15422 0.0
C834 C 0.61477 0.52014 0.14544 0.0
C835 C 0.58972 0.51238 0.17822 0.0
C836 C 0.61512 0.54734 0.23466 0.0
H837 H 0.57481 0.48194 0.34257 0.0
H838 H 0.57065 0.49879 0.30389 0.0
H839 H 0.62517 0.56135 0.27017 0.0
H840 H 0.64742 0.54448 0.15464 0.0
H841 H 0.64032 0.54933 0.19624 0.0
H842 H 0.57935 0.48685 0.22131 0.0
C843 C 0.58651 0.5037 0.31067 0.0
C844 C 0.61477 0.54521 0.25962 0.0
C845 C 0.58894 0.49415 0.33289 0.0
C846 C 0.63115 0.5356 0.16078 0.0
C847 C 0.62702 0.53862 0.18473 0.0
C848 C 0.58887 0.50365 0.23163 0.0
C849 C 0.60431 0.51776 0.29653 0.0
C850 C 0.60183 0.52208 0.27076 0.0
C851 C 0.60635 0.52649 0.19398 0.0
C852 C 0.6028 0.52623 0.22031 0.0
H853 H 0.64294 0.51816 0.33425 0.0
H854 H 0.63868 0.53495 0.29559 0.0
H855 H 0.5784 0.48343 0.26455 0.0
H856 H 0.58088 0.49739 0.14279 0.0
H857 H 0.57353 0.50317 0.1846 0.0
C858 C 0.15799 0.62439 0.65734 0.0
C859 C 0.16926 0.61282 0.64482 0.0
C860 C 0.15263 0.61851 0.68142 0.0
C861 C 0.16923 0.59134 0.73384 0.0
H862 H 0.12046 0.59539 0.76436 0.0
C863 C 0.14749 0.56017 0.83072 0.0
C864 C 0.14649 0.57897 0.84617 0.0
C865 C 0.14736 0.56306 0.80598 0.0
C866 C 0.13416 0.59432 0.75601 0.0
H867 H 0.18229 0.58462 0.64705 0.0
H868 H 0.17202 0.57331 0.68856 0.0
H869 H 0.12509 0.60116 0.72098 0.0
H870 H 0.14306 0.61473 0.84755 0.0
H871 H 0.14246 0.61953 0.8039 0.0
H872 H 0.17797 0.58389 0.76875 0.0
C873 C 0.16815 0.58784 0.68028 0.0
C874 C 0.1369 0.59769 0.73118 0.0
C875 C 0.17389 0.59412 0.65638 0.0
C876 C 0.14393 0.59996 0.83618 0.0
C877 C 0.14356 0.6027 0.81123 0.0
C878 C 0.16629 0.58757 0.75846 0.0
C879 C 0.15808 0.60057 0.69341 0.0
C880 C 0.15451 0.59624 0.71973 0.0
C881 C 0.14596 0.58464 0.79597 0.0
C882 C 0.14876 0.589 0.7698 0.0
H883 H 0.15426 0.63898 0.6489 0.0
H884 H 0.14505 0.62891 0.69084 0.0
H885 H 0.18332 0.59085 0.72599 0.0
H886 H 0.14916 0.54354 0.83769 0.0
H887 H 0.14892 0.54869 0.7946 0.0
C888 C 0.49811 0.1029 0.0691 0.0
C889 C 0.51301 0.121 0.05406 0.0
C890 C 0.47847 0.08595 0.06001 0.0
C891 C 0.4545 0.0587 0.00123 0.0
H892 H 0.40534 0.02087 0.0406 0.0
C893 C 0.38656 0.97021 0.964 0.0
C894 C 0.38491 0.94869 0.97716 0.0
C895 C 0.39662 0.99466 0.974 0.0
C896 C 0.41886 0.03155 0.02933 0.0
H897 H 0.51862 0.13731 0.01848 0.0
H898 H 0.48392 0.10918 0.00301 0.0
H899 H 0.43416 0.05899 0.05678 0.0
H900 H 0.39048 0.93539 0.01162 0.0
H901 H 0.40743 0.9779 0.02928 0.0
H902 H 0.43927 0.03111 0.97394 0.0
C903 C 0.48759 0.10689 0.02145 0.0
C904 C 0.43551 0.05323 0.03864 0.0
C905 C 0.50741 0.12325 0.03035 0.0
C906 C 0.39152 0.95172 0.00116 0.0
C907 C 0.40117 0.97605 0.01127 0.0
C908 C 0.43773 0.03742 0.99183 0.0
C909 C 0.47317 0.08721 0.03581 0.0
C910 C 0.4539 0.06665 0.02498 0.0
C911 C 0.40475 0.99781 0.99742 0.0
C912 C 0.42004 0.02316 0.00599 0.0
H913 H 0.50218 0.10072 0.08744 0.0
H914 H 0.46803 0.071 0.07167 0.0
H915 H 0.46843 0.06794 0.99017 0.0
H916 H 0.38177 0.96839 0.94539 0.0
H917 H 0.39918 0.01117 0.96298 0.0
C918 C 0.40152 0.47371 0.48733 0.0
C919 C 0.38618 0.45852 0.50382 0.0
C920 C 0.41367 0.46372 0.47467 0.0
C921 C 0.44886 0.44645 0.47348 0.0
H922 H 0.43389 0.3792 0.4461 0.0
C923 C 0.51073 0.40671 0.46438 0.0
C924 C 0.51392 0.39963 0.44114 0.0
C925 C 0.49247 0.41004 0.46998 0.0
C926 C 0.4382 0.39806 0.4536 0.0
H927 H 0.37017 0.42034 0.51842 0.0
H928 H 0.39172 0.40287 0.49643 0.0
H929 H 0.40574 0.39283 0.45711 0.0
H930 H 0.4997 0.38872 0.406 0.0
H931 H 0.46748 0.39452 0.416 0.0
H932 H 0.4811 0.45167 0.47056 0.0
C933 C 0.39419 0.42246 0.49316 0.0
C934 C 0.42217 0.4058 0.45996 0.0
C935 C 0.38185 0.43246 0.50575 0.0
C936 C 0.4977 0.3942 0.42406 0.0
C937 C 0.47928 0.39749 0.42976 0.0
C938 C 0.46472 0.43865 0.46744 0.0
C939 C 0.41091 0.43838 0.47843 0.0
C940 C 0.42739 0.43011 0.47001 0.0
C941 C 0.47691 0.40633 0.45254 0.0
C942 C 0.4596 0.41432 0.4577 0.0
H943 H 0.40504 0.4938 0.48529 0.0
H944 H 0.42614 0.47629 0.46304 0.0
H945 H 0.45344 0.4651 0.48156 0.0
H946 H 0.52275 0.41072 0.47807 0.0
H947 H 0.49087 0.41648 0.48779 0.0
C948 C 0.07536 0.47286 0.95931 0.0
C949 C 0.08883 0.49424 0.97245 0.0
C950 C 0.05465 0.45814 0.96734 0.0
C951 C 0.01422 0.46447 0.00722 0.0
H952 H 0.98297 0.39202 0.99508 0.0
C953 C 0.92884 0.41103 0.0405 0.0
C954 C 0.91429 0.39735 0.02263 0.0
C955 C 0.95063 0.41936 0.03669 0.0
C956 C 0.99155 0.41226 0.9986 0.0
H957 H 0.09194 0.51588 0.00508 0.0
H958 H 0.0565 0.48972 0.01959 0.0
H959 H 0.02049 0.41319 0.98408 0.0
H960 H 0.91113 0.38016 0.98746 0.0
H961 H 0.94914 0.39458 0.98094 0.0
H962 H 0.9854 0.46361 0.02168 0.0
C963 C 0.06133 0.48482 0.0026 0.0
C964 C 0.01301 0.42443 0.99219 0.0
C965 C 0.08175 0.49973 0.99437 0.0
C966 C 0.92193 0.39078 0.00154 0.0
C967 C 0.94371 0.39892 0.99783 0.0
C968 C 0.99295 0.45229 0.01384 0.0
C969 C 0.04722 0.46434 0.98884 0.0
C970 C 0.0246 0.45077 0.99632 0.0
C971 C 0.9583 0.41398 0.01505 0.0
C972 C 0.98132 0.42611 0.00949 0.0
H973 H 0.08045 0.46829 0.9423 0.0
H974 H 0.04424 0.44262 0.95618 0.0
H975 H 0.02234 0.48488 0.01012 0.0
H976 H 0.9235 0.41638 0.05697 0.0
H977 H 0.96152 0.43069 0.0504 0.0
C978 C 0.61365 0.03396 0.48905 0.0
C979 C 0.61209 0.05582 0.49829 0.0
C980 C 0.60228 0.01008 0.49966 0.0
C981 C 0.57266 0.9755 0.55236 0.0
H982 H 0.5297 0.93412 0.50726 0.0
C983 C 0.492 0.89832 0.5831 0.0
C984 C 0.47986 0.87909 0.56705 0.0
C985 C 0.51186 0.91684 0.57622 0.0
C986 C 0.54181 0.94478 0.52012 0.0
H987 H 0.59901 0.07038 0.52679 0.0
H988 H 0.57985 0.02882 0.54585 0.0
H989 H 0.55939 0.97196 0.49338 0.0
H990 H 0.47935 0.86265 0.53213 0.0
H991 H 0.51461 0.89347 0.52077 0.0
H992 H 0.55529 0.94835 0.57917 0.0
C993 C 0.58962 0.03006 0.53034 0.0
C994 C 0.55884 0.96666 0.51206 0.0
C995 C 0.60052 0.05379 0.51942 0.0
C996 C 0.48845 0.87748 0.54474 0.0
C997 C 0.50857 0.89543 0.53815 0.0
C998 C 0.55587 0.95319 0.56039 0.0
C999 C 0.58969 0.00788 0.51998 0.0
C1000 C 0.5741 0.98257 0.52817 0.0
C1001 C 0.52022 0.91609 0.55334 0.0
C1002 C 0.53981 0.93786 0.54451 0.0
H1003 H 0.62225 0.03499 0.47261 0.0
H1004 H 0.60248 0.99318 0.49133 0.0
H1005 H 0.58429 0.98754 0.56512 0.0
H1006 H 0.48553 0.90007 0.60032 0.0
H1007 H 0.52002 0.93246 0.58842 0.0
C1008 C 0.50065 0.60307 0.93257 0.0
C1009 C 0.48508 0.59239 0.95036 0.0
C1010 C 0.52139 0.60553 0.93634 0.0
C1011 C 0.55763 0.58892 0.94333 0.0
H1012 H 0.58253 0.6023 0.00675 0.0
C1013 C 0.60752 0.54016 0.98087 0.0
C1014 C 0.62226 0.55169 0.99921 0.0
C1015 C 0.59652 0.55301 0.97035 0.0
C1016 C 0.57618 0.5991 0.98874 0.0
H1017 H 0.47928 0.57671 0.9863 0.0
H1018 H 0.51514 0.58078 0.99274 0.0
H1019 H 0.55174 0.61094 0.99825 0.0
H1020 H 0.63848 0.58656 0.01946 0.0
H1021 H 0.61928 0.60924 0.00089 0.0
H1022 H 0.58175 0.57641 0.93402 0.0
C1023 C 0.51152 0.58755 0.97599 0.0
C1024 C 0.55831 0.60373 0.98398 0.0
C1025 C 0.49085 0.58498 0.9722 0.0
C1026 C 0.62723 0.57722 0.00531 0.0
C1027 C 0.61608 0.5901 0.99485 0.0
C1028 C 0.57555 0.58434 0.94808 0.0
C1029 C 0.52699 0.59756 0.95802 0.0
C1030 C 0.54829 0.59765 0.96153 0.0
C1031 C 0.59994 0.57769 0.978 0.0
C1032 C 0.5845 0.58835 0.97114 0.0
H1033 H 0.4967 0.60895 0.91553 0.0
H1034 H 0.53297 0.61342 0.92219 0.0
H1035 H 0.55032 0.58403 0.92583 0.0
H1036 H 0.60344 0.52051 0.97574 0.0
H1037 H 0.58413 0.54272 0.95761 0.0
C1038 C 0.92968 0.52863 0.45149 0.0
C1039 C 0.91389 0.51091 0.46603 0.0
C1040 C 0.95019 0.54242 0.46054 0.0
C1041 C 0.98474 0.53693 0.50871 0.0
H1042 H 0.02329 0.60477 0.48822 0.0
C1043 C 0.07561 0.6161 0.53002 0.0
C1044 C 0.08562 0.59928 0.5308 0.0
C1045 C 0.05433 0.60732 0.52297 0.0
C1046 C 0.01263 0.58593 0.49434 0.0
H1047 H 0.90655 0.49517 0.50183 0.0
H1048 H 0.94174 0.51984 0.51783 0.0
H1049 H 0.98634 0.58699 0.47487 0.0
H1050 H 0.08111 0.56012 0.5244 0.0
H1051 H 0.04455 0.54512 0.51187 0.0
H1052 H 0.01066 0.53589 0.52851 0.0
C1053 C 0.93878 0.52244 0.49921 0.0
C1054 C 0.99152 0.57561 0.48645 0.0
C1055 C 0.91853 0.5084 0.49009 0.0
C1056 C 0.07394 0.57361 0.52429 0.0
C1057 C 0.05284 0.56493 0.51718 0.0
C1058 C 0.00567 0.54726 0.51668 0.0
C1059 C 0.95511 0.53896 0.48438 0.0
C1060 C 0.97734 0.55086 0.49341 0.0
C1061 C 0.04268 0.58157 0.51656 0.0
C1062 C 0.02 0.5717 0.50932 0.0
H1063 H 0.9265 0.53088 0.43286 0.0
H1064 H 0.96236 0.55487 0.44855 0.0
H1065 H 0.97449 0.51766 0.51417 0.0
H1066 H 0.08418 0.63601 0.53488 0.0
H1067 H 0.04694 0.62061 0.52284 0.0
C1068 C 0.60669 0.24207 0.10026 0.0
C1069 C 0.59091 0.22452 0.08552 0.0
C1070 C 0.60861 0.26703 0.10274 0.0
C1071 C 0.59306 0.31474 0.07407 0.0
H1072 H 0.61108 0.3499 0.13482 0.0
C1073 C 0.59437 0.41313 0.08842 0.0
C1074 C 0.61445 0.43212 0.09436 0.0
C1075 C 0.59 0.38738 0.09113 0.0
C1076 C 0.60607 0.34027 0.11779 0.0
H1077 H 0.56468 0.21936 0.0619 0.0
H1078 H 0.56754 0.26285 0.0668 0.0
H1079 H 0.60586 0.30534 0.13112 0.0
H1080 H 0.64498 0.43905 0.10998 0.0
H1081 H 0.63712 0.39367 0.11507 0.0
H1082 H 0.59293 0.34957 0.06093 0.0
C1083 C 0.57881 0.25748 0.07601 0.0
C1084 C 0.60318 0.31481 0.11556 0.0
C1085 C 0.57709 0.23252 0.07324 0.0
C1086 C 0.62936 0.42486 0.10529 0.0
C1087 C 0.6249 0.39893 0.10811 0.0
C1088 C 0.59563 0.33999 0.07642 0.0
C1089 C 0.59461 0.27506 0.09083 0.0
C1090 C 0.5968 0.30178 0.09359 0.0
C1091 C 0.60552 0.38004 0.10002 0.0
C1092 C 0.60224 0.35301 0.09824 0.0
H1093 H 0.61777 0.23662 0.10978 0.0
H1094 H 0.62131 0.28011 0.1138 0.0
H1095 H 0.5886 0.30561 0.05676 0.0
H1096 H 0.58241 0.41808 0.08031 0.0
H1097 H 0.57479 0.37316 0.0852 0.0
C1098 C 0.34183 0.54956 0.53109 0.0
C1099 C 0.33332 0.52269 0.5313 0.0
C1100 C 0.3285 0.56222 0.52901 0.0
C1101 C 0.27416 0.55441 0.51399 0.0
H1102 H 0.2814 0.6005 0.56731 0.0
C1103 C 0.20622 0.57891 0.54566 0.0
C1104 C 0.21062 0.60366 0.55403 0.0
C1105 C 0.22258 0.57157 0.54054 0.0
C1106 C 0.27933 0.5881 0.55204 0.0
H1107 H 0.30447 0.48817 0.52725 0.0
H1108 H 0.28133 0.51026 0.52293 0.0
H1109 H 0.30788 0.58373 0.55989 0.0
H1110 H 0.2359 0.64012 0.56364 0.0
H1111 H 0.2646 0.62736 0.55437 0.0
H1112 H 0.24556 0.55853 0.50619 0.0
C1113 C 0.29825 0.52154 0.52462 0.0
C1114 C 0.29454 0.57848 0.54778 0.0
C1115 C 0.31152 0.50887 0.52702 0.0
C1116 C 0.23191 0.62084 0.55742 0.0
C1117 C 0.24837 0.61351 0.5521 0.0
C1118 C 0.25907 0.56419 0.51811 0.0
C1119 C 0.30648 0.54828 0.52667 0.0
C1120 C 0.29187 0.56111 0.52902 0.0
C1121 C 0.24389 0.58881 0.54339 0.0
C1122 C 0.26116 0.58065 0.53756 0.0
H1123 H 0.35849 0.56081 0.53459 0.0
H1124 H 0.3353 0.58286 0.53038 0.0
H1125 H 0.27181 0.54128 0.49925 0.0
H1126 H 0.19006 0.56506 0.54292 0.0
H1127 H 0.21843 0.5522 0.53449 0.0
C1128 C 0.8139 0.30685 0.0386 0.0
C1129 C 0.81529 0.33133 0.03373 0.0
C1130 C 0.79424 0.28583 0.03828 0.0
C1131 C 0.7369 0.26511 0.02335 0.0
H1132 H 0.72915 0.21954 0.07715 0.0
C1133 C 0.66436 0.19071 0.08522 0.0
C1134 C 0.64873 0.18101 0.06742 0.0
C1135 C 0.68543 0.20598 0.07905 0.0
C1136 C 0.73094 0.23215 0.06214 0.0
H1137 H 0.79792 0.35326 0.02285 0.0
H1138 H 0.76342 0.31685 0.02301 0.0
H1139 H 0.76411 0.25262 0.06869 0.0
H1140 H 0.64337 0.1781 0.02905 0.0
H1141 H 0.68008 0.20327 0.01831 0.0
H1142 H 0.70352 0.24597 0.01786 0.0
C1143 C 0.77737 0.31348 0.02671 0.0
C1144 C 0.75115 0.25091 0.05698 0.0
C1145 C 0.7971 0.33442 0.02673 0.0
C1146 C 0.65492 0.18545 0.04328 0.0
C1147 C 0.67601 0.20021 0.03711 0.0
C1148 C 0.71665 0.24663 0.02873 0.0
C1149 C 0.77559 0.28907 0.03347 0.0
C1150 C 0.75438 0.26778 0.03762 0.0
C1151 C 0.69146 0.21145 0.0549 0.0
C1152 C 0.71333 0.23 0.04832 0.0
H1153 H 0.82791 0.30413 0.04365 0.0
H1154 H 0.79359 0.26722 0.04281 0.0
H1155 H 0.73877 0.27755 0.00817 0.0
H1156 H 0.6602 0.18761 0.10399 0.0
H1157 H 0.69675 0.2144 0.09334 0.0
C1158 C 0.41429 0.76374 0.57821 0.0
C1159 C 0.39761 0.77032 0.5845 0.0
C1160 C 0.4121 0.73859 0.58109 0.0
C1161 C 0.37883 0.67832 0.61333 0.0
H1162 H 0.40542 0.64839 0.56944 0.0
C1163 C 0.35959 0.56996 0.60517 0.0
C1164 C 0.37711 0.56387 0.60228 0.0
C1165 C 0.36249 0.59551 0.6062 0.0
C1166 C 0.39807 0.65663 0.58196 0.0
H1167 H 0.36522 0.75563 0.59745 0.0
H1168 H 0.36106 0.71183 0.60141 0.0
H1169 H 0.40941 0.69203 0.56295 0.0
H1170 H 0.41151 0.57979 0.60047 0.0
H1171 H 0.41641 0.62415 0.60211 0.0
H1172 H 0.36686 0.64234 0.63174 0.0
C1173 C 0.37616 0.72607 0.59525 0.0
C1174 C 0.40041 0.68167 0.57831 0.0
C1175 C 0.37847 0.75118 0.59277 0.0
C1176 C 0.39763 0.58377 0.60246 0.0
C1177 C 0.40048 0.6092 0.60324 0.0
C1178 C 0.37623 0.65313 0.61675 0.0
C1179 C 0.39307 0.71948 0.58994 0.0
C1180 C 0.39081 0.69287 0.59393 0.0
C1181 C 0.38292 0.61531 0.60424 0.0
C1182 C 0.38589 0.64211 0.60114 0.0
H1183 H 0.42926 0.77818 0.57196 0.0
H1184 H 0.42556 0.73433 0.57702 0.0
H1185 H 0.37156 0.68642 0.62606 0.0
H1186 H 0.34357 0.55515 0.60499 0.0
H1187 H 0.34869 0.59979 0.60699 0.0
C1188 C 0.66705 0.45795 0.02121 0.0
C1189 C 0.67428 0.48377 0.02781 0.0
C1190 C 0.68133 0.44657 0.01922 0.0
C1191 C 0.73755 0.45781 0.01515 0.0
H1192 H 0.72291 0.40297 0.06152 0.0
C1193 C 0.80055 0.42619 0.05141 0.0
C1194 C 0.79463 0.40049 0.05767 0.0
C1195 C 0.78526 0.435 0.04513 0.0
C1196 C 0.72717 0.41785 0.04811 0.0
H1197 H 0.7022 0.51849 0.0351 0.0
H1198 H 0.72719 0.49889 0.03061 0.0
H1199 H 0.69734 0.42037 0.05175 0.0
H1200 H 0.76795 0.36377 0.06199 0.0
H1201 H 0.74126 0.37886 0.05029 0.0
H1202 H 0.76728 0.45528 0.01124 0.0
C1203 C 0.71051 0.48735 0.02736 0.0
C1204 C 0.71245 0.42783 0.04253 0.0
C1205 C 0.69622 0.49859 0.02984 0.0
C1206 C 0.773 0.38378 0.0576 0.0
C1207 C 0.75769 0.3925 0.05089 0.0
C1208 C 0.75215 0.44752 0.02039 0.0
C1209 C 0.70309 0.46097 0.02323 0.0
C1210 C 0.71764 0.44823 0.02635 0.0
C1211 C 0.7636 0.41825 0.04446 0.0
C1212 C 0.74737 0.42778 0.03738 0.0
H1213 H 0.65025 0.44596 0.01984 0.0
H1214 H 0.67524 0.42622 0.01585 0.0
H1215 H 0.74191 0.47347 0.00254 0.0
H1216 H 0.81705 0.43961 0.05138 0.0
H1217 H 0.7905 0.45508 0.04097 0.0
C1218 C 0.20146 0.66074 0.51599 0.0
C1219 C 0.18254 0.66267 0.52183 0.0
C1220 C 0.22048 0.68269 0.51501 0.0
C1221 C 0.24269 0.74699 0.54237 0.0
H1222 H 0.29347 0.75209 0.50955 0.0
C1223 C 0.33972 0.81272 0.53837 0.0
C1224 C 0.34355 0.81749 0.56299 0.0
C1225 C 0.31928 0.79804 0.52992 0.0
C1226 C 0.27945 0.75142 0.5186 0.0
H1227 H 0.16781 0.68857 0.52831 0.0
H1228 H 0.20082 0.72716 0.5255 0.0
H1229 H 0.25936 0.71938 0.49767 0.0
H1230 H 0.32855 0.81174 0.59787 0.0
H1231 H 0.29322 0.78507 0.58341 0.0
H1232 H 0.26264 0.77936 0.56292 0.0
C1233 C 0.20133 0.7088 0.52273 0.0
C1234 C 0.25984 0.7323 0.51198 0.0
C1235 C 0.1824 0.6868 0.52413 0.0
C1236 C 0.32624 0.80835 0.57881 0.0
C1237 C 0.30585 0.79316 0.57042 0.0
C1238 C 0.26224 0.76637 0.54871 0.0
C1239 C 0.22079 0.70694 0.51962 0.0
C1240 C 0.24124 0.72943 0.52415 0.0
C1241 C 0.30216 0.78724 0.5459 0.0
C1242 C 0.281 0.76851 0.53733 0.0
H1243 H 0.20182 0.64219 0.51408 0.0
H1244 H 0.23505 0.68033 0.51261 0.0
H1245 H 0.22885 0.74522 0.55253 0.0
H1246 H 0.35263 0.81966 0.5256 0.0
H1247 H 0.31705 0.79464 0.51085 0.0
C1248 C 0.81291 0.49109 0.45758 0.0
C1249 C 0.8143 0.46852 0.46464 0.0
C1250 C 0.79313 0.49195 0.45558 0.0
C1251 C 0.73583 0.45659 0.46988 0.0
H1252 H 0.7283 0.48888 0.41186 0.0
C1253 C 0.66303 0.45486 0.40631 0.0
C1254 C 0.64841 0.45327 0.42437 0.0
C1255 C 0.68399 0.45968 0.41215 0.0
C1256 C 0.73008 0.47963 0.42806 0.0
H1257 H 0.79671 0.42976 0.47699 0.0
H1258 H 0.76206 0.43088 0.47307 0.0
H1259 H 0.76324 0.4912 0.42188 0.0
H1260 H 0.64479 0.45699 0.46258 0.0
H1261 H 0.68126 0.46642 0.47254 0.0
H1262 H 0.70255 0.44379 0.47544 0.0
C1263 C 0.77609 0.44808 0.46921 0.0
C1264 C 0.7502 0.48131 0.43402 0.0
C1265 C 0.79589 0.44734 0.47136 0.0
C1266 C 0.65551 0.45786 0.44819 0.0
C1267 C 0.67646 0.46303 0.45397 0.0
C1268 C 0.7157 0.45472 0.46382 0.0
C1269 C 0.77442 0.47012 0.46046 0.0
C1270 C 0.7533 0.46971 0.45496 0.0
C1271 C 0.69085 0.46332 0.43614 0.0
C1272 C 0.71252 0.46615 0.4428 0.0
H1273 H 0.82707 0.50774 0.45272 0.0
H1274 H 0.79245 0.50944 0.44941 0.0
H1275 H 0.73765 0.44758 0.48621 0.0
H1276 H 0.65809 0.45136 0.38778 0.0
H1277 H 0.69456 0.45955 0.39793 0.0
C1278 C 0.31171 0.82696 0.94431 0.0
C1279 C 0.33133 0.83105 0.95467 0.0
C1280 C 0.2943 0.80348 0.94684 0.0
C1281 C 0.28453 0.73675 0.95187 0.0
H1282 H 0.2255 0.72536 0.95712 0.0
C1283 C 0.21538 0.64268 0.92154 0.0
C1284 C 0.19832 0.6322 0.93763 0.0
C1285 C 0.23124 0.6673 0.92525 0.0
C1286 C 0.24192 0.72823 0.95572 0.0
H1287 H 0.34764 0.81454 0.97742 0.0
H1288 H 0.31711 0.77336 0.98188 0.0
H1289 H 0.25335 0.76806 0.96424 0.0
H1290 H 0.18461 0.6397 0.97015 0.0
H1291 H 0.21194 0.6824 0.97624 0.0
H1292 H 0.27311 0.69703 0.94301 0.0
C1293 C 0.3153 0.78834 0.97168 0.0
C1294 C 0.25783 0.75266 0.95976 0.0
C1295 C 0.33268 0.81201 0.9694 0.0
C1296 C 0.19736 0.64709 0.95723 0.0
C1297 C 0.21303 0.67167 0.96076 0.0
C1298 C 0.26862 0.71239 0.94761 0.0
C1299 C 0.29622 0.78352 0.95958 0.0
C1300 C 0.27931 0.7572 0.95777 0.0
C1301 C 0.23023 0.682 0.94495 0.0
C1302 C 0.24715 0.7079 0.94935 0.0
H1303 H 0.31024 0.84131 0.93283 0.0
H1304 H 0.27984 0.80036 0.93728 0.0
H1305 H 0.30093 0.73976 0.94983 0.0
H1306 H 0.21669 0.63173 0.90634 0.0
H1307 H 0.24427 0.67488 0.91266 0.0
C1308 C 0.62476 0.19663 0.40085 0.0
C1309 C 0.60855 0.17317 0.40762 0.0
C1310 C 0.62049 0.21825 0.39831 0.0
C1311 C 0.58167 0.24237 0.41995 0.0
H1312 H 0.61162 0.29842 0.37667 0.0
C1313 C 0.58067 0.34199 0.43077 0.0
C1314 C 0.58124 0.35582 0.40986 0.0
C1315 C 0.58276 0.31884 0.42947 0.0
C1316 C 0.60288 0.28283 0.3887 0.0
H1317 H 0.57498 0.1532 0.41498 0.0
H1318 H 0.56729 0.19045 0.40949 0.0
H1319 H 0.61713 0.25943 0.37387 0.0
H1320 H 0.58354 0.35547 0.3711 0.0
H1321 H 0.58628 0.31496 0.36882 0.0
H1322 H 0.567 0.26547 0.43437 0.0
C1323 C 0.58345 0.1926 0.40709 0.0
C1324 C 0.60628 0.26056 0.38728 0.0
C1325 C 0.58778 0.17118 0.40997 0.0
C1326 C 0.5831 0.34546 0.38762 0.0
C1327 C 0.58493 0.32228 0.3863 0.0
C1328 C 0.57814 0.26454 0.42123 0.0
C1329 C 0.59988 0.21664 0.40222 0.0
C1330 C 0.59575 0.24005 0.40293 0.0
C1331 C 0.58525 0.3089 0.4072 0.0
C1332 C 0.58874 0.28509 0.40568 0.0
H1333 H 0.64096 0.19869 0.39925 0.0
H1334 H 0.63358 0.23645 0.39467 0.0
H1335 H 0.57358 0.22721 0.43264 0.0
H1336 H 0.57941 0.34949 0.4482 0.0
H1337 H 0.58314 0.30919 0.44598 0.0
C1338 C 0.20843 0.55646 0.98498 0.0
C1339 C 0.18961 0.53718 0.97637 0.0
C1340 C 0.22636 0.55158 0.98851 0.0
C1341 C 0.26347 0.53733 0.99513 0.0
H1342 H 0.26969 0.50084 0.9394 0.0
C1343 C 0.34374 0.53515 0.97095 0.0
C1344 C 0.34964 0.53952 0.94669 0.0
C1345 C 0.32302 0.52988 0.97813 0.0
C1346 C 0.26825 0.51109 0.95506 0.0
H1347 H 0.17395 0.49732 0.96658 0.0
H1348 H 0.20494 0.48832 0.97378 0.0
H1349 H 0.23533 0.50041 0.9486 0.0
H1350 H 0.33808 0.54115 0.91092 0.0
H1351 H 0.30214 0.53237 0.92346 0.0
H1352 H 0.29678 0.54939 0.0006 0.0
C1353 C 0.2061 0.50735 0.97741 0.0
C1354 C 0.24841 0.51049 0.96062 0.0
C1355 C 0.18823 0.51232 0.97372 0.0
C1356 C 0.33413 0.53777 0.92973 0.0
C1357 C 0.31343 0.53258 0.93693 0.0
C1358 C 0.28337 0.53801 0.9895 0.0
C1359 C 0.22572 0.5273 0.9834 0.0
C1360 C 0.24586 0.52416 0.98036 0.0
C1361 C 0.30768 0.5289 0.96126 0.0
C1362 C 0.28611 0.52548 0.969 0.0
H1363 H 0.20997 0.57594 0.98647 0.0
H1364 H 0.24116 0.5675 0.99294 0.0
H1365 H 0.26205 0.54786 0.01059 0.0
H1366 H 0.3552 0.53621 0.98455 0.0
H1367 H 0.31907 0.52679 0.99696 0.0
C1368 C 0.66614 0.19166 0.48284 0.0
C1369 C 0.67052 0.17331 0.47016 0.0
C1370 C 0.68198 0.21641 0.486 0.0
C1371 C 0.74001 0.2568 0.47825 0.0
H1372 H 0.72119 0.30887 0.45948 0.0
C1373 C 0.79886 0.36226 0.4679 0.0
C1374 C 0.79581 0.37619 0.44868 0.0
C1375 C 0.78348 0.33809 0.47379 0.0
C1376 C 0.72674 0.29455 0.46461 0.0
H1377 H 0.69542 0.16567 0.45323 0.0
H1378 H 0.72282 0.20838 0.45872 0.0
H1379 H 0.69514 0.2653 0.46643 0.0
H1380 H 0.77398 0.37529 0.42051 0.0
H1381 H 0.74736 0.3327 0.43036 0.0
H1382 H 0.77162 0.28562 0.47517 0.0
C1383 C 0.70727 0.20398 0.46618 0.0
C1384 C 0.71176 0.26963 0.46903 0.0
C1385 C 0.6915 0.1794 0.46296 0.0
C1386 C 0.77691 0.36517 0.43542 0.0
C1387 C 0.76153 0.34081 0.44123 0.0
C1388 C 0.75497 0.28165 0.47372 0.0
C1389 C 0.7025 0.22314 0.47674 0.0
C1390 C 0.71822 0.25032 0.4755 0.0
C1391 C 0.76463 0.32696 0.4605 0.0
C1392 C 0.74856 0.30079 0.46648 0.0
H1393 H 0.65015 0.1876 0.48859 0.0
H1394 H 0.67789 0.2306 0.49465 0.0
H1395 H 0.74556 0.24249 0.48341 0.0
H1396 H 0.81312 0.37004 0.47867 0.0
H1397 H 0.78631 0.32825 0.48897 0.0
C1398 C 0.4291 0.65208 0.91278 0.0
C1399 C 0.42122 0.63628 0.93286 0.0
C1400 C 0.4291 0.6763 0.91208 0.0
C1401 C 0.39879 0.70994 0.93384 0.0
H1402 H 0.44566 0.77082 0.9106 0.0
C1403 C 0.38835 0.80022 0.90457 0.0
C1404 C 0.40226 0.82281 0.91584 0.0
C1405 C 0.39196 0.77808 0.90593 0.0
C1406 C 0.43246 0.75395 0.9171 0.0
H1407 H 0.4079 0.63365 0.96834 0.0
H1408 H 0.40754 0.67612 0.96697 0.0
H1409 H 0.45057 0.73148 0.91681 0.0
H1410 H 0.43147 0.84032 0.93612 0.0
H1411 H 0.438 0.80188 0.93794 0.0
H1412 H 0.38058 0.73226 0.93378 0.0
C1413 C 0.4138 0.66968 0.95184 0.0
C1414 C 0.43526 0.73151 0.92064 0.0
C1415 C 0.41417 0.64555 0.95272 0.0
C1416 C 0.42043 0.82319 0.92732 0.0
C1417 C 0.42421 0.80122 0.92833 0.0
C1418 C 0.3959 0.73226 0.92995 0.0
C1419 C 0.4209 0.68505 0.93131 0.0
C1420 C 0.41845 0.70931 0.92905 0.0
C1421 C 0.40974 0.7783 0.91818 0.0
C1422 C 0.41269 0.75446 0.92152 0.0
H1423 H 0.43478 0.64546 0.89734 0.0
H1424 H 0.43459 0.6877 0.89601 0.0
H1425 H 0.3855 0.69299 0.94006 0.0
H1426 H 0.37414 0.79931 0.89574 0.0
H1427 H 0.38066 0.76065 0.89777 0.0
loop_
_geom_bond_atom_site_label_1
_geom_bond_atom_site_label_2
_geom_bond_distance
_geom_bond_site_symmetry_2
_ccdc_geom_bond_type
Co0 O2 2.143 . S
Co0 O8 2.074 . S
Co0 O11 2.093 . S
Co0 O24 2.097 . S
Co0 N41 2.151 . S
Co0 N49 2.214 . S
Co1 O2 2.160 . S
Co1 O7 2.058 . S
Co1 O17 2.057 . S
Co1 O32 2.037 . S
Co1 N36 2.145 1_554 S
Co1 N57 2.257 . S
O2 Co0 2.143 . S
O2 Co1 2.160 . S
C3 O4 1.278 . S
C3 O11 1.224 . S
O4 C3 1.278 . S
C5 O6 1.245 . S
C5 O17 1.232 . S
O6 C5 1.245 . S
O7 Co1 2.058 . S
O7 C33 1.269 . S
O8 Co0 2.074 . S
O8 C33 1.257 . S
H9 C34 0.930 . S
H10 C40 0.930 . S
O11 Co0 2.093 . S
O11 C3 1.224 . S
H12 C44 0.929 . S
H13 C46 0.930 . S
H14 C47 0.930 . S
H15 C45 0.929 . S
H16 C48 0.928 . S
O17 Co1 2.057 . S
O17 C5 1.232 . S
H18 C37 0.929 . S
H19 C38 0.929 . S
H20 C50 0.931 . S
H21 C42 0.929 . S
H22 C51 0.930 . S
H23 C43 0.931 . S
O24 Co0 2.097 . S
O24 C52 1.214 . S
H25 C53 0.929 . S
H26 C54 0.929 . S
H27 C55 0.930 . S
H28 C56 0.929 . S
H29 C58 0.930 . S
H30 C35 0.930 . S
H31 C39 0.930 . S
O32 Co1 2.037 . S
O32 C52 1.234 . S
C33 O7 1.269 . S
C33 O8 1.257 . S
C34 H9 0.930 . S
C34 C37 1.388 . S
C34 C39 1.418 . S
C35 H30 0.930 . S
C35 C38 1.404 . S
C35 C39 1.353 . S
N36 Co1 2.145 1_556 S
N36 C37 1.397 . S
N36 C38 1.334 . S
C37 H18 0.929 . S
C37 C34 1.388 . S
C37 N36 1.397 . S
C38 H19 0.929 . S
C38 C35 1.404 . S
C38 N36 1.334 . S
C39 H31 0.930 . S
C39 C34 1.418 . S
C39 C35 1.353 . S
C40 H10 0.930 . S
C40 N41 1.330 . S
C40 C42 1.446 . S
N41 Co0 2.151 . S
N41 C40 1.330 . S
N41 C45 1.418 . S
C42 H21 0.929 . S
C42 C40 1.446 . S
C42 C43 1.332 . S
C43 H23 0.931 . S
C43 C42 1.332 . S
C43 C44 1.267 . S
C44 H12 0.929 . S
C44 C43 1.267 . S
C44 C45 1.251 . S
C45 H15 0.929 . S
C45 N41 1.418 . S
C45 C44 1.251 . S
C46 H13 0.930 . S
C46 C48 1.406 . S
C46 C51 1.261 . S
C47 H14 0.930 . S
C47 N49 1.325 . S
C47 C50 1.357 . S
C48 H16 0.928 . S
C48 C46 1.406 . S
C48 N49 1.261 . S
N49 Co0 2.214 . S
N49 C47 1.325 . S
N49 C48 1.261 . S
C50 H20 0.931 . S
C50 C47 1.357 . S
C50 C51 1.312 . S
C51 H22 0.930 . S
C51 C46 1.261 . S
C51 C50 1.312 . S
C52 O24 1.214 . S
C52 O32 1.234 . S
C53 H25 0.929 . S
C53 C56 1.391 . S
C53 C58 1.391 . S
C54 H26 0.929 . S
C54 C55 1.390 . S
C54 N57 1.391 . S
C55 H27 0.930 . S
C55 C54 1.390 . S
C55 C56 1.392 . S
C56 H28 0.929 . S
C56 C53 1.391 . S
C56 C55 1.392 . S
N57 Co1 2.257 . S
N57 C54 1.391 . S
N57 C58 1.388 . S
C58 H29 0.930 . S
C58 C53 1.391 . S
C58 N57 1.388 . S
Co59 O61 2.143 . S
Co59 O67 2.074 . S
Co59 O70 2.093 . S
Co59 O83 2.097 . S
Co59 N100 2.151 . S
Co59 N108 2.214 . S
Co60 O61 2.160 . S
Co60 O66 2.058 . S
Co60 O76 2.057 . S
Co60 O91 2.037 . S
Co60 N95 2.145 . S
Co60 N116 2.257 . S
O61 Co59 2.143 . S
O61 Co60 2.160 . S
C62 O63 1.278 . S
C62 O70 1.224 . S
O63 C62 1.278 . S
C64 O65 1.245 . S
C64 O76 1.232 . S
O65 C64 1.245 . S
O66 Co60 2.058 . S
O66 C92 1.269 . S
O67 Co59 2.074 . S
O67 C92 1.257 . S
H68 C93 0.930 . S
H69 C99 0.930 . S
O70 Co59 2.093 . S
O70 C62 1.224 . S
H71 C103 0.929 . S
H72 C105 0.930 . S
H73 C106 0.930 . S
H74 C104 0.929 . S
H75 C107 0.928 . S
O76 Co60 2.057 . S
O76 C64 1.232 . S
H77 C96 0.929 . S
H78 C97 0.929 . S
H79 C109 0.931 . S
H80 C101 0.929 . S
H81 C110 0.930 . S
H82 C102 0.931 . S
O83 Co59 2.097 . S
O83 C111 1.214 . S
H84 C112 0.929 . S
H85 C113 0.929 . S
H86 C114 0.930 . S
H87 C115 0.929 . S
H88 C117 0.930 . S
H89 C94 0.930 . S
H90 C98 0.930 . S
O91 Co60 2.037 . S
O91 C111 1.234 . S
C92 O66 1.269 . S
C92 O67 1.257 . S
C93 H68 0.930 . S
C93 C96 1.388 . S
C93 C98 1.418 . S
C94 H89 0.930 . S
C94 C97 1.404 . S
C94 C98 1.353 . S
N95 Co60 2.145 . S
N95 C96 1.397 . S
N95 C97 1.334 . S
C96 H77 0.929 . S
C96 C93 1.388 . S
C96 N95 1.397 . S
C97 H78 0.929 . S
C97 C94 1.404 . S
C97 N95 1.334 . S
C98 H90 0.930 . S
C98 C93 1.418 . S
C98 C94 1.353 . S
C99 H69 0.930 . S
C99 N100 1.330 . S
C99 C101 1.446 . S
N100 Co59 2.151 . S
N100 C99 1.330 . S
N100 C104 1.418 . S
C101 H80 0.929 . S
C101 C99 1.446 . S
C101 C102 1.332 . S
C102 H82 0.931 . S
C102 C101 1.332 . S
C102 C103 1.267 . S
C103 H71 0.929 . S
C103 C102 1.267 . S
C103 C104 1.251 . S
C104 H74 0.929 . S
C104 N100 1.418 . S
C104 C103 1.251 . S
C105 H72 0.930 . S
C105 C107 1.406 . S
C105 C110 1.261 . S
C106 H73 0.930 . S
C106 N108 1.325 . S
C106 C109 1.357 . S
C107 H75 0.928 . S
C107 C105 1.406 . S
C107 N108 1.261 . S
N108 Co59 2.214 . S
N108 C106 1.325 . S
N108 C107 1.261 . S
C109 H79 0.931 . S
C109 C106 1.357 . S
C109 C110 1.312 . S
C110 H81 0.930 . S
C110 C105 1.261 . S
C110 C109 1.312 . S
C111 O83 1.214 . S
C111 O91 1.234 . S
C112 H84 0.929 . S
C112 C115 1.391 . S
C112 C117 1.391 . S
C113 H85 0.929 . S
C113 C114 1.390 . S
C113 N116 1.391 . S
C114 H86 0.930 . S
C114 C113 1.390 . S
C114 C115 1.392 . S
C115 H87 0.929 . S
C115 C112 1.391 . S
C115 C114 1.392 . S
N116 Co60 2.257 . S
N116 C113 1.391 . S
N116 C117 1.388 . S
C117 H88 0.930 . S
C117 C112 1.391 . S
C117 N116 1.388 . S
Co118 O120 2.143 . S
Co118 O126 2.074 . S
Co118 O129 2.093 . S
Co118 O142 2.097 . S
Co118 N159 2.151 . S
Co118 N167 2.214 1_554 S
Co119 O120 2.160 . S
Co119 O125 2.058 . S
Co119 O135 2.057 . S
Co119 O150 2.037 . S
Co119 N154 2.145 . S
Co119 N175 2.257 . S
O120 Co118 2.143 . S
O120 Co119 2.160 . S
C121 O122 1.278 . S
C121 O129 1.224 . S
O122 C121 1.278 . S
C123 O124 1.245 . S
C123 O135 1.232 . S
O124 C123 1.245 . S
O125 Co119 2.058 . S
O125 C151 1.269 . S
O126 Co118 2.074 . S
O126 C151 1.257 . S
H127 C152 0.930 . S
H128 C158 0.930 . S
O129 Co118 2.093 . S
O129 C121 1.224 . S
H130 C162 0.929 . S
H131 C164 0.930 . S
H132 C165 0.930 . S
H133 C163 0.929 . S
H134 C166 0.928 . S
O135 Co119 2.057 . S
O135 C123 1.232 . S
H136 C155 0.929 . S
H137 C156 0.929 . S
H138 C168 0.931 . S
H139 C160 0.929 . S
H140 C169 0.930 . S
H141 C161 0.931 . S
O142 Co118 2.097 . S
O142 C170 1.214 . S
H143 C171 0.929 . S
H144 C172 0.929 . S
H145 C173 0.930 . S
H146 C174 0.929 . S
H147 C176 0.930 . S
H148 C153 0.930 . S
H149 C157 0.930 . S
O150 Co119 2.037 . S
O150 C170 1.234 . S
C151 O125 1.269 . S
C151 O126 1.257 . S
C152 H127 0.930 . S
C152 C155 1.388 . S
C152 C157 1.418 . S
C153 H148 0.930 . S
C153 C156 1.404 . S
C153 C157 1.353 . S
N154 Co119 2.145 . S
N154 C155 1.397 . S
N154 C156 1.334 . S
C155 H136 0.929 . S
C155 C152 1.388 . S
C155 N154 1.397 . S
C156 H137 0.929 . S
C156 C153 1.404 . S
C156 N154 1.334 . S
C157 H149 0.930 . S
C157 C152 1.418 . S
C157 C153 1.353 . S
C158 H128 0.930 . S
C158 N159 1.330 . S
C158 C160 1.446 . S
N159 Co118 2.151 . S
N159 C158 1.330 . S
N159 C163 1.418 . S
C160 H139 0.929 . S
C160 C158 1.446 . S
C160 C161 1.332 . S
C161 H141 0.931 . S
C161 C160 1.332 . S
C161 C162 1.267 . S
C162 H130 0.929 . S
C162 C161 1.267 . S
C162 C163 1.251 . S
C163 H133 0.929 . S
C163 N159 1.418 . S
C163 C162 1.251 . S
C164 H131 0.930 . S
C164 C166 1.406 . S
C164 C169 1.261 . S
C165 H132 0.930 . S
C165 N167 1.325 . S
C165 C168 1.357 . S
C166 H134 0.928 . S
C166 C164 1.406 . S
C166 N167 1.261 . S
N167 Co118 2.214 1_556 S
N167 C165 1.325 . S
N167 C166 1.261 . S
C168 H138 0.931 . S
C168 C165 1.357 . S
C168 C169 1.312 . S
C169 H140 0.930 . S
C169 C164 1.261 . S
C169 C168 1.312 . S
C170 O142 1.214 . S
C170 O150 1.234 . S
C171 H143 0.929 . S
C171 C174 1.391 . S
C171 C176 1.391 . S
C172 H144 0.929 . S
C172 C173 1.390 . S
C172 N175 1.391 . S
C173 H145 0.930 . S
C173 C172 1.390 . S
C173 C174 1.392 . S
C174 H146 0.929 . S
C174 C171 1.391 . S
C174 C173 1.392 . S
N175 Co119 2.257 . S
N175 C172 1.391 . S
N175 C176 1.388 . S
C176 H147 0.930 . S
C176 C171 1.391 . S
C176 N175 1.388 . S
Co177 O179 2.143 . S
Co177 O185 2.074 . S
Co177 O188 2.093 . S
Co177 O201 2.097 . S
Co177 N218 2.151 . S
Co177 N226 2.214 . S
Co178 O179 2.160 . S
Co178 O184 2.058 . S
Co178 O194 2.057 . S
Co178 O209 2.037 . S
Co178 N213 2.145 . S
Co178 N234 2.257 . S
O179 Co177 2.143 . S
O179 Co178 2.160 . S
C180 O181 1.278 . S
C180 O188 1.224 . S
O181 C180 1.278 . S
C182 O183 1.245 . S
C182 O194 1.232 . S
O183 C182 1.245 . S
O184 Co178 2.058 . S
O184 C210 1.269 . S
O185 Co177 2.074 . S
O185 C210 1.257 . S
H186 C211 0.930 . S
H187 C217 0.930 . S
O188 Co177 2.093 . S
O188 C180 1.224 . S
H189 C221 0.929 . S
H190 C223 0.930 . S
H191 C224 0.930 . S
H192 C222 0.929 . S
H193 C225 0.928 . S
O194 Co178 2.057 . S
O194 C182 1.232 . S
H195 C214 0.929 . S
H196 C215 0.929 . S
H197 C227 0.931 . S
H198 C219 0.929 . S
H199 C228 0.930 . S
H200 C220 0.931 . S
O201 Co177 2.097 . S
O201 C229 1.214 . S
H202 C230 0.929 . S
H203 C231 0.929 . S
H204 C232 0.930 . S
H205 C233 0.929 . S
H206 C235 0.930 . S
H207 C212 0.930 . S
H208 C216 0.930 . S
O209 Co178 2.037 . S
O209 C229 1.234 . S
C210 O184 1.269 . S
C210 O185 1.257 . S
C211 H186 0.930 . S
C211 C214 1.388 . S
C211 C216 1.418 . S
C212 H207 0.930 . S
C212 C215 1.404 . S
C212 C216 1.353 . S
N213 Co178 2.145 . S
N213 C214 1.397 . S
N213 C215 1.334 . S
C214 H195 0.929 . S
C214 C211 1.388 . S
C214 N213 1.397 . S
C215 H196 0.929 . S
C215 C212 1.404 . S
C215 N213 1.334 . S
C216 H208 0.930 . S
C216 C211 1.418 . S
C216 C212 1.353 . S
C217 H187 0.930 . S
C217 N218 1.330 . S
C217 C219 1.446 . S
N218 Co177 2.151 . S
N218 C217 1.330 . S
N218 C222 1.418 . S
C219 H198 0.929 . S
C219 C217 1.446 . S
C219 C220 1.332 . S
C220 H200 0.931 . S
C220 C219 1.332 . S
C220 C221 1.267 . S
C221 H189 0.929 . S
C221 C220 1.267 . S
C221 C222 1.251 . S
C222 H192 0.929 . S
C222 N218 1.418 . S
C222 C221 1.251 . S
C223 H190 0.930 . S
C223 C225 1.406 . S
C223 C228 1.261 . S
C224 H191 0.930 . S
C224 N226 1.325 . S
C224 C227 1.357 . S
C225 H193 0.928 . S
C225 C223 1.406 . S
C225 N226 1.261 . S
N226 Co177 2.214 . S
N226 C224 1.325 . S
N226 C225 1.261 . S
C227 H197 0.931 . S
C227 C224 1.357 . S
C227 C228 1.312 . S
C228 H199 0.930 . S
C228 C223 1.261 . S
C228 C227 1.312 . S
C229 O201 1.214 . S
C229 O209 1.234 . S
C230 H202 0.929 . S
C230 C233 1.391 . S
C230 C235 1.391 . S
C231 H203 0.929 . S
C231 C232 1.390 . S
C231 N234 1.391 . S
C232 H204 0.930 . S
C232 C231 1.390 . S
C232 C233 1.392 . S
C233 H205 0.929 . S
C233 C230 1.391 . S
C233 C232 1.392 . S
N234 Co178 2.257 . S
N234 C231 1.391 . S
N234 C235 1.388 . S
C235 H206 0.930 . S
C235 C230 1.391 . S
C235 N234 1.388 . S
Co236 O238 2.143 . S
Co236 O244 2.074 . S
Co236 O247 2.093 . S
Co236 O260 2.097 . S
Co236 N277 2.151 . S
Co236 N285 2.214 . S
Co237 O238 2.160 . S
Co237 O243 2.058 . S
Co237 O253 2.057 . S
Co237 O268 2.037 . S
Co237 N272 2.145 . S
Co237 N293 2.257 . S
O238 Co236 2.143 . S
O238 Co237 2.160 . S
C239 O240 1.278 . S
C239 O247 1.224 . S
O240 C239 1.278 . S
C241 O242 1.245 . S
C241 O253 1.232 . S
O242 C241 1.245 . S
O243 Co237 2.058 . S
O243 C269 1.269 . S
O244 Co236 2.074 . S
O244 C269 1.257 . S
H245 C270 0.930 . S
H246 C276 0.930 . S
O247 Co236 2.093 . S
O247 C239 1.224 . S
H248 C280 0.929 . S
H249 C282 0.930 . S
H250 C283 0.930 . S
H251 C281 0.929 . S
H252 C284 0.928 . S
O253 Co237 2.057 . S
O253 C241 1.232 . S
H254 C273 0.929 1_554 S
H255 C274 0.929 . S
H256 C286 0.931 . S
H257 C278 0.929 . S
H258 C287 0.930 . S
H259 C279 0.931 . S
O260 Co236 2.097 . S
O260 C288 1.214 . S
H261 C289 0.929 . S
H262 C290 0.929 . S
H263 C291 0.930 . S
H264 C292 0.929 . S
H265 C294 0.930 . S
H266 C271 0.930 . S
H267 C275 0.930 . S
O268 Co237 2.037 . S
O268 C288 1.234 . S
C269 O243 1.269 . S
C269 O244 1.257 . S
C270 H245 0.930 . S
C270 C273 1.388 . S
C270 C275 1.418 . S
C271 H266 0.930 . S
C271 C274 1.404 . S
C271 C275 1.353 . S
N272 Co237 2.145 . S
N272 C273 1.397 1_554 S
N272 C274 1.334 1_554 S
C273 H254 0.929 1_556 S
C273 C270 1.388 . S
C273 N272 1.397 1_556 S
C274 H255 0.929 . S
C274 C271 1.404 . S
C274 N272 1.334 1_556 S
C275 H267 0.930 . S
C275 C270 1.418 . S
C275 C271 1.353 . S
C276 H246 0.930 . S
C276 N277 1.330 . S
C276 C278 1.446 . S
N277 Co236 2.151 . S
N277 C276 1.330 . S
N277 C281 1.418 . S
C278 H257 0.929 . S
C278 C276 1.446 . S
C278 C279 1.332 . S
C279 H259 0.931 . S
C279 C278 1.332 . S
C279 C280 1.267 . S
C280 H248 0.929 . S
C280 C279 1.267 . S
C280 C281 1.251 . S
C281 H251 0.929 . S
C281 N277 1.418 . S
C281 C280 1.251 . S
C282 H249 0.930 . S
C282 C284 1.406 . S
C282 C287 1.261 . S
C283 H250 0.930 . S
C283 N285 1.325 . S
C283 C286 1.357 . S
C284 H252 0.928 . S
C284 C282 1.406 . S
C284 N285 1.261 . S
N285 Co236 2.214 . S
N285 C283 1.325 . S
N285 C284 1.261 . S
C286 H256 0.931 . S
C286 C283 1.357 . S
C286 C287 1.312 . S
C287 H258 0.930 . S
C287 C282 1.261 . S
C287 C286 1.312 . S
C288 O260 1.214 . S
C288 O268 1.234 . S
C289 H261 0.929 . S
C289 C292 1.391 . S
C289 C294 1.391 . S
C290 H262 0.929 . S
C290 C291 1.390 . S
C290 N293 1.391 . S
C291 H263 0.930 . S
C291 C290 1.390 . S
C291 C292 1.392 . S
C292 H264 0.929 . S
C292 C289 1.391 . S
C292 C291 1.392 . S
N293 Co237 2.257 . S
N293 C290 1.391 . S
N293 C294 1.388 . S
C294 H265 0.930 . S
C294 C289 1.391 . S
C294 N293 1.388 . S
Co295 O297 2.143 . S
Co295 O303 2.074 . S
Co295 O306 2.093 . S
Co295 O319 2.097 . S
Co295 N336 2.151 . S
Co295 N344 2.214 . S
Co296 O297 2.160 . S
Co296 O302 2.058 . S
Co296 O312 2.057 . S
Co296 O327 2.037 . S
Co296 N331 2.145 . S
Co296 N352 2.257 . S
O297 Co295 2.143 . S
O297 Co296 2.160 . S
C298 O299 1.278 . S
C298 O306 1.224 . S
O299 C298 1.278 . S
C300 O301 1.245 . S
C300 O312 1.232 . S
O301 C300 1.245 . S
O302 Co296 2.058 . S
O302 C328 1.269 . S
O303 Co295 2.074 . S
O303 C328 1.257 . S
H304 C329 0.930 . S
H305 C335 0.930 . S
O306 Co295 2.093 . S
O306 C298 1.224 . S
H307 C339 0.929 . S
H308 C341 0.930 . S
H309 C342 0.930 . S
H310 C340 0.929 . S
H311 C343 0.928 . S
O312 Co296 2.057 . S
O312 C300 1.232 . S
H313 C332 0.929 . S
H314 C333 0.929 . S
H315 C345 0.931 . S
H316 C337 0.929 . S
H317 C346 0.930 . S
H318 C338 0.931 . S
O319 Co295 2.097 . S
O319 C347 1.214 . S
H320 C348 0.929 . S
H321 C349 0.929 . S
H322 C350 0.930 . S
H323 C351 0.929 . S
H324 C353 0.930 . S
H325 C330 0.930 . S
H326 C334 0.930 . S
O327 Co296 2.037 . S
O327 C347 1.234 . S
C328 O302 1.269 . S
C328 O303 1.257 . S
C329 H304 0.930 . S
C329 C332 1.388 . S
C329 C334 1.418 . S
C330 H325 0.930 . S
C330 C333 1.404 . S
C330 C334 1.353 . S
N331 Co296 2.145 . S
N331 C332 1.397 . S
N331 C333 1.334 . S
C332 H313 0.929 . S
C332 C329 1.388 . S
C332 N331 1.397 . S
C333 H314 0.929 . S
C333 C330 1.404 . S
C333 N331 1.334 . S
C334 H326 0.930 . S
C334 C329 1.418 . S
C334 C330 1.353 . S
C335 H305 0.930 . S
C335 N336 1.330 . S
C335 C337 1.446 . S
N336 Co295 2.151 . S
N336 C335 1.330 . S
N336 C340 1.418 . S
C337 H316 0.929 . S
C337 C335 1.446 . S
C337 C338 1.332 . S
C338 H318 0.931 . S
C338 C337 1.332 . S
C338 C339 1.267 . S
C339 H307 0.929 . S
C339 C338 1.267 . S
C339 C340 1.251 . S
C340 H310 0.929 . S
C340 N336 1.418 . S
C340 C339 1.251 . S
C341 H308 0.930 . S
C341 C343 1.406 . S
C341 C346 1.261 . S
C342 H309 0.930 . S
C342 N344 1.325 . S
C342 C345 1.357 . S
C343 H311 0.928 . S
C343 C341 1.406 . S
C343 N344 1.261 . S
N344 Co295 2.214 . S
N344 C342 1.325 . S
N344 C343 1.261 . S
C345 H315 0.931 . S
C345 C342 1.357 . S
C345 C346 1.312 . S
C346 H317 0.930 . S
C346 C341 1.261 . S
C346 C345 1.312 . S
C347 O319 1.214 . S
C347 O327 1.234 . S
C348 H320 0.929 . S
C348 C351 1.391 . S
C348 C353 1.391 . S
C349 H321 0.929 . S
C349 C350 1.390 . S
C349 N352 1.391 . S
C350 H322 0.930 . S
C350 C349 1.390 . S
C350 C351 1.392 . S
C351 H323 0.929 . S
C351 C348 1.391 . S
C351 C350 1.392 . S
N352 Co296 2.257 . S
N352 C349 1.391 . S
N352 C353 1.388 . S
C353 H324 0.930 . S
C353 C348 1.391 . S
C353 N352 1.388 . S
Co354 O356 2.143 . S
Co354 O362 2.074 . S
Co354 O365 2.093 . S
Co354 O378 2.097 . S
Co354 N395 2.151 . S
Co354 N403 2.214 . S
Co355 O356 2.160 . S
Co355 O361 2.058 . S
Co355 O371 2.057 . S
Co355 O386 2.037 . S
Co355 N390 2.145 . S
Co355 N411 2.257 . S
O356 Co354 2.143 . S
O356 Co355 2.160 . S
C357 O358 1.278 . S
C357 O365 1.224 . S
O358 C357 1.278 . S
C359 O360 1.245 . S
C359 O371 1.232 . S
O360 C359 1.245 . S
O361 Co355 2.058 . S
O361 C387 1.269 . S
O362 Co354 2.074 . S
O362 C387 1.257 . S
H363 C388 0.930 . S
H364 C394 0.930 . S
O365 Co354 2.093 . S
O365 C357 1.224 . S
H366 C398 0.929 . S
H367 C400 0.930 . S
H368 C401 0.930 . S
H369 C399 0.929 . S
H370 C402 0.928 . S
O371 Co355 2.057 . S
O371 C359 1.232 . S
H372 C391 0.929 . S
H373 C392 0.929 . S
H374 C404 0.931 . S
H375 C396 0.929 . S
H376 C405 0.930 . S
H377 C397 0.931 . S
O378 Co354 2.097 . S
O378 C406 1.214 . S
H379 C407 0.929 . S
H380 C408 0.929 . S
H381 C409 0.930 . S
H382 C410 0.929 . S
H383 C412 0.930 . S
H384 C389 0.930 . S
H385 C393 0.930 . S
O386 Co355 2.037 . S
O386 C406 1.234 . S
C387 O361 1.269 . S
C387 O362 1.257 . S
C388 H363 0.930 . S
C388 C391 1.388 . S
C388 C393 1.418 . S
C389 H384 0.930 . S
C389 C392 1.404 . S
C389 C393 1.353 . S
N390 Co355 2.145 . S
N390 C391 1.397 . S
N390 C392 1.334 . S
C391 H372 0.929 . S
C391 C388 1.388 . S
C391 N390 1.397 . S
C392 H373 0.929 . S
C392 C389 1.404 . S
C392 N390 1.334 . S
C393 H385 0.930 . S
C393 C388 1.418 . S
C393 C389 1.353 . S
C394 H364 0.930 . S
C394 N395 1.330 . S
C394 C396 1.446 . S
N395 Co354 2.151 . S
N395 C394 1.330 . S
N395 C399 1.418 . S
C396 H375 0.929 . S
C396 C394 1.446 . S
C396 C397 1.332 . S
C397 H377 0.931 . S
C397 C396 1.332 . S
C397 C398 1.267 . S
C398 H366 0.929 . S
C398 C397 1.267 . S
C398 C399 1.251 . S
C399 H369 0.929 . S
C399 N395 1.418 . S
C399 C398 1.251 . S
C400 H367 0.930 . S
C400 C402 1.406 . S
C400 C405 1.261 . S
C401 H368 0.930 . S
C401 N403 1.325 . S
C401 C404 1.357 . S
C402 H370 0.928 . S
C402 C400 1.406 . S
C402 N403 1.261 . S
N403 Co354 2.214 . S
N403 C401 1.325 . S
N403 C402 1.261 . S
C404 H374 0.931 . S
C404 C401 1.357 . S
C404 C405 1.312 . S
C405 H376 0.930 . S
C405 C400 1.261 . S
C405 C404 1.312 . S
C406 O378 1.214 . S
C406 O386 1.234 . S
C407 H379 0.929 . S
C407 C410 1.391 . S
C407 C412 1.391 . S
C408 H380 0.929 . S
C408 C409 1.390 . S
C408 N411 1.391 . S
C409 H381 0.930 . S
C409 C408 1.390 . S
C409 C410 1.392 . S
C410 H382 0.929 . S
C410 C407 1.391 . S
C410 C409 1.392 . S
N411 Co355 2.257 . S
N411 C408 1.391 . S
N411 C412 1.388 . S
C412 H383 0.930 . S
C412 C407 1.391 . S
C412 N411 1.388 . S
Co413 O415 2.143 . S
Co413 O421 2.074 . S
Co413 O424 2.093 . S
Co413 O437 2.097 . S
Co413 N454 2.151 . S
Co413 N462 2.214 . S
Co414 O415 2.160 . S
Co414 O420 2.058 . S
Co414 O430 2.057 . S
Co414 O445 2.037 . S
Co414 N449 2.145 . S
Co414 N470 2.257 . S
O415 Co413 2.143 . S
O415 Co414 2.160 . S
C416 O417 1.278 . S
C416 O424 1.224 . S
O417 C416 1.278 . S
C418 O419 1.245 . S
C418 O430 1.232 . S
O419 C418 1.245 . S
O420 Co414 2.058 . S
O420 C446 1.269 . S
O421 Co413 2.074 . S
O421 C446 1.257 . S
H422 C447 0.930 . S
H423 C453 0.930 . S
O424 Co413 2.093 . S
O424 C416 1.224 . S
H425 C457 0.929 . S
H426 C459 0.930 . S
H427 C460 0.930 . S
H428 C458 0.929 . S
H429 C461 0.928 . S
O430 Co414 2.057 . S
O430 C418 1.232 . S
H431 C450 0.929 1_556 S
H432 C451 0.929 . S
H433 C463 0.931 . S
H434 C455 0.929 . S
H435 C464 0.930 . S
H436 C456 0.931 . S
O437 Co413 2.097 . S
O437 C465 1.214 . S
H438 C466 0.929 . S
H439 C467 0.929 . S
H440 C468 0.930 . S
H441 C469 0.929 . S
H442 C471 0.930 . S
H443 C448 0.930 . S
H444 C452 0.930 . S
O445 Co414 2.037 . S
O445 C465 1.234 . S
C446 O420 1.269 . S
C446 O421 1.257 . S
C447 H422 0.930 . S
C447 C450 1.388 . S
C447 C452 1.418 . S
C448 H443 0.930 . S
C448 C451 1.404 . S
C448 C452 1.353 . S
N449 Co414 2.145 . S
N449 C450 1.397 1_556 S
N449 C451 1.334 1_556 S
C450 H431 0.929 1_554 S
C450 C447 1.388 . S
C450 N449 1.397 1_554 S
C451 H432 0.929 . S
C451 C448 1.404 . S
C451 N449 1.334 1_554 S
C452 H444 0.930 . S
C452 C447 1.418 . S
C452 C448 1.353 . S
C453 H423 0.930 . S
C453 N454 1.330 . S
C453 C455 1.446 . S
N454 Co413 2.151 . S
N454 C453 1.330 . S
N454 C458 1.418 . S
C455 H434 0.929 . S
C455 C453 1.446 . S
C455 C456 1.332 . S
C456 H436 0.931 . S
C456 C455 1.332 . S
C456 C457 1.267 . S
C457 H425 0.929 . S
C457 C456 1.267 . S
C457 C458 1.251 . S
C458 H428 0.929 . S
C458 N454 1.418 . S
C458 C457 1.251 . S
C459 H426 0.930 . S
C459 C461 1.406 . S
C459 C464 1.261 . S
C460 H427 0.930 . S
C460 N462 1.325 . S
C460 C463 1.357 . S
C461 H429 0.928 . S
C461 C459 1.406 . S
C461 N462 1.261 . S
N462 Co413 2.214 . S
N462 C460 1.325 . S
N462 C461 1.261 . S
C463 H433 0.931 . S
C463 C460 1.357 . S
C463 C464 1.312 . S
C464 H435 0.930 . S
C464 C459 1.261 . S
C464 C463 1.312 . S
C465 O437 1.214 . S
C465 O445 1.234 . S
C466 H438 0.929 . S
C466 C469 1.391 . S
C466 C471 1.391 . S
C467 H439 0.929 . S
C467 C468 1.390 . S
C467 N470 1.391 . S
C468 H440 0.930 . S
C468 C467 1.390 . S
C468 C469 1.392 . S
C469 H441 0.929 . S
C469 C466 1.391 . S
C469 C468 1.392 . S
N470 Co414 2.257 . S
N470 C467 1.391 . S
N470 C471 1.388 . S
C471 H442 0.930 . S
C471 C466 1.391 . S
C471 N470 1.388 . S
Co472 O474 2.143 . S
Co472 O480 2.074 . S
Co472 O483 2.093 . S
Co472 O496 2.097 . S
Co472 N513 2.151 . S
Co472 N521 2.214 . S
Co473 O474 2.160 . S
Co473 O479 2.058 . S
Co473 O489 2.057 . S
Co473 O504 2.037 . S
Co473 N508 2.145 . S
Co473 N529 2.257 . S
O474 Co472 2.143 . S
O474 Co473 2.160 . S
C475 O476 1.278 . S
C475 O483 1.224 . S
O476 C475 1.278 . S
C477 O478 1.245 . S
C477 O489 1.232 . S
O478 C477 1.245 . S
O479 Co473 2.058 . S
O479 C505 1.269 . S
O480 Co472 2.074 . S
O480 C505 1.257 . S
H481 C506 0.930 . S
H482 C512 0.930 . S
O483 Co472 2.093 . S
O483 C475 1.224 . S
H484 C516 0.929 . S
H485 C518 0.930 . S
H486 C519 0.930 . S
H487 C517 0.929 . S
H488 C520 0.928 . S
O489 Co473 2.057 . S
O489 C477 1.232 . S
H490 C509 0.929 . S
H491 C510 0.929 . S
H492 C522 0.931 . S
H493 C514 0.929 . S
H494 C523 0.930 . S
H495 C515 0.931 . S
O496 Co472 2.097 . S
O496 C524 1.214 . S
H497 C525 0.929 . S
H498 C526 0.929 . S
H499 C527 0.930 . S
H500 C528 0.929 . S
H501 C530 0.930 . S
H502 C507 0.930 . S
H503 C511 0.930 . S
O504 Co473 2.037 . S
O504 C524 1.234 . S
C505 O479 1.269 . S
C505 O480 1.257 . S
C506 H481 0.930 . S
C506 C509 1.388 . S
C506 C511 1.418 . S
C507 H502 0.930 . S
C507 C510 1.404 . S
C507 C511 1.353 . S
N508 Co473 2.145 . S
N508 C509 1.397 . S
N508 C510 1.334 . S
C509 H490 0.929 . S
C509 C506 1.388 . S
C509 N508 1.397 . S
C510 H491 0.929 . S
C510 C507 1.404 . S
C510 N508 1.334 . S
C511 H503 0.930 . S
C511 C506 1.418 . S
C511 C507 1.353 . S
C512 H482 0.930 . S
C512 N513 1.330 . S
C512 C514 1.446 . S
N513 Co472 2.151 . S
N513 C512 1.330 . S
N513 C517 1.418 . S
C514 H493 0.929 . S
C514 C512 1.446 . S
C514 C515 1.332 . S
C515 H495 0.931 . S
C515 C514 1.332 . S
C515 C516 1.267 . S
C516 H484 0.929 . S
C516 C515 1.267 . S
C516 C517 1.251 . S
C517 H487 0.929 . S
C517 N513 1.418 . S
C517 C516 1.251 . S
C518 H485 0.930 . S
C518 C520 1.406 . S
C518 C523 1.261 . S
C519 H486 0.930 . S
C519 N521 1.325 . S
C519 C522 1.357 . S
C520 H488 0.928 . S
C520 C518 1.406 . S
C520 N521 1.261 . S
N521 Co472 2.214 . S
N521 C519 1.325 . S
N521 C520 1.261 . S
C522 H492 0.931 . S
C522 C519 1.357 . S
C522 C523 1.312 . S
C523 H494 0.930 . S
C523 C518 1.261 . S
C523 C522 1.312 . S
C524 O496 1.214 . S
C524 O504 1.234 . S
C525 H497 0.929 . S
C525 C528 1.391 . S
C525 C530 1.391 . S
C526 H498 0.929 . S
C526 C527 1.390 . S
C526 N529 1.391 . S
C527 H499 0.930 . S
C527 C526 1.390 . S
C527 C528 1.392 . S
C528 H500 0.929 . S
C528 C525 1.391 . S
C528 C527 1.392 . S
N529 Co473 2.257 . S
N529 C526 1.391 . S
N529 C530 1.388 . S
C530 H501 0.930 . S
C530 C525 1.391 . S
C530 N529 1.388 . S
Co531 O533 2.143 . S
Co531 O539 2.074 . S
Co531 O542 2.093 . S
Co531 O555 2.097 . S
Co531 N572 2.151 . S
Co531 N580 2.214 . S
Co532 O533 2.160 . S
Co532 O538 2.058 . S
Co532 O548 2.057 . S
Co532 O563 2.037 . S
Co532 N567 2.145 1_556 S
Co532 N588 2.257 . S
O533 Co531 2.143 . S
O533 Co532 2.160 . S
C534 O535 1.278 . S
C534 O542 1.224 . S
O535 C534 1.278 . S
C536 O537 1.245 . S
C536 O548 1.232 . S
O537 C536 1.245 . S
O538 Co532 2.058 . S
O538 C564 1.269 . S
O539 Co531 2.074 . S
O539 C564 1.257 . S
H540 C565 0.930 . S
H541 C571 0.930 . S
O542 Co531 2.093 . S
O542 C534 1.224 . S
H543 C575 0.929 . S
H544 C577 0.930 . S
H545 C578 0.930 . S
H546 C576 0.929 . S
H547 C579 0.928 . S
O548 Co532 2.057 . S
O548 C536 1.232 . S
H549 C568 0.929 . S
H550 C569 0.929 . S
H551 C581 0.931 . S
H552 C573 0.929 . S
H553 C582 0.930 . S
H554 C574 0.931 . S
O555 Co531 2.097 . S
O555 C583 1.214 . S
H556 C584 0.929 . S
H557 C585 0.929 . S
H558 C586 0.930 . S
H559 C587 0.929 . S
H560 C589 0.930 . S
H561 C566 0.930 . S
H562 C570 0.930 . S
O563 Co532 2.037 . S
O563 C583 1.234 . S
C564 O538 1.269 . S
C564 O539 1.257 . S
C565 H540 0.930 . S
C565 C568 1.388 . S
C565 C570 1.418 . S
C566 H561 0.930 . S
C566 C569 1.404 . S
C566 C570 1.353 . S
N567 Co532 2.145 1_554 S
N567 C568 1.397 . S
N567 C569 1.334 . S
C568 H549 0.929 . S
C568 C565 1.388 . S
C568 N567 1.397 . S
C569 H550 0.929 . S
C569 C566 1.404 . S
C569 N567 1.334 . S
C570 H562 0.930 . S
C570 C565 1.418 . S
C570 C566 1.353 . S
C571 H541 0.930 . S
C571 N572 1.330 . S
C571 C573 1.446 . S
N572 Co531 2.151 . S
N572 C571 1.330 . S
N572 C576 1.418 . S
C573 H552 0.929 . S
C573 C571 1.446 . S
C573 C574 1.332 . S
C574 H554 0.931 . S
C574 C573 1.332 . S
C574 C575 1.267 . S
C575 H543 0.929 . S
C575 C574 1.267 . S
C575 C576 1.251 . S
C576 H546 0.929 . S
C576 N572 1.418 . S
C576 C575 1.251 . S
C577 H544 0.930 . S
C577 C579 1.406 . S
C577 C582 1.261 . S
C578 H545 0.930 . S
C578 N580 1.325 . S
C578 C581 1.357 . S
C579 H547 0.928 . S
C579 C577 1.406 . S
C579 N580 1.261 . S
N580 Co531 2.214 . S
N580 C578 1.325 . S
N580 C579 1.261 . S
C581 H551 0.931 . S
C581 C578 1.357 . S
C581 C582 1.312 . S
C582 H553 0.930 . S
C582 C577 1.261 . S
C582 C581 1.312 . S
C583 O555 1.214 . S
C583 O563 1.234 . S
C584 H556 0.929 . S
C584 C587 1.391 . S
C584 C589 1.391 . S
C585 H557 0.929 . S
C585 C586 1.390 . S
C585 N588 1.391 . S
C586 H558 0.930 . S
C586 C585 1.390 . S
C586 C587 1.392 . S
C587 H559 0.929 . S
C587 C584 1.391 . S
C587 C586 1.392 . S
N588 Co532 2.257 . S
N588 C585 1.391 . S
N588 C589 1.388 . S
C589 H560 0.930 . S
C589 C584 1.391 . S
C589 N588 1.388 . S
Co590 O592 2.143 . S
Co590 O598 2.074 . S
Co590 O601 2.093 . S
Co590 O614 2.097 . S
Co590 N631 2.151 . S
Co590 N639 2.214 . S
Co591 O592 2.160 . S
Co591 O597 2.058 . S
Co591 O607 2.057 . S
Co591 O622 2.037 . S
Co591 N626 2.145 . S
Co591 N647 2.257 . S
O592 Co590 2.143 . S
O592 Co591 2.160 . S
C593 O594 1.278 . S
C593 O601 1.224 . S
O594 C593 1.278 . S
C595 O596 1.245 . S
C595 O607 1.232 . S
O596 C595 1.245 . S
O597 Co591 2.058 . S
O597 C623 1.269 . S
O598 Co590 2.074 . S
O598 C623 1.257 . S
H599 C624 0.930 . S
H600 C630 0.930 . S
O601 Co590 2.093 . S
O601 C593 1.224 . S
H602 C634 0.929 . S
H603 C636 0.930 . S
H604 C637 0.930 . S
H605 C635 0.929 . S
H606 C638 0.928 . S
O607 Co591 2.057 . S
O607 C595 1.232 . S
H608 C627 0.929 . S
H609 C628 0.929 . S
H610 C640 0.931 . S
H611 C632 0.929 . S
H612 C641 0.930 . S
H613 C633 0.931 . S
O614 Co590 2.097 . S
O614 C642 1.214 . S
H615 C643 0.929 . S
H616 C644 0.929 . S
H617 C645 0.930 . S
H618 C646 0.929 . S
H619 C648 0.930 . S
H620 C625 0.930 . S
H621 C629 0.930 . S
O622 Co591 2.037 . S
O622 C642 1.234 . S
C623 O597 1.269 . S
C623 O598 1.257 . S
C624 H599 0.930 . S
C624 C627 1.388 . S
C624 C629 1.418 . S
C625 H620 0.930 . S
C625 C628 1.404 . S
C625 C629 1.353 . S
N626 Co591 2.145 . S
N626 C627 1.397 . S
N626 C628 1.334 . S
C627 H608 0.929 . S
C627 C624 1.388 . S
C627 N626 1.397 . S
C628 H609 0.929 . S
C628 C625 1.404 . S
C628 N626 1.334 . S
C629 H621 0.930 . S
C629 C624 1.418 . S
C629 C625 1.353 . S
C630 H600 0.930 . S
C630 N631 1.330 . S
C630 C632 1.446 . S
N631 Co590 2.151 . S
N631 C630 1.330 . S
N631 C635 1.418 . S
C632 H611 0.929 . S
C632 C630 1.446 . S
C632 C633 1.332 . S
C633 H613 0.931 . S
C633 C632 1.332 . S
C633 C634 1.267 . S
C634 H602 0.929 . S
C634 C633 1.267 . S
C634 C635 1.251 . S
C635 H605 0.929 . S
C635 N631 1.418 . S
C635 C634 1.251 . S
C636 H603 0.930 . S
C636 C638 1.406 . S
C636 C641 1.261 . S
C637 H604 0.930 . S
C637 N639 1.325 . S
C637 C640 1.357 . S
C638 H606 0.928 . S
C638 C636 1.406 . S
C638 N639 1.261 . S
N639 Co590 2.214 . S
N639 C637 1.325 . S
N639 C638 1.261 . S
C640 H610 0.931 . S
C640 C637 1.357 . S
C640 C641 1.312 . S
C641 H612 0.930 . S
C641 C636 1.261 . S
C641 C640 1.312 . S
C642 O614 1.214 . S
C642 O622 1.234 . S
C643 H615 0.929 . S
C643 C646 1.391 . S
C643 C648 1.391 . S
C644 H616 0.929 . S
C644 C645 1.390 . S
C644 N647 1.391 . S
C645 H617 0.930 . S
C645 C644 1.390 . S
C645 C646 1.392 . S
C646 H618 0.929 . S
C646 C643 1.391 . S
C646 C645 1.392 . S
N647 Co591 2.257 . S
N647 C644 1.391 . S
N647 C648 1.388 . S
C648 H619 0.930 . S
C648 C643 1.391 . S
C648 N647 1.388 . S
Co649 O651 2.143 . S
Co649 O657 2.074 . S
Co649 O660 2.093 . S
Co649 O673 2.097 . S
Co649 N690 2.151 . S
Co649 N698 2.214 1_556 S
Co650 O651 2.160 . S
Co650 O656 2.058 . S
Co650 O666 2.057 . S
Co650 O681 2.037 . S
Co650 N685 2.145 . S
Co650 N706 2.257 . S
O651 Co649 2.143 . S
O651 Co650 2.160 . S
C652 O653 1.278 . S
C652 O660 1.224 . S
O653 C652 1.278 . S
C654 O655 1.245 . S
C654 O666 1.232 . S
O655 C654 1.245 . S
O656 Co650 2.058 . S
O656 C682 1.269 . S
O657 Co649 2.074 . S
O657 C682 1.257 . S
H658 C683 0.930 . S
H659 C689 0.930 . S
O660 Co649 2.093 . S
O660 C652 1.224 . S
H661 C693 0.929 . S
H662 C695 0.930 . S
H663 C696 0.930 . S
H664 C694 0.929 . S
H665 C697 0.928 . S
O666 Co650 2.057 . S
O666 C654 1.232 . S
H667 C686 0.929 . S
H668 C687 0.929 . S
H669 C699 0.931 . S
H670 C691 0.929 . S
H671 C700 0.930 . S
H672 C692 0.931 . S
O673 Co649 2.097 . S
O673 C701 1.214 . S
H674 C702 0.929 . S
H675 C703 0.929 . S
H676 C704 0.930 . S
H677 C705 0.929 . S
H678 C707 0.930 . S
H679 C684 0.930 . S
H680 C688 0.930 . S
O681 Co650 2.037 . S
O681 C701 1.234 . S
C682 O656 1.269 . S
C682 O657 1.257 . S
C683 H658 0.930 . S
C683 C686 1.388 . S
C683 C688 1.418 . S
C684 H679 0.930 . S
C684 C687 1.404 . S
C684 C688 1.353 . S
N685 Co650 2.145 . S
N685 C686 1.397 . S
N685 C687 1.334 . S
C686 H667 0.929 . S
C686 C683 1.388 . S
C686 N685 1.397 . S
C687 H668 0.929 . S
C687 C684 1.404 . S
C687 N685 1.334 . S
C688 H680 0.930 . S
C688 C683 1.418 . S
C688 C684 1.353 . S
C689 H659 0.930 . S
C689 N690 1.330 . S
C689 C691 1.446 . S
N690 Co649 2.151 . S
N690 C689 1.330 . S
N690 C694 1.418 . S
C691 H670 0.929 . S
C691 C689 1.446 . S
C691 C692 1.332 . S
C692 H672 0.931 . S
C692 C691 1.332 . S
C692 C693 1.267 . S
C693 H661 0.929 . S
C693 C692 1.267 . S
C693 C694 1.251 . S
C694 H664 0.929 . S
C694 N690 1.418 . S
C694 C693 1.251 . S
C695 H662 0.930 . S
C695 C697 1.406 . S
C695 C700 1.261 . S
C696 H663 0.930 . S
C696 N698 1.325 . S
C696 C699 1.357 . S
C697 H665 0.928 . S
C697 C695 1.406 . S
C697 N698 1.261 . S
N698 Co649 2.214 1_554 S
N698 C696 1.325 . S
N698 C697 1.261 . S
C699 H669 0.931 . S
C699 C696 1.357 . S
C699 C700 1.312 . S
C700 H671 0.930 . S
C700 C695 1.261 . S
C700 C699 1.312 . S
C701 O673 1.214 . S
C701 O681 1.234 . S
C702 H674 0.929 . S
C702 C705 1.391 . S
C702 C707 1.391 . S
C703 H675 0.929 . S
C703 C704 1.390 . S
C703 N706 1.391 . S
C704 H676 0.930 . S
C704 C703 1.390 . S
C704 C705 1.392 . S
C705 H677 0.929 . S
C705 C702 1.391 . S
C705 C704 1.392 . S
N706 Co650 2.257 . S
N706 C703 1.391 . S
N706 C707 1.388 . S
C707 H678 0.930 . S
C707 C702 1.391 . S
C707 N706 1.388 . S
C708 C709 1.349 . S
C708 C710 1.327 . S
C708 H733 0.950 . S
C709 C708 1.349 . S
C709 C725 1.349 . S
C710 C708 1.327 . S
C710 C729 1.429 . S
C710 H734 0.950 . S
C711 C728 1.574 . S
C711 C730 1.368 . S
C711 H735 0.949 . S
H712 C716 0.949 . S
C713 C714 1.349 . S
C713 C715 1.327 . S
C713 H736 0.950 . S
C714 C713 1.349 . S
C714 C726 1.349 . S
C715 C713 1.327 . S
C715 C731 1.429 . S
C715 H737 0.950 . S
C716 H712 0.949 . S
C716 C724 1.574 . S
C716 C732 1.368 . S
H717 C725 0.950 . S
H718 C723 0.950 . S
H719 C724 0.949 . S
H720 C726 0.950 . S
H721 C727 0.950 . S
H722 C728 0.949 . S
C723 H718 0.950 . S
C723 C725 1.327 . S
C723 C729 1.429 . S
C724 C716 1.574 . S
C724 H719 0.949 . S
C724 C730 1.368 . S
C725 C709 1.349 . S
C725 H717 0.950 . S
C725 C723 1.327 . S
C726 C714 1.349 . S
C726 H720 0.950 . S
C726 C727 1.327 . S
C727 H721 0.950 . S
C727 C726 1.327 . S
C727 C731 1.429 . S
C728 C711 1.574 . S
C728 H722 0.949 . S
C728 C732 1.368 . S
C729 C710 1.429 . S
C729 C723 1.429 . S
C729 C730 1.523 . S
C730 C711 1.368 . S
C730 C724 1.368 . S
C730 C729 1.523 . S
C731 C715 1.429 . S
C731 C727 1.429 . S
C731 C732 1.523 . S
C732 C716 1.368 . S
C732 C728 1.368 . S
C732 C731 1.523 . S
H733 C708 0.950 . S
H734 C710 0.950 . S
H735 C711 0.949 . S
H736 C713 0.950 . S
H737 C715 0.950 . S
C738 C739 1.349 . S
C738 C740 1.327 . S
C738 H763 0.950 . S
C739 C738 1.349 . S
C739 C755 1.349 . S
C740 C738 1.327 . S
C740 C759 1.429 . S
C740 H764 0.950 . S
C741 C758 1.574 . S
C741 C760 1.368 . S
C741 H765 0.949 . S
H742 C746 0.949 . S
C743 C744 1.349 . S
C743 C745 1.327 . S
C743 H766 0.950 . S
C744 C743 1.349 . S
C744 C756 1.349 . S
C745 C743 1.327 . S
C745 C761 1.429 . S
C745 H767 0.950 . S
C746 H742 0.949 . S
C746 C754 1.574 . S
C746 C762 1.368 . S
H747 C755 0.950 . S
H748 C753 0.950 . S
H749 C754 0.949 . S
H750 C756 0.950 . S
H751 C757 0.950 . S
H752 C758 0.949 . S
C753 H748 0.950 . S
C753 C755 1.327 . S
C753 C759 1.429 . S
C754 C746 1.574 . S
C754 H749 0.949 . S
C754 C760 1.368 . S
C755 C739 1.349 . S
C755 H747 0.950 . S
C755 C753 1.327 . S
C756 C744 1.349 . S
C756 H750 0.950 . S
C756 C757 1.327 . S
C757 H751 0.950 . S
C757 C756 1.327 . S
C757 C761 1.429 . S
C758 C741 1.574 . S
C758 H752 0.949 . S
C758 C762 1.368 . S
C759 C740 1.429 . S
C759 C753 1.429 . S
C759 C760 1.523 . S
C760 C741 1.368 . S
C760 C754 1.368 . S
C760 C759 1.523 . S
C761 C745 1.429 . S
C761 C757 1.429 . S
C761 C762 1.523 . S
C762 C746 1.368 . S
C762 C758 1.368 . S
C762 C761 1.523 . S
H763 C738 0.950 . S
H764 C740 0.950 . S
H765 C741 0.949 . S
H766 C743 0.950 . S
H767 C745 0.950 . S
C768 C769 1.349 . S
C768 C770 1.327 . S
C768 H793 0.950 . S
C769 C768 1.349 . S
C769 C785 1.349 . S
C770 C768 1.327 . S
C770 C789 1.429 . S
C770 H794 0.950 . S
C771 C788 1.574 . S
C771 C790 1.368 . S
C771 H795 0.949 . S
H772 C776 0.949 . S
C773 C774 1.349 . S
C773 C775 1.327 . S
C773 H796 0.950 . S
C774 C773 1.349 . S
C774 C786 1.349 . S
C775 C773 1.327 . S
C775 C791 1.429 . S
C775 H797 0.950 . S
C776 H772 0.949 . S
C776 C784 1.574 . S
C776 C792 1.368 . S
H777 C785 0.950 . S
H778 C783 0.950 . S
H779 C784 0.949 . S
H780 C786 0.950 . S
H781 C787 0.950 . S
H782 C788 0.949 . S
C783 H778 0.950 . S
C783 C785 1.327 . S
C783 C789 1.429 . S
C784 C776 1.574 . S
C784 H779 0.949 . S
C784 C790 1.368 . S
C785 C769 1.349 . S
C785 H777 0.950 . S
C785 C783 1.327 . S
C786 C774 1.349 . S
C786 H780 0.950 . S
C786 C787 1.327 . S
C787 H781 0.950 . S
C787 C786 1.327 . S
C787 C791 1.429 . S
C788 C771 1.574 . S
C788 H782 0.949 . S
C788 C792 1.368 . S
C789 C770 1.429 . S
C789 C783 1.429 . S
C789 C790 1.523 . S
C790 C771 1.368 . S
C790 C784 1.368 . S
C790 C789 1.523 . S
C791 C775 1.429 . S
C791 C787 1.429 . S
C791 C792 1.523 . S
C792 C776 1.368 . S
C792 C788 1.368 . S
C792 C791 1.523 . S
H793 C768 0.950 . S
H794 C770 0.950 . S
H795 C771 0.949 . S
H796 C773 0.950 . S
H797 C775 0.950 . S
C798 C799 1.349 . S
C798 C800 1.327 . S
C798 H823 0.950 . S
C799 C798 1.349 . S
C799 C815 1.349 . S
C800 C798 1.327 . S
C800 C819 1.429 . S
C800 H824 0.950 . S
C801 C818 1.574 . S
C801 C820 1.368 . S
C801 H825 0.949 . S
H802 C806 0.949 . S
C803 C804 1.349 . S
C803 C805 1.327 . S
C803 H826 0.950 . S
C804 C803 1.349 . S
C804 C816 1.349 . S
C805 C803 1.327 . S
C805 C821 1.429 . S
C805 H827 0.950 . S
C806 H802 0.949 . S
C806 C814 1.574 . S
C806 C822 1.368 . S
H807 C815 0.950 . S
H808 C813 0.950 . S
H809 C814 0.949 . S
H810 C816 0.950 . S
H811 C817 0.950 . S
H812 C818 0.949 . S
C813 H808 0.950 . S
C813 C815 1.327 . S
C813 C819 1.429 . S
C814 C806 1.574 . S
C814 H809 0.949 . S
C814 C820 1.368 . S
C815 C799 1.349 . S
C815 H807 0.950 . S
C815 C813 1.327 . S
C816 C804 1.349 . S
C816 H810 0.950 . S
C816 C817 1.327 . S
C817 H811 0.950 . S
C817 C816 1.327 . S
C817 C821 1.429 . S
C818 C801 1.574 . S
C818 H812 0.949 . S
C818 C822 1.368 . S
C819 C800 1.429 . S
C819 C813 1.429 . S
C819 C820 1.523 . S
C820 C801 1.368 . S
C820 C814 1.368 . S
C820 C819 1.523 . S
C821 C805 1.429 . S
C821 C817 1.429 . S
C821 C822 1.523 . S
C822 C806 1.368 . S
C822 C818 1.368 . S
C822 C821 1.523 . S
H823 C798 0.950 . S
H824 C800 0.950 . S
H825 C801 0.949 . S
H826 C803 0.950 . S
H827 C805 0.950 . S
C828 C829 1.349 . S
C828 C830 1.327 . S
C828 H853 0.950 . S
C829 C828 1.349 . S
C829 C845 1.349 . S
C830 C828 1.327 . S
C830 C849 1.429 . S
C830 H854 0.950 . S
C831 C848 1.574 . S
C831 C850 1.368 . S
C831 H855 0.949 . S
H832 C836 0.949 . S
C833 C834 1.349 . S
C833 C835 1.327 . S
C833 H856 0.950 . S
C834 C833 1.349 . S
C834 C846 1.349 . S
C835 C833 1.327 . S
C835 C851 1.429 . S
C835 H857 0.950 . S
C836 H832 0.949 . S
C836 C844 1.574 . S
C836 C852 1.368 . S
H837 C845 0.950 . S
H838 C843 0.950 . S
H839 C844 0.949 . S
H840 C846 0.950 . S
H841 C847 0.950 . S
H842 C848 0.949 . S
C843 H838 0.950 . S
C843 C845 1.327 . S
C843 C849 1.429 . S
C844 C836 1.574 . S
C844 H839 0.949 . S
C844 C850 1.368 . S
C845 C829 1.349 . S
C845 H837 0.950 . S
C845 C843 1.327 . S
C846 C834 1.349 . S
C846 H840 0.950 . S
C846 C847 1.327 . S
C847 H841 0.950 . S
C847 C846 1.327 . S
C847 C851 1.429 . S
C848 C831 1.574 . S
C848 H842 0.949 . S
C848 C852 1.368 . S
C849 C830 1.429 . S
C849 C843 1.429 . S
C849 C850 1.523 . S
C850 C831 1.368 . S
C850 C844 1.368 . S
C850 C849 1.523 . S
C851 C835 1.429 . S
C851 C847 1.429 . S
C851 C852 1.523 . S
C852 C836 1.368 . S
C852 C848 1.368 . S
C852 C851 1.523 . S
H853 C828 0.950 . S
H854 C830 0.950 . S
H855 C831 0.949 . S
H856 C833 0.950 . S
H857 C835 0.950 . S
C858 C859 1.349 . S
C858 C860 1.327 . S
C858 H883 0.950 . S
C859 C858 1.349 . S
C859 C875 1.349 . S
C860 C858 1.327 . S
C860 C879 1.429 . S
C860 H884 0.950 . S
C861 C878 1.574 . S
C861 C880 1.368 . S
C861 H885 0.949 . S
H862 C866 0.949 . S
C863 C864 1.349 . S
C863 C865 1.327 . S
C863 H886 0.950 . S
C864 C863 1.349 . S
C864 C876 1.349 . S
C865 C863 1.327 . S
C865 C881 1.429 . S
C865 H887 0.950 . S
C866 H862 0.949 . S
C866 C874 1.574 . S
C866 C882 1.368 . S
H867 C875 0.950 . S
H868 C873 0.950 . S
H869 C874 0.949 . S
H870 C876 0.950 . S
H871 C877 0.950 . S
H872 C878 0.949 . S
C873 H868 0.950 . S
C873 C875 1.327 . S
C873 C879 1.429 . S
C874 C866 1.574 . S
C874 H869 0.949 . S
C874 C880 1.368 . S
C875 C859 1.349 . S
C875 H867 0.950 . S
C875 C873 1.327 . S
C876 C864 1.349 . S
C876 H870 0.950 . S
C876 C877 1.327 . S
C877 H871 0.950 . S
C877 C876 1.327 . S
C877 C881 1.429 . S
C878 C861 1.574 . S
C878 H872 0.949 . S
C878 C882 1.368 . S
C879 C860 1.429 . S
C879 C873 1.429 . S
C879 C880 1.523 . S
C880 C861 1.368 . S
C880 C874 1.368 . S
C880 C879 1.523 . S
C881 C865 1.429 . S
C881 C877 1.429 . S
C881 C882 1.523 . S
C882 C866 1.368 . S
C882 C878 1.368 . S
C882 C881 1.523 . S
H883 C858 0.950 . S
H884 C860 0.950 . S
H885 C861 0.949 . S
H886 C863 0.950 . S
H887 C865 0.950 . S
C888 C889 1.349 . S
C888 C890 1.327 . S
C888 H913 0.950 . S
C889 C888 1.349 . S
C889 C905 1.349 . S
C890 C888 1.327 . S
C890 C909 1.429 . S
C890 H914 0.950 . S
C891 C908 1.574 1_545 S
C891 C910 1.368 1_556 S
C891 H915 0.949 . S
H892 C896 0.954 1_565 S
C893 C894 1.349 . S
C893 C895 1.327 . S
C893 H916 0.950 . S
C894 C893 1.349 . S
C894 C906 1.349 . S
C895 C893 1.327 . S
C895 C911 1.429 . S
C895 H917 0.950 . S
C896 H892 0.954 1_545 S
C896 C904 1.585 . S
C896 C912 1.353 1_544 S
H897 C905 0.950 1_556 S
H898 C903 0.950 1_556 S
H899 C904 0.949 . S
H900 C906 0.950 1_554 S
H901 C907 0.962 . S
H902 C908 0.949 . S
C903 H898 0.950 1_554 S
C903 C905 1.327 . S
C903 C909 1.429 . S
C904 C896 1.585 . S
C904 H899 0.949 . S
C904 C910 1.368 . S
C905 C889 1.349 . S
C905 H897 0.950 1_554 S
C905 C903 1.327 . S
C906 C894 1.349 . S
C906 H900 0.950 1_556 S
C906 C907 1.323 1_556 S
C907 H901 0.962 . S
C907 C906 1.323 1_554 S
C907 C911 1.421 1_554 S
C908 C891 1.574 1_565 S
C908 H902 0.949 . S
C908 C912 1.368 . S
C909 C890 1.429 . S
C909 C903 1.429 . S
C909 C910 1.523 . S
C910 C891 1.368 1_554 S
C910 C904 1.368 . S
C910 C909 1.523 . S
C911 C895 1.429 . S
C911 C907 1.421 1_556 S
C911 C912 1.523 . S
C912 C896 1.353 1_566 S
C912 C908 1.368 . S
C912 C911 1.523 . S
H913 C888 0.950 . S
H914 C890 0.950 . S
H915 C891 0.949 . S
H916 C893 0.950 . S
H917 C895 0.950 . S
C918 C919 1.349 . S
C918 C920 1.327 . S
C918 H943 0.950 . S
C919 C918 1.349 . S
C919 C935 1.349 . S
C920 C918 1.327 . S
C920 C939 1.429 . S
C920 H944 0.950 . S
C921 C938 1.574 . S
C921 C940 1.368 . S
C921 H945 0.949 . S
H922 C926 0.949 . S
C923 C924 1.349 . S
C923 C925 1.327 . S
C923 H946 0.950 . S
C924 C923 1.349 . S
C924 C936 1.349 . S
C925 C923 1.327 . S
C925 C941 1.429 . S
C925 H947 0.950 . S
C926 H922 0.949 . S
C926 C934 1.574 . S
C926 C942 1.368 . S
H927 C935 0.950 . S
H928 C933 0.950 . S
H929 C934 0.949 . S
H930 C936 0.950 . S
H931 C937 0.950 . S
H932 C938 0.949 . S
C933 H928 0.950 . S
C933 C935 1.327 . S
C933 C939 1.429 . S
C934 C926 1.574 . S
C934 H929 0.949 . S
C934 C940 1.368 . S
C935 C919 1.349 . S
C935 H927 0.950 . S
C935 C933 1.327 . S
C936 C924 1.349 . S
C936 H930 0.950 . S
C936 C937 1.327 . S
C937 H931 0.950 . S
C937 C936 1.327 . S
C937 C941 1.429 . S
C938 C921 1.574 . S
C938 H932 0.949 . S
C938 C942 1.368 . S
C939 C920 1.429 . S
C939 C933 1.429 . S
C939 C940 1.523 . S
C940 C921 1.368 . S
C940 C934 1.368 . S
C940 C939 1.523 . S
C941 C925 1.429 . S
C941 C937 1.429 . S
C941 C942 1.523 . S
C942 C926 1.368 . S
C942 C938 1.368 . S
C942 C941 1.523 . S
H943 C918 0.950 . S
H944 C920 0.950 . S
H945 C921 0.949 . S
H946 C923 0.950 . S
H947 C925 0.950 . S
C948 C949 1.349 . S
C948 C950 1.327 . S
C948 H973 0.950 . S
C949 C948 1.349 . S
C949 C965 1.349 . S
C950 C948 1.327 . S
C950 C969 1.429 . S
C950 H974 0.950 . S
C951 C968 1.574 1_455 S
C951 C970 1.368 1_554 S
C951 H975 0.949 . S
H952 C956 0.949 . S
C953 C954 1.349 . S
C953 C955 1.327 . S
C953 H976 0.950 . S
C954 C953 1.349 . S
C954 C966 1.349 . S
C955 C953 1.327 . S
C955 C971 1.429 . S
C955 H977 0.950 . S
C956 H952 0.949 . S
C956 C964 1.574 1_655 S
C956 C972 1.368 1_556 S
H957 C965 0.950 . S
H958 C963 0.950 1_554 S
H959 C964 0.949 . S
H960 C966 0.950 . S
H961 C967 0.950 1_556 S
H962 C968 0.949 . S
C963 H958 0.950 1_556 S
C963 C965 1.327 . S
C963 C969 1.429 . S
C964 C956 1.574 1_455 S
C964 H959 0.949 . S
C964 C970 1.368 . S
C965 C949 1.349 . S
C965 H957 0.950 . S
C965 C963 1.327 . S
C966 C954 1.349 . S
C966 H960 0.950 . S
C966 C967 1.327 . S
C967 H961 0.950 1_554 S
C967 C966 1.327 . S
C967 C971 1.429 . S
C968 C951 1.574 1_655 S
C968 H962 0.949 . S
C968 C972 1.368 . S
C969 C950 1.429 . S
C969 C963 1.429 . S
C969 C970 1.523 . S
C970 C951 1.368 1_556 S
C970 C964 1.368 . S
C970 C969 1.523 . S
C971 C955 1.429 . S
C971 C967 1.429 . S
C971 C972 1.523 . S
C972 C956 1.368 1_554 S
C972 C968 1.368 . S
C972 C971 1.523 . S
H973 C948 0.950 . S
H974 C950 0.950 . S
H975 C951 0.949 . S
H976 C953 0.950 . S
H977 C955 0.950 . S
C978 C979 1.349 . S
C978 C980 1.327 . S
C978 H1003 0.950 . S
C979 C978 1.349 . S
C979 C995 1.349 . S
C980 C978 1.327 . S
C980 C999 1.429 . S
C980 H1004 0.950 . S
C981 C998 1.574 1_545 S
C981 C1000 1.368 . S
C981 H1005 0.949 . S
H982 C986 0.949 . S
C983 C984 1.349 . S
C983 C985 1.327 . S
C983 H1006 0.950 . S
C984 C983 1.349 . S
C984 C996 1.349 . S
C985 C983 1.327 . S
C985 C1001 1.429 . S
C985 H1007 0.950 . S
C986 H982 0.949 . S
C986 C994 1.574 1_565 S
C986 C1002 1.368 . S
H987 C995 0.950 . S
H988 C993 0.950 . S
H989 C994 0.949 . S
H990 C996 0.950 . S
H991 C997 0.950 . S
H992 C998 0.949 . S
C993 H988 0.950 . S
C993 C995 1.327 . S
C993 C999 1.429 . S
C994 C986 1.574 1_545 S
C994 H989 0.949 . S
C994 C1000 1.368 . S
C995 C979 1.349 . S
C995 H987 0.950 . S
C995 C993 1.327 . S
C996 C984 1.349 . S
C996 H990 0.950 . S
C996 C997 1.327 . S
C997 H991 0.950 . S
C997 C996 1.327 . S
C997 C1001 1.429 . S
C998 C981 1.574 1_565 S
C998 H992 0.949 . S
C998 C1002 1.368 . S
C999 C980 1.429 . S
C999 C993 1.429 . S
C999 C1000 1.523 . S
C1000 C981 1.368 . S
C1000 C994 1.368 . S
C1000 C999 1.523 . S
C1001 C985 1.429 . S
C1001 C997 1.429 . S
C1001 C1002 1.523 . S
C1002 C986 1.368 . S
C1002 C998 1.368 . S
C1002 C1001 1.523 . S
H1003 C978 0.950 . S
H1004 C980 0.950 . S
H1005 C981 0.949 . S
H1006 C983 0.950 . S
H1007 C985 0.950 . S
C1008 C1009 1.349 . S
C1008 C1010 1.327 . S
C1008 H1033 0.950 . S
C1009 C1008 1.349 . S
C1009 C1025 1.349 . S
C1010 C1008 1.327 . S
C1010 C1029 1.429 . S
C1010 H1034 0.950 . S
C1011 C1028 1.574 . S
C1011 C1030 1.368 . S
C1011 H1035 0.949 . S
H1012 C1016 0.949 . S
C1013 C1014 1.349 . S
C1013 C1015 1.327 . S
C1013 H1036 0.950 . S
C1014 C1013 1.349 . S
C1014 C1026 1.349 . S
C1015 C1013 1.327 . S
C1015 C1031 1.429 . S
C1015 H1037 0.950 . S
C1016 H1012 0.949 . S
C1016 C1024 1.574 . S
C1016 C1032 1.368 . S
H1017 C1025 0.950 . S
H1018 C1023 0.950 . S
H1019 C1024 0.949 . S
H1020 C1026 0.950 . S
H1021 C1027 0.950 . S
H1022 C1028 0.949 . S
C1023 H1018 0.950 . S
C1023 C1025 1.327 . S
C1023 C1029 1.429 . S
C1024 C1016 1.574 . S
C1024 H1019 0.949 . S
C1024 C1030 1.368 1_554 S
C1025 C1009 1.349 . S
C1025 H1017 0.950 . S
C1025 C1023 1.327 . S
C1026 C1014 1.349 . S
C1026 H1020 0.950 . S
C1026 C1027 1.327 . S
C1027 H1021 0.950 . S
C1027 C1026 1.327 . S
C1027 C1031 1.429 . S
C1028 C1011 1.574 . S
C1028 H1022 0.949 . S
C1028 C1032 1.368 1_556 S
C1029 C1010 1.429 . S
C1029 C1023 1.429 . S
C1029 C1030 1.523 . S
C1030 C1011 1.368 . S
C1030 C1024 1.368 1_556 S
C1030 C1029 1.523 . S
C1031 C1015 1.429 . S
C1031 C1027 1.429 . S
C1031 C1032 1.523 . S
C1032 C1016 1.368 . S
C1032 C1028 1.368 1_554 S
C1032 C1031 1.523 . S
H1033 C1008 0.950 . S
H1034 C1010 0.950 . S
H1035 C1011 0.949 . S
H1036 C1013 0.950 . S
H1037 C1015 0.950 . S
C1038 C1039 1.349 . S
C1038 C1040 1.327 . S
C1038 H1063 0.950 . S
C1039 C1038 1.349 . S
C1039 C1055 1.349 . S
C1040 C1038 1.327 . S
C1040 C1059 1.429 . S
C1040 H1064 0.950 . S
C1041 C1058 1.574 1_655 S
C1041 C1060 1.368 . S
C1041 H1065 0.949 . S
H1042 C1046 0.949 . S
C1043 C1044 1.349 . S
C1043 C1045 1.327 . S
C1043 H1066 0.950 . S
C1044 C1043 1.349 . S
C1044 C1056 1.349 . S
C1045 C1043 1.327 . S
C1045 C1061 1.429 . S
C1045 H1067 0.950 . S
C1046 H1042 0.949 . S
C1046 C1054 1.574 1_455 S
C1046 C1062 1.368 . S
H1047 C1055 0.950 . S
H1048 C1053 0.950 . S
H1049 C1054 0.949 . S
H1050 C1056 0.950 . S
H1051 C1057 0.950 . S
H1052 C1058 0.949 . S
C1053 H1048 0.950 . S
C1053 C1055 1.327 . S
C1053 C1059 1.429 . S
C1054 C1046 1.574 1_655 S
C1054 H1049 0.949 . S
C1054 C1060 1.368 . S
C1055 C1039 1.349 . S
C1055 H1047 0.950 . S
C1055 C1053 1.327 . S
C1056 C1044 1.349 . S
C1056 H1050 0.950 . S
C1056 C1057 1.327 . S
C1057 H1051 0.950 . S
C1057 C1056 1.327 . S
C1057 C1061 1.429 . S
C1058 C1041 1.574 1_455 S
C1058 H1052 0.949 . S
C1058 C1062 1.368 . S
C1059 C1040 1.429 . S
C1059 C1053 1.429 . S
C1059 C1060 1.523 . S
C1060 C1041 1.368 . S
C1060 C1054 1.368 . S
C1060 C1059 1.523 . S
C1061 C1045 1.429 . S
C1061 C1057 1.429 . S
C1061 C1062 1.523 . S
C1062 C1046 1.368 . S
C1062 C1058 1.368 . S
C1062 C1061 1.523 . S
H1063 C1038 0.950 . S
H1064 C1040 0.950 . S
H1065 C1041 0.949 . S
H1066 C1043 0.950 . S
H1067 C1045 0.950 . S
C1068 C1069 1.349 . S
C1068 C1070 1.327 . S
C1068 H1093 0.950 . S
C1069 C1068 1.349 . S
C1069 C1085 1.349 . S
C1070 C1068 1.327 . S
C1070 C1089 1.429 . S
C1070 H1094 0.950 . S
C1071 C1088 1.574 . S
C1071 C1090 1.368 . S
C1071 H1095 0.949 . S
H1072 C1076 0.949 . S
C1073 C1074 1.349 . S
C1073 C1075 1.327 . S
C1073 H1096 0.950 . S
C1074 C1073 1.349 . S
C1074 C1086 1.349 . S
C1075 C1073 1.327 . S
C1075 C1091 1.429 . S
C1075 H1097 0.950 . S
C1076 H1072 0.949 . S
C1076 C1084 1.574 . S
C1076 C1092 1.368 . S
H1077 C1085 0.950 . S
H1078 C1083 0.950 . S
H1079 C1084 0.949 . S
H1080 C1086 0.950 . S
H1081 C1087 0.950 . S
H1082 C1088 0.949 . S
C1083 H1078 0.950 . S
C1083 C1085 1.327 . S
C1083 C1089 1.429 . S
C1084 C1076 1.574 . S
C1084 H1079 0.949 . S
C1084 C1090 1.368 . S
C1085 C1069 1.349 . S
C1085 H1077 0.950 . S
C1085 C1083 1.327 . S
C1086 C1074 1.349 . S
C1086 H1080 0.950 . S
C1086 C1087 1.327 . S
C1087 H1081 0.950 . S
C1087 C1086 1.327 . S
C1087 C1091 1.429 . S
C1088 C1071 1.574 . S
C1088 H1082 0.949 . S
C1088 C1092 1.368 . S
C1089 C1070 1.429 . S
C1089 C1083 1.429 . S
C1089 C1090 1.523 . S
C1090 C1071 1.368 . S
C1090 C1084 1.368 . S
C1090 C1089 1.523 . S
C1091 C1075 1.429 . S
C1091 C1087 1.429 . S
C1091 C1092 1.523 . S
C1092 C1076 1.368 . S
C1092 C1088 1.368 . S
C1092 C1091 1.523 . S
H1093 C1068 0.950 . S
H1094 C1070 0.950 . S
H1095 C1071 0.949 . S
H1096 C1073 0.950 . S
H1097 C1075 0.950 . S
C1098 C1099 1.349 . S
C1098 C1100 1.327 . S
C1098 H1123 0.950 . S
C1099 C1098 1.349 . S
C1099 C1115 1.349 . S
C1100 C1098 1.327 . S
C1100 C1119 1.429 . S
C1100 H1124 0.950 . S
C1101 C1118 1.574 . S
C1101 C1120 1.368 . S
C1101 H1125 0.949 . S
H1102 C1106 0.949 . S
C1103 C1104 1.349 . S
C1103 C1105 1.327 . S
C1103 H1126 0.950 . S
C1104 C1103 1.349 . S
C1104 C1116 1.349 . S
C1105 C1103 1.327 . S
C1105 C1121 1.429 . S
C1105 H1127 0.950 . S
C1106 H1102 0.949 . S
C1106 C1114 1.574 . S
C1106 C1122 1.368 . S
H1107 C1115 0.950 . S
H1108 C1113 0.950 . S
H1109 C1114 0.949 . S
H1110 C1116 0.950 . S
H1111 C1117 0.950 . S
H1112 C1118 0.949 . S
C1113 H1108 0.950 . S
C1113 C1115 1.327 . S
C1113 C1119 1.429 . S
C1114 C1106 1.574 . S
C1114 H1109 0.949 . S
C1114 C1120 1.368 . S
C1115 C1099 1.349 . S
C1115 H1107 0.950 . S
C1115 C1113 1.327 . S
C1116 C1104 1.349 . S
C1116 H1110 0.950 . S
C1116 C1117 1.327 . S
C1117 H1111 0.950 . S
C1117 C1116 1.327 . S
C1117 C1121 1.429 . S
C1118 C1101 1.574 . S
C1118 H1112 0.949 . S
C1118 C1122 1.368 . S
C1119 C1100 1.429 . S
C1119 C1113 1.429 . S
C1119 C1120 1.523 . S
C1120 C1101 1.368 . S
C1120 C1114 1.368 . S
C1120 C1119 1.523 . S
C1121 C1105 1.429 . S
C1121 C1117 1.429 . S
C1121 C1122 1.523 . S
C1122 C1106 1.368 . S
C1122 C1118 1.368 . S
C1122 C1121 1.523 . S
H1123 C1098 0.950 . S
H1124 C1100 0.950 . S
H1125 C1101 0.949 . S
H1126 C1103 0.950 . S
H1127 C1105 0.950 . S
C1128 C1129 1.349 . S
C1128 C1130 1.327 . S
C1128 H1153 0.950 1_554 S
C1129 C1128 1.349 . S
C1129 C1145 1.349 . S
C1130 C1128 1.327 . S
C1130 C1149 1.429 . S
C1130 H1154 0.950 . S
C1131 C1148 1.574 . S
C1131 C1150 1.368 . S
C1131 H1155 0.949 . S
H1132 C1136 0.949 . S
C1133 C1134 1.349 . S
C1133 C1135 1.327 . S
C1133 H1156 0.950 . S
C1134 C1133 1.349 . S
C1134 C1146 1.349 . S
C1135 C1133 1.327 . S
C1135 C1151 1.429 . S
C1135 H1157 0.950 . S
C1136 H1132 0.949 . S
C1136 C1144 1.574 . S
C1136 C1152 1.368 . S
H1137 C1145 0.950 . S
H1138 C1143 0.950 . S
H1139 C1144 0.949 . S
H1140 C1146 0.950 . S
H1141 C1147 0.950 . S
H1142 C1148 0.949 . S
C1143 H1138 0.950 . S
C1143 C1145 1.327 . S
C1143 C1149 1.429 . S
C1144 C1136 1.574 . S
C1144 H1139 0.949 . S
C1144 C1150 1.368 . S
C1145 C1129 1.349 . S
C1145 H1137 0.950 . S
C1145 C1143 1.327 . S
C1146 C1134 1.349 . S
C1146 H1140 0.950 . S
C1146 C1147 1.327 . S
C1147 H1141 0.950 . S
C1147 C1146 1.327 . S
C1147 C1151 1.429 . S
C1148 C1131 1.574 . S
C1148 H1142 0.949 . S
C1148 C1152 1.368 . S
C1149 C1130 1.429 . S
C1149 C1143 1.429 . S
C1149 C1150 1.523 . S
C1150 C1131 1.368 . S
C1150 C1144 1.368 . S
C1150 C1149 1.523 . S
C1151 C1135 1.429 . S
C1151 C1147 1.429 . S
C1151 C1152 1.523 . S
C1152 C1136 1.368 . S
C1152 C1148 1.368 . S
C1152 C1151 1.523 . S
H1153 C1128 0.950 1_556 S
H1154 C1130 0.950 . S
H1155 C1131 0.949 . S
H1156 C1133 0.950 . S
H1157 C1135 0.950 . S
C1158 C1159 1.349 . S
C1158 C1160 1.327 . S
C1158 H1183 0.950 . S
C1159 C1158 1.349 . S
C1159 C1175 1.349 . S
C1160 C1158 1.327 . S
C1160 C1179 1.429 . S
C1160 H1184 0.950 . S
C1161 C1178 1.574 . S
C1161 C1180 1.368 . S
C1161 H1185 0.949 . S
H1162 C1166 0.949 . S
C1163 C1164 1.349 . S
C1163 C1165 1.327 . S
C1163 H1186 0.950 . S
C1164 C1163 1.349 . S
C1164 C1176 1.349 . S
C1165 C1163 1.327 . S
C1165 C1181 1.429 . S
C1165 H1187 0.950 . S
C1166 H1162 0.949 . S
C1166 C1174 1.574 . S
C1166 C1182 1.368 . S
H1167 C1175 0.950 . S
H1168 C1173 0.950 . S
H1169 C1174 0.949 . S
H1170 C1176 0.950 . S
H1171 C1177 0.950 . S
H1172 C1178 0.949 . S
C1173 H1168 0.950 . S
C1173 C1175 1.327 . S
C1173 C1179 1.429 . S
C1174 C1166 1.574 . S
C1174 H1169 0.949 . S
C1174 C1180 1.368 . S
C1175 C1159 1.349 . S
C1175 H1167 0.950 . S
C1175 C1173 1.327 . S
C1176 C1164 1.349 . S
C1176 H1170 0.950 . S
C1176 C1177 1.327 . S
C1177 H1171 0.950 . S
C1177 C1176 1.327 . S
C1177 C1181 1.429 . S
C1178 C1161 1.574 . S
C1178 H1172 0.949 . S
C1178 C1182 1.368 . S
C1179 C1160 1.429 . S
C1179 C1173 1.429 . S
C1179 C1180 1.523 . S
C1180 C1161 1.368 . S
C1180 C1174 1.368 . S
C1180 C1179 1.523 . S
C1181 C1165 1.429 . S
C1181 C1177 1.429 . S
C1181 C1182 1.523 . S
C1182 C1166 1.368 . S
C1182 C1178 1.368 . S
C1182 C1181 1.523 . S
H1183 C1158 0.950 . S
H1184 C1160 0.950 . S
H1185 C1161 0.949 . S
H1186 C1163 0.950 . S
H1187 C1165 0.950 . S
C1188 C1189 1.349 . S
C1188 C1190 1.327 . S
C1188 H1213 0.950 . S
C1189 C1188 1.349 . S
C1189 C1205 1.349 . S
C1190 C1188 1.327 . S
C1190 C1209 1.429 . S
C1190 H1214 0.950 . S
C1191 C1208 1.574 . S
C1191 C1210 1.368 . S
C1191 H1215 0.949 . S
H1192 C1196 0.949 . S
C1193 C1194 1.349 . S
C1193 C1195 1.327 . S
C1193 H1216 0.950 . S
C1194 C1193 1.349 . S
C1194 C1206 1.349 . S
C1195 C1193 1.327 . S
C1195 C1211 1.429 . S
C1195 H1217 0.950 . S
C1196 H1192 0.949 . S
C1196 C1204 1.574 . S
C1196 C1212 1.368 . S
H1197 C1205 0.950 . S
H1198 C1203 0.950 . S
H1199 C1204 0.949 . S
H1200 C1206 0.950 . S
H1201 C1207 0.950 . S
H1202 C1208 0.949 . S
C1203 H1198 0.950 . S
C1203 C1205 1.327 . S
C1203 C1209 1.429 . S
C1204 C1196 1.574 . S
C1204 H1199 0.949 . S
C1204 C1210 1.368 . S
C1205 C1189 1.349 . S
C1205 H1197 0.950 . S
C1205 C1203 1.327 . S
C1206 C1194 1.349 . S
C1206 H1200 0.950 . S
C1206 C1207 1.327 . S
C1207 H1201 0.950 . S
C1207 C1206 1.327 . S
C1207 C1211 1.429 . S
C1208 C1191 1.574 . S
C1208 H1202 0.949 . S
C1208 C1212 1.368 . S
C1209 C1190 1.429 . S
C1209 C1203 1.429 . S
C1209 C1210 1.523 . S
C1210 C1191 1.368 . S
C1210 C1204 1.368 . S
C1210 C1209 1.523 . S
C1211 C1195 1.429 . S
C1211 C1207 1.429 . S
C1211 C1212 1.523 . S
C1212 C1196 1.368 . S
C1212 C1208 1.368 . S
C1212 C1211 1.523 . S
H1213 C1188 0.950 . S
H1214 C1190 0.950 . S
H1215 C1191 0.949 . S
H1216 C1193 0.950 . S
H1217 C1195 0.950 . S
C1218 C1219 1.349 . S
C1218 C1220 1.327 . S
C1218 H1243 0.950 . S
C1219 C1218 1.349 . S
C1219 C1235 1.349 . S
C1220 C1218 1.327 . S
C1220 C1239 1.429 . S
C1220 H1244 0.950 . S
C1221 C1238 1.574 . S
C1221 C1240 1.368 . S
C1221 H1245 0.949 . S
H1222 C1226 0.949 . S
C1223 C1224 1.349 . S
C1223 C1225 1.327 . S
C1223 H1246 0.950 . S
C1224 C1223 1.349 . S
C1224 C1236 1.349 . S
C1225 C1223 1.327 . S
C1225 C1241 1.429 . S
C1225 H1247 0.950 . S
C1226 H1222 0.949 . S
C1226 C1234 1.574 . S
C1226 C1242 1.368 . S
H1227 C1235 0.950 . S
H1228 C1233 0.950 . S
H1229 C1234 0.949 . S
H1230 C1236 0.950 . S
H1231 C1237 0.950 . S
H1232 C1238 0.949 . S
C1233 H1228 0.950 . S
C1233 C1235 1.327 . S
C1233 C1239 1.429 . S
C1234 C1226 1.574 . S
C1234 H1229 0.949 . S
C1234 C1240 1.368 . S
C1235 C1219 1.349 . S
C1235 H1227 0.950 . S
C1235 C1233 1.327 . S
C1236 C1224 1.349 . S
C1236 H1230 0.950 . S
C1236 C1237 1.327 . S
C1237 H1231 0.950 . S
C1237 C1236 1.327 . S
C1237 C1241 1.429 . S
C1238 C1221 1.574 . S
C1238 H1232 0.949 . S
C1238 C1242 1.368 . S
C1239 C1220 1.429 . S
C1239 C1233 1.429 . S
C1239 C1240 1.523 . S
C1240 C1221 1.368 . S
C1240 C1234 1.368 . S
C1240 C1239 1.523 . S
C1241 C1225 1.429 . S
C1241 C1237 1.429 . S
C1241 C1242 1.523 . S
C1242 C1226 1.368 . S
C1242 C1238 1.368 . S
C1242 C1241 1.523 . S
H1243 C1218 0.950 . S
H1244 C1220 0.950 . S
H1245 C1221 0.949 . S
H1246 C1223 0.950 . S
H1247 C1225 0.950 . S
C1248 C1249 1.349 . S
C1248 C1250 1.327 . S
C1248 H1273 0.950 . S
C1249 C1248 1.349 . S
C1249 C1265 1.349 . S
C1250 C1248 1.327 . S
C1250 C1269 1.429 . S
C1250 H1274 0.950 . S
C1251 C1268 1.574 . S
C1251 C1270 1.368 . S
C1251 H1275 0.949 . S
H1252 C1256 0.949 . S
C1253 C1254 1.349 . S
C1253 C1255 1.327 . S
C1253 H1276 0.950 . S
C1254 C1253 1.349 . S
C1254 C1266 1.349 . S
C1255 C1253 1.327 . S
C1255 C1271 1.429 . S
C1255 H1277 0.950 . S
C1256 H1252 0.949 . S
C1256 C1264 1.574 . S
C1256 C1272 1.368 . S
H1257 C1265 0.950 . S
H1258 C1263 0.950 . S
H1259 C1264 0.949 . S
H1260 C1266 0.950 . S
H1261 C1267 0.950 . S
H1262 C1268 0.949 . S
C1263 H1258 0.950 . S
C1263 C1265 1.327 . S
C1263 C1269 1.429 . S
C1264 C1256 1.574 . S
C1264 H1259 0.949 . S
C1264 C1270 1.368 . S
C1265 C1249 1.349 . S
C1265 H1257 0.950 . S
C1265 C1263 1.327 . S
C1266 C1254 1.349 . S
C1266 H1260 0.950 . S
C1266 C1267 1.327 . S
C1267 H1261 0.950 . S
C1267 C1266 1.327 . S
C1267 C1271 1.429 . S
C1268 C1251 1.574 . S
C1268 H1262 0.949 . S
C1268 C1272 1.368 . S
C1269 C1250 1.429 . S
C1269 C1263 1.429 . S
C1269 C1270 1.523 . S
C1270 C1251 1.368 . S
C1270 C1264 1.368 . S
C1270 C1269 1.523 . S
C1271 C1255 1.429 . S
C1271 C1267 1.429 . S
C1271 C1272 1.523 . S
C1272 C1256 1.368 . S
C1272 C1268 1.368 . S
C1272 C1271 1.523 . S
H1273 C1248 0.950 . S
H1274 C1250 0.950 . S
H1275 C1251 0.949 . S
H1276 C1253 0.950 . S
H1277 C1255 0.950 . S
C1278 C1279 1.349 . S
C1278 C1280 1.327 . S
C1278 H1303 0.950 . S
C1279 C1278 1.349 . S
C1279 C1295 1.349 . S
C1280 C1278 1.327 . S
C1280 C1299 1.429 . S
C1280 H1304 0.950 . S
C1281 C1298 1.574 . S
C1281 C1300 1.368 . S
C1281 H1305 0.949 . S
H1282 C1286 0.949 . S
C1283 C1284 1.349 . S
C1283 C1285 1.327 . S
C1283 H1306 0.950 . S
C1284 C1283 1.349 . S
C1284 C1296 1.349 . S
C1285 C1283 1.327 . S
C1285 C1301 1.429 . S
C1285 H1307 0.950 . S
C1286 H1282 0.949 . S
C1286 C1294 1.574 . S
C1286 C1302 1.368 . S
H1287 C1295 0.950 . S
H1288 C1293 0.950 . S
H1289 C1294 0.949 . S
H1290 C1296 0.950 . S
H1291 C1297 0.950 . S
H1292 C1298 0.949 . S
C1293 H1288 0.950 . S
C1293 C1295 1.327 . S
C1293 C1299 1.429 . S
C1294 C1286 1.574 . S
C1294 H1289 0.949 . S
C1294 C1300 1.368 . S
C1295 C1279 1.349 . S
C1295 H1287 0.950 . S
C1295 C1293 1.327 . S
C1296 C1284 1.349 . S
C1296 H1290 0.950 . S
C1296 C1297 1.327 . S
C1297 H1291 0.950 . S
C1297 C1296 1.327 . S
C1297 C1301 1.429 . S
C1298 C1281 1.574 . S
C1298 H1292 0.949 . S
C1298 C1302 1.368 . S
C1299 C1280 1.429 . S
C1299 C1293 1.429 . S
C1299 C1300 1.523 . S
C1300 C1281 1.368 . S
C1300 C1294 1.368 . S
C1300 C1299 1.523 . S
C1301 C1285 1.429 . S
C1301 C1297 1.429 . S
C1301 C1302 1.523 . S
C1302 C1286 1.368 . S
C1302 C1298 1.368 . S
C1302 C1301 1.523 . S
H1303 C1278 0.950 . S
H1304 C1280 0.950 . S
H1305 C1281 0.949 . S
H1306 C1283 0.950 . S
H1307 C1285 0.950 . S
C1308 C1309 1.349 . S
C1308 C1310 1.327 . S
C1308 H1333 0.950 . S
C1309 C1308 1.349 . S
C1309 C1325 1.349 . S
C1310 C1308 1.327 . S
C1310 C1329 1.429 . S
C1310 H1334 0.950 . S
C1311 C1328 1.574 . S
C1311 C1330 1.368 . S
C1311 H1335 0.949 . S
H1312 C1316 0.949 . S
C1313 C1314 1.349 . S
C1313 C1315 1.327 . S
C1313 H1336 0.950 . S
C1314 C1313 1.349 . S
C1314 C1326 1.349 . S
C1315 C1313 1.327 . S
C1315 C1331 1.429 . S
C1315 H1337 0.950 . S
C1316 H1312 0.949 . S
C1316 C1324 1.574 . S
C1316 C1332 1.368 . S
H1317 C1325 0.950 . S
H1318 C1323 0.950 . S
H1319 C1324 0.949 . S
H1320 C1326 0.950 . S
H1321 C1327 0.950 . S
H1322 C1328 0.949 . S
C1323 H1318 0.950 . S
C1323 C1325 1.327 . S
C1323 C1329 1.429 . S
C1324 C1316 1.574 . S
C1324 H1319 0.949 . S
C1324 C1330 1.368 . S
C1325 C1309 1.349 . S
C1325 H1317 0.950 . S
C1325 C1323 1.327 . S
C1326 C1314 1.349 . S
C1326 H1320 0.950 . S
C1326 C1327 1.327 . S
C1327 H1321 0.950 . S
C1327 C1326 1.327 . S
C1327 C1331 1.429 . S
C1328 C1311 1.574 . S
C1328 H1322 0.949 . S
C1328 C1332 1.368 . S
C1329 C1310 1.429 . S
C1329 C1323 1.429 . S
C1329 C1330 1.523 . S
C1330 C1311 1.368 . S
C1330 C1324 1.368 . S
C1330 C1329 1.523 . S
C1331 C1315 1.429 . S
C1331 C1327 1.429 . S
C1331 C1332 1.523 . S
C1332 C1316 1.368 . S
C1332 C1328 1.368 . S
C1332 C1331 1.523 . S
H1333 C1308 0.950 . S
H1334 C1310 0.950 . S
H1335 C1311 0.949 . S
H1336 C1313 0.950 . S
H1337 C1315 0.950 . S
C1338 C1339 1.349 . S
C1338 C1340 1.327 . S
C1338 H1363 0.950 . S
C1339 C1338 1.349 . S
C1339 C1355 1.349 . S
C1340 C1338 1.327 . S
C1340 C1359 1.429 . S
C1340 H1364 0.950 . S
C1341 C1358 1.574 . S
C1341 C1360 1.368 . S
C1341 H1365 0.949 . S
H1342 C1346 0.949 . S
C1343 C1344 1.349 . S
C1343 C1345 1.327 . S
C1343 H1366 0.950 . S
C1344 C1343 1.349 . S
C1344 C1356 1.349 . S
C1345 C1343 1.327 . S
C1345 C1361 1.429 . S
C1345 H1367 0.950 . S
C1346 H1342 0.949 . S
C1346 C1354 1.574 . S
C1346 C1362 1.368 . S
H1347 C1355 0.950 . S
H1348 C1353 0.950 . S
H1349 C1354 0.949 . S
H1350 C1356 0.950 . S
H1351 C1357 0.950 . S
H1352 C1358 0.949 . S
C1353 H1348 0.950 . S
C1353 C1355 1.327 . S
C1353 C1359 1.429 . S
C1354 C1346 1.574 . S
C1354 H1349 0.949 . S
C1354 C1360 1.368 . S
C1355 C1339 1.349 . S
C1355 H1347 0.950 . S
C1355 C1353 1.327 . S
C1356 C1344 1.349 . S
C1356 H1350 0.950 . S
C1356 C1357 1.327 . S
C1357 H1351 0.950 . S
C1357 C1356 1.327 . S
C1357 C1361 1.429 . S
C1358 C1341 1.574 . S
C1358 H1352 0.949 . S
C1358 C1362 1.368 . S
C1359 C1340 1.429 . S
C1359 C1353 1.429 . S
C1359 C1360 1.523 . S
C1360 C1341 1.368 . S
C1360 C1354 1.368 . S
C1360 C1359 1.523 . S
C1361 C1345 1.429 . S
C1361 C1357 1.429 . S
C1361 C1362 1.523 . S
C1362 C1346 1.368 . S
C1362 C1358 1.368 . S
C1362 C1361 1.523 . S
H1363 C1338 0.950 . S
H1364 C1340 0.950 . S
H1365 C1341 0.949 . S
H1366 C1343 0.950 . S
H1367 C1345 0.950 . S
C1368 C1369 1.349 . S
C1368 C1370 1.327 . S
C1368 H1393 0.950 . S
C1369 C1368 1.349 . S
C1369 C1385 1.349 . S
C1370 C1368 1.327 . S
C1370 C1389 1.429 . S
C1370 H1394 0.950 . S
C1371 C1388 1.574 . S
C1371 C1390 1.368 . S
C1371 H1395 0.949 . S
H1372 C1376 0.949 . S
C1373 C1374 1.349 . S
C1373 C1375 1.327 . S
C1373 H1396 0.950 . S
C1374 C1373 1.349 . S
C1374 C1386 1.349 . S
C1375 C1373 1.327 . S
C1375 C1391 1.429 . S
C1375 H1397 0.950 . S
C1376 H1372 0.949 . S
C1376 C1384 1.574 . S
C1376 C1392 1.368 . S
H1377 C1385 0.950 . S
H1378 C1383 0.950 . S
H1379 C1384 0.949 . S
H1380 C1386 0.950 . S
H1381 C1387 0.950 . S
H1382 C1388 0.949 . S
C1383 H1378 0.950 . S
C1383 C1385 1.327 . S
C1383 C1389 1.429 . S
C1384 C1376 1.574 . S
C1384 H1379 0.949 . S
C1384 C1390 1.368 . S
C1385 C1369 1.349 . S
C1385 H1377 0.950 . S
C1385 C1383 1.327 . S
C1386 C1374 1.349 . S
C1386 H1380 0.950 . S
C1386 C1387 1.327 . S
C1387 H1381 0.950 . S
C1387 C1386 1.327 . S
C1387 C1391 1.429 . S
C1388 C1371 1.574 . S
C1388 H1382 0.949 . S
C1388 C1392 1.368 . S
C1389 C1370 1.429 . S
C1389 C1383 1.429 . S
C1389 C1390 1.523 . S
C1390 C1371 1.368 . S
C1390 C1384 1.368 . S
C1390 C1389 1.523 . S
C1391 C1375 1.429 . S
C1391 C1387 1.429 . S
C1391 C1392 1.523 . S
C1392 C1376 1.368 . S
C1392 C1388 1.368 . S
C1392 C1391 1.523 . S
H1393 C1368 0.950 . S
H1394 C1370 0.950 . S
H1395 C1371 0.949 . S
H1396 C1373 0.950 . S
H1397 C1375 0.950 . S
C1398 C1399 1.349 . S
C1398 C1400 1.327 . S
C1398 H1423 0.950 . S
C1399 C1398 1.349 . S
C1399 C1415 1.349 . S
C1400 C1398 1.327 . S
C1400 C1419 1.429 . S
C1400 H1424 0.950 . S
C1401 C1418 1.574 . S
C1401 C1420 1.368 . S
C1401 H1425 0.949 . S
H1402 C1406 0.949 . S
C1403 C1404 1.349 . S
C1403 C1405 1.327 . S
C1403 H1426 0.950 . S
C1404 C1403 1.349 . S
C1404 C1416 1.349 . S
C1405 C1403 1.327 . S
C1405 C1421 1.429 . S
C1405 H1427 0.950 . S
C1406 H1402 0.949 . S
C1406 C1414 1.574 . S
C1406 C1422 1.368 . S
H1407 C1415 0.950 . S
H1408 C1413 0.950 . S
H1409 C1414 0.949 . S
H1410 C1416 0.950 . S
H1411 C1417 0.950 . S
H1412 C1418 0.949 . S
C1413 H1408 0.950 . S
C1413 C1415 1.327 . S
C1413 C1419 1.429 . S
C1414 C1406 1.574 . S
C1414 H1409 0.949 . S
C1414 C1420 1.368 . S
C1415 C1399 1.349 . S
C1415 H1407 0.950 . S
C1415 C1413 1.327 . S
C1416 C1404 1.349 . S
C1416 H1410 0.950 . S
C1416 C1417 1.327 . S
C1417 H1411 0.950 . S
C1417 C1416 1.327 . S
C1417 C1421 1.429 . S
C1418 C1401 1.574 . S
C1418 H1412 0.949 . S
C1418 C1422 1.368 . S
C1419 C1400 1.429 . S
C1419 C1413 1.429 . S
C1419 C1420 1.523 . S
C1420 C1401 1.368 . S
C1420 C1414 1.368 . S
C1420 C1419 1.523 . S
C1421 C1405 1.429 . S
C1421 C1417 1.429 . S
C1421 C1422 1.523 . S
C1422 C1406 1.368 . S
C1422 C1418 1.368 . S
C1422 C1421 1.523 . S
H1423 C1398 0.950 . S
H1424 C1400 0.950 . S
H1425 C1401 0.949 . S
H1426 C1403 0.950 . S
H1427 C1405 0.950 . S
C709 C593 1.637 . S
C714 C3 1.626 . S
C739 C62 1.634 . S
C744 C654 1.641 . S
C769 C123 1.692 . S
C774 C357 1.672 . S
C799 C416 1.637 . S
C804 C180 1.626 . S
C829 C477 1.641 . S
C834 C239 1.634 . S
C859 C300 1.692 . S
C864 C534 1.672 . S
C889 C5 1.040 . S
C894 C418 1.018 . S
C919 C64 1.020 . S
C924 C475 1.039 . S
C949 C536 0.827 . S
C954 C121 0.828 . S
C979 C595 1.018 . S
C984 C182 1.040 . S
C1009 C652 1.040 . S
C1014 C241 1.021 . S
C1039 C359 0.827 . S
C1044 C298 0.828 . S
C1069 C33 1.273 . S
C1074 C288 1.330 . S
C1099 C92 1.014 . S
C1104 C328 1.119 . S
C1129 C170 0.728 . S
C1134 C52 0.723 . S
C1159 C210 1.274 . S
C1164 C111 1.331 . S
C1189 C269 1.014 . S
C1194 C151 1.119 . S
C1219 C347 0.728 . S
C1224 C229 0.723 . S
C1249 C387 0.732 . S
C1254 C505 0.728 . S
C1279 C446 1.014 . S
C1284 C583 1.119 . S
C1309 C642 1.326 . S
C1314 C524 1.272 . S
C1339 C564 0.731 . S
C1344 C682 0.727 . S
C1369 C623 1.014 . S
C1374 C406 1.118 . S
C1399 C701 1.272 . S
C1404 C465 1.326 . S
