# Generated by pormake.
# Topology vci, (7)-cn, num edge types: 1
# Building blocks:
#     Node 0, Type 0, BuildingBlock: NUHQUE_clean_sbu_2, # of connection points: 7
#     Node 1, Type 0, BuildingBlock: NUHQUE_clean_sbu_2, # of connection points: 7
#     Node 2, Type 0, BuildingBlock: NUHQUE_clean_sbu_2, # of connection points: 7
#     Node 3, Type 0, BuildingBlock: NUHQUE_clean_sbu_2, # of connection points: 7
#     Node 4, Type 0, BuildingBlock: NUHQUE_clean_sbu_2, # of connection points: 7
#     Node 5, Type 0, BuildingBlock: NUHQUE_clean_sbu_2, # of connection points: 7
#     Node 6, Type 0, BuildingBlock: NUHQUE_clean_sbu_2, # of connection points: 7
#     Node 7, Type 0, BuildingBlock: NUHQUE_clean_sbu_2, # of connection points: 7
#     Node 8, Type 0, BuildingBlock: NUHQUE_clean_sbu_2, # of connection points: 7
#     Node 9, Type 0, BuildingBlock: NUHQUE_clean_sbu_2, # of connection points: 7
#     Node 10, Type 0, BuildingBlock: NUHQUE_clean_sbu_2, # of connection points: 7
#     Node 11, Type 0, BuildingBlock: NUHQUE_clean_sbu_2, # of connection points: 7
#     Node 12, Type 0, BuildingBlock: NUHQUE_clean_sbu_2, # of connection points: 7
#     Node 13, Type 0, BuildingBlock: NUHQUE_clean_sbu_2, # of connection points: 7
#     Node 14, Type 0, BuildingBlock: NUHQUE_clean_sbu_2, # of connection points: 7
#     Node 15, Type 0, BuildingBlock: NUHQUE_clean_sbu_2, # of connection points: 7
#     Edge 16, Type (0, 0), BuildingBlock: TEMPAE_clean_linker_10, # of connection points: 2
#     Edge 17, Type (0, 0), BuildingBlock: TEMPAE_clean_linker_10, # of connection points: 2
#     Edge 18, Type (0, 0), BuildingBlock: TEMPAE_clean_linker_10, # of connection points: 2
#     Edge 19, Type (0, 0), BuildingBlock: TEMPAE_clean_linker_10, # of connection points: 2
#     Edge 20, Type (0, 0), BuildingBlock: TEMPAE_clean_linker_10, # of connection points: 2
#     Edge 21, Type (0, 0), BuildingBlock: TEMPAE_clean_linker_10, # of connection points: 2
#     Edge 22, Type (0, 0), BuildingBlock: TEMPAE_clean_linker_10, # of connection points: 2
#     Edge 23, Type (0, 0), BuildingBlock: TEMPAE_clean_linker_10, # of connection points: 2
#     Edge 24, Type (0, 0), BuildingBlock: TEMPAE_clean_linker_10, # of connection points: 2
#     Edge 25, Type (0, 0), BuildingBlock: TEMPAE_clean_linker_10, # of connection points: 2
#     Edge 26, Type (0, 0), BuildingBlock: TEMPAE_clean_linker_10, # of connection points: 2
#     Edge 27, Type (0, 0), BuildingBlock: TEMPAE_clean_linker_10, # of connection points: 2
#     Edge 28, Type (0, 0), BuildingBlock: TEMPAE_clean_linker_10, # of connection points: 2
#     Edge 29, Type (0, 0), BuildingBlock: TEMPAE_clean_linker_10, # of connection points: 2
#     Edge 30, Type (0, 0), BuildingBlock: TEMPAE_clean_linker_10, # of connection points: 2
#     Edge 31, Type (0, 0), BuildingBlock: TEMPAE_clean_linker_10, # of connection points: 2
#     Edge 32, Type (0, 0), BuildingBlock: TEMPAE_clean_linker_10, # of connection points: 2
#     Edge 33, Type (0, 0), BuildingBlock: TEMPAE_clean_linker_10, # of connection points: 2
#     Edge 34, Type (0, 0), BuildingBlock: TEMPAE_clean_linker_10, # of connection points: 2
#     Edge 35, Type (0, 0), BuildingBlock: TEMPAE_clean_linker_10, # of connection points: 2
#     Edge 36, Type (0, 0), BuildingBlock: TEMPAE_clean_linker_10, # of connection points: 2
#     Edge 37, Type (0, 0), BuildingBlock: TEMPAE_clean_linker_10, # of connection points: 2
#     Edge 38, Type (0, 0), BuildingBlock: TEMPAE_clean_linker_10, # of connection points: 2
#     Edge 39, Type (0, 0), BuildingBlock: TEMPAE_clean_linker_10, # of connection points: 2
#     Edge 40, Type (0, 0), BuildingBlock: TEMPAE_clean_linker_10, # of connection points: 2
#     Edge 41, Type (0, 0), BuildingBlock: TEMPAE_clean_linker_10, # of connection points: 2
#     Edge 42, Type (0, 0), BuildingBlock: TEMPAE_clean_linker_10, # of connection points: 2
#     Edge 43, Type (0, 0), BuildingBlock: TEMPAE_clean_linker_10, # of connection points: 2
#     Edge 44, Type (0, 0), BuildingBlock: TEMPAE_clean_linker_10, # of connection points: 2
#     Edge 45, Type (0, 0), BuildingBlock: TEMPAE_clean_linker_10, # of connection points: 2
#     Edge 46, Type (0, 0), BuildingBlock: TEMPAE_clean_linker_10, # of connection points: 2
#     Edge 47, Type (0, 0), BuildingBlock: TEMPAE_clean_linker_10, # of connection points: 2
#     Edge 48, Type (0, 0), BuildingBlock: TEMPAE_clean_linker_10, # of connection points: 2
#     Edge 49, Type (0, 0), BuildingBlock: TEMPAE_clean_linker_10, # of connection points: 2
#     Edge 50, Type (0, 0), BuildingBlock: TEMPAE_clean_linker_10, # of connection points: 2
#     Edge 51, Type (0, 0), BuildingBlock: TEMPAE_clean_linker_10, # of connection points: 2
#     Edge 52, Type (0, 0), BuildingBlock: TEMPAE_clean_linker_10, # of connection points: 2
#     Edge 53, Type (0, 0), BuildingBlock: TEMPAE_clean_linker_10, # of connection points: 2
#     Edge 54, Type (0, 0), BuildingBlock: TEMPAE_clean_linker_10, # of connection points: 2
#     Edge 55, Type (0, 0), BuildingBlock: TEMPAE_clean_linker_10, # of connection points: 2
#     Edge 56, Type (0, 0), BuildingBlock: TEMPAE_clean_linker_10, # of connection points: 2
#     Edge 57, Type (0, 0), BuildingBlock: TEMPAE_clean_linker_10, # of connection points: 2
#     Edge 58, Type (0, 0), BuildingBlock: TEMPAE_clean_linker_10, # of connection points: 2
#     Edge 59, Type (0, 0), BuildingBlock: TEMPAE_clean_linker_10, # of connection points: 2
#     Edge 60, Type (0, 0), BuildingBlock: TEMPAE_clean_linker_10, # of connection points: 2
#     Edge 61, Type (0, 0), BuildingBlock: TEMPAE_clean_linker_10, # of connection points: 2
#     Edge 62, Type (0, 0), BuildingBlock: TEMPAE_clean_linker_10, # of connection points: 2
#     Edge 63, Type (0, 0), BuildingBlock: TEMPAE_clean_linker_10, # of connection points: 2
#     Edge 64, Type (0, 0), BuildingBlock: TEMPAE_clean_linker_10, # of connection points: 2
#     Edge 65, Type (0, 0), BuildingBlock: TEMPAE_clean_linker_10, # of connection points: 2
#     Edge 66, Type (0, 0), BuildingBlock: TEMPAE_clean_linker_10, # of connection points: 2
#     Edge 67, Type (0, 0), BuildingBlock: TEMPAE_clean_linker_10, # of connection points: 2
#     Edge 68, Type (0, 0), BuildingBlock: TEMPAE_clean_linker_10, # of connection points: 2
#     Edge 69, Type (0, 0), BuildingBlock: TEMPAE_clean_linker_10, # of connection points: 2
#     Edge 70, Type (0, 0), BuildingBlock: TEMPAE_clean_linker_10, # of connection points: 2
#     Edge 71, Type (0, 0), BuildingBlock: TEMPAE_clean_linker_10, # of connection points: 2
# Relax obj value: 0.144
# Max RMSD: 0.214
# Mean RMSD: 0.214
data_MOF--net-vci--node1-NUHQUE_clean_sbu_2--edge1-TEMPAE_clean_linker_10
_symmetry_space_group_name_H-M    P1
_symmetry_Int_Tables_number       1
_symmetry_cell_setting            triclinic
loop_
_symmetry_equiv_pos_as_xyz
'x, y, z'
_cell_length_a     52.814494
_cell_length_b     67.764334
_cell_length_c     21.681184
_cell_angle_alpha  90.016414
_cell_angle_beta   90.020522
_cell_angle_gamma 90.023097
loop_
_atom_site_label
_atom_site_type_symbol
_atom_site_fract_x
_atom_site_fract_y
_atom_site_fract_z
_atom_type_partial_charge
O0 O 0.13452 0.15984 0.19428 0.0
Tb1 Tb 0.12319 0.12896 0.20273 0.0
Eu2 Eu 0.14127 0.12717 0.04388 0.0
C3 C 0.14978 0.16764 0.2359 0.0
O4 O 0.15964 0.15606 0.27813 0.0
C5 C 0.17711 0.12426 0.1583 0.0
O6 O 0.13876 0.09432 0.0617 0.0
C7 C 0.15397 0.13485 0.93051 0.0
C8 C 0.12073 0.08374 0.03583 0.0
O9 O 0.10375 0.09275 1.00164 0.0
C10 C 0.08435 0.13185 0.09471 0.0
C11 C 0.14253 0.14184 0.87188 0.0
C12 C 0.13691 0.16203 0.86275 0.0
C13 C 0.12774 0.16881 0.80558 0.0
C14 C 0.12389 0.15513 0.75805 0.0
C15 C 0.12956 0.13516 0.76599 0.0
C16 C 0.13905 0.1285 0.82263 0.0
O17 O 0.1582 0.11408 0.18071 0.0
O18 O 0.17381 0.13445 0.10752 0.0
O19 O 0.11083 0.13844 0.29425 0.0
O20 O 0.12184 0.10867 0.28153 0.0
C21 C 0.11405 0.12158 0.32159 0.0
O22 O 0.10166 0.13894 0.05697 0.0
O23 O 0.09003 0.12295 0.1469 0.0
O24 O 0.14767 0.11711 0.94955 0.0
O25 O 0.15606 0.14767 0.97577 0.0
H26 H 0.14011 0.17256 0.89956 0.0
H27 H 0.11786 0.16015 0.71285 0.0
H28 H 0.14419 0.1131 0.82781 0.0
O29 O 0.35342 0.82496 0.64574 0.0
Tb30 Tb 0.35291 0.85695 0.63873 0.0
Eu31 Eu 0.35036 0.89527 0.48092 0.0
C32 C 0.33338 0.81559 0.66691 0.0
O33 O 0.31233 0.82548 0.67617 0.0
C34 C 0.31354 0.88309 0.57947 0.0
O35 O 0.35478 0.92841 0.47667 0.0
C36 C 0.33643 0.88018 0.37552 0.0
C37 C 0.36866 0.93771 0.51794 0.0
O38 O 0.38067 0.9273 0.55986 0.0
C39 C 0.40054 0.87158 0.55307 0.0
C40 C 0.34365 0.86668 0.32411 0.0
C41 C 0.34426 0.84603 0.33274 0.0
C42 C 0.34933 0.83338 0.28295 0.0
C43 C 0.35362 0.84133 0.22436 0.0
C44 C 0.35264 0.86176 0.21386 0.0
C45 C 0.34758 0.87438 0.26418 0.0
O46 O 0.32808 0.86794 0.56886 0.0
O47 O 0.31768 0.89869 0.54616 0.0
O48 O 0.33271 0.85813 0.72663 0.0
O49 O 0.36545 0.8758 0.71595 0.0
C50 C 0.34781 0.87035 0.75444 0.0
O51 O 0.38864 0.88339 0.51329 0.0
O52 O 0.39041 0.86103 0.59867 0.0
O53 O 0.34847 0.89712 0.38034 0.0
O54 O 0.3308 0.87231 0.42936 0.0
H55 H 0.34055 0.8397 0.37774 0.0
H56 H 0.35658 0.83131 0.186 0.0
H57 H 0.34641 0.89016 0.25662 0.0
O58 O 0.13632 0.83013 0.85553 0.0
Tb59 Tb 0.13821 0.86222 0.86083 0.0
Eu60 Eu 0.14566 0.89157 0.02011 0.0
C61 C 0.1537 0.82137 0.82148 0.0
O62 O 0.1719 0.8323 0.79812 0.0
C63 C 0.18487 0.87904 0.91941 0.0
O64 O 0.13934 0.92459 0.01544 0.0
C65 C 0.16565 0.88067 0.12448 0.0
C66 C 0.12401 0.93417 0.05285 0.0
O67 O 0.11073 0.9242 0.0935 0.0
C68 C 0.09463 0.8765 0.95156 0.0
C69 C 0.16266 0.86879 0.18162 0.0
C70 C 0.1605 0.848 0.17969 0.0
C71 C 0.16102 0.83691 0.23457 0.0
C72 C 0.16317 0.84674 0.29112 0.0
C73 C 0.16535 0.86728 0.29419 0.0
C74 C 0.1648 0.87832 0.23937 0.0
O75 O 0.17136 0.86287 0.91946 0.0
O76 O 0.17599 0.89461 0.94775 0.0
O77 O 0.13022 0.85887 0.76284 0.0
O78 O 0.15614 0.88108 0.79043 0.0
C79 C 0.14509 0.87278 0.74333 0.0
O80 O 0.10836 0.87582 0.00248 0.0
O81 O 0.10449 0.87705 0.89568 0.0
O82 O 0.15172 0.89663 0.11853 0.0
O83 O 0.1695 0.87133 0.07202 0.0
H84 H 0.15933 0.8404 0.1358 0.0
H85 H 0.16307 0.83826 0.33358 0.0
H86 H 0.16695 0.89422 0.24154 0.0
O87 O 0.37954 0.1876 0.38874 0.0
Tb88 Tb 0.36298 0.15856 0.39779 0.0
Eu89 Eu 0.35446 0.13015 0.56458 0.0
C90 C 0.36567 0.20325 0.40008 0.0
O91 O 0.34328 0.20092 0.42547 0.0
C92 C 0.31852 0.14122 0.46019 0.0
O93 O 0.35896 0.09712 0.57379 0.0
C94 C 0.33772 0.14733 0.66406 0.0
C95 C 0.37116 0.08719 0.53088 0.0
O96 O 0.38153 0.09698 0.48508 0.0
C97 C 0.40633 0.14109 0.48536 0.0
C98 C 0.34364 0.16045 0.71735 0.0
C99 C 0.34469 0.18123 0.71088 0.0
C100 C 0.34721 0.19347 0.76316 0.0
C101 C 0.34954 0.18475 0.82152 0.0
C102 C 0.34847 0.16423 0.8291 0.0
C103 C 0.34527 0.15217 0.77696 0.0
O104 O 0.33368 0.15631 0.4654 0.0
O105 O 0.32316 0.12618 0.49582 0.0
O106 O 0.34215 0.16519 0.31342 0.0
O107 O 0.36155 0.1379 0.31974 0.0
C108 C 0.34769 0.14903 0.28423 0.0
O109 O 0.39366 0.1413 0.53821 0.0
O110 O 0.39616 0.14238 0.42961 0.0
O111 O 0.34754 0.12947 0.66368 0.0
O112 O 0.33596 0.1552 0.60869 0.0
H113 H 0.3425 0.18793 0.66583 0.0
H114 H 0.35152 0.1941 0.86185 0.0
H115 H 0.34374 0.13633 0.78298 0.0
O116 O 0.86659 0.82466 0.84705 0.0
Tb117 Tb 0.85767 0.8557 0.86106 0.0
Eu118 Eu 0.84985 0.89142 0.01627 0.0
C119 C 0.85085 0.81059 0.8638 0.0
O120 O 0.83088 0.81516 0.89691 0.0
C121 C 0.81215 0.87298 0.92347 0.0
O122 O 0.84797 0.9249 0.01482 0.0
C123 C 0.83884 0.87749 0.12529 0.0
C124 C 0.86641 0.93585 0.9923 0.0
O125 O 0.88681 0.92714 0.97086 0.0
C126 C 0.9036 0.874 0.94447 0.0
C127 C 0.84797 0.8668 0.18119 0.0
C128 C 0.85393 0.84646 0.17885 0.0
C129 C 0.86027 0.83608 0.23296 0.0
C130 C 0.86068 0.84622 0.28928 0.0
C131 C 0.85468 0.8663 0.29325 0.0
C132 C 0.84808 0.87654 0.23903 0.0
O133 O 0.82892 0.859 0.93032 0.0
O134 O 0.81609 0.88947 0.95322 0.0
O135 O 0.84223 0.85078 0.7691 0.0
O136 O 0.85646 0.8792 0.79048 0.0
C137 C 0.84617 0.86835 0.74739 0.0
O138 O 0.89015 0.88339 0.9874 0.0
O139 O 0.89475 0.86412 0.89601 0.0
O140 O 0.8469 0.89562 0.11605 0.0
O141 O 0.83581 0.86746 0.07376 0.0
H142 H 0.85321 0.83861 0.13536 0.0
H143 H 0.8644 0.83811 0.33146 0.0
H144 H 0.84274 0.89195 0.24198 0.0
O145 O 0.63158 0.17476 0.30052 0.0
Tb146 Tb 0.62732 0.14337 0.31868 0.0
Eu147 Eu 0.63963 0.11005 0.49663 0.0
C148 C 0.63752 0.18082 0.24463 0.0
O149 O 0.64135 0.16762 0.20123 0.0
C150 C 0.67223 0.12557 0.39471 0.0
O151 O 0.6314 0.07909 0.46471 0.0
C152 C 0.65082 0.11107 0.61285 0.0
C153 C 0.61214 0.06899 0.48659 0.0
O154 O 0.59625 0.07764 0.52456 0.0
C155 C 0.59241 0.13029 0.42909 0.0
C156 C 0.649 0.12302 0.66887 0.0
C157 C 0.64543 0.14361 0.6665 0.0
C158 C 0.6449 0.15463 0.72142 0.0
C159 C 0.6484 0.14488 0.77777 0.0
C160 C 0.6523 0.12445 0.78045 0.0
C161 C 0.65224 0.11353 0.72577 0.0
O162 O 0.6506 0.13489 0.39512 0.0
O163 O 0.67519 0.11326 0.44024 0.0
O164 O 0.60972 0.13265 0.23442 0.0
O165 O 0.64712 0.12326 0.25623 0.0
C166 C 0.62876 0.12193 0.21644 0.0
O167 O 0.61171 0.13389 0.46625 0.0
O168 O 0.5935 0.13492 0.36977 0.0
O169 O 0.62978 0.10319 0.59182 0.0
O170 O 0.66593 0.11769 0.56941 0.0
H171 H 0.6431 0.15092 0.62241 0.0
H172 H 0.6483 0.15334 0.82022 0.0
H173 H 0.65532 0.09771 0.72732 0.0
O174 O 0.87106 0.17616 0.15248 0.0
Tb175 Tb 0.86157 0.1453 0.13631 0.0
Eu176 Eu 0.84365 0.12941 0.95979 0.0
C177 C 0.85956 0.18467 0.19946 0.0
O178 O 0.84392 0.174 0.23265 0.0
C179 C 0.81021 0.13942 0.07649 0.0
O180 O 0.84915 0.09633 0.94983 0.0
C181 C 0.8266 0.14647 0.86044 0.0
C182 C 0.85236 0.08536 0.99944 0.0
O183 O 0.85265 0.09406 0.0536 0.0
C184 C 0.89691 0.1346 0.0292 0.0
C185 C 0.83297 0.15759 0.80325 0.0
C186 C 0.83935 0.17789 0.80439 0.0
C187 C 0.84294 0.18849 0.74891 0.0
C188 C 0.83974 0.17847 0.69267 0.0
C189 C 0.83325 0.15841 0.69036 0.0
C190 C 0.83004 0.14806 0.74589 0.0
O191 O 0.82784 0.15272 0.08483 0.0
O192 O 0.8124 0.12695 0.03052 0.0
O193 O 0.83998 0.12884 0.20607 0.0
O194 O 0.87654 0.13986 0.22812 0.0
C195 C 0.85697 0.13046 0.24952 0.0
O196 O 0.88358 0.13995 0.98059 0.0
O197 O 0.88612 0.12737 0.07879 0.0
O198 O 0.83292 0.1277 0.86295 0.0
O199 O 0.82838 0.1555 0.91405 0.0
H200 H 0.84139 0.18543 0.84816 0.0
H201 H 0.84206 0.18645 0.64979 0.0
H202 H 0.82443 0.13268 0.74446 0.0
O203 O 0.63681 0.8283 0.71195 0.0
Tb204 Tb 0.63299 0.8587 0.68107 0.0
Eu205 Eu 0.64518 0.87933 0.48734 0.0
C206 C 0.64786 0.8146 0.67856 0.0
O207 O 0.6572 0.81931 0.62436 0.0
C208 C 0.67769 0.8707 0.59321 0.0
O209 O 0.64114 0.91238 0.48542 0.0
C210 C 0.65191 0.86393 0.37909 0.0
C211 C 0.6222 0.92087 0.45632 0.0
O212 O 0.60565 0.9098 0.42709 0.0
C213 C 0.59084 0.86687 0.57217 0.0
C214 C 0.63945 0.85564 0.32369 0.0
C215 C 0.63015 0.83614 0.32322 0.0
C216 C 0.62146 0.82752 0.26814 0.0
C217 C 0.6217 0.83877 0.21391 0.0
C218 C 0.63189 0.8579 0.2128 0.0
C219 C 0.64033 0.86638 0.26814 0.0
O220 O 0.65387 0.86632 0.60124 0.0
O221 O 0.68202 0.87785 0.53901 0.0
O222 O 0.65156 0.87883 0.74613 0.0
O223 O 0.61198 0.87394 0.75304 0.0
C224 C 0.63122 0.88307 0.77736 0.0
O225 O 0.60533 0.8722 0.52439 0.0
O226 O 0.59811 0.86183 0.62885 0.0
O227 O 0.65 0.88305 0.3884 0.0
O228 O 0.65154 0.85347 0.43029 0.0
H229 H 0.6305 0.82738 0.36502 0.0
H230 H 0.61538 0.83212 0.17114 0.0
H231 H 0.64893 0.8809 0.26737 0.0
O232 O 0.62006 0.67265 0.14819 0.0
Tb233 Tb 0.63698 0.64359 0.14202 0.0
Eu234 Eu 0.64488 0.61441 0.98411 0.0
C235 C 0.63291 0.68816 0.12983 0.0
O236 O 0.65456 0.6855 0.10118 0.0
C237 C 0.68349 0.62818 0.08192 0.0
O238 O 0.63803 0.5816 0.98932 0.0
C239 C 0.6626 0.62549 0.87767 0.0
C240 C 0.61615 0.57345 0.97533 0.0
O241 O 0.59734 0.58472 0.95719 0.0
C242 C 0.59384 0.62875 0.05408 0.0
C243 C 0.65649 0.63793 0.82331 0.0
C244 C 0.65304 0.65854 0.82875 0.0
C245 C 0.64789 0.67005 0.77627 0.0
C246 C 0.64622 0.66088 0.71853 0.0
C247 C 0.65015 0.64056 0.71191 0.0
C248 C 0.65545 0.62913 0.76438 0.0
O249 O 0.66847 0.64342 0.07882 0.0
O250 O 0.6762 0.61205 0.05412 0.0
O251 O 0.65301 0.65149 0.23135 0.0
O252 O 0.6406 0.62206 0.21738 0.0
C253 C 0.65051 0.63429 0.25701 0.0
O254 O 0.60787 0.63028 0.00385 0.0
O255 O 0.60363 0.62766 0.11 0.0
O256 O 0.64918 0.60931 0.8853 0.0
O257 O 0.66797 0.63451 0.92987 0.0
H258 H 0.6544 0.66565 0.87339 0.0
H259 H 0.64296 0.6698 0.67774 0.0
H260 H 0.65877 0.61342 0.75931 0.0
O261 O 0.87438 0.34595 0.6707 0.0
Tb262 Tb 0.87554 0.37786 0.68493 0.0
Eu263 Eu 0.86101 0.38075 0.52149 0.0
C264 C 0.8534 0.33576 0.67916 0.0
O265 O 0.83199 0.34515 0.68814 0.0
C266 C 0.82444 0.38686 0.63193 0.0
O267 O 0.86183 0.414 0.53162 0.0
C268 C 0.85004 0.36894 0.41067 0.0
C269 C 0.87943 0.42475 0.50475 0.0
O270 O 0.89695 0.41586 0.4719 0.0
C271 C 0.91702 0.37757 0.58206 0.0
C272 C 0.86194 0.35961 0.35589 0.0
C273 C 0.86316 0.33884 0.35054 0.0
C274 C 0.87186 0.33003 0.2959 0.0
C275 C 0.88009 0.34199 0.2474 0.0
C276 C 0.87906 0.36261 0.25153 0.0
C277 C 0.86978 0.37137 0.30573 0.0
O278 O 0.8443 0.3958 0.65432 0.0
O279 O 0.82719 0.37584 0.58279 0.0
O280 O 0.86462 0.36992 0.77842 0.0
O281 O 0.89163 0.39278 0.76597 0.0
C282 C 0.87889 0.38265 0.80648 0.0
O283 O 0.90083 0.37043 0.54144 0.0
O284 O 0.91027 0.38451 0.63639 0.0
O285 O 0.85641 0.38724 0.42368 0.0
O286 O 0.84707 0.3579 0.46002 0.0
H287 H 0.85624 0.32951 0.38745 0.0
H288 H 0.88622 0.33508 0.20479 0.0
H289 H 0.86816 0.3873 0.30819 0.0
O290 O 0.64139 0.30944 0.82962 0.0
Tb291 Tb 0.64653 0.34093 0.83971 0.0
Eu292 Eu 0.6328 0.38375 0.00614 0.0
C293 C 0.66077 0.29733 0.82906 0.0
O294 O 0.68348 0.30401 0.84228 0.0
C295 C 0.67729 0.36957 0.9197 0.0
O296 O 0.61733 0.41395 0.98374 0.0
C297 C 0.63685 0.377 0.12351 0.0
C298 C 0.60935 0.42577 0.0278 0.0
O299 O 0.60821 0.41903 0.08452 0.0
C300 C 0.60157 0.35691 0.90933 0.0
C301 C 0.6427 0.36164 0.16921 0.0
C302 C 0.64379 0.3415 0.15321 0.0
C303 C 0.64898 0.32728 0.19881 0.0
C304 C 0.65237 0.33334 0.26007 0.0
C305 C 0.6508 0.35327 0.27654 0.0
C306 C 0.64641 0.36743 0.23077 0.0
O307 O 0.66431 0.35307 0.9217 0.0
O308 O 0.67057 0.38426 0.95614 0.0
O309 O 0.67205 0.34166 0.76059 0.0
O310 O 0.64154 0.36208 0.76487 0.0
C311 C 0.66054 0.35595 0.73189 0.0
O312 O 0.61918 0.35747 0.95208 0.0
O313 O 0.60713 0.34762 0.85791 0.0
O314 O 0.61542 0.37521 0.09306 0.0
O315 O 0.65574 0.38341 0.08948 0.0
H316 H 0.64068 0.33695 0.10586 0.0
H317 H 0.65571 0.32238 0.29564 0.0
H318 H 0.64504 0.38289 0.2434 0.0
O319 O 0.8648 0.67999 0.34669 0.0
Tb320 Tb 0.85273 0.64963 0.36004 0.0
Eu321 Eu 0.84926 0.61651 0.52353 0.0
C322 C 0.84877 0.69444 0.35736 0.0
O323 O 0.82676 0.69028 0.38245 0.0
C324 C 0.8099 0.63084 0.42939 0.0
O325 O 0.85681 0.58393 0.50898 0.0
C326 C 0.8356 0.62535 0.63527 0.0
C327 C 0.87416 0.57401 0.53965 0.0
O328 O 0.88886 0.58344 0.5787 0.0
C329 C 0.89638 0.63267 0.44444 0.0
C330 C 0.84258 0.6374 0.68958 0.0
C331 C 0.84827 0.65775 0.68518 0.0
C332 C 0.85425 0.66865 0.73866 0.0
C333 C 0.85429 0.65903 0.79588 0.0
C334 C 0.84837 0.63897 0.801 0.0
C335 C 0.84242 0.62822 0.74776 0.0
O336 O 0.82563 0.64569 0.43313 0.0
O337 O 0.81527 0.61508 0.46143 0.0
O338 O 0.83151 0.65337 0.27456 0.0
O339 O 0.85188 0.62676 0.28864 0.0
C340 C 0.8377 0.63652 0.25024 0.0
O341 O 0.8819 0.6361 0.4929 0.0
O342 O 0.8884 0.63615 0.38766 0.0
O343 O 0.85043 0.61035 0.62211 0.0
O344 O 0.82689 0.63453 0.58619 0.0
H345 H 0.848 0.66506 0.64074 0.0
H346 H 0.85781 0.66747 0.83754 0.0
H347 H 0.83755 0.61272 0.75167 0.0
O348 O 0.37065 0.35128 0.82612 0.0
Tb349 Tb 0.37882 0.38272 0.81652 0.0
Eu350 Eu 0.36149 0.37896 0.97176 0.0
C351 C 0.35614 0.34263 0.78458 0.0
O352 O 0.34558 0.35361 0.74178 0.0
C353 C 0.32453 0.38343 0.85994 0.0
O354 O 0.3621 0.41188 0.95728 0.0
C355 C 0.35016 0.36934 0.08459 0.0
C356 C 0.37895 0.42291 0.98571 0.0
O357 O 0.39543 0.41444 0.02258 0.0
C358 C 0.41764 0.38253 0.92258 0.0
C359 C 0.36196 0.36312 0.14376 0.0
C360 C 0.36908 0.34325 0.15322 0.0
C361 C 0.37799 0.33686 0.21101 0.0
C362 C 0.38013 0.3506 0.25898 0.0
C363 C 0.3729 0.37025 0.25093 0.0
C364 C 0.36373 0.37655 0.19345 0.0
O365 O 0.34236 0.39501 0.83893 0.0
O366 O 0.32918 0.37189 0.90725 0.0
O367 O 0.39436 0.3741 0.72692 0.0
O368 O 0.3759 0.40171 0.73482 0.0
C369 C 0.38718 0.38973 0.69691 0.0
O370 O 0.40229 0.37094 0.95391 0.0
O371 O 0.40955 0.39272 0.87487 0.0
O372 O 0.35359 0.38768 0.06678 0.0
O373 O 0.35048 0.35667 0.03855 0.0
H374 H 0.36708 0.3326 0.11627 0.0
H375 H 0.38595 0.34577 0.30455 0.0
H376 H 0.35731 0.39164 0.18809 0.0
O377 O 0.13391 0.68244 0.34562 0.0
Tb378 Tb 0.1301 0.6504 0.35387 0.0
Eu379 Eu 0.14236 0.61713 0.50851 0.0
C380 C 0.14867 0.68987 0.30233 0.0
O381 O 0.16175 0.67774 0.2676 0.0
C382 C 0.17875 0.63147 0.40162 0.0
O383 O 0.14255 0.58372 0.51635 0.0
C384 C 0.15714 0.63365 0.61143 0.0
C385 C 0.12614 0.57274 0.48596 0.0
O386 O 0.10893 0.58147 0.45177 0.0
C387 C 0.08674 0.63352 0.44957 0.0
C388 C 0.15087 0.64414 0.67037 0.0
C389 C 0.15011 0.66504 0.67213 0.0
C390 C 0.1483 0.67516 0.72876 0.0
C391 C 0.14646 0.66428 0.7834 0.0
C392 C 0.14774 0.64369 0.78357 0.0
C393 C 0.14967 0.63357 0.7269 0.0
O394 O 0.16503 0.64753 0.40531 0.0
O395 O 0.17346 0.61638 0.43715 0.0
O396 O 0.13906 0.62809 0.28236 0.0
O397 O 0.11933 0.65408 0.25746 0.0
C398 C 0.12907 0.63785 0.2364 0.0
O399 O 0.10085 0.62294 0.48798 0.0
O400 O 0.09487 0.6444 0.4027 0.0
O401 O 0.1516 0.6148 0.60644 0.0
O402 O 0.15535 0.64324 0.55867 0.0
H403 H 0.15225 0.67347 0.62999 0.0
H404 H 0.1447 0.67201 0.82706 0.0
H405 H 0.15142 0.61764 0.72716 0.0
O406 O 0.3512 0.67944 0.17182 0.0
Tb407 Tb 0.36073 0.64855 0.15592 0.0
Eu408 Eu 0.35 0.61402 0.98138 0.0
C409 C 0.34911 0.68604 0.2288 0.0
O410 O 0.35145 0.67349 0.2746 0.0
C411 C 0.31866 0.62522 0.08752 0.0
O412 O 0.3532 0.58088 0.98231 0.0
C413 C 0.33679 0.62796 0.8745 0.0
C414 C 0.37161 0.57157 0.95369 0.0
O415 O 0.38859 0.58183 0.92315 0.0
C416 C 0.40317 0.63533 0.05285 0.0
C417 C 0.34361 0.63939 0.81856 0.0
C418 C 0.34341 0.66026 0.81924 0.0
C419 C 0.34604 0.67093 0.76408 0.0
C420 C 0.34997 0.66068 0.70897 0.0
C421 C 0.34884 0.64007 0.7065 0.0
C422 C 0.34618 0.62941 0.76165 0.0
O423 O 0.33937 0.63565 0.08351 0.0
O424 O 0.31584 0.61289 0.04249 0.0
O425 O 0.38297 0.64014 0.23658 0.0
O426 O 0.34587 0.62853 0.2267 0.0
C427 C 0.36586 0.62892 0.26177 0.0
O428 O 0.38923 0.6246 0.01368 0.0
O429 O 0.39534 0.64556 0.10184 0.0
O430 O 0.34678 0.61032 0.88177 0.0
O431 O 0.33345 0.63756 0.92671 0.0
H432 H 0.33982 0.66818 0.86177 0.0
H433 H 0.35273 0.66895 0.66665 0.0
H434 H 0.3447 0.61346 0.75985 0.0
O435 O 0.12584 0.31903 0.63237 0.0
Tb436 Tb 0.14092 0.34859 0.62376 0.0
Eu437 Eu 0.15141 0.38007 0.45033 0.0
C438 C 0.1406 0.30381 0.62199 0.0
O439 O 0.16304 0.30677 0.5975 0.0
C440 C 0.18394 0.36858 0.55818 0.0
O441 O 0.14446 0.41304 0.44504 0.0
C442 C 0.16785 0.36469 0.34827 0.0
C443 C 0.13686 0.42304 0.49377 0.0
O444 O 0.13237 0.41344 0.54526 0.0
C445 C 0.10343 0.36949 0.53314 0.0
C446 C 0.1629 0.35001 0.29911 0.0
C447 C 0.16304 0.32939 0.30966 0.0
C448 C 0.16084 0.31616 0.2596 0.0
C449 C 0.15775 0.32374 0.19988 0.0
C450 C 0.15767 0.3441 0.18904 0.0
C451 C 0.16036 0.35711 0.23863 0.0
O452 O 0.1674 0.35439 0.55125 0.0
O453 O 0.18305 0.38296 0.51831 0.0
O454 O 0.16493 0.34421 0.70411 0.0
O455 O 0.13933 0.36841 0.70312 0.0
C456 C 0.1563 0.3591 0.73544 0.0
O457 O 0.11792 0.36284 0.48823 0.0
O458 O 0.10852 0.3653 0.5913 0.0
O459 O 0.15305 0.38031 0.35017 0.0
O460 O 0.17483 0.35837 0.40301 0.0
H461 H 0.16571 0.32365 0.35584 0.0
H462 H 0.15609 0.31368 0.16116 0.0
H463 H 0.16082 0.37287 0.22992 0.0
C464 C 0.93819 0.15124 0.00904 0.0
C465 C 0.92471 0.1343 0.02585 0.0
C466 C 0.96472 0.15185 0.0145 0.0
C467 C 0.97789 0.13488 0.03534 0.0
C468 C 0.96431 0.11737 0.04861 0.0
C469 C 0.93782 0.11742 0.04482 0.0
C470 C 0.97844 0.17094 1.00156 0.0
C471 C 0.97765 0.09878 0.0691 0.0
C472 C 0.04936 0.13081 0.01737 0.0
C473 C 0.05744 0.13393 0.07814 0.0
C474 C 0.02349 0.13135 1.00225 0.0
C475 C 0.0055 0.13579 0.0487 0.0
C476 C 0.0138 0.13982 0.10957 0.0
C477 C 0.03964 0.13848 0.12378 0.0
C478 C 0.01533 0.12634 0.93737 0.0
C479 C 0.99533 0.14518 0.16005 0.0
H480 H 0.9279 0.16433 0.99493 0.0
H481 H 0.92728 0.10429 0.05742 0.0
H482 H 0.98628 0.1769 0.04528 0.0
H483 H 0.99463 0.16839 0.96999 0.0
H484 H 0.96579 0.18224 0.98088 0.0
H485 H 0.9647 0.08586 0.07027 0.0
H486 H 0.99368 0.0954 0.03775 0.0
H487 H 0.9856 0.10094 0.11599 0.0
H488 H 0.06319 0.12716 0.98221 0.0
H489 H 0.04598 0.14109 0.17066 0.0
H490 H 0.00295 0.1381 0.91856 0.0
H491 H 0.0041 0.1125 0.93787 0.0
H492 H 0.03172 0.12433 0.90586 0.0
H493 H 0.98277 0.15734 0.14459 0.0
H494 H 0.00506 0.14982 0.20312 0.0
H495 H 0.98312 0.13231 0.17071 0.0
C496 C 0.44239 0.88666 0.52631 0.0
C497 C 0.42841 0.87029 0.54654 0.0
C498 C 0.46897 0.88613 0.52451 0.0
C499 C 0.48183 0.86868 0.5421 0.0
C500 C 0.46773 0.85181 0.5597 0.0
C501 C 0.44121 0.8529 0.56244 0.0
C502 C 0.4833 0.90456 0.50678 0.0
C503 C 0.4807 0.8328 0.57763 0.0
C504 C 0.55212 0.86333 0.50539 0.0
C505 C 0.56306 0.86755 0.56285 0.0
C506 C 0.52565 0.86358 0.49769 0.0
C507 C 0.50992 0.86864 0.54824 0.0
C508 C 0.52097 0.87339 0.60582 0.0
C509 C 0.54732 0.87259 0.61253 0.0
C510 C 0.5145 0.85809 0.43593 0.0
C511 C 0.50496 0.87928 0.66056 0.0
H512 H 0.43259 0.90018 0.51426 0.0
H513 H 0.43048 0.84012 0.57733 0.0
H514 H 0.49384 0.9102 0.54742 0.0
H515 H 0.49743 0.90122 0.47044 0.0
H516 H 0.47054 0.91642 0.48984 0.0
H517 H 0.46705 0.82047 0.58359 0.0
H518 H 0.4948 0.82856 0.5421 0.0
H519 H 0.49107 0.8349 0.62164 0.0
H520 H 0.56421 0.85939 0.46691 0.0
H521 H 0.55566 0.87621 0.65682 0.0
H522 H 0.50249 0.87029 0.41837 0.0
H523 H 0.50211 0.84496 0.44112 0.0
H524 H 0.5293 0.85475 0.40107 0.0
H525 H 0.49271 0.89199 0.64827 0.0
H526 H 0.5166 0.8834 0.70129 0.0
H527 H 0.49233 0.86691 0.67379 0.0
C528 C 0.94643 0.85925 0.9267 0.0
C529 C 0.93156 0.8745 0.95133 0.0
C530 C 0.97292 0.85959 0.93164 0.0
C531 C 0.98496 0.87575 0.96093 0.0
C532 C 0.97008 0.89109 0.98653 0.0
C533 C 0.94354 0.89019 0.98195 0.0
C534 C 0.98806 0.84278 0.90457 0.0
C535 C 0.98222 0.90873 0.01712 0.0
C536 C 0.05404 0.8695 0.00801 0.0
C537 C 0.06664 0.87725 0.95649 0.0
C538 C 0.02742 0.86914 0.01068 0.0
C539 C 0.01313 0.87708 0.96121 0.0
C540 C 0.02581 0.88554 0.91015 0.0
C541 C 0.05234 0.88536 0.90817 0.0
C542 C 0.01458 0.85973 0.06547 0.0
C543 C 0.01133 0.89448 0.85694 0.0
H544 H 0.93733 0.84694 0.90371 0.0
H545 H 0.93221 0.90206 1.00092 0.0
H546 H -0.00018 0.84827 0.86581 0.0
H547 H 0.00114 0.83667 0.93976 0.0
H548 H 0.97579 0.83068 0.88718 0.0
H549 H 0.968 0.919 0.03698 0.0
H550 H 0.99516 0.90386 0.05441 0.0
H551 H 0.9938 0.91691 0.98292 0.0
H552 H 0.06498 0.86316 0.0454 0.0
H553 H 0.06192 0.89161 0.86851 0.0
H554 H 0.00361 0.84665 0.05009 0.0
H555 H 0.00096 0.8702 0.08657 0.0
H556 H 0.02833 0.85498 0.10129 0.0
H557 H 0.00022 0.88286 0.83311 0.0
H558 H 0.02401 0.90162 0.8227 0.0
H559 H 0.9977 0.90565 0.87421 0.0
C560 C 0.55828 0.1404 0.50212 0.0
C561 C 0.56679 0.12798 0.45484 0.0
C562 C 0.53235 0.14159 0.51643 0.0
C563 C 0.51482 0.12974 0.48352 0.0
C564 C 0.52377 0.11591 0.43969 0.0
C565 C 0.54962 0.11543 0.42518 0.0
C566 C 0.52359 0.15672 0.56282 0.0
C567 C 0.50585 0.1026 0.4048 0.0
C568 C 0.44558 0.12664 0.5319 0.0
C569 C 0.43415 0.13906 0.48832 0.0
C570 C 0.47193 0.12361 0.53177 0.0
C571 C 0.48713 0.13366 0.48807 0.0
C572 C 0.47568 0.1468 0.4456 0.0
C573 C 0.44931 0.14912 0.4457 0.0
C574 C 0.48336 0.10912 0.57669 0.0
C575 C 0.49122 0.15815 0.39907 0.0
H576 H 0.57157 0.15025 0.52462 0.0
H577 H 0.55631 0.10579 0.38872 0.0
H578 H 0.51446 0.16918 0.53814 0.0
H579 H 0.50927 0.15033 0.59442 0.0
H580 H 0.53954 0.16265 0.59064 0.0
H581 H 0.51603 0.09068 0.37987 0.0
H582 H 0.49192 0.09579 0.43665 0.0
H583 H 0.4951 0.11142 0.37058 0.0
H584 H 0.43381 0.11872 0.56456 0.0
H585 H 0.4405 0.15888 0.41238 0.0
H586 H 0.49922 0.11606 0.60228 0.0
H587 H 0.49129 0.09638 0.551 0.0
H588 H 0.46924 0.10353 0.61041 0.0
H589 H 0.50676 0.1662 0.42261 0.0
H590 H 0.47965 0.16895 0.37274 0.0
H591 H 0.50003 0.14775 0.36589 0.0
C592 C 0.55052 0.62247 0.09655 0.0
C593 C 0.56585 0.62912 0.04798 0.0
C594 C 0.52402 0.62323 0.09247 0.0
C595 C 0.51248 0.63112 0.0389 0.0
C596 C 0.52782 0.63768 0.98941 0.0
C597 C 0.55432 0.63645 0.99433 0.0
C598 C 0.50835 0.6158 0.14592 0.0
C599 C 0.51625 0.64642 0.93191 0.0
C600 C 0.44281 0.6189 0.01513 0.0
C601 C 0.43097 0.63523 0.04259 0.0
C602 C 0.46935 0.61758 0.01202 0.0
C603 C 0.48439 0.63309 0.03602 0.0
C604 C 0.47252 0.65003 0.06104 0.0
C605 C 0.446 0.65082 0.06449 0.0
C606 C 0.48127 0.59917 0.98566 0.0
C607 C 0.48786 0.66706 0.08611 0.0
H608 H 0.55924 0.61661 0.13793 0.0
H609 H 0.56602 0.64168 0.95666 0.0
H610 H 0.49727 0.62813 0.166 0.0
H611 H 0.49462 0.60454 0.12963 0.0
H612 H 0.52018 0.60918 0.1829 0.0
H613 H 0.53074 0.65029 0.89682 0.0
H614 H 0.50263 0.63588 0.91112 0.0
H615 H 0.50549 0.65994 0.94399 0.0
H616 H 0.43138 0.60672 0.9985 0.0
H617 H 0.43702 0.66359 0.0852 0.0
H618 H 0.49149 0.59114 0.02269 0.0
H619 H 0.4954 0.60308 0.94985 0.0
H620 H 0.46702 0.58906 0.96504 0.0
H621 H 0.49853 0.6622 0.1275 0.0
H622 H 0.4758 0.67982 0.09912 0.0
H623 H 0.50193 0.67201 0.05142 0.0
C624 C 0.06138 0.35682 0.50307 0.0
C625 C 0.07657 0.3728 0.5204 0.0
C626 C 0.03492 0.35824 0.5053 0.0
C627 C 0.02361 0.37621 0.52412 0.0
C628 C 0.039 0.39286 0.5368 0.0
C629 C 0.06543 0.39083 0.53594 0.0
C630 C 0.01924 0.34003 0.49278 0.0
C631 C 0.02763 0.41242 0.55522 0.0
C632 C 0.95229 0.38085 0.50643 0.0
C633 C 0.94415 0.37714 0.56684 0.0
C634 C 0.97819 0.38105 0.49185 0.0
C635 C 0.99614 0.37679 0.53844 0.0
C636 C 0.9879 0.37274 0.59933 0.0
C637 C 0.96199 0.37329 0.61299 0.0
C638 C 0.98635 0.38604 0.42698 0.0
C639 C 0.00642 0.3676 0.64998 0.0
H640 H 0.07021 0.34281 0.49211 0.0
H641 H 0.07737 0.40308 0.54976 0.0
H642 H 0.01088 0.33469 0.53667 0.0
H643 H 0.00336 0.34347 0.46113 0.0
H644 H 0.03068 0.32792 0.47239 0.0
H645 H 0.04175 0.42456 0.55332 0.0
H646 H 0.01146 0.4162 0.52474 0.0
H647 H 0.02027 0.41143 0.60304 0.0
H648 H 0.93843 0.38404 0.47092 0.0
H649 H 0.95563 0.3703 0.65961 0.0
H650 H 0.99699 0.37352 0.40666 0.0
H651 H -0.00069 0.39893 0.42775 0.0
H652 H 0.97002 0.38951 0.39654 0.0
H653 H 0.01802 0.3547 0.63605 0.0
H654 H 0.9968 0.36409 0.6942 0.0
H655 H 0.01957 0.38011 0.65789 0.0
C656 C 0.4604 0.39787 0.91278 0.0
C657 C 0.44493 0.38301 0.9375 0.0
C658 C 0.4868 0.39696 0.91851 0.0
C659 C 0.49794 0.38066 0.94886 0.0
C660 C 0.48233 0.36657 0.9786 0.0
C661 C 0.45594 0.36797 0.9728 0.0
C662 C 0.50276 0.41253 0.88734 0.0
C663 C 0.49348 0.34897 0.01152 0.0
C664 C 0.55693 0.35976 0.87575 0.0
C665 C 0.57578 0.36484 0.91841 0.0
C666 C 0.53169 0.36507 0.88513 0.0
C667 C 0.52506 0.37609 0.93813 0.0
C668 C 0.54409 0.38204 0.98028 0.0
C669 C 0.56931 0.37617 0.97016 0.0
C670 C 0.51201 0.35834 0.83897 0.0
C671 C 0.53777 0.39421 0.03649 0.0
H672 H 0.45196 0.40984 0.88673 0.0
H673 H 0.44406 0.35659 0.99274 0.0
H674 H 0.51925 0.41659 0.91639 0.0
H675 H 0.51017 0.4066 0.84318 0.0
H676 H 0.49165 0.42606 0.87712 0.0
H677 H 0.47921 0.34127 0.04045 0.0
H678 H 0.50085 0.33836 0.97692 0.0
H679 H 0.50958 0.35349 0.04117 0.0
H680 H 0.56171 0.351 0.83557 0.0
H681 H 0.58381 0.38027 0.00293 0.0
H682 H 0.50185 0.37127 0.8197 0.0
H683 H 0.49777 0.34886 0.86216 0.0
H684 H 0.5204 0.34988 0.80014 0.0
H685 H 0.52617 0.40719 0.02335 0.0
H686 H 0.55503 0.39943 0.06086 0.0
H687 H 0.52635 0.38525 0.06902 0.0
C688 C 0.04382 0.64861 0.43775 0.0
C689 C 0.05889 0.63292 0.45857 0.0
C690 C 0.01733 0.6478 0.44154 0.0
C691 C 0.0055 0.63075 0.46592 0.0
C692 C 0.02058 0.61504 0.48848 0.0
C693 C 0.04713 0.61638 0.48497 0.0
C694 C 0.00198 0.66501 0.41785 0.0
C695 C 0.00867 0.59653 0.51407 0.0
C696 C 0.9359 0.6363 0.50801 0.0
C697 C 0.92405 0.63028 0.45319 0.0
C698 C 0.96243 0.63592 0.51378 0.0
C699 C 0.97737 0.62904 0.46398 0.0
C700 C 0.9654 0.62197 0.40987 0.0
C701 C 0.93893 0.62281 0.40498 0.0
C702 C 0.97448 0.64376 0.57198 0.0
C703 C 0.98059 0.61417 0.35613 0.0
H704 H 0.05275 0.66155 0.41795 0.0
H705 H 0.05863 0.60414 0.50084 0.0
H706 H 0.99081 0.66035 0.37702 0.0
H707 H 0.98836 0.66999 0.45357 0.0
H708 H 0.01406 0.67773 0.40442 0.0
H709 H 0.02296 0.58626 0.5337 0.0
H710 H 0.99473 0.60027 0.55048 0.0
H711 H 0.99823 0.58875 0.47688 0.0
H712 H 0.92455 0.64207 0.54553 0.0
H713 H 0.92987 0.61785 0.36285 0.0
H714 H 0.9849 0.65758 0.56143 0.0
H715 H 0.98845 0.63304 0.59031 0.0
H716 H 0.96027 0.64694 0.60842 0.0
H717 H 0.99165 0.62636 0.33515 0.0
H718 H 0.96838 0.60754 0.31989 0.0
H719 H 0.99429 0.60287 0.37212 0.0
C720 C 0.105 0.19656 0.75283 0.0
C721 C 0.12467 0.1902 0.79169 0.0
C722 C 0.10498 0.21559 0.72749 0.0
C723 C 0.12473 0.22882 0.7427 0.0
C724 C 0.1434 0.22312 0.78612 0.0
C725 C 0.14328 0.20381 0.80974 0.0
C726 C 0.08479 0.22103 0.68116 0.0
C727 C 0.16442 0.237 0.80478 0.0
C728 C 0.14587 0.26722 0.62599 0.0
C729 C 0.13426 0.28434 0.64854 0.0
C730 C 0.14224 0.24896 0.6552 0.0
C731 C 0.12718 0.2479 0.70919 0.0
C732 C 0.11504 0.26509 0.73153 0.0
C733 C 0.11849 0.28307 0.70048 0.0
C734 C 0.155 0.23086 0.62899 0.0
C735 C 0.09926 0.26464 0.78958 0.0
H736 H 0.09022 0.18627 0.73971 0.0
H737 H 0.15863 0.19907 0.83942 0.0
H738 H 0.07628 0.23552 0.69272 0.0
H739 H 0.09348 0.22242 0.63476 0.0
H740 H 0.06947 0.20982 0.67875 0.0
H741 H 0.17541 0.2313 0.84468 0.0
H742 H 0.17757 0.23908 0.76542 0.0
H743 H 0.15663 0.2517 0.81689 0.0
H744 H 0.15803 0.26816 0.58582 0.0
H745 H 0.10974 0.29633 0.71861 0.0
H746 H 0.14084 0.219 0.62133 0.0
H747 H 0.16914 0.22516 0.66237 0.0
H748 H 0.16476 0.23395 0.58465 0.0
H749 H 0.08436 0.25316 0.78606 0.0
H750 H 0.09008 0.27907 0.79916 0.0
H751 H 0.11143 0.26071 0.82946 0.0
C752 C 0.32589 0.80177 0.29914 0.0
C753 C 0.34887 0.81164 0.28957 0.0
C754 C 0.32434 0.78112 0.29345 0.0
C755 C 0.34637 0.77015 0.27864 0.0
C756 C 0.36985 0.78006 0.27209 0.0
C757 C 0.37074 0.80071 0.27693 0.0
C758 C 0.29891 0.77117 0.30012 0.0
C759 C 0.39388 0.76893 0.2575 0.0
C760 C 0.34888 0.71453 0.30249 0.0
C761 C 0.34631 0.70745 0.24189 0.0
C762 C 0.34833 0.73485 0.31541 0.0
C763 C 0.34482 0.74847 0.26669 0.0
C764 C 0.34128 0.74139 0.20574 0.0
C765 C 0.3422 0.72099 0.19402 0.0
C766 C 0.3524 0.74176 0.3809 0.0
C767 C 0.33713 0.75542 0.15259 0.0
H768 H 0.30892 0.81032 0.30785 0.0
H769 H 0.38844 0.80842 0.26901 0.0
H770 H 0.29302 0.76497 0.25496 0.0
H771 H 0.30016 0.75869 0.33308 0.0
H772 H 0.28402 0.78154 0.31623 0.0
H773 H 0.41086 0.77861 0.25884 0.0
H774 H 0.3966 0.75668 0.29079 0.0
H775 H 0.39245 0.7623 0.21084 0.0
H776 H 0.35206 0.70421 0.33989 0.0
H777 H 0.34004 0.71566 0.14717 0.0
H778 H 0.3369 0.75181 0.39516 0.0
H779 H 0.37033 0.75024 0.38383 0.0
H780 H 0.35335 0.72928 0.41408 0.0
H781 H 0.32121 0.76557 0.16304 0.0
H782 H 0.33293 0.74755 0.1088 0.0
H783 H 0.35428 0.76461 0.14576 0.0
C784 C 0.13662 0.725 0.32615 0.0
C785 C 0.14968 0.71137 0.28935 0.0
C786 C 0.13772 0.74535 0.31337 0.0
C787 C 0.15212 0.7522 0.26248 0.0
C788 C 0.16497 0.73847 0.22465 0.0
C789 C 0.16366 0.71829 0.23862 0.0
C790 C 0.12386 0.75956 0.355 0.0
C791 C 0.18051 0.74513 0.16999 0.0
C792 C 0.14083 0.80466 0.20458 0.0
C793 C 0.16018 0.81498 0.23486 0.0
C794 C 0.1381 0.78413 0.21239 0.0
C795 C 0.15517 0.77378 0.2512 0.0
C796 C 0.17531 0.78408 0.27981 0.0
C797 C 0.17759 0.80449 0.27115 0.0
C798 C 0.11654 0.77362 0.18063 0.0
C799 C 0.19411 0.77364 0.32095 0.0
H800 H 0.12572 0.71979 0.36523 0.0
H801 H 0.17371 0.70791 0.20954 0.0
H802 H 0.13766 0.76945 0.37815 0.0
H803 H 0.111 0.76902 0.3274 0.0
H804 H 0.11258 0.75186 0.39092 0.0
H805 H 0.18818 0.73252 0.1431 0.0
H806 H 0.16886 0.75442 0.13887 0.0
H807 H 0.1966 0.75433 0.18604 0.0
H808 H 0.12728 0.81275 0.17682 0.0
H809 H 0.19277 0.81241 0.29405 0.0
H810 H 0.10342 0.76746 0.21566 0.0
H811 H 0.12385 0.76104 0.15314 0.0
H812 H 0.10568 0.78357 0.14967 0.0
H813 H 0.18412 0.76698 0.36087 0.0
H814 H 0.20901 0.78374 0.33865 0.0
H815 H 0.20338 0.76145 0.29537 0.0
C816 C 0.33647 0.31218 0.73963 0.0
C817 C 0.35348 0.32078 0.78162 0.0
C818 C 0.33469 0.29158 0.73305 0.0
C819 C 0.35037 0.27917 0.76909 0.0
C820 C 0.36744 0.28774 0.81194 0.0
C821 C 0.36873 0.30842 0.81785 0.0
C822 C 0.31601 0.28311 0.6874 0.0
C823 C 0.38446 0.27506 0.85138 0.0
C824 C 0.33061 0.22605 0.79944 0.0
C825 C 0.3463 0.21542 0.75903 0.0
C826 C 0.33139 0.24673 0.80217 0.0
C827 C 0.34832 0.25721 0.76358 0.0
C828 C 0.36357 0.24663 0.72102 0.0
C829 C 0.36231 0.22584 0.71906 0.0
C830 C 0.31451 0.25735 0.84758 0.0
C831 C 0.38181 0.25723 0.67894 0.0
H832 H 0.32453 0.32156 0.71147 0.0
H833 H 0.382 0.31491 0.85017 0.0
H834 H 0.32613 0.27408 0.65257 0.0
H835 H 0.30251 0.27319 0.71145 0.0
H836 H 0.30507 0.29475 0.6631 0.0
H837 H 0.39699 0.28397 0.8817 0.0
H838 H 0.37285 0.26515 0.88069 0.0
H839 H 0.39642 0.26555 0.82159 0.0
H840 H 0.31794 0.21807 0.82988 0.0
H841 H 0.37454 0.21771 0.688 0.0
H842 H 0.30294 0.26861 0.8234 0.0
H843 H 0.32629 0.26521 0.88212 0.0
H844 H 0.3016 0.24711 0.87233 0.0
H845 H 0.37166 0.26861 0.6517 0.0
H846 H 0.39151 0.247 0.64663 0.0
H847 H 0.39634 0.26497 0.70691 0.0
C848 C 0.84087 0.73077 0.36027 0.0
C849 C 0.85399 0.71472 0.33505 0.0
C850 C 0.84422 0.74994 0.33708 0.0
C851 C 0.86068 0.75312 0.2864 0.0
C852 C 0.874 0.73695 0.26068 0.0
C853 C 0.87071 0.71797 0.28578 0.0
C854 C 0.83006 0.76681 0.36682 0.0
C855 C 0.8913 0.73966 0.20593 0.0
C856 C 0.84682 0.80162 0.20496 0.0
C857 C 0.86417 0.81428 0.23386 0.0
C858 C 0.84668 0.78127 0.21805 0.0
C859 C 0.86406 0.7735 0.26161 0.0
C860 C 0.88288 0.78597 0.28697 0.0
C861 C 0.88287 0.80612 0.27221 0.0
C862 C 0.82674 0.76838 0.18866 0.0
C863 C 0.90172 0.77841 0.33372 0.0
H864 H 0.82795 0.72835 0.39836 0.0
H865 H 0.88065 0.70556 0.26553 0.0
H866 H 0.84362 0.77826 0.38263 0.0
H867 H 0.8173 0.77382 0.33261 0.0
H868 H 0.81855 0.76194 0.40691 0.0
H869 H 0.90042 0.72562 0.19155 0.0
H870 H 0.88038 0.74561 0.16638 0.0
H871 H 0.90631 0.75056 0.2169 0.0
H872 H 0.83228 0.80776 0.17537 0.0
H873 H 0.89665 0.81578 0.29379 0.0
H874 H 0.81197 0.76477 0.22326 0.0
H875 H 0.83511 0.75425 0.17273 0.0
H876 H 0.81749 0.77577 0.14886 0.0
H877 H 0.89172 0.77497 0.37744 0.0
H878 H 0.91683 0.78936 0.3437 0.0
H879 H 0.91068 0.76457 0.31737 0.0
C880 C 0.67361 0.26187 0.82634 0.0
C881 C 0.65725 0.2769 0.80715 0.0
C882 C 0.67025 0.24241 0.80562 0.0
C883 C 0.65053 0.23808 0.76331 0.0
C884 C 0.63448 0.25336 0.7423 0.0
C885 C 0.6378 0.27255 0.76521 0.0
C886 C 0.68739 0.22641 0.83021 0.0
C887 C 0.61373 0.24943 0.69595 0.0
C888 C 0.65745 0.18831 0.68434 0.0
C889 C 0.64222 0.17644 0.72207 0.0
C890 C 0.65921 0.20875 0.69474 0.0
C891 C 0.64574 0.21731 0.74456 0.0
C892 C 0.62901 0.20558 0.77987 0.0
C893 C 0.62716 0.18536 0.7675 0.0
C894 C 0.67662 0.22095 0.65483 0.0
C895 C 0.61443 0.21405 0.83367 0.0
H896 H 0.68867 0.26524 0.85866 0.0
H897 H 0.62539 0.28425 0.74943 0.0
H898 H 0.67596 0.21515 0.85487 0.0
H899 H 0.69711 0.21883 0.79155 0.0
H900 H 0.70195 0.23226 0.86239 0.0
H901 H 0.60423 0.26321 0.68063 0.0
H902 H 0.6216 0.2418 0.65492 0.0
H903 H 0.59928 0.23952 0.7164 0.0
H904 H 0.66913 0.1815 0.64919 0.0
H905 H 0.61494 0.17626 0.79592 0.0
H906 H 0.69381 0.22493 0.68145 0.0
H907 H 0.66725 0.2349 0.64084 0.0
H908 H 0.68258 0.21284 0.61271 0.0
H909 H 0.62788 0.21888 0.87002 0.0
H910 H 0.6011 0.20318 0.85414 0.0
H911 H 0.60352 0.22722 0.81908 0.0
C912 C 0.83432 0.30214 0.66845 0.0
C913 C 0.85433 0.3141 0.68851 0.0
C914 C 0.83402 0.28177 0.68102 0.0
C915 C 0.85369 0.27327 0.71682 0.0
C916 C 0.87378 0.2854 0.73792 0.0
C917 C 0.8741 0.30559 0.72251 0.0
C918 C 0.8127 0.26932 0.6557 0.0
C919 C 0.89459 0.27716 0.7781 0.0
C920 C 0.83701 0.22339 0.78845 0.0
C921 C 0.84876 0.21018 0.74755 0.0
C922 C 0.83951 0.24398 0.78099 0.0
C923 C 0.85349 0.2516 0.73045 0.0
C924 C 0.86626 0.23838 0.69071 0.0
C925 C 0.86425 0.21796 0.70064 0.0
C926 C 0.82638 0.25757 0.8259 0.0
C927 C 0.881 0.24572 0.63557 0.0
H928 H 0.81895 0.30873 0.64244 0.0
H929 H 0.88933 0.3149 0.73924 0.0
H930 H 0.82051 0.25701 0.62778 0.0
H931 H 0.8018 0.26267 0.69414 0.0
H932 H 0.7995 0.278 0.62645 0.0
H933 H 0.90844 0.28865 0.79227 0.0
H934 H 0.88628 0.27044 0.82015 0.0
H935 H 0.90488 0.26531 0.7533 0.0
H936 H 0.82499 0.2177 0.82484 0.0
H937 H 0.8742 0.20802 0.66994 0.0
H938 H 0.81007 0.26478 0.80288 0.0
H939 H 0.83946 0.26941 0.84127 0.0
H940 H 0.81928 0.24954 0.86711 0.0
H941 H 0.86807 0.25365 0.60372 0.0
H942 H 0.89026 0.23354 0.60976 0.0
H943 H 0.89575 0.25636 0.65029 0.0
C944 C 0.63701 0.72481 0.12396 0.0
C945 C 0.62541 0.7082 0.15003 0.0
C946 C 0.6326 0.74376 0.14766 0.0
C947 C 0.61642 0.74614 0.19926 0.0
C948 C 0.60391 0.72952 0.22444 0.0
C949 C 0.60844 0.71073 0.19926 0.0
C950 C 0.64596 0.76116 0.11873 0.0
C951 C 0.58668 0.73144 0.27963 0.0
C952 C 0.63291 0.79232 0.28899 0.0
C953 C 0.61597 0.80602 0.26353 0.0
C954 C 0.63198 0.77234 0.27204 0.0
C955 C 0.61384 0.76596 0.22821 0.0
C956 C 0.59532 0.77936 0.20655 0.0
C957 C 0.59651 0.79921 0.22484 0.0
C958 C 0.65178 0.75843 0.29718 0.0
C959 C 0.57557 0.77316 0.16009 0.0
H960 H 0.65002 0.72296 0.08572 0.0
H961 H 0.59951 0.69794 0.21991 0.0
H962 H 0.63207 0.77279 0.10646 0.0
H963 H 0.65944 0.76767 0.15234 0.0
H964 H 0.65662 0.75698 0.07653 0.0
H965 H 0.57645 0.71749 0.28982 0.0
H966 H 0.59802 0.73558 0.32074 0.0
H967 H 0.57259 0.74334 0.2721 0.0
H968 H 0.6481 0.79743 0.3186 0.0
H969 H 0.58308 0.80967 0.20584 0.0
H970 H 0.66572 0.75498 0.26044 0.0
H971 H 0.643 0.74431 0.31179 0.0
H972 H 0.66211 0.76488 0.33704 0.0
H973 H 0.58471 0.77103 0.11449 0.0
H974 H 0.56038 0.78438 0.15502 0.0
H975 H 0.56685 0.7589 0.17342 0.0
C976 C 0.66014 0.77909 0.66554 0.0
C977 C 0.64898 0.79395 0.7014 0.0
C978 C 0.66019 0.75935 0.68531 0.0
C979 C 0.64879 0.75429 0.74233 0.0
C980 C 0.63812 0.76929 0.77955 0.0
C981 C 0.63834 0.78893 0.75867 0.0
C982 C 0.67187 0.7438 0.64431 0.0
C983 C 0.62583 0.76452 0.84063 0.0
C984 C 0.62566 0.70135 0.74906 0.0
C985 C 0.64577 0.69188 0.77915 0.0
C986 C 0.62581 0.72182 0.73967 0.0
C987 C 0.64665 0.73313 0.76063 0.0
C988 C 0.66627 0.72382 0.79448 0.0
C989 C 0.66557 0.70326 0.80349 0.0
C990 C 0.60434 0.73115 0.70408 0.0
C991 C 0.68877 0.73536 0.81778 0.0
H992 H 0.66852 0.78281 0.62143 0.0
H993 H 0.62978 0.80031 0.78694 0.0
H994 H 0.68613 0.73517 0.67047 0.0
H995 H 0.65704 0.73333 0.62867 0.0
H996 H 0.68117 0.75026 0.60302 0.0
H997 H 0.62005 0.77801 0.86614 0.0
H998 H 0.6088 0.75526 0.83282 0.0
H999 H 0.63898 0.75588 0.86998 0.0
H1000 H 0.61029 0.69255 0.73049 0.0
H1001 H 0.68125 0.69594 0.82627 0.0
H1002 H 0.61139 0.73636 0.6587 0.0
H1003 H 0.59693 0.74419 0.72914 0.0
H1004 H 0.5885 0.72067 0.696 0.0
H1005 H 0.70056 0.74009 0.7781 0.0
H1006 H 0.70075 0.7265 0.84952 0.0
H1007 H 0.68249 0.74889 0.84215 0.0
C1008 C 0.85685 0.3012 0.23497 0.0
C1009 C 0.87032 0.30844 0.2859 0.0
C1010 C 0.85622 0.28098 0.22158 0.0
C1011 C 0.86967 0.26764 0.25965 0.0
C1012 C 0.88328 0.27486 0.31137 0.0
C1013 C 0.88326 0.29523 0.32425 0.0
C1014 C 0.84099 0.27389 0.16689 0.0
C1015 C 0.898 0.2611 0.35268 0.0
C1016 C 0.84659 0.21467 0.25776 0.0
C1017 C 0.86309 0.20578 0.21523 0.0
C1018 C 0.84888 0.23464 0.27343 0.0
C1019 C 0.86837 0.24607 0.24658 0.0
C1020 C 0.88547 0.23714 0.20456 0.0
C1021 C 0.88251 0.21709 0.18897 0.0
C1022 C 0.82996 0.24363 0.31754 0.0
C1023 C 0.90667 0.24883 0.17556 0.0
H1024 H 0.84673 0.31145 0.20553 0.0
H1025 H 0.89383 0.30089 0.3633 0.0
H1026 H 0.85342 0.26587 0.13415 0.0
H1027 H 0.82619 0.26338 0.18245 0.0
H1028 H 0.83165 0.28621 0.14188 0.0
H1029 H 0.90821 0.2691 0.38987 0.0
H1030 H 0.88502 0.25022 0.37415 0.0
H1031 H 0.91196 0.25266 0.32499 0.0
H1032 H 0.83145 0.20608 0.27825 0.0
H1033 H 0.89541 0.21028 0.15644 0.0
H1034 H 0.81905 0.25536 0.2937 0.0
H1035 H 0.83992 0.25065 0.35687 0.0
H1036 H 0.81642 0.23255 0.33597 0.0
H1037 H 0.89868 0.26061 0.14584 0.0
H1038 H 0.91935 0.23945 0.14709 0.0
H1039 H 0.9181 0.25617 0.21188 0.0
C1040 C 0.62803 0.29619 0.16347 0.0
C1041 C 0.64966 0.30586 0.18545 0.0
C1042 C 0.62626 0.27548 0.16542 0.0
C1043 C 0.64669 0.26431 0.1896 0.0
C1044 C 0.66929 0.27402 0.20735 0.0
C1045 C 0.67045 0.29468 0.20528 0.0
C1046 C 0.60188 0.2657 0.14586 0.0
C1047 C 0.69162 0.26271 0.23266 0.0
C1048 C 0.63279 0.21637 0.27414 0.0
C1049 C 0.63969 0.20216 0.23028 0.0
C1050 C 0.63456 0.23662 0.26092 0.0
C1051 C 0.6436 0.24284 0.20253 0.0
C1052 C 0.65054 0.22857 0.15796 0.0
C1053 C 0.64845 0.20841 0.17232 0.0
C1054 C 0.62693 0.25137 0.30974 0.0
C1055 C 0.66044 0.23461 0.09542 0.0
H1056 H 0.61186 0.30486 0.14877 0.0
H1057 H 0.68718 0.3022 0.22228 0.0
H1058 H 0.60579 0.25284 0.11567 0.0
H1059 H 0.59181 0.26012 0.18725 0.0
H1060 H 0.58915 0.27605 0.12101 0.0
H1061 H 0.70872 0.27215 0.23744 0.0
H1062 H 0.68677 0.25669 0.27876 0.0
H1063 H 0.69626 0.25002 0.20238 0.0
H1064 H 0.62592 0.2117 0.31891 0.0
H1065 H 0.65388 0.19753 0.13813 0.0
H1066 H 0.61216 0.26141 0.29136 0.0
H1067 H 0.64346 0.2606 0.32265 0.0
H1068 H 0.61952 0.24414 0.35204 0.0
H1069 H 0.64658 0.24438 0.07205 0.0
H1070 H 0.66428 0.22172 0.06519 0.0
H1071 H 0.67821 0.24316 0.10092 0.0
C1072 C 0.84094 0.77447 0.8672 0.0
C1073 C 0.85408 0.7902 0.84001 0.0
C1074 C 0.84272 0.75525 0.84329 0.0
C1075 C 0.85763 0.75166 0.79009 0.0
C1076 C 0.87085 0.7675 0.76219 0.0
C1077 C 0.8691 0.78654 0.78781 0.0
C1078 C 0.82867 0.73873 0.8752 0.0
C1079 C 0.8866 0.76437 0.70494 0.0
C1080 C 0.87826 0.69832 0.77416 0.0
C1081 C 0.8587 0.69035 0.73804 0.0
C1082 C 0.87899 0.7185 0.78858 0.0
C1083 C 0.8599 0.73115 0.76546 0.0
C1084 C 0.84147 0.72351 0.72421 0.0
C1085 C 0.84101 0.70315 0.71115 0.0
C1086 C 0.89899 0.72591 0.83268 0.0
C1087 C 0.82114 0.73658 0.6974 0.0
H1088 H 0.82929 0.77718 0.90748 0.0
H1089 H 0.87906 0.79866 0.766 0.0
H1090 H 0.81507 0.7318 0.84276 0.0
H1091 H 0.8422 0.72712 0.88985 0.0
H1092 H 0.81809 0.74393 0.91641 0.0
H1093 H 0.89532 0.77828 0.6881 0.0
H1094 H 0.90187 0.75356 0.71436 0.0
H1095 H 0.87465 0.7581 0.66765 0.0
H1096 H 0.89217 0.6885 0.79445 0.0
H1097 H 0.8258 0.69709 0.68341 0.0
H1098 H 0.89002 0.72966 0.87747 0.0
H1099 H 0.90796 0.73954 0.81472 0.0
H1100 H 0.914 0.71475 0.84114 0.0
H1101 H 0.80729 0.74043 0.73394 0.0
H1102 H 0.81081 0.72922 0.6591 0.0
H1103 H 0.8294 0.75058 0.68007 0.0
C1104 C 0.36426 0.30148 0.20663 0.0
C1105 C 0.38212 0.31562 0.22513 0.0
C1106 C 0.36466 0.28232 0.23117 0.0
C1107 C 0.38314 0.27728 0.27586 0.0
C1108 C 0.40232 0.291 0.2912 0.0
C1109 C 0.40174 0.30993 0.26511 0.0
C1110 C 0.34423 0.26791 0.21249 0.0
C1111 C 0.42234 0.28625 0.33867 0.0
C1112 C 0.36112 0.23984 0.39433 0.0
C1113 C 0.37276 0.22253 0.37336 0.0
C1114 C 0.36514 0.25789 0.36422 0.0
C1115 C 0.38074 0.25855 0.31109 0.0
C1116 C 0.39312 0.24122 0.29074 0.0
C1117 C 0.38917 0.22343 0.32253 0.0
C1118 C 0.35205 0.27616 0.38821 0.0
C1119 C 0.40958 0.24126 0.23382 0.0
H1120 H 0.34895 0.30573 0.17608 0.0
H1121 H 0.4159 0.32067 0.27867 0.0
H1122 H 0.35253 0.25325 0.20205 0.0
H1123 H 0.33075 0.26594 0.25126 0.0
H1124 H 0.33347 0.27308 0.17152 0.0
H1125 H 0.43756 0.29756 0.34001 0.0
H1126 H 0.41345 0.28545 0.38498 0.0
H1127 H 0.431 0.27165 0.32923 0.0
H1128 H 0.3485 0.23921 0.4337 0.0
H1129 H 0.39801 0.21004 0.30569 0.0
H1130 H 0.33811 0.28147 0.35369 0.0
H1131 H 0.36603 0.28817 0.39543 0.0
H1132 H 0.34197 0.27343 0.43236 0.0
H1133 H 0.39773 0.24431 0.19264 0.0
H1134 H 0.41942 0.22694 0.22688 0.0
H1135 H 0.42397 0.25315 0.23668 0.0
C1136 C 0.13423 0.78756 0.83188 0.0
C1137 C 0.15203 0.80015 0.80442 0.0
C1138 C 0.13284 0.76748 0.81529 0.0
C1139 C 0.14947 0.75986 0.76975 0.0
C1140 C 0.16706 0.77262 0.74098 0.0
C1141 C 0.16822 0.79252 0.75885 0.0
C1142 C 0.11399 0.7543 0.84754 0.0
C1143 C 0.18507 0.76519 0.6921 0.0
C1144 C 0.16615 0.70542 0.77817 0.0
C1145 C 0.15014 0.69707 0.73349 0.0
C1146 C 0.16613 0.72575 0.79003 0.0
C1147 C 0.14994 0.73826 0.7558 0.0
C1148 C 0.13447 0.73008 0.70871 0.0
C1149 C 0.13474 0.70954 0.69808 0.0
C1150 C 0.18309 0.73377 0.8403 0.0
C1151 C 0.11723 0.74298 0.67062 0.0
H1152 H 0.1216 0.79333 0.86689 0.0
H1153 H 0.1819 0.80213 0.73679 0.0
H1154 H 0.10198 0.74659 0.81314 0.0
H1155 H 0.12419 0.74281 0.87419 0.0
H1156 H 0.10155 0.76264 0.87958 0.0
H1157 H 0.19631 0.77728 0.67096 0.0
H1158 H 0.19835 0.75434 0.71263 0.0
H1159 H 0.17444 0.75746 0.65513 0.0
H1160 H 0.17845 0.6959 0.80497 0.0
H1161 H 0.1223 0.70316 0.66364 0.0
H1162 H 0.17147 0.74107 0.87629 0.0
H1163 H 0.19606 0.74508 0.8211 0.0
H1164 H 0.19464 0.72206 0.86251 0.0
H1165 H 0.10284 0.74995 0.70085 0.0
H1166 H 0.10732 0.73454 0.63388 0.0
H1167 H 0.12824 0.75506 0.64887 0.0
C1168 C 0.35517 0.70564 0.79977 0.0
C1169 C 0.34216 0.69262 0.76082 0.0
C1170 C 0.35365 0.72619 0.79055 0.0
C1171 C 0.33892 0.73371 0.74113 0.0
C1172 C 0.32487 0.7206 0.70366 0.0
C1173 C 0.32646 0.70029 0.71441 0.0
C1174 C 0.36845 0.73979 0.83224 0.0
C1175 C 0.30891 0.72792 0.6505 0.0
C1176 C 0.31768 0.78705 0.72892 0.0
C1177 C 0.3352 0.79474 0.68658 0.0
C1178 C 0.31941 0.76747 0.74951 0.0
C1179 C 0.3388 0.75514 0.72624 0.0
C1180 C 0.35671 0.76288 0.68397 0.0
C1181 C 0.35483 0.78266 0.66511 0.0
C1182 C 0.30019 0.75986 0.79527 0.0
C1183 C 0.37737 0.7501 0.65716 0.0
H1184 H 0.36724 0.69975 0.83578 0.0
H1185 H 0.31587 0.69028 0.68511 0.0
H1186 H 0.38385 0.74695 0.80563 0.0
H1187 H 0.35602 0.75169 0.85009 0.0
H1188 H 0.37697 0.73183 0.87193 0.0
H1189 H 0.29869 0.71578 0.62671 0.0
H1190 H 0.29482 0.73882 0.66708 0.0
H1191 H 0.32114 0.73553 0.61633 0.0
H1192 H 0.30269 0.79641 0.74652 0.0
H1193 H 0.36846 0.78856 0.63259 0.0
H1194 H 0.30988 0.75259 0.83458 0.0
H1195 H 0.28801 0.7486 0.77293 0.0
H1196 H 0.28787 0.77181 0.81346 0.0
H1197 H 0.38845 0.74308 0.69466 0.0
H1198 H 0.39051 0.75859 0.62722 0.0
H1199 H 0.36879 0.73807 0.62938 0.0
C1200 C 0.17921 0.28368 0.22889 0.0
C1201 C 0.16268 0.29437 0.26701 0.0
C1202 C 0.17852 0.26299 0.2266 0.0
C1203 C 0.16082 0.25262 0.26333 0.0
C1204 C 0.14495 0.26327 0.30437 0.0
C1205 C 0.14611 0.28406 0.30585 0.0
C1206 C 0.19601 0.2523 0.18277 0.0
C1207 C 0.12594 0.25277 0.3446 0.0
C1208 C 0.13932 0.20234 0.20374 0.0
C1209 C 0.15352 0.18935 0.24034 0.0
C1210 C 0.14136 0.22292 0.21118 0.0
C1211 C 0.1581 0.23076 0.25612 0.0
C1212 C 0.17277 0.21772 0.29253 0.0
C1213 C 0.17029 0.19723 0.28427 0.0
C1214 C 0.12548 0.23629 0.17111 0.0
C1215 C 0.19102 0.22542 0.34047 0.0
H1216 H 0.19222 0.29161 0.19917 0.0
H1217 H 0.13322 0.29228 0.33506 0.0
H1218 H 0.2065 0.24052 0.20741 0.0
H1219 H 0.18473 0.24508 0.14594 0.0
H1220 H 0.20991 0.2624 0.16077 0.0
H1221 H 0.11639 0.26297 0.3773 0.0
H1222 H 0.11132 0.2457 0.31519 0.0
H1223 H 0.13532 0.24088 0.3713 0.0
H1224 H 0.12625 0.19643 0.16989 0.0
H1225 H 0.1814 0.18735 0.31277 0.0
H1226 H 0.13792 0.24616 0.14378 0.0
H1227 H 0.11336 0.24581 0.20044 0.0
H1228 H 0.11316 0.2279 0.13887 0.0
H1229 H 0.20512 0.23533 0.31857 0.0
H1230 H 0.20128 0.21335 0.36452 0.0
H1231 H 0.18064 0.23428 0.37529 0.0
C1232 C 0.10824 0.9666 0.09425 0.0
C1233 C 0.12271 0.95612 0.0509 0.0
C1234 C 0.1075 0.98736 0.09399 0.0
C1235 C 0.12147 0.99797 0.04916 0.0
C1236 C 0.13599 0.98749 0.00506 0.0
C1237 C 0.13646 0.96674 0.00652 0.0
C1238 C 0.09182 0.99795 0.14188 0.0
C1239 C 0.15106 0.9982 0.95627 0.0
C1240 C 0.10217 0.05067 0.00978 0.0
C1241 C 0.12034 0.06185 0.04171 0.0
C1242 C 0.10218 0.02994 0.01232 0.0
C1243 C 0.12074 0.02004 0.04787 0.0
C1244 C 0.13888 0.03123 0.08106 0.0
C1245 C 0.13849 0.05197 0.07752 0.0
C1246 C 0.08252 0.01861 0.97614 0.0
C1247 C 0.15892 0.02127 0.11973 0.0
H1248 H 0.09759 0.95858 0.12886 0.0
H1249 H 0.14771 0.95884 0.97279 0.0
H1250 H 0.10405 0.00796 0.16934 0.0
H1251 H 0.07729 0.00722 0.11897 0.0
H1252 H 0.08215 0.98758 0.17381 0.0
H1253 H 0.16135 0.98791 0.92525 0.0
H1254 H 0.13828 0.0075 0.92792 0.0
H1255 H 0.16502 0.00819 0.97838 0.0
H1256 H 0.08805 0.05811 0.98196 0.0
H1257 H 0.15259 0.06045 0.10244 0.0
H1258 H 0.07165 0.0088 0.00737 0.0
H1259 H 0.09196 0.00907 0.94151 0.0
H1260 H 0.06904 0.0285 0.95181 0.0
H1261 H 0.14991 0.01146 0.15432 0.0
H1262 H 0.17118 0.03205 0.14423 0.0
H1263 H 0.17103 0.01187 0.09 0.0
C1264 C 0.35383 0.97096 0.48162 0.0
C1265 C 0.36987 0.95964 0.51914 0.0
C1266 C 0.35417 0.99171 0.48414 0.0
C1267 C 0.37112 1.00142 0.52474 0.0
C1268 C 0.38757 0.99007 0.5622 0.0
C1269 C 0.38667 0.96935 0.55915 0.0
C1270 C 0.33621 0.00324 0.44369 0.0
C1271 C 0.40611 0.99982 0.60562 0.0
C1272 C 0.38748 0.05503 0.48986 0.0
C1273 C 0.37196 0.06526 0.53159 0.0
C1274 C 0.38763 0.03429 0.48772 0.0
C1275 C 0.3717 0.02345 0.52786 0.0
C1276 C 0.35617 0.03368 0.57051 0.0
C1277 C 0.35658 0.05444 0.57209 0.0
C1278 C 0.4047 0.02399 0.44205 0.0
C1279 C 0.33879 0.02269 0.61382 0.0
H1280 H 0.34072 0.96362 0.45075 0.0
H1281 H 0.3992 0.96076 0.58823 0.0
H1282 H 0.32381 0.01266 0.47266 0.0
H1283 H 0.34705 0.0132 0.41282 0.0
H1284 H 0.3241 0.9935 0.41489 0.0
H1285 H 0.41785 0.98892 0.63103 0.0
H1286 H 0.41885 0.00979 0.57947 0.0
H1287 H 0.39577 0.00902 0.63962 0.0
H1288 H 0.39951 0.06323 0.45853 0.0
H1289 H 0.34445 0.0622 0.60429 0.0
H1290 H 0.39315 0.0152 0.40931 0.0
H1291 H 0.41741 0.01357 0.46652 0.0
H1292 H 0.41648 0.03453 0.41528 0.0
H1293 H 0.32508 0.01374 0.58691 0.0
H1294 H 0.32808 0.03278 0.64462 0.0
H1295 H 0.3499 0.01232 0.64273 0.0
C1296 C 0.84145 0.96717 0.00664 0.0
C1297 C 0.86424 0.95779 0.99086 0.0
C1298 C 0.83924 0.98789 0.00555 0.0
C1299 C 0.86038 0.99962 0.9888 0.0
C1300 C 0.8834 0.99023 0.97252 0.0
C1301 C 0.88502 0.96949 0.9735 0.0
C1302 C 0.81429 0.99724 0.02284 0.0
C1303 C 0.90648 1.00212 0.95494 0.0
C1304 C 0.84987 0.05331 0.94047 0.0
C1305 C 0.85503 0.06349 0.99545 0.0
C1306 C 0.85149 0.03255 0.93755 0.0
C1307 C 0.85871 0.02169 0.99064 0.0
C1308 C 0.86429 0.03195 0.04593 0.0
C1309 C 0.86226 0.05263 0.04773 0.0
C1310 C 0.84519 0.02221 0.87781 0.0
C1311 C 0.87234 0.02106 0.10345 0.0
H1312 H 0.82523 0.95832 0.01981 0.0
H1313 H 0.90274 0.96245 0.96124 0.0
H1314 H 0.81676 0.00656 0.06451 0.0
H1315 H 0.80769 0.00704 0.98512 0.0
H1316 H 0.79936 0.9861 0.03233 0.0
H1317 H 0.9228 0.99262 0.94217 0.0
H1318 H 0.90202 0.01193 0.91546 0.0
H1319 H 0.91219 0.0117 0.99404 0.0
H1320 H 0.84418 0.06153 0.89989 0.0
H1321 H 0.86642 0.06031 0.0904 0.0
H1322 H 0.82921 0.01184 0.88509 0.0
H1323 H 0.86163 0.01335 0.86214 0.0
H1324 H 0.83995 0.03273 0.84063 0.0
H1325 H 0.8572 0.0107 0.11794 0.0
H1326 H 0.87651 0.03121 0.14241 0.0
H1327 H 0.8895 0.01213 0.09383 0.0
C1328 C 0.60128 0.95202 0.42017 0.0
C1329 C 0.61944 0.94264 0.45724 0.0
C1330 C 0.59852 0.97265 0.42093 0.0
C1331 C 0.61412 0.98413 0.46011 0.0
C1332 C 0.63241 0.97473 0.49776 0.0
C1333 C 0.63492 0.95412 0.49566 0.0
C1334 C 0.57898 0.98216 0.37972 0.0
C1335 C 0.64928 0.98643 0.54054 0.0
C1336 C 0.62617 0.03858 0.43074 0.0
C1337 C 0.61041 0.04749 0.47474 0.0
C1338 C 0.62679 0.01799 0.4237 0.0
C1339 C 0.61147 0.006 0.46201 0.0
C1340 C 0.59483 0.01494 0.50492 0.0
C1341 C 0.59439 0.03558 0.51053 0.0
C1342 C 0.64454 0.00903 0.37682 0.0
C1343 C 0.5783 1.00266 0.54683 0.0
H1344 H 0.58929 0.94326 0.39022 0.0
H1345 H 0.64893 0.94701 0.52463 0.0
H1346 H 0.56518 0.99055 0.40799 0.0
H1347 H 0.58827 0.99286 0.34829 0.0
H1348 H 0.56849 0.97118 0.35153 0.0
H1349 H 0.66235 0.97687 0.56732 0.0
H1350 H 0.66072 0.99713 0.51362 0.0
H1351 H 0.63756 0.99505 0.57335 0.0
H1352 H 0.63847 0.04767 0.40258 0.0
H1353 H 0.58217 0.04234 0.54468 0.0
H1354 H 0.63421 0.99843 0.34703 0.0
H1355 H 0.65968 1.00069 0.40088 0.0
H1356 H 0.65355 0.02039 0.34708 0.0
H1357 H 0.56695 0.99203 0.51943 0.0
H1358 H 0.56521 0.01186 0.57479 0.0
H1359 H 0.59038 0.99394 0.57862 0.0
C1360 C 0.59717 0.45973 0.06274 0.0
C1361 C 0.60538 0.44711 0.01545 0.0
C1362 C 0.59654 0.48028 0.05439 0.0
C1363 C 0.60439 0.48848 0.99744 0.0
C1364 C 0.61152 0.47578 0.94853 0.0
C1365 C 0.61186 0.45525 0.95806 0.0
C1366 C 0.5886 0.49328 0.10756 0.0
C1367 C 0.61999 0.4839 0.88708 0.0
C1368 C 0.58999 0.54261 0.96423 0.0
C1369 C 0.61295 0.55172 0.98035 0.0
C1370 C 0.5869 0.52204 0.96919 0.0
C1371 C 0.60722 0.5103 0.99089 0.0
C1372 C 0.63043 0.51941 0.00709 0.0
C1373 C 0.633 0.53996 1.00159 0.0
C1374 C 0.56189 0.51287 0.95142 0.0
C1375 C 0.65257 0.50746 0.03052 0.0
H1376 H 0.59195 0.45359 0.10711 0.0
H1377 H 0.61818 0.44566 0.92115 0.0
H1378 H 0.60516 0.50182 0.12431 0.0
H1379 H 0.57411 0.50407 0.09229 0.0
H1380 H 0.58081 0.48462 0.14671 0.0
H1381 H 0.6227 0.4721 0.8521 0.0
H1382 H 0.60594 0.49465 0.86927 0.0
H1383 H 0.63817 0.4919 0.89291 0.0
H1384 H 0.57439 0.55155 0.94773 0.0
H1385 H 0.65081 0.54681 0.01422 0.0
H1386 H 0.55364 0.50504 0.9916 0.0
H1387 H 0.56482 0.50174 0.91456 0.0
H1388 H 0.54803 0.524 0.93483 0.0
H1389 H 0.64711 0.4995 0.07319 0.0
H1390 H 0.66938 0.51677 0.04071 0.0
H1391 H 0.658 0.4962 0.99583 0.0
C1392 C 0.86182 0.45617 0.54901 0.0
C1393 C 0.87923 0.44665 0.5102 0.0
C1394 C 0.8613 0.47687 0.55401 0.0
C1395 C 0.87848 0.48841 0.51908 0.0
C1396 C 0.89611 0.47889 0.47988 0.0
C1397 C 0.89633 0.45816 0.47608 0.0
C1398 C 0.84231 0.48641 0.59665 0.0
C1399 C 0.91466 0.49061 0.44157 0.0
C1400 C 0.86126 0.54221 0.48887 0.0
C1401 C 0.87605 0.55219 0.53278 0.0
C1402 C 0.86205 0.52153 0.48352 0.0
C1403 C 0.87791 0.51045 0.52327 0.0
C1404 C 0.89305 0.52043 0.56732 0.0
C1405 C 0.892 0.54114 0.57139 0.0
C1406 C 0.84576 0.51151 0.43559 0.0
C1407 C 0.91014 0.5092 0.61072 0.0
H1408 H 0.84857 0.44744 0.5757 0.0
H1409 H 0.90983 0.45099 0.44585 0.0
H1410 H 0.85226 0.49565 0.63128 0.0
H1411 H 0.82965 0.49631 0.56999 0.0
H1412 H 0.83048 0.47538 0.6213 0.0
H1413 H 0.92717 0.481 0.4134 0.0
H1414 H 0.90426 0.5007 0.41024 0.0
H1415 H 0.92665 0.4999 0.47196 0.0
H1416 H 0.8489 0.55056 0.45869 0.0
H1417 H 0.90347 0.54866 0.60558 0.0
H1418 H 0.83221 0.50135 0.4584 0.0
H1419 H 0.85773 0.50247 0.40446 0.0
H1420 H 0.8349 0.52223 0.40729 0.0
H1421 H 0.89872 0.4989 0.63918 0.0
H1422 H 0.9209 0.51913 0.64198 0.0
H1423 H 0.9238 0.50016 0.58405 0.0
C1424 C 0.3569 0.53909 0.99532 0.0
C1425 C 0.3731 0.54972 0.95626 0.0
C1426 C 0.35815 0.51843 0.99886 0.0
C1427 C 0.37588 0.50809 0.96208 0.0
C1428 C 0.39217 0.51871 0.92221 0.0
C1429 C 0.39067 0.53941 0.91997 0.0
C1430 C 0.34058 0.50766 0.04234 0.0
C1431 C 0.41119 0.5082 0.88194 0.0
C1432 C 0.3945 0.45658 0.01458 0.0
C1433 C 0.37885 0.44465 0.97789 0.0
C1434 C 0.39395 0.47723 0.00936 0.0
C1435 C 0.3775 0.48618 0.96605 0.0
C1436 C 0.36203 0.47421 0.92799 0.0
C1437 C 0.36282 0.45359 0.93452 0.0
C1438 C 0.41063 0.48948 0.05104 0.0
C1439 C 0.3444 0.48319 0.8809 0.0
H1440 H 0.34332 0.54691 0.02368 0.0
H1441 H 0.4032 0.5475 0.88952 0.0
H1442 H 0.32876 0.49701 0.01626 0.0
H1443 H 0.35179 0.49908 0.0763 0.0
H1444 H 0.32788 0.51787 0.06782 0.0
H1445 H 0.42218 0.51857 0.85263 0.0
H1446 H 0.42461 0.49972 0.91104 0.0
H1447 H 0.40136 0.49745 0.85161 0.0
H1448 H 0.40695 0.44981 0.04821 0.0
H1449 H 0.35076 0.44448 0.90574 0.0
H1450 H 0.39873 0.4991 0.08061 0.0
H1451 H 0.42295 0.49927 0.0231 0.0
H1452 H 0.42281 0.48025 0.08124 0.0
H1453 H 0.33005 0.49247 0.90445 0.0
H1454 H 0.33442 0.47182 0.85308 0.0
H1455 H 0.35515 0.49295 0.84925 0.0
C1456 C 0.12327 0.4552 0.54107 0.0
C1457 C 0.13447 0.44495 0.4918 0.0
C1458 C 0.12154 0.47593 0.54095 0.0
C1459 C 0.13145 0.48681 0.49063 0.0
C1460 C 0.14269 0.47655 0.44065 0.0
C1461 C 0.14394 0.45578 0.44168 0.0
C1462 C 0.10912 0.4862 0.59483 0.0
C1463 C 0.15365 0.48753 0.38628 0.0
C1464 C 0.10793 0.5393 0.46245 0.0
C1465 C 0.12734 0.55077 0.48857 0.0
C1466 C 0.10894 0.51855 0.46321 0.0
C1467 C 0.12999 0.5089 0.49023 0.0
C1468 C 0.14963 0.52037 0.51679 0.0
C1469 C 0.14801 0.54113 0.51593 0.0
C1470 C 0.08745 0.50694 0.43498 0.0
C1471 C 0.17249 0.51072 0.5457 0.0
H1472 H 0.11579 0.44701 0.57994 0.0
H1473 H 0.15272 0.44805 0.40351 0.0
H1474 H 0.12284 0.49631 0.61731 0.0
H1475 H 0.09305 0.49534 0.57838 0.0
H1476 H 0.10197 0.47564 0.6299 0.0
H1477 H 0.16185 0.47743 0.35122 0.0
H1478 H 0.13874 0.49659 0.36397 0.0
H1479 H 0.16867 0.49779 0.40223 0.0
H1480 H 0.09182 0.54655 0.44137 0.0
H1481 H 0.16315 0.54981 0.53604 0.0
H1482 H 0.07914 0.49688 0.4699 0.0
H1483 H 0.09467 0.49762 0.39676 0.0
H1484 H 0.07223 0.51662 0.41673 0.0
H1485 H 0.16648 0.50088 0.58386 0.0
H1486 H 0.18618 0.52168 0.56415 0.0
H1487 H 0.1823 0.5014 0.51106 0.0
C1488 C 0.19954 0.12249 0.25892 0.0
C1489 C 0.20048 0.12623 0.19537 0.0
C1490 C 0.22075 0.12543 0.29649 0.0
C1491 C 0.2439 0.13148 0.26959 0.0
C1492 C 0.2453 0.13459 0.20501 0.0
C1493 C 0.22337 0.13232 0.16875 0.0
C1494 C 0.21815 0.12244 0.36531 0.0
C1495 C 0.26978 0.14048 0.17431 0.0
C1496 C 0.28861 0.15554 0.38386 0.0
C1497 C 0.30197 0.13913 0.40579 0.0
C1498 C 0.27049 0.15351 0.33689 0.0
C1499 C 0.26627 0.13472 0.31014 0.0
C1500 C 0.28121 0.11844 0.3289 0.0
C1501 C 0.29857 0.12075 0.37743 0.0
C1502 C 0.25469 0.17117 0.31896 0.0
C1503 C 0.27804 0.09838 0.29966 0.0
H1504 H 0.18188 0.11786 0.27992 0.0
H1505 H 0.2242 0.13512 0.11956 0.0
H1506 H 0.23105 0.11052 0.38084 0.0
H1507 H 0.2237 0.13611 0.39006 0.0
H1508 H 0.19853 0.11849 0.37906 0.0
H1509 H 0.26884 0.13887 0.12338 0.0
H1510 H 0.27396 0.15614 0.18507 0.0
H1511 H 0.28575 0.13146 0.19192 0.0
H1512 H 0.29139 0.16977 0.4057 0.0
H1513 H 0.30929 0.10813 0.39358 0.0
H1514 H 0.2347 0.16865 0.33276 0.0
H1515 H 0.25492 0.17322 0.26824 0.0
H1516 H 0.26145 0.18498 0.34114 0.0
H1517 H 0.25977 0.09183 0.31444 0.0
H1518 H 0.29353 0.08811 0.31277 0.0
H1519 H 0.27756 0.0997 0.24865 0.0
C1520 C 0.30108 0.8942 0.6847 0.0
C1521 C 0.29578 0.88339 0.63132 0.0
C1522 C 0.28439 0.89372 0.73515 0.0
C1523 C 0.26127 0.88321 0.73002 0.0
C1524 C 0.25565 0.87273 0.67517 0.0
C1525 C 0.27326 0.87267 0.62682 0.0
C1526 C 0.29186 0.90384 0.79447 0.0
C1527 C 0.23092 0.86182 0.66719 0.0
C1528 C 0.2231 0.86563 0.86772 0.0
C1529 C 0.20564 0.88099 0.87461 0.0
C1530 C 0.24221 0.86663 0.82298 0.0
C1531 C 0.24297 0.88294 0.78207 0.0
C1532 C 0.22523 0.89847 0.7888 0.0
C1533 C 0.20722 0.89758 0.83631 0.0
C1534 C 0.26073 0.84972 0.81861 0.0
C1535 C 0.22453 0.91557 0.74418 0.0
H1536 H 0.31865 0.90242 0.68771 0.0
H1537 H 0.26923 0.86451 0.58489 0.0
H1538 H 0.27844 0.91596 0.80491 0.0
H1539 H 0.29087 0.89319 0.83331 0.0
H1540 H 0.3113 0.91006 0.79239 0.0
H1541 H 0.22996 0.85375 0.62268 0.0
H1542 H 0.22819 0.85104 0.70503 0.0
H1543 H 0.21499 0.87247 0.66936 0.0
H1544 H 0.22185 0.85281 0.8975 0.0
H1545 H 0.19347 0.90935 0.84133 0.0
H1546 H 0.27855 0.8539 0.79501 0.0
H1547 H 0.25186 0.83744 0.79252 0.0
H1548 H 0.26541 0.84402 0.86528 0.0
H1549 H 0.24223 0.92429 0.74785 0.0
H1550 H 0.20823 0.92556 0.75275 0.0
H1551 H 0.22331 0.91 0.69612 0.0
C1552 C 0.69421 0.85852 0.69489 0.0
C1553 C 0.69783 0.86926 0.64056 0.0
C1554 C 0.71254 0.85852 0.7418 0.0
C1555 C 0.73576 0.86852 0.73231 0.0
C1556 C 0.74034 0.87817 0.67551 0.0
C1557 C 0.72117 0.87867 0.6307 0.0
C1558 C 0.70667 0.84839 0.80217 0.0
C1559 C 0.7653 0.88823 0.66242 0.0
C1560 C 0.77428 0.88671 0.86895 0.0
C1561 C 0.79237 0.8717 0.8752 0.0
C1562 C 0.75538 0.88561 0.82354 0.0
C1563 C 0.75501 0.8694 0.78229 0.0
C1564 C 0.77322 0.85422 0.78836 0.0
C1565 C 0.79124 0.85532 0.83578 0.0
C1566 C 0.73583 0.90181 0.81964 0.0
C1567 C 0.77396 0.83699 0.7442 0.0
H1568 H 0.67683 0.85044 0.70142 0.0
H1569 H 0.72443 0.88661 0.58804 0.0
H1570 H 0.72164 0.83751 0.81352 0.0
H1571 H 0.70636 0.85948 0.83988 0.0
H1572 H 0.68809 0.84069 0.80127 0.0
H1573 H 0.76678 0.8933 0.61382 0.0
H1574 H 0.76753 0.9012 0.69318 0.0
H1575 H 0.78127 0.87806 0.67215 0.0
H1576 H 0.77473 0.89925 0.89994 0.0
H1577 H 0.8047 0.84344 0.84132 0.0
H1578 H 0.71653 0.89536 0.82061 0.0
H1579 H 0.73786 0.90981 0.77531 0.0
H1580 H 0.73757 0.91259 0.85801 0.0
H1581 H 0.75586 0.82871 0.74621 0.0
H1582 H 0.78974 0.82665 0.75447 0.0
H1583 H 0.77619 0.84244 0.69624 0.0
C1584 C 0.71111 0.11379 0.34105 0.0
C1585 C 0.69135 0.12752 0.34533 0.0
C1586 C 0.73011 0.11578 0.29634 0.0
C1587 C 0.72905 0.1317 0.25417 0.0
C1588 C 0.70913 0.14562 0.25822 0.0
C1589 C 0.69074 0.14353 0.30448 0.0
C1590 C 0.75144 0.10096 0.29472 0.0
C1591 C 0.70697 0.16255 0.21321 0.0
C1592 C 0.78962 0.14834 0.1763 0.0
C1593 C 0.78886 0.13789 0.12053 0.0
C1594 C 0.77054 0.14617 0.22061 0.0
C1595 C 0.74935 0.13413 0.20736 0.0
C1596 C 0.74787 0.12416 0.15008 0.0
C1597 C 0.76787 0.12589 0.10766 0.0
C1598 C 0.77331 0.1565 0.28203 0.0
C1599 C 0.72522 0.11163 0.13377 0.0
H1600 H 0.71189 0.10152 0.37306 0.0
H1601 H 0.67579 0.15437 0.30851 0.0
H1602 H 0.75026 0.09209 0.25184 0.0
H1603 H 0.76996 0.10867 0.29429 0.0
H1604 H 0.75095 0.09074 0.33476 0.0
H1605 H 0.69301 0.17376 0.22857 0.0
H1606 H 0.7255 0.16996 0.2066 0.0
H1607 H 0.7009 0.15673 0.16768 0.0
H1608 H 0.8055 0.15787 0.1861 0.0
H1609 H 0.76696 0.11798 0.06426 0.0
H1610 H 0.77234 0.14555 0.32002 0.0
H1611 H 0.75749 0.16705 0.28874 0.0
H1612 H 0.79149 0.16467 0.28595 0.0
H1613 H 0.72367 0.09904 0.16619 0.0
H1614 H 0.72643 0.10572 0.0861 0.0
H1615 H 0.70761 0.12044 0.13837 0.0
C1616 C 0.79334 0.61515 0.33342 0.0
C1617 C 0.7914 0.62976 0.3788 0.0
C1618 C 0.77629 0.61464 0.28368 0.0
C1619 C 0.75584 0.62817 0.28192 0.0
C1620 C 0.75342 0.64253 0.32912 0.0
C1621 C 0.77168 0.64348 0.37609 0.0
C1622 C 0.78075 0.60018 0.23181 0.0
C1623 C 0.73197 0.65723 0.32972 0.0
C1624 C 0.72214 0.64121 0.13228 0.0
C1625 C 0.70253 0.62736 0.13135 0.0
C1626 C 0.74008 0.64131 0.17999 0.0
C1627 C 0.73758 0.62778 0.22952 0.0
C1628 C 0.71717 0.61417 0.22964 0.0
C1629 C 0.70035 0.61369 0.17941 0.0
C1630 C 0.76105 0.65641 0.1773 0.0
C1631 C 0.71232 0.60086 0.28424 0.0
H1632 H 0.80882 0.60467 0.33552 0.0
H1633 H 0.77024 0.65473 0.4115 0.0
H1634 H 0.7647 0.5897 0.2284 0.0
H1635 H 0.78187 0.60823 0.18727 0.0
H1636 H 0.79848 0.5916 0.23819 0.0
H1637 H 0.72797 0.66254 0.37722 0.0
H1638 H 0.73731 0.67018 0.30126 0.0
H1639 H 0.71438 0.65083 0.3102 0.0
H1640 H 0.72359 0.65192 0.09525 0.0
H1641 H 0.68481 0.60324 0.17904 0.0
H1642 H 0.77734 0.65262 0.20724 0.0
H1643 H 0.75347 0.67092 0.19216 0.0
H1644 H 0.76792 0.65815 0.12917 0.0
H1645 H 0.72855 0.59076 0.29139 0.0
H1646 H 0.69487 0.59188 0.27844 0.0
H1647 H 0.71037 0.60991 0.32669 0.0
C1648 C 0.80252 0.38933 0.73318 0.0
C1649 C 0.80121 0.38581 0.66952 0.0
C1650 C 0.78121 0.38698 0.77083 0.0
C1651 C 0.75779 0.38157 0.74391 0.0
C1652 C 0.75616 0.37878 0.67925 0.0
C1653 C 0.77804 0.38056 0.64291 0.0
C1654 C 0.78395 0.38974 0.83968 0.0
C1655 C 0.73165 0.37316 0.6484 0.0
C1656 C 0.71142 0.35656 0.85213 0.0
C1657 C 0.69666 0.37254 0.8717 0.0
C1658 C 0.73088 0.35917 0.80889 0.0
C1659 C 0.73546 0.37818 0.78429 0.0
C1660 C 0.71993 0.39422 0.80217 0.0
C1661 C 0.70089 0.39126 0.84637 0.0
C1662 C 0.74703 0.3417 0.79104 0.0
C1663 C 0.72371 0.41455 0.77523 0.0
H1664 H 0.82046 0.39329 0.7541 0.0
H1665 H 0.77698 0.37787 0.59367 0.0
H1666 H 0.77084 0.40141 0.85598 0.0
H1667 H 0.77875 0.37589 0.86386 0.0
H1668 H 0.80355 0.39385 0.85325 0.0
H1669 H 0.73176 0.37685 0.59846 0.0
H1670 H 0.72909 0.357 0.65285 0.0
H1671 H 0.71526 0.38058 0.6704 0.0
H1672 H 0.70815 0.34209 0.87186 0.0
H1673 H 0.68926 0.40358 0.86099 0.0
H1674 H 0.76704 0.34451 0.80403 0.0
H1675 H 0.74648 0.33955 0.74035 0.0
H1676 H 0.7407 0.32783 0.81363 0.0
H1677 H 0.74246 0.42041 0.78928 0.0
H1678 H 0.70886 0.42509 0.79043 0.0
H1679 H 0.72354 0.41375 0.72409 0.0
C1680 C 0.20264 0.38817 0.64418 0.0
C1681 C 0.1996 0.37008 0.61398 0.0
C1682 C 0.21976 0.39007 0.69335 0.0
C1683 C 0.2348 0.37369 0.71074 0.0
C1684 C 0.23081 0.35514 0.68221 0.0
C1685 C 0.21302 0.35353 0.63443 0.0
C1686 C 0.22275 0.40988 0.72437 0.0
C1687 C 0.24664 0.33737 0.69886 0.0
C1688 C 0.30171 0.3856 0.7603 0.0
C1689 C 0.30109 0.38144 0.8236 0.0
C1690 C 0.28029 0.38296 0.72334 0.0
C1691 C 0.25733 0.37672 0.75073 0.0
C1692 C 0.25634 0.37313 0.81509 0.0
C1693 C 0.27846 0.37511 0.85068 0.0
C1694 C 0.28245 0.3865 0.65468 0.0
C1695 C 0.23214 0.36697 0.84629 0.0
H1696 H 0.19194 0.4009 0.62868 0.0
H1697 H 0.21054 0.33954 0.61085 0.0
H1698 H 0.22346 0.40809 0.77522 0.0
H1699 H 0.24087 0.41672 0.70973 0.0
H1700 H 0.20706 0.42011 0.7125 0.0
H1701 H 0.23975 0.3237 0.67609 0.0
H1702 H 0.26656 0.33994 0.68469 0.0
H1703 H 0.24659 0.33504 0.74946 0.0
H1704 H 0.31924 0.39038 0.73904 0.0
H1705 H 0.27796 0.37198 0.8997 0.0
H1706 H 0.26937 0.39848 0.64053 0.0
H1707 H 0.27688 0.373 0.62907 0.0
H1708 H 0.30196 0.39066 0.64055 0.0
H1709 H 0.21599 0.37593 0.82937 0.0
H1710 H 0.23331 0.36846 0.89721 0.0
H1711 H 0.22825 0.3513 0.83525 0.0
C1712 C 0.29878 0.64259 0.17744 0.0
C1713 C 0.30062 0.62589 0.13962 0.0
C1714 C 0.28064 0.64358 0.22476 0.0
C1715 C 0.26339 0.62777 0.23283 0.0
C1716 C 0.26515 0.6109 0.19459 0.0
C1717 C 0.28383 0.61013 0.14872 0.0
C1718 C 0.27962 0.66166 0.26536 0.0
C1719 C 0.24672 0.59395 0.20057 0.0
C1720 C 0.22355 0.62194 0.37803 0.0
C1721 C 0.20078 0.6308 0.35976 0.0
C1722 C 0.24453 0.62149 0.33802 0.0
C1723 C 0.24223 0.62942 0.27779 0.0
C1724 C 0.21912 0.63816 0.25917 0.0
C1725 C 0.19892 0.63903 0.30086 0.0
C1726 C 0.26906 0.61246 0.35998 0.0
C1727 C 0.21548 0.6462 0.19474 0.0
H1728 H 0.31136 0.65495 0.16963 0.0
H1729 H 0.28498 0.59726 0.11916 0.0
H1730 H 0.29478 0.67243 0.25415 0.0
H1731 H 0.26102 0.66908 0.26024 0.0
H1732 H 0.28152 0.65728 0.31447 0.0
H1733 H 0.25125 0.5816 0.16873 0.0
H1734 H 0.24673 0.58823 0.2485 0.0
H1735 H 0.22725 0.59918 0.19044 0.0
H1736 H 0.22508 0.61568 0.42389 0.0
H1737 H 0.1813 0.64559 0.2866 0.0
H1738 H 0.28482 0.62313 0.35412 0.0
H1739 H 0.27368 0.5993 0.33173 0.0
H1740 H 0.26815 0.60797 0.40919 0.0
H1741 H 0.22957 0.65797 0.18542 0.0
H1742 H 0.1962 0.65235 0.18755 0.0
H1743 H 0.21864 0.63432 0.16035 0.0
C1744 C 0.14904 0.12105 0.67247 0.0
C1745 C 0.12791 0.12241 0.71109 0.0
C1746 C 0.14622 0.11639 0.60978 0.0
C1747 C 0.12166 0.1129 0.58574 0.0
C1748 C 0.10071 0.11194 0.6264 0.0
C1749 C 0.10405 0.11698 0.68869 0.0
C1750 C 0.16908 0.11765 0.56817 0.0
C1751 C 0.07433 0.1078 0.603 0.0
C1752 C 0.11032 0.13502 0.42766 0.0
C1753 C 0.11324 0.11865 0.38899 0.0
C1754 C 0.11252 0.13318 0.49179 0.0
C1755 C 0.11735 0.11439 0.51804 0.0
C1756 C 0.11921 0.09762 0.47933 0.0
C1757 C 0.11738 0.09998 0.41499 0.0
C1758 C 0.11059 0.15151 0.53126 0.0
C1759 C 0.12386 0.07734 0.50566 0.0
H1760 H 0.1674 0.12562 0.6898 0.0
H1761 H 0.08768 0.11833 0.71859 0.0
H1762 H 0.16914 0.10542 0.5342 0.0
H1763 H 0.16841 0.13171 0.54195 0.0
H1764 H 0.18706 0.11724 0.59472 0.0
H1765 H 0.0614 0.1034 0.641 0.0
H1766 H 0.0666 0.1213 0.58104 0.0
H1767 H 0.07455 0.09595 0.56766 0.0
H1768 H 0.10722 0.14948 0.40764 0.0
H1769 H 0.11965 0.0873 0.38503 0.0
H1770 H 0.12861 0.15386 0.55658 0.0
H1771 H 0.0954 0.14972 0.56611 0.0
H1772 H 0.1065 0.16495 0.50362 0.0
H1773 H 0.14337 0.07653 0.52447 0.0
H1774 H 0.12162 0.06557 0.47037 0.0
H1775 H 0.11065 0.07436 0.54434 0.0
C1776 C 0.33817 0.88299 0.12471 0.0
C1777 C 0.35524 0.86916 0.14912 0.0
C1778 C 0.33747 0.887 0.06087 0.0
C1779 C 0.35396 0.87674 0.02041 0.0
C1780 C 0.37236 0.86382 0.04544 0.0
C1781 C 0.37296 0.8604 0.10929 0.0
C1782 C 0.31803 0.9013 0.03638 0.0
C1783 C 0.39023 0.85242 0.00439 0.0
C1784 C 0.33214 0.86229 0.85962 0.0
C1785 C 0.34734 0.87416 0.82181 0.0
C1786 C 0.33336 0.86363 0.92414 0.0
C1787 C 0.35005 0.87736 0.95201 0.0
C1788 C 0.36454 0.89013 0.914 0.0
C1789 C 0.36322 0.88824 0.84923 0.0
C1790 C 0.3177 0.84956 0.96246 0.0
C1791 C 0.38213 0.90528 0.9417 0.0
H1792 H 0.32439 0.88986 0.15488 0.0
H1793 H 0.38662 0.85004 0.12782 0.0
H1794 H 0.32649 0.91104 1.00076 0.0
H1795 H 0.30237 0.89299 0.01423 0.0
H1796 H 0.3099 0.91061 0.07363 0.0
H1797 H 0.40469 0.84415 0.0312 0.0
H1798 H 0.37929 0.84171 0.97622 0.0
H1799 H 0.40008 0.8625 0.97207 0.0
H1800 H 0.32007 0.85122 0.83879 0.0
H1801 H 0.37498 0.89748 0.82017 0.0
H1802 H 0.30563 0.85792 0.99514 0.0
H1803 H 0.33036 0.83997 0.99021 0.0
H1804 H 0.30533 0.84 0.93373 0.0
H1805 H 0.37243 0.91354 0.97905 0.0
H1806 H 0.3891 0.91594 0.90669 0.0
H1807 H 0.3987 0.89776 0.96255 0.0
C1808 C 0.16533 0.89253 0.65821 0.0
C1809 C 0.14971 0.87697 0.67736 0.0
C1810 C 0.17028 0.89571 0.59506 0.0
C1811 C 0.15961 0.88282 0.55047 0.0
C1812 C 0.1436 0.86724 0.57003 0.0
C1813 C 0.13875 0.86463 0.63298 0.0
C1814 C 0.18749 0.91248 0.57679 0.0
C1815 C 0.13211 0.85287 0.52456 0.0
C1816 C 0.15019 0.88959 0.37876 0.0
C1817 C 0.1684 0.87647 0.35591 0.0
C1818 C 0.14884 0.89375 0.44234 0.0
C1819 C 0.16592 0.88439 0.48351 0.0
C1820 C 0.18607 0.873 0.45943 0.0
C1821 C 0.18706 0.86919 0.39591 0.0
C1822 C 0.12774 0.90667 0.46604 0.0
C1823 C 0.20514 0.86324 0.5013 0.0
H1824 H 0.17383 0.9021 0.69251 0.0
H1825 H 0.12671 0.85254 0.64756 0.0
H1826 H 0.2072 0.90694 0.5735 0.0
H1827 H 0.18215 0.91877 0.53136 0.0
H1828 H 0.18721 0.92445 0.61184 0.0
H1829 H 0.11995 0.84166 0.54735 0.0
H1830 H 0.12049 0.86092 0.49016 0.0
H1831 H 0.14735 0.84509 0.49909 0.0
H1832 H 0.13583 0.89533 0.34787 0.0
H1833 H 0.20141 0.85928 0.37798 0.0
H1834 H 0.13478 0.9166 0.50298 0.0
H1835 H 0.11266 0.89727 0.48623 0.0
H1836 H 0.11925 0.91572 0.42867 0.0
H1837 H 0.21341 0.87429 0.53321 0.0
H1838 H 0.22075 0.85612 0.47515 0.0
H1839 H 0.19559 0.85183 0.52971 0.0
C1840 C 0.3299 0.14363 0.91422 0.0
C1841 C 0.34928 0.15598 0.89262 0.0
C1842 C 0.32807 0.1388 0.97725 0.0
C1843 C 0.34604 0.14654 0.01939 0.0
C1844 C 0.36655 0.15795 0.99692 0.0
C1845 C 0.36789 0.16252 0.93394 0.0
C1846 C 0.30593 0.12656 0.99895 0.0
C1847 C 0.38628 0.16638 0.03995 0.0
C1848 C 0.32998 0.16031 0.18409 0.0
C1849 C 0.34329 0.14601 0.21757 0.0
C1850 C 0.32921 0.15981 0.11944 0.0
C1851 C 0.34229 0.14472 0.08738 0.0
C1852 C 0.35429 0.12945 0.12114 0.0
C1853 C 0.35465 0.13028 0.18603 0.0
C1854 C 0.31566 0.17614 0.08545 0.0
C1855 C 0.368 0.11292 0.0887 0.0
H1856 H 0.31535 0.13866 0.8825 0.0
H1857 H 0.38303 0.17191 0.91722 0.0
H1858 H 0.31141 0.11663 0.03738 0.0
H1859 H 0.29083 0.13653 0.01611 0.0
H1860 H 0.29789 0.11754 0.96088 0.0
H1861 H 0.40213 0.1735 0.01466 0.0
H1862 H 0.3774 0.17757 0.07044 0.0
H1863 H 0.39414 0.15462 0.06994 0.0
H1864 H 0.32093 0.17239 0.20837 0.0
H1865 H 0.36488 0.11914 0.21184 0.0
H1866 H 0.30273 0.16985 0.05024 0.0
H1867 H 0.3297 0.18547 0.06097 0.0
H1868 H 0.30448 0.18568 0.11698 0.0
H1869 H 0.35604 0.10667 0.05142 0.0
H1870 H 0.37339 0.10089 0.12092 0.0
H1871 H 0.38547 0.11877 0.06691 0.0
C1872 C 0.83156 0.88373 0.37912 0.0
C1873 C 0.85393 0.87539 0.35592 0.0
C1874 C 0.82855 0.88713 0.44297 0.0
C1875 C 0.84823 0.88183 0.48435 0.0
C1876 C 0.8716 0.87505 0.46024 0.0
C1877 C 0.87419 0.87208 0.39649 0.0
C1878 C 0.80361 0.89494 0.46643 0.0
C1879 C 0.89314 0.86911 0.50214 0.0
C1880 C 0.85078 0.89184 0.65775 0.0
C1881 C 0.84291 0.87358 0.68137 0.0
C1882 C 0.85092 0.8954 0.59356 0.0
C1883 C 0.84344 0.88021 0.55229 0.0
C1884 C 0.83408 0.86221 0.57649 0.0
C1885 C 0.83377 0.8592 0.64052 0.0
C1886 C 0.86024 0.91502 0.56992 0.0
C1887 C 0.82595 0.84552 0.53469 0.0
H1888 H 0.81579 0.88627 0.34811 0.0
H1889 H 0.89158 0.86577 0.37867 0.0
H1890 H 0.79214 0.88255 0.48483 0.0
H1891 H 0.80659 0.9056 0.5046 0.0
H1892 H 0.79259 0.90225 0.42923 0.0
H1893 H 0.91081 0.86599 0.47612 0.0
H1894 H 0.89708 0.88087 0.53637 0.0
H1895 H 0.88776 0.85562 0.52809 0.0
H1896 H 0.85767 0.90307 0.68915 0.0
H1897 H 0.82739 0.84512 0.65848 0.0
H1898 H 0.84806 0.92037 0.53171 0.0
H1899 H 0.87969 0.91331 0.55141 0.0
H1900 H 0.86068 0.92637 0.60691 0.0
H1901 H 0.81171 0.85079 0.50091 0.0
H1902 H 0.81772 0.83295 0.56073 0.0
H1903 H 0.84252 0.84008 0.50819 0.0
C1904 C 0.64125 0.09855 0.85837 0.0
C1905 C 0.65574 0.115 0.84139 0.0
C1906 C 0.63919 0.09305 0.92063 0.0
C1907 C 0.65126 0.10471 0.96615 0.0
C1908 C 0.66834 0.11976 0.9482 0.0
C1909 C 0.67074 0.12444 0.88579 0.0
C1910 C 0.62211 0.07609 0.93782 0.0
C1911 C 0.68169 0.13261 0.99502 0.0
C1912 C 0.61572 0.12093 0.10735 0.0
C1913 C 0.63131 0.11368 0.15421 0.0
C1914 C 0.62103 0.11691 0.04552 0.0
C1915 C 0.64191 0.10468 0.03056 0.0
C1916 C 0.65606 0.09559 0.07814 0.0
C1917 C 0.65092 0.10055 0.13981 0.0
C1918 C 0.6057 0.12729 0.99632 0.0
C1919 C 0.67709 0.08126 0.06368 0.0
H1920 H 0.62997 0.09095 0.82397 0.0
H1921 H 0.68272 0.13669 0.87221 0.0
H1922 H 0.62894 0.06853 0.98005 0.0
H1923 H 0.60277 0.08174 0.94709 0.0
H1924 H 0.6208 0.06518 0.8997 0.0
H1925 H 0.69609 0.14238 0.97345 0.0
H1926 H 0.66759 0.14201 0.01908 0.0
H1927 H 0.69115 0.12342 0.03028 0.0
H1928 H 0.60049 0.13104 0.11867 0.0
H1929 H 0.66269 0.09469 0.17646 0.0
H1930 H 0.59803 0.11645 0.96291 0.0
H1931 H 0.61805 0.13763 0.97036 0.0
H1932 H 0.58963 0.13581 0.0159 0.0
H1933 H 0.66907 0.06819 0.03981 0.0
H1934 H 0.68713 0.07621 0.10587 0.0
H1935 H 0.69103 0.088 0.03179 0.0
C1936 C 0.84067 0.12991 0.61773 0.0
C1937 C 0.83023 0.14861 0.62914 0.0
C1938 C 0.84188 0.12229 0.55739 0.0
C1939 C 0.83308 0.13388 0.50742 0.0
C1940 C 0.82048 0.15189 0.5194 0.0
C1941 C 0.81888 0.15887 0.58012 0.0
C1942 C 0.85392 0.10241 0.54666 0.0
C1943 C 0.81037 0.16457 0.46763 0.0
C1944 C 0.87001 0.13503 0.35824 0.0
C1945 C 0.85247 0.12741 0.31606 0.0
C1946 C 0.86432 0.13628 0.42116 0.0
C1947 C 0.84075 0.12913 0.44295 0.0
C1948 C 0.8238 0.11987 0.40121 0.0
C1949 C 0.8297 0.11941 0.33788 0.0
C1950 C 0.8828 0.14668 0.46342 0.0
C1951 C 0.79885 0.11137 0.42216 0.0
H1952 H 0.84916 0.12169 0.65528 0.0
H1953 H 0.8098 0.17294 0.58883 0.0
H1954 H 0.8429 0.09386 0.51217 0.0
H1955 H 0.8733 0.10443 0.52801 0.0
H1956 H 0.85526 0.0937 0.58995 0.0
H1957 H 0.80009 0.17776 0.48488 0.0
H1958 H 0.82627 0.1696 0.43806 0.0
H1959 H 0.79733 0.15586 0.43817 0.0
H1960 H 0.88766 0.14122 0.34158 0.0
H1961 H 0.81613 0.11343 0.30535 0.0
H1962 H 0.88763 0.13713 0.50323 0.0
H1963 H 0.87395 0.1603 0.48197 0.0
H1964 H 0.90062 0.15082 0.4395 0.0
H1965 H 0.79885 0.10764 0.47198 0.0
H1966 H 0.79427 0.09785 0.39543 0.0
H1967 H 0.78357 0.12224 0.41333 0.0
C1968 C 0.654 0.89637 0.86915 0.0
C1969 C 0.63123 0.89086 0.84076 0.0
C1970 C 0.65574 0.89746 0.9337 0.0
C1971 C 0.6344 0.89237 0.96994 0.0
C1972 C 0.61064 0.88943 0.94101 0.0
C1973 C 0.60931 0.88894 0.87653 0.0
C1974 C 0.68105 0.90189 0.96275 0.0
C1975 C 0.58732 0.88412 0.9777 0.0
C1976 C 0.64385 0.85684 0.10162 0.0
C1977 C 0.6357 0.86794 0.15248 0.0
C1978 C 0.64457 0.86497 0.04247 0.0
C1979 C 0.63793 0.88504 0.03396 0.0
C1980 C 0.63199 0.89688 0.08584 0.0
C1981 C 0.63058 0.8881 0.1446 0.0
C1982 C 0.65108 0.85167 0.98869 0.0
C1983 C 0.62603 0.91854 0.07936 0.0
H1984 H 0.67088 0.89828 0.8414 0.0
H1985 H 0.59156 0.88505 0.85451 0.0
H1986 H 0.67874 0.90941 0.0079 0.0
H1987 H 0.69144 0.88789 0.97062 0.0
H1988 H 0.69282 0.9113 0.93207 0.0
H1989 H 0.56986 0.88459 0.94912 0.0
H1990 H 0.58944 0.86897 0.99648 0.0
H1991 H 0.58494 0.8943 0.01727 0.0
H1992 H 0.64899 0.84148 0.10775 0.0
H1993 H 0.62464 0.89688 0.18381 0.0
H1994 H 0.66762 0.85763 0.9633 0.0
H1995 H 0.63494 0.85105 0.95595 0.0
H1996 H 0.6556 0.83638 0.00346 0.0
H1997 H 0.63647 0.92529 0.04028 0.0
H1998 H 0.63077 0.92669 0.12232 0.0
H1999 H 0.60546 0.92041 0.07081 0.0
C2000 C 0.67166 0.62331 0.62408 0.0
C2001 C 0.64988 0.63209 0.64882 0.0
C2002 C 0.67365 0.61971 0.56027 0.0
C2003 C 0.65336 0.62501 0.52078 0.0
C2004 C 0.63059 0.63236 0.54656 0.0
C2005 C 0.62918 0.63584 0.61019 0.0
C2006 C 0.69816 0.61171 0.53474 0.0
C2007 C 0.6084 0.63809 0.50643 0.0
C2008 C 0.66414 0.64563 0.36075 0.0
C2009 C 0.65496 0.63041 0.3232 0.0
C2010 C 0.66533 0.64349 0.42496 0.0
C2011 C 0.65687 0.62572 0.45254 0.0
C2012 C 0.64902 0.60983 0.41454 0.0
C2013 C 0.64813 0.61237 0.3501 0.0
C2014 C 0.67419 0.66075 0.46346 0.0
C2015 C 0.64019 0.59058 0.44204 0.0
H2016 H 0.68776 0.62053 0.65388 0.0
H2017 H 0.61231 0.64258 0.62945 0.0
H2018 H 0.69448 0.60055 0.49836 0.0
H2019 H 0.70906 0.6239 0.51329 0.0
H2020 H 0.71004 0.60493 0.57134 0.0
H2021 H 0.59121 0.64146 0.53399 0.0
H2022 H 0.6134 0.65136 0.47902 0.0
H2023 H 0.60385 0.62608 0.47346 0.0
H2024 H 0.66951 0.65958 0.3401 0.0
H2025 H 0.64115 0.60053 0.32109 0.0
H2026 H 0.68882 0.65592 0.49689 0.0
H2027 H 0.65803 0.66673 0.49033 0.0
H2028 H 0.68218 0.67283 0.4348 0.0
H2029 H 0.65329 0.58565 0.47896 0.0
H2030 H 0.63869 0.57875 0.40673 0.0
H2031 H 0.62128 0.59269 0.46334 0.0
C2032 C 0.86855 0.37047 0.91103 0.0
C2033 C 0.88054 0.38457 0.87403 0.0
C2034 C 0.87042 0.37122 0.97532 0.0
C2035 C 0.88428 0.3867 0.00351 0.0
C2036 C 0.89577 0.40139 0.96644 0.0
C2037 C 0.89399 0.40004 0.9018 0.0
C2038 C 0.85802 0.35511 0.01296 0.0
C2039 C 0.91022 0.41831 0.99493 0.0
C2040 C 0.86681 0.3875 0.17185 0.0
C2041 C 0.88481 0.37432 0.19547 0.0
C2042 C 0.86807 0.39378 0.11018 0.0
C2043 C 0.88757 0.38646 0.07161 0.0
C2044 C 0.90741 0.37513 0.09749 0.0
C2045 C 0.90588 0.36933 0.15937 0.0
C2046 C 0.84697 0.40639 0.08477 0.0
C2047 C 0.9286 0.36701 0.05825 0.0
H2048 H 0.85807 0.35854 0.8896 0.0
H2049 H 0.90311 0.41103 0.87307 0.0
H2050 H 0.87253 0.34721 0.04055 0.0
H2051 H 0.84423 0.36161 0.04572 0.0
H2052 H 0.84794 0.34416 0.98374 0.0
H2053 H 0.91507 0.42984 0.96047 0.0
H2054 H 0.89902 0.42516 0.03256 0.0
H2055 H 0.92804 0.41274 0.01564 0.0
H2056 H 0.85053 0.39147 0.19963 0.0
H2057 H 0.92008 0.35943 0.17804 0.0
H2058 H 0.83307 0.39684 0.06061 0.0
H2059 H 0.85434 0.41722 0.05084 0.0
H2060 H 0.83689 0.41445 0.12202 0.0
H2061 H 0.92127 0.35457 0.03011 0.0
H2062 H 0.94458 0.36149 0.08674 0.0
H2063 H 0.93586 0.37838 0.02604 0.0
C2064 C 0.6786 0.34832 0.62902 0.0
C2065 C 0.66426 0.36088 0.66643 0.0
C2066 C 0.67875 0.35058 0.5648 0.0
C2067 C 0.66372 0.3655 0.53742 0.0
C2068 C 0.65049 0.37903 0.57533 0.0
C2069 C 0.65091 0.37654 0.63962 0.0
C2070 C 0.69346 0.33602 0.52615 0.0
C2071 C 0.6343 0.39515 0.54797 0.0
C2072 C 0.67097 0.37178 0.3639 0.0
C2073 C 0.65236 0.35873 0.34243 0.0
C2074 C 0.6744 0.37484 0.42757 0.0
C2075 C 0.65866 0.36473 0.47003 0.0
C2076 C 0.63897 0.3524 0.44805 0.0
C2077 C 0.63616 0.3495 0.38455 0.0
C2078 C 0.69557 0.38807 0.4494 0.0
C2079 C 0.62155 0.34152 0.49166 0.0
H2080 H 0.68886 0.33615 0.64971 0.0
H2081 H 0.63978 0.38626 0.66864 0.0
H2082 H 0.6801 0.32571 0.50326 0.0
H2083 H 0.70418 0.34377 0.48944 0.0
H2084 H 0.70695 0.32724 0.55432 0.0
H2085 H 0.62891 0.40638 0.58294 0.0
H2086 H 0.64431 0.40261 0.50952 0.0
H2087 H 0.61673 0.38858 0.52882 0.0
H2088 H 0.68351 0.37886 0.3311 0.0
H2089 H 0.6216 0.33957 0.36766 0.0
H2090 H 0.71062 0.37897 0.47104 0.0
H2091 H 0.68862 0.39849 0.48504 0.0
H2092 H 0.70409 0.39664 0.41098 0.0
H2093 H 0.63257 0.33054 0.5185 0.0
H2094 H 0.6061 0.33367 0.46701 0.0
H2095 H 0.61296 0.35196 0.52506 0.0
C2096 C 0.84114 0.6129 0.16205 0.0
C2097 C 0.83366 0.63132 0.18503 0.0
C2098 C 0.8413 0.6092 0.09824 0.0
C2099 C 0.83423 0.62442 0.05697 0.0
C2100 C 0.82504 0.64257 0.08048 0.0
C2101 C 0.8249 0.64577 0.14423 0.0
C2102 C 0.85059 0.5895 0.07506 0.0
C2103 C 0.81721 0.65922 0.03823 0.0
C2104 C 0.86676 0.63344 0.90508 0.0
C2105 C 0.84698 0.63012 0.86333 0.0
C2106 C 0.86353 0.62998 0.9682 0.0
C2107 C 0.83994 0.6229 0.99 0.0
C2108 C 0.82079 0.6176 0.94733 0.0
C2109 C 0.82452 0.62134 0.88418 0.0
C2110 C 0.88454 0.63574 0.01196 0.0
C2111 C 0.79562 0.60958 0.96868 0.0
H2112 H 0.84779 0.60165 0.19371 0.0
H2113 H 0.8193 0.66009 0.16187 0.0
H2114 H 0.83914 0.58441 0.0352 0.0
H2115 H 0.87047 0.59099 0.05921 0.0
H2116 H 0.84998 0.57807 0.11174 0.0
H2117 H 0.80865 0.67175 0.06385 0.0
H2118 H 0.83401 0.66475 0.01279 0.0
H2119 H 0.80334 0.6539 0.00361 0.0
H2120 H 0.88424 0.64001 0.8887 0.0
H2121 H 0.80919 0.61876 0.85188 0.0
H2122 H 0.88802 0.62383 0.04597 0.0
H2123 H 0.87887 0.64913 0.03801 0.0
H2124 H 0.90253 0.63894 0.98738 0.0
H2125 H 0.79818 0.5989 0.00696 0.0
H2126 H 0.7852 0.60224 0.93052 0.0
H2127 H 0.78379 0.62189 0.98623 0.0
C2128 C 0.35192 0.38142 0.34649 0.0
C2129 C 0.37261 0.38286 0.30641 0.0
C2130 C 0.35429 0.38654 0.40897 0.0
C2131 C 0.37791 0.39337 0.43154 0.0
C2132 C 0.39803 0.3968 0.38964 0.0
C2133 C 0.39523 0.39125 0.32751 0.0
C2134 C 0.33238 0.3825 0.45187 0.0
C2135 C 0.4233 0.40449 0.41143 0.0
C2136 C 0.37934 0.40914 0.60037 0.0
C2137 C 0.38759 0.39174 0.62903 0.0
C2138 C 0.3771 0.41028 0.53575 0.0
C2139 C 0.38274 0.39349 0.49934 0.0
C2140 C 0.39172 0.37608 0.52821 0.0
C2141 C 0.39424 0.37549 0.59259 0.0
C2142 C 0.36798 0.42921 0.50666 0.0
C2143 C 0.3977 0.35772 0.49135 0.0
H2144 H 0.33462 0.37452 0.33025 0.0
H2145 H 0.41135 0.392 0.29664 0.0
H2146 H 0.33656 0.36915 0.47971 0.0
H2147 H 0.32959 0.39494 0.48438 0.0
H2148 H 0.31444 0.37996 0.42629 0.0
H2149 H 0.43498 0.41003 0.37248 0.0
H2150 H 0.42077 0.41655 0.4455 0.0
H2151 H 0.43386 0.39242 0.43454 0.0
H2152 H 0.37417 0.42174 0.62851 0.0
H2153 H 0.4005 0.36198 0.61462 0.0
H2154 H 0.34866 0.42704 0.48777 0.0
H2155 H 0.38043 0.43342 0.46761 0.0
H2156 H 0.3674 0.44158 0.54028 0.0
H2157 H 0.3804 0.35252 0.46723 0.0
H2158 H 0.40494 0.34553 0.5207 0.0
H2159 H 0.41207 0.36107 0.45555 0.0
C2160 C 0.12145 0.64687 0.12676 0.0
C2161 C 0.13114 0.63329 0.16946 0.0
C2162 C 0.12494 0.64438 0.06307 0.0
C2163 C 0.1382 0.62767 0.04072 0.0
C2164 C 0.14726 0.61345 0.08349 0.0
C2165 C 0.14384 0.61652 0.14749 0.0
C2166 C 0.11526 0.66016 0.0198 0.0
C2167 C 0.16121 0.59531 0.06186 0.0
C2168 C 0.12834 0.62284 0.86719 0.0
C2169 C 0.14889 0.63381 0.84492 0.0
C2170 C 0.12581 0.61888 0.93088 0.0
C2171 C 0.14405 0.62633 0.97308 0.0
C2172 C 0.16596 0.63581 0.94978 0.0
C2173 C 0.16812 0.63934 0.88615 0.0
C2174 C 0.10252 0.60823 0.95341 0.0
C2175 C 0.18589 0.64414 0.99246 0.0
H2176 H 0.11168 0.65991 0.14326 0.0
H2177 H 0.15148 0.606 0.18023 0.0
H2178 H 0.13137 0.66694 0.99468 0.0
H2179 H 0.10245 0.65356 0.98488 0.0
H2180 H 0.10484 0.67202 0.0444 0.0
H2181 H 0.16301 0.58412 0.09904 0.0
H2182 H 0.15139 0.58853 0.02185 0.0
H2183 H 0.18051 0.59951 0.04653 0.0
H2184 H 0.11333 0.61867 0.83565 0.0
H2185 H 0.18399 0.64791 0.86904 0.0
H2186 H 0.08895 0.61909 0.97268 0.0
H2187 H 0.10744 0.59771 0.99076 0.0
H2188 H 0.09294 0.60006 0.91557 0.0
H2189 H 0.17817 0.65731 0.01641 0.0
H2190 H 0.20326 0.64862 0.9672 0.0
H2191 H 0.19116 0.63324 0.02834 0.0
C2192 C 0.36415 0.61471 0.62975 0.0
C2193 C 0.34819 0.63051 0.64479 0.0
C2194 C 0.36689 0.60859 0.56795 0.0
C2195 C 0.35388 0.6189 0.52064 0.0
C2196 C 0.33614 0.63371 0.53659 0.0
C2197 C 0.33318 0.63899 0.59845 0.0
C2198 C 0.38493 0.592 0.55335 0.0
C2199 C 0.32187 0.64527 0.48804 0.0
C2200 C 0.38357 0.63118 0.36734 0.0
C2201 C 0.36647 0.62231 0.32653 0.0
C2202 C 0.38093 0.62887 0.43123 0.0
C2203 C 0.36122 0.61682 0.45468 0.0
C2204 C 0.34571 0.60606 0.41328 0.0
C2205 C 0.34814 0.60927 0.34944 0.0
C2206 C 0.39764 0.64092 0.47346 0.0
C2207 C 0.32573 0.59203 0.43668 0.0
H2208 H 0.3755 0.60788 0.66552 0.0
H2209 H 0.32013 0.65076 0.61028 0.0
H2210 H 0.37893 0.58374 0.5116 0.0
H2211 H 0.40407 0.59814 0.54472 0.0
H2212 H 0.38641 0.58155 0.59266 0.0
H2213 H 0.30838 0.65601 0.50848 0.0
H2214 H 0.33547 0.65351 0.45869 0.0
H2215 H 0.31112 0.63516 0.45755 0.0
H2216 H 0.3978 0.64122 0.34965 0.0
H2217 H 0.33511 0.60219 0.31773 0.0
H2218 H 0.40635 0.63137 0.50907 0.0
H2219 H 0.38601 0.65216 0.49767 0.0
H2220 H 0.41299 0.64863 0.44805 0.0
H2221 H 0.33431 0.58146 0.46973 0.0
H2222 H 0.31661 0.58362 0.39868 0.0
H2223 H 0.31089 0.60027 0.46203 0.0
C2224 C 0.13795 0.34421 0.08474 0.0
C2225 C 0.15643 0.3515 0.12503 0.0
C2226 C 0.13857 0.34887 0.02188 0.0
C2227 C 0.1583 0.36097 0.99887 0.0
C2228 C 0.17617 0.3693 0.03998 0.0
C2229 C 0.175 0.36445 0.10282 0.0
C2230 C 0.11895 0.33991 0.9796 0.0
C2231 C 0.19761 0.38215 0.0175 0.0
C2232 C 0.1743 0.34772 0.83453 0.0
C2233 C 0.16065 0.36195 0.80173 0.0
C2234 C 0.1751 0.34807 0.89901 0.0
C2235 C 0.1616 0.36286 0.93124 0.0
C2236 C 0.14903 0.37797 0.89821 0.0
C2237 C 0.14871 0.37734 0.8335 0.0
C2238 C 0.18931 0.332 0.93263 0.0
C2239 C 0.13475 0.3941 0.93122 0.0
H2240 H 0.12343 0.33438 0.10222 0.0
H2241 H 0.18942 0.36998 0.13398 0.0
H2242 H 0.11048 0.35143 0.9497 0.0
H2243 H 0.12809 0.32888 0.94901 0.0
H2244 H 0.10353 0.33246 0.00553 0.0
H2245 H 0.20467 0.39199 0.05472 0.0
H2246 H 0.21352 0.37258 0.00269 0.0
H2247 H 0.19188 0.39133 0.97751 0.0
H2248 H 0.18363 0.33585 0.8099 0.0
H2249 H 0.13815 0.38837 0.80798 0.0
H2250 H 0.17571 0.32241 0.95761 0.0
H2251 H 0.20224 0.33855 0.96738 0.0
H2252 H 0.20061 0.32265 0.9008 0.0
H2253 H 0.11784 0.38772 0.95417 0.0
H2254 H 0.1284 0.40591 0.89922 0.0
H2255 H 0.14675 0.40079 0.96769 0.0
loop_
_geom_bond_atom_site_label_1
_geom_bond_atom_site_label_2
_geom_bond_distance
_geom_bond_site_symmetry_2
_ccdc_geom_bond_type
O0 Tb1 2.292 . S
O0 C3 1.255 . S
Tb1 O0 2.292 . S
Tb1 O17 2.326 . S
Tb1 O19 2.500 . S
Tb1 O20 2.473 . S
Tb1 O23 2.324 . S
Eu2 O6 2.292 1_554 S
Eu2 C7 2.852 1_554 S
Eu2 O18 2.324 . S
Eu2 O22 2.326 . S
Eu2 O24 2.500 1_554 S
Eu2 O25 2.473 1_554 S
C3 O0 1.255 . S
C3 O4 1.247 . S
O4 C3 1.247 . S
C5 O17 1.242 . S
C5 O18 1.258 . S
O6 Eu2 2.292 1_556 S
O6 C8 1.255 1_556 S
C7 Eu2 2.852 1_556 S
C7 C11 1.503 . S
C7 O24 1.273 . S
C7 O25 1.257 . S
C8 O6 1.255 1_554 S
C8 O9 1.247 . S
O9 C8 1.247 . S
C10 O22 1.242 . S
C10 O23 1.258 . S
C11 C7 1.503 . S
C11 C12 1.379 . S
C11 C16 1.392 . S
C12 C11 1.379 . S
C12 C13 1.404 . S
C12 H26 0.929 . S
C13 C12 1.404 . S
C13 C14 1.389 . S
C14 C13 1.389 . S
C14 C15 1.399 . S
C14 H27 0.931 . S
C15 C14 1.399 . S
C15 C16 1.390 . S
C16 C11 1.392 . S
C16 C15 1.390 . S
C16 H28 0.929 . S
O17 Tb1 2.326 . S
O17 C5 1.242 . S
O18 Eu2 2.324 . S
O18 C5 1.258 . S
O19 Tb1 2.500 . S
O19 C21 1.273 . S
O20 Tb1 2.473 . S
O20 C21 1.257 . S
C21 O19 1.273 . S
C21 O20 1.257 . S
O22 Eu2 2.326 . S
O22 C10 1.242 . S
O23 Tb1 2.324 . S
O23 C10 1.258 . S
O24 Eu2 2.500 1_556 S
O24 C7 1.273 . S
O25 Eu2 2.473 1_556 S
O25 C7 1.257 . S
H26 C12 0.929 . S
H27 C14 0.931 . S
H28 C16 0.929 . S
O29 Tb30 2.292 . S
O29 C32 1.255 . S
Tb30 O29 2.292 . S
Tb30 O46 2.326 . S
Tb30 O48 2.500 . S
Tb30 O49 2.473 . S
Tb30 O52 2.324 . S
Eu31 O35 2.292 . S
Eu31 C36 2.852 . S
Eu31 O47 2.324 . S
Eu31 O51 2.326 . S
Eu31 O53 2.500 . S
Eu31 O54 2.473 . S
C32 O29 1.255 . S
C32 O33 1.247 . S
O33 C32 1.247 . S
C34 O46 1.242 . S
C34 O47 1.258 . S
O35 Eu31 2.292 . S
O35 C37 1.255 . S
C36 Eu31 2.852 . S
C36 C40 1.503 . S
C36 O53 1.273 . S
C36 O54 1.257 . S
C37 O35 1.255 . S
C37 O38 1.247 . S
O38 C37 1.247 . S
C39 O51 1.242 . S
C39 O52 1.258 . S
C40 C36 1.503 . S
C40 C41 1.379 . S
C40 C45 1.392 . S
C41 C40 1.379 . S
C41 C42 1.404 . S
C41 H55 0.929 . S
C42 C41 1.404 . S
C42 C43 1.389 . S
C43 C42 1.389 . S
C43 C44 1.399 . S
C43 H56 0.931 . S
C44 C43 1.399 . S
C44 C45 1.390 . S
C45 C40 1.392 . S
C45 C44 1.390 . S
C45 H57 0.929 . S
O46 Tb30 2.326 . S
O46 C34 1.242 . S
O47 Eu31 2.324 . S
O47 C34 1.258 . S
O48 Tb30 2.500 . S
O48 C50 1.273 . S
O49 Tb30 2.473 . S
O49 C50 1.257 . S
C50 O48 1.273 . S
C50 O49 1.257 . S
O51 Eu31 2.326 . S
O51 C39 1.242 . S
O52 Tb30 2.324 . S
O52 C39 1.258 . S
O53 Eu31 2.500 . S
O53 C36 1.273 . S
O54 Eu31 2.473 . S
O54 C36 1.257 . S
H55 C41 0.929 . S
H56 C43 0.931 . S
H57 C45 0.929 . S
O58 Tb59 2.292 . S
O58 C61 1.255 . S
Tb59 O58 2.292 . S
Tb59 O75 2.326 . S
Tb59 O77 2.500 . S
Tb59 O78 2.473 . S
Tb59 O81 2.324 . S
Eu60 O64 2.292 1_556 S
Eu60 C65 2.852 1_556 S
Eu60 O76 2.324 . S
Eu60 O80 2.326 . S
Eu60 O82 2.500 1_556 S
Eu60 O83 2.473 1_556 S
C61 O58 1.255 . S
C61 O62 1.247 . S
O62 C61 1.247 . S
C63 O75 1.242 . S
C63 O76 1.258 . S
O64 Eu60 2.292 1_554 S
O64 C66 1.255 1_554 S
C65 Eu60 2.852 1_554 S
C65 C69 1.503 . S
C65 O82 1.273 . S
C65 O83 1.257 . S
C66 O64 1.255 1_556 S
C66 O67 1.247 . S
O67 C66 1.247 . S
C68 O80 1.242 . S
C68 O81 1.258 . S
C69 C65 1.503 . S
C69 C70 1.379 . S
C69 C74 1.392 . S
C70 C69 1.379 . S
C70 C71 1.404 . S
C70 H84 0.929 . S
C71 C70 1.404 . S
C71 C72 1.389 . S
C72 C71 1.389 . S
C72 C73 1.399 . S
C72 H85 0.931 . S
C73 C72 1.399 . S
C73 C74 1.390 . S
C74 C69 1.392 . S
C74 C73 1.390 . S
C74 H86 0.929 . S
O75 Tb59 2.326 . S
O75 C63 1.242 . S
O76 Eu60 2.324 . S
O76 C63 1.258 . S
O77 Tb59 2.500 . S
O77 C79 1.273 . S
O78 Tb59 2.473 . S
O78 C79 1.257 . S
C79 O77 1.273 . S
C79 O78 1.257 . S
O80 Eu60 2.326 . S
O80 C68 1.242 . S
O81 Tb59 2.324 . S
O81 C68 1.258 . S
O82 Eu60 2.500 1_554 S
O82 C65 1.273 . S
O83 Eu60 2.473 1_554 S
O83 C65 1.257 . S
H84 C70 0.929 . S
H85 C72 0.931 . S
H86 C74 0.929 . S
O87 Tb88 2.292 . S
O87 C90 1.255 . S
Tb88 O87 2.292 . S
Tb88 O104 2.326 . S
Tb88 O106 2.500 . S
Tb88 O107 2.473 . S
Tb88 O110 2.324 . S
Eu89 O93 2.292 . S
Eu89 C94 2.852 . S
Eu89 O105 2.324 . S
Eu89 O109 2.326 . S
Eu89 O111 2.500 . S
Eu89 O112 2.473 . S
C90 O87 1.255 . S
C90 O91 1.247 . S
O91 C90 1.247 . S
C92 O104 1.242 . S
C92 O105 1.258 . S
O93 Eu89 2.292 . S
O93 C95 1.255 . S
C94 Eu89 2.852 . S
C94 C98 1.503 . S
C94 O111 1.273 . S
C94 O112 1.257 . S
C95 O93 1.255 . S
C95 O96 1.247 . S
O96 C95 1.247 . S
C97 O109 1.242 . S
C97 O110 1.258 . S
C98 C94 1.503 . S
C98 C99 1.379 . S
C98 C103 1.392 . S
C99 C98 1.379 . S
C99 C100 1.404 . S
C99 H113 0.929 . S
C100 C99 1.404 . S
C100 C101 1.389 . S
C101 C100 1.389 . S
C101 C102 1.399 . S
C101 H114 0.931 . S
C102 C101 1.399 . S
C102 C103 1.390 . S
C103 C98 1.392 . S
C103 C102 1.390 . S
C103 H115 0.929 . S
O104 Tb88 2.326 . S
O104 C92 1.242 . S
O105 Eu89 2.324 . S
O105 C92 1.258 . S
O106 Tb88 2.500 . S
O106 C108 1.273 . S
O107 Tb88 2.473 . S
O107 C108 1.257 . S
C108 O106 1.273 . S
C108 O107 1.257 . S
O109 Eu89 2.326 . S
O109 C97 1.242 . S
O110 Tb88 2.324 . S
O110 C97 1.258 . S
O111 Eu89 2.500 . S
O111 C94 1.273 . S
O112 Eu89 2.473 . S
O112 C94 1.257 . S
H113 C99 0.929 . S
H114 C101 0.931 . S
H115 C103 0.929 . S
O116 Tb117 2.292 . S
O116 C119 1.255 . S
Tb117 O116 2.292 . S
Tb117 O133 2.326 . S
Tb117 O135 2.500 . S
Tb117 O136 2.473 . S
Tb117 O139 2.324 . S
Eu118 O122 2.292 1_556 S
Eu118 C123 2.852 1_556 S
Eu118 O134 2.324 . S
Eu118 O138 2.326 . S
Eu118 O140 2.500 1_556 S
Eu118 O141 2.473 1_556 S
C119 O116 1.255 . S
C119 O120 1.247 . S
O120 C119 1.247 . S
C121 O133 1.242 . S
C121 O134 1.258 . S
O122 Eu118 2.292 1_554 S
O122 C124 1.255 1_554 S
C123 Eu118 2.852 1_554 S
C123 C127 1.503 . S
C123 O140 1.273 . S
C123 O141 1.257 . S
C124 O122 1.255 1_556 S
C124 O125 1.247 . S
O125 C124 1.247 . S
C126 O138 1.242 . S
C126 O139 1.258 . S
C127 C123 1.503 . S
C127 C128 1.379 . S
C127 C132 1.392 . S
C128 C127 1.379 . S
C128 C129 1.404 . S
C128 H142 0.929 . S
C129 C128 1.404 . S
C129 C130 1.389 . S
C130 C129 1.389 . S
C130 C131 1.399 . S
C130 H143 0.931 . S
C131 C130 1.399 . S
C131 C132 1.390 . S
C132 C127 1.392 . S
C132 C131 1.390 . S
C132 H144 0.929 . S
O133 Tb117 2.326 . S
O133 C121 1.242 . S
O134 Eu118 2.324 . S
O134 C121 1.258 . S
O135 Tb117 2.500 . S
O135 C137 1.273 . S
O136 Tb117 2.473 . S
O136 C137 1.257 . S
C137 O135 1.273 . S
C137 O136 1.257 . S
O138 Eu118 2.326 . S
O138 C126 1.242 . S
O139 Tb117 2.324 . S
O139 C126 1.258 . S
O140 Eu118 2.500 1_554 S
O140 C123 1.273 . S
O141 Eu118 2.473 1_554 S
O141 C123 1.257 . S
H142 C128 0.929 . S
H143 C130 0.931 . S
H144 C132 0.929 . S
O145 Tb146 2.292 . S
O145 C148 1.255 . S
Tb146 O145 2.292 . S
Tb146 O162 2.326 . S
Tb146 O164 2.500 . S
Tb146 O165 2.473 . S
Tb146 O168 2.324 . S
Eu147 O151 2.292 . S
Eu147 C152 2.852 . S
Eu147 O163 2.324 . S
Eu147 O167 2.326 . S
Eu147 O169 2.500 . S
Eu147 O170 2.473 . S
C148 O145 1.255 . S
C148 O149 1.247 . S
O149 C148 1.247 . S
C150 O162 1.242 . S
C150 O163 1.258 . S
O151 Eu147 2.292 . S
O151 C153 1.255 . S
C152 Eu147 2.852 . S
C152 C156 1.503 . S
C152 O169 1.273 . S
C152 O170 1.257 . S
C153 O151 1.255 . S
C153 O154 1.247 . S
O154 C153 1.247 . S
C155 O167 1.242 . S
C155 O168 1.258 . S
C156 C152 1.503 . S
C156 C157 1.379 . S
C156 C161 1.392 . S
C157 C156 1.379 . S
C157 C158 1.404 . S
C157 H171 0.929 . S
C158 C157 1.404 . S
C158 C159 1.389 . S
C159 C158 1.389 . S
C159 C160 1.399 . S
C159 H172 0.931 . S
C160 C159 1.399 . S
C160 C161 1.390 . S
C161 C156 1.392 . S
C161 C160 1.390 . S
C161 H173 0.929 . S
O162 Tb146 2.326 . S
O162 C150 1.242 . S
O163 Eu147 2.324 . S
O163 C150 1.258 . S
O164 Tb146 2.500 . S
O164 C166 1.273 . S
O165 Tb146 2.473 . S
O165 C166 1.257 . S
C166 O164 1.273 . S
C166 O165 1.257 . S
O167 Eu147 2.326 . S
O167 C155 1.242 . S
O168 Tb146 2.324 . S
O168 C155 1.258 . S
O169 Eu147 2.500 . S
O169 C152 1.273 . S
O170 Eu147 2.473 . S
O170 C152 1.257 . S
H171 C157 0.929 . S
H172 C159 0.931 . S
H173 C161 0.929 . S
O174 Tb175 2.292 . S
O174 C177 1.255 . S
Tb175 O174 2.292 . S
Tb175 O191 2.326 . S
Tb175 O193 2.500 . S
Tb175 O194 2.473 . S
Tb175 O197 2.324 . S
Eu176 O180 2.292 1_554 S
Eu176 C181 2.852 1_554 S
Eu176 O192 2.324 . S
Eu176 O196 2.326 . S
Eu176 O198 2.500 1_554 S
Eu176 O199 2.473 1_554 S
C177 O174 1.255 . S
C177 O178 1.247 . S
O178 C177 1.247 . S
C179 O191 1.242 . S
C179 O192 1.258 . S
O180 Eu176 2.292 1_556 S
O180 C182 1.255 1_556 S
C181 Eu176 2.852 1_556 S
C181 C185 1.503 . S
C181 O198 1.273 . S
C181 O199 1.257 . S
C182 O180 1.255 1_554 S
C182 O183 1.247 . S
O183 C182 1.247 . S
C184 O196 1.242 . S
C184 O197 1.258 . S
C185 C181 1.503 . S
C185 C186 1.379 . S
C185 C190 1.392 . S
C186 C185 1.379 . S
C186 C187 1.404 . S
C186 H200 0.929 . S
C187 C186 1.404 . S
C187 C188 1.389 . S
C188 C187 1.389 . S
C188 C189 1.399 . S
C188 H201 0.931 . S
C189 C188 1.399 . S
C189 C190 1.390 . S
C190 C185 1.392 . S
C190 C189 1.390 . S
C190 H202 0.929 . S
O191 Tb175 2.326 . S
O191 C179 1.242 . S
O192 Eu176 2.324 . S
O192 C179 1.258 . S
O193 Tb175 2.500 . S
O193 C195 1.273 . S
O194 Tb175 2.473 . S
O194 C195 1.257 . S
C195 O193 1.273 . S
C195 O194 1.257 . S
O196 Eu176 2.326 . S
O196 C184 1.242 . S
O197 Tb175 2.324 . S
O197 C184 1.258 . S
O198 Eu176 2.500 1_556 S
O198 C181 1.273 . S
O199 Eu176 2.473 1_556 S
O199 C181 1.257 . S
H200 C186 0.929 . S
H201 C188 0.931 . S
H202 C190 0.929 . S
O203 Tb204 2.292 . S
O203 C206 1.255 . S
Tb204 O203 2.292 . S
Tb204 O220 2.326 . S
Tb204 O222 2.500 . S
Tb204 O223 2.473 . S
Tb204 O226 2.324 . S
Eu205 O209 2.292 . S
Eu205 C210 2.852 . S
Eu205 O221 2.324 . S
Eu205 O225 2.326 . S
Eu205 O227 2.500 . S
Eu205 O228 2.473 . S
C206 O203 1.255 . S
C206 O207 1.247 . S
O207 C206 1.247 . S
C208 O220 1.242 . S
C208 O221 1.258 . S
O209 Eu205 2.292 . S
O209 C211 1.255 . S
C210 Eu205 2.852 . S
C210 C214 1.503 . S
C210 O227 1.273 . S
C210 O228 1.257 . S
C211 O209 1.255 . S
C211 O212 1.247 . S
O212 C211 1.247 . S
C213 O225 1.242 . S
C213 O226 1.258 . S
C214 C210 1.503 . S
C214 C215 1.379 . S
C214 C219 1.392 . S
C215 C214 1.379 . S
C215 C216 1.404 . S
C215 H229 0.929 . S
C216 C215 1.404 . S
C216 C217 1.389 . S
C217 C216 1.389 . S
C217 C218 1.399 . S
C217 H230 0.931 . S
C218 C217 1.399 . S
C218 C219 1.390 . S
C219 C214 1.392 . S
C219 C218 1.390 . S
C219 H231 0.929 . S
O220 Tb204 2.326 . S
O220 C208 1.242 . S
O221 Eu205 2.324 . S
O221 C208 1.258 . S
O222 Tb204 2.500 . S
O222 C224 1.273 . S
O223 Tb204 2.473 . S
O223 C224 1.257 . S
C224 O222 1.273 . S
C224 O223 1.257 . S
O225 Eu205 2.326 . S
O225 C213 1.242 . S
O226 Tb204 2.324 . S
O226 C213 1.258 . S
O227 Eu205 2.500 . S
O227 C210 1.273 . S
O228 Eu205 2.473 . S
O228 C210 1.257 . S
H229 C215 0.929 . S
H230 C217 0.931 . S
H231 C219 0.929 . S
O232 Tb233 2.292 . S
O232 C235 1.255 . S
Tb233 O232 2.292 . S
Tb233 O249 2.326 . S
Tb233 O251 2.500 . S
Tb233 O252 2.473 . S
Tb233 O255 2.324 . S
Eu234 O238 2.292 1_554 S
Eu234 C239 2.852 1_554 S
Eu234 O250 2.324 . S
Eu234 O254 2.326 . S
Eu234 O256 2.500 1_554 S
Eu234 O257 2.473 1_554 S
C235 O232 1.255 . S
C235 O236 1.247 . S
O236 C235 1.247 . S
C237 O249 1.242 . S
C237 O250 1.258 . S
O238 Eu234 2.292 1_556 S
O238 C240 1.255 1_556 S
C239 Eu234 2.852 1_556 S
C239 C243 1.503 . S
C239 O256 1.273 . S
C239 O257 1.257 . S
C240 O238 1.255 1_554 S
C240 O241 1.247 . S
O241 C240 1.247 . S
C242 O254 1.242 . S
C242 O255 1.258 . S
C243 C239 1.503 . S
C243 C244 1.379 . S
C243 C248 1.392 . S
C244 C243 1.379 . S
C244 C245 1.404 . S
C244 H258 0.929 . S
C245 C244 1.404 . S
C245 C246 1.389 . S
C246 C245 1.389 . S
C246 C247 1.399 . S
C246 H259 0.931 . S
C247 C246 1.399 . S
C247 C248 1.390 . S
C248 C243 1.392 . S
C248 C247 1.390 . S
C248 H260 0.929 . S
O249 Tb233 2.326 . S
O249 C237 1.242 . S
O250 Eu234 2.324 . S
O250 C237 1.258 . S
O251 Tb233 2.500 . S
O251 C253 1.273 . S
O252 Tb233 2.473 . S
O252 C253 1.257 . S
C253 O251 1.273 . S
C253 O252 1.257 . S
O254 Eu234 2.326 . S
O254 C242 1.242 . S
O255 Tb233 2.324 . S
O255 C242 1.258 . S
O256 Eu234 2.500 1_556 S
O256 C239 1.273 . S
O257 Eu234 2.473 1_556 S
O257 C239 1.257 . S
H258 C244 0.929 . S
H259 C246 0.931 . S
H260 C248 0.929 . S
O261 Tb262 2.292 . S
O261 C264 1.255 . S
Tb262 O261 2.292 . S
Tb262 O278 2.326 . S
Tb262 O280 2.500 . S
Tb262 O281 2.473 . S
Tb262 O284 2.324 . S
Eu263 O267 2.292 . S
Eu263 C268 2.852 . S
Eu263 O279 2.324 . S
Eu263 O283 2.326 . S
Eu263 O285 2.500 . S
Eu263 O286 2.473 . S
C264 O261 1.255 . S
C264 O265 1.247 . S
O265 C264 1.247 . S
C266 O278 1.242 . S
C266 O279 1.258 . S
O267 Eu263 2.292 . S
O267 C269 1.255 . S
C268 Eu263 2.852 . S
C268 C272 1.503 . S
C268 O285 1.273 . S
C268 O286 1.257 . S
C269 O267 1.255 . S
C269 O270 1.247 . S
O270 C269 1.247 . S
C271 O283 1.242 . S
C271 O284 1.258 . S
C272 C268 1.503 . S
C272 C273 1.379 . S
C272 C277 1.392 . S
C273 C272 1.379 . S
C273 C274 1.404 . S
C273 H287 0.929 . S
C274 C273 1.404 . S
C274 C275 1.389 . S
C275 C274 1.389 . S
C275 C276 1.399 . S
C275 H288 0.931 . S
C276 C275 1.399 . S
C276 C277 1.390 . S
C277 C272 1.392 . S
C277 C276 1.390 . S
C277 H289 0.929 . S
O278 Tb262 2.326 . S
O278 C266 1.242 . S
O279 Eu263 2.324 . S
O279 C266 1.258 . S
O280 Tb262 2.500 . S
O280 C282 1.273 . S
O281 Tb262 2.473 . S
O281 C282 1.257 . S
C282 O280 1.273 . S
C282 O281 1.257 . S
O283 Eu263 2.326 . S
O283 C271 1.242 . S
O284 Tb262 2.324 . S
O284 C271 1.258 . S
O285 Eu263 2.500 . S
O285 C268 1.273 . S
O286 Eu263 2.473 . S
O286 C268 1.257 . S
H287 C273 0.929 . S
H288 C275 0.931 . S
H289 C277 0.929 . S
O290 Tb291 2.292 . S
O290 C293 1.255 . S
Tb291 O290 2.292 . S
Tb291 O307 2.326 . S
Tb291 O309 2.500 . S
Tb291 O310 2.473 . S
Tb291 O313 2.324 . S
Eu292 O296 2.292 1_556 S
Eu292 C297 2.852 1_556 S
Eu292 O308 2.324 . S
Eu292 O312 2.326 . S
Eu292 O314 2.500 1_556 S
Eu292 O315 2.473 1_556 S
C293 O290 1.255 . S
C293 O294 1.247 . S
O294 C293 1.247 . S
C295 O307 1.242 . S
C295 O308 1.258 . S
O296 Eu292 2.292 1_554 S
O296 C298 1.255 1_554 S
C297 Eu292 2.852 1_554 S
C297 C301 1.503 . S
C297 O314 1.273 . S
C297 O315 1.257 . S
C298 O296 1.255 1_556 S
C298 O299 1.247 . S
O299 C298 1.247 . S
C300 O312 1.242 . S
C300 O313 1.258 . S
C301 C297 1.503 . S
C301 C302 1.379 . S
C301 C306 1.392 . S
C302 C301 1.379 . S
C302 C303 1.404 . S
C302 H316 0.929 . S
C303 C302 1.404 . S
C303 C304 1.389 . S
C304 C303 1.389 . S
C304 C305 1.399 . S
C304 H317 0.931 . S
C305 C304 1.399 . S
C305 C306 1.390 . S
C306 C301 1.392 . S
C306 C305 1.390 . S
C306 H318 0.929 . S
O307 Tb291 2.326 . S
O307 C295 1.242 . S
O308 Eu292 2.324 . S
O308 C295 1.258 . S
O309 Tb291 2.500 . S
O309 C311 1.273 . S
O310 Tb291 2.473 . S
O310 C311 1.257 . S
C311 O309 1.273 . S
C311 O310 1.257 . S
O312 Eu292 2.326 . S
O312 C300 1.242 . S
O313 Tb291 2.324 . S
O313 C300 1.258 . S
O314 Eu292 2.500 1_554 S
O314 C297 1.273 . S
O315 Eu292 2.473 1_554 S
O315 C297 1.257 . S
H316 C302 0.929 . S
H317 C304 0.931 . S
H318 C306 0.929 . S
O319 Tb320 2.292 . S
O319 C322 1.255 . S
Tb320 O319 2.292 . S
Tb320 O336 2.326 . S
Tb320 O338 2.500 . S
Tb320 O339 2.473 . S
Tb320 O342 2.324 . S
Eu321 O325 2.292 . S
Eu321 C326 2.852 . S
Eu321 O337 2.324 . S
Eu321 O341 2.326 . S
Eu321 O343 2.500 . S
Eu321 O344 2.473 . S
C322 O319 1.255 . S
C322 O323 1.247 . S
O323 C322 1.247 . S
C324 O336 1.242 . S
C324 O337 1.258 . S
O325 Eu321 2.292 . S
O325 C327 1.255 . S
C326 Eu321 2.852 . S
C326 C330 1.503 . S
C326 O343 1.273 . S
C326 O344 1.257 . S
C327 O325 1.255 . S
C327 O328 1.247 . S
O328 C327 1.247 . S
C329 O341 1.242 . S
C329 O342 1.258 . S
C330 C326 1.503 . S
C330 C331 1.379 . S
C330 C335 1.392 . S
C331 C330 1.379 . S
C331 C332 1.404 . S
C331 H345 0.929 . S
C332 C331 1.404 . S
C332 C333 1.389 . S
C333 C332 1.389 . S
C333 C334 1.399 . S
C333 H346 0.931 . S
C334 C333 1.399 . S
C334 C335 1.390 . S
C335 C330 1.392 . S
C335 C334 1.390 . S
C335 H347 0.929 . S
O336 Tb320 2.326 . S
O336 C324 1.242 . S
O337 Eu321 2.324 . S
O337 C324 1.258 . S
O338 Tb320 2.500 . S
O338 C340 1.273 . S
O339 Tb320 2.473 . S
O339 C340 1.257 . S
C340 O338 1.273 . S
C340 O339 1.257 . S
O341 Eu321 2.326 . S
O341 C329 1.242 . S
O342 Tb320 2.324 . S
O342 C329 1.258 . S
O343 Eu321 2.500 . S
O343 C326 1.273 . S
O344 Eu321 2.473 . S
O344 C326 1.257 . S
H345 C331 0.929 . S
H346 C333 0.931 . S
H347 C335 0.929 . S
O348 Tb349 2.292 . S
O348 C351 1.255 . S
Tb349 O348 2.292 . S
Tb349 O365 2.326 . S
Tb349 O367 2.500 . S
Tb349 O368 2.473 . S
Tb349 O371 2.324 . S
Eu350 O354 2.292 1_556 S
Eu350 C355 2.852 1_556 S
Eu350 O366 2.324 . S
Eu350 O370 2.326 . S
Eu350 O372 2.500 1_556 S
Eu350 O373 2.473 1_556 S
C351 O348 1.255 . S
C351 O352 1.247 . S
O352 C351 1.247 . S
C353 O365 1.242 . S
C353 O366 1.258 . S
O354 Eu350 2.292 1_554 S
O354 C356 1.255 1_554 S
C355 Eu350 2.852 1_554 S
C355 C359 1.503 . S
C355 O372 1.273 . S
C355 O373 1.257 . S
C356 O354 1.255 1_556 S
C356 O357 1.247 . S
O357 C356 1.247 . S
C358 O370 1.242 . S
C358 O371 1.258 . S
C359 C355 1.503 . S
C359 C360 1.379 . S
C359 C364 1.392 . S
C360 C359 1.379 . S
C360 C361 1.404 . S
C360 H374 0.929 . S
C361 C360 1.404 . S
C361 C362 1.389 . S
C362 C361 1.389 . S
C362 C363 1.399 . S
C362 H375 0.931 . S
C363 C362 1.399 . S
C363 C364 1.390 . S
C364 C359 1.392 . S
C364 C363 1.390 . S
C364 H376 0.929 . S
O365 Tb349 2.326 . S
O365 C353 1.242 . S
O366 Eu350 2.324 . S
O366 C353 1.258 . S
O367 Tb349 2.500 . S
O367 C369 1.273 . S
O368 Tb349 2.473 . S
O368 C369 1.257 . S
C369 O367 1.273 . S
C369 O368 1.257 . S
O370 Eu350 2.326 . S
O370 C358 1.242 . S
O371 Tb349 2.324 . S
O371 C358 1.258 . S
O372 Eu350 2.500 1_554 S
O372 C355 1.273 . S
O373 Eu350 2.473 1_554 S
O373 C355 1.257 . S
H374 C360 0.929 . S
H375 C362 0.931 . S
H376 C364 0.929 . S
O377 Tb378 2.292 . S
O377 C380 1.255 . S
Tb378 O377 2.292 . S
Tb378 O394 2.326 . S
Tb378 O396 2.500 . S
Tb378 O397 2.473 . S
Tb378 O400 2.324 . S
Eu379 O383 2.292 . S
Eu379 C384 2.852 . S
Eu379 O395 2.324 . S
Eu379 O399 2.326 . S
Eu379 O401 2.500 . S
Eu379 O402 2.473 . S
C380 O377 1.255 . S
C380 O381 1.247 . S
O381 C380 1.247 . S
C382 O394 1.242 . S
C382 O395 1.258 . S
O383 Eu379 2.292 . S
O383 C385 1.255 . S
C384 Eu379 2.852 . S
C384 C388 1.503 . S
C384 O401 1.273 . S
C384 O402 1.257 . S
C385 O383 1.255 . S
C385 O386 1.247 . S
O386 C385 1.247 . S
C387 O399 1.242 . S
C387 O400 1.258 . S
C388 C384 1.503 . S
C388 C389 1.379 . S
C388 C393 1.392 . S
C389 C388 1.379 . S
C389 C390 1.404 . S
C389 H403 0.929 . S
C390 C389 1.404 . S
C390 C391 1.389 . S
C391 C390 1.389 . S
C391 C392 1.399 . S
C391 H404 0.931 . S
C392 C391 1.399 . S
C392 C393 1.390 . S
C393 C388 1.392 . S
C393 C392 1.390 . S
C393 H405 0.929 . S
O394 Tb378 2.326 . S
O394 C382 1.242 . S
O395 Eu379 2.324 . S
O395 C382 1.258 . S
O396 Tb378 2.500 . S
O396 C398 1.273 . S
O397 Tb378 2.473 . S
O397 C398 1.257 . S
C398 O396 1.273 . S
C398 O397 1.257 . S
O399 Eu379 2.326 . S
O399 C387 1.242 . S
O400 Tb378 2.324 . S
O400 C387 1.258 . S
O401 Eu379 2.500 . S
O401 C384 1.273 . S
O402 Eu379 2.473 . S
O402 C384 1.257 . S
H403 C389 0.929 . S
H404 C391 0.931 . S
H405 C393 0.929 . S
O406 Tb407 2.292 . S
O406 C409 1.255 . S
Tb407 O406 2.292 . S
Tb407 O423 2.326 . S
Tb407 O425 2.500 . S
Tb407 O426 2.473 . S
Tb407 O429 2.324 . S
Eu408 O412 2.292 1_554 S
Eu408 C413 2.852 1_554 S
Eu408 O424 2.324 . S
Eu408 O428 2.326 . S
Eu408 O430 2.500 1_554 S
Eu408 O431 2.473 1_554 S
C409 O406 1.255 . S
C409 O410 1.247 . S
O410 C409 1.247 . S
C411 O423 1.242 . S
C411 O424 1.258 . S
O412 Eu408 2.292 1_556 S
O412 C414 1.255 1_556 S
C413 Eu408 2.852 1_556 S
C413 C417 1.503 . S
C413 O430 1.273 . S
C413 O431 1.257 . S
C414 O412 1.255 1_554 S
C414 O415 1.247 . S
O415 C414 1.247 . S
C416 O428 1.242 . S
C416 O429 1.258 . S
C417 C413 1.503 . S
C417 C418 1.379 . S
C417 C422 1.392 . S
C418 C417 1.379 . S
C418 C419 1.404 . S
C418 H432 0.929 . S
C419 C418 1.404 . S
C419 C420 1.389 . S
C420 C419 1.389 . S
C420 C421 1.399 . S
C420 H433 0.931 . S
C421 C420 1.399 . S
C421 C422 1.390 . S
C422 C417 1.392 . S
C422 C421 1.390 . S
C422 H434 0.929 . S
O423 Tb407 2.326 . S
O423 C411 1.242 . S
O424 Eu408 2.324 . S
O424 C411 1.258 . S
O425 Tb407 2.500 . S
O425 C427 1.273 . S
O426 Tb407 2.473 . S
O426 C427 1.257 . S
C427 O425 1.273 . S
C427 O426 1.257 . S
O428 Eu408 2.326 . S
O428 C416 1.242 . S
O429 Tb407 2.324 . S
O429 C416 1.258 . S
O430 Eu408 2.500 1_556 S
O430 C413 1.273 . S
O431 Eu408 2.473 1_556 S
O431 C413 1.257 . S
H432 C418 0.929 . S
H433 C420 0.931 . S
H434 C422 0.929 . S
O435 Tb436 2.292 . S
O435 C438 1.255 . S
Tb436 O435 2.292 . S
Tb436 O452 2.326 . S
Tb436 O454 2.500 . S
Tb436 O455 2.473 . S
Tb436 O458 2.324 . S
Eu437 O441 2.292 . S
Eu437 C442 2.852 . S
Eu437 O453 2.324 . S
Eu437 O457 2.326 . S
Eu437 O459 2.500 . S
Eu437 O460 2.473 . S
C438 O435 1.255 . S
C438 O439 1.247 . S
O439 C438 1.247 . S
C440 O452 1.242 . S
C440 O453 1.258 . S
O441 Eu437 2.292 . S
O441 C443 1.255 . S
C442 Eu437 2.852 . S
C442 C446 1.503 . S
C442 O459 1.273 . S
C442 O460 1.257 . S
C443 O441 1.255 . S
C443 O444 1.247 . S
O444 C443 1.247 . S
C445 O457 1.242 . S
C445 O458 1.258 . S
C446 C442 1.503 . S
C446 C447 1.379 . S
C446 C451 1.392 . S
C447 C446 1.379 . S
C447 C448 1.404 . S
C447 H461 0.929 . S
C448 C447 1.404 . S
C448 C449 1.389 . S
C449 C448 1.389 . S
C449 C450 1.399 . S
C449 H462 0.931 . S
C450 C449 1.399 . S
C450 C451 1.390 . S
C451 C446 1.392 . S
C451 C450 1.390 . S
C451 H463 0.929 . S
O452 Tb436 2.326 . S
O452 C440 1.242 . S
O453 Eu437 2.324 . S
O453 C440 1.258 . S
O454 Tb436 2.500 . S
O454 C456 1.273 . S
O455 Tb436 2.473 . S
O455 C456 1.257 . S
C456 O454 1.273 . S
C456 O455 1.257 . S
O457 Eu437 2.326 . S
O457 C445 1.242 . S
O458 Tb436 2.324 . S
O458 C445 1.258 . S
O459 Eu437 2.500 . S
O459 C442 1.273 . S
O460 Eu437 2.473 . S
O460 C442 1.257 . S
H461 C447 0.929 . S
H462 C449 0.931 . S
H463 C451 0.929 . S
C464 C465 1.391 1_556 S
C464 C466 1.395 . S
C464 H480 0.931 . S
C465 C464 1.391 1_554 S
C465 C469 1.376 . S
C466 C464 1.395 . S
C466 C467 1.361 1_556 S
C466 C470 1.537 . S
C467 C466 1.361 1_554 S
C467 C468 1.410 . S
C467 C475 1.503 1_655 S
C468 C467 1.410 . S
C468 C469 1.392 . S
C468 C471 1.511 . S
C469 C465 1.376 . S
C469 C468 1.392 . S
C469 H481 0.929 . S
C470 C466 1.537 . S
C470 H482 0.960 1_655 S
C470 H483 0.962 . S
C470 H484 0.960 . S
C471 C468 1.511 . S
C471 H485 0.961 . S
C471 H486 0.961 1_655 S
C471 H487 0.961 . S
C472 C473 1.370 1_556 S
C472 C474 1.363 . S
C472 H488 0.931 . S
C473 C472 1.370 1_554 S
C473 C477 1.408 . S
C474 C472 1.363 . S
C474 C475 1.370 1_556 S
C474 C478 1.524 . S
C475 C467 1.503 1_455 S
C475 C474 1.370 1_554 S
C475 C476 1.403 . S
C476 C475 1.403 . S
C476 C477 1.404 . S
C476 C479 1.539 . S
C477 C473 1.408 . S
C477 C476 1.404 . S
C477 H489 0.930 . S
C478 C474 1.524 . S
C478 H490 0.956 . S
C478 H491 0.961 1_455 S
C478 H492 0.961 . S
C479 C476 1.539 . S
C479 H493 0.958 . S
C479 H494 0.961 . S
C479 H495 0.971 . S
H480 C464 0.931 . S
H481 C469 0.929 . S
H482 C470 0.960 1_455 S
H483 C470 0.962 . S
H484 C470 0.960 . S
H485 C471 0.961 . S
H486 C471 0.961 1_455 S
H487 C471 0.961 . S
H488 C472 0.931 . S
H489 C477 0.930 . S
H490 C478 0.956 . S
H491 C478 0.961 1_655 S
H492 C478 0.961 . S
H493 C479 0.958 . S
H494 C479 0.961 . S
H495 C479 0.971 . S
C496 C497 1.391 . S
C496 C498 1.394 . S
C496 H512 0.931 . S
C497 C496 1.391 . S
C497 C501 1.376 . S
C498 C496 1.394 . S
C498 C499 1.369 . S
C498 C502 1.531 . S
C499 C498 1.369 . S
C499 C500 1.410 . S
C499 C507 1.503 . S
C500 C499 1.410 . S
C500 C501 1.392 . S
C500 C503 1.511 . S
C501 C497 1.376 . S
C501 C500 1.392 . S
C501 H513 0.929 . S
C502 C498 1.531 . S
C502 H514 0.960 . S
C502 H515 0.962 . S
C502 H516 0.960 . S
C503 C500 1.511 . S
C503 H517 0.961 . S
C503 H518 0.961 . S
C503 H519 0.961 . S
C504 C505 1.370 . S
C504 C506 1.363 . S
C504 H520 0.931 . S
C505 C504 1.370 . S
C505 C509 1.408 . S
C506 C504 1.363 . S
C506 C507 1.370 . S
C506 C510 1.524 . S
C507 C499 1.503 . S
C507 C506 1.370 . S
C507 C508 1.403 . S
C508 C507 1.403 . S
C508 C509 1.404 . S
C508 C511 1.539 . S
C509 C505 1.408 . S
C509 C508 1.404 . S
C509 H521 0.930 . S
C510 C506 1.524 . S
C510 H522 0.956 . S
C510 H523 0.961 . S
C510 H524 0.961 . S
C511 C508 1.539 . S
C511 H525 0.958 . S
C511 H526 0.961 . S
C511 H527 0.960 . S
H512 C496 0.931 . S
H513 C501 0.929 . S
H514 C502 0.960 . S
H515 C502 0.962 . S
H516 C502 0.960 . S
H517 C503 0.961 . S
H518 C503 0.961 . S
H519 C503 0.961 . S
H520 C504 0.931 . S
H521 C509 0.930 . S
H522 C510 0.956 . S
H523 C510 0.961 . S
H524 C510 0.961 . S
H525 C511 0.958 . S
H526 C511 0.961 . S
H527 C511 0.960 . S
C528 C529 1.391 . S
C528 C530 1.394 . S
C528 H544 0.931 . S
C529 C528 1.391 . S
C529 C533 1.376 1_556 S
C530 C528 1.394 . S
C530 C531 1.369 . S
C530 C534 1.531 . S
C531 C530 1.369 . S
C531 C532 1.410 1_556 S
C531 C539 1.503 1_655 S
C532 C531 1.410 1_554 S
C532 C533 1.392 . S
C532 C535 1.511 . S
C533 C529 1.376 1_554 S
C533 C532 1.392 . S
C533 H545 0.929 . S
C534 C530 1.531 . S
C534 H546 0.960 1_655 S
C534 H547 0.962 . S
C534 H548 0.960 . S
C535 C532 1.511 . S
C535 H549 0.961 . S
C535 H550 0.961 1_655 S
C535 H551 0.961 . S
C536 C537 1.370 1_554 S
C536 C538 1.363 . S
C536 H552 0.931 . S
C537 C536 1.370 1_556 S
C537 C541 1.408 . S
C538 C536 1.363 . S
C538 C539 1.370 1_554 S
C538 C542 1.524 . S
C539 C531 1.503 1_455 S
C539 C538 1.370 1_556 S
C539 C540 1.403 . S
C540 C539 1.403 . S
C540 C541 1.404 . S
C540 C543 1.539 . S
C541 C537 1.408 . S
C541 C540 1.404 . S
C541 H553 0.930 . S
C542 C538 1.524 . S
C542 H554 0.956 . S
C542 H555 0.961 1_455 S
C542 H556 0.961 . S
C543 C540 1.539 . S
C543 H557 0.958 . S
C543 H558 0.961 . S
C543 H559 0.971 . S
H544 C528 0.931 . S
H545 C533 0.929 . S
H546 C534 0.960 1_455 S
H547 C534 0.962 . S
H548 C534 0.960 . S
H549 C535 0.961 . S
H550 C535 0.961 1_455 S
H551 C535 0.961 . S
H552 C536 0.931 . S
H553 C541 0.930 . S
H554 C542 0.956 . S
H555 C542 0.961 1_655 S
H556 C542 0.961 . S
H557 C543 0.958 . S
H558 C543 0.961 . S
H559 C543 0.971 . S
C560 C561 1.391 . S
C560 C562 1.394 . S
C560 H576 0.931 . S
C561 C560 1.391 . S
C561 C565 1.376 . S
C562 C560 1.394 . S
C562 C563 1.369 . S
C562 C566 1.531 . S
C563 C562 1.369 . S
C563 C564 1.410 . S
C563 C571 1.503 . S
C564 C563 1.410 . S
C564 C565 1.392 . S
C564 C567 1.511 . S
C565 C561 1.376 . S
C565 C564 1.392 . S
C565 H577 0.929 . S
C566 C562 1.531 . S
C566 H578 0.960 . S
C566 H579 0.962 . S
C566 H580 0.960 . S
C567 C564 1.511 . S
C567 H581 0.961 . S
C567 H582 0.961 . S
C567 H583 0.961 . S
C568 C569 1.370 . S
C568 C570 1.363 . S
C568 H584 0.931 . S
C569 C568 1.370 . S
C569 C573 1.408 . S
C570 C568 1.363 . S
C570 C571 1.370 . S
C570 C574 1.524 . S
C571 C563 1.503 . S
C571 C570 1.370 . S
C571 C572 1.403 . S
C572 C571 1.403 . S
C572 C573 1.404 . S
C572 C575 1.539 . S
C573 C569 1.408 . S
C573 C572 1.404 . S
C573 H585 0.930 . S
C574 C570 1.524 . S
C574 H586 0.956 . S
C574 H587 0.961 . S
C574 H588 0.961 . S
C575 C572 1.539 . S
C575 H589 0.958 . S
C575 H590 0.961 . S
C575 H591 0.960 . S
H576 C560 0.931 . S
H577 C565 0.929 . S
H578 C566 0.960 . S
H579 C566 0.962 . S
H580 C566 0.960 . S
H581 C567 0.961 . S
H582 C567 0.961 . S
H583 C567 0.961 . S
H584 C568 0.931 . S
H585 C573 0.930 . S
H586 C574 0.956 . S
H587 C574 0.961 . S
H588 C574 0.961 . S
H589 C575 0.958 . S
H590 C575 0.961 . S
H591 C575 0.960 . S
C592 C593 1.391 . S
C592 C594 1.394 . S
C592 H608 0.931 . S
C593 C592 1.391 . S
C593 C597 1.376 1_554 S
C594 C592 1.394 . S
C594 C595 1.369 . S
C594 C598 1.531 . S
C595 C594 1.369 . S
C595 C596 1.410 1_554 S
C595 C603 1.503 . S
C596 C595 1.410 1_556 S
C596 C597 1.392 . S
C596 C599 1.511 . S
C597 C593 1.376 1_556 S
C597 C596 1.392 . S
C597 H609 0.929 . S
C598 C594 1.531 . S
C598 H610 0.960 . S
C598 H611 0.962 . S
C598 H612 0.960 . S
C599 C596 1.511 . S
C599 H613 0.961 . S
C599 H614 0.961 . S
C599 H615 0.961 . S
C600 C601 1.370 . S
C600 C602 1.363 . S
C600 H616 0.931 . S
C601 C600 1.370 . S
C601 C605 1.408 . S
C602 C600 1.363 . S
C602 C603 1.370 . S
C602 C606 1.524 . S
C603 C595 1.503 . S
C603 C602 1.370 . S
C603 C604 1.403 . S
C604 C603 1.403 . S
C604 C605 1.404 . S
C604 C607 1.539 . S
C605 C601 1.408 . S
C605 C604 1.404 . S
C605 H617 0.930 . S
C606 C602 1.524 . S
C606 H618 0.956 . S
C606 H619 0.961 1_554 S
C606 H620 0.961 1_554 S
C607 C604 1.539 . S
C607 H621 0.958 . S
C607 H622 0.961 . S
C607 H623 0.960 . S
H608 C592 0.931 . S
H609 C597 0.929 . S
H610 C598 0.960 . S
H611 C598 0.962 . S
H612 C598 0.960 . S
H613 C599 0.961 . S
H614 C599 0.961 . S
H615 C599 0.961 . S
H616 C600 0.931 . S
H617 C605 0.930 . S
H618 C606 0.956 . S
H619 C606 0.961 1_556 S
H620 C606 0.961 1_556 S
H621 C607 0.958 . S
H622 C607 0.961 . S
H623 C607 0.960 . S
C624 C625 1.391 . S
C624 C626 1.394 . S
C624 H640 0.931 . S
C625 C624 1.391 . S
C625 C629 1.376 . S
C626 C624 1.394 . S
C626 C627 1.369 . S
C626 C630 1.531 . S
C627 C626 1.369 . S
C627 C628 1.410 . S
C627 C635 1.503 1_455 S
C628 C627 1.410 . S
C628 C629 1.392 . S
C628 C631 1.511 . S
C629 C625 1.376 . S
C629 C628 1.392 . S
C629 H641 0.929 . S
C630 C626 1.531 . S
C630 H642 0.960 1_455 S
C630 H643 0.962 . S
C630 H644 0.960 . S
C631 C628 1.511 . S
C631 H645 0.961 . S
C631 H646 0.961 1_455 S
C631 H647 0.961 . S
C632 C633 1.370 . S
C632 C634 1.363 . S
C632 H648 0.931 . S
C633 C632 1.370 . S
C633 C637 1.408 . S
C634 C632 1.363 . S
C634 C635 1.370 . S
C634 C638 1.524 . S
C635 C627 1.503 1_655 S
C635 C634 1.370 . S
C635 C636 1.403 . S
C636 C635 1.403 . S
C636 C637 1.404 . S
C636 C639 1.539 . S
C637 C633 1.408 . S
C637 C636 1.404 . S
C637 H649 0.930 . S
C638 C634 1.524 . S
C638 H650 0.956 . S
C638 H651 0.961 1_655 S
C638 H652 0.961 . S
C639 C636 1.539 . S
C639 H653 0.958 . S
C639 H654 0.961 . S
C639 H655 0.971 . S
H640 C624 0.931 . S
H641 C629 0.929 . S
H642 C630 0.960 1_655 S
H643 C630 0.962 . S
H644 C630 0.960 . S
H645 C631 0.961 . S
H646 C631 0.961 1_655 S
H647 C631 0.961 . S
H648 C632 0.931 . S
H649 C637 0.930 . S
H650 C638 0.956 . S
H651 C638 0.961 1_455 S
H652 C638 0.961 . S
H653 C639 0.958 . S
H654 C639 0.961 . S
H655 C639 0.971 . S
C656 C657 1.391 . S
C656 C658 1.394 . S
C656 H672 0.931 . S
C657 C656 1.391 . S
C657 C661 1.376 1_556 S
C658 C656 1.394 . S
C658 C659 1.369 . S
C658 C662 1.531 . S
C659 C658 1.369 . S
C659 C660 1.410 1_556 S
C659 C667 1.503 . S
C660 C659 1.410 1_554 S
C660 C661 1.392 . S
C660 C663 1.511 . S
C661 C657 1.376 1_554 S
C661 C660 1.392 . S
C661 H673 0.929 . S
C662 C658 1.531 . S
C662 H674 0.960 . S
C662 H675 0.962 . S
C662 H676 0.960 . S
C663 C660 1.511 . S
C663 H677 0.961 . S
C663 H678 0.961 . S
C663 H679 0.961 . S
C664 C665 1.370 . S
C664 C666 1.363 . S
C664 H680 0.928 1_556 S
C665 C664 1.370 . S
C665 C669 1.408 . S
C666 C664 1.363 . S
C666 C667 1.370 . S
C666 C670 1.524 1_556 S
C667 C659 1.503 . S
C667 C666 1.370 . S
C667 C668 1.403 . S
C668 C667 1.403 . S
C668 C669 1.404 . S
C668 C671 1.539 . S
C669 C665 1.408 . S
C669 C668 1.404 . S
C669 H681 0.930 . S
C670 C666 1.524 1_554 S
C670 H682 0.956 1_554 S
C670 H683 0.961 . S
C670 H684 0.961 . S
C671 C668 1.539 . S
C671 H685 0.958 . S
C671 H686 0.961 . S
C671 H687 0.960 . S
H672 C656 0.931 . S
H673 C661 0.929 . S
H674 C662 0.960 . S
H675 C662 0.962 . S
H676 C662 0.960 . S
H677 C663 0.961 . S
H678 C663 0.961 . S
H679 C663 0.961 . S
H680 C664 0.928 1_554 S
H681 C669 0.930 . S
H682 C670 0.956 1_556 S
H683 C670 0.961 . S
H684 C670 0.961 . S
H685 C671 0.958 . S
H686 C671 0.961 . S
H687 C671 0.960 . S
C688 C689 1.391 . S
C688 C690 1.394 . S
C688 H704 0.931 . S
C689 C688 1.391 . S
C689 C693 1.376 . S
C690 C688 1.394 . S
C690 C691 1.369 . S
C690 C694 1.531 . S
C691 C690 1.369 . S
C691 C692 1.410 . S
C691 C699 1.503 1_455 S
C692 C691 1.410 . S
C692 C693 1.392 . S
C692 C695 1.511 . S
C693 C689 1.376 . S
C693 C692 1.392 . S
C693 H705 0.929 . S
C694 C690 1.531 . S
C694 H706 0.960 1_455 S
C694 H707 0.962 . S
C694 H708 0.960 . S
C695 C692 1.511 . S
C695 H709 0.961 . S
C695 H710 0.961 1_455 S
C695 H711 0.961 . S
C696 C697 1.370 . S
C696 C698 1.363 . S
C696 H712 0.931 . S
C697 C696 1.370 . S
C697 C701 1.408 . S
C698 C696 1.363 . S
C698 C699 1.370 . S
C698 C702 1.524 . S
C699 C691 1.503 1_655 S
C699 C698 1.370 . S
C699 C700 1.403 . S
C700 C699 1.403 . S
C700 C701 1.404 . S
C700 C703 1.539 . S
C701 C697 1.408 . S
C701 C700 1.404 . S
C701 H713 0.930 . S
C702 C698 1.524 . S
C702 H714 0.956 . S
C702 H715 0.961 1_655 S
C702 H716 0.961 . S
C703 C700 1.539 . S
C703 H717 0.958 . S
C703 H718 0.961 . S
C703 H719 0.971 . S
H704 C688 0.931 . S
H705 C693 0.929 . S
H706 C694 0.960 1_655 S
H707 C694 0.962 . S
H708 C694 0.960 . S
H709 C695 0.961 . S
H710 C695 0.961 1_655 S
H711 C695 0.961 . S
H712 C696 0.931 . S
H713 C701 0.930 . S
H714 C702 0.956 . S
H715 C702 0.961 1_455 S
H716 C702 0.961 . S
H717 C703 0.958 . S
H718 C703 0.961 . S
H719 C703 0.971 . S
C720 C721 1.391 . S
C720 C722 1.394 . S
C720 H736 0.931 . S
C721 C720 1.391 . S
C721 C725 1.376 . S
C722 C720 1.394 . S
C722 C723 1.369 . S
C722 C726 1.531 . S
C723 C722 1.369 . S
C723 C724 1.410 . S
C723 C731 1.503 . S
C724 C723 1.410 . S
C724 C725 1.392 . S
C724 C727 1.511 . S
C725 C721 1.376 . S
C725 C724 1.392 . S
C725 H737 0.929 . S
C726 C722 1.531 . S
C726 H738 0.960 . S
C726 H739 0.962 . S
C726 H740 0.960 . S
C727 C724 1.511 . S
C727 H741 0.961 . S
C727 H742 0.961 . S
C727 H743 0.961 . S
C728 C729 1.370 . S
C728 C730 1.363 . S
C728 H744 0.931 . S
C729 C728 1.370 . S
C729 C733 1.408 . S
C730 C728 1.363 . S
C730 C731 1.370 . S
C730 C734 1.524 . S
C731 C723 1.503 . S
C731 C730 1.370 . S
C731 C732 1.403 . S
C732 C731 1.403 . S
C732 C733 1.404 . S
C732 C735 1.539 . S
C733 C729 1.408 . S
C733 C732 1.404 . S
C733 H745 0.930 . S
C734 C730 1.524 . S
C734 H746 0.956 . S
C734 H747 0.961 . S
C734 H748 0.961 . S
C735 C732 1.539 . S
C735 H749 0.958 . S
C735 H750 0.961 . S
C735 H751 0.960 . S
H736 C720 0.931 . S
H737 C725 0.929 . S
H738 C726 0.960 . S
H739 C726 0.962 . S
H740 C726 0.960 . S
H741 C727 0.961 . S
H742 C727 0.961 . S
H743 C727 0.961 . S
H744 C728 0.931 . S
H745 C733 0.930 . S
H746 C734 0.956 . S
H747 C734 0.961 . S
H748 C734 0.961 . S
H749 C735 0.958 . S
H750 C735 0.961 . S
H751 C735 0.960 . S
C752 C753 1.391 . S
C752 C754 1.394 . S
C752 H768 0.931 . S
C753 C752 1.391 . S
C753 C757 1.376 . S
C754 C752 1.394 . S
C754 C755 1.369 . S
C754 C758 1.531 . S
C755 C754 1.369 . S
C755 C756 1.410 . S
C755 C763 1.503 . S
C756 C755 1.410 . S
C756 C757 1.392 . S
C756 C759 1.511 . S
C757 C753 1.376 . S
C757 C756 1.392 . S
C757 H769 0.929 . S
C758 C754 1.531 . S
C758 H770 0.960 . S
C758 H771 0.962 . S
C758 H772 0.960 . S
C759 C756 1.511 . S
C759 H773 0.961 . S
C759 H774 0.961 . S
C759 H775 0.961 . S
C760 C761 1.370 . S
C760 C762 1.363 . S
C760 H776 0.931 . S
C761 C760 1.370 . S
C761 C765 1.408 . S
C762 C760 1.363 . S
C762 C763 1.370 . S
C762 C766 1.524 . S
C763 C755 1.503 . S
C763 C762 1.370 . S
C763 C764 1.403 . S
C764 C763 1.403 . S
C764 C765 1.404 . S
C764 C767 1.539 . S
C765 C761 1.408 . S
C765 C764 1.404 . S
C765 H777 0.930 . S
C766 C762 1.524 . S
C766 H778 0.956 . S
C766 H779 0.961 . S
C766 H780 0.961 . S
C767 C764 1.539 . S
C767 H781 0.958 . S
C767 H782 0.961 . S
C767 H783 0.960 . S
H768 C752 0.931 . S
H769 C757 0.929 . S
H770 C758 0.960 . S
H771 C758 0.962 . S
H772 C758 0.960 . S
H773 C759 0.961 . S
H774 C759 0.961 . S
H775 C759 0.961 . S
H776 C760 0.931 . S
H777 C765 0.930 . S
H778 C766 0.956 . S
H779 C766 0.961 . S
H780 C766 0.961 . S
H781 C767 0.958 . S
H782 C767 0.961 . S
H783 C767 0.960 . S
C784 C785 1.391 . S
C784 C786 1.394 . S
C784 H800 0.931 . S
C785 C784 1.391 . S
C785 C789 1.376 . S
C786 C784 1.394 . S
C786 C787 1.369 . S
C786 C790 1.531 . S
C787 C786 1.369 . S
C787 C788 1.410 . S
C787 C795 1.503 . S
C788 C787 1.410 . S
C788 C789 1.392 . S
C788 C791 1.511 . S
C789 C785 1.376 . S
C789 C788 1.392 . S
C789 H801 0.929 . S
C790 C786 1.531 . S
C790 H802 0.960 . S
C790 H803 0.962 . S
C790 H804 0.960 . S
C791 C788 1.511 . S
C791 H805 0.961 . S
C791 H806 0.961 . S
C791 H807 0.961 . S
C792 C793 1.370 . S
C792 C794 1.363 . S
C792 H808 0.931 . S
C793 C792 1.370 . S
C793 C797 1.408 . S
C794 C792 1.363 . S
C794 C795 1.370 . S
C794 C798 1.524 . S
C795 C787 1.503 . S
C795 C794 1.370 . S
C795 C796 1.403 . S
C796 C795 1.403 . S
C796 C797 1.404 . S
C796 C799 1.539 . S
C797 C793 1.408 . S
C797 C796 1.404 . S
C797 H809 0.930 . S
C798 C794 1.524 . S
C798 H810 0.956 . S
C798 H811 0.961 . S
C798 H812 0.961 . S
C799 C796 1.539 . S
C799 H813 0.958 . S
C799 H814 0.961 . S
C799 H815 0.960 . S
H800 C784 0.931 . S
H801 C789 0.929 . S
H802 C790 0.960 . S
H803 C790 0.962 . S
H804 C790 0.960 . S
H805 C791 0.961 . S
H806 C791 0.961 . S
H807 C791 0.961 . S
H808 C792 0.931 . S
H809 C797 0.930 . S
H810 C798 0.956 . S
H811 C798 0.961 . S
H812 C798 0.961 . S
H813 C799 0.958 . S
H814 C799 0.961 . S
H815 C799 0.960 . S
C816 C817 1.391 . S
C816 C818 1.394 . S
C816 H832 0.931 . S
C817 C816 1.391 . S
C817 C821 1.376 . S
C818 C816 1.394 . S
C818 C819 1.369 . S
C818 C822 1.531 . S
C819 C818 1.369 . S
C819 C820 1.410 . S
C819 C827 1.503 . S
C820 C819 1.410 . S
C820 C821 1.392 . S
C820 C823 1.511 . S
C821 C817 1.376 . S
C821 C820 1.392 . S
C821 H833 0.929 . S
C822 C818 1.531 . S
C822 H834 0.960 . S
C822 H835 0.962 . S
C822 H836 0.960 . S
C823 C820 1.511 . S
C823 H837 0.961 . S
C823 H838 0.961 . S
C823 H839 0.961 . S
C824 C825 1.370 . S
C824 C826 1.363 . S
C824 H840 0.931 . S
C825 C824 1.370 . S
C825 C829 1.408 . S
C826 C824 1.363 . S
C826 C827 1.370 . S
C826 C830 1.524 . S
C827 C819 1.503 . S
C827 C826 1.370 . S
C827 C828 1.403 . S
C828 C827 1.403 . S
C828 C829 1.404 . S
C828 C831 1.539 . S
C829 C825 1.408 . S
C829 C828 1.404 . S
C829 H841 0.930 . S
C830 C826 1.524 . S
C830 H842 0.956 . S
C830 H843 0.961 . S
C830 H844 0.961 . S
C831 C828 1.539 . S
C831 H845 0.958 . S
C831 H846 0.961 . S
C831 H847 0.960 . S
H832 C816 0.931 . S
H833 C821 0.929 . S
H834 C822 0.960 . S
H835 C822 0.962 . S
H836 C822 0.960 . S
H837 C823 0.961 . S
H838 C823 0.961 . S
H839 C823 0.961 . S
H840 C824 0.931 . S
H841 C829 0.930 . S
H842 C830 0.956 . S
H843 C830 0.961 . S
H844 C830 0.961 . S
H845 C831 0.958 . S
H846 C831 0.961 . S
H847 C831 0.960 . S
C848 C849 1.391 . S
C848 C850 1.394 . S
C848 H864 0.931 . S
C849 C848 1.391 . S
C849 C853 1.376 . S
C850 C848 1.394 . S
C850 C851 1.369 . S
C850 C854 1.531 . S
C851 C850 1.369 . S
C851 C852 1.410 . S
C851 C859 1.503 . S
C852 C851 1.410 . S
C852 C853 1.392 . S
C852 C855 1.511 . S
C853 C849 1.376 . S
C853 C852 1.392 . S
C853 H865 0.929 . S
C854 C850 1.531 . S
C854 H866 0.960 . S
C854 H867 0.962 . S
C854 H868 0.960 . S
C855 C852 1.511 . S
C855 H869 0.961 . S
C855 H870 0.961 . S
C855 H871 0.961 . S
C856 C857 1.370 . S
C856 C858 1.363 . S
C856 H872 0.931 . S
C857 C856 1.370 . S
C857 C861 1.408 . S
C858 C856 1.363 . S
C858 C859 1.370 . S
C858 C862 1.524 . S
C859 C851 1.503 . S
C859 C858 1.370 . S
C859 C860 1.403 . S
C860 C859 1.403 . S
C860 C861 1.404 . S
C860 C863 1.539 . S
C861 C857 1.408 . S
C861 C860 1.404 . S
C861 H873 0.930 . S
C862 C858 1.524 . S
C862 H874 0.956 . S
C862 H875 0.961 . S
C862 H876 0.961 . S
C863 C860 1.539 . S
C863 H877 0.958 . S
C863 H878 0.961 . S
C863 H879 0.960 . S
H864 C848 0.931 . S
H865 C853 0.929 . S
H866 C854 0.960 . S
H867 C854 0.962 . S
H868 C854 0.960 . S
H869 C855 0.961 . S
H870 C855 0.961 . S
H871 C855 0.961 . S
H872 C856 0.931 . S
H873 C861 0.930 . S
H874 C862 0.956 . S
H875 C862 0.961 . S
H876 C862 0.961 . S
H877 C863 0.958 . S
H878 C863 0.961 . S
H879 C863 0.960 . S
C880 C881 1.391 . S
C880 C882 1.394 . S
C880 H896 0.931 . S
C881 C880 1.391 . S
C881 C885 1.376 . S
C882 C880 1.394 . S
C882 C883 1.369 . S
C882 C886 1.531 . S
C883 C882 1.369 . S
C883 C884 1.410 . S
C883 C891 1.503 . S
C884 C883 1.410 . S
C884 C885 1.392 . S
C884 C887 1.511 . S
C885 C881 1.376 . S
C885 C884 1.392 . S
C885 H897 0.929 . S
C886 C882 1.531 . S
C886 H898 0.960 . S
C886 H899 0.962 . S
C886 H900 0.960 . S
C887 C884 1.511 . S
C887 H901 0.961 . S
C887 H902 0.961 . S
C887 H903 0.961 . S
C888 C889 1.370 . S
C888 C890 1.363 . S
C888 H904 0.931 . S
C889 C888 1.370 . S
C889 C893 1.408 . S
C890 C888 1.363 . S
C890 C891 1.370 . S
C890 C894 1.524 . S
C891 C883 1.503 . S
C891 C890 1.370 . S
C891 C892 1.403 . S
C892 C891 1.403 . S
C892 C893 1.404 . S
C892 C895 1.539 . S
C893 C889 1.408 . S
C893 C892 1.404 . S
C893 H905 0.930 . S
C894 C890 1.524 . S
C894 H906 0.956 . S
C894 H907 0.961 . S
C894 H908 0.961 . S
C895 C892 1.539 . S
C895 H909 0.958 . S
C895 H910 0.961 . S
C895 H911 0.960 . S
H896 C880 0.931 . S
H897 C885 0.929 . S
H898 C886 0.960 . S
H899 C886 0.962 . S
H900 C886 0.960 . S
H901 C887 0.961 . S
H902 C887 0.961 . S
H903 C887 0.961 . S
H904 C888 0.931 . S
H905 C893 0.930 . S
H906 C894 0.956 . S
H907 C894 0.961 . S
H908 C894 0.961 . S
H909 C895 0.958 . S
H910 C895 0.961 . S
H911 C895 0.960 . S
C912 C913 1.391 . S
C912 C914 1.394 . S
C912 H928 0.931 . S
C913 C912 1.391 . S
C913 C917 1.376 . S
C914 C912 1.394 . S
C914 C915 1.369 . S
C914 C918 1.531 . S
C915 C914 1.369 . S
C915 C916 1.410 . S
C915 C923 1.503 . S
C916 C915 1.410 . S
C916 C917 1.392 . S
C916 C919 1.511 . S
C917 C913 1.376 . S
C917 C916 1.392 . S
C917 H929 0.929 . S
C918 C914 1.531 . S
C918 H930 0.960 . S
C918 H931 0.962 . S
C918 H932 0.960 . S
C919 C916 1.511 . S
C919 H933 0.961 . S
C919 H934 0.961 . S
C919 H935 0.961 . S
C920 C921 1.370 . S
C920 C922 1.363 . S
C920 H936 0.931 . S
C921 C920 1.370 . S
C921 C925 1.408 . S
C922 C920 1.363 . S
C922 C923 1.370 . S
C922 C926 1.524 . S
C923 C915 1.503 . S
C923 C922 1.370 . S
C923 C924 1.403 . S
C924 C923 1.403 . S
C924 C925 1.404 . S
C924 C927 1.539 . S
C925 C921 1.408 . S
C925 C924 1.404 . S
C925 H937 0.930 . S
C926 C922 1.524 . S
C926 H938 0.956 . S
C926 H939 0.961 . S
C926 H940 0.961 . S
C927 C924 1.539 . S
C927 H941 0.958 . S
C927 H942 0.961 . S
C927 H943 0.960 . S
H928 C912 0.931 . S
H929 C917 0.929 . S
H930 C918 0.960 . S
H931 C918 0.962 . S
H932 C918 0.960 . S
H933 C919 0.961 . S
H934 C919 0.961 . S
H935 C919 0.961 . S
H936 C920 0.931 . S
H937 C925 0.930 . S
H938 C926 0.956 . S
H939 C926 0.961 . S
H940 C926 0.961 . S
H941 C927 0.958 . S
H942 C927 0.961 . S
H943 C927 0.960 . S
C944 C945 1.391 . S
C944 C946 1.394 . S
C944 H960 0.931 . S
C945 C944 1.391 . S
C945 C949 1.376 . S
C946 C944 1.394 . S
C946 C947 1.369 . S
C946 C950 1.531 . S
C947 C946 1.369 . S
C947 C948 1.410 . S
C947 C955 1.503 . S
C948 C947 1.410 . S
C948 C949 1.392 . S
C948 C951 1.511 . S
C949 C945 1.376 . S
C949 C948 1.392 . S
C949 H961 0.929 . S
C950 C946 1.531 . S
C950 H962 0.960 . S
C950 H963 0.962 . S
C950 H964 0.960 . S
C951 C948 1.511 . S
C951 H965 0.961 . S
C951 H966 0.961 . S
C951 H967 0.961 . S
C952 C953 1.370 . S
C952 C954 1.363 . S
C952 H968 0.931 . S
C953 C952 1.370 . S
C953 C957 1.408 . S
C954 C952 1.363 . S
C954 C955 1.370 . S
C954 C958 1.524 . S
C955 C947 1.503 . S
C955 C954 1.370 . S
C955 C956 1.403 . S
C956 C955 1.403 . S
C956 C957 1.404 . S
C956 C959 1.539 . S
C957 C953 1.408 . S
C957 C956 1.404 . S
C957 H969 0.930 . S
C958 C954 1.524 . S
C958 H970 0.956 . S
C958 H971 0.961 . S
C958 H972 0.961 . S
C959 C956 1.539 . S
C959 H973 0.958 . S
C959 H974 0.961 . S
C959 H975 0.960 . S
H960 C944 0.931 . S
H961 C949 0.929 . S
H962 C950 0.960 . S
H963 C950 0.962 . S
H964 C950 0.960 . S
H965 C951 0.961 . S
H966 C951 0.961 . S
H967 C951 0.961 . S
H968 C952 0.931 . S
H969 C957 0.930 . S
H970 C958 0.956 . S
H971 C958 0.961 . S
H972 C958 0.961 . S
H973 C959 0.958 . S
H974 C959 0.961 . S
H975 C959 0.960 . S
C976 C977 1.391 . S
C976 C978 1.394 . S
C976 H992 0.931 . S
C977 C976 1.391 . S
C977 C981 1.376 . S
C978 C976 1.394 . S
C978 C979 1.369 . S
C978 C982 1.531 . S
C979 C978 1.369 . S
C979 C980 1.410 . S
C979 C987 1.503 . S
C980 C979 1.410 . S
C980 C981 1.392 . S
C980 C983 1.511 . S
C981 C977 1.376 . S
C981 C980 1.392 . S
C981 H993 0.929 . S
C982 C978 1.531 . S
C982 H994 0.960 . S
C982 H995 0.962 . S
C982 H996 0.960 . S
C983 C980 1.511 . S
C983 H997 0.961 . S
C983 H998 0.961 . S
C983 H999 0.961 . S
C984 C985 1.370 . S
C984 C986 1.363 . S
C984 H1000 0.931 . S
C985 C984 1.370 . S
C985 C989 1.408 . S
C986 C984 1.363 . S
C986 C987 1.370 . S
C986 C990 1.524 . S
C987 C979 1.503 . S
C987 C986 1.370 . S
C987 C988 1.403 . S
C988 C987 1.403 . S
C988 C989 1.404 . S
C988 C991 1.539 . S
C989 C985 1.408 . S
C989 C988 1.404 . S
C989 H1001 0.930 . S
C990 C986 1.524 . S
C990 H1002 0.956 . S
C990 H1003 0.961 . S
C990 H1004 0.961 . S
C991 C988 1.539 . S
C991 H1005 0.958 . S
C991 H1006 0.961 . S
C991 H1007 0.960 . S
H992 C976 0.931 . S
H993 C981 0.929 . S
H994 C982 0.960 . S
H995 C982 0.962 . S
H996 C982 0.960 . S
H997 C983 0.961 . S
H998 C983 0.961 . S
H999 C983 0.961 . S
H1000 C984 0.931 . S
H1001 C989 0.930 . S
H1002 C990 0.956 . S
H1003 C990 0.961 . S
H1004 C990 0.961 . S
H1005 C991 0.958 . S
H1006 C991 0.961 . S
H1007 C991 0.960 . S
C1008 C1009 1.391 . S
C1008 C1010 1.394 . S
C1008 H1024 0.931 . S
C1009 C1008 1.391 . S
C1009 C1013 1.376 . S
C1010 C1008 1.394 . S
C1010 C1011 1.369 . S
C1010 C1014 1.531 . S
C1011 C1010 1.369 . S
C1011 C1012 1.410 . S
C1011 C1019 1.503 . S
C1012 C1011 1.410 . S
C1012 C1013 1.392 . S
C1012 C1015 1.511 . S
C1013 C1009 1.376 . S
C1013 C1012 1.392 . S
C1013 H1025 0.929 . S
C1014 C1010 1.531 . S
C1014 H1026 0.960 . S
C1014 H1027 0.962 . S
C1014 H1028 0.960 . S
C1015 C1012 1.511 . S
C1015 H1029 0.961 . S
C1015 H1030 0.961 . S
C1015 H1031 0.961 . S
C1016 C1017 1.370 . S
C1016 C1018 1.363 . S
C1016 H1032 0.931 . S
C1017 C1016 1.370 . S
C1017 C1021 1.408 . S
C1018 C1016 1.363 . S
C1018 C1019 1.370 . S
C1018 C1022 1.524 . S
C1019 C1011 1.503 . S
C1019 C1018 1.370 . S
C1019 C1020 1.403 . S
C1020 C1019 1.403 . S
C1020 C1021 1.404 . S
C1020 C1023 1.539 . S
C1021 C1017 1.408 . S
C1021 C1020 1.404 . S
C1021 H1033 0.930 . S
C1022 C1018 1.524 . S
C1022 H1034 0.956 . S
C1022 H1035 0.961 . S
C1022 H1036 0.961 . S
C1023 C1020 1.539 . S
C1023 H1037 0.958 . S
C1023 H1038 0.961 . S
C1023 H1039 0.960 . S
H1024 C1008 0.931 . S
H1025 C1013 0.929 . S
H1026 C1014 0.960 . S
H1027 C1014 0.962 . S
H1028 C1014 0.960 . S
H1029 C1015 0.961 . S
H1030 C1015 0.961 . S
H1031 C1015 0.961 . S
H1032 C1016 0.931 . S
H1033 C1021 0.930 . S
H1034 C1022 0.956 . S
H1035 C1022 0.961 . S
H1036 C1022 0.961 . S
H1037 C1023 0.958 . S
H1038 C1023 0.961 . S
H1039 C1023 0.960 . S
C1040 C1041 1.391 . S
C1040 C1042 1.394 . S
C1040 H1056 0.931 . S
C1041 C1040 1.391 . S
C1041 C1045 1.376 . S
C1042 C1040 1.394 . S
C1042 C1043 1.369 . S
C1042 C1046 1.531 . S
C1043 C1042 1.369 . S
C1043 C1044 1.410 . S
C1043 C1051 1.503 . S
C1044 C1043 1.410 . S
C1044 C1045 1.392 . S
C1044 C1047 1.511 . S
C1045 C1041 1.376 . S
C1045 C1044 1.392 . S
C1045 H1057 0.929 . S
C1046 C1042 1.531 . S
C1046 H1058 0.960 . S
C1046 H1059 0.962 . S
C1046 H1060 0.960 . S
C1047 C1044 1.511 . S
C1047 H1061 0.961 . S
C1047 H1062 0.961 . S
C1047 H1063 0.961 . S
C1048 C1049 1.370 . S
C1048 C1050 1.363 . S
C1048 H1064 0.931 . S
C1049 C1048 1.370 . S
C1049 C1053 1.408 . S
C1050 C1048 1.363 . S
C1050 C1051 1.370 . S
C1050 C1054 1.524 . S
C1051 C1043 1.503 . S
C1051 C1050 1.370 . S
C1051 C1052 1.403 . S
C1052 C1051 1.403 . S
C1052 C1053 1.404 . S
C1052 C1055 1.539 . S
C1053 C1049 1.408 . S
C1053 C1052 1.404 . S
C1053 H1065 0.930 . S
C1054 C1050 1.524 . S
C1054 H1066 0.956 . S
C1054 H1067 0.961 . S
C1054 H1068 0.961 . S
C1055 C1052 1.539 . S
C1055 H1069 0.958 . S
C1055 H1070 0.961 . S
C1055 H1071 0.960 . S
H1056 C1040 0.931 . S
H1057 C1045 0.929 . S
H1058 C1046 0.960 . S
H1059 C1046 0.962 . S
H1060 C1046 0.960 . S
H1061 C1047 0.961 . S
H1062 C1047 0.961 . S
H1063 C1047 0.961 . S
H1064 C1048 0.931 . S
H1065 C1053 0.930 . S
H1066 C1054 0.956 . S
H1067 C1054 0.961 . S
H1068 C1054 0.961 . S
H1069 C1055 0.958 . S
H1070 C1055 0.961 . S
H1071 C1055 0.960 . S
C1072 C1073 1.391 . S
C1072 C1074 1.394 . S
C1072 H1088 0.931 . S
C1073 C1072 1.391 . S
C1073 C1077 1.376 . S
C1074 C1072 1.394 . S
C1074 C1075 1.369 . S
C1074 C1078 1.531 . S
C1075 C1074 1.369 . S
C1075 C1076 1.410 . S
C1075 C1083 1.503 . S
C1076 C1075 1.410 . S
C1076 C1077 1.392 . S
C1076 C1079 1.511 . S
C1077 C1073 1.376 . S
C1077 C1076 1.392 . S
C1077 H1089 0.929 . S
C1078 C1074 1.531 . S
C1078 H1090 0.960 . S
C1078 H1091 0.962 . S
C1078 H1092 0.960 . S
C1079 C1076 1.511 . S
C1079 H1093 0.961 . S
C1079 H1094 0.961 . S
C1079 H1095 0.961 . S
C1080 C1081 1.370 . S
C1080 C1082 1.363 . S
C1080 H1096 0.931 . S
C1081 C1080 1.370 . S
C1081 C1085 1.408 . S
C1082 C1080 1.363 . S
C1082 C1083 1.370 . S
C1082 C1086 1.524 . S
C1083 C1075 1.503 . S
C1083 C1082 1.370 . S
C1083 C1084 1.403 . S
C1084 C1083 1.403 . S
C1084 C1085 1.404 . S
C1084 C1087 1.539 . S
C1085 C1081 1.408 . S
C1085 C1084 1.404 . S
C1085 H1097 0.930 . S
C1086 C1082 1.524 . S
C1086 H1098 0.956 . S
C1086 H1099 0.961 . S
C1086 H1100 0.961 . S
C1087 C1084 1.539 . S
C1087 H1101 0.958 . S
C1087 H1102 0.961 . S
C1087 H1103 0.960 . S
H1088 C1072 0.931 . S
H1089 C1077 0.929 . S
H1090 C1078 0.960 . S
H1091 C1078 0.962 . S
H1092 C1078 0.960 . S
H1093 C1079 0.961 . S
H1094 C1079 0.961 . S
H1095 C1079 0.961 . S
H1096 C1080 0.931 . S
H1097 C1085 0.930 . S
H1098 C1086 0.956 . S
H1099 C1086 0.961 . S
H1100 C1086 0.961 . S
H1101 C1087 0.958 . S
H1102 C1087 0.961 . S
H1103 C1087 0.960 . S
C1104 C1105 1.391 . S
C1104 C1106 1.394 . S
C1104 H1120 0.931 . S
C1105 C1104 1.391 . S
C1105 C1109 1.376 . S
C1106 C1104 1.394 . S
C1106 C1107 1.369 . S
C1106 C1110 1.531 . S
C1107 C1106 1.369 . S
C1107 C1108 1.410 . S
C1107 C1115 1.503 . S
C1108 C1107 1.410 . S
C1108 C1109 1.392 . S
C1108 C1111 1.511 . S
C1109 C1105 1.376 . S
C1109 C1108 1.392 . S
C1109 H1121 0.929 . S
C1110 C1106 1.531 . S
C1110 H1122 0.960 . S
C1110 H1123 0.962 . S
C1110 H1124 0.960 . S
C1111 C1108 1.511 . S
C1111 H1125 0.961 . S
C1111 H1126 0.961 . S
C1111 H1127 0.961 . S
C1112 C1113 1.370 . S
C1112 C1114 1.363 . S
C1112 H1128 0.931 . S
C1113 C1112 1.370 . S
C1113 C1117 1.408 . S
C1114 C1112 1.363 . S
C1114 C1115 1.370 . S
C1114 C1118 1.524 . S
C1115 C1107 1.503 . S
C1115 C1114 1.370 . S
C1115 C1116 1.403 . S
C1116 C1115 1.403 . S
C1116 C1117 1.404 . S
C1116 C1119 1.539 . S
C1117 C1113 1.408 . S
C1117 C1116 1.404 . S
C1117 H1129 0.930 . S
C1118 C1114 1.524 . S
C1118 H1130 0.956 . S
C1118 H1131 0.961 . S
C1118 H1132 0.961 . S
C1119 C1116 1.539 . S
C1119 H1133 0.958 . S
C1119 H1134 0.961 . S
C1119 H1135 0.960 . S
H1120 C1104 0.931 . S
H1121 C1109 0.929 . S
H1122 C1110 0.960 . S
H1123 C1110 0.962 . S
H1124 C1110 0.960 . S
H1125 C1111 0.961 . S
H1126 C1111 0.961 . S
H1127 C1111 0.961 . S
H1128 C1112 0.931 . S
H1129 C1117 0.930 . S
H1130 C1118 0.956 . S
H1131 C1118 0.961 . S
H1132 C1118 0.961 . S
H1133 C1119 0.958 . S
H1134 C1119 0.961 . S
H1135 C1119 0.960 . S
C1136 C1137 1.391 . S
C1136 C1138 1.394 . S
C1136 H1152 0.931 . S
C1137 C1136 1.391 . S
C1137 C1141 1.376 . S
C1138 C1136 1.394 . S
C1138 C1139 1.369 . S
C1138 C1142 1.531 . S
C1139 C1138 1.369 . S
C1139 C1140 1.410 . S
C1139 C1147 1.503 . S
C1140 C1139 1.410 . S
C1140 C1141 1.392 . S
C1140 C1143 1.511 . S
C1141 C1137 1.376 . S
C1141 C1140 1.392 . S
C1141 H1153 0.929 . S
C1142 C1138 1.531 . S
C1142 H1154 0.960 . S
C1142 H1155 0.962 . S
C1142 H1156 0.960 . S
C1143 C1140 1.511 . S
C1143 H1157 0.961 . S
C1143 H1158 0.961 . S
C1143 H1159 0.961 . S
C1144 C1145 1.370 . S
C1144 C1146 1.363 . S
C1144 H1160 0.931 . S
C1145 C1144 1.370 . S
C1145 C1149 1.408 . S
C1146 C1144 1.363 . S
C1146 C1147 1.370 . S
C1146 C1150 1.524 . S
C1147 C1139 1.503 . S
C1147 C1146 1.370 . S
C1147 C1148 1.403 . S
C1148 C1147 1.403 . S
C1148 C1149 1.404 . S
C1148 C1151 1.539 . S
C1149 C1145 1.408 . S
C1149 C1148 1.404 . S
C1149 H1161 0.930 . S
C1150 C1146 1.524 . S
C1150 H1162 0.956 . S
C1150 H1163 0.961 . S
C1150 H1164 0.961 . S
C1151 C1148 1.539 . S
C1151 H1165 0.958 . S
C1151 H1166 0.961 . S
C1151 H1167 0.960 . S
H1152 C1136 0.931 . S
H1153 C1141 0.929 . S
H1154 C1142 0.960 . S
H1155 C1142 0.962 . S
H1156 C1142 0.960 . S
H1157 C1143 0.961 . S
H1158 C1143 0.961 . S
H1159 C1143 0.961 . S
H1160 C1144 0.931 . S
H1161 C1149 0.930 . S
H1162 C1150 0.956 . S
H1163 C1150 0.961 . S
H1164 C1150 0.961 . S
H1165 C1151 0.958 . S
H1166 C1151 0.961 . S
H1167 C1151 0.960 . S
C1168 C1169 1.391 . S
C1168 C1170 1.394 . S
C1168 H1184 0.931 . S
C1169 C1168 1.391 . S
C1169 C1173 1.376 . S
C1170 C1168 1.394 . S
C1170 C1171 1.369 . S
C1170 C1174 1.531 . S
C1171 C1170 1.369 . S
C1171 C1172 1.410 . S
C1171 C1179 1.503 . S
C1172 C1171 1.410 . S
C1172 C1173 1.392 . S
C1172 C1175 1.511 . S
C1173 C1169 1.376 . S
C1173 C1172 1.392 . S
C1173 H1185 0.929 . S
C1174 C1170 1.531 . S
C1174 H1186 0.960 . S
C1174 H1187 0.962 . S
C1174 H1188 0.960 . S
C1175 C1172 1.511 . S
C1175 H1189 0.961 . S
C1175 H1190 0.961 . S
C1175 H1191 0.961 . S
C1176 C1177 1.370 . S
C1176 C1178 1.363 . S
C1176 H1192 0.931 . S
C1177 C1176 1.370 . S
C1177 C1181 1.408 . S
C1178 C1176 1.363 . S
C1178 C1179 1.370 . S
C1178 C1182 1.524 . S
C1179 C1171 1.503 . S
C1179 C1178 1.370 . S
C1179 C1180 1.403 . S
C1180 C1179 1.403 . S
C1180 C1181 1.404 . S
C1180 C1183 1.539 . S
C1181 C1177 1.408 . S
C1181 C1180 1.404 . S
C1181 H1193 0.930 . S
C1182 C1178 1.524 . S
C1182 H1194 0.956 . S
C1182 H1195 0.961 . S
C1182 H1196 0.961 . S
C1183 C1180 1.539 . S
C1183 H1197 0.958 . S
C1183 H1198 0.961 . S
C1183 H1199 0.960 . S
H1184 C1168 0.931 . S
H1185 C1173 0.929 . S
H1186 C1174 0.960 . S
H1187 C1174 0.962 . S
H1188 C1174 0.960 . S
H1189 C1175 0.961 . S
H1190 C1175 0.961 . S
H1191 C1175 0.961 . S
H1192 C1176 0.931 . S
H1193 C1181 0.930 . S
H1194 C1182 0.956 . S
H1195 C1182 0.961 . S
H1196 C1182 0.961 . S
H1197 C1183 0.958 . S
H1198 C1183 0.961 . S
H1199 C1183 0.960 . S
C1200 C1201 1.391 . S
C1200 C1202 1.394 . S
C1200 H1216 0.931 . S
C1201 C1200 1.391 . S
C1201 C1205 1.376 . S
C1202 C1200 1.394 . S
C1202 C1203 1.369 . S
C1202 C1206 1.531 . S
C1203 C1202 1.369 . S
C1203 C1204 1.410 . S
C1203 C1211 1.503 . S
C1204 C1203 1.410 . S
C1204 C1205 1.392 . S
C1204 C1207 1.511 . S
C1205 C1201 1.376 . S
C1205 C1204 1.392 . S
C1205 H1217 0.929 . S
C1206 C1202 1.531 . S
C1206 H1218 0.960 . S
C1206 H1219 0.962 . S
C1206 H1220 0.960 . S
C1207 C1204 1.511 . S
C1207 H1221 0.961 . S
C1207 H1222 0.961 . S
C1207 H1223 0.961 . S
C1208 C1209 1.370 . S
C1208 C1210 1.363 . S
C1208 H1224 0.931 . S
C1209 C1208 1.370 . S
C1209 C1213 1.408 . S
C1210 C1208 1.363 . S
C1210 C1211 1.370 . S
C1210 C1214 1.524 . S
C1211 C1203 1.503 . S
C1211 C1210 1.370 . S
C1211 C1212 1.403 . S
C1212 C1211 1.403 . S
C1212 C1213 1.404 . S
C1212 C1215 1.539 . S
C1213 C1209 1.408 . S
C1213 C1212 1.404 . S
C1213 H1225 0.930 . S
C1214 C1210 1.524 . S
C1214 H1226 0.956 . S
C1214 H1227 0.961 . S
C1214 H1228 0.961 . S
C1215 C1212 1.539 . S
C1215 H1229 0.958 . S
C1215 H1230 0.961 . S
C1215 H1231 0.960 . S
H1216 C1200 0.931 . S
H1217 C1205 0.929 . S
H1218 C1206 0.960 . S
H1219 C1206 0.962 . S
H1220 C1206 0.960 . S
H1221 C1207 0.961 . S
H1222 C1207 0.961 . S
H1223 C1207 0.961 . S
H1224 C1208 0.931 . S
H1225 C1213 0.930 . S
H1226 C1214 0.956 . S
H1227 C1214 0.961 . S
H1228 C1214 0.961 . S
H1229 C1215 0.958 . S
H1230 C1215 0.961 . S
H1231 C1215 0.960 . S
C1232 C1233 1.391 . S
C1232 C1234 1.394 . S
C1232 H1248 0.931 . S
C1233 C1232 1.391 . S
C1233 C1237 1.376 1_554 S
C1234 C1232 1.394 . S
C1234 C1235 1.369 . S
C1234 C1238 1.531 . S
C1235 C1234 1.369 . S
C1235 C1236 1.410 1_554 S
C1235 C1243 1.503 1_565 S
C1236 C1235 1.410 1_556 S
C1236 C1237 1.392 . S
C1236 C1239 1.511 . S
C1237 C1233 1.376 1_556 S
C1237 C1236 1.392 . S
C1237 H1249 0.929 . S
C1238 C1234 1.531 . S
C1238 H1250 0.960 1_565 S
C1238 H1251 0.962 . S
C1238 H1252 0.960 . S
C1239 C1236 1.511 . S
C1239 H1253 0.961 . S
C1239 H1254 0.939 1_565 S
C1239 H1255 0.961 . S
C1240 C1241 1.370 . S
C1240 C1242 1.363 . S
C1240 H1256 0.931 . S
C1241 C1240 1.370 . S
C1241 C1245 1.408 1_556 S
C1242 C1240 1.363 . S
C1242 C1243 1.370 1_556 S
C1242 C1246 1.524 . S
C1243 C1235 1.503 1_545 S
C1243 C1242 1.370 1_554 S
C1243 C1244 1.403 . S
C1244 C1243 1.403 . S
C1244 C1245 1.404 . S
C1244 C1247 1.539 . S
C1245 C1241 1.408 1_554 S
C1245 C1244 1.404 . S
C1245 H1257 0.930 . S
C1246 C1242 1.524 . S
C1246 H1258 0.956 1_545 S
C1246 H1259 0.961 1_545 S
C1246 H1260 0.961 . S
C1247 C1244 1.539 . S
C1247 H1261 0.958 . S
C1247 H1262 0.961 . S
C1247 H1263 0.960 . S
H1248 C1232 0.931 . S
H1249 C1237 0.929 . S
H1250 C1238 0.960 1_545 S
H1251 C1238 0.962 . S
H1252 C1238 0.960 . S
H1253 C1239 0.961 . S
H1254 C1239 0.939 1_545 S
H1255 C1239 0.961 . S
H1256 C1240 0.931 . S
H1257 C1245 0.930 . S
H1258 C1246 0.956 1_565 S
H1259 C1246 0.961 1_565 S
H1260 C1246 0.961 . S
H1261 C1247 0.958 . S
H1262 C1247 0.961 . S
H1263 C1247 0.960 . S
C1264 C1265 1.391 . S
C1264 C1266 1.394 . S
C1264 H1280 0.931 . S
C1265 C1264 1.391 . S
C1265 C1269 1.376 . S
C1266 C1264 1.394 . S
C1266 C1267 1.369 . S
C1266 C1270 1.531 . S
C1267 C1266 1.369 . S
C1267 C1268 1.410 . S
C1267 C1275 1.503 1_565 S
C1268 C1267 1.410 . S
C1268 C1269 1.392 . S
C1268 C1271 1.511 . S
C1269 C1265 1.376 . S
C1269 C1268 1.392 . S
C1269 H1281 0.929 . S
C1270 C1266 1.531 . S
C1270 H1282 0.960 1_565 S
C1270 H1283 0.962 . S
C1270 H1284 0.960 . S
C1271 C1268 1.511 . S
C1271 H1285 0.961 . S
C1271 H1286 0.999 . S
C1271 H1287 0.961 . S
C1272 C1273 1.370 . S
C1272 C1274 1.363 . S
C1272 H1288 0.931 . S
C1273 C1272 1.370 . S
C1273 C1277 1.408 . S
C1274 C1272 1.363 . S
C1274 C1275 1.370 . S
C1274 C1278 1.524 . S
C1275 C1267 1.503 1_545 S
C1275 C1274 1.370 . S
C1275 C1276 1.403 . S
C1276 C1275 1.403 . S
C1276 C1277 1.404 . S
C1276 C1279 1.539 . S
C1277 C1273 1.408 . S
C1277 C1276 1.404 . S
C1277 H1289 0.930 . S
C1278 C1274 1.524 . S
C1278 H1290 0.956 . S
C1278 H1291 0.961 1_545 S
C1278 H1292 0.961 . S
C1279 C1276 1.539 . S
C1279 H1293 0.958 . S
C1279 H1294 0.961 . S
C1279 H1295 0.960 1_545 S
H1280 C1264 0.931 . S
H1281 C1269 0.929 . S
H1282 C1270 0.960 1_545 S
H1283 C1270 0.962 . S
H1284 C1270 0.960 . S
H1285 C1271 0.961 . S
H1286 C1271 0.999 . S
H1287 C1271 0.961 . S
H1288 C1272 0.931 . S
H1289 C1277 0.930 . S
H1290 C1278 0.956 . S
H1291 C1278 0.961 1_565 S
H1292 C1278 0.961 . S
H1293 C1279 0.958 . S
H1294 C1279 0.961 . S
H1295 C1279 0.960 1_565 S
C1296 C1297 1.391 . S
C1296 C1298 1.394 . S
C1296 H1312 0.931 . S
C1297 C1296 1.391 . S
C1297 C1301 1.376 1_554 S
C1298 C1296 1.394 . S
C1298 C1299 1.369 . S
C1298 C1302 1.531 . S
C1299 C1298 1.369 . S
C1299 C1300 1.410 1_554 S
C1299 C1307 1.503 1_565 S
C1300 C1299 1.410 1_556 S
C1300 C1301 1.392 . S
C1300 C1303 1.511 . S
C1301 C1297 1.376 1_556 S
C1301 C1300 1.392 . S
C1301 H1313 0.929 . S
C1302 C1298 1.531 . S
C1302 H1314 0.960 1_565 S
C1302 H1315 0.962 . S
C1302 H1316 0.960 . S
C1303 C1300 1.511 . S
C1303 H1317 0.961 . S
C1303 H1318 0.944 1_565 S
C1303 H1319 0.961 . S
C1304 C1305 1.370 . S
C1304 C1306 1.363 . S
C1304 H1320 0.931 . S
C1305 C1304 1.370 . S
C1305 C1309 1.408 1_556 S
C1306 C1304 1.363 . S
C1306 C1307 1.370 1_556 S
C1306 C1310 1.524 . S
C1307 C1299 1.503 1_545 S
C1307 C1306 1.370 1_554 S
C1307 C1308 1.403 . S
C1308 C1307 1.403 . S
C1308 C1309 1.404 . S
C1308 C1311 1.539 . S
C1309 C1305 1.408 1_554 S
C1309 C1308 1.404 . S
C1309 H1321 0.930 . S
C1310 C1306 1.524 . S
C1310 H1322 0.930 1_545 S
C1310 H1323 0.961 1_545 S
C1310 H1324 0.961 . S
C1311 C1308 1.539 . S
C1311 H1325 0.958 . S
C1311 H1326 0.961 . S
C1311 H1327 0.960 . S
H1312 C1296 0.931 . S
H1313 C1301 0.929 . S
H1314 C1302 0.960 1_545 S
H1315 C1302 0.962 . S
H1316 C1302 0.960 . S
H1317 C1303 0.961 . S
H1318 C1303 0.944 1_545 S
H1319 C1303 0.961 . S
H1320 C1304 0.931 . S
H1321 C1309 0.930 . S
H1322 C1310 0.930 1_565 S
H1323 C1310 0.961 1_565 S
H1324 C1310 0.961 . S
H1325 C1311 0.958 . S
H1326 C1311 0.961 . S
H1327 C1311 0.960 . S
C1328 C1329 1.391 . S
C1328 C1330 1.394 . S
C1328 H1344 0.931 . S
C1329 C1328 1.391 . S
C1329 C1333 1.376 . S
C1330 C1328 1.394 . S
C1330 C1331 1.369 . S
C1330 C1334 1.531 . S
C1331 C1330 1.369 . S
C1331 C1332 1.410 . S
C1331 C1339 1.503 1_565 S
C1332 C1331 1.410 . S
C1332 C1333 1.392 . S
C1332 C1335 1.511 . S
C1333 C1329 1.376 . S
C1333 C1332 1.392 . S
C1333 H1345 0.929 . S
C1334 C1330 1.531 . S
C1334 H1346 0.960 1_565 S
C1334 H1347 0.962 . S
C1334 H1348 0.960 . S
C1335 C1332 1.511 . S
C1335 H1349 0.961 . S
C1335 H1350 1.003 . S
C1335 H1351 0.961 . S
C1336 C1337 1.370 . S
C1336 C1338 1.363 . S
C1336 H1352 0.931 . S
C1337 C1336 1.370 . S
C1337 C1341 1.408 . S
C1338 C1336 1.363 . S
C1338 C1339 1.370 . S
C1338 C1342 1.524 . S
C1339 C1331 1.503 1_545 S
C1339 C1338 1.370 . S
C1339 C1340 1.403 . S
C1340 C1339 1.403 . S
C1340 C1341 1.404 . S
C1340 C1343 1.539 . S
C1341 C1337 1.408 . S
C1341 C1340 1.404 . S
C1341 H1353 0.930 . S
C1342 C1338 1.524 . S
C1342 H1354 0.956 . S
C1342 H1355 0.961 1_545 S
C1342 H1356 0.961 . S
C1343 C1340 1.539 . S
C1343 H1357 0.958 . S
C1343 H1358 0.961 . S
C1343 H1359 0.960 1_545 S
H1344 C1328 0.931 . S
H1345 C1333 0.929 . S
H1346 C1334 0.960 1_545 S
H1347 C1334 0.962 . S
H1348 C1334 0.960 . S
H1349 C1335 0.961 . S
H1350 C1335 1.003 . S
H1351 C1335 0.961 . S
H1352 C1336 0.931 . S
H1353 C1341 0.930 . S
H1354 C1342 0.956 . S
H1355 C1342 0.961 1_565 S
H1356 C1342 0.961 . S
H1357 C1343 0.958 . S
H1358 C1343 0.961 . S
H1359 C1343 0.960 1_565 S
C1360 C1361 1.391 . S
C1360 C1362 1.394 . S
C1360 H1376 0.931 . S
C1361 C1360 1.391 . S
C1361 C1365 1.376 . S
C1362 C1360 1.394 . S
C1362 C1363 1.369 . S
C1362 C1366 1.531 . S
C1363 C1362 1.369 . S
C1363 C1364 1.410 . S
C1363 C1371 1.503 . S
C1364 C1363 1.410 . S
C1364 C1365 1.392 . S
C1364 C1367 1.511 1_554 S
C1365 C1361 1.376 . S
C1365 C1364 1.392 . S
C1365 H1377 0.929 1_554 S
C1366 C1362 1.531 . S
C1366 H1378 0.960 . S
C1366 H1379 0.962 . S
C1366 H1380 0.960 . S
C1367 C1364 1.511 1_556 S
C1367 H1381 0.961 . S
C1367 H1382 0.961 . S
C1367 H1383 0.961 1_556 S
C1368 C1369 1.370 . S
C1368 C1370 1.363 . S
C1368 H1384 0.931 . S
C1369 C1368 1.370 . S
C1369 C1373 1.408 1_556 S
C1370 C1368 1.363 . S
C1370 C1371 1.370 1_556 S
C1370 C1374 1.524 . S
C1371 C1363 1.503 . S
C1371 C1370 1.370 1_554 S
C1371 C1372 1.403 . S
C1372 C1371 1.403 . S
C1372 C1373 1.404 . S
C1372 C1375 1.539 . S
C1373 C1369 1.408 1_554 S
C1373 C1372 1.404 . S
C1373 H1385 0.930 . S
C1374 C1370 1.524 . S
C1374 H1386 0.956 . S
C1374 H1387 0.961 . S
C1374 H1388 0.961 . S
C1375 C1372 1.539 . S
C1375 H1389 0.958 . S
C1375 H1390 0.961 . S
C1375 H1391 0.960 . S
H1376 C1360 0.931 . S
H1377 C1365 0.929 1_556 S
H1378 C1366 0.960 . S
H1379 C1366 0.962 . S
H1380 C1366 0.960 . S
H1381 C1367 0.961 . S
H1382 C1367 0.961 . S
H1383 C1367 0.961 1_554 S
H1384 C1368 0.931 . S
H1385 C1373 0.930 . S
H1386 C1374 0.956 . S
H1387 C1374 0.961 . S
H1388 C1374 0.961 . S
H1389 C1375 0.958 . S
H1390 C1375 0.961 . S
H1391 C1375 0.960 . S
C1392 C1393 1.391 . S
C1392 C1394 1.394 . S
C1392 H1408 0.931 . S
C1393 C1392 1.391 . S
C1393 C1397 1.376 . S
C1394 C1392 1.394 . S
C1394 C1395 1.369 . S
C1394 C1398 1.531 . S
C1395 C1394 1.369 . S
C1395 C1396 1.410 . S
C1395 C1403 1.503 . S
C1396 C1395 1.410 . S
C1396 C1397 1.392 . S
C1396 C1399 1.511 . S
C1397 C1393 1.376 . S
C1397 C1396 1.392 . S
C1397 H1409 0.929 . S
C1398 C1394 1.531 . S
C1398 H1410 0.960 . S
C1398 H1411 0.962 . S
C1398 H1412 0.960 . S
C1399 C1396 1.511 . S
C1399 H1413 0.961 . S
C1399 H1414 0.961 . S
C1399 H1415 0.961 . S
C1400 C1401 1.370 . S
C1400 C1402 1.363 . S
C1400 H1416 0.931 . S
C1401 C1400 1.370 . S
C1401 C1405 1.408 . S
C1402 C1400 1.363 . S
C1402 C1403 1.370 . S
C1402 C1406 1.524 . S
C1403 C1395 1.503 . S
C1403 C1402 1.370 . S
C1403 C1404 1.403 . S
C1404 C1403 1.403 . S
C1404 C1405 1.404 . S
C1404 C1407 1.539 . S
C1405 C1401 1.408 . S
C1405 C1404 1.404 . S
C1405 H1417 0.930 . S
C1406 C1402 1.524 . S
C1406 H1418 0.956 . S
C1406 H1419 0.961 . S
C1406 H1420 0.961 . S
C1407 C1404 1.539 . S
C1407 H1421 0.958 . S
C1407 H1422 0.961 . S
C1407 H1423 0.960 . S
H1408 C1392 0.931 . S
H1409 C1397 0.929 . S
H1410 C1398 0.960 . S
H1411 C1398 0.962 . S
H1412 C1398 0.960 . S
H1413 C1399 0.961 . S
H1414 C1399 0.961 . S
H1415 C1399 0.961 . S
H1416 C1400 0.931 . S
H1417 C1405 0.930 . S
H1418 C1406 0.956 . S
H1419 C1406 0.961 . S
H1420 C1406 0.961 . S
H1421 C1407 0.958 . S
H1422 C1407 0.961 . S
H1423 C1407 0.960 . S
C1424 C1425 1.391 1_554 S
C1424 C1426 1.394 . S
C1424 H1440 0.931 . S
C1425 C1424 1.391 1_556 S
C1425 C1429 1.376 . S
C1426 C1424 1.394 . S
C1426 C1427 1.369 1_554 S
C1426 C1430 1.531 . S
C1427 C1426 1.369 1_556 S
C1427 C1428 1.410 . S
C1427 C1435 1.503 1_556 S
C1428 C1427 1.410 . S
C1428 C1429 1.392 . S
C1428 C1431 1.511 . S
C1429 C1425 1.376 . S
C1429 C1428 1.392 . S
C1429 H1441 0.929 . S
C1430 C1426 1.531 . S
C1430 H1442 0.960 . S
C1430 H1443 0.962 . S
C1430 H1444 0.960 . S
C1431 C1428 1.511 . S
C1431 H1445 0.961 . S
C1431 H1446 0.961 . S
C1431 H1447 0.961 . S
C1432 C1433 1.370 . S
C1432 C1434 1.363 . S
C1432 H1448 0.931 . S
C1433 C1432 1.370 . S
C1433 C1437 1.408 1_554 S
C1434 C1432 1.363 . S
C1434 C1435 1.372 . S
C1434 C1438 1.524 . S
C1435 C1427 1.503 1_554 S
C1435 C1434 1.372 . S
C1435 C1436 1.402 1_554 S
C1436 C1435 1.402 1_556 S
C1436 C1437 1.404 . S
C1436 C1439 1.539 . S
C1437 C1433 1.408 1_556 S
C1437 C1436 1.404 . S
C1437 H1449 0.930 . S
C1438 C1434 1.524 . S
C1438 H1450 0.956 . S
C1438 H1451 0.961 1_554 S
C1438 H1452 0.961 . S
C1439 C1436 1.539 . S
C1439 H1453 0.958 . S
C1439 H1454 0.961 . S
C1439 H1455 0.960 . S
H1440 C1424 0.931 . S
H1441 C1429 0.929 . S
H1442 C1430 0.960 . S
H1443 C1430 0.962 . S
H1444 C1430 0.960 . S
H1445 C1431 0.961 . S
H1446 C1431 0.961 . S
H1447 C1431 0.961 . S
H1448 C1432 0.931 . S
H1449 C1437 0.930 . S
H1450 C1438 0.956 . S
H1451 C1438 0.961 1_556 S
H1452 C1438 0.961 . S
H1453 C1439 0.958 . S
H1454 C1439 0.961 . S
H1455 C1439 0.960 . S
C1456 C1457 1.391 . S
C1456 C1458 1.394 . S
C1456 H1472 0.931 . S
C1457 C1456 1.391 . S
C1457 C1461 1.376 . S
C1458 C1456 1.394 . S
C1458 C1459 1.369 . S
C1458 C1462 1.531 . S
C1459 C1458 1.369 . S
C1459 C1460 1.410 . S
C1459 C1467 1.503 . S
C1460 C1459 1.410 . S
C1460 C1461 1.392 . S
C1460 C1463 1.511 . S
C1461 C1457 1.376 . S
C1461 C1460 1.392 . S
C1461 H1473 0.929 . S
C1462 C1458 1.531 . S
C1462 H1474 0.960 . S
C1462 H1475 0.962 . S
C1462 H1476 0.960 . S
C1463 C1460 1.511 . S
C1463 H1477 0.961 . S
C1463 H1478 0.961 . S
C1463 H1479 0.961 . S
C1464 C1465 1.370 . S
C1464 C1466 1.363 . S
C1464 H1480 0.931 . S
C1465 C1464 1.370 . S
C1465 C1469 1.408 . S
C1466 C1464 1.363 . S
C1466 C1467 1.370 . S
C1466 C1470 1.524 . S
C1467 C1459 1.503 . S
C1467 C1466 1.370 . S
C1467 C1468 1.403 . S
C1468 C1467 1.403 . S
C1468 C1469 1.404 . S
C1468 C1471 1.539 . S
C1469 C1465 1.408 . S
C1469 C1468 1.404 . S
C1469 H1481 0.930 . S
C1470 C1466 1.524 . S
C1470 H1482 0.956 . S
C1470 H1483 0.961 . S
C1470 H1484 0.961 . S
C1471 C1468 1.539 . S
C1471 H1485 0.958 . S
C1471 H1486 0.961 . S
C1471 H1487 0.960 . S
H1472 C1456 0.931 . S
H1473 C1461 0.929 . S
H1474 C1462 0.960 . S
H1475 C1462 0.962 . S
H1476 C1462 0.960 . S
H1477 C1463 0.961 . S
H1478 C1463 0.961 . S
H1479 C1463 0.961 . S
H1480 C1464 0.931 . S
H1481 C1469 0.930 . S
H1482 C1470 0.956 . S
H1483 C1470 0.961 . S
H1484 C1470 0.961 . S
H1485 C1471 0.958 . S
H1486 C1471 0.961 . S
H1487 C1471 0.960 . S
C1488 C1489 1.391 . S
C1488 C1490 1.394 . S
C1488 H1504 0.931 . S
C1489 C1488 1.391 . S
C1489 C1493 1.376 . S
C1490 C1488 1.394 . S
C1490 C1491 1.369 . S
C1490 C1494 1.531 . S
C1491 C1490 1.369 . S
C1491 C1492 1.410 . S
C1491 C1499 1.503 . S
C1492 C1491 1.410 . S
C1492 C1493 1.392 . S
C1492 C1495 1.511 . S
C1493 C1489 1.376 . S
C1493 C1492 1.392 . S
C1493 H1505 0.929 . S
C1494 C1490 1.531 . S
C1494 H1506 0.960 . S
C1494 H1507 0.962 . S
C1494 H1508 0.960 . S
C1495 C1492 1.511 . S
C1495 H1509 0.961 . S
C1495 H1510 0.961 . S
C1495 H1511 0.961 . S
C1496 C1497 1.370 . S
C1496 C1498 1.363 . S
C1496 H1512 0.931 . S
C1497 C1496 1.370 . S
C1497 C1501 1.408 . S
C1498 C1496 1.363 . S
C1498 C1499 1.370 . S
C1498 C1502 1.524 . S
C1499 C1491 1.503 . S
C1499 C1498 1.370 . S
C1499 C1500 1.403 . S
C1500 C1499 1.403 . S
C1500 C1501 1.404 . S
C1500 C1503 1.539 . S
C1501 C1497 1.408 . S
C1501 C1500 1.404 . S
C1501 H1513 0.930 . S
C1502 C1498 1.524 . S
C1502 H1514 0.956 . S
C1502 H1515 0.961 . S
C1502 H1516 0.961 . S
C1503 C1500 1.539 . S
C1503 H1517 0.958 . S
C1503 H1518 0.961 . S
C1503 H1519 0.960 . S
H1504 C1488 0.931 . S
H1505 C1493 0.929 . S
H1506 C1494 0.960 . S
H1507 C1494 0.962 . S
H1508 C1494 0.960 . S
H1509 C1495 0.961 . S
H1510 C1495 0.961 . S
H1511 C1495 0.961 . S
H1512 C1496 0.931 . S
H1513 C1501 0.930 . S
H1514 C1502 0.956 . S
H1515 C1502 0.961 . S
H1516 C1502 0.961 . S
H1517 C1503 0.958 . S
H1518 C1503 0.961 . S
H1519 C1503 0.960 . S
C1520 C1521 1.391 . S
C1520 C1522 1.394 . S
C1520 H1536 0.931 . S
C1521 C1520 1.391 . S
C1521 C1525 1.376 . S
C1522 C1520 1.394 . S
C1522 C1523 1.369 . S
C1522 C1526 1.531 . S
C1523 C1522 1.369 . S
C1523 C1524 1.410 . S
C1523 C1531 1.503 . S
C1524 C1523 1.410 . S
C1524 C1525 1.392 . S
C1524 C1527 1.511 . S
C1525 C1521 1.376 . S
C1525 C1524 1.392 . S
C1525 H1537 0.929 . S
C1526 C1522 1.531 . S
C1526 H1538 0.960 . S
C1526 H1539 0.962 . S
C1526 H1540 0.960 . S
C1527 C1524 1.511 . S
C1527 H1541 0.961 . S
C1527 H1542 0.961 . S
C1527 H1543 0.961 . S
C1528 C1529 1.370 . S
C1528 C1530 1.363 . S
C1528 H1544 0.931 . S
C1529 C1528 1.370 . S
C1529 C1533 1.408 . S
C1530 C1528 1.363 . S
C1530 C1531 1.370 . S
C1530 C1534 1.524 . S
C1531 C1523 1.503 . S
C1531 C1530 1.370 . S
C1531 C1532 1.403 . S
C1532 C1531 1.403 . S
C1532 C1533 1.404 . S
C1532 C1535 1.539 . S
C1533 C1529 1.408 . S
C1533 C1532 1.404 . S
C1533 H1545 0.930 . S
C1534 C1530 1.524 . S
C1534 H1546 0.956 . S
C1534 H1547 0.961 . S
C1534 H1548 0.961 . S
C1535 C1532 1.539 . S
C1535 H1549 0.958 . S
C1535 H1550 0.961 . S
C1535 H1551 0.960 . S
H1536 C1520 0.931 . S
H1537 C1525 0.929 . S
H1538 C1526 0.960 . S
H1539 C1526 0.962 . S
H1540 C1526 0.960 . S
H1541 C1527 0.961 . S
H1542 C1527 0.961 . S
H1543 C1527 0.961 . S
H1544 C1528 0.931 . S
H1545 C1533 0.930 . S
H1546 C1534 0.956 . S
H1547 C1534 0.961 . S
H1548 C1534 0.961 . S
H1549 C1535 0.958 . S
H1550 C1535 0.961 . S
H1551 C1535 0.960 . S
C1552 C1553 1.391 . S
C1552 C1554 1.394 . S
C1552 H1568 0.931 . S
C1553 C1552 1.391 . S
C1553 C1557 1.376 . S
C1554 C1552 1.394 . S
C1554 C1555 1.369 . S
C1554 C1558 1.531 . S
C1555 C1554 1.369 . S
C1555 C1556 1.410 . S
C1555 C1563 1.503 . S
C1556 C1555 1.410 . S
C1556 C1557 1.392 . S
C1556 C1559 1.511 . S
C1557 C1553 1.376 . S
C1557 C1556 1.392 . S
C1557 H1569 0.929 . S
C1558 C1554 1.531 . S
C1558 H1570 0.960 . S
C1558 H1571 0.962 . S
C1558 H1572 0.960 . S
C1559 C1556 1.511 . S
C1559 H1573 0.961 . S
C1559 H1574 0.961 . S
C1559 H1575 0.961 . S
C1560 C1561 1.370 . S
C1560 C1562 1.363 . S
C1560 H1576 0.931 . S
C1561 C1560 1.370 . S
C1561 C1565 1.408 . S
C1562 C1560 1.363 . S
C1562 C1563 1.370 . S
C1562 C1566 1.524 . S
C1563 C1555 1.503 . S
C1563 C1562 1.370 . S
C1563 C1564 1.403 . S
C1564 C1563 1.403 . S
C1564 C1565 1.404 . S
C1564 C1567 1.539 . S
C1565 C1561 1.408 . S
C1565 C1564 1.404 . S
C1565 H1577 0.930 . S
C1566 C1562 1.524 . S
C1566 H1578 0.956 . S
C1566 H1579 0.961 . S
C1566 H1580 0.961 . S
C1567 C1564 1.539 . S
C1567 H1581 0.958 . S
C1567 H1582 0.961 . S
C1567 H1583 0.960 . S
H1568 C1552 0.931 . S
H1569 C1557 0.929 . S
H1570 C1558 0.960 . S
H1571 C1558 0.962 . S
H1572 C1558 0.960 . S
H1573 C1559 0.961 . S
H1574 C1559 0.961 . S
H1575 C1559 0.961 . S
H1576 C1560 0.931 . S
H1577 C1565 0.930 . S
H1578 C1566 0.956 . S
H1579 C1566 0.961 . S
H1580 C1566 0.961 . S
H1581 C1567 0.958 . S
H1582 C1567 0.961 . S
H1583 C1567 0.960 . S
C1584 C1585 1.391 . S
C1584 C1586 1.394 . S
C1584 H1600 0.931 . S
C1585 C1584 1.391 . S
C1585 C1589 1.376 . S
C1586 C1584 1.394 . S
C1586 C1587 1.369 . S
C1586 C1590 1.531 . S
C1587 C1586 1.369 . S
C1587 C1588 1.410 . S
C1587 C1595 1.503 . S
C1588 C1587 1.410 . S
C1588 C1589 1.392 . S
C1588 C1591 1.511 . S
C1589 C1585 1.376 . S
C1589 C1588 1.392 . S
C1589 H1601 0.929 . S
C1590 C1586 1.531 . S
C1590 H1602 0.960 . S
C1590 H1603 0.962 . S
C1590 H1604 0.960 . S
C1591 C1588 1.511 . S
C1591 H1605 0.961 . S
C1591 H1606 0.961 . S
C1591 H1607 0.961 . S
C1592 C1593 1.370 . S
C1592 C1594 1.363 . S
C1592 H1608 0.931 . S
C1593 C1592 1.370 . S
C1593 C1597 1.408 . S
C1594 C1592 1.363 . S
C1594 C1595 1.370 . S
C1594 C1598 1.524 . S
C1595 C1587 1.503 . S
C1595 C1594 1.370 . S
C1595 C1596 1.403 . S
C1596 C1595 1.403 . S
C1596 C1597 1.404 . S
C1596 C1599 1.539 . S
C1597 C1593 1.408 . S
C1597 C1596 1.404 . S
C1597 H1609 0.930 . S
C1598 C1594 1.524 . S
C1598 H1610 0.956 . S
C1598 H1611 0.961 . S
C1598 H1612 0.961 . S
C1599 C1596 1.539 . S
C1599 H1613 0.958 . S
C1599 H1614 0.961 . S
C1599 H1615 0.960 . S
H1600 C1584 0.931 . S
H1601 C1589 0.929 . S
H1602 C1590 0.960 . S
H1603 C1590 0.962 . S
H1604 C1590 0.960 . S
H1605 C1591 0.961 . S
H1606 C1591 0.961 . S
H1607 C1591 0.961 . S
H1608 C1592 0.931 . S
H1609 C1597 0.930 . S
H1610 C1598 0.956 . S
H1611 C1598 0.961 . S
H1612 C1598 0.961 . S
H1613 C1599 0.958 . S
H1614 C1599 0.961 . S
H1615 C1599 0.960 . S
C1616 C1617 1.391 . S
C1616 C1618 1.394 . S
C1616 H1632 0.931 . S
C1617 C1616 1.391 . S
C1617 C1621 1.376 . S
C1618 C1616 1.394 . S
C1618 C1619 1.369 . S
C1618 C1622 1.531 . S
C1619 C1618 1.369 . S
C1619 C1620 1.410 . S
C1619 C1627 1.503 . S
C1620 C1619 1.410 . S
C1620 C1621 1.392 . S
C1620 C1623 1.511 . S
C1621 C1617 1.376 . S
C1621 C1620 1.392 . S
C1621 H1633 0.929 . S
C1622 C1618 1.531 . S
C1622 H1634 0.960 . S
C1622 H1635 0.962 . S
C1622 H1636 0.960 . S
C1623 C1620 1.511 . S
C1623 H1637 0.961 . S
C1623 H1638 0.961 . S
C1623 H1639 0.961 . S
C1624 C1625 1.370 . S
C1624 C1626 1.363 . S
C1624 H1640 0.931 . S
C1625 C1624 1.370 . S
C1625 C1629 1.408 . S
C1626 C1624 1.363 . S
C1626 C1627 1.370 . S
C1626 C1630 1.524 . S
C1627 C1619 1.503 . S
C1627 C1626 1.370 . S
C1627 C1628 1.403 . S
C1628 C1627 1.403 . S
C1628 C1629 1.404 . S
C1628 C1631 1.539 . S
C1629 C1625 1.408 . S
C1629 C1628 1.404 . S
C1629 H1641 0.930 . S
C1630 C1626 1.524 . S
C1630 H1642 0.956 . S
C1630 H1643 0.961 . S
C1630 H1644 0.961 . S
C1631 C1628 1.539 . S
C1631 H1645 0.958 . S
C1631 H1646 0.961 . S
C1631 H1647 0.960 . S
H1632 C1616 0.931 . S
H1633 C1621 0.929 . S
H1634 C1622 0.960 . S
H1635 C1622 0.962 . S
H1636 C1622 0.960 . S
H1637 C1623 0.961 . S
H1638 C1623 0.961 . S
H1639 C1623 0.961 . S
H1640 C1624 0.931 . S
H1641 C1629 0.930 . S
H1642 C1630 0.956 . S
H1643 C1630 0.961 . S
H1644 C1630 0.961 . S
H1645 C1631 0.958 . S
H1646 C1631 0.961 . S
H1647 C1631 0.960 . S
C1648 C1649 1.391 . S
C1648 C1650 1.394 . S
C1648 H1664 0.931 . S
C1649 C1648 1.391 . S
C1649 C1653 1.376 . S
C1650 C1648 1.394 . S
C1650 C1651 1.369 . S
C1650 C1654 1.531 . S
C1651 C1650 1.369 . S
C1651 C1652 1.410 . S
C1651 C1659 1.503 . S
C1652 C1651 1.410 . S
C1652 C1653 1.392 . S
C1652 C1655 1.511 . S
C1653 C1649 1.376 . S
C1653 C1652 1.392 . S
C1653 H1665 0.929 . S
C1654 C1650 1.531 . S
C1654 H1666 0.960 . S
C1654 H1667 0.962 . S
C1654 H1668 0.960 . S
C1655 C1652 1.511 . S
C1655 H1669 0.961 . S
C1655 H1670 0.961 . S
C1655 H1671 0.961 . S
C1656 C1657 1.370 . S
C1656 C1658 1.363 . S
C1656 H1672 0.931 . S
C1657 C1656 1.370 . S
C1657 C1661 1.408 . S
C1658 C1656 1.363 . S
C1658 C1659 1.370 . S
C1658 C1662 1.524 . S
C1659 C1651 1.503 . S
C1659 C1658 1.370 . S
C1659 C1660 1.403 . S
C1660 C1659 1.403 . S
C1660 C1661 1.404 . S
C1660 C1663 1.539 . S
C1661 C1657 1.408 . S
C1661 C1660 1.404 . S
C1661 H1673 0.930 . S
C1662 C1658 1.524 . S
C1662 H1674 0.956 . S
C1662 H1675 0.961 . S
C1662 H1676 0.961 . S
C1663 C1660 1.539 . S
C1663 H1677 0.958 . S
C1663 H1678 0.961 . S
C1663 H1679 0.960 . S
H1664 C1648 0.931 . S
H1665 C1653 0.929 . S
H1666 C1654 0.960 . S
H1667 C1654 0.962 . S
H1668 C1654 0.960 . S
H1669 C1655 0.961 . S
H1670 C1655 0.961 . S
H1671 C1655 0.961 . S
H1672 C1656 0.931 . S
H1673 C1661 0.930 . S
H1674 C1662 0.956 . S
H1675 C1662 0.961 . S
H1676 C1662 0.961 . S
H1677 C1663 0.958 . S
H1678 C1663 0.961 . S
H1679 C1663 0.960 . S
C1680 C1681 1.391 . S
C1680 C1682 1.394 . S
C1680 H1696 0.931 . S
C1681 C1680 1.391 . S
C1681 C1685 1.376 . S
C1682 C1680 1.394 . S
C1682 C1683 1.369 . S
C1682 C1686 1.531 . S
C1683 C1682 1.369 . S
C1683 C1684 1.410 . S
C1683 C1691 1.503 . S
C1684 C1683 1.410 . S
C1684 C1685 1.392 . S
C1684 C1687 1.511 . S
C1685 C1681 1.376 . S
C1685 C1684 1.392 . S
C1685 H1697 0.929 . S
C1686 C1682 1.531 . S
C1686 H1698 0.960 . S
C1686 H1699 0.962 . S
C1686 H1700 0.960 . S
C1687 C1684 1.511 . S
C1687 H1701 0.961 . S
C1687 H1702 0.961 . S
C1687 H1703 0.961 . S
C1688 C1689 1.370 . S
C1688 C1690 1.363 . S
C1688 H1704 0.931 . S
C1689 C1688 1.370 . S
C1689 C1693 1.408 . S
C1690 C1688 1.363 . S
C1690 C1691 1.370 . S
C1690 C1694 1.524 . S
C1691 C1683 1.503 . S
C1691 C1690 1.370 . S
C1691 C1692 1.403 . S
C1692 C1691 1.403 . S
C1692 C1693 1.404 . S
C1692 C1695 1.539 . S
C1693 C1689 1.408 . S
C1693 C1692 1.404 . S
C1693 H1705 0.930 . S
C1694 C1690 1.524 . S
C1694 H1706 0.956 . S
C1694 H1707 0.961 . S
C1694 H1708 0.961 . S
C1695 C1692 1.539 . S
C1695 H1709 0.958 . S
C1695 H1710 0.961 . S
C1695 H1711 0.960 . S
H1696 C1680 0.931 . S
H1697 C1685 0.929 . S
H1698 C1686 0.960 . S
H1699 C1686 0.962 . S
H1700 C1686 0.960 . S
H1701 C1687 0.961 . S
H1702 C1687 0.961 . S
H1703 C1687 0.961 . S
H1704 C1688 0.931 . S
H1705 C1693 0.930 . S
H1706 C1694 0.956 . S
H1707 C1694 0.961 . S
H1708 C1694 0.961 . S
H1709 C1695 0.958 . S
H1710 C1695 0.961 . S
H1711 C1695 0.960 . S
C1712 C1713 1.391 . S
C1712 C1714 1.394 . S
C1712 H1728 0.931 . S
C1713 C1712 1.391 . S
C1713 C1717 1.376 . S
C1714 C1712 1.394 . S
C1714 C1715 1.369 . S
C1714 C1718 1.531 . S
C1715 C1714 1.369 . S
C1715 C1716 1.410 . S
C1715 C1723 1.503 . S
C1716 C1715 1.410 . S
C1716 C1717 1.392 . S
C1716 C1719 1.511 . S
C1717 C1713 1.376 . S
C1717 C1716 1.392 . S
C1717 H1729 0.929 . S
C1718 C1714 1.531 . S
C1718 H1730 0.960 . S
C1718 H1731 0.962 . S
C1718 H1732 0.960 . S
C1719 C1716 1.511 . S
C1719 H1733 0.961 . S
C1719 H1734 0.961 . S
C1719 H1735 0.961 . S
C1720 C1721 1.370 . S
C1720 C1722 1.363 . S
C1720 H1736 0.931 . S
C1721 C1720 1.370 . S
C1721 C1725 1.408 . S
C1722 C1720 1.363 . S
C1722 C1723 1.370 . S
C1722 C1726 1.524 . S
C1723 C1715 1.503 . S
C1723 C1722 1.370 . S
C1723 C1724 1.403 . S
C1724 C1723 1.403 . S
C1724 C1725 1.404 . S
C1724 C1727 1.539 . S
C1725 C1721 1.408 . S
C1725 C1724 1.404 . S
C1725 H1737 0.930 . S
C1726 C1722 1.524 . S
C1726 H1738 0.956 . S
C1726 H1739 0.961 . S
C1726 H1740 0.961 . S
C1727 C1724 1.539 . S
C1727 H1741 0.958 . S
C1727 H1742 0.961 . S
C1727 H1743 0.960 . S
H1728 C1712 0.931 . S
H1729 C1717 0.929 . S
H1730 C1718 0.960 . S
H1731 C1718 0.962 . S
H1732 C1718 0.960 . S
H1733 C1719 0.961 . S
H1734 C1719 0.961 . S
H1735 C1719 0.961 . S
H1736 C1720 0.931 . S
H1737 C1725 0.930 . S
H1738 C1726 0.956 . S
H1739 C1726 0.961 . S
H1740 C1726 0.961 . S
H1741 C1727 0.958 . S
H1742 C1727 0.961 . S
H1743 C1727 0.960 . S
C1744 C1745 1.391 . S
C1744 C1746 1.394 . S
C1744 H1760 0.931 . S
C1745 C1744 1.391 . S
C1745 C1749 1.376 . S
C1746 C1744 1.394 . S
C1746 C1747 1.369 . S
C1746 C1750 1.531 . S
C1747 C1746 1.369 . S
C1747 C1748 1.410 . S
C1747 C1755 1.503 . S
C1748 C1747 1.410 . S
C1748 C1749 1.392 . S
C1748 C1751 1.511 . S
C1749 C1745 1.376 . S
C1749 C1748 1.392 . S
C1749 H1761 0.929 . S
C1750 C1746 1.531 . S
C1750 H1762 0.960 . S
C1750 H1763 0.962 . S
C1750 H1764 0.960 . S
C1751 C1748 1.511 . S
C1751 H1765 0.961 . S
C1751 H1766 0.961 . S
C1751 H1767 0.961 . S
C1752 C1753 1.370 . S
C1752 C1754 1.363 . S
C1752 H1768 0.931 . S
C1753 C1752 1.370 . S
C1753 C1757 1.408 . S
C1754 C1752 1.363 . S
C1754 C1755 1.370 . S
C1754 C1758 1.524 . S
C1755 C1747 1.503 . S
C1755 C1754 1.370 . S
C1755 C1756 1.403 . S
C1756 C1755 1.403 . S
C1756 C1757 1.404 . S
C1756 C1759 1.539 . S
C1757 C1753 1.408 . S
C1757 C1756 1.404 . S
C1757 H1769 0.930 . S
C1758 C1754 1.524 . S
C1758 H1770 0.956 . S
C1758 H1771 0.961 . S
C1758 H1772 0.961 . S
C1759 C1756 1.539 . S
C1759 H1773 0.958 . S
C1759 H1774 0.961 . S
C1759 H1775 0.960 . S
H1760 C1744 0.931 . S
H1761 C1749 0.929 . S
H1762 C1750 0.960 . S
H1763 C1750 0.962 . S
H1764 C1750 0.960 . S
H1765 C1751 0.961 . S
H1766 C1751 0.961 . S
H1767 C1751 0.961 . S
H1768 C1752 0.931 . S
H1769 C1757 0.930 . S
H1770 C1758 0.956 . S
H1771 C1758 0.961 . S
H1772 C1758 0.961 . S
H1773 C1759 0.958 . S
H1774 C1759 0.961 . S
H1775 C1759 0.960 . S
C1776 C1777 1.391 . S
C1776 C1778 1.394 . S
C1776 H1792 0.931 . S
C1777 C1776 1.391 . S
C1777 C1781 1.376 . S
C1778 C1776 1.394 . S
C1778 C1779 1.369 . S
C1778 C1782 1.531 . S
C1779 C1778 1.369 . S
C1779 C1780 1.410 . S
C1779 C1787 1.503 1_554 S
C1780 C1779 1.410 . S
C1780 C1781 1.392 . S
C1780 C1783 1.511 . S
C1781 C1777 1.376 . S
C1781 C1780 1.392 . S
C1781 H1793 0.929 . S
C1782 C1778 1.531 . S
C1782 H1794 0.960 . S
C1782 H1795 0.962 . S
C1782 H1796 0.960 . S
C1783 C1780 1.511 . S
C1783 H1797 0.961 . S
C1783 H1798 0.961 1_554 S
C1783 H1799 0.961 . S
C1784 C1785 1.370 . S
C1784 C1786 1.363 . S
C1784 H1800 0.931 . S
C1785 C1784 1.370 . S
C1785 C1789 1.408 . S
C1786 C1784 1.363 . S
C1786 C1787 1.370 . S
C1786 C1790 1.524 . S
C1787 C1779 1.503 1_556 S
C1787 C1786 1.370 . S
C1787 C1788 1.403 . S
C1788 C1787 1.403 . S
C1788 C1789 1.404 . S
C1788 C1791 1.539 . S
C1789 C1785 1.408 . S
C1789 C1788 1.404 . S
C1789 H1801 0.930 . S
C1790 C1786 1.524 . S
C1790 H1802 0.956 . S
C1790 H1803 0.961 . S
C1790 H1804 0.961 . S
C1791 C1788 1.539 . S
C1791 H1805 0.958 . S
C1791 H1806 0.961 . S
C1791 H1807 0.960 1_556 S
H1792 C1776 0.931 . S
H1793 C1781 0.929 . S
H1794 C1782 0.960 . S
H1795 C1782 0.962 . S
H1796 C1782 0.960 . S
H1797 C1783 0.961 . S
H1798 C1783 0.961 1_556 S
H1799 C1783 0.961 . S
H1800 C1784 0.931 . S
H1801 C1789 0.930 . S
H1802 C1790 0.956 . S
H1803 C1790 0.961 . S
H1804 C1790 0.961 . S
H1805 C1791 0.958 . S
H1806 C1791 0.961 . S
H1807 C1791 0.960 1_554 S
C1808 C1809 1.391 . S
C1808 C1810 1.394 . S
C1808 H1824 0.931 . S
C1809 C1808 1.391 . S
C1809 C1813 1.376 . S
C1810 C1808 1.394 . S
C1810 C1811 1.369 . S
C1810 C1814 1.531 . S
C1811 C1810 1.369 . S
C1811 C1812 1.410 . S
C1811 C1819 1.503 . S
C1812 C1811 1.410 . S
C1812 C1813 1.392 . S
C1812 C1815 1.511 . S
C1813 C1809 1.376 . S
C1813 C1812 1.392 . S
C1813 H1825 0.929 . S
C1814 C1810 1.531 . S
C1814 H1826 0.960 . S
C1814 H1827 0.962 . S
C1814 H1828 0.960 . S
C1815 C1812 1.511 . S
C1815 H1829 0.961 . S
C1815 H1830 0.961 . S
C1815 H1831 0.961 . S
C1816 C1817 1.370 . S
C1816 C1818 1.363 . S
C1816 H1832 0.931 . S
C1817 C1816 1.370 . S
C1817 C1821 1.408 . S
C1818 C1816 1.363 . S
C1818 C1819 1.370 . S
C1818 C1822 1.524 . S
C1819 C1811 1.503 . S
C1819 C1818 1.370 . S
C1819 C1820 1.403 . S
C1820 C1819 1.403 . S
C1820 C1821 1.404 . S
C1820 C1823 1.539 . S
C1821 C1817 1.408 . S
C1821 C1820 1.404 . S
C1821 H1833 0.930 . S
C1822 C1818 1.524 . S
C1822 H1834 0.956 . S
C1822 H1835 0.961 . S
C1822 H1836 0.961 . S
C1823 C1820 1.539 . S
C1823 H1837 0.958 . S
C1823 H1838 0.961 . S
C1823 H1839 0.960 . S
H1824 C1808 0.931 . S
H1825 C1813 0.929 . S
H1826 C1814 0.960 . S
H1827 C1814 0.962 . S
H1828 C1814 0.960 . S
H1829 C1815 0.961 . S
H1830 C1815 0.961 . S
H1831 C1815 0.961 . S
H1832 C1816 0.931 . S
H1833 C1821 0.930 . S
H1834 C1822 0.956 . S
H1835 C1822 0.961 . S
H1836 C1822 0.961 . S
H1837 C1823 0.958 . S
H1838 C1823 0.961 . S
H1839 C1823 0.960 . S
C1840 C1841 1.391 . S
C1840 C1842 1.394 . S
C1840 H1856 0.931 . S
C1841 C1840 1.391 . S
C1841 C1845 1.376 . S
C1842 C1840 1.394 . S
C1842 C1843 1.369 . S
C1842 C1846 1.531 . S
C1843 C1842 1.369 . S
C1843 C1844 1.410 . S
C1843 C1851 1.503 1_556 S
C1844 C1843 1.410 . S
C1844 C1845 1.392 . S
C1844 C1847 1.511 . S
C1845 C1841 1.376 . S
C1845 C1844 1.392 . S
C1845 H1857 0.929 . S
C1846 C1842 1.531 . S
C1846 H1858 0.960 1_556 S
C1846 H1859 0.962 . S
C1846 H1860 0.960 . S
C1847 C1844 1.511 . S
C1847 H1861 0.961 . S
C1847 H1862 0.961 1_556 S
C1847 H1863 0.961 . S
C1848 C1849 1.370 . S
C1848 C1850 1.363 . S
C1848 H1864 0.931 . S
C1849 C1848 1.370 . S
C1849 C1853 1.408 . S
C1850 C1848 1.363 . S
C1850 C1851 1.370 . S
C1850 C1854 1.524 . S
C1851 C1843 1.503 1_554 S
C1851 C1850 1.370 . S
C1851 C1852 1.403 . S
C1852 C1851 1.403 . S
C1852 C1853 1.404 . S
C1852 C1855 1.539 . S
C1853 C1849 1.408 . S
C1853 C1852 1.404 . S
C1853 H1865 0.930 . S
C1854 C1850 1.524 . S
C1854 H1866 0.956 . S
C1854 H1867 0.961 . S
C1854 H1868 0.961 . S
C1855 C1852 1.539 . S
C1855 H1869 0.958 . S
C1855 H1870 0.961 . S
C1855 H1871 0.960 1_554 S
H1856 C1840 0.931 . S
H1857 C1845 0.929 . S
H1858 C1846 0.960 1_554 S
H1859 C1846 0.962 . S
H1860 C1846 0.960 . S
H1861 C1847 0.961 . S
H1862 C1847 0.961 1_554 S
H1863 C1847 0.961 . S
H1864 C1848 0.931 . S
H1865 C1853 0.930 . S
H1866 C1854 0.956 . S
H1867 C1854 0.961 . S
H1868 C1854 0.961 . S
H1869 C1855 0.958 . S
H1870 C1855 0.961 . S
H1871 C1855 0.960 1_556 S
C1872 C1873 1.391 . S
C1872 C1874 1.394 . S
C1872 H1888 0.931 . S
C1873 C1872 1.391 . S
C1873 C1877 1.376 . S
C1874 C1872 1.394 . S
C1874 C1875 1.369 . S
C1874 C1878 1.531 . S
C1875 C1874 1.369 . S
C1875 C1876 1.410 . S
C1875 C1883 1.503 . S
C1876 C1875 1.410 . S
C1876 C1877 1.392 . S
C1876 C1879 1.511 . S
C1877 C1873 1.376 . S
C1877 C1876 1.392 . S
C1877 H1889 0.929 . S
C1878 C1874 1.531 . S
C1878 H1890 0.960 . S
C1878 H1891 0.962 . S
C1878 H1892 0.960 . S
C1879 C1876 1.511 . S
C1879 H1893 0.961 . S
C1879 H1894 0.961 . S
C1879 H1895 0.961 . S
C1880 C1881 1.370 . S
C1880 C1882 1.363 . S
C1880 H1896 0.931 . S
C1881 C1880 1.370 . S
C1881 C1885 1.408 . S
C1882 C1880 1.363 . S
C1882 C1883 1.370 . S
C1882 C1886 1.524 . S
C1883 C1875 1.503 . S
C1883 C1882 1.370 . S
C1883 C1884 1.403 . S
C1884 C1883 1.403 . S
C1884 C1885 1.404 . S
C1884 C1887 1.539 . S
C1885 C1881 1.408 . S
C1885 C1884 1.404 . S
C1885 H1897 0.930 . S
C1886 C1882 1.524 . S
C1886 H1898 0.956 . S
C1886 H1899 0.961 . S
C1886 H1900 0.961 . S
C1887 C1884 1.539 . S
C1887 H1901 0.958 . S
C1887 H1902 0.961 . S
C1887 H1903 0.960 . S
H1888 C1872 0.931 . S
H1889 C1877 0.929 . S
H1890 C1878 0.960 . S
H1891 C1878 0.962 . S
H1892 C1878 0.960 . S
H1893 C1879 0.961 . S
H1894 C1879 0.961 . S
H1895 C1879 0.961 . S
H1896 C1880 0.931 . S
H1897 C1885 0.930 . S
H1898 C1886 0.956 . S
H1899 C1886 0.961 . S
H1900 C1886 0.961 . S
H1901 C1887 0.958 . S
H1902 C1887 0.961 . S
H1903 C1887 0.960 . S
C1904 C1905 1.391 . S
C1904 C1906 1.394 . S
C1904 H1920 0.931 . S
C1905 C1904 1.391 . S
C1905 C1909 1.376 . S
C1906 C1904 1.394 . S
C1906 C1907 1.369 . S
C1906 C1910 1.531 . S
C1907 C1906 1.369 . S
C1907 C1908 1.410 . S
C1907 C1915 1.503 1_556 S
C1908 C1907 1.410 . S
C1908 C1909 1.392 . S
C1908 C1911 1.511 . S
C1909 C1905 1.376 . S
C1909 C1908 1.392 . S
C1909 H1921 0.929 . S
C1910 C1906 1.531 . S
C1910 H1922 0.960 . S
C1910 H1923 0.962 . S
C1910 H1924 0.960 . S
C1911 C1908 1.511 . S
C1911 H1925 0.961 . S
C1911 H1926 0.961 1_556 S
C1911 H1927 0.961 . S
C1912 C1913 1.370 . S
C1912 C1914 1.363 . S
C1912 H1928 0.931 . S
C1913 C1912 1.370 . S
C1913 C1917 1.408 . S
C1914 C1912 1.363 . S
C1914 C1915 1.370 . S
C1914 C1918 1.524 . S
C1915 C1907 1.503 1_554 S
C1915 C1914 1.370 . S
C1915 C1916 1.403 . S
C1916 C1915 1.403 . S
C1916 C1917 1.404 . S
C1916 C1919 1.539 . S
C1917 C1913 1.408 . S
C1917 C1916 1.404 . S
C1917 H1929 0.930 . S
C1918 C1914 1.524 . S
C1918 H1930 0.956 . S
C1918 H1931 0.961 . S
C1918 H1932 0.961 . S
C1919 C1916 1.539 . S
C1919 H1933 0.958 . S
C1919 H1934 0.961 . S
C1919 H1935 0.960 1_554 S
H1920 C1904 0.931 . S
H1921 C1909 0.929 . S
H1922 C1910 0.960 . S
H1923 C1910 0.962 . S
H1924 C1910 0.960 . S
H1925 C1911 0.961 . S
H1926 C1911 0.961 1_554 S
H1927 C1911 0.961 . S
H1928 C1912 0.931 . S
H1929 C1917 0.930 . S
H1930 C1918 0.956 . S
H1931 C1918 0.961 . S
H1932 C1918 0.961 . S
H1933 C1919 0.958 . S
H1934 C1919 0.961 . S
H1935 C1919 0.960 1_556 S
C1936 C1937 1.391 . S
C1936 C1938 1.394 . S
C1936 H1952 0.931 . S
C1937 C1936 1.391 . S
C1937 C1941 1.376 . S
C1938 C1936 1.394 . S
C1938 C1939 1.369 . S
C1938 C1942 1.531 . S
C1939 C1938 1.369 . S
C1939 C1940 1.410 . S
C1939 C1947 1.503 . S
C1940 C1939 1.410 . S
C1940 C1941 1.392 . S
C1940 C1943 1.511 . S
C1941 C1937 1.376 . S
C1941 C1940 1.392 . S
C1941 H1953 0.929 . S
C1942 C1938 1.531 . S
C1942 H1954 0.960 . S
C1942 H1955 0.962 . S
C1942 H1956 0.960 . S
C1943 C1940 1.511 . S
C1943 H1957 0.961 . S
C1943 H1958 0.961 . S
C1943 H1959 0.961 . S
C1944 C1945 1.370 . S
C1944 C1946 1.363 . S
C1944 H1960 0.931 . S
C1945 C1944 1.370 . S
C1945 C1949 1.408 . S
C1946 C1944 1.363 . S
C1946 C1947 1.370 . S
C1946 C1950 1.524 . S
C1947 C1939 1.503 . S
C1947 C1946 1.370 . S
C1947 C1948 1.403 . S
C1948 C1947 1.403 . S
C1948 C1949 1.404 . S
C1948 C1951 1.539 . S
C1949 C1945 1.408 . S
C1949 C1948 1.404 . S
C1949 H1961 0.930 . S
C1950 C1946 1.524 . S
C1950 H1962 0.956 . S
C1950 H1963 0.961 . S
C1950 H1964 0.961 . S
C1951 C1948 1.539 . S
C1951 H1965 0.958 . S
C1951 H1966 0.961 . S
C1951 H1967 0.960 . S
H1952 C1936 0.931 . S
H1953 C1941 0.929 . S
H1954 C1942 0.960 . S
H1955 C1942 0.962 . S
H1956 C1942 0.960 . S
H1957 C1943 0.961 . S
H1958 C1943 0.961 . S
H1959 C1943 0.961 . S
H1960 C1944 0.931 . S
H1961 C1949 0.930 . S
H1962 C1950 0.956 . S
H1963 C1950 0.961 . S
H1964 C1950 0.961 . S
H1965 C1951 0.958 . S
H1966 C1951 0.961 . S
H1967 C1951 0.960 . S
C1968 C1969 1.391 . S
C1968 C1970 1.394 . S
C1968 H1984 0.931 . S
C1969 C1968 1.391 . S
C1969 C1973 1.376 . S
C1970 C1968 1.394 . S
C1970 C1971 1.369 . S
C1970 C1974 1.531 . S
C1971 C1970 1.369 . S
C1971 C1972 1.410 . S
C1971 C1979 1.503 1_556 S
C1972 C1971 1.410 . S
C1972 C1973 1.392 . S
C1972 C1975 1.511 . S
C1973 C1969 1.376 . S
C1973 C1972 1.392 . S
C1973 H1985 0.929 . S
C1974 C1970 1.531 . S
C1974 H1986 0.960 1_556 S
C1974 H1987 0.962 . S
C1974 H1988 0.960 . S
C1975 C1972 1.511 . S
C1975 H1989 0.961 . S
C1975 H1990 0.961 . S
C1975 H1991 0.961 . S
C1976 C1977 1.370 . S
C1976 C1978 1.363 . S
C1976 H1992 0.931 . S
C1977 C1976 1.370 . S
C1977 C1981 1.408 . S
C1978 C1976 1.363 . S
C1978 C1979 1.370 . S
C1978 C1982 1.524 . S
C1979 C1971 1.503 1_554 S
C1979 C1978 1.370 . S
C1979 C1980 1.403 . S
C1980 C1979 1.403 . S
C1980 C1981 1.404 . S
C1980 C1983 1.539 . S
C1981 C1977 1.408 . S
C1981 C1980 1.404 . S
C1981 H1993 0.930 . S
C1982 C1978 1.524 . S
C1982 H1994 0.956 1_554 S
C1982 H1995 0.961 1_554 S
C1982 H1996 0.961 . S
C1983 C1980 1.539 . S
C1983 H1997 0.958 . S
C1983 H1998 0.961 . S
C1983 H1999 0.960 . S
H1984 C1968 0.931 . S
H1985 C1973 0.929 . S
H1986 C1974 0.960 1_554 S
H1987 C1974 0.962 . S
H1988 C1974 0.960 . S
H1989 C1975 0.961 . S
H1990 C1975 0.961 . S
H1991 C1975 0.961 . S
H1992 C1976 0.931 . S
H1993 C1981 0.930 . S
H1994 C1982 0.956 1_556 S
H1995 C1982 0.961 1_556 S
H1996 C1982 0.961 . S
H1997 C1983 0.958 . S
H1998 C1983 0.961 . S
H1999 C1983 0.960 . S
C2000 C2001 1.391 . S
C2000 C2002 1.394 . S
C2000 H2016 0.931 . S
C2001 C2000 1.391 . S
C2001 C2005 1.376 . S
C2002 C2000 1.394 . S
C2002 C2003 1.369 . S
C2002 C2006 1.531 . S
C2003 C2002 1.369 . S
C2003 C2004 1.410 . S
C2003 C2011 1.503 . S
C2004 C2003 1.410 . S
C2004 C2005 1.392 . S
C2004 C2007 1.511 . S
C2005 C2001 1.376 . S
C2005 C2004 1.392 . S
C2005 H2017 0.929 . S
C2006 C2002 1.531 . S
C2006 H2018 0.960 . S
C2006 H2019 0.962 . S
C2006 H2020 0.960 . S
C2007 C2004 1.511 . S
C2007 H2021 0.961 . S
C2007 H2022 0.961 . S
C2007 H2023 0.961 . S
C2008 C2009 1.370 . S
C2008 C2010 1.363 . S
C2008 H2024 0.931 . S
C2009 C2008 1.370 . S
C2009 C2013 1.408 . S
C2010 C2008 1.363 . S
C2010 C2011 1.370 . S
C2010 C2014 1.524 . S
C2011 C2003 1.503 . S
C2011 C2010 1.370 . S
C2011 C2012 1.403 . S
C2012 C2011 1.403 . S
C2012 C2013 1.404 . S
C2012 C2015 1.539 . S
C2013 C2009 1.408 . S
C2013 C2012 1.404 . S
C2013 H2025 0.930 . S
C2014 C2010 1.524 . S
C2014 H2026 0.956 . S
C2014 H2027 0.961 . S
C2014 H2028 0.961 . S
C2015 C2012 1.539 . S
C2015 H2029 0.958 . S
C2015 H2030 0.961 . S
C2015 H2031 0.960 . S
H2016 C2000 0.931 . S
H2017 C2005 0.929 . S
H2018 C2006 0.960 . S
H2019 C2006 0.962 . S
H2020 C2006 0.960 . S
H2021 C2007 0.961 . S
H2022 C2007 0.961 . S
H2023 C2007 0.961 . S
H2024 C2008 0.931 . S
H2025 C2013 0.930 . S
H2026 C2014 0.956 . S
H2027 C2014 0.961 . S
H2028 C2014 0.961 . S
H2029 C2015 0.958 . S
H2030 C2015 0.961 . S
H2031 C2015 0.960 . S
C2032 C2033 1.391 . S
C2032 C2034 1.394 . S
C2032 H2048 0.931 . S
C2033 C2032 1.391 . S
C2033 C2037 1.376 . S
C2034 C2032 1.394 . S
C2034 C2035 1.369 . S
C2034 C2038 1.531 . S
C2035 C2034 1.369 . S
C2035 C2036 1.410 . S
C2035 C2043 1.503 1_556 S
C2036 C2035 1.410 . S
C2036 C2037 1.392 . S
C2036 C2039 1.511 . S
C2037 C2033 1.376 . S
C2037 C2036 1.392 . S
C2037 H2049 0.929 . S
C2038 C2034 1.531 . S
C2038 H2050 0.960 . S
C2038 H2051 0.962 . S
C2038 H2052 0.960 . S
C2039 C2036 1.511 . S
C2039 H2053 0.961 . S
C2039 H2054 0.961 1_556 S
C2039 H2055 0.961 . S
C2040 C2041 1.370 . S
C2040 C2042 1.363 . S
C2040 H2056 0.931 . S
C2041 C2040 1.370 . S
C2041 C2045 1.408 . S
C2042 C2040 1.363 . S
C2042 C2043 1.370 . S
C2042 C2046 1.524 . S
C2043 C2035 1.503 1_554 S
C2043 C2042 1.370 . S
C2043 C2044 1.403 . S
C2044 C2043 1.403 . S
C2044 C2045 1.404 . S
C2044 C2047 1.539 . S
C2045 C2041 1.408 . S
C2045 C2044 1.404 . S
C2045 H2057 0.930 . S
C2046 C2042 1.524 . S
C2046 H2058 0.956 1_554 S
C2046 H2059 0.961 1_554 S
C2046 H2060 0.961 . S
C2047 C2044 1.539 . S
C2047 H2061 0.958 . S
C2047 H2062 0.961 . S
C2047 H2063 0.960 . S
H2048 C2032 0.931 . S
H2049 C2037 0.929 . S
H2050 C2038 0.960 . S
H2051 C2038 0.962 . S
H2052 C2038 0.960 . S
H2053 C2039 0.961 . S
H2054 C2039 0.961 1_554 S
H2055 C2039 0.961 . S
H2056 C2040 0.931 . S
H2057 C2045 0.930 . S
H2058 C2046 0.956 1_556 S
H2059 C2046 0.961 1_556 S
H2060 C2046 0.961 . S
H2061 C2047 0.958 . S
H2062 C2047 0.961 . S
H2063 C2047 0.960 . S
C2064 C2065 1.391 . S
C2064 C2066 1.394 . S
C2064 H2080 0.931 . S
C2065 C2064 1.391 . S
C2065 C2069 1.376 . S
C2066 C2064 1.394 . S
C2066 C2067 1.369 . S
C2066 C2070 1.531 . S
C2067 C2066 1.369 . S
C2067 C2068 1.410 . S
C2067 C2075 1.503 . S
C2068 C2067 1.410 . S
C2068 C2069 1.392 . S
C2068 C2071 1.511 . S
C2069 C2065 1.376 . S
C2069 C2068 1.392 . S
C2069 H2081 0.929 . S
C2070 C2066 1.531 . S
C2070 H2082 0.960 . S
C2070 H2083 0.962 . S
C2070 H2084 0.960 . S
C2071 C2068 1.511 . S
C2071 H2085 0.961 . S
C2071 H2086 0.961 . S
C2071 H2087 0.961 . S
C2072 C2073 1.370 . S
C2072 C2074 1.363 . S
C2072 H2088 0.931 . S
C2073 C2072 1.370 . S
C2073 C2077 1.408 . S
C2074 C2072 1.363 . S
C2074 C2075 1.370 . S
C2074 C2078 1.524 . S
C2075 C2067 1.503 . S
C2075 C2074 1.370 . S
C2075 C2076 1.403 . S
C2076 C2075 1.403 . S
C2076 C2077 1.404 . S
C2076 C2079 1.539 . S
C2077 C2073 1.408 . S
C2077 C2076 1.404 . S
C2077 H2089 0.930 . S
C2078 C2074 1.524 . S
C2078 H2090 0.956 . S
C2078 H2091 0.961 . S
C2078 H2092 0.961 . S
C2079 C2076 1.539 . S
C2079 H2093 0.958 . S
C2079 H2094 0.961 . S
C2079 H2095 0.960 . S
H2080 C2064 0.931 . S
H2081 C2069 0.929 . S
H2082 C2070 0.960 . S
H2083 C2070 0.962 . S
H2084 C2070 0.960 . S
H2085 C2071 0.961 . S
H2086 C2071 0.961 . S
H2087 C2071 0.961 . S
H2088 C2072 0.931 . S
H2089 C2077 0.930 . S
H2090 C2078 0.956 . S
H2091 C2078 0.961 . S
H2092 C2078 0.961 . S
H2093 C2079 0.958 . S
H2094 C2079 0.961 . S
H2095 C2079 0.960 . S
C2096 C2097 1.391 . S
C2096 C2098 1.394 . S
C2096 H2112 0.931 . S
C2097 C2096 1.391 . S
C2097 C2101 1.376 . S
C2098 C2096 1.394 . S
C2098 C2099 1.369 . S
C2098 C2102 1.531 . S
C2099 C2098 1.369 . S
C2099 C2100 1.410 . S
C2099 C2107 1.503 1_554 S
C2100 C2099 1.410 . S
C2100 C2101 1.392 . S
C2100 C2103 1.511 . S
C2101 C2097 1.376 . S
C2101 C2100 1.392 . S
C2101 H2113 0.929 . S
C2102 C2098 1.531 . S
C2102 H2114 0.960 1_554 S
C2102 H2115 0.962 . S
C2102 H2116 0.960 . S
C2103 C2100 1.511 . S
C2103 H2117 0.961 . S
C2103 H2118 0.961 . S
C2103 H2119 0.961 . S
C2104 C2105 1.370 . S
C2104 C2106 1.363 . S
C2104 H2120 0.931 . S
C2105 C2104 1.370 . S
C2105 C2109 1.408 . S
C2106 C2104 1.363 . S
C2106 C2107 1.370 . S
C2106 C2110 1.524 . S
C2107 C2099 1.503 1_556 S
C2107 C2106 1.370 . S
C2107 C2108 1.403 . S
C2108 C2107 1.403 . S
C2108 C2109 1.404 . S
C2108 C2111 1.539 . S
C2109 C2105 1.408 . S
C2109 C2108 1.404 . S
C2109 H2121 0.930 . S
C2110 C2106 1.524 . S
C2110 H2122 0.956 1_556 S
C2110 H2123 0.961 1_556 S
C2110 H2124 0.961 . S
C2111 C2108 1.539 . S
C2111 H2125 0.958 . S
C2111 H2126 0.961 . S
C2111 H2127 0.960 . S
H2112 C2096 0.931 . S
H2113 C2101 0.929 . S
H2114 C2102 0.960 1_556 S
H2115 C2102 0.962 . S
H2116 C2102 0.960 . S
H2117 C2103 0.961 . S
H2118 C2103 0.961 . S
H2119 C2103 0.961 . S
H2120 C2104 0.931 . S
H2121 C2109 0.930 . S
H2122 C2110 0.956 1_554 S
H2123 C2110 0.961 1_554 S
H2124 C2110 0.961 . S
H2125 C2111 0.958 . S
H2126 C2111 0.961 . S
H2127 C2111 0.960 . S
C2128 C2129 1.391 . S
C2128 C2130 1.394 . S
C2128 H2144 0.931 . S
C2129 C2128 1.391 . S
C2129 C2133 1.376 . S
C2130 C2128 1.394 . S
C2130 C2131 1.369 . S
C2130 C2134 1.531 . S
C2131 C2130 1.369 . S
C2131 C2132 1.410 . S
C2131 C2139 1.503 . S
C2132 C2131 1.410 . S
C2132 C2133 1.392 . S
C2132 C2135 1.511 . S
C2133 C2129 1.376 . S
C2133 C2132 1.392 . S
C2133 H2145 0.929 . S
C2134 C2130 1.531 . S
C2134 H2146 0.960 . S
C2134 H2147 0.962 . S
C2134 H2148 0.960 . S
C2135 C2132 1.511 . S
C2135 H2149 0.961 . S
C2135 H2150 0.961 . S
C2135 H2151 0.961 . S
C2136 C2137 1.370 . S
C2136 C2138 1.363 . S
C2136 H2152 0.931 . S
C2137 C2136 1.370 . S
C2137 C2141 1.408 . S
C2138 C2136 1.363 . S
C2138 C2139 1.370 . S
C2138 C2142 1.524 . S
C2139 C2131 1.503 . S
C2139 C2138 1.370 . S
C2139 C2140 1.403 . S
C2140 C2139 1.403 . S
C2140 C2141 1.404 . S
C2140 C2143 1.539 . S
C2141 C2137 1.408 . S
C2141 C2140 1.404 . S
C2141 H2153 0.930 . S
C2142 C2138 1.524 . S
C2142 H2154 0.956 . S
C2142 H2155 0.961 . S
C2142 H2156 0.961 . S
C2143 C2140 1.539 . S
C2143 H2157 0.958 . S
C2143 H2158 0.961 . S
C2143 H2159 0.960 . S
H2144 C2128 0.931 . S
H2145 C2133 0.929 . S
H2146 C2134 0.960 . S
H2147 C2134 0.962 . S
H2148 C2134 0.960 . S
H2149 C2135 0.961 . S
H2150 C2135 0.961 . S
H2151 C2135 0.961 . S
H2152 C2136 0.931 . S
H2153 C2141 0.930 . S
H2154 C2142 0.956 . S
H2155 C2142 0.961 . S
H2156 C2142 0.961 . S
H2157 C2143 0.958 . S
H2158 C2143 0.961 . S
H2159 C2143 0.960 . S
C2160 C2161 1.391 . S
C2160 C2162 1.394 . S
C2160 H2176 0.931 . S
C2161 C2160 1.391 . S
C2161 C2165 1.376 . S
C2162 C2160 1.394 . S
C2162 C2163 1.369 . S
C2162 C2166 1.531 . S
C2163 C2162 1.369 . S
C2163 C2164 1.410 . S
C2163 C2171 1.503 1_554 S
C2164 C2163 1.410 . S
C2164 C2165 1.392 . S
C2164 C2167 1.511 . S
C2165 C2161 1.376 . S
C2165 C2164 1.392 . S
C2165 H2177 0.929 . S
C2166 C2162 1.531 . S
C2166 H2178 0.960 . S
C2166 H2179 0.962 . S
C2166 H2180 0.960 . S
C2167 C2164 1.511 . S
C2167 H2181 0.961 . S
C2167 H2182 0.961 1_554 S
C2167 H2183 0.961 . S
C2168 C2169 1.370 . S
C2168 C2170 1.363 . S
C2168 H2184 0.931 . S
C2169 C2168 1.370 . S
C2169 C2173 1.408 . S
C2170 C2168 1.363 . S
C2170 C2171 1.370 . S
C2170 C2174 1.524 . S
C2171 C2163 1.503 1_556 S
C2171 C2170 1.370 . S
C2171 C2172 1.403 . S
C2172 C2171 1.403 . S
C2172 C2173 1.404 . S
C2172 C2175 1.539 . S
C2173 C2169 1.408 . S
C2173 C2172 1.404 . S
C2173 H2185 0.930 . S
C2174 C2170 1.524 . S
C2174 H2186 0.956 . S
C2174 H2187 0.961 . S
C2174 H2188 0.961 . S
C2175 C2172 1.539 . S
C2175 H2189 0.958 . S
C2175 H2190 0.961 . S
C2175 H2191 0.960 1_556 S
H2176 C2160 0.931 . S
H2177 C2165 0.929 . S
H2178 C2166 0.960 . S
H2179 C2166 0.962 . S
H2180 C2166 0.960 . S
H2181 C2167 0.961 . S
H2182 C2167 0.961 1_556 S
H2183 C2167 0.961 . S
H2184 C2168 0.931 . S
H2185 C2173 0.930 . S
H2186 C2174 0.956 . S
H2187 C2174 0.961 . S
H2188 C2174 0.961 . S
H2189 C2175 0.958 . S
H2190 C2175 0.961 . S
H2191 C2175 0.960 1_554 S
C2192 C2193 1.391 . S
C2192 C2194 1.394 . S
C2192 H2208 0.931 . S
C2193 C2192 1.391 . S
C2193 C2197 1.376 . S
C2194 C2192 1.394 . S
C2194 C2195 1.369 . S
C2194 C2198 1.531 . S
C2195 C2194 1.369 . S
C2195 C2196 1.410 . S
C2195 C2203 1.503 . S
C2196 C2195 1.410 . S
C2196 C2197 1.392 . S
C2196 C2199 1.511 . S
C2197 C2193 1.376 . S
C2197 C2196 1.392 . S
C2197 H2209 0.929 . S
C2198 C2194 1.531 . S
C2198 H2210 0.960 . S
C2198 H2211 0.962 . S
C2198 H2212 0.960 . S
C2199 C2196 1.511 . S
C2199 H2213 0.961 . S
C2199 H2214 0.961 . S
C2199 H2215 0.961 . S
C2200 C2201 1.370 . S
C2200 C2202 1.363 . S
C2200 H2216 0.931 . S
C2201 C2200 1.370 . S
C2201 C2205 1.408 . S
C2202 C2200 1.363 . S
C2202 C2203 1.370 . S
C2202 C2206 1.524 . S
C2203 C2195 1.503 . S
C2203 C2202 1.370 . S
C2203 C2204 1.403 . S
C2204 C2203 1.403 . S
C2204 C2205 1.404 . S
C2204 C2207 1.539 . S
C2205 C2201 1.408 . S
C2205 C2204 1.404 . S
C2205 H2217 0.930 . S
C2206 C2202 1.524 . S
C2206 H2218 0.956 . S
C2206 H2219 0.961 . S
C2206 H2220 0.961 . S
C2207 C2204 1.539 . S
C2207 H2221 0.958 . S
C2207 H2222 0.961 . S
C2207 H2223 0.960 . S
H2208 C2192 0.931 . S
H2209 C2197 0.929 . S
H2210 C2198 0.960 . S
H2211 C2198 0.962 . S
H2212 C2198 0.960 . S
H2213 C2199 0.961 . S
H2214 C2199 0.961 . S
H2215 C2199 0.961 . S
H2216 C2200 0.931 . S
H2217 C2205 0.930 . S
H2218 C2206 0.956 . S
H2219 C2206 0.961 . S
H2220 C2206 0.961 . S
H2221 C2207 0.958 . S
H2222 C2207 0.961 . S
H2223 C2207 0.960 . S
C2224 C2225 1.391 . S
C2224 C2226 1.394 . S
C2224 H2240 0.931 . S
C2225 C2224 1.391 . S
C2225 C2229 1.376 . S
C2226 C2224 1.394 . S
C2226 C2227 1.369 . S
C2226 C2230 1.531 . S
C2227 C2226 1.369 . S
C2227 C2228 1.410 . S
C2227 C2235 1.503 1_554 S
C2228 C2227 1.410 . S
C2228 C2229 1.392 . S
C2228 C2231 1.511 . S
C2229 C2225 1.376 . S
C2229 C2228 1.392 . S
C2229 H2241 0.929 . S
C2230 C2226 1.531 . S
C2230 H2242 0.960 1_554 S
C2230 H2243 0.960 1_554 S
C2230 H2244 0.960 . S
C2231 C2228 1.511 . S
C2231 H2245 0.961 . S
C2231 H2246 0.961 . S
C2231 H2247 0.961 . S
C2232 C2233 1.370 . S
C2232 C2234 1.363 . S
C2232 H2248 0.931 . S
C2233 C2232 1.370 . S
C2233 C2237 1.408 . S
C2234 C2232 1.363 . S
C2234 C2235 1.370 . S
C2234 C2238 1.524 . S
C2235 C2227 1.503 1_556 S
C2235 C2234 1.370 . S
C2235 C2236 1.403 . S
C2236 C2235 1.403 . S
C2236 C2237 1.404 . S
C2236 C2239 1.539 . S
C2237 C2233 1.408 . S
C2237 C2236 1.404 . S
C2237 H2249 0.930 . S
C2238 C2234 1.524 . S
C2238 H2250 0.956 . S
C2238 H2251 0.961 . S
C2238 H2252 0.961 . S
C2239 C2236 1.539 . S
C2239 H2253 0.958 . S
C2239 H2254 0.961 . S
C2239 H2255 0.960 1_556 S
H2240 C2224 0.931 . S
H2241 C2229 0.929 . S
H2242 C2230 0.960 1_556 S
H2243 C2230 0.960 1_556 S
H2244 C2230 0.960 . S
H2245 C2231 0.961 . S
H2246 C2231 0.961 . S
H2247 C2231 0.961 . S
H2248 C2232 0.931 . S
H2249 C2237 0.930 . S
H2250 C2238 0.956 . S
H2251 C2238 0.961 . S
H2252 C2238 0.961 . S
H2253 C2239 0.958 . S
H2254 C2239 0.961 . S
H2255 C2239 0.960 1_554 S
C465 C184 1.516 . S
C473 C10 1.543 . S
C497 C39 1.539 . S
C505 C213 1.549 . S
C529 C126 1.542 . S
C537 C68 1.555 . S
C561 C155 1.516 . S
C569 C97 1.542 . S
C593 C242 1.528 . S
C601 C416 1.549 . S
C625 C445 1.518 . S
C633 C271 1.544 . S
C657 C358 1.570 . S
C665 C300 1.566 . S
C689 C387 1.574 . S
C697 C329 1.568 . S
C721 C13 1.062 . S
C729 C438 1.041 . S
C753 C42 0.981 . S
C761 C409 1.009 . S
C785 C380 1.011 . S
C793 C71 1.003 . S
C817 C351 1.043 . S
C825 C100 1.039 . S
C849 C322 0.986 . S
C857 C129 1.007 . S
C881 C293 0.987 . S
C889 C158 1.006 . S
C913 C264 0.986 . S
C921 C187 1.007 . S
C945 C235 0.990 . S
C953 C216 1.005 . S
C977 C206 1.064 . S
C985 C245 1.028 . S
C1009 C274 0.997 . S
C1017 C177 1.009 . S
C1041 C303 1.052 . S
C1049 C148 1.044 . S
C1073 C119 1.062 . S
C1081 C332 1.038 . S
C1105 C361 1.050 . S
C1113 C90 1.019 . S
C1137 C61 1.027 . S
C1145 C390 1.038 . S
C1169 C419 0.980 . S
C1177 C32 1.012 . S
C1201 C448 1.058 . S
C1209 C3 1.024 . S
C1233 C66 1.372 1_554 S
C1241 C8 1.328 1_556 S
C1265 C37 1.311 . S
C1273 C95 1.349 . S
C1297 C124 1.393 1_554 S
C1305 C182 1.340 1_556 S
C1329 C211 1.355 . S
C1337 C153 1.363 . S
C1361 C298 1.382 1_554 S
C1369 C240 1.327 1_556 S
C1393 C269 1.337 . S
C1401 C327 1.363 . S
C1425 C414 1.338 1_556 S
C1433 C356 1.332 1_554 S
C1457 C443 1.295 . S
C1465 C385 1.356 . S
C1489 C5 1.297 . S
C1497 C92 1.316 . S
C1521 C34 1.298 . S
C1529 C63 1.316 . S
C1553 C208 1.340 . S
C1561 C121 1.330 . S
C1585 C150 1.300 . S
C1593 C179 1.320 . S
C1617 C324 1.303 . S
C1625 C237 1.318 . S
C1649 C266 1.308 . S
C1657 C295 1.320 . S
C1681 C440 1.319 . S
C1689 C353 1.329 . S
C1713 C411 1.350 . S
C1721 C382 1.337 . S
C1745 C15 2.138 . S
C1753 C21 2.006 . S
C1777 C44 2.136 . S
C1785 C50 2.017 . S
C1809 C79 2.004 . S
C1817 C73 2.117 . S
C1841 C102 2.128 . S
C1849 C108 2.022 . S
C1873 C131 2.121 . S
C1881 C137 1.997 . S
C1905 C160 2.126 . S
C1913 C166 2.023 . S
C1937 C189 2.119 . S
C1945 C195 2.021 . S
C1969 C224 2.026 . S
C1977 C218 2.133 . S
C2001 C247 2.129 . S
C2009 C253 2.022 . S
C2033 C282 1.998 . S
C2041 C276 2.132 . S
C2065 C311 1.973 . S
C2073 C305 2.127 . S
C2097 C340 2.037 . S
C2105 C334 2.126 . S
C2129 C363 2.108 . S
C2137 C369 1.996 . S
C2161 C398 1.994 . S
C2169 C392 2.118 . S
C2193 C421 2.116 . S
C2201 C427 2.019 . S
C2225 C450 2.138 . S
C2233 C456 2.013 . S
