# Generated by pormake.
# Topology cag, (4)-cn, num edge types: 1
# Building blocks:
#     Node 0, Type 0, BuildingBlock: NAHDIM_clean_sbu_0, # of connection points: 4
#     Node 1, Type 0, BuildingBlock: NAHDIM_clean_sbu_0, # of connection points: 4
#     Node 2, Type 0, BuildingBlock: NAHDIM_clean_sbu_0, # of connection points: 4
#     Node 3, Type 0, BuildingBlock: NAHDIM_clean_sbu_0, # of connection points: 4
#     Node 4, Type 0, BuildingBlock: NAHDIM_clean_sbu_0, # of connection points: 4
#     Node 5, Type 0, BuildingBlock: NAHDIM_clean_sbu_0, # of connection points: 4
#     Node 6, Type 0, BuildingBlock: NAHDIM_clean_sbu_0, # of connection points: 4
#     Node 7, Type 0, BuildingBlock: NAHDIM_clean_sbu_0, # of connection points: 4
#     Node 8, Type 0, BuildingBlock: NAHDIM_clean_sbu_0, # of connection points: 4
#     Node 9, Type 0, BuildingBlock: NAHDIM_clean_sbu_0, # of connection points: 4
#     Node 10, Type 0, BuildingBlock: NAHDIM_clean_sbu_0, # of connection points: 4
#     Node 11, Type 0, BuildingBlock: NAHDIM_clean_sbu_0, # of connection points: 4
#     Node 12, Type 0, BuildingBlock: NAHDIM_clean_sbu_0, # of connection points: 4
#     Node 13, Type 0, BuildingBlock: NAHDIM_clean_sbu_0, # of connection points: 4
#     Node 14, Type 0, BuildingBlock: NAHDIM_clean_sbu_0, # of connection points: 4
#     Node 15, Type 0, BuildingBlock: NAHDIM_clean_sbu_0, # of connection points: 4
#     Edge 16, Type (0, 0), BuildingBlock: KIFKEQ_clean_linker_1, # of connection points: 2
#     Edge 17, Type (0, 0), BuildingBlock: KIFKEQ_clean_linker_1, # of connection points: 2
#     Edge 18, Type (0, 0), BuildingBlock: KIFKEQ_clean_linker_1, # of connection points: 2
#     Edge 19, Type (0, 0), BuildingBlock: KIFKEQ_clean_linker_1, # of connection points: 2
#     Edge 20, Type (0, 0), BuildingBlock: KIFKEQ_clean_linker_1, # of connection points: 2
#     Edge 21, Type (0, 0), BuildingBlock: KIFKEQ_clean_linker_1, # of connection points: 2
#     Edge 22, Type (0, 0), BuildingBlock: KIFKEQ_clean_linker_1, # of connection points: 2
#     Edge 23, Type (0, 0), BuildingBlock: KIFKEQ_clean_linker_1, # of connection points: 2
#     Edge 24, Type (0, 0), BuildingBlock: KIFKEQ_clean_linker_1, # of connection points: 2
#     Edge 25, Type (0, 0), BuildingBlock: KIFKEQ_clean_linker_1, # of connection points: 2
#     Edge 26, Type (0, 0), BuildingBlock: KIFKEQ_clean_linker_1, # of connection points: 2
#     Edge 27, Type (0, 0), BuildingBlock: KIFKEQ_clean_linker_1, # of connection points: 2
#     Edge 28, Type (0, 0), BuildingBlock: KIFKEQ_clean_linker_1, # of connection points: 2
#     Edge 29, Type (0, 0), BuildingBlock: KIFKEQ_clean_linker_1, # of connection points: 2
#     Edge 30, Type (0, 0), BuildingBlock: KIFKEQ_clean_linker_1, # of connection points: 2
#     Edge 31, Type (0, 0), BuildingBlock: KIFKEQ_clean_linker_1, # of connection points: 2
#     Edge 32, Type (0, 0), BuildingBlock: KIFKEQ_clean_linker_1, # of connection points: 2
#     Edge 33, Type (0, 0), BuildingBlock: KIFKEQ_clean_linker_1, # of connection points: 2
#     Edge 34, Type (0, 0), BuildingBlock: KIFKEQ_clean_linker_1, # of connection points: 2
#     Edge 35, Type (0, 0), BuildingBlock: KIFKEQ_clean_linker_1, # of connection points: 2
#     Edge 36, Type (0, 0), BuildingBlock: KIFKEQ_clean_linker_1, # of connection points: 2
#     Edge 37, Type (0, 0), BuildingBlock: KIFKEQ_clean_linker_1, # of connection points: 2
#     Edge 38, Type (0, 0), BuildingBlock: KIFKEQ_clean_linker_1, # of connection points: 2
#     Edge 39, Type (0, 0), BuildingBlock: KIFKEQ_clean_linker_1, # of connection points: 2
#     Edge 40, Type (0, 0), BuildingBlock: KIFKEQ_clean_linker_1, # of connection points: 2
#     Edge 41, Type (0, 0), BuildingBlock: KIFKEQ_clean_linker_1, # of connection points: 2
#     Edge 42, Type (0, 0), BuildingBlock: KIFKEQ_clean_linker_1, # of connection points: 2
#     Edge 43, Type (0, 0), BuildingBlock: KIFKEQ_clean_linker_1, # of connection points: 2
#     Edge 44, Type (0, 0), BuildingBlock: KIFKEQ_clean_linker_1, # of connection points: 2
#     Edge 45, Type (0, 0), BuildingBlock: KIFKEQ_clean_linker_1, # of connection points: 2
#     Edge 46, Type (0, 0), BuildingBlock: KIFKEQ_clean_linker_1, # of connection points: 2
#     Edge 47, Type (0, 0), BuildingBlock: KIFKEQ_clean_linker_1, # of connection points: 2
# Relax obj value: 0.038
# Max RMSD: 0.071
# Mean RMSD: 0.071
data_MOF--net-cag--node1-NAHDIM_clean_sbu_0--edge1-KIFKEQ_clean_linker_1
_symmetry_space_group_name_H-M    P1
_symmetry_Int_Tables_number       1
_symmetry_cell_setting            triclinic
loop_
_symmetry_equiv_pos_as_xyz
'x, y, z'
_cell_length_a     42.563392
_cell_length_b     51.222335
_cell_length_c     43.671735
_cell_angle_alpha  89.977844
_cell_angle_beta   90.004693
_cell_angle_gamma 89.955692
loop_
_atom_site_label
_atom_site_type_symbol
_atom_site_fract_x
_atom_site_fract_y
_atom_site_fract_z
_atom_type_partial_charge
C0 C 0.30143 0.18681 0.06174 0.0
O1 O 0.32958 0.18878 0.07383 0.0
O2 O 0.35376 0.13724 0.08343 0.0
Zn3 Zn 0.3066 0.13389 0.08409 0.0
O4 O 0.2907 0.13141 0.12757 0.0
C5 C 0.30738 0.07962 0.06951 0.0
O6 O 0.32365 0.07902 0.09508 0.0
O7 O 0.28692 0.16516 0.0634 0.0
C8 C 0.26798 0.11663 0.13506 0.0
O9 O 0.25435 0.1023 0.11395 0.0
C10 C 0.37072 0.14364 0.10617 0.0
O11 O 0.3573 0.14888 0.13256 0.0
O12 O 0.29641 0.10131 0.06023 0.0
C13 C 0.20209 0.81495 0.57165 0.0
O14 O 0.17633 0.80967 0.58696 0.0
O15 O 0.14141 0.86178 0.5895 0.0
Zn16 Zn 0.18833 0.86821 0.59025 0.0
O17 O 0.20403 0.87191 0.63365 0.0
C18 C 0.17799 0.92024 0.56768 0.0
O19 O 0.15282 0.91821 0.58492 0.0
O20 O 0.21149 0.83846 0.56994 0.0
C21 C 0.18922 0.88461 0.65407 0.0
O22 O 0.16265 0.89616 0.6469 0.0
C23 C 0.12624 0.84981 0.61029 0.0
O24 O 0.1415 0.84012 0.63386 0.0
O25 O 0.1972 0.90125 0.56656 0.0
C26 C 0.29477 0.80992 0.93611 0.0
O27 O 0.31379 0.80687 0.91268 0.0
O28 O 0.35365 0.85784 0.92027 0.0
Zn29 Zn 0.30687 0.86356 0.92285 0.0
O30 O 0.28851 0.86598 0.8803 0.0
C31 C 0.30942 0.91826 0.93785 0.0
O32 O 0.32436 0.91936 0.91156 0.0
O33 O 0.28785 0.83289 0.94479 0.0
C34 C 0.26758 0.88239 0.87248 0.0
O35 O 0.25655 0.89882 0.89291 0.0
C36 C 0.36981 0.86411 0.89693 0.0
O37 O 0.3557 0.87465 0.87319 0.0
O38 O 0.29914 0.89638 0.94723 0.0
C39 C 0.20474 0.18509 0.42293 0.0
O40 O 0.19607 0.18752 0.3942 0.0
O41 O 0.13399 0.13848 0.41337 0.0
Zn42 Zn 0.18084 0.13264 0.41524 0.0
O43 O 0.199 0.12852 0.37275 0.0
C44 C 0.19574 0.07817 0.43091 0.0
O45 O 0.20067 0.07515 0.40144 0.0
O46 O 0.20084 0.16333 0.4364 0.0
C47 C 0.18352 0.11779 0.35127 0.0
O48 O 0.15536 0.10853 0.35703 0.0
C49 C 0.11991 0.15294 0.39406 0.0
O50 O 0.13632 0.16541 0.37322 0.0
O51 O 0.18802 0.10052 0.4411 0.0
C52 C 0.68828 0.85297 0.85158 0.0
O53 O 0.6679 0.83452 0.85806 0.0
O54 O 0.62233 0.86849 0.90197 0.0
Zn55 Zn 0.66883 0.87065 0.9105 0.0
O56 O 0.68321 0.83999 0.93565 0.0
C57 C 0.66083 0.90731 0.95834 0.0
O58 O 0.64073 0.88927 0.96695 0.0
O59 O 0.69279 0.87116 0.87086 0.0
C60 C 0.71107 0.83971 0.94609 0.0
O61 O 0.72969 0.85953 0.9402 0.0
C62 C 0.60568 0.84871 0.90871 0.0
O63 O 0.61918 0.82818 0.92106 0.0
O64 O 0.67671 0.90372 0.93407 0.0
C65 C 0.81319 0.12567 0.345 0.0
O66 O 0.83989 0.11286 0.34676 0.0
O67 O 0.86856 0.13549 0.40681 0.0
Zn68 Zn 0.82165 0.13193 0.41053 0.0
O69 O 0.80332 0.1596 0.43806 0.0
C70 C 0.82103 0.09216 0.45586 0.0
O71 O 0.83371 0.1112 0.47176 0.0
O72 O 0.80127 0.13522 0.3692 0.0
C73 C 0.81925 0.17387 0.4561 0.0
O74 O 0.84983 0.17071 0.45773 0.0
C75 C 0.88266 0.15497 0.39519 0.0
O76 O 0.86615 0.17473 0.38472 0.0
O77 O 0.81296 0.09644 0.42829 0.0
C78 C 0.69806 0.14695 0.14438 0.0
O79 O 0.68476 0.16928 0.13715 0.0
O80 O 0.62412 0.13591 0.09774 0.0
Zn81 Zn 0.66985 0.1309 0.08769 0.0
O82 O 0.68545 0.16154 0.06326 0.0
C83 C 0.67082 0.07617 0.07694 0.0
O84 O 0.66543 0.0762 0.10657 0.0
O85 O 0.69491 0.12759 0.12649 0.0
C86 C 0.71345 0.162 0.05323 0.0
O87 O 0.73212 0.14217 0.05905 0.0
C88 C 0.60588 0.14474 0.07716 0.0
O89 O 0.61762 0.15085 0.05027 0.0
O90 O 0.67408 0.09786 0.06317 0.0
C91 C 0.80166 0.85067 0.64846 0.0
O92 O 0.80596 0.82851 0.63391 0.0
O93 O 0.87483 0.86782 0.59454 0.0
Zn94 Zn 0.82776 0.87215 0.59294 0.0
O95 O 0.80696 0.84394 0.56795 0.0
C96 C 0.82688 0.91133 0.54618 0.0
O97 O 0.84069 0.89261 0.53061 0.0
O98 O 0.80961 0.8719 0.63553 0.0
C99 C 0.82089 0.83014 0.54793 0.0
O100 O 0.85092 0.83398 0.54266 0.0
C101 C 0.88908 0.84762 0.6042 0.0
O102 O 0.87267 0.82753 0.61385 0.0
O103 O 0.81867 0.90701 0.57369 0.0
C104 C 0.79258 0.68688 0.06882 0.0
O105 O 0.80996 0.6909 0.09324 0.0
O106 O 0.85472 0.63939 0.08363 0.0
Zn107 Zn 0.80776 0.63427 0.08369 0.0
O108 O 0.79142 0.63411 0.1269 0.0
C109 C 0.81651 0.59305 0.04115 0.0
O110 O 0.83828 0.60935 0.03176 0.0
O111 O 0.78777 0.66358 0.06001 0.0
C112 C 0.79856 0.61576 0.14522 0.0
O113 O 0.81652 0.59662 0.13547 0.0
C114 C 0.87136 0.64743 0.10587 0.0
O115 O 0.85774 0.6537 0.13183 0.0
O116 O 0.79888 0.59969 0.06333 0.0
C117 C 0.70733 0.31806 0.56925 0.0
O118 O 0.68323 0.31323 0.58718 0.0
O119 O 0.64422 0.36281 0.58113 0.0
Zn120 Zn 0.69043 0.37117 0.58252 0.0
O121 O 0.7038 0.37605 0.6263 0.0
C122 C 0.69512 0.42652 0.56879 0.0
O123 O 0.68838 0.42919 0.59798 0.0
O124 O 0.71496 0.34161 0.56397 0.0
C125 C 0.73212 0.38121 0.63318 0.0
O126 O 0.7529 0.3838 0.61114 0.0
C127 C 0.62507 0.37581 0.59745 0.0
O128 O 0.63596 0.39426 0.61543 0.0
O129 O 0.69781 0.40372 0.55762 0.0
C130 C 0.79298 0.31537 0.93037 0.0
O131 O 0.81043 0.31141 0.906 0.0
O132 O 0.85506 0.36193 0.91513 0.0
Zn133 Zn 0.80821 0.368 0.91574 0.0
O134 O 0.79147 0.36907 0.87266 0.0
C135 C 0.81888 0.40993 0.95741 0.0
O136 O 0.84214 0.39448 0.96538 0.0
O137 O 0.78799 0.33866 0.93916 0.0
C138 C 0.80034 0.38698 0.85446 0.0
O139 O 0.82012 0.40477 0.86434 0.0
C140 C 0.87075 0.35301 0.89269 0.0
O141 O 0.85617 0.34674 0.86722 0.0
O142 O 0.79999 0.40249 0.93663 0.0
C143 C 0.69877 0.69153 0.43485 0.0
O144 O 0.67182 0.69699 0.42164 0.0
O145 O 0.63825 0.64651 0.41464 0.0
Zn146 Zn 0.6848 0.63873 0.41499 0.0
O147 O 0.69988 0.63411 0.37168 0.0
C148 C 0.68641 0.58344 0.42948 0.0
O149 O 0.67526 0.58093 0.40159 0.0
O150 O 0.70874 0.66814 0.43465 0.0
C151 C 0.72711 0.62545 0.36542 0.0
O152 O 0.74621 0.6192 0.3879 0.0
C153 C 0.6209 0.63609 0.39435 0.0
O154 O 0.63377 0.62066 0.37386 0.0
O155 O 0.69246 0.60612 0.43968 0.0
C156 C 0.19026 0.34597 0.84475 0.0
O157 O 0.17413 0.32558 0.854 0.0
O158 O 0.1232 0.36056 0.89545 0.0
Zn159 Zn 0.16952 0.36606 0.90242 0.0
O160 O 0.18721 0.33692 0.92832 0.0
C161 C 0.16262 0.40626 0.94806 0.0
O162 O 0.14603 0.38806 0.96176 0.0
O163 O 0.19165 0.366 0.86184 0.0
C164 C 0.20809 0.34052 0.94868 0.0
O165 O 0.21874 0.36422 0.95355 0.0
C166 C 0.10642 0.34747 0.91399 0.0
O167 O 0.11973 0.3367 0.93803 0.0
O168 O 0.17549 0.40115 0.92249 0.0
C169 C 0.31436 0.62607 0.34606 0.0
O170 O 0.34082 0.61294 0.34804 0.0
O171 O 0.3693 0.63432 0.40828 0.0
Zn172 Zn 0.32222 0.6319 0.41167 0.0
O173 O 0.30388 0.65965 0.43907 0.0
C174 C 0.32292 0.59046 0.45494 0.0
O175 O 0.33894 0.60804 0.47029 0.0
O176 O 0.3024 0.63575 0.37017 0.0
C177 C 0.31852 0.67242 0.45953 0.0
O178 O 0.34844 0.66765 0.46437 0.0
C179 C 0.38513 0.65473 0.40236 0.0
O180 O 0.3705 0.67703 0.39812 0.0
O181 O 0.31227 0.59635 0.42865 0.0
C182 C 0.19774 0.64285 0.14575 0.0
O183 O 0.18524 0.66514 0.13713 0.0
O184 O 0.12369 0.63085 0.0989 0.0
Zn185 Zn 0.16947 0.62448 0.08983 0.0
O186 O 0.18615 0.65371 0.06371 0.0
C187 C 0.16944 0.58697 0.03985 0.0
O188 O 0.16274 0.60746 0.02296 0.0
O189 O 0.19391 0.62278 0.1291 0.0
C190 C 0.21442 0.65427 0.05445 0.0
O191 O 0.23342 0.63505 0.06185 0.0
C192 C 0.10651 0.64213 0.0791 0.0
O193 O 0.11918 0.6498 0.05319 0.0
O194 O 0.17362 0.58986 0.06846 0.0
C195 C 0.30216 0.3456 0.64087 0.0
O196 O 0.31684 0.32467 0.63096 0.0
O197 O 0.37226 0.36414 0.59249 0.0
Zn198 Zn 0.32581 0.3674 0.5847 0.0
O199 O 0.31104 0.33786 0.55798 0.0
C200 C 0.32201 0.40656 0.53658 0.0
O201 O 0.33139 0.38736 0.51886 0.0
O202 O 0.30279 0.36626 0.62478 0.0
C203 C 0.28487 0.33893 0.54404 0.0
O204 O 0.26729 0.35988 0.54696 0.0
C205 C 0.39085 0.35688 0.57137 0.0
O206 O 0.37928 0.35072 0.54443 0.0
O207 O 0.31769 0.40228 0.56493 0.0
H208 H 0.32916 0.23326 0.04741 0.0
H209 H 0.24118 0.19164 0.04051 0.0
H210 H 0.30609 0.27023 0.02061 0.0
H211 H 0.21772 0.22901 0.01456 0.0
H212 H 0.19707 0.2886 0.93911 0.0
H213 H 0.21925 0.25169 0.96682 0.0
H214 H 0.2691 0.30487 0.02632 0.0
H215 H 0.24772 0.34177 0.99792 0.0
C216 C 0.30479 0.23208 0.0404 0.0
C217 C 0.28704 0.20947 0.04603 0.0
C218 C 0.29148 0.25338 0.02519 0.0
C219 C 0.26 0.25267 0.01543 0.0
C220 C 0.24216 0.2301 0.02132 0.0
C221 C 0.25556 0.20871 0.03636 0.0
C222 C 0.21273 0.29242 0.95814 0.0
C223 C 0.22073 0.31813 0.96622 0.0
C224 C 0.2253 0.27124 0.97418 0.0
C225 C 0.24602 0.27526 0.99882 0.0
C226 C 0.25366 0.30102 0.00714 0.0
C227 C 0.24125 0.3222 0.99096 0.0
H228 H 0.2558 0.68348 0.459 0.0
H229 H 0.34355 0.70759 0.49998 0.0
H230 H 0.22835 0.71768 0.48699 0.0
H231 H 0.31587 0.74178 0.52823 0.0
H232 H 0.25896 0.81825 0.54261 0.0
H233 H 0.28757 0.78338 0.51663 0.0
H234 H 0.21414 0.72888 0.5404 0.0
H235 H 0.18538 0.7637 0.56617 0.0
C236 C 0.26924 0.69601 0.47407 0.0
C237 C 0.30189 0.69282 0.47723 0.0
C238 C 0.25345 0.71552 0.49024 0.0
C239 C 0.26995 0.73239 0.50982 0.0
C240 C 0.30259 0.7292 0.51308 0.0
C241 C 0.31839 0.70954 0.49704 0.0
C242 C 0.24893 0.79883 0.54234 0.0
C243 C 0.21983 0.79378 0.55637 0.0
C244 C 0.26543 0.77883 0.52763 0.0
C245 C 0.25307 0.75342 0.52645 0.0
C246 C 0.22409 0.74834 0.54065 0.0
C247 C 0.2077 0.76828 0.55553 0.0
H248 H 0.25496 0.80938 0.98527 0.0
H249 H 0.30638 0.75837 0.92439 0.0
H250 H 0.23552 0.77151 0.01325 0.0
H251 H 0.28648 0.7205 0.95209 0.0
H252 H 0.2734 0.66197 0.03119 0.0
H253 H 0.29239 0.69945 0.00212 0.0
H254 H 0.20013 0.73444 0.00673 0.0
H255 H 0.18124 0.69724 0.03618 0.0
C256 C 0.26199 0.79009 0.97774 0.0
C257 C 0.28227 0.78691 0.95262 0.0
C258 C 0.2507 0.76838 0.99368 0.0
C259 C 0.25946 0.74299 0.9849 0.0
C260 C 0.27961 0.73981 0.95967 0.0
C261 C 0.29086 0.76152 0.94369 0.0
C262 C 0.25715 0.67764 0.02596 0.0
C263 C 0.22584 0.67664 0.03609 0.0
C264 C 0.268 0.69905 0.00915 0.0
C265 C 0.24779 0.71995 0.00216 0.0
C266 C 0.21641 0.71883 0.01209 0.0
C267 C 0.20555 0.69742 0.02884 0.0
H268 H 0.31246 0.29098 0.53828 0.0
H269 H 0.23304 0.33646 0.50717 0.0
H270 H 0.2942 0.25395 0.50805 0.0
H271 H 0.21472 0.29931 0.47711 0.0
H272 H 0.20998 0.23559 0.40325 0.0
H273 H 0.23036 0.27296 0.43166 0.0
H274 H 0.24934 0.22301 0.50918 0.0
H275 H 0.22921 0.18561 0.4808 0.0
C276 C 0.29114 0.29311 0.52496 0.0
C277 C 0.27415 0.31666 0.52519 0.0
C278 C 0.28062 0.27184 0.50777 0.0
C279 C 0.25301 0.27372 0.49027 0.0
C280 C 0.23625 0.29737 0.49015 0.0
C281 C 0.24665 0.31859 0.50752 0.0
C282 C 0.21861 0.23255 0.4263 0.0
C283 C 0.21793 0.20763 0.43977 0.0
C284 C 0.23012 0.25399 0.44262 0.0
C285 C 0.2414 0.25091 0.47265 0.0
C286 C 0.2411 0.22593 0.48596 0.0
C287 C 0.22941 0.20454 0.46974 0.0
H288 H 0.79996 0.73884 0.08087 0.0
H289 H 0.75581 0.68552 0.0174 0.0
H290 H 0.77949 0.7757 0.05176 0.0
H291 H 0.73578 0.72247 0.98801 0.0
H292 H 0.67904 0.79527 0.96144 0.0
H293 H 0.69795 0.75844 0.99173 0.0
H294 H 0.78788 0.79649 0.00209 0.0
H295 H 0.76887 0.83347 0.97228 0.0
C296 C 0.7859 0.73496 0.0607 0.0
C297 C 0.77956 0.70922 0.05144 0.0
C298 C 0.77433 0.75611 0.04392 0.0
C299 C 0.7561 0.75202 0.01751 0.0
C300 C 0.74947 0.72628 0.00843 0.0
C301 C 0.7611 0.70511 0.02519 0.0
C302 C 0.70283 0.7958 0.97022 0.0
C303 C 0.72244 0.81733 0.96446 0.0
C304 C 0.71372 0.77462 0.98743 0.0
C305 C 0.74441 0.77454 -0.00067 0.0
C306 C 0.76397 0.7961 0.9936 0.0
C307 C 0.75312 0.81724 0.97635 0.0
H308 H 0.84643 0.21155 0.49173 0.0
H309 H 0.75618 0.18224 0.46218 0.0
H310 H 0.8201 0.24585 0.52091 0.0
H311 H 0.73 0.21659 0.49112 0.0
H312 H 0.69318 0.26602 0.57039 0.0
H313 H 0.72102 0.23052 0.54483 0.0
H314 H 0.7886 0.28561 0.5093 0.0
H315 H 0.76098 0.32111 0.53502 0.0
C316 C 0.82101 0.21236 0.49152 0.0
C317 C 0.80341 0.1942 0.47457 0.0
C318 C 0.80595 0.23208 0.50811 0.0
C319 C 0.773 0.23391 0.50828 0.0
C320 C 0.75541 0.21551 0.4917 0.0
C321 C 0.77045 0.19593 0.47497 0.0
C322 C 0.71406 0.27056 0.55726 0.0
C323 C 0.72479 0.2964 0.55465 0.0
C324 C 0.72991 0.25023 0.54251 0.0
C325 C 0.75694 0.2553 0.52501 0.0
C326 C 0.76801 0.28107 0.52287 0.0
C327 C 0.75206 0.30142 0.53745 0.0
H328 H 0.80111 0.26345 0.91857 0.0
H329 H 0.75632 0.31659 0.98187 0.0
H330 H 0.7814 0.22651 0.94797 0.0
H331 H 0.73701 0.27956 0.01155 0.0
H332 H 0.68111 0.20631 0.03801 0.0
H333 H 0.69969 0.24329 0.00788 0.0
H334 H 0.79012 0.20591 0.9978 0.0
H335 H 0.77143 0.16873 0.02751 0.0
C336 C 0.78707 0.26727 0.93876 0.0
C337 C 0.78031 0.29298 0.94789 0.0
C338 C 0.77594 0.24608 0.95572 0.0
C339 C 0.75774 0.2501 0.98216 0.0
C340 C 0.7507 0.27581 0.99111 0.0
C341 C 0.7619 0.29702 0.97418 0.0
C342 C 0.70496 0.20596 0.02936 0.0
C343 C 0.72479 0.18455 0.03514 0.0
C344 C 0.71565 0.22723 0.01223 0.0
C345 C 0.74637 0.22753 0.00043 0.0
C346 C 0.76619 0.20612 0.00623 0.0
C347 C 0.75553 0.18488 0.02341 0.0
H348 H 0.8437 0.79552 0.50567 0.0
H349 H 0.75813 0.81933 0.55112 0.0
H350 H 0.81441 0.76247 0.4773 0.0
H351 H 0.72904 0.78614 0.52302 0.0
H352 H 0.68212 0.74254 0.44384 0.0
H353 H 0.71201 0.77636 0.47025 0.0
H354 H 0.78659 0.72107 0.48761 0.0
H355 H 0.75694 0.68732 0.46094 0.0
C356 C 0.81868 0.7937 0.50964 0.0
C357 C 0.80326 0.81007 0.53066 0.0
C358 C 0.80194 0.77469 0.49349 0.0
C359 C 0.76942 0.77172 0.4979 0.0
C360 C 0.754 0.78816 0.51882 0.0
C361 C 0.77074 0.80708 0.53507 0.0
C362 C 0.70493 0.73761 0.45319 0.0
C363 C 0.71711 0.71222 0.45033 0.0
C364 C 0.72198 0.75695 0.46846 0.0
C365 C 0.75163 0.75136 0.48106 0.0
C366 C 0.76396 0.72605 0.47787 0.0
C367 C 0.74686 0.70668 0.46275 0.0
H368 H 0.28345 0.07539 0.01154 0.0
H369 H 0.32324 0.02972 0.08521 0.0
H370 H 0.2809 0.0363 0.97963 0.0
H371 H 0.32083 0.99076 0.05323 0.0
H372 H 0.28645 0.92178 0.99624 0.0
H373 H 0.28268 0.96073 0.02824 0.0
H374 H 0.32028 0.00735 0.95445 0.0
H375 H 0.3239 0.96851 0.92235 0.0
C376 C 0.29142 0.05699 0.02102 0.0
C377 C 0.30368 0.05568 0.05087 0.0
C378 C 0.29012 0.03465 0.00267 0.0
C379 C 0.30078 0.0105 0.01389 0.0
C380 C 0.31218 0.00905 0.04404 0.0
C381 C 0.31372 0.03141 0.0623 0.0
C382 C 0.29372 0.94037 0.98676 0.0
C383 C 0.30561 0.94203 0.95678 0.0
C384 C 0.29169 0.96264 0.00515 0.0
C385 C 0.30124 0.98707 0.99388 0.0
C386 C 0.31243 0.98883 0.96367 0.0
C387 C 0.31469 0.96654 0.94536 0.0
H388 H 0.22529 0.92968 0.52653 0.0
H389 H 0.14218 0.96442 0.56623 0.0
H390 H 0.2324 0.96831 0.49444 0.0
H391 H 0.14903 0.0027 0.53392 0.0
H392 H 0.18543 0.07769 0.49268 0.0
H393 H 0.18381 0.04002 0.52666 0.0
H394 H 0.20634 0.98941 0.45066 0.0
H395 H 0.20849 0.02718 0.41666 0.0
C396 C 0.20859 0.94556 0.52848 0.0
C397 C 0.18314 0.94395 0.54892 0.0
C398 C 0.21258 0.96762 0.50997 0.0
C399 C 0.19129 0.98857 0.51163 0.0
C400 C 0.1661 0.98706 0.53237 0.0
C401 C 0.16206 0.96502 0.55077 0.0
C402 C 0.19029 0.05857 0.48321 0.0
C403 C 0.1969 0.05545 0.45188 0.0
C404 C 0.18918 0.03695 0.50269 0.0
C405 C 0.1947 0.0117 0.49133 0.0
C406 C 0.20224 0.00863 0.46018 0.0
C407 C 0.2033 0.03028 0.44066 0.0
H408 H 0.70116 0.94803 0.94799 0.0
H409 H 0.62774 0.92186 0.00905 0.0
H410 H 0.7056 0.98854 0.97708 0.0
H411 H 0.63167 0.96249 0.0376 0.0
H412 H 0.66666 0.02675 0.09997 0.0
H413 H 0.6663 0.98577 0.07174 0.0
H414 H 0.676 0.02824 0.98675 0.0
H415 H 0.67711 0.06925 0.01507 0.0
C416 C 0.68595 0.95092 0.96758 0.0
C417 C 0.6641 0.93171 0.9762 0.0
C418 C 0.68838 0.9742 0.98415 0.0
C419 C 0.669 0.97877 0.00967 0.0
C420 C 0.6473 0.95945 0.01835 0.0
C421 C 0.64491 0.93619 0.00185 0.0
C422 C 0.66887 0.02736 0.07527 0.0
C423 C 0.6718 0.05128 0.05977 0.0
C424 C 0.66849 0.00386 0.05907 0.0
C425 C 0.67093 0.00371 0.02696 0.0
C426 C 0.67441 0.02763 0.01149 0.0
C427 C 0.67486 0.05115 0.02772 0.0
H428 H 0.83451 0.07724 0.51439 0.0
H429 H 0.8011 0.04732 0.42778 0.0
H430 H 0.83309 0.03337 0.53581 0.0
H431 H 0.79927 0.0034 0.44944 0.0
H432 H 0.84206 0.92694 0.48821 0.0
H433 H 0.83767 0.9706 0.46644 0.0
H434 H 0.79691 0.99847 0.55093 0.0
H435 H 0.80172 0.95488 0.57293 0.0
C436 C 0.82657 0.06134 0.49999 0.0
C437 C 0.81807 0.06576 0.46933 0.0
C438 C 0.82557 0.03621 0.51234 0.0
C439 C 0.81613 0.0149 0.4943 0.0
C440 C 0.80701 0.01939 0.46381 0.0
C441 C 0.8079 0.04457 0.45147 0.0
C442 C 0.83198 0.94233 0.5021 0.0
C443 C 0.82242 0.93746 0.53237 0.0
C444 C 0.82928 0.96732 0.48954 0.0
C445 C 0.81702 0.98801 0.50699 0.0
C446 C 0.80683 0.98301 0.53704 0.0
C447 C 0.80946 0.958 0.54958 0.0
H448 H 0.76945 0.4442 0.95366 0.0
H449 H 0.86275 0.43546 0.99142 0.0
H450 H 0.76702 0.4888 0.97392 0.0
H451 H 0.86032 0.47989 0.01119 0.0
H452 H 0.85916 0.56934 0.00398 0.0
H453 H 0.85795 0.52487 0.98426 0.0
H454 H 0.76827 0.51223 0.02787 0.0
H455 H 0.7695 0.55688 0.0481 0.0
C456 C 0.78933 0.45173 0.96636 0.0
C457 C 0.81633 0.43635 0.97086 0.0
C458 C 0.78787 0.47717 0.97801 0.0
C459 C 0.81357 0.48776 0.99389 0.0
C460 C 0.84032 0.47225 0.99874 0.0
C461 C 0.84161 0.44677 0.98754 0.0
C462 C 0.83905 0.5572 0.00926 0.0
C463 C 0.81447 0.5666 0.02771 0.0
C464 C 0.83848 0.5317 0.99808 0.0
C465 C 0.81313 0.51513 0.00474 0.0
C466 C 0.78804 0.52468 0.02239 0.0
C467 C 0.78882 0.55015 0.03401 0.0
H468 H 0.68452 0.47756 0.58388 0.0
H469 H 0.71057 0.4279 0.50802 0.0
H470 H 0.68448 0.51526 0.54991 0.0
H471 H 0.71134 0.46574 0.4742 0.0
H472 H 0.66989 0.53296 0.41721 0.0
H473 H 0.6743 0.49525 0.45091 0.0
H474 H 0.71762 0.5436 0.5201 0.0
H475 H 0.71245 0.58147 0.48669 0.0
C476 C 0.69061 0.47472 0.56003 0.0
C477 C 0.69737 0.44969 0.54864 0.0
C478 C 0.69076 0.49638 0.54056 0.0
C479 C 0.69779 0.49354 0.50927 0.0
C480 C 0.70531 0.46857 0.49806 0.0
C481 C 0.70506 0.4469 0.5175 0.0
C482 C 0.6805 0.53553 0.43955 0.0
C483 C 0.69066 0.56026 0.44931 0.0
C484 C 0.6832 0.51386 0.45883 0.0
C485 C 0.69627 0.51638 0.48827 0.0
C486 C 0.707 0.54104 0.49777 0.0
C487 C 0.70418 0.56273 0.47854 0.0
H488 H 0.18062 0.54061 0.06889 0.0
H489 H 0.16111 0.57352 0.97973 0.0
H490 H 0.18078 0.49698 0.04674 0.0
H491 H 0.16083 0.52975 0.95768 0.0
H492 H 0.19233 0.44907 0.92423 0.0
H493 H 0.1958 0.49271 0.94638 0.0
H494 H 0.14244 0.46669 0.02479 0.0
H495 H 0.13933 0.42302 0.00292 0.0
C496 C 0.17641 0.53856 0.04455 0.0
C497 C 0.17075 0.56057 0.02609 0.0
C498 C 0.17633 0.51352 0.0319 0.0
C499 C 0.17067 0.50989 0.00049 0.0
C500 C 0.16557 0.53192 0.98191 0.0
C501 C 0.16557 0.55699 0.99458 0.0
C502 C 0.18145 0.45263 0.94626 0.0
C503 C 0.16553 0.43256 0.9618 0.0
C504 C 0.18329 0.47768 0.95885 0.0
C505 C 0.16937 0.48317 0.98732 0.0
C506 C 0.15374 0.46302 0.00299 0.0
C507 C 0.15181 0.43801 0.99036 0.0
H508 H 0.34161 0.57232 0.51079 0.0
H509 H 0.2959 0.54813 0.42711 0.0
H510 H 0.33853 0.52784 0.53014 0.0
H511 H 0.2924 0.50359 0.44677 0.0
H512 H 0.33147 0.42302 0.47769 0.0
H513 H 0.3288 0.46757 0.45813 0.0
H514 H 0.30098 0.49502 0.54764 0.0
H515 H 0.30413 0.45059 0.56735 0.0
C516 C 0.33063 0.55756 0.49663 0.0
C517 C 0.31912 0.56376 0.46736 0.0
C518 C 0.32869 0.53208 0.50781 0.0
C519 C 0.31524 0.51217 0.48998 0.0
C520 C 0.30321 0.51844 0.46091 0.0
C521 C 0.30506 0.54399 0.44974 0.0
C522 C 0.32457 0.43852 0.49315 0.0
C523 C 0.31824 0.43326 0.52413 0.0
C524 C 0.32287 0.46404 0.48189 0.0
C525 C 0.31483 0.48484 0.50138 0.0
C526 C 0.3077 0.47947 0.53216 0.0
C527 C 0.30936 0.45397 0.5434 0.0
H528 H 0.56115 0.1642 0.0386 0.0
H529 H 0.57317 0.12995 0.12831 0.0
H530 H 0.50457 0.16564 0.04652 0.0
H531 H 0.5164 0.13087 0.13594 0.0
H532 H 0.41441 0.15761 0.14929 0.0
H533 H 0.4714 0.15979 0.1431 0.0
H534 H 0.46197 0.13455 0.04916 0.0
H535 H 0.40525 0.1329 0.05508 0.0
C536 C 0.55174 0.15699 0.06004 0.0
C537 C 0.57167 0.14682 0.08275 0.0
C538 C 0.51926 0.15769 0.06451 0.0
C539 C 0.50592 0.14817 0.09176 0.0
C540 C 0.52592 0.13857 0.1148 0.0
C541 C 0.55846 0.13791 0.11034 0.0
C542 C 0.42453 0.1526 0.1273 0.0
C543 C 0.40527 0.14511 0.10268 0.0
C544 C 0.45718 0.15373 0.12381 0.0
C545 C 0.47124 0.14742 0.09561 0.0
C546 C 0.45191 0.13997 0.07103 0.0
C547 C 0.41935 0.13885 0.07451 0.0
H548 H 0.92949 0.88616 0.58657 0.0
H549 H 0.92745 0.80755 0.6225 0.0
H550 H 0.9866 0.88551 0.58765 0.0
H551 H 0.98481 0.80672 0.62297 0.0
H552 H 0.08616 0.82787 0.65201 0.0
H553 H 0.02892 0.82649 0.65002 0.0
H554 H 0.03076 0.86524 0.56215 0.0
H555 H 0.08787 0.86713 0.5644 0.0
C556 C 0.94122 0.86866 0.59455 0.0
C557 C 0.92387 0.84691 0.60448 0.0
C558 C 0.97401 0.86823 0.59497 0.0
C559 C 0.99031 0.84603 0.60529 0.0
C560 C 0.97297 0.82423 0.61519 0.0
C561 C 0.9401 0.82466 0.61477 0.0
C562 C 0.07436 0.836 0.63221 0.0
C563 C 0.09159 0.84773 0.60845 0.0
C564 C 0.04154 0.83508 0.631 0.0
C565 C 0.02524 0.84586 0.60599 0.0
C566 C 0.04255 0.85713 0.58197 0.0
C567 C 0.07532 0.85808 0.58319 0.0
H568 H 0.41172 0.87721 0.85198 0.0
H569 H 0.40593 0.84223 0.94189 0.0
H570 H 0.46869 0.87193 0.85273 0.0
H571 H 0.46284 0.83737 0.9428 0.0
H572 H 0.56278 0.81097 0.92332 0.0
H573 H 0.50574 0.81325 0.91854 0.0
H574 H 0.51352 0.89067 0.88002 0.0
H575 H 0.57051 0.88827 0.88431 0.0
C576 C 0.42257 0.86837 0.87188 0.0
C577 C 0.40428 0.86022 0.89691 0.0
C578 C 0.45523 0.86546 0.87236 0.0
C579 C 0.4703 0.85427 0.89784 0.0
C580 C 0.45193 0.84577 0.92266 0.0
C581 C 0.41931 0.84872 0.92222 0.0
C582 C 0.55235 0.82841 0.91363 0.0
C583 C 0.5712 0.84947 0.90431 0.0
C584 C 0.51965 0.82976 0.91105 0.0
C585 C 0.50509 0.85218 0.89903 0.0
C586 C 0.52401 0.87301 0.88908 0.0
C587 C 0.55668 0.87168 0.89171 0.0
H588 H 0.08145 0.17694 0.35232 0.0
H589 H 0.07981 0.13301 0.43681 0.0
H590 H 0.0241 0.178 0.35207 0.0
H591 H 0.02274 0.13468 0.43699 0.0
H592 H 0.92278 0.11544 0.40999 0.0
H593 H 0.97983 0.11586 0.40924 0.0
H594 H 0.97861 0.19598 0.37819 0.0
H595 H 0.92121 0.19533 0.37815 0.0
C596 C 0.06888 0.16771 0.37097 0.0
C597 C 0.0852 0.15474 0.39447 0.0
C598 C 0.03601 0.16844 0.37091 0.0
C599 C 0.01879 0.15627 0.3944 0.0
C600 C 0.03522 0.1438 0.41821 0.0
C601 C 0.06799 0.14298 0.4182 0.0
C602 C 0.93461 0.13317 0.40296 0.0
C603 C 0.91742 0.15538 0.39421 0.0
C604 C 0.96738 0.13346 0.40272 0.0
C605 C 0.98385 0.15603 0.39391 0.0
C606 C 0.96667 0.1782 0.38485 0.0
C607 C 0.93378 0.17787 0.38496 0.0
H608 H 0.06351 0.66471 0.04099 0.0
H609 H 0.07227 0.62711 0.1292 0.0
H610 H 0.00696 0.66822 0.04835 0.0
H611 H 0.01552 0.63026 0.13631 0.0
H612 H 0.91496 0.66053 0.14946 0.0
H613 H 0.97209 0.66146 0.14389 0.0
H614 H 0.96287 0.63786 0.04936 0.0
H615 H 0.90603 0.63729 0.05471 0.0
C616 C 0.0534 0.65724 0.06199 0.0
C617 C 0.07239 0.64547 0.08442 0.0
C618 C 0.02095 0.65916 0.06614 0.0
C619 C 0.00672 0.64936 0.09281 0.0
C620 C 0.0258 0.6382 0.11562 0.0
C621 C 0.0583 0.63626 0.11146 0.0
C622 C 0.92514 0.65569 0.12746 0.0
C623 C 0.90593 0.64883 0.10255 0.0
C624 C 0.95786 0.65609 0.12432 0.0
C625 C 0.972 0.64977 0.09618 0.0
C626 C 0.95272 0.6432 0.07123 0.0
C627 C 0.92011 0.64272 0.07437 0.0
H628 H 0.57785 0.4036 0.62439 0.0
H629 H 0.59489 0.3372 0.56566 0.0
H630 H 0.5215 0.39717 0.619 0.0
H631 H 0.5384 0.33031 0.56094 0.0
H632 H 0.43717 0.34763 0.52943 0.0
H633 H 0.49372 0.35065 0.53696 0.0
H634 H 0.47895 0.36863 0.63256 0.0
H635 H 0.42232 0.36631 0.62484 0.0
C636 C 0.56958 0.38745 0.61058 0.0
C637 C 0.59086 0.37099 0.59535 0.0
C638 C 0.53723 0.38365 0.60765 0.0
C639 C 0.52538 0.36322 0.58952 0.0
C640 C 0.54671 0.34646 0.57471 0.0
C641 C 0.5791 0.35033 0.57755 0.0
C642 C 0.44598 0.35207 0.55211 0.0
C643 C 0.42522 0.3569 0.57648 0.0
C644 C 0.47844 0.35366 0.55647 0.0
C645 C 0.49092 0.35999 0.58535 0.0
C646 C 0.47013 0.36415 0.60991 0.0
C647 C 0.43766 0.36266 0.60551 0.0
H648 H 0.07179 0.36584 0.86579 0.0
H649 H 0.06317 0.32526 0.95219 0.0
H650 H 0.01478 0.36538 0.86011 0.0
H651 H 0.00621 0.32459 0.94628 0.0
H652 H 0.90705 0.36084 0.94337 0.0
H653 H 0.96394 0.35757 0.94754 0.0
H654 H 0.96965 0.33545 0.85227 0.0
H655 H 0.91255 0.33895 0.84793 0.0
C656 C 0.05777 0.35663 0.88344 0.0
C657 C 0.07202 0.34572 0.90954 0.0
C658 C 0.02511 0.35624 0.88008 0.0
C659 C 0.00601 0.34505 0.90281 0.0
C660 C 0.0203 0.33365 0.92857 0.0
C661 C 0.05295 0.33392 0.93187 0.0
C662 C 0.92037 0.35519 0.9233 0.0
C663 C 0.90526 0.35021 0.89528 0.0
C664 C 0.95298 0.35315 0.92576 0.0
C665 C 0.97126 0.3462 0.90025 0.0
C666 C 0.95618 0.34106 0.87226 0.0
C667 C 0.92348 0.34295 0.86982 0.0
H668 H 0.57703 0.61175 0.35896 0.0
H669 H 0.58695 0.67023 0.42963 0.0
H670 H 0.52023 0.61748 0.36003 0.0
H671 H 0.52987 0.67586 0.43068 0.0
H672 H 0.42764 0.6949 0.39979 0.0
H673 H 0.48498 0.6916 0.39703 0.0
H674 H 0.47802 0.60751 0.39805 0.0
H675 H 0.42104 0.6107 0.40075 0.0
C676 C 0.56713 0.6259 0.37465 0.0
C677 C 0.58651 0.64043 0.39433 0.0
C678 C 0.53456 0.62909 0.37534 0.0
C679 C 0.52063 0.64701 0.39554 0.0
C680 C 0.54 0.66202 0.41474 0.0
C681 C 0.57264 0.65868 0.41425 0.0
C682 C 0.43838 0.67573 0.39935 0.0
C683 C 0.41979 0.65307 0.40046 0.0
C684 C 0.47117 0.67386 0.39794 0.0
C685 C 0.48592 0.6493 0.39722 0.0
C686 C 0.4673 0.6267 0.3982 0.0
C687 C 0.43464 0.62855 0.39993 0.0
H688 H 0.22664 0.08215 0.16057 0.0
H689 H 0.28368 0.14945 0.18197 0.0
H690 H 0.20745 0.0812 0.21307 0.0
H691 H 0.26361 0.14915 0.23417 0.0
H692 H 0.24382 0.12782 0.33313 0.0
H693 H 0.26512 0.12628 0.28138 0.0
H694 H 0.17377 0.10427 0.2467 0.0
H695 H 0.15286 0.10485 0.29854 0.0
C696 C 0.23496 0.09684 0.17645 0.0
C697 C 0.25664 0.1159 0.16708 0.0
C698 C 0.22381 0.0964 0.20655 0.0
C699 C 0.23384 0.11516 0.22794 0.0
C700 C 0.2557 0.13414 0.21853 0.0
C701 C 0.26708 0.13442 0.1885 0.0
C702 C 0.22834 0.12255 0.31445 0.0
C703 C 0.19666 0.11644 0.31994 0.0
C704 C 0.2405 0.12182 0.28472 0.0
C705 C 0.22119 0.11521 0.25974 0.0
C706 C 0.1895 0.10901 0.26536 0.0
C707 C 0.17744 0.10949 0.29511 0.0
H708 H 0.23095 0.91973 0.84544 0.0
H709 H 0.27822 0.84669 0.82722 0.0
H710 H 0.21281 0.92125 0.79254 0.0
H711 H 0.25917 0.84768 0.77471 0.0
H712 H 0.24685 0.86921 0.67491 0.0
H713 H 0.26608 0.86961 0.72739 0.0
H714 H 0.17719 0.90114 0.75791 0.0
H715 H 0.15843 0.90163 0.70523 0.0
C716 C 0.23726 0.90389 0.8302 0.0
C717 C 0.25605 0.88311 0.84052 0.0
C718 C 0.22672 0.90468 0.79989 0.0
C719 C 0.23451 0.8846 0.77926 0.0
C720 C 0.25317 0.86374 0.78973 0.0
C721 C 0.26393 0.86307 0.81994 0.0
C722 C 0.23146 0.87632 0.69281 0.0
C723 C 0.20111 0.88537 0.6859 0.0
C724 C 0.2424 0.87639 0.72298 0.0
C725 C 0.22315 0.88527 0.74701 0.0
C726 C 0.19285 0.8945 0.73999 0.0
C727 C 0.18201 0.89466 0.70977 0.0
H728 H 0.73536 0.88571 0.83307 0.0
H729 H 0.68069 0.8192 0.80378 0.0
H730 H 0.76414 0.88481 0.78484 0.0
H731 H 0.70883 0.81873 0.75526 0.0
H732 H 0.78561 0.80884 0.68401 0.0
H733 H 0.75951 0.80928 0.73366 0.0
H734 H 0.75668 0.89359 0.73122 0.0
H735 H 0.78355 0.89318 0.68199 0.0
C736 C 0.72938 0.87097 0.81629 0.0
C737 C 0.70572 0.85253 0.82227 0.0
C738 C 0.74577 0.87053 0.78856 0.0
C739 C 0.73881 0.8517 0.76613 0.0
C740 C 0.71515 0.83325 0.77219 0.0
C741 C 0.69885 0.83363 0.79995 0.0
C742 C 0.77953 0.82748 0.69413 0.0
C743 C 0.78661 0.85097 0.67901 0.0
C744 C 0.76439 0.82772 0.72251 0.0
C745 C 0.75585 0.85146 0.7364 0.0
C746 C 0.76327 0.87497 0.7214 0.0
C747 C 0.77853 0.87473 0.69307 0.0
H748 H 0.83182 0.10782 0.28876 0.0
H749 H 0.75798 0.15118 0.33387 0.0
H750 H 0.80502 0.11353 0.23979 0.0
H751 H 0.73103 0.15646 0.2851 0.0
H752 H 0.70796 0.18398 0.1884 0.0
H753 H 0.73681 0.1792 0.23631 0.0
H754 H 0.75722 0.09884 0.21378 0.0
H755 H 0.72883 0.1037 0.16564 0.0
C756 C 0.80986 0.11851 0.28826 0.0
C757 C 0.79705 0.12903 0.31523 0.0
C758 C 0.79443 0.12167 0.26022 0.0
C759 C 0.76591 0.13547 0.25855 0.0
C760 C 0.75318 0.14604 0.28553 0.0
C761 C 0.76855 0.14286 0.31353 0.0
C762 C 0.71868 0.16531 0.19361 0.0
C763 C 0.71603 0.14421 0.17323 0.0
C764 C 0.73507 0.16254 0.22115 0.0
C765 C 0.74924 0.13862 0.22889 0.0
C766 C 0.74688 0.11761 0.20834 0.0
C767 C 0.73044 0.12036 0.18083 0.0
H768 H 0.69293 0.63616 0.31398 0.0
H769 H 0.78414 0.60902 0.34373 0.0
H770 H 0.70972 0.63284 0.26083 0.0
H771 H 0.80112 0.60618 0.29048 0.0
H772 H 0.80973 0.57992 0.19043 0.0
H773 H 0.79199 0.58136 0.24352 0.0
H774 H 0.74544 0.65484 0.22596 0.0
H775 H 0.76262 0.65319 0.17282 0.0
C776 C 0.7166 0.62953 0.3092 0.0
C777 C 0.73723 0.62293 0.33312 0.0
C778 C 0.72627 0.62776 0.27871 0.0
C779 C 0.7568 0.61936 0.27141 0.0
C780 C 0.77733 0.61246 0.29532 0.0
C781 C 0.76766 0.61424 0.32585 0.0
C782 C 0.79564 0.59635 0.19787 0.0
C783 C 0.78756 0.61642 0.17737 0.0
C784 C 0.78563 0.59724 0.22835 0.0
C785 C 0.7673 0.61821 0.23898 0.0
C786 C 0.75916 0.63823 0.21841 0.0
C787 C 0.76916 0.63735 0.18797 0.0
H788 H 0.79063 0.39172 0.65596 0.0
H789 H 0.69515 0.37576 0.68395 0.0
H790 H 0.80659 0.39383 0.70955 0.0
H791 H 0.71105 0.37828 0.73747 0.0
H792 H 0.75925 0.35333 0.82699 0.0
H793 H 0.7426 0.35286 0.77361 0.0
H794 H 0.79998 0.42069 0.75565 0.0
H795 H 0.81704 0.42096 0.80897 0.0
C796 C 0.77301 0.38883 0.67352 0.0
C797 C 0.74165 0.38347 0.66567 0.0
C798 C 0.78213 0.39018 0.70424 0.0
C799 C 0.7601 0.38616 0.72776 0.0
C800 C 0.72867 0.38111 0.71988 0.0
C801 C 0.71954 0.37981 0.6892 0.0
C802 C 0.76826 0.36819 0.8117 0.0
C803 C 0.7895 0.38717 0.82225 0.0
C804 C 0.75858 0.36801 0.78113 0.0
C805 C 0.76996 0.38675 0.76039 0.0
C806 C 0.79107 0.40581 0.77098 0.0
C807 C 0.8007 0.40604 0.80158 0.0
H808 H 0.29716 0.30517 0.68156 0.0
H809 H 0.26912 0.38539 0.66733 0.0
H810 H 0.27025 0.30509 0.73088 0.0
H811 H 0.24175 0.38511 0.71627 0.0
H812 H 0.22667 0.38437 0.81972 0.0
H813 H 0.25373 0.38385 0.7706 0.0
H814 H 0.21749 0.30658 0.75266 0.0
H815 H 0.1909 0.30686 0.80212 0.0
C816 C 0.28514 0.32274 0.68887 0.0
C817 C 0.28537 0.34531 0.67055 0.0
C818 C 0.26957 0.32265 0.71706 0.0
C819 C 0.25391 0.34511 0.72754 0.0
C820 C 0.25399 0.3676 0.70909 0.0
C821 C 0.26954 0.36771 0.68094 0.0
C822 C 0.22446 0.36725 0.80532 0.0
C823 C 0.2066 0.34566 0.81484 0.0
C824 C 0.23984 0.36702 0.77708 0.0
C825 C 0.2377 0.3452 0.75767 0.0
C826 C 0.21991 0.32357 0.76723 0.0
C827 C 0.20453 0.32379 0.79551 0.0
H828 H 0.33266 0.6073 0.29015 0.0
H829 H 0.25964 0.65218 0.33448 0.0
H830 H 0.30558 0.61219 0.24122 0.0
H831 H 0.23241 0.65667 0.28573 0.0
H832 H 0.20826 0.68128 0.18801 0.0
H833 H 0.23768 0.67794 0.23581 0.0
H834 H 0.25724 0.5968 0.2167 0.0
H835 H 0.2283 0.60019 0.16874 0.0
C836 C 0.31085 0.61818 0.28948 0.0
C837 C 0.2983 0.6293 0.31624 0.0
C838 C 0.29526 0.62087 0.26147 0.0
C839 C 0.26683 0.63479 0.25961 0.0
C840 C 0.25446 0.64611 0.28632 0.0
C841 C 0.26999 0.64339 0.31431 0.0
C842 C 0.21891 0.66275 0.19396 0.0
C843 C 0.21587 0.64099 0.17459 0.0
C844 C 0.23564 0.66081 0.22142 0.0
C845 C 0.24977 0.6371 0.23006 0.0
C846 C 0.24697 0.61542 0.21053 0.0
C847 C 0.23018 0.61734 0.18313 0.0
loop_
_geom_bond_atom_site_label_1
_geom_bond_atom_site_label_2
_geom_bond_distance
_geom_bond_site_symmetry_2
_ccdc_geom_bond_type
C0 O1 1.160 . S
C0 O7 1.185 . S
O1 C0 1.160 . S
O2 Zn3 1.899 . S
O2 C10 1.284 . S
Zn3 O2 1.899 . S
Zn3 O4 2.032 . S
Zn3 O7 2.086 . S
Zn3 O12 1.977 . S
O4 Zn3 2.032 . S
O4 C8 1.278 . S
C5 O6 1.203 . S
C5 O12 1.267 . S
O6 C5 1.203 . S
O7 C0 1.185 . S
O7 Zn3 2.086 . S
C8 O4 1.278 . S
C8 O9 1.211 . S
O9 C8 1.211 . S
C10 O2 1.284 . S
C10 O11 1.273 . S
O11 C10 1.273 . S
O12 Zn3 1.977 . S
O12 C5 1.267 . S
C13 O14 1.160 . S
C13 O20 1.185 . S
O14 C13 1.160 . S
O15 Zn16 1.899 . S
O15 C23 1.284 . S
Zn16 O15 1.899 . S
Zn16 O17 2.032 . S
Zn16 O20 2.086 . S
Zn16 O25 1.977 . S
O17 Zn16 2.032 . S
O17 C21 1.278 . S
C18 O19 1.203 . S
C18 O25 1.267 . S
O19 C18 1.203 . S
O20 C13 1.185 . S
O20 Zn16 2.086 . S
C21 O17 1.278 . S
C21 O22 1.211 . S
O22 C21 1.211 . S
C23 O15 1.284 . S
C23 O24 1.273 . S
O24 C23 1.273 . S
O25 Zn16 1.977 . S
O25 C18 1.267 . S
C26 O27 1.160 . S
C26 O33 1.185 . S
O27 C26 1.160 . S
O28 Zn29 1.899 . S
O28 C36 1.284 . S
Zn29 O28 1.899 . S
Zn29 O30 2.032 . S
Zn29 O33 2.086 . S
Zn29 O38 1.977 . S
O30 Zn29 2.032 . S
O30 C34 1.278 . S
C31 O32 1.203 . S
C31 O38 1.267 . S
O32 C31 1.203 . S
O33 C26 1.185 . S
O33 Zn29 2.086 . S
C34 O30 1.278 . S
C34 O35 1.211 . S
O35 C34 1.211 . S
C36 O28 1.284 . S
C36 O37 1.273 . S
O37 C36 1.273 . S
O38 Zn29 1.977 . S
O38 C31 1.267 . S
C39 O40 1.160 . S
C39 O46 1.185 . S
O40 C39 1.160 . S
O41 Zn42 1.899 . S
O41 C49 1.284 . S
Zn42 O41 1.899 . S
Zn42 O43 2.032 . S
Zn42 O46 2.086 . S
Zn42 O51 1.977 . S
O43 Zn42 2.032 . S
O43 C47 1.278 . S
C44 O45 1.203 . S
C44 O51 1.267 . S
O45 C44 1.203 . S
O46 C39 1.185 . S
O46 Zn42 2.086 . S
C47 O43 1.278 . S
C47 O48 1.211 . S
O48 C47 1.211 . S
C49 O41 1.284 . S
C49 O50 1.273 . S
O50 C49 1.273 . S
O51 Zn42 1.977 . S
O51 C44 1.267 . S
C52 O53 1.160 . S
C52 O59 1.185 . S
O53 C52 1.160 . S
O54 Zn55 1.899 . S
O54 C62 1.284 . S
Zn55 O54 1.899 . S
Zn55 O56 2.032 . S
Zn55 O59 2.086 . S
Zn55 O64 1.977 . S
O56 Zn55 2.032 . S
O56 C60 1.278 . S
C57 O58 1.203 . S
C57 O64 1.267 . S
O58 C57 1.203 . S
O59 C52 1.185 . S
O59 Zn55 2.086 . S
C60 O56 1.278 . S
C60 O61 1.211 . S
O61 C60 1.211 . S
C62 O54 1.284 . S
C62 O63 1.273 . S
O63 C62 1.273 . S
O64 Zn55 1.977 . S
O64 C57 1.267 . S
C65 O66 1.160 . S
C65 O72 1.185 . S
O66 C65 1.160 . S
O67 Zn68 1.899 . S
O67 C75 1.284 . S
Zn68 O67 1.899 . S
Zn68 O69 2.032 . S
Zn68 O72 2.086 . S
Zn68 O77 1.977 . S
O69 Zn68 2.032 . S
O69 C73 1.278 . S
C70 O71 1.203 . S
C70 O77 1.267 . S
O71 C70 1.203 . S
O72 C65 1.185 . S
O72 Zn68 2.086 . S
C73 O69 1.278 . S
C73 O74 1.211 . S
O74 C73 1.211 . S
C75 O67 1.284 . S
C75 O76 1.273 . S
O76 C75 1.273 . S
O77 Zn68 1.977 . S
O77 C70 1.267 . S
C78 O79 1.160 . S
C78 O85 1.185 . S
O79 C78 1.160 . S
O80 Zn81 1.899 . S
O80 C88 1.284 . S
Zn81 O80 1.899 . S
Zn81 O82 2.032 . S
Zn81 O85 2.086 . S
Zn81 O90 1.977 . S
O82 Zn81 2.032 . S
O82 C86 1.278 . S
C83 O84 1.203 . S
C83 O90 1.267 . S
O84 C83 1.203 . S
O85 C78 1.185 . S
O85 Zn81 2.086 . S
C86 O82 1.278 . S
C86 O87 1.211 . S
O87 C86 1.211 . S
C88 O80 1.284 . S
C88 O89 1.273 . S
O89 C88 1.273 . S
O90 Zn81 1.977 . S
O90 C83 1.267 . S
C91 O92 1.160 . S
C91 O98 1.185 . S
O92 C91 1.160 . S
O93 Zn94 1.899 . S
O93 C101 1.284 . S
Zn94 O93 1.899 . S
Zn94 O95 2.032 . S
Zn94 O98 2.086 . S
Zn94 O103 1.977 . S
O95 Zn94 2.032 . S
O95 C99 1.278 . S
C96 O97 1.203 . S
C96 O103 1.267 . S
O97 C96 1.203 . S
O98 C91 1.185 . S
O98 Zn94 2.086 . S
C99 O95 1.278 . S
C99 O100 1.211 . S
O100 C99 1.211 . S
C101 O93 1.284 . S
C101 O102 1.273 . S
O102 C101 1.273 . S
O103 Zn94 1.977 . S
O103 C96 1.267 . S
C104 O105 1.160 . S
C104 O111 1.185 . S
O105 C104 1.160 . S
O106 Zn107 1.899 . S
O106 C114 1.284 . S
Zn107 O106 1.899 . S
Zn107 O108 2.032 . S
Zn107 O111 2.086 . S
Zn107 O116 1.977 . S
O108 Zn107 2.032 . S
O108 C112 1.278 . S
C109 O110 1.203 . S
C109 O116 1.267 . S
O110 C109 1.203 . S
O111 C104 1.185 . S
O111 Zn107 2.086 . S
C112 O108 1.278 . S
C112 O113 1.211 . S
O113 C112 1.211 . S
C114 O106 1.284 . S
C114 O115 1.273 . S
O115 C114 1.273 . S
O116 Zn107 1.977 . S
O116 C109 1.267 . S
C117 O118 1.160 . S
C117 O124 1.185 . S
O118 C117 1.160 . S
O119 Zn120 1.899 . S
O119 C127 1.284 . S
Zn120 O119 1.899 . S
Zn120 O121 2.032 . S
Zn120 O124 2.086 . S
Zn120 O129 1.977 . S
O121 Zn120 2.032 . S
O121 C125 1.278 . S
C122 O123 1.203 . S
C122 O129 1.267 . S
O123 C122 1.203 . S
O124 C117 1.185 . S
O124 Zn120 2.086 . S
C125 O121 1.278 . S
C125 O126 1.211 . S
O126 C125 1.211 . S
C127 O119 1.284 . S
C127 O128 1.273 . S
O128 C127 1.273 . S
O129 Zn120 1.977 . S
O129 C122 1.267 . S
C130 O131 1.160 . S
C130 O137 1.185 . S
O131 C130 1.160 . S
O132 Zn133 1.899 . S
O132 C140 1.284 . S
Zn133 O132 1.899 . S
Zn133 O134 2.032 . S
Zn133 O137 2.086 . S
Zn133 O142 1.977 . S
O134 Zn133 2.032 . S
O134 C138 1.278 . S
C135 O136 1.203 . S
C135 O142 1.267 . S
O136 C135 1.203 . S
O137 C130 1.185 . S
O137 Zn133 2.086 . S
C138 O134 1.278 . S
C138 O139 1.211 . S
O139 C138 1.211 . S
C140 O132 1.284 . S
C140 O141 1.273 . S
O141 C140 1.273 . S
O142 Zn133 1.977 . S
O142 C135 1.267 . S
C143 O144 1.160 . S
C143 O150 1.185 . S
O144 C143 1.160 . S
O145 Zn146 1.899 . S
O145 C153 1.284 . S
Zn146 O145 1.899 . S
Zn146 O147 2.032 . S
Zn146 O150 2.086 . S
Zn146 O155 1.977 . S
O147 Zn146 2.032 . S
O147 C151 1.278 . S
C148 O149 1.203 . S
C148 O155 1.267 . S
O149 C148 1.203 . S
O150 C143 1.185 . S
O150 Zn146 2.086 . S
C151 O147 1.278 . S
C151 O152 1.211 . S
O152 C151 1.211 . S
C153 O145 1.284 . S
C153 O154 1.273 . S
O154 C153 1.273 . S
O155 Zn146 1.977 . S
O155 C148 1.267 . S
C156 O157 1.160 . S
C156 O163 1.185 . S
O157 C156 1.160 . S
O158 Zn159 1.899 . S
O158 C166 1.284 . S
Zn159 O158 1.899 . S
Zn159 O160 2.032 . S
Zn159 O163 2.086 . S
Zn159 O168 1.977 . S
O160 Zn159 2.032 . S
O160 C164 1.278 . S
C161 O162 1.203 . S
C161 O168 1.267 . S
O162 C161 1.203 . S
O163 C156 1.185 . S
O163 Zn159 2.086 . S
C164 O160 1.278 . S
C164 O165 1.211 . S
O165 C164 1.211 . S
C166 O158 1.284 . S
C166 O167 1.273 . S
O167 C166 1.273 . S
O168 Zn159 1.977 . S
O168 C161 1.267 . S
C169 O170 1.160 . S
C169 O176 1.185 . S
O170 C169 1.160 . S
O171 Zn172 1.899 . S
O171 C179 1.284 . S
Zn172 O171 1.899 . S
Zn172 O173 2.032 . S
Zn172 O176 2.086 . S
Zn172 O181 1.977 . S
O173 Zn172 2.032 . S
O173 C177 1.278 . S
C174 O175 1.203 . S
C174 O181 1.267 . S
O175 C174 1.203 . S
O176 C169 1.185 . S
O176 Zn172 2.086 . S
C177 O173 1.278 . S
C177 O178 1.211 . S
O178 C177 1.211 . S
C179 O171 1.284 . S
C179 O180 1.273 . S
O180 C179 1.273 . S
O181 Zn172 1.977 . S
O181 C174 1.267 . S
C182 O183 1.160 . S
C182 O189 1.185 . S
O183 C182 1.160 . S
O184 Zn185 1.899 . S
O184 C192 1.284 . S
Zn185 O184 1.899 . S
Zn185 O186 2.032 . S
Zn185 O189 2.086 . S
Zn185 O194 1.977 . S
O186 Zn185 2.032 . S
O186 C190 1.278 . S
C187 O188 1.203 . S
C187 O194 1.267 . S
O188 C187 1.203 . S
O189 C182 1.185 . S
O189 Zn185 2.086 . S
C190 O186 1.278 . S
C190 O191 1.211 . S
O191 C190 1.211 . S
C192 O184 1.284 . S
C192 O193 1.273 . S
O193 C192 1.273 . S
O194 Zn185 1.977 . S
O194 C187 1.267 . S
C195 O196 1.160 . S
C195 O202 1.185 . S
O196 C195 1.160 . S
O197 Zn198 1.899 . S
O197 C205 1.284 . S
Zn198 O197 1.899 . S
Zn198 O199 2.032 . S
Zn198 O202 2.086 . S
Zn198 O207 1.977 . S
O199 Zn198 2.032 . S
O199 C203 1.278 . S
C200 O201 1.203 . S
C200 O207 1.267 . S
O201 C200 1.203 . S
O202 C195 1.185 . S
O202 Zn198 2.086 . S
C203 O199 1.278 . S
C203 O204 1.211 . S
O204 C203 1.211 . S
C205 O197 1.284 . S
C205 O206 1.273 . S
O206 C205 1.273 . S
O207 Zn198 1.977 . S
O207 C200 1.267 . S
H208 C216 0.950 . S
H209 C221 0.950 . S
H210 C218 0.950 . S
H211 C220 0.950 1_556 S
H212 C222 0.950 . S
H213 C224 0.950 . S
H214 C226 0.950 1_554 S
H215 C227 0.950 . S
C216 H208 0.950 . S
C216 C217 1.386 . S
C216 C218 1.391 . S
C217 C216 1.386 . S
C217 C221 1.393 . S
C218 H210 0.950 . S
C218 C216 1.391 . S
C218 C219 1.400 . S
C219 C218 1.400 . S
C219 C220 1.398 . S
C219 C225 1.491 1_554 S
C220 H211 0.950 1_554 S
C220 C219 1.398 . S
C220 C221 1.391 . S
C221 H209 0.950 . S
C221 C217 1.393 . S
C221 C220 1.391 . S
C222 H212 0.950 . S
C222 C223 1.386 . S
C222 C224 1.391 . S
C223 C222 1.386 . S
C223 C227 1.393 . S
C224 H213 0.950 . S
C224 C222 1.391 . S
C224 C225 1.400 . S
C225 C219 1.491 1_556 S
C225 C224 1.400 . S
C225 C226 1.398 . S
C226 H214 0.950 1_556 S
C226 C225 1.398 . S
C226 C227 1.391 . S
C227 H215 0.950 . S
C227 C223 1.393 . S
C227 C226 1.391 . S
H228 C236 0.950 . S
H229 C241 0.950 . S
H230 C238 0.950 . S
H231 C240 0.950 . S
H232 C242 0.950 . S
H233 C244 0.950 . S
H234 C246 0.950 . S
H235 C247 0.950 . S
C236 H228 0.950 . S
C236 C237 1.386 . S
C236 C238 1.391 . S
C237 C236 1.386 . S
C237 C241 1.393 . S
C238 H230 0.950 . S
C238 C236 1.391 . S
C238 C239 1.400 . S
C239 C238 1.400 . S
C239 C240 1.398 . S
C239 C245 1.491 . S
C240 H231 0.950 . S
C240 C239 1.398 . S
C240 C241 1.391 . S
C241 H229 0.950 . S
C241 C237 1.393 . S
C241 C240 1.391 . S
C242 H232 0.950 . S
C242 C243 1.386 . S
C242 C244 1.391 . S
C243 C242 1.386 . S
C243 C247 1.393 . S
C244 H233 0.950 . S
C244 C242 1.391 . S
C244 C245 1.400 . S
C245 C239 1.491 . S
C245 C244 1.400 . S
C245 C246 1.398 . S
C246 H234 0.950 . S
C246 C245 1.398 . S
C246 C247 1.391 . S
C247 H235 0.950 . S
C247 C243 1.393 . S
C247 C246 1.391 . S
H248 C256 0.950 . S
H249 C261 0.950 . S
H250 C258 0.950 . S
H251 C260 0.950 . S
H252 C262 0.950 . S
H253 C264 0.950 . S
H254 C266 0.950 . S
H255 C267 0.950 . S
C256 H248 0.950 . S
C256 C257 1.386 . S
C256 C258 1.391 . S
C257 C256 1.386 . S
C257 C261 1.393 . S
C258 H250 0.950 . S
C258 C256 1.391 . S
C258 C259 1.400 . S
C259 C258 1.400 . S
C259 C260 1.398 . S
C259 C265 1.491 1_556 S
C260 H251 0.950 . S
C260 C259 1.398 . S
C260 C261 1.391 . S
C261 H249 0.950 . S
C261 C257 1.393 . S
C261 C260 1.391 . S
C262 H252 0.950 . S
C262 C263 1.386 . S
C262 C264 1.391 . S
C263 C262 1.386 . S
C263 C267 1.393 . S
C264 H253 0.950 . S
C264 C262 1.391 . S
C264 C265 1.400 . S
C265 C259 1.491 1_554 S
C265 C264 1.400 . S
C265 C266 1.398 . S
C266 H254 0.950 . S
C266 C265 1.398 . S
C266 C267 1.391 . S
C267 H255 0.950 . S
C267 C263 1.393 . S
C267 C266 1.391 . S
H268 C276 0.950 . S
H269 C281 0.950 . S
H270 C278 0.950 . S
H271 C280 0.950 . S
H272 C282 0.950 . S
H273 C284 0.950 . S
H274 C286 0.950 . S
H275 C287 0.950 . S
C276 H268 0.950 . S
C276 C277 1.386 . S
C276 C278 1.391 . S
C277 C276 1.386 . S
C277 C281 1.393 . S
C278 H270 0.950 . S
C278 C276 1.391 . S
C278 C279 1.400 . S
C279 C278 1.400 . S
C279 C280 1.398 . S
C279 C285 1.491 . S
C280 H271 0.950 . S
C280 C279 1.398 . S
C280 C281 1.391 . S
C281 H269 0.950 . S
C281 C277 1.393 . S
C281 C280 1.391 . S
C282 H272 0.950 . S
C282 C283 1.386 . S
C282 C284 1.391 . S
C283 C282 1.386 . S
C283 C287 1.393 . S
C284 H273 0.950 . S
C284 C282 1.391 . S
C284 C285 1.400 . S
C285 C279 1.491 . S
C285 C284 1.400 . S
C285 C286 1.398 . S
C286 H274 0.950 . S
C286 C285 1.398 . S
C286 C287 1.391 . S
C287 H275 0.950 . S
C287 C283 1.393 . S
C287 C286 1.391 . S
H288 C296 0.950 . S
H289 C301 0.950 . S
H290 C298 0.950 . S
H291 C300 0.950 . S
H292 C302 0.950 . S
H293 C304 0.950 . S
H294 C306 0.950 . S
H295 C307 0.950 . S
C296 H288 0.950 . S
C296 C297 1.386 . S
C296 C298 1.391 . S
C297 C296 1.386 . S
C297 C301 1.393 . S
C298 H290 0.950 . S
C298 C296 1.391 . S
C298 C299 1.400 . S
C299 C298 1.400 . S
C299 C300 1.398 . S
C299 C305 1.491 1_554 S
C300 H291 0.950 . S
C300 C299 1.398 . S
C300 C301 1.391 . S
C301 H289 0.950 . S
C301 C297 1.393 . S
C301 C300 1.391 . S
C302 H292 0.950 . S
C302 C303 1.386 . S
C302 C304 1.391 . S
C303 C302 1.386 . S
C303 C307 1.393 . S
C304 H293 0.950 . S
C304 C302 1.391 . S
C304 C305 1.400 . S
C305 C299 1.491 1_556 S
C305 C304 1.400 . S
C305 C306 1.398 . S
C306 H294 0.950 . S
C306 C305 1.398 . S
C306 C307 1.391 . S
C307 H295 0.950 . S
C307 C303 1.393 . S
C307 C306 1.391 . S
H308 C316 0.950 . S
H309 C321 0.950 . S
H310 C318 0.950 . S
H311 C320 0.950 . S
H312 C322 0.950 . S
H313 C324 0.950 . S
H314 C326 0.950 . S
H315 C327 0.950 . S
C316 H308 0.950 . S
C316 C317 1.386 . S
C316 C318 1.391 . S
C317 C316 1.386 . S
C317 C321 1.393 . S
C318 H310 0.950 . S
C318 C316 1.391 . S
C318 C319 1.400 . S
C319 C318 1.400 . S
C319 C320 1.398 . S
C319 C325 1.491 . S
C320 H311 0.950 . S
C320 C319 1.398 . S
C320 C321 1.391 . S
C321 H309 0.950 . S
C321 C317 1.393 . S
C321 C320 1.391 . S
C322 H312 0.950 . S
C322 C323 1.386 . S
C322 C324 1.391 . S
C323 C322 1.386 . S
C323 C327 1.393 . S
C324 H313 0.950 . S
C324 C322 1.391 . S
C324 C325 1.400 . S
C325 C319 1.491 . S
C325 C324 1.400 . S
C325 C326 1.398 . S
C326 H314 0.950 . S
C326 C325 1.398 . S
C326 C327 1.391 . S
C327 H315 0.950 . S
C327 C323 1.393 . S
C327 C326 1.391 . S
H328 C336 0.950 . S
H329 C341 0.950 . S
H330 C338 0.950 . S
H331 C340 0.950 . S
H332 C342 0.950 . S
H333 C344 0.950 . S
H334 C346 0.950 . S
H335 C347 0.950 . S
C336 H328 0.950 . S
C336 C337 1.386 . S
C336 C338 1.391 . S
C337 C336 1.386 . S
C337 C341 1.393 . S
C338 H330 0.950 . S
C338 C336 1.391 . S
C338 C339 1.400 . S
C339 C338 1.400 . S
C339 C340 1.398 . S
C339 C345 1.491 1_556 S
C340 H331 0.950 . S
C340 C339 1.398 . S
C340 C341 1.391 . S
C341 H329 0.950 . S
C341 C337 1.393 . S
C341 C340 1.391 . S
C342 H332 0.950 . S
C342 C343 1.386 . S
C342 C344 1.391 . S
C343 C342 1.386 . S
C343 C347 1.393 . S
C344 H333 0.950 . S
C344 C342 1.391 . S
C344 C345 1.400 . S
C345 C339 1.491 1_554 S
C345 C344 1.400 . S
C345 C346 1.398 . S
C346 H334 0.950 . S
C346 C345 1.398 . S
C346 C347 1.391 . S
C347 H335 0.950 . S
C347 C343 1.393 . S
C347 C346 1.391 . S
H348 C356 0.950 . S
H349 C361 0.950 . S
H350 C358 0.950 . S
H351 C360 0.950 . S
H352 C362 0.950 . S
H353 C364 0.950 . S
H354 C366 0.950 . S
H355 C367 0.950 . S
C356 H348 0.950 . S
C356 C357 1.386 . S
C356 C358 1.391 . S
C357 C356 1.386 . S
C357 C361 1.393 . S
C358 H350 0.950 . S
C358 C356 1.391 . S
C358 C359 1.400 . S
C359 C358 1.400 . S
C359 C360 1.398 . S
C359 C365 1.491 . S
C360 H351 0.950 . S
C360 C359 1.398 . S
C360 C361 1.391 . S
C361 H349 0.950 . S
C361 C357 1.393 . S
C361 C360 1.391 . S
C362 H352 0.950 . S
C362 C363 1.386 . S
C362 C364 1.391 . S
C363 C362 1.386 . S
C363 C367 1.393 . S
C364 H353 0.950 . S
C364 C362 1.391 . S
C364 C365 1.400 . S
C365 C359 1.491 . S
C365 C364 1.400 . S
C365 C366 1.398 . S
C366 H354 0.950 . S
C366 C365 1.398 . S
C366 C367 1.391 . S
C367 H355 0.950 . S
C367 C363 1.393 . S
C367 C366 1.391 . S
H368 C376 0.950 . S
H369 C381 0.950 . S
H370 C378 0.950 . S
H371 C380 0.950 1_565 S
H372 C382 0.950 . S
H373 C384 0.950 . S
H374 C386 0.950 1_545 S
H375 C387 0.950 . S
C376 H368 0.950 . S
C376 C377 1.386 . S
C376 C378 1.391 1_554 S
C377 C376 1.386 . S
C377 C381 1.393 . S
C378 H370 0.950 . S
C378 C376 1.391 1_556 S
C378 C379 1.400 1_556 S
C379 C378 1.400 1_554 S
C379 C380 1.398 . S
C379 C385 1.491 1_544 S
C380 H371 0.950 1_545 S
C380 C379 1.398 . S
C380 C381 1.391 . S
C381 H369 0.950 . S
C381 C377 1.393 . S
C381 C380 1.391 . S
C382 H372 0.950 . S
C382 C383 1.386 . S
C382 C384 1.391 1_556 S
C383 C382 1.386 . S
C383 C387 1.393 . S
C384 H373 0.950 . S
C384 C382 1.391 1_554 S
C384 C385 1.400 1_554 S
C385 C379 1.491 1_566 S
C385 C384 1.400 1_556 S
C385 C386 1.398 . S
C386 H374 0.950 1_565 S
C386 C385 1.398 . S
C386 C387 1.391 . S
C387 H375 0.950 . S
C387 C383 1.393 . S
C387 C386 1.391 . S
H388 C396 0.950 . S
H389 C401 0.950 . S
H390 C398 0.950 . S
H391 C400 0.940 1_545 S
H392 C402 0.950 . S
H393 C404 0.950 . S
H394 C406 0.940 1_565 S
H395 C407 0.950 . S
C396 H388 0.950 . S
C396 C397 1.386 . S
C396 C398 1.391 . S
C397 C396 1.386 . S
C397 C401 1.393 . S
C398 H390 0.950 . S
C398 C396 1.391 . S
C398 C399 1.400 . S
C399 C398 1.400 . S
C399 C400 1.398 . S
C399 C405 1.491 1_565 S
C400 H391 0.940 1_565 S
C400 C399 1.398 . S
C400 C401 1.391 . S
C401 H389 0.950 . S
C401 C397 1.393 . S
C401 C400 1.391 . S
C402 H392 0.950 . S
C402 C403 1.386 . S
C402 C404 1.391 . S
C403 C402 1.386 . S
C403 C407 1.393 . S
C404 H393 0.950 . S
C404 C402 1.391 . S
C404 C405 1.400 . S
C405 C399 1.491 1_545 S
C405 C404 1.400 . S
C405 C406 1.398 . S
C406 H394 0.940 1_545 S
C406 C405 1.398 . S
C406 C407 1.391 . S
C407 H395 0.950 . S
C407 C403 1.393 . S
C407 C406 1.391 . S
H408 C416 0.950 . S
H409 C421 0.950 . S
H410 C418 0.950 . S
H411 C420 0.950 . S
H412 C422 0.950 . S
H413 C424 0.950 . S
H414 C426 0.950 . S
H415 C427 0.950 . S
C416 H408 0.950 . S
C416 C417 1.386 . S
C416 C418 1.391 . S
C417 C416 1.386 . S
C417 C421 1.393 . S
C418 H410 0.950 . S
C418 C416 1.391 . S
C418 C419 1.400 . S
C419 C418 1.400 . S
C419 C420 1.398 . S
C419 C425 1.491 1_566 S
C420 H411 0.950 . S
C420 C419 1.398 . S
C420 C421 1.391 . S
C421 H409 0.950 . S
C421 C417 1.393 . S
C421 C420 1.391 . S
C422 H412 0.950 . S
C422 C423 1.386 . S
C422 C424 1.391 . S
C423 C422 1.386 . S
C423 C427 1.393 . S
C424 H413 0.950 . S
C424 C422 1.391 . S
C424 C425 1.400 . S
C425 C419 1.491 1_544 S
C425 C424 1.400 . S
C425 C426 1.398 . S
C426 H414 0.950 . S
C426 C425 1.398 . S
C426 C427 1.391 . S
C427 H415 0.950 . S
C427 C423 1.393 . S
C427 C426 1.391 . S
H428 C436 0.950 . S
H429 C441 0.950 . S
H430 C438 0.950 . S
H431 C440 0.950 . S
H432 C442 0.950 . S
H433 C444 0.950 . S
H434 C446 0.950 . S
H435 C447 0.950 . S
C436 H428 0.950 . S
C436 C437 1.386 . S
C436 C438 1.391 . S
C437 C436 1.386 . S
C437 C441 1.393 . S
C438 H430 0.950 . S
C438 C436 1.391 . S
C438 C439 1.400 . S
C439 C438 1.400 . S
C439 C440 1.398 . S
C439 C445 1.491 1_545 S
C440 H431 0.950 . S
C440 C439 1.398 . S
C440 C441 1.391 . S
C441 H429 0.950 . S
C441 C437 1.393 . S
C441 C440 1.391 . S
C442 H432 0.950 . S
C442 C443 1.386 . S
C442 C444 1.391 . S
C443 C442 1.386 . S
C443 C447 1.393 . S
C444 H433 0.950 . S
C444 C442 1.391 . S
C444 C445 1.400 . S
C445 C439 1.491 1_565 S
C445 C444 1.400 . S
C445 C446 1.398 . S
C446 H434 0.950 . S
C446 C445 1.398 . S
C446 C447 1.391 . S
C447 H435 0.950 . S
C447 C443 1.393 . S
C447 C446 1.391 . S
H448 C456 0.950 . S
H449 C461 0.950 . S
H450 C458 0.950 . S
H451 C460 0.950 . S
H452 C462 0.950 . S
H453 C464 0.950 . S
H454 C466 0.950 . S
H455 C467 0.950 . S
C456 H448 0.950 . S
C456 C457 1.386 . S
C456 C458 1.391 . S
C457 C456 1.386 . S
C457 C461 1.393 . S
C458 H450 0.950 . S
C458 C456 1.391 . S
C458 C459 1.400 . S
C459 C458 1.400 . S
C459 C460 1.398 . S
C459 C465 1.491 1_556 S
C460 H451 0.950 . S
C460 C459 1.398 . S
C460 C461 1.391 . S
C461 H449 0.950 . S
C461 C457 1.393 . S
C461 C460 1.391 . S
C462 H452 0.950 . S
C462 C463 1.386 . S
C462 C464 1.391 . S
C463 C462 1.386 . S
C463 C467 1.393 . S
C464 H453 0.950 . S
C464 C462 1.391 . S
C464 C465 1.400 . S
C465 C459 1.491 1_554 S
C465 C464 1.400 . S
C465 C466 1.398 . S
C466 H454 0.950 . S
C466 C465 1.398 . S
C466 C467 1.391 . S
C467 H455 0.950 . S
C467 C463 1.393 . S
C467 C466 1.391 . S
H468 C476 0.950 . S
H469 C481 0.950 . S
H470 C478 0.950 . S
H471 C480 0.950 . S
H472 C482 0.950 . S
H473 C484 0.950 . S
H474 C486 0.950 . S
H475 C487 0.950 . S
C476 H468 0.950 . S
C476 C477 1.386 . S
C476 C478 1.391 . S
C477 C476 1.386 . S
C477 C481 1.393 . S
C478 H470 0.950 . S
C478 C476 1.391 . S
C478 C479 1.400 . S
C479 C478 1.400 . S
C479 C480 1.398 . S
C479 C485 1.491 . S
C480 H471 0.950 . S
C480 C479 1.398 . S
C480 C481 1.391 . S
C481 H469 0.950 . S
C481 C477 1.393 . S
C481 C480 1.391 . S
C482 H472 0.950 . S
C482 C483 1.386 . S
C482 C484 1.391 . S
C483 C482 1.386 . S
C483 C487 1.393 . S
C484 H473 0.950 . S
C484 C482 1.391 . S
C484 C485 1.400 . S
C485 C479 1.491 . S
C485 C484 1.400 . S
C485 C486 1.398 . S
C486 H474 0.950 . S
C486 C485 1.398 . S
C486 C487 1.391 . S
C487 H475 0.950 . S
C487 C483 1.393 . S
C487 C486 1.391 . S
H488 C496 0.950 . S
H489 C501 0.950 1_556 S
H490 C498 0.950 . S
H491 C500 0.950 . S
H492 C502 0.950 . S
H493 C504 0.950 . S
H494 C506 0.950 . S
H495 C507 0.950 1_554 S
C496 H488 0.950 . S
C496 C497 1.386 . S
C496 C498 1.391 . S
C497 C496 1.386 . S
C497 C501 1.393 . S
C498 H490 0.950 . S
C498 C496 1.391 . S
C498 C499 1.400 . S
C499 C498 1.400 . S
C499 C500 1.398 1_554 S
C499 C505 1.491 1_554 S
C500 H491 0.950 . S
C500 C499 1.398 1_556 S
C500 C501 1.391 1_556 S
C501 H489 0.950 1_554 S
C501 C497 1.393 . S
C501 C500 1.391 1_554 S
C502 H492 0.950 . S
C502 C503 1.386 . S
C502 C504 1.391 . S
C503 C502 1.386 . S
C503 C507 1.393 . S
C504 H493 0.950 . S
C504 C502 1.391 . S
C504 C505 1.400 . S
C505 C499 1.491 1_556 S
C505 C504 1.400 . S
C505 C506 1.398 1_556 S
C506 H494 0.950 . S
C506 C505 1.398 1_554 S
C506 C507 1.391 1_554 S
C507 H495 0.950 1_556 S
C507 C503 1.393 . S
C507 C506 1.391 1_556 S
H508 C516 0.950 . S
H509 C521 0.950 . S
H510 C518 0.950 . S
H511 C520 0.950 . S
H512 C522 0.950 . S
H513 C524 0.950 . S
H514 C526 0.950 . S
H515 C527 0.950 . S
C516 H508 0.950 . S
C516 C517 1.386 . S
C516 C518 1.391 . S
C517 C516 1.386 . S
C517 C521 1.393 . S
C518 H510 0.950 . S
C518 C516 1.391 . S
C518 C519 1.400 . S
C519 C518 1.400 . S
C519 C520 1.398 . S
C519 C525 1.491 . S
C520 H511 0.950 . S
C520 C519 1.398 . S
C520 C521 1.391 . S
C521 H509 0.950 . S
C521 C517 1.393 . S
C521 C520 1.391 . S
C522 H512 0.950 . S
C522 C523 1.386 . S
C522 C524 1.391 . S
C523 C522 1.386 . S
C523 C527 1.393 . S
C524 H513 0.950 . S
C524 C522 1.391 . S
C524 C525 1.400 . S
C525 C519 1.491 . S
C525 C524 1.400 . S
C525 C526 1.398 . S
C526 H514 0.950 . S
C526 C525 1.398 . S
C526 C527 1.391 . S
C527 H515 0.950 . S
C527 C523 1.393 . S
C527 C526 1.391 . S
H528 C536 0.950 . S
H529 C541 0.950 . S
H530 C538 0.950 . S
H531 C540 0.950 . S
H532 C542 0.950 . S
H533 C544 0.950 . S
H534 C546 0.950 . S
H535 C547 0.950 . S
C536 H528 0.950 . S
C536 C537 1.386 . S
C536 C538 1.391 . S
C537 C536 1.386 . S
C537 C541 1.393 . S
C538 H530 0.950 . S
C538 C536 1.391 . S
C538 C539 1.400 . S
C539 C538 1.400 . S
C539 C540 1.398 . S
C539 C545 1.491 . S
C540 H531 0.950 . S
C540 C539 1.398 . S
C540 C541 1.391 . S
C541 H529 0.950 . S
C541 C537 1.393 . S
C541 C540 1.391 . S
C542 H532 0.950 . S
C542 C543 1.386 . S
C542 C544 1.391 . S
C543 C542 1.386 . S
C543 C547 1.393 . S
C544 H533 0.950 . S
C544 C542 1.391 . S
C544 C545 1.400 . S
C545 C539 1.491 . S
C545 C544 1.400 . S
C545 C546 1.398 . S
C546 H534 0.950 . S
C546 C545 1.398 . S
C546 C547 1.391 . S
C547 H535 0.950 . S
C547 C543 1.393 . S
C547 C546 1.391 . S
H548 C556 0.950 . S
H549 C561 0.950 . S
H550 C558 0.950 . S
H551 C560 0.950 . S
H552 C562 0.950 . S
H553 C564 0.950 . S
H554 C566 0.950 . S
H555 C567 0.950 . S
C556 H548 0.950 . S
C556 C557 1.386 . S
C556 C558 1.391 . S
C557 C556 1.386 . S
C557 C561 1.393 . S
C558 H550 0.950 . S
C558 C556 1.391 . S
C558 C559 1.400 . S
C559 C558 1.400 . S
C559 C560 1.398 . S
C559 C565 1.491 1_655 S
C560 H551 0.950 . S
C560 C559 1.398 . S
C560 C561 1.391 . S
C561 H549 0.950 . S
C561 C557 1.393 . S
C561 C560 1.391 . S
C562 H552 0.950 . S
C562 C563 1.386 . S
C562 C564 1.391 . S
C563 C562 1.386 . S
C563 C567 1.393 . S
C564 H553 0.950 . S
C564 C562 1.391 . S
C564 C565 1.400 . S
C565 C559 1.491 1_455 S
C565 C564 1.400 . S
C565 C566 1.398 . S
C566 H554 0.950 . S
C566 C565 1.398 . S
C566 C567 1.391 . S
C567 H555 0.950 . S
C567 C563 1.393 . S
C567 C566 1.391 . S
H568 C576 0.950 . S
H569 C581 0.950 . S
H570 C578 0.950 . S
H571 C580 0.950 . S
H572 C582 0.950 . S
H573 C584 0.950 . S
H574 C586 0.950 . S
H575 C587 0.950 . S
C576 H568 0.950 . S
C576 C577 1.386 . S
C576 C578 1.391 . S
C577 C576 1.386 . S
C577 C581 1.393 . S
C578 H570 0.950 . S
C578 C576 1.391 . S
C578 C579 1.400 . S
C579 C578 1.400 . S
C579 C580 1.398 . S
C579 C585 1.491 . S
C580 H571 0.950 . S
C580 C579 1.398 . S
C580 C581 1.391 . S
C581 H569 0.950 . S
C581 C577 1.393 . S
C581 C580 1.391 . S
C582 H572 0.950 . S
C582 C583 1.386 . S
C582 C584 1.391 . S
C583 C582 1.386 . S
C583 C587 1.393 . S
C584 H573 0.950 . S
C584 C582 1.391 . S
C584 C585 1.400 . S
C585 C579 1.491 . S
C585 C584 1.400 . S
C585 C586 1.398 . S
C586 H574 0.950 . S
C586 C585 1.398 . S
C586 C587 1.391 . S
C587 H575 0.950 . S
C587 C583 1.393 . S
C587 C586 1.391 . S
H588 C596 0.950 . S
H589 C601 0.950 . S
H590 C598 0.950 . S
H591 C600 0.950 . S
H592 C602 0.950 . S
H593 C604 0.950 . S
H594 C606 0.950 . S
H595 C607 0.950 . S
C596 H588 0.950 . S
C596 C597 1.386 . S
C596 C598 1.391 . S
C597 C596 1.386 . S
C597 C601 1.393 . S
C598 H590 0.950 . S
C598 C596 1.391 . S
C598 C599 1.400 . S
C599 C598 1.400 . S
C599 C600 1.398 . S
C599 C605 1.491 1_455 S
C600 H591 0.950 . S
C600 C599 1.398 . S
C600 C601 1.391 . S
C601 H589 0.950 . S
C601 C597 1.393 . S
C601 C600 1.391 . S
C602 H592 0.950 . S
C602 C603 1.386 . S
C602 C604 1.391 . S
C603 C602 1.386 . S
C603 C607 1.393 . S
C604 H593 0.950 . S
C604 C602 1.391 . S
C604 C605 1.400 . S
C605 C599 1.491 1_655 S
C605 C604 1.400 . S
C605 C606 1.398 . S
C606 H594 0.950 . S
C606 C605 1.398 . S
C606 C607 1.391 . S
C607 H595 0.950 . S
C607 C603 1.393 . S
C607 C606 1.391 . S
H608 C616 0.950 . S
H609 C621 0.950 . S
H610 C618 0.950 . S
H611 C620 0.950 . S
H612 C622 0.950 . S
H613 C624 0.950 . S
H614 C626 0.950 . S
H615 C627 0.950 . S
C616 H608 0.950 . S
C616 C617 1.386 . S
C616 C618 1.391 . S
C617 C616 1.386 . S
C617 C621 1.393 . S
C618 H610 0.950 . S
C618 C616 1.391 . S
C618 C619 1.400 . S
C619 C618 1.400 . S
C619 C620 1.398 . S
C619 C625 1.491 1_455 S
C620 H611 0.950 . S
C620 C619 1.398 . S
C620 C621 1.391 . S
C621 H609 0.950 . S
C621 C617 1.393 . S
C621 C620 1.391 . S
C622 H612 0.950 . S
C622 C623 1.386 . S
C622 C624 1.391 . S
C623 C622 1.386 . S
C623 C627 1.393 . S
C624 H613 0.950 . S
C624 C622 1.391 . S
C624 C625 1.400 . S
C625 C619 1.491 1_655 S
C625 C624 1.400 . S
C625 C626 1.398 . S
C626 H614 0.950 . S
C626 C625 1.398 . S
C626 C627 1.391 . S
C627 H615 0.950 . S
C627 C623 1.393 . S
C627 C626 1.391 . S
H628 C636 0.950 . S
H629 C641 0.950 . S
H630 C638 0.950 . S
H631 C640 0.950 . S
H632 C642 0.950 . S
H633 C644 0.950 . S
H634 C646 0.950 . S
H635 C647 0.950 . S
C636 H628 0.950 . S
C636 C637 1.386 . S
C636 C638 1.391 . S
C637 C636 1.386 . S
C637 C641 1.393 . S
C638 H630 0.950 . S
C638 C636 1.391 . S
C638 C639 1.400 . S
C639 C638 1.400 . S
C639 C640 1.398 . S
C639 C645 1.491 . S
C640 H631 0.950 . S
C640 C639 1.398 . S
C640 C641 1.391 . S
C641 H629 0.950 . S
C641 C637 1.393 . S
C641 C640 1.391 . S
C642 H632 0.950 . S
C642 C643 1.386 . S
C642 C644 1.391 . S
C643 C642 1.386 . S
C643 C647 1.393 . S
C644 H633 0.950 . S
C644 C642 1.391 . S
C644 C645 1.400 . S
C645 C639 1.491 . S
C645 C644 1.400 . S
C645 C646 1.398 . S
C646 H634 0.950 . S
C646 C645 1.398 . S
C646 C647 1.391 . S
C647 H635 0.950 . S
C647 C643 1.393 . S
C647 C646 1.391 . S
H648 C656 0.950 . S
H649 C661 0.950 . S
H650 C658 0.950 . S
H651 C660 0.950 . S
H652 C662 0.950 . S
H653 C664 0.950 . S
H654 C666 0.950 . S
H655 C667 0.950 . S
C656 H648 0.950 . S
C656 C657 1.386 . S
C656 C658 1.391 . S
C657 C656 1.386 . S
C657 C661 1.393 . S
C658 H650 0.950 . S
C658 C656 1.391 . S
C658 C659 1.400 . S
C659 C658 1.400 . S
C659 C660 1.398 . S
C659 C665 1.491 1_455 S
C660 H651 0.950 . S
C660 C659 1.398 . S
C660 C661 1.391 . S
C661 H649 0.950 . S
C661 C657 1.393 . S
C661 C660 1.391 . S
C662 H652 0.950 . S
C662 C663 1.386 . S
C662 C664 1.391 . S
C663 C662 1.386 . S
C663 C667 1.393 . S
C664 H653 0.950 . S
C664 C662 1.391 . S
C664 C665 1.400 . S
C665 C659 1.491 1_655 S
C665 C664 1.400 . S
C665 C666 1.398 . S
C666 H654 0.950 . S
C666 C665 1.398 . S
C666 C667 1.391 . S
C667 H655 0.950 . S
C667 C663 1.393 . S
C667 C666 1.391 . S
H668 C676 0.950 . S
H669 C681 0.950 . S
H670 C678 0.950 . S
H671 C680 0.950 . S
H672 C682 0.950 . S
H673 C684 0.950 . S
H674 C686 0.950 . S
H675 C687 0.950 . S
C676 H668 0.950 . S
C676 C677 1.386 . S
C676 C678 1.391 . S
C677 C676 1.386 . S
C677 C681 1.393 . S
C678 H670 0.950 . S
C678 C676 1.391 . S
C678 C679 1.400 . S
C679 C678 1.400 . S
C679 C680 1.398 . S
C679 C685 1.491 . S
C680 H671 0.950 . S
C680 C679 1.398 . S
C680 C681 1.391 . S
C681 H669 0.950 . S
C681 C677 1.393 . S
C681 C680 1.391 . S
C682 H672 0.950 . S
C682 C683 1.386 . S
C682 C684 1.391 . S
C683 C682 1.386 . S
C683 C687 1.393 . S
C684 H673 0.950 . S
C684 C682 1.391 . S
C684 C685 1.400 . S
C685 C679 1.491 . S
C685 C684 1.400 . S
C685 C686 1.398 . S
C686 H674 0.950 . S
C686 C685 1.398 . S
C686 C687 1.391 . S
C687 H675 0.950 . S
C687 C683 1.393 . S
C687 C686 1.391 . S
H688 C696 0.950 . S
H689 C701 0.950 . S
H690 C698 0.950 . S
H691 C700 0.950 . S
H692 C702 0.950 . S
H693 C704 0.950 . S
H694 C706 0.950 . S
H695 C707 0.950 . S
C696 H688 0.950 . S
C696 C697 1.386 . S
C696 C698 1.391 . S
C697 C696 1.386 . S
C697 C701 1.393 . S
C698 H690 0.950 . S
C698 C696 1.391 . S
C698 C699 1.400 . S
C699 C698 1.400 . S
C699 C700 1.398 . S
C699 C705 1.491 . S
C700 H691 0.950 . S
C700 C699 1.398 . S
C700 C701 1.391 . S
C701 H689 0.950 . S
C701 C697 1.393 . S
C701 C700 1.391 . S
C702 H692 0.950 . S
C702 C703 1.386 . S
C702 C704 1.391 . S
C703 C702 1.386 . S
C703 C707 1.393 . S
C704 H693 0.950 . S
C704 C702 1.391 . S
C704 C705 1.400 . S
C705 C699 1.491 . S
C705 C704 1.400 . S
C705 C706 1.398 . S
C706 H694 0.950 . S
C706 C705 1.398 . S
C706 C707 1.391 . S
C707 H695 0.950 . S
C707 C703 1.393 . S
C707 C706 1.391 . S
H708 C716 0.950 . S
H709 C721 0.950 . S
H710 C718 0.950 . S
H711 C720 0.950 . S
H712 C722 0.950 . S
H713 C724 0.950 . S
H714 C726 0.950 . S
H715 C727 0.950 . S
C716 H708 0.950 . S
C716 C717 1.386 . S
C716 C718 1.391 . S
C717 C716 1.386 . S
C717 C721 1.393 . S
C718 H710 0.950 . S
C718 C716 1.391 . S
C718 C719 1.400 . S
C719 C718 1.400 . S
C719 C720 1.398 . S
C719 C725 1.491 . S
C720 H711 0.950 . S
C720 C719 1.398 . S
C720 C721 1.391 . S
C721 H709 0.950 . S
C721 C717 1.393 . S
C721 C720 1.391 . S
C722 H712 0.950 . S
C722 C723 1.386 . S
C722 C724 1.391 . S
C723 C722 1.386 . S
C723 C727 1.393 . S
C724 H713 0.950 . S
C724 C722 1.391 . S
C724 C725 1.400 . S
C725 C719 1.491 . S
C725 C724 1.400 . S
C725 C726 1.398 . S
C726 H714 0.950 . S
C726 C725 1.398 . S
C726 C727 1.391 . S
C727 H715 0.950 . S
C727 C723 1.393 . S
C727 C726 1.391 . S
H728 C736 0.950 . S
H729 C741 0.950 . S
H730 C738 0.950 . S
H731 C740 0.950 . S
H732 C742 0.950 . S
H733 C744 0.950 . S
H734 C746 0.950 . S
H735 C747 0.950 . S
C736 H728 0.950 . S
C736 C737 1.386 . S
C736 C738 1.391 . S
C737 C736 1.386 . S
C737 C741 1.393 . S
C738 H730 0.950 . S
C738 C736 1.391 . S
C738 C739 1.400 . S
C739 C738 1.400 . S
C739 C740 1.398 . S
C739 C745 1.491 . S
C740 H731 0.950 . S
C740 C739 1.398 . S
C740 C741 1.391 . S
C741 H729 0.950 . S
C741 C737 1.393 . S
C741 C740 1.391 . S
C742 H732 0.950 . S
C742 C743 1.386 . S
C742 C744 1.391 . S
C743 C742 1.386 . S
C743 C747 1.393 . S
C744 H733 0.950 . S
C744 C742 1.391 . S
C744 C745 1.400 . S
C745 C739 1.491 . S
C745 C744 1.400 . S
C745 C746 1.398 . S
C746 H734 0.950 . S
C746 C745 1.398 . S
C746 C747 1.391 . S
C747 H735 0.950 . S
C747 C743 1.393 . S
C747 C746 1.391 . S
H748 C756 0.950 . S
H749 C761 0.950 . S
H750 C758 0.950 . S
H751 C760 0.950 . S
H752 C762 0.950 . S
H753 C764 0.950 . S
H754 C766 0.950 . S
H755 C767 0.950 . S
C756 H748 0.950 . S
C756 C757 1.386 . S
C756 C758 1.391 . S
C757 C756 1.386 . S
C757 C761 1.393 . S
C758 H750 0.950 . S
C758 C756 1.391 . S
C758 C759 1.400 . S
C759 C758 1.400 . S
C759 C760 1.398 . S
C759 C765 1.491 . S
C760 H751 0.950 . S
C760 C759 1.398 . S
C760 C761 1.391 . S
C761 H749 0.950 . S
C761 C757 1.393 . S
C761 C760 1.391 . S
C762 H752 0.950 . S
C762 C763 1.386 . S
C762 C764 1.391 . S
C763 C762 1.386 . S
C763 C767 1.393 . S
C764 H753 0.950 . S
C764 C762 1.391 . S
C764 C765 1.400 . S
C765 C759 1.491 . S
C765 C764 1.400 . S
C765 C766 1.398 . S
C766 H754 0.950 . S
C766 C765 1.398 . S
C766 C767 1.391 . S
C767 H755 0.950 . S
C767 C763 1.393 . S
C767 C766 1.391 . S
H768 C776 0.950 . S
H769 C781 0.950 . S
H770 C778 0.950 . S
H771 C780 0.950 . S
H772 C782 0.950 . S
H773 C784 0.950 . S
H774 C786 0.950 . S
H775 C787 0.950 . S
C776 H768 0.950 . S
C776 C777 1.386 . S
C776 C778 1.391 . S
C777 C776 1.386 . S
C777 C781 1.393 . S
C778 H770 0.950 . S
C778 C776 1.391 . S
C778 C779 1.400 . S
C779 C778 1.400 . S
C779 C780 1.398 . S
C779 C785 1.491 . S
C780 H771 0.950 . S
C780 C779 1.398 . S
C780 C781 1.391 . S
C781 H769 0.950 . S
C781 C777 1.393 . S
C781 C780 1.391 . S
C782 H772 0.950 . S
C782 C783 1.386 . S
C782 C784 1.391 . S
C783 C782 1.386 . S
C783 C787 1.393 . S
C784 H773 0.950 . S
C784 C782 1.391 . S
C784 C785 1.400 . S
C785 C779 1.491 . S
C785 C784 1.400 . S
C785 C786 1.398 . S
C786 H774 0.950 . S
C786 C785 1.398 . S
C786 C787 1.391 . S
C787 H775 0.950 . S
C787 C783 1.393 . S
C787 C786 1.391 . S
H788 C796 0.950 . S
H789 C801 0.950 . S
H790 C798 0.950 . S
H791 C800 0.950 . S
H792 C802 0.950 . S
H793 C804 0.950 . S
H794 C806 0.950 . S
H795 C807 0.950 . S
C796 H788 0.950 . S
C796 C797 1.386 . S
C796 C798 1.391 . S
C797 C796 1.386 . S
C797 C801 1.393 . S
C798 H790 0.950 . S
C798 C796 1.391 . S
C798 C799 1.400 . S
C799 C798 1.400 . S
C799 C800 1.398 . S
C799 C805 1.491 . S
C800 H791 0.950 . S
C800 C799 1.398 . S
C800 C801 1.391 . S
C801 H789 0.950 . S
C801 C797 1.393 . S
C801 C800 1.391 . S
C802 H792 0.950 . S
C802 C803 1.386 . S
C802 C804 1.391 . S
C803 C802 1.386 . S
C803 C807 1.393 . S
C804 H793 0.950 . S
C804 C802 1.391 . S
C804 C805 1.400 . S
C805 C799 1.491 . S
C805 C804 1.400 . S
C805 C806 1.398 . S
C806 H794 0.950 . S
C806 C805 1.398 . S
C806 C807 1.391 . S
C807 H795 0.950 . S
C807 C803 1.393 . S
C807 C806 1.391 . S
H808 C816 0.950 . S
H809 C821 0.950 . S
H810 C818 0.950 . S
H811 C820 0.950 . S
H812 C822 0.950 . S
H813 C824 0.950 . S
H814 C826 0.950 . S
H815 C827 0.950 . S
C816 H808 0.950 . S
C816 C817 1.386 . S
C816 C818 1.391 . S
C817 C816 1.386 . S
C817 C821 1.393 . S
C818 H810 0.950 . S
C818 C816 1.391 . S
C818 C819 1.400 . S
C819 C818 1.400 . S
C819 C820 1.398 . S
C819 C825 1.491 . S
C820 H811 0.950 . S
C820 C819 1.398 . S
C820 C821 1.391 . S
C821 H809 0.950 . S
C821 C817 1.393 . S
C821 C820 1.391 . S
C822 H812 0.950 . S
C822 C823 1.386 . S
C822 C824 1.391 . S
C823 C822 1.386 . S
C823 C827 1.393 . S
C824 H813 0.950 . S
C824 C822 1.391 . S
C824 C825 1.400 . S
C825 C819 1.491 . S
C825 C824 1.400 . S
C825 C826 1.398 . S
C826 H814 0.950 . S
C826 C825 1.398 . S
C826 C827 1.391 . S
C827 H815 0.950 . S
C827 C823 1.393 . S
C827 C826 1.391 . S
H828 C836 0.950 . S
H829 C841 0.950 . S
H830 C838 0.950 . S
H831 C840 0.950 . S
H832 C842 0.950 . S
H833 C844 0.950 . S
H834 C846 0.950 . S
H835 C847 0.950 . S
C836 H828 0.950 . S
C836 C837 1.386 . S
C836 C838 1.391 . S
C837 C836 1.386 . S
C837 C841 1.393 . S
C838 H830 0.950 . S
C838 C836 1.391 . S
C838 C839 1.400 . S
C839 C838 1.400 . S
C839 C840 1.398 . S
C839 C845 1.491 . S
C840 H831 0.950 . S
C840 C839 1.398 . S
C840 C841 1.391 . S
C841 H829 0.950 . S
C841 C837 1.393 . S
C841 C840 1.391 . S
C842 H832 0.950 . S
C842 C843 1.386 . S
C842 C844 1.391 . S
C843 C842 1.386 . S
C843 C847 1.393 . S
C844 H833 0.950 . S
C844 C842 1.391 . S
C844 C845 1.400 . S
C845 C839 1.491 . S
C845 C844 1.400 . S
C845 C846 1.398 . S
C846 H834 0.950 . S
C846 C845 1.398 . S
C846 C847 1.391 . S
C847 H835 0.950 . S
C847 C843 1.393 . S
C847 C846 1.391 . S
C217 C0 1.394 . S
C223 C164 1.396 . S
C237 C177 1.396 . S
C243 C13 1.401 . S
C257 C26 1.403 . S
C263 C190 1.414 . S
C277 C203 1.411 . S
C283 C39 1.407 . S
C297 C104 1.396 . S
C303 C60 1.396 . S
C317 C73 1.414 . S
C323 C117 1.398 . S
C337 C130 1.397 . S
C343 C86 1.396 . S
C357 C99 1.414 . S
C363 C143 1.400 . S
C377 C5 1.517 . S
C383 C31 1.535 . S
C397 C18 1.518 . S
C403 C44 1.537 . S
C417 C57 1.353 . S
C423 C83 1.359 . S
C437 C70 1.360 . S
C443 C96 1.352 . S
C457 C135 1.527 . S
C463 C109 1.530 . S
C477 C122 1.536 . S
C483 C148 1.520 . S
C497 C187 1.342 . S
C503 C161 1.364 . S
C517 C174 1.362 . S
C523 C200 1.349 . S
C537 C88 1.465 . S
C543 C10 1.465 . S
C557 C101 1.466 . S
C563 C23 1.466 . S
C577 C36 1.465 . S
C583 C62 1.465 . S
C597 C49 1.454 . S
C603 C75 1.454 . S
C617 C192 1.459 . S
C623 C114 1.459 . S
C637 C127 1.466 . S
C643 C205 1.466 . S
C657 C166 1.460 . S
C663 C140 1.460 . S
C677 C153 1.465 . S
C683 C179 1.465 . S
C697 C8 1.547 . S
C703 C47 1.561 . S
C717 C34 1.553 . S
C723 C21 1.554 . S
C737 C52 1.268 . S
C743 C91 1.269 . S
C757 C65 1.262 . S
C763 C78 1.262 . S
C777 C151 1.561 . S
C783 C112 1.548 . S
C797 C125 1.546 . S
C803 C138 1.561 . S
C817 C195 1.251 . S
C823 C156 1.251 . S
C837 C169 1.264 . S
C843 C182 1.264 . S
